# Generated by pormake.
# Topology ulg, (4)-cn, num edge types: 1
# Building blocks:
#     Node 0, Type 0, BuildingBlock: ICAMEG_clean_sbu_1, # of connection points: 4
#     Node 1, Type 0, BuildingBlock: ICAMEG_clean_sbu_1, # of connection points: 4
#     Node 2, Type 0, BuildingBlock: ICAMEG_clean_sbu_1, # of connection points: 4
#     Node 3, Type 0, BuildingBlock: ICAMEG_clean_sbu_1, # of connection points: 4
#     Node 4, Type 0, BuildingBlock: ICAMEG_clean_sbu_1, # of connection points: 4
#     Node 5, Type 0, BuildingBlock: ICAMEG_clean_sbu_1, # of connection points: 4
#     Node 6, Type 0, BuildingBlock: ICAMEG_clean_sbu_1, # of connection points: 4
#     Node 7, Type 0, BuildingBlock: ICAMEG_clean_sbu_1, # of connection points: 4
#     Node 8, Type 0, BuildingBlock: ICAMEG_clean_sbu_1, # of connection points: 4
#     Node 9, Type 0, BuildingBlock: ICAMEG_clean_sbu_1, # of connection points: 4
#     Node 10, Type 0, BuildingBlock: ICAMEG_clean_sbu_1, # of connection points: 4
#     Node 11, Type 0, BuildingBlock: ICAMEG_clean_sbu_1, # of connection points: 4
#     Node 12, Type 0, BuildingBlock: ICAMEG_clean_sbu_1, # of connection points: 4
#     Node 13, Type 0, BuildingBlock: ICAMEG_clean_sbu_1, # of connection points: 4
#     Node 14, Type 0, BuildingBlock: ICAMEG_clean_sbu_1, # of connection points: 4
#     Node 15, Type 0, BuildingBlock: ICAMEG_clean_sbu_1, # of connection points: 4
#     Node 16, Type 0, BuildingBlock: ICAMEG_clean_sbu_1, # of connection points: 4
#     Node 17, Type 0, BuildingBlock: ICAMEG_clean_sbu_1, # of connection points: 4
#     Node 18, Type 0, BuildingBlock: ICAMEG_clean_sbu_1, # of connection points: 4
#     Node 19, Type 0, BuildingBlock: ICAMEG_clean_sbu_1, # of connection points: 4
#     Node 20, Type 0, BuildingBlock: ICAMEG_clean_sbu_1, # of connection points: 4
#     Node 21, Type 0, BuildingBlock: ICAMEG_clean_sbu_1, # of connection points: 4
#     Node 22, Type 0, BuildingBlock: ICAMEG_clean_sbu_1, # of connection points: 4
#     Node 23, Type 0, BuildingBlock: ICAMEG_clean_sbu_1, # of connection points: 4
#     Node 24, Type 0, BuildingBlock: ICAMEG_clean_sbu_1, # of connection points: 4
#     Node 25, Type 0, BuildingBlock: ICAMEG_clean_sbu_1, # of connection points: 4
#     Node 26, Type 0, BuildingBlock: ICAMEG_clean_sbu_1, # of connection points: 4
#     Node 27, Type 0, BuildingBlock: ICAMEG_clean_sbu_1, # of connection points: 4
#     Node 28, Type 0, BuildingBlock: ICAMEG_clean_sbu_1, # of connection points: 4
#     Node 29, Type 0, BuildingBlock: ICAMEG_clean_sbu_1, # of connection points: 4
#     Node 30, Type 0, BuildingBlock: ICAMEG_clean_sbu_1, # of connection points: 4
#     Node 31, Type 0, BuildingBlock: ICAMEG_clean_sbu_1, # of connection points: 4
#     Node 32, Type 0, BuildingBlock: ICAMEG_clean_sbu_1, # of connection points: 4
#     Node 33, Type 0, BuildingBlock: ICAMEG_clean_sbu_1, # of connection points: 4
#     Node 34, Type 0, BuildingBlock: ICAMEG_clean_sbu_1, # of connection points: 4
#     Node 35, Type 0, BuildingBlock: ICAMEG_clean_sbu_1, # of connection points: 4
#     Node 36, Type 0, BuildingBlock: ICAMEG_clean_sbu_1, # of connection points: 4
#     Node 37, Type 0, BuildingBlock: ICAMEG_clean_sbu_1, # of connection points: 4
#     Node 38, Type 0, BuildingBlock: ICAMEG_clean_sbu_1, # of connection points: 4
#     Node 39, Type 0, BuildingBlock: ICAMEG_clean_sbu_1, # of connection points: 4
#     Node 40, Type 0, BuildingBlock: ICAMEG_clean_sbu_1, # of connection points: 4
#     Node 41, Type 0, BuildingBlock: ICAMEG_clean_sbu_1, # of connection points: 4
#     Node 42, Type 0, BuildingBlock: ICAMEG_clean_sbu_1, # of connection points: 4
#     Node 43, Type 0, BuildingBlock: ICAMEG_clean_sbu_1, # of connection points: 4
#     Node 44, Type 0, BuildingBlock: ICAMEG_clean_sbu_1, # of connection points: 4
#     Node 45, Type 0, BuildingBlock: ICAMEG_clean_sbu_1, # of connection points: 4
#     Node 46, Type 0, BuildingBlock: ICAMEG_clean_sbu_1, # of connection points: 4
#     Node 47, Type 0, BuildingBlock: ICAMEG_clean_sbu_1, # of connection points: 4
#     Node 48, Type 0, BuildingBlock: ICAMEG_clean_sbu_1, # of connection points: 4
#     Node 49, Type 0, BuildingBlock: ICAMEG_clean_sbu_1, # of connection points: 4
#     Node 50, Type 0, BuildingBlock: ICAMEG_clean_sbu_1, # of connection points: 4
#     Node 51, Type 0, BuildingBlock: ICAMEG_clean_sbu_1, # of connection points: 4
#     Node 52, Type 0, BuildingBlock: ICAMEG_clean_sbu_1, # of connection points: 4
#     Node 53, Type 0, BuildingBlock: ICAMEG_clean_sbu_1, # of connection points: 4
#     Node 54, Type 0, BuildingBlock: ICAMEG_clean_sbu_1, # of connection points: 4
#     Node 55, Type 0, BuildingBlock: ICAMEG_clean_sbu_1, # of connection points: 4
#     Node 56, Type 0, BuildingBlock: ICAMEG_clean_sbu_1, # of connection points: 4
#     Node 57, Type 0, BuildingBlock: ICAMEG_clean_sbu_1, # of connection points: 4
#     Node 58, Type 0, BuildingBlock: ICAMEG_clean_sbu_1, # of connection points: 4
#     Node 59, Type 0, BuildingBlock: ICAMEG_clean_sbu_1, # of connection points: 4
#     Node 60, Type 0, BuildingBlock: ICAMEG_clean_sbu_1, # of connection points: 4
#     Node 61, Type 0, BuildingBlock: ICAMEG_clean_sbu_1, # of connection points: 4
#     Node 62, Type 0, BuildingBlock: ICAMEG_clean_sbu_1, # of connection points: 4
#     Node 63, Type 0, BuildingBlock: ICAMEG_clean_sbu_1, # of connection points: 4
#     Node 64, Type 0, BuildingBlock: ICAMEG_clean_sbu_1, # of connection points: 4
#     Node 65, Type 0, BuildingBlock: ICAMEG_clean_sbu_1, # of connection points: 4
#     Node 66, Type 0, BuildingBlock: ICAMEG_clean_sbu_1, # of connection points: 4
#     Node 67, Type 0, BuildingBlock: ICAMEG_clean_sbu_1, # of connection points: 4
#     Node 68, Type 0, BuildingBlock: ICAMEG_clean_sbu_1, # of connection points: 4
#     Node 69, Type 0, BuildingBlock: ICAMEG_clean_sbu_1, # of connection points: 4
#     Node 70, Type 0, BuildingBlock: ICAMEG_clean_sbu_1, # of connection points: 4
#     Node 71, Type 0, BuildingBlock: ICAMEG_clean_sbu_1, # of connection points: 4
#     Node 72, Type 0, BuildingBlock: ICAMEG_clean_sbu_1, # of connection points: 4
#     Node 73, Type 0, BuildingBlock: ICAMEG_clean_sbu_1, # of connection points: 4
#     Node 74, Type 0, BuildingBlock: ICAMEG_clean_sbu_1, # of connection points: 4
#     Node 75, Type 0, BuildingBlock: ICAMEG_clean_sbu_1, # of connection points: 4
#     Node 76, Type 0, BuildingBlock: ICAMEG_clean_sbu_1, # of connection points: 4
#     Node 77, Type 0, BuildingBlock: ICAMEG_clean_sbu_1, # of connection points: 4
#     Node 78, Type 0, BuildingBlock: ICAMEG_clean_sbu_1, # of connection points: 4
#     Node 79, Type 0, BuildingBlock: ICAMEG_clean_sbu_1, # of connection points: 4
#     Node 80, Type 0, BuildingBlock: ICAMEG_clean_sbu_1, # of connection points: 4
#     Node 81, Type 0, BuildingBlock: ICAMEG_clean_sbu_1, # of connection points: 4
#     Node 82, Type 0, BuildingBlock: ICAMEG_clean_sbu_1, # of connection points: 4
#     Node 83, Type 0, BuildingBlock: ICAMEG_clean_sbu_1, # of connection points: 4
#     Node 84, Type 0, BuildingBlock: ICAMEG_clean_sbu_1, # of connection points: 4
#     Node 85, Type 0, BuildingBlock: ICAMEG_clean_sbu_1, # of connection points: 4
#     Node 86, Type 0, BuildingBlock: ICAMEG_clean_sbu_1, # of connection points: 4
#     Node 87, Type 0, BuildingBlock: ICAMEG_clean_sbu_1, # of connection points: 4
#     Node 88, Type 0, BuildingBlock: ICAMEG_clean_sbu_1, # of connection points: 4
#     Node 89, Type 0, BuildingBlock: ICAMEG_clean_sbu_1, # of connection points: 4
#     Node 90, Type 0, BuildingBlock: ICAMEG_clean_sbu_1, # of connection points: 4
#     Node 91, Type 0, BuildingBlock: ICAMEG_clean_sbu_1, # of connection points: 4
#     Node 92, Type 0, BuildingBlock: ICAMEG_clean_sbu_1, # of connection points: 4
#     Node 93, Type 0, BuildingBlock: ICAMEG_clean_sbu_1, # of connection points: 4
#     Node 94, Type 0, BuildingBlock: ICAMEG_clean_sbu_1, # of connection points: 4
#     Node 95, Type 0, BuildingBlock: ICAMEG_clean_sbu_1, # of connection points: 4
#     Edge 96, Type (0, 0), BuildingBlock: EZIPEK_clean_linker_0, # of connection points: 2
#     Edge 97, Type (0, 0), BuildingBlock: EZIPEK_clean_linker_0, # of connection points: 2
#     Edge 98, Type (0, 0), BuildingBlock: EZIPEK_clean_linker_0, # of connection points: 2
#     Edge 99, Type (0, 0), BuildingBlock: EZIPEK_clean_linker_0, # of connection points: 2
#     Edge 100, Type (0, 0), BuildingBlock: EZIPEK_clean_linker_0, # of connection points: 2
#     Edge 101, Type (0, 0), BuildingBlock: EZIPEK_clean_linker_0, # of connection points: 2
#     Edge 102, Type (0, 0), BuildingBlock: EZIPEK_clean_linker_0, # of connection points: 2
#     Edge 103, Type (0, 0), BuildingBlock: EZIPEK_clean_linker_0, # of connection points: 2
#     Edge 104, Type (0, 0), BuildingBlock: EZIPEK_clean_linker_0, # of connection points: 2
#     Edge 105, Type (0, 0), BuildingBlock: EZIPEK_clean_linker_0, # of connection points: 2
#     Edge 106, Type (0, 0), BuildingBlock: EZIPEK_clean_linker_0, # of connection points: 2
#     Edge 107, Type (0, 0), BuildingBlock: EZIPEK_clean_linker_0, # of connection points: 2
#     Edge 108, Type (0, 0), BuildingBlock: EZIPEK_clean_linker_0, # of connection points: 2
#     Edge 109, Type (0, 0), BuildingBlock: EZIPEK_clean_linker_0, # of connection points: 2
#     Edge 110, Type (0, 0), BuildingBlock: EZIPEK_clean_linker_0, # of connection points: 2
#     Edge 111, Type (0, 0), BuildingBlock: EZIPEK_clean_linker_0, # of connection points: 2
#     Edge 112, Type (0, 0), BuildingBlock: EZIPEK_clean_linker_0, # of connection points: 2
#     Edge 113, Type (0, 0), BuildingBlock: EZIPEK_clean_linker_0, # of connection points: 2
#     Edge 114, Type (0, 0), BuildingBlock: EZIPEK_clean_linker_0, # of connection points: 2
#     Edge 115, Type (0, 0), BuildingBlock: EZIPEK_clean_linker_0, # of connection points: 2
#     Edge 116, Type (0, 0), BuildingBlock: EZIPEK_clean_linker_0, # of connection points: 2
#     Edge 117, Type (0, 0), BuildingBlock: EZIPEK_clean_linker_0, # of connection points: 2
#     Edge 118, Type (0, 0), BuildingBlock: EZIPEK_clean_linker_0, # of connection points: 2
#     Edge 119, Type (0, 0), BuildingBlock: EZIPEK_clean_linker_0, # of connection points: 2
#     Edge 120, Type (0, 0), BuildingBlock: EZIPEK_clean_linker_0, # of connection points: 2
#     Edge 121, Type (0, 0), BuildingBlock: EZIPEK_clean_linker_0, # of connection points: 2
#     Edge 122, Type (0, 0), BuildingBlock: EZIPEK_clean_linker_0, # of connection points: 2
#     Edge 123, Type (0, 0), BuildingBlock: EZIPEK_clean_linker_0, # of connection points: 2
#     Edge 124, Type (0, 0), BuildingBlock: EZIPEK_clean_linker_0, # of connection points: 2
#     Edge 125, Type (0, 0), BuildingBlock: EZIPEK_clean_linker_0, # of connection points: 2
#     Edge 126, Type (0, 0), BuildingBlock: EZIPEK_clean_linker_0, # of connection points: 2
#     Edge 127, Type (0, 0), BuildingBlock: EZIPEK_clean_linker_0, # of connection points: 2
#     Edge 128, Type (0, 0), BuildingBlock: EZIPEK_clean_linker_0, # of connection points: 2
#     Edge 129, Type (0, 0), BuildingBlock: EZIPEK_clean_linker_0, # of connection points: 2
#     Edge 130, Type (0, 0), BuildingBlock: EZIPEK_clean_linker_0, # of connection points: 2
#     Edge 131, Type (0, 0), BuildingBlock: EZIPEK_clean_linker_0, # of connection points: 2
#     Edge 132, Type (0, 0), BuildingBlock: EZIPEK_clean_linker_0, # of connection points: 2
#     Edge 133, Type (0, 0), BuildingBlock: EZIPEK_clean_linker_0, # of connection points: 2
#     Edge 134, Type (0, 0), BuildingBlock: EZIPEK_clean_linker_0, # of connection points: 2
#     Edge 135, Type (0, 0), BuildingBlock: EZIPEK_clean_linker_0, # of connection points: 2
#     Edge 136, Type (0, 0), BuildingBlock: EZIPEK_clean_linker_0, # of connection points: 2
#     Edge 137, Type (0, 0), BuildingBlock: EZIPEK_clean_linker_0, # of connection points: 2
#     Edge 138, Type (0, 0), BuildingBlock: EZIPEK_clean_linker_0, # of connection points: 2
#     Edge 139, Type (0, 0), BuildingBlock: EZIPEK_clean_linker_0, # of connection points: 2
#     Edge 140, Type (0, 0), BuildingBlock: EZIPEK_clean_linker_0, # of connection points: 2
#     Edge 141, Type (0, 0), BuildingBlock: EZIPEK_clean_linker_0, # of connection points: 2
#     Edge 142, Type (0, 0), BuildingBlock: EZIPEK_clean_linker_0, # of connection points: 2
#     Edge 143, Type (0, 0), BuildingBlock: EZIPEK_clean_linker_0, # of connection points: 2
#     Edge 144, Type (0, 0), BuildingBlock: EZIPEK_clean_linker_0, # of connection points: 2
#     Edge 145, Type (0, 0), BuildingBlock: EZIPEK_clean_linker_0, # of connection points: 2
#     Edge 146, Type (0, 0), BuildingBlock: EZIPEK_clean_linker_0, # of connection points: 2
#     Edge 147, Type (0, 0), BuildingBlock: EZIPEK_clean_linker_0, # of connection points: 2
#     Edge 148, Type (0, 0), BuildingBlock: EZIPEK_clean_linker_0, # of connection points: 2
#     Edge 149, Type (0, 0), BuildingBlock: EZIPEK_clean_linker_0, # of connection points: 2
#     Edge 150, Type (0, 0), BuildingBlock: EZIPEK_clean_linker_0, # of connection points: 2
#     Edge 151, Type (0, 0), BuildingBlock: EZIPEK_clean_linker_0, # of connection points: 2
#     Edge 152, Type (0, 0), BuildingBlock: EZIPEK_clean_linker_0, # of connection points: 2
#     Edge 153, Type (0, 0), BuildingBlock: EZIPEK_clean_linker_0, # of connection points: 2
#     Edge 154, Type (0, 0), BuildingBlock: EZIPEK_clean_linker_0, # of connection points: 2
#     Edge 155, Type (0, 0), BuildingBlock: EZIPEK_clean_linker_0, # of connection points: 2
#     Edge 156, Type (0, 0), BuildingBlock: EZIPEK_clean_linker_0, # of connection points: 2
#     Edge 157, Type (0, 0), BuildingBlock: EZIPEK_clean_linker_0, # of connection points: 2
#     Edge 158, Type (0, 0), BuildingBlock: EZIPEK_clean_linker_0, # of connection points: 2
#     Edge 159, Type (0, 0), BuildingBlock: EZIPEK_clean_linker_0, # of connection points: 2
#     Edge 160, Type (0, 0), BuildingBlock: EZIPEK_clean_linker_0, # of connection points: 2
#     Edge 161, Type (0, 0), BuildingBlock: EZIPEK_clean_linker_0, # of connection points: 2
#     Edge 162, Type (0, 0), BuildingBlock: EZIPEK_clean_linker_0, # of connection points: 2
#     Edge 163, Type (0, 0), BuildingBlock: EZIPEK_clean_linker_0, # of connection points: 2
#     Edge 164, Type (0, 0), BuildingBlock: EZIPEK_clean_linker_0, # of connection points: 2
#     Edge 165, Type (0, 0), BuildingBlock: EZIPEK_clean_linker_0, # of connection points: 2
#     Edge 166, Type (0, 0), BuildingBlock: EZIPEK_clean_linker_0, # of connection points: 2
#     Edge 167, Type (0, 0), BuildingBlock: EZIPEK_clean_linker_0, # of connection points: 2
#     Edge 168, Type (0, 0), BuildingBlock: EZIPEK_clean_linker_0, # of connection points: 2
#     Edge 169, Type (0, 0), BuildingBlock: EZIPEK_clean_linker_0, # of connection points: 2
#     Edge 170, Type (0, 0), BuildingBlock: EZIPEK_clean_linker_0, # of connection points: 2
#     Edge 171, Type (0, 0), BuildingBlock: EZIPEK_clean_linker_0, # of connection points: 2
#     Edge 172, Type (0, 0), BuildingBlock: EZIPEK_clean_linker_0, # of connection points: 2
#     Edge 173, Type (0, 0), BuildingBlock: EZIPEK_clean_linker_0, # of connection points: 2
#     Edge 174, Type (0, 0), BuildingBlock: EZIPEK_clean_linker_0, # of connection points: 2
#     Edge 175, Type (0, 0), BuildingBlock: EZIPEK_clean_linker_0, # of connection points: 2
#     Edge 176, Type (0, 0), BuildingBlock: EZIPEK_clean_linker_0, # of connection points: 2
#     Edge 177, Type (0, 0), BuildingBlock: EZIPEK_clean_linker_0, # of connection points: 2
#     Edge 178, Type (0, 0), BuildingBlock: EZIPEK_clean_linker_0, # of connection points: 2
#     Edge 179, Type (0, 0), BuildingBlock: EZIPEK_clean_linker_0, # of connection points: 2
#     Edge 180, Type (0, 0), BuildingBlock: EZIPEK_clean_linker_0, # of connection points: 2
#     Edge 181, Type (0, 0), BuildingBlock: EZIPEK_clean_linker_0, # of connection points: 2
#     Edge 182, Type (0, 0), BuildingBlock: EZIPEK_clean_linker_0, # of connection points: 2
#     Edge 183, Type (0, 0), BuildingBlock: EZIPEK_clean_linker_0, # of connection points: 2
#     Edge 184, Type (0, 0), BuildingBlock: EZIPEK_clean_linker_0, # of connection points: 2
#     Edge 185, Type (0, 0), BuildingBlock: EZIPEK_clean_linker_0, # of connection points: 2
#     Edge 186, Type (0, 0), BuildingBlock: EZIPEK_clean_linker_0, # of connection points: 2
#     Edge 187, Type (0, 0), BuildingBlock: EZIPEK_clean_linker_0, # of connection points: 2
#     Edge 188, Type (0, 0), BuildingBlock: EZIPEK_clean_linker_0, # of connection points: 2
#     Edge 189, Type (0, 0), BuildingBlock: EZIPEK_clean_linker_0, # of connection points: 2
#     Edge 190, Type (0, 0), BuildingBlock: EZIPEK_clean_linker_0, # of connection points: 2
#     Edge 191, Type (0, 0), BuildingBlock: EZIPEK_clean_linker_0, # of connection points: 2
#     Edge 192, Type (0, 0), BuildingBlock: EZIPEK_clean_linker_0, # of connection points: 2
#     Edge 193, Type (0, 0), BuildingBlock: EZIPEK_clean_linker_0, # of connection points: 2
#     Edge 194, Type (0, 0), BuildingBlock: EZIPEK_clean_linker_0, # of connection points: 2
#     Edge 195, Type (0, 0), BuildingBlock: EZIPEK_clean_linker_0, # of connection points: 2
#     Edge 196, Type (0, 0), BuildingBlock: EZIPEK_clean_linker_0, # of connection points: 2
#     Edge 197, Type (0, 0), BuildingBlock: EZIPEK_clean_linker_0, # of connection points: 2
#     Edge 198, Type (0, 0), BuildingBlock: EZIPEK_clean_linker_0, # of connection points: 2
#     Edge 199, Type (0, 0), BuildingBlock: EZIPEK_clean_linker_0, # of connection points: 2
#     Edge 200, Type (0, 0), BuildingBlock: EZIPEK_clean_linker_0, # of connection points: 2
#     Edge 201, Type (0, 0), BuildingBlock: EZIPEK_clean_linker_0, # of connection points: 2
#     Edge 202, Type (0, 0), BuildingBlock: EZIPEK_clean_linker_0, # of connection points: 2
#     Edge 203, Type (0, 0), BuildingBlock: EZIPEK_clean_linker_0, # of connection points: 2
#     Edge 204, Type (0, 0), BuildingBlock: EZIPEK_clean_linker_0, # of connection points: 2
#     Edge 205, Type (0, 0), BuildingBlock: EZIPEK_clean_linker_0, # of connection points: 2
#     Edge 206, Type (0, 0), BuildingBlock: EZIPEK_clean_linker_0, # of connection points: 2
#     Edge 207, Type (0, 0), BuildingBlock: EZIPEK_clean_linker_0, # of connection points: 2
#     Edge 208, Type (0, 0), BuildingBlock: EZIPEK_clean_linker_0, # of connection points: 2
#     Edge 209, Type (0, 0), BuildingBlock: EZIPEK_clean_linker_0, # of connection points: 2
#     Edge 210, Type (0, 0), BuildingBlock: EZIPEK_clean_linker_0, # of connection points: 2
#     Edge 211, Type (0, 0), BuildingBlock: EZIPEK_clean_linker_0, # of connection points: 2
#     Edge 212, Type (0, 0), BuildingBlock: EZIPEK_clean_linker_0, # of connection points: 2
#     Edge 213, Type (0, 0), BuildingBlock: EZIPEK_clean_linker_0, # of connection points: 2
#     Edge 214, Type (0, 0), BuildingBlock: EZIPEK_clean_linker_0, # of connection points: 2
#     Edge 215, Type (0, 0), BuildingBlock: EZIPEK_clean_linker_0, # of connection points: 2
#     Edge 216, Type (0, 0), BuildingBlock: EZIPEK_clean_linker_0, # of connection points: 2
#     Edge 217, Type (0, 0), BuildingBlock: EZIPEK_clean_linker_0, # of connection points: 2
#     Edge 218, Type (0, 0), BuildingBlock: EZIPEK_clean_linker_0, # of connection points: 2
#     Edge 219, Type (0, 0), BuildingBlock: EZIPEK_clean_linker_0, # of connection points: 2
#     Edge 220, Type (0, 0), BuildingBlock: EZIPEK_clean_linker_0, # of connection points: 2
#     Edge 221, Type (0, 0), BuildingBlock: EZIPEK_clean_linker_0, # of connection points: 2
#     Edge 222, Type (0, 0), BuildingBlock: EZIPEK_clean_linker_0, # of connection points: 2
#     Edge 223, Type (0, 0), BuildingBlock: EZIPEK_clean_linker_0, # of connection points: 2
#     Edge 224, Type (0, 0), BuildingBlock: EZIPEK_clean_linker_0, # of connection points: 2
#     Edge 225, Type (0, 0), BuildingBlock: EZIPEK_clean_linker_0, # of connection points: 2
#     Edge 226, Type (0, 0), BuildingBlock: EZIPEK_clean_linker_0, # of connection points: 2
#     Edge 227, Type (0, 0), BuildingBlock: EZIPEK_clean_linker_0, # of connection points: 2
#     Edge 228, Type (0, 0), BuildingBlock: EZIPEK_clean_linker_0, # of connection points: 2
#     Edge 229, Type (0, 0), BuildingBlock: EZIPEK_clean_linker_0, # of connection points: 2
#     Edge 230, Type (0, 0), BuildingBlock: EZIPEK_clean_linker_0, # of connection points: 2
#     Edge 231, Type (0, 0), BuildingBlock: EZIPEK_clean_linker_0, # of connection points: 2
#     Edge 232, Type (0, 0), BuildingBlock: EZIPEK_clean_linker_0, # of connection points: 2
#     Edge 233, Type (0, 0), BuildingBlock: EZIPEK_clean_linker_0, # of connection points: 2
#     Edge 234, Type (0, 0), BuildingBlock: EZIPEK_clean_linker_0, # of connection points: 2
#     Edge 235, Type (0, 0), BuildingBlock: EZIPEK_clean_linker_0, # of connection points: 2
#     Edge 236, Type (0, 0), BuildingBlock: EZIPEK_clean_linker_0, # of connection points: 2
#     Edge 237, Type (0, 0), BuildingBlock: EZIPEK_clean_linker_0, # of connection points: 2
#     Edge 238, Type (0, 0), BuildingBlock: EZIPEK_clean_linker_0, # of connection points: 2
#     Edge 239, Type (0, 0), BuildingBlock: EZIPEK_clean_linker_0, # of connection points: 2
#     Edge 240, Type (0, 0), BuildingBlock: EZIPEK_clean_linker_0, # of connection points: 2
#     Edge 241, Type (0, 0), BuildingBlock: EZIPEK_clean_linker_0, # of connection points: 2
#     Edge 242, Type (0, 0), BuildingBlock: EZIPEK_clean_linker_0, # of connection points: 2
#     Edge 243, Type (0, 0), BuildingBlock: EZIPEK_clean_linker_0, # of connection points: 2
#     Edge 244, Type (0, 0), BuildingBlock: EZIPEK_clean_linker_0, # of connection points: 2
#     Edge 245, Type (0, 0), BuildingBlock: EZIPEK_clean_linker_0, # of connection points: 2
#     Edge 246, Type (0, 0), BuildingBlock: EZIPEK_clean_linker_0, # of connection points: 2
#     Edge 247, Type (0, 0), BuildingBlock: EZIPEK_clean_linker_0, # of connection points: 2
#     Edge 248, Type (0, 0), BuildingBlock: EZIPEK_clean_linker_0, # of connection points: 2
#     Edge 249, Type (0, 0), BuildingBlock: EZIPEK_clean_linker_0, # of connection points: 2
#     Edge 250, Type (0, 0), BuildingBlock: EZIPEK_clean_linker_0, # of connection points: 2
#     Edge 251, Type (0, 0), BuildingBlock: EZIPEK_clean_linker_0, # of connection points: 2
#     Edge 252, Type (0, 0), BuildingBlock: EZIPEK_clean_linker_0, # of connection points: 2
#     Edge 253, Type (0, 0), BuildingBlock: EZIPEK_clean_linker_0, # of connection points: 2
#     Edge 254, Type (0, 0), BuildingBlock: EZIPEK_clean_linker_0, # of connection points: 2
#     Edge 255, Type (0, 0), BuildingBlock: EZIPEK_clean_linker_0, # of connection points: 2
#     Edge 256, Type (0, 0), BuildingBlock: EZIPEK_clean_linker_0, # of connection points: 2
#     Edge 257, Type (0, 0), BuildingBlock: EZIPEK_clean_linker_0, # of connection points: 2
#     Edge 258, Type (0, 0), BuildingBlock: EZIPEK_clean_linker_0, # of connection points: 2
#     Edge 259, Type (0, 0), BuildingBlock: EZIPEK_clean_linker_0, # of connection points: 2
#     Edge 260, Type (0, 0), BuildingBlock: EZIPEK_clean_linker_0, # of connection points: 2
#     Edge 261, Type (0, 0), BuildingBlock: EZIPEK_clean_linker_0, # of connection points: 2
#     Edge 262, Type (0, 0), BuildingBlock: EZIPEK_clean_linker_0, # of connection points: 2
#     Edge 263, Type (0, 0), BuildingBlock: EZIPEK_clean_linker_0, # of connection points: 2
#     Edge 264, Type (0, 0), BuildingBlock: EZIPEK_clean_linker_0, # of connection points: 2
#     Edge 265, Type (0, 0), BuildingBlock: EZIPEK_clean_linker_0, # of connection points: 2
#     Edge 266, Type (0, 0), BuildingBlock: EZIPEK_clean_linker_0, # of connection points: 2
#     Edge 267, Type (0, 0), BuildingBlock: EZIPEK_clean_linker_0, # of connection points: 2
#     Edge 268, Type (0, 0), BuildingBlock: EZIPEK_clean_linker_0, # of connection points: 2
#     Edge 269, Type (0, 0), BuildingBlock: EZIPEK_clean_linker_0, # of connection points: 2
#     Edge 270, Type (0, 0), BuildingBlock: EZIPEK_clean_linker_0, # of connection points: 2
#     Edge 271, Type (0, 0), BuildingBlock: EZIPEK_clean_linker_0, # of connection points: 2
#     Edge 272, Type (0, 0), BuildingBlock: EZIPEK_clean_linker_0, # of connection points: 2
#     Edge 273, Type (0, 0), BuildingBlock: EZIPEK_clean_linker_0, # of connection points: 2
#     Edge 274, Type (0, 0), BuildingBlock: EZIPEK_clean_linker_0, # of connection points: 2
#     Edge 275, Type (0, 0), BuildingBlock: EZIPEK_clean_linker_0, # of connection points: 2
#     Edge 276, Type (0, 0), BuildingBlock: EZIPEK_clean_linker_0, # of connection points: 2
#     Edge 277, Type (0, 0), BuildingBlock: EZIPEK_clean_linker_0, # of connection points: 2
#     Edge 278, Type (0, 0), BuildingBlock: EZIPEK_clean_linker_0, # of connection points: 2
#     Edge 279, Type (0, 0), BuildingBlock: EZIPEK_clean_linker_0, # of connection points: 2
#     Edge 280, Type (0, 0), BuildingBlock: EZIPEK_clean_linker_0, # of connection points: 2
#     Edge 281, Type (0, 0), BuildingBlock: EZIPEK_clean_linker_0, # of connection points: 2
#     Edge 282, Type (0, 0), BuildingBlock: EZIPEK_clean_linker_0, # of connection points: 2
#     Edge 283, Type (0, 0), BuildingBlock: EZIPEK_clean_linker_0, # of connection points: 2
#     Edge 284, Type (0, 0), BuildingBlock: EZIPEK_clean_linker_0, # of connection points: 2
#     Edge 285, Type (0, 0), BuildingBlock: EZIPEK_clean_linker_0, # of connection points: 2
#     Edge 286, Type (0, 0), BuildingBlock: EZIPEK_clean_linker_0, # of connection points: 2
#     Edge 287, Type (0, 0), BuildingBlock: EZIPEK_clean_linker_0, # of connection points: 2
# Relax obj value: 0.505
# Max RMSD: 0.170
# Mean RMSD: 0.169
data_MOF--net-ulg--node1-ICAMEG_clean_sbu_1--edge1-EZIPEK_clean_linker_0
_symmetry_space_group_name_H-M    P1
_symmetry_Int_Tables_number       1
_symmetry_cell_setting            triclinic
loop_
_symmetry_equiv_pos_as_xyz
'x, y, z'
_cell_length_a     75.998932
_cell_length_b     76.027161
_cell_length_c     76.032406
_cell_angle_alpha  89.999525
_cell_angle_beta   89.982326
_cell_angle_gamma 90.008165
loop_
_atom_site_label
_atom_site_type_symbol
_atom_site_fract_x
_atom_site_fract_y
_atom_site_fract_z
_atom_type_partial_charge
Co0 Co 0.08193 0.54981 0.1475 0.0
Co1 Co 0.05914 0.51431 0.13334 0.0
O2 O 0.0704 0.52751 0.15228 0.0
C3 C 0.09887 0.53618 0.18141 0.0
O4 O 0.08817 0.52268 0.18233 0.0
C5 C 0.03147 0.51369 0.16116 0.0
O6 O 0.03151 0.53093 0.16115 0.0
O7 O 0.04393 0.53571 0.12705 0.0
O8 O 0.06589 0.55485 0.12816 0.0
H9 H 0.05261 0.47501 0.07918 0.0
H10 H 0.06148 0.54025 0.18019 0.0
O11 O 0.0989 0.54643 0.168 0.0
H12 H 0.04127 0.59958 0.16436 0.0
H13 H 0.10777 0.60936 0.16049 0.0
H14 H 0.09287 0.5664 0.11439 0.0
H15 H 0.06331 0.58455 0.14629 0.0
H16 H 0.0964 0.57996 0.16857 0.0
O17 O 0.04121 0.50556 0.15034 0.0
H18 H 0.06917 0.49224 0.10031 0.0
H19 H 0.02186 0.50883 0.125 0.0
H20 H 0.10455 0.59515 0.10594 0.0
H21 H 0.03958 0.55493 0.19867 0.0
H22 H 0.11215 0.61643 0.12874 0.0
H23 H 0.02922 0.58484 0.19089 0.0
O24 O 0.0978 0.53753 0.12994 0.0
H25 H 0.08223 0.46909 0.17593 0.0
H26 H 0.09066 0.49372 0.11694 0.0
H27 H 0.1079 0.46847 0.12583 0.0
H28 H 0.1037 0.45549 0.15546 0.0
H29 H 0.0651 0.49457 0.16649 0.0
H30 H 0.00468 0.49176 0.10371 0.0
H31 H 0.02001 0.4745 0.08061 0.0
O32 O 0.07714 0.52223 0.11576 0.0
C33 C 0.04996 0.55138 0.12511 0.0
C34 C 0.04577 0.48211 0.08946 0.0
C35 C 0.01891 0.49155 0.10315 0.0
N36 N 0.04685 0.50086 0.11501 0.0
C37 C 0.05524 0.49174 0.10193 0.0
C38 C 0.02882 0.50109 0.11534 0.0
C39 C 0.02749 0.48189 0.0902 0.0
C40 C 0.05779 0.5535 0.17695 0.0
N41 N 0.06516 0.56197 0.16292 0.0
C42 C 0.04501 0.56166 0.18736 0.0
C43 C 0.03919 0.57843 0.18301 0.0
C44 C 0.04603 0.58673 0.16822 0.0
C45 C 0.05883 0.57819 0.15817 0.0
C46 C 0.10441 0.59993 0.15037 0.0
C47 C 0.09622 0.57564 0.12462 0.0
C48 C 0.09829 0.58324 0.15486 0.0
N49 N 0.09371 0.57159 0.14197 0.0
C50 C 0.10262 0.59196 0.11968 0.0
C51 C 0.10654 0.60413 0.13264 0.0
C52 C 0.09231 0.52937 0.11607 0.0
C53 C 0.08351 0.47395 0.16261 0.0
C54 C 0.08743 0.48781 0.12932 0.0
C55 C 0.09787 0.47361 0.13455 0.0
C56 C 0.09563 0.46642 0.1512 0.0
N57 N 0.07435 0.49428 0.13998 0.0
C58 C 0.07332 0.48815 0.15691 0.0
Co59 Co 0.70027 0.33241 0.40273 0.0
Co60 Co 0.73216 0.30846 0.38082 0.0
O61 O 0.72269 0.31997 0.40184 0.0
C62 C 0.72246 0.3517 0.43089 0.0
O63 O 0.73648 0.34174 0.42928 0.0
C64 C 0.7394 0.28387 0.41115 0.0
O65 O 0.73284 0.29484 0.42261 0.0
O66 O 0.70897 0.29621 0.37591 0.0
O67 O 0.68978 0.31634 0.38524 0.0
H68 H 0.73178 0.28433 0.31884 0.0
H69 H 0.71531 0.31836 0.43644 0.0
O70 O 0.70918 0.34977 0.42081 0.0
H71 H 0.65745 0.29018 0.43076 0.0
H72 H 0.64781 0.35343 0.43605 0.0
H73 H 0.6748 0.34901 0.37741 0.0
H74 H 0.66797 0.31072 0.40818 0.0
H75 H 0.67885 0.34525 0.43271 0.0
O76 O 0.74008 0.28751 0.39481 0.0
H77 H 0.71893 0.29835 0.3449 0.0
H78 H 0.76651 0.29137 0.37309 0.0
H79 H 0.6431 0.35561 0.37983 0.0
H80 H 0.70514 0.29844 0.45976 0.0
H81 H 0.62938 0.35717 0.40974 0.0
H82 H 0.67594 0.28404 0.45697 0.0
O83 O 0.70797 0.34784 0.3822 0.0
H84 H 0.78301 0.33137 0.41718 0.0
H85 H 0.75614 0.32945 0.35824 0.0
H86 H 0.78351 0.34617 0.36273 0.0
H87 H 0.79724 0.34711 0.39235 0.0
H88 H 0.75554 0.31522 0.41222 0.0
H89 H 0.77986 0.27682 0.34743 0.0
H90 H 0.76256 0.27342 0.31993 0.0
O91 O 0.72421 0.3286 0.3662 0.0
C92 C 0.69332 0.30243 0.37669 0.0
C93 C 0.73961 0.28609 0.3306 0.0
C94 C 0.76654 0.28182 0.34665 0.0
N95 N 0.74219 0.29682 0.36023 0.0
C96 C 0.73243 0.29438 0.34535 0.0
C97 C 0.75891 0.29018 0.36113 0.0
C98 C 0.75684 0.2799 0.33124 0.0
C99 C 0.7025 0.3127 0.43539 0.0
N100 N 0.69229 0.31623 0.42112 0.0
C101 C 0.69684 0.30115 0.44851 0.0
C102 C 0.68051 0.29302 0.44691 0.0
C103 C 0.67016 0.29643 0.43221 0.0
C104 C 0.67631 0.30804 0.41937 0.0
C105 C 0.65343 0.35186 0.42306 0.0
C106 C 0.66855 0.3488 0.39007 0.0
C107 C 0.67109 0.34754 0.42102 0.0
N108 N 0.67805 0.34474 0.40464 0.0
C109 C 0.65069 0.35273 0.3915 0.0
C110 C 0.64303 0.35375 0.40818 0.0
C111 C 0.71573 0.34304 0.3678 0.0
C112 C 0.77726 0.33091 0.40416 0.0
C113 C 0.76197 0.32976 0.3712 0.0
C114 C 0.77752 0.33925 0.37364 0.0
C115 C 0.78521 0.33978 0.39025 0.0
N116 N 0.75431 0.32086 0.38487 0.0
C117 C 0.76171 0.32155 0.40122 0.0
Co118 Co 0.91931 0.95309 0.65012 0.0
Co119 Co 0.94281 0.98823 0.63284 0.0
O120 O 0.9318 0.97542 0.65286 0.0
C121 C 0.898 0.97116 0.67921 0.0
O122 O 0.90748 0.98557 0.67966 0.0
C123 C 0.96897 0.98891 0.66275 0.0
O124 O 0.95926 0.9784 0.67227 0.0
O125 O 0.95485 0.96622 0.62386 0.0
O126 O 0.93621 0.94521 0.63235 0.0
H127 H 0.95925 0.99864 0.56948 0.0
H128 H 0.93121 0.96319 0.68624 0.0
O129 O 0.90109 0.95893 0.66823 0.0
H130 H 0.95875 0.90578 0.67473 0.0
H131 H 0.89231 0.89526 0.66808 0.0
H132 H 0.90884 0.93382 0.61869 0.0
H133 H 0.94007 0.91976 0.65236 0.0
H134 H 0.90335 0.92538 0.67368 0.0
O135 O 0.96433 0.99357 0.64734 0.0
H136 H 0.94541 0.98285 0.5941 0.0
H137 H 0.96407 0.02125 0.63006 0.0
H138 H 0.89767 0.90454 0.61272 0.0
H139 H 0.94923 0.94942 0.70924 0.0
H140 H 0.89015 0.88457 0.63701 0.0
H141 H 0.96332 0.92051 0.70353 0.0
O142 O 0.9044 0.96404 0.6315 0.0
H143 H 0.9224 0.03118 0.67908 0.0
H144 H 0.92479 0.01877 0.61563 0.0
H145 H 0.91014 0.04565 0.62594 0.0
H146 H 0.90894 0.05212 0.65793 0.0
H147 H 0.9366 0.00428 0.66816 0.0
H148 H 0.97845 0.03731 0.60585 0.0
H149 H 0.97599 0.0261 0.57527 0.0
O150 O 0.92174 0.98317 0.6173 0.0
C151 C 0.94965 0.95023 0.6241 0.0
C152 C 0.96041 0.00368 0.58275 0.0
C153 C 0.97119 0.02536 0.60316 0.0
N154 N 0.9538 0.00105 0.61354 0.0
C155 C 0.95253 0.99477 0.59676 0.0
C156 C 0.96309 0.01612 0.61683 0.0
C157 C 0.9698 0.01907 0.586 0.0
C158 C 0.93674 0.95043 0.68381 0.0
N159 N 0.93414 0.94226 0.66804 0.0
C160 C 0.9472 0.94277 0.69682 0.0
C161 C 0.95515 0.92659 0.69359 0.0
C162 C 0.95261 0.91834 0.67744 0.0
C163 C 0.94205 0.92641 0.66477 0.0
C164 C 0.89598 0.9037 0.65721 0.0
C165 C 0.90512 0.92553 0.62962 0.0
C166 C 0.902 0.92078 0.66029 0.0
N167 N 0.90712 0.93115 0.64652 0.0
C168 C 0.89902 0.90875 0.6261 0.0
C169 C 0.89483 0.89763 0.63992 0.0
C170 C 0.90739 0.97442 0.61857 0.0
C171 C 0.9228 0.02851 0.66511 0.0
C172 C 0.92404 0.02119 0.62953 0.0
C173 C 0.91586 0.03659 0.63532 0.0
C174 C 0.91523 0.04023 0.65325 0.0
N175 N 0.93146 0.00969 0.6412 0.0
C176 C 0.9309 0.01326 0.65881 0.0
Co177 Co 0.29809 0.16627 0.89651 0.0
Co178 Co 0.26365 0.19023 0.88145 0.0
O179 O 0.27587 0.17814 0.90055 0.0
C180 C 0.28284 0.14875 0.92943 0.0
O181 O 0.26927 0.15938 0.93008 0.0
C182 C 0.26272 0.21701 0.90989 0.0
O183 O 0.27994 0.21631 0.91024 0.0
O184 O 0.28533 0.20516 0.87686 0.0
O185 O 0.30426 0.1828 0.87773 0.0
H186 H 0.25645 0.22182 0.82336 0.0
H187 H 0.2876 0.18569 0.92943 0.0
O188 O 0.29342 0.14889 0.91632 0.0
H189 H 0.34823 0.20459 0.91725 0.0
H190 H 0.35529 0.13824 0.91373 0.0
H191 H 0.31765 0.15659 0.86423 0.0
H192 H 0.33318 0.18422 0.89732 0.0
H193 H 0.32574 0.15022 0.91923 0.0
O194 O 0.25444 0.20765 0.89878 0.0
H195 H 0.27249 0.20531 0.84598 0.0
H196 H 0.2273 0.20449 0.87857 0.0
H197 H 0.34724 0.14521 0.85823 0.0
H198 H 0.30221 0.20594 0.94981 0.0
H199 H 0.36588 0.13504 0.88319 0.0
H200 H 0.33283 0.21557 0.94388 0.0
O201 O 0.28624 0.15109 0.87817 0.0
H202 H 0.21885 0.16011 0.91972 0.0
H203 H 0.23936 0.16902 0.85887 0.0
H204 H 0.21393 0.14969 0.86445 0.0
H205 H 0.20344 0.14521 0.89507 0.0
H206 H 0.24438 0.17914 0.91353 0.0
H207 H 0.21069 0.2212 0.85641 0.0
H208 H 0.22519 0.2299 0.82846 0.0
O209 O 0.27232 0.17255 0.86351 0.0
C210 C 0.30082 0.1988 0.87483 0.0
C211 C 0.24987 0.21785 0.83535 0.0
C212 C 0.22422 0.21753 0.85389 0.0
N213 N 0.25079 0.20305 0.86328 0.0
C214 C 0.25892 0.20828 0.84816 0.0
C215 C 0.23371 0.20794 0.86636 0.0
C216 C 0.23236 0.22243 0.83823 0.0
C217 C 0.30115 0.18895 0.92713 0.0
N218 N 0.30989 0.18226 0.91295 0.0
C219 C 0.30927 0.20084 0.93856 0.0
C220 C 0.32642 0.20629 0.93519 0.0
C221 C 0.33508 0.20007 0.92033 0.0
C222 C 0.32649 0.18827 0.90918 0.0
C223 C 0.34709 0.1423 0.90282 0.0
C224 C 0.32578 0.15248 0.87514 0.0
C225 C 0.33023 0.14874 0.90582 0.0
N226 N 0.31999 0.15415 0.89207 0.0
C227 C 0.34255 0.14603 0.87164 0.0
C228 C 0.35315 0.1408 0.8856 0.0
C229 C 0.27872 0.15694 0.86411 0.0
C230 C 0.22326 0.162 0.90631 0.0
C231 C 0.23499 0.16704 0.87223 0.0
C232 C 0.22052 0.15613 0.87531 0.0
C233 C 0.21464 0.15362 0.89248 0.0
N234 N 0.24332 0.17531 0.88585 0.0
C235 C 0.23768 0.17281 0.90273 0.0
Co236 Co 0.08228 0.45225 0.84919 0.0
Co237 Co 0.05851 0.48566 0.86755 0.0
O238 O 0.06971 0.47459 0.84714 0.0
C239 C 0.09775 0.46772 0.8147 0.0
O240 O 0.08686 0.48107 0.81365 0.0
C241 C 0.03454 0.49317 0.83658 0.0
O242 O 0.04605 0.48815 0.82486 0.0
O243 O 0.04548 0.46277 0.87308 0.0
O244 O 0.068 0.44476 0.86965 0.0
H245 H 0.03419 0.48945 0.9294 0.0
H246 H 0.06147 0.46241 0.81718 0.0
O247 O 0.09782 0.45754 0.82808 0.0
H248 H 0.03876 0.40445 0.83437 0.0
H249 H 0.10265 0.39397 0.82639 0.0
H250 H 0.10112 0.43325 0.8779 0.0
H251 H 0.06379 0.41751 0.84987 0.0
H252 H 0.09314 0.42479 0.82335 0.0
O253 O 0.03785 0.493 0.85299 0.0
H254 H 0.04889 0.47505 0.90454 0.0
H255 H 0.04096 0.52016 0.87275 0.0
H256 H 0.10935 0.40224 0.88164 0.0
H257 H 0.03615 0.45012 0.80137 0.0
H258 H 0.10992 0.3824 0.85597 0.0
H259 H 0.02454 0.4208 0.80992 0.0
O260 O 0.09894 0.46392 0.86656 0.0
H261 H 0.08526 0.53332 0.82918 0.0
H262 H 0.07798 0.51123 0.88964 0.0
H263 H 0.09504 0.53822 0.88451 0.0
H264 H 0.09866 0.54959 0.85411 0.0
H265 H 0.0687 0.50636 0.83482 0.0
H266 H 0.0258 0.53502 0.8972 0.0
H267 H 0.02251 0.51975 0.92588 0.0
O268 O 0.07877 0.47849 0.88289 0.0
C269 C 0.05239 0.4475 0.87492 0.0
C270 C 0.03585 0.49639 0.91708 0.0
C271 C 0.03108 0.52192 0.899 0.0
N272 N 0.04672 0.49695 0.8874 0.0
C273 C 0.04446 0.48832 0.90298 0.0
C274 C 0.03974 0.51342 0.88521 0.0
C275 C 0.02922 0.51335 0.91508 0.0
C276 C 0.05665 0.4498 0.82097 0.0
N277 N 0.06452 0.44084 0.83433 0.0
C278 C 0.04225 0.44278 0.81193 0.0
C279 C 0.03575 0.42636 0.81672 0.0
C280 C 0.04373 0.41718 0.83038 0.0
C281 C 0.05804 0.42469 0.83909 0.0
C282 C 0.10201 0.40244 0.83781 0.0
C283 C 0.10121 0.42466 0.86662 0.0
C284 C 0.09698 0.41998 0.83617 0.0
N285 N 0.09524 0.43038 0.85077 0.0
C286 C 0.10601 0.40714 0.86882 0.0
C287 C 0.10584 0.39587 0.85443 0.0
C288 C 0.09401 0.47151 0.88101 0.0
C289 C 0.0835 0.52869 0.84253 0.0
C290 C 0.07927 0.5161 0.87634 0.0
C291 C 0.08904 0.53141 0.87354 0.0
C292 C 0.09108 0.53777 0.8565 0.0
N293 N 0.07143 0.50742 0.86263 0.0
C294 C 0.07381 0.51342 0.84585 0.0
Co295 Co 0.7992 0.33005 0.10157 0.0
Co296 Co 0.76333 0.30751 0.1171 0.0
O297 O 0.77713 0.31755 0.09763 0.0
C298 C 0.78799 0.34323 0.06538 0.0
O299 O 0.77833 0.32926 0.06252 0.0
C300 C 0.75511 0.28483 0.08536 0.0
O301 O 0.7572 0.29775 0.07418 0.0
O302 O 0.78489 0.29398 0.125 0.0
O303 O 0.80522 0.31492 0.12199 0.0
H304 H 0.74967 0.29353 0.18061 0.0
H305 H 0.78955 0.3023 0.07429 0.0
O306 O 0.79514 0.34594 0.08039 0.0
H307 H 0.85369 0.2979 0.07983 0.0
H308 H 0.85709 0.35913 0.08742 0.0
H309 H 0.81554 0.34249 0.13425 0.0
H310 H 0.83703 0.31656 0.09987 0.0
H311 H 0.8279 0.34718 0.07988 0.0
O312 O 0.75734 0.2869 0.10184 0.0
H313 H 0.76576 0.30757 0.15648 0.0
H314 H 0.73147 0.28403 0.11917 0.0
H315 H 0.84419 0.35485 0.14226 0.0
H316 H 0.80542 0.28188 0.05563 0.0
H317 H 0.86514 0.36316 0.11894 0.0
H318 H 0.83797 0.28011 0.05745 0.0
O319 O 0.78583 0.34659 0.11719 0.0
H320 H 0.72589 0.34328 0.07462 0.0
H321 H 0.73007 0.32073 0.135 0.0
H322 H 0.7043 0.33744 0.1263 0.0
H323 H 0.70175 0.34883 0.09585 0.0
H324 H 0.75155 0.32671 0.08365 0.0
H325 H 0.71523 0.26947 0.14295 0.0
H326 H 0.72416 0.27424 0.17399 0.0
O327 O 0.76932 0.32795 0.13293 0.0
C328 C 0.80064 0.29967 0.12682 0.0
C329 C 0.74576 0.29118 0.16712 0.0
C330 C 0.72647 0.27767 0.146 0.0
N331 N 0.75012 0.29635 0.13621 0.0
C332 C 0.75498 0.29904 0.15331 0.0
C333 C 0.73597 0.28579 0.13252 0.0
C334 C 0.73145 0.28038 0.16341 0.0
C335 C 0.80354 0.30205 0.07549 0.0
N336 N 0.81228 0.31297 0.08688 0.0
C337 C 0.81256 0.29014 0.06477 0.0
C338 C 0.83079 0.28913 0.06579 0.0
C339 C 0.83961 0.29926 0.07818 0.0
C340 C 0.83003 0.31048 0.08915 0.0
C341 C 0.84794 0.35558 0.09774 0.0
C342 C 0.82454 0.34616 0.12388 0.0
C343 C 0.83131 0.34908 0.09356 0.0
N344 N 0.82032 0.34341 0.10662 0.0
C345 C 0.84077 0.35313 0.12855 0.0
C346 C 0.85256 0.3577 0.11539 0.0
C347 C 0.77599 0.34321 0.13052 0.0
C348 C 0.72656 0.3379 0.08779 0.0
C349 C 0.72925 0.32481 0.1215 0.0
C350 C 0.71448 0.33466 0.11673 0.0
C351 C 0.71307 0.3411 0.0997 0.0
N352 N 0.74227 0.3209 0.10958 0.0
C353 C 0.74114 0.32801 0.09303 0.0
Co354 Co 0.91953 0.04697 0.35308 0.0
Co355 Co 0.94254 0.01131 0.3689 0.0
O356 O 0.92963 0.02363 0.35013 0.0
C357 C 0.8907 0.02946 0.3292 0.0
O358 O 0.89782 0.01392 0.32679 0.0
C359 C 0.96838 0.01672 0.34089 0.0
O360 O 0.9619 0.03255 0.33895 0.0
O361 O 0.95593 0.03329 0.3768 0.0
O362 O 0.93952 0.05515 0.36644 0.0
H363 H 0.94937 0.97034 0.42101 0.0
H364 H 0.92402 0.03189 0.31705 0.0
O365 O 0.89839 0.04082 0.33892 0.0
H366 H 0.95827 0.08683 0.31657 0.0
H367 H 0.89505 0.1058 0.33482 0.0
H368 H 0.91276 0.06867 0.38468 0.0
H369 H 0.94228 0.07776 0.34317 0.0
H370 H 0.90668 0.07606 0.32966 0.0
O371 O 0.96193 0.00617 0.35209 0.0
H372 H 0.9327 0.98753 0.39944 0.0
H373 H 0.98024 0.00803 0.37829 0.0
H374 H 0.89882 0.09719 0.39043 0.0
H375 H 0.93926 0.04081 0.29002 0.0
H376 H 0.88857 0.1153 0.3654 0.0
H377 H 0.95667 0.06844 0.28963 0.0
O378 O 0.90739 0.03911 0.37534 0.0
H379 H 0.93005 0.95904 0.32915 0.0
H380 H 0.90941 0.99138 0.38115 0.0
H381 H 0.89337 0.96576 0.37133 0.0
H382 H 0.90344 0.94912 0.34517 0.0
H383 H 0.94609 0.98462 0.3391 0.0
H384 H 0.9974 0.99087 0.39962 0.0
H385 H 0.98202 0.97176 0.42117 0.0
O386 O 0.92385 0.01721 0.38632 0.0
C387 C 0.95282 0.04969 0.37446 0.0
C388 C 0.95624 0.97842 0.41151 0.0
C389 C 0.98318 0.98997 0.39955 0.0
N390 N 0.95536 0.99831 0.38693 0.0
C391 C 0.94682 0.98812 0.39906 0.0
C392 C 0.97333 -0.00045 0.38736 0.0
C393 C 0.97455 0.97926 0.41164 0.0
C394 C 0.93101 0.04418 0.31694 0.0
N395 N 0.9317 0.05446 0.33168 0.0
C396 C 0.93988 0.04906 0.3016 0.0
C397 C 0.9497 0.06452 0.30141 0.0
C398 C 0.95062 0.07483 0.31651 0.0
C399 C 0.94158 0.06953 0.33161 0.0
C400 C 0.89832 0.09745 0.34584 0.0
C401 C 0.90819 0.07637 0.37365 0.0
C402 C 0.90517 0.0807 0.34297 0.0
N403 N 0.90977 0.07025 0.35678 0.0
C404 C 0.9006 0.09268 0.37704 0.0
C405 C 0.89523 0.10303 0.36299 0.0
C406 C 0.91121 0.02814 0.38758 0.0
C407 C 0.92567 0.96602 0.34077 0.0
C408 C 0.91458 0.98454 0.36992 0.0
C409 C 0.90511 0.96981 0.36435 0.0
C410 C 0.91073 0.96048 0.34969 0.0
N411 N 0.92968 0.98985 0.36146 0.0
C412 C 0.93493 0.98072 0.34677 0.0
Co413 Co 0.20203 0.16256 0.59956 0.0
Co414 Co 0.23297 0.18865 0.62019 0.0
O415 O 0.22339 0.17672 0.59953 0.0
C416 C 0.22497 0.14484 0.57142 0.0
O417 O 0.23808 0.15598 0.57256 0.0
C418 C 0.22898 0.21703 0.59404 0.0
O419 O 0.21385 0.2101 0.58957 0.0
O420 O 0.20928 0.1988 0.62664 0.0
O421 O 0.19062 0.17846 0.61676 0.0
H422 H 0.23322 0.2079 0.6834 0.0
H423 H 0.21636 0.17857 0.56614 0.0
O424 O 0.21197 0.14553 0.58196 0.0
H425 H 0.15511 0.19893 0.57006 0.0
H426 H 0.15138 0.13571 0.56785 0.0
H427 H 0.17756 0.14645 0.62606 0.0
H428 H 0.16777 0.18058 0.59344 0.0
H429 H 0.18158 0.14649 0.57053 0.0
O430 O 0.23839 0.20997 0.60588 0.0
H431 H 0.22182 0.1923 0.65735 0.0
H432 H 0.26436 0.21151 0.6266 0.0
H433 H 0.14618 0.13756 0.62397 0.0
H434 H 0.20401 0.19611 0.54202 0.0
H435 H 0.1332 0.13211 0.59455 0.0
H436 H 0.1731 0.20652 0.54387 0.0
O437 O 0.21127 0.148 0.61998 0.0
H438 H 0.28076 0.17174 0.57774 0.0
H439 H 0.26402 0.1736 0.64015 0.0
H440 H 0.29227 0.16044 0.6318 0.0
H441 H 0.30093 0.15948 0.60032 0.0
H442 H 0.2523 0.18424 0.5868 0.0
H443 H 0.27617 0.22738 0.6523 0.0
H444 H 0.26062 0.22557 0.68098 0.0
O445 O 0.22778 0.16748 0.63493 0.0
C446 C 0.19382 0.19234 0.62556 0.0
C447 C 0.24019 0.2087 0.67101 0.0
C448 C 0.26428 0.21965 0.65355 0.0
N449 N 0.2426 0.20067 0.64057 0.0
C450 C 0.23383 0.19984 0.65623 0.0
C451 C 0.25752 0.21063 0.63904 0.0
C452 C 0.25554 0.21863 0.66964 0.0
C453 C 0.20274 0.18215 0.56668 0.0
N454 N 0.19265 0.17748 0.58078 0.0
C455 C 0.19588 0.19252 0.55315 0.0
C456 C 0.17859 0.19846 0.55424 0.0
C457 C 0.16851 0.19423 0.56893 0.0
C458 C 0.17582 0.18383 0.58217 0.0
C459 C 0.15683 0.13833 0.58072 0.0
C460 C 0.17152 0.14477 0.6134 0.0
C461 C 0.17408 0.14416 0.58239 0.0
N462 N 0.18079 0.14847 0.59855 0.0
C463 C 0.154 0.13937 0.61225 0.0
C464 C 0.14659 0.13649 0.59573 0.0
C465 C 0.22031 0.15245 0.63365 0.0
C466 C 0.27707 0.17187 0.59149 0.0
C467 C 0.26722 0.17263 0.62648 0.0
C468 C 0.28348 0.16545 0.62179 0.0
C469 C 0.28837 0.16499 0.60415 0.0
N470 N 0.25599 0.17905 0.61399 0.0
C471 C 0.26093 0.17894 0.59671 0.0
Co472 Co 0.13184 0.05933 0.51272 0.0
Co473 Co 0.1546 0.07956 0.54591 0.0
O474 O 0.15315 0.06847 0.5232 0.0
C475 C 0.1624 0.0371 0.50094 0.0
O476 O 0.17316 0.05047 0.50217 0.0
C477 C 0.17821 0.1093 0.53441 0.0
O478 O 0.16486 0.12008 0.53642 0.0
O479 O 0.13677 0.09753 0.53737 0.0
O480 O 0.11822 0.08043 0.52136 0.0
H481 H 0.13505 0.0966 0.60664 0.0
H482 H 0.16329 0.07896 0.49624 0.0
O483 O 0.14596 0.03853 0.50435 0.0
H484 H 0.11439 0.08794 0.45509 0.0
H485 H 0.09826 0.02076 0.47029 0.0
H486 H 0.09352 0.05943 0.52194 0.0
H487 H 0.1093 0.073 0.48287 0.0
H488 H 0.12428 0.03618 0.4816 0.0
O489 O 0.17572 0.09288 0.53661 0.0
H490 H 0.13018 0.08883 0.57591 0.0
H491 H 0.18518 0.09223 0.5665 0.0
H492 H 0.06709 0.0446 0.51084 0.0
H493 H 0.16873 0.09388 0.46859 0.0
H494 H 0.06933 0.02491 0.48488 0.0
H495 H 0.14433 0.09838 0.44742 0.0
O496 O 0.12634 0.04619 0.53515 0.0
H497 H 0.20833 0.04068 0.54394 0.0
H498 H 0.15602 0.0573 0.57825 0.0
H499 H 0.17646 0.03541 0.59018 0.0
H500 H 0.20315 0.02723 0.57319 0.0
H501 H 0.18626 0.06117 0.53157 0.0
H502 H 0.19033 0.10054 0.59701 0.0
H503 H 0.16531 0.10171 0.61774 0.0
O504 O 0.13452 0.06599 0.55531 0.0
C505 C 0.12186 0.09484 0.52949 0.0
C506 C 0.14604 0.09585 0.59783 0.0
C507 C 0.17705 0.09833 0.59238 0.0
N508 N 0.15722 0.09095 0.56877 0.0
C509 C 0.14334 0.09197 0.58013 0.0
C510 C 0.17391 0.09425 0.5748 0.0
C511 C 0.16301 0.09881 0.60403 0.0
C512 C 0.15261 0.07958 0.48706 0.0
N513 N 0.13638 0.07256 0.49075 0.0
C514 C 0.15577 0.08866 0.47138 0.0
C515 C 0.14209 0.09129 0.45956 0.0
C516 C 0.12534 0.08534 0.46381 0.0
C517 C 0.12267 0.07632 0.47959 0.0
C518 C 0.09712 0.0292 0.48169 0.0
C519 C 0.09472 0.05104 0.51068 0.0
C520 C 0.11192 0.03786 0.48833 0.0
N521 N 0.11066 0.04863 0.50273 0.0
C522 C 0.07964 0.04261 0.5044 0.0
C523 C 0.0809 0.03157 0.48985 0.0
C524 C 0.12663 0.052 0.55094 0.0
C525 C 0.19674 0.04415 0.55144 0.0
C526 C 0.16729 0.05356 0.57044 0.0
C527 C 0.17893 0.0412 0.5774 0.0
C528 C 0.19387 0.03662 0.56788 0.0
N529 N 0.17026 0.06107 0.55433 0.0
C530 C 0.18442 0.05598 0.54461 0.0
Co531 Co 0.16806 0.40123 0.79298 0.0
Co532 Co 0.19027 0.3813 0.75897 0.0
O533 O 0.17958 0.40206 0.77019 0.0
C534 C 0.14738 0.43092 0.77439 0.0
O535 O 0.15683 0.43159 0.75996 0.0
C536 C 0.21769 0.40873 0.75938 0.0
O537 O 0.21439 0.41035 0.77622 0.0
O538 O 0.2037 0.37504 0.78109 0.0
O539 O 0.1846 0.38318 0.80189 0.0
H540 H 0.20898 0.31794 0.75404 0.0
H541 H 0.18238 0.43542 0.77923 0.0
O542 O 0.15025 0.41954 0.7863 0.0
H543 H 0.20909 0.42787 0.83767 0.0
H544 H 0.14426 0.42745 0.84848 0.0
H545 H 0.15617 0.37252 0.81609 0.0
H546 H 0.18958 0.40516 0.82553 0.0
H547 H 0.15451 0.42836 0.81777 0.0
O548 O 0.21001 0.39661 0.7508 0.0
H549 H 0.19433 0.34334 0.76778 0.0
H550 H 0.21062 0.37621 0.72566 0.0
H551 H 0.14397 0.37111 0.84592 0.0
H552 H 0.20075 0.45908 0.7914 0.0
H553 H 0.14051 0.39854 0.86305 0.0
H554 H 0.21448 0.45531 0.82079 0.0
O555 O 0.15229 0.38213 0.78391 0.0
H556 H 0.16497 0.42234 0.71357 0.0
H557 H 0.17267 0.36034 0.73057 0.0
H558 H 0.15606 0.36747 0.70375 0.0
H559 H 0.15212 0.39871 0.69503 0.0
H560 H 0.18135 0.41457 0.7404 0.0
H561 H 0.22576 0.35124 0.71164 0.0
H562 H 0.22493 0.3218 0.72579 0.0
O563 O 0.17006 0.36578 0.76679 0.0
C564 C 0.19856 0.37549 0.7971 0.0
C565 C 0.20941 0.33069 0.74773 0.0
C566 C 0.21886 0.34938 0.72396 0.0
N567 N 0.20151 0.36128 0.74758 0.0
C568 C 0.20106 0.34513 0.75544 0.0
C569 C 0.21033 0.36351 0.73204 0.0
C570 C 0.21838 0.33287 0.73189 0.0
C571 C 0.1875 0.43402 0.79231 0.0
N572 N 0.18404 0.41924 0.8019 0.0
C573 C 0.19823 0.44733 0.79904 0.0
C574 C 0.20601 0.44518 0.81548 0.0
C575 C 0.20301 0.42979 0.82494 0.0
C576 C 0.19199 0.41691 0.8179 0.0
C577 C 0.14661 0.41536 0.84133 0.0
C578 C 0.15309 0.38457 0.82294 0.0
C579 C 0.15229 0.41575 0.82395 0.0
N580 N 0.15634 0.40045 0.81537 0.0
C581 C 0.14651 0.3837 0.83992 0.0
C582 C 0.14433 0.39917 0.84945 0.0
C583 C 0.15562 0.36796 0.77531 0.0
C584 C 0.16641 0.40868 0.71733 0.0
C585 C 0.17062 0.37394 0.72721 0.0
C586 C 0.16138 0.37792 0.71184 0.0
C587 C 0.15922 0.39543 0.70693 0.0
N588 N 0.17748 0.387 0.7375 0.0
C589 C 0.17558 0.40419 0.7326 0.0
Co590 Co 0.86775 0.43979 0.01645 0.0
Co591 Co 0.84329 0.41704 0.04733 0.0
O592 O 0.84611 0.42821 0.02446 0.0
C593 C 0.83742 0.46334 0.00748 0.0
O594 O 0.8257 0.45156 0.01187 0.0
C595 C 0.82 0.39355 0.02378 0.0
O596 O 0.82137 0.40238 0.00901 0.0
O597 O 0.86507 0.40246 0.04248 0.0
O598 O 0.8819 0.41986 0.02514 0.0
H599 H 0.86236 0.39279 0.10558 0.0
H600 H 0.83808 0.43153 0.991 0.0
O601 O 0.85388 0.46024 0.00788 0.0
H602 H 0.89115 0.40454 0.96564 0.0
H603 H 0.9038 0.47617 0.97441 0.0
H604 H 0.90367 0.44471 0.03113 0.0
H605 H 0.89277 0.42051 0.9937 0.0
H606 H 0.8773 0.46034 0.98443 0.0
O607 O 0.82814 0.39803 0.03763 0.0
H608 H 0.86688 0.40047 0.07449 0.0
H609 H 0.81182 0.40452 0.06703 0.0
H610 H 0.93051 0.46022 0.02154 0.0
H611 H 0.83595 0.41597 0.96289 0.0
H612 H 0.93067 0.47615 0.99301 0.0
H613 H 0.86261 0.40227 0.94991 0.0
O614 O 0.87109 0.45251 0.03961 0.0
H615 H 0.78382 0.44409 0.03439 0.0
H616 H 0.83244 0.44044 0.07703 0.0
H617 H 0.80699 0.45917 0.08356 0.0
H618 H 0.78223 0.46091 0.06234 0.0
H619 H 0.80998 0.42634 0.02793 0.0
H620 H 0.80658 0.39497 0.09738 0.0
H621 H 0.8319 0.39047 0.11729 0.0
O622 O 0.85804 0.43516 0.05908 0.0
C623 C 0.87939 0.40597 0.03411 0.0
C624 C 0.85119 0.39566 0.09729 0.0
C625 C 0.81989 0.39683 0.09271 0.0
N626 N 0.83979 0.40535 0.06973 0.0
C627 C 0.85372 0.40034 0.07977 0.0
C628 C 0.823 0.40221 0.0755 0.0
C629 C 0.83412 0.39428 0.10385 0.0
C630 C 0.84983 0.42605 0.98548 0.0
N631 N 0.86561 0.42753 0.99396 0.0
C632 C 0.84851 0.41704 0.96951 0.0
C633 C 0.86345 0.40932 0.96226 0.0
C634 C 0.87945 0.41059 0.97106 0.0
C635 C 0.88027 0.41971 0.98698 0.0
C636 C 0.90391 0.46925 0.98685 0.0
C637 C 0.90369 0.45145 0.01863 0.0
C638 C 0.88893 0.4603 0.99262 0.0
N639 N 0.88897 0.4515 0.00831 0.0
C640 C 0.91891 0.46028 0.01329 0.0
C641 C 0.91898 0.46923 0.99729 0.0
C642 C 0.86741 0.44855 0.05551 0.0
C643 C 0.79445 0.44334 0.04383 0.0
C644 C 0.82204 0.4414 0.0674 0.0
C645 C 0.8075 0.45191 0.07133 0.0
C646 C 0.7936 0.45283 0.05946 0.0
N647 N 0.82281 0.43198 0.05203 0.0
C648 C 0.80927 0.43306 0.0403 0.0
Co649 Co 0.83355 0.09812 0.28899 0.0
Co650 Co 0.80875 0.12031 0.2581 0.0
O651 O 0.82153 0.09942 0.26654 0.0
C652 C 0.86626 0.07534 0.27662 0.0
O653 O 0.87796 0.07456 0.26393 0.0
C654 C 0.78184 0.09332 0.26389 0.0
O655 O 0.79038 0.08854 0.27801 0.0
O656 O 0.7998 0.12667 0.28264 0.0
O657 O 0.81285 0.10838 0.30144 0.0
H658 H 0.78948 0.18366 0.25699 0.0
H659 H 0.83404 0.06578 0.2674 0.0
O660 O 0.85523 0.08828 0.27632 0.0
H661 H 0.79296 0.05159 0.31521 0.0
H662 H 0.84073 0.08136 0.35281 0.0
H663 H 0.86241 0.12026 0.30625 0.0
H664 H 0.80672 0.08057 0.31376 0.0
H665 H 0.83554 0.0741 0.32263 0.0
O666 O 0.78752 0.10558 0.2541 0.0
H667 H 0.80572 0.15802 0.2684 0.0
H668 H 0.78407 0.12579 0.22825 0.0
H669 H 0.8692 0.12708 0.3364 0.0
H670 H 0.82119 0.03626 0.26891 0.0
H671 H 0.85831 0.10789 0.36019 0.0
H672 H 0.80054 0.02883 0.29309 0.0
O673 O 0.84276 0.12251 0.28482 0.0
H674 H 0.82308 0.07987 0.20772 0.0
H675 H 0.82551 0.14102 0.22923 0.0
H676 H 0.83767 0.13387 0.20001 0.0
H677 H 0.83649 0.10311 0.18907 0.0
H678 H 0.81129 0.0876 0.23692 0.0
H679 H 0.76747 0.15103 0.2165 0.0
H680 H 0.77018 0.18025 0.23085 0.0
O681 O 0.82963 0.1355 0.26186 0.0
C682 C 0.80195 0.12069 0.29831 0.0
C683 C 0.78821 0.171 0.25061 0.0
C684 C 0.77583 0.15269 0.22791 0.0
N685 N 0.7959 0.14042 0.24901 0.0
C686 C 0.7974 0.15643 0.25701 0.0
C687 C 0.78523 0.13843 0.23467 0.0
C688 C 0.77737 0.16908 0.23595 0.0
C689 C 0.82621 0.0624 0.27871 0.0
N690 N 0.82325 0.07446 0.29174 0.0
C691 C 0.81843 0.04575 0.27916 0.0
C692 C 0.80671 0.04165 0.29259 0.0
C693 C 0.80249 0.05439 0.30501 0.0
C694 C 0.81049 0.0709 0.30407 0.0
C695 C 0.8446 0.09057 0.34269 0.0
C696 C 0.85644 0.11207 0.31611 0.0
C697 C 0.84096 0.08678 0.32518 0.0
N698 N 0.84564 0.0981 0.31197 0.0
C699 C 0.86085 0.11594 0.33343 0.0
C700 C 0.85466 0.10524 0.34679 0.0
C701 C 0.84124 0.13513 0.27383 0.0
C702 C 0.82357 0.09335 0.21229 0.0
C703 C 0.82487 0.12761 0.22454 0.0
C704 C 0.83179 0.12365 0.20798 0.0
C705 C 0.83112 0.10639 0.20184 0.0
N706 N 0.81741 0.11476 0.23468 0.0
C707 C 0.81678 0.09781 0.22876 0.0
Co708 Co 0.13108 0.94331 0.48427 0.0
Co709 Co 0.14979 0.91554 0.45373 0.0
O710 O 0.15074 0.9294 0.47531 0.0
C711 C 0.16336 0.96567 0.49069 0.0
O712 O 0.17441 0.95255 0.48988 0.0
C713 C 0.18104 0.89763 0.47298 0.0
O714 O 0.18265 0.90872 0.48608 0.0
O715 O 0.12882 0.90184 0.4638 0.0
O716 O 0.11498 0.92339 0.47902 0.0
H717 H 0.12715 0.90094 0.39416 0.0
H718 H 0.16244 0.92888 0.50482 0.0
O719 O 0.14684 0.96362 0.48913 0.0
H720 H 0.11133 0.91908 0.54305 0.0
H721 H 0.10232 0.98656 0.52557 0.0
H722 H 0.09484 0.95134 0.47171 0.0
H723 H 0.10762 0.93318 0.51449 0.0
H724 H 0.12624 0.96739 0.51496 0.0
O725 O 0.16744 0.89767 0.46308 0.0
H726 H 0.12282 0.90536 0.4261 0.0
H727 H 0.17766 0.89713 0.43418 0.0
H728 H 0.0705 0.97013 0.48194 0.0
H729 H 0.16671 0.91515 0.53339 0.0
H730 H 0.07413 0.9879 0.50911 0.0
H731 H 0.14108 0.91001 0.55293 0.0
O732 O 0.12635 0.9539 0.46025 0.0
H733 H 0.20483 0.95317 0.45565 0.0
H734 H 0.15575 0.93282 0.41877 0.0
H735 H 0.17762 0.95289 0.40629 0.0
H736 H 0.20249 0.96333 0.42472 0.0
H737 H 0.18284 0.93282 0.4673 0.0
H738 H 0.18206 0.89159 0.40319 0.0
H739 H 0.15764 0.89538 0.38288 0.0
O740 O 0.13258 0.93138 0.44267 0.0
C741 C 0.11538 0.90785 0.47257 0.0
C742 C 0.13811 0.8996 0.40311 0.0
C743 C 0.16898 0.89436 0.40812 0.0
N744 N 0.14997 0.90191 0.43215 0.0
C745 C 0.13572 0.9019 0.4212 0.0
C746 C 0.16616 0.89688 0.42594 0.0
C747 C 0.15502 0.89644 0.39665 0.0
C748 C 0.15119 0.92755 0.51313 0.0
N749 N 0.13487 0.93296 0.50778 0.0
C750 C 0.15371 0.91936 0.52941 0.0
C751 C 0.13934 0.9164 0.54033 0.0
C752 C 0.12268 0.92149 0.53479 0.0
C753 C 0.12069 0.92959 0.51842 0.0
C754 C 0.1005 0.97874 0.51381 0.0
C755 C 0.09644 0.95878 0.48366 0.0
C756 C 0.114 0.96786 0.50772 0.0
N757 N 0.11173 0.9577 0.49302 0.0
C758 C 0.08264 0.96951 0.48935 0.0
C759 C 0.0847 0.9795 0.50457 0.0
C760 C 0.12584 0.94627 0.44531 0.0
C761 C 0.19429 0.94845 0.44731 0.0
C762 C 0.16676 0.93667 0.42686 0.0
C763 C 0.17906 0.94829 0.41968 0.0
C764 C 0.19295 0.95418 0.43001 0.0
N765 N 0.16841 0.93053 0.44375 0.0
C766 C 0.18183 0.93666 0.45392 0.0
Co767 Co 0.33566 0.39907 0.70029 0.0
Co768 Co 0.30882 0.38193 0.73252 0.0
O769 O 0.32193 0.40157 0.7219 0.0
C770 C 0.35505 0.42771 0.72078 0.0
O771 O 0.34442 0.42712 0.73437 0.0
C772 C 0.28537 0.41378 0.73585 0.0
O773 O 0.29662 0.4241 0.72796 0.0
O774 O 0.29677 0.37663 0.70927 0.0
O775 O 0.31893 0.3817 0.69091 0.0
H776 H 0.28182 0.32134 0.73565 0.0
H777 H 0.32281 0.43472 0.71088 0.0
O778 O 0.35347 0.41703 0.70797 0.0
H779 H 0.2974 0.42464 0.65237 0.0
H780 H 0.36196 0.42037 0.6435 0.0
H781 H 0.35225 0.36892 0.68154 0.0
H782 H 0.31647 0.40242 0.66599 0.0
H783 H 0.35076 0.42415 0.67374 0.0
O784 O 0.28864 0.39763 0.7387 0.0
H785 H 0.29829 0.34551 0.72182 0.0
H786 H 0.28946 0.37792 0.76633 0.0
H787 H 0.36276 0.36454 0.65138 0.0
H788 H 0.30451 0.45771 0.69752 0.0
H789 H 0.36699 0.39006 0.63196 0.0
H790 H 0.29141 0.45269 0.66803 0.0
O791 O 0.34949 0.3793 0.71137 0.0
H792 H 0.33099 0.42065 0.78171 0.0
H793 H 0.32769 0.36004 0.75894 0.0
H794 H 0.34327 0.36579 0.78675 0.0
H795 H 0.34491 0.39626 0.79839 0.0
H796 H 0.31589 0.41438 0.75384 0.0
H797 H 0.27266 0.3542 0.78062 0.0
H798 H 0.26887 0.32557 0.76535 0.0
O799 O 0.32822 0.36522 0.72648 0.0
C800 C 0.30362 0.37575 0.69391 0.0
C801 C 0.28361 0.33365 0.74257 0.0
C802 C 0.27843 0.35209 0.76778 0.0
N803 N 0.29558 0.36289 0.74345 0.0
C804 C 0.29315 0.34733 0.73483 0.0
C805 C 0.28803 0.36547 0.75961 0.0
C806 C 0.2763 0.33605 0.7592 0.0
C807 C 0.31785 0.4327 0.69789 0.0
N808 N 0.32129 0.41738 0.68925 0.0
C809 C 0.30718 0.44566 0.69044 0.0
C810 C 0.29977 0.4428 0.67395 0.0
C811 C 0.3031 0.42708 0.66518 0.0
C812 C 0.31388 0.41446 0.67307 0.0
C813 C 0.35955 0.409 0.65171 0.0
C814 C 0.35405 0.38024 0.67323 0.0
C815 C 0.35334 0.41103 0.66887 0.0
N816 N 0.34941 0.39661 0.67889 0.0
C817 C 0.36014 0.37767 0.65617 0.0
C818 C 0.36236 0.39209 0.64521 0.0
C819 C 0.34338 0.36559 0.71918 0.0
C820 C 0.33027 0.40729 0.77683 0.0
C821 C 0.3284 0.37337 0.76383 0.0
C822 C 0.3372 0.37652 0.77964 0.0
C823 C 0.33811 0.39361 0.78617 0.0
N824 N 0.3206 0.38683 0.75477 0.0
C825 C 0.32158 0.40364 0.76106 0.0
Co826 Co 0.8751 0.55872 0.98594 0.0
Co827 Co 0.84647 0.57599 0.95564 0.0
O828 O 0.85233 0.56677 0.9782 0.0
C829 C 0.84719 0.53437 0.99869 0.0
O830 O 0.83583 0.54724 -0.00086 0.0
C831 C 0.818 0.60214 0.97476 0.0
O832 O 0.81805 0.60471 0.99184 0.0
O833 O 0.866 0.59421 0.95882 0.0
O834 O 0.88596 0.58069 0.97655 0.0
H835 H 0.86064 0.59977 0.89633 0.0
H836 H 0.8439 0.57543 0.00644 0.0
O837 O 0.86335 0.53677 0.99468 0.0
H838 H 0.89633 0.58873 0.04149 0.0
H839 H 0.91592 0.52416 0.02509 0.0
H840 H 0.91148 0.56095 0.97184 0.0
H841 H 0.89939 0.57453 0.01298 0.0
H842 H 0.8874 0.53657 0.01602 0.0
O843 O 0.82942 0.59173 0.96817 0.0
H844 H 0.86637 0.591 0.92653 0.0
H845 H 0.81258 0.57956 0.93461 0.0
H846 H 0.94037 0.54922 0.98076 0.0
H847 H 0.84043 0.58915 0.03491 0.0
H848 H 0.94271 0.53062 0.00752 0.0
H849 H 0.86667 0.59588 0.05305 0.0
O850 O 0.8799 0.54617 0.96285 0.0
H851 H 0.7936 0.54069 0.97482 0.0
H852 H 0.8389 0.54766 0.92901 0.0
H853 H 0.81745 0.52369 0.92659 0.0
H854 H 0.79448 0.52007 0.94952 0.0
H855 H 0.81557 0.56428 0.97709 0.0
H856 H 0.80673 0.58418 0.90305 0.0
H857 H 0.83073 0.59474 0.88353 0.0
O858 O 0.8635 0.56088 0.94349 0.0
C859 C 0.88095 0.59372 0.96705 0.0
C860 C 0.85001 0.59475 0.90426 0.0
C861 C 0.81987 0.58604 0.9082 0.0
N862 N 0.84002 0.58512 0.93258 0.0
C863 C 0.8532 0.59054 0.92176 0.0
C864 C 0.82329 0.58346 0.92611 0.0
C865 C 0.83334 0.59194 0.89724 0.0
C866 C 0.85549 0.57672 0.01433 0.0
N867 N 0.87174 0.57128 0.00857 0.0
C868 C 0.85339 0.58525 0.03048 0.0
C869 C 0.8681 0.58915 0.04059 0.0
C870 C 0.8847 0.58503 0.03416 0.0
C871 C 0.88627 0.57643 0.018 0.0
C872 C 0.91508 0.53227 0.01342 0.0
C873 C 0.91242 0.55311 0.98365 0.0
C874 C 0.89892 0.53922 0.00811 0.0
N875 N 0.89778 0.54966 0.9935 0.0
C876 C 0.92881 0.54639 0.98857 0.0
C877 C 0.93011 0.53592 0.00357 0.0
C878 C 0.87514 0.54954 0.94709 0.0
C879 C 0.80354 0.54215 0.96473 0.0
C880 C 0.82922 0.54615 0.93929 0.0
C881 C 0.81694 0.53257 0.93771 0.0
C882 C 0.80405 0.53057 0.95055 0.0
N883 N 0.8287 0.55752 0.95329 0.0
C884 C 0.81601 0.5556 0.96589 0.0
Co885 Co 0.66655 0.09412 0.20234 0.0
Co886 Co 0.68563 0.11815 0.23613 0.0
O887 O 0.67679 0.09637 0.22559 0.0
C888 C 0.64675 0.06553 0.2231 0.0
O889 O 0.6574 0.06521 0.23664 0.0
C890 C 0.71564 0.09343 0.23653 0.0
O891 O 0.71376 0.09203 0.21945 0.0
O892 O 0.69865 0.12498 0.21371 0.0
O893 O 0.68421 0.11069 0.19226 0.0
H894 H 0.69374 0.18378 0.24389 0.0
H895 H 0.6854 0.06558 0.22317 0.0
O896 O 0.64812 0.07715 0.21107 0.0
H897 H 0.70425 0.05727 0.16189 0.0
H898 H 0.64158 0.0591 0.15241 0.0
H899 H 0.66077 0.118 0.17168 0.0
H900 H 0.6856 0.08219 0.16988 0.0
H901 H 0.65043 0.06421 0.18282 0.0
O902 O 0.70633 0.10459 0.24479 0.0
H903 H 0.68166 0.15724 0.23021 0.0
H904 H 0.70811 0.12533 0.26776 0.0
H905 H 0.6504 0.11376 0.14153 0.0
H906 H 0.70376 0.04028 0.21561 0.0
H907 H 0.64283 0.08337 0.13114 0.0
H908 H 0.71329 0.03577 0.18473 0.0
O909 O 0.6504 0.11457 0.20764 0.0
H910 H 0.66361 0.07671 0.28288 0.0
H911 H 0.66522 0.13839 0.26307 0.0
H912 H 0.64962 0.13087 0.29042 0.0
H913 H 0.64871 0.09982 0.30052 0.0
H914 H 0.67923 0.08484 0.25571 0.0
H915 H 0.72052 0.15159 0.28168 0.0
H916 H 0.71344 0.18116 0.2698 0.0
O917 O 0.66448 0.13128 0.22773 0.0
C918 C 0.69584 0.1216 0.19737 0.0
C919 C 0.69722 0.17095 0.24898 0.0
C920 C 0.71224 0.1529 0.27017 0.0
N921 N 0.6949 0.13942 0.24734 0.0
C922 C 0.69057 0.15573 0.24109 0.0
C923 C 0.70534 0.13798 0.26197 0.0
C924 C 0.70823 0.16948 0.26354 0.0
C925 C 0.68867 0.06354 0.20959 0.0
N926 N 0.68279 0.07475 0.19684 0.0
C927 C 0.69945 0.04923 0.20541 0.0
C928 C 0.70487 0.04674 0.18812 0.0
C929 C 0.69976 0.05873 0.17532 0.0
C930 C 0.68891 0.07279 0.17998 0.0
C931 C 0.64551 0.07213 0.15661 0.0
C932 C 0.65613 0.1052 0.16769 0.0
C933 C 0.65009 0.07529 0.17402 0.0
N934 N 0.65592 0.09154 0.17927 0.0
C935 C 0.65093 0.10268 0.15033 0.0
C936 C 0.64634 0.08585 0.14463 0.0
C937 C 0.65166 0.12849 0.21721 0.0
C938 C 0.66388 0.09029 0.27861 0.0
C939 C 0.66492 0.12485 0.26731 0.0
C940 C 0.65605 0.12067 0.28285 0.0
C941 C 0.65553 0.10325 0.28851 0.0
N942 N 0.67313 0.11208 0.25765 0.0
C943 C 0.67265 0.09498 0.26316 0.0
Co944 Co 0.55096 0.15093 0.07671 0.0
Co945 Co 0.51383 0.13006 0.05973 0.0
O946 O 0.52636 0.15101 0.06915 0.0
C947 C 0.5368 0.18013 0.1016 0.0
O948 O 0.5206 0.18003 0.09553 0.0
C949 C 0.5058 0.16044 0.03533 0.0
O950 O 0.51385 0.17177 0.04543 0.0
O951 O 0.53452 0.12231 0.04449 0.0
O952 O 0.55742 0.13353 0.05887 0.0
H953 H 0.50207 0.06526 0.0499 0.0
H954 H 0.53585 0.18737 0.06967 0.0
O955 O 0.54776 0.16857 0.09645 0.0
H956 H 0.5757 0.1773 0.02021 0.0
H957 H 0.61591 0.14714 0.06596 0.0
H958 H 0.56884 0.1392 0.10945 0.0
H959 H 0.57245 0.1551 0.04295 0.0
H960 H 0.58922 0.16484 0.0648 0.0
O961 O 0.50482 0.14419 0.03929 0.0
H962 H 0.51806 0.09059 0.06168 0.0
H963 H 0.47995 0.12534 0.04015 0.0
H964 H 0.59574 0.12219 0.11206 0.0
H965 H 0.53964 0.21037 0.04803 0.0
H966 H 0.61835 0.12366 0.08879 0.0
H967 H 0.55976 0.20565 0.02278 0.0
O968 O 0.54507 0.13052 0.09302 0.0
H969 H 0.46901 0.17114 0.08708 0.0
H970 H 0.48969 0.10991 0.08278 0.0
H971 H 0.46382 0.11669 0.10093 0.0
H972 H 0.45316 0.14749 0.10309 0.0
H973 H 0.49485 0.16385 0.0693 0.0
H974 H 0.46357 0.10027 0.02816 0.0
H975 H 0.4746 0.06991 0.03288 0.0
O976 O 0.52329 0.11555 0.07939 0.0
C977 C 0.55112 0.12407 0.04684 0.0
C978 C 0.49734 0.07845 0.04738 0.0
C979 C 0.47575 0.09808 0.0352 0.0
N980 N 0.50079 0.10974 0.05071 0.0
C981 C 0.50656 0.09298 0.05382 0.0
C982 C 0.48531 0.11231 0.04183 0.0
C983 C 0.4819 0.08106 0.03789 0.0
C984 C 0.54549 0.18523 0.05979 0.0
N985 N 0.55513 0.16999 0.05919 0.0
C986 C 0.54723 0.19835 0.04704 0.0
C987 C 0.55833 0.19565 0.03282 0.0
C988 C 0.56723 0.17979 0.03138 0.0
C989 C 0.56512 0.16703 0.04444 0.0
C990 C 0.60532 0.14477 0.07518 0.0
C991 C 0.57878 0.14061 0.09943 0.0
C992 C 0.58963 0.15421 0.07398 0.0
N993 N 0.57559 0.14997 0.08445 0.0
C994 C 0.59417 0.13094 0.10114 0.0
C995 C 0.60696 0.13206 0.0882 0.0
C996 C 0.53506 0.11695 0.09125 0.0
C997 C 0.47338 0.15763 0.08606 0.0
C998 C 0.48514 0.12335 0.08345 0.0
C999 C 0.47047 0.12711 0.09386 0.0
C1000 C 0.46452 0.14437 0.09508 0.0
N1001 N 0.49363 0.13634 0.07432 0.0
C1002 C 0.48802 0.15336 0.07579 0.0
Co1003 Co 0.04919 0.85446 0.41824 0.0
Co1004 Co 0.0133 0.86828 0.4423 0.0
O1005 O 0.02659 0.8501 0.42941 0.0
C1006 C 0.03244 0.82676 0.39374 0.0
O1007 O 0.01819 0.82457 0.40321 0.0
C1008 C 0.01635 0.83845 0.46726 0.0
O1009 O 0.03318 0.83789 0.46358 0.0
O1010 O 0.03492 0.87513 0.45653 0.0
O1011 O 0.0569 0.86934 0.43775 0.0
H1012 H 0.00011 0.92815 0.46777 0.0
H1013 H 0.03622 0.8185 0.4284 0.0
O1014 O 0.04336 0.83889 0.39781 0.0
H1015 H 0.0965 0.82165 0.4516 0.0
H1016 H 0.10586 0.84085 0.38613 0.0
H1017 H 0.06817 0.88743 0.41082 0.0
H1018 H 0.08338 0.84721 0.43674 0.0
H1019 H 0.07905 0.83328 0.40274 0.0
O1020 O 0.00687 0.85028 0.46024 0.0
H1021 H 0.01701 0.90652 0.45066 0.0
H1022 H 0.97932 0.86704 0.46198 0.0
H1023 H 0.09488 0.89556 0.39465 0.0
H1024 H 0.0488 0.79277 0.44301 0.0
H1025 H 0.11358 0.8721 0.38157 0.0
H1026 H 0.07923 0.79409 0.45475 0.0
O1027 O 0.03869 0.87507 0.40571 0.0
H1028 H 0.97119 0.82551 0.41447 0.0
H1029 H 0.98483 0.88818 0.4237 0.0
H1030 H 0.95871 0.87997 0.40639 0.0
H1031 H 0.95167 0.84841 0.40175 0.0
H1032 H 0.99729 0.83435 0.43154 0.0
H1033 H 0.96199 0.88815 0.47936 0.0
H1034 H 0.97231 0.91899 0.48234 0.0
O1035 O 0.01898 0.8868 0.42414 0.0
C1036 C 0.05126 0.8752 0.45219 0.0
C1037 C 0.99553 0.91471 0.4667 0.0
C1038 C 0.97414 0.89228 0.47318 0.0
N1039 N 0.99951 0.88542 0.45552 0.0
C1040 C 0.00518 0.90237 0.4571 0.0
C1041 C 0.98412 0.88033 0.4634 0.0
C1042 C 0.97993 0.90958 0.47484 0.0
C1043 C 0.0496 0.81922 0.43283 0.0
N1044 N 0.05926 0.83426 0.43072 0.0
C1045 C 0.05661 0.80457 0.44142 0.0
C1046 C 0.07364 0.80534 0.44807 0.0
C1047 C 0.08332 0.82078 0.44628 0.0
C1048 C 0.0758 0.83523 0.43776 0.0
C1049 C 0.09753 0.85114 0.39138 0.0
C1050 C 0.07623 0.87712 0.40525 0.0
C1051 C 0.0823 0.84694 0.40072 0.0
N1052 N 0.07153 0.85985 0.40701 0.0
C1053 C 0.09139 0.88184 0.39612 0.0
C1054 C 0.10187 0.86872 0.38881 0.0
C1055 C 0.0277 0.88719 0.40978 0.0
C1056 C 0.97409 0.83931 0.41642 0.0
C1057 C 0.982 0.87445 0.42162 0.0
C1058 C 0.96712 0.86986 0.41186 0.0
C1059 C 0.96316 0.85216 0.40927 0.0
N1060 N 0.99262 0.86178 0.42869 0.0
C1061 C 0.98885 0.8444 0.42611 0.0
Co1062 Co 0.37636 0.26076 0.69119 0.0
Co1063 Co 0.40328 0.29241 0.67295 0.0
O1064 O 0.39791 0.26875 0.6803 0.0
C1065 C 0.40632 0.25313 0.71592 0.0
O1066 O 0.41792 0.25801 0.70427 0.0
C1067 C 0.42479 0.28128 0.63849 0.0
O1068 O 0.42433 0.26852 0.62685 0.0
O1069 O 0.3793 0.29369 0.66063 0.0
O1070 O 0.3634 0.27027 0.67049 0.0
H1071 H 0.38833 0.35593 0.66487 0.0
H1072 H 0.40649 0.23527 0.68551 0.0
O1073 O 0.38989 0.2527 0.71249 0.0
H1074 H 0.35603 0.21025 0.65369 0.0
H1075 H 0.34126 0.22079 0.73099 0.0
H1076 H 0.33709 0.26757 0.68648 0.0
H1077 H 0.35307 0.23828 0.66953 0.0
H1078 H 0.36785 0.23196 0.7168 0.0
O1079 O 0.41302 0.28121 0.65062 0.0
H1080 H 0.38256 0.32445 0.66327 0.0
H1081 H 0.43727 0.3141 0.66911 0.0
H1082 H 0.31031 0.25661 0.70039 0.0
H1083 H 0.40995 0.20725 0.67007 0.0
H1084 H 0.31213 0.23315 0.72301 0.0
H1085 H 0.38461 0.19444 0.65393 0.0
O1086 O 0.37231 0.28387 0.7037 0.0
H1087 H 0.4626 0.26454 0.68429 0.0
H1088 H 0.42117 0.31025 0.70372 0.0
H1089 H 0.44869 0.30603 0.71987 0.0
H1090 H 0.46999 0.28338 0.7099 0.0
H1091 H 0.43412 0.26788 0.66971 0.0
H1092 H 0.44311 0.34543 0.67183 0.0
H1093 H 0.41868 0.36675 0.66978 0.0
O1094 O 0.39219 0.30323 0.69408 0.0
C1095 C 0.36531 0.28389 0.66075 0.0
C1096 C 0.39907 0.34674 0.66575 0.0
C1097 C 0.42975 0.34086 0.66996 0.0
N1098 N 0.40929 0.31676 0.66665 0.0
C1099 C 0.39592 0.32867 0.66476 0.0
C1100 C 0.42618 0.32292 0.66863 0.0
C1101 C 0.41605 0.35283 0.66866 0.0
C1102 C 0.39526 0.22982 0.67898 0.0
N1103 N 0.37944 0.23836 0.67905 0.0
C1104 C 0.39736 0.2139 0.67004 0.0
C1105 C 0.38316 0.20674 0.66095 0.0
C1106 C 0.36713 0.21559 0.66083 0.0
C1107 C 0.36553 0.23148 0.66992 0.0
C1108 C 0.34033 0.2314 0.72154 0.0
C1109 C 0.33841 0.25786 0.6967 0.0
C1110 C 0.35548 0.23813 0.71361 0.0
N1111 N 0.35458 0.2517 0.70177 0.0
C1112 C 0.32298 0.25146 0.70437 0.0
C1113 C 0.32399 0.23827 0.71701 0.0
C1114 C 0.37886 0.29939 0.70343 0.0
C1115 C 0.45354 0.27463 0.68862 0.0
C1116 C 0.42975 0.29977 0.69973 0.0
C1117 C 0.44563 0.29772 0.70872 0.0
C1118 C 0.45762 0.2851 0.70306 0.0
N1119 N 0.42579 0.28961 0.68537 0.0
C1120 C 0.43747 0.27697 0.68002 0.0
Co1121 Co 0.9518 0.65099 0.91339 0.0
Co1122 Co 0.98332 0.63075 0.93834 0.0
O1123 O 0.97385 0.65122 0.92613 0.0
C1124 C 0.97293 0.68003 0.89474 0.0
O1125 O 0.98656 0.6791 0.90528 0.0
C1126 C 0.98326 0.65781 0.9661 0.0
O1127 O 0.96635 0.65958 0.96312 0.0
O1128 O 0.96041 0.62633 0.95117 0.0
O1129 O 0.94159 0.63398 0.93001 0.0
H1130 H 0.98257 0.57011 0.96501 0.0
H1131 H 0.96747 0.68324 0.93031 0.0
O1132 O 0.96037 0.66893 0.8957 0.0
H1133 H 0.9068 0.68031 0.9524 0.0
H1134 H 0.89824 0.68079 0.89058 0.0
H1135 H 0.92776 0.62374 0.8981 0.0
H1136 H 0.91816 0.65737 0.9327 0.0
H1137 H 0.92915 0.67937 0.89912 0.0
O1138 O 0.99181 0.64625 0.95759 0.0
H1139 H 0.97026 0.59522 0.94861 0.0
H1140 H 0.01761 0.62394 0.95603 0.0
H1141 H 0.89613 0.62438 0.89019 0.0
H1142 H 0.95644 0.70693 0.94921 0.0
H1143 H 0.8812 0.65315 0.88665 0.0
H1144 H 0.92583 0.7056 0.96051 0.0
O1145 O 0.96049 0.63027 0.8986 0.0
H1146 H 0.03239 0.66815 0.91448 0.0
H1147 H 0.00853 0.60803 0.91808 0.0
H1148 H 0.03565 0.61338 0.90121 0.0
H1149 H 0.04783 0.64364 0.89937 0.0
H1150 H 0.00515 0.6622 0.93099 0.0
H1151 H 0.03047 0.59911 0.97242 0.0
H1152 H 0.01296 0.57189 0.97691 0.0
O1153 O 0.97515 0.61486 0.91914 0.0
C1154 C 0.94492 0.62662 0.94463 0.0
C1155 C 0.9904 0.58184 0.96301 0.0
C1156 C 0.01728 0.59809 0.96714 0.0
N1157 N 0.99337 0.61085 0.95087 0.0
C1158 C 0.98349 0.59611 0.95372 0.0
C1159 C 0.00995 0.61209 0.95777 0.0
C1160 C 0.00744 0.58284 0.96969 0.0
C1161 C 0.95391 0.68304 0.93414 0.0
N1162 N 0.94316 0.66964 0.92895 0.0
C1163 C 0.94781 0.6963 0.94531 0.0
C1164 C 0.93069 0.69548 0.95176 0.0
C1165 C 0.92002 0.68132 0.9472 0.0
C1166 C 0.92656 0.66838 0.93594 0.0
C1167 C 0.90441 0.66813 0.89233 0.0
C1168 C 0.92104 0.63613 0.89705 0.0
C1169 C 0.92206 0.66722 0.89701 0.0
N1170 N 0.92974 0.65136 0.90062 0.0
C1171 C 0.90327 0.63648 0.89239 0.0
C1172 C 0.89485 0.65264 0.89049 0.0
C1173 C 0.96806 0.61597 0.90396 0.0
C1174 C 0.02727 0.65489 0.91523 0.0
C1175 C 0.01362 0.62121 0.91729 0.0
C1176 C 0.02906 0.62417 0.90775 0.0
C1177 C 0.0359 0.64114 0.90673 0.0
N1178 N 0.00524 0.63473 0.92566 0.0
C1179 C 0.01187 0.65141 0.92464 0.0
Co1180 Co 0.11687 0.72945 0.19005 0.0
Co1181 Co 0.0954 0.69898 0.16388 0.0
O1182 O 0.09633 0.72088 0.17722 0.0
C1183 C 0.08565 0.73602 0.21332 0.0
O1184 O 0.0744 0.73107 0.20136 0.0
C1185 C 0.06902 0.72295 0.1445 0.0
O1186 O 0.07001 0.73621 0.15551 0.0
O1187 O 0.11732 0.70641 0.15015 0.0
O1188 O 0.13229 0.72247 0.17023 0.0
H1189 H 0.11687 0.6427 0.13733 0.0
H1190 H 0.08643 0.7544 0.18341 0.0
O1191 O 0.10212 0.73645 0.21048 0.0
H1192 H 0.13792 0.78181 0.15534 0.0
H1193 H 0.15036 0.77598 0.22346 0.0
H1194 H 0.15055 0.71401 0.20514 0.0
H1195 H 0.14089 0.75364 0.17091 0.0
H1196 H 0.12523 0.76367 0.20735 0.0
O1197 O 0.07917 0.70968 0.14586 0.0
H1198 H 0.12052 0.67142 0.15102 0.0
H1199 H 0.06557 0.68057 0.14721 0.0
H1200 H 0.17599 0.72583 0.22082 0.0
H1201 H 0.08302 0.7827 0.16843 0.0
H1202 H 0.17622 0.75715 0.23004 0.0
H1203 H 0.10886 0.79667 0.15414 0.0
O1204 O 0.12045 0.70551 0.20133 0.0
H1205 H 0.03757 0.70545 0.1964 0.0
H1206 H 0.08678 0.66565 0.18269 0.0
H1207 H 0.06317 0.65555 0.20228 0.0
H1208 H 0.03822 0.67545 0.20927 0.0
H1209 H 0.06169 0.715 0.17724 0.0
H1210 H 0.06138 0.65216 0.13265 0.0
H1211 H 0.08679 0.63283 0.12768 0.0
O1212 O 0.11112 0.68682 0.18053 0.0
C1213 C 0.1314 0.71441 0.15553 0.0
C1214 C 0.1055 0.65084 0.13933 0.0
C1215 C 0.0744 0.65622 0.13677 0.0
N1216 N 0.09336 0.67757 0.15031 0.0
C1217 C 0.10759 0.6672 0.14722 0.0
C1218 C 0.07696 0.67243 0.14481 0.0
C1219 C 0.08877 0.6453 0.13411 0.0
C1220 C 0.09785 0.76035 0.17767 0.0
N1221 N 0.1139 0.75228 0.1785 0.0
C1222 C 0.0958 0.77642 0.16899 0.0
C1223 C 0.11027 0.78424 0.16093 0.0
C1224 C 0.12656 0.77591 0.16159 0.0
C1225 C 0.12811 0.75986 0.17039 0.0
C1226 C 0.15072 0.76247 0.21898 0.0
C1227 C 0.15074 0.72782 0.20804 0.0
C1228 C 0.13659 0.75543 0.20958 0.0
N1229 N 0.13702 0.73849 0.20341 0.0
C1230 C 0.16512 0.73438 0.21743 0.0
C1231 C 0.16519 0.7519 0.22272 0.0
C1232 C 0.11909 0.69002 0.19479 0.0
C1233 C 0.04826 0.69655 0.19333 0.0
C1234 C 0.07603 0.67451 0.18556 0.0
C1235 C 0.06264 0.66863 0.19669 0.0
C1236 C 0.04866 0.67977 0.20059 0.0
N1237 N 0.07559 0.69105 0.17837 0.0
C1238 C 0.06189 0.70191 0.18222 0.0
Co1239 Co 0.45281 0.84438 0.08427 0.0
Co1240 Co 0.48449 0.8672 0.0605 0.0
O1241 O 0.47543 0.84648 0.07256 0.0
C1242 C 0.47466 0.81717 0.10441 0.0
O1243 O 0.48823 0.8172 0.09376 0.0
C1244 C 0.48029 0.84171 0.03206 0.0
O1245 O 0.46412 0.83941 0.03746 0.0
O1246 O 0.46038 0.8735 0.04984 0.0
O1247 O 0.44098 0.85842 0.0661 0.0
H1248 H 0.50863 0.92961 0.05577 0.0
H1249 H 0.47429 0.81537 0.06658 0.0
O1250 O 0.46309 0.82937 0.10382 0.0
H1251 H 0.41368 0.80665 0.04618 0.0
H1252 H 0.40415 0.80756 0.10843 0.0
H1253 H 0.42152 0.86737 0.0913 0.0
H1254 H 0.4207 0.83088 0.06606 0.0
H1255 H 0.435 0.8146 0.10264 0.0
O1256 O 0.49049 0.85221 0.04 0.0
H1257 H 0.49497 0.90502 0.07071 0.0
H1258 H 0.49411 0.87613 0.02256 0.0
H1259 H 0.3904 0.86062 0.0945 0.0
H1260 H 0.46782 0.79109 0.04676 0.0
H1261 H 0.3813 0.82997 0.1028 0.0
H1262 H 0.43725 0.78631 0.0364 0.0
O1263 O 0.45782 0.86758 0.09775 0.0
H1264 H 0.53518 0.82692 0.07439 0.0
H1265 H 0.51067 0.88585 0.08458 0.0
H1266 H 0.53893 0.87817 0.09759 0.0
H1267 H 0.55155 0.84848 0.09265 0.0
H1268 H 0.50691 0.83523 0.06125 0.0
H1269 H 0.50841 0.90037 0.00766 0.0
H1270 H 0.51595 0.92752 0.02406 0.0
O1271 O 0.47845 0.88147 0.08118 0.0
C1272 C 0.4445 0.8691 0.05389 0.0
C1273 C 0.5058 0.91767 0.04854 0.0
C1274 C 0.50566 0.9013 0.0216 0.0
N1275 N 0.49444 0.88797 0.04822 0.0
C1276 C 0.49804 0.90333 0.05703 0.0
C1277 C 0.49771 0.88728 0.03045 0.0
C1278 C 0.50985 0.91654 0.03077 0.0
C1279 C 0.46078 0.81297 0.06339 0.0
N1280 N 0.44766 0.82363 0.06958 0.0
C1281 C 0.45725 0.79936 0.05154 0.0
C1282 C 0.44015 0.79676 0.04562 0.0
C1283 C 0.42693 0.80809 0.05117 0.0
C1284 C 0.431 0.82167 0.06284 0.0
C1285 C 0.40785 0.82077 0.10461 0.0
C1286 C 0.41784 0.85435 0.0949 0.0
C1287 C 0.42547 0.82504 0.10185 0.0
N1288 N 0.4302 0.84144 0.09601 0.0
C1289 C 0.40005 0.85047 0.0969 0.0
C1290 C 0.39502 0.83342 0.10147 0.0
C1291 C 0.46764 0.88115 0.09391 0.0
C1292 C 0.53005 0.84006 0.07628 0.0
C1293 C 0.5161 0.87321 0.0815 0.0
C1294 C 0.53215 0.86879 0.08929 0.0
C1295 C 0.5392 0.85212 0.08657 0.0
N1296 N 0.50738 0.86154 0.0709 0.0
C1297 C 0.51409 0.84498 0.06862 0.0
Co1298 Co 0.38087 0.228 0.81024 0.0
Co1299 Co 0.40349 0.19807 0.83529 0.0
O1300 O 0.40213 0.22037 0.82251 0.0
C1301 C 0.41144 0.2382 0.78715 0.0
O1302 O 0.42316 0.23459 0.79918 0.0
C1303 C 0.43143 0.2211 0.85371 0.0
O1304 O 0.43001 0.23463 0.8431 0.0
O1305 O 0.38254 0.20558 0.8504 0.0
O1306 O 0.36617 0.21903 0.82961 0.0
H1307 H 0.38225 0.14087 0.8601 0.0
H1308 H 0.40953 0.25391 0.81989 0.0
O1309 O 0.395 0.23703 0.79009 0.0
H1310 H 0.35488 0.27829 0.84453 0.0
H1311 H 0.34432 0.26908 0.77322 0.0
H1312 H 0.34541 0.21242 0.80474 0.0
H1313 H 0.35445 0.25027 0.82841 0.0
H1314 H 0.37094 0.2596 0.78914 0.0
O1315 O 0.42098 0.20801 0.85265 0.0
H1316 H 0.37853 0.17224 0.85215 0.0
H1317 H 0.43388 0.1781 0.84899 0.0
H1318 H 0.31841 0.22153 0.78927 0.0
H1319 H 0.4105 0.28199 0.83566 0.0
H1320 H 0.31777 0.25002 0.77329 0.0
H1321 H 0.38302 0.29448 0.84816 0.0
O1322 O 0.37918 0.20476 0.79768 0.0
H1323 H 0.45968 0.2045 0.79996 0.0
H1324 H 0.41102 0.16483 0.81572 0.0
H1325 H 0.43383 0.1546 0.79532 0.0
H1326 H 0.45861 0.17438 0.78743 0.0
H1327 H 0.43611 0.2143 0.81974 0.0
H1328 H 0.43816 0.14819 0.8596 0.0
H1329 H 0.41233 0.12883 0.8644 0.0
O1330 O 0.38678 0.18628 0.81883 0.0
C1331 C 0.36796 0.21233 0.84482 0.0
C1332 C 0.39359 0.1491 0.85806 0.0
C1333 C 0.42499 0.153 0.8575 0.0
N1334 N 0.40584 0.17634 0.84839 0.0
C1335 C 0.39154 0.16666 0.85305 0.0
C1336 C 0.42242 0.17015 0.85176 0.0
C1337 C 0.41047 0.14224 0.86018 0.0
C1338 C 0.39746 0.25924 0.82485 0.0
N1339 N 0.3819 0.25054 0.82255 0.0
C1340 C 0.3981 0.27518 0.83398 0.0
C1341 C 0.3827 0.28216 0.84102 0.0
C1342 C 0.36692 0.2731 0.83898 0.0
C1343 C 0.36679 0.25722 0.82975 0.0
C1344 C 0.34444 0.25663 0.78011 0.0
C1345 C 0.34519 0.22492 0.79799 0.0
C1346 C 0.35951 0.25114 0.78908 0.0
N1347 N 0.35975 0.23547 0.7979 0.0
C1348 C 0.32988 0.22997 0.78917 0.0
C1349 C 0.32954 0.24594 0.78018 0.0
C1350 C 0.37961 0.18923 0.80398 0.0
C1351 C 0.44908 0.19566 0.80345 0.0
C1352 C 0.42158 0.1737 0.81232 0.0
C1353 C 0.43456 0.16773 0.80077 0.0
C1354 C 0.44845 0.1788 0.79637 0.0
N1355 N 0.42237 0.19024 0.8195 0.0
C1356 C 0.43576 0.20118 0.81486 0.0
Co1357 Co 0.61789 0.26414 0.30949 0.0
Co1358 Co 0.59516 0.29689 0.33153 0.0
O1359 O 0.59633 0.27402 0.31997 0.0
C1360 C 0.58773 0.25386 0.28617 0.0
O1361 O 0.57658 0.25404 0.29925 0.0
C1362 C 0.56363 0.27774 0.34925 0.0
O1363 O 0.56268 0.26424 0.33859 0.0
O1364 O 0.61416 0.28843 0.34802 0.0
O1365 O 0.63157 0.27127 0.33089 0.0
H1366 H 0.61817 0.3567 0.34653 0.0
H1367 H 0.58636 0.24557 0.3268 0.0
O1368 O 0.60399 0.25744 0.28819 0.0
H1369 H 0.63598 0.20525 0.33498 0.0
H1370 H 0.65137 0.22396 0.26845 0.0
H1371 H 0.65617 0.27337 0.31002 0.0
H1372 H 0.64069 0.23381 0.32145 0.0
H1373 H 0.62528 0.23451 0.28435 0.0
O1374 O 0.57609 0.28894 0.34826 0.0
H1375 H 0.62137 0.32497 0.34121 0.0
H1376 H 0.56597 0.31848 0.34615 0.0
H1377 H 0.68263 0.26287 0.29478 0.0
H1378 H 0.58122 0.21722 0.34044 0.0
H1379 H 0.68036 0.23806 0.27365 0.0
H1380 H 0.60605 0.19647 0.34456 0.0
O1381 O 0.62374 0.28718 0.29742 0.0
H1382 H 0.54356 0.29028 0.28998 0.0
H1383 H 0.58984 0.33023 0.31124 0.0
H1384 H 0.56917 0.34052 0.28875 0.0
H1385 H 0.54567 0.32056 0.27794 0.0
H1386 H 0.56447 0.28067 0.31246 0.0
H1387 H 0.56255 0.34953 0.35349 0.0
H1388 H 0.58822 0.36918 0.35228 0.0
O1389 O 0.61345 0.30683 0.3164 0.0
C1390 C 0.62835 0.2794 0.34534 0.0
C1391 C 0.60669 0.34829 0.34682 0.0
C1392 C 0.5755 0.34425 0.35081 0.0
N1393 N 0.59388 0.3197 0.34312 0.0
C1394 C 0.60844 0.33024 0.34391 0.0
C1395 C 0.57765 0.32643 0.34718 0.0
C1396 C 0.59003 0.3553 0.3501 0.0
C1397 C 0.59721 0.23674 0.32746 0.0
N1398 N 0.61349 0.24126 0.32117 0.0
C1399 C 0.59423 0.22058 0.33571 0.0
C1400 C 0.60815 0.20898 0.33811 0.0
C1401 C 0.62488 0.21387 0.33266 0.0
C1402 C 0.62735 0.23014 0.32449 0.0
C1403 C 0.65251 0.23485 0.27755 0.0
C1404 C 0.65496 0.26256 0.30101 0.0
C1405 C 0.6377 0.24107 0.28649 0.0
N1406 N 0.63899 0.25482 0.29808 0.0
C1407 C 0.67006 0.25665 0.29235 0.0
C1408 C 0.66878 0.24274 0.2805 0.0
C1409 C 0.62229 0.30292 0.30302 0.0
C1410 C 0.55348 0.29927 0.29484 0.0
C1411 C 0.57944 0.32149 0.30709 0.0
C1412 C 0.56784 0.32741 0.29414 0.0
C1413 C 0.5547 0.31621 0.28805 0.0
N1414 N 0.57785 0.30499 0.31421 0.0
C1415 C 0.56531 0.29387 0.30782 0.0
Co1416 Co 0.08188 0.05345 0.64918 0.0
Co1417 Co 0.06206 0.01539 0.63464 0.0
O1418 O 0.0733 0.02955 0.65335 0.0
C1419 C 0.10675 0.03849 0.67707 0.0
O1420 O 0.09964 0.0228 0.67589 0.0
C1421 C 0.03673 0.01406 0.66394 0.0
O1422 O 0.03826 0.03122 0.66479 0.0
O1423 O 0.04478 0.03494 0.62919 0.0
O1424 O 0.06174 0.0586 0.63354 0.0
H1425 H 0.0413 0.00077 0.57324 0.0
H1426 H 0.07279 0.0393 0.68481 0.0
O1427 O 0.10248 0.05046 0.66599 0.0
H1428 H 0.04126 0.09561 0.68096 0.0
H1429 H 0.10825 0.11351 0.66104 0.0
H1430 H 0.08814 0.0718 0.61602 0.0
H1431 H 0.05875 0.08492 0.65587 0.0
H1432 H 0.08971 0.08858 0.66889 0.0
O1433 O 0.04548 0.00571 0.6524 0.0
H1434 H 0.05518 0.01912 0.59588 0.0
H1435 H 0.04631 0.97942 0.63418 0.0
H1436 H 0.10501 0.09723 0.60702 0.0
H1437 H 0.0557 0.04951 0.71004 0.0
H1438 H 0.11699 0.11766 0.62975 0.0
H1439 H 0.0397 0.07791 0.70836 0.0
O1440 O 0.09644 0.04439 0.62886 0.0
H1441 H 0.09502 0.97342 0.67378 0.0
H1442 H 0.08556 0.99289 0.61267 0.0
H1443 H 0.10663 0.96903 0.6187 0.0
H1444 H 0.11143 0.95908 0.64944 0.0
H1445 H 0.07419 0.99742 0.66718 0.0
H1446 H 0.03211 0.96075 0.61194 0.0
H1447 H 0.02951 0.97136 0.58116 0.0
O1448 O 0.07835 0.02476 0.61637 0.0
C1449 C 0.04747 0.05158 0.62855 0.0
C1450 C 0.04213 0.99609 0.58665 0.0
C1451 C 0.03694 0.97365 0.60837 0.0
N1452 N 0.05094 0.0008 0.61666 0.0
C1453 C 0.04992 0.0065 0.59964 0.0
C1454 C 0.04481 0.98444 0.621 0.0
C1455 C 0.03554 0.97959 0.5911 0.0
C1456 C 0.06639 0.05186 0.6839 0.0
N1457 N 0.06759 0.06181 0.66893 0.0
C1458 C 0.05647 0.0575 0.69828 0.0
C1459 C 0.04746 0.07338 0.69731 0.0
C1460 C 0.04833 0.0833 0.68195 0.0
C1461 C 0.05828 0.07715 0.66776 0.0
C1462 C 0.1042 0.1042 0.65106 0.0
C1463 C 0.0929 0.08056 0.62606 0.0
C1464 C 0.09437 0.08949 0.65568 0.0
N1465 N 0.09028 0.07699 0.64347 0.0
C1466 C 0.10233 0.09524 0.62082 0.0
C1467 C 0.10875 0.10672 0.63351 0.0
C1468 C 0.09171 0.03477 0.61587 0.0
C1469 C 0.09303 0.97764 0.66033 0.0
C1470 C 0.08766 0.98877 0.62611 0.0
C1471 C 0.09957 0.97519 0.62943 0.0
C1472 C 0.10225 0.9696 0.64667 0.0
N1473 N 0.07865 0.99659 0.63958 0.0
C1474 C 0.08123 0.9912 0.65652 0.0
Co1475 Co 0.69932 0.83533 0.90135 0.0
Co1476 Co 0.7319 0.81257 0.87937 0.0
O1477 O 0.72177 0.82276 0.90092 0.0
C1478 C 0.71959 0.85184 0.93257 0.0
O1479 O 0.73347 0.84167 0.93143 0.0
C1480 C 0.73861 0.78686 0.90875 0.0
O1481 O 0.73273 0.79776 0.92064 0.0
O1482 O 0.70899 0.80061 0.87336 0.0
O1483 O 0.68976 0.82084 0.88202 0.0
H1484 H 0.73281 0.79923 0.8146 0.0
H1485 H 0.71198 0.81766 0.93417 0.0
O1486 O 0.70714 0.85097 0.92137 0.0
H1487 H 0.65351 0.7925 0.92296 0.0
H1488 H 0.64687 0.86075 0.932 0.0
H1489 H 0.67432 0.84915 0.87468 0.0
H1490 H 0.66574 0.81501 0.9033 0.0
H1491 H 0.67643 0.84831 0.93029 0.0
O1492 O 0.73895 0.79075 0.89245 0.0
H1493 H 0.72092 0.81204 0.84194 0.0
H1494 H 0.7635 0.79052 0.87107 0.0
H1495 H 0.64421 0.86125 0.87565 0.0
H1496 H 0.70024 0.79541 0.95448 0.0
H1497 H 0.6303 0.86718 0.90458 0.0
H1498 H 0.67072 0.78255 0.94889 0.0
O1499 O 0.70895 0.85224 0.88325 0.0
H1500 H 0.78069 0.83462 0.91902 0.0
H1501 H 0.76025 0.82928 0.85784 0.0
H1502 H 0.78854 0.84359 0.86389 0.0
H1503 H 0.79907 0.84631 0.89468 0.0
H1504 H 0.7525 0.82065 0.91242 0.0
H1505 H 0.77559 0.77715 0.84412 0.0
H1506 H 0.76032 0.78163 0.81559 0.0
O1507 O 0.72493 0.83422 0.86581 0.0
C1508 C 0.69337 0.80666 0.87402 0.0
C1509 C 0.73962 0.79725 0.82695 0.0
C1510 C 0.7636 0.78481 0.84352 0.0
N1511 N 0.74157 0.80219 0.85808 0.0
C1512 C 0.73299 0.80454 0.84246 0.0
C1513 C 0.75661 0.79232 0.85876 0.0
C1514 C 0.75504 0.78735 0.82751 0.0
C1515 C 0.69913 0.81248 0.93187 0.0
N1516 N 0.68965 0.81802 0.91773 0.0
C1517 C 0.69252 0.79972 0.94332 0.0
C1518 C 0.676 0.79248 0.94016 0.0
C1519 C 0.66636 0.79805 0.92563 0.0
C1520 C 0.67343 0.81083 0.9145 0.0
C1521 C 0.65271 0.85832 0.9193 0.0
C1522 C 0.66828 0.85169 0.88714 0.0
C1523 C 0.66965 0.85149 0.91821 0.0
N1524 N 0.67713 0.84792 0.90223 0.0
C1525 C 0.65125 0.85849 0.88769 0.0
C1526 C 0.6434 0.8617 0.90393 0.0
C1527 C 0.71743 0.84902 0.86888 0.0
C1528 C 0.7763 0.83346 0.90552 0.0
C1529 C 0.76456 0.83037 0.8713 0.0
C1530 C 0.7807 0.83851 0.87464 0.0
C1531 C 0.7866 0.84003 0.89189 0.0
N1532 N 0.75448 0.82381 0.88471 0.0
C1533 C 0.76023 0.82541 0.90166 0.0
Co1534 Co 0.91441 0.45097 0.14863 0.0
Co1535 Co 0.93947 0.48525 0.13221 0.0
O1536 O 0.92797 0.47266 0.15201 0.0
C1537 C 0.89604 0.46972 0.17909 0.0
O1538 O 0.90636 0.48348 0.17803 0.0
C1539 C 0.96461 0.48705 0.16289 0.0
O1540 O 0.95424 0.47807 0.17324 0.0
O1541 O 0.95158 0.46276 0.12449 0.0
O1542 O 0.93099 0.4427 0.13049 0.0
H1543 H 0.95617 0.49565 0.0689 0.0
H1544 H 0.92947 0.46005 0.18346 0.0
O1545 O 0.89701 0.45721 0.16789 0.0
H1546 H 0.94922 0.39952 0.17252 0.0
H1547 H 0.88775 0.39258 0.16416 0.0
H1548 H 0.9031 0.43345 0.11634 0.0
H1549 H 0.93177 0.41537 0.15041 0.0
H1550 H 0.89739 0.42287 0.17095 0.0
O1551 O 0.96054 0.49043 0.14704 0.0
H1552 H 0.94198 0.48006 0.09341 0.0
H1553 H 0.96194 0.51752 0.12965 0.0
H1554 H 0.89276 0.40381 0.10903 0.0
H1555 H 0.94713 0.44491 0.20596 0.0
H1556 H 0.88489 0.3833 0.13283 0.0
H1557 H 0.95708 0.41427 0.20059 0.0
O1558 O 0.89973 0.46343 0.13064 0.0
H1559 H 0.91821 0.52902 0.17739 0.0
H1560 H 0.92292 0.51636 0.11416 0.0
H1561 H 0.90819 0.5434 0.12378 0.0
H1562 H 0.90574 0.54998 0.15567 0.0
H1563 H 0.93254 0.50203 0.16713 0.0
H1564 H 0.97674 0.53332 0.10556 0.0
H1565 H 0.97377 0.52253 0.07488 0.0
O1566 O 0.91872 0.48055 0.11611 0.0
C1567 C 0.94594 0.44689 0.12462 0.0
C1568 C 0.95764 0.50046 0.08222 0.0
C1569 C 0.96917 0.52158 0.10279 0.0
N1570 N 0.95116 0.49766 0.11303 0.0
C1571 C 0.94962 0.49162 0.09619 0.0
C1572 C 0.96086 0.51246 0.11642 0.0
C1573 C 0.96749 0.51553 0.08558 0.0
C1574 C 0.93347 0.44676 0.18118 0.0
N1575 N 0.92897 0.43862 0.16588 0.0
C1576 C 0.94362 0.43823 0.19389 0.0
C1577 C 0.94923 0.42107 0.19086 0.0
C1578 C 0.9448 0.41279 0.17515 0.0
C1579 C 0.93482 0.42188 0.16267 0.0
C1580 C 0.89098 0.40159 0.15362 0.0
C1581 C 0.89934 0.42471 0.1269 0.0
C1582 C 0.89613 0.41879 0.15738 0.0
N1583 N 0.90113 0.42976 0.14407 0.0
C1584 C 0.89375 0.40786 0.12264 0.0
C1585 C 0.88968 0.39624 0.13609 0.0
C1586 C 0.90358 0.47334 0.11754 0.0
C1587 C 0.91905 0.52625 0.16344 0.0
C1588 C 0.92155 0.51873 0.12799 0.0
C1589 C 0.91337 0.53427 0.1334 0.0
C1590 C 0.91205 0.53799 0.15127 0.0
N1591 N 0.92825 0.5071 0.13997 0.0
C1592 C 0.92719 0.51088 0.15751 0.0
Co1593 Co 0.2978 0.66413 0.39744 0.0
Co1594 Co 0.26478 0.68845 0.3806 0.0
O1595 O 0.27616 0.67733 0.40085 0.0
C1596 C 0.28198 0.64888 0.43127 0.0
O1597 O 0.26838 0.65948 0.43107 0.0
C1598 C 0.26335 0.71705 0.40786 0.0
O1599 O 0.28047 0.71631 0.40988 0.0
O1600 O 0.28717 0.70202 0.37523 0.0
O1601 O 0.30433 0.67866 0.37694 0.0
H1602 H 0.26196 0.71059 0.31839 0.0
H1603 H 0.28889 0.68478 0.42972 0.0
O1604 O 0.29308 0.64863 0.41863 0.0
H1605 H 0.34843 0.70411 0.41344 0.0
H1606 H 0.35711 0.63975 0.41358 0.0
H1607 H 0.3139 0.64828 0.36616 0.0
H1608 H 0.33297 0.68201 0.39569 0.0
H1609 H 0.32719 0.65062 0.42034 0.0
O1610 O 0.25609 0.70757 0.39617 0.0
H1611 H 0.27528 0.69535 0.34374 0.0
H1612 H 0.23058 0.70731 0.37505 0.0
H1613 H 0.34343 0.63824 0.35878 0.0
H1614 H 0.30402 0.70647 0.4482 0.0
H1615 H 0.3653 0.63376 0.38232 0.0
H1616 H 0.33408 0.71639 0.44011 0.0
O1617 O 0.28483 0.64789 0.38094 0.0
H1618 H 0.22036 0.66199 0.42186 0.0
H1619 H 0.2354 0.67106 0.35967 0.0
H1620 H 0.20921 0.65389 0.36717 0.0
H1621 H 0.2014 0.64922 0.39853 0.0
H1622 H 0.24665 0.67894 0.41366 0.0
H1623 H 0.2169 0.7229 0.35015 0.0
H1624 H 0.23254 0.72449 0.3215 0.0
O1625 O 0.27248 0.66876 0.36443 0.0
C1626 C 0.3021 0.69466 0.37283 0.0
C1627 C 0.25496 0.70991 0.33078 0.0
C1628 C 0.22968 0.71683 0.3486 0.0
N1629 N 0.25361 0.70016 0.36079 0.0
C1630 C 0.26242 0.70125 0.34516 0.0
C1631 C 0.23753 0.70802 0.36268 0.0
C1632 C 0.23847 0.71772 0.33253 0.0
C1633 C 0.30223 0.68821 0.42659 0.0
N1634 N 0.31037 0.68098 0.41231 0.0
C1635 C 0.31064 0.70087 0.43691 0.0
C1636 C 0.32745 0.70651 0.43231 0.0
C1637 C 0.3355 0.6996 0.41738 0.0
C1638 C 0.32668 0.68694 0.40743 0.0
C1639 C 0.34765 0.6417 0.40311 0.0
C1640 C 0.32322 0.64637 0.37665 0.0
C1641 C 0.33066 0.64755 0.40689 0.0
N1642 N 0.31908 0.65079 0.39353 0.0
C1643 C 0.33996 0.64056 0.37238 0.0
C1644 C 0.35232 0.63846 0.38564 0.0
C1645 C 0.27757 0.65281 0.36645 0.0
C1646 C 0.22377 0.66366 0.40813 0.0
C1647 C 0.23269 0.66862 0.37325 0.0
C1648 C 0.21754 0.65909 0.37748 0.0
C1649 C 0.21313 0.65653 0.39506 0.0
N1650 N 0.24329 0.67537 0.38611 0.0
C1651 C 0.2388 0.67311 0.40338 0.0
Co1652 Co 0.07902 0.95249 0.34321 0.0
Co1653 Co 0.0589 0.98484 0.36733 0.0
O1654 O 0.07032 0.97604 0.34626 0.0
C1655 C 0.10582 0.97442 0.32113 0.0
O1656 O 0.09895 0.99016 0.32282 0.0
C1657 C 0.03321 0.98841 0.33871 0.0
O1658 O 0.03545 0.97156 0.33589 0.0
O1659 O 0.04411 0.96295 0.37046 0.0
O1660 O 0.05943 0.94196 0.3572 0.0
H1661 H 0.03749 0.98428 0.43003 0.0
H1662 H 0.0714 0.97668 0.31309 0.0
O1663 O 0.09941 0.96098 0.32893 0.0
H1664 H 0.03814 0.92293 0.29949 0.0
H1665 H 0.10078 0.90116 0.30757 0.0
H1666 H 0.08934 0.92346 0.36736 0.0
H1667 H 0.05548 0.92508 0.3265 0.0
H1668 H 0.08971 0.93113 0.31193 0.0
O1669 O 0.04075 0.99557 0.35186 0.0
H1670 H 0.05272 0.97232 0.404 0.0
H1671 H 0.04007 0.01832 0.37491 0.0
H1672 H 0.10413 0.89503 0.36342 0.0
H1673 H 0.05526 0.97477 0.28532 0.0
H1674 H 0.11005 0.88385 0.3333 0.0
H1675 H 0.03832 0.94775 0.27827 0.0
O1676 O 0.09315 0.95506 0.36577 0.0
H1677 H 0.08754 0.03485 0.3347 0.0
H1678 H 0.08003 0.00623 0.3924 0.0
H1679 H 0.09848 0.03281 0.39005 0.0
H1680 H 0.10224 0.04738 0.36105 0.0
H1681 H 0.06939 0.00813 0.33764 0.0
H1682 H 0.02439 0.03057 0.40048 0.0
H1683 H 0.02308 0.01355 0.42833 0.0
O1684 O 0.07725 0.97401 0.38243 0.0
C1685 C 0.04667 0.94671 0.36692 0.0
C1686 C 0.038 0.99183 0.41797 0.0
C1687 C 0.03059 0.01779 0.40138 0.0
N1688 N 0.04724 0.99454 0.3879 0.0
C1689 C 0.04667 0.98515 0.40321 0.0
C1690 C 0.03941 0.01071 0.3869 0.0
C1691 C 0.02989 0.00825 0.41701 0.0
C1692 C 0.06463 0.96466 0.3101 0.0
N1693 N 0.06485 0.95083 0.32163 0.0
C1694 C 0.05524 0.96375 0.29434 0.0
C1695 C 0.04567 0.94865 0.29043 0.0
C1696 C 0.04549 0.93479 0.30236 0.0
C1697 C 0.0551 0.93618 0.31795 0.0
C1698 C 0.09829 0.90599 0.32073 0.0
C1699 C 0.0922 0.91889 0.35422 0.0
C1700 C 0.09173 0.92288 0.32332 0.0
N1701 N 0.08828 0.92898 0.3399 0.0
C1702 C 0.10027 0.90258 0.35211 0.0
C1703 C 0.10341 0.8962 0.33524 0.0
C1704 C 0.08996 0.96326 0.38027 0.0
C1705 C 0.08587 0.02872 0.34744 0.0
C1706 C 0.08156 0.01251 0.37974 0.0
C1707 C 0.09204 0.02755 0.37849 0.0
C1708 C 0.09415 0.03572 0.36222 0.0
N1709 N 0.07329 0.00585 0.36523 0.0
C1710 C 0.0755 0.01366 0.3492 0.0
Co1711 Co 0.80021 0.83205 0.59408 0.0
Co1712 Co 0.7652 0.81257 0.61705 0.0
O1713 O 0.77618 0.82239 0.59569 0.0
C1714 C 0.77925 0.85541 0.56817 0.0
O1715 O 0.76446 0.84658 0.56932 0.0
C1716 C 0.75659 0.78678 0.58785 0.0
O1717 O 0.76288 0.79695 0.57558 0.0
O1718 O 0.78718 0.7988 0.62295 0.0
O1719 O 0.80932 0.81254 0.60889 0.0
H1720 H 0.75686 0.80353 0.68265 0.0
H1721 H 0.77941 0.82005 0.56258 0.0
O1722 O 0.79213 0.85227 0.57852 0.0
H1723 H 0.8372 0.79196 0.55613 0.0
H1724 H 0.85052 0.85511 0.55863 0.0
H1725 H 0.83277 0.83314 0.61688 0.0
H1726 H 0.83105 0.8111 0.58124 0.0
H1727 H 0.81964 0.85035 0.56529 0.0
O1728 O 0.75651 0.79136 0.60392 0.0
H1729 H 0.77079 0.81595 0.65655 0.0
H1730 H 0.73293 0.7909 0.62386 0.0
H1731 H 0.86387 0.8363 0.61017 0.0
H1732 H 0.78469 0.80052 0.53746 0.0
H1733 H 0.87304 0.84649 0.58013 0.0
H1734 H 0.8139 0.78635 0.53394 0.0
O1735 O 0.79644 0.84646 0.61654 0.0
H1736 H 0.71646 0.8367 0.57865 0.0
H1737 H 0.74171 0.83537 0.63829 0.0
H1738 H 0.71492 0.8526 0.63277 0.0
H1739 H 0.70199 0.85328 0.60279 0.0
H1740 H 0.74328 0.81989 0.58468 0.0
H1741 H 0.71864 0.77826 0.64979 0.0
H1742 H 0.7306 0.78437 0.67953 0.0
O1743 O 0.77427 0.8326 0.63078 0.0
C1744 C 0.80357 0.80072 0.61928 0.0
C1745 C 0.75181 0.80033 0.66973 0.0
C1746 C 0.73039 0.78617 0.65131 0.0
N1747 N 0.75381 0.80309 0.63822 0.0
C1748 C 0.75991 0.8071 0.65469 0.0
C1749 C 0.73883 0.79317 0.63656 0.0
C1750 C 0.73705 0.78965 0.66799 0.0
C1751 C 0.79208 0.81414 0.56122 0.0
N1752 N 0.8048 0.81727 0.5734 0.0
C1753 C 0.79504 0.80295 0.54693 0.0
C1754 C 0.81139 0.795 0.54496 0.0
C1755 C 0.82444 0.79817 0.55736 0.0
C1756 C 0.82085 0.80923 0.57158 0.0
C1757 C 0.84669 0.85052 0.57156 0.0
C1758 C 0.83637 0.83836 0.6043 0.0
C1759 C 0.829 0.84828 0.57572 0.0
N1760 N 0.82396 0.84156 0.59172 0.0
C1761 C 0.85422 0.84006 0.60045 0.0
C1762 C 0.85935 0.84581 0.58379 0.0
C1763 C 0.78626 0.84421 0.63 0.0
C1764 C 0.72183 0.83633 0.59183 0.0
C1765 C 0.73617 0.8354 0.62521 0.0
C1766 C 0.72098 0.84527 0.62217 0.0
C1767 C 0.71374 0.84567 0.60536 0.0
N1768 N 0.74393 0.826 0.61195 0.0
C1769 C 0.73702 0.8266 0.59538 0.0
Co1770 Co 0.91448 0.545 0.84433 0.0
Co1771 Co 0.93694 0.51236 0.86699 0.0
O1772 O 0.92594 0.52223 0.84581 0.0
C1773 C 0.89293 0.52265 0.81871 0.0
O1774 O 0.90338 0.50895 0.81903 0.0
C1775 C 0.96531 0.5144 0.84052 0.0
O1776 O 0.96119 0.53103 0.83871 0.0
O1777 O 0.94865 0.53564 0.87333 0.0
O1778 O 0.93297 0.55597 0.85885 0.0
H1779 H 0.94993 0.50562 0.93185 0.0
H1780 H 0.93004 0.52457 0.81388 0.0
O1781 O 0.89503 0.53557 0.82915 0.0
H1782 H 0.94876 0.58572 0.8045 0.0
H1783 H 0.88699 0.59523 0.81197 0.0
H1784 H 0.90907 0.57462 0.86935 0.0
H1785 H 0.93204 0.57769 0.83085 0.0
H1786 H 0.89536 0.56445 0.81606 0.0
O1787 O 0.95759 0.50542 0.85234 0.0
H1788 H 0.93597 0.51895 0.90602 0.0
H1789 H 0.96091 0.48168 0.87267 0.0
H1790 H 0.90055 0.60554 0.8658 0.0
H1791 H 0.9463 0.53214 0.78717 0.0
H1792 H 0.89066 0.61624 0.83652 0.0
H1793 H 0.95577 0.56297 0.78216 0.0
O1794 O 0.90054 0.53918 0.86615 0.0
H1795 H 0.91651 0.46418 0.82642 0.0
H1796 H 0.91923 0.48418 0.88799 0.0
H1797 H 0.90465 0.45612 0.88102 0.0
H1798 H 0.9032 0.44592 0.85001 0.0
H1799 H 0.93089 0.4922 0.83399 0.0
H1800 H 0.97522 0.46805 0.89819 0.0
H1801 H 0.96978 0.47996 0.9281 0.0
O1802 O 0.91601 0.51907 0.88147 0.0
C1803 C 0.94516 0.55171 0.86934 0.0
C1804 C 0.95264 0.50049 0.91885 0.0
C1805 C 0.96683 0.47942 0.89997 0.0
N1806 N 0.94815 0.50178 0.88757 0.0
C1807 C 0.94489 0.50816 0.90406 0.0
C1808 C 0.95884 0.48741 0.88549 0.0
C1809 C 0.96374 0.48607 0.91675 0.0
C1810 C 0.93327 0.53812 0.81165 0.0
N1811 N 0.92861 0.55081 0.82349 0.0
C1812 C 0.94286 0.5423 0.79653 0.0
C1813 C 0.94825 0.55957 0.79376 0.0
C1814 C 0.94429 0.57232 0.80625 0.0
C1815 C 0.93461 0.56765 0.82114 0.0
C1816 C 0.89167 0.59079 0.82465 0.0
C1817 C 0.90397 0.57899 0.85683 0.0
C1818 C 0.89604 0.57321 0.82722 0.0
N1819 N 0.90293 0.56769 0.84292 0.0
C1820 C 0.89944 0.59661 0.85481 0.0
C1821 C 0.89379 0.6026 0.83844 0.0
C1822 C 0.90279 0.52931 0.87972 0.0
C1823 C 0.91699 0.4685 0.83997 0.0
C1824 C 0.91856 0.47995 0.87446 0.0
C1825 C 0.91033 0.46398 0.8706 0.0
C1826 C 0.90953 0.45826 0.85321 0.0
N1827 N 0.92576 0.49001 0.86141 0.0
C1828 C 0.9251 0.4844 0.84435 0.0
Co1829 Co 0.19837 0.66625 0.09758 0.0
Co1830 Co 0.23292 0.69007 0.11533 0.0
O1831 O 0.22107 0.67859 0.09527 0.0
C1832 C 0.21709 0.64799 0.06733 0.0
O1833 O 0.22992 0.65949 0.06692 0.0
C1834 C 0.24206 0.71257 0.08337 0.0
O1835 O 0.23679 0.701 0.07182 0.0
O1836 O 0.21118 0.70451 0.1197 0.0
O1837 O 0.18975 0.68496 0.11387 0.0
H1838 H 0.23932 0.71079 0.178 0.0
H1839 H 0.21165 0.68515 0.06547 0.0
O1840 O 0.20597 0.64773 0.07997 0.0
H1841 H 0.14817 0.69633 0.06576 0.0
H1842 H 0.14846 0.62604 0.07965 0.0
H1843 H 0.17358 0.66218 0.12716 0.0
H1844 H 0.16171 0.6793 0.08932 0.0
H1845 H 0.17554 0.64298 0.07456 0.0
O1846 O 0.2416 0.70957 0.09983 0.0
H1847 H 0.22419 0.69694 0.15297 0.0
H1848 H 0.26748 0.70816 0.11966 0.0
H1849 H 0.14493 0.64878 0.13106 0.0
H1850 H 0.19905 0.7041 0.04277 0.0
H1851 H 0.13371 0.62765 0.10879 0.0
H1852 H 0.16683 0.70938 0.04236 0.0
O1853 O 0.20796 0.65192 0.11782 0.0
H1854 H 0.28014 0.65994 0.0791 0.0
H1855 H 0.25654 0.66954 0.13866 0.0
H1856 H 0.28243 0.65062 0.13468 0.0
H1857 H 0.29454 0.64576 0.10474 0.0
H1858 H 0.25419 0.67842 0.08362 0.0
H1859 H 0.28305 0.72244 0.14423 0.0
H1860 H 0.26903 0.72373 0.17371 0.0
O1861 O 0.22429 0.6718 0.13211 0.0
C1862 C 0.19495 0.69995 0.11931 0.0
C1863 C 0.24558 0.71035 0.16522 0.0
C1864 C 0.27008 0.71693 0.14626 0.0
N1865 N 0.24476 0.7018 0.13481 0.0
C1866 C 0.23703 0.70247 0.151 0.0
C1867 C 0.26111 0.70894 0.13235 0.0
C1868 C 0.26223 0.71762 0.1628 0.0
C1869 C 0.19793 0.68769 0.06588 0.0
N1870 N 0.18775 0.68027 0.07861 0.0
C1871 C 0.1907 0.69837 0.05279 0.0
C1872 C 0.17265 0.70128 0.05251 0.0
C1873 C 0.16219 0.69384 0.06553 0.0
C1874 C 0.17003 0.68374 0.07873 0.0
C1875 C 0.15396 0.634 0.09008 0.0
C1876 C 0.16811 0.65462 0.11647 0.0
C1877 C 0.16947 0.64346 0.08739 0.0
N1878 N 0.17653 0.65341 0.10066 0.0
C1879 C 0.1521 0.64632 0.11912 0.0
C1880 C 0.14553 0.63509 0.10629 0.0
C1881 C 0.21603 0.65725 0.13161 0.0
C1882 C 0.27511 0.66211 0.09225 0.0
C1883 C 0.26167 0.66763 0.12554 0.0
C1884 C 0.27638 0.65684 0.1234 0.0
C1885 C 0.28316 0.65412 0.10662 0.0
N1886 N 0.25389 0.67566 0.11141 0.0
C1887 C 0.26039 0.6728 0.09491 0.0
Co1888 Co 0.13144 0.55855 0.01627 0.0
Co1889 Co 0.15464 0.57939 0.04987 0.0
O1890 O 0.15258 0.5699 0.02595 0.0
C1891 C 0.16205 0.53532 0.00671 0.0
O1892 O 0.17353 0.54697 0.0118 0.0
C1893 C 0.17649 0.60465 0.02719 0.0
O1894 O 0.17418 0.59601 0.01244 0.0
O1895 O 0.13178 0.59293 0.04674 0.0
O1896 O 0.11669 0.57769 0.02608 0.0
H1897 H 0.13954 0.58025 0.11308 0.0
H1898 H 0.16158 0.56754 0.99159 0.0
O1899 O 0.1456 0.53841 0.00686 0.0
H1900 H 0.10964 0.59788 0.96779 0.0
H1901 H 0.09705 0.52663 0.96943 0.0
H1902 H 0.09532 0.55113 0.02929 0.0
H1903 H 0.10726 0.58013 0.99471 0.0
H1904 H 0.1232 0.54106 0.98213 0.0
O1905 O 0.16853 0.60026 0.04128 0.0
H1906 H 0.13189 0.57976 0.08183 0.0
H1907 H 0.18292 0.59893 0.06894 0.0
H1908 H 0.0687 0.53724 0.01711 0.0
H1909 H 0.16444 0.58478 0.96457 0.0
H1910 H 0.06949 0.52476 0.98691 0.0
H1911 H 0.13837 0.60021 0.95239 0.0
O1912 O 0.12774 0.54439 0.03833 0.0
H1913 H 0.2132 0.55349 0.0318 0.0
H1914 H 0.17003 0.55866 0.07968 0.0
H1915 H 0.19667 0.54108 0.08426 0.0
H1916 H 0.2186 0.53831 0.06019 0.0
H1917 H 0.18628 0.57089 0.02795 0.0
H1918 H 0.19002 0.6022 0.10009 0.0
H1919 H 0.16928 0.59115 0.1224 0.0
O1920 O 0.14145 0.55895 0.05978 0.0
C1921 C 0.11802 0.59014 0.03723 0.0
C1922 C 0.14883 0.58524 0.10355 0.0
C1923 C 0.17721 0.59734 0.0962 0.0
N1924 N 0.15705 0.5888 0.07345 0.0
C1925 C 0.1446 0.58482 0.08574 0.0
C1926 C 0.17284 0.59593 0.07848 0.0
C1927 C 0.16539 0.59131 0.10875 0.0
C1928 C 0.15008 0.5738 0.98642 0.0
N1929 N 0.13421 0.57236 0.99476 0.0
C1930 C 0.15182 0.58376 0.97107 0.0
C1931 C 0.1372 0.59244 0.96426 0.0
C1932 C 0.1211 0.59115 0.9729 0.0
C1933 C 0.11987 0.58107 0.98821 0.0
C1934 C 0.0965 0.53209 0.98256 0.0
C1935 C 0.09562 0.54612 0.01611 0.0
C1936 C 0.11128 0.54025 0.98985 0.0
N1937 N 0.11067 0.54729 0.0064 0.0
C1938 C 0.08058 0.53809 0.00928 0.0
C1939 C 0.08104 0.53106 0.99237 0.0
C1940 C 0.13202 0.54622 0.05447 0.0
C1941 C 0.2038 0.5546 0.04243 0.0
C1942 C 0.17936 0.5576 0.06906 0.0
C1943 C 0.19453 0.54761 0.0718 0.0
C1944 C 0.20681 0.54607 0.05833 0.0
N1945 N 0.17637 0.56596 0.0534 0.0
C1946 C 0.18851 0.56459 0.0403 0.0
Co1947 Co 0.17052 0.89706 0.29855 0.0
Co1948 Co 0.19028 0.87993 0.26158 0.0
O1949 O 0.17917 0.89959 0.27449 0.0
C1950 C 0.14554 0.92592 0.28383 0.0
O1951 O 0.15298 0.92695 0.26828 0.0
C1952 C 0.21549 0.90904 0.25953 0.0
O1953 O 0.21355 0.91053 0.2766 0.0
O1954 O 0.207 0.87488 0.28178 0.0
O1955 O 0.18989 0.88106 0.30487 0.0
H1956 H 0.21043 0.81757 0.25153 0.0
H1957 H 0.18028 0.93215 0.28311 0.0
O1958 O 0.15058 0.91403 0.2946 0.0
H1959 H 0.21303 0.92884 0.3387 0.0
H1960 H 0.14645 0.91603 0.35766 0.0
H1961 H 0.16069 0.86595 0.31955 0.0
H1962 H 0.19458 0.90402 0.32909 0.0
H1963 H 0.16242 0.92069 0.32997 0.0
O1964 O 0.2075 0.89676 0.25152 0.0
H1965 H 0.19663 0.8417 0.26807 0.0
H1966 H 0.2069 0.87706 0.22605 0.0
H1967 H 0.14406 0.86088 0.34649 0.0
H1968 H 0.19778 0.95742 0.29256 0.0
H1969 H 0.13548 0.88617 0.36499 0.0
H1970 H 0.21455 0.95591 0.32051 0.0
O1971 O 0.1554 0.87656 0.29054 0.0
H1972 H 0.15951 0.91831 0.21735 0.0
H1973 H 0.16755 0.85758 0.23864 0.0
H1974 H 0.14795 0.86317 0.21344 0.0
H1975 H 0.14392 0.89371 0.20254 0.0
H1976 H 0.17888 0.91215 0.24263 0.0
H1977 H 0.22106 0.85334 0.20917 0.0
H1978 H 0.22286 0.8233 0.22186 0.0
O1979 O 0.173 0.86269 0.27125 0.0
C1980 C 0.20414 0.87542 0.29837 0.0
C1981 C 0.20987 0.83064 0.24591 0.0
C1982 C 0.21585 0.85071 0.22216 0.0
N1983 N 0.20134 0.86098 0.24833 0.0
C1984 C 0.20211 0.84442 0.25527 0.0
C1985 C 0.20797 0.86416 0.2319 0.0
C1986 C 0.21683 0.83385 0.22927 0.0
C1987 C 0.18673 0.93149 0.29562 0.0
N1988 N 0.18552 0.91674 0.30586 0.0
C1989 C 0.19699 0.94582 0.30078 0.0
C1990 C 0.20647 0.94493 0.31639 0.0
C1991 C 0.20564 0.92974 0.32657 0.0
C1992 C 0.19522 0.91567 0.32098 0.0
C1993 C 0.14948 0.90496 0.34922 0.0
C1994 C 0.15744 0.87703 0.32758 0.0
C1995 C 0.15872 0.90746 0.33356 0.0
N1996 N 0.16171 0.8937 0.3224 0.0
C1997 C 0.14806 0.87404 0.34297 0.0
C1998 C 0.14346 0.88821 0.35345 0.0
C1999 C 0.15939 0.86322 0.28097 0.0
C2000 C 0.16119 0.90494 0.22195 0.0
C2001 C 0.16578 0.87093 0.23408 0.0
C2002 C 0.15469 0.874 0.21976 0.0
C2003 C 0.15243 0.89114 0.21365 0.0
N2004 N 0.17443 0.88452 0.24208 0.0
C2005 C 0.17215 0.90137 0.23625 0.0
Co2006 Co 0.87026 0.94118 0.51692 0.0
Co2007 Co 0.84824 0.91661 0.54809 0.0
O2008 O 0.84934 0.92931 0.52587 0.0
C2009 C 0.83954 0.96494 0.50992 0.0
O2010 O 0.82816 0.95293 0.51444 0.0
C2011 C 0.81971 0.89789 0.52579 0.0
O2012 O 0.82038 0.90841 0.51212 0.0
O2013 O 0.86903 0.90142 0.5403 0.0
O2014 O 0.88498 0.92119 0.5247 0.0
H2015 H 0.8684 0.88364 0.60188 0.0
H2016 H 0.83954 0.93387 0.4924 0.0
O2017 O 0.85601 0.96197 0.50947 0.0
H2018 H 0.89092 0.90542 0.46525 0.0
H2019 H 0.9043 0.97508 0.47127 0.0
H2020 H 0.90568 0.95061 0.53115 0.0
H2021 H 0.89401 0.92153 0.49312 0.0
H2022 H 0.87844 0.95974 0.48341 0.0
O2023 O 0.8306 0.89929 0.53845 0.0
H2024 H 0.87286 0.89847 0.57341 0.0
H2025 H 0.81755 0.90405 0.56815 0.0
H2026 H 0.93197 0.96546 0.51952 0.0
H2027 H 0.83598 0.91831 0.46447 0.0
H2028 H 0.93143 0.97782 0.48928 0.0
H2029 H 0.86177 0.90382 0.45061 0.0
O2030 O 0.87431 0.95309 0.54024 0.0
H2031 H 0.79211 0.9522 0.54268 0.0
H2032 H 0.84183 0.93671 0.58113 0.0
H2033 H 0.81983 0.95797 0.59146 0.0
H2034 H 0.79461 0.96586 0.57223 0.0
H2035 H 0.81472 0.93139 0.53288 0.0
H2036 H 0.81274 0.88748 0.59527 0.0
H2037 H 0.83826 0.877 0.6124 0.0
O2038 O 0.86538 0.93291 0.55938 0.0
C2039 C 0.88339 0.90645 0.53258 0.0
C2040 C 0.8573 0.88793 0.59441 0.0
C2041 C 0.826 0.89028 0.59088 0.0
N2042 N 0.84566 0.90334 0.56972 0.0
C2043 C 0.85976 0.89686 0.57859 0.0
C2044 C 0.82891 0.89968 0.57547 0.0
C2045 C 0.84034 0.88448 0.60049 0.0
C2046 C 0.85094 0.92809 0.48649 0.0
N2047 N 0.86704 0.92917 0.4944 0.0
C2048 C 0.8488 0.91906 0.47062 0.0
C2049 C 0.86325 0.9109 0.46287 0.0
C2050 C 0.87959 0.91179 0.47108 0.0
C2051 C 0.88123 0.92095 0.48692 0.0
C2052 C 0.90483 0.96949 0.48435 0.0
C2053 C 0.90552 0.95535 0.51786 0.0
C2054 C 0.89024 0.96071 0.49129 0.0
N2055 N 0.89085 0.95336 0.50771 0.0
C2056 C 0.92037 0.96404 0.51139 0.0
C2057 C 0.92003 0.97104 0.49446 0.0
C2058 C 0.87342 0.94723 0.55595 0.0
C2059 C 0.80297 0.94884 0.55125 0.0
C2060 C 0.83105 0.9401 0.57252 0.0
C2061 C 0.81854 0.95212 0.57854 0.0
C2062 C 0.8044 0.95652 0.56779 0.0
N2063 N 0.82962 0.93254 0.5562 0.0
C2064 C 0.81576 0.93685 0.54573 0.0
Co2065 Co 0.83221 0.59671 0.79834 0.0
Co2066 Co 0.81245 0.61682 0.76261 0.0
O2067 O 0.8215 0.59586 0.77503 0.0
C2068 C 0.85016 0.5655 0.78006 0.0
O2069 O 0.84055 0.56672 0.76581 0.0
C2070 C 0.7836 0.59099 0.76279 0.0
O2071 O 0.78628 0.58971 0.77976 0.0
O2072 O 0.79853 0.62443 0.78392 0.0
O2073 O 0.81599 0.61534 0.80577 0.0
H2074 H 0.79816 0.68103 0.75422 0.0
H2075 H 0.81435 0.5642 0.78447 0.0
O2076 O 0.84909 0.57693 0.79235 0.0
H2077 H 0.79059 0.57274 0.844 0.0
H2078 H 0.859 0.57168 0.85354 0.0
H2079 H 0.83967 0.62564 0.82341 0.0
H2080 H 0.81099 0.59423 0.83124 0.0
H2081 H 0.84674 0.57017 0.82364 0.0
O2082 O 0.79217 0.60244 0.75414 0.0
H2083 H 0.81025 0.65537 0.76975 0.0
H2084 H 0.79412 0.62181 0.72818 0.0
H2085 H 0.85271 0.62779 0.85263 0.0
H2086 H 0.79521 0.54141 0.79736 0.0
H2087 H 0.86261 0.60074 0.86792 0.0
H2088 H 0.7829 0.54577 0.82725 0.0
O2089 O 0.84923 0.61511 0.78947 0.0
H2090 H 0.83558 0.57326 0.71847 0.0
H2091 H 0.83331 0.63579 0.73522 0.0
H2092 H 0.85038 0.62694 0.70913 0.0
H2093 H 0.85159 0.59543 0.70058 0.0
H2094 H 0.81882 0.58277 0.74456 0.0
H2095 H 0.78156 0.64707 0.7123 0.0
H2096 H 0.78363 0.67699 0.72525 0.0
O2097 O 0.83311 0.63154 0.77079 0.0
C2098 C 0.80271 0.62354 0.80018 0.0
C2099 C 0.79716 0.66806 0.74844 0.0
C2100 C 0.78782 0.649 0.72494 0.0
N2101 N 0.8029 0.63702 0.75003 0.0
C2102 C 0.80403 0.65345 0.75721 0.0
C2103 C 0.79486 0.63471 0.73409 0.0
C2104 C 0.789 0.66578 0.73219 0.0
C2105 C 0.81008 0.56558 0.79785 0.0
N2106 N 0.81511 0.57983 0.80748 0.0
C2107 C 0.79881 0.55289 0.80496 0.0
C2108 C 0.79183 0.55537 0.8217 0.0
C2109 C 0.79615 0.57046 0.83109 0.0
C2110 C 0.80779 0.5826 0.82373 0.0
C2111 C 0.85486 0.58358 0.84693 0.0
C2112 C 0.84409 0.61376 0.82978 0.0
C2113 C 0.84819 0.58286 0.82986 0.0
N2114 N 0.84301 0.59789 0.82144 0.0
C2115 C 0.85117 0.61504 0.84658 0.0
C2116 C 0.85655 0.59984 0.85518 0.0
C2117 C 0.84686 0.62917 0.7803 0.0
C2118 C 0.83537 0.587 0.72219 0.0
C2119 C 0.83421 0.62203 0.73191 0.0
C2120 C 0.8437 0.61711 0.71696 0.0
C2121 C 0.84433 0.59944 0.71215 0.0
N2122 N 0.8257 0.60974 0.74189 0.0
C2123 C 0.82601 0.59244 0.73705 0.0
Co2124 Co 0.13056 0.44234 0.9836 0.0
Co2125 Co 0.15261 0.41628 0.9534 0.0
O2126 O 0.15078 0.42831 0.97589 0.0
C2127 C 0.16269 0.46393 0.99197 0.0
O2128 O 0.17357 0.45149 0.98729 0.0
C2129 C 0.17716 0.39266 0.97627 0.0
O2130 O 0.1773 0.40193 0.99085 0.0
O2131 O 0.12894 0.40377 0.95829 0.0
O2132 O 0.11428 0.42361 0.97511 0.0
H2133 H 0.13581 0.40521 0.89174 0.0
H2134 H 0.15948 0.43255 0.00902 0.0
O2135 O 0.14613 0.46166 0.99205 0.0
H2136 H 0.10524 0.40737 0.03386 0.0
H2137 H 0.09772 0.47686 0.02976 0.0
H2138 H 0.09897 0.46103 0.96716 0.0
H2139 H 0.10432 0.42417 0.00621 0.0
H2140 H 0.12174 0.4588 0.01803 0.0
O2141 O 0.1666 0.39623 0.96368 0.0
H2142 H 0.12885 0.40631 0.92317 0.0
H2143 H 0.18277 0.39927 0.93547 0.0
H2144 H 0.07455 0.47851 0.97841 0.0
H2145 H 0.1609 0.41629 0.03682 0.0
H2146 H 0.07362 0.48662 0.01001 0.0
H2147 H 0.13365 0.40347 0.04949 0.0
O2148 O 0.12879 0.45476 0.95991 0.0
H2149 H 0.21347 0.44139 0.96573 0.0
H2150 H 0.16485 0.43824 0.92313 0.0
H2151 H 0.19079 0.456 0.91624 0.0
H2152 H 0.21559 0.4575 0.93743 0.0
H2153 H 0.1869 0.42482 0.97259 0.0
H2154 H 0.19007 0.39699 0.90419 0.0
H2155 H 0.16686 0.40306 0.8821 0.0
O2156 O 0.13923 0.43475 0.94115 0.0
C2157 C 0.11472 0.40945 0.96604 0.0
C2158 C 0.14606 0.4035 0.90124 0.0
C2159 C 0.17655 0.39893 0.90823 0.0
N2160 N 0.15548 0.40432 0.93108 0.0
C2161 C 0.1422 0.40426 0.9191 0.0
C2162 C 0.17219 0.39984 0.92599 0.0
C2163 C 0.16348 0.40195 0.89584 0.0
C2164 C 0.14749 0.42748 0.01449 0.0
N2165 N 0.13178 0.42988 0.00607 0.0
C2166 C 0.1484 0.41807 0.03024 0.0
C2167 C 0.13313 0.41083 0.03732 0.0
C2168 C 0.1172 0.41301 0.02856 0.0
C2169 C 0.11679 0.42252 0.01285 0.0
C2170 C 0.09757 0.47284 0.0161 0.0
C2171 C 0.09827 0.46318 0.98108 0.0
C2172 C 0.11104 0.4623 0.00937 0.0
N2173 N 0.11091 0.45678 0.99219 0.0
C2174 C 0.08455 0.4737 0.98733 0.0
C2175 C 0.0841 0.47836 0.00502 0.0
C2176 C 0.13156 0.44915 0.94425 0.0
C2177 C 0.20288 0.44064 0.95625 0.0
C2178 C 0.17528 0.43893 0.93274 0.0
C2179 C 0.19011 0.44896 0.9286 0.0
C2180 C 0.20402 0.44976 0.94044 0.0
N2181 N 0.17416 0.42983 0.9483 0.0
C2182 C 0.18778 0.43084 0.95997 0.0
Co2183 Co 0.33253 0.90378 0.2012 0.0
Co2184 Co 0.31056 0.88255 0.23533 0.0
O2185 O 0.32078 0.9035 0.22398 0.0
C2186 C 0.35545 0.92834 0.22364 0.0
O2187 O 0.34601 0.92718 0.23802 0.0
C2188 C 0.28331 0.91124 0.23636 0.0
O2189 O 0.29373 0.92227 0.22837 0.0
O2190 O 0.30009 0.87373 0.21232 0.0
O2191 O 0.3142 0.88817 0.19087 0.0
H2192 H 0.30161 0.81758 0.24568 0.0
H2193 H 0.32197 0.93777 0.21807 0.0
O2194 O 0.3517 0.91958 0.20992 0.0
H2195 H 0.29618 0.93959 0.15879 0.0
H2196 H 0.35742 0.93475 0.14911 0.0
H2197 H 0.34052 0.87702 0.17362 0.0
H2198 H 0.313 0.91378 0.16861 0.0
H2199 H 0.35028 0.93169 0.18037 0.0
O2200 O 0.28795 0.8955 0.23974 0.0
H2201 H 0.31428 0.84353 0.23117 0.0
H2202 H 0.28584 0.87723 0.26552 0.0
H2203 H 0.34833 0.87957 0.14223 0.0
H2204 H 0.30585 0.96416 0.20865 0.0
H2205 H 0.35491 0.90907 0.12958 0.0
H2206 H 0.29262 0.96517 0.17881 0.0
O2207 O 0.3467 0.88284 0.20851 0.0
H2208 H 0.32753 0.92804 0.28077 0.0
H2209 H 0.32704 0.86494 0.26648 0.0
H2210 H 0.34031 0.87477 0.2942 0.0
H2211 H 0.34063 0.90657 0.3016 0.0
H2212 H 0.3148 0.9177 0.25303 0.0
H2213 H 0.27275 0.85161 0.28026 0.0
H2214 H 0.28061 0.82148 0.27042 0.0
O2215 O 0.33299 0.86924 0.23093 0.0
C2216 C 0.30275 0.87711 0.196 0.0
C2217 C 0.29789 0.83065 0.24995 0.0
C2218 C 0.28168 0.84973 0.26933 0.0
N2219 N 0.30037 0.86202 0.24693 0.0
C2220 C 0.30493 0.84545 0.24165 0.0
C2221 C 0.289 0.86423 0.26073 0.0
C2222 C 0.28613 0.83283 0.26383 0.0
C2223 C 0.31673 0.93823 0.20498 0.0
N2224 N 0.31858 0.92416 0.19401 0.0
C2225 C 0.30736 0.95315 0.19975 0.0
C2226 C 0.2999 0.95369 0.18305 0.0
C2227 C 0.30184 0.93934 0.17185 0.0
C2228 C 0.31126 0.92466 0.17758 0.0
C2229 C 0.35377 0.92204 0.15439 0.0
C2230 C 0.34444 0.88963 0.16832 0.0
C2231 C 0.35011 0.92007 0.17219 0.0
N2232 N 0.34433 0.90427 0.17867 0.0
C2233 C 0.34847 0.89105 0.1505 0.0
C2234 C 0.3523 0.90754 0.14341 0.0
C2235 C 0.34597 0.87076 0.22033 0.0
C2236 C 0.32751 0.91414 0.2777 0.0
C2237 C 0.32732 0.8788 0.26931 0.0
C2238 C 0.33474 0.88429 0.28519 0.0
C2239 C 0.33488 0.90211 0.28936 0.0
N2240 N 0.32022 0.89065 0.25777 0.0
C2241 C 0.32019 0.90815 0.26194 0.0
Co2242 Co 0.86671 0.06082 0.48456 0.0
Co2243 Co 0.84439 0.07844 0.44865 0.0
O2244 O 0.84556 0.07003 0.47304 0.0
C2245 C 0.83698 0.03649 0.49412 0.0
O2246 O 0.82494 0.04738 0.48856 0.0
C2247 C 0.81885 0.10273 0.46882 0.0
O2248 O 0.82036 0.09478 0.48405 0.0
O2249 O 0.86578 0.09391 0.45256 0.0
O2250 O 0.88073 0.08009 0.47423 0.0
H2251 H 0.86443 0.08885 0.38627 0.0
H2252 H 0.83482 0.07006 0.507 0.0
O2253 O 0.8532 0.04057 0.49448 0.0
H2254 H 0.88427 0.10358 0.53178 0.0
H2255 H 0.89965 0.03145 0.53408 0.0
H2256 H 0.90496 0.05873 0.47564 0.0
H2257 H 0.88871 0.0847 0.50594 0.0
H2258 H 0.87358 0.04358 0.51919 0.0
O2259 O 0.82822 0.09831 0.45562 0.0
H2260 H 0.869 0.0818 0.41775 0.0
H2261 H 0.81512 0.09326 0.42789 0.0
H2262 H 0.93146 0.0473 0.49021 0.0
H2263 H 0.8299 0.08851 0.53288 0.0
H2264 H 0.9289 0.03331 0.51963 0.0
H2265 H 0.85473 0.10551 0.54558 0.0
O2266 O 0.8723 0.04557 0.46368 0.0
H2267 H 0.7865 0.04884 0.46293 0.0
H2268 H 0.83347 0.05538 0.41887 0.0
H2269 H 0.80847 0.03591 0.4126 0.0
H2270 H 0.78462 0.03253 0.4347 0.0
H2271 H 0.8119 0.06802 0.46855 0.0
H2272 H 0.81048 0.10128 0.39723 0.0
H2273 H 0.83462 0.0987 0.37624 0.0
O2274 O 0.8602 0.05897 0.44039 0.0
C2275 C 0.87929 0.092 0.46257 0.0
C2276 C 0.85368 0.09004 0.39549 0.0
C2277 C 0.82335 0.09702 0.40159 0.0
N2278 N 0.84243 0.08715 0.42475 0.0
C2279 C 0.85621 0.08613 0.41329 0.0
C2280 C 0.82627 0.09287 0.41911 0.0
C2281 C 0.83706 0.09536 0.38973 0.0
C2282 C 0.8458 0.07701 0.51239 0.0
N2283 N 0.86212 0.07575 0.50498 0.0
C2284 C 0.84289 0.08765 0.52709 0.0
C2285 C 0.8568 0.09722 0.53419 0.0
C2286 C 0.87336 0.09615 0.52646 0.0
C2287 C 0.87576 0.08538 0.51178 0.0
C2288 C 0.90093 0.03739 0.5212 0.0
C2289 C 0.90371 0.05288 0.48842 0.0
C2290 C 0.88615 0.04413 0.51259 0.0
N2291 N 0.88761 0.05161 0.49628 0.0
C2292 C 0.91879 0.04633 0.49663 0.0
C2293 C 0.91734 0.03848 0.51312 0.0
C2294 C 0.86968 0.04684 0.44712 0.0
C2295 C 0.79675 0.05021 0.45314 0.0
C2296 C 0.82329 0.05397 0.42867 0.0
C2297 C 0.80908 0.04293 0.42497 0.0
C2298 C 0.79571 0.04105 0.43734 0.0
N2299 N 0.82428 0.063 0.44421 0.0
C2300 C 0.8112 0.06115 0.45631 0.0
Co2301 Co 0.66974 0.59618 0.69785 0.0
Co2302 Co 0.69121 0.61628 0.73262 0.0
O2303 O 0.68058 0.59551 0.72125 0.0
C2304 C 0.64836 0.56854 0.71789 0.0
O2305 O 0.65818 0.56919 0.73205 0.0
C2306 C 0.71478 0.58544 0.74121 0.0
O2307 O 0.70404 0.57397 0.73429 0.0
O2308 O 0.70619 0.62074 0.71121 0.0
O2309 O 0.68865 0.61207 0.68911 0.0
H2310 H 0.70903 0.67994 0.73797 0.0
H2311 H 0.68346 0.56277 0.71383 0.0
O2312 O 0.65061 0.57925 0.70515 0.0
H2313 H 0.70676 0.56339 0.6536 0.0
H2314 H 0.64206 0.57016 0.64404 0.0
H2315 H 0.66268 0.62474 0.67241 0.0
H2316 H 0.68868 0.5878 0.66444 0.0
H2317 H 0.6528 0.56972 0.6745 0.0
O2318 O 0.71098 0.6017 0.74211 0.0
H2319 H 0.69636 0.65408 0.72308 0.0
H2320 H 0.70838 0.62214 0.76732 0.0
H2321 H 0.65166 0.62578 0.642 0.0
H2322 H 0.70226 0.53841 0.70395 0.0
H2323 H 0.64195 0.5979 0.62769 0.0
H2324 H 0.71389 0.53845 0.67343 0.0
O2325 O 0.65478 0.6169 0.70505 0.0
H2326 H 0.66299 0.57959 0.78041 0.0
H2327 H 0.66845 0.63894 0.75494 0.0
H2328 H 0.64921 0.63431 0.78056 0.0
H2329 H 0.6464 0.60447 0.79354 0.0
H2330 H 0.68184 0.58473 0.75475 0.0
H2331 H 0.72133 0.6476 0.78258 0.0
H2332 H 0.72164 0.6768 0.76794 0.0
O2333 O 0.67261 0.63211 0.72299 0.0
C2334 C 0.70285 0.61889 0.6948 0.0
C2335 C 0.70904 0.66726 0.74445 0.0
C2336 C 0.71598 0.64912 0.76947 0.0
N2337 N 0.70183 0.63651 0.74416 0.0
C2338 C 0.70188 0.65255 0.73607 0.0
C2339 C 0.70874 0.63471 0.76068 0.0
C2340 C 0.71612 0.6655 0.76127 0.0
C2341 C 0.68851 0.56302 0.70074 0.0
N2342 N 0.68451 0.57665 0.68986 0.0
C2343 C 0.69918 0.54914 0.69512 0.0
C2344 C 0.7057 0.54915 0.67802 0.0
C2345 C 0.70167 0.56309 0.6669 0.0
C2346 C 0.69125 0.57687 0.67314 0.0
C2347 C 0.64661 0.58216 0.65021 0.0
C2348 C 0.65808 0.6128 0.66626 0.0
C2349 C 0.6524 0.58209 0.66751 0.0
N2350 N 0.65869 0.59717 0.67506 0.0
C2351 C 0.65201 0.61343 0.64902 0.0
C2352 C 0.6467 0.59787 0.64093 0.0
C2353 C 0.65894 0.6309 0.71345 0.0
C2354 C 0.66418 0.59269 0.77494 0.0
C2355 C 0.66736 0.62588 0.76045 0.0
C2356 C 0.65642 0.62336 0.77501 0.0
C2357 C 0.65485 0.60663 0.78229 0.0
N2358 N 0.67658 0.61215 0.75332 0.0
C2359 C 0.675 0.59571 0.76039 0.0
Co2360 Co 0.54598 0.6516 0.58556 0.0
Co2361 Co 0.51443 0.63106 0.55984 0.0
O2362 O 0.52388 0.65078 0.57301 0.0
C2363 C 0.5234 0.67858 0.60482 0.0
O2364 O 0.51033 0.67798 0.59362 0.0
C2365 C 0.51606 0.65921 0.53229 0.0
O2366 O 0.53319 0.65979 0.53415 0.0
O2367 O 0.53825 0.62622 0.548 0.0
O2368 O 0.55761 0.63712 0.56761 0.0
H2369 H 0.49886 0.56717 0.54649 0.0
H2370 H 0.52692 0.68199 0.56769 0.0
O2371 O 0.53568 0.66712 0.60455 0.0
H2372 H 0.58875 0.68764 0.54987 0.0
H2373 H 0.59566 0.68438 0.61409 0.0
H2374 H 0.57266 0.62584 0.5997 0.0
H2375 H 0.57946 0.66331 0.56886 0.0
H2376 H 0.56569 0.68093 0.60246 0.0
O2377 O 0.50724 0.64827 0.54137 0.0
H2378 H 0.51116 0.59089 0.56368 0.0
H2379 H 0.49117 0.62821 0.52696 0.0
H2380 H 0.60343 0.62878 0.60892 0.0
H2381 H 0.53563 0.70647 0.54889 0.0
H2382 H 0.61504 0.65816 0.61635 0.0
H2383 H 0.56683 0.70968 0.53987 0.0
O2384 O 0.53934 0.62873 0.59842 0.0
H2385 H 0.46513 0.66829 0.58361 0.0
H2386 H 0.48849 0.60807 0.57887 0.0
H2387 H 0.46073 0.61311 0.59459 0.0
H2388 H 0.44878 0.64341 0.59706 0.0
H2389 H 0.49298 0.6626 0.56806 0.0
H2390 H 0.47821 0.60476 0.51006 0.0
H2391 H 0.48198 0.57376 0.51938 0.0
O2392 O 0.52162 0.61482 0.57888 0.0
C2393 C 0.5541 0.6285 0.55376 0.0
C2394 C 0.49758 0.5806 0.54193 0.0
C2395 C 0.48597 0.60165 0.52158 0.0
N2396 N 0.50372 0.61155 0.54611 0.0
C2397 C 0.50514 0.59437 0.55148 0.0
C2398 C 0.49378 0.61509 0.5314 0.0
C2399 C 0.48804 0.58428 0.52682 0.0
C2400 C 0.54064 0.68363 0.56494 0.0
N2401 N 0.55287 0.67208 0.57132 0.0
C2402 C 0.54547 0.6974 0.55375 0.0
C2403 C 0.56293 0.69912 0.54859 0.0
C2404 C 0.57522 0.68682 0.55424 0.0
C2405 C 0.56986 0.67317 0.5653 0.0
C2406 C 0.59086 0.67147 0.61049 0.0
C2407 C 0.57792 0.63866 0.60175 0.0
C2408 C 0.5738 0.66936 0.6041 0.0
N2409 N 0.56792 0.65319 0.59871 0.0
C2410 C 0.59519 0.64026 0.60766 0.0
C2411 C 0.60172 0.65682 0.6118 0.0
C2412 C 0.53112 0.61486 0.59268 0.0
C2413 C 0.47004 0.65498 0.58238 0.0
C2414 C 0.4833 0.62124 0.57944 0.0
C2415 C 0.46758 0.62404 0.58855 0.0
C2416 C 0.4609 0.64103 0.58996 0.0
N2417 N 0.49208 0.63495 0.57176 0.0
C2418 C 0.48571 0.65166 0.57338 0.0
Co2419 Co 0.047 0.34967 0.91596 0.0
Co2420 Co 0.01152 0.36719 0.93811 0.0
O2421 O 0.02418 0.34699 0.9274 0.0
C2422 C 0.03084 0.31792 0.89682 0.0
O2423 O 0.01658 0.31789 0.90652 0.0
C2424 C 0.0127 0.33999 0.96586 0.0
O2425 O 0.02974 0.33911 0.96341 0.0
O2426 O 0.03309 0.37445 0.95218 0.0
O2427 O 0.05401 0.36786 0.93289 0.0
H2428 H 0.00206 0.43028 0.95616 0.0
H2429 H 0.03494 0.31632 0.93305 0.0
O2430 O 0.0423 0.33019 0.89823 0.0
H2431 H 0.09467 0.32604 0.9558 0.0
H2432 H 0.10756 0.33238 0.89656 0.0
H2433 H 0.06674 0.3813 0.90772 0.0
H2434 H 0.08091 0.34764 0.93622 0.0
H2435 H 0.0758 0.32663 0.90069 0.0
O2436 O 0.00389 0.35145 0.95751 0.0
H2437 H 0.01763 0.40576 0.94199 0.0
H2438 H 0.9777 0.37026 0.95812 0.0
H2439 H 0.09815 0.38735 0.90509 0.0
H2440 H 0.04847 0.29391 0.95203 0.0
H2441 H 0.11856 0.36352 0.89981 0.0
H2442 H 0.07859 0.29872 0.96367 0.0
O2443 O 0.03614 0.36791 0.90008 0.0
H2444 H 0.96918 0.3237 0.91164 0.0
H2445 H 0.98185 0.38652 0.92063 0.0
H2446 H 0.95611 0.37793 0.90304 0.0
H2447 H 0.94961 0.34625 0.89838 0.0
H2448 H 0.99493 0.33298 0.92896 0.0
H2449 H 0.9618 0.39435 0.97275 0.0
H2450 H 0.9739 0.42468 0.97176 0.0
O2451 O 0.01854 0.3834 0.91808 0.0
C2452 C 0.04919 0.37439 0.94727 0.0
C2453 C 0.99667 0.41712 0.95673 0.0
C2454 C 0.97411 0.39695 0.96607 0.0
N2455 N 0.99879 0.38647 0.94926 0.0
C2456 C 0.00548 0.40314 0.9487 0.0
C2457 C 0.98328 0.38331 0.95787 0.0
C2458 C 0.98088 0.41397 0.96549 0.0
C2459 C 0.04835 0.31804 0.93713 0.0
N2460 N 0.05754 0.33259 0.93208 0.0
C2461 C 0.05583 0.30551 0.9483 0.0
C2462 C 0.07268 0.30824 0.9549 0.0
C2463 C 0.08172 0.32352 0.95045 0.0
C2464 C 0.07383 0.33568 0.93918 0.0
C2465 C 0.09858 0.34319 0.89886 0.0
C2466 C 0.0755 0.37054 0.90477 0.0
C2467 C 0.08056 0.34003 0.90075 0.0
N2468 N 0.0695 0.35361 0.90478 0.0
C2469 C 0.09329 0.37412 0.90326 0.0
C2470 C 0.10486 0.3604 0.90048 0.0
C2471 C 0.02672 0.38158 0.90343 0.0
C2472 C 0.97205 0.33755 0.91327 0.0
C2473 C 0.97955 0.37278 0.91815 0.0
C2474 C 0.96474 0.36795 0.90842 0.0
C2475 C 0.96106 0.3502 0.90587 0.0
N2476 N 0.99058 0.36034 0.92498 0.0
C2477 C 0.98675 0.3429 0.92293 0.0
Co2478 Co 0.38128 0.76908 0.18963 0.0
Co2479 Co 0.40431 0.79933 0.16441 0.0
O2480 O 0.40267 0.77715 0.1775 0.0
C2481 C 0.41132 0.76081 0.21439 0.0
O2482 O 0.42345 0.76476 0.20287 0.0
C2483 C 0.4315 0.77607 0.14515 0.0
O2484 O 0.43014 0.76244 0.15565 0.0
O2485 O 0.38273 0.79237 0.14984 0.0
O2486 O 0.36667 0.77704 0.16968 0.0
H2487 H 0.38258 0.85567 0.13832 0.0
H2488 H 0.41126 0.74399 0.18228 0.0
O2489 O 0.39504 0.7612 0.21058 0.0
H2490 H 0.35891 0.71705 0.15537 0.0
H2491 H 0.34586 0.7259 0.22532 0.0
H2492 H 0.34555 0.78382 0.19637 0.0
H2493 H 0.35664 0.74544 0.17073 0.0
H2494 H 0.37219 0.73672 0.20979 0.0
O2495 O 0.42113 0.78919 0.1465 0.0
H2496 H 0.37948 0.82471 0.14695 0.0
H2497 H 0.43482 0.81962 0.15046 0.0
H2498 H 0.3188 0.77347 0.21144 0.0
H2499 H 0.41405 0.71555 0.16734 0.0
H2500 H 0.31883 0.74426 0.22608 0.0
H2501 H 0.38775 0.70179 0.15371 0.0
O2502 O 0.37805 0.79274 0.20136 0.0
H2503 H 0.46076 0.79103 0.1988 0.0
H2504 H 0.41315 0.8323 0.1839 0.0
H2505 H 0.43668 0.84177 0.20388 0.0
H2506 H 0.46091 0.82117 0.21133 0.0
H2507 H 0.43665 0.78206 0.17932 0.0
H2508 H 0.43872 0.84971 0.13931 0.0
H2509 H 0.41262 0.8684 0.13411 0.0
O2510 O 0.38852 0.81134 0.18128 0.0
C2511 C 0.36827 0.78503 0.15505 0.0
C2512 C 0.39416 0.84791 0.14082 0.0
C2513 C 0.42562 0.84456 0.14153 0.0
N2514 N 0.40677 0.82109 0.15122 0.0
C2515 C 0.39238 0.8305 0.14631 0.0
C2516 C 0.42328 0.82745 0.14769 0.0
C2517 C 0.41093 0.85503 0.13862 0.0
C2518 C 0.39967 0.73811 0.17679 0.0
N2519 N 0.38373 0.74631 0.17798 0.0
C2520 C 0.40136 0.72197 0.16815 0.0
C2521 C 0.38662 0.71427 0.16047 0.0
C2522 C 0.37045 0.72282 0.1614 0.0
C2523 C 0.36927 0.73893 0.17016 0.0
C2524 C 0.34563 0.73861 0.21889 0.0
C2525 C 0.34559 0.77105 0.20241 0.0
C2526 C 0.36052 0.74483 0.2101 0.0
N2527 N 0.36031 0.7608 0.20179 0.0
C2528 C 0.33044 0.76528 0.21107 0.0
C2529 C 0.33047 0.74891 0.21932 0.0
C2530 C 0.38052 0.8084 0.19566 0.0
C2531 C 0.45047 0.80026 0.19541 0.0
C2532 C 0.42358 0.82314 0.18699 0.0
C2533 C 0.43692 0.82865 0.19834 0.0
C2534 C 0.45051 0.81712 0.2025 0.0
N2535 N 0.42378 0.80663 0.17968 0.0
C2536 C 0.43687 0.79524 0.18411 0.0
Co2537 Co 0.94744 0.15148 0.417 0.0
Co2538 Co 0.98229 0.13006 0.43801 0.0
O2539 O 0.97108 0.15102 0.42761 0.0
C2540 C 0.96917 0.17692 0.39431 0.0
O2541 O 0.98376 0.17443 0.40317 0.0
C2542 C 0.98942 0.15985 0.46331 0.0
O2543 O 0.98146 0.17127 0.45329 0.0
O2544 O 0.96022 0.12379 0.45152 0.0
O2545 O 0.93837 0.1359 0.4358 0.0
H2546 H 0.98845 0.06523 0.45066 0.0
H2547 H 0.96565 0.18429 0.42847 0.0
O2548 O 0.95533 0.16795 0.39758 0.0
H2549 H 0.90762 0.18673 0.45678 0.0
H2550 H 0.8944 0.18311 0.39433 0.0
H2551 H 0.91807 0.12553 0.41242 0.0
H2552 H 0.91593 0.16147 0.43841 0.0
H2553 H 0.9259 0.17951 0.40011 0.0
O2554 O 0.99063 0.14371 0.45904 0.0
H2555 H 0.97418 0.09155 0.43844 0.0
H2556 H 0.01553 0.12367 0.45803 0.0
H2557 H 0.88629 0.12875 0.40734 0.0
H2558 H 0.95799 0.21002 0.44655 0.0
H2559 H 0.8742 0.15817 0.39907 0.0
H2560 H 0.92867 0.21138 0.46089 0.0
O2561 O 0.95324 0.12994 0.40212 0.0
H2562 H 0.031 0.16921 0.41523 0.0
H2563 H 0.00658 0.10917 0.41561 0.0
H2564 H 0.03369 0.11523 0.39899 0.0
H2565 H 0.04621 0.14541 0.39883 0.0
H2566 H 0.00379 0.16267 0.43131 0.0
H2567 H 0.03007 0.09769 0.47071 0.0
H2568 H 0.01656 0.06817 0.46706 0.0
O2569 O 0.97406 0.11583 0.41793 0.0
C2570 C 0.94387 0.12659 0.44853 0.0
C2571 C 0.99438 0.07804 0.4525 0.0
C2572 C 0.01771 0.09626 0.46378 0.0
N2573 N 0.99364 0.10932 0.44794 0.0
C2574 C 0.98632 0.09306 0.44564 0.0
C2575 C 0.00928 0.11098 0.45672 0.0
C2576 C 0.01015 0.0797 0.46169 0.0
C2577 C 0.95284 0.18499 0.43424 0.0
N2578 N 0.94126 0.17155 0.43185 0.0
C2579 C 0.94858 0.19949 0.44469 0.0
C2580 C 0.93218 0.20022 0.45279 0.0
C2581 C 0.92039 0.18641 0.45049 0.0
C2582 C 0.92522 0.17209 0.44004 0.0
C2583 C 0.89951 0.1704 0.39819 0.0
C2584 C 0.91303 0.1381 0.40824 0.0
C2585 C 0.91747 0.16812 0.40109 0.0
N2586 N 0.92395 0.1523 0.40681 0.0
C2587 C 0.89495 0.1399 0.40549 0.0
C2588 C 0.88816 0.1563 0.40083 0.0
C2589 C 0.96355 0.11678 0.405 0.0
C2590 C 0.02579 0.15596 0.41534 0.0
C2591 C 0.01188 0.12236 0.41566 0.0
C2592 C 0.02727 0.1257 0.40619 0.0
C2593 C 0.03429 0.14262 0.40611 0.0
N2594 N 0.00369 0.13546 0.42492 0.0
C2595 C 0.0104 0.15213 0.42464 0.0
Co2596 Co 0.11758 0.23425 0.688 0.0
Co2597 Co 0.0938 0.20121 0.66766 0.0
O2598 O 0.09553 0.22459 0.67836 0.0
C2599 C 0.08833 0.24656 0.71188 0.0
O2600 O 0.0762 0.24409 0.69994 0.0
C2601 C 0.06252 0.22035 0.64897 0.0
O2602 O 0.06169 0.23443 0.65891 0.0
O2603 O 0.11276 0.20828 0.6504 0.0
O2604 O 0.13085 0.22501 0.66713 0.0
H2605 H 0.11521 0.14204 0.64753 0.0
H2606 H 0.08611 0.25431 0.67289 0.0
O2607 O 0.10453 0.24341 0.70893 0.0
H2608 H 0.13795 0.28943 0.65699 0.0
H2609 H 0.15375 0.27679 0.72409 0.0
H2610 H 0.15504 0.22233 0.68914 0.0
H2611 H 0.14155 0.26127 0.67197 0.0
H2612 H 0.12702 0.26614 0.70933 0.0
O2613 O 0.07468 0.20895 0.65083 0.0
H2614 H 0.11877 0.17192 0.65881 0.0
H2615 H 0.0636 0.18015 0.65499 0.0
H2616 H 0.18216 0.23267 0.70329 0.0
H2617 H 0.08203 0.28232 0.65794 0.0
H2618 H 0.18166 0.26007 0.72108 0.0
H2619 H 0.10802 0.3004 0.64995 0.0
O2620 O 0.12224 0.2119 0.70154 0.0
H2621 H 0.04045 0.20803 0.70705 0.0
H2622 H 0.0891 0.16912 0.68953 0.0
H2623 H 0.0681 0.15913 0.71184 0.0
H2624 H 0.0433 0.1785 0.72061 0.0
H2625 H 0.06247 0.21791 0.68554 0.0
H2626 H 0.05948 0.15064 0.64313 0.0
H2627 H 0.08488 0.1312 0.63955 0.0
O2628 O 0.11228 0.1915 0.68305 0.0
C2629 C 0.1275 0.21631 0.65305 0.0
C2630 C 0.10378 0.15035 0.64889 0.0
C2631 C 0.07256 0.15526 0.64636 0.0
N2632 N 0.09158 0.17823 0.65683 0.0
C2633 C 0.10582 0.16748 0.65506 0.0
C2634 C 0.0751 0.17221 0.65264 0.0
C2635 C 0.08698 0.14427 0.64454 0.0
C2636 C 0.09756 0.26204 0.67028 0.0
N2637 N 0.114 0.25635 0.67494 0.0
C2638 C 0.09514 0.27796 0.6614 0.0
C2639 C 0.1097 0.28806 0.65685 0.0
C2640 C 0.12646 0.28194 0.66085 0.0
C2641 C 0.12836 0.26595 0.66968 0.0
C2642 C 0.15413 0.26478 0.71644 0.0
C2643 C 0.15462 0.23424 0.69668 0.0
C2644 C 0.13894 0.25855 0.70818 0.0
N2645 N 0.13926 0.24341 0.69842 0.0
C2646 C 0.17008 0.24007 0.70474 0.0
C2647 C 0.16979 0.25542 0.71473 0.0
C2648 C 0.12066 0.19593 0.69665 0.0
C2649 C 0.05109 0.19939 0.70321 0.0
C2650 C 0.07844 0.17778 0.69317 0.0
C2651 C 0.06655 0.17197 0.7059 0.0
C2652 C 0.05268 0.18283 0.71083 0.0
N2653 N 0.07663 0.19396 0.6854 0.0
C2654 C 0.06349 0.20489 0.69078 0.0
Co2655 Co 0.44921 0.35051 0.57808 0.0
Co2656 Co 0.48413 0.36985 0.55641 0.0
O2657 O 0.47297 0.35012 0.56863 0.0
C2658 C 0.46876 0.33143 0.60861 0.0
O2659 O 0.48532 0.3339 0.60438 0.0
C2660 C 0.48289 0.34173 0.53015 0.0
O2661 O 0.46746 0.33744 0.53653 0.0
O2662 O 0.46216 0.37536 0.54231 0.0
O2663 O 0.44017 0.3629 0.55731 0.0
H2664 H 0.49073 0.43213 0.53491 0.0
H2665 H 0.46916 0.31705 0.57446 0.0
O2666 O 0.45638 0.33751 0.59922 0.0
H2667 H 0.41419 0.30766 0.54139 0.0
H2668 H 0.39488 0.32375 0.60488 0.0
H2669 H 0.42208 0.37817 0.58261 0.0
H2670 H 0.41962 0.33569 0.55674 0.0
H2671 H 0.42536 0.32348 0.59376 0.0
O2672 O 0.492 0.35384 0.53721 0.0
H2673 H 0.47549 0.40729 0.54905 0.0
H2674 H 0.51854 0.37364 0.53801 0.0
H2675 H 0.39241 0.37922 0.59572 0.0
H2676 H 0.46411 0.28866 0.55972 0.0
H2677 H 0.37959 0.35183 0.60859 0.0
H2678 H 0.4365 0.28384 0.54291 0.0
O2679 O 0.45413 0.37366 0.59037 0.0
H2680 H 0.53089 0.33055 0.58178 0.0
H2681 H 0.50886 0.39143 0.57797 0.0
H2682 H 0.53519 0.38507 0.59583 0.0
H2683 H 0.54642 0.35445 0.59775 0.0
H2684 H 0.50443 0.33748 0.56432 0.0
H2685 H 0.53425 0.398 0.52346 0.0
H2686 H 0.52041 0.42756 0.52196 0.0
O2687 O 0.47624 0.38631 0.5751 0.0
C2688 C 0.44584 0.37168 0.54437 0.0
C2689 C 0.49694 0.41934 0.5355 0.0
C2690 C 0.52133 0.40017 0.52905 0.0
N2691 N 0.49606 0.38907 0.54447 0.0
C2692 C 0.48835 0.40525 0.54358 0.0
C2693 C 0.51232 0.3864 0.53724 0.0
C2694 C 0.51357 0.41675 0.52823 0.0
C2695 C 0.45704 0.31505 0.56733 0.0
N2696 N 0.44477 0.32817 0.56632 0.0
C2697 C 0.45429 0.29894 0.55893 0.0
C2698 C 0.43882 0.29626 0.54948 0.0
C2699 C 0.42632 0.30962 0.54858 0.0
C2700 C 0.42955 0.32556 0.55712 0.0
C2701 C 0.40107 0.33581 0.60059 0.0
C2702 C 0.41638 0.36627 0.58792 0.0
C2703 C 0.41815 0.33574 0.59396 0.0
N2704 N 0.42557 0.35084 0.58762 0.0
C2705 C 0.39958 0.36694 0.59529 0.0
C2706 C 0.39216 0.35163 0.60209 0.0
C2707 C 0.46484 0.38638 0.58739 0.0
C2708 C 0.52619 0.34396 0.58096 0.0
C2709 C 0.51364 0.37807 0.57876 0.0
C2710 C 0.52858 0.37455 0.58887 0.0
C2711 C 0.53487 0.35737 0.58995 0.0
N2712 N 0.50524 0.36485 0.56991 0.0
C2713 C 0.51128 0.34797 0.57099 0.0
Co2714 Co 0.37866 0.73464 0.31192 0.0
Co2715 Co 0.40307 0.70125 0.3316 0.0
O2716 O 0.40072 0.72436 0.3207 0.0
C2717 C 0.40693 0.74706 0.28689 0.0
O2718 O 0.41835 0.74924 0.29954 0.0
C2719 C 0.43587 0.71892 0.3471 0.0
O2720 O 0.43797 0.73049 0.33453 0.0
O2721 O 0.38362 0.70801 0.34867 0.0
O2722 O 0.36616 0.72683 0.33355 0.0
H2723 H 0.38209 0.64112 0.3496 0.0
H2724 H 0.41117 0.75157 0.32942 0.0
O2725 O 0.39131 0.74174 0.28988 0.0
H2726 H 0.36276 0.79272 0.34059 0.0
H2727 H 0.34361 0.77574 0.27312 0.0
H2728 H 0.33962 0.72858 0.31721 0.0
H2729 H 0.35697 0.76494 0.32605 0.0
H2730 H 0.37031 0.76413 0.28683 0.0
O2731 O 0.42167 0.71002 0.34862 0.0
H2732 H 0.3786 0.67095 0.3385 0.0
H2733 H 0.43284 0.68098 0.34741 0.0
H2734 H 0.31269 0.73987 0.30377 0.0
H2735 H 0.41731 0.77923 0.34396 0.0
H2736 H 0.31445 0.76361 0.28143 0.0
H2737 H 0.39316 0.80043 0.34955 0.0
O2738 O 0.37204 0.71186 0.29971 0.0
H2739 H 0.44862 0.71192 0.28386 0.0
H2740 H 0.413 0.66719 0.31387 0.0
H2741 H 0.43353 0.65814 0.29103 0.0
H2742 H 0.45166 0.68049 0.27565 0.0
H2743 H 0.42856 0.7203 0.30727 0.0
H2744 H 0.43681 0.65147 0.35932 0.0
H2745 H 0.41175 0.63104 0.36022 0.0
O2746 O 0.38542 0.69119 0.31581 0.0
C2747 C 0.3694 0.71721 0.34696 0.0
C2748 C 0.3933 0.64986 0.34956 0.0
C2749 C 0.42393 0.65574 0.35501 0.0
N2750 N 0.4053 0.6783 0.34293 0.0
C2751 C 0.39132 0.66701 0.34339 0.0
C2752 C 0.42145 0.67275 0.34869 0.0
C2753 C 0.40977 0.64422 0.35538 0.0
C2754 C 0.40052 0.76072 0.33054 0.0
N2755 N 0.384 0.75699 0.32427 0.0
C2756 C 0.40412 0.77643 0.33937 0.0
C2757 C 0.39058 0.78827 0.34262 0.0
C2758 C 0.37358 0.784 0.33748 0.0
C2759 C 0.37049 0.76818 0.32866 0.0
C2760 C 0.34268 0.7651 0.28254 0.0
C2761 C 0.34082 0.73839 0.30715 0.0
C2762 C 0.35788 0.75818 0.29021 0.0
N2763 N 0.35695 0.74469 0.30217 0.0
C2764 C 0.32535 0.745 0.29974 0.0
C2765 C 0.32633 0.75835 0.28725 0.0
C2766 C 0.37504 0.69578 0.30374 0.0
C2767 C 0.44132 0.70192 0.2909 0.0
C2768 C 0.42156 0.67708 0.30841 0.0
C2769 C 0.43292 0.67181 0.29496 0.0
C2770 C 0.44298 0.68434 0.28625 0.0
N2771 N 0.42069 0.6943 0.31381 0.0
C2772 C 0.42996 0.70664 0.30457 0.0
Co2773 Co 0.62377 0.76444 0.8087 0.0
Co2774 Co 0.59396 0.79273 0.82777 0.0
O2775 O 0.60072 0.77072 0.81749 0.0
C2776 C 0.59659 0.75502 0.78212 0.0
O2777 O 0.58394 0.75785 0.79336 0.0
C2778 C 0.56747 0.7703 0.85317 0.0
O2779 O 0.56761 0.75305 0.85245 0.0
O2780 O 0.61399 0.78978 0.8454 0.0
O2781 O 0.63422 0.77292 0.83118 0.0
H2782 H 0.60484 0.85299 0.85172 0.0
H2783 H 0.59336 0.73907 0.81583 0.0
O2784 O 0.61284 0.75631 0.78617 0.0
H2785 H 0.64592 0.71058 0.8404 0.0
H2786 H 0.6665 0.72708 0.77451 0.0
H2787 H 0.6594 0.78028 0.81099 0.0
H2788 H 0.64815 0.73975 0.82683 0.0
H2789 H 0.63748 0.73499 0.78666 0.0
O2790 O 0.57776 0.77914 0.84331 0.0
H2791 H 0.61229 0.82263 0.84398 0.0
H2792 H 0.55898 0.81089 0.83386 0.0
H2793 H 0.68876 0.77265 0.79938 0.0
H2794 H 0.59066 0.71005 0.82916 0.0
H2795 H 0.69242 0.74591 0.78096 0.0
H2796 H 0.61704 0.69537 0.84158 0.0
O2797 O 0.62763 0.78832 0.79753 0.0
H2798 H 0.53831 0.77488 0.79591 0.0
H2799 H 0.58488 0.81971 0.80017 0.0
H2800 H 0.56146 0.82323 0.77836 0.0
H2801 H 0.53777 0.80087 0.77617 0.0
H2802 H 0.56232 0.77131 0.81706 0.0
H2803 H 0.55089 0.84179 0.8392 0.0
H2804 H 0.57378 0.86314 0.84848 0.0
O2805 O 0.61011 0.80637 0.81262 0.0
C2806 C 0.6291 0.78187 0.84453 0.0
C2807 C 0.59466 0.84402 0.84743 0.0
C2808 C 0.56447 0.83769 0.84035 0.0
N2809 N 0.58641 0.81497 0.83816 0.0
C2810 C 0.5989 0.82663 0.84346 0.0
C2811 C 0.56917 0.82014 0.83737 0.0
C2812 C 0.57733 0.84968 0.84554 0.0
C2813 C 0.60509 0.73293 0.82061 0.0
N2814 N 0.6211 0.74111 0.8195 0.0
C2815 C 0.6034 0.71638 0.82843 0.0
C2816 C 0.61817 0.70817 0.83545 0.0
C2817 C 0.63436 0.71668 0.83475 0.0
C2818 C 0.63554 0.73322 0.82685 0.0
C2819 C 0.66507 0.73877 0.78252 0.0
C2820 C 0.66094 0.76854 0.80312 0.0
C2821 C 0.64865 0.74338 0.78935 0.0
N2822 N 0.64677 0.75805 0.7996 0.0
C2823 C 0.67757 0.76432 0.79652 0.0
C2824 C 0.67961 0.74933 0.78617 0.0
C2825 C 0.62197 0.80371 0.80117 0.0
C2826 C 0.54857 0.78473 0.79672 0.0
C2827 C 0.57509 0.8095 0.79909 0.0
C2828 C 0.56161 0.81178 0.78681 0.0
C2829 C 0.54829 0.79927 0.78563 0.0
N2830 N 0.57539 0.79511 0.80998 0.0
C2831 C 0.56222 0.78288 0.80888 0.0
Co2832 Co 0.58407 0.54618 0.64738 0.0
Co2833 Co 0.56061 0.51115 0.63125 0.0
O2834 O 0.57203 0.52382 0.65074 0.0
C2835 C 0.60373 0.52852 0.67763 0.0
O2836 O 0.5939 0.51436 0.67733 0.0
C2837 C 0.53402 0.51328 0.65932 0.0
O2838 O 0.53786 0.53004 0.66029 0.0
O2839 O 0.54678 0.53289 0.62448 0.0
O2840 O 0.56709 0.55357 0.62931 0.0
H2841 H 0.53897 0.50187 0.56934 0.0
H2842 H 0.56888 0.53521 0.68188 0.0
O2843 O 0.60195 0.54069 0.6662 0.0
H2844 H 0.54583 0.59474 0.67175 0.0
H2845 H 0.60974 0.60432 0.66531 0.0
H2846 H 0.5945 0.5657 0.61552 0.0
H2847 H 0.56447 0.58037 0.64958 0.0
H2848 H 0.59979 0.57391 0.67058 0.0
O2849 O 0.54142 0.50398 0.64758 0.0
H2850 H 0.55379 0.51784 0.59329 0.0
H2851 H 0.54169 0.47677 0.62906 0.0
H2852 H 0.60485 0.59576 0.60968 0.0
H2853 H 0.55109 0.54938 0.70488 0.0
H2854 H 0.61202 0.61539 0.63464 0.0
H2855 H 0.53925 0.57938 0.69984 0.0
O2856 O 0.59905 0.53483 0.62896 0.0
H2857 H 0.58471 0.46729 0.67446 0.0
H2858 H 0.5805 0.483 0.61182 0.0
H2859 H 0.59695 0.45652 0.62043 0.0
H2860 H 0.59911 0.44844 0.652 0.0
H2861 H 0.56847 0.49374 0.66519 0.0
H2862 H 0.52638 0.46046 0.6056 0.0
H2863 H 0.52509 0.47292 0.57543 0.0
O2864 O 0.58004 0.5178 0.61426 0.0
C2865 C 0.55212 0.54884 0.62391 0.0
C2866 C 0.53947 0.49627 0.58242 0.0
C2867 C 0.53241 0.47305 0.60277 0.0
N2868 N 0.54879 0.49828 0.61254 0.0
C2869 C 0.54789 0.50529 0.59604 0.0
C2870 C 0.54105 0.4824 0.61602 0.0
C2871 C 0.53168 0.48004 0.58585 0.0
C2872 C 0.56469 0.54855 0.68001 0.0
N2873 N 0.56885 0.55727 0.66489 0.0
C2874 C 0.55421 0.5564 0.69289 0.0
C2875 C 0.54749 0.57319 0.69002 0.0
C2876 C 0.55119 0.5818 0.67429 0.0
C2877 C 0.56182 0.57356 0.66177 0.0
C2878 C 0.60635 0.59592 0.65433 0.0
C2879 C 0.59799 0.57405 0.62648 0.0
C2880 C 0.60101 0.57862 0.65721 0.0
N2881 N 0.59614 0.56822 0.64339 0.0
C2882 C 0.6036 0.59114 0.62308 0.0
C2883 C 0.60742 0.60221 0.63713 0.0
C2884 C 0.59503 0.52536 0.61554 0.0
C2885 C 0.58395 0.47071 0.66067 0.0
C2886 C 0.58165 0.47985 0.62554 0.0
C2887 C 0.59086 0.4647 0.63036 0.0
C2888 C 0.59203 0.46015 0.64807 0.0
N2889 N 0.57376 0.49019 0.63795 0.0
C2890 C 0.57481 0.48572 0.65533 0.0
Co2891 Co 0.20376 0.3337 0.8963 0.0
Co2892 Co 0.23613 0.30708 0.87915 0.0
O2893 O 0.22609 0.32149 0.89873 0.0
C2894 C 0.21894 0.35839 0.92584 0.0
O2895 O 0.23426 0.35072 0.92817 0.0
C2896 C 0.23368 0.28251 0.90869 0.0
O2897 O 0.21865 0.28992 0.91261 0.0
O2898 O 0.21315 0.294 0.87461 0.0
O2899 O 0.19509 0.31576 0.88063 0.0
H2900 H 0.2394 0.27699 0.82002 0.0
H2901 H 0.21511 0.3273 0.93406 0.0
O2902 O 0.20963 0.35435 0.91244 0.0
H2903 H 0.16634 0.28634 0.92599 0.0
H2904 H 0.13784 0.34322 0.8992 0.0
H2905 H 0.19368 0.3669 0.87808 0.0
H2906 H 0.17574 0.30475 0.90177 0.0
H2907 H 0.16442 0.33153 0.90981 0.0
O2908 O 0.2432 0.28861 0.89639 0.0
H2909 H 0.22561 0.29497 0.84309 0.0
H2910 H 0.27001 0.28786 0.87611 0.0
H2911 H 0.16734 0.37828 0.86615 0.0
H2912 H 0.20473 0.31071 0.95912 0.0
H2913 H 0.13826 0.36771 0.87699 0.0
H2914 H 0.18009 0.28968 0.95538 0.0
O2915 O 0.21381 0.34604 0.87488 0.0
H2916 H 0.28485 0.33266 0.91586 0.0
H2917 H 0.26145 0.32586 0.85576 0.0
H2918 H 0.28857 0.34304 0.86048 0.0
H2919 H 0.30047 0.3465 0.89071 0.0
H2920 H 0.25762 0.31582 0.91056 0.0
H2921 H 0.2843 0.26965 0.85344 0.0
H2922 H 0.26901 0.26416 0.8251 0.0
O2923 O 0.22888 0.32481 0.8609 0.0
C2924 C 0.19789 0.301 0.8738 0.0
C2925 C 0.24626 0.27941 0.83226 0.0
C2926 C 0.27144 0.27526 0.85101 0.0
N2927 N 0.24706 0.29289 0.86082 0.0
C2928 C 0.23852 0.28973 0.84535 0.0
C2929 C 0.26326 0.28562 0.8638 0.0
C2930 C 0.26286 0.27219 0.83512 0.0
C2931 C 0.2033 0.32007 0.93239 0.0
N2932 N 0.1948 0.31952 0.91651 0.0
C2933 C 0.19792 0.3098 0.94665 0.0
C2934 C 0.18431 0.29783 0.94449 0.0
C2935 C 0.17665 0.29595 0.92804 0.0
C2936 C 0.18237 0.30652 0.91414 0.0
C2937 C 0.14995 0.34816 0.89378 0.0
C2938 C 0.1817 0.36034 0.88171 0.0
C2939 C 0.16559 0.34061 0.89926 0.0
N2940 N 0.18141 0.34594 0.89249 0.0
C2941 C 0.16635 0.36754 0.87525 0.0
C2942 C 0.15026 0.36152 0.88134 0.0
C2943 C 0.22066 0.33946 0.8609 0.0
C2944 C 0.27984 0.33119 0.90262 0.0
C2945 C 0.26652 0.32733 0.86896 0.0
C2946 C 0.28191 0.33704 0.87154 0.0
C2947 C 0.28858 0.33897 0.8885 0.0
N2948 N 0.25802 0.31972 0.88287 0.0
C2949 C 0.26448 0.32158 0.89953 0.0
Co2950 Co 0.41623 0.95085 0.14814 0.0
Co2951 Co 0.44092 0.98523 0.13293 0.0
O2952 O 0.4295 0.97258 0.15254 0.0
C2953 C 0.40085 0.96575 0.18218 0.0
O2954 O 0.4119 0.97896 0.18254 0.0
C2955 C 0.46383 0.99164 0.16507 0.0
O2956 O 0.45217 0.98559 0.17617 0.0
O2957 O 0.45409 0.96294 0.12675 0.0
O2958 O 0.43124 0.94488 0.12775 0.0
H2959 H 0.4598 0.99361 0.06995 0.0
H2960 H 0.4368 0.95807 0.18072 0.0
O2961 O 0.40038 0.95506 0.1692 0.0
H2962 H 0.4508 0.8968 0.1659 0.0
H2963 H 0.38887 0.89215 0.1619 0.0
H2964 H 0.40313 0.93484 0.11528 0.0
H2965 H 0.43218 0.91452 0.14638 0.0
H2966 H 0.4 0.92169 0.16955 0.0
O2967 O 0.46118 0.99175 0.14852 0.0
H2968 H 0.44524 0.97854 0.09458 0.0
H2969 H 0.46276 0.01796 0.12996 0.0
H2970 H 0.39171 0.90575 0.10718 0.0
H2971 H 0.45661 0.94138 0.19995 0.0
H2972 H 0.3848 0.88418 0.13041 0.0
H2973 H 0.46343 0.91023 0.19285 0.0
O2974 O 0.40051 0.9648 0.13233 0.0
H2975 H 0.41147 0.02854 0.17421 0.0
H2976 H 0.42612 0.01593 0.11255 0.0
H2977 H 0.40952 0.04249 0.11964 0.0
H2978 H 0.402 0.04911 0.15071 0.0
H2979 H 0.42795 0.00212 0.16651 0.0
H2980 H 0.47801 0.03323 0.1058 0.0
H2981 H 0.47638 0.02122 0.07547 0.0
O2982 O 0.42077 0.97903 0.11639 0.0
C2983 C 0.4474 0.94762 0.12504 0.0
C2984 C 0.46062 0.99899 0.08311 0.0
C2985 C 0.47084 0.0212 0.10323 0.0
N2986 N 0.45302 0.99725 0.11374 0.0
C2987 C 0.45235 0.99047 0.09713 0.0
C2988 C 0.4623 0.01236 0.1169 0.0
C2989 C 0.46992 0.01447 0.08621 0.0
C2990 C 0.43968 0.94472 0.17746 0.0
N2991 N 0.43235 0.93722 0.16292 0.0
C2992 C 0.45098 0.93524 0.1884 0.0
C2993 C 0.45481 0.9178 0.18442 0.0
C2994 C 0.44769 0.91025 0.16935 0.0
C2995 C 0.43687 0.92035 0.15846 0.0
C2996 C 0.392 0.90149 0.15163 0.0
C2997 C 0.39983 0.92565 0.12561 0.0
C2998 C 0.39795 0.91835 0.15588 0.0
N2999 N 0.40267 0.92984 0.14287 0.0
C3000 C 0.39355 0.90912 0.12089 0.0
C3001 C 0.38989 0.89691 0.13399 0.0
C3002 C 0.40498 0.97342 0.11849 0.0
C3003 C 0.41466 0.02583 0.1606 0.0
C3004 C 0.42291 0.01832 0.12608 0.0
C3005 C 0.41351 0.03361 0.13003 0.0
C3006 C 0.40933 0.03735 0.14744 0.0
N3007 N 0.42824 0.00698 0.13903 0.0
C3008 C 0.42413 0.01072 0.15613 0.0
Co3009 Co 0.79797 0.1644 0.39562 0.0
Co3010 Co 0.76447 0.19002 0.37987 0.0
O3011 O 0.77639 0.1776 0.39901 0.0
C3012 C 0.77978 0.14669 0.42663 0.0
O3013 O 0.76688 0.15811 0.42703 0.0
C3014 C 0.76571 0.21662 0.40848 0.0
O3015 O 0.78277 0.21427 0.40922 0.0
O3016 O 0.78692 0.20341 0.37451 0.0
O3017 O 0.80654 0.18166 0.37822 0.0
H3018 H 0.75727 0.21703 0.31971 0.0
H3019 H 0.78682 0.18286 0.42891 0.0
O3020 O 0.79091 0.14649 0.41403 0.0
H3021 H 0.84956 0.19686 0.42203 0.0
H3022 H 0.85139 0.12985 0.41406 0.0
H3023 H 0.81849 0.15481 0.36406 0.0
H3024 H 0.83422 0.17934 0.39971 0.0
H3025 H 0.823 0.14468 0.41888 0.0
O3026 O 0.75687 0.20835 0.39698 0.0
H3027 H 0.77261 0.20041 0.34286 0.0
H3028 H 0.72989 0.20839 0.37783 0.0
H3029 H 0.84699 0.14066 0.35879 0.0
H3030 H 0.80163 0.2003 0.45156 0.0
H3031 H 0.86368 0.12797 0.3839 0.0
H3032 H 0.83334 0.20739 0.44835 0.0
O3033 O 0.78613 0.15066 0.37627 0.0
H3034 H 0.71966 0.16367 0.42073 0.0
H3035 H 0.73681 0.17104 0.35873 0.0
H3036 H 0.71037 0.15383 0.36594 0.0
H3037 H 0.70158 0.15005 0.39718 0.0
H3038 H 0.74606 0.1807 0.41284 0.0
H3039 H 0.71415 0.22538 0.3552 0.0
H3040 H 0.72776 0.22969 0.32581 0.0
O3041 O 0.77135 0.17162 0.36194 0.0
C3042 C 0.80265 0.19726 0.37382 0.0
C3043 C 0.75116 0.21519 0.33244 0.0
C3044 C 0.72697 0.21987 0.35234 0.0
N3045 N 0.75216 0.20312 0.36161 0.0
C3046 C 0.75982 0.20572 0.34559 0.0
C3047 C 0.736 0.21024 0.36512 0.0
C3048 C 0.73461 0.22229 0.33586 0.0
C3049 C 0.80071 0.18502 0.42769 0.0
N3050 N 0.80982 0.17854 0.41362 0.0
C3051 C 0.80901 0.19533 0.44044 0.0
C3052 C 0.82676 0.19937 0.4386 0.0
C3053 C 0.83587 0.19341 0.42389 0.0
C3054 C 0.82709 0.18323 0.41137 0.0
C3055 C 0.84423 0.1353 0.40303 0.0
C3056 C 0.82563 0.14935 0.37507 0.0
C3057 C 0.82803 0.1435 0.40563 0.0
N3058 N 0.81917 0.15079 0.39177 0.0
C3059 C 0.84177 0.14127 0.37199 0.0
C3060 C 0.85113 0.13426 0.38608 0.0
C3061 C 0.77791 0.15615 0.36251 0.0
C3062 C 0.72336 0.16516 0.40706 0.0
C3063 C 0.7333 0.16929 0.3723 0.0
C3064 C 0.71819 0.15961 0.37634 0.0
C3065 C 0.71324 0.15752 0.39385 0.0
N3066 N 0.74321 0.17674 0.38531 0.0
C3067 C 0.73835 0.17478 0.40251 0.0
Co3068 Co 0.58371 0.45196 0.34883 0.0
Co3069 Co 0.56015 0.48686 0.36523 0.0
O3070 O 0.57143 0.47421 0.34555 0.0
C3071 C 0.60275 0.46956 0.31822 0.0
O3072 O 0.59292 0.48369 0.31875 0.0
C3073 C 0.53309 0.48442 0.33761 0.0
O3074 O 0.53661 0.46757 0.33705 0.0
O3075 O 0.54655 0.46508 0.37235 0.0
O3076 O 0.56717 0.44485 0.36722 0.0
H3077 H 0.54033 0.49614 0.42772 0.0
H3078 H 0.56797 0.46244 0.31449 0.0
O3079 O 0.60118 0.45734 0.32961 0.0
H3080 H 0.54447 0.40338 0.32625 0.0
H3081 H 0.61146 0.39431 0.33135 0.0
H3082 H 0.59401 0.4325 0.38071 0.0
H3083 H 0.56399 0.41783 0.34761 0.0
H3084 H 0.59972 0.4241 0.32574 0.0
O3085 O 0.54076 0.49389 0.34906 0.0
H3086 H 0.55479 0.48035 0.40344 0.0
H3087 H 0.54019 0.52067 0.3677 0.0
H3088 H 0.6053 0.4029 0.38682 0.0
H3089 H 0.5494 0.44812 0.29222 0.0
H3090 H 0.61419 0.38365 0.36219 0.0
H3091 H 0.5373 0.41836 0.29811 0.0
O3092 O 0.599 0.46353 0.36686 0.0
H3093 H 0.58512 0.52979 0.32151 0.0
H3094 H 0.57797 0.51657 0.3844 0.0
H3095 H 0.59496 0.5426 0.37557 0.0
H3096 H 0.59863 0.54944 0.34384 0.0
H3097 H 0.56854 0.50365 0.33107 0.0
H3098 H 0.52525 0.53677 0.39154 0.0
H3099 H 0.52538 0.52459 0.42185 0.0
O3100 O 0.57992 0.48025 0.38192 0.0
C3101 C 0.55232 0.4493 0.37312 0.0
C3102 C 0.54021 0.50161 0.41458 0.0
C3103 C 0.53172 0.52438 0.39427 0.0
N3104 N 0.54849 0.49955 0.38416 0.0
C3105 C 0.54845 0.49272 0.40077 0.0
C3106 C 0.54013 0.51514 0.38079 0.0
C3107 C 0.53181 0.51756 0.41128 0.0
C3108 C 0.5637 0.44917 0.31668 0.0
N3109 N 0.56818 0.44064 0.3318 0.0
C3110 C 0.55277 0.44124 0.30422 0.0
C3111 C 0.54591 0.4246 0.30758 0.0
C3112 C 0.54993 0.4162 0.32334 0.0
C3113 C 0.56106 0.42448 0.33539 0.0
C3114 C 0.60755 0.40263 0.34222 0.0
C3115 C 0.59782 0.42423 0.36981 0.0
C3116 C 0.60117 0.41958 0.33914 0.0
N3117 N 0.59594 0.42995 0.35287 0.0
C3118 C 0.6041 0.40741 0.37338 0.0
C3119 C 0.60889 0.39655 0.35948 0.0
C3120 C 0.59492 0.47264 0.38048 0.0
C3121 C 0.58388 0.52681 0.33537 0.0
C3122 C 0.58009 0.51895 0.37066 0.0
C3123 C 0.58945 0.53396 0.36569 0.0
C3124 C 0.59144 0.53783 0.3479 0.0
N3125 N 0.57302 0.50796 0.35833 0.0
C3126 C 0.57461 0.51193 0.34087 0.0
Co3127 Co 0.29652 0.33349 0.59654 0.0
Co3128 Co 0.26306 0.31246 0.61859 0.0
O3129 O 0.27395 0.32131 0.59688 0.0
C3130 C 0.27854 0.34902 0.56325 0.0
O3131 O 0.26525 0.33803 0.56246 0.0
C3132 C 0.26139 0.28207 0.59387 0.0
O3133 O 0.27841 0.28341 0.59153 0.0
O3134 O 0.28553 0.29957 0.62512 0.0
O3135 O 0.30557 0.31931 0.61642 0.0
H3136 H 0.26021 0.29929 0.68343 0.0
H3137 H 0.28254 0.31196 0.56626 0.0
O3138 O 0.28928 0.34889 0.57612 0.0
H3139 H 0.34351 0.29213 0.57492 0.0
H3140 H 0.347 0.36335 0.56615 0.0
H3141 H 0.32239 0.34566 0.62352 0.0
H3142 H 0.33071 0.31456 0.59428 0.0
H3143 H 0.3195 0.34665 0.56774 0.0
O3144 O 0.254 0.29176 0.60528 0.0
H3145 H 0.27312 0.3115 0.65637 0.0
H3146 H 0.22982 0.29265 0.62655 0.0
H3147 H 0.35022 0.36221 0.62243 0.0
H3148 H 0.29507 0.29009 0.5461 0.0
H3149 H 0.36222 0.37168 0.59354 0.0
H3150 H 0.32579 0.27989 0.55037 0.0
O3151 O 0.2868 0.35108 0.61389 0.0
H3152 H 0.2175 0.33629 0.57681 0.0
H3153 H 0.23475 0.33099 0.63901 0.0
H3154 H 0.2077 0.34696 0.63135 0.0
H3155 H 0.19887 0.34975 0.60003 0.0
H3156 H 0.24438 0.32031 0.58505 0.0
H3157 H 0.21663 0.2799 0.65321 0.0
H3158 H 0.23176 0.28328 0.68197 0.0
O3159 O 0.27102 0.3338 0.6321 0.0
C3160 C 0.30132 0.30549 0.62467 0.0
C3161 C 0.25347 0.29775 0.67098 0.0
C3162 C 0.22904 0.28684 0.65403 0.0
N3163 N 0.2523 0.30292 0.63983 0.0
C3164 C 0.26071 0.30472 0.6556 0.0
C3165 C 0.23668 0.294 0.63892 0.0
C3166 C 0.23752 0.28876 0.67015 0.0
C3167 C 0.29611 0.30836 0.56776 0.0
N3168 N 0.30615 0.31567 0.58072 0.0
C3169 C 0.30307 0.2956 0.5565 0.0
C3170 C 0.32028 0.28984 0.55893 0.0
C3171 C 0.33023 0.29673 0.57265 0.0
C3172 C 0.32288 0.30957 0.58352 0.0
C3173 C 0.34161 0.35964 0.5788 0.0
C3174 C 0.3276 0.34972 0.61096 0.0
C3175 C 0.32583 0.35046 0.57985 0.0
N3176 N 0.31878 0.34595 0.59582 0.0
C3177 C 0.3434 0.35899 0.61042 0.0
C3178 C 0.35025 0.36414 0.59421 0.0
C3179 C 0.27842 0.34849 0.62841 0.0
C3180 C 0.22126 0.33529 0.5905 0.0
C3181 C 0.23117 0.33221 0.62534 0.0
C3182 C 0.21575 0.34125 0.62109 0.0
C3183 C 0.2108 0.34281 0.60353 0.0
N3184 N 0.24146 0.32492 0.61252 0.0
C3185 C 0.2366 0.32636 0.59527 0.0
Co3186 Co 0.41555 0.04723 0.84455 0.0
Co3187 Co 0.43904 0.01607 0.86704 0.0
O3188 O 0.42711 0.0246 0.84606 0.0
C3189 C 0.39471 0.02477 0.81793 0.0
O3190 O 0.4045 0.01063 0.81931 0.0
C3191 C 0.4663 0.01267 0.83934 0.0
O3192 O 0.46453 0.02957 0.83637 0.0
O3193 O 0.45277 0.03883 0.86979 0.0
O3194 O 0.43308 0.0583 0.86046 0.0
H3195 H 0.46307 0.01875 0.92869 0.0
H3196 H 0.4306 0.02789 0.81342 0.0
O3197 O 0.39706 0.03807 0.82786 0.0
H3198 H 0.45636 0.08712 0.81064 0.0
H3199 H 0.39401 0.09838 0.81027 0.0
H3200 H 0.39909 0.0734 0.86951 0.0
H3201 H 0.43649 0.07903 0.83483 0.0
H3202 H 0.40257 0.06793 0.81429 0.0
O3203 O 0.45763 0.00569 0.85182 0.0
H3204 H 0.44771 0.03016 0.90256 0.0
H3205 H 0.45707 0.98232 0.87539 0.0
H3206 H 0.39223 0.10499 0.86632 0.0
H3207 H 0.44968 0.03564 0.78858 0.0
H3208 H 0.39059 0.11796 0.83641 0.0
H3209 H 0.46281 0.06549 0.78702 0.0
O3210 O 0.40076 0.0411 0.86603 0.0
H3211 H 0.41175 0.9654 0.83434 0.0
H3212 H 0.41839 0.99407 0.89213 0.0
H3213 H 0.4001 0.96741 0.88956 0.0
H3214 H 0.39674 0.95283 0.86051 0.0
H3215 H 0.4297 0.99224 0.83748 0.0
H3216 H 0.47282 0.97045 0.90111 0.0
H3217 H 0.47579 0.98866 0.92807 0.0
O3218 O 0.42045 0.02589 0.88236 0.0
C3219 C 0.44735 0.05474 0.86846 0.0
C3220 C 0.46178 0.01064 0.91706 0.0
C3221 C 0.46728 0.98356 0.90157 0.0
N3222 N 0.45123 0.00689 0.88754 0.0
C3223 C 0.45299 0.01703 0.90225 0.0
C3224 C 0.45838 0.99038 0.88703 0.0
C3225 C 0.46894 0.99378 0.9167 0.0
C3226 C 0.43534 0.04114 0.81243 0.0
N3227 N 0.43114 0.0533 0.82495 0.0
C3228 C 0.44656 0.04537 0.7985 0.0
C3229 C 0.45402 0.06207 0.79769 0.0
C3230 C 0.4504 0.07419 0.81092 0.0
C3231 C 0.43907 0.0695 0.8246 0.0
C3232 C 0.39577 0.09347 0.82341 0.0
C3233 C 0.3992 0.07929 0.85664 0.0
C3234 C 0.40043 0.07601 0.8258 0.0
N3235 N 0.40364 0.0696 0.84227 0.0
C3236 C 0.39508 0.09708 0.85485 0.0
C3237 C 0.39387 0.1043 0.83805 0.0
C3238 C 0.40604 0.03427 0.88067 0.0
C3239 C 0.41321 0.97155 0.8471 0.0
C3240 C 0.41704 0.98779 0.87945 0.0
C3241 C 0.40666 0.97269 0.87808 0.0
C3242 C 0.40477 0.96452 0.86178 0.0
N3243 N 0.42539 0.99454 0.86501 0.0
C3244 C 0.42346 0.98668 0.84897 0.0
Co3245 Co 0.7 0.16575 0.10139 0.0
Co3246 Co 0.73424 0.19044 0.11655 0.0
O3247 O 0.7221 0.17799 0.09766 0.0
C3248 C 0.7177 0.1469 0.07066 0.0
O3249 O 0.73142 0.15734 0.07096 0.0
C3250 C 0.73325 0.21638 0.08771 0.0
O3251 O 0.71622 0.21375 0.08736 0.0
O3252 O 0.7124 0.20469 0.12162 0.0
O3253 O 0.69229 0.18331 0.11899 0.0
H3254 H 0.74161 0.21997 0.17551 0.0
H3255 H 0.71161 0.18275 0.06767 0.0
O3256 O 0.70599 0.14754 0.08276 0.0
H3257 H 0.64972 0.20009 0.07454 0.0
H3258 H 0.64268 0.13978 0.08347 0.0
H3259 H 0.68033 0.15634 0.13342 0.0
H3260 H 0.66462 0.18313 0.09762 0.0
H3261 H 0.67313 0.14848 0.07855 0.0
O3262 O 0.74241 0.20832 0.09914 0.0
H3263 H 0.72569 0.20357 0.15259 0.0
H3264 H 0.76996 0.20634 0.11883 0.0
H3265 H 0.65023 0.14679 0.13919 0.0
H3266 H 0.69731 0.19977 0.04429 0.0
H3267 H 0.63056 0.13922 0.11419 0.0
H3268 H 0.66601 0.20844 0.04748 0.0
O3269 O 0.71136 0.15148 0.12072 0.0
H3270 H 0.77979 0.1627 0.07738 0.0
H3271 H 0.75921 0.16934 0.1385 0.0
H3272 H 0.78507 0.15079 0.13231 0.0
H3273 H 0.79558 0.14743 0.10156 0.0
H3274 H 0.75382 0.1809 0.08416 0.0
H3275 H 0.78645 0.22285 0.14129 0.0
H3276 H 0.77234 0.22965 0.16997 0.0
O3277 O 0.72641 0.17266 0.13459 0.0
C3278 C 0.69667 0.19881 0.12317 0.0
C3279 C 0.74798 0.21694 0.16314 0.0
C3280 C 0.77313 0.21855 0.14395 0.0
N3281 N 0.74694 0.20345 0.1346 0.0
C3282 C 0.73899 0.20758 0.15013 0.0
C3283 C 0.76371 0.20914 0.13129 0.0
C3284 C 0.76521 0.22239 0.16002 0.0
C3285 C 0.69787 0.18569 0.06891 0.0
N3286 N 0.68869 0.18038 0.0834 0.0
C3287 C 0.68988 0.19573 0.05575 0.0
C3288 C 0.67236 0.20067 0.05758 0.0
C3289 C 0.66322 0.19593 0.0727 0.0
C3290 C 0.67173 0.18609 0.08567 0.0
C3291 C 0.65071 0.14323 0.09462 0.0
C3292 C 0.67217 0.15238 0.12248 0.0
C3293 C 0.66817 0.1479 0.09187 0.0
N3294 N 0.67828 0.15341 0.10563 0.0
C3295 C 0.65495 0.14724 0.1258 0.0
C3296 C 0.64401 0.14303 0.11173 0.0
C3297 C 0.71957 0.15728 0.13435 0.0
C3298 C 0.77536 0.16408 0.09084 0.0
C3299 C 0.76357 0.16783 0.12508 0.0
C3300 C 0.77829 0.15737 0.12166 0.0
C3301 C 0.7842 0.1555 0.10441 0.0
N3302 N 0.75497 0.17623 0.11171 0.0
C3303 C 0.76068 0.17442 0.09477 0.0
Co3304 Co 0.63069 0.06035 0.01592 0.0
Co3305 Co 0.6537 0.0819 0.04909 0.0
O3306 O 0.65182 0.07138 0.02561 0.0
C3307 C 0.66116 0.03714 0.00563 0.0
O3308 O 0.67293 0.04882 0.00997 0.0
C3309 C 0.67879 0.10483 0.02674 0.0
O3310 O 0.67798 0.09544 0.01228 0.0
O3311 O 0.63138 0.09625 0.04488 0.0
O3312 O 0.61625 0.07962 0.02543 0.0
H3313 H 0.63585 0.10296 0.10949 0.0
H3314 H 0.66114 0.07046 0.99179 0.0
O3315 O 0.64474 0.04012 0.00676 0.0
H3316 H 0.60856 0.09825 0.96646 0.0
H3317 H 0.59697 0.02608 0.97022 0.0
H3318 H 0.59273 0.05794 0.02638 0.0
H3319 H 0.60634 0.08104 0.99369 0.0
H3320 H 0.62319 0.03981 0.98327 0.0
O3321 O 0.66883 0.10165 0.03986 0.0
H3322 H 0.63011 0.0903 0.07993 0.0
H3323 H 0.68413 0.09741 0.06717 0.0
H3324 H 0.56611 0.04485 0.01361 0.0
H3325 H 0.66386 0.08723 0.96452 0.0
H3326 H 0.56811 0.02857 0.98535 0.0
H3327 H 0.63745 0.10134 0.95151 0.0
O3328 O 0.62701 0.0465 0.03833 0.0
H3329 H 0.71067 0.05061 0.03413 0.0
H3330 H 0.66699 0.0623 0.08042 0.0
H3331 H 0.69224 0.04324 0.08691 0.0
H3332 H 0.71431 0.03706 0.06361 0.0
H3333 H 0.6855 0.06998 0.02858 0.0
H3334 H 0.69027 0.10869 0.09651 0.0
H3335 H 0.6665 0.11072 0.11809 0.0
O3336 O 0.63893 0.06279 0.05989 0.0
C3337 C 0.61749 0.09265 0.0358 0.0
C3338 C 0.64647 0.10107 0.10036 0.0
C3339 C 0.67704 0.10471 0.09303 0.0
N3340 N 0.65675 0.09288 0.07187 0.0
C3341 C 0.64326 0.09437 0.08355 0.0
C3342 C 0.67331 0.09858 0.07628 0.0
C3343 C 0.66358 0.10568 0.10521 0.0
C3344 C 0.64948 0.076 0.98625 0.0
N3345 N 0.63351 0.07397 0.99425 0.0
C3346 C 0.65114 0.08576 0.97076 0.0
C3347 C 0.63634 0.09373 0.96349 0.0
C3348 C 0.62015 0.09199 0.97186 0.0
C3349 C 0.619 0.08213 0.98732 0.0
C3350 C 0.59595 0.03296 0.98265 0.0
C3351 C 0.59379 0.05102 0.01412 0.0
C3352 C 0.61084 0.0406 0.99026 0.0
N3353 N 0.60971 0.04934 0.00596 0.0
C3354 C 0.57863 0.04355 0.00693 0.0
C3355 C 0.57976 0.03441 0.9911 0.0
C3356 C 0.62995 0.04954 0.05467 0.0
C3357 C 0.70114 0.05311 0.04441 0.0
C3358 C 0.67651 0.05987 0.07016 0.0
C3359 C 0.69084 0.04901 0.07397 0.0
C3360 C 0.70319 0.04554 0.06093 0.0
N3361 N 0.67448 0.0673 0.05388 0.0
C3362 C 0.68674 0.0641 0.04123 0.0
Co3363 Co 0.66922 0.40399 0.30023 0.0
Co3364 Co 0.68973 0.38131 0.26623 0.0
O3365 O 0.67959 0.4027 0.27665 0.0
C3366 C 0.64737 0.43003 0.2784 0.0
O3367 O 0.65681 0.42843 0.26405 0.0
C3368 C 0.71396 0.41122 0.25659 0.0
O3369 O 0.70326 0.42309 0.2628 0.0
O3370 O 0.70416 0.37694 0.28804 0.0
O3371 O 0.68804 0.38852 0.30994 0.0
H3372 H 0.70447 0.3167 0.26303 0.0
H3373 H 0.68211 0.43637 0.28144 0.0
O3374 O 0.65007 0.42034 0.29184 0.0
H3375 H 0.70904 0.439 0.34006 0.0
H3376 H 0.64357 0.43655 0.35137 0.0
H3377 H 0.66087 0.37835 0.3287 0.0
H3378 H 0.68961 0.4145 0.33201 0.0
H3379 H 0.65397 0.43324 0.32107 0.0
O3380 O 0.71011 0.39495 0.25658 0.0
H3381 H 0.6923 0.34343 0.27667 0.0
H3382 H 0.70811 0.37373 0.23243 0.0
H3383 H 0.64956 0.38087 0.35882 0.0
H3384 H 0.70183 0.46093 0.28862 0.0
H3385 H 0.64238 0.41066 0.3708 0.0
H3386 H 0.71544 0.46246 0.31826 0.0
O3387 O 0.65407 0.38256 0.2951 0.0
H3388 H 0.6632 0.4169 0.21657 0.0
H3389 H 0.66696 0.35844 0.24426 0.0
H3390 H 0.64849 0.36244 0.21802 0.0
H3391 H 0.64655 0.39182 0.20389 0.0
H3392 H 0.68125 0.4124 0.24285 0.0
H3393 H 0.7207 0.34737 0.21849 0.0
H3394 H 0.71887 0.31855 0.23375 0.0
O3395 O 0.67041 0.36678 0.27608 0.0
C3396 C 0.70139 0.38002 0.30438 0.0
C3397 C 0.70545 0.3292 0.25629 0.0
C3398 C 0.71459 0.34641 0.23132 0.0
N3399 N 0.69981 0.36029 0.25561 0.0
C3400 C 0.69858 0.34443 0.26397 0.0
C3401 C 0.70759 0.36135 0.2394 0.0
C3402 C 0.71353 0.33025 0.23987 0.0
C3403 C 0.68789 0.43685 0.29421 0.0
N3404 N 0.68441 0.42396 0.30612 0.0
C3405 C 0.69913 0.45083 0.29828 0.0
C3406 C 0.70676 0.45169 0.31489 0.0
C3407 C 0.70317 0.43856 0.3271 0.0
C3408 C 0.69206 0.4247 0.32242 0.0
C3409 C 0.6474 0.42373 0.34654 0.0
C3410 C 0.65709 0.39106 0.33361 0.0
C3411 C 0.65305 0.42168 0.32929 0.0
N3412 N 0.65853 0.40561 0.32326 0.0
C3413 C 0.651 0.39252 0.3508 0.0
C3414 C 0.64681 0.40911 0.35746 0.0
C3415 C 0.65732 0.36846 0.28633 0.0
C3416 C 0.66404 0.40399 0.22251 0.0
C3417 C 0.66629 0.3713 0.23825 0.0
C3418 C 0.65577 0.37346 0.22334 0.0
C3419 C 0.65468 0.38994 0.21543 0.0
N3420 N 0.6756 0.38511 0.24511 0.0
C3421 C 0.67444 0.40132 0.23744 0.0
Co3422 Co 0.36696 0.44187 0.51567 0.0
Co3423 Co 0.34602 0.4173 0.54812 0.0
O3424 O 0.34665 0.42889 0.52512 0.0
C3425 C 0.33546 0.46482 0.5081 0.0
O3426 O 0.32414 0.45306 0.51349 0.0
C3427 C 0.3216 0.39387 0.52553 0.0
O3428 O 0.32321 0.40313 0.51105 0.0
O3429 O 0.36861 0.40379 0.54176 0.0
O3430 O 0.38266 0.42256 0.5233 0.0
H3431 H 0.36644 0.40958 0.60945 0.0
H3432 H 0.33607 0.43253 0.49233 0.0
O3433 O 0.3519 0.46178 0.50776 0.0
H3434 H 0.38783 0.40539 0.4645 0.0
H3435 H 0.39859 0.47445 0.46729 0.0
H3436 H 0.40087 0.45783 0.52969 0.0
H3437 H 0.39102 0.42252 0.49174 0.0
H3438 H 0.3743 0.45785 0.48063 0.0
O3439 O 0.33052 0.39755 0.53926 0.0
H3440 H 0.37129 0.4104 0.5777 0.0
H3441 H 0.31731 0.40014 0.56842 0.0
H3442 H 0.42553 0.4739 0.51681 0.0
H3443 H 0.33239 0.41591 0.46495 0.0
H3444 H 0.42466 0.48237 0.4853 0.0
H3445 H 0.35838 0.40212 0.45077 0.0
O3446 O 0.37101 0.45462 0.53885 0.0
H3447 H 0.28622 0.44437 0.53757 0.0
H3448 H 0.33582 0.43972 0.57896 0.0
H3449 H 0.31034 0.45799 0.58671 0.0
H3450 H 0.28512 0.46028 0.56607 0.0
H3451 H 0.31234 0.42688 0.53016 0.0
H3452 H 0.31204 0.39739 0.59998 0.0
H3453 H 0.33628 0.40338 0.621 0.0
O3454 O 0.36076 0.43563 0.55872 0.0
C3455 C 0.38219 0.40847 0.53242 0.0
C3456 C 0.35562 0.40697 0.60061 0.0
C3457 C 0.32517 0.40009 0.59527 0.0
N3458 N 0.34459 0.40623 0.57113 0.0
C3459 C 0.35837 0.40761 0.5825 0.0
C3460 C 0.32837 0.4013 0.57726 0.0
C3461 C 0.33879 0.4035 0.60702 0.0
C3462 C 0.34753 0.42704 0.4862 0.0
N3463 N 0.3638 0.42911 0.49355 0.0
C3464 C 0.34533 0.41742 0.47069 0.0
C3465 C 0.3599 0.40964 0.46276 0.0
C3466 C 0.37641 0.41147 0.47045 0.0
C3467 C 0.3781 0.42119 0.48594 0.0
C3468 C 0.39942 0.47033 0.48089 0.0
C3469 C 0.40063 0.46033 0.51581 0.0
C3470 C 0.38576 0.46069 0.48853 0.0
N3471 N 0.38675 0.45507 0.50564 0.0
C3472 C 0.41455 0.46997 0.50864 0.0
C3473 C 0.41401 0.47482 0.491 0.0
C3474 C 0.36906 0.44942 0.55475 0.0
C3475 C 0.29696 0.44323 0.54685 0.0
C3476 C 0.32501 0.44059 0.56979 0.0
C3477 C 0.31054 0.45097 0.57432 0.0
C3478 C 0.29639 0.45223 0.56277 0.0
N3479 N 0.32538 0.43149 0.55422 0.0
C3480 C 0.31167 0.433 0.54279 0.0
Co3481 Co 0.33324 0.09376 0.79507 0.0
Co3482 Co 0.31169 0.11646 0.76191 0.0
O3483 O 0.3212 0.09507 0.77263 0.0
C3484 C 0.35056 0.06311 0.77509 0.0
O3485 O 0.3388 0.06205 0.76254 0.0
C3486 C 0.28162 0.09181 0.76401 0.0
O3487 O 0.28404 0.09104 0.78105 0.0
O3488 O 0.30013 0.12389 0.78494 0.0
O3489 O 0.31651 0.11103 0.80591 0.0
H3490 H 0.30316 0.18184 0.75348 0.0
H3491 H 0.31168 0.06515 0.77709 0.0
O3492 O 0.3508 0.07601 0.78583 0.0
H3493 H 0.298 0.05958 0.84 0.0
H3494 H 0.3601 0.06055 0.84499 0.0
H3495 H 0.34383 0.11945 0.8229 0.0
H3496 H 0.31683 0.08346 0.82957 0.0
H3497 H 0.34975 0.06441 0.81489 0.0
O3498 O 0.2906 0.10264 0.755 0.0
H3499 H 0.31562 0.15548 0.76714 0.0
H3500 H 0.28716 0.123 0.73161 0.0
H3501 H 0.35437 0.11598 0.85342 0.0
H3502 H 0.29281 0.04116 0.78702 0.0
H3503 H 0.36125 0.08598 0.86487 0.0
H3504 H 0.2859 0.03797 0.81874 0.0
O3505 O 0.3492 0.11359 0.78729 0.0
H3506 H 0.33339 0.07315 0.71663 0.0
H3507 H 0.32804 0.13593 0.73147 0.0
H3508 H 0.34291 0.12735 0.70417 0.0
H3509 H 0.34576 0.09573 0.69652 0.0
H3510 H 0.31861 0.08231 0.74386 0.0
H3511 H 0.27429 0.14911 0.71773 0.0
H3512 H 0.28226 0.17886 0.72857 0.0
O3513 O 0.33341 0.12979 0.76813 0.0
C3514 C 0.3041 0.12129 0.80118 0.0
C3515 C 0.29935 0.16894 0.74881 0.0
C3516 C 0.28316 0.15058 0.72877 0.0
N3517 N 0.30164 0.13744 0.75088 0.0
C3518 C 0.30626 0.15384 0.75667 0.0
C3519 C 0.29034 0.13576 0.73693 0.0
C3520 C 0.28766 0.16727 0.73482 0.0
C3521 C 0.30962 0.06366 0.79097 0.0
N3522 N 0.31714 0.07496 0.80277 0.0
C3523 C 0.29849 0.05011 0.79652 0.0
C3524 C 0.29455 0.04836 0.81428 0.0
C3525 C 0.3014 0.06041 0.8262 0.0
C3526 C 0.31242 0.0738 0.82016 0.0
C3527 C 0.35654 0.07351 0.84028 0.0
C3528 C 0.34741 0.10655 0.82772 0.0
C3529 C 0.35115 0.07594 0.82301 0.0
N3530 N 0.34576 0.09214 0.8172 0.0
C3531 C 0.35297 0.10462 0.84508 0.0
C3532 C 0.35694 0.08787 0.85149 0.0
C3533 C 0.34737 0.12698 0.77702 0.0
C3534 C 0.3324 0.08698 0.71988 0.0
C3535 C 0.32937 0.12215 0.72854 0.0
C3536 C 0.33774 0.11736 0.7129 0.0
C3537 C 0.33931 0.09964 0.7086 0.0
N3538 N 0.32278 0.10968 0.73973 0.0
C3539 C 0.32412 0.09228 0.73541 0.0
Co3540 Co 0.63125 0.94 0.98583 0.0
Co3541 Co 0.65367 0.91776 0.95257 0.0
O3542 O 0.65267 0.9291 0.97565 0.0
C3543 C 0.66117 0.96539 0.99092 0.0
O3544 O 0.67299 0.95385 0.98633 0.0
C3545 C 0.68013 0.8956 0.97408 0.0
O3546 O 0.67924 0.90505 0.98848 0.0
O3547 O 0.63254 0.90319 0.95938 0.0
O3548 O 0.61723 0.9186 0.97957 0.0
H3549 H 0.62901 0.90452 0.89366 0.0
H3550 H 0.66455 0.93148 0.00621 0.0
O3551 O 0.64487 0.96167 0.99183 0.0
H3552 H 0.6158 0.91026 0.04305 0.0
H3553 H 0.59884 0.97927 0.02848 0.0
H3554 H 0.59247 0.93873 0.97844 0.0
H3555 H 0.6098 0.92421 0.01463 0.0
H3556 H 0.62475 0.96436 0.01613 0.0
O3557 O 0.67014 0.89867 0.96096 0.0
H3558 H 0.62701 0.91043 0.92518 0.0
H3559 H 0.68184 0.90096 0.93095 0.0
H3560 H 0.56629 0.95326 0.99043 0.0
H3561 H 0.67106 0.91775 0.03452 0.0
H3562 H 0.56931 0.97381 0.01563 0.0
H3563 H 0.64662 0.90695 0.05331 0.0
O3564 O 0.62468 0.95163 0.96277 0.0
H3565 H 0.71178 0.94877 0.96183 0.0
H3566 H 0.66316 0.93835 0.92036 0.0
H3567 H 0.68765 0.9575 0.91161 0.0
H3568 H 0.7123 0.96285 0.93237 0.0
H3569 H 0.68684 0.92993 0.97002 0.0
H3570 H 0.68441 0.89441 0.89954 0.0
H3571 H 0.65832 0.89734 0.8803 0.0
O3572 O 0.63823 0.93581 0.94216 0.0
C3573 C 0.61919 0.90515 0.96966 0.0
C3574 C 0.64073 0.90363 0.90162 0.0
C3575 C 0.67174 0.89783 0.90501 0.0
N3576 N 0.65435 0.90654 0.92978 0.0
C3577 C 0.63958 0.90676 0.91961 0.0
C3578 C 0.67011 0.90119 0.92293 0.0
C3579 C 0.65705 0.89959 0.89423 0.0
C3580 C 0.65373 0.92716 0.01413 0.0
N3581 N 0.63675 0.92912 0.00854 0.0
C3582 C 0.65755 0.91923 0.03027 0.0
C3583 C 0.64386 0.91314 0.04079 0.0
C3584 C 0.62659 0.915 0.03505 0.0
C3585 C 0.62329 0.92299 0.01884 0.0
C3586 C 0.59738 0.97053 0.01733 0.0
C3587 C 0.59409 0.94782 0.98911 0.0
C3588 C 0.61207 0.96217 0.01011 0.0
N3589 N 0.61038 0.95109 0.996 0.0
C3590 C 0.57911 0.95594 0.996 0.0
C3591 C 0.58081 0.96744 0.01015 0.0
C3592 C 0.62833 0.94831 0.9467 0.0
C3593 C 0.70123 0.94642 0.95256 0.0
C3594 C 0.6738 0.94045 0.92954 0.0
C3595 C 0.68768 0.95136 0.92445 0.0
C3596 C 0.70149 0.95435 0.93608 0.0
N3597 N 0.67363 0.93254 0.94574 0.0
C3598 C 0.68713 0.93553 0.95713 0.0
Co3599 Co 0.83206 0.40583 0.19873 0.0
Co3600 Co 0.81025 0.38171 0.23006 0.0
O3601 O 0.82074 0.40346 0.22142 0.0
C3602 C 0.85246 0.43246 0.22161 0.0
O3603 O 0.84274 0.43099 0.2358 0.0
C3604 C 0.78213 0.40796 0.2319 0.0
O3605 O 0.78522 0.41051 0.21512 0.0
O3606 O 0.79699 0.37766 0.20739 0.0
O3607 O 0.81479 0.38941 0.18746 0.0
H3608 H 0.79213 0.31812 0.22774 0.0
H3609 H 0.81676 0.43682 0.21819 0.0
O3610 O 0.84992 0.42284 0.20816 0.0
H3611 H 0.79094 0.43931 0.15895 0.0
H3612 H 0.85238 0.4422 0.14806 0.0
H3613 H 0.84819 0.38206 0.17163 0.0
H3614 H 0.81046 0.41497 0.1673 0.0
H3615 H 0.84438 0.43713 0.17881 0.0
O3616 O 0.79037 0.39575 0.23983 0.0
H3617 H 0.80565 0.34536 0.2164 0.0
H3618 H 0.79169 0.37239 0.26327 0.0
H3619 H 0.8538 0.3864 0.13998 0.0
H3620 H 0.79836 0.4621 0.21001 0.0
H3621 H 0.85532 0.41674 0.12788 0.0
H3622 H 0.78519 0.46347 0.18017 0.0
O3623 O 0.84799 0.38514 0.20447 0.0
H3624 H 0.83425 0.41665 0.28093 0.0
H3625 H 0.83214 0.35832 0.25267 0.0
H3626 H 0.84946 0.36228 0.27979 0.0
H3627 H 0.85051 0.3916 0.29417 0.0
H3628 H 0.8173 0.41214 0.25364 0.0
H3629 H 0.77786 0.3455 0.27504 0.0
H3630 H 0.7781 0.31809 0.25727 0.0
O3631 O 0.83004 0.36773 0.22058 0.0
C3632 C 0.80137 0.38009 0.19134 0.0
C3633 C 0.79198 0.32997 0.23563 0.0
C3634 C 0.78394 0.34534 0.26217 0.0
N3635 N 0.79955 0.36041 0.2392 0.0
C3636 C 0.79966 0.34542 0.2293 0.0
C3637 C 0.79174 0.36054 0.25541 0.0
C3638 C 0.78409 0.32997 0.25219 0.0
C3639 C 0.81192 0.43771 0.20497 0.0
N3640 N 0.81585 0.42497 0.19296 0.0
C3641 C 0.80116 0.45192 0.20047 0.0
C3642 C 0.79367 0.45262 0.18377 0.0
C3643 C 0.79687 0.43907 0.17189 0.0
C3644 C 0.80791 0.42524 0.17678 0.0
C3645 C 0.85091 0.42891 0.15287 0.0
C3646 C 0.8482 0.39517 0.16621 0.0
C3647 C 0.84666 0.4259 0.1704 0.0
N3648 N 0.84381 0.40915 0.17639 0.0
C3649 C 0.85156 0.3976 0.14837 0.0
C3650 C 0.85255 0.41462 0.14161 0.0
C3651 C 0.84425 0.3705 0.21216 0.0
C3652 C 0.83377 0.40377 0.27487 0.0
C3653 C 0.83248 0.37111 0.25886 0.0
C3654 C 0.84233 0.37327 0.27422 0.0
C3655 C 0.84292 0.38972 0.28228 0.0
N3656 N 0.82338 0.38492 0.25176 0.0
C3657 C 0.82408 0.40112 0.25949 0.0
Co3658 Co 0.36902 0.55984 0.48178 0.0
Co3659 Co 0.34498 0.58195 0.45015 0.0
O3660 O 0.34761 0.57099 0.47309 0.0
C3661 C 0.33895 0.53562 0.49022 0.0
O3662 O 0.32739 0.54726 0.4852 0.0
C3663 C 0.31986 0.60426 0.4733 0.0
O3664 O 0.32177 0.59554 0.48808 0.0
O3665 O 0.36606 0.59768 0.45525 0.0
O3666 O 0.38278 0.58016 0.47279 0.0
H3667 H 0.36165 0.60319 0.39008 0.0
H3668 H 0.33867 0.56693 0.50686 0.0
O3669 O 0.35541 0.53887 0.49029 0.0
H3670 H 0.38986 0.5975 0.53196 0.0
H3671 H 0.40477 0.52799 0.52758 0.0
H3672 H 0.40446 0.55108 0.46719 0.0
H3673 H 0.39265 0.58104 0.50425 0.0
H3674 H 0.37834 0.54246 0.51561 0.0
O3675 O 0.32835 0.60015 0.4595 0.0
H3676 H 0.36749 0.59816 0.42159 0.0
H3677 H 0.31293 0.59332 0.43132 0.0
H3678 H 0.43137 0.53728 0.47866 0.0
H3679 H 0.33542 0.58285 0.53463 0.0
H3680 H 0.43164 0.52552 0.50914 0.0
H3681 H 0.36113 0.59836 0.54748 0.0
O3682 O 0.37322 0.54704 0.45886 0.0
H3683 H 0.28737 0.55072 0.46191 0.0
H3684 H 0.33671 0.55755 0.42048 0.0
H3685 H 0.31315 0.53653 0.41376 0.0
H3686 H 0.28809 0.53306 0.43444 0.0
H3687 H 0.31169 0.57096 0.46846 0.0
H3688 H 0.30624 0.60093 0.40078 0.0
H3689 H 0.33031 0.6043 0.37956 0.0
O3690 O 0.36144 0.56487 0.43897 0.0
C3691 C 0.38051 0.59404 0.46349 0.0
C3692 C 0.35085 0.60083 0.399 0.0
C3693 C 0.31978 0.59968 0.40502 0.0
N3694 N 0.34083 0.59313 0.42764 0.0
C3695 C 0.35423 0.59754 0.41671 0.0
C3696 C 0.32374 0.59555 0.42236 0.0
C3697 C 0.33344 0.60157 0.3931 0.0
C3698 C 0.35004 0.57319 0.51232 0.0
N3699 N 0.36593 0.57249 0.50395 0.0
C3700 C 0.34807 0.58241 0.5281 0.0
C3701 C 0.36247 0.59116 0.53528 0.0
C3702 C 0.37858 0.59068 0.52658 0.0
C3703 C 0.38004 0.58133 0.51084 0.0
C3704 C 0.40493 0.53333 0.51439 0.0
C3705 C 0.40469 0.54673 0.48059 0.0
C3706 C 0.39002 0.5416 0.50754 0.0
N3707 N 0.39015 0.54858 0.49095 0.0
C3708 C 0.41988 0.53858 0.48697 0.0
C3709 C 0.42 0.53193 0.50404 0.0
C3710 C 0.37099 0.55166 0.44288 0.0
C3711 C 0.29817 0.55215 0.45274 0.0
C3712 C 0.32613 0.55594 0.42984 0.0
C3713 C 0.31268 0.5441 0.42581 0.0
C3714 C 0.29861 0.5422 0.43737 0.0
N3715 N 0.32569 0.56567 0.44502 0.0
C3716 C 0.31189 0.56384 0.45631 0.0
Co3717 Co 0.16531 0.09502 0.70418 0.0
Co3718 Co 0.18826 0.11754 0.73634 0.0
O3719 O 0.17669 0.09663 0.72696 0.0
C3720 C 0.14398 0.07031 0.72772 0.0
O3721 O 0.15465 0.07094 0.74125 0.0
C3722 C 0.2157 0.09086 0.73472 0.0
O3723 O 0.20942 0.08664 0.71926 0.0
O3724 O 0.20114 0.12191 0.71341 0.0
O3725 O 0.18473 0.10862 0.69279 0.0
H3726 H 0.20362 0.18207 0.74197 0.0
H3727 H 0.18004 0.06418 0.72538 0.0
O3728 O 0.14558 0.08076 0.71461 0.0
H3729 H 0.19706 0.05259 0.66415 0.0
H3730 H 0.13534 0.06235 0.65554 0.0
H3731 H 0.15996 0.11948 0.6741 0.0
H3732 H 0.18158 0.07972 0.6718 0.0
H3733 H 0.14523 0.06686 0.6859 0.0
O3734 O 0.20825 0.10253 0.74408 0.0
H3735 H 0.18922 0.1565 0.72853 0.0
H3736 H 0.21114 0.12309 0.76766 0.0
H3737 H 0.15063 0.11527 0.64339 0.0
H3738 H 0.19516 0.03681 0.71822 0.0
H3739 H 0.13925 0.08601 0.63384 0.0
H3740 H 0.20382 0.03066 0.68736 0.0
O3741 O 0.15207 0.11773 0.70871 0.0
H3742 H 0.16716 0.08079 0.78711 0.0
H3743 H 0.16704 0.13996 0.76058 0.0
H3744 H 0.15104 0.13489 0.78833 0.0
H3745 H 0.15106 0.10513 0.80182 0.0
H3746 H 0.18281 0.08644 0.75926 0.0
H3747 H 0.22597 0.14832 0.78126 0.0
H3748 H 0.22231 0.17813 0.76846 0.0
O3749 O 0.16859 0.13281 0.72818 0.0
C3750 C 0.1979 0.11801 0.6973 0.0
C3751 C 0.20553 0.1691 0.74753 0.0
C3752 C 0.21811 0.15018 0.76954 0.0
N3753 N 0.19989 0.13798 0.74669 0.0
C3754 C 0.19743 0.15446 0.73991 0.0
C3755 C 0.20983 0.13585 0.76156 0.0
C3756 C 0.216 0.1669 0.76239 0.0
C3757 C 0.18278 0.06151 0.71183 0.0
N3758 N 0.1785 0.07334 0.69896 0.0
C3759 C 0.19185 0.04601 0.70788 0.0
C3760 C 0.19679 0.0426 0.6906 0.0
C3761 C 0.19298 0.05486 0.6776 0.0
C3762 C 0.18399 0.07024 0.68207 0.0
C3763 C 0.14058 0.07496 0.65955 0.0
C3764 C 0.15444 0.10699 0.67011 0.0
C3765 C 0.14585 0.07776 0.67684 0.0
N3766 N 0.15348 0.09333 0.6817 0.0
C3767 C 0.14928 0.10465 0.65269 0.0
C3768 C 0.14283 0.08833 0.64734 0.0
C3769 C 0.15555 0.13159 0.71773 0.0
C3770 C 0.16711 0.09383 0.78141 0.0
C3771 C 0.1671 0.12696 0.76633 0.0
C3772 C 0.15803 0.12418 0.78208 0.0
C3773 C 0.15806 0.10749 0.78964 0.0
N3774 N 0.17598 0.11351 0.75836 0.0
C3775 C 0.17603 0.09711 0.76569 0.0
Co3776 Co 0.04725 0.14911 0.58382 0.0
Co3777 Co 0.01677 0.12951 0.55709 0.0
O3778 O 0.0257 0.14931 0.57046 0.0
C3779 C 0.02501 0.17683 0.60361 0.0
O3780 O 0.01155 0.17663 0.59283 0.0
C3781 C 0.01729 0.15781 0.5303 0.0
O3782 O 0.03421 0.1596 0.5332 0.0
O3783 O 0.04035 0.12549 0.54502 0.0
O3784 O 0.05867 0.13308 0.56669 0.0
H3785 H 0.01865 0.07009 0.52786 0.0
H3786 H 0.03075 0.18169 0.56825 0.0
O3787 O 0.0375 0.16572 0.60221 0.0
H3788 H 0.09182 0.18177 0.54706 0.0
H3789 H 0.09764 0.18177 0.60954 0.0
H3790 H 0.07362 0.12297 0.597 0.0
H3791 H 0.08102 0.1577 0.56571 0.0
H3792 H 0.06696 0.17809 0.60087 0.0
O3793 O 0.00888 0.14579 0.53827 0.0
H3794 H 0.03024 0.09441 0.54589 0.0
H3795 H 0.98317 0.12343 0.53785 0.0
H3796 H 0.1053 0.12642 0.60342 0.0
H3797 H 0.04116 0.20637 0.55035 0.0
H3798 H 0.11749 0.15583 0.60969 0.0
H3799 H 0.07196 0.20657 0.53949 0.0
O3800 O 0.0387 0.12724 0.59735 0.0
H3801 H 0.96832 0.16682 0.58231 0.0
H3802 H 0.98943 0.10621 0.57442 0.0
H3803 H 0.9624 0.11142 0.59121 0.0
H3804 H 0.95154 0.14196 0.59525 0.0
H3805 H 0.99561 0.16096 0.56596 0.0
H3806 H 0.97098 0.09931 0.51997 0.0
H3807 H 0.98873 0.07234 0.51493 0.0
O3808 O 0.02403 0.113 0.57596 0.0
C3809 C 0.05576 0.12582 0.55188 0.0
C3810 C 0.01074 0.08171 0.53007 0.0
C3811 C 0.98397 0.09809 0.52567 0.0
N3812 N 0.00723 0.11016 0.54336 0.0
C3813 C 0.01725 0.09557 0.54023 0.0
C3814 C 0.99092 0.11167 0.5359 0.0
C3815 C 0.99395 0.08298 0.52282 0.0
C3816 C 0.04436 0.18207 0.56459 0.0
N3817 N 0.0555 0.16883 0.5694 0.0
C3818 C 0.05012 0.19593 0.55399 0.0
C3819 C 0.06735 0.19598 0.54781 0.0
C3820 C 0.07849 0.18208 0.55206 0.0
C3821 C 0.07226 0.16849 0.56272 0.0
C3822 C 0.09264 0.16878 0.60669 0.0
C3823 C 0.07908 0.13579 0.59922 0.0
C3824 C 0.07507 0.16649 0.6021 0.0
N3825 N 0.06885 0.15027 0.59724 0.0
C3826 C 0.09685 0.13766 0.60327 0.0
C3827 C 0.10373 0.15427 0.60669 0.0
C3828 C 0.03055 0.11341 0.59138 0.0
C3829 C 0.97287 0.15344 0.58063 0.0
C3830 C 0.98509 0.11948 0.57619 0.0
C3831 C 0.9696 0.12239 0.58566 0.0
C3832 C 0.96349 0.1395 0.58791 0.0
N3833 N 0.99433 0.1332 0.56912 0.0
C3834 C 0.98832 0.15001 0.57128 0.0
Co3835 Co 0.54564 0.84825 0.91851 0.0
Co3836 Co 0.51398 0.87163 0.94068 0.0
O3837 O 0.52283 0.85043 0.92923 0.0
C3838 C 0.52733 0.82259 0.88953 0.0
O3839 O 0.51141 0.82746 0.88489 0.0
C3840 C 0.51115 0.84322 0.96713 0.0
O3841 O 0.52783 0.83975 0.9645 0.0
O3842 O 0.53708 0.87591 0.95393 0.0
O3843 O 0.55627 0.86415 0.93533 0.0
H3844 H 0.51451 0.9337 0.96433 0.0
H3845 H 0.52763 0.81409 0.92577 0.0
O3846 O 0.53596 0.83159 0.90073 0.0
H3847 H 0.57728 0.81564 0.96736 0.0
H3848 H 0.60438 0.8183 0.90746 0.0
H3849 H 0.56867 0.87062 0.89441 0.0
H3850 H 0.57234 0.84021 0.94719 0.0
H3851 H 0.57379 0.81927 0.91637 0.0
O3852 O 0.50434 0.85656 0.95971 0.0
H3853 H 0.52669 0.90811 0.94882 0.0
H3854 H 0.48021 0.87896 0.95896 0.0
H3855 H 0.59854 0.86837 0.88292 0.0
H3856 H 0.53293 0.78881 0.9451 0.0
H3857 H 0.61652 0.84221 0.88921 0.0
H3858 H 0.55791 0.78939 0.9661 0.0
O3859 O 0.53978 0.86961 0.90328 0.0
H3860 H 0.46478 0.83652 0.91338 0.0
H3861 H 0.49026 0.89568 0.92088 0.0
H3862 H 0.46322 0.89206 0.90335 0.0
H3863 H 0.45021 0.86232 0.89962 0.0
H3864 H 0.49188 0.84071 0.93063 0.0
H3865 H 0.46759 0.90414 0.97494 0.0
H3866 H 0.48472 0.93183 0.97762 0.0
O3867 O 0.523 0.8865 0.92134 0.0
C3868 C 0.55295 0.87374 0.94844 0.0
C3869 C 0.50685 0.92176 0.96313 0.0
C3870 C 0.48055 0.90517 0.96912 0.0
N3871 N 0.50416 0.89209 0.95259 0.0
C3872 C 0.51368 0.90723 0.95419 0.0
C3873 C 0.48781 0.89093 0.96006 0.0
C3874 C 0.49016 0.92069 0.97062 0.0
C3875 C 0.53891 0.81437 0.93437 0.0
N3876 N 0.55 0.82857 0.93461 0.0
C3877 C 0.54168 0.80003 0.94552 0.0
C3878 C 0.55564 0.8004 0.95736 0.0
C3879 C 0.56647 0.81514 0.95812 0.0
C3880 C 0.56337 0.82922 0.94674 0.0
C3881 C 0.5966 0.82993 0.90482 0.0
C3882 C 0.57608 0.85902 0.89758 0.0
C3883 C 0.5792 0.83097 0.91056 0.0
N3884 N 0.56919 0.84577 0.90774 0.0
C3885 C 0.59319 0.85796 0.89091 0.0
C3886 C 0.60346 0.84335 0.89461 0.0
C3887 C 0.53195 0.8842 0.90732 0.0
C3888 C 0.47018 0.84958 0.9151 0.0
C3889 C 0.48461 0.88271 0.91946 0.0
C3890 C 0.46932 0.88074 0.90946 0.0
C3891 C 0.46204 0.86405 0.90735 0.0
N3892 N 0.49233 0.86851 0.92737 0.0
C3893 C 0.48547 0.85206 0.925 0.0
Co3894 Co 0.88315 0.26598 0.19391 0.0
Co3895 Co 0.9007 0.29675 0.16553 0.0
O3896 O 0.90225 0.27513 0.17929 0.0
C3897 C 0.91627 0.26092 0.2153 0.0
O3898 O 0.92663 0.26619 0.20267 0.0
C3899 C 0.92803 0.2745 0.1454 0.0
O3900 O 0.92773 0.26121 0.1564 0.0
O3901 O 0.8787 0.28736 0.15312 0.0
O3902 O 0.86581 0.27237 0.17526 0.0
H3903 H 0.87689 0.35622 0.15163 0.0
H3904 H 0.91417 0.24279 0.18496 0.0
O3905 O 0.8997 0.25979 0.21335 0.0
H3906 H 0.86231 0.21199 0.16152 0.0
H3907 H 0.8552 0.21928 0.23174 0.0
H3908 H 0.84858 0.27919 0.20824 0.0
H3909 H 0.85896 0.23997 0.17729 0.0
H3910 H 0.87844 0.23237 0.2134 0.0
O3911 O 0.91698 0.28709 0.14671 0.0
H3912 H 0.87329 0.3244 0.15737 0.0
H3913 H 0.92742 0.31631 0.14541 0.0
H3914 H 0.82508 0.2667 0.22651 0.0
H3915 H 0.91808 0.2147 0.16968 0.0
H3916 H 0.82807 0.23632 0.2381 0.0
H3917 H 0.89205 0.19904 0.15768 0.0
O3918 O 0.87948 0.28978 0.20545 0.0
H3919 H 0.96048 0.29481 0.19488 0.0
H3920 H 0.90799 0.33098 0.18366 0.0
H3921 H 0.93219 0.34317 0.20117 0.0
H3922 H 0.95882 0.32512 0.20686 0.0
H3923 H 0.93581 0.28324 0.17761 0.0
H3924 H 0.93123 0.3474 0.13905 0.0
H3925 H 0.90689 0.36773 0.14405 0.0
O3926 O 0.88504 0.3077 0.18284 0.0
C3927 C 0.86532 0.27916 0.15989 0.0
C3928 C 0.88788 0.34735 0.14984 0.0
C3929 C 0.9184 0.34244 0.14278 0.0
N3930 N 0.90015 0.31844 0.1521 0.0
C3931 C 0.88587 0.32932 0.15288 0.0
C3932 C 0.91594 0.32464 0.14593 0.0
C3933 C 0.90448 0.35389 0.14542 0.0
C3934 C 0.9027 0.23609 0.18022 0.0
N3935 N 0.88631 0.24315 0.18241 0.0
C3936 C 0.90502 0.22014 0.17137 0.0
C3937 C 0.89044 0.21138 0.1646 0.0
C3938 C 0.87377 0.21864 0.16674 0.0
C3939 C 0.87196 0.2346 0.17566 0.0
C3940 C 0.85354 0.23238 0.22642 0.0
C3941 C 0.85002 0.26599 0.21299 0.0
C3942 C 0.86661 0.23986 0.21588 0.0
N3943 N 0.86451 0.25627 0.20874 0.0
C3944 C 0.83665 0.25897 0.22348 0.0
C3945 C 0.83836 0.24196 0.23004 0.0
C3946 C 0.87942 0.30499 0.19821 0.0
C3947 C 0.9491 0.30295 0.19225 0.0
C3948 C 0.91951 0.32296 0.18585 0.0
C3949 C 0.93321 0.33001 0.19585 0.0
C3950 C 0.94813 0.3199 0.19904 0.0
N3951 N 0.92062 0.30634 0.1789 0.0
C3952 C 0.93516 0.29644 0.1822 0.0
Co3953 Co 0.45023 0.65289 0.41681 0.0
Co3954 Co 0.48334 0.63113 0.43946 0.0
O3955 O 0.47342 0.65183 0.42778 0.0
C3956 C 0.47286 0.67687 0.39365 0.0
O3957 O 0.48689 0.67593 0.40363 0.0
C3958 C 0.48345 0.65793 0.46733 0.0
O3959 O 0.46768 0.66243 0.46201 0.0
O3960 O 0.46076 0.62669 0.45301 0.0
O3961 O 0.43971 0.63925 0.43656 0.0
H3962 H 0.48646 0.56775 0.45868 0.0
H3963 H 0.47139 0.68387 0.43008 0.0
O3964 O 0.45939 0.66731 0.39652 0.0
H3965 H 0.41119 0.69386 0.45151 0.0
H3966 H 0.40065 0.68413 0.38666 0.0
H3967 H 0.42059 0.62768 0.41178 0.0
H3968 H 0.41828 0.6673 0.43464 0.0
H3969 H 0.43066 0.68091 0.39782 0.0
O3970 O 0.49209 0.64618 0.45918 0.0
H3971 H 0.47314 0.59352 0.44426 0.0
H3972 H 0.51671 0.62509 0.45911 0.0
H3973 H 0.39014 0.63045 0.40095 0.0
H3974 H 0.46482 0.71067 0.44664 0.0
H3975 H 0.37999 0.6594 0.38879 0.0
H3976 H 0.43448 0.71595 0.45753 0.0
O3977 O 0.45507 0.63024 0.40343 0.0
H3978 H 0.53283 0.66793 0.41554 0.0
H3979 H 0.50712 0.60843 0.41799 0.0
H3980 H 0.53414 0.61345 0.40075 0.0
H3981 H 0.54722 0.64337 0.39949 0.0
H3982 H 0.50565 0.66232 0.43238 0.0
H3983 H 0.53045 0.59975 0.47384 0.0
H3984 H 0.51534 0.57078 0.47368 0.0
O3985 O 0.47477 0.61567 0.42017 0.0
C3986 C 0.44458 0.63049 0.44998 0.0
C3987 C 0.49315 0.58032 0.45892 0.0
C3988 C 0.51781 0.59827 0.46746 0.0
N3989 N 0.49391 0.61089 0.45103 0.0
C3990 C 0.48563 0.59497 0.45076 0.0
C3991 C 0.50987 0.61263 0.45918 0.0
C3992 C 0.50934 0.58202 0.46733 0.0
C3993 C 0.45802 0.68623 0.43397 0.0
N3994 N 0.44508 0.67433 0.43019 0.0
C3995 C 0.45443 0.70137 0.44374 0.0
C3996 C 0.43745 0.70429 0.44991 0.0
C3997 C 0.42439 0.69194 0.44651 0.0
C3998 C 0.4285 0.67693 0.43677 0.0
C3999 C 0.4049 0.67168 0.39209 0.0
C4000 C 0.41626 0.64002 0.4062 0.0
C4001 C 0.42201 0.66964 0.39819 0.0
N4002 N 0.42734 0.65414 0.40565 0.0
C4003 C 0.39899 0.64156 0.40012 0.0
C4004 C 0.39329 0.65763 0.3933 0.0
C4005 C 0.46452 0.61665 0.40695 0.0
C4006 C 0.52733 0.65481 0.41607 0.0
C4007 C 0.51271 0.62149 0.4175 0.0
C4008 C 0.52804 0.62425 0.40774 0.0
C4009 C 0.53537 0.64103 0.40704 0.0
N4010 N 0.50493 0.63507 0.42638 0.0
C4011 C 0.51202 0.65155 0.4257 0.0
Co4012 Co 0.61748 0.73296 0.68396 0.0
Co4013 Co 0.59244 0.69904 0.6657 0.0
O4014 O 0.59511 0.72276 0.67541 0.0
C4015 C 0.58952 0.74136 0.7105 0.0
O4016 O 0.57672 0.73687 0.70002 0.0
C4017 C 0.5647 0.72058 0.64522 0.0
O4018 O 0.56707 0.73539 0.65374 0.0
O4019 O 0.6122 0.70461 0.64872 0.0
O4020 O 0.62949 0.72477 0.66229 0.0
H4021 H 0.61096 0.63648 0.65617 0.0
H4022 H 0.58449 0.75493 0.67674 0.0
O4023 O 0.6056 0.74066 0.70594 0.0
H4024 H 0.63337 0.78663 0.64874 0.0
H4025 H 0.65319 0.77718 0.71822 0.0
H4026 H 0.65606 0.7245 0.68078 0.0
H4027 H 0.63864 0.75852 0.66362 0.0
H4028 H 0.62622 0.76468 0.70551 0.0
O4029 O 0.57435 0.70717 0.64807 0.0
H4030 H 0.61607 0.66757 0.66155 0.0
H4031 H 0.56226 0.67867 0.6507 0.0
H4032 H 0.68329 0.73656 0.69314 0.0
H4033 H 0.57871 0.78294 0.66218 0.0
H4034 H 0.68203 0.76309 0.71214 0.0
H4035 H 0.60324 0.7992 0.64802 0.0
O4036 O 0.6245 0.71043 0.69644 0.0
H4037 H 0.53846 0.71183 0.70227 0.0
H4038 H 0.58448 0.66828 0.68899 0.0
H4039 H 0.56207 0.66138 0.71117 0.0
H4040 H 0.53878 0.68324 0.71806 0.0
H4041 H 0.56116 0.71801 0.6801 0.0
H4042 H 0.55701 0.64773 0.64375 0.0
H4043 H 0.58106 0.6261 0.64722 0.0
O4044 O 0.60966 0.68937 0.68248 0.0
C4045 C 0.62617 0.7143 0.64958 0.0
C4046 C 0.60029 0.64569 0.65433 0.0
C4047 C 0.57006 0.65205 0.64748 0.0
N4048 N 0.58968 0.67538 0.65607 0.0
C4049 C 0.60316 0.66354 0.65732 0.0
C4050 C 0.5733 0.66976 0.651 0.0
C4051 C 0.58359 0.63991 0.64945 0.0
C4052 C 0.59538 0.7618 0.67113 0.0
N4053 N 0.61204 0.75508 0.67188 0.0
C4054 C 0.59196 0.77775 0.66264 0.0
C4055 C 0.6057 0.78684 0.65465 0.0
C4056 C 0.62258 0.77982 0.65507 0.0
C4057 C 0.62547 0.76385 0.66365 0.0
C4058 C 0.6539 0.76546 0.71016 0.0
C4059 C 0.6552 0.73575 0.68923 0.0
C4060 C 0.6386 0.75816 0.70305 0.0
N4061 N 0.6393 0.74329 0.69289 0.0
C4062 C 0.67077 0.74268 0.6961 0.0
C4063 C 0.67007 0.75758 0.70672 0.0
C4064 C 0.62076 0.69425 0.69377 0.0
C4065 C 0.54844 0.70212 0.69933 0.0
C4066 C 0.57434 0.67786 0.69162 0.0
C4067 C 0.56167 0.67385 0.70432 0.0
C4068 C 0.54864 0.68611 0.70819 0.0
N4069 N 0.57405 0.6936 0.68285 0.0
C4070 C 0.56129 0.70556 0.68664 0.0
Co4071 Co 0.95029 0.85098 0.57778 0.0
Co4072 Co 0.98602 0.86908 0.55593 0.0
O4073 O 0.97422 0.84956 0.56854 0.0
C4074 C 0.96833 0.82985 0.60834 0.0
O4075 O 0.98419 0.82816 0.60175 0.0
C4076 C 0.99152 0.83633 0.53416 0.0
O4077 O 0.98222 0.82669 0.54495 0.0
O4078 O 0.96435 0.87453 0.54116 0.0
O4079 O 0.94212 0.86298 0.55643 0.0
H4080 H 0.99345 0.93119 0.53414 0.0
H4081 H 0.96775 0.81573 0.57559 0.0
O4082 O 0.95657 0.83832 0.59986 0.0
H4083 H 0.91252 0.80963 0.54231 0.0
H4084 H 0.89512 0.83105 0.60892 0.0
H4085 H 0.92473 0.87971 0.57873 0.0
H4086 H 0.92024 0.83775 0.55636 0.0
H4087 H 0.924 0.82631 0.59426 0.0
O4088 O 0.99412 0.85265 0.53692 0.0
H4089 H 0.97832 0.90697 0.54945 0.0
H4090 H 0.02013 0.87214 0.53671 0.0
H4091 H 0.89662 0.88477 0.59283 0.0
H4092 H 0.96028 0.7872 0.56237 0.0
H4093 H 0.88323 0.86094 0.61126 0.0
H4094 H 0.93255 0.78401 0.54539 0.0
O4095 O 0.95592 0.87415 0.58946 0.0
H4096 H 0.03167 0.83081 0.58525 0.0
H4097 H 0.011 0.89153 0.57596 0.0
H4098 H 0.03692 0.88622 0.59462 0.0
H4099 H 0.04749 0.85567 0.59934 0.0
H4100 H 0.00571 0.83666 0.56693 0.0
H4101 H 0.03563 0.89597 0.52113 0.0
H4102 H 0.02231 0.92577 0.51979 0.0
O4103 O 0.97815 0.88624 0.57413 0.0
C4104 C 0.94794 0.87121 0.54324 0.0
C4105 C 0.99935 0.91824 0.53455 0.0
C4106 C 0.023 0.89847 0.52722 0.0
N4107 N 0.99813 0.88804 0.54374 0.0
C4108 C 0.99082 0.90444 0.54319 0.0
C4109 C 0.01408 0.88499 0.53596 0.0
C4110 C 0.01554 0.91519 0.5265 0.0
C4111 C 0.95554 0.81447 0.56854 0.0
N4112 N 0.94458 0.82858 0.56666 0.0
C4113 C 0.95144 0.79826 0.56091 0.0
C4114 C 0.93591 0.79649 0.55135 0.0
C4115 C 0.92471 0.81086 0.54957 0.0
C4116 C 0.92927 0.82685 0.55737 0.0
C4117 C 0.90204 0.84182 0.60283 0.0
C4118 C 0.91867 0.86909 0.58576 0.0
C4119 C 0.91811 0.83923 0.59433 0.0
N4120 N 0.92663 0.85308 0.58676 0.0
C4121 C 0.90277 0.87212 0.5941 0.0
C4122 C 0.89505 0.85866 0.60375 0.0
C4123 C 0.96679 0.88666 0.58639 0.0
C4124 C 0.02729 0.84419 0.58317 0.0
C4125 C 0.01552 0.87819 0.57783 0.0
C4126 C 0.03023 0.87527 0.58845 0.0
C4127 C 0.03614 0.85814 0.5911 0.0
N4128 N 0.00695 0.86445 0.56996 0.0
C4129 C 0.01262 0.84761 0.57264 0.0
Co4130 Co 0.88431 0.2334 0.30688 0.0
Co4131 Co 0.90376 0.20079 0.33194 0.0
O4132 O 0.90427 0.22333 0.31954 0.0
C4133 C 0.91666 0.24245 0.28529 0.0
O4134 O 0.92759 0.23788 0.29772 0.0
C4135 C 0.9333 0.22132 0.35072 0.0
O4136 O 0.93361 0.23465 0.33977 0.0
O4137 O 0.88242 0.2092 0.34608 0.0
O4138 O 0.86795 0.22519 0.32558 0.0
H4139 H 0.87935 0.14648 0.36192 0.0
H4140 H 0.91483 0.25663 0.3186 0.0
O4141 O 0.90004 0.24183 0.28746 0.0
H4142 H 0.86162 0.28348 0.34372 0.0
H4143 H 0.85335 0.28274 0.2751 0.0
H4144 H 0.85118 0.21969 0.28879 0.0
H4145 H 0.85945 0.25671 0.32576 0.0
H4146 H 0.87722 0.26892 0.29186 0.0
O4147 O 0.92126 0.20962 0.34998 0.0
H4148 H 0.87693 0.17512 0.34706 0.0
H4149 H 0.93259 0.17963 0.34637 0.0
H4150 H 0.82686 0.23304 0.27276 0.0
H4151 H 0.91752 0.2835 0.33606 0.0
H4152 H 0.82765 0.26491 0.26575 0.0
H4153 H 0.8908 0.29724 0.34884 0.0
O4154 O 0.88079 0.2104 0.294 0.0
H4155 H 0.96031 0.20331 0.29645 0.0
H4156 H 0.90939 0.16702 0.31313 0.0
H4157 H 0.93141 0.15504 0.29283 0.0
H4158 H 0.9573 0.17312 0.28444 0.0
H4159 H 0.93748 0.21487 0.31615 0.0
H4160 H 0.93551 0.15175 0.36202 0.0
H4161 H 0.90915 0.13501 0.36992 0.0
O4162 O 0.88705 0.19065 0.31503 0.0
C4163 C 0.86828 0.21673 0.3401 0.0
C4164 C 0.89106 0.15361 0.35827 0.0
C4165 C 0.9226 0.15658 0.35842 0.0
N4166 N 0.90451 0.1788 0.345 0.0
C4167 C 0.88973 0.16979 0.34965 0.0
C4168 C 0.92077 0.1725 0.34969 0.0
C4169 C 0.90766 0.14705 0.36263 0.0
C4170 C 0.90307 0.26253 0.32357 0.0
N4171 N 0.88697 0.25521 0.32037 0.0
C4172 C 0.9047 0.27778 0.33371 0.0
C4173 C 0.88972 0.28546 0.34093 0.0
C4174 C 0.87337 0.27775 0.33806 0.0
C4175 C 0.87226 0.26253 0.32785 0.0
C4176 C 0.85249 0.26898 0.27865 0.0
C4177 C 0.85131 0.23368 0.28711 0.0
C4178 C 0.86591 0.26106 0.28839 0.0
N4179 N 0.86487 0.24375 0.29336 0.0
C4180 C 0.83761 0.24114 0.27741 0.0
C4181 C 0.83811 0.25898 0.27336 0.0
C4182 C 0.88012 0.19479 0.30044 0.0
C4183 C 0.94921 0.1952 0.30015 0.0
C4184 C 0.92057 0.1751 0.30968 0.0
C4185 C 0.93303 0.16816 0.29811 0.0
C4186 C 0.94751 0.17829 0.29339 0.0
N4187 N 0.92242 0.19168 0.31659 0.0
C4188 C 0.93632 0.20174 0.31154 0.0
Co4189 Co 0.12205 0.26498 0.8102 0.0
Co4190 Co 0.09814 0.29634 0.83302 0.0
O4191 O 0.10021 0.27401 0.82058 0.0
C4192 C 0.09333 0.26063 0.78361 0.0
O4193 O 0.08125 0.26436 0.79522 0.0
C4194 C 0.0692 0.2744 0.85238 0.0
O4195 O 0.06962 0.25992 0.843 0.0
O4196 O 0.11742 0.28818 0.84949 0.0
O4197 O 0.13461 0.27057 0.8326 0.0
H4198 H 0.11769 0.35249 0.8618 0.0
H4199 H 0.08894 0.24352 0.81683 0.0
O4200 O 0.1096 0.25976 0.78756 0.0
H4201 H 0.13791 0.20651 0.83717 0.0
H4202 H 0.15874 0.22529 0.77166 0.0
H4203 H 0.15946 0.27597 0.81214 0.0
H4204 H 0.14365 0.23589 0.82522 0.0
H4205 H 0.13131 0.23565 0.78555 0.0
O4206 O 0.0796 0.28713 0.84936 0.0
H4207 H 0.12182 0.32245 0.85046 0.0
H4208 H 0.06682 0.31678 0.84422 0.0
H4209 H 0.18723 0.26572 0.79891 0.0
H4210 H 0.08271 0.21427 0.82854 0.0
H4211 H 0.18698 0.24027 0.77843 0.0
H4212 H 0.10726 0.19537 0.83886 0.0
O4213 O 0.12836 0.28853 0.79994 0.0
H4214 H 0.04257 0.29044 0.79707 0.0
H4215 H 0.09317 0.3285 0.81088 0.0
H4216 H 0.07147 0.33825 0.78902 0.0
H4217 H 0.04582 0.31925 0.78202 0.0
H4218 H 0.06498 0.28098 0.81832 0.0
H4219 H 0.06187 0.34611 0.85657 0.0
H4220 H 0.08729 0.36454 0.86482 0.0
O4221 O 0.11647 0.30781 0.81816 0.0
C4222 C 0.13136 0.27869 0.84701 0.0
C4223 C 0.10646 0.34481 0.85786 0.0
C4224 C 0.07515 0.34121 0.85495 0.0
N4225 N 0.09488 0.31829 0.84564 0.0
C4226 C 0.10884 0.32785 0.8513 0.0
C4227 C 0.0781 0.32449 0.84811 0.0
C4228 C 0.08947 0.35158 0.85946 0.0
C4229 C 0.09983 0.23555 0.82086 0.0
N4230 N 0.11675 0.24159 0.81968 0.0
C4231 C 0.09616 0.21888 0.82769 0.0
C4232 C 0.10991 0.2083 0.83351 0.0
C4233 C 0.12709 0.21453 0.83256 0.0
C4234 C 0.13024 0.23126 0.82567 0.0
C4235 C 0.15901 0.23639 0.78058 0.0
C4236 C 0.15925 0.26471 0.80347 0.0
C4237 C 0.1435 0.2424 0.7884 0.0
N4238 N 0.14376 0.25635 0.79976 0.0
C4239 C 0.17502 0.25904 0.79591 0.0
C4240 C 0.17486 0.24478 0.7844 0.0
C4241 C 0.12669 0.30422 0.80541 0.0
C4242 C 0.05364 0.29889 0.80003 0.0
C4243 C 0.08227 0.31993 0.80777 0.0
C4244 C 0.0699 0.32564 0.79545 0.0
C4245 C 0.0555 0.31502 0.79156 0.0
N4246 N 0.0804 0.30403 0.81606 0.0
C4247 C 0.06629 0.29364 0.81228 0.0
Co4248 Co 0.58348 0.04758 0.15005 0.0
Co4249 Co 0.55868 0.01396 0.13348 0.0
O4250 O 0.57066 0.02569 0.15305 0.0
C4251 C 0.60274 0.02849 0.17967 0.0
O4252 O 0.59287 0.01443 0.17848 0.0
C4253 C 0.53168 0.01566 0.1614 0.0
O4254 O 0.53487 0.03258 0.16224 0.0
O4255 O 0.54534 0.03621 0.12717 0.0
O4256 O 0.56686 0.0556 0.13201 0.0
H4257 H 0.53387 0.00817 0.07238 0.0
H4258 H 0.56838 0.0363 0.18442 0.0
O4259 O 0.60112 0.04126 0.16888 0.0
H4260 H 0.54433 0.09544 0.17432 0.0
H4261 H 0.61081 0.10485 0.16891 0.0
H4262 H 0.59533 0.06673 0.11885 0.0
H4263 H 0.5639 0.08172 0.15249 0.0
H4264 H 0.59888 0.07503 0.17399 0.0
O4265 O 0.53955 0.00653 0.14981 0.0
H4266 H 0.54949 0.02309 0.09656 0.0
H4267 H 0.54076 0.97922 0.13 0.0
H4268 H 0.60758 0.09559 0.11317 0.0
H4269 H 0.54973 0.04982 0.2071 0.0
H4270 H 0.61529 0.11534 0.13827 0.0
H4271 H 0.53735 0.07962 0.20205 0.0
O4272 O 0.59832 0.03634 0.131 0.0
H4273 H 0.58328 0.96902 0.17531 0.0
H4274 H 0.57862 0.98633 0.11316 0.0
H4275 H 0.59576 0.96011 0.121 0.0
H4276 H 0.59814 0.95117 0.15232 0.0
H4277 H 0.5666 0.99545 0.16681 0.0
H4278 H 0.52505 0.9638 0.10619 0.0
H4279 H 0.52162 0.97824 0.07708 0.0
O4280 O 0.57785 0.02088 0.11659 0.0
C4281 C 0.55189 0.05168 0.12592 0.0
C4282 C 0.53537 0.00169 0.08497 0.0
C4283 C 0.53043 0.97679 0.10393 0.0
N4284 N 0.5464 0.00192 0.11456 0.0
C4285 C 0.54422 0.01008 0.09871 0.0
C4286 C 0.53937 0.98559 0.11736 0.0
C4287 C 0.52849 0.9849 0.08761 0.0
C4288 C 0.56399 0.04958 0.18259 0.0
N4289 N 0.56833 0.05854 0.16766 0.0
C4290 C 0.55302 0.05706 0.19528 0.0
C4291 C 0.546 0.07372 0.1924 0.0
C4292 C 0.54991 0.08259 0.17686 0.0
C4293 C 0.56106 0.07473 0.16454 0.0
C4294 C 0.60739 0.09654 0.15788 0.0
C4295 C 0.59883 0.07492 0.12989 0.0
C4296 C 0.60084 0.07961 0.16066 0.0
N4297 N 0.59609 0.06933 0.1467 0.0
C4298 C 0.60562 0.0915 0.12662 0.0
C4299 C 0.60969 0.10251 0.14069 0.0
C4300 C 0.59319 0.02774 0.11733 0.0
C4301 C 0.58238 0.97277 0.16161 0.0
C4302 C 0.5798 0.98283 0.12677 0.0
C4303 C 0.58942 0.96781 0.13116 0.0
C4304 C 0.59073 0.96278 0.14872 0.0
N4305 N 0.57168 0.99265 0.13946 0.0
C4306 C 0.5729 0.98772 0.15669 0.0
Co4307 Co 0.20013 0.83547 0.39958 0.0
Co4308 Co 0.23147 0.80943 0.37929 0.0
O4309 O 0.22206 0.82257 0.39907 0.0
C4310 C 0.22146 0.85519 0.42803 0.0
O4311 O 0.23512 0.84464 0.42808 0.0
C4312 C 0.22883 0.78113 0.40572 0.0
O4313 O 0.21219 0.78511 0.40784 0.0
O4314 O 0.20744 0.79806 0.37369 0.0
O4315 O 0.18878 0.81859 0.38379 0.0
H4316 H 0.23641 0.78373 0.31792 0.0
H4317 H 0.21822 0.8187 0.43089 0.0
O4318 O 0.20966 0.85409 0.41615 0.0
H4319 H 0.15751 0.79669 0.43259 0.0
H4320 H 0.14908 0.85776 0.43389 0.0
H4321 H 0.17328 0.85088 0.37425 0.0
H4322 H 0.16701 0.8165 0.40893 0.0
H4323 H 0.18007 0.8502 0.42944 0.0
O4324 O 0.23831 0.78978 0.39513 0.0
H4325 H 0.22116 0.79825 0.34242 0.0
H4326 H 0.26486 0.78964 0.37577 0.0
H4327 H 0.14155 0.85724 0.37805 0.0
H4328 H 0.20918 0.79944 0.45498 0.0
H4329 H 0.12934 0.86 0.40838 0.0
H4330 H 0.17853 0.78825 0.45611 0.0
O4331 O 0.20767 0.84904 0.37728 0.0
H4332 H 0.28114 0.82984 0.41801 0.0
H4333 H 0.25772 0.82892 0.35753 0.0
H4334 H 0.28577 0.84411 0.36358 0.0
H4335 H 0.29767 0.84459 0.39399 0.0
H4336 H 0.2531 0.81494 0.41141 0.0
H4337 H 0.27997 0.77346 0.35227 0.0
H4338 H 0.26608 0.77093 0.32283 0.0
O4339 O 0.22504 0.82895 0.36331 0.0
C4340 C 0.19184 0.80474 0.3751 0.0
C4341 C 0.2428 0.7851 0.33056 0.0
C4342 C 0.26722 0.77932 0.34981 0.0
N4343 N 0.2424 0.79609 0.3602 0.0
C4344 C 0.23432 0.79384 0.34436 0.0
C4345 C 0.2585 0.7885 0.36311 0.0
C4346 C 0.25941 0.77787 0.33333 0.0
C4347 C 0.20465 0.81499 0.43171 0.0
N4348 N 0.19284 0.82041 0.41929 0.0
C4349 C 0.19968 0.80355 0.44521 0.0
C4350 C 0.18254 0.79716 0.44576 0.0
C4351 C 0.17075 0.80192 0.4326 0.0
C4352 C 0.17623 0.81332 0.41928 0.0
C4353 C 0.15414 0.85588 0.42071 0.0
C4354 C 0.16778 0.85156 0.3872 0.0
C4355 C 0.1718 0.85191 0.41801 0.0
N4356 N 0.17806 0.84832 0.40147 0.0
C4357 C 0.14994 0.85548 0.38935 0.0
C4358 C 0.14305 0.8571 0.40628 0.0
C4359 C 0.21632 0.84335 0.36356 0.0
C4360 C 0.27613 0.82966 0.40469 0.0
C4361 C 0.26279 0.82913 0.37082 0.0
C4362 C 0.2787 0.83771 0.37415 0.0
C4363 C 0.28538 0.83796 0.39121 0.0
N4364 N 0.25383 0.82091 0.38409 0.0
C4365 C 0.26029 0.82117 0.40086 0.0
Co4366 Co 0.41999 0.45002 0.65038 0.0
Co4367 Co 0.44039 0.48675 0.63216 0.0
O4368 O 0.4305 0.47364 0.65242 0.0
C4369 C 0.39927 0.46764 0.68019 0.0
O4370 O 0.40841 0.48225 0.67949 0.0
C4371 C 0.46479 0.49336 0.66293 0.0
O4372 O 0.45397 0.48628 0.67423 0.0
O4373 O 0.45495 0.46563 0.62469 0.0
O4374 O 0.43825 0.44291 0.63309 0.0
H4375 H 0.45419 0.49723 0.56814 0.0
H4376 H 0.43465 0.46391 0.684 0.0
O4377 O 0.40152 0.45537 0.66889 0.0
H4378 H 0.45971 0.40467 0.67834 0.0
H4379 H 0.3974 0.39167 0.67185 0.0
H4380 H 0.4131 0.42713 0.61998 0.0
H4381 H 0.44031 0.41653 0.65545 0.0
H4382 H 0.40414 0.42323 0.67498 0.0
O4383 O 0.46106 0.49456 0.64664 0.0
H4384 H 0.44179 0.48109 0.59328 0.0
H4385 H 0.45949 0.5209 0.62827 0.0
H4386 H 0.40723 0.39576 0.61639 0.0
H4387 H 0.45481 0.45308 0.70684 0.0
H4388 H 0.39999 0.37748 0.64237 0.0
H4389 H 0.46731 0.42302 0.70427 0.0
O4390 O 0.40405 0.45881 0.63097 0.0
H4391 H 0.41396 0.53191 0.67358 0.0
H4392 H 0.4182 0.51177 0.61218 0.0
H4393 H 0.40032 0.53775 0.61916 0.0
H4394 H 0.39816 0.54812 0.65005 0.0
H4395 H 0.43144 0.50597 0.6661 0.0
H4396 H 0.47228 0.53737 0.60348 0.0
H4397 H 0.46967 0.52557 0.57313 0.0
O4398 O 0.42043 0.47907 0.61694 0.0
C4399 C 0.45179 0.4491 0.62551 0.0
C4400 C 0.45554 0.50245 0.58132 0.0
C4401 C 0.46572 0.52494 0.60115 0.0
N4402 N 0.45026 0.49973 0.61237 0.0
C4403 C 0.44856 0.49333 0.59566 0.0
C4404 C 0.45858 0.51544 0.61518 0.0
C4405 C 0.46421 0.51835 0.58413 0.0
C4406 C 0.44007 0.45102 0.6827 0.0
N4407 N 0.43576 0.44093 0.66857 0.0
C4408 C 0.45151 0.44486 0.6957 0.0
C4409 C 0.45852 0.42803 0.69425 0.0
C4410 C 0.45423 0.41773 0.67976 0.0
C4411 C 0.44303 0.42452 0.66688 0.0
C4412 C 0.40096 0.39937 0.66041 0.0
C4413 C 0.40956 0.41947 0.63137 0.0
C4414 C 0.40435 0.41734 0.66204 0.0
N4415 N 0.40953 0.42691 0.64771 0.0
C4416 C 0.40629 0.40161 0.62926 0.0
C4417 C 0.40241 0.3914 0.64393 0.0
C4418 C 0.40681 0.46939 0.61809 0.0
C4419 C 0.41495 0.52764 0.66004 0.0
C4420 C 0.41748 0.51613 0.62568 0.0
C4421 C 0.40726 0.5309 0.62954 0.0
C4422 C 0.40605 0.53671 0.64685 0.0
N4423 N 0.42644 0.50737 0.63864 0.0
C4424 C 0.42505 0.51292 0.65567 0.0
Co4425 Co 0.79421 0.66879 0.9007 0.0
Co4426 Co 0.76384 0.69297 0.87725 0.0
O4427 O 0.77214 0.68054 0.89797 0.0
C4428 C 0.77442 0.6385 0.92395 0.0
O4429 O 0.75794 0.63468 0.92048 0.0
C4430 C 0.76444 0.71952 0.90534 0.0
O4431 O 0.78112 0.71562 0.90724 0.0
O4432 O 0.78782 0.70482 0.87291 0.0
O4433 O 0.80613 0.68638 0.88689 0.0
H4434 H 0.76048 0.71452 0.81426 0.0
H4435 H 0.77408 0.67488 0.9339 0.0
O4436 O 0.78215 0.6503 0.9149 0.0
H4437 H 0.8259 0.71358 0.93855 0.0
H4438 H 0.85035 0.65445 0.93355 0.0
H4439 H 0.81838 0.64604 0.87799 0.0
H4440 H 0.82168 0.69519 0.91246 0.0
H4441 H 0.81951 0.66256 0.93145 0.0
O4442 O 0.75577 0.71223 0.89305 0.0
H4443 H 0.77414 0.6996 0.83936 0.0
H4444 H 0.73152 0.71411 0.8722 0.0
H4445 H 0.84827 0.63479 0.88101 0.0
H4446 H 0.77835 0.69263 0.96058 0.0
H4447 H 0.86468 0.63923 0.90871 0.0
H4448 H 0.80447 0.71207 0.96313 0.0
O4449 O 0.78945 0.65545 0.8778 0.0
H4450 H 0.7137 0.66805 0.91283 0.0
H4451 H 0.73896 0.67435 0.85342 0.0
H4452 H 0.71125 0.65793 0.85735 0.0
H4453 H 0.69839 0.65477 0.88721 0.0
H4454 H 0.74147 0.68413 0.90834 0.0
H4455 H 0.71767 0.72991 0.84767 0.0
H4456 H 0.73198 0.72997 0.81831 0.0
O4457 O 0.77194 0.67364 0.86171 0.0
C4458 C 0.80342 0.69929 0.87684 0.0
C4459 C 0.75411 0.71461 0.827 0.0
C4460 C 0.73012 0.72326 0.84572 0.0
N4461 N 0.75388 0.70583 0.85736 0.0
C4462 C 0.76186 0.70604 0.8413 0.0
C4463 C 0.73818 0.7144 0.85964 0.0
C4464 C 0.73813 0.72328 0.82926 0.0
C4465 C 0.78574 0.6829 0.93499 0.0
N4466 N 0.79789 0.68327 0.92172 0.0
C4467 C 0.78797 0.69312 0.95009 0.0
C4468 C 0.80259 0.70408 0.9515 0.0
C4469 C 0.81459 0.70497 0.9377 0.0
C4470 C 0.81194 0.69459 0.92279 0.0
C4471 C 0.84348 0.65299 0.92117 0.0
C4472 C 0.82511 0.64838 0.89019 0.0
C4473 C 0.82593 0.6581 0.91965 0.0
N4474 N 0.81715 0.657 0.9039 0.0
C4475 C 0.84224 0.64186 0.89172 0.0
C4476 C 0.85155 0.64446 0.90721 0.0
C4477 C 0.78173 0.66006 0.8633 0.0
C4478 C 0.71904 0.66954 0.89971 0.0
C4479 C 0.73336 0.6732 0.86644 0.0
C4480 C 0.71769 0.66383 0.86859 0.0
C4481 C 0.71048 0.66205 0.88535 0.0
N4482 N 0.74154 0.68079 0.88055 0.0
C4483 C 0.73468 0.67882 0.89706 0.0
Co4484 Co 0.58378 0.95349 0.84599 0.0
Co4485 Co 0.56062 0.98706 0.86657 0.0
O4486 O 0.57273 0.97657 0.8464 0.0
C4487 C 0.60626 0.9748 0.82011 0.0
O4488 O 0.59653 0.98903 0.82092 0.0
C4489 C 0.53256 0.98292 0.84035 0.0
O4490 O 0.53813 0.9668 0.83797 0.0
O4491 O 0.54875 0.96391 0.87359 0.0
O4492 O 0.56494 0.94331 0.86027 0.0
H4493 H 0.55523 0.01436 0.92763 0.0
H4494 H 0.57044 0.97291 0.81395 0.0
O4495 O 0.60374 0.96189 0.83055 0.0
H4496 H 0.54442 0.9139 0.81011 0.0
H4497 H 0.6046 0.90021 0.81432 0.0
H4498 H 0.59034 0.92521 0.87228 0.0
H4499 H 0.56322 0.92182 0.83504 0.0
H4500 H 0.60085 0.93205 0.81792 0.0
O4501 O 0.54049 0.99317 0.85086 0.0
H4502 H 0.57044 -0.00053 0.90392 0.0
H4503 H 0.52274 0.99771 0.87435 0.0
H4504 H 0.59292 0.89332 0.86914 0.0
H4505 H 0.55222 0.96539 0.78848 0.0
H4506 H 0.59941 0.88049 0.83967 0.0
H4507 H 0.53898 0.93562 0.78634 0.0
O4508 O 0.5972 0.95946 0.86871 0.0
H4509 H 0.57666 0.03569 0.82464 0.0
H4510 H 0.58569 0.01291 0.88443 0.0
H4511 H 0.59942 0.04061 0.87598 0.0
H4512 H 0.59508 0.05234 0.84584 0.0
H4513 H 0.56269 0.00808 0.83378 0.0
H4514 H 0.50763 0.01345 0.89755 0.0
H4515 H 0.52365 0.02198 0.92464 0.0
O4516 O 0.58084 0.98063 0.88184 0.0
C4517 C 0.55223 0.94777 0.86989 0.0
C4518 C 0.54818 0.0111 0.91569 0.0
C4519 C 0.52153 0.01057 0.89887 0.0
N4520 N 0.54823 0.99836 0.88656 0.0
C4521 C 0.55683 0.00263 0.90186 0.0
C4522 C 0.53051 0.00181 0.88542 0.0
C4523 C 0.53048 0.01531 0.91406 0.0
C4524 C 0.56585 0.95965 0.81268 0.0
N4525 N 0.56954 0.94744 0.82532 0.0
C4526 C 0.55501 0.95557 0.79841 0.0
C4527 C 0.54748 0.93893 0.79727 0.0
C4528 C 0.55055 0.92675 0.81056 0.0
C4529 C 0.56143 0.93132 0.82462 0.0
C4530 C 0.60143 0.90558 0.8271 0.0
C4531 C 0.5935 0.91981 0.85962 0.0
C4532 C 0.59977 0.92369 0.82936 0.0
N4533 N 0.59459 0.93043 0.84523 0.0
C4534 C 0.59485 0.90165 0.85785 0.0
C4535 C 0.59835 0.8945 0.84134 0.0
C4536 C 0.59354 0.96967 0.88191 0.0
C4537 C 0.57828 0.03098 0.83797 0.0
C4538 C 0.58283 0.01802 0.87161 0.0
C4539 C 0.59105 0.03372 0.86675 0.0
C4540 C 0.58866 0.04027 0.84983 0.0
N4541 N 0.57205 0.00923 0.86017 0.0
C4542 C 0.57014 0.0154 0.84336 0.0
Co4543 Co 0.29782 0.8316 0.10026 0.0
Co4544 Co 0.26396 0.80694 0.11637 0.0
O4545 O 0.27555 0.8195 0.09703 0.0
C4546 C 0.27965 0.85116 0.07019 0.0
O4547 O 0.26555 0.84126 0.07102 0.0
C4548 C 0.26455 0.78095 0.08758 0.0
O4549 O 0.28155 0.78373 0.08679 0.0
O4550 O 0.28603 0.79273 0.12131 0.0
O4551 O 0.30539 0.81445 0.11784 0.0
H4552 H 0.2585 0.77704 0.17539 0.0
H4553 H 0.28597 0.81616 0.06614 0.0
O4554 O 0.29197 0.84976 0.08157 0.0
H4555 H 0.34572 0.79314 0.07482 0.0
H4556 H 0.35628 0.85608 0.082 0.0
H4557 H 0.31795 0.84076 0.13197 0.0
H4558 H 0.33199 0.81199 0.09719 0.0
H4559 H 0.32532 0.84761 0.07695 0.0
O4560 O 0.25563 0.78884 0.09931 0.0
H4561 H 0.27354 0.79397 0.15233 0.0
H4562 H 0.22845 0.79078 0.11965 0.0
H4563 H 0.34866 0.84885 0.13751 0.0
H4564 H 0.29947 0.79818 0.04292 0.0
H4565 H 0.36768 0.8572 0.11262 0.0
H4566 H 0.32961 0.78637 0.04722 0.0
O4567 O 0.28688 0.84616 0.11968 0.0
H4568 H 0.2179 0.83462 0.07776 0.0
H4569 H 0.23891 0.82763 0.13865 0.0
H4570 H 0.21299 0.84615 0.1328 0.0
H4571 H 0.20226 0.84972 0.10216 0.0
H4572 H 0.24396 0.81644 0.0842 0.0
H4573 H 0.21286 0.77373 0.14235 0.0
H4574 H 0.22785 0.7668 0.17053 0.0
O4575 O 0.27188 0.82516 0.13397 0.0
C4576 C 0.30161 0.79901 0.12252 0.0
C4577 C 0.25174 0.78014 0.16326 0.0
C4578 C 0.22614 0.77828 0.14472 0.0
N4579 N 0.2518 0.79396 0.13483 0.0
C4580 C 0.26022 0.78985 0.15015 0.0
C4581 C 0.23505 0.78802 0.13193 0.0
C4582 C 0.23456 0.77437 0.16051 0.0
C4583 C 0.2994 0.81211 0.06762 0.0
N4584 N 0.30858 0.81653 0.08238 0.0
C4585 C 0.30686 0.80147 0.05464 0.0
C4586 C 0.32371 0.79475 0.0571 0.0
C4587 C 0.33275 0.79857 0.07255 0.0
C4588 C 0.32489 0.80936 0.08517 0.0
C4589 C 0.34788 0.85271 0.093 0.0
C4590 C 0.32619 0.84435 0.12096 0.0
C4591 C 0.3303 0.84828 0.09026 0.0
N4592 N 0.31995 0.84345 0.10413 0.0
C4593 C 0.3436 0.8488 0.1242 0.0
C4594 C 0.35442 0.85307 0.11013 0.0
C4595 C 0.27873 0.84055 0.13346 0.0
C4596 C 0.22243 0.83316 0.09117 0.0
C4597 C 0.23446 0.8292 0.12528 0.0
C4598 C 0.2197 0.83966 0.12205 0.0
C4599 C 0.21367 0.84164 0.10486 0.0
N4600 N 0.243 0.82092 0.11179 0.0
C4601 C 0.23715 0.82282 0.09491 0.0
Co4602 Co 0.41761 0.54717 0.34971 0.0
Co4603 Co 0.44161 0.51279 0.36613 0.0
O4604 O 0.43053 0.52517 0.34625 0.0
C4605 C 0.40264 0.53161 0.31565 0.0
O4606 O 0.41342 0.51818 0.31564 0.0
C4607 C 0.46504 0.50704 0.33437 0.0
O4608 O 0.45327 0.51282 0.32327 0.0
O4609 O 0.45449 0.53511 0.37285 0.0
O4610 O 0.43197 0.55342 0.37024 0.0
H4611 H 0.45923 0.50481 0.42949 0.0
H4612 H 0.43768 0.53941 0.31688 0.0
O4613 O 0.40221 0.54252 0.32844 0.0
H4614 H 0.45656 0.59872 0.33404 0.0
H4615 H 0.3897 0.60447 0.33169 0.0
H4616 H 0.40554 0.56624 0.38154 0.0
H4617 H 0.43523 0.58245 0.352 0.0
H4618 H 0.40195 0.57491 0.32639 0.0
O4619 O 0.46229 0.50657 0.35091 0.0
H4620 H 0.44479 0.51956 0.40457 0.0
H4621 H 0.46391 0.48048 0.36958 0.0
H4622 H 0.39477 0.59617 0.38723 0.0
H4623 H 0.45935 0.5549 0.29861 0.0
H4624 H 0.38578 0.6149 0.36252 0.0
H4625 H 0.46886 0.58499 0.30706 0.0
O4626 O 0.40133 0.53406 0.36585 0.0
H4627 H 0.41308 0.46922 0.32439 0.0
H4628 H 0.42733 0.48166 0.38617 0.0
H4629 H 0.41074 0.45515 0.37892 0.0
H4630 H 0.40344 0.4486 0.34779 0.0
H4631 H 0.42933 0.49571 0.33228 0.0
H4632 H 0.47894 0.46553 0.39405 0.0
H4633 H 0.47649 0.47755 0.42432 0.0
O4634 O 0.42091 0.51896 0.38207 0.0
C4635 C 0.44767 0.55035 0.37454 0.0
C4636 C 0.46038 0.49942 0.41636 0.0
C4637 C 0.47148 0.47741 0.39647 0.0
N4638 N 0.45338 0.50097 0.38559 0.0
C4639 C 0.45217 0.50773 0.40219 0.0
C4640 C 0.46306 0.48607 0.38262 0.0
C4641 C 0.47008 0.48415 0.41345 0.0
C4642 C 0.44151 0.55239 0.32051 0.0
N4643 N 0.43446 0.56005 0.33509 0.0
C4644 C 0.45391 0.56117 0.31018 0.0
C4645 C 0.45926 0.57802 0.31493 0.0
C4646 C 0.45232 0.58573 0.33001 0.0
C4647 C 0.44007 0.57644 0.34008 0.0
C4648 C 0.39332 0.59616 0.34266 0.0
C4649 C 0.40217 0.57451 0.37051 0.0
C4650 C 0.39985 0.57924 0.33977 0.0
N4651 N 0.40452 0.56876 0.35364 0.0
C4652 C 0.39608 0.59146 0.37386 0.0
C4653 C 0.39141 0.60218 0.35987 0.0
C4654 C 0.40541 0.52543 0.37987 0.0
C4655 C 0.41611 0.47194 0.33804 0.0
C4656 C 0.42408 0.47938 0.37263 0.0
C4657 C 0.41474 0.46408 0.36857 0.0
C4658 C 0.41069 0.46039 0.35114 0.0
N4659 N 0.42932 0.49088 0.35977 0.0
C4660 C 0.42543 0.48711 0.34263 0.0
Co4661 Co 0.70044 0.66503 0.59583 0.0
Co4662 Co 0.73223 0.68959 0.61704 0.0
O4663 O 0.72274 0.67742 0.59656 0.0
C4664 C 0.72204 0.64617 0.56716 0.0
O4665 O 0.7357 0.65666 0.56811 0.0
C4666 C 0.73159 0.71795 0.59055 0.0
O4667 O 0.71464 0.71503 0.58914 0.0
O4668 O 0.70881 0.70181 0.62203 0.0
O4669 O 0.68986 0.68146 0.6124 0.0
H4670 H 0.73296 0.71882 0.67702 0.0
H4671 H 0.71794 0.68237 0.5646 0.0
O4672 O 0.70949 0.64712 0.5783 0.0
H4673 H 0.65738 0.7049 0.5649 0.0
H4674 H 0.64816 0.6438 0.56243 0.0
H4675 H 0.67363 0.65098 0.62151 0.0
H4676 H 0.66745 0.68484 0.58808 0.0
H4677 H 0.67945 0.65076 0.56616 0.0
O4678 O 0.74036 0.7092 0.60175 0.0
H4679 H 0.71917 0.70429 0.65187 0.0
H4680 H 0.76746 0.70527 0.62392 0.0
H4681 H 0.64199 0.64388 0.61835 0.0
H4682 H 0.7082 0.7016 0.54065 0.0
H4683 H 0.62882 0.64204 0.58856 0.0
H4684 H 0.67765 0.71311 0.54063 0.0
O4685 O 0.70795 0.65042 0.61728 0.0
H4686 H 0.7816 0.6664 0.57944 0.0
H4687 H 0.75681 0.66852 0.63934 0.0
H4688 H 0.78393 0.65159 0.63387 0.0
H4689 H 0.79658 0.65056 0.60377 0.0
H4690 H 0.7543 0.68288 0.58543 0.0
H4691 H 0.78172 0.72032 0.64867 0.0
H4692 H 0.76459 0.72691 0.67569 0.0
O4693 O 0.7247 0.67 0.63238 0.0
C4694 C 0.69323 0.69531 0.62093 0.0
C4695 C 0.74076 0.71546 0.66558 0.0
C4696 C 0.76807 0.71636 0.64967 0.0
N4697 N 0.74276 0.70215 0.63693 0.0
C4698 C 0.73305 0.70672 0.65136 0.0
C4699 C 0.75991 0.70761 0.63573 0.0
C4700 C 0.75845 0.7201 0.66479 0.0
C4701 C 0.70439 0.68623 0.56418 0.0
N4702 N 0.69293 0.68085 0.5769 0.0
C4703 C 0.69902 0.6976 0.55078 0.0
C4704 C 0.68193 0.70417 0.55084 0.0
C4705 C 0.67057 0.69955 0.56442 0.0
C4706 C 0.67639 0.68806 0.5775 0.0
C4707 C 0.65352 0.64571 0.57547 0.0
C4708 C 0.6679 0.65011 0.60865 0.0
C4709 C 0.67137 0.64925 0.57776 0.0
N4710 N 0.67803 0.65278 0.59414 0.0
C4711 C 0.65 0.6463 0.6069 0.0
C4712 C 0.64265 0.64493 0.59015 0.0
C4713 C 0.71615 0.65557 0.63142 0.0
C4714 C 0.77631 0.66688 0.59265 0.0
C4715 C 0.76219 0.66811 0.62618 0.0
C4716 C 0.77758 0.65853 0.62318 0.0
C4717 C 0.78468 0.65796 0.60629 0.0
N4718 N 0.75415 0.67703 0.61277 0.0
C4719 C 0.76093 0.67632 0.59614 0.0
Co4720 Co 0.63052 0.5606 0.51491 0.0
Co4721 Co 0.65597 0.58284 0.5453 0.0
O4722 O 0.6527 0.57137 0.52265 0.0
C4723 C 0.65627 0.53193 0.51335 0.0
O4724 O 0.6594 0.53549 0.52993 0.0
C4725 C 0.68321 0.60352 0.52321 0.0
O4726 O 0.68329 0.59333 0.50929 0.0
O4727 O 0.63437 0.59809 0.54043 0.0
O4728 O 0.61681 0.5808 0.52386 0.0
H4729 H 0.63698 0.61 0.6021 0.0
H4730 H 0.66044 0.56671 0.4904 0.0
O4731 O 0.64409 0.54027 0.50549 0.0
H4732 H 0.60988 0.59759 0.46401 0.0
H4733 H 0.59274 0.52659 0.47241 0.0
H4734 H 0.59466 0.5566 0.5299 0.0
H4735 H 0.60659 0.58151 0.49197 0.0
H4736 H 0.62002 0.54091 0.48264 0.0
O4737 O 0.67194 0.60158 0.53546 0.0
H4738 H 0.63259 0.59967 0.57211 0.0
H4739 H 0.68769 0.59514 0.56489 0.0
H4740 H 0.56707 0.5426 0.52011 0.0
H4741 H 0.66427 0.58247 0.4623 0.0
H4742 H 0.566 0.52745 0.49118 0.0
H4743 H 0.63886 0.59806 0.44892 0.0
O4744 O 0.62695 0.54805 0.53815 0.0
H4745 H 0.71092 0.54794 0.53065 0.0
H4746 H 0.66784 0.56255 0.57671 0.0
H4747 H 0.69269 0.5432 0.58379 0.0
H4748 H 0.71486 0.5362 0.56084 0.0
H4749 H 0.68528 0.56623 0.5239 0.0
H4750 H 0.69293 0.60641 0.59472 0.0
H4751 H 0.66763 0.61265 0.61412 0.0
O4752 O 0.64105 0.56493 0.5574 0.0
C4753 C 0.6197 0.59481 0.53251 0.0
C4754 C 0.64829 0.60619 0.59436 0.0
C4755 C 0.67962 0.60442 0.59006 0.0
N4756 N 0.65972 0.59484 0.56748 0.0
C4757 C 0.64579 0.60034 0.57724 0.0
C4758 C 0.67652 0.59814 0.57315 0.0
C4759 C 0.66536 0.60789 0.60093 0.0
C4760 C 0.64927 0.57326 0.48455 0.0
N4761 N 0.63324 0.57286 0.49266 0.0
C4762 C 0.65154 0.58225 0.46868 0.0
C4763 C 0.63729 0.59102 0.46119 0.0
C4764 C 0.62102 0.59075 0.46965 0.0
C4765 C 0.61925 0.58161 0.48548 0.0
C4766 C 0.59304 0.53318 0.48503 0.0
C4767 C 0.59427 0.55013 0.51724 0.0
C4768 C 0.60846 0.54126 0.49092 0.0
N4769 N 0.6089 0.54968 0.5068 0.0
C4770 C 0.57862 0.54218 0.51179 0.0
C4771 C 0.57803 0.53367 0.49557 0.0
C4772 C 0.63129 0.55175 0.55399 0.0
C4773 C 0.70174 0.55144 0.54096 0.0
C4774 C 0.67739 0.55971 0.56656 0.0
C4775 C 0.69146 0.54867 0.57071 0.0
C4776 C 0.70387 0.54474 0.55785 0.0
N4777 N 0.67587 0.56714 0.55019 0.0
C4778 C 0.68734 0.56226 0.53726 0.0
Co4779 Co 0.66404 0.90146 0.79663 0.0
Co4780 Co 0.68732 0.88013 0.7643 0.0
O4781 O 0.677 0.90157 0.77444 0.0
C4782 C 0.64882 0.93427 0.77785 0.0
O4783 O 0.65916 0.9337 0.76405 0.0
C4784 C 0.7135 0.9094 0.75888 0.0
O4785 O 0.70236 0.92139 0.7641 0.0
O4786 O 0.69887 0.87397 0.78735 0.0
O4787 O 0.67752 0.88114 0.80566 0.0
H4788 H 0.70084 0.8154 0.76308 0.0
H4789 H 0.68308 0.93416 0.78567 0.0
O4790 O 0.64921 0.92231 0.78959 0.0
H4791 H 0.7069 0.91951 0.84391 0.0
H4792 H 0.63987 0.92981 0.85126 0.0
H4793 H 0.64726 0.87448 0.81869 0.0
H4794 H 0.6836 0.90151 0.83069 0.0
H4795 H 0.65258 0.92974 0.82146 0.0
O4796 O 0.7094 0.89317 0.75807 0.0
H4797 H 0.68753 0.84257 0.77483 0.0
H4798 H 0.71024 0.87221 0.73323 0.0
H4799 H 0.63448 0.87371 0.84846 0.0
H4800 H 0.70611 0.95292 0.79844 0.0
H4801 H 0.6311 0.90154 0.86491 0.0
H4802 H 0.71832 0.94557 0.82783 0.0
O4803 O 0.64686 0.88422 0.78588 0.0
H4804 H 0.66636 0.92061 0.71573 0.0
H4805 H 0.67174 0.85902 0.73492 0.0
H4806 H 0.6583 0.86558 0.70634 0.0
H4807 H 0.65556 0.89658 0.69644 0.0
H4808 H 0.67949 0.91353 0.74418 0.0
H4809 H 0.72408 0.84544 0.72128 0.0
H4810 H 0.71928 0.81674 0.73613 0.0
O4811 O 0.66531 0.86651 0.77067 0.0
C4812 C 0.69211 0.87365 0.80263 0.0
C4813 C 0.70296 0.82782 0.75645 0.0
C4814 C 0.71605 0.84468 0.73302 0.0
N4815 N 0.69792 0.85894 0.75464 0.0
C4816 C 0.69538 0.84323 0.76299 0.0
C4817 C 0.70826 0.85982 0.73992 0.0
C4818 C 0.71333 0.82858 0.74134 0.0
C4819 C 0.68802 0.93108 0.79845 0.0
N4820 N 0.68173 0.91682 0.80727 0.0
C4821 C 0.70121 0.94166 0.80564 0.0
C4822 C 0.70808 0.93752 0.8221 0.0
C4823 C 0.70169 0.92292 0.8311 0.0
C4824 C 0.6885 0.91269 0.82346 0.0
C4825 C 0.64156 0.91755 0.84423 0.0
C4826 C 0.6456 0.88649 0.82581 0.0
C4827 C 0.64849 0.91741 0.82725 0.0
N4828 N 0.65099 0.90186 0.81852 0.0
C4829 C 0.63864 0.88604 0.84272 0.0
C4830 C 0.63684 0.90168 0.85201 0.0
C4831 C 0.65023 0.86972 0.77766 0.0
C4832 C 0.66753 0.90703 0.71985 0.0
C4833 C 0.67061 0.87258 0.73091 0.0
C4834 C 0.66298 0.8762 0.7146 0.0
C4835 C 0.66145 0.89357 0.70904 0.0
N4836 N 0.67668 0.88581 0.74151 0.0
C4837 C 0.67509 0.90289 0.73607 0.0
Co4838 Co 0.36811 0.93876 0.01837 0.0
Co4839 Co 0.34303 0.91649 0.0492 0.0
O4840 O 0.34602 0.92784 0.02629 0.0
C4841 C 0.33863 0.9631 0.00796 0.0
O4842 O 0.32665 0.95154 0.01211 0.0
C4843 C 0.31663 0.89507 0.02649 0.0
O4844 O 0.31764 0.90434 0.01195 0.0
O4845 O 0.36406 0.90084 0.04381 0.0
O4846 O 0.38165 0.91848 0.02753 0.0
H4847 H 0.36179 0.88889 0.10621 0.0
H4848 H 0.33852 0.93018 0.99285 0.0
O4849 O 0.35503 0.95982 0.00922 0.0
H4850 H 0.39167 0.90291 0.96801 0.0
H4851 H 0.4063 0.97347 0.97676 0.0
H4852 H 0.40381 0.9426 0.03376 0.0
H4853 H 0.39314 0.91898 0.99601 0.0
H4854 H 0.379 0.95877 0.98639 0.0
O4855 O 0.32638 0.89834 0.03969 0.0
H4856 H 0.36649 0.89959 0.07612 0.0
H4857 H 0.31139 0.90514 0.06914 0.0
H4858 H 0.43143 0.95695 0.02455 0.0
H4859 H 0.33655 0.91457 0.96478 0.0
H4860 H 0.43277 0.97256 0.99588 0.0
H4861 H 0.36326 0.90074 0.95204 0.0
O4862 O 0.37129 0.95147 0.04143 0.0
H4863 H 0.28764 0.9509 0.03601 0.0
H4864 H 0.33325 0.93856 0.08027 0.0
H4865 H 0.31007 0.96002 0.08695 0.0
H4866 H 0.28692 0.96632 0.06478 0.0
H4867 H 0.31132 0.92983 0.02985 0.0
H4868 H 0.30599 0.89293 0.09851 0.0
H4869 H 0.33113 0.88558 0.11765 0.0
O4870 O 0.35877 0.93385 0.06094 0.0
C4871 C 0.37871 0.90431 0.03596 0.0
C4872 C 0.35063 0.89259 0.09824 0.0
C4873 C 0.31934 0.89486 0.09392 0.0
N4874 N 0.33939 0.90464 0.07151 0.0
C4875 C 0.35326 0.89882 0.08122 0.0
C4876 C 0.32254 0.90172 0.07726 0.0
C4877 C 0.33351 0.89075 0.10465 0.0
C4878 C 0.35031 0.92474 0.9874 0.0
N4879 N 0.36605 0.9263 0.99595 0.0
C4880 C 0.34908 0.91565 0.97147 0.0
C4881 C 0.36404 0.90785 0.96435 0.0
C4882 C 0.37997 0.90908 0.97329 0.0
C4883 C 0.3807 0.91829 0.98916 0.0
C4884 C 0.40588 0.96669 0.98927 0.0
C4885 C 0.40433 0.94923 0.0212 0.0
C4886 C 0.39044 0.95839 0.99482 0.0
N4887 N 0.38984 0.94974 0.01058 0.0
C4888 C 0.41999 0.95739 0.01608 0.0
C4889 C 0.42073 0.96617 0.0 0.0
C4890 C 0.368 0.94734 0.05737 0.0
C4891 C 0.29757 0.9482 0.04585 0.0
C4892 C 0.32336 0.9412 0.07042 0.0
C4893 C 0.31017 0.95336 0.07437 0.0
C4894 C 0.29719 0.95688 0.06196 0.0
N4895 N 0.32364 0.93258 0.05459 0.0
C4896 C 0.31096 0.93608 0.04243 0.0
Co4897 Co 0.33383 0.59215 0.29888 0.0
Co4898 Co 0.31274 0.61565 0.26629 0.0
O4899 O 0.324 0.5947 0.27551 0.0
C4900 C 0.35817 0.57038 0.27528 0.0
O4901 O 0.34878 0.57211 0.26093 0.0
C4902 C 0.28626 0.5878 0.26403 0.0
O4903 O 0.28932 0.58522 0.2808 0.0
O4904 O 0.29854 0.61896 0.28848 0.0
O4905 O 0.31386 0.6056 0.30983 0.0
H4906 H 0.29532 0.67963 0.26471 0.0
H4907 H 0.32202 0.56247 0.27515 0.0
O4908 O 0.35429 0.57847 0.28941 0.0
H4909 H 0.29822 0.54804 0.33353 0.0
H4910 H 0.36095 0.55602 0.34666 0.0
H4911 H 0.34005 0.61521 0.33002 0.0
H4912 H 0.3146 0.57547 0.32891 0.0
H4913 H 0.35091 0.562 0.3167 0.0
O4914 O 0.29395 0.60046 0.25623 0.0
H4915 H 0.30903 0.65324 0.27743 0.0
H4916 H 0.29265 0.62292 0.23341 0.0
H4917 H 0.35173 0.60984 0.35984 0.0
H4918 H 0.30638 0.53464 0.27937 0.0
H4919 H 0.3602 0.57986 0.36886 0.0
H4920 H 0.29427 0.52714 0.30874 0.0
O4921 O 0.34735 0.61499 0.29602 0.0
H4922 H 0.3386 0.58191 0.21557 0.0
H4923 H 0.33453 0.63983 0.24444 0.0
H4924 H 0.35229 0.63666 0.2175 0.0
H4925 H 0.35433 0.60755 0.2028 0.0
H4926 H 0.32122 0.58564 0.24271 0.0
H4927 H 0.27836 0.64892 0.22048 0.0
H4928 H 0.27969 0.67758 0.2361 0.0
O4929 O 0.33141 0.63057 0.27635 0.0
C4930 C 0.30096 0.61512 0.30471 0.0
C4931 C 0.29458 0.6672 0.25781 0.0
C4932 C 0.28501 0.64996 0.23303 0.0
N4933 N 0.30141 0.63637 0.2564 0.0
C4934 C 0.3024 0.65217 0.26492 0.0
C4935 C 0.29298 0.63521 0.24054 0.0
C4936 C 0.2858 0.66604 0.24177 0.0
C4937 C 0.31749 0.55922 0.28812 0.0
N4938 N 0.32021 0.57043 0.30191 0.0
C4939 C 0.30834 0.54344 0.29038 0.0
C4940 C 0.30147 0.53928 0.30683 0.0
C4941 C 0.30367 0.55098 0.32071 0.0
C4942 C 0.313 0.56656 0.31797 0.0
C4943 C 0.35634 0.56902 0.3432 0.0
C4944 C 0.34461 0.60224 0.33365 0.0
C4945 C 0.35087 0.57262 0.32614 0.0
N4946 N 0.34428 0.58884 0.3218 0.0
C4947 C 0.35068 0.59922 0.35064 0.0
C4948 C 0.35582 0.58236 0.35562 0.0
C4949 C 0.34405 0.62903 0.28716 0.0
C4950 C 0.33772 0.59469 0.22177 0.0
C4951 C 0.33536 0.62711 0.23815 0.0
C4952 C 0.34543 0.6254 0.22288 0.0
C4953 C 0.34657 0.60907 0.21464 0.0
N4954 N 0.3266 0.61297 0.245 0.0
C4955 C 0.32779 0.5969 0.23708 0.0
Co4956 Co 0.63035 0.43619 0.48207 0.0
Co4957 Co 0.65512 0.4147 0.4505 0.0
O4958 O 0.65244 0.42614 0.4734 0.0
C4959 C 0.65859 0.46246 0.49057 0.0
O4960 O 0.67101 0.45188 0.48526 0.0
C4961 C 0.68347 0.39512 0.47277 0.0
O4962 O 0.68195 0.40433 0.4873 0.0
O4963 O 0.63502 0.39785 0.45639 0.0
O4964 O 0.61757 0.41532 0.47307 0.0
H4965 H 0.63742 0.38856 0.39244 0.0
H4966 H 0.66091 0.43078 0.50691 0.0
O4967 O 0.64251 0.45786 0.49073 0.0
H4968 H 0.61106 0.39892 0.53322 0.0
H4969 H 0.59253 0.46795 0.52634 0.0
H4970 H 0.59384 0.43927 0.4684 0.0
H4971 H 0.60761 0.41421 0.5049 0.0
H4972 H 0.62006 0.4552 0.51486 0.0
O4973 O 0.67334 0.39769 0.45967 0.0
H4974 H 0.63221 0.3972 0.42329 0.0
H4975 H 0.68699 0.4046 0.43069 0.0
H4976 H 0.56584 0.45117 0.4795 0.0
H4977 H 0.66484 0.41597 0.53528 0.0
H4978 H 0.5651 0.46581 0.50871 0.0
H4979 H 0.63979 0.39988 0.54874 0.0
O4980 O 0.62603 0.44881 0.45911 0.0
H4981 H 0.70943 0.45174 0.46089 0.0
H4982 H 0.66196 0.43746 0.41923 0.0
H4983 H 0.68379 0.45991 0.41131 0.0
H4984 H 0.70789 0.46716 0.43214 0.0
H4985 H 0.68697 0.42973 0.46836 0.0
H4986 H 0.69301 0.39385 0.40097 0.0
H4987 H 0.6684 0.38677 0.3813 0.0
O4988 O 0.63755 0.43077 0.43933 0.0
C4989 C 0.62031 0.4013 0.46421 0.0
C4990 C 0.64837 0.39232 0.40071 0.0
C4991 C 0.67957 0.39514 0.40551 0.0
N4992 N 0.65902 0.40314 0.42815 0.0
C4993 C 0.6454 0.39748 0.41806 0.0
C4994 C 0.676 0.40105 0.42242 0.0
C4995 C 0.66563 0.39127 0.39444 0.0
C4996 C 0.64984 0.42417 0.51265 0.0
N4997 N 0.63392 0.42392 0.50432 0.0
C4998 C 0.6522 0.41561 0.52874 0.0
C4999 C 0.63816 0.40655 0.53627 0.0
C5000 C 0.62205 0.406 0.52757 0.0
C5001 C 0.6202 0.4147 0.5115 0.0
C5002 C 0.59265 0.46153 0.51364 0.0
C5003 C 0.5935 0.44512 0.48121 0.0
C5004 C 0.60823 0.45434 0.50702 0.0
N5005 N 0.60849 0.44613 0.491 0.0
C5006 C 0.57766 0.45207 0.4874 0.0
C5007 C 0.57726 0.46032 0.50375 0.0
C5008 C 0.62799 0.44402 0.44314 0.0
C5009 C 0.69909 0.44862 0.45161 0.0
C5010 C 0.67224 0.44057 0.42853 0.0
C5011 C 0.68467 0.45327 0.42387 0.0
C5012 C 0.69819 0.45731 0.43553 0.0
N5013 N 0.67323 0.43195 0.44434 0.0
C5014 C 0.68643 0.43595 0.45575 0.0
Co5015 Co 0.83141 0.89727 0.69983 0.0
Co5016 Co 0.81055 0.87942 0.73557 0.0
O5017 O 0.81985 0.89987 0.7226 0.0
C5018 C 0.84692 0.93194 0.71443 0.0
O5019 O 0.83634 0.93276 0.72803 0.0
C5020 C 0.78171 0.90541 0.73576 0.0
O5021 O 0.7834 0.90627 0.71865 0.0
O5022 O 0.79634 0.87191 0.71417 0.0
O5023 O 0.81725 0.87648 0.69419 0.0
H5024 H 0.79491 0.81568 0.74482 0.0
H5025 H 0.81028 0.92945 0.70967 0.0
O5026 O 0.84678 0.91874 0.70402 0.0
H5027 H 0.78877 0.91185 0.65124 0.0
H5028 H 0.85673 0.9194 0.64299 0.0
H5029 H 0.84093 0.86655 0.67696 0.0
H5030 H 0.81152 0.89461 0.66612 0.0
H5031 H 0.84541 0.92224 0.67302 0.0
O5032 O 0.79074 0.89422 0.74418 0.0
H5033 H 0.80775 0.84091 0.72907 0.0
H5034 H 0.79206 0.87525 0.77015 0.0
H5035 H 0.85157 0.86337 0.64673 0.0
H5036 H 0.78813 0.9477 0.6947 0.0
H5037 H 0.85994 0.88994 0.62989 0.0
H5038 H 0.77694 0.93878 0.66542 0.0
O5039 O 0.84906 0.88117 0.71124 0.0
H5040 H 0.8363 0.92384 0.77734 0.0
H5041 H 0.82982 0.86069 0.76453 0.0
H5042 H 0.84731 0.86998 0.79012 0.0
H5043 H 0.85073 0.90181 0.79666 0.0
H5044 H 0.81891 0.91391 0.75189 0.0
H5045 H 0.77873 0.85052 0.78619 0.0
H5046 H 0.78018 0.82041 0.7736 0.0
O5047 O 0.8311 0.86426 0.72768 0.0
C5048 C 0.80233 0.87067 0.69847 0.0
C5049 C 0.79416 0.82874 0.75043 0.0
C5050 C 0.78505 0.84828 0.77362 0.0
N5051 N 0.80062 0.85961 0.7485 0.0
C5052 C 0.80145 0.84308 0.74154 0.0
C5053 C 0.7925 0.86229 0.76436 0.0
C5054 C 0.78589 0.8314 0.76657 0.0
C5055 C 0.80621 0.9259 0.69661 0.0
N5056 N 0.81328 0.91158 0.68846 0.0
C5057 C 0.7933 0.93608 0.68834 0.0
C5058 C 0.78705 0.93111 0.67188 0.0
C5059 C 0.79372 0.91608 0.6639 0.0
C5060 C 0.80678 0.90641 0.67244 0.0
C5061 C 0.85337 0.90777 0.65049 0.0
C5062 C 0.84459 0.87823 0.66979 0.0
C5063 C 0.84741 0.90922 0.66772 0.0
N5064 N 0.84302 0.89455 0.67721 0.0
C5065 C 0.85054 0.87629 0.6526 0.0
C5066 C 0.8549 0.89119 0.64299 0.0
C5067 C 0.84585 0.86689 0.71982 0.0
C5068 C 0.83515 0.90994 0.77448 0.0
C5069 C 0.83158 0.87454 0.76697 0.0
C5070 C 0.84134 0.87974 0.78164 0.0
C5071 C 0.84321 0.89758 0.78533 0.0
N5072 N 0.82401 0.88671 0.75614 0.0
C5073 C 0.82546 0.90423 0.75994 0.0
Co5074 Co 0.36793 0.05746 0.98487 0.0
Co5075 Co 0.34878 0.08236 0.95197 0.0
O5076 O 0.34798 0.07035 0.97468 0.0
C5077 C 0.33634 0.03405 0.98978 0.0
O5078 O 0.32544 0.04556 0.98317 0.0
C5079 C 0.32203 0.10477 0.97273 0.0
O5080 O 0.32191 0.09509 0.98703 0.0
O5081 O 0.37028 0.09622 0.95993 0.0
O5082 O 0.38407 0.07705 0.97788 0.0
H5083 H 0.37448 0.09842 0.89344 0.0
H5084 H 0.33568 0.06627 0.00598 0.0
O5085 O 0.3526 0.03732 0.99176 0.0
H5086 H 0.38535 0.09061 0.03962 0.0
H5087 H 0.39708 0.02051 0.03155 0.0
H5088 H 0.40425 0.04781 0.97327 0.0
H5089 H 0.39047 0.07526 0.01163 0.0
H5090 H 0.37307 0.03793 0.01849 0.0
O5091 O 0.33246 0.10153 0.96005 0.0
H5092 H 0.37635 0.09067 0.92497 0.0
H5093 H 0.32124 0.09893 0.93033 0.0
H5094 H 0.42866 0.03072 0.98588 0.0
H5095 H 0.32997 0.08131 0.03394 0.0
H5096 H 0.42518 0.01689 0.01527 0.0
H5097 H 0.3549 0.09364 0.05107 0.0
O5098 O 0.37292 0.04487 0.96201 0.0
H5099 H 0.28908 0.05329 0.95698 0.0
H5100 H 0.34168 0.06068 0.91989 0.0
H5101 H 0.31779 0.04142 0.90989 0.0
H5102 H 0.2911 0.03768 0.92837 0.0
H5103 H 0.31368 0.07172 0.96677 0.0
H5104 H 0.31886 0.10654 0.89919 0.0
H5105 H 0.34508 0.10554 0.88052 0.0
O5106 O 0.36464 0.06473 0.94211 0.0
C5107 C 0.3837 0.09153 0.96931 0.0
C5108 C 0.36277 0.09851 0.90154 0.0
C5109 C 0.33152 0.10311 0.90475 0.0
N5110 N 0.34891 0.09403 0.9294 0.0
C5111 C 0.36381 0.09441 0.91939 0.0
C5112 C 0.33309 0.0992 0.9225 0.0
C5113 C 0.34637 0.10232 0.8942 0.0
C5114 C 0.34666 0.07132 0.0133 0.0
N5115 N 0.36346 0.06951 0.00712 0.0
C5116 C 0.34332 0.07997 0.02917 0.0
C5117 C 0.35729 0.08692 0.03875 0.0
C5118 C 0.37436 0.08525 0.03232 0.0
C5119 C 0.37718 0.07656 0.01638 0.0
C5120 C 0.39883 0.02663 0.01881 0.0
C5121 C 0.40269 0.04213 0.98613 0.0
C5122 C 0.3853 0.03657 0.01135 0.0
N5123 N 0.38742 0.04447 0.99531 0.0
C5124 C 0.41654 0.03234 0.99319 0.0
C5125 C 0.41458 0.02458 0.00967 0.0
C5126 C 0.37177 0.05037 0.9462 0.0
C5127 C 0.30052 0.05497 0.94867 0.0
C5128 C 0.33023 0.05916 0.92818 0.0
C5129 C 0.31666 0.04823 0.92234 0.0
C5130 C 0.30169 0.04616 0.93268 0.0
N5131 N 0.32902 0.06787 0.94393 0.0
C5132 C 0.3144 0.06575 0.95408 0.0
Co5133 Co 0.17184 0.59595 0.20079 0.0
Co5134 Co 0.19348 0.61663 0.2352 0.0
O5135 O 0.18308 0.59561 0.22383 0.0
C5136 C 0.14933 0.56991 0.22148 0.0
O5137 O 0.1589 0.57022 0.23584 0.0
C5138 C 0.21856 0.58645 0.23998 0.0
O5139 O 0.20803 0.57554 0.23195 0.0
O5140 O 0.20669 0.62353 0.21292 0.0
O5141 O 0.19065 0.6116 0.19137 0.0
H5142 H 0.20694 0.68115 0.24263 0.0
H5143 H 0.18296 0.56133 0.21649 0.0
O5144 O 0.1526 0.57978 0.2084 0.0
H5145 H 0.20823 0.56206 0.15698 0.0
H5146 H 0.14052 0.57282 0.14709 0.0
H5147 H 0.16482 0.62475 0.17715 0.0
H5148 H 0.19107 0.58723 0.16781 0.0
H5149 H 0.15394 0.56994 0.17662 0.0
O5150 O 0.21457 0.60254 0.24242 0.0
H5151 H 0.19453 0.65524 0.22775 0.0
H5152 H 0.2139 0.62201 0.26827 0.0
H5153 H 0.15142 0.62812 0.14867 0.0
H5154 H 0.19975 0.53579 0.20618 0.0
H5155 H 0.14009 0.60246 0.13281 0.0
H5156 H 0.21268 0.53602 0.17618 0.0
O5157 O 0.15712 0.6165 0.20824 0.0
H5158 H 0.1711 0.57607 0.28295 0.0
H5159 H 0.17173 0.63688 0.26057 0.0
H5160 H 0.15509 0.63 0.28744 0.0
H5161 H 0.15475 0.59942 0.29891 0.0
H5162 H 0.18724 0.58343 0.25599 0.0
H5163 H 0.22672 0.64758 0.28348 0.0
H5164 H 0.22322 0.67744 0.27071 0.0
O5165 O 0.17303 0.63148 0.22804 0.0
C5166 C 0.2036 0.6208 0.19656 0.0
C5167 C 0.20866 0.66819 0.24828 0.0
C5168 C 0.21978 0.64935 0.27117 0.0
N5169 N 0.20377 0.637 0.24686 0.0
C5170 C 0.20167 0.65342 0.23987 0.0
C5171 C 0.21262 0.63488 0.26239 0.0
C5172 C 0.21778 0.66611 0.26403 0.0
C5173 C 0.18823 0.56156 0.20342 0.0
N5174 N 0.18586 0.5759 0.1929 0.0
C5175 C 0.1979 0.54704 0.19765 0.0
C5176 C 0.20517 0.54718 0.18085 0.0
C5177 C 0.2027 0.56178 0.17009 0.0
C5178 C 0.193 0.57606 0.17637 0.0
C5179 C 0.14582 0.58424 0.15373 0.0
C5180 C 0.15952 0.61331 0.1707 0.0
C5181 C 0.15334 0.58271 0.17038 0.0
N5182 N 0.16043 0.59717 0.17837 0.0
C5183 C 0.15195 0.61532 0.1544 0.0
C5184 C 0.14539 0.60074 0.14574 0.0
C5185 C 0.15957 0.62973 0.21826 0.0
C5186 C 0.17126 0.58948 0.27817 0.0
C5187 C 0.17172 0.62352 0.26541 0.0
C5188 C 0.16225 0.61971 0.28068 0.0
C5189 C 0.16206 0.60257 0.2871 0.0
N5190 N 0.18086 0.61064 0.25673 0.0
C5191 C 0.18057 0.59378 0.26291 0.0
Co5192 Co 0.05063 0.65353 0.08089 0.0
Co5193 Co 0.01559 0.63079 0.06145 0.0
O5194 O 0.02681 0.65227 0.07075 0.0
C5195 C 0.02955 0.68077 0.10246 0.0
O5196 O 0.01492 0.67896 0.09349 0.0
C5197 C 0.00788 0.6594 0.03491 0.0
O5198 O 0.01457 0.67158 0.04493 0.0
O5199 O 0.03768 0.62386 0.04823 0.0
O5200 O 0.05966 0.63752 0.06237 0.0
H5201 H 0.00935 0.56541 0.05205 0.0
H5202 H 0.03161 0.6854 0.0674 0.0
O5203 O 0.04269 0.67057 0.09992 0.0
H5204 H 0.08965 0.68732 0.03911 0.0
H5205 H 0.10229 0.68706 0.10479 0.0
H5206 H 0.0819 0.62937 0.08382 0.0
H5207 H 0.08209 0.66345 0.0594 0.0
H5208 H 0.07126 0.68242 0.0979 0.0
O5209 O 0.00733 0.64337 0.03969 0.0
H5210 H 0.02381 0.5923 0.06272 0.0
H5211 H 0.98234 0.62344 0.04182 0.0
H5212 H 0.113 0.634 0.08866 0.0
H5213 H 0.03836 0.70944 0.04691 0.0
H5214 H 0.12374 0.66326 0.0993 0.0
H5215 H 0.0677 0.71062 0.03261 0.0
O5216 O 0.04544 0.6321 0.09651 0.0
H5217 H 0.96714 0.67084 0.08358 0.0
H5218 H 0.99116 0.61067 0.08431 0.0
H5219 H 0.96414 0.61721 0.10084 0.0
H5220 H 0.95181 0.64745 0.10046 0.0
H5221 H 0.99417 0.66383 0.06753 0.0
H5222 H 0.96764 0.59687 0.03065 0.0
H5223 H 0.98109 0.56755 0.03578 0.0
O5224 O 0.02385 0.61749 0.0822 0.0
C5225 C 0.05406 0.6272 0.05048 0.0
C5226 C 0.00342 0.57812 0.04959 0.0
C5227 C 0.98005 0.59577 0.03755 0.0
N5228 N 0.00426 0.60958 0.05252 0.0
C5229 C 0.01158 0.59345 0.05559 0.0
C5230 C 0.98858 0.61082 0.04375 0.0
C5231 C 0.98757 0.57932 0.04047 0.0
C5232 C 0.04435 0.68586 0.06151 0.0
N5233 N 0.05637 0.67312 0.06516 0.0
C5234 C 0.04813 0.69949 0.04975 0.0
C5235 C 0.06456 0.70014 0.04171 0.0
C5236 C 0.07686 0.6871 0.04537 0.0
C5237 C 0.07247 0.6736 0.05704 0.0
C5238 C 0.09784 0.67428 0.10035 0.0
C5239 C 0.086 0.64189 0.08876 0.0
C5240 C 0.08006 0.67135 0.09686 0.0
N5241 N 0.07429 0.65535 0.09077 0.0
C5242 C 0.10391 0.64451 0.09156 0.0
C5243 C 0.10988 0.66086 0.09732 0.0
C5244 C 0.03497 0.61879 0.0946 0.0
C5245 C 0.97225 0.65755 0.08368 0.0
C5246 C 0.98592 0.62388 0.08394 0.0
C5247 C 0.97058 0.62749 0.09339 0.0
C5248 C 0.96368 0.64445 0.09319 0.0
N5249 N 0.99416 0.63672 0.07436 0.0
C5250 C 0.98757 0.65344 0.07438 0.0
Co5251 Co 0.54866 0.34709 0.41517 0.0
Co5252 Co 0.51595 0.36902 0.43769 0.0
O5253 O 0.52566 0.34829 0.42615 0.0
C5254 C 0.52638 0.32142 0.39354 0.0
O5255 O 0.51251 0.32242 0.40373 0.0
C5256 C 0.51356 0.34118 0.46476 0.0
O5257 O 0.53058 0.33905 0.46292 0.0
O5258 O 0.53821 0.37242 0.45205 0.0
O5259 O 0.55923 0.36157 0.43422 0.0
H5260 H 0.51148 0.43314 0.45458 0.0
H5261 H 0.52808 0.31656 0.43048 0.0
O5262 O 0.53952 0.33166 0.39557 0.0
H5263 H 0.58863 0.3088 0.45176 0.0
H5264 H 0.59721 0.31557 0.38415 0.0
H5265 H 0.57727 0.37264 0.40691 0.0
H5266 H 0.58093 0.33426 0.43349 0.0
H5267 H 0.56861 0.3182 0.39831 0.0
O5268 O 0.50589 0.35329 0.45612 0.0
H5269 H 0.52518 0.40739 0.44077 0.0
H5270 H 0.48311 0.375 0.4584 0.0
H5271 H 0.60608 0.3707 0.39247 0.0
H5272 H 0.53527 0.29084 0.44839 0.0
H5273 H 0.61638 0.34191 0.38135 0.0
H5274 H 0.56577 0.2867 0.45925 0.0
O5275 O 0.54336 0.36926 0.40109 0.0
H5276 H 0.46696 0.33433 0.40989 0.0
H5277 H 0.49334 0.3932 0.41653 0.0
H5278 H 0.46695 0.38954 0.39807 0.0
H5279 H 0.45353 0.35994 0.39469 0.0
H5280 H 0.4935 0.33858 0.42803 0.0
H5281 H 0.46918 0.40041 0.47265 0.0
H5282 H 0.48329 0.42981 0.47076 0.0
O5283 O 0.52572 0.38468 0.41927 0.0
C5284 C 0.55441 0.36936 0.44826 0.0
C5285 C 0.50532 0.42035 0.45571 0.0
C5286 C 0.48161 0.40199 0.46587 0.0
N5287 N 0.50546 0.38937 0.44931 0.0
C5288 C 0.5131 0.4056 0.44799 0.0
C5289 C 0.48975 0.38755 0.45795 0.0
C5290 C 0.4895 0.41848 0.46476 0.0
C5291 C 0.54154 0.31461 0.43424 0.0
N5292 N 0.55427 0.32639 0.42951 0.0
C5293 C 0.54548 0.30009 0.4448 0.0
C5294 C 0.56256 0.29782 0.45096 0.0
C5295 C 0.57538 0.31017 0.44672 0.0
C5296 C 0.57093 0.32451 0.43615 0.0
C5297 C 0.59312 0.32815 0.38923 0.0
C5298 C 0.58161 0.36018 0.40201 0.0
C5299 C 0.57674 0.3298 0.39709 0.0
N5300 N 0.57131 0.34561 0.40371 0.0
C5301 C 0.59797 0.35911 0.39388 0.0
C5302 C 0.60381 0.3429 0.38773 0.0
C5303 C 0.53509 0.38338 0.40549 0.0
C5304 C 0.4726 0.34732 0.41135 0.0
C5305 C 0.48756 0.38028 0.41521 0.0
C5306 C 0.47261 0.3783 0.40471 0.0
C5307 C 0.46509 0.36169 0.40281 0.0
N5308 N 0.49481 0.36613 0.42363 0.0
C5309 C 0.48757 0.34982 0.42171 0.0
Co5310 Co 0.87628 0.76037 0.69306 0.0
Co5311 Co 0.90011 0.79009 0.66834 0.0
O5312 O 0.89708 0.76787 0.68009 0.0
C5313 C 0.9069 0.75838 0.71753 0.0
O5314 O 0.91757 0.76417 0.70545 0.0
C5315 C 0.92568 0.77669 0.63763 0.0
O5316 O 0.92754 0.76281 0.62752 0.0
O5317 O 0.87681 0.78568 0.6556 0.0
O5318 O 0.86197 0.7657 0.67193 0.0
H5319 H 0.87683 0.84522 0.64054 0.0
H5320 H 0.90822 0.73722 0.68921 0.0
O5321 O 0.89061 0.75573 0.7146 0.0
H5322 H 0.85917 0.70328 0.66407 0.0
H5323 H 0.84317 0.71911 0.73288 0.0
H5324 H 0.83988 0.77395 0.69841 0.0
H5325 H 0.85405 0.73268 0.67656 0.0
H5326 H 0.86888 0.72964 0.71612 0.0
O5327 O 0.91259 0.77678 0.64847 0.0
H5328 H 0.87813 0.81347 0.64417 0.0
H5329 H 0.92925 0.81852 0.66657 0.0
H5330 H 0.8138 0.76387 0.71489 0.0
H5331 H 0.91386 0.70782 0.67725 0.0
H5332 H 0.81533 0.73621 0.73223 0.0
H5333 H 0.88926 0.69057 0.66444 0.0
O5334 O 0.87075 0.78467 0.70251 0.0
H5335 H 0.96237 0.77389 0.68561 0.0
H5336 H 0.9126 0.81299 0.69915 0.0
H5337 H 0.93939 0.81501 0.71652 0.0
H5338 H 0.96491 0.79592 0.70952 0.0
H5339 H 0.9347 0.7708 0.66974 0.0
H5340 H 0.92627 0.85023 0.66694 0.0
H5341 H 0.90007 0.86394 0.65398 0.0
O5342 O 0.8869 0.80306 0.68648 0.0
C5343 C 0.86332 0.77565 0.65846 0.0
C5344 C 0.88802 0.83932 0.64702 0.0
C5345 C 0.91559 0.84215 0.66208 0.0
N5346 N 0.903 0.81341 0.65748 0.0
C5347 C 0.889 0.82109 0.64906 0.0
C5348 C 0.91685 0.8239 0.66244 0.0
C5349 C 0.90101 0.84986 0.65438 0.0
C5350 C 0.89732 0.72984 0.68408 0.0
N5351 N 0.88071 0.73675 0.68398 0.0
C5352 C 0.90065 0.71315 0.67713 0.0
C5353 C 0.88687 0.7035 0.66991 0.0
C5354 C 0.86999 0.71062 0.66969 0.0
C5355 C 0.86717 0.72735 0.67676 0.0
C5356 C 0.84228 0.7311 0.72524 0.0
C5357 C 0.84059 0.76182 0.70578 0.0
C5358 C 0.85678 0.73711 0.71569 0.0
N5359 N 0.85573 0.75214 0.70586 0.0
C5360 C 0.82581 0.75621 0.71515 0.0
C5361 C 0.82667 0.7407 0.72489 0.0
C5362 C 0.87559 0.80019 0.69838 0.0
C5363 C 0.95156 0.78273 0.68839 0.0
C5364 C 0.92318 0.80413 0.69596 0.0
C5365 C 0.93858 0.80559 0.70588 0.0
C5366 C 0.95291 0.79494 0.70192 0.0
N5367 N 0.92206 0.79259 0.68206 0.0
C5368 C 0.93592 0.78152 0.67882 0.0
Co5369 Co 0.45289 0.15183 0.91498 0.0
Co5370 Co 0.48651 0.1309 0.93778 0.0
O5371 O 0.47556 0.15154 0.92678 0.0
C5372 C 0.47359 0.18011 0.89502 0.0
O5373 O 0.48712 0.18002 0.90569 0.0
C5374 C 0.48222 0.15656 0.9667 0.0
O5375 O 0.46551 0.15718 0.96262 0.0
O5376 O 0.46352 0.12313 0.94914 0.0
O5377 O 0.44259 0.13603 0.93298 0.0
H5378 H 0.49597 0.06639 0.95037 0.0
H5379 H 0.47121 0.18245 0.93269 0.0
O5380 O 0.46153 0.16849 0.89612 0.0
H5381 H 0.40902 0.18837 0.94933 0.0
H5382 H 0.40039 0.18293 0.89174 0.0
H5383 H 0.42473 0.12508 0.90827 0.0
H5384 H 0.41887 0.16307 0.93209 0.0
H5385 H 0.43199 0.17924 0.89614 0.0
O5386 O 0.49213 0.14571 0.95869 0.0
H5387 H 0.48195 0.09175 0.93615 0.0
H5388 H 0.51671 0.12652 0.96273 0.0
H5389 H 0.39262 0.12848 0.90454 0.0
H5390 H 0.46192 0.20782 0.95008 0.0
H5391 H 0.38041 0.1583 0.89798 0.0
H5392 H 0.43053 0.21121 0.95836 0.0
O5393 O 0.46068 0.13082 0.9005 0.0
H5394 H 0.53172 0.17489 0.91752 0.0
H5395 H 0.51762 0.11189 0.92233 0.0
H5396 H 0.54516 0.1209 0.90805 0.0
H5397 H 0.55243 0.15265 0.90552 0.0
H5398 H 0.50418 0.16525 0.93153 0.0
H5399 H 0.53096 0.10151 0.97735 0.0
H5400 H 0.52066 0.07113 0.97122 0.0
O5401 O 0.48124 0.1164 0.91635 0.0
C5402 C 0.4473 0.12598 0.94541 0.0
C5403 C 0.50042 0.07959 0.95334 0.0
C5404 C 0.52004 0.09928 0.96849 0.0
N5405 N 0.4979 0.11081 0.94903 0.0
C5406 C 0.49239 0.09408 0.94541 0.0
C5407 C 0.5117 0.11346 0.9603 0.0
C5408 C 0.51429 0.08224 0.96502 0.0
C5409 C 0.45746 0.1839 0.9355 0.0
N5410 N 0.44548 0.17179 0.92973 0.0
C5411 C 0.45229 0.19828 0.94572 0.0
C5412 C 0.43471 0.20015 0.95044 0.0
C5413 C 0.42266 0.1874 0.94532 0.0
C5414 C 0.42835 0.17316 0.93522 0.0
C5415 C 0.40563 0.17016 0.89522 0.0
C5416 C 0.41947 0.13772 0.9044 0.0
C5417 C 0.42367 0.16779 0.89723 0.0
N5418 N 0.43022 0.15207 0.90316 0.0
C5419 C 0.40128 0.1396 0.90249 0.0
C5420 C 0.39438 0.15617 0.89862 0.0
C5421 C 0.4717 0.11802 0.90257 0.0
C5422 C 0.52862 0.16102 0.91833 0.0
C5423 C 0.52034 0.12571 0.92092 0.0
C5424 C 0.53614 0.13075 0.91299 0.0
C5425 C 0.54023 0.14854 0.91162 0.0
N5426 N 0.5088 0.138 0.9272 0.0
C5427 C 0.51294 0.15546 0.92617 0.0
Co5428 Co 0.61821 0.23384 0.19345 0.0
Co5429 Co 0.59861 0.20424 0.16565 0.0
O5430 O 0.59834 0.22568 0.17948 0.0
C5431 C 0.58569 0.23964 0.21526 0.0
O5432 O 0.57516 0.23465 0.20263 0.0
C5433 C 0.57146 0.22716 0.14569 0.0
O5434 O 0.57065 0.24048 0.15665 0.0
O5435 O 0.62005 0.2132 0.1523 0.0
O5436 O 0.63457 0.22701 0.17419 0.0
H5437 H 0.62102 0.14636 0.14344 0.0
H5438 H 0.5878 0.25754 0.18406 0.0
O5439 O 0.60229 0.24057 0.2132 0.0
H5440 H 0.64075 0.28825 0.16301 0.0
H5441 H 0.64887 0.27659 0.23372 0.0
H5442 H 0.65287 0.21893 0.20433 0.0
H5443 H 0.64324 0.25965 0.17789 0.0
H5444 H 0.62488 0.26617 0.21456 0.0
O5445 O 0.58225 0.21455 0.14784 0.0
H5446 H 0.62488 0.17758 0.15224 0.0
H5447 H 0.56976 0.18525 0.14808 0.0
H5448 H 0.67713 0.22881 0.22342 0.0
H5449 H 0.58473 0.28615 0.16957 0.0
H5450 H 0.67529 0.25789 0.2382 0.0
H5451 H 0.61132 0.30181 0.15884 0.0
O5452 O 0.62142 0.21002 0.20465 0.0
H5453 H 0.53833 0.20587 0.1944 0.0
H5454 H 0.59195 0.1708 0.18498 0.0
H5455 H 0.5681 0.15875 0.20303 0.0
H5456 H 0.54088 0.17618 0.20775 0.0
H5457 H 0.56277 0.21772 0.17721 0.0
H5458 H 0.56563 0.15486 0.13875 0.0
H5459 H 0.59104 0.13471 0.1384 0.0
O5460 O 0.61502 0.19255 0.18205 0.0
C5461 C 0.63396 0.22079 0.1586 0.0
C5462 C 0.60989 0.15502 0.14426 0.0
C5463 C 0.57873 0.15971 0.14152 0.0
N5464 N 0.59757 0.18294 0.15167 0.0
C5465 C 0.61197 0.17256 0.14934 0.0
C5466 C 0.58127 0.17707 0.1466 0.0
C5467 C 0.59308 0.14846 0.14109 0.0
C5468 C 0.5995 0.26424 0.17986 0.0
N5469 N 0.61573 0.25693 0.18239 0.0
C5470 C 0.59765 0.28048 0.17146 0.0
C5471 C 0.61256 0.28924 0.16541 0.0
C5472 C 0.62906 0.28164 0.16775 0.0
C5473 C 0.63038 0.26538 0.17621 0.0
C5474 C 0.64994 0.26399 0.22718 0.0
C5475 C 0.652 0.23166 0.21058 0.0
C5476 C 0.63643 0.25805 0.21623 0.0
N5477 N 0.63772 0.24221 0.20777 0.0
C5478 C 0.66578 0.23717 0.22142 0.0
C5479 C 0.66474 0.25348 0.22972 0.0
C5480 C 0.62178 0.19504 0.1971 0.0
C5481 C 0.55007 0.19808 0.19238 0.0
C5482 C 0.58039 0.17877 0.18716 0.0
C5483 C 0.5668 0.17172 0.19731 0.0
C5484 C 0.55153 0.18147 0.19991 0.0
N5485 N 0.57896 0.19516 0.17975 0.0
C5486 C 0.56399 0.20473 0.18238 0.0
Co5487 Co 0.95007 0.34449 0.08401 0.0
Co5488 Co 0.98315 0.36559 0.05982 0.0
O5489 O 0.97277 0.34492 0.07152 0.0
C5490 C 0.97099 0.31566 0.10377 0.0
O5491 O 0.98484 0.31586 0.09346 0.0
C5492 C 0.98812 0.33505 0.03403 0.0
O5493 O 0.9817 0.32308 0.04449 0.0
O5494 O 0.95953 0.37213 0.04856 0.0
O5495 O 0.93956 0.36047 0.06697 0.0
H5496 H 0.00606 0.42871 0.05618 0.0
H5497 H 0.96607 0.31128 0.06927 0.0
O5498 O 0.95902 0.32741 0.10252 0.0
H5499 H 0.90721 0.31482 0.04303 0.0
H5500 H 0.89889 0.31113 0.10795 0.0
H5501 H 0.92224 0.37032 0.09603 0.0
H5502 H 0.91716 0.33722 0.06393 0.0
H5503 H 0.92954 0.31513 0.09905 0.0
O5504 O 0.98927 0.35109 0.03862 0.0
H5505 H 0.99243 0.40382 0.07026 0.0
H5506 H 0.99745 0.3742 0.02266 0.0
H5507 H 0.89112 0.36694 0.10378 0.0
H5508 H 0.95667 0.28834 0.04862 0.0
H5509 H 0.8792 0.33664 0.1095 0.0
H5510 H 0.92695 0.29 0.0352 0.0
O5511 O 0.95719 0.36646 0.09828 0.0
H5512 H 0.03307 0.32502 0.0769 0.0
H5513 H 0.00955 0.38484 0.0829 0.0
H5514 H 0.03792 0.37783 0.09595 0.0
H5515 H 0.05013 0.34771 0.09303 0.0
H5516 H 0.00477 0.33268 0.06387 0.0
H5517 H 0.01213 0.39867 0.00901 0.0
H5518 H 0.01658 0.42647 0.02542 0.0
O5519 O 0.97674 0.38006 0.08043 0.0
C5520 C 0.94357 0.36977 0.05384 0.0
C5521 C 0.00434 0.4166 0.04889 0.0
C5522 C 0.00775 0.39977 0.02252 0.0
N5523 N 0.99399 0.38645 0.04803 0.0
C5524 C 0.99634 0.40208 0.05683 0.0
C5525 C 0.99942 0.38559 0.03075 0.0
C5526 C 0.01023 0.41536 0.03167 0.0
C5527 C 0.95303 0.31179 0.06416 0.0
N5528 N 0.94218 0.32528 0.06864 0.0
C5529 C 0.94779 0.29889 0.05215 0.0
C5530 C 0.93117 0.29986 0.04457 0.0
C5531 C 0.92011 0.31375 0.04895 0.0
C5532 C 0.92589 0.32642 0.06092 0.0
C5533 C 0.90387 0.32419 0.10522 0.0
C5534 C 0.91715 0.35741 0.09833 0.0
C5535 C 0.92138 0.32665 0.10052 0.0
N5536 N 0.92763 0.34302 0.09624 0.0
C5537 C 0.89947 0.35548 0.10289 0.0
C5538 C 0.89279 0.33866 0.10606 0.0
C5539 C 0.96652 0.38007 0.09365 0.0
C5540 C 0.02819 0.33837 0.07781 0.0
C5541 C 0.01478 0.37196 0.08063 0.0
C5542 C 0.0309 0.36794 0.08849 0.0
C5543 C 0.03771 0.35105 0.08691 0.0
N5544 N 0.00575 0.35971 0.07096 0.0
C5545 C 0.01215 0.34291 0.07007 0.0
Co5546 Co 0.87929 0.73351 0.81294 0.0
Co5547 Co 0.90452 0.70145 0.83309 0.0
O5548 O 0.9018 0.7245 0.82215 0.0
C5549 C 0.90515 0.73632 0.7847 0.0
O5550 O 0.90881 0.71972 0.78762 0.0
C5551 C 0.93375 0.72294 0.85212 0.0
O5552 O 0.93249 0.73749 0.84291 0.0
O5553 O 0.88544 0.7081 0.8505 0.0
O5554 O 0.86678 0.72467 0.83423 0.0
H5555 H 0.88595 0.64128 0.8531 0.0
H5556 H 0.91113 0.75532 0.82001 0.0
O5557 O 0.89197 0.74315 0.7923 0.0
H5558 H 0.86194 0.78756 0.84729 0.0
H5559 H 0.8407 0.77637 0.78003 0.0
H5560 H 0.8427 0.72012 0.81226 0.0
H5561 H 0.85672 0.75954 0.83198 0.0
H5562 H 0.86851 0.76576 0.79287 0.0
O5563 O 0.92332 0.71006 0.84966 0.0
H5564 H 0.8811 0.67225 0.84495 0.0
H5565 H 0.93601 0.68135 0.84479 0.0
H5566 H 0.81454 0.73044 0.79992 0.0
H5567 H 0.91697 0.78317 0.83546 0.0
H5568 H 0.81343 0.75872 0.78361 0.0
H5569 H 0.89227 0.79957 0.84918 0.0
O5570 O 0.87411 0.71087 0.79989 0.0
H5571 H 0.96019 0.70918 0.7976 0.0
H5572 H 0.90998 0.6702 0.81001 0.0
H5573 H 0.9328 0.66059 0.78928 0.0
H5574 H 0.9585 0.67988 0.78336 0.0
H5575 H 0.93598 0.71904 0.81676 0.0
H5576 H 0.94158 0.6508 0.85323 0.0
H5577 H 0.91669 0.63016 0.85619 0.0
O5578 O 0.88622 0.69097 0.81768 0.0
C5579 C 0.8708 0.71651 0.84838 0.0
C5580 C 0.89703 0.64991 0.85089 0.0
C5581 C 0.92822 0.65535 0.85137 0.0
N5582 N 0.90804 0.67858 0.84402 0.0
C5583 C 0.89423 0.66752 0.84658 0.0
C5584 C 0.92488 0.67281 0.84697 0.0
C5585 C 0.9142 0.64375 0.85291 0.0
C5586 C 0.90032 0.76216 0.82619 0.0
N5587 N 0.88361 0.75558 0.82523 0.0
C5588 C 0.90371 0.77803 0.83481 0.0
C5589 C 0.88985 0.78725 0.84248 0.0
C5590 C 0.87284 0.78053 0.8414 0.0
C5591 C 0.86997 0.76462 0.83268 0.0
C5592 C 0.84101 0.76404 0.78713 0.0
C5593 C 0.8423 0.73255 0.80538 0.0
C5594 C 0.85676 0.7579 0.79436 0.0
N5595 N 0.85724 0.74238 0.80345 0.0
C5596 C 0.82632 0.73828 0.79833 0.0
C5597 C 0.82571 0.75414 0.78916 0.0
C5598 C 0.87643 0.69496 0.80474 0.0
C5599 C 0.94923 0.70051 0.80035 0.0
C5600 C 0.92083 0.67897 0.80724 0.0
C5601 C 0.93382 0.67332 0.79556 0.0
C5602 C 0.94824 0.68411 0.79228 0.0
N5603 N 0.92208 0.69495 0.8155 0.0
C5604 C 0.93569 0.70593 0.81155 0.0
Co5605 Co 0.11752 0.76134 0.30971 0.0
Co5606 Co 0.09256 0.7963 0.32478 0.0
O5607 O 0.09553 0.772 0.318 0.0
C5608 C 0.08865 0.7538 0.2839 0.0
O5609 O 0.07658 0.75891 0.29499 0.0
C5610 C 0.06906 0.7775 0.35277 0.0
O5611 O 0.07295 0.76093 0.3499 0.0
O5612 O 0.11324 0.7932 0.3413 0.0
O5613 O 0.12962 0.77031 0.3313 0.0
H5614 H 0.11354 0.85605 0.34292 0.0
H5615 H 0.08386 0.741 0.31873 0.0
O5616 O 0.10496 0.75316 0.28796 0.0
H5617 H 0.13229 0.70845 0.34655 0.0
H5618 H 0.152 0.71553 0.2764 0.0
H5619 H 0.15625 0.7692 0.31232 0.0
H5620 H 0.13824 0.73564 0.33033 0.0
H5621 H 0.12541 0.72886 0.28911 0.0
O5622 O 0.07608 0.78991 0.34395 0.0
H5623 H 0.11697 0.82572 0.33228 0.0
H5624 H 0.06145 0.8194 0.33169 0.0
H5625 H 0.18313 0.75627 0.29997 0.0
H5626 H 0.07742 0.71391 0.33467 0.0
H5627 H 0.18116 0.72926 0.28172 0.0
H5628 H 0.10169 0.69724 0.34877 0.0
O5629 O 0.12533 0.78316 0.29654 0.0
H5630 H 0.0327 0.78136 0.30029 0.0
H5631 H 0.08382 0.82089 0.29513 0.0
H5632 H 0.0585 0.82503 0.27553 0.0
H5633 H 0.03253 0.80539 0.27817 0.0
H5634 H 0.05853 0.7772 0.31922 0.0
H5635 H 0.05749 0.85071 0.33862 0.0
H5636 H 0.08339 0.86889 0.34577 0.0
O5637 O 0.10871 0.80499 0.30669 0.0
C5638 C 0.12656 0.78267 0.34242 0.0
C5639 C 0.10204 0.84833 0.33987 0.0
C5640 C 0.0706 0.84527 0.33749 0.0
N5641 N 0.08951 0.8206 0.33181 0.0
C5642 C 0.10393 0.83094 0.33439 0.0
C5643 C 0.07297 0.82754 0.33342 0.0
C5644 C 0.08523 0.85553 0.34137 0.0
C5645 C 0.09467 0.73388 0.32422 0.0
N5646 N 0.11158 0.7398 0.32261 0.0
C5647 C 0.09086 0.71848 0.33353 0.0
C5648 C 0.10446 0.70916 0.34149 0.0
C5649 C 0.1216 0.71541 0.34023 0.0
C5650 C 0.12489 0.73085 0.33084 0.0
C5651 C 0.15302 0.72743 0.28415 0.0
C5652 C 0.15512 0.75767 0.30427 0.0
C5653 C 0.13795 0.73518 0.29127 0.0
N5654 N 0.13905 0.75029 0.30102 0.0
C5655 C 0.17048 0.75028 0.29738 0.0
C5656 C 0.16937 0.73511 0.28716 0.0
C5657 C 0.12097 0.79937 0.29713 0.0
C5658 C 0.04392 0.79004 0.29903 0.0
C5659 C 0.0729 0.81185 0.29608 0.0
C5660 C 0.05843 0.81448 0.28507 0.0
C5661 C 0.04384 0.8035 0.2866 0.0
N5662 N 0.0729 0.79867 0.30837 0.0
C5663 C 0.0586 0.78784 0.30985 0.0
C5664 C 0.096 0.52647 0.08188 0.0
C5665 C 0.10353 0.52836 0.09935 0.0
C5666 C 0.13245 0.53264 0.08496 0.0
C5667 C 0.12399 0.5347 0.06854 0.0
N5668 N 0.10181 0.52092 0.051 0.0
N5669 N 0.13039 0.52773 0.11644 0.0
C5670 C 0.10698 0.52782 0.06677 0.0
C5671 C 0.12226 0.52972 0.10055 0.0
N5672 N 0.07844 0.52402 0.07902 0.0
N5673 N 0.15031 0.53126 0.08502 0.0
H5674 H 0.12418 0.52196 0.12722 0.0
H5675 H 0.14338 0.53131 0.11884 0.0
H5676 H 0.15727 0.53056 0.0732 0.0
H5677 H 0.15793 0.52882 0.09612 0.0
H5678 H 0.07264 0.52627 0.0668 0.0
H5679 H 0.06916 0.52051 0.08824 0.0
H5680 H 0.09005 0.51409 0.04924 0.0
H5681 H 0.11049 0.51938 0.04051 0.0
C5682 C 0.71695 0.38079 0.3337 0.0
C5683 C 0.7123 0.37134 0.3183 0.0
C5684 C 0.71081 0.34431 0.33498 0.0
C5685 C 0.71417 0.35353 0.35106 0.0
N5686 N 0.72418 0.38023 0.36502 0.0
N5687 N 0.71601 0.34376 0.30368 0.0
C5688 C 0.71841 0.37177 0.35025 0.0
C5689 C 0.71288 0.35297 0.31871 0.0
N5690 N 0.72093 0.39818 0.33195 0.0
N5691 N 0.70458 0.32751 0.33504 0.0
H5692 H 0.71986 0.35009 0.29215 0.0
H5693 H 0.71762 0.33014 0.30346 0.0
H5694 H 0.70149 0.32083 0.34649 0.0
H5695 H 0.70056 0.32099 0.32366 0.0
H5696 H 0.72388 0.40659 0.34231 0.0
H5697 H 0.72171 0.40401 0.31953 0.0
H5698 H 0.72767 0.39343 0.36549 0.0
H5699 H 0.72615 0.37379 0.37696 0.0
C5700 C 0.88973 0.97411 0.57064 0.0
C5701 C 0.88153 0.95708 0.57151 0.0
C5702 C 0.88184 0.96019 0.60351 0.0
C5703 C 0.89494 0.97324 0.60293 0.0
N5704 N 0.90921 0.99511 0.58475 0.0
N5705 N 0.87863 0.93194 0.59102 0.0
C5706 C 0.89837 0.98094 0.58609 0.0
C5707 C 0.87969 0.94959 0.58861 0.0
N5708 N 0.88882 0.98425 0.55582 0.0
N5709 N 0.87244 0.95694 0.61842 0.0
H5710 H 0.88394 0.92351 0.58164 0.0
H5711 H 0.87631 0.92632 0.60331 0.0
H5712 H 0.87297 0.96535 0.62926 0.0
H5713 H 0.8627 0.94725 0.61884 0.0
H5714 H 0.89341 0.99715 0.55534 0.0
H5715 H 0.88174 0.98104 0.54463 0.0
H5716 H 0.91461 -0.00067 0.57287 0.0
H5717 H 0.91243 0.00274 0.59557 0.0
C5718 C 0.28034 0.15547 0.83035 0.0
C5719 C 0.2801 0.14658 0.84692 0.0
C5720 C 0.28777 0.11972 0.83037 0.0
C5721 C 0.29375 0.12996 0.81588 0.0
N5722 N 0.29663 0.159 0.80338 0.0
N5723 N 0.28059 0.11826 0.86139 0.0
C5724 C 0.29022 0.14826 0.81618 0.0
C5725 C 0.28308 0.12808 0.84659 0.0
N5726 N 0.27012 0.16991 0.82747 0.0
N5727 N 0.28496 0.10218 0.82806 0.0
H5728 H 0.27421 0.1231 0.87252 0.0
H5729 H 0.28488 0.10528 0.86245 0.0
H5730 H 0.28611 0.09636 0.8157 0.0
H5731 H 0.27928 0.09413 0.83758 0.0
H5732 H 0.26944 0.17615 0.81527 0.0
H5733 H 0.26009 0.17356 0.83601 0.0
H5734 H 0.29492 0.1726 0.80353 0.0
H5735 H 0.30526 0.15447 0.79384 0.0
C5736 C 0.12027 0.47586 0.90229 0.0
C5737 C 0.10385 0.46793 0.89782 0.0
C5738 C 0.10722 0.44788 0.92228 0.0
C5739 C 0.12209 0.45688 0.92879 0.0
N5740 N 0.14265 0.48065 0.92508 0.0
N5741 N 0.07894 0.45243 0.91062 0.0
C5742 C 0.12859 0.47141 0.91887 0.0
C5743 C 0.09642 0.45602 0.91001 0.0
N5744 N 0.1277 0.48759 0.89096 0.0
N5745 N 0.10356 0.43097 0.92674 0.0
H5746 H 0.06994 0.45716 0.90176 0.0
H5747 H 0.0734 0.44517 0.92086 0.0
H5748 H 0.11074 0.42398 0.93587 0.0
H5749 H 0.09374 0.42368 0.92047 0.0
H5750 H 0.14021 0.49289 0.8927 0.0
H5751 H 0.12148 0.49137 0.87932 0.0
H5752 H 0.14732 0.49212 0.91925 0.0
H5753 H 0.14895 0.47727 0.93681 0.0
C5754 C 0.76846 0.35235 0.16237 0.0
C5755 C 0.77545 0.35638 0.14546 0.0
C5756 C 0.79642 0.37578 0.15839 0.0
C5757 C 0.79096 0.3719 0.176 0.0
N5758 N 0.76895 0.35694 0.19406 0.0
N5759 N 0.78678 0.38068 0.12874 0.0
C5760 C 0.7759 0.3605 0.17788 0.0
C5761 C 0.7857 0.37152 0.1441 0.0
N5762 N 0.75355 0.34241 0.16323 0.0
N5763 N 0.81341 0.37942 0.15464 0.0
H5764 H 0.77855 0.37789 0.1181 0.0
H5765 H 0.79428 0.39215 0.12771 0.0
H5766 H 0.82294 0.3737 0.16245 0.0
H5767 H 0.81769 0.3825 0.14201 0.0
H5768 H 0.74688 0.33919 0.17471 0.0
H5769 H 0.74671 0.33898 0.15189 0.0
H5770 H 0.76048 0.3465 0.1966 0.0
H5771 H 0.77101 0.36459 0.20515 0.0
C5772 C 0.88148 0.02854 0.40278 0.0
C5773 C 0.90018 0.02799 0.4041 0.0
C5774 C 0.89744 0.03101 0.43644 0.0
C5775 C 0.87936 0.03502 0.43436 0.0
N5776 N 0.85358 0.02727 0.41836 0.0
N5777 N 0.92531 0.02289 0.42344 0.0
C5778 C 0.87117 0.03073 0.41827 0.0
C5779 C 0.90801 0.02737 0.4213 0.0
N5780 N 0.87351 0.02669 0.38678 0.0
N5781 N 0.9045 0.03058 0.4529 0.0
H5782 H 0.93417 0.02094 0.41332 0.0
H5783 H 0.93108 0.02005 0.4355 0.0
H5784 H 0.8968 0.02794 0.4639 0.0
H5785 H 0.91786 0.03181 0.45563 0.0
H5786 H 0.86026 0.02947 0.38465 0.0
H5787 H 0.8802 0.02259 0.37553 0.0
H5788 H 0.84661 0.02269 0.40749 0.0
H5789 H 0.84652 0.02701 0.43014 0.0
C5790 C 0.22429 0.14875 0.66676 0.0
C5791 C 0.22021 0.14104 0.65015 0.0
C5792 C 0.21116 0.11494 0.66695 0.0
C5793 C 0.20892 0.1253 0.6824 0.0
N5794 N 0.2147 0.15359 0.69627 0.0
N5795 N 0.21303 0.1139 0.63515 0.0
C5796 C 0.21585 0.14264 0.68216 0.0
C5797 C 0.21447 0.12324 0.65039 0.0
N5798 N 0.23771 0.16047 0.66835 0.0
N5799 N 0.21188 0.09711 0.66849 0.0
H5800 H 0.21825 0.11825 0.62325 0.0
H5801 H 0.20675 0.10171 0.63456 0.0
H5802 H 0.21204 0.09112 0.68084 0.0
H5803 H 0.21478 0.08875 0.65803 0.0
H5804 H 0.24178 0.16562 0.6804 0.0
H5805 H 0.24671 0.1622 0.6583 0.0
H5806 H 0.21778 0.16695 0.69544 0.0
H5807 H 0.21003 0.14978 0.7084 0.0
C5808 C 0.07609 0.11699 0.52547 0.0
C5809 C 0.07162 0.11689 0.54372 0.0
C5810 C 0.10229 0.11068 0.55048 0.0
C5811 C 0.10642 0.10696 0.5329 0.0
N5812 N 0.09649 0.10681 0.50281 0.0
N5813 N 0.07998 0.10421 0.57158 0.0
C5814 C 0.09297 0.11004 0.52007 0.0
C5815 C 0.08457 0.11078 0.5556 0.0
N5816 N 0.06483 0.12407 0.51344 0.0
N5817 N 0.11495 0.11488 0.56231 0.0
H5818 H 0.06684 0.1022 0.57509 0.0
H5819 H 0.08933 0.09888 0.58011 0.0
H5820 H 0.12779 0.11773 0.5585 0.0
H5821 H 0.11188 0.11786 0.57531 0.0
H5822 H 0.06814 0.12585 0.50027 0.0
H5823 H 0.0526 0.12921 0.51681 0.0
H5824 H 0.08685 0.10671 0.49307 0.0
H5825 H 0.1092 0.10393 0.49851 0.0
C5826 C 0.13334 0.33648 0.80407 0.0
C5827 C 0.13541 0.31977 0.79612 0.0
C5828 C 0.14733 0.33558 0.77019 0.0
C5829 C 0.14413 0.35198 0.7787 0.0
N5830 N 0.12392 0.36606 0.79874 0.0
N5831 N 0.14921 0.30367 0.77217 0.0
C5832 C 0.13358 0.35178 0.79385 0.0
C5833 C 0.1436 0.31925 0.77913 0.0
N5834 N 0.13407 0.33805 0.8218 0.0
N5835 N 0.15236 0.33582 0.753 0.0
H5836 H 0.1488 0.29179 0.77885 0.0
H5837 H 0.15642 0.30266 0.76059 0.0
H5838 H 0.15218 0.34755 0.74597 0.0
H5839 H 0.15409 0.32471 0.74521 0.0
H5840 H 0.13259 0.35008 0.82816 0.0
H5841 H 0.13935 0.32784 0.82928 0.0
H5842 H 0.11577 0.36581 0.8098 0.0
H5843 H 0.12235 0.37694 0.79051 0.0
C5844 C 0.90618 0.40279 0.0522 0.0
C5845 C 0.89567 0.39622 0.03842 0.0
C5846 C 0.91829 0.37379 0.03224 0.0
C5847 C 0.92832 0.38004 0.04682 0.0
N5848 N 0.92655 0.39572 0.07456 0.0
N5849 N 0.89272 0.37756 0.0131 0.0
C5850 C 0.92086 0.39326 0.05779 0.0
C5851 C 0.90202 0.38228 0.02774 0.0
N5852 N 0.90256 0.41863 0.05983 0.0
N5853 N 0.92341 0.35875 0.0239 0.0
H5854 H 0.88063 0.38326 0.00993 0.0
H5855 H 0.89731 0.36884 0.00361 0.0
H5856 H 0.93435 0.3516 0.02792 0.0
H5857 H 0.91615 0.35248 0.01416 0.0
H5858 H 0.91101 0.42484 0.06866 0.0
H5859 H 0.89211 0.42643 0.05603 0.0
H5860 H 0.91983 0.4033 0.08382 0.0
H5861 H 0.93683 0.38868 0.07987 0.0
C5862 C 0.84492 0.15995 0.2942 0.0
C5863 C 0.85007 0.15189 0.27839 0.0
C5864 C 0.87288 0.17459 0.27467 0.0
C5865 C 0.86927 0.18076 0.29202 0.0
N5866 N 0.85407 0.1751 0.31981 0.0
N5867 N 0.86931 0.15079 0.25335 0.0
C5868 C 0.85606 0.17215 0.30224 0.0
C5869 C 0.86407 0.1591 0.26839 0.0
N5870 N 0.82882 0.15651 0.30133 0.0
N5871 N 0.88502 0.18307 0.2645 0.0
H5872 H 0.8628 0.13973 0.24847 0.0
H5873 H 0.88054 0.15421 0.2463 0.0
H5874 H 0.89254 0.19358 0.26907 0.0
H5875 H 0.88704 0.18027 0.25125 0.0
H5876 H 0.82386 0.16295 0.31237 0.0
H5877 H 0.81951 0.14918 0.29467 0.0
H5878 H 0.84663 0.1669 0.32794 0.0
H5879 H 0.86018 0.18514 0.32657 0.0
C5880 C 0.06698 0.90097 0.46569 0.0
C5881 C 0.06528 0.88269 0.46358 0.0
C5882 C 0.09664 0.87936 0.47143 0.0
C5883 C 0.09804 0.89788 0.47345 0.0
N5884 N 0.08002 0.9218 0.48498 0.0
N5885 N 0.07664 0.85442 0.47197 0.0
C5886 C 0.08188 0.90747 0.47448 0.0
C5887 C 0.07959 0.87179 0.4688 0.0
N5888 N 0.05509 0.91236 0.45869 0.0
N5889 N 0.11121 0.86897 0.4725 0.0
H5890 H 0.06409 0.84898 0.47087 0.0
H5891 H 0.08612 0.84606 0.47728 0.0
H5892 H 0.12337 0.87372 0.4767 0.0
H5893 H 0.11108 0.8557 0.46905 0.0
H5894 H 0.05675 0.92598 0.45941 0.0
H5895 H 0.04503 0.90814 0.45047 0.0
H5896 H 0.06808 0.9285 0.48617 0.0
H5897 H 0.08909 0.9247 0.49472 0.0
C5898 C 0.34279 0.3333 0.71161 0.0
C5899 C 0.35265 0.34815 0.71737 0.0
C5900 C 0.37903 0.32921 0.71895 0.0
C5901 C 0.36928 0.31473 0.71195 0.0
N5902 N 0.34023 0.30236 0.70703 0.0
N5903 N 0.38013 0.36021 0.72738 0.0
C5904 C 0.35069 0.31648 0.71047 0.0
C5905 C 0.37079 0.34607 0.72135 0.0
N5906 N 0.32623 0.33547 0.70496 0.0
N5907 N 0.39582 0.32633 0.72458 0.0
H5908 H 0.3742 0.37208 0.73083 0.0
H5909 H 0.39375 0.3605 0.7286 0.0
H5910 H 0.40121 0.31377 0.72482 0.0
H5911 H 0.40377 0.33566 0.73061 0.0
H5912 H 0.31872 0.3255 0.69936 0.0
H5913 H 0.32057 0.34764 0.70293 0.0
H5914 H 0.3269 0.30199 0.71027 0.0
H5915 H 0.34452 0.2911 0.70097 0.0
C5916 C 0.89884 0.61107 0.94592 0.0
C5917 C 0.89493 0.60729 0.96349 0.0
C5918 C 0.92482 0.61819 0.97096 0.0
C5919 C 0.92942 0.61739 0.9528 0.0
N5920 N 0.9213 0.60565 0.92452 0.0
N5921 N 0.90404 0.60919 0.99373 0.0
C5922 C 0.91655 0.61131 0.9408 0.0
C5923 C 0.90799 0.61138 0.97639 0.0
N5924 N 0.88594 0.61542 0.93438 0.0
N5925 N 0.93591 0.62584 0.9828 0.0
H5926 H 0.89122 0.60649 0.99785 0.0
H5927 H 0.91338 0.60984 0.00374 0.0
H5928 H 0.9482 0.63081 0.97937 0.0
H5929 H 0.93246 0.62819 0.99585 0.0
H5930 H 0.88864 0.61871 0.92136 0.0
H5931 H 0.87313 0.61797 0.93865 0.0
H5932 H 0.91216 0.60257 0.91486 0.0
H5933 H 0.93443 0.60329 0.92122 0.0
C5934 C 0.63858 0.16759 0.19248 0.0
C5935 C 0.631 0.17933 0.20477 0.0
C5936 C 0.63519 0.1562 0.22715 0.0
C5937 C 0.63991 0.14401 0.21363 0.0
N5938 N 0.63577 0.13783 0.1829 0.0
N5939 N 0.62116 0.18405 0.2347 0.0
C5940 C 0.63845 0.14955 0.1961 0.0
C5941 C 0.62911 0.17353 0.22251 0.0
N5942 N 0.64606 0.17362 0.17737 0.0
N5943 N 0.63591 0.15093 0.24425 0.0
H5944 H 0.61688 0.19676 0.23198 0.0
H5945 H 0.61805 0.17987 0.24736 0.0
H5946 H 0.63758 0.13773 0.24756 0.0
H5947 H 0.63499 0.15954 0.25487 0.0
H5948 H 0.65239 0.16521 0.16854 0.0
H5949 H 0.64738 0.18705 0.17479 0.0
H5950 H 0.63465 0.14177 0.16983 0.0
H5951 H 0.63192 0.12493 0.18544 0.0
C5952 C 0.52934 0.07561 0.12003 0.0
C5953 C 0.54421 0.06576 0.1146 0.0
C5954 C 0.55436 0.09069 0.0967 0.0
C5955 C 0.53901 0.10039 0.10119 0.0
N5956 N 0.51084 0.1014 0.11575 0.0
N5957 N 0.56831 0.06209 0.09471 0.0
C5958 C 0.52609 0.09254 0.11235 0.0
C5959 C 0.55577 0.0728 0.10184 0.0
N5960 N 0.51886 0.06917 0.13312 0.0
N5961 N 0.56768 0.09847 0.08749 0.0
H5962 H 0.56858 0.04861 0.09716 0.0
H5963 H 0.57771 0.06612 0.08572 0.0
H5964 H 0.56676 0.1109 0.08195 0.0
H5965 H 0.58022 0.0931 0.0864 0.0
H5966 H 0.50899 0.07643 0.13922 0.0
H5967 H 0.5206 0.0566 0.13835 0.0
H5968 H 0.50004 0.09574 0.12198 0.0
H5969 H 0.50882 0.11436 0.11171 0.0
C5970 C 0.0308 0.9001 0.37939 0.0
C5971 C 0.02592 0.90262 0.39715 0.0
C5972 C 0.02658 0.93485 0.39205 0.0
C5973 C 0.03607 0.93212 0.37599 0.0
N5974 N 0.04294 0.91158 0.35293 0.0
N5975 N 0.01013 0.92229 0.41644 0.0
C5976 C 0.0366 0.91461 0.36925 0.0
C5977 C 0.02125 0.92001 0.40253 0.0
N5978 N 0.03026 0.88361 0.37221 0.0
N5979 N 0.02208 0.95147 0.3971 0.0
H5980 H 0.00306 0.91198 0.42188 0.0
H5981 H 0.00569 0.93438 0.421 0.0
H5982 H 0.02033 0.96166 0.38815 0.0
H5983 H 0.01899 0.95496 0.40997 0.0
H5984 H 0.03556 0.88045 0.35997 0.0
H5985 H 0.02364 0.87322 0.37828 0.0
H5986 H 0.05658 0.91098 0.35158 0.0
H5987 H 0.03612 0.90362 0.34406 0.0
C5988 C 0.3255 0.28294 0.62929 0.0
C5989 C 0.3158 0.29767 0.63546 0.0
C5990 C 0.33959 0.30445 0.65638 0.0
C5991 C 0.34914 0.28939 0.65077 0.0
N5992 N 0.35007 0.26283 0.63345 0.0
N5993 N 0.31203 0.32039 0.65703 0.0
C5994 C 0.34168 0.27814 0.63774 0.0
C5995 C 0.32245 0.30779 0.64961 0.0
N5996 N 0.31962 0.27402 0.61485 0.0
N5997 N 0.34694 0.31584 0.66813 0.0
H5998 H 0.2998 0.3239 0.65198 0.0
H5999 H 0.31475 0.32615 0.66911 0.0
H6000 H 0.35846 0.31313 0.67491 0.0
H6001 H 0.34206 0.32839 0.6705 0.0
H6002 H 0.32698 0.26454 0.60824 0.0
H6003 H 0.30759 0.27679 0.6089 0.0
H6004 H 0.34441 0.253 0.62578 0.0
H6005 H 0.36249 0.25956 0.63828 0.0
C6006 C 0.96383 0.59812 0.8751 0.0
C6007 C 0.96673 0.59882 0.8936 0.0
C6008 C 0.95701 0.56814 0.89588 0.0
C6009 C 0.95481 0.56689 0.87753 0.0
N6010 N 0.96297 0.57906 0.84946 0.0
N6011 N 0.97716 0.57945 0.91695 0.0
C6012 C 0.96018 0.58147 0.867 0.0
C6013 C 0.96667 0.58238 0.90276 0.0
N6014 N 0.96532 0.61293 0.8651 0.0
N6015 N 0.94943 0.55635 0.90701 0.0
H6016 H 0.98779 0.58752 0.91978 0.0
H6017 H 0.97752 0.56733 0.9234 0.0
H6018 H 0.94048 0.547 0.90262 0.0
H6019 H 0.95028 0.55762 0.92066 0.0
H6020 H 0.96113 0.61348 0.85206 0.0
H6021 H 0.97062 0.62463 0.86988 0.0
H6022 H 0.96809 0.58876 0.84124 0.0
H6023 H 0.96219 0.56662 0.84373 0.0
C6024 C 0.16526 0.71429 0.11738 0.0
C6025 C 0.18095 0.7114 0.12694 0.0
C6026 C 0.16503 0.71296 0.15437 0.0
C6027 C 0.14846 0.71389 0.14518 0.0
N6028 N 0.13351 0.71879 0.11751 0.0
N6029 N 0.19618 0.71939 0.15313 0.0
C6030 C 0.14877 0.71571 0.12649 0.0
C6031 C 0.18098 0.71451 0.14499 0.0
N6032 N 0.16669 0.7172 0.09976 0.0
N6033 N 0.16592 0.70904 0.17182 0.0
H6034 H 0.20743 0.72241 0.14591 0.0
H6035 H 0.19676 0.72307 0.16633 0.0
H6036 H 0.15508 0.70552 0.17915 0.0
H6037 H 0.17772 0.70674 0.17842 0.0
H6038 H 0.15632 0.72086 0.09164 0.0
H6039 H 0.17897 0.71726 0.09357 0.0
H6040 H 0.1324 0.71823 0.10389 0.0
H6041 H 0.12176 0.72213 0.12371 0.0
C6042 C 0.45289 0.92924 0.09843 0.0
C6043 C 0.45693 0.93304 0.11609 0.0
C6044 C 0.46818 0.90277 0.11976 0.0
C6045 C 0.46443 0.89912 0.10183 0.0
N6046 N 0.46022 0.91278 0.07281 0.0
N6047 N 0.47343 0.92537 0.14185 0.0
C6048 C 0.45937 0.91363 0.09074 0.0
C6049 C 0.46626 0.9204 0.12621 0.0
N6050 N 0.44186 0.93993 0.08907 0.0
N6051 N 0.47367 0.88953 0.13057 0.0
H6052 H 0.47196 0.9381 0.14668 0.0
H6053 H 0.4818 0.91739 0.1492 0.0
H6054 H 0.47579 0.87674 0.12609 0.0
H6055 H 0.47519 0.89105 0.14409 0.0
H6056 H 0.4371 0.93666 0.07663 0.0
H6057 H 0.43611 0.95119 0.0943 0.0
H6058 H 0.4591 0.92393 0.06488 0.0
H6059 H 0.46258 0.90146 0.06568 0.0
C6060 C 0.32721 0.2187 0.87422 0.0
C6061 C 0.31504 0.20787 0.86505 0.0
C6062 C 0.33823 0.19874 0.84489 0.0
C6063 C 0.35073 0.20938 0.85386 0.0
N6064 N 0.35639 0.23214 0.87509 0.0
N6065 N 0.30807 0.19128 0.83912 0.0
C6066 C 0.34499 0.22022 0.86797 0.0
C6067 C 0.3203 0.19945 0.84939 0.0
N6068 N 0.32182 0.22698 0.88919 0.0
N6069 N 0.34366 0.18717 0.83237 0.0
H6070 H 0.29513 0.18969 0.84305 0.0
H6071 H 0.31053 0.18726 0.82627 0.0
H6072 H 0.35657 0.18665 0.82841 0.0
H6073 H 0.33587 0.17721 0.82708 0.0
H6074 H 0.33024 0.23365 0.89768 0.0
H6075 H 0.30872 0.22665 0.89329 0.0
H6076 H 0.3527 0.24161 0.88426 0.0
H6077 H 0.36949 0.23303 0.87108 0.0
C6078 C 0.66299 0.30533 0.36457 0.0
C6079 C 0.67771 0.29419 0.36746 0.0
C6080 C 0.65834 0.2698 0.35793 0.0
C6081 C 0.64366 0.28156 0.35774 0.0
N6082 N 0.63279 0.30732 0.37243 0.0
N6083 N 0.68813 0.26395 0.36832 0.0
C6084 C 0.64616 0.29823 0.36491 0.0
C6085 C 0.67515 0.27575 0.36452 0.0
N6086 N 0.66483 0.32257 0.36032 0.0
N6087 N 0.65601 0.2529 0.3525 0.0
H6088 H 0.70058 0.2675 0.37267 0.0
H6089 H 0.68623 0.25039 0.36802 0.0
H6090 H 0.64344 0.24778 0.3506 0.0
H6091 H 0.66634 0.24425 0.35 0.0
H6092 H 0.65398 0.33045 0.35726 0.0
H6093 H 0.67703 0.32818 0.35789 0.0
H6094 H 0.63505 0.31943 0.37845 0.0
H6095 H 0.62079 0.30131 0.37516 0.0
C6096 C 0.09086 0.04737 0.58531 0.0
C6097 C 0.10003 0.03743 0.59826 0.0
C6098 C 0.12349 0.03165 0.57669 0.0
C6099 C 0.11574 0.04399 0.56505 0.0
N6100 N 0.09275 0.06487 0.55885 0.0
N6101 N 0.12495 0.0197 0.60639 0.0
C6102 C 0.09947 0.05198 0.56941 0.0
C6103 C 0.1163 0.02934 0.59394 0.0
N6104 N 0.07398 0.05272 0.5883 0.0
N6105 N 0.13768 0.02214 0.57111 0.0
H6106 H 0.11972 0.01735 0.61886 0.0
H6107 H 0.13765 0.01483 0.60476 0.0
H6108 H 0.14292 0.02358 0.5585 0.0
H6109 H 0.14332 0.01193 0.57828 0.0
H6110 H 0.0658 0.05793 0.57866 0.0
H6111 H 0.06761 0.05075 0.60018 0.0
H6112 H 0.08123 0.07173 0.56144 0.0
H6113 H 0.09936 0.06967 0.54792 0.0
C6114 C 0.69059 0.86476 0.83394 0.0
C6115 C 0.70114 0.8658 0.81864 0.0
C6116 C 0.72645 0.86002 0.83832 0.0
C6117 C 0.71502 0.86093 0.85319 0.0
N6118 N 0.6894 0.87642 0.86313 0.0
N6119 N 0.73087 0.86462 0.80684 0.0
C6120 C 0.69817 0.86751 0.8504 0.0
C6121 C 0.71973 0.86355 0.82088 0.0
N6122 N 0.67344 0.86006 0.83295 0.0
N6123 N 0.74375 0.85644 0.84114 0.0
H6124 H 0.72664 0.86507 0.79387 0.0
H6125 H 0.7445 0.86502 0.80802 0.0
H6126 H 0.74891 0.85699 0.85384 0.0
H6127 H 0.75273 0.8534 0.83126 0.0
H6128 H 0.66535 0.86018 0.84402 0.0
H6129 H 0.66831 0.85439 0.82153 0.0
H6130 H 0.67702 0.8819 0.86078 0.0
H6131 H 0.69547 0.87981 0.87495 0.0
C6132 C 0.87266 0.45189 0.08841 0.0
C6133 C 0.87531 0.45856 0.0711 0.0
C6134 C 0.89471 0.48074 0.08499 0.0
C6135 C 0.89083 0.47361 0.10205 0.0
N6136 N 0.86668 0.46054 0.11807 0.0
N6137 N 0.88465 0.48445 0.05479 0.0
C6138 C 0.87613 0.46249 0.103 0.0
C6139 C 0.88508 0.4746 0.0698 0.0
N6140 N 0.87065 0.43448 0.09138 0.0
N6141 N 0.90692 0.49367 0.08321 0.0
H6142 H 0.87642 0.48167 0.04423 0.0
H6143 H 0.89064 0.49672 0.05373 0.0
H6144 H 0.9115 0.5007 0.09391 0.0
H6145 H 0.91214 0.49746 0.07111 0.0
H6146 H 0.86864 0.42941 0.10395 0.0
H6147 H 0.87591 0.42573 0.08237 0.0
H6148 H 0.85578 0.45218 0.11856 0.0
H6149 H 0.86849 0.46882 0.12888 0.0
C6150 C 0.27479 0.64815 0.33305 0.0
C6151 C 0.27806 0.64095 0.35015 0.0
C6152 C 0.28693 0.61363 0.33496 0.0
C6153 C 0.28929 0.62294 0.31894 0.0
N6154 N 0.28159 0.64891 0.30222 0.0
N6155 N 0.28339 0.61416 0.36658 0.0
C6156 C 0.28217 0.64016 0.31783 0.0
C6157 C 0.28307 0.62288 0.35091 0.0
N6158 N 0.26287 0.66135 0.33087 0.0
N6159 N 0.28649 0.59573 0.33444 0.0
H6160 H 0.27705 0.6188 0.37781 0.0
H6161 H 0.28964 0.60207 0.3682 0.0
H6162 H 0.28655 0.58907 0.32244 0.0
H6163 H 0.28356 0.58784 0.34526 0.0
H6164 H 0.2591 0.66634 0.31868 0.0
H6165 H 0.25438 0.66505 0.34079 0.0
H6166 H 0.28051 0.66257 0.30146 0.0
H6167 H 0.28057 0.64245 0.29025 0.0
C6168 C 0.09162 0.94735 0.409 0.0
C6169 C 0.09983 0.95865 0.39657 0.0
C6170 C 0.12358 0.96472 0.41779 0.0
C6171 C 0.11543 0.95333 0.43021 0.0
N6172 N 0.09269 0.93232 0.43703 0.0
N6173 N 0.12187 0.98033 0.38987 0.0
C6174 C 0.09957 0.94446 0.42569 0.0
C6175 C 0.11535 0.96796 0.40118 0.0
N6176 N 0.07581 0.93973 0.40499 0.0
N6177 N 0.13975 0.97159 0.4215 0.0
H6178 H 0.11656 0.98251 0.3774 0.0
H6179 H 0.13185 0.98912 0.39312 0.0
H6180 H 0.14585 0.9697 0.4336 0.0
H6181 H 0.14757 0.97818 0.4124 0.0
H6182 H 0.06761 0.9337 0.41414 0.0
H6183 H 0.07043 0.94008 0.39242 0.0
H6184 H 0.08297 0.92328 0.4337 0.0
H6185 H 0.09743 0.93062 0.44973 0.0
C6186 C 0.78053 0.86905 0.67367 0.0
C6187 C 0.79362 0.8607 0.68403 0.0
C6188 C 0.80316 0.8437 0.65829 0.0
C6189 C 0.79031 0.85217 0.6476 0.0
N6190 N 0.76459 0.87058 0.64589 0.0
N6191 N 0.81401 0.83693 0.68749 0.0
C6192 C 0.77827 0.86412 0.65559 0.0
C6193 C 0.80369 0.8469 0.67667 0.0
N6194 N 0.77077 0.88221 0.68102 0.0
N6195 N 0.81512 0.83263 0.65083 0.0
H6196 H 0.81495 0.83942 0.70092 0.0
H6197 H 0.82032 0.82541 0.68361 0.0
H6198 H 0.8144 0.82892 0.63779 0.0
H6199 H 0.82626 0.8279 0.65722 0.0
H6200 H 0.76245 0.89045 0.67393 0.0
H6201 H 0.77147 0.88509 0.6944 0.0
H6202 H 0.75425 0.8778 0.65121 0.0
H6203 H 0.76323 0.86802 0.63247 0.0
C6204 C 0.88979 0.51915 0.90926 0.0
C6205 C 0.89171 0.5323 0.89593 0.0
C6206 C 0.88831 0.55476 0.91806 0.0
C6207 C 0.88454 0.54234 0.93132 0.0
N6208 N 0.88046 0.51198 0.93925 0.0
N6209 N 0.88197 0.56137 0.88791 0.0
C6210 C 0.885 0.52418 0.92691 0.0
C6211 C 0.8876 0.54975 0.90033 0.0
N6212 N 0.89166 0.50192 0.90475 0.0
N6213 N 0.89247 0.57155 0.9224 0.0
H6214 H 0.87814 0.55733 0.8754 0.0
H6215 H 0.87844 0.57425 0.89094 0.0
H6216 H 0.89439 0.57542 0.93542 0.0
H6217 H 0.89517 0.58084 0.91276 0.0
H6218 H 0.89253 0.4917 0.91382 0.0
H6219 H 0.89203 0.49808 0.89159 0.0
H6220 H 0.87893 0.49864 0.93656 0.0
H6221 H 0.87775 0.5154 0.95224 0.0
C6222 C 0.21872 0.62062 0.16686 0.0
C6223 C 0.21355 0.63017 0.1821 0.0
C6224 C 0.21035 0.65668 0.16426 0.0
C6225 C 0.21481 0.64726 0.14869 0.0
N6226 N 0.22735 0.62111 0.1359 0.0
N6227 N 0.21431 0.65855 0.1958 0.0
C6228 C 0.22026 0.62941 0.15018 0.0
C6229 C 0.21265 0.64865 0.18098 0.0
N6230 N 0.22254 0.6032 0.16863 0.0
N6231 N 0.20292 0.67299 0.1631 0.0
H6232 H 0.21792 0.65286 0.20772 0.0
H6233 H 0.21472 0.67225 0.19566 0.0
H6234 H 0.1988 0.67837 0.15118 0.0
H6235 H 0.19926 0.68043 0.17401 0.0
H6236 H 0.22489 0.59471 0.15816 0.0
H6237 H 0.22311 0.59723 0.18099 0.0
H6238 H 0.23273 0.60854 0.13625 0.0
H6239 H 0.22891 0.62729 0.12376 0.0
C6240 C 0.06928 0.59897 0.04265 0.0
C6241 C 0.06821 0.61738 0.04074 0.0
C6242 C 0.10005 0.61815 0.03405 0.0
C6243 C 0.10151 0.60048 0.03998 0.0
N6244 N 0.08758 0.5744 0.05128 0.0
N6245 N 0.08121 0.64385 0.02987 0.0
C6246 C 0.08607 0.591 0.04462 0.0
C6247 C 0.08329 0.62677 0.03493 0.0
N6248 N 0.05429 0.58917 0.04207 0.0
N6249 N 0.1145 0.62639 0.02723 0.0
H6250 H 0.06873 0.64952 0.02888 0.0
H6251 H 0.09147 0.6523 0.02663 0.0
H6252 H 0.12684 0.62041 0.02665 0.0
H6253 H 0.11432 0.63885 0.0216 0.0
H6254 H 0.05402 0.5755 0.04269 0.0
H6255 H 0.04243 0.5947 0.03806 0.0
H6256 H 0.07695 0.56623 0.05385 0.0
H6257 H 0.09966 0.569 0.05493 0.0
C6258 C 0.15703 0.83393 0.29597 0.0
C6259 C 0.15002 0.84609 0.28366 0.0
C6260 C 0.12615 0.82515 0.27678 0.0
C6261 C 0.13264 0.81348 0.2899 0.0
N6262 N 0.1546 0.80638 0.31164 0.0
N6263 N 0.12966 0.85259 0.26039 0.0
C6264 C 0.14827 0.81775 0.29926 0.0
C6265 C 0.13507 0.84146 0.27343 0.0
N6266 N 0.1718 0.83828 0.3052 0.0
N6267 N 0.11116 0.82068 0.2679 0.0
H6268 H 0.13565 0.86472 0.2581 0.0
H6269 H 0.11979 0.84969 0.25138 0.0
H6270 H 0.10511 0.80844 0.26942 0.0
H6271 H 0.1045 0.82897 0.2593 0.0
H6272 H 0.17552 0.8323 0.31687 0.0
H6273 H 0.17975 0.84888 0.30191 0.0
H6274 H 0.16713 0.80694 0.3171 0.0
H6275 H 0.14731 0.79591 0.31638 0.0
C6276 C 0.9326 0.89789 0.53267 0.0
C6277 C 0.93383 0.87952 0.53221 0.0
C6278 C 0.90148 0.87821 0.52813 0.0
C6279 C 0.90025 0.89608 0.53353 0.0
N6280 N 0.91557 0.92187 0.54415 0.0
N6281 N 0.92003 0.85213 0.52522 0.0
C6282 C 0.91613 0.90565 0.53654 0.0
C6283 C 0.91834 0.86967 0.52846 0.0
N6284 N 0.94718 0.90785 0.52968 0.0
N6285 N 0.88682 0.86964 0.52226 0.0
H6286 H 0.93241 0.84625 0.52428 0.0
H6287 H 0.90949 0.84348 0.52396 0.0
H6288 H 0.87448 0.8756 0.5217 0.0
H6289 H 0.887 0.85705 0.5169 0.0
H6290 H 0.94686 0.92154 0.52898 0.0
H6291 H 0.95886 0.90211 0.52534 0.0
H6292 H 0.92677 0.92938 0.54666 0.0
H6293 H 0.90416 0.92676 0.54998 0.0
C6294 C 0.86674 0.67621 0.77778 0.0
C6295 C 0.86706 0.67966 0.79624 0.0
C6296 C 0.86287 0.64852 0.80144 0.0
C6297 C 0.85832 0.64514 0.78392 0.0
N6298 N 0.85836 0.65598 0.75426 0.0
N6299 N 0.85676 0.66907 0.8243 0.0
C6300 C 0.86068 0.65922 0.77167 0.0
C6301 C 0.86218 0.66584 0.80759 0.0
N6302 N 0.87284 0.68853 0.76625 0.0
N6303 N 0.86976 0.63579 0.81184 0.0
H6304 H 0.85494 0.68186 0.82898 0.0
H6305 H 0.85276 0.65885 0.83256 0.0
H6306 H 0.87332 0.6235 0.80693 0.0
H6307 H 0.8738 0.63857 0.82462 0.0
H6308 H 0.87438 0.68619 0.75285 0.0
H6309 H 0.87727 0.70086 0.77025 0.0
H6310 H 0.85769 0.66579 0.74472 0.0
H6311 H 0.85756 0.64311 0.74964 0.0
C6312 C 0.09399 0.38262 0.96763 0.0
C6313 C 0.09691 0.40059 0.96318 0.0
C6314 C 0.06665 0.40189 0.95122 0.0
C6315 C 0.06336 0.38444 0.95646 0.0
N6316 N 0.07251 0.35941 0.9733 0.0
N6317 N 0.08224 0.42845 0.95664 0.0
C6318 C 0.07664 0.3752 0.96585 0.0
C6319 C 0.08203 0.41058 0.95712 0.0
N6320 N 0.10762 0.37264 0.97371 0.0
N6321 N 0.05587 0.40995 0.9393 0.0
H6322 H 0.09354 0.43577 0.95801 0.0
H6323 H 0.07089 0.43597 0.9549 0.0
H6324 H 0.04511 0.40376 0.93355 0.0
H6325 H 0.05875 0.42209 0.93366 0.0
H6326 H 0.10685 0.35906 0.9753 0.0
H6327 H 0.12004 0.37783 0.97633 0.0
H6328 H 0.08094 0.3525 0.9816 0.0
H6329 H 0.05991 0.35405 0.97234 0.0
C6330 C 0.36721 0.82473 0.22282 0.0
C6331 C 0.37294 0.82444 0.20488 0.0
C6332 C 0.37104 0.85644 0.20507 0.0
C6333 C 0.3596 0.85629 0.21948 0.0
N6334 N 0.35058 0.84025 0.24533 0.0
N6335 N 0.37114 0.84173 0.17795 0.0
C6336 C 0.35865 0.84032 0.22938 0.0
C6337 C 0.3728 0.84082 0.19568 0.0
N6338 N 0.37067 0.81098 0.23385 0.0
N6339 N 0.3788 0.87152 0.19929 0.0
H6340 H 0.3667 0.83099 0.17089 0.0
H6341 H 0.37035 0.85372 0.17128 0.0
H6342 H 0.37838 0.88312 0.20664 0.0
H6343 H 0.38722 0.87154 0.18843 0.0
H6344 H 0.36766 0.81116 0.24721 0.0
H6345 H 0.37844 0.80029 0.23037 0.0
H6346 H 0.34695 0.82878 0.25191 0.0
H6347 H 0.3482 0.85191 0.25204 0.0
C6348 C 0.91498 0.12749 0.46446 0.0
C6349 C 0.92968 0.1175 0.45871 0.0
C6350 C 0.91087 0.09196 0.45441 0.0
C6351 C 0.89583 0.10196 0.45929 0.0
N6352 N 0.88378 0.12822 0.47217 0.0
N6353 N 0.94241 0.08876 0.45756 0.0
C6354 C 0.89793 0.11949 0.46535 0.0
C6355 C 0.92789 0.09919 0.45672 0.0
N6356 N 0.91766 0.14454 0.46932 0.0
N6357 N 0.90876 0.0756 0.44731 0.0
H6358 H 0.95448 0.0939 0.46149 0.0
H6359 H 0.94197 0.07508 0.45709 0.0
H6360 H 0.89644 0.07071 0.44384 0.0
H6361 H 0.91911 0.06735 0.44384 0.0
H6362 H 0.90769 0.15334 0.47253 0.0
H6363 H 0.93033 0.14984 0.47002 0.0
H6364 H 0.88445 0.14059 0.47796 0.0
H6365 H 0.87121 0.12272 0.47253 0.0
C6366 C 0.65729 0.66019 0.69815 0.0
C6367 C 0.6494 0.6477 0.70966 0.0
C6368 C 0.62383 0.66728 0.71323 0.0
C6369 C 0.6316 0.67969 0.7015 0.0
N6370 N 0.65565 0.688 0.6827 0.0
N6371 N 0.62692 0.64054 0.73068 0.0
C6372 C 0.64844 0.67622 0.69418 0.0
C6373 C 0.63316 0.6516 0.71794 0.0
N6374 N 0.67289 0.65621 0.69016 0.0
N6375 N 0.60723 0.67024 0.71938 0.0
H6376 H 0.63334 0.62891 0.73416 0.0
H6377 H 0.61614 0.64334 0.73863 0.0
H6378 H 0.60049 0.68186 0.71682 0.0
H6379 H 0.59978 0.661 0.72619 0.0
H6380 H 0.67867 0.66357 0.68024 0.0
H6381 H 0.67994 0.64488 0.6929 0.0
H6382 H 0.66889 0.68841 0.67927 0.0
H6383 H 0.64822 0.69766 0.67656 0.0
C6384 C 0.53259 0.57536 0.62466 0.0
C6385 C 0.54225 0.56291 0.61462 0.0
C6386 C 0.54105 0.58283 0.58945 0.0
C6387 C 0.53449 0.59683 0.60041 0.0
N6388 N 0.52412 0.60593 0.62897 0.0
N6389 N 0.55884 0.55661 0.58839 0.0
C6390 C 0.53029 0.59294 0.61821 0.0
C6391 C 0.54713 0.56704 0.59722 0.0
N6392 N 0.5255 0.57026 0.64033 0.0
N6393 N 0.54213 0.5844 0.57158 0.0
H6394 H 0.56415 0.54515 0.59367 0.0
H6395 H 0.56461 0.56021 0.57648 0.0
H6396 H 0.54034 0.59602 0.56468 0.0
H6397 H 0.54419 0.57363 0.56333 0.0
H6398 H 0.51712 0.5781 0.6478 0.0
H6399 H 0.52676 0.55742 0.64496 0.0
H6400 H 0.52273 0.60443 0.64251 0.0
H6401 H 0.52131 0.61858 0.62449 0.0
C6402 C 0.01809 0.41312 0.89319 0.0
C6403 C 0.02868 0.39761 0.89158 0.0
C6404 C 0.05306 0.41562 0.88387 0.0
C6405 C 0.0432 0.43154 0.88319 0.0
N6406 N 0.0141 0.44438 0.88679 0.0
N6407 N 0.05215 0.38592 0.87368 0.0
C6408 C 0.02492 0.43008 0.88766 0.0
C6409 C 0.04453 0.39948 0.88255 0.0
N6410 N 0.00134 0.41141 0.89913 0.0
N6411 N 0.07036 0.41545 0.88802 0.0
H6412 H 0.04544 0.37422 0.87113 0.0
H6413 H 0.06412 0.38752 0.86712 0.0
H6414 H 0.07671 0.42644 0.89287 0.0
H6415 H 0.07733 0.40375 0.8891 0.0
H6416 H 0.99345 0.42189 0.90307 0.0
H6417 H 0.99541 0.3991 0.89926 0.0
H6418 H 0.00048 0.44358 0.88791 0.0
H6419 H 0.01854 0.45712 0.88471 0.0
C6420 C 0.3207 0.79957 0.14851 0.0
C6421 C 0.31588 0.79063 0.13291 0.0
C6422 C 0.34605 0.77845 0.1308 0.0
C6423 C 0.35101 0.78823 0.14596 0.0
N6424 N 0.34182 0.80555 0.17103 0.0
N6425 N 0.32347 0.77163 0.10893 0.0
C6426 C 0.33793 0.79801 0.15525 0.0
C6427 C 0.32839 0.77982 0.12414 0.0
N6428 N 0.30907 0.81099 0.15612 0.0
N6429 N 0.35805 0.76743 0.12322 0.0
H6430 H 0.31049 0.77184 0.10447 0.0
H6431 H 0.33206 0.76503 0.10058 0.0
H6432 H 0.37104 0.76658 0.12758 0.0
H6433 H 0.35514 0.75867 0.11313 0.0
H6434 H 0.31256 0.82067 0.16514 0.0
H6435 H 0.29599 0.81169 0.15237 0.0
H6436 H 0.33251 0.81027 0.1799 0.0
H6437 H 0.35439 0.80582 0.17603 0.0
C6438 C 0.97049 0.07776 0.37378 0.0
C6439 C 0.9622 0.06414 0.38375 0.0
C6440 C 0.95189 0.08635 0.40442 0.0
C6441 C 0.9613 0.09975 0.39558 0.0
N6442 N 0.9831 0.10719 0.37385 0.0
N6443 N 0.95056 0.05546 0.41166 0.0
C6444 C 0.97188 0.09511 0.38095 0.0
C6445 C 0.95496 0.06849 0.40021 0.0
N6446 N 0.97603 0.07444 0.35706 0.0
N6447 N 0.9394 0.09065 0.41644 0.0
H6448 H 0.95387 0.04241 0.40905 0.0
H6449 H 0.94587 0.05794 0.42432 0.0
H6450 H 0.93675 0.10358 0.42001 0.0
H6451 H 0.9303 0.08145 0.42081 0.0
H6452 H 0.98055 0.08422 0.34858 0.0
H6453 H 0.97467 0.06213 0.35126 0.0
H6454 H 0.99239 0.10398 0.36429 0.0
H6455 H 0.9838 0.12012 0.37842 0.0
C6456 C 0.15728 0.22496 0.64018 0.0
C6457 C 0.14313 0.21266 0.64136 0.0
C6458 C 0.16388 0.18895 0.63795 0.0
C6459 C 0.17801 0.20051 0.63446 0.0
N6460 N 0.18831 0.23068 0.63405 0.0
N6461 N 0.13362 0.1843 0.63109 0.0
C6462 C 0.17484 0.21898 0.63608 0.0
C6463 C 0.14656 0.1951 0.63695 0.0
N6464 N 0.15358 0.24236 0.64241 0.0
N6465 N 0.16699 0.17219 0.64335 0.0
H6466 H 0.12117 0.18901 0.62788 0.0
H6467 H 0.13626 0.17138 0.62732 0.0
H6468 H 0.1568 0.16366 0.6469 0.0
H6469 H 0.17968 0.16797 0.64652 0.0
H6470 H 0.16296 0.25223 0.6437 0.0
H6471 H 0.14059 0.24679 0.64259 0.0
H6472 H 0.18669 0.24425 0.6337 0.0
H6473 H 0.20141 0.22697 0.63297 0.0
C6474 C 0.46812 0.42041 0.6246 0.0
C6475 C 0.46248 0.43575 0.6156 0.0
C6476 C 0.45948 0.41886 0.58848 0.0
C6477 C 0.46349 0.40307 0.59766 0.0
N6478 N 0.47405 0.38882 0.6239 0.0
N6479 N 0.46268 0.45058 0.5879 0.0
C6480 C 0.46872 0.40385 0.61559 0.0
C6481 C 0.46139 0.43531 0.59713 0.0
N6482 N 0.47364 0.42218 0.64156 0.0
N6483 N 0.45286 0.4181 0.5718 0.0
H6484 H 0.466 0.46229 0.5942 0.0
H6485 H 0.46299 0.45113 0.57422 0.0
H6486 H 0.44957 0.40624 0.56573 0.0
H6487 H 0.44912 0.42915 0.56464 0.0
H6488 H 0.47858 0.41203 0.64927 0.0
H6489 H 0.47396 0.43446 0.64767 0.0
H6490 H 0.47746 0.38807 0.63711 0.0
H6491 H 0.47495 0.37674 0.61746 0.0
C6492 C 0.33102 0.69168 0.35807 0.0
C6493 C 0.31802 0.70336 0.3646 0.0
C6494 C 0.34063 0.72664 0.36193 0.0
C6495 C 0.35376 0.71359 0.35852 0.0
N6496 N 0.36074 0.68336 0.36411 0.0
N6497 N 0.31181 0.7331 0.37444 0.0
C6498 C 0.34879 0.69598 0.36009 0.0
C6499 C 0.32312 0.72131 0.36704 0.0
N6500 N 0.32651 0.67645 0.34985 0.0
N6501 N 0.34496 0.74397 0.36051 0.0
H6502 H 0.29886 0.73009 0.37765 0.0
H6503 H 0.31562 0.74574 0.37812 0.0
H6504 H 0.35795 0.74802 0.35857 0.0
H6505 H 0.33569 0.75406 0.36078 0.0
H6506 H 0.33603 0.66799 0.34471 0.0
H6507 H 0.31346 0.6736 0.34658 0.0
H6508 H 0.35719 0.67021 0.36543 0.0
H6509 H 0.37335 0.68652 0.36845 0.0
C6510 C 0.66404 0.80909 0.86028 0.0
C6511 C 0.67788 0.7978 0.86539 0.0
C6512 C 0.65703 0.77327 0.86096 0.0
C6513 C 0.64323 0.78562 0.85781 0.0
N6514 N 0.63366 0.81431 0.86657 0.0
N6515 N 0.68661 0.76791 0.87223 0.0
C6516 C 0.64665 0.80324 0.86139 0.0
C6517 C 0.6742 0.77939 0.86624 0.0
N6518 N 0.66741 0.82525 0.85361 0.0
N6519 N 0.65346 0.7558 0.85929 0.0
H6520 H 0.69938 0.77167 0.87534 0.0
H6521 H 0.68405 0.75469 0.87471 0.0
H6522 H 0.64056 0.75135 0.85772 0.0
H6523 H 0.66306 0.74603 0.8593 0.0
H6524 H 0.65716 0.83322 0.84926 0.0
H6525 H 0.68023 0.82946 0.85098 0.0
H6526 H 0.63618 0.82746 0.86958 0.0
H6527 H 0.62117 0.80961 0.86983 0.0
C6528 C 0.62711 0.54711 0.58728 0.0
C6529 C 0.62371 0.54152 0.56961 0.0
C6530 C 0.60314 0.51983 0.58243 0.0
C6531 C 0.60746 0.52578 0.59983 0.0
N6532 N 0.63222 0.53658 0.6166 0.0
N6533 N 0.61392 0.51629 0.55258 0.0
C6534 C 0.62276 0.53607 0.60139 0.0
C6535 C 0.61334 0.52595 0.56771 0.0
N6536 N 0.63135 0.56396 0.59118 0.0
N6537 N 0.58989 0.50812 0.5797 0.0
H6538 H 0.62294 0.51864 0.54255 0.0
H6539 H 0.6074 0.50431 0.55116 0.0
H6540 H 0.58438 0.50072 0.58971 0.0
H6541 H 0.58465 0.50564 0.56727 0.0
H6542 H 0.63394 0.5682 0.60399 0.0
H6543 H 0.62716 0.57379 0.58285 0.0
H6544 H 0.64358 0.54422 0.61778 0.0
H6545 H 0.62985 0.52778 0.62688 0.0
C6546 C 0.21961 0.37314 0.8227 0.0
C6547 C 0.20743 0.36494 0.8111 0.0
C6548 C 0.20675 0.33911 0.83043 0.0
C6549 C 0.21708 0.34808 0.84333 0.0
N6550 N 0.23305 0.37409 0.85181 0.0
N6551 N 0.18677 0.34147 0.80588 0.0
C6552 C 0.22345 0.36526 0.83945 0.0
C6553 C 0.20046 0.34823 0.81541 0.0
N6554 N 0.2275 0.38845 0.8176 0.0
N6555 N 0.2026 0.3218 0.83244 0.0
H6556 H 0.18168 0.34756 0.79474 0.0
H6557 H 0.17939 0.33063 0.8099 0.0
H6558 H 0.20492 0.3149 0.84389 0.0
H6559 H 0.19755 0.31404 0.82232 0.0
H6560 H 0.23753 0.39459 0.8246 0.0
H6561 H 0.22491 0.39431 0.80547 0.0
H6562 H 0.23644 0.38731 0.85077 0.0
H6563 H 0.23696 0.36835 0.86364 0.0
C6564 C 0.38705 0.97275 0.07071 0.0
C6565 C 0.37591 0.95766 0.07282 0.0
C6566 C 0.37667 0.96371 0.10457 0.0
C6567 C 0.39232 0.97338 0.10295 0.0
N6568 N 0.41007 0.99093 0.08324 0.0
N6569 N 0.36683 0.9361 0.09475 0.0
C6570 C 0.39694 0.97902 0.08559 0.0
C6571 C 0.37198 0.95263 0.09058 0.0
N6572 N 0.3876 0.9818 0.05519 0.0
N6573 N 0.36715 0.9638 0.11975 0.0
H6574 H 0.37129 0.92584 0.08704 0.0
H6575 H 0.36344 0.93234 0.10751 0.0
H6576 H 0.3699 0.9726 0.12993 0.0
H6577 H 0.35541 0.95676 0.12098 0.0
H6578 H 0.39493 0.99323 0.05342 0.0
H6579 H 0.37884 0.97977 0.04492 0.0
H6580 H 0.41598 0.99336 0.07111 0.0
H6581 H 0.4147 0.99859 0.0935 0.0
C6582 C 0.78818 0.12921 0.34619 0.0
C6583 C 0.77857 0.14502 0.34571 0.0
C6584 C 0.77859 0.14137 0.31304 0.0
C6585 C 0.79283 0.12914 0.31423 0.0
N6586 N 0.8154 0.1198 0.33476 0.0
N6587 N 0.76276 0.16539 0.32662 0.0
C6588 C 0.79865 0.12494 0.33158 0.0
C6589 C 0.77323 0.15099 0.32852 0.0
N6590 N 0.78835 0.11872 0.36072 0.0
N6591 N 0.76951 0.14336 0.29766 0.0
H6592 H 0.75523 0.17047 0.33674 0.0
H6593 H 0.76135 0.17199 0.31469 0.0
H6594 H 0.77142 0.13541 0.2867 0.0
H6595 H 0.75837 0.15127 0.29653 0.0
H6596 H 0.79555 0.10702 0.36106 0.0
H6597 H 0.77958 0.12058 0.37113 0.0
H6598 H 0.82515 0.12221 0.32554 0.0
H6599 H 0.81989 0.11742 0.34752 0.0
C6600 C 0.60788 0.46892 0.42926 0.0
C6601 C 0.61939 0.45392 0.42775 0.0
C6602 C 0.62087 0.45938 0.39595 0.0
C6603 C 0.60668 0.4711 0.39659 0.0
N6604 N 0.59285 0.49309 0.41439 0.0
N6605 N 0.62628 0.431 0.40678 0.0
C6606 C 0.60173 0.47756 0.41349 0.0
C6607 C 0.62352 0.44823 0.41033 0.0
N6608 N 0.60173 0.47433 0.44526 0.0
N6609 N 0.63116 0.45795 0.38136 0.0
H6610 H 0.62084 0.42163 0.41508 0.0
H6611 H 0.62942 0.42647 0.39423 0.0
H6612 H 0.63017 0.46681 0.3709 0.0
H6613 H 0.64197 0.44947 0.381 0.0
H6614 H 0.59124 0.48298 0.44682 0.0
H6615 H 0.60596 0.46968 0.4573 0.0
H6616 H 0.58973 0.49972 0.42594 0.0
H6617 H 0.59098 0.50067 0.40323 0.0
C6618 C 0.29783 0.36757 0.64606 0.0
C6619 C 0.28091 0.36115 0.64349 0.0
C6620 C 0.27583 0.36633 0.67544 0.0
C6621 C 0.29447 0.36804 0.67787 0.0
N6622 N 0.32204 0.36 0.66386 0.0
N6623 N 0.25197 0.35807 0.65546 0.0
C6624 C 0.30517 0.36569 0.66269 0.0
C6625 C 0.26929 0.36151 0.65823 0.0
N6626 N 0.30713 0.37518 0.63287 0.0
N6627 N 0.26442 0.36935 0.68897 0.0
H6628 H 0.24696 0.35803 0.6427 0.0
H6629 H 0.24288 0.35578 0.66544 0.0
H6630 H 0.26833 0.3716 0.70185 0.0
H6631 H 0.25085 0.37006 0.68736 0.0
H6632 H 0.31972 0.38025 0.63504 0.0
H6633 H 0.30137 0.37801 0.62076 0.0
H6634 H 0.32953 0.3573 0.65266 0.0
H6635 H 0.32718 0.3554 0.67563 0.0
C6636 C 0.38101 0.02901 0.90222 0.0
C6637 C 0.39682 0.03795 0.89765 0.0
C6638 C 0.39787 0.05137 0.92703 0.0
C6639 C 0.38221 0.04252 0.93175 0.0
N6640 N 0.35938 0.02185 0.92504 0.0
N6641 N 0.42243 0.05415 0.90766 0.0
C6642 C 0.37399 0.03087 0.91969 0.0
C6643 C 0.40583 0.04803 0.91065 0.0
N6644 N 0.37296 0.01864 0.88995 0.0
N6645 N 0.40467 0.06403 0.93782 0.0
H6646 H 0.42864 0.05308 0.89567 0.0
H6647 H 0.43064 0.05909 0.91747 0.0
H6648 H 0.40015 0.06604 0.95052 0.0
H6649 H 0.41392 0.0733 0.93377 0.0
H6650 H 0.36117 0.012 0.89193 0.0
H6651 H 0.378 0.01692 0.8773 0.0
H6652 H 0.35255 0.01283 0.91738 0.0
H6653 H 0.35448 0.02293 0.93783 0.0
C6654 C 0.71626 0.12842 0.15198 0.0
C6655 C 0.71893 0.14694 0.15152 0.0
C6656 C 0.70941 0.14871 0.18234 0.0
C6657 C 0.70637 0.13033 0.18291 0.0
N6658 N 0.71534 0.10259 0.1707 0.0
N6659 N 0.72903 0.17048 0.17061 0.0
C6660 C 0.71225 0.12009 0.16838 0.0
C6661 C 0.71892 0.15593 0.16799 0.0
N6662 N 0.71827 0.11858 0.13712 0.0
N6663 N 0.70275 0.15958 0.1949 0.0
H6664 H 0.73909 0.17388 0.16199 0.0
H6665 H 0.72973 0.17689 0.18273 0.0
H6666 H 0.6945 0.15504 0.20474 0.0
H6667 H 0.70385 0.17324 0.19416 0.0
H6668 H 0.71416 0.10552 0.1363 0.0
H6669 H 0.72399 0.12352 0.12568 0.0
H6670 H 0.72082 0.09456 0.16105 0.0
H6671 H 0.71455 0.09681 0.18312 0.0
C6672 C 0.57795 0.12233 0.02792 0.0
C6673 C 0.56473 0.1133 0.03747 0.0
C6674 C 0.58655 0.0913 0.04635 0.0
C6675 C 0.60029 0.10165 0.03889 0.0
N6676 N 0.60915 0.12678 0.02191 0.0
N6677 N 0.55513 0.08654 0.05045 0.0
C6678 C 0.59598 0.1171 0.02937 0.0
C6679 C 0.56869 0.09675 0.04476 0.0
N6680 N 0.57283 0.13535 0.01676 0.0
N6681 N 0.59074 0.076 0.05471 0.0
H6682 H 0.5423 0.0897 0.04695 0.0
H6683 H 0.55639 0.07483 0.05739 0.0
H6684 H 0.60356 0.07312 0.05859 0.0
H6685 H 0.5818 0.06598 0.05716 0.0
H6686 H 0.58122 0.14196 0.0082 0.0
H6687 H 0.55956 0.13851 0.01542 0.0
H6688 H 0.60719 0.13891 0.01588 0.0
H6689 H 0.62236 0.12314 0.02284 0.0
C6690 C 0.65476 0.3404 0.30347 0.0
C6691 C 0.64777 0.35172 0.29032 0.0
C6692 C 0.62575 0.32905 0.28283 0.0
C6693 C 0.63294 0.31774 0.29587 0.0
N6694 N 0.65533 0.31176 0.31741 0.0
N6695 N 0.62855 0.3559 0.26554 0.0
C6696 C 0.6478 0.32319 0.30575 0.0
C6697 C 0.63383 0.34574 0.27939 0.0
N6698 N 0.66791 0.34629 0.31418 0.0
N6699 N 0.61076 0.32408 0.27426 0.0
H6700 H 0.63369 0.36841 0.26318 0.0
H6701 H 0.61985 0.35163 0.25587 0.0
H6702 H 0.60513 0.31168 0.27595 0.0
H6703 H 0.60348 0.33239 0.26618 0.0
H6704 H 0.67154 0.34022 0.32588 0.0
H6705 H 0.67453 0.358 0.31197 0.0
H6706 H 0.66755 0.31367 0.32326 0.0
H6707 H 0.64981 0.29965 0.3205 0.0
C6708 C 0.41591 0.40718 0.5325 0.0
C6709 C 0.39923 0.39808 0.53246 0.0
C6710 C 0.41579 0.37021 0.53068 0.0
C6711 C 0.43174 0.37959 0.53312 0.0
N6712 N 0.44692 0.40585 0.52513 0.0
N6713 N 0.38382 0.37061 0.52804 0.0
C6714 C 0.43179 0.39771 0.53033 0.0
C6715 C 0.39931 0.37942 0.53039 0.0
N6716 N 0.417 0.42473 0.53591 0.0
N6717 N 0.4169 0.3526 0.52752 0.0
H6718 H 0.37187 0.37694 0.52588 0.0
H6719 H 0.38265 0.35699 0.52806 0.0
H6720 H 0.42911 0.34638 0.52647 0.0
H6721 H 0.40625 0.34442 0.52492 0.0
H6722 H 0.42886 0.43132 0.53789 0.0
H6723 H 0.40626 0.43237 0.53897 0.0
H6724 H 0.44748 0.41906 0.52153 0.0
H6725 H 0.45815 0.3987 0.52184 0.0
C6726 C 0.36325 0.17412 0.7773 0.0
C6727 C 0.37215 0.17338 0.79406 0.0
C6728 C 0.37333 0.14134 0.79082 0.0
C6729 C 0.36068 0.14166 0.77774 0.0
N6730 N 0.35232 0.15747 0.75202 0.0
N6731 N 0.37557 0.1534 0.81888 0.0
C6732 C 0.35798 0.15792 0.769 0.0
C6733 C 0.37508 0.15623 0.80131 0.0
N6734 N 0.35858 0.18977 0.76978 0.0
N6735 N 0.38283 0.12662 0.79415 0.0
H6736 H 0.3697 0.16223 0.82732 0.0
H6737 H 0.37688 0.14085 0.82423 0.0
H6738 H 0.38189 0.11549 0.78614 0.0
H6739 H 0.39306 0.12691 0.8033 0.0
H6740 H 0.35009 0.19073 0.7591 0.0
H6741 H 0.3618 0.20208 0.77455 0.0
H6742 H 0.35113 0.16841 0.7439 0.0
H6743 H 0.35148 0.1455 0.74543 0.0
C6744 C 0.60111 0.88469 0.95148 0.0
C6745 C 0.60348 0.89307 0.96762 0.0
C6746 C 0.57164 0.88794 0.97377 0.0
C6747 C 0.56921 0.88284 0.95581 0.0
N6748 N 0.58259 0.88525 0.9266 0.0
N6749 N 0.59242 0.89677 0.99683 0.0
C6750 C 0.5842 0.88389 0.94439 0.0
C6751 C 0.58899 0.89325 0.97959 0.0
N6752 N 0.61478 0.87684 0.94298 0.0
N6753 N 0.55768 0.88801 0.98509 0.0
H6754 H 0.60535 0.89727 0.00136 0.0
H6755 H 0.58306 0.89747 0.00676 0.0
H6756 H 0.54507 0.88415 0.98158 0.0
H6757 H 0.55823 0.89252 0.99797 0.0
H6758 H 0.61297 0.86982 0.93132 0.0
H6759 H 0.62689 0.87496 0.94912 0.0
H6760 H 0.59346 0.88734 0.91844 0.0
H6761 H 0.57058 0.88648 0.92027 0.0
C6762 C 0.85317 0.324 0.19747 0.0
C6763 C 0.86947 0.32012 0.20557 0.0
C6764 C 0.87001 0.35007 0.21811 0.0
C6765 C 0.85458 0.35428 0.20848 0.0
N6766 N 0.83301 0.34594 0.18684 0.0
N6767 N 0.89462 0.32999 0.22203 0.0
C6768 C 0.84659 0.34137 0.19765 0.0
C6769 C 0.87821 0.3333 0.21557 0.0
N6770 N 0.84399 0.31101 0.18921 0.0
N6771 N 0.87657 0.36193 0.22989 0.0
H6772 H 0.90054 0.31768 0.22085 0.0
H6773 H 0.90264 0.33958 0.22763 0.0
H6774 H 0.87114 0.37443 0.23154 0.0
H6775 H 0.88668 0.35903 0.23866 0.0
H6776 H 0.83093 0.31229 0.18533 0.0
H6777 H 0.84905 0.2985 0.18744 0.0
H6778 H 0.82799 0.33794 0.17692 0.0
H6779 H 0.82786 0.35853 0.18667 0.0
C6780 C 0.41424 0.63211 0.46359 0.0
C6781 C 0.42991 0.62234 0.46048 0.0
C6782 C 0.41284 0.59556 0.45837 0.0
C6783 C 0.39685 0.60488 0.46107 0.0
N6784 N 0.38285 0.63173 0.47051 0.0
N6785 N 0.44369 0.59453 0.46601 0.0
C6786 C 0.39763 0.62317 0.46496 0.0
C6787 C 0.42911 0.60394 0.46165 0.0
N6788 N 0.41555 0.64985 0.4657 0.0
N6789 N 0.41247 0.57884 0.45193 0.0
H6790 H 0.45517 0.60074 0.47022 0.0
H6791 H 0.44348 0.58094 0.46788 0.0
H6792 H 0.40111 0.57346 0.44645 0.0
H6793 H 0.4235 0.57081 0.45096 0.0
H6794 H 0.40481 0.65831 0.46635 0.0
H6795 H 0.42782 0.65597 0.46672 0.0
H6796 H 0.38276 0.6447 0.47487 0.0
H6797 H 0.37071 0.62546 0.47177 0.0
C6798 C 0.13095 0.15393 0.72193 0.0
C6799 C 0.14662 0.14858 0.71324 0.0
C6800 C 0.14688 0.17623 0.69638 0.0
C6801 C 0.13117 0.18159 0.70487 0.0
N6802 N 0.10942 0.17722 0.72733 0.0
N6803 N 0.17131 0.15604 0.69474 0.0
C6804 C 0.12361 0.17094 0.71824 0.0
C6805 C 0.15518 0.16028 0.70139 0.0
N6806 N 0.12307 0.14264 0.73348 0.0
N6807 N 0.15337 0.18595 0.68272 0.0
H6808 H 0.17704 0.14388 0.69671 0.0
H6809 H 0.17958 0.1648 0.68825 0.0
H6810 H 0.14713 0.19706 0.67787 0.0
H6811 H 0.16443 0.1827 0.67545 0.0
H6812 H 0.11098 0.14494 0.73946 0.0
H6813 H 0.12839 0.13037 0.73656 0.0
H6814 H 0.10363 0.17086 0.73796 0.0
H6815 H 0.10405 0.18962 0.72485 0.0
C6816 C 0.02936 0.09606 0.62069 0.0
C6817 C 0.029 0.09628 0.60195 0.0
C6818 C 0.0316 0.06369 0.60218 0.0
C6819 C 0.03476 0.06415 0.62032 0.0
N6820 N 0.02568 0.07799 0.64686 0.0
N6821 N 0.0185 0.07804 0.57751 0.0
C6822 C 0.03036 0.07957 0.62966 0.0
C6823 C 0.0269 0.07945 0.59327 0.0
N6824 N 0.02816 0.11131 0.63005 0.0
N6825 N 0.03211 0.04797 0.59362 0.0
H6826 H 0.00997 0.08754 0.57302 0.0
H6827 H 0.01661 0.06627 0.57079 0.0
H6828 H 0.03123 0.03619 0.60051 0.0
H6829 H 0.03313 0.04672 0.58002 0.0
H6830 H 0.03071 0.11193 0.64351 0.0
H6831 H 0.02451 0.12325 0.62443 0.0
H6832 H 0.02037 0.0883 0.65418 0.0
H6833 H 0.0256 0.06573 0.65308 0.0
C6834 C 0.53194 0.92107 0.87231 0.0
C6835 C 0.54453 0.93274 0.87996 0.0
C6836 C 0.54668 0.91347 0.90541 0.0
C6837 C 0.53587 0.90066 0.89736 0.0
N6838 N 0.51757 0.89219 0.87301 0.0
N6839 N 0.56967 0.93339 0.8993 0.0
C6840 C 0.52825 0.90443 0.88068 0.0
C6841 C 0.55338 0.92723 0.89532 0.0
N6842 N 0.52411 0.92563 0.85682 0.0
N6843 N 0.55112 0.91267 0.92274 0.0
H6844 H 0.57615 0.94233 0.89139 0.0
H6845 H 0.57753 0.92779 0.90908 0.0
H6846 H 0.54788 0.90228 0.93084 0.0
H6847 H 0.55744 0.92301 0.92916 0.0
H6848 H 0.51391 0.91864 0.85099 0.0
H6849 H 0.52763 0.93693 0.84993 0.0
H6850 H 0.51228 0.89338 0.86046 0.0
H6851 H 0.51442 0.88034 0.87918 0.0
C6852 C 0.84552 0.27912 0.13219 0.0
C6853 C 0.84743 0.279 0.15078 0.0
C6854 C 0.81658 0.28825 0.1537 0.0
C6855 C 0.81476 0.28895 0.1353 0.0
N6856 N 0.82466 0.27639 0.10816 0.0
N6857 N 0.82981 0.27109 0.17644 0.0
C6858 C 0.82842 0.2818 0.12478 0.0
C6859 C 0.83152 0.2798 0.1609 0.0
N6860 N 0.85965 0.27608 0.12157 0.0
N6861 N 0.80421 0.29552 0.16441 0.0
H6862 H 0.83846 0.26121 0.18013 0.0
H6863 H 0.81815 0.27108 0.18368 0.0
H6864 H 0.79349 0.30237 0.15946 0.0
H6865 H 0.80551 0.29589 0.17806 0.0
H6866 H 0.85918 0.27792 0.10799 0.0
H6867 H 0.87179 0.27192 0.12641 0.0
H6868 H 0.83348 0.2692 0.10051 0.0
H6869 H 0.812 0.2775 0.10299 0.0
C6870 C 0.469 0.59454 0.38213 0.0
C6871 C 0.46073 0.59945 0.39812 0.0
C6872 C 0.44784 0.56984 0.4006 0.0
C6873 C 0.4561 0.56476 0.38473 0.0
N6874 N 0.47688 0.57093 0.3618 0.0
N6875 N 0.44513 0.59056 0.42407 0.0
C6876 C 0.46755 0.57672 0.376 0.0
C6877 C 0.4511 0.5867 0.40772 0.0
N6878 N 0.47792 0.60698 0.37272 0.0
N6879 N 0.43567 0.55903 0.40832 0.0
H6880 H 0.44431 0.60331 0.42884 0.0
H6881 H 0.44295 0.58067 0.4332 0.0
H6882 H 0.43307 0.54635 0.40389 0.0
H6883 H 0.42732 0.56306 0.41842 0.0
H6884 H 0.48308 0.60487 0.36023 0.0
H6885 H 0.47918 0.61994 0.37709 0.0
H6886 H 0.48632 0.57836 0.35525 0.0
H6887 H 0.47591 0.55799 0.35735 0.0
C6888 C 0.67105 0.71991 0.62738 0.0
C6889 C 0.67743 0.70255 0.63026 0.0
C6890 C 0.64762 0.69317 0.63772 0.0
C6891 C 0.64158 0.71056 0.63787 0.0
N6892 N 0.64743 0.74109 0.63219 0.0
N6893 N 0.67178 0.67428 0.644 0.0
C6894 C 0.65336 0.72419 0.6326 0.0
C6895 C 0.66575 0.68989 0.63763 0.0
N6896 N 0.68145 0.73201 0.61916 0.0
N6897 N 0.63605 0.67958 0.63683 0.0
H6898 H 0.68468 0.67021 0.64259 0.0
H6899 H 0.6639 0.66566 0.65122 0.0
H6900 H 0.62307 0.68156 0.63306 0.0
H6901 H 0.63986 0.66645 0.63713 0.0
H6902 H 0.67695 0.74426 0.61503 0.0
H6903 H 0.69449 0.7295 0.61581 0.0
H6904 H 0.65561 0.75197 0.63057 0.0
H6905 H 0.63411 0.74403 0.63381 0.0
C6906 C 0.97004 0.92434 0.61977 0.0
C6907 C 0.95754 0.9364 0.61274 0.0
C6908 C 0.95108 0.9155 0.58903 0.0
C6909 C 0.96418 0.9039 0.59541 0.0
N6910 N 0.98829 0.89844 0.61515 0.0
N6911 N 0.93707 0.94401 0.58976 0.0
C6912 C 0.97447 0.90878 0.61017 0.0
C6913 C 0.94847 0.93215 0.59702 0.0
N6914 N 0.97662 0.92702 0.63624 0.0
N6915 N 0.94037 0.91024 0.57572 0.0
H6916 H 0.9339 0.9559 0.59575 0.0
H6917 H 0.93149 0.94252 0.57733 0.0
H6918 H 0.94335 0.89966 0.56756 0.0
H6919 H 0.92776 0.91535 0.57424 0.0
H6920 H 0.98423 0.91784 0.64297 0.0
H6921 H 0.97307 0.93783 0.64384 0.0
H6922 H 0.99741 0.90217 0.62467 0.0
H6923 H 0.99135 0.88666 0.60881 0.0
C6924 C 0.83546 0.20906 0.33845 0.0
C6925 C 0.85048 0.21407 0.34882 0.0
C6926 C 0.83066 0.21484 0.37463 0.0
C6927 C 0.8171 0.2067 0.36465 0.0
N6928 N 0.8085 0.1925 0.3377 0.0
N6929 N 0.86166 0.22248 0.37732 0.0
C6930 C 0.81989 0.20315 0.34671 0.0
C6931 C 0.84786 0.21717 0.36712 0.0
N6932 N 0.83592 0.20901 0.32056 0.0
N6933 N 0.82692 0.22053 0.39124 0.0
H6934 H 0.87388 0.22591 0.37213 0.0
H6935 H 0.86121 0.22286 0.391 0.0
H6936 H 0.81444 0.21907 0.39676 0.0
H6937 H 0.83555 0.22789 0.3989 0.0
H6938 H 0.82456 0.20902 0.31285 0.0
H6939 H 0.84741 0.2082 0.31344 0.0
H6940 H 0.81079 0.18809 0.32494 0.0
H6941 H 0.79768 0.18646 0.34349 0.0
C6942 C 0.14957 0.29677 0.86661 0.0
C6943 C 0.14662 0.28022 0.85954 0.0
C6944 C 0.17862 0.27435 0.8633 0.0
C6945 C 0.18143 0.29278 0.86597 0.0
N6946 N 0.16762 0.3215 0.86082 0.0
N6947 N 0.15791 0.25123 0.85472 0.0
C6948 C 0.16632 0.30404 0.86473 0.0
C6949 C 0.16113 0.26832 0.85894 0.0
N6950 N 0.13651 0.30569 0.87494 0.0
N6951 N 0.19219 0.2627 0.86479 0.0
H6952 H 0.14505 0.24644 0.85441 0.0
H6953 H 0.16765 0.24205 0.85181 0.0
H6954 H 0.20526 0.26643 0.86604 0.0
H6955 H 0.19048 0.24912 0.86497 0.0
H6956 H 0.1386 0.31805 0.88041 0.0
H6957 H 0.12444 0.29982 0.8779 0.0
H6958 H 0.15645 0.32934 0.85915 0.0
H6959 H 0.17937 0.32751 0.85716 0.0
C6960 C 0.60442 0.03167 0.06824 0.0
C6961 C 0.62195 0.03802 0.0689 0.0
C6962 C 0.62267 0.03182 0.10078 0.0
C6963 C 0.60437 0.02768 0.10058 0.0
N6964 N 0.58283 0.01316 0.08192 0.0
N6965 N 0.64935 0.03293 0.08333 0.0
C6966 C 0.59654 0.02459 0.0837 0.0
C6967 C 0.6316 0.03496 0.08454 0.0
N6968 N 0.59535 0.03144 0.05282 0.0
N6969 N 0.63184 0.03188 0.11619 0.0
H6970 H 0.65548 0.03243 0.07105 0.0
H6971 H 0.65731 0.02928 0.09387 0.0
H6972 H 0.62703 0.0263 0.12775 0.0
H6973 H 0.64442 0.03727 0.11727 0.0
H6974 H 0.58166 0.03059 0.05226 0.0
H6975 H 0.60161 0.03091 0.04073 0.0
H6976 H 0.57726 0.00975 0.06987 0.0
H6977 H 0.57926 0.0045 0.09176 0.0
C6978 C 0.2152 0.84909 0.31343 0.0
C6979 C 0.21622 0.86727 0.31151 0.0
C6980 C 0.22111 0.87021 0.34352 0.0
C6981 C 0.21573 0.8524 0.34583 0.0
N6982 N 0.20615 0.82524 0.33179 0.0
N6983 N 0.22824 0.89382 0.32273 0.0
C6984 C 0.21264 0.84188 0.33041 0.0
C6985 C 0.22163 0.87749 0.32607 0.0
N6986 N 0.21693 0.83876 0.2989 0.0
N6987 N 0.22551 0.88011 0.35783 0.0
H6988 H 0.22898 0.89862 0.30986 0.0
H6989 H 0.23391 0.90194 0.33215 0.0
H6990 H 0.2261 0.87494 0.37051 0.0
H6991 H 0.22815 0.89353 0.35731 0.0
H6992 H 0.21761 0.82508 0.29934 0.0
H6993 H 0.22027 0.84428 0.2868 0.0
H6994 H 0.20245 0.8176 0.32104 0.0
H6995 H 0.20295 0.81947 0.34369 0.0
C6996 C 0.37443 0.47223 0.57884 0.0
C6997 C 0.37974 0.45689 0.56948 0.0
C6998 C 0.40401 0.45306 0.59008 0.0
C6999 C 0.39728 0.46621 0.60121 0.0
N7000 N 0.37623 0.48925 0.60617 0.0
N7001 N 0.39698 0.42998 0.57043 0.0
C7002 C 0.38251 0.47621 0.59555 0.0
C7003 C 0.39375 0.44658 0.5763 0.0
N7004 N 0.36159 0.48269 0.5719 0.0
N7005 N 0.42066 0.44692 0.59215 0.0
H7006 H 0.38986 0.42416 0.56049 0.0
H7007 H 0.40554 0.4213 0.57675 0.0
H7008 H 0.42916 0.45203 0.60142 0.0
H7009 H 0.42655 0.43851 0.58313 0.0
H7010 H 0.3578 0.49468 0.5773 0.0
H7011 H 0.35547 0.47977 0.55996 0.0
H7012 H 0.36477 0.49628 0.60363 0.0
H7013 H 0.38226 0.49246 0.61808 0.0
C7014 C 0.79517 0.66006 0.83284 0.0
C7015 C 0.78596 0.65081 0.8464 0.0
C7016 C 0.78245 0.62591 0.826 0.0
C7017 C 0.79384 0.63429 0.81376 0.0
N7018 N 0.81437 0.65773 0.8078 0.0
N7019 N 0.7714 0.62438 0.85604 0.0
C7020 C 0.80093 0.65099 0.8177 0.0
C7021 C 0.77975 0.63353 0.84302 0.0
N7022 N 0.79879 0.67755 0.83431 0.0
N7023 N 0.77422 0.61068 0.82122 0.0
H7024 H 0.76866 0.62982 0.86833 0.0
H7025 H 0.76817 0.61111 0.85508 0.0
H7026 H 0.7759 0.6051 0.8088 0.0
H7027 H 0.7647 0.60444 0.82884 0.0
H7028 H 0.80301 0.68524 0.82376 0.0
H7029 H 0.79681 0.68464 0.84574 0.0
H7030 H 0.8215 0.66887 0.81138 0.0
H7031 H 0.81964 0.65128 0.79696 0.0
C7032 C 0.5924 0.96339 0.91506 0.0
C7033 C 0.60254 0.9671 0.89952 0.0
C7034 C 0.62909 0.9654 0.91813 0.0
C7035 C 0.61917 0.95755 0.93191 0.0
N7036 N 0.59146 0.94536 0.94108 0.0
N7037 N 0.6312 0.97248 0.887 0.0
C7038 C 0.60082 0.95584 0.92989 0.0
C7039 C 0.62114 0.96831 0.90127 0.0
N7040 N 0.57464 0.96604 0.91578 0.0
N7041 N 0.64591 0.97071 0.92146 0.0
H7042 H 0.62579 0.97595 0.87488 0.0
H7043 H 0.64489 0.97171 0.88702 0.0
H7044 H 0.65148 0.96959 0.93396 0.0
H7045 H 0.65352 0.97779 0.91253 0.0
H7046 H 0.56772 0.9659 0.92764 0.0
H7047 H 0.56667 0.96846 0.90499 0.0
H7048 H 0.57808 0.94285 0.9396 0.0
H7049 H 0.59749 0.93732 0.95034 0.0
C7050 C 0.28855 0.84989 0.18152 0.0
C7051 C 0.29219 0.86819 0.18162 0.0
C7052 C 0.28242 0.86964 0.15062 0.0
C7053 C 0.27942 0.85117 0.1505 0.0
N7054 N 0.26866 0.82821 0.17 0.0
N7055 N 0.28352 0.89577 0.16883 0.0
C7056 C 0.27902 0.84256 0.1672 0.0
C7057 C 0.2865 0.87822 0.16686 0.0
N7058 N 0.29462 0.83917 0.19452 0.0
N7059 N 0.28062 0.87925 0.13558 0.0
H7060 H 0.28448 0.90187 0.18107 0.0
H7061 H 0.27803 0.90363 0.15902 0.0
H7062 H 0.27472 0.87426 0.12425 0.0
H7063 H 0.28502 0.8922 0.13453 0.0
H7064 H 0.29312 0.82553 0.19411 0.0
H7065 H 0.3028 0.84363 0.20446 0.0
H7066 H 0.26754 0.8222 0.18229 0.0
H7067 H 0.2589 0.82447 0.1612 0.0
C7068 C 0.37791 0.54964 0.41058 0.0
C7069 C 0.37968 0.54196 0.42749 0.0
C7070 C 0.39668 0.51853 0.41237 0.0
C7071 C 0.39306 0.5265 0.39566 0.0
N7072 N 0.37006 0.54269 0.38095 0.0
N7073 N 0.38877 0.51559 0.44332 0.0
C7074 C 0.37992 0.53939 0.39548 0.0
C7075 C 0.38849 0.52528 0.4282 0.0
N7076 N 0.37775 0.56729 0.40862 0.0
N7077 N 0.40713 0.50406 0.41302 0.0
H7078 H 0.38263 0.51928 0.45492 0.0
H7079 H 0.39384 0.50289 0.44401 0.0
H7080 H 0.40965 0.49684 0.40175 0.0
H7081 H 0.4127 0.49915 0.42454 0.0
H7082 H 0.37576 0.57313 0.39641 0.0
H7083 H 0.3831 0.5752 0.41846 0.0
H7084 H 0.35999 0.55201 0.38125 0.0
H7085 H 0.3703 0.53442 0.36999 0.0
C7086 C 0.71656 0.64524 0.68103 0.0
C7087 C 0.71429 0.62704 0.68103 0.0
C7088 C 0.71831 0.62665 0.64884 0.0
C7089 C 0.71571 0.64524 0.64846 0.0
N7090 N 0.71072 0.67197 0.66578 0.0
N7091 N 0.7223 0.60037 0.66693 0.0
C7092 C 0.71475 0.65451 0.66501 0.0
C7093 C 0.7178 0.61764 0.66539 0.0
N7094 N 0.72094 0.65361 0.69626 0.0
N7095 N 0.72126 0.61766 0.63357 0.0
H7096 H 0.72306 0.59436 0.67926 0.0
H7097 H 0.72665 0.59255 0.65658 0.0
H7098 H 0.72375 0.62385 0.62161 0.0
H7099 H 0.72111 0.60401 0.63265 0.0
H7100 H 0.72417 0.66692 0.69687 0.0
H7101 H 0.724 0.64659 0.70763 0.0
H7102 H 0.70835 0.67865 0.67752 0.0
H7103 H 0.70735 0.67936 0.65492 0.0
C7104 C 0.59494 0.61659 0.52606 0.0
C7105 C 0.60335 0.60444 0.53759 0.0
C7106 C 0.57894 0.60709 0.55816 0.0
C7107 C 0.56966 0.61856 0.54657 0.0
N7108 N 0.56817 0.63272 0.51833 0.0
N7109 N 0.59954 0.58369 0.56126 0.0
C7110 C 0.57744 0.62279 0.53006 0.0
C7111 C 0.59422 0.59845 0.55258 0.0
N7112 N 0.60376 0.6222 0.51146 0.0
N7113 N 0.57359 0.60458 0.57503 0.0
H7114 H 0.61066 0.57685 0.55774 0.0
H7115 H 0.59198 0.57727 0.57073 0.0
H7116 H 0.56193 0.60948 0.57981 0.0
H7117 H 0.58135 0.5986 0.58464 0.0
H7118 H 0.59918 0.63196 0.50304 0.0
H7119 H 0.61637 0.61771 0.50836 0.0
H7120 H 0.57235 0.6354 0.50558 0.0
H7121 H 0.55552 0.63728 0.52102 0.0
C7122 C 0.63031 0.83523 0.80369 0.0
C7123 C 0.62966 0.82005 0.79295 0.0
C7124 C 0.63877 0.8392 0.76833 0.0
C7125 C 0.6379 0.85419 0.77965 0.0
N7126 N 0.62027 0.86504 0.80355 0.0
N7127 N 0.6303 0.80859 0.76326 0.0
C7128 C 0.6296 0.85187 0.7959 0.0
C7129 C 0.6331 0.8222 0.77462 0.0
N7130 N 0.63295 0.83391 0.82128 0.0
N7131 N 0.64398 0.84154 0.75139 0.0
H7132 H 0.62578 0.79632 0.76733 0.0
H7133 H 0.6313 0.8098 0.74966 0.0
H7134 H 0.64462 0.85415 0.74606 0.0
H7135 H 0.64709 0.83128 0.74287 0.0
H7136 H 0.63388 0.84503 0.82931 0.0
H7137 H 0.63628 0.8219 0.82706 0.0
H7138 H 0.6135 0.86309 0.81535 0.0
H7139 H 0.61806 0.87697 0.79713 0.0
C7140 C 0.41844 0.87301 0.03291 0.0
C7141 C 0.42864 0.8791 0.04745 0.0
C7142 C 0.40526 0.90039 0.05452 0.0
C7143 C 0.39489 0.8942 0.0404 0.0
N7144 N 0.39281 0.87702 0.01397 0.0
N7145 N 0.42779 0.89454 0.07524 0.0
C7146 C 0.40184 0.88116 0.02893 0.0
C7147 C 0.42102 0.89182 0.05893 0.0
N7148 N 0.42386 0.85847 0.02388 0.0
N7149 N 0.40035 0.91503 0.06367 0.0
H7150 H 0.43862 0.88779 0.07968 0.0
H7151 H 0.42141 0.9015 0.08519 0.0
H7152 H 0.38834 0.92108 0.06191 0.0
H7153 H 0.4087 0.92191 0.0721 0.0
H7154 H 0.41641 0.85223 0.01425 0.0
H7155 H 0.43526 0.85168 0.02714 0.0
H7156 H 0.39794 0.86931 0.00389 0.0
H7157 H 0.38044 0.88228 0.01115 0.0
C7158 C 0.34321 0.6582 0.30181 0.0
C7159 C 0.35286 0.64591 0.29155 0.0
C7160 C 0.37493 0.66862 0.28508 0.0
C7161 C 0.36539 0.68084 0.29555 0.0
N7162 N 0.33911 0.68835 0.31135 0.0
N7163 N 0.37577 0.6401 0.27054 0.0
C7164 C 0.34895 0.67597 0.30288 0.0
C7165 C 0.36812 0.65133 0.2823 0.0
N7166 N 0.32872 0.65259 0.31089 0.0
N7167 N 0.3908 0.67352 0.27821 0.0
H7168 H 0.37145 0.62718 0.26877 0.0
H7169 H 0.38572 0.64377 0.26187 0.0
H7170 H 0.39551 0.68636 0.2792 0.0
H7171 H 0.39952 0.66486 0.27218 0.0
H7172 H 0.32045 0.66059 0.31823 0.0
H7173 H 0.32534 0.63938 0.31185 0.0
H7174 H 0.32611 0.68664 0.31523 0.0
H7175 H 0.34369 0.70102 0.31338 0.0
C7176 C 0.57197 0.39525 0.4569 0.0
C7177 C 0.56912 0.37715 0.45879 0.0
C7178 C 0.60063 0.37388 0.46656 0.0
C7179 C 0.60378 0.39121 0.46034 0.0
N7180 N 0.59217 0.4166 0.44556 0.0
N7181 N 0.58014 0.34916 0.46818 0.0
C7182 C 0.58928 0.40131 0.45431 0.0
C7183 C 0.58337 0.36639 0.46449 0.0
N7184 N 0.55814 0.40658 0.45753 0.0
N7185 N 0.61383 0.3649 0.47475 0.0
H7186 H 0.56735 0.34413 0.46814 0.0
H7187 H 0.58995 0.34001 0.47094 0.0
H7188 H 0.62648 0.37009 0.47603 0.0
H7189 H 0.61203 0.35286 0.48101 0.0
H7190 H 0.55954 0.42021 0.45695 0.0
H7191 H 0.54579 0.40226 0.46155 0.0
H7192 H 0.58218 0.42506 0.44168 0.0
H7193 H 0.60461 0.41991 0.44103 0.0
C7194 C 0.86451 0.83063 0.69398 0.0
C7195 C 0.86679 0.8164 0.70576 0.0
C7196 C 0.858 0.83678 0.72954 0.0
C7197 C 0.8577 0.85103 0.71728 0.0
N7198 N 0.87192 0.86103 0.69085 0.0
N7199 N 0.86553 0.80612 0.73579 0.0
C7200 C 0.86448 0.8479 0.70044 0.0
C7201 C 0.8634 0.81944 0.72396 0.0
N7202 N 0.86119 0.8277 0.67666 0.0
N7203 N 0.8543 0.84028 0.74667 0.0
H7204 H 0.86873 0.79334 0.73208 0.0
H7205 H 0.86447 0.80766 0.74933 0.0
H7206 H 0.85444 0.85322 0.75115 0.0
H7207 H 0.85206 0.83077 0.75625 0.0
H7208 H 0.85802 0.83799 0.66815 0.0
H7209 H 0.8593 0.81504 0.67167 0.0
H7210 H 0.87718 0.85873 0.67843 0.0
H7211 H 0.87464 0.87338 0.69615 0.0
C7212 C 0.41739 0.09312 0.96948 0.0
C7213 C 0.4008 0.10193 0.96837 0.0
C7214 C 0.41774 0.12835 0.96068 0.0
C7215 C 0.43251 0.11786 0.95585 0.0
N7216 N 0.44464 0.08852 0.95413 0.0
N7217 N 0.38623 0.13002 0.96517 0.0
C7218 C 0.43191 0.09973 0.95985 0.0
C7219 C 0.40122 0.1202 0.96447 0.0
N7220 N 0.42 0.07946 0.98074 0.0
N7221 N 0.41992 0.14593 0.96319 0.0
H7222 H 0.3745 0.1253 0.9705 0.0
H7223 H 0.3856 0.14283 0.9603 0.0
H7224 H 0.43235 0.1517 0.96263 0.0
H7225 H 0.41005 0.15411 0.96804 0.0
H7226 H 0.4322 0.07333 0.98214 0.0
H7227 H 0.41127 0.0767 0.99086 0.0
H7228 H 0.4438 0.07494 0.95597 0.0
H7229 H 0.45473 0.09257 0.94589 0.0
C7230 C 0.15526 0.65623 0.20003 0.0
C7231 C 0.14936 0.6459 0.21422 0.0
C7232 C 0.12365 0.66543 0.21724 0.0
C7233 C 0.12941 0.67503 0.20217 0.0
N7234 N 0.14705 0.6739 0.17556 0.0
N7235 N 0.12869 0.6408 0.23749 0.0
C7236 C 0.14412 0.66882 0.19252 0.0
C7237 C 0.1337 0.65054 0.22325 0.0
N7238 N 0.17199 0.65453 0.19391 0.0
N7239 N 0.10794 0.66973 0.22479 0.0
H7240 H 0.13599 0.63003 0.24189 0.0
H7241 H 0.11775 0.64346 0.24526 0.0
H7242 H 0.09976 0.6793 0.21943 0.0
H7243 H 0.1025 0.66341 0.23562 0.0
H7244 H 0.17731 0.66312 0.18472 0.0
H7245 H 0.18099 0.64599 0.1995 0.0
H7246 H 0.15609 0.66764 0.16733 0.0
H7247 H 0.13963 0.68329 0.16912 0.0
C7248 C 0.05141 0.57223 0.1007 0.0
C7249 C 0.04114 0.56564 0.11469 0.0
C7250 C 0.02575 0.59425 0.11573 0.0
C7251 C 0.03827 0.60157 0.10376 0.0
N7252 N 0.06378 0.597 0.08549 0.0
N7253 N 0.01836 0.57034 0.13594 0.0
C7254 C 0.0514 0.59038 0.09659 0.0
C7255 C 0.02807 0.57661 0.12222 0.0
N7256 N 0.06151 0.56069 0.09149 0.0
N7257 N 0.01156 0.60407 0.1207 0.0
H7258 H 0.0194 0.55732 0.14014 0.0
H7259 H 0.00989 0.5781 0.14339 0.0
H7260 H 0.01 0.61716 0.11686 0.0
H7261 H 0.001 0.59898 0.12778 0.0
H7262 H 0.06982 0.56405 0.08125 0.0
H7263 H 0.06032 0.54728 0.09369 0.0
H7264 H 0.0755 0.59058 0.08249 0.0
H7265 H 0.06276 0.6094 0.08006 0.0
C7266 C 0.55397 0.42898 0.39796 0.0
C7267 C 0.54381 0.43533 0.38379 0.0
C7268 C 0.52704 0.40751 0.38374 0.0
C7269 C 0.53876 0.40049 0.39652 0.0
N7270 N 0.56446 0.4043 0.41456 0.0
N7271 N 0.52116 0.43063 0.3623 0.0
C7272 C 0.55243 0.41122 0.4033 0.0
C7273 C 0.53029 0.42466 0.37654 0.0
N7274 N 0.56532 0.44014 0.40632 0.0
N7275 N 0.5128 0.39785 0.3786 0.0
H7276 H 0.5227 0.4434 0.35753 0.0
H7277 H 0.51261 0.42287 0.35494 0.0
H7278 H 0.51065 0.38501 0.38298 0.0
H7279 H 0.50273 0.4028 0.37076 0.0
H7280 H 0.57228 0.43686 0.41757 0.0
H7281 H 0.56682 0.45326 0.40269 0.0
H7282 H 0.577 0.40962 0.41592 0.0
H7283 H 0.5625 0.39249 0.42109 0.0
C7284 C 0.84856 0.78092 0.62849 0.0
C7285 C 0.84735 0.77688 0.6467 0.0
C7286 C 0.8166 0.78599 0.64656 0.0
C7287 C 0.81739 0.7899 0.62837 0.0
N7288 N 0.83197 0.78244 0.60131 0.0
N7289 N 0.82614 0.76454 0.66734 0.0
C7290 C 0.83282 0.78485 0.61903 0.0
C7291 C 0.83017 0.77591 0.65412 0.0
N7292 N 0.86436 0.78025 0.62002 0.0
N7293 N 0.80368 0.79248 0.65707 0.0
H7294 H 0.83431 0.75412 0.67069 0.0
H7295 H 0.81342 0.76343 0.67242 0.0
H7296 H 0.79479 0.80172 0.65262 0.0
H7297 H 0.8036 0.79052 0.67067 0.0
H7298 H 0.86607 0.78502 0.60727 0.0
H7299 H 0.87569 0.77519 0.62585 0.0
H7300 H 0.84247 0.77769 0.59388 0.0
H7301 H 0.81996 0.78291 0.5947 0.0
C7302 C 0.4807 0.08669 0.89223 0.0
C7303 C 0.47129 0.10278 0.88964 0.0
C7304 C 0.44825 0.08715 0.87564 0.0
C7305 C 0.45678 0.07047 0.87687 0.0
N7306 N 0.48309 0.05503 0.88689 0.0
N7307 N 0.45324 0.11721 0.86813 0.0
C7308 C 0.47377 0.07032 0.88525 0.0
C7309 C 0.45794 0.10254 0.87718 0.0
N7310 N 0.49686 0.08749 0.89989 0.0
N7311 N 0.43059 0.08869 0.87732 0.0
H7312 H 0.46091 0.1286 0.86851 0.0
H7313 H 0.44313 0.11681 0.85883 0.0
H7314 H 0.42329 0.07837 0.88244 0.0
H7315 H 0.42437 0.10095 0.8776 0.0
H7316 H 0.50435 0.07674 0.90378 0.0
H7317 H 0.50332 0.0995 0.90094 0.0
H7318 H 0.49516 0.05399 0.89319 0.0
H7319 H 0.47914 0.043 0.88188 0.0
C7320 C 0.66901 0.21696 0.12189 0.0
C7321 C 0.68268 0.20911 0.13197 0.0
C7322 C 0.66716 0.21779 0.15826 0.0
C7323 C 0.65124 0.22039 0.14871 0.0
N7324 N 0.63798 0.22456 0.12015 0.0
N7325 N 0.69151 0.19798 0.16043 0.0
C7326 C 0.65239 0.22057 0.13004 0.0
C7327 C 0.68084 0.20826 0.15036 0.0
N7328 N 0.6721 0.2214 0.10481 0.0
N7329 N 0.67021 0.22575 0.17397 0.0
H7330 H 0.7006 0.18931 0.15497 0.0
H7331 H 0.68964 0.19669 0.17397 0.0
H7332 H 0.66293 0.23661 0.17791 0.0
H7333 H 0.68199 0.22407 0.18084 0.0
H7334 H 0.66318 0.22845 0.09716 0.0
H7335 H 0.68433 0.21935 0.09892 0.0
H7336 H 0.63761 0.22286 0.10655 0.0
H7337 H 0.62634 0.22931 0.12565 0.0
C7338 C 0.96364 0.41892 0.12657 0.0
C7339 C 0.95567 0.43215 0.11601 0.0
C7340 C 0.95914 0.41298 0.09045 0.0
C7341 C 0.96354 0.39821 0.10158 0.0
N7342 N 0.97044 0.38791 0.13073 0.0
N7343 N 0.94301 0.44024 0.08823 0.0
C7344 C 0.96596 0.40144 0.11981 0.0
C7345 C 0.95293 0.42886 0.09802 0.0
N7346 N 0.96926 0.42318 0.14305 0.0
N7347 N 0.95999 0.41202 0.07253 0.0
H7348 H 0.93736 0.45156 0.09342 0.0
H7349 H 0.93894 0.4376 0.07541 0.0
H7350 H 0.9612 0.40048 0.06542 0.0
H7351 H 0.95988 0.42317 0.06454 0.0
H7352 H 0.97698 0.41492 0.15078 0.0
H7353 H 0.96708 0.43557 0.14846 0.0
H7354 H 0.97042 0.38898 0.14439 0.0
H7355 H 0.97329 0.37531 0.12615 0.0
C7356 C 0.82551 0.72365 0.86865 0.0
C7357 C 0.82021 0.7057 0.86857 0.0
C7358 C 0.85112 0.69711 0.86534 0.0
C7359 C 0.85592 0.71426 0.86114 0.0
N7360 N 0.84898 0.74487 0.86294 0.0
N7361 N 0.82891 0.67556 0.86176 0.0
C7362 C 0.84336 0.72792 0.8639 0.0
C7363 C 0.83329 0.69259 0.86513 0.0
N7364 N 0.81393 0.73634 0.87388 0.0
N7365 N 0.86342 0.68519 0.87045 0.0
H7366 H 0.8161 0.67103 0.86166 0.0
H7367 H 0.83816 0.66615 0.85802 0.0
H7368 H 0.8764 0.68885 0.8727 0.0
H7369 H 0.86011 0.67261 0.8748 0.0
H7370 H 0.8173 0.7495 0.87554 0.0
H7371 H 0.80095 0.73356 0.87728 0.0
H7372 H 0.84068 0.75576 0.86302 0.0
H7373 H 0.8624 0.74773 0.86235 0.0
C7374 C 0.16314 0.8095 0.35932 0.0
C7375 C 0.17562 0.79732 0.36629 0.0
C7376 C 0.1536 0.77404 0.36083 0.0
C7377 C 0.14121 0.78691 0.3551 0.0
N7378 N 0.13256 0.81677 0.36104 0.0
N7379 N 0.17894 0.76869 0.37945 0.0
C7380 C 0.14537 0.80463 0.35802 0.0
C7381 C 0.16994 0.7796 0.36852 0.0
N7382 N 0.16791 0.82586 0.35394 0.0
N7383 N 0.14926 0.75668 0.36017 0.0
H7384 H 0.18907 0.7734 0.38729 0.0
H7385 H 0.17483 0.75599 0.38255 0.0
H7386 H 0.1364 0.75258 0.35771 0.0
H7387 H 0.15839 0.74663 0.36212 0.0
H7388 H 0.15915 0.8341 0.34732 0.0
H7389 H 0.1806 0.83069 0.35499 0.0
H7390 H 0.13543 0.82991 0.36374 0.0
H7391 H 0.11956 0.81316 0.36356 0.0
C7392 C 0.13955 0.5407 0.21042 0.0
C7393 C 0.13528 0.55683 0.21876 0.0
C7394 C 0.10514 0.55419 0.20857 0.0
C7395 C 0.1103 0.54063 0.19676 0.0
N7396 N 0.13149 0.51864 0.18854 0.0
N7397 N 0.11335 0.57728 0.2286 0.0
C7398 C 0.12721 0.53294 0.19853 0.0
C7399 C 0.11784 0.56291 0.21882 0.0
N7400 N 0.15542 0.53309 0.2139 0.0
N7401 N 0.08807 0.55886 0.21064 0.0
H7402 H 0.12235 0.58363 0.23681 0.0
H7403 H 0.10065 0.58253 0.22861 0.0
H7404 H 0.07774 0.55182 0.20509 0.0
H7405 H 0.07774 0.55182 0.20509 0.0
H7406 H 0.15954 0.5211 0.20876 0.0
H7407 H 0.16389 0.53827 0.22338 0.0
H7408 H 0.14394 0.513 0.18813 0.0
H7409 H 0.12238 0.51247 0.18032 0.0
C7410 C 0.71114 0.35547 0.46151 0.0
C7411 C 0.71974 0.3629 0.44671 0.0
C7412 C 0.71266 0.39194 0.45833 0.0
C7413 C 0.69945 0.38439 0.4691 0.0
N7414 N 0.68695 0.35848 0.48215 0.0
N7415 N 0.72967 0.38883 0.43154 0.0
C7416 C 0.6991 0.36595 0.47129 0.0
C7417 C 0.72103 0.38138 0.44539 0.0
N7418 N 0.71483 0.33864 0.46638 0.0
N7419 N 0.7174 0.409 0.46085 0.0
H7420 H 0.73647 0.38129 0.42228 0.0
H7421 H 0.72934 0.40229 0.42897 0.0
H7422 H 0.71277 0.41601 0.4717 0.0
H7423 H 0.72753 0.41508 0.45388 0.0
H7424 H 0.70955 0.33276 0.47758 0.0
H7425 H 0.72506 0.33166 0.46048 0.0
H7426 H 0.68489 0.34494 0.48281 0.0
H7427 H 0.6785 0.36605 0.4899 0.0
C7428 C 0.88806 0.95992 0.7086 0.0
C7429 C 0.88384 0.9677 0.69213 0.0
C7430 C 0.85345 0.95815 0.69534 0.0
C7431 C 0.85832 0.94723 0.70969 0.0
N7432 N 0.87919 0.93998 0.73223 0.0
N7433 N 0.86196 0.97655 0.67106 0.0
C7434 C 0.8753 0.94903 0.7172 0.0
C7435 C 0.86634 0.96764 0.68603 0.0
N7436 N 0.90433 0.96278 0.71565 0.0
N7437 N 0.83641 0.95995 0.69035 0.0
H7438 H 0.87102 0.98423 0.66414 0.0
H7439 H 0.84926 0.97637 0.66582 0.0
H7440 H 0.82597 0.9548 0.69755 0.0
H7441 H 0.82597 0.9548 0.69755 0.0
H7442 H 0.90861 0.9577 0.72759 0.0
H7443 H 0.91328 0.97143 0.70989 0.0
H7444 H 0.89149 0.93979 0.73819 0.0
H7445 H 0.86979 0.9325 0.73889 0.0
C7446 C 0.28376 0.12055 0.94709 0.0
C7447 C 0.28808 0.13855 0.94535 0.0
C7448 C 0.31122 0.13536 0.9675 0.0
C7449 C 0.30754 0.1172 0.96863 0.0
N7450 N 0.28555 0.09467 0.9657 0.0
N7451 N 0.29935 0.16397 0.96044 0.0
C7452 C 0.29217 0.11047 0.96046 0.0
C7453 C 0.29978 0.14631 0.95763 0.0
N7454 N 0.27201 0.11302 0.9358 0.0
N7455 N 0.32586 0.14207 0.97544 0.0
H7456 H 0.28919 0.17162 0.95536 0.0
H7457 H 0.30709 0.17027 0.96984 0.0
H7458 H 0.33398 0.13441 0.98345 0.0
H7459 H 0.33021 0.1549 0.97336 0.0
H7460 H 0.26975 0.09951 0.9353 0.0
H7461 H 0.26518 0.12034 0.9264 0.0
H7462 H 0.27382 0.08946 0.96089 0.0
H7463 H 0.29074 0.08799 0.9765 0.0
C7464 C 0.13881 0.46031 0.78687 0.0
C7465 C 0.1338 0.44434 0.7785 0.0
C7466 C 0.10353 0.44876 0.78814 0.0
C7467 C 0.10902 0.46267 0.79936 0.0
N7468 N 0.13083 0.48413 0.80701 0.0
N7469 N 0.11093 0.42461 0.76907 0.0
C7470 C 0.12637 0.46936 0.79781 0.0
C7471 C 0.11602 0.43911 0.77839 0.0
N7472 N 0.15555 0.46643 0.7846 0.0
N7473 N 0.0863 0.44449 0.78629 0.0
H7474 H 0.11966 0.41748 0.76121 0.0
H7475 H 0.09799 0.42 0.76908 0.0
H7476 H 0.07614 0.45194 0.79166 0.0
H7477 H 0.07614 0.45194 0.79166 0.0
H7478 H 0.16061 0.47768 0.79048 0.0
H7479 H 0.16427 0.46052 0.77583 0.0
H7480 H 0.14327 0.48978 0.80709 0.0
H7481 H 0.12167 0.49107 0.81454 0.0
C7482 C 0.78397 0.37047 0.04675 0.0
C7483 C 0.79312 0.35456 0.0502 0.0
C7484 C 0.8149 0.36203 0.0275 0.0
C7485 C 0.8075 0.37888 0.02613 0.0
N7486 N 0.78295 0.39808 0.03025 0.0
N7487 N 0.81598 0.33406 0.04104 0.0
C7488 C 0.79114 0.38263 0.03427 0.0
C7489 C 0.80786 0.34988 0.03958 0.0
N7490 N 0.76872 0.37395 0.05562 0.0
N7491 N 0.82948 0.35791 0.01784 0.0
H7492 H 0.81178 0.32412 0.04943 0.0
H7493 H 0.81178 0.32412 0.04943 0.0
H7494 H 0.83476 0.36661 0.0086 0.0
H7495 H 0.8358 0.34575 0.01875 0.0
H7496 H 0.76135 0.38537 0.05417 0.0
H7497 H 0.76318 0.36506 0.0645 0.0
H7498 H 0.77128 0.40245 0.03588 0.0
H7499 H 0.78773 0.40626 0.02031 0.0
C7500 C 0.87329 0.03093 0.29992 0.0
C7501 C 0.87661 0.03699 0.31732 0.0
C7502 C 0.87218 0.06687 0.30795 0.0
C7503 C 0.86759 0.06175 0.2908 0.0
N7504 N 0.86207 0.03784 0.2706 0.0
N7505 N 0.87022 0.05932 0.33857 0.0
C7506 C 0.86744 0.04334 0.28682 0.0
C7507 C 0.87175 0.05436 0.32145 0.0
N7508 N 0.87595 0.01368 0.29584 0.0
N7509 N 0.87951 0.08274 0.31139 0.0
H7510 H 0.86868 0.05007 0.34863 0.0
H7511 H 0.87122 0.07233 0.34246 0.0
H7512 H 0.88266 0.09194 0.30169 0.0
H7513 H 0.88266 0.09194 0.30169 0.0
H7514 H 0.87618 0.00887 0.28303 0.0
H7515 H 0.87768 0.00412 0.30551 0.0
H7516 H 0.86028 0.02467 0.26729 0.0
H7517 H 0.85822 0.04659 0.26077 0.0
C7518 C 0.21379 0.14321 0.54072 0.0
C7519 C 0.2218 0.1346 0.55519 0.0
C7520 C 0.20988 0.10707 0.54437 0.0
C7521 C 0.19667 0.11651 0.53516 0.0
N7522 N 0.18956 0.14317 0.51977 0.0
N7523 N 0.23018 0.10721 0.56863 0.0
C7524 C 0.1999 0.13451 0.53157 0.0
C7525 C 0.22077 0.11614 0.55628 0.0
N7526 N 0.21962 0.15941 0.53577 0.0
N7527 N 0.21275 0.08972 0.54154 0.0
H7528 H 0.23871 0.11363 0.57728 0.0
H7529 H 0.22922 0.09357 0.57002 0.0
H7530 H 0.20687 0.08297 0.53116 0.0
H7531 H 0.20687 0.08297 0.53116 0.0
H7532 H 0.21504 0.16604 0.5247 0.0
H7533 H 0.23044 0.16527 0.54186 0.0
H7534 H 0.18995 0.15673 0.51791 0.0
H7535 H 0.18042 0.13649 0.51198 0.0
C7536 C 0.19604 0.86833 0.46817 0.0
C7537 C 0.19639 0.88688 0.46689 0.0
C7538 C 0.21782 0.88477 0.4428 0.0
C7539 C 0.21708 0.86621 0.44374 0.0
N7540 N 0.21204 0.84134 0.46265 0.0
N7541 N 0.21403 0.91196 0.45895 0.0
C7542 C 0.20829 0.85826 0.45818 0.0
C7543 C 0.20938 0.89491 0.45611 0.0
N7544 N 0.18387 0.86032 0.47864 0.0
N7545 N 0.22622 0.89274 0.4291 0.0
H7546 H 0.20949 0.91887 0.46987 0.0
H7547 H 0.2241 0.91821 0.45204 0.0
H7548 H 0.23316 0.88561 0.41962 0.0
H7549 H 0.22549 0.90624 0.42679 0.0
H7550 H 0.1818 0.84676 0.47859 0.0
H7551 H 0.17535 0.86744 0.48672 0.0
H7552 H 0.20673 0.83516 0.47368 0.0
H7553 H 0.22232 0.83449 0.45672 0.0
C7554 C 0.38514 0.44059 0.71832 0.0
C7555 C 0.36675 0.44298 0.71774 0.0
C7556 C 0.37027 0.46681 0.69638 0.0
C7557 C 0.38854 0.46344 0.69601 0.0
N7558 N 0.41323 0.45469 0.71366 0.0
N7559 N 0.34325 0.46362 0.71311 0.0
C7560 C 0.39603 0.45266 0.70922 0.0
C7561 C 0.35973 0.45791 0.70904 0.0
N7562 N 0.39215 0.42662 0.72711 0.0
N7563 N 0.36299 0.47802 0.68443 0.0
H7564 H 0.33613 0.45806 0.72344 0.0
H7565 H 0.33775 0.47502 0.70785 0.0
H7566 H 0.37065 0.48516 0.67554 0.0
H7567 H 0.34945 0.47959 0.68296 0.0
H7568 H 0.40544 0.42328 0.72632 0.0
H7569 H 0.3844 0.41804 0.73454 0.0
H7570 H 0.41925 0.44764 0.72376 0.0
H7571 H 0.42036 0.46547 0.7091 0.0
C7572 C 0.78812 0.61534 0.96678 0.0
C7573 C 0.80633 0.6127 0.96314 0.0
C7574 C 0.80192 0.62358 0.93345 0.0
C7575 C 0.78449 0.62852 0.93748 0.0
N7576 N 0.7619 0.6321 0.95966 0.0
N7577 N 0.83126 0.62028 0.94537 0.0
C7578 C 0.77775 0.62527 0.95465 0.0
C7579 C 0.81346 0.61891 0.94722 0.0
N7580 N 0.7805 0.60788 0.98125 0.0
N7581 N 0.80725 0.62284 0.91639 0.0
H7582 H 0.83985 0.61964 0.95605 0.0
H7583 H 0.83749 0.62283 0.93355 0.0
H7584 H 0.79851 0.62375 0.90584 0.0
H7585 H 0.82009 0.62014 0.91274 0.0
H7586 H 0.76698 0.60806 0.98349 0.0
H7587 H 0.78736 0.60009 0.99017 0.0
H7588 H 0.75728 0.63154 0.97255 0.0
H7589 H 0.75413 0.6398 0.95141 0.0
C7590 C 0.60669 0.0394 0.21043 0.0
C7591 C 0.61407 0.03136 0.19529 0.0
C7592 C 0.64323 0.03737 0.20711 0.0
C7593 C 0.63584 0.05 0.21861 0.0
N7594 N 0.61026 0.06214 0.23257 0.0
N7595 N 0.63982 0.02184 0.17949 0.0
C7596 C 0.61743 0.05056 0.2209 0.0
C7597 C 0.63253 0.02983 0.19381 0.0
N7598 N 0.58964 0.0361 0.21487 0.0
N7599 N 0.66039 0.03265 0.20903 0.0
H7600 H 0.63219 0.01565 0.16989 0.0
H7601 H 0.65327 0.02217 0.17683 0.0
H7602 H 0.66763 0.0369 0.21986 0.0
H7603 H 0.6664 0.02292 0.20147 0.0
H7604 H 0.58379 0.04094 0.22628 0.0
H7605 H 0.58227 0.02659 0.20831 0.0
H7606 H 0.59678 0.06449 0.23346 0.0
H7607 H 0.61806 0.06984 0.24086 0.0
C7608 C 0.56445 0.22039 0.11544 0.0
C7609 C 0.55777 0.22375 0.13222 0.0
C7610 C 0.53442 0.20178 0.12719 0.0
C7611 C 0.54362 0.19566 0.11195 0.0
N7612 N 0.56947 0.20031 0.0927 0.0
N7613 N 0.53461 0.22065 0.15324 0.0
C7614 C 0.55892 0.20531 0.10623 0.0
C7615 C 0.54186 0.21567 0.13759 0.0
N7616 N 0.57781 0.23062 0.10913 0.0
N7617 N 0.51903 0.19389 0.13215 0.0
H7618 H 0.53926 0.23156 0.16014 0.0
H7619 H 0.52429 0.21415 0.15944 0.0
H7620 H 0.5142 0.18249 0.12629 0.0
H7621 H 0.51073 0.19879 0.14185 0.0
H7622 H 0.5837 0.2285 0.0969 0.0
H7623 H 0.58223 0.24169 0.11598 0.0
H7624 H 0.56848 0.18868 0.08566 0.0
H7625 H 0.56848 0.18868 0.08566 0.0
C7626 C 0.03049 0.79645 0.37735 0.0
C7627 C 0.03953 0.8123 0.3821 0.0
C7628 C 0.0672 0.79757 0.37692 0.0
C7629 C 0.05895 0.78356 0.36829 0.0
N7630 N 0.03196 0.76947 0.35982 0.0
N7631 N 0.06524 0.82841 0.37303 0.0
C7632 C 0.04025 0.78269 0.36864 0.0
C7633 C 0.05766 0.81313 0.37828 0.0
N7634 N 0.01283 0.79484 0.38001 0.0
N7635 N 0.08485 0.79729 0.38008 0.0
H7636 H 0.05794 0.83984 0.37084 0.0
H7637 H 0.0784 0.82887 0.36913 0.0
H7638 H 0.09233 0.78595 0.37798 0.0
H7639 H 0.09133 0.80792 0.38587 0.0
H7640 H 0.00618 0.78294 0.37861 0.0
H7641 H 0.00486 0.80541 0.38348 0.0
H7642 H 0.01839 0.76905 0.35789 0.0
H7643 H 0.03899 0.75925 0.35393 0.0
C7644 C 0.433 0.31257 0.63258 0.0
C7645 C 0.43826 0.29516 0.63602 0.0
C7646 C 0.46824 0.30289 0.62622 0.0
C7647 C 0.46257 0.32053 0.62371 0.0
N7648 N 0.44137 0.34294 0.63094 0.0
N7649 N 0.46203 0.27431 0.63923 0.0
C7650 C 0.44582 0.32556 0.63006 0.0
C7651 C 0.45634 0.29053 0.63401 0.0
N7652 N 0.41583 0.31722 0.63092 0.0
N7653 N 0.4843 0.29763 0.62019 0.0
H7654 H 0.45361 0.26497 0.64472 0.0
H7655 H 0.47525 0.27071 0.63947 0.0
H7656 H 0.49377 0.30644 0.61572 0.0
H7657 H 0.48804 0.28448 0.61929 0.0
H7658 H 0.40531 0.30842 0.63156 0.0
H7659 H 0.40531 0.30842 0.63156 0.0
H7660 H 0.42859 0.34715 0.63368 0.0
H7661 H 0.45077 0.35286 0.62943 0.0
C7662 C 0.94901 0.72061 0.88131 0.0
C7663 C 0.94962 0.71897 0.86282 0.0
C7664 C 0.97119 0.6952 0.86539 0.0
C7665 C 0.9697 0.69601 0.88389 0.0
N7666 N 0.96407 0.71472 0.90878 0.0
N7667 N 0.96744 0.71111 0.83801 0.0
C7668 C 0.96086 0.7105 0.89168 0.0
C7669 C 0.96283 0.70836 0.85508 0.0
N7670 N 0.93673 0.73124 0.88891 0.0
N7671 N 0.98003 0.68163 0.85767 0.0
H7672 H 0.9625 0.72185 0.83105 0.0
H7673 H 0.97762 0.70435 0.83179 0.0
H7674 H 0.98684 0.67224 0.86502 0.0
H7675 H 0.97985 0.67937 0.84415 0.0
H7676 H 0.93439 0.73145 0.90242 0.0
H7677 H 0.92845 0.73926 0.88145 0.0
H7678 H 0.95865 0.7257 0.91493 0.0
H7679 H 0.97403 0.70853 0.91588 0.0
C7680 C 0.03878 0.71102 0.14106 0.0
C7681 C 0.05317 0.72013 0.13347 0.0
C7682 C 0.04243 0.71093 0.1048 0.0
C7683 C 0.03289 0.69708 0.11282 0.0
N7684 N 0.02051 0.68492 0.13928 0.0
N7685 N 0.06795 0.72982 0.10723 0.0
C7686 C 0.03039 0.69751 0.13121 0.0
C7687 C 0.05468 0.72059 0.11499 0.0
N7688 N 0.03292 0.71565 0.15731 0.0
N7689 N 0.03891 0.71555 0.08791 0.0
H7690 H 0.07666 0.73754 0.11454 0.0
H7691 H 0.07054 0.72909 0.09378 0.0
H7692 H 0.02786 0.71053 0.08153 0.0
H7693 H 0.04502 0.72612 0.08165 0.0
H7694 H 0.02183 0.71003 0.1631 0.0
H7695 H 0.03798 0.72666 0.16378 0.0
H7696 H 0.01975 0.68376 0.15293 0.0
H7697 H 0.01379 0.67528 0.13217 0.0
C7698 C 0.47134 0.80107 0.13328 0.0
C7699 C 0.47008 0.80113 0.11476 0.0
C7700 C 0.44724 0.77849 0.11613 0.0
C7701 C 0.44776 0.77919 0.13467 0.0
N7702 N 0.46681 0.78355 0.1595 0.0
N7703 N 0.46416 0.78298 0.08956 0.0
C7704 C 0.46195 0.78805 0.14289 0.0
C7705 C 0.46038 0.78756 0.10642 0.0
N7706 N 0.48112 0.81351 0.1417 0.0
N7707 N 0.43403 0.76966 0.10782 0.0
H7708 H 0.47525 0.78799 0.08324 0.0
H7709 H 0.45796 0.77259 0.08309 0.0
H7710 H 0.42467 0.76237 0.11476 0.0
H7711 H 0.4321 0.77032 0.09426 0.0
H7712 H 0.48102 0.81499 0.15533 0.0
H7713 H 0.48866 0.82272 0.13484 0.0
H7714 H 0.47772 0.78898 0.16578 0.0
H7715 H 0.46124 0.7727 0.16579 0.0
C7716 C 0.44749 0.21942 0.88253 0.0
C7717 C 0.44777 0.21806 0.86402 0.0
C7718 C 0.47053 0.19542 0.86581 0.0
C7719 C 0.46946 0.19597 0.88434 0.0
N7720 N 0.46403 0.21462 0.90931 0.0
N7721 N 0.46631 0.21225 0.83912 0.0
C7722 C 0.46025 0.21002 0.89244 0.0
C7723 C 0.46153 0.20846 0.85593 0.0
N7724 N 0.43479 0.22916 0.89061 0.0
N7725 N 0.47968 0.18233 0.85766 0.0
H7726 H 0.46108 0.22313 0.8326 0.0
H7727 H 0.47691 0.20622 0.83285 0.0
H7728 H 0.48692 0.17302 0.8647 0.0
H7729 H 0.47931 0.18042 0.84408 0.0
H7730 H 0.4329 0.22909 0.90419 0.0
H7731 H 0.42579 0.2367 0.88347 0.0
H7732 H 0.45833 0.22541 0.91555 0.0
H7733 H 0.4746 0.209 0.91599 0.0
C7734 C 0.54768 0.28012 0.3781 0.0
C7735 C 0.54812 0.28319 0.35979 0.0
C7736 C 0.52857 0.30853 0.36325 0.0
C7737 C 0.52898 0.30613 0.38167 0.0
N7738 N 0.53212 0.28545 0.40541 0.0
N7739 N 0.53272 0.2948 0.33479 0.0
C7740 C 0.53628 0.29047 0.38873 0.0
C7741 C 0.53639 0.29558 0.35229 0.0
N7742 N 0.55857 0.26784 0.38534 0.0
N7743 N 0.52131 0.32339 0.3563 0.0
H7744 H 0.53705 0.28428 0.32714 0.0
H7745 H 0.52365 0.30301 0.32862 0.0
H7746 H 0.51482 0.33268 0.36407 0.0
H7747 H 0.52246 0.32677 0.34306 0.0
H7748 H 0.56026 0.26639 0.39886 0.0
H7749 H 0.56644 0.25963 0.37763 0.0
H7750 H 0.53634 0.27367 0.41099 0.0
H7751 H 0.52256 0.29206 0.41268 0.0
C7752 C 0.1381 0.04016 0.71714 0.0
C7753 C 0.1315 0.05555 0.72535 0.0
C7754 C 0.10928 0.05839 0.7036 0.0
C7755 C 0.11579 0.04368 0.69398 0.0
N7756 N 0.13488 0.01822 0.69394 0.0
N7757 N 0.10592 0.07233 0.7319 0.0
C7758 C 0.12947 0.03345 0.70174 0.0
C7759 C 0.11462 0.0611 0.72102 0.0
N7760 N 0.15321 0.03292 0.72349 0.0
N7761 N 0.10222 0.07218 0.69497 0.0
H7762 H 0.11102 0.07559 0.74425 0.0
H7763 H 0.09328 0.07691 0.72907 0.0
H7764 H 0.09666 0.08303 0.70127 0.0
H7765 H 0.10807 0.07501 0.68301 0.0
H7766 H 0.15999 0.02272 0.71738 0.0
H7767 H 0.15899 0.0376 0.73504 0.0
H7768 H 0.14382 0.00958 0.69967 0.0
H7769 H 0.12999 0.01394 0.68187 0.0
C7770 C 0.71901 0.88047 0.9491 0.0
C7771 C 0.71594 0.86215 0.94878 0.0
C7772 C 0.69308 0.86535 0.97123 0.0
C7773 C 0.69533 0.88377 0.97067 0.0
N7774 N 0.716 0.90723 0.96614 0.0
N7775 N 0.70666 0.83707 0.96559 0.0
C7776 C 0.71018 0.89085 0.9619 0.0
C7777 C 0.7051 0.8545 0.96188 0.0
N7778 N 0.72979 0.88799 0.9369 0.0
N7779 N 0.67923 0.85829 0.98019 0.0
H7780 H 0.71688 0.82963 0.96026 0.0
H7781 H 0.69964 0.83086 0.97559 0.0
H7782 H 0.67074 0.86603 0.98773 0.0
H7783 H 0.67587 0.84502 0.97947 0.0
H7784 H 0.73095 0.90157 0.93537 0.0
H7785 H 0.7369 0.8805 0.92784 0.0
H7786 H 0.72731 0.9128 0.96075 0.0
H7787 H 0.71075 0.91403 0.97683 0.0
C7788 C 0.8821 0.4466 0.21997 0.0
C7789 C 0.86367 0.4481 0.21856 0.0
C7790 C 0.86687 0.4694 0.19473 0.0
C7791 C 0.88525 0.46675 0.19512 0.0
N7792 N 0.91006 0.46059 0.2138 0.0
N7793 N 0.83974 0.46731 0.21139 0.0
C7794 C 0.89286 0.45785 0.20964 0.0
C7795 C 0.85644 0.46174 0.20819 0.0
N7796 N 0.88925 0.43405 0.23059 0.0
N7797 N 0.85936 0.47863 0.18131 0.0
H7798 H 0.83274 0.46264 0.22224 0.0
H7799 H 0.83396 0.47786 0.20481 0.0
H7800 H 0.86687 0.48489 0.17166 0.0
H7801 H 0.84579 0.47934 0.17946 0.0
H7802 H 0.90265 0.43113 0.23069 0.0
H7803 H 0.88146 0.42618 0.23873 0.0
H7804 H 0.91606 0.45502 0.2248 0.0
H7805 H 0.91737 0.47042 0.20764 0.0
C7806 C 0.29813 0.64629 0.45985 0.0
C7807 C 0.28637 0.63879 0.44746 0.0
C7808 C 0.28988 0.61047 0.46223 0.0
C7809 C 0.30526 0.61688 0.47055 0.0
N7810 N 0.32361 0.64134 0.47842 0.0
N7811 N 0.26973 0.61373 0.43766 0.0
C7812 C 0.30909 0.63504 0.46998 0.0
C7813 C 0.28161 0.62088 0.44905 0.0
N7814 N 0.29846 0.66404 0.46219 0.0
N7815 N 0.28334 0.59449 0.46699 0.0
H7816 H 0.26303 0.6213 0.42837 0.0
H7817 H 0.26718 0.60028 0.43697 0.0
H7818 H 0.28868 0.58753 0.47754 0.0
H7819 H 0.27164 0.58934 0.46205 0.0
H7820 H 0.30619 0.67025 0.47165 0.0
H7821 H 0.28907 0.67211 0.45634 0.0
H7822 H 0.32825 0.65413 0.4768 0.0
H7823 H 0.33134 0.63335 0.4865 0.0
C7824 C 0.13319 0.95943 0.3177 0.0
C7825 C 0.12124 0.97077 0.3097 0.0
C7826 C 0.12767 0.95545 0.2817 0.0
C7827 C 0.13529 0.94125 0.29153 0.0
N7828 N 0.13164 0.92871 0.32045 0.0
N7829 N 0.10773 0.98071 0.28297 0.0
C7830 C 0.13489 0.94283 0.3101 0.0
C7831 C 0.11901 0.96945 0.29117 0.0
N7832 N 0.13876 0.96243 0.33445 0.0
N7833 N 0.12754 0.9552 0.26378 0.0
H7834 H 0.10192 0.9912 0.28967 0.0
H7835 H 0.10383 0.97932 0.26992 0.0
H7836 H 0.13095 0.94419 0.25642 0.0
H7837 H 0.12404 0.96611 0.25626 0.0
H7838 H 0.14683 0.95345 0.34104 0.0
H7839 H 0.13605 0.97428 0.34087 0.0
H7840 H 0.12871 0.93013 0.3338 0.0
H7841 H 0.12952 0.91621 0.31536 0.0
C7842 C 0.79216 0.85856 0.53804 0.0
C7843 C 0.78311 0.86638 0.55234 0.0
C7844 C 0.79008 0.89496 0.53954 0.0
C7845 C 0.80382 0.88715 0.52962 0.0
N7846 N 0.8175 0.86072 0.51888 0.0
N7847 N 0.77226 0.89279 0.56595 0.0
C7848 C 0.80466 0.86865 0.52855 0.0
C7849 C 0.78153 0.88488 0.5528 0.0
N7850 N 0.78798 0.84199 0.53287 0.0
N7851 N 0.78489 0.91168 0.53587 0.0
H7852 H 0.76537 0.88556 0.57537 0.0
H7853 H 0.77218 0.90639 0.56778 0.0
H7854 H 0.78973 0.9183 0.52486 0.0
H7855 H 0.77431 0.91776 0.54213 0.0
H7856 H 0.79371 0.83592 0.52198 0.0
H7857 H 0.77679 0.83579 0.53782 0.0
H7858 H 0.81962 0.84716 0.51918 0.0
H7859 H 0.82639 0.86791 0.51126 0.0
C7860 C 0.85218 0.53609 0.79449 0.0
C7861 C 0.86016 0.54914 0.78385 0.0
C7862 C 0.88839 0.53474 0.78876 0.0
C7863 C 0.88117 0.52603 0.80357 0.0
N7864 N 0.8556 0.51742 0.82006 0.0
N7865 N 0.8861 0.56001 0.76938 0.0
C7866 C 0.8628 0.52619 0.80617 0.0
C7867 C 0.87836 0.54806 0.78028 0.0
N7868 N 0.8347 0.53269 0.79279 0.0
N7869 N 0.90467 0.53019 0.78287 0.0
H7870 H 0.8788 0.56943 0.76254 0.0
H7871 H 0.89969 0.56095 0.76779 0.0
H7872 H 0.91148 0.51958 0.78828 0.0
H7873 H 0.91027 0.53542 0.7715 0.0
H7874 H 0.8283 0.52273 0.79971 0.0
H7875 H 0.82751 0.53808 0.78245 0.0
H7876 H 0.84241 0.51871 0.82364 0.0
H7877 H 0.86315 0.50947 0.82834 0.0
C7878 C 0.21613 0.61982 0.04988 0.0
C7879 C 0.2125 0.63796 0.05122 0.0
C7880 C 0.18875 0.6351 0.02979 0.0
C7881 C 0.19156 0.61679 0.02943 0.0
N7882 N 0.2138 0.59445 0.03081 0.0
N7883 N 0.20288 0.66313 0.03465 0.0
C7884 C 0.2072 0.60992 0.03683 0.0
C7885 C 0.20114 0.64581 0.0387 0.0
N7886 N 0.22773 0.61203 0.06111 0.0
N7887 N 0.17419 0.64218 0.02209 0.0
H7888 H 0.21363 0.67033 0.0392 0.0
H7889 H 0.19543 0.66928 0.02492 0.0
H7890 H 0.16532 0.63452 0.01493 0.0
H7891 H 0.17077 0.65539 0.02354 0.0
H7892 H 0.2295 0.59844 0.06162 0.0
H7893 H 0.2349 0.61926 0.07034 0.0
H7894 H 0.22572 0.58923 0.03515 0.0
H7895 H 0.20841 0.58838 0.01974 0.0
C7896 C 0.21844 0.37881 0.95317 0.0
C7897 C 0.20969 0.36708 0.94138 0.0
C7898 C 0.18563 0.36503 0.96282 0.0
C7899 C 0.19154 0.38007 0.97157 0.0
N7900 N 0.21527 0.40029 0.97687 0.0
N7901 N 0.18052 0.35708 0.93323 0.0
C7902 C 0.20871 0.38645 0.96755 0.0
C7903 C 0.19221 0.36181 0.94584 0.0
N7904 N 0.23555 0.38338 0.9502 0.0
N7905 N 0.17163 0.3559 0.96927 0.0
H7906 H 0.16763 0.35327 0.93605 0.0
H7907 H 0.18204 0.36203 0.92063 0.0
H7908 H 0.16601 0.3591 0.98141 0.0
H7909 H 0.16699 0.34445 0.96327 0.0
H7910 H 0.24313 0.39034 0.95924 0.0
H7911 H 0.24233 0.37973 0.93886 0.0
H7912 H 0.22659 0.40714 0.97333 0.0
H7913 H 0.20901 0.40506 0.9881 0.0
C7914 C 0.37294 0.96647 0.20005 0.0
C7915 C 0.39067 0.96118 0.19821 0.0
C7916 C 0.38646 0.93814 0.22021 0.0
C7917 C 0.36845 0.94255 0.22107 0.0
N7918 N 0.34673 0.96527 0.2183 0.0
N7919 N 0.41567 0.94827 0.21269 0.0
C7920 C 0.36243 0.9583 0.21319 0.0
C7921 C 0.39793 0.94901 0.21032 0.0
N7922 N 0.36603 0.97875 0.18894 0.0
N7923 N 0.39239 0.92319 0.22816 0.0
H7924 H 0.42392 0.95772 0.2072 0.0
H7925 H 0.42168 0.94016 0.22195 0.0
H7926 H 0.38424 0.91546 0.23609 0.0
H7927 H 0.40502 0.91822 0.22624 0.0
H7928 H 0.35266 0.98173 0.18848 0.0
H7929 H 0.3737 0.98536 0.17966 0.0
H7930 H 0.34197 0.97727 0.21371 0.0
H7931 H 0.33961 0.95987 0.22873 0.0
C7932 C 0.78127 0.1176 0.44223 0.0
C7933 C 0.78392 0.13597 0.44242 0.0
C7934 C 0.80557 0.13285 0.46605 0.0
C7935 C 0.8037 0.11443 0.46501 0.0
N7936 N 0.78333 0.09098 0.45953 0.0
N7937 N 0.79168 0.16092 0.46036 0.0
C7938 C 0.78943 0.10728 0.45544 0.0
C7939 C 0.79384 0.14363 0.45627 0.0
N7940 N 0.77134 0.10999 0.42938 0.0
N7941 N 0.8188 0.13997 0.47585 0.0
H7942 H 0.78174 0.16842 0.45463 0.0
H7943 H 0.79794 0.16694 0.47096 0.0
H7944 H 0.82703 0.13222 0.48366 0.0
H7945 H 0.82191 0.15332 0.47558 0.0
H7946 H 0.77055 0.0964 0.42772 0.0
H7947 H 0.76461 0.1174 0.41998 0.0
H7948 H 0.7724 0.08532 0.45348 0.0
H7949 H 0.78773 0.08453 0.4708 0.0
C7950 C 0.60776 0.54214 0.70719 0.0
C7951 C 0.61502 0.53245 0.69301 0.0
C7952 C 0.64419 0.53905 0.70438 0.0
C7953 C 0.63703 0.55306 0.71434 0.0
N7954 N 0.61156 0.56715 0.72666 0.0
N7955 N 0.64065 0.52072 0.67857 0.0
C7956 C 0.61862 0.55424 0.71639 0.0
C7957 C 0.63344 0.53042 0.69183 0.0
N7958 N 0.59075 0.53938 0.71208 0.0
N7959 N 0.66095 0.53361 0.70749 0.0
H7960 H 0.63294 0.5137 0.66963 0.0
H7961 H 0.65415 0.52041 0.67612 0.0
H7962 H 0.66795 0.53833 0.71829 0.0
H7963 H 0.66664 0.52287 0.70114 0.0
H7964 H 0.58498 0.54545 0.72293 0.0
H7965 H 0.58339 0.52915 0.70666 0.0
H7966 H 0.5981 0.56974 0.72717 0.0
H7967 H 0.61941 0.57564 0.73407 0.0
C7968 C 0.52596 0.69425 0.63379 0.0
C7969 C 0.52681 0.69475 0.61525 0.0
C7970 C 0.54821 0.71874 0.61667 0.0
C7971 C 0.54831 0.71727 0.63515 0.0
N7972 N 0.53044 0.71111 0.66041 0.0
N7973 N 0.5313 0.71357 0.5902 0.0
C7974 C 0.5349 0.70742 0.6435 0.0
C7975 C 0.5355 0.70905 0.60698 0.0
N7976 N 0.51707 0.68106 0.64207 0.0
N7977 N 0.56055 0.72878 0.60839 0.0
H7978 H 0.52075 0.7077 0.58369 0.0
H7979 H 0.53664 0.7245 0.58386 0.0
H7980 H 0.56954 0.73646 0.61538 0.0
H7981 H 0.56218 0.72879 0.59477 0.0
H7982 H 0.51761 0.67917 0.65565 0.0
H7983 H 0.50984 0.67167 0.63513 0.0
H7984 H 0.52018 0.70482 0.66699 0.0
H7985 H 0.53546 0.72224 0.66667 0.0
C7986 C 0.04561 0.28854 0.89353 0.0
C7987 C 0.03544 0.30222 0.88594 0.0
C7988 C 0.04019 0.28869 0.85712 0.0
C7989 C 0.05424 0.27868 0.86419 0.0
N7990 N 0.07016 0.26857 0.88954 0.0
N7991 N 0.0219 0.31471 0.86022 0.0
C7992 C 0.05675 0.27826 0.88259 0.0
C7993 C 0.03218 0.302 0.86762 0.0
N7994 N 0.04409 0.28496 0.911 0.0
N7995 N 0.03459 0.28537 0.84043 0.0
H7996 H 0.01534 0.32414 0.86776 0.0
H7997 H 0.02058 0.31633 0.84668 0.0
H7998 H 0.03958 0.27481 0.83323 0.0
H7999 H 0.02376 0.29154 0.83473 0.0
H8000 H 0.0506 0.27457 0.91714 0.0
H8001 H 0.03424 0.29073 0.91855 0.0
H8002 H 0.07391 0.26939 0.90271 0.0
H8003 H 0.07797 0.26032 0.88181 0.0
C8004 C 0.96159 0.20513 0.35411 0.0
C8005 C 0.949 0.21678 0.36145 0.0
C8006 C 0.95972 0.2082 0.39038 0.0
C8007 C 0.967 0.1927 0.383 0.0
N8008 N 0.97715 0.1777 0.35699 0.0
N8009 N 0.93729 0.23066 0.38732 0.0
C8010 C 0.96866 0.19152 0.36458 0.0
C8011 C 0.94855 0.21887 0.37988 0.0
N8012 N 0.96744 0.20712 0.33739 0.0
N8013 N 0.96442 0.21327 0.40686 0.0
H8014 H 0.92957 0.2391 0.37971 0.0
H8015 H 0.9353 0.23144 0.40087 0.0
H8016 H 0.97473 0.20704 0.41342 0.0
H8017 H 0.96017 0.22499 0.41256 0.0
H8018 H 0.96434 0.21813 0.32981 0.0
H8019 H 0.96434 0.21813 0.32981 0.0
H8020 H 0.97815 0.17642 0.34335 0.0
H8021 H 0.98291 0.16768 0.36443 0.0
C8022 C 0.03541 0.20227 0.64526 0.0
C8023 C 0.0472 0.21477 0.63805 0.0
C8024 C 0.03573 0.20764 0.60883 0.0
C8025 C 0.02813 0.19198 0.61568 0.0
N8026 N 0.02045 0.17445 0.6409 0.0
N8027 N 0.058 0.23028 0.61276 0.0
C8028 C 0.02769 0.18941 0.6341 0.0
C8029 C 0.047 0.21793 0.61974 0.0
N8030 N 0.03151 0.20289 0.66273 0.0
N8031 N 0.03208 0.21271 0.59203 0.0
H8032 H 0.06572 0.23845 0.62065 0.0
H8033 H 0.05994 0.23183 0.59929 0.0
H8034 H 0.02282 0.20612 0.58438 0.0
H8035 H 0.03644 0.22451 0.58661 0.0
H8036 H 0.02237 0.19462 0.66872 0.0
H8037 H 0.0357 0.21339 0.67049 0.0
H8038 H 0.02163 0.17094 0.65409 0.0
H8039 H 0.01402 0.16519 0.63305 0.0
C8040 C 0.46253 0.69989 0.35113 0.0
C8041 C 0.45119 0.71317 0.35786 0.0
C8042 C 0.4633 0.70761 0.38714 0.0
C8043 C 0.47049 0.69153 0.38099 0.0
N8044 N 0.47906 0.6734 0.35654 0.0
N8045 N 0.44154 0.73052 0.38247 0.0
C8046 C 0.47087 0.68809 0.3628 0.0
C8047 C 0.452 0.71747 0.37594 0.0
N8048 N 0.46509 0.69773 0.33359 0.0
N8049 N 0.46764 0.71354 0.40347 0.0
H8050 H 0.4338 0.73843 0.37434 0.0
H8051 H 0.44005 0.73293 0.39587 0.0
H8052 H 0.47719 0.70723 0.41102 0.0
H8053 H 0.46362 0.72567 0.40842 0.0
H8054 H 0.46027 0.70646 0.32419 0.0
H8055 H 0.46027 0.70646 0.32419 0.0
H8056 H 0.47916 0.67019 0.34318 0.0
H8057 H 0.48571 0.66465 0.36478 0.0
C8058 C 0.53796 0.77833 0.8671 0.0
C8059 C 0.55659 0.77998 0.86606 0.0
C8060 C 0.5549 0.80916 0.87809 0.0
C8061 C 0.53657 0.80757 0.88084 0.0
N8062 N 0.51137 0.78809 0.88193 0.0
N8063 N 0.58259 0.79369 0.87747 0.0
C8064 C 0.5282 0.79135 0.87659 0.0
C8065 C 0.56491 0.79415 0.87436 0.0
N8066 N 0.52954 0.76497 0.85858 0.0
N8067 N 0.56252 0.82525 0.87694 0.0
H8068 H 0.59011 0.7824 0.87528 0.0
H8069 H 0.58926 0.80384 0.88369 0.0
H8070 H 0.55519 0.83685 0.8764 0.0
H8071 H 0.57582 0.82677 0.87411 0.0
H8072 H 0.5159 0.76434 0.85739 0.0
H8073 H 0.5362 0.7551 0.85181 0.0
H8074 H 0.50531 0.7759 0.88037 0.0
H8075 H 0.50415 0.79696 0.88948 0.0
C8076 C 0.60668 0.45618 0.28855 0.0
C8077 C 0.61395 0.46585 0.30275 0.0
C8078 C 0.64308 0.45972 0.29112 0.0
C8079 C 0.63604 0.44564 0.28122 0.0
N8080 N 0.61073 0.43142 0.26879 0.0
N8081 N 0.63955 0.47773 0.31713 0.0
C8082 C 0.61765 0.4443 0.27916 0.0
C8083 C 0.63234 0.46811 0.30382 0.0
N8084 N 0.58957 0.45866 0.28392 0.0
N8085 N 0.65973 0.4654 0.28787 0.0
H8086 H 0.63184 0.48455 0.32623 0.0
H8087 H 0.65306 0.47816 0.31947 0.0
H8088 H 0.66664 0.46081 0.27694 0.0
H8089 H 0.66534 0.47617 0.29423 0.0
H8090 H 0.58377 0.45257 0.2731 0.0
H8091 H 0.58208 0.46868 0.28954 0.0
H8092 H 0.59731 0.42868 0.26824 0.0
H8093 H 0.6187 0.42312 0.26128 0.0
C8094 C 0.29759 0.35173 0.5367 0.0
C8095 C 0.28428 0.35912 0.54747 0.0
C8096 C 0.29042 0.3877 0.53412 0.0
C8097 C 0.30681 0.38124 0.52792 0.0
N8098 N 0.32576 0.35652 0.52247 0.0
N8099 N 0.26726 0.3844 0.55586 0.0
C8100 C 0.31024 0.36299 0.52874 0.0
C8101 C 0.28027 0.37719 0.54584 0.0
N8102 N 0.29793 0.33404 0.53399 0.0
N8103 N 0.28447 0.40362 0.5285 0.0
H8104 H 0.25924 0.37676 0.56399 0.0
H8105 H 0.26507 0.39791 0.55663 0.0
H8106 H 0.29092 0.41052 0.51855 0.0
H8107 H 0.27217 0.40866 0.53189 0.0
H8108 H 0.30684 0.32788 0.5256 0.0
H8109 H 0.28766 0.32606 0.53834 0.0
H8110 H 0.32982 0.34359 0.52451 0.0
H8111 H 0.33487 0.36445 0.51591 0.0
C8112 C 0.36461 0.02666 0.80438 0.0
C8113 C 0.38308 0.02755 0.80245 0.0
C8114 C 0.37969 0.04761 0.77746 0.0
C8115 C 0.36129 0.04752 0.78007 0.0
N8116 N 0.33637 0.03092 0.79024 0.0
N8117 N 0.40713 0.03213 0.78244 0.0
C8118 C 0.35376 0.03494 0.79161 0.0
C8119 C 0.3903 0.03581 0.78736 0.0
N8120 N 0.3575 0.01853 0.81871 0.0
N8121 N 0.38702 0.05929 0.76598 0.0
H8122 H 0.41433 0.02226 0.78866 0.0
H8123 H 0.41288 0.03707 0.77102 0.0
H8124 H 0.37937 0.06748 0.75804 0.0
H8125 H 0.40056 0.06127 0.76497 0.0
H8126 H 0.34416 0.01926 0.82185 0.0
H8127 H 0.36521 0.01176 0.82784 0.0
H8128 H 0.33028 0.02123 0.79779 0.0
H8129 H 0.32878 0.03568 0.77987 0.0
C8130 C 0.71619 0.11826 0.05394 0.0
C8131 C 0.71359 0.13664 0.05451 0.0
C8132 C 0.69249 0.13461 0.03031 0.0
C8133 C 0.69423 0.11615 0.03056 0.0
N8134 N 0.71453 0.09248 0.03532 0.0
N8135 N 0.7072 0.16205 0.03672 0.0
C8136 C 0.70835 0.10858 0.04003 0.0
C8137 C 0.70422 0.14486 0.04062 0.0
N8138 N 0.72574 0.11005 0.06669 0.0
N8139 N 0.67949 0.14228 0.02065 0.0
H8140 H 0.71752 0.16894 0.04254 0.0
H8141 H 0.70133 0.1684 0.02608 0.0
H8142 H 0.67126 0.13494 0.01245 0.0
H8143 H 0.6766 0.15567 0.02144 0.0
H8144 H 0.72649 0.09639 0.0677 0.0
H8145 H 0.73212 0.117 0.07667 0.0
H8146 H 0.72543 0.08664 0.04126 0.0
H8147 H 0.71009 0.08635 0.02388 0.0
C8148 C 0.96826 0.29898 0.13246 0.0
C8149 C 0.96631 0.29954 0.114 0.0
C8150 C 0.94252 0.27796 0.11578 0.0
C8151 C 0.94383 0.27804 0.13431 0.0
N8152 N 0.96434 0.28078 0.15829 0.0
N8153 N 0.95922 0.28157 0.08901 0.0
C8154 C 0.95877 0.28606 0.14213 0.0
C8155 C 0.95578 0.28653 0.10582 0.0
N8156 N 0.97884 0.31083 0.14076 0.0
N8157 N 0.92865 0.26997 0.10771 0.0
H8158 H 0.97063 0.28579 0.08266 0.0
H8159 H 0.9524 0.27147 0.0827 0.0
H8160 H 0.91913 0.26298 0.11475 0.0
H8161 H 0.92638 0.27108 0.09422 0.0
H8162 H 0.97934 0.31194 0.15443 0.0
H8163 H 0.98642 0.31994 0.13382 0.0
H8164 H 0.97581 0.28556 0.16409 0.0
H8165 H 0.9587 0.26998 0.1646 0.0
C8166 C 0.93202 0.80787 0.62926 0.0
C8167 C 0.9383 0.79148 0.63492 0.0
C8168 C 0.96843 0.80181 0.62783 0.0
C8169 C 0.96131 0.81848 0.62309 0.0
N8170 N 0.9379 0.83889 0.62867 0.0
N8171 N 0.96346 0.77347 0.64213 0.0
C8172 C 0.94376 0.822 0.62786 0.0
C8173 C 0.9569 0.78865 0.63513 0.0
N8174 N 0.91532 0.81009 0.62342 0.0
N8175 N 0.98585 0.79846 0.62525 0.0
H8176 H 0.95538 0.76364 0.64726 0.0
H8177 H 0.97683 0.77119 0.64404 0.0
H8178 H 0.9949 0.8084 0.62262 0.0
H8179 H 0.99131 0.78592 0.62599 0.0
H8180 H 0.90607 0.79999 0.62238 0.0
H8181 H 0.90607 0.79999 0.62238 0.0
H8182 H 0.92463 0.84191 0.62965 0.0
H8183 H 0.94657 0.84956 0.62875 0.0
C8184 C 0.6106 0.96386 0.78941 0.0
C8185 C 0.61797 0.97145 0.80477 0.0
C8186 C 0.647 0.96256 0.79426 0.0
C8187 C 0.63899 0.95052 0.78251 0.0
N8188 N 0.61283 0.94031 0.76799 0.0
N8189 N 0.64378 0.97906 0.82138 0.0
C8190 C 0.62066 0.95151 0.7796 0.0
C8191 C 0.63643 0.97131 0.80697 0.0
N8192 N 0.59423 0.96875 0.78405 0.0
N8193 N 0.66455 0.96585 0.79294 0.0
H8194 H 0.63631 0.98621 0.83042 0.0
H8195 H 0.65704 0.97771 0.82462 0.0
H8196 H 0.67186 0.961 0.7824 0.0
H8197 H 0.67106 0.97515 0.80063 0.0
H8198 H 0.5885 0.96428 0.77243 0.0
H8199 H 0.58757 0.97911 0.79009 0.0
H8200 H 0.59922 0.93913 0.76679 0.0
H8201 H 0.62011 0.93168 0.76016 0.0
C8202 C 0.28052 0.8805 0.05474 0.0
C8203 C 0.28307 0.8621 0.05432 0.0
C8204 C 0.3029 0.86524 0.02912 0.0
C8205 C 0.30125 0.88368 0.03033 0.0
N8206 N 0.28194 0.90746 0.03778 0.0
N8207 N 0.28903 0.83731 0.03553 0.0
C8208 C 0.28781 0.89087 0.04102 0.0
C8209 C 0.29183 0.85449 0.03968 0.0
N8210 N 0.27164 0.88809 0.06836 0.0
N8211 N 0.31536 0.85806 0.01841 0.0
H8212 H 0.27916 0.83007 0.04169 0.0
H8213 H 0.29448 0.8313 0.02448 0.0
H8214 H 0.32307 0.86579 0.01007 0.0
H8215 H 0.31838 0.84468 0.01845 0.0
H8216 H 0.27105 0.90167 0.07017 0.0
H8217 H 0.26565 0.88066 0.07824 0.0
H8218 H 0.27156 0.91322 0.04465 0.0
H8219 H 0.28604 0.91427 0.02659 0.0
C8220 C 0.38903 0.55989 0.27806 0.0
C8221 C 0.37094 0.5559 0.27725 0.0
C8222 C 0.375 0.53128 0.29749 0.0
C8223 C 0.39281 0.53623 0.29946 0.0
N8224 N 0.41803 0.54884 0.28511 0.0
N8225 N 0.34892 0.53339 0.2792 0.0
C8226 C 0.40031 0.5485 0.28759 0.0
C8227 C 0.36468 0.53998 0.28459 0.0
N8228 N 0.39524 0.57485 0.27035 0.0
N8229 N 0.36785 0.51887 0.30829 0.0
H8230 H 0.342 0.53918 0.26886 0.0
H8231 H 0.34399 0.52131 0.2834 0.0
H8232 H 0.3754 0.51189 0.3174 0.0
H8233 H 0.35442 0.51614 0.30868 0.0
H8234 H 0.40803 0.57945 0.27219 0.0
H8235 H 0.38719 0.58292 0.26268 0.0
H8236 H 0.42421 0.55705 0.27604 0.0
H8237 H 0.42604 0.53898 0.29025 0.0
C8238 C 0.70924 0.64354 0.53697 0.0
C8239 C 0.71861 0.6356 0.55101 0.0
C8240 C 0.71235 0.60702 0.53778 0.0
C8241 C 0.69866 0.61469 0.52771 0.0
N8242 N 0.68447 0.64084 0.51706 0.0
N8243 N 0.7299 0.60923 0.56434 0.0
C8244 C 0.69734 0.63319 0.52692 0.0
C8245 C 0.72062 0.61713 0.55118 0.0
N8246 N 0.71216 0.66072 0.53294 0.0
N8247 N 0.71752 0.59025 0.53432 0.0
H8248 H 0.73663 0.61647 0.57388 0.0
H8249 H 0.73016 0.59564 0.56612 0.0
H8250 H 0.71267 0.58349 0.52342 0.0
H8251 H 0.72805 0.58419 0.54067 0.0
H8252 H 0.70629 0.667 0.52226 0.0
H8253 H 0.72238 0.66771 0.53881 0.0
H8254 H 0.68174 0.65428 0.51755 0.0
H8255 H 0.67609 0.63348 0.50904 0.0
C8256 C 0.98611 0.50642 0.17842 0.0
C8257 C 0.98259 0.49104 0.16845 0.0
C8258 C 0.01387 0.48613 0.16449 0.0
C8259 C 0.01691 0.5037 0.16972 0.0
N8260 N 0.00848 0.52636 0.18989 0.0
N8261 N 0.99299 0.466 0.15186 0.0
C8262 C 0.00377 0.5126 0.1794 0.0
C8263 C 0.99645 0.48059 0.16174 0.0
N8264 N 0.97254 0.5155 0.18591 0.0
N8265 N 0.02755 0.47468 0.16276 0.0
H8266 H 0.98027 0.46149 0.14962 0.0
H8267 H 0.00265 0.45923 0.14486 0.0
H8268 H 0.04017 0.47807 0.1668 0.0
H8269 H 0.02592 0.46136 0.15993 0.0
H8270 H 0.97391 0.52768 0.19198 0.0
H8271 H 0.95961 0.51088 0.1857 0.0
H8272 H -0.00018 0.53323 0.19796 0.0
H8273 H 0.02168 0.52961 0.19181 0.0
C8274 C 0.73265 0.25206 0.41303 0.0
C8275 C 0.74429 0.26609 0.41676 0.0
C8276 C 0.76721 0.24524 0.42536 0.0
C8277 C 0.75706 0.23176 0.41753 0.0
N8278 N 0.7276 0.22066 0.41467 0.0
N8279 N 0.77158 0.27668 0.42897 0.0
C8280 C 0.73886 0.23462 0.41481 0.0
C8281 C 0.76114 0.26288 0.42412 0.0
N8282 N 0.71604 0.25542 0.40701 0.0
N8283 N 0.78195 0.24097 0.43465 0.0
H8284 H 0.76714 0.28966 0.42882 0.0
H8285 H 0.78472 0.27537 0.43256 0.0
H8286 H 0.78527 0.22791 0.43725 0.0
H8287 H 0.78949 0.25004 0.44159 0.0
H8288 H 0.70778 0.24578 0.40187 0.0
H8289 H 0.71077 0.2681 0.40647 0.0
H8290 H 0.71398 0.22184 0.41378 0.0
H8291 H 0.73194 0.20802 0.41773 0.0
C8292 C 0.00093 0.98197 0.66385 0.0
C8293 C 0.98688 0.99322 0.66867 0.0
C8294 C 0.00788 0.0147 0.68031 0.0
C8295 C 0.02147 0.00493 0.67221 0.0
N8296 N 0.03194 0.97556 0.66712 0.0
N8297 N 0.97634 0.01892 0.68395 0.0
C8298 C 0.01831 0.98723 0.66762 0.0
C8299 C 0.99015 0.00906 0.67804 0.0
N8300 N 0.99778 0.96693 0.6546 0.0
N8301 N 0.01216 0.02874 0.69064 0.0
H8302 H 0.96334 0.01465 0.68301 0.0
H8303 H 0.97764 0.0314 0.68941 0.0
H8304 H 0.02524 0.03165 0.69367 0.0
H8305 H 0.00308 0.03621 0.69763 0.0
H8306 H 0.00772 0.95936 0.64894 0.0
H8307 H 0.98511 0.96281 0.65149 0.0
H8308 H 0.03026 0.96214 0.66493 0.0
H8309 H 0.04462 0.9792 0.67098 0.0
C8310 C 0.25501 0.26319 0.92446 0.0
C8311 C 0.23839 0.26527 0.91617 0.0
C8312 C 0.23479 0.23342 0.91549 0.0
C8313 C 0.25302 0.2317 0.91862 0.0
N8314 N 0.27714 0.24284 0.93563 0.0
N8315 N 0.21181 0.2521 0.90428 0.0
C8316 C 0.26219 0.24598 0.9262 0.0
C8317 C 0.22778 0.25034 0.91236 0.0
N8318 N 0.26404 0.27771 0.92995 0.0
N8319 N 0.22431 0.21887 0.91578 0.0
H8320 H 0.20591 0.26415 0.90159 0.0
H8321 H 0.20486 0.24147 0.89913 0.0
H8322 H 0.22928 0.20659 0.91934 0.0
H8323 H 0.21064 0.21939 0.91477 0.0
H8324 H 0.27698 0.27747 0.9344 0.0
H8325 H 0.25842 0.29024 0.92985 0.0
H8326 H 0.28429 0.25249 0.94216 0.0
H8327 H 0.28121 0.23005 0.93851 0.0
C8328 C 0.00336 0.48397 0.83573 0.0
C8329 C 0.01636 0.49652 0.83125 0.0
C8330 C 0.99361 0.51769 0.82318 0.0
C8331 C 0.98116 0.50677 0.83174 0.0
N8332 N 0.97238 0.47663 0.83568 0.0
N8333 N 0.0245 0.52449 0.81875 0.0
C8334 C 0.98545 0.48889 0.83473 0.0
C8335 C 0.01168 0.51301 0.82393 0.0
N8336 N 0.00819 0.4677 0.84171 0.0
N8337 N 0.98805 0.53178 0.81358 0.0
H8338 H 0.03782 0.52116 0.81868 0.0
H8339 H 0.02204 0.53751 0.81528 0.0
H8340 H 0.97476 0.53404 0.81118 0.0
H8341 H 0.99637 0.53964 0.80607 0.0
H8342 H 0.99945 0.45885 0.84746 0.0
H8343 H 0.02121 0.46333 0.84159 0.0
H8344 H 0.9746 0.46317 0.8368 0.0
H8345 H 0.95936 0.4799 0.83298 0.0
C8346 C 0.73493 0.26253 0.0719 0.0
C8347 C 0.75165 0.2669 0.07897 0.0
C8348 C 0.75914 0.23576 0.08117 0.0
C8349 C 0.74117 0.23177 0.07845 0.0
N8350 N 0.71596 0.23924 0.06097 0.0
N8351 N 0.7808 0.25814 0.08788 0.0
C8352 C 0.73025 0.24451 0.07045 0.0
C8353 C 0.76427 0.25361 0.08248 0.0
N8354 N 0.72313 0.27546 0.06785 0.0
N8355 N 0.77116 0.22244 0.08183 0.0
H8356 H 0.78517 0.27113 0.08794 0.0
H8357 H 0.78993 0.24921 0.09283 0.0
H8358 H 0.76757 0.20945 0.07924 0.0
H8359 H 0.78468 0.22436 0.08284 0.0
H8360 H 0.71004 0.27297 0.06466 0.0
H8361 H 0.72621 0.2888 0.06854 0.0
H8362 H 0.70804 0.24781 0.0538 0.0
H8363 H 0.71357 0.22597 0.05843 0.0
C8364 C 0.00065 0.02192 0.33986 0.0
C8365 C 0.98576 0.01253 0.33377 0.0
C8366 C 0.00492 0.99 0.32117 0.0
C8367 C 0.01923 0.99855 0.3295 0.0
N8368 N 0.0316 0.02702 0.3353 0.0
N8369 N 0.97371 0.99112 0.3138 0.0
C8370 C 0.01732 0.01625 0.33449 0.0
C8371 C 0.98789 0.99768 0.32266 0.0
N8372 N 0.99921 0.03465 0.35242 0.0
N8373 N 0.00765 0.97478 0.3121 0.0
H8374 H 0.96138 0.99717 0.31439 0.0
H8375 H 0.97436 0.98072 0.30494 0.0
H8376 H 0.02028 0.97056 0.30883 0.0
H8377 H 0.99762 0.96676 0.30738 0.0
H8378 H 0.01014 0.04073 0.35807 0.0
H8379 H 0.98745 0.03736 0.35886 0.0
H8380 H 0.03064 0.04036 0.3384 0.0
H8381 H 0.04384 0.02283 0.33074 0.0
C8382 C 0.2248 0.24956 0.59207 0.0
C8383 C 0.23444 0.23437 0.58724 0.0
C8384 C 0.25908 0.25289 0.57759 0.0
C8385 C 0.25092 0.26725 0.58615 0.0
N8386 N 0.22279 0.28118 0.59014 0.0
N8387 N 0.25889 0.22142 0.57188 0.0
C8388 C 0.23268 0.26623 0.5898 0.0
C8389 C 0.25097 0.23603 0.57864 0.0
N8390 N 0.2087 0.24815 0.59993 0.0
N8391 N 0.27366 0.25569 0.5675 0.0
H8392 H 0.25224 0.20948 0.57083 0.0
H8393 H 0.27181 0.22108 0.56736 0.0
H8394 H 0.27808 0.26833 0.56461 0.0
H8395 H 0.27997 0.24597 0.56022 0.0
H8396 H 0.20242 0.2587 0.60603 0.0
H8397 H 0.20193 0.23632 0.60116 0.0
H8398 H 0.20916 0.28124 0.59156 0.0
H8399 H 0.22808 0.29325 0.58642 0.0
C8400 C 0.1788 0.00952 0.50712 0.0
C8401 C 0.16917 0.01999 0.49514 0.0
C8402 C 0.16498 0.99455 0.47633 0.0
C8403 C 0.16982 0.98375 0.49067 0.0
N8404 N 0.18231 0.98049 0.51964 0.0
N8405 N 0.15533 0.02343 0.46691 0.0
C8406 C 0.17744 0.99103 0.50594 0.0
C8407 C 0.16318 0.01283 0.4791 0.0
N8408 N 0.18929 0.01728 0.51935 0.0
N8409 N 0.1621 0.98716 0.46024 0.0
H8410 H 0.15495 0.03709 0.46827 0.0
H8411 H 0.14879 0.01867 0.45586 0.0
H8412 H 0.16388 0.97372 0.45808 0.0
H8413 H 0.15979 0.99447 0.44889 0.0
H8414 H 0.19747 0.01027 0.52782 0.0
H8415 H 0.19155 0.03076 0.51912 0.0
H8416 H 0.186 0.98539 0.53189 0.0
H8417 H 0.18174 0.9668 0.51901 0.0
C8418 C 0.25407 0.41528 0.72721 0.0
C8419 C 0.26743 0.41986 0.73933 0.0
C8420 C 0.24533 0.4272 0.76139 0.0
C8421 C 0.23275 0.41822 0.75101 0.0
N8422 N 0.22276 0.41392 0.72131 0.0
N8423 N 0.27632 0.43251 0.76694 0.0
C8424 C 0.23634 0.41551 0.73292 0.0
C8425 C 0.2632 0.42696 0.75601 0.0
N8426 N 0.25849 0.40973 0.71068 0.0
N8427 N 0.24 0.43667 0.77565 0.0
H8428 H 0.28943 0.43317 0.7629 0.0
H8429 H 0.27431 0.43586 0.78007 0.0
H8430 H 0.22672 0.43877 0.77826 0.0
H8431 H 0.24841 0.44436 0.78325 0.0
H8432 H 0.24958 0.4041 0.70194 0.0
H8433 H 0.27137 0.41022 0.70593 0.0
H8434 H 0.22437 0.41288 0.70775 0.0
H8435 H 0.20976 0.41586 0.72522 0.0
C8436 C 0.83793 0.48758 0.98628 0.0
C8437 C 0.83211 0.4811 0.00267 0.0
C8438 C 0.83275 0.51035 0.01551 0.0
C8439 C 0.84034 0.51652 -0.00034 0.0
N8440 N 0.84461 0.51302 0.96838 0.0
N8441 N 0.81791 0.48639 0.03044 0.0
C8442 C 0.84108 0.50577 0.98445 0.0
C8443 C 0.82724 0.49261 0.01642 0.0
N8444 N 0.84139 0.47607 0.97291 0.0
N8445 N 0.8319 0.52106 0.02995 0.0
H8446 H 0.81371 0.47338 0.03123 0.0
H8447 H 0.8128 0.49437 0.04033 0.0
H8448 H 0.83593 0.53417 0.02979 0.0
H8449 H 0.82826 0.51671 0.04241 0.0
H8450 H 0.8479 0.47952 0.96136 0.0
H8451 H 0.83813 0.46275 0.97378 0.0
H8452 H 0.84376 0.50611 0.95659 0.0
H8453 H 0.84699 0.52641 0.96665 0.0
C8454 C 0.76178 0.07717 0.24397 0.0
C8455 C 0.76442 0.08608 0.26011 0.0
C8456 C 0.73288 0.08844 0.26413 0.0
C8457 C 0.73072 0.08502 0.24595 0.0
N8458 N 0.741 0.06746 0.2217 0.0
N8459 N 0.75252 0.09922 0.28655 0.0
C8460 C 0.74456 0.07658 0.23672 0.0
C8461 C 0.74999 0.09097 0.27078 0.0
N8462 N 0.77587 0.06973 0.23566 0.0
N8463 N 0.71862 0.08866 0.27499 0.0
H8464 H 0.76488 0.1011 0.29215 0.0
H8465 H 0.74233 0.1051 0.29358 0.0
H8466 H 0.70623 0.08496 0.27048 0.0
H8467 H 0.71954 0.09 0.2886 0.0
H8468 H 0.77552 0.06425 0.22315 0.0
H8469 H 0.78811 0.06872 0.2418 0.0
H8470 H 0.75035 0.06098 0.21412 0.0
H8471 H 0.72816 0.06496 0.21773 0.0
C8472 C 0.48378 0.17184 0.01375 0.0
C8473 C 0.50096 0.16562 0.01741 0.0
C8474 C 0.50749 0.16432 0.98616 0.0
C8475 C 0.48926 0.16559 0.98268 0.0
N8476 N 0.46246 0.1801 0.99133 0.0
N8477 N 0.52993 0.15739 0.00747 0.0
C8478 C 0.478 0.17238 0.99593 0.0
C8479 C 0.51318 0.16265 0.00372 0.0
N8480 N 0.47299 0.1766 0.02733 0.0
N8481 N 0.51925 0.16548 0.97266 0.0
H8482 H 0.53481 0.1568 0.02028 0.0
H8483 H 0.53861 0.1528 0.99792 0.0
H8484 H 0.51517 0.16859 0.95997 0.0
H8485 H 0.53284 0.16579 0.9744 0.0
H8486 H 0.4598 0.17992 0.02588 0.0
H8487 H 0.47734 0.17693 0.04035 0.0
H8488 H 0.45373 0.18577 0.00019 0.0
H8489 H 0.45931 0.18274 0.97827 0.0
C8490 C 0.01371 0.82344 0.51367 0.0
C8491 C 0.9963 0.82935 0.51683 0.0
C8492 C 0.99043 0.82972 0.48538 0.0
C8493 C 0.00877 0.82856 0.48242 0.0
N8494 N 0.03525 0.81413 0.49187 0.0
N8495 N 0.96722 0.83622 0.5062 0.0
C8496 C 0.01971 0.82211 0.496 0.0
C8497 C 0.98422 0.83141 0.50283 0.0
N8498 N 0.0246 0.82002 0.52754 0.0
N8499 N 0.97917 0.82892 0.47145 0.0
H8500 H 0.96213 0.8369 0.51892 0.0
H8501 H 0.95842 0.84023 0.4965 0.0
H8502 H 0.98377 0.82644 0.45876 0.0
H8503 H 0.96553 0.82868 0.47266 0.0
H8504 H 0.03799 0.81749 0.52625 0.0
H8505 H 0.02014 0.82021 0.54053 0.0
H8506 H 0.04352 0.80832 0.5011 0.0
H8507 H 0.03869 0.81137 0.47888 0.0
C8508 C 0.42422 0.23295 0.7576 0.0
C8509 C 0.41676 0.24481 0.76986 0.0
C8510 C 0.40808 0.26463 0.74628 0.0
C8511 C 0.41207 0.25109 0.73414 0.0
N8512 N 0.42549 0.22325 0.72719 0.0
N8513 N 0.40442 0.27304 0.77684 0.0
C8514 C 0.42101 0.23565 0.73943 0.0
C8515 C 0.40984 0.26119 0.76445 0.0
N8516 N 0.43399 0.21905 0.76341 0.0
N8517 N 0.40277 0.28071 0.74029 0.0
H8518 H 0.40696 0.27125 0.79021 0.0
H8519 H 0.39722 0.28435 0.7741 0.0
H8520 H 0.40193 0.28356 0.72693 0.0
H8521 H 0.40051 0.29156 0.7483 0.0
H8522 H 0.44088 0.21054 0.75521 0.0
H8523 H 0.4365 0.21694 0.77669 0.0
H8524 H 0.4304 0.21086 0.73027 0.0
H8525 H 0.4236 0.22508 0.71372 0.0
C8526 C 0.98673 0.6719 0.01305 0.0
C8527 C 0.00316 0.66384 0.01677 0.0
C8528 C 0.00958 0.66179 0.98548 0.0
C8529 C 0.99171 0.66569 0.98197 0.0
N8530 N 0.96743 0.68397 0.99062 0.0
N8531 N 0.03111 0.6524 0.00694 0.0
C8532 C 0.98144 0.67375 0.99523 0.0
C8533 C 0.015 0.65943 0.00309 0.0
N8534 N 0.97592 0.67691 0.02652 0.0
N8535 N 0.02139 0.6613 0.97197 0.0
H8536 H 0.03592 0.65133 0.01975 0.0
H8537 H 0.03934 0.64681 0.99751 0.0
H8538 H 0.01781 0.66494 0.95925 0.0
H8539 H 0.03488 0.65963 0.97368 0.0
H8540 H 0.96299 0.68103 0.02472 0.0
H8541 H 0.97968 0.67616 0.03969 0.0
H8542 H 0.95994 0.69115 -0.00044 0.0
H8543 H 0.96485 0.68713 0.97754 0.0
C8544 C 0.08623 0.73026 0.26167 0.0
C8545 C 0.08318 0.74796 0.26647 0.0
C8546 C 0.07379 0.75522 0.23661 0.0
C8547 C 0.07989 0.7385 0.23141 0.0
N8548 N 0.08938 0.70916 0.23801 0.0
N8549 N 0.07127 0.77674 0.26006 0.0
C8550 C 0.08497 0.72559 0.24377 0.0
C8551 C 0.07571 0.76023 0.25447 0.0
N8552 N 0.09005 0.71804 0.27433 0.0
N8553 N 0.06732 0.7665 0.22417 0.0
H8554 H 0.07383 0.78126 0.27271 0.0
H8555 H 0.06496 0.78612 0.25239 0.0
H8556 H 0.06558 0.76272 0.2111 0.0
H8557 H 0.06335 0.77936 0.22657 0.0
H8558 H 0.09143 0.70464 0.27193 0.0
H8559 H 0.09061 0.72113 0.28768 0.0
H8560 H 0.09545 0.69963 0.24572 0.0
H8561 H 0.08705 0.70524 0.22507 0.0
C8562 C 0.5004 0.82533 0.01197 0.0
C8563 C 0.48542 0.83623 0.01436 0.0
C8564 C 0.48297 0.83958 0.98289 0.0
C8565 C 0.50065 0.83428 0.9811 0.0
N8566 N 0.52377 0.81573 0.99226 0.0
N8567 N 0.46386 0.85605 0.00167 0.0
C8568 C 0.50866 0.82494 0.99513 0.0
C8569 C 0.47672 0.84366 -0.00029 0.0
N8570 N 0.50648 0.81552 0.02573 0.0
N8571 N 0.47248 0.84122 0.96849 0.0
H8572 H 0.46025 0.86119 0.01383 0.0
H8573 H 0.45841 0.86276 0.99102 0.0
H8574 H 0.47675 0.83693 0.95621 0.0
H8575 H 0.45916 0.84446 0.96933 0.0
H8576 H 0.51695 0.80676 0.02488 0.0
H8577 H 0.50004 0.81526 0.03785 0.0
H8578 H 0.53146 0.81029 0.00218 0.0
H8579 H 0.52814 0.8129 0.97959 0.0
C8580 C 0.57383 0.23132 0.24432 0.0
C8581 C 0.57866 0.24476 0.23241 0.0
C8582 C 0.58216 0.26563 0.25646 0.0
C8583 C 0.58119 0.25131 0.26829 0.0
N8584 N 0.57506 0.22079 0.27441 0.0
N8585 N 0.58507 0.27508 0.22615 0.0
C8586 C 0.5762 0.23429 0.26257 0.0
C8587 C 0.58169 0.26218 0.2382 0.0
N8588 N 0.56763 0.21565 0.23809 0.0
N8589 N 0.5837 0.28239 0.26278 0.0
H8590 H 0.58349 0.27301 0.21268 0.0
H8591 H 0.58971 0.28755 0.22934 0.0
H8592 H 0.58433 0.28516 0.2762 0.0
H8593 H 0.58306 0.29361 0.25497 0.0
H8594 H 0.5626 0.20573 0.24607 0.0
H8595 H 0.56605 0.21317 0.22471 0.0
H8596 H 0.57351 0.20766 0.27088 0.0
H8597 H 0.57649 0.22261 0.28793 0.0
C8598 C 0.76106 0.76596 0.92023 0.0
C8599 C 0.74376 0.76913 0.91407 0.0
C8600 C 0.73805 0.73771 0.91267 0.0
C8601 C 0.75635 0.73481 0.91454 0.0
N8602 N 0.78202 0.74419 0.93046 0.0
N8603 N 0.71465 0.75868 0.90715 0.0
C8604 C 0.76698 0.74833 0.92163 0.0
C8605 C 0.73175 0.75517 0.91146 0.0
N8606 N 0.772 0.77974 0.92387 0.0
N8607 N 0.72686 0.72369 0.9128 0.0
H8608 H 0.70948 0.7714 0.90719 0.0
H8609 H 0.70572 0.74915 0.90303 0.0
H8610 H 0.73142 0.71108 0.91557 0.0
H8611 H 0.71321 0.72469 0.91234 0.0
H8612 H 0.78539 0.77831 0.92638 0.0
H8613 H 0.76777 0.79279 0.92364 0.0
H8614 H 0.78986 0.75341 0.93688 0.0
H8615 H 0.78521 0.73122 0.93348 0.0
C8616 C 0.25077 0.76294 0.4225 0.0
C8617 C 0.23565 0.76398 0.41153 0.0
C8618 C 0.23467 0.73228 0.41034 0.0
C8619 C 0.25242 0.73146 0.4157 0.0
N8620 N 0.27541 0.74508 0.43271 0.0
N8621 N 0.21639 0.74901 0.39112 0.0
C8622 C 0.25992 0.74653 0.42379 0.0
C8623 C 0.22809 0.74848 0.40468 0.0
N8624 N 0.25618 0.77749 0.43152 0.0
N8625 N 0.22451 0.71755 0.4098 0.0
H8626 H 0.21411 0.7605 0.38405 0.0
H8627 H 0.21145 0.73765 0.3852 0.0
H8628 H 0.22899 0.70571 0.41505 0.0
H8629 H 0.21126 0.71789 0.40622 0.0
H8630 H 0.26652 0.77751 0.44049 0.0
H8631 H 0.24932 0.78937 0.43094 0.0
H8632 H 0.28267 0.75578 0.43717 0.0
H8633 H 0.28066 0.73287 0.43611 0.0
C8634 C 0.76361 0.75496 0.58779 0.0
C8635 C 0.75175 0.76866 0.58349 0.0
C8636 C 0.72956 0.74715 0.57466 0.0
C8637 C 0.73994 0.73388 0.5826 0.0
N8638 N 0.76969 0.72376 0.58642 0.0
N8639 N 0.7241 0.77843 0.57143 0.0
C8640 C 0.75795 0.73733 0.586 0.0
C8641 C 0.73503 0.76495 0.57612 0.0
N8642 N 0.77998 0.75882 0.5942 0.0
N8643 N 0.71527 0.74258 0.56483 0.0
H8644 H 0.72796 0.79159 0.57187 0.0
H8645 H 0.71097 0.77665 0.56795 0.0
H8646 H 0.71252 0.72951 0.56182 0.0
H8647 H 0.70774 0.75152 0.5577 0.0
H8648 H 0.78829 0.74948 0.59979 0.0
H8649 H 0.78497 0.7716 0.59469 0.0
H8650 H 0.78322 0.7254 0.58778 0.0
H8651 H 0.76599 0.71103 0.58296 0.0
C8652 C 0.26221 0.73512 0.0705 0.0
C8653 C 0.24564 0.73067 0.07778 0.0
C8654 C 0.23844 0.76173 0.08124 0.0
C8655 C 0.2564 0.7657 0.07826 0.0
N8656 N 0.28123 0.75858 0.06005 0.0
N8657 N 0.21675 0.73925 0.0877 0.0
C8658 C 0.26708 0.75313 0.06965 0.0
C8659 C 0.2332 0.74388 0.08207 0.0
N8660 N 0.27359 0.72217 0.06547 0.0
N8661 N 0.22649 0.77507 0.08252 0.0
H8662 H 0.2122 0.7263 0.08736 0.0
H8663 H 0.20785 0.74806 0.09324 0.0
H8664 H 0.23006 0.7881 0.08015 0.0
H8665 H 0.21299 0.77316 0.08377 0.0
H8666 H 0.28663 0.72451 0.06198 0.0
H8667 H 0.27013 0.70888 0.06554 0.0
H8668 H 0.289 0.75018 0.05253 0.0
H8669 H 0.28362 0.77189 0.05779 0.0
C8670 C 0.1654 0.48702 0.01467 0.0
C8671 C 0.16923 0.48122 0.99738 0.0
C8672 C 0.17323 0.51145 0.98735 0.0
C8673 C 0.16776 0.51717 0.00418 0.0
N8674 N 0.16344 0.51152 0.03505 0.0
N8675 N 0.18126 0.48686 0.9686 0.0
C8676 C 0.16555 0.50526 0.0183 0.0
C8677 C 0.17489 0.49313 0.9842 0.0
N8678 N 0.1608 0.47503 0.02726 0.0
N8679 N 0.17581 0.5235 0.97425 0.0
H8680 H 0.18223 0.47348 0.96584 0.0
H8681 H 0.18682 0.49475 0.95889 0.0
H8682 H 0.17521 0.53703 0.97646 0.0
H8683 H 0.17792 0.52023 0.96113 0.0
H8684 H 0.15559 0.47834 0.03947 0.0
H8685 H 0.16183 0.46151 0.02519 0.0
H8686 H 0.16293 0.50359 0.04618 0.0
H8687 H 0.16359 0.52493 0.03801 0.0
C8688 C 0.26087 0.92587 0.25528 0.0
C8689 C 0.26513 0.91646 0.23973 0.0
C8690 C 0.23409 0.91316 0.23282 0.0
C8691 C 0.23025 0.91798 0.25035 0.0
N8692 N 0.23754 0.93818 0.27342 0.0
N8693 N 0.25626 0.9027 0.21253 0.0
C8694 C 0.24291 0.92739 0.26013 0.0
C8695 C 0.25186 0.91092 0.2279 0.0
N8696 N 0.27394 0.93239 0.26574 0.0
N8697 N 0.22073 0.91121 0.221 0.0
H8698 H 0.26925 0.90131 0.20835 0.0
H8699 H 0.24713 0.89649 0.20442 0.0
H8700 H 0.20774 0.91414 0.22436 0.0
H8701 H 0.2227 0.90874 0.20767 0.0
H8702 H 0.27178 0.93766 0.27819 0.0
H8703 H 0.28717 0.93197 0.26213 0.0
H8704 H 0.24595 0.94623 0.28061 0.0
H8705 H 0.22421 0.94053 0.2757 0.0
C8706 C 0.82683 0.00638 0.48644 0.0
C8707 C 0.83213 0.01866 0.49949 0.0
C8708 C 0.8361 0.99517 0.52097 0.0
C8709 C 0.83356 0.98293 0.50719 0.0
N8710 N 0.82477 0.97566 0.47772 0.0
N8711 N 0.84 0.02573 0.52935 0.0
C8712 C 0.82794 0.98817 0.49028 0.0
C8713 C 0.83593 0.01334 0.51694 0.0
N8714 N 0.82152 0.01214 0.47024 0.0
N8715 N 0.83877 0.98923 0.53776 0.0
H8716 H 0.83879 0.0392 0.52698 0.0
H8717 H 0.84486 0.02287 0.54181 0.0
H8718 H 0.83878 0.97588 0.54097 0.0
H8719 H 0.83983 0.99732 0.54873 0.0
H8720 H 0.81606 0.00412 0.4606 0.0
H8721 H 0.82185 0.02527 0.46646 0.0
H8722 H 0.82231 0.97833 0.46454 0.0
H8723 H 0.8249 0.96222 0.48049 0.0
C8724 C 0.74591 0.5859 0.73177 0.0
C8725 C 0.73312 0.58053 0.74425 0.0
C8726 C 0.75623 0.57234 0.76478 0.0
C8727 C 0.76824 0.58207 0.75441 0.0
N8728 N 0.77691 0.58792 0.72454 0.0
N8729 N 0.72562 0.56649 0.77164 0.0
C8730 C 0.76387 0.58571 0.73668 0.0
C8731 C 0.73814 0.5727 0.76033 0.0
N8732 N 0.74073 0.59184 0.71562 0.0
N8733 N 0.76236 0.56196 0.77801 0.0
H8734 H 0.71229 0.56611 0.76836 0.0
H8735 H 0.72838 0.56245 0.78443 0.0
H8736 H 0.77581 0.55987 0.77954 0.0
H8737 H 0.75446 0.55366 0.78551 0.0
H8738 H 0.74909 0.59813 0.70678 0.0
H8739 H 0.72774 0.5909 0.71127 0.0
H8740 H 0.77468 0.5897 0.71115 0.0
H8741 H 0.79009 0.5857 0.72764 0.0
C8742 C 0.48058 0.66158 0.49996 0.0
C8743 C 0.49036 0.66438 0.48432 0.0
C8744 C 0.51607 0.67328 0.50188 0.0
C8745 C 0.50687 0.66774 0.51709 0.0
N8746 N 0.47848 0.66856 0.53084 0.0
N8747 N 0.51543 0.67749 0.47007 0.0
C8748 C 0.48841 0.66597 0.51617 0.0
C8749 C 0.50755 0.67183 0.48518 0.0
N8750 N 0.46458 0.65336 0.4997 0.0
N8751 N 0.53243 0.68048 0.5036 0.0
H8752 H 0.50874 0.67781 0.45811 0.0
H8753 H 0.52808 0.68264 0.46934 0.0
H8754 H 0.53739 0.68422 0.51583 0.0
H8755 H 0.54055 0.68393 0.49316 0.0
H8756 H 0.45812 0.64946 0.51115 0.0
H8757 H 0.45848 0.64889 0.4883 0.0
H8758 H 0.46476 0.66835 0.53076 0.0
H8759 H 0.48416 0.67341 0.54233 0.0
C8760 C 0.98089 0.33632 0.00226 0.0
C8761 C 0.99237 0.33056 0.01575 0.0
C8762 C 0.01414 0.32183 0.99373 0.0
C8763 C 0.0041 0.33096 0.98101 0.0
N8764 N 0.97443 0.33585 0.97116 0.0
N8765 N 0.01895 0.31578 0.02475 0.0
C8766 C 0.98625 0.33466 0.98461 0.0
C8767 C 0.00857 0.32226 0.0116 0.0
N8768 N 0.96531 0.34423 0.00636 0.0
N8769 N 0.0282 0.31201 0.98848 0.0
H8770 H 0.01488 0.31544 0.03785 0.0
H8771 H 0.03175 0.31132 0.02285 0.0
H8772 H 0.0309 0.31001 0.97519 0.0
H8773 H 0.03566 0.30418 0.99686 0.0
H8774 H 0.95751 0.35073 0.99715 0.0
H8775 H 0.96083 0.34518 0.01925 0.0
H8776 H 0.96095 0.33743 0.97309 0.0
H8777 H 0.97797 0.33294 0.95823 0.0
C8778 C 0.42165 0.76864 0.24435 0.0
C8779 C 0.41607 0.75555 0.23235 0.0
C8780 C 0.41034 0.73529 0.25659 0.0
C8781 C 0.41243 0.7495 0.2685 0.0
N8782 N 0.41955 0.77998 0.27402 0.0
N8783 N 0.40616 0.72608 0.22638 0.0
C8784 C 0.41839 0.76616 0.26256 0.0
C8785 C 0.41098 0.73865 0.23829 0.0
N8786 N 0.42957 0.7836 0.23831 0.0
N8787 N 0.40796 0.7186 0.26284 0.0
H8788 H 0.40782 0.72775 0.21286 0.0
H8789 H 0.39995 0.71436 0.22979 0.0
H8790 H 0.4075 0.71573 0.27623 0.0
H8791 H 0.408 0.70744 0.25492 0.0
H8792 H 0.43554 0.79282 0.2465 0.0
H8793 H 0.43165 0.78603 0.22501 0.0
H8794 H 0.4218 0.7929 0.27009 0.0
H8795 H 0.41696 0.77888 0.28743 0.0
C8796 C 0.01167 0.1728 0.48381 0.0
C8797 C 0.9949 0.16505 0.48103 0.0
C8798 C 0.9902 0.16327 0.51258 0.0
C8799 C 0.00838 0.16646 0.51509 0.0
N8800 N 0.03289 0.18374 0.50515 0.0
N8801 N 0.96739 0.15401 0.49247 0.0
C8802 C 0.01816 0.17424 0.50131 0.0
C8803 C 0.98375 0.16093 0.49534 0.0
N8804 N 0.02159 0.17794 0.46973 0.0
N8805 N 0.97916 0.16324 0.5267 0.0
H8806 H 0.96191 0.15282 0.47994 0.0
H8807 H 0.95966 0.14861 0.50242 0.0
H8808 H 0.98362 0.16688 0.53912 0.0
H8809 H 0.96554 0.16203 0.52574 0.0
H8810 H 0.03465 0.1819 0.47066 0.0
H8811 H 0.0168 0.17767 0.45688 0.0
H8812 H 0.04023 0.19058 0.49585 0.0
H8813 H 0.03642 0.18663 0.51809 0.0
C8814 C 0.07552 0.24169 0.74144 0.0
C8815 C 0.08366 0.25325 0.72936 0.0
C8816 C 0.09281 0.27252 0.75332 0.0
C8817 C 0.08814 0.25897 0.76523 0.0
N8818 N 0.07471 0.23087 0.77136 0.0
N8819 N 0.09758 0.28088 0.72287 0.0
C8820 C 0.07904 0.24375 0.75958 0.0
C8821 C 0.09133 0.26923 0.73505 0.0
N8822 N 0.06457 0.22879 0.7355 0.0
N8823 N 0.09849 0.28842 0.75958 0.0
H8824 H 0.09545 0.27918 0.70941 0.0
H8825 H 0.10517 0.29186 0.72593 0.0
H8826 H 0.09946 0.29119 0.77299 0.0
H8827 H 0.10099 0.2993 0.75168 0.0
H8828 H 0.05716 0.2207 0.74369 0.0
H8829 H 0.06139 0.22757 0.72227 0.0
H8830 H 0.06993 0.21857 0.76772 0.0
H8831 H 0.07692 0.23203 0.78485 0.0
C8832 C 0.47837 0.3397 0.49771 0.0
C8833 C 0.48842 0.33521 0.5128 0.0
C8834 C 0.51256 0.32506 0.49394 0.0
C8835 C 0.5037 0.33274 0.4795 0.0
N8836 N 0.47521 0.3361 0.46632 0.0
N8837 N 0.51354 0.32083 0.52567 0.0
C8838 C 0.48553 0.33626 0.48097 0.0
C8839 C 0.50498 0.32671 0.51101 0.0
N8840 N 0.46289 0.34874 0.49916 0.0
N8841 N 0.52748 0.31548 0.4911 0.0
H8842 H 0.50759 0.32076 0.53803 0.0
H8843 H 0.52642 0.3162 0.52572 0.0
H8844 H 0.53168 0.31232 0.47844 0.0
H8845 H 0.53448 0.30901 0.5009 0.0
H8846 H 0.45638 0.35409 0.48835 0.0
H8847 H 0.45723 0.35228 0.5111 0.0
H8848 H 0.46157 0.33746 0.4667 0.0
H8849 H 0.48025 0.33218 0.45419 0.0
C8850 C 0.59313 0.73324 0.75844 0.0
C8851 C 0.59171 0.75085 0.76422 0.0
C8852 C 0.58187 0.76059 0.73532 0.0
C8853 C 0.58593 0.74362 0.72906 0.0
N8854 N 0.59277 0.71313 0.73369 0.0
N8855 N 0.58369 0.78124 0.75958 0.0
C8856 C 0.59047 0.72963 0.74044 0.0
C8857 C 0.5854 0.7645 0.75315 0.0
N8858 N 0.59693 0.72015 0.77022 0.0
N8859 N 0.57514 0.77285 0.724 0.0
H8860 H 0.5867 0.7846 0.77252 0.0
H8861 H 0.57993 0.79207 0.75214 0.0
H8862 H 0.57249 0.76998 0.71084 0.0
H8863 H 0.57116 0.78541 0.72764 0.0
H8864 H 0.59721 0.70683 0.76717 0.0
H8865 H 0.59903 0.72251 0.78356 0.0
H8866 H 0.59786 0.70255 0.74069 0.0
H8867 H 0.58957 0.71007 0.7207 0.0
C8868 C 0.48785 0.51309 0.67542 0.0
C8869 C 0.48299 0.4966 0.66824 0.0
C8870 C 0.51379 0.48816 0.66577 0.0
C8871 C 0.51834 0.50598 0.66854 0.0
N8872 N 0.51176 0.53144 0.68604 0.0
N8873 N 0.49073 0.46737 0.65866 0.0
C8874 C 0.506 0.51733 0.6766 0.0
C8875 C 0.4958 0.48363 0.66443 0.0
N8876 N 0.47517 0.52489 0.68018 0.0
N8877 N 0.52669 0.4757 0.6651 0.0
H8878 H 0.47759 0.4634 0.65845 0.0
H8879 H 0.4994 0.45813 0.65346 0.0
H8880 H 0.53979 0.47884 0.66767 0.0
H8881 H 0.52427 0.46226 0.66413 0.0
H8882 H 0.47784 0.53786 0.68367 0.0
H8883 H 0.46179 0.52181 0.67995 0.0
H8884 H 0.5035 0.53977 0.69311 0.0
H8885 H 0.52509 0.53331 0.68867 0.0
C8886 C 0.49524 0.98365 0.16779 0.0
C8887 C 0.48163 0.99585 0.17122 0.0
C8888 C 0.50333 0.01834 0.17865 0.0
C8889 C 0.51634 0.00764 0.17073 0.0
N8890 N 0.52657 0.97783 0.16804 0.0
N8891 N 0.47208 0.02396 0.18227 0.0
C8892 C 0.51291 0.98945 0.16855 0.0
C8893 C 0.48548 0.01285 0.17781 0.0
N8894 N 0.49114 0.96681 0.16306 0.0
N8895 N 0.5082 0.03306 0.18768 0.0
H8896 H 0.45894 0.01997 0.18229 0.0
H8897 H 0.47393 0.03719 0.18529 0.0
H8898 H 0.52139 0.03594 0.19013 0.0
H8899 H 0.49944 0.04091 0.19468 0.0
H8900 H 0.5002 0.95789 0.158 0.0
H8901 H 0.47831 0.96198 0.16385 0.0
H8902 H 0.52506 0.96424 0.16733 0.0
H8903 H 0.53942 0.98186 0.17055 0.0
C8904 C 0.49619 0.51563 0.33048 0.0
C8905 C 0.48278 0.50296 0.32808 0.0
C8906 C 0.50468 0.48067 0.3209 0.0
C8907 C 0.51763 0.49189 0.32813 0.0
N8908 N 0.5275 0.52187 0.32975 0.0
N8909 N 0.47351 0.47421 0.31852 0.0
C8910 C 0.51396 0.51009 0.32968 0.0
C8911 C 0.48677 0.48579 0.3221 0.0
N8912 N 0.49182 0.53264 0.33429 0.0
N8913 N 0.50961 0.46577 0.31222 0.0
H8914 H 0.46028 0.47789 0.31871 0.0
H8915 H 0.47558 0.4609 0.31604 0.0
H8916 H 0.52279 0.46313 0.30948 0.0
H8917 H 0.50083 0.45751 0.30573 0.0
H8918 H 0.50082 0.54215 0.33828 0.0
H8919 H 0.47885 0.53714 0.33379 0.0
H8920 H 0.52589 0.53546 0.33011 0.0
H8921 H 0.54042 0.51789 0.32744 0.0
C8922 C 0.50008 0.97892 0.84182 0.0
C8923 C 0.51476 0.98791 0.8347 0.0
C8924 C 0.49514 0.01038 0.82237 0.0
C8925 C 0.48105 0.00225 0.83152 0.0
N8926 N 0.46893 0.97396 0.83891 0.0
N8927 N 0.52619 0.00915 0.8142 0.0
C8928 C 0.48314 0.98477 0.83738 0.0
C8929 C 0.51226 0.0027 0.82355 0.0
N8930 N 0.5021 0.96601 0.85415 0.0
N8931 N 0.49201 0.02497 0.81242 0.0
H8932 H 0.53851 0.0031 0.81441 0.0
H8933 H 0.52543 0.01964 0.80546 0.0
H8934 H 0.47927 0.02882 0.80915 0.0
H8935 H 0.50177 0.0327 0.80675 0.0
H8936 H 0.49146 0.96036 0.86073 0.0
H8937 H 0.51427 0.96245 0.85931 0.0
H8938 H 0.47001 0.96072 0.84237 0.0
H8939 H 0.45658 0.97782 0.83439 0.0
C8940 C 0.67002 0.99517 0.98128 0.0
C8941 C 0.66657 0.98328 0.99521 0.0
C8942 C 0.66644 0.00719 0.01653 0.0
C8943 C 0.66668 0.01913 0.00227 0.0
N8944 N 0.66964 0.02556 0.97144 0.0
N8945 N 0.66253 0.97701 0.02601 0.0
C8946 C 0.66914 0.01346 0.98474 0.0
C8947 C 0.66541 0.98898 0.0129 0.0
N8948 N 0.67362 0.98893 0.9648 0.0
N8949 N 0.66696 0.01339 0.03342 0.0
H8950 H 0.66275 0.96346 0.02382 0.0
H8951 H 0.65935 0.98037 0.03889 0.0
H8952 H 0.66759 0.02678 0.03639 0.0
H8953 H 0.66814 0.0054 0.04447 0.0
H8954 H 0.67762 0.99681 0.95435 0.0
H8955 H 0.6738 0.97556 0.96177 0.0
H8956 H 0.66938 0.02235 0.95814 0.0
H8957 H 0.6697 0.03909 0.97378 0.0
C8958 C 0.73595 0.42407 0.23599 0.0
C8959 C 0.73203 0.41619 0.25238 0.0
C8960 C 0.76323 0.4125 0.25859 0.0
C8961 C 0.76672 0.41633 0.2407 0.0
N8962 N 0.75872 0.43573 0.21701 0.0
N8963 N 0.74137 0.40529 0.28066 0.0
C8964 C 0.75379 0.42529 0.23072 0.0
C8965 C 0.74555 0.41143 0.26428 0.0
N8966 N 0.72267 0.42944 0.22514 0.0
N8967 N 0.77686 0.41087 0.27015 0.0
H8968 H 0.72856 0.40555 0.28562 0.0
H8969 H 0.7504 0.39944 0.28912 0.0
H8970 H 0.78974 0.41365 0.2664 0.0
H8971 H 0.77533 0.40902 0.28362 0.0
H8972 H 0.72465 0.43335 0.21217 0.0
H8973 H 0.70947 0.42917 0.22891 0.0
H8974 H 0.75003 0.44355 0.20989 0.0
H8975 H 0.7719 0.43845 0.21453 0.0
C8976 C 0.33463 0.48694 0.4843 0.0
C8977 C 0.32965 0.48204 0.50159 0.0
C8978 C 0.32636 0.51281 0.51007 0.0
C8979 C 0.33312 0.51759 0.4934 0.0
N8980 N 0.33912 0.51044 0.46312 0.0
N8981 N 0.31605 0.48942 0.52924 0.0
C8982 C 0.33567 0.505 0.47994 0.0
C8983 C 0.32371 0.49472 0.51387 0.0
N8984 N 0.33906 0.47421 0.47241 0.0
N8985 N 0.32346 0.52549 0.5225 0.0
H8986 H 0.31419 0.47623 0.53243 0.0
H8987 H 0.31022 0.49794 0.53822 0.0
H8988 H 0.32481 0.53889 0.51985 0.0
H8989 H 0.32041 0.52287 0.53557 0.0
H8990 H 0.34506 0.47667 0.46035 0.0
H8991 H 0.33698 0.46088 0.47491 0.0
H8992 H 0.33995 0.50203 0.45237 0.0
H8993 H 0.33988 0.52369 0.45961 0.0
C8994 C 0.235 0.0767 0.75707 0.0
C8995 C 0.23306 0.08454 0.74021 0.0
C8996 C 0.26475 0.08503 0.73686 0.0
C8997 C 0.26644 0.08296 0.75523 0.0
N8998 N 0.25486 0.06848 0.78086 0.0
N8999 N 0.24656 0.09676 0.71391 0.0
C9000 C 0.25204 0.07609 0.76486 0.0
C9001 C 0.24802 0.08842 0.72978 0.0
N9002 N 0.22051 0.07008 0.76541 0.0
N9003 N 0.27914 0.08356 0.72629 0.0
H9004 H 0.23465 0.10032 0.70819 0.0
H9005 H 0.25744 0.10156 0.70707 0.0
H9006 H 0.29116 0.07941 0.73136 0.0
H9007 H 0.27847 0.08396 0.71259 0.0
H9008 H 0.22052 0.06479 0.77801 0.0
H9009 H 0.20832 0.06928 0.75918 0.0
H9010 H 0.24501 0.0638 0.7891 0.0
H9011 H 0.26747 0.06558 0.78532 0.0
C9012 C 0.91785 0.2668 0.2636 0.0
C9013 C 0.92328 0.24968 0.26861 0.0
C9014 C 0.93049 0.24238 0.2382 0.0
C9015 C 0.92317 0.25867 0.2331 0.0
N9016 N 0.91535 0.2884 0.2402 0.0
N9017 N 0.94013 0.22362 0.26209 0.0
C9018 C 0.91879 0.27163 0.24566 0.0
C9019 C 0.93161 0.23834 0.25637 0.0
N9020 N 0.91118 0.27803 0.27594 0.0
N9021 N 0.9352 0.23042 0.22564 0.0
H9022 H 0.94098 0.22032 0.27533 0.0
H9023 H 0.94769 0.21557 0.25399 0.0
H9024 H 0.93503 0.23339 0.21224 0.0
H9025 H 0.93862 0.21744 0.22836 0.0
H9026 H 0.90486 0.2898 0.27296 0.0
H9027 H 0.91167 0.27526 0.28936 0.0
H9028 H 0.91294 0.29889 0.24865 0.0
H9029 H 0.91648 0.29208 0.22702 0.0
C9030 C 0.67291 0.5032 0.51497 0.0
C9031 C 0.6638 0.51592 0.50486 0.0
C9032 C 0.65755 0.49396 0.48232 0.0
C9033 C 0.66289 0.48079 0.49438 0.0
N9034 N 0.6768 0.4723 0.52161 0.0
N9035 N 0.65722 0.52502 0.47529 0.0
C9036 C 0.6713 0.48522 0.51039 0.0
C9037 C 0.65909 0.51182 0.4873 0.0
N9038 N 0.68394 0.50843 0.52809 0.0
N9039 N 0.65051 0.48933 0.46642 0.0
H9040 H 0.66041 0.53799 0.47835 0.0
H9041 H 0.6548 0.52298 0.46197 0.0
H9042 H 0.6504 0.47639 0.46183 0.0
H9043 H 0.64418 0.49815 0.45808 0.0
H9044 H 0.69194 0.49988 0.53518 0.0
H9045 H 0.68697 0.52162 0.53002 0.0
H9046 H 0.68103 0.47474 0.5344 0.0
H9047 H 0.67619 0.45896 0.51846 0.0
C9048 C 0.73633 0.92294 0.73962 0.0
C9049 C 0.73177 0.91438 0.75554 0.0
C9050 C 0.76276 0.91008 0.76249 0.0
C9051 C 0.76667 0.91419 0.74477 0.0
N9052 N 0.76006 0.9346 0.72172 0.0
N9053 N 0.74018 0.90253 0.78374 0.0
C9054 C 0.75432 0.92388 0.73488 0.0
C9055 C 0.74489 0.90908 0.76767 0.0
N9056 N 0.72351 0.92914 0.72867 0.0
N9057 N 0.7761 0.90815 0.77435 0.0
H9058 H 0.7272 0.90262 0.78825 0.0
H9059 H 0.74898 0.89653 0.79234 0.0
H9060 H 0.78913 0.91081 0.77097 0.0
H9061 H 0.77417 0.90609 0.78774 0.0
H9062 H 0.72601 0.93373 0.71601 0.0
H9063 H 0.7102 0.92897 0.73199 0.0
H9064 H 0.75189 0.94295 0.71458 0.0
H9065 H 0.77347 0.93675 0.71978 0.0
C9066 C 0.32999 0.9933 0.01653 0.0
C9067 C 0.33314 0.98085 0.00303 0.0
C9068 C 0.33018 0.0036 0.9806 0.0
C9069 C 0.33036 0.01631 0.99417 0.0
N9070 N 0.32919 0.02412 0.02478 0.0
N9071 N 0.33548 0.97321 0.97237 0.0
C9072 C 0.32951 0.01139 0.0121 0.0
C9073 C 0.33269 0.98567 0.98505 0.0
N9074 N 0.32776 0.98778 0.03352 0.0
N9075 N 0.32802 0.00882 0.96352 0.0
H9076 H 0.33664 0.95985 0.97526 0.0
H9077 H 0.33735 0.97608 0.95912 0.0
H9078 H 0.32628 0.02197 0.96 0.0
H9079 H 0.32651 0.00019 0.95302 0.0
H9080 H 0.32394 0.996 0.04376 0.0
H9081 H 0.32855 0.97459 0.03723 0.0
H9082 H 0.33081 0.02167 0.03815 0.0
H9083 H 0.32778 0.03744 0.02175 0.0
C9084 C 0.24023 0.57224 0.25995 0.0
C9085 C 0.23647 0.58084 0.24386 0.0
C9086 C 0.26766 0.5834 0.2374 0.0
C9087 C 0.27112 0.57918 0.25516 0.0
N9088 N 0.26282 0.56001 0.27889 0.0
N9089 N 0.24602 0.59287 0.21608 0.0
C9090 C 0.25805 0.57049 0.26515 0.0
C9091 C 0.25003 0.58554 0.232 0.0
N9092 N 0.22681 0.56669 0.27054 0.0
N9093 N 0.28127 0.58476 0.22578 0.0
H9094 H 0.23314 0.5939 0.21145 0.0
H9095 H 0.25533 0.59861 0.20783 0.0
H9096 H 0.29409 0.58162 0.22948 0.0
H9097 H 0.27965 0.58679 0.21234 0.0
H9098 H 0.22863 0.56219 0.28334 0.0
H9099 H 0.21365 0.56723 0.26668 0.0
H9100 H 0.254 0.55244 0.28615 0.0
H9101 H 0.27596 0.55714 0.28147 0.0
C9102 C 0.92445 0.73696 0.75803 0.0
C9103 C 0.91375 0.74609 0.77011 0.0
C9104 C 0.90796 0.76865 0.7482 0.0
C9105 C 0.91337 0.75634 0.73537 0.0
N9106 N 0.92988 0.73044 0.72739 0.0
N9107 N 0.90389 0.77472 0.77931 0.0
C9108 C 0.923 0.74116 0.74004 0.0
C9109 C 0.90832 0.76346 0.76607 0.0
N9110 N 0.93643 0.72508 0.76397 0.0
N9111 N 0.90233 0.78493 0.74307 0.0
H9112 H 0.90637 0.77158 0.7924 0.0
H9113 H 0.89906 0.78739 0.77752 0.0
H9114 H 0.90272 0.78899 0.72996 0.0
H9115 H 0.89777 0.79459 0.75161 0.0
H9116 H 0.94543 0.71864 0.75589 0.0
H9117 H 0.93884 0.72387 0.77738 0.0
H9118 H 0.93533 0.71817 0.73013 0.0
H9119 H 0.92953 0.73361 0.71405 0.0
loop_
_geom_bond_atom_site_label_1
_geom_bond_atom_site_label_2
_geom_bond_distance
_geom_bond_site_symmetry_2
_ccdc_geom_bond_type
Co0 O2 2.143 . S
Co0 O8 2.074 . S
Co0 O11 2.093 . S
Co0 O24 2.097 . S
Co0 N41 2.151 . S
Co0 N49 2.214 . S
Co1 O2 2.160 . S
Co1 O7 2.058 . S
Co1 O17 2.057 . S
Co1 O32 2.037 . S
Co1 N36 2.145 . S
Co1 N57 2.257 . S
O2 Co0 2.143 . S
O2 Co1 2.160 . S
C3 O4 1.278 . S
C3 O11 1.224 . S
O4 C3 1.278 . S
C5 O6 1.245 . S
C5 O17 1.232 . S
O6 C5 1.245 . S
O7 Co1 2.058 . S
O7 C33 1.269 . S
O8 Co0 2.074 . S
O8 C33 1.257 . S
H9 C34 0.930 . S
H10 C40 0.930 . S
O11 Co0 2.093 . S
O11 C3 1.224 . S
H12 C44 0.929 . S
H13 C46 0.930 . S
H14 C47 0.930 . S
H15 C45 0.929 . S
H16 C48 0.928 . S
O17 Co1 2.057 . S
O17 C5 1.232 . S
H18 C37 0.929 . S
H19 C38 0.929 . S
H20 C50 0.931 . S
H21 C42 0.929 . S
H22 C51 0.930 . S
H23 C43 0.931 . S
O24 Co0 2.097 . S
O24 C52 1.214 . S
H25 C53 0.929 . S
H26 C54 0.929 . S
H27 C55 0.930 . S
H28 C56 0.929 . S
H29 C58 0.930 . S
H30 C35 0.930 . S
H31 C39 0.930 . S
O32 Co1 2.037 . S
O32 C52 1.234 . S
C33 O7 1.269 . S
C33 O8 1.257 . S
C34 H9 0.930 . S
C34 C37 1.388 . S
C34 C39 1.418 . S
C35 H30 0.930 . S
C35 C38 1.404 . S
C35 C39 1.353 . S
N36 Co1 2.145 . S
N36 C37 1.397 . S
N36 C38 1.334 . S
C37 H18 0.929 . S
C37 C34 1.388 . S
C37 N36 1.397 . S
C38 H19 0.929 . S
C38 C35 1.404 . S
C38 N36 1.334 . S
C39 H31 0.930 . S
C39 C34 1.418 . S
C39 C35 1.353 . S
C40 H10 0.930 . S
C40 N41 1.330 . S
C40 C42 1.446 . S
N41 Co0 2.151 . S
N41 C40 1.330 . S
N41 C45 1.418 . S
C42 H21 0.929 . S
C42 C40 1.446 . S
C42 C43 1.332 . S
C43 H23 0.931 . S
C43 C42 1.332 . S
C43 C44 1.267 . S
C44 H12 0.929 . S
C44 C43 1.267 . S
C44 C45 1.251 . S
C45 H15 0.929 . S
C45 N41 1.418 . S
C45 C44 1.251 . S
C46 H13 0.930 . S
C46 C48 1.406 . S
C46 C51 1.261 . S
C47 H14 0.930 . S
C47 N49 1.325 . S
C47 C50 1.357 . S
C48 H16 0.928 . S
C48 C46 1.406 . S
C48 N49 1.261 . S
N49 Co0 2.214 . S
N49 C47 1.325 . S
N49 C48 1.261 . S
C50 H20 0.931 . S
C50 C47 1.357 . S
C50 C51 1.312 . S
C51 H22 0.930 . S
C51 C46 1.261 . S
C51 C50 1.312 . S
C52 O24 1.214 . S
C52 O32 1.234 . S
C53 H25 0.929 . S
C53 C56 1.391 . S
C53 C58 1.391 . S
C54 H26 0.929 . S
C54 C55 1.390 . S
C54 N57 1.391 . S
C55 H27 0.930 . S
C55 C54 1.390 . S
C55 C56 1.392 . S
C56 H28 0.929 . S
C56 C53 1.391 . S
C56 C55 1.392 . S
N57 Co1 2.257 . S
N57 C54 1.391 . S
N57 C58 1.388 . S
C58 H29 0.930 . S
C58 C53 1.391 . S
C58 N57 1.388 . S
Co59 O61 2.143 . S
Co59 O67 2.074 . S
Co59 O70 2.093 . S
Co59 O83 2.097 . S
Co59 N100 2.151 . S
Co59 N108 2.214 . S
Co60 O61 2.160 . S
Co60 O66 2.058 . S
Co60 O76 2.057 . S
Co60 O91 2.037 . S
Co60 N95 2.145 . S
Co60 N116 2.257 . S
O61 Co59 2.143 . S
O61 Co60 2.160 . S
C62 O63 1.278 . S
C62 O70 1.224 . S
O63 C62 1.278 . S
C64 O65 1.245 . S
C64 O76 1.232 . S
O65 C64 1.245 . S
O66 Co60 2.058 . S
O66 C92 1.269 . S
O67 Co59 2.074 . S
O67 C92 1.257 . S
H68 C93 0.930 . S
H69 C99 0.930 . S
O70 Co59 2.093 . S
O70 C62 1.224 . S
H71 C103 0.929 . S
H72 C105 0.930 . S
H73 C106 0.930 . S
H74 C104 0.929 . S
H75 C107 0.928 . S
O76 Co60 2.057 . S
O76 C64 1.232 . S
H77 C96 0.929 . S
H78 C97 0.929 . S
H79 C109 0.931 . S
H80 C101 0.929 . S
H81 C110 0.930 . S
H82 C102 0.931 . S
O83 Co59 2.097 . S
O83 C111 1.214 . S
H84 C112 0.929 . S
H85 C113 0.929 . S
H86 C114 0.930 . S
H87 C115 0.929 . S
H88 C117 0.930 . S
H89 C94 0.930 . S
H90 C98 0.930 . S
O91 Co60 2.037 . S
O91 C111 1.234 . S
C92 O66 1.269 . S
C92 O67 1.257 . S
C93 H68 0.930 . S
C93 C96 1.388 . S
C93 C98 1.418 . S
C94 H89 0.930 . S
C94 C97 1.404 . S
C94 C98 1.353 . S
N95 Co60 2.145 . S
N95 C96 1.397 . S
N95 C97 1.334 . S
C96 H77 0.929 . S
C96 C93 1.388 . S
C96 N95 1.397 . S
C97 H78 0.929 . S
C97 C94 1.404 . S
C97 N95 1.334 . S
C98 H90 0.930 . S
C98 C93 1.418 . S
C98 C94 1.353 . S
C99 H69 0.930 . S
C99 N100 1.330 . S
C99 C101 1.446 . S
N100 Co59 2.151 . S
N100 C99 1.330 . S
N100 C104 1.418 . S
C101 H80 0.929 . S
C101 C99 1.446 . S
C101 C102 1.332 . S
C102 H82 0.931 . S
C102 C101 1.332 . S
C102 C103 1.267 . S
C103 H71 0.929 . S
C103 C102 1.267 . S
C103 C104 1.251 . S
C104 H74 0.929 . S
C104 N100 1.418 . S
C104 C103 1.251 . S
C105 H72 0.930 . S
C105 C107 1.406 . S
C105 C110 1.261 . S
C106 H73 0.930 . S
C106 N108 1.325 . S
C106 C109 1.357 . S
C107 H75 0.928 . S
C107 C105 1.406 . S
C107 N108 1.261 . S
N108 Co59 2.214 . S
N108 C106 1.325 . S
N108 C107 1.261 . S
C109 H79 0.931 . S
C109 C106 1.357 . S
C109 C110 1.312 . S
C110 H81 0.930 . S
C110 C105 1.261 . S
C110 C109 1.312 . S
C111 O83 1.214 . S
C111 O91 1.234 . S
C112 H84 0.929 . S
C112 C115 1.391 . S
C112 C117 1.391 . S
C113 H85 0.929 . S
C113 C114 1.390 . S
C113 N116 1.391 . S
C114 H86 0.930 . S
C114 C113 1.390 . S
C114 C115 1.392 . S
C115 H87 0.929 . S
C115 C112 1.391 . S
C115 C114 1.392 . S
N116 Co60 2.257 . S
N116 C113 1.391 . S
N116 C117 1.388 . S
C117 H88 0.930 . S
C117 C112 1.391 . S
C117 N116 1.388 . S
Co118 O120 2.143 . S
Co118 O126 2.074 . S
Co118 O129 2.093 . S
Co118 O142 2.097 . S
Co118 N159 2.151 . S
Co118 N167 2.214 . S
Co119 O120 2.160 . S
Co119 O125 2.058 . S
Co119 O135 2.057 1_565 S
Co119 O150 2.037 . S
Co119 N154 2.145 1_565 S
Co119 N175 2.257 1_565 S
O120 Co118 2.143 . S
O120 Co119 2.160 . S
C121 O122 1.278 . S
C121 O129 1.224 . S
O122 C121 1.278 . S
C123 O124 1.245 . S
C123 O135 1.232 1_565 S
O124 C123 1.245 . S
O125 Co119 2.058 . S
O125 C151 1.269 . S
O126 Co118 2.074 . S
O126 C151 1.257 . S
H127 C152 0.930 . S
H128 C158 0.930 . S
O129 Co118 2.093 . S
O129 C121 1.224 . S
H130 C162 0.929 . S
H131 C164 0.930 . S
H132 C165 0.930 . S
H133 C163 0.929 . S
H134 C166 0.928 . S
O135 Co119 2.057 1_545 S
O135 C123 1.232 1_545 S
H136 C155 0.929 . S
H137 C156 0.929 . S
H138 C168 0.931 . S
H139 C160 0.929 . S
H140 C169 0.930 . S
H141 C161 0.931 . S
O142 Co118 2.097 . S
O142 C170 1.214 . S
H143 C171 0.929 . S
H144 C172 0.929 . S
H145 C173 0.930 . S
H146 C174 0.929 . S
H147 C176 0.930 . S
H148 C153 0.930 . S
H149 C157 0.930 . S
O150 Co119 2.037 . S
O150 C170 1.234 . S
C151 O125 1.269 . S
C151 O126 1.257 . S
C152 H127 0.930 . S
C152 C155 1.388 1_545 S
C152 C157 1.418 . S
C153 H148 0.930 . S
C153 C156 1.404 . S
C153 C157 1.353 . S
N154 Co119 2.145 1_545 S
N154 C155 1.397 1_545 S
N154 C156 1.334 . S
C155 H136 0.929 . S
C155 C152 1.388 1_565 S
C155 N154 1.397 1_565 S
C156 H137 0.929 . S
C156 C153 1.404 . S
C156 N154 1.334 . S
C157 H149 0.930 . S
C157 C152 1.418 . S
C157 C153 1.353 . S
C158 H128 0.930 . S
C158 N159 1.330 . S
C158 C160 1.446 . S
N159 Co118 2.151 . S
N159 C158 1.330 . S
N159 C163 1.418 . S
C160 H139 0.929 . S
C160 C158 1.446 . S
C160 C161 1.332 . S
C161 H141 0.931 . S
C161 C160 1.332 . S
C161 C162 1.267 . S
C162 H130 0.929 . S
C162 C161 1.267 . S
C162 C163 1.251 . S
C163 H133 0.929 . S
C163 N159 1.418 . S
C163 C162 1.251 . S
C164 H131 0.930 . S
C164 C166 1.406 . S
C164 C169 1.261 . S
C165 H132 0.930 . S
C165 N167 1.325 . S
C165 C168 1.357 . S
C166 H134 0.928 . S
C166 C164 1.406 . S
C166 N167 1.261 . S
N167 Co118 2.214 . S
N167 C165 1.325 . S
N167 C166 1.261 . S
C168 H138 0.931 . S
C168 C165 1.357 . S
C168 C169 1.312 . S
C169 H140 0.930 . S
C169 C164 1.261 . S
C169 C168 1.312 . S
C170 O142 1.214 . S
C170 O150 1.234 . S
C171 H143 0.929 . S
C171 C174 1.391 . S
C171 C176 1.391 . S
C172 H144 0.929 . S
C172 C173 1.390 . S
C172 N175 1.391 . S
C173 H145 0.930 . S
C173 C172 1.390 . S
C173 C174 1.392 . S
C174 H146 0.929 . S
C174 C171 1.391 . S
C174 C173 1.392 . S
N175 Co119 2.257 1_545 S
N175 C172 1.391 . S
N175 C176 1.388 . S
C176 H147 0.930 . S
C176 C171 1.391 . S
C176 N175 1.388 . S
Co177 O179 2.143 . S
Co177 O185 2.074 . S
Co177 O188 2.093 . S
Co177 O201 2.097 . S
Co177 N218 2.151 . S
Co177 N226 2.214 . S
Co178 O179 2.160 . S
Co178 O184 2.058 . S
Co178 O194 2.057 . S
Co178 O209 2.037 . S
Co178 N213 2.145 . S
Co178 N234 2.257 . S
O179 Co177 2.143 . S
O179 Co178 2.160 . S
C180 O181 1.278 . S
C180 O188 1.224 . S
O181 C180 1.278 . S
C182 O183 1.245 . S
C182 O194 1.232 . S
O183 C182 1.245 . S
O184 Co178 2.058 . S
O184 C210 1.269 . S
O185 Co177 2.074 . S
O185 C210 1.257 . S
H186 C211 0.930 . S
H187 C217 0.930 . S
O188 Co177 2.093 . S
O188 C180 1.224 . S
H189 C221 0.929 . S
H190 C223 0.930 . S
H191 C224 0.930 . S
H192 C222 0.929 . S
H193 C225 0.928 . S
O194 Co178 2.057 . S
O194 C182 1.232 . S
H195 C214 0.929 . S
H196 C215 0.929 . S
H197 C227 0.931 . S
H198 C219 0.929 . S
H199 C228 0.930 . S
H200 C220 0.931 . S
O201 Co177 2.097 . S
O201 C229 1.214 . S
H202 C230 0.929 . S
H203 C231 0.929 . S
H204 C232 0.930 . S
H205 C233 0.929 . S
H206 C235 0.930 . S
H207 C212 0.930 . S
H208 C216 0.930 . S
O209 Co178 2.037 . S
O209 C229 1.234 . S
C210 O184 1.269 . S
C210 O185 1.257 . S
C211 H186 0.930 . S
C211 C214 1.388 . S
C211 C216 1.418 . S
C212 H207 0.930 . S
C212 C215 1.404 . S
C212 C216 1.353 . S
N213 Co178 2.145 . S
N213 C214 1.397 . S
N213 C215 1.334 . S
C214 H195 0.929 . S
C214 C211 1.388 . S
C214 N213 1.397 . S
C215 H196 0.929 . S
C215 C212 1.404 . S
C215 N213 1.334 . S
C216 H208 0.930 . S
C216 C211 1.418 . S
C216 C212 1.353 . S
C217 H187 0.930 . S
C217 N218 1.330 . S
C217 C219 1.446 . S
N218 Co177 2.151 . S
N218 C217 1.330 . S
N218 C222 1.418 . S
C219 H198 0.929 . S
C219 C217 1.446 . S
C219 C220 1.332 . S
C220 H200 0.931 . S
C220 C219 1.332 . S
C220 C221 1.267 . S
C221 H189 0.929 . S
C221 C220 1.267 . S
C221 C222 1.251 . S
C222 H192 0.929 . S
C222 N218 1.418 . S
C222 C221 1.251 . S
C223 H190 0.930 . S
C223 C225 1.406 . S
C223 C228 1.261 . S
C224 H191 0.930 . S
C224 N226 1.325 . S
C224 C227 1.357 . S
C225 H193 0.928 . S
C225 C223 1.406 . S
C225 N226 1.261 . S
N226 Co177 2.214 . S
N226 C224 1.325 . S
N226 C225 1.261 . S
C227 H197 0.931 . S
C227 C224 1.357 . S
C227 C228 1.312 . S
C228 H199 0.930 . S
C228 C223 1.261 . S
C228 C227 1.312 . S
C229 O201 1.214 . S
C229 O209 1.234 . S
C230 H202 0.929 . S
C230 C233 1.391 . S
C230 C235 1.391 . S
C231 H203 0.929 . S
C231 C232 1.390 . S
C231 N234 1.391 . S
C232 H204 0.930 . S
C232 C231 1.390 . S
C232 C233 1.392 . S
C233 H205 0.929 . S
C233 C230 1.391 . S
C233 C232 1.392 . S
N234 Co178 2.257 . S
N234 C231 1.391 . S
N234 C235 1.388 . S
C235 H206 0.930 . S
C235 C230 1.391 . S
C235 N234 1.388 . S
Co236 O238 2.143 . S
Co236 O244 2.074 . S
Co236 O247 2.093 . S
Co236 O260 2.097 . S
Co236 N277 2.151 . S
Co236 N285 2.214 . S
Co237 O238 2.160 . S
Co237 O243 2.058 . S
Co237 O253 2.057 . S
Co237 O268 2.037 . S
Co237 N272 2.145 . S
Co237 N293 2.257 . S
O238 Co236 2.143 . S
O238 Co237 2.160 . S
C239 O240 1.278 . S
C239 O247 1.224 . S
O240 C239 1.278 . S
C241 O242 1.245 . S
C241 O253 1.232 . S
O242 C241 1.245 . S
O243 Co237 2.058 . S
O243 C269 1.269 . S
O244 Co236 2.074 . S
O244 C269 1.257 . S
H245 C270 0.930 . S
H246 C276 0.930 . S
O247 Co236 2.093 . S
O247 C239 1.224 . S
H248 C280 0.929 . S
H249 C282 0.930 . S
H250 C283 0.930 . S
H251 C281 0.929 . S
H252 C284 0.928 . S
O253 Co237 2.057 . S
O253 C241 1.232 . S
H254 C273 0.929 . S
H255 C274 0.929 . S
H256 C286 0.931 . S
H257 C278 0.929 . S
H258 C287 0.930 . S
H259 C279 0.931 . S
O260 Co236 2.097 . S
O260 C288 1.214 . S
H261 C289 0.929 . S
H262 C290 0.929 . S
H263 C291 0.930 . S
H264 C292 0.929 . S
H265 C294 0.930 . S
H266 C271 0.930 . S
H267 C275 0.930 . S
O268 Co237 2.037 . S
O268 C288 1.234 . S
C269 O243 1.269 . S
C269 O244 1.257 . S
C270 H245 0.930 . S
C270 C273 1.388 . S
C270 C275 1.418 . S
C271 H266 0.930 . S
C271 C274 1.404 . S
C271 C275 1.353 . S
N272 Co237 2.145 . S
N272 C273 1.397 . S
N272 C274 1.334 . S
C273 H254 0.929 . S
C273 C270 1.388 . S
C273 N272 1.397 . S
C274 H255 0.929 . S
C274 C271 1.404 . S
C274 N272 1.334 . S
C275 H267 0.930 . S
C275 C270 1.418 . S
C275 C271 1.353 . S
C276 H246 0.930 . S
C276 N277 1.330 . S
C276 C278 1.446 . S
N277 Co236 2.151 . S
N277 C276 1.330 . S
N277 C281 1.418 . S
C278 H257 0.929 . S
C278 C276 1.446 . S
C278 C279 1.332 . S
C279 H259 0.931 . S
C279 C278 1.332 . S
C279 C280 1.267 . S
C280 H248 0.929 . S
C280 C279 1.267 . S
C280 C281 1.251 . S
C281 H251 0.929 . S
C281 N277 1.418 . S
C281 C280 1.251 . S
C282 H249 0.930 . S
C282 C284 1.406 . S
C282 C287 1.261 . S
C283 H250 0.930 . S
C283 N285 1.325 . S
C283 C286 1.357 . S
C284 H252 0.928 . S
C284 C282 1.406 . S
C284 N285 1.261 . S
N285 Co236 2.214 . S
N285 C283 1.325 . S
N285 C284 1.261 . S
C286 H256 0.931 . S
C286 C283 1.357 . S
C286 C287 1.312 . S
C287 H258 0.930 . S
C287 C282 1.261 . S
C287 C286 1.312 . S
C288 O260 1.214 . S
C288 O268 1.234 . S
C289 H261 0.929 . S
C289 C292 1.391 . S
C289 C294 1.391 . S
C290 H262 0.929 . S
C290 C291 1.390 . S
C290 N293 1.391 . S
C291 H263 0.930 . S
C291 C290 1.390 . S
C291 C292 1.392 . S
C292 H264 0.929 . S
C292 C289 1.391 . S
C292 C291 1.392 . S
N293 Co237 2.257 . S
N293 C290 1.391 . S
N293 C294 1.388 . S
C294 H265 0.930 . S
C294 C289 1.391 . S
C294 N293 1.388 . S
Co295 O297 2.143 . S
Co295 O303 2.074 . S
Co295 O306 2.093 . S
Co295 O319 2.097 . S
Co295 N336 2.151 . S
Co295 N344 2.214 . S
Co296 O297 2.160 . S
Co296 O302 2.058 . S
Co296 O312 2.057 . S
Co296 O327 2.037 . S
Co296 N331 2.145 . S
Co296 N352 2.257 . S
O297 Co295 2.143 . S
O297 Co296 2.160 . S
C298 O299 1.278 . S
C298 O306 1.224 . S
O299 C298 1.278 . S
C300 O301 1.245 . S
C300 O312 1.232 . S
O301 C300 1.245 . S
O302 Co296 2.058 . S
O302 C328 1.269 . S
O303 Co295 2.074 . S
O303 C328 1.257 . S
H304 C329 0.930 . S
H305 C335 0.930 . S
O306 Co295 2.093 . S
O306 C298 1.224 . S
H307 C339 0.929 . S
H308 C341 0.930 . S
H309 C342 0.930 . S
H310 C340 0.929 . S
H311 C343 0.928 . S
O312 Co296 2.057 . S
O312 C300 1.232 . S
H313 C332 0.929 . S
H314 C333 0.929 . S
H315 C345 0.931 . S
H316 C337 0.929 . S
H317 C346 0.930 . S
H318 C338 0.931 . S
O319 Co295 2.097 . S
O319 C347 1.214 . S
H320 C348 0.929 . S
H321 C349 0.929 . S
H322 C350 0.930 . S
H323 C351 0.929 . S
H324 C353 0.930 . S
H325 C330 0.930 . S
H326 C334 0.930 . S
O327 Co296 2.037 . S
O327 C347 1.234 . S
C328 O302 1.269 . S
C328 O303 1.257 . S
C329 H304 0.930 . S
C329 C332 1.388 . S
C329 C334 1.418 . S
C330 H325 0.930 . S
C330 C333 1.404 . S
C330 C334 1.353 . S
N331 Co296 2.145 . S
N331 C332 1.397 . S
N331 C333 1.334 . S
C332 H313 0.929 . S
C332 C329 1.388 . S
C332 N331 1.397 . S
C333 H314 0.929 . S
C333 C330 1.404 . S
C333 N331 1.334 . S
C334 H326 0.930 . S
C334 C329 1.418 . S
C334 C330 1.353 . S
C335 H305 0.930 . S
C335 N336 1.330 . S
C335 C337 1.446 . S
N336 Co295 2.151 . S
N336 C335 1.330 . S
N336 C340 1.418 . S
C337 H316 0.929 . S
C337 C335 1.446 . S
C337 C338 1.332 . S
C338 H318 0.931 . S
C338 C337 1.332 . S
C338 C339 1.267 . S
C339 H307 0.929 . S
C339 C338 1.267 . S
C339 C340 1.251 . S
C340 H310 0.929 . S
C340 N336 1.418 . S
C340 C339 1.251 . S
C341 H308 0.930 . S
C341 C343 1.406 . S
C341 C346 1.261 . S
C342 H309 0.930 . S
C342 N344 1.325 . S
C342 C345 1.357 . S
C343 H311 0.928 . S
C343 C341 1.406 . S
C343 N344 1.261 . S
N344 Co295 2.214 . S
N344 C342 1.325 . S
N344 C343 1.261 . S
C345 H315 0.931 . S
C345 C342 1.357 . S
C345 C346 1.312 . S
C346 H317 0.930 . S
C346 C341 1.261 . S
C346 C345 1.312 . S
C347 O319 1.214 . S
C347 O327 1.234 . S
C348 H320 0.929 . S
C348 C351 1.391 . S
C348 C353 1.391 . S
C349 H321 0.929 . S
C349 C350 1.390 . S
C349 N352 1.391 . S
C350 H322 0.930 . S
C350 C349 1.390 . S
C350 C351 1.392 . S
C351 H323 0.929 . S
C351 C348 1.391 . S
C351 C350 1.392 . S
N352 Co296 2.257 . S
N352 C349 1.391 . S
N352 C353 1.388 . S
C353 H324 0.930 . S
C353 C348 1.391 . S
C353 N352 1.388 . S
Co354 O356 2.143 . S
Co354 O362 2.074 . S
Co354 O365 2.093 . S
Co354 O378 2.097 . S
Co354 N395 2.151 . S
Co354 N403 2.214 . S
Co355 O356 2.160 . S
Co355 O361 2.058 . S
Co355 O371 2.057 1_545 S
Co355 O386 2.037 . S
Co355 N390 2.145 1_545 S
Co355 N411 2.257 1_545 S
O356 Co354 2.143 . S
O356 Co355 2.160 . S
C357 O358 1.278 . S
C357 O365 1.224 . S
O358 C357 1.278 . S
C359 O360 1.245 . S
C359 O371 1.232 1_545 S
O360 C359 1.245 . S
O361 Co355 2.058 . S
O361 C387 1.269 . S
O362 Co354 2.074 . S
O362 C387 1.257 . S
H363 C388 0.930 . S
H364 C394 0.930 . S
O365 Co354 2.093 . S
O365 C357 1.224 . S
H366 C398 0.929 . S
H367 C400 0.930 . S
H368 C401 0.930 . S
H369 C399 0.929 . S
H370 C402 0.928 . S
O371 Co355 2.057 1_565 S
O371 C359 1.232 1_565 S
H372 C391 0.929 . S
H373 C392 0.929 . S
H374 C404 0.931 . S
H375 C396 0.929 . S
H376 C405 0.930 . S
H377 C397 0.931 . S
O378 Co354 2.097 . S
O378 C406 1.214 . S
H379 C407 0.929 . S
H380 C408 0.929 . S
H381 C409 0.930 . S
H382 C410 0.929 . S
H383 C412 0.930 . S
H384 C389 0.930 . S
H385 C393 0.930 . S
O386 Co355 2.037 . S
O386 C406 1.234 . S
C387 O361 1.269 . S
C387 O362 1.257 . S
C388 H363 0.930 . S
C388 C391 1.388 1_565 S
C388 C393 1.418 . S
C389 H384 0.930 . S
C389 C392 1.404 . S
C389 C393 1.353 . S
N390 Co355 2.145 1_565 S
N390 C391 1.397 1_565 S
N390 C392 1.334 . S
C391 H372 0.929 . S
C391 C388 1.388 1_545 S
C391 N390 1.397 1_545 S
C392 H373 0.929 . S
C392 C389 1.404 . S
C392 N390 1.334 . S
C393 H385 0.930 . S
C393 C388 1.418 . S
C393 C389 1.353 . S
C394 H364 0.930 . S
C394 N395 1.330 . S
C394 C396 1.446 . S
N395 Co354 2.151 . S
N395 C394 1.330 . S
N395 C399 1.418 . S
C396 H375 0.929 . S
C396 C394 1.446 . S
C396 C397 1.332 . S
C397 H377 0.931 . S
C397 C396 1.332 . S
C397 C398 1.267 . S
C398 H366 0.929 . S
C398 C397 1.267 . S
C398 C399 1.251 . S
C399 H369 0.929 . S
C399 N395 1.418 . S
C399 C398 1.251 . S
C400 H367 0.930 . S
C400 C402 1.406 . S
C400 C405 1.261 . S
C401 H368 0.930 . S
C401 N403 1.325 . S
C401 C404 1.357 . S
C402 H370 0.928 . S
C402 C400 1.406 . S
C402 N403 1.261 . S
N403 Co354 2.214 . S
N403 C401 1.325 . S
N403 C402 1.261 . S
C404 H374 0.931 . S
C404 C401 1.357 . S
C404 C405 1.312 . S
C405 H376 0.930 . S
C405 C400 1.261 . S
C405 C404 1.312 . S
C406 O378 1.214 . S
C406 O386 1.234 . S
C407 H379 0.929 . S
C407 C410 1.391 . S
C407 C412 1.391 . S
C408 H380 0.929 . S
C408 C409 1.390 . S
C408 N411 1.391 . S
C409 H381 0.930 . S
C409 C408 1.390 . S
C409 C410 1.392 . S
C410 H382 0.929 . S
C410 C407 1.391 . S
C410 C409 1.392 . S
N411 Co355 2.257 1_565 S
N411 C408 1.391 . S
N411 C412 1.388 . S
C412 H383 0.930 . S
C412 C407 1.391 . S
C412 N411 1.388 . S
Co413 O415 2.143 . S
Co413 O421 2.074 . S
Co413 O424 2.093 . S
Co413 O437 2.097 . S
Co413 N454 2.151 . S
Co413 N462 2.214 . S
Co414 O415 2.160 . S
Co414 O420 2.058 . S
Co414 O430 2.057 . S
Co414 O445 2.037 . S
Co414 N449 2.145 . S
Co414 N470 2.257 . S
O415 Co413 2.143 . S
O415 Co414 2.160 . S
C416 O417 1.278 . S
C416 O424 1.224 . S
O417 C416 1.278 . S
C418 O419 1.245 . S
C418 O430 1.232 . S
O419 C418 1.245 . S
O420 Co414 2.058 . S
O420 C446 1.269 . S
O421 Co413 2.074 . S
O421 C446 1.257 . S
H422 C447 0.930 . S
H423 C453 0.930 . S
O424 Co413 2.093 . S
O424 C416 1.224 . S
H425 C457 0.929 . S
H426 C459 0.930 . S
H427 C460 0.930 . S
H428 C458 0.929 . S
H429 C461 0.928 . S
O430 Co414 2.057 . S
O430 C418 1.232 . S
H431 C450 0.929 . S
H432 C451 0.929 . S
H433 C463 0.931 . S
H434 C455 0.929 . S
H435 C464 0.930 . S
H436 C456 0.931 . S
O437 Co413 2.097 . S
O437 C465 1.214 . S
H438 C466 0.929 . S
H439 C467 0.929 . S
H440 C468 0.930 . S
H441 C469 0.929 . S
H442 C471 0.930 . S
H443 C448 0.930 . S
H444 C452 0.930 . S
O445 Co414 2.037 . S
O445 C465 1.234 . S
C446 O420 1.269 . S
C446 O421 1.257 . S
C447 H422 0.930 . S
C447 C450 1.388 . S
C447 C452 1.418 . S
C448 H443 0.930 . S
C448 C451 1.404 . S
C448 C452 1.353 . S
N449 Co414 2.145 . S
N449 C450 1.397 . S
N449 C451 1.334 . S
C450 H431 0.929 . S
C450 C447 1.388 . S
C450 N449 1.397 . S
C451 H432 0.929 . S
C451 C448 1.404 . S
C451 N449 1.334 . S
C452 H444 0.930 . S
C452 C447 1.418 . S
C452 C448 1.353 . S
C453 H423 0.930 . S
C453 N454 1.330 . S
C453 C455 1.446 . S
N454 Co413 2.151 . S
N454 C453 1.330 . S
N454 C458 1.418 . S
C455 H434 0.929 . S
C455 C453 1.446 . S
C455 C456 1.332 . S
C456 H436 0.931 . S
C456 C455 1.332 . S
C456 C457 1.267 . S
C457 H425 0.929 . S
C457 C456 1.267 . S
C457 C458 1.251 . S
C458 H428 0.929 . S
C458 N454 1.418 . S
C458 C457 1.251 . S
C459 H426 0.930 . S
C459 C461 1.406 . S
C459 C464 1.261 . S
C460 H427 0.930 . S
C460 N462 1.325 . S
C460 C463 1.357 . S
C461 H429 0.928 . S
C461 C459 1.406 . S
C461 N462 1.261 . S
N462 Co413 2.214 . S
N462 C460 1.325 . S
N462 C461 1.261 . S
C463 H433 0.931 . S
C463 C460 1.357 . S
C463 C464 1.312 . S
C464 H435 0.930 . S
C464 C459 1.261 . S
C464 C463 1.312 . S
C465 O437 1.214 . S
C465 O445 1.234 . S
C466 H438 0.929 . S
C466 C469 1.391 . S
C466 C471 1.391 . S
C467 H439 0.929 . S
C467 C468 1.390 . S
C467 N470 1.391 . S
C468 H440 0.930 . S
C468 C467 1.390 . S
C468 C469 1.392 . S
C469 H441 0.929 . S
C469 C466 1.391 . S
C469 C468 1.392 . S
N470 Co414 2.257 . S
N470 C467 1.391 . S
N470 C471 1.388 . S
C471 H442 0.930 . S
C471 C466 1.391 . S
C471 N470 1.388 . S
Co472 O474 2.143 . S
Co472 O480 2.074 . S
Co472 O483 2.093 . S
Co472 O496 2.097 . S
Co472 N513 2.151 . S
Co472 N521 2.214 . S
Co473 O474 2.160 . S
Co473 O479 2.058 . S
Co473 O489 2.057 . S
Co473 O504 2.037 . S
Co473 N508 2.145 . S
Co473 N529 2.257 . S
O474 Co472 2.143 . S
O474 Co473 2.160 . S
C475 O476 1.278 . S
C475 O483 1.224 . S
O476 C475 1.278 . S
C477 O478 1.245 . S
C477 O489 1.232 . S
O478 C477 1.245 . S
O479 Co473 2.058 . S
O479 C505 1.269 . S
O480 Co472 2.074 . S
O480 C505 1.257 . S
H481 C506 0.930 . S
H482 C512 0.930 . S
O483 Co472 2.093 . S
O483 C475 1.224 . S
H484 C516 0.929 . S
H485 C518 0.930 . S
H486 C519 0.930 . S
H487 C517 0.929 . S
H488 C520 0.928 . S
O489 Co473 2.057 . S
O489 C477 1.232 . S
H490 C509 0.929 . S
H491 C510 0.929 . S
H492 C522 0.931 . S
H493 C514 0.929 . S
H494 C523 0.930 . S
H495 C515 0.931 . S
O496 Co472 2.097 . S
O496 C524 1.214 . S
H497 C525 0.929 . S
H498 C526 0.929 . S
H499 C527 0.930 . S
H500 C528 0.929 . S
H501 C530 0.930 . S
H502 C507 0.930 . S
H503 C511 0.930 . S
O504 Co473 2.037 . S
O504 C524 1.234 . S
C505 O479 1.269 . S
C505 O480 1.257 . S
C506 H481 0.930 . S
C506 C509 1.388 . S
C506 C511 1.418 . S
C507 H502 0.930 . S
C507 C510 1.404 . S
C507 C511 1.353 . S
N508 Co473 2.145 . S
N508 C509 1.397 . S
N508 C510 1.334 . S
C509 H490 0.929 . S
C509 C506 1.388 . S
C509 N508 1.397 . S
C510 H491 0.929 . S
C510 C507 1.404 . S
C510 N508 1.334 . S
C511 H503 0.930 . S
C511 C506 1.418 . S
C511 C507 1.353 . S
C512 H482 0.930 . S
C512 N513 1.330 . S
C512 C514 1.446 . S
N513 Co472 2.151 . S
N513 C512 1.330 . S
N513 C517 1.418 . S
C514 H493 0.929 . S
C514 C512 1.446 . S
C514 C515 1.332 . S
C515 H495 0.931 . S
C515 C514 1.332 . S
C515 C516 1.267 . S
C516 H484 0.929 . S
C516 C515 1.267 . S
C516 C517 1.251 . S
C517 H487 0.929 . S
C517 N513 1.418 . S
C517 C516 1.251 . S
C518 H485 0.930 . S
C518 C520 1.406 . S
C518 C523 1.261 . S
C519 H486 0.930 . S
C519 N521 1.325 . S
C519 C522 1.357 . S
C520 H488 0.928 . S
C520 C518 1.406 . S
C520 N521 1.261 . S
N521 Co472 2.214 . S
N521 C519 1.325 . S
N521 C520 1.261 . S
C522 H492 0.931 . S
C522 C519 1.357 . S
C522 C523 1.312 . S
C523 H494 0.930 . S
C523 C518 1.261 . S
C523 C522 1.312 . S
C524 O496 1.214 . S
C524 O504 1.234 . S
C525 H497 0.929 . S
C525 C528 1.391 . S
C525 C530 1.391 . S
C526 H498 0.929 . S
C526 C527 1.390 . S
C526 N529 1.391 . S
C527 H499 0.930 . S
C527 C526 1.390 . S
C527 C528 1.392 . S
C528 H500 0.929 . S
C528 C525 1.391 . S
C528 C527 1.392 . S
N529 Co473 2.257 . S
N529 C526 1.391 . S
N529 C530 1.388 . S
C530 H501 0.930 . S
C530 C525 1.391 . S
C530 N529 1.388 . S
Co531 O533 2.143 . S
Co531 O539 2.074 . S
Co531 O542 2.093 . S
Co531 O555 2.097 . S
Co531 N572 2.151 . S
Co531 N580 2.214 . S
Co532 O533 2.160 . S
Co532 O538 2.058 . S
Co532 O548 2.057 . S
Co532 O563 2.037 . S
Co532 N567 2.145 . S
Co532 N588 2.257 . S
O533 Co531 2.143 . S
O533 Co532 2.160 . S
C534 O535 1.278 . S
C534 O542 1.224 . S
O535 C534 1.278 . S
C536 O537 1.245 . S
C536 O548 1.232 . S
O537 C536 1.245 . S
O538 Co532 2.058 . S
O538 C564 1.269 . S
O539 Co531 2.074 . S
O539 C564 1.257 . S
H540 C565 0.930 . S
H541 C571 0.930 . S
O542 Co531 2.093 . S
O542 C534 1.224 . S
H543 C575 0.929 . S
H544 C577 0.930 . S
H545 C578 0.930 . S
H546 C576 0.929 . S
H547 C579 0.928 . S
O548 Co532 2.057 . S
O548 C536 1.232 . S
H549 C568 0.929 . S
H550 C569 0.929 . S
H551 C581 0.931 . S
H552 C573 0.929 . S
H553 C582 0.930 . S
H554 C574 0.931 . S
O555 Co531 2.097 . S
O555 C583 1.214 . S
H556 C584 0.929 . S
H557 C585 0.929 . S
H558 C586 0.930 . S
H559 C587 0.929 . S
H560 C589 0.930 . S
H561 C566 0.930 . S
H562 C570 0.930 . S
O563 Co532 2.037 . S
O563 C583 1.234 . S
C564 O538 1.269 . S
C564 O539 1.257 . S
C565 H540 0.930 . S
C565 C568 1.388 . S
C565 C570 1.418 . S
C566 H561 0.930 . S
C566 C569 1.404 . S
C566 C570 1.353 . S
N567 Co532 2.145 . S
N567 C568 1.397 . S
N567 C569 1.334 . S
C568 H549 0.929 . S
C568 C565 1.388 . S
C568 N567 1.397 . S
C569 H550 0.929 . S
C569 C566 1.404 . S
C569 N567 1.334 . S
C570 H562 0.930 . S
C570 C565 1.418 . S
C570 C566 1.353 . S
C571 H541 0.930 . S
C571 N572 1.330 . S
C571 C573 1.446 . S
N572 Co531 2.151 . S
N572 C571 1.330 . S
N572 C576 1.418 . S
C573 H552 0.929 . S
C573 C571 1.446 . S
C573 C574 1.332 . S
C574 H554 0.931 . S
C574 C573 1.332 . S
C574 C575 1.267 . S
C575 H543 0.929 . S
C575 C574 1.267 . S
C575 C576 1.251 . S
C576 H546 0.929 . S
C576 N572 1.418 . S
C576 C575 1.251 . S
C577 H544 0.930 . S
C577 C579 1.406 . S
C577 C582 1.261 . S
C578 H545 0.930 . S
C578 N580 1.325 . S
C578 C581 1.357 . S
C579 H547 0.928 . S
C579 C577 1.406 . S
C579 N580 1.261 . S
N580 Co531 2.214 . S
N580 C578 1.325 . S
N580 C579 1.261 . S
C581 H551 0.931 . S
C581 C578 1.357 . S
C581 C582 1.312 . S
C582 H553 0.930 . S
C582 C577 1.261 . S
C582 C581 1.312 . S
C583 O555 1.214 . S
C583 O563 1.234 . S
C584 H556 0.929 . S
C584 C587 1.391 . S
C584 C589 1.391 . S
C585 H557 0.929 . S
C585 C586 1.390 . S
C585 N588 1.391 . S
C586 H558 0.930 . S
C586 C585 1.390 . S
C586 C587 1.392 . S
C587 H559 0.929 . S
C587 C584 1.391 . S
C587 C586 1.392 . S
N588 Co532 2.257 . S
N588 C585 1.391 . S
N588 C589 1.388 . S
C589 H560 0.930 . S
C589 C584 1.391 . S
C589 N588 1.388 . S
Co590 O592 2.143 . S
Co590 O598 2.074 . S
Co590 O601 2.093 . S
Co590 O614 2.097 . S
Co590 N631 2.151 1_554 S
Co590 N639 2.214 . S
Co591 O592 2.160 . S
Co591 O597 2.058 . S
Co591 O607 2.057 . S
Co591 O622 2.037 . S
Co591 N626 2.145 . S
Co591 N647 2.257 . S
O592 Co590 2.143 . S
O592 Co591 2.160 . S
C593 O594 1.278 . S
C593 O601 1.224 . S
O594 C593 1.278 . S
C595 O596 1.245 . S
C595 O607 1.232 . S
O596 C595 1.245 . S
O597 Co591 2.058 . S
O597 C623 1.269 . S
O598 Co590 2.074 . S
O598 C623 1.257 . S
H599 C624 0.930 . S
H600 C630 0.930 . S
O601 Co590 2.093 . S
O601 C593 1.224 . S
H602 C634 0.929 . S
H603 C636 0.930 . S
H604 C637 0.930 . S
H605 C635 0.929 . S
H606 C638 0.928 . S
O607 Co591 2.057 . S
O607 C595 1.232 . S
H608 C627 0.929 . S
H609 C628 0.929 . S
H610 C640 0.931 . S
H611 C632 0.929 . S
H612 C641 0.930 . S
H613 C633 0.931 . S
O614 Co590 2.097 . S
O614 C642 1.214 . S
H615 C643 0.929 . S
H616 C644 0.929 . S
H617 C645 0.930 . S
H618 C646 0.929 . S
H619 C648 0.930 . S
H620 C625 0.930 . S
H621 C629 0.930 . S
O622 Co591 2.037 . S
O622 C642 1.234 . S
C623 O597 1.269 . S
C623 O598 1.257 . S
C624 H599 0.930 . S
C624 C627 1.388 . S
C624 C629 1.418 . S
C625 H620 0.930 . S
C625 C628 1.404 . S
C625 C629 1.353 . S
N626 Co591 2.145 . S
N626 C627 1.397 . S
N626 C628 1.334 . S
C627 H608 0.929 . S
C627 C624 1.388 . S
C627 N626 1.397 . S
C628 H609 0.929 . S
C628 C625 1.404 . S
C628 N626 1.334 . S
C629 H621 0.930 . S
C629 C624 1.418 . S
C629 C625 1.353 . S
C630 H600 0.930 . S
C630 N631 1.330 . S
C630 C632 1.446 . S
N631 Co590 2.151 1_556 S
N631 C630 1.330 . S
N631 C635 1.418 . S
C632 H611 0.929 . S
C632 C630 1.446 . S
C632 C633 1.332 . S
C633 H613 0.931 . S
C633 C632 1.332 . S
C633 C634 1.267 . S
C634 H602 0.929 . S
C634 C633 1.267 . S
C634 C635 1.251 . S
C635 H605 0.929 . S
C635 N631 1.418 . S
C635 C634 1.251 . S
C636 H603 0.930 . S
C636 C638 1.406 . S
C636 C641 1.261 . S
C637 H604 0.930 . S
C637 N639 1.325 . S
C637 C640 1.357 . S
C638 H606 0.928 . S
C638 C636 1.406 . S
C638 N639 1.261 1_556 S
N639 Co590 2.214 . S
N639 C637 1.325 . S
N639 C638 1.261 1_554 S
C640 H610 0.931 . S
C640 C637 1.357 . S
C640 C641 1.312 1_554 S
C641 H612 0.930 . S
C641 C636 1.261 . S
C641 C640 1.312 1_556 S
C642 O614 1.214 . S
C642 O622 1.234 . S
C643 H615 0.929 . S
C643 C646 1.391 . S
C643 C648 1.391 . S
C644 H616 0.929 . S
C644 C645 1.390 . S
C644 N647 1.391 . S
C645 H617 0.930 . S
C645 C644 1.390 . S
C645 C646 1.392 . S
C646 H618 0.929 . S
C646 C643 1.391 . S
C646 C645 1.392 . S
N647 Co591 2.257 . S
N647 C644 1.391 . S
N647 C648 1.388 . S
C648 H619 0.930 . S
C648 C643 1.391 . S
C648 N647 1.388 . S
Co649 O651 2.143 . S
Co649 O657 2.074 . S
Co649 O660 2.093 . S
Co649 O673 2.097 . S
Co649 N690 2.151 . S
Co649 N698 2.214 . S
Co650 O651 2.160 . S
Co650 O656 2.058 . S
Co650 O666 2.057 . S
Co650 O681 2.037 . S
Co650 N685 2.145 . S
Co650 N706 2.257 . S
O651 Co649 2.143 . S
O651 Co650 2.160 . S
C652 O653 1.278 . S
C652 O660 1.224 . S
O653 C652 1.278 . S
C654 O655 1.245 . S
C654 O666 1.232 . S
O655 C654 1.245 . S
O656 Co650 2.058 . S
O656 C682 1.269 . S
O657 Co649 2.074 . S
O657 C682 1.257 . S
H658 C683 0.930 . S
H659 C689 0.930 . S
O660 Co649 2.093 . S
O660 C652 1.224 . S
H661 C693 0.929 . S
H662 C695 0.930 . S
H663 C696 0.930 . S
H664 C694 0.929 . S
H665 C697 0.928 . S
O666 Co650 2.057 . S
O666 C654 1.232 . S
H667 C686 0.929 . S
H668 C687 0.929 . S
H669 C699 0.931 . S
H670 C691 0.929 . S
H671 C700 0.930 . S
H672 C692 0.931 . S
O673 Co649 2.097 . S
O673 C701 1.214 . S
H674 C702 0.929 . S
H675 C703 0.929 . S
H676 C704 0.930 . S
H677 C705 0.929 . S
H678 C707 0.930 . S
H679 C684 0.930 . S
H680 C688 0.930 . S
O681 Co650 2.037 . S
O681 C701 1.234 . S
C682 O656 1.269 . S
C682 O657 1.257 . S
C683 H658 0.930 . S
C683 C686 1.388 . S
C683 C688 1.418 . S
C684 H679 0.930 . S
C684 C687 1.404 . S
C684 C688 1.353 . S
N685 Co650 2.145 . S
N685 C686 1.397 . S
N685 C687 1.334 . S
C686 H667 0.929 . S
C686 C683 1.388 . S
C686 N685 1.397 . S
C687 H668 0.929 . S
C687 C684 1.404 . S
C687 N685 1.334 . S
C688 H680 0.930 . S
C688 C683 1.418 . S
C688 C684 1.353 . S
C689 H659 0.930 . S
C689 N690 1.330 . S
C689 C691 1.446 . S
N690 Co649 2.151 . S
N690 C689 1.330 . S
N690 C694 1.418 . S
C691 H670 0.929 . S
C691 C689 1.446 . S
C691 C692 1.332 . S
C692 H672 0.931 . S
C692 C691 1.332 . S
C692 C693 1.267 . S
C693 H661 0.929 . S
C693 C692 1.267 . S
C693 C694 1.251 . S
C694 H664 0.929 . S
C694 N690 1.418 . S
C694 C693 1.251 . S
C695 H662 0.930 . S
C695 C697 1.406 . S
C695 C700 1.261 . S
C696 H663 0.930 . S
C696 N698 1.325 . S
C696 C699 1.357 . S
C697 H665 0.928 . S
C697 C695 1.406 . S
C697 N698 1.261 . S
N698 Co649 2.214 . S
N698 C696 1.325 . S
N698 C697 1.261 . S
C699 H669 0.931 . S
C699 C696 1.357 . S
C699 C700 1.312 . S
C700 H671 0.930 . S
C700 C695 1.261 . S
C700 C699 1.312 . S
C701 O673 1.214 . S
C701 O681 1.234 . S
C702 H674 0.929 . S
C702 C705 1.391 . S
C702 C707 1.391 . S
C703 H675 0.929 . S
C703 C704 1.390 . S
C703 N706 1.391 . S
C704 H676 0.930 . S
C704 C703 1.390 . S
C704 C705 1.392 . S
C705 H677 0.929 . S
C705 C702 1.391 . S
C705 C704 1.392 . S
N706 Co650 2.257 . S
N706 C703 1.391 . S
N706 C707 1.388 . S
C707 H678 0.930 . S
C707 C702 1.391 . S
C707 N706 1.388 . S
Co708 O710 2.143 . S
Co708 O716 2.074 . S
Co708 O719 2.093 . S
Co708 O732 2.097 . S
Co708 N749 2.151 . S
Co708 N757 2.214 . S
Co709 O710 2.160 . S
Co709 O715 2.058 . S
Co709 O725 2.057 . S
Co709 O740 2.037 . S
Co709 N744 2.145 . S
Co709 N765 2.257 . S
O710 Co708 2.143 . S
O710 Co709 2.160 . S
C711 O712 1.278 . S
C711 O719 1.224 . S
O712 C711 1.278 . S
C713 O714 1.245 . S
C713 O725 1.232 . S
O714 C713 1.245 . S
O715 Co709 2.058 . S
O715 C741 1.269 . S
O716 Co708 2.074 . S
O716 C741 1.257 . S
H717 C742 0.930 . S
H718 C748 0.930 . S
O719 Co708 2.093 . S
O719 C711 1.224 . S
H720 C752 0.929 . S
H721 C754 0.930 . S
H722 C755 0.930 . S
H723 C753 0.929 . S
H724 C756 0.928 . S
O725 Co709 2.057 . S
O725 C713 1.232 . S
H726 C745 0.929 . S
H727 C746 0.929 . S
H728 C758 0.931 . S
H729 C750 0.929 . S
H730 C759 0.930 . S
H731 C751 0.931 . S
O732 Co708 2.097 . S
O732 C760 1.214 . S
H733 C761 0.929 . S
H734 C762 0.929 . S
H735 C763 0.930 . S
H736 C764 0.929 . S
H737 C766 0.930 . S
H738 C743 0.930 . S
H739 C747 0.930 . S
O740 Co709 2.037 . S
O740 C760 1.234 . S
C741 O715 1.269 . S
C741 O716 1.257 . S
C742 H717 0.930 . S
C742 C745 1.388 . S
C742 C747 1.418 . S
C743 H738 0.930 . S
C743 C746 1.404 . S
C743 C747 1.353 . S
N744 Co709 2.145 . S
N744 C745 1.397 . S
N744 C746 1.334 . S
C745 H726 0.929 . S
C745 C742 1.388 . S
C745 N744 1.397 . S
C746 H727 0.929 . S
C746 C743 1.404 . S
C746 N744 1.334 . S
C747 H739 0.930 . S
C747 C742 1.418 . S
C747 C743 1.353 . S
C748 H718 0.930 . S
C748 N749 1.330 . S
C748 C750 1.446 . S
N749 Co708 2.151 . S
N749 C748 1.330 . S
N749 C753 1.418 . S
C750 H729 0.929 . S
C750 C748 1.446 . S
C750 C751 1.332 . S
C751 H731 0.931 . S
C751 C750 1.332 . S
C751 C752 1.267 . S
C752 H720 0.929 . S
C752 C751 1.267 . S
C752 C753 1.251 . S
C753 H723 0.929 . S
C753 N749 1.418 . S
C753 C752 1.251 . S
C754 H721 0.930 . S
C754 C756 1.406 . S
C754 C759 1.261 . S
C755 H722 0.930 . S
C755 N757 1.325 . S
C755 C758 1.357 . S
C756 H724 0.928 . S
C756 C754 1.406 . S
C756 N757 1.261 . S
N757 Co708 2.214 . S
N757 C755 1.325 . S
N757 C756 1.261 . S
C758 H728 0.931 . S
C758 C755 1.357 . S
C758 C759 1.312 . S
C759 H730 0.930 . S
C759 C754 1.261 . S
C759 C758 1.312 . S
C760 O732 1.214 . S
C760 O740 1.234 . S
C761 H733 0.929 . S
C761 C764 1.391 . S
C761 C766 1.391 . S
C762 H734 0.929 . S
C762 C763 1.390 . S
C762 N765 1.391 . S
C763 H735 0.930 . S
C763 C762 1.390 . S
C763 C764 1.392 . S
C764 H736 0.929 . S
C764 C761 1.391 . S
C764 C763 1.392 . S
N765 Co709 2.257 . S
N765 C762 1.391 . S
N765 C766 1.388 . S
C766 H737 0.930 . S
C766 C761 1.391 . S
C766 N765 1.388 . S
Co767 O769 2.143 . S
Co767 O775 2.074 . S
Co767 O778 2.093 . S
Co767 O791 2.097 . S
Co767 N808 2.151 . S
Co767 N816 2.214 . S
Co768 O769 2.160 . S
Co768 O774 2.058 . S
Co768 O784 2.057 . S
Co768 O799 2.037 . S
Co768 N803 2.145 . S
Co768 N824 2.257 . S
O769 Co767 2.143 . S
O769 Co768 2.160 . S
C770 O771 1.278 . S
C770 O778 1.224 . S
O771 C770 1.278 . S
C772 O773 1.245 . S
C772 O784 1.232 . S
O773 C772 1.245 . S
O774 Co768 2.058 . S
O774 C800 1.269 . S
O775 Co767 2.074 . S
O775 C800 1.257 . S
H776 C801 0.930 . S
H777 C807 0.930 . S
O778 Co767 2.093 . S
O778 C770 1.224 . S
H779 C811 0.929 . S
H780 C813 0.930 . S
H781 C814 0.930 . S
H782 C812 0.929 . S
H783 C815 0.928 . S
O784 Co768 2.057 . S
O784 C772 1.232 . S
H785 C804 0.929 . S
H786 C805 0.929 . S
H787 C817 0.931 . S
H788 C809 0.929 . S
H789 C818 0.930 . S
H790 C810 0.931 . S
O791 Co767 2.097 . S
O791 C819 1.214 . S
H792 C820 0.929 . S
H793 C821 0.929 . S
H794 C822 0.930 . S
H795 C823 0.929 . S
H796 C825 0.930 . S
H797 C802 0.930 . S
H798 C806 0.930 . S
O799 Co768 2.037 . S
O799 C819 1.234 . S
C800 O774 1.269 . S
C800 O775 1.257 . S
C801 H776 0.930 . S
C801 C804 1.388 . S
C801 C806 1.418 . S
C802 H797 0.930 . S
C802 C805 1.404 . S
C802 C806 1.353 . S
N803 Co768 2.145 . S
N803 C804 1.397 . S
N803 C805 1.334 . S
C804 H785 0.929 . S
C804 C801 1.388 . S
C804 N803 1.397 . S
C805 H786 0.929 . S
C805 C802 1.404 . S
C805 N803 1.334 . S
C806 H798 0.930 . S
C806 C801 1.418 . S
C806 C802 1.353 . S
C807 H777 0.930 . S
C807 N808 1.330 . S
C807 C809 1.446 . S
N808 Co767 2.151 . S
N808 C807 1.330 . S
N808 C812 1.418 . S
C809 H788 0.929 . S
C809 C807 1.446 . S
C809 C810 1.332 . S
C810 H790 0.931 . S
C810 C809 1.332 . S
C810 C811 1.267 . S
C811 H779 0.929 . S
C811 C810 1.267 . S
C811 C812 1.251 . S
C812 H782 0.929 . S
C812 N808 1.418 . S
C812 C811 1.251 . S
C813 H780 0.930 . S
C813 C815 1.406 . S
C813 C818 1.261 . S
C814 H781 0.930 . S
C814 N816 1.325 . S
C814 C817 1.357 . S
C815 H783 0.928 . S
C815 C813 1.406 . S
C815 N816 1.261 . S
N816 Co767 2.214 . S
N816 C814 1.325 . S
N816 C815 1.261 . S
C817 H787 0.931 . S
C817 C814 1.357 . S
C817 C818 1.312 . S
C818 H789 0.930 . S
C818 C813 1.261 . S
C818 C817 1.312 . S
C819 O791 1.214 . S
C819 O799 1.234 . S
C820 H792 0.929 . S
C820 C823 1.391 . S
C820 C825 1.391 . S
C821 H793 0.929 . S
C821 C822 1.390 . S
C821 N824 1.391 . S
C822 H794 0.930 . S
C822 C821 1.390 . S
C822 C823 1.392 . S
C823 H795 0.929 . S
C823 C820 1.391 . S
C823 C822 1.392 . S
N824 Co768 2.257 . S
N824 C821 1.391 . S
N824 C825 1.388 . S
C825 H796 0.930 . S
C825 C820 1.391 . S
C825 N824 1.388 . S
Co826 O828 2.143 . S
Co826 O834 2.074 . S
Co826 O837 2.093 . S
Co826 O850 2.097 . S
Co826 N867 2.151 1_556 S
Co826 N875 2.214 . S
Co827 O828 2.160 . S
Co827 O833 2.058 . S
Co827 O843 2.057 . S
Co827 O858 2.037 . S
Co827 N862 2.145 . S
Co827 N883 2.257 . S
O828 Co826 2.143 . S
O828 Co827 2.160 . S
C829 O830 1.278 . S
C829 O837 1.224 . S
O830 C829 1.278 . S
C831 O832 1.245 . S
C831 O843 1.232 . S
O832 C831 1.245 . S
O833 Co827 2.058 . S
O833 C859 1.269 . S
O834 Co826 2.074 . S
O834 C859 1.257 . S
H835 C860 0.930 . S
H836 C866 0.930 . S
O837 Co826 2.093 . S
O837 C829 1.224 . S
H838 C870 0.929 . S
H839 C872 0.930 . S
H840 C873 0.930 . S
H841 C871 0.929 . S
H842 C874 0.928 . S
O843 Co827 2.057 . S
O843 C831 1.232 . S
H844 C863 0.929 . S
H845 C864 0.929 . S
H846 C876 0.931 . S
H847 C868 0.929 . S
H848 C877 0.930 . S
H849 C869 0.931 . S
O850 Co826 2.097 . S
O850 C878 1.214 . S
H851 C879 0.929 . S
H852 C880 0.929 . S
H853 C881 0.930 . S
H854 C882 0.929 . S
H855 C884 0.930 . S
H856 C861 0.930 . S
H857 C865 0.930 . S
O858 Co827 2.037 . S
O858 C878 1.234 . S
C859 O833 1.269 . S
C859 O834 1.257 . S
C860 H835 0.930 . S
C860 C863 1.388 . S
C860 C865 1.418 . S
C861 H856 0.930 . S
C861 C864 1.404 . S
C861 C865 1.353 . S
N862 Co827 2.145 . S
N862 C863 1.397 . S
N862 C864 1.334 . S
C863 H844 0.929 . S
C863 C860 1.388 . S
C863 N862 1.397 . S
C864 H845 0.929 . S
C864 C861 1.404 . S
C864 N862 1.334 . S
C865 H857 0.930 . S
C865 C860 1.418 . S
C865 C861 1.353 . S
C866 H836 0.930 . S
C866 N867 1.330 . S
C866 C868 1.446 . S
N867 Co826 2.151 1_554 S
N867 C866 1.330 . S
N867 C871 1.418 . S
C868 H847 0.929 . S
C868 C866 1.446 . S
C868 C869 1.332 . S
C869 H849 0.931 . S
C869 C868 1.332 . S
C869 C870 1.267 . S
C870 H838 0.929 . S
C870 C869 1.267 . S
C870 C871 1.251 . S
C871 H841 0.929 . S
C871 N867 1.418 . S
C871 C870 1.251 . S
C872 H839 0.930 . S
C872 C874 1.406 . S
C872 C877 1.261 . S
C873 H840 0.930 . S
C873 N875 1.325 . S
C873 C876 1.357 . S
C874 H842 0.928 . S
C874 C872 1.406 . S
C874 N875 1.261 1_554 S
N875 Co826 2.214 . S
N875 C873 1.325 . S
N875 C874 1.261 1_556 S
C876 H846 0.931 . S
C876 C873 1.357 . S
C876 C877 1.312 1_556 S
C877 H848 0.930 . S
C877 C872 1.261 . S
C877 C876 1.312 1_554 S
C878 O850 1.214 . S
C878 O858 1.234 . S
C879 H851 0.929 . S
C879 C882 1.391 . S
C879 C884 1.391 . S
C880 H852 0.929 . S
C880 C881 1.390 . S
C880 N883 1.391 . S
C881 H853 0.930 . S
C881 C880 1.390 . S
C881 C882 1.392 . S
C882 H854 0.929 . S
C882 C879 1.391 . S
C882 C881 1.392 . S
N883 Co827 2.257 . S
N883 C880 1.391 . S
N883 C884 1.388 . S
C884 H855 0.930 . S
C884 C879 1.391 . S
C884 N883 1.388 . S
Co885 O887 2.143 . S
Co885 O893 2.074 . S
Co885 O896 2.093 . S
Co885 O909 2.097 . S
Co885 N926 2.151 . S
Co885 N934 2.214 . S
Co886 O887 2.160 . S
Co886 O892 2.058 . S
Co886 O902 2.057 . S
Co886 O917 2.037 . S
Co886 N921 2.145 . S
Co886 N942 2.257 . S
O887 Co885 2.143 . S
O887 Co886 2.160 . S
C888 O889 1.278 . S
C888 O896 1.224 . S
O889 C888 1.278 . S
C890 O891 1.245 . S
C890 O902 1.232 . S
O891 C890 1.245 . S
O892 Co886 2.058 . S
O892 C918 1.269 . S
O893 Co885 2.074 . S
O893 C918 1.257 . S
H894 C919 0.930 . S
H895 C925 0.930 . S
O896 Co885 2.093 . S
O896 C888 1.224 . S
H897 C929 0.929 . S
H898 C931 0.930 . S
H899 C932 0.930 . S
H900 C930 0.929 . S
H901 C933 0.928 . S
O902 Co886 2.057 . S
O902 C890 1.232 . S
H903 C922 0.929 . S
H904 C923 0.929 . S
H905 C935 0.931 . S
H906 C927 0.929 . S
H907 C936 0.930 . S
H908 C928 0.931 . S
O909 Co885 2.097 . S
O909 C937 1.214 . S
H910 C938 0.929 . S
H911 C939 0.929 . S
H912 C940 0.930 . S
H913 C941 0.929 . S
H914 C943 0.930 . S
H915 C920 0.930 . S
H916 C924 0.930 . S
O917 Co886 2.037 . S
O917 C937 1.234 . S
C918 O892 1.269 . S
C918 O893 1.257 . S
C919 H894 0.930 . S
C919 C922 1.388 . S
C919 C924 1.418 . S
C920 H915 0.930 . S
C920 C923 1.404 . S
C920 C924 1.353 . S
N921 Co886 2.145 . S
N921 C922 1.397 . S
N921 C923 1.334 . S
C922 H903 0.929 . S
C922 C919 1.388 . S
C922 N921 1.397 . S
C923 H904 0.929 . S
C923 C920 1.404 . S
C923 N921 1.334 . S
C924 H916 0.930 . S
C924 C919 1.418 . S
C924 C920 1.353 . S
C925 H895 0.930 . S
C925 N926 1.330 . S
C925 C927 1.446 . S
N926 Co885 2.151 . S
N926 C925 1.330 . S
N926 C930 1.418 . S
C927 H906 0.929 . S
C927 C925 1.446 . S
C927 C928 1.332 . S
C928 H908 0.931 . S
C928 C927 1.332 . S
C928 C929 1.267 . S
C929 H897 0.929 . S
C929 C928 1.267 . S
C929 C930 1.251 . S
C930 H900 0.929 . S
C930 N926 1.418 . S
C930 C929 1.251 . S
C931 H898 0.930 . S
C931 C933 1.406 . S
C931 C936 1.261 . S
C932 H899 0.930 . S
C932 N934 1.325 . S
C932 C935 1.357 . S
C933 H901 0.928 . S
C933 C931 1.406 . S
C933 N934 1.261 . S
N934 Co885 2.214 . S
N934 C932 1.325 . S
N934 C933 1.261 . S
C935 H905 0.931 . S
C935 C932 1.357 . S
C935 C936 1.312 . S
C936 H907 0.930 . S
C936 C931 1.261 . S
C936 C935 1.312 . S
C937 O909 1.214 . S
C937 O917 1.234 . S
C938 H910 0.929 . S
C938 C941 1.391 . S
C938 C943 1.391 . S
C939 H911 0.929 . S
C939 C940 1.390 . S
C939 N942 1.391 . S
C940 H912 0.930 . S
C940 C939 1.390 . S
C940 C941 1.392 . S
C941 H913 0.929 . S
C941 C938 1.391 . S
C941 C940 1.392 . S
N942 Co886 2.257 . S
N942 C939 1.391 . S
N942 C943 1.388 . S
C943 H914 0.930 . S
C943 C938 1.391 . S
C943 N942 1.388 . S
Co944 O946 2.143 . S
Co944 O952 2.074 . S
Co944 O955 2.093 . S
Co944 O968 2.097 . S
Co944 N985 2.151 . S
Co944 N993 2.214 . S
Co945 O946 2.160 . S
Co945 O951 2.058 . S
Co945 O961 2.057 . S
Co945 O976 2.037 . S
Co945 N980 2.145 . S
Co945 N1001 2.257 . S
O946 Co944 2.143 . S
O946 Co945 2.160 . S
C947 O948 1.278 . S
C947 O955 1.224 . S
O948 C947 1.278 . S
C949 O950 1.245 . S
C949 O961 1.232 . S
O950 C949 1.245 . S
O951 Co945 2.058 . S
O951 C977 1.269 . S
O952 Co944 2.074 . S
O952 C977 1.257 . S
H953 C978 0.930 . S
H954 C984 0.930 . S
O955 Co944 2.093 . S
O955 C947 1.224 . S
H956 C988 0.929 . S
H957 C990 0.930 . S
H958 C991 0.930 . S
H959 C989 0.929 . S
H960 C992 0.928 . S
O961 Co945 2.057 . S
O961 C949 1.232 . S
H962 C981 0.929 . S
H963 C982 0.929 . S
H964 C994 0.931 . S
H965 C986 0.929 . S
H966 C995 0.930 . S
H967 C987 0.931 . S
O968 Co944 2.097 . S
O968 C996 1.214 . S
H969 C997 0.929 . S
H970 C998 0.929 . S
H971 C999 0.930 . S
H972 C1000 0.929 . S
H973 C1002 0.930 . S
H974 C979 0.930 . S
H975 C983 0.930 . S
O976 Co945 2.037 . S
O976 C996 1.234 . S
C977 O951 1.269 . S
C977 O952 1.257 . S
C978 H953 0.930 . S
C978 C981 1.388 . S
C978 C983 1.418 . S
C979 H974 0.930 . S
C979 C982 1.404 . S
C979 C983 1.353 . S
N980 Co945 2.145 . S
N980 C981 1.397 . S
N980 C982 1.334 . S
C981 H962 0.929 . S
C981 C978 1.388 . S
C981 N980 1.397 . S
C982 H963 0.929 . S
C982 C979 1.404 . S
C982 N980 1.334 . S
C983 H975 0.930 . S
C983 C978 1.418 . S
C983 C979 1.353 . S
C984 H954 0.930 . S
C984 N985 1.330 . S
C984 C986 1.446 . S
N985 Co944 2.151 . S
N985 C984 1.330 . S
N985 C989 1.418 . S
C986 H965 0.929 . S
C986 C984 1.446 . S
C986 C987 1.332 . S
C987 H967 0.931 . S
C987 C986 1.332 . S
C987 C988 1.267 . S
C988 H956 0.929 . S
C988 C987 1.267 . S
C988 C989 1.251 . S
C989 H959 0.929 . S
C989 N985 1.418 . S
C989 C988 1.251 . S
C990 H957 0.930 . S
C990 C992 1.406 . S
C990 C995 1.261 . S
C991 H958 0.930 . S
C991 N993 1.325 . S
C991 C994 1.357 . S
C992 H960 0.928 . S
C992 C990 1.406 . S
C992 N993 1.261 . S
N993 Co944 2.214 . S
N993 C991 1.325 . S
N993 C992 1.261 . S
C994 H964 0.931 . S
C994 C991 1.357 . S
C994 C995 1.312 . S
C995 H966 0.930 . S
C995 C990 1.261 . S
C995 C994 1.312 . S
C996 O968 1.214 . S
C996 O976 1.234 . S
C997 H969 0.929 . S
C997 C1000 1.391 . S
C997 C1002 1.391 . S
C998 H970 0.929 . S
C998 C999 1.390 . S
C998 N1001 1.391 . S
C999 H971 0.930 . S
C999 C998 1.390 . S
C999 C1000 1.392 . S
C1000 H972 0.929 . S
C1000 C997 1.391 . S
C1000 C999 1.392 . S
N1001 Co945 2.257 . S
N1001 C998 1.391 . S
N1001 C1002 1.388 . S
C1002 H973 0.930 . S
C1002 C997 1.391 . S
C1002 N1001 1.388 . S
Co1003 O1005 2.143 . S
Co1003 O1011 2.074 . S
Co1003 O1014 2.093 . S
Co1003 O1027 2.097 . S
Co1003 N1044 2.151 . S
Co1003 N1052 2.214 . S
Co1004 O1005 2.160 . S
Co1004 O1010 2.058 . S
Co1004 O1020 2.056 1_455 S
Co1004 O1035 2.037 . S
Co1004 N1039 2.145 1_455 S
Co1004 N1060 2.257 1_455 S
O1005 Co1003 2.143 . S
O1005 Co1004 2.160 . S
C1006 O1007 1.278 . S
C1006 O1014 1.224 . S
O1007 C1006 1.278 . S
C1008 O1009 1.245 . S
C1008 O1020 1.231 1_455 S
O1009 C1008 1.245 . S
O1010 Co1004 2.058 . S
O1010 C1036 1.269 . S
O1011 Co1003 2.074 . S
O1011 C1036 1.257 . S
H1012 C1037 0.930 1_455 S
H1013 C1043 0.930 . S
O1014 Co1003 2.093 . S
O1014 C1006 1.224 . S
H1015 C1047 0.929 . S
H1016 C1049 0.930 . S
H1017 C1050 0.930 . S
H1018 C1048 0.929 . S
H1019 C1051 0.928 . S
O1020 Co1004 2.056 1_655 S
O1020 C1008 1.231 1_655 S
H1021 C1040 0.929 . S
H1022 C1041 0.929 . S
H1023 C1053 0.931 . S
H1024 C1045 0.929 . S
H1025 C1054 0.930 . S
H1026 C1046 0.931 . S
O1027 Co1003 2.097 . S
O1027 C1055 1.214 . S
H1028 C1056 0.929 . S
H1029 C1057 0.929 . S
H1030 C1058 0.930 . S
H1031 C1059 0.929 . S
H1032 C1061 0.930 . S
H1033 C1038 0.930 . S
H1034 C1042 0.930 . S
O1035 Co1004 2.037 . S
O1035 C1055 1.234 . S
C1036 O1010 1.269 . S
C1036 O1011 1.257 . S
C1037 H1012 0.930 1_655 S
C1037 C1040 1.388 1_655 S
C1037 C1042 1.418 . S
C1038 H1033 0.930 . S
C1038 C1041 1.404 . S
C1038 C1042 1.353 . S
N1039 Co1004 2.145 1_655 S
N1039 C1040 1.397 1_655 S
N1039 C1041 1.334 . S
C1040 H1021 0.929 . S
C1040 C1037 1.388 1_455 S
C1040 N1039 1.397 1_455 S
C1041 H1022 0.929 . S
C1041 C1038 1.404 . S
C1041 N1039 1.334 . S
C1042 H1034 0.930 . S
C1042 C1037 1.418 . S
C1042 C1038 1.353 . S
C1043 H1013 0.930 . S
C1043 N1044 1.330 . S
C1043 C1045 1.446 . S
N1044 Co1003 2.151 . S
N1044 C1043 1.330 . S
N1044 C1048 1.418 . S
C1045 H1024 0.929 . S
C1045 C1043 1.446 . S
C1045 C1046 1.332 . S
C1046 H1026 0.931 . S
C1046 C1045 1.332 . S
C1046 C1047 1.267 . S
C1047 H1015 0.929 . S
C1047 C1046 1.267 . S
C1047 C1048 1.251 . S
C1048 H1018 0.929 . S
C1048 N1044 1.418 . S
C1048 C1047 1.251 . S
C1049 H1016 0.930 . S
C1049 C1051 1.406 . S
C1049 C1054 1.261 . S
C1050 H1017 0.930 . S
C1050 N1052 1.325 . S
C1050 C1053 1.357 . S
C1051 H1019 0.928 . S
C1051 C1049 1.406 . S
C1051 N1052 1.261 . S
N1052 Co1003 2.214 . S
N1052 C1050 1.325 . S
N1052 C1051 1.261 . S
C1053 H1023 0.931 . S
C1053 C1050 1.357 . S
C1053 C1054 1.312 . S
C1054 H1025 0.930 . S
C1054 C1049 1.261 . S
C1054 C1053 1.312 . S
C1055 O1027 1.214 . S
C1055 O1035 1.234 . S
C1056 H1028 0.929 . S
C1056 C1059 1.391 . S
C1056 C1061 1.391 . S
C1057 H1029 0.929 . S
C1057 C1058 1.390 . S
C1057 N1060 1.391 . S
C1058 H1030 0.930 . S
C1058 C1057 1.390 . S
C1058 C1059 1.392 . S
C1059 H1031 0.929 . S
C1059 C1056 1.391 . S
C1059 C1058 1.392 . S
N1060 Co1004 2.257 1_655 S
N1060 C1057 1.391 . S
N1060 C1061 1.388 . S
C1061 H1032 0.930 . S
C1061 C1056 1.391 . S
C1061 N1060 1.388 . S
Co1062 O1064 2.143 . S
Co1062 O1070 2.074 . S
Co1062 O1073 2.093 . S
Co1062 O1086 2.097 . S
Co1062 N1103 2.151 . S
Co1062 N1111 2.214 . S
Co1063 O1064 2.160 . S
Co1063 O1069 2.058 . S
Co1063 O1079 2.057 . S
Co1063 O1094 2.037 . S
Co1063 N1098 2.145 . S
Co1063 N1119 2.257 . S
O1064 Co1062 2.143 . S
O1064 Co1063 2.160 . S
C1065 O1066 1.278 . S
C1065 O1073 1.224 . S
O1066 C1065 1.278 . S
C1067 O1068 1.245 . S
C1067 O1079 1.232 . S
O1068 C1067 1.245 . S
O1069 Co1063 2.058 . S
O1069 C1095 1.269 . S
O1070 Co1062 2.074 . S
O1070 C1095 1.257 . S
H1071 C1096 0.930 . S
H1072 C1102 0.930 . S
O1073 Co1062 2.093 . S
O1073 C1065 1.224 . S
H1074 C1106 0.929 . S
H1075 C1108 0.930 . S
H1076 C1109 0.930 . S
H1077 C1107 0.929 . S
H1078 C1110 0.928 . S
O1079 Co1063 2.057 . S
O1079 C1067 1.232 . S
H1080 C1099 0.929 . S
H1081 C1100 0.929 . S
H1082 C1112 0.931 . S
H1083 C1104 0.929 . S
H1084 C1113 0.930 . S
H1085 C1105 0.931 . S
O1086 Co1062 2.097 . S
O1086 C1114 1.214 . S
H1087 C1115 0.929 . S
H1088 C1116 0.929 . S
H1089 C1117 0.930 . S
H1090 C1118 0.929 . S
H1091 C1120 0.930 . S
H1092 C1097 0.930 . S
H1093 C1101 0.930 . S
O1094 Co1063 2.037 . S
O1094 C1114 1.234 . S
C1095 O1069 1.269 . S
C1095 O1070 1.257 . S
C1096 H1071 0.930 . S
C1096 C1099 1.388 . S
C1096 C1101 1.418 . S
C1097 H1092 0.930 . S
C1097 C1100 1.404 . S
C1097 C1101 1.353 . S
N1098 Co1063 2.145 . S
N1098 C1099 1.397 . S
N1098 C1100 1.334 . S
C1099 H1080 0.929 . S
C1099 C1096 1.388 . S
C1099 N1098 1.397 . S
C1100 H1081 0.929 . S
C1100 C1097 1.404 . S
C1100 N1098 1.334 . S
C1101 H1093 0.930 . S
C1101 C1096 1.418 . S
C1101 C1097 1.353 . S
C1102 H1072 0.930 . S
C1102 N1103 1.330 . S
C1102 C1104 1.446 . S
N1103 Co1062 2.151 . S
N1103 C1102 1.330 . S
N1103 C1107 1.418 . S
C1104 H1083 0.929 . S
C1104 C1102 1.446 . S
C1104 C1105 1.332 . S
C1105 H1085 0.931 . S
C1105 C1104 1.332 . S
C1105 C1106 1.267 . S
C1106 H1074 0.929 . S
C1106 C1105 1.267 . S
C1106 C1107 1.251 . S
C1107 H1077 0.929 . S
C1107 N1103 1.418 . S
C1107 C1106 1.251 . S
C1108 H1075 0.930 . S
C1108 C1110 1.406 . S
C1108 C1113 1.261 . S
C1109 H1076 0.930 . S
C1109 N1111 1.325 . S
C1109 C1112 1.357 . S
C1110 H1078 0.928 . S
C1110 C1108 1.406 . S
C1110 N1111 1.261 . S
N1111 Co1062 2.214 . S
N1111 C1109 1.325 . S
N1111 C1110 1.261 . S
C1112 H1082 0.931 . S
C1112 C1109 1.357 . S
C1112 C1113 1.312 . S
C1113 H1084 0.930 . S
C1113 C1108 1.261 . S
C1113 C1112 1.312 . S
C1114 O1086 1.214 . S
C1114 O1094 1.234 . S
C1115 H1087 0.929 . S
C1115 C1118 1.391 . S
C1115 C1120 1.391 . S
C1116 H1088 0.929 . S
C1116 C1117 1.390 . S
C1116 N1119 1.391 . S
C1117 H1089 0.930 . S
C1117 C1116 1.390 . S
C1117 C1118 1.392 . S
C1118 H1090 0.929 . S
C1118 C1115 1.391 . S
C1118 C1117 1.392 . S
N1119 Co1063 2.257 . S
N1119 C1116 1.391 . S
N1119 C1120 1.388 . S
C1120 H1091 0.930 . S
C1120 C1115 1.391 . S
C1120 N1119 1.388 . S
Co1121 O1123 2.143 . S
Co1121 O1129 2.074 . S
Co1121 O1132 2.093 . S
Co1121 O1145 2.097 . S
Co1121 N1162 2.151 . S
Co1121 N1170 2.214 . S
Co1122 O1123 2.160 . S
Co1122 O1128 2.058 . S
Co1122 O1138 2.056 1_655 S
Co1122 O1153 2.037 . S
Co1122 N1157 2.145 1_655 S
Co1122 N1178 2.257 1_655 S
O1123 Co1121 2.143 . S
O1123 Co1122 2.160 . S
C1124 O1125 1.278 . S
C1124 O1132 1.224 . S
O1125 C1124 1.278 . S
C1126 O1127 1.245 . S
C1126 O1138 1.231 1_655 S
O1127 C1126 1.245 . S
O1128 Co1122 2.058 . S
O1128 C1154 1.269 . S
O1129 Co1121 2.074 . S
O1129 C1154 1.257 . S
H1130 C1155 0.930 1_655 S
H1131 C1161 0.930 . S
O1132 Co1121 2.093 . S
O1132 C1124 1.224 . S
H1133 C1165 0.929 . S
H1134 C1167 0.930 . S
H1135 C1168 0.930 . S
H1136 C1166 0.929 . S
H1137 C1169 0.928 . S
O1138 Co1122 2.056 1_455 S
O1138 C1126 1.231 1_455 S
H1139 C1158 0.929 . S
H1140 C1159 0.929 . S
H1141 C1171 0.931 . S
H1142 C1163 0.929 . S
H1143 C1172 0.930 . S
H1144 C1164 0.931 . S
O1145 Co1121 2.097 . S
O1145 C1173 1.214 . S
H1146 C1174 0.929 . S
H1147 C1175 0.929 . S
H1148 C1176 0.930 . S
H1149 C1177 0.929 . S
H1150 C1179 0.930 . S
H1151 C1156 0.930 . S
H1152 C1160 0.930 . S
O1153 Co1122 2.037 . S
O1153 C1173 1.234 . S
C1154 O1128 1.269 . S
C1154 O1129 1.257 . S
C1155 H1130 0.930 1_455 S
C1155 C1158 1.388 1_455 S
C1155 C1160 1.418 . S
C1156 H1151 0.930 . S
C1156 C1159 1.404 . S
C1156 C1160 1.353 . S
N1157 Co1122 2.145 1_455 S
N1157 C1158 1.397 1_455 S
N1157 C1159 1.334 . S
C1158 H1139 0.929 . S
C1158 C1155 1.388 1_655 S
C1158 N1157 1.397 1_655 S
C1159 H1140 0.929 . S
C1159 C1156 1.404 . S
C1159 N1157 1.334 . S
C1160 H1152 0.930 . S
C1160 C1155 1.418 . S
C1160 C1156 1.353 . S
C1161 H1131 0.930 . S
C1161 N1162 1.330 . S
C1161 C1163 1.446 . S
N1162 Co1121 2.151 . S
N1162 C1161 1.330 . S
N1162 C1166 1.418 . S
C1163 H1142 0.929 . S
C1163 C1161 1.446 . S
C1163 C1164 1.332 . S
C1164 H1144 0.931 . S
C1164 C1163 1.332 . S
C1164 C1165 1.267 . S
C1165 H1133 0.929 . S
C1165 C1164 1.267 . S
C1165 C1166 1.251 . S
C1166 H1136 0.929 . S
C1166 N1162 1.418 . S
C1166 C1165 1.251 . S
C1167 H1134 0.930 . S
C1167 C1169 1.406 . S
C1167 C1172 1.261 . S
C1168 H1135 0.930 . S
C1168 N1170 1.325 . S
C1168 C1171 1.357 . S
C1169 H1137 0.928 . S
C1169 C1167 1.406 . S
C1169 N1170 1.261 . S
N1170 Co1121 2.214 . S
N1170 C1168 1.325 . S
N1170 C1169 1.261 . S
C1171 H1141 0.931 . S
C1171 C1168 1.357 . S
C1171 C1172 1.312 . S
C1172 H1143 0.930 . S
C1172 C1167 1.261 . S
C1172 C1171 1.312 . S
C1173 O1145 1.214 . S
C1173 O1153 1.234 . S
C1174 H1146 0.929 . S
C1174 C1177 1.391 . S
C1174 C1179 1.391 . S
C1175 H1147 0.929 . S
C1175 C1176 1.390 . S
C1175 N1178 1.391 . S
C1176 H1148 0.930 . S
C1176 C1175 1.390 . S
C1176 C1177 1.392 . S
C1177 H1149 0.929 . S
C1177 C1174 1.391 . S
C1177 C1176 1.392 . S
N1178 Co1122 2.257 1_455 S
N1178 C1175 1.391 . S
N1178 C1179 1.388 . S
C1179 H1150 0.930 . S
C1179 C1174 1.391 . S
C1179 N1178 1.388 . S
Co1180 O1182 2.143 . S
Co1180 O1188 2.074 . S
Co1180 O1191 2.093 . S
Co1180 O1204 2.097 . S
Co1180 N1221 2.151 . S
Co1180 N1229 2.214 . S
Co1181 O1182 2.160 . S
Co1181 O1187 2.058 . S
Co1181 O1197 2.057 . S
Co1181 O1212 2.037 . S
Co1181 N1216 2.145 . S
Co1181 N1237 2.257 . S
O1182 Co1180 2.143 . S
O1182 Co1181 2.160 . S
C1183 O1184 1.278 . S
C1183 O1191 1.224 . S
O1184 C1183 1.278 . S
C1185 O1186 1.245 . S
C1185 O1197 1.232 . S
O1186 C1185 1.245 . S
O1187 Co1181 2.058 . S
O1187 C1213 1.269 . S
O1188 Co1180 2.074 . S
O1188 C1213 1.257 . S
H1189 C1214 0.930 . S
H1190 C1220 0.930 . S
O1191 Co1180 2.093 . S
O1191 C1183 1.224 . S
H1192 C1224 0.929 . S
H1193 C1226 0.930 . S
H1194 C1227 0.930 . S
H1195 C1225 0.929 . S
H1196 C1228 0.928 . S
O1197 Co1181 2.057 . S
O1197 C1185 1.232 . S
H1198 C1217 0.929 . S
H1199 C1218 0.929 . S
H1200 C1230 0.931 . S
H1201 C1222 0.929 . S
H1202 C1231 0.930 . S
H1203 C1223 0.931 . S
O1204 Co1180 2.097 . S
O1204 C1232 1.214 . S
H1205 C1233 0.929 . S
H1206 C1234 0.929 . S
H1207 C1235 0.930 . S
H1208 C1236 0.929 . S
H1209 C1238 0.930 . S
H1210 C1215 0.930 . S
H1211 C1219 0.930 . S
O1212 Co1181 2.037 . S
O1212 C1232 1.234 . S
C1213 O1187 1.269 . S
C1213 O1188 1.257 . S
C1214 H1189 0.930 . S
C1214 C1217 1.388 . S
C1214 C1219 1.418 . S
C1215 H1210 0.930 . S
C1215 C1218 1.404 . S
C1215 C1219 1.353 . S
N1216 Co1181 2.145 . S
N1216 C1217 1.397 . S
N1216 C1218 1.334 . S
C1217 H1198 0.929 . S
C1217 C1214 1.388 . S
C1217 N1216 1.397 . S
C1218 H1199 0.929 . S
C1218 C1215 1.404 . S
C1218 N1216 1.334 . S
C1219 H1211 0.930 . S
C1219 C1214 1.418 . S
C1219 C1215 1.353 . S
C1220 H1190 0.930 . S
C1220 N1221 1.330 . S
C1220 C1222 1.446 . S
N1221 Co1180 2.151 . S
N1221 C1220 1.330 . S
N1221 C1225 1.418 . S
C1222 H1201 0.929 . S
C1222 C1220 1.446 . S
C1222 C1223 1.332 . S
C1223 H1203 0.931 . S
C1223 C1222 1.332 . S
C1223 C1224 1.267 . S
C1224 H1192 0.929 . S
C1224 C1223 1.267 . S
C1224 C1225 1.251 . S
C1225 H1195 0.929 . S
C1225 N1221 1.418 . S
C1225 C1224 1.251 . S
C1226 H1193 0.930 . S
C1226 C1228 1.406 . S
C1226 C1231 1.261 . S
C1227 H1194 0.930 . S
C1227 N1229 1.325 . S
C1227 C1230 1.357 . S
C1228 H1196 0.928 . S
C1228 C1226 1.406 . S
C1228 N1229 1.261 . S
N1229 Co1180 2.214 . S
N1229 C1227 1.325 . S
N1229 C1228 1.261 . S
C1230 H1200 0.931 . S
C1230 C1227 1.357 . S
C1230 C1231 1.312 . S
C1231 H1202 0.930 . S
C1231 C1226 1.261 . S
C1231 C1230 1.312 . S
C1232 O1204 1.214 . S
C1232 O1212 1.234 . S
C1233 H1205 0.929 . S
C1233 C1236 1.391 . S
C1233 C1238 1.391 . S
C1234 H1206 0.929 . S
C1234 C1235 1.390 . S
C1234 N1237 1.391 . S
C1235 H1207 0.930 . S
C1235 C1234 1.390 . S
C1235 C1236 1.392 . S
C1236 H1208 0.929 . S
C1236 C1233 1.391 . S
C1236 C1235 1.392 . S
N1237 Co1181 2.257 . S
N1237 C1234 1.391 . S
N1237 C1238 1.388 . S
C1238 H1209 0.930 . S
C1238 C1233 1.391 . S
C1238 N1237 1.388 . S
Co1239 O1241 2.143 . S
Co1239 O1247 2.074 . S
Co1239 O1250 2.093 . S
Co1239 O1263 2.097 . S
Co1239 N1280 2.151 . S
Co1239 N1288 2.214 . S
Co1240 O1241 2.160 . S
Co1240 O1246 2.058 . S
Co1240 O1256 2.057 . S
Co1240 O1271 2.037 . S
Co1240 N1275 2.145 . S
Co1240 N1296 2.257 . S
O1241 Co1239 2.143 . S
O1241 Co1240 2.160 . S
C1242 O1243 1.278 . S
C1242 O1250 1.224 . S
O1243 C1242 1.278 . S
C1244 O1245 1.245 . S
C1244 O1256 1.232 . S
O1245 C1244 1.245 . S
O1246 Co1240 2.058 . S
O1246 C1272 1.269 . S
O1247 Co1239 2.074 . S
O1247 C1272 1.257 . S
H1248 C1273 0.930 . S
H1249 C1279 0.930 . S
O1250 Co1239 2.093 . S
O1250 C1242 1.224 . S
H1251 C1283 0.929 . S
H1252 C1285 0.930 . S
H1253 C1286 0.930 . S
H1254 C1284 0.929 . S
H1255 C1287 0.928 . S
O1256 Co1240 2.057 . S
O1256 C1244 1.232 . S
H1257 C1276 0.929 . S
H1258 C1277 0.929 . S
H1259 C1289 0.931 . S
H1260 C1281 0.929 . S
H1261 C1290 0.930 . S
H1262 C1282 0.931 . S
O1263 Co1239 2.097 . S
O1263 C1291 1.214 . S
H1264 C1292 0.929 . S
H1265 C1293 0.929 . S
H1266 C1294 0.930 . S
H1267 C1295 0.929 . S
H1268 C1297 0.930 . S
H1269 C1274 0.930 . S
H1270 C1278 0.930 . S
O1271 Co1240 2.037 . S
O1271 C1291 1.234 . S
C1272 O1246 1.269 . S
C1272 O1247 1.257 . S
C1273 H1248 0.930 . S
C1273 C1276 1.388 . S
C1273 C1278 1.418 . S
C1274 H1269 0.930 . S
C1274 C1277 1.404 . S
C1274 C1278 1.353 . S
N1275 Co1240 2.145 . S
N1275 C1276 1.397 . S
N1275 C1277 1.334 . S
C1276 H1257 0.929 . S
C1276 C1273 1.388 . S
C1276 N1275 1.397 . S
C1277 H1258 0.929 . S
C1277 C1274 1.404 . S
C1277 N1275 1.334 . S
C1278 H1270 0.930 . S
C1278 C1273 1.418 . S
C1278 C1274 1.353 . S
C1279 H1249 0.930 . S
C1279 N1280 1.330 . S
C1279 C1281 1.446 . S
N1280 Co1239 2.151 . S
N1280 C1279 1.330 . S
N1280 C1284 1.418 . S
C1281 H1260 0.929 . S
C1281 C1279 1.446 . S
C1281 C1282 1.332 . S
C1282 H1262 0.931 . S
C1282 C1281 1.332 . S
C1282 C1283 1.267 . S
C1283 H1251 0.929 . S
C1283 C1282 1.267 . S
C1283 C1284 1.251 . S
C1284 H1254 0.929 . S
C1284 N1280 1.418 . S
C1284 C1283 1.251 . S
C1285 H1252 0.930 . S
C1285 C1287 1.406 . S
C1285 C1290 1.261 . S
C1286 H1253 0.930 . S
C1286 N1288 1.325 . S
C1286 C1289 1.357 . S
C1287 H1255 0.928 . S
C1287 C1285 1.406 . S
C1287 N1288 1.261 . S
N1288 Co1239 2.214 . S
N1288 C1286 1.325 . S
N1288 C1287 1.261 . S
C1289 H1259 0.931 . S
C1289 C1286 1.357 . S
C1289 C1290 1.312 . S
C1290 H1261 0.930 . S
C1290 C1285 1.261 . S
C1290 C1289 1.312 . S
C1291 O1263 1.214 . S
C1291 O1271 1.234 . S
C1292 H1264 0.929 . S
C1292 C1295 1.391 . S
C1292 C1297 1.391 . S
C1293 H1265 0.929 . S
C1293 C1294 1.390 . S
C1293 N1296 1.391 . S
C1294 H1266 0.930 . S
C1294 C1293 1.390 . S
C1294 C1295 1.392 . S
C1295 H1267 0.929 . S
C1295 C1292 1.391 . S
C1295 C1294 1.392 . S
N1296 Co1240 2.257 . S
N1296 C1293 1.391 . S
N1296 C1297 1.388 . S
C1297 H1268 0.930 . S
C1297 C1292 1.391 . S
C1297 N1296 1.388 . S
Co1298 O1300 2.143 . S
Co1298 O1306 2.074 . S
Co1298 O1309 2.093 . S
Co1298 O1322 2.097 . S
Co1298 N1339 2.151 . S
Co1298 N1347 2.214 . S
Co1299 O1300 2.160 . S
Co1299 O1305 2.058 . S
Co1299 O1315 2.057 . S
Co1299 O1330 2.037 . S
Co1299 N1334 2.145 . S
Co1299 N1355 2.257 . S
O1300 Co1298 2.143 . S
O1300 Co1299 2.160 . S
C1301 O1302 1.278 . S
C1301 O1309 1.224 . S
O1302 C1301 1.278 . S
C1303 O1304 1.245 . S
C1303 O1315 1.232 . S
O1304 C1303 1.245 . S
O1305 Co1299 2.058 . S
O1305 C1331 1.269 . S
O1306 Co1298 2.074 . S
O1306 C1331 1.257 . S
H1307 C1332 0.930 . S
H1308 C1338 0.930 . S
O1309 Co1298 2.093 . S
O1309 C1301 1.224 . S
H1310 C1342 0.929 . S
H1311 C1344 0.930 . S
H1312 C1345 0.930 . S
H1313 C1343 0.929 . S
H1314 C1346 0.928 . S
O1315 Co1299 2.057 . S
O1315 C1303 1.232 . S
H1316 C1335 0.929 . S
H1317 C1336 0.929 . S
H1318 C1348 0.931 . S
H1319 C1340 0.929 . S
H1320 C1349 0.930 . S
H1321 C1341 0.931 . S
O1322 Co1298 2.097 . S
O1322 C1350 1.214 . S
H1323 C1351 0.929 . S
H1324 C1352 0.929 . S
H1325 C1353 0.930 . S
H1326 C1354 0.929 . S
H1327 C1356 0.930 . S
H1328 C1333 0.930 . S
H1329 C1337 0.930 . S
O1330 Co1299 2.037 . S
O1330 C1350 1.234 . S
C1331 O1305 1.269 . S
C1331 O1306 1.257 . S
C1332 H1307 0.930 . S
C1332 C1335 1.388 . S
C1332 C1337 1.418 . S
C1333 H1328 0.930 . S
C1333 C1336 1.404 . S
C1333 C1337 1.353 . S
N1334 Co1299 2.145 . S
N1334 C1335 1.397 . S
N1334 C1336 1.334 . S
C1335 H1316 0.929 . S
C1335 C1332 1.388 . S
C1335 N1334 1.397 . S
C1336 H1317 0.929 . S
C1336 C1333 1.404 . S
C1336 N1334 1.334 . S
C1337 H1329 0.930 . S
C1337 C1332 1.418 . S
C1337 C1333 1.353 . S
C1338 H1308 0.930 . S
C1338 N1339 1.330 . S
C1338 C1340 1.446 . S
N1339 Co1298 2.151 . S
N1339 C1338 1.330 . S
N1339 C1343 1.418 . S
C1340 H1319 0.929 . S
C1340 C1338 1.446 . S
C1340 C1341 1.332 . S
C1341 H1321 0.931 . S
C1341 C1340 1.332 . S
C1341 C1342 1.267 . S
C1342 H1310 0.929 . S
C1342 C1341 1.267 . S
C1342 C1343 1.251 . S
C1343 H1313 0.929 . S
C1343 N1339 1.418 . S
C1343 C1342 1.251 . S
C1344 H1311 0.930 . S
C1344 C1346 1.406 . S
C1344 C1349 1.261 . S
C1345 H1312 0.930 . S
C1345 N1347 1.325 . S
C1345 C1348 1.357 . S
C1346 H1314 0.928 . S
C1346 C1344 1.406 . S
C1346 N1347 1.261 . S
N1347 Co1298 2.214 . S
N1347 C1345 1.325 . S
N1347 C1346 1.261 . S
C1348 H1318 0.931 . S
C1348 C1345 1.357 . S
C1348 C1349 1.312 . S
C1349 H1320 0.930 . S
C1349 C1344 1.261 . S
C1349 C1348 1.312 . S
C1350 O1322 1.214 . S
C1350 O1330 1.234 . S
C1351 H1323 0.929 . S
C1351 C1354 1.391 . S
C1351 C1356 1.391 . S
C1352 H1324 0.929 . S
C1352 C1353 1.390 . S
C1352 N1355 1.391 . S
C1353 H1325 0.930 . S
C1353 C1352 1.390 . S
C1353 C1354 1.392 . S
C1354 H1326 0.929 . S
C1354 C1351 1.391 . S
C1354 C1353 1.392 . S
N1355 Co1299 2.257 . S
N1355 C1352 1.391 . S
N1355 C1356 1.388 . S
C1356 H1327 0.930 . S
C1356 C1351 1.391 . S
C1356 N1355 1.388 . S
Co1357 O1359 2.143 . S
Co1357 O1365 2.074 . S
Co1357 O1368 2.093 . S
Co1357 O1381 2.097 . S
Co1357 N1398 2.151 . S
Co1357 N1406 2.214 . S
Co1358 O1359 2.160 . S
Co1358 O1364 2.058 . S
Co1358 O1374 2.057 . S
Co1358 O1389 2.037 . S
Co1358 N1393 2.145 . S
Co1358 N1414 2.257 . S
O1359 Co1357 2.143 . S
O1359 Co1358 2.160 . S
C1360 O1361 1.278 . S
C1360 O1368 1.224 . S
O1361 C1360 1.278 . S
C1362 O1363 1.245 . S
C1362 O1374 1.232 . S
O1363 C1362 1.245 . S
O1364 Co1358 2.058 . S
O1364 C1390 1.269 . S
O1365 Co1357 2.074 . S
O1365 C1390 1.257 . S
H1366 C1391 0.930 . S
H1367 C1397 0.930 . S
O1368 Co1357 2.093 . S
O1368 C1360 1.224 . S
H1369 C1401 0.929 . S
H1370 C1403 0.930 . S
H1371 C1404 0.930 . S
H1372 C1402 0.929 . S
H1373 C1405 0.928 . S
O1374 Co1358 2.057 . S
O1374 C1362 1.232 . S
H1375 C1394 0.929 . S
H1376 C1395 0.929 . S
H1377 C1407 0.931 . S
H1378 C1399 0.929 . S
H1379 C1408 0.930 . S
H1380 C1400 0.931 . S
O1381 Co1357 2.097 . S
O1381 C1409 1.214 . S
H1382 C1410 0.929 . S
H1383 C1411 0.929 . S
H1384 C1412 0.930 . S
H1385 C1413 0.929 . S
H1386 C1415 0.930 . S
H1387 C1392 0.930 . S
H1388 C1396 0.930 . S
O1389 Co1358 2.037 . S
O1389 C1409 1.234 . S
C1390 O1364 1.269 . S
C1390 O1365 1.257 . S
C1391 H1366 0.930 . S
C1391 C1394 1.388 . S
C1391 C1396 1.418 . S
C1392 H1387 0.930 . S
C1392 C1395 1.404 . S
C1392 C1396 1.353 . S
N1393 Co1358 2.145 . S
N1393 C1394 1.397 . S
N1393 C1395 1.334 . S
C1394 H1375 0.929 . S
C1394 C1391 1.388 . S
C1394 N1393 1.397 . S
C1395 H1376 0.929 . S
C1395 C1392 1.404 . S
C1395 N1393 1.334 . S
C1396 H1388 0.930 . S
C1396 C1391 1.418 . S
C1396 C1392 1.353 . S
C1397 H1367 0.930 . S
C1397 N1398 1.330 . S
C1397 C1399 1.446 . S
N1398 Co1357 2.151 . S
N1398 C1397 1.330 . S
N1398 C1402 1.418 . S
C1399 H1378 0.929 . S
C1399 C1397 1.446 . S
C1399 C1400 1.332 . S
C1400 H1380 0.931 . S
C1400 C1399 1.332 . S
C1400 C1401 1.267 . S
C1401 H1369 0.929 . S
C1401 C1400 1.267 . S
C1401 C1402 1.251 . S
C1402 H1372 0.929 . S
C1402 N1398 1.418 . S
C1402 C1401 1.251 . S
C1403 H1370 0.930 . S
C1403 C1405 1.406 . S
C1403 C1408 1.261 . S
C1404 H1371 0.930 . S
C1404 N1406 1.325 . S
C1404 C1407 1.357 . S
C1405 H1373 0.928 . S
C1405 C1403 1.406 . S
C1405 N1406 1.261 . S
N1406 Co1357 2.214 . S
N1406 C1404 1.325 . S
N1406 C1405 1.261 . S
C1407 H1377 0.931 . S
C1407 C1404 1.357 . S
C1407 C1408 1.312 . S
C1408 H1379 0.930 . S
C1408 C1403 1.261 . S
C1408 C1407 1.312 . S
C1409 O1381 1.214 . S
C1409 O1389 1.234 . S
C1410 H1382 0.929 . S
C1410 C1413 1.391 . S
C1410 C1415 1.391 . S
C1411 H1383 0.929 . S
C1411 C1412 1.390 . S
C1411 N1414 1.391 . S
C1412 H1384 0.930 . S
C1412 C1411 1.390 . S
C1412 C1413 1.392 . S
C1413 H1385 0.929 . S
C1413 C1410 1.391 . S
C1413 C1412 1.392 . S
N1414 Co1358 2.257 . S
N1414 C1411 1.391 . S
N1414 C1415 1.388 . S
C1415 H1386 0.930 . S
C1415 C1410 1.391 . S
C1415 N1414 1.388 . S
Co1416 O1418 2.143 . S
Co1416 O1424 2.074 . S
Co1416 O1427 2.093 . S
Co1416 O1440 2.097 . S
Co1416 N1457 2.151 . S
Co1416 N1465 2.214 . S
Co1417 O1418 2.160 . S
Co1417 O1423 2.058 . S
Co1417 O1433 2.057 1_545 S
Co1417 O1448 2.037 . S
Co1417 N1452 2.145 1_545 S
Co1417 N1473 2.257 1_545 S
O1418 Co1416 2.143 . S
O1418 Co1417 2.160 . S
C1419 O1420 1.278 . S
C1419 O1427 1.224 . S
O1420 C1419 1.278 . S
C1421 O1422 1.245 . S
C1421 O1433 1.232 1_545 S
O1422 C1421 1.245 . S
O1423 Co1417 2.058 . S
O1423 C1449 1.269 . S
O1424 Co1416 2.074 . S
O1424 C1449 1.257 . S
H1425 C1450 0.930 . S
H1426 C1456 0.930 . S
O1427 Co1416 2.093 . S
O1427 C1419 1.224 . S
H1428 C1460 0.929 . S
H1429 C1462 0.930 . S
H1430 C1463 0.930 . S
H1431 C1461 0.929 . S
H1432 C1464 0.928 . S
O1433 Co1417 2.057 1_565 S
O1433 C1421 1.232 1_565 S
H1434 C1453 0.929 . S
H1435 C1454 0.929 . S
H1436 C1466 0.931 . S
H1437 C1458 0.929 . S
H1438 C1467 0.930 . S
H1439 C1459 0.931 . S
O1440 Co1416 2.097 . S
O1440 C1468 1.214 . S
H1441 C1469 0.929 . S
H1442 C1470 0.929 . S
H1443 C1471 0.930 . S
H1444 C1472 0.929 . S
H1445 C1474 0.930 . S
H1446 C1451 0.930 . S
H1447 C1455 0.930 . S
O1448 Co1417 2.037 . S
O1448 C1468 1.234 . S
C1449 O1423 1.269 . S
C1449 O1424 1.257 . S
C1450 H1425 0.930 . S
C1450 C1453 1.388 1_565 S
C1450 C1455 1.418 . S
C1451 H1446 0.930 . S
C1451 C1454 1.404 . S
C1451 C1455 1.353 . S
N1452 Co1417 2.145 1_565 S
N1452 C1453 1.397 1_565 S
N1452 C1454 1.334 . S
C1453 H1434 0.929 . S
C1453 C1450 1.388 1_545 S
C1453 N1452 1.397 1_545 S
C1454 H1435 0.929 . S
C1454 C1451 1.404 . S
C1454 N1452 1.334 . S
C1455 H1447 0.930 . S
C1455 C1450 1.418 . S
C1455 C1451 1.353 . S
C1456 H1426 0.930 . S
C1456 N1457 1.330 . S
C1456 C1458 1.446 . S
N1457 Co1416 2.151 . S
N1457 C1456 1.330 . S
N1457 C1461 1.418 . S
C1458 H1437 0.929 . S
C1458 C1456 1.446 . S
C1458 C1459 1.332 . S
C1459 H1439 0.931 . S
C1459 C1458 1.332 . S
C1459 C1460 1.267 . S
C1460 H1428 0.929 . S
C1460 C1459 1.267 . S
C1460 C1461 1.251 . S
C1461 H1431 0.929 . S
C1461 N1457 1.418 . S
C1461 C1460 1.251 . S
C1462 H1429 0.930 . S
C1462 C1464 1.406 . S
C1462 C1467 1.261 . S
C1463 H1430 0.930 . S
C1463 N1465 1.325 . S
C1463 C1466 1.357 . S
C1464 H1432 0.928 . S
C1464 C1462 1.406 . S
C1464 N1465 1.261 . S
N1465 Co1416 2.214 . S
N1465 C1463 1.325 . S
N1465 C1464 1.261 . S
C1466 H1436 0.931 . S
C1466 C1463 1.357 . S
C1466 C1467 1.312 . S
C1467 H1438 0.930 . S
C1467 C1462 1.261 . S
C1467 C1466 1.312 . S
C1468 O1440 1.214 . S
C1468 O1448 1.234 . S
C1469 H1441 0.929 . S
C1469 C1472 1.391 . S
C1469 C1474 1.391 . S
C1470 H1442 0.929 . S
C1470 C1471 1.390 . S
C1470 N1473 1.391 . S
C1471 H1443 0.930 . S
C1471 C1470 1.390 . S
C1471 C1472 1.392 . S
C1472 H1444 0.929 . S
C1472 C1469 1.391 . S
C1472 C1471 1.392 . S
N1473 Co1417 2.257 1_565 S
N1473 C1470 1.391 . S
N1473 C1474 1.388 . S
C1474 H1445 0.930 . S
C1474 C1469 1.391 . S
C1474 N1473 1.388 . S
Co1475 O1477 2.143 . S
Co1475 O1483 2.074 . S
Co1475 O1486 2.093 . S
Co1475 O1499 2.097 . S
Co1475 N1516 2.151 . S
Co1475 N1524 2.214 . S
Co1476 O1477 2.160 . S
Co1476 O1482 2.058 . S
Co1476 O1492 2.057 . S
Co1476 O1507 2.037 . S
Co1476 N1511 2.145 . S
Co1476 N1532 2.257 . S
O1477 Co1475 2.143 . S
O1477 Co1476 2.160 . S
C1478 O1479 1.278 . S
C1478 O1486 1.224 . S
O1479 C1478 1.278 . S
C1480 O1481 1.245 . S
C1480 O1492 1.232 . S
O1481 C1480 1.245 . S
O1482 Co1476 2.058 . S
O1482 C1508 1.269 . S
O1483 Co1475 2.074 . S
O1483 C1508 1.257 . S
H1484 C1509 0.930 . S
H1485 C1515 0.930 . S
O1486 Co1475 2.093 . S
O1486 C1478 1.224 . S
H1487 C1519 0.929 . S
H1488 C1521 0.930 . S
H1489 C1522 0.930 . S
H1490 C1520 0.929 . S
H1491 C1523 0.928 . S
O1492 Co1476 2.057 . S
O1492 C1480 1.232 . S
H1493 C1512 0.929 . S
H1494 C1513 0.929 . S
H1495 C1525 0.931 . S
H1496 C1517 0.929 . S
H1497 C1526 0.930 . S
H1498 C1518 0.931 . S
O1499 Co1475 2.097 . S
O1499 C1527 1.214 . S
H1500 C1528 0.929 . S
H1501 C1529 0.929 . S
H1502 C1530 0.930 . S
H1503 C1531 0.929 . S
H1504 C1533 0.930 . S
H1505 C1510 0.930 . S
H1506 C1514 0.930 . S
O1507 Co1476 2.037 . S
O1507 C1527 1.234 . S
C1508 O1482 1.269 . S
C1508 O1483 1.257 . S
C1509 H1484 0.930 . S
C1509 C1512 1.388 . S
C1509 C1514 1.418 . S
C1510 H1505 0.930 . S
C1510 C1513 1.404 . S
C1510 C1514 1.353 . S
N1511 Co1476 2.145 . S
N1511 C1512 1.397 . S
N1511 C1513 1.334 . S
C1512 H1493 0.929 . S
C1512 C1509 1.388 . S
C1512 N1511 1.397 . S
C1513 H1494 0.929 . S
C1513 C1510 1.404 . S
C1513 N1511 1.334 . S
C1514 H1506 0.930 . S
C1514 C1509 1.418 . S
C1514 C1510 1.353 . S
C1515 H1485 0.930 . S
C1515 N1516 1.330 . S
C1515 C1517 1.446 . S
N1516 Co1475 2.151 . S
N1516 C1515 1.330 . S
N1516 C1520 1.418 . S
C1517 H1496 0.929 . S
C1517 C1515 1.446 . S
C1517 C1518 1.332 . S
C1518 H1498 0.931 . S
C1518 C1517 1.332 . S
C1518 C1519 1.267 . S
C1519 H1487 0.929 . S
C1519 C1518 1.267 . S
C1519 C1520 1.251 . S
C1520 H1490 0.929 . S
C1520 N1516 1.418 . S
C1520 C1519 1.251 . S
C1521 H1488 0.930 . S
C1521 C1523 1.406 . S
C1521 C1526 1.261 . S
C1522 H1489 0.930 . S
C1522 N1524 1.325 . S
C1522 C1525 1.357 . S
C1523 H1491 0.928 . S
C1523 C1521 1.406 . S
C1523 N1524 1.261 . S
N1524 Co1475 2.214 . S
N1524 C1522 1.325 . S
N1524 C1523 1.261 . S
C1525 H1495 0.931 . S
C1525 C1522 1.357 . S
C1525 C1526 1.312 . S
C1526 H1497 0.930 . S
C1526 C1521 1.261 . S
C1526 C1525 1.312 . S
C1527 O1499 1.214 . S
C1527 O1507 1.234 . S
C1528 H1500 0.929 . S
C1528 C1531 1.391 . S
C1528 C1533 1.391 . S
C1529 H1501 0.929 . S
C1529 C1530 1.390 . S
C1529 N1532 1.391 . S
C1530 H1502 0.930 . S
C1530 C1529 1.390 . S
C1530 C1531 1.392 . S
C1531 H1503 0.929 . S
C1531 C1528 1.391 . S
C1531 C1530 1.392 . S
N1532 Co1476 2.257 . S
N1532 C1529 1.391 . S
N1532 C1533 1.388 . S
C1533 H1504 0.930 . S
C1533 C1528 1.391 . S
C1533 N1532 1.388 . S
Co1534 O1536 2.143 . S
Co1534 O1542 2.074 . S
Co1534 O1545 2.093 . S
Co1534 O1558 2.097 . S
Co1534 N1575 2.151 . S
Co1534 N1583 2.214 . S
Co1535 O1536 2.160 . S
Co1535 O1541 2.058 . S
Co1535 O1551 2.057 . S
Co1535 O1566 2.037 . S
Co1535 N1570 2.145 . S
Co1535 N1591 2.257 . S
O1536 Co1534 2.143 . S
O1536 Co1535 2.160 . S
C1537 O1538 1.278 . S
C1537 O1545 1.224 . S
O1538 C1537 1.278 . S
C1539 O1540 1.245 . S
C1539 O1551 1.232 . S
O1540 C1539 1.245 . S
O1541 Co1535 2.058 . S
O1541 C1567 1.269 . S
O1542 Co1534 2.074 . S
O1542 C1567 1.257 . S
H1543 C1568 0.930 . S
H1544 C1574 0.930 . S
O1545 Co1534 2.093 . S
O1545 C1537 1.224 . S
H1546 C1578 0.929 . S
H1547 C1580 0.930 . S
H1548 C1581 0.930 . S
H1549 C1579 0.929 . S
H1550 C1582 0.928 . S
O1551 Co1535 2.057 . S
O1551 C1539 1.232 . S
H1552 C1571 0.929 . S
H1553 C1572 0.929 . S
H1554 C1584 0.931 . S
H1555 C1576 0.929 . S
H1556 C1585 0.930 . S
H1557 C1577 0.931 . S
O1558 Co1534 2.097 . S
O1558 C1586 1.214 . S
H1559 C1587 0.929 . S
H1560 C1588 0.929 . S
H1561 C1589 0.930 . S
H1562 C1590 0.929 . S
H1563 C1592 0.930 . S
H1564 C1569 0.930 . S
H1565 C1573 0.930 . S
O1566 Co1535 2.037 . S
O1566 C1586 1.234 . S
C1567 O1541 1.269 . S
C1567 O1542 1.257 . S
C1568 H1543 0.930 . S
C1568 C1571 1.388 . S
C1568 C1573 1.418 . S
C1569 H1564 0.930 . S
C1569 C1572 1.404 . S
C1569 C1573 1.353 . S
N1570 Co1535 2.145 . S
N1570 C1571 1.397 . S
N1570 C1572 1.334 . S
C1571 H1552 0.929 . S
C1571 C1568 1.388 . S
C1571 N1570 1.397 . S
C1572 H1553 0.929 . S
C1572 C1569 1.404 . S
C1572 N1570 1.334 . S
C1573 H1565 0.930 . S
C1573 C1568 1.418 . S
C1573 C1569 1.353 . S
C1574 H1544 0.930 . S
C1574 N1575 1.330 . S
C1574 C1576 1.446 . S
N1575 Co1534 2.151 . S
N1575 C1574 1.330 . S
N1575 C1579 1.418 . S
C1576 H1555 0.929 . S
C1576 C1574 1.446 . S
C1576 C1577 1.332 . S
C1577 H1557 0.931 . S
C1577 C1576 1.332 . S
C1577 C1578 1.267 . S
C1578 H1546 0.929 . S
C1578 C1577 1.267 . S
C1578 C1579 1.251 . S
C1579 H1549 0.929 . S
C1579 N1575 1.418 . S
C1579 C1578 1.251 . S
C1580 H1547 0.930 . S
C1580 C1582 1.406 . S
C1580 C1585 1.261 . S
C1581 H1548 0.930 . S
C1581 N1583 1.325 . S
C1581 C1584 1.357 . S
C1582 H1550 0.928 . S
C1582 C1580 1.406 . S
C1582 N1583 1.261 . S
N1583 Co1534 2.214 . S
N1583 C1581 1.325 . S
N1583 C1582 1.261 . S
C1584 H1554 0.931 . S
C1584 C1581 1.357 . S
C1584 C1585 1.312 . S
C1585 H1556 0.930 . S
C1585 C1580 1.261 . S
C1585 C1584 1.312 . S
C1586 O1558 1.214 . S
C1586 O1566 1.234 . S
C1587 H1559 0.929 . S
C1587 C1590 1.391 . S
C1587 C1592 1.391 . S
C1588 H1560 0.929 . S
C1588 C1589 1.390 . S
C1588 N1591 1.391 . S
C1589 H1561 0.930 . S
C1589 C1588 1.390 . S
C1589 C1590 1.392 . S
C1590 H1562 0.929 . S
C1590 C1587 1.391 . S
C1590 C1589 1.392 . S
N1591 Co1535 2.257 . S
N1591 C1588 1.391 . S
N1591 C1592 1.388 . S
C1592 H1563 0.930 . S
C1592 C1587 1.391 . S
C1592 N1591 1.388 . S
Co1593 O1595 2.143 . S
Co1593 O1601 2.074 . S
Co1593 O1604 2.093 . S
Co1593 O1617 2.097 . S
Co1593 N1634 2.151 . S
Co1593 N1642 2.214 . S
Co1594 O1595 2.160 . S
Co1594 O1600 2.058 . S
Co1594 O1610 2.057 . S
Co1594 O1625 2.037 . S
Co1594 N1629 2.145 . S
Co1594 N1650 2.257 . S
O1595 Co1593 2.143 . S
O1595 Co1594 2.160 . S
C1596 O1597 1.278 . S
C1596 O1604 1.224 . S
O1597 C1596 1.278 . S
C1598 O1599 1.245 . S
C1598 O1610 1.232 . S
O1599 C1598 1.245 . S
O1600 Co1594 2.058 . S
O1600 C1626 1.269 . S
O1601 Co1593 2.074 . S
O1601 C1626 1.257 . S
H1602 C1627 0.930 . S
H1603 C1633 0.930 . S
O1604 Co1593 2.093 . S
O1604 C1596 1.224 . S
H1605 C1637 0.929 . S
H1606 C1639 0.930 . S
H1607 C1640 0.930 . S
H1608 C1638 0.929 . S
H1609 C1641 0.928 . S
O1610 Co1594 2.057 . S
O1610 C1598 1.232 . S
H1611 C1630 0.929 . S
H1612 C1631 0.929 . S
H1613 C1643 0.931 . S
H1614 C1635 0.929 . S
H1615 C1644 0.930 . S
H1616 C1636 0.931 . S
O1617 Co1593 2.097 . S
O1617 C1645 1.214 . S
H1618 C1646 0.929 . S
H1619 C1647 0.929 . S
H1620 C1648 0.930 . S
H1621 C1649 0.929 . S
H1622 C1651 0.930 . S
H1623 C1628 0.930 . S
H1624 C1632 0.930 . S
O1625 Co1594 2.037 . S
O1625 C1645 1.234 . S
C1626 O1600 1.269 . S
C1626 O1601 1.257 . S
C1627 H1602 0.930 . S
C1627 C1630 1.388 . S
C1627 C1632 1.418 . S
C1628 H1623 0.930 . S
C1628 C1631 1.404 . S
C1628 C1632 1.353 . S
N1629 Co1594 2.145 . S
N1629 C1630 1.397 . S
N1629 C1631 1.334 . S
C1630 H1611 0.929 . S
C1630 C1627 1.388 . S
C1630 N1629 1.397 . S
C1631 H1612 0.929 . S
C1631 C1628 1.404 . S
C1631 N1629 1.334 . S
C1632 H1624 0.930 . S
C1632 C1627 1.418 . S
C1632 C1628 1.353 . S
C1633 H1603 0.930 . S
C1633 N1634 1.330 . S
C1633 C1635 1.446 . S
N1634 Co1593 2.151 . S
N1634 C1633 1.330 . S
N1634 C1638 1.418 . S
C1635 H1614 0.929 . S
C1635 C1633 1.446 . S
C1635 C1636 1.332 . S
C1636 H1616 0.931 . S
C1636 C1635 1.332 . S
C1636 C1637 1.267 . S
C1637 H1605 0.929 . S
C1637 C1636 1.267 . S
C1637 C1638 1.251 . S
C1638 H1608 0.929 . S
C1638 N1634 1.418 . S
C1638 C1637 1.251 . S
C1639 H1606 0.930 . S
C1639 C1641 1.406 . S
C1639 C1644 1.261 . S
C1640 H1607 0.930 . S
C1640 N1642 1.325 . S
C1640 C1643 1.357 . S
C1641 H1609 0.928 . S
C1641 C1639 1.406 . S
C1641 N1642 1.261 . S
N1642 Co1593 2.214 . S
N1642 C1640 1.325 . S
N1642 C1641 1.261 . S
C1643 H1613 0.931 . S
C1643 C1640 1.357 . S
C1643 C1644 1.312 . S
C1644 H1615 0.930 . S
C1644 C1639 1.261 . S
C1644 C1643 1.312 . S
C1645 O1617 1.214 . S
C1645 O1625 1.234 . S
C1646 H1618 0.929 . S
C1646 C1649 1.391 . S
C1646 C1651 1.391 . S
C1647 H1619 0.929 . S
C1647 C1648 1.390 . S
C1647 N1650 1.391 . S
C1648 H1620 0.930 . S
C1648 C1647 1.390 . S
C1648 C1649 1.392 . S
C1649 H1621 0.929 . S
C1649 C1646 1.391 . S
C1649 C1648 1.392 . S
N1650 Co1594 2.257 . S
N1650 C1647 1.391 . S
N1650 C1651 1.388 . S
C1651 H1622 0.930 . S
C1651 C1646 1.391 . S
C1651 N1650 1.388 . S
Co1652 O1654 2.143 . S
Co1652 O1660 2.074 . S
Co1652 O1663 2.093 . S
Co1652 O1676 2.097 . S
Co1652 N1693 2.151 . S
Co1652 N1701 2.214 . S
Co1653 O1654 2.160 . S
Co1653 O1659 2.058 . S
Co1653 O1669 2.057 1_565 S
Co1653 O1684 2.037 . S
Co1653 N1688 2.145 1_565 S
Co1653 N1709 2.257 1_565 S
O1654 Co1652 2.143 . S
O1654 Co1653 2.160 . S
C1655 O1656 1.278 . S
C1655 O1663 1.224 . S
O1656 C1655 1.278 . S
C1657 O1658 1.245 . S
C1657 O1669 1.232 1_565 S
O1658 C1657 1.245 . S
O1659 Co1653 2.058 . S
O1659 C1685 1.269 . S
O1660 Co1652 2.074 . S
O1660 C1685 1.257 . S
H1661 C1686 0.930 . S
H1662 C1692 0.930 . S
O1663 Co1652 2.093 . S
O1663 C1655 1.224 . S
H1664 C1696 0.929 . S
H1665 C1698 0.930 . S
H1666 C1699 0.930 . S
H1667 C1697 0.929 . S
H1668 C1700 0.928 . S
O1669 Co1653 2.057 1_545 S
O1669 C1657 1.232 1_545 S
H1670 C1689 0.929 . S
H1671 C1690 0.929 . S
H1672 C1702 0.931 . S
H1673 C1694 0.929 . S
H1674 C1703 0.930 . S
H1675 C1695 0.931 . S
O1676 Co1652 2.097 . S
O1676 C1704 1.214 . S
H1677 C1705 0.929 . S
H1678 C1706 0.929 . S
H1679 C1707 0.930 . S
H1680 C1708 0.929 . S
H1681 C1710 0.930 . S
H1682 C1687 0.930 . S
H1683 C1691 0.930 . S
O1684 Co1653 2.037 . S
O1684 C1704 1.234 . S
C1685 O1659 1.269 . S
C1685 O1660 1.257 . S
C1686 H1661 0.930 . S
C1686 C1689 1.388 1_545 S
C1686 C1691 1.418 . S
C1687 H1682 0.930 . S
C1687 C1690 1.404 . S
C1687 C1691 1.353 . S
N1688 Co1653 2.145 1_545 S
N1688 C1689 1.397 1_545 S
N1688 C1690 1.334 . S
C1689 H1670 0.929 . S
C1689 C1686 1.388 1_565 S
C1689 N1688 1.397 1_565 S
C1690 H1671 0.929 . S
C1690 C1687 1.404 . S
C1690 N1688 1.334 . S
C1691 H1683 0.930 . S
C1691 C1686 1.418 . S
C1691 C1687 1.353 . S
C1692 H1662 0.930 . S
C1692 N1693 1.330 . S
C1692 C1694 1.446 . S
N1693 Co1652 2.151 . S
N1693 C1692 1.330 . S
N1693 C1697 1.418 . S
C1694 H1673 0.929 . S
C1694 C1692 1.446 . S
C1694 C1695 1.332 . S
C1695 H1675 0.931 . S
C1695 C1694 1.332 . S
C1695 C1696 1.267 . S
C1696 H1664 0.929 . S
C1696 C1695 1.267 . S
C1696 C1697 1.251 . S
C1697 H1667 0.929 . S
C1697 N1693 1.418 . S
C1697 C1696 1.251 . S
C1698 H1665 0.930 . S
C1698 C1700 1.406 . S
C1698 C1703 1.261 . S
C1699 H1666 0.930 . S
C1699 N1701 1.325 . S
C1699 C1702 1.357 . S
C1700 H1668 0.928 . S
C1700 C1698 1.406 . S
C1700 N1701 1.261 . S
N1701 Co1652 2.214 . S
N1701 C1699 1.325 . S
N1701 C1700 1.261 . S
C1702 H1672 0.931 . S
C1702 C1699 1.357 . S
C1702 C1703 1.312 . S
C1703 H1674 0.930 . S
C1703 C1698 1.261 . S
C1703 C1702 1.312 . S
C1704 O1676 1.214 . S
C1704 O1684 1.234 . S
C1705 H1677 0.929 . S
C1705 C1708 1.391 . S
C1705 C1710 1.391 . S
C1706 H1678 0.929 . S
C1706 C1707 1.390 . S
C1706 N1709 1.391 . S
C1707 H1679 0.930 . S
C1707 C1706 1.390 . S
C1707 C1708 1.392 . S
C1708 H1680 0.929 . S
C1708 C1705 1.391 . S
C1708 C1707 1.392 . S
N1709 Co1653 2.257 1_545 S
N1709 C1706 1.391 . S
N1709 C1710 1.388 . S
C1710 H1681 0.930 . S
C1710 C1705 1.391 . S
C1710 N1709 1.388 . S
Co1711 O1713 2.143 . S
Co1711 O1719 2.074 . S
Co1711 O1722 2.093 . S
Co1711 O1735 2.097 . S
Co1711 N1752 2.151 . S
Co1711 N1760 2.214 . S
Co1712 O1713 2.160 . S
Co1712 O1718 2.058 . S
Co1712 O1728 2.057 . S
Co1712 O1743 2.037 . S
Co1712 N1747 2.145 . S
Co1712 N1768 2.257 . S
O1713 Co1711 2.143 . S
O1713 Co1712 2.160 . S
C1714 O1715 1.278 . S
C1714 O1722 1.224 . S
O1715 C1714 1.278 . S
C1716 O1717 1.245 . S
C1716 O1728 1.232 . S
O1717 C1716 1.245 . S
O1718 Co1712 2.058 . S
O1718 C1744 1.269 . S
O1719 Co1711 2.074 . S
O1719 C1744 1.257 . S
H1720 C1745 0.930 . S
H1721 C1751 0.930 . S
O1722 Co1711 2.093 . S
O1722 C1714 1.224 . S
H1723 C1755 0.929 . S
H1724 C1757 0.930 . S
H1725 C1758 0.930 . S
H1726 C1756 0.929 . S
H1727 C1759 0.928 . S
O1728 Co1712 2.057 . S
O1728 C1716 1.232 . S
H1729 C1748 0.929 . S
H1730 C1749 0.929 . S
H1731 C1761 0.931 . S
H1732 C1753 0.929 . S
H1733 C1762 0.930 . S
H1734 C1754 0.931 . S
O1735 Co1711 2.097 . S
O1735 C1763 1.214 . S
H1736 C1764 0.929 . S
H1737 C1765 0.929 . S
H1738 C1766 0.930 . S
H1739 C1767 0.929 . S
H1740 C1769 0.930 . S
H1741 C1746 0.930 . S
H1742 C1750 0.930 . S
O1743 Co1712 2.037 . S
O1743 C1763 1.234 . S
C1744 O1718 1.269 . S
C1744 O1719 1.257 . S
C1745 H1720 0.930 . S
C1745 C1748 1.388 . S
C1745 C1750 1.418 . S
C1746 H1741 0.930 . S
C1746 C1749 1.404 . S
C1746 C1750 1.353 . S
N1747 Co1712 2.145 . S
N1747 C1748 1.397 . S
N1747 C1749 1.334 . S
C1748 H1729 0.929 . S
C1748 C1745 1.388 . S
C1748 N1747 1.397 . S
C1749 H1730 0.929 . S
C1749 C1746 1.404 . S
C1749 N1747 1.334 . S
C1750 H1742 0.930 . S
C1750 C1745 1.418 . S
C1750 C1746 1.353 . S
C1751 H1721 0.930 . S
C1751 N1752 1.330 . S
C1751 C1753 1.446 . S
N1752 Co1711 2.151 . S
N1752 C1751 1.330 . S
N1752 C1756 1.418 . S
C1753 H1732 0.929 . S
C1753 C1751 1.446 . S
C1753 C1754 1.332 . S
C1754 H1734 0.931 . S
C1754 C1753 1.332 . S
C1754 C1755 1.267 . S
C1755 H1723 0.929 . S
C1755 C1754 1.267 . S
C1755 C1756 1.251 . S
C1756 H1726 0.929 . S
C1756 N1752 1.418 . S
C1756 C1755 1.251 . S
C1757 H1724 0.930 . S
C1757 C1759 1.406 . S
C1757 C1762 1.261 . S
C1758 H1725 0.930 . S
C1758 N1760 1.325 . S
C1758 C1761 1.357 . S
C1759 H1727 0.928 . S
C1759 C1757 1.406 . S
C1759 N1760 1.261 . S
N1760 Co1711 2.214 . S
N1760 C1758 1.325 . S
N1760 C1759 1.261 . S
C1761 H1731 0.931 . S
C1761 C1758 1.357 . S
C1761 C1762 1.312 . S
C1762 H1733 0.930 . S
C1762 C1757 1.261 . S
C1762 C1761 1.312 . S
C1763 O1735 1.214 . S
C1763 O1743 1.234 . S
C1764 H1736 0.929 . S
C1764 C1767 1.391 . S
C1764 C1769 1.391 . S
C1765 H1737 0.929 . S
C1765 C1766 1.390 . S
C1765 N1768 1.391 . S
C1766 H1738 0.930 . S
C1766 C1765 1.390 . S
C1766 C1767 1.392 . S
C1767 H1739 0.929 . S
C1767 C1764 1.391 . S
C1767 C1766 1.392 . S
N1768 Co1712 2.257 . S
N1768 C1765 1.391 . S
N1768 C1769 1.388 . S
C1769 H1740 0.930 . S
C1769 C1764 1.391 . S
C1769 N1768 1.388 . S
Co1770 O1772 2.143 . S
Co1770 O1778 2.074 . S
Co1770 O1781 2.093 . S
Co1770 O1794 2.097 . S
Co1770 N1811 2.151 . S
Co1770 N1819 2.214 . S
Co1771 O1772 2.160 . S
Co1771 O1777 2.058 . S
Co1771 O1787 2.057 . S
Co1771 O1802 2.037 . S
Co1771 N1806 2.145 . S
Co1771 N1827 2.257 . S
O1772 Co1770 2.143 . S
O1772 Co1771 2.160 . S
C1773 O1774 1.278 . S
C1773 O1781 1.224 . S
O1774 C1773 1.278 . S
C1775 O1776 1.245 . S
C1775 O1787 1.232 . S
O1776 C1775 1.245 . S
O1777 Co1771 2.058 . S
O1777 C1803 1.269 . S
O1778 Co1770 2.074 . S
O1778 C1803 1.257 . S
H1779 C1804 0.930 . S
H1780 C1810 0.930 . S
O1781 Co1770 2.093 . S
O1781 C1773 1.224 . S
H1782 C1814 0.929 . S
H1783 C1816 0.930 . S
H1784 C1817 0.930 . S
H1785 C1815 0.929 . S
H1786 C1818 0.928 . S
O1787 Co1771 2.057 . S
O1787 C1775 1.232 . S
H1788 C1807 0.929 . S
H1789 C1808 0.929 . S
H1790 C1820 0.931 . S
H1791 C1812 0.929 . S
H1792 C1821 0.930 . S
H1793 C1813 0.931 . S
O1794 Co1770 2.097 . S
O1794 C1822 1.214 . S
H1795 C1823 0.929 . S
H1796 C1824 0.929 . S
H1797 C1825 0.930 . S
H1798 C1826 0.929 . S
H1799 C1828 0.930 . S
H1800 C1805 0.930 . S
H1801 C1809 0.930 . S
O1802 Co1771 2.037 . S
O1802 C1822 1.234 . S
C1803 O1777 1.269 . S
C1803 O1778 1.257 . S
C1804 H1779 0.930 . S
C1804 C1807 1.388 . S
C1804 C1809 1.418 . S
C1805 H1800 0.930 . S
C1805 C1808 1.404 . S
C1805 C1809 1.353 . S
N1806 Co1771 2.145 . S
N1806 C1807 1.397 . S
N1806 C1808 1.334 . S
C1807 H1788 0.929 . S
C1807 C1804 1.388 . S
C1807 N1806 1.397 . S
C1808 H1789 0.929 . S
C1808 C1805 1.404 . S
C1808 N1806 1.334 . S
C1809 H1801 0.930 . S
C1809 C1804 1.418 . S
C1809 C1805 1.353 . S
C1810 H1780 0.930 . S
C1810 N1811 1.330 . S
C1810 C1812 1.446 . S
N1811 Co1770 2.151 . S
N1811 C1810 1.330 . S
N1811 C1815 1.418 . S
C1812 H1791 0.929 . S
C1812 C1810 1.446 . S
C1812 C1813 1.332 . S
C1813 H1793 0.931 . S
C1813 C1812 1.332 . S
C1813 C1814 1.267 . S
C1814 H1782 0.929 . S
C1814 C1813 1.267 . S
C1814 C1815 1.251 . S
C1815 H1785 0.929 . S
C1815 N1811 1.418 . S
C1815 C1814 1.251 . S
C1816 H1783 0.930 . S
C1816 C1818 1.406 . S
C1816 C1821 1.261 . S
C1817 H1784 0.930 . S
C1817 N1819 1.325 . S
C1817 C1820 1.357 . S
C1818 H1786 0.928 . S
C1818 C1816 1.406 . S
C1818 N1819 1.261 . S
N1819 Co1770 2.214 . S
N1819 C1817 1.325 . S
N1819 C1818 1.261 . S
C1820 H1790 0.931 . S
C1820 C1817 1.357 . S
C1820 C1821 1.312 . S
C1821 H1792 0.930 . S
C1821 C1816 1.261 . S
C1821 C1820 1.312 . S
C1822 O1794 1.214 . S
C1822 O1802 1.234 . S
C1823 H1795 0.929 . S
C1823 C1826 1.391 . S
C1823 C1828 1.391 . S
C1824 H1796 0.929 . S
C1824 C1825 1.390 . S
C1824 N1827 1.391 . S
C1825 H1797 0.930 . S
C1825 C1824 1.390 . S
C1825 C1826 1.392 . S
C1826 H1798 0.929 . S
C1826 C1823 1.391 . S
C1826 C1825 1.392 . S
N1827 Co1771 2.257 . S
N1827 C1824 1.391 . S
N1827 C1828 1.388 . S
C1828 H1799 0.930 . S
C1828 C1823 1.391 . S
C1828 N1827 1.388 . S
Co1829 O1831 2.143 . S
Co1829 O1837 2.074 . S
Co1829 O1840 2.093 . S
Co1829 O1853 2.097 . S
Co1829 N1870 2.151 . S
Co1829 N1878 2.214 . S
Co1830 O1831 2.160 . S
Co1830 O1836 2.058 . S
Co1830 O1846 2.057 . S
Co1830 O1861 2.037 . S
Co1830 N1865 2.145 . S
Co1830 N1886 2.257 . S
O1831 Co1829 2.143 . S
O1831 Co1830 2.160 . S
C1832 O1833 1.278 . S
C1832 O1840 1.224 . S
O1833 C1832 1.278 . S
C1834 O1835 1.245 . S
C1834 O1846 1.232 . S
O1835 C1834 1.245 . S
O1836 Co1830 2.058 . S
O1836 C1862 1.269 . S
O1837 Co1829 2.074 . S
O1837 C1862 1.257 . S
H1838 C1863 0.930 . S
H1839 C1869 0.930 . S
O1840 Co1829 2.093 . S
O1840 C1832 1.224 . S
H1841 C1873 0.929 . S
H1842 C1875 0.930 . S
H1843 C1876 0.930 . S
H1844 C1874 0.929 . S
H1845 C1877 0.928 . S
O1846 Co1830 2.057 . S
O1846 C1834 1.232 . S
H1847 C1866 0.929 . S
H1848 C1867 0.929 . S
H1849 C1879 0.931 . S
H1850 C1871 0.929 . S
H1851 C1880 0.930 . S
H1852 C1872 0.931 . S
O1853 Co1829 2.097 . S
O1853 C1881 1.214 . S
H1854 C1882 0.929 . S
H1855 C1883 0.929 . S
H1856 C1884 0.930 . S
H1857 C1885 0.929 . S
H1858 C1887 0.930 . S
H1859 C1864 0.930 . S
H1860 C1868 0.930 . S
O1861 Co1830 2.037 . S
O1861 C1881 1.234 . S
C1862 O1836 1.269 . S
C1862 O1837 1.257 . S
C1863 H1838 0.930 . S
C1863 C1866 1.388 . S
C1863 C1868 1.418 . S
C1864 H1859 0.930 . S
C1864 C1867 1.404 . S
C1864 C1868 1.353 . S
N1865 Co1830 2.145 . S
N1865 C1866 1.397 . S
N1865 C1867 1.334 . S
C1866 H1847 0.929 . S
C1866 C1863 1.388 . S
C1866 N1865 1.397 . S
C1867 H1848 0.929 . S
C1867 C1864 1.404 . S
C1867 N1865 1.334 . S
C1868 H1860 0.930 . S
C1868 C1863 1.418 . S
C1868 C1864 1.353 . S
C1869 H1839 0.930 . S
C1869 N1870 1.330 . S
C1869 C1871 1.446 . S
N1870 Co1829 2.151 . S
N1870 C1869 1.330 . S
N1870 C1874 1.418 . S
C1871 H1850 0.929 . S
C1871 C1869 1.446 . S
C1871 C1872 1.332 . S
C1872 H1852 0.931 . S
C1872 C1871 1.332 . S
C1872 C1873 1.267 . S
C1873 H1841 0.929 . S
C1873 C1872 1.267 . S
C1873 C1874 1.251 . S
C1874 H1844 0.929 . S
C1874 N1870 1.418 . S
C1874 C1873 1.251 . S
C1875 H1842 0.930 . S
C1875 C1877 1.406 . S
C1875 C1880 1.261 . S
C1876 H1843 0.930 . S
C1876 N1878 1.325 . S
C1876 C1879 1.357 . S
C1877 H1845 0.928 . S
C1877 C1875 1.406 . S
C1877 N1878 1.261 . S
N1878 Co1829 2.214 . S
N1878 C1876 1.325 . S
N1878 C1877 1.261 . S
C1879 H1849 0.931 . S
C1879 C1876 1.357 . S
C1879 C1880 1.312 . S
C1880 H1851 0.930 . S
C1880 C1875 1.261 . S
C1880 C1879 1.312 . S
C1881 O1853 1.214 . S
C1881 O1861 1.234 . S
C1882 H1854 0.929 . S
C1882 C1885 1.391 . S
C1882 C1887 1.391 . S
C1883 H1855 0.929 . S
C1883 C1884 1.390 . S
C1883 N1886 1.391 . S
C1884 H1856 0.930 . S
C1884 C1883 1.390 . S
C1884 C1885 1.392 . S
C1885 H1857 0.929 . S
C1885 C1882 1.391 . S
C1885 C1884 1.392 . S
N1886 Co1830 2.257 . S
N1886 C1883 1.391 . S
N1886 C1887 1.388 . S
C1887 H1858 0.930 . S
C1887 C1882 1.391 . S
C1887 N1886 1.388 . S
Co1888 O1890 2.143 . S
Co1888 O1896 2.074 . S
Co1888 O1899 2.093 . S
Co1888 O1912 2.097 . S
Co1888 N1929 2.151 1_554 S
Co1888 N1937 2.214 . S
Co1889 O1890 2.160 . S
Co1889 O1895 2.058 . S
Co1889 O1905 2.057 . S
Co1889 O1920 2.037 . S
Co1889 N1924 2.145 . S
Co1889 N1945 2.257 . S
O1890 Co1888 2.143 . S
O1890 Co1889 2.160 . S
C1891 O1892 1.278 . S
C1891 O1899 1.224 . S
O1892 C1891 1.278 . S
C1893 O1894 1.245 . S
C1893 O1905 1.232 . S
O1894 C1893 1.245 . S
O1895 Co1889 2.058 . S
O1895 C1921 1.269 . S
O1896 Co1888 2.074 . S
O1896 C1921 1.257 . S
H1897 C1922 0.930 . S
H1898 C1928 0.930 . S
O1899 Co1888 2.093 . S
O1899 C1891 1.224 . S
H1900 C1932 0.929 . S
H1901 C1934 0.930 . S
H1902 C1935 0.930 . S
H1903 C1933 0.929 . S
H1904 C1936 0.928 . S
O1905 Co1889 2.057 . S
O1905 C1893 1.232 . S
H1906 C1925 0.929 . S
H1907 C1926 0.929 . S
H1908 C1938 0.931 . S
H1909 C1930 0.929 . S
H1910 C1939 0.930 . S
H1911 C1931 0.931 . S
O1912 Co1888 2.097 . S
O1912 C1940 1.214 . S
H1913 C1941 0.929 . S
H1914 C1942 0.929 . S
H1915 C1943 0.930 . S
H1916 C1944 0.929 . S
H1917 C1946 0.930 . S
H1918 C1923 0.930 . S
H1919 C1927 0.930 . S
O1920 Co1889 2.037 . S
O1920 C1940 1.234 . S
C1921 O1895 1.269 . S
C1921 O1896 1.257 . S
C1922 H1897 0.930 . S
C1922 C1925 1.388 . S
C1922 C1927 1.418 . S
C1923 H1918 0.930 . S
C1923 C1926 1.404 . S
C1923 C1927 1.353 . S
N1924 Co1889 2.145 . S
N1924 C1925 1.397 . S
N1924 C1926 1.334 . S
C1925 H1906 0.929 . S
C1925 C1922 1.388 . S
C1925 N1924 1.397 . S
C1926 H1907 0.929 . S
C1926 C1923 1.404 . S
C1926 N1924 1.334 . S
C1927 H1919 0.930 . S
C1927 C1922 1.418 . S
C1927 C1923 1.353 . S
C1928 H1898 0.930 . S
C1928 N1929 1.330 . S
C1928 C1930 1.446 . S
N1929 Co1888 2.151 1_556 S
N1929 C1928 1.330 . S
N1929 C1933 1.418 . S
C1930 H1909 0.929 . S
C1930 C1928 1.446 . S
C1930 C1931 1.332 . S
C1931 H1911 0.931 . S
C1931 C1930 1.332 . S
C1931 C1932 1.267 . S
C1932 H1900 0.929 . S
C1932 C1931 1.267 . S
C1932 C1933 1.251 . S
C1933 H1903 0.929 . S
C1933 N1929 1.418 . S
C1933 C1932 1.251 . S
C1934 H1901 0.930 . S
C1934 C1936 1.406 . S
C1934 C1939 1.261 . S
C1935 H1902 0.930 . S
C1935 N1937 1.325 . S
C1935 C1938 1.357 . S
C1936 H1904 0.928 . S
C1936 C1934 1.406 . S
C1936 N1937 1.261 1_556 S
N1937 Co1888 2.214 . S
N1937 C1935 1.325 . S
N1937 C1936 1.261 1_554 S
C1938 H1908 0.931 . S
C1938 C1935 1.357 . S
C1938 C1939 1.312 1_554 S
C1939 H1910 0.930 . S
C1939 C1934 1.261 . S
C1939 C1938 1.312 1_556 S
C1940 O1912 1.214 . S
C1940 O1920 1.234 . S
C1941 H1913 0.929 . S
C1941 C1944 1.391 . S
C1941 C1946 1.391 . S
C1942 H1914 0.929 . S
C1942 C1943 1.390 . S
C1942 N1945 1.391 . S
C1943 H1915 0.930 . S
C1943 C1942 1.390 . S
C1943 C1944 1.392 . S
C1944 H1916 0.929 . S
C1944 C1941 1.391 . S
C1944 C1943 1.392 . S
N1945 Co1889 2.257 . S
N1945 C1942 1.391 . S
N1945 C1946 1.388 . S
C1946 H1917 0.930 . S
C1946 C1941 1.391 . S
C1946 N1945 1.388 . S
Co1947 O1949 2.143 . S
Co1947 O1955 2.074 . S
Co1947 O1958 2.093 . S
Co1947 O1971 2.097 . S
Co1947 N1988 2.151 . S
Co1947 N1996 2.214 . S
Co1948 O1949 2.160 . S
Co1948 O1954 2.058 . S
Co1948 O1964 2.057 . S
Co1948 O1979 2.037 . S
Co1948 N1983 2.145 . S
Co1948 N2004 2.257 . S
O1949 Co1947 2.143 . S
O1949 Co1948 2.160 . S
C1950 O1951 1.278 . S
C1950 O1958 1.224 . S
O1951 C1950 1.278 . S
C1952 O1953 1.245 . S
C1952 O1964 1.232 . S
O1953 C1952 1.245 . S
O1954 Co1948 2.058 . S
O1954 C1980 1.269 . S
O1955 Co1947 2.074 . S
O1955 C1980 1.257 . S
H1956 C1981 0.930 . S
H1957 C1987 0.930 . S
O1958 Co1947 2.093 . S
O1958 C1950 1.224 . S
H1959 C1991 0.929 . S
H1960 C1993 0.930 . S
H1961 C1994 0.930 . S
H1962 C1992 0.929 . S
H1963 C1995 0.928 . S
O1964 Co1948 2.057 . S
O1964 C1952 1.232 . S
H1965 C1984 0.929 . S
H1966 C1985 0.929 . S
H1967 C1997 0.931 . S
H1968 C1989 0.929 . S
H1969 C1998 0.930 . S
H1970 C1990 0.931 . S
O1971 Co1947 2.097 . S
O1971 C1999 1.214 . S
H1972 C2000 0.929 . S
H1973 C2001 0.929 . S
H1974 C2002 0.930 . S
H1975 C2003 0.929 . S
H1976 C2005 0.930 . S
H1977 C1982 0.930 . S
H1978 C1986 0.930 . S
O1979 Co1948 2.037 . S
O1979 C1999 1.234 . S
C1980 O1954 1.269 . S
C1980 O1955 1.257 . S
C1981 H1956 0.930 . S
C1981 C1984 1.388 . S
C1981 C1986 1.418 . S
C1982 H1977 0.930 . S
C1982 C1985 1.404 . S
C1982 C1986 1.353 . S
N1983 Co1948 2.145 . S
N1983 C1984 1.397 . S
N1983 C1985 1.334 . S
C1984 H1965 0.929 . S
C1984 C1981 1.388 . S
C1984 N1983 1.397 . S
C1985 H1966 0.929 . S
C1985 C1982 1.404 . S
C1985 N1983 1.334 . S
C1986 H1978 0.930 . S
C1986 C1981 1.418 . S
C1986 C1982 1.353 . S
C1987 H1957 0.930 . S
C1987 N1988 1.330 . S
C1987 C1989 1.446 . S
N1988 Co1947 2.151 . S
N1988 C1987 1.330 . S
N1988 C1992 1.418 . S
C1989 H1968 0.929 . S
C1989 C1987 1.446 . S
C1989 C1990 1.332 . S
C1990 H1970 0.931 . S
C1990 C1989 1.332 . S
C1990 C1991 1.267 . S
C1991 H1959 0.929 . S
C1991 C1990 1.267 . S
C1991 C1992 1.251 . S
C1992 H1962 0.929 . S
C1992 N1988 1.418 . S
C1992 C1991 1.251 . S
C1993 H1960 0.930 . S
C1993 C1995 1.406 . S
C1993 C1998 1.261 . S
C1994 H1961 0.930 . S
C1994 N1996 1.325 . S
C1994 C1997 1.357 . S
C1995 H1963 0.928 . S
C1995 C1993 1.406 . S
C1995 N1996 1.261 . S
N1996 Co1947 2.214 . S
N1996 C1994 1.325 . S
N1996 C1995 1.261 . S
C1997 H1967 0.931 . S
C1997 C1994 1.357 . S
C1997 C1998 1.312 . S
C1998 H1969 0.930 . S
C1998 C1993 1.261 . S
C1998 C1997 1.312 . S
C1999 O1971 1.214 . S
C1999 O1979 1.234 . S
C2000 H1972 0.929 . S
C2000 C2003 1.391 . S
C2000 C2005 1.391 . S
C2001 H1973 0.929 . S
C2001 C2002 1.390 . S
C2001 N2004 1.391 . S
C2002 H1974 0.930 . S
C2002 C2001 1.390 . S
C2002 C2003 1.392 . S
C2003 H1975 0.929 . S
C2003 C2000 1.391 . S
C2003 C2002 1.392 . S
N2004 Co1948 2.257 . S
N2004 C2001 1.391 . S
N2004 C2005 1.388 . S
C2005 H1976 0.930 . S
C2005 C2000 1.391 . S
C2005 N2004 1.388 . S
Co2006 O2008 2.143 . S
Co2006 O2014 2.074 . S
Co2006 O2017 2.093 . S
Co2006 O2030 2.097 . S
Co2006 N2047 2.151 . S
Co2006 N2055 2.214 . S
Co2007 O2008 2.160 . S
Co2007 O2013 2.058 . S
Co2007 O2023 2.057 . S
Co2007 O2038 2.037 . S
Co2007 N2042 2.145 . S
Co2007 N2063 2.257 . S
O2008 Co2006 2.143 . S
O2008 Co2007 2.160 . S
C2009 O2010 1.278 . S
C2009 O2017 1.224 . S
O2010 C2009 1.278 . S
C2011 O2012 1.245 . S
C2011 O2023 1.232 . S
O2012 C2011 1.245 . S
O2013 Co2007 2.058 . S
O2013 C2039 1.269 . S
O2014 Co2006 2.074 . S
O2014 C2039 1.257 . S
H2015 C2040 0.930 . S
H2016 C2046 0.930 . S
O2017 Co2006 2.093 . S
O2017 C2009 1.224 . S
H2018 C2050 0.929 . S
H2019 C2052 0.930 . S
H2020 C2053 0.930 . S
H2021 C2051 0.929 . S
H2022 C2054 0.928 . S
O2023 Co2007 2.057 . S
O2023 C2011 1.232 . S
H2024 C2043 0.929 . S
H2025 C2044 0.929 . S
H2026 C2056 0.931 . S
H2027 C2048 0.929 . S
H2028 C2057 0.930 . S
H2029 C2049 0.931 . S
O2030 Co2006 2.097 . S
O2030 C2058 1.214 . S
H2031 C2059 0.929 . S
H2032 C2060 0.929 . S
H2033 C2061 0.930 . S
H2034 C2062 0.929 . S
H2035 C2064 0.930 . S
H2036 C2041 0.930 . S
H2037 C2045 0.930 . S
O2038 Co2007 2.037 . S
O2038 C2058 1.234 . S
C2039 O2013 1.269 . S
C2039 O2014 1.257 . S
C2040 H2015 0.930 . S
C2040 C2043 1.388 . S
C2040 C2045 1.418 . S
C2041 H2036 0.930 . S
C2041 C2044 1.404 . S
C2041 C2045 1.353 . S
N2042 Co2007 2.145 . S
N2042 C2043 1.397 . S
N2042 C2044 1.334 . S
C2043 H2024 0.929 . S
C2043 C2040 1.388 . S
C2043 N2042 1.397 . S
C2044 H2025 0.929 . S
C2044 C2041 1.404 . S
C2044 N2042 1.334 . S
C2045 H2037 0.930 . S
C2045 C2040 1.418 . S
C2045 C2041 1.353 . S
C2046 H2016 0.930 . S
C2046 N2047 1.330 . S
C2046 C2048 1.446 . S
N2047 Co2006 2.151 . S
N2047 C2046 1.330 . S
N2047 C2051 1.418 . S
C2048 H2027 0.929 . S
C2048 C2046 1.446 . S
C2048 C2049 1.332 . S
C2049 H2029 0.931 . S
C2049 C2048 1.332 . S
C2049 C2050 1.267 . S
C2050 H2018 0.929 . S
C2050 C2049 1.267 . S
C2050 C2051 1.251 . S
C2051 H2021 0.929 . S
C2051 N2047 1.418 . S
C2051 C2050 1.251 . S
C2052 H2019 0.930 . S
C2052 C2054 1.406 . S
C2052 C2057 1.261 . S
C2053 H2020 0.930 . S
C2053 N2055 1.325 . S
C2053 C2056 1.357 . S
C2054 H2022 0.928 . S
C2054 C2052 1.406 . S
C2054 N2055 1.261 . S
N2055 Co2006 2.214 . S
N2055 C2053 1.325 . S
N2055 C2054 1.261 . S
C2056 H2026 0.931 . S
C2056 C2053 1.357 . S
C2056 C2057 1.312 . S
C2057 H2028 0.930 . S
C2057 C2052 1.261 . S
C2057 C2056 1.312 . S
C2058 O2030 1.214 . S
C2058 O2038 1.234 . S
C2059 H2031 0.929 . S
C2059 C2062 1.391 . S
C2059 C2064 1.391 . S
C2060 H2032 0.929 . S
C2060 C2061 1.390 . S
C2060 N2063 1.391 . S
C2061 H2033 0.930 . S
C2061 C2060 1.390 . S
C2061 C2062 1.392 . S
C2062 H2034 0.929 . S
C2062 C2059 1.391 . S
C2062 C2061 1.392 . S
N2063 Co2007 2.257 . S
N2063 C2060 1.391 . S
N2063 C2064 1.388 . S
C2064 H2035 0.930 . S
C2064 C2059 1.391 . S
C2064 N2063 1.388 . S
Co2065 O2067 2.143 . S
Co2065 O2073 2.074 . S
Co2065 O2076 2.093 . S
Co2065 O2089 2.097 . S
Co2065 N2106 2.151 . S
Co2065 N2114 2.214 . S
Co2066 O2067 2.160 . S
Co2066 O2072 2.058 . S
Co2066 O2082 2.057 . S
Co2066 O2097 2.037 . S
Co2066 N2101 2.145 . S
Co2066 N2122 2.257 . S
O2067 Co2065 2.143 . S
O2067 Co2066 2.160 . S
C2068 O2069 1.278 . S
C2068 O2076 1.224 . S
O2069 C2068 1.278 . S
C2070 O2071 1.245 . S
C2070 O2082 1.232 . S
O2071 C2070 1.245 . S
O2072 Co2066 2.058 . S
O2072 C2098 1.269 . S
O2073 Co2065 2.074 . S
O2073 C2098 1.257 . S
H2074 C2099 0.930 . S
H2075 C2105 0.930 . S
O2076 Co2065 2.093 . S
O2076 C2068 1.224 . S
H2077 C2109 0.929 . S
H2078 C2111 0.930 . S
H2079 C2112 0.930 . S
H2080 C2110 0.929 . S
H2081 C2113 0.928 . S
O2082 Co2066 2.057 . S
O2082 C2070 1.232 . S
H2083 C2102 0.929 . S
H2084 C2103 0.929 . S
H2085 C2115 0.931 . S
H2086 C2107 0.929 . S
H2087 C2116 0.930 . S
H2088 C2108 0.931 . S
O2089 Co2065 2.097 . S
O2089 C2117 1.214 . S
H2090 C2118 0.929 . S
H2091 C2119 0.929 . S
H2092 C2120 0.930 . S
H2093 C2121 0.929 . S
H2094 C2123 0.930 . S
H2095 C2100 0.930 . S
H2096 C2104 0.930 . S
O2097 Co2066 2.037 . S
O2097 C2117 1.234 . S
C2098 O2072 1.269 . S
C2098 O2073 1.257 . S
C2099 H2074 0.930 . S
C2099 C2102 1.388 . S
C2099 C2104 1.418 . S
C2100 H2095 0.930 . S
C2100 C2103 1.404 . S
C2100 C2104 1.353 . S
N2101 Co2066 2.145 . S
N2101 C2102 1.397 . S
N2101 C2103 1.334 . S
C2102 H2083 0.929 . S
C2102 C2099 1.388 . S
C2102 N2101 1.397 . S
C2103 H2084 0.929 . S
C2103 C2100 1.404 . S
C2103 N2101 1.334 . S
C2104 H2096 0.930 . S
C2104 C2099 1.418 . S
C2104 C2100 1.353 . S
C2105 H2075 0.930 . S
C2105 N2106 1.330 . S
C2105 C2107 1.446 . S
N2106 Co2065 2.151 . S
N2106 C2105 1.330 . S
N2106 C2110 1.418 . S
C2107 H2086 0.929 . S
C2107 C2105 1.446 . S
C2107 C2108 1.332 . S
C2108 H2088 0.931 . S
C2108 C2107 1.332 . S
C2108 C2109 1.267 . S
C2109 H2077 0.929 . S
C2109 C2108 1.267 . S
C2109 C2110 1.251 . S
C2110 H2080 0.929 . S
C2110 N2106 1.418 . S
C2110 C2109 1.251 . S
C2111 H2078 0.930 . S
C2111 C2113 1.406 . S
C2111 C2116 1.261 . S
C2112 H2079 0.930 . S
C2112 N2114 1.325 . S
C2112 C2115 1.357 . S
C2113 H2081 0.928 . S
C2113 C2111 1.406 . S
C2113 N2114 1.261 . S
N2114 Co2065 2.214 . S
N2114 C2112 1.325 . S
N2114 C2113 1.261 . S
C2115 H2085 0.931 . S
C2115 C2112 1.357 . S
C2115 C2116 1.312 . S
C2116 H2087 0.930 . S
C2116 C2111 1.261 . S
C2116 C2115 1.312 . S
C2117 O2089 1.214 . S
C2117 O2097 1.234 . S
C2118 H2090 0.929 . S
C2118 C2121 1.391 . S
C2118 C2123 1.391 . S
C2119 H2091 0.929 . S
C2119 C2120 1.390 . S
C2119 N2122 1.391 . S
C2120 H2092 0.930 . S
C2120 C2119 1.390 . S
C2120 C2121 1.392 . S
C2121 H2093 0.929 . S
C2121 C2118 1.391 . S
C2121 C2120 1.392 . S
N2122 Co2066 2.257 . S
N2122 C2119 1.391 . S
N2122 C2123 1.388 . S
C2123 H2094 0.930 . S
C2123 C2118 1.391 . S
C2123 N2122 1.388 . S
Co2124 O2126 2.143 . S
Co2124 O2132 2.074 . S
Co2124 O2135 2.093 . S
Co2124 O2148 2.097 . S
Co2124 N2165 2.151 1_556 S
Co2124 N2173 2.214 . S
Co2125 O2126 2.160 . S
Co2125 O2131 2.058 . S
Co2125 O2141 2.057 . S
Co2125 O2156 2.037 . S
Co2125 N2160 2.145 . S
Co2125 N2181 2.257 . S
O2126 Co2124 2.143 . S
O2126 Co2125 2.160 . S
C2127 O2128 1.278 . S
C2127 O2135 1.224 . S
O2128 C2127 1.278 . S
C2129 O2130 1.245 . S
C2129 O2141 1.232 . S
O2130 C2129 1.245 . S
O2131 Co2125 2.058 . S
O2131 C2157 1.269 . S
O2132 Co2124 2.074 . S
O2132 C2157 1.257 . S
H2133 C2158 0.930 . S
H2134 C2164 0.930 . S
O2135 Co2124 2.093 . S
O2135 C2127 1.224 . S
H2136 C2168 0.929 . S
H2137 C2170 0.930 . S
H2138 C2171 0.930 . S
H2139 C2169 0.929 . S
H2140 C2172 0.928 . S
O2141 Co2125 2.057 . S
O2141 C2129 1.232 . S
H2142 C2161 0.929 . S
H2143 C2162 0.929 . S
H2144 C2174 0.931 . S
H2145 C2166 0.929 . S
H2146 C2175 0.930 . S
H2147 C2167 0.931 . S
O2148 Co2124 2.097 . S
O2148 C2176 1.214 . S
H2149 C2177 0.929 . S
H2150 C2178 0.929 . S
H2151 C2179 0.930 . S
H2152 C2180 0.929 . S
H2153 C2182 0.930 . S
H2154 C2159 0.930 . S
H2155 C2163 0.930 . S
O2156 Co2125 2.037 . S
O2156 C2176 1.234 . S
C2157 O2131 1.269 . S
C2157 O2132 1.257 . S
C2158 H2133 0.930 . S
C2158 C2161 1.388 . S
C2158 C2163 1.418 . S
C2159 H2154 0.930 . S
C2159 C2162 1.404 . S
C2159 C2163 1.353 . S
N2160 Co2125 2.145 . S
N2160 C2161 1.397 . S
N2160 C2162 1.334 . S
C2161 H2142 0.929 . S
C2161 C2158 1.388 . S
C2161 N2160 1.397 . S
C2162 H2143 0.929 . S
C2162 C2159 1.404 . S
C2162 N2160 1.334 . S
C2163 H2155 0.930 . S
C2163 C2158 1.418 . S
C2163 C2159 1.353 . S
C2164 H2134 0.930 . S
C2164 N2165 1.330 . S
C2164 C2166 1.446 . S
N2165 Co2124 2.151 1_554 S
N2165 C2164 1.330 . S
N2165 C2169 1.418 . S
C2166 H2145 0.929 . S
C2166 C2164 1.446 . S
C2166 C2167 1.332 . S
C2167 H2147 0.931 . S
C2167 C2166 1.332 . S
C2167 C2168 1.267 . S
C2168 H2136 0.929 . S
C2168 C2167 1.267 . S
C2168 C2169 1.251 . S
C2169 H2139 0.929 . S
C2169 N2165 1.418 . S
C2169 C2168 1.251 . S
C2170 H2137 0.930 . S
C2170 C2172 1.406 . S
C2170 C2175 1.261 . S
C2171 H2138 0.930 . S
C2171 N2173 1.325 . S
C2171 C2174 1.357 . S
C2172 H2140 0.928 . S
C2172 C2170 1.406 . S
C2172 N2173 1.261 1_554 S
N2173 Co2124 2.214 . S
N2173 C2171 1.325 . S
N2173 C2172 1.261 1_556 S
C2174 H2144 0.931 . S
C2174 C2171 1.357 . S
C2174 C2175 1.312 1_556 S
C2175 H2146 0.930 . S
C2175 C2170 1.261 . S
C2175 C2174 1.312 1_554 S
C2176 O2148 1.214 . S
C2176 O2156 1.234 . S
C2177 H2149 0.929 . S
C2177 C2180 1.391 . S
C2177 C2182 1.391 . S
C2178 H2150 0.929 . S
C2178 C2179 1.390 . S
C2178 N2181 1.391 . S
C2179 H2151 0.930 . S
C2179 C2178 1.390 . S
C2179 C2180 1.392 . S
C2180 H2152 0.929 . S
C2180 C2177 1.391 . S
C2180 C2179 1.392 . S
N2181 Co2125 2.257 . S
N2181 C2178 1.391 . S
N2181 C2182 1.388 . S
C2182 H2153 0.930 . S
C2182 C2177 1.391 . S
C2182 N2181 1.388 . S
Co2183 O2185 2.143 . S
Co2183 O2191 2.074 . S
Co2183 O2194 2.093 . S
Co2183 O2207 2.097 . S
Co2183 N2224 2.151 . S
Co2183 N2232 2.214 . S
Co2184 O2185 2.160 . S
Co2184 O2190 2.058 . S
Co2184 O2200 2.057 . S
Co2184 O2215 2.037 . S
Co2184 N2219 2.145 . S
Co2184 N2240 2.257 . S
O2185 Co2183 2.143 . S
O2185 Co2184 2.160 . S
C2186 O2187 1.278 . S
C2186 O2194 1.224 . S
O2187 C2186 1.278 . S
C2188 O2189 1.245 . S
C2188 O2200 1.232 . S
O2189 C2188 1.245 . S
O2190 Co2184 2.058 . S
O2190 C2216 1.269 . S
O2191 Co2183 2.074 . S
O2191 C2216 1.257 . S
H2192 C2217 0.930 . S
H2193 C2223 0.930 . S
O2194 Co2183 2.093 . S
O2194 C2186 1.224 . S
H2195 C2227 0.929 . S
H2196 C2229 0.930 . S
H2197 C2230 0.930 . S
H2198 C2228 0.929 . S
H2199 C2231 0.928 . S
O2200 Co2184 2.057 . S
O2200 C2188 1.232 . S
H2201 C2220 0.929 . S
H2202 C2221 0.929 . S
H2203 C2233 0.931 . S
H2204 C2225 0.929 . S
H2205 C2234 0.930 . S
H2206 C2226 0.931 . S
O2207 Co2183 2.097 . S
O2207 C2235 1.214 . S
H2208 C2236 0.929 . S
H2209 C2237 0.929 . S
H2210 C2238 0.930 . S
H2211 C2239 0.929 . S
H2212 C2241 0.930 . S
H2213 C2218 0.930 . S
H2214 C2222 0.930 . S
O2215 Co2184 2.037 . S
O2215 C2235 1.234 . S
C2216 O2190 1.269 . S
C2216 O2191 1.257 . S
C2217 H2192 0.930 . S
C2217 C2220 1.388 . S
C2217 C2222 1.418 . S
C2218 H2213 0.930 . S
C2218 C2221 1.404 . S
C2218 C2222 1.353 . S
N2219 Co2184 2.145 . S
N2219 C2220 1.397 . S
N2219 C2221 1.334 . S
C2220 H2201 0.929 . S
C2220 C2217 1.388 . S
C2220 N2219 1.397 . S
C2221 H2202 0.929 . S
C2221 C2218 1.404 . S
C2221 N2219 1.334 . S
C2222 H2214 0.930 . S
C2222 C2217 1.418 . S
C2222 C2218 1.353 . S
C2223 H2193 0.930 . S
C2223 N2224 1.330 . S
C2223 C2225 1.446 . S
N2224 Co2183 2.151 . S
N2224 C2223 1.330 . S
N2224 C2228 1.418 . S
C2225 H2204 0.929 . S
C2225 C2223 1.446 . S
C2225 C2226 1.332 . S
C2226 H2206 0.931 . S
C2226 C2225 1.332 . S
C2226 C2227 1.267 . S
C2227 H2195 0.929 . S
C2227 C2226 1.267 . S
C2227 C2228 1.251 . S
C2228 H2198 0.929 . S
C2228 N2224 1.418 . S
C2228 C2227 1.251 . S
C2229 H2196 0.930 . S
C2229 C2231 1.406 . S
C2229 C2234 1.261 . S
C2230 H2197 0.930 . S
C2230 N2232 1.325 . S
C2230 C2233 1.357 . S
C2231 H2199 0.928 . S
C2231 C2229 1.406 . S
C2231 N2232 1.261 . S
N2232 Co2183 2.214 . S
N2232 C2230 1.325 . S
N2232 C2231 1.261 . S
C2233 H2203 0.931 . S
C2233 C2230 1.357 . S
C2233 C2234 1.312 . S
C2234 H2205 0.930 . S
C2234 C2229 1.261 . S
C2234 C2233 1.312 . S
C2235 O2207 1.214 . S
C2235 O2215 1.234 . S
C2236 H2208 0.929 . S
C2236 C2239 1.391 . S
C2236 C2241 1.391 . S
C2237 H2209 0.929 . S
C2237 C2238 1.390 . S
C2237 N2240 1.391 . S
C2238 H2210 0.930 . S
C2238 C2237 1.390 . S
C2238 C2239 1.392 . S
C2239 H2211 0.929 . S
C2239 C2236 1.391 . S
C2239 C2238 1.392 . S
N2240 Co2184 2.257 . S
N2240 C2237 1.391 . S
N2240 C2241 1.388 . S
C2241 H2212 0.930 . S
C2241 C2236 1.391 . S
C2241 N2240 1.388 . S
Co2242 O2244 2.143 . S
Co2242 O2250 2.074 . S
Co2242 O2253 2.093 . S
Co2242 O2266 2.097 . S
Co2242 N2283 2.151 . S
Co2242 N2291 2.214 . S
Co2243 O2244 2.160 . S
Co2243 O2249 2.058 . S
Co2243 O2259 2.057 . S
Co2243 O2274 2.037 . S
Co2243 N2278 2.145 . S
Co2243 N2299 2.257 . S
O2244 Co2242 2.143 . S
O2244 Co2243 2.160 . S
C2245 O2246 1.278 . S
C2245 O2253 1.224 . S
O2246 C2245 1.278 . S
C2247 O2248 1.245 . S
C2247 O2259 1.232 . S
O2248 C2247 1.245 . S
O2249 Co2243 2.058 . S
O2249 C2275 1.269 . S
O2250 Co2242 2.074 . S
O2250 C2275 1.257 . S
H2251 C2276 0.930 . S
H2252 C2282 0.930 . S
O2253 Co2242 2.093 . S
O2253 C2245 1.224 . S
H2254 C2286 0.929 . S
H2255 C2288 0.930 . S
H2256 C2289 0.930 . S
H2257 C2287 0.929 . S
H2258 C2290 0.928 . S
O2259 Co2243 2.057 . S
O2259 C2247 1.232 . S
H2260 C2279 0.929 . S
H2261 C2280 0.929 . S
H2262 C2292 0.931 . S
H2263 C2284 0.929 . S
H2264 C2293 0.930 . S
H2265 C2285 0.931 . S
O2266 Co2242 2.097 . S
O2266 C2294 1.214 . S
H2267 C2295 0.929 . S
H2268 C2296 0.929 . S
H2269 C2297 0.930 . S
H2270 C2298 0.929 . S
H2271 C2300 0.930 . S
H2272 C2277 0.930 . S
H2273 C2281 0.930 . S
O2274 Co2243 2.037 . S
O2274 C2294 1.234 . S
C2275 O2249 1.269 . S
C2275 O2250 1.257 . S
C2276 H2251 0.930 . S
C2276 C2279 1.388 . S
C2276 C2281 1.418 . S
C2277 H2272 0.930 . S
C2277 C2280 1.404 . S
C2277 C2281 1.353 . S
N2278 Co2243 2.145 . S
N2278 C2279 1.397 . S
N2278 C2280 1.334 . S
C2279 H2260 0.929 . S
C2279 C2276 1.388 . S
C2279 N2278 1.397 . S
C2280 H2261 0.929 . S
C2280 C2277 1.404 . S
C2280 N2278 1.334 . S
C2281 H2273 0.930 . S
C2281 C2276 1.418 . S
C2281 C2277 1.353 . S
C2282 H2252 0.930 . S
C2282 N2283 1.330 . S
C2282 C2284 1.446 . S
N2283 Co2242 2.151 . S
N2283 C2282 1.330 . S
N2283 C2287 1.418 . S
C2284 H2263 0.929 . S
C2284 C2282 1.446 . S
C2284 C2285 1.332 . S
C2285 H2265 0.931 . S
C2285 C2284 1.332 . S
C2285 C2286 1.267 . S
C2286 H2254 0.929 . S
C2286 C2285 1.267 . S
C2286 C2287 1.251 . S
C2287 H2257 0.929 . S
C2287 N2283 1.418 . S
C2287 C2286 1.251 . S
C2288 H2255 0.930 . S
C2288 C2290 1.406 . S
C2288 C2293 1.261 . S
C2289 H2256 0.930 . S
C2289 N2291 1.325 . S
C2289 C2292 1.357 . S
C2290 H2258 0.928 . S
C2290 C2288 1.406 . S
C2290 N2291 1.261 . S
N2291 Co2242 2.214 . S
N2291 C2289 1.325 . S
N2291 C2290 1.261 . S
C2292 H2262 0.931 . S
C2292 C2289 1.357 . S
C2292 C2293 1.312 . S
C2293 H2264 0.930 . S
C2293 C2288 1.261 . S
C2293 C2292 1.312 . S
C2294 O2266 1.214 . S
C2294 O2274 1.234 . S
C2295 H2267 0.929 . S
C2295 C2298 1.391 . S
C2295 C2300 1.391 . S
C2296 H2268 0.929 . S
C2296 C2297 1.390 . S
C2296 N2299 1.391 . S
C2297 H2269 0.930 . S
C2297 C2296 1.390 . S
C2297 C2298 1.392 . S
C2298 H2270 0.929 . S
C2298 C2295 1.391 . S
C2298 C2297 1.392 . S
N2299 Co2243 2.257 . S
N2299 C2296 1.391 . S
N2299 C2300 1.388 . S
C2300 H2271 0.930 . S
C2300 C2295 1.391 . S
C2300 N2299 1.388 . S
Co2301 O2303 2.143 . S
Co2301 O2309 2.074 . S
Co2301 O2312 2.093 . S
Co2301 O2325 2.097 . S
Co2301 N2342 2.151 . S
Co2301 N2350 2.214 . S
Co2302 O2303 2.160 . S
Co2302 O2308 2.058 . S
Co2302 O2318 2.057 . S
Co2302 O2333 2.037 . S
Co2302 N2337 2.145 . S
Co2302 N2358 2.257 . S
O2303 Co2301 2.143 . S
O2303 Co2302 2.160 . S
C2304 O2305 1.278 . S
C2304 O2312 1.224 . S
O2305 C2304 1.278 . S
C2306 O2307 1.245 . S
C2306 O2318 1.232 . S
O2307 C2306 1.245 . S
O2308 Co2302 2.058 . S
O2308 C2334 1.269 . S
O2309 Co2301 2.074 . S
O2309 C2334 1.257 . S
H2310 C2335 0.930 . S
H2311 C2341 0.930 . S
O2312 Co2301 2.093 . S
O2312 C2304 1.224 . S
H2313 C2345 0.929 . S
H2314 C2347 0.930 . S
H2315 C2348 0.930 . S
H2316 C2346 0.929 . S
H2317 C2349 0.928 . S
O2318 Co2302 2.057 . S
O2318 C2306 1.232 . S
H2319 C2338 0.929 . S
H2320 C2339 0.929 . S
H2321 C2351 0.931 . S
H2322 C2343 0.929 . S
H2323 C2352 0.930 . S
H2324 C2344 0.931 . S
O2325 Co2301 2.097 . S
O2325 C2353 1.214 . S
H2326 C2354 0.929 . S
H2327 C2355 0.929 . S
H2328 C2356 0.930 . S
H2329 C2357 0.929 . S
H2330 C2359 0.930 . S
H2331 C2336 0.930 . S
H2332 C2340 0.930 . S
O2333 Co2302 2.037 . S
O2333 C2353 1.234 . S
C2334 O2308 1.269 . S
C2334 O2309 1.257 . S
C2335 H2310 0.930 . S
C2335 C2338 1.388 . S
C2335 C2340 1.418 . S
C2336 H2331 0.930 . S
C2336 C2339 1.404 . S
C2336 C2340 1.353 . S
N2337 Co2302 2.145 . S
N2337 C2338 1.397 . S
N2337 C2339 1.334 . S
C2338 H2319 0.929 . S
C2338 C2335 1.388 . S
C2338 N2337 1.397 . S
C2339 H2320 0.929 . S
C2339 C2336 1.404 . S
C2339 N2337 1.334 . S
C2340 H2332 0.930 . S
C2340 C2335 1.418 . S
C2340 C2336 1.353 . S
C2341 H2311 0.930 . S
C2341 N2342 1.330 . S
C2341 C2343 1.446 . S
N2342 Co2301 2.151 . S
N2342 C2341 1.330 . S
N2342 C2346 1.418 . S
C2343 H2322 0.929 . S
C2343 C2341 1.446 . S
C2343 C2344 1.332 . S
C2344 H2324 0.931 . S
C2344 C2343 1.332 . S
C2344 C2345 1.267 . S
C2345 H2313 0.929 . S
C2345 C2344 1.267 . S
C2345 C2346 1.251 . S
C2346 H2316 0.929 . S
C2346 N2342 1.418 . S
C2346 C2345 1.251 . S
C2347 H2314 0.930 . S
C2347 C2349 1.406 . S
C2347 C2352 1.261 . S
C2348 H2315 0.930 . S
C2348 N2350 1.325 . S
C2348 C2351 1.357 . S
C2349 H2317 0.928 . S
C2349 C2347 1.406 . S
C2349 N2350 1.261 . S
N2350 Co2301 2.214 . S
N2350 C2348 1.325 . S
N2350 C2349 1.261 . S
C2351 H2321 0.931 . S
C2351 C2348 1.357 . S
C2351 C2352 1.312 . S
C2352 H2323 0.930 . S
C2352 C2347 1.261 . S
C2352 C2351 1.312 . S
C2353 O2325 1.214 . S
C2353 O2333 1.234 . S
C2354 H2326 0.929 . S
C2354 C2357 1.391 . S
C2354 C2359 1.391 . S
C2355 H2327 0.929 . S
C2355 C2356 1.390 . S
C2355 N2358 1.391 . S
C2356 H2328 0.930 . S
C2356 C2355 1.390 . S
C2356 C2357 1.392 . S
C2357 H2329 0.929 . S
C2357 C2354 1.391 . S
C2357 C2356 1.392 . S
N2358 Co2302 2.257 . S
N2358 C2355 1.391 . S
N2358 C2359 1.388 . S
C2359 H2330 0.930 . S
C2359 C2354 1.391 . S
C2359 N2358 1.388 . S
Co2360 O2362 2.143 . S
Co2360 O2368 2.074 . S
Co2360 O2371 2.093 . S
Co2360 O2384 2.097 . S
Co2360 N2401 2.151 . S
Co2360 N2409 2.214 . S
Co2361 O2362 2.160 . S
Co2361 O2367 2.058 . S
Co2361 O2377 2.057 . S
Co2361 O2392 2.037 . S
Co2361 N2396 2.145 . S
Co2361 N2417 2.257 . S
O2362 Co2360 2.143 . S
O2362 Co2361 2.160 . S
C2363 O2364 1.278 . S
C2363 O2371 1.224 . S
O2364 C2363 1.278 . S
C2365 O2366 1.245 . S
C2365 O2377 1.232 . S
O2366 C2365 1.245 . S
O2367 Co2361 2.058 . S
O2367 C2393 1.269 . S
O2368 Co2360 2.074 . S
O2368 C2393 1.257 . S
H2369 C2394 0.930 . S
H2370 C2400 0.930 . S
O2371 Co2360 2.093 . S
O2371 C2363 1.224 . S
H2372 C2404 0.929 . S
H2373 C2406 0.930 . S
H2374 C2407 0.930 . S
H2375 C2405 0.929 . S
H2376 C2408 0.928 . S
O2377 Co2361 2.057 . S
O2377 C2365 1.232 . S
H2378 C2397 0.929 . S
H2379 C2398 0.929 . S
H2380 C2410 0.931 . S
H2381 C2402 0.929 . S
H2382 C2411 0.930 . S
H2383 C2403 0.931 . S
O2384 Co2360 2.097 . S
O2384 C2412 1.214 . S
H2385 C2413 0.929 . S
H2386 C2414 0.929 . S
H2387 C2415 0.930 . S
H2388 C2416 0.929 . S
H2389 C2418 0.930 . S
H2390 C2395 0.930 . S
H2391 C2399 0.930 . S
O2392 Co2361 2.037 . S
O2392 C2412 1.234 . S
C2393 O2367 1.269 . S
C2393 O2368 1.257 . S
C2394 H2369 0.930 . S
C2394 C2397 1.388 . S
C2394 C2399 1.418 . S
C2395 H2390 0.930 . S
C2395 C2398 1.404 . S
C2395 C2399 1.353 . S
N2396 Co2361 2.145 . S
N2396 C2397 1.397 . S
N2396 C2398 1.334 . S
C2397 H2378 0.929 . S
C2397 C2394 1.388 . S
C2397 N2396 1.397 . S
C2398 H2379 0.929 . S
C2398 C2395 1.404 . S
C2398 N2396 1.334 . S
C2399 H2391 0.930 . S
C2399 C2394 1.418 . S
C2399 C2395 1.353 . S
C2400 H2370 0.930 . S
C2400 N2401 1.330 . S
C2400 C2402 1.446 . S
N2401 Co2360 2.151 . S
N2401 C2400 1.330 . S
N2401 C2405 1.418 . S
C2402 H2381 0.929 . S
C2402 C2400 1.446 . S
C2402 C2403 1.332 . S
C2403 H2383 0.931 . S
C2403 C2402 1.332 . S
C2403 C2404 1.267 . S
C2404 H2372 0.929 . S
C2404 C2403 1.267 . S
C2404 C2405 1.251 . S
C2405 H2375 0.929 . S
C2405 N2401 1.418 . S
C2405 C2404 1.251 . S
C2406 H2373 0.930 . S
C2406 C2408 1.406 . S
C2406 C2411 1.261 . S
C2407 H2374 0.930 . S
C2407 N2409 1.325 . S
C2407 C2410 1.357 . S
C2408 H2376 0.928 . S
C2408 C2406 1.406 . S
C2408 N2409 1.261 . S
N2409 Co2360 2.214 . S
N2409 C2407 1.325 . S
N2409 C2408 1.261 . S
C2410 H2380 0.931 . S
C2410 C2407 1.357 . S
C2410 C2411 1.312 . S
C2411 H2382 0.930 . S
C2411 C2406 1.261 . S
C2411 C2410 1.312 . S
C2412 O2384 1.214 . S
C2412 O2392 1.234 . S
C2413 H2385 0.929 . S
C2413 C2416 1.391 . S
C2413 C2418 1.391 . S
C2414 H2386 0.929 . S
C2414 C2415 1.390 . S
C2414 N2417 1.391 . S
C2415 H2387 0.930 . S
C2415 C2414 1.390 . S
C2415 C2416 1.392 . S
C2416 H2388 0.929 . S
C2416 C2413 1.391 . S
C2416 C2415 1.392 . S
N2417 Co2361 2.257 . S
N2417 C2414 1.391 . S
N2417 C2418 1.388 . S
C2418 H2389 0.930 . S
C2418 C2413 1.391 . S
C2418 N2417 1.388 . S
Co2419 O2421 2.143 . S
Co2419 O2427 2.074 . S
Co2419 O2430 2.093 . S
Co2419 O2443 2.097 . S
Co2419 N2460 2.151 . S
Co2419 N2468 2.214 . S
Co2420 O2421 2.160 . S
Co2420 O2426 2.058 . S
Co2420 O2436 2.056 1_455 S
Co2420 O2451 2.037 . S
Co2420 N2455 2.145 1_455 S
Co2420 N2476 2.257 1_455 S
O2421 Co2419 2.143 . S
O2421 Co2420 2.160 . S
C2422 O2423 1.278 . S
C2422 O2430 1.224 . S
O2423 C2422 1.278 . S
C2424 O2425 1.245 . S
C2424 O2436 1.231 1_455 S
O2425 C2424 1.245 . S
O2426 Co2420 2.058 . S
O2426 C2452 1.269 . S
O2427 Co2419 2.074 . S
O2427 C2452 1.257 . S
H2428 C2453 0.930 1_455 S
H2429 C2459 0.930 . S
O2430 Co2419 2.093 . S
O2430 C2422 1.224 . S
H2431 C2463 0.929 . S
H2432 C2465 0.930 . S
H2433 C2466 0.930 . S
H2434 C2464 0.929 . S
H2435 C2467 0.928 . S
O2436 Co2420 2.056 1_655 S
O2436 C2424 1.231 1_655 S
H2437 C2456 0.929 . S
H2438 C2457 0.929 . S
H2439 C2469 0.931 . S
H2440 C2461 0.929 . S
H2441 C2470 0.930 . S
H2442 C2462 0.931 . S
O2443 Co2419 2.097 . S
O2443 C2471 1.214 . S
H2444 C2472 0.929 . S
H2445 C2473 0.929 . S
H2446 C2474 0.930 . S
H2447 C2475 0.929 . S
H2448 C2477 0.930 . S
H2449 C2454 0.930 . S
H2450 C2458 0.930 . S
O2451 Co2420 2.037 . S
O2451 C2471 1.234 . S
C2452 O2426 1.269 . S
C2452 O2427 1.257 . S
C2453 H2428 0.930 1_655 S
C2453 C2456 1.388 1_655 S
C2453 C2458 1.418 . S
C2454 H2449 0.930 . S
C2454 C2457 1.404 . S
C2454 C2458 1.353 . S
N2455 Co2420 2.145 1_655 S
N2455 C2456 1.397 1_655 S
N2455 C2457 1.334 . S
C2456 H2437 0.929 . S
C2456 C2453 1.388 1_455 S
C2456 N2455 1.397 1_455 S
C2457 H2438 0.929 . S
C2457 C2454 1.404 . S
C2457 N2455 1.334 . S
C2458 H2450 0.930 . S
C2458 C2453 1.418 . S
C2458 C2454 1.353 . S
C2459 H2429 0.930 . S
C2459 N2460 1.330 . S
C2459 C2461 1.446 . S
N2460 Co2419 2.151 . S
N2460 C2459 1.330 . S
N2460 C2464 1.418 . S
C2461 H2440 0.929 . S
C2461 C2459 1.446 . S
C2461 C2462 1.332 . S
C2462 H2442 0.931 . S
C2462 C2461 1.332 . S
C2462 C2463 1.267 . S
C2463 H2431 0.929 . S
C2463 C2462 1.267 . S
C2463 C2464 1.251 . S
C2464 H2434 0.929 . S
C2464 N2460 1.418 . S
C2464 C2463 1.251 . S
C2465 H2432 0.930 . S
C2465 C2467 1.406 . S
C2465 C2470 1.261 . S
C2466 H2433 0.930 . S
C2466 N2468 1.325 . S
C2466 C2469 1.357 . S
C2467 H2435 0.928 . S
C2467 C2465 1.406 . S
C2467 N2468 1.261 . S
N2468 Co2419 2.214 . S
N2468 C2466 1.325 . S
N2468 C2467 1.261 . S
C2469 H2439 0.931 . S
C2469 C2466 1.357 . S
C2469 C2470 1.312 . S
C2470 H2441 0.930 . S
C2470 C2465 1.261 . S
C2470 C2469 1.312 . S
C2471 O2443 1.214 . S
C2471 O2451 1.234 . S
C2472 H2444 0.929 . S
C2472 C2475 1.391 . S
C2472 C2477 1.391 . S
C2473 H2445 0.929 . S
C2473 C2474 1.390 . S
C2473 N2476 1.391 . S
C2474 H2446 0.930 . S
C2474 C2473 1.390 . S
C2474 C2475 1.392 . S
C2475 H2447 0.929 . S
C2475 C2472 1.391 . S
C2475 C2474 1.392 . S
N2476 Co2420 2.257 1_655 S
N2476 C2473 1.391 . S
N2476 C2477 1.388 . S
C2477 H2448 0.930 . S
C2477 C2472 1.391 . S
C2477 N2476 1.388 . S
Co2478 O2480 2.143 . S
Co2478 O2486 2.074 . S
Co2478 O2489 2.093 . S
Co2478 O2502 2.097 . S
Co2478 N2519 2.151 . S
Co2478 N2527 2.214 . S
Co2479 O2480 2.160 . S
Co2479 O2485 2.058 . S
Co2479 O2495 2.057 . S
Co2479 O2510 2.037 . S
Co2479 N2514 2.145 . S
Co2479 N2535 2.257 . S
O2480 Co2478 2.143 . S
O2480 Co2479 2.160 . S
C2481 O2482 1.278 . S
C2481 O2489 1.224 . S
O2482 C2481 1.278 . S
C2483 O2484 1.245 . S
C2483 O2495 1.232 . S
O2484 C2483 1.245 . S
O2485 Co2479 2.058 . S
O2485 C2511 1.269 . S
O2486 Co2478 2.074 . S
O2486 C2511 1.257 . S
H2487 C2512 0.930 . S
H2488 C2518 0.930 . S
O2489 Co2478 2.093 . S
O2489 C2481 1.224 . S
H2490 C2522 0.929 . S
H2491 C2524 0.930 . S
H2492 C2525 0.930 . S
H2493 C2523 0.929 . S
H2494 C2526 0.928 . S
O2495 Co2479 2.057 . S
O2495 C2483 1.232 . S
H2496 C2515 0.929 . S
H2497 C2516 0.929 . S
H2498 C2528 0.931 . S
H2499 C2520 0.929 . S
H2500 C2529 0.930 . S
H2501 C2521 0.931 . S
O2502 Co2478 2.097 . S
O2502 C2530 1.214 . S
H2503 C2531 0.929 . S
H2504 C2532 0.929 . S
H2505 C2533 0.930 . S
H2506 C2534 0.929 . S
H2507 C2536 0.930 . S
H2508 C2513 0.930 . S
H2509 C2517 0.930 . S
O2510 Co2479 2.037 . S
O2510 C2530 1.234 . S
C2511 O2485 1.269 . S
C2511 O2486 1.257 . S
C2512 H2487 0.930 . S
C2512 C2515 1.388 . S
C2512 C2517 1.418 . S
C2513 H2508 0.930 . S
C2513 C2516 1.404 . S
C2513 C2517 1.353 . S
N2514 Co2479 2.145 . S
N2514 C2515 1.397 . S
N2514 C2516 1.334 . S
C2515 H2496 0.929 . S
C2515 C2512 1.388 . S
C2515 N2514 1.397 . S
C2516 H2497 0.929 . S
C2516 C2513 1.404 . S
C2516 N2514 1.334 . S
C2517 H2509 0.930 . S
C2517 C2512 1.418 . S
C2517 C2513 1.353 . S
C2518 H2488 0.930 . S
C2518 N2519 1.330 . S
C2518 C2520 1.446 . S
N2519 Co2478 2.151 . S
N2519 C2518 1.330 . S
N2519 C2523 1.418 . S
C2520 H2499 0.929 . S
C2520 C2518 1.446 . S
C2520 C2521 1.332 . S
C2521 H2501 0.931 . S
C2521 C2520 1.332 . S
C2521 C2522 1.267 . S
C2522 H2490 0.929 . S
C2522 C2521 1.267 . S
C2522 C2523 1.251 . S
C2523 H2493 0.929 . S
C2523 N2519 1.418 . S
C2523 C2522 1.251 . S
C2524 H2491 0.930 . S
C2524 C2526 1.406 . S
C2524 C2529 1.261 . S
C2525 H2492 0.930 . S
C2525 N2527 1.325 . S
C2525 C2528 1.357 . S
C2526 H2494 0.928 . S
C2526 C2524 1.406 . S
C2526 N2527 1.261 . S
N2527 Co2478 2.214 . S
N2527 C2525 1.325 . S
N2527 C2526 1.261 . S
C2528 H2498 0.931 . S
C2528 C2525 1.357 . S
C2528 C2529 1.312 . S
C2529 H2500 0.930 . S
C2529 C2524 1.261 . S
C2529 C2528 1.312 . S
C2530 O2502 1.214 . S
C2530 O2510 1.234 . S
C2531 H2503 0.929 . S
C2531 C2534 1.391 . S
C2531 C2536 1.391 . S
C2532 H2504 0.929 . S
C2532 C2533 1.390 . S
C2532 N2535 1.391 . S
C2533 H2505 0.930 . S
C2533 C2532 1.390 . S
C2533 C2534 1.392 . S
C2534 H2506 0.929 . S
C2534 C2531 1.391 . S
C2534 C2533 1.392 . S
N2535 Co2479 2.257 . S
N2535 C2532 1.391 . S
N2535 C2536 1.388 . S
C2536 H2507 0.930 . S
C2536 C2531 1.391 . S
C2536 N2535 1.388 . S
Co2537 O2539 2.143 . S
Co2537 O2545 2.074 . S
Co2537 O2548 2.093 . S
Co2537 O2561 2.097 . S
Co2537 N2578 2.151 . S
Co2537 N2586 2.214 . S
Co2538 O2539 2.160 . S
Co2538 O2544 2.058 . S
Co2538 O2554 2.056 1_655 S
Co2538 O2569 2.037 . S
Co2538 N2573 2.145 1_655 S
Co2538 N2594 2.257 1_655 S
O2539 Co2537 2.143 . S
O2539 Co2538 2.160 . S
C2540 O2541 1.278 . S
C2540 O2548 1.224 . S
O2541 C2540 1.278 . S
C2542 O2543 1.245 . S
C2542 O2554 1.231 1_655 S
O2543 C2542 1.245 . S
O2544 Co2538 2.058 . S
O2544 C2570 1.269 . S
O2545 Co2537 2.074 . S
O2545 C2570 1.257 . S
H2546 C2571 0.930 1_655 S
H2547 C2577 0.930 . S
O2548 Co2537 2.093 . S
O2548 C2540 1.224 . S
H2549 C2581 0.929 . S
H2550 C2583 0.930 . S
H2551 C2584 0.930 . S
H2552 C2582 0.929 . S
H2553 C2585 0.928 . S
O2554 Co2538 2.056 1_455 S
O2554 C2542 1.231 1_455 S
H2555 C2574 0.929 . S
H2556 C2575 0.929 . S
H2557 C2587 0.931 . S
H2558 C2579 0.929 . S
H2559 C2588 0.930 . S
H2560 C2580 0.931 . S
O2561 Co2537 2.097 . S
O2561 C2589 1.214 . S
H2562 C2590 0.929 . S
H2563 C2591 0.929 . S
H2564 C2592 0.930 . S
H2565 C2593 0.929 . S
H2566 C2595 0.930 . S
H2567 C2572 0.930 . S
H2568 C2576 0.930 . S
O2569 Co2538 2.037 . S
O2569 C2589 1.234 . S
C2570 O2544 1.269 . S
C2570 O2545 1.257 . S
C2571 H2546 0.930 1_455 S
C2571 C2574 1.388 1_455 S
C2571 C2576 1.418 . S
C2572 H2567 0.930 . S
C2572 C2575 1.404 . S
C2572 C2576 1.353 . S
N2573 Co2538 2.145 1_455 S
N2573 C2574 1.397 1_455 S
N2573 C2575 1.334 . S
C2574 H2555 0.929 . S
C2574 C2571 1.388 1_655 S
C2574 N2573 1.397 1_655 S
C2575 H2556 0.929 . S
C2575 C2572 1.404 . S
C2575 N2573 1.334 . S
C2576 H2568 0.930 . S
C2576 C2571 1.418 . S
C2576 C2572 1.353 . S
C2577 H2547 0.930 . S
C2577 N2578 1.330 . S
C2577 C2579 1.446 . S
N2578 Co2537 2.151 . S
N2578 C2577 1.330 . S
N2578 C2582 1.418 . S
C2579 H2558 0.929 . S
C2579 C2577 1.446 . S
C2579 C2580 1.332 . S
C2580 H2560 0.931 . S
C2580 C2579 1.332 . S
C2580 C2581 1.267 . S
C2581 H2549 0.929 . S
C2581 C2580 1.267 . S
C2581 C2582 1.251 . S
C2582 H2552 0.929 . S
C2582 N2578 1.418 . S
C2582 C2581 1.251 . S
C2583 H2550 0.930 . S
C2583 C2585 1.406 . S
C2583 C2588 1.261 . S
C2584 H2551 0.930 . S
C2584 N2586 1.325 . S
C2584 C2587 1.357 . S
C2585 H2553 0.928 . S
C2585 C2583 1.406 . S
C2585 N2586 1.261 . S
N2586 Co2537 2.214 . S
N2586 C2584 1.325 . S
N2586 C2585 1.261 . S
C2587 H2557 0.931 . S
C2587 C2584 1.357 . S
C2587 C2588 1.312 . S
C2588 H2559 0.930 . S
C2588 C2583 1.261 . S
C2588 C2587 1.312 . S
C2589 O2561 1.214 . S
C2589 O2569 1.234 . S
C2590 H2562 0.929 . S
C2590 C2593 1.391 . S
C2590 C2595 1.391 . S
C2591 H2563 0.929 . S
C2591 C2592 1.390 . S
C2591 N2594 1.391 . S
C2592 H2564 0.930 . S
C2592 C2591 1.390 . S
C2592 C2593 1.392 . S
C2593 H2565 0.929 . S
C2593 C2590 1.391 . S
C2593 C2592 1.392 . S
N2594 Co2538 2.257 1_455 S
N2594 C2591 1.391 . S
N2594 C2595 1.388 . S
C2595 H2566 0.930 . S
C2595 C2590 1.391 . S
C2595 N2594 1.388 . S
Co2596 O2598 2.143 . S
Co2596 O2604 2.074 . S
Co2596 O2607 2.093 . S
Co2596 O2620 2.097 . S
Co2596 N2637 2.151 . S
Co2596 N2645 2.214 . S
Co2597 O2598 2.160 . S
Co2597 O2603 2.058 . S
Co2597 O2613 2.057 . S
Co2597 O2628 2.037 . S
Co2597 N2632 2.145 . S
Co2597 N2653 2.257 . S
O2598 Co2596 2.143 . S
O2598 Co2597 2.160 . S
C2599 O2600 1.278 . S
C2599 O2607 1.224 . S
O2600 C2599 1.278 . S
C2601 O2602 1.245 . S
C2601 O2613 1.232 . S
O2602 C2601 1.245 . S
O2603 Co2597 2.058 . S
O2603 C2629 1.269 . S
O2604 Co2596 2.074 . S
O2604 C2629 1.257 . S
H2605 C2630 0.930 . S
H2606 C2636 0.930 . S
O2607 Co2596 2.093 . S
O2607 C2599 1.224 . S
H2608 C2640 0.929 . S
H2609 C2642 0.930 . S
H2610 C2643 0.930 . S
H2611 C2641 0.929 . S
H2612 C2644 0.928 . S
O2613 Co2597 2.057 . S
O2613 C2601 1.232 . S
H2614 C2633 0.929 . S
H2615 C2634 0.929 . S
H2616 C2646 0.931 . S
H2617 C2638 0.929 . S
H2618 C2647 0.930 . S
H2619 C2639 0.931 . S
O2620 Co2596 2.097 . S
O2620 C2648 1.214 . S
H2621 C2649 0.929 . S
H2622 C2650 0.929 . S
H2623 C2651 0.930 . S
H2624 C2652 0.929 . S
H2625 C2654 0.930 . S
H2626 C2631 0.930 . S
H2627 C2635 0.930 . S
O2628 Co2597 2.037 . S
O2628 C2648 1.234 . S
C2629 O2603 1.269 . S
C2629 O2604 1.257 . S
C2630 H2605 0.930 . S
C2630 C2633 1.388 . S
C2630 C2635 1.418 . S
C2631 H2626 0.930 . S
C2631 C2634 1.404 . S
C2631 C2635 1.353 . S
N2632 Co2597 2.145 . S
N2632 C2633 1.397 . S
N2632 C2634 1.334 . S
C2633 H2614 0.929 . S
C2633 C2630 1.388 . S
C2633 N2632 1.397 . S
C2634 H2615 0.929 . S
C2634 C2631 1.404 . S
C2634 N2632 1.334 . S
C2635 H2627 0.930 . S
C2635 C2630 1.418 . S
C2635 C2631 1.353 . S
C2636 H2606 0.930 . S
C2636 N2637 1.330 . S
C2636 C2638 1.446 . S
N2637 Co2596 2.151 . S
N2637 C2636 1.330 . S
N2637 C2641 1.418 . S
C2638 H2617 0.929 . S
C2638 C2636 1.446 . S
C2638 C2639 1.332 . S
C2639 H2619 0.931 . S
C2639 C2638 1.332 . S
C2639 C2640 1.267 . S
C2640 H2608 0.929 . S
C2640 C2639 1.267 . S
C2640 C2641 1.251 . S
C2641 H2611 0.929 . S
C2641 N2637 1.418 . S
C2641 C2640 1.251 . S
C2642 H2609 0.930 . S
C2642 C2644 1.406 . S
C2642 C2647 1.261 . S
C2643 H2610 0.930 . S
C2643 N2645 1.325 . S
C2643 C2646 1.357 . S
C2644 H2612 0.928 . S
C2644 C2642 1.406 . S
C2644 N2645 1.261 . S
N2645 Co2596 2.214 . S
N2645 C2643 1.325 . S
N2645 C2644 1.261 . S
C2646 H2616 0.931 . S
C2646 C2643 1.357 . S
C2646 C2647 1.312 . S
C2647 H2618 0.930 . S
C2647 C2642 1.261 . S
C2647 C2646 1.312 . S
C2648 O2620 1.214 . S
C2648 O2628 1.234 . S
C2649 H2621 0.929 . S
C2649 C2652 1.391 . S
C2649 C2654 1.391 . S
C2650 H2622 0.929 . S
C2650 C2651 1.390 . S
C2650 N2653 1.391 . S
C2651 H2623 0.930 . S
C2651 C2650 1.390 . S
C2651 C2652 1.392 . S
C2652 H2624 0.929 . S
C2652 C2649 1.391 . S
C2652 C2651 1.392 . S
N2653 Co2597 2.257 . S
N2653 C2650 1.391 . S
N2653 C2654 1.388 . S
C2654 H2625 0.930 . S
C2654 C2649 1.391 . S
C2654 N2653 1.388 . S
Co2655 O2657 2.143 . S
Co2655 O2663 2.074 . S
Co2655 O2666 2.093 . S
Co2655 O2679 2.097 . S
Co2655 N2696 2.151 . S
Co2655 N2704 2.214 . S
Co2656 O2657 2.160 . S
Co2656 O2662 2.058 . S
Co2656 O2672 2.057 . S
Co2656 O2687 2.037 . S
Co2656 N2691 2.145 . S
Co2656 N2712 2.257 . S
O2657 Co2655 2.143 . S
O2657 Co2656 2.160 . S
C2658 O2659 1.278 . S
C2658 O2666 1.224 . S
O2659 C2658 1.278 . S
C2660 O2661 1.245 . S
C2660 O2672 1.232 . S
O2661 C2660 1.245 . S
O2662 Co2656 2.058 . S
O2662 C2688 1.269 . S
O2663 Co2655 2.074 . S
O2663 C2688 1.257 . S
H2664 C2689 0.930 . S
H2665 C2695 0.930 . S
O2666 Co2655 2.093 . S
O2666 C2658 1.224 . S
H2667 C2699 0.929 . S
H2668 C2701 0.930 . S
H2669 C2702 0.930 . S
H2670 C2700 0.929 . S
H2671 C2703 0.928 . S
O2672 Co2656 2.057 . S
O2672 C2660 1.232 . S
H2673 C2692 0.929 . S
H2674 C2693 0.929 . S
H2675 C2705 0.931 . S
H2676 C2697 0.929 . S
H2677 C2706 0.930 . S
H2678 C2698 0.931 . S
O2679 Co2655 2.097 . S
O2679 C2707 1.214 . S
H2680 C2708 0.929 . S
H2681 C2709 0.929 . S
H2682 C2710 0.930 . S
H2683 C2711 0.929 . S
H2684 C2713 0.930 . S
H2685 C2690 0.930 . S
H2686 C2694 0.930 . S
O2687 Co2656 2.037 . S
O2687 C2707 1.234 . S
C2688 O2662 1.269 . S
C2688 O2663 1.257 . S
C2689 H2664 0.930 . S
C2689 C2692 1.388 . S
C2689 C2694 1.418 . S
C2690 H2685 0.930 . S
C2690 C2693 1.404 . S
C2690 C2694 1.353 . S
N2691 Co2656 2.145 . S
N2691 C2692 1.397 . S
N2691 C2693 1.334 . S
C2692 H2673 0.929 . S
C2692 C2689 1.388 . S
C2692 N2691 1.397 . S
C2693 H2674 0.929 . S
C2693 C2690 1.404 . S
C2693 N2691 1.334 . S
C2694 H2686 0.930 . S
C2694 C2689 1.418 . S
C2694 C2690 1.353 . S
C2695 H2665 0.930 . S
C2695 N2696 1.330 . S
C2695 C2697 1.446 . S
N2696 Co2655 2.151 . S
N2696 C2695 1.330 . S
N2696 C2700 1.418 . S
C2697 H2676 0.929 . S
C2697 C2695 1.446 . S
C2697 C2698 1.332 . S
C2698 H2678 0.931 . S
C2698 C2697 1.332 . S
C2698 C2699 1.267 . S
C2699 H2667 0.929 . S
C2699 C2698 1.267 . S
C2699 C2700 1.251 . S
C2700 H2670 0.929 . S
C2700 N2696 1.418 . S
C2700 C2699 1.251 . S
C2701 H2668 0.930 . S
C2701 C2703 1.406 . S
C2701 C2706 1.261 . S
C2702 H2669 0.930 . S
C2702 N2704 1.325 . S
C2702 C2705 1.357 . S
C2703 H2671 0.928 . S
C2703 C2701 1.406 . S
C2703 N2704 1.261 . S
N2704 Co2655 2.214 . S
N2704 C2702 1.325 . S
N2704 C2703 1.261 . S
C2705 H2675 0.931 . S
C2705 C2702 1.357 . S
C2705 C2706 1.312 . S
C2706 H2677 0.930 . S
C2706 C2701 1.261 . S
C2706 C2705 1.312 . S
C2707 O2679 1.214 . S
C2707 O2687 1.234 . S
C2708 H2680 0.929 . S
C2708 C2711 1.391 . S
C2708 C2713 1.391 . S
C2709 H2681 0.929 . S
C2709 C2710 1.390 . S
C2709 N2712 1.391 . S
C2710 H2682 0.930 . S
C2710 C2709 1.390 . S
C2710 C2711 1.392 . S
C2711 H2683 0.929 . S
C2711 C2708 1.391 . S
C2711 C2710 1.392 . S
N2712 Co2656 2.257 . S
N2712 C2709 1.391 . S
N2712 C2713 1.388 . S
C2713 H2684 0.930 . S
C2713 C2708 1.391 . S
C2713 N2712 1.388 . S
Co2714 O2716 2.143 . S
Co2714 O2722 2.074 . S
Co2714 O2725 2.093 . S
Co2714 O2738 2.097 . S
Co2714 N2755 2.151 . S
Co2714 N2763 2.214 . S
Co2715 O2716 2.160 . S
Co2715 O2721 2.058 . S
Co2715 O2731 2.057 . S
Co2715 O2746 2.037 . S
Co2715 N2750 2.145 . S
Co2715 N2771 2.257 . S
O2716 Co2714 2.143 . S
O2716 Co2715 2.160 . S
C2717 O2718 1.278 . S
C2717 O2725 1.224 . S
O2718 C2717 1.278 . S
C2719 O2720 1.245 . S
C2719 O2731 1.232 . S
O2720 C2719 1.245 . S
O2721 Co2715 2.058 . S
O2721 C2747 1.269 . S
O2722 Co2714 2.074 . S
O2722 C2747 1.257 . S
H2723 C2748 0.930 . S
H2724 C2754 0.930 . S
O2725 Co2714 2.093 . S
O2725 C2717 1.224 . S
H2726 C2758 0.929 . S
H2727 C2760 0.930 . S
H2728 C2761 0.930 . S
H2729 C2759 0.929 . S
H2730 C2762 0.928 . S
O2731 Co2715 2.057 . S
O2731 C2719 1.232 . S
H2732 C2751 0.929 . S
H2733 C2752 0.929 . S
H2734 C2764 0.931 . S
H2735 C2756 0.929 . S
H2736 C2765 0.930 . S
H2737 C2757 0.931 . S
O2738 Co2714 2.097 . S
O2738 C2766 1.214 . S
H2739 C2767 0.929 . S
H2740 C2768 0.929 . S
H2741 C2769 0.930 . S
H2742 C2770 0.929 . S
H2743 C2772 0.930 . S
H2744 C2749 0.930 . S
H2745 C2753 0.930 . S
O2746 Co2715 2.037 . S
O2746 C2766 1.234 . S
C2747 O2721 1.269 . S
C2747 O2722 1.257 . S
C2748 H2723 0.930 . S
C2748 C2751 1.388 . S
C2748 C2753 1.418 . S
C2749 H2744 0.930 . S
C2749 C2752 1.404 . S
C2749 C2753 1.353 . S
N2750 Co2715 2.145 . S
N2750 C2751 1.397 . S
N2750 C2752 1.334 . S
C2751 H2732 0.929 . S
C2751 C2748 1.388 . S
C2751 N2750 1.397 . S
C2752 H2733 0.929 . S
C2752 C2749 1.404 . S
C2752 N2750 1.334 . S
C2753 H2745 0.930 . S
C2753 C2748 1.418 . S
C2753 C2749 1.353 . S
C2754 H2724 0.930 . S
C2754 N2755 1.330 . S
C2754 C2756 1.446 . S
N2755 Co2714 2.151 . S
N2755 C2754 1.330 . S
N2755 C2759 1.418 . S
C2756 H2735 0.929 . S
C2756 C2754 1.446 . S
C2756 C2757 1.332 . S
C2757 H2737 0.931 . S
C2757 C2756 1.332 . S
C2757 C2758 1.267 . S
C2758 H2726 0.929 . S
C2758 C2757 1.267 . S
C2758 C2759 1.251 . S
C2759 H2729 0.929 . S
C2759 N2755 1.418 . S
C2759 C2758 1.251 . S
C2760 H2727 0.930 . S
C2760 C2762 1.406 . S
C2760 C2765 1.261 . S
C2761 H2728 0.930 . S
C2761 N2763 1.325 . S
C2761 C2764 1.357 . S
C2762 H2730 0.928 . S
C2762 C2760 1.406 . S
C2762 N2763 1.261 . S
N2763 Co2714 2.214 . S
N2763 C2761 1.325 . S
N2763 C2762 1.261 . S
C2764 H2734 0.931 . S
C2764 C2761 1.357 . S
C2764 C2765 1.312 . S
C2765 H2736 0.930 . S
C2765 C2760 1.261 . S
C2765 C2764 1.312 . S
C2766 O2738 1.214 . S
C2766 O2746 1.234 . S
C2767 H2739 0.929 . S
C2767 C2770 1.391 . S
C2767 C2772 1.391 . S
C2768 H2740 0.929 . S
C2768 C2769 1.390 . S
C2768 N2771 1.391 . S
C2769 H2741 0.930 . S
C2769 C2768 1.390 . S
C2769 C2770 1.392 . S
C2770 H2742 0.929 . S
C2770 C2767 1.391 . S
C2770 C2769 1.392 . S
N2771 Co2715 2.257 . S
N2771 C2768 1.391 . S
N2771 C2772 1.388 . S
C2772 H2743 0.930 . S
C2772 C2767 1.391 . S
C2772 N2771 1.388 . S
Co2773 O2775 2.143 . S
Co2773 O2781 2.074 . S
Co2773 O2784 2.093 . S
Co2773 O2797 2.097 . S
Co2773 N2814 2.151 . S
Co2773 N2822 2.214 . S
Co2774 O2775 2.160 . S
Co2774 O2780 2.058 . S
Co2774 O2790 2.057 . S
Co2774 O2805 2.037 . S
Co2774 N2809 2.145 . S
Co2774 N2830 2.257 . S
O2775 Co2773 2.143 . S
O2775 Co2774 2.160 . S
C2776 O2777 1.278 . S
C2776 O2784 1.224 . S
O2777 C2776 1.278 . S
C2778 O2779 1.245 . S
C2778 O2790 1.232 . S
O2779 C2778 1.245 . S
O2780 Co2774 2.058 . S
O2780 C2806 1.269 . S
O2781 Co2773 2.074 . S
O2781 C2806 1.257 . S
H2782 C2807 0.930 . S
H2783 C2813 0.930 . S
O2784 Co2773 2.093 . S
O2784 C2776 1.224 . S
H2785 C2817 0.929 . S
H2786 C2819 0.930 . S
H2787 C2820 0.930 . S
H2788 C2818 0.929 . S
H2789 C2821 0.928 . S
O2790 Co2774 2.057 . S
O2790 C2778 1.232 . S
H2791 C2810 0.929 . S
H2792 C2811 0.929 . S
H2793 C2823 0.931 . S
H2794 C2815 0.929 . S
H2795 C2824 0.930 . S
H2796 C2816 0.931 . S
O2797 Co2773 2.097 . S
O2797 C2825 1.214 . S
H2798 C2826 0.929 . S
H2799 C2827 0.929 . S
H2800 C2828 0.930 . S
H2801 C2829 0.929 . S
H2802 C2831 0.930 . S
H2803 C2808 0.930 . S
H2804 C2812 0.930 . S
O2805 Co2774 2.037 . S
O2805 C2825 1.234 . S
C2806 O2780 1.269 . S
C2806 O2781 1.257 . S
C2807 H2782 0.930 . S
C2807 C2810 1.388 . S
C2807 C2812 1.418 . S
C2808 H2803 0.930 . S
C2808 C2811 1.404 . S
C2808 C2812 1.353 . S
N2809 Co2774 2.145 . S
N2809 C2810 1.397 . S
N2809 C2811 1.334 . S
C2810 H2791 0.929 . S
C2810 C2807 1.388 . S
C2810 N2809 1.397 . S
C2811 H2792 0.929 . S
C2811 C2808 1.404 . S
C2811 N2809 1.334 . S
C2812 H2804 0.930 . S
C2812 C2807 1.418 . S
C2812 C2808 1.353 . S
C2813 H2783 0.930 . S
C2813 N2814 1.330 . S
C2813 C2815 1.446 . S
N2814 Co2773 2.151 . S
N2814 C2813 1.330 . S
N2814 C2818 1.418 . S
C2815 H2794 0.929 . S
C2815 C2813 1.446 . S
C2815 C2816 1.332 . S
C2816 H2796 0.931 . S
C2816 C2815 1.332 . S
C2816 C2817 1.267 . S
C2817 H2785 0.929 . S
C2817 C2816 1.267 . S
C2817 C2818 1.251 . S
C2818 H2788 0.929 . S
C2818 N2814 1.418 . S
C2818 C2817 1.251 . S
C2819 H2786 0.930 . S
C2819 C2821 1.406 . S
C2819 C2824 1.261 . S
C2820 H2787 0.930 . S
C2820 N2822 1.325 . S
C2820 C2823 1.357 . S
C2821 H2789 0.928 . S
C2821 C2819 1.406 . S
C2821 N2822 1.261 . S
N2822 Co2773 2.214 . S
N2822 C2820 1.325 . S
N2822 C2821 1.261 . S
C2823 H2793 0.931 . S
C2823 C2820 1.357 . S
C2823 C2824 1.312 . S
C2824 H2795 0.930 . S
C2824 C2819 1.261 . S
C2824 C2823 1.312 . S
C2825 O2797 1.214 . S
C2825 O2805 1.234 . S
C2826 H2798 0.929 . S
C2826 C2829 1.391 . S
C2826 C2831 1.391 . S
C2827 H2799 0.929 . S
C2827 C2828 1.390 . S
C2827 N2830 1.391 . S
C2828 H2800 0.930 . S
C2828 C2827 1.390 . S
C2828 C2829 1.392 . S
C2829 H2801 0.929 . S
C2829 C2826 1.391 . S
C2829 C2828 1.392 . S
N2830 Co2774 2.257 . S
N2830 C2827 1.391 . S
N2830 C2831 1.388 . S
C2831 H2802 0.930 . S
C2831 C2826 1.391 . S
C2831 N2830 1.388 . S
Co2832 O2834 2.143 . S
Co2832 O2840 2.074 . S
Co2832 O2843 2.093 . S
Co2832 O2856 2.097 . S
Co2832 N2873 2.151 . S
Co2832 N2881 2.214 . S
Co2833 O2834 2.160 . S
Co2833 O2839 2.058 . S
Co2833 O2849 2.057 . S
Co2833 O2864 2.037 . S
Co2833 N2868 2.145 . S
Co2833 N2889 2.257 . S
O2834 Co2832 2.143 . S
O2834 Co2833 2.160 . S
C2835 O2836 1.278 . S
C2835 O2843 1.224 . S
O2836 C2835 1.278 . S
C2837 O2838 1.245 . S
C2837 O2849 1.232 . S
O2838 C2837 1.245 . S
O2839 Co2833 2.058 . S
O2839 C2865 1.269 . S
O2840 Co2832 2.074 . S
O2840 C2865 1.257 . S
H2841 C2866 0.930 . S
H2842 C2872 0.930 . S
O2843 Co2832 2.093 . S
O2843 C2835 1.224 . S
H2844 C2876 0.929 . S
H2845 C2878 0.930 . S
H2846 C2879 0.930 . S
H2847 C2877 0.929 . S
H2848 C2880 0.928 . S
O2849 Co2833 2.057 . S
O2849 C2837 1.232 . S
H2850 C2869 0.929 . S
H2851 C2870 0.929 . S
H2852 C2882 0.931 . S
H2853 C2874 0.929 . S
H2854 C2883 0.930 . S
H2855 C2875 0.931 . S
O2856 Co2832 2.097 . S
O2856 C2884 1.214 . S
H2857 C2885 0.929 . S
H2858 C2886 0.929 . S
H2859 C2887 0.930 . S
H2860 C2888 0.929 . S
H2861 C2890 0.930 . S
H2862 C2867 0.930 . S
H2863 C2871 0.930 . S
O2864 Co2833 2.037 . S
O2864 C2884 1.234 . S
C2865 O2839 1.269 . S
C2865 O2840 1.257 . S
C2866 H2841 0.930 . S
C2866 C2869 1.388 . S
C2866 C2871 1.418 . S
C2867 H2862 0.930 . S
C2867 C2870 1.404 . S
C2867 C2871 1.353 . S
N2868 Co2833 2.145 . S
N2868 C2869 1.397 . S
N2868 C2870 1.334 . S
C2869 H2850 0.929 . S
C2869 C2866 1.388 . S
C2869 N2868 1.397 . S
C2870 H2851 0.929 . S
C2870 C2867 1.404 . S
C2870 N2868 1.334 . S
C2871 H2863 0.930 . S
C2871 C2866 1.418 . S
C2871 C2867 1.353 . S
C2872 H2842 0.930 . S
C2872 N2873 1.330 . S
C2872 C2874 1.446 . S
N2873 Co2832 2.151 . S
N2873 C2872 1.330 . S
N2873 C2877 1.418 . S
C2874 H2853 0.929 . S
C2874 C2872 1.446 . S
C2874 C2875 1.332 . S
C2875 H2855 0.931 . S
C2875 C2874 1.332 . S
C2875 C2876 1.267 . S
C2876 H2844 0.929 . S
C2876 C2875 1.267 . S
C2876 C2877 1.251 . S
C2877 H2847 0.929 . S
C2877 N2873 1.418 . S
C2877 C2876 1.251 . S
C2878 H2845 0.930 . S
C2878 C2880 1.406 . S
C2878 C2883 1.261 . S
C2879 H2846 0.930 . S
C2879 N2881 1.325 . S
C2879 C2882 1.357 . S
C2880 H2848 0.928 . S
C2880 C2878 1.406 . S
C2880 N2881 1.261 . S
N2881 Co2832 2.214 . S
N2881 C2879 1.325 . S
N2881 C2880 1.261 . S
C2882 H2852 0.931 . S
C2882 C2879 1.357 . S
C2882 C2883 1.312 . S
C2883 H2854 0.930 . S
C2883 C2878 1.261 . S
C2883 C2882 1.312 . S
C2884 O2856 1.214 . S
C2884 O2864 1.234 . S
C2885 H2857 0.929 . S
C2885 C2888 1.391 . S
C2885 C2890 1.391 . S
C2886 H2858 0.929 . S
C2886 C2887 1.390 . S
C2886 N2889 1.391 . S
C2887 H2859 0.930 . S
C2887 C2886 1.390 . S
C2887 C2888 1.392 . S
C2888 H2860 0.929 . S
C2888 C2885 1.391 . S
C2888 C2887 1.392 . S
N2889 Co2833 2.257 . S
N2889 C2886 1.391 . S
N2889 C2890 1.388 . S
C2890 H2861 0.930 . S
C2890 C2885 1.391 . S
C2890 N2889 1.388 . S
Co2891 O2893 2.143 . S
Co2891 O2899 2.074 . S
Co2891 O2902 2.093 . S
Co2891 O2915 2.097 . S
Co2891 N2932 2.151 . S
Co2891 N2940 2.214 . S
Co2892 O2893 2.160 . S
Co2892 O2898 2.058 . S
Co2892 O2908 2.057 . S
Co2892 O2923 2.037 . S
Co2892 N2927 2.145 . S
Co2892 N2948 2.257 . S
O2893 Co2891 2.143 . S
O2893 Co2892 2.160 . S
C2894 O2895 1.278 . S
C2894 O2902 1.224 . S
O2895 C2894 1.278 . S
C2896 O2897 1.245 . S
C2896 O2908 1.232 . S
O2897 C2896 1.245 . S
O2898 Co2892 2.058 . S
O2898 C2924 1.269 . S
O2899 Co2891 2.074 . S
O2899 C2924 1.257 . S
H2900 C2925 0.930 . S
H2901 C2931 0.930 . S
O2902 Co2891 2.093 . S
O2902 C2894 1.224 . S
H2903 C2935 0.929 . S
H2904 C2937 0.930 . S
H2905 C2938 0.930 . S
H2906 C2936 0.929 . S
H2907 C2939 0.928 . S
O2908 Co2892 2.057 . S
O2908 C2896 1.232 . S
H2909 C2928 0.929 . S
H2910 C2929 0.929 . S
H2911 C2941 0.931 . S
H2912 C2933 0.929 . S
H2913 C2942 0.930 . S
H2914 C2934 0.931 . S
O2915 Co2891 2.097 . S
O2915 C2943 1.214 . S
H2916 C2944 0.929 . S
H2917 C2945 0.929 . S
H2918 C2946 0.930 . S
H2919 C2947 0.929 . S
H2920 C2949 0.930 . S
H2921 C2926 0.930 . S
H2922 C2930 0.930 . S
O2923 Co2892 2.037 . S
O2923 C2943 1.234 . S
C2924 O2898 1.269 . S
C2924 O2899 1.257 . S
C2925 H2900 0.930 . S
C2925 C2928 1.388 . S
C2925 C2930 1.418 . S
C2926 H2921 0.930 . S
C2926 C2929 1.404 . S
C2926 C2930 1.353 . S
N2927 Co2892 2.145 . S
N2927 C2928 1.397 . S
N2927 C2929 1.334 . S
C2928 H2909 0.929 . S
C2928 C2925 1.388 . S
C2928 N2927 1.397 . S
C2929 H2910 0.929 . S
C2929 C2926 1.404 . S
C2929 N2927 1.334 . S
C2930 H2922 0.930 . S
C2930 C2925 1.418 . S
C2930 C2926 1.353 . S
C2931 H2901 0.930 . S
C2931 N2932 1.330 . S
C2931 C2933 1.446 . S
N2932 Co2891 2.151 . S
N2932 C2931 1.330 . S
N2932 C2936 1.418 . S
C2933 H2912 0.929 . S
C2933 C2931 1.446 . S
C2933 C2934 1.332 . S
C2934 H2914 0.931 . S
C2934 C2933 1.332 . S
C2934 C2935 1.267 . S
C2935 H2903 0.929 . S
C2935 C2934 1.267 . S
C2935 C2936 1.251 . S
C2936 H2906 0.929 . S
C2936 N2932 1.418 . S
C2936 C2935 1.251 . S
C2937 H2904 0.930 . S
C2937 C2939 1.406 . S
C2937 C2942 1.261 . S
C2938 H2905 0.930 . S
C2938 N2940 1.325 . S
C2938 C2941 1.357 . S
C2939 H2907 0.928 . S
C2939 C2937 1.406 . S
C2939 N2940 1.261 . S
N2940 Co2891 2.214 . S
N2940 C2938 1.325 . S
N2940 C2939 1.261 . S
C2941 H2911 0.931 . S
C2941 C2938 1.357 . S
C2941 C2942 1.312 . S
C2942 H2913 0.930 . S
C2942 C2937 1.261 . S
C2942 C2941 1.312 . S
C2943 O2915 1.214 . S
C2943 O2923 1.234 . S
C2944 H2916 0.929 . S
C2944 C2947 1.391 . S
C2944 C2949 1.391 . S
C2945 H2917 0.929 . S
C2945 C2946 1.390 . S
C2945 N2948 1.391 . S
C2946 H2918 0.930 . S
C2946 C2945 1.390 . S
C2946 C2947 1.392 . S
C2947 H2919 0.929 . S
C2947 C2944 1.391 . S
C2947 C2946 1.392 . S
N2948 Co2892 2.257 . S
N2948 C2945 1.391 . S
N2948 C2949 1.388 . S
C2949 H2920 0.930 . S
C2949 C2944 1.391 . S
C2949 N2948 1.388 . S
Co2950 O2952 2.143 . S
Co2950 O2958 2.074 . S
Co2950 O2961 2.093 . S
Co2950 O2974 2.097 . S
Co2950 N2991 2.151 . S
Co2950 N2999 2.214 . S
Co2951 O2952 2.160 . S
Co2951 O2957 2.058 . S
Co2951 O2967 2.027 1_565 S
Co2951 O2982 2.037 . S
Co2951 N2986 2.145 1_565 S
Co2951 N3007 2.257 1_565 S
O2952 Co2950 2.143 . S
O2952 Co2951 2.160 . S
C2953 O2954 1.278 . S
C2953 O2961 1.224 . S
O2954 C2953 1.278 . S
C2955 O2956 1.245 . S
C2955 O2967 1.222 1_565 S
O2956 C2955 1.245 . S
O2957 Co2951 2.058 . S
O2957 C2983 1.269 . S
O2958 Co2950 2.074 . S
O2958 C2983 1.257 . S
H2959 C2984 0.929 . S
H2960 C2990 0.930 . S
O2961 Co2950 2.093 . S
O2961 C2953 1.224 . S
H2962 C2994 0.929 . S
H2963 C2996 0.930 . S
H2964 C2997 0.930 . S
H2965 C2995 0.929 . S
H2966 C2998 0.928 . S
O2967 Co2951 2.027 1_545 S
O2967 C2955 1.222 1_545 S
H2968 C2987 0.929 . S
H2969 C2988 0.929 . S
H2970 C3000 0.931 . S
H2971 C2992 0.929 . S
H2972 C3001 0.930 . S
H2973 C2993 0.931 . S
O2974 Co2950 2.097 . S
O2974 C3002 1.214 . S
H2975 C3003 0.929 . S
H2976 C3004 0.929 . S
H2977 C3005 0.930 . S
H2978 C3006 0.929 . S
H2979 C3008 0.930 . S
H2980 C2985 0.930 . S
H2981 C2989 0.930 . S
O2982 Co2951 2.037 . S
O2982 C3002 1.234 . S
C2983 O2957 1.269 . S
C2983 O2958 1.257 . S
C2984 H2959 0.929 . S
C2984 C2987 1.388 1_545 S
C2984 C2989 1.418 . S
C2985 H2980 0.930 . S
C2985 C2988 1.404 . S
C2985 C2989 1.353 . S
N2986 Co2951 2.145 1_545 S
N2986 C2987 1.397 1_545 S
N2986 C2988 1.334 . S
C2987 H2968 0.929 . S
C2987 C2984 1.388 1_565 S
C2987 N2986 1.397 1_565 S
C2988 H2969 0.929 . S
C2988 C2985 1.404 . S
C2988 N2986 1.334 . S
C2989 H2981 0.930 . S
C2989 C2984 1.418 . S
C2989 C2985 1.353 . S
C2990 H2960 0.930 . S
C2990 N2991 1.330 . S
C2990 C2992 1.446 . S
N2991 Co2950 2.151 . S
N2991 C2990 1.330 . S
N2991 C2995 1.418 . S
C2992 H2971 0.929 . S
C2992 C2990 1.446 . S
C2992 C2993 1.332 . S
C2993 H2973 0.931 . S
C2993 C2992 1.332 . S
C2993 C2994 1.267 . S
C2994 H2962 0.929 . S
C2994 C2993 1.267 . S
C2994 C2995 1.251 . S
C2995 H2965 0.929 . S
C2995 N2991 1.418 . S
C2995 C2994 1.251 . S
C2996 H2963 0.930 . S
C2996 C2998 1.406 . S
C2996 C3001 1.261 . S
C2997 H2964 0.930 . S
C2997 N2999 1.325 . S
C2997 C3000 1.357 . S
C2998 H2966 0.928 . S
C2998 C2996 1.406 . S
C2998 N2999 1.261 . S
N2999 Co2950 2.214 . S
N2999 C2997 1.325 . S
N2999 C2998 1.261 . S
C3000 H2970 0.931 . S
C3000 C2997 1.357 . S
C3000 C3001 1.312 . S
C3001 H2972 0.930 . S
C3001 C2996 1.261 . S
C3001 C3000 1.312 . S
C3002 O2974 1.214 . S
C3002 O2982 1.234 . S
C3003 H2975 0.929 . S
C3003 C3006 1.391 . S
C3003 C3008 1.391 . S
C3004 H2976 0.929 . S
C3004 C3005 1.390 . S
C3004 N3007 1.391 . S
C3005 H2977 0.930 . S
C3005 C3004 1.390 . S
C3005 C3006 1.392 . S
C3006 H2978 0.929 . S
C3006 C3003 1.391 . S
C3006 C3005 1.392 . S
N3007 Co2951 2.257 1_545 S
N3007 C3004 1.391 . S
N3007 C3008 1.388 . S
C3008 H2979 0.930 . S
C3008 C3003 1.391 . S
C3008 N3007 1.388 . S
Co3009 O3011 2.143 . S
Co3009 O3017 2.074 . S
Co3009 O3020 2.093 . S
Co3009 O3033 2.097 . S
Co3009 N3050 2.151 . S
Co3009 N3058 2.214 . S
Co3010 O3011 2.160 . S
Co3010 O3016 2.058 . S
Co3010 O3026 2.057 . S
Co3010 O3041 2.037 . S
Co3010 N3045 2.145 . S
Co3010 N3066 2.257 . S
O3011 Co3009 2.143 . S
O3011 Co3010 2.160 . S
C3012 O3013 1.278 . S
C3012 O3020 1.224 . S
O3013 C3012 1.278 . S
C3014 O3015 1.245 . S
C3014 O3026 1.232 . S
O3015 C3014 1.245 . S
O3016 Co3010 2.058 . S
O3016 C3042 1.269 . S
O3017 Co3009 2.074 . S
O3017 C3042 1.257 . S
H3018 C3043 0.930 . S
H3019 C3049 0.930 . S
O3020 Co3009 2.093 . S
O3020 C3012 1.224 . S
H3021 C3053 0.929 . S
H3022 C3055 0.930 . S
H3023 C3056 0.930 . S
H3024 C3054 0.929 . S
H3025 C3057 0.928 . S
O3026 Co3010 2.057 . S
O3026 C3014 1.232 . S
H3027 C3046 0.929 . S
H3028 C3047 0.929 . S
H3029 C3059 0.931 . S
H3030 C3051 0.929 . S
H3031 C3060 0.930 . S
H3032 C3052 0.931 . S
O3033 Co3009 2.097 . S
O3033 C3061 1.214 . S
H3034 C3062 0.929 . S
H3035 C3063 0.929 . S
H3036 C3064 0.930 . S
H3037 C3065 0.929 . S
H3038 C3067 0.930 . S
H3039 C3044 0.930 . S
H3040 C3048 0.930 . S
O3041 Co3010 2.037 . S
O3041 C3061 1.234 . S
C3042 O3016 1.269 . S
C3042 O3017 1.257 . S
C3043 H3018 0.930 . S
C3043 C3046 1.388 . S
C3043 C3048 1.418 . S
C3044 H3039 0.930 . S
C3044 C3047 1.404 . S
C3044 C3048 1.353 . S
N3045 Co3010 2.145 . S
N3045 C3046 1.397 . S
N3045 C3047 1.334 . S
C3046 H3027 0.929 . S
C3046 C3043 1.388 . S
C3046 N3045 1.397 . S
C3047 H3028 0.929 . S
C3047 C3044 1.404 . S
C3047 N3045 1.334 . S
C3048 H3040 0.930 . S
C3048 C3043 1.418 . S
C3048 C3044 1.353 . S
C3049 H3019 0.930 . S
C3049 N3050 1.330 . S
C3049 C3051 1.446 . S
N3050 Co3009 2.151 . S
N3050 C3049 1.330 . S
N3050 C3054 1.418 . S
C3051 H3030 0.929 . S
C3051 C3049 1.446 . S
C3051 C3052 1.332 . S
C3052 H3032 0.931 . S
C3052 C3051 1.332 . S
C3052 C3053 1.267 . S
C3053 H3021 0.929 . S
C3053 C3052 1.267 . S
C3053 C3054 1.251 . S
C3054 H3024 0.929 . S
C3054 N3050 1.418 . S
C3054 C3053 1.251 . S
C3055 H3022 0.930 . S
C3055 C3057 1.406 . S
C3055 C3060 1.261 . S
C3056 H3023 0.930 . S
C3056 N3058 1.325 . S
C3056 C3059 1.357 . S
C3057 H3025 0.928 . S
C3057 C3055 1.406 . S
C3057 N3058 1.261 . S
N3058 Co3009 2.214 . S
N3058 C3056 1.325 . S
N3058 C3057 1.261 . S
C3059 H3029 0.931 . S
C3059 C3056 1.357 . S
C3059 C3060 1.312 . S
C3060 H3031 0.930 . S
C3060 C3055 1.261 . S
C3060 C3059 1.312 . S
C3061 O3033 1.214 . S
C3061 O3041 1.234 . S
C3062 H3034 0.929 . S
C3062 C3065 1.391 . S
C3062 C3067 1.391 . S
C3063 H3035 0.929 . S
C3063 C3064 1.390 . S
C3063 N3066 1.391 . S
C3064 H3036 0.930 . S
C3064 C3063 1.390 . S
C3064 C3065 1.392 . S
C3065 H3037 0.929 . S
C3065 C3062 1.391 . S
C3065 C3064 1.392 . S
N3066 Co3010 2.257 . S
N3066 C3063 1.391 . S
N3066 C3067 1.388 . S
C3067 H3038 0.930 . S
C3067 C3062 1.391 . S
C3067 N3066 1.388 . S
Co3068 O3070 2.143 . S
Co3068 O3076 2.074 . S
Co3068 O3079 2.093 . S
Co3068 O3092 2.097 . S
Co3068 N3109 2.151 . S
Co3068 N3117 2.214 . S
Co3069 O3070 2.160 . S
Co3069 O3075 2.058 . S
Co3069 O3085 2.057 . S
Co3069 O3100 2.037 . S
Co3069 N3104 2.145 . S
Co3069 N3125 2.257 . S
O3070 Co3068 2.143 . S
O3070 Co3069 2.160 . S
C3071 O3072 1.278 . S
C3071 O3079 1.224 . S
O3072 C3071 1.278 . S
C3073 O3074 1.245 . S
C3073 O3085 1.232 . S
O3074 C3073 1.245 . S
O3075 Co3069 2.058 . S
O3075 C3101 1.269 . S
O3076 Co3068 2.074 . S
O3076 C3101 1.257 . S
H3077 C3102 0.930 . S
H3078 C3108 0.930 . S
O3079 Co3068 2.093 . S
O3079 C3071 1.224 . S
H3080 C3112 0.929 . S
H3081 C3114 0.930 . S
H3082 C3115 0.930 . S
H3083 C3113 0.929 . S
H3084 C3116 0.928 . S
O3085 Co3069 2.057 . S
O3085 C3073 1.232 . S
H3086 C3105 0.929 . S
H3087 C3106 0.929 . S
H3088 C3118 0.931 . S
H3089 C3110 0.929 . S
H3090 C3119 0.930 . S
H3091 C3111 0.931 . S
O3092 Co3068 2.097 . S
O3092 C3120 1.214 . S
H3093 C3121 0.929 . S
H3094 C3122 0.929 . S
H3095 C3123 0.930 . S
H3096 C3124 0.929 . S
H3097 C3126 0.930 . S
H3098 C3103 0.930 . S
H3099 C3107 0.930 . S
O3100 Co3069 2.037 . S
O3100 C3120 1.234 . S
C3101 O3075 1.269 . S
C3101 O3076 1.257 . S
C3102 H3077 0.930 . S
C3102 C3105 1.388 . S
C3102 C3107 1.418 . S
C3103 H3098 0.930 . S
C3103 C3106 1.404 . S
C3103 C3107 1.353 . S
N3104 Co3069 2.145 . S
N3104 C3105 1.397 . S
N3104 C3106 1.334 . S
C3105 H3086 0.929 . S
C3105 C3102 1.388 . S
C3105 N3104 1.397 . S
C3106 H3087 0.929 . S
C3106 C3103 1.404 . S
C3106 N3104 1.334 . S
C3107 H3099 0.930 . S
C3107 C3102 1.418 . S
C3107 C3103 1.353 . S
C3108 H3078 0.930 . S
C3108 N3109 1.330 . S
C3108 C3110 1.446 . S
N3109 Co3068 2.151 . S
N3109 C3108 1.330 . S
N3109 C3113 1.418 . S
C3110 H3089 0.929 . S
C3110 C3108 1.446 . S
C3110 C3111 1.332 . S
C3111 H3091 0.931 . S
C3111 C3110 1.332 . S
C3111 C3112 1.267 . S
C3112 H3080 0.929 . S
C3112 C3111 1.267 . S
C3112 C3113 1.251 . S
C3113 H3083 0.929 . S
C3113 N3109 1.418 . S
C3113 C3112 1.251 . S
C3114 H3081 0.930 . S
C3114 C3116 1.406 . S
C3114 C3119 1.261 . S
C3115 H3082 0.930 . S
C3115 N3117 1.325 . S
C3115 C3118 1.357 . S
C3116 H3084 0.928 . S
C3116 C3114 1.406 . S
C3116 N3117 1.261 . S
N3117 Co3068 2.214 . S
N3117 C3115 1.325 . S
N3117 C3116 1.261 . S
C3118 H3088 0.931 . S
C3118 C3115 1.357 . S
C3118 C3119 1.312 . S
C3119 H3090 0.930 . S
C3119 C3114 1.261 . S
C3119 C3118 1.312 . S
C3120 O3092 1.214 . S
C3120 O3100 1.234 . S
C3121 H3093 0.929 . S
C3121 C3124 1.391 . S
C3121 C3126 1.391 . S
C3122 H3094 0.929 . S
C3122 C3123 1.390 . S
C3122 N3125 1.391 . S
C3123 H3095 0.930 . S
C3123 C3122 1.390 . S
C3123 C3124 1.392 . S
C3124 H3096 0.929 . S
C3124 C3121 1.391 . S
C3124 C3123 1.392 . S
N3125 Co3069 2.257 . S
N3125 C3122 1.391 . S
N3125 C3126 1.388 . S
C3126 H3097 0.930 . S
C3126 C3121 1.391 . S
C3126 N3125 1.388 . S
Co3127 O3129 2.143 . S
Co3127 O3135 2.074 . S
Co3127 O3138 2.093 . S
Co3127 O3151 2.097 . S
Co3127 N3168 2.151 . S
Co3127 N3176 2.214 . S
Co3128 O3129 2.160 . S
Co3128 O3134 2.058 . S
Co3128 O3144 2.057 . S
Co3128 O3159 2.037 . S
Co3128 N3163 2.145 . S
Co3128 N3184 2.257 . S
O3129 Co3127 2.143 . S
O3129 Co3128 2.160 . S
C3130 O3131 1.278 . S
C3130 O3138 1.224 . S
O3131 C3130 1.278 . S
C3132 O3133 1.245 . S
C3132 O3144 1.232 . S
O3133 C3132 1.245 . S
O3134 Co3128 2.058 . S
O3134 C3160 1.269 . S
O3135 Co3127 2.074 . S
O3135 C3160 1.257 . S
H3136 C3161 0.930 . S
H3137 C3167 0.930 . S
O3138 Co3127 2.093 . S
O3138 C3130 1.224 . S
H3139 C3171 0.929 . S
H3140 C3173 0.930 . S
H3141 C3174 0.930 . S
H3142 C3172 0.929 . S
H3143 C3175 0.928 . S
O3144 Co3128 2.057 . S
O3144 C3132 1.232 . S
H3145 C3164 0.929 . S
H3146 C3165 0.929 . S
H3147 C3177 0.931 . S
H3148 C3169 0.929 . S
H3149 C3178 0.930 . S
H3150 C3170 0.931 . S
O3151 Co3127 2.097 . S
O3151 C3179 1.214 . S
H3152 C3180 0.929 . S
H3153 C3181 0.929 . S
H3154 C3182 0.930 . S
H3155 C3183 0.929 . S
H3156 C3185 0.930 . S
H3157 C3162 0.930 . S
H3158 C3166 0.930 . S
O3159 Co3128 2.037 . S
O3159 C3179 1.234 . S
C3160 O3134 1.269 . S
C3160 O3135 1.257 . S
C3161 H3136 0.930 . S
C3161 C3164 1.388 . S
C3161 C3166 1.418 . S
C3162 H3157 0.930 . S
C3162 C3165 1.404 . S
C3162 C3166 1.353 . S
N3163 Co3128 2.145 . S
N3163 C3164 1.397 . S
N3163 C3165 1.334 . S
C3164 H3145 0.929 . S
C3164 C3161 1.388 . S
C3164 N3163 1.397 . S
C3165 H3146 0.929 . S
C3165 C3162 1.404 . S
C3165 N3163 1.334 . S
C3166 H3158 0.930 . S
C3166 C3161 1.418 . S
C3166 C3162 1.353 . S
C3167 H3137 0.930 . S
C3167 N3168 1.330 . S
C3167 C3169 1.446 . S
N3168 Co3127 2.151 . S
N3168 C3167 1.330 . S
N3168 C3172 1.418 . S
C3169 H3148 0.929 . S
C3169 C3167 1.446 . S
C3169 C3170 1.332 . S
C3170 H3150 0.931 . S
C3170 C3169 1.332 . S
C3170 C3171 1.267 . S
C3171 H3139 0.929 . S
C3171 C3170 1.267 . S
C3171 C3172 1.251 . S
C3172 H3142 0.929 . S
C3172 N3168 1.418 . S
C3172 C3171 1.251 . S
C3173 H3140 0.930 . S
C3173 C3175 1.406 . S
C3173 C3178 1.261 . S
C3174 H3141 0.930 . S
C3174 N3176 1.325 . S
C3174 C3177 1.357 . S
C3175 H3143 0.928 . S
C3175 C3173 1.406 . S
C3175 N3176 1.261 . S
N3176 Co3127 2.214 . S
N3176 C3174 1.325 . S
N3176 C3175 1.261 . S
C3177 H3147 0.931 . S
C3177 C3174 1.357 . S
C3177 C3178 1.312 . S
C3178 H3149 0.930 . S
C3178 C3173 1.261 . S
C3178 C3177 1.312 . S
C3179 O3151 1.214 . S
C3179 O3159 1.234 . S
C3180 H3152 0.929 . S
C3180 C3183 1.391 . S
C3180 C3185 1.391 . S
C3181 H3153 0.929 . S
C3181 C3182 1.390 . S
C3181 N3184 1.391 . S
C3182 H3154 0.930 . S
C3182 C3181 1.390 . S
C3182 C3183 1.392 . S
C3183 H3155 0.929 . S
C3183 C3180 1.391 . S
C3183 C3182 1.392 . S
N3184 Co3128 2.257 . S
N3184 C3181 1.391 . S
N3184 C3185 1.388 . S
C3185 H3156 0.930 . S
C3185 C3180 1.391 . S
C3185 N3184 1.388 . S
Co3186 O3188 2.143 . S
Co3186 O3194 2.074 . S
Co3186 O3197 2.093 . S
Co3186 O3210 2.097 . S
Co3186 N3227 2.151 . S
Co3186 N3235 2.214 . S
Co3187 O3188 2.160 . S
Co3187 O3193 2.058 . S
Co3187 O3203 2.027 1_545 S
Co3187 O3218 2.037 . S
Co3187 N3222 2.145 1_545 S
Co3187 N3243 2.257 1_545 S
O3188 Co3186 2.143 . S
O3188 Co3187 2.160 . S
C3189 O3190 1.278 . S
C3189 O3197 1.224 . S
O3190 C3189 1.278 . S
C3191 O3192 1.245 . S
C3191 O3203 1.222 1_545 S
O3192 C3191 1.245 . S
O3193 Co3187 2.058 . S
O3193 C3219 1.269 . S
O3194 Co3186 2.074 . S
O3194 C3219 1.257 . S
H3195 C3220 0.929 . S
H3196 C3226 0.930 . S
O3197 Co3186 2.093 . S
O3197 C3189 1.224 . S
H3198 C3230 0.929 . S
H3199 C3232 0.930 . S
H3200 C3233 0.930 . S
H3201 C3231 0.929 . S
H3202 C3234 0.928 . S
O3203 Co3187 2.027 1_565 S
O3203 C3191 1.222 1_565 S
H3204 C3223 0.929 . S
H3205 C3224 0.929 . S
H3206 C3236 0.931 . S
H3207 C3228 0.929 . S
H3208 C3237 0.930 . S
H3209 C3229 0.931 . S
O3210 Co3186 2.097 . S
O3210 C3238 1.214 . S
H3211 C3239 0.929 . S
H3212 C3240 0.929 . S
H3213 C3241 0.930 . S
H3214 C3242 0.929 . S
H3215 C3244 0.930 . S
H3216 C3221 0.930 . S
H3217 C3225 0.930 . S
O3218 Co3187 2.037 . S
O3218 C3238 1.234 . S
C3219 O3193 1.269 . S
C3219 O3194 1.257 . S
C3220 H3195 0.929 . S
C3220 C3223 1.388 1_565 S
C3220 C3225 1.418 . S
C3221 H3216 0.930 . S
C3221 C3224 1.404 . S
C3221 C3225 1.353 . S
N3222 Co3187 2.145 1_565 S
N3222 C3223 1.397 1_565 S
N3222 C3224 1.334 . S
C3223 H3204 0.929 . S
C3223 C3220 1.388 1_545 S
C3223 N3222 1.397 1_545 S
C3224 H3205 0.929 . S
C3224 C3221 1.404 . S
C3224 N3222 1.334 . S
C3225 H3217 0.930 . S
C3225 C3220 1.418 . S
C3225 C3221 1.353 . S
C3226 H3196 0.930 . S
C3226 N3227 1.330 . S
C3226 C3228 1.446 . S
N3227 Co3186 2.151 . S
N3227 C3226 1.330 . S
N3227 C3231 1.418 . S
C3228 H3207 0.929 . S
C3228 C3226 1.446 . S
C3228 C3229 1.332 . S
C3229 H3209 0.931 . S
C3229 C3228 1.332 . S
C3229 C3230 1.267 . S
C3230 H3198 0.929 . S
C3230 C3229 1.267 . S
C3230 C3231 1.251 . S
C3231 H3201 0.929 . S
C3231 N3227 1.418 . S
C3231 C3230 1.251 . S
C3232 H3199 0.930 . S
C3232 C3234 1.406 . S
C3232 C3237 1.261 . S
C3233 H3200 0.930 . S
C3233 N3235 1.325 . S
C3233 C3236 1.357 . S
C3234 H3202 0.928 . S
C3234 C3232 1.406 . S
C3234 N3235 1.261 . S
N3235 Co3186 2.214 . S
N3235 C3233 1.325 . S
N3235 C3234 1.261 . S
C3236 H3206 0.931 . S
C3236 C3233 1.357 . S
C3236 C3237 1.312 . S
C3237 H3208 0.930 . S
C3237 C3232 1.261 . S
C3237 C3236 1.312 . S
C3238 O3210 1.214 . S
C3238 O3218 1.234 . S
C3239 H3211 0.929 . S
C3239 C3242 1.391 . S
C3239 C3244 1.391 . S
C3240 H3212 0.929 . S
C3240 C3241 1.390 . S
C3240 N3243 1.391 . S
C3241 H3213 0.930 . S
C3241 C3240 1.390 . S
C3241 C3242 1.392 . S
C3242 H3214 0.929 . S
C3242 C3239 1.391 . S
C3242 C3241 1.392 . S
N3243 Co3187 2.257 1_565 S
N3243 C3240 1.391 . S
N3243 C3244 1.388 . S
C3244 H3215 0.930 . S
C3244 C3239 1.391 . S
C3244 N3243 1.388 . S
Co3245 O3247 2.143 . S
Co3245 O3253 2.074 . S
Co3245 O3256 2.093 . S
Co3245 O3269 2.097 . S
Co3245 N3286 2.151 . S
Co3245 N3294 2.214 . S
Co3246 O3247 2.160 . S
Co3246 O3252 2.058 . S
Co3246 O3262 2.057 . S
Co3246 O3277 2.037 . S
Co3246 N3281 2.145 . S
Co3246 N3302 2.257 . S
O3247 Co3245 2.143 . S
O3247 Co3246 2.160 . S
C3248 O3249 1.278 . S
C3248 O3256 1.224 . S
O3249 C3248 1.278 . S
C3250 O3251 1.245 . S
C3250 O3262 1.232 . S
O3251 C3250 1.245 . S
O3252 Co3246 2.058 . S
O3252 C3278 1.269 . S
O3253 Co3245 2.074 . S
O3253 C3278 1.257 . S
H3254 C3279 0.930 . S
H3255 C3285 0.930 . S
O3256 Co3245 2.093 . S
O3256 C3248 1.224 . S
H3257 C3289 0.929 . S
H3258 C3291 0.930 . S
H3259 C3292 0.930 . S
H3260 C3290 0.929 . S
H3261 C3293 0.928 . S
O3262 Co3246 2.057 . S
O3262 C3250 1.232 . S
H3263 C3282 0.929 . S
H3264 C3283 0.929 . S
H3265 C3295 0.931 . S
H3266 C3287 0.929 . S
H3267 C3296 0.930 . S
H3268 C3288 0.931 . S
O3269 Co3245 2.097 . S
O3269 C3297 1.214 . S
H3270 C3298 0.929 . S
H3271 C3299 0.929 . S
H3272 C3300 0.930 . S
H3273 C3301 0.929 . S
H3274 C3303 0.930 . S
H3275 C3280 0.930 . S
H3276 C3284 0.930 . S
O3277 Co3246 2.037 . S
O3277 C3297 1.234 . S
C3278 O3252 1.269 . S
C3278 O3253 1.257 . S
C3279 H3254 0.930 . S
C3279 C3282 1.388 . S
C3279 C3284 1.418 . S
C3280 H3275 0.930 . S
C3280 C3283 1.404 . S
C3280 C3284 1.353 . S
N3281 Co3246 2.145 . S
N3281 C3282 1.397 . S
N3281 C3283 1.334 . S
C3282 H3263 0.929 . S
C3282 C3279 1.388 . S
C3282 N3281 1.397 . S
C3283 H3264 0.929 . S
C3283 C3280 1.404 . S
C3283 N3281 1.334 . S
C3284 H3276 0.930 . S
C3284 C3279 1.418 . S
C3284 C3280 1.353 . S
C3285 H3255 0.930 . S
C3285 N3286 1.330 . S
C3285 C3287 1.446 . S
N3286 Co3245 2.151 . S
N3286 C3285 1.330 . S
N3286 C3290 1.418 . S
C3287 H3266 0.929 . S
C3287 C3285 1.446 . S
C3287 C3288 1.332 . S
C3288 H3268 0.931 . S
C3288 C3287 1.332 . S
C3288 C3289 1.267 . S
C3289 H3257 0.929 . S
C3289 C3288 1.267 . S
C3289 C3290 1.251 . S
C3290 H3260 0.929 . S
C3290 N3286 1.418 . S
C3290 C3289 1.251 . S
C3291 H3258 0.930 . S
C3291 C3293 1.406 . S
C3291 C3296 1.261 . S
C3292 H3259 0.930 . S
C3292 N3294 1.325 . S
C3292 C3295 1.357 . S
C3293 H3261 0.928 . S
C3293 C3291 1.406 . S
C3293 N3294 1.261 . S
N3294 Co3245 2.214 . S
N3294 C3292 1.325 . S
N3294 C3293 1.261 . S
C3295 H3265 0.931 . S
C3295 C3292 1.357 . S
C3295 C3296 1.312 . S
C3296 H3267 0.930 . S
C3296 C3291 1.261 . S
C3296 C3295 1.312 . S
C3297 O3269 1.214 . S
C3297 O3277 1.234 . S
C3298 H3270 0.929 . S
C3298 C3301 1.391 . S
C3298 C3303 1.391 . S
C3299 H3271 0.929 . S
C3299 C3300 1.390 . S
C3299 N3302 1.391 . S
C3300 H3272 0.930 . S
C3300 C3299 1.390 . S
C3300 C3301 1.392 . S
C3301 H3273 0.929 . S
C3301 C3298 1.391 . S
C3301 C3300 1.392 . S
N3302 Co3246 2.257 . S
N3302 C3299 1.391 . S
N3302 C3303 1.388 . S
C3303 H3274 0.930 . S
C3303 C3298 1.391 . S
C3303 N3302 1.388 . S
Co3304 O3306 2.143 . S
Co3304 O3312 2.074 . S
Co3304 O3315 2.093 . S
Co3304 O3328 2.097 . S
Co3304 N3345 2.151 1_554 S
Co3304 N3353 2.214 . S
Co3305 O3306 2.160 . S
Co3305 O3311 2.058 . S
Co3305 O3321 2.057 . S
Co3305 O3336 2.037 . S
Co3305 N3340 2.145 . S
Co3305 N3361 2.257 . S
O3306 Co3304 2.143 . S
O3306 Co3305 2.160 . S
C3307 O3308 1.278 . S
C3307 O3315 1.224 . S
O3308 C3307 1.278 . S
C3309 O3310 1.245 . S
C3309 O3321 1.232 . S
O3310 C3309 1.245 . S
O3311 Co3305 2.058 . S
O3311 C3337 1.269 . S
O3312 Co3304 2.074 . S
O3312 C3337 1.257 . S
H3313 C3338 0.930 . S
H3314 C3344 0.930 . S
O3315 Co3304 2.093 . S
O3315 C3307 1.224 . S
H3316 C3348 0.929 . S
H3317 C3350 0.930 . S
H3318 C3351 0.930 . S
H3319 C3349 0.929 . S
H3320 C3352 0.928 . S
O3321 Co3305 2.057 . S
O3321 C3309 1.232 . S
H3322 C3341 0.929 . S
H3323 C3342 0.929 . S
H3324 C3354 0.931 . S
H3325 C3346 0.929 . S
H3326 C3355 0.930 . S
H3327 C3347 0.931 . S
O3328 Co3304 2.097 . S
O3328 C3356 1.214 . S
H3329 C3357 0.929 . S
H3330 C3358 0.929 . S
H3331 C3359 0.930 . S
H3332 C3360 0.929 . S
H3333 C3362 0.930 . S
H3334 C3339 0.930 . S
H3335 C3343 0.930 . S
O3336 Co3305 2.037 . S
O3336 C3356 1.234 . S
C3337 O3311 1.269 . S
C3337 O3312 1.257 . S
C3338 H3313 0.930 . S
C3338 C3341 1.388 . S
C3338 C3343 1.418 . S
C3339 H3334 0.930 . S
C3339 C3342 1.404 . S
C3339 C3343 1.353 . S
N3340 Co3305 2.145 . S
N3340 C3341 1.397 . S
N3340 C3342 1.334 . S
C3341 H3322 0.929 . S
C3341 C3338 1.388 . S
C3341 N3340 1.397 . S
C3342 H3323 0.929 . S
C3342 C3339 1.404 . S
C3342 N3340 1.334 . S
C3343 H3335 0.930 . S
C3343 C3338 1.418 . S
C3343 C3339 1.353 . S
C3344 H3314 0.930 . S
C3344 N3345 1.330 . S
C3344 C3346 1.446 . S
N3345 Co3304 2.151 1_556 S
N3345 C3344 1.330 . S
N3345 C3349 1.418 . S
C3346 H3325 0.929 . S
C3346 C3344 1.446 . S
C3346 C3347 1.332 . S
C3347 H3327 0.931 . S
C3347 C3346 1.332 . S
C3347 C3348 1.267 . S
C3348 H3316 0.929 . S
C3348 C3347 1.267 . S
C3348 C3349 1.251 . S
C3349 H3319 0.929 . S
C3349 N3345 1.418 . S
C3349 C3348 1.251 . S
C3350 H3317 0.930 . S
C3350 C3352 1.406 . S
C3350 C3355 1.261 . S
C3351 H3318 0.930 . S
C3351 N3353 1.325 . S
C3351 C3354 1.357 . S
C3352 H3320 0.928 . S
C3352 C3350 1.406 . S
C3352 N3353 1.261 1_556 S
N3353 Co3304 2.214 . S
N3353 C3351 1.325 . S
N3353 C3352 1.261 1_554 S
C3354 H3324 0.931 . S
C3354 C3351 1.357 . S
C3354 C3355 1.312 1_554 S
C3355 H3326 0.930 . S
C3355 C3350 1.261 . S
C3355 C3354 1.312 1_556 S
C3356 O3328 1.214 . S
C3356 O3336 1.234 . S
C3357 H3329 0.929 . S
C3357 C3360 1.391 . S
C3357 C3362 1.391 . S
C3358 H3330 0.929 . S
C3358 C3359 1.390 . S
C3358 N3361 1.391 . S
C3359 H3331 0.930 . S
C3359 C3358 1.390 . S
C3359 C3360 1.392 . S
C3360 H3332 0.929 . S
C3360 C3357 1.391 . S
C3360 C3359 1.392 . S
N3361 Co3305 2.257 . S
N3361 C3358 1.391 . S
N3361 C3362 1.388 . S
C3362 H3333 0.930 . S
C3362 C3357 1.391 . S
C3362 N3361 1.388 . S
Co3363 O3365 2.143 . S
Co3363 O3371 2.074 . S
Co3363 O3374 2.093 . S
Co3363 O3387 2.097 . S
Co3363 N3404 2.151 . S
Co3363 N3412 2.214 . S
Co3364 O3365 2.160 . S
Co3364 O3370 2.058 . S
Co3364 O3380 2.057 . S
Co3364 O3395 2.037 . S
Co3364 N3399 2.145 . S
Co3364 N3420 2.257 . S
O3365 Co3363 2.143 . S
O3365 Co3364 2.160 . S
C3366 O3367 1.278 . S
C3366 O3374 1.224 . S
O3367 C3366 1.278 . S
C3368 O3369 1.245 . S
C3368 O3380 1.232 . S
O3369 C3368 1.245 . S
O3370 Co3364 2.058 . S
O3370 C3396 1.269 . S
O3371 Co3363 2.074 . S
O3371 C3396 1.257 . S
H3372 C3397 0.930 . S
H3373 C3403 0.930 . S
O3374 Co3363 2.093 . S
O3374 C3366 1.224 . S
H3375 C3407 0.929 . S
H3376 C3409 0.930 . S
H3377 C3410 0.930 . S
H3378 C3408 0.929 . S
H3379 C3411 0.928 . S
O3380 Co3364 2.057 . S
O3380 C3368 1.232 . S
H3381 C3400 0.929 . S
H3382 C3401 0.929 . S
H3383 C3413 0.931 . S
H3384 C3405 0.929 . S
H3385 C3414 0.930 . S
H3386 C3406 0.931 . S
O3387 Co3363 2.097 . S
O3387 C3415 1.214 . S
H3388 C3416 0.929 . S
H3389 C3417 0.929 . S
H3390 C3418 0.930 . S
H3391 C3419 0.929 . S
H3392 C3421 0.930 . S
H3393 C3398 0.930 . S
H3394 C3402 0.930 . S
O3395 Co3364 2.037 . S
O3395 C3415 1.234 . S
C3396 O3370 1.269 . S
C3396 O3371 1.257 . S
C3397 H3372 0.930 . S
C3397 C3400 1.388 . S
C3397 C3402 1.418 . S
C3398 H3393 0.930 . S
C3398 C3401 1.404 . S
C3398 C3402 1.353 . S
N3399 Co3364 2.145 . S
N3399 C3400 1.397 . S
N3399 C3401 1.334 . S
C3400 H3381 0.929 . S
C3400 C3397 1.388 . S
C3400 N3399 1.397 . S
C3401 H3382 0.929 . S
C3401 C3398 1.404 . S
C3401 N3399 1.334 . S
C3402 H3394 0.930 . S
C3402 C3397 1.418 . S
C3402 C3398 1.353 . S
C3403 H3373 0.930 . S
C3403 N3404 1.330 . S
C3403 C3405 1.446 . S
N3404 Co3363 2.151 . S
N3404 C3403 1.330 . S
N3404 C3408 1.418 . S
C3405 H3384 0.929 . S
C3405 C3403 1.446 . S
C3405 C3406 1.332 . S
C3406 H3386 0.931 . S
C3406 C3405 1.332 . S
C3406 C3407 1.267 . S
C3407 H3375 0.929 . S
C3407 C3406 1.267 . S
C3407 C3408 1.251 . S
C3408 H3378 0.929 . S
C3408 N3404 1.418 . S
C3408 C3407 1.251 . S
C3409 H3376 0.930 . S
C3409 C3411 1.406 . S
C3409 C3414 1.261 . S
C3410 H3377 0.930 . S
C3410 N3412 1.325 . S
C3410 C3413 1.357 . S
C3411 H3379 0.928 . S
C3411 C3409 1.406 . S
C3411 N3412 1.261 . S
N3412 Co3363 2.214 . S
N3412 C3410 1.325 . S
N3412 C3411 1.261 . S
C3413 H3383 0.931 . S
C3413 C3410 1.357 . S
C3413 C3414 1.312 . S
C3414 H3385 0.930 . S
C3414 C3409 1.261 . S
C3414 C3413 1.312 . S
C3415 O3387 1.214 . S
C3415 O3395 1.234 . S
C3416 H3388 0.929 . S
C3416 C3419 1.391 . S
C3416 C3421 1.391 . S
C3417 H3389 0.929 . S
C3417 C3418 1.390 . S
C3417 N3420 1.391 . S
C3418 H3390 0.930 . S
C3418 C3417 1.390 . S
C3418 C3419 1.392 . S
C3419 H3391 0.929 . S
C3419 C3416 1.391 . S
C3419 C3418 1.392 . S
N3420 Co3364 2.257 . S
N3420 C3417 1.391 . S
N3420 C3421 1.388 . S
C3421 H3392 0.930 . S
C3421 C3416 1.391 . S
C3421 N3420 1.388 . S
Co3422 O3424 2.143 . S
Co3422 O3430 2.074 . S
Co3422 O3433 2.093 . S
Co3422 O3446 2.097 . S
Co3422 N3463 2.151 . S
Co3422 N3471 2.214 . S
Co3423 O3424 2.160 . S
Co3423 O3429 2.058 . S
Co3423 O3439 2.057 . S
Co3423 O3454 2.037 . S
Co3423 N3458 2.145 . S
Co3423 N3479 2.257 . S
O3424 Co3422 2.143 . S
O3424 Co3423 2.160 . S
C3425 O3426 1.278 . S
C3425 O3433 1.224 . S
O3426 C3425 1.278 . S
C3427 O3428 1.245 . S
C3427 O3439 1.232 . S
O3428 C3427 1.245 . S
O3429 Co3423 2.058 . S
O3429 C3455 1.269 . S
O3430 Co3422 2.074 . S
O3430 C3455 1.257 . S
H3431 C3456 0.930 . S
H3432 C3462 0.930 . S
O3433 Co3422 2.093 . S
O3433 C3425 1.224 . S
H3434 C3466 0.929 . S
H3435 C3468 0.930 . S
H3436 C3469 0.930 . S
H3437 C3467 0.929 . S
H3438 C3470 0.928 . S
O3439 Co3423 2.057 . S
O3439 C3427 1.232 . S
H3440 C3459 0.929 . S
H3441 C3460 0.929 . S
H3442 C3472 0.931 . S
H3443 C3464 0.929 . S
H3444 C3473 0.930 . S
H3445 C3465 0.931 . S
O3446 Co3422 2.097 . S
O3446 C3474 1.214 . S
H3447 C3475 0.929 . S
H3448 C3476 0.929 . S
H3449 C3477 0.930 . S
H3450 C3478 0.929 . S
H3451 C3480 0.930 . S
H3452 C3457 0.930 . S
H3453 C3461 0.930 . S
O3454 Co3423 2.037 . S
O3454 C3474 1.234 . S
C3455 O3429 1.269 . S
C3455 O3430 1.257 . S
C3456 H3431 0.930 . S
C3456 C3459 1.388 . S
C3456 C3461 1.418 . S
C3457 H3452 0.930 . S
C3457 C3460 1.404 . S
C3457 C3461 1.353 . S
N3458 Co3423 2.145 . S
N3458 C3459 1.397 . S
N3458 C3460 1.334 . S
C3459 H3440 0.929 . S
C3459 C3456 1.388 . S
C3459 N3458 1.397 . S
C3460 H3441 0.929 . S
C3460 C3457 1.404 . S
C3460 N3458 1.334 . S
C3461 H3453 0.930 . S
C3461 C3456 1.418 . S
C3461 C3457 1.353 . S
C3462 H3432 0.930 . S
C3462 N3463 1.330 . S
C3462 C3464 1.446 . S
N3463 Co3422 2.151 . S
N3463 C3462 1.330 . S
N3463 C3467 1.418 . S
C3464 H3443 0.929 . S
C3464 C3462 1.446 . S
C3464 C3465 1.332 . S
C3465 H3445 0.931 . S
C3465 C3464 1.332 . S
C3465 C3466 1.267 . S
C3466 H3434 0.929 . S
C3466 C3465 1.267 . S
C3466 C3467 1.251 . S
C3467 H3437 0.929 . S
C3467 N3463 1.418 . S
C3467 C3466 1.251 . S
C3468 H3435 0.930 . S
C3468 C3470 1.406 . S
C3468 C3473 1.261 . S
C3469 H3436 0.930 . S
C3469 N3471 1.325 . S
C3469 C3472 1.357 . S
C3470 H3438 0.928 . S
C3470 C3468 1.406 . S
C3470 N3471 1.261 . S
N3471 Co3422 2.214 . S
N3471 C3469 1.325 . S
N3471 C3470 1.261 . S
C3472 H3442 0.931 . S
C3472 C3469 1.357 . S
C3472 C3473 1.312 . S
C3473 H3444 0.930 . S
C3473 C3468 1.261 . S
C3473 C3472 1.312 . S
C3474 O3446 1.214 . S
C3474 O3454 1.234 . S
C3475 H3447 0.929 . S
C3475 C3478 1.391 . S
C3475 C3480 1.391 . S
C3476 H3448 0.929 . S
C3476 C3477 1.390 . S
C3476 N3479 1.391 . S
C3477 H3449 0.930 . S
C3477 C3476 1.390 . S
C3477 C3478 1.392 . S
C3478 H3450 0.929 . S
C3478 C3475 1.391 . S
C3478 C3477 1.392 . S
N3479 Co3423 2.257 . S
N3479 C3476 1.391 . S
N3479 C3480 1.388 . S
C3480 H3451 0.930 . S
C3480 C3475 1.391 . S
C3480 N3479 1.388 . S
Co3481 O3483 2.143 . S
Co3481 O3489 2.074 . S
Co3481 O3492 2.093 . S
Co3481 O3505 2.097 . S
Co3481 N3522 2.151 . S
Co3481 N3530 2.214 . S
Co3482 O3483 2.160 . S
Co3482 O3488 2.058 . S
Co3482 O3498 2.057 . S
Co3482 O3513 2.037 . S
Co3482 N3517 2.145 . S
Co3482 N3538 2.257 . S
O3483 Co3481 2.143 . S
O3483 Co3482 2.160 . S
C3484 O3485 1.278 . S
C3484 O3492 1.224 . S
O3485 C3484 1.278 . S
C3486 O3487 1.245 . S
C3486 O3498 1.232 . S
O3487 C3486 1.245 . S
O3488 Co3482 2.058 . S
O3488 C3514 1.269 . S
O3489 Co3481 2.074 . S
O3489 C3514 1.257 . S
H3490 C3515 0.930 . S
H3491 C3521 0.930 . S
O3492 Co3481 2.093 . S
O3492 C3484 1.224 . S
H3493 C3525 0.929 . S
H3494 C3527 0.930 . S
H3495 C3528 0.930 . S
H3496 C3526 0.929 . S
H3497 C3529 0.928 . S
O3498 Co3482 2.057 . S
O3498 C3486 1.232 . S
H3499 C3518 0.929 . S
H3500 C3519 0.929 . S
H3501 C3531 0.931 . S
H3502 C3523 0.929 . S
H3503 C3532 0.930 . S
H3504 C3524 0.931 . S
O3505 Co3481 2.097 . S
O3505 C3533 1.214 . S
H3506 C3534 0.929 . S
H3507 C3535 0.929 . S
H3508 C3536 0.930 . S
H3509 C3537 0.929 . S
H3510 C3539 0.930 . S
H3511 C3516 0.930 . S
H3512 C3520 0.930 . S
O3513 Co3482 2.037 . S
O3513 C3533 1.234 . S
C3514 O3488 1.269 . S
C3514 O3489 1.257 . S
C3515 H3490 0.930 . S
C3515 C3518 1.388 . S
C3515 C3520 1.418 . S
C3516 H3511 0.930 . S
C3516 C3519 1.404 . S
C3516 C3520 1.353 . S
N3517 Co3482 2.145 . S
N3517 C3518 1.397 . S
N3517 C3519 1.334 . S
C3518 H3499 0.929 . S
C3518 C3515 1.388 . S
C3518 N3517 1.397 . S
C3519 H3500 0.929 . S
C3519 C3516 1.404 . S
C3519 N3517 1.334 . S
C3520 H3512 0.930 . S
C3520 C3515 1.418 . S
C3520 C3516 1.353 . S
C3521 H3491 0.930 . S
C3521 N3522 1.330 . S
C3521 C3523 1.446 . S
N3522 Co3481 2.151 . S
N3522 C3521 1.330 . S
N3522 C3526 1.418 . S
C3523 H3502 0.929 . S
C3523 C3521 1.446 . S
C3523 C3524 1.332 . S
C3524 H3504 0.931 . S
C3524 C3523 1.332 . S
C3524 C3525 1.267 . S
C3525 H3493 0.929 . S
C3525 C3524 1.267 . S
C3525 C3526 1.251 . S
C3526 H3496 0.929 . S
C3526 N3522 1.418 . S
C3526 C3525 1.251 . S
C3527 H3494 0.930 . S
C3527 C3529 1.406 . S
C3527 C3532 1.261 . S
C3528 H3495 0.930 . S
C3528 N3530 1.325 . S
C3528 C3531 1.357 . S
C3529 H3497 0.928 . S
C3529 C3527 1.406 . S
C3529 N3530 1.261 . S
N3530 Co3481 2.214 . S
N3530 C3528 1.325 . S
N3530 C3529 1.261 . S
C3531 H3501 0.931 . S
C3531 C3528 1.357 . S
C3531 C3532 1.312 . S
C3532 H3503 0.930 . S
C3532 C3527 1.261 . S
C3532 C3531 1.312 . S
C3533 O3505 1.214 . S
C3533 O3513 1.234 . S
C3534 H3506 0.929 . S
C3534 C3537 1.391 . S
C3534 C3539 1.391 . S
C3535 H3507 0.929 . S
C3535 C3536 1.390 . S
C3535 N3538 1.391 . S
C3536 H3508 0.930 . S
C3536 C3535 1.390 . S
C3536 C3537 1.392 . S
C3537 H3509 0.929 . S
C3537 C3534 1.391 . S
C3537 C3536 1.392 . S
N3538 Co3482 2.257 . S
N3538 C3535 1.391 . S
N3538 C3539 1.388 . S
C3539 H3510 0.930 . S
C3539 C3534 1.391 . S
C3539 N3538 1.388 . S
Co3540 O3542 2.143 . S
Co3540 O3548 2.074 . S
Co3540 O3551 2.093 . S
Co3540 O3564 2.097 . S
Co3540 N3581 2.151 1_556 S
Co3540 N3589 2.214 . S
Co3541 O3542 2.160 . S
Co3541 O3547 2.058 . S
Co3541 O3557 2.057 . S
Co3541 O3572 2.037 . S
Co3541 N3576 2.145 . S
Co3541 N3597 2.257 . S
O3542 Co3540 2.143 . S
O3542 Co3541 2.160 . S
C3543 O3544 1.278 . S
C3543 O3551 1.224 . S
O3544 C3543 1.278 . S
C3545 O3546 1.245 . S
C3545 O3557 1.232 . S
O3546 C3545 1.245 . S
O3547 Co3541 2.058 . S
O3547 C3573 1.269 . S
O3548 Co3540 2.074 . S
O3548 C3573 1.257 . S
H3549 C3574 0.930 . S
H3550 C3580 0.930 . S
O3551 Co3540 2.093 . S
O3551 C3543 1.224 . S
H3552 C3584 0.929 . S
H3553 C3586 0.930 . S
H3554 C3587 0.930 . S
H3555 C3585 0.929 . S
H3556 C3588 0.928 . S
O3557 Co3541 2.057 . S
O3557 C3545 1.232 . S
H3558 C3577 0.929 . S
H3559 C3578 0.929 . S
H3560 C3590 0.931 . S
H3561 C3582 0.929 . S
H3562 C3591 0.930 . S
H3563 C3583 0.931 . S
O3564 Co3540 2.097 . S
O3564 C3592 1.214 . S
H3565 C3593 0.929 . S
H3566 C3594 0.929 . S
H3567 C3595 0.930 . S
H3568 C3596 0.929 . S
H3569 C3598 0.930 . S
H3570 C3575 0.930 . S
H3571 C3579 0.930 . S
O3572 Co3541 2.037 . S
O3572 C3592 1.234 . S
C3573 O3547 1.269 . S
C3573 O3548 1.257 . S
C3574 H3549 0.930 . S
C3574 C3577 1.388 . S
C3574 C3579 1.418 . S
C3575 H3570 0.930 . S
C3575 C3578 1.404 . S
C3575 C3579 1.353 . S
N3576 Co3541 2.145 . S
N3576 C3577 1.397 . S
N3576 C3578 1.334 . S
C3577 H3558 0.929 . S
C3577 C3574 1.388 . S
C3577 N3576 1.397 . S
C3578 H3559 0.929 . S
C3578 C3575 1.404 . S
C3578 N3576 1.334 . S
C3579 H3571 0.930 . S
C3579 C3574 1.418 . S
C3579 C3575 1.353 . S
C3580 H3550 0.930 . S
C3580 N3581 1.330 . S
C3580 C3582 1.446 . S
N3581 Co3540 2.151 1_554 S
N3581 C3580 1.330 . S
N3581 C3585 1.418 . S
C3582 H3561 0.929 . S
C3582 C3580 1.446 . S
C3582 C3583 1.332 . S
C3583 H3563 0.931 . S
C3583 C3582 1.332 . S
C3583 C3584 1.267 . S
C3584 H3552 0.929 . S
C3584 C3583 1.267 . S
C3584 C3585 1.251 . S
C3585 H3555 0.929 . S
C3585 N3581 1.418 . S
C3585 C3584 1.251 . S
C3586 H3553 0.930 . S
C3586 C3588 1.406 . S
C3586 C3591 1.261 . S
C3587 H3554 0.930 . S
C3587 N3589 1.325 . S
C3587 C3590 1.357 . S
C3588 H3556 0.928 . S
C3588 C3586 1.406 . S
C3588 N3589 1.261 1_554 S
N3589 Co3540 2.214 . S
N3589 C3587 1.325 . S
N3589 C3588 1.261 1_556 S
C3590 H3560 0.931 . S
C3590 C3587 1.357 . S
C3590 C3591 1.312 1_556 S
C3591 H3562 0.930 . S
C3591 C3586 1.261 . S
C3591 C3590 1.312 1_554 S
C3592 O3564 1.214 . S
C3592 O3572 1.234 . S
C3593 H3565 0.929 . S
C3593 C3596 1.391 . S
C3593 C3598 1.391 . S
C3594 H3566 0.929 . S
C3594 C3595 1.390 . S
C3594 N3597 1.391 . S
C3595 H3567 0.930 . S
C3595 C3594 1.390 . S
C3595 C3596 1.392 . S
C3596 H3568 0.929 . S
C3596 C3593 1.391 . S
C3596 C3595 1.392 . S
N3597 Co3541 2.257 . S
N3597 C3594 1.391 . S
N3597 C3598 1.388 . S
C3598 H3569 0.930 . S
C3598 C3593 1.391 . S
C3598 N3597 1.388 . S
Co3599 O3601 2.143 . S
Co3599 O3607 2.074 . S
Co3599 O3610 2.093 . S
Co3599 O3623 2.097 . S
Co3599 N3640 2.151 . S
Co3599 N3648 2.214 . S
Co3600 O3601 2.160 . S
Co3600 O3606 2.058 . S
Co3600 O3616 2.057 . S
Co3600 O3631 2.037 . S
Co3600 N3635 2.145 . S
Co3600 N3656 2.257 . S
O3601 Co3599 2.143 . S
O3601 Co3600 2.160 . S
C3602 O3603 1.278 . S
C3602 O3610 1.224 . S
O3603 C3602 1.278 . S
C3604 O3605 1.245 . S
C3604 O3616 1.232 . S
O3605 C3604 1.245 . S
O3606 Co3600 2.058 . S
O3606 C3632 1.269 . S
O3607 Co3599 2.074 . S
O3607 C3632 1.257 . S
H3608 C3633 0.930 . S
H3609 C3639 0.930 . S
O3610 Co3599 2.093 . S
O3610 C3602 1.224 . S
H3611 C3643 0.929 . S
H3612 C3645 0.930 . S
H3613 C3646 0.930 . S
H3614 C3644 0.929 . S
H3615 C3647 0.928 . S
O3616 Co3600 2.057 . S
O3616 C3604 1.232 . S
H3617 C3636 0.929 . S
H3618 C3637 0.929 . S
H3619 C3649 0.931 . S
H3620 C3641 0.929 . S
H3621 C3650 0.930 . S
H3622 C3642 0.931 . S
O3623 Co3599 2.097 . S
O3623 C3651 1.214 . S
H3624 C3652 0.929 . S
H3625 C3653 0.929 . S
H3626 C3654 0.930 . S
H3627 C3655 0.929 . S
H3628 C3657 0.930 . S
H3629 C3634 0.930 . S
H3630 C3638 0.930 . S
O3631 Co3600 2.037 . S
O3631 C3651 1.234 . S
C3632 O3606 1.269 . S
C3632 O3607 1.257 . S
C3633 H3608 0.930 . S
C3633 C3636 1.388 . S
C3633 C3638 1.418 . S
C3634 H3629 0.930 . S
C3634 C3637 1.404 . S
C3634 C3638 1.353 . S
N3635 Co3600 2.145 . S
N3635 C3636 1.397 . S
N3635 C3637 1.334 . S
C3636 H3617 0.929 . S
C3636 C3633 1.388 . S
C3636 N3635 1.397 . S
C3637 H3618 0.929 . S
C3637 C3634 1.404 . S
C3637 N3635 1.334 . S
C3638 H3630 0.930 . S
C3638 C3633 1.418 . S
C3638 C3634 1.353 . S
C3639 H3609 0.930 . S
C3639 N3640 1.330 . S
C3639 C3641 1.446 . S
N3640 Co3599 2.151 . S
N3640 C3639 1.330 . S
N3640 C3644 1.418 . S
C3641 H3620 0.929 . S
C3641 C3639 1.446 . S
C3641 C3642 1.332 . S
C3642 H3622 0.931 . S
C3642 C3641 1.332 . S
C3642 C3643 1.267 . S
C3643 H3611 0.929 . S
C3643 C3642 1.267 . S
C3643 C3644 1.251 . S
C3644 H3614 0.929 . S
C3644 N3640 1.418 . S
C3644 C3643 1.251 . S
C3645 H3612 0.930 . S
C3645 C3647 1.406 . S
C3645 C3650 1.261 . S
C3646 H3613 0.930 . S
C3646 N3648 1.325 . S
C3646 C3649 1.357 . S
C3647 H3615 0.928 . S
C3647 C3645 1.406 . S
C3647 N3648 1.261 . S
N3648 Co3599 2.214 . S
N3648 C3646 1.325 . S
N3648 C3647 1.261 . S
C3649 H3619 0.931 . S
C3649 C3646 1.357 . S
C3649 C3650 1.312 . S
C3650 H3621 0.930 . S
C3650 C3645 1.261 . S
C3650 C3649 1.312 . S
C3651 O3623 1.214 . S
C3651 O3631 1.234 . S
C3652 H3624 0.929 . S
C3652 C3655 1.391 . S
C3652 C3657 1.391 . S
C3653 H3625 0.929 . S
C3653 C3654 1.390 . S
C3653 N3656 1.391 . S
C3654 H3626 0.930 . S
C3654 C3653 1.390 . S
C3654 C3655 1.392 . S
C3655 H3627 0.929 . S
C3655 C3652 1.391 . S
C3655 C3654 1.392 . S
N3656 Co3600 2.257 . S
N3656 C3653 1.391 . S
N3656 C3657 1.388 . S
C3657 H3628 0.930 . S
C3657 C3652 1.391 . S
C3657 N3656 1.388 . S
Co3658 O3660 2.143 . S
Co3658 O3666 2.074 . S
Co3658 O3669 2.093 . S
Co3658 O3682 2.097 . S
Co3658 N3699 2.151 . S
Co3658 N3707 2.214 . S
Co3659 O3660 2.160 . S
Co3659 O3665 2.058 . S
Co3659 O3675 2.057 . S
Co3659 O3690 2.037 . S
Co3659 N3694 2.145 . S
Co3659 N3715 2.257 . S
O3660 Co3658 2.143 . S
O3660 Co3659 2.160 . S
C3661 O3662 1.278 . S
C3661 O3669 1.224 . S
O3662 C3661 1.278 . S
C3663 O3664 1.245 . S
C3663 O3675 1.232 . S
O3664 C3663 1.245 . S
O3665 Co3659 2.058 . S
O3665 C3691 1.269 . S
O3666 Co3658 2.074 . S
O3666 C3691 1.257 . S
H3667 C3692 0.930 . S
H3668 C3698 0.930 . S
O3669 Co3658 2.093 . S
O3669 C3661 1.224 . S
H3670 C3702 0.929 . S
H3671 C3704 0.930 . S
H3672 C3705 0.930 . S
H3673 C3703 0.929 . S
H3674 C3706 0.928 . S
O3675 Co3659 2.057 . S
O3675 C3663 1.232 . S
H3676 C3695 0.929 . S
H3677 C3696 0.929 . S
H3678 C3708 0.931 . S
H3679 C3700 0.929 . S
H3680 C3709 0.930 . S
H3681 C3701 0.931 . S
O3682 Co3658 2.097 . S
O3682 C3710 1.214 . S
H3683 C3711 0.929 . S
H3684 C3712 0.929 . S
H3685 C3713 0.930 . S
H3686 C3714 0.929 . S
H3687 C3716 0.930 . S
H3688 C3693 0.930 . S
H3689 C3697 0.930 . S
O3690 Co3659 2.037 . S
O3690 C3710 1.234 . S
C3691 O3665 1.269 . S
C3691 O3666 1.257 . S
C3692 H3667 0.930 . S
C3692 C3695 1.388 . S
C3692 C3697 1.418 . S
C3693 H3688 0.930 . S
C3693 C3696 1.404 . S
C3693 C3697 1.353 . S
N3694 Co3659 2.145 . S
N3694 C3695 1.397 . S
N3694 C3696 1.334 . S
C3695 H3676 0.929 . S
C3695 C3692 1.388 . S
C3695 N3694 1.397 . S
C3696 H3677 0.929 . S
C3696 C3693 1.404 . S
C3696 N3694 1.334 . S
C3697 H3689 0.930 . S
C3697 C3692 1.418 . S
C3697 C3693 1.353 . S
C3698 H3668 0.930 . S
C3698 N3699 1.330 . S
C3698 C3700 1.446 . S
N3699 Co3658 2.151 . S
N3699 C3698 1.330 . S
N3699 C3703 1.418 . S
C3700 H3679 0.929 . S
C3700 C3698 1.446 . S
C3700 C3701 1.332 . S
C3701 H3681 0.931 . S
C3701 C3700 1.332 . S
C3701 C3702 1.267 . S
C3702 H3670 0.929 . S
C3702 C3701 1.267 . S
C3702 C3703 1.251 . S
C3703 H3673 0.929 . S
C3703 N3699 1.418 . S
C3703 C3702 1.251 . S
C3704 H3671 0.930 . S
C3704 C3706 1.406 . S
C3704 C3709 1.261 . S
C3705 H3672 0.930 . S
C3705 N3707 1.325 . S
C3705 C3708 1.357 . S
C3706 H3674 0.928 . S
C3706 C3704 1.406 . S
C3706 N3707 1.261 . S
N3707 Co3658 2.214 . S
N3707 C3705 1.325 . S
N3707 C3706 1.261 . S
C3708 H3678 0.931 . S
C3708 C3705 1.357 . S
C3708 C3709 1.312 . S
C3709 H3680 0.930 . S
C3709 C3704 1.261 . S
C3709 C3708 1.312 . S
C3710 O3682 1.214 . S
C3710 O3690 1.234 . S
C3711 H3683 0.929 . S
C3711 C3714 1.391 . S
C3711 C3716 1.391 . S
C3712 H3684 0.929 . S
C3712 C3713 1.390 . S
C3712 N3715 1.391 . S
C3713 H3685 0.930 . S
C3713 C3712 1.390 . S
C3713 C3714 1.392 . S
C3714 H3686 0.929 . S
C3714 C3711 1.391 . S
C3714 C3713 1.392 . S
N3715 Co3659 2.257 . S
N3715 C3712 1.391 . S
N3715 C3716 1.388 . S
C3716 H3687 0.930 . S
C3716 C3711 1.391 . S
C3716 N3715 1.388 . S
Co3717 O3719 2.143 . S
Co3717 O3725 2.074 . S
Co3717 O3728 2.093 . S
Co3717 O3741 2.097 . S
Co3717 N3758 2.151 . S
Co3717 N3766 2.214 . S
Co3718 O3719 2.160 . S
Co3718 O3724 2.058 . S
Co3718 O3734 2.057 . S
Co3718 O3749 2.037 . S
Co3718 N3753 2.145 . S
Co3718 N3774 2.257 . S
O3719 Co3717 2.143 . S
O3719 Co3718 2.160 . S
C3720 O3721 1.278 . S
C3720 O3728 1.224 . S
O3721 C3720 1.278 . S
C3722 O3723 1.245 . S
C3722 O3734 1.232 . S
O3723 C3722 1.245 . S
O3724 Co3718 2.058 . S
O3724 C3750 1.269 . S
O3725 Co3717 2.074 . S
O3725 C3750 1.257 . S
H3726 C3751 0.930 . S
H3727 C3757 0.930 . S
O3728 Co3717 2.093 . S
O3728 C3720 1.224 . S
H3729 C3761 0.929 . S
H3730 C3763 0.930 . S
H3731 C3764 0.930 . S
H3732 C3762 0.929 . S
H3733 C3765 0.928 . S
O3734 Co3718 2.057 . S
O3734 C3722 1.232 . S
H3735 C3754 0.929 . S
H3736 C3755 0.929 . S
H3737 C3767 0.931 . S
H3738 C3759 0.929 . S
H3739 C3768 0.930 . S
H3740 C3760 0.931 . S
O3741 Co3717 2.097 . S
O3741 C3769 1.214 . S
H3742 C3770 0.929 . S
H3743 C3771 0.929 . S
H3744 C3772 0.930 . S
H3745 C3773 0.929 . S
H3746 C3775 0.930 . S
H3747 C3752 0.930 . S
H3748 C3756 0.930 . S
O3749 Co3718 2.037 . S
O3749 C3769 1.234 . S
C3750 O3724 1.269 . S
C3750 O3725 1.257 . S
C3751 H3726 0.930 . S
C3751 C3754 1.388 . S
C3751 C3756 1.418 . S
C3752 H3747 0.930 . S
C3752 C3755 1.404 . S
C3752 C3756 1.353 . S
N3753 Co3718 2.145 . S
N3753 C3754 1.397 . S
N3753 C3755 1.334 . S
C3754 H3735 0.929 . S
C3754 C3751 1.388 . S
C3754 N3753 1.397 . S
C3755 H3736 0.929 . S
C3755 C3752 1.404 . S
C3755 N3753 1.334 . S
C3756 H3748 0.930 . S
C3756 C3751 1.418 . S
C3756 C3752 1.353 . S
C3757 H3727 0.930 . S
C3757 N3758 1.330 . S
C3757 C3759 1.446 . S
N3758 Co3717 2.151 . S
N3758 C3757 1.330 . S
N3758 C3762 1.418 . S
C3759 H3738 0.929 . S
C3759 C3757 1.446 . S
C3759 C3760 1.332 . S
C3760 H3740 0.931 . S
C3760 C3759 1.332 . S
C3760 C3761 1.267 . S
C3761 H3729 0.929 . S
C3761 C3760 1.267 . S
C3761 C3762 1.251 . S
C3762 H3732 0.929 . S
C3762 N3758 1.418 . S
C3762 C3761 1.251 . S
C3763 H3730 0.930 . S
C3763 C3765 1.406 . S
C3763 C3768 1.261 . S
C3764 H3731 0.930 . S
C3764 N3766 1.325 . S
C3764 C3767 1.357 . S
C3765 H3733 0.928 . S
C3765 C3763 1.406 . S
C3765 N3766 1.261 . S
N3766 Co3717 2.214 . S
N3766 C3764 1.325 . S
N3766 C3765 1.261 . S
C3767 H3737 0.931 . S
C3767 C3764 1.357 . S
C3767 C3768 1.312 . S
C3768 H3739 0.930 . S
C3768 C3763 1.261 . S
C3768 C3767 1.312 . S
C3769 O3741 1.214 . S
C3769 O3749 1.234 . S
C3770 H3742 0.929 . S
C3770 C3773 1.391 . S
C3770 C3775 1.391 . S
C3771 H3743 0.929 . S
C3771 C3772 1.390 . S
C3771 N3774 1.391 . S
C3772 H3744 0.930 . S
C3772 C3771 1.390 . S
C3772 C3773 1.392 . S
C3773 H3745 0.929 . S
C3773 C3770 1.391 . S
C3773 C3772 1.392 . S
N3774 Co3718 2.257 . S
N3774 C3771 1.391 . S
N3774 C3775 1.388 . S
C3775 H3746 0.930 . S
C3775 C3770 1.391 . S
C3775 N3774 1.388 . S
Co3776 O3778 2.143 . S
Co3776 O3784 2.074 . S
Co3776 O3787 2.093 . S
Co3776 O3800 2.097 . S
Co3776 N3817 2.151 . S
Co3776 N3825 2.214 . S
Co3777 O3778 2.160 . S
Co3777 O3783 2.058 . S
Co3777 O3793 2.056 1_455 S
Co3777 O3808 2.037 . S
Co3777 N3812 2.145 1_455 S
Co3777 N3833 2.257 1_455 S
O3778 Co3776 2.143 . S
O3778 Co3777 2.160 . S
C3779 O3780 1.278 . S
C3779 O3787 1.224 . S
O3780 C3779 1.278 . S
C3781 O3782 1.245 . S
C3781 O3793 1.231 1_455 S
O3782 C3781 1.245 . S
O3783 Co3777 2.058 . S
O3783 C3809 1.269 . S
O3784 Co3776 2.074 . S
O3784 C3809 1.257 . S
H3785 C3810 0.930 1_455 S
H3786 C3816 0.930 . S
O3787 Co3776 2.093 . S
O3787 C3779 1.224 . S
H3788 C3820 0.929 . S
H3789 C3822 0.930 . S
H3790 C3823 0.930 . S
H3791 C3821 0.929 . S
H3792 C3824 0.928 . S
O3793 Co3777 2.056 1_655 S
O3793 C3781 1.231 1_655 S
H3794 C3813 0.929 . S
H3795 C3814 0.929 . S
H3796 C3826 0.931 . S
H3797 C3818 0.929 . S
H3798 C3827 0.930 . S
H3799 C3819 0.931 . S
O3800 Co3776 2.097 . S
O3800 C3828 1.214 . S
H3801 C3829 0.929 . S
H3802 C3830 0.929 . S
H3803 C3831 0.930 . S
H3804 C3832 0.929 . S
H3805 C3834 0.930 . S
H3806 C3811 0.930 . S
H3807 C3815 0.930 . S
O3808 Co3777 2.037 . S
O3808 C3828 1.234 . S
C3809 O3783 1.269 . S
C3809 O3784 1.257 . S
C3810 H3785 0.930 1_655 S
C3810 C3813 1.388 1_655 S
C3810 C3815 1.418 . S
C3811 H3806 0.930 . S
C3811 C3814 1.404 . S
C3811 C3815 1.353 . S
N3812 Co3777 2.145 1_655 S
N3812 C3813 1.397 1_655 S
N3812 C3814 1.334 . S
C3813 H3794 0.929 . S
C3813 C3810 1.388 1_455 S
C3813 N3812 1.397 1_455 S
C3814 H3795 0.929 . S
C3814 C3811 1.404 . S
C3814 N3812 1.334 . S
C3815 H3807 0.930 . S
C3815 C3810 1.418 . S
C3815 C3811 1.353 . S
C3816 H3786 0.930 . S
C3816 N3817 1.330 . S
C3816 C3818 1.446 . S
N3817 Co3776 2.151 . S
N3817 C3816 1.330 . S
N3817 C3821 1.418 . S
C3818 H3797 0.929 . S
C3818 C3816 1.446 . S
C3818 C3819 1.332 . S
C3819 H3799 0.931 . S
C3819 C3818 1.332 . S
C3819 C3820 1.267 . S
C3820 H3788 0.929 . S
C3820 C3819 1.267 . S
C3820 C3821 1.251 . S
C3821 H3791 0.929 . S
C3821 N3817 1.418 . S
C3821 C3820 1.251 . S
C3822 H3789 0.930 . S
C3822 C3824 1.406 . S
C3822 C3827 1.261 . S
C3823 H3790 0.930 . S
C3823 N3825 1.325 . S
C3823 C3826 1.357 . S
C3824 H3792 0.928 . S
C3824 C3822 1.406 . S
C3824 N3825 1.261 . S
N3825 Co3776 2.214 . S
N3825 C3823 1.325 . S
N3825 C3824 1.261 . S
C3826 H3796 0.931 . S
C3826 C3823 1.357 . S
C3826 C3827 1.312 . S
C3827 H3798 0.930 . S
C3827 C3822 1.261 . S
C3827 C3826 1.312 . S
C3828 O3800 1.214 . S
C3828 O3808 1.234 . S
C3829 H3801 0.929 . S
C3829 C3832 1.391 . S
C3829 C3834 1.391 . S
C3830 H3802 0.929 . S
C3830 C3831 1.390 . S
C3830 N3833 1.391 . S
C3831 H3803 0.930 . S
C3831 C3830 1.390 . S
C3831 C3832 1.392 . S
C3832 H3804 0.929 . S
C3832 C3829 1.391 . S
C3832 C3831 1.392 . S
N3833 Co3777 2.257 1_655 S
N3833 C3830 1.391 . S
N3833 C3834 1.388 . S
C3834 H3805 0.930 . S
C3834 C3829 1.391 . S
C3834 N3833 1.388 . S
Co3835 O3837 2.143 . S
Co3835 O3843 2.074 . S
Co3835 O3846 2.093 . S
Co3835 O3859 2.097 . S
Co3835 N3876 2.151 . S
Co3835 N3884 2.214 . S
Co3836 O3837 2.160 . S
Co3836 O3842 2.058 . S
Co3836 O3852 2.057 . S
Co3836 O3867 2.037 . S
Co3836 N3871 2.145 . S
Co3836 N3892 2.257 . S
O3837 Co3835 2.143 . S
O3837 Co3836 2.160 . S
C3838 O3839 1.278 . S
C3838 O3846 1.224 . S
O3839 C3838 1.278 . S
C3840 O3841 1.245 . S
C3840 O3852 1.232 . S
O3841 C3840 1.245 . S
O3842 Co3836 2.058 . S
O3842 C3868 1.269 . S
O3843 Co3835 2.074 . S
O3843 C3868 1.257 . S
H3844 C3869 0.930 . S
H3845 C3875 0.930 . S
O3846 Co3835 2.093 . S
O3846 C3838 1.224 . S
H3847 C3879 0.929 . S
H3848 C3881 0.930 . S
H3849 C3882 0.930 . S
H3850 C3880 0.929 . S
H3851 C3883 0.928 . S
O3852 Co3836 2.057 . S
O3852 C3840 1.232 . S
H3853 C3872 0.929 . S
H3854 C3873 0.929 . S
H3855 C3885 0.931 . S
H3856 C3877 0.929 . S
H3857 C3886 0.930 . S
H3858 C3878 0.931 . S
O3859 Co3835 2.097 . S
O3859 C3887 1.214 . S
H3860 C3888 0.929 . S
H3861 C3889 0.929 . S
H3862 C3890 0.930 . S
H3863 C3891 0.929 . S
H3864 C3893 0.930 . S
H3865 C3870 0.930 . S
H3866 C3874 0.930 . S
O3867 Co3836 2.037 . S
O3867 C3887 1.234 . S
C3868 O3842 1.269 . S
C3868 O3843 1.257 . S
C3869 H3844 0.930 . S
C3869 C3872 1.388 . S
C3869 C3874 1.418 . S
C3870 H3865 0.930 . S
C3870 C3873 1.404 . S
C3870 C3874 1.353 . S
N3871 Co3836 2.145 . S
N3871 C3872 1.397 . S
N3871 C3873 1.334 . S
C3872 H3853 0.929 . S
C3872 C3869 1.388 . S
C3872 N3871 1.397 . S
C3873 H3854 0.929 . S
C3873 C3870 1.404 . S
C3873 N3871 1.334 . S
C3874 H3866 0.930 . S
C3874 C3869 1.418 . S
C3874 C3870 1.353 . S
C3875 H3845 0.930 . S
C3875 N3876 1.330 . S
C3875 C3877 1.446 . S
N3876 Co3835 2.151 . S
N3876 C3875 1.330 . S
N3876 C3880 1.418 . S
C3877 H3856 0.929 . S
C3877 C3875 1.446 . S
C3877 C3878 1.332 . S
C3878 H3858 0.931 . S
C3878 C3877 1.332 . S
C3878 C3879 1.267 . S
C3879 H3847 0.929 . S
C3879 C3878 1.267 . S
C3879 C3880 1.251 . S
C3880 H3850 0.929 . S
C3880 N3876 1.418 . S
C3880 C3879 1.251 . S
C3881 H3848 0.930 . S
C3881 C3883 1.406 . S
C3881 C3886 1.261 . S
C3882 H3849 0.930 . S
C3882 N3884 1.325 . S
C3882 C3885 1.357 . S
C3883 H3851 0.928 . S
C3883 C3881 1.406 . S
C3883 N3884 1.261 . S
N3884 Co3835 2.214 . S
N3884 C3882 1.325 . S
N3884 C3883 1.261 . S
C3885 H3855 0.931 . S
C3885 C3882 1.357 . S
C3885 C3886 1.312 . S
C3886 H3857 0.930 . S
C3886 C3881 1.261 . S
C3886 C3885 1.312 . S
C3887 O3859 1.214 . S
C3887 O3867 1.234 . S
C3888 H3860 0.929 . S
C3888 C3891 1.391 . S
C3888 C3893 1.391 . S
C3889 H3861 0.929 . S
C3889 C3890 1.390 . S
C3889 N3892 1.391 . S
C3890 H3862 0.930 . S
C3890 C3889 1.390 . S
C3890 C3891 1.392 . S
C3891 H3863 0.929 . S
C3891 C3888 1.391 . S
C3891 C3890 1.392 . S
N3892 Co3836 2.257 . S
N3892 C3889 1.391 . S
N3892 C3893 1.388 . S
C3893 H3864 0.930 . S
C3893 C3888 1.391 . S
C3893 N3892 1.388 . S
Co3894 O3896 2.143 . S
Co3894 O3902 2.074 . S
Co3894 O3905 2.093 . S
Co3894 O3918 2.097 . S
Co3894 N3935 2.151 . S
Co3894 N3943 2.214 . S
Co3895 O3896 2.160 . S
Co3895 O3901 2.058 . S
Co3895 O3911 2.057 . S
Co3895 O3926 2.037 . S
Co3895 N3930 2.145 . S
Co3895 N3951 2.257 . S
O3896 Co3894 2.143 . S
O3896 Co3895 2.160 . S
C3897 O3898 1.278 . S
C3897 O3905 1.224 . S
O3898 C3897 1.278 . S
C3899 O3900 1.245 . S
C3899 O3911 1.232 . S
O3900 C3899 1.245 . S
O3901 Co3895 2.058 . S
O3901 C3927 1.269 . S
O3902 Co3894 2.074 . S
O3902 C3927 1.257 . S
H3903 C3928 0.930 . S
H3904 C3934 0.930 . S
O3905 Co3894 2.093 . S
O3905 C3897 1.224 . S
H3906 C3938 0.929 . S
H3907 C3940 0.930 . S
H3908 C3941 0.930 . S
H3909 C3939 0.929 . S
H3910 C3942 0.928 . S
O3911 Co3895 2.057 . S
O3911 C3899 1.232 . S
H3912 C3931 0.929 . S
H3913 C3932 0.929 . S
H3914 C3944 0.931 . S
H3915 C3936 0.929 . S
H3916 C3945 0.930 . S
H3917 C3937 0.931 . S
O3918 Co3894 2.097 . S
O3918 C3946 1.214 . S
H3919 C3947 0.929 . S
H3920 C3948 0.929 . S
H3921 C3949 0.930 . S
H3922 C3950 0.929 . S
H3923 C3952 0.930 . S
H3924 C3929 0.930 . S
H3925 C3933 0.930 . S
O3926 Co3895 2.037 . S
O3926 C3946 1.234 . S
C3927 O3901 1.269 . S
C3927 O3902 1.257 . S
C3928 H3903 0.930 . S
C3928 C3931 1.388 . S
C3928 C3933 1.418 . S
C3929 H3924 0.930 . S
C3929 C3932 1.404 . S
C3929 C3933 1.353 . S
N3930 Co3895 2.145 . S
N3930 C3931 1.397 . S
N3930 C3932 1.334 . S
C3931 H3912 0.929 . S
C3931 C3928 1.388 . S
C3931 N3930 1.397 . S
C3932 H3913 0.929 . S
C3932 C3929 1.404 . S
C3932 N3930 1.334 . S
C3933 H3925 0.930 . S
C3933 C3928 1.418 . S
C3933 C3929 1.353 . S
C3934 H3904 0.930 . S
C3934 N3935 1.330 . S
C3934 C3936 1.446 . S
N3935 Co3894 2.151 . S
N3935 C3934 1.330 . S
N3935 C3939 1.418 . S
C3936 H3915 0.929 . S
C3936 C3934 1.446 . S
C3936 C3937 1.332 . S
C3937 H3917 0.931 . S
C3937 C3936 1.332 . S
C3937 C3938 1.267 . S
C3938 H3906 0.929 . S
C3938 C3937 1.267 . S
C3938 C3939 1.251 . S
C3939 H3909 0.929 . S
C3939 N3935 1.418 . S
C3939 C3938 1.251 . S
C3940 H3907 0.930 . S
C3940 C3942 1.406 . S
C3940 C3945 1.261 . S
C3941 H3908 0.930 . S
C3941 N3943 1.325 . S
C3941 C3944 1.357 . S
C3942 H3910 0.928 . S
C3942 C3940 1.406 . S
C3942 N3943 1.261 . S
N3943 Co3894 2.214 . S
N3943 C3941 1.325 . S
N3943 C3942 1.261 . S
C3944 H3914 0.931 . S
C3944 C3941 1.357 . S
C3944 C3945 1.312 . S
C3945 H3916 0.930 . S
C3945 C3940 1.261 . S
C3945 C3944 1.312 . S
C3946 O3918 1.214 . S
C3946 O3926 1.234 . S
C3947 H3919 0.929 . S
C3947 C3950 1.391 . S
C3947 C3952 1.391 . S
C3948 H3920 0.929 . S
C3948 C3949 1.390 . S
C3948 N3951 1.391 . S
C3949 H3921 0.930 . S
C3949 C3948 1.390 . S
C3949 C3950 1.392 . S
C3950 H3922 0.929 . S
C3950 C3947 1.391 . S
C3950 C3949 1.392 . S
N3951 Co3895 2.257 . S
N3951 C3948 1.391 . S
N3951 C3952 1.388 . S
C3952 H3923 0.930 . S
C3952 C3947 1.391 . S
C3952 N3951 1.388 . S
Co3953 O3955 2.143 . S
Co3953 O3961 2.074 . S
Co3953 O3964 2.093 . S
Co3953 O3977 2.097 . S
Co3953 N3994 2.151 . S
Co3953 N4002 2.214 . S
Co3954 O3955 2.160 . S
Co3954 O3960 2.058 . S
Co3954 O3970 2.057 . S
Co3954 O3985 2.037 . S
Co3954 N3989 2.145 . S
Co3954 N4010 2.257 . S
O3955 Co3953 2.143 . S
O3955 Co3954 2.160 . S
C3956 O3957 1.278 . S
C3956 O3964 1.224 . S
O3957 C3956 1.278 . S
C3958 O3959 1.245 . S
C3958 O3970 1.232 . S
O3959 C3958 1.245 . S
O3960 Co3954 2.058 . S
O3960 C3986 1.269 . S
O3961 Co3953 2.074 . S
O3961 C3986 1.257 . S
H3962 C3987 0.930 . S
H3963 C3993 0.930 . S
O3964 Co3953 2.093 . S
O3964 C3956 1.224 . S
H3965 C3997 0.929 . S
H3966 C3999 0.930 . S
H3967 C4000 0.930 . S
H3968 C3998 0.929 . S
H3969 C4001 0.928 . S
O3970 Co3954 2.057 . S
O3970 C3958 1.232 . S
H3971 C3990 0.929 . S
H3972 C3991 0.929 . S
H3973 C4003 0.931 . S
H3974 C3995 0.929 . S
H3975 C4004 0.930 . S
H3976 C3996 0.931 . S
O3977 Co3953 2.097 . S
O3977 C4005 1.214 . S
H3978 C4006 0.929 . S
H3979 C4007 0.929 . S
H3980 C4008 0.930 . S
H3981 C4009 0.929 . S
H3982 C4011 0.930 . S
H3983 C3988 0.930 . S
H3984 C3992 0.930 . S
O3985 Co3954 2.037 . S
O3985 C4005 1.234 . S
C3986 O3960 1.269 . S
C3986 O3961 1.257 . S
C3987 H3962 0.930 . S
C3987 C3990 1.388 . S
C3987 C3992 1.418 . S
C3988 H3983 0.930 . S
C3988 C3991 1.404 . S
C3988 C3992 1.353 . S
N3989 Co3954 2.145 . S
N3989 C3990 1.397 . S
N3989 C3991 1.334 . S
C3990 H3971 0.929 . S
C3990 C3987 1.388 . S
C3990 N3989 1.397 . S
C3991 H3972 0.929 . S
C3991 C3988 1.404 . S
C3991 N3989 1.334 . S
C3992 H3984 0.930 . S
C3992 C3987 1.418 . S
C3992 C3988 1.353 . S
C3993 H3963 0.930 . S
C3993 N3994 1.330 . S
C3993 C3995 1.446 . S
N3994 Co3953 2.151 . S
N3994 C3993 1.330 . S
N3994 C3998 1.418 . S
C3995 H3974 0.929 . S
C3995 C3993 1.446 . S
C3995 C3996 1.332 . S
C3996 H3976 0.931 . S
C3996 C3995 1.332 . S
C3996 C3997 1.267 . S
C3997 H3965 0.929 . S
C3997 C3996 1.267 . S
C3997 C3998 1.251 . S
C3998 H3968 0.929 . S
C3998 N3994 1.418 . S
C3998 C3997 1.251 . S
C3999 H3966 0.930 . S
C3999 C4001 1.406 . S
C3999 C4004 1.261 . S
C4000 H3967 0.930 . S
C4000 N4002 1.325 . S
C4000 C4003 1.357 . S
C4001 H3969 0.928 . S
C4001 C3999 1.406 . S
C4001 N4002 1.261 . S
N4002 Co3953 2.214 . S
N4002 C4000 1.325 . S
N4002 C4001 1.261 . S
C4003 H3973 0.931 . S
C4003 C4000 1.357 . S
C4003 C4004 1.312 . S
C4004 H3975 0.930 . S
C4004 C3999 1.261 . S
C4004 C4003 1.312 . S
C4005 O3977 1.214 . S
C4005 O3985 1.234 . S
C4006 H3978 0.929 . S
C4006 C4009 1.391 . S
C4006 C4011 1.391 . S
C4007 H3979 0.929 . S
C4007 C4008 1.390 . S
C4007 N4010 1.391 . S
C4008 H3980 0.930 . S
C4008 C4007 1.390 . S
C4008 C4009 1.392 . S
C4009 H3981 0.929 . S
C4009 C4006 1.391 . S
C4009 C4008 1.392 . S
N4010 Co3954 2.257 . S
N4010 C4007 1.391 . S
N4010 C4011 1.388 . S
C4011 H3982 0.930 . S
C4011 C4006 1.391 . S
C4011 N4010 1.388 . S
Co4012 O4014 2.143 . S
Co4012 O4020 2.074 . S
Co4012 O4023 2.093 . S
Co4012 O4036 2.097 . S
Co4012 N4053 2.151 . S
Co4012 N4061 2.214 . S
Co4013 O4014 2.160 . S
Co4013 O4019 2.058 . S
Co4013 O4029 2.057 . S
Co4013 O4044 2.037 . S
Co4013 N4048 2.145 . S
Co4013 N4069 2.257 . S
O4014 Co4012 2.143 . S
O4014 Co4013 2.160 . S
C4015 O4016 1.278 . S
C4015 O4023 1.224 . S
O4016 C4015 1.278 . S
C4017 O4018 1.245 . S
C4017 O4029 1.232 . S
O4018 C4017 1.245 . S
O4019 Co4013 2.058 . S
O4019 C4045 1.269 . S
O4020 Co4012 2.074 . S
O4020 C4045 1.257 . S
H4021 C4046 0.930 . S
H4022 C4052 0.930 . S
O4023 Co4012 2.093 . S
O4023 C4015 1.224 . S
H4024 C4056 0.929 . S
H4025 C4058 0.930 . S
H4026 C4059 0.930 . S
H4027 C4057 0.929 . S
H4028 C4060 0.928 . S
O4029 Co4013 2.057 . S
O4029 C4017 1.232 . S
H4030 C4049 0.929 . S
H4031 C4050 0.929 . S
H4032 C4062 0.931 . S
H4033 C4054 0.929 . S
H4034 C4063 0.930 . S
H4035 C4055 0.931 . S
O4036 Co4012 2.097 . S
O4036 C4064 1.214 . S
H4037 C4065 0.929 . S
H4038 C4066 0.929 . S
H4039 C4067 0.930 . S
H4040 C4068 0.929 . S
H4041 C4070 0.930 . S
H4042 C4047 0.930 . S
H4043 C4051 0.930 . S
O4044 Co4013 2.037 . S
O4044 C4064 1.234 . S
C4045 O4019 1.269 . S
C4045 O4020 1.257 . S
C4046 H4021 0.930 . S
C4046 C4049 1.388 . S
C4046 C4051 1.418 . S
C4047 H4042 0.930 . S
C4047 C4050 1.404 . S
C4047 C4051 1.353 . S
N4048 Co4013 2.145 . S
N4048 C4049 1.397 . S
N4048 C4050 1.334 . S
C4049 H4030 0.929 . S
C4049 C4046 1.388 . S
C4049 N4048 1.397 . S
C4050 H4031 0.929 . S
C4050 C4047 1.404 . S
C4050 N4048 1.334 . S
C4051 H4043 0.930 . S
C4051 C4046 1.418 . S
C4051 C4047 1.353 . S
C4052 H4022 0.930 . S
C4052 N4053 1.330 . S
C4052 C4054 1.446 . S
N4053 Co4012 2.151 . S
N4053 C4052 1.330 . S
N4053 C4057 1.418 . S
C4054 H4033 0.929 . S
C4054 C4052 1.446 . S
C4054 C4055 1.332 . S
C4055 H4035 0.931 . S
C4055 C4054 1.332 . S
C4055 C4056 1.267 . S
C4056 H4024 0.929 . S
C4056 C4055 1.267 . S
C4056 C4057 1.251 . S
C4057 H4027 0.929 . S
C4057 N4053 1.418 . S
C4057 C4056 1.251 . S
C4058 H4025 0.930 . S
C4058 C4060 1.406 . S
C4058 C4063 1.261 . S
C4059 H4026 0.930 . S
C4059 N4061 1.325 . S
C4059 C4062 1.357 . S
C4060 H4028 0.928 . S
C4060 C4058 1.406 . S
C4060 N4061 1.261 . S
N4061 Co4012 2.214 . S
N4061 C4059 1.325 . S
N4061 C4060 1.261 . S
C4062 H4032 0.931 . S
C4062 C4059 1.357 . S
C4062 C4063 1.312 . S
C4063 H4034 0.930 . S
C4063 C4058 1.261 . S
C4063 C4062 1.312 . S
C4064 O4036 1.214 . S
C4064 O4044 1.234 . S
C4065 H4037 0.929 . S
C4065 C4068 1.391 . S
C4065 C4070 1.391 . S
C4066 H4038 0.929 . S
C4066 C4067 1.390 . S
C4066 N4069 1.391 . S
C4067 H4039 0.930 . S
C4067 C4066 1.390 . S
C4067 C4068 1.392 . S
C4068 H4040 0.929 . S
C4068 C4065 1.391 . S
C4068 C4067 1.392 . S
N4069 Co4013 2.257 . S
N4069 C4066 1.391 . S
N4069 C4070 1.388 . S
C4070 H4041 0.930 . S
C4070 C4065 1.391 . S
C4070 N4069 1.388 . S
Co4071 O4073 2.143 . S
Co4071 O4079 2.074 . S
Co4071 O4082 2.093 . S
Co4071 O4095 2.097 . S
Co4071 N4112 2.151 . S
Co4071 N4120 2.214 . S
Co4072 O4073 2.160 . S
Co4072 O4078 2.058 . S
Co4072 O4088 2.056 1_655 S
Co4072 O4103 2.037 . S
Co4072 N4107 2.145 1_655 S
Co4072 N4128 2.257 1_655 S
O4073 Co4071 2.143 . S
O4073 Co4072 2.160 . S
C4074 O4075 1.278 . S
C4074 O4082 1.224 . S
O4075 C4074 1.278 . S
C4076 O4077 1.245 . S
C4076 O4088 1.231 1_655 S
O4077 C4076 1.245 . S
O4078 Co4072 2.058 . S
O4078 C4104 1.269 . S
O4079 Co4071 2.074 . S
O4079 C4104 1.257 . S
H4080 C4105 0.930 1_655 S
H4081 C4111 0.930 . S
O4082 Co4071 2.093 . S
O4082 C4074 1.224 . S
H4083 C4115 0.929 . S
H4084 C4117 0.930 . S
H4085 C4118 0.930 . S
H4086 C4116 0.929 . S
H4087 C4119 0.928 . S
O4088 Co4072 2.056 1_455 S
O4088 C4076 1.231 1_455 S
H4089 C4108 0.929 . S
H4090 C4109 0.929 . S
H4091 C4121 0.931 . S
H4092 C4113 0.929 . S
H4093 C4122 0.930 . S
H4094 C4114 0.931 . S
O4095 Co4071 2.097 . S
O4095 C4123 1.214 . S
H4096 C4124 0.929 . S
H4097 C4125 0.929 . S
H4098 C4126 0.930 . S
H4099 C4127 0.929 . S
H4100 C4129 0.930 . S
H4101 C4106 0.930 . S
H4102 C4110 0.930 . S
O4103 Co4072 2.037 . S
O4103 C4123 1.234 . S
C4104 O4078 1.269 . S
C4104 O4079 1.257 . S
C4105 H4080 0.930 1_455 S
C4105 C4108 1.388 1_455 S
C4105 C4110 1.418 . S
C4106 H4101 0.930 . S
C4106 C4109 1.404 . S
C4106 C4110 1.353 . S
N4107 Co4072 2.145 1_455 S
N4107 C4108 1.397 1_455 S
N4107 C4109 1.334 . S
C4108 H4089 0.929 . S
C4108 C4105 1.388 1_655 S
C4108 N4107 1.397 1_655 S
C4109 H4090 0.929 . S
C4109 C4106 1.404 . S
C4109 N4107 1.334 . S
C4110 H4102 0.930 . S
C4110 C4105 1.418 . S
C4110 C4106 1.353 . S
C4111 H4081 0.930 . S
C4111 N4112 1.330 . S
C4111 C4113 1.446 . S
N4112 Co4071 2.151 . S
N4112 C4111 1.330 . S
N4112 C4116 1.418 . S
C4113 H4092 0.929 . S
C4113 C4111 1.446 . S
C4113 C4114 1.332 . S
C4114 H4094 0.931 . S
C4114 C4113 1.332 . S
C4114 C4115 1.267 . S
C4115 H4083 0.929 . S
C4115 C4114 1.267 . S
C4115 C4116 1.251 . S
C4116 H4086 0.929 . S
C4116 N4112 1.418 . S
C4116 C4115 1.251 . S
C4117 H4084 0.930 . S
C4117 C4119 1.406 . S
C4117 C4122 1.261 . S
C4118 H4085 0.930 . S
C4118 N4120 1.325 . S
C4118 C4121 1.357 . S
C4119 H4087 0.928 . S
C4119 C4117 1.406 . S
C4119 N4120 1.261 . S
N4120 Co4071 2.214 . S
N4120 C4118 1.325 . S
N4120 C4119 1.261 . S
C4121 H4091 0.931 . S
C4121 C4118 1.357 . S
C4121 C4122 1.312 . S
C4122 H4093 0.930 . S
C4122 C4117 1.261 . S
C4122 C4121 1.312 . S
C4123 O4095 1.214 . S
C4123 O4103 1.234 . S
C4124 H4096 0.929 . S
C4124 C4127 1.391 . S
C4124 C4129 1.391 . S
C4125 H4097 0.929 . S
C4125 C4126 1.390 . S
C4125 N4128 1.391 . S
C4126 H4098 0.930 . S
C4126 C4125 1.390 . S
C4126 C4127 1.392 . S
C4127 H4099 0.929 . S
C4127 C4124 1.391 . S
C4127 C4126 1.392 . S
N4128 Co4072 2.257 1_455 S
N4128 C4125 1.391 . S
N4128 C4129 1.388 . S
C4129 H4100 0.930 . S
C4129 C4124 1.391 . S
C4129 N4128 1.388 . S
Co4130 O4132 2.143 . S
Co4130 O4138 2.074 . S
Co4130 O4141 2.093 . S
Co4130 O4154 2.097 . S
Co4130 N4171 2.151 . S
Co4130 N4179 2.214 . S
Co4131 O4132 2.160 . S
Co4131 O4137 2.058 . S
Co4131 O4147 2.057 . S
Co4131 O4162 2.037 . S
Co4131 N4166 2.145 . S
Co4131 N4187 2.257 . S
O4132 Co4130 2.143 . S
O4132 Co4131 2.160 . S
C4133 O4134 1.278 . S
C4133 O4141 1.224 . S
O4134 C4133 1.278 . S
C4135 O4136 1.245 . S
C4135 O4147 1.232 . S
O4136 C4135 1.245 . S
O4137 Co4131 2.058 . S
O4137 C4163 1.269 . S
O4138 Co4130 2.074 . S
O4138 C4163 1.257 . S
H4139 C4164 0.930 . S
H4140 C4170 0.930 . S
O4141 Co4130 2.093 . S
O4141 C4133 1.224 . S
H4142 C4174 0.929 . S
H4143 C4176 0.930 . S
H4144 C4177 0.930 . S
H4145 C4175 0.929 . S
H4146 C4178 0.928 . S
O4147 Co4131 2.057 . S
O4147 C4135 1.232 . S
H4148 C4167 0.929 . S
H4149 C4168 0.929 . S
H4150 C4180 0.931 . S
H4151 C4172 0.929 . S
H4152 C4181 0.930 . S
H4153 C4173 0.931 . S
O4154 Co4130 2.097 . S
O4154 C4182 1.214 . S
H4155 C4183 0.929 . S
H4156 C4184 0.929 . S
H4157 C4185 0.930 . S
H4158 C4186 0.929 . S
H4159 C4188 0.930 . S
H4160 C4165 0.930 . S
H4161 C4169 0.930 . S
O4162 Co4131 2.037 . S
O4162 C4182 1.234 . S
C4163 O4137 1.269 . S
C4163 O4138 1.257 . S
C4164 H4139 0.930 . S
C4164 C4167 1.388 . S
C4164 C4169 1.418 . S
C4165 H4160 0.930 . S
C4165 C4168 1.404 . S
C4165 C4169 1.353 . S
N4166 Co4131 2.145 . S
N4166 C4167 1.397 . S
N4166 C4168 1.334 . S
C4167 H4148 0.929 . S
C4167 C4164 1.388 . S
C4167 N4166 1.397 . S
C4168 H4149 0.929 . S
C4168 C4165 1.404 . S
C4168 N4166 1.334 . S
C4169 H4161 0.930 . S
C4169 C4164 1.418 . S
C4169 C4165 1.353 . S
C4170 H4140 0.930 . S
C4170 N4171 1.330 . S
C4170 C4172 1.446 . S
N4171 Co4130 2.151 . S
N4171 C4170 1.330 . S
N4171 C4175 1.418 . S
C4172 H4151 0.929 . S
C4172 C4170 1.446 . S
C4172 C4173 1.332 . S
C4173 H4153 0.931 . S
C4173 C4172 1.332 . S
C4173 C4174 1.267 . S
C4174 H4142 0.929 . S
C4174 C4173 1.267 . S
C4174 C4175 1.251 . S
C4175 H4145 0.929 . S
C4175 N4171 1.418 . S
C4175 C4174 1.251 . S
C4176 H4143 0.930 . S
C4176 C4178 1.406 . S
C4176 C4181 1.261 . S
C4177 H4144 0.930 . S
C4177 N4179 1.325 . S
C4177 C4180 1.357 . S
C4178 H4146 0.928 . S
C4178 C4176 1.406 . S
C4178 N4179 1.261 . S
N4179 Co4130 2.214 . S
N4179 C4177 1.325 . S
N4179 C4178 1.261 . S
C4180 H4150 0.931 . S
C4180 C4177 1.357 . S
C4180 C4181 1.312 . S
C4181 H4152 0.930 . S
C4181 C4176 1.261 . S
C4181 C4180 1.312 . S
C4182 O4154 1.214 . S
C4182 O4162 1.234 . S
C4183 H4155 0.929 . S
C4183 C4186 1.391 . S
C4183 C4188 1.391 . S
C4184 H4156 0.929 . S
C4184 C4185 1.390 . S
C4184 N4187 1.391 . S
C4185 H4157 0.930 . S
C4185 C4184 1.390 . S
C4185 C4186 1.392 . S
C4186 H4158 0.929 . S
C4186 C4183 1.391 . S
C4186 C4185 1.392 . S
N4187 Co4131 2.257 . S
N4187 C4184 1.391 . S
N4187 C4188 1.388 . S
C4188 H4159 0.930 . S
C4188 C4183 1.391 . S
C4188 N4187 1.388 . S
Co4189 O4191 2.143 . S
Co4189 O4197 2.074 . S
Co4189 O4200 2.093 . S
Co4189 O4213 2.097 . S
Co4189 N4230 2.151 . S
Co4189 N4238 2.214 . S
Co4190 O4191 2.160 . S
Co4190 O4196 2.058 . S
Co4190 O4206 2.057 . S
Co4190 O4221 2.037 . S
Co4190 N4225 2.145 . S
Co4190 N4246 2.257 . S
O4191 Co4189 2.143 . S
O4191 Co4190 2.160 . S
C4192 O4193 1.278 . S
C4192 O4200 1.224 . S
O4193 C4192 1.278 . S
C4194 O4195 1.245 . S
C4194 O4206 1.232 . S
O4195 C4194 1.245 . S
O4196 Co4190 2.058 . S
O4196 C4222 1.269 . S
O4197 Co4189 2.074 . S
O4197 C4222 1.257 . S
H4198 C4223 0.930 . S
H4199 C4229 0.930 . S
O4200 Co4189 2.093 . S
O4200 C4192 1.224 . S
H4201 C4233 0.929 . S
H4202 C4235 0.930 . S
H4203 C4236 0.930 . S
H4204 C4234 0.929 . S
H4205 C4237 0.928 . S
O4206 Co4190 2.057 . S
O4206 C4194 1.232 . S
H4207 C4226 0.929 . S
H4208 C4227 0.929 . S
H4209 C4239 0.931 . S
H4210 C4231 0.929 . S
H4211 C4240 0.930 . S
H4212 C4232 0.931 . S
O4213 Co4189 2.097 . S
O4213 C4241 1.214 . S
H4214 C4242 0.929 . S
H4215 C4243 0.929 . S
H4216 C4244 0.930 . S
H4217 C4245 0.929 . S
H4218 C4247 0.930 . S
H4219 C4224 0.930 . S
H4220 C4228 0.930 . S
O4221 Co4190 2.037 . S
O4221 C4241 1.234 . S
C4222 O4196 1.269 . S
C4222 O4197 1.257 . S
C4223 H4198 0.930 . S
C4223 C4226 1.388 . S
C4223 C4228 1.418 . S
C4224 H4219 0.930 . S
C4224 C4227 1.404 . S
C4224 C4228 1.353 . S
N4225 Co4190 2.145 . S
N4225 C4226 1.397 . S
N4225 C4227 1.334 . S
C4226 H4207 0.929 . S
C4226 C4223 1.388 . S
C4226 N4225 1.397 . S
C4227 H4208 0.929 . S
C4227 C4224 1.404 . S
C4227 N4225 1.334 . S
C4228 H4220 0.930 . S
C4228 C4223 1.418 . S
C4228 C4224 1.353 . S
C4229 H4199 0.930 . S
C4229 N4230 1.330 . S
C4229 C4231 1.446 . S
N4230 Co4189 2.151 . S
N4230 C4229 1.330 . S
N4230 C4234 1.418 . S
C4231 H4210 0.929 . S
C4231 C4229 1.446 . S
C4231 C4232 1.332 . S
C4232 H4212 0.931 . S
C4232 C4231 1.332 . S
C4232 C4233 1.267 . S
C4233 H4201 0.929 . S
C4233 C4232 1.267 . S
C4233 C4234 1.251 . S
C4234 H4204 0.929 . S
C4234 N4230 1.418 . S
C4234 C4233 1.251 . S
C4235 H4202 0.930 . S
C4235 C4237 1.406 . S
C4235 C4240 1.261 . S
C4236 H4203 0.930 . S
C4236 N4238 1.325 . S
C4236 C4239 1.357 . S
C4237 H4205 0.928 . S
C4237 C4235 1.406 . S
C4237 N4238 1.261 . S
N4238 Co4189 2.214 . S
N4238 C4236 1.325 . S
N4238 C4237 1.261 . S
C4239 H4209 0.931 . S
C4239 C4236 1.357 . S
C4239 C4240 1.312 . S
C4240 H4211 0.930 . S
C4240 C4235 1.261 . S
C4240 C4239 1.312 . S
C4241 O4213 1.214 . S
C4241 O4221 1.234 . S
C4242 H4214 0.929 . S
C4242 C4245 1.391 . S
C4242 C4247 1.391 . S
C4243 H4215 0.929 . S
C4243 C4244 1.390 . S
C4243 N4246 1.391 . S
C4244 H4216 0.930 . S
C4244 C4243 1.390 . S
C4244 C4245 1.392 . S
C4245 H4217 0.929 . S
C4245 C4242 1.391 . S
C4245 C4244 1.392 . S
N4246 Co4190 2.257 . S
N4246 C4243 1.391 . S
N4246 C4247 1.388 . S
C4247 H4218 0.930 . S
C4247 C4242 1.391 . S
C4247 N4246 1.388 . S
Co4248 O4250 2.143 . S
Co4248 O4256 2.074 . S
Co4248 O4259 2.093 . S
Co4248 O4272 2.097 . S
Co4248 N4289 2.151 . S
Co4248 N4297 2.214 . S
Co4249 O4250 2.160 . S
Co4249 O4255 2.058 . S
Co4249 O4265 2.027 1_545 S
Co4249 O4280 2.037 . S
Co4249 N4284 2.145 1_545 S
Co4249 N4305 2.257 1_545 S
O4250 Co4248 2.143 . S
O4250 Co4249 2.160 . S
C4251 O4252 1.278 . S
C4251 O4259 1.224 . S
O4252 C4251 1.278 . S
C4253 O4254 1.245 . S
C4253 O4265 1.222 1_545 S
O4254 C4253 1.245 . S
O4255 Co4249 2.058 . S
O4255 C4281 1.269 . S
O4256 Co4248 2.074 . S
O4256 C4281 1.257 . S
H4257 C4282 0.929 . S
H4258 C4288 0.930 . S
O4259 Co4248 2.093 . S
O4259 C4251 1.224 . S
H4260 C4292 0.929 . S
H4261 C4294 0.930 . S
H4262 C4295 0.930 . S
H4263 C4293 0.929 . S
H4264 C4296 0.928 . S
O4265 Co4249 2.027 1_565 S
O4265 C4253 1.222 1_565 S
H4266 C4285 0.929 . S
H4267 C4286 0.929 . S
H4268 C4298 0.931 . S
H4269 C4290 0.929 . S
H4270 C4299 0.930 . S
H4271 C4291 0.931 . S
O4272 Co4248 2.097 . S
O4272 C4300 1.214 . S
H4273 C4301 0.929 . S
H4274 C4302 0.929 . S
H4275 C4303 0.930 . S
H4276 C4304 0.929 . S
H4277 C4306 0.930 . S
H4278 C4283 0.930 . S
H4279 C4287 0.930 . S
O4280 Co4249 2.037 . S
O4280 C4300 1.234 . S
C4281 O4255 1.269 . S
C4281 O4256 1.257 . S
C4282 H4257 0.929 . S
C4282 C4285 1.388 1_565 S
C4282 C4287 1.418 . S
C4283 H4278 0.930 . S
C4283 C4286 1.404 . S
C4283 C4287 1.353 . S
N4284 Co4249 2.145 1_565 S
N4284 C4285 1.397 1_565 S
N4284 C4286 1.334 . S
C4285 H4266 0.929 . S
C4285 C4282 1.388 1_545 S
C4285 N4284 1.397 1_545 S
C4286 H4267 0.929 . S
C4286 C4283 1.404 . S
C4286 N4284 1.334 . S
C4287 H4279 0.930 . S
C4287 C4282 1.418 . S
C4287 C4283 1.353 . S
C4288 H4258 0.930 . S
C4288 N4289 1.330 . S
C4288 C4290 1.446 . S
N4289 Co4248 2.151 . S
N4289 C4288 1.330 . S
N4289 C4293 1.418 . S
C4290 H4269 0.929 . S
C4290 C4288 1.446 . S
C4290 C4291 1.332 . S
C4291 H4271 0.931 . S
C4291 C4290 1.332 . S
C4291 C4292 1.267 . S
C4292 H4260 0.929 . S
C4292 C4291 1.267 . S
C4292 C4293 1.251 . S
C4293 H4263 0.929 . S
C4293 N4289 1.418 . S
C4293 C4292 1.251 . S
C4294 H4261 0.930 . S
C4294 C4296 1.406 . S
C4294 C4299 1.261 . S
C4295 H4262 0.930 . S
C4295 N4297 1.325 . S
C4295 C4298 1.357 . S
C4296 H4264 0.928 . S
C4296 C4294 1.406 . S
C4296 N4297 1.261 . S
N4297 Co4248 2.214 . S
N4297 C4295 1.325 . S
N4297 C4296 1.261 . S
C4298 H4268 0.931 . S
C4298 C4295 1.357 . S
C4298 C4299 1.312 . S
C4299 H4270 0.930 . S
C4299 C4294 1.261 . S
C4299 C4298 1.312 . S
C4300 O4272 1.214 . S
C4300 O4280 1.234 . S
C4301 H4273 0.929 . S
C4301 C4304 1.391 . S
C4301 C4306 1.391 . S
C4302 H4274 0.929 . S
C4302 C4303 1.390 . S
C4302 N4305 1.391 . S
C4303 H4275 0.930 . S
C4303 C4302 1.390 . S
C4303 C4304 1.392 . S
C4304 H4276 0.929 . S
C4304 C4301 1.391 . S
C4304 C4303 1.392 . S
N4305 Co4249 2.257 1_565 S
N4305 C4302 1.391 . S
N4305 C4306 1.388 . S
C4306 H4277 0.930 . S
C4306 C4301 1.391 . S
C4306 N4305 1.388 . S
Co4307 O4309 2.143 . S
Co4307 O4315 2.074 . S
Co4307 O4318 2.093 . S
Co4307 O4331 2.097 . S
Co4307 N4348 2.151 . S
Co4307 N4356 2.214 . S
Co4308 O4309 2.160 . S
Co4308 O4314 2.058 . S
Co4308 O4324 2.057 . S
Co4308 O4339 2.037 . S
Co4308 N4343 2.145 . S
Co4308 N4364 2.257 . S
O4309 Co4307 2.143 . S
O4309 Co4308 2.160 . S
C4310 O4311 1.278 . S
C4310 O4318 1.224 . S
O4311 C4310 1.278 . S
C4312 O4313 1.245 . S
C4312 O4324 1.232 . S
O4313 C4312 1.245 . S
O4314 Co4308 2.058 . S
O4314 C4340 1.269 . S
O4315 Co4307 2.074 . S
O4315 C4340 1.257 . S
H4316 C4341 0.930 . S
H4317 C4347 0.930 . S
O4318 Co4307 2.093 . S
O4318 C4310 1.224 . S
H4319 C4351 0.929 . S
H4320 C4353 0.930 . S
H4321 C4354 0.930 . S
H4322 C4352 0.929 . S
H4323 C4355 0.928 . S
O4324 Co4308 2.057 . S
O4324 C4312 1.232 . S
H4325 C4344 0.929 . S
H4326 C4345 0.929 . S
H4327 C4357 0.931 . S
H4328 C4349 0.929 . S
H4329 C4358 0.930 . S
H4330 C4350 0.931 . S
O4331 Co4307 2.097 . S
O4331 C4359 1.214 . S
H4332 C4360 0.929 . S
H4333 C4361 0.929 . S
H4334 C4362 0.930 . S
H4335 C4363 0.929 . S
H4336 C4365 0.930 . S
H4337 C4342 0.930 . S
H4338 C4346 0.930 . S
O4339 Co4308 2.037 . S
O4339 C4359 1.234 . S
C4340 O4314 1.269 . S
C4340 O4315 1.257 . S
C4341 H4316 0.930 . S
C4341 C4344 1.388 . S
C4341 C4346 1.418 . S
C4342 H4337 0.930 . S
C4342 C4345 1.404 . S
C4342 C4346 1.353 . S
N4343 Co4308 2.145 . S
N4343 C4344 1.397 . S
N4343 C4345 1.334 . S
C4344 H4325 0.929 . S
C4344 C4341 1.388 . S
C4344 N4343 1.397 . S
C4345 H4326 0.929 . S
C4345 C4342 1.404 . S
C4345 N4343 1.334 . S
C4346 H4338 0.930 . S
C4346 C4341 1.418 . S
C4346 C4342 1.353 . S
C4347 H4317 0.930 . S
C4347 N4348 1.330 . S
C4347 C4349 1.446 . S
N4348 Co4307 2.151 . S
N4348 C4347 1.330 . S
N4348 C4352 1.418 . S
C4349 H4328 0.929 . S
C4349 C4347 1.446 . S
C4349 C4350 1.332 . S
C4350 H4330 0.931 . S
C4350 C4349 1.332 . S
C4350 C4351 1.267 . S
C4351 H4319 0.929 . S
C4351 C4350 1.267 . S
C4351 C4352 1.251 . S
C4352 H4322 0.929 . S
C4352 N4348 1.418 . S
C4352 C4351 1.251 . S
C4353 H4320 0.930 . S
C4353 C4355 1.406 . S
C4353 C4358 1.261 . S
C4354 H4321 0.930 . S
C4354 N4356 1.325 . S
C4354 C4357 1.357 . S
C4355 H4323 0.928 . S
C4355 C4353 1.406 . S
C4355 N4356 1.261 . S
N4356 Co4307 2.214 . S
N4356 C4354 1.325 . S
N4356 C4355 1.261 . S
C4357 H4327 0.931 . S
C4357 C4354 1.357 . S
C4357 C4358 1.312 . S
C4358 H4329 0.930 . S
C4358 C4353 1.261 . S
C4358 C4357 1.312 . S
C4359 O4331 1.214 . S
C4359 O4339 1.234 . S
C4360 H4332 0.929 . S
C4360 C4363 1.391 . S
C4360 C4365 1.391 . S
C4361 H4333 0.929 . S
C4361 C4362 1.390 . S
C4361 N4364 1.391 . S
C4362 H4334 0.930 . S
C4362 C4361 1.390 . S
C4362 C4363 1.392 . S
C4363 H4335 0.929 . S
C4363 C4360 1.391 . S
C4363 C4362 1.392 . S
N4364 Co4308 2.257 . S
N4364 C4361 1.391 . S
N4364 C4365 1.388 . S
C4365 H4336 0.930 . S
C4365 C4360 1.391 . S
C4365 N4364 1.388 . S
Co4366 O4368 2.143 . S
Co4366 O4374 2.074 . S
Co4366 O4377 2.093 . S
Co4366 O4390 2.097 . S
Co4366 N4407 2.151 . S
Co4366 N4415 2.214 . S
Co4367 O4368 2.160 . S
Co4367 O4373 2.058 . S
Co4367 O4383 2.057 . S
Co4367 O4398 2.037 . S
Co4367 N4402 2.145 . S
Co4367 N4423 2.257 . S
O4368 Co4366 2.143 . S
O4368 Co4367 2.160 . S
C4369 O4370 1.278 . S
C4369 O4377 1.224 . S
O4370 C4369 1.278 . S
C4371 O4372 1.245 . S
C4371 O4383 1.232 . S
O4372 C4371 1.245 . S
O4373 Co4367 2.058 . S
O4373 C4399 1.269 . S
O4374 Co4366 2.074 . S
O4374 C4399 1.257 . S
H4375 C4400 0.930 . S
H4376 C4406 0.930 . S
O4377 Co4366 2.093 . S
O4377 C4369 1.224 . S
H4378 C4410 0.929 . S
H4379 C4412 0.930 . S
H4380 C4413 0.930 . S
H4381 C4411 0.929 . S
H4382 C4414 0.928 . S
O4383 Co4367 2.057 . S
O4383 C4371 1.232 . S
H4384 C4403 0.929 . S
H4385 C4404 0.929 . S
H4386 C4416 0.931 . S
H4387 C4408 0.929 . S
H4388 C4417 0.930 . S
H4389 C4409 0.931 . S
O4390 Co4366 2.097 . S
O4390 C4418 1.214 . S
H4391 C4419 0.929 . S
H4392 C4420 0.929 . S
H4393 C4421 0.930 . S
H4394 C4422 0.929 . S
H4395 C4424 0.930 . S
H4396 C4401 0.930 . S
H4397 C4405 0.930 . S
O4398 Co4367 2.037 . S
O4398 C4418 1.234 . S
C4399 O4373 1.269 . S
C4399 O4374 1.257 . S
C4400 H4375 0.930 . S
C4400 C4403 1.388 . S
C4400 C4405 1.418 . S
C4401 H4396 0.930 . S
C4401 C4404 1.404 . S
C4401 C4405 1.353 . S
N4402 Co4367 2.145 . S
N4402 C4403 1.397 . S
N4402 C4404 1.334 . S
C4403 H4384 0.929 . S
C4403 C4400 1.388 . S
C4403 N4402 1.397 . S
C4404 H4385 0.929 . S
C4404 C4401 1.404 . S
C4404 N4402 1.334 . S
C4405 H4397 0.930 . S
C4405 C4400 1.418 . S
C4405 C4401 1.353 . S
C4406 H4376 0.930 . S
C4406 N4407 1.330 . S
C4406 C4408 1.446 . S
N4407 Co4366 2.151 . S
N4407 C4406 1.330 . S
N4407 C4411 1.418 . S
C4408 H4387 0.929 . S
C4408 C4406 1.446 . S
C4408 C4409 1.332 . S
C4409 H4389 0.931 . S
C4409 C4408 1.332 . S
C4409 C4410 1.267 . S
C4410 H4378 0.929 . S
C4410 C4409 1.267 . S
C4410 C4411 1.251 . S
C4411 H4381 0.929 . S
C4411 N4407 1.418 . S
C4411 C4410 1.251 . S
C4412 H4379 0.930 . S
C4412 C4414 1.406 . S
C4412 C4417 1.261 . S
C4413 H4380 0.930 . S
C4413 N4415 1.325 . S
C4413 C4416 1.357 . S
C4414 H4382 0.928 . S
C4414 C4412 1.406 . S
C4414 N4415 1.261 . S
N4415 Co4366 2.214 . S
N4415 C4413 1.325 . S
N4415 C4414 1.261 . S
C4416 H4386 0.931 . S
C4416 C4413 1.357 . S
C4416 C4417 1.312 . S
C4417 H4388 0.930 . S
C4417 C4412 1.261 . S
C4417 C4416 1.312 . S
C4418 O4390 1.214 . S
C4418 O4398 1.234 . S
C4419 H4391 0.929 . S
C4419 C4422 1.391 . S
C4419 C4424 1.391 . S
C4420 H4392 0.929 . S
C4420 C4421 1.390 . S
C4420 N4423 1.391 . S
C4421 H4393 0.930 . S
C4421 C4420 1.390 . S
C4421 C4422 1.392 . S
C4422 H4394 0.929 . S
C4422 C4419 1.391 . S
C4422 C4421 1.392 . S
N4423 Co4367 2.257 . S
N4423 C4420 1.391 . S
N4423 C4424 1.388 . S
C4424 H4395 0.930 . S
C4424 C4419 1.391 . S
C4424 N4423 1.388 . S
Co4425 O4427 2.143 . S
Co4425 O4433 2.074 . S
Co4425 O4436 2.093 . S
Co4425 O4449 2.097 . S
Co4425 N4466 2.151 . S
Co4425 N4474 2.214 . S
Co4426 O4427 2.160 . S
Co4426 O4432 2.058 . S
Co4426 O4442 2.057 . S
Co4426 O4457 2.037 . S
Co4426 N4461 2.145 . S
Co4426 N4482 2.257 . S
O4427 Co4425 2.143 . S
O4427 Co4426 2.160 . S
C4428 O4429 1.278 . S
C4428 O4436 1.224 . S
O4429 C4428 1.278 . S
C4430 O4431 1.245 . S
C4430 O4442 1.232 . S
O4431 C4430 1.245 . S
O4432 Co4426 2.058 . S
O4432 C4458 1.269 . S
O4433 Co4425 2.074 . S
O4433 C4458 1.257 . S
H4434 C4459 0.930 . S
H4435 C4465 0.930 . S
O4436 Co4425 2.093 . S
O4436 C4428 1.224 . S
H4437 C4469 0.929 . S
H4438 C4471 0.930 . S
H4439 C4472 0.930 . S
H4440 C4470 0.929 . S
H4441 C4473 0.928 . S
O4442 Co4426 2.057 . S
O4442 C4430 1.232 . S
H4443 C4462 0.929 . S
H4444 C4463 0.929 . S
H4445 C4475 0.931 . S
H4446 C4467 0.929 . S
H4447 C4476 0.930 . S
H4448 C4468 0.931 . S
O4449 Co4425 2.097 . S
O4449 C4477 1.214 . S
H4450 C4478 0.929 . S
H4451 C4479 0.929 . S
H4452 C4480 0.930 . S
H4453 C4481 0.929 . S
H4454 C4483 0.930 . S
H4455 C4460 0.930 . S
H4456 C4464 0.930 . S
O4457 Co4426 2.037 . S
O4457 C4477 1.234 . S
C4458 O4432 1.269 . S
C4458 O4433 1.257 . S
C4459 H4434 0.930 . S
C4459 C4462 1.388 . S
C4459 C4464 1.418 . S
C4460 H4455 0.930 . S
C4460 C4463 1.404 . S
C4460 C4464 1.353 . S
N4461 Co4426 2.145 . S
N4461 C4462 1.397 . S
N4461 C4463 1.334 . S
C4462 H4443 0.929 . S
C4462 C4459 1.388 . S
C4462 N4461 1.397 . S
C4463 H4444 0.929 . S
C4463 C4460 1.404 . S
C4463 N4461 1.334 . S
C4464 H4456 0.930 . S
C4464 C4459 1.418 . S
C4464 C4460 1.353 . S
C4465 H4435 0.930 . S
C4465 N4466 1.330 . S
C4465 C4467 1.446 . S
N4466 Co4425 2.151 . S
N4466 C4465 1.330 . S
N4466 C4470 1.418 . S
C4467 H4446 0.929 . S
C4467 C4465 1.446 . S
C4467 C4468 1.332 . S
C4468 H4448 0.931 . S
C4468 C4467 1.332 . S
C4468 C4469 1.267 . S
C4469 H4437 0.929 . S
C4469 C4468 1.267 . S
C4469 C4470 1.251 . S
C4470 H4440 0.929 . S
C4470 N4466 1.418 . S
C4470 C4469 1.251 . S
C4471 H4438 0.930 . S
C4471 C4473 1.406 . S
C4471 C4476 1.261 . S
C4472 H4439 0.930 . S
C4472 N4474 1.325 . S
C4472 C4475 1.357 . S
C4473 H4441 0.928 . S
C4473 C4471 1.406 . S
C4473 N4474 1.261 . S
N4474 Co4425 2.214 . S
N4474 C4472 1.325 . S
N4474 C4473 1.261 . S
C4475 H4445 0.931 . S
C4475 C4472 1.357 . S
C4475 C4476 1.312 . S
C4476 H4447 0.930 . S
C4476 C4471 1.261 . S
C4476 C4475 1.312 . S
C4477 O4449 1.214 . S
C4477 O4457 1.234 . S
C4478 H4450 0.929 . S
C4478 C4481 1.391 . S
C4478 C4483 1.391 . S
C4479 H4451 0.929 . S
C4479 C4480 1.390 . S
C4479 N4482 1.391 . S
C4480 H4452 0.930 . S
C4480 C4479 1.390 . S
C4480 C4481 1.392 . S
C4481 H4453 0.929 . S
C4481 C4478 1.391 . S
C4481 C4480 1.392 . S
N4482 Co4426 2.257 . S
N4482 C4479 1.391 . S
N4482 C4483 1.388 . S
C4483 H4454 0.930 . S
C4483 C4478 1.391 . S
C4483 N4482 1.388 . S
Co4484 O4486 2.143 . S
Co4484 O4492 2.074 . S
Co4484 O4495 2.093 . S
Co4484 O4508 2.097 . S
Co4484 N4525 2.151 . S
Co4484 N4533 2.214 . S
Co4485 O4486 2.160 . S
Co4485 O4491 2.058 . S
Co4485 O4501 2.027 1_565 S
Co4485 O4516 2.037 . S
Co4485 N4520 2.145 1_565 S
Co4485 N4541 2.257 1_565 S
O4486 Co4484 2.143 . S
O4486 Co4485 2.160 . S
C4487 O4488 1.278 . S
C4487 O4495 1.224 . S
O4488 C4487 1.278 . S
C4489 O4490 1.245 . S
C4489 O4501 1.222 1_565 S
O4490 C4489 1.245 . S
O4491 Co4485 2.058 . S
O4491 C4517 1.269 . S
O4492 Co4484 2.074 . S
O4492 C4517 1.257 . S
H4493 C4518 0.929 . S
H4494 C4524 0.930 . S
O4495 Co4484 2.093 . S
O4495 C4487 1.224 . S
H4496 C4528 0.929 . S
H4497 C4530 0.930 . S
H4498 C4531 0.930 . S
H4499 C4529 0.929 . S
H4500 C4532 0.928 . S
O4501 Co4485 2.027 1_545 S
O4501 C4489 1.222 1_545 S
H4502 C4521 0.929 . S
H4503 C4522 0.929 . S
H4504 C4534 0.931 . S
H4505 C4526 0.929 . S
H4506 C4535 0.930 . S
H4507 C4527 0.931 . S
O4508 Co4484 2.097 . S
O4508 C4536 1.214 . S
H4509 C4537 0.929 . S
H4510 C4538 0.929 . S
H4511 C4539 0.930 . S
H4512 C4540 0.929 . S
H4513 C4542 0.930 . S
H4514 C4519 0.930 . S
H4515 C4523 0.930 . S
O4516 Co4485 2.037 . S
O4516 C4536 1.234 . S
C4517 O4491 1.269 . S
C4517 O4492 1.257 . S
C4518 H4493 0.929 . S
C4518 C4521 1.388 1_545 S
C4518 C4523 1.418 . S
C4519 H4514 0.930 . S
C4519 C4522 1.404 . S
C4519 C4523 1.353 . S
N4520 Co4485 2.145 1_545 S
N4520 C4521 1.397 1_545 S
N4520 C4522 1.334 . S
C4521 H4502 0.929 . S
C4521 C4518 1.388 1_565 S
C4521 N4520 1.397 1_565 S
C4522 H4503 0.929 . S
C4522 C4519 1.404 . S
C4522 N4520 1.334 . S
C4523 H4515 0.930 . S
C4523 C4518 1.418 . S
C4523 C4519 1.353 . S
C4524 H4494 0.930 . S
C4524 N4525 1.330 . S
C4524 C4526 1.446 . S
N4525 Co4484 2.151 . S
N4525 C4524 1.330 . S
N4525 C4529 1.418 . S
C4526 H4505 0.929 . S
C4526 C4524 1.446 . S
C4526 C4527 1.332 . S
C4527 H4507 0.931 . S
C4527 C4526 1.332 . S
C4527 C4528 1.267 . S
C4528 H4496 0.929 . S
C4528 C4527 1.267 . S
C4528 C4529 1.251 . S
C4529 H4499 0.929 . S
C4529 N4525 1.418 . S
C4529 C4528 1.251 . S
C4530 H4497 0.930 . S
C4530 C4532 1.406 . S
C4530 C4535 1.261 . S
C4531 H4498 0.930 . S
C4531 N4533 1.325 . S
C4531 C4534 1.357 . S
C4532 H4500 0.928 . S
C4532 C4530 1.406 . S
C4532 N4533 1.261 . S
N4533 Co4484 2.214 . S
N4533 C4531 1.325 . S
N4533 C4532 1.261 . S
C4534 H4504 0.931 . S
C4534 C4531 1.357 . S
C4534 C4535 1.312 . S
C4535 H4506 0.930 . S
C4535 C4530 1.261 . S
C4535 C4534 1.312 . S
C4536 O4508 1.214 . S
C4536 O4516 1.234 . S
C4537 H4509 0.929 . S
C4537 C4540 1.391 . S
C4537 C4542 1.391 . S
C4538 H4510 0.929 . S
C4538 C4539 1.390 . S
C4538 N4541 1.391 . S
C4539 H4511 0.930 . S
C4539 C4538 1.390 . S
C4539 C4540 1.392 . S
C4540 H4512 0.929 . S
C4540 C4537 1.391 . S
C4540 C4539 1.392 . S
N4541 Co4485 2.257 1_545 S
N4541 C4538 1.391 . S
N4541 C4542 1.388 . S
C4542 H4513 0.930 . S
C4542 C4537 1.391 . S
C4542 N4541 1.388 . S
Co4543 O4545 2.143 . S
Co4543 O4551 2.074 . S
Co4543 O4554 2.093 . S
Co4543 O4567 2.097 . S
Co4543 N4584 2.151 . S
Co4543 N4592 2.214 . S
Co4544 O4545 2.160 . S
Co4544 O4550 2.058 . S
Co4544 O4560 2.057 . S
Co4544 O4575 2.037 . S
Co4544 N4579 2.145 . S
Co4544 N4600 2.257 . S
O4545 Co4543 2.143 . S
O4545 Co4544 2.160 . S
C4546 O4547 1.278 . S
C4546 O4554 1.224 . S
O4547 C4546 1.278 . S
C4548 O4549 1.245 . S
C4548 O4560 1.232 . S
O4549 C4548 1.245 . S
O4550 Co4544 2.058 . S
O4550 C4576 1.269 . S
O4551 Co4543 2.074 . S
O4551 C4576 1.257 . S
H4552 C4577 0.930 . S
H4553 C4583 0.930 . S
O4554 Co4543 2.093 . S
O4554 C4546 1.224 . S
H4555 C4587 0.929 . S
H4556 C4589 0.930 . S
H4557 C4590 0.930 . S
H4558 C4588 0.929 . S
H4559 C4591 0.928 . S
O4560 Co4544 2.057 . S
O4560 C4548 1.232 . S
H4561 C4580 0.929 . S
H4562 C4581 0.929 . S
H4563 C4593 0.931 . S
H4564 C4585 0.929 . S
H4565 C4594 0.930 . S
H4566 C4586 0.931 . S
O4567 Co4543 2.097 . S
O4567 C4595 1.214 . S
H4568 C4596 0.929 . S
H4569 C4597 0.929 . S
H4570 C4598 0.930 . S
H4571 C4599 0.929 . S
H4572 C4601 0.930 . S
H4573 C4578 0.930 . S
H4574 C4582 0.930 . S
O4575 Co4544 2.037 . S
O4575 C4595 1.234 . S
C4576 O4550 1.269 . S
C4576 O4551 1.257 . S
C4577 H4552 0.930 . S
C4577 C4580 1.388 . S
C4577 C4582 1.418 . S
C4578 H4573 0.930 . S
C4578 C4581 1.404 . S
C4578 C4582 1.353 . S
N4579 Co4544 2.145 . S
N4579 C4580 1.397 . S
N4579 C4581 1.334 . S
C4580 H4561 0.929 . S
C4580 C4577 1.388 . S
C4580 N4579 1.397 . S
C4581 H4562 0.929 . S
C4581 C4578 1.404 . S
C4581 N4579 1.334 . S
C4582 H4574 0.930 . S
C4582 C4577 1.418 . S
C4582 C4578 1.353 . S
C4583 H4553 0.930 . S
C4583 N4584 1.330 . S
C4583 C4585 1.446 . S
N4584 Co4543 2.151 . S
N4584 C4583 1.330 . S
N4584 C4588 1.418 . S
C4585 H4564 0.929 . S
C4585 C4583 1.446 . S
C4585 C4586 1.332 . S
C4586 H4566 0.931 . S
C4586 C4585 1.332 . S
C4586 C4587 1.267 . S
C4587 H4555 0.929 . S
C4587 C4586 1.267 . S
C4587 C4588 1.251 . S
C4588 H4558 0.929 . S
C4588 N4584 1.418 . S
C4588 C4587 1.251 . S
C4589 H4556 0.930 . S
C4589 C4591 1.406 . S
C4589 C4594 1.261 . S
C4590 H4557 0.930 . S
C4590 N4592 1.325 . S
C4590 C4593 1.357 . S
C4591 H4559 0.928 . S
C4591 C4589 1.406 . S
C4591 N4592 1.261 . S
N4592 Co4543 2.214 . S
N4592 C4590 1.325 . S
N4592 C4591 1.261 . S
C4593 H4563 0.931 . S
C4593 C4590 1.357 . S
C4593 C4594 1.312 . S
C4594 H4565 0.930 . S
C4594 C4589 1.261 . S
C4594 C4593 1.312 . S
C4595 O4567 1.214 . S
C4595 O4575 1.234 . S
C4596 H4568 0.929 . S
C4596 C4599 1.391 . S
C4596 C4601 1.391 . S
C4597 H4569 0.929 . S
C4597 C4598 1.390 . S
C4597 N4600 1.391 . S
C4598 H4570 0.930 . S
C4598 C4597 1.390 . S
C4598 C4599 1.392 . S
C4599 H4571 0.929 . S
C4599 C4596 1.391 . S
C4599 C4598 1.392 . S
N4600 Co4544 2.257 . S
N4600 C4597 1.391 . S
N4600 C4601 1.388 . S
C4601 H4572 0.930 . S
C4601 C4596 1.391 . S
C4601 N4600 1.388 . S
Co4602 O4604 2.143 . S
Co4602 O4610 2.074 . S
Co4602 O4613 2.093 . S
Co4602 O4626 2.097 . S
Co4602 N4643 2.151 . S
Co4602 N4651 2.214 . S
Co4603 O4604 2.160 . S
Co4603 O4609 2.058 . S
Co4603 O4619 2.057 . S
Co4603 O4634 2.037 . S
Co4603 N4638 2.145 . S
Co4603 N4659 2.257 . S
O4604 Co4602 2.143 . S
O4604 Co4603 2.160 . S
C4605 O4606 1.278 . S
C4605 O4613 1.224 . S
O4606 C4605 1.278 . S
C4607 O4608 1.245 . S
C4607 O4619 1.232 . S
O4608 C4607 1.245 . S
O4609 Co4603 2.058 . S
O4609 C4635 1.269 . S
O4610 Co4602 2.074 . S
O4610 C4635 1.257 . S
H4611 C4636 0.930 . S
H4612 C4642 0.930 . S
O4613 Co4602 2.093 . S
O4613 C4605 1.224 . S
H4614 C4646 0.929 . S
H4615 C4648 0.930 . S
H4616 C4649 0.930 . S
H4617 C4647 0.929 . S
H4618 C4650 0.928 . S
O4619 Co4603 2.057 . S
O4619 C4607 1.232 . S
H4620 C4639 0.929 . S
H4621 C4640 0.929 . S
H4622 C4652 0.931 . S
H4623 C4644 0.929 . S
H4624 C4653 0.930 . S
H4625 C4645 0.931 . S
O4626 Co4602 2.097 . S
O4626 C4654 1.214 . S
H4627 C4655 0.929 . S
H4628 C4656 0.929 . S
H4629 C4657 0.930 . S
H4630 C4658 0.929 . S
H4631 C4660 0.930 . S
H4632 C4637 0.930 . S
H4633 C4641 0.930 . S
O4634 Co4603 2.037 . S
O4634 C4654 1.234 . S
C4635 O4609 1.269 . S
C4635 O4610 1.257 . S
C4636 H4611 0.930 . S
C4636 C4639 1.388 . S
C4636 C4641 1.418 . S
C4637 H4632 0.930 . S
C4637 C4640 1.404 . S
C4637 C4641 1.353 . S
N4638 Co4603 2.145 . S
N4638 C4639 1.397 . S
N4638 C4640 1.334 . S
C4639 H4620 0.929 . S
C4639 C4636 1.388 . S
C4639 N4638 1.397 . S
C4640 H4621 0.929 . S
C4640 C4637 1.404 . S
C4640 N4638 1.334 . S
C4641 H4633 0.930 . S
C4641 C4636 1.418 . S
C4641 C4637 1.353 . S
C4642 H4612 0.930 . S
C4642 N4643 1.330 . S
C4642 C4644 1.446 . S
N4643 Co4602 2.151 . S
N4643 C4642 1.330 . S
N4643 C4647 1.418 . S
C4644 H4623 0.929 . S
C4644 C4642 1.446 . S
C4644 C4645 1.332 . S
C4645 H4625 0.931 . S
C4645 C4644 1.332 . S
C4645 C4646 1.267 . S
C4646 H4614 0.929 . S
C4646 C4645 1.267 . S
C4646 C4647 1.251 . S
C4647 H4617 0.929 . S
C4647 N4643 1.418 . S
C4647 C4646 1.251 . S
C4648 H4615 0.930 . S
C4648 C4650 1.406 . S
C4648 C4653 1.261 . S
C4649 H4616 0.930 . S
C4649 N4651 1.325 . S
C4649 C4652 1.357 . S
C4650 H4618 0.928 . S
C4650 C4648 1.406 . S
C4650 N4651 1.261 . S
N4651 Co4602 2.214 . S
N4651 C4649 1.325 . S
N4651 C4650 1.261 . S
C4652 H4622 0.931 . S
C4652 C4649 1.357 . S
C4652 C4653 1.312 . S
C4653 H4624 0.930 . S
C4653 C4648 1.261 . S
C4653 C4652 1.312 . S
C4654 O4626 1.214 . S
C4654 O4634 1.234 . S
C4655 H4627 0.929 . S
C4655 C4658 1.391 . S
C4655 C4660 1.391 . S
C4656 H4628 0.929 . S
C4656 C4657 1.390 . S
C4656 N4659 1.391 . S
C4657 H4629 0.930 . S
C4657 C4656 1.390 . S
C4657 C4658 1.392 . S
C4658 H4630 0.929 . S
C4658 C4655 1.391 . S
C4658 C4657 1.392 . S
N4659 Co4603 2.257 . S
N4659 C4656 1.391 . S
N4659 C4660 1.388 . S
C4660 H4631 0.930 . S
C4660 C4655 1.391 . S
C4660 N4659 1.388 . S
Co4661 O4663 2.143 . S
Co4661 O4669 2.074 . S
Co4661 O4672 2.093 . S
Co4661 O4685 2.097 . S
Co4661 N4702 2.151 . S
Co4661 N4710 2.214 . S
Co4662 O4663 2.160 . S
Co4662 O4668 2.058 . S
Co4662 O4678 2.057 . S
Co4662 O4693 2.037 . S
Co4662 N4697 2.145 . S
Co4662 N4718 2.257 . S
O4663 Co4661 2.143 . S
O4663 Co4662 2.160 . S
C4664 O4665 1.278 . S
C4664 O4672 1.224 . S
O4665 C4664 1.278 . S
C4666 O4667 1.245 . S
C4666 O4678 1.232 . S
O4667 C4666 1.245 . S
O4668 Co4662 2.058 . S
O4668 C4694 1.269 . S
O4669 Co4661 2.074 . S
O4669 C4694 1.257 . S
H4670 C4695 0.930 . S
H4671 C4701 0.930 . S
O4672 Co4661 2.093 . S
O4672 C4664 1.224 . S
H4673 C4705 0.929 . S
H4674 C4707 0.930 . S
H4675 C4708 0.930 . S
H4676 C4706 0.929 . S
H4677 C4709 0.928 . S
O4678 Co4662 2.057 . S
O4678 C4666 1.232 . S
H4679 C4698 0.929 . S
H4680 C4699 0.929 . S
H4681 C4711 0.931 . S
H4682 C4703 0.929 . S
H4683 C4712 0.930 . S
H4684 C4704 0.931 . S
O4685 Co4661 2.097 . S
O4685 C4713 1.214 . S
H4686 C4714 0.929 . S
H4687 C4715 0.929 . S
H4688 C4716 0.930 . S
H4689 C4717 0.929 . S
H4690 C4719 0.930 . S
H4691 C4696 0.930 . S
H4692 C4700 0.930 . S
O4693 Co4662 2.037 . S
O4693 C4713 1.234 . S
C4694 O4668 1.269 . S
C4694 O4669 1.257 . S
C4695 H4670 0.930 . S
C4695 C4698 1.388 . S
C4695 C4700 1.418 . S
C4696 H4691 0.930 . S
C4696 C4699 1.404 . S
C4696 C4700 1.353 . S
N4697 Co4662 2.145 . S
N4697 C4698 1.397 . S
N4697 C4699 1.334 . S
C4698 H4679 0.929 . S
C4698 C4695 1.388 . S
C4698 N4697 1.397 . S
C4699 H4680 0.929 . S
C4699 C4696 1.404 . S
C4699 N4697 1.334 . S
C4700 H4692 0.930 . S
C4700 C4695 1.418 . S
C4700 C4696 1.353 . S
C4701 H4671 0.930 . S
C4701 N4702 1.330 . S
C4701 C4703 1.446 . S
N4702 Co4661 2.151 . S
N4702 C4701 1.330 . S
N4702 C4706 1.418 . S
C4703 H4682 0.929 . S
C4703 C4701 1.446 . S
C4703 C4704 1.332 . S
C4704 H4684 0.931 . S
C4704 C4703 1.332 . S
C4704 C4705 1.267 . S
C4705 H4673 0.929 . S
C4705 C4704 1.267 . S
C4705 C4706 1.251 . S
C4706 H4676 0.929 . S
C4706 N4702 1.418 . S
C4706 C4705 1.251 . S
C4707 H4674 0.930 . S
C4707 C4709 1.406 . S
C4707 C4712 1.261 . S
C4708 H4675 0.930 . S
C4708 N4710 1.325 . S
C4708 C4711 1.357 . S
C4709 H4677 0.928 . S
C4709 C4707 1.406 . S
C4709 N4710 1.261 . S
N4710 Co4661 2.214 . S
N4710 C4708 1.325 . S
N4710 C4709 1.261 . S
C4711 H4681 0.931 . S
C4711 C4708 1.357 . S
C4711 C4712 1.312 . S
C4712 H4683 0.930 . S
C4712 C4707 1.261 . S
C4712 C4711 1.312 . S
C4713 O4685 1.214 . S
C4713 O4693 1.234 . S
C4714 H4686 0.929 . S
C4714 C4717 1.391 . S
C4714 C4719 1.391 . S
C4715 H4687 0.929 . S
C4715 C4716 1.390 . S
C4715 N4718 1.391 . S
C4716 H4688 0.930 . S
C4716 C4715 1.390 . S
C4716 C4717 1.392 . S
C4717 H4689 0.929 . S
C4717 C4714 1.391 . S
C4717 C4716 1.392 . S
N4718 Co4662 2.257 . S
N4718 C4715 1.391 . S
N4718 C4719 1.388 . S
C4719 H4690 0.930 . S
C4719 C4714 1.391 . S
C4719 N4718 1.388 . S
Co4720 O4722 2.143 . S
Co4720 O4728 2.074 . S
Co4720 O4731 2.093 . S
Co4720 O4744 2.097 . S
Co4720 N4761 2.151 . S
Co4720 N4769 2.214 . S
Co4721 O4722 2.160 . S
Co4721 O4727 2.058 . S
Co4721 O4737 2.057 . S
Co4721 O4752 2.037 . S
Co4721 N4756 2.145 . S
Co4721 N4777 2.257 . S
O4722 Co4720 2.143 . S
O4722 Co4721 2.160 . S
C4723 O4724 1.278 . S
C4723 O4731 1.224 . S
O4724 C4723 1.278 . S
C4725 O4726 1.245 . S
C4725 O4737 1.232 . S
O4726 C4725 1.245 . S
O4727 Co4721 2.058 . S
O4727 C4753 1.269 . S
O4728 Co4720 2.074 . S
O4728 C4753 1.257 . S
H4729 C4754 0.930 . S
H4730 C4760 0.930 . S
O4731 Co4720 2.093 . S
O4731 C4723 1.224 . S
H4732 C4764 0.929 . S
H4733 C4766 0.930 . S
H4734 C4767 0.930 . S
H4735 C4765 0.929 . S
H4736 C4768 0.928 . S
O4737 Co4721 2.057 . S
O4737 C4725 1.232 . S
H4738 C4757 0.929 . S
H4739 C4758 0.929 . S
H4740 C4770 0.931 . S
H4741 C4762 0.929 . S
H4742 C4771 0.930 . S
H4743 C4763 0.931 . S
O4744 Co4720 2.097 . S
O4744 C4772 1.214 . S
H4745 C4773 0.929 . S
H4746 C4774 0.929 . S
H4747 C4775 0.930 . S
H4748 C4776 0.929 . S
H4749 C4778 0.930 . S
H4750 C4755 0.930 . S
H4751 C4759 0.930 . S
O4752 Co4721 2.037 . S
O4752 C4772 1.234 . S
C4753 O4727 1.269 . S
C4753 O4728 1.257 . S
C4754 H4729 0.930 . S
C4754 C4757 1.388 . S
C4754 C4759 1.418 . S
C4755 H4750 0.930 . S
C4755 C4758 1.404 . S
C4755 C4759 1.353 . S
N4756 Co4721 2.145 . S
N4756 C4757 1.397 . S
N4756 C4758 1.334 . S
C4757 H4738 0.929 . S
C4757 C4754 1.388 . S
C4757 N4756 1.397 . S
C4758 H4739 0.929 . S
C4758 C4755 1.404 . S
C4758 N4756 1.334 . S
C4759 H4751 0.930 . S
C4759 C4754 1.418 . S
C4759 C4755 1.353 . S
C4760 H4730 0.930 . S
C4760 N4761 1.330 . S
C4760 C4762 1.446 . S
N4761 Co4720 2.151 . S
N4761 C4760 1.330 . S
N4761 C4765 1.418 . S
C4762 H4741 0.929 . S
C4762 C4760 1.446 . S
C4762 C4763 1.332 . S
C4763 H4743 0.931 . S
C4763 C4762 1.332 . S
C4763 C4764 1.267 . S
C4764 H4732 0.929 . S
C4764 C4763 1.267 . S
C4764 C4765 1.251 . S
C4765 H4735 0.929 . S
C4765 N4761 1.418 . S
C4765 C4764 1.251 . S
C4766 H4733 0.930 . S
C4766 C4768 1.406 . S
C4766 C4771 1.261 . S
C4767 H4734 0.930 . S
C4767 N4769 1.325 . S
C4767 C4770 1.357 . S
C4768 H4736 0.928 . S
C4768 C4766 1.406 . S
C4768 N4769 1.261 . S
N4769 Co4720 2.214 . S
N4769 C4767 1.325 . S
N4769 C4768 1.261 . S
C4770 H4740 0.931 . S
C4770 C4767 1.357 . S
C4770 C4771 1.312 . S
C4771 H4742 0.930 . S
C4771 C4766 1.261 . S
C4771 C4770 1.312 . S
C4772 O4744 1.214 . S
C4772 O4752 1.234 . S
C4773 H4745 0.929 . S
C4773 C4776 1.391 . S
C4773 C4778 1.391 . S
C4774 H4746 0.929 . S
C4774 C4775 1.390 . S
C4774 N4777 1.391 . S
C4775 H4747 0.930 . S
C4775 C4774 1.390 . S
C4775 C4776 1.392 . S
C4776 H4748 0.929 . S
C4776 C4773 1.391 . S
C4776 C4775 1.392 . S
N4777 Co4721 2.257 . S
N4777 C4774 1.391 . S
N4777 C4778 1.388 . S
C4778 H4749 0.930 . S
C4778 C4773 1.391 . S
C4778 N4777 1.388 . S
Co4779 O4781 2.143 . S
Co4779 O4787 2.074 . S
Co4779 O4790 2.093 . S
Co4779 O4803 2.097 . S
Co4779 N4820 2.151 . S
Co4779 N4828 2.214 . S
Co4780 O4781 2.160 . S
Co4780 O4786 2.058 . S
Co4780 O4796 2.057 . S
Co4780 O4811 2.037 . S
Co4780 N4815 2.145 . S
Co4780 N4836 2.257 . S
O4781 Co4779 2.143 . S
O4781 Co4780 2.160 . S
C4782 O4783 1.278 . S
C4782 O4790 1.224 . S
O4783 C4782 1.278 . S
C4784 O4785 1.245 . S
C4784 O4796 1.232 . S
O4785 C4784 1.245 . S
O4786 Co4780 2.058 . S
O4786 C4812 1.269 . S
O4787 Co4779 2.074 . S
O4787 C4812 1.257 . S
H4788 C4813 0.930 . S
H4789 C4819 0.930 . S
O4790 Co4779 2.093 . S
O4790 C4782 1.224 . S
H4791 C4823 0.929 . S
H4792 C4825 0.930 . S
H4793 C4826 0.930 . S
H4794 C4824 0.929 . S
H4795 C4827 0.928 . S
O4796 Co4780 2.057 . S
O4796 C4784 1.232 . S
H4797 C4816 0.929 . S
H4798 C4817 0.929 . S
H4799 C4829 0.931 . S
H4800 C4821 0.929 . S
H4801 C4830 0.930 . S
H4802 C4822 0.931 . S
O4803 Co4779 2.097 . S
O4803 C4831 1.214 . S
H4804 C4832 0.929 . S
H4805 C4833 0.929 . S
H4806 C4834 0.930 . S
H4807 C4835 0.929 . S
H4808 C4837 0.930 . S
H4809 C4814 0.930 . S
H4810 C4818 0.930 . S
O4811 Co4780 2.037 . S
O4811 C4831 1.234 . S
C4812 O4786 1.269 . S
C4812 O4787 1.257 . S
C4813 H4788 0.930 . S
C4813 C4816 1.388 . S
C4813 C4818 1.418 . S
C4814 H4809 0.930 . S
C4814 C4817 1.404 . S
C4814 C4818 1.353 . S
N4815 Co4780 2.145 . S
N4815 C4816 1.397 . S
N4815 C4817 1.334 . S
C4816 H4797 0.929 . S
C4816 C4813 1.388 . S
C4816 N4815 1.397 . S
C4817 H4798 0.929 . S
C4817 C4814 1.404 . S
C4817 N4815 1.334 . S
C4818 H4810 0.930 . S
C4818 C4813 1.418 . S
C4818 C4814 1.353 . S
C4819 H4789 0.930 . S
C4819 N4820 1.330 . S
C4819 C4821 1.446 . S
N4820 Co4779 2.151 . S
N4820 C4819 1.330 . S
N4820 C4824 1.418 . S
C4821 H4800 0.929 . S
C4821 C4819 1.446 . S
C4821 C4822 1.332 . S
C4822 H4802 0.931 . S
C4822 C4821 1.332 . S
C4822 C4823 1.267 . S
C4823 H4791 0.929 . S
C4823 C4822 1.267 . S
C4823 C4824 1.251 . S
C4824 H4794 0.929 . S
C4824 N4820 1.418 . S
C4824 C4823 1.251 . S
C4825 H4792 0.930 . S
C4825 C4827 1.406 . S
C4825 C4830 1.261 . S
C4826 H4793 0.930 . S
C4826 N4828 1.325 . S
C4826 C4829 1.357 . S
C4827 H4795 0.928 . S
C4827 C4825 1.406 . S
C4827 N4828 1.261 . S
N4828 Co4779 2.214 . S
N4828 C4826 1.325 . S
N4828 C4827 1.261 . S
C4829 H4799 0.931 . S
C4829 C4826 1.357 . S
C4829 C4830 1.312 . S
C4830 H4801 0.930 . S
C4830 C4825 1.261 . S
C4830 C4829 1.312 . S
C4831 O4803 1.214 . S
C4831 O4811 1.234 . S
C4832 H4804 0.929 . S
C4832 C4835 1.391 . S
C4832 C4837 1.391 . S
C4833 H4805 0.929 . S
C4833 C4834 1.390 . S
C4833 N4836 1.391 . S
C4834 H4806 0.930 . S
C4834 C4833 1.390 . S
C4834 C4835 1.392 . S
C4835 H4807 0.929 . S
C4835 C4832 1.391 . S
C4835 C4834 1.392 . S
N4836 Co4780 2.257 . S
N4836 C4833 1.391 . S
N4836 C4837 1.388 . S
C4837 H4808 0.930 . S
C4837 C4832 1.391 . S
C4837 N4836 1.388 . S
Co4838 O4840 2.143 . S
Co4838 O4846 2.074 . S
Co4838 O4849 2.093 . S
Co4838 O4862 2.097 . S
Co4838 N4879 2.151 1_554 S
Co4838 N4887 2.214 . S
Co4839 O4840 2.160 . S
Co4839 O4845 2.058 . S
Co4839 O4855 2.057 . S
Co4839 O4870 2.037 . S
Co4839 N4874 2.145 . S
Co4839 N4895 2.257 . S
O4840 Co4838 2.143 . S
O4840 Co4839 2.160 . S
C4841 O4842 1.278 . S
C4841 O4849 1.224 . S
O4842 C4841 1.278 . S
C4843 O4844 1.245 . S
C4843 O4855 1.232 . S
O4844 C4843 1.245 . S
O4845 Co4839 2.058 . S
O4845 C4871 1.269 . S
O4846 Co4838 2.074 . S
O4846 C4871 1.257 . S
H4847 C4872 0.930 . S
H4848 C4878 0.930 . S
O4849 Co4838 2.093 . S
O4849 C4841 1.224 . S
H4850 C4882 0.929 . S
H4851 C4884 0.930 . S
H4852 C4885 0.930 . S
H4853 C4883 0.929 . S
H4854 C4886 0.928 . S
O4855 Co4839 2.057 . S
O4855 C4843 1.232 . S
H4856 C4875 0.929 . S
H4857 C4876 0.929 . S
H4858 C4888 0.931 . S
H4859 C4880 0.929 . S
H4860 C4889 0.930 . S
H4861 C4881 0.931 . S
O4862 Co4838 2.097 . S
O4862 C4890 1.214 . S
H4863 C4891 0.929 . S
H4864 C4892 0.929 . S
H4865 C4893 0.930 . S
H4866 C4894 0.929 . S
H4867 C4896 0.930 . S
H4868 C4873 0.930 . S
H4869 C4877 0.930 . S
O4870 Co4839 2.037 . S
O4870 C4890 1.234 . S
C4871 O4845 1.269 . S
C4871 O4846 1.257 . S
C4872 H4847 0.930 . S
C4872 C4875 1.388 . S
C4872 C4877 1.418 . S
C4873 H4868 0.930 . S
C4873 C4876 1.404 . S
C4873 C4877 1.353 . S
N4874 Co4839 2.145 . S
N4874 C4875 1.397 . S
N4874 C4876 1.334 . S
C4875 H4856 0.929 . S
C4875 C4872 1.388 . S
C4875 N4874 1.397 . S
C4876 H4857 0.929 . S
C4876 C4873 1.404 . S
C4876 N4874 1.334 . S
C4877 H4869 0.930 . S
C4877 C4872 1.418 . S
C4877 C4873 1.353 . S
C4878 H4848 0.930 . S
C4878 N4879 1.330 . S
C4878 C4880 1.446 . S
N4879 Co4838 2.151 1_556 S
N4879 C4878 1.330 . S
N4879 C4883 1.418 . S
C4880 H4859 0.929 . S
C4880 C4878 1.446 . S
C4880 C4881 1.332 . S
C4881 H4861 0.931 . S
C4881 C4880 1.332 . S
C4881 C4882 1.267 . S
C4882 H4850 0.929 . S
C4882 C4881 1.267 . S
C4882 C4883 1.251 . S
C4883 H4853 0.929 . S
C4883 N4879 1.418 . S
C4883 C4882 1.251 . S
C4884 H4851 0.930 . S
C4884 C4886 1.406 . S
C4884 C4889 1.261 . S
C4885 H4852 0.930 . S
C4885 N4887 1.325 . S
C4885 C4888 1.357 . S
C4886 H4854 0.928 . S
C4886 C4884 1.406 . S
C4886 N4887 1.261 1_556 S
N4887 Co4838 2.214 . S
N4887 C4885 1.325 . S
N4887 C4886 1.261 1_554 S
C4888 H4858 0.931 . S
C4888 C4885 1.357 . S
C4888 C4889 1.312 1_554 S
C4889 H4860 0.930 . S
C4889 C4884 1.261 . S
C4889 C4888 1.312 1_556 S
C4890 O4862 1.214 . S
C4890 O4870 1.234 . S
C4891 H4863 0.929 . S
C4891 C4894 1.391 . S
C4891 C4896 1.391 . S
C4892 H4864 0.929 . S
C4892 C4893 1.390 . S
C4892 N4895 1.391 . S
C4893 H4865 0.930 . S
C4893 C4892 1.390 . S
C4893 C4894 1.392 . S
C4894 H4866 0.929 . S
C4894 C4891 1.391 . S
C4894 C4893 1.392 . S
N4895 Co4839 2.257 . S
N4895 C4892 1.391 . S
N4895 C4896 1.388 . S
C4896 H4867 0.930 . S
C4896 C4891 1.391 . S
C4896 N4895 1.388 . S
Co4897 O4899 2.143 . S
Co4897 O4905 2.074 . S
Co4897 O4908 2.093 . S
Co4897 O4921 2.097 . S
Co4897 N4938 2.151 . S
Co4897 N4946 2.214 . S
Co4898 O4899 2.160 . S
Co4898 O4904 2.058 . S
Co4898 O4914 2.057 . S
Co4898 O4929 2.037 . S
Co4898 N4933 2.145 . S
Co4898 N4954 2.257 . S
O4899 Co4897 2.143 . S
O4899 Co4898 2.160 . S
C4900 O4901 1.278 . S
C4900 O4908 1.224 . S
O4901 C4900 1.278 . S
C4902 O4903 1.245 . S
C4902 O4914 1.232 . S
O4903 C4902 1.245 . S
O4904 Co4898 2.058 . S
O4904 C4930 1.269 . S
O4905 Co4897 2.074 . S
O4905 C4930 1.257 . S
H4906 C4931 0.930 . S
H4907 C4937 0.930 . S
O4908 Co4897 2.093 . S
O4908 C4900 1.224 . S
H4909 C4941 0.929 . S
H4910 C4943 0.930 . S
H4911 C4944 0.930 . S
H4912 C4942 0.929 . S
H4913 C4945 0.928 . S
O4914 Co4898 2.057 . S
O4914 C4902 1.232 . S
H4915 C4934 0.929 . S
H4916 C4935 0.929 . S
H4917 C4947 0.931 . S
H4918 C4939 0.929 . S
H4919 C4948 0.930 . S
H4920 C4940 0.931 . S
O4921 Co4897 2.097 . S
O4921 C4949 1.214 . S
H4922 C4950 0.929 . S
H4923 C4951 0.929 . S
H4924 C4952 0.930 . S
H4925 C4953 0.929 . S
H4926 C4955 0.930 . S
H4927 C4932 0.930 . S
H4928 C4936 0.930 . S
O4929 Co4898 2.037 . S
O4929 C4949 1.234 . S
C4930 O4904 1.269 . S
C4930 O4905 1.257 . S
C4931 H4906 0.930 . S
C4931 C4934 1.388 . S
C4931 C4936 1.418 . S
C4932 H4927 0.930 . S
C4932 C4935 1.404 . S
C4932 C4936 1.353 . S
N4933 Co4898 2.145 . S
N4933 C4934 1.397 . S
N4933 C4935 1.334 . S
C4934 H4915 0.929 . S
C4934 C4931 1.388 . S
C4934 N4933 1.397 . S
C4935 H4916 0.929 . S
C4935 C4932 1.404 . S
C4935 N4933 1.334 . S
C4936 H4928 0.930 . S
C4936 C4931 1.418 . S
C4936 C4932 1.353 . S
C4937 H4907 0.930 . S
C4937 N4938 1.330 . S
C4937 C4939 1.446 . S
N4938 Co4897 2.151 . S
N4938 C4937 1.330 . S
N4938 C4942 1.418 . S
C4939 H4918 0.929 . S
C4939 C4937 1.446 . S
C4939 C4940 1.332 . S
C4940 H4920 0.931 . S
C4940 C4939 1.332 . S
C4940 C4941 1.267 . S
C4941 H4909 0.929 . S
C4941 C4940 1.267 . S
C4941 C4942 1.251 . S
C4942 H4912 0.929 . S
C4942 N4938 1.418 . S
C4942 C4941 1.251 . S
C4943 H4910 0.930 . S
C4943 C4945 1.406 . S
C4943 C4948 1.261 . S
C4944 H4911 0.930 . S
C4944 N4946 1.325 . S
C4944 C4947 1.357 . S
C4945 H4913 0.928 . S
C4945 C4943 1.406 . S
C4945 N4946 1.261 . S
N4946 Co4897 2.214 . S
N4946 C4944 1.325 . S
N4946 C4945 1.261 . S
C4947 H4917 0.931 . S
C4947 C4944 1.357 . S
C4947 C4948 1.312 . S
C4948 H4919 0.930 . S
C4948 C4943 1.261 . S
C4948 C4947 1.312 . S
C4949 O4921 1.214 . S
C4949 O4929 1.234 . S
C4950 H4922 0.929 . S
C4950 C4953 1.391 . S
C4950 C4955 1.391 . S
C4951 H4923 0.929 . S
C4951 C4952 1.390 . S
C4951 N4954 1.391 . S
C4952 H4924 0.930 . S
C4952 C4951 1.390 . S
C4952 C4953 1.392 . S
C4953 H4925 0.929 . S
C4953 C4950 1.391 . S
C4953 C4952 1.392 . S
N4954 Co4898 2.257 . S
N4954 C4951 1.391 . S
N4954 C4955 1.388 . S
C4955 H4926 0.930 . S
C4955 C4950 1.391 . S
C4955 N4954 1.388 . S
Co4956 O4958 2.143 . S
Co4956 O4964 2.074 . S
Co4956 O4967 2.093 . S
Co4956 O4980 2.097 . S
Co4956 N4997 2.151 . S
Co4956 N5005 2.214 . S
Co4957 O4958 2.160 . S
Co4957 O4963 2.058 . S
Co4957 O4973 2.057 . S
Co4957 O4988 2.037 . S
Co4957 N4992 2.145 . S
Co4957 N5013 2.257 . S
O4958 Co4956 2.143 . S
O4958 Co4957 2.160 . S
C4959 O4960 1.278 . S
C4959 O4967 1.224 . S
O4960 C4959 1.278 . S
C4961 O4962 1.245 . S
C4961 O4973 1.232 . S
O4962 C4961 1.245 . S
O4963 Co4957 2.058 . S
O4963 C4989 1.269 . S
O4964 Co4956 2.074 . S
O4964 C4989 1.257 . S
H4965 C4990 0.930 . S
H4966 C4996 0.930 . S
O4967 Co4956 2.093 . S
O4967 C4959 1.224 . S
H4968 C5000 0.929 . S
H4969 C5002 0.930 . S
H4970 C5003 0.930 . S
H4971 C5001 0.929 . S
H4972 C5004 0.928 . S
O4973 Co4957 2.057 . S
O4973 C4961 1.232 . S
H4974 C4993 0.929 . S
H4975 C4994 0.929 . S
H4976 C5006 0.931 . S
H4977 C4998 0.929 . S
H4978 C5007 0.930 . S
H4979 C4999 0.931 . S
O4980 Co4956 2.097 . S
O4980 C5008 1.214 . S
H4981 C5009 0.929 . S
H4982 C5010 0.929 . S
H4983 C5011 0.930 . S
H4984 C5012 0.929 . S
H4985 C5014 0.930 . S
H4986 C4991 0.930 . S
H4987 C4995 0.930 . S
O4988 Co4957 2.037 . S
O4988 C5008 1.234 . S
C4989 O4963 1.269 . S
C4989 O4964 1.257 . S
C4990 H4965 0.930 . S
C4990 C4993 1.388 . S
C4990 C4995 1.418 . S
C4991 H4986 0.930 . S
C4991 C4994 1.404 . S
C4991 C4995 1.353 . S
N4992 Co4957 2.145 . S
N4992 C4993 1.397 . S
N4992 C4994 1.334 . S
C4993 H4974 0.929 . S
C4993 C4990 1.388 . S
C4993 N4992 1.397 . S
C4994 H4975 0.929 . S
C4994 C4991 1.404 . S
C4994 N4992 1.334 . S
C4995 H4987 0.930 . S
C4995 C4990 1.418 . S
C4995 C4991 1.353 . S
C4996 H4966 0.930 . S
C4996 N4997 1.330 . S
C4996 C4998 1.446 . S
N4997 Co4956 2.151 . S
N4997 C4996 1.330 . S
N4997 C5001 1.418 . S
C4998 H4977 0.929 . S
C4998 C4996 1.446 . S
C4998 C4999 1.332 . S
C4999 H4979 0.931 . S
C4999 C4998 1.332 . S
C4999 C5000 1.267 . S
C5000 H4968 0.929 . S
C5000 C4999 1.267 . S
C5000 C5001 1.251 . S
C5001 H4971 0.929 . S
C5001 N4997 1.418 . S
C5001 C5000 1.251 . S
C5002 H4969 0.930 . S
C5002 C5004 1.406 . S
C5002 C5007 1.261 . S
C5003 H4970 0.930 . S
C5003 N5005 1.325 . S
C5003 C5006 1.357 . S
C5004 H4972 0.928 . S
C5004 C5002 1.406 . S
C5004 N5005 1.261 . S
N5005 Co4956 2.214 . S
N5005 C5003 1.325 . S
N5005 C5004 1.261 . S
C5006 H4976 0.931 . S
C5006 C5003 1.357 . S
C5006 C5007 1.312 . S
C5007 H4978 0.930 . S
C5007 C5002 1.261 . S
C5007 C5006 1.312 . S
C5008 O4980 1.214 . S
C5008 O4988 1.234 . S
C5009 H4981 0.929 . S
C5009 C5012 1.391 . S
C5009 C5014 1.391 . S
C5010 H4982 0.929 . S
C5010 C5011 1.390 . S
C5010 N5013 1.391 . S
C5011 H4983 0.930 . S
C5011 C5010 1.390 . S
C5011 C5012 1.392 . S
C5012 H4984 0.929 . S
C5012 C5009 1.391 . S
C5012 C5011 1.392 . S
N5013 Co4957 2.257 . S
N5013 C5010 1.391 . S
N5013 C5014 1.388 . S
C5014 H4985 0.930 . S
C5014 C5009 1.391 . S
C5014 N5013 1.388 . S
Co5015 O5017 2.143 . S
Co5015 O5023 2.074 . S
Co5015 O5026 2.093 . S
Co5015 O5039 2.097 . S
Co5015 N5056 2.151 . S
Co5015 N5064 2.214 . S
Co5016 O5017 2.160 . S
Co5016 O5022 2.058 . S
Co5016 O5032 2.057 . S
Co5016 O5047 2.037 . S
Co5016 N5051 2.145 . S
Co5016 N5072 2.257 . S
O5017 Co5015 2.143 . S
O5017 Co5016 2.160 . S
C5018 O5019 1.278 . S
C5018 O5026 1.224 . S
O5019 C5018 1.278 . S
C5020 O5021 1.245 . S
C5020 O5032 1.232 . S
O5021 C5020 1.245 . S
O5022 Co5016 2.058 . S
O5022 C5048 1.269 . S
O5023 Co5015 2.074 . S
O5023 C5048 1.257 . S
H5024 C5049 0.930 . S
H5025 C5055 0.930 . S
O5026 Co5015 2.093 . S
O5026 C5018 1.224 . S
H5027 C5059 0.929 . S
H5028 C5061 0.930 . S
H5029 C5062 0.930 . S
H5030 C5060 0.929 . S
H5031 C5063 0.928 . S
O5032 Co5016 2.057 . S
O5032 C5020 1.232 . S
H5033 C5052 0.929 . S
H5034 C5053 0.929 . S
H5035 C5065 0.931 . S
H5036 C5057 0.929 . S
H5037 C5066 0.930 . S
H5038 C5058 0.931 . S
O5039 Co5015 2.097 . S
O5039 C5067 1.214 . S
H5040 C5068 0.929 . S
H5041 C5069 0.929 . S
H5042 C5070 0.930 . S
H5043 C5071 0.929 . S
H5044 C5073 0.930 . S
H5045 C5050 0.930 . S
H5046 C5054 0.930 . S
O5047 Co5016 2.037 . S
O5047 C5067 1.234 . S
C5048 O5022 1.269 . S
C5048 O5023 1.257 . S
C5049 H5024 0.930 . S
C5049 C5052 1.388 . S
C5049 C5054 1.418 . S
C5050 H5045 0.930 . S
C5050 C5053 1.404 . S
C5050 C5054 1.353 . S
N5051 Co5016 2.145 . S
N5051 C5052 1.397 . S
N5051 C5053 1.334 . S
C5052 H5033 0.929 . S
C5052 C5049 1.388 . S
C5052 N5051 1.397 . S
C5053 H5034 0.929 . S
C5053 C5050 1.404 . S
C5053 N5051 1.334 . S
C5054 H5046 0.930 . S
C5054 C5049 1.418 . S
C5054 C5050 1.353 . S
C5055 H5025 0.930 . S
C5055 N5056 1.330 . S
C5055 C5057 1.446 . S
N5056 Co5015 2.151 . S
N5056 C5055 1.330 . S
N5056 C5060 1.418 . S
C5057 H5036 0.929 . S
C5057 C5055 1.446 . S
C5057 C5058 1.332 . S
C5058 H5038 0.931 . S
C5058 C5057 1.332 . S
C5058 C5059 1.267 . S
C5059 H5027 0.929 . S
C5059 C5058 1.267 . S
C5059 C5060 1.251 . S
C5060 H5030 0.929 . S
C5060 N5056 1.418 . S
C5060 C5059 1.251 . S
C5061 H5028 0.930 . S
C5061 C5063 1.406 . S
C5061 C5066 1.261 . S
C5062 H5029 0.930 . S
C5062 N5064 1.325 . S
C5062 C5065 1.357 . S
C5063 H5031 0.928 . S
C5063 C5061 1.406 . S
C5063 N5064 1.261 . S
N5064 Co5015 2.214 . S
N5064 C5062 1.325 . S
N5064 C5063 1.261 . S
C5065 H5035 0.931 . S
C5065 C5062 1.357 . S
C5065 C5066 1.312 . S
C5066 H5037 0.930 . S
C5066 C5061 1.261 . S
C5066 C5065 1.312 . S
C5067 O5039 1.214 . S
C5067 O5047 1.234 . S
C5068 H5040 0.929 . S
C5068 C5071 1.391 . S
C5068 C5073 1.391 . S
C5069 H5041 0.929 . S
C5069 C5070 1.390 . S
C5069 N5072 1.391 . S
C5070 H5042 0.930 . S
C5070 C5069 1.390 . S
C5070 C5071 1.392 . S
C5071 H5043 0.929 . S
C5071 C5068 1.391 . S
C5071 C5070 1.392 . S
N5072 Co5016 2.257 . S
N5072 C5069 1.391 . S
N5072 C5073 1.388 . S
C5073 H5044 0.930 . S
C5073 C5068 1.391 . S
C5073 N5072 1.388 . S
Co5074 O5076 2.143 . S
Co5074 O5082 2.074 . S
Co5074 O5085 2.093 . S
Co5074 O5098 2.097 . S
Co5074 N5115 2.151 1_556 S
Co5074 N5123 2.214 . S
Co5075 O5076 2.160 . S
Co5075 O5081 2.058 . S
Co5075 O5091 2.057 . S
Co5075 O5106 2.037 . S
Co5075 N5110 2.145 . S
Co5075 N5131 2.257 . S
O5076 Co5074 2.143 . S
O5076 Co5075 2.160 . S
C5077 O5078 1.278 . S
C5077 O5085 1.224 . S
O5078 C5077 1.278 . S
C5079 O5080 1.245 . S
C5079 O5091 1.232 . S
O5080 C5079 1.245 . S
O5081 Co5075 2.058 . S
O5081 C5107 1.269 . S
O5082 Co5074 2.074 . S
O5082 C5107 1.257 . S
H5083 C5108 0.930 . S
H5084 C5114 0.930 . S
O5085 Co5074 2.093 . S
O5085 C5077 1.224 . S
H5086 C5118 0.929 . S
H5087 C5120 0.930 . S
H5088 C5121 0.930 . S
H5089 C5119 0.929 . S
H5090 C5122 0.928 . S
O5091 Co5075 2.057 . S
O5091 C5079 1.232 . S
H5092 C5111 0.929 . S
H5093 C5112 0.929 . S
H5094 C5124 0.931 . S
H5095 C5116 0.929 . S
H5096 C5125 0.930 . S
H5097 C5117 0.931 . S
O5098 Co5074 2.097 . S
O5098 C5126 1.214 . S
H5099 C5127 0.929 . S
H5100 C5128 0.929 . S
H5101 C5129 0.930 . S
H5102 C5130 0.929 . S
H5103 C5132 0.930 . S
H5104 C5109 0.930 . S
H5105 C5113 0.930 . S
O5106 Co5075 2.037 . S
O5106 C5126 1.234 . S
C5107 O5081 1.269 . S
C5107 O5082 1.257 . S
C5108 H5083 0.930 . S
C5108 C5111 1.388 . S
C5108 C5113 1.418 . S
C5109 H5104 0.930 . S
C5109 C5112 1.404 . S
C5109 C5113 1.353 . S
N5110 Co5075 2.145 . S
N5110 C5111 1.397 . S
N5110 C5112 1.334 . S
C5111 H5092 0.929 . S
C5111 C5108 1.388 . S
C5111 N5110 1.397 . S
C5112 H5093 0.929 . S
C5112 C5109 1.404 . S
C5112 N5110 1.334 . S
C5113 H5105 0.930 . S
C5113 C5108 1.418 . S
C5113 C5109 1.353 . S
C5114 H5084 0.930 . S
C5114 N5115 1.330 . S
C5114 C5116 1.446 . S
N5115 Co5074 2.151 1_554 S
N5115 C5114 1.330 . S
N5115 C5119 1.418 . S
C5116 H5095 0.929 . S
C5116 C5114 1.446 . S
C5116 C5117 1.332 . S
C5117 H5097 0.931 . S
C5117 C5116 1.332 . S
C5117 C5118 1.267 . S
C5118 H5086 0.929 . S
C5118 C5117 1.267 . S
C5118 C5119 1.251 . S
C5119 H5089 0.929 . S
C5119 N5115 1.418 . S
C5119 C5118 1.251 . S
C5120 H5087 0.930 . S
C5120 C5122 1.406 . S
C5120 C5125 1.261 . S
C5121 H5088 0.930 . S
C5121 N5123 1.325 . S
C5121 C5124 1.357 . S
C5122 H5090 0.928 . S
C5122 C5120 1.406 . S
C5122 N5123 1.261 1_554 S
N5123 Co5074 2.214 . S
N5123 C5121 1.325 . S
N5123 C5122 1.261 1_556 S
C5124 H5094 0.931 . S
C5124 C5121 1.357 . S
C5124 C5125 1.312 1_556 S
C5125 H5096 0.930 . S
C5125 C5120 1.261 . S
C5125 C5124 1.312 1_554 S
C5126 O5098 1.214 . S
C5126 O5106 1.234 . S
C5127 H5099 0.929 . S
C5127 C5130 1.391 . S
C5127 C5132 1.391 . S
C5128 H5100 0.929 . S
C5128 C5129 1.390 . S
C5128 N5131 1.391 . S
C5129 H5101 0.930 . S
C5129 C5128 1.390 . S
C5129 C5130 1.392 . S
C5130 H5102 0.929 . S
C5130 C5127 1.391 . S
C5130 C5129 1.392 . S
N5131 Co5075 2.257 . S
N5131 C5128 1.391 . S
N5131 C5132 1.388 . S
C5132 H5103 0.930 . S
C5132 C5127 1.391 . S
C5132 N5131 1.388 . S
Co5133 O5135 2.143 . S
Co5133 O5141 2.074 . S
Co5133 O5144 2.093 . S
Co5133 O5157 2.097 . S
Co5133 N5174 2.151 . S
Co5133 N5182 2.214 . S
Co5134 O5135 2.160 . S
Co5134 O5140 2.058 . S
Co5134 O5150 2.057 . S
Co5134 O5165 2.037 . S
Co5134 N5169 2.145 . S
Co5134 N5190 2.257 . S
O5135 Co5133 2.143 . S
O5135 Co5134 2.160 . S
C5136 O5137 1.278 . S
C5136 O5144 1.224 . S
O5137 C5136 1.278 . S
C5138 O5139 1.245 . S
C5138 O5150 1.232 . S
O5139 C5138 1.245 . S
O5140 Co5134 2.058 . S
O5140 C5166 1.269 . S
O5141 Co5133 2.074 . S
O5141 C5166 1.257 . S
H5142 C5167 0.930 . S
H5143 C5173 0.930 . S
O5144 Co5133 2.093 . S
O5144 C5136 1.224 . S
H5145 C5177 0.929 . S
H5146 C5179 0.930 . S
H5147 C5180 0.930 . S
H5148 C5178 0.929 . S
H5149 C5181 0.928 . S
O5150 Co5134 2.057 . S
O5150 C5138 1.232 . S
H5151 C5170 0.929 . S
H5152 C5171 0.929 . S
H5153 C5183 0.931 . S
H5154 C5175 0.929 . S
H5155 C5184 0.930 . S
H5156 C5176 0.931 . S
O5157 Co5133 2.097 . S
O5157 C5185 1.214 . S
H5158 C5186 0.929 . S
H5159 C5187 0.929 . S
H5160 C5188 0.930 . S
H5161 C5189 0.929 . S
H5162 C5191 0.930 . S
H5163 C5168 0.930 . S
H5164 C5172 0.930 . S
O5165 Co5134 2.037 . S
O5165 C5185 1.234 . S
C5166 O5140 1.269 . S
C5166 O5141 1.257 . S
C5167 H5142 0.930 . S
C5167 C5170 1.388 . S
C5167 C5172 1.418 . S
C5168 H5163 0.930 . S
C5168 C5171 1.404 . S
C5168 C5172 1.353 . S
N5169 Co5134 2.145 . S
N5169 C5170 1.397 . S
N5169 C5171 1.334 . S
C5170 H5151 0.929 . S
C5170 C5167 1.388 . S
C5170 N5169 1.397 . S
C5171 H5152 0.929 . S
C5171 C5168 1.404 . S
C5171 N5169 1.334 . S
C5172 H5164 0.930 . S
C5172 C5167 1.418 . S
C5172 C5168 1.353 . S
C5173 H5143 0.930 . S
C5173 N5174 1.330 . S
C5173 C5175 1.446 . S
N5174 Co5133 2.151 . S
N5174 C5173 1.330 . S
N5174 C5178 1.418 . S
C5175 H5154 0.929 . S
C5175 C5173 1.446 . S
C5175 C5176 1.332 . S
C5176 H5156 0.931 . S
C5176 C5175 1.332 . S
C5176 C5177 1.267 . S
C5177 H5145 0.929 . S
C5177 C5176 1.267 . S
C5177 C5178 1.251 . S
C5178 H5148 0.929 . S
C5178 N5174 1.418 . S
C5178 C5177 1.251 . S
C5179 H5146 0.930 . S
C5179 C5181 1.406 . S
C5179 C5184 1.261 . S
C5180 H5147 0.930 . S
C5180 N5182 1.325 . S
C5180 C5183 1.357 . S
C5181 H5149 0.928 . S
C5181 C5179 1.406 . S
C5181 N5182 1.261 . S
N5182 Co5133 2.214 . S
N5182 C5180 1.325 . S
N5182 C5181 1.261 . S
C5183 H5153 0.931 . S
C5183 C5180 1.357 . S
C5183 C5184 1.312 . S
C5184 H5155 0.930 . S
C5184 C5179 1.261 . S
C5184 C5183 1.312 . S
C5185 O5157 1.214 . S
C5185 O5165 1.234 . S
C5186 H5158 0.929 . S
C5186 C5189 1.391 . S
C5186 C5191 1.391 . S
C5187 H5159 0.929 . S
C5187 C5188 1.390 . S
C5187 N5190 1.391 . S
C5188 H5160 0.930 . S
C5188 C5187 1.390 . S
C5188 C5189 1.392 . S
C5189 H5161 0.929 . S
C5189 C5186 1.391 . S
C5189 C5188 1.392 . S
N5190 Co5134 2.257 . S
N5190 C5187 1.391 . S
N5190 C5191 1.388 . S
C5191 H5162 0.930 . S
C5191 C5186 1.391 . S
C5191 N5190 1.388 . S
Co5192 O5194 2.143 . S
Co5192 O5200 2.074 . S
Co5192 O5203 2.093 . S
Co5192 O5216 2.097 . S
Co5192 N5233 2.151 . S
Co5192 N5241 2.214 . S
Co5193 O5194 2.160 . S
Co5193 O5199 2.058 . S
Co5193 O5209 2.056 1_455 S
Co5193 O5224 2.037 . S
Co5193 N5228 2.145 1_455 S
Co5193 N5249 2.257 1_455 S
O5194 Co5192 2.143 . S
O5194 Co5193 2.160 . S
C5195 O5196 1.278 . S
C5195 O5203 1.224 . S
O5196 C5195 1.278 . S
C5197 O5198 1.245 . S
C5197 O5209 1.231 1_455 S
O5198 C5197 1.245 . S
O5199 Co5193 2.058 . S
O5199 C5225 1.269 . S
O5200 Co5192 2.074 . S
O5200 C5225 1.257 . S
H5201 C5226 0.930 1_455 S
H5202 C5232 0.930 . S
O5203 Co5192 2.093 . S
O5203 C5195 1.224 . S
H5204 C5236 0.929 . S
H5205 C5238 0.930 . S
H5206 C5239 0.930 . S
H5207 C5237 0.929 . S
H5208 C5240 0.928 . S
O5209 Co5193 2.056 1_655 S
O5209 C5197 1.231 1_655 S
H5210 C5229 0.929 . S
H5211 C5230 0.929 . S
H5212 C5242 0.931 . S
H5213 C5234 0.929 . S
H5214 C5243 0.930 . S
H5215 C5235 0.931 . S
O5216 Co5192 2.097 . S
O5216 C5244 1.214 . S
H5217 C5245 0.929 . S
H5218 C5246 0.929 . S
H5219 C5247 0.930 . S
H5220 C5248 0.929 . S
H5221 C5250 0.930 . S
H5222 C5227 0.930 . S
H5223 C5231 0.930 . S
O5224 Co5193 2.037 . S
O5224 C5244 1.234 . S
C5225 O5199 1.269 . S
C5225 O5200 1.257 . S
C5226 H5201 0.930 1_655 S
C5226 C5229 1.388 1_655 S
C5226 C5231 1.418 . S
C5227 H5222 0.930 . S
C5227 C5230 1.404 . S
C5227 C5231 1.353 . S
N5228 Co5193 2.145 1_655 S
N5228 C5229 1.397 1_655 S
N5228 C5230 1.334 . S
C5229 H5210 0.929 . S
C5229 C5226 1.388 1_455 S
C5229 N5228 1.397 1_455 S
C5230 H5211 0.929 . S
C5230 C5227 1.404 . S
C5230 N5228 1.334 . S
C5231 H5223 0.930 . S
C5231 C5226 1.418 . S
C5231 C5227 1.353 . S
C5232 H5202 0.930 . S
C5232 N5233 1.330 . S
C5232 C5234 1.446 . S
N5233 Co5192 2.151 . S
N5233 C5232 1.330 . S
N5233 C5237 1.418 . S
C5234 H5213 0.929 . S
C5234 C5232 1.446 . S
C5234 C5235 1.332 . S
C5235 H5215 0.931 . S
C5235 C5234 1.332 . S
C5235 C5236 1.267 . S
C5236 H5204 0.929 . S
C5236 C5235 1.267 . S
C5236 C5237 1.251 . S
C5237 H5207 0.929 . S
C5237 N5233 1.418 . S
C5237 C5236 1.251 . S
C5238 H5205 0.930 . S
C5238 C5240 1.406 . S
C5238 C5243 1.261 . S
C5239 H5206 0.930 . S
C5239 N5241 1.325 . S
C5239 C5242 1.357 . S
C5240 H5208 0.928 . S
C5240 C5238 1.406 . S
C5240 N5241 1.261 . S
N5241 Co5192 2.214 . S
N5241 C5239 1.325 . S
N5241 C5240 1.261 . S
C5242 H5212 0.931 . S
C5242 C5239 1.357 . S
C5242 C5243 1.312 . S
C5243 H5214 0.930 . S
C5243 C5238 1.261 . S
C5243 C5242 1.312 . S
C5244 O5216 1.214 . S
C5244 O5224 1.234 . S
C5245 H5217 0.929 . S
C5245 C5248 1.391 . S
C5245 C5250 1.391 . S
C5246 H5218 0.929 . S
C5246 C5247 1.390 . S
C5246 N5249 1.391 . S
C5247 H5219 0.930 . S
C5247 C5246 1.390 . S
C5247 C5248 1.392 . S
C5248 H5220 0.929 . S
C5248 C5245 1.391 . S
C5248 C5247 1.392 . S
N5249 Co5193 2.257 1_655 S
N5249 C5246 1.391 . S
N5249 C5250 1.388 . S
C5250 H5221 0.930 . S
C5250 C5245 1.391 . S
C5250 N5249 1.388 . S
Co5251 O5253 2.143 . S
Co5251 O5259 2.074 . S
Co5251 O5262 2.093 . S
Co5251 O5275 2.097 . S
Co5251 N5292 2.151 . S
Co5251 N5300 2.214 . S
Co5252 O5253 2.160 . S
Co5252 O5258 2.058 . S
Co5252 O5268 2.057 . S
Co5252 O5283 2.037 . S
Co5252 N5287 2.145 . S
Co5252 N5308 2.257 . S
O5253 Co5251 2.143 . S
O5253 Co5252 2.160 . S
C5254 O5255 1.278 . S
C5254 O5262 1.224 . S
O5255 C5254 1.278 . S
C5256 O5257 1.245 . S
C5256 O5268 1.232 . S
O5257 C5256 1.245 . S
O5258 Co5252 2.058 . S
O5258 C5284 1.269 . S
O5259 Co5251 2.074 . S
O5259 C5284 1.257 . S
H5260 C5285 0.930 . S
H5261 C5291 0.930 . S
O5262 Co5251 2.093 . S
O5262 C5254 1.224 . S
H5263 C5295 0.929 . S
H5264 C5297 0.930 . S
H5265 C5298 0.930 . S
H5266 C5296 0.929 . S
H5267 C5299 0.928 . S
O5268 Co5252 2.057 . S
O5268 C5256 1.232 . S
H5269 C5288 0.929 . S
H5270 C5289 0.929 . S
H5271 C5301 0.931 . S
H5272 C5293 0.929 . S
H5273 C5302 0.930 . S
H5274 C5294 0.931 . S
O5275 Co5251 2.097 . S
O5275 C5303 1.214 . S
H5276 C5304 0.929 . S
H5277 C5305 0.929 . S
H5278 C5306 0.930 . S
H5279 C5307 0.929 . S
H5280 C5309 0.930 . S
H5281 C5286 0.930 . S
H5282 C5290 0.930 . S
O5283 Co5252 2.037 . S
O5283 C5303 1.234 . S
C5284 O5258 1.269 . S
C5284 O5259 1.257 . S
C5285 H5260 0.930 . S
C5285 C5288 1.388 . S
C5285 C5290 1.418 . S
C5286 H5281 0.930 . S
C5286 C5289 1.404 . S
C5286 C5290 1.353 . S
N5287 Co5252 2.145 . S
N5287 C5288 1.397 . S
N5287 C5289 1.334 . S
C5288 H5269 0.929 . S
C5288 C5285 1.388 . S
C5288 N5287 1.397 . S
C5289 H5270 0.929 . S
C5289 C5286 1.404 . S
C5289 N5287 1.334 . S
C5290 H5282 0.930 . S
C5290 C5285 1.418 . S
C5290 C5286 1.353 . S
C5291 H5261 0.930 . S
C5291 N5292 1.330 . S
C5291 C5293 1.446 . S
N5292 Co5251 2.151 . S
N5292 C5291 1.330 . S
N5292 C5296 1.418 . S
C5293 H5272 0.929 . S
C5293 C5291 1.446 . S
C5293 C5294 1.332 . S
C5294 H5274 0.931 . S
C5294 C5293 1.332 . S
C5294 C5295 1.267 . S
C5295 H5263 0.929 . S
C5295 C5294 1.267 . S
C5295 C5296 1.251 . S
C5296 H5266 0.929 . S
C5296 N5292 1.418 . S
C5296 C5295 1.251 . S
C5297 H5264 0.930 . S
C5297 C5299 1.406 . S
C5297 C5302 1.261 . S
C5298 H5265 0.930 . S
C5298 N5300 1.325 . S
C5298 C5301 1.357 . S
C5299 H5267 0.928 . S
C5299 C5297 1.406 . S
C5299 N5300 1.261 . S
N5300 Co5251 2.214 . S
N5300 C5298 1.325 . S
N5300 C5299 1.261 . S
C5301 H5271 0.931 . S
C5301 C5298 1.357 . S
C5301 C5302 1.312 . S
C5302 H5273 0.930 . S
C5302 C5297 1.261 . S
C5302 C5301 1.312 . S
C5303 O5275 1.214 . S
C5303 O5283 1.234 . S
C5304 H5276 0.929 . S
C5304 C5307 1.391 . S
C5304 C5309 1.391 . S
C5305 H5277 0.929 . S
C5305 C5306 1.390 . S
C5305 N5308 1.391 . S
C5306 H5278 0.930 . S
C5306 C5305 1.390 . S
C5306 C5307 1.392 . S
C5307 H5279 0.929 . S
C5307 C5304 1.391 . S
C5307 C5306 1.392 . S
N5308 Co5252 2.257 . S
N5308 C5305 1.391 . S
N5308 C5309 1.388 . S
C5309 H5280 0.930 . S
C5309 C5304 1.391 . S
C5309 N5308 1.388 . S
Co5310 O5312 2.143 . S
Co5310 O5318 2.074 . S
Co5310 O5321 2.093 . S
Co5310 O5334 2.097 . S
Co5310 N5351 2.151 . S
Co5310 N5359 2.214 . S
Co5311 O5312 2.160 . S
Co5311 O5317 2.058 . S
Co5311 O5327 2.057 . S
Co5311 O5342 2.037 . S
Co5311 N5346 2.145 . S
Co5311 N5367 2.257 . S
O5312 Co5310 2.143 . S
O5312 Co5311 2.160 . S
C5313 O5314 1.278 . S
C5313 O5321 1.224 . S
O5314 C5313 1.278 . S
C5315 O5316 1.245 . S
C5315 O5327 1.232 . S
O5316 C5315 1.245 . S
O5317 Co5311 2.058 . S
O5317 C5343 1.269 . S
O5318 Co5310 2.074 . S
O5318 C5343 1.257 . S
H5319 C5344 0.930 . S
H5320 C5350 0.930 . S
O5321 Co5310 2.093 . S
O5321 C5313 1.224 . S
H5322 C5354 0.929 . S
H5323 C5356 0.930 . S
H5324 C5357 0.930 . S
H5325 C5355 0.929 . S
H5326 C5358 0.928 . S
O5327 Co5311 2.057 . S
O5327 C5315 1.232 . S
H5328 C5347 0.929 . S
H5329 C5348 0.929 . S
H5330 C5360 0.931 . S
H5331 C5352 0.929 . S
H5332 C5361 0.930 . S
H5333 C5353 0.931 . S
O5334 Co5310 2.097 . S
O5334 C5362 1.214 . S
H5335 C5363 0.929 . S
H5336 C5364 0.929 . S
H5337 C5365 0.930 . S
H5338 C5366 0.929 . S
H5339 C5368 0.930 . S
H5340 C5345 0.930 . S
H5341 C5349 0.930 . S
O5342 Co5311 2.037 . S
O5342 C5362 1.234 . S
C5343 O5317 1.269 . S
C5343 O5318 1.257 . S
C5344 H5319 0.930 . S
C5344 C5347 1.388 . S
C5344 C5349 1.418 . S
C5345 H5340 0.930 . S
C5345 C5348 1.404 . S
C5345 C5349 1.353 . S
N5346 Co5311 2.145 . S
N5346 C5347 1.397 . S
N5346 C5348 1.334 . S
C5347 H5328 0.929 . S
C5347 C5344 1.388 . S
C5347 N5346 1.397 . S
C5348 H5329 0.929 . S
C5348 C5345 1.404 . S
C5348 N5346 1.334 . S
C5349 H5341 0.930 . S
C5349 C5344 1.418 . S
C5349 C5345 1.353 . S
C5350 H5320 0.930 . S
C5350 N5351 1.330 . S
C5350 C5352 1.446 . S
N5351 Co5310 2.151 . S
N5351 C5350 1.330 . S
N5351 C5355 1.418 . S
C5352 H5331 0.929 . S
C5352 C5350 1.446 . S
C5352 C5353 1.332 . S
C5353 H5333 0.931 . S
C5353 C5352 1.332 . S
C5353 C5354 1.267 . S
C5354 H5322 0.929 . S
C5354 C5353 1.267 . S
C5354 C5355 1.251 . S
C5355 H5325 0.929 . S
C5355 N5351 1.418 . S
C5355 C5354 1.251 . S
C5356 H5323 0.930 . S
C5356 C5358 1.406 . S
C5356 C5361 1.261 . S
C5357 H5324 0.930 . S
C5357 N5359 1.325 . S
C5357 C5360 1.357 . S
C5358 H5326 0.928 . S
C5358 C5356 1.406 . S
C5358 N5359 1.261 . S
N5359 Co5310 2.214 . S
N5359 C5357 1.325 . S
N5359 C5358 1.261 . S
C5360 H5330 0.931 . S
C5360 C5357 1.357 . S
C5360 C5361 1.312 . S
C5361 H5332 0.930 . S
C5361 C5356 1.261 . S
C5361 C5360 1.312 . S
C5362 O5334 1.214 . S
C5362 O5342 1.234 . S
C5363 H5335 0.929 . S
C5363 C5366 1.391 . S
C5363 C5368 1.391 . S
C5364 H5336 0.929 . S
C5364 C5365 1.390 . S
C5364 N5367 1.391 . S
C5365 H5337 0.930 . S
C5365 C5364 1.390 . S
C5365 C5366 1.392 . S
C5366 H5338 0.929 . S
C5366 C5363 1.391 . S
C5366 C5365 1.392 . S
N5367 Co5311 2.257 . S
N5367 C5364 1.391 . S
N5367 C5368 1.388 . S
C5368 H5339 0.930 . S
C5368 C5363 1.391 . S
C5368 N5367 1.388 . S
Co5369 O5371 2.143 . S
Co5369 O5377 2.074 . S
Co5369 O5380 2.093 . S
Co5369 O5393 2.097 . S
Co5369 N5410 2.151 . S
Co5369 N5418 2.214 . S
Co5370 O5371 2.160 . S
Co5370 O5376 2.058 . S
Co5370 O5386 2.057 . S
Co5370 O5401 2.037 . S
Co5370 N5405 2.145 . S
Co5370 N5426 2.257 . S
O5371 Co5369 2.143 . S
O5371 Co5370 2.160 . S
C5372 O5373 1.278 . S
C5372 O5380 1.224 . S
O5373 C5372 1.278 . S
C5374 O5375 1.245 . S
C5374 O5386 1.232 . S
O5375 C5374 1.245 . S
O5376 Co5370 2.058 . S
O5376 C5402 1.269 . S
O5377 Co5369 2.074 . S
O5377 C5402 1.257 . S
H5378 C5403 0.930 . S
H5379 C5409 0.930 . S
O5380 Co5369 2.093 . S
O5380 C5372 1.224 . S
H5381 C5413 0.929 . S
H5382 C5415 0.930 . S
H5383 C5416 0.930 . S
H5384 C5414 0.929 . S
H5385 C5417 0.928 . S
O5386 Co5370 2.057 . S
O5386 C5374 1.232 . S
H5387 C5406 0.929 . S
H5388 C5407 0.929 . S
H5389 C5419 0.931 . S
H5390 C5411 0.929 . S
H5391 C5420 0.930 . S
H5392 C5412 0.931 . S
O5393 Co5369 2.097 . S
O5393 C5421 1.214 . S
H5394 C5422 0.929 . S
H5395 C5423 0.929 . S
H5396 C5424 0.930 . S
H5397 C5425 0.929 . S
H5398 C5427 0.930 . S
H5399 C5404 0.930 . S
H5400 C5408 0.930 . S
O5401 Co5370 2.037 . S
O5401 C5421 1.234 . S
C5402 O5376 1.269 . S
C5402 O5377 1.257 . S
C5403 H5378 0.930 . S
C5403 C5406 1.388 . S
C5403 C5408 1.418 . S
C5404 H5399 0.930 . S
C5404 C5407 1.404 . S
C5404 C5408 1.353 . S
N5405 Co5370 2.145 . S
N5405 C5406 1.397 . S
N5405 C5407 1.334 . S
C5406 H5387 0.929 . S
C5406 C5403 1.388 . S
C5406 N5405 1.397 . S
C5407 H5388 0.929 . S
C5407 C5404 1.404 . S
C5407 N5405 1.334 . S
C5408 H5400 0.930 . S
C5408 C5403 1.418 . S
C5408 C5404 1.353 . S
C5409 H5379 0.930 . S
C5409 N5410 1.330 . S
C5409 C5411 1.446 . S
N5410 Co5369 2.151 . S
N5410 C5409 1.330 . S
N5410 C5414 1.418 . S
C5411 H5390 0.929 . S
C5411 C5409 1.446 . S
C5411 C5412 1.332 . S
C5412 H5392 0.931 . S
C5412 C5411 1.332 . S
C5412 C5413 1.267 . S
C5413 H5381 0.929 . S
C5413 C5412 1.267 . S
C5413 C5414 1.251 . S
C5414 H5384 0.929 . S
C5414 N5410 1.418 . S
C5414 C5413 1.251 . S
C5415 H5382 0.930 . S
C5415 C5417 1.406 . S
C5415 C5420 1.261 . S
C5416 H5383 0.930 . S
C5416 N5418 1.325 . S
C5416 C5419 1.357 . S
C5417 H5385 0.928 . S
C5417 C5415 1.406 . S
C5417 N5418 1.261 . S
N5418 Co5369 2.214 . S
N5418 C5416 1.325 . S
N5418 C5417 1.261 . S
C5419 H5389 0.931 . S
C5419 C5416 1.357 . S
C5419 C5420 1.312 . S
C5420 H5391 0.930 . S
C5420 C5415 1.261 . S
C5420 C5419 1.312 . S
C5421 O5393 1.214 . S
C5421 O5401 1.234 . S
C5422 H5394 0.929 . S
C5422 C5425 1.391 . S
C5422 C5427 1.391 . S
C5423 H5395 0.929 . S
C5423 C5424 1.390 . S
C5423 N5426 1.391 . S
C5424 H5396 0.930 . S
C5424 C5423 1.390 . S
C5424 C5425 1.392 . S
C5425 H5397 0.929 . S
C5425 C5422 1.391 . S
C5425 C5424 1.392 . S
N5426 Co5370 2.257 . S
N5426 C5423 1.391 . S
N5426 C5427 1.388 . S
C5427 H5398 0.930 . S
C5427 C5422 1.391 . S
C5427 N5426 1.388 . S
Co5428 O5430 2.143 . S
Co5428 O5436 2.074 . S
Co5428 O5439 2.093 . S
Co5428 O5452 2.097 . S
Co5428 N5469 2.151 . S
Co5428 N5477 2.214 . S
Co5429 O5430 2.160 . S
Co5429 O5435 2.058 . S
Co5429 O5445 2.057 . S
Co5429 O5460 2.037 . S
Co5429 N5464 2.145 . S
Co5429 N5485 2.257 . S
O5430 Co5428 2.143 . S
O5430 Co5429 2.160 . S
C5431 O5432 1.278 . S
C5431 O5439 1.224 . S
O5432 C5431 1.278 . S
C5433 O5434 1.245 . S
C5433 O5445 1.232 . S
O5434 C5433 1.245 . S
O5435 Co5429 2.058 . S
O5435 C5461 1.269 . S
O5436 Co5428 2.074 . S
O5436 C5461 1.257 . S
H5437 C5462 0.930 . S
H5438 C5468 0.930 . S
O5439 Co5428 2.093 . S
O5439 C5431 1.224 . S
H5440 C5472 0.929 . S
H5441 C5474 0.930 . S
H5442 C5475 0.930 . S
H5443 C5473 0.929 . S
H5444 C5476 0.928 . S
O5445 Co5429 2.057 . S
O5445 C5433 1.232 . S
H5446 C5465 0.929 . S
H5447 C5466 0.929 . S
H5448 C5478 0.931 . S
H5449 C5470 0.929 . S
H5450 C5479 0.930 . S
H5451 C5471 0.931 . S
O5452 Co5428 2.097 . S
O5452 C5480 1.214 . S
H5453 C5481 0.929 . S
H5454 C5482 0.929 . S
H5455 C5483 0.930 . S
H5456 C5484 0.929 . S
H5457 C5486 0.930 . S
H5458 C5463 0.930 . S
H5459 C5467 0.930 . S
O5460 Co5429 2.037 . S
O5460 C5480 1.234 . S
C5461 O5435 1.269 . S
C5461 O5436 1.257 . S
C5462 H5437 0.930 . S
C5462 C5465 1.388 . S
C5462 C5467 1.418 . S
C5463 H5458 0.930 . S
C5463 C5466 1.404 . S
C5463 C5467 1.353 . S
N5464 Co5429 2.145 . S
N5464 C5465 1.397 . S
N5464 C5466 1.334 . S
C5465 H5446 0.929 . S
C5465 C5462 1.388 . S
C5465 N5464 1.397 . S
C5466 H5447 0.929 . S
C5466 C5463 1.404 . S
C5466 N5464 1.334 . S
C5467 H5459 0.930 . S
C5467 C5462 1.418 . S
C5467 C5463 1.353 . S
C5468 H5438 0.930 . S
C5468 N5469 1.330 . S
C5468 C5470 1.446 . S
N5469 Co5428 2.151 . S
N5469 C5468 1.330 . S
N5469 C5473 1.418 . S
C5470 H5449 0.929 . S
C5470 C5468 1.446 . S
C5470 C5471 1.332 . S
C5471 H5451 0.931 . S
C5471 C5470 1.332 . S
C5471 C5472 1.267 . S
C5472 H5440 0.929 . S
C5472 C5471 1.267 . S
C5472 C5473 1.251 . S
C5473 H5443 0.929 . S
C5473 N5469 1.418 . S
C5473 C5472 1.251 . S
C5474 H5441 0.930 . S
C5474 C5476 1.406 . S
C5474 C5479 1.261 . S
C5475 H5442 0.930 . S
C5475 N5477 1.325 . S
C5475 C5478 1.357 . S
C5476 H5444 0.928 . S
C5476 C5474 1.406 . S
C5476 N5477 1.261 . S
N5477 Co5428 2.214 . S
N5477 C5475 1.325 . S
N5477 C5476 1.261 . S
C5478 H5448 0.931 . S
C5478 C5475 1.357 . S
C5478 C5479 1.312 . S
C5479 H5450 0.930 . S
C5479 C5474 1.261 . S
C5479 C5478 1.312 . S
C5480 O5452 1.214 . S
C5480 O5460 1.234 . S
C5481 H5453 0.929 . S
C5481 C5484 1.391 . S
C5481 C5486 1.391 . S
C5482 H5454 0.929 . S
C5482 C5483 1.390 . S
C5482 N5485 1.391 . S
C5483 H5455 0.930 . S
C5483 C5482 1.390 . S
C5483 C5484 1.392 . S
C5484 H5456 0.929 . S
C5484 C5481 1.391 . S
C5484 C5483 1.392 . S
N5485 Co5429 2.257 . S
N5485 C5482 1.391 . S
N5485 C5486 1.388 . S
C5486 H5457 0.930 . S
C5486 C5481 1.391 . S
C5486 N5485 1.388 . S
Co5487 O5489 2.143 . S
Co5487 O5495 2.074 . S
Co5487 O5498 2.093 . S
Co5487 O5511 2.097 . S
Co5487 N5528 2.151 . S
Co5487 N5536 2.214 . S
Co5488 O5489 2.160 . S
Co5488 O5494 2.058 . S
Co5488 O5504 2.056 1_655 S
Co5488 O5519 2.037 . S
Co5488 N5523 2.145 1_655 S
Co5488 N5544 2.257 1_655 S
O5489 Co5487 2.143 . S
O5489 Co5488 2.160 . S
C5490 O5491 1.278 . S
C5490 O5498 1.224 . S
O5491 C5490 1.278 . S
C5492 O5493 1.245 . S
C5492 O5504 1.231 1_655 S
O5493 C5492 1.245 . S
O5494 Co5488 2.058 . S
O5494 C5520 1.269 . S
O5495 Co5487 2.074 . S
O5495 C5520 1.257 . S
H5496 C5521 0.930 1_655 S
H5497 C5527 0.930 . S
O5498 Co5487 2.093 . S
O5498 C5490 1.224 . S
H5499 C5531 0.929 . S
H5500 C5533 0.930 . S
H5501 C5534 0.930 . S
H5502 C5532 0.929 . S
H5503 C5535 0.928 . S
O5504 Co5488 2.056 1_455 S
O5504 C5492 1.231 1_455 S
H5505 C5524 0.929 . S
H5506 C5525 0.929 . S
H5507 C5537 0.931 . S
H5508 C5529 0.929 . S
H5509 C5538 0.930 . S
H5510 C5530 0.931 . S
O5511 Co5487 2.097 . S
O5511 C5539 1.214 . S
H5512 C5540 0.929 . S
H5513 C5541 0.929 . S
H5514 C5542 0.930 . S
H5515 C5543 0.929 . S
H5516 C5545 0.930 . S
H5517 C5522 0.930 . S
H5518 C5526 0.930 . S
O5519 Co5488 2.037 . S
O5519 C5539 1.234 . S
C5520 O5494 1.269 . S
C5520 O5495 1.257 . S
C5521 H5496 0.930 1_455 S
C5521 C5524 1.388 1_455 S
C5521 C5526 1.418 . S
C5522 H5517 0.930 . S
C5522 C5525 1.404 . S
C5522 C5526 1.353 . S
N5523 Co5488 2.145 1_455 S
N5523 C5524 1.397 1_455 S
N5523 C5525 1.334 . S
C5524 H5505 0.929 . S
C5524 C5521 1.388 1_655 S
C5524 N5523 1.397 1_655 S
C5525 H5506 0.929 . S
C5525 C5522 1.404 . S
C5525 N5523 1.334 . S
C5526 H5518 0.930 . S
C5526 C5521 1.418 . S
C5526 C5522 1.353 . S
C5527 H5497 0.930 . S
C5527 N5528 1.330 . S
C5527 C5529 1.446 . S
N5528 Co5487 2.151 . S
N5528 C5527 1.330 . S
N5528 C5532 1.418 . S
C5529 H5508 0.929 . S
C5529 C5527 1.446 . S
C5529 C5530 1.332 . S
C5530 H5510 0.931 . S
C5530 C5529 1.332 . S
C5530 C5531 1.267 . S
C5531 H5499 0.929 . S
C5531 C5530 1.267 . S
C5531 C5532 1.251 . S
C5532 H5502 0.929 . S
C5532 N5528 1.418 . S
C5532 C5531 1.251 . S
C5533 H5500 0.930 . S
C5533 C5535 1.406 . S
C5533 C5538 1.261 . S
C5534 H5501 0.930 . S
C5534 N5536 1.325 . S
C5534 C5537 1.357 . S
C5535 H5503 0.928 . S
C5535 C5533 1.406 . S
C5535 N5536 1.261 . S
N5536 Co5487 2.214 . S
N5536 C5534 1.325 . S
N5536 C5535 1.261 . S
C5537 H5507 0.931 . S
C5537 C5534 1.357 . S
C5537 C5538 1.312 . S
C5538 H5509 0.930 . S
C5538 C5533 1.261 . S
C5538 C5537 1.312 . S
C5539 O5511 1.214 . S
C5539 O5519 1.234 . S
C5540 H5512 0.929 . S
C5540 C5543 1.391 . S
C5540 C5545 1.391 . S
C5541 H5513 0.929 . S
C5541 C5542 1.390 . S
C5541 N5544 1.391 . S
C5542 H5514 0.930 . S
C5542 C5541 1.390 . S
C5542 C5543 1.392 . S
C5543 H5515 0.929 . S
C5543 C5540 1.391 . S
C5543 C5542 1.392 . S
N5544 Co5488 2.257 1_455 S
N5544 C5541 1.391 . S
N5544 C5545 1.388 . S
C5545 H5516 0.930 . S
C5545 C5540 1.391 . S
C5545 N5544 1.388 . S
Co5546 O5548 2.143 . S
Co5546 O5554 2.074 . S
Co5546 O5557 2.093 . S
Co5546 O5570 2.097 . S
Co5546 N5587 2.151 . S
Co5546 N5595 2.214 . S
Co5547 O5548 2.160 . S
Co5547 O5553 2.058 . S
Co5547 O5563 2.057 . S
Co5547 O5578 2.037 . S
Co5547 N5582 2.145 . S
Co5547 N5603 2.257 . S
O5548 Co5546 2.143 . S
O5548 Co5547 2.160 . S
C5549 O5550 1.278 . S
C5549 O5557 1.224 . S
O5550 C5549 1.278 . S
C5551 O5552 1.245 . S
C5551 O5563 1.232 . S
O5552 C5551 1.245 . S
O5553 Co5547 2.058 . S
O5553 C5579 1.269 . S
O5554 Co5546 2.074 . S
O5554 C5579 1.257 . S
H5555 C5580 0.930 . S
H5556 C5586 0.930 . S
O5557 Co5546 2.093 . S
O5557 C5549 1.224 . S
H5558 C5590 0.929 . S
H5559 C5592 0.930 . S
H5560 C5593 0.930 . S
H5561 C5591 0.929 . S
H5562 C5594 0.928 . S
O5563 Co5547 2.057 . S
O5563 C5551 1.232 . S
H5564 C5583 0.929 . S
H5565 C5584 0.929 . S
H5566 C5596 0.931 . S
H5567 C5588 0.929 . S
H5568 C5597 0.930 . S
H5569 C5589 0.931 . S
O5570 Co5546 2.097 . S
O5570 C5598 1.214 . S
H5571 C5599 0.929 . S
H5572 C5600 0.929 . S
H5573 C5601 0.930 . S
H5574 C5602 0.929 . S
H5575 C5604 0.930 . S
H5576 C5581 0.930 . S
H5577 C5585 0.930 . S
O5578 Co5547 2.037 . S
O5578 C5598 1.234 . S
C5579 O5553 1.269 . S
C5579 O5554 1.257 . S
C5580 H5555 0.930 . S
C5580 C5583 1.388 . S
C5580 C5585 1.418 . S
C5581 H5576 0.930 . S
C5581 C5584 1.404 . S
C5581 C5585 1.353 . S
N5582 Co5547 2.145 . S
N5582 C5583 1.397 . S
N5582 C5584 1.334 . S
C5583 H5564 0.929 . S
C5583 C5580 1.388 . S
C5583 N5582 1.397 . S
C5584 H5565 0.929 . S
C5584 C5581 1.404 . S
C5584 N5582 1.334 . S
C5585 H5577 0.930 . S
C5585 C5580 1.418 . S
C5585 C5581 1.353 . S
C5586 H5556 0.930 . S
C5586 N5587 1.330 . S
C5586 C5588 1.446 . S
N5587 Co5546 2.151 . S
N5587 C5586 1.330 . S
N5587 C5591 1.418 . S
C5588 H5567 0.929 . S
C5588 C5586 1.446 . S
C5588 C5589 1.332 . S
C5589 H5569 0.931 . S
C5589 C5588 1.332 . S
C5589 C5590 1.267 . S
C5590 H5558 0.929 . S
C5590 C5589 1.267 . S
C5590 C5591 1.251 . S
C5591 H5561 0.929 . S
C5591 N5587 1.418 . S
C5591 C5590 1.251 . S
C5592 H5559 0.930 . S
C5592 C5594 1.406 . S
C5592 C5597 1.261 . S
C5593 H5560 0.930 . S
C5593 N5595 1.325 . S
C5593 C5596 1.357 . S
C5594 H5562 0.928 . S
C5594 C5592 1.406 . S
C5594 N5595 1.261 . S
N5595 Co5546 2.214 . S
N5595 C5593 1.325 . S
N5595 C5594 1.261 . S
C5596 H5566 0.931 . S
C5596 C5593 1.357 . S
C5596 C5597 1.312 . S
C5597 H5568 0.930 . S
C5597 C5592 1.261 . S
C5597 C5596 1.312 . S
C5598 O5570 1.214 . S
C5598 O5578 1.234 . S
C5599 H5571 0.929 . S
C5599 C5602 1.391 . S
C5599 C5604 1.391 . S
C5600 H5572 0.929 . S
C5600 C5601 1.390 . S
C5600 N5603 1.391 . S
C5601 H5573 0.930 . S
C5601 C5600 1.390 . S
C5601 C5602 1.392 . S
C5602 H5574 0.929 . S
C5602 C5599 1.391 . S
C5602 C5601 1.392 . S
N5603 Co5547 2.257 . S
N5603 C5600 1.391 . S
N5603 C5604 1.388 . S
C5604 H5575 0.930 . S
C5604 C5599 1.391 . S
C5604 N5603 1.388 . S
Co5605 O5607 2.143 . S
Co5605 O5613 2.074 . S
Co5605 O5616 2.093 . S
Co5605 O5629 2.097 . S
Co5605 N5646 2.151 . S
Co5605 N5654 2.214 . S
Co5606 O5607 2.160 . S
Co5606 O5612 2.058 . S
Co5606 O5622 2.057 . S
Co5606 O5637 2.037 . S
Co5606 N5641 2.145 . S
Co5606 N5662 2.257 . S
O5607 Co5605 2.143 . S
O5607 Co5606 2.160 . S
C5608 O5609 1.278 . S
C5608 O5616 1.224 . S
O5609 C5608 1.278 . S
C5610 O5611 1.245 . S
C5610 O5622 1.232 . S
O5611 C5610 1.245 . S
O5612 Co5606 2.058 . S
O5612 C5638 1.269 . S
O5613 Co5605 2.074 . S
O5613 C5638 1.257 . S
H5614 C5639 0.930 . S
H5615 C5645 0.930 . S
O5616 Co5605 2.093 . S
O5616 C5608 1.224 . S
H5617 C5649 0.929 . S
H5618 C5651 0.930 . S
H5619 C5652 0.930 . S
H5620 C5650 0.929 . S
H5621 C5653 0.928 . S
O5622 Co5606 2.057 . S
O5622 C5610 1.232 . S
H5623 C5642 0.929 . S
H5624 C5643 0.929 . S
H5625 C5655 0.931 . S
H5626 C5647 0.929 . S
H5627 C5656 0.930 . S
H5628 C5648 0.931 . S
O5629 Co5605 2.097 . S
O5629 C5657 1.214 . S
H5630 C5658 0.929 . S
H5631 C5659 0.929 . S
H5632 C5660 0.930 . S
H5633 C5661 0.929 . S
H5634 C5663 0.930 . S
H5635 C5640 0.930 . S
H5636 C5644 0.930 . S
O5637 Co5606 2.037 . S
O5637 C5657 1.234 . S
C5638 O5612 1.269 . S
C5638 O5613 1.257 . S
C5639 H5614 0.930 . S
C5639 C5642 1.388 . S
C5639 C5644 1.418 . S
C5640 H5635 0.930 . S
C5640 C5643 1.404 . S
C5640 C5644 1.353 . S
N5641 Co5606 2.145 . S
N5641 C5642 1.397 . S
N5641 C5643 1.334 . S
C5642 H5623 0.929 . S
C5642 C5639 1.388 . S
C5642 N5641 1.397 . S
C5643 H5624 0.929 . S
C5643 C5640 1.404 . S
C5643 N5641 1.334 . S
C5644 H5636 0.930 . S
C5644 C5639 1.418 . S
C5644 C5640 1.353 . S
C5645 H5615 0.930 . S
C5645 N5646 1.330 . S
C5645 C5647 1.446 . S
N5646 Co5605 2.151 . S
N5646 C5645 1.330 . S
N5646 C5650 1.418 . S
C5647 H5626 0.929 . S
C5647 C5645 1.446 . S
C5647 C5648 1.332 . S
C5648 H5628 0.931 . S
C5648 C5647 1.332 . S
C5648 C5649 1.267 . S
C5649 H5617 0.929 . S
C5649 C5648 1.267 . S
C5649 C5650 1.251 . S
C5650 H5620 0.929 . S
C5650 N5646 1.418 . S
C5650 C5649 1.251 . S
C5651 H5618 0.930 . S
C5651 C5653 1.406 . S
C5651 C5656 1.261 . S
C5652 H5619 0.930 . S
C5652 N5654 1.325 . S
C5652 C5655 1.357 . S
C5653 H5621 0.928 . S
C5653 C5651 1.406 . S
C5653 N5654 1.261 . S
N5654 Co5605 2.214 . S
N5654 C5652 1.325 . S
N5654 C5653 1.261 . S
C5655 H5625 0.931 . S
C5655 C5652 1.357 . S
C5655 C5656 1.312 . S
C5656 H5627 0.930 . S
C5656 C5651 1.261 . S
C5656 C5655 1.312 . S
C5657 O5629 1.214 . S
C5657 O5637 1.234 . S
C5658 H5630 0.929 . S
C5658 C5661 1.391 . S
C5658 C5663 1.391 . S
C5659 H5631 0.929 . S
C5659 C5660 1.390 . S
C5659 N5662 1.391 . S
C5660 H5632 0.930 . S
C5660 C5659 1.390 . S
C5660 C5661 1.392 . S
C5661 H5633 0.929 . S
C5661 C5658 1.391 . S
C5661 C5660 1.392 . S
N5662 Co5606 2.257 . S
N5662 C5659 1.391 . S
N5662 C5663 1.388 . S
C5663 H5634 0.930 . S
C5663 C5658 1.391 . S
C5663 N5662 1.388 . S
C5664 C5665 1.363 . S
C5664 C5670 1.379 . S
C5664 N5672 1.356 . S
C5665 C5664 1.363 . S
C5665 C5671 1.363 . S
C5666 C5667 1.363 . S
C5666 C5671 1.379 . S
C5666 N5673 1.356 . S
C5667 C5666 1.363 . S
C5667 C5670 1.363 . S
N5668 C5670 1.356 . S
N5668 H5680 0.984 . S
N5668 H5681 0.985 . S
N5669 C5671 1.356 . S
N5669 H5674 0.984 . S
N5669 H5675 0.985 . S
C5670 C5664 1.379 . S
C5670 C5667 1.363 . S
C5670 N5668 1.356 . S
C5671 C5665 1.363 . S
C5671 C5666 1.379 . S
C5671 N5669 1.356 . S
N5672 C5664 1.356 . S
N5672 H5678 0.984 . S
N5672 H5679 0.984 . S
N5673 C5666 1.356 . S
N5673 H5676 0.984 . S
N5673 H5677 0.985 . S
H5674 N5669 0.984 . S
H5675 N5669 0.985 . S
H5676 N5673 0.984 . S
H5677 N5673 0.985 . S
H5678 N5672 0.984 . S
H5679 N5672 0.984 . S
H5680 N5668 0.984 . S
H5681 N5668 0.985 . S
C5682 C5683 1.363 . S
C5682 C5688 1.379 . S
C5682 N5690 1.356 . S
C5683 C5682 1.363 . S
C5683 C5689 1.363 . S
C5684 C5685 1.363 . S
C5684 C5689 1.379 . S
C5684 N5691 1.356 . S
C5685 C5684 1.363 . S
C5685 C5688 1.363 . S
N5686 C5688 1.356 . S
N5686 H5698 0.984 . S
N5686 H5699 0.985 . S
N5687 C5689 1.356 . S
N5687 H5692 0.984 . S
N5687 H5693 0.985 . S
C5688 C5682 1.379 . S
C5688 C5685 1.363 . S
C5688 N5686 1.356 . S
C5689 C5683 1.363 . S
C5689 C5684 1.379 . S
C5689 N5687 1.356 . S
N5690 C5682 1.356 . S
N5690 H5696 0.984 . S
N5690 H5697 0.984 . S
N5691 C5684 1.356 . S
N5691 H5694 0.984 . S
N5691 H5695 0.985 . S
H5692 N5687 0.984 . S
H5693 N5687 0.985 . S
H5694 N5691 0.984 . S
H5695 N5691 0.985 . S
H5696 N5690 0.984 . S
H5697 N5690 0.984 . S
H5698 N5686 0.984 . S
H5699 N5686 0.985 . S
C5700 C5701 1.363 . S
C5700 C5706 1.379 . S
C5700 N5708 1.356 . S
C5701 C5700 1.363 . S
C5701 C5707 1.363 . S
C5702 C5703 1.363 . S
C5702 C5707 1.379 . S
C5702 N5709 1.356 . S
C5703 C5702 1.363 . S
C5703 C5706 1.363 . S
N5704 C5706 1.356 . S
N5704 H5716 0.984 . S
N5704 H5717 0.985 . S
N5705 C5707 1.356 . S
N5705 H5710 0.984 . S
N5705 H5711 0.985 . S
C5706 C5700 1.379 . S
C5706 C5703 1.363 . S
C5706 N5704 1.356 . S
C5707 C5701 1.363 . S
C5707 C5702 1.379 . S
C5707 N5705 1.356 . S
N5708 C5700 1.356 . S
N5708 H5714 0.984 . S
N5708 H5715 0.984 . S
N5709 C5702 1.356 . S
N5709 H5712 0.984 . S
N5709 H5713 0.985 . S
H5710 N5705 0.984 . S
H5711 N5705 0.985 . S
H5712 N5709 0.984 . S
H5713 N5709 0.985 . S
H5714 N5708 0.984 . S
H5715 N5708 0.984 . S
H5716 N5704 0.984 . S
H5717 N5704 0.985 . S
C5718 C5719 1.363 . S
C5718 C5724 1.379 . S
C5718 N5726 1.356 . S
C5719 C5718 1.363 . S
C5719 C5725 1.363 . S
C5720 C5721 1.363 . S
C5720 C5725 1.379 . S
C5720 N5727 1.356 . S
C5721 C5720 1.363 . S
C5721 C5724 1.363 . S
N5722 C5724 1.356 . S
N5722 H5734 0.984 . S
N5722 H5735 0.985 . S
N5723 C5725 1.356 . S
N5723 H5728 0.984 . S
N5723 H5729 0.985 . S
C5724 C5718 1.379 . S
C5724 C5721 1.363 . S
C5724 N5722 1.356 . S
C5725 C5719 1.363 . S
C5725 C5720 1.379 . S
C5725 N5723 1.356 . S
N5726 C5718 1.356 . S
N5726 H5732 0.984 . S
N5726 H5733 0.984 . S
N5727 C5720 1.356 . S
N5727 H5730 0.984 . S
N5727 H5731 0.985 . S
H5728 N5723 0.984 . S
H5729 N5723 0.985 . S
H5730 N5727 0.984 . S
H5731 N5727 0.985 . S
H5732 N5726 0.984 . S
H5733 N5726 0.984 . S
H5734 N5722 0.984 . S
H5735 N5722 0.985 . S
C5736 C5737 1.363 . S
C5736 C5742 1.379 . S
C5736 N5744 1.356 . S
C5737 C5736 1.363 . S
C5737 C5743 1.363 . S
C5738 C5739 1.363 . S
C5738 C5743 1.379 . S
C5738 N5745 1.356 . S
C5739 C5738 1.363 . S
C5739 C5742 1.363 . S
N5740 C5742 1.356 . S
N5740 H5752 0.984 . S
N5740 H5753 0.985 . S
N5741 C5743 1.356 . S
N5741 H5746 0.984 . S
N5741 H5747 0.985 . S
C5742 C5736 1.379 . S
C5742 C5739 1.363 . S
C5742 N5740 1.356 . S
C5743 C5737 1.363 . S
C5743 C5738 1.379 . S
C5743 N5741 1.356 . S
N5744 C5736 1.356 . S
N5744 H5750 0.984 . S
N5744 H5751 0.984 . S
N5745 C5738 1.356 . S
N5745 H5748 0.984 . S
N5745 H5749 0.985 . S
H5746 N5741 0.984 . S
H5747 N5741 0.985 . S
H5748 N5745 0.984 . S
H5749 N5745 0.985 . S
H5750 N5744 0.984 . S
H5751 N5744 0.984 . S
H5752 N5740 0.984 . S
H5753 N5740 0.985 . S
C5754 C5755 1.363 . S
C5754 C5760 1.379 . S
C5754 N5762 1.356 . S
C5755 C5754 1.363 . S
C5755 C5761 1.363 . S
C5756 C5757 1.363 . S
C5756 C5761 1.379 . S
C5756 N5763 1.356 . S
C5757 C5756 1.363 . S
C5757 C5760 1.363 . S
N5758 C5760 1.356 . S
N5758 H5770 0.984 . S
N5758 H5771 0.985 . S
N5759 C5761 1.356 . S
N5759 H5764 0.984 . S
N5759 H5765 0.985 . S
C5760 C5754 1.379 . S
C5760 C5757 1.363 . S
C5760 N5758 1.356 . S
C5761 C5755 1.363 . S
C5761 C5756 1.379 . S
C5761 N5759 1.356 . S
N5762 C5754 1.356 . S
N5762 H5768 0.984 . S
N5762 H5769 0.984 . S
N5763 C5756 1.356 . S
N5763 H5766 0.984 . S
N5763 H5767 0.985 . S
H5764 N5759 0.984 . S
H5765 N5759 0.985 . S
H5766 N5763 0.984 . S
H5767 N5763 0.985 . S
H5768 N5762 0.984 . S
H5769 N5762 0.984 . S
H5770 N5758 0.984 . S
H5771 N5758 0.985 . S
C5772 C5773 1.363 . S
C5772 C5778 1.379 . S
C5772 N5780 1.356 . S
C5773 C5772 1.363 . S
C5773 C5779 1.363 . S
C5774 C5775 1.363 . S
C5774 C5779 1.379 . S
C5774 N5781 1.356 . S
C5775 C5774 1.363 . S
C5775 C5778 1.363 . S
N5776 C5778 1.356 . S
N5776 H5788 0.984 . S
N5776 H5789 0.985 . S
N5777 C5779 1.356 . S
N5777 H5782 0.984 . S
N5777 H5783 0.985 . S
C5778 C5772 1.379 . S
C5778 C5775 1.363 . S
C5778 N5776 1.356 . S
C5779 C5773 1.363 . S
C5779 C5774 1.379 . S
C5779 N5777 1.356 . S
N5780 C5772 1.356 . S
N5780 H5786 0.984 . S
N5780 H5787 0.984 . S
N5781 C5774 1.356 . S
N5781 H5784 0.984 . S
N5781 H5785 0.985 . S
H5782 N5777 0.984 . S
H5783 N5777 0.985 . S
H5784 N5781 0.984 . S
H5785 N5781 0.985 . S
H5786 N5780 0.984 . S
H5787 N5780 0.984 . S
H5788 N5776 0.984 . S
H5789 N5776 0.985 . S
C5790 C5791 1.363 . S
C5790 C5796 1.379 . S
C5790 N5798 1.356 . S
C5791 C5790 1.363 . S
C5791 C5797 1.363 . S
C5792 C5793 1.363 . S
C5792 C5797 1.379 . S
C5792 N5799 1.356 . S
C5793 C5792 1.363 . S
C5793 C5796 1.363 . S
N5794 C5796 1.356 . S
N5794 H5806 0.984 . S
N5794 H5807 0.985 . S
N5795 C5797 1.356 . S
N5795 H5800 0.984 . S
N5795 H5801 0.985 . S
C5796 C5790 1.379 . S
C5796 C5793 1.363 . S
C5796 N5794 1.356 . S
C5797 C5791 1.363 . S
C5797 C5792 1.379 . S
C5797 N5795 1.356 . S
N5798 C5790 1.356 . S
N5798 H5804 0.984 . S
N5798 H5805 0.984 . S
N5799 C5792 1.356 . S
N5799 H5802 0.984 . S
N5799 H5803 0.985 . S
H5800 N5795 0.984 . S
H5801 N5795 0.985 . S
H5802 N5799 0.984 . S
H5803 N5799 0.985 . S
H5804 N5798 0.984 . S
H5805 N5798 0.984 . S
H5806 N5794 0.984 . S
H5807 N5794 0.985 . S
C5808 C5809 1.363 . S
C5808 C5814 1.379 . S
C5808 N5816 1.356 . S
C5809 C5808 1.363 . S
C5809 C5815 1.363 . S
C5810 C5811 1.363 . S
C5810 C5815 1.379 . S
C5810 N5817 1.356 . S
C5811 C5810 1.363 . S
C5811 C5814 1.363 . S
N5812 C5814 1.356 . S
N5812 H5824 0.984 . S
N5812 H5825 0.985 . S
N5813 C5815 1.356 . S
N5813 H5818 0.984 . S
N5813 H5819 0.985 . S
C5814 C5808 1.379 . S
C5814 C5811 1.363 . S
C5814 N5812 1.356 . S
C5815 C5809 1.363 . S
C5815 C5810 1.379 . S
C5815 N5813 1.356 . S
N5816 C5808 1.356 . S
N5816 H5822 0.984 . S
N5816 H5823 0.984 . S
N5817 C5810 1.356 . S
N5817 H5820 0.984 . S
N5817 H5821 0.985 . S
H5818 N5813 0.984 . S
H5819 N5813 0.985 . S
H5820 N5817 0.984 . S
H5821 N5817 0.985 . S
H5822 N5816 0.984 . S
H5823 N5816 0.984 . S
H5824 N5812 0.984 . S
H5825 N5812 0.985 . S
C5826 C5827 1.363 . S
C5826 C5832 1.379 . S
C5826 N5834 1.356 . S
C5827 C5826 1.363 . S
C5827 C5833 1.363 . S
C5828 C5829 1.363 . S
C5828 C5833 1.379 . S
C5828 N5835 1.356 . S
C5829 C5828 1.363 . S
C5829 C5832 1.363 . S
N5830 C5832 1.356 . S
N5830 H5842 0.984 . S
N5830 H5843 0.985 . S
N5831 C5833 1.356 . S
N5831 H5836 0.984 . S
N5831 H5837 0.985 . S
C5832 C5826 1.379 . S
C5832 C5829 1.363 . S
C5832 N5830 1.356 . S
C5833 C5827 1.363 . S
C5833 C5828 1.379 . S
C5833 N5831 1.356 . S
N5834 C5826 1.356 . S
N5834 H5840 0.984 . S
N5834 H5841 0.984 . S
N5835 C5828 1.356 . S
N5835 H5838 0.984 . S
N5835 H5839 0.985 . S
H5836 N5831 0.984 . S
H5837 N5831 0.985 . S
H5838 N5835 0.984 . S
H5839 N5835 0.985 . S
H5840 N5834 0.984 . S
H5841 N5834 0.984 . S
H5842 N5830 0.984 . S
H5843 N5830 0.985 . S
C5844 C5845 1.363 . S
C5844 C5850 1.379 . S
C5844 N5852 1.356 . S
C5845 C5844 1.363 . S
C5845 C5851 1.363 . S
C5846 C5847 1.363 . S
C5846 C5851 1.379 . S
C5846 N5853 1.356 . S
C5847 C5846 1.363 . S
C5847 C5850 1.363 . S
N5848 C5850 1.356 . S
N5848 H5860 0.984 . S
N5848 H5861 0.985 . S
N5849 C5851 1.356 . S
N5849 H5854 0.984 . S
N5849 H5855 0.973 1_554 S
C5850 C5844 1.379 . S
C5850 C5847 1.363 . S
C5850 N5848 1.356 . S
C5851 C5845 1.363 . S
C5851 C5846 1.379 . S
C5851 N5849 1.356 . S
N5852 C5844 1.356 . S
N5852 H5858 0.984 . S
N5852 H5859 0.984 . S
N5853 C5846 1.356 . S
N5853 H5856 0.984 . S
N5853 H5857 0.985 . S
H5854 N5849 0.984 . S
H5855 N5849 0.973 1_556 S
H5856 N5853 0.984 . S
H5857 N5853 0.985 . S
H5858 N5852 0.984 . S
H5859 N5852 0.984 . S
H5860 N5848 0.984 . S
H5861 N5848 0.985 . S
C5862 C5863 1.363 . S
C5862 C5868 1.379 . S
C5862 N5870 1.356 . S
C5863 C5862 1.363 . S
C5863 C5869 1.363 . S
C5864 C5865 1.363 . S
C5864 C5869 1.379 . S
C5864 N5871 1.356 . S
C5865 C5864 1.363 . S
C5865 C5868 1.363 . S
N5866 C5868 1.356 . S
N5866 H5878 0.984 . S
N5866 H5879 0.985 . S
N5867 C5869 1.356 . S
N5867 H5872 0.984 . S
N5867 H5873 0.985 . S
C5868 C5862 1.379 . S
C5868 C5865 1.363 . S
C5868 N5866 1.356 . S
C5869 C5863 1.363 . S
C5869 C5864 1.379 . S
C5869 N5867 1.356 . S
N5870 C5862 1.356 . S
N5870 H5876 0.984 . S
N5870 H5877 0.984 . S
N5871 C5864 1.356 . S
N5871 H5874 0.984 . S
N5871 H5875 0.985 . S
H5872 N5867 0.984 . S
H5873 N5867 0.985 . S
H5874 N5871 0.984 . S
H5875 N5871 0.985 . S
H5876 N5870 0.984 . S
H5877 N5870 0.984 . S
H5878 N5866 0.984 . S
H5879 N5866 0.985 . S
C5880 C5881 1.363 . S
C5880 C5886 1.379 . S
C5880 N5888 1.356 . S
C5881 C5880 1.363 . S
C5881 C5887 1.363 . S
C5882 C5883 1.363 . S
C5882 C5887 1.379 . S
C5882 N5889 1.356 . S
C5883 C5882 1.363 . S
C5883 C5886 1.363 . S
N5884 C5886 1.356 . S
N5884 H5896 0.984 . S
N5884 H5897 0.985 . S
N5885 C5887 1.356 . S
N5885 H5890 0.984 . S
N5885 H5891 0.985 . S
C5886 C5880 1.379 . S
C5886 C5883 1.363 . S
C5886 N5884 1.356 . S
C5887 C5881 1.363 . S
C5887 C5882 1.379 . S
C5887 N5885 1.356 . S
N5888 C5880 1.356 . S
N5888 H5894 0.984 . S
N5888 H5895 0.984 . S
N5889 C5882 1.356 . S
N5889 H5892 0.984 . S
N5889 H5893 0.985 . S
H5890 N5885 0.984 . S
H5891 N5885 0.985 . S
H5892 N5889 0.984 . S
H5893 N5889 0.985 . S
H5894 N5888 0.984 . S
H5895 N5888 0.984 . S
H5896 N5884 0.984 . S
H5897 N5884 0.985 . S
C5898 C5899 1.363 . S
C5898 C5904 1.379 . S
C5898 N5906 1.356 . S
C5899 C5898 1.363 . S
C5899 C5905 1.363 . S
C5900 C5901 1.363 . S
C5900 C5905 1.379 . S
C5900 N5907 1.356 . S
C5901 C5900 1.363 . S
C5901 C5904 1.363 . S
N5902 C5904 1.356 . S
N5902 H5914 0.984 . S
N5902 H5915 0.985 . S
N5903 C5905 1.356 . S
N5903 H5908 0.984 . S
N5903 H5909 0.985 . S
C5904 C5898 1.379 . S
C5904 C5901 1.363 . S
C5904 N5902 1.356 . S
C5905 C5899 1.363 . S
C5905 C5900 1.379 . S
C5905 N5903 1.356 . S
N5906 C5898 1.356 . S
N5906 H5912 0.984 . S
N5906 H5913 0.984 . S
N5907 C5900 1.356 . S
N5907 H5910 0.984 . S
N5907 H5911 0.985 . S
H5908 N5903 0.984 . S
H5909 N5903 0.985 . S
H5910 N5907 0.984 . S
H5911 N5907 0.985 . S
H5912 N5906 0.984 . S
H5913 N5906 0.984 . S
H5914 N5902 0.984 . S
H5915 N5902 0.985 . S
C5916 C5917 1.363 . S
C5916 C5922 1.379 . S
C5916 N5924 1.356 . S
C5917 C5916 1.363 . S
C5917 C5923 1.363 . S
C5918 C5919 1.363 . S
C5918 C5923 1.379 . S
C5918 N5925 1.356 . S
C5919 C5918 1.363 . S
C5919 C5922 1.363 . S
N5920 C5922 1.356 . S
N5920 H5932 0.984 . S
N5920 H5933 0.985 . S
N5921 C5923 1.356 . S
N5921 H5926 0.984 . S
N5921 H5927 0.985 1_556 S
C5922 C5916 1.379 . S
C5922 C5919 1.363 . S
C5922 N5920 1.356 . S
C5923 C5917 1.363 . S
C5923 C5918 1.379 . S
C5923 N5921 1.356 . S
N5924 C5916 1.356 . S
N5924 H5930 0.984 . S
N5924 H5931 0.984 . S
N5925 C5918 1.356 . S
N5925 H5928 0.984 . S
N5925 H5929 0.985 . S
H5926 N5921 0.984 . S
H5927 N5921 0.985 1_554 S
H5928 N5925 0.984 . S
H5929 N5925 0.985 . S
H5930 N5924 0.984 . S
H5931 N5924 0.984 . S
H5932 N5920 0.984 . S
H5933 N5920 0.985 . S
C5934 C5935 1.363 . S
C5934 C5940 1.379 . S
C5934 N5942 1.356 . S
C5935 C5934 1.363 . S
C5935 C5941 1.363 . S
C5936 C5937 1.363 . S
C5936 C5941 1.379 . S
C5936 N5943 1.356 . S
C5937 C5936 1.363 . S
C5937 C5940 1.363 . S
N5938 C5940 1.356 . S
N5938 H5950 0.984 . S
N5938 H5951 0.985 . S
N5939 C5941 1.356 . S
N5939 H5944 0.984 . S
N5939 H5945 0.985 . S
C5940 C5934 1.379 . S
C5940 C5937 1.363 . S
C5940 N5938 1.356 . S
C5941 C5935 1.363 . S
C5941 C5936 1.379 . S
C5941 N5939 1.356 . S
N5942 C5934 1.356 . S
N5942 H5948 0.984 . S
N5942 H5949 0.984 . S
N5943 C5936 1.356 . S
N5943 H5946 0.984 . S
N5943 H5947 0.985 . S
H5944 N5939 0.984 . S
H5945 N5939 0.985 . S
H5946 N5943 0.984 . S
H5947 N5943 0.985 . S
H5948 N5942 0.984 . S
H5949 N5942 0.984 . S
H5950 N5938 0.984 . S
H5951 N5938 0.985 . S
C5952 C5953 1.363 . S
C5952 C5958 1.379 . S
C5952 N5960 1.356 . S
C5953 C5952 1.363 . S
C5953 C5959 1.363 . S
C5954 C5955 1.363 . S
C5954 C5959 1.379 . S
C5954 N5961 1.356 . S
C5955 C5954 1.363 . S
C5955 C5958 1.363 . S
N5956 C5958 1.356 . S
N5956 H5968 0.984 . S
N5956 H5969 0.985 . S
N5957 C5959 1.356 . S
N5957 H5962 0.984 . S
N5957 H5963 0.985 . S
C5958 C5952 1.379 . S
C5958 C5955 1.363 . S
C5958 N5956 1.356 . S
C5959 C5953 1.363 . S
C5959 C5954 1.379 . S
C5959 N5957 1.356 . S
N5960 C5952 1.356 . S
N5960 H5966 0.984 . S
N5960 H5967 0.984 . S
N5961 C5954 1.356 . S
N5961 H5964 0.984 . S
N5961 H5965 0.985 . S
H5962 N5957 0.984 . S
H5963 N5957 0.985 . S
H5964 N5961 0.984 . S
H5965 N5961 0.985 . S
H5966 N5960 0.984 . S
H5967 N5960 0.984 . S
H5968 N5956 0.984 . S
H5969 N5956 0.985 . S
C5970 C5971 1.363 . S
C5970 C5976 1.379 . S
C5970 N5978 1.356 . S
C5971 C5970 1.363 . S
C5971 C5977 1.363 . S
C5972 C5973 1.363 . S
C5972 C5977 1.379 . S
C5972 N5979 1.356 . S
C5973 C5972 1.363 . S
C5973 C5976 1.363 . S
N5974 C5976 1.356 . S
N5974 H5986 0.984 . S
N5974 H5987 0.985 . S
N5975 C5977 1.356 . S
N5975 H5980 0.984 . S
N5975 H5981 0.985 . S
C5976 C5970 1.379 . S
C5976 C5973 1.363 . S
C5976 N5974 1.356 . S
C5977 C5971 1.363 . S
C5977 C5972 1.379 . S
C5977 N5975 1.356 . S
N5978 C5970 1.356 . S
N5978 H5984 0.984 . S
N5978 H5985 0.984 . S
N5979 C5972 1.356 . S
N5979 H5982 0.984 . S
N5979 H5983 0.985 . S
H5980 N5975 0.984 . S
H5981 N5975 0.985 . S
H5982 N5979 0.984 . S
H5983 N5979 0.985 . S
H5984 N5978 0.984 . S
H5985 N5978 0.984 . S
H5986 N5974 0.984 . S
H5987 N5974 0.985 . S
C5988 C5989 1.363 . S
C5988 C5994 1.379 . S
C5988 N5996 1.356 . S
C5989 C5988 1.363 . S
C5989 C5995 1.363 . S
C5990 C5991 1.363 . S
C5990 C5995 1.379 . S
C5990 N5997 1.356 . S
C5991 C5990 1.363 . S
C5991 C5994 1.363 . S
N5992 C5994 1.356 . S
N5992 H6004 0.984 . S
N5992 H6005 0.985 . S
N5993 C5995 1.356 . S
N5993 H5998 0.984 . S
N5993 H5999 0.985 . S
C5994 C5988 1.379 . S
C5994 C5991 1.363 . S
C5994 N5992 1.356 . S
C5995 C5989 1.363 . S
C5995 C5990 1.379 . S
C5995 N5993 1.356 . S
N5996 C5988 1.356 . S
N5996 H6002 0.984 . S
N5996 H6003 0.984 . S
N5997 C5990 1.356 . S
N5997 H6000 0.984 . S
N5997 H6001 0.985 . S
H5998 N5993 0.984 . S
H5999 N5993 0.985 . S
H6000 N5997 0.984 . S
H6001 N5997 0.985 . S
H6002 N5996 0.984 . S
H6003 N5996 0.984 . S
H6004 N5992 0.984 . S
H6005 N5992 0.985 . S
C6006 C6007 1.363 . S
C6006 C6012 1.379 . S
C6006 N6014 1.356 . S
C6007 C6006 1.363 . S
C6007 C6013 1.363 . S
C6008 C6009 1.363 . S
C6008 C6013 1.379 . S
C6008 N6015 1.356 . S
C6009 C6008 1.363 . S
C6009 C6012 1.363 . S
N6010 C6012 1.356 . S
N6010 H6022 0.984 . S
N6010 H6023 0.985 . S
N6011 C6013 1.356 . S
N6011 H6016 0.984 . S
N6011 H6017 0.985 . S
C6012 C6006 1.379 . S
C6012 C6009 1.363 . S
C6012 N6010 1.356 . S
C6013 C6007 1.363 . S
C6013 C6008 1.379 . S
C6013 N6011 1.356 . S
N6014 C6006 1.356 . S
N6014 H6020 0.984 . S
N6014 H6021 0.984 . S
N6015 C6008 1.356 . S
N6015 H6018 0.984 . S
N6015 H6019 0.985 . S
H6016 N6011 0.984 . S
H6017 N6011 0.985 . S
H6018 N6015 0.984 . S
H6019 N6015 0.985 . S
H6020 N6014 0.984 . S
H6021 N6014 0.984 . S
H6022 N6010 0.984 . S
H6023 N6010 0.985 . S
C6024 C6025 1.363 . S
C6024 C6030 1.379 . S
C6024 N6032 1.356 . S
C6025 C6024 1.363 . S
C6025 C6031 1.363 . S
C6026 C6027 1.363 . S
C6026 C6031 1.379 . S
C6026 N6033 1.356 . S
C6027 C6026 1.363 . S
C6027 C6030 1.363 . S
N6028 C6030 1.356 . S
N6028 H6040 0.984 . S
N6028 H6041 0.985 . S
N6029 C6031 1.356 . S
N6029 H6034 0.984 . S
N6029 H6035 0.985 . S
C6030 C6024 1.379 . S
C6030 C6027 1.363 . S
C6030 N6028 1.356 . S
C6031 C6025 1.363 . S
C6031 C6026 1.379 . S
C6031 N6029 1.356 . S
N6032 C6024 1.356 . S
N6032 H6038 0.984 . S
N6032 H6039 0.984 . S
N6033 C6026 1.356 . S
N6033 H6036 0.984 . S
N6033 H6037 0.985 . S
H6034 N6029 0.984 . S
H6035 N6029 0.985 . S
H6036 N6033 0.984 . S
H6037 N6033 0.985 . S
H6038 N6032 0.984 . S
H6039 N6032 0.984 . S
H6040 N6028 0.984 . S
H6041 N6028 0.985 . S
C6042 C6043 1.363 . S
C6042 C6048 1.379 . S
C6042 N6050 1.356 . S
C6043 C6042 1.363 . S
C6043 C6049 1.363 . S
C6044 C6045 1.363 . S
C6044 C6049 1.379 . S
C6044 N6051 1.356 . S
C6045 C6044 1.363 . S
C6045 C6048 1.363 . S
N6046 C6048 1.356 . S
N6046 H6058 0.984 . S
N6046 H6059 0.985 . S
N6047 C6049 1.356 . S
N6047 H6052 0.984 . S
N6047 H6053 0.985 . S
C6048 C6042 1.379 . S
C6048 C6045 1.363 . S
C6048 N6046 1.356 . S
C6049 C6043 1.363 . S
C6049 C6044 1.379 . S
C6049 N6047 1.356 . S
N6050 C6042 1.356 . S
N6050 H6056 0.984 . S
N6050 H6057 0.984 . S
N6051 C6044 1.356 . S
N6051 H6054 0.984 . S
N6051 H6055 0.985 . S
H6052 N6047 0.984 . S
H6053 N6047 0.985 . S
H6054 N6051 0.984 . S
H6055 N6051 0.985 . S
H6056 N6050 0.984 . S
H6057 N6050 0.984 . S
H6058 N6046 0.984 . S
H6059 N6046 0.985 . S
C6060 C6061 1.363 . S
C6060 C6066 1.379 . S
C6060 N6068 1.356 . S
C6061 C6060 1.363 . S
C6061 C6067 1.363 . S
C6062 C6063 1.363 . S
C6062 C6067 1.379 . S
C6062 N6069 1.356 . S
C6063 C6062 1.363 . S
C6063 C6066 1.363 . S
N6064 C6066 1.356 . S
N6064 H6076 0.984 . S
N6064 H6077 0.985 . S
N6065 C6067 1.356 . S
N6065 H6070 0.984 . S
N6065 H6071 0.985 . S
C6066 C6060 1.379 . S
C6066 C6063 1.363 . S
C6066 N6064 1.356 . S
C6067 C6061 1.363 . S
C6067 C6062 1.379 . S
C6067 N6065 1.356 . S
N6068 C6060 1.356 . S
N6068 H6074 0.984 . S
N6068 H6075 0.984 . S
N6069 C6062 1.356 . S
N6069 H6072 0.984 . S
N6069 H6073 0.985 . S
H6070 N6065 0.984 . S
H6071 N6065 0.985 . S
H6072 N6069 0.984 . S
H6073 N6069 0.985 . S
H6074 N6068 0.984 . S
H6075 N6068 0.984 . S
H6076 N6064 0.984 . S
H6077 N6064 0.985 . S
C6078 C6079 1.363 . S
C6078 C6084 1.379 . S
C6078 N6086 1.356 . S
C6079 C6078 1.363 . S
C6079 C6085 1.363 . S
C6080 C6081 1.363 . S
C6080 C6085 1.379 . S
C6080 N6087 1.356 . S
C6081 C6080 1.363 . S
C6081 C6084 1.363 . S
N6082 C6084 1.356 . S
N6082 H6094 0.984 . S
N6082 H6095 0.985 . S
N6083 C6085 1.356 . S
N6083 H6088 0.984 . S
N6083 H6089 0.985 . S
C6084 C6078 1.379 . S
C6084 C6081 1.363 . S
C6084 N6082 1.356 . S
C6085 C6079 1.363 . S
C6085 C6080 1.379 . S
C6085 N6083 1.356 . S
N6086 C6078 1.356 . S
N6086 H6092 0.984 . S
N6086 H6093 0.984 . S
N6087 C6080 1.356 . S
N6087 H6090 0.984 . S
N6087 H6091 0.985 . S
H6088 N6083 0.984 . S
H6089 N6083 0.985 . S
H6090 N6087 0.984 . S
H6091 N6087 0.985 . S
H6092 N6086 0.984 . S
H6093 N6086 0.984 . S
H6094 N6082 0.984 . S
H6095 N6082 0.985 . S
C6096 C6097 1.363 . S
C6096 C6102 1.379 . S
C6096 N6104 1.356 . S
C6097 C6096 1.363 . S
C6097 C6103 1.363 . S
C6098 C6099 1.363 . S
C6098 C6103 1.379 . S
C6098 N6105 1.356 . S
C6099 C6098 1.363 . S
C6099 C6102 1.363 . S
N6100 C6102 1.356 . S
N6100 H6112 0.984 . S
N6100 H6113 0.985 . S
N6101 C6103 1.356 . S
N6101 H6106 0.984 . S
N6101 H6107 0.985 . S
C6102 C6096 1.379 . S
C6102 C6099 1.363 . S
C6102 N6100 1.356 . S
C6103 C6097 1.363 . S
C6103 C6098 1.379 . S
C6103 N6101 1.356 . S
N6104 C6096 1.356 . S
N6104 H6110 0.984 . S
N6104 H6111 0.984 . S
N6105 C6098 1.356 . S
N6105 H6108 0.984 . S
N6105 H6109 0.985 . S
H6106 N6101 0.984 . S
H6107 N6101 0.985 . S
H6108 N6105 0.984 . S
H6109 N6105 0.985 . S
H6110 N6104 0.984 . S
H6111 N6104 0.984 . S
H6112 N6100 0.984 . S
H6113 N6100 0.985 . S
C6114 C6115 1.363 . S
C6114 C6120 1.379 . S
C6114 N6122 1.356 . S
C6115 C6114 1.363 . S
C6115 C6121 1.363 . S
C6116 C6117 1.363 . S
C6116 C6121 1.379 . S
C6116 N6123 1.356 . S
C6117 C6116 1.363 . S
C6117 C6120 1.363 . S
N6118 C6120 1.356 . S
N6118 H6130 0.984 . S
N6118 H6131 0.985 . S
N6119 C6121 1.356 . S
N6119 H6124 0.984 . S
N6119 H6125 0.985 . S
C6120 C6114 1.379 . S
C6120 C6117 1.363 . S
C6120 N6118 1.356 . S
C6121 C6115 1.363 . S
C6121 C6116 1.379 . S
C6121 N6119 1.356 . S
N6122 C6114 1.356 . S
N6122 H6128 0.984 . S
N6122 H6129 0.984 . S
N6123 C6116 1.356 . S
N6123 H6126 0.984 . S
N6123 H6127 0.985 . S
H6124 N6119 0.984 . S
H6125 N6119 0.985 . S
H6126 N6123 0.984 . S
H6127 N6123 0.985 . S
H6128 N6122 0.984 . S
H6129 N6122 0.984 . S
H6130 N6118 0.984 . S
H6131 N6118 0.985 . S
C6132 C6133 1.363 . S
C6132 C6138 1.379 . S
C6132 N6140 1.356 . S
C6133 C6132 1.363 . S
C6133 C6139 1.363 . S
C6134 C6135 1.363 . S
C6134 C6139 1.379 . S
C6134 N6141 1.356 . S
C6135 C6134 1.363 . S
C6135 C6138 1.363 . S
N6136 C6138 1.356 . S
N6136 H6148 0.984 . S
N6136 H6149 0.985 . S
N6137 C6139 1.356 . S
N6137 H6142 0.984 . S
N6137 H6143 0.985 . S
C6138 C6132 1.379 . S
C6138 C6135 1.363 . S
C6138 N6136 1.356 . S
C6139 C6133 1.363 . S
C6139 C6134 1.379 . S
C6139 N6137 1.356 . S
N6140 C6132 1.356 . S
N6140 H6146 0.984 . S
N6140 H6147 0.984 . S
N6141 C6134 1.356 . S
N6141 H6144 0.984 . S
N6141 H6145 0.985 . S
H6142 N6137 0.984 . S
H6143 N6137 0.985 . S
H6144 N6141 0.984 . S
H6145 N6141 0.985 . S
H6146 N6140 0.984 . S
H6147 N6140 0.984 . S
H6148 N6136 0.984 . S
H6149 N6136 0.985 . S
C6150 C6151 1.363 . S
C6150 C6156 1.379 . S
C6150 N6158 1.356 . S
C6151 C6150 1.363 . S
C6151 C6157 1.363 . S
C6152 C6153 1.363 . S
C6152 C6157 1.379 . S
C6152 N6159 1.356 . S
C6153 C6152 1.363 . S
C6153 C6156 1.363 . S
N6154 C6156 1.356 . S
N6154 H6166 0.984 . S
N6154 H6167 0.985 . S
N6155 C6157 1.356 . S
N6155 H6160 0.984 . S
N6155 H6161 0.985 . S
C6156 C6150 1.379 . S
C6156 C6153 1.363 . S
C6156 N6154 1.356 . S
C6157 C6151 1.363 . S
C6157 C6152 1.379 . S
C6157 N6155 1.356 . S
N6158 C6150 1.356 . S
N6158 H6164 0.984 . S
N6158 H6165 0.984 . S
N6159 C6152 1.356 . S
N6159 H6162 0.984 . S
N6159 H6163 0.985 . S
H6160 N6155 0.984 . S
H6161 N6155 0.985 . S
H6162 N6159 0.984 . S
H6163 N6159 0.985 . S
H6164 N6158 0.984 . S
H6165 N6158 0.984 . S
H6166 N6154 0.984 . S
H6167 N6154 0.985 . S
C6168 C6169 1.363 . S
C6168 C6174 1.379 . S
C6168 N6176 1.356 . S
C6169 C6168 1.363 . S
C6169 C6175 1.363 . S
C6170 C6171 1.363 . S
C6170 C6175 1.379 . S
C6170 N6177 1.356 . S
C6171 C6170 1.363 . S
C6171 C6174 1.363 . S
N6172 C6174 1.356 . S
N6172 H6184 0.984 . S
N6172 H6185 0.985 . S
N6173 C6175 1.356 . S
N6173 H6178 0.984 . S
N6173 H6179 0.985 . S
C6174 C6168 1.379 . S
C6174 C6171 1.363 . S
C6174 N6172 1.356 . S
C6175 C6169 1.363 . S
C6175 C6170 1.379 . S
C6175 N6173 1.356 . S
N6176 C6168 1.356 . S
N6176 H6182 0.984 . S
N6176 H6183 0.984 . S
N6177 C6170 1.356 . S
N6177 H6180 0.984 . S
N6177 H6181 0.985 . S
H6178 N6173 0.984 . S
H6179 N6173 0.985 . S
H6180 N6177 0.984 . S
H6181 N6177 0.985 . S
H6182 N6176 0.984 . S
H6183 N6176 0.984 . S
H6184 N6172 0.984 . S
H6185 N6172 0.985 . S
C6186 C6187 1.363 . S
C6186 C6192 1.379 . S
C6186 N6194 1.356 . S
C6187 C6186 1.363 . S
C6187 C6193 1.363 . S
C6188 C6189 1.363 . S
C6188 C6193 1.379 . S
C6188 N6195 1.356 . S
C6189 C6188 1.363 . S
C6189 C6192 1.363 . S
N6190 C6192 1.356 . S
N6190 H6202 0.984 . S
N6190 H6203 0.985 . S
N6191 C6193 1.356 . S
N6191 H6196 0.984 . S
N6191 H6197 0.985 . S
C6192 C6186 1.379 . S
C6192 C6189 1.363 . S
C6192 N6190 1.356 . S
C6193 C6187 1.363 . S
C6193 C6188 1.379 . S
C6193 N6191 1.356 . S
N6194 C6186 1.356 . S
N6194 H6200 0.984 . S
N6194 H6201 0.984 . S
N6195 C6188 1.356 . S
N6195 H6198 0.984 . S
N6195 H6199 0.985 . S
H6196 N6191 0.984 . S
H6197 N6191 0.985 . S
H6198 N6195 0.984 . S
H6199 N6195 0.985 . S
H6200 N6194 0.984 . S
H6201 N6194 0.984 . S
H6202 N6190 0.984 . S
H6203 N6190 0.985 . S
C6204 C6205 1.363 . S
C6204 C6210 1.379 . S
C6204 N6212 1.356 . S
C6205 C6204 1.363 . S
C6205 C6211 1.363 . S
C6206 C6207 1.363 . S
C6206 C6211 1.379 . S
C6206 N6213 1.356 . S
C6207 C6206 1.363 . S
C6207 C6210 1.363 . S
N6208 C6210 1.356 . S
N6208 H6220 0.984 . S
N6208 H6221 0.985 . S
N6209 C6211 1.356 . S
N6209 H6214 0.984 . S
N6209 H6215 0.985 . S
C6210 C6204 1.379 . S
C6210 C6207 1.363 . S
C6210 N6208 1.356 . S
C6211 C6205 1.363 . S
C6211 C6206 1.379 . S
C6211 N6209 1.356 . S
N6212 C6204 1.356 . S
N6212 H6218 0.984 . S
N6212 H6219 0.984 . S
N6213 C6206 1.356 . S
N6213 H6216 0.984 . S
N6213 H6217 0.985 . S
H6214 N6209 0.984 . S
H6215 N6209 0.985 . S
H6216 N6213 0.984 . S
H6217 N6213 0.985 . S
H6218 N6212 0.984 . S
H6219 N6212 0.984 . S
H6220 N6208 0.984 . S
H6221 N6208 0.985 . S
C6222 C6223 1.363 . S
C6222 C6228 1.379 . S
C6222 N6230 1.356 . S
C6223 C6222 1.363 . S
C6223 C6229 1.363 . S
C6224 C6225 1.363 . S
C6224 C6229 1.379 . S
C6224 N6231 1.356 . S
C6225 C6224 1.363 . S
C6225 C6228 1.363 . S
N6226 C6228 1.356 . S
N6226 H6238 0.984 . S
N6226 H6239 0.985 . S
N6227 C6229 1.356 . S
N6227 H6232 0.984 . S
N6227 H6233 0.985 . S
C6228 C6222 1.379 . S
C6228 C6225 1.363 . S
C6228 N6226 1.356 . S
C6229 C6223 1.363 . S
C6229 C6224 1.379 . S
C6229 N6227 1.356 . S
N6230 C6222 1.356 . S
N6230 H6236 0.984 . S
N6230 H6237 0.984 . S
N6231 C6224 1.356 . S
N6231 H6234 0.984 . S
N6231 H6235 0.985 . S
H6232 N6227 0.984 . S
H6233 N6227 0.985 . S
H6234 N6231 0.984 . S
H6235 N6231 0.985 . S
H6236 N6230 0.984 . S
H6237 N6230 0.984 . S
H6238 N6226 0.984 . S
H6239 N6226 0.985 . S
C6240 C6241 1.363 . S
C6240 C6246 1.379 . S
C6240 N6248 1.356 . S
C6241 C6240 1.363 . S
C6241 C6247 1.363 . S
C6242 C6243 1.363 . S
C6242 C6247 1.379 . S
C6242 N6249 1.356 . S
C6243 C6242 1.363 . S
C6243 C6246 1.363 . S
N6244 C6246 1.356 . S
N6244 H6256 0.984 . S
N6244 H6257 0.985 . S
N6245 C6247 1.356 . S
N6245 H6250 0.984 . S
N6245 H6251 0.985 . S
C6246 C6240 1.379 . S
C6246 C6243 1.363 . S
C6246 N6244 1.356 . S
C6247 C6241 1.363 . S
C6247 C6242 1.379 . S
C6247 N6245 1.356 . S
N6248 C6240 1.356 . S
N6248 H6254 0.984 . S
N6248 H6255 0.984 . S
N6249 C6242 1.356 . S
N6249 H6252 0.984 . S
N6249 H6253 0.982 1_554 S
H6250 N6245 0.984 . S
H6251 N6245 0.985 . S
H6252 N6249 0.984 . S
H6253 N6249 0.982 1_556 S
H6254 N6248 0.984 . S
H6255 N6248 0.984 . S
H6256 N6244 0.984 . S
H6257 N6244 0.985 . S
C6258 C6259 1.363 . S
C6258 C6264 1.379 . S
C6258 N6266 1.356 . S
C6259 C6258 1.363 . S
C6259 C6265 1.363 . S
C6260 C6261 1.363 . S
C6260 C6265 1.379 . S
C6260 N6267 1.356 . S
C6261 C6260 1.363 . S
C6261 C6264 1.363 . S
N6262 C6264 1.356 . S
N6262 H6274 0.984 . S
N6262 H6275 0.985 . S
N6263 C6265 1.356 . S
N6263 H6268 0.984 . S
N6263 H6269 0.985 . S
C6264 C6258 1.379 . S
C6264 C6261 1.363 . S
C6264 N6262 1.356 . S
C6265 C6259 1.363 . S
C6265 C6260 1.379 . S
C6265 N6263 1.356 . S
N6266 C6258 1.356 . S
N6266 H6272 0.984 . S
N6266 H6273 0.984 . S
N6267 C6260 1.356 . S
N6267 H6270 0.984 . S
N6267 H6271 0.985 . S
H6268 N6263 0.984 . S
H6269 N6263 0.985 . S
H6270 N6267 0.984 . S
H6271 N6267 0.985 . S
H6272 N6266 0.984 . S
H6273 N6266 0.984 . S
H6274 N6262 0.984 . S
H6275 N6262 0.985 . S
C6276 C6277 1.363 . S
C6276 C6282 1.379 . S
C6276 N6284 1.356 . S
C6277 C6276 1.363 . S
C6277 C6283 1.363 . S
C6278 C6279 1.363 . S
C6278 C6283 1.379 . S
C6278 N6285 1.356 . S
C6279 C6278 1.363 . S
C6279 C6282 1.363 . S
N6280 C6282 1.356 . S
N6280 H6292 0.984 . S
N6280 H6293 0.985 . S
N6281 C6283 1.356 . S
N6281 H6286 0.984 . S
N6281 H6287 0.985 . S
C6282 C6276 1.379 . S
C6282 C6279 1.363 . S
C6282 N6280 1.356 . S
C6283 C6277 1.363 . S
C6283 C6278 1.379 . S
C6283 N6281 1.356 . S
N6284 C6276 1.356 . S
N6284 H6290 0.984 . S
N6284 H6291 0.984 . S
N6285 C6278 1.356 . S
N6285 H6288 0.984 . S
N6285 H6289 0.985 . S
H6286 N6281 0.984 . S
H6287 N6281 0.985 . S
H6288 N6285 0.984 . S
H6289 N6285 0.985 . S
H6290 N6284 0.984 . S
H6291 N6284 0.984 . S
H6292 N6280 0.984 . S
H6293 N6280 0.985 . S
C6294 C6295 1.363 . S
C6294 C6300 1.379 . S
C6294 N6302 1.356 . S
C6295 C6294 1.363 . S
C6295 C6301 1.363 . S
C6296 C6297 1.363 . S
C6296 C6301 1.379 . S
C6296 N6303 1.356 . S
C6297 C6296 1.363 . S
C6297 C6300 1.363 . S
N6298 C6300 1.356 . S
N6298 H6310 0.984 . S
N6298 H6311 0.985 . S
N6299 C6301 1.356 . S
N6299 H6304 0.984 . S
N6299 H6305 0.985 . S
C6300 C6294 1.379 . S
C6300 C6297 1.363 . S
C6300 N6298 1.356 . S
C6301 C6295 1.363 . S
C6301 C6296 1.379 . S
C6301 N6299 1.356 . S
N6302 C6294 1.356 . S
N6302 H6308 0.984 . S
N6302 H6309 0.984 . S
N6303 C6296 1.356 . S
N6303 H6306 0.984 . S
N6303 H6307 0.985 . S
H6304 N6299 0.984 . S
H6305 N6299 0.985 . S
H6306 N6303 0.984 . S
H6307 N6303 0.985 . S
H6308 N6302 0.984 . S
H6309 N6302 0.984 . S
H6310 N6298 0.984 . S
H6311 N6298 0.985 . S
C6312 C6313 1.363 . S
C6312 C6318 1.379 . S
C6312 N6320 1.356 . S
C6313 C6312 1.363 . S
C6313 C6319 1.363 . S
C6314 C6315 1.363 . S
C6314 C6319 1.379 . S
C6314 N6321 1.356 . S
C6315 C6314 1.363 . S
C6315 C6318 1.363 . S
N6316 C6318 1.356 . S
N6316 H6328 0.984 . S
N6316 H6329 0.985 . S
N6317 C6319 1.356 . S
N6317 H6322 0.984 . S
N6317 H6323 0.985 . S
C6318 C6312 1.379 . S
C6318 C6315 1.363 . S
C6318 N6316 1.356 . S
C6319 C6313 1.363 . S
C6319 C6314 1.379 . S
C6319 N6317 1.356 . S
N6320 C6312 1.356 . S
N6320 H6326 0.984 . S
N6320 H6327 0.984 . S
N6321 C6314 1.356 . S
N6321 H6324 0.984 . S
N6321 H6325 0.985 . S
H6322 N6317 0.984 . S
H6323 N6317 0.985 . S
H6324 N6321 0.984 . S
H6325 N6321 0.985 . S
H6326 N6320 0.984 . S
H6327 N6320 0.984 . S
H6328 N6316 0.984 . S
H6329 N6316 0.985 . S
C6330 C6331 1.363 . S
C6330 C6336 1.379 . S
C6330 N6338 1.356 . S
C6331 C6330 1.363 . S
C6331 C6337 1.363 . S
C6332 C6333 1.363 . S
C6332 C6337 1.379 . S
C6332 N6339 1.356 . S
C6333 C6332 1.363 . S
C6333 C6336 1.363 . S
N6334 C6336 1.356 . S
N6334 H6346 0.984 . S
N6334 H6347 0.985 . S
N6335 C6337 1.356 . S
N6335 H6340 0.984 . S
N6335 H6341 0.985 . S
C6336 C6330 1.379 . S
C6336 C6333 1.363 . S
C6336 N6334 1.356 . S
C6337 C6331 1.363 . S
C6337 C6332 1.379 . S
C6337 N6335 1.356 . S
N6338 C6330 1.356 . S
N6338 H6344 0.984 . S
N6338 H6345 0.984 . S
N6339 C6332 1.356 . S
N6339 H6342 0.984 . S
N6339 H6343 0.985 . S
H6340 N6335 0.984 . S
H6341 N6335 0.985 . S
H6342 N6339 0.984 . S
H6343 N6339 0.985 . S
H6344 N6338 0.984 . S
H6345 N6338 0.984 . S
H6346 N6334 0.984 . S
H6347 N6334 0.985 . S
C6348 C6349 1.363 . S
C6348 C6354 1.379 . S
C6348 N6356 1.356 . S
C6349 C6348 1.363 . S
C6349 C6355 1.363 . S
C6350 C6351 1.363 . S
C6350 C6355 1.379 . S
C6350 N6357 1.356 . S
C6351 C6350 1.363 . S
C6351 C6354 1.363 . S
N6352 C6354 1.356 . S
N6352 H6364 0.984 . S
N6352 H6365 0.985 . S
N6353 C6355 1.356 . S
N6353 H6358 0.984 . S
N6353 H6359 0.985 . S
C6354 C6348 1.379 . S
C6354 C6351 1.363 . S
C6354 N6352 1.356 . S
C6355 C6349 1.363 . S
C6355 C6350 1.379 . S
C6355 N6353 1.356 . S
N6356 C6348 1.356 . S
N6356 H6362 0.984 . S
N6356 H6363 0.984 . S
N6357 C6350 1.356 . S
N6357 H6360 0.984 . S
N6357 H6361 0.985 . S
H6358 N6353 0.984 . S
H6359 N6353 0.985 . S
H6360 N6357 0.984 . S
H6361 N6357 0.985 . S
H6362 N6356 0.984 . S
H6363 N6356 0.984 . S
H6364 N6352 0.984 . S
H6365 N6352 0.985 . S
C6366 C6367 1.363 . S
C6366 C6372 1.379 . S
C6366 N6374 1.356 . S
C6367 C6366 1.363 . S
C6367 C6373 1.363 . S
C6368 C6369 1.363 . S
C6368 C6373 1.379 . S
C6368 N6375 1.356 . S
C6369 C6368 1.363 . S
C6369 C6372 1.363 . S
N6370 C6372 1.356 . S
N6370 H6382 0.984 . S
N6370 H6383 0.985 . S
N6371 C6373 1.356 . S
N6371 H6376 0.984 . S
N6371 H6377 0.985 . S
C6372 C6366 1.379 . S
C6372 C6369 1.363 . S
C6372 N6370 1.356 . S
C6373 C6367 1.363 . S
C6373 C6368 1.379 . S
C6373 N6371 1.356 . S
N6374 C6366 1.356 . S
N6374 H6380 0.984 . S
N6374 H6381 0.984 . S
N6375 C6368 1.356 . S
N6375 H6378 0.984 . S
N6375 H6379 0.985 . S
H6376 N6371 0.984 . S
H6377 N6371 0.985 . S
H6378 N6375 0.984 . S
H6379 N6375 0.985 . S
H6380 N6374 0.984 . S
H6381 N6374 0.984 . S
H6382 N6370 0.984 . S
H6383 N6370 0.985 . S
C6384 C6385 1.363 . S
C6384 C6390 1.379 . S
C6384 N6392 1.356 . S
C6385 C6384 1.363 . S
C6385 C6391 1.363 . S
C6386 C6387 1.363 . S
C6386 C6391 1.379 . S
C6386 N6393 1.356 . S
C6387 C6386 1.363 . S
C6387 C6390 1.363 . S
N6388 C6390 1.356 . S
N6388 H6400 0.984 . S
N6388 H6401 0.985 . S
N6389 C6391 1.356 . S
N6389 H6394 0.984 . S
N6389 H6395 0.985 . S
C6390 C6384 1.379 . S
C6390 C6387 1.363 . S
C6390 N6388 1.356 . S
C6391 C6385 1.363 . S
C6391 C6386 1.379 . S
C6391 N6389 1.356 . S
N6392 C6384 1.356 . S
N6392 H6398 0.984 . S
N6392 H6399 0.984 . S
N6393 C6386 1.356 . S
N6393 H6396 0.984 . S
N6393 H6397 0.985 . S
H6394 N6389 0.984 . S
H6395 N6389 0.985 . S
H6396 N6393 0.984 . S
H6397 N6393 0.985 . S
H6398 N6392 0.984 . S
H6399 N6392 0.984 . S
H6400 N6388 0.984 . S
H6401 N6388 0.985 . S
C6402 C6403 1.363 . S
C6402 C6408 1.379 . S
C6402 N6410 1.356 . S
C6403 C6402 1.363 . S
C6403 C6409 1.363 . S
C6404 C6405 1.363 . S
C6404 C6409 1.379 . S
C6404 N6411 1.356 . S
C6405 C6404 1.363 . S
C6405 C6408 1.363 . S
N6406 C6408 1.356 . S
N6406 H6418 0.984 . S
N6406 H6419 0.985 . S
N6407 C6409 1.356 . S
N6407 H6412 0.984 . S
N6407 H6413 0.985 . S
C6408 C6402 1.379 . S
C6408 C6405 1.363 . S
C6408 N6406 1.356 . S
C6409 C6403 1.363 . S
C6409 C6404 1.379 . S
C6409 N6407 1.356 . S
N6410 C6402 1.356 . S
N6410 H6416 0.984 1_455 S
N6410 H6417 0.984 . S
N6411 C6404 1.356 . S
N6411 H6414 0.984 . S
N6411 H6415 0.985 . S
H6412 N6407 0.984 . S
H6413 N6407 0.985 . S
H6414 N6411 0.984 . S
H6415 N6411 0.985 . S
H6416 N6410 0.984 1_655 S
H6417 N6410 0.984 . S
H6418 N6406 0.984 . S
H6419 N6406 0.985 . S
C6420 C6421 1.363 . S
C6420 C6426 1.379 . S
C6420 N6428 1.356 . S
C6421 C6420 1.363 . S
C6421 C6427 1.363 . S
C6422 C6423 1.363 . S
C6422 C6427 1.379 . S
C6422 N6429 1.356 . S
C6423 C6422 1.363 . S
C6423 C6426 1.363 . S
N6424 C6426 1.356 . S
N6424 H6436 0.984 . S
N6424 H6437 0.985 . S
N6425 C6427 1.356 . S
N6425 H6430 0.984 . S
N6425 H6431 0.985 . S
C6426 C6420 1.379 . S
C6426 C6423 1.363 . S
C6426 N6424 1.356 . S
C6427 C6421 1.363 . S
C6427 C6422 1.379 . S
C6427 N6425 1.356 . S
N6428 C6420 1.356 . S
N6428 H6434 0.984 . S
N6428 H6435 0.984 . S
N6429 C6422 1.356 . S
N6429 H6432 0.984 . S
N6429 H6433 0.985 . S
H6430 N6425 0.984 . S
H6431 N6425 0.985 . S
H6432 N6429 0.984 . S
H6433 N6429 0.985 . S
H6434 N6428 0.984 . S
H6435 N6428 0.984 . S
H6436 N6424 0.984 . S
H6437 N6424 0.985 . S
C6438 C6439 1.363 . S
C6438 C6444 1.379 . S
C6438 N6446 1.356 . S
C6439 C6438 1.363 . S
C6439 C6445 1.363 . S
C6440 C6441 1.363 . S
C6440 C6445 1.379 . S
C6440 N6447 1.356 . S
C6441 C6440 1.363 . S
C6441 C6444 1.363 . S
N6442 C6444 1.356 . S
N6442 H6454 0.984 . S
N6442 H6455 0.985 . S
N6443 C6445 1.356 . S
N6443 H6448 0.984 . S
N6443 H6449 0.985 . S
C6444 C6438 1.379 . S
C6444 C6441 1.363 . S
C6444 N6442 1.356 . S
C6445 C6439 1.363 . S
C6445 C6440 1.379 . S
C6445 N6443 1.356 . S
N6446 C6438 1.356 . S
N6446 H6452 0.984 . S
N6446 H6453 0.984 . S
N6447 C6440 1.356 . S
N6447 H6450 0.984 . S
N6447 H6451 0.985 . S
H6448 N6443 0.984 . S
H6449 N6443 0.985 . S
H6450 N6447 0.984 . S
H6451 N6447 0.985 . S
H6452 N6446 0.984 . S
H6453 N6446 0.984 . S
H6454 N6442 0.984 . S
H6455 N6442 0.985 . S
C6456 C6457 1.363 . S
C6456 C6462 1.379 . S
C6456 N6464 1.356 . S
C6457 C6456 1.363 . S
C6457 C6463 1.363 . S
C6458 C6459 1.363 . S
C6458 C6463 1.379 . S
C6458 N6465 1.356 . S
C6459 C6458 1.363 . S
C6459 C6462 1.363 . S
N6460 C6462 1.356 . S
N6460 H6472 0.984 . S
N6460 H6473 0.985 . S
N6461 C6463 1.356 . S
N6461 H6466 0.984 . S
N6461 H6467 0.985 . S
C6462 C6456 1.379 . S
C6462 C6459 1.363 . S
C6462 N6460 1.356 . S
C6463 C6457 1.363 . S
C6463 C6458 1.379 . S
C6463 N6461 1.356 . S
N6464 C6456 1.356 . S
N6464 H6470 0.984 . S
N6464 H6471 0.984 . S
N6465 C6458 1.356 . S
N6465 H6468 0.984 . S
N6465 H6469 0.985 . S
H6466 N6461 0.984 . S
H6467 N6461 0.985 . S
H6468 N6465 0.984 . S
H6469 N6465 0.985 . S
H6470 N6464 0.984 . S
H6471 N6464 0.984 . S
H6472 N6460 0.984 . S
H6473 N6460 0.985 . S
C6474 C6475 1.363 . S
C6474 C6480 1.379 . S
C6474 N6482 1.356 . S
C6475 C6474 1.363 . S
C6475 C6481 1.363 . S
C6476 C6477 1.363 . S
C6476 C6481 1.379 . S
C6476 N6483 1.356 . S
C6477 C6476 1.363 . S
C6477 C6480 1.363 . S
N6478 C6480 1.356 . S
N6478 H6490 0.984 . S
N6478 H6491 0.985 . S
N6479 C6481 1.356 . S
N6479 H6484 0.984 . S
N6479 H6485 0.985 . S
C6480 C6474 1.379 . S
C6480 C6477 1.363 . S
C6480 N6478 1.356 . S
C6481 C6475 1.363 . S
C6481 C6476 1.379 . S
C6481 N6479 1.356 . S
N6482 C6474 1.356 . S
N6482 H6488 0.984 . S
N6482 H6489 0.984 . S
N6483 C6476 1.356 . S
N6483 H6486 0.984 . S
N6483 H6487 0.985 . S
H6484 N6479 0.984 . S
H6485 N6479 0.985 . S
H6486 N6483 0.984 . S
H6487 N6483 0.985 . S
H6488 N6482 0.984 . S
H6489 N6482 0.984 . S
H6490 N6478 0.984 . S
H6491 N6478 0.985 . S
C6492 C6493 1.363 . S
C6492 C6498 1.379 . S
C6492 N6500 1.356 . S
C6493 C6492 1.363 . S
C6493 C6499 1.363 . S
C6494 C6495 1.363 . S
C6494 C6499 1.379 . S
C6494 N6501 1.356 . S
C6495 C6494 1.363 . S
C6495 C6498 1.363 . S
N6496 C6498 1.356 . S
N6496 H6508 0.984 . S
N6496 H6509 0.985 . S
N6497 C6499 1.356 . S
N6497 H6502 0.984 . S
N6497 H6503 0.985 . S
C6498 C6492 1.379 . S
C6498 C6495 1.363 . S
C6498 N6496 1.356 . S
C6499 C6493 1.363 . S
C6499 C6494 1.379 . S
C6499 N6497 1.356 . S
N6500 C6492 1.356 . S
N6500 H6506 0.984 . S
N6500 H6507 0.984 . S
N6501 C6494 1.356 . S
N6501 H6504 0.984 . S
N6501 H6505 0.985 . S
H6502 N6497 0.984 . S
H6503 N6497 0.985 . S
H6504 N6501 0.984 . S
H6505 N6501 0.985 . S
H6506 N6500 0.984 . S
H6507 N6500 0.984 . S
H6508 N6496 0.984 . S
H6509 N6496 0.985 . S
C6510 C6511 1.363 . S
C6510 C6516 1.379 . S
C6510 N6518 1.356 . S
C6511 C6510 1.363 . S
C6511 C6517 1.363 . S
C6512 C6513 1.363 . S
C6512 C6517 1.379 . S
C6512 N6519 1.356 . S
C6513 C6512 1.363 . S
C6513 C6516 1.363 . S
N6514 C6516 1.356 . S
N6514 H6526 0.984 . S
N6514 H6527 0.985 . S
N6515 C6517 1.356 . S
N6515 H6520 0.984 . S
N6515 H6521 0.985 . S
C6516 C6510 1.379 . S
C6516 C6513 1.363 . S
C6516 N6514 1.356 . S
C6517 C6511 1.363 . S
C6517 C6512 1.379 . S
C6517 N6515 1.356 . S
N6518 C6510 1.356 . S
N6518 H6524 0.984 . S
N6518 H6525 0.984 . S
N6519 C6512 1.356 . S
N6519 H6522 0.984 . S
N6519 H6523 0.985 . S
H6520 N6515 0.984 . S
H6521 N6515 0.985 . S
H6522 N6519 0.984 . S
H6523 N6519 0.985 . S
H6524 N6518 0.984 . S
H6525 N6518 0.984 . S
H6526 N6514 0.984 . S
H6527 N6514 0.985 . S
C6528 C6529 1.363 . S
C6528 C6534 1.379 . S
C6528 N6536 1.356 . S
C6529 C6528 1.363 . S
C6529 C6535 1.363 . S
C6530 C6531 1.363 . S
C6530 C6535 1.379 . S
C6530 N6537 1.356 . S
C6531 C6530 1.363 . S
C6531 C6534 1.363 . S
N6532 C6534 1.356 . S
N6532 H6544 0.984 . S
N6532 H6545 0.985 . S
N6533 C6535 1.356 . S
N6533 H6538 0.984 . S
N6533 H6539 0.985 . S
C6534 C6528 1.379 . S
C6534 C6531 1.363 . S
C6534 N6532 1.356 . S
C6535 C6529 1.363 . S
C6535 C6530 1.379 . S
C6535 N6533 1.356 . S
N6536 C6528 1.356 . S
N6536 H6542 0.984 . S
N6536 H6543 0.984 . S
N6537 C6530 1.356 . S
N6537 H6540 0.984 . S
N6537 H6541 0.985 . S
H6538 N6533 0.984 . S
H6539 N6533 0.985 . S
H6540 N6537 0.984 . S
H6541 N6537 0.985 . S
H6542 N6536 0.984 . S
H6543 N6536 0.984 . S
H6544 N6532 0.984 . S
H6545 N6532 0.985 . S
C6546 C6547 1.363 . S
C6546 C6552 1.379 . S
C6546 N6554 1.356 . S
C6547 C6546 1.363 . S
C6547 C6553 1.363 . S
C6548 C6549 1.363 . S
C6548 C6553 1.379 . S
C6548 N6555 1.356 . S
C6549 C6548 1.363 . S
C6549 C6552 1.363 . S
N6550 C6552 1.356 . S
N6550 H6562 0.984 . S
N6550 H6563 0.985 . S
N6551 C6553 1.356 . S
N6551 H6556 0.984 . S
N6551 H6557 0.985 . S
C6552 C6546 1.379 . S
C6552 C6549 1.363 . S
C6552 N6550 1.356 . S
C6553 C6547 1.363 . S
C6553 C6548 1.379 . S
C6553 N6551 1.356 . S
N6554 C6546 1.356 . S
N6554 H6560 0.984 . S
N6554 H6561 0.984 . S
N6555 C6548 1.356 . S
N6555 H6558 0.984 . S
N6555 H6559 0.985 . S
H6556 N6551 0.984 . S
H6557 N6551 0.985 . S
H6558 N6555 0.984 . S
H6559 N6555 0.985 . S
H6560 N6554 0.984 . S
H6561 N6554 0.984 . S
H6562 N6550 0.984 . S
H6563 N6550 0.985 . S
C6564 C6565 1.363 . S
C6564 C6570 1.379 . S
C6564 N6572 1.356 . S
C6565 C6564 1.363 . S
C6565 C6571 1.363 . S
C6566 C6567 1.363 . S
C6566 C6571 1.379 . S
C6566 N6573 1.356 . S
C6567 C6566 1.363 . S
C6567 C6570 1.363 . S
N6568 C6570 1.356 . S
N6568 H6580 0.984 . S
N6568 H6581 0.985 . S
N6569 C6571 1.356 . S
N6569 H6574 0.984 . S
N6569 H6575 0.985 . S
C6570 C6564 1.379 . S
C6570 C6567 1.363 . S
C6570 N6568 1.356 . S
C6571 C6565 1.363 . S
C6571 C6566 1.379 . S
C6571 N6569 1.356 . S
N6572 C6564 1.356 . S
N6572 H6578 0.984 . S
N6572 H6579 0.984 . S
N6573 C6566 1.356 . S
N6573 H6576 0.984 . S
N6573 H6577 0.985 . S
H6574 N6569 0.984 . S
H6575 N6569 0.985 . S
H6576 N6573 0.984 . S
H6577 N6573 0.985 . S
H6578 N6572 0.984 . S
H6579 N6572 0.984 . S
H6580 N6568 0.984 . S
H6581 N6568 0.985 . S
C6582 C6583 1.363 . S
C6582 C6588 1.379 . S
C6582 N6590 1.356 . S
C6583 C6582 1.363 . S
C6583 C6589 1.363 . S
C6584 C6585 1.363 . S
C6584 C6589 1.379 . S
C6584 N6591 1.356 . S
C6585 C6584 1.363 . S
C6585 C6588 1.363 . S
N6586 C6588 1.356 . S
N6586 H6598 0.984 . S
N6586 H6599 0.985 . S
N6587 C6589 1.356 . S
N6587 H6592 0.984 . S
N6587 H6593 0.985 . S
C6588 C6582 1.379 . S
C6588 C6585 1.363 . S
C6588 N6586 1.356 . S
C6589 C6583 1.363 . S
C6589 C6584 1.379 . S
C6589 N6587 1.356 . S
N6590 C6582 1.356 . S
N6590 H6596 0.984 . S
N6590 H6597 0.984 . S
N6591 C6584 1.356 . S
N6591 H6594 0.984 . S
N6591 H6595 0.985 . S
H6592 N6587 0.984 . S
H6593 N6587 0.985 . S
H6594 N6591 0.984 . S
H6595 N6591 0.985 . S
H6596 N6590 0.984 . S
H6597 N6590 0.984 . S
H6598 N6586 0.984 . S
H6599 N6586 0.985 . S
C6600 C6601 1.363 . S
C6600 C6606 1.379 . S
C6600 N6608 1.356 . S
C6601 C6600 1.363 . S
C6601 C6607 1.363 . S
C6602 C6603 1.363 . S
C6602 C6607 1.379 . S
C6602 N6609 1.356 . S
C6603 C6602 1.363 . S
C6603 C6606 1.363 . S
N6604 C6606 1.356 . S
N6604 H6616 0.984 . S
N6604 H6617 0.985 . S
N6605 C6607 1.356 . S
N6605 H6610 0.984 . S
N6605 H6611 0.985 . S
C6606 C6600 1.379 . S
C6606 C6603 1.363 . S
C6606 N6604 1.356 . S
C6607 C6601 1.363 . S
C6607 C6602 1.379 . S
C6607 N6605 1.356 . S
N6608 C6600 1.356 . S
N6608 H6614 0.984 . S
N6608 H6615 0.984 . S
N6609 C6602 1.356 . S
N6609 H6612 0.984 . S
N6609 H6613 0.985 . S
H6610 N6605 0.984 . S
H6611 N6605 0.985 . S
H6612 N6609 0.984 . S
H6613 N6609 0.985 . S
H6614 N6608 0.984 . S
H6615 N6608 0.984 . S
H6616 N6604 0.984 . S
H6617 N6604 0.985 . S
C6618 C6619 1.363 . S
C6618 C6624 1.379 . S
C6618 N6626 1.356 . S
C6619 C6618 1.363 . S
C6619 C6625 1.363 . S
C6620 C6621 1.363 . S
C6620 C6625 1.379 . S
C6620 N6627 1.356 . S
C6621 C6620 1.363 . S
C6621 C6624 1.363 . S
N6622 C6624 1.356 . S
N6622 H6634 0.984 . S
N6622 H6635 0.985 . S
N6623 C6625 1.356 . S
N6623 H6628 0.984 . S
N6623 H6629 0.985 . S
C6624 C6618 1.379 . S
C6624 C6621 1.363 . S
C6624 N6622 1.356 . S
C6625 C6619 1.363 . S
C6625 C6620 1.379 . S
C6625 N6623 1.356 . S
N6626 C6618 1.356 . S
N6626 H6632 0.984 . S
N6626 H6633 0.984 . S
N6627 C6620 1.356 . S
N6627 H6630 0.984 . S
N6627 H6631 0.985 . S
H6628 N6623 0.984 . S
H6629 N6623 0.985 . S
H6630 N6627 0.984 . S
H6631 N6627 0.985 . S
H6632 N6626 0.984 . S
H6633 N6626 0.984 . S
H6634 N6622 0.984 . S
H6635 N6622 0.985 . S
C6636 C6637 1.363 . S
C6636 C6642 1.379 . S
C6636 N6644 1.356 . S
C6637 C6636 1.363 . S
C6637 C6643 1.363 . S
C6638 C6639 1.363 . S
C6638 C6643 1.379 . S
C6638 N6645 1.356 . S
C6639 C6638 1.363 . S
C6639 C6642 1.363 . S
N6640 C6642 1.356 . S
N6640 H6652 0.984 . S
N6640 H6653 0.985 . S
N6641 C6643 1.356 . S
N6641 H6646 0.984 . S
N6641 H6647 0.985 . S
C6642 C6636 1.379 . S
C6642 C6639 1.363 . S
C6642 N6640 1.356 . S
C6643 C6637 1.363 . S
C6643 C6638 1.379 . S
C6643 N6641 1.356 . S
N6644 C6636 1.356 . S
N6644 H6650 0.984 1_545 S
N6644 H6651 0.984 . S
N6645 C6638 1.356 . S
N6645 H6648 0.984 . S
N6645 H6649 0.985 . S
H6646 N6641 0.984 . S
H6647 N6641 0.985 . S
H6648 N6645 0.984 . S
H6649 N6645 0.985 . S
H6650 N6644 0.984 1_565 S
H6651 N6644 0.984 . S
H6652 N6640 0.984 . S
H6653 N6640 0.985 . S
C6654 C6655 1.363 . S
C6654 C6660 1.379 . S
C6654 N6662 1.356 . S
C6655 C6654 1.363 . S
C6655 C6661 1.363 . S
C6656 C6657 1.363 . S
C6656 C6661 1.379 . S
C6656 N6663 1.356 . S
C6657 C6656 1.363 . S
C6657 C6660 1.363 . S
N6658 C6660 1.356 . S
N6658 H6670 0.984 . S
N6658 H6671 0.985 . S
N6659 C6661 1.356 . S
N6659 H6664 0.984 . S
N6659 H6665 0.985 . S
C6660 C6654 1.379 . S
C6660 C6657 1.363 . S
C6660 N6658 1.356 . S
C6661 C6655 1.363 . S
C6661 C6656 1.379 . S
C6661 N6659 1.356 . S
N6662 C6654 1.356 . S
N6662 H6668 0.984 . S
N6662 H6669 0.984 . S
N6663 C6656 1.356 . S
N6663 H6666 0.984 . S
N6663 H6667 0.985 . S
H6664 N6659 0.984 . S
H6665 N6659 0.985 . S
H6666 N6663 0.984 . S
H6667 N6663 0.985 . S
H6668 N6662 0.984 . S
H6669 N6662 0.984 . S
H6670 N6658 0.984 . S
H6671 N6658 0.985 . S
C6672 C6673 1.363 . S
C6672 C6678 1.379 . S
C6672 N6680 1.356 . S
C6673 C6672 1.363 . S
C6673 C6679 1.363 . S
C6674 C6675 1.363 . S
C6674 C6679 1.379 . S
C6674 N6681 1.356 . S
C6675 C6674 1.363 . S
C6675 C6678 1.363 . S
N6676 C6678 1.356 . S
N6676 H6688 0.984 . S
N6676 H6689 0.985 . S
N6677 C6679 1.356 . S
N6677 H6682 0.984 . S
N6677 H6683 0.985 . S
C6678 C6672 1.379 . S
C6678 C6675 1.363 . S
C6678 N6676 1.356 . S
C6679 C6673 1.363 . S
C6679 C6674 1.379 . S
C6679 N6677 1.356 . S
N6680 C6672 1.356 . S
N6680 H6686 0.984 . S
N6680 H6687 0.984 . S
N6681 C6674 1.356 . S
N6681 H6684 0.984 . S
N6681 H6685 0.985 . S
H6682 N6677 0.984 . S
H6683 N6677 0.985 . S
H6684 N6681 0.984 . S
H6685 N6681 0.985 . S
H6686 N6680 0.984 . S
H6687 N6680 0.984 . S
H6688 N6676 0.984 . S
H6689 N6676 0.985 . S
C6690 C6691 1.363 . S
C6690 C6696 1.379 . S
C6690 N6698 1.356 . S
C6691 C6690 1.363 . S
C6691 C6697 1.363 . S
C6692 C6693 1.363 . S
C6692 C6697 1.379 . S
C6692 N6699 1.356 . S
C6693 C6692 1.363 . S
C6693 C6696 1.363 . S
N6694 C6696 1.356 . S
N6694 H6706 0.984 . S
N6694 H6707 0.985 . S
N6695 C6697 1.356 . S
N6695 H6700 0.984 . S
N6695 H6701 0.985 . S
C6696 C6690 1.379 . S
C6696 C6693 1.363 . S
C6696 N6694 1.356 . S
C6697 C6691 1.363 . S
C6697 C6692 1.379 . S
C6697 N6695 1.356 . S
N6698 C6690 1.356 . S
N6698 H6704 0.984 . S
N6698 H6705 0.984 . S
N6699 C6692 1.356 . S
N6699 H6702 0.984 . S
N6699 H6703 0.985 . S
H6700 N6695 0.984 . S
H6701 N6695 0.985 . S
H6702 N6699 0.984 . S
H6703 N6699 0.985 . S
H6704 N6698 0.984 . S
H6705 N6698 0.984 . S
H6706 N6694 0.984 . S
H6707 N6694 0.985 . S
C6708 C6709 1.363 . S
C6708 C6714 1.379 . S
C6708 N6716 1.356 . S
C6709 C6708 1.363 . S
C6709 C6715 1.363 . S
C6710 C6711 1.363 . S
C6710 C6715 1.379 . S
C6710 N6717 1.356 . S
C6711 C6710 1.363 . S
C6711 C6714 1.363 . S
N6712 C6714 1.356 . S
N6712 H6724 0.984 . S
N6712 H6725 0.985 . S
N6713 C6715 1.356 . S
N6713 H6718 0.984 . S
N6713 H6719 0.985 . S
C6714 C6708 1.379 . S
C6714 C6711 1.363 . S
C6714 N6712 1.356 . S
C6715 C6709 1.363 . S
C6715 C6710 1.379 . S
C6715 N6713 1.356 . S
N6716 C6708 1.356 . S
N6716 H6722 0.984 . S
N6716 H6723 0.984 . S
N6717 C6710 1.356 . S
N6717 H6720 0.984 . S
N6717 H6721 0.985 . S
H6718 N6713 0.984 . S
H6719 N6713 0.985 . S
H6720 N6717 0.984 . S
H6721 N6717 0.985 . S
H6722 N6716 0.984 . S
H6723 N6716 0.984 . S
H6724 N6712 0.984 . S
H6725 N6712 0.985 . S
C6726 C6727 1.363 . S
C6726 C6732 1.379 . S
C6726 N6734 1.356 . S
C6727 C6726 1.363 . S
C6727 C6733 1.363 . S
C6728 C6729 1.363 . S
C6728 C6733 1.379 . S
C6728 N6735 1.356 . S
C6729 C6728 1.363 . S
C6729 C6732 1.363 . S
N6730 C6732 1.356 . S
N6730 H6742 0.984 . S
N6730 H6743 0.985 . S
N6731 C6733 1.356 . S
N6731 H6736 0.984 . S
N6731 H6737 0.985 . S
C6732 C6726 1.379 . S
C6732 C6729 1.363 . S
C6732 N6730 1.356 . S
C6733 C6727 1.363 . S
C6733 C6728 1.379 . S
C6733 N6731 1.356 . S
N6734 C6726 1.356 . S
N6734 H6740 0.984 . S
N6734 H6741 0.984 . S
N6735 C6728 1.356 . S
N6735 H6738 0.984 . S
N6735 H6739 0.985 . S
H6736 N6731 0.984 . S
H6737 N6731 0.985 . S
H6738 N6735 0.984 . S
H6739 N6735 0.985 . S
H6740 N6734 0.984 . S
H6741 N6734 0.984 . S
H6742 N6730 0.984 . S
H6743 N6730 0.985 . S
C6744 C6745 1.363 . S
C6744 C6750 1.379 . S
C6744 N6752 1.356 . S
C6745 C6744 1.363 . S
C6745 C6751 1.363 . S
C6746 C6747 1.363 . S
C6746 C6751 1.379 . S
C6746 N6753 1.356 . S
C6747 C6746 1.363 . S
C6747 C6750 1.363 . S
N6748 C6750 1.356 . S
N6748 H6760 0.984 . S
N6748 H6761 0.985 . S
N6749 C6751 1.356 . S
N6749 H6754 0.984 . S
N6749 H6755 0.985 . S
C6750 C6744 1.379 . S
C6750 C6747 1.363 . S
C6750 N6748 1.356 . S
C6751 C6745 1.363 . S
C6751 C6746 1.379 . S
C6751 N6749 1.356 . S
N6752 C6744 1.356 . S
N6752 H6758 0.984 . S
N6752 H6759 0.984 . S
N6753 C6746 1.356 . S
N6753 H6756 0.984 . S
N6753 H6757 0.985 . S
H6754 N6749 0.984 . S
H6755 N6749 0.985 . S
H6756 N6753 0.984 . S
H6757 N6753 0.985 . S
H6758 N6752 0.984 . S
H6759 N6752 0.984 . S
H6760 N6748 0.984 . S
H6761 N6748 0.985 . S
C6762 C6763 1.363 . S
C6762 C6768 1.379 . S
C6762 N6770 1.356 . S
C6763 C6762 1.363 . S
C6763 C6769 1.363 . S
C6764 C6765 1.363 . S
C6764 C6769 1.379 . S
C6764 N6771 1.356 . S
C6765 C6764 1.363 . S
C6765 C6768 1.363 . S
N6766 C6768 1.356 . S
N6766 H6778 0.984 . S
N6766 H6779 0.985 . S
N6767 C6769 1.356 . S
N6767 H6772 0.984 . S
N6767 H6773 0.985 . S
C6768 C6762 1.379 . S
C6768 C6765 1.363 . S
C6768 N6766 1.356 . S
C6769 C6763 1.363 . S
C6769 C6764 1.379 . S
C6769 N6767 1.356 . S
N6770 C6762 1.356 . S
N6770 H6776 0.984 . S
N6770 H6777 0.984 . S
N6771 C6764 1.356 . S
N6771 H6774 0.984 . S
N6771 H6775 0.985 . S
H6772 N6767 0.984 . S
H6773 N6767 0.985 . S
H6774 N6771 0.984 . S
H6775 N6771 0.985 . S
H6776 N6770 0.984 . S
H6777 N6770 0.984 . S
H6778 N6766 0.984 . S
H6779 N6766 0.985 . S
C6780 C6781 1.363 . S
C6780 C6786 1.379 . S
C6780 N6788 1.356 . S
C6781 C6780 1.363 . S
C6781 C6787 1.363 . S
C6782 C6783 1.363 . S
C6782 C6787 1.379 . S
C6782 N6789 1.356 . S
C6783 C6782 1.363 . S
C6783 C6786 1.363 . S
N6784 C6786 1.356 . S
N6784 H6796 0.984 . S
N6784 H6797 0.985 . S
N6785 C6787 1.356 . S
N6785 H6790 0.984 . S
N6785 H6791 0.985 . S
C6786 C6780 1.379 . S
C6786 C6783 1.363 . S
C6786 N6784 1.356 . S
C6787 C6781 1.363 . S
C6787 C6782 1.379 . S
C6787 N6785 1.356 . S
N6788 C6780 1.356 . S
N6788 H6794 0.984 . S
N6788 H6795 0.984 . S
N6789 C6782 1.356 . S
N6789 H6792 0.984 . S
N6789 H6793 0.985 . S
H6790 N6785 0.984 . S
H6791 N6785 0.985 . S
H6792 N6789 0.984 . S
H6793 N6789 0.985 . S
H6794 N6788 0.984 . S
H6795 N6788 0.984 . S
H6796 N6784 0.984 . S
H6797 N6784 0.985 . S
C6798 C6799 1.363 . S
C6798 C6804 1.379 . S
C6798 N6806 1.356 . S
C6799 C6798 1.363 . S
C6799 C6805 1.363 . S
C6800 C6801 1.363 . S
C6800 C6805 1.379 . S
C6800 N6807 1.356 . S
C6801 C6800 1.363 . S
C6801 C6804 1.363 . S
N6802 C6804 1.356 . S
N6802 H6814 0.984 . S
N6802 H6815 0.985 . S
N6803 C6805 1.356 . S
N6803 H6808 0.984 . S
N6803 H6809 0.985 . S
C6804 C6798 1.379 . S
C6804 C6801 1.363 . S
C6804 N6802 1.356 . S
C6805 C6799 1.363 . S
C6805 C6800 1.379 . S
C6805 N6803 1.356 . S
N6806 C6798 1.356 . S
N6806 H6812 0.984 . S
N6806 H6813 0.984 . S
N6807 C6800 1.356 . S
N6807 H6810 0.984 . S
N6807 H6811 0.985 . S
H6808 N6803 0.984 . S
H6809 N6803 0.985 . S
H6810 N6807 0.984 . S
H6811 N6807 0.985 . S
H6812 N6806 0.984 . S
H6813 N6806 0.984 . S
H6814 N6802 0.984 . S
H6815 N6802 0.985 . S
C6816 C6817 1.363 . S
C6816 C6822 1.379 . S
C6816 N6824 1.356 . S
C6817 C6816 1.363 . S
C6817 C6823 1.363 . S
C6818 C6819 1.363 . S
C6818 C6823 1.379 . S
C6818 N6825 1.356 . S
C6819 C6818 1.363 . S
C6819 C6822 1.363 . S
N6820 C6822 1.356 . S
N6820 H6832 0.984 . S
N6820 H6833 0.985 . S
N6821 C6823 1.356 . S
N6821 H6826 0.984 . S
N6821 H6827 0.985 . S
C6822 C6816 1.379 . S
C6822 C6819 1.363 . S
C6822 N6820 1.356 . S
C6823 C6817 1.363 . S
C6823 C6818 1.379 . S
C6823 N6821 1.356 . S
N6824 C6816 1.356 . S
N6824 H6830 0.984 . S
N6824 H6831 0.984 . S
N6825 C6818 1.356 . S
N6825 H6828 0.984 . S
N6825 H6829 0.985 . S
H6826 N6821 0.984 . S
H6827 N6821 0.985 . S
H6828 N6825 0.984 . S
H6829 N6825 0.985 . S
H6830 N6824 0.984 . S
H6831 N6824 0.984 . S
H6832 N6820 0.984 . S
H6833 N6820 0.985 . S
C6834 C6835 1.363 . S
C6834 C6840 1.379 . S
C6834 N6842 1.356 . S
C6835 C6834 1.363 . S
C6835 C6841 1.363 . S
C6836 C6837 1.363 . S
C6836 C6841 1.379 . S
C6836 N6843 1.356 . S
C6837 C6836 1.363 . S
C6837 C6840 1.363 . S
N6838 C6840 1.356 . S
N6838 H6850 0.984 . S
N6838 H6851 0.985 . S
N6839 C6841 1.356 . S
N6839 H6844 0.984 . S
N6839 H6845 0.985 . S
C6840 C6834 1.379 . S
C6840 C6837 1.363 . S
C6840 N6838 1.356 . S
C6841 C6835 1.363 . S
C6841 C6836 1.379 . S
C6841 N6839 1.356 . S
N6842 C6834 1.356 . S
N6842 H6848 0.984 . S
N6842 H6849 0.984 . S
N6843 C6836 1.356 . S
N6843 H6846 0.984 . S
N6843 H6847 0.985 . S
H6844 N6839 0.984 . S
H6845 N6839 0.985 . S
H6846 N6843 0.984 . S
H6847 N6843 0.985 . S
H6848 N6842 0.984 . S
H6849 N6842 0.984 . S
H6850 N6838 0.984 . S
H6851 N6838 0.985 . S
C6852 C6853 1.363 . S
C6852 C6858 1.379 . S
C6852 N6860 1.356 . S
C6853 C6852 1.363 . S
C6853 C6859 1.363 . S
C6854 C6855 1.363 . S
C6854 C6859 1.379 . S
C6854 N6861 1.356 . S
C6855 C6854 1.363 . S
C6855 C6858 1.363 . S
N6856 C6858 1.356 . S
N6856 H6868 0.984 . S
N6856 H6869 0.985 . S
N6857 C6859 1.356 . S
N6857 H6862 0.984 . S
N6857 H6863 0.985 . S
C6858 C6852 1.379 . S
C6858 C6855 1.363 . S
C6858 N6856 1.356 . S
C6859 C6853 1.363 . S
C6859 C6854 1.379 . S
C6859 N6857 1.356 . S
N6860 C6852 1.356 . S
N6860 H6866 0.984 . S
N6860 H6867 0.984 . S
N6861 C6854 1.356 . S
N6861 H6864 0.984 . S
N6861 H6865 0.985 . S
H6862 N6857 0.984 . S
H6863 N6857 0.985 . S
H6864 N6861 0.984 . S
H6865 N6861 0.985 . S
H6866 N6860 0.984 . S
H6867 N6860 0.984 . S
H6868 N6856 0.984 . S
H6869 N6856 0.985 . S
C6870 C6871 1.363 . S
C6870 C6876 1.379 . S
C6870 N6878 1.356 . S
C6871 C6870 1.363 . S
C6871 C6877 1.363 . S
C6872 C6873 1.363 . S
C6872 C6877 1.379 . S
C6872 N6879 1.356 . S
C6873 C6872 1.363 . S
C6873 C6876 1.363 . S
N6874 C6876 1.356 . S
N6874 H6886 0.984 . S
N6874 H6887 0.985 . S
N6875 C6877 1.356 . S
N6875 H6880 0.984 . S
N6875 H6881 0.985 . S
C6876 C6870 1.379 . S
C6876 C6873 1.363 . S
C6876 N6874 1.356 . S
C6877 C6871 1.363 . S
C6877 C6872 1.379 . S
C6877 N6875 1.356 . S
N6878 C6870 1.356 . S
N6878 H6884 0.984 . S
N6878 H6885 0.984 . S
N6879 C6872 1.356 . S
N6879 H6882 0.984 . S
N6879 H6883 0.985 . S
H6880 N6875 0.984 . S
H6881 N6875 0.985 . S
H6882 N6879 0.984 . S
H6883 N6879 0.985 . S
H6884 N6878 0.984 . S
H6885 N6878 0.984 . S
H6886 N6874 0.984 . S
H6887 N6874 0.985 . S
C6888 C6889 1.363 . S
C6888 C6894 1.379 . S
C6888 N6896 1.356 . S
C6889 C6888 1.363 . S
C6889 C6895 1.363 . S
C6890 C6891 1.363 . S
C6890 C6895 1.379 . S
C6890 N6897 1.356 . S
C6891 C6890 1.363 . S
C6891 C6894 1.363 . S
N6892 C6894 1.356 . S
N6892 H6904 0.984 . S
N6892 H6905 0.985 . S
N6893 C6895 1.356 . S
N6893 H6898 0.984 . S
N6893 H6899 0.985 . S
C6894 C6888 1.379 . S
C6894 C6891 1.363 . S
C6894 N6892 1.356 . S
C6895 C6889 1.363 . S
C6895 C6890 1.379 . S
C6895 N6893 1.356 . S
N6896 C6888 1.356 . S
N6896 H6902 0.984 . S
N6896 H6903 0.984 . S
N6897 C6890 1.356 . S
N6897 H6900 0.984 . S
N6897 H6901 0.985 . S
H6898 N6893 0.984 . S
H6899 N6893 0.985 . S
H6900 N6897 0.984 . S
H6901 N6897 0.985 . S
H6902 N6896 0.984 . S
H6903 N6896 0.984 . S
H6904 N6892 0.984 . S
H6905 N6892 0.985 . S
C6906 C6907 1.363 . S
C6906 C6912 1.379 . S
C6906 N6914 1.356 . S
C6907 C6906 1.363 . S
C6907 C6913 1.363 . S
C6908 C6909 1.363 . S
C6908 C6913 1.379 . S
C6908 N6915 1.356 . S
C6909 C6908 1.363 . S
C6909 C6912 1.363 . S
N6910 C6912 1.356 . S
N6910 H6922 0.984 . S
N6910 H6923 0.985 . S
N6911 C6913 1.356 . S
N6911 H6916 0.984 . S
N6911 H6917 0.985 . S
C6912 C6906 1.379 . S
C6912 C6909 1.363 . S
C6912 N6910 1.356 . S
C6913 C6907 1.363 . S
C6913 C6908 1.379 . S
C6913 N6911 1.356 . S
N6914 C6906 1.356 . S
N6914 H6920 0.984 . S
N6914 H6921 0.984 . S
N6915 C6908 1.356 . S
N6915 H6918 0.984 . S
N6915 H6919 0.985 . S
H6916 N6911 0.984 . S
H6917 N6911 0.985 . S
H6918 N6915 0.984 . S
H6919 N6915 0.985 . S
H6920 N6914 0.984 . S
H6921 N6914 0.984 . S
H6922 N6910 0.984 . S
H6923 N6910 0.985 . S
C6924 C6925 1.363 . S
C6924 C6930 1.379 . S
C6924 N6932 1.356 . S
C6925 C6924 1.363 . S
C6925 C6931 1.363 . S
C6926 C6927 1.363 . S
C6926 C6931 1.379 . S
C6926 N6933 1.356 . S
C6927 C6926 1.363 . S
C6927 C6930 1.363 . S
N6928 C6930 1.356 . S
N6928 H6940 0.984 . S
N6928 H6941 0.985 . S
N6929 C6931 1.356 . S
N6929 H6934 0.984 . S
N6929 H6935 0.985 . S
C6930 C6924 1.379 . S
C6930 C6927 1.363 . S
C6930 N6928 1.356 . S
C6931 C6925 1.363 . S
C6931 C6926 1.379 . S
C6931 N6929 1.356 . S
N6932 C6924 1.356 . S
N6932 H6938 0.984 . S
N6932 H6939 0.984 . S
N6933 C6926 1.356 . S
N6933 H6936 0.984 . S
N6933 H6937 0.985 . S
H6934 N6929 0.984 . S
H6935 N6929 0.985 . S
H6936 N6933 0.984 . S
H6937 N6933 0.985 . S
H6938 N6932 0.984 . S
H6939 N6932 0.984 . S
H6940 N6928 0.984 . S
H6941 N6928 0.985 . S
C6942 C6943 1.363 . S
C6942 C6948 1.379 . S
C6942 N6950 1.356 . S
C6943 C6942 1.363 . S
C6943 C6949 1.363 . S
C6944 C6945 1.363 . S
C6944 C6949 1.379 . S
C6944 N6951 1.356 . S
C6945 C6944 1.363 . S
C6945 C6948 1.363 . S
N6946 C6948 1.356 . S
N6946 H6958 0.984 . S
N6946 H6959 0.985 . S
N6947 C6949 1.356 . S
N6947 H6952 0.984 . S
N6947 H6953 0.985 . S
C6948 C6942 1.379 . S
C6948 C6945 1.363 . S
C6948 N6946 1.356 . S
C6949 C6943 1.363 . S
C6949 C6944 1.379 . S
C6949 N6947 1.356 . S
N6950 C6942 1.356 . S
N6950 H6956 0.984 . S
N6950 H6957 0.984 . S
N6951 C6944 1.356 . S
N6951 H6954 0.984 . S
N6951 H6955 0.985 . S
H6952 N6947 0.984 . S
H6953 N6947 0.985 . S
H6954 N6951 0.984 . S
H6955 N6951 0.985 . S
H6956 N6950 0.984 . S
H6957 N6950 0.984 . S
H6958 N6946 0.984 . S
H6959 N6946 0.985 . S
C6960 C6961 1.363 . S
C6960 C6966 1.379 . S
C6960 N6968 1.356 . S
C6961 C6960 1.363 . S
C6961 C6967 1.363 . S
C6962 C6963 1.363 . S
C6962 C6967 1.379 . S
C6962 N6969 1.356 . S
C6963 C6962 1.363 . S
C6963 C6966 1.363 . S
N6964 C6966 1.356 . S
N6964 H6976 0.984 . S
N6964 H6977 0.985 . S
N6965 C6967 1.356 . S
N6965 H6970 0.984 . S
N6965 H6971 0.985 . S
C6966 C6960 1.379 . S
C6966 C6963 1.363 . S
C6966 N6964 1.356 . S
C6967 C6961 1.363 . S
C6967 C6962 1.379 . S
C6967 N6965 1.356 . S
N6968 C6960 1.356 . S
N6968 H6974 0.984 . S
N6968 H6975 0.984 . S
N6969 C6962 1.356 . S
N6969 H6972 0.984 . S
N6969 H6973 0.985 . S
H6970 N6965 0.984 . S
H6971 N6965 0.985 . S
H6972 N6969 0.984 . S
H6973 N6969 0.985 . S
H6974 N6968 0.984 . S
H6975 N6968 0.984 . S
H6976 N6964 0.984 . S
H6977 N6964 0.985 . S
C6978 C6979 1.363 . S
C6978 C6984 1.379 . S
C6978 N6986 1.356 . S
C6979 C6978 1.363 . S
C6979 C6985 1.363 . S
C6980 C6981 1.363 . S
C6980 C6985 1.379 . S
C6980 N6987 1.356 . S
C6981 C6980 1.363 . S
C6981 C6984 1.363 . S
N6982 C6984 1.356 . S
N6982 H6994 0.984 . S
N6982 H6995 0.985 . S
N6983 C6985 1.356 . S
N6983 H6988 0.984 . S
N6983 H6989 0.985 . S
C6984 C6978 1.379 . S
C6984 C6981 1.363 . S
C6984 N6982 1.356 . S
C6985 C6979 1.363 . S
C6985 C6980 1.379 . S
C6985 N6983 1.356 . S
N6986 C6978 1.356 . S
N6986 H6992 0.984 . S
N6986 H6993 0.984 . S
N6987 C6980 1.356 . S
N6987 H6990 0.984 . S
N6987 H6991 0.985 . S
H6988 N6983 0.984 . S
H6989 N6983 0.985 . S
H6990 N6987 0.984 . S
H6991 N6987 0.985 . S
H6992 N6986 0.984 . S
H6993 N6986 0.984 . S
H6994 N6982 0.984 . S
H6995 N6982 0.985 . S
C6996 C6997 1.363 . S
C6996 C7002 1.379 . S
C6996 N7004 1.356 . S
C6997 C6996 1.363 . S
C6997 C7003 1.363 . S
C6998 C6999 1.363 . S
C6998 C7003 1.379 . S
C6998 N7005 1.356 . S
C6999 C6998 1.363 . S
C6999 C7002 1.363 . S
N7000 C7002 1.356 . S
N7000 H7012 0.984 . S
N7000 H7013 0.985 . S
N7001 C7003 1.356 . S
N7001 H7006 0.984 . S
N7001 H7007 0.985 . S
C7002 C6996 1.379 . S
C7002 C6999 1.363 . S
C7002 N7000 1.356 . S
C7003 C6997 1.363 . S
C7003 C6998 1.379 . S
C7003 N7001 1.356 . S
N7004 C6996 1.356 . S
N7004 H7010 0.984 . S
N7004 H7011 0.984 . S
N7005 C6998 1.356 . S
N7005 H7008 0.984 . S
N7005 H7009 0.985 . S
H7006 N7001 0.984 . S
H7007 N7001 0.985 . S
H7008 N7005 0.984 . S
H7009 N7005 0.985 . S
H7010 N7004 0.984 . S
H7011 N7004 0.984 . S
H7012 N7000 0.984 . S
H7013 N7000 0.985 . S
C7014 C7015 1.363 . S
C7014 C7020 1.379 . S
C7014 N7022 1.356 . S
C7015 C7014 1.363 . S
C7015 C7021 1.363 . S
C7016 C7017 1.363 . S
C7016 C7021 1.379 . S
C7016 N7023 1.356 . S
C7017 C7016 1.363 . S
C7017 C7020 1.363 . S
N7018 C7020 1.356 . S
N7018 H7030 0.984 . S
N7018 H7031 0.985 . S
N7019 C7021 1.356 . S
N7019 H7024 0.984 . S
N7019 H7025 0.985 . S
C7020 C7014 1.379 . S
C7020 C7017 1.363 . S
C7020 N7018 1.356 . S
C7021 C7015 1.363 . S
C7021 C7016 1.379 . S
C7021 N7019 1.356 . S
N7022 C7014 1.356 . S
N7022 H7028 0.984 . S
N7022 H7029 0.984 . S
N7023 C7016 1.356 . S
N7023 H7026 0.984 . S
N7023 H7027 0.985 . S
H7024 N7019 0.984 . S
H7025 N7019 0.985 . S
H7026 N7023 0.984 . S
H7027 N7023 0.985 . S
H7028 N7022 0.984 . S
H7029 N7022 0.984 . S
H7030 N7018 0.984 . S
H7031 N7018 0.985 . S
C7032 C7033 1.363 . S
C7032 C7038 1.379 . S
C7032 N7040 1.356 . S
C7033 C7032 1.363 . S
C7033 C7039 1.363 . S
C7034 C7035 1.363 . S
C7034 C7039 1.379 . S
C7034 N7041 1.356 . S
C7035 C7034 1.363 . S
C7035 C7038 1.363 . S
N7036 C7038 1.356 . S
N7036 H7048 0.984 . S
N7036 H7049 0.985 . S
N7037 C7039 1.356 . S
N7037 H7042 0.984 . S
N7037 H7043 0.985 . S
C7038 C7032 1.379 . S
C7038 C7035 1.363 . S
C7038 N7036 1.356 . S
C7039 C7033 1.363 . S
C7039 C7034 1.379 . S
C7039 N7037 1.356 . S
N7040 C7032 1.356 . S
N7040 H7046 0.984 . S
N7040 H7047 0.984 . S
N7041 C7034 1.356 . S
N7041 H7044 0.984 . S
N7041 H7045 0.985 . S
H7042 N7037 0.984 . S
H7043 N7037 0.985 . S
H7044 N7041 0.984 . S
H7045 N7041 0.985 . S
H7046 N7040 0.984 . S
H7047 N7040 0.984 . S
H7048 N7036 0.984 . S
H7049 N7036 0.985 . S
C7050 C7051 1.363 . S
C7050 C7056 1.379 . S
C7050 N7058 1.356 . S
C7051 C7050 1.363 . S
C7051 C7057 1.363 . S
C7052 C7053 1.363 . S
C7052 C7057 1.379 . S
C7052 N7059 1.356 . S
C7053 C7052 1.363 . S
C7053 C7056 1.363 . S
N7054 C7056 1.356 . S
N7054 H7066 0.984 . S
N7054 H7067 0.985 . S
N7055 C7057 1.356 . S
N7055 H7060 0.984 . S
N7055 H7061 0.985 . S
C7056 C7050 1.379 . S
C7056 C7053 1.363 . S
C7056 N7054 1.356 . S
C7057 C7051 1.363 . S
C7057 C7052 1.379 . S
C7057 N7055 1.356 . S
N7058 C7050 1.356 . S
N7058 H7064 0.984 . S
N7058 H7065 0.984 . S
N7059 C7052 1.356 . S
N7059 H7062 0.984 . S
N7059 H7063 0.985 . S
H7060 N7055 0.984 . S
H7061 N7055 0.985 . S
H7062 N7059 0.984 . S
H7063 N7059 0.985 . S
H7064 N7058 0.984 . S
H7065 N7058 0.984 . S
H7066 N7054 0.984 . S
H7067 N7054 0.985 . S
C7068 C7069 1.363 . S
C7068 C7074 1.379 . S
C7068 N7076 1.356 . S
C7069 C7068 1.363 . S
C7069 C7075 1.363 . S
C7070 C7071 1.363 . S
C7070 C7075 1.379 . S
C7070 N7077 1.356 . S
C7071 C7070 1.363 . S
C7071 C7074 1.363 . S
N7072 C7074 1.356 . S
N7072 H7084 0.984 . S
N7072 H7085 0.985 . S
N7073 C7075 1.356 . S
N7073 H7078 0.984 . S
N7073 H7079 0.985 . S
C7074 C7068 1.379 . S
C7074 C7071 1.363 . S
C7074 N7072 1.356 . S
C7075 C7069 1.363 . S
C7075 C7070 1.379 . S
C7075 N7073 1.356 . S
N7076 C7068 1.356 . S
N7076 H7082 0.984 . S
N7076 H7083 0.984 . S
N7077 C7070 1.356 . S
N7077 H7080 0.984 . S
N7077 H7081 0.985 . S
H7078 N7073 0.984 . S
H7079 N7073 0.985 . S
H7080 N7077 0.984 . S
H7081 N7077 0.985 . S
H7082 N7076 0.984 . S
H7083 N7076 0.984 . S
H7084 N7072 0.984 . S
H7085 N7072 0.985 . S
C7086 C7087 1.363 . S
C7086 C7092 1.379 . S
C7086 N7094 1.356 . S
C7087 C7086 1.363 . S
C7087 C7093 1.363 . S
C7088 C7089 1.363 . S
C7088 C7093 1.379 . S
C7088 N7095 1.356 . S
C7089 C7088 1.363 . S
C7089 C7092 1.363 . S
N7090 C7092 1.356 . S
N7090 H7102 0.984 . S
N7090 H7103 0.985 . S
N7091 C7093 1.356 . S
N7091 H7096 0.984 . S
N7091 H7097 0.985 . S
C7092 C7086 1.379 . S
C7092 C7089 1.363 . S
C7092 N7090 1.356 . S
C7093 C7087 1.363 . S
C7093 C7088 1.379 . S
C7093 N7091 1.356 . S
N7094 C7086 1.356 . S
N7094 H7100 0.984 . S
N7094 H7101 0.984 . S
N7095 C7088 1.356 . S
N7095 H7098 0.984 . S
N7095 H7099 0.985 . S
H7096 N7091 0.984 . S
H7097 N7091 0.985 . S
H7098 N7095 0.984 . S
H7099 N7095 0.985 . S
H7100 N7094 0.984 . S
H7101 N7094 0.984 . S
H7102 N7090 0.984 . S
H7103 N7090 0.985 . S
C7104 C7105 1.363 . S
C7104 C7110 1.379 . S
C7104 N7112 1.356 . S
C7105 C7104 1.363 . S
C7105 C7111 1.363 . S
C7106 C7107 1.363 . S
C7106 C7111 1.379 . S
C7106 N7113 1.356 . S
C7107 C7106 1.363 . S
C7107 C7110 1.363 . S
N7108 C7110 1.356 . S
N7108 H7120 0.984 . S
N7108 H7121 0.985 . S
N7109 C7111 1.356 . S
N7109 H7114 0.984 . S
N7109 H7115 0.985 . S
C7110 C7104 1.379 . S
C7110 C7107 1.363 . S
C7110 N7108 1.356 . S
C7111 C7105 1.363 . S
C7111 C7106 1.379 . S
C7111 N7109 1.356 . S
N7112 C7104 1.356 . S
N7112 H7118 0.984 . S
N7112 H7119 0.984 . S
N7113 C7106 1.356 . S
N7113 H7116 0.984 . S
N7113 H7117 0.985 . S
H7114 N7109 0.984 . S
H7115 N7109 0.985 . S
H7116 N7113 0.984 . S
H7117 N7113 0.985 . S
H7118 N7112 0.984 . S
H7119 N7112 0.984 . S
H7120 N7108 0.984 . S
H7121 N7108 0.985 . S
C7122 C7123 1.363 . S
C7122 C7128 1.379 . S
C7122 N7130 1.356 . S
C7123 C7122 1.363 . S
C7123 C7129 1.363 . S
C7124 C7125 1.363 . S
C7124 C7129 1.379 . S
C7124 N7131 1.356 . S
C7125 C7124 1.363 . S
C7125 C7128 1.363 . S
N7126 C7128 1.356 . S
N7126 H7138 0.984 . S
N7126 H7139 0.985 . S
N7127 C7129 1.356 . S
N7127 H7132 0.984 . S
N7127 H7133 0.985 . S
C7128 C7122 1.379 . S
C7128 C7125 1.363 . S
C7128 N7126 1.356 . S
C7129 C7123 1.363 . S
C7129 C7124 1.379 . S
C7129 N7127 1.356 . S
N7130 C7122 1.356 . S
N7130 H7136 0.984 . S
N7130 H7137 0.984 . S
N7131 C7124 1.356 . S
N7131 H7134 0.984 . S
N7131 H7135 0.985 . S
H7132 N7127 0.984 . S
H7133 N7127 0.985 . S
H7134 N7131 0.984 . S
H7135 N7131 0.985 . S
H7136 N7130 0.984 . S
H7137 N7130 0.984 . S
H7138 N7126 0.984 . S
H7139 N7126 0.985 . S
C7140 C7141 1.363 . S
C7140 C7146 1.379 . S
C7140 N7148 1.356 . S
C7141 C7140 1.363 . S
C7141 C7147 1.363 . S
C7142 C7143 1.363 . S
C7142 C7147 1.379 . S
C7142 N7149 1.356 . S
C7143 C7142 1.363 . S
C7143 C7146 1.363 . S
N7144 C7146 1.356 . S
N7144 H7156 0.984 1_554 S
N7144 H7157 0.985 . S
N7145 C7147 1.356 . S
N7145 H7150 0.984 . S
N7145 H7151 0.985 . S
C7146 C7140 1.379 . S
C7146 C7143 1.363 . S
C7146 N7144 1.356 . S
C7147 C7141 1.363 . S
C7147 C7142 1.379 . S
C7147 N7145 1.356 . S
N7148 C7140 1.356 . S
N7148 H7154 0.984 . S
N7148 H7155 0.984 . S
N7149 C7142 1.356 . S
N7149 H7152 0.984 . S
N7149 H7153 0.985 . S
H7150 N7145 0.984 . S
H7151 N7145 0.985 . S
H7152 N7149 0.984 . S
H7153 N7149 0.985 . S
H7154 N7148 0.984 . S
H7155 N7148 0.984 . S
H7156 N7144 0.984 1_556 S
H7157 N7144 0.985 . S
C7158 C7159 1.363 . S
C7158 C7164 1.379 . S
C7158 N7166 1.356 . S
C7159 C7158 1.363 . S
C7159 C7165 1.363 . S
C7160 C7161 1.363 . S
C7160 C7165 1.379 . S
C7160 N7167 1.356 . S
C7161 C7160 1.363 . S
C7161 C7164 1.363 . S
N7162 C7164 1.356 . S
N7162 H7174 0.984 . S
N7162 H7175 0.985 . S
N7163 C7165 1.356 . S
N7163 H7168 0.984 . S
N7163 H7169 0.985 . S
C7164 C7158 1.379 . S
C7164 C7161 1.363 . S
C7164 N7162 1.356 . S
C7165 C7159 1.363 . S
C7165 C7160 1.379 . S
C7165 N7163 1.356 . S
N7166 C7158 1.356 . S
N7166 H7172 0.984 . S
N7166 H7173 0.984 . S
N7167 C7160 1.356 . S
N7167 H7170 0.984 . S
N7167 H7171 0.985 . S
H7168 N7163 0.984 . S
H7169 N7163 0.985 . S
H7170 N7167 0.984 . S
H7171 N7167 0.985 . S
H7172 N7166 0.984 . S
H7173 N7166 0.984 . S
H7174 N7162 0.984 . S
H7175 N7162 0.985 . S
C7176 C7177 1.363 . S
C7176 C7182 1.379 . S
C7176 N7184 1.356 . S
C7177 C7176 1.363 . S
C7177 C7183 1.363 . S
C7178 C7179 1.363 . S
C7178 C7183 1.379 . S
C7178 N7185 1.356 . S
C7179 C7178 1.363 . S
C7179 C7182 1.363 . S
N7180 C7182 1.356 . S
N7180 H7192 0.984 . S
N7180 H7193 0.985 . S
N7181 C7183 1.356 . S
N7181 H7186 0.984 . S
N7181 H7187 0.985 . S
C7182 C7176 1.379 . S
C7182 C7179 1.363 . S
C7182 N7180 1.356 . S
C7183 C7177 1.363 . S
C7183 C7178 1.379 . S
C7183 N7181 1.356 . S
N7184 C7176 1.356 . S
N7184 H7190 0.984 . S
N7184 H7191 0.984 . S
N7185 C7178 1.356 . S
N7185 H7188 0.984 . S
N7185 H7189 0.985 . S
H7186 N7181 0.984 . S
H7187 N7181 0.985 . S
H7188 N7185 0.984 . S
H7189 N7185 0.985 . S
H7190 N7184 0.984 . S
H7191 N7184 0.984 . S
H7192 N7180 0.984 . S
H7193 N7180 0.985 . S
C7194 C7195 1.363 . S
C7194 C7200 1.379 . S
C7194 N7202 1.356 . S
C7195 C7194 1.363 . S
C7195 C7201 1.363 . S
C7196 C7197 1.363 . S
C7196 C7201 1.379 . S
C7196 N7203 1.356 . S
C7197 C7196 1.363 . S
C7197 C7200 1.363 . S
N7198 C7200 1.356 . S
N7198 H7210 0.984 . S
N7198 H7211 0.985 . S
N7199 C7201 1.356 . S
N7199 H7204 0.984 . S
N7199 H7205 0.985 . S
C7200 C7194 1.379 . S
C7200 C7197 1.363 . S
C7200 N7198 1.356 . S
C7201 C7195 1.363 . S
C7201 C7196 1.379 . S
C7201 N7199 1.356 . S
N7202 C7194 1.356 . S
N7202 H7208 0.984 . S
N7202 H7209 0.984 . S
N7203 C7196 1.356 . S
N7203 H7206 0.984 . S
N7203 H7207 0.985 . S
H7204 N7199 0.984 . S
H7205 N7199 0.985 . S
H7206 N7203 0.984 . S
H7207 N7203 0.985 . S
H7208 N7202 0.984 . S
H7209 N7202 0.984 . S
H7210 N7198 0.984 . S
H7211 N7198 0.985 . S
C7212 C7213 1.363 . S
C7212 C7218 1.379 . S
C7212 N7220 1.356 . S
C7213 C7212 1.363 . S
C7213 C7219 1.363 . S
C7214 C7215 1.363 . S
C7214 C7219 1.379 . S
C7214 N7221 1.356 . S
C7215 C7214 1.363 . S
C7215 C7218 1.363 . S
N7216 C7218 1.356 . S
N7216 H7228 0.984 . S
N7216 H7229 0.985 . S
N7217 C7219 1.356 . S
N7217 H7222 0.984 . S
N7217 H7223 0.985 . S
C7218 C7212 1.379 . S
C7218 C7215 1.363 . S
C7218 N7216 1.356 . S
C7219 C7213 1.363 . S
C7219 C7214 1.379 . S
C7219 N7217 1.356 . S
N7220 C7212 1.356 . S
N7220 H7226 0.984 . S
N7220 H7227 0.984 . S
N7221 C7214 1.356 . S
N7221 H7224 0.984 . S
N7221 H7225 0.985 . S
H7222 N7217 0.984 . S
H7223 N7217 0.985 . S
H7224 N7221 0.984 . S
H7225 N7221 0.985 . S
H7226 N7220 0.984 . S
H7227 N7220 0.984 . S
H7228 N7216 0.984 . S
H7229 N7216 0.985 . S
C7230 C7231 1.363 . S
C7230 C7236 1.379 . S
C7230 N7238 1.356 . S
C7231 C7230 1.363 . S
C7231 C7237 1.363 . S
C7232 C7233 1.363 . S
C7232 C7237 1.379 . S
C7232 N7239 1.356 . S
C7233 C7232 1.363 . S
C7233 C7236 1.363 . S
N7234 C7236 1.356 . S
N7234 H7246 0.984 . S
N7234 H7247 0.985 . S
N7235 C7237 1.356 . S
N7235 H7240 0.984 . S
N7235 H7241 0.985 . S
C7236 C7230 1.379 . S
C7236 C7233 1.363 . S
C7236 N7234 1.356 . S
C7237 C7231 1.363 . S
C7237 C7232 1.379 . S
C7237 N7235 1.356 . S
N7238 C7230 1.356 . S
N7238 H7244 0.984 . S
N7238 H7245 0.984 . S
N7239 C7232 1.356 . S
N7239 H7242 0.984 . S
N7239 H7243 0.985 . S
H7240 N7235 0.984 . S
H7241 N7235 0.985 . S
H7242 N7239 0.984 . S
H7243 N7239 0.985 . S
H7244 N7238 0.984 . S
H7245 N7238 0.984 . S
H7246 N7234 0.984 . S
H7247 N7234 0.985 . S
C7248 C7249 1.363 . S
C7248 C7254 1.379 . S
C7248 N7256 1.356 . S
C7249 C7248 1.363 . S
C7249 C7255 1.363 . S
C7250 C7251 1.363 . S
C7250 C7255 1.379 . S
C7250 N7257 1.356 . S
C7251 C7250 1.363 . S
C7251 C7254 1.363 . S
N7252 C7254 1.356 . S
N7252 H7264 0.984 . S
N7252 H7265 0.985 . S
N7253 C7255 1.356 . S
N7253 H7258 0.984 . S
N7253 H7259 0.985 . S
C7254 C7248 1.379 . S
C7254 C7251 1.363 . S
C7254 N7252 1.356 . S
C7255 C7249 1.363 . S
C7255 C7250 1.379 . S
C7255 N7253 1.356 . S
N7256 C7248 1.356 . S
N7256 H7262 0.984 . S
N7256 H7263 0.984 . S
N7257 C7250 1.356 . S
N7257 H7260 0.984 . S
N7257 H7261 1.002 . S
H7258 N7253 0.984 . S
H7259 N7253 0.985 . S
H7260 N7257 0.984 . S
H7261 N7257 1.002 . S
H7262 N7256 0.984 . S
H7263 N7256 0.984 . S
H7264 N7252 0.984 . S
H7265 N7252 0.985 . S
C7266 C7267 1.363 . S
C7266 C7272 1.379 . S
C7266 N7274 1.356 . S
C7267 C7266 1.363 . S
C7267 C7273 1.363 . S
C7268 C7269 1.363 . S
C7268 C7273 1.379 . S
C7268 N7275 1.356 . S
C7269 C7268 1.363 . S
C7269 C7272 1.363 . S
N7270 C7272 1.356 . S
N7270 H7282 0.984 . S
N7270 H7283 0.985 . S
N7271 C7273 1.356 . S
N7271 H7276 0.984 . S
N7271 H7277 0.985 . S
C7272 C7266 1.379 . S
C7272 C7269 1.363 . S
C7272 N7270 1.356 . S
C7273 C7267 1.363 . S
C7273 C7268 1.379 . S
C7273 N7271 1.356 . S
N7274 C7266 1.356 . S
N7274 H7280 0.984 . S
N7274 H7281 0.984 . S
N7275 C7268 1.356 . S
N7275 H7278 0.984 . S
N7275 H7279 0.985 . S
H7276 N7271 0.984 . S
H7277 N7271 0.985 . S
H7278 N7275 0.984 . S
H7279 N7275 0.985 . S
H7280 N7274 0.984 . S
H7281 N7274 0.984 . S
H7282 N7270 0.984 . S
H7283 N7270 0.985 . S
C7284 C7285 1.363 . S
C7284 C7290 1.379 . S
C7284 N7292 1.356 . S
C7285 C7284 1.363 . S
C7285 C7291 1.363 . S
C7286 C7287 1.363 . S
C7286 C7291 1.379 . S
C7286 N7293 1.356 . S
C7287 C7286 1.363 . S
C7287 C7290 1.363 . S
N7288 C7290 1.356 . S
N7288 H7300 0.984 . S
N7288 H7301 0.985 . S
N7289 C7291 1.356 . S
N7289 H7294 0.984 . S
N7289 H7295 0.985 . S
C7290 C7284 1.379 . S
C7290 C7287 1.363 . S
C7290 N7288 1.356 . S
C7291 C7285 1.363 . S
C7291 C7286 1.379 . S
C7291 N7289 1.356 . S
N7292 C7284 1.356 . S
N7292 H7298 0.984 . S
N7292 H7299 0.984 . S
N7293 C7286 1.356 . S
N7293 H7296 0.984 . S
N7293 H7297 0.985 . S
H7294 N7289 0.984 . S
H7295 N7289 0.985 . S
H7296 N7293 0.984 . S
H7297 N7293 0.985 . S
H7298 N7292 0.984 . S
H7299 N7292 0.984 . S
H7300 N7288 0.984 . S
H7301 N7288 0.985 . S
C7302 C7303 1.363 . S
C7302 C7308 1.379 . S
C7302 N7310 1.356 . S
C7303 C7302 1.363 . S
C7303 C7309 1.363 . S
C7304 C7305 1.363 . S
C7304 C7309 1.379 . S
C7304 N7311 1.356 . S
C7305 C7304 1.363 . S
C7305 C7308 1.363 . S
N7306 C7308 1.356 . S
N7306 H7318 0.984 . S
N7306 H7319 0.985 . S
N7307 C7309 1.356 . S
N7307 H7312 0.984 . S
N7307 H7313 0.985 . S
C7308 C7302 1.379 . S
C7308 C7305 1.363 . S
C7308 N7306 1.356 . S
C7309 C7303 1.363 . S
C7309 C7304 1.379 . S
C7309 N7307 1.356 . S
N7310 C7302 1.356 . S
N7310 H7316 0.984 . S
N7310 H7317 0.984 . S
N7311 C7304 1.356 . S
N7311 H7314 0.984 . S
N7311 H7315 0.985 . S
H7312 N7307 0.984 . S
H7313 N7307 0.985 . S
H7314 N7311 0.984 . S
H7315 N7311 0.985 . S
H7316 N7310 0.984 . S
H7317 N7310 0.984 . S
H7318 N7306 0.984 . S
H7319 N7306 0.985 . S
C7320 C7321 1.363 . S
C7320 C7326 1.379 . S
C7320 N7328 1.356 . S
C7321 C7320 1.363 . S
C7321 C7327 1.363 . S
C7322 C7323 1.363 . S
C7322 C7327 1.379 . S
C7322 N7329 1.356 . S
C7323 C7322 1.363 . S
C7323 C7326 1.363 . S
N7324 C7326 1.356 . S
N7324 H7336 0.984 . S
N7324 H7337 0.985 . S
N7325 C7327 1.356 . S
N7325 H7330 0.984 . S
N7325 H7331 0.985 . S
C7326 C7320 1.379 . S
C7326 C7323 1.363 . S
C7326 N7324 1.356 . S
C7327 C7321 1.363 . S
C7327 C7322 1.379 . S
C7327 N7325 1.356 . S
N7328 C7320 1.356 . S
N7328 H7334 0.984 . S
N7328 H7335 0.984 . S
N7329 C7322 1.356 . S
N7329 H7332 0.984 . S
N7329 H7333 0.985 . S
H7330 N7325 0.984 . S
H7331 N7325 0.985 . S
H7332 N7329 0.984 . S
H7333 N7329 0.985 . S
H7334 N7328 0.984 . S
H7335 N7328 0.984 . S
H7336 N7324 0.984 . S
H7337 N7324 0.985 . S
C7338 C7339 1.363 . S
C7338 C7344 1.379 . S
C7338 N7346 1.356 . S
C7339 C7338 1.363 . S
C7339 C7345 1.363 . S
C7340 C7341 1.363 . S
C7340 C7345 1.379 . S
C7340 N7347 1.356 . S
C7341 C7340 1.363 . S
C7341 C7344 1.363 . S
N7342 C7344 1.356 . S
N7342 H7354 0.984 . S
N7342 H7355 0.985 . S
N7343 C7345 1.356 . S
N7343 H7348 0.984 . S
N7343 H7349 0.985 . S
C7344 C7338 1.379 . S
C7344 C7341 1.363 . S
C7344 N7342 1.356 . S
C7345 C7339 1.363 . S
C7345 C7340 1.379 . S
C7345 N7343 1.356 . S
N7346 C7338 1.356 . S
N7346 H7352 0.984 . S
N7346 H7353 0.984 . S
N7347 C7340 1.356 . S
N7347 H7350 0.984 . S
N7347 H7351 0.985 . S
H7348 N7343 0.984 . S
H7349 N7343 0.985 . S
H7350 N7347 0.984 . S
H7351 N7347 0.985 . S
H7352 N7346 0.984 . S
H7353 N7346 0.984 . S
H7354 N7342 0.984 . S
H7355 N7342 0.985 . S
C7356 C7357 1.363 . S
C7356 C7362 1.379 . S
C7356 N7364 1.356 . S
C7357 C7356 1.363 . S
C7357 C7363 1.363 . S
C7358 C7359 1.363 . S
C7358 C7363 1.379 . S
C7358 N7365 1.356 . S
C7359 C7358 1.363 . S
C7359 C7362 1.363 . S
N7360 C7362 1.356 . S
N7360 H7372 0.984 . S
N7360 H7373 0.985 . S
N7361 C7363 1.356 . S
N7361 H7366 0.984 . S
N7361 H7367 0.985 . S
C7362 C7356 1.379 . S
C7362 C7359 1.363 . S
C7362 N7360 1.356 . S
C7363 C7357 1.363 . S
C7363 C7358 1.379 . S
C7363 N7361 1.356 . S
N7364 C7356 1.356 . S
N7364 H7370 0.984 . S
N7364 H7371 0.984 . S
N7365 C7358 1.356 . S
N7365 H7368 0.984 . S
N7365 H7369 0.985 . S
H7366 N7361 0.984 . S
H7367 N7361 0.985 . S
H7368 N7365 0.984 . S
H7369 N7365 0.985 . S
H7370 N7364 0.984 . S
H7371 N7364 0.984 . S
H7372 N7360 0.984 . S
H7373 N7360 0.985 . S
C7374 C7375 1.363 . S
C7374 C7380 1.379 . S
C7374 N7382 1.356 . S
C7375 C7374 1.363 . S
C7375 C7381 1.363 . S
C7376 C7377 1.363 . S
C7376 C7381 1.379 . S
C7376 N7383 1.356 . S
C7377 C7376 1.363 . S
C7377 C7380 1.363 . S
N7378 C7380 1.356 . S
N7378 H7390 0.984 . S
N7378 H7391 0.985 . S
N7379 C7381 1.356 . S
N7379 H7384 0.984 . S
N7379 H7385 0.985 . S
C7380 C7374 1.379 . S
C7380 C7377 1.363 . S
C7380 N7378 1.356 . S
C7381 C7375 1.363 . S
C7381 C7376 1.379 . S
C7381 N7379 1.356 . S
N7382 C7374 1.356 . S
N7382 H7388 0.984 . S
N7382 H7389 0.984 . S
N7383 C7376 1.356 . S
N7383 H7386 0.984 . S
N7383 H7387 0.985 . S
H7384 N7379 0.984 . S
H7385 N7379 0.985 . S
H7386 N7383 0.984 . S
H7387 N7383 0.985 . S
H7388 N7382 0.984 . S
H7389 N7382 0.984 . S
H7390 N7378 0.984 . S
H7391 N7378 0.985 . S
C7392 C7393 1.363 . S
C7392 C7398 1.379 . S
C7392 N7400 1.356 . S
C7393 C7392 1.363 . S
C7393 C7399 1.363 . S
C7394 C7395 1.363 . S
C7394 C7399 1.379 . S
C7394 N7401 1.356 . S
C7395 C7394 1.363 . S
C7395 C7398 1.363 . S
N7396 C7398 1.356 . S
N7396 H7408 0.984 . S
N7396 H7409 0.985 . S
N7397 C7399 1.356 . S
N7397 H7402 0.984 . S
N7397 H7403 0.985 . S
C7398 C7392 1.379 . S
C7398 C7395 1.363 . S
C7398 N7396 1.356 . S
C7399 C7393 1.363 . S
C7399 C7394 1.379 . S
C7399 N7397 1.356 . S
N7400 C7392 1.356 . S
N7400 H7406 0.984 . S
N7400 H7407 0.984 . S
N7401 C7394 1.356 . S
N7401 H7404 0.984 . S
N7401 H7405 0.985 . S
H7402 N7397 0.984 . S
H7403 N7397 0.985 . S
H7404 N7401 0.984 . S
H7405 N7401 0.985 . S
H7406 N7400 0.984 . S
H7407 N7400 0.984 . S
H7408 N7396 0.984 . S
H7409 N7396 0.985 . S
C7410 C7411 1.363 . S
C7410 C7416 1.379 . S
C7410 N7418 1.356 . S
C7411 C7410 1.363 . S
C7411 C7417 1.363 . S
C7412 C7413 1.363 . S
C7412 C7417 1.379 . S
C7412 N7419 1.356 . S
C7413 C7412 1.363 . S
C7413 C7416 1.363 . S
N7414 C7416 1.356 . S
N7414 H7426 0.984 . S
N7414 H7427 0.985 . S
N7415 C7417 1.356 . S
N7415 H7420 0.984 . S
N7415 H7421 0.985 . S
C7416 C7410 1.379 . S
C7416 C7413 1.363 . S
C7416 N7414 1.356 . S
C7417 C7411 1.363 . S
C7417 C7412 1.379 . S
C7417 N7415 1.356 . S
N7418 C7410 1.356 . S
N7418 H7424 0.984 . S
N7418 H7425 0.984 . S
N7419 C7412 1.356 . S
N7419 H7422 0.984 . S
N7419 H7423 0.985 . S
H7420 N7415 0.984 . S
H7421 N7415 0.985 . S
H7422 N7419 0.984 . S
H7423 N7419 0.985 . S
H7424 N7418 0.984 . S
H7425 N7418 0.984 . S
H7426 N7414 0.984 . S
H7427 N7414 0.985 . S
C7428 C7429 1.363 . S
C7428 C7434 1.379 . S
C7428 N7436 1.356 . S
C7429 C7428 1.363 . S
C7429 C7435 1.363 . S
C7430 C7431 1.363 . S
C7430 C7435 1.379 . S
C7430 N7437 1.356 . S
C7431 C7430 1.363 . S
C7431 C7434 1.363 . S
N7432 C7434 1.356 . S
N7432 H7444 0.984 . S
N7432 H7445 0.985 . S
N7433 C7435 1.356 . S
N7433 H7438 0.984 . S
N7433 H7439 0.985 . S
C7434 C7428 1.379 . S
C7434 C7431 1.363 . S
C7434 N7432 1.356 . S
C7435 C7429 1.363 . S
C7435 C7430 1.379 . S
C7435 N7433 1.356 . S
N7436 C7428 1.356 . S
N7436 H7442 0.984 . S
N7436 H7443 0.984 . S
N7437 C7430 1.356 . S
N7437 H7440 0.984 . S
N7437 H7441 0.985 . S
H7438 N7433 0.984 . S
H7439 N7433 0.985 . S
H7440 N7437 0.984 . S
H7441 N7437 0.985 . S
H7442 N7436 0.984 . S
H7443 N7436 0.984 . S
H7444 N7432 0.984 . S
H7445 N7432 0.985 . S
C7446 C7447 1.363 . S
C7446 C7452 1.379 . S
C7446 N7454 1.356 . S
C7447 C7446 1.363 . S
C7447 C7453 1.363 . S
C7448 C7449 1.363 . S
C7448 C7453 1.379 . S
C7448 N7455 1.356 . S
C7449 C7448 1.363 . S
C7449 C7452 1.363 . S
N7450 C7452 1.356 . S
N7450 H7462 0.984 . S
N7450 H7463 0.985 . S
N7451 C7453 1.356 . S
N7451 H7456 0.984 . S
N7451 H7457 0.985 . S
C7452 C7446 1.379 . S
C7452 C7449 1.363 . S
C7452 N7450 1.356 . S
C7453 C7447 1.363 . S
C7453 C7448 1.379 . S
C7453 N7451 1.356 . S
N7454 C7446 1.356 . S
N7454 H7460 0.984 . S
N7454 H7461 0.984 . S
N7455 C7448 1.356 . S
N7455 H7458 0.984 . S
N7455 H7459 0.985 . S
H7456 N7451 0.984 . S
H7457 N7451 0.985 . S
H7458 N7455 0.984 . S
H7459 N7455 0.985 . S
H7460 N7454 0.984 . S
H7461 N7454 0.984 . S
H7462 N7450 0.984 . S
H7463 N7450 0.985 . S
C7464 C7465 1.363 . S
C7464 C7470 1.379 . S
C7464 N7472 1.356 . S
C7465 C7464 1.363 . S
C7465 C7471 1.363 . S
C7466 C7467 1.363 . S
C7466 C7471 1.379 . S
C7466 N7473 1.356 . S
C7467 C7466 1.363 . S
C7467 C7470 1.363 . S
N7468 C7470 1.356 . S
N7468 H7480 0.984 . S
N7468 H7481 0.985 . S
N7469 C7471 1.356 . S
N7469 H7474 0.984 . S
N7469 H7475 0.985 . S
C7470 C7464 1.379 . S
C7470 C7467 1.363 . S
C7470 N7468 1.356 . S
C7471 C7465 1.363 . S
C7471 C7466 1.379 . S
C7471 N7469 1.356 . S
N7472 C7464 1.356 . S
N7472 H7478 0.984 . S
N7472 H7479 0.984 . S
N7473 C7466 1.356 . S
N7473 H7476 0.984 . S
N7473 H7477 0.985 . S
H7474 N7469 0.984 . S
H7475 N7469 0.985 . S
H7476 N7473 0.984 . S
H7477 N7473 0.985 . S
H7478 N7472 0.984 . S
H7479 N7472 0.984 . S
H7480 N7468 0.984 . S
H7481 N7468 0.985 . S
C7482 C7483 1.363 . S
C7482 C7488 1.379 . S
C7482 N7490 1.356 . S
C7483 C7482 1.363 . S
C7483 C7489 1.363 . S
C7484 C7485 1.363 . S
C7484 C7489 1.379 . S
C7484 N7491 1.356 . S
C7485 C7484 1.363 . S
C7485 C7488 1.363 . S
N7486 C7488 1.356 . S
N7486 H7498 0.984 . S
N7486 H7499 0.985 . S
N7487 C7489 1.356 . S
N7487 H7492 0.984 . S
N7487 H7493 0.985 . S
C7488 C7482 1.379 . S
C7488 C7485 1.363 . S
C7488 N7486 1.356 . S
C7489 C7483 1.363 . S
C7489 C7484 1.379 . S
C7489 N7487 1.356 . S
N7490 C7482 1.356 . S
N7490 H7496 0.984 . S
N7490 H7497 0.984 . S
N7491 C7484 1.356 . S
N7491 H7494 0.984 . S
N7491 H7495 0.985 . S
H7492 N7487 0.984 . S
H7493 N7487 0.985 . S
H7494 N7491 0.984 . S
H7495 N7491 0.985 . S
H7496 N7490 0.984 . S
H7497 N7490 0.984 . S
H7498 N7486 0.984 . S
H7499 N7486 0.985 . S
C7500 C7501 1.363 . S
C7500 C7506 1.379 . S
C7500 N7508 1.356 . S
C7501 C7500 1.363 . S
C7501 C7507 1.363 . S
C7502 C7503 1.363 . S
C7502 C7507 1.379 . S
C7502 N7509 1.356 . S
C7503 C7502 1.363 . S
C7503 C7506 1.363 . S
N7504 C7506 1.356 . S
N7504 H7516 0.984 . S
N7504 H7517 0.985 . S
N7505 C7507 1.356 . S
N7505 H7510 0.984 . S
N7505 H7511 0.985 . S
C7506 C7500 1.379 . S
C7506 C7503 1.363 . S
C7506 N7504 1.356 . S
C7507 C7501 1.363 . S
C7507 C7502 1.379 . S
C7507 N7505 1.356 . S
N7508 C7500 1.356 . S
N7508 H7514 0.984 . S
N7508 H7515 0.984 . S
N7509 C7502 1.356 . S
N7509 H7512 0.984 . S
N7509 H7513 0.985 . S
H7510 N7505 0.984 . S
H7511 N7505 0.985 . S
H7512 N7509 0.984 . S
H7513 N7509 0.985 . S
H7514 N7508 0.984 . S
H7515 N7508 0.984 . S
H7516 N7504 0.984 . S
H7517 N7504 0.985 . S
C7518 C7519 1.363 . S
C7518 C7524 1.379 . S
C7518 N7526 1.356 . S
C7519 C7518 1.363 . S
C7519 C7525 1.363 . S
C7520 C7521 1.363 . S
C7520 C7525 1.379 . S
C7520 N7527 1.356 . S
C7521 C7520 1.363 . S
C7521 C7524 1.363 . S
N7522 C7524 1.356 . S
N7522 H7534 0.984 . S
N7522 H7535 0.985 . S
N7523 C7525 1.356 . S
N7523 H7528 0.984 . S
N7523 H7529 0.985 . S
C7524 C7518 1.379 . S
C7524 C7521 1.363 . S
C7524 N7522 1.356 . S
C7525 C7519 1.363 . S
C7525 C7520 1.379 . S
C7525 N7523 1.356 . S
N7526 C7518 1.356 . S
N7526 H7532 0.984 . S
N7526 H7533 0.984 . S
N7527 C7520 1.356 . S
N7527 H7530 0.984 . S
N7527 H7531 0.985 . S
H7528 N7523 0.984 . S
H7529 N7523 0.985 . S
H7530 N7527 0.984 . S
H7531 N7527 0.985 . S
H7532 N7526 0.984 . S
H7533 N7526 0.984 . S
H7534 N7522 0.984 . S
H7535 N7522 0.985 . S
C7536 C7537 1.363 . S
C7536 C7542 1.379 . S
C7536 N7544 1.356 . S
C7537 C7536 1.363 . S
C7537 C7543 1.363 . S
C7538 C7539 1.363 . S
C7538 C7543 1.379 . S
C7538 N7545 1.356 . S
C7539 C7538 1.363 . S
C7539 C7542 1.363 . S
N7540 C7542 1.356 . S
N7540 H7552 0.984 . S
N7540 H7553 0.985 . S
N7541 C7543 1.356 . S
N7541 H7546 0.984 . S
N7541 H7547 0.985 . S
C7542 C7536 1.379 . S
C7542 C7539 1.363 . S
C7542 N7540 1.356 . S
C7543 C7537 1.363 . S
C7543 C7538 1.379 . S
C7543 N7541 1.356 . S
N7544 C7536 1.356 . S
N7544 H7550 0.984 . S
N7544 H7551 0.984 . S
N7545 C7538 1.356 . S
N7545 H7548 0.984 . S
N7545 H7549 0.985 . S
H7546 N7541 0.984 . S
H7547 N7541 0.985 . S
H7548 N7545 0.984 . S
H7549 N7545 0.985 . S
H7550 N7544 0.984 . S
H7551 N7544 0.984 . S
H7552 N7540 0.984 . S
H7553 N7540 0.985 . S
C7554 C7555 1.363 . S
C7554 C7560 1.379 . S
C7554 N7562 1.356 . S
C7555 C7554 1.363 . S
C7555 C7561 1.363 . S
C7556 C7557 1.363 . S
C7556 C7561 1.379 . S
C7556 N7563 1.356 . S
C7557 C7556 1.363 . S
C7557 C7560 1.363 . S
N7558 C7560 1.356 . S
N7558 H7570 0.984 . S
N7558 H7571 0.985 . S
N7559 C7561 1.356 . S
N7559 H7564 0.984 . S
N7559 H7565 0.985 . S
C7560 C7554 1.379 . S
C7560 C7557 1.363 . S
C7560 N7558 1.356 . S
C7561 C7555 1.363 . S
C7561 C7556 1.379 . S
C7561 N7559 1.356 . S
N7562 C7554 1.356 . S
N7562 H7568 0.984 . S
N7562 H7569 0.984 . S
N7563 C7556 1.356 . S
N7563 H7566 0.984 . S
N7563 H7567 0.985 . S
H7564 N7559 0.984 . S
H7565 N7559 0.985 . S
H7566 N7563 0.984 . S
H7567 N7563 0.985 . S
H7568 N7562 0.984 . S
H7569 N7562 0.984 . S
H7570 N7558 0.984 . S
H7571 N7558 0.985 . S
C7572 C7573 1.363 . S
C7572 C7578 1.379 . S
C7572 N7580 1.356 . S
C7573 C7572 1.363 . S
C7573 C7579 1.363 . S
C7574 C7575 1.363 . S
C7574 C7579 1.379 . S
C7574 N7581 1.356 . S
C7575 C7574 1.363 . S
C7575 C7578 1.363 . S
N7576 C7578 1.356 . S
N7576 H7588 0.984 . S
N7576 H7589 0.985 . S
N7577 C7579 1.356 . S
N7577 H7582 0.984 . S
N7577 H7583 0.985 . S
C7578 C7572 1.379 . S
C7578 C7575 1.363 . S
C7578 N7576 1.356 . S
C7579 C7573 1.363 . S
C7579 C7574 1.379 . S
C7579 N7577 1.356 . S
N7580 C7572 1.356 . S
N7580 H7586 0.984 . S
N7580 H7587 0.984 . S
N7581 C7574 1.356 . S
N7581 H7584 0.984 . S
N7581 H7585 0.985 . S
H7582 N7577 0.984 . S
H7583 N7577 0.985 . S
H7584 N7581 0.984 . S
H7585 N7581 0.985 . S
H7586 N7580 0.984 . S
H7587 N7580 0.984 . S
H7588 N7576 0.984 . S
H7589 N7576 0.985 . S
C7590 C7591 1.363 . S
C7590 C7596 1.379 . S
C7590 N7598 1.356 . S
C7591 C7590 1.363 . S
C7591 C7597 1.363 . S
C7592 C7593 1.363 . S
C7592 C7597 1.379 . S
C7592 N7599 1.356 . S
C7593 C7592 1.363 . S
C7593 C7596 1.363 . S
N7594 C7596 1.356 . S
N7594 H7606 0.984 . S
N7594 H7607 0.985 . S
N7595 C7597 1.356 . S
N7595 H7600 0.984 . S
N7595 H7601 0.985 . S
C7596 C7590 1.379 . S
C7596 C7593 1.363 . S
C7596 N7594 1.356 . S
C7597 C7591 1.363 . S
C7597 C7592 1.379 . S
C7597 N7595 1.356 . S
N7598 C7590 1.356 . S
N7598 H7604 0.984 . S
N7598 H7605 0.984 . S
N7599 C7592 1.356 . S
N7599 H7602 0.984 . S
N7599 H7603 0.985 . S
H7600 N7595 0.984 . S
H7601 N7595 0.985 . S
H7602 N7599 0.984 . S
H7603 N7599 0.985 . S
H7604 N7598 0.984 . S
H7605 N7598 0.984 . S
H7606 N7594 0.984 . S
H7607 N7594 0.985 . S
C7608 C7609 1.363 . S
C7608 C7614 1.379 . S
C7608 N7616 1.356 . S
C7609 C7608 1.363 . S
C7609 C7615 1.363 . S
C7610 C7611 1.363 . S
C7610 C7615 1.379 . S
C7610 N7617 1.356 . S
C7611 C7610 1.363 . S
C7611 C7614 1.363 . S
N7612 C7614 1.356 . S
N7612 H7624 0.984 . S
N7612 H7625 0.985 . S
N7613 C7615 1.356 . S
N7613 H7618 0.984 . S
N7613 H7619 0.985 . S
C7614 C7608 1.379 . S
C7614 C7611 1.363 . S
C7614 N7612 1.356 . S
C7615 C7609 1.363 . S
C7615 C7610 1.379 . S
C7615 N7613 1.356 . S
N7616 C7608 1.356 . S
N7616 H7622 0.984 . S
N7616 H7623 0.984 . S
N7617 C7610 1.356 . S
N7617 H7620 0.984 . S
N7617 H7621 0.985 . S
H7618 N7613 0.984 . S
H7619 N7613 0.985 . S
H7620 N7617 0.984 . S
H7621 N7617 0.985 . S
H7622 N7616 0.984 . S
H7623 N7616 0.984 . S
H7624 N7612 0.984 . S
H7625 N7612 0.985 . S
C7626 C7627 1.363 . S
C7626 C7632 1.379 . S
C7626 N7634 1.356 . S
C7627 C7626 1.363 . S
C7627 C7633 1.363 . S
C7628 C7629 1.363 . S
C7628 C7633 1.379 . S
C7628 N7635 1.356 . S
C7629 C7628 1.363 . S
C7629 C7632 1.363 . S
N7630 C7632 1.356 . S
N7630 H7642 0.984 . S
N7630 H7643 0.985 . S
N7631 C7633 1.356 . S
N7631 H7636 0.984 . S
N7631 H7637 0.985 . S
C7632 C7626 1.379 . S
C7632 C7629 1.363 . S
C7632 N7630 1.356 . S
C7633 C7627 1.363 . S
C7633 C7628 1.379 . S
C7633 N7631 1.356 . S
N7634 C7626 1.356 . S
N7634 H7640 0.984 . S
N7634 H7641 0.984 . S
N7635 C7628 1.356 . S
N7635 H7638 0.984 . S
N7635 H7639 0.985 . S
H7636 N7631 0.984 . S
H7637 N7631 0.985 . S
H7638 N7635 0.984 . S
H7639 N7635 0.985 . S
H7640 N7634 0.984 . S
H7641 N7634 0.984 . S
H7642 N7630 0.984 . S
H7643 N7630 0.985 . S
C7644 C7645 1.363 . S
C7644 C7650 1.379 . S
C7644 N7652 1.356 . S
C7645 C7644 1.363 . S
C7645 C7651 1.363 . S
C7646 C7647 1.363 . S
C7646 C7651 1.379 . S
C7646 N7653 1.356 . S
C7647 C7646 1.363 . S
C7647 C7650 1.363 . S
N7648 C7650 1.356 . S
N7648 H7660 0.984 . S
N7648 H7661 0.985 . S
N7649 C7651 1.356 . S
N7649 H7654 0.984 . S
N7649 H7655 0.985 . S
C7650 C7644 1.379 . S
C7650 C7647 1.363 . S
C7650 N7648 1.356 . S
C7651 C7645 1.363 . S
C7651 C7646 1.379 . S
C7651 N7649 1.356 . S
N7652 C7644 1.356 . S
N7652 H7658 0.984 . S
N7652 H7659 0.984 . S
N7653 C7646 1.356 . S
N7653 H7656 0.984 . S
N7653 H7657 0.985 . S
H7654 N7649 0.984 . S
H7655 N7649 0.985 . S
H7656 N7653 0.984 . S
H7657 N7653 0.985 . S
H7658 N7652 0.984 . S
H7659 N7652 0.984 . S
H7660 N7648 0.984 . S
H7661 N7648 0.985 . S
C7662 C7663 1.363 . S
C7662 C7668 1.379 . S
C7662 N7670 1.356 . S
C7663 C7662 1.363 . S
C7663 C7669 1.363 . S
C7664 C7665 1.363 . S
C7664 C7669 1.379 . S
C7664 N7671 1.356 . S
C7665 C7664 1.363 . S
C7665 C7668 1.363 . S
N7666 C7668 1.356 . S
N7666 H7678 0.984 . S
N7666 H7679 0.985 . S
N7667 C7669 1.356 . S
N7667 H7672 0.984 . S
N7667 H7673 0.985 . S
C7668 C7662 1.379 . S
C7668 C7665 1.363 . S
C7668 N7666 1.356 . S
C7669 C7663 1.363 . S
C7669 C7664 1.379 . S
C7669 N7667 1.356 . S
N7670 C7662 1.356 . S
N7670 H7676 0.984 . S
N7670 H7677 0.984 . S
N7671 C7664 1.356 . S
N7671 H7674 0.984 . S
N7671 H7675 0.985 . S
H7672 N7667 0.984 . S
H7673 N7667 0.985 . S
H7674 N7671 0.984 . S
H7675 N7671 0.985 . S
H7676 N7670 0.984 . S
H7677 N7670 0.984 . S
H7678 N7666 0.984 . S
H7679 N7666 0.985 . S
C7680 C7681 1.363 . S
C7680 C7686 1.379 . S
C7680 N7688 1.356 . S
C7681 C7680 1.363 . S
C7681 C7687 1.363 . S
C7682 C7683 1.363 . S
C7682 C7687 1.379 . S
C7682 N7689 1.356 . S
C7683 C7682 1.363 . S
C7683 C7686 1.363 . S
N7684 C7686 1.356 . S
N7684 H7696 0.984 . S
N7684 H7697 0.985 . S
N7685 C7687 1.356 . S
N7685 H7690 0.984 . S
N7685 H7691 0.985 . S
C7686 C7680 1.379 . S
C7686 C7683 1.363 . S
C7686 N7684 1.356 . S
C7687 C7681 1.363 . S
C7687 C7682 1.379 . S
C7687 N7685 1.356 . S
N7688 C7680 1.356 . S
N7688 H7694 0.984 . S
N7688 H7695 0.984 . S
N7689 C7682 1.356 . S
N7689 H7692 0.984 . S
N7689 H7693 0.985 . S
H7690 N7685 0.984 . S
H7691 N7685 0.985 . S
H7692 N7689 0.984 . S
H7693 N7689 0.985 . S
H7694 N7688 0.984 . S
H7695 N7688 0.984 . S
H7696 N7684 0.984 . S
H7697 N7684 0.985 . S
C7698 C7699 1.363 . S
C7698 C7704 1.379 . S
C7698 N7706 1.356 . S
C7699 C7698 1.363 . S
C7699 C7705 1.363 . S
C7700 C7701 1.363 . S
C7700 C7705 1.379 . S
C7700 N7707 1.356 . S
C7701 C7700 1.363 . S
C7701 C7704 1.363 . S
N7702 C7704 1.356 . S
N7702 H7714 0.984 . S
N7702 H7715 0.985 . S
N7703 C7705 1.356 . S
N7703 H7708 0.984 . S
N7703 H7709 0.985 . S
C7704 C7698 1.379 . S
C7704 C7701 1.363 . S
C7704 N7702 1.356 . S
C7705 C7699 1.363 . S
C7705 C7700 1.379 . S
C7705 N7703 1.356 . S
N7706 C7698 1.356 . S
N7706 H7712 0.984 . S
N7706 H7713 0.984 . S
N7707 C7700 1.356 . S
N7707 H7710 0.984 . S
N7707 H7711 0.985 . S
H7708 N7703 0.984 . S
H7709 N7703 0.985 . S
H7710 N7707 0.984 . S
H7711 N7707 0.985 . S
H7712 N7706 0.984 . S
H7713 N7706 0.984 . S
H7714 N7702 0.984 . S
H7715 N7702 0.985 . S
C7716 C7717 1.363 . S
C7716 C7722 1.379 . S
C7716 N7724 1.356 . S
C7717 C7716 1.363 . S
C7717 C7723 1.363 . S
C7718 C7719 1.363 . S
C7718 C7723 1.379 . S
C7718 N7725 1.356 . S
C7719 C7718 1.363 . S
C7719 C7722 1.363 . S
N7720 C7722 1.356 . S
N7720 H7732 0.984 . S
N7720 H7733 0.985 . S
N7721 C7723 1.356 . S
N7721 H7726 0.984 . S
N7721 H7727 0.985 . S
C7722 C7716 1.379 . S
C7722 C7719 1.363 . S
C7722 N7720 1.356 . S
C7723 C7717 1.363 . S
C7723 C7718 1.379 . S
C7723 N7721 1.356 . S
N7724 C7716 1.356 . S
N7724 H7730 0.984 . S
N7724 H7731 0.984 . S
N7725 C7718 1.356 . S
N7725 H7728 0.984 . S
N7725 H7729 0.985 . S
H7726 N7721 0.984 . S
H7727 N7721 0.985 . S
H7728 N7725 0.984 . S
H7729 N7725 0.985 . S
H7730 N7724 0.984 . S
H7731 N7724 0.984 . S
H7732 N7720 0.984 . S
H7733 N7720 0.985 . S
C7734 C7735 1.363 . S
C7734 C7740 1.379 . S
C7734 N7742 1.356 . S
C7735 C7734 1.363 . S
C7735 C7741 1.363 . S
C7736 C7737 1.363 . S
C7736 C7741 1.379 . S
C7736 N7743 1.356 . S
C7737 C7736 1.363 . S
C7737 C7740 1.363 . S
N7738 C7740 1.356 . S
N7738 H7750 0.984 . S
N7738 H7751 0.985 . S
N7739 C7741 1.356 . S
N7739 H7744 0.984 . S
N7739 H7745 0.985 . S
C7740 C7734 1.379 . S
C7740 C7737 1.363 . S
C7740 N7738 1.356 . S
C7741 C7735 1.363 . S
C7741 C7736 1.379 . S
C7741 N7739 1.356 . S
N7742 C7734 1.356 . S
N7742 H7748 0.984 . S
N7742 H7749 0.984 . S
N7743 C7736 1.356 . S
N7743 H7746 0.984 . S
N7743 H7747 0.985 . S
H7744 N7739 0.984 . S
H7745 N7739 0.985 . S
H7746 N7743 0.984 . S
H7747 N7743 0.985 . S
H7748 N7742 0.984 . S
H7749 N7742 0.984 . S
H7750 N7738 0.984 . S
H7751 N7738 0.985 . S
C7752 C7753 1.363 . S
C7752 C7758 1.379 . S
C7752 N7760 1.356 . S
C7753 C7752 1.363 . S
C7753 C7759 1.363 . S
C7754 C7755 1.363 . S
C7754 C7759 1.379 . S
C7754 N7761 1.356 . S
C7755 C7754 1.363 . S
C7755 C7758 1.363 . S
N7756 C7758 1.356 . S
N7756 H7768 0.984 . S
N7756 H7769 0.985 . S
N7757 C7759 1.356 . S
N7757 H7762 0.984 . S
N7757 H7763 0.985 . S
C7758 C7752 1.379 . S
C7758 C7755 1.363 . S
C7758 N7756 1.356 . S
C7759 C7753 1.363 . S
C7759 C7754 1.379 . S
C7759 N7757 1.356 . S
N7760 C7752 1.356 . S
N7760 H7766 0.984 . S
N7760 H7767 0.984 . S
N7761 C7754 1.356 . S
N7761 H7764 0.984 . S
N7761 H7765 0.985 . S
H7762 N7757 0.984 . S
H7763 N7757 0.985 . S
H7764 N7761 0.984 . S
H7765 N7761 0.985 . S
H7766 N7760 0.984 . S
H7767 N7760 0.984 . S
H7768 N7756 0.984 . S
H7769 N7756 0.985 . S
C7770 C7771 1.363 . S
C7770 C7776 1.379 . S
C7770 N7778 1.356 . S
C7771 C7770 1.363 . S
C7771 C7777 1.363 . S
C7772 C7773 1.363 . S
C7772 C7777 1.379 . S
C7772 N7779 1.356 . S
C7773 C7772 1.363 . S
C7773 C7776 1.363 . S
N7774 C7776 1.356 . S
N7774 H7786 0.984 . S
N7774 H7787 0.985 . S
N7775 C7777 1.356 . S
N7775 H7780 0.984 . S
N7775 H7781 0.985 . S
C7776 C7770 1.379 . S
C7776 C7773 1.363 . S
C7776 N7774 1.356 . S
C7777 C7771 1.363 . S
C7777 C7772 1.379 . S
C7777 N7775 1.356 . S
N7778 C7770 1.356 . S
N7778 H7784 0.984 . S
N7778 H7785 0.984 . S
N7779 C7772 1.356 . S
N7779 H7782 0.984 . S
N7779 H7783 0.985 . S
H7780 N7775 0.984 . S
H7781 N7775 0.985 . S
H7782 N7779 0.984 . S
H7783 N7779 0.985 . S
H7784 N7778 0.984 . S
H7785 N7778 0.984 . S
H7786 N7774 0.984 . S
H7787 N7774 0.985 . S
C7788 C7789 1.363 . S
C7788 C7794 1.379 . S
C7788 N7796 1.356 . S
C7789 C7788 1.363 . S
C7789 C7795 1.363 . S
C7790 C7791 1.363 . S
C7790 C7795 1.379 . S
C7790 N7797 1.356 . S
C7791 C7790 1.363 . S
C7791 C7794 1.363 . S
N7792 C7794 1.356 . S
N7792 H7804 0.984 . S
N7792 H7805 0.985 . S
N7793 C7795 1.356 . S
N7793 H7798 0.984 . S
N7793 H7799 0.985 . S
C7794 C7788 1.379 . S
C7794 C7791 1.363 . S
C7794 N7792 1.356 . S
C7795 C7789 1.363 . S
C7795 C7790 1.379 . S
C7795 N7793 1.356 . S
N7796 C7788 1.356 . S
N7796 H7802 0.984 . S
N7796 H7803 0.984 . S
N7797 C7790 1.356 . S
N7797 H7800 0.984 . S
N7797 H7801 0.985 . S
H7798 N7793 0.984 . S
H7799 N7793 0.985 . S
H7800 N7797 0.984 . S
H7801 N7797 0.985 . S
H7802 N7796 0.984 . S
H7803 N7796 0.984 . S
H7804 N7792 0.984 . S
H7805 N7792 0.985 . S
C7806 C7807 1.363 . S
C7806 C7812 1.379 . S
C7806 N7814 1.356 . S
C7807 C7806 1.363 . S
C7807 C7813 1.363 . S
C7808 C7809 1.363 . S
C7808 C7813 1.379 . S
C7808 N7815 1.356 . S
C7809 C7808 1.363 . S
C7809 C7812 1.363 . S
N7810 C7812 1.356 . S
N7810 H7822 0.984 . S
N7810 H7823 0.985 . S
N7811 C7813 1.356 . S
N7811 H7816 0.984 . S
N7811 H7817 0.985 . S
C7812 C7806 1.379 . S
C7812 C7809 1.363 . S
C7812 N7810 1.356 . S
C7813 C7807 1.363 . S
C7813 C7808 1.379 . S
C7813 N7811 1.356 . S
N7814 C7806 1.356 . S
N7814 H7820 0.984 . S
N7814 H7821 0.984 . S
N7815 C7808 1.356 . S
N7815 H7818 0.984 . S
N7815 H7819 0.985 . S
H7816 N7811 0.984 . S
H7817 N7811 0.985 . S
H7818 N7815 0.984 . S
H7819 N7815 0.985 . S
H7820 N7814 0.984 . S
H7821 N7814 0.984 . S
H7822 N7810 0.984 . S
H7823 N7810 0.985 . S
C7824 C7825 1.363 . S
C7824 C7830 1.379 . S
C7824 N7832 1.356 . S
C7825 C7824 1.363 . S
C7825 C7831 1.363 . S
C7826 C7827 1.363 . S
C7826 C7831 1.379 . S
C7826 N7833 1.356 . S
C7827 C7826 1.363 . S
C7827 C7830 1.363 . S
N7828 C7830 1.356 . S
N7828 H7840 0.984 . S
N7828 H7841 0.985 . S
N7829 C7831 1.356 . S
N7829 H7834 0.984 . S
N7829 H7835 0.985 . S
C7830 C7824 1.379 . S
C7830 C7827 1.363 . S
C7830 N7828 1.356 . S
C7831 C7825 1.363 . S
C7831 C7826 1.379 . S
C7831 N7829 1.356 . S
N7832 C7824 1.356 . S
N7832 H7838 0.984 . S
N7832 H7839 0.984 . S
N7833 C7826 1.356 . S
N7833 H7836 0.984 . S
N7833 H7837 0.985 . S
H7834 N7829 0.984 . S
H7835 N7829 0.985 . S
H7836 N7833 0.984 . S
H7837 N7833 0.985 . S
H7838 N7832 0.984 . S
H7839 N7832 0.984 . S
H7840 N7828 0.984 . S
H7841 N7828 0.985 . S
C7842 C7843 1.363 . S
C7842 C7848 1.379 . S
C7842 N7850 1.356 . S
C7843 C7842 1.363 . S
C7843 C7849 1.363 . S
C7844 C7845 1.363 . S
C7844 C7849 1.379 . S
C7844 N7851 1.356 . S
C7845 C7844 1.363 . S
C7845 C7848 1.363 . S
N7846 C7848 1.356 . S
N7846 H7858 0.984 . S
N7846 H7859 0.985 . S
N7847 C7849 1.356 . S
N7847 H7852 0.984 . S
N7847 H7853 0.985 . S
C7848 C7842 1.379 . S
C7848 C7845 1.363 . S
C7848 N7846 1.356 . S
C7849 C7843 1.363 . S
C7849 C7844 1.379 . S
C7849 N7847 1.356 . S
N7850 C7842 1.356 . S
N7850 H7856 0.984 . S
N7850 H7857 0.984 . S
N7851 C7844 1.356 . S
N7851 H7854 0.984 . S
N7851 H7855 0.985 . S
H7852 N7847 0.984 . S
H7853 N7847 0.985 . S
H7854 N7851 0.984 . S
H7855 N7851 0.985 . S
H7856 N7850 0.984 . S
H7857 N7850 0.984 . S
H7858 N7846 0.984 . S
H7859 N7846 0.985 . S
C7860 C7861 1.363 . S
C7860 C7866 1.379 . S
C7860 N7868 1.356 . S
C7861 C7860 1.363 . S
C7861 C7867 1.363 . S
C7862 C7863 1.363 . S
C7862 C7867 1.379 . S
C7862 N7869 1.356 . S
C7863 C7862 1.363 . S
C7863 C7866 1.363 . S
N7864 C7866 1.356 . S
N7864 H7876 0.984 . S
N7864 H7877 0.985 . S
N7865 C7867 1.356 . S
N7865 H7870 0.984 . S
N7865 H7871 0.985 . S
C7866 C7860 1.379 . S
C7866 C7863 1.363 . S
C7866 N7864 1.356 . S
C7867 C7861 1.363 . S
C7867 C7862 1.379 . S
C7867 N7865 1.356 . S
N7868 C7860 1.356 . S
N7868 H7874 0.984 . S
N7868 H7875 0.984 . S
N7869 C7862 1.356 . S
N7869 H7872 0.984 . S
N7869 H7873 0.985 . S
H7870 N7865 0.984 . S
H7871 N7865 0.985 . S
H7872 N7869 0.984 . S
H7873 N7869 0.985 . S
H7874 N7868 0.984 . S
H7875 N7868 0.984 . S
H7876 N7864 0.984 . S
H7877 N7864 0.985 . S
C7878 C7879 1.363 . S
C7878 C7884 1.379 . S
C7878 N7886 1.356 . S
C7879 C7878 1.363 . S
C7879 C7885 1.363 . S
C7880 C7881 1.363 . S
C7880 C7885 1.379 . S
C7880 N7887 1.356 . S
C7881 C7880 1.363 . S
C7881 C7884 1.363 . S
N7882 C7884 1.356 . S
N7882 H7894 0.984 . S
N7882 H7895 0.985 . S
N7883 C7885 1.356 . S
N7883 H7888 0.984 . S
N7883 H7889 0.985 . S
C7884 C7878 1.379 . S
C7884 C7881 1.363 . S
C7884 N7882 1.356 . S
C7885 C7879 1.363 . S
C7885 C7880 1.379 . S
C7885 N7883 1.356 . S
N7886 C7878 1.356 . S
N7886 H7892 0.984 . S
N7886 H7893 0.984 . S
N7887 C7880 1.356 . S
N7887 H7890 0.984 . S
N7887 H7891 0.985 . S
H7888 N7883 0.984 . S
H7889 N7883 0.985 . S
H7890 N7887 0.984 . S
H7891 N7887 0.985 . S
H7892 N7886 0.984 . S
H7893 N7886 0.984 . S
H7894 N7882 0.984 . S
H7895 N7882 0.985 . S
C7896 C7897 1.363 . S
C7896 C7902 1.379 . S
C7896 N7904 1.356 . S
C7897 C7896 1.363 . S
C7897 C7903 1.363 . S
C7898 C7899 1.363 . S
C7898 C7903 1.379 . S
C7898 N7905 1.356 . S
C7899 C7898 1.363 . S
C7899 C7902 1.363 . S
N7900 C7902 1.356 . S
N7900 H7912 0.984 . S
N7900 H7913 0.985 . S
N7901 C7903 1.356 . S
N7901 H7906 0.984 . S
N7901 H7907 0.985 . S
C7902 C7896 1.379 . S
C7902 C7899 1.363 . S
C7902 N7900 1.356 . S
C7903 C7897 1.363 . S
C7903 C7898 1.379 . S
C7903 N7901 1.356 . S
N7904 C7896 1.356 . S
N7904 H7910 0.984 . S
N7904 H7911 0.984 . S
N7905 C7898 1.356 . S
N7905 H7908 0.984 . S
N7905 H7909 0.985 . S
H7906 N7901 0.984 . S
H7907 N7901 0.985 . S
H7908 N7905 0.984 . S
H7909 N7905 0.985 . S
H7910 N7904 0.984 . S
H7911 N7904 0.984 . S
H7912 N7900 0.984 . S
H7913 N7900 0.985 . S
C7914 C7915 1.363 . S
C7914 C7920 1.379 . S
C7914 N7922 1.356 . S
C7915 C7914 1.363 . S
C7915 C7921 1.363 . S
C7916 C7917 1.363 . S
C7916 C7921 1.379 . S
C7916 N7923 1.356 . S
C7917 C7916 1.363 . S
C7917 C7920 1.363 . S
N7918 C7920 1.356 . S
N7918 H7930 0.984 . S
N7918 H7931 0.985 . S
N7919 C7921 1.356 . S
N7919 H7924 0.984 . S
N7919 H7925 0.985 . S
C7920 C7914 1.379 . S
C7920 C7917 1.363 . S
C7920 N7918 1.356 . S
C7921 C7915 1.363 . S
C7921 C7916 1.379 . S
C7921 N7919 1.356 . S
N7922 C7914 1.356 . S
N7922 H7928 0.984 . S
N7922 H7929 0.984 . S
N7923 C7916 1.356 . S
N7923 H7926 0.984 . S
N7923 H7927 0.985 . S
H7924 N7919 0.984 . S
H7925 N7919 0.985 . S
H7926 N7923 0.984 . S
H7927 N7923 0.985 . S
H7928 N7922 0.984 . S
H7929 N7922 0.984 . S
H7930 N7918 0.984 . S
H7931 N7918 0.985 . S
C7932 C7933 1.363 . S
C7932 C7938 1.379 . S
C7932 N7940 1.356 . S
C7933 C7932 1.363 . S
C7933 C7939 1.363 . S
C7934 C7935 1.363 . S
C7934 C7939 1.379 . S
C7934 N7941 1.356 . S
C7935 C7934 1.363 . S
C7935 C7938 1.363 . S
N7936 C7938 1.356 . S
N7936 H7948 0.984 . S
N7936 H7949 0.985 . S
N7937 C7939 1.356 . S
N7937 H7942 0.984 . S
N7937 H7943 0.985 . S
C7938 C7932 1.379 . S
C7938 C7935 1.363 . S
C7938 N7936 1.356 . S
C7939 C7933 1.363 . S
C7939 C7934 1.379 . S
C7939 N7937 1.356 . S
N7940 C7932 1.356 . S
N7940 H7946 0.984 . S
N7940 H7947 0.984 . S
N7941 C7934 1.356 . S
N7941 H7944 0.984 . S
N7941 H7945 0.985 . S
H7942 N7937 0.984 . S
H7943 N7937 0.985 . S
H7944 N7941 0.984 . S
H7945 N7941 0.985 . S
H7946 N7940 0.984 . S
H7947 N7940 0.984 . S
H7948 N7936 0.984 . S
H7949 N7936 0.985 . S
C7950 C7951 1.363 . S
C7950 C7956 1.379 . S
C7950 N7958 1.356 . S
C7951 C7950 1.363 . S
C7951 C7957 1.363 . S
C7952 C7953 1.363 . S
C7952 C7957 1.379 . S
C7952 N7959 1.356 . S
C7953 C7952 1.363 . S
C7953 C7956 1.363 . S
N7954 C7956 1.356 . S
N7954 H7966 0.984 . S
N7954 H7967 0.985 . S
N7955 C7957 1.356 . S
N7955 H7960 0.984 . S
N7955 H7961 0.985 . S
C7956 C7950 1.379 . S
C7956 C7953 1.363 . S
C7956 N7954 1.356 . S
C7957 C7951 1.363 . S
C7957 C7952 1.379 . S
C7957 N7955 1.356 . S
N7958 C7950 1.356 . S
N7958 H7964 0.984 . S
N7958 H7965 0.984 . S
N7959 C7952 1.356 . S
N7959 H7962 0.984 . S
N7959 H7963 0.985 . S
H7960 N7955 0.984 . S
H7961 N7955 0.985 . S
H7962 N7959 0.984 . S
H7963 N7959 0.985 . S
H7964 N7958 0.984 . S
H7965 N7958 0.984 . S
H7966 N7954 0.984 . S
H7967 N7954 0.985 . S
C7968 C7969 1.363 . S
C7968 C7974 1.379 . S
C7968 N7976 1.356 . S
C7969 C7968 1.363 . S
C7969 C7975 1.363 . S
C7970 C7971 1.363 . S
C7970 C7975 1.379 . S
C7970 N7977 1.356 . S
C7971 C7970 1.363 . S
C7971 C7974 1.363 . S
N7972 C7974 1.356 . S
N7972 H7984 0.984 . S
N7972 H7985 0.985 . S
N7973 C7975 1.356 . S
N7973 H7978 0.984 . S
N7973 H7979 0.985 . S
C7974 C7968 1.379 . S
C7974 C7971 1.363 . S
C7974 N7972 1.356 . S
C7975 C7969 1.363 . S
C7975 C7970 1.379 . S
C7975 N7973 1.356 . S
N7976 C7968 1.356 . S
N7976 H7982 0.984 . S
N7976 H7983 0.984 . S
N7977 C7970 1.356 . S
N7977 H7980 0.984 . S
N7977 H7981 0.985 . S
H7978 N7973 0.984 . S
H7979 N7973 0.985 . S
H7980 N7977 0.984 . S
H7981 N7977 0.985 . S
H7982 N7976 0.984 . S
H7983 N7976 0.984 . S
H7984 N7972 0.984 . S
H7985 N7972 0.985 . S
C7986 C7987 1.363 . S
C7986 C7992 1.379 . S
C7986 N7994 1.356 . S
C7987 C7986 1.363 . S
C7987 C7993 1.363 . S
C7988 C7989 1.363 . S
C7988 C7993 1.379 . S
C7988 N7995 1.356 . S
C7989 C7988 1.363 . S
C7989 C7992 1.363 . S
N7990 C7992 1.356 . S
N7990 H8002 0.984 . S
N7990 H8003 0.985 . S
N7991 C7993 1.356 . S
N7991 H7996 0.984 . S
N7991 H7997 0.985 . S
C7992 C7986 1.379 . S
C7992 C7989 1.363 . S
C7992 N7990 1.356 . S
C7993 C7987 1.363 . S
C7993 C7988 1.379 . S
C7993 N7991 1.356 . S
N7994 C7986 1.356 . S
N7994 H8000 0.984 . S
N7994 H8001 0.984 . S
N7995 C7988 1.356 . S
N7995 H7998 0.984 . S
N7995 H7999 0.985 . S
H7996 N7991 0.984 . S
H7997 N7991 0.985 . S
H7998 N7995 0.984 . S
H7999 N7995 0.985 . S
H8000 N7994 0.984 . S
H8001 N7994 0.984 . S
H8002 N7990 0.984 . S
H8003 N7990 0.985 . S
C8004 C8005 1.363 . S
C8004 C8010 1.379 . S
C8004 N8012 1.356 . S
C8005 C8004 1.363 . S
C8005 C8011 1.363 . S
C8006 C8007 1.363 . S
C8006 C8011 1.379 . S
C8006 N8013 1.356 . S
C8007 C8006 1.363 . S
C8007 C8010 1.363 . S
N8008 C8010 1.356 . S
N8008 H8020 0.984 . S
N8008 H8021 0.985 . S
N8009 C8011 1.356 . S
N8009 H8014 0.984 . S
N8009 H8015 0.985 . S
C8010 C8004 1.379 . S
C8010 C8007 1.363 . S
C8010 N8008 1.356 . S
C8011 C8005 1.363 . S
C8011 C8006 1.379 . S
C8011 N8009 1.356 . S
N8012 C8004 1.356 . S
N8012 H8018 0.984 . S
N8012 H8019 0.984 . S
N8013 C8006 1.356 . S
N8013 H8016 0.984 . S
N8013 H8017 0.985 . S
H8014 N8009 0.984 . S
H8015 N8009 0.985 . S
H8016 N8013 0.984 . S
H8017 N8013 0.985 . S
H8018 N8012 0.984 . S
H8019 N8012 0.984 . S
H8020 N8008 0.984 . S
H8021 N8008 0.985 . S
C8022 C8023 1.363 . S
C8022 C8028 1.379 . S
C8022 N8030 1.356 . S
C8023 C8022 1.363 . S
C8023 C8029 1.363 . S
C8024 C8025 1.363 . S
C8024 C8029 1.379 . S
C8024 N8031 1.356 . S
C8025 C8024 1.363 . S
C8025 C8028 1.363 . S
N8026 C8028 1.356 . S
N8026 H8038 0.984 . S
N8026 H8039 0.985 . S
N8027 C8029 1.356 . S
N8027 H8032 0.984 . S
N8027 H8033 0.985 . S
C8028 C8022 1.379 . S
C8028 C8025 1.363 . S
C8028 N8026 1.356 . S
C8029 C8023 1.363 . S
C8029 C8024 1.379 . S
C8029 N8027 1.356 . S
N8030 C8022 1.356 . S
N8030 H8036 0.984 . S
N8030 H8037 0.984 . S
N8031 C8024 1.356 . S
N8031 H8034 0.984 . S
N8031 H8035 0.985 . S
H8032 N8027 0.984 . S
H8033 N8027 0.985 . S
H8034 N8031 0.984 . S
H8035 N8031 0.985 . S
H8036 N8030 0.984 . S
H8037 N8030 0.984 . S
H8038 N8026 0.984 . S
H8039 N8026 0.985 . S
C8040 C8041 1.363 . S
C8040 C8046 1.379 . S
C8040 N8048 1.356 . S
C8041 C8040 1.363 . S
C8041 C8047 1.363 . S
C8042 C8043 1.363 . S
C8042 C8047 1.379 . S
C8042 N8049 1.356 . S
C8043 C8042 1.363 . S
C8043 C8046 1.363 . S
N8044 C8046 1.356 . S
N8044 H8056 0.984 . S
N8044 H8057 0.985 . S
N8045 C8047 1.356 . S
N8045 H8050 0.984 . S
N8045 H8051 0.985 . S
C8046 C8040 1.379 . S
C8046 C8043 1.363 . S
C8046 N8044 1.356 . S
C8047 C8041 1.363 . S
C8047 C8042 1.379 . S
C8047 N8045 1.356 . S
N8048 C8040 1.356 . S
N8048 H8054 0.984 . S
N8048 H8055 0.984 . S
N8049 C8042 1.356 . S
N8049 H8052 0.984 . S
N8049 H8053 0.985 . S
H8050 N8045 0.984 . S
H8051 N8045 0.985 . S
H8052 N8049 0.984 . S
H8053 N8049 0.985 . S
H8054 N8048 0.984 . S
H8055 N8048 0.984 . S
H8056 N8044 0.984 . S
H8057 N8044 0.985 . S
C8058 C8059 1.363 . S
C8058 C8064 1.379 . S
C8058 N8066 1.356 . S
C8059 C8058 1.363 . S
C8059 C8065 1.363 . S
C8060 C8061 1.363 . S
C8060 C8065 1.379 . S
C8060 N8067 1.356 . S
C8061 C8060 1.363 . S
C8061 C8064 1.363 . S
N8062 C8064 1.356 . S
N8062 H8074 0.984 . S
N8062 H8075 0.985 . S
N8063 C8065 1.356 . S
N8063 H8068 0.984 . S
N8063 H8069 0.985 . S
C8064 C8058 1.379 . S
C8064 C8061 1.363 . S
C8064 N8062 1.356 . S
C8065 C8059 1.363 . S
C8065 C8060 1.379 . S
C8065 N8063 1.356 . S
N8066 C8058 1.356 . S
N8066 H8072 0.984 . S
N8066 H8073 0.984 . S
N8067 C8060 1.356 . S
N8067 H8070 0.984 . S
N8067 H8071 0.985 . S
H8068 N8063 0.984 . S
H8069 N8063 0.985 . S
H8070 N8067 0.984 . S
H8071 N8067 0.985 . S
H8072 N8066 0.984 . S
H8073 N8066 0.984 . S
H8074 N8062 0.984 . S
H8075 N8062 0.985 . S
C8076 C8077 1.363 . S
C8076 C8082 1.379 . S
C8076 N8084 1.356 . S
C8077 C8076 1.363 . S
C8077 C8083 1.363 . S
C8078 C8079 1.363 . S
C8078 C8083 1.379 . S
C8078 N8085 1.356 . S
C8079 C8078 1.363 . S
C8079 C8082 1.363 . S
N8080 C8082 1.356 . S
N8080 H8092 0.984 . S
N8080 H8093 0.985 . S
N8081 C8083 1.356 . S
N8081 H8086 0.984 . S
N8081 H8087 0.985 . S
C8082 C8076 1.379 . S
C8082 C8079 1.363 . S
C8082 N8080 1.356 . S
C8083 C8077 1.363 . S
C8083 C8078 1.379 . S
C8083 N8081 1.356 . S
N8084 C8076 1.356 . S
N8084 H8090 0.984 . S
N8084 H8091 0.984 . S
N8085 C8078 1.356 . S
N8085 H8088 0.984 . S
N8085 H8089 0.985 . S
H8086 N8081 0.984 . S
H8087 N8081 0.985 . S
H8088 N8085 0.984 . S
H8089 N8085 0.985 . S
H8090 N8084 0.984 . S
H8091 N8084 0.984 . S
H8092 N8080 0.984 . S
H8093 N8080 0.985 . S
C8094 C8095 1.363 . S
C8094 C8100 1.379 . S
C8094 N8102 1.356 . S
C8095 C8094 1.363 . S
C8095 C8101 1.363 . S
C8096 C8097 1.363 . S
C8096 C8101 1.379 . S
C8096 N8103 1.356 . S
C8097 C8096 1.363 . S
C8097 C8100 1.363 . S
N8098 C8100 1.356 . S
N8098 H8110 0.984 . S
N8098 H8111 0.985 . S
N8099 C8101 1.356 . S
N8099 H8104 0.984 . S
N8099 H8105 0.985 . S
C8100 C8094 1.379 . S
C8100 C8097 1.363 . S
C8100 N8098 1.356 . S
C8101 C8095 1.363 . S
C8101 C8096 1.379 . S
C8101 N8099 1.356 . S
N8102 C8094 1.356 . S
N8102 H8108 0.984 . S
N8102 H8109 0.984 . S
N8103 C8096 1.356 . S
N8103 H8106 0.984 . S
N8103 H8107 0.985 . S
H8104 N8099 0.984 . S
H8105 N8099 0.985 . S
H8106 N8103 0.984 . S
H8107 N8103 0.985 . S
H8108 N8102 0.984 . S
H8109 N8102 0.984 . S
H8110 N8098 0.984 . S
H8111 N8098 0.985 . S
C8112 C8113 1.363 . S
C8112 C8118 1.379 . S
C8112 N8120 1.356 . S
C8113 C8112 1.363 . S
C8113 C8119 1.363 . S
C8114 C8115 1.363 . S
C8114 C8119 1.379 . S
C8114 N8121 1.356 . S
C8115 C8114 1.363 . S
C8115 C8118 1.363 . S
N8116 C8118 1.356 . S
N8116 H8128 0.984 . S
N8116 H8129 0.985 . S
N8117 C8119 1.356 . S
N8117 H8122 0.984 . S
N8117 H8123 0.985 . S
C8118 C8112 1.379 . S
C8118 C8115 1.363 . S
C8118 N8116 1.356 . S
C8119 C8113 1.363 . S
C8119 C8114 1.379 . S
C8119 N8117 1.356 . S
N8120 C8112 1.356 . S
N8120 H8126 0.984 . S
N8120 H8127 0.984 . S
N8121 C8114 1.356 . S
N8121 H8124 0.984 . S
N8121 H8125 0.985 . S
H8122 N8117 0.984 . S
H8123 N8117 0.985 . S
H8124 N8121 0.984 . S
H8125 N8121 0.985 . S
H8126 N8120 0.984 . S
H8127 N8120 0.984 . S
H8128 N8116 0.984 . S
H8129 N8116 0.985 . S
C8130 C8131 1.363 . S
C8130 C8136 1.379 . S
C8130 N8138 1.356 . S
C8131 C8130 1.363 . S
C8131 C8137 1.363 . S
C8132 C8133 1.363 . S
C8132 C8137 1.379 . S
C8132 N8139 1.356 . S
C8133 C8132 1.363 . S
C8133 C8136 1.363 . S
N8134 C8136 1.356 . S
N8134 H8146 0.984 . S
N8134 H8147 0.985 . S
N8135 C8137 1.356 . S
N8135 H8140 0.984 . S
N8135 H8141 0.985 . S
C8136 C8130 1.379 . S
C8136 C8133 1.363 . S
C8136 N8134 1.356 . S
C8137 C8131 1.363 . S
C8137 C8132 1.379 . S
C8137 N8135 1.356 . S
N8138 C8130 1.356 . S
N8138 H8144 0.984 . S
N8138 H8145 0.984 . S
N8139 C8132 1.356 . S
N8139 H8142 0.984 . S
N8139 H8143 0.985 . S
H8140 N8135 0.984 . S
H8141 N8135 0.985 . S
H8142 N8139 0.984 . S
H8143 N8139 0.985 . S
H8144 N8138 0.984 . S
H8145 N8138 0.984 . S
H8146 N8134 0.984 . S
H8147 N8134 0.985 . S
C8148 C8149 1.363 . S
C8148 C8154 1.379 . S
C8148 N8156 1.356 . S
C8149 C8148 1.363 . S
C8149 C8155 1.363 . S
C8150 C8151 1.363 . S
C8150 C8155 1.379 . S
C8150 N8157 1.356 . S
C8151 C8150 1.363 . S
C8151 C8154 1.363 . S
N8152 C8154 1.356 . S
N8152 H8164 0.984 . S
N8152 H8165 0.985 . S
N8153 C8155 1.356 . S
N8153 H8158 0.984 . S
N8153 H8159 0.985 . S
C8154 C8148 1.379 . S
C8154 C8151 1.363 . S
C8154 N8152 1.356 . S
C8155 C8149 1.363 . S
C8155 C8150 1.379 . S
C8155 N8153 1.356 . S
N8156 C8148 1.356 . S
N8156 H8162 0.984 . S
N8156 H8163 0.984 . S
N8157 C8150 1.356 . S
N8157 H8160 0.984 . S
N8157 H8161 0.985 . S
H8158 N8153 0.984 . S
H8159 N8153 0.985 . S
H8160 N8157 0.984 . S
H8161 N8157 0.985 . S
H8162 N8156 0.984 . S
H8163 N8156 0.984 . S
H8164 N8152 0.984 . S
H8165 N8152 0.985 . S
C8166 C8167 1.363 . S
C8166 C8172 1.379 . S
C8166 N8174 1.356 . S
C8167 C8166 1.363 . S
C8167 C8173 1.363 . S
C8168 C8169 1.363 . S
C8168 C8173 1.379 . S
C8168 N8175 1.356 . S
C8169 C8168 1.363 . S
C8169 C8172 1.363 . S
N8170 C8172 1.356 . S
N8170 H8182 0.984 . S
N8170 H8183 0.985 . S
N8171 C8173 1.356 . S
N8171 H8176 0.984 . S
N8171 H8177 0.985 . S
C8172 C8166 1.379 . S
C8172 C8169 1.363 . S
C8172 N8170 1.356 . S
C8173 C8167 1.363 . S
C8173 C8168 1.379 . S
C8173 N8171 1.356 . S
N8174 C8166 1.356 . S
N8174 H8180 0.984 . S
N8174 H8181 0.984 . S
N8175 C8168 1.356 . S
N8175 H8178 0.984 . S
N8175 H8179 0.985 . S
H8176 N8171 0.984 . S
H8177 N8171 0.985 . S
H8178 N8175 0.984 . S
H8179 N8175 0.985 . S
H8180 N8174 0.984 . S
H8181 N8174 0.984 . S
H8182 N8170 0.984 . S
H8183 N8170 0.985 . S
C8184 C8185 1.363 . S
C8184 C8190 1.379 . S
C8184 N8192 1.356 . S
C8185 C8184 1.363 . S
C8185 C8191 1.363 . S
C8186 C8187 1.363 . S
C8186 C8191 1.379 . S
C8186 N8193 1.356 . S
C8187 C8186 1.363 . S
C8187 C8190 1.363 . S
N8188 C8190 1.356 . S
N8188 H8200 0.984 . S
N8188 H8201 0.985 . S
N8189 C8191 1.356 . S
N8189 H8194 0.984 . S
N8189 H8195 0.985 . S
C8190 C8184 1.379 . S
C8190 C8187 1.363 . S
C8190 N8188 1.356 . S
C8191 C8185 1.363 . S
C8191 C8186 1.379 . S
C8191 N8189 1.356 . S
N8192 C8184 1.356 . S
N8192 H8198 0.984 . S
N8192 H8199 0.984 . S
N8193 C8186 1.356 . S
N8193 H8196 0.984 . S
N8193 H8197 0.985 . S
H8194 N8189 0.984 . S
H8195 N8189 0.985 . S
H8196 N8193 0.984 . S
H8197 N8193 0.985 . S
H8198 N8192 0.984 . S
H8199 N8192 0.984 . S
H8200 N8188 0.984 . S
H8201 N8188 0.985 . S
C8202 C8203 1.363 . S
C8202 C8208 1.379 . S
C8202 N8210 1.356 . S
C8203 C8202 1.363 . S
C8203 C8209 1.363 . S
C8204 C8205 1.363 . S
C8204 C8209 1.379 . S
C8204 N8211 1.356 . S
C8205 C8204 1.363 . S
C8205 C8208 1.363 . S
N8206 C8208 1.356 . S
N8206 H8218 0.984 . S
N8206 H8219 0.985 . S
N8207 C8209 1.356 . S
N8207 H8212 0.984 . S
N8207 H8213 0.985 . S
C8208 C8202 1.379 . S
C8208 C8205 1.363 . S
C8208 N8206 1.356 . S
C8209 C8203 1.363 . S
C8209 C8204 1.379 . S
C8209 N8207 1.356 . S
N8210 C8202 1.356 . S
N8210 H8216 0.984 . S
N8210 H8217 0.984 . S
N8211 C8204 1.356 . S
N8211 H8214 0.984 . S
N8211 H8215 0.985 . S
H8212 N8207 0.984 . S
H8213 N8207 0.985 . S
H8214 N8211 0.984 . S
H8215 N8211 0.985 . S
H8216 N8210 0.984 . S
H8217 N8210 0.984 . S
H8218 N8206 0.984 . S
H8219 N8206 0.985 . S
C8220 C8221 1.363 . S
C8220 C8226 1.379 . S
C8220 N8228 1.356 . S
C8221 C8220 1.363 . S
C8221 C8227 1.363 . S
C8222 C8223 1.363 . S
C8222 C8227 1.379 . S
C8222 N8229 1.356 . S
C8223 C8222 1.363 . S
C8223 C8226 1.363 . S
N8224 C8226 1.356 . S
N8224 H8236 0.984 . S
N8224 H8237 0.985 . S
N8225 C8227 1.356 . S
N8225 H8230 0.984 . S
N8225 H8231 0.985 . S
C8226 C8220 1.379 . S
C8226 C8223 1.363 . S
C8226 N8224 1.356 . S
C8227 C8221 1.363 . S
C8227 C8222 1.379 . S
C8227 N8225 1.356 . S
N8228 C8220 1.356 . S
N8228 H8234 0.984 . S
N8228 H8235 0.984 . S
N8229 C8222 1.356 . S
N8229 H8232 0.984 . S
N8229 H8233 0.985 . S
H8230 N8225 0.984 . S
H8231 N8225 0.985 . S
H8232 N8229 0.984 . S
H8233 N8229 0.985 . S
H8234 N8228 0.984 . S
H8235 N8228 0.984 . S
H8236 N8224 0.984 . S
H8237 N8224 0.985 . S
C8238 C8239 1.363 . S
C8238 C8244 1.379 . S
C8238 N8246 1.356 . S
C8239 C8238 1.363 . S
C8239 C8245 1.363 . S
C8240 C8241 1.363 . S
C8240 C8245 1.379 . S
C8240 N8247 1.356 . S
C8241 C8240 1.363 . S
C8241 C8244 1.363 . S
N8242 C8244 1.356 . S
N8242 H8254 0.984 . S
N8242 H8255 0.985 . S
N8243 C8245 1.356 . S
N8243 H8248 0.984 . S
N8243 H8249 0.985 . S
C8244 C8238 1.379 . S
C8244 C8241 1.363 . S
C8244 N8242 1.356 . S
C8245 C8239 1.363 . S
C8245 C8240 1.379 . S
C8245 N8243 1.356 . S
N8246 C8238 1.356 . S
N8246 H8252 0.984 . S
N8246 H8253 0.984 . S
N8247 C8240 1.356 . S
N8247 H8250 0.984 . S
N8247 H8251 0.985 . S
H8248 N8243 0.984 . S
H8249 N8243 0.985 . S
H8250 N8247 0.984 . S
H8251 N8247 0.985 . S
H8252 N8246 0.984 . S
H8253 N8246 0.984 . S
H8254 N8242 0.984 . S
H8255 N8242 0.985 . S
C8256 C8257 1.363 . S
C8256 C8262 1.379 1_655 S
C8256 N8264 1.356 . S
C8257 C8256 1.363 . S
C8257 C8263 1.363 . S
C8258 C8259 1.363 . S
C8258 C8263 1.379 1_455 S
C8258 N8265 1.356 . S
C8259 C8258 1.363 . S
C8259 C8262 1.363 . S
N8260 C8262 1.356 . S
N8260 H8272 0.984 . S
N8260 H8273 0.985 . S
N8261 C8263 1.356 . S
N8261 H8266 0.984 . S
N8261 H8267 0.985 . S
C8262 C8256 1.379 1_455 S
C8262 C8259 1.363 . S
C8262 N8260 1.356 . S
C8263 C8257 1.363 . S
C8263 C8258 1.379 1_655 S
C8263 N8261 1.356 . S
N8264 C8256 1.356 . S
N8264 H8270 0.984 . S
N8264 H8271 0.984 . S
N8265 C8258 1.356 . S
N8265 H8268 0.984 . S
N8265 H8269 0.985 . S
H8266 N8261 0.984 . S
H8267 N8261 0.985 . S
H8268 N8265 0.984 . S
H8269 N8265 0.985 . S
H8270 N8264 0.984 . S
H8271 N8264 0.984 . S
H8272 N8260 0.984 . S
H8273 N8260 0.985 . S
C8274 C8275 1.363 . S
C8274 C8280 1.379 . S
C8274 N8282 1.356 . S
C8275 C8274 1.363 . S
C8275 C8281 1.363 . S
C8276 C8277 1.363 . S
C8276 C8281 1.379 . S
C8276 N8283 1.356 . S
C8277 C8276 1.363 . S
C8277 C8280 1.363 . S
N8278 C8280 1.356 . S
N8278 H8290 0.984 . S
N8278 H8291 0.985 . S
N8279 C8281 1.356 . S
N8279 H8284 0.984 . S
N8279 H8285 0.985 . S
C8280 C8274 1.379 . S
C8280 C8277 1.363 . S
C8280 N8278 1.356 . S
C8281 C8275 1.363 . S
C8281 C8276 1.379 . S
C8281 N8279 1.356 . S
N8282 C8274 1.356 . S
N8282 H8288 0.984 . S
N8282 H8289 0.984 . S
N8283 C8276 1.356 . S
N8283 H8286 0.984 . S
N8283 H8287 0.985 . S
H8284 N8279 0.984 . S
H8285 N8279 0.985 . S
H8286 N8283 0.984 . S
H8287 N8283 0.985 . S
H8288 N8282 0.984 . S
H8289 N8282 0.984 . S
H8290 N8278 0.984 . S
H8291 N8278 0.985 . S
C8292 C8293 1.363 1_565 S
C8292 C8298 1.379 1_655 S
C8292 N8300 1.356 . S
C8293 C8292 1.363 1_545 S
C8293 C8299 1.363 . S
C8294 C8295 1.363 1_545 S
C8294 C8299 1.379 1_455 S
C8294 N8301 1.356 . S
C8295 C8294 1.363 1_565 S
C8295 C8298 1.363 . S
N8296 C8298 1.356 . S
N8296 H8308 0.984 . S
N8296 H8309 0.985 . S
N8297 C8299 1.356 . S
N8297 H8302 0.984 . S
N8297 H8303 0.985 . S
C8298 C8292 1.379 1_455 S
C8298 C8295 1.363 . S
C8298 N8296 1.356 . S
C8299 C8293 1.363 . S
C8299 C8294 1.379 1_655 S
C8299 N8297 1.356 . S
N8300 C8292 1.356 . S
N8300 H8306 0.984 . S
N8300 H8307 0.984 . S
N8301 C8294 1.356 . S
N8301 H8304 0.984 . S
N8301 H8305 0.985 . S
H8302 N8297 0.984 . S
H8303 N8297 0.985 . S
H8304 N8301 0.984 . S
H8305 N8301 0.985 . S
H8306 N8300 0.984 . S
H8307 N8300 0.984 . S
H8308 N8296 0.984 . S
H8309 N8296 0.985 . S
C8310 C8311 1.363 . S
C8310 C8316 1.379 . S
C8310 N8318 1.356 . S
C8311 C8310 1.363 . S
C8311 C8317 1.363 . S
C8312 C8313 1.363 . S
C8312 C8317 1.379 . S
C8312 N8319 1.356 . S
C8313 C8312 1.363 . S
C8313 C8316 1.363 . S
N8314 C8316 1.356 . S
N8314 H8326 0.984 . S
N8314 H8327 0.985 . S
N8315 C8317 1.356 . S
N8315 H8320 0.984 . S
N8315 H8321 0.985 . S
C8316 C8310 1.379 . S
C8316 C8313 1.363 . S
C8316 N8314 1.356 . S
C8317 C8311 1.363 . S
C8317 C8312 1.379 . S
C8317 N8315 1.356 . S
N8318 C8310 1.356 . S
N8318 H8324 0.984 . S
N8318 H8325 0.984 . S
N8319 C8312 1.356 . S
N8319 H8322 0.984 . S
N8319 H8323 0.985 . S
H8320 N8315 0.984 . S
H8321 N8315 0.985 . S
H8322 N8319 0.984 . S
H8323 N8319 0.985 . S
H8324 N8318 0.984 . S
H8325 N8318 0.984 . S
H8326 N8314 0.984 . S
H8327 N8314 0.985 . S
C8328 C8329 1.363 . S
C8328 C8334 1.379 1_455 S
C8328 N8336 1.356 . S
C8329 C8328 1.363 . S
C8329 C8335 1.363 . S
C8330 C8331 1.363 . S
C8330 C8335 1.379 1_655 S
C8330 N8337 1.356 . S
C8331 C8330 1.363 . S
C8331 C8334 1.363 . S
N8332 C8334 1.356 . S
N8332 H8344 0.984 . S
N8332 H8345 0.985 . S
N8333 C8335 1.356 . S
N8333 H8338 0.984 . S
N8333 H8339 0.985 . S
C8334 C8328 1.379 1_655 S
C8334 C8331 1.363 . S
C8334 N8332 1.356 . S
C8335 C8329 1.363 . S
C8335 C8330 1.379 1_455 S
C8335 N8333 1.356 . S
N8336 C8328 1.356 . S
N8336 H8342 0.984 . S
N8336 H8343 0.984 . S
N8337 C8330 1.356 . S
N8337 H8340 0.984 . S
N8337 H8341 0.985 . S
H8338 N8333 0.984 . S
H8339 N8333 0.985 . S
H8340 N8337 0.984 . S
H8341 N8337 0.985 . S
H8342 N8336 0.984 . S
H8343 N8336 0.984 . S
H8344 N8332 0.984 . S
H8345 N8332 0.985 . S
C8346 C8347 1.363 . S
C8346 C8352 1.379 . S
C8346 N8354 1.356 . S
C8347 C8346 1.363 . S
C8347 C8353 1.363 . S
C8348 C8349 1.363 . S
C8348 C8353 1.379 . S
C8348 N8355 1.356 . S
C8349 C8348 1.363 . S
C8349 C8352 1.363 . S
N8350 C8352 1.356 . S
N8350 H8362 0.984 . S
N8350 H8363 0.985 . S
N8351 C8353 1.356 . S
N8351 H8356 0.984 . S
N8351 H8357 0.985 . S
C8352 C8346 1.379 . S
C8352 C8349 1.363 . S
C8352 N8350 1.356 . S
C8353 C8347 1.363 . S
C8353 C8348 1.379 . S
C8353 N8351 1.356 . S
N8354 C8346 1.356 . S
N8354 H8360 0.984 . S
N8354 H8361 0.984 . S
N8355 C8348 1.356 . S
N8355 H8358 0.984 . S
N8355 H8359 0.985 . S
H8356 N8351 0.984 . S
H8357 N8351 0.985 . S
H8358 N8355 0.984 . S
H8359 N8355 0.985 . S
H8360 N8354 0.984 . S
H8361 N8354 0.984 . S
H8362 N8350 0.984 . S
H8363 N8350 0.985 . S
C8364 C8365 1.363 1_545 S
C8364 C8370 1.379 1_655 S
C8364 N8372 1.356 . S
C8365 C8364 1.363 1_565 S
C8365 C8371 1.363 . S
C8366 C8367 1.363 1_565 S
C8366 C8371 1.379 1_455 S
C8366 N8373 1.356 . S
C8367 C8366 1.363 1_545 S
C8367 C8370 1.363 . S
N8368 C8370 1.356 . S
N8368 H8380 0.984 . S
N8368 H8381 0.985 . S
N8369 C8371 1.356 . S
N8369 H8374 0.984 . S
N8369 H8375 0.985 . S
C8370 C8364 1.379 1_455 S
C8370 C8367 1.363 . S
C8370 N8368 1.356 . S
C8371 C8365 1.363 . S
C8371 C8366 1.379 1_655 S
C8371 N8369 1.356 . S
N8372 C8364 1.356 . S
N8372 H8378 0.984 . S
N8372 H8379 0.984 . S
N8373 C8366 1.356 . S
N8373 H8376 0.984 . S
N8373 H8377 0.985 . S
H8374 N8369 0.984 . S
H8375 N8369 0.985 . S
H8376 N8373 0.984 . S
H8377 N8373 0.985 . S
H8378 N8372 0.984 . S
H8379 N8372 0.984 . S
H8380 N8368 0.984 . S
H8381 N8368 0.985 . S
C8382 C8383 1.363 . S
C8382 C8388 1.379 . S
C8382 N8390 1.356 . S
C8383 C8382 1.363 . S
C8383 C8389 1.363 . S
C8384 C8385 1.363 . S
C8384 C8389 1.379 . S
C8384 N8391 1.356 . S
C8385 C8384 1.363 . S
C8385 C8388 1.363 . S
N8386 C8388 1.356 . S
N8386 H8398 0.984 . S
N8386 H8399 0.985 . S
N8387 C8389 1.356 . S
N8387 H8392 0.984 . S
N8387 H8393 0.985 . S
C8388 C8382 1.379 . S
C8388 C8385 1.363 . S
C8388 N8386 1.356 . S
C8389 C8383 1.363 . S
C8389 C8384 1.379 . S
C8389 N8387 1.356 . S
N8390 C8382 1.356 . S
N8390 H8396 0.984 . S
N8390 H8397 0.984 . S
N8391 C8384 1.356 . S
N8391 H8394 0.984 . S
N8391 H8395 0.985 . S
H8392 N8387 0.984 . S
H8393 N8387 0.985 . S
H8394 N8391 0.984 . S
H8395 N8391 0.985 . S
H8396 N8390 0.984 . S
H8397 N8390 0.984 . S
H8398 N8386 0.984 . S
H8399 N8386 0.985 . S
C8400 C8401 1.363 . S
C8400 C8406 1.379 1_545 S
C8400 N8408 1.356 . S
C8401 C8400 1.363 . S
C8401 C8407 1.363 . S
C8402 C8403 1.363 . S
C8402 C8407 1.379 1_565 S
C8402 N8409 1.356 . S
C8403 C8402 1.363 . S
C8403 C8406 1.363 . S
N8404 C8406 1.356 . S
N8404 H8416 0.984 . S
N8404 H8417 0.985 . S
N8405 C8407 1.356 . S
N8405 H8410 0.984 . S
N8405 H8411 0.985 . S
C8406 C8400 1.379 1_565 S
C8406 C8403 1.363 . S
C8406 N8404 1.356 . S
C8407 C8401 1.363 . S
C8407 C8402 1.379 1_545 S
C8407 N8405 1.356 . S
N8408 C8400 1.356 . S
N8408 H8414 0.984 . S
N8408 H8415 0.984 . S
N8409 C8402 1.356 . S
N8409 H8412 0.984 . S
N8409 H8413 0.985 . S
H8410 N8405 0.984 . S
H8411 N8405 0.985 . S
H8412 N8409 0.984 . S
H8413 N8409 0.985 . S
H8414 N8408 0.984 . S
H8415 N8408 0.984 . S
H8416 N8404 0.984 . S
H8417 N8404 0.985 . S
C8418 C8419 1.363 . S
C8418 C8424 1.379 . S
C8418 N8426 1.356 . S
C8419 C8418 1.363 . S
C8419 C8425 1.363 . S
C8420 C8421 1.363 . S
C8420 C8425 1.379 . S
C8420 N8427 1.356 . S
C8421 C8420 1.363 . S
C8421 C8424 1.363 . S
N8422 C8424 1.356 . S
N8422 H8434 0.984 . S
N8422 H8435 0.985 . S
N8423 C8425 1.356 . S
N8423 H8428 0.984 . S
N8423 H8429 0.985 . S
C8424 C8418 1.379 . S
C8424 C8421 1.363 . S
C8424 N8422 1.356 . S
C8425 C8419 1.363 . S
C8425 C8420 1.379 . S
C8425 N8423 1.356 . S
N8426 C8418 1.356 . S
N8426 H8432 0.984 . S
N8426 H8433 0.984 . S
N8427 C8420 1.356 . S
N8427 H8430 0.984 . S
N8427 H8431 0.985 . S
H8428 N8423 0.984 . S
H8429 N8423 0.985 . S
H8430 N8427 0.984 . S
H8431 N8427 0.985 . S
H8432 N8426 0.984 . S
H8433 N8426 0.984 . S
H8434 N8422 0.984 . S
H8435 N8422 0.985 . S
C8436 C8437 1.363 . S
C8436 C8442 1.379 . S
C8436 N8444 1.356 . S
C8437 C8436 1.363 . S
C8437 C8443 1.363 1_556 S
C8438 C8439 1.363 . S
C8438 C8443 1.379 . S
C8438 N8445 1.356 . S
C8439 C8438 1.363 . S
C8439 C8442 1.363 1_554 S
N8440 C8442 1.356 . S
N8440 H8452 0.984 . S
N8440 H8453 0.985 . S
N8441 C8443 1.356 . S
N8441 H8446 0.984 . S
N8441 H8447 0.985 . S
C8442 C8436 1.379 . S
C8442 C8439 1.363 1_556 S
C8442 N8440 1.356 . S
C8443 C8437 1.363 1_554 S
C8443 C8438 1.379 . S
C8443 N8441 1.356 . S
N8444 C8436 1.356 . S
N8444 H8450 0.984 . S
N8444 H8451 0.984 . S
N8445 C8438 1.356 . S
N8445 H8448 0.984 . S
N8445 H8449 0.985 . S
H8446 N8441 0.984 . S
H8447 N8441 0.985 . S
H8448 N8445 0.984 . S
H8449 N8445 0.985 . S
H8450 N8444 0.984 . S
H8451 N8444 0.984 . S
H8452 N8440 0.984 . S
H8453 N8440 0.985 . S
C8454 C8455 1.363 . S
C8454 C8460 1.379 . S
C8454 N8462 1.356 . S
C8455 C8454 1.363 . S
C8455 C8461 1.363 . S
C8456 C8457 1.363 . S
C8456 C8461 1.379 . S
C8456 N8463 1.356 . S
C8457 C8456 1.363 . S
C8457 C8460 1.363 . S
N8458 C8460 1.356 . S
N8458 H8470 0.984 . S
N8458 H8471 0.985 . S
N8459 C8461 1.356 . S
N8459 H8464 0.984 . S
N8459 H8465 0.985 . S
C8460 C8454 1.379 . S
C8460 C8457 1.363 . S
C8460 N8458 1.356 . S
C8461 C8455 1.363 . S
C8461 C8456 1.379 . S
C8461 N8459 1.356 . S
N8462 C8454 1.356 . S
N8462 H8468 0.984 . S
N8462 H8469 0.984 . S
N8463 C8456 1.356 . S
N8463 H8466 0.984 . S
N8463 H8467 0.985 . S
H8464 N8459 0.984 . S
H8465 N8459 0.985 . S
H8466 N8463 0.984 . S
H8467 N8463 0.985 . S
H8468 N8462 0.984 . S
H8469 N8462 0.984 . S
H8470 N8458 0.984 . S
H8471 N8458 0.985 . S
C8472 C8473 1.363 . S
C8472 C8478 1.379 1_554 S
C8472 N8480 1.356 . S
C8473 C8472 1.363 . S
C8473 C8479 1.363 . S
C8474 C8475 1.363 . S
C8474 C8479 1.379 1_556 S
C8474 N8481 1.356 . S
C8475 C8474 1.363 . S
C8475 C8478 1.363 . S
N8476 C8478 1.356 . S
N8476 H8488 0.984 . S
N8476 H8489 0.985 . S
N8477 C8479 1.356 . S
N8477 H8482 0.984 . S
N8477 H8483 0.985 . S
C8478 C8472 1.379 1_556 S
C8478 C8475 1.363 . S
C8478 N8476 1.356 . S
C8479 C8473 1.363 . S
C8479 C8474 1.379 1_554 S
C8479 N8477 1.356 . S
N8480 C8472 1.356 . S
N8480 H8486 0.984 . S
N8480 H8487 0.984 . S
N8481 C8474 1.356 . S
N8481 H8484 0.984 . S
N8481 H8485 0.985 . S
H8482 N8477 0.984 . S
H8483 N8477 0.985 . S
H8484 N8481 0.984 . S
H8485 N8481 0.985 . S
H8486 N8480 0.984 . S
H8487 N8480 0.984 . S
H8488 N8476 0.984 . S
H8489 N8476 0.985 . S
C8490 C8491 1.363 . S
C8490 C8496 1.379 . S
C8490 N8498 1.356 . S
C8491 C8490 1.363 . S
C8491 C8497 1.363 1_455 S
C8492 C8493 1.363 . S
C8492 C8497 1.379 . S
C8492 N8499 1.356 . S
C8493 C8492 1.363 . S
C8493 C8496 1.363 1_655 S
N8494 C8496 1.356 . S
N8494 H8506 0.984 . S
N8494 H8507 0.985 . S
N8495 C8497 1.356 . S
N8495 H8500 0.984 . S
N8495 H8501 0.985 . S
C8496 C8490 1.379 . S
C8496 C8493 1.363 1_455 S
C8496 N8494 1.356 . S
C8497 C8491 1.363 1_655 S
C8497 C8492 1.379 . S
C8497 N8495 1.356 . S
N8498 C8490 1.356 . S
N8498 H8504 0.984 . S
N8498 H8505 0.984 . S
N8499 C8492 1.356 . S
N8499 H8502 0.984 . S
N8499 H8503 0.985 . S
H8500 N8495 0.984 . S
H8501 N8495 0.985 . S
H8502 N8499 0.984 . S
H8503 N8499 0.985 . S
H8504 N8498 0.984 . S
H8505 N8498 0.984 . S
H8506 N8494 0.984 . S
H8507 N8494 0.985 . S
C8508 C8509 1.363 . S
C8508 C8514 1.379 . S
C8508 N8516 1.356 . S
C8509 C8508 1.363 . S
C8509 C8515 1.363 . S
C8510 C8511 1.363 . S
C8510 C8515 1.379 . S
C8510 N8517 1.356 . S
C8511 C8510 1.363 . S
C8511 C8514 1.363 . S
N8512 C8514 1.356 . S
N8512 H8524 0.984 . S
N8512 H8525 0.985 . S
N8513 C8515 1.356 . S
N8513 H8518 0.984 . S
N8513 H8519 0.985 . S
C8514 C8508 1.379 . S
C8514 C8511 1.363 . S
C8514 N8512 1.356 . S
C8515 C8509 1.363 . S
C8515 C8510 1.379 . S
C8515 N8513 1.356 . S
N8516 C8508 1.356 . S
N8516 H8522 0.984 . S
N8516 H8523 0.984 . S
N8517 C8510 1.356 . S
N8517 H8520 0.984 . S
N8517 H8521 0.985 . S
H8518 N8513 0.984 . S
H8519 N8513 0.985 . S
H8520 N8517 0.984 . S
H8521 N8517 0.985 . S
H8522 N8516 0.984 . S
H8523 N8516 0.984 . S
H8524 N8512 0.984 . S
H8525 N8512 0.985 . S
C8526 C8527 1.363 . S
C8526 C8532 1.379 1_554 S
C8526 N8534 1.356 . S
C8527 C8526 1.363 . S
C8527 C8533 1.363 1_655 S
C8528 C8529 1.363 . S
C8528 C8533 1.379 1_556 S
C8528 N8535 1.356 . S
C8529 C8528 1.363 . S
C8529 C8532 1.363 1_455 S
N8530 C8532 1.356 . S
N8530 H8542 0.984 . S
N8530 H8543 0.985 . S
N8531 C8533 1.356 . S
N8531 H8536 0.984 . S
N8531 H8537 0.985 . S
C8532 C8526 1.379 1_556 S
C8532 C8529 1.363 1_655 S
C8532 N8530 1.356 . S
C8533 C8527 1.363 1_455 S
C8533 C8528 1.379 1_554 S
C8533 N8531 1.356 . S
N8534 C8526 1.356 . S
N8534 H8540 0.984 . S
N8534 H8541 0.984 . S
N8535 C8528 1.356 . S
N8535 H8538 0.984 . S
N8535 H8539 0.985 . S
H8536 N8531 0.984 . S
H8537 N8531 0.985 . S
H8538 N8535 0.984 . S
H8539 N8535 0.985 . S
H8540 N8534 0.984 . S
H8541 N8534 0.984 . S
H8542 N8530 0.984 . S
H8543 N8530 0.985 . S
C8544 C8545 1.363 . S
C8544 C8550 1.379 . S
C8544 N8552 1.356 . S
C8545 C8544 1.363 . S
C8545 C8551 1.363 . S
C8546 C8547 1.363 . S
C8546 C8551 1.379 . S
C8546 N8553 1.356 . S
C8547 C8546 1.363 . S
C8547 C8550 1.363 . S
N8548 C8550 1.356 . S
N8548 H8560 0.984 . S
N8548 H8561 0.985 . S
N8549 C8551 1.356 . S
N8549 H8554 0.984 . S
N8549 H8555 0.985 . S
C8550 C8544 1.379 . S
C8550 C8547 1.363 . S
C8550 N8548 1.356 . S
C8551 C8545 1.363 . S
C8551 C8546 1.379 . S
C8551 N8549 1.356 . S
N8552 C8544 1.356 . S
N8552 H8558 0.984 . S
N8552 H8559 0.984 . S
N8553 C8546 1.356 . S
N8553 H8556 0.984 . S
N8553 H8557 0.985 . S
H8554 N8549 0.984 . S
H8555 N8549 0.985 . S
H8556 N8553 0.984 . S
H8557 N8553 0.985 . S
H8558 N8552 0.984 . S
H8559 N8552 0.984 . S
H8560 N8548 0.984 . S
H8561 N8548 0.985 . S
C8562 C8563 1.363 . S
C8562 C8568 1.379 1_554 S
C8562 N8570 1.356 . S
C8563 C8562 1.363 . S
C8563 C8569 1.363 . S
C8564 C8565 1.363 . S
C8564 C8569 1.379 1_556 S
C8564 N8571 1.356 . S
C8565 C8564 1.363 . S
C8565 C8568 1.363 . S
N8566 C8568 1.356 . S
N8566 H8578 0.984 . S
N8566 H8579 0.985 . S
N8567 C8569 1.356 . S
N8567 H8572 0.984 . S
N8567 H8573 0.985 . S
C8568 C8562 1.379 1_556 S
C8568 C8565 1.363 . S
C8568 N8566 1.356 . S
C8569 C8563 1.363 . S
C8569 C8564 1.379 1_554 S
C8569 N8567 1.356 . S
N8570 C8562 1.356 . S
N8570 H8576 0.984 . S
N8570 H8577 0.984 . S
N8571 C8564 1.356 . S
N8571 H8574 0.984 . S
N8571 H8575 0.985 . S
H8572 N8567 0.984 . S
H8573 N8567 0.985 . S
H8574 N8571 0.984 . S
H8575 N8571 0.985 . S
H8576 N8570 0.984 . S
H8577 N8570 0.984 . S
H8578 N8566 0.984 . S
H8579 N8566 0.985 . S
C8580 C8581 1.363 . S
C8580 C8586 1.379 . S
C8580 N8588 1.356 . S
C8581 C8580 1.363 . S
C8581 C8587 1.363 . S
C8582 C8583 1.363 . S
C8582 C8587 1.379 . S
C8582 N8589 1.356 . S
C8583 C8582 1.363 . S
C8583 C8586 1.363 . S
N8584 C8586 1.356 . S
N8584 H8596 0.984 . S
N8584 H8597 0.985 . S
N8585 C8587 1.356 . S
N8585 H8590 0.984 . S
N8585 H8591 0.985 . S
C8586 C8580 1.379 . S
C8586 C8583 1.363 . S
C8586 N8584 1.356 . S
C8587 C8581 1.363 . S
C8587 C8582 1.379 . S
C8587 N8585 1.356 . S
N8588 C8580 1.356 . S
N8588 H8594 0.984 . S
N8588 H8595 0.984 . S
N8589 C8582 1.356 . S
N8589 H8592 0.984 . S
N8589 H8593 0.985 . S
H8590 N8585 0.984 . S
H8591 N8585 0.985 . S
H8592 N8589 0.984 . S
H8593 N8589 0.985 . S
H8594 N8588 0.984 . S
H8595 N8588 0.984 . S
H8596 N8584 0.984 . S
H8597 N8584 0.985 . S
C8598 C8599 1.363 . S
C8598 C8604 1.379 . S
C8598 N8606 1.356 . S
C8599 C8598 1.363 . S
C8599 C8605 1.363 . S
C8600 C8601 1.363 . S
C8600 C8605 1.379 . S
C8600 N8607 1.356 . S
C8601 C8600 1.363 . S
C8601 C8604 1.363 . S
N8602 C8604 1.356 . S
N8602 H8614 0.984 . S
N8602 H8615 0.985 . S
N8603 C8605 1.356 . S
N8603 H8608 0.984 . S
N8603 H8609 0.985 . S
C8604 C8598 1.379 . S
C8604 C8601 1.363 . S
C8604 N8602 1.356 . S
C8605 C8599 1.363 . S
C8605 C8600 1.379 . S
C8605 N8603 1.356 . S
N8606 C8598 1.356 . S
N8606 H8612 0.984 . S
N8606 H8613 0.984 . S
N8607 C8600 1.356 . S
N8607 H8610 0.984 . S
N8607 H8611 0.985 . S
H8608 N8603 0.984 . S
H8609 N8603 0.985 . S
H8610 N8607 0.984 . S
H8611 N8607 0.985 . S
H8612 N8606 0.984 . S
H8613 N8606 0.984 . S
H8614 N8602 0.984 . S
H8615 N8602 0.985 . S
C8616 C8617 1.363 . S
C8616 C8622 1.379 . S
C8616 N8624 1.356 . S
C8617 C8616 1.363 . S
C8617 C8623 1.363 . S
C8618 C8619 1.363 . S
C8618 C8623 1.379 . S
C8618 N8625 1.356 . S
C8619 C8618 1.363 . S
C8619 C8622 1.363 . S
N8620 C8622 1.356 . S
N8620 H8632 0.984 . S
N8620 H8633 0.985 . S
N8621 C8623 1.356 . S
N8621 H8626 0.984 . S
N8621 H8627 0.985 . S
C8622 C8616 1.379 . S
C8622 C8619 1.363 . S
C8622 N8620 1.356 . S
C8623 C8617 1.363 . S
C8623 C8618 1.379 . S
C8623 N8621 1.356 . S
N8624 C8616 1.356 . S
N8624 H8630 0.984 . S
N8624 H8631 0.984 . S
N8625 C8618 1.356 . S
N8625 H8628 0.984 . S
N8625 H8629 0.985 . S
H8626 N8621 0.984 . S
H8627 N8621 0.985 . S
H8628 N8625 0.984 . S
H8629 N8625 0.985 . S
H8630 N8624 0.984 . S
H8631 N8624 0.984 . S
H8632 N8620 0.984 . S
H8633 N8620 0.985 . S
C8634 C8635 1.363 . S
C8634 C8640 1.379 . S
C8634 N8642 1.356 . S
C8635 C8634 1.363 . S
C8635 C8641 1.363 . S
C8636 C8637 1.363 . S
C8636 C8641 1.379 . S
C8636 N8643 1.356 . S
C8637 C8636 1.363 . S
C8637 C8640 1.363 . S
N8638 C8640 1.356 . S
N8638 H8650 0.984 . S
N8638 H8651 0.985 . S
N8639 C8641 1.356 . S
N8639 H8644 0.984 . S
N8639 H8645 0.985 . S
C8640 C8634 1.379 . S
C8640 C8637 1.363 . S
C8640 N8638 1.356 . S
C8641 C8635 1.363 . S
C8641 C8636 1.379 . S
C8641 N8639 1.356 . S
N8642 C8634 1.356 . S
N8642 H8648 0.984 . S
N8642 H8649 0.984 . S
N8643 C8636 1.356 . S
N8643 H8646 0.984 . S
N8643 H8647 0.985 . S
H8644 N8639 0.984 . S
H8645 N8639 0.985 . S
H8646 N8643 0.984 . S
H8647 N8643 0.985 . S
H8648 N8642 0.984 . S
H8649 N8642 0.984 . S
H8650 N8638 0.984 . S
H8651 N8638 0.985 . S
C8652 C8653 1.363 . S
C8652 C8658 1.379 . S
C8652 N8660 1.356 . S
C8653 C8652 1.363 . S
C8653 C8659 1.363 . S
C8654 C8655 1.363 . S
C8654 C8659 1.379 . S
C8654 N8661 1.356 . S
C8655 C8654 1.363 . S
C8655 C8658 1.363 . S
N8656 C8658 1.356 . S
N8656 H8668 0.984 . S
N8656 H8669 0.985 . S
N8657 C8659 1.356 . S
N8657 H8662 0.984 . S
N8657 H8663 0.985 . S
C8658 C8652 1.379 . S
C8658 C8655 1.363 . S
C8658 N8656 1.356 . S
C8659 C8653 1.363 . S
C8659 C8654 1.379 . S
C8659 N8657 1.356 . S
N8660 C8652 1.356 . S
N8660 H8666 0.984 . S
N8660 H8667 0.984 . S
N8661 C8654 1.356 . S
N8661 H8664 0.984 . S
N8661 H8665 0.985 . S
H8662 N8657 0.984 . S
H8663 N8657 0.985 . S
H8664 N8661 0.984 . S
H8665 N8661 0.985 . S
H8666 N8660 0.984 . S
H8667 N8660 0.984 . S
H8668 N8656 0.984 . S
H8669 N8656 0.985 . S
C8670 C8671 1.363 . S
C8670 C8676 1.379 . S
C8670 N8678 1.356 . S
C8671 C8670 1.363 . S
C8671 C8677 1.363 1_554 S
C8672 C8673 1.363 . S
C8672 C8677 1.379 . S
C8672 N8679 1.356 . S
C8673 C8672 1.363 . S
C8673 C8676 1.363 1_556 S
N8674 C8676 1.356 . S
N8674 H8686 0.984 . S
N8674 H8687 0.985 . S
N8675 C8677 1.356 . S
N8675 H8680 0.984 . S
N8675 H8681 0.985 . S
C8676 C8670 1.379 . S
C8676 C8673 1.363 1_554 S
C8676 N8674 1.356 . S
C8677 C8671 1.363 1_556 S
C8677 C8672 1.379 . S
C8677 N8675 1.356 . S
N8678 C8670 1.356 . S
N8678 H8684 0.984 . S
N8678 H8685 0.984 . S
N8679 C8672 1.356 . S
N8679 H8682 0.984 . S
N8679 H8683 0.985 . S
H8680 N8675 0.984 . S
H8681 N8675 0.985 . S
H8682 N8679 0.984 . S
H8683 N8679 0.985 . S
H8684 N8678 0.984 . S
H8685 N8678 0.984 . S
H8686 N8674 0.984 . S
H8687 N8674 0.985 . S
C8688 C8689 1.363 . S
C8688 C8694 1.379 . S
C8688 N8696 1.356 . S
C8689 C8688 1.363 . S
C8689 C8695 1.363 . S
C8690 C8691 1.363 . S
C8690 C8695 1.379 . S
C8690 N8697 1.356 . S
C8691 C8690 1.363 . S
C8691 C8694 1.363 . S
N8692 C8694 1.356 . S
N8692 H8704 0.984 . S
N8692 H8705 0.985 . S
N8693 C8695 1.356 . S
N8693 H8698 0.984 . S
N8693 H8699 0.985 . S
C8694 C8688 1.379 . S
C8694 C8691 1.363 . S
C8694 N8692 1.356 . S
C8695 C8689 1.363 . S
C8695 C8690 1.379 . S
C8695 N8693 1.356 . S
N8696 C8688 1.356 . S
N8696 H8702 0.984 . S
N8696 H8703 0.984 . S
N8697 C8690 1.356 . S
N8697 H8700 0.984 . S
N8697 H8701 0.985 . S
H8698 N8693 0.984 . S
H8699 N8693 0.985 . S
H8700 N8697 0.984 . S
H8701 N8697 0.985 . S
H8702 N8696 0.984 . S
H8703 N8696 0.984 . S
H8704 N8692 0.984 . S
H8705 N8692 0.985 . S
C8706 C8707 1.363 . S
C8706 C8712 1.379 1_545 S
C8706 N8714 1.356 . S
C8707 C8706 1.363 . S
C8707 C8713 1.363 . S
C8708 C8709 1.363 . S
C8708 C8713 1.379 1_565 S
C8708 N8715 1.356 . S
C8709 C8708 1.363 . S
C8709 C8712 1.363 . S
N8710 C8712 1.356 . S
N8710 H8722 0.984 . S
N8710 H8723 0.985 . S
N8711 C8713 1.356 . S
N8711 H8716 0.984 . S
N8711 H8717 0.985 . S
C8712 C8706 1.379 1_565 S
C8712 C8709 1.363 . S
C8712 N8710 1.356 . S
C8713 C8707 1.363 . S
C8713 C8708 1.379 1_545 S
C8713 N8711 1.356 . S
N8714 C8706 1.356 . S
N8714 H8720 0.984 . S
N8714 H8721 0.984 . S
N8715 C8708 1.356 . S
N8715 H8718 0.984 . S
N8715 H8719 0.985 . S
H8716 N8711 0.984 . S
H8717 N8711 0.985 . S
H8718 N8715 0.984 . S
H8719 N8715 0.985 . S
H8720 N8714 0.984 . S
H8721 N8714 0.984 . S
H8722 N8710 0.984 . S
H8723 N8710 0.985 . S
C8724 C8725 1.363 . S
C8724 C8730 1.379 . S
C8724 N8732 1.356 . S
C8725 C8724 1.363 . S
C8725 C8731 1.363 . S
C8726 C8727 1.363 . S
C8726 C8731 1.379 . S
C8726 N8733 1.356 . S
C8727 C8726 1.363 . S
C8727 C8730 1.363 . S
N8728 C8730 1.356 . S
N8728 H8740 0.984 . S
N8728 H8741 0.985 . S
N8729 C8731 1.356 . S
N8729 H8734 0.984 . S
N8729 H8735 0.985 . S
C8730 C8724 1.379 . S
C8730 C8727 1.363 . S
C8730 N8728 1.356 . S
C8731 C8725 1.363 . S
C8731 C8726 1.379 . S
C8731 N8729 1.356 . S
N8732 C8724 1.356 . S
N8732 H8738 0.984 . S
N8732 H8739 0.984 . S
N8733 C8726 1.356 . S
N8733 H8736 0.984 . S
N8733 H8737 0.985 . S
H8734 N8729 0.984 . S
H8735 N8729 0.985 . S
H8736 N8733 0.984 . S
H8737 N8733 0.985 . S
H8738 N8732 0.984 . S
H8739 N8732 0.984 . S
H8740 N8728 0.984 . S
H8741 N8728 0.985 . S
C8742 C8743 1.363 . S
C8742 C8748 1.379 . S
C8742 N8750 1.356 . S
C8743 C8742 1.363 . S
C8743 C8749 1.363 . S
C8744 C8745 1.363 . S
C8744 C8749 1.379 . S
C8744 N8751 1.356 . S
C8745 C8744 1.363 . S
C8745 C8748 1.363 . S
N8746 C8748 1.356 . S
N8746 H8758 0.984 . S
N8746 H8759 0.985 . S
N8747 C8749 1.356 . S
N8747 H8752 0.984 . S
N8747 H8753 0.985 . S
C8748 C8742 1.379 . S
C8748 C8745 1.363 . S
C8748 N8746 1.356 . S
C8749 C8743 1.363 . S
C8749 C8744 1.379 . S
C8749 N8747 1.356 . S
N8750 C8742 1.356 . S
N8750 H8756 0.984 . S
N8750 H8757 0.984 . S
N8751 C8744 1.356 . S
N8751 H8754 0.984 . S
N8751 H8755 0.985 . S
H8752 N8747 0.984 . S
H8753 N8747 0.985 . S
H8754 N8751 0.984 . S
H8755 N8751 0.985 . S
H8756 N8750 0.984 . S
H8757 N8750 0.984 . S
H8758 N8746 0.984 . S
H8759 N8746 0.985 . S
C8760 C8761 1.363 1_655 S
C8760 C8766 1.379 1_554 S
C8760 N8768 1.356 . S
C8761 C8760 1.363 1_455 S
C8761 C8767 1.363 . S
C8762 C8763 1.363 1_455 S
C8762 C8767 1.379 1_556 S
C8762 N8769 1.356 . S
C8763 C8762 1.363 1_655 S
C8763 C8766 1.363 . S
N8764 C8766 1.356 . S
N8764 H8776 0.984 . S
N8764 H8777 0.985 . S
N8765 C8767 1.356 . S
N8765 H8770 0.984 . S
N8765 H8771 0.985 . S
C8766 C8760 1.379 1_556 S
C8766 C8763 1.363 . S
C8766 N8764 1.356 . S
C8767 C8761 1.363 . S
C8767 C8762 1.379 1_554 S
C8767 N8765 1.356 . S
N8768 C8760 1.356 . S
N8768 H8774 0.984 . S
N8768 H8775 0.984 . S
N8769 C8762 1.356 . S
N8769 H8772 0.984 . S
N8769 H8773 0.985 . S
H8770 N8765 0.984 . S
H8771 N8765 0.985 . S
H8772 N8769 0.984 . S
H8773 N8769 0.985 . S
H8774 N8768 0.984 . S
H8775 N8768 0.984 . S
H8776 N8764 0.984 . S
H8777 N8764 0.985 . S
C8778 C8779 1.363 . S
C8778 C8784 1.379 . S
C8778 N8786 1.356 . S
C8779 C8778 1.363 . S
C8779 C8785 1.363 . S
C8780 C8781 1.363 . S
C8780 C8785 1.379 . S
C8780 N8787 1.356 . S
C8781 C8780 1.363 . S
C8781 C8784 1.363 . S
N8782 C8784 1.356 . S
N8782 H8794 0.984 . S
N8782 H8795 0.985 . S
N8783 C8785 1.356 . S
N8783 H8788 0.984 . S
N8783 H8789 0.985 . S
C8784 C8778 1.379 . S
C8784 C8781 1.363 . S
C8784 N8782 1.356 . S
C8785 C8779 1.363 . S
C8785 C8780 1.379 . S
C8785 N8783 1.356 . S
N8786 C8778 1.356 . S
N8786 H8792 0.984 . S
N8786 H8793 0.984 . S
N8787 C8780 1.356 . S
N8787 H8790 0.984 . S
N8787 H8791 0.985 . S
H8788 N8783 0.984 . S
H8789 N8783 0.985 . S
H8790 N8787 0.984 . S
H8791 N8787 0.985 . S
H8792 N8786 0.984 . S
H8793 N8786 0.984 . S
H8794 N8782 0.984 . S
H8795 N8782 0.985 . S
C8796 C8797 1.363 . S
C8796 C8802 1.379 . S
C8796 N8804 1.356 . S
C8797 C8796 1.363 . S
C8797 C8803 1.363 1_455 S
C8798 C8799 1.363 . S
C8798 C8803 1.379 . S
C8798 N8805 1.356 . S
C8799 C8798 1.363 . S
C8799 C8802 1.363 1_655 S
N8800 C8802 1.356 . S
N8800 H8812 0.984 . S
N8800 H8813 0.985 . S
N8801 C8803 1.356 . S
N8801 H8806 0.984 . S
N8801 H8807 0.985 . S
C8802 C8796 1.379 . S
C8802 C8799 1.363 1_455 S
C8802 N8800 1.356 . S
C8803 C8797 1.363 1_655 S
C8803 C8798 1.379 . S
C8803 N8801 1.356 . S
N8804 C8796 1.356 . S
N8804 H8810 0.984 . S
N8804 H8811 0.984 . S
N8805 C8798 1.356 . S
N8805 H8808 0.984 . S
N8805 H8809 0.985 . S
H8806 N8801 0.984 . S
H8807 N8801 0.985 . S
H8808 N8805 0.984 . S
H8809 N8805 0.985 . S
H8810 N8804 0.984 . S
H8811 N8804 0.984 . S
H8812 N8800 0.984 . S
H8813 N8800 0.985 . S
C8814 C8815 1.363 . S
C8814 C8820 1.379 . S
C8814 N8822 1.356 . S
C8815 C8814 1.363 . S
C8815 C8821 1.363 . S
C8816 C8817 1.363 . S
C8816 C8821 1.379 . S
C8816 N8823 1.356 . S
C8817 C8816 1.363 . S
C8817 C8820 1.363 . S
N8818 C8820 1.356 . S
N8818 H8830 0.984 . S
N8818 H8831 0.985 . S
N8819 C8821 1.356 . S
N8819 H8824 0.984 . S
N8819 H8825 0.985 . S
C8820 C8814 1.379 . S
C8820 C8817 1.363 . S
C8820 N8818 1.356 . S
C8821 C8815 1.363 . S
C8821 C8816 1.379 . S
C8821 N8819 1.356 . S
N8822 C8814 1.356 . S
N8822 H8828 0.984 . S
N8822 H8829 0.984 . S
N8823 C8816 1.356 . S
N8823 H8826 0.984 . S
N8823 H8827 0.985 . S
H8824 N8819 0.984 . S
H8825 N8819 0.985 . S
H8826 N8823 0.984 . S
H8827 N8823 0.985 . S
H8828 N8822 0.984 . S
H8829 N8822 0.984 . S
H8830 N8818 0.984 . S
H8831 N8818 0.985 . S
C8832 C8833 1.363 . S
C8832 C8838 1.379 . S
C8832 N8840 1.356 . S
C8833 C8832 1.363 . S
C8833 C8839 1.363 . S
C8834 C8835 1.363 . S
C8834 C8839 1.379 . S
C8834 N8841 1.356 . S
C8835 C8834 1.363 . S
C8835 C8838 1.363 . S
N8836 C8838 1.356 . S
N8836 H8848 0.984 . S
N8836 H8849 0.985 . S
N8837 C8839 1.356 . S
N8837 H8842 0.984 . S
N8837 H8843 0.985 . S
C8838 C8832 1.379 . S
C8838 C8835 1.363 . S
C8838 N8836 1.356 . S
C8839 C8833 1.363 . S
C8839 C8834 1.379 . S
C8839 N8837 1.356 . S
N8840 C8832 1.356 . S
N8840 H8846 0.984 . S
N8840 H8847 0.984 . S
N8841 C8834 1.356 . S
N8841 H8844 0.984 . S
N8841 H8845 0.985 . S
H8842 N8837 0.984 . S
H8843 N8837 0.985 . S
H8844 N8841 0.984 . S
H8845 N8841 0.985 . S
H8846 N8840 0.984 . S
H8847 N8840 0.984 . S
H8848 N8836 0.984 . S
H8849 N8836 0.985 . S
C8850 C8851 1.363 . S
C8850 C8856 1.379 . S
C8850 N8858 1.356 . S
C8851 C8850 1.363 . S
C8851 C8857 1.363 . S
C8852 C8853 1.363 . S
C8852 C8857 1.379 . S
C8852 N8859 1.356 . S
C8853 C8852 1.363 . S
C8853 C8856 1.363 . S
N8854 C8856 1.356 . S
N8854 H8866 0.984 . S
N8854 H8867 0.985 . S
N8855 C8857 1.356 . S
N8855 H8860 0.984 . S
N8855 H8861 0.985 . S
C8856 C8850 1.379 . S
C8856 C8853 1.363 . S
C8856 N8854 1.356 . S
C8857 C8851 1.363 . S
C8857 C8852 1.379 . S
C8857 N8855 1.356 . S
N8858 C8850 1.356 . S
N8858 H8864 0.984 . S
N8858 H8865 0.984 . S
N8859 C8852 1.356 . S
N8859 H8862 0.984 . S
N8859 H8863 0.985 . S
H8860 N8855 0.984 . S
H8861 N8855 0.985 . S
H8862 N8859 0.984 . S
H8863 N8859 0.985 . S
H8864 N8858 0.984 . S
H8865 N8858 0.984 . S
H8866 N8854 0.984 . S
H8867 N8854 0.985 . S
C8868 C8869 1.363 . S
C8868 C8874 1.379 . S
C8868 N8876 1.356 . S
C8869 C8868 1.363 . S
C8869 C8875 1.363 . S
C8870 C8871 1.363 . S
C8870 C8875 1.379 . S
C8870 N8877 1.356 . S
C8871 C8870 1.363 . S
C8871 C8874 1.363 . S
N8872 C8874 1.356 . S
N8872 H8884 0.984 . S
N8872 H8885 0.985 . S
N8873 C8875 1.356 . S
N8873 H8878 0.984 . S
N8873 H8879 0.985 . S
C8874 C8868 1.379 . S
C8874 C8871 1.363 . S
C8874 N8872 1.356 . S
C8875 C8869 1.363 . S
C8875 C8870 1.379 . S
C8875 N8873 1.356 . S
N8876 C8868 1.356 . S
N8876 H8882 0.984 . S
N8876 H8883 0.984 . S
N8877 C8870 1.356 . S
N8877 H8880 0.984 . S
N8877 H8881 0.985 . S
H8878 N8873 0.984 . S
H8879 N8873 0.985 . S
H8880 N8877 0.984 . S
H8881 N8877 0.985 . S
H8882 N8876 0.984 . S
H8883 N8876 0.984 . S
H8884 N8872 0.984 . S
H8885 N8872 0.985 . S
C8886 C8887 1.363 1_565 S
C8886 C8892 1.379 . S
C8886 N8894 1.356 . S
C8887 C8886 1.363 1_545 S
C8887 C8893 1.363 . S
C8888 C8889 1.363 1_545 S
C8888 C8893 1.379 . S
C8888 N8895 1.356 . S
C8889 C8888 1.363 1_565 S
C8889 C8892 1.363 . S
N8890 C8892 1.356 . S
N8890 H8902 0.984 . S
N8890 H8903 0.985 . S
N8891 C8893 1.356 . S
N8891 H8896 0.984 . S
N8891 H8897 0.985 . S
C8892 C8886 1.379 . S
C8892 C8889 1.363 . S
C8892 N8890 1.356 . S
C8893 C8887 1.363 . S
C8893 C8888 1.379 . S
C8893 N8891 1.356 . S
N8894 C8886 1.356 . S
N8894 H8900 0.984 . S
N8894 H8901 0.984 . S
N8895 C8888 1.356 . S
N8895 H8898 0.984 . S
N8895 H8899 0.985 . S
H8896 N8891 0.984 . S
H8897 N8891 0.985 . S
H8898 N8895 0.984 . S
H8899 N8895 0.985 . S
H8900 N8894 0.984 . S
H8901 N8894 0.984 . S
H8902 N8890 0.984 . S
H8903 N8890 0.985 . S
C8904 C8905 1.363 . S
C8904 C8910 1.379 . S
C8904 N8912 1.356 . S
C8905 C8904 1.363 . S
C8905 C8911 1.363 . S
C8906 C8907 1.363 . S
C8906 C8911 1.379 . S
C8906 N8913 1.356 . S
C8907 C8906 1.363 . S
C8907 C8910 1.363 . S
N8908 C8910 1.356 . S
N8908 H8920 0.984 . S
N8908 H8921 0.985 . S
N8909 C8911 1.356 . S
N8909 H8914 0.984 . S
N8909 H8915 0.985 . S
C8910 C8904 1.379 . S
C8910 C8907 1.363 . S
C8910 N8908 1.356 . S
C8911 C8905 1.363 . S
C8911 C8906 1.379 . S
C8911 N8909 1.356 . S
N8912 C8904 1.356 . S
N8912 H8918 0.984 . S
N8912 H8919 0.984 . S
N8913 C8906 1.356 . S
N8913 H8916 0.984 . S
N8913 H8917 0.985 . S
H8914 N8909 0.984 . S
H8915 N8909 0.985 . S
H8916 N8913 0.984 . S
H8917 N8913 0.985 . S
H8918 N8912 0.984 . S
H8919 N8912 0.984 . S
H8920 N8908 0.984 . S
H8921 N8908 0.985 . S
C8922 C8923 1.363 1_565 S
C8922 C8928 1.379 . S
C8922 N8930 1.356 . S
C8923 C8922 1.363 1_545 S
C8923 C8929 1.363 . S
C8924 C8925 1.363 1_545 S
C8924 C8929 1.379 . S
C8924 N8931 1.356 . S
C8925 C8924 1.363 1_565 S
C8925 C8928 1.363 . S
N8926 C8928 1.356 . S
N8926 H8938 0.984 . S
N8926 H8939 0.985 . S
N8927 C8929 1.356 . S
N8927 H8932 0.984 . S
N8927 H8933 0.985 . S
C8928 C8922 1.379 . S
C8928 C8925 1.363 . S
C8928 N8926 1.356 . S
C8929 C8923 1.363 . S
C8929 C8924 1.379 . S
C8929 N8927 1.356 . S
N8930 C8922 1.356 . S
N8930 H8936 0.984 . S
N8930 H8937 0.984 . S
N8931 C8924 1.356 . S
N8931 H8934 0.984 . S
N8931 H8935 0.985 . S
H8932 N8927 0.984 . S
H8933 N8927 0.985 . S
H8934 N8931 0.984 . S
H8935 N8931 0.985 . S
H8936 N8930 0.984 . S
H8937 N8930 0.984 . S
H8938 N8926 0.984 . S
H8939 N8926 0.985 . S
C8940 C8941 1.363 1_556 S
C8940 C8946 1.379 1_565 S
C8940 N8948 1.356 . S
C8941 C8940 1.363 1_554 S
C8941 C8947 1.363 . S
C8942 C8943 1.363 1_554 S
C8942 C8947 1.379 1_545 S
C8942 N8949 1.356 . S
C8943 C8942 1.363 1_556 S
C8943 C8946 1.363 . S
N8944 C8946 1.356 . S
N8944 H8956 0.984 . S
N8944 H8957 0.985 . S
N8945 C8947 1.356 . S
N8945 H8950 0.984 . S
N8945 H8951 0.985 . S
C8946 C8940 1.379 1_545 S
C8946 C8943 1.363 . S
C8946 N8944 1.356 . S
C8947 C8941 1.363 . S
C8947 C8942 1.379 1_565 S
C8947 N8945 1.356 . S
N8948 C8940 1.356 . S
N8948 H8954 0.984 . S
N8948 H8955 0.984 . S
N8949 C8942 1.356 . S
N8949 H8952 0.984 . S
N8949 H8953 0.985 . S
H8950 N8945 0.984 . S
H8951 N8945 0.985 . S
H8952 N8949 0.984 . S
H8953 N8949 0.985 . S
H8954 N8948 0.984 . S
H8955 N8948 0.984 . S
H8956 N8944 0.984 . S
H8957 N8944 0.985 . S
C8958 C8959 1.363 . S
C8958 C8964 1.379 . S
C8958 N8966 1.356 . S
C8959 C8958 1.363 . S
C8959 C8965 1.363 . S
C8960 C8961 1.363 . S
C8960 C8965 1.379 . S
C8960 N8967 1.356 . S
C8961 C8960 1.363 . S
C8961 C8964 1.363 . S
N8962 C8964 1.356 . S
N8962 H8974 0.984 . S
N8962 H8975 0.985 . S
N8963 C8965 1.356 . S
N8963 H8968 0.984 . S
N8963 H8969 0.985 . S
C8964 C8958 1.379 . S
C8964 C8961 1.363 . S
C8964 N8962 1.356 . S
C8965 C8959 1.363 . S
C8965 C8960 1.379 . S
C8965 N8963 1.356 . S
N8966 C8958 1.356 . S
N8966 H8972 0.984 . S
N8966 H8973 0.984 . S
N8967 C8960 1.356 . S
N8967 H8970 0.984 . S
N8967 H8971 0.985 . S
H8968 N8963 0.984 . S
H8969 N8963 0.985 . S
H8970 N8967 0.984 . S
H8971 N8967 0.985 . S
H8972 N8966 0.984 . S
H8973 N8966 0.984 . S
H8974 N8962 0.984 . S
H8975 N8962 0.985 . S
C8976 C8977 1.363 . S
C8976 C8982 1.379 . S
C8976 N8984 1.356 . S
C8977 C8976 1.363 . S
C8977 C8983 1.363 . S
C8978 C8979 1.363 . S
C8978 C8983 1.379 . S
C8978 N8985 1.356 . S
C8979 C8978 1.363 . S
C8979 C8982 1.363 . S
N8980 C8982 1.356 . S
N8980 H8992 0.984 . S
N8980 H8993 0.985 . S
N8981 C8983 1.356 . S
N8981 H8986 0.984 . S
N8981 H8987 0.985 . S
C8982 C8976 1.379 . S
C8982 C8979 1.363 . S
C8982 N8980 1.356 . S
C8983 C8977 1.363 . S
C8983 C8978 1.379 . S
C8983 N8981 1.356 . S
N8984 C8976 1.356 . S
N8984 H8990 0.984 . S
N8984 H8991 0.984 . S
N8985 C8978 1.356 . S
N8985 H8988 0.984 . S
N8985 H8989 0.985 . S
H8986 N8981 0.984 . S
H8987 N8981 0.985 . S
H8988 N8985 0.984 . S
H8989 N8985 0.985 . S
H8990 N8984 0.984 . S
H8991 N8984 0.984 . S
H8992 N8980 0.984 . S
H8993 N8980 0.985 . S
C8994 C8995 1.363 . S
C8994 C9000 1.379 . S
C8994 N9002 1.356 . S
C8995 C8994 1.363 . S
C8995 C9001 1.363 . S
C8996 C8997 1.363 . S
C8996 C9001 1.379 . S
C8996 N9003 1.356 . S
C8997 C8996 1.363 . S
C8997 C9000 1.363 . S
N8998 C9000 1.356 . S
N8998 H9010 0.984 . S
N8998 H9011 0.985 . S
N8999 C9001 1.356 . S
N8999 H9004 0.984 . S
N8999 H9005 0.985 . S
C9000 C8994 1.379 . S
C9000 C8997 1.363 . S
C9000 N8998 1.356 . S
C9001 C8995 1.363 . S
C9001 C8996 1.379 . S
C9001 N8999 1.356 . S
N9002 C8994 1.356 . S
N9002 H9008 0.984 . S
N9002 H9009 0.984 . S
N9003 C8996 1.356 . S
N9003 H9006 0.984 . S
N9003 H9007 0.985 . S
H9004 N8999 0.984 . S
H9005 N8999 0.985 . S
H9006 N9003 0.984 . S
H9007 N9003 0.985 . S
H9008 N9002 0.984 . S
H9009 N9002 0.984 . S
H9010 N8998 0.984 . S
H9011 N8998 0.985 . S
C9012 C9013 1.363 . S
C9012 C9018 1.379 . S
C9012 N9020 1.356 . S
C9013 C9012 1.363 . S
C9013 C9019 1.363 . S
C9014 C9015 1.363 . S
C9014 C9019 1.379 . S
C9014 N9021 1.356 . S
C9015 C9014 1.363 . S
C9015 C9018 1.363 . S
N9016 C9018 1.356 . S
N9016 H9028 0.984 . S
N9016 H9029 0.985 . S
N9017 C9019 1.356 . S
N9017 H9022 0.984 . S
N9017 H9023 0.985 . S
C9018 C9012 1.379 . S
C9018 C9015 1.363 . S
C9018 N9016 1.356 . S
C9019 C9013 1.363 . S
C9019 C9014 1.379 . S
C9019 N9017 1.356 . S
N9020 C9012 1.356 . S
N9020 H9026 0.984 . S
N9020 H9027 0.984 . S
N9021 C9014 1.356 . S
N9021 H9024 0.984 . S
N9021 H9025 0.985 . S
H9022 N9017 0.984 . S
H9023 N9017 0.985 . S
H9024 N9021 0.984 . S
H9025 N9021 0.985 . S
H9026 N9020 0.984 . S
H9027 N9020 0.984 . S
H9028 N9016 0.984 . S
H9029 N9016 0.985 . S
C9030 C9031 1.363 . S
C9030 C9036 1.379 . S
C9030 N9038 1.356 . S
C9031 C9030 1.363 . S
C9031 C9037 1.363 . S
C9032 C9033 1.363 . S
C9032 C9037 1.379 . S
C9032 N9039 1.356 . S
C9033 C9032 1.363 . S
C9033 C9036 1.363 . S
N9034 C9036 1.356 . S
N9034 H9046 0.984 . S
N9034 H9047 0.985 . S
N9035 C9037 1.356 . S
N9035 H9040 0.984 . S
N9035 H9041 0.985 . S
C9036 C9030 1.379 . S
C9036 C9033 1.363 . S
C9036 N9034 1.356 . S
C9037 C9031 1.363 . S
C9037 C9032 1.379 . S
C9037 N9035 1.356 . S
N9038 C9030 1.356 . S
N9038 H9044 0.984 . S
N9038 H9045 0.984 . S
N9039 C9032 1.356 . S
N9039 H9042 0.984 . S
N9039 H9043 0.985 . S
H9040 N9035 0.984 . S
H9041 N9035 0.985 . S
H9042 N9039 0.984 . S
H9043 N9039 0.985 . S
H9044 N9038 0.984 . S
H9045 N9038 0.984 . S
H9046 N9034 0.984 . S
H9047 N9034 0.985 . S
C9048 C9049 1.363 . S
C9048 C9054 1.379 . S
C9048 N9056 1.356 . S
C9049 C9048 1.363 . S
C9049 C9055 1.363 . S
C9050 C9051 1.363 . S
C9050 C9055 1.379 . S
C9050 N9057 1.356 . S
C9051 C9050 1.363 . S
C9051 C9054 1.363 . S
N9052 C9054 1.356 . S
N9052 H9064 0.984 . S
N9052 H9065 0.985 . S
N9053 C9055 1.356 . S
N9053 H9058 0.984 . S
N9053 H9059 0.985 . S
C9054 C9048 1.379 . S
C9054 C9051 1.363 . S
C9054 N9052 1.356 . S
C9055 C9049 1.363 . S
C9055 C9050 1.379 . S
C9055 N9053 1.356 . S
N9056 C9048 1.356 . S
N9056 H9062 0.984 . S
N9056 H9063 0.984 . S
N9057 C9050 1.356 . S
N9057 H9060 0.984 . S
N9057 H9061 0.985 . S
H9058 N9053 0.984 . S
H9059 N9053 0.985 . S
H9060 N9057 0.984 . S
H9061 N9057 0.985 . S
H9062 N9056 0.984 . S
H9063 N9056 0.984 . S
H9064 N9052 0.984 . S
H9065 N9052 0.985 . S
C9066 C9067 1.363 1_554 S
C9066 C9072 1.379 1_565 S
C9066 N9074 1.356 . S
C9067 C9066 1.363 1_556 S
C9067 C9073 1.363 . S
C9068 C9069 1.363 1_556 S
C9068 C9073 1.379 1_545 S
C9068 N9075 1.356 . S
C9069 C9068 1.363 1_554 S
C9069 C9072 1.363 . S
N9070 C9072 1.356 . S
N9070 H9082 0.984 . S
N9070 H9083 0.985 . S
N9071 C9073 1.356 . S
N9071 H9076 0.984 . S
N9071 H9077 0.985 . S
C9072 C9066 1.379 1_545 S
C9072 C9069 1.363 . S
C9072 N9070 1.356 . S
C9073 C9067 1.363 . S
C9073 C9068 1.379 1_565 S
C9073 N9071 1.356 . S
N9074 C9066 1.356 . S
N9074 H9080 0.984 . S
N9074 H9081 0.984 . S
N9075 C9068 1.356 . S
N9075 H9078 0.984 . S
N9075 H9079 0.985 . S
H9076 N9071 0.984 . S
H9077 N9071 0.985 . S
H9078 N9075 0.984 . S
H9079 N9075 0.985 . S
H9080 N9074 0.984 . S
H9081 N9074 0.984 . S
H9082 N9070 0.984 . S
H9083 N9070 0.985 . S
C9084 C9085 1.363 . S
C9084 C9090 1.379 . S
C9084 N9092 1.356 . S
C9085 C9084 1.363 . S
C9085 C9091 1.363 . S
C9086 C9087 1.363 . S
C9086 C9091 1.379 . S
C9086 N9093 1.356 . S
C9087 C9086 1.363 . S
C9087 C9090 1.363 . S
N9088 C9090 1.356 . S
N9088 H9100 0.984 . S
N9088 H9101 0.985 . S
N9089 C9091 1.356 . S
N9089 H9094 0.984 . S
N9089 H9095 0.985 . S
C9090 C9084 1.379 . S
C9090 C9087 1.363 . S
C9090 N9088 1.356 . S
C9091 C9085 1.363 . S
C9091 C9086 1.379 . S
C9091 N9089 1.356 . S
N9092 C9084 1.356 . S
N9092 H9098 0.984 . S
N9092 H9099 0.984 . S
N9093 C9086 1.356 . S
N9093 H9096 0.984 . S
N9093 H9097 0.985 . S
H9094 N9089 0.984 . S
H9095 N9089 0.985 . S
H9096 N9093 0.984 . S
H9097 N9093 0.985 . S
H9098 N9092 0.984 . S
H9099 N9092 0.984 . S
H9100 N9088 0.984 . S
H9101 N9088 0.985 . S
C9102 C9103 1.363 . S
C9102 C9108 1.379 . S
C9102 N9110 1.356 . S
C9103 C9102 1.363 . S
C9103 C9109 1.363 . S
C9104 C9105 1.363 . S
C9104 C9109 1.379 . S
C9104 N9111 1.356 . S
C9105 C9104 1.363 . S
C9105 C9108 1.363 . S
N9106 C9108 1.356 . S
N9106 H9118 0.984 . S
N9106 H9119 0.985 . S
N9107 C9109 1.356 . S
N9107 H9112 0.984 . S
N9107 H9113 0.985 . S
C9108 C9102 1.379 . S
C9108 C9105 1.363 . S
C9108 N9106 1.356 . S
C9109 C9103 1.363 . S
C9109 C9104 1.379 . S
C9109 N9107 1.356 . S
N9110 C9102 1.356 . S
N9110 H9116 0.984 . S
N9110 H9117 0.984 . S
N9111 C9104 1.356 . S
N9111 H9114 0.984 . S
N9111 H9115 0.985 . S
H9112 N9107 0.984 . S
H9113 N9107 0.985 . S
H9114 N9111 0.984 . S
H9115 N9111 0.985 . S
H9116 N9110 0.984 . S
H9117 N9110 0.984 . S
H9118 N9106 0.984 . S
H9119 N9106 0.985 . S
C5665 C52 1.521 . S
C5667 C1940 1.539 . S
C5683 C3396 1.539 . S
C5685 C111 1.515 . S
C5701 C2058 1.539 . S
C5703 C170 1.521 . S
C5719 C229 1.515 . S
C5721 C3514 1.539 . S
C5737 C288 1.521 . S
C5739 C2176 1.539 . S
C5755 C347 1.515 . S
C5757 C3632 1.539 . S
C5773 C406 1.521 . S
C5775 C2294 1.539 . S
C5791 C465 1.515 . S
C5793 C3750 1.539 . S
C5809 C3809 1.540 . S
C5811 C505 1.495 . S
C5827 C4241 1.539 . S
C5829 C583 1.521 . S
C5845 C623 1.495 . S
C5847 C5520 1.541 . S
C5863 C701 1.521 . S
C5865 C4182 1.539 . S
C5881 C1036 1.540 . S
C5883 C741 1.495 . S
C5899 C819 1.521 . S
C5901 C1114 1.539 . S
C5917 C859 1.495 . S
C5919 C1154 1.541 . S
C5935 C5480 1.539 . S
C5937 C937 1.521 . S
C5953 C4281 1.540 . S
C5955 C996 1.516 . S
C5971 C1055 1.516 . S
C5973 C1685 1.540 . S
C5989 C3160 1.541 . S
C5991 C1095 1.495 . S
C6007 C1173 1.516 . S
C6009 C1803 1.540 . S
C6025 C1862 1.541 . S
C6027 C1213 1.495 . S
C6043 C2983 1.540 . S
C6045 C1291 1.516 . S
C6061 C210 1.541 . S
C6063 C1331 1.495 . S
C6079 C92 1.541 . S
C6081 C1390 1.495 . S
C6097 C1468 1.521 . S
C6099 C524 1.539 . S
C6115 C4812 1.539 . S
C6117 C1527 1.515 . S
C6133 C642 1.539 . S
C6135 C1586 1.521 . S
C6151 C1645 1.515 . S
C6153 C4930 1.539 . S
C6169 C1704 1.521 . S
C6171 C760 1.539 . S
C6187 C5048 1.539 . S
C6189 C1763 1.515 . S
C6205 C1822 1.521 . S
C6207 C878 1.539 . S
C6223 C5166 1.539 . S
C6225 C1881 1.515 . S
C6241 C5225 1.541 . S
C6243 C1921 1.495 . S
C6259 C1999 1.521 . S
C6261 C5657 1.539 . S
C6277 C4104 1.540 . S
C6279 C2039 1.495 . S
C6295 C5598 1.539 . S
C6297 C2117 1.521 . S
C6313 C2157 1.495 . S
C6315 C2452 1.541 . S
C6331 C2530 1.539 . S
C6333 C2235 1.521 . S
C6349 C2570 1.540 . S
C6351 C2275 1.495 . S
C6367 C2353 1.521 . S
C6369 C4064 1.539 . S
C6385 C2865 1.539 . S
C6387 C2412 1.516 . S
C6403 C2471 1.516 . S
C6405 C269 1.540 . S
C6421 C4576 1.541 . S
C6423 C2511 1.495 . S
C6439 C387 1.540 . S
C6441 C2589 1.516 . S
C6457 C2629 1.495 . S
C6459 C446 1.541 . S
C6475 C4399 1.539 . S
C6477 C2707 1.516 . S
C6493 C1626 1.541 . S
C6495 C2747 1.495 . S
C6511 C1508 1.541 . S
C6513 C2806 1.495 . S
C6529 C4772 1.539 . S
C6531 C2884 1.521 . S
C6547 C564 1.539 . S
C6549 C2943 1.515 . S
C6565 C4890 1.539 . S
C6567 C3002 1.520 . S
C6583 C3061 1.515 . S
C6585 C682 1.539 . S
C6601 C5008 1.539 . S
C6603 C3120 1.521 . S
C6619 C3179 1.515 . S
C6621 C800 1.539 . S
C6637 C3238 1.520 . S
C6639 C5126 1.539 . S
C6655 C3297 1.515 . S
C6657 C918 1.539 . S
C6673 C977 1.541 . S
C6675 C3337 1.495 . S
C6691 C3415 1.521 . S
C6693 C1409 1.539 . S
C6709 C3455 1.495 . S
C6711 C2688 1.541 . S
C6727 C1350 1.539 . S
C6729 C3533 1.521 . S
C6745 C3573 1.495 . S
C6747 C3868 1.541 . S
C6763 C3946 1.539 . S
C6765 C3651 1.521 . S
C6781 C3986 1.541 . S
C6783 C3691 1.495 . S
C6799 C3769 1.521 . S
C6801 C2648 1.539 . S
C6817 C3828 1.516 . S
C6819 C1449 1.540 . S
C6835 C4517 1.540 . S
C6837 C3887 1.516 . S
C6853 C3927 1.495 . S
C6855 C328 1.541 . S
C6871 C4005 1.516 . S
C6873 C4635 1.539 . S
C6889 C4694 1.541 . S
C6891 C4045 1.495 . S
C6907 C151 1.540 . S
C6909 C4123 1.516 . S
C6925 C4163 1.495 . S
C6927 C3042 1.541 . S
C6943 C4222 1.495 . S
C6945 C2924 1.541 . S
C6961 C3356 1.539 . S
C6963 C4300 1.520 . S
C6979 C1980 1.539 . S
C6981 C4359 1.515 . S
C6997 C3474 1.539 . S
C6999 C4418 1.521 . S
C7015 C4477 1.515 . S
C7017 C2098 1.539 . S
C7033 C4536 1.520 . S
C7035 C3592 1.539 . S
C7051 C2216 1.539 . S
C7053 C4595 1.515 . S
C7069 C3710 1.539 . S
C7071 C4654 1.521 . S
C7087 C2334 1.539 . S
C7089 C4713 1.515 . S
C7105 C4753 1.495 . S
C7107 C2393 1.541 . S
C7123 C2825 1.539 . S
C7125 C4831 1.521 . S
C7141 C1272 1.541 . S
C7143 C4871 1.495 . S
C7159 C4949 1.521 . S
C7161 C2766 1.539 . S
C7177 C5284 1.541 . S
C7179 C4989 1.495 . S
C7195 C5362 1.539 . S
C7197 C5067 1.521 . S
C7213 C5107 1.495 . S
C7215 C5402 1.541 . S
C7231 C5185 1.521 . S
C7233 C1232 1.539 . S
C7249 C33 1.540 . S
C7251 C5244 1.516 . S
C7267 C3101 1.539 . S
C7269 C5303 1.516 . S
C7285 C5343 1.495 . S
C7287 C1744 1.541 . S
C7303 C5421 1.516 . S
C7305 C3219 1.540 . S
C7321 C3278 1.541 . S
C7323 C5461 1.495 . S
C7339 C1567 1.540 . S
C7341 C5539 1.516 . S
C7357 C4458 1.541 . S
C7359 C5579 1.495 . S
C7375 C4340 1.541 . S
C7377 C5638 1.495 . S
C7393 C5136 1.589 . S
C7395 C3 1.589 . S
C7411 C62 1.577 . S
C7413 C4961 1.597 . S
C7429 C121 1.589 . S
C7431 C5018 1.590 . S
C7447 C180 1.577 . S
C7449 C5079 1.597 . S
C7465 C534 1.589 . S
C7467 C239 1.589 . S
C7483 C298 1.577 . S
C7485 C595 1.597 . S
C7501 C357 1.589 . S
C7503 C652 1.590 . S
C7519 C416 1.577 . S
C7521 C477 1.597 . S
C7537 C713 1.597 . S
C7539 C4310 1.577 . S
C7555 C770 1.590 . S
C7557 C4369 1.589 . S
C7573 C831 1.597 . S
C7575 C4428 1.577 . S
C7591 C4251 1.589 . S
C7593 C888 1.589 . S
C7609 C5433 1.599 . S
C7611 C947 1.579 . S
C7627 C1006 1.579 . S
C7629 C5610 1.599 . S
C7645 C1067 1.598 . S
C7647 C2658 1.579 . S
C7663 C5551 1.599 . S
C7665 C1124 1.579 . S
C7681 C1185 1.599 . S
C7683 C5195 1.579 . S
C7699 C1242 1.579 . S
C7701 C2483 1.599 . S
C7717 C1303 1.599 . S
C7719 C5372 1.579 . S
C7735 C1362 1.598 . S
C7737 C5254 1.579 . S
C7753 C3720 1.590 . S
C7755 C1419 1.589 . S
C7771 C1478 1.577 . S
C7773 C3545 1.597 . S
C7789 C3602 1.589 . S
C7791 C1537 1.589 . S
C7807 C1596 1.577 . S
C7809 C3663 1.597 . S
C7825 C1655 1.589 . S
C7827 C1950 1.590 . S
C7843 C1714 1.577 . S
C7845 C2011 1.597 . S
C7861 C2068 1.589 . S
C7863 C1773 1.589 . S
C7879 C1832 1.577 . S
C7881 C1893 1.597 . S
C7897 C2894 1.577 . S
C7899 C2129 1.597 . S
C7915 C2953 1.589 . S
C7917 C2186 1.589 . S
C7933 C3012 1.577 . S
C7935 C2247 1.597 . S
C7951 C2835 1.589 . S
C7953 C2304 1.590 . S
C7969 C2363 1.579 . S
C7971 C4017 1.598 . S
C7987 C2422 1.579 . S
C7989 C4194 1.599 . S
C8005 C4135 1.599 . S
C8007 C2540 1.579 . S
C8023 C2601 1.599 . S
C8025 C3779 1.579 . S
C8041 C2719 1.598 . S
C8043 C3956 1.579 . S
C8059 C2778 1.599 . S
C8061 C3838 1.579 . S
C8077 C3071 1.589 . S
C8079 C3366 1.590 . S
C8095 C3130 1.577 . S
C8097 C3427 1.597 . S
C8113 C3189 1.589 . S
C8115 C3484 1.589 . S
C8131 C3248 1.577 . S
C8133 C3309 1.597 . S
C8149 C5490 1.579 . S
C8151 C3899 1.599 . S
C8167 C5315 1.599 . S
C8169 C4074 1.579 . S
C8185 C4487 1.589 . S
C8187 C4782 1.589 . S
C8203 C4546 1.577 . S
C8205 C4843 1.597 . S
C8221 C4900 1.590 . S
C8223 C4605 1.589 . S
C8239 C4664 1.577 . S
C8241 C4725 1.597 . S
C8257 C1539 1.608 . S
C8259 C5 1.608 . S
C8275 C64 1.575 . S
C8277 C3014 1.575 . S
C8293 C123 1.609 1_545 S
C8295 C1421 1.609 1_565 S
C8311 C2896 1.575 . S
C8313 C182 1.575 . S
C8329 C241 1.608 . S
C8331 C1775 1.608 . S
C8347 C300 1.575 . S
C8349 C3250 1.575 . S
C8365 C359 1.609 1_565 S
C8367 C1657 1.609 1_545 S
C8383 C418 1.575 . S
C8385 C3132 1.575 . S
C8401 C475 1.531 . S
C8403 C711 1.531 . S
C8419 C772 1.607 . S
C8421 C536 1.607 . S
C8437 C593 1.532 1_556 S
C8439 C829 1.532 1_554 S
C8455 C654 1.607 . S
C8457 C890 1.607 . S
C8473 C949 1.578 . S
C8475 C5374 1.578 . S
C8491 C4076 1.578 1_455 S
C8493 C1008 1.578 1_655 S
C8509 C1301 1.536 . S
C8511 C1065 1.536 . S
C8527 C5197 1.578 1_655 S
C8529 C1126 1.578 1_455 S
C8545 C5608 1.536 . S
C8547 C1183 1.536 . S
C8563 C1244 1.578 . S
C8565 C3840 1.578 . S
C8581 C5431 1.536 . S
C8583 C1360 1.536 . S
C8599 C1480 1.575 . S
C8601 C4430 1.575 . S
C8617 C4312 1.575 . S
C8619 C1598 1.575 . S
C8635 C1716 1.575 . S
C8637 C4666 1.575 . S
C8653 C1834 1.575 . S
C8655 C4548 1.575 . S
C8671 C2127 1.532 1_554 S
C8673 C1891 1.532 1_556 S
C8689 C2188 1.607 . S
C8691 C1952 1.607 . S
C8707 C2245 1.531 . S
C8709 C2009 1.531 . S
C8725 C2306 1.607 . S
C8727 C2070 1.607 . S
C8743 C3958 1.577 . S
C8745 C2365 1.577 . S
C8761 C5492 1.578 1_455 S
C8763 C2424 1.578 1_655 S
C8779 C2481 1.536 . S
C8781 C2717 1.536 . S
C8797 C2542 1.578 1_455 S
C8799 C3781 1.578 1_655 S
C8815 C2599 1.536 . S
C8817 C4192 1.536 . S
C8833 C2660 1.577 . S
C8835 C5256 1.577 . S
C8851 C2776 1.536 . S
C8853 C4015 1.536 . S
C8869 C4371 1.609 . S
C8871 C2837 1.609 . S
C8887 C2955 1.608 1_545 S
C8889 C4253 1.608 1_565 S
C8905 C4607 1.609 . S
C8907 C3073 1.609 . S
C8923 C4489 1.608 1_545 S
C8925 C3191 1.608 1_565 S
C8941 C3543 1.532 1_554 S
C8943 C3307 1.532 1_556 S
C8959 C3368 1.607 . S
C8961 C3604 1.607 . S
C8977 C3425 1.532 . S
C8979 C3661 1.532 . S
C8995 C3722 1.607 . S
C8997 C3486 1.607 . S
C9013 C4133 1.536 . S
C9015 C3897 1.536 . S
C9031 C4723 1.532 . S
C9033 C4959 1.532 . S
C9049 C4784 1.607 . S
C9051 C5020 1.607 . S
C9067 C4841 1.532 1_556 S
C9069 C5077 1.532 1_554 S
C9085 C5138 1.607 . S
C9087 C4902 1.607 . S
C9103 C5549 1.536 . S
C9105 C5313 1.536 . S
