# Generated by pormake.
# Topology mon, (4)-cn, num edge types: 1
# Building blocks:
#     Node 0, Type 0, BuildingBlock: UXUYUI_clean_sbu_0, # of connection points: 4
#     Node 1, Type 0, BuildingBlock: UXUYUI_clean_sbu_0, # of connection points: 4
#     Node 2, Type 0, BuildingBlock: UXUYUI_clean_sbu_0, # of connection points: 4
#     Node 3, Type 0, BuildingBlock: UXUYUI_clean_sbu_0, # of connection points: 4
#     Node 4, Type 0, BuildingBlock: UXUYUI_clean_sbu_0, # of connection points: 4
#     Node 5, Type 0, BuildingBlock: UXUYUI_clean_sbu_0, # of connection points: 4
#     Node 6, Type 0, BuildingBlock: UXUYUI_clean_sbu_0, # of connection points: 4
#     Node 7, Type 0, BuildingBlock: UXUYUI_clean_sbu_0, # of connection points: 4
#     Node 8, Type 0, BuildingBlock: UXUYUI_clean_sbu_0, # of connection points: 4
#     Node 9, Type 0, BuildingBlock: UXUYUI_clean_sbu_0, # of connection points: 4
#     Node 10, Type 0, BuildingBlock: UXUYUI_clean_sbu_0, # of connection points: 4
#     Node 11, Type 0, BuildingBlock: UXUYUI_clean_sbu_0, # of connection points: 4
#     Node 12, Type 0, BuildingBlock: UXUYUI_clean_sbu_0, # of connection points: 4
#     Node 13, Type 0, BuildingBlock: UXUYUI_clean_sbu_0, # of connection points: 4
#     Node 14, Type 0, BuildingBlock: UXUYUI_clean_sbu_0, # of connection points: 4
#     Node 15, Type 0, BuildingBlock: UXUYUI_clean_sbu_0, # of connection points: 4
#     Edge 16, Type (0, 0), BuildingBlock: OJICUG_clean_linker_0, # of connection points: 2
#     Edge 17, Type (0, 0), BuildingBlock: OJICUG_clean_linker_0, # of connection points: 2
#     Edge 18, Type (0, 0), BuildingBlock: OJICUG_clean_linker_0, # of connection points: 2
#     Edge 19, Type (0, 0), BuildingBlock: OJICUG_clean_linker_0, # of connection points: 2
#     Edge 20, Type (0, 0), BuildingBlock: OJICUG_clean_linker_0, # of connection points: 2
#     Edge 21, Type (0, 0), BuildingBlock: OJICUG_clean_linker_0, # of connection points: 2
#     Edge 22, Type (0, 0), BuildingBlock: OJICUG_clean_linker_0, # of connection points: 2
#     Edge 23, Type (0, 0), BuildingBlock: OJICUG_clean_linker_0, # of connection points: 2
#     Edge 24, Type (0, 0), BuildingBlock: OJICUG_clean_linker_0, # of connection points: 2
#     Edge 25, Type (0, 0), BuildingBlock: OJICUG_clean_linker_0, # of connection points: 2
#     Edge 26, Type (0, 0), BuildingBlock: OJICUG_clean_linker_0, # of connection points: 2
#     Edge 27, Type (0, 0), BuildingBlock: OJICUG_clean_linker_0, # of connection points: 2
#     Edge 28, Type (0, 0), BuildingBlock: OJICUG_clean_linker_0, # of connection points: 2
#     Edge 29, Type (0, 0), BuildingBlock: OJICUG_clean_linker_0, # of connection points: 2
#     Edge 30, Type (0, 0), BuildingBlock: OJICUG_clean_linker_0, # of connection points: 2
#     Edge 31, Type (0, 0), BuildingBlock: OJICUG_clean_linker_0, # of connection points: 2
#     Edge 32, Type (0, 0), BuildingBlock: OJICUG_clean_linker_0, # of connection points: 2
#     Edge 33, Type (0, 0), BuildingBlock: OJICUG_clean_linker_0, # of connection points: 2
#     Edge 34, Type (0, 0), BuildingBlock: OJICUG_clean_linker_0, # of connection points: 2
#     Edge 35, Type (0, 0), BuildingBlock: OJICUG_clean_linker_0, # of connection points: 2
#     Edge 36, Type (0, 0), BuildingBlock: OJICUG_clean_linker_0, # of connection points: 2
#     Edge 37, Type (0, 0), BuildingBlock: OJICUG_clean_linker_0, # of connection points: 2
#     Edge 38, Type (0, 0), BuildingBlock: OJICUG_clean_linker_0, # of connection points: 2
#     Edge 39, Type (0, 0), BuildingBlock: OJICUG_clean_linker_0, # of connection points: 2
#     Edge 40, Type (0, 0), BuildingBlock: OJICUG_clean_linker_0, # of connection points: 2
#     Edge 41, Type (0, 0), BuildingBlock: OJICUG_clean_linker_0, # of connection points: 2
#     Edge 42, Type (0, 0), BuildingBlock: OJICUG_clean_linker_0, # of connection points: 2
#     Edge 43, Type (0, 0), BuildingBlock: OJICUG_clean_linker_0, # of connection points: 2
#     Edge 44, Type (0, 0), BuildingBlock: OJICUG_clean_linker_0, # of connection points: 2
#     Edge 45, Type (0, 0), BuildingBlock: OJICUG_clean_linker_0, # of connection points: 2
#     Edge 46, Type (0, 0), BuildingBlock: OJICUG_clean_linker_0, # of connection points: 2
#     Edge 47, Type (0, 0), BuildingBlock: OJICUG_clean_linker_0, # of connection points: 2
# Relax obj value: 0.204
# Max RMSD: 0.157
# Mean RMSD: 0.156
data_MOF--net-mon--node1-UXUYUI_clean_sbu_0--edge1-OJICUG_clean_linker_0
_symmetry_space_group_name_H-M    P1
_symmetry_Int_Tables_number       1
_symmetry_cell_setting            triclinic
loop_
_symmetry_equiv_pos_as_xyz
'x, y, z'
_cell_length_a     40.899736
_cell_length_b     40.841978
_cell_length_c     101.06183
_cell_angle_alpha  90.004756
_cell_angle_beta   90.00374
_cell_angle_gamma 90.001317
loop_
_atom_site_label
_atom_site_type_symbol
_atom_site_fract_x
_atom_site_fract_y
_atom_site_fract_z
_atom_type_partial_charge
Li0 Li 0.00307 0.02175 0.57205 0.0
Li1 Li -0.00247 0.06305 0.58942 0.0
Li2 Li 0.02779 0.01252 0.59331 0.0
Li3 Li 0.96818 0.01261 0.59135 0.0
C4 C 0.05631 0.05789 0.57024 0.0
N5 N 0.0911 0.07792 0.54825 0.0
C6 C 0.05376 0.09015 0.56574 0.0
C7 C 0.07674 0.03588 0.56361 0.0
C8 C 0.07153 0.09979 0.5546 0.0
C9 C 0.09404 0.04645 0.55249 0.0
C10 C 0.93116 0.04437 0.57456 0.0
C11 C 0.87489 0.05498 0.58022 0.0
N12 N 0.86518 0.03785 0.56937 0.0
C13 C 0.92067 0.02701 0.56342 0.0
C14 C 0.90815 0.05863 0.583 0.0
C15 C 0.88718 0.02396 0.56098 0.0
C16 C 0.00927 0.98387 0.54884 0.0
N17 N 0.00637 0.0149 0.55354 0.0
C18 C 0.00625 0.03656 0.53159 0.0
C19 C 0.00449 0.04106 0.54526 0.0
C20 C 0.00925 0.00477 0.52645 0.0
C21 C 0.01073 0.97821 0.53524 0.0
H22 H 0.01006 0.96348 0.55564 0.0
H23 H 0.00134 0.06538 0.54929 0.0
C24 C 0.02122 0.12278 0.59975 0.0
N25 N -0.00292 0.10876 0.59243 0.0
C26 C 0.02272 0.15675 0.60107 0.0
C27 C 0.97504 0.16115 0.58701 0.0
C28 C 0.97407 0.12708 0.58618 0.0
C29 C -0.00026 0.17626 0.59445 0.0
H30 H 0.03983 0.10763 0.60424 0.0
H31 H 0.95559 0.11528 0.5802 0.0
C32 C 0.01261 0.95248 0.58595 0.0
N33 N 0.04043 0.8933 0.59293 0.0
C34 C -0.00263 0.93238 0.59529 0.0
C35 C 0.04189 0.94238 0.5801 0.0
C36 C 0.01183 0.90255 0.59869 0.0
C37 C 0.05562 0.91242 0.58379 0.0
C38 C 0.99604 0.05462 0.61543 0.0
C39 C 0.02458 0.05795 0.62291 0.0
C40 C 0.96866 0.07366 0.61847 0.0
C41 C 0.02534 0.08059 0.63327 0.0
C42 C 0.97043 0.09607 0.62889 0.0
N43 N -0.00151 0.09904 0.63601 0.0
C44 C 0.09462 -0.00152 0.59815 0.0
C45 C 0.05686 0.97269 0.61257 0.0
C46 C 0.12064 0.98205 0.60414 0.0
N47 N 0.0635 0.99305 0.60229 0.0
C48 C 0.08204 0.9555 0.61874 0.0
C49 C 0.11447 0.95975 0.61444 0.0
H50 H 0.09921 0.01522 0.59009 0.0
H51 H 0.03184 0.96915 0.61571 0.0
C52 C 0.91523 0.96963 0.58881 0.0
N53 N 0.92985 0.99105 0.59723 0.0
C54 C 0.88975 0.94977 0.59323 0.0
C55 C 0.89437 0.97493 0.61481 0.0
C56 C 0.9197 0.99443 0.60995 0.0
C57 C 0.87959 0.95165 0.60649 0.0
H58 H 0.92429 0.96705 0.57881 0.0
H59 H 0.93223 0.01118 0.61649 0.0
O60 O 0.03876 0.04783 0.58102 0.0
O61 O 0.9638 0.04721 0.57724 0.0
O62 O -0.00081 0.98208 0.58268 0.0
O63 O 0.99489 0.03276 0.60519 0.0
H64 H 0.03806 0.10752 0.57072 0.0
H65 H 0.07887 0.01079 0.56692 0.0
H66 H 0.06969 0.12465 0.55097 0.0
H67 H 0.10975 0.02962 0.54721 0.0
H68 H 0.85679 0.06573 0.58671 0.0
H69 H 0.93815 0.01576 0.5568 0.0
H70 H 0.91591 0.07216 0.59165 0.0
H71 H 0.87868 0.01046 0.55243 0.0
H72 H 0.0045 0.05762 0.52512 0.0
H73 H 0.01309 0.95334 0.53164 0.0
H74 H 0.0424 0.16771 0.60672 0.0
H75 H 0.957 0.17557 0.58175 0.0
H76 H 0.97483 0.93987 0.6 0.0
H77 H 0.05411 0.95772 0.57291 0.0
H78 H 0.00039 0.88682 0.60595 0.0
H79 H 0.0784 0.90443 0.57941 0.0
H80 H 0.046 0.04341 0.62069 0.0
H81 H 0.9464 0.07137 0.61277 0.0
H82 H 0.04731 0.08355 0.63912 0.0
H83 H 0.9495 0.11112 0.63131 0.0
H84 H 0.14526 0.98661 0.60066 0.0
H85 H 0.07595 0.93829 0.62651 0.0
H86 H 0.87883 0.9324 0.58644 0.0
H87 H 0.8877 0.97685 0.62515 0.0
Li88 Li 0.2411 0.72349 0.84331 0.0
Li89 Li 0.19049 0.75436 0.84016 0.0
Li90 Li 0.23289 0.7519 0.82218 0.0
Li91 Li 0.2414 0.78517 0.84213 0.0
C92 C 0.20363 0.6828 0.82791 0.0
N93 N 0.19856 0.61603 0.824 0.0
C94 C 0.17673 0.66563 0.83287 0.0
C95 C 0.22768 0.66609 0.82079 0.0
C96 C 0.17467 0.63186 0.83083 0.0
C97 C 0.22476 0.63231 0.81897 0.0
C98 C 0.20289 0.75669 0.86682 0.0
C99 C 0.17262 0.78673 0.88331 0.0
N100 N 0.16639 0.75825 0.88982 0.0
C101 C 0.19656 0.72778 0.87376 0.0
C102 C 0.19117 0.78647 0.87171 0.0
C103 C 0.17791 0.72905 0.88533 0.0
C104 C 0.29422 0.69276 0.85471 0.0
N105 N 0.26216 0.68777 0.85185 0.0
C106 C 0.26387 0.63478 0.8619 0.0
C107 C 0.24668 0.65962 0.8554 0.0
C108 C 0.29711 0.63928 0.86492 0.0
C109 C 0.31226 0.66872 0.86119 0.0
H110 H 0.30578 0.71559 0.85201 0.0
H111 H 0.22094 0.6566 0.85341 0.0
C112 C 0.12651 0.77579 0.83577 0.0
N113 N 0.14464 0.75483 0.8432 0.0
C114 C 0.09252 0.77547 0.8366 0.0
C115 C 0.09627 0.73201 0.85276 0.0
C116 C 0.13029 0.73326 0.85164 0.0
C117 C 0.07693 0.753 0.84501 0.0
H118 H 0.13838 0.79216 0.8289 0.0
H119 H 0.14512 0.71612 0.85712 0.0
C120 C 0.29958 0.75089 0.82656 0.0
N121 N 0.3561 0.74615 0.8117 0.0
C122 C 0.3177 0.77895 0.82359 0.0
C123 C 0.31054 0.72035 0.82218 0.0
C124 C 0.34611 0.77608 0.816 0.0
C125 C 0.33908 0.71847 0.81462 0.0
C126 C 0.20064 0.82265 0.82695 0.0
C127 C 0.20912 0.83869 0.81523 0.0
C128 C 0.18551 0.84013 0.83713 0.0
C129 C 0.2028 0.87216 0.81398 0.0
C130 C 0.17961 0.87358 0.83551 0.0
N131 N 0.18834 0.88878 0.82407 0.0
C132 C 0.22283 0.72839 0.79623 0.0
C133 C 0.26047 0.77228 0.79792 0.0
C134 C 0.22689 0.72737 0.78252 0.0
N135 N 0.23975 0.75044 0.80361 0.0
C136 C 0.26535 0.77211 0.78426 0.0
C137 C 0.24838 0.74947 0.77636 0.0
H138 H 0.20579 0.7119 0.80095 0.0
H139 H 0.27285 0.79023 0.80396 0.0
C140 C 0.27236 0.82086 0.86193 0.0
N141 N 0.2628 0.82261 0.84908 0.0
C142 C 0.29153 0.84559 0.86743 0.0
C143 C 0.28989 0.87403 0.84647 0.0
C144 C 0.27103 0.84854 0.84133 0.0
C145 C 0.30096 0.87249 0.85963 0.0
H146 H 0.26609 0.79958 0.86777 0.0
H147 H 0.26404 0.84893 0.83104 0.0
O148 O 0.20611 0.71586 0.82987 0.0
O149 O 0.22118 0.75592 0.8555 0.0
O150 O 0.27168 0.75326 0.83397 0.0
O151 O 0.20681 0.78991 0.82838 0.0
H152 H 0.1577 0.67819 0.83828 0.0
H153 H 0.24825 0.67909 0.81663 0.0
H154 H 0.15408 0.61824 0.83469 0.0
H155 H 0.24328 0.61906 0.81351 0.0
H156 H 0.16329 0.80959 0.88718 0.0
H157 H 0.20568 0.70456 0.87017 0.0
H158 H 0.19656 0.80916 0.86666 0.0
H159 H 0.17259 0.70682 0.89073 0.0
H160 H 0.25116 0.61263 0.86478 0.0
H161 H 0.33792 0.67309 0.86318 0.0
H162 H 0.07858 0.79231 0.83054 0.0
H163 H 0.08525 0.71392 0.8592 0.0
H164 H 0.30976 0.80275 0.827 0.0
H165 H 0.29736 0.69828 0.82469 0.0
H166 H 0.36021 0.79764 0.81354 0.0
H167 H 0.34777 0.695 0.81113 0.0
H168 H 0.22053 0.82547 0.80719 0.0
H169 H 0.17828 0.82796 0.84616 0.0
H170 H 0.20939 0.88493 0.80499 0.0
H171 H 0.16803 0.88744 0.84334 0.0
H172 H 0.2128 0.70996 0.77679 0.0
H173 H 0.28228 0.78949 0.77996 0.0
H174 H 0.3 0.84288 0.87752 0.0
H175 H 0.29627 0.89437 0.8401 0.0
Li176 Li 0.54436 0.98102 0.09146 0.0
Li177 Li 0.4847 0.98088 0.09308 0.0
Li178 Li 0.51521 0.93035 0.08955 0.0
Li179 Li 0.51008 0.97124 0.07201 0.0
C180 C 0.51615 0.93936 0.11552 0.0
N181 N 0.51378 0.89533 0.13624 0.0
C182 C 0.48745 0.93575 0.12288 0.0
C183 C 0.54372 0.92079 0.11876 0.0
C184 C 0.48674 0.91332 0.13332 0.0
C185 C 0.54199 0.89858 0.12924 0.0
C186 C 0.49987 0.04071 0.08578 0.0
C187 C 0.45684 0.08069 0.08346 0.0
N188 N 0.47146 0.09955 0.09285 0.0
C189 C 0.51454 0.06053 0.09537 0.0
C190 C 0.47087 0.05091 0.07972 0.0
C191 C 0.49978 0.09019 0.0988 0.0
C192 C 0.59798 0.02333 0.08899 0.0
N193 N 0.58245 0.00279 0.09749 0.0
C194 C 0.61681 0.01991 0.11529 0.0
C195 C 0.59157 0.00037 0.11038 0.0
C196 C 0.63268 0.04218 0.10684 0.0
C197 C 0.6235 0.04311 0.09344 0.0
H198 H 0.58971 0.02523 0.07886 0.0
H199 H 0.57829 0.98436 0.11698 0.0
C200 C 0.41783 0.99617 0.09721 0.0
N201 N 0.44871 0.00046 0.10185 0.0
C202 C 0.39174 0.01278 0.10305 0.0
C203 C 0.42968 0.03704 0.11857 0.0
C204 C 0.45497 0.01984 0.11247 0.0
C205 C 0.39757 0.03397 0.11376 0.0
H206 H 0.41353 0.98024 0.08886 0.0
H207 H 0.47982 0.02258 0.11597 0.0
C208 C 0.58196 0.94872 0.07491 0.0
N209 N 0.64806 0.95468 0.06986 0.0
C210 C 0.59273 0.96554 0.06369 0.0
C211 C 0.60477 0.9347 0.08351 0.0
C212 C 0.62627 0.96833 0.06132 0.0
C213 C 0.63809 0.93807 0.0808 0.0
C214 C 0.45707 0.93488 0.07003 0.0
C215 C 0.45955 0.90241 0.06577 0.0
C216 C 0.43715 0.95677 0.0631 0.0
C217 C 0.44222 0.89244 0.05456 0.0
C218 C 0.42027 0.94586 0.05192 0.0
N219 N 0.42314 0.91419 0.04792 0.0
C220 C 0.49162 0.87061 0.09996 0.0
C221 C 0.53892 0.8664 0.08648 0.0
C222 C 0.49017 0.83663 0.10127 0.0
N223 N 0.51579 0.88468 0.09268 0.0
C224 C 0.53802 0.83233 0.08731 0.0
C225 C 0.51325 0.81717 0.09469 0.0
H226 H 0.47289 0.88571 0.1044 0.0
H227 H 0.55742 0.87822 0.08052 0.0
C228 C 0.50398 0.00803 0.04844 0.0
N229 N 0.50737 0.97736 0.05344 0.0
C230 C 0.50274 0.0129 0.03479 0.0
C231 C 0.50849 0.95447 0.03171 0.0
C232 C 0.50998 0.9508 0.04542 0.0
C233 C 0.50497 0.98589 0.0262 0.0
H234 H 0.50273 0.02878 0.05505 0.0
H235 H 0.51325 0.92675 0.04969 0.0
O236 O 0.51727 0.96101 0.10521 0.0
O237 O 0.51352 0.01124 0.08248 0.0
O238 O 0.54927 0.9461 0.07751 0.0
O239 O 0.47419 0.94524 0.08088 0.0
H240 H 0.46588 0.9499 0.1205 0.0
H241 H 0.56611 0.92332 0.11315 0.0
H242 H 0.46465 0.91015 0.13907 0.0
H243 H 0.56308 0.8839 0.13181 0.0
H244 H 0.43426 0.08875 0.07894 0.0
H245 H 0.53685 0.05297 0.10022 0.0
H246 H 0.45909 0.03577 0.07235 0.0
H247 H 0.51078 0.10571 0.10625 0.0
H248 H 0.62264 0.01874 0.12573 0.0
H249 H 0.63526 0.05962 0.08655 0.0
H250 H 0.36732 0.00926 0.09917 0.0
H251 H 0.43543 0.05338 0.12668 0.0
H252 H 0.57541 0.97659 0.05694 0.0
H253 H 0.59681 0.92155 0.09223 0.0
H254 H 0.63497 0.98141 0.0527 0.0
H255 H 0.65603 0.9275 0.08741 0.0
H256 H 0.47486 0.88512 0.07099 0.0
H257 H 0.43513 0.98204 0.06619 0.0
H258 H 0.44402 0.86742 0.05112 0.0
H259 H 0.40497 0.9626 0.0464 0.0
H260 H 0.47044 0.82563 0.10688 0.0
H261 H 0.55613 0.81795 0.08207 0.0
H262 H 0.50073 0.03763 0.03101 0.0
H263 H 0.50997 0.93289 0.02552 0.0
Li264 Li 0.27243 0.26877 0.34316 0.0
Li265 Li 0.32286 0.23777 0.34008 0.0
Li266 Li 0.28103 0.2402 0.32192 0.0
Li267 Li 0.27233 0.20713 0.34195 0.0
C268 C 0.3091 0.30886 0.3266 0.0
N269 N 0.31248 0.37454 0.32018 0.0
C270 C 0.33508 0.32799 0.33118 0.0
C271 C 0.28515 0.32302 0.31858 0.0
C272 C 0.33628 0.36119 0.32788 0.0
C273 C 0.2872 0.35629 0.31549 0.0
C274 C 0.31192 0.23667 0.36634 0.0
C275 C 0.34604 0.20847 0.38211 0.0
N276 N 0.3518 0.23735 0.3884 0.0
C277 C 0.31787 0.266 0.37304 0.0
C278 C 0.32583 0.2076 0.37097 0.0
C279 C 0.33822 0.26586 0.38414 0.0
C280 C 0.21983 0.29863 0.35529 0.0
N281 N 0.25125 0.30446 0.35164 0.0
C282 C 0.24887 0.35834 0.36085 0.0
C283 C 0.2661 0.33348 0.35438 0.0
C284 C 0.21622 0.35305 0.36463 0.0
C285 C 0.20174 0.3227 0.36173 0.0
H286 H 0.20881 0.27513 0.3532 0.0
H287 H 0.2914 0.3372 0.35177 0.0
C288 C 0.38672 0.2144 0.33696 0.0
N289 N 0.36862 0.2375 0.34327 0.0
C290 C 0.42071 0.21481 0.33786 0.0
C291 C 0.41692 0.26255 0.35192 0.0
C292 C 0.38292 0.26121 0.35073 0.0
C293 C 0.43627 0.23945 0.34523 0.0
H294 H 0.37487 0.1962 0.33088 0.0
H295 H 0.36804 0.27975 0.3554 0.0
C296 C 0.21327 0.24294 0.32708 0.0
N297 N 0.15449 0.25099 0.31398 0.0
C298 C 0.19333 0.21589 0.32449 0.0
C299 C 0.203 0.27416 0.32323 0.0
C300 C 0.1638 0.22044 0.31779 0.0
C301 C 0.17329 0.2777 0.31657 0.0
C302 C 0.31067 0.1693 0.32628 0.0
C303 C 0.30107 0.15514 0.31431 0.0
C304 C 0.32426 0.1497 0.33619 0.0
C305 C 0.30477 0.12141 0.31253 0.0
C306 C 0.32753 0.11607 0.33404 0.0
N307 N 0.31778 0.10274 0.32235 0.0
C308 C 0.29503 0.26025 0.29583 0.0
C309 C 0.25068 0.22322 0.2977 0.0
C310 C 0.29143 0.26122 0.2821 0.0
N311 N 0.27458 0.24167 0.30332 0.0
C312 C 0.24612 0.22352 0.28403 0.0
C313 C 0.26669 0.24267 0.27602 0.0
H314 H 0.3144 0.27403 0.30052 0.0
H315 H 0.2355 0.20778 0.3038 0.0
C316 C 0.24286 0.17034 0.36186 0.0
N317 N 0.25067 0.16971 0.34881 0.0
C318 C 0.22356 0.14565 0.36733 0.0
C319 C 0.22167 0.11945 0.3459 0.0
C320 C 0.24061 0.14492 0.34081 0.0
C321 C 0.21227 0.11991 0.35929 0.0
H322 H 0.25059 0.19073 0.36793 0.0
H323 H 0.24624 0.14545 0.33038 0.0
O324 O 0.30749 0.27634 0.3298 0.0
O325 O 0.29214 0.23634 0.35544 0.0
O326 O 0.24225 0.2389 0.33366 0.0
O327 O 0.30714 0.20226 0.32822 0.0
H328 H 0.35402 0.3174 0.33729 0.0
H329 H 0.26537 0.30842 0.31466 0.0
H330 H 0.35612 0.37633 0.33143 0.0
H331 H 0.26876 0.36757 0.30931 0.0
H332 H 0.35709 0.18618 0.38577 0.0
H333 H 0.30714 0.28868 0.36963 0.0
H334 H 0.32095 0.1846 0.36606 0.0
H335 H 0.34323 0.28843 0.38937 0.0
H336 H 0.26112 0.38119 0.36308 0.0
H337 H 0.17653 0.31765 0.36431 0.0
H338 H 0.43469 0.19633 0.33266 0.0
H339 H 0.42794 0.28224 0.35754 0.0
H340 H 0.20071 0.1916 0.3275 0.0
H341 H 0.21759 0.29548 0.3255 0.0
H342 H 0.14828 0.19967 0.31562 0.0
H343 H 0.16511 0.30172 0.3135 0.0
H344 H 0.29081 0.16998 0.30649 0.0
H345 H 0.33218 0.16035 0.34544 0.0
H346 H 0.29731 0.11009 0.30333 0.0
H347 H 0.33787 0.10059 0.34164 0.0
H348 H 0.30827 0.27581 0.2763 0.0
H349 H 0.22662 0.20896 0.27979 0.0
H350 H 0.21645 0.14758 0.37762 0.0
H351 H 0.21391 0.10001 0.33933 0.0
Li352 Li 0.96832 0.97981 0.40475 0.0
Li353 Li 0.02786 0.98013 0.40265 0.0
Li354 Li -0.00224 0.92939 0.40638 0.0
Li355 Li 0.00345 0.97019 0.42392 0.0
C356 C 0.99616 0.93848 0.38043 0.0
N357 N -0.00106 0.89451 0.35969 0.0
C358 C 0.02461 0.93574 0.37286 0.0
C359 C 0.96903 0.91906 0.3774 0.0
C360 C 0.02554 0.91333 0.36242 0.0
C361 C 0.97096 0.8969 0.3669 0.0
C362 C 0.01276 0.03993 0.41047 0.0
C363 C 0.05576 0.07989 0.41294 0.0
N364 N 0.04052 0.09949 0.40398 0.0
C365 C -0.00254 0.06051 0.40132 0.0
C366 C 0.04207 0.04974 0.41639 0.0
C367 C 0.0119 0.09052 0.39816 0.0
C368 C 0.91615 0.02363 0.4074 0.0
N369 N 0.92983 0.0014 0.39907 0.0
C370 C 0.89311 0.0166 0.38177 0.0
C371 C 0.91857 -0.00286 0.38654 0.0
C372 C 0.87943 0.04079 0.38996 0.0
C373 C 0.89068 0.04359 0.40305 0.0
H374 H 0.92601 0.02679 0.41725 0.0
H375 H 0.93032 0.97969 0.38007 0.0
C376 C 0.09466 0.99388 0.39748 0.0
N377 N 0.06339 -7e-05 0.39367 0.0
C378 C 0.12056 0.01031 0.39141 0.0
C379 C 0.08151 0.03831 0.37746 0.0
C380 C 0.05647 0.02102 0.38367 0.0
C381 C 0.11414 0.03333 0.38138 0.0
H382 H 0.09946 0.97655 0.40532 0.0
H383 H 0.03134 0.025 0.38075 0.0
C384 C 0.93154 0.94782 0.42139 0.0
N385 N 0.8656 0.95486 0.42655 0.0
C386 C 0.92115 0.96553 0.43245 0.0
C387 C 0.90844 0.9335 0.413 0.0
C388 C 0.88768 0.96884 0.43488 0.0
C389 C 0.8752 0.93741 0.41576 0.0
C390 C 0.05689 0.93423 0.42542 0.0
C391 C 0.05441 0.9019 0.42984 0.0
C392 C 0.07753 0.9561 0.43201 0.0
C393 C 0.07246 0.89206 0.44089 0.0
C394 C 0.09511 0.94533 0.44303 0.0
N395 N 0.09222 0.9138 0.44721 0.0
C396 C 0.02147 0.86993 0.39578 0.0
C397 C 0.97458 0.86524 0.40947 0.0
C398 C 0.02307 0.83598 0.39436 0.0
N399 N -0.00258 0.88375 0.4032 0.0
C400 C 0.97566 0.83119 0.40855 0.0
C401 C 0.00028 0.81628 0.401 0.0
H402 H 0.03995 0.88521 0.39127 0.0
H403 H 0.95618 0.87687 0.41554 0.0
C404 C 0.01004 0.00697 0.44747 0.0
N405 N 0.00691 0.97626 0.44247 0.0
C406 C 0.01144 0.01184 0.46112 0.0
C407 C 0.00642 0.95335 0.4642 0.0
C408 C 0.00478 0.94967 0.4505 0.0
C409 C 0.0096 0.98482 0.46971 0.0
H410 H 0.01084 0.02774 0.44086 0.0
H411 H 0.00162 0.92559 0.44623 0.0
O412 O 0.99484 0.96011 0.39074 0.0
O413 O -0.00065 0.01018 0.41351 0.0
O414 O 0.96416 0.9448 0.4187 0.0
O415 O 0.03907 0.94449 0.41474 0.0
H416 H 0.04584 0.95057 0.37507 0.0
H417 H 0.94685 0.92083 0.38319 0.0
H418 H 0.04745 0.91084 0.3565 0.0
H419 H 0.95023 0.88155 0.3645 0.0
H420 H 0.07856 0.08767 0.41737 0.0
H421 H 0.97493 0.05325 0.39655 0.0
H422 H 0.05432 0.03405 0.42344 0.0
H423 H 0.00041 0.10662 0.39105 0.0
H424 H 0.88551 0.01396 0.37156 0.0
H425 H 0.88063 0.06175 0.40972 0.0
H426 H 0.1453 0.00512 0.39459 0.0
H427 H 0.07518 0.05607 0.36993 0.0
H428 H 0.9387 0.97687 0.43902 0.0
H429 H 0.91612 0.91974 0.4044 0.0
H430 H 0.87926 0.98261 0.44336 0.0
H431 H 0.85704 0.92661 0.40932 0.0
H432 H 0.03855 0.88463 0.42488 0.0
H433 H 0.07964 0.98123 0.42875 0.0
H434 H 0.07067 0.86715 0.44445 0.0
H435 H 0.11099 0.96205 0.44829 0.0
H436 H 0.04268 0.82518 0.38863 0.0
H437 H 0.95776 0.81663 0.41382 0.0
H438 H 0.01316 0.0366 0.46489 0.0
H439 H 0.00523 0.93176 0.47039 0.0
Li440 Li 0.27137 0.78476 0.65362 0.0
Li441 Li 0.27995 0.75155 0.67356 0.0
Li442 Li 0.32239 0.75386 0.6556 0.0
Li443 Li 0.27165 0.72305 0.65253 0.0
C444 C 0.31347 0.82203 0.66857 0.0
N445 N 0.32836 0.88772 0.67106 0.0
C446 C 0.30503 0.83897 0.68009 0.0
C447 C 0.32989 0.83836 0.6584 0.0
C448 C 0.31266 0.87222 0.68114 0.0
C449 C 0.33709 0.87161 0.65983 0.0
C450 C 0.21363 0.75082 0.66953 0.0
C451 C 0.17512 0.71888 0.68217 0.0
N452 N 0.15815 0.74663 0.68503 0.0
C453 C 0.19559 0.77896 0.67245 0.0
C454 C 0.20315 0.72048 0.6743 0.0
C455 C 0.1677 0.77637 0.68036 0.0
C456 C 0.24004 0.82025 0.63388 0.0
N457 N 0.2501 0.82222 0.64666 0.0
C458 C 0.22365 0.87398 0.64924 0.0
C459 C 0.24244 0.84841 0.65435 0.0
C460 C 0.21212 0.87226 0.63615 0.0
C461 C 0.22097 0.84508 0.62839 0.0
H462 H 0.24585 0.79877 0.62808 0.0
H463 H 0.24982 0.84896 0.6646 0.0
C464 C 0.28917 0.72747 0.69948 0.0
N465 N 0.27312 0.75023 0.69212 0.0
C466 C 0.28509 0.72653 0.71318 0.0
C467 C 0.24835 0.7727 0.7115 0.0
C468 C 0.25323 0.7728 0.69784 0.0
C469 C 0.26445 0.74938 0.71938 0.0
H470 H 0.30554 0.71036 0.69473 0.0
H471 H 0.24147 0.79119 0.69181 0.0
C472 C 0.30891 0.7568 0.62876 0.0
N473 N 0.34336 0.75972 0.60527 0.0
C474 C 0.31458 0.72831 0.62145 0.0
C475 C 0.3202 0.78686 0.62399 0.0
C476 C 0.3322 0.73026 0.60964 0.0
C477 C 0.33773 0.78781 0.61214 0.0
C478 C 0.31002 0.68236 0.66742 0.0
C479 C 0.3372 0.66628 0.66213 0.0
C480 C 0.28652 0.66448 0.67439 0.0
C481 C 0.34012 0.63242 0.6637 0.0
C482 C 0.29029 0.63066 0.67573 0.0
N483 N 0.31677 0.61545 0.6704 0.0
C484 C 0.38649 0.77336 0.66076 0.0
C485 C 0.38243 0.73465 0.64337 0.0
C486 C 0.42049 0.77298 0.65992 0.0
N487 N 0.36823 0.75434 0.65258 0.0
C488 C 0.41643 0.73347 0.64219 0.0
C489 C 0.4359 0.75247 0.65068 0.0
H490 H 0.37471 0.7882 0.66821 0.0
H491 H 0.3675 0.71888 0.6373 0.0
C492 C 0.21832 0.6917 0.64153 0.0
N493 N 0.25063 0.68724 0.64403 0.0
C494 C 0.20036 0.66761 0.63504 0.0
C495 C 0.24933 0.63465 0.63363 0.0
C496 C 0.26642 0.65955 0.64014 0.0
C497 C 0.21586 0.63865 0.63096 0.0
H498 H 0.20648 0.7142 0.6445 0.0
H499 H 0.29234 0.65697 0.64184 0.0
O500 O 0.306 0.78952 0.66733 0.0
O501 O 0.24104 0.75291 0.66181 0.0
O502 O 0.29159 0.75535 0.64032 0.0
O503 O 0.30674 0.7155 0.66596 0.0
H504 H 0.2926 0.82664 0.68811 0.0
H505 H 0.33717 0.82544 0.64955 0.0
H506 H 0.3061 0.88569 0.68997 0.0
H507 H 0.34969 0.88458 0.65201 0.0
H508 H 0.1668 0.69556 0.68597 0.0
H509 H 0.20319 0.8026 0.66875 0.0
H510 H 0.21634 0.69837 0.67187 0.0
H511 H 0.15365 0.79799 0.68279 0.0
H512 H 0.21768 0.89452 0.65557 0.0
H513 H 0.21212 0.84225 0.61836 0.0
H514 H 0.29851 0.70855 0.71889 0.0
H515 H 0.23206 0.79066 0.71583 0.0
H516 H 0.30575 0.70489 0.62493 0.0
H517 H 0.31525 0.80926 0.62933 0.0
H518 H 0.33702 0.70836 0.60394 0.0
H519 H 0.34673 0.81089 0.60836 0.0
H520 H 0.35579 0.67975 0.65683 0.0
H521 H 0.2657 0.67661 0.67877 0.0
H522 H 0.36094 0.61963 0.6596 0.0
H523 H 0.27221 0.61651 0.68106 0.0
H524 H 0.43457 0.78821 0.66659 0.0
H525 H 0.42735 0.71689 0.63509 0.0
H526 H 0.17453 0.67157 0.6333 0.0
H527 H 0.26228 0.61288 0.63048 0.0
Li528 Li 0.51562 0.06325 0.90638 0.0
Li529 Li 0.51022 0.02205 0.92379 0.0
Li530 Li 0.54508 0.0129 0.9045 0.0
Li531 Li 0.48548 0.01263 0.90254 0.0
C532 C 0.58207 0.04462 0.9212 0.0
N533 N 0.64808 0.03769 0.92623 0.0
C534 C 0.59262 0.02685 0.93222 0.0
C535 C 0.60504 0.05906 0.91279 0.0
C536 C 0.62612 0.0236 0.93458 0.0
C537 C 0.63832 0.0552 0.91548 0.0
C538 C 0.45687 0.05805 0.92558 0.0
C539 C 0.41916 0.04663 0.94334 0.0
N540 N 0.422 0.07814 0.94754 0.0
C541 C 0.45931 0.09036 0.93004 0.0
C542 C 0.4365 0.03603 0.93223 0.0
C543 C 0.4415 0.10002 0.94117 0.0
C544 C 0.4917 0.12281 0.89599 0.0
N545 N 0.5159 0.10894 0.90332 0.0
C546 C 0.5378 0.16145 0.90865 0.0
C547 C 0.53887 0.1274 0.90954 0.0
C548 C 0.51304 0.17641 0.90118 0.0
C549 C 0.4901 0.15676 0.89461 0.0
H550 H 0.47313 0.10756 0.89153 0.0
H551 H 0.5574 0.11572 0.91553 0.0
C552 C 0.50446 0.98433 0.94707 0.0
N553 N 0.50705 0.01534 0.94232 0.0
C554 C 0.50322 0.97878 0.96068 0.0
C555 C 0.50726 0.03721 0.96423 0.0
C556 C 0.50882 0.04159 0.95055 0.0
C557 C 0.5046 0.00545 0.96943 0.0
H558 H 0.50378 0.96387 0.94031 0.0
H559 H 0.51175 0.06589 0.94649 0.0
C560 C 0.51702 0.0547 0.88039 0.0
N561 N 0.51424 0.09905 0.85978 0.0
C562 C 0.48849 0.05772 0.87287 0.0
C563 C 0.54422 0.07403 0.87737 0.0
C564 C 0.48757 0.08033 0.8625 0.0
C565 C 0.54229 0.09639 0.86694 0.0
C566 C 0.50072 0.95269 0.91 0.0
C567 C 0.51582 0.93256 0.90063 0.0
C568 C 0.47156 0.9426 0.91595 0.0
C569 C 0.50135 0.90268 0.89731 0.0
C570 C 0.45781 0.91259 0.91233 0.0
N571 N 0.47286 0.89342 0.90316 0.0
C572 C 0.59736 0.96924 0.90699 0.0
C573 C 0.59446 0.99557 0.88611 0.0
C574 C 0.62278 0.94931 0.90258 0.0
N575 N 0.58348 0.99139 0.89868 0.0
C576 C 0.61984 0.9761 0.88127 0.0
C577 C 0.63375 0.95201 0.88945 0.0
H578 H 0.5877 0.96612 0.91687 0.0
H579 H 0.58254 0.01295 0.87965 0.0
C580 C 0.41865 -0.00152 0.89771 0.0
N581 N 0.44979 0.99301 0.89359 0.0
C582 C 0.39265 0.98203 0.89172 0.0
C583 C 0.4313 0.95532 0.87718 0.0
C584 C 0.45646 0.97256 0.88335 0.0
C585 C 0.39885 0.95964 0.88144 0.0
H586 H 0.41404 0.0153 0.90574 0.0
H587 H 0.48149 0.969 0.88022 0.0
O588 O 0.54942 0.0476 0.91857 0.0
O589 O 0.47445 0.04798 0.91481 0.0
O590 O 0.51832 0.03288 0.89063 0.0
O591 O 0.51416 0.98234 0.9132 0.0
H592 H 0.57517 0.01544 0.93881 0.0
H593 H 0.59724 0.07288 0.90422 0.0
H594 H 0.63467 0.00979 0.94304 0.0
H595 H 0.65639 0.06609 0.90902 0.0
H596 H 0.40349 0.02979 0.94863 0.0
H597 H 0.47496 0.10774 0.92504 0.0
H598 H 0.43444 0.01091 0.92894 0.0
H599 H 0.44327 0.12491 0.94477 0.0
H600 H 0.55582 0.17598 0.91387 0.0
H601 H 0.47038 0.1676 0.88895 0.0
H602 H 0.50112 0.95393 0.96433 0.0
H603 H 0.50892 0.05834 0.97068 0.0
H604 H 0.46721 0.04297 0.87508 0.0
H605 H 0.56645 0.07202 0.88311 0.0
H606 H 0.46561 0.08304 0.85663 0.0
H607 H 0.56307 0.11166 0.86454 0.0
H608 H 0.53825 0.94005 0.89584 0.0
H609 H 0.45945 0.95796 0.92316 0.0
H610 H 0.51268 0.88692 0.89003 0.0
H611 H 0.43512 0.90459 0.91678 0.0
H612 H 0.63302 0.93124 0.90924 0.0
H613 H 0.62722 0.97867 0.87103 0.0
H614 H 0.36801 0.98666 0.89516 0.0
H615 H 0.43742 0.93805 0.86944 0.0
Li616 Li 0.23334 0.24216 0.17328 0.0
Li617 Li 0.24193 0.2092 0.15337 0.0
Li618 Li 0.24178 0.27091 0.15266 0.0
Li619 Li 0.19073 0.24044 0.15562 0.0
C620 C 0.29796 0.24025 0.17046 0.0
N621 N 0.34878 0.23914 0.18845 0.0
C622 C 0.3142 0.21092 0.17319 0.0
C623 C 0.30783 0.26909 0.17673 0.0
C624 C 0.33978 0.21085 0.18236 0.0
C625 C 0.3335 0.268 0.18584 0.0
C626 C 0.19522 0.17295 0.16728 0.0
C627 C 0.16431 0.12933 0.15717 0.0
N628 N 0.1706 0.10996 0.16782 0.0
C629 C 0.2011 0.15275 0.17819 0.0
C630 C 0.17646 0.16128 0.15674 0.0
C631 C 0.18856 0.12093 0.17825 0.0
C632 C 0.22936 0.26867 0.19906 0.0
N633 N 0.24037 0.24289 0.19183 0.0
C634 C 0.26111 0.21691 0.21126 0.0
C635 C 0.2558 0.21716 0.19763 0.0
C636 C 0.25003 0.24321 0.21903 0.0
C637 C 0.23396 0.26936 0.21274 0.0
H638 H 0.21663 0.28853 0.19423 0.0
H639 H 0.26395 0.19679 0.19165 0.0
C640 C 0.27633 0.17608 0.13393 0.0
N641 N 0.26297 0.17202 0.14612 0.0
C642 C 0.29522 0.15133 0.1283 0.0
C643 C 0.28597 0.11842 0.14783 0.0
C644 C 0.26725 0.14388 0.15309 0.0
C645 C 0.30063 0.12216 0.13534 0.0
H646 H 0.27313 0.19903 0.12875 0.0
H647 H 0.25717 0.14161 0.16292 0.0
C648 C 0.20216 0.31175 0.16594 0.0
N649 N 0.1931 0.37879 0.16564 0.0
C650 C 0.17427 0.32516 0.16007 0.0
C651 C 0.22526 0.3324 0.17179 0.0
C652 C 0.17017 0.35912 0.15999 0.0
C653 C 0.22031 0.36624 0.17149 0.0
C654 C 0.20693 0.23548 0.12826 0.0
C655 C 0.20155 0.26276 0.1202 0.0
C656 C 0.1985 0.20432 0.12367 0.0
C657 C 0.18704 0.2585 0.1078 0.0
C658 C 0.18405 0.20106 0.11121 0.0
N659 N 0.17862 0.22799 0.10361 0.0
C660 C 0.29584 0.3044 0.14326 0.0
C661 C 0.24636 0.33266 0.13892 0.0
C662 C 0.31376 0.32852 0.13676 0.0
N663 N 0.26281 0.30686 0.14424 0.0
C664 C 0.26341 0.35759 0.13241 0.0
C665 C 0.29753 0.35545 0.13118 0.0
H666 H 0.3083 0.28341 0.14736 0.0
H667 H 0.22003 0.33367 0.13951 0.0
C668 C 0.12668 0.22699 0.16277 0.0
N669 N 0.1448 0.24008 0.15282 0.0
C670 C 0.09265 0.22748 0.16213 0.0
C671 C 0.09641 0.25492 0.14099 0.0
C672 C 0.13045 0.25385 0.14203 0.0
C673 C 0.07708 0.24196 0.15121 0.0
H674 H 0.13871 0.21666 0.17133 0.0
H675 H 0.14526 0.26503 0.13446 0.0
O676 O 0.2726 0.24075 0.16163 0.0
O677 O 0.20748 0.20412 0.16705 0.0
O678 O 0.20658 0.27855 0.16611 0.0
O679 O 0.22139 0.23922 0.14037 0.0
H680 H 0.30697 0.18841 0.16838 0.0
H681 H 0.29578 0.29204 0.1746 0.0
H682 H 0.35244 0.18828 0.18464 0.0
H683 H 0.34128 0.29011 0.19083 0.0
H684 H 0.1498 0.11997 0.14906 0.0
H685 H 0.21534 0.16148 0.18649 0.0
H686 H 0.17105 0.17681 0.14837 0.0
H687 H 0.19309 0.10496 0.18659 0.0
H688 H 0.27392 0.1964 0.21564 0.0
H689 H 0.22446 0.28985 0.21835 0.0
H690 H 0.30658 0.15561 0.11878 0.0
H691 H 0.2894 0.09631 0.15358 0.0
H692 H 0.15602 0.30956 0.15559 0.0
H693 H 0.24683 0.32243 0.17647 0.0
H694 H 0.14877 0.36984 0.15544 0.0
H695 H 0.23808 0.38252 0.17591 0.0
H696 H 0.20822 0.28701 0.12353 0.0
H697 H 0.20336 0.18281 0.12959 0.0
H698 H 0.18248 0.27944 0.10151 0.0
H699 H 0.1773 0.17709 0.10756 0.0
H700 H 0.34009 0.32611 0.13613 0.0
H701 H 0.25001 0.37782 0.1281 0.0
H702 H 0.07869 0.21691 0.17017 0.0
H703 H 0.08539 0.26682 0.13252 0.0
Li704 Li 0.78092 0.25235 0.17385 0.0
Li705 Li 0.77212 0.28559 0.15387 0.0
Li706 Li 0.77228 0.22396 0.15255 0.0
Li707 Li 0.82263 0.25499 0.15568 0.0
C708 C 0.71299 0.24965 0.1686 0.0
N709 N 0.65388 0.2416 0.18145 0.0
C710 C 0.69322 0.27676 0.17129 0.0
C711 C 0.70239 0.21838 0.17222 0.0
C712 C 0.66352 0.27221 0.17786 0.0
C713 C 0.67251 0.21483 0.17876 0.0
C714 C 0.81022 0.32334 0.16963 0.0
C715 C 0.82628 0.3769 0.16197 0.0
N716 N 0.81671 0.3899 0.17374 0.0
C717 C 0.8008 0.33717 0.18169 0.0
C718 C 0.82331 0.34329 0.15972 0.0
C719 C 0.80419 0.3709 0.18356 0.0
C720 C 0.79519 0.2323 0.19992 0.0
N721 N 0.77456 0.25073 0.19246 0.0
C722 C 0.7461 0.26868 0.21178 0.0
C723 C 0.75055 0.269 0.1981 0.0
C724 C 0.76686 0.24968 0.21976 0.0
C725 C 0.79168 0.23129 0.21365 0.0
H726 H 0.81464 0.21868 0.19521 0.0
H727 H 0.73523 0.28435 0.19201 0.0
C728 C 0.74256 0.32251 0.13402 0.0
N729 N 0.75038 0.32305 0.14707 0.0
C730 C 0.72324 0.34723 0.12858 0.0
C731 C 0.72136 0.37328 0.15004 0.0
C732 C 0.7403 0.34778 0.1551 0.0
C733 C 0.71196 0.37292 0.13665 0.0
H734 H 0.75031 0.30217 0.12793 0.0
H735 H 0.74595 0.34719 0.16553 0.0
C736 C 0.80852 0.18384 0.16928 0.0
N737 N 0.81098 0.11835 0.17609 0.0
C738 C 0.83442 0.16426 0.16494 0.0
C739 C 0.78417 0.17022 0.17726 0.0
C740 C 0.83515 0.13118 0.16844 0.0
C741 C 0.78576 0.13704 0.18055 0.0
C742 C 0.812 0.25611 0.12951 0.0
C743 C 0.81823 0.22669 0.12291 0.0
C744 C 0.82602 0.28514 0.12489 0.0
C745 C 0.83895 0.22671 0.11192 0.0
C746 C 0.84661 0.28415 0.11387 0.0
N747 N 0.85262 0.2552 0.10768 0.0
C748 C 0.71984 0.19432 0.14023 0.0
C749 C 0.76587 0.1592 0.1414 0.0
C750 C 0.70175 0.17027 0.13377 0.0
N751 N 0.75112 0.18834 0.14402 0.0
C752 C 0.74865 0.13436 0.13491 0.0
C753 C 0.71613 0.13979 0.13099 0.0
H754 H 0.7089 0.2179 0.14224 0.0
H755 H 0.79108 0.15536 0.14413 0.0
C756 C 0.88646 0.27894 0.15842 0.0
N757 N 0.86837 0.25527 0.15246 0.0
C758 C 0.92044 0.27855 0.15748 0.0
C759 C 0.91667 0.22966 0.14408 0.0
C760 C 0.88267 0.23101 0.14529 0.0
C761 C 0.93601 0.25335 0.15043 0.0
H762 H 0.87461 0.2976 0.16427 0.0
H763 H 0.86779 0.21208 0.14088 0.0
O764 O 0.74211 0.25369 0.16212 0.0
O765 O 0.80697 0.29038 0.1676 0.0
O766 O 0.80736 0.21625 0.16589 0.0
O767 O 0.79191 0.25655 0.14031 0.0
H768 H 0.70085 0.3011 0.16845 0.0
H769 H 0.71682 0.19701 0.16987 0.0
H770 H 0.64812 0.29302 0.18011 0.0
H771 H 0.66406 0.19077 0.18165 0.0
H772 H 0.83622 0.39265 0.15436 0.0
H773 H 0.79093 0.32207 0.18951 0.0
H774 H 0.83105 0.33292 0.1504 0.0
H775 H 0.79687 0.38196 0.19283 0.0
H776 H 0.72656 0.28313 0.21604 0.0
H777 H 0.80864 0.21681 0.21943 0.0
H778 H 0.71613 0.34537 0.11829 0.0
H779 H 0.71362 0.39268 0.15663 0.0
H780 H 0.85366 0.17443 0.15887 0.0
H781 H 0.76445 0.18517 0.181 0.0
H782 H 0.85493 0.1157 0.16507 0.0
H783 H 0.76702 0.12618 0.1867 0.0
H784 H 0.80744 0.20404 0.12632 0.0
H785 H 0.82096 0.30819 0.12973 0.0
H786 H 0.84418 0.20409 0.10678 0.0
H787 H 0.85774 0.30641 0.11022 0.0
H788 H 0.67664 0.17543 0.13109 0.0
H789 H 0.76083 0.11141 0.13278 0.0
H790 H 0.93441 0.29749 0.16241 0.0
H791 H 0.9277 0.20956 0.1387 0.0
Li792 Li 0.73259 0.74079 0.67348 0.0
Li793 Li 0.74133 0.70785 0.65344 0.0
Li794 Li 0.74112 0.76956 0.65247 0.0
Li795 Li 0.69036 0.73872 0.6554 0.0
C796 C 0.79925 0.74212 0.66928 0.0
N797 N 0.85533 0.74727 0.68439 0.0
C798 C 0.81818 0.71437 0.6719 0.0
C799 C 0.80915 0.77257 0.67415 0.0
C800 C 0.84636 0.71745 0.67962 0.0
C801 C 0.83749 0.77465 0.68182 0.0
C802 C 0.69974 0.67036 0.66849 0.0
C803 C 0.67666 0.6202 0.66006 0.0
N804 N 0.68599 0.60451 0.67132 0.0
C805 C 0.70881 0.65385 0.68003 0.0
C806 C 0.68328 0.65352 0.65847 0.0
C807 C 0.70175 0.62052 0.68125 0.0
C808 C 0.72139 0.76333 0.69945 0.0
N809 N 0.73912 0.74195 0.69206 0.0
C810 C 0.7651 0.72082 0.71142 0.0
C811 C 0.76041 0.72067 0.69775 0.0
C812 C 0.74726 0.74275 0.71935 0.0
C813 C 0.72512 0.7642 0.71318 0.0
H814 H 0.70398 0.77941 0.69471 0.0
H815 H 0.77346 0.70324 0.6917 0.0
C816 C 0.77238 0.67231 0.63362 0.0
N817 N 0.76269 0.67048 0.64645 0.0
C818 C 0.79153 0.64756 0.62812 0.0
C819 C 0.78964 0.61899 0.64905 0.0
C820 C 0.77079 0.64449 0.65418 0.0
C821 C 0.80082 0.62059 0.6359 0.0
H822 H 0.76624 0.69366 0.62779 0.0
H823 H 0.76371 0.64406 0.66446 0.0
C824 C 0.70259 0.80997 0.6676 0.0
N825 N 0.69565 0.8767 0.67113 0.0
C826 C 0.67582 0.82639 0.66213 0.0
C827 C 0.72555 0.8274 0.67503 0.0
C828 C 0.67281 0.86016 0.66399 0.0
C829 C 0.7217 0.86115 0.67665 0.0
C830 C 0.70375 0.73608 0.62864 0.0
C831 C 0.69835 0.76456 0.6213 0.0
C832 C 0.69193 0.70613 0.62398 0.0
C833 C 0.68051 0.7627 0.60953 0.0
C834 C 0.6742 0.70527 0.61217 0.0
N835 N 0.66886 0.73335 0.60526 0.0
C836 C 0.79453 0.80088 0.64151 0.0
C837 C 0.74656 0.83328 0.64028 0.0
C838 C 0.81253 0.825 0.63506 0.0
N839 N 0.76225 0.80545 0.64408 0.0
C840 C 0.7637 0.8582 0.63382 0.0
C841 C 0.79713 0.85409 0.63108 0.0
H842 H 0.80628 0.77827 0.64438 0.0
H843 H 0.72067 0.83595 0.64203 0.0
C844 C 0.62633 0.71912 0.6605 0.0
N845 N 0.64455 0.73828 0.65236 0.0
C846 C 0.59233 0.71956 0.65971 0.0
C847 C 0.59629 0.75935 0.64208 0.0
C848 C 0.63031 0.75813 0.64322 0.0
C849 C 0.57687 0.74024 0.65054 0.0
H850 H 0.63816 0.70413 0.66789 0.0
H851 H 0.64521 0.77398 0.63717 0.0
O852 O 0.77155 0.73955 0.66176 0.0
O853 O 0.70658 0.70296 0.6671 0.0
O854 O 0.70595 0.77692 0.66586 0.0
O855 O 0.72127 0.73743 0.64015 0.0
H856 H 0.81104 0.69067 0.66812 0.0
H857 H 0.79526 0.7944 0.67195 0.0
H858 H 0.86109 0.69614 0.68181 0.0
H859 H 0.84537 0.79805 0.68569 0.0
H860 H 0.66403 0.60683 0.65236 0.0
H861 H 0.7213 0.66659 0.68794 0.0
H862 H 0.67553 0.66609 0.6496 0.0
H863 H 0.70879 0.60737 0.6901 0.0
H864 H 0.78259 0.70399 0.71571 0.0
H865 H 0.71034 0.78103 0.71889 0.0
H866 H 0.8001 0.65033 0.61804 0.0
H867 H 0.79594 0.5986 0.6554 0.0
H868 H 0.65766 0.81327 0.65646 0.0
H869 H 0.74599 0.81498 0.67957 0.0
H870 H 0.65233 0.87321 0.65974 0.0
H871 H 0.73936 0.87495 0.68234 0.0
H872 H 0.70758 0.78789 0.62471 0.0
H873 H 0.69662 0.68374 0.62936 0.0
H874 H 0.67592 0.78459 0.6038 0.0
H875 H 0.6648 0.68227 0.60847 0.0
H876 H 0.83833 0.82095 0.63328 0.0
H877 H 0.75082 0.88008 0.63073 0.0
H878 H 0.57828 0.70423 0.66635 0.0
H879 H 0.58533 0.77606 0.63504 0.0
Li880 Li 0.69099 0.25261 0.3401 0.0
Li881 Li 0.74202 0.2222 0.34321 0.0
Li882 Li 0.74213 0.28391 0.34236 0.0
Li883 Li 0.73381 0.2507 0.32249 0.0
C884 C 0.70665 0.25769 0.36744 0.0
N885 N 0.67748 0.26497 0.39192 0.0
C886 C 0.70115 0.23036 0.37546 0.0
C887 C 0.69791 0.2888 0.37199 0.0
C888 C 0.6862 0.23452 0.38777 0.0
C889 C 0.68303 0.29195 0.38436 0.0
C890 C 0.70276 0.18116 0.32976 0.0
C891 C 0.72134 0.12688 0.32411 0.0
N892 N 0.6941 0.11407 0.32983 0.0
C893 C 0.67483 0.16748 0.33549 0.0
C894 C 0.7261 0.16075 0.32393 0.0
C895 C 0.67093 0.13349 0.33546 0.0
C896 C 0.6269 0.2668 0.33309 0.0
N897 N 0.64505 0.25294 0.34286 0.0
C898 C 0.59669 0.23723 0.35452 0.0
C899 C 0.63072 0.23834 0.35347 0.0
C900 C 0.57733 0.25102 0.34448 0.0
C901 C 0.59288 0.26631 0.33375 0.0
H902 H 0.6389 0.27774 0.32465 0.0
H903 H 0.64555 0.22651 0.36087 0.0
C904 C 0.79594 0.18907 0.35293 0.0
N905 N 0.76297 0.18637 0.35174 0.0
C906 C 0.81379 0.165 0.35948 0.0
C907 C 0.7635 0.13551 0.36348 0.0
C908 C 0.74652 0.1604 0.35692 0.0
C909 C 0.79757 0.13786 0.36491 0.0
H910 H 0.80839 0.2102 0.34894 0.0
H911 H 0.72021 0.15921 0.35617 0.0
C912 C 0.69594 0.32007 0.32821 0.0
N913 N 0.67214 0.38335 0.32736 0.0
C914 C 0.70217 0.3399 0.31723 0.0
C915 C 0.67723 0.33227 0.33868 0.0
C916 C 0.69004 0.37188 0.31701 0.0
C917 C 0.66551 0.36435 0.33808 0.0
C918 C 0.79853 0.25255 0.32553 0.0
C919 C 0.81479 0.28183 0.32272 0.0
C920 C 0.80872 0.22353 0.31947 0.0
C921 C 0.84069 0.28168 0.31371 0.0
C922 C 0.83471 0.22439 0.31051 0.0
N923 N 0.85 0.25321 0.30782 0.0
C924 C 0.77603 0.31745 0.36184 0.0
C925 C 0.76767 0.34913 0.34249 0.0
C926 C 0.79489 0.34226 0.36744 0.0
N927 N 0.76306 0.32122 0.34957 0.0
C928 C 0.78635 0.37466 0.34772 0.0
C929 C 0.80065 0.37121 0.36029 0.0
H930 H 0.77258 0.29466 0.36711 0.0
H931 H 0.75792 0.35116 0.3326 0.0
C932 C 0.72977 0.22405 0.29673 0.0
N933 N 0.74104 0.24974 0.30395 0.0
C934 C 0.73439 0.22327 0.28305 0.0
C935 C 0.76206 0.27546 0.28451 0.0
C936 C 0.75675 0.27529 0.29815 0.0
C937 C 0.7507 0.24925 0.27676 0.0
H938 H 0.7168 0.20436 0.30156 0.0
H939 H 0.76507 0.29561 0.30411 0.0
O940 O 0.72151 0.25405 0.3554 0.0
O941 O 0.70699 0.21439 0.3297 0.0
O942 O 0.70781 0.28877 0.32861 0.0
O943 O 0.7729 0.25227 0.33422 0.0
H944 H 0.70805 0.20615 0.37215 0.0
H945 H 0.70286 0.31034 0.36611 0.0
H946 H 0.68154 0.21354 0.39403 0.0
H947 H 0.67603 0.31587 0.38798 0.0
H948 H 0.7393 0.11079 0.3197 0.0
H949 H 0.6564 0.18289 0.33995 0.0
H950 H 0.74768 0.17094 0.31934 0.0
H951 H 0.6495 0.12256 0.33991 0.0
H952 H 0.58568 0.22468 0.36284 0.0
H953 H 0.57889 0.27752 0.32585 0.0
H954 H 0.84008 0.16758 0.36027 0.0
H955 H 0.7501 0.11512 0.36766 0.0
H956 H 0.71636 0.33077 0.30899 0.0
H957 H 0.67155 0.31703 0.3471 0.0
H958 H 0.69484 0.38756 0.30861 0.0
H959 H 0.65105 0.37412 0.34613 0.0
H960 H 0.80733 0.30448 0.32736 0.0
H961 H 0.7967 0.20061 0.32167 0.0
H962 H 0.85336 0.3042 0.31137 0.0
H963 H 0.84274 0.20214 0.3057 0.0
H964 H 0.80596 0.33819 0.37703 0.0
H965 H 0.79004 0.39659 0.34188 0.0
H966 H 0.72469 0.20287 0.27745 0.0
H967 H 0.77504 0.29584 0.28012 0.0
Li968 Li 0.77124 0.77021 0.84292 0.0
Li969 Li 0.82221 0.73968 0.83995 0.0
Li970 Li 0.77953 0.74143 0.82217 0.0
Li971 Li 0.77108 0.70849 0.84216 0.0
C972 C 0.81018 0.81101 0.82901 0.0
N973 N 0.81805 0.87817 0.82811 0.0
C974 C 0.8377 0.82558 0.83472 0.0
C975 C 0.78689 0.83056 0.8227 0.0
C976 C 0.84119 0.85959 0.83419 0.0
C977 C 0.79122 0.86448 0.8224 0.0
C978 C 0.80727 0.73527 0.8671 0.0
C979 C 0.83254 0.7017 0.88385 0.0
N980 N 0.83825 0.72892 0.89126 0.0
C981 C 0.81295 0.76285 0.87496 0.0
C982 C 0.81675 0.70438 0.87165 0.0
C983 C 0.82883 0.75916 0.88711 0.0
C984 C 0.71736 0.80314 0.85276 0.0
N985 N 0.75024 0.80617 0.85134 0.0
C986 C 0.74957 0.85748 0.86275 0.0
C987 C 0.76659 0.83253 0.85625 0.0
C988 C 0.71558 0.85482 0.8644 0.0
C989 C 0.69947 0.82728 0.85925 0.0
H990 H 0.70501 0.78169 0.849 0.0
H991 H 0.79285 0.83396 0.85535 0.0
C992 C 0.88632 0.72338 0.83359 0.0
N993 N 0.86811 0.7393 0.84281 0.0
C994 C 0.92033 0.72379 0.83431 0.0
C995 C 0.91641 0.75713 0.85401 0.0
C996 C 0.88239 0.75596 0.85292 0.0
C997 C 0.93583 0.74122 0.84451 0.0
H998 H 0.87441 0.71091 0.82548 0.0
H999 H 0.86751 0.76941 0.85985 0.0
C1000 C 0.71421 0.74017 0.82551 0.0
N1001 N 0.66131 0.74034 0.80851 0.0
C1002 C 0.69723 0.71116 0.82295 0.0
C1003 C 0.70399 0.76934 0.8196 0.0
C1004 C 0.67062 0.71173 0.81428 0.0
C1005 C 0.67728 0.7689 0.81098 0.0
C1006 C 0.81591 0.67176 0.82772 0.0
C1007 C 0.80858 0.6529 0.81656 0.0
C1008 C 0.83422 0.6581 0.838 0.0
C1009 C 0.81922 0.62043 0.81599 0.0
C1010 C 0.84443 0.62554 0.83706 0.0
N1011 N 0.83674 0.60752 0.82617 0.0
C1012 C 0.78622 0.76669 0.79633 0.0
C1013 C 0.75488 0.71804 0.79785 0.0
C1014 C 0.78197 0.76749 0.78263 0.0
N1015 N 0.77259 0.74231 0.80362 0.0
C1016 C 0.74978 0.718 0.78421 0.0
C1017 C 0.76351 0.74291 0.77638 0.0
H1018 H 0.8008 0.78528 0.80113 0.0
H1019 H 0.74487 0.69857 0.80385 0.0
C1020 C 0.73791 0.67465 0.86181 0.0
N1021 N 0.75007 0.67121 0.84938 0.0
C1022 C 0.71899 0.6499 0.86742 0.0
C1023 C 0.72591 0.61818 0.84742 0.0
C1024 C 0.74462 0.64366 0.84217 0.0
C1025 C 0.71237 0.62133 0.86014 0.0
H1026 H 0.74201 0.69717 0.86719 0.0
H1027 H 0.75369 0.6419 0.83217 0.0
O1028 O 0.80634 0.77776 0.82945 0.0
O1029 O 0.79154 0.73844 0.85522 0.0
O1030 O 0.74046 0.74006 0.8339 0.0
O1031 O 0.80553 0.70355 0.82846 0.0
H1032 H 0.85611 0.81083 0.83955 0.0
H1033 H 0.7657 0.81967 0.81807 0.0
H1034 H 0.86229 0.8712 0.83863 0.0
H1035 H 0.77329 0.87991 0.8176 0.0
H1036 H 0.84012 0.67796 0.88747 0.0
H1037 H 0.80548 0.78688 0.87165 0.0
H1038 H 0.81167 0.68266 0.86589 0.0
H1039 H 0.83365 0.78033 0.89323 0.0
H1040 H 0.76291 0.87817 0.86673 0.0
H1041 H 0.67325 0.82444 0.86021 0.0
H1042 H 0.93433 0.71092 0.82685 0.0
H1043 H 0.92736 0.77136 0.86189 0.0
H1044 H 0.70466 0.68841 0.82751 0.0
H1045 H 0.71649 0.79209 0.82166 0.0
H1046 H 0.6574 0.68942 0.81213 0.0
H1047 H 0.66921 0.79129 0.80628 0.0
H1048 H 0.79468 0.66318 0.80846 0.0
H1049 H 0.84075 0.67256 0.84654 0.0
H1050 H 0.81355 0.60548 0.80746 0.0
H1051 H 0.85857 0.61464 0.84496 0.0
H1052 H 0.79358 0.78679 0.77699 0.0
H1053 H 0.73512 0.69872 0.77986 0.0
H1054 H 0.70853 0.65376 0.87714 0.0
H1055 H 0.72158 0.59655 0.84147 0.0
Li1056 Li 0.50343 0.5222 0.07192 0.0
Li1057 Li 0.49774 0.56351 0.08927 0.0
Li1058 Li 0.52779 0.51287 0.09326 0.0
Li1059 Li 0.46822 0.5132 0.09111 0.0
C1060 C 0.55688 0.55812 0.07027 0.0
N1061 N 0.59223 0.57799 0.0484 0.0
C1062 C 0.5544 0.59033 0.06571 0.0
C1063 C 0.57753 0.53608 0.06378 0.0
C1064 C 0.57245 0.59989 0.05463 0.0
C1065 C 0.59512 0.54657 0.05271 0.0
C1066 C 0.43154 0.54473 0.0743 0.0
C1067 C 0.37519 0.55529 0.07986 0.0
N1068 N 0.36561 0.53759 0.06914 0.0
C1069 C 0.42117 0.52677 0.0633 0.0
C1070 C 0.40843 0.55926 0.08262 0.0
C1071 C 0.38771 0.52341 0.06087 0.0
C1072 C 0.50951 0.48431 0.04869 0.0
N1073 N 0.50692 0.51536 0.05341 0.0
C1074 C 0.50691 0.53707 0.03147 0.0
C1075 C 0.50526 0.54155 0.04514 0.0
C1076 C 0.50954 0.50526 0.02631 0.0
C1077 C 0.51084 0.47866 0.03509 0.0
H1078 H 0.51006 0.4639 0.05548 0.0
H1079 H 0.50231 0.56588 0.04918 0.0
C1080 C 0.52152 0.62314 0.09966 0.0
N1081 N 0.49744 0.60923 0.09228 0.0
C1082 C 0.52307 0.6571 0.10104 0.0
C1083 C 0.47557 0.66171 0.08688 0.0
C1084 C 0.47455 0.62766 0.086 0.0
C1085 C 0.5002 0.67671 0.09441 0.0
H1086 H 0.54002 0.60792 0.10418 0.0
H1087 H 0.45611 0.61594 0.07998 0.0
C1088 C 0.51263 0.45286 0.08569 0.0
N1089 N 0.54029 0.39342 0.09242 0.0
C1090 C 0.49727 0.43251 0.09491 0.0
C1091 C 0.54194 0.44288 0.07983 0.0
C1092 C 0.51165 0.40255 0.09818 0.0
C1093 C 0.55559 0.41279 0.08339 0.0
C1094 C 0.49599 0.55512 0.11527 0.0
C1095 C 0.52441 0.55806 0.12285 0.0
C1096 C 0.46884 0.57461 0.1182 0.0
C1097 C 0.52529 0.58073 0.1332 0.0
C1098 C 0.47072 0.59704 0.12861 0.0
N1099 N 0.49867 0.59961 0.13583 0.0
C1100 C 0.59455 0.4992 0.09849 0.0
C1101 C 0.55636 0.47234 0.11238 0.0
C1102 C 0.62044 0.48278 0.10457 0.0
N1103 N 0.56328 0.49326 0.10233 0.0
C1104 C 0.58138 0.45505 0.11861 0.0
C1105 C 0.614 0.45987 0.11464 0.0
H1106 H 0.59936 0.51639 0.0906 0.0
H1107 H 0.53123 0.46845 0.11532 0.0
C1108 C 0.41616 0.46929 0.08857 0.0
N1109 N 0.4297 0.49174 0.09684 0.0
C1110 C 0.39072 0.44935 0.09296 0.0
C1111 C 0.39286 0.47682 0.11414 0.0
C1112 C 0.41831 0.49626 0.10933 0.0
C1113 C 0.37935 0.4524 0.10601 0.0
H1114 H 0.42613 0.46593 0.07875 0.0
H1115 H 0.42995 0.51389 0.11576 0.0
O1116 O 0.53905 0.54815 0.08099 0.0
O1117 O 0.46415 0.54781 0.07699 0.0
O1118 O 0.49927 0.48256 0.08253 0.0
O1119 O 0.49473 0.53323 0.10504 0.0
H1120 H 0.53853 0.60772 0.07059 0.0
H1121 H 0.57965 0.51104 0.06715 0.0
H1122 H 0.57066 0.6247 0.05095 0.0
H1123 H 0.611 0.52971 0.04753 0.0
H1124 H 0.35702 0.56625 0.08625 0.0
H1125 H 0.43873 0.51528 0.05678 0.0
H1126 H 0.41608 0.57323 0.09117 0.0
H1127 H 0.37931 0.50944 0.05243 0.0
H1128 H 0.5053 0.55815 0.025 0.0
H1129 H 0.51291 0.45378 0.03148 0.0
H1130 H 0.54268 0.66797 0.10675 0.0
H1131 H 0.45762 0.67621 0.08162 0.0
H1132 H 0.47473 0.4399 0.09964 0.0
H1133 H 0.55424 0.4584 0.07273 0.0
H1134 H 0.50013 0.38663 0.10535 0.0
H1135 H 0.57838 0.40488 0.07901 0.0
H1136 H 0.54565 0.54318 0.12072 0.0
H1137 H 0.44669 0.57268 0.1124 0.0
H1138 H 0.54717 0.58338 0.13912 0.0
H1139 H 0.44998 0.61243 0.13093 0.0
H1140 H 0.64518 0.48786 0.10136 0.0
H1141 H 0.57503 0.43737 0.12616 0.0
H1142 H 0.38079 0.431 0.08634 0.0
H1143 H 0.38515 0.47966 0.12433 0.0
Li1144 Li 0.98534 0.4805 0.593 0.0
Li1145 Li 0.04496 0.48023 0.59111 0.0
Li1146 Li 0.01019 0.47105 0.57179 0.0
Li1147 Li 0.01549 0.42986 0.5892 0.0
C1148 C 0.00074 0.54045 0.58558 0.0
N1149 N 0.97303 0.59978 0.59242 0.0
C1150 C 0.01594 0.56059 0.59492 0.0
C1151 C 0.97155 0.55059 0.57965 0.0
C1152 C 0.00154 0.5905 0.59824 0.0
C1153 C 0.95788 0.58062 0.58328 0.0
C1154 C 0.0168 0.43849 0.61521 0.0
C1155 C 0.04217 0.39706 0.62876 0.0
N1156 N 0.01404 0.39424 0.63585 0.0
C1157 C 0.98819 0.43532 0.62266 0.0
C1158 C 0.04409 0.41937 0.61831 0.0
C1159 C 0.98728 0.41277 0.63305 0.0
C1160 C 0.9185 0.49464 0.59781 0.0
N1161 N 0.94964 0.50013 0.60193 0.0
C1162 C 0.93112 0.53779 0.61835 0.0
C1163 C 0.95629 0.52058 0.61218 0.0
C1164 C 0.89868 0.53345 0.61408 0.0
C1165 C 0.89249 0.51108 0.6038 0.0
H1166 H 0.9139 0.47783 0.58977 0.0
H1167 H 0.98132 0.52415 0.61531 0.0
C1168 C 0.09795 0.52313 0.5886 0.0
N1169 N 0.0833 0.50173 0.59701 0.0
C1170 C 0.12343 0.54299 0.59303 0.0
C1171 C 0.11874 0.51784 0.61461 0.0
C1172 C 0.09341 0.49835 0.60974 0.0
C1173 C 0.13355 0.54111 0.6063 0.0
H1174 H 0.08892 0.52571 0.5786 0.0
H1175 H 0.08085 0.48161 0.61627 0.0
C1176 C 0.95683 0.43507 0.56995 0.0
N1177 N 0.92205 0.41502 0.54796 0.0
C1178 C 0.95928 0.40277 0.56549 0.0
C1179 C 0.9365 0.45711 0.56329 0.0
C1180 C 0.94151 0.39312 0.55434 0.0
C1181 C 0.9192 0.44652 0.55217 0.0
C1182 C 0.08202 0.44825 0.57442 0.0
C1183 C 0.09267 0.46554 0.56329 0.0
C1184 C 0.10491 0.43397 0.58291 0.0
C1185 C 0.12619 0.4685 0.5609 0.0
C1186 C 0.13821 0.43752 0.58019 0.0
N1187 N 0.14807 0.45458 0.56934 0.0
C1188 C 0.00449 0.50877 0.54851 0.0
C1189 C 0.0089 0.45152 0.54502 0.0
C1190 C 0.00328 0.51433 0.5349 0.0
N1191 N 0.0071 0.47776 0.55326 0.0
C1192 C 0.00737 0.45591 0.53134 0.0
C1193 C 0.0047 0.48767 0.52614 0.0
H1194 H 0.00377 0.52922 0.55528 0.0
H1195 H 0.01183 0.42721 0.54908 0.0
C1196 C 0.99158 0.37026 0.59958 0.0
N1197 N 0.01578 0.38417 0.59227 0.0
C1198 C 0.99 0.3363 0.60094 0.0
C1199 C 0.03772 0.33169 0.58692 0.0
C1200 C 0.03877 0.36574 0.58605 0.0
C1201 C 0.01296 0.31669 0.59436 0.0
H1202 H 0.97299 0.38548 0.60404 0.0
H1203 H 0.0573 0.37746 0.58007 0.0
O1204 O 0.0141 0.51078 0.58237 0.0
O1205 O 0.0181 0.46025 0.60495 0.0
O1206 O 0.97436 0.44513 0.58074 0.0
O1207 O 0.04935 0.44551 0.57705 0.0
H1208 H 0.03841 0.55308 0.59967 0.0
H1209 H 0.95937 0.53523 0.57246 0.0
H1210 H 0.01295 0.60625 0.6055 0.0
H1211 H 0.93517 0.58865 0.57885 0.0
H1212 H 0.06303 0.38196 0.63122 0.0
H1213 H 0.96684 0.44991 0.62039 0.0
H1214 H 0.06639 0.42153 0.61263 0.0
H1215 H 0.96526 0.40994 0.63888 0.0
H1216 H 0.93723 0.55505 0.62609 0.0
H1217 H 0.86786 0.50644 0.60035 0.0
H1218 H 0.13437 0.56036 0.58625 0.0
H1219 H 0.1254 0.51592 0.62495 0.0
H1220 H 0.9749 0.38538 0.5705 0.0
H1221 H 0.93443 0.48223 0.56658 0.0
H1222 H 0.94328 0.36824 0.55074 0.0
H1223 H 0.90357 0.46337 0.54686 0.0
H1224 H 0.07528 0.47681 0.55664 0.0
H1225 H 0.09703 0.42049 0.59155 0.0
H1226 H 0.13481 0.48194 0.55237 0.0
H1227 H 0.15621 0.42675 0.58671 0.0
H1228 H 0.00117 0.53918 0.53125 0.0
H1229 H 0.00906 0.43478 0.52489 0.0
H1230 H 0.97028 0.32543 0.60659 0.0
H1231 H 0.05575 0.31719 0.58169 0.0
Li1232 Li 0.46858 0.48059 0.90442 0.0
Li1233 Li 0.52819 0.48048 0.90263 0.0
Li1234 Li 0.49771 0.42996 0.90622 0.0
Li1235 Li 0.50313 0.47079 0.92376 0.0
C1236 C 0.49654 0.43898 0.88026 0.0
N1237 N 0.49891 0.39495 0.85953 0.0
C1238 C 0.52513 0.43561 0.87281 0.0
C1239 C 0.46907 0.42018 0.87711 0.0
C1240 C 0.52585 0.41317 0.86238 0.0
C1241 C 0.47079 0.39797 0.86662 0.0
C1242 C 0.51318 0.54031 0.91006 0.0
C1243 C 0.55628 0.58022 0.91237 0.0
N1244 N 0.54151 0.59925 0.90308 0.0
C1245 C 0.49837 0.5603 0.90057 0.0
C1246 C 0.54229 0.55039 0.91607 0.0
C1247 C 0.51308 0.59001 0.89718 0.0
C1248 C 0.4156 0.52357 0.90698 0.0
N1249 N 0.43038 0.50237 0.89852 0.0
C1250 C 0.3951 0.51881 0.88092 0.0
C1251 C 0.42043 0.49928 0.88576 0.0
C1252 C 0.38009 0.54181 0.8893 0.0
C1253 C 0.3901 0.54344 0.90258 0.0
H1254 H 0.42451 0.52593 0.91701 0.0
H1255 H 0.43309 0.48271 0.87919 0.0
C1256 C 0.59505 0.49535 0.89825 0.0
N1257 N 0.56407 0.50006 0.8938 0.0
C1258 C 0.62111 0.51192 0.89237 0.0
C1259 C 0.5829 0.53703 0.87719 0.0
C1260 C 0.55766 0.51982 0.88331 0.0
C1261 C 0.61514 0.53352 0.88181 0.0
H1262 H 0.59947 0.47911 0.90649 0.0
H1263 H 0.53274 0.52286 0.87994 0.0
C1264 C 0.43119 0.44851 0.92099 0.0
N1265 N 0.36517 0.45506 0.92609 0.0
C1266 C 0.42061 0.46568 0.93216 0.0
C1267 C 0.40823 0.43445 0.91247 0.0
C1268 C 0.38711 0.46876 0.93456 0.0
C1269 C 0.37495 0.43812 0.9152 0.0
C1270 C 0.55617 0.43442 0.92558 0.0
C1271 C 0.55366 0.40197 0.92986 0.0
C1272 C 0.57631 0.45626 0.93244 0.0
C1273 C 0.57119 0.39197 0.94102 0.0
C1274 C 0.59338 0.44532 0.94357 0.0
N1275 N 0.59048 0.41368 0.94759 0.0
C1276 C 0.52126 0.3703 0.89574 0.0
C1277 C 0.47404 0.36598 0.90927 0.0
C1278 C 0.52273 0.33633 0.8944 0.0
N1279 N 0.49712 0.38431 0.90306 0.0
C1280 C 0.47498 0.33192 0.90842 0.0
C1281 C 0.49971 0.31682 0.90099 0.0
H1282 H 0.53993 0.38544 0.89129 0.0
H1283 H 0.45558 0.37777 0.91526 0.0
C1284 C 0.50958 0.50756 0.94731 0.0
N1285 N 0.50614 0.47688 0.94232 0.0
C1286 C 0.511 0.51244 0.96097 0.0
C1287 C 0.50531 0.45401 0.96406 0.0
C1288 C 0.50365 0.45033 0.95035 0.0
C1289 C 0.50888 0.48543 0.96956 0.0
H1290 H 0.51071 0.52831 0.9407 0.0
H1291 H 0.50032 0.42627 0.94609 0.0
O1292 O 0.49542 0.46064 0.89057 0.0
O1293 O 0.49955 0.5108 0.91332 0.0
O1294 O 0.46385 0.44564 0.91836 0.0
O1295 O 0.53887 0.44481 0.91478 0.0
H1296 H 0.54663 0.44994 0.87513 0.0
H1297 H 0.44676 0.4225 0.88278 0.0
H1298 H 0.54785 0.41018 0.85657 0.0
H1299 H 0.44978 0.38311 0.86412 0.0
H1300 H 0.57893 0.58819 0.91686 0.0
H1301 H 0.47598 0.55283 0.89575 0.0
H1302 H 0.55419 0.53512 0.92336 0.0
H1303 H 0.50197 0.60566 0.8898 0.0
H1304 H 0.38857 0.5171 0.87056 0.0
H1305 H 0.37901 0.56057 0.90942 0.0
H1306 H 0.64562 0.50802 0.8961 0.0
H1307 H 0.57702 0.5537 0.8692 0.0
H1308 H 0.43805 0.47678 0.93885 0.0
H1309 H 0.41605 0.42105 0.90379 0.0
H1310 H 0.37855 0.48212 0.94313 0.0
H1311 H 0.3569 0.42752 0.90865 0.0
H1312 H 0.53819 0.38472 0.9247 0.0
H1313 H 0.57837 0.4815 0.92932 0.0
H1314 H 0.56938 0.36697 0.94447 0.0
H1315 H 0.60885 0.46203 0.94903 0.0
H1316 H 0.54242 0.32538 0.88876 0.0
H1317 H 0.45691 0.3175 0.91366 0.0
H1318 H 0.51303 0.53717 0.96474 0.0
H1319 H 0.50391 0.43243 0.97025 0.0
Li1320 Li 0.01559 0.56273 0.40601 0.0
Li1321 Li 0.01038 0.5219 0.42357 0.0
Li1322 Li 0.04465 0.51203 0.40413 0.0
Li1323 Li 0.985 0.51223 0.40249 0.0
C1324 C 0.08229 0.54426 0.42067 0.0
N1325 N 0.14837 0.53806 0.42573 0.0
C1326 C 0.093 0.52739 0.43189 0.0
C1327 C 0.10515 0.55821 0.41208 0.0
C1328 C 0.12653 0.52448 0.43427 0.0
C1329 C 0.13846 0.55472 0.41479 0.0
C1330 C 0.9574 0.55834 0.42551 0.0
C1331 C 0.9205 0.54748 0.4436 0.0
N1332 N 0.92345 0.57915 0.4476 0.0
C1333 C 0.95997 0.59081 0.42977 0.0
C1334 C 0.93738 0.53652 0.43243 0.0
C1335 C 0.94263 0.60084 0.44097 0.0
C1336 C 0.99197 0.6224 0.39558 0.0
N1337 N 0.0162 0.60837 0.40284 0.0
C1338 C 0.03849 0.66074 0.40813 0.0
C1339 C 0.03939 0.62668 0.40899 0.0
C1340 C 0.01366 0.67587 0.40076 0.0
C1341 C 0.99052 0.65637 0.39423 0.0
H1342 H 0.97321 0.60728 0.39118 0.0
H1343 H 0.05794 0.61488 0.41493 0.0
C1344 C 0.00421 0.48514 0.44714 0.0
N1345 N 0.00762 0.51582 0.44214 0.0
C1346 C 0.00294 0.48027 0.46079 0.0
C1347 C 0.0087 0.5387 0.46387 0.0
C1348 C 0.01021 0.54237 0.45016 0.0
C1349 C 0.00516 0.50728 0.46938 0.0
H1350 H 0.00297 0.46439 0.44052 0.0
H1351 H 0.01351 0.56642 0.4459 0.0
C1352 C 0.01651 0.55365 0.38005 0.0
N1353 N 0.01415 0.59766 0.35932 0.0
C1354 C 0.98782 0.55724 0.37267 0.0
C1355 C 0.04407 0.57223 0.37682 0.0
C1356 C 0.98711 0.57966 0.36224 0.0
C1357 C 0.04236 0.59443 0.36633 0.0
C1358 C 7e-05 0.4524 0.40985 0.0
C1359 C 0.01474 0.43246 0.40031 0.0
C1360 C 0.97103 0.44231 0.4159 0.0
C1361 C -6e-05 0.40279 0.3969 0.0
C1362 C 0.95695 0.41252 0.4122 0.0
N1363 N 0.97158 0.39355 0.40285 0.0
C1364 C 0.09812 0.46953 0.40662 0.0
C1365 C 0.09196 0.49269 0.38526 0.0
C1366 C 0.12361 0.44971 0.40217 0.0
N1367 N 0.08273 0.49019 0.39813 0.0
C1368 C 0.11719 0.47312 0.38035 0.0
C1369 C 0.13291 0.45072 0.38879 0.0
H1370 H 0.08976 0.46758 0.41674 0.0
H1371 H 0.07879 0.5088 0.37866 0.0
C1372 C 0.9181 0.49722 0.39831 0.0
N1373 N 0.94899 0.4927 0.39373 0.0
C1374 C 0.89196 0.48067 0.39246 0.0
C1375 C 0.92992 0.45598 0.37706 0.0
C1376 C 0.95524 0.47314 0.38316 0.0
C1377 C 0.89778 0.45929 0.38182 0.0
H1378 H 0.9138 0.51329 0.40661 0.0
H1379 H 0.9801 0.47024 0.3797 0.0
O1380 O 0.0496 0.54699 0.41807 0.0
O1381 O 0.97453 0.54792 0.41467 0.0
O1382 O 0.01761 0.53202 0.39036 0.0
O1383 O 0.01377 0.48187 0.41311 0.0
H1384 H 0.07564 0.51639 0.43864 0.0
H1385 H 0.09724 0.57139 0.40336 0.0
H1386 H 0.13518 0.51135 0.44288 0.0
H1387 H 0.15644 0.56523 0.40818 0.0
H1388 H 0.90512 0.5308 0.44911 0.0
H1389 H 0.97536 0.60804 0.42456 0.0
H1390 H 0.93529 0.51126 0.42934 0.0
H1391 H 0.94449 0.62585 0.4444 0.0
H1392 H 0.05665 0.67515 0.41332 0.0
H1393 H 0.97075 0.66734 0.38864 0.0
H1394 H 0.00092 0.45554 0.46456 0.0
H1395 H 0.01017 0.56028 0.47006 0.0
H1396 H 0.96625 0.54308 0.37505 0.0
H1397 H 0.06646 0.56972 0.38243 0.0
H1398 H 0.96503 0.58281 0.35648 0.0
H1399 H 0.06344 0.60911 0.36377 0.0
H1400 H 0.03709 0.43994 0.39546 0.0
H1401 H 0.95924 0.45753 0.42325 0.0
H1402 H 0.01094 0.38719 0.38949 0.0
H1403 H 0.93435 0.40454 0.41672 0.0
H1404 H 0.13525 0.43309 0.40906 0.0
H1405 H 0.12311 0.47436 0.36992 0.0
H1406 H 0.86753 0.48438 0.3963 0.0
H1407 H 0.93567 0.43949 0.369 0.0
C1408 C 0.00444 0.22946 0.58258 0.0
C1409 C 0.00281 0.21224 0.59458 0.0
H1410 H 0.00941 0.27618 0.57318 0.0
C1411 C 0.00476 0.22948 0.60657 0.0
H1412 H 0.00325 0.21659 0.57322 0.0
C1413 C 0.00786 0.26358 0.60655 0.0
C1414 C 0.00983 0.28071 0.59453 0.0
H1415 H 0.00353 0.2166 0.61593 0.0
H1416 H 0.00908 0.27654 0.61589 0.0
C1417 C 0.00821 0.26339 0.58256 0.0
C1418 C 0.98935 0.7424 0.85679 0.0
C1419 C 0.97198 0.74414 0.8448 0.0
H1420 H 0.03619 0.74405 0.86629 0.0
C1421 C 0.98937 0.74908 0.83298 0.0
H1422 H 0.97665 0.73842 0.86605 0.0
C1423 C 0.02332 0.75201 0.8331 0.0
C1424 C 0.04076 0.75024 0.84506 0.0
H1425 H 0.97672 0.75102 0.8236 0.0
H1426 H 0.03593 0.75527 0.82377 0.0
C1427 C 0.02343 0.74534 0.85691 0.0
C1428 C 0.505 0.7301 0.08268 0.0
C1429 C 0.50326 0.71269 0.09463 0.0
H1430 H 0.51001 0.77698 0.0734 0.0
C1431 C 0.50506 0.72975 0.10667 0.0
H1432 H 0.50393 0.71738 0.07328 0.0
C1433 C 0.50812 0.76386 0.10674 0.0
C1434 C 0.5102 0.78118 0.09477 0.0
H1435 H 0.50374 0.71673 0.11599 0.0
H1436 H 0.50922 0.77667 0.11612 0.0
C1437 C 0.50873 0.76404 0.08275 0.0
C1438 C 0.52391 0.24035 0.33323 0.0
C1439 C 0.54119 0.24811 0.34483 0.0
H1440 H 0.47741 0.23191 0.32426 0.0
C1441 C 0.52373 0.25271 0.35667 0.0
H1442 H 0.53665 0.23621 0.32399 0.0
C1443 C 0.48965 0.24985 0.35686 0.0
C1444 C 0.47243 0.24211 0.34523 0.0
H1445 H 0.53637 0.25889 0.36575 0.0
H1446 H 0.4768 0.25343 0.36612 0.0
C1447 C 0.48996 0.23743 0.33343 0.0
C1448 C 0.00538 0.76295 0.41274 0.0
C1449 C 0.00348 0.78032 0.40078 0.0
H1450 H 0.01058 0.71612 0.42203 0.0
C1451 C 0.00523 0.76323 0.38875 0.0
H1452 H 0.00435 0.7757 0.42213 0.0
C1453 C 0.00837 0.72914 0.38869 0.0
C1454 C 0.01059 0.71185 0.40066 0.0
H1455 H 0.00378 0.77623 0.37942 0.0
H1456 H 0.00941 0.71629 0.37932 0.0
C1457 C 0.00919 0.72902 0.41268 0.0
C1458 C 0.48929 0.74796 0.63846 0.0
C1459 C 0.47203 0.74957 0.65047 0.0
H1460 H 0.53606 0.74364 0.62904 0.0
C1461 C 0.4895 0.74789 0.66243 0.0
H1462 H 0.47648 0.74936 0.6291 0.0
C1463 C 0.52342 0.74478 0.66239 0.0
C1464 C 0.54075 0.74321 0.65041 0.0
H1465 H 0.4769 0.74859 0.67185 0.0
H1466 H 0.53613 0.74398 0.67179 0.0
C1467 C 0.52336 0.74495 0.63843 0.0
C1468 C 0.50443 0.26367 0.91289 0.0
C1469 C 0.5028 0.28084 0.90088 0.0
H1470 H 0.50943 0.217 0.92233 0.0
C1471 C 0.5048 0.26356 0.8889 0.0
H1472 H 0.50321 0.27658 0.92225 0.0
C1473 C 0.50794 0.22946 0.88895 0.0
C1474 C 0.5099 0.21238 0.90098 0.0
H1475 H 0.50358 0.2764 0.87953 0.0
H1476 H 0.5092 0.21646 0.87962 0.0
C1477 C 0.50823 0.22975 0.91294 0.0
C1478 C 0.02343 0.23927 0.13909 0.0
C1479 C 0.04094 0.24486 0.15085 0.0
H1480 H 0.97644 0.23773 0.1297 0.0
C1481 C 0.02372 0.25357 0.16235 0.0
H1482 H 0.03603 0.23234 0.13009 0.0
C1483 C 0.98977 0.25645 0.16214 0.0
C1484 C 0.97218 0.25077 0.15042 0.0
H1485 H 0.03651 0.25849 0.17152 0.0
H1486 H 0.97726 0.26272 0.17124 0.0
C1487 C 0.98934 0.24209 0.13889 0.0
C1488 C 0.02999 0.01374 0.49009 0.0
C1489 C 0.01013 0.98951 0.4843 0.0
H1490 H 0.04536 0.03744 0.50796 0.0
C1491 C 0.99033 0.97012 0.49256 0.0
H1492 H 0.04596 0.02875 0.48407 0.0
C1493 C 0.99036 0.97486 0.50624 0.0
C1494 C 0.00993 -0.00071 0.51197 0.0
H1495 H 0.97425 0.95168 0.48845 0.0
H1496 H 0.9745 0.95986 0.51232 0.0
C1497 C 0.02976 0.01868 0.50377 0.0
C1498 C 0.25502 0.77898 0.75475 0.0
C1499 C 0.25257 0.74936 0.76176 0.0
H1500 H 0.26111 0.80222 0.73596 0.0
C1501 C 0.25399 0.71971 0.75472 0.0
H1502 H 0.25361 0.80227 0.75984 0.0
C1503 C 0.25778 0.71969 0.74098 0.0
C1504 C 0.26026 0.74933 0.73397 0.0
H1505 H 0.25249 0.69646 0.75984 0.0
H1506 H 0.25845 0.69644 0.73584 0.0
C1507 C 0.25887 0.77896 0.74102 0.0
C1508 C 0.52429 0.97132 0.00333 0.0
C1509 C 0.50435 0.99055 0.0116 0.0
H1510 H 0.54001 0.96106 0.98356 0.0
C1511 C 0.48418 0.01452 0.00582 0.0
H1512 H 0.5406 0.95308 0.00744 0.0
C1513 C 0.48423 0.01935 0.99213 0.0
C1514 C 0.50416 0.0001 0.98392 0.0
H1515 H 0.4681 0.02939 0.01184 0.0
H1516 H 0.46838 0.03791 0.98794 0.0
C1517 C 0.52406 0.97594 0.98965 0.0
C1518 C 0.25096 0.21396 0.24088 0.0
C1519 C 0.25465 0.24309 0.23361 0.0
H1520 H 0.25236 0.19087 0.25984 0.0
C1521 C 0.26251 0.27208 0.24041 0.0
H1522 H 0.24452 0.19126 0.23599 0.0
C1523 C 0.26643 0.27197 0.25415 0.0
C1524 C 0.26267 0.24285 0.2614 0.0
H1525 H 0.26589 0.29488 0.23511 0.0
H1526 H 0.27203 0.29482 0.25909 0.0
C1527 C 0.255 0.21383 0.25459 0.0
C1528 C 0.76677 0.2204 0.24163 0.0
C1529 C 0.76299 0.24953 0.23438 0.0
H1530 H 0.76631 0.19752 0.26068 0.0
C1531 C 0.75543 0.27857 0.24119 0.0
H1532 H 0.77229 0.19755 0.23668 0.0
C1533 C 0.75154 0.27847 0.25491 0.0
C1534 C 0.75523 0.24934 0.26217 0.0
H1535 H 0.75278 0.30152 0.23593 0.0
H1536 H 0.7452 0.30119 0.2598 0.0
C1537 C 0.76296 0.22032 0.25537 0.0
C1538 C 0.75564 0.71334 0.74091 0.0
C1539 C 0.75133 0.74285 0.73397 0.0
H1540 H 0.76343 0.69022 0.75961 0.0
C1541 C 0.75087 0.77241 0.7411 0.0
H1542 H 0.75566 0.69007 0.73577 0.0
C1543 C 0.75464 0.77243 0.75484 0.0
C1544 C 0.75912 0.74292 0.76178 0.0
H1545 H 0.74795 0.79562 0.73607 0.0
H1546 H 0.75376 0.79561 0.76004 0.0
C1547 C 0.7596 0.71338 0.75463 0.0
C1548 C 0.52985 0.51409 0.9899 0.0
C1549 C 0.50963 0.49011 0.98415 0.0
H1550 H 0.54575 0.53757 0.00775 0.0
C1551 C 0.48974 0.47092 0.99245 0.0
H1552 H 0.5459 0.52894 0.98385 0.0
C1553 C 0.49004 0.47561 0.00613 0.0
C1554 C 0.50997 0.49979 0.01183 0.0
H1555 H 0.47339 0.45267 0.98837 0.0
H1556 H 0.4741 0.46077 0.01225 0.0
C1557 C 0.52988 0.51899 0.00359 0.0
C1558 C 0.02419 0.51721 0.50594 0.0
C1559 C 0.00428 0.49304 0.51166 0.0
H1560 H 0.04075 0.54008 0.48816 0.0
C1561 C 0.98436 0.47379 0.50344 0.0
H1562 H 0.04013 0.53208 0.51204 0.0
C1563 C 0.98434 0.47864 0.48975 0.0
C1564 C 0.00451 0.50261 0.48398 0.0
H1565 H 0.96851 0.45522 0.50762 0.0
H1566 H 0.96826 0.46377 0.48372 0.0
C1567 C 0.02443 0.52184 0.49225 0.0
C1568 C 0.19018 0.90655 0.61748 0.0
C1569 C 0.18914 0.89728 0.63087 0.0
H1570 H 0.1673 0.93294 0.60176 0.0
C1571 C 0.1646 0.91059 0.63901 0.0
H1572 H 0.20901 0.8972 0.61097 0.0
C1573 C 0.1411 0.93175 0.6338 0.0
C1574 C 0.14132 0.9399 0.62028 0.0
H1575 H 0.16277 0.90379 0.64934 0.0
H1576 H 0.12244 0.94132 0.64034 0.0
C1577 C 0.16648 0.92746 0.61223 0.0
C1578 C 0.34884 0.91041 0.85684 0.0
C1579 C 0.32407 0.89738 0.86493 0.0
H1580 H 0.39119 0.94088 0.85557 0.0
C1581 C 0.32286 0.90683 0.8783 0.0
H1582 H 0.35084 0.90347 0.84653 0.0
C1583 C 0.34662 0.92764 0.88358 0.0
C1584 C 0.37199 0.93983 0.87558 0.0
H1585 H 0.30384 0.89771 0.88478 0.0
H1586 H 0.34565 0.93325 0.89404 0.0
C1587 C 0.37238 0.93151 0.86208 0.0
C1588 C 0.34736 0.06868 0.11119 0.0
C1589 C 0.37076 0.054 0.11948 0.0
H1590 H 0.30645 0.1011 0.10972 0.0
C1591 C 0.36935 0.06009 0.13316 0.0
H1592 H 0.34788 0.06476 0.10059 0.0
C1593 C 0.3459 0.08135 0.13836 0.0
C1594 C 0.32323 0.09693 0.13001 0.0
H1595 H 0.38673 0.04882 0.13984 0.0
H1596 H 0.34635 0.08648 0.14887 0.0
C1597 C 0.32383 0.08983 0.1164 0.0
C1598 C 0.16727 0.06403 0.3832 0.0
C1599 C 0.14096 0.05302 0.37541 0.0
H1600 H 0.21086 0.09278 0.38417 0.0
C1601 C 0.13968 0.06237 0.36203 0.0
H1602 H 0.16899 0.05762 0.39357 0.0
C1603 C 0.16322 0.08336 0.35674 0.0
C1604 C 0.18898 0.09519 0.36462 0.0
H1605 H 0.12017 0.05389 0.35565 0.0
H1606 H 0.16046 0.09114 0.34656 0.0
C1607 C 0.19108 0.08467 0.37785 0.0
C1608 C 0.86032 0.09852 0.38729 0.0
C1609 C 0.85613 0.06508 0.38448 0.0
H1610 H 0.84488 0.14758 0.3834 0.0
C1611 C 0.83112 0.05555 0.37574 0.0
H1612 H 0.87961 0.10672 0.39384 0.0
C1613 C 0.81129 0.0791 0.36967 0.0
C1614 C 0.81637 0.11257 0.37214 0.0
H1615 H 0.82719 0.02994 0.37346 0.0
H1616 H 0.79275 0.0712 0.36271 0.0
C1617 C 0.8407 0.12197 0.38119 0.0
C1618 C 0.65565 0.09898 0.10789 0.0
C1619 C 0.65644 0.06629 0.11223 0.0
H1620 H 0.67427 0.14751 0.11019 0.0
C1621 C 0.67856 0.05753 0.12229 0.0
H1622 H 0.63867 0.10676 0.1003 0.0
C1623 C 0.69865 0.08116 0.12815 0.0
C1624 C 0.697 0.11404 0.12408 0.0
H1625 H 0.68004 0.03249 0.12576 0.0
H1626 H 0.71468 0.07386 0.13615 0.0
C1627 C 0.67575 0.12251 0.11371 0.0
C1628 C 0.67274 0.87085 0.88079 0.0
C1629 C 0.69676 0.88018 0.8716 0.0
H1630 H 0.63406 0.88614 0.89354 0.0
C1631 C 0.70155 0.91362 0.86898 0.0
H1632 H 0.66879 0.84527 0.88313 0.0
C1633 C 0.68173 0.93719 0.87504 0.0
C1634 C 0.65702 0.92772 0.88392 0.0
H1635 H 0.71985 0.92148 0.86191 0.0
H1636 H 0.68545 0.96277 0.87265 0.0
C1637 C 0.65311 0.89432 0.88688 0.0
C1638 C 0.8127 0.91292 0.62736 0.0
C1639 C 0.81607 0.87968 0.62403 0.0
H1640 H 0.8299 0.96192 0.62433 0.0
C1641 C 0.8388 0.87074 0.61426 0.0
H1642 H 0.79545 0.92053 0.63489 0.0
C1643 C 0.85861 0.89428 0.60831 0.0
C1644 C 0.85612 0.92741 0.61194 0.0
H1645 H 0.84163 0.84538 0.61133 0.0
H1646 H 0.87671 0.88627 0.60118 0.0
C1647 C 0.8326 0.93656 0.6214 0.0
C1648 C 0.66302 0.40962 0.13924 0.0
C1649 C 0.68872 0.39772 0.13134 0.0
H1650 H 0.62009 0.43924 0.14037 0.0
C1651 C 0.6908 0.40827 0.11811 0.0
H1652 H 0.66027 0.40183 0.14942 0.0
C1653 C 0.66703 0.42899 0.11279 0.0
C1654 C 0.64079 0.44009 0.12059 0.0
H1655 H 0.71053 0.40011 0.11178 0.0
H1656 H 0.66873 0.4354 0.10241 0.0
C1657 C 0.63954 0.43071 0.13397 0.0
C1658 C 0.82371 0.40385 0.37918 0.0
C1659 C 0.8233 0.39644 0.36559 0.0
H1660 H 0.84766 0.42911 0.39496 0.0
C1661 C 0.84619 0.4117 0.35725 0.0
H1662 H 0.80615 0.39284 0.38585 0.0
C1663 C 0.86968 0.43295 0.36244 0.0
C1664 C 0.87091 0.43932 0.3761 0.0
H1665 H 0.84679 0.40634 0.34676 0.0
H1666 H 0.88722 0.44397 0.35576 0.0
C1667 C 0.84728 0.42498 0.38437 0.0
C1668 C 0.87217 0.5615 0.63345 0.0
C1669 C 0.87181 0.55324 0.61995 0.0
H1670 H 0.8506 0.58949 0.64901 0.0
C1671 C 0.84647 0.56547 0.61194 0.0
H1672 H 0.89096 0.55209 0.63997 0.0
C1673 C 0.82271 0.58629 0.61722 0.0
C1674 C 0.82389 0.59567 0.6306 0.0
H1675 H 0.84552 0.5599 0.60148 0.0
H1676 H 0.80373 0.59545 0.61074 0.0
C1677 C 0.84863 0.58259 0.6387 0.0
C1678 C 0.6896 0.58843 0.87902 0.0
C1679 C 0.68961 0.59623 0.86547 0.0
H1680 H 0.66596 0.56296 0.89481 0.0
C1681 C 0.66626 0.58143 0.85719 0.0
H1682 H 0.70751 0.59905 0.88564 0.0
C1683 C 0.64278 0.56023 0.86241 0.0
C1684 C 0.64196 0.55347 0.87604 0.0
H1685 H 0.66531 0.5871 0.84673 0.0
H1686 H 0.62493 0.54954 0.85577 0.0
C1687 C 0.66601 0.56738 0.88425 0.0
C1688 C 0.33323 0.5569 0.87432 0.0
C1689 C 0.35647 0.56599 0.8839 0.0
H1690 H 0.29621 0.57294 0.86078 0.0
C1691 C 0.35852 0.59903 0.88772 0.0
H1692 H 0.33084 0.5316 0.87126 0.0
C1693 C 0.33857 0.62254 0.88182 0.0
C1694 C 0.31614 0.61368 0.87192 0.0
H1695 H 0.3764 0.60701 0.89494 0.0
H1696 H 0.34106 0.64783 0.8849 0.0
C1697 C 0.3132 0.58051 0.86841 0.0
C1698 C 0.15443 0.5985 0.60816 0.0
C1699 C 0.15699 0.56536 0.61176 0.0
H1700 H 0.17131 0.64742 0.61124 0.0
C1701 C 0.18054 0.55619 0.6212 0.0
H1702 H 0.1363 0.60651 0.60105 0.0
C1703 C 0.20042 0.57983 0.62718 0.0
C1704 C 0.19697 0.61308 0.62388 0.0
H1705 H 0.18329 0.53081 0.6241 0.0
H1706 H 0.21771 0.57221 0.6347 0.0
C1707 C 0.1742 0.62204 0.61413 0.0
C1708 C 0.17891 0.43536 0.37341 0.0
C1709 C 0.15661 0.42657 0.3834 0.0
H1710 H 0.21516 0.41904 0.3596 0.0
C1711 C 0.15561 0.39383 0.38767 0.0
H1712 H 0.18054 0.46044 0.37 0.0
C1713 C 0.17567 0.37028 0.38185 0.0
C1714 C 0.19711 0.37879 0.37154 0.0
H1715 H 0.13849 0.38603 0.39521 0.0
H1716 H 0.17402 0.34524 0.38531 0.0
C1717 C 0.19898 0.41172 0.36755 0.0
C1718 C 0.36055 0.39464 0.10888 0.0
C1719 C 0.35612 0.42811 0.11155 0.0
H1720 H 0.3453 0.34558 0.1129 0.0
C1721 C 0.33092 0.43771 0.12019 0.0
H1722 H 0.38 0.38639 0.10241 0.0
C1723 C 0.31109 0.41419 0.12627 0.0
C1724 C 0.31639 0.38069 0.12394 0.0
H1725 H 0.32682 0.46335 0.12236 0.0
H1726 H 0.29237 0.42214 0.13314 0.0
C1727 C 0.34094 0.37122 0.11501 0.0
loop_
_geom_bond_atom_site_label_1
_geom_bond_atom_site_label_2
_geom_bond_distance
_geom_bond_site_symmetry_2
_ccdc_geom_bond_type
Li0 N17 1.990 . S
Li0 O60 1.956 . S
Li0 O61 1.970 1_455 S
Li0 O62 1.961 1_545 S
Li1 N25 1.990 . S
Li1 O60 1.970 . S
Li1 O61 1.956 1_455 S
Li1 O63 1.961 . S
Li2 N47 1.976 1_545 S
Li2 O60 1.961 . S
Li2 O62 1.956 1_545 S
Li2 O63 1.970 . S
Li3 N53 1.990 . S
Li3 O61 1.961 . S
Li3 O62 1.970 1_645 S
Li3 O63 1.956 1_655 S
C4 C6 1.348 . S
C4 C7 1.356 . S
C4 O60 1.325 . S
N5 C8 1.314 . S
N5 C9 1.279 . S
C6 C4 1.348 . S
C6 C8 1.353 . S
C6 H64 0.929 . S
C7 C4 1.356 . S
C7 C9 1.358 . S
C7 H65 0.930 . S
C8 N5 1.314 . S
C8 C6 1.353 . S
C8 H66 0.930 . S
C9 N5 1.279 . S
C9 C7 1.358 . S
C9 H67 0.930 . S
C10 C13 1.348 . S
C10 C14 1.356 . S
C10 O61 1.325 . S
C11 N12 1.279 . S
C11 C14 1.358 . S
C11 H68 0.930 . S
N12 C11 1.279 . S
N12 C15 1.314 . S
C13 C10 1.348 . S
C13 C15 1.353 . S
C13 H69 0.929 . S
C14 C10 1.356 . S
C14 C11 1.358 . S
C14 H70 0.930 . S
C15 N12 1.314 . S
C15 C13 1.353 . S
C15 H71 0.930 . S
C16 N17 1.314 1_655 S
C16 C21 1.348 1_545 S
C16 H22 0.930 1_545 S
N17 Li0 1.990 . S
N17 C16 1.314 1_455 S
N17 C19 1.279 . S
C18 C19 1.358 . S
C18 C20 1.356 . S
C18 H72 0.930 . S
C19 N17 1.279 . S
C19 C18 1.358 . S
C19 H23 0.930 . S
C20 C18 1.356 . S
C20 C21 1.330 1_445 S
C21 C16 1.348 1_565 S
C21 C20 1.330 1_665 S
C21 H73 0.953 . S
H22 C16 0.930 1_565 S
H23 C19 0.930 . S
C24 N25 1.314 . S
C24 C26 1.353 . S
C24 H30 0.930 . S
N25 Li1 1.990 . S
N25 C24 1.314 . S
N25 C28 1.279 1_455 S
C26 C24 1.353 . S
C26 C29 1.348 . S
C26 H74 0.929 . S
C27 C28 1.358 . S
C27 C29 1.356 1_655 S
C27 H75 0.930 . S
C28 N25 1.279 1_655 S
C28 C27 1.358 . S
C28 H31 0.930 . S
C29 C26 1.348 . S
C29 C27 1.356 1_455 S
H30 C24 0.930 . S
H31 C28 0.930 . S
C32 C34 1.348 1_455 S
C32 C35 1.356 . S
C32 O62 1.325 . S
N33 C36 1.314 1_455 S
N33 C37 1.279 . S
C34 C32 1.348 1_655 S
C34 C36 1.353 . S
C34 H76 0.929 . S
C35 C32 1.356 . S
C35 C37 1.358 . S
C35 H77 0.930 . S
C36 N33 1.314 1_655 S
C36 C34 1.353 . S
C36 H78 0.930 . S
C37 N33 1.279 . S
C37 C35 1.358 . S
C37 H79 0.930 . S
C38 C39 1.348 . S
C38 C40 1.356 1_455 S
C38 O63 1.325 . S
C39 C38 1.348 . S
C39 C41 1.353 . S
C39 H80 0.929 . S
C40 C38 1.356 1_655 S
C40 C42 1.358 . S
C40 H81 0.930 . S
C41 C39 1.353 . S
C41 N43 1.314 . S
C41 H82 0.930 . S
C42 C40 1.358 . S
C42 N43 1.279 1_655 S
C42 H83 0.930 . S
N43 C41 1.314 . S
N43 C42 1.279 1_455 S
C44 C46 1.353 . S
C44 N47 1.298 1_545 S
C44 H50 0.930 . S
C45 N47 1.311 . S
C45 C48 1.358 . S
C45 H51 0.930 . S
C46 C44 1.353 . S
C46 C49 1.348 1_545 S
C46 H84 0.929 . S
N47 Li2 1.976 1_565 S
N47 C44 1.298 1_565 S
N47 C45 1.311 . S
C48 C45 1.358 . S
C48 C49 1.356 . S
C48 H85 0.930 . S
C49 C46 1.348 1_565 S
C49 C48 1.356 . S
H50 C44 0.930 . S
H51 C45 0.930 . S
C52 N53 1.314 1_565 S
C52 C54 1.353 . S
C52 H58 0.934 . S
N53 Li3 1.990 . S
N53 C52 1.314 1_545 S
N53 C56 1.279 1_545 S
C54 C52 1.353 . S
C54 C57 1.348 . S
C54 H86 0.929 . S
C55 C56 1.358 . S
C55 C57 1.356 . S
C55 H87 0.930 . S
C56 N53 1.279 1_565 S
C56 C55 1.358 . S
C56 H59 0.930 1_565 S
C57 C54 1.348 . S
C57 C55 1.356 . S
H58 C52 0.934 . S
H59 C56 0.930 1_545 S
O60 Li0 1.956 . S
O60 Li1 1.970 . S
O60 Li2 1.961 . S
O60 C4 1.325 . S
O61 Li0 1.970 1_655 S
O61 Li1 1.956 1_655 S
O61 Li3 1.961 . S
O61 C10 1.325 . S
O62 Li0 1.961 1_565 S
O62 Li2 1.956 1_565 S
O62 Li3 1.970 1_465 S
O62 C32 1.325 . S
O63 Li1 1.961 . S
O63 Li2 1.970 . S
O63 Li3 1.956 1_455 S
O63 C38 1.325 . S
H64 C6 0.929 . S
H65 C7 0.930 . S
H66 C8 0.930 . S
H67 C9 0.930 . S
H68 C11 0.930 . S
H69 C13 0.929 . S
H70 C14 0.930 . S
H71 C15 0.930 . S
H72 C18 0.930 . S
H73 C21 0.953 . S
H74 C26 0.929 . S
H75 C27 0.930 . S
H76 C34 0.929 . S
H77 C35 0.930 . S
H78 C36 0.930 . S
H79 C37 0.930 . S
H80 C39 0.929 . S
H81 C40 0.930 . S
H82 C41 0.930 . S
H83 C42 0.930 . S
H84 C46 0.929 . S
H85 C48 0.930 . S
H86 C54 0.929 . S
H87 C55 0.930 . S
Li88 N105 1.990 . S
Li88 O148 1.956 . S
Li88 O149 1.970 . S
Li88 O150 1.961 . S
Li89 N113 1.990 . S
Li89 O148 1.970 . S
Li89 O149 1.956 . S
Li89 O151 1.961 . S
Li90 N135 1.990 . S
Li90 O148 1.961 . S
Li90 O150 1.956 . S
Li90 O151 1.970 . S
Li91 N141 1.990 . S
Li91 O149 1.961 . S
Li91 O150 1.970 . S
Li91 O151 1.956 . S
C92 C94 1.348 . S
C92 C95 1.356 . S
C92 O148 1.325 . S
N93 C96 1.314 . S
N93 C97 1.279 . S
C94 C92 1.348 . S
C94 C96 1.353 . S
C94 H152 0.929 . S
C95 C92 1.356 . S
C95 C97 1.358 . S
C95 H153 0.930 . S
C96 N93 1.314 . S
C96 C94 1.353 . S
C96 H154 0.930 . S
C97 N93 1.279 . S
C97 C95 1.358 . S
C97 H155 0.930 . S
C98 C101 1.348 . S
C98 C102 1.356 . S
C98 O149 1.325 . S
C99 N100 1.279 . S
C99 C102 1.358 . S
C99 H156 0.930 . S
N100 C99 1.279 . S
N100 C103 1.314 . S
C101 C98 1.348 . S
C101 C103 1.353 . S
C101 H157 0.929 . S
C102 C98 1.356 . S
C102 C99 1.358 . S
C102 H158 0.930 . S
C103 N100 1.314 . S
C103 C101 1.353 . S
C103 H159 0.930 . S
C104 N105 1.314 . S
C104 C109 1.353 . S
C104 H110 0.930 . S
N105 Li88 1.990 . S
N105 C104 1.314 . S
N105 C107 1.279 . S
C106 C107 1.358 . S
C106 C108 1.356 . S
C106 H160 0.930 . S
C107 N105 1.279 . S
C107 C106 1.358 . S
C107 H111 0.930 . S
C108 C106 1.356 . S
C108 C109 1.348 . S
C109 C104 1.353 . S
C109 C108 1.348 . S
C109 H161 0.929 . S
H110 C104 0.930 . S
H111 C107 0.930 . S
C112 N113 1.314 . S
C112 C114 1.353 . S
C112 H118 0.930 . S
N113 Li89 1.990 . S
N113 C112 1.314 . S
N113 C116 1.279 . S
C114 C112 1.353 . S
C114 C117 1.348 . S
C114 H162 0.929 . S
C115 C116 1.358 . S
C115 C117 1.356 . S
C115 H163 0.930 . S
C116 N113 1.279 . S
C116 C115 1.358 . S
C116 H119 0.930 . S
C117 C114 1.348 . S
C117 C115 1.356 . S
H118 C112 0.930 . S
H119 C116 0.930 . S
C120 C122 1.348 . S
C120 C123 1.356 . S
C120 O150 1.325 . S
N121 C124 1.314 . S
N121 C125 1.279 . S
C122 C120 1.348 . S
C122 C124 1.353 . S
C122 H164 0.929 . S
C123 C120 1.356 . S
C123 C125 1.358 . S
C123 H165 0.930 . S
C124 N121 1.314 . S
C124 C122 1.353 . S
C124 H166 0.930 . S
C125 N121 1.279 . S
C125 C123 1.358 . S
C125 H167 0.930 . S
C126 C127 1.348 . S
C126 C128 1.356 . S
C126 O151 1.325 . S
C127 C126 1.348 . S
C127 C129 1.353 . S
C127 H168 0.929 . S
C128 C126 1.356 . S
C128 C130 1.358 . S
C128 H169 0.930 . S
C129 C127 1.353 . S
C129 N131 1.314 . S
C129 H170 0.930 . S
C130 C128 1.358 . S
C130 N131 1.279 . S
C130 H171 0.930 . S
N131 C129 1.314 . S
N131 C130 1.279 . S
C132 C134 1.353 . S
C132 N135 1.314 . S
C132 H138 0.930 . S
C133 N135 1.279 . S
C133 C136 1.358 . S
C133 H139 0.930 . S
C134 C132 1.353 . S
C134 C137 1.348 . S
C134 H172 0.929 . S
N135 Li90 1.990 . S
N135 C132 1.314 . S
N135 C133 1.279 . S
C136 C133 1.358 . S
C136 C137 1.356 . S
C136 H173 0.930 . S
C137 C134 1.348 . S
C137 C136 1.356 . S
H138 C132 0.930 . S
H139 C133 0.930 . S
C140 N141 1.314 . S
C140 C142 1.353 . S
C140 H146 0.930 . S
N141 Li91 1.990 . S
N141 C140 1.314 . S
N141 C144 1.279 . S
C142 C140 1.353 . S
C142 C145 1.348 . S
C142 H174 0.929 . S
C143 C144 1.358 . S
C143 C145 1.356 . S
C143 H175 0.930 . S
C144 N141 1.279 . S
C144 C143 1.358 . S
C144 H147 0.930 . S
C145 C142 1.348 . S
C145 C143 1.356 . S
H146 C140 0.930 . S
H147 C144 0.930 . S
O148 Li88 1.956 . S
O148 Li89 1.970 . S
O148 Li90 1.961 . S
O148 C92 1.325 . S
O149 Li88 1.970 . S
O149 Li89 1.956 . S
O149 Li91 1.961 . S
O149 C98 1.325 . S
O150 Li88 1.961 . S
O150 Li90 1.956 . S
O150 Li91 1.970 . S
O150 C120 1.325 . S
O151 Li89 1.961 . S
O151 Li90 1.970 . S
O151 Li91 1.956 . S
O151 C126 1.325 . S
H152 C94 0.929 . S
H153 C95 0.930 . S
H154 C96 0.930 . S
H155 C97 0.930 . S
H156 C99 0.930 . S
H157 C101 0.929 . S
H158 C102 0.930 . S
H159 C103 0.930 . S
H160 C106 0.930 . S
H161 C109 0.929 . S
H162 C114 0.929 . S
H163 C115 0.930 . S
H164 C122 0.929 . S
H165 C123 0.930 . S
H166 C124 0.930 . S
H167 C125 0.930 . S
H168 C127 0.929 . S
H169 C128 0.930 . S
H170 C129 0.930 . S
H171 C130 0.930 . S
H172 C134 0.929 . S
H173 C136 0.930 . S
H174 C142 0.929 . S
H175 C143 0.930 . S
Li176 N193 1.990 . S
Li176 O236 1.956 . S
Li176 O237 1.970 1_565 S
Li176 O238 1.961 . S
Li177 N201 1.977 1_565 S
Li177 O236 1.970 . S
Li177 O237 1.956 1_565 S
Li177 O239 1.961 . S
Li178 N223 1.990 . S
Li178 O236 1.961 . S
Li178 O238 1.956 . S
Li178 O239 1.970 . S
Li179 N229 1.990 . S
Li179 O237 1.961 1_565 S
Li179 O238 1.970 . S
Li179 O239 1.956 . S
C180 C182 1.348 . S
C180 C183 1.356 . S
C180 O236 1.325 . S
N181 C184 1.314 . S
N181 C185 1.279 . S
C182 C180 1.348 . S
C182 C184 1.353 . S
C182 H240 0.929 . S
C183 C180 1.356 . S
C183 C185 1.358 . S
C183 H241 0.930 . S
C184 N181 1.314 . S
C184 C182 1.353 . S
C184 H242 0.930 . S
C185 N181 1.279 . S
C185 C183 1.358 . S
C185 H243 0.930 . S
C186 C189 1.348 . S
C186 C190 1.356 . S
C186 O237 1.325 . S
C187 N188 1.279 . S
C187 C190 1.358 . S
C187 H244 0.930 . S
N188 C187 1.279 . S
N188 C191 1.314 . S
C189 C186 1.348 . S
C189 C191 1.353 . S
C189 H245 0.929 . S
C190 C186 1.356 . S
C190 C187 1.358 . S
C190 H246 0.930 . S
C191 N188 1.314 . S
C191 C189 1.353 . S
C191 H247 0.930 . S
C192 N193 1.314 1_545 S
C192 C197 1.353 . S
C192 H198 0.933 . S
N193 Li176 1.990 . S
N193 C192 1.314 1_565 S
N193 C195 1.279 1_565 S
C194 C195 1.358 . S
C194 C196 1.356 . S
C194 H248 0.930 . S
C195 N193 1.279 1_545 S
C195 C194 1.358 . S
C195 H199 0.930 1_545 S
C196 C194 1.356 . S
C196 C197 1.348 . S
C197 C192 1.353 . S
C197 C196 1.348 . S
C197 H249 0.929 . S
H198 C192 0.933 . S
H199 C195 0.930 1_565 S
C200 N201 1.298 1_565 S
C200 C202 1.353 . S
C200 H206 0.930 . S
N201 Li177 1.977 1_545 S
N201 C200 1.298 1_545 S
N201 C204 1.310 . S
C202 C200 1.353 . S
C202 C205 1.348 1_565 S
C202 H250 0.929 . S
C203 C204 1.358 . S
C203 C205 1.356 . S
C203 H251 0.930 . S
C204 N201 1.310 . S
C204 C203 1.358 . S
C204 H207 0.930 . S
C205 C202 1.348 1_545 S
C205 C203 1.356 . S
H206 C200 0.930 . S
H207 C204 0.930 . S
C208 C210 1.348 . S
C208 C211 1.356 . S
C208 O238 1.325 . S
N209 C212 1.314 . S
N209 C213 1.279 . S
C210 C208 1.348 . S
C210 C212 1.353 . S
C210 H252 0.929 . S
C211 C208 1.356 . S
C211 C213 1.358 . S
C211 H253 0.930 . S
C212 N209 1.314 . S
C212 C210 1.353 . S
C212 H254 0.930 . S
C213 N209 1.279 . S
C213 C211 1.358 . S
C213 H255 0.930 . S
C214 C215 1.348 . S
C214 C216 1.356 . S
C214 O239 1.325 . S
C215 C214 1.348 . S
C215 C217 1.353 . S
C215 H256 0.929 . S
C216 C214 1.356 . S
C216 C218 1.358 . S
C216 H257 0.930 . S
C217 C215 1.353 . S
C217 N219 1.314 . S
C217 H258 0.930 . S
C218 C216 1.358 . S
C218 N219 1.279 . S
C218 H259 0.930 . S
N219 C217 1.314 . S
N219 C218 1.279 . S
C220 C222 1.353 . S
C220 N223 1.314 . S
C220 H226 0.930 . S
C221 N223 1.279 . S
C221 C224 1.358 . S
C221 H227 0.930 . S
C222 C220 1.353 . S
C222 C225 1.348 . S
C222 H260 0.929 . S
N223 Li178 1.990 . S
N223 C220 1.314 . S
N223 C221 1.279 . S
C224 C221 1.358 . S
C224 C225 1.356 . S
C224 H261 0.930 . S
C225 C222 1.348 . S
C225 C224 1.356 . S
H226 C220 0.930 . S
H227 C221 0.930 . S
C228 N229 1.314 . S
C228 C230 1.348 1_565 S
C228 H234 0.930 1_565 S
N229 Li179 1.990 . S
N229 C228 1.314 . S
N229 C232 1.279 . S
C230 C228 1.348 1_545 S
C230 C233 1.330 1_545 S
C230 H262 0.952 . S
C231 C232 1.358 . S
C231 C233 1.356 . S
C231 H263 0.930 . S
C232 N229 1.279 . S
C232 C231 1.358 . S
C232 H235 0.930 . S
C233 C230 1.330 1_565 S
C233 C231 1.356 . S
H234 C228 0.930 1_545 S
H235 C232 0.930 . S
O236 Li176 1.956 . S
O236 Li177 1.970 . S
O236 Li178 1.961 . S
O236 C180 1.325 . S
O237 Li176 1.970 1_545 S
O237 Li177 1.956 1_545 S
O237 Li179 1.961 1_545 S
O237 C186 1.325 . S
O238 Li176 1.961 . S
O238 Li178 1.956 . S
O238 Li179 1.970 . S
O238 C208 1.325 . S
O239 Li177 1.961 . S
O239 Li178 1.970 . S
O239 Li179 1.956 . S
O239 C214 1.325 . S
H240 C182 0.929 . S
H241 C183 0.930 . S
H242 C184 0.930 . S
H243 C185 0.930 . S
H244 C187 0.930 . S
H245 C189 0.929 . S
H246 C190 0.930 . S
H247 C191 0.930 . S
H248 C194 0.930 . S
H249 C197 0.929 . S
H250 C202 0.929 . S
H251 C203 0.930 . S
H252 C210 0.929 . S
H253 C211 0.930 . S
H254 C212 0.930 . S
H255 C213 0.930 . S
H256 C215 0.929 . S
H257 C216 0.930 . S
H258 C217 0.930 . S
H259 C218 0.930 . S
H260 C222 0.929 . S
H261 C224 0.930 . S
H262 C230 0.952 . S
H263 C231 0.930 . S
Li264 N281 1.990 . S
Li264 O324 1.956 . S
Li264 O325 1.970 . S
Li264 O326 1.961 . S
Li265 N289 1.990 . S
Li265 O324 1.970 . S
Li265 O325 1.956 . S
Li265 O327 1.961 . S
Li266 N311 1.990 . S
Li266 O324 1.961 . S
Li266 O326 1.956 . S
Li266 O327 1.970 . S
Li267 N317 1.990 . S
Li267 O325 1.961 . S
Li267 O326 1.970 . S
Li267 O327 1.956 . S
C268 C270 1.348 . S
C268 C271 1.356 . S
C268 O324 1.325 . S
N269 C272 1.314 . S
N269 C273 1.279 . S
C270 C268 1.348 . S
C270 C272 1.353 . S
C270 H328 0.929 . S
C271 C268 1.356 . S
C271 C273 1.358 . S
C271 H329 0.930 . S
C272 N269 1.314 . S
C272 C270 1.353 . S
C272 H330 0.930 . S
C273 N269 1.279 . S
C273 C271 1.358 . S
C273 H331 0.930 . S
C274 C277 1.348 . S
C274 C278 1.356 . S
C274 O325 1.325 . S
C275 N276 1.279 . S
C275 C278 1.358 . S
C275 H332 0.930 . S
N276 C275 1.279 . S
N276 C279 1.314 . S
C277 C274 1.348 . S
C277 C279 1.353 . S
C277 H333 0.929 . S
C278 C274 1.356 . S
C278 C275 1.358 . S
C278 H334 0.930 . S
C279 N276 1.314 . S
C279 C277 1.353 . S
C279 H335 0.930 . S
C280 N281 1.314 . S
C280 C285 1.353 . S
C280 H286 0.930 . S
N281 Li264 1.990 . S
N281 C280 1.314 . S
N281 C283 1.279 . S
C282 C283 1.358 . S
C282 C284 1.356 . S
C282 H336 0.930 . S
C283 N281 1.279 . S
C283 C282 1.358 . S
C283 H287 0.930 . S
C284 C282 1.356 . S
C284 C285 1.348 . S
C285 C280 1.353 . S
C285 C284 1.348 . S
C285 H337 0.929 . S
H286 C280 0.930 . S
H287 C283 0.930 . S
C288 N289 1.314 . S
C288 C290 1.353 . S
C288 H294 0.930 . S
N289 Li265 1.990 . S
N289 C288 1.314 . S
N289 C292 1.279 . S
C290 C288 1.353 . S
C290 C293 1.348 . S
C290 H338 0.929 . S
C291 C292 1.358 . S
C291 C293 1.356 . S
C291 H339 0.930 . S
C292 N289 1.279 . S
C292 C291 1.358 . S
C292 H295 0.930 . S
C293 C290 1.348 . S
C293 C291 1.356 . S
H294 C288 0.930 . S
H295 C292 0.930 . S
C296 C298 1.348 . S
C296 C299 1.356 . S
C296 O326 1.325 . S
N297 C300 1.314 . S
N297 C301 1.279 . S
C298 C296 1.348 . S
C298 C300 1.353 . S
C298 H340 0.929 . S
C299 C296 1.356 . S
C299 C301 1.358 . S
C299 H341 0.930 . S
C300 N297 1.314 . S
C300 C298 1.353 . S
C300 H342 0.930 . S
C301 N297 1.279 . S
C301 C299 1.358 . S
C301 H343 0.930 . S
C302 C303 1.348 . S
C302 C304 1.356 . S
C302 O327 1.325 . S
C303 C302 1.348 . S
C303 C305 1.353 . S
C303 H344 0.929 . S
C304 C302 1.356 . S
C304 C306 1.358 . S
C304 H345 0.930 . S
C305 C303 1.353 . S
C305 N307 1.314 . S
C305 H346 0.930 . S
C306 C304 1.358 . S
C306 N307 1.279 . S
C306 H347 0.930 . S
N307 C305 1.314 . S
N307 C306 1.279 . S
C308 C310 1.353 . S
C308 N311 1.314 . S
C308 H314 0.930 . S
C309 N311 1.279 . S
C309 C312 1.358 . S
C309 H315 0.930 . S
C310 C308 1.353 . S
C310 C313 1.348 . S
C310 H348 0.929 . S
N311 Li266 1.990 . S
N311 C308 1.314 . S
N311 C309 1.279 . S
C312 C309 1.358 . S
C312 C313 1.356 . S
C312 H349 0.930 . S
C313 C310 1.348 . S
C313 C312 1.356 . S
H314 C308 0.930 . S
H315 C309 0.930 . S
C316 N317 1.314 . S
C316 C318 1.353 . S
C316 H322 0.930 . S
N317 Li267 1.990 . S
N317 C316 1.314 . S
N317 C320 1.279 . S
C318 C316 1.353 . S
C318 C321 1.348 . S
C318 H350 0.929 . S
C319 C320 1.358 . S
C319 C321 1.356 . S
C319 H351 0.930 . S
C320 N317 1.279 . S
C320 C319 1.358 . S
C320 H323 0.930 . S
C321 C318 1.348 . S
C321 C319 1.356 . S
H322 C316 0.930 . S
H323 C320 0.930 . S
O324 Li264 1.956 . S
O324 Li265 1.970 . S
O324 Li266 1.961 . S
O324 C268 1.325 . S
O325 Li264 1.970 . S
O325 Li265 1.956 . S
O325 Li267 1.961 . S
O325 C274 1.325 . S
O326 Li264 1.961 . S
O326 Li266 1.956 . S
O326 Li267 1.970 . S
O326 C296 1.325 . S
O327 Li265 1.961 . S
O327 Li266 1.970 . S
O327 Li267 1.956 . S
O327 C302 1.325 . S
H328 C270 0.929 . S
H329 C271 0.930 . S
H330 C272 0.930 . S
H331 C273 0.930 . S
H332 C275 0.930 . S
H333 C277 0.929 . S
H334 C278 0.930 . S
H335 C279 0.930 . S
H336 C282 0.930 . S
H337 C285 0.929 . S
H338 C290 0.929 . S
H339 C291 0.930 . S
H340 C298 0.929 . S
H341 C299 0.930 . S
H342 C300 0.930 . S
H343 C301 0.930 . S
H344 C303 0.929 . S
H345 C304 0.930 . S
H346 C305 0.930 . S
H347 C306 0.930 . S
H348 C310 0.929 . S
H349 C312 0.930 . S
H350 C318 0.929 . S
H351 C319 0.930 . S
Li352 N369 1.990 . S
Li352 O412 1.956 1_655 S
Li352 O413 1.970 1_665 S
Li352 O414 1.961 . S
Li353 N377 1.976 1_565 S
Li353 O412 1.970 . S
Li353 O413 1.956 1_565 S
Li353 O415 1.961 . S
Li354 N399 1.990 . S
Li354 O412 1.961 . S
Li354 O414 1.956 1_455 S
Li354 O415 1.970 . S
Li355 N405 1.990 . S
Li355 O413 1.961 1_565 S
Li355 O414 1.970 1_455 S
Li355 O415 1.956 . S
C356 C358 1.348 . S
C356 C359 1.356 1_455 S
C356 O412 1.325 . S
N357 C360 1.314 . S
N357 C361 1.279 1_455 S
C358 C356 1.348 . S
C358 C360 1.353 . S
C358 H416 0.929 . S
C359 C356 1.356 1_655 S
C359 C361 1.358 . S
C359 H417 0.930 . S
C360 N357 1.314 . S
C360 C358 1.353 . S
C360 H418 0.930 . S
C361 N357 1.279 1_655 S
C361 C359 1.358 . S
C361 H419 0.930 . S
C362 C365 1.348 1_455 S
C362 C366 1.356 . S
C362 O413 1.325 . S
C363 N364 1.279 . S
C363 C366 1.358 . S
C363 H420 0.930 . S
N364 C363 1.279 . S
N364 C367 1.314 1_455 S
C365 C362 1.348 1_655 S
C365 C367 1.353 . S
C365 H421 0.929 . S
C366 C362 1.356 . S
C366 C363 1.358 . S
C366 H422 0.930 . S
C367 N364 1.314 1_655 S
C367 C365 1.353 . S
C367 H423 0.930 . S
C368 N369 1.314 1_545 S
C368 C373 1.353 . S
C368 H374 0.934 . S
N369 Li352 1.990 . S
N369 C368 1.314 1_565 S
N369 C371 1.279 1_565 S
C370 C371 1.358 . S
C370 C372 1.356 . S
C370 H424 0.930 . S
C371 N369 1.279 1_545 S
C371 C370 1.358 . S
C371 H375 0.930 1_545 S
C372 C370 1.356 . S
C372 C373 1.348 . S
C373 C368 1.353 . S
C373 C372 1.348 . S
C373 H425 0.929 . S
H374 C368 0.934 . S
H375 C371 0.930 1_565 S
C376 N377 1.298 1_565 S
C376 C378 1.353 . S
C376 H382 0.930 . S
N377 Li353 1.976 1_545 S
N377 C376 1.298 1_545 S
N377 C380 1.311 . S
C378 C376 1.353 . S
C378 C381 1.348 1_565 S
C378 H426 0.929 . S
C379 C380 1.358 . S
C379 C381 1.356 . S
C379 H427 0.930 . S
C380 N377 1.311 . S
C380 C379 1.358 . S
C380 H383 0.930 . S
C381 C378 1.348 1_545 S
C381 C379 1.356 . S
H382 C376 0.930 . S
H383 C380 0.930 . S
C384 C386 1.348 . S
C384 C387 1.356 . S
C384 O414 1.325 . S
N385 C388 1.314 . S
N385 C389 1.279 . S
C386 C384 1.348 . S
C386 C388 1.353 . S
C386 H428 0.929 . S
C387 C384 1.356 . S
C387 C389 1.358 . S
C387 H429 0.930 . S
C388 N385 1.314 . S
C388 C386 1.353 . S
C388 H430 0.930 . S
C389 N385 1.279 . S
C389 C387 1.358 . S
C389 H431 0.930 . S
C390 C391 1.348 . S
C390 C392 1.356 . S
C390 O415 1.325 . S
C391 C390 1.348 . S
C391 C393 1.353 . S
C391 H432 0.929 . S
C392 C390 1.356 . S
C392 C394 1.358 . S
C392 H433 0.930 . S
C393 C391 1.353 . S
C393 N395 1.314 . S
C393 H434 0.930 . S
C394 C392 1.358 . S
C394 N395 1.279 . S
C394 H435 0.930 . S
N395 C393 1.314 . S
N395 C394 1.279 . S
C396 C398 1.353 . S
C396 N399 1.314 . S
C396 H402 0.930 . S
C397 N399 1.279 1_655 S
C397 C400 1.358 . S
C397 H403 0.930 . S
C398 C396 1.353 . S
C398 C401 1.348 . S
C398 H436 0.929 . S
N399 Li354 1.990 . S
N399 C396 1.314 . S
N399 C397 1.279 1_455 S
C400 C397 1.358 . S
C400 C401 1.356 1_655 S
C400 H437 0.930 . S
C401 C398 1.348 . S
C401 C400 1.356 1_455 S
H402 C396 0.930 . S
H403 C397 0.930 . S
C404 N405 1.314 1_655 S
C404 C406 1.348 1_565 S
C404 H410 0.930 1_565 S
N405 Li355 1.990 . S
N405 C404 1.314 1_455 S
N405 C408 1.279 . S
C406 C404 1.348 1_545 S
C406 C409 1.330 1_645 S
C406 H438 0.953 . S
C407 C408 1.358 . S
C407 C409 1.356 . S
C407 H439 0.930 . S
C408 N405 1.279 . S
C408 C407 1.358 . S
C408 H411 0.930 . S
C409 C406 1.330 1_465 S
C409 C407 1.356 . S
H410 C404 0.930 1_545 S
H411 C408 0.930 . S
O412 Li352 1.956 1_455 S
O412 Li353 1.970 . S
O412 Li354 1.961 . S
O412 C356 1.325 . S
O413 Li352 1.970 1_445 S
O413 Li353 1.956 1_545 S
O413 Li355 1.961 1_545 S
O413 C362 1.325 . S
O414 Li352 1.961 . S
O414 Li354 1.956 1_655 S
O414 Li355 1.970 1_655 S
O414 C384 1.325 . S
O415 Li353 1.961 . S
O415 Li354 1.970 . S
O415 Li355 1.956 . S
O415 C390 1.325 . S
H416 C358 0.929 . S
H417 C359 0.930 . S
H418 C360 0.930 . S
H419 C361 0.930 . S
H420 C363 0.930 . S
H421 C365 0.929 . S
H422 C366 0.930 . S
H423 C367 0.930 . S
H424 C370 0.930 . S
H425 C373 0.929 . S
H426 C378 0.929 . S
H427 C379 0.930 . S
H428 C386 0.929 . S
H429 C387 0.930 . S
H430 C388 0.930 . S
H431 C389 0.930 . S
H432 C391 0.929 . S
H433 C392 0.930 . S
H434 C393 0.930 . S
H435 C394 0.930 . S
H436 C398 0.929 . S
H437 C400 0.930 . S
H438 C406 0.953 . S
H439 C407 0.930 . S
Li440 N457 1.990 . S
Li440 O500 1.956 . S
Li440 O501 1.970 . S
Li440 O502 1.961 . S
Li441 N465 1.990 . S
Li441 O500 1.970 . S
Li441 O501 1.956 . S
Li441 O503 1.961 . S
Li442 N487 1.990 . S
Li442 O500 1.961 . S
Li442 O502 1.956 . S
Li442 O503 1.970 . S
Li443 N493 1.990 . S
Li443 O501 1.961 . S
Li443 O502 1.970 . S
Li443 O503 1.956 . S
C444 C446 1.348 . S
C444 C447 1.356 . S
C444 O500 1.325 . S
N445 C448 1.314 . S
N445 C449 1.279 . S
C446 C444 1.348 . S
C446 C448 1.353 . S
C446 H504 0.929 . S
C447 C444 1.356 . S
C447 C449 1.358 . S
C447 H505 0.930 . S
C448 N445 1.314 . S
C448 C446 1.353 . S
C448 H506 0.930 . S
C449 N445 1.279 . S
C449 C447 1.358 . S
C449 H507 0.930 . S
C450 C453 1.348 . S
C450 C454 1.356 . S
C450 O501 1.325 . S
C451 N452 1.279 . S
C451 C454 1.358 . S
C451 H508 0.930 . S
N452 C451 1.279 . S
N452 C455 1.314 . S
C453 C450 1.348 . S
C453 C455 1.353 . S
C453 H509 0.929 . S
C454 C450 1.356 . S
C454 C451 1.358 . S
C454 H510 0.930 . S
C455 N452 1.314 . S
C455 C453 1.353 . S
C455 H511 0.930 . S
C456 N457 1.314 . S
C456 C461 1.353 . S
C456 H462 0.930 . S
N457 Li440 1.990 . S
N457 C456 1.314 . S
N457 C459 1.279 . S
C458 C459 1.358 . S
C458 C460 1.356 . S
C458 H512 0.930 . S
C459 N457 1.279 . S
C459 C458 1.358 . S
C459 H463 0.930 . S
C460 C458 1.356 . S
C460 C461 1.348 . S
C461 C456 1.353 . S
C461 C460 1.348 . S
C461 H513 0.929 . S
H462 C456 0.930 . S
H463 C459 0.930 . S
C464 N465 1.314 . S
C464 C466 1.353 . S
C464 H470 0.930 . S
N465 Li441 1.990 . S
N465 C464 1.314 . S
N465 C468 1.279 . S
C466 C464 1.353 . S
C466 C469 1.348 . S
C466 H514 0.929 . S
C467 C468 1.358 . S
C467 C469 1.356 . S
C467 H515 0.930 . S
C468 N465 1.279 . S
C468 C467 1.358 . S
C468 H471 0.930 . S
C469 C466 1.348 . S
C469 C467 1.356 . S
H470 C464 0.930 . S
H471 C468 0.930 . S
C472 C474 1.348 . S
C472 C475 1.356 . S
C472 O502 1.325 . S
N473 C476 1.314 . S
N473 C477 1.279 . S
C474 C472 1.348 . S
C474 C476 1.353 . S
C474 H516 0.929 . S
C475 C472 1.356 . S
C475 C477 1.358 . S
C475 H517 0.930 . S
C476 N473 1.314 . S
C476 C474 1.353 . S
C476 H518 0.930 . S
C477 N473 1.279 . S
C477 C475 1.358 . S
C477 H519 0.930 . S
C478 C479 1.348 . S
C478 C480 1.356 . S
C478 O503 1.325 . S
C479 C478 1.348 . S
C479 C481 1.353 . S
C479 H520 0.929 . S
C480 C478 1.356 . S
C480 C482 1.358 . S
C480 H521 0.930 . S
C481 C479 1.353 . S
C481 N483 1.314 . S
C481 H522 0.930 . S
C482 C480 1.358 . S
C482 N483 1.279 . S
C482 H523 0.930 . S
N483 C481 1.314 . S
N483 C482 1.279 . S
C484 C486 1.353 . S
C484 N487 1.314 . S
C484 H490 0.930 . S
C485 N487 1.279 . S
C485 C488 1.358 . S
C485 H491 0.930 . S
C486 C484 1.353 . S
C486 C489 1.348 . S
C486 H524 0.929 . S
N487 Li442 1.990 . S
N487 C484 1.314 . S
N487 C485 1.279 . S
C488 C485 1.358 . S
C488 C489 1.356 . S
C488 H525 0.930 . S
C489 C486 1.348 . S
C489 C488 1.356 . S
H490 C484 0.930 . S
H491 C485 0.930 . S
C492 N493 1.314 . S
C492 C494 1.353 . S
C492 H498 0.930 . S
N493 Li443 1.990 . S
N493 C492 1.314 . S
N493 C496 1.279 . S
C494 C492 1.353 . S
C494 C497 1.348 . S
C494 H526 0.929 . S
C495 C496 1.358 . S
C495 C497 1.356 . S
C495 H527 0.930 . S
C496 N493 1.279 . S
C496 C495 1.358 . S
C496 H499 0.930 . S
C497 C494 1.348 . S
C497 C495 1.356 . S
H498 C492 0.930 . S
H499 C496 0.930 . S
O500 Li440 1.956 . S
O500 Li441 1.970 . S
O500 Li442 1.961 . S
O500 C444 1.325 . S
O501 Li440 1.970 . S
O501 Li441 1.956 . S
O501 Li443 1.961 . S
O501 C450 1.325 . S
O502 Li440 1.961 . S
O502 Li442 1.956 . S
O502 Li443 1.970 . S
O502 C472 1.325 . S
O503 Li441 1.961 . S
O503 Li442 1.970 . S
O503 Li443 1.956 . S
O503 C478 1.325 . S
H504 C446 0.929 . S
H505 C447 0.930 . S
H506 C448 0.930 . S
H507 C449 0.930 . S
H508 C451 0.930 . S
H509 C453 0.929 . S
H510 C454 0.930 . S
H511 C455 0.930 . S
H512 C458 0.930 . S
H513 C461 0.929 . S
H514 C466 0.929 . S
H515 C467 0.930 . S
H516 C474 0.929 . S
H517 C475 0.930 . S
H518 C476 0.930 . S
H519 C477 0.930 . S
H520 C479 0.929 . S
H521 C480 0.930 . S
H522 C481 0.930 . S
H523 C482 0.930 . S
H524 C486 0.929 . S
H525 C488 0.930 . S
H526 C494 0.929 . S
H527 C495 0.930 . S
Li528 N545 1.990 . S
Li528 O588 1.956 . S
Li528 O589 1.970 . S
Li528 O590 1.961 . S
Li529 N553 1.990 . S
Li529 O588 1.970 . S
Li529 O589 1.956 . S
Li529 O591 1.961 1_545 S
Li530 N575 1.990 . S
Li530 O588 1.961 . S
Li530 O590 1.956 . S
Li530 O591 1.970 1_545 S
Li531 N581 1.977 1_545 S
Li531 O589 1.961 . S
Li531 O590 1.970 . S
Li531 O591 1.956 1_545 S
C532 C534 1.348 . S
C532 C535 1.356 . S
C532 O588 1.325 . S
N533 C536 1.314 . S
N533 C537 1.279 . S
C534 C532 1.348 . S
C534 C536 1.353 . S
C534 H592 0.929 . S
C535 C532 1.356 . S
C535 C537 1.358 . S
C535 H593 0.930 . S
C536 N533 1.314 . S
C536 C534 1.353 . S
C536 H594 0.930 . S
C537 N533 1.279 . S
C537 C535 1.358 . S
C537 H595 0.930 . S
C538 C541 1.348 . S
C538 C542 1.356 . S
C538 O589 1.325 . S
C539 N540 1.279 . S
C539 C542 1.358 . S
C539 H596 0.930 . S
N540 C539 1.279 . S
N540 C543 1.314 . S
C541 C538 1.348 . S
C541 C543 1.353 . S
C541 H597 0.929 . S
C542 C538 1.356 . S
C542 C539 1.358 . S
C542 H598 0.930 . S
C543 N540 1.314 . S
C543 C541 1.353 . S
C543 H599 0.930 . S
C544 N545 1.314 . S
C544 C549 1.353 . S
C544 H550 0.930 . S
N545 Li528 1.990 . S
N545 C544 1.314 . S
N545 C547 1.279 . S
C546 C547 1.358 . S
C546 C548 1.356 . S
C546 H600 0.930 . S
C547 N545 1.279 . S
C547 C546 1.358 . S
C547 H551 0.930 . S
C548 C546 1.356 . S
C548 C549 1.348 . S
C549 C544 1.353 . S
C549 C548 1.348 . S
C549 H601 0.929 . S
H550 C544 0.930 . S
H551 C547 0.930 . S
C552 N553 1.314 . S
C552 C554 1.348 1_545 S
C552 H558 0.930 1_545 S
N553 Li529 1.990 . S
N553 C552 1.314 . S
N553 C556 1.279 . S
C554 C552 1.348 1_565 S
C554 C557 1.330 1_565 S
C554 H602 0.952 . S
C555 C556 1.358 . S
C555 C557 1.356 . S
C555 H603 0.930 . S
C556 N553 1.279 . S
C556 C555 1.358 . S
C556 H559 0.930 . S
C557 C554 1.330 1_545 S
C557 C555 1.356 . S
H558 C552 0.930 1_565 S
H559 C556 0.930 . S
C560 C562 1.348 . S
C560 C563 1.356 . S
C560 O590 1.325 . S
N561 C564 1.314 . S
N561 C565 1.279 . S
C562 C560 1.348 . S
C562 C564 1.353 . S
C562 H604 0.929 . S
C563 C560 1.356 . S
C563 C565 1.358 . S
C563 H605 0.930 . S
C564 N561 1.314 . S
C564 C562 1.353 . S
C564 H606 0.930 . S
C565 N561 1.279 . S
C565 C563 1.358 . S
C565 H607 0.930 . S
C566 C567 1.348 . S
C566 C568 1.356 . S
C566 O591 1.325 . S
C567 C566 1.348 . S
C567 C569 1.353 . S
C567 H608 0.929 . S
C568 C566 1.356 . S
C568 C570 1.358 . S
C568 H609 0.930 . S
C569 C567 1.353 . S
C569 N571 1.314 . S
C569 H610 0.930 . S
C570 C568 1.358 . S
C570 N571 1.279 . S
C570 H611 0.930 . S
N571 C569 1.314 . S
N571 C570 1.279 . S
C572 C574 1.353 . S
C572 N575 1.314 1_565 S
C572 H578 0.933 . S
C573 N575 1.279 1_565 S
C573 C576 1.358 . S
C573 H579 0.930 1_565 S
C574 C572 1.353 . S
C574 C577 1.348 . S
C574 H612 0.929 . S
N575 Li530 1.990 . S
N575 C572 1.314 1_545 S
N575 C573 1.279 1_545 S
C576 C573 1.358 . S
C576 C577 1.356 . S
C576 H613 0.930 . S
C577 C574 1.348 . S
C577 C576 1.356 . S
H578 C572 0.933 . S
H579 C573 0.930 1_545 S
C580 N581 1.298 1_545 S
C580 C582 1.353 . S
C580 H586 0.930 . S
N581 Li531 1.977 1_565 S
N581 C580 1.298 1_565 S
N581 C584 1.310 . S
C582 C580 1.353 . S
C582 C585 1.348 1_545 S
C582 H614 0.929 . S
C583 C584 1.358 . S
C583 C585 1.356 . S
C583 H615 0.930 . S
C584 N581 1.310 . S
C584 C583 1.358 . S
C584 H587 0.930 . S
C585 C582 1.348 1_565 S
C585 C583 1.356 . S
H586 C580 0.930 . S
H587 C584 0.930 . S
O588 Li528 1.956 . S
O588 Li529 1.970 . S
O588 Li530 1.961 . S
O588 C532 1.325 . S
O589 Li528 1.970 . S
O589 Li529 1.956 . S
O589 Li531 1.961 . S
O589 C538 1.325 . S
O590 Li528 1.961 . S
O590 Li530 1.956 . S
O590 Li531 1.970 . S
O590 C560 1.325 . S
O591 Li529 1.961 1_565 S
O591 Li530 1.970 1_565 S
O591 Li531 1.956 1_565 S
O591 C566 1.325 . S
H592 C534 0.929 . S
H593 C535 0.930 . S
H594 C536 0.930 . S
H595 C537 0.930 . S
H596 C539 0.930 . S
H597 C541 0.929 . S
H598 C542 0.930 . S
H599 C543 0.930 . S
H600 C546 0.930 . S
H601 C549 0.929 . S
H602 C554 0.952 . S
H603 C555 0.930 . S
H604 C562 0.929 . S
H605 C563 0.930 . S
H606 C564 0.930 . S
H607 C565 0.930 . S
H608 C567 0.929 . S
H609 C568 0.930 . S
H610 C569 0.930 . S
H611 C570 0.930 . S
H612 C574 0.929 . S
H613 C576 0.930 . S
H614 C582 0.929 . S
H615 C583 0.930 . S
Li616 N633 1.990 . S
Li616 O676 1.956 . S
Li616 O677 1.970 . S
Li616 O678 1.961 . S
Li617 N641 1.990 . S
Li617 O676 1.970 . S
Li617 O677 1.956 . S
Li617 O679 1.961 . S
Li618 N663 1.990 . S
Li618 O676 1.961 . S
Li618 O678 1.956 . S
Li618 O679 1.970 . S
Li619 N669 1.990 . S
Li619 O677 1.961 . S
Li619 O678 1.970 . S
Li619 O679 1.956 . S
C620 C622 1.348 . S
C620 C623 1.356 . S
C620 O676 1.325 . S
N621 C624 1.314 . S
N621 C625 1.279 . S
C622 C620 1.348 . S
C622 C624 1.353 . S
C622 H680 0.929 . S
C623 C620 1.356 . S
C623 C625 1.358 . S
C623 H681 0.930 . S
C624 N621 1.314 . S
C624 C622 1.353 . S
C624 H682 0.930 . S
C625 N621 1.279 . S
C625 C623 1.358 . S
C625 H683 0.930 . S
C626 C629 1.348 . S
C626 C630 1.356 . S
C626 O677 1.325 . S
C627 N628 1.279 . S
C627 C630 1.358 . S
C627 H684 0.930 . S
N628 C627 1.279 . S
N628 C631 1.314 . S
C629 C626 1.348 . S
C629 C631 1.353 . S
C629 H685 0.929 . S
C630 C626 1.356 . S
C630 C627 1.358 . S
C630 H686 0.930 . S
C631 N628 1.314 . S
C631 C629 1.353 . S
C631 H687 0.930 . S
C632 N633 1.314 . S
C632 C637 1.353 . S
C632 H638 0.930 . S
N633 Li616 1.990 . S
N633 C632 1.314 . S
N633 C635 1.279 . S
C634 C635 1.358 . S
C634 C636 1.356 . S
C634 H688 0.930 . S
C635 N633 1.279 . S
C635 C634 1.358 . S
C635 H639 0.930 . S
C636 C634 1.356 . S
C636 C637 1.348 . S
C637 C632 1.353 . S
C637 C636 1.348 . S
C637 H689 0.929 . S
H638 C632 0.930 . S
H639 C635 0.930 . S
C640 N641 1.314 . S
C640 C642 1.353 . S
C640 H646 0.930 . S
N641 Li617 1.990 . S
N641 C640 1.314 . S
N641 C644 1.279 . S
C642 C640 1.353 . S
C642 C645 1.348 . S
C642 H690 0.929 . S
C643 C644 1.358 . S
C643 C645 1.356 . S
C643 H691 0.930 . S
C644 N641 1.279 . S
C644 C643 1.358 . S
C644 H647 0.930 . S
C645 C642 1.348 . S
C645 C643 1.356 . S
H646 C640 0.930 . S
H647 C644 0.930 . S
C648 C650 1.348 . S
C648 C651 1.356 . S
C648 O678 1.325 . S
N649 C652 1.314 . S
N649 C653 1.279 . S
C650 C648 1.348 . S
C650 C652 1.353 . S
C650 H692 0.929 . S
C651 C648 1.356 . S
C651 C653 1.358 . S
C651 H693 0.930 . S
C652 N649 1.314 . S
C652 C650 1.353 . S
C652 H694 0.930 . S
C653 N649 1.279 . S
C653 C651 1.358 . S
C653 H695 0.930 . S
C654 C655 1.348 . S
C654 C656 1.356 . S
C654 O679 1.325 . S
C655 C654 1.348 . S
C655 C657 1.353 . S
C655 H696 0.929 . S
C656 C654 1.356 . S
C656 C658 1.358 . S
C656 H697 0.930 . S
C657 C655 1.353 . S
C657 N659 1.314 . S
C657 H698 0.930 . S
C658 C656 1.358 . S
C658 N659 1.279 . S
C658 H699 0.930 . S
N659 C657 1.314 . S
N659 C658 1.279 . S
C660 C662 1.353 . S
C660 N663 1.314 . S
C660 H666 0.930 . S
C661 N663 1.279 . S
C661 C664 1.358 . S
C661 H667 0.930 . S
C662 C660 1.353 . S
C662 C665 1.348 . S
C662 H700 0.929 . S
N663 Li618 1.990 . S
N663 C660 1.314 . S
N663 C661 1.279 . S
C664 C661 1.358 . S
C664 C665 1.356 . S
C664 H701 0.930 . S
C665 C662 1.348 . S
C665 C664 1.356 . S
H666 C660 0.930 . S
H667 C661 0.930 . S
C668 N669 1.314 . S
C668 C670 1.353 . S
C668 H674 0.930 . S
N669 Li619 1.990 . S
N669 C668 1.314 . S
N669 C672 1.279 . S
C670 C668 1.353 . S
C670 C673 1.348 . S
C670 H702 0.929 . S
C671 C672 1.358 . S
C671 C673 1.356 . S
C671 H703 0.930 . S
C672 N669 1.279 . S
C672 C671 1.358 . S
C672 H675 0.930 . S
C673 C670 1.348 . S
C673 C671 1.356 . S
H674 C668 0.930 . S
H675 C672 0.930 . S
O676 Li616 1.956 . S
O676 Li617 1.970 . S
O676 Li618 1.961 . S
O676 C620 1.325 . S
O677 Li616 1.970 . S
O677 Li617 1.956 . S
O677 Li619 1.961 . S
O677 C626 1.325 . S
O678 Li616 1.961 . S
O678 Li618 1.956 . S
O678 Li619 1.970 . S
O678 C648 1.325 . S
O679 Li617 1.961 . S
O679 Li618 1.970 . S
O679 Li619 1.956 . S
O679 C654 1.325 . S
H680 C622 0.929 . S
H681 C623 0.930 . S
H682 C624 0.930 . S
H683 C625 0.930 . S
H684 C627 0.930 . S
H685 C629 0.929 . S
H686 C630 0.930 . S
H687 C631 0.930 . S
H688 C634 0.930 . S
H689 C637 0.929 . S
H690 C642 0.929 . S
H691 C643 0.930 . S
H692 C650 0.929 . S
H693 C651 0.930 . S
H694 C652 0.930 . S
H695 C653 0.930 . S
H696 C655 0.929 . S
H697 C656 0.930 . S
H698 C657 0.930 . S
H699 C658 0.930 . S
H700 C662 0.929 . S
H701 C664 0.930 . S
H702 C670 0.929 . S
H703 C671 0.930 . S
Li704 N721 1.990 . S
Li704 O764 1.956 . S
Li704 O765 1.970 . S
Li704 O766 1.961 . S
Li705 N729 1.990 . S
Li705 O764 1.970 . S
Li705 O765 1.956 . S
Li705 O767 1.961 . S
Li706 N751 1.990 . S
Li706 O764 1.961 . S
Li706 O766 1.956 . S
Li706 O767 1.970 . S
Li707 N757 1.990 . S
Li707 O765 1.961 . S
Li707 O766 1.970 . S
Li707 O767 1.956 . S
C708 C710 1.348 . S
C708 C711 1.356 . S
C708 O764 1.325 . S
N709 C712 1.314 . S
N709 C713 1.279 . S
C710 C708 1.348 . S
C710 C712 1.353 . S
C710 H768 0.929 . S
C711 C708 1.356 . S
C711 C713 1.358 . S
C711 H769 0.930 . S
C712 N709 1.314 . S
C712 C710 1.353 . S
C712 H770 0.930 . S
C713 N709 1.279 . S
C713 C711 1.358 . S
C713 H771 0.930 . S
C714 C717 1.348 . S
C714 C718 1.356 . S
C714 O765 1.325 . S
C715 N716 1.279 . S
C715 C718 1.358 . S
C715 H772 0.930 . S
N716 C715 1.279 . S
N716 C719 1.314 . S
C717 C714 1.348 . S
C717 C719 1.353 . S
C717 H773 0.929 . S
C718 C714 1.356 . S
C718 C715 1.358 . S
C718 H774 0.930 . S
C719 N716 1.314 . S
C719 C717 1.353 . S
C719 H775 0.930 . S
C720 N721 1.314 . S
C720 C725 1.353 . S
C720 H726 0.930 . S
N721 Li704 1.990 . S
N721 C720 1.314 . S
N721 C723 1.279 . S
C722 C723 1.358 . S
C722 C724 1.356 . S
C722 H776 0.930 . S
C723 N721 1.279 . S
C723 C722 1.358 . S
C723 H727 0.930 . S
C724 C722 1.356 . S
C724 C725 1.348 . S
C725 C720 1.353 . S
C725 C724 1.348 . S
C725 H777 0.929 . S
H726 C720 0.930 . S
H727 C723 0.930 . S
C728 N729 1.314 . S
C728 C730 1.353 . S
C728 H734 0.930 . S
N729 Li705 1.990 . S
N729 C728 1.314 . S
N729 C732 1.279 . S
C730 C728 1.353 . S
C730 C733 1.348 . S
C730 H778 0.929 . S
C731 C732 1.358 . S
C731 C733 1.356 . S
C731 H779 0.930 . S
C732 N729 1.279 . S
C732 C731 1.358 . S
C732 H735 0.930 . S
C733 C730 1.348 . S
C733 C731 1.356 . S
H734 C728 0.930 . S
H735 C732 0.930 . S
C736 C738 1.348 . S
C736 C739 1.356 . S
C736 O766 1.325 . S
N737 C740 1.314 . S
N737 C741 1.279 . S
C738 C736 1.348 . S
C738 C740 1.353 . S
C738 H780 0.929 . S
C739 C736 1.356 . S
C739 C741 1.358 . S
C739 H781 0.930 . S
C740 N737 1.314 . S
C740 C738 1.353 . S
C740 H782 0.930 . S
C741 N737 1.279 . S
C741 C739 1.358 . S
C741 H783 0.930 . S
C742 C743 1.348 . S
C742 C744 1.356 . S
C742 O767 1.325 . S
C743 C742 1.348 . S
C743 C745 1.353 . S
C743 H784 0.929 . S
C744 C742 1.356 . S
C744 C746 1.358 . S
C744 H785 0.930 . S
C745 C743 1.353 . S
C745 N747 1.314 . S
C745 H786 0.930 . S
C746 C744 1.358 . S
C746 N747 1.279 . S
C746 H787 0.930 . S
N747 C745 1.314 . S
N747 C746 1.279 . S
C748 C750 1.353 . S
C748 N751 1.314 . S
C748 H754 0.930 . S
C749 N751 1.279 . S
C749 C752 1.358 . S
C749 H755 0.930 . S
C750 C748 1.353 . S
C750 C753 1.348 . S
C750 H788 0.929 . S
N751 Li706 1.990 . S
N751 C748 1.314 . S
N751 C749 1.279 . S
C752 C749 1.358 . S
C752 C753 1.356 . S
C752 H789 0.930 . S
C753 C750 1.348 . S
C753 C752 1.356 . S
H754 C748 0.930 . S
H755 C749 0.930 . S
C756 N757 1.314 . S
C756 C758 1.353 . S
C756 H762 0.930 . S
N757 Li707 1.990 . S
N757 C756 1.314 . S
N757 C760 1.279 . S
C758 C756 1.353 . S
C758 C761 1.348 . S
C758 H790 0.929 . S
C759 C760 1.358 . S
C759 C761 1.356 . S
C759 H791 0.930 . S
C760 N757 1.279 . S
C760 C759 1.358 . S
C760 H763 0.930 . S
C761 C758 1.348 . S
C761 C759 1.356 . S
H762 C756 0.930 . S
H763 C760 0.930 . S
O764 Li704 1.956 . S
O764 Li705 1.970 . S
O764 Li706 1.961 . S
O764 C708 1.325 . S
O765 Li704 1.970 . S
O765 Li705 1.956 . S
O765 Li707 1.961 . S
O765 C714 1.325 . S
O766 Li704 1.961 . S
O766 Li706 1.956 . S
O766 Li707 1.970 . S
O766 C736 1.325 . S
O767 Li705 1.961 . S
O767 Li706 1.970 . S
O767 Li707 1.956 . S
O767 C742 1.325 . S
H768 C710 0.929 . S
H769 C711 0.930 . S
H770 C712 0.930 . S
H771 C713 0.930 . S
H772 C715 0.930 . S
H773 C717 0.929 . S
H774 C718 0.930 . S
H775 C719 0.930 . S
H776 C722 0.930 . S
H777 C725 0.929 . S
H778 C730 0.929 . S
H779 C731 0.930 . S
H780 C738 0.929 . S
H781 C739 0.930 . S
H782 C740 0.930 . S
H783 C741 0.930 . S
H784 C743 0.929 . S
H785 C744 0.930 . S
H786 C745 0.930 . S
H787 C746 0.930 . S
H788 C750 0.929 . S
H789 C752 0.930 . S
H790 C758 0.929 . S
H791 C759 0.930 . S
Li792 N809 1.990 . S
Li792 O852 1.956 . S
Li792 O853 1.970 . S
Li792 O854 1.961 . S
Li793 N817 1.990 . S
Li793 O852 1.970 . S
Li793 O853 1.956 . S
Li793 O855 1.961 . S
Li794 N839 1.990 . S
Li794 O852 1.961 . S
Li794 O854 1.956 . S
Li794 O855 1.970 . S
Li795 N845 1.990 . S
Li795 O853 1.961 . S
Li795 O854 1.970 . S
Li795 O855 1.956 . S
C796 C798 1.348 . S
C796 C799 1.356 . S
C796 O852 1.325 . S
N797 C800 1.314 . S
N797 C801 1.279 . S
C798 C796 1.348 . S
C798 C800 1.353 . S
C798 H856 0.929 . S
C799 C796 1.356 . S
C799 C801 1.358 . S
C799 H857 0.930 . S
C800 N797 1.314 . S
C800 C798 1.353 . S
C800 H858 0.930 . S
C801 N797 1.279 . S
C801 C799 1.358 . S
C801 H859 0.930 . S
C802 C805 1.348 . S
C802 C806 1.356 . S
C802 O853 1.325 . S
C803 N804 1.279 . S
C803 C806 1.358 . S
C803 H860 0.930 . S
N804 C803 1.279 . S
N804 C807 1.314 . S
C805 C802 1.348 . S
C805 C807 1.353 . S
C805 H861 0.929 . S
C806 C802 1.356 . S
C806 C803 1.358 . S
C806 H862 0.930 . S
C807 N804 1.314 . S
C807 C805 1.353 . S
C807 H863 0.930 . S
C808 N809 1.314 . S
C808 C813 1.353 . S
C808 H814 0.930 . S
N809 Li792 1.990 . S
N809 C808 1.314 . S
N809 C811 1.279 . S
C810 C811 1.358 . S
C810 C812 1.356 . S
C810 H864 0.930 . S
C811 N809 1.279 . S
C811 C810 1.358 . S
C811 H815 0.930 . S
C812 C810 1.356 . S
C812 C813 1.348 . S
C813 C808 1.353 . S
C813 C812 1.348 . S
C813 H865 0.929 . S
H814 C808 0.930 . S
H815 C811 0.930 . S
C816 N817 1.314 . S
C816 C818 1.353 . S
C816 H822 0.930 . S
N817 Li793 1.990 . S
N817 C816 1.314 . S
N817 C820 1.279 . S
C818 C816 1.353 . S
C818 C821 1.348 . S
C818 H866 0.929 . S
C819 C820 1.358 . S
C819 C821 1.356 . S
C819 H867 0.930 . S
C820 N817 1.279 . S
C820 C819 1.358 . S
C820 H823 0.930 . S
C821 C818 1.348 . S
C821 C819 1.356 . S
H822 C816 0.930 . S
H823 C820 0.930 . S
C824 C826 1.348 . S
C824 C827 1.356 . S
C824 O854 1.325 . S
N825 C828 1.314 . S
N825 C829 1.279 . S
C826 C824 1.348 . S
C826 C828 1.353 . S
C826 H868 0.929 . S
C827 C824 1.356 . S
C827 C829 1.358 . S
C827 H869 0.930 . S
C828 N825 1.314 . S
C828 C826 1.353 . S
C828 H870 0.930 . S
C829 N825 1.279 . S
C829 C827 1.358 . S
C829 H871 0.930 . S
C830 C831 1.348 . S
C830 C832 1.356 . S
C830 O855 1.325 . S
C831 C830 1.348 . S
C831 C833 1.353 . S
C831 H872 0.929 . S
C832 C830 1.356 . S
C832 C834 1.358 . S
C832 H873 0.930 . S
C833 C831 1.353 . S
C833 N835 1.314 . S
C833 H874 0.930 . S
C834 C832 1.358 . S
C834 N835 1.279 . S
C834 H875 0.930 . S
N835 C833 1.314 . S
N835 C834 1.279 . S
C836 C838 1.353 . S
C836 N839 1.314 . S
C836 H842 0.930 . S
C837 N839 1.279 . S
C837 C840 1.358 . S
C837 H843 0.930 . S
C838 C836 1.353 . S
C838 C841 1.348 . S
C838 H876 0.929 . S
N839 Li794 1.990 . S
N839 C836 1.314 . S
N839 C837 1.279 . S
C840 C837 1.358 . S
C840 C841 1.356 . S
C840 H877 0.930 . S
C841 C838 1.348 . S
C841 C840 1.356 . S
H842 C836 0.930 . S
H843 C837 0.930 . S
C844 N845 1.314 . S
C844 C846 1.353 . S
C844 H850 0.930 . S
N845 Li795 1.990 . S
N845 C844 1.314 . S
N845 C848 1.279 . S
C846 C844 1.353 . S
C846 C849 1.348 . S
C846 H878 0.929 . S
C847 C848 1.358 . S
C847 C849 1.356 . S
C847 H879 0.930 . S
C848 N845 1.279 . S
C848 C847 1.358 . S
C848 H851 0.930 . S
C849 C846 1.348 . S
C849 C847 1.356 . S
H850 C844 0.930 . S
H851 C848 0.930 . S
O852 Li792 1.956 . S
O852 Li793 1.970 . S
O852 Li794 1.961 . S
O852 C796 1.325 . S
O853 Li792 1.970 . S
O853 Li793 1.956 . S
O853 Li795 1.961 . S
O853 C802 1.325 . S
O854 Li792 1.961 . S
O854 Li794 1.956 . S
O854 Li795 1.970 . S
O854 C824 1.325 . S
O855 Li793 1.961 . S
O855 Li794 1.970 . S
O855 Li795 1.956 . S
O855 C830 1.325 . S
H856 C798 0.929 . S
H857 C799 0.930 . S
H858 C800 0.930 . S
H859 C801 0.930 . S
H860 C803 0.930 . S
H861 C805 0.929 . S
H862 C806 0.930 . S
H863 C807 0.930 . S
H864 C810 0.930 . S
H865 C813 0.929 . S
H866 C818 0.929 . S
H867 C819 0.930 . S
H868 C826 0.929 . S
H869 C827 0.930 . S
H870 C828 0.930 . S
H871 C829 0.930 . S
H872 C831 0.929 . S
H873 C832 0.930 . S
H874 C833 0.930 . S
H875 C834 0.930 . S
H876 C838 0.929 . S
H877 C840 0.930 . S
H878 C846 0.929 . S
H879 C847 0.930 . S
Li880 N897 1.990 . S
Li880 O940 1.956 . S
Li880 O941 1.970 . S
Li880 O942 1.961 . S
Li881 N905 1.990 . S
Li881 O940 1.970 . S
Li881 O941 1.956 . S
Li881 O943 1.961 . S
Li882 N927 1.990 . S
Li882 O940 1.961 . S
Li882 O942 1.956 . S
Li882 O943 1.970 . S
Li883 N933 1.990 . S
Li883 O941 1.961 . S
Li883 O942 1.970 . S
Li883 O943 1.956 . S
C884 C886 1.348 . S
C884 C887 1.356 . S
C884 O940 1.325 . S
N885 C888 1.314 . S
N885 C889 1.279 . S
C886 C884 1.348 . S
C886 C888 1.353 . S
C886 H944 0.929 . S
C887 C884 1.356 . S
C887 C889 1.358 . S
C887 H945 0.930 . S
C888 N885 1.314 . S
C888 C886 1.353 . S
C888 H946 0.930 . S
C889 N885 1.279 . S
C889 C887 1.358 . S
C889 H947 0.930 . S
C890 C893 1.348 . S
C890 C894 1.356 . S
C890 O941 1.325 . S
C891 N892 1.279 . S
C891 C894 1.358 . S
C891 H948 0.930 . S
N892 C891 1.279 . S
N892 C895 1.314 . S
C893 C890 1.348 . S
C893 C895 1.353 . S
C893 H949 0.929 . S
C894 C890 1.356 . S
C894 C891 1.358 . S
C894 H950 0.930 . S
C895 N892 1.314 . S
C895 C893 1.353 . S
C895 H951 0.930 . S
C896 N897 1.314 . S
C896 C901 1.353 . S
C896 H902 0.930 . S
N897 Li880 1.990 . S
N897 C896 1.314 . S
N897 C899 1.279 . S
C898 C899 1.358 . S
C898 C900 1.356 . S
C898 H952 0.930 . S
C899 N897 1.279 . S
C899 C898 1.358 . S
C899 H903 0.930 . S
C900 C898 1.356 . S
C900 C901 1.348 . S
C901 C896 1.353 . S
C901 C900 1.348 . S
C901 H953 0.929 . S
H902 C896 0.930 . S
H903 C899 0.930 . S
C904 N905 1.314 . S
C904 C906 1.353 . S
C904 H910 0.930 . S
N905 Li881 1.990 . S
N905 C904 1.314 . S
N905 C908 1.279 . S
C906 C904 1.353 . S
C906 C909 1.348 . S
C906 H954 0.929 . S
C907 C908 1.358 . S
C907 C909 1.356 . S
C907 H955 0.930 . S
C908 N905 1.279 . S
C908 C907 1.358 . S
C908 H911 0.930 . S
C909 C906 1.348 . S
C909 C907 1.356 . S
H910 C904 0.930 . S
H911 C908 0.930 . S
C912 C914 1.348 . S
C912 C915 1.356 . S
C912 O942 1.325 . S
N913 C916 1.314 . S
N913 C917 1.279 . S
C914 C912 1.348 . S
C914 C916 1.353 . S
C914 H956 0.929 . S
C915 C912 1.356 . S
C915 C917 1.358 . S
C915 H957 0.930 . S
C916 N913 1.314 . S
C916 C914 1.353 . S
C916 H958 0.930 . S
C917 N913 1.279 . S
C917 C915 1.358 . S
C917 H959 0.930 . S
C918 C919 1.348 . S
C918 C920 1.356 . S
C918 O943 1.325 . S
C919 C918 1.348 . S
C919 C921 1.353 . S
C919 H960 0.929 . S
C920 C918 1.356 . S
C920 C922 1.358 . S
C920 H961 0.930 . S
C921 C919 1.353 . S
C921 N923 1.314 . S
C921 H962 0.930 . S
C922 C920 1.358 . S
C922 N923 1.279 . S
C922 H963 0.930 . S
N923 C921 1.314 . S
N923 C922 1.279 . S
C924 C926 1.353 . S
C924 N927 1.314 . S
C924 H930 0.930 . S
C925 N927 1.279 . S
C925 C928 1.358 . S
C925 H931 0.930 . S
C926 C924 1.353 . S
C926 C929 1.348 . S
C926 H964 0.929 . S
N927 Li882 1.990 . S
N927 C924 1.314 . S
N927 C925 1.279 . S
C928 C925 1.358 . S
C928 C929 1.356 . S
C928 H965 0.930 . S
C929 C926 1.348 . S
C929 C928 1.356 . S
H930 C924 0.930 . S
H931 C925 0.930 . S
C932 N933 1.314 . S
C932 C934 1.353 . S
C932 H938 0.930 . S
N933 Li883 1.990 . S
N933 C932 1.314 . S
N933 C936 1.279 . S
C934 C932 1.353 . S
C934 C937 1.348 . S
C934 H966 0.929 . S
C935 C936 1.358 . S
C935 C937 1.356 . S
C935 H967 0.930 . S
C936 N933 1.279 . S
C936 C935 1.358 . S
C936 H939 0.930 . S
C937 C934 1.348 . S
C937 C935 1.356 . S
H938 C932 0.930 . S
H939 C936 0.930 . S
O940 Li880 1.956 . S
O940 Li881 1.970 . S
O940 Li882 1.961 . S
O940 C884 1.325 . S
O941 Li880 1.970 . S
O941 Li881 1.956 . S
O941 Li883 1.961 . S
O941 C890 1.325 . S
O942 Li880 1.961 . S
O942 Li882 1.956 . S
O942 Li883 1.970 . S
O942 C912 1.325 . S
O943 Li881 1.961 . S
O943 Li882 1.970 . S
O943 Li883 1.956 . S
O943 C918 1.325 . S
H944 C886 0.929 . S
H945 C887 0.930 . S
H946 C888 0.930 . S
H947 C889 0.930 . S
H948 C891 0.930 . S
H949 C893 0.929 . S
H950 C894 0.930 . S
H951 C895 0.930 . S
H952 C898 0.930 . S
H953 C901 0.929 . S
H954 C906 0.929 . S
H955 C907 0.930 . S
H956 C914 0.929 . S
H957 C915 0.930 . S
H958 C916 0.930 . S
H959 C917 0.930 . S
H960 C919 0.929 . S
H961 C920 0.930 . S
H962 C921 0.930 . S
H963 C922 0.930 . S
H964 C926 0.929 . S
H965 C928 0.930 . S
H966 C934 0.929 . S
H967 C935 0.930 . S
Li968 N985 1.990 . S
Li968 O1028 1.956 . S
Li968 O1029 1.970 . S
Li968 O1030 1.961 . S
Li969 N993 1.990 . S
Li969 O1028 1.970 . S
Li969 O1029 1.956 . S
Li969 O1031 1.961 . S
Li970 N1015 1.990 . S
Li970 O1028 1.961 . S
Li970 O1030 1.956 . S
Li970 O1031 1.970 . S
Li971 N1021 1.990 . S
Li971 O1029 1.961 . S
Li971 O1030 1.970 . S
Li971 O1031 1.956 . S
C972 C974 1.348 . S
C972 C975 1.356 . S
C972 O1028 1.325 . S
N973 C976 1.314 . S
N973 C977 1.279 . S
C974 C972 1.348 . S
C974 C976 1.353 . S
C974 H1032 0.929 . S
C975 C972 1.356 . S
C975 C977 1.358 . S
C975 H1033 0.930 . S
C976 N973 1.314 . S
C976 C974 1.353 . S
C976 H1034 0.930 . S
C977 N973 1.279 . S
C977 C975 1.358 . S
C977 H1035 0.930 . S
C978 C981 1.348 . S
C978 C982 1.356 . S
C978 O1029 1.325 . S
C979 N980 1.279 . S
C979 C982 1.358 . S
C979 H1036 0.930 . S
N980 C979 1.279 . S
N980 C983 1.314 . S
C981 C978 1.348 . S
C981 C983 1.353 . S
C981 H1037 0.929 . S
C982 C978 1.356 . S
C982 C979 1.358 . S
C982 H1038 0.930 . S
C983 N980 1.314 . S
C983 C981 1.353 . S
C983 H1039 0.930 . S
C984 N985 1.314 . S
C984 C989 1.353 . S
C984 H990 0.930 . S
N985 Li968 1.990 . S
N985 C984 1.314 . S
N985 C987 1.279 . S
C986 C987 1.358 . S
C986 C988 1.356 . S
C986 H1040 0.930 . S
C987 N985 1.279 . S
C987 C986 1.358 . S
C987 H991 0.930 . S
C988 C986 1.356 . S
C988 C989 1.348 . S
C989 C984 1.353 . S
C989 C988 1.348 . S
C989 H1041 0.929 . S
H990 C984 0.930 . S
H991 C987 0.930 . S
C992 N993 1.314 . S
C992 C994 1.353 . S
C992 H998 0.930 . S
N993 Li969 1.990 . S
N993 C992 1.314 . S
N993 C996 1.279 . S
C994 C992 1.353 . S
C994 C997 1.348 . S
C994 H1042 0.929 . S
C995 C996 1.358 . S
C995 C997 1.356 . S
C995 H1043 0.930 . S
C996 N993 1.279 . S
C996 C995 1.358 . S
C996 H999 0.930 . S
C997 C994 1.348 . S
C997 C995 1.356 . S
H998 C992 0.930 . S
H999 C996 0.930 . S
C1000 C1002 1.348 . S
C1000 C1003 1.356 . S
C1000 O1030 1.325 . S
N1001 C1004 1.314 . S
N1001 C1005 1.279 . S
C1002 C1000 1.348 . S
C1002 C1004 1.353 . S
C1002 H1044 0.929 . S
C1003 C1000 1.356 . S
C1003 C1005 1.358 . S
C1003 H1045 0.930 . S
C1004 N1001 1.314 . S
C1004 C1002 1.353 . S
C1004 H1046 0.930 . S
C1005 N1001 1.279 . S
C1005 C1003 1.358 . S
C1005 H1047 0.930 . S
C1006 C1007 1.348 . S
C1006 C1008 1.356 . S
C1006 O1031 1.325 . S
C1007 C1006 1.348 . S
C1007 C1009 1.353 . S
C1007 H1048 0.929 . S
C1008 C1006 1.356 . S
C1008 C1010 1.358 . S
C1008 H1049 0.930 . S
C1009 C1007 1.353 . S
C1009 N1011 1.314 . S
C1009 H1050 0.930 . S
C1010 C1008 1.358 . S
C1010 N1011 1.279 . S
C1010 H1051 0.930 . S
N1011 C1009 1.314 . S
N1011 C1010 1.279 . S
C1012 C1014 1.353 . S
C1012 N1015 1.314 . S
C1012 H1018 0.930 . S
C1013 N1015 1.279 . S
C1013 C1016 1.358 . S
C1013 H1019 0.930 . S
C1014 C1012 1.353 . S
C1014 C1017 1.348 . S
C1014 H1052 0.929 . S
N1015 Li970 1.990 . S
N1015 C1012 1.314 . S
N1015 C1013 1.279 . S
C1016 C1013 1.358 . S
C1016 C1017 1.356 . S
C1016 H1053 0.930 . S
C1017 C1014 1.348 . S
C1017 C1016 1.356 . S
H1018 C1012 0.930 . S
H1019 C1013 0.930 . S
C1020 N1021 1.314 . S
C1020 C1022 1.353 . S
C1020 H1026 0.930 . S
N1021 Li971 1.990 . S
N1021 C1020 1.314 . S
N1021 C1024 1.279 . S
C1022 C1020 1.353 . S
C1022 C1025 1.348 . S
C1022 H1054 0.929 . S
C1023 C1024 1.358 . S
C1023 C1025 1.356 . S
C1023 H1055 0.930 . S
C1024 N1021 1.279 . S
C1024 C1023 1.358 . S
C1024 H1027 0.930 . S
C1025 C1022 1.348 . S
C1025 C1023 1.356 . S
H1026 C1020 0.930 . S
H1027 C1024 0.930 . S
O1028 Li968 1.956 . S
O1028 Li969 1.970 . S
O1028 Li970 1.961 . S
O1028 C972 1.325 . S
O1029 Li968 1.970 . S
O1029 Li969 1.956 . S
O1029 Li971 1.961 . S
O1029 C978 1.325 . S
O1030 Li968 1.961 . S
O1030 Li970 1.956 . S
O1030 Li971 1.970 . S
O1030 C1000 1.325 . S
O1031 Li969 1.961 . S
O1031 Li970 1.970 . S
O1031 Li971 1.956 . S
O1031 C1006 1.325 . S
H1032 C974 0.929 . S
H1033 C975 0.930 . S
H1034 C976 0.930 . S
H1035 C977 0.930 . S
H1036 C979 0.930 . S
H1037 C981 0.929 . S
H1038 C982 0.930 . S
H1039 C983 0.930 . S
H1040 C986 0.930 . S
H1041 C989 0.929 . S
H1042 C994 0.929 . S
H1043 C995 0.930 . S
H1044 C1002 0.929 . S
H1045 C1003 0.930 . S
H1046 C1004 0.930 . S
H1047 C1005 0.930 . S
H1048 C1007 0.929 . S
H1049 C1008 0.930 . S
H1050 C1009 0.930 . S
H1051 C1010 0.930 . S
H1052 C1014 0.929 . S
H1053 C1016 0.930 . S
H1054 C1022 0.929 . S
H1055 C1023 0.930 . S
Li1056 N1073 1.990 . S
Li1056 O1116 1.956 . S
Li1056 O1117 1.970 . S
Li1056 O1118 1.961 . S
Li1057 N1081 1.990 . S
Li1057 O1116 1.970 . S
Li1057 O1117 1.956 . S
Li1057 O1119 1.961 . S
Li1058 N1103 1.990 . S
Li1058 O1116 1.961 . S
Li1058 O1118 1.956 . S
Li1058 O1119 1.970 . S
Li1059 N1109 1.990 . S
Li1059 O1117 1.961 . S
Li1059 O1118 1.970 . S
Li1059 O1119 1.956 . S
C1060 C1062 1.348 . S
C1060 C1063 1.356 . S
C1060 O1116 1.325 . S
N1061 C1064 1.314 . S
N1061 C1065 1.279 . S
C1062 C1060 1.348 . S
C1062 C1064 1.353 . S
C1062 H1120 0.929 . S
C1063 C1060 1.356 . S
C1063 C1065 1.358 . S
C1063 H1121 0.930 . S
C1064 N1061 1.314 . S
C1064 C1062 1.353 . S
C1064 H1122 0.930 . S
C1065 N1061 1.279 . S
C1065 C1063 1.358 . S
C1065 H1123 0.930 . S
C1066 C1069 1.348 . S
C1066 C1070 1.356 . S
C1066 O1117 1.325 . S
C1067 N1068 1.279 . S
C1067 C1070 1.358 . S
C1067 H1124 0.930 . S
N1068 C1067 1.279 . S
N1068 C1071 1.314 . S
C1069 C1066 1.348 . S
C1069 C1071 1.353 . S
C1069 H1125 0.929 . S
C1070 C1066 1.356 . S
C1070 C1067 1.358 . S
C1070 H1126 0.930 . S
C1071 N1068 1.314 . S
C1071 C1069 1.353 . S
C1071 H1127 0.930 . S
C1072 N1073 1.314 . S
C1072 C1077 1.353 . S
C1072 H1078 0.930 . S
N1073 Li1056 1.990 . S
N1073 C1072 1.314 . S
N1073 C1075 1.279 . S
C1074 C1075 1.358 . S
C1074 C1076 1.356 . S
C1074 H1128 0.930 . S
C1075 N1073 1.279 . S
C1075 C1074 1.358 . S
C1075 H1079 0.930 . S
C1076 C1074 1.356 . S
C1076 C1077 1.348 . S
C1077 C1072 1.353 . S
C1077 C1076 1.348 . S
C1077 H1129 0.929 . S
H1078 C1072 0.930 . S
H1079 C1075 0.930 . S
C1080 N1081 1.314 . S
C1080 C1082 1.353 . S
C1080 H1086 0.930 . S
N1081 Li1057 1.990 . S
N1081 C1080 1.314 . S
N1081 C1084 1.279 . S
C1082 C1080 1.353 . S
C1082 C1085 1.348 . S
C1082 H1130 0.929 . S
C1083 C1084 1.358 . S
C1083 C1085 1.356 . S
C1083 H1131 0.930 . S
C1084 N1081 1.279 . S
C1084 C1083 1.358 . S
C1084 H1087 0.930 . S
C1085 C1082 1.348 . S
C1085 C1083 1.356 . S
H1086 C1080 0.930 . S
H1087 C1084 0.930 . S
C1088 C1090 1.348 . S
C1088 C1091 1.356 . S
C1088 O1118 1.325 . S
N1089 C1092 1.314 . S
N1089 C1093 1.279 . S
C1090 C1088 1.348 . S
C1090 C1092 1.353 . S
C1090 H1132 0.929 . S
C1091 C1088 1.356 . S
C1091 C1093 1.358 . S
C1091 H1133 0.930 . S
C1092 N1089 1.314 . S
C1092 C1090 1.353 . S
C1092 H1134 0.930 . S
C1093 N1089 1.279 . S
C1093 C1091 1.358 . S
C1093 H1135 0.930 . S
C1094 C1095 1.348 . S
C1094 C1096 1.356 . S
C1094 O1119 1.325 . S
C1095 C1094 1.348 . S
C1095 C1097 1.353 . S
C1095 H1136 0.929 . S
C1096 C1094 1.356 . S
C1096 C1098 1.358 . S
C1096 H1137 0.930 . S
C1097 C1095 1.353 . S
C1097 N1099 1.314 . S
C1097 H1138 0.930 . S
C1098 C1096 1.358 . S
C1098 N1099 1.279 . S
C1098 H1139 0.930 . S
N1099 C1097 1.314 . S
N1099 C1098 1.279 . S
C1100 C1102 1.353 . S
C1100 N1103 1.314 . S
C1100 H1106 0.930 . S
C1101 N1103 1.279 . S
C1101 C1104 1.358 . S
C1101 H1107 0.930 . S
C1102 C1100 1.353 . S
C1102 C1105 1.348 . S
C1102 H1140 0.929 . S
N1103 Li1058 1.990 . S
N1103 C1100 1.314 . S
N1103 C1101 1.279 . S
C1104 C1101 1.358 . S
C1104 C1105 1.356 . S
C1104 H1141 0.930 . S
C1105 C1102 1.348 . S
C1105 C1104 1.356 . S
H1106 C1100 0.930 . S
H1107 C1101 0.930 . S
C1108 N1109 1.314 . S
C1108 C1110 1.353 . S
C1108 H1114 0.930 . S
N1109 Li1059 1.990 . S
N1109 C1108 1.314 . S
N1109 C1112 1.279 . S
C1110 C1108 1.353 . S
C1110 C1113 1.348 . S
C1110 H1142 0.929 . S
C1111 C1112 1.358 . S
C1111 C1113 1.356 . S
C1111 H1143 0.930 . S
C1112 N1109 1.279 . S
C1112 C1111 1.358 . S
C1112 H1115 0.930 . S
C1113 C1110 1.348 . S
C1113 C1111 1.356 . S
H1114 C1108 0.930 . S
H1115 C1112 0.930 . S
O1116 Li1056 1.956 . S
O1116 Li1057 1.970 . S
O1116 Li1058 1.961 . S
O1116 C1060 1.325 . S
O1117 Li1056 1.970 . S
O1117 Li1057 1.956 . S
O1117 Li1059 1.961 . S
O1117 C1066 1.325 . S
O1118 Li1056 1.961 . S
O1118 Li1058 1.956 . S
O1118 Li1059 1.970 . S
O1118 C1088 1.325 . S
O1119 Li1057 1.961 . S
O1119 Li1058 1.970 . S
O1119 Li1059 1.956 . S
O1119 C1094 1.325 . S
H1120 C1062 0.929 . S
H1121 C1063 0.930 . S
H1122 C1064 0.930 . S
H1123 C1065 0.930 . S
H1124 C1067 0.930 . S
H1125 C1069 0.929 . S
H1126 C1070 0.930 . S
H1127 C1071 0.930 . S
H1128 C1074 0.930 . S
H1129 C1077 0.929 . S
H1130 C1082 0.929 . S
H1131 C1083 0.930 . S
H1132 C1090 0.929 . S
H1133 C1091 0.930 . S
H1134 C1092 0.930 . S
H1135 C1093 0.930 . S
H1136 C1095 0.929 . S
H1137 C1096 0.930 . S
H1138 C1097 0.930 . S
H1139 C1098 0.930 . S
H1140 C1102 0.929 . S
H1141 C1104 0.930 . S
H1142 C1110 0.929 . S
H1143 C1111 0.930 . S
Li1144 N1161 1.990 . S
Li1144 O1204 1.956 1_655 S
Li1144 O1205 1.970 1_655 S
Li1144 O1206 1.961 . S
Li1145 N1169 1.990 . S
Li1145 O1204 1.970 . S
Li1145 O1205 1.956 . S
Li1145 O1207 1.961 . S
Li1146 N1191 1.990 . S
Li1146 O1204 1.961 . S
Li1146 O1206 1.956 1_455 S
Li1146 O1207 1.970 . S
Li1147 N1197 1.990 . S
Li1147 O1205 1.961 . S
Li1147 O1206 1.970 1_455 S
Li1147 O1207 1.956 . S
C1148 C1150 1.348 . S
C1148 C1151 1.356 1_455 S
C1148 O1204 1.325 . S
N1149 C1152 1.314 . S
N1149 C1153 1.279 1_455 S
C1150 C1148 1.348 . S
C1150 C1152 1.353 . S
C1150 H1208 0.929 . S
C1151 C1148 1.356 1_655 S
C1151 C1153 1.358 . S
C1151 H1209 0.930 . S
C1152 N1149 1.314 . S
C1152 C1150 1.353 . S
C1152 H1210 0.930 . S
C1153 N1149 1.279 1_655 S
C1153 C1151 1.358 . S
C1153 H1211 0.930 . S
C1154 C1157 1.348 1_455 S
C1154 C1158 1.356 . S
C1154 O1205 1.325 . S
C1155 N1156 1.279 . S
C1155 C1158 1.358 . S
C1155 H1212 0.930 . S
N1156 C1155 1.279 . S
N1156 C1159 1.314 1_455 S
C1157 C1154 1.348 1_655 S
C1157 C1159 1.353 . S
C1157 H1213 0.929 . S
C1158 C1154 1.356 . S
C1158 C1155 1.358 . S
C1158 H1214 0.930 . S
C1159 N1156 1.314 1_655 S
C1159 C1157 1.353 . S
C1159 H1215 0.930 . S
C1160 N1161 1.314 . S
C1160 C1165 1.353 . S
C1160 H1166 0.930 . S
N1161 Li1144 1.990 . S
N1161 C1160 1.314 . S
N1161 C1163 1.279 . S
C1162 C1163 1.358 . S
C1162 C1164 1.356 . S
C1162 H1216 0.930 . S
C1163 N1161 1.279 . S
C1163 C1162 1.358 . S
C1163 H1167 0.930 . S
C1164 C1162 1.356 . S
C1164 C1165 1.348 . S
C1165 C1160 1.353 . S
C1165 C1164 1.348 . S
C1165 H1217 0.929 . S
H1166 C1160 0.930 . S
H1167 C1163 0.930 . S
C1168 N1169 1.314 . S
C1168 C1170 1.353 . S
C1168 H1174 0.930 . S
N1169 Li1145 1.990 . S
N1169 C1168 1.314 . S
N1169 C1172 1.279 . S
C1170 C1168 1.353 . S
C1170 C1173 1.348 . S
C1170 H1218 0.929 . S
C1171 C1172 1.358 . S
C1171 C1173 1.356 . S
C1171 H1219 0.930 . S
C1172 N1169 1.279 . S
C1172 C1171 1.358 . S
C1172 H1175 0.930 . S
C1173 C1170 1.348 . S
C1173 C1171 1.356 . S
H1174 C1168 0.930 . S
H1175 C1172 0.930 . S
C1176 C1178 1.348 . S
C1176 C1179 1.356 . S
C1176 O1206 1.325 . S
N1177 C1180 1.314 . S
N1177 C1181 1.279 . S
C1178 C1176 1.348 . S
C1178 C1180 1.353 . S
C1178 H1220 0.929 . S
C1179 C1176 1.356 . S
C1179 C1181 1.358 . S
C1179 H1221 0.930 . S
C1180 N1177 1.314 . S
C1180 C1178 1.353 . S
C1180 H1222 0.930 . S
C1181 N1177 1.279 . S
C1181 C1179 1.358 . S
C1181 H1223 0.930 . S
C1182 C1183 1.348 . S
C1182 C1184 1.356 . S
C1182 O1207 1.325 . S
C1183 C1182 1.348 . S
C1183 C1185 1.353 . S
C1183 H1224 0.929 . S
C1184 C1182 1.356 . S
C1184 C1186 1.358 . S
C1184 H1225 0.930 . S
C1185 C1183 1.353 . S
C1185 N1187 1.314 . S
C1185 H1226 0.930 . S
C1186 C1184 1.358 . S
C1186 N1187 1.279 . S
C1186 H1227 0.930 . S
N1187 C1185 1.314 . S
N1187 C1186 1.279 . S
C1188 C1190 1.353 . S
C1188 N1191 1.314 . S
C1188 H1194 0.930 . S
C1189 N1191 1.279 1_655 S
C1189 C1192 1.358 . S
C1189 H1195 0.930 . S
C1190 C1188 1.353 . S
C1190 C1193 1.348 . S
C1190 H1228 0.929 . S
N1191 Li1146 1.990 . S
N1191 C1188 1.314 . S
N1191 C1189 1.279 1_455 S
C1192 C1189 1.358 . S
C1192 C1193 1.356 1_655 S
C1192 H1229 0.930 . S
C1193 C1190 1.348 . S
C1193 C1192 1.356 1_455 S
H1194 C1188 0.930 . S
H1195 C1189 0.930 . S
C1196 N1197 1.314 1_655 S
C1196 C1198 1.353 . S
C1196 H1202 0.930 . S
N1197 Li1147 1.990 . S
N1197 C1196 1.314 1_455 S
N1197 C1200 1.279 . S
C1198 C1196 1.353 . S
C1198 C1201 1.348 1_655 S
C1198 H1230 0.929 . S
C1199 C1200 1.358 . S
C1199 C1201 1.356 . S
C1199 H1231 0.930 . S
C1200 N1197 1.279 . S
C1200 C1199 1.358 . S
C1200 H1203 0.930 . S
C1201 C1198 1.348 1_455 S
C1201 C1199 1.356 . S
H1202 C1196 0.930 . S
H1203 C1200 0.930 . S
O1204 Li1144 1.956 1_455 S
O1204 Li1145 1.970 . S
O1204 Li1146 1.961 . S
O1204 C1148 1.325 . S
O1205 Li1144 1.970 1_455 S
O1205 Li1145 1.956 . S
O1205 Li1147 1.961 . S
O1205 C1154 1.325 . S
O1206 Li1144 1.961 . S
O1206 Li1146 1.956 1_655 S
O1206 Li1147 1.970 1_655 S
O1206 C1176 1.325 . S
O1207 Li1145 1.961 . S
O1207 Li1146 1.970 . S
O1207 Li1147 1.956 . S
O1207 C1182 1.325 . S
H1208 C1150 0.929 . S
H1209 C1151 0.930 . S
H1210 C1152 0.930 . S
H1211 C1153 0.930 . S
H1212 C1155 0.930 . S
H1213 C1157 0.929 . S
H1214 C1158 0.930 . S
H1215 C1159 0.930 . S
H1216 C1162 0.930 . S
H1217 C1165 0.929 . S
H1218 C1170 0.929 . S
H1219 C1171 0.930 . S
H1220 C1178 0.929 . S
H1221 C1179 0.930 . S
H1222 C1180 0.930 . S
H1223 C1181 0.930 . S
H1224 C1183 0.929 . S
H1225 C1184 0.930 . S
H1226 C1185 0.930 . S
H1227 C1186 0.930 . S
H1228 C1190 0.929 . S
H1229 C1192 0.930 . S
H1230 C1198 0.929 . S
H1231 C1199 0.930 . S
Li1232 N1249 1.990 . S
Li1232 O1292 1.956 . S
Li1232 O1293 1.970 . S
Li1232 O1294 1.961 . S
Li1233 N1257 1.990 . S
Li1233 O1292 1.970 . S
Li1233 O1293 1.956 . S
Li1233 O1295 1.961 . S
Li1234 N1279 1.990 . S
Li1234 O1292 1.961 . S
Li1234 O1294 1.956 . S
Li1234 O1295 1.970 . S
Li1235 N1285 1.990 . S
Li1235 O1293 1.961 . S
Li1235 O1294 1.970 . S
Li1235 O1295 1.956 . S
C1236 C1238 1.348 . S
C1236 C1239 1.356 . S
C1236 O1292 1.325 . S
N1237 C1240 1.314 . S
N1237 C1241 1.279 . S
C1238 C1236 1.348 . S
C1238 C1240 1.353 . S
C1238 H1296 0.929 . S
C1239 C1236 1.356 . S
C1239 C1241 1.358 . S
C1239 H1297 0.930 . S
C1240 N1237 1.314 . S
C1240 C1238 1.353 . S
C1240 H1298 0.930 . S
C1241 N1237 1.279 . S
C1241 C1239 1.358 . S
C1241 H1299 0.930 . S
C1242 C1245 1.348 . S
C1242 C1246 1.356 . S
C1242 O1293 1.325 . S
C1243 N1244 1.279 . S
C1243 C1246 1.358 . S
C1243 H1300 0.930 . S
N1244 C1243 1.279 . S
N1244 C1247 1.314 . S
C1245 C1242 1.348 . S
C1245 C1247 1.353 . S
C1245 H1301 0.929 . S
C1246 C1242 1.356 . S
C1246 C1243 1.358 . S
C1246 H1302 0.930 . S
C1247 N1244 1.314 . S
C1247 C1245 1.353 . S
C1247 H1303 0.930 . S
C1248 N1249 1.314 . S
C1248 C1253 1.353 . S
C1248 H1254 0.930 . S
N1249 Li1232 1.990 . S
N1249 C1248 1.314 . S
N1249 C1251 1.279 . S
C1250 C1251 1.358 . S
C1250 C1252 1.356 . S
C1250 H1304 0.930 . S
C1251 N1249 1.279 . S
C1251 C1250 1.358 . S
C1251 H1255 0.930 . S
C1252 C1250 1.356 . S
C1252 C1253 1.348 . S
C1253 C1248 1.353 . S
C1253 C1252 1.348 . S
C1253 H1305 0.929 . S
H1254 C1248 0.930 . S
H1255 C1251 0.930 . S
C1256 N1257 1.314 . S
C1256 C1258 1.353 . S
C1256 H1262 0.930 . S
N1257 Li1233 1.990 . S
N1257 C1256 1.314 . S
N1257 C1260 1.279 . S
C1258 C1256 1.353 . S
C1258 C1261 1.348 . S
C1258 H1306 0.929 . S
C1259 C1260 1.358 . S
C1259 C1261 1.356 . S
C1259 H1307 0.930 . S
C1260 N1257 1.279 . S
C1260 C1259 1.358 . S
C1260 H1263 0.930 . S
C1261 C1258 1.348 . S
C1261 C1259 1.356 . S
H1262 C1256 0.930 . S
H1263 C1260 0.930 . S
C1264 C1266 1.348 . S
C1264 C1267 1.356 . S
C1264 O1294 1.325 . S
N1265 C1268 1.314 . S
N1265 C1269 1.279 . S
C1266 C1264 1.348 . S
C1266 C1268 1.353 . S
C1266 H1308 0.929 . S
C1267 C1264 1.356 . S
C1267 C1269 1.358 . S
C1267 H1309 0.930 . S
C1268 N1265 1.314 . S
C1268 C1266 1.353 . S
C1268 H1310 0.930 . S
C1269 N1265 1.279 . S
C1269 C1267 1.358 . S
C1269 H1311 0.930 . S
C1270 C1271 1.348 . S
C1270 C1272 1.356 . S
C1270 O1295 1.325 . S
C1271 C1270 1.348 . S
C1271 C1273 1.353 . S
C1271 H1312 0.929 . S
C1272 C1270 1.356 . S
C1272 C1274 1.358 . S
C1272 H1313 0.930 . S
C1273 C1271 1.353 . S
C1273 N1275 1.314 . S
C1273 H1314 0.930 . S
C1274 C1272 1.358 . S
C1274 N1275 1.279 . S
C1274 H1315 0.930 . S
N1275 C1273 1.314 . S
N1275 C1274 1.279 . S
C1276 C1278 1.353 . S
C1276 N1279 1.314 . S
C1276 H1282 0.930 . S
C1277 N1279 1.279 . S
C1277 C1280 1.358 . S
C1277 H1283 0.930 . S
C1278 C1276 1.353 . S
C1278 C1281 1.348 . S
C1278 H1316 0.929 . S
N1279 Li1234 1.990 . S
N1279 C1276 1.314 . S
N1279 C1277 1.279 . S
C1280 C1277 1.358 . S
C1280 C1281 1.356 . S
C1280 H1317 0.930 . S
C1281 C1278 1.348 . S
C1281 C1280 1.356 . S
H1282 C1276 0.930 . S
H1283 C1277 0.930 . S
C1284 N1285 1.314 . S
C1284 C1286 1.353 . S
C1284 H1290 0.930 . S
N1285 Li1235 1.990 . S
N1285 C1284 1.314 . S
N1285 C1288 1.279 . S
C1286 C1284 1.353 . S
C1286 C1289 1.348 . S
C1286 H1318 0.929 . S
C1287 C1288 1.358 . S
C1287 C1289 1.356 . S
C1287 H1319 0.930 . S
C1288 N1285 1.279 . S
C1288 C1287 1.358 . S
C1288 H1291 0.930 . S
C1289 C1286 1.348 . S
C1289 C1287 1.356 . S
H1290 C1284 0.930 . S
H1291 C1288 0.930 . S
O1292 Li1232 1.956 . S
O1292 Li1233 1.970 . S
O1292 Li1234 1.961 . S
O1292 C1236 1.325 . S
O1293 Li1232 1.970 . S
O1293 Li1233 1.956 . S
O1293 Li1235 1.961 . S
O1293 C1242 1.325 . S
O1294 Li1232 1.961 . S
O1294 Li1234 1.956 . S
O1294 Li1235 1.970 . S
O1294 C1264 1.325 . S
O1295 Li1233 1.961 . S
O1295 Li1234 1.970 . S
O1295 Li1235 1.956 . S
O1295 C1270 1.325 . S
H1296 C1238 0.929 . S
H1297 C1239 0.930 . S
H1298 C1240 0.930 . S
H1299 C1241 0.930 . S
H1300 C1243 0.930 . S
H1301 C1245 0.929 . S
H1302 C1246 0.930 . S
H1303 C1247 0.930 . S
H1304 C1250 0.930 . S
H1305 C1253 0.929 . S
H1306 C1258 0.929 . S
H1307 C1259 0.930 . S
H1308 C1266 0.929 . S
H1309 C1267 0.930 . S
H1310 C1268 0.930 . S
H1311 C1269 0.930 . S
H1312 C1271 0.929 . S
H1313 C1272 0.930 . S
H1314 C1273 0.930 . S
H1315 C1274 0.930 . S
H1316 C1278 0.929 . S
H1317 C1280 0.930 . S
H1318 C1286 0.929 . S
H1319 C1287 0.930 . S
Li1320 N1337 1.990 . S
Li1320 O1380 1.956 . S
Li1320 O1381 1.970 1_455 S
Li1320 O1382 1.961 . S
Li1321 N1345 1.990 . S
Li1321 O1380 1.970 . S
Li1321 O1381 1.956 1_455 S
Li1321 O1383 1.961 . S
Li1322 N1367 1.990 . S
Li1322 O1380 1.961 . S
Li1322 O1382 1.956 . S
Li1322 O1383 1.970 . S
Li1323 N1373 1.990 . S
Li1323 O1381 1.961 . S
Li1323 O1382 1.970 1_655 S
Li1323 O1383 1.956 1_655 S
C1324 C1326 1.348 . S
C1324 C1327 1.356 . S
C1324 O1380 1.325 . S
N1325 C1328 1.314 . S
N1325 C1329 1.279 . S
C1326 C1324 1.348 . S
C1326 C1328 1.353 . S
C1326 H1384 0.929 . S
C1327 C1324 1.356 . S
C1327 C1329 1.358 . S
C1327 H1385 0.930 . S
C1328 N1325 1.314 . S
C1328 C1326 1.353 . S
C1328 H1386 0.930 . S
C1329 N1325 1.279 . S
C1329 C1327 1.358 . S
C1329 H1387 0.930 . S
C1330 C1333 1.348 . S
C1330 C1334 1.356 . S
C1330 O1381 1.325 . S
C1331 N1332 1.279 . S
C1331 C1334 1.358 . S
C1331 H1388 0.930 . S
N1332 C1331 1.279 . S
N1332 C1335 1.314 . S
C1333 C1330 1.348 . S
C1333 C1335 1.353 . S
C1333 H1389 0.929 . S
C1334 C1330 1.356 . S
C1334 C1331 1.358 . S
C1334 H1390 0.930 . S
C1335 N1332 1.314 . S
C1335 C1333 1.353 . S
C1335 H1391 0.930 . S
C1336 N1337 1.314 1_655 S
C1336 C1341 1.353 . S
C1336 H1342 0.930 . S
N1337 Li1320 1.990 . S
N1337 C1336 1.314 1_455 S
N1337 C1339 1.279 . S
C1338 C1339 1.358 . S
C1338 C1340 1.356 . S
C1338 H1392 0.930 . S
C1339 N1337 1.279 . S
C1339 C1338 1.358 . S
C1339 H1343 0.930 . S
C1340 C1338 1.356 . S
C1340 C1341 1.348 1_455 S
C1341 C1336 1.353 . S
C1341 C1340 1.348 1_655 S
C1341 H1393 0.929 . S
H1342 C1336 0.930 . S
H1343 C1339 0.930 . S
C1344 N1345 1.314 . S
C1344 C1346 1.353 . S
C1344 H1350 0.930 . S
N1345 Li1321 1.990 . S
N1345 C1344 1.314 . S
N1345 C1348 1.279 1_455 S
C1346 C1344 1.353 . S
C1346 C1349 1.348 . S
C1346 H1394 0.929 . S
C1347 C1348 1.358 . S
C1347 C1349 1.356 1_655 S
C1347 H1395 0.930 . S
C1348 N1345 1.279 1_655 S
C1348 C1347 1.358 . S
C1348 H1351 0.930 . S
C1349 C1346 1.348 . S
C1349 C1347 1.356 1_455 S
H1350 C1344 0.930 . S
H1351 C1348 0.930 . S
C1352 C1354 1.348 1_455 S
C1352 C1355 1.356 . S
C1352 O1382 1.325 . S
N1353 C1356 1.314 1_455 S
N1353 C1357 1.279 . S
C1354 C1352 1.348 1_655 S
C1354 C1356 1.353 . S
C1354 H1396 0.929 . S
C1355 C1352 1.356 . S
C1355 C1357 1.358 . S
C1355 H1397 0.930 . S
C1356 N1353 1.314 1_655 S
C1356 C1354 1.353 . S
C1356 H1398 0.930 . S
C1357 N1353 1.279 . S
C1357 C1355 1.358 . S
C1357 H1399 0.930 . S
C1358 C1359 1.348 . S
C1358 C1360 1.356 1_455 S
C1358 O1383 1.325 . S
C1359 C1358 1.348 . S
C1359 C1361 1.353 . S
C1359 H1400 0.929 . S
C1360 C1358 1.356 1_655 S
C1360 C1362 1.358 . S
C1360 H1401 0.930 . S
C1361 C1359 1.353 . S
C1361 N1363 1.314 . S
C1361 H1402 0.930 . S
C1362 C1360 1.358 . S
C1362 N1363 1.279 1_655 S
C1362 H1403 0.930 . S
N1363 C1361 1.314 . S
N1363 C1362 1.279 1_455 S
C1364 C1366 1.353 . S
C1364 N1367 1.314 . S
C1364 H1370 0.930 . S
C1365 N1367 1.279 . S
C1365 C1368 1.358 . S
C1365 H1371 0.930 . S
C1366 C1364 1.353 . S
C1366 C1369 1.348 . S
C1366 H1404 0.929 . S
N1367 Li1322 1.990 . S
N1367 C1364 1.314 . S
N1367 C1365 1.279 . S
C1368 C1365 1.358 . S
C1368 C1369 1.356 . S
C1368 H1405 0.930 . S
C1369 C1366 1.348 . S
C1369 C1368 1.356 . S
H1370 C1364 0.930 . S
H1371 C1365 0.930 . S
C1372 N1373 1.314 . S
C1372 C1374 1.353 . S
C1372 H1378 0.930 . S
N1373 Li1323 1.990 . S
N1373 C1372 1.314 . S
N1373 C1376 1.279 . S
C1374 C1372 1.353 . S
C1374 C1377 1.348 . S
C1374 H1406 0.929 . S
C1375 C1376 1.358 . S
C1375 C1377 1.356 . S
C1375 H1407 0.930 . S
C1376 N1373 1.279 . S
C1376 C1375 1.358 . S
C1376 H1379 0.930 . S
C1377 C1374 1.348 . S
C1377 C1375 1.356 . S
H1378 C1372 0.930 . S
H1379 C1376 0.930 . S
O1380 Li1320 1.956 . S
O1380 Li1321 1.970 . S
O1380 Li1322 1.961 . S
O1380 C1324 1.325 . S
O1381 Li1320 1.970 1_655 S
O1381 Li1321 1.956 1_655 S
O1381 Li1323 1.961 . S
O1381 C1330 1.325 . S
O1382 Li1320 1.961 . S
O1382 Li1322 1.956 . S
O1382 Li1323 1.970 1_455 S
O1382 C1352 1.325 . S
O1383 Li1321 1.961 . S
O1383 Li1322 1.970 . S
O1383 Li1323 1.956 1_455 S
O1383 C1358 1.325 . S
H1384 C1326 0.929 . S
H1385 C1327 0.930 . S
H1386 C1328 0.930 . S
H1387 C1329 0.930 . S
H1388 C1331 0.930 . S
H1389 C1333 0.929 . S
H1390 C1334 0.930 . S
H1391 C1335 0.930 . S
H1392 C1338 0.930 . S
H1393 C1341 0.929 . S
H1394 C1346 0.929 . S
H1395 C1347 0.930 . S
H1396 C1354 0.929 . S
H1397 C1355 0.930 . S
H1398 C1356 0.930 . S
H1399 C1357 0.930 . S
H1400 C1359 0.929 . S
H1401 C1360 0.930 . S
H1402 C1361 0.930 . S
H1403 C1362 0.930 . S
H1404 C1366 0.929 . S
H1405 C1368 0.930 . S
H1406 C1374 0.929 . S
H1407 C1375 0.930 . S
C1408 C1409 1.387 . S
C1408 H1412 0.950 . S
C1408 C1417 1.390 . S
C1409 C1408 1.387 . S
C1409 C1411 1.387 . S
H1410 C1417 0.950 . S
C1411 C1409 1.387 . S
C1411 C1413 1.390 . S
C1411 H1415 0.950 . S
H1412 C1408 0.950 . S
C1413 C1411 1.390 . S
C1413 C1414 1.387 . S
C1413 H1416 0.950 . S
C1414 C1413 1.387 . S
C1414 C1417 1.387 . S
H1415 C1411 0.950 . S
H1416 C1413 0.950 . S
C1417 C1408 1.390 . S
C1417 H1410 0.950 . S
C1417 C1414 1.387 . S
C1418 C1419 1.387 . S
C1418 H1422 0.950 . S
C1418 C1427 1.390 1_655 S
C1419 C1418 1.387 . S
C1419 C1421 1.387 . S
H1420 C1427 0.950 . S
C1421 C1419 1.387 . S
C1421 C1423 1.390 1_655 S
C1421 H1425 0.950 . S
H1422 C1418 0.950 . S
C1423 C1421 1.390 1_455 S
C1423 C1424 1.387 . S
C1423 H1426 0.950 . S
C1424 C1423 1.387 . S
C1424 C1427 1.387 . S
H1425 C1421 0.950 . S
H1426 C1423 0.950 . S
C1427 C1418 1.390 1_455 S
C1427 H1420 0.950 . S
C1427 C1424 1.387 . S
C1428 C1429 1.387 . S
C1428 H1432 0.950 . S
C1428 C1437 1.390 . S
C1429 C1428 1.387 . S
C1429 C1431 1.387 . S
H1430 C1437 0.950 . S
C1431 C1429 1.387 . S
C1431 C1433 1.390 . S
C1431 H1435 0.950 . S
H1432 C1428 0.950 . S
C1433 C1431 1.390 . S
C1433 C1434 1.387 . S
C1433 H1436 0.950 . S
C1434 C1433 1.387 . S
C1434 C1437 1.387 . S
H1435 C1431 0.950 . S
H1436 C1433 0.950 . S
C1437 C1428 1.390 . S
C1437 H1430 0.950 . S
C1437 C1434 1.387 . S
C1438 C1439 1.387 . S
C1438 H1442 0.950 . S
C1438 C1447 1.390 . S
C1439 C1438 1.387 . S
C1439 C1441 1.387 . S
H1440 C1447 0.950 . S
C1441 C1439 1.387 . S
C1441 C1443 1.390 . S
C1441 H1445 0.950 . S
H1442 C1438 0.950 . S
C1443 C1441 1.390 . S
C1443 C1444 1.387 . S
C1443 H1446 0.950 . S
C1444 C1443 1.387 . S
C1444 C1447 1.387 . S
H1445 C1441 0.950 . S
H1446 C1443 0.950 . S
C1447 C1438 1.390 . S
C1447 H1440 0.950 . S
C1447 C1444 1.387 . S
C1448 C1449 1.387 . S
C1448 H1452 0.950 . S
C1448 C1457 1.390 . S
C1449 C1448 1.387 . S
C1449 C1451 1.387 . S
H1450 C1457 0.950 . S
C1451 C1449 1.387 . S
C1451 C1453 1.390 . S
C1451 H1455 0.950 . S
H1452 C1448 0.950 . S
C1453 C1451 1.390 . S
C1453 C1454 1.387 . S
C1453 H1456 0.950 . S
C1454 C1453 1.387 . S
C1454 C1457 1.387 . S
H1455 C1451 0.950 . S
H1456 C1453 0.950 . S
C1457 C1448 1.390 . S
C1457 H1450 0.950 . S
C1457 C1454 1.387 . S
C1458 C1459 1.387 . S
C1458 H1462 0.950 . S
C1458 C1467 1.390 . S
C1459 C1458 1.387 . S
C1459 C1461 1.387 . S
H1460 C1467 0.950 . S
C1461 C1459 1.387 . S
C1461 C1463 1.390 . S
C1461 H1465 0.950 . S
H1462 C1458 0.950 . S
C1463 C1461 1.390 . S
C1463 C1464 1.387 . S
C1463 H1466 0.950 . S
C1464 C1463 1.387 . S
C1464 C1467 1.387 . S
H1465 C1461 0.950 . S
H1466 C1463 0.950 . S
C1467 C1458 1.390 . S
C1467 H1460 0.950 . S
C1467 C1464 1.387 . S
C1468 C1469 1.387 . S
C1468 H1472 0.950 . S
C1468 C1477 1.390 . S
C1469 C1468 1.387 . S
C1469 C1471 1.387 . S
H1470 C1477 0.950 . S
C1471 C1469 1.387 . S
C1471 C1473 1.390 . S
C1471 H1475 0.950 . S
H1472 C1468 0.950 . S
C1473 C1471 1.390 . S
C1473 C1474 1.387 . S
C1473 H1476 0.950 . S
C1474 C1473 1.387 . S
C1474 C1477 1.387 . S
H1475 C1471 0.950 . S
H1476 C1473 0.950 . S
C1477 C1468 1.390 . S
C1477 H1470 0.950 . S
C1477 C1474 1.387 . S
C1478 C1479 1.387 . S
C1478 H1482 0.950 . S
C1478 C1487 1.390 1_455 S
C1479 C1478 1.387 . S
C1479 C1481 1.387 . S
H1480 C1487 0.950 . S
C1481 C1479 1.387 . S
C1481 C1483 1.390 1_455 S
C1481 H1485 0.950 . S
H1482 C1478 0.950 . S
C1483 C1481 1.390 1_655 S
C1483 C1484 1.387 . S
C1483 H1486 0.950 . S
C1484 C1483 1.387 . S
C1484 C1487 1.387 . S
H1485 C1481 0.950 . S
H1486 C1483 0.950 . S
C1487 C1478 1.390 1_655 S
C1487 H1480 0.950 . S
C1487 C1484 1.387 . S
C1488 C1489 1.387 . S
C1488 H1492 0.950 . S
C1488 C1497 1.390 1_565 S
C1489 C1488 1.387 . S
C1489 C1491 1.387 1_455 S
H1490 C1497 0.950 . S
C1491 C1489 1.387 1_655 S
C1491 C1493 1.390 1_565 S
C1491 H1495 0.950 . S
H1492 C1488 0.950 . S
C1493 C1491 1.390 1_545 S
C1493 C1494 1.387 1_655 S
C1493 H1496 0.950 . S
C1494 C1493 1.387 1_455 S
C1494 C1497 1.387 . S
H1495 C1491 0.950 . S
H1496 C1493 0.950 . S
C1497 C1488 1.390 1_545 S
C1497 H1490 0.950 . S
C1497 C1494 1.387 . S
C1498 C1499 1.387 . S
C1498 H1502 0.950 . S
C1498 C1507 1.390 . S
C1499 C1498 1.387 . S
C1499 C1501 1.387 . S
H1500 C1507 0.950 . S
C1501 C1499 1.387 . S
C1501 C1503 1.390 . S
C1501 H1505 0.950 . S
H1502 C1498 0.950 . S
C1503 C1501 1.390 . S
C1503 C1504 1.387 . S
C1503 H1506 0.950 . S
C1504 C1503 1.387 . S
C1504 C1507 1.387 . S
H1505 C1501 0.950 . S
H1506 C1503 0.950 . S
C1507 C1498 1.390 . S
C1507 H1500 0.950 . S
C1507 C1504 1.387 . S
C1508 C1509 1.387 . S
C1508 H1512 0.950 . S
C1508 C1517 1.390 1_564 S
C1509 C1508 1.387 . S
C1509 C1511 1.387 . S
H1510 C1517 0.950 . S
C1511 C1509 1.387 . S
C1511 C1513 1.390 1_564 S
C1511 H1515 0.950 . S
H1512 C1508 0.950 . S
C1513 C1511 1.390 1_546 S
C1513 C1514 1.387 . S
C1513 H1516 0.950 . S
C1514 C1513 1.387 . S
C1514 C1517 1.387 . S
H1515 C1511 0.950 . S
H1516 C1513 0.950 . S
C1517 C1508 1.390 1_546 S
C1517 H1510 0.950 . S
C1517 C1514 1.387 . S
C1518 C1519 1.387 . S
C1518 H1522 0.950 . S
C1518 C1527 1.390 . S
C1519 C1518 1.387 . S
C1519 C1521 1.387 . S
H1520 C1527 0.950 . S
C1521 C1519 1.387 . S
C1521 C1523 1.390 . S
C1521 H1525 0.950 . S
H1522 C1518 0.950 . S
C1523 C1521 1.390 . S
C1523 C1524 1.387 . S
C1523 H1526 0.950 . S
C1524 C1523 1.387 . S
C1524 C1527 1.387 . S
H1525 C1521 0.950 . S
H1526 C1523 0.950 . S
C1527 C1518 1.390 . S
C1527 H1520 0.950 . S
C1527 C1524 1.387 . S
C1528 C1529 1.387 . S
C1528 H1532 0.950 . S
C1528 C1537 1.390 . S
C1529 C1528 1.387 . S
C1529 C1531 1.387 . S
H1530 C1537 0.950 . S
C1531 C1529 1.387 . S
C1531 C1533 1.390 . S
C1531 H1535 0.950 . S
H1532 C1528 0.950 . S
C1533 C1531 1.390 . S
C1533 C1534 1.387 . S
C1533 H1536 0.950 . S
C1534 C1533 1.387 . S
C1534 C1537 1.387 . S
H1535 C1531 0.950 . S
H1536 C1533 0.950 . S
C1537 C1528 1.390 . S
C1537 H1530 0.950 . S
C1537 C1534 1.387 . S
C1538 C1539 1.387 . S
C1538 H1542 0.950 . S
C1538 C1547 1.390 . S
C1539 C1538 1.387 . S
C1539 C1541 1.387 . S
H1540 C1547 0.950 . S
C1541 C1539 1.387 . S
C1541 C1543 1.390 . S
C1541 H1545 0.950 . S
H1542 C1538 0.950 . S
C1543 C1541 1.390 . S
C1543 C1544 1.387 . S
C1543 H1546 0.950 . S
C1544 C1543 1.387 . S
C1544 C1547 1.387 . S
H1545 C1541 0.950 . S
H1546 C1543 0.950 . S
C1547 C1538 1.390 . S
C1547 H1540 0.950 . S
C1547 C1544 1.387 . S
C1548 C1549 1.387 . S
C1548 H1552 0.950 . S
C1548 C1557 1.390 1_556 S
C1549 C1548 1.387 . S
C1549 C1551 1.387 . S
H1550 C1557 0.950 . S
C1551 C1549 1.387 . S
C1551 C1553 1.390 1_556 S
C1551 H1555 0.950 . S
H1552 C1548 0.950 . S
C1553 C1551 1.390 1_554 S
C1553 C1554 1.387 . S
C1553 H1556 0.950 . S
C1554 C1553 1.387 . S
C1554 C1557 1.387 . S
H1555 C1551 0.950 . S
H1556 C1553 0.950 . S
C1557 C1548 1.390 1_554 S
C1557 H1550 0.950 . S
C1557 C1554 1.387 . S
C1558 C1559 1.387 . S
C1558 H1562 0.950 . S
C1558 C1567 1.390 . S
C1559 C1558 1.387 . S
C1559 C1561 1.387 1_455 S
H1560 C1567 0.950 . S
C1561 C1559 1.387 1_655 S
C1561 C1563 1.390 . S
C1561 H1565 0.950 . S
H1562 C1558 0.950 . S
C1563 C1561 1.390 . S
C1563 C1564 1.387 1_655 S
C1563 H1566 0.950 . S
C1564 C1563 1.387 1_455 S
C1564 C1567 1.387 . S
H1565 C1561 0.950 . S
H1566 C1563 0.950 . S
C1567 C1558 1.390 . S
C1567 H1560 0.950 . S
C1567 C1564 1.387 . S
C1568 C1569 1.387 . S
C1568 H1572 0.950 . S
C1568 C1577 1.390 . S
C1569 C1568 1.387 . S
C1569 C1571 1.387 . S
H1570 C1577 0.950 . S
C1571 C1569 1.387 . S
C1571 C1573 1.390 . S
C1571 H1575 0.950 . S
H1572 C1568 0.950 . S
C1573 C1571 1.390 . S
C1573 C1574 1.387 . S
C1573 H1576 0.950 . S
C1574 C1573 1.387 . S
C1574 C1577 1.387 . S
H1575 C1571 0.950 . S
H1576 C1573 0.950 . S
C1577 C1568 1.390 . S
C1577 H1570 0.950 . S
C1577 C1574 1.387 . S
C1578 C1579 1.387 . S
C1578 H1582 0.950 . S
C1578 C1587 1.390 . S
C1579 C1578 1.387 . S
C1579 C1581 1.387 . S
H1580 C1587 0.950 . S
C1581 C1579 1.387 . S
C1581 C1583 1.390 . S
C1581 H1585 0.950 . S
H1582 C1578 0.950 . S
C1583 C1581 1.390 . S
C1583 C1584 1.387 . S
C1583 H1586 0.950 . S
C1584 C1583 1.387 . S
C1584 C1587 1.387 . S
H1585 C1581 0.950 . S
H1586 C1583 0.950 . S
C1587 C1578 1.390 . S
C1587 H1580 0.950 . S
C1587 C1584 1.387 . S
C1588 C1589 1.387 . S
C1588 H1592 0.950 . S
C1588 C1597 1.390 . S
C1589 C1588 1.387 . S
C1589 C1591 1.387 . S
H1590 C1597 0.950 . S
C1591 C1589 1.387 . S
C1591 C1593 1.390 . S
C1591 H1595 0.950 . S
H1592 C1588 0.950 . S
C1593 C1591 1.390 . S
C1593 C1594 1.387 . S
C1593 H1596 0.950 . S
C1594 C1593 1.387 . S
C1594 C1597 1.387 . S
H1595 C1591 0.950 . S
H1596 C1593 0.950 . S
C1597 C1588 1.390 . S
C1597 H1590 0.950 . S
C1597 C1594 1.387 . S
C1598 C1599 1.387 . S
C1598 H1602 0.950 . S
C1598 C1607 1.390 . S
C1599 C1598 1.387 . S
C1599 C1601 1.387 . S
H1600 C1607 0.950 . S
C1601 C1599 1.387 . S
C1601 C1603 1.390 . S
C1601 H1605 0.950 . S
H1602 C1598 0.950 . S
C1603 C1601 1.390 . S
C1603 C1604 1.387 . S
C1603 H1606 0.950 . S
C1604 C1603 1.387 . S
C1604 C1607 1.387 . S
H1605 C1601 0.950 . S
H1606 C1603 0.950 . S
C1607 C1598 1.390 . S
C1607 H1600 0.950 . S
C1607 C1604 1.387 . S
C1608 C1609 1.387 . S
C1608 H1612 0.950 . S
C1608 C1617 1.390 . S
C1609 C1608 1.387 . S
C1609 C1611 1.387 . S
H1610 C1617 0.950 . S
C1611 C1609 1.387 . S
C1611 C1613 1.390 . S
C1611 H1615 0.950 . S
H1612 C1608 0.950 . S
C1613 C1611 1.390 . S
C1613 C1614 1.387 . S
C1613 H1616 0.950 . S
C1614 C1613 1.387 . S
C1614 C1617 1.387 . S
H1615 C1611 0.950 . S
H1616 C1613 0.950 . S
C1617 C1608 1.390 . S
C1617 H1610 0.950 . S
C1617 C1614 1.387 . S
C1618 C1619 1.387 . S
C1618 H1622 0.950 . S
C1618 C1627 1.390 . S
C1619 C1618 1.387 . S
C1619 C1621 1.387 . S
H1620 C1627 0.950 . S
C1621 C1619 1.387 . S
C1621 C1623 1.390 . S
C1621 H1625 0.950 . S
H1622 C1618 0.950 . S
C1623 C1621 1.390 . S
C1623 C1624 1.387 . S
C1623 H1626 0.950 . S
C1624 C1623 1.387 . S
C1624 C1627 1.387 . S
H1625 C1621 0.950 . S
H1626 C1623 0.950 . S
C1627 C1618 1.390 . S
C1627 H1620 0.950 . S
C1627 C1624 1.387 . S
C1628 C1629 1.387 . S
C1628 H1632 0.950 . S
C1628 C1637 1.390 . S
C1629 C1628 1.387 . S
C1629 C1631 1.387 . S
H1630 C1637 0.950 . S
C1631 C1629 1.387 . S
C1631 C1633 1.390 . S
C1631 H1635 0.950 . S
H1632 C1628 0.950 . S
C1633 C1631 1.390 . S
C1633 C1634 1.387 . S
C1633 H1636 0.950 . S
C1634 C1633 1.387 . S
C1634 C1637 1.387 . S
H1635 C1631 0.950 . S
H1636 C1633 0.950 . S
C1637 C1628 1.390 . S
C1637 H1630 0.950 . S
C1637 C1634 1.387 . S
C1638 C1639 1.387 . S
C1638 H1642 0.950 . S
C1638 C1647 1.390 . S
C1639 C1638 1.387 . S
C1639 C1641 1.387 . S
H1640 C1647 0.950 . S
C1641 C1639 1.387 . S
C1641 C1643 1.390 . S
C1641 H1645 0.950 . S
H1642 C1638 0.950 . S
C1643 C1641 1.390 . S
C1643 C1644 1.387 . S
C1643 H1646 0.950 . S
C1644 C1643 1.387 . S
C1644 C1647 1.387 . S
H1645 C1641 0.950 . S
H1646 C1643 0.950 . S
C1647 C1638 1.390 . S
C1647 H1640 0.950 . S
C1647 C1644 1.387 . S
C1648 C1649 1.387 . S
C1648 H1652 0.950 . S
C1648 C1657 1.390 . S
C1649 C1648 1.387 . S
C1649 C1651 1.387 . S
H1650 C1657 0.950 . S
C1651 C1649 1.387 . S
C1651 C1653 1.390 . S
C1651 H1655 0.950 . S
H1652 C1648 0.950 . S
C1653 C1651 1.390 . S
C1653 C1654 1.387 . S
C1653 H1656 0.950 . S
C1654 C1653 1.387 . S
C1654 C1657 1.387 . S
H1655 C1651 0.950 . S
H1656 C1653 0.950 . S
C1657 C1648 1.390 . S
C1657 H1650 0.950 . S
C1657 C1654 1.387 . S
C1658 C1659 1.387 . S
C1658 H1662 0.950 . S
C1658 C1667 1.390 . S
C1659 C1658 1.387 . S
C1659 C1661 1.387 . S
H1660 C1667 0.950 . S
C1661 C1659 1.387 . S
C1661 C1663 1.390 . S
C1661 H1665 0.950 . S
H1662 C1658 0.950 . S
C1663 C1661 1.390 . S
C1663 C1664 1.387 . S
C1663 H1666 0.950 . S
C1664 C1663 1.387 . S
C1664 C1667 1.387 . S
H1665 C1661 0.950 . S
H1666 C1663 0.950 . S
C1667 C1658 1.390 . S
C1667 H1660 0.950 . S
C1667 C1664 1.387 . S
C1668 C1669 1.387 . S
C1668 H1672 0.950 . S
C1668 C1677 1.390 . S
C1669 C1668 1.387 . S
C1669 C1671 1.387 . S
H1670 C1677 0.950 . S
C1671 C1669 1.387 . S
C1671 C1673 1.390 . S
C1671 H1675 0.950 . S
H1672 C1668 0.950 . S
C1673 C1671 1.390 . S
C1673 C1674 1.387 . S
C1673 H1676 0.950 . S
C1674 C1673 1.387 . S
C1674 C1677 1.387 . S
H1675 C1671 0.950 . S
H1676 C1673 0.950 . S
C1677 C1668 1.390 . S
C1677 H1670 0.950 . S
C1677 C1674 1.387 . S
C1678 C1679 1.387 . S
C1678 H1682 0.950 . S
C1678 C1687 1.390 . S
C1679 C1678 1.387 . S
C1679 C1681 1.387 . S
H1680 C1687 0.950 . S
C1681 C1679 1.387 . S
C1681 C1683 1.390 . S
C1681 H1685 0.950 . S
H1682 C1678 0.950 . S
C1683 C1681 1.390 . S
C1683 C1684 1.387 . S
C1683 H1686 0.950 . S
C1684 C1683 1.387 . S
C1684 C1687 1.387 . S
H1685 C1681 0.950 . S
H1686 C1683 0.950 . S
C1687 C1678 1.390 . S
C1687 H1680 0.950 . S
C1687 C1684 1.387 . S
C1688 C1689 1.387 . S
C1688 H1692 0.950 . S
C1688 C1697 1.390 . S
C1689 C1688 1.387 . S
C1689 C1691 1.387 . S
H1690 C1697 0.950 . S
C1691 C1689 1.387 . S
C1691 C1693 1.390 . S
C1691 H1695 0.950 . S
H1692 C1688 0.950 . S
C1693 C1691 1.390 . S
C1693 C1694 1.387 . S
C1693 H1696 0.950 . S
C1694 C1693 1.387 . S
C1694 C1697 1.387 . S
H1695 C1691 0.950 . S
H1696 C1693 0.950 . S
C1697 C1688 1.390 . S
C1697 H1690 0.950 . S
C1697 C1694 1.387 . S
C1698 C1699 1.387 . S
C1698 H1702 0.950 . S
C1698 C1707 1.390 . S
C1699 C1698 1.387 . S
C1699 C1701 1.387 . S
H1700 C1707 0.950 . S
C1701 C1699 1.387 . S
C1701 C1703 1.390 . S
C1701 H1705 0.950 . S
H1702 C1698 0.950 . S
C1703 C1701 1.390 . S
C1703 C1704 1.387 . S
C1703 H1706 0.950 . S
C1704 C1703 1.387 . S
C1704 C1707 1.387 . S
H1705 C1701 0.950 . S
H1706 C1703 0.950 . S
C1707 C1698 1.390 . S
C1707 H1700 0.950 . S
C1707 C1704 1.387 . S
C1708 C1709 1.387 . S
C1708 H1712 0.950 . S
C1708 C1717 1.390 . S
C1709 C1708 1.387 . S
C1709 C1711 1.387 . S
H1710 C1717 0.950 . S
C1711 C1709 1.387 . S
C1711 C1713 1.390 . S
C1711 H1715 0.950 . S
H1712 C1708 0.950 . S
C1713 C1711 1.390 . S
C1713 C1714 1.387 . S
C1713 H1716 0.950 . S
C1714 C1713 1.387 . S
C1714 C1717 1.387 . S
H1715 C1711 0.950 . S
H1716 C1713 0.950 . S
C1717 C1708 1.390 . S
C1717 H1710 0.950 . S
C1717 C1714 1.387 . S
C1718 C1719 1.387 . S
C1718 H1722 0.950 . S
C1718 C1727 1.390 . S
C1719 C1718 1.387 . S
C1719 C1721 1.387 . S
H1720 C1727 0.950 . S
C1721 C1719 1.387 . S
C1721 C1723 1.390 . S
C1721 H1725 0.950 . S
H1722 C1718 0.950 . S
C1723 C1721 1.390 . S
C1723 C1724 1.387 . S
C1723 H1726 0.950 . S
C1724 C1723 1.387 . S
C1724 C1727 1.387 . S
H1725 C1721 0.950 . S
H1726 C1723 0.950 . S
C1727 C1718 1.390 . S
C1727 H1720 0.950 . S
C1727 C1724 1.387 . S
C1409 C29 0.877 . S
C1414 C1201 0.877 . S
C1419 C997 0.883 . S
C1424 C117 0.883 . S
C1429 C1085 0.876 . S
C1434 C225 0.876 . S
C1439 C900 0.883 . S
C1444 C293 0.883 . S
C1449 C401 0.877 . S
C1454 C1340 0.877 . S
C1459 C489 0.883 . S
C1464 C849 0.883 . S
C1469 C1281 0.876 . S
C1474 C548 0.876 . S
C1479 C673 0.883 . S
C1484 C761 0.883 . S
C1489 C409 1.662 . S
C1494 C20 1.662 . S
C1499 C137 1.665 . S
C1504 C469 1.665 . S
C1509 C233 1.662 . S
C1514 C557 1.662 . S
C1519 C636 1.665 . S
C1524 C313 1.665 . S
C1529 C724 1.664 . S
C1534 C937 1.664 . S
C1539 C812 1.665 . S
C1544 C1017 1.665 . S
C1549 C1289 1.662 . S
C1554 C1076 1.662 . S
C1559 C1193 1.662 . S
C1564 C1349 1.662 . S
C1569 C460 1.381 . S
C1574 C49 1.375 . S
C1579 C145 1.379 . S
C1584 C585 1.376 . S
C1589 C205 1.375 . S
C1594 C645 1.381 . S
C1599 C381 1.375 . S
C1604 C321 1.381 . S
C1609 C372 1.378 . S
C1614 C909 1.374 . S
C1619 C196 1.379 . S
C1624 C753 1.374 . S
C1629 C988 1.374 . S
C1634 C577 1.378 . S
C1639 C841 1.377 . S
C1644 C57 1.377 . S
C1649 C733 1.380 . S
C1654 C1105 1.377 . S
C1659 C929 1.381 . S
C1664 C1377 1.375 . S
C1669 C1164 1.376 . S
C1674 C821 1.379 . S
C1679 C1025 1.381 . S
C1684 C1261 1.375 . S
C1689 C1252 1.377 . S
C1694 C108 1.376 . S
C1699 C1173 1.379 . S
C1704 C497 1.374 . S
C1709 C1369 1.377 . S
C1714 C284 1.376 . S
C1719 C1113 1.379 . S
C1724 C665 1.374 . S
