# Generated by pormake.
# Topology hbo, (4)-cn, num edge types: 1
# Building blocks:
#     Node 0, Type 0, BuildingBlock: KUFVIS_clean_sbu_0, # of connection points: 4
#     Node 1, Type 0, BuildingBlock: KUFVIS_clean_sbu_0, # of connection points: 4
#     Node 2, Type 0, BuildingBlock: KUFVIS_clean_sbu_0, # of connection points: 4
#     Node 3, Type 0, BuildingBlock: KUFVIS_clean_sbu_0, # of connection points: 4
#     Node 4, Type 0, BuildingBlock: KUFVIS_clean_sbu_0, # of connection points: 4
#     Node 5, Type 0, BuildingBlock: KUFVIS_clean_sbu_0, # of connection points: 4
#     Node 6, Type 0, BuildingBlock: KUFVIS_clean_sbu_0, # of connection points: 4
#     Node 7, Type 0, BuildingBlock: KUFVIS_clean_sbu_0, # of connection points: 4
#     Node 8, Type 0, BuildingBlock: KUFVIS_clean_sbu_0, # of connection points: 4
#     Node 9, Type 0, BuildingBlock: KUFVIS_clean_sbu_0, # of connection points: 4
#     Node 10, Type 0, BuildingBlock: KUFVIS_clean_sbu_0, # of connection points: 4
#     Node 11, Type 0, BuildingBlock: KUFVIS_clean_sbu_0, # of connection points: 4
#     Node 12, Type 0, BuildingBlock: KUFVIS_clean_sbu_0, # of connection points: 4
#     Node 13, Type 0, BuildingBlock: KUFVIS_clean_sbu_0, # of connection points: 4
#     Node 14, Type 0, BuildingBlock: KUFVIS_clean_sbu_0, # of connection points: 4
#     Node 15, Type 0, BuildingBlock: KUFVIS_clean_sbu_0, # of connection points: 4
#     Node 16, Type 0, BuildingBlock: KUFVIS_clean_sbu_0, # of connection points: 4
#     Node 17, Type 0, BuildingBlock: KUFVIS_clean_sbu_0, # of connection points: 4
#     Node 18, Type 0, BuildingBlock: KUFVIS_clean_sbu_0, # of connection points: 4
#     Node 19, Type 0, BuildingBlock: KUFVIS_clean_sbu_0, # of connection points: 4
#     Node 20, Type 0, BuildingBlock: KUFVIS_clean_sbu_0, # of connection points: 4
#     Node 21, Type 0, BuildingBlock: KUFVIS_clean_sbu_0, # of connection points: 4
#     Node 22, Type 0, BuildingBlock: KUFVIS_clean_sbu_0, # of connection points: 4
#     Node 23, Type 0, BuildingBlock: KUFVIS_clean_sbu_0, # of connection points: 4
#     Edge 24, Type (0, 0), BuildingBlock: AJUNOK_clean_linker_0, # of connection points: 2
#     Edge 25, Type (0, 0), BuildingBlock: AJUNOK_clean_linker_0, # of connection points: 2
#     Edge 26, Type (0, 0), BuildingBlock: AJUNOK_clean_linker_0, # of connection points: 2
#     Edge 27, Type (0, 0), BuildingBlock: AJUNOK_clean_linker_0, # of connection points: 2
#     Edge 28, Type (0, 0), BuildingBlock: AJUNOK_clean_linker_0, # of connection points: 2
#     Edge 29, Type (0, 0), BuildingBlock: AJUNOK_clean_linker_0, # of connection points: 2
#     Edge 30, Type (0, 0), BuildingBlock: AJUNOK_clean_linker_0, # of connection points: 2
#     Edge 31, Type (0, 0), BuildingBlock: AJUNOK_clean_linker_0, # of connection points: 2
#     Edge 32, Type (0, 0), BuildingBlock: AJUNOK_clean_linker_0, # of connection points: 2
#     Edge 33, Type (0, 0), BuildingBlock: AJUNOK_clean_linker_0, # of connection points: 2
#     Edge 34, Type (0, 0), BuildingBlock: AJUNOK_clean_linker_0, # of connection points: 2
#     Edge 35, Type (0, 0), BuildingBlock: AJUNOK_clean_linker_0, # of connection points: 2
#     Edge 36, Type (0, 0), BuildingBlock: AJUNOK_clean_linker_0, # of connection points: 2
#     Edge 37, Type (0, 0), BuildingBlock: AJUNOK_clean_linker_0, # of connection points: 2
#     Edge 38, Type (0, 0), BuildingBlock: AJUNOK_clean_linker_0, # of connection points: 2
#     Edge 39, Type (0, 0), BuildingBlock: AJUNOK_clean_linker_0, # of connection points: 2
#     Edge 40, Type (0, 0), BuildingBlock: AJUNOK_clean_linker_0, # of connection points: 2
#     Edge 41, Type (0, 0), BuildingBlock: AJUNOK_clean_linker_0, # of connection points: 2
#     Edge 42, Type (0, 0), BuildingBlock: AJUNOK_clean_linker_0, # of connection points: 2
#     Edge 43, Type (0, 0), BuildingBlock: AJUNOK_clean_linker_0, # of connection points: 2
#     Edge 44, Type (0, 0), BuildingBlock: AJUNOK_clean_linker_0, # of connection points: 2
#     Edge 45, Type (0, 0), BuildingBlock: AJUNOK_clean_linker_0, # of connection points: 2
#     Edge 46, Type (0, 0), BuildingBlock: AJUNOK_clean_linker_0, # of connection points: 2
#     Edge 47, Type (0, 0), BuildingBlock: AJUNOK_clean_linker_0, # of connection points: 2
#     Edge 48, Type (0, 0), BuildingBlock: AJUNOK_clean_linker_0, # of connection points: 2
#     Edge 49, Type (0, 0), BuildingBlock: AJUNOK_clean_linker_0, # of connection points: 2
#     Edge 50, Type (0, 0), BuildingBlock: AJUNOK_clean_linker_0, # of connection points: 2
#     Edge 51, Type (0, 0), BuildingBlock: AJUNOK_clean_linker_0, # of connection points: 2
#     Edge 52, Type (0, 0), BuildingBlock: AJUNOK_clean_linker_0, # of connection points: 2
#     Edge 53, Type (0, 0), BuildingBlock: AJUNOK_clean_linker_0, # of connection points: 2
#     Edge 54, Type (0, 0), BuildingBlock: AJUNOK_clean_linker_0, # of connection points: 2
#     Edge 55, Type (0, 0), BuildingBlock: AJUNOK_clean_linker_0, # of connection points: 2
#     Edge 56, Type (0, 0), BuildingBlock: AJUNOK_clean_linker_0, # of connection points: 2
#     Edge 57, Type (0, 0), BuildingBlock: AJUNOK_clean_linker_0, # of connection points: 2
#     Edge 58, Type (0, 0), BuildingBlock: AJUNOK_clean_linker_0, # of connection points: 2
#     Edge 59, Type (0, 0), BuildingBlock: AJUNOK_clean_linker_0, # of connection points: 2
#     Edge 60, Type (0, 0), BuildingBlock: AJUNOK_clean_linker_0, # of connection points: 2
#     Edge 61, Type (0, 0), BuildingBlock: AJUNOK_clean_linker_0, # of connection points: 2
#     Edge 62, Type (0, 0), BuildingBlock: AJUNOK_clean_linker_0, # of connection points: 2
#     Edge 63, Type (0, 0), BuildingBlock: AJUNOK_clean_linker_0, # of connection points: 2
#     Edge 64, Type (0, 0), BuildingBlock: AJUNOK_clean_linker_0, # of connection points: 2
#     Edge 65, Type (0, 0), BuildingBlock: AJUNOK_clean_linker_0, # of connection points: 2
#     Edge 66, Type (0, 0), BuildingBlock: AJUNOK_clean_linker_0, # of connection points: 2
#     Edge 67, Type (0, 0), BuildingBlock: AJUNOK_clean_linker_0, # of connection points: 2
#     Edge 68, Type (0, 0), BuildingBlock: AJUNOK_clean_linker_0, # of connection points: 2
#     Edge 69, Type (0, 0), BuildingBlock: AJUNOK_clean_linker_0, # of connection points: 2
#     Edge 70, Type (0, 0), BuildingBlock: AJUNOK_clean_linker_0, # of connection points: 2
#     Edge 71, Type (0, 0), BuildingBlock: AJUNOK_clean_linker_0, # of connection points: 2
# Relax obj value: 0.253
# Max RMSD: 0.306
# Mean RMSD: 0.266
data_MOF--net-hbo--node1-KUFVIS_clean_sbu_0--edge1-AJUNOK_clean_linker_0
_symmetry_space_group_name_H-M    P1
_symmetry_Int_Tables_number       1
_symmetry_cell_setting            triclinic
loop_
_symmetry_equiv_pos_as_xyz
'x, y, z'
_cell_length_a     37.629011
_cell_length_b     38.697495
_cell_length_c     38.732322
_cell_angle_alpha  91.302553
_cell_angle_beta   89.81495
_cell_angle_gamma 95.269189
loop_
_atom_site_label
_atom_site_type_symbol
_atom_site_fract_x
_atom_site_fract_y
_atom_site_fract_z
_atom_type_partial_charge
Mn0 Mn 0.14544 0.34434 0.27561 0.0
Mn1 Mn 0.14555 0.37142 0.19338 0.0
C2 C 0.19526 0.34271 0.24086 0.0
C3 C 0.14022 0.29956 0.31507 0.0
C4 C 0.1531 0.42037 0.25505 0.0
O5 O 0.09212 0.34545 0.26664 0.0
O6 O 0.0964 0.36479 0.21202 0.0
C7 C 0.11038 0.30687 0.16175 0.0
N8 N 0.13875 0.33135 0.16354 0.0
C9 C 0.16955 0.30227 0.11848 0.0
C10 C 0.14055 0.27685 0.116 0.0
C11 C 0.11086 0.27916 0.13775 0.0
C12 C 0.16744 0.3294 0.14271 0.0
H13 H 0.08761 0.30846 0.17857 0.0
C14 C 0.07838 0.35633 0.23917 0.0
O15 O 0.13926 0.33171 0.32529 0.0
O16 O 0.14071 0.29351 0.28209 0.0
N17 N 0.1917 0.37887 0.17247 0.0
C18 C 0.21776 0.40509 0.1787 0.0
C19 C 0.24955 0.4063 0.15948 0.0
C20 C 0.25412 0.38069 0.13397 0.0
C21 C 0.22665 0.35433 0.1276 0.0
C22 C 0.1954 0.3547 0.14729 0.0
H23 H 0.21441 0.42473 0.1984 0.0
O24 O 0.19845 0.34351 0.27413 0.0
O25 O 0.16317 0.34306 0.229 0.0
O26 O 0.14989 0.3975 0.27835 0.0
O27 O 0.15331 0.41361 0.22262 0.0
C28 C 0.22921 0.32746 0.10279 0.0
C29 C 0.20069 0.30143 0.09826 0.0
H30 H 0.14091 0.25531 0.09768 0.0
H31 H 0.08845 0.25955 0.13609 0.0
H32 H 0.27059 0.42678 0.1645 0.0
H33 H 0.27884 0.38148 0.11947 0.0
H34 H 0.25311 0.3264 0.08727 0.0
H35 H 0.20311 0.28073 0.07934 0.0
Mn36 Mn 0.14854 0.64219 0.73645 0.0
Mn37 Mn 0.11355 0.61309 0.81077 0.0
C38 C 0.18653 0.6381 0.78267 0.0
C39 C 0.15982 0.6896 0.70152 0.0
C40 C 0.12545 0.56756 0.74738 0.0
O41 O 0.09523 0.64319 0.73031 0.0
O42 O 0.07752 0.6374 0.78563 0.0
C43 C 0.10017 0.67701 0.85033 0.0
N44 N 0.11612 0.64689 0.84766 0.0
C45 C 0.13644 0.65293 0.90655 0.0
C46 C 0.12027 0.68407 0.90987 0.0
C47 C 0.10223 0.69626 0.88155 0.0
C48 C 0.13405 0.63522 0.87457 0.0
H49 H 0.08618 0.68628 0.82876 0.0
C50 C 0.07215 0.64491 0.75414 0.0
O51 O 0.15735 0.65825 0.68834 0.0
O52 O 0.15502 0.69292 0.73449 0.0
N53 N 0.1459 0.58942 0.83765 0.0
C54 C 0.15918 0.55845 0.83056 0.0
C55 C 0.17622 0.54174 0.85663 0.0
C56 C 0.17932 0.55686 0.88985 0.0
C57 C 0.16656 0.5893 0.89638 0.0
C58 C 0.14955 0.60464 0.86936 0.0
H59 H 0.15589 0.5459 0.80558 0.0
O60 O 0.19851 0.64079 0.75131 0.0
O61 O 0.15224 0.63946 0.78623 0.0
O62 O 0.14437 0.58974 0.72989 0.0
O63 O 0.10957 0.57515 0.77539 0.0
C64 C 0.16895 0.60645 0.92891 0.0
C65 C 0.15431 0.63847 0.93386 0.0
H66 H 0.12149 0.69879 0.93402 0.0
H67 H 0.08972 0.7203 0.88385 0.0
H68 H 0.18618 0.51686 0.85126 0.0
H69 H 0.19116 0.54304 0.9102 0.0
H70 H 0.18179 0.59517 0.95037 0.0
H71 H 0.1564 0.65144 0.95895 0.0
Mn72 Mn 0.84691 0.65227 0.27368 0.0
Mn73 Mn 0.87742 0.64439 0.35428 0.0
C74 C 0.84718 0.69816 0.31242 0.0
C75 C 0.80147 0.6476 0.2333 0.0
C76 C 0.92586 0.65269 0.29207 0.0
O77 O 0.84533 0.60053 0.27862 0.0
O78 O 0.86609 0.59701 0.3331 0.0
C79 C 0.81133 0.61279 0.3868 0.0
N80 N 0.83758 0.63938 0.38506 0.0
C81 C 0.81114 0.67062 0.43146 0.0
C82 C 0.78396 0.64346 0.4339 0.0
C83 C 0.78406 0.61443 0.41146 0.0
C84 C 0.83783 0.66736 0.40664 0.0
H85 H 0.81115 0.59057 0.36939 0.0
C86 C 0.85421 0.58336 0.30438 0.0
O87 O 0.83463 0.64764 0.22392 0.0
O88 O 0.79474 0.64916 0.26615 0.0
N89 N 0.88883 0.68845 0.37694 0.0
C90 C 0.91622 0.71294 0.37033 0.0
C91 C 0.91948 0.74403 0.38996 0.0
C92 C 0.89453 0.74961 0.4161 0.0
C93 C 0.86663 0.72395 0.42249 0.0
C94 C 0.86495 0.69336 0.40232 0.0
H95 H 0.93524 0.70888 0.35003 0.0
O96 O 0.8479 0.70348 0.27944 0.0
O97 O 0.84727 0.66598 0.32148 0.0
O98 O 0.90096 0.65504 0.27038 0.0
O99 O 0.92031 0.64977 0.32449 0.0
C100 C 0.84014 0.72774 0.44773 0.0
C101 C 0.81243 0.70108 0.45224 0.0
H102 H 0.76269 0.64478 0.45266 0.0
H103 H 0.76304 0.59347 0.41303 0.0
H104 H 0.94102 0.76374 0.3848 0.0
H105 H 0.89694 0.77375 0.43096 0.0
H106 H 0.84067 0.75116 0.46366 0.0
H107 H 0.79207 0.70441 0.47156 0.0
Mn108 Mn 0.84782 0.35947 0.71531 0.0
Mn109 Mn 0.88927 0.37211 0.63922 0.0
C110 C 0.85171 0.31313 0.67776 0.0
C111 C 0.79903 0.35696 0.7519 0.0
C112 C 0.92873 0.36273 0.70495 0.0
O113 O 0.84814 0.41103 0.71066 0.0
O114 O 0.8825 0.41742 0.6632 0.0
C115 C 0.83075 0.40433 0.60459 0.0
N116 N 0.85414 0.37948 0.60521 0.0
C117 C 0.83474 0.35718 0.5492 0.0
C118 C 0.81057 0.38262 0.54791 0.0
C119 C 0.80845 0.40617 0.57581 0.0
C120 C 0.85606 0.35642 0.5787 0.0
H121 H 0.82913 0.42265 0.62581 0.0
C122 C 0.86536 0.42966 0.6886 0.0
O123 O 0.8313 0.36228 0.76376 0.0
O124 O 0.79508 0.35448 0.71859 0.0
N125 N 0.89777 0.33173 0.61232 0.0
C126 C 0.9223 0.30867 0.61775 0.0
C127 C 0.92834 0.28388 0.59196 0.0
C128 C 0.90893 0.28289 0.56095 0.0
C129 C 0.88351 0.30657 0.55612 0.0
C130 C 0.87926 0.33122 0.58242 0.0
H131 H 0.93767 0.30964 0.6413 0.0
O132 O 0.84815 0.309 0.71078 0.0
O133 O 0.85279 0.3451 0.66704 0.0
O134 O 0.90136 0.36364 0.72411 0.0
O135 O 0.92738 0.36409 0.67211 0.0
C136 C 0.86275 0.30711 0.52595 0.0
C137 C 0.83819 0.33226 0.52259 0.0
H138 H 0.79337 0.38417 0.52573 0.0
H139 H 0.78977 0.42581 0.57507 0.0
H140 H 0.94837 0.26602 0.59581 0.0
H141 H 0.91405 0.26422 0.54074 0.0
H142 H 0.86541 0.28825 0.50521 0.0
H143 H 0.82212 0.33222 0.49944 0.0
Mn144 Mn 0.25864 0.15198 0.36721 0.0
Mn145 Mn 0.34091 0.12509 0.37581 0.0
C146 C 0.2977 0.15356 0.32092 0.0
C147 C 0.21712 0.19347 0.36927 0.0
C148 C 0.27669 0.07626 0.35936 0.0
O149 O 0.26338 0.1514 0.41945 0.0
O150 O 0.31416 0.1256 0.41977 0.0
C151 C 0.3684 0.18687 0.41796 0.0
N152 N 0.3719 0.16474 0.39052 0.0
C153 C 0.42941 0.19347 0.37643 0.0
C154 C 0.42655 0.21625 0.40474 0.0
C155 C 0.39579 0.21307 0.42545 0.0
C156 C 0.40107 0.16806 0.37006 0.0
H157 H 0.34496 0.18463 0.43408 0.0
C158 C 0.28766 0.13726 0.4353 0.0
O159 O 0.20723 0.16052 0.3706 0.0
O160 O 0.25123 0.20239 0.36844 0.0
N161 N 0.37203 0.12325 0.33683 0.0
C162 C 0.37096 0.09907 0.31078 0.0
C163 C 0.3998 0.09849 0.28791 0.0
C164 C 0.42954 0.1229 0.29177 0.0
C165 C 0.43054 0.1471 0.31924 0.0
C166 C 0.40129 0.14587 0.34179 0.0
H167 H 0.34847 0.08019 0.30778 0.0
O168 O 0.26355 0.15298 0.31633 0.0
O169 O 0.30889 0.15483 0.35286 0.0
O170 O 0.2543 0.09863 0.36503 0.0
O171 O 0.31055 0.08339 0.36015 0.0
C172 C 0.45967 0.17199 0.32549 0.0
C173 C 0.45904 0.19528 0.35399 0.0
H174 H 0.44766 0.23645 0.41065 0.0
H175 H 0.39325 0.23069 0.44724 0.0
H176 H 0.39937 0.0786 0.26802 0.0
H177 H 0.45177 0.12236 0.274 0.0
H178 H 0.48262 0.17355 0.30846 0.0
H179 H 0.48139 0.21458 0.35832 0.0
Mn180 Mn 0.36211 0.73681 0.84519 0.0
Mn181 Mn 0.36323 0.65688 0.87826 0.0
C182 C 0.30958 0.70041 0.84813 0.0
C183 C 0.36874 0.77442 0.79875 0.0
C184 C 0.36683 0.72336 0.92154 0.0
O185 O 0.41498 0.72922 0.84596 0.0
O186 O 0.4112 0.67337 0.86171 0.0
C187 C 0.37862 0.61609 0.81527 0.0
N188 N 0.35777 0.6212 0.84338 0.0
C189 C 0.321 0.56816 0.83133 0.0
C190 C 0.34207 0.56225 0.80223 0.0
C191 C 0.37091 0.58641 0.79409 0.0
C192 C 0.32985 0.59826 0.85133 0.0
H193 H 0.40098 0.63451 0.80917 0.0
C194 C 0.42905 0.70116 0.85197 0.0
O195 O 0.37239 0.78566 0.83047 0.0
O196 O 0.36281 0.74107 0.79395 0.0
N197 N 0.31846 0.63741 0.8956 0.0
C198 C 0.2999 0.6479 0.9236 0.0
C199 C 0.27087 0.62628 0.93587 0.0
C200 C 0.26144 0.59411 0.91933 0.0
C201 C 0.28021 0.58434 0.88989 0.0
C202 C 0.30924 0.6067 0.87923 0.0
H203 H 0.30772 0.67216 0.93699 0.0
O204 O 0.30907 0.73368 0.84492 0.0
O205 O 0.34109 0.68909 0.84836 0.0
O206 O 0.36219 0.74436 0.89757 0.0
O207 O 0.36888 0.69094 0.91669 0.0
C208 C 0.27162 0.55317 0.87094 0.0
C209 C 0.29146 0.54551 0.8412 0.0
H210 H 0.33627 0.53934 0.7859 0.0
H211 H 0.38727 0.58206 0.77166 0.0
H212 H 0.25627 0.63402 0.95844 0.0
H213 H 0.2401 0.57699 0.92986 0.0
H214 H 0.24979 0.53493 0.87888 0.0
H215 H 0.28405 0.52189 0.82637 0.0
Mn216 Mn 0.73096 0.85242 0.35876 0.0
Mn217 Mn 0.64967 0.88211 0.36613 0.0
C218 C 0.69428 0.85171 0.31061 0.0
C219 C 0.76806 0.80752 0.36259 0.0
C220 C 0.71806 0.92912 0.35835 0.0
O221 O 0.7237 0.85429 0.41073 0.0
O222 O 0.66902 0.87286 0.41224 0.0
C223 C 0.60988 0.81892 0.39351 0.0
N224 N 0.61338 0.84451 0.36985 0.0
C225 C 0.55607 0.82585 0.34511 0.0
C226 C 0.55167 0.79944 0.36939 0.0
C227 C 0.57884 0.79579 0.39351 0.0
C228 C 0.58779 0.84777 0.34608 0.0
H229 H 0.63056 0.81627 0.41227 0.0
C230 C 0.69633 0.86277 0.42718 0.0
O231 O 0.78088 0.83983 0.36444 0.0
O232 O 0.73372 0.80151 0.35957 0.0
N233 N 0.62663 0.8923 0.32428 0.0
C234 C 0.63531 0.9189 0.30251 0.0
C235 C 0.61057 0.92693 0.27765 0.0
C236 C 0.57734 0.90727 0.27516 0.0
C237 C 0.56942 0.87934 0.29712 0.0
C238 C 0.59475 0.8732 0.32204 0.0
H239 H 0.6605 0.9345 0.30473 0.0
O240 O 0.72848 0.85048 0.30772 0.0
O241 O 0.68179 0.85203 0.34215 0.0
O242 O 0.73947 0.90543 0.35748 0.0
O243 O 0.68441 0.92286 0.36197 0.0
C244 C 0.53699 0.85802 0.29596 0.0
C245 C 0.53045 0.83106 0.31974 0.0
H246 H 0.5277 0.78167 0.36958 0.0
H247 H 0.57574 0.77538 0.41221 0.0
H248 H 0.61687 0.94873 0.26102 0.0
H249 H 0.55784 0.91419 0.25668 0.0
H250 H 0.51692 0.86209 0.27684 0.0
H251 H 0.5056 0.81458 0.31837 0.0
Mn252 Mn 0.63044 0.26197 0.8391 0.0
Mn253 Mn 0.63763 0.34439 0.87048 0.0
C254 C 0.68247 0.29769 0.83275 0.0
C255 C 0.62038 0.22199 0.79325 0.0
C256 C 0.64047 0.28177 0.91548 0.0
O257 O 0.57832 0.27098 0.84637 0.0
O258 O 0.58666 0.32658 0.86622 0.0
C259 C 0.60667 0.37919 0.81188 0.0
N260 N 0.63477 0.37549 0.83313 0.0
C261 C 0.67087 0.42104 0.8048 0.0
C262 C 0.64226 0.42546 0.78272 0.0
C263 C 0.61004 0.4044 0.78626 0.0
C264 C 0.66585 0.39568 0.83002 0.0
H265 H 0.58189 0.36302 0.81447 0.0
C266 C 0.56656 0.29904 0.85802 0.0
O267 O 0.6194 0.21205 0.8251 0.0
O268 O 0.62381 0.25513 0.78843 0.0
N269 N 0.68595 0.36413 0.87528 0.0
C270 C 0.71103 0.3564 0.89848 0.0
C271 C 0.74498 0.37479 0.89806 0.0
C272 C 0.75273 0.40099 0.87392 0.0
C273 C 0.72636 0.40872 0.85055 0.0
C274 C 0.69293 0.3897 0.85236 0.0
H275 H 0.70523 0.33619 0.91699 0.0
O276 O 0.68313 0.26427 0.83187 0.0
O277 O 0.65157 0.30907 0.83805 0.0
O278 O 0.63656 0.25858 0.89154 0.0
O279 O 0.64143 0.31433 0.91045 0.0
C280 C 0.73202 0.43436 0.82537 0.0
C281 C 0.7043 0.44052 0.80252 0.0
H282 H 0.6448 0.44476 0.76284 0.0
H283 H 0.58789 0.40756 0.76922 0.0
H284 H 0.76518 0.36869 0.91621 0.0
H285 H 0.77902 0.41496 0.87353 0.0
H286 H 0.75764 0.44937 0.82327 0.0
H287 H 0.709 0.46025 0.78321 0.0
Mn288 Mn 0.27663 0.8547 0.64494 0.0
Mn289 Mn 0.19174 0.86862 0.62682 0.0
C290 C 0.2331 0.80897 0.64146 0.0
C291 C 0.31944 0.84926 0.68727 0.0
C292 C 0.25083 0.86962 0.57311 0.0
O293 O 0.27605 0.90678 0.65267 0.0
O294 O 0.21754 0.91252 0.6445 0.0
C295 C 0.16567 0.88245 0.69749 0.0
N296 N 0.16309 0.86333 0.66751 0.0
C297 C 0.11376 0.82627 0.6896 0.0
C298 C 0.11569 0.84575 0.72062 0.0
C299 C 0.14177 0.87395 0.72457 0.0
C300 C 0.13797 0.83626 0.66334 0.0
H301 H 0.18595 0.90389 0.70077 0.0
C302 C 0.24934 0.92498 0.65226 0.0
O303 O 0.32895 0.85506 0.65545 0.0
O304 O 0.28583 0.84841 0.69443 0.0
N305 N 0.16426 0.82775 0.60973 0.0
C306 C 0.16762 0.81019 0.57917 0.0
C307 C 0.14446 0.78043 0.57171 0.0
C308 C 0.11812 0.76906 0.59572 0.0
C309 C 0.11504 0.78768 0.6269 0.0
C310 C 0.13859 0.8174 0.63273 0.0
H311 H 0.18805 0.81862 0.56077 0.0
O312 O 0.26644 0.80354 0.63834 0.0
O313 O 0.22653 0.84096 0.64691 0.0
O314 O 0.27583 0.861 0.59248 0.0
O315 O 0.21926 0.87372 0.58372 0.0
C316 C 0.09007 0.77748 0.65276 0.0
C317 C 0.08941 0.79677 0.68407 0.0
H318 H 0.09758 0.83904 0.74172 0.0
H319 H 0.1436 0.88896 0.74853 0.0
H320 H 0.14709 0.76612 0.54765 0.0
H321 H 0.1006 0.74583 0.59006 0.0
H322 H 0.07158 0.75456 0.64902 0.0
H323 H 0.07043 0.78836 0.70395 0.0
Mn324 Mn 0.6498 0.7399 0.1474 0.0
Mn325 Mn 0.62858 0.81737 0.12037 0.0
C326 C 0.64534 0.78421 0.1875 0.0
C327 C 0.69207 0.70151 0.15719 0.0
C328 C 0.57352 0.75717 0.13375 0.0
O329 O 0.65594 0.73548 0.09597 0.0
O330 O 0.64141 0.78767 0.08033 0.0
C331 C 0.70096 0.84257 0.0963 0.0
N332 N 0.67163 0.8472 0.11596 0.0
C333 C 0.69627 0.90401 0.13486 0.0
C334 C 0.72671 0.89994 0.11472 0.0
C335 C 0.72914 0.869 0.0955 0.0
C336 C 0.66934 0.87654 0.13504 0.0
H337 H 0.70278 0.81893 0.0813 0.0
C338 C 0.65106 0.75751 0.07311 0.0
O339 O 0.6587 0.69044 0.15292 0.0
O340 O 0.70087 0.73454 0.15456 0.0
N341 N 0.61538 0.84983 0.15481 0.0
C342 C 0.58401 0.8497 0.17244 0.0
C343 C 0.57626 0.87951 0.19113 0.0
C344 C 0.60094 0.90905 0.19171 0.0
C345 C 0.63344 0.90829 0.17414 0.0
C346 C 0.63921 0.8782 0.15508 0.0
H347 H 0.5646 0.82737 0.17145 0.0
O348 O 0.64429 0.75206 0.19635 0.0
O349 O 0.65159 0.79015 0.15475 0.0
O350 O 0.59557 0.73557 0.1419 0.0
O351 O 0.58307 0.78837 0.12518 0.0
C352 C 0.6599 0.93654 0.17398 0.0
C353 C 0.6915 0.93424 0.15467 0.0
H354 H 0.74836 0.92039 0.11382 0.0
H355 H 0.75256 0.86563 0.07994 0.0
H356 H 0.55094 0.87991 0.20436 0.0
H357 H 0.59439 0.93245 0.20512 0.0
H358 H 0.65623 0.96012 0.18865 0.0
H359 H 0.71178 0.956 0.15494 0.0
Mn360 Mn 0.72891 0.14597 0.63797 0.0
Mn361 Mn 0.81085 0.12312 0.61704 0.0
C362 C 0.77576 0.18885 0.63229 0.0
C363 C 0.68656 0.15459 0.68097 0.0
C364 C 0.75168 0.128 0.56465 0.0
O365 O 0.72418 0.09371 0.64451 0.0
O366 O 0.78096 0.08272 0.63505 0.0
C367 C 0.83561 0.10958 0.68753 0.0
N368 N 0.84082 0.12578 0.65685 0.0
C369 C 0.89928 0.1503 0.67406 0.0
C370 C 0.89474 0.13364 0.70577 0.0
C371 C 0.86265 0.11338 0.71261 0.0
C372 C 0.87123 0.14587 0.65028 0.0
H373 H 0.81103 0.09388 0.69274 0.0
C374 C 0.74878 0.07315 0.6435 0.0
O375 O 0.67711 0.14899 0.64894 0.0
O376 O 0.72014 0.15414 0.68799 0.0
N377 N 0.84374 0.15871 0.59896 0.0
C378 C 0.84338 0.17372 0.5675 0.0
C379 C 0.87393 0.19374 0.55604 0.0
C380 C 0.90449 0.19799 0.577 0.0
C381 C 0.90385 0.18326 0.6097 0.0
C382 C 0.87298 0.16289 0.61936 0.0
H383 H 0.82036 0.1696 0.55084 0.0
O384 O 0.74279 0.19603 0.63201 0.0
O385 O 0.78069 0.15656 0.63826 0.0
O386 O 0.72821 0.13886 0.58513 0.0
O387 O 0.78229 0.12027 0.57447 0.0
C388 C 0.93288 0.18741 0.6328 0.0
C389 C 0.93042 0.17129 0.66516 0.0
H390 H 0.9156 0.13637 0.7251 0.0
H391 H 0.85886 0.10058 0.73708 0.0
H392 H 0.87422 0.20519 0.53079 0.0
H393 H 0.92852 0.21215 0.56752 0.0
H394 H 0.95709 0.20315 0.62606 0.0
H395 H 0.95269 0.17506 0.68292 0.0
Mn396 Mn 0.34858 0.23863 0.15699 0.0
Mn397 Mn 0.37341 0.16292 0.12915 0.0
C398 C 0.3614 0.19929 0.1969 0.0
C399 C 0.30532 0.27458 0.17238 0.0
C400 C 0.42542 0.22479 0.13836 0.0
O401 O 0.33235 0.23712 0.10827 0.0
O402 O 0.36268 0.1934 0.0898 0.0
C403 C 0.30149 0.1385 0.10221 0.0
N404 N 0.32989 0.13375 0.12275 0.0
C405 C 0.30233 0.07857 0.14105 0.0
C406 C 0.27283 0.08291 0.12011 0.0
C407 C 0.27237 0.11307 0.1007 0.0
C408 C 0.33034 0.10505 0.1419 0.0
H409 H 0.301 0.16143 0.08699 0.0
C410 C 0.34573 0.21994 0.08427 0.0
O411 O 0.33671 0.28759 0.16251 0.0
O412 O 0.29925 0.24111 0.17263 0.0
N413 N 0.38505 0.13008 0.16246 0.0
C414 C 0.41604 0.12929 0.18035 0.0
C415 C 0.42183 0.09977 0.19917 0.0
C416 C 0.39562 0.07149 0.19958 0.0
C417 C 0.36371 0.0731 0.18147 0.0
C418 C 0.35985 0.10281 0.16239 0.0
H419 H 0.43654 0.15069 0.17958 0.0
O420 O 0.36404 0.23238 0.20369 0.0
O421 O 0.35059 0.18964 0.1656 0.0
O422 O 0.40124 0.24572 0.14215 0.0
O423 O 0.41861 0.19183 0.13623 0.0
C424 C 0.33598 0.04603 0.1809 0.0
C425 C 0.30514 0.04891 0.16095 0.0
H426 H 0.25043 0.06323 0.11867 0.0
H427 H 0.24971 0.11662 0.08444 0.0
H428 H 0.44663 0.0986 0.21297 0.0
H429 H 0.40033 0.04855 0.21378 0.0
H430 H 0.33814 0.02284 0.19562 0.0
H431 H 0.28394 0.02798 0.16077 0.0
Mn432 Mn 0.84814 0.64758 0.72328 0.0
Mn433 Mn 0.87527 0.61279 0.79633 0.0
C434 C 0.8073 0.63615 0.76767 0.0
C435 C 0.84347 0.69684 0.69063 0.0
C436 C 0.86341 0.57309 0.72817 0.0
O437 O 0.90235 0.65289 0.72007 0.0
O438 O 0.91598 0.64019 0.77482 0.0
C439 C 0.89444 0.67516 0.84041 0.0
N440 N 0.8756 0.64371 0.83542 0.0
C441 C 0.85345 0.64422 0.89372 0.0
C442 C 0.87276 0.67656 0.89959 0.0
C443 C 0.89314 0.69221 0.87272 0.0
C444 C 0.85546 0.62869 0.86088 0.0
H445 H 0.91027 0.68705 0.81987 0.0
C446 C 0.92436 0.65151 0.74482 0.0
O447 O 0.84353 0.66627 0.67612 0.0
O448 O 0.84665 0.69879 0.72398 0.0
N449 N 0.8381 0.5857 0.81981 0.0
C450 C 0.81908 0.55577 0.80904 0.0
C451 C 0.7969 0.537 0.83256 0.0
C452 C 0.79492 0.54896 0.86694 0.0
C453 C 0.81408 0.58029 0.87723 0.0
C454 C 0.83566 0.59788 0.85262 0.0
H455 H 0.82129 0.54595 0.7829 0.0
O456 O 0.79682 0.64108 0.7364 0.0
O457 O 0.84167 0.63959 0.77231 0.0
O458 O 0.84796 0.59581 0.71214 0.0
O459 O 0.87632 0.57786 0.75847 0.0
C460 C 0.81302 0.59459 0.91098 0.0
C461 C 0.83222 0.62679 0.91908 0.0
H462 H 0.87199 0.68969 0.92455 0.0
H463 H 0.90801 0.71722 0.877 0.0
H464 H 0.78192 0.51302 0.8244 0.0
H465 H 0.77879 0.53367 0.88516 0.0
H466 H 0.79747 0.58117 0.93095 0.0
H467 H 0.83056 0.63784 0.94491 0.0
Mn468 Mn 0.85262 0.36565 0.25516 0.0
Mn469 Mn 0.87547 0.41221 0.18473 0.0
C470 C 0.81015 0.37121 0.21256 0.0
C471 C 0.84919 0.31456 0.28577 0.0
C472 C 0.86122 0.44416 0.25496 0.0
O473 O 0.90682 0.36933 0.25634 0.0
O474 O 0.91864 0.39611 0.20612 0.0
C475 C 0.90375 0.35917 0.13854 0.0
N476 N 0.88014 0.38326 0.14467 0.0
C477 C 0.85849 0.37769 0.08622 0.0
C478 C 0.88244 0.35269 0.07932 0.0
C479 C 0.90503 0.34326 0.10566 0.0
C480 C 0.85802 0.39224 0.11963 0.0
H481 H 0.92159 0.35231 0.15854 0.0
C482 C 0.92849 0.38131 0.23327 0.0
O483 O 0.85017 0.34467 0.30125 0.0
O484 O 0.85094 0.31415 0.25223 0.0
N485 N 0.83626 0.42912 0.16127 0.0
C486 C 0.81556 0.45441 0.17191 0.0
C487 C 0.79265 0.46799 0.14833 0.0
C488 C 0.79155 0.45563 0.114 0.0
C489 C 0.81229 0.42888 0.10379 0.0
C490 C 0.83488 0.41661 0.1284 0.0
H491 H 0.81741 0.46503 0.19784 0.0
O492 O 0.80091 0.36347 0.24397 0.0
O493 O 0.84444 0.37513 0.2067 0.0
O494 O 0.85199 0.41619 0.27031 0.0
O495 O 0.87141 0.44548 0.22361 0.0
C496 C 0.81241 0.41478 0.06993 0.0
C497 C 0.83522 0.38893 0.06124 0.0
H498 H 0.88372 0.34057 0.05392 0.0
H499 H 0.92362 0.32403 0.10051 0.0
H500 H 0.7767 0.48864 0.15634 0.0
H501 H 0.77547 0.46766 0.09553 0.0
H502 H 0.79522 0.42375 0.05031 0.0
H503 H 0.835 0.3782 0.03516 0.0
Mn504 Mn 0.14655 0.34868 0.75144 0.0
Mn505 Mn 0.11476 0.38026 0.82562 0.0
C506 C 0.18348 0.35444 0.79935 0.0
C507 C 0.15039 0.30107 0.71423 0.0
C508 C 0.13532 0.42397 0.76322 0.0
O509 O 0.09333 0.34716 0.74391 0.0
O510 O 0.07385 0.35958 0.79733 0.0
C511 C 0.08388 0.31691 0.85996 0.0
N512 N 0.10736 0.34586 0.86006 0.0
C513 C 0.12446 0.33685 0.91874 0.0
C514 C 0.10055 0.30684 0.91927 0.0
C515 C 0.0803 0.29674 0.88969 0.0
C516 C 0.12713 0.35568 0.88827 0.0
H517 H 0.0679 0.30945 0.83742 0.0
C518 C 0.06832 0.35123 0.76545 0.0
O519 O 0.15381 0.33256 0.70294 0.0
O520 O 0.14478 0.29738 0.74705 0.0
N521 N 0.15148 0.40135 0.85511 0.0
C522 C 0.17361 0.43068 0.85004 0.0
C523 C 0.19529 0.44462 0.87725 0.0
C524 C 0.19353 0.42854 0.90939 0.0
C525 C 0.1715 0.39772 0.91366 0.0
C526 C 0.15046 0.38509 0.88565 0.0
H527 H 0.1742 0.44368 0.82565 0.0
O528 O 0.19649 0.3513 0.76847 0.0
O529 O 0.14872 0.35273 0.80133 0.0
O530 O 0.1502 0.40131 0.74538 0.0
O531 O 0.12085 0.41813 0.79256 0.0
C532 C 0.16905 0.37942 0.94475 0.0
C533 C 0.14575 0.34884 0.94721 0.0
H534 H 0.09759 0.29131 0.9422 0.0
H535 H 0.06179 0.27363 0.88991 0.0
H536 H 0.21279 0.46806 0.87377 0.0
H537 H 0.20871 0.44051 0.93073 0.0
H538 H 0.18496 0.3886 0.96693 0.0
H539 H 0.14425 0.33487 0.97116 0.0
Mn540 Mn 0.14753 0.64019 0.25887 0.0
Mn541 Mn 0.11412 0.60066 0.18661 0.0
C542 C 0.1847 0.63653 0.21166 0.0
C543 C 0.15448 0.6897 0.29361 0.0
C544 C 0.13434 0.56284 0.25052 0.0
O545 O 0.0942 0.63644 0.26642 0.0
O546 O 0.07447 0.61898 0.21366 0.0
C547 C 0.08752 0.65874 0.1488 0.0
N548 N 0.10892 0.63227 0.15017 0.0
C549 C 0.12711 0.64031 0.09103 0.0
C550 C 0.10517 0.66759 0.08895 0.0
C551 C 0.08545 0.67696 0.11803 0.0
C552 C 0.1283 0.62328 0.12247 0.0
H553 H 0.07213 0.66584 0.17101 0.0
C554 C 0.06924 0.63028 0.24446 0.0
O555 O 0.15553 0.65911 0.30649 0.0
O556 O 0.14891 0.69125 0.26066 0.0
N557 N 0.14959 0.58214 0.158 0.0
C558 C 0.16936 0.55518 0.16428 0.0
C559 C 0.18997 0.54207 0.13767 0.0
C560 C 0.18997 0.55675 0.10488 0.0
C561 C 0.17023 0.58509 0.09921 0.0
C562 C 0.14983 0.59675 0.12663 0.0
H563 H 0.16876 0.54315 0.18912 0.0
O564 O 0.19739 0.6428 0.24252 0.0
O565 O 0.14993 0.63398 0.20908 0.0
O566 O 0.14929 0.58878 0.26714 0.0
O567 O 0.11851 0.56493 0.22167 0.0
C568 C 0.16932 0.60166 0.06724 0.0
C569 C 0.14795 0.62942 0.06322 0.0
H570 H 0.10342 0.68165 0.06524 0.0
H571 H 0.06856 0.69806 0.11666 0.0
H572 H 0.20519 0.52021 0.14222 0.0
H573 H 0.20463 0.54554 0.0841 0.0
H574 H 0.18491 0.59327 0.04558 0.0
H575 H 0.14758 0.64208 0.03858 0.0
Mn576 Mn 0.73724 0.85093 0.64344 0.0
Mn577 Mn 0.65118 0.86782 0.64315 0.0
C578 C 0.70263 0.84231 0.69203 0.0
C579 C 0.77953 0.81106 0.63642 0.0
C580 C 0.71254 0.92403 0.64973 0.0
O581 O 0.72696 0.85325 0.59228 0.0
O582 O 0.66901 0.86357 0.5948 0.0
C583 C 0.6195 0.80125 0.61254 0.0
N584 N 0.62194 0.8248 0.6393 0.0
C585 C 0.57894 0.78954 0.67251 0.0
C586 C 0.5758 0.76505 0.6452 0.0
C587 C 0.59619 0.77093 0.6151 0.0
C588 C 0.60231 0.81947 0.66832 0.0
H589 H 0.63533 0.80549 0.58947 0.0
C590 C 0.6975 0.85836 0.57784 0.0
O591 O 0.78895 0.84426 0.63601 0.0
O592 O 0.7458 0.80147 0.63855 0.0
N593 N 0.63125 0.87173 0.68848 0.0
C594 C 0.63815 0.89743 0.71282 0.0
C595 C 0.62058 0.89503 0.74484 0.0
C596 C 0.59612 0.8663 0.75148 0.0
C597 C 0.58923 0.84033 0.72592 0.0
C598 C 0.60727 0.84429 0.69437 0.0
H599 H 0.65718 0.91941 0.70797 0.0
O600 O 0.73706 0.8469 0.69449 0.0
O601 O 0.6896 0.8431 0.66108 0.0
O602 O 0.73751 0.90378 0.64822 0.0
O603 O 0.67943 0.91323 0.64807 0.0
C604 C 0.56555 0.81044 0.73069 0.0
C605 C 0.56037 0.78509 0.70398 0.0
H606 H 0.55812 0.74146 0.6472 0.0
H607 H 0.59408 0.75204 0.594 0.0
H608 H 0.62608 0.91516 0.76446 0.0
H609 H 0.58291 0.86437 0.77634 0.0
H610 H 0.55135 0.80658 0.75488 0.0
H611 H 0.54228 0.76211 0.70804 0.0
Mn612 Mn 0.65132 0.25705 0.13603 0.0
Mn613 Mn 0.62952 0.33516 0.11247 0.0
C614 C 0.69527 0.30313 0.13715 0.0
C615 C 0.65172 0.21689 0.18014 0.0
C616 C 0.63971 0.27554 0.06199 0.0
O617 O 0.59746 0.25228 0.1349 0.0
O618 O 0.5858 0.30775 0.12931 0.0
C619 C 0.60928 0.3656 0.17965 0.0
N620 N 0.62969 0.36729 0.15055 0.0
C621 C 0.65545 0.42467 0.16614 0.0
C622 C 0.63477 0.42359 0.19637 0.0
C623 C 0.61175 0.39382 0.20324 0.0
C624 C 0.65235 0.39551 0.14397 0.0
H625 H 0.59117 0.34294 0.18465 0.0
C626 C 0.57581 0.27565 0.13391 0.0
O627 O 0.65205 0.20703 0.14783 0.0
O628 O 0.65075 0.24977 0.18656 0.0
N629 N 0.6689 0.36444 0.09533 0.0
C630 C 0.68762 0.36078 0.06551 0.0
C631 C 0.71099 0.38853 0.05418 0.0
C632 C 0.71458 0.4198 0.07345 0.0
C633 C 0.69594 0.42261 0.10468 0.0
C634 C 0.67287 0.39413 0.11452 0.0
H635 H 0.68404 0.33723 0.04996 0.0
O636 O 0.70314 0.27117 0.13739 0.0
O637 O 0.66119 0.30714 0.13773 0.0
O638 O 0.65255 0.25501 0.08296 0.0
O639 O 0.62877 0.30463 0.07106 0.0
C640 C 0.69859 0.45275 0.12599 0.0
C641 C 0.67883 0.45357 0.15699 0.0
H642 H 0.63632 0.44545 0.21444 0.0
H643 H 0.59568 0.39281 0.22648 0.0
H644 H 0.72548 0.38617 0.03019 0.0
H645 H 0.73127 0.44157 0.06357 0.0
H646 H 0.71576 0.47546 0.11887 0.0
H647 H 0.68151 0.4767 0.17341 0.0
Mn648 Mn 0.25211 0.14771 0.65364 0.0
Mn649 Mn 0.33842 0.13195 0.64859 0.0
C650 C 0.28887 0.15732 0.7008 0.0
C651 C 0.20942 0.18715 0.64962 0.0
C652 C 0.27814 0.07526 0.65717 0.0
O653 O 0.2596 0.14416 0.60192 0.0
O654 O 0.31772 0.13471 0.60165 0.0
C655 C 0.36704 0.1982 0.61794 0.0
N656 N 0.36676 0.17522 0.64407 0.0
C657 C 0.41172 0.21155 0.67522 0.0
C658 C 0.41262 0.23551 0.64854 0.0
C659 C 0.39016 0.22881 0.6198 0.0
C660 C 0.38833 0.18137 0.67181 0.0
H661 H 0.3497 0.19327 0.59588 0.0
C662 C 0.28843 0.1389 0.58608 0.0
O663 O 0.20007 0.15391 0.6489 0.0
O664 O 0.24319 0.19689 0.65037 0.0
N665 N 0.36132 0.12933 0.69239 0.0
C666 C 0.35678 0.10384 0.71614 0.0
C667 C 0.37677 0.10694 0.74679 0.0
C668 C 0.40129 0.1361 0.75263 0.0
C669 C 0.40587 0.16173 0.72758 0.0
C670 C 0.38546 0.15707 0.69739 0.0
H671 H 0.3378 0.0815 0.71187 0.0
O672 O 0.2546 0.15292 0.70473 0.0
O673 O 0.30058 0.15635 0.66928 0.0
O674 O 0.25265 0.09496 0.65715 0.0
O675 O 0.31098 0.08657 0.65414 0.0
C676 C 0.42964 0.19188 0.73153 0.0
C677 C 0.43258 0.21675 0.70536 0.0
H678 H 0.43021 0.25928 0.65001 0.0
H679 H 0.39057 0.24727 0.59919 0.0
H680 H 0.37313 0.08703 0.76597 0.0
H681 H 0.41641 0.13856 0.77645 0.0
H682 H 0.44565 0.19628 0.75468 0.0
H683 H 0.45077 0.23994 0.7088 0.0
Mn684 Mn 0.34704 0.74499 0.14085 0.0
Mn685 Mn 0.36288 0.66539 0.11209 0.0
C686 C 0.29993 0.70198 0.13857 0.0
C687 C 0.34886 0.78522 0.18665 0.0
C688 C 0.36006 0.72785 0.06636 0.0
O689 O 0.40077 0.74531 0.14047 0.0
O690 O 0.40787 0.68864 0.13183 0.0
C691 C 0.37843 0.62996 0.17645 0.0
N692 N 0.35889 0.63138 0.14709 0.0
C693 C 0.328 0.57527 0.15709 0.0
C694 C 0.34774 0.57318 0.18751 0.0
C695 C 0.37293 0.60072 0.19732 0.0
C696 C 0.33437 0.60519 0.13757 0.0
H697 H 0.39811 0.65093 0.18374 0.0
C698 C 0.42025 0.72009 0.13818 0.0
O699 O 0.35023 0.7951 0.15481 0.0
O700 O 0.34693 0.75209 0.19176 0.0
N701 N 0.32182 0.64017 0.09195 0.0
C702 C 0.3038 0.64723 0.06287 0.0
C703 C 0.27769 0.6224 0.04942 0.0
C704 C 0.27067 0.59051 0.06581 0.0
C705 C 0.28899 0.58413 0.09618 0.0
C706 C 0.31479 0.60983 0.10828 0.0
H707 H 0.30977 0.67132 0.04964 0.0
O708 O 0.29454 0.73463 0.14068 0.0
O709 O 0.33335 0.69541 0.13925 0.0
O710 O 0.34743 0.74847 0.08825 0.0
O711 O 0.36792 0.69749 0.07346 0.0
C712 C 0.28309 0.55317 0.11468 0.0
C713 C 0.30221 0.54894 0.14537 0.0
H714 H 0.34371 0.5506 0.20358 0.0
H715 H 0.38826 0.59929 0.22075 0.0
H716 H 0.2635 0.62753 0.0261 0.0
H717 H 0.25144 0.57108 0.05452 0.0
H718 H 0.26384 0.53247 0.10566 0.0
H719 H 0.29695 0.52528 0.15968 0.0
Mn720 Mn 0.74054 0.14713 0.34261 0.0
Mn721 Mn 0.82323 0.1324 0.36717 0.0
C722 C 0.78467 0.19202 0.34504 0.0
C723 C 0.70089 0.14882 0.29666 0.0
C724 C 0.76137 0.13696 0.41729 0.0
O725 O 0.73976 0.09503 0.34 0.0
O726 O 0.79693 0.08736 0.35245 0.0
C727 C 0.85156 0.11206 0.29912 0.0
N728 N 0.85342 0.13372 0.32738 0.0
C729 C 0.90319 0.16883 0.30347 0.0
C730 C 0.902 0.14674 0.27421 0.0
C731 C 0.87606 0.11824 0.27203 0.0
C732 C 0.87829 0.16119 0.32977 0.0
H733 H 0.83141 0.09035 0.29722 0.0
C734 C 0.76491 0.07564 0.34451 0.0
O735 O 0.68916 0.14638 0.32825 0.0
O736 O 0.73491 0.149 0.29208 0.0
N737 N 0.85117 0.17386 0.38204 0.0
C738 C 0.84807 0.19313 0.4116 0.0
C739 C 0.87173 0.22288 0.41759 0.0
C740 C 0.89828 0.23248 0.39315 0.0
C741 C 0.90123 0.21197 0.36314 0.0
C742 C 0.87724 0.18233 0.35882 0.0
H743 H 0.8275 0.18601 0.4303 0.0
O744 O 0.75141 0.19822 0.34524 0.0
O745 O 0.79085 0.15956 0.34276 0.0
O746 O 0.738 0.14498 0.39566 0.0
O747 O 0.79341 0.13153 0.40912 0.0
C748 C 0.92673 0.22001 0.33713 0.0
C749 C 0.9277 0.19847 0.30731 0.0
H750 H 0.92067 0.15157 0.25314 0.0
H751 H 0.87484 0.10119 0.24944 0.0
H752 H 0.86929 0.23855 0.44083 0.0
H753 H 0.91618 0.25569 0.39766 0.0
H754 H 0.94555 0.24284 0.33967 0.0
H755 H 0.94722 0.20509 0.28736 0.0
Mn756 Mn 0.33987 0.26864 0.8699 0.0
Mn757 Mn 0.35602 0.34648 0.90919 0.0
C758 C 0.29352 0.30405 0.8762 0.0
C759 C 0.34019 0.23461 0.82007 0.0
C760 C 0.3475 0.27846 0.9473 0.0
O761 O 0.39371 0.27612 0.86972 0.0
O762 O 0.40163 0.33078 0.89105 0.0
C763 C 0.37952 0.39031 0.85023 0.0
N764 N 0.35726 0.3836 0.87752 0.0
C765 C 0.33212 0.43811 0.87192 0.0
C766 C 0.3547 0.44567 0.84367 0.0
C767 C 0.3783 0.42153 0.83261 0.0
C768 C 0.33395 0.4063 0.8879 0.0
H769 H 0.39821 0.3721 0.84221 0.0
C770 C 0.41361 0.30333 0.87814 0.0
O771 O 0.34155 0.22096 0.85031 0.0
O772 O 0.3392 0.26797 0.81901 0.0
N773 N 0.31465 0.36495 0.92808 0.0
C774 C 0.2933 0.35269 0.95438 0.0
C775 C 0.26873 0.37386 0.9691 0.0
C776 C 0.26645 0.40736 0.95664 0.0
C777 C 0.28752 0.41878 0.92843 0.0
C778 C 0.31161 0.39655 0.91494 0.0
H779 H 0.29548 0.32722 0.96448 0.0
O780 O 0.28758 0.27076 0.87114 0.0
O781 O 0.32714 0.31595 0.87688 0.0
O782 O 0.3399 0.2585 0.92134 0.0
O783 O 0.35504 0.31106 0.9448 0.0
C784 C 0.28617 0.45157 0.91359 0.0
C785 C 0.30813 0.461 0.8851 0.0
H786 H 0.35417 0.46993 0.83033 0.0
H787 H 0.39586 0.42719 0.81087 0.0
H788 H 0.25215 0.36469 0.9905 0.0
H789 H 0.24855 0.42406 0.96915 0.0
H790 H 0.26832 0.46972 0.92377 0.0
H791 H 0.30668 0.48606 0.8738 0.0
Mn792 Mn 0.26327 0.85986 0.35076 0.0
Mn793 Mn 0.18005 0.87168 0.37773 0.0
C794 C 0.22117 0.81343 0.3543 0.0
C795 C 0.30251 0.85759 0.30449 0.0
C796 C 0.2435 0.87152 0.42595 0.0
O797 O 0.26126 0.91158 0.3477 0.0
O798 O 0.20382 0.91688 0.36242 0.0
C799 C 0.14851 0.88798 0.31083 0.0
N800 N 0.14849 0.86756 0.33901 0.0
C801 C 0.09874 0.83011 0.31695 0.0
C802 C 0.09803 0.85092 0.28783 0.0
C803 C 0.12304 0.87996 0.28476 0.0
C804 C 0.12448 0.83961 0.34228 0.0
H805 H 0.16795 0.91011 0.30822 0.0
C806 C 0.23482 0.9295 0.35258 0.0
O807 O 0.31452 0.86221 0.33589 0.0
O808 O 0.26834 0.85572 0.30021 0.0
N809 N 0.15445 0.82976 0.39306 0.0
C810 C 0.15997 0.81138 0.42185 0.0
C811 C 0.13787 0.78095 0.42826 0.0
C812 C 0.11035 0.76977 0.40506 0.0
C813 C 0.10499 0.7893 0.37577 0.0
C814 C 0.12757 0.81964 0.37096 0.0
H815 H 0.1813 0.81968 0.4396 0.0
O816 O 0.25482 0.80868 0.35374 0.0
O817 O 0.21334 0.84529 0.35208 0.0
O818 O 0.26686 0.86433 0.40354 0.0
O819 O 0.21096 0.87533 0.41876 0.0
C820 C 0.07857 0.77949 0.35083 0.0
C821 C 0.07545 0.79988 0.32145 0.0
H822 H 0.07864 0.84463 0.2675 0.0
H823 H 0.12281 0.89601 0.26225 0.0
H824 H 0.14223 0.76598 0.45088 0.0
H825 H 0.09365 0.74605 0.40987 0.0
H826 H 0.06078 0.7561 0.3538 0.0
H827 H 0.05531 0.79185 0.30225 0.0
Mn828 Mn 0.65747 0.72176 0.85306 0.0
Mn829 Mn 0.63545 0.64308 0.88599 0.0
C830 C 0.69943 0.68175 0.85326 0.0
C831 C 0.65848 0.75866 0.80671 0.0
C832 C 0.65235 0.70852 0.92996 0.0
O833 O 0.60388 0.71902 0.85436 0.0
O834 O 0.59151 0.66461 0.87281 0.0
C835 C 0.60276 0.60491 0.82515 0.0
N836 N 0.62796 0.60809 0.85048 0.0
C837 C 0.6481 0.55256 0.83489 0.0
C838 C 0.62244 0.54873 0.80858 0.0
C839 C 0.5998 0.57511 0.80358 0.0
C840 C 0.65013 0.58304 0.85526 0.0
H841 H 0.58499 0.6249 0.82151 0.0
C842 C 0.58195 0.69335 0.86177 0.0
O843 O 0.65968 0.7708 0.83829 0.0
O844 O 0.65668 0.72523 0.80235 0.0
N845 N 0.67527 0.61915 0.89928 0.0
C846 C 0.69839 0.62682 0.92593 0.0
C847 C 0.72196 0.60256 0.9352 0.0
C848 C 0.72141 0.5707 0.91704 0.0
C849 C 0.69822 0.56382 0.88898 0.0
C850 C 0.67509 0.58885 0.88118 0.0
H851 H 0.69827 0.65089 0.94054 0.0
O852 O 0.70875 0.71483 0.85178 0.0
O853 O 0.66516 0.67286 0.85472 0.0
O854 O 0.65972 0.72902 0.90525 0.0
O855 O 0.64263 0.6763 0.92531 0.0
C856 C 0.69642 0.53274 0.86908 0.0
C857 C 0.6716 0.52727 0.84184 0.0
H858 H 0.6199 0.52567 0.79206 0.0
H859 H 0.57993 0.57235 0.78332 0.0
H860 H 0.73996 0.60809 0.95677 0.0
H861 H 0.73854 0.55149 0.92526 0.0
H862 H 0.7139 0.51282 0.87455 0.0
H863 H 0.67051 0.50336 0.82665 0.0
C864 C 0.1743 0.51674 0.25977 0.0
C865 C 0.13986 0.52799 0.26197 0.0
C866 C 0.17925 0.48133 0.26064 0.0
C867 C 0.15003 0.45659 0.26496 0.0
H868 H 0.19704 0.53506 0.25426 0.0
H869 H 0.20559 0.47312 0.25567 0.0
S870 S 0.05531 0.47341 0.27595 0.0
N871 N 0.07667 0.51223 0.27095 0.0
N872 N 0.0862 0.44569 0.27448 0.0
C873 C 0.11598 0.46784 0.27015 0.0
C874 C 0.11081 0.50367 0.26819 0.0
C875 C 0.97988 0.63672 0.71645 0.0
C876 C 0.96247 0.65911 0.73844 0.0
C877 C 0.01665 0.63429 0.7196 0.0
C878 C 0.03655 0.65407 0.74492 0.0
H879 H 0.96457 0.61867 0.69917 0.0
H880 H 0.02888 0.6148 0.70427 0.0
S881 S 0.00445 0.72216 0.80271 0.0
N882 N 0.96847 0.70545 0.78184 0.0
N883 N 0.03765 0.70112 0.78757 0.0
C884 C 0.02005 0.67918 0.76423 0.0
C885 C 0.98284 0.68167 0.76099 0.0
C886 C 0.88815 0.49636 0.28693 0.0
C887 C 0.85776 0.47705 0.27342 0.0
C888 C 0.88612 0.53022 0.29996 0.0
C889 C 0.85383 0.54576 0.29896 0.0
H890 H 0.91381 0.48572 0.28618 0.0
H891 H 0.91037 0.54511 0.30866 0.0
S892 S 0.76644 0.50489 0.26827 0.0
N893 N 0.79409 0.47448 0.26236 0.0
N894 N 0.79064 0.53888 0.28514 0.0
C895 C 0.82306 0.52614 0.28677 0.0
C896 C 0.82494 0.49148 0.27438 0.0
C897 C 0.02563 0.34563 0.71592 0.0
C898 C 0.03142 0.35025 0.75173 0.0
C899 C 0.99248 0.34976 0.70117 0.0
C900 C 0.96348 0.35846 0.72154 0.0
H901 H 0.04714 0.33973 0.69875 0.0
H902 H 0.98979 0.3463 0.67344 0.0
S903 S 0.96358 0.37126 0.817 0.0
N904 N 0.00455 0.36232 0.80752 0.0
N905 N 0.94224 0.3701 0.7798 0.0
C906 C 0.96843 0.36202 0.75758 0.0
C907 C 0.00231 0.35784 0.77264 0.0
C908 C 0.09914 0.47248 0.75198 0.0
C909 C 0.13228 0.45857 0.74934 0.0
C910 C 0.09626 0.50772 0.74703 0.0
C911 C 0.12647 0.53029 0.73936 0.0
H912 H 0.07562 0.45637 0.76006 0.0
H913 H 0.07076 0.51786 0.75193 0.0
S914 S 0.21868 0.50582 0.72622 0.0
N915 N 0.1952 0.46899 0.73547 0.0
N916 N 0.19002 0.53572 0.72625 0.0
C917 C 0.1592 0.51612 0.73352 0.0
C918 C 0.16208 0.48004 0.7386 0.0
C919 C 0.99147 0.65129 0.30171 0.0
C920 C 0.96257 0.64997 0.27865 0.0
C921 C 0.02571 0.64516 0.29031 0.0
C922 C 0.0326 0.6372 0.25536 0.0
H923 H 0.98763 0.65661 0.32898 0.0
H924 H 0.04683 0.64619 0.30935 0.0
S925 S 0.96649 0.63205 0.18396 0.0
N926 N 0.94343 0.64129 0.21871 0.0
N927 N 0.0077 0.62967 0.19746 0.0
C928 C 0.00412 0.63654 0.23182 0.0
C929 C 0.96921 0.64301 0.24338 0.0
C930 C 0.833 0.51798 0.70472 0.0
C931 C 0.86484 0.53849 0.71235 0.0
C932 C 0.83347 0.48274 0.69575 0.0
C933 C 0.86585 0.4674 0.69326 0.0
H934 H 0.80753 0.52873 0.70762 0.0
H935 H 0.80835 0.46716 0.69163 0.0
S936 S 0.95645 0.51077 0.70855 0.0
N937 N 0.9295 0.54156 0.71578 0.0
N938 N 0.93046 0.47552 0.69747 0.0
C939 C 0.89793 0.48808 0.69907 0.0
C940 C 0.89739 0.52367 0.70905 0.0
C941 C 0.97846 0.35019 0.25739 0.0
C942 C 0.96697 0.37671 0.2369 0.0
C943 C 0.01461 0.34373 0.25855 0.0
C944 C 0.04036 0.36338 0.23902 0.0
H945 H 0.9593 0.33371 0.27195 0.0
H946 H 0.02227 0.32274 0.27414 0.0
S947 S 0.02489 0.43892 0.1851 0.0
N948 N 0.98499 0.42493 0.19952 0.0
N949 N 0.05236 0.4127 0.20132 0.0
C950 C 0.02935 0.39084 0.21955 0.0
C951 C 0.99283 0.39753 0.21859 0.0
C952 C 0.2579 0.14514 0.5291 0.0
C953 C 0.28834 0.13763 0.54767 0.0
C954 C 0.25757 0.14465 0.49283 0.0
C955 C 0.28759 0.13638 0.47367 0.0
H956 H 0.23412 0.15178 0.5426 0.0
H957 H 0.23364 0.1509 0.47978 0.0
S958 S 0.37426 0.11459 0.5098 0.0
N959 N 0.34935 0.12153 0.54386 0.0
N960 N 0.34884 0.12049 0.4763 0.0
C961 C 0.31815 0.12852 0.49199 0.0
C962 C 0.31851 0.1292 0.52877 0.0
C963 C 0.33864 0.74627 0.97432 0.0
C964 C 0.3692 0.73603 0.95739 0.0
C965 C 0.33684 0.74734 0.01056 0.0
C966 C 0.36557 0.73809 0.03038 0.0
H967 H 0.315 0.75037 0.95961 0.0
H968 H 0.31187 0.75226 0.02293 0.0
S969 S 0.45345 0.71561 0.99791 0.0
N970 N 0.43012 0.72111 0.96273 0.0
N971 N 0.42696 0.72336 0.03072 0.0
C972 C 0.39737 0.73126 0.0136 0.0
C973 C 0.39912 0.73012 0.977 0.0
C974 C 0.72751 0.85774 0.48381 0.0
C975 C 0.69578 0.86089 0.46549 0.0
C976 C 0.72775 0.85672 0.51997 0.0
C977 C 0.69623 0.85866 0.53943 0.0
H978 H 0.75257 0.8565 0.4702 0.0
H979 H 0.75303 0.85468 0.5327 0.0
S980 S 0.60542 0.86487 0.50381 0.0
N981 N 0.63158 0.86452 0.46961 0.0
N982 N 0.63198 0.8624 0.53726 0.0
C983 C 0.66414 0.86115 0.52136 0.0
C984 C 0.66393 0.86233 0.48455 0.0
C985 C 0.66983 0.26376 0.00598 0.0
C986 C 0.63821 0.26709 0.02476 0.0
C987 C 0.67024 0.26597 0.96975 0.0
C988 C 0.63893 0.27105 0.95158 0.0
H989 H 0.69481 0.26227 0.01947 0.0
H990 H 0.69543 0.26587 0.95615 0.0
S991 S 0.54892 0.27775 0.98852 0.0
N992 N 0.57457 0.27305 0.02233 0.0
N993 N 0.57532 0.27666 0.95444 0.0
C994 C 0.60687 0.27199 0.96989 0.0
C995 C 0.60649 0.27007 0.00651 0.0
C996 C 0.23735 0.89975 0.48319 0.0
C997 C 0.25335 0.87509 0.46268 0.0
C998 C 0.23926 0.89936 0.5191 0.0
C999 C 0.25719 0.87425 0.5359 0.0
H1000 H 0.22169 0.91846 0.47142 0.0
H1001 H 0.22497 0.91778 0.53388 0.0
S1002 S 0.30652 0.80612 0.49388 0.0
N1003 N 0.29029 0.82673 0.46141 0.0
N1004 N 0.29382 0.82592 0.52947 0.0
C1005 C 0.27568 0.85109 0.51576 0.0
C1006 C 0.27376 0.85153 0.47892 0.0
C1007 C 0.65467 0.71104 0.02781 0.0
C1008 C 0.65441 0.74658 0.03636 0.0
C1009 C 0.65462 0.69924 0.99346 0.0
C1010 C 0.65462 0.72242 0.966 0.0
H1011 H 0.6539 0.69185 0.0478 0.0
H1012 H 0.65418 0.67154 0.98851 0.0
S1013 S 0.65661 0.81845 0.97422 0.0
N1014 N 0.65609 0.80517 0.01443 0.0
N1015 N 0.65608 0.78297 0.94969 0.0
C1016 C 0.65563 0.75821 0.97406 0.0
C1017 C 0.65547 0.77026 0.00922 0.0
C1018 C 0.76195 0.10181 0.50699 0.0
C1019 C 0.74552 0.12664 0.52696 0.0
C1020 C 0.76495 0.10448 0.47121 0.0
C1021 C 0.7515 0.13198 0.45386 0.0
H1022 H 0.77432 0.0811 0.51932 0.0
H1023 H 0.77927 0.08557 0.45714 0.0
S1024 S 0.70344 0.2022 0.49363 0.0
N1025 N 0.71342 0.1784 0.52652 0.0
N1026 N 0.71878 0.18314 0.45873 0.0
C1027 C 0.73272 0.15564 0.47302 0.0
C1028 C 0.72976 0.15301 0.50975 0.0
C1029 C 0.34566 0.21313 0.01961 0.0
C1030 C 0.34535 0.23449 0.04939 0.0
C1031 C 0.34605 0.22744 0.98658 0.0
C1032 C 0.34688 0.26362 0.9823 0.0
H1033 H 0.3453 0.18525 0.02183 0.0
H1034 H 0.34607 0.21002 0.96429 0.0
S1035 S 0.34816 0.33082 0.0527 0.0
N1036 N 0.3469 0.29362 0.0727 0.0
N1037 N 0.34817 0.3204 0.01121 0.0
C1038 C 0.34708 0.28519 0.01212 0.0
C1039 C 0.34617 0.27065 0.0455 0.0
C1040 C 0.52622 0.22928 0.14285 0.0
C1041 C 0.53713 0.2644 0.13671 0.0
C1042 C 0.4902 0.21692 0.14319 0.0
C1043 C 0.4633 0.23909 0.13761 0.0
H1044 H 0.54565 0.21083 0.14712 0.0
H1045 H 0.48353 0.18963 0.14798 0.0
S1046 S 0.47714 0.33346 0.12056 0.0
N1047 N 0.51779 0.32142 0.12512 0.0
N1048 N 0.4499 0.29806 0.12589 0.0
C1049 C 0.47361 0.27441 0.13188 0.0
C1050 C 0.51049 0.28708 0.13142 0.0
C1051 C 0.51941 0.66651 0.85786 0.0
C1052 C 0.5434 0.69647 0.85678 0.0
C1053 C 0.48279 0.66835 0.85455 0.0
C1054 C 0.4683 0.70031 0.8503 0.0
H1055 H 0.52883 0.64123 0.86162 0.0
H1056 H 0.4657 0.64434 0.85617 0.0
S1057 S 0.51981 0.78636 0.84281 0.0
N1058 N 0.55036 0.75907 0.84874 0.0
N1059 N 0.48112 0.76251 0.84289 0.0
C1060 C 0.49201 0.73043 0.8477 0.0
C1061 C 0.52959 0.72853 0.85091 0.0
C1062 C 0.70754 0.99035 0.34678 0.0
C1063 C 0.73194 0.96581 0.35327 0.0
C1064 C 0.71884 0.02523 0.3422 0.0
C1065 C 0.75514 0.03758 0.34434 0.0
H1066 H 0.67913 0.98282 0.34547 0.0
H1067 H 0.6985 0.04276 0.33801 0.0
S1068 S 0.83044 0.98382 0.35874 0.0
N1069 N 0.79452 0.95596 0.35984 0.0
N1070 N 0.81591 0.02201 0.35166 0.0
C1071 C 0.78015 0.01325 0.34979 0.0
C1072 C 0.76854 0.97735 0.35419 0.0
C1073 C 0.46608 0.27943 0.84912 0.0
C1074 C 0.45263 0.30284 0.87319 0.0
C1075 C 0.50292 0.27811 0.84439 0.0
C1076 C 0.52768 0.30016 0.86354 0.0
H1077 H 0.44802 0.26213 0.83356 0.0
H1078 H 0.51201 0.25997 0.82533 0.0
S1079 S 0.50633 0.36376 0.93223 0.0
N1080 N 0.4671 0.34706 0.91783 0.0
N1081 N 0.53609 0.34453 0.90919 0.0
C1082 C 0.51456 0.32322 0.88817 0.0
C1083 C 0.47713 0.3246 0.8929 0.0
C1084 C 0.22462 0.98941 0.37274 0.0
C1085 C 0.24146 0.96741 0.34975 0.0
C1086 C 0.23512 0.02508 0.3746 0.0
C1087 C 0.26275 0.03978 0.35357 0.0
H1088 H 0.20459 0.97879 0.3907 0.0
H1089 H 0.22276 0.04093 0.3938 0.0
S1090 S 0.30967 0.99446 0.28407 0.0
N1091 N 0.28329 0.96352 0.30217 0.0
N1092 N 0.30252 0.03061 0.30536 0.0
C1093 C 0.27776 0.01847 0.32871 0.0
C1094 C 0.26721 0.98223 0.32686 0.0
C1095 C 0.51033 0.77165 0.13284 0.0
C1096 C 0.53471 0.74639 0.1357 0.0
C1097 C 0.47362 0.76292 0.13497 0.0
C1098 C 0.45943 0.72844 0.13972 0.0
H1099 H 0.51949 0.79862 0.12882 0.0
H1100 H 0.45625 0.78348 0.13195 0.0
S1101 S 0.5115 0.65232 0.14989 0.0
N1102 N 0.54197 0.68526 0.14451 0.0
N1103 N 0.47265 0.66883 0.14826 0.0
C1104 C 0.48337 0.70283 0.1431 0.0
C1105 C 0.52101 0.71179 0.14115 0.0
C1106 C 0.69564 0.98509 0.64674 0.0
C1107 C 0.72209 0.96218 0.65202 0.0
C1108 C 0.7042 0.02106 0.64565 0.0
C1109 C 0.73958 0.03568 0.64971 0.0
H1110 H 0.66813 0.97522 0.64231 0.0
H1111 H 0.68306 0.03734 0.64017 0.0
S1112 S 0.81809 0.98778 0.66926 0.0
N1113 N 0.78468 0.95726 0.66501 0.0
N1114 N 0.80075 0.02474 0.66288 0.0
C1115 C 0.76601 0.01329 0.65691 0.0
C1116 C 0.75729 0.97664 0.65807 0.0
C1117 C 0.2977 0.01521 0.6577 0.0
C1118 C 0.26976 0.0371 0.65965 0.0
C1119 C 0.2909 0.97908 0.65696 0.0
C1120 C 0.25583 0.9631 0.6581 0.0
H1121 H 0.32523 0.02593 0.65579 0.0
H1122 H 0.3134 0.96368 0.65419 0.0
S1123 S 0.17322 0.0083 0.66802 0.0
N1124 N 0.20567 0.03991 0.66607 0.0
N1125 N 0.19286 0.97195 0.66479 0.0
C1126 C 0.22766 0.98455 0.66197 0.0
C1127 C 0.23461 0.02149 0.66271 0.0
C1128 C 0.18045 0.28075 0.36019 0.0
C1129 C 0.151 0.2726 0.33825 0.0
C1130 C 0.20046 0.25463 0.37234 0.0
C1131 C 0.19115 0.21944 0.36373 0.0
H1132 H 0.19027 0.30759 0.36517 0.0
H1133 H 0.22459 0.26222 0.38686 0.0
S1134 S 0.11268 0.18442 0.31181 0.0
N1135 N 0.11114 0.22693 0.31157 0.0
N1136 N 0.14765 0.17769 0.33558 0.0
C1137 C 0.15953 0.21082 0.34486 0.0
C1138 C 0.13972 0.23747 0.33181 0.0
C1139 C 0.27728 0.64863 0.81955 0.0
C1140 C 0.27639 0.67769 0.84173 0.0
C1141 C 0.24603 0.63156 0.80569 0.0
C1142 C 0.21292 0.64508 0.81056 0.0
H1143 H 0.30241 0.64117 0.80976 0.0
H1144 H 0.24853 0.61048 0.78717 0.0
S1145 S 0.19667 0.72285 0.864 0.0
N1146 N 0.23943 0.71831 0.86952 0.0
N1147 N 0.18163 0.69066 0.83773 0.0
C1148 C 0.21143 0.67386 0.83314 0.0
C1149 C 0.24302 0.68941 0.84967 0.0
C1150 C 0.84632 0.75899 0.33444 0.0
C1151 C 0.8317 0.72428 0.33465 0.0
C1152 C 0.82675 0.78587 0.34685 0.0
C1153 C 0.79152 0.77891 0.35892 0.0
H1154 H 0.87218 0.76556 0.32274 0.0
H1155 H 0.83827 0.81239 0.34434 0.0
S1156 S 0.74233 0.69192 0.36723 0.0
N1157 N 0.78098 0.68412 0.34987 0.0
N1158 N 0.74437 0.73438 0.37358 0.0
C1159 C 0.7777 0.74404 0.36156 0.0
C1160 C 0.79771 0.71676 0.34916 0.0
C1161 C 0.77479 0.33417 0.80752 0.0
C1162 C 0.76868 0.3487 0.7753 0.0
C1163 C 0.74646 0.31886 0.82705 0.0
C1164 C 0.7112 0.31888 0.81559 0.0
H1165 H 0.80173 0.33249 0.81667 0.0
H1166 H 0.7522 0.30604 0.85071 0.0
S1167 S 0.68077 0.35547 0.73437 0.0
N1168 N 0.72461 0.36372 0.73378 0.0
N1169 N 0.67134 0.33524 0.7708 0.0
C1170 C 0.70456 0.33487 0.78439 0.0
C1171 C 0.73335 0.34994 0.76424 0.0
C1172 C 0.19141 0.78224 0.68404 0.0
C1173 C 0.20782 0.78008 0.65168 0.0
C1174 C 0.17305 0.75318 0.69842 0.0
C1175 C 0.17158 0.72051 0.6815 0.0
H1176 H 0.19439 0.80616 0.69928 0.0
H1177 H 0.16187 0.75608 0.72402 0.0
S1178 S 0.2082 0.70213 0.59464 0.0
N1179 N 0.2197 0.74391 0.60177 0.0
N1180 N 0.18557 0.68841 0.62912 0.0
C1181 C 0.18629 0.71837 0.64816 0.0
C1182 C 0.20475 0.74832 0.63335 0.0
C1183 C 0.75447 0.68637 0.1606 0.0
C1184 C 0.71844 0.67901 0.16965 0.0
C1185 C 0.7815 0.67269 0.17923 0.0
C1186 C 0.77325 0.65206 0.20807 0.0
H1187 H 0.76194 0.70462 0.14044 0.0
H1188 H 0.809 0.68098 0.17294 0.0
S1189 S 0.68288 0.62091 0.23888 0.0
N1190 N 0.67567 0.64596 0.20613 0.0
N1191 N 0.72667 0.62111 0.24199 0.0
C1192 C 0.73728 0.64201 0.21544 0.0
C1193 C 0.70973 0.65529 0.19593 0.0
C1194 C 0.83097 0.21875 0.65863 0.0
C1195 C 0.80395 0.21816 0.63374 0.0
C1196 C 0.85095 0.24977 0.6683 0.0
C1197 C 0.84254 0.2819 0.65568 0.0
H1198 H 0.83415 0.19601 0.67352 0.0
H1199 H 0.87003 0.24905 0.68911 0.0
S1200 S 0.77319 0.2944 0.59049 0.0
N1201 N 0.77198 0.25192 0.59417 0.0
N1202 N 0.80461 0.3109 0.61731 0.0
C1203 C 0.81643 0.28157 0.62984 0.0
C1204 C 0.7981 0.24956 0.61796 0.0
C1205 C 0.21529 0.29829 0.20088 0.0
C1206 C 0.2234 0.32928 0.21982 0.0
C1207 C 0.24195 0.28203 0.18369 0.0
C1208 C 0.27771 0.29604 0.18517 0.0
H1209 H 0.18827 0.28588 0.20027 0.0
H1210 H 0.23461 0.25765 0.1701 0.0
S1211 S 0.31244 0.3772 0.23108 0.0
N1212 N 0.26911 0.37378 0.23909 0.0
N1213 N 0.31977 0.3433 0.20621 0.0
C1214 C 0.28608 0.32765 0.20318 0.0
C1215 C 0.25879 0.34406 0.22105 0.0
C1216 C 0.32841 0.15052 0.22816 0.0
C1217 C 0.35632 0.17725 0.22763 0.0
C1218 C 0.3117 0.14055 0.25932 0.0
C1219 C 0.32143 0.15793 0.2907 0.0
H1220 H 0.31656 0.14004 0.20433 0.0
H1221 H 0.28902 0.12116 0.25843 0.0
S1222 S 0.39241 0.22993 0.30285 0.0
N1223 N 0.39571 0.21786 0.26196 0.0
N1224 N 0.35931 0.20414 0.31876 0.0
C1225 C 0.35005 0.18367 0.29066 0.0
C1226 C 0.36905 0.19166 0.2596 0.0
C1227 C 0.36899 0.78631 0.73544 0.0
C1228 C 0.36604 0.7985 0.76978 0.0
C1229 C 0.35821 0.80559 0.70764 0.0
C1230 C 0.34356 0.83734 0.71339 0.0
H1231 H 0.37756 0.76076 0.7301 0.0
H1232 H 0.35807 0.79396 0.68192 0.0
S1233 S 0.33456 0.88298 0.79755 0.0
N1234 N 0.35165 0.84663 0.80733 0.0
N1235 N 0.33012 0.88188 0.75513 0.0
C1236 C 0.34323 0.8511 0.74716 0.0
C1237 C 0.35486 0.83193 0.77539 0.0
C1238 C 0.68579 0.85497 0.24719 0.0
C1239 C 0.67233 0.84335 0.27934 0.0
C1240 C 0.67421 0.83822 0.21611 0.0
C1241 C 0.64723 0.81064 0.21591 0.0
H1242 H 0.70819 0.87463 0.24628 0.0
H1243 H 0.68923 0.84438 0.19289 0.0
S1244 S 0.60226 0.77109 0.29253 0.0
N1245 N 0.63171 0.80138 0.30859 0.0
N1246 N 0.60502 0.77466 0.25026 0.0
C1247 C 0.63078 0.80154 0.24759 0.0
C1248 C 0.64448 0.81668 0.27932 0.0
C1249 C 0.66651 0.15525 0.74239 0.0
C1250 C 0.66156 0.16496 0.70809 0.0
C1251 C 0.64929 0.17104 0.76994 0.0
C1252 C 0.62735 0.19791 0.76422 0.0
H1253 H 0.68538 0.13665 0.74816 0.0
H1254 H 0.65589 0.16437 0.79602 0.0
S1255 S 0.60238 0.22997 0.67895 0.0
N1256 N 0.62989 0.20018 0.66961 0.0
N1257 N 0.59865 0.23092 0.72146 0.0
C1258 C 0.62009 0.206 0.72987 0.0
C1259 C 0.63694 0.18925 0.70176 0.0
C1260 C 0.79705 0.75117 0.62842 0.0
C1261 C 0.80503 0.78501 0.64199 0.0
C1262 C 0.81241 0.72288 0.64227 0.0
C1263 C 0.83548 0.72741 0.67083 0.0
H1264 H 0.77681 0.7462 0.60863 0.0
H1265 H 0.80372 0.69705 0.63247 0.0
S1266 S 0.86889 0.81131 0.71249 0.0
N1267 N 0.84101 0.822 0.6825 0.0
N1268 N 0.86914 0.76869 0.70928 0.0
C1269 C 0.84601 0.76141 0.68268 0.0
C1270 C 0.831 0.79031 0.668 0.0
C1271 C 0.71874 0.35462 0.17327 0.0
C1272 C 0.72408 0.33054 0.14646 0.0
C1273 C 0.74769 0.37162 0.19163 0.0
C1274 C 0.78296 0.36383 0.18507 0.0
H1275 H 0.69218 0.35743 0.18291 0.0
H1276 H 0.7421 0.38819 0.21354 0.0
S1277 S 0.8108 0.30132 0.1185 0.0
N1278 N 0.76746 0.30169 0.11265 0.0
N1279 N 0.82097 0.32904 0.15073 0.0
C1280 C 0.7887 0.34075 0.15753 0.0
C1281 C 0.75945 0.32523 0.13742 0.0
C1282 C 0.17902 0.27572 0.66265 0.0
C1283 C 0.15666 0.27094 0.69161 0.0
C1284 C 0.19289 0.24739 0.64598 0.0
C1285 C 0.18429 0.21334 0.65726 0.0
H1286 H 0.18837 0.30162 0.65463 0.0
H1287 H 0.21277 0.25244 0.62598 0.0
S1288 S 0.12088 0.18652 0.72714 0.0
N1289 N 0.12209 0.2293 0.72743 0.0
N1290 N 0.1478 0.17599 0.69562 0.0
C1291 C 0.15865 0.20791 0.68345 0.0
C1292 C 0.14499 0.2368 0.70086 0.0
C1293 C 0.24448 0.63258 0.18653 0.0
C1294 C 0.20985 0.64289 0.18261 0.0
C1295 C 0.27378 0.64992 0.16984 0.0
C1296 C 0.2694 0.67621 0.14627 0.0
H1297 H 0.24965 0.61411 0.20612 0.0
H1298 H 0.30004 0.64552 0.17881 0.0
S1299 S 0.18432 0.71204 0.1254 0.0
N1300 N 0.17331 0.68234 0.15441 0.0
N1301 N 0.22724 0.70996 0.11784 0.0
C1302 C 0.23438 0.68408 0.13921 0.0
C1303 C 0.20483 0.66845 0.15838 0.0
C1304 C 0.84185 0.2499 0.28759 0.0
C1305 C 0.84178 0.28217 0.30509 0.0
C1306 C 0.82662 0.21945 0.30258 0.0
C1307 C 0.81101 0.22036 0.33551 0.0
H1308 H 0.8515 0.24842 0.26127 0.0
H1309 H 0.8244 0.19562 0.28717 0.0
S1310 S 0.80905 0.29674 0.39438 0.0
N1311 N 0.82928 0.3121 0.35929 0.0
N1312 N 0.79949 0.2548 0.38662 0.0
C1313 C 0.81338 0.25173 0.35438 0.0
C1314 C 0.82934 0.28267 0.33945 0.0
C1315 C 0.24223 0.36684 0.8282 0.0
C1316 C 0.20741 0.35011 0.82891 0.0
C1317 C 0.27006 0.35433 0.84698 0.0
C1318 C 0.26385 0.32549 0.86833 0.0
H1319 H 0.24883 0.38744 0.81013 0.0
H1320 H 0.29699 0.36476 0.84135 0.0
S1321 S 0.17725 0.27353 0.88075 0.0
N1322 N 0.16862 0.30287 0.85245 0.0
N1323 N 0.21947 0.28269 0.89161 0.0
C1324 C 0.22835 0.31098 0.87211 0.0
C1325 C 0.20046 0.32242 0.85147 0.0
C1326 C 0.17733 0.7845 0.31373 0.0
C1327 C 0.19576 0.7839 0.34506 0.0
C1328 C 0.16105 0.75397 0.29875 0.0
C1329 C 0.16339 0.72175 0.31429 0.0
H1330 H 0.1777 0.80828 0.29944 0.0
H1331 H 0.14873 0.75545 0.27365 0.0
S1332 S 0.2049 0.70759 0.39901 0.0
N1333 N 0.21269 0.74972 0.39297 0.0
N1334 N 0.18187 0.69185 0.36502 0.0
C1335 C 0.17928 0.7213 0.34711 0.0
C1336 C 0.19588 0.75252 0.3623 0.0
C1337 C 0.78876 0.65824 0.82525 0.0
C1338 C 0.78097 0.63674 0.79608 0.0
C1339 C 0.76178 0.66771 0.84755 0.0
C1340 C 0.72559 0.65851 0.8399 0.0
H1341 H 0.81519 0.67111 0.82888 0.0
H1342 H 0.76908 0.6861 0.86843 0.0
S1343 S 0.69097 0.60388 0.7652 0.0
N1344 N 0.73473 0.60443 0.76195 0.0
N1345 N 0.6836 0.62752 0.80005 0.0
C1346 C 0.71742 0.63614 0.81133 0.0
C1347 C 0.7452 0.62433 0.79014 0.0
C1348 C 0.68579 0.83752 0.75378 0.0
C1349 C 0.68318 0.82396 0.71991 0.0
C1350 C 0.67501 0.8169 0.78187 0.0
C1351 C 0.66232 0.78178 0.77688 0.0
H1352 H 0.6977 0.86374 0.75865 0.0
H1353 H 0.67883 0.82795 0.80767 0.0
S1354 S 0.64964 0.73451 0.6927 0.0
N1355 N 0.66638 0.77391 0.68262 0.0
N1356 N 0.64547 0.73516 0.73513 0.0
C1357 C 0.6579 0.76854 0.74287 0.0
C1358 C 0.66871 0.78959 0.7144 0.0
C1359 C 0.65679 0.18492 0.2714 0.0
C1360 C 0.67864 0.15758 0.26744 0.0
C1361 C 0.64585 0.20249 0.24254 0.0
C1362 C 0.65584 0.19288 0.20881 0.0
H1363 H 0.651 0.19496 0.29695 0.0
H1364 H 0.63129 0.22509 0.24686 0.0
S1365 S 0.70735 0.11872 0.18476 0.0
N1366 N 0.70602 0.11876 0.22739 0.0
N1367 N 0.68459 0.15106 0.17309 0.0
C1368 C 0.6744 0.16319 0.20445 0.0
C1369 C 0.68605 0.14572 0.23384 0.0
C1370 C 0.30917 0.15889 0.76157 0.0
C1371 C 0.31006 0.17411 0.72904 0.0
C1372 C 0.32219 0.17784 0.79078 0.0
C1373 C 0.33532 0.21294 0.78838 0.0
H1374 H 0.29693 0.13268 0.76464 0.0
H1375 H 0.31952 0.16562 0.81565 0.0
S1376 S 0.34413 0.26412 0.70845 0.0
N1377 N 0.32585 0.22558 0.69563 0.0
N1378 N 0.35079 0.26131 0.75035 0.0
C1379 C 0.33804 0.22781 0.75557 0.0
C1380 C 0.32502 0.20841 0.7259 0.0
C1381 C 0.34493 0.81916 0.27871 0.0
C1382 C 0.32487 0.84774 0.27535 0.0
C1383 C 0.35497 0.80032 0.24946 0.0
C1384 C 0.3459 0.80993 0.21599 0.0
H1385 H 0.34978 0.80921 0.30402 0.0
H1386 H 0.36802 0.77687 0.2532 0.0
S1387 S 0.29912 0.88673 0.19372 0.0
N1388 N 0.30008 0.88741 0.23636 0.0
N1389 N 0.32005 0.85286 0.18125 0.0
C1390 C 0.32926 0.84072 0.21232 0.0
C1391 C 0.31843 0.85943 0.24211 0.0
loop_
_geom_bond_atom_site_label_1
_geom_bond_atom_site_label_2
_geom_bond_distance
_geom_bond_site_symmetry_2
_ccdc_geom_bond_type
Mn0 O5 2.095 . S
Mn0 O15 2.162 . S
Mn0 O16 2.297 . S
Mn0 O24 2.385 . S
Mn0 O25 2.209 . S
Mn0 O26 2.094 . S
Mn1 O6 2.121 . S
Mn1 N8 2.257 . S
Mn1 N17 2.282 . S
Mn1 O25 2.215 . S
Mn1 O27 2.117 . S
C2 O24 1.234 . S
C2 O25 1.283 . S
C3 O15 1.281 . S
C3 O16 1.236 . S
C4 O26 1.240 . S
C4 O27 1.264 . S
O5 Mn0 2.095 . S
O5 C14 1.250 . S
O6 Mn1 2.121 . S
O6 C14 1.258 . S
C7 N8 1.326 . S
C7 C11 1.460 . S
C7 H13 0.929 . S
N8 Mn1 2.257 . S
N8 C7 1.326 . S
N8 C12 1.362 . S
C9 C10 1.258 . S
C9 C12 1.431 . S
C9 C29 1.449 . S
C10 C9 1.258 . S
C10 C11 1.477 . S
C10 H30 0.931 . S
C11 C7 1.460 . S
C11 C10 1.477 . S
C11 H31 0.930 . S
C12 N8 1.362 . S
C12 C9 1.431 . S
C12 C22 1.476 . S
H13 C7 0.929 . S
C14 O5 1.250 . S
C14 O6 1.258 . S
O15 Mn0 2.162 . S
O15 C3 1.281 . S
O16 Mn0 2.297 . S
O16 C3 1.236 . S
N17 Mn1 2.282 . S
N17 C18 1.328 . S
N17 C22 1.318 . S
C18 N17 1.328 . S
C18 C19 1.457 . S
C18 H23 0.929 . S
C19 C18 1.457 . S
C19 C20 1.291 . S
C19 H32 0.931 . S
C20 C19 1.291 . S
C20 C21 1.373 . S
C20 H33 0.929 . S
C21 C20 1.373 . S
C21 C22 1.396 . S
C21 C28 1.403 . S
C22 C12 1.476 . S
C22 N17 1.318 . S
C22 C21 1.396 . S
H23 C18 0.929 . S
O24 Mn0 2.385 . S
O24 C2 1.234 . S
O25 Mn0 2.209 . S
O25 Mn1 2.215 . S
O25 C2 1.283 . S
O26 Mn0 2.094 . S
O26 C4 1.240 . S
O27 Mn1 2.117 . S
O27 C4 1.264 . S
C28 C21 1.403 . S
C28 C29 1.399 . S
C28 H34 0.929 . S
C29 C9 1.449 . S
C29 C28 1.399 . S
C29 H35 0.930 . S
H30 C10 0.931 . S
H31 C11 0.930 . S
H32 C19 0.931 . S
H33 C20 0.929 . S
H34 C28 0.929 . S
H35 C29 0.930 . S
Mn36 O41 2.095 . S
Mn36 O51 2.162 . S
Mn36 O52 2.297 . S
Mn36 O60 2.385 . S
Mn36 O61 2.209 . S
Mn36 O62 2.094 . S
Mn37 O42 2.121 . S
Mn37 N44 2.257 . S
Mn37 N53 2.282 . S
Mn37 O61 2.215 . S
Mn37 O63 2.117 . S
C38 O60 1.234 . S
C38 O61 1.283 . S
C39 O51 1.281 . S
C39 O52 1.236 . S
C40 O62 1.240 . S
C40 O63 1.264 . S
O41 Mn36 2.095 . S
O41 C50 1.250 . S
O42 Mn37 2.121 . S
O42 C50 1.258 . S
C43 N44 1.326 . S
C43 C47 1.460 . S
C43 H49 0.929 . S
N44 Mn37 2.257 . S
N44 C43 1.326 . S
N44 C48 1.362 . S
C45 C46 1.258 . S
C45 C48 1.431 . S
C45 C65 1.449 . S
C46 C45 1.258 . S
C46 C47 1.477 . S
C46 H66 0.931 . S
C47 C43 1.460 . S
C47 C46 1.477 . S
C47 H67 0.930 . S
C48 N44 1.362 . S
C48 C45 1.431 . S
C48 C58 1.476 . S
H49 C43 0.929 . S
C50 O41 1.250 . S
C50 O42 1.258 . S
O51 Mn36 2.162 . S
O51 C39 1.281 . S
O52 Mn36 2.297 . S
O52 C39 1.236 . S
N53 Mn37 2.282 . S
N53 C54 1.328 . S
N53 C58 1.318 . S
C54 N53 1.328 . S
C54 C55 1.457 . S
C54 H59 0.929 . S
C55 C54 1.457 . S
C55 C56 1.291 . S
C55 H68 0.931 . S
C56 C55 1.291 . S
C56 C57 1.373 . S
C56 H69 0.929 . S
C57 C56 1.373 . S
C57 C58 1.396 . S
C57 C64 1.403 . S
C58 C48 1.476 . S
C58 N53 1.318 . S
C58 C57 1.396 . S
H59 C54 0.929 . S
O60 Mn36 2.385 . S
O60 C38 1.234 . S
O61 Mn36 2.209 . S
O61 Mn37 2.215 . S
O61 C38 1.283 . S
O62 Mn36 2.094 . S
O62 C40 1.240 . S
O63 Mn37 2.117 . S
O63 C40 1.264 . S
C64 C57 1.403 . S
C64 C65 1.399 . S
C64 H70 0.929 . S
C65 C45 1.449 . S
C65 C64 1.399 . S
C65 H71 0.930 . S
H66 C46 0.931 . S
H67 C47 0.930 . S
H68 C55 0.931 . S
H69 C56 0.929 . S
H70 C64 0.929 . S
H71 C65 0.930 . S
Mn72 O77 2.095 . S
Mn72 O87 2.162 . S
Mn72 O88 2.297 . S
Mn72 O96 2.385 . S
Mn72 O97 2.209 . S
Mn72 O98 2.094 . S
Mn73 O78 2.121 . S
Mn73 N80 2.257 . S
Mn73 N89 2.282 . S
Mn73 O97 2.215 . S
Mn73 O99 2.117 . S
C74 O96 1.234 . S
C74 O97 1.283 . S
C75 O87 1.281 . S
C75 O88 1.236 . S
C76 O98 1.240 . S
C76 O99 1.264 . S
O77 Mn72 2.095 . S
O77 C86 1.250 . S
O78 Mn73 2.121 . S
O78 C86 1.258 . S
C79 N80 1.326 . S
C79 C83 1.460 . S
C79 H85 0.929 . S
N80 Mn73 2.257 . S
N80 C79 1.326 . S
N80 C84 1.362 . S
C81 C82 1.258 . S
C81 C84 1.431 . S
C81 C101 1.449 . S
C82 C81 1.258 . S
C82 C83 1.477 . S
C82 H102 0.931 . S
C83 C79 1.460 . S
C83 C82 1.477 . S
C83 H103 0.930 . S
C84 N80 1.362 . S
C84 C81 1.431 . S
C84 C94 1.476 . S
H85 C79 0.929 . S
C86 O77 1.250 . S
C86 O78 1.258 . S
O87 Mn72 2.162 . S
O87 C75 1.281 . S
O88 Mn72 2.297 . S
O88 C75 1.236 . S
N89 Mn73 2.282 . S
N89 C90 1.328 . S
N89 C94 1.318 . S
C90 N89 1.328 . S
C90 C91 1.457 . S
C90 H95 0.929 . S
C91 C90 1.457 . S
C91 C92 1.291 . S
C91 H104 0.931 . S
C92 C91 1.291 . S
C92 C93 1.373 . S
C92 H105 0.929 . S
C93 C92 1.373 . S
C93 C94 1.396 . S
C93 C100 1.403 . S
C94 C84 1.476 . S
C94 N89 1.318 . S
C94 C93 1.396 . S
H95 C90 0.929 . S
O96 Mn72 2.385 . S
O96 C74 1.234 . S
O97 Mn72 2.209 . S
O97 Mn73 2.215 . S
O97 C74 1.283 . S
O98 Mn72 2.094 . S
O98 C76 1.240 . S
O99 Mn73 2.117 . S
O99 C76 1.264 . S
C100 C93 1.403 . S
C100 C101 1.399 . S
C100 H106 0.929 . S
C101 C81 1.449 . S
C101 C100 1.399 . S
C101 H107 0.930 . S
H102 C82 0.931 . S
H103 C83 0.930 . S
H104 C91 0.931 . S
H105 C92 0.929 . S
H106 C100 0.929 . S
H107 C101 0.930 . S
Mn108 O113 2.095 . S
Mn108 O123 2.162 . S
Mn108 O124 2.297 . S
Mn108 O132 2.385 . S
Mn108 O133 2.209 . S
Mn108 O134 2.094 . S
Mn109 O114 2.121 . S
Mn109 N116 2.257 . S
Mn109 N125 2.282 . S
Mn109 O133 2.215 . S
Mn109 O135 2.117 . S
C110 O132 1.234 . S
C110 O133 1.283 . S
C111 O123 1.281 . S
C111 O124 1.236 . S
C112 O134 1.240 . S
C112 O135 1.264 . S
O113 Mn108 2.095 . S
O113 C122 1.250 . S
O114 Mn109 2.121 . S
O114 C122 1.258 . S
C115 N116 1.326 . S
C115 C119 1.460 . S
C115 H121 0.929 . S
N116 Mn109 2.257 . S
N116 C115 1.326 . S
N116 C120 1.362 . S
C117 C118 1.258 . S
C117 C120 1.431 . S
C117 C137 1.449 . S
C118 C117 1.258 . S
C118 C119 1.477 . S
C118 H138 0.931 . S
C119 C115 1.460 . S
C119 C118 1.477 . S
C119 H139 0.930 . S
C120 N116 1.362 . S
C120 C117 1.431 . S
C120 C130 1.476 . S
H121 C115 0.929 . S
C122 O113 1.250 . S
C122 O114 1.258 . S
O123 Mn108 2.162 . S
O123 C111 1.281 . S
O124 Mn108 2.297 . S
O124 C111 1.236 . S
N125 Mn109 2.282 . S
N125 C126 1.328 . S
N125 C130 1.318 . S
C126 N125 1.328 . S
C126 C127 1.457 . S
C126 H131 0.929 . S
C127 C126 1.457 . S
C127 C128 1.291 . S
C127 H140 0.931 . S
C128 C127 1.291 . S
C128 C129 1.373 . S
C128 H141 0.929 . S
C129 C128 1.373 . S
C129 C130 1.396 . S
C129 C136 1.403 . S
C130 C120 1.476 . S
C130 N125 1.318 . S
C130 C129 1.396 . S
H131 C126 0.929 . S
O132 Mn108 2.385 . S
O132 C110 1.234 . S
O133 Mn108 2.209 . S
O133 Mn109 2.215 . S
O133 C110 1.283 . S
O134 Mn108 2.094 . S
O134 C112 1.240 . S
O135 Mn109 2.117 . S
O135 C112 1.264 . S
C136 C129 1.403 . S
C136 C137 1.399 . S
C136 H142 0.929 . S
C137 C117 1.449 . S
C137 C136 1.399 . S
C137 H143 0.930 . S
H138 C118 0.931 . S
H139 C119 0.930 . S
H140 C127 0.931 . S
H141 C128 0.929 . S
H142 C136 0.929 . S
H143 C137 0.930 . S
Mn144 O149 2.095 . S
Mn144 O159 2.162 . S
Mn144 O160 2.297 . S
Mn144 O168 2.385 . S
Mn144 O169 2.209 . S
Mn144 O170 2.094 . S
Mn145 O150 2.121 . S
Mn145 N152 2.257 . S
Mn145 N161 2.282 . S
Mn145 O169 2.215 . S
Mn145 O171 2.117 . S
C146 O168 1.234 . S
C146 O169 1.283 . S
C147 O159 1.281 . S
C147 O160 1.236 . S
C148 O170 1.240 . S
C148 O171 1.264 . S
O149 Mn144 2.095 . S
O149 C158 1.250 . S
O150 Mn145 2.121 . S
O150 C158 1.258 . S
C151 N152 1.326 . S
C151 C155 1.460 . S
C151 H157 0.929 . S
N152 Mn145 2.257 . S
N152 C151 1.326 . S
N152 C156 1.362 . S
C153 C154 1.258 . S
C153 C156 1.431 . S
C153 C173 1.449 . S
C154 C153 1.258 . S
C154 C155 1.477 . S
C154 H174 0.931 . S
C155 C151 1.460 . S
C155 C154 1.477 . S
C155 H175 0.930 . S
C156 N152 1.362 . S
C156 C153 1.431 . S
C156 C166 1.476 . S
H157 C151 0.929 . S
C158 O149 1.250 . S
C158 O150 1.258 . S
O159 Mn144 2.162 . S
O159 C147 1.281 . S
O160 Mn144 2.297 . S
O160 C147 1.236 . S
N161 Mn145 2.282 . S
N161 C162 1.328 . S
N161 C166 1.318 . S
C162 N161 1.328 . S
C162 C163 1.457 . S
C162 H167 0.929 . S
C163 C162 1.457 . S
C163 C164 1.291 . S
C163 H176 0.931 . S
C164 C163 1.291 . S
C164 C165 1.373 . S
C164 H177 0.929 . S
C165 C164 1.373 . S
C165 C166 1.396 . S
C165 C172 1.403 . S
C166 C156 1.476 . S
C166 N161 1.318 . S
C166 C165 1.396 . S
H167 C162 0.929 . S
O168 Mn144 2.385 . S
O168 C146 1.234 . S
O169 Mn144 2.209 . S
O169 Mn145 2.215 . S
O169 C146 1.283 . S
O170 Mn144 2.094 . S
O170 C148 1.240 . S
O171 Mn145 2.117 . S
O171 C148 1.264 . S
C172 C165 1.403 . S
C172 C173 1.399 . S
C172 H178 0.929 . S
C173 C153 1.449 . S
C173 C172 1.399 . S
C173 H179 0.930 . S
H174 C154 0.931 . S
H175 C155 0.930 . S
H176 C163 0.931 . S
H177 C164 0.929 . S
H178 C172 0.929 . S
H179 C173 0.930 . S
Mn180 O185 2.095 . S
Mn180 O195 2.162 . S
Mn180 O196 2.297 . S
Mn180 O204 2.385 . S
Mn180 O205 2.209 . S
Mn180 O206 2.094 . S
Mn181 O186 2.121 . S
Mn181 N188 2.257 . S
Mn181 N197 2.282 . S
Mn181 O205 2.215 . S
Mn181 O207 2.117 . S
C182 O204 1.234 . S
C182 O205 1.283 . S
C183 O195 1.281 . S
C183 O196 1.236 . S
C184 O206 1.240 . S
C184 O207 1.264 . S
O185 Mn180 2.095 . S
O185 C194 1.250 . S
O186 Mn181 2.121 . S
O186 C194 1.258 . S
C187 N188 1.326 . S
C187 C191 1.460 . S
C187 H193 0.929 . S
N188 Mn181 2.257 . S
N188 C187 1.326 . S
N188 C192 1.362 . S
C189 C190 1.258 . S
C189 C192 1.431 . S
C189 C209 1.449 . S
C190 C189 1.258 . S
C190 C191 1.477 . S
C190 H210 0.931 . S
C191 C187 1.460 . S
C191 C190 1.477 . S
C191 H211 0.930 . S
C192 N188 1.362 . S
C192 C189 1.431 . S
C192 C202 1.476 . S
H193 C187 0.929 . S
C194 O185 1.250 . S
C194 O186 1.258 . S
O195 Mn180 2.162 . S
O195 C183 1.281 . S
O196 Mn180 2.297 . S
O196 C183 1.236 . S
N197 Mn181 2.282 . S
N197 C198 1.328 . S
N197 C202 1.318 . S
C198 N197 1.328 . S
C198 C199 1.457 . S
C198 H203 0.929 . S
C199 C198 1.457 . S
C199 C200 1.291 . S
C199 H212 0.931 . S
C200 C199 1.291 . S
C200 C201 1.373 . S
C200 H213 0.929 . S
C201 C200 1.373 . S
C201 C202 1.396 . S
C201 C208 1.403 . S
C202 C192 1.476 . S
C202 N197 1.318 . S
C202 C201 1.396 . S
H203 C198 0.929 . S
O204 Mn180 2.385 . S
O204 C182 1.234 . S
O205 Mn180 2.209 . S
O205 Mn181 2.215 . S
O205 C182 1.283 . S
O206 Mn180 2.094 . S
O206 C184 1.240 . S
O207 Mn181 2.117 . S
O207 C184 1.264 . S
C208 C201 1.403 . S
C208 C209 1.399 . S
C208 H214 0.929 . S
C209 C189 1.449 . S
C209 C208 1.399 . S
C209 H215 0.930 . S
H210 C190 0.931 . S
H211 C191 0.930 . S
H212 C199 0.931 . S
H213 C200 0.929 . S
H214 C208 0.929 . S
H215 C209 0.930 . S
Mn216 O221 2.095 . S
Mn216 O231 2.162 . S
Mn216 O232 2.297 . S
Mn216 O240 2.385 . S
Mn216 O241 2.209 . S
Mn216 O242 2.094 . S
Mn217 O222 2.121 . S
Mn217 N224 2.257 . S
Mn217 N233 2.282 . S
Mn217 O241 2.215 . S
Mn217 O243 2.117 . S
C218 O240 1.234 . S
C218 O241 1.283 . S
C219 O231 1.281 . S
C219 O232 1.236 . S
C220 O242 1.240 . S
C220 O243 1.264 . S
O221 Mn216 2.095 . S
O221 C230 1.250 . S
O222 Mn217 2.121 . S
O222 C230 1.258 . S
C223 N224 1.326 . S
C223 C227 1.460 . S
C223 H229 0.929 . S
N224 Mn217 2.257 . S
N224 C223 1.326 . S
N224 C228 1.362 . S
C225 C226 1.258 . S
C225 C228 1.431 . S
C225 C245 1.449 . S
C226 C225 1.258 . S
C226 C227 1.477 . S
C226 H246 0.931 . S
C227 C223 1.460 . S
C227 C226 1.477 . S
C227 H247 0.930 . S
C228 N224 1.362 . S
C228 C225 1.431 . S
C228 C238 1.476 . S
H229 C223 0.929 . S
C230 O221 1.250 . S
C230 O222 1.258 . S
O231 Mn216 2.162 . S
O231 C219 1.281 . S
O232 Mn216 2.297 . S
O232 C219 1.236 . S
N233 Mn217 2.282 . S
N233 C234 1.328 . S
N233 C238 1.318 . S
C234 N233 1.328 . S
C234 C235 1.457 . S
C234 H239 0.929 . S
C235 C234 1.457 . S
C235 C236 1.291 . S
C235 H248 0.931 . S
C236 C235 1.291 . S
C236 C237 1.373 . S
C236 H249 0.929 . S
C237 C236 1.373 . S
C237 C238 1.396 . S
C237 C244 1.403 . S
C238 C228 1.476 . S
C238 N233 1.318 . S
C238 C237 1.396 . S
H239 C234 0.929 . S
O240 Mn216 2.385 . S
O240 C218 1.234 . S
O241 Mn216 2.209 . S
O241 Mn217 2.215 . S
O241 C218 1.283 . S
O242 Mn216 2.094 . S
O242 C220 1.240 . S
O243 Mn217 2.117 . S
O243 C220 1.264 . S
C244 C237 1.403 . S
C244 C245 1.399 . S
C244 H250 0.929 . S
C245 C225 1.449 . S
C245 C244 1.399 . S
C245 H251 0.930 . S
H246 C226 0.931 . S
H247 C227 0.930 . S
H248 C235 0.931 . S
H249 C236 0.929 . S
H250 C244 0.929 . S
H251 C245 0.930 . S
Mn252 O257 2.095 . S
Mn252 O267 2.162 . S
Mn252 O268 2.297 . S
Mn252 O276 2.385 . S
Mn252 O277 2.209 . S
Mn252 O278 2.094 . S
Mn253 O258 2.121 . S
Mn253 N260 2.257 . S
Mn253 N269 2.282 . S
Mn253 O277 2.215 . S
Mn253 O279 2.117 . S
C254 O276 1.234 . S
C254 O277 1.283 . S
C255 O267 1.281 . S
C255 O268 1.236 . S
C256 O278 1.240 . S
C256 O279 1.264 . S
O257 Mn252 2.095 . S
O257 C266 1.250 . S
O258 Mn253 2.121 . S
O258 C266 1.258 . S
C259 N260 1.326 . S
C259 C263 1.460 . S
C259 H265 0.929 . S
N260 Mn253 2.257 . S
N260 C259 1.326 . S
N260 C264 1.362 . S
C261 C262 1.258 . S
C261 C264 1.431 . S
C261 C281 1.449 . S
C262 C261 1.258 . S
C262 C263 1.477 . S
C262 H282 0.931 . S
C263 C259 1.460 . S
C263 C262 1.477 . S
C263 H283 0.930 . S
C264 N260 1.362 . S
C264 C261 1.431 . S
C264 C274 1.476 . S
H265 C259 0.929 . S
C266 O257 1.250 . S
C266 O258 1.258 . S
O267 Mn252 2.162 . S
O267 C255 1.281 . S
O268 Mn252 2.297 . S
O268 C255 1.236 . S
N269 Mn253 2.282 . S
N269 C270 1.328 . S
N269 C274 1.318 . S
C270 N269 1.328 . S
C270 C271 1.457 . S
C270 H275 0.929 . S
C271 C270 1.457 . S
C271 C272 1.291 . S
C271 H284 0.931 . S
C272 C271 1.291 . S
C272 C273 1.373 . S
C272 H285 0.929 . S
C273 C272 1.373 . S
C273 C274 1.396 . S
C273 C280 1.403 . S
C274 C264 1.476 . S
C274 N269 1.318 . S
C274 C273 1.396 . S
H275 C270 0.929 . S
O276 Mn252 2.385 . S
O276 C254 1.234 . S
O277 Mn252 2.209 . S
O277 Mn253 2.215 . S
O277 C254 1.283 . S
O278 Mn252 2.094 . S
O278 C256 1.240 . S
O279 Mn253 2.117 . S
O279 C256 1.264 . S
C280 C273 1.403 . S
C280 C281 1.399 . S
C280 H286 0.929 . S
C281 C261 1.449 . S
C281 C280 1.399 . S
C281 H287 0.930 . S
H282 C262 0.931 . S
H283 C263 0.930 . S
H284 C271 0.931 . S
H285 C272 0.929 . S
H286 C280 0.929 . S
H287 C281 0.930 . S
Mn288 O293 2.095 . S
Mn288 O303 2.162 . S
Mn288 O304 2.297 . S
Mn288 O312 2.385 . S
Mn288 O313 2.209 . S
Mn288 O314 2.094 . S
Mn289 O294 2.121 . S
Mn289 N296 2.257 . S
Mn289 N305 2.282 . S
Mn289 O313 2.215 . S
Mn289 O315 2.117 . S
C290 O312 1.234 . S
C290 O313 1.283 . S
C291 O303 1.281 . S
C291 O304 1.236 . S
C292 O314 1.240 . S
C292 O315 1.264 . S
O293 Mn288 2.095 . S
O293 C302 1.250 . S
O294 Mn289 2.121 . S
O294 C302 1.258 . S
C295 N296 1.326 . S
C295 C299 1.460 . S
C295 H301 0.929 . S
N296 Mn289 2.257 . S
N296 C295 1.326 . S
N296 C300 1.362 . S
C297 C298 1.258 . S
C297 C300 1.431 . S
C297 C317 1.449 . S
C298 C297 1.258 . S
C298 C299 1.477 . S
C298 H318 0.931 . S
C299 C295 1.460 . S
C299 C298 1.477 . S
C299 H319 0.930 . S
C300 N296 1.362 . S
C300 C297 1.431 . S
C300 C310 1.476 . S
H301 C295 0.929 . S
C302 O293 1.250 . S
C302 O294 1.258 . S
O303 Mn288 2.162 . S
O303 C291 1.281 . S
O304 Mn288 2.297 . S
O304 C291 1.236 . S
N305 Mn289 2.282 . S
N305 C306 1.328 . S
N305 C310 1.318 . S
C306 N305 1.328 . S
C306 C307 1.457 . S
C306 H311 0.929 . S
C307 C306 1.457 . S
C307 C308 1.291 . S
C307 H320 0.931 . S
C308 C307 1.291 . S
C308 C309 1.373 . S
C308 H321 0.929 . S
C309 C308 1.373 . S
C309 C310 1.396 . S
C309 C316 1.403 . S
C310 C300 1.476 . S
C310 N305 1.318 . S
C310 C309 1.396 . S
H311 C306 0.929 . S
O312 Mn288 2.385 . S
O312 C290 1.234 . S
O313 Mn288 2.209 . S
O313 Mn289 2.215 . S
O313 C290 1.283 . S
O314 Mn288 2.094 . S
O314 C292 1.240 . S
O315 Mn289 2.117 . S
O315 C292 1.264 . S
C316 C309 1.403 . S
C316 C317 1.399 . S
C316 H322 0.929 . S
C317 C297 1.449 . S
C317 C316 1.399 . S
C317 H323 0.930 . S
H318 C298 0.931 . S
H319 C299 0.930 . S
H320 C307 0.931 . S
H321 C308 0.929 . S
H322 C316 0.929 . S
H323 C317 0.930 . S
Mn324 O329 2.095 . S
Mn324 O339 2.162 . S
Mn324 O340 2.297 . S
Mn324 O348 2.385 . S
Mn324 O349 2.209 . S
Mn324 O350 2.094 . S
Mn325 O330 2.121 . S
Mn325 N332 2.257 . S
Mn325 N341 2.282 . S
Mn325 O349 2.215 . S
Mn325 O351 2.117 . S
C326 O348 1.234 . S
C326 O349 1.283 . S
C327 O339 1.281 . S
C327 O340 1.236 . S
C328 O350 1.240 . S
C328 O351 1.264 . S
O329 Mn324 2.095 . S
O329 C338 1.250 . S
O330 Mn325 2.121 . S
O330 C338 1.258 . S
C331 N332 1.326 . S
C331 C335 1.460 . S
C331 H337 0.929 . S
N332 Mn325 2.257 . S
N332 C331 1.326 . S
N332 C336 1.362 . S
C333 C334 1.258 . S
C333 C336 1.431 . S
C333 C353 1.449 . S
C334 C333 1.258 . S
C334 C335 1.477 . S
C334 H354 0.931 . S
C335 C331 1.460 . S
C335 C334 1.477 . S
C335 H355 0.930 . S
C336 N332 1.362 . S
C336 C333 1.431 . S
C336 C346 1.476 . S
H337 C331 0.929 . S
C338 O329 1.250 . S
C338 O330 1.258 . S
O339 Mn324 2.162 . S
O339 C327 1.281 . S
O340 Mn324 2.297 . S
O340 C327 1.236 . S
N341 Mn325 2.282 . S
N341 C342 1.328 . S
N341 C346 1.318 . S
C342 N341 1.328 . S
C342 C343 1.457 . S
C342 H347 0.929 . S
C343 C342 1.457 . S
C343 C344 1.291 . S
C343 H356 0.931 . S
C344 C343 1.291 . S
C344 C345 1.373 . S
C344 H357 0.929 . S
C345 C344 1.373 . S
C345 C346 1.396 . S
C345 C352 1.403 . S
C346 C336 1.476 . S
C346 N341 1.318 . S
C346 C345 1.396 . S
H347 C342 0.929 . S
O348 Mn324 2.385 . S
O348 C326 1.234 . S
O349 Mn324 2.209 . S
O349 Mn325 2.215 . S
O349 C326 1.283 . S
O350 Mn324 2.094 . S
O350 C328 1.240 . S
O351 Mn325 2.117 . S
O351 C328 1.264 . S
C352 C345 1.403 . S
C352 C353 1.399 . S
C352 H358 0.929 . S
C353 C333 1.449 . S
C353 C352 1.399 . S
C353 H359 0.930 . S
H354 C334 0.931 . S
H355 C335 0.930 . S
H356 C343 0.931 . S
H357 C344 0.929 . S
H358 C352 0.929 . S
H359 C353 0.930 . S
Mn360 O365 2.095 . S
Mn360 O375 2.162 . S
Mn360 O376 2.297 . S
Mn360 O384 2.385 . S
Mn360 O385 2.209 . S
Mn360 O386 2.094 . S
Mn361 O366 2.121 . S
Mn361 N368 2.257 . S
Mn361 N377 2.282 . S
Mn361 O385 2.215 . S
Mn361 O387 2.117 . S
C362 O384 1.234 . S
C362 O385 1.283 . S
C363 O375 1.281 . S
C363 O376 1.236 . S
C364 O386 1.240 . S
C364 O387 1.264 . S
O365 Mn360 2.095 . S
O365 C374 1.250 . S
O366 Mn361 2.121 . S
O366 C374 1.258 . S
C367 N368 1.326 . S
C367 C371 1.460 . S
C367 H373 0.929 . S
N368 Mn361 2.257 . S
N368 C367 1.326 . S
N368 C372 1.362 . S
C369 C370 1.258 . S
C369 C372 1.431 . S
C369 C389 1.449 . S
C370 C369 1.258 . S
C370 C371 1.477 . S
C370 H390 0.931 . S
C371 C367 1.460 . S
C371 C370 1.477 . S
C371 H391 0.930 . S
C372 N368 1.362 . S
C372 C369 1.431 . S
C372 C382 1.476 . S
H373 C367 0.929 . S
C374 O365 1.250 . S
C374 O366 1.258 . S
O375 Mn360 2.162 . S
O375 C363 1.281 . S
O376 Mn360 2.297 . S
O376 C363 1.236 . S
N377 Mn361 2.282 . S
N377 C378 1.328 . S
N377 C382 1.318 . S
C378 N377 1.328 . S
C378 C379 1.457 . S
C378 H383 0.929 . S
C379 C378 1.457 . S
C379 C380 1.291 . S
C379 H392 0.931 . S
C380 C379 1.291 . S
C380 C381 1.373 . S
C380 H393 0.929 . S
C381 C380 1.373 . S
C381 C382 1.396 . S
C381 C388 1.403 . S
C382 C372 1.476 . S
C382 N377 1.318 . S
C382 C381 1.396 . S
H383 C378 0.929 . S
O384 Mn360 2.385 . S
O384 C362 1.234 . S
O385 Mn360 2.209 . S
O385 Mn361 2.215 . S
O385 C362 1.283 . S
O386 Mn360 2.094 . S
O386 C364 1.240 . S
O387 Mn361 2.117 . S
O387 C364 1.264 . S
C388 C381 1.403 . S
C388 C389 1.399 . S
C388 H394 0.929 . S
C389 C369 1.449 . S
C389 C388 1.399 . S
C389 H395 0.930 . S
H390 C370 0.931 . S
H391 C371 0.930 . S
H392 C379 0.931 . S
H393 C380 0.929 . S
H394 C388 0.929 . S
H395 C389 0.930 . S
Mn396 O401 2.095 . S
Mn396 O411 2.162 . S
Mn396 O412 2.297 . S
Mn396 O420 2.385 . S
Mn396 O421 2.209 . S
Mn396 O422 2.094 . S
Mn397 O402 2.121 . S
Mn397 N404 2.257 . S
Mn397 N413 2.282 . S
Mn397 O421 2.215 . S
Mn397 O423 2.117 . S
C398 O420 1.234 . S
C398 O421 1.283 . S
C399 O411 1.281 . S
C399 O412 1.236 . S
C400 O422 1.240 . S
C400 O423 1.264 . S
O401 Mn396 2.095 . S
O401 C410 1.250 . S
O402 Mn397 2.121 . S
O402 C410 1.258 . S
C403 N404 1.326 . S
C403 C407 1.460 . S
C403 H409 0.929 . S
N404 Mn397 2.257 . S
N404 C403 1.326 . S
N404 C408 1.362 . S
C405 C406 1.258 . S
C405 C408 1.431 . S
C405 C425 1.449 . S
C406 C405 1.258 . S
C406 C407 1.477 . S
C406 H426 0.931 . S
C407 C403 1.460 . S
C407 C406 1.477 . S
C407 H427 0.930 . S
C408 N404 1.362 . S
C408 C405 1.431 . S
C408 C418 1.476 . S
H409 C403 0.929 . S
C410 O401 1.250 . S
C410 O402 1.258 . S
O411 Mn396 2.162 . S
O411 C399 1.281 . S
O412 Mn396 2.297 . S
O412 C399 1.236 . S
N413 Mn397 2.282 . S
N413 C414 1.328 . S
N413 C418 1.318 . S
C414 N413 1.328 . S
C414 C415 1.457 . S
C414 H419 0.929 . S
C415 C414 1.457 . S
C415 C416 1.291 . S
C415 H428 0.931 . S
C416 C415 1.291 . S
C416 C417 1.373 . S
C416 H429 0.929 . S
C417 C416 1.373 . S
C417 C418 1.396 . S
C417 C424 1.403 . S
C418 C408 1.476 . S
C418 N413 1.318 . S
C418 C417 1.396 . S
H419 C414 0.929 . S
O420 Mn396 2.385 . S
O420 C398 1.234 . S
O421 Mn396 2.209 . S
O421 Mn397 2.215 . S
O421 C398 1.283 . S
O422 Mn396 2.094 . S
O422 C400 1.240 . S
O423 Mn397 2.117 . S
O423 C400 1.264 . S
C424 C417 1.403 . S
C424 C425 1.399 . S
C424 H430 0.929 . S
C425 C405 1.449 . S
C425 C424 1.399 . S
C425 H431 0.930 . S
H426 C406 0.931 . S
H427 C407 0.930 . S
H428 C415 0.931 . S
H429 C416 0.929 . S
H430 C424 0.929 . S
H431 C425 0.930 . S
Mn432 O437 2.095 . S
Mn432 O447 2.162 . S
Mn432 O448 2.297 . S
Mn432 O456 2.385 . S
Mn432 O457 2.209 . S
Mn432 O458 2.094 . S
Mn433 O438 2.121 . S
Mn433 N440 2.257 . S
Mn433 N449 2.282 . S
Mn433 O457 2.215 . S
Mn433 O459 2.117 . S
C434 O456 1.234 . S
C434 O457 1.283 . S
C435 O447 1.281 . S
C435 O448 1.236 . S
C436 O458 1.240 . S
C436 O459 1.264 . S
O437 Mn432 2.095 . S
O437 C446 1.250 . S
O438 Mn433 2.121 . S
O438 C446 1.258 . S
C439 N440 1.326 . S
C439 C443 1.460 . S
C439 H445 0.929 . S
N440 Mn433 2.257 . S
N440 C439 1.326 . S
N440 C444 1.362 . S
C441 C442 1.258 . S
C441 C444 1.431 . S
C441 C461 1.449 . S
C442 C441 1.258 . S
C442 C443 1.477 . S
C442 H462 0.931 . S
C443 C439 1.460 . S
C443 C442 1.477 . S
C443 H463 0.930 . S
C444 N440 1.362 . S
C444 C441 1.431 . S
C444 C454 1.476 . S
H445 C439 0.929 . S
C446 O437 1.250 . S
C446 O438 1.258 . S
O447 Mn432 2.162 . S
O447 C435 1.281 . S
O448 Mn432 2.297 . S
O448 C435 1.236 . S
N449 Mn433 2.282 . S
N449 C450 1.328 . S
N449 C454 1.318 . S
C450 N449 1.328 . S
C450 C451 1.457 . S
C450 H455 0.929 . S
C451 C450 1.457 . S
C451 C452 1.291 . S
C451 H464 0.931 . S
C452 C451 1.291 . S
C452 C453 1.373 . S
C452 H465 0.929 . S
C453 C452 1.373 . S
C453 C454 1.396 . S
C453 C460 1.403 . S
C454 C444 1.476 . S
C454 N449 1.318 . S
C454 C453 1.396 . S
H455 C450 0.929 . S
O456 Mn432 2.385 . S
O456 C434 1.234 . S
O457 Mn432 2.209 . S
O457 Mn433 2.215 . S
O457 C434 1.283 . S
O458 Mn432 2.094 . S
O458 C436 1.240 . S
O459 Mn433 2.117 . S
O459 C436 1.264 . S
C460 C453 1.403 . S
C460 C461 1.399 . S
C460 H466 0.929 . S
C461 C441 1.449 . S
C461 C460 1.399 . S
C461 H467 0.930 . S
H462 C442 0.931 . S
H463 C443 0.930 . S
H464 C451 0.931 . S
H465 C452 0.929 . S
H466 C460 0.929 . S
H467 C461 0.930 . S
Mn468 O473 2.095 . S
Mn468 O483 2.162 . S
Mn468 O484 2.297 . S
Mn468 O492 2.385 . S
Mn468 O493 2.209 . S
Mn468 O494 2.094 . S
Mn469 O474 2.121 . S
Mn469 N476 2.257 . S
Mn469 N485 2.282 . S
Mn469 O493 2.215 . S
Mn469 O495 2.117 . S
C470 O492 1.234 . S
C470 O493 1.283 . S
C471 O483 1.281 . S
C471 O484 1.236 . S
C472 O494 1.240 . S
C472 O495 1.264 . S
O473 Mn468 2.095 . S
O473 C482 1.250 . S
O474 Mn469 2.121 . S
O474 C482 1.258 . S
C475 N476 1.326 . S
C475 C479 1.460 . S
C475 H481 0.929 . S
N476 Mn469 2.257 . S
N476 C475 1.326 . S
N476 C480 1.362 . S
C477 C478 1.258 . S
C477 C480 1.431 . S
C477 C497 1.449 . S
C478 C477 1.258 . S
C478 C479 1.477 . S
C478 H498 0.931 . S
C479 C475 1.460 . S
C479 C478 1.477 . S
C479 H499 0.930 . S
C480 N476 1.362 . S
C480 C477 1.431 . S
C480 C490 1.476 . S
H481 C475 0.929 . S
C482 O473 1.250 . S
C482 O474 1.258 . S
O483 Mn468 2.162 . S
O483 C471 1.281 . S
O484 Mn468 2.297 . S
O484 C471 1.236 . S
N485 Mn469 2.282 . S
N485 C486 1.328 . S
N485 C490 1.318 . S
C486 N485 1.328 . S
C486 C487 1.457 . S
C486 H491 0.929 . S
C487 C486 1.457 . S
C487 C488 1.291 . S
C487 H500 0.931 . S
C488 C487 1.291 . S
C488 C489 1.373 . S
C488 H501 0.929 . S
C489 C488 1.373 . S
C489 C490 1.396 . S
C489 C496 1.403 . S
C490 C480 1.476 . S
C490 N485 1.318 . S
C490 C489 1.396 . S
H491 C486 0.929 . S
O492 Mn468 2.385 . S
O492 C470 1.234 . S
O493 Mn468 2.209 . S
O493 Mn469 2.215 . S
O493 C470 1.283 . S
O494 Mn468 2.094 . S
O494 C472 1.240 . S
O495 Mn469 2.117 . S
O495 C472 1.264 . S
C496 C489 1.403 . S
C496 C497 1.399 . S
C496 H502 0.929 . S
C497 C477 1.449 . S
C497 C496 1.399 . S
C497 H503 0.930 . S
H498 C478 0.931 . S
H499 C479 0.930 . S
H500 C487 0.931 . S
H501 C488 0.929 . S
H502 C496 0.929 . S
H503 C497 0.930 . S
Mn504 O509 2.095 . S
Mn504 O519 2.162 . S
Mn504 O520 2.297 . S
Mn504 O528 2.385 . S
Mn504 O529 2.209 . S
Mn504 O530 2.094 . S
Mn505 O510 2.121 . S
Mn505 N512 2.257 . S
Mn505 N521 2.282 . S
Mn505 O529 2.215 . S
Mn505 O531 2.117 . S
C506 O528 1.234 . S
C506 O529 1.283 . S
C507 O519 1.281 . S
C507 O520 1.236 . S
C508 O530 1.240 . S
C508 O531 1.264 . S
O509 Mn504 2.095 . S
O509 C518 1.250 . S
O510 Mn505 2.121 . S
O510 C518 1.258 . S
C511 N512 1.326 . S
C511 C515 1.460 . S
C511 H517 0.929 . S
N512 Mn505 2.257 . S
N512 C511 1.326 . S
N512 C516 1.362 . S
C513 C514 1.258 . S
C513 C516 1.431 . S
C513 C533 1.449 . S
C514 C513 1.258 . S
C514 C515 1.477 . S
C514 H534 0.931 . S
C515 C511 1.460 . S
C515 C514 1.477 . S
C515 H535 0.930 . S
C516 N512 1.362 . S
C516 C513 1.431 . S
C516 C526 1.476 . S
H517 C511 0.929 . S
C518 O509 1.250 . S
C518 O510 1.258 . S
O519 Mn504 2.162 . S
O519 C507 1.281 . S
O520 Mn504 2.297 . S
O520 C507 1.236 . S
N521 Mn505 2.282 . S
N521 C522 1.328 . S
N521 C526 1.318 . S
C522 N521 1.328 . S
C522 C523 1.457 . S
C522 H527 0.929 . S
C523 C522 1.457 . S
C523 C524 1.291 . S
C523 H536 0.931 . S
C524 C523 1.291 . S
C524 C525 1.373 . S
C524 H537 0.929 . S
C525 C524 1.373 . S
C525 C526 1.396 . S
C525 C532 1.403 . S
C526 C516 1.476 . S
C526 N521 1.318 . S
C526 C525 1.396 . S
H527 C522 0.929 . S
O528 Mn504 2.385 . S
O528 C506 1.234 . S
O529 Mn504 2.209 . S
O529 Mn505 2.215 . S
O529 C506 1.283 . S
O530 Mn504 2.094 . S
O530 C508 1.240 . S
O531 Mn505 2.117 . S
O531 C508 1.264 . S
C532 C525 1.403 . S
C532 C533 1.399 . S
C532 H538 0.929 . S
C533 C513 1.449 . S
C533 C532 1.399 . S
C533 H539 0.930 . S
H534 C514 0.931 . S
H535 C515 0.930 . S
H536 C523 0.931 . S
H537 C524 0.929 . S
H538 C532 0.929 . S
H539 C533 0.930 . S
Mn540 O545 2.095 . S
Mn540 O555 2.162 . S
Mn540 O556 2.297 . S
Mn540 O564 2.385 . S
Mn540 O565 2.209 . S
Mn540 O566 2.094 . S
Mn541 O546 2.121 . S
Mn541 N548 2.257 . S
Mn541 N557 2.282 . S
Mn541 O565 2.215 . S
Mn541 O567 2.117 . S
C542 O564 1.234 . S
C542 O565 1.283 . S
C543 O555 1.281 . S
C543 O556 1.236 . S
C544 O566 1.240 . S
C544 O567 1.264 . S
O545 Mn540 2.095 . S
O545 C554 1.250 . S
O546 Mn541 2.121 . S
O546 C554 1.258 . S
C547 N548 1.326 . S
C547 C551 1.460 . S
C547 H553 0.929 . S
N548 Mn541 2.257 . S
N548 C547 1.326 . S
N548 C552 1.362 . S
C549 C550 1.258 . S
C549 C552 1.431 . S
C549 C569 1.449 . S
C550 C549 1.258 . S
C550 C551 1.477 . S
C550 H570 0.931 . S
C551 C547 1.460 . S
C551 C550 1.477 . S
C551 H571 0.930 . S
C552 N548 1.362 . S
C552 C549 1.431 . S
C552 C562 1.476 . S
H553 C547 0.929 . S
C554 O545 1.250 . S
C554 O546 1.258 . S
O555 Mn540 2.162 . S
O555 C543 1.281 . S
O556 Mn540 2.297 . S
O556 C543 1.236 . S
N557 Mn541 2.282 . S
N557 C558 1.328 . S
N557 C562 1.318 . S
C558 N557 1.328 . S
C558 C559 1.457 . S
C558 H563 0.929 . S
C559 C558 1.457 . S
C559 C560 1.291 . S
C559 H572 0.931 . S
C560 C559 1.291 . S
C560 C561 1.373 . S
C560 H573 0.929 . S
C561 C560 1.373 . S
C561 C562 1.396 . S
C561 C568 1.403 . S
C562 C552 1.476 . S
C562 N557 1.318 . S
C562 C561 1.396 . S
H563 C558 0.929 . S
O564 Mn540 2.385 . S
O564 C542 1.234 . S
O565 Mn540 2.209 . S
O565 Mn541 2.215 . S
O565 C542 1.283 . S
O566 Mn540 2.094 . S
O566 C544 1.240 . S
O567 Mn541 2.117 . S
O567 C544 1.264 . S
C568 C561 1.403 . S
C568 C569 1.399 . S
C568 H574 0.929 . S
C569 C549 1.449 . S
C569 C568 1.399 . S
C569 H575 0.930 . S
H570 C550 0.931 . S
H571 C551 0.930 . S
H572 C559 0.931 . S
H573 C560 0.929 . S
H574 C568 0.929 . S
H575 C569 0.930 . S
Mn576 O581 2.095 . S
Mn576 O591 2.162 . S
Mn576 O592 2.297 . S
Mn576 O600 2.385 . S
Mn576 O601 2.209 . S
Mn576 O602 2.094 . S
Mn577 O582 2.121 . S
Mn577 N584 2.257 . S
Mn577 N593 2.282 . S
Mn577 O601 2.215 . S
Mn577 O603 2.117 . S
C578 O600 1.234 . S
C578 O601 1.283 . S
C579 O591 1.281 . S
C579 O592 1.236 . S
C580 O602 1.240 . S
C580 O603 1.264 . S
O581 Mn576 2.095 . S
O581 C590 1.250 . S
O582 Mn577 2.121 . S
O582 C590 1.258 . S
C583 N584 1.326 . S
C583 C587 1.460 . S
C583 H589 0.929 . S
N584 Mn577 2.257 . S
N584 C583 1.326 . S
N584 C588 1.362 . S
C585 C586 1.258 . S
C585 C588 1.431 . S
C585 C605 1.449 . S
C586 C585 1.258 . S
C586 C587 1.477 . S
C586 H606 0.931 . S
C587 C583 1.460 . S
C587 C586 1.477 . S
C587 H607 0.930 . S
C588 N584 1.362 . S
C588 C585 1.431 . S
C588 C598 1.476 . S
H589 C583 0.929 . S
C590 O581 1.250 . S
C590 O582 1.258 . S
O591 Mn576 2.162 . S
O591 C579 1.281 . S
O592 Mn576 2.297 . S
O592 C579 1.236 . S
N593 Mn577 2.282 . S
N593 C594 1.328 . S
N593 C598 1.318 . S
C594 N593 1.328 . S
C594 C595 1.457 . S
C594 H599 0.929 . S
C595 C594 1.457 . S
C595 C596 1.291 . S
C595 H608 0.931 . S
C596 C595 1.291 . S
C596 C597 1.373 . S
C596 H609 0.929 . S
C597 C596 1.373 . S
C597 C598 1.396 . S
C597 C604 1.403 . S
C598 C588 1.476 . S
C598 N593 1.318 . S
C598 C597 1.396 . S
H599 C594 0.929 . S
O600 Mn576 2.385 . S
O600 C578 1.234 . S
O601 Mn576 2.209 . S
O601 Mn577 2.215 . S
O601 C578 1.283 . S
O602 Mn576 2.094 . S
O602 C580 1.240 . S
O603 Mn577 2.117 . S
O603 C580 1.264 . S
C604 C597 1.403 . S
C604 C605 1.399 . S
C604 H610 0.929 . S
C605 C585 1.449 . S
C605 C604 1.399 . S
C605 H611 0.930 . S
H606 C586 0.931 . S
H607 C587 0.930 . S
H608 C595 0.931 . S
H609 C596 0.929 . S
H610 C604 0.929 . S
H611 C605 0.930 . S
Mn612 O617 2.095 . S
Mn612 O627 2.162 . S
Mn612 O628 2.297 . S
Mn612 O636 2.385 . S
Mn612 O637 2.209 . S
Mn612 O638 2.094 . S
Mn613 O618 2.121 . S
Mn613 N620 2.257 . S
Mn613 N629 2.282 . S
Mn613 O637 2.215 . S
Mn613 O639 2.117 . S
C614 O636 1.234 . S
C614 O637 1.283 . S
C615 O627 1.281 . S
C615 O628 1.236 . S
C616 O638 1.240 . S
C616 O639 1.264 . S
O617 Mn612 2.095 . S
O617 C626 1.250 . S
O618 Mn613 2.121 . S
O618 C626 1.258 . S
C619 N620 1.326 . S
C619 C623 1.460 . S
C619 H625 0.929 . S
N620 Mn613 2.257 . S
N620 C619 1.326 . S
N620 C624 1.362 . S
C621 C622 1.258 . S
C621 C624 1.431 . S
C621 C641 1.449 . S
C622 C621 1.258 . S
C622 C623 1.477 . S
C622 H642 0.931 . S
C623 C619 1.460 . S
C623 C622 1.477 . S
C623 H643 0.930 . S
C624 N620 1.362 . S
C624 C621 1.431 . S
C624 C634 1.476 . S
H625 C619 0.929 . S
C626 O617 1.250 . S
C626 O618 1.258 . S
O627 Mn612 2.162 . S
O627 C615 1.281 . S
O628 Mn612 2.297 . S
O628 C615 1.236 . S
N629 Mn613 2.282 . S
N629 C630 1.328 . S
N629 C634 1.318 . S
C630 N629 1.328 . S
C630 C631 1.457 . S
C630 H635 0.929 . S
C631 C630 1.457 . S
C631 C632 1.291 . S
C631 H644 0.931 . S
C632 C631 1.291 . S
C632 C633 1.373 . S
C632 H645 0.929 . S
C633 C632 1.373 . S
C633 C634 1.396 . S
C633 C640 1.403 . S
C634 C624 1.476 . S
C634 N629 1.318 . S
C634 C633 1.396 . S
H635 C630 0.929 . S
O636 Mn612 2.385 . S
O636 C614 1.234 . S
O637 Mn612 2.209 . S
O637 Mn613 2.215 . S
O637 C614 1.283 . S
O638 Mn612 2.094 . S
O638 C616 1.240 . S
O639 Mn613 2.117 . S
O639 C616 1.264 . S
C640 C633 1.403 . S
C640 C641 1.399 . S
C640 H646 0.929 . S
C641 C621 1.449 . S
C641 C640 1.399 . S
C641 H647 0.930 . S
H642 C622 0.931 . S
H643 C623 0.930 . S
H644 C631 0.931 . S
H645 C632 0.929 . S
H646 C640 0.929 . S
H647 C641 0.930 . S
Mn648 O653 2.095 . S
Mn648 O663 2.162 . S
Mn648 O664 2.297 . S
Mn648 O672 2.385 . S
Mn648 O673 2.209 . S
Mn648 O674 2.094 . S
Mn649 O654 2.121 . S
Mn649 N656 2.257 . S
Mn649 N665 2.282 . S
Mn649 O673 2.215 . S
Mn649 O675 2.117 . S
C650 O672 1.234 . S
C650 O673 1.283 . S
C651 O663 1.281 . S
C651 O664 1.236 . S
C652 O674 1.240 . S
C652 O675 1.264 . S
O653 Mn648 2.095 . S
O653 C662 1.250 . S
O654 Mn649 2.121 . S
O654 C662 1.258 . S
C655 N656 1.326 . S
C655 C659 1.460 . S
C655 H661 0.929 . S
N656 Mn649 2.257 . S
N656 C655 1.326 . S
N656 C660 1.362 . S
C657 C658 1.258 . S
C657 C660 1.431 . S
C657 C677 1.449 . S
C658 C657 1.258 . S
C658 C659 1.477 . S
C658 H678 0.931 . S
C659 C655 1.460 . S
C659 C658 1.477 . S
C659 H679 0.930 . S
C660 N656 1.362 . S
C660 C657 1.431 . S
C660 C670 1.476 . S
H661 C655 0.929 . S
C662 O653 1.250 . S
C662 O654 1.258 . S
O663 Mn648 2.162 . S
O663 C651 1.281 . S
O664 Mn648 2.297 . S
O664 C651 1.236 . S
N665 Mn649 2.282 . S
N665 C666 1.328 . S
N665 C670 1.318 . S
C666 N665 1.328 . S
C666 C667 1.457 . S
C666 H671 0.929 . S
C667 C666 1.457 . S
C667 C668 1.291 . S
C667 H680 0.931 . S
C668 C667 1.291 . S
C668 C669 1.373 . S
C668 H681 0.929 . S
C669 C668 1.373 . S
C669 C670 1.396 . S
C669 C676 1.403 . S
C670 C660 1.476 . S
C670 N665 1.318 . S
C670 C669 1.396 . S
H671 C666 0.929 . S
O672 Mn648 2.385 . S
O672 C650 1.234 . S
O673 Mn648 2.209 . S
O673 Mn649 2.215 . S
O673 C650 1.283 . S
O674 Mn648 2.094 . S
O674 C652 1.240 . S
O675 Mn649 2.117 . S
O675 C652 1.264 . S
C676 C669 1.403 . S
C676 C677 1.399 . S
C676 H682 0.929 . S
C677 C657 1.449 . S
C677 C676 1.399 . S
C677 H683 0.930 . S
H678 C658 0.931 . S
H679 C659 0.930 . S
H680 C667 0.931 . S
H681 C668 0.929 . S
H682 C676 0.929 . S
H683 C677 0.930 . S
Mn684 O689 2.095 . S
Mn684 O699 2.162 . S
Mn684 O700 2.297 . S
Mn684 O708 2.385 . S
Mn684 O709 2.209 . S
Mn684 O710 2.094 . S
Mn685 O690 2.121 . S
Mn685 N692 2.257 . S
Mn685 N701 2.282 . S
Mn685 O709 2.215 . S
Mn685 O711 2.117 . S
C686 O708 1.234 . S
C686 O709 1.283 . S
C687 O699 1.281 . S
C687 O700 1.236 . S
C688 O710 1.240 . S
C688 O711 1.264 . S
O689 Mn684 2.095 . S
O689 C698 1.250 . S
O690 Mn685 2.121 . S
O690 C698 1.258 . S
C691 N692 1.326 . S
C691 C695 1.460 . S
C691 H697 0.929 . S
N692 Mn685 2.257 . S
N692 C691 1.326 . S
N692 C696 1.362 . S
C693 C694 1.258 . S
C693 C696 1.431 . S
C693 C713 1.449 . S
C694 C693 1.258 . S
C694 C695 1.477 . S
C694 H714 0.931 . S
C695 C691 1.460 . S
C695 C694 1.477 . S
C695 H715 0.930 . S
C696 N692 1.362 . S
C696 C693 1.431 . S
C696 C706 1.476 . S
H697 C691 0.929 . S
C698 O689 1.250 . S
C698 O690 1.258 . S
O699 Mn684 2.162 . S
O699 C687 1.281 . S
O700 Mn684 2.297 . S
O700 C687 1.236 . S
N701 Mn685 2.282 . S
N701 C702 1.328 . S
N701 C706 1.318 . S
C702 N701 1.328 . S
C702 C703 1.457 . S
C702 H707 0.929 . S
C703 C702 1.457 . S
C703 C704 1.291 . S
C703 H716 0.931 . S
C704 C703 1.291 . S
C704 C705 1.373 . S
C704 H717 0.929 . S
C705 C704 1.373 . S
C705 C706 1.396 . S
C705 C712 1.403 . S
C706 C696 1.476 . S
C706 N701 1.318 . S
C706 C705 1.396 . S
H707 C702 0.929 . S
O708 Mn684 2.385 . S
O708 C686 1.234 . S
O709 Mn684 2.209 . S
O709 Mn685 2.215 . S
O709 C686 1.283 . S
O710 Mn684 2.094 . S
O710 C688 1.240 . S
O711 Mn685 2.117 . S
O711 C688 1.264 . S
C712 C705 1.403 . S
C712 C713 1.399 . S
C712 H718 0.929 . S
C713 C693 1.449 . S
C713 C712 1.399 . S
C713 H719 0.930 . S
H714 C694 0.931 . S
H715 C695 0.930 . S
H716 C703 0.931 . S
H717 C704 0.929 . S
H718 C712 0.929 . S
H719 C713 0.930 . S
Mn720 O725 2.095 . S
Mn720 O735 2.162 . S
Mn720 O736 2.297 . S
Mn720 O744 2.385 . S
Mn720 O745 2.209 . S
Mn720 O746 2.094 . S
Mn721 O726 2.121 . S
Mn721 N728 2.257 . S
Mn721 N737 2.282 . S
Mn721 O745 2.215 . S
Mn721 O747 2.117 . S
C722 O744 1.234 . S
C722 O745 1.283 . S
C723 O735 1.281 . S
C723 O736 1.236 . S
C724 O746 1.240 . S
C724 O747 1.264 . S
O725 Mn720 2.095 . S
O725 C734 1.250 . S
O726 Mn721 2.121 . S
O726 C734 1.258 . S
C727 N728 1.326 . S
C727 C731 1.460 . S
C727 H733 0.929 . S
N728 Mn721 2.257 . S
N728 C727 1.326 . S
N728 C732 1.362 . S
C729 C730 1.258 . S
C729 C732 1.431 . S
C729 C749 1.449 . S
C730 C729 1.258 . S
C730 C731 1.477 . S
C730 H750 0.931 . S
C731 C727 1.460 . S
C731 C730 1.477 . S
C731 H751 0.930 . S
C732 N728 1.362 . S
C732 C729 1.431 . S
C732 C742 1.476 . S
H733 C727 0.929 . S
C734 O725 1.250 . S
C734 O726 1.258 . S
O735 Mn720 2.162 . S
O735 C723 1.281 . S
O736 Mn720 2.297 . S
O736 C723 1.236 . S
N737 Mn721 2.282 . S
N737 C738 1.328 . S
N737 C742 1.318 . S
C738 N737 1.328 . S
C738 C739 1.457 . S
C738 H743 0.929 . S
C739 C738 1.457 . S
C739 C740 1.291 . S
C739 H752 0.931 . S
C740 C739 1.291 . S
C740 C741 1.373 . S
C740 H753 0.929 . S
C741 C740 1.373 . S
C741 C742 1.396 . S
C741 C748 1.403 . S
C742 C732 1.476 . S
C742 N737 1.318 . S
C742 C741 1.396 . S
H743 C738 0.929 . S
O744 Mn720 2.385 . S
O744 C722 1.234 . S
O745 Mn720 2.209 . S
O745 Mn721 2.215 . S
O745 C722 1.283 . S
O746 Mn720 2.094 . S
O746 C724 1.240 . S
O747 Mn721 2.117 . S
O747 C724 1.264 . S
C748 C741 1.403 . S
C748 C749 1.399 . S
C748 H754 0.929 . S
C749 C729 1.449 . S
C749 C748 1.399 . S
C749 H755 0.930 . S
H750 C730 0.931 . S
H751 C731 0.930 . S
H752 C739 0.931 . S
H753 C740 0.929 . S
H754 C748 0.929 . S
H755 C749 0.930 . S
Mn756 O761 2.095 . S
Mn756 O771 2.162 . S
Mn756 O772 2.297 . S
Mn756 O780 2.385 . S
Mn756 O781 2.209 . S
Mn756 O782 2.094 . S
Mn757 O762 2.121 . S
Mn757 N764 2.257 . S
Mn757 N773 2.282 . S
Mn757 O781 2.215 . S
Mn757 O783 2.117 . S
C758 O780 1.234 . S
C758 O781 1.283 . S
C759 O771 1.281 . S
C759 O772 1.236 . S
C760 O782 1.240 . S
C760 O783 1.264 . S
O761 Mn756 2.095 . S
O761 C770 1.250 . S
O762 Mn757 2.121 . S
O762 C770 1.258 . S
C763 N764 1.326 . S
C763 C767 1.460 . S
C763 H769 0.929 . S
N764 Mn757 2.257 . S
N764 C763 1.326 . S
N764 C768 1.362 . S
C765 C766 1.258 . S
C765 C768 1.431 . S
C765 C785 1.449 . S
C766 C765 1.258 . S
C766 C767 1.477 . S
C766 H786 0.931 . S
C767 C763 1.460 . S
C767 C766 1.477 . S
C767 H787 0.930 . S
C768 N764 1.362 . S
C768 C765 1.431 . S
C768 C778 1.476 . S
H769 C763 0.929 . S
C770 O761 1.250 . S
C770 O762 1.258 . S
O771 Mn756 2.162 . S
O771 C759 1.281 . S
O772 Mn756 2.297 . S
O772 C759 1.236 . S
N773 Mn757 2.282 . S
N773 C774 1.328 . S
N773 C778 1.318 . S
C774 N773 1.328 . S
C774 C775 1.457 . S
C774 H779 0.929 . S
C775 C774 1.457 . S
C775 C776 1.291 . S
C775 H788 0.931 . S
C776 C775 1.291 . S
C776 C777 1.373 . S
C776 H789 0.929 . S
C777 C776 1.373 . S
C777 C778 1.396 . S
C777 C784 1.403 . S
C778 C768 1.476 . S
C778 N773 1.318 . S
C778 C777 1.396 . S
H779 C774 0.929 . S
O780 Mn756 2.385 . S
O780 C758 1.234 . S
O781 Mn756 2.209 . S
O781 Mn757 2.215 . S
O781 C758 1.283 . S
O782 Mn756 2.094 . S
O782 C760 1.240 . S
O783 Mn757 2.117 . S
O783 C760 1.264 . S
C784 C777 1.403 . S
C784 C785 1.399 . S
C784 H790 0.929 . S
C785 C765 1.449 . S
C785 C784 1.399 . S
C785 H791 0.930 . S
H786 C766 0.931 . S
H787 C767 0.930 . S
H788 C775 0.931 . S
H789 C776 0.929 . S
H790 C784 0.929 . S
H791 C785 0.930 . S
Mn792 O797 2.095 . S
Mn792 O807 2.162 . S
Mn792 O808 2.297 . S
Mn792 O816 2.385 . S
Mn792 O817 2.209 . S
Mn792 O818 2.094 . S
Mn793 O798 2.121 . S
Mn793 N800 2.257 . S
Mn793 N809 2.282 . S
Mn793 O817 2.215 . S
Mn793 O819 2.117 . S
C794 O816 1.234 . S
C794 O817 1.283 . S
C795 O807 1.281 . S
C795 O808 1.236 . S
C796 O818 1.240 . S
C796 O819 1.264 . S
O797 Mn792 2.095 . S
O797 C806 1.250 . S
O798 Mn793 2.121 . S
O798 C806 1.258 . S
C799 N800 1.326 . S
C799 C803 1.460 . S
C799 H805 0.929 . S
N800 Mn793 2.257 . S
N800 C799 1.326 . S
N800 C804 1.362 . S
C801 C802 1.258 . S
C801 C804 1.431 . S
C801 C821 1.449 . S
C802 C801 1.258 . S
C802 C803 1.477 . S
C802 H822 0.931 . S
C803 C799 1.460 . S
C803 C802 1.477 . S
C803 H823 0.930 . S
C804 N800 1.362 . S
C804 C801 1.431 . S
C804 C814 1.476 . S
H805 C799 0.929 . S
C806 O797 1.250 . S
C806 O798 1.258 . S
O807 Mn792 2.162 . S
O807 C795 1.281 . S
O808 Mn792 2.297 . S
O808 C795 1.236 . S
N809 Mn793 2.282 . S
N809 C810 1.328 . S
N809 C814 1.318 . S
C810 N809 1.328 . S
C810 C811 1.457 . S
C810 H815 0.929 . S
C811 C810 1.457 . S
C811 C812 1.291 . S
C811 H824 0.931 . S
C812 C811 1.291 . S
C812 C813 1.373 . S
C812 H825 0.929 . S
C813 C812 1.373 . S
C813 C814 1.396 . S
C813 C820 1.403 . S
C814 C804 1.476 . S
C814 N809 1.318 . S
C814 C813 1.396 . S
H815 C810 0.929 . S
O816 Mn792 2.385 . S
O816 C794 1.234 . S
O817 Mn792 2.209 . S
O817 Mn793 2.215 . S
O817 C794 1.283 . S
O818 Mn792 2.094 . S
O818 C796 1.240 . S
O819 Mn793 2.117 . S
O819 C796 1.264 . S
C820 C813 1.403 . S
C820 C821 1.399 . S
C820 H826 0.929 . S
C821 C801 1.449 . S
C821 C820 1.399 . S
C821 H827 0.930 . S
H822 C802 0.931 . S
H823 C803 0.930 . S
H824 C811 0.931 . S
H825 C812 0.929 . S
H826 C820 0.929 . S
H827 C821 0.930 . S
Mn828 O833 2.095 . S
Mn828 O843 2.162 . S
Mn828 O844 2.297 . S
Mn828 O852 2.385 . S
Mn828 O853 2.209 . S
Mn828 O854 2.094 . S
Mn829 O834 2.121 . S
Mn829 N836 2.257 . S
Mn829 N845 2.282 . S
Mn829 O853 2.215 . S
Mn829 O855 2.117 . S
C830 O852 1.234 . S
C830 O853 1.283 . S
C831 O843 1.281 . S
C831 O844 1.236 . S
C832 O854 1.240 . S
C832 O855 1.264 . S
O833 Mn828 2.095 . S
O833 C842 1.250 . S
O834 Mn829 2.121 . S
O834 C842 1.258 . S
C835 N836 1.326 . S
C835 C839 1.460 . S
C835 H841 0.929 . S
N836 Mn829 2.257 . S
N836 C835 1.326 . S
N836 C840 1.362 . S
C837 C838 1.258 . S
C837 C840 1.431 . S
C837 C857 1.449 . S
C838 C837 1.258 . S
C838 C839 1.477 . S
C838 H858 0.931 . S
C839 C835 1.460 . S
C839 C838 1.477 . S
C839 H859 0.930 . S
C840 N836 1.362 . S
C840 C837 1.431 . S
C840 C850 1.476 . S
H841 C835 0.929 . S
C842 O833 1.250 . S
C842 O834 1.258 . S
O843 Mn828 2.162 . S
O843 C831 1.281 . S
O844 Mn828 2.297 . S
O844 C831 1.236 . S
N845 Mn829 2.282 . S
N845 C846 1.328 . S
N845 C850 1.318 . S
C846 N845 1.328 . S
C846 C847 1.457 . S
C846 H851 0.929 . S
C847 C846 1.457 . S
C847 C848 1.291 . S
C847 H860 0.931 . S
C848 C847 1.291 . S
C848 C849 1.373 . S
C848 H861 0.929 . S
C849 C848 1.373 . S
C849 C850 1.396 . S
C849 C856 1.403 . S
C850 C840 1.476 . S
C850 N845 1.318 . S
C850 C849 1.396 . S
H851 C846 0.929 . S
O852 Mn828 2.385 . S
O852 C830 1.234 . S
O853 Mn828 2.209 . S
O853 Mn829 2.215 . S
O853 C830 1.283 . S
O854 Mn828 2.094 . S
O854 C832 1.240 . S
O855 Mn829 2.117 . S
O855 C832 1.264 . S
C856 C849 1.403 . S
C856 C857 1.399 . S
C856 H862 0.929 . S
C857 C837 1.449 . S
C857 C856 1.399 . S
C857 H863 0.930 . S
H858 C838 0.931 . S
H859 C839 0.930 . S
H860 C847 0.931 . S
H861 C848 0.929 . S
H862 C856 0.929 . S
H863 C857 0.930 . S
C864 C865 1.369 . S
C864 C866 1.419 . S
C864 H868 0.930 . S
C865 C864 1.369 . S
C865 C874 1.429 . S
C866 C864 1.419 . S
C866 C867 1.363 . S
C866 H869 0.929 . S
C867 C866 1.363 . S
C867 C873 1.428 . S
H868 C864 0.930 . S
H869 C866 0.929 . S
S870 N871 1.613 . S
S870 N872 1.610 . S
N871 S870 1.613 . S
N871 C874 1.350 . S
N872 S870 1.610 . S
N872 C873 1.351 . S
C873 C867 1.428 . S
C873 N872 1.351 . S
C873 C874 1.434 . S
C874 C865 1.429 . S
C874 N871 1.350 . S
C874 C873 1.434 . S
C875 C876 1.369 . S
C875 C877 1.419 1_655 S
C875 H879 0.930 . S
C876 C875 1.369 . S
C876 C885 1.429 . S
C877 C875 1.419 1_455 S
C877 C878 1.363 . S
C877 H880 0.929 . S
C878 C877 1.363 . S
C878 C884 1.428 . S
H879 C875 0.930 . S
H880 C877 0.929 . S
S881 N882 1.613 1_455 S
S881 N883 1.610 . S
N882 S881 1.613 1_655 S
N882 C885 1.350 . S
N883 S881 1.610 . S
N883 C884 1.351 . S
C884 C878 1.428 . S
C884 N883 1.351 . S
C884 C885 1.434 1_455 S
C885 C876 1.429 . S
C885 N882 1.350 . S
C885 C884 1.434 1_655 S
C886 C887 1.369 . S
C886 C888 1.419 . S
C886 H890 0.930 . S
C887 C886 1.369 . S
C887 C896 1.429 . S
C888 C886 1.419 . S
C888 C889 1.363 . S
C888 H891 0.929 . S
C889 C888 1.363 . S
C889 C895 1.428 . S
H890 C886 0.930 . S
H891 C888 0.929 . S
S892 N893 1.613 . S
S892 N894 1.610 . S
N893 S892 1.613 . S
N893 C896 1.350 . S
N894 S892 1.610 . S
N894 C895 1.351 . S
C895 C889 1.428 . S
C895 N894 1.351 . S
C895 C896 1.434 . S
C896 C887 1.429 . S
C896 N893 1.350 . S
C896 C895 1.434 . S
C897 C898 1.369 . S
C897 C899 1.419 1_455 S
C897 H901 0.930 . S
C898 C897 1.369 . S
C898 C907 1.429 . S
C899 C897 1.419 1_655 S
C899 C900 1.363 . S
C899 H902 0.929 . S
C900 C899 1.363 . S
C900 C906 1.428 . S
H901 C897 0.930 . S
H902 C899 0.929 . S
S903 N904 1.613 . S
S903 N905 1.610 1_455 S
N904 S903 1.613 . S
N904 C907 1.350 . S
N905 S903 1.610 1_655 S
N905 C906 1.351 . S
C906 C900 1.428 . S
C906 N905 1.351 . S
C906 C907 1.434 1_655 S
C907 C898 1.429 . S
C907 N904 1.350 . S
C907 C906 1.434 1_455 S
C908 C909 1.369 . S
C908 C910 1.419 . S
C908 H912 0.930 . S
C909 C908 1.369 . S
C909 C918 1.429 . S
C910 C908 1.419 . S
C910 C911 1.363 . S
C910 H913 0.929 . S
C911 C910 1.363 . S
C911 C917 1.428 . S
H912 C908 0.930 . S
H913 C910 0.929 . S
S914 N915 1.613 . S
S914 N916 1.610 . S
N915 S914 1.613 . S
N915 C918 1.350 . S
N916 S914 1.610 . S
N916 C917 1.351 . S
C917 C911 1.428 . S
C917 N916 1.351 . S
C917 C918 1.434 . S
C918 C909 1.429 . S
C918 N915 1.350 . S
C918 C917 1.434 . S
C919 C920 1.369 1_455 S
C919 C921 1.419 . S
C919 H923 0.930 1_455 S
C920 C919 1.369 1_655 S
C920 C929 1.429 . S
C921 C919 1.419 . S
C921 C922 1.363 . S
C921 H924 0.929 . S
C922 C921 1.363 . S
C922 C928 1.428 . S
H923 C919 0.930 1_655 S
H924 C921 0.929 . S
S925 N926 1.613 1_455 S
S925 N927 1.610 . S
N926 S925 1.613 1_655 S
N926 C929 1.350 . S
N927 S925 1.610 . S
N927 C928 1.351 . S
C928 C922 1.428 . S
C928 N927 1.351 . S
C928 C929 1.434 1_455 S
C929 C920 1.429 . S
C929 N926 1.350 . S
C929 C928 1.434 1_655 S
C930 C931 1.369 . S
C930 C932 1.419 . S
C930 H934 0.930 . S
C931 C930 1.369 . S
C931 C940 1.429 . S
C932 C930 1.419 . S
C932 C933 1.363 . S
C932 H935 0.929 . S
C933 C932 1.363 . S
C933 C939 1.428 . S
H934 C930 0.930 . S
H935 C932 0.929 . S
S936 N937 1.613 . S
S936 N938 1.610 . S
N937 S936 1.613 . S
N937 C940 1.350 . S
N938 S936 1.610 . S
N938 C939 1.351 . S
C939 C933 1.428 . S
C939 N938 1.351 . S
C939 C940 1.434 . S
C940 C931 1.429 . S
C940 N937 1.350 . S
C940 C939 1.434 . S
C941 C942 1.369 . S
C941 C943 1.419 1_655 S
C941 H945 0.930 . S
C942 C941 1.369 . S
C942 C951 1.429 . S
C943 C941 1.419 1_455 S
C943 C944 1.363 . S
C943 H946 0.929 . S
C944 C943 1.363 . S
C944 C950 1.428 . S
H945 C941 0.930 . S
H946 C943 0.929 . S
S947 N948 1.613 . S
S947 N949 1.610 1_655 S
N948 S947 1.613 . S
N948 C951 1.350 . S
N949 S947 1.610 1_455 S
N949 C950 1.351 . S
C950 C944 1.428 . S
C950 N949 1.351 . S
C950 C951 1.434 1_455 S
C951 C942 1.429 . S
C951 N948 1.350 . S
C951 C950 1.434 1_655 S
C952 C953 1.369 . S
C952 C954 1.419 . S
C952 H956 0.930 . S
C953 C952 1.369 . S
C953 C962 1.429 . S
C954 C952 1.419 . S
C954 C955 1.363 . S
C954 H957 0.929 . S
C955 C954 1.363 . S
C955 C961 1.428 . S
H956 C952 0.930 . S
H957 C954 0.929 . S
S958 N959 1.613 . S
S958 N960 1.610 . S
N959 S958 1.613 . S
N959 C962 1.350 . S
N960 S958 1.610 . S
N960 C961 1.351 . S
C961 C955 1.428 . S
C961 N960 1.351 . S
C961 C962 1.434 . S
C962 C953 1.429 . S
C962 N959 1.350 . S
C962 C961 1.434 . S
C963 C964 1.369 . S
C963 C965 1.419 1_556 S
C963 H967 0.930 . S
C964 C963 1.369 . S
C964 C973 1.429 . S
C965 C963 1.419 1_554 S
C965 C966 1.363 . S
C965 H968 0.929 . S
C966 C965 1.363 . S
C966 C972 1.428 . S
H967 C963 0.930 . S
H968 C965 0.929 . S
S969 N970 1.613 . S
S969 N971 1.610 1_556 S
N970 S969 1.613 . S
N970 C973 1.350 . S
N971 S969 1.610 1_554 S
N971 C972 1.351 . S
C972 C966 1.428 . S
C972 N971 1.351 . S
C972 C973 1.434 1_554 S
C973 C964 1.429 . S
C973 N970 1.350 . S
C973 C972 1.434 1_556 S
C974 C975 1.369 . S
C974 C976 1.419 . S
C974 H978 0.930 . S
C975 C974 1.369 . S
C975 C984 1.429 . S
C976 C974 1.419 . S
C976 C977 1.363 . S
C976 H979 0.929 . S
C977 C976 1.363 . S
C977 C983 1.428 . S
H978 C974 0.930 . S
H979 C976 0.929 . S
S980 N981 1.613 . S
S980 N982 1.610 . S
N981 S980 1.613 . S
N981 C984 1.350 . S
N982 S980 1.610 . S
N982 C983 1.351 . S
C983 C977 1.428 . S
C983 N982 1.351 . S
C983 C984 1.434 . S
C984 C975 1.429 . S
C984 N981 1.350 . S
C984 C983 1.434 . S
C985 C986 1.369 . S
C985 C987 1.419 1_554 S
C985 H989 0.930 . S
C986 C985 1.369 . S
C986 C995 1.429 . S
C987 C985 1.419 1_556 S
C987 C988 1.363 . S
C987 H990 0.929 . S
C988 C987 1.363 . S
C988 C994 1.428 . S
H989 C985 0.930 . S
H990 C987 0.929 . S
S991 N992 1.613 . S
S991 N993 1.610 1_554 S
N992 S991 1.613 . S
N992 C995 1.350 . S
N993 S991 1.610 1_556 S
N993 C994 1.351 . S
C994 C988 1.428 . S
C994 N993 1.351 . S
C994 C995 1.434 1_556 S
C995 C986 1.429 . S
C995 N992 1.350 . S
C995 C994 1.434 1_554 S
C996 C997 1.369 . S
C996 C998 1.419 . S
C996 H1000 0.930 . S
C997 C996 1.369 . S
C997 C1006 1.429 . S
C998 C996 1.419 . S
C998 C999 1.363 . S
C998 H1001 0.929 . S
C999 C998 1.363 . S
C999 C1005 1.428 . S
H1000 C996 0.930 . S
H1001 C998 0.929 . S
S1002 N1003 1.613 . S
S1002 N1004 1.610 . S
N1003 S1002 1.613 . S
N1003 C1006 1.350 . S
N1004 S1002 1.610 . S
N1004 C1005 1.351 . S
C1005 C999 1.428 . S
C1005 N1004 1.351 . S
C1005 C1006 1.434 . S
C1006 C997 1.429 . S
C1006 N1003 1.350 . S
C1006 C1005 1.434 . S
C1007 C1008 1.369 . S
C1007 C1009 1.419 1_554 S
C1007 H1011 0.930 . S
C1008 C1007 1.369 . S
C1008 C1017 1.429 . S
C1009 C1007 1.419 1_556 S
C1009 C1010 1.363 . S
C1009 H1012 0.929 . S
C1010 C1009 1.363 . S
C1010 C1016 1.428 . S
H1011 C1007 0.930 . S
H1012 C1009 0.929 . S
S1013 N1014 1.613 1_556 S
S1013 N1015 1.610 . S
N1014 S1013 1.613 1_554 S
N1014 C1017 1.350 . S
N1015 S1013 1.610 . S
N1015 C1016 1.351 . S
C1016 C1010 1.428 . S
C1016 N1015 1.351 . S
C1016 C1017 1.434 1_556 S
C1017 C1008 1.429 . S
C1017 N1014 1.350 . S
C1017 C1016 1.434 1_554 S
C1018 C1019 1.369 . S
C1018 C1020 1.419 . S
C1018 H1022 0.930 . S
C1019 C1018 1.369 . S
C1019 C1028 1.429 . S
C1020 C1018 1.419 . S
C1020 C1021 1.363 . S
C1020 H1023 0.929 . S
C1021 C1020 1.363 . S
C1021 C1027 1.428 . S
H1022 C1018 0.930 . S
H1023 C1020 0.929 . S
S1024 N1025 1.613 . S
S1024 N1026 1.610 . S
N1025 S1024 1.613 . S
N1025 C1028 1.350 . S
N1026 S1024 1.610 . S
N1026 C1027 1.351 . S
C1027 C1021 1.428 . S
C1027 N1026 1.351 . S
C1027 C1028 1.434 . S
C1028 C1019 1.429 . S
C1028 N1025 1.350 . S
C1028 C1027 1.434 . S
C1029 C1030 1.369 . S
C1029 C1031 1.419 1_554 S
C1029 H1033 0.930 . S
C1030 C1029 1.369 . S
C1030 C1039 1.429 . S
C1031 C1029 1.419 1_556 S
C1031 C1032 1.363 . S
C1031 H1034 0.929 . S
C1032 C1031 1.363 . S
C1032 C1038 1.428 . S
H1033 C1029 0.930 . S
H1034 C1031 0.929 . S
S1035 N1036 1.613 . S
S1035 N1037 1.610 1_554 S
N1036 S1035 1.613 . S
N1036 C1039 1.350 . S
N1037 S1035 1.610 1_556 S
N1037 C1038 1.351 . S
C1038 C1032 1.428 . S
C1038 N1037 1.351 . S
C1038 C1039 1.434 1_556 S
C1039 C1030 1.429 . S
C1039 N1036 1.350 . S
C1039 C1038 1.434 1_554 S
C1040 C1041 1.369 . S
C1040 C1042 1.419 . S
C1040 H1044 0.930 . S
C1041 C1040 1.369 . S
C1041 C1050 1.429 . S
C1042 C1040 1.419 . S
C1042 C1043 1.363 . S
C1042 H1045 0.929 . S
C1043 C1042 1.363 . S
C1043 C1049 1.428 . S
H1044 C1040 0.930 . S
H1045 C1042 0.929 . S
S1046 N1047 1.613 . S
S1046 N1048 1.610 . S
N1047 S1046 1.613 . S
N1047 C1050 1.350 . S
N1048 S1046 1.610 . S
N1048 C1049 1.351 . S
C1049 C1043 1.428 . S
C1049 N1048 1.351 . S
C1049 C1050 1.434 . S
C1050 C1041 1.429 . S
C1050 N1047 1.350 . S
C1050 C1049 1.434 . S
C1051 C1052 1.369 . S
C1051 C1053 1.419 . S
C1051 H1055 0.930 . S
C1052 C1051 1.369 . S
C1052 C1061 1.429 . S
C1053 C1051 1.419 . S
C1053 C1054 1.363 . S
C1053 H1056 0.929 . S
C1054 C1053 1.363 . S
C1054 C1060 1.428 . S
H1055 C1051 0.930 . S
H1056 C1053 0.929 . S
S1057 N1058 1.613 . S
S1057 N1059 1.610 . S
N1058 S1057 1.613 . S
N1058 C1061 1.350 . S
N1059 S1057 1.610 . S
N1059 C1060 1.351 . S
C1060 C1054 1.428 . S
C1060 N1059 1.351 . S
C1060 C1061 1.434 . S
C1061 C1052 1.429 . S
C1061 N1058 1.350 . S
C1061 C1060 1.434 . S
C1062 C1063 1.369 . S
C1062 C1064 1.419 1_565 S
C1062 H1066 0.930 . S
C1063 C1062 1.369 . S
C1063 C1072 1.429 . S
C1064 C1062 1.419 1_545 S
C1064 C1065 1.363 . S
C1064 H1067 0.929 . S
C1065 C1064 1.363 . S
C1065 C1071 1.428 . S
H1066 C1062 0.930 . S
H1067 C1064 0.929 . S
S1068 N1069 1.613 1_545 S
S1068 N1070 1.610 . S
N1069 S1068 1.613 1_565 S
N1069 C1072 1.350 . S
N1070 S1068 1.610 . S
N1070 C1071 1.351 . S
C1071 C1065 1.428 . S
C1071 N1070 1.351 . S
C1071 C1072 1.434 1_545 S
C1072 C1063 1.429 . S
C1072 N1069 1.350 . S
C1072 C1071 1.434 1_565 S
C1073 C1074 1.369 . S
C1073 C1075 1.419 . S
C1073 H1077 0.930 . S
C1074 C1073 1.369 . S
C1074 C1083 1.429 . S
C1075 C1073 1.419 . S
C1075 C1076 1.363 . S
C1075 H1078 0.929 . S
C1076 C1075 1.363 . S
C1076 C1082 1.428 . S
H1077 C1073 0.930 . S
H1078 C1075 0.929 . S
S1079 N1080 1.613 . S
S1079 N1081 1.610 . S
N1080 S1079 1.613 . S
N1080 C1083 1.350 . S
N1081 S1079 1.610 . S
N1081 C1082 1.351 . S
C1082 C1076 1.428 . S
C1082 N1081 1.351 . S
C1082 C1083 1.434 . S
C1083 C1074 1.429 . S
C1083 N1080 1.350 . S
C1083 C1082 1.434 . S
C1084 C1085 1.369 . S
C1084 C1086 1.419 1_565 S
C1084 H1088 0.930 . S
C1085 C1084 1.369 . S
C1085 C1094 1.429 . S
C1086 C1084 1.419 1_545 S
C1086 C1087 1.363 . S
C1086 H1089 0.929 . S
C1087 C1086 1.363 . S
C1087 C1093 1.428 . S
H1088 C1084 0.930 . S
H1089 C1086 0.929 . S
S1090 N1091 1.613 . S
S1090 N1092 1.610 1_565 S
N1091 S1090 1.613 . S
N1091 C1094 1.350 . S
N1092 S1090 1.610 1_545 S
N1092 C1093 1.351 . S
C1093 C1087 1.428 . S
C1093 N1092 1.351 . S
C1093 C1094 1.434 1_545 S
C1094 C1085 1.429 . S
C1094 N1091 1.350 . S
C1094 C1093 1.434 1_565 S
C1095 C1096 1.369 . S
C1095 C1097 1.419 . S
C1095 H1099 0.930 . S
C1096 C1095 1.369 . S
C1096 C1105 1.429 . S
C1097 C1095 1.419 . S
C1097 C1098 1.363 . S
C1097 H1100 0.929 . S
C1098 C1097 1.363 . S
C1098 C1104 1.428 . S
H1099 C1095 0.930 . S
H1100 C1097 0.929 . S
S1101 N1102 1.613 . S
S1101 N1103 1.610 . S
N1102 S1101 1.613 . S
N1102 C1105 1.350 . S
N1103 S1101 1.610 . S
N1103 C1104 1.351 . S
C1104 C1098 1.428 . S
C1104 N1103 1.351 . S
C1104 C1105 1.434 . S
C1105 C1096 1.429 . S
C1105 N1102 1.350 . S
C1105 C1104 1.434 . S
C1106 C1107 1.369 . S
C1106 C1108 1.419 1_565 S
C1106 H1110 0.930 . S
C1107 C1106 1.369 . S
C1107 C1116 1.429 . S
C1108 C1106 1.419 1_545 S
C1108 C1109 1.363 . S
C1108 H1111 0.929 . S
C1109 C1108 1.363 . S
C1109 C1115 1.428 . S
H1110 C1106 0.930 . S
H1111 C1108 0.929 . S
S1112 N1113 1.613 1_545 S
S1112 N1114 1.610 . S
N1113 S1112 1.613 1_565 S
N1113 C1116 1.350 . S
N1114 S1112 1.610 . S
N1114 C1115 1.351 . S
C1115 C1109 1.428 . S
C1115 N1114 1.351 . S
C1115 C1116 1.434 1_545 S
C1116 C1107 1.429 . S
C1116 N1113 1.350 . S
C1116 C1115 1.434 1_565 S
C1117 C1118 1.369 . S
C1117 C1119 1.419 1_545 S
C1117 H1121 0.930 . S
C1118 C1117 1.369 . S
C1118 C1127 1.429 . S
C1119 C1117 1.419 1_565 S
C1119 C1120 1.363 . S
C1119 H1122 0.929 . S
C1120 C1119 1.363 . S
C1120 C1126 1.428 . S
H1121 C1117 0.930 . S
H1122 C1119 0.929 . S
S1123 N1124 1.613 1_565 S
S1123 N1125 1.610 . S
N1124 S1123 1.613 1_545 S
N1124 C1127 1.350 . S
N1125 S1123 1.610 . S
N1125 C1126 1.351 . S
C1126 C1120 1.428 . S
C1126 N1125 1.351 . S
C1126 C1127 1.434 1_565 S
C1127 C1118 1.429 . S
C1127 N1124 1.350 . S
C1127 C1126 1.434 1_545 S
C1128 C1129 1.369 . S
C1128 C1130 1.419 . S
C1128 H1132 0.930 . S
C1129 C1128 1.369 . S
C1129 C1138 1.429 . S
C1130 C1128 1.419 . S
C1130 C1131 1.363 . S
C1130 H1133 0.929 . S
C1131 C1130 1.363 . S
C1131 C1137 1.428 . S
H1132 C1128 0.930 . S
H1133 C1130 0.929 . S
S1134 N1135 1.613 . S
S1134 N1136 1.610 . S
N1135 S1134 1.613 . S
N1135 C1138 1.350 . S
N1136 S1134 1.610 . S
N1136 C1137 1.351 . S
C1137 C1131 1.428 . S
C1137 N1136 1.351 . S
C1137 C1138 1.434 . S
C1138 C1129 1.429 . S
C1138 N1135 1.350 . S
C1138 C1137 1.434 . S
C1139 C1140 1.369 . S
C1139 C1141 1.419 . S
C1139 H1143 0.930 . S
C1140 C1139 1.369 . S
C1140 C1149 1.429 . S
C1141 C1139 1.419 . S
C1141 C1142 1.363 . S
C1141 H1144 0.929 . S
C1142 C1141 1.363 . S
C1142 C1148 1.428 . S
H1143 C1139 0.930 . S
H1144 C1141 0.929 . S
S1145 N1146 1.613 . S
S1145 N1147 1.610 . S
N1146 S1145 1.613 . S
N1146 C1149 1.350 . S
N1147 S1145 1.610 . S
N1147 C1148 1.351 . S
C1148 C1142 1.428 . S
C1148 N1147 1.351 . S
C1148 C1149 1.434 . S
C1149 C1140 1.429 . S
C1149 N1146 1.350 . S
C1149 C1148 1.434 . S
C1150 C1151 1.369 . S
C1150 C1152 1.419 . S
C1150 H1154 0.930 . S
C1151 C1150 1.369 . S
C1151 C1160 1.429 . S
C1152 C1150 1.419 . S
C1152 C1153 1.363 . S
C1152 H1155 0.929 . S
C1153 C1152 1.363 . S
C1153 C1159 1.428 . S
H1154 C1150 0.930 . S
H1155 C1152 0.929 . S
S1156 N1157 1.613 . S
S1156 N1158 1.610 . S
N1157 S1156 1.613 . S
N1157 C1160 1.350 . S
N1158 S1156 1.610 . S
N1158 C1159 1.351 . S
C1159 C1153 1.428 . S
C1159 N1158 1.351 . S
C1159 C1160 1.434 . S
C1160 C1151 1.429 . S
C1160 N1157 1.350 . S
C1160 C1159 1.434 . S
C1161 C1162 1.369 . S
C1161 C1163 1.419 . S
C1161 H1165 0.930 . S
C1162 C1161 1.369 . S
C1162 C1171 1.429 . S
C1163 C1161 1.419 . S
C1163 C1164 1.363 . S
C1163 H1166 0.929 . S
C1164 C1163 1.363 . S
C1164 C1170 1.428 . S
H1165 C1161 0.930 . S
H1166 C1163 0.929 . S
S1167 N1168 1.613 . S
S1167 N1169 1.610 . S
N1168 S1167 1.613 . S
N1168 C1171 1.350 . S
N1169 S1167 1.610 . S
N1169 C1170 1.351 . S
C1170 C1164 1.428 . S
C1170 N1169 1.351 . S
C1170 C1171 1.434 . S
C1171 C1162 1.429 . S
C1171 N1168 1.350 . S
C1171 C1170 1.434 . S
C1172 C1173 1.369 . S
C1172 C1174 1.419 . S
C1172 H1176 0.930 . S
C1173 C1172 1.369 . S
C1173 C1182 1.429 . S
C1174 C1172 1.419 . S
C1174 C1175 1.363 . S
C1174 H1177 0.929 . S
C1175 C1174 1.363 . S
C1175 C1181 1.428 . S
H1176 C1172 0.930 . S
H1177 C1174 0.929 . S
S1178 N1179 1.613 . S
S1178 N1180 1.610 . S
N1179 S1178 1.613 . S
N1179 C1182 1.350 . S
N1180 S1178 1.610 . S
N1180 C1181 1.351 . S
C1181 C1175 1.428 . S
C1181 N1180 1.351 . S
C1181 C1182 1.434 . S
C1182 C1173 1.429 . S
C1182 N1179 1.350 . S
C1182 C1181 1.434 . S
C1183 C1184 1.369 . S
C1183 C1185 1.419 . S
C1183 H1187 0.930 . S
C1184 C1183 1.369 . S
C1184 C1193 1.429 . S
C1185 C1183 1.419 . S
C1185 C1186 1.363 . S
C1185 H1188 0.929 . S
C1186 C1185 1.363 . S
C1186 C1192 1.428 . S
H1187 C1183 0.930 . S
H1188 C1185 0.929 . S
S1189 N1190 1.613 . S
S1189 N1191 1.610 . S
N1190 S1189 1.613 . S
N1190 C1193 1.350 . S
N1191 S1189 1.610 . S
N1191 C1192 1.351 . S
C1192 C1186 1.428 . S
C1192 N1191 1.351 . S
C1192 C1193 1.434 . S
C1193 C1184 1.429 . S
C1193 N1190 1.350 . S
C1193 C1192 1.434 . S
C1194 C1195 1.369 . S
C1194 C1196 1.419 . S
C1194 H1198 0.930 . S
C1195 C1194 1.369 . S
C1195 C1204 1.429 . S
C1196 C1194 1.419 . S
C1196 C1197 1.363 . S
C1196 H1199 0.929 . S
C1197 C1196 1.363 . S
C1197 C1203 1.428 . S
H1198 C1194 0.930 . S
H1199 C1196 0.929 . S
S1200 N1201 1.613 . S
S1200 N1202 1.610 . S
N1201 S1200 1.613 . S
N1201 C1204 1.350 . S
N1202 S1200 1.610 . S
N1202 C1203 1.351 . S
C1203 C1197 1.428 . S
C1203 N1202 1.351 . S
C1203 C1204 1.434 . S
C1204 C1195 1.429 . S
C1204 N1201 1.350 . S
C1204 C1203 1.434 . S
C1205 C1206 1.369 . S
C1205 C1207 1.419 . S
C1205 H1209 0.930 . S
C1206 C1205 1.369 . S
C1206 C1215 1.429 . S
C1207 C1205 1.419 . S
C1207 C1208 1.363 . S
C1207 H1210 0.929 . S
C1208 C1207 1.363 . S
C1208 C1214 1.428 . S
H1209 C1205 0.930 . S
H1210 C1207 0.929 . S
S1211 N1212 1.613 . S
S1211 N1213 1.610 . S
N1212 S1211 1.613 . S
N1212 C1215 1.350 . S
N1213 S1211 1.610 . S
N1213 C1214 1.351 . S
C1214 C1208 1.428 . S
C1214 N1213 1.351 . S
C1214 C1215 1.434 . S
C1215 C1206 1.429 . S
C1215 N1212 1.350 . S
C1215 C1214 1.434 . S
C1216 C1217 1.369 . S
C1216 C1218 1.419 . S
C1216 H1220 0.930 . S
C1217 C1216 1.369 . S
C1217 C1226 1.429 . S
C1218 C1216 1.419 . S
C1218 C1219 1.363 . S
C1218 H1221 0.929 . S
C1219 C1218 1.363 . S
C1219 C1225 1.428 . S
H1220 C1216 0.930 . S
H1221 C1218 0.929 . S
S1222 N1223 1.613 . S
S1222 N1224 1.610 . S
N1223 S1222 1.613 . S
N1223 C1226 1.350 . S
N1224 S1222 1.610 . S
N1224 C1225 1.351 . S
C1225 C1219 1.428 . S
C1225 N1224 1.351 . S
C1225 C1226 1.434 . S
C1226 C1217 1.429 . S
C1226 N1223 1.350 . S
C1226 C1225 1.434 . S
C1227 C1228 1.369 . S
C1227 C1229 1.419 . S
C1227 H1231 0.930 . S
C1228 C1227 1.369 . S
C1228 C1237 1.429 . S
C1229 C1227 1.419 . S
C1229 C1230 1.363 . S
C1229 H1232 0.929 . S
C1230 C1229 1.363 . S
C1230 C1236 1.428 . S
H1231 C1227 0.930 . S
H1232 C1229 0.929 . S
S1233 N1234 1.613 . S
S1233 N1235 1.610 . S
N1234 S1233 1.613 . S
N1234 C1237 1.350 . S
N1235 S1233 1.610 . S
N1235 C1236 1.351 . S
C1236 C1230 1.428 . S
C1236 N1235 1.351 . S
C1236 C1237 1.434 . S
C1237 C1228 1.429 . S
C1237 N1234 1.350 . S
C1237 C1236 1.434 . S
C1238 C1239 1.369 . S
C1238 C1240 1.419 . S
C1238 H1242 0.930 . S
C1239 C1238 1.369 . S
C1239 C1248 1.429 . S
C1240 C1238 1.419 . S
C1240 C1241 1.363 . S
C1240 H1243 0.929 . S
C1241 C1240 1.363 . S
C1241 C1247 1.428 . S
H1242 C1238 0.930 . S
H1243 C1240 0.929 . S
S1244 N1245 1.613 . S
S1244 N1246 1.610 . S
N1245 S1244 1.613 . S
N1245 C1248 1.350 . S
N1246 S1244 1.610 . S
N1246 C1247 1.351 . S
C1247 C1241 1.428 . S
C1247 N1246 1.351 . S
C1247 C1248 1.434 . S
C1248 C1239 1.429 . S
C1248 N1245 1.350 . S
C1248 C1247 1.434 . S
C1249 C1250 1.369 . S
C1249 C1251 1.419 . S
C1249 H1253 0.930 . S
C1250 C1249 1.369 . S
C1250 C1259 1.429 . S
C1251 C1249 1.419 . S
C1251 C1252 1.363 . S
C1251 H1254 0.929 . S
C1252 C1251 1.363 . S
C1252 C1258 1.428 . S
H1253 C1249 0.930 . S
H1254 C1251 0.929 . S
S1255 N1256 1.613 . S
S1255 N1257 1.610 . S
N1256 S1255 1.613 . S
N1256 C1259 1.350 . S
N1257 S1255 1.610 . S
N1257 C1258 1.351 . S
C1258 C1252 1.428 . S
C1258 N1257 1.351 . S
C1258 C1259 1.434 . S
C1259 C1250 1.429 . S
C1259 N1256 1.350 . S
C1259 C1258 1.434 . S
C1260 C1261 1.369 . S
C1260 C1262 1.419 . S
C1260 H1264 0.930 . S
C1261 C1260 1.369 . S
C1261 C1270 1.429 . S
C1262 C1260 1.419 . S
C1262 C1263 1.363 . S
C1262 H1265 0.929 . S
C1263 C1262 1.363 . S
C1263 C1269 1.428 . S
H1264 C1260 0.930 . S
H1265 C1262 0.929 . S
S1266 N1267 1.613 . S
S1266 N1268 1.610 . S
N1267 S1266 1.613 . S
N1267 C1270 1.350 . S
N1268 S1266 1.610 . S
N1268 C1269 1.351 . S
C1269 C1263 1.428 . S
C1269 N1268 1.351 . S
C1269 C1270 1.434 . S
C1270 C1261 1.429 . S
C1270 N1267 1.350 . S
C1270 C1269 1.434 . S
C1271 C1272 1.369 . S
C1271 C1273 1.419 . S
C1271 H1275 0.930 . S
C1272 C1271 1.369 . S
C1272 C1281 1.429 . S
C1273 C1271 1.419 . S
C1273 C1274 1.363 . S
C1273 H1276 0.929 . S
C1274 C1273 1.363 . S
C1274 C1280 1.428 . S
H1275 C1271 0.930 . S
H1276 C1273 0.929 . S
S1277 N1278 1.613 . S
S1277 N1279 1.610 . S
N1278 S1277 1.613 . S
N1278 C1281 1.350 . S
N1279 S1277 1.610 . S
N1279 C1280 1.351 . S
C1280 C1274 1.428 . S
C1280 N1279 1.351 . S
C1280 C1281 1.434 . S
C1281 C1272 1.429 . S
C1281 N1278 1.350 . S
C1281 C1280 1.434 . S
C1282 C1283 1.369 . S
C1282 C1284 1.419 . S
C1282 H1286 0.930 . S
C1283 C1282 1.369 . S
C1283 C1292 1.429 . S
C1284 C1282 1.419 . S
C1284 C1285 1.363 . S
C1284 H1287 0.929 . S
C1285 C1284 1.363 . S
C1285 C1291 1.428 . S
H1286 C1282 0.930 . S
H1287 C1284 0.929 . S
S1288 N1289 1.613 . S
S1288 N1290 1.610 . S
N1289 S1288 1.613 . S
N1289 C1292 1.350 . S
N1290 S1288 1.610 . S
N1290 C1291 1.351 . S
C1291 C1285 1.428 . S
C1291 N1290 1.351 . S
C1291 C1292 1.434 . S
C1292 C1283 1.429 . S
C1292 N1289 1.350 . S
C1292 C1291 1.434 . S
C1293 C1294 1.369 . S
C1293 C1295 1.419 . S
C1293 H1297 0.930 . S
C1294 C1293 1.369 . S
C1294 C1303 1.429 . S
C1295 C1293 1.419 . S
C1295 C1296 1.363 . S
C1295 H1298 0.929 . S
C1296 C1295 1.363 . S
C1296 C1302 1.428 . S
H1297 C1293 0.930 . S
H1298 C1295 0.929 . S
S1299 N1300 1.613 . S
S1299 N1301 1.610 . S
N1300 S1299 1.613 . S
N1300 C1303 1.350 . S
N1301 S1299 1.610 . S
N1301 C1302 1.351 . S
C1302 C1296 1.428 . S
C1302 N1301 1.351 . S
C1302 C1303 1.434 . S
C1303 C1294 1.429 . S
C1303 N1300 1.350 . S
C1303 C1302 1.434 . S
C1304 C1305 1.369 . S
C1304 C1306 1.419 . S
C1304 H1308 0.930 . S
C1305 C1304 1.369 . S
C1305 C1314 1.429 . S
C1306 C1304 1.419 . S
C1306 C1307 1.363 . S
C1306 H1309 0.929 . S
C1307 C1306 1.363 . S
C1307 C1313 1.428 . S
H1308 C1304 0.930 . S
H1309 C1306 0.929 . S
S1310 N1311 1.613 . S
S1310 N1312 1.610 . S
N1311 S1310 1.613 . S
N1311 C1314 1.350 . S
N1312 S1310 1.610 . S
N1312 C1313 1.351 . S
C1313 C1307 1.428 . S
C1313 N1312 1.351 . S
C1313 C1314 1.434 . S
C1314 C1305 1.429 . S
C1314 N1311 1.350 . S
C1314 C1313 1.434 . S
C1315 C1316 1.369 . S
C1315 C1317 1.419 . S
C1315 H1319 0.930 . S
C1316 C1315 1.369 . S
C1316 C1325 1.429 . S
C1317 C1315 1.419 . S
C1317 C1318 1.363 . S
C1317 H1320 0.929 . S
C1318 C1317 1.363 . S
C1318 C1324 1.428 . S
H1319 C1315 0.930 . S
H1320 C1317 0.929 . S
S1321 N1322 1.613 . S
S1321 N1323 1.610 . S
N1322 S1321 1.613 . S
N1322 C1325 1.350 . S
N1323 S1321 1.610 . S
N1323 C1324 1.351 . S
C1324 C1318 1.428 . S
C1324 N1323 1.351 . S
C1324 C1325 1.434 . S
C1325 C1316 1.429 . S
C1325 N1322 1.350 . S
C1325 C1324 1.434 . S
C1326 C1327 1.369 . S
C1326 C1328 1.419 . S
C1326 H1330 0.930 . S
C1327 C1326 1.369 . S
C1327 C1336 1.429 . S
C1328 C1326 1.419 . S
C1328 C1329 1.363 . S
C1328 H1331 0.929 . S
C1329 C1328 1.363 . S
C1329 C1335 1.428 . S
H1330 C1326 0.930 . S
H1331 C1328 0.929 . S
S1332 N1333 1.613 . S
S1332 N1334 1.610 . S
N1333 S1332 1.613 . S
N1333 C1336 1.350 . S
N1334 S1332 1.610 . S
N1334 C1335 1.351 . S
C1335 C1329 1.428 . S
C1335 N1334 1.351 . S
C1335 C1336 1.434 . S
C1336 C1327 1.429 . S
C1336 N1333 1.350 . S
C1336 C1335 1.434 . S
C1337 C1338 1.369 . S
C1337 C1339 1.419 . S
C1337 H1341 0.930 . S
C1338 C1337 1.369 . S
C1338 C1347 1.429 . S
C1339 C1337 1.419 . S
C1339 C1340 1.363 . S
C1339 H1342 0.929 . S
C1340 C1339 1.363 . S
C1340 C1346 1.428 . S
H1341 C1337 0.930 . S
H1342 C1339 0.929 . S
S1343 N1344 1.613 . S
S1343 N1345 1.610 . S
N1344 S1343 1.613 . S
N1344 C1347 1.350 . S
N1345 S1343 1.610 . S
N1345 C1346 1.351 . S
C1346 C1340 1.428 . S
C1346 N1345 1.351 . S
C1346 C1347 1.434 . S
C1347 C1338 1.429 . S
C1347 N1344 1.350 . S
C1347 C1346 1.434 . S
C1348 C1349 1.369 . S
C1348 C1350 1.419 . S
C1348 H1352 0.930 . S
C1349 C1348 1.369 . S
C1349 C1358 1.429 . S
C1350 C1348 1.419 . S
C1350 C1351 1.363 . S
C1350 H1353 0.929 . S
C1351 C1350 1.363 . S
C1351 C1357 1.428 . S
H1352 C1348 0.930 . S
H1353 C1350 0.929 . S
S1354 N1355 1.613 . S
S1354 N1356 1.610 . S
N1355 S1354 1.613 . S
N1355 C1358 1.350 . S
N1356 S1354 1.610 . S
N1356 C1357 1.351 . S
C1357 C1351 1.428 . S
C1357 N1356 1.351 . S
C1357 C1358 1.434 . S
C1358 C1349 1.429 . S
C1358 N1355 1.350 . S
C1358 C1357 1.434 . S
C1359 C1360 1.369 . S
C1359 C1361 1.419 . S
C1359 H1363 0.930 . S
C1360 C1359 1.369 . S
C1360 C1369 1.429 . S
C1361 C1359 1.419 . S
C1361 C1362 1.363 . S
C1361 H1364 0.929 . S
C1362 C1361 1.363 . S
C1362 C1368 1.428 . S
H1363 C1359 0.930 . S
H1364 C1361 0.929 . S
S1365 N1366 1.613 . S
S1365 N1367 1.610 . S
N1366 S1365 1.613 . S
N1366 C1369 1.350 . S
N1367 S1365 1.610 . S
N1367 C1368 1.351 . S
C1368 C1362 1.428 . S
C1368 N1367 1.351 . S
C1368 C1369 1.434 . S
C1369 C1360 1.429 . S
C1369 N1366 1.350 . S
C1369 C1368 1.434 . S
C1370 C1371 1.369 . S
C1370 C1372 1.419 . S
C1370 H1374 0.930 . S
C1371 C1370 1.369 . S
C1371 C1380 1.429 . S
C1372 C1370 1.419 . S
C1372 C1373 1.363 . S
C1372 H1375 0.929 . S
C1373 C1372 1.363 . S
C1373 C1379 1.428 . S
H1374 C1370 0.930 . S
H1375 C1372 0.929 . S
S1376 N1377 1.613 . S
S1376 N1378 1.610 . S
N1377 S1376 1.613 . S
N1377 C1380 1.350 . S
N1378 S1376 1.610 . S
N1378 C1379 1.351 . S
C1379 C1373 1.428 . S
C1379 N1378 1.351 . S
C1379 C1380 1.434 . S
C1380 C1371 1.429 . S
C1380 N1377 1.350 . S
C1380 C1379 1.434 . S
C1381 C1382 1.369 . S
C1381 C1383 1.419 . S
C1381 H1385 0.930 . S
C1382 C1381 1.369 . S
C1382 C1391 1.429 . S
C1383 C1381 1.419 . S
C1383 C1384 1.363 . S
C1383 H1386 0.929 . S
C1384 C1383 1.363 . S
C1384 C1390 1.428 . S
H1385 C1381 0.930 . S
H1386 C1383 0.929 . S
S1387 N1388 1.613 . S
S1387 N1389 1.610 . S
N1388 S1387 1.613 . S
N1388 C1391 1.350 . S
N1389 S1387 1.610 . S
N1389 C1390 1.351 . S
C1390 C1384 1.428 . S
C1390 N1389 1.351 . S
C1390 C1391 1.434 . S
C1391 C1382 1.429 . S
C1391 N1388 1.350 . S
C1391 C1390 1.434 . S
C865 C544 1.301 . S
C867 C4 1.296 . S
C876 C446 1.426 . S
C878 C50 1.415 . S
C887 C472 1.381 . S
C889 C86 1.363 . S
C898 C518 1.312 . S
C900 C112 1.345 . S
C909 C508 1.334 . S
C911 C40 1.315 . S
C920 C76 1.244 . S
C922 C554 1.213 . S
C931 C436 1.405 . S
C933 C122 1.370 . S
C942 C482 1.311 . S
C944 C14 1.304 . S
C953 C662 1.456 . S
C955 C158 1.452 . S
C964 C184 1.223 . S
C966 C688 1.222 . S
C975 C230 1.462 . S
C977 C590 1.467 . S
C986 C616 1.236 . S
C988 C256 1.234 . S
C997 C796 1.179 . S
C999 C292 1.184 . S
C1008 C338 1.433 . S
C1010 C832 1.465 . S
C1019 C364 1.214 . S
C1021 C724 1.207 . S
C1030 C410 1.464 . S
C1032 C760 1.497 . S
C1041 C626 1.295 . S
C1043 C400 1.326 . S
C1052 C842 1.405 . S
C1054 C194 1.398 . S
C1063 C220 1.385 . S
C1065 C734 1.351 . S
C1074 C770 1.341 . S
C1076 C266 1.319 . S
C1085 C806 1.260 . S
C1087 C148 1.283 . S
C1096 C328 1.265 . S
C1098 C698 1.238 . S
C1107 C580 1.377 . S
C1109 C374 1.342 . S
C1118 C652 1.292 . S
C1120 C302 1.250 . S
C1129 C3 1.124 . S
C1131 C147 1.123 . S
C1140 C182 1.120 . S
C1142 C38 1.130 . S
C1151 C74 1.150 . S
C1153 C219 1.177 . S
C1162 C111 1.073 . S
C1164 C254 1.047 . S
C1173 C290 1.069 . S
C1175 C39 1.093 . S
C1184 C327 0.990 . S
C1186 C75 0.987 . S
C1195 C362 1.119 . S
C1197 C110 1.127 . S
C1206 C2 1.041 . S
C1208 C399 1.085 . S
C1217 C398 1.207 . S
C1219 C146 1.201 . S
C1228 C183 0.988 . S
C1230 C291 0.971 . S
C1239 C218 1.225 . S
C1241 C326 1.211 . S
C1250 C363 1.012 . S
C1252 C255 1.002 . S
C1261 C579 1.163 . S
C1263 C435 1.182 . S
C1272 C614 1.120 . S
C1274 C470 1.128 . S
C1283 C507 1.111 . S
C1285 C651 1.079 . S
C1294 C542 1.062 . S
C1296 C686 1.052 . S
C1305 C471 1.118 . S
C1307 C722 1.083 . S
C1316 C506 1.138 . S
C1318 C758 1.127 . S
C1327 C794 0.987 . S
C1329 C543 1.018 . S
C1338 C434 1.188 . S
C1340 C830 1.197 . S
C1349 C578 1.139 . S
C1351 C831 1.195 . S
C1360 C723 0.956 . S
C1362 C615 0.974 . S
C1371 C650 1.142 . S
C1373 C759 1.202 . S
C1382 C795 0.957 . S
C1384 C687 0.977 . S
