# Generated by pormake.
# Topology neb, (4)-cn, num edge types: 1
# Building blocks:
#     Node 0, Type 0, BuildingBlock: NAHDIM_clean_sbu_0, # of connection points: 4
#     Node 1, Type 0, BuildingBlock: NAHDIM_clean_sbu_0, # of connection points: 4
#     Node 2, Type 0, BuildingBlock: NAHDIM_clean_sbu_0, # of connection points: 4
#     Node 3, Type 0, BuildingBlock: NAHDIM_clean_sbu_0, # of connection points: 4
#     Node 4, Type 0, BuildingBlock: NAHDIM_clean_sbu_0, # of connection points: 4
#     Node 5, Type 0, BuildingBlock: NAHDIM_clean_sbu_0, # of connection points: 4
#     Node 6, Type 0, BuildingBlock: NAHDIM_clean_sbu_0, # of connection points: 4
#     Node 7, Type 0, BuildingBlock: NAHDIM_clean_sbu_0, # of connection points: 4
#     Node 8, Type 0, BuildingBlock: NAHDIM_clean_sbu_0, # of connection points: 4
#     Node 9, Type 0, BuildingBlock: NAHDIM_clean_sbu_0, # of connection points: 4
#     Node 10, Type 0, BuildingBlock: NAHDIM_clean_sbu_0, # of connection points: 4
#     Node 11, Type 0, BuildingBlock: NAHDIM_clean_sbu_0, # of connection points: 4
#     Node 12, Type 0, BuildingBlock: NAHDIM_clean_sbu_0, # of connection points: 4
#     Node 13, Type 0, BuildingBlock: NAHDIM_clean_sbu_0, # of connection points: 4
#     Node 14, Type 0, BuildingBlock: NAHDIM_clean_sbu_0, # of connection points: 4
#     Node 15, Type 0, BuildingBlock: NAHDIM_clean_sbu_0, # of connection points: 4
#     Edge 16, Type (0, 0), BuildingBlock: TEMPAE_clean_linker_10, # of connection points: 2
#     Edge 17, Type (0, 0), BuildingBlock: TEMPAE_clean_linker_10, # of connection points: 2
#     Edge 18, Type (0, 0), BuildingBlock: TEMPAE_clean_linker_10, # of connection points: 2
#     Edge 19, Type (0, 0), BuildingBlock: TEMPAE_clean_linker_10, # of connection points: 2
#     Edge 20, Type (0, 0), BuildingBlock: TEMPAE_clean_linker_10, # of connection points: 2
#     Edge 21, Type (0, 0), BuildingBlock: TEMPAE_clean_linker_10, # of connection points: 2
#     Edge 22, Type (0, 0), BuildingBlock: TEMPAE_clean_linker_10, # of connection points: 2
#     Edge 23, Type (0, 0), BuildingBlock: TEMPAE_clean_linker_10, # of connection points: 2
#     Edge 24, Type (0, 0), BuildingBlock: TEMPAE_clean_linker_10, # of connection points: 2
#     Edge 25, Type (0, 0), BuildingBlock: TEMPAE_clean_linker_10, # of connection points: 2
#     Edge 26, Type (0, 0), BuildingBlock: TEMPAE_clean_linker_10, # of connection points: 2
#     Edge 27, Type (0, 0), BuildingBlock: TEMPAE_clean_linker_10, # of connection points: 2
#     Edge 28, Type (0, 0), BuildingBlock: TEMPAE_clean_linker_10, # of connection points: 2
#     Edge 29, Type (0, 0), BuildingBlock: TEMPAE_clean_linker_10, # of connection points: 2
#     Edge 30, Type (0, 0), BuildingBlock: TEMPAE_clean_linker_10, # of connection points: 2
#     Edge 31, Type (0, 0), BuildingBlock: TEMPAE_clean_linker_10, # of connection points: 2
#     Edge 32, Type (0, 0), BuildingBlock: TEMPAE_clean_linker_10, # of connection points: 2
#     Edge 33, Type (0, 0), BuildingBlock: TEMPAE_clean_linker_10, # of connection points: 2
#     Edge 34, Type (0, 0), BuildingBlock: TEMPAE_clean_linker_10, # of connection points: 2
#     Edge 35, Type (0, 0), BuildingBlock: TEMPAE_clean_linker_10, # of connection points: 2
#     Edge 36, Type (0, 0), BuildingBlock: TEMPAE_clean_linker_10, # of connection points: 2
#     Edge 37, Type (0, 0), BuildingBlock: TEMPAE_clean_linker_10, # of connection points: 2
#     Edge 38, Type (0, 0), BuildingBlock: TEMPAE_clean_linker_10, # of connection points: 2
#     Edge 39, Type (0, 0), BuildingBlock: TEMPAE_clean_linker_10, # of connection points: 2
#     Edge 40, Type (0, 0), BuildingBlock: TEMPAE_clean_linker_10, # of connection points: 2
#     Edge 41, Type (0, 0), BuildingBlock: TEMPAE_clean_linker_10, # of connection points: 2
#     Edge 42, Type (0, 0), BuildingBlock: TEMPAE_clean_linker_10, # of connection points: 2
#     Edge 43, Type (0, 0), BuildingBlock: TEMPAE_clean_linker_10, # of connection points: 2
#     Edge 44, Type (0, 0), BuildingBlock: TEMPAE_clean_linker_10, # of connection points: 2
#     Edge 45, Type (0, 0), BuildingBlock: TEMPAE_clean_linker_10, # of connection points: 2
#     Edge 46, Type (0, 0), BuildingBlock: TEMPAE_clean_linker_10, # of connection points: 2
#     Edge 47, Type (0, 0), BuildingBlock: TEMPAE_clean_linker_10, # of connection points: 2
# Relax obj value: 0.078
# Max RMSD: 0.133
# Mean RMSD: 0.133
data_MOF--net-neb--node1-NAHDIM_clean_sbu_0--edge1-TEMPAE_clean_linker_10
_symmetry_space_group_name_H-M    P1
_symmetry_Int_Tables_number       1
_symmetry_cell_setting            triclinic
loop_
_symmetry_equiv_pos_as_xyz
'x, y, z'
_cell_length_a     46.491136
_cell_length_b     22.263781
_cell_length_c     72.764844
_cell_angle_alpha  90.000315
_cell_angle_beta   94.147542
_cell_angle_gamma 89.990084
loop_
_atom_site_label
_atom_site_type_symbol
_atom_site_fract_x
_atom_site_fract_y
_atom_site_fract_z
_atom_type_partial_charge
C0 C 0.08786 0.09138 0.45574 0.0
O1 O 0.11028 0.06139 0.45062 0.0
O2 O 0.15118 0.20556 0.45449 0.0
Zn3 Zn 0.11655 0.18401 0.43752 0.0
O4 O 0.12742 0.12383 0.41859 0.0
C5 C 0.10399 0.31019 0.43083 0.0
O6 O 0.11448 0.317 0.44795 0.0
O7 O 0.08572 0.14701 0.45192 0.0
C8 C 0.13732 0.13827 0.40336 0.0
O9 O 0.14167 0.19516 0.39969 0.0
C10 C 0.17173 0.23562 0.44842 0.0
O11 O 0.17023 0.25127 0.43098 0.0
O12 O 0.10184 0.25769 0.42402 0.0
C13 C 0.16896 0.13614 0.77712 0.0
O14 O 0.14877 0.16418 0.76687 0.0
O15 O 0.09909 0.17907 0.78879 0.0
Zn16 Zn 0.13334 0.1661 0.80712 0.0
O17 O 0.12446 0.10712 0.82689 0.0
C18 C 0.12471 0.28635 0.8196 0.0
O19 O 0.09939 0.27726 0.81085 0.0
O20 O 0.16699 0.13302 0.79442 0.0
C21 C 0.10926 0.12011 0.84018 0.0
O22 O 0.09761 0.17373 0.84093 0.0
C23 C 0.07371 0.16049 0.79098 0.0
O24 O 0.06922 0.12621 0.80517 0.0
O25 O 0.14368 0.24518 0.81956 0.0
C26 C 0.92876 0.88162 0.51786 0.0
O27 O 0.9038 0.8724 0.50866 0.0
O28 O 0.86543 0.80974 0.53218 0.0
Zn29 Zn 0.89843 0.8406 0.54901 0.0
O30 O 0.8849 0.90963 0.56378 0.0
C31 C 0.90944 0.72051 0.56293 0.0
O32 O 0.90052 0.70486 0.54606 0.0
O33 O 0.93151 0.86954 0.53497 0.0
C34 C 0.86834 0.90094 0.57667 0.0
O35 O 0.85959 0.84611 0.57995 0.0
C36 C 0.84452 0.84363 0.52676 0.0
O37 O 0.84494 0.9003 0.53181 0.0
O38 O 0.91127 0.77592 0.567 0.0
C39 C 0.81989 0.85304 0.21998 0.0
O40 O 0.8432 0.83585 0.22987 0.0
O41 O 0.88677 0.79566 0.20543 0.0
Zn42 Zn 0.85185 0.81681 0.18873 0.0
O43 O 0.86288 0.87973 0.17082 0.0
C44 C 0.84597 0.69117 0.18031 0.0
O45 O 0.85761 0.68557 0.19722 0.0
O46 O 0.81891 0.84789 0.20255 0.0
C47 C 0.88518 0.87301 0.1619 0.0
O48 O 0.90116 0.82476 0.16478 0.0
C49 C 0.90563 0.83379 0.21121 0.0
O50 O 0.90168 0.8908 0.20709 0.0
O51 O 0.84021 0.74336 0.17401 0.0
C52 C 0.08831 0.58502 0.96456 0.0
O53 O 0.11103 0.55606 0.95944 0.0
O54 O 0.15062 0.69846 0.96015 0.0
Zn55 Zn 0.11467 0.67622 0.94454 0.0
O56 O 0.12436 0.61427 0.92585 0.0
C57 C 0.10327 0.80211 0.93713 0.0
O58 O 0.11604 0.80939 0.95369 0.0
O59 O 0.08507 0.63998 0.96012 0.0
C60 C 0.13153 0.62683 0.90977 0.0
O61 O 0.13344 0.68334 0.9048 0.0
C62 C 0.17088 0.72547 0.9527 0.0
O63 O 0.16792 0.7373 0.93498 0.0
O64 O 0.09915 0.74927 0.93089 0.0
C65 C 0.16721 0.58792 0.28611 0.0
O66 O 0.14772 0.55617 0.294 0.0
O67 O 0.09949 0.69177 0.28967 0.0
Zn68 Zn 0.13795 0.68103 0.3038 0.0
O69 O 0.13267 0.62552 0.32497 0.0
C70 C 0.13886 0.80938 0.30985 0.0
O71 O 0.11854 0.80891 0.29634 0.0
O72 O 0.16728 0.64471 0.288 0.0
C73 C 0.11181 0.63141 0.33518 0.0
O74 O 0.09314 0.67506 0.3318 0.0
C75 C 0.09635 0.69868 0.27231 0.0
O76 O 0.11911 0.69629 0.26263 0.0
O77 O 0.15126 0.76039 0.31469 0.0
C78 C 0.93348 0.36413 0.02768 0.0
O79 O 0.90859 0.35333 0.01856 0.0
O80 O 0.87051 0.29096 0.04179 0.0
Zn81 Zn 0.90472 0.31641 0.05864 0.0
O82 O 0.89283 0.37893 0.07642 0.0
C83 C 0.91352 0.19172 0.06779 0.0
O84 O 0.90262 0.18396 0.05079 0.0
O85 O 0.93683 0.35048 0.04466 0.0
C86 C 0.8733 0.36831 0.08734 0.0
O87 O 0.86016 0.31602 0.08655 0.0
C88 C 0.84767 0.32198 0.03902 0.0
O89 O 0.84627 0.37528 0.04664 0.0
O90 O 0.91789 0.2448 0.07377 0.0
C91 C 0.82219 0.36059 0.71638 0.0
O92 O 0.84013 0.32288 0.7251 0.0
O93 O 0.89268 0.31992 0.70383 0.0
Zn94 Zn 0.85958 0.34565 0.68631 0.0
O95 O 0.87138 0.41167 0.66963 0.0
C96 C 0.86909 0.24044 0.6663 0.0
O97 O 0.89541 0.25391 0.67273 0.0
O98 O 0.82614 0.37512 0.69987 0.0
C99 C 0.89649 0.41749 0.66402 0.0
O100 O 0.91692 0.37987 0.66985 0.0
C101 C 0.90657 0.35042 0.71624 0.0
O102 O 0.89918 0.40645 0.71907 0.0
O103 O 0.8484 0.27421 0.67032 0.0
C104 C 0.58782 0.13433 0.97443 0.0
O105 O 0.60286 0.17939 0.98177 0.0
O106 O 0.66014 0.16909 0.95701 0.0
Zn107 Zn 0.62295 0.14788 0.94262 0.0
O108 O 0.63033 0.08487 0.92391 0.0
C109 C 0.61594 0.27357 0.93394 0.0
O110 O 0.63233 0.28017 0.94928 0.0
O111 O 0.59296 0.11554 0.95852 0.0
C112 C 0.65012 0.08983 0.91285 0.0
O113 O 0.6671 0.13706 0.914 0.0
C114 C 0.6703 0.14437 0.97181 0.0
O115 O 0.65618 0.09986 0.97888 0.0
O116 O 0.60825 0.22109 0.92878 0.0
C117 C 0.65448 0.04033 0.28205 0.0
O118 O 0.63285 0.00688 0.28665 0.0
O119 O 0.58661 0.13787 0.28628 0.0
Zn120 Zn 0.62362 0.1254 0.30189 0.0
O121 O 0.61777 0.06475 0.32166 0.0
C122 C 0.6149 0.24012 0.31785 0.0
O123 O 0.58825 0.22766 0.31185 0.0
O124 O 0.65522 0.09529 0.28679 0.0
C125 C 0.59631 0.06568 0.33151 0.0
O126 O 0.57631 0.10688 0.32842 0.0
C127 C 0.58583 0.15377 0.26949 0.0
O128 O 0.61004 0.15804 0.26133 0.0
O129 O 0.63481 0.20315 0.3147 0.0
C130 C 0.42958 0.92886 0.03849 0.0
O131 O 0.40493 0.9568 0.03984 0.0
O132 O 0.36558 0.8268 0.03599 0.0
Zn133 Zn 0.39769 0.84015 0.0557 0.0
O134 O 0.38503 0.89833 0.07453 0.0
C135 C 0.39063 0.71682 0.0663 0.0
O136 O 0.36885 0.72025 0.05382 0.0
O137 O 0.43225 0.87534 0.04447 0.0
C138 C 0.36255 0.89037 0.08318 0.0
O139 O 0.34644 0.84274 0.07955 0.0
C140 C 0.34487 0.86313 0.03232 0.0
O141 O 0.34444 0.91459 0.04112 0.0
O142 O 0.40705 0.76214 0.06903 0.0
C143 C 0.32811 0.91777 0.71735 0.0
O144 O 0.35274 0.94473 0.71506 0.0
O145 O 0.38891 0.80377 0.71318 0.0
Zn146 Zn 0.35512 0.83041 0.69622 0.0
O147 O 0.36784 0.89476 0.67917 0.0
C148 C 0.34129 0.70682 0.68604 0.0
O149 O 0.35049 0.69502 0.70316 0.0
O150 O 0.32388 0.86546 0.71068 0.0
C151 C 0.37679 0.88311 0.66346 0.0
O152 O 0.37872 0.82689 0.65821 0.0
C153 C 0.40924 0.77437 0.7066 0.0
O154 O 0.40769 0.76236 0.68888 0.0
O155 O 0.34028 0.76104 0.68059 0.0
C156 C 0.5868 0.6053 0.4757 0.0
O157 O 0.60989 0.62882 0.48435 0.0
O158 O 0.6514 0.65793 0.45785 0.0
Zn159 Zn 0.6156 0.63349 0.44244 0.0
O160 O 0.6249 0.56727 0.425 0.0
C161 C 0.60357 0.75795 0.43241 0.0
O162 O 0.61558 0.7698 0.44891 0.0
O163 O 0.58482 0.60358 0.4582 0.0
C164 C 0.63163 0.57864 0.40872 0.0
O165 O 0.63343 0.63482 0.40341 0.0
C166 C 0.67227 0.6819 0.45018 0.0
O167 O 0.67017 0.68939 0.43224 0.0
O168 O 0.60065 0.70364 0.42728 0.0
C169 C 0.66559 0.56198 0.78317 0.0
O170 O 0.64122 0.53405 0.78548 0.0
O171 O 0.60368 0.66757 0.78976 0.0
Zn172 Zn 0.63928 0.64606 0.80585 0.0
O173 O 0.63047 0.58318 0.82433 0.0
C174 C 0.64666 0.77186 0.81516 0.0
O175 O 0.63121 0.78017 0.79952 0.0
O176 O 0.66991 0.61329 0.79051 0.0
C177 C 0.6133 0.59262 0.83684 0.0
O178 O 0.59993 0.64453 0.83735 0.0
C179 C 0.58172 0.63372 0.78742 0.0
O180 O 0.58189 0.58109 0.79558 0.0
O181 O 0.65348 0.71873 0.82014 0.0
C182 C 0.42526 0.42745 0.54352 0.0
O183 O 0.40277 0.46067 0.54665 0.0
O184 O 0.35839 0.32793 0.54022 0.0
Zn185 Zn 0.39041 0.34127 0.55991 0.0
O186 O 0.37906 0.40148 0.57867 0.0
C187 C 0.37844 0.22566 0.57415 0.0
O188 O 0.35325 0.23797 0.56564 0.0
O189 O 0.42532 0.3724 0.54817 0.0
C190 C 0.35607 0.39803 0.58706 0.0
O191 O 0.33785 0.35402 0.58308 0.0
C192 C 0.33872 0.36569 0.53555 0.0
O193 O 0.33908 0.4187 0.54349 0.0
O194 O 0.3989 0.26322 0.57327 0.0
C195 C 0.32213 0.38282 0.21872 0.0
O196 O 0.34901 0.3846 0.22562 0.0
O197 O 0.38246 0.29891 0.20277 0.0
Zn198 Zn 0.34756 0.32897 0.18749 0.0
O199 O 0.35899 0.39544 0.17092 0.0
C200 C 0.33469 0.20713 0.17752 0.0
O201 O 0.34361 0.19807 0.19485 0.0
O202 O 0.31645 0.35957 0.20292 0.0
C203 C 0.37697 0.3863 0.15887 0.0
O204 O 0.38862 0.3328 0.15764 0.0
C205 C 0.40446 0.33095 0.20726 0.0
O206 O 0.40433 0.38807 0.20271 0.0
O207 O 0.3331 0.26059 0.17143 0.0
C208 C 0.31472 0.29157 0.51366 0.0
C209 C 0.31484 0.3484 0.52202 0.0
C210 C 0.29175 0.27334 0.50138 0.0
C211 C 0.26829 0.31281 0.49739 0.0
C212 C 0.26839 0.3705 0.50559 0.0
C213 C 0.29171 0.38765 0.5178 0.0
C214 C 0.29245 0.21155 0.49285 0.0
C215 C 0.24369 0.41375 0.50164 0.0
C216 C 0.21988 0.28498 0.45396 0.0
C217 C 0.19652 0.25481 0.46095 0.0
C218 C 0.24337 0.30422 0.46567 0.0
C219 C 0.24343 0.29328 0.48483 0.0
C220 C 0.21992 0.26294 0.49198 0.0
C221 C 0.19677 0.24393 0.47995 0.0
C222 C 0.26816 0.3361 0.45754 0.0
C223 C 0.21922 0.25062 0.51236 0.0
H224 H 0.33252 0.26092 0.51682 0.0
H225 H 0.29161 0.4316 0.5242 0.0
H226 H 0.27384 0.18474 0.49693 0.0
H227 H 0.29047 0.21515 0.4776 0.0
H228 H 0.31262 0.18681 0.49707 0.0
H229 H 0.24731 0.45734 0.50887 0.0
H230 H 0.24054 0.4224 0.48662 0.0
H231 H 0.22342 0.39369 0.50599 0.0
H232 H 0.21987 0.29352 0.4393 0.0
H233 H 0.17877 0.22082 0.48546 0.0
H234 H 0.28845 0.31073 0.46072 0.0
H235 H 0.27115 0.38129 0.46381 0.0
H236 H 0.26474 0.34131 0.44235 0.0
H237 H 0.23802 0.22263 0.51719 0.0
H238 H 0.1992 0.22712 0.51573 0.0
H239 H 0.22087 0.29343 0.52016 0.0
C240 C 0.97799 0.92759 0.51908 0.0
C241 C 0.95287 0.90946 0.5087 0.0
C242 C 0.00039 0.95681 0.51073 0.0
C243 C 0.9977 0.96778 0.49153 0.0
C244 C 0.97264 0.94871 0.48092 0.0
C245 C 0.95048 0.91994 0.48964 0.0
C246 C 0.02676 0.9767 0.52251 0.0
C247 C 0.96912 0.95919 0.46037 0.0
C248 C 0.04228 0.09248 0.47211 0.0
C249 C 0.06505 0.06011 0.46522 0.0
C250 C 0.0203 0.06301 0.48082 0.0
C251 C 0.02102 -0.00033 0.48256 0.0
C252 C 0.04395 0.96677 0.47566 0.0
C253 C 0.06574 0.9974 0.46714 0.0
C254 C 0.99627 0.09962 0.48813 0.0
C255 C 0.04535 0.89915 0.47717 0.0
H256 H 0.98 0.91981 0.53382 0.0
H257 H 0.93118 0.90595 0.48151 0.0
H258 H 0.0464 0.95624 0.51737 0.0
H259 H 0.0292 0.02616 0.52158 0.0
H260 H 0.02564 0.96421 0.53722 0.0
H261 H 0.94861 0.94037 0.45404 0.0
H262 H 0.9696 0.00807 0.45744 0.0
H263 H 0.98734 0.93846 0.45363 0.0
H264 H 0.04162 0.14094 0.47071 0.0
H265 H 0.0832 0.972 0.4618 0.0
H266 H 0.99526 0.09134 0.5031 0.0
H267 H 0.97525 0.08564 0.48127 0.0
H268 H -0.00091 0.14857 0.4859 0.0
H269 H 0.04577 0.88544 0.49185 0.0
H270 H 0.06466 0.88024 0.47111 0.0
H271 H 0.02579 0.87897 0.47003 0.0
C272 C 0.30955 0.00844 0.73297 0.0
C273 C 0.30523 0.94925 0.72674 0.0
C274 C 0.2878 0.03979 0.74132 0.0
C275 C 0.26109 0.01122 0.74355 0.0
C276 C 0.25666 0.95129 0.73747 0.0
C277 C 0.27878 0.92102 0.72912 0.0
C278 C 0.29331 0.10366 0.74763 0.0
C279 C 0.22848 0.9193 0.73968 0.0
C280 C 0.21352 0.0726 0.77946 0.0
C281 C 0.19302 0.10574 0.76857 0.0
C282 C 0.23581 0.04173 0.7715 0.0
C283 C 0.23773 0.04417 0.75219 0.0
C284 C 0.21731 0.07799 0.74114 0.0
C285 C 0.19518 0.10834 0.74946 0.0
C286 C 0.2572 0.00613 0.78374 0.0
C287 C 0.21874 0.08181 0.7205 0.0
H288 H 0.3299 0.03067 0.73118 0.0
H289 H 0.27527 0.87531 0.72436 0.0
H290 H 0.27739 0.1342 0.74038 0.0
H291 H 0.29049 0.10755 0.76259 0.0
H292 H 0.31535 0.11924 0.74502 0.0
H293 H 0.2286 0.87246 0.73443 0.0
H294 H 0.2239 0.91827 0.75443 0.0
H295 H 0.21055 0.94406 0.73218 0.0
H296 H 0.21202 0.07025 0.79423 0.0
H297 H 0.17946 0.13383 0.74094 0.0
H298 H 0.27939 0.02258 0.78212 0.0
H299 H 0.25654 0.95818 0.77957 0.0
H300 H 0.25282 0.00913 0.79852 0.0
H301 H 0.23991 0.10026 0.71717 0.0
H302 H 0.2014 0.11053 0.71389 0.0
H303 H 0.21687 0.03621 0.71438 0.0
C304 C 0.0207 0.17394 0.78369 0.0
C305 C 0.04908 0.18417 0.77912 0.0
C306 C 0.99726 0.20061 0.77355 0.0
C307 C 0.00232 0.23803 0.75839 0.0
C308 C 0.03086 0.24742 0.75343 0.0
C309 C 0.0539 0.22049 0.76388 0.0
C310 C 0.9671 0.18958 0.77924 0.0
C311 C 0.03706 0.28653 0.73723 0.0
C312 C 0.94059 0.26481 0.72239 0.0
C313 C 0.93108 0.32224 0.72716 0.0
C314 C 0.96378 0.23702 0.73241 0.0
C315 C 0.97774 0.26716 0.74766 0.0
C316 C 0.96826 0.32504 0.75261 0.0
C317 C 0.94506 0.35203 0.74225 0.0
C318 C 0.97339 0.17544 0.72663 0.0
C319 C 0.98259 0.35836 0.76887 0.0
H320 H 0.01678 0.14614 0.79548 0.0
H321 H 0.07577 0.22858 0.76024 0.0
H322 H 0.95704 0.23282 0.78283 0.0
H323 H 0.95353 0.1699 0.76759 0.0
H324 H 0.96681 0.15886 0.79125 0.0
H325 H 0.06042 0.28824 0.73495 0.0
H326 H 0.0252 0.26948 0.72451 0.0
H327 H 0.02938 0.33294 0.73949 0.0
H328 H 0.93001 0.24146 0.7107 0.0
H329 H 0.93781 0.3963 0.74603 0.0
H330 H 0.97177 0.14312 0.73811 0.0
H331 H 0.99634 0.17686 0.72341 0.0
H332 H 0.96032 0.15824 0.71436 0.0
H333 H 0.98134 0.3313 0.78159 0.0
H334 H 0.9725 0.40283 0.77099 0.0
H335 H 0.00577 0.36521 0.76683 0.0
C336 C 0.79601 0.85594 0.50999 0.0
C337 C 0.81973 0.81923 0.51521 0.0
C338 C 0.7721 0.83314 0.49937 0.0
C339 C 0.77193 0.77221 0.49381 0.0
C340 C 0.79585 0.73498 0.49894 0.0
C341 C 0.81946 0.75892 0.5096 0.0
C342 C 0.74694 0.87417 0.49417 0.0
C343 C 0.79645 0.66982 0.49321 0.0
C344 C 0.69943 0.69986 0.48065 0.0
C345 C 0.69809 0.70333 0.46136 0.0
C346 C 0.72345 0.72173 0.49139 0.0
C347 C 0.74668 0.74749 0.48262 0.0
C348 C 0.74562 0.75049 0.46315 0.0
C349 C 0.72131 0.72844 0.45276 0.0
C350 C 0.72382 0.71789 0.51213 0.0
C351 C 0.77006 0.77747 0.45332 0.0
H352 H 0.79602 0.90256 0.51428 0.0
H353 H 0.8377 0.73024 0.51358 0.0
H354 H 0.74318 0.87647 0.47895 0.0
H355 H 0.72702 0.85593 0.49959 0.0
H356 H 0.75046 0.92046 0.49957 0.0
H357 H 0.81677 0.647 0.49825 0.0
H358 H 0.77804 0.6455 0.49864 0.0
H359 H 0.79403 0.6663 0.47797 0.0
H360 H 0.68156 0.68058 0.48741 0.0
H361 H 0.72048 0.7312 0.43786 0.0
H362 H 0.72538 0.76364 0.51817 0.0
H363 H 0.74307 0.69248 0.51767 0.0
H364 H 0.70423 0.69569 0.5168 0.0
H365 H 0.7731 0.82518 0.45741 0.0
H366 H 0.76614 0.77526 0.43809 0.0
H367 H 0.79049 0.75363 0.45738 0.0
C368 C 0.70111 0.04915 0.26699 0.0
C369 C 0.67823 0.01351 0.27228 0.0
C370 C 0.72417 0.02369 0.25827 0.0
C371 C 0.72438 0.96111 0.25481 0.0
C372 C 0.70126 0.925 0.25998 0.0
C373 C 0.67844 0.95164 0.26862 0.0
C374 C 0.7484 0.06367 0.25286 0.0
C375 C 0.70075 0.85808 0.25655 0.0
C376 C 0.77109 0.90114 0.21823 0.0
C377 C 0.79531 0.87993 0.22893 0.0
C378 C 0.74789 0.92781 0.22647 0.0
C379 C 0.74888 0.93327 0.24588 0.0
C380 C 0.77319 0.91177 0.25677 0.0
C381 C 0.79614 0.88541 0.24816 0.0
C382 C 0.72234 0.95027 0.2144 0.0
C383 C 0.77497 0.91666 0.27752 0.0
H384 H 0.7011 0.09699 0.26974 0.0
H385 H 0.66089 0.92372 0.27267 0.0
H386 H 0.76906 0.04894 0.26004 0.0
H387 H 0.75079 0.0599 0.23785 0.0
H388 H 0.74477 0.1116 0.25626 0.0
H389 H 0.68106 0.83642 0.26126 0.0
H390 H 0.70184 0.84891 0.24163 0.0
H391 H 0.71993 0.8368 0.26382 0.0
H392 H 0.77026 0.89721 0.20336 0.0
H393 H 0.81475 0.86917 0.25654 0.0
H394 H 0.71921 -0.00099 0.21674 0.0
H395 H 0.70242 0.92714 0.21809 0.0
H396 H 0.72496 0.94287 0.19952 0.0
H397 H 0.77342 0.96444 0.28167 0.0
H398 H 0.79536 0.8977 0.28401 0.0
H399 H 0.75656 0.89264 0.28306 0.0
C400 C 0.93797 0.7516 0.22385 0.0
C401 C 0.93274 0.8132 0.22118 0.0
C402 C 0.9642 0.73104 0.23231 0.0
C403 C 0.98568 0.77308 0.23832 0.0
C404 C 0.98037 0.83533 0.23596 0.0
C405 C 0.95397 0.85466 0.22739 0.0
C406 C 0.96909 0.66429 0.23458 0.0
C407 C 0.00273 0.88149 0.24231 0.0
C408 C 0.04436 0.72496 0.27427 0.0
C409 C 0.0677 0.71473 0.26346 0.0
C410 C 0.0175 0.7436 0.26625 0.0
C411 C 0.01382 0.75192 0.24695 0.0
C412 C 0.0371 0.74064 0.23591 0.0
C413 C 0.0638 0.7223 0.24431 0.0
C414 C 0.99318 0.75527 0.27847 0.0
C415 C 0.03389 0.74866 0.21526 0.0
H416 H 0.92171 0.71918 0.21908 0.0
H417 H 0.95009 0.9023 0.22539 0.0
H418 H 0.98788 0.65032 0.22703 0.0
H419 H 0.97418 0.65329 0.24932 0.0
H420 H 0.95003 0.63754 0.22939 0.0
H421 H 0.995 0.92822 0.23983 0.0
H422 H 0.00872 0.87592 0.25725 0.0
H423 H 0.02259 0.87474 0.23499 0.0
H424 H 0.04717 0.71935 0.28909 0.0
H425 H 0.08169 0.7144 0.23586 0.0
H426 H 0.97425 0.72715 0.27402 0.0
H427 H 0.98628 0.80288 0.27719 0.0
H428 H -0.00057 0.74565 0.2932 0.0
H429 H 0.01595 0.72036 0.20925 0.0
H430 H 0.05387 0.73664 0.2086 0.0
H431 H 0.02836 0.79604 0.21185 0.0
C432 C 0.29632 0.8829 0.0163 0.0
C433 C 0.32035 0.84516 0.01938 0.0
C434 C 0.27217 0.86462 0.005 0.0
C435 C 0.27209 0.80729 0.99658 0.0
C436 C 0.2965 0.76953 -0.00069 0.0
C437 C 0.32034 0.78891 0.01067 0.0
C438 C 0.24651 0.90614 0.00236 0.0
C439 C 0.29722 0.70816 0.99051 0.0
C440 C 0.19989 0.73443 0.98291 0.0
C441 C 0.19692 0.74564 0.9639 0.0
C442 C 0.22426 0.75432 0.99371 0.0
C443 C 0.24616 0.78613 0.98529 0.0
C444 C 0.24335 0.79744 0.96611 0.0
C445 C 0.21876 0.77705 0.95565 0.0
C446 C 0.22654 0.74138 0.01414 0.0
C447 C 0.2663 0.83116 0.95667 0.0
H448 H 0.29615 0.92643 0.02297 0.0
H449 H 0.33882 0.75946 0.01295 0.0
H450 H 0.24119 0.91438 0.98747 0.0
H451 H 0.22738 0.88477 0.00788 0.0
H452 H 0.25038 0.95004 0.00937 0.0
H453 H 0.31823 0.6851 0.99352 0.0
H454 H 0.27991 0.67961 0.99558 0.0
H455 H 0.29306 0.71203 0.97535 0.0
H456 H 0.18312 0.71024 0.9894 0.0
H457 H 0.21663 0.78596 0.94097 0.0
H458 H 0.22842 0.7841 0.02199 0.0
H459 H 0.24631 0.71487 0.01788 0.0
H460 H 0.20762 0.71614 0.01856 0.0
H461 H 0.26932 0.87649 0.96284 0.0
H462 H 0.26084 0.83625 0.94163 0.0
H463 H 0.28723 0.80729 0.95875 0.0
C464 C 0.06797 0.49048 0.97683 0.0
C465 C 0.06624 0.55298 0.9745 0.0
C466 C 0.04673 0.45888 0.98559 0.0
C467 C 0.02331 0.49058 0.99233 0.0
C468 C 0.02161 0.55376 0.99026 0.0
C469 C 0.04305 0.58421 0.9813 0.0
C470 C 0.04919 0.39146 0.98744 0.0
C471 C 0.99705 0.58912 0.99742 0.0
C472 C 0.95423 0.40536 -0.0005 0.0
C473 C 0.95684 0.39492 0.01855 0.0
C474 C 0.97578 0.43618 0.99077 0.0
C475 C 0.00042 0.45746 0.00138 0.0
C476 C 0.00324 0.44691 0.0206 0.0
C477 C 0.98148 0.41553 0.02895 0.0
C478 C 0.97216 0.44608 0.9702 0.0
C479 C 0.02913 0.46921 0.03238 0.0
H480 H 0.08576 0.46593 0.97157 0.0
H481 H 0.04159 0.6325 0.9796 0.0
H482 H 0.04966 0.3784 0.00217 0.0
H483 H 0.03003 0.3697 0.9803 0.0
H484 H 0.06886 0.37359 0.98156 0.0
H485 H -0.00077 0.63817 0.99508 0.0
H486 H 0.97627 0.57381 0.99054 0.0
H487 H 0.99604 0.58106 0.01241 0.0
H488 H 0.93531 0.38948 0.99136 0.0
H489 H 0.98362 0.40789 0.0437 0.0
H490 H 0.99065 0.42618 0.96353 0.0
H491 H 0.97203 0.4949 0.96714 0.0
H492 H 0.9519 0.42603 0.9639 0.0
H493 H 0.04916 0.44976 0.02746 0.0
H494 H 0.02801 0.45746 0.04715 0.0
H495 H 0.03082 0.51874 0.03117 0.0
C496 C 0.30461 0.43171 0.2468 0.0
C497 C 0.29893 0.41075 0.22873 0.0
C498 C 0.28309 0.46018 0.25621 0.0
C499 C 0.2553 0.4683 0.24727 0.0
C500 C 0.24937 0.44699 0.22906 0.0
C501 C 0.27121 0.41822 0.22004 0.0
C502 C 0.29013 0.48177 0.27569 0.0
C503 C 0.22002 0.45515 0.21904 0.0
C504 C 0.19228 0.49483 0.27665 0.0
C505 C 0.18936 0.55752 0.27581 0.0
C506 C 0.21366 0.46524 0.26744 0.0
C507 C 0.2324 0.49908 0.25698 0.0
C508 C 0.22937 0.5623 0.25588 0.0
C509 C 0.20796 0.59082 0.26539 0.0
C510 C 0.21638 0.3978 0.26905 0.0
C511 C 0.24878 0.5998 0.2447 0.0
H512 H 0.32594 0.42599 0.25363 0.0
H513 H 0.26665 0.40237 0.20605 0.0
H514 H 0.28701 0.53109 0.27643 0.0
H515 H 0.27523 0.46084 0.28507 0.0
H516 H 0.31265 0.47108 0.28079 0.0
H517 H 0.21892 0.43603 0.20491 0.0
H518 H 0.20329 0.43324 0.22686 0.0
H519 H 0.21462 0.50365 0.21809 0.0
H520 H 0.17808 0.46876 0.28473 0.0
H521 H 0.20577 0.63925 0.26463 0.0
H522 H 0.23821 0.38577 0.27512 0.0
H523 H 0.21382 0.37696 0.25518 0.0
H524 H 0.2001 0.37808 0.27773 0.0
H525 H 0.27156 0.59418 0.25008 0.0
H526 H 0.24326 0.64832 0.24497 0.0
H527 H 0.24722 0.58431 0.23017 0.0
C528 C 0.70545 0.15109 -0.00051 0.0
C529 C 0.69725 0.16773 0.98128 0.0
C530 C 0.73026 0.17545 0.00883 0.0
C531 C 0.74738 0.21684 -0.00035 0.0
C532 C 0.73951 0.23285 0.98116 0.0
C533 C 0.71447 0.20836 0.97223 0.0
C534 C 0.73787 0.15772 0.02862 0.0
C535 C 0.75741 0.27629 0.97084 0.0
C536 C 0.79534 0.32475 0.0283 0.0
C537 C 0.82226 0.29632 0.02836 0.0
C538 C 0.77077 0.29925 0.01905 0.0
C539 C 0.77325 0.24432 0.00949 0.0
C540 C 0.80044 0.21584 0.00926 0.0
C541 C 0.8246 0.24205 0.01877 0.0
C542 C 0.74208 0.33074 0.01969 0.0
C543 C 0.80398 0.15757 -0.00096 0.0
H544 H 0.69219 0.11992 0.00659 0.0
H545 H 0.70836 0.22121 0.95812 0.0
H546 H 0.75991 0.13836 0.03006 0.0
H547 H 0.73792 0.19807 0.03757 0.0
H548 H 0.72253 0.12439 0.0337 0.0
H549 H 0.74885 0.28251 0.95631 0.0
H550 H 0.75798 0.32066 0.97779 0.0
H551 H 0.77997 0.26001 0.97093 0.0
H552 H 0.79332 0.36652 0.03575 0.0
H553 H 0.84535 0.21985 0.01872 0.0
H554 H 0.72639 0.30064 0.02587 0.0
H555 H 0.7332 0.3415 0.00551 0.0
H556 H 0.74378 0.37301 0.0278 0.0
H557 H 0.79031 0.12224 0.00471 0.0
H558 H 0.82669 0.14168 -3e-05 0.0
H559 H 0.79664 0.16328 0.98429 0.0
C560 C 0.71502 0.56023 0.77159 0.0
C561 C 0.68806 0.53284 0.77282 0.0
C562 C 0.73676 0.53204 0.76231 0.0
C563 C 0.73137 0.47523 0.75403 0.0
C564 C 0.70412 0.44761 0.75507 0.0
C565 C 0.68281 0.47671 0.76448 0.0
C566 C 0.76558 0.56284 0.7615 0.0
C567 C 0.69754 0.38716 0.74633 0.0
C568 C 0.77874 0.42695 0.71633 0.0
C569 C 0.79839 0.38825 0.7259 0.0
C570 C 0.75669 0.45519 0.72528 0.0
C571 C 0.75427 0.44464 0.74428 0.0
C572 C 0.77384 0.40524 0.754 0.0
C573 C 0.79565 0.37741 0.74468 0.0
C574 C 0.73611 0.49669 0.71444 0.0
C575 C 0.77193 0.39299 0.77429 0.0
H576 H 0.71927 0.60355 0.77802 0.0
H577 H 0.66203 0.45524 0.76534 0.0
H578 H 0.78293 0.534 0.768 0.0
H579 H 0.7704 0.56973 0.74693 0.0
H580 H 0.76628 0.60707 0.76858 0.0
H581 H 0.67517 0.37209 0.74821 0.0
H582 H 0.70057 0.38917 0.73135 0.0
H583 H 0.71276 0.35294 0.7524 0.0
H584 H 0.78065 0.43553 0.70181 0.0
H585 H 0.81075 0.34767 0.7522 0.0
H586 H 0.73759 0.54256 0.7204 0.0
H587 H 0.71359 0.48113 0.71536 0.0
H588 H 0.74062 0.4993 0.69968 0.0
H589 H 0.77452 0.43554 0.78218 0.0
H590 H 0.78863 0.36071 0.7798 0.0
H591 H 0.75036 0.37464 0.77675 0.0
C592 C 0.56204 0.11806 0.00313 0.0
C593 C 0.56521 0.10473 0.98455 0.0
C594 C 0.54077 0.08955 0.01279 0.0
C595 C 0.52213 0.04722 0.00357 0.0
C596 C 0.52523 0.03365 0.98483 0.0
C597 C 0.54679 0.06236 0.97557 0.0
C598 C 0.5382 0.10479 0.03282 0.0
C599 C 0.50559 0.98918 0.97447 0.0
C600 C 0.48105 0.93322 0.0304 0.0
C601 C 0.4536 0.95952 0.03003 0.0
C602 C 0.5038 0.96194 0.02222 0.0
C603 C 0.49886 0.01796 0.01333 0.0
C604 C 0.47127 0.04494 0.01305 0.0
C605 C 0.44902 0.01551 0.02147 0.0
C606 C 0.533 0.93204 0.02289 0.0
C607 C 0.4651 0.10439 0.00357 0.0
H608 H 0.57628 0.15051 0.01019 0.0
H609 H 0.54902 0.05186 0.9612 0.0
H610 H 0.51658 0.12399 0.03468 0.0
H611 H 0.5403 0.06342 0.04131 0.0
H612 H 0.55484 0.13751 0.03811 0.0
H613 H 0.51099 0.98334 0.95995 0.0
H614 H 0.50702 0.94481 0.98141 0.0
H615 H 0.48287 0.00442 0.9745 0.0
H616 H 0.48479 0.89012 0.03708 0.0
H617 H 0.42788 0.03617 0.0211 0.0
H618 H 0.54978 0.96307 0.02896 0.0
H619 H 0.53868 0.92132 0.00871 0.0
H620 H 0.53367 0.8899 0.03109 0.0
H621 H 0.48028 0.13915 0.00933 0.0
H622 H 0.4427 0.12012 0.00503 0.0
H623 H 0.46844 0.10025 0.98867 0.0
C624 C 0.43262 0.24047 0.21821 0.0
C625 C 0.43044 0.30319 0.21668 0.0
C626 C 0.45751 0.21328 0.2265 0.0
C627 C 0.48065 0.24969 0.2336 0.0
C628 C 0.47849 0.31302 0.23226 0.0
C629 C 0.45346 0.33901 0.22373 0.0
C630 C 0.45913 0.1456 0.22753 0.0
C631 C 0.50263 0.35332 0.23987 0.0
C632 C 0.53438 0.1856 0.27017 0.0
C633 C 0.55829 0.17396 0.26 0.0
C634 C 0.50888 0.20969 0.26171 0.0
C635 C 0.50709 0.22165 0.24257 0.0
C636 C 0.53081 0.20828 0.23211 0.0
C637 C 0.55622 0.18495 0.24098 0.0
C638 C 0.48414 0.22384 0.27336 0.0
C639 C 0.52951 0.21959 0.2116 0.0
H640 H 0.41499 0.21242 0.2127 0.0
H641 H 0.45191 0.38747 0.22262 0.0
H642 H 0.47797 0.12935 0.22042 0.0
H643 H 0.46231 0.13103 0.24211 0.0
H644 H 0.43937 0.12371 0.22117 0.0
H645 H 0.49741 0.40171 0.23793 0.0
H646 H 0.50725 0.34457 0.2548 0.0
H647 H 0.52262 0.34335 0.233 0.0
H648 H 0.53584 0.17752 0.2849 0.0
H649 H 0.57457 0.17582 0.23303 0.0
H650 H 0.46432 0.2004 0.26783 0.0
H651 H 0.47954 0.27275 0.27283 0.0
H652 H 0.48874 0.21052 0.28799 0.0
H653 H 0.51056 0.19642 0.2047 0.0
H654 H 0.54926 0.20394 0.20531 0.0
H655 H 0.5268 0.26834 0.20884 0.0
C656 C 0.43593 0.76552 0.73765 0.0
C657 C 0.43418 0.75324 0.71869 0.0
C658 C 0.45956 0.74579 0.74919 0.0
C659 C 0.48194 0.71305 0.74157 0.0
C660 C 0.48024 0.70029 0.72247 0.0
C661 C 0.45639 0.72052 0.71127 0.0
C662 C 0.46064 0.7602 0.7695 0.0
C663 C 0.50371 0.66552 0.71386 0.0
C664 C 0.55595 0.71051 0.76724 0.0
C665 C 0.55613 0.65392 0.77574 0.0
C666 C 0.53188 0.73041 0.75616 0.0
C667 C 0.50739 0.69284 0.75352 0.0
C668 C 0.50735 0.63578 0.7621 0.0
C669 C 0.53174 0.61698 0.77311 0.0
C670 C 0.53272 0.79157 0.74723 0.0
C671 C 0.48159 0.59451 0.75959 0.0
H672 H 0.41885 0.79069 0.7435 0.0
H673 H 0.45521 0.71074 0.69664 0.0
H674 H 0.46232 0.71813 0.77768 0.0
H675 H 0.4801 0.78738 0.77348 0.0
H676 H 0.44131 0.78539 0.7733 0.0
H677 H 0.49896 0.65872 0.69882 0.0
H678 H 0.52454 0.6897 0.71608 0.0
H679 H 0.50652 0.62093 0.72055 0.0
H680 H 0.57468 0.73943 0.76921 0.0
H681 H 0.53166 0.57324 0.77964 0.0
H682 H 0.51467 0.81961 0.75155 0.0
H683 H 0.52985 0.78692 0.73203 0.0
H684 H 0.55331 0.81555 0.75083 0.0
H685 H 0.46216 0.61725 0.76424 0.0
H686 H 0.48487 0.55183 0.76737 0.0
H687 H 0.47713 0.58372 0.74477 0.0
C688 C 0.44937 0.51463 0.5294 0.0
C689 C 0.4498 0.45377 0.53442 0.0
C690 C 0.47205 0.54011 0.52036 0.0
C691 C 0.49574 0.50387 0.51623 0.0
C692 C 0.49651 0.44261 0.52146 0.0
C693 C 0.47352 0.41826 0.5305 0.0
C694 C 0.47046 0.60564 0.51501 0.0
C695 C 0.52144 0.40259 0.51727 0.0
C696 C 0.53932 0.55311 0.47678 0.0
C697 C 0.5635 0.57974 0.48615 0.0
C698 C 0.5172 0.52805 0.48642 0.0
C699 C 0.51925 0.5297 0.50591 0.0
C700 C 0.54356 0.55652 0.51547 0.0
C701 C 0.56542 0.58122 0.50547 0.0
C702 C 0.49159 0.49985 0.47573 0.0
C703 C 0.54643 0.55918 0.53626 0.0
H704 H 0.43116 0.54246 0.53241 0.0
H705 H 0.47405 0.37123 0.53436 0.0
H706 H 0.48984 0.62973 0.52096 0.0
H707 H 0.47022 0.61002 0.49981 0.0
H708 H 0.45096 0.6281 0.51972 0.0
H709 H 0.51919 0.35639 0.52275 0.0
H710 H 0.52298 0.39983 0.50215 0.0
H711 H 0.542 0.42198 0.52327 0.0
H712 H 0.53765 0.55168 0.46185 0.0
H713 H 0.58402 0.60167 0.51282 0.0
H714 H 0.47148 0.5231 0.47901 0.0
H715 H 0.48949 0.45214 0.47983 0.0
H716 H 0.49337 0.50186 0.4606 0.0
H717 H 0.52796 0.58417 0.54137 0.0
H718 H 0.56676 0.5813 0.54162 0.0
H719 H 0.54586 0.51312 0.54205 0.0
C720 C 0.12389 0.91127 0.31975 0.0
C721 C 0.14379 0.86387 0.32126 0.0
C722 C 0.12551 0.95892 0.33237 0.0
C723 C 0.14786 0.95964 0.34665 0.0
C724 C 0.16916 0.9141 0.34749 0.0
C725 C 0.16675 0.86642 0.33485 0.0
C726 C 0.10223 0.00638 0.33111 0.0
C727 C 0.19365 0.91407 0.36229 0.0
C728 C 0.15714 0.10465 0.37396 0.0
C729 C 0.14181 0.09164 0.38939 0.0
C730 C 0.16017 0.06146 0.36017 0.0
C731 C 0.1471 0.00445 0.36173 0.0
C732 C 0.13202 0.9908 0.37743 0.0
C733 C 0.12977 0.03438 0.39113 0.0
C734 C 0.17687 0.07712 0.34379 0.0
C735 C 0.11748 0.93072 0.3795 0.0
H736 H 0.10611 0.9097 0.30927 0.0
H737 H 0.18237 0.83021 0.33598 0.0
H738 H 0.089 0.00251 0.34316 0.0
H739 H 0.11192 0.05191 0.3315 0.0
H740 H 0.08776 0.00212 0.31834 0.0
H741 H 0.21042 0.88031 0.35958 0.0
H742 H 0.20387 0.95908 0.36344 0.0
H743 H 0.18517 0.90371 0.3758 0.0
H744 H 0.16668 0.14872 0.37262 0.0
H745 H 0.11782 0.02406 0.40299 0.0
H746 H 0.16214 0.07762 0.33109 0.0
H747 H 0.19356 0.04252 0.34185 0.0
H748 H 0.18752 0.12168 0.34531 0.0
H749 H 0.10085 0.9239 0.36796 0.0
H750 H 0.107 0.92692 0.39269 0.0
H751 H 0.13345 0.89391 0.37884 0.0
C752 C 0.08608 0.35538 0.40076 0.0
C753 C 0.09913 0.36283 0.4186 0.0
C754 C 0.08523 0.40257 0.38799 0.0
C755 C 0.09793 0.45839 0.39316 0.0
C756 C 0.10963 0.4673 0.41146 0.0
C757 C 0.10998 0.41939 0.42401 0.0
C758 C 0.07226 0.39152 0.36865 0.0
C759 C 0.1234 0.52619 0.41746 0.0
C760 C 0.12962 0.5449 0.35462 0.0
C761 C 0.10848 0.58875 0.35047 0.0
C762 C 0.12661 0.50303 0.36872 0.0
C763 C 0.10179 0.5048 0.37888 0.0
C764 C 0.08052 0.54936 0.37496 0.0
C765 C 0.08415 0.59098 0.3608 0.0
C766 C 0.14986 0.4563 0.37255 0.0
C767 C 0.05375 0.55239 0.38549 0.0
H768 H 0.07738 0.31194 0.39654 0.0
H769 H 0.12007 0.42552 0.43779 0.0
H770 H 0.05725 0.42836 0.36424 0.0
H771 H 0.08964 0.39076 0.35898 0.0
H772 H 0.06041 0.34821 0.36745 0.0
H773 H 0.12838 0.52825 0.43262 0.0
H774 H 0.14379 0.53214 0.41063 0.0
H775 H 0.10909 0.56436 0.41323 0.0
H776 H 0.14855 0.54298 0.34678 0.0
H777 H 0.06773 0.62475 0.35767 0.0
H778 H 0.14074 0.41075 0.37003 0.0
H779 H 0.15813 0.45833 0.38723 0.0
H780 H 0.16827 0.46236 0.36381 0.0
H781 H 0.04104 0.51053 0.38323 0.0
H782 H 0.03982 0.59125 0.38125 0.0
H783 H 0.05975 0.55574 0.40049 0.0
C784 C 0.15606 0.35053 0.84114 0.0
C785 C 0.12965 0.34094 0.83099 0.0
C786 C 0.15975 0.39928 0.85333 0.0
C787 C 0.1364 0.43885 0.85549 0.0
C788 C 0.11009 0.4307 0.84475 0.0
C789 C 0.10709 0.38203 0.83258 0.0
C790 C 0.18824 0.40713 0.8644 0.0
C791 C 0.08463 0.47181 0.8467 0.0
C792 C 0.12877 0.51864 0.90081 0.0
C793 C 0.13551 0.57806 0.89638 0.0
C794 C 0.12999 0.47252 0.88779 0.0
C795 C 0.13843 0.48602 0.86995 0.0
C796 C 0.1465 0.54537 0.86563 0.0
C797 C 0.1448 0.59083 0.87888 0.0
C798 C 0.12105 0.40981 0.89291 0.0
C799 C 0.15595 0.56121 0.84681 0.0
H800 H 0.17365 0.31917 0.8399 0.0
H801 H 0.08664 0.37518 0.82473 0.0
H802 H 0.19588 0.45415 0.86344 0.0
H803 H 0.18545 0.39783 0.87915 0.0
H804 H 0.20512 0.37656 0.85972 0.0
H805 H 0.06627 0.46135 0.83658 0.0
H806 H 0.07715 0.4676 0.86079 0.0
H807 H 0.09102 0.51929 0.84484 0.0
H808 H 0.12165 0.5083 0.91432 0.0
H809 H 0.15028 0.63656 0.8754 0.0
H810 H 0.13813 0.37708 0.89001 0.0
H811 H 0.10127 0.3968 0.88439 0.0
H812 H 0.11664 0.40609 0.90767 0.0
H813 H 0.17294 0.52974 0.84284 0.0
H814 H 0.16435 0.60784 0.84625 0.0
H815 H 0.13743 0.55671 0.8364 0.0
C816 C 0.11287 0.90834 0.92845 0.0
C817 C 0.09833 0.85407 0.92466 0.0
C818 C 0.11219 0.95468 0.91536 0.0
C819 C 0.09621 0.94682 0.89822 0.0
C820 C 0.07993 0.89374 0.89482 0.0
C821 C 0.08138 0.84775 0.90803 0.0
C822 C 0.13007 0.01037 0.91943 0.0
C823 C 0.06219 0.88419 0.87685 0.0
C824 C 0.08382 0.08321 0.8672 0.0
C825 C 0.10532 0.07548 0.85484 0.0
C826 C 0.08025 0.04128 0.88128 0.0
C827 C 0.09896 0.99114 0.88318 0.0
C828 C 0.12071 0.98324 0.87075 0.0
C829 C 0.12347 0.02523 0.85665 0.0
C830 C 0.05652 0.05054 0.8941 0.0
C831 C 0.14133 0.93073 0.87247 0.0
H832 H 0.12607 0.91348 0.94126 0.0
H833 H 0.0699 0.80607 0.90509 0.0
H834 H 0.14823 0.01143 0.91034 0.0
H835 H 0.11697 0.05134 0.91648 0.0
H836 H 0.13907 0.01203 0.93398 0.0
H837 H 0.04799 0.84417 0.87729 0.0
H838 H 0.04864 0.9242 0.87337 0.0
H839 H 0.07675 0.87792 0.86557 0.0
H840 H 0.06963 0.12182 0.86579 0.0
H841 H 0.14024 0.01915 0.84721 0.0
H842 H 0.0659 0.05521 0.90849 0.0
H843 H 0.04213 0.01074 0.89369 0.0
H844 H 0.04335 0.09105 0.89049 0.0
H845 H 0.15316 0.93099 0.88627 0.0
H846 H 0.1573 0.93158 0.86183 0.0
H847 H 0.12917 0.88789 0.87117 0.0
C848 C 0.83801 0.18006 0.64351 0.0
C849 C 0.86427 0.18808 0.65398 0.0
C850 C 0.83439 0.13266 0.6308 0.0
C851 C 0.85752 0.09245 0.62866 0.0
C852 C 0.88365 0.09919 0.63969 0.0
C853 C 0.88672 0.14698 0.65216 0.0
C854 C 0.80625 0.12678 0.61923 0.0
C855 C 0.90876 0.05693 0.63795 0.0
C856 C 0.84966 0.93996 0.60577 0.0
C857 C 0.8615 0.95114 0.58891 0.0
C858 C 0.8466 0.9864 0.61853 0.0
C859 C 0.85542 0.04527 0.61422 0.0
C860 C 0.86562 0.05745 0.59674 0.0
C861 C 0.86863 0.01018 0.58432 0.0
C862 C 0.83563 0.97173 0.63703 0.0
C863 C 0.875 0.11979 0.59156 0.0
H864 H 0.82058 0.21171 0.64488 0.0
H865 H 0.90697 0.15253 0.66034 0.0
H866 H 0.80986 0.1358 0.60458 0.0
H867 H 0.79782 0.08031 0.62001 0.0
H868 H 0.78962 0.15849 0.62362 0.0
H869 H 0.92699 0.06644 0.64826 0.0
H870 H 0.90178 0.00976 0.6397 0.0
H871 H 0.91668 0.06086 0.62398 0.0
H872 H 0.84397 0.89447 0.60937 0.0
H873 H 0.87743 0.01929 0.5712 0.0
H874 H 0.81914 0.00485 0.64066 0.0
H875 H 0.85372 0.97431 0.64782 0.0
H876 H 0.82613 0.92598 0.63732 0.0
H877 H 0.85826 0.15326 0.59452 0.0
H878 H 0.87929 0.12309 0.57678 0.0
H879 H 0.895 0.13204 0.59998 0.0
C880 C 0.8794 0.50162 0.64332 0.0
C881 C 0.90187 0.46373 0.65005 0.0
C882 C 0.88345 0.5433 0.62932 0.0
C883 C 0.91067 0.54746 0.62187 0.0
C884 C 0.93366 0.51035 0.62885 0.0
C885 C 0.92898 0.4688 0.64286 0.0
C886 C 0.85839 0.58219 0.62227 0.0
C887 C 0.96301 0.51388 0.6213 0.0
C888 C 0.90752 0.6141 0.57383 0.0
C889 C 0.91369 0.67468 0.57763 0.0
C890 C 0.90784 0.57148 0.58806 0.0
C891 C 0.91458 0.58992 0.60649 0.0
C892 C 0.92236 0.65032 0.6103 0.0
C893 C 0.92179 0.69201 0.59582 0.0
C894 C 0.89948 0.5074 0.58345 0.0
C895 C 0.92985 0.6716 0.62976 0.0
H896 H 0.8584 0.49817 0.6488 0.0
H897 H 0.94647 0.43977 0.648 0.0
H898 H 0.86431 0.63033 0.62361 0.0
H899 H 0.85306 0.57314 0.60741 0.0
H900 H 0.83878 0.57422 0.62979 0.0
H901 H 0.97895 0.48378 0.62876 0.0
H902 H 0.96134 0.50129 0.60651 0.0
H903 H 0.97125 0.56062 0.62222 0.0
H904 H 0.90138 0.60023 0.55982 0.0
H905 H 0.92679 0.73867 0.59888 0.0
H906 H 0.87848 0.49703 0.58908 0.0
H907 H 0.91564 0.47581 0.58993 0.0
H908 H 0.89747 0.4991 0.56836 0.0
H909 H 0.91029 0.67033 0.63763 0.0
H910 H 0.93846 0.71816 0.63019 0.0
H911 H 0.94605 0.64139 0.63687 0.0
C912 C 0.88369 0.46449 0.10411 0.0
C913 C 0.86603 0.41393 0.10103 0.0
C914 C 0.87775 0.50737 0.11741 0.0
C915 C 0.85334 0.49991 0.12774 0.0
C916 C 0.83514 0.44949 0.12452 0.0
C917 C 0.84181 0.40682 0.11126 0.0
C918 C 0.89783 0.56033 0.12055 0.0
C919 C 0.80874 0.44056 0.13513 0.0
C920 C 0.85795 0.5849 0.17294 0.0
C921 C 0.84387 0.63869 0.16782 0.0
C922 C 0.86001 0.53796 0.16025 0.0
C923 C 0.84738 0.54481 0.14208 0.0
C924 C 0.83153 0.59739 0.13718 0.0
C925 C 0.83009 0.6439 0.15009 0.0
C926 C 0.87723 0.48266 0.16596 0.0
C927 C 0.81739 0.60592 0.11802 0.0
H928 H 0.90251 0.47021 0.09632 0.0
H929 H 0.82799 0.36798 0.10888 0.0
H930 H 0.88574 0.60289 0.11815 0.0
H931 H 0.90697 0.56071 0.13507 0.0
H932 H 0.91591 0.55942 0.11137 0.0
H933 H 0.79632 0.3999 0.13059 0.0
H934 H 0.81517 0.43632 0.15005 0.0
H935 H 0.79439 0.48029 0.13341 0.0
H936 H 0.86861 0.58045 0.18662 0.0
H937 H 0.81893 0.68514 0.14608 0.0
H938 H 0.89724 0.48139 0.15853 0.0
H939 H 0.8648 0.44142 0.16218 0.0
H940 H 0.88331 0.48176 0.18101 0.0
H941 H 0.83423 0.61187 0.10812 0.0
H942 H 0.80297 0.64577 0.11709 0.0
H943 H 0.80465 0.56559 0.11366 0.0
C944 C 0.91855 0.91432 0.13949 0.0
C945 C 0.89261 0.91835 0.14816 0.0
C946 C 0.92549 0.95661 0.12619 0.0
C947 C 0.9059 0.00364 0.12137 0.0
C948 C 0.87977 0.00808 0.13014 0.0
C949 C 0.8735 0.96554 0.14346 0.0
C950 C 0.95366 0.95087 0.11724 0.0
C951 C 0.85824 0.05748 0.12531 0.0
C952 C 0.92733 0.14888 0.09896 0.0
C953 C 0.916 0.14042 0.08074 0.0
C954 C 0.92571 0.1033 0.11216 0.0
C955 C 0.91228 0.04817 0.10702 0.0
C956 C 0.90235 0.03809 0.08842 0.0
C957 C 0.90445 0.08429 0.07548 0.0
C958 C 0.93689 0.11543 0.13181 0.0
C959 C 0.88788 0.97988 0.08242 0.0
H960 H 0.93349 0.8781 0.1431 0.0
H961 H 0.8534 0.96895 0.15006 0.0
H962 H 0.94943 0.94457 0.10216 0.0
H963 H 0.9664 0.99277 0.11931 0.0
H964 H 0.96685 0.91255 0.12285 0.0
H965 H 0.83894 0.0546 0.13341 0.0
H966 H 0.8685 0.10199 0.12783 0.0
H967 H 0.85108 0.05518 0.11044 0.0
H968 H 0.93653 0.19195 0.10311 0.0
H969 H 0.89574 0.07726 0.06142 0.0
H970 H 0.95041 0.07748 0.13727 0.0
H971 H 0.91846 0.11963 0.1406 0.0
H972 H 0.9498 0.1574 0.13309 0.0
H973 H 0.90119 0.94097 0.08735 0.0
H974 H 0.88401 0.97682 0.0672 0.0
H975 H 0.86684 0.97621 0.08862 0.0
C976 C 0.66922 0.81344 0.84471 0.0
C977 C 0.65275 0.82258 0.82801 0.0
C978 C 0.67202 0.85878 0.8581 0.0
C979 C 0.6579 0.91442 0.85474 0.0
C980 C 0.64256 0.92506 0.83752 0.0
C981 C 0.64024 0.87903 0.82433 0.0
C982 C 0.68881 0.84596 0.87622 0.0
C983 C 0.62719 0.98384 0.83344 0.0
C984 C 0.63257 0.99777 0.89598 0.0
C985 C 0.65291 0.04417 0.8983 0.0
C986 C 0.63409 0.95529 0.88189 0.0
C987 C 0.65662 0.95896 0.86986 0.0
C988 C 0.67748 0.00512 0.87224 0.0
C989 C 0.67533 0.04738 0.88642 0.0
C990 C 0.61135 0.9068 0.87977 0.0
C991 C 0.70192 0.01005 0.85974 0.0
H992 H 0.67918 0.77012 0.8476 0.0
H993 H 0.62759 0.88658 0.81144 0.0
H994 H 0.70401 0.88318 0.87991 0.0
H995 H 0.67372 0.84267 0.88732 0.0
H996 H 0.7012 0.80335 0.87587 0.0
H997 H 0.61865 0.9872 0.81881 0.0
H998 H 0.6089 0.98826 0.84234 0.0
H999 H 0.64193 0.0222 0.83662 0.0
H1000 H 0.61515 0.99495 0.90507 0.0
H1001 H 0.69117 0.08303 0.88814 0.0
H1002 H 0.62163 0.86186 0.88088 0.0
H1003 H 0.59978 0.90975 0.86591 0.0
H1004 H 0.59529 0.91017 0.89031 0.0
H1005 H 0.71447 0.96762 0.86009 0.0
H1006 H 0.71677 0.0477 0.8637 0.0
H1007 H 0.69316 0.01695 0.84531 0.0
C1008 C 0.5904 0.3197 0.90598 0.0
C1009 C 0.61001 0.32525 0.92147 0.0
C1010 C 0.58744 0.36547 0.89273 0.0
C1011 C 0.60478 0.41756 0.89491 0.0
C1012 C 0.62353 0.42474 0.91098 0.0
C1013 C 0.62577 0.37863 0.92414 0.0
C1014 C 0.56685 0.35667 0.87593 0.0
C1015 C 0.64254 0.47947 0.91375 0.0
C1016 C 0.62708 0.49495 0.85182 0.0
C1017 C 0.60982 0.54669 0.85121 0.0
C1018 C 0.62535 0.45239 0.86587 0.0
C1019 C 0.60568 0.46142 0.87958 0.0
C1020 C 0.58768 0.51278 0.87883 0.0
C1021 C 0.59006 0.55503 0.86468 0.0
C1022 C 0.64503 0.39831 0.86624 0.0
C1023 C 0.56625 0.52344 0.89311 0.0
H1024 H 0.57793 0.2788 0.90393 0.0
H1025 H 0.64094 0.3833 0.93608 0.0
H1026 H 0.55346 0.39742 0.87326 0.0
H1027 H 0.57927 0.34929 0.86366 0.0
H1028 H 0.55237 0.31754 0.8774 0.0
H1029 H 0.65395 0.48074 0.9277 0.0
H1030 H 0.65888 0.47953 0.90336 0.0
H1031 H 0.6296 0.5211 0.91169 0.0
H1032 H 0.64241 0.4881 0.84148 0.0
H1033 H 0.57657 0.59479 0.86426 0.0
H1034 H 0.6321 0.3564 0.86596 0.0
H1035 H 0.65915 0.39807 0.87921 0.0
H1036 H 0.65887 0.39761 0.85442 0.0
H1037 H 0.55185 0.48393 0.89394 0.0
H1038 H 0.55279 0.56394 0.89004 0.0
H1039 H 0.57781 0.52909 0.90688 0.0
C1040 C 0.5984 0.33266 0.33324 0.0
C1041 C 0.62093 0.29355 0.32959 0.0
C1042 C 0.60285 0.38042 0.34564 0.0
C1043 C 0.63056 0.38948 0.35458 0.0
C1044 C 0.65369 0.35161 0.35047 0.0
C1045 C 0.6486 0.30394 0.33801 0.0
C1046 C 0.57763 0.41998 0.34963 0.0
C1047 C 0.68357 0.36029 0.35966 0.0
C1048 C 0.6412 0.54195 0.37725 0.0
C1049 C 0.6347 0.5293 0.39538 0.0
C1050 C 0.64131 0.4963 0.36396 0.0
C1051 C 0.63466 0.43673 0.36893 0.0
C1052 C 0.62938 0.42324 0.3874 0.0
C1053 C 0.62952 0.46969 0.40042 0.0
C1054 C 0.64727 0.51227 0.34443 0.0
C1055 C 0.62222 0.3602 0.39323 0.0
H1056 H 0.57699 0.32521 0.32673 0.0
H1057 H 0.66614 0.274 0.33522 0.0
H1058 H 0.57298 0.41523 0.3643 0.0
H1059 H 0.58297 0.46782 0.34733 0.0
H1060 H 0.55779 0.40858 0.3409 0.0
H1061 H 0.69967 0.33012 0.35387 0.0
H1062 H 0.69064 0.4075 0.35812 0.0
H1063 H 0.68328 0.35118 0.37463 0.0
H1064 H 0.64545 0.58783 0.37327 0.0
H1065 H 0.62464 0.45945 0.41442 0.0
H1066 H 0.62723 0.50712 0.33532 0.0
H1067 H 0.66356 0.48134 0.33926 0.0
H1068 H 0.65509 0.55916 0.34325 0.0
H1069 H 0.60119 0.34641 0.38633 0.0
H1070 H 0.62089 0.35636 0.40837 0.0
H1071 H 0.6387 0.32813 0.38892 0.0
C1072 C 0.60653 0.86554 0.42278 0.0
C1073 C 0.59703 0.80677 0.41896 0.0
C1074 C 0.60388 0.91032 0.40918 0.0
C1075 C 0.59129 0.89595 0.39142 0.0
C1076 C 0.58019 0.83763 0.38783 0.0
C1077 C 0.58326 0.79369 0.40162 0.0
C1078 C 0.61599 0.97206 0.41352 0.0
C1079 C 0.5664 0.82072 0.36911 0.0
C1080 C 0.57081 0.02154 0.35756 0.0
C1081 C 0.59459 0.022 0.34673 0.0
C1082 C 0.56937 0.98081 0.37221 0.0
C1083 C 0.5923 0.93989 0.37612 0.0
C1084 C 0.61633 0.94018 0.36524 0.0
C1085 C 0.61715 0.98109 0.35067 0.0
C1086 C 0.54336 0.98147 0.38348 0.0
C1087 C 0.64125 0.89727 0.369 0.0
H1088 H 0.61713 0.87605 0.43614 0.0
H1089 H 0.57563 0.7485 0.39861 0.0
H1090 H 0.63521 0.97969 0.40563 0.0
H1091 H 0.59994 0.00716 0.40925 0.0
H1092 H 0.62243 0.97774 0.42842 0.0
H1093 H 0.5562 0.7756 0.36912 0.0
H1094 H 0.5498 0.85425 0.36443 0.0
H1095 H 0.583 0.8206 0.35889 0.0
H1096 H 0.55329 0.053 0.35461 0.0
H1097 H 0.63563 0.98117 0.3424 0.0
H1098 H 0.55016 0.9901 0.39817 0.0
H1099 H 0.53265 0.93692 0.38277 0.0
H1100 H 0.52738 0.0162 0.37868 0.0
H1101 H 0.65078 0.90337 0.3833 0.0
H1102 H 0.65847 0.90379 0.35938 0.0
H1103 H 0.63347 0.85023 0.36776 0.0
C1104 C 0.32129 0.16559 0.14615 0.0
C1105 C 0.33134 0.156 0.16456 0.0
C1106 C 0.32245 0.11973 0.13301 0.0
C1107 C 0.33416 0.06321 0.1384 0.0
C1108 C 0.34258 0.05208 0.15717 0.0
C1109 C 0.34094 0.09859 0.17006 0.0
C1110 C 0.31285 0.13302 0.11315 0.0
C1111 C 0.35526 0.99243 0.16345 0.0
C1112 C 0.32823 0.93143 0.10508 0.0
C1113 C 0.35489 0.93441 0.09724 0.0
C1114 C 0.32097 0.97329 0.11844 0.0
C1115 C 0.34098 0.01863 0.12416 0.0
C1116 C 0.36794 0.02168 0.11633 0.0
C1117 C 0.37449 0.97975 0.10291 0.0
C1118 C 0.29193 0.96915 0.12638 0.0
C1119 C 0.38998 0.06913 0.12217 0.0
H1120 H 0.31355 0.20967 0.14182 0.0
H1121 H 0.34863 0.0907 0.18427 0.0
H1122 H 0.33202 0.13619 0.10496 0.0
H1123 H 0.29909 0.09617 0.10719 0.0
H1124 H 0.30067 0.1759 0.11165 0.0
H1125 H 0.35752 0.98859 0.17871 0.0
H1126 H 0.34166 0.95486 0.15783 0.0
H1127 H 0.37691 0.98714 0.15816 0.0
H1128 H 0.31293 0.89663 0.1007 0.0
H1129 H 0.39518 0.98227 0.09697 0.0
H1130 H 0.27988 0.01176 0.12391 0.0
H1131 H 0.2948 0.96268 0.14152 0.0
H1132 H 0.27868 0.93158 0.12032 0.0
H1133 H 0.38078 0.1145 0.11943 0.0
H1134 H 0.41004 0.06488 0.11485 0.0
H1135 H 0.39569 0.06588 0.13721 0.0
C1136 C 0.40173 0.42373 0.13162 0.0
C1137 C 0.38331 0.43443 0.14571 0.0
C1138 C 0.40632 0.46791 0.11837 0.0
C1139 C 0.3921 0.52393 0.11924 0.0
C1140 C 0.37417 0.53559 0.13375 0.0
C1141 C 0.37003 0.49076 0.14681 0.0
C1142 C 0.4257 0.45404 0.10314 0.0
C1143 C 0.35862 0.59483 0.13516 0.0
C1144 C 0.4147 0.66219 0.09337 0.0
C1145 C 0.39361 0.66377 0.07857 0.0
C1146 C 0.41535 0.61535 0.10632 0.0
C1147 C 0.39436 0.56928 0.10443 0.0
C1148 C 0.3739 0.56917 0.08906 0.0
C1149 C 0.37382 0.61632 0.07629 0.0
C1150 C 0.43765 0.61663 0.12246 0.0
C1151 C 0.35118 0.52078 0.08654 0.0
H1152 H 0.41217 0.38041 0.13071 0.0
H1153 H 0.35587 0.49956 0.1577 0.0
H1154 H 0.41275 0.45278 0.08973 0.0
H1155 H 0.4421 0.48991 0.10221 0.0
H1156 H 0.43694 0.41027 0.10523 0.0
H1157 H 0.34658 0.59782 0.14777 0.0
H1158 H 0.37422 0.63254 0.13523 0.0
H1159 H 0.34314 0.60085 0.12296 0.0
H1160 H 0.43016 0.69851 0.09518 0.0
H1161 H 0.35755 0.61692 0.06485 0.0
H1162 H 0.44851 0.57239 0.12411 0.0
H1163 H 0.42692 0.62562 0.13532 0.0
H1164 H 0.45426 0.65177 0.1209 0.0
H1165 H 0.36134 0.47569 0.08733 0.0
H1166 H 0.33821 0.52477 0.07316 0.0
H1167 H 0.33638 0.52365 0.09781 0.0
C1168 C 0.32611 0.67069 0.6543 0.0
C1169 C 0.33675 0.65778 0.67241 0.0
C1170 C 0.32575 0.6267 0.64049 0.0
C1171 C 0.33646 0.56857 0.64488 0.0
C1172 C 0.34566 0.55428 0.66334 0.0
C1173 C 0.34558 0.59905 0.67692 0.0
C1174 C 0.31545 0.64349 0.62101 0.0
C1175 C 0.35727 0.49278 0.66855 0.0
C1176 C 0.32442 0.44176 0.61014 0.0
C1177 C 0.35052 0.44223 0.60159 0.0
C1178 C 0.31936 0.48285 0.62421 0.0
C1179 C 0.341 0.52498 0.6299 0.0
C1180 C 0.36732 0.52575 0.62126 0.0
C1181 C 0.37171 0.48456 0.60718 0.0
C1182 C 0.29094 0.48116 0.63301 0.0
C1183 C 0.391 0.56987 0.62698 0.0
H1184 H 0.319 0.71585 0.65073 0.0
H1185 H 0.35377 0.58865 0.69088 0.0
H1186 H 0.33411 0.64509 0.61234 0.0
H1187 H 0.30026 0.60915 0.61497 0.0
H1188 H 0.30458 0.68796 0.62029 0.0
H1189 H 0.36067 0.48696 0.68371 0.0
H1190 H 0.34234 0.45731 0.66296 0.0
H1191 H 0.3782 0.48587 0.66243 0.0
H1192 H 0.30791 0.40927 0.60586 0.0
H1193 H 0.39196 0.48522 0.60068 0.0
H1194 H 0.28011 0.52548 0.63151 0.0
H1195 H 0.2947 0.47214 0.64798 0.0
H1196 H 0.27618 0.44622 0.62682 0.0
H1197 H 0.38292 0.61652 0.62511 0.0
H1198 H 0.41025 0.56432 0.61895 0.0
H1199 H 0.39772 0.56405 0.64182 0.0
C1200 C 0.35833 0.1332 0.58768 0.0
C1201 C 0.3819 0.17151 0.58589 0.0
C1202 C 0.3602 0.08462 0.59993 0.0
C1203 C 0.38635 0.07381 0.6106 0.0
C1204 C 0.41059 0.11085 0.60838 0.0
C1205 C 0.40807 0.15945 0.59606 0.0
C1206 C 0.33384 0.04612 0.60191 0.0
C1207 C 0.43889 0.10025 0.61942 0.0
C1208 C 0.37696 0.99223 0.65543 0.0
C1209 C 0.38238 0.93252 0.65059 0.0
C1210 C 0.37935 0.03902 0.64275 0.0
C1211 C 0.38751 0.02583 0.62482 0.0
C1212 C 0.39434 0.9661 0.62011 0.0
C1213 C 0.39162 0.92006 0.63305 0.0
C1214 C 0.37184 0.10219 0.64828 0.0
C1215 C 0.40337 0.95045 0.60118 0.0
H1216 H 0.33806 0.14197 0.57983 0.0
H1217 H 0.42642 0.18871 0.59469 0.0
H1218 H 0.33906 0.99813 0.59977 0.0
H1219 H 0.32674 0.05047 0.61609 0.0
H1220 H 0.31557 0.05884 0.59199 0.0
H1221 H 0.45632 0.12986 0.61497 0.0
H1222 H 0.43621 0.10871 0.63423 0.0
H1223 H 0.4457 0.05277 0.61813 0.0
H1224 H 0.36995 0.00233 0.66898 0.0
H1225 H 0.39605 0.87409 0.62924 0.0
H1226 H 0.35214 0.11727 0.64004 0.0
H1227 H 0.38947 0.13358 0.64535 0.0
H1228 H 0.3679 0.10558 0.66312 0.0
H1229 H 0.38487 0.95699 0.59086 0.0
H1230 H 0.41084 0.9032 0.60033 0.0
H1231 H 0.42092 0.98068 0.59732 0.0
loop_
_geom_bond_atom_site_label_1
_geom_bond_atom_site_label_2
_geom_bond_distance
_geom_bond_site_symmetry_2
_ccdc_geom_bond_type
C0 O1 1.160 . S
C0 O7 1.185 . S
O1 C0 1.160 . S
O2 Zn3 1.899 . S
O2 C10 1.284 . S
Zn3 O2 1.899 . S
Zn3 O4 2.032 . S
Zn3 O7 2.086 . S
Zn3 O12 1.977 . S
O4 Zn3 2.032 . S
O4 C8 1.278 . S
C5 O6 1.203 . S
C5 O12 1.267 . S
O6 C5 1.203 . S
O7 C0 1.185 . S
O7 Zn3 2.086 . S
C8 O4 1.278 . S
C8 O9 1.211 . S
O9 C8 1.211 . S
C10 O2 1.284 . S
C10 O11 1.273 . S
O11 C10 1.273 . S
O12 Zn3 1.977 . S
O12 C5 1.267 . S
C13 O14 1.160 . S
C13 O20 1.185 . S
O14 C13 1.160 . S
O15 Zn16 1.899 . S
O15 C23 1.284 . S
Zn16 O15 1.899 . S
Zn16 O17 2.032 . S
Zn16 O20 2.086 . S
Zn16 O25 1.977 . S
O17 Zn16 2.032 . S
O17 C21 1.278 . S
C18 O19 1.203 . S
C18 O25 1.267 . S
O19 C18 1.203 . S
O20 C13 1.185 . S
O20 Zn16 2.086 . S
C21 O17 1.278 . S
C21 O22 1.211 . S
O22 C21 1.211 . S
C23 O15 1.284 . S
C23 O24 1.273 . S
O24 C23 1.273 . S
O25 Zn16 1.977 . S
O25 C18 1.267 . S
C26 O27 1.160 . S
C26 O33 1.185 . S
O27 C26 1.160 . S
O28 Zn29 1.899 . S
O28 C36 1.284 . S
Zn29 O28 1.899 . S
Zn29 O30 2.032 . S
Zn29 O33 2.086 . S
Zn29 O38 1.977 . S
O30 Zn29 2.032 . S
O30 C34 1.278 . S
C31 O32 1.203 . S
C31 O38 1.267 . S
O32 C31 1.203 . S
O33 C26 1.185 . S
O33 Zn29 2.086 . S
C34 O30 1.278 . S
C34 O35 1.211 . S
O35 C34 1.211 . S
C36 O28 1.284 . S
C36 O37 1.273 . S
O37 C36 1.273 . S
O38 Zn29 1.977 . S
O38 C31 1.267 . S
C39 O40 1.160 . S
C39 O46 1.185 . S
O40 C39 1.160 . S
O41 Zn42 1.899 . S
O41 C49 1.284 . S
Zn42 O41 1.899 . S
Zn42 O43 2.032 . S
Zn42 O46 2.086 . S
Zn42 O51 1.977 . S
O43 Zn42 2.032 . S
O43 C47 1.278 . S
C44 O45 1.203 . S
C44 O51 1.267 . S
O45 C44 1.203 . S
O46 C39 1.185 . S
O46 Zn42 2.086 . S
C47 O43 1.278 . S
C47 O48 1.211 . S
O48 C47 1.211 . S
C49 O41 1.284 . S
C49 O50 1.273 . S
O50 C49 1.273 . S
O51 Zn42 1.977 . S
O51 C44 1.267 . S
C52 O53 1.160 . S
C52 O59 1.185 . S
O53 C52 1.160 . S
O54 Zn55 1.899 . S
O54 C62 1.284 . S
Zn55 O54 1.899 . S
Zn55 O56 2.032 . S
Zn55 O59 2.086 . S
Zn55 O64 1.977 . S
O56 Zn55 2.032 . S
O56 C60 1.278 . S
C57 O58 1.203 . S
C57 O64 1.267 . S
O58 C57 1.203 . S
O59 C52 1.185 . S
O59 Zn55 2.086 . S
C60 O56 1.278 . S
C60 O61 1.211 . S
O61 C60 1.211 . S
C62 O54 1.284 . S
C62 O63 1.273 . S
O63 C62 1.273 . S
O64 Zn55 1.977 . S
O64 C57 1.267 . S
C65 O66 1.160 . S
C65 O72 1.185 . S
O66 C65 1.160 . S
O67 Zn68 1.899 . S
O67 C75 1.284 . S
Zn68 O67 1.899 . S
Zn68 O69 2.032 . S
Zn68 O72 2.086 . S
Zn68 O77 1.977 . S
O69 Zn68 2.032 . S
O69 C73 1.278 . S
C70 O71 1.203 . S
C70 O77 1.267 . S
O71 C70 1.203 . S
O72 C65 1.185 . S
O72 Zn68 2.086 . S
C73 O69 1.278 . S
C73 O74 1.211 . S
O74 C73 1.211 . S
C75 O67 1.284 . S
C75 O76 1.273 . S
O76 C75 1.273 . S
O77 Zn68 1.977 . S
O77 C70 1.267 . S
C78 O79 1.160 . S
C78 O85 1.185 . S
O79 C78 1.160 . S
O80 Zn81 1.899 . S
O80 C88 1.284 . S
Zn81 O80 1.899 . S
Zn81 O82 2.032 . S
Zn81 O85 2.086 . S
Zn81 O90 1.977 . S
O82 Zn81 2.032 . S
O82 C86 1.278 . S
C83 O84 1.203 . S
C83 O90 1.267 . S
O84 C83 1.203 . S
O85 C78 1.185 . S
O85 Zn81 2.086 . S
C86 O82 1.278 . S
C86 O87 1.211 . S
O87 C86 1.211 . S
C88 O80 1.284 . S
C88 O89 1.273 . S
O89 C88 1.273 . S
O90 Zn81 1.977 . S
O90 C83 1.267 . S
C91 O92 1.160 . S
C91 O98 1.185 . S
O92 C91 1.160 . S
O93 Zn94 1.899 . S
O93 C101 1.284 . S
Zn94 O93 1.899 . S
Zn94 O95 2.032 . S
Zn94 O98 2.086 . S
Zn94 O103 1.977 . S
O95 Zn94 2.032 . S
O95 C99 1.278 . S
C96 O97 1.203 . S
C96 O103 1.267 . S
O97 C96 1.203 . S
O98 C91 1.185 . S
O98 Zn94 2.086 . S
C99 O95 1.278 . S
C99 O100 1.211 . S
O100 C99 1.211 . S
C101 O93 1.284 . S
C101 O102 1.273 . S
O102 C101 1.273 . S
O103 Zn94 1.977 . S
O103 C96 1.267 . S
C104 O105 1.160 . S
C104 O111 1.185 . S
O105 C104 1.160 . S
O106 Zn107 1.899 . S
O106 C114 1.284 . S
Zn107 O106 1.899 . S
Zn107 O108 2.032 . S
Zn107 O111 2.086 . S
Zn107 O116 1.977 . S
O108 Zn107 2.032 . S
O108 C112 1.278 . S
C109 O110 1.203 . S
C109 O116 1.267 . S
O110 C109 1.203 . S
O111 C104 1.185 . S
O111 Zn107 2.086 . S
C112 O108 1.278 . S
C112 O113 1.211 . S
O113 C112 1.211 . S
C114 O106 1.284 . S
C114 O115 1.273 . S
O115 C114 1.273 . S
O116 Zn107 1.977 . S
O116 C109 1.267 . S
C117 O118 1.160 . S
C117 O124 1.185 . S
O118 C117 1.160 . S
O119 Zn120 1.899 . S
O119 C127 1.284 . S
Zn120 O119 1.899 . S
Zn120 O121 2.032 . S
Zn120 O124 2.086 . S
Zn120 O129 1.977 . S
O121 Zn120 2.032 . S
O121 C125 1.278 . S
C122 O123 1.203 . S
C122 O129 1.267 . S
O123 C122 1.203 . S
O124 C117 1.185 . S
O124 Zn120 2.086 . S
C125 O121 1.278 . S
C125 O126 1.211 . S
O126 C125 1.211 . S
C127 O119 1.284 . S
C127 O128 1.273 . S
O128 C127 1.273 . S
O129 Zn120 1.977 . S
O129 C122 1.267 . S
C130 O131 1.160 . S
C130 O137 1.185 . S
O131 C130 1.160 . S
O132 Zn133 1.899 . S
O132 C140 1.284 . S
Zn133 O132 1.899 . S
Zn133 O134 2.032 . S
Zn133 O137 2.086 . S
Zn133 O142 1.977 . S
O134 Zn133 2.032 . S
O134 C138 1.278 . S
C135 O136 1.203 . S
C135 O142 1.267 . S
O136 C135 1.203 . S
O137 C130 1.185 . S
O137 Zn133 2.086 . S
C138 O134 1.278 . S
C138 O139 1.211 . S
O139 C138 1.211 . S
C140 O132 1.284 . S
C140 O141 1.273 . S
O141 C140 1.273 . S
O142 Zn133 1.977 . S
O142 C135 1.267 . S
C143 O144 1.160 . S
C143 O150 1.185 . S
O144 C143 1.160 . S
O145 Zn146 1.899 . S
O145 C153 1.284 . S
Zn146 O145 1.899 . S
Zn146 O147 2.032 . S
Zn146 O150 2.086 . S
Zn146 O155 1.977 . S
O147 Zn146 2.032 . S
O147 C151 1.278 . S
C148 O149 1.203 . S
C148 O155 1.267 . S
O149 C148 1.203 . S
O150 C143 1.185 . S
O150 Zn146 2.086 . S
C151 O147 1.278 . S
C151 O152 1.211 . S
O152 C151 1.211 . S
C153 O145 1.284 . S
C153 O154 1.273 . S
O154 C153 1.273 . S
O155 Zn146 1.977 . S
O155 C148 1.267 . S
C156 O157 1.160 . S
C156 O163 1.185 . S
O157 C156 1.160 . S
O158 Zn159 1.899 . S
O158 C166 1.284 . S
Zn159 O158 1.899 . S
Zn159 O160 2.032 . S
Zn159 O163 2.086 . S
Zn159 O168 1.977 . S
O160 Zn159 2.032 . S
O160 C164 1.278 . S
C161 O162 1.203 . S
C161 O168 1.267 . S
O162 C161 1.203 . S
O163 C156 1.185 . S
O163 Zn159 2.086 . S
C164 O160 1.278 . S
C164 O165 1.211 . S
O165 C164 1.211 . S
C166 O158 1.284 . S
C166 O167 1.273 . S
O167 C166 1.273 . S
O168 Zn159 1.977 . S
O168 C161 1.267 . S
C169 O170 1.160 . S
C169 O176 1.185 . S
O170 C169 1.160 . S
O171 Zn172 1.899 . S
O171 C179 1.284 . S
Zn172 O171 1.899 . S
Zn172 O173 2.032 . S
Zn172 O176 2.086 . S
Zn172 O181 1.977 . S
O173 Zn172 2.032 . S
O173 C177 1.278 . S
C174 O175 1.203 . S
C174 O181 1.267 . S
O175 C174 1.203 . S
O176 C169 1.185 . S
O176 Zn172 2.086 . S
C177 O173 1.278 . S
C177 O178 1.211 . S
O178 C177 1.211 . S
C179 O171 1.284 . S
C179 O180 1.273 . S
O180 C179 1.273 . S
O181 Zn172 1.977 . S
O181 C174 1.267 . S
C182 O183 1.160 . S
C182 O189 1.185 . S
O183 C182 1.160 . S
O184 Zn185 1.899 . S
O184 C192 1.284 . S
Zn185 O184 1.899 . S
Zn185 O186 2.032 . S
Zn185 O189 2.086 . S
Zn185 O194 1.977 . S
O186 Zn185 2.032 . S
O186 C190 1.278 . S
C187 O188 1.203 . S
C187 O194 1.267 . S
O188 C187 1.203 . S
O189 C182 1.185 . S
O189 Zn185 2.086 . S
C190 O186 1.278 . S
C190 O191 1.211 . S
O191 C190 1.211 . S
C192 O184 1.284 . S
C192 O193 1.273 . S
O193 C192 1.273 . S
O194 Zn185 1.977 . S
O194 C187 1.267 . S
C195 O196 1.160 . S
C195 O202 1.185 . S
O196 C195 1.160 . S
O197 Zn198 1.899 . S
O197 C205 1.284 . S
Zn198 O197 1.899 . S
Zn198 O199 2.032 . S
Zn198 O202 2.086 . S
Zn198 O207 1.977 . S
O199 Zn198 2.032 . S
O199 C203 1.278 . S
C200 O201 1.203 . S
C200 O207 1.267 . S
O201 C200 1.203 . S
O202 C195 1.185 . S
O202 Zn198 2.086 . S
C203 O199 1.278 . S
C203 O204 1.211 . S
O204 C203 1.211 . S
C205 O197 1.284 . S
C205 O206 1.273 . S
O206 C205 1.273 . S
O207 Zn198 1.977 . S
O207 C200 1.267 . S
C208 C209 1.391 . S
C208 C210 1.394 . S
C208 H224 0.931 . S
C209 C208 1.391 . S
C209 C213 1.376 . S
C210 C208 1.394 . S
C210 C211 1.369 . S
C210 C214 1.531 . S
C211 C210 1.369 . S
C211 C212 1.410 . S
C211 C219 1.503 . S
C212 C211 1.410 . S
C212 C213 1.392 . S
C212 C215 1.511 . S
C213 C209 1.376 . S
C213 C212 1.392 . S
C213 H225 0.929 . S
C214 C210 1.531 . S
C214 H226 0.960 . S
C214 H227 0.962 . S
C214 H228 0.960 . S
C215 C212 1.511 . S
C215 H229 0.961 . S
C215 H230 0.961 . S
C215 H231 0.961 . S
C216 C217 1.370 . S
C216 C218 1.363 . S
C216 H232 0.931 . S
C217 C216 1.370 . S
C217 C221 1.408 . S
C218 C216 1.363 . S
C218 C219 1.370 . S
C218 C222 1.524 . S
C219 C211 1.503 . S
C219 C218 1.370 . S
C219 C220 1.403 . S
C220 C219 1.403 . S
C220 C221 1.404 . S
C220 C223 1.539 . S
C221 C217 1.408 . S
C221 C220 1.404 . S
C221 H233 0.930 . S
C222 C218 1.524 . S
C222 H234 0.956 . S
C222 H235 0.961 . S
C222 H236 0.961 . S
C223 C220 1.539 . S
C223 H237 0.958 . S
C223 H238 0.961 . S
C223 H239 0.960 . S
H224 C208 0.931 . S
H225 C213 0.929 . S
H226 C214 0.960 . S
H227 C214 0.962 . S
H228 C214 0.960 . S
H229 C215 0.961 . S
H230 C215 0.961 . S
H231 C215 0.961 . S
H232 C216 0.931 . S
H233 C221 0.930 . S
H234 C222 0.956 . S
H235 C222 0.961 . S
H236 C222 0.961 . S
H237 C223 0.958 . S
H238 C223 0.961 . S
H239 C223 0.960 . S
C240 C241 1.391 . S
C240 C242 1.418 . S
C240 H256 0.931 . S
C241 C240 1.391 . S
C241 C245 1.376 . S
C242 C240 1.418 . S
C242 C243 1.378 . S
C242 C246 1.497 1_655 S
C243 C242 1.378 . S
C243 C244 1.410 . S
C243 C251 1.503 1_665 S
C244 C243 1.410 . S
C244 C245 1.392 . S
C244 C247 1.511 1_565 S
C245 C241 1.376 . S
C245 C244 1.392 . S
C245 H257 0.929 . S
C246 C242 1.497 1_455 S
C246 H258 0.960 . S
C246 H259 0.962 . S
C246 H260 0.960 . S
C247 C244 1.511 1_545 S
C247 H261 0.961 . S
C247 H262 0.961 . S
C247 H263 0.961 1_545 S
C248 C249 1.370 . S
C248 C250 1.363 . S
C248 H264 0.931 . S
C249 C248 1.370 . S
C249 C253 1.408 . S
C250 C248 1.363 . S
C250 C251 1.370 . S
C250 C254 1.524 . S
C251 C243 1.503 1_445 S
C251 C250 1.370 . S
C251 C252 1.403 1_545 S
C252 C251 1.403 1_565 S
C252 C253 1.404 1_565 S
C252 C255 1.539 . S
C253 C249 1.408 . S
C253 C252 1.404 1_545 S
C253 H265 0.924 1_545 S
C254 C250 1.524 . S
C254 H266 0.956 . S
C254 H267 0.961 1_455 S
C254 H268 0.961 . S
C255 C252 1.539 . S
C255 H269 0.958 . S
C255 H270 0.961 . S
C255 H271 0.960 1_455 S
H256 C240 0.931 . S
H257 C245 0.929 . S
H258 C246 0.960 . S
H259 C246 0.962 . S
H260 C246 0.960 . S
H261 C247 0.961 . S
H262 C247 0.961 . S
H263 C247 0.961 1_565 S
H264 C248 0.931 . S
H265 C253 0.924 1_565 S
H266 C254 0.956 . S
H267 C254 0.961 1_655 S
H268 C254 0.961 . S
H269 C255 0.958 . S
H270 C255 0.961 . S
H271 C255 0.960 1_655 S
C272 C273 1.391 . S
C272 C274 1.394 1_565 S
C272 H288 0.931 1_565 S
C273 C272 1.391 . S
C273 C277 1.376 . S
C274 C272 1.394 1_545 S
C274 C275 1.369 1_545 S
C274 C278 1.531 . S
C275 C274 1.369 1_565 S
C275 C276 1.410 . S
C275 C283 1.503 1_565 S
C276 C275 1.410 . S
C276 C277 1.392 . S
C276 C279 1.511 . S
C277 C273 1.376 . S
C277 C276 1.392 . S
C277 H289 0.929 . S
C278 C274 1.531 . S
C278 H290 0.960 . S
C278 H291 0.962 . S
C278 H292 0.960 . S
C279 C276 1.511 . S
C279 H293 0.961 . S
C279 H294 0.961 . S
C279 H295 0.961 . S
C280 C281 1.370 . S
C280 C282 1.363 . S
C280 H296 0.931 . S
C281 C280 1.370 . S
C281 C285 1.408 . S
C282 C280 1.363 . S
C282 C283 1.370 . S
C282 C286 1.524 . S
C283 C275 1.503 1_545 S
C283 C282 1.370 . S
C283 C284 1.403 . S
C284 C283 1.403 . S
C284 C285 1.404 . S
C284 C287 1.539 . S
C285 C281 1.408 . S
C285 C284 1.404 . S
C285 H297 0.930 . S
C286 C282 1.524 . S
C286 H298 0.956 . S
C286 H299 0.961 1_545 S
C286 H300 0.961 . S
C287 C284 1.539 . S
C287 H301 0.958 . S
C287 H302 0.961 . S
C287 H303 0.960 1_545 S
H288 C272 0.931 1_545 S
H289 C277 0.929 . S
H290 C278 0.960 . S
H291 C278 0.962 . S
H292 C278 0.960 . S
H293 C279 0.961 . S
H294 C279 0.961 . S
H295 C279 0.961 . S
H296 C280 0.931 . S
H297 C285 0.930 . S
H298 C286 0.956 . S
H299 C286 0.961 1_565 S
H300 C286 0.961 . S
H301 C287 0.958 . S
H302 C287 0.961 . S
H303 C287 0.960 1_565 S
C304 C305 1.391 . S
C304 C306 1.394 . S
C304 H320 0.931 . S
C305 C304 1.391 . S
C305 C309 1.376 . S
C306 C304 1.394 . S
C306 C307 1.369 . S
C306 C310 1.531 1_455 S
C307 C306 1.369 . S
C307 C308 1.410 . S
C307 C315 1.503 1_455 S
C308 C307 1.410 . S
C308 C309 1.392 . S
C308 C311 1.511 . S
C309 C305 1.376 . S
C309 C308 1.392 . S
C309 H321 0.929 . S
C310 C306 1.531 1_655 S
C310 H322 0.960 . S
C310 H323 0.962 . S
C310 H324 0.960 . S
C311 C308 1.511 . S
C311 H325 0.961 . S
C311 H326 0.961 . S
C311 H327 0.961 . S
C312 C313 1.370 . S
C312 C314 1.363 . S
C312 H328 0.931 . S
C313 C312 1.370 . S
C313 C317 1.408 . S
C314 C312 1.363 . S
C314 C315 1.370 . S
C314 C318 1.524 . S
C315 C307 1.503 1_655 S
C315 C314 1.370 . S
C315 C316 1.403 . S
C316 C315 1.403 . S
C316 C317 1.404 . S
C316 C319 1.539 . S
C317 C313 1.408 . S
C317 C316 1.404 . S
C317 H329 0.930 . S
C318 C314 1.524 . S
C318 H330 0.956 . S
C318 H331 0.961 1_655 S
C318 H332 0.961 . S
C319 C316 1.539 . S
C319 H333 0.958 . S
C319 H334 0.961 . S
C319 H335 0.960 1_655 S
H320 C304 0.931 . S
H321 C309 0.929 . S
H322 C310 0.960 . S
H323 C310 0.962 . S
H324 C310 0.960 . S
H325 C311 0.961 . S
H326 C311 0.961 . S
H327 C311 0.961 . S
H328 C312 0.931 . S
H329 C317 0.930 . S
H330 C318 0.956 . S
H331 C318 0.961 1_455 S
H332 C318 0.961 . S
H333 C319 0.958 . S
H334 C319 0.961 . S
H335 C319 0.960 1_455 S
C336 C337 1.391 . S
C336 C338 1.394 . S
C336 H352 0.931 . S
C337 C336 1.391 . S
C337 C341 1.376 . S
C338 C336 1.394 . S
C338 C339 1.369 . S
C338 C342 1.531 . S
C339 C338 1.369 . S
C339 C340 1.410 . S
C339 C347 1.503 . S
C340 C339 1.410 . S
C340 C341 1.392 . S
C340 C343 1.511 . S
C341 C337 1.376 . S
C341 C340 1.392 . S
C341 H353 0.929 . S
C342 C338 1.531 . S
C342 H354 0.960 . S
C342 H355 0.962 . S
C342 H356 0.960 . S
C343 C340 1.511 . S
C343 H357 0.961 . S
C343 H358 0.961 . S
C343 H359 0.961 . S
C344 C345 1.370 . S
C344 C346 1.363 . S
C344 H360 0.931 . S
C345 C344 1.370 . S
C345 C349 1.408 . S
C346 C344 1.363 . S
C346 C347 1.370 . S
C346 C350 1.524 . S
C347 C339 1.503 . S
C347 C346 1.370 . S
C347 C348 1.403 . S
C348 C347 1.403 . S
C348 C349 1.404 . S
C348 C351 1.539 . S
C349 C345 1.408 . S
C349 C348 1.404 . S
C349 H361 0.930 . S
C350 C346 1.524 . S
C350 H362 0.956 . S
C350 H363 0.961 . S
C350 H364 0.961 . S
C351 C348 1.539 . S
C351 H365 0.958 . S
C351 H366 0.961 . S
C351 H367 0.960 . S
H352 C336 0.931 . S
H353 C341 0.929 . S
H354 C342 0.960 . S
H355 C342 0.962 . S
H356 C342 0.960 . S
H357 C343 0.961 . S
H358 C343 0.961 . S
H359 C343 0.961 . S
H360 C344 0.931 . S
H361 C349 0.930 . S
H362 C350 0.956 . S
H363 C350 0.961 . S
H364 C350 0.961 . S
H365 C351 0.958 . S
H366 C351 0.961 . S
H367 C351 0.960 . S
C368 C369 1.391 . S
C368 C370 1.394 . S
C368 H384 0.931 . S
C369 C368 1.391 . S
C369 C373 1.376 . S
C370 C368 1.394 . S
C370 C371 1.369 . S
C370 C374 1.531 . S
C371 C370 1.369 . S
C371 C372 1.410 1_545 S
C371 C379 1.503 1_545 S
C372 C371 1.410 1_565 S
C372 C373 1.392 1_565 S
C372 C375 1.511 . S
C373 C369 1.376 . S
C373 C372 1.392 1_545 S
C373 H385 0.929 1_545 S
C374 C370 1.531 . S
C374 H386 0.960 . S
C374 H387 0.962 . S
C374 H388 0.960 . S
C375 C372 1.511 . S
C375 H389 0.961 . S
C375 H390 0.961 . S
C375 H391 0.961 . S
C376 C377 1.370 . S
C376 C378 1.363 . S
C376 H392 0.931 . S
C377 C376 1.370 . S
C377 C381 1.408 . S
C378 C376 1.363 . S
C378 C379 1.370 . S
C378 C382 1.524 1_565 S
C379 C371 1.503 1_565 S
C379 C378 1.370 . S
C379 C380 1.403 . S
C380 C379 1.403 . S
C380 C381 1.404 . S
C380 C383 1.539 . S
C381 C377 1.408 . S
C381 C380 1.404 . S
C381 H393 0.930 . S
C382 C378 1.524 1_545 S
C382 H394 0.956 . S
C382 H395 0.963 . S
C382 H396 0.961 . S
C383 C380 1.539 . S
C383 H397 0.958 . S
C383 H398 0.961 . S
C383 H399 0.960 . S
H384 C368 0.931 . S
H385 C373 0.929 1_565 S
H386 C374 0.960 . S
H387 C374 0.962 . S
H388 C374 0.960 . S
H389 C375 0.961 . S
H390 C375 0.961 . S
H391 C375 0.961 . S
H392 C376 0.931 . S
H393 C381 0.930 . S
H394 C382 0.956 . S
H395 C382 0.963 . S
H396 C382 0.961 . S
H397 C383 0.958 . S
H398 C383 0.961 . S
H399 C383 0.960 . S
C400 C401 1.391 . S
C400 C402 1.394 . S
C400 H416 0.931 . S
C401 C400 1.391 . S
C401 C405 1.376 . S
C402 C400 1.394 . S
C402 C403 1.369 . S
C402 C406 1.531 . S
C403 C402 1.369 . S
C403 C404 1.410 . S
C403 C411 1.503 1_655 S
C404 C403 1.410 . S
C404 C405 1.392 . S
C404 C407 1.511 1_655 S
C405 C401 1.376 . S
C405 C404 1.392 . S
C405 H417 0.929 . S
C406 C402 1.531 . S
C406 H418 0.960 . S
C406 H419 0.962 . S
C406 H420 0.960 . S
C407 C404 1.511 1_455 S
C407 H421 0.961 . S
C407 H422 0.961 . S
C407 H423 0.961 . S
C408 C409 1.370 . S
C408 C410 1.363 . S
C408 H424 0.931 . S
C409 C408 1.370 . S
C409 C413 1.408 . S
C410 C408 1.363 . S
C410 C411 1.370 . S
C410 C414 1.524 . S
C411 C403 1.503 1_455 S
C411 C410 1.370 . S
C411 C412 1.403 . S
C412 C411 1.403 . S
C412 C413 1.404 . S
C412 C415 1.539 . S
C413 C409 1.408 . S
C413 C412 1.404 . S
C413 H425 0.930 . S
C414 C410 1.524 . S
C414 H426 0.956 1_455 S
C414 H427 0.961 . S
C414 H428 0.961 . S
C415 C412 1.539 . S
C415 H429 0.958 . S
C415 H430 0.961 . S
C415 H431 0.960 . S
H416 C400 0.931 . S
H417 C405 0.929 . S
H418 C406 0.960 . S
H419 C406 0.962 . S
H420 C406 0.960 . S
H421 C407 0.961 . S
H422 C407 0.961 . S
H423 C407 0.961 . S
H424 C408 0.931 . S
H425 C413 0.930 . S
H426 C414 0.956 1_655 S
H427 C414 0.961 . S
H428 C414 0.961 . S
H429 C415 0.958 . S
H430 C415 0.961 . S
H431 C415 0.960 . S
C432 C433 1.391 . S
C432 C434 1.394 . S
C432 H448 0.931 . S
C433 C432 1.391 . S
C433 C437 1.376 . S
C434 C432 1.394 . S
C434 C435 1.369 . S
C434 C438 1.531 1_554 S
C435 C434 1.369 . S
C435 C436 1.410 . S
C435 C443 1.503 1_554 S
C436 C435 1.410 . S
C436 C437 1.392 . S
C436 C439 1.511 . S
C437 C433 1.376 . S
C437 C436 1.392 . S
C437 H449 0.929 . S
C438 C434 1.531 1_556 S
C438 H450 0.960 . S
C438 H451 0.962 . S
C438 H452 0.960 . S
C439 C436 1.511 . S
C439 H453 0.961 . S
C439 H454 0.961 . S
C439 H455 0.961 . S
C440 C441 1.370 . S
C440 C442 1.378 . S
C440 H456 0.931 . S
C441 C440 1.370 . S
C441 C445 1.408 . S
C442 C440 1.378 . S
C442 C443 1.385 . S
C442 C446 1.496 1_556 S
C443 C435 1.503 1_556 S
C443 C442 1.385 . S
C443 C444 1.403 . S
C444 C443 1.403 . S
C444 C445 1.404 . S
C444 C447 1.539 . S
C445 C441 1.408 . S
C445 C444 1.404 . S
C445 H457 0.930 . S
C446 C442 1.496 1_554 S
C446 H458 0.956 . S
C446 H459 0.961 . S
C446 H460 0.961 . S
C447 C444 1.539 . S
C447 H461 0.958 . S
C447 H462 0.961 . S
C447 H463 0.960 . S
H448 C432 0.931 . S
H449 C437 0.929 . S
H450 C438 0.960 . S
H451 C438 0.962 . S
H452 C438 0.960 . S
H453 C439 0.961 . S
H454 C439 0.961 . S
H455 C439 0.961 . S
H456 C440 0.931 . S
H457 C445 0.930 . S
H458 C446 0.956 . S
H459 C446 0.961 . S
H460 C446 0.961 . S
H461 C447 0.958 . S
H462 C447 0.961 . S
H463 C447 0.960 . S
C464 C465 1.391 . S
C464 C466 1.394 . S
C464 H480 0.931 . S
C465 C464 1.391 . S
C465 C469 1.376 . S
C466 C464 1.394 . S
C466 C467 1.369 . S
C466 C470 1.531 . S
C467 C466 1.369 . S
C467 C468 1.410 . S
C467 C475 1.503 1_456 S
C468 C467 1.410 . S
C468 C469 1.392 . S
C468 C471 1.511 1_456 S
C469 C465 1.376 . S
C469 C468 1.392 . S
C469 H481 0.929 . S
C470 C466 1.531 . S
C470 H482 0.960 1_556 S
C470 H483 0.962 . S
C470 H484 0.960 . S
C471 C468 1.511 1_654 S
C471 H485 0.961 1_554 S
C471 H486 0.961 . S
C471 H487 0.961 . S
C472 C473 1.370 . S
C472 C474 1.363 1_554 S
C472 H488 0.955 . S
C473 C472 1.370 . S
C473 C477 1.408 . S
C474 C472 1.363 1_556 S
C474 C475 1.370 1_556 S
C474 C478 1.524 . S
C475 C467 1.503 1_654 S
C475 C474 1.370 1_554 S
C475 C476 1.403 . S
C476 C475 1.403 . S
C476 C477 1.404 . S
C476 C479 1.539 1_655 S
C477 C473 1.408 . S
C477 C476 1.404 . S
C477 H489 0.930 . S
C478 C474 1.524 . S
C478 H490 0.956 . S
C478 H491 0.961 . S
C478 H492 0.961 . S
C479 C476 1.539 1_455 S
C479 H493 0.958 . S
C479 H494 0.961 . S
C479 H495 0.960 . S
H480 C464 0.931 . S
H481 C469 0.929 . S
H482 C470 0.960 1_554 S
H483 C470 0.962 . S
H484 C470 0.960 . S
H485 C471 0.961 1_556 S
H486 C471 0.961 . S
H487 C471 0.961 . S
H488 C472 0.955 . S
H489 C477 0.930 . S
H490 C478 0.956 . S
H491 C478 0.961 . S
H492 C478 0.961 . S
H493 C479 0.958 . S
H494 C479 0.961 . S
H495 C479 0.960 . S
C496 C497 1.391 . S
C496 C498 1.394 . S
C496 H512 0.931 . S
C497 C496 1.391 . S
C497 C501 1.376 . S
C498 C496 1.394 . S
C498 C499 1.369 . S
C498 C502 1.531 . S
C499 C498 1.369 . S
C499 C500 1.410 . S
C499 C507 1.503 . S
C500 C499 1.410 . S
C500 C501 1.392 . S
C500 C503 1.511 . S
C501 C497 1.376 . S
C501 C500 1.392 . S
C501 H513 0.929 . S
C502 C498 1.531 . S
C502 H514 0.960 . S
C502 H515 0.962 . S
C502 H516 0.960 . S
C503 C500 1.511 . S
C503 H517 0.961 . S
C503 H518 0.961 . S
C503 H519 0.961 . S
C504 C505 1.370 . S
C504 C506 1.363 . S
C504 H520 0.931 . S
C505 C504 1.370 . S
C505 C509 1.408 . S
C506 C504 1.363 . S
C506 C507 1.370 . S
C506 C510 1.524 . S
C507 C499 1.503 . S
C507 C506 1.370 . S
C507 C508 1.403 . S
C508 C507 1.403 . S
C508 C509 1.404 . S
C508 C511 1.539 . S
C509 C505 1.408 . S
C509 C508 1.404 . S
C509 H521 0.930 . S
C510 C506 1.524 . S
C510 H522 0.956 . S
C510 H523 0.961 . S
C510 H524 0.961 . S
C511 C508 1.539 . S
C511 H525 0.958 . S
C511 H526 0.961 . S
C511 H527 0.960 . S
H512 C496 0.931 . S
H513 C501 0.929 . S
H514 C502 0.960 . S
H515 C502 0.962 . S
H516 C502 0.960 . S
H517 C503 0.961 . S
H518 C503 0.961 . S
H519 C503 0.961 . S
H520 C504 0.931 . S
H521 C509 0.930 . S
H522 C510 0.956 . S
H523 C510 0.961 . S
H524 C510 0.961 . S
H525 C511 0.958 . S
H526 C511 0.961 . S
H527 C511 0.960 . S
C528 C529 1.391 . S
C528 C530 1.394 1_556 S
C528 H544 0.931 . S
C529 C528 1.391 . S
C529 C533 1.376 . S
C530 C528 1.394 1_554 S
C530 C531 1.369 1_554 S
C530 C534 1.531 . S
C531 C530 1.369 1_556 S
C531 C532 1.410 . S
C531 C539 1.503 1_556 S
C532 C531 1.410 . S
C532 C533 1.392 . S
C532 C535 1.511 . S
C533 C529 1.376 . S
C533 C532 1.392 . S
C533 H545 0.929 . S
C534 C530 1.531 . S
C534 H546 0.960 . S
C534 H547 0.962 . S
C534 H548 0.960 . S
C535 C532 1.511 . S
C535 H549 0.961 . S
C535 H550 0.961 . S
C535 H551 0.961 . S
C536 C537 1.370 . S
C536 C538 1.363 . S
C536 H552 0.931 . S
C537 C536 1.370 . S
C537 C541 1.408 . S
C538 C536 1.363 . S
C538 C539 1.370 . S
C538 C542 1.524 . S
C539 C531 1.503 1_554 S
C539 C538 1.370 . S
C539 C540 1.403 . S
C540 C539 1.403 . S
C540 C541 1.404 . S
C540 C543 1.539 . S
C541 C537 1.408 . S
C541 C540 1.404 . S
C541 H553 0.930 . S
C542 C538 1.524 . S
C542 H554 0.956 . S
C542 H555 0.961 1_554 S
C542 H556 0.961 . S
C543 C540 1.539 . S
C543 H557 0.958 . S
C543 H558 0.961 . S
C543 H559 0.960 1_554 S
H544 C528 0.931 . S
H545 C533 0.929 . S
H546 C534 0.960 . S
H547 C534 0.962 . S
H548 C534 0.960 . S
H549 C535 0.961 . S
H550 C535 0.961 . S
H551 C535 0.961 . S
H552 C536 0.931 . S
H553 C541 0.930 . S
H554 C542 0.956 . S
H555 C542 0.961 1_556 S
H556 C542 0.961 . S
H557 C543 0.958 . S
H558 C543 0.961 . S
H559 C543 0.960 1_556 S
C560 C561 1.391 . S
C560 C562 1.394 . S
C560 H576 0.931 . S
C561 C560 1.391 . S
C561 C565 1.376 . S
C562 C560 1.394 . S
C562 C563 1.369 . S
C562 C566 1.531 . S
C563 C562 1.369 . S
C563 C564 1.410 . S
C563 C571 1.503 . S
C564 C563 1.410 . S
C564 C565 1.392 . S
C564 C567 1.511 . S
C565 C561 1.376 . S
C565 C564 1.392 . S
C565 H577 0.929 . S
C566 C562 1.531 . S
C566 H578 0.960 . S
C566 H579 0.962 . S
C566 H580 0.960 . S
C567 C564 1.511 . S
C567 H581 0.961 . S
C567 H582 0.961 . S
C567 H583 0.961 . S
C568 C569 1.370 . S
C568 C570 1.363 . S
C568 H584 0.931 . S
C569 C568 1.370 . S
C569 C573 1.408 . S
C570 C568 1.363 . S
C570 C571 1.370 . S
C570 C574 1.524 . S
C571 C563 1.503 . S
C571 C570 1.370 . S
C571 C572 1.403 . S
C572 C571 1.403 . S
C572 C573 1.404 . S
C572 C575 1.539 . S
C573 C569 1.408 . S
C573 C572 1.404 . S
C573 H585 0.930 . S
C574 C570 1.524 . S
C574 H586 0.956 . S
C574 H587 0.961 . S
C574 H588 0.961 . S
C575 C572 1.539 . S
C575 H589 0.958 . S
C575 H590 0.961 . S
C575 H591 0.960 . S
H576 C560 0.931 . S
H577 C565 0.929 . S
H578 C566 0.960 . S
H579 C566 0.962 . S
H580 C566 0.960 . S
H581 C567 0.961 . S
H582 C567 0.961 . S
H583 C567 0.961 . S
H584 C568 0.931 . S
H585 C573 0.930 . S
H586 C574 0.956 . S
H587 C574 0.961 . S
H588 C574 0.961 . S
H589 C575 0.958 . S
H590 C575 0.961 . S
H591 C575 0.960 . S
C592 C593 1.391 . S
C592 C594 1.394 1_556 S
C592 H608 0.931 . S
C593 C592 1.391 . S
C593 C597 1.376 . S
C594 C592 1.394 1_554 S
C594 C595 1.369 1_554 S
C594 C598 1.531 . S
C595 C594 1.369 1_556 S
C595 C596 1.410 . S
C595 C603 1.503 1_546 S
C596 C595 1.410 . S
C596 C597 1.392 . S
C596 C599 1.511 . S
C597 C593 1.376 . S
C597 C596 1.392 . S
C597 H609 0.929 . S
C598 C594 1.531 . S
C598 H610 0.960 . S
C598 H611 0.962 1_545 S
C598 H612 0.960 . S
C599 C596 1.511 . S
C599 H613 0.961 . S
C599 H614 0.961 . S
C599 H615 0.961 . S
C600 C601 1.370 . S
C600 C602 1.363 . S
C600 H616 0.931 . S
C601 C600 1.370 . S
C601 C605 1.408 . S
C602 C600 1.363 . S
C602 C603 1.370 . S
C602 C606 1.524 1_554 S
C603 C595 1.503 1_564 S
C603 C602 1.370 . S
C603 C604 1.403 1_565 S
C604 C603 1.403 1_545 S
C604 C605 1.404 1_545 S
C604 C607 1.539 . S
C605 C601 1.408 . S
C605 C604 1.404 1_565 S
C605 H617 0.930 1_565 S
C606 C602 1.524 1_556 S
C606 H618 0.956 . S
C606 H619 0.961 . S
C606 H620 0.961 . S
C607 C604 1.539 . S
C607 H621 0.958 . S
C607 H622 0.961 . S
C607 H623 0.960 . S
H608 C592 0.931 . S
H609 C597 0.929 . S
H610 C598 0.960 . S
H611 C598 0.962 1_565 S
H612 C598 0.960 . S
H613 C599 0.961 . S
H614 C599 0.961 . S
H615 C599 0.961 . S
H616 C600 0.931 . S
H617 C605 0.930 1_545 S
H618 C606 0.956 . S
H619 C606 0.961 . S
H620 C606 0.961 . S
H621 C607 0.958 . S
H622 C607 0.961 . S
H623 C607 0.960 . S
C624 C625 1.391 . S
C624 C626 1.394 . S
C624 H640 0.931 . S
C625 C624 1.391 . S
C625 C629 1.376 . S
C626 C624 1.394 . S
C626 C627 1.369 . S
C626 C630 1.531 . S
C627 C626 1.369 . S
C627 C628 1.410 . S
C627 C635 1.503 . S
C628 C627 1.410 . S
C628 C629 1.392 . S
C628 C631 1.511 . S
C629 C625 1.376 . S
C629 C628 1.392 . S
C629 H641 0.929 . S
C630 C626 1.531 . S
C630 H642 0.960 . S
C630 H643 0.962 . S
C630 H644 0.960 . S
C631 C628 1.511 . S
C631 H645 0.961 . S
C631 H646 0.961 . S
C631 H647 0.961 . S
C632 C633 1.370 . S
C632 C634 1.363 . S
C632 H648 0.931 . S
C633 C632 1.370 . S
C633 C637 1.408 . S
C634 C632 1.363 . S
C634 C635 1.370 . S
C634 C638 1.524 . S
C635 C627 1.503 . S
C635 C634 1.370 . S
C635 C636 1.403 . S
C636 C635 1.403 . S
C636 C637 1.404 . S
C636 C639 1.539 . S
C637 C633 1.408 . S
C637 C636 1.404 . S
C637 H649 0.930 . S
C638 C634 1.524 . S
C638 H650 0.956 . S
C638 H651 0.961 . S
C638 H652 0.961 . S
C639 C636 1.539 . S
C639 H653 0.958 . S
C639 H654 0.961 . S
C639 H655 0.960 . S
H640 C624 0.931 . S
H641 C629 0.929 . S
H642 C630 0.960 . S
H643 C630 0.962 . S
H644 C630 0.960 . S
H645 C631 0.961 . S
H646 C631 0.961 . S
H647 C631 0.961 . S
H648 C632 0.931 . S
H649 C637 0.930 . S
H650 C638 0.956 . S
H651 C638 0.961 . S
H652 C638 0.961 . S
H653 C639 0.958 . S
H654 C639 0.961 . S
H655 C639 0.960 . S
C656 C657 1.391 . S
C656 C658 1.394 . S
C656 H672 0.931 . S
C657 C656 1.391 . S
C657 C661 1.376 . S
C658 C656 1.394 . S
C658 C659 1.369 . S
C658 C662 1.531 . S
C659 C658 1.369 . S
C659 C660 1.410 . S
C659 C667 1.503 . S
C660 C659 1.410 . S
C660 C661 1.392 . S
C660 C663 1.511 . S
C661 C657 1.376 . S
C661 C660 1.392 . S
C661 H673 0.929 . S
C662 C658 1.531 . S
C662 H674 0.960 . S
C662 H675 0.962 . S
C662 H676 0.960 . S
C663 C660 1.511 . S
C663 H677 0.961 . S
C663 H678 0.961 . S
C663 H679 0.961 . S
C664 C665 1.370 . S
C664 C666 1.363 . S
C664 H680 0.931 . S
C665 C664 1.370 . S
C665 C669 1.408 . S
C666 C664 1.363 . S
C666 C667 1.370 . S
C666 C670 1.524 . S
C667 C659 1.503 . S
C667 C666 1.370 . S
C667 C668 1.403 . S
C668 C667 1.403 . S
C668 C669 1.404 . S
C668 C671 1.539 . S
C669 C665 1.408 . S
C669 C668 1.404 . S
C669 H681 0.930 . S
C670 C666 1.524 . S
C670 H682 0.956 . S
C670 H683 0.961 . S
C670 H684 0.961 . S
C671 C668 1.539 . S
C671 H685 0.958 . S
C671 H686 0.961 . S
C671 H687 0.960 . S
H672 C656 0.931 . S
H673 C661 0.929 . S
H674 C662 0.960 . S
H675 C662 0.962 . S
H676 C662 0.960 . S
H677 C663 0.961 . S
H678 C663 0.961 . S
H679 C663 0.961 . S
H680 C664 0.931 . S
H681 C669 0.930 . S
H682 C670 0.956 . S
H683 C670 0.961 . S
H684 C670 0.961 . S
H685 C671 0.958 . S
H686 C671 0.961 . S
H687 C671 0.960 . S
C688 C689 1.391 . S
C688 C690 1.394 . S
C688 H704 0.931 . S
C689 C688 1.391 . S
C689 C693 1.376 . S
C690 C688 1.394 . S
C690 C691 1.369 . S
C690 C694 1.531 . S
C691 C690 1.369 . S
C691 C692 1.410 . S
C691 C699 1.503 . S
C692 C691 1.410 . S
C692 C693 1.392 . S
C692 C695 1.511 . S
C693 C689 1.376 . S
C693 C692 1.392 . S
C693 H705 0.929 . S
C694 C690 1.531 . S
C694 H706 0.960 . S
C694 H707 0.962 . S
C694 H708 0.960 . S
C695 C692 1.511 . S
C695 H709 0.961 . S
C695 H710 0.961 . S
C695 H711 0.961 . S
C696 C697 1.370 . S
C696 C698 1.363 . S
C696 H712 0.931 . S
C697 C696 1.370 . S
C697 C701 1.408 . S
C698 C696 1.363 . S
C698 C699 1.370 . S
C698 C702 1.524 . S
C699 C691 1.503 . S
C699 C698 1.370 . S
C699 C700 1.403 . S
C700 C699 1.403 . S
C700 C701 1.404 . S
C700 C703 1.539 . S
C701 C697 1.408 . S
C701 C700 1.404 . S
C701 H713 0.930 . S
C702 C698 1.524 . S
C702 H714 0.956 . S
C702 H715 0.961 . S
C702 H716 0.961 . S
C703 C700 1.539 . S
C703 H717 0.958 . S
C703 H718 0.961 . S
C703 H719 0.960 . S
H704 C688 0.931 . S
H705 C693 0.929 . S
H706 C694 0.960 . S
H707 C694 0.962 . S
H708 C694 0.960 . S
H709 C695 0.961 . S
H710 C695 0.961 . S
H711 C695 0.961 . S
H712 C696 0.931 . S
H713 C701 0.930 . S
H714 C702 0.956 . S
H715 C702 0.961 . S
H716 C702 0.961 . S
H717 C703 0.958 . S
H718 C703 0.961 . S
H719 C703 0.960 . S
C720 C721 1.391 . S
C720 C722 1.394 . S
C720 H736 0.931 . S
C721 C720 1.391 . S
C721 C725 1.376 . S
C722 C720 1.394 . S
C722 C723 1.369 . S
C722 C726 1.531 . S
C723 C722 1.369 . S
C723 C724 1.410 . S
C723 C731 1.503 . S
C724 C723 1.410 . S
C724 C725 1.392 . S
C724 C727 1.511 . S
C725 C721 1.376 . S
C725 C724 1.392 . S
C725 H737 0.929 . S
C726 C722 1.531 . S
C726 H738 0.960 . S
C726 H739 0.962 . S
C726 H740 0.960 . S
C727 C724 1.511 . S
C727 H741 0.961 . S
C727 H742 0.961 . S
C727 H743 0.961 . S
C728 C729 1.370 1_565 S
C728 C730 1.363 . S
C728 H744 0.931 1_565 S
C729 C728 1.370 1_545 S
C729 C733 1.408 1_545 S
C730 C728 1.363 . S
C730 C731 1.370 . S
C730 C734 1.524 . S
C731 C723 1.503 . S
C731 C730 1.370 . S
C731 C732 1.403 . S
C732 C731 1.403 . S
C732 C733 1.404 . S
C732 C735 1.539 . S
C733 C729 1.408 1_565 S
C733 C732 1.404 . S
C733 H745 0.935 . S
C734 C730 1.524 . S
C734 H746 0.956 . S
C734 H747 0.961 . S
C734 H748 0.961 . S
C735 C732 1.539 . S
C735 H749 0.958 . S
C735 H750 0.961 . S
C735 H751 0.960 . S
H736 C720 0.931 . S
H737 C725 0.929 . S
H738 C726 0.960 . S
H739 C726 0.962 . S
H740 C726 0.960 . S
H741 C727 0.961 . S
H742 C727 0.961 . S
H743 C727 0.961 . S
H744 C728 0.931 1_545 S
H745 C733 0.935 . S
H746 C734 0.956 . S
H747 C734 0.961 . S
H748 C734 0.961 . S
H749 C735 0.958 . S
H750 C735 0.961 . S
H751 C735 0.960 . S
C752 C753 1.391 . S
C752 C754 1.394 . S
C752 H768 0.931 . S
C753 C752 1.391 . S
C753 C757 1.376 . S
C754 C752 1.394 . S
C754 C755 1.369 . S
C754 C758 1.531 . S
C755 C754 1.369 . S
C755 C756 1.410 . S
C755 C763 1.503 . S
C756 C755 1.410 . S
C756 C757 1.392 . S
C756 C759 1.511 . S
C757 C753 1.376 . S
C757 C756 1.392 . S
C757 H769 0.929 . S
C758 C754 1.531 . S
C758 H770 0.960 . S
C758 H771 0.962 . S
C758 H772 0.960 . S
C759 C756 1.511 . S
C759 H773 0.961 . S
C759 H774 0.961 . S
C759 H775 0.961 . S
C760 C761 1.370 . S
C760 C762 1.363 . S
C760 H776 0.931 . S
C761 C760 1.370 . S
C761 C765 1.408 . S
C762 C760 1.363 . S
C762 C763 1.370 . S
C762 C766 1.524 . S
C763 C755 1.503 . S
C763 C762 1.370 . S
C763 C764 1.403 . S
C764 C763 1.403 . S
C764 C765 1.404 . S
C764 C767 1.539 . S
C765 C761 1.408 . S
C765 C764 1.404 . S
C765 H777 0.930 . S
C766 C762 1.524 . S
C766 H778 0.956 . S
C766 H779 0.961 . S
C766 H780 0.961 . S
C767 C764 1.539 . S
C767 H781 0.958 . S
C767 H782 0.961 . S
C767 H783 0.960 . S
H768 C752 0.931 . S
H769 C757 0.929 . S
H770 C758 0.960 . S
H771 C758 0.962 . S
H772 C758 0.960 . S
H773 C759 0.961 . S
H774 C759 0.961 . S
H775 C759 0.961 . S
H776 C760 0.931 . S
H777 C765 0.930 . S
H778 C766 0.956 . S
H779 C766 0.961 . S
H780 C766 0.961 . S
H781 C767 0.958 . S
H782 C767 0.961 . S
H783 C767 0.960 . S
C784 C785 1.391 . S
C784 C786 1.394 . S
C784 H800 0.931 . S
C785 C784 1.391 . S
C785 C789 1.376 . S
C786 C784 1.394 . S
C786 C787 1.369 . S
C786 C790 1.531 . S
C787 C786 1.369 . S
C787 C788 1.410 . S
C787 C795 1.503 . S
C788 C787 1.410 . S
C788 C789 1.392 . S
C788 C791 1.511 . S
C789 C785 1.376 . S
C789 C788 1.392 . S
C789 H801 0.929 . S
C790 C786 1.531 . S
C790 H802 0.960 . S
C790 H803 0.962 . S
C790 H804 0.960 . S
C791 C788 1.511 . S
C791 H805 0.961 . S
C791 H806 0.961 . S
C791 H807 0.961 . S
C792 C793 1.370 . S
C792 C794 1.363 . S
C792 H808 0.931 . S
C793 C792 1.370 . S
C793 C797 1.408 . S
C794 C792 1.363 . S
C794 C795 1.370 . S
C794 C798 1.524 . S
C795 C787 1.503 . S
C795 C794 1.370 . S
C795 C796 1.403 . S
C796 C795 1.403 . S
C796 C797 1.404 . S
C796 C799 1.539 . S
C797 C793 1.408 . S
C797 C796 1.404 . S
C797 H809 0.930 . S
C798 C794 1.524 . S
C798 H810 0.956 . S
C798 H811 0.961 . S
C798 H812 0.961 . S
C799 C796 1.539 . S
C799 H813 0.958 . S
C799 H814 0.961 . S
C799 H815 0.960 . S
H800 C784 0.931 . S
H801 C789 0.929 . S
H802 C790 0.960 . S
H803 C790 0.962 . S
H804 C790 0.960 . S
H805 C791 0.961 . S
H806 C791 0.961 . S
H807 C791 0.961 . S
H808 C792 0.931 . S
H809 C797 0.930 . S
H810 C798 0.956 . S
H811 C798 0.961 . S
H812 C798 0.961 . S
H813 C799 0.958 . S
H814 C799 0.961 . S
H815 C799 0.960 . S
C816 C817 1.391 . S
C816 C818 1.394 . S
C816 H832 0.931 . S
C817 C816 1.391 . S
C817 C821 1.376 . S
C818 C816 1.394 . S
C818 C819 1.369 . S
C818 C822 1.531 . S
C819 C818 1.369 . S
C819 C820 1.410 . S
C819 C827 1.503 . S
C820 C819 1.410 . S
C820 C821 1.392 . S
C820 C823 1.511 . S
C821 C817 1.376 . S
C821 C820 1.392 . S
C821 H833 0.929 . S
C822 C818 1.531 . S
C822 H834 0.960 . S
C822 H835 0.962 . S
C822 H836 0.960 . S
C823 C820 1.511 . S
C823 H837 0.961 . S
C823 H838 0.961 . S
C823 H839 0.961 . S
C824 C825 1.370 . S
C824 C826 1.363 1_545 S
C824 H840 0.931 . S
C825 C824 1.370 . S
C825 C829 1.408 1_545 S
C826 C824 1.363 1_565 S
C826 C827 1.370 . S
C826 C830 1.524 . S
C827 C819 1.503 . S
C827 C826 1.370 . S
C827 C828 1.403 . S
C828 C827 1.403 . S
C828 C829 1.404 . S
C828 C831 1.539 . S
C829 C825 1.408 1_565 S
C829 C828 1.404 . S
C829 H841 0.930 . S
C830 C826 1.524 . S
C830 H842 0.956 . S
C830 H843 0.961 . S
C830 H844 0.961 1_565 S
C831 C828 1.539 . S
C831 H845 0.958 . S
C831 H846 0.961 . S
C831 H847 0.960 . S
H832 C816 0.931 . S
H833 C821 0.929 . S
H834 C822 0.960 . S
H835 C822 0.962 . S
H836 C822 0.960 . S
H837 C823 0.961 . S
H838 C823 0.961 . S
H839 C823 0.961 . S
H840 C824 0.931 . S
H841 C829 0.930 . S
H842 C830 0.956 . S
H843 C830 0.961 . S
H844 C830 0.961 1_545 S
H845 C831 0.958 . S
H846 C831 0.961 . S
H847 C831 0.960 . S
C848 C849 1.391 . S
C848 C850 1.394 . S
C848 H864 0.931 . S
C849 C848 1.391 . S
C849 C853 1.376 . S
C850 C848 1.394 . S
C850 C851 1.369 . S
C850 C854 1.531 . S
C851 C850 1.369 . S
C851 C852 1.410 . S
C851 C859 1.503 . S
C852 C851 1.410 . S
C852 C853 1.392 . S
C852 C855 1.511 . S
C853 C849 1.376 . S
C853 C852 1.392 . S
C853 H865 0.929 . S
C854 C850 1.531 . S
C854 H866 0.960 . S
C854 H867 0.962 . S
C854 H868 0.960 . S
C855 C852 1.511 . S
C855 H869 0.961 . S
C855 H870 0.961 . S
C855 H871 0.961 . S
C856 C857 1.370 . S
C856 C858 1.363 1_565 S
C856 H872 0.931 . S
C857 C856 1.370 . S
C857 C861 1.408 1_565 S
C858 C856 1.363 1_545 S
C858 C859 1.370 . S
C858 C862 1.524 . S
C859 C851 1.503 . S
C859 C858 1.370 . S
C859 C860 1.403 . S
C860 C859 1.403 . S
C860 C861 1.404 . S
C860 C863 1.539 . S
C861 C857 1.408 1_545 S
C861 C860 1.404 . S
C861 H873 0.930 . S
C862 C858 1.524 . S
C862 H874 0.956 . S
C862 H875 0.961 . S
C862 H876 0.961 . S
C863 C860 1.539 . S
C863 H877 0.958 . S
C863 H878 0.961 . S
C863 H879 0.960 . S
H864 C848 0.931 . S
H865 C853 0.929 . S
H866 C854 0.960 . S
H867 C854 0.962 . S
H868 C854 0.960 . S
H869 C855 0.961 . S
H870 C855 0.961 . S
H871 C855 0.961 . S
H872 C856 0.931 . S
H873 C861 0.930 . S
H874 C862 0.956 . S
H875 C862 0.961 . S
H876 C862 0.961 . S
H877 C863 0.958 . S
H878 C863 0.961 . S
H879 C863 0.960 . S
C880 C881 1.391 . S
C880 C882 1.394 . S
C880 H896 0.931 . S
C881 C880 1.391 . S
C881 C885 1.376 . S
C882 C880 1.394 . S
C882 C883 1.369 . S
C882 C886 1.531 . S
C883 C882 1.369 . S
C883 C884 1.410 . S
C883 C891 1.503 . S
C884 C883 1.410 . S
C884 C885 1.392 . S
C884 C887 1.511 . S
C885 C881 1.376 . S
C885 C884 1.392 . S
C885 H897 0.929 . S
C886 C882 1.531 . S
C886 H898 0.960 . S
C886 H899 0.962 . S
C886 H900 0.960 . S
C887 C884 1.511 . S
C887 H901 0.961 . S
C887 H902 0.961 . S
C887 H903 0.961 . S
C888 C889 1.370 . S
C888 C890 1.363 . S
C888 H904 0.931 . S
C889 C888 1.370 . S
C889 C893 1.408 . S
C890 C888 1.363 . S
C890 C891 1.370 . S
C890 C894 1.524 . S
C891 C883 1.503 . S
C891 C890 1.370 . S
C891 C892 1.403 . S
C892 C891 1.403 . S
C892 C893 1.404 . S
C892 C895 1.539 . S
C893 C889 1.408 . S
C893 C892 1.404 . S
C893 H905 0.930 . S
C894 C890 1.524 . S
C894 H906 0.956 . S
C894 H907 0.961 . S
C894 H908 0.961 . S
C895 C892 1.539 . S
C895 H909 0.958 . S
C895 H910 0.961 . S
C895 H911 0.960 . S
H896 C880 0.931 . S
H897 C885 0.929 . S
H898 C886 0.960 . S
H899 C886 0.962 . S
H900 C886 0.960 . S
H901 C887 0.961 . S
H902 C887 0.961 . S
H903 C887 0.961 . S
H904 C888 0.931 . S
H905 C893 0.930 . S
H906 C894 0.956 . S
H907 C894 0.961 . S
H908 C894 0.961 . S
H909 C895 0.958 . S
H910 C895 0.961 . S
H911 C895 0.960 . S
C912 C913 1.391 . S
C912 C914 1.394 . S
C912 H928 0.931 . S
C913 C912 1.391 . S
C913 C917 1.376 . S
C914 C912 1.394 . S
C914 C915 1.369 . S
C914 C918 1.531 . S
C915 C914 1.369 . S
C915 C916 1.410 . S
C915 C923 1.503 . S
C916 C915 1.410 . S
C916 C917 1.392 . S
C916 C919 1.511 . S
C917 C913 1.376 . S
C917 C916 1.392 . S
C917 H929 0.929 . S
C918 C914 1.531 . S
C918 H930 0.960 . S
C918 H931 0.962 . S
C918 H932 0.960 . S
C919 C916 1.511 . S
C919 H933 0.961 . S
C919 H934 0.961 . S
C919 H935 0.961 . S
C920 C921 1.370 . S
C920 C922 1.363 . S
C920 H936 0.931 . S
C921 C920 1.370 . S
C921 C925 1.408 . S
C922 C920 1.363 . S
C922 C923 1.370 . S
C922 C926 1.524 . S
C923 C915 1.503 . S
C923 C922 1.370 . S
C923 C924 1.403 . S
C924 C923 1.403 . S
C924 C925 1.404 . S
C924 C927 1.539 . S
C925 C921 1.408 . S
C925 C924 1.404 . S
C925 H937 0.930 . S
C926 C922 1.524 . S
C926 H938 0.956 . S
C926 H939 0.961 . S
C926 H940 0.961 . S
C927 C924 1.539 . S
C927 H941 0.958 . S
C927 H942 0.961 . S
C927 H943 0.960 . S
H928 C912 0.931 . S
H929 C917 0.929 . S
H930 C918 0.960 . S
H931 C918 0.962 . S
H932 C918 0.960 . S
H933 C919 0.961 . S
H934 C919 0.961 . S
H935 C919 0.961 . S
H936 C920 0.931 . S
H937 C925 0.930 . S
H938 C926 0.956 . S
H939 C926 0.961 . S
H940 C926 0.961 . S
H941 C927 0.958 . S
H942 C927 0.961 . S
H943 C927 0.960 . S
C944 C945 1.390 1_545 S
C944 C946 1.397 . S
C944 H960 0.928 1_545 S
C945 C944 1.390 1_565 S
C945 C949 1.376 1_565 S
C946 C944 1.397 . S
C946 C947 1.369 . S
C946 C950 1.531 . S
C947 C946 1.369 . S
C947 C948 1.410 . S
C947 C955 1.503 . S
C948 C947 1.410 . S
C948 C949 1.392 . S
C948 C951 1.511 . S
C949 C945 1.376 1_545 S
C949 C948 1.392 . S
C949 H961 0.929 . S
C950 C946 1.531 . S
C950 H962 0.960 . S
C950 H963 0.962 . S
C950 H964 0.960 . S
C951 C948 1.511 . S
C951 H965 0.961 . S
C951 H966 0.961 . S
C951 H967 0.961 . S
C952 C953 1.370 . S
C952 C954 1.363 . S
C952 H968 0.931 . S
C953 C952 1.370 . S
C953 C957 1.408 . S
C954 C952 1.363 . S
C954 C955 1.370 . S
C954 C958 1.524 . S
C955 C947 1.503 . S
C955 C954 1.370 . S
C955 C956 1.403 . S
C956 C955 1.403 . S
C956 C957 1.404 . S
C956 C959 1.539 . S
C957 C953 1.408 . S
C957 C956 1.404 . S
C957 H969 0.930 . S
C958 C954 1.524 . S
C958 H970 0.956 . S
C958 H971 0.961 . S
C958 H972 0.961 . S
C959 C956 1.539 . S
C959 H973 0.958 . S
C959 H974 0.961 . S
C959 H975 0.960 . S
H960 C944 0.928 1_565 S
H961 C949 0.929 . S
H962 C950 0.960 . S
H963 C950 0.962 . S
H964 C950 0.960 . S
H965 C951 0.961 . S
H966 C951 0.961 . S
H967 C951 0.961 . S
H968 C952 0.931 . S
H969 C957 0.930 . S
H970 C958 0.956 . S
H971 C958 0.961 . S
H972 C958 0.961 . S
H973 C959 0.958 . S
H974 C959 0.961 . S
H975 C959 0.960 . S
C976 C977 1.391 . S
C976 C978 1.394 . S
C976 H992 0.931 . S
C977 C976 1.391 . S
C977 C981 1.376 . S
C978 C976 1.394 . S
C978 C979 1.369 . S
C978 C982 1.531 . S
C979 C978 1.369 . S
C979 C980 1.410 . S
C979 C987 1.503 . S
C980 C979 1.410 . S
C980 C981 1.392 . S
C980 C983 1.511 . S
C981 C977 1.376 . S
C981 C980 1.392 . S
C981 H993 0.929 . S
C982 C978 1.531 . S
C982 H994 0.960 . S
C982 H995 0.962 . S
C982 H996 0.960 . S
C983 C980 1.511 . S
C983 H997 0.961 . S
C983 H998 0.961 . S
C983 H999 0.961 . S
C984 C985 1.370 1_565 S
C984 C986 1.363 . S
C984 H1000 0.931 1_565 S
C985 C984 1.370 1_545 S
C985 C989 1.408 1_545 S
C986 C984 1.363 . S
C986 C987 1.370 . S
C986 C990 1.524 . S
C987 C979 1.503 . S
C987 C986 1.370 . S
C987 C988 1.403 . S
C988 C987 1.403 . S
C988 C989 1.404 . S
C988 C991 1.539 . S
C989 C985 1.408 1_565 S
C989 C988 1.404 . S
C989 H1001 0.930 . S
C990 C986 1.524 . S
C990 H1002 0.956 . S
C990 H1003 0.961 . S
C990 H1004 0.961 . S
C991 C988 1.539 . S
C991 H1005 0.958 . S
C991 H1006 0.961 . S
C991 H1007 0.960 . S
H992 C976 0.931 . S
H993 C981 0.929 . S
H994 C982 0.960 . S
H995 C982 0.962 . S
H996 C982 0.960 . S
H997 C983 0.961 . S
H998 C983 0.961 . S
H999 C983 0.961 . S
H1000 C984 0.931 1_545 S
H1001 C989 0.930 . S
H1002 C990 0.956 . S
H1003 C990 0.961 . S
H1004 C990 0.961 . S
H1005 C991 0.958 . S
H1006 C991 0.961 . S
H1007 C991 0.960 . S
C1008 C1009 1.391 . S
C1008 C1010 1.394 . S
C1008 H1024 0.931 . S
C1009 C1008 1.391 . S
C1009 C1013 1.376 . S
C1010 C1008 1.394 . S
C1010 C1011 1.369 . S
C1010 C1014 1.531 . S
C1011 C1010 1.369 . S
C1011 C1012 1.410 . S
C1011 C1019 1.503 . S
C1012 C1011 1.410 . S
C1012 C1013 1.392 . S
C1012 C1015 1.511 . S
C1013 C1009 1.376 . S
C1013 C1012 1.392 . S
C1013 H1025 0.929 . S
C1014 C1010 1.531 . S
C1014 H1026 0.960 . S
C1014 H1027 0.962 . S
C1014 H1028 0.960 . S
C1015 C1012 1.511 . S
C1015 H1029 0.961 . S
C1015 H1030 0.961 . S
C1015 H1031 0.961 . S
C1016 C1017 1.370 . S
C1016 C1018 1.363 . S
C1016 H1032 0.931 . S
C1017 C1016 1.370 . S
C1017 C1021 1.408 . S
C1018 C1016 1.363 . S
C1018 C1019 1.370 . S
C1018 C1022 1.524 . S
C1019 C1011 1.503 . S
C1019 C1018 1.370 . S
C1019 C1020 1.403 . S
C1020 C1019 1.403 . S
C1020 C1021 1.404 . S
C1020 C1023 1.539 . S
C1021 C1017 1.408 . S
C1021 C1020 1.404 . S
C1021 H1033 0.930 . S
C1022 C1018 1.524 . S
C1022 H1034 0.956 . S
C1022 H1035 0.961 . S
C1022 H1036 0.961 . S
C1023 C1020 1.539 . S
C1023 H1037 0.958 . S
C1023 H1038 0.961 . S
C1023 H1039 0.960 . S
H1024 C1008 0.931 . S
H1025 C1013 0.929 . S
H1026 C1014 0.960 . S
H1027 C1014 0.962 . S
H1028 C1014 0.960 . S
H1029 C1015 0.961 . S
H1030 C1015 0.961 . S
H1031 C1015 0.961 . S
H1032 C1016 0.931 . S
H1033 C1021 0.930 . S
H1034 C1022 0.956 . S
H1035 C1022 0.961 . S
H1036 C1022 0.961 . S
H1037 C1023 0.958 . S
H1038 C1023 0.961 . S
H1039 C1023 0.960 . S
C1040 C1041 1.391 . S
C1040 C1042 1.394 . S
C1040 H1056 0.931 . S
C1041 C1040 1.391 . S
C1041 C1045 1.376 . S
C1042 C1040 1.394 . S
C1042 C1043 1.369 . S
C1042 C1046 1.531 . S
C1043 C1042 1.369 . S
C1043 C1044 1.410 . S
C1043 C1051 1.503 . S
C1044 C1043 1.410 . S
C1044 C1045 1.392 . S
C1044 C1047 1.511 . S
C1045 C1041 1.376 . S
C1045 C1044 1.392 . S
C1045 H1057 0.929 . S
C1046 C1042 1.531 . S
C1046 H1058 0.960 . S
C1046 H1059 0.962 . S
C1046 H1060 0.960 . S
C1047 C1044 1.511 . S
C1047 H1061 0.961 . S
C1047 H1062 0.961 . S
C1047 H1063 0.961 . S
C1048 C1049 1.370 . S
C1048 C1050 1.363 . S
C1048 H1064 0.931 . S
C1049 C1048 1.370 . S
C1049 C1053 1.408 . S
C1050 C1048 1.363 . S
C1050 C1051 1.370 . S
C1050 C1054 1.524 . S
C1051 C1043 1.503 . S
C1051 C1050 1.370 . S
C1051 C1052 1.403 . S
C1052 C1051 1.403 . S
C1052 C1053 1.404 . S
C1052 C1055 1.539 . S
C1053 C1049 1.408 . S
C1053 C1052 1.404 . S
C1053 H1065 0.930 . S
C1054 C1050 1.524 . S
C1054 H1066 0.956 . S
C1054 H1067 0.961 . S
C1054 H1068 0.961 . S
C1055 C1052 1.539 . S
C1055 H1069 0.958 . S
C1055 H1070 0.961 . S
C1055 H1071 0.960 . S
H1056 C1040 0.931 . S
H1057 C1045 0.929 . S
H1058 C1046 0.960 . S
H1059 C1046 0.962 . S
H1060 C1046 0.960 . S
H1061 C1047 0.961 . S
H1062 C1047 0.961 . S
H1063 C1047 0.961 . S
H1064 C1048 0.931 . S
H1065 C1053 0.930 . S
H1066 C1054 0.956 . S
H1067 C1054 0.961 . S
H1068 C1054 0.961 . S
H1069 C1055 0.958 . S
H1070 C1055 0.961 . S
H1071 C1055 0.960 . S
C1072 C1073 1.391 . S
C1072 C1074 1.394 . S
C1072 H1088 0.931 . S
C1073 C1072 1.391 . S
C1073 C1077 1.376 . S
C1074 C1072 1.394 . S
C1074 C1075 1.369 . S
C1074 C1078 1.531 . S
C1075 C1074 1.369 . S
C1075 C1076 1.410 . S
C1075 C1083 1.503 . S
C1076 C1075 1.410 . S
C1076 C1077 1.392 . S
C1076 C1079 1.511 . S
C1077 C1073 1.376 . S
C1077 C1076 1.392 . S
C1077 H1089 0.929 . S
C1078 C1074 1.531 . S
C1078 H1090 0.960 . S
C1078 H1091 0.962 . S
C1078 H1092 0.960 . S
C1079 C1076 1.511 . S
C1079 H1093 0.961 . S
C1079 H1094 0.961 . S
C1079 H1095 0.961 . S
C1080 C1081 1.370 . S
C1080 C1082 1.363 1_545 S
C1080 H1096 0.931 . S
C1081 C1080 1.370 . S
C1081 C1085 1.408 1_545 S
C1082 C1080 1.363 1_565 S
C1082 C1083 1.370 . S
C1082 C1086 1.524 . S
C1083 C1075 1.503 . S
C1083 C1082 1.370 . S
C1083 C1084 1.403 . S
C1084 C1083 1.403 . S
C1084 C1085 1.404 . S
C1084 C1087 1.539 . S
C1085 C1081 1.408 1_565 S
C1085 C1084 1.404 . S
C1085 H1097 0.930 . S
C1086 C1082 1.524 . S
C1086 H1098 0.956 . S
C1086 H1099 0.961 . S
C1086 H1100 0.961 1_565 S
C1087 C1084 1.539 . S
C1087 H1101 0.958 . S
C1087 H1102 0.961 . S
C1087 H1103 0.960 . S
H1088 C1072 0.931 . S
H1089 C1077 0.929 . S
H1090 C1078 0.960 . S
H1091 C1078 0.962 . S
H1092 C1078 0.960 . S
H1093 C1079 0.961 . S
H1094 C1079 0.961 . S
H1095 C1079 0.961 . S
H1096 C1080 0.931 . S
H1097 C1085 0.930 . S
H1098 C1086 0.956 . S
H1099 C1086 0.961 . S
H1100 C1086 0.961 1_545 S
H1101 C1087 0.958 . S
H1102 C1087 0.961 . S
H1103 C1087 0.960 . S
C1104 C1105 1.391 . S
C1104 C1106 1.394 . S
C1104 H1120 0.931 . S
C1105 C1104 1.391 . S
C1105 C1109 1.376 . S
C1106 C1104 1.394 . S
C1106 C1107 1.369 . S
C1106 C1110 1.531 . S
C1107 C1106 1.369 . S
C1107 C1108 1.410 . S
C1107 C1115 1.503 . S
C1108 C1107 1.410 . S
C1108 C1109 1.392 . S
C1108 C1111 1.511 . S
C1109 C1105 1.376 . S
C1109 C1108 1.392 . S
C1109 H1121 0.929 . S
C1110 C1106 1.531 . S
C1110 H1122 0.960 . S
C1110 H1123 0.962 . S
C1110 H1124 0.960 . S
C1111 C1108 1.511 . S
C1111 H1125 0.961 . S
C1111 H1126 0.961 . S
C1111 H1127 0.961 . S
C1112 C1113 1.370 . S
C1112 C1114 1.363 1_565 S
C1112 H1128 0.931 . S
C1113 C1112 1.370 . S
C1113 C1117 1.408 1_565 S
C1114 C1112 1.363 1_545 S
C1114 C1115 1.370 . S
C1114 C1118 1.524 . S
C1115 C1107 1.503 . S
C1115 C1114 1.370 . S
C1115 C1116 1.403 . S
C1116 C1115 1.403 . S
C1116 C1117 1.404 . S
C1116 C1119 1.539 . S
C1117 C1113 1.408 1_545 S
C1117 C1116 1.404 . S
C1117 H1129 0.930 . S
C1118 C1114 1.524 . S
C1118 H1130 0.956 . S
C1118 H1131 0.961 . S
C1118 H1132 0.961 . S
C1119 C1116 1.539 . S
C1119 H1133 0.958 . S
C1119 H1134 0.961 . S
C1119 H1135 0.960 . S
H1120 C1104 0.931 . S
H1121 C1109 0.929 . S
H1122 C1110 0.960 . S
H1123 C1110 0.962 . S
H1124 C1110 0.960 . S
H1125 C1111 0.961 . S
H1126 C1111 0.961 . S
H1127 C1111 0.961 . S
H1128 C1112 0.931 . S
H1129 C1117 0.930 . S
H1130 C1118 0.956 . S
H1131 C1118 0.961 . S
H1132 C1118 0.961 . S
H1133 C1119 0.958 . S
H1134 C1119 0.961 . S
H1135 C1119 0.960 . S
C1136 C1137 1.391 . S
C1136 C1138 1.394 . S
C1136 H1152 0.931 . S
C1137 C1136 1.391 . S
C1137 C1141 1.376 . S
C1138 C1136 1.394 . S
C1138 C1139 1.369 . S
C1138 C1142 1.531 . S
C1139 C1138 1.369 . S
C1139 C1140 1.410 . S
C1139 C1147 1.503 . S
C1140 C1139 1.410 . S
C1140 C1141 1.392 . S
C1140 C1143 1.511 . S
C1141 C1137 1.376 . S
C1141 C1140 1.392 . S
C1141 H1153 0.929 . S
C1142 C1138 1.531 . S
C1142 H1154 0.960 . S
C1142 H1155 0.962 . S
C1142 H1156 0.960 . S
C1143 C1140 1.511 . S
C1143 H1157 0.961 . S
C1143 H1158 0.961 . S
C1143 H1159 0.961 . S
C1144 C1145 1.370 . S
C1144 C1146 1.363 . S
C1144 H1160 0.931 . S
C1145 C1144 1.370 . S
C1145 C1149 1.408 . S
C1146 C1144 1.363 . S
C1146 C1147 1.370 . S
C1146 C1150 1.524 . S
C1147 C1139 1.503 . S
C1147 C1146 1.370 . S
C1147 C1148 1.403 . S
C1148 C1147 1.403 . S
C1148 C1149 1.404 . S
C1148 C1151 1.539 . S
C1149 C1145 1.408 . S
C1149 C1148 1.404 . S
C1149 H1161 0.930 . S
C1150 C1146 1.524 . S
C1150 H1162 0.956 . S
C1150 H1163 0.961 . S
C1150 H1164 0.961 . S
C1151 C1148 1.539 . S
C1151 H1165 0.958 . S
C1151 H1166 0.961 . S
C1151 H1167 0.960 . S
H1152 C1136 0.931 . S
H1153 C1141 0.929 . S
H1154 C1142 0.960 . S
H1155 C1142 0.962 . S
H1156 C1142 0.960 . S
H1157 C1143 0.961 . S
H1158 C1143 0.961 . S
H1159 C1143 0.961 . S
H1160 C1144 0.931 . S
H1161 C1149 0.930 . S
H1162 C1150 0.956 . S
H1163 C1150 0.961 . S
H1164 C1150 0.961 . S
H1165 C1151 0.958 . S
H1166 C1151 0.961 . S
H1167 C1151 0.960 . S
C1168 C1169 1.391 . S
C1168 C1170 1.394 . S
C1168 H1184 0.931 . S
C1169 C1168 1.391 . S
C1169 C1173 1.376 . S
C1170 C1168 1.394 . S
C1170 C1171 1.369 . S
C1170 C1174 1.531 . S
C1171 C1170 1.369 . S
C1171 C1172 1.410 . S
C1171 C1179 1.503 . S
C1172 C1171 1.410 . S
C1172 C1173 1.392 . S
C1172 C1175 1.511 . S
C1173 C1169 1.376 . S
C1173 C1172 1.392 . S
C1173 H1185 0.929 . S
C1174 C1170 1.531 . S
C1174 H1186 0.960 . S
C1174 H1187 0.962 . S
C1174 H1188 0.960 . S
C1175 C1172 1.511 . S
C1175 H1189 0.961 . S
C1175 H1190 0.961 . S
C1175 H1191 0.961 . S
C1176 C1177 1.370 . S
C1176 C1178 1.363 . S
C1176 H1192 0.931 . S
C1177 C1176 1.370 . S
C1177 C1181 1.408 . S
C1178 C1176 1.363 . S
C1178 C1179 1.370 . S
C1178 C1182 1.524 . S
C1179 C1171 1.503 . S
C1179 C1178 1.370 . S
C1179 C1180 1.403 . S
C1180 C1179 1.403 . S
C1180 C1181 1.404 . S
C1180 C1183 1.539 . S
C1181 C1177 1.408 . S
C1181 C1180 1.404 . S
C1181 H1193 0.930 . S
C1182 C1178 1.524 . S
C1182 H1194 0.956 . S
C1182 H1195 0.961 . S
C1182 H1196 0.961 . S
C1183 C1180 1.539 . S
C1183 H1197 0.958 . S
C1183 H1198 0.961 . S
C1183 H1199 0.960 . S
H1184 C1168 0.931 . S
H1185 C1173 0.929 . S
H1186 C1174 0.960 . S
H1187 C1174 0.962 . S
H1188 C1174 0.960 . S
H1189 C1175 0.961 . S
H1190 C1175 0.961 . S
H1191 C1175 0.961 . S
H1192 C1176 0.931 . S
H1193 C1181 0.930 . S
H1194 C1182 0.956 . S
H1195 C1182 0.961 . S
H1196 C1182 0.961 . S
H1197 C1183 0.958 . S
H1198 C1183 0.961 . S
H1199 C1183 0.960 . S
C1200 C1201 1.391 . S
C1200 C1202 1.394 . S
C1200 H1216 0.931 . S
C1201 C1200 1.391 . S
C1201 C1205 1.376 . S
C1202 C1200 1.394 . S
C1202 C1203 1.369 . S
C1202 C1206 1.531 . S
C1203 C1202 1.369 . S
C1203 C1204 1.410 . S
C1203 C1211 1.503 . S
C1204 C1203 1.410 . S
C1204 C1205 1.392 . S
C1204 C1207 1.511 . S
C1205 C1201 1.376 . S
C1205 C1204 1.392 . S
C1205 H1217 0.929 . S
C1206 C1202 1.531 . S
C1206 H1218 0.960 . S
C1206 H1219 0.962 . S
C1206 H1220 0.960 . S
C1207 C1204 1.511 . S
C1207 H1221 0.961 . S
C1207 H1222 0.961 . S
C1207 H1223 0.961 . S
C1208 C1209 1.370 1_545 S
C1208 C1210 1.363 . S
C1208 H1224 0.931 . S
C1209 C1208 1.370 1_565 S
C1209 C1213 1.408 . S
C1210 C1208 1.363 . S
C1210 C1211 1.370 . S
C1210 C1214 1.524 . S
C1211 C1203 1.503 . S
C1211 C1210 1.370 . S
C1211 C1212 1.403 . S
C1212 C1211 1.403 . S
C1212 C1213 1.404 1_545 S
C1212 C1215 1.539 1_545 S
C1213 C1209 1.408 . S
C1213 C1212 1.404 1_565 S
C1213 H1225 0.930 . S
C1214 C1210 1.524 . S
C1214 H1226 0.956 . S
C1214 H1227 0.961 . S
C1214 H1228 0.961 . S
C1215 C1212 1.539 1_565 S
C1215 H1229 0.958 . S
C1215 H1230 0.961 . S
C1215 H1231 0.960 1_565 S
H1216 C1200 0.931 . S
H1217 C1205 0.929 . S
H1218 C1206 0.960 . S
H1219 C1206 0.962 . S
H1220 C1206 0.960 . S
H1221 C1207 0.961 . S
H1222 C1207 0.961 . S
H1223 C1207 0.961 . S
H1224 C1208 0.931 . S
H1225 C1213 0.930 . S
H1226 C1214 0.956 . S
H1227 C1214 0.961 . S
H1228 C1214 0.961 . S
H1229 C1215 0.958 . S
H1230 C1215 0.961 . S
H1231 C1215 0.960 1_545 S
C209 C192 1.505 . S
C217 C10 1.521 . S
C241 C26 1.485 . S
C249 C0 1.494 . S
C273 C143 1.511 . S
C281 C13 1.480 . S
C305 C23 1.510 . S
C313 C101 1.518 . S
C337 C36 1.521 . S
C345 C166 1.514 . S
C369 C117 1.508 . S
C377 C39 1.484 . S
C401 C49 1.507 . S
C409 C75 1.520 . S
C433 C140 1.521 . S
C441 C62 1.514 . S
C465 C52 1.465 . S
C473 C78 1.499 . S
C497 C195 1.480 . S
C505 C65 1.492 . S
C529 C114 1.513 . S
C537 C88 1.518 . S
C561 C169 1.512 . S
C569 C91 1.481 . S
C593 C104 1.494 . S
C601 C130 1.486 . S
C625 C205 1.509 . S
C633 C127 1.519 . S
C657 C153 1.514 . S
C665 C179 1.517 . S
C689 C182 1.504 . S
C697 C156 1.483 . S
C721 C70 1.107 . S
C729 C8 1.152 . S
C753 C5 1.141 . S
C761 C73 1.136 . S
C785 C18 1.129 . S
C793 C60 1.138 . S
C817 C57 1.121 . S
C825 C21 1.165 . S
C849 C96 1.166 . S
C857 C34 1.166 . S
C881 C99 1.182 . S
C889 C31 1.158 . S
C913 C86 1.179 . S
C921 C44 1.160 . S
C945 C47 1.110 . S
C953 C83 1.146 . S
C977 C174 1.179 . S
C985 C112 1.156 . S
C1009 C109 1.144 . S
C1017 C177 1.136 . S
C1041 C122 1.157 . S
C1049 C164 1.165 . S
C1073 C161 1.137 . S
C1081 C125 1.167 . S
C1105 C200 1.112 . S
C1113 C138 1.157 . S
C1137 C203 1.118 . S
C1145 C135 1.138 . S
C1169 C148 1.112 . S
C1177 C190 1.157 . S
C1201 C187 1.161 . S
C1209 C151 1.137 . S
