# Generated by pormake.
# Topology lcv-a, (4)-cn, num edge types: 1
# Building blocks:
#     Node 0, Type 0, BuildingBlock: QUQFOY_clean_sbu_1, # of connection points: 4
#     Node 1, Type 0, BuildingBlock: QUQFOY_clean_sbu_1, # of connection points: 4
#     Node 2, Type 0, BuildingBlock: QUQFOY_clean_sbu_1, # of connection points: 4
#     Node 3, Type 0, BuildingBlock: QUQFOY_clean_sbu_1, # of connection points: 4
#     Node 4, Type 0, BuildingBlock: QUQFOY_clean_sbu_1, # of connection points: 4
#     Node 5, Type 0, BuildingBlock: QUQFOY_clean_sbu_1, # of connection points: 4
#     Node 6, Type 0, BuildingBlock: QUQFOY_clean_sbu_1, # of connection points: 4
#     Node 7, Type 0, BuildingBlock: QUQFOY_clean_sbu_1, # of connection points: 4
#     Node 8, Type 0, BuildingBlock: QUQFOY_clean_sbu_1, # of connection points: 4
#     Node 9, Type 0, BuildingBlock: QUQFOY_clean_sbu_1, # of connection points: 4
#     Node 10, Type 0, BuildingBlock: QUQFOY_clean_sbu_1, # of connection points: 4
#     Node 11, Type 0, BuildingBlock: QUQFOY_clean_sbu_1, # of connection points: 4
#     Node 12, Type 0, BuildingBlock: QUQFOY_clean_sbu_1, # of connection points: 4
#     Node 13, Type 0, BuildingBlock: QUQFOY_clean_sbu_1, # of connection points: 4
#     Node 14, Type 0, BuildingBlock: QUQFOY_clean_sbu_1, # of connection points: 4
#     Node 15, Type 0, BuildingBlock: QUQFOY_clean_sbu_1, # of connection points: 4
#     Node 16, Type 0, BuildingBlock: QUQFOY_clean_sbu_1, # of connection points: 4
#     Node 17, Type 0, BuildingBlock: QUQFOY_clean_sbu_1, # of connection points: 4
#     Node 18, Type 0, BuildingBlock: QUQFOY_clean_sbu_1, # of connection points: 4
#     Node 19, Type 0, BuildingBlock: QUQFOY_clean_sbu_1, # of connection points: 4
#     Node 20, Type 0, BuildingBlock: QUQFOY_clean_sbu_1, # of connection points: 4
#     Node 21, Type 0, BuildingBlock: QUQFOY_clean_sbu_1, # of connection points: 4
#     Node 22, Type 0, BuildingBlock: QUQFOY_clean_sbu_1, # of connection points: 4
#     Node 23, Type 0, BuildingBlock: QUQFOY_clean_sbu_1, # of connection points: 4
#     Node 24, Type 0, BuildingBlock: QUQFOY_clean_sbu_1, # of connection points: 4
#     Node 25, Type 0, BuildingBlock: QUQFOY_clean_sbu_1, # of connection points: 4
#     Node 26, Type 0, BuildingBlock: QUQFOY_clean_sbu_1, # of connection points: 4
#     Node 27, Type 0, BuildingBlock: QUQFOY_clean_sbu_1, # of connection points: 4
#     Node 28, Type 0, BuildingBlock: QUQFOY_clean_sbu_1, # of connection points: 4
#     Node 29, Type 0, BuildingBlock: QUQFOY_clean_sbu_1, # of connection points: 4
#     Node 30, Type 0, BuildingBlock: QUQFOY_clean_sbu_1, # of connection points: 4
#     Node 31, Type 0, BuildingBlock: QUQFOY_clean_sbu_1, # of connection points: 4
#     Node 32, Type 0, BuildingBlock: QUQFOY_clean_sbu_1, # of connection points: 4
#     Node 33, Type 0, BuildingBlock: QUQFOY_clean_sbu_1, # of connection points: 4
#     Node 34, Type 0, BuildingBlock: QUQFOY_clean_sbu_1, # of connection points: 4
#     Node 35, Type 0, BuildingBlock: QUQFOY_clean_sbu_1, # of connection points: 4
#     Node 36, Type 0, BuildingBlock: QUQFOY_clean_sbu_1, # of connection points: 4
#     Node 37, Type 0, BuildingBlock: QUQFOY_clean_sbu_1, # of connection points: 4
#     Node 38, Type 0, BuildingBlock: QUQFOY_clean_sbu_1, # of connection points: 4
#     Node 39, Type 0, BuildingBlock: QUQFOY_clean_sbu_1, # of connection points: 4
#     Node 40, Type 0, BuildingBlock: QUQFOY_clean_sbu_1, # of connection points: 4
#     Node 41, Type 0, BuildingBlock: QUQFOY_clean_sbu_1, # of connection points: 4
#     Node 42, Type 0, BuildingBlock: QUQFOY_clean_sbu_1, # of connection points: 4
#     Node 43, Type 0, BuildingBlock: QUQFOY_clean_sbu_1, # of connection points: 4
#     Node 44, Type 0, BuildingBlock: QUQFOY_clean_sbu_1, # of connection points: 4
#     Node 45, Type 0, BuildingBlock: QUQFOY_clean_sbu_1, # of connection points: 4
#     Node 46, Type 0, BuildingBlock: QUQFOY_clean_sbu_1, # of connection points: 4
#     Node 47, Type 0, BuildingBlock: QUQFOY_clean_sbu_1, # of connection points: 4
#     Edge 48, Type (0, 0), BuildingBlock: OJICUG_clean_linker_0, # of connection points: 2
#     Edge 49, Type (0, 0), BuildingBlock: OJICUG_clean_linker_0, # of connection points: 2
#     Edge 50, Type (0, 0), BuildingBlock: OJICUG_clean_linker_0, # of connection points: 2
#     Edge 51, Type (0, 0), BuildingBlock: OJICUG_clean_linker_0, # of connection points: 2
#     Edge 52, Type (0, 0), BuildingBlock: OJICUG_clean_linker_0, # of connection points: 2
#     Edge 53, Type (0, 0), BuildingBlock: OJICUG_clean_linker_0, # of connection points: 2
#     Edge 54, Type (0, 0), BuildingBlock: OJICUG_clean_linker_0, # of connection points: 2
#     Edge 55, Type (0, 0), BuildingBlock: OJICUG_clean_linker_0, # of connection points: 2
#     Edge 56, Type (0, 0), BuildingBlock: OJICUG_clean_linker_0, # of connection points: 2
#     Edge 57, Type (0, 0), BuildingBlock: OJICUG_clean_linker_0, # of connection points: 2
#     Edge 58, Type (0, 0), BuildingBlock: OJICUG_clean_linker_0, # of connection points: 2
#     Edge 59, Type (0, 0), BuildingBlock: OJICUG_clean_linker_0, # of connection points: 2
#     Edge 60, Type (0, 0), BuildingBlock: OJICUG_clean_linker_0, # of connection points: 2
#     Edge 61, Type (0, 0), BuildingBlock: OJICUG_clean_linker_0, # of connection points: 2
#     Edge 62, Type (0, 0), BuildingBlock: OJICUG_clean_linker_0, # of connection points: 2
#     Edge 63, Type (0, 0), BuildingBlock: OJICUG_clean_linker_0, # of connection points: 2
#     Edge 64, Type (0, 0), BuildingBlock: OJICUG_clean_linker_0, # of connection points: 2
#     Edge 65, Type (0, 0), BuildingBlock: OJICUG_clean_linker_0, # of connection points: 2
#     Edge 66, Type (0, 0), BuildingBlock: OJICUG_clean_linker_0, # of connection points: 2
#     Edge 67, Type (0, 0), BuildingBlock: OJICUG_clean_linker_0, # of connection points: 2
#     Edge 68, Type (0, 0), BuildingBlock: OJICUG_clean_linker_0, # of connection points: 2
#     Edge 69, Type (0, 0), BuildingBlock: OJICUG_clean_linker_0, # of connection points: 2
#     Edge 70, Type (0, 0), BuildingBlock: OJICUG_clean_linker_0, # of connection points: 2
#     Edge 71, Type (0, 0), BuildingBlock: OJICUG_clean_linker_0, # of connection points: 2
#     Edge 72, Type (0, 0), BuildingBlock: OJICUG_clean_linker_0, # of connection points: 2
#     Edge 73, Type (0, 0), BuildingBlock: OJICUG_clean_linker_0, # of connection points: 2
#     Edge 74, Type (0, 0), BuildingBlock: OJICUG_clean_linker_0, # of connection points: 2
#     Edge 75, Type (0, 0), BuildingBlock: OJICUG_clean_linker_0, # of connection points: 2
#     Edge 76, Type (0, 0), BuildingBlock: OJICUG_clean_linker_0, # of connection points: 2
#     Edge 77, Type (0, 0), BuildingBlock: OJICUG_clean_linker_0, # of connection points: 2
#     Edge 78, Type (0, 0), BuildingBlock: OJICUG_clean_linker_0, # of connection points: 2
#     Edge 79, Type (0, 0), BuildingBlock: OJICUG_clean_linker_0, # of connection points: 2
#     Edge 80, Type (0, 0), BuildingBlock: OJICUG_clean_linker_0, # of connection points: 2
#     Edge 81, Type (0, 0), BuildingBlock: OJICUG_clean_linker_0, # of connection points: 2
#     Edge 82, Type (0, 0), BuildingBlock: OJICUG_clean_linker_0, # of connection points: 2
#     Edge 83, Type (0, 0), BuildingBlock: OJICUG_clean_linker_0, # of connection points: 2
#     Edge 84, Type (0, 0), BuildingBlock: OJICUG_clean_linker_0, # of connection points: 2
#     Edge 85, Type (0, 0), BuildingBlock: OJICUG_clean_linker_0, # of connection points: 2
#     Edge 86, Type (0, 0), BuildingBlock: OJICUG_clean_linker_0, # of connection points: 2
#     Edge 87, Type (0, 0), BuildingBlock: OJICUG_clean_linker_0, # of connection points: 2
#     Edge 88, Type (0, 0), BuildingBlock: OJICUG_clean_linker_0, # of connection points: 2
#     Edge 89, Type (0, 0), BuildingBlock: OJICUG_clean_linker_0, # of connection points: 2
#     Edge 90, Type (0, 0), BuildingBlock: OJICUG_clean_linker_0, # of connection points: 2
#     Edge 91, Type (0, 0), BuildingBlock: OJICUG_clean_linker_0, # of connection points: 2
#     Edge 92, Type (0, 0), BuildingBlock: OJICUG_clean_linker_0, # of connection points: 2
#     Edge 93, Type (0, 0), BuildingBlock: OJICUG_clean_linker_0, # of connection points: 2
#     Edge 94, Type (0, 0), BuildingBlock: OJICUG_clean_linker_0, # of connection points: 2
#     Edge 95, Type (0, 0), BuildingBlock: OJICUG_clean_linker_0, # of connection points: 2
#     Edge 96, Type (0, 0), BuildingBlock: OJICUG_clean_linker_0, # of connection points: 2
#     Edge 97, Type (0, 0), BuildingBlock: OJICUG_clean_linker_0, # of connection points: 2
#     Edge 98, Type (0, 0), BuildingBlock: OJICUG_clean_linker_0, # of connection points: 2
#     Edge 99, Type (0, 0), BuildingBlock: OJICUG_clean_linker_0, # of connection points: 2
#     Edge 100, Type (0, 0), BuildingBlock: OJICUG_clean_linker_0, # of connection points: 2
#     Edge 101, Type (0, 0), BuildingBlock: OJICUG_clean_linker_0, # of connection points: 2
#     Edge 102, Type (0, 0), BuildingBlock: OJICUG_clean_linker_0, # of connection points: 2
#     Edge 103, Type (0, 0), BuildingBlock: OJICUG_clean_linker_0, # of connection points: 2
#     Edge 104, Type (0, 0), BuildingBlock: OJICUG_clean_linker_0, # of connection points: 2
#     Edge 105, Type (0, 0), BuildingBlock: OJICUG_clean_linker_0, # of connection points: 2
#     Edge 106, Type (0, 0), BuildingBlock: OJICUG_clean_linker_0, # of connection points: 2
#     Edge 107, Type (0, 0), BuildingBlock: OJICUG_clean_linker_0, # of connection points: 2
#     Edge 108, Type (0, 0), BuildingBlock: OJICUG_clean_linker_0, # of connection points: 2
#     Edge 109, Type (0, 0), BuildingBlock: OJICUG_clean_linker_0, # of connection points: 2
#     Edge 110, Type (0, 0), BuildingBlock: OJICUG_clean_linker_0, # of connection points: 2
#     Edge 111, Type (0, 0), BuildingBlock: OJICUG_clean_linker_0, # of connection points: 2
#     Edge 112, Type (0, 0), BuildingBlock: OJICUG_clean_linker_0, # of connection points: 2
#     Edge 113, Type (0, 0), BuildingBlock: OJICUG_clean_linker_0, # of connection points: 2
#     Edge 114, Type (0, 0), BuildingBlock: OJICUG_clean_linker_0, # of connection points: 2
#     Edge 115, Type (0, 0), BuildingBlock: OJICUG_clean_linker_0, # of connection points: 2
#     Edge 116, Type (0, 0), BuildingBlock: OJICUG_clean_linker_0, # of connection points: 2
#     Edge 117, Type (0, 0), BuildingBlock: OJICUG_clean_linker_0, # of connection points: 2
#     Edge 118, Type (0, 0), BuildingBlock: OJICUG_clean_linker_0, # of connection points: 2
#     Edge 119, Type (0, 0), BuildingBlock: OJICUG_clean_linker_0, # of connection points: 2
#     Edge 120, Type (0, 0), BuildingBlock: OJICUG_clean_linker_0, # of connection points: 2
#     Edge 121, Type (0, 0), BuildingBlock: OJICUG_clean_linker_0, # of connection points: 2
#     Edge 122, Type (0, 0), BuildingBlock: OJICUG_clean_linker_0, # of connection points: 2
#     Edge 123, Type (0, 0), BuildingBlock: OJICUG_clean_linker_0, # of connection points: 2
#     Edge 124, Type (0, 0), BuildingBlock: OJICUG_clean_linker_0, # of connection points: 2
#     Edge 125, Type (0, 0), BuildingBlock: OJICUG_clean_linker_0, # of connection points: 2
#     Edge 126, Type (0, 0), BuildingBlock: OJICUG_clean_linker_0, # of connection points: 2
#     Edge 127, Type (0, 0), BuildingBlock: OJICUG_clean_linker_0, # of connection points: 2
#     Edge 128, Type (0, 0), BuildingBlock: OJICUG_clean_linker_0, # of connection points: 2
#     Edge 129, Type (0, 0), BuildingBlock: OJICUG_clean_linker_0, # of connection points: 2
#     Edge 130, Type (0, 0), BuildingBlock: OJICUG_clean_linker_0, # of connection points: 2
#     Edge 131, Type (0, 0), BuildingBlock: OJICUG_clean_linker_0, # of connection points: 2
#     Edge 132, Type (0, 0), BuildingBlock: OJICUG_clean_linker_0, # of connection points: 2
#     Edge 133, Type (0, 0), BuildingBlock: OJICUG_clean_linker_0, # of connection points: 2
#     Edge 134, Type (0, 0), BuildingBlock: OJICUG_clean_linker_0, # of connection points: 2
#     Edge 135, Type (0, 0), BuildingBlock: OJICUG_clean_linker_0, # of connection points: 2
#     Edge 136, Type (0, 0), BuildingBlock: OJICUG_clean_linker_0, # of connection points: 2
#     Edge 137, Type (0, 0), BuildingBlock: OJICUG_clean_linker_0, # of connection points: 2
#     Edge 138, Type (0, 0), BuildingBlock: OJICUG_clean_linker_0, # of connection points: 2
#     Edge 139, Type (0, 0), BuildingBlock: OJICUG_clean_linker_0, # of connection points: 2
#     Edge 140, Type (0, 0), BuildingBlock: OJICUG_clean_linker_0, # of connection points: 2
#     Edge 141, Type (0, 0), BuildingBlock: OJICUG_clean_linker_0, # of connection points: 2
#     Edge 142, Type (0, 0), BuildingBlock: OJICUG_clean_linker_0, # of connection points: 2
#     Edge 143, Type (0, 0), BuildingBlock: OJICUG_clean_linker_0, # of connection points: 2
# Relax obj value: 0.772
# Max RMSD: 0.398
# Mean RMSD: 0.364
data_MOF--net-lcv-a--node1-QUQFOY_clean_sbu_1--edge1-OJICUG_clean_linker_0
_symmetry_space_group_name_H-M    P1
_symmetry_Int_Tables_number       1
_symmetry_cell_setting            triclinic
loop_
_symmetry_equiv_pos_as_xyz
'x, y, z'
_cell_length_a     67.48395
_cell_length_b     67.403956
_cell_length_c     67.252202
_cell_angle_alpha  89.487518
_cell_angle_beta   89.163345
_cell_angle_gamma 89.200916
loop_
_atom_site_label
_atom_site_type_symbol
_atom_site_fract_x
_atom_site_fract_y
_atom_site_fract_z
_atom_type_partial_charge
O0 O 0.03052 0.37385 0.20724 0.0
Cd1 Cd 0.03207 0.36536 0.23444 0.0
Cd2 Cd 0.99925 0.34658 0.24355 0.0
O3 O 1.00072 0.36122 0.21257 0.0
O4 O 0.03993 0.38802 0.25324 0.0
O5 O 1.00887 0.38181 0.24615 0.0
C6 C 0.02136 0.39324 0.25457 0.0
C7 C 0.02084 0.33385 0.27072 0.0
C8 C 0.01352 0.36997 0.20086 0.0
C9 C 0.02338 0.31869 0.227 0.0
O10 O 1.00497 0.3221 0.22829 0.0
O11 O 0.03558 0.3327 0.23117 0.0
O12 O 1.00519 0.32486 0.26544 0.0
O13 O 0.02219 0.35146 0.26393 0.0
O14 O 1.00959 0.74537 0.50554 0.0
Cd15 Cd 1.00697 0.76201 0.48025 0.0
Cd16 Cd 0.04805 0.7493 0.50428 0.0
O17 O 0.03174 0.72308 0.50885 0.0
O18 O 0.98175 0.7575 0.46606 0.0
O19 O 0.98481 0.78191 0.48719 0.0
C20 C 0.97337 0.77088 0.47686 0.0
C21 C 0.05262 0.77945 0.52008 0.0
C22 C 0.01398 0.72717 0.50436 0.0
C23 C 0.05099 0.75807 0.46046 0.0
O24 O 0.05969 0.75213 0.47614 0.0
O25 O 0.03226 0.76195 0.46028 0.0
O26 O 0.06433 0.76441 0.52349 0.0
O27 O 0.03658 0.77623 0.51036 0.0
O28 O 0.60612 0.74829 0.70083 0.0
Cd29 Cd 0.58089 0.74811 0.71618 0.0
Cd30 Cd 0.59914 0.77186 0.73762 0.0
O31 O 0.62015 0.74811 0.73005 0.0
O32 O 0.56968 0.7199 0.7166 0.0
O33 O 0.58686 0.732 0.74127 0.0
C34 C 0.57889 0.71689 0.73319 0.0
C35 C 0.5712 0.77853 0.75934 0.0
C36 C 0.6204 0.74298 0.71168 0.0
C37 C 0.57864 0.7914 0.70704 0.0
O38 O 0.59594 0.79137 0.71415 0.0
O39 O 0.56754 0.77641 0.71039 0.0
O40 O 0.58802 0.787 0.76219 0.0
O41 O 0.57121 0.76454 0.74668 0.0
O42 O 0.59026 0.33856 1.01235 0.0
Cd43 Cd 0.59647 0.32553 0.98596 0.0
Cd44 Cd 0.55382 0.32621 1.01215 0.0
O45 O 0.56414 0.35417 0.02062 0.0
O46 O 0.62245 0.33512 0.97474 0.0
O47 O 0.6198 0.30722 0.99199 0.0
C48 C 0.631 0.32085 0.98436 0.0
C49 C 0.5543 0.29264 0.01973 0.0
C50 C 0.58102 0.35493 1.01222 0.0
C51 C 0.55214 0.32565 0.96782 0.0
O52 O 0.54319 0.32806 0.98439 0.0
O53 O 0.57121 0.32369 0.96642 0.0
O54 O 0.54012 0.30407 0.02646 0.0
O55 O 0.56986 0.30104 1.01211 0.0
O56 O 1.00655 0.73006 0.42196 0.0
Cd57 Cd 0.01623 0.74469 0.3973 0.0
Cd58 Cd 0.98006 0.76519 0.4107 0.0
O59 O 0.97484 0.73796 0.42593 0.0
O60 O 0.0353 0.72435 0.38474 0.0
O61 O 1.00605 0.73164 0.37235 0.0
C62 C 0.02141 0.72014 0.37243 0.0
C63 C 0.98203 0.77947 0.37856 0.0
C64 C 0.98995 0.72717 0.43055 0.0
C65 C 0.01682 0.78503 0.41814 0.0
O66 O 1.00069 0.77982 0.42642 0.0
O67 O 0.0238 0.77528 0.40311 0.0
O68 O 0.97039 0.78751 0.39171 0.0
O69 O 0.98887 0.76221 0.38274 0.0
O70 O 0.61601 0.75071 0.64939 0.0
Cd71 Cd 0.60722 0.76657 0.62648 0.0
Cd72 Cd 0.5833 0.73937 0.61815 0.0
O73 O 0.6078 0.72377 0.63293 0.0
O74 O 0.63151 0.77856 0.61202 0.0
O75 O 0.61929 0.74959 0.60406 0.0
C76 C 0.6334 0.76217 0.60212 0.0
C77 C 0.56896 0.75971 0.59208 0.0
C78 C 0.61742 0.73211 0.647 0.0
C79 C 0.56409 0.76627 0.64221 0.0
O80 O 0.56654 0.7477 0.64161 0.0
O81 O 0.57702 0.77753 0.63363 0.0
O82 O 0.56161 0.74257 0.59662 0.0
O83 O 0.58595 0.76334 0.59922 0.0
O84 O 0.57557 0.37314 0.92101 0.0
Cd85 Cd 0.57588 0.36607 0.89265 0.0
Cd86 Cd 0.61288 0.34864 0.89575 0.0
O87 O 0.60788 0.36691 0.92235 0.0
O88 O 0.56251 0.38694 0.87462 0.0
O89 O 0.59473 0.38637 0.88007 0.0
C90 C 0.57975 0.39483 0.8717 0.0
C91 C 0.60603 0.33669 0.8626 0.0
C92 C 0.5915 0.37286 0.93072 0.0
C93 C 0.58276 0.32143 0.90279 0.0
O94 O 0.59903 0.32673 0.90992 0.0
O95 O 0.57284 0.33359 0.89164 0.0
O96 O 0.61943 0.32811 0.87328 0.0
O97 O 0.59926 0.35311 0.86923 0.0
O98 O 0.9903 0.37494 0.10719 0.0
Cd99 Cd 0.97944 0.3497 0.1195 0.0
Cd100 Cd 0.02757 0.35451 0.1022 0.0
O101 O 0.02007 0.38444 0.10482 0.0
O102 O 0.95194 0.35394 0.13075 0.0
O103 O 0.95794 0.33924 0.10192 0.0
C104 C 0.94524 0.34673 0.11447 0.0
C105 C 0.03839 0.32828 0.08332 0.0
C106 C 1.00426 0.38404 0.11531 0.0
C107 C 0.01879 0.33368 0.14003 0.0
O108 O 0.03063 0.34387 0.1296 0.0
O109 O 1.00005 0.33279 0.13666 0.0
O110 O 0.05035 0.34257 0.08747 0.0
O111 O 0.01949 0.33135 0.0861 0.0
O112 O 0.19776 0.01952 0.39517 0.0
Cd113 Cd 0.22185 0.01576 0.38018 0.0
Cd114 Cd 0.22024 0.98538 0.35712 0.0
O115 O 0.19283 0.99346 0.37601 0.0
O116 O 0.24619 0.01908 0.39757 0.0
O117 O 0.2325 0.99 0.3923 0.0
C118 C 0.24516 1.00031 0.40196 0.0
C119 C 0.24758 1.00349 0.33912 0.0
C120 C 0.1863 1.00644 0.38883 0.0
C121 C 0.20214 0.01248 0.33573 0.0
O122 O 0.20116 0.99378 0.3363 0.0
O123 O 0.21126 0.0219 0.34956 0.0
O124 O 0.23753 0.9899 0.33097 0.0
O125 O 0.24497 1.00468 0.35786 0.0
O126 O 0.36402 0.93343 0.6287 0.0
Cd127 Cd 0.34853 0.95591 0.61535 0.0
Cd128 Cd 0.38305 0.9496 0.59035 0.0
O129 O 0.39459 0.93616 0.61654 0.0
O130 O 0.33011 0.96638 0.63758 0.0
O131 O 0.35677 0.98206 0.62729 0.0
C132 C 0.34264 0.98047 0.64021 0.0
C133 C 0.37608 0.98126 0.57671 0.0
C134 C 0.38238 0.92907 0.62948 0.0
C135 C 0.34654 0.93702 0.57379 0.0
O136 O 0.36413 0.93098 0.57682 0.0
O137 O 0.33841 0.9499 0.58552 0.0
O138 O 0.38952 0.97018 0.56829 0.0
O139 O 0.36973 0.97561 0.59378 0.0
O140 O 0.34987 0.09799 0.84909 0.0
Cd141 Cd 0.36093 0.07116 0.85571 0.0
Cd142 Cd 0.34189 0.0891 0.81322 0.0
O143 O 0.35144 0.11702 0.82405 0.0
O144 O 0.37396 0.07507 0.8821 0.0
O145 O 0.34546 0.05968 0.87944 0.0
C146 C 0.35827 0.06807 0.8907 0.0
C147 C 0.32481 0.05989 0.81422 0.0
C148 C 0.35886 0.11214 0.8406 0.0
C149 C 0.37875 0.06522 0.81092 0.0
O150 O 0.36718 0.0776 0.80258 0.0
O151 O 0.37751 0.0604 0.82967 0.0
O152 O 0.32184 0.07251 0.79978 0.0
O153 O 0.33301 0.0664 0.83016 0.0
O154 O 0.28404 0.14356 0.12177 0.0
Cd155 Cd 0.28392 0.11554 0.11533 0.0
Cd156 Cd 0.24844 0.11555 0.0968 0.0
O157 O 0.25189 0.14301 0.11534 0.0
O158 O 0.29342 0.09737 0.13827 0.0
O159 O 0.26204 0.10618 0.13474 0.0
C160 C 0.27532 0.09695 0.14504 0.0
C161 C 0.25981 0.08248 0.0868 0.0
C162 C 0.26727 0.15215 0.12197 0.0
C163 C 0.27909 0.12343 0.06927 0.0
O164 O 0.26144 0.12864 0.07334 0.0
O165 O 0.28914 0.11432 0.08291 0.0
O166 O 0.24608 0.09171 0.07721 0.0
O167 O 0.26405 0.08998 0.10344 0.0
O168 O 0.22006 0.11345 0.24119 0.0
Cd169 Cd 0.22901 0.08668 0.25146 0.0
Cd170 Cd 0.23634 0.10759 0.28621 0.0
O171 O 0.20928 0.11666 0.27102 0.0
O172 O 0.22766 0.07139 0.22596 0.0
O173 O 0.25594 0.08096 0.2387 0.0
C174 C 0.24642 0.07455 0.2235 0.0
C175 C 0.25448 0.0787 0.29814 0.0
C176 C 0.20598 0.11829 0.2525 0.0
C177 C 0.20632 0.08277 0.29543 0.0
O178 O 0.21361 0.09837 0.30243 0.0
O179 O 0.21161 0.07616 0.27794 0.0
O180 O 0.25184 0.09424 0.30895 0.0
O181 O 0.24967 0.08052 0.27976 0.0
O182 O 0.25672 0.99957 0.51873 0.0
Cd183 Cd 0.271 0.97354 0.51282 0.0
Cd184 Cd 0.27178 1.00114 0.55396 0.0
O185 O 0.24263 1.00814 0.54561 0.0
O186 O 0.26074 0.96183 0.48747 0.0
O187 O 0.28789 0.97956 0.48806 0.0
C188 C 0.27411 0.97153 0.47775 0.0
C189 C 0.30414 1.01175 0.5506 0.0
C190 C 0.2412 0.99896 0.52938 0.0
C191 C 0.27546 0.95684 0.55831 0.0
O192 O 0.27323 0.97374 0.56634 0.0
O193 O 0.27537 0.95469 0.53918 0.0
O194 O 0.29292 0.01793 0.56519 0.0
O195 O 0.29576 1.00255 0.53618 0.0
O196 O 0.39183 0.97092 0.73892 0.0
Cd197 Cd 0.38252 0.99902 0.74472 0.0
Cd198 Cd 0.39115 0.97554 0.78504 0.0
O199 O 0.41144 0.964 0.7631 0.0
O200 O 0.38224 1.01223 0.71784 0.0
O201 O 0.35504 1.00213 0.73338 0.0
C202 C 0.3636 1.00817 0.7171 0.0
C203 C 0.35816 0.98605 0.79195 0.0
C204 C 0.4089 0.96574 0.74442 0.0
C205 C 0.40619 0.01413 0.78557 0.0
O206 O 0.40672 0.99831 0.79582 0.0
O207 O 0.39734 0.01399 0.7686 0.0
O208 O 0.36722 0.97415 0.80411 0.0
O209 O 0.36627 0.98855 0.77474 0.0
O210 O 0.3704 0.09138 0.01482 0.0
Cd211 Cd 0.3434 0.10144 1.00637 0.0
Cd212 Cd 0.36084 0.09875 0.05267 0.0
O213 O 0.38834 0.10249 0.03772 0.0
O214 O 0.34739 0.11001 0.97765 0.0
O215 O 0.33136 0.08284 0.98557 0.0
C216 C 0.33975 0.09367 0.97195 0.0
C217 C 0.33584 0.07524 0.05707 0.0
C218 C 0.38465 0.10245 0.01933 0.0
C219 C 0.33443 0.13243 0.04474 0.0
O220 O 0.34732 0.12564 0.05671 0.0
O221 O 0.33209 0.1238 0.02765 0.0
O222 O 0.34863 0.07812 0.07092 0.0
O223 O 0.33949 0.08302 0.03984 0.0
O224 O 0.39815 0.18413 1.01083 0.0
Cd225 Cd 0.38168 0.20521 0.02107 0.0
Cd226 Cd 0.35656 0.21143 0.99401 0.0
O227 O 0.3811 0.19173 0.98392 0.0
O228 O 0.3997 0.22579 0.03312 0.0
O229 O 0.38907 0.22774 1.00217 0.0
C230 C 0.40075 0.23414 0.01566 0.0
C231 C 0.34569 0.2413 1.01156 0.0
C232 C 0.39375 0.1804 0.99313 0.0
C233 C 0.33731 0.18562 0.01684 0.0
O234 O 0.33566 0.19121 0.99898 0.0
O235 O 0.35218 0.19142 0.0273 0.0
O236 O 0.34272 0.23961 0.99266 0.0
O237 O 0.35575 0.2275 0.01981 0.0
O238 O 0.83681 0.41399 0.11703 0.0
Cd239 Cd 0.8351 0.39121 0.09861 0.0
Cd240 Cd 0.80748 0.38038 0.12239 0.0
O241 O 0.83236 0.39113 0.13997 0.0
O242 O 0.86156 0.38516 0.08477 0.0
O243 O 0.8504 0.3681 0.11073 0.0
C244 C 0.86464 0.37165 0.09827 0.0
C245 C 0.79926 0.35256 0.10126 0.0
C246 C 0.84008 0.40773 0.13442 0.0
C247 C 0.79363 0.40335 0.0912 0.0
O248 O 0.79191 0.40436 0.10994 0.0
O249 O 0.80798 0.39298 0.08392 0.0
O250 O 0.78843 0.35695 0.11664 0.0
O251 O 0.8161 0.36088 0.10032 0.0
O252 O 0.95751 0.62549 0.37264 0.0
Cd253 Cd 0.9792 0.61486 0.35515 0.0
Cd254 Cd 0.97644 0.58471 0.3856 0.0
O255 O 0.96211 0.60919 0.40096 0.0
O256 O 0.98592 0.6387 0.33778 0.0
O257 O 1.00521 0.62793 0.36189 0.0
C258 C 1.00092 0.64167 0.34912 0.0
C259 C 1.00712 0.57339 0.3718 0.0
C260 C 0.95403 0.62354 0.39109 0.0
C261 C 0.96052 0.5734 0.34873 0.0
O262 O 0.9565 0.57213 0.36714 0.0
O263 O 0.97214 0.58708 0.34208 0.0
O264 O 0.99822 0.56282 0.38525 0.0
O265 O 1.00093 0.5913 0.3698 0.0
O266 O 0.75173 0.7675 0.58811 0.0
Cd267 Cd 0.74653 0.73968 0.57845 0.0
Cd268 Cd 0.78802 0.76866 0.57734 0.0
O269 O 0.77552 0.77881 0.6044 0.0
O270 O 0.7204 0.72923 0.58871 0.0
O271 O 0.72294 0.7447 0.55994 0.0
C272 C 0.71171 0.73796 0.57414 0.0
C273 C 0.79299 0.77784 0.54409 0.0
C274 C 0.75908 0.76999 0.60502 0.0
C275 C 0.79198 0.7233 0.58051 0.0
O276 O 0.79903 0.7407 0.5808 0.0
O277 O 0.77306 0.72027 0.57932 0.0
O278 O 0.80517 0.78327 0.55772 0.0
O279 O 0.77642 0.77 0.54992 0.0
O280 O 0.09335 1.01009 0.38557 0.0
Cd281 Cd 0.10975 0.99913 0.36259 0.0
Cd282 Cd 0.09443 0.04728 0.3704 0.0
O283 O 0.09514 0.0378 0.40002 0.0
O284 O 0.12128 0.97223 0.36998 0.0
O285 O 0.09509 0.97547 0.35104 0.0
C286 C 0.10653 0.964 0.3615 0.0
C287 C 0.07377 0.049 0.34322 0.0
C288 C 0.10191 0.02025 0.39852 0.0
C289 C 0.13297 0.03999 0.35024 0.0
O290 O 0.12217 0.05217 0.35993 0.0
O291 O 0.12907 0.02121 0.34908 0.0
O292 O 0.07524 0.06402 0.35503 0.0
O293 O 0.08124 0.03213 0.349 0.0
O294 O 0.23335 0.90655 0.54131 0.0
Cd295 Cd 0.24545 0.88063 0.5373 0.0
Cd296 Cd 0.26294 0.88318 0.50119 0.0
O297 O 0.24367 0.90938 0.50991 0.0
O298 O 0.2258 0.85728 0.54143 0.0
O299 O 0.22949 0.87313 0.51294 0.0
C300 C 0.21997 0.86018 0.52333 0.0
C301 C 0.27985 0.85263 0.51445 0.0
C302 C 0.23457 0.91664 0.52541 0.0
C303 C 0.28912 0.89719 0.52778 0.0
O304 O 0.28385 0.90141 0.5103 0.0
O305 O 0.27795 0.88612 0.53896 0.0
O306 O 0.28781 0.86363 0.50099 0.0
O307 O 0.26182 0.85686 0.51834 0.0
O308 O 1.01097 0.51263 0.24701 0.0
Cd309 Cd 0.99248 0.50694 0.27009 0.0
Cd310 Cd 1.011 0.55175 0.26125 0.0
O311 O 0.01206 0.5404 0.23232 0.0
O312 O 0.98093 0.47967 0.26685 0.0
O313 O 1.00612 0.4853 0.2865 0.0
C314 C 0.99532 0.47262 0.27736 0.0
C315 C 0.02551 0.5505 0.29264 0.0
C316 C 1.00402 0.52354 0.23342 0.0
C317 C 0.9706 0.55119 0.27459 0.0
O318 O 0.98338 0.56198 0.26599 0.0
O319 O 0.97337 0.53226 0.27762 0.0
O320 O 0.02943 0.56484 0.28025 0.0
O321 O 0.01636 0.53529 0.28578 0.0
O322 O 0.59067 0.59385 0.7268 0.0
Cd323 Cd 0.60897 0.60259 0.74849 0.0
Cd324 Cd 0.59621 0.55549 0.74282 0.0
O325 O 0.59304 0.56567 0.71344 0.0
O326 O 0.61793 0.63074 0.74369 0.0
O327 O 0.59324 0.62321 0.76423 0.0
C328 C 0.60303 0.6366 0.75445 0.0
C329 C 0.58184 0.55558 0.7748 0.0
C330 C 0.59864 0.58355 0.71326 0.0
C331 C 0.63606 0.5617 0.75477 0.0
O332 O 0.62497 0.54917 0.74674 0.0
O333 O 0.63079 0.58017 0.75708 0.0
O334 O 0.57991 0.54048 0.76318 0.0
O335 O 0.58882 0.5717 0.76695 0.0
O336 O 0.48211 0.85361 0.68306 0.0
Cd337 Cd 0.50287 0.84987 0.70361 0.0
Cd338 Cd 0.47881 0.82473 0.7167 0.0
O339 O 0.46101 0.85065 0.70775 0.0
O340 O 0.51639 0.87604 0.71108 0.0
O341 O 0.4919 0.86332 0.72874 0.0
C342 C 0.50377 0.87785 0.72571 0.0
C343 C 0.49851 0.81524 0.74514 0.0
C344 C 0.46541 0.85797 0.69056 0.0
C345 C 0.50695 0.80758 0.69042 0.0
O346 O 0.48825 0.80743 0.69284 0.0
O347 O 0.51675 0.8217 0.698 0.0
O348 O 0.4812 0.80768 0.74266 0.0
O349 O 0.50343 0.82917 0.73318 0.0
O350 O 0.48488 0.22867 0.94652 0.0
Cd351 Cd 0.49425 0.25578 0.95545 0.0
Cd352 Cd 0.52401 0.21762 0.94665 0.0
O353 O 0.50101 0.2088 0.92767 0.0
O354 O 0.46971 0.27243 0.9611 0.0
O355 O 0.48649 0.25657 0.98446 0.0
C356 C 0.47042 0.2657 0.97919 0.0
C357 C 0.5307 0.22395 0.9803 0.0
C358 C 0.48652 0.2209 0.92956 0.0
C359 C 0.53819 0.25731 0.93571 0.0
O360 O 0.53915 0.23897 0.93156 0.0
O361 O 0.52373 0.26481 0.94606 0.0
O362 O 0.54127 0.21097 0.97067 0.0
O363 O 0.51477 0.23024 0.972 0.0
O364 O 0.10709 0.23862 0.20624 0.0
Cd365 Cd 0.08737 0.24517 0.22754 0.0
Cd366 Cd 0.10822 0.27724 0.22781 0.0
O367 O 0.13077 0.25545 0.22021 0.0
O368 O 0.07491 0.21875 0.23457 0.0
O369 O 0.09694 0.23307 0.25349 0.0
C370 C 0.08681 0.2175 0.24947 0.0
C371 C 0.09201 0.29052 0.25645 0.0
C372 C 0.12535 0.24138 0.20886 0.0
C373 C 0.07294 0.28264 0.20624 0.0
O374 O 0.09115 0.28665 0.2039 0.0
O375 O 0.06863 0.26921 0.21926 0.0
O376 O 0.10634 0.30001 0.24778 0.0
O377 O 0.08975 0.27237 0.25133 0.0
O378 O 0.13006 0.81586 0.4404 0.0
Cd379 Cd 0.12087 0.8189 0.46803 0.0
Cd380 Cd 0.10589 0.85626 0.46492 0.0
O381 O 0.12439 0.84839 0.4385 0.0
O382 O 0.14085 0.81161 0.49022 0.0
O383 O 0.14009 0.84078 0.47516 0.0
C384 C 0.14867 0.82891 0.48756 0.0
C385 C 0.09143 0.84822 0.4977 0.0
C386 C 0.13067 0.83197 0.43055 0.0
C387 C 0.07702 0.82918 0.45588 0.0
O388 O 0.08341 0.84561 0.44957 0.0
O389 O 0.08812 0.81818 0.4671 0.0
O390 O 0.08397 0.86205 0.48668 0.0
O391 O 0.10807 0.84123 0.49176 0.0
O392 O 0.50126 0.25966 0.8523 0.0
Cd393 Cd 0.51965 0.2559 0.87549 0.0
Cd394 Cd 0.50575 0.29805 0.85551 0.0
O395 O 0.47909 0.28192 0.85435 0.0
O396 O 0.51635 0.22863 0.88686 0.0
O397 O 0.54 0.23565 0.86518 0.0
C398 C 0.52952 0.22237 0.87432 0.0
C399 C 0.53642 0.30189 0.83928 0.0
C400 C 0.48366 0.26387 0.85717 0.0
C401 C 0.51423 0.2984 0.89836 0.0
O402 O 0.50896 0.30853 0.88329 0.0
O403 O 0.51815 0.27963 0.89729 0.0
O404 O 0.52178 0.31409 0.83588 0.0
O405 O 0.53251 0.28584 0.84919 0.0
O406 O 0.10621 0.23049 0.16519 0.0
Cd407 Cd 0.10491 0.25396 0.14709 0.0
Cd408 Cd 0.0799 0.23156 0.13145 0.0
O409 O 0.10654 0.21391 0.13767 0.0
O410 O 0.13174 0.26748 0.14338 0.0
O411 O 0.1192 0.24759 0.12105 0.0
C412 C 0.13399 0.25778 0.12689 0.0
C413 C 0.07097 0.25348 0.10437 0.0
C414 C 0.11274 0.21588 0.15546 0.0
C415 C 0.06322 0.25711 0.16059 0.0
O416 O 0.06231 0.23883 0.15626 0.0
O417 O 0.07785 0.26744 0.15409 0.0
O418 O 0.06364 0.23588 0.10563 0.0
O419 O 0.0842 0.25774 0.11697 0.0
O420 O 0.09964 0.8401 0.35106 0.0
Cd421 Cd 0.08872 0.84626 0.37858 0.0
Cd422 Cd 0.0835 0.80569 0.34966 0.0
O423 O 0.11215 0.81337 0.34007 0.0
O424 O 0.10214 0.87048 0.38915 0.0
O425 O 0.07275 0.87221 0.37544 0.0
C426 C 0.08821 0.88134 0.38168 0.0
C427 C 0.05032 0.80813 0.34187 0.0
C428 C 0.11492 0.82915 0.34963 0.0
C429 C 0.08414 0.80068 0.39438 0.0
O430 O 0.08445 0.79329 0.37706 0.0
O431 O 0.08508 0.81966 0.39723 0.0
O432 O 0.06132 0.79376 0.33488 0.0
O433 O 0.05912 0.82292 0.35005 0.0
O434 O 0.49848 0.87239 0.65325 0.0
Cd435 Cd 0.49598 0.84556 0.64069 0.0
Cd436 Cd 0.52084 0.86057 0.61868 0.0
O437 O 0.49611 0.88201 0.6228 0.0
O438 O 0.46745 0.83497 0.64134 0.0
O439 O 0.4812 0.84756 0.61425 0.0
C440 C 0.46554 0.84088 0.62304 0.0
C441 C 0.52788 0.8331 0.59674 0.0
C442 C 0.4918 0.88499 0.64119 0.0
C443 C 0.53773 0.8408 0.65212 0.0
O444 O 0.53984 0.85718 0.64282 0.0
O445 O 0.52185 0.83107 0.64986 0.0
O446 O 0.53534 0.85042 0.59335 0.0
O447 O 0.51492 0.83198 0.61083 0.0
O448 O 0.75342 0.50252 0.84994 0.0
Cd449 Cd 0.73364 0.5253 0.85184 0.0
Cd450 Cd 0.74988 0.50568 0.80944 0.0
O451 O 0.75303 0.48051 0.82783 0.0
O452 O 0.72204 0.52759 0.87946 0.0
O453 O 0.74723 0.54563 0.86887 0.0
C454 C 0.73645 0.53917 0.88358 0.0
C455 C 0.76431 0.5363 0.8019 0.0
C456 C 0.74689 0.48593 0.84486 0.0
C457 C 0.70999 0.52083 0.80956 0.0
O458 O 0.72145 0.5085 0.80088 0.0
O459 O 0.71399 0.52827 0.82676 0.0
O460 O 0.76743 0.5211 0.79052 0.0
O461 O 0.75612 0.53304 0.81912 0.0
O462 O 0.85163 0.45474 0.10841 0.0
Cd463 Cd 0.83161 0.47655 0.10876 0.0
Cd464 Cd 0.85392 0.48921 0.0816 0.0
O465 O 0.87218 0.47925 0.10676 0.0
O466 O 0.82017 0.47936 0.13694 0.0
O467 O 0.84066 0.50111 0.12347 0.0
C468 C 0.83093 0.49499 0.13898 0.0
C469 C 0.83268 0.51651 0.07158 0.0
C470 C 0.86809 0.46167 0.11303 0.0
C471 C 0.82479 0.46471 0.06718 0.0
O472 O 0.84347 0.46559 0.06514 0.0
O473 O 0.81644 0.47295 0.08235 0.0
O474 O 0.84959 0.51335 0.06275 0.0
O475 O 0.82982 0.50708 0.08797 0.0
O476 O 0.899 0.62386 0.36732 0.0
Cd477 Cd 0.87759 0.60497 0.36354 0.0
Cd478 Cd 0.86867 0.62826 0.33571 0.0
O479 O 0.87579 0.64617 0.36179 0.0
O480 O 0.86985 0.5941 0.39089 0.0
O481 O 0.85232 0.61725 0.37522 0.0
C482 C 0.8558 0.60747 0.39146 0.0
C483 C 0.84569 0.60567 0.32127 0.0
C484 C 0.89168 0.64074 0.37088 0.0
C485 C 0.89629 0.6002 0.32352 0.0
O486 O 0.89472 0.6189 0.32236 0.0
O487 O 0.88647 0.59081 0.33709 0.0
O488 O 0.84926 0.62267 0.31293 0.0
O489 O 0.85123 0.60367 0.33936 0.0
O490 O 0.76292 0.68268 0.6136 0.0
Cd491 Cd 0.76938 0.6566 0.60028 0.0
Cd492 Cd 0.73335 0.66984 0.58003 0.0
O493 O 0.73136 0.68756 0.60642 0.0
O494 O 0.78693 0.64166 0.62048 0.0
O495 O 0.75579 0.63406 0.61549 0.0
C496 C 0.77152 0.63153 0.62576 0.0
C497 C 0.73743 0.63778 0.56566 0.0
C498 C 0.74698 0.69259 0.61583 0.0
C499 C 0.76891 0.67585 0.55796 0.0
O500 O 0.75344 0.68503 0.56379 0.0
O501 O 0.77583 0.66108 0.56832 0.0
O502 O 0.72581 0.65063 0.5573 0.0
O503 O 0.74259 0.64186 0.58329 0.0
O504 O 0.69428 0.58532 0.71204 0.0
Cd505 Cd 0.72004 0.58801 0.72397 0.0
Cd506 Cd 0.71524 0.62099 0.74561 0.0
O507 O 0.68851 0.61369 0.72754 0.0
O508 O 0.74192 0.5795 0.70461 0.0
O509 O 0.73295 0.61098 0.70897 0.0
C510 C 0.74355 0.598 0.69935 0.0
C511 C 0.74554 0.60886 0.762 0.0
C512 C 0.68248 0.59926 0.71662 0.0
C513 C 0.70363 0.58994 0.76888 0.0
O514 O 0.69897 0.60803 0.76682 0.0
O515 O 0.71425 0.58099 0.7554 0.0
O516 O 0.73411 0.62205 0.77002 0.0
O517 O 0.74193 0.60506 0.74387 0.0
O518 O 0.74714 0.47439 0.97473 0.0
Cd519 Cd 0.76184 0.49487 0.98682 0.0
Cd520 Cd 0.73578 0.50537 1.01345 0.0
O521 O 0.72112 0.48857 0.98949 0.0
O522 O 0.77595 0.50961 0.96458 0.0
O523 O 0.74669 0.51901 0.9771 0.0
C524 C 0.75996 0.5205 0.96308 0.0
C525 C 0.76082 0.52648 0.02804 0.0
C526 C 0.72863 0.4757 0.97718 0.0
C527 C 0.75709 0.4754 0.0298 0.0
O528 O 0.73942 0.48149 0.03112 0.0
O529 O 0.76859 0.48194 0.01572 0.0
O530 O 0.74325 0.52515 0.03583 0.0
O531 O 0.76305 0.51913 1.01071 0.0
O532 O 0.90886 0.53283 0.22361 0.0
Cd533 Cd 0.8835 0.53528 0.23679 0.0
Cd534 Cd 0.87706 0.50864 0.26191 0.0
O535 O 0.90807 0.50976 0.24716 0.0
O536 O 0.86322 0.54448 0.21656 0.0
O537 O 0.86716 0.51295 0.22553 0.0
C538 C 0.85921 0.52594 0.21365 0.0
C539 C 0.85183 0.53277 0.2766 0.0
C540 C 0.91779 0.51968 0.2336 0.0
C541 C 0.89795 0.5311 0.28365 0.0
O542 O 0.89484 0.5127 0.28478 0.0
O543 O 0.89254 0.54119 0.26803 0.0
O544 O 0.85773 0.51702 0.28565 0.0
O545 O 0.85738 0.53382 0.25843 0.0
O546 O 0.87146 0.64797 0.50764 0.0
Cd547 Cd 0.8425 0.64881 0.50229 0.0
Cd548 Cd 0.84216 0.62204 0.52815 0.0
O549 O 0.86631 0.61642 0.50652 0.0
O550 O 0.83743 0.65594 0.47314 0.0
O551 O 0.83382 0.62567 0.4852 0.0
C552 C 0.8344 0.6373 0.46985 0.0
C553 C 0.80839 0.61199 0.53009 0.0
C554 C 0.87773 0.63107 0.50267 0.0
C555 C 0.83604 0.66087 0.54455 0.0
O556 O 0.84467 0.64461 0.54925 0.0
O557 O 0.83133 0.66395 0.52655 0.0
O558 O 0.82216 0.60204 0.53917 0.0
O559 O 0.81408 0.62584 0.5181 0.0
O560 O 0.87919 0.69323 0.49084 0.0
Cd561 Cd 0.86871 0.71982 0.49934 0.0
Cd562 Cd 0.84594 0.71717 0.46826 0.0
O563 O 0.87077 0.69832 0.45947 0.0
O564 O 0.8904 0.73647 0.51201 0.0
O565 O 0.88329 0.73841 0.48018 0.0
C566 C 0.89465 0.74344 0.49445 0.0
C567 C 0.83114 0.74894 0.47499 0.0
C568 C 0.8806 0.68844 0.47265 0.0
C569 C 0.82541 0.7063 0.50215 0.0
O570 O 0.82908 0.69925 0.48514 0.0
O571 O 0.83792 0.71813 0.50997 0.0
O572 O 0.82437 0.73812 0.46084 0.0
O573 O 0.84775 0.7435 0.48227 0.0
O574 O 0.35131 0.88716 0.63233 0.0
Cd575 Cd 0.35459 0.87854 0.60411 0.0
Cd576 Cd 0.32793 0.85631 0.61559 0.0
O577 O 0.35091 0.85549 0.63802 0.0
O578 O 0.38333 0.88191 0.59499 0.0
O579 O 0.37069 0.85269 0.60239 0.0
C580 C 0.38617 0.86307 0.59818 0.0
C581 C 0.32126 0.83904 0.5857 0.0
C582 C 0.35591 0.87284 0.64356 0.0
C583 C 0.31349 0.89281 0.59966 0.0
O584 O 0.31012 0.88185 0.61478 0.0
O585 O 0.32993 0.89085 0.59026 0.0
O586 O 0.3125 0.83424 0.60228 0.0
O587 O 0.33567 0.85125 0.58674 0.0
O588 O 0.45093 0.13854 0.83981 0.0
Cd589 Cd 0.47713 0.12753 0.83197 0.0
Cd590 Cd 0.48575 0.09836 0.85451 0.0
O591 O 0.45499 0.1109 0.85718 0.0
O592 O 0.49662 0.14901 0.82427 0.0
O593 O 0.49546 0.13489 0.85417 0.0
C594 C 0.50236 0.14874 0.84263 0.0
C595 C 0.50928 0.08536 0.82958 0.0
C596 C 0.44364 0.12519 0.85088 0.0
C597 C 0.46368 0.08201 0.82723 0.0
O598 O 0.46732 0.07799 0.84519 0.0
O599 O 0.46886 0.09883 0.81945 0.0
O600 O 0.50452 0.07558 0.84543 0.0
O601 O 0.50381 0.10372 0.82931 0.0
O602 O 0.25867 0.24643 0.12679 0.0
Cd603 Cd 0.24791 0.23347 0.10217 0.0
Cd604 Cd 0.29684 0.24586 0.1089 0.0
O605 O 0.28755 0.24459 0.13863 0.0
O606 O 0.22007 0.2237 0.1067 0.0
O607 O 0.22665 0.25185 0.09095 0.0
C608 C 0.21372 0.24018 0.09906 0.0
C609 C 0.30836 0.26414 0.08211 0.0
C610 C 0.27053 0.23685 0.13777 0.0
C611 C 0.28695 0.20861 0.08918 0.0
O612 O 0.29911 0.21802 0.0995 0.0
O613 O 0.26856 0.2139 0.08727 0.0
O614 O 0.31997 0.25969 0.0968 0.0
O615 O 0.28943 0.26173 0.08478 0.0
O616 O 0.65281 0.48842 0.84471 0.0
Cd617 Cd 0.62602 0.4978 0.83781 0.0
Cd618 Cd 0.63142 0.52756 0.86936 0.0
O619 O 0.65658 0.50664 0.8716 0.0
O620 O 0.61356 0.47428 0.82398 0.0
O621 O 0.6052 0.48329 0.85449 0.0
C622 C 0.60391 0.47058 0.84038 0.0
C623 C 0.60026 0.53786 0.85565 0.0
C624 C 0.66323 0.4936 0.85914 0.0
C625 C 0.64095 0.54146 0.83059 0.0
O626 O 0.64639 0.54256 0.84845 0.0
O627 O 0.63006 0.52701 0.82471 0.0
O628 O 0.61037 0.54999 0.86604 0.0
O629 O 0.60569 0.51962 0.8568 0.0
O630 O 0.71314 0.39858 1.00188 0.0
Cd631 Cd 0.72542 0.37807 0.01707 0.0
Cd632 Cd 0.75609 0.36836 0.99582 0.0
O633 O 0.73462 0.38779 0.97907 0.0
O634 O 0.70409 0.36001 0.02815 0.0
O635 O 0.71988 0.35461 0.99947 0.0
C636 C 0.70528 0.35049 1.01144 0.0
C637 C 0.76655 0.34664 0.02355 0.0
C638 C 0.71997 0.3994 0.98437 0.0
C639 C 0.76876 0.39802 0.01832 0.0
O640 O 0.77371 0.39131 1.00153 0.0
O641 O 0.75264 0.39208 0.02703 0.0
O642 O 0.77683 0.34779 1.00723 0.0
O643 O 0.74942 0.35477 0.02306 0.0
O644 O 0.49248 0.99344 0.72609 0.0
Cd645 Cd 0.48035 0.98868 0.75319 0.0
Cd646 Cd 0.48759 0.0323 0.72919 0.0
O647 O 0.48327 0.01403 0.70428 0.0
O648 O 0.46949 0.96111 0.75505 0.0
O649 O 0.49933 0.96821 0.76539 0.0
C650 C 0.48678 0.95491 0.76028 0.0
C651 C 0.50781 0.04467 0.75412 0.0
C652 C 0.48115 0.99685 0.71171 0.0
C653 C 0.45266 0.02873 0.75435 0.0
O654 O 0.46032 0.03753 0.73951 0.0
O655 O 0.45994 0.01246 0.76199 0.0
O656 O 0.5044 0.05498 0.73809 0.0
O657 O 0.50278 0.02614 0.75415 0.0
O658 O 0.11457 0.10215 0.23412 0.0
Cd659 Cd 0.12031 0.10526 0.26323 0.0
Cd660 Cd 0.11194 0.06207 0.24044 0.0
O661 O 0.12603 0.07803 0.21735 0.0
O662 O 0.12886 0.13333 0.26826 0.0
O663 O 0.09837 0.12291 0.2742 0.0
C664 C 0.11047 0.13759 0.27225 0.0
C665 C 0.08376 0.0624 0.26105 0.0
C666 C 0.12865 0.09547 0.22358 0.0
C667 C 0.13915 0.06066 0.27338 0.0
O668 O 0.13332 0.05131 0.25831 0.0
O669 O 0.13449 0.07917 0.27651 0.0
O670 O 0.08647 0.04831 0.24827 0.0
O671 O 0.09483 0.07776 0.25926 0.0
C672 C 0.03987 0.30171 0.2753 0.0
C673 C 0.03958 0.32257 0.27538 0.0
H674 H 0.05678 0.27517 0.26979 0.0
C675 C 0.05796 0.33233 0.27402 0.0
H676 H 0.02614 0.2936 0.27621 0.0
C677 C 0.07564 0.32174 0.26989 0.0
C678 C 0.0755 0.30105 0.26741 0.0
H679 H 0.05845 0.34839 0.27403 0.0
H680 H 0.08907 0.32996 0.26698 0.0
C681 C 0.05759 0.2911 0.27146 0.0
C682 C 0.08912 0.82089 0.52282 0.0
C683 C 0.07936 0.8357 0.51155 0.0
H684 H 0.08816 0.79138 0.53476 0.0
C685 C 0.05885 0.83392 0.50878 0.0
H686 H 0.10488 0.82183 0.52543 0.0
C687 C 0.04914 0.81632 0.51429 0.0
C688 C 0.05983 0.80015 0.52245 0.0
H689 H 0.05082 0.84496 0.50016 0.0
H690 H 0.03386 0.81459 0.50999 0.0
C691 C 0.07949 0.80329 0.52815 0.0
C692 C 0.54951 0.80827 0.76596 0.0
C693 C 0.55164 0.78755 0.76504 0.0
H694 H 0.53048 0.83344 0.76076 0.0
C695 C 0.53434 0.7762 0.76318 0.0
H696 H 0.56244 0.81751 0.76716 0.0
C697 C 0.51588 0.78536 0.75952 0.0
C698 C 0.51439 0.80607 0.75754 0.0
H699 H 0.53543 0.76018 0.76236 0.0
H700 H 0.50344 0.77614 0.7559 0.0
C701 C 0.53111 0.81742 0.76217 0.0
C702 C 0.52586 0.24593 1.00985 0.0
C703 C 0.53888 0.23597 0.99668 0.0
H704 H 0.52065 0.27146 0.02804 0.0
C705 C 0.55863 0.24232 0.99536 0.0
H706 H 0.5106 0.24131 1.01135 0.0
C707 C 0.56444 0.25975 1.00489 0.0
C708 C 0.55066 0.27114 0.01606 0.0
H709 H 0.56901 0.23518 0.98518 0.0
H710 H 0.5792 0.26525 1.0019 0.0
C711 C 0.53168 0.26326 0.01947 0.0
C712 C 1.0022 0.78077 0.34728 0.0
C713 C 0.99305 0.79106 0.36314 0.0
H714 H 0.02735 0.77836 0.32762 0.0
C715 C 1.00029 0.80989 0.3679 0.0
H716 H 0.99709 0.76618 0.3433 0.0
C717 C 0.01791 0.81685 0.359 0.0
C718 C 0.02858 0.80514 0.34512 0.0
H719 H 0.99386 0.81809 0.38024 0.0
H720 H 0.0242 0.83035 0.36461 0.0
C721 C 0.01972 0.78773 0.33836 0.0
C722 C 0.56633 0.79506 0.58023 0.0
C723 C 0.55676 0.77709 0.58505 0.0
H724 H 0.56468 0.8269 0.5798 0.0
C725 C 0.53619 0.7779 0.58874 0.0
H726 H 0.58215 0.7951 0.57725 0.0
C727 C 0.52615 0.79631 0.59028 0.0
C728 C 0.53638 0.81435 0.58807 0.0
H729 H 0.52829 0.76452 0.59268 0.0
H730 H 0.51076 0.79642 0.59509 0.0
C731 C 0.55628 0.81342 0.58169 0.0
C732 C 0.59106 0.30535 0.84979 0.0
C733 C 0.59353 0.32599 0.84812 0.0
H734 H 0.57096 0.2811 0.84736 0.0
C735 C 0.57921 0.33702 0.83748 0.0
H736 H 0.60171 0.29633 0.85785 0.0
C737 C 0.56133 0.32841 0.83198 0.0
C738 C 0.55743 0.30848 0.83674 0.0
H739 H 0.5807 0.35292 0.83564 0.0
H740 H 0.54978 0.33798 0.82604 0.0
C741 C 0.57322 0.29664 0.84393 0.0
C742 C 0.06712 0.3043 0.08106 0.0
C743 C 0.04649 0.30759 0.08118 0.0
H744 H 0.09105 0.2843 0.08796 0.0
C745 C 0.03414 0.29106 0.08428 0.0
H746 H 0.07716 0.31652 0.0787 0.0
C747 C 0.04222 0.27235 0.08947 0.0
C748 C 0.06279 0.26983 0.09172 0.0
H749 H 0.01818 0.29296 0.08458 0.0
H750 H 0.03227 0.26052 0.0937 0.0
C751 C 0.07514 0.28573 0.08638 0.0
C752 C 0.26254 0.05666 0.32771 0.0
C753 C 0.25813 0.0586 0.30739 0.0
H754 H 0.26343 0.03771 0.35348 0.0
C755 C 0.25376 0.04117 0.29693 0.0
H756 H 0.26589 0.06966 0.33633 0.0
C757 C 0.2522 0.02272 0.30684 0.0
C758 C 0.25511 0.02109 0.3275 0.0
H759 H 0.25009 0.04199 0.28131 0.0
H760 H 0.24729 1.01005 0.29854 0.0
C761 C 0.26117 0.03821 0.33757 0.0
C762 C 0.35315 1.01046 0.57668 0.0
C763 C 0.36349 0.9958 0.56574 0.0
H764 H 0.32636 0.02752 0.5802 0.0
C765 C 0.35628 0.99077 0.54695 0.0
H766 H 0.35821 0.01455 0.59128 0.0
C767 C 0.33775 0.99805 0.54064 0.0
C768 C 0.32612 1.01056 0.55298 0.0
H769 H 0.36364 0.97928 0.5383 0.0
H770 H 0.33168 0.99214 0.52714 0.0
C771 C 0.33473 0.0178 0.57036 0.0
C772 C 0.33302 0.01296 0.78484 0.0
C773 C 0.34277 1.00076 0.79885 0.0
H774 H 0.31893 0.041 0.77878 0.0
C775 C 0.34164 1.0063 0.81897 0.0
H776 H 0.33349 1.00919 0.76922 0.0
C777 C 0.33331 0.02474 0.8245 0.0
C778 C 0.32582 0.03807 0.81006 0.0
H779 H 0.34903 0.99741 0.8302 0.0
H780 H 0.33455 0.02932 0.83983 0.0
C781 C 0.32457 0.03131 0.79037 0.0
C782 C 0.29111 0.06258 0.08854 0.0
C783 C 0.27585 0.0707 0.07672 0.0
H784 H 0.32238 0.05768 0.09165 0.0
C785 C 0.28003 0.07411 0.05644 0.0
H786 H 0.28841 0.05958 0.1042 0.0
C787 C 0.29965 0.07293 0.04917 0.0
C788 C 0.31542 0.06828 0.06205 0.0
H789 H 0.26876 0.08036 0.04684 0.0
H790 H 0.30262 0.07797 0.0341 0.0
C791 C 0.31072 0.06163 0.08138 0.0
C792 C 0.33761 0.26842 0.05897 0.0
C793 C 0.31701 0.26654 0.06158 0.0
H794 H 0.36296 0.26262 0.04024 0.0
C795 C 0.30573 0.26193 0.04475 0.0
H796 H 0.34682 0.27198 0.07146 0.0
C797 C 0.31509 0.25666 0.02662 0.0
C798 C 0.33588 0.25599 0.02497 0.0
H799 H 0.28983 0.26023 0.04613 0.0
H800 H 0.30616 0.25079 0.01484 0.0
C801 C 0.3469 0.2632 0.04092 0.0
C802 C 0.76269 0.34126 0.06058 0.0
C803 C 0.7751 0.34124 0.04344 0.0
H804 H 0.76042 0.3444 0.09233 0.0
C805 C 0.79569 0.34053 0.0463 0.0
H806 H 0.74673 0.34182 0.05908 0.0
C807 C 0.80355 0.34185 0.06554 0.0
C808 C 0.79109 0.34402 0.08252 0.0
H809 H 0.80576 0.34066 0.03362 0.0
H810 H 0.81948 0.34287 0.06691 0.0
C811 C 0.77055 0.34265 0.0798 0.0
C812 C 0.0336 0.57165 0.32212 0.0
C813 C 0.02714 0.55344 0.31466 0.0
H814 H 0.03292 0.59202 0.34644 0.0
C815 C 0.01839 0.53994 0.32823 0.0
H816 H 0.04041 0.58246 0.31226 0.0
C817 C 0.01423 0.5454 0.34806 0.0
C818 C 0.01864 0.56453 0.3548 0.0
H819 H 0.01314 0.52578 0.32312 0.0
H820 H 1.00572 0.53539 0.3574 0.0
C821 C 0.02938 0.57712 0.34186 0.0
C822 C 0.79863 0.75849 0.49133 0.0
C823 C 0.81862 0.76284 0.48717 0.0
H824 H 0.77458 0.76009 0.51258 0.0
C825 C 0.82811 0.77624 0.49973 0.0
H826 H 0.79092 0.74796 0.48226 0.0
C827 C 0.81886 0.78302 0.51727 0.0
C828 C 0.79979 0.77661 0.52278 0.0
H829 H 0.84352 0.77988 0.49707 0.0
H830 H 0.8274 0.79182 0.52736 0.0
C831 C 0.7893 0.76535 0.50892 0.0
C832 C 0.07147 0.03951 0.28798 0.0
C833 C 0.07317 0.05893 0.28035 0.0
H834 H 0.07007 0.02101 0.31406 0.0
C835 C 0.06987 0.07486 0.29343 0.0
H836 H 0.07401 0.02686 0.2784 0.0
C837 C 0.06745 0.0715 0.31394 0.0
C838 C 0.06853 0.05213 0.32189 0.0
H839 H 0.07101 0.09002 0.28809 0.0
H840 H 0.06677 0.08422 0.32367 0.0
C841 C 0.0693 0.03614 0.30854 0.0
C842 C 0.32267 0.84018 0.54821 0.0
C843 C 0.31241 0.83494 0.56588 0.0
H844 H 0.32051 0.84955 0.51768 0.0
C845 C 0.29223 0.83036 0.56451 0.0
H846 H 0.33828 0.84368 0.54861 0.0
C847 C 0.28204 0.83359 0.54666 0.0
C848 C 0.29175 0.84158 0.52973 0.0
H849 H 0.2838 0.82619 0.57769 0.0
H850 H 0.26612 0.83173 0.5468 0.0
C851 C 0.31246 0.84348 0.53034 0.0
C852 C 0.58735 0.56801 0.80968 0.0
C853 C 0.58035 0.55315 0.79701 0.0
H854 H 0.59858 0.5751 0.83844 0.0
C855 C 0.57568 0.53464 0.80559 0.0
H856 H 0.59118 0.58246 0.80371 0.0
C857 C 0.57983 0.53045 0.82565 0.0
C858 C 0.58884 0.54463 0.83776 0.0
H859 H 0.57027 0.52279 0.79644 0.0
H860 H 0.5776 0.51548 0.83114 0.0
C861 C 0.5915 0.56382 0.82977 0.0
C862 C 0.77182 0.56042 0.77398 0.0
C863 C 0.76559 0.55704 0.79376 0.0
H864 H 0.771 0.57983 0.74857 0.0
C865 C 0.75678 0.57304 0.80418 0.0
H866 H 0.77866 0.54856 0.76543 0.0
C867 C 0.75237 0.59113 0.79446 0.0
C868 C 0.75666 0.59369 0.77405 0.0
H869 H 0.75171 0.57108 0.81942 0.0
H870 H 0.74391 0.60233 0.80248 0.0
C871 C 0.76745 0.57848 0.76429 0.0
C872 C 0.79772 0.53158 0.03005 0.0
C873 C 0.77904 0.53081 0.0398 0.0
H874 H 0.82933 0.52816 0.03232 0.0
C875 C 0.77879 0.52947 0.06068 0.0
H876 H 0.79861 0.53254 0.01398 0.0
C877 C 0.79656 0.52697 0.07125 0.0
C878 C 0.81513 0.52575 0.06128 0.0
H879 H 0.76483 0.5286 0.06876 0.0
H880 H 0.79557 0.52442 0.08715 0.0
C881 C 0.81548 0.52911 0.04061 0.0
C882 C 0.8421 0.5875 0.28854 0.0
C883 C 0.8413 0.58733 0.30948 0.0
H884 H 0.84559 0.57056 0.26175 0.0
C885 C 0.84061 0.56863 0.31913 0.0
H886 H 0.84291 0.60145 0.28048 0.0
C887 C 0.84234 0.55081 0.30838 0.0
C888 C 0.84468 0.55102 0.28754 0.0
H889 H 0.84015 0.56771 0.33522 0.0
H890 H 0.84313 0.53691 0.31655 0.0
C891 C 0.84371 0.56964 0.27775 0.0
C892 C 0.78201 0.60522 0.55593 0.0
C893 C 0.78704 0.61104 0.5364 0.0
H894 H 0.76158 0.60842 0.58037 0.0
C895 C 0.77222 0.62038 0.52491 0.0
H896 H 0.79287 0.59783 0.56522 0.0
C897 C 0.75419 0.6268 0.53373 0.0
C898 C 0.7505 0.62368 0.55416 0.0
H899 H 0.77544 0.62479 0.50969 0.0
H900 H 0.74432 0.63617 0.5251 0.0
C901 C 0.76393 0.61137 0.56465 0.0
C902 C 0.51433 0.0539 0.80965 0.0
C903 C 0.51455 0.0748 0.81052 0.0
H904 H 0.51232 0.02803 0.7914 0.0
C905 C 0.51577 0.08535 0.79235 0.0
H906 H 0.51317 0.04516 0.8232 0.0
C907 C 0.51527 0.07546 0.77398 0.0
C908 C 0.5135 0.05466 0.77314 0.0
H909 H 0.51579 0.10142 0.79227 0.0
H910 H 0.515 0.08428 0.76045 0.0
C911 C 0.51379 0.04401 0.79128 0.0
C912 C 0.02648 0.37983 0.16704 0.0
C913 C 1.01005 0.37472 0.17929 0.0
H914 H 0.03765 0.38692 0.13794 0.0
C915 C 0.99132 0.3744 0.17049 0.0
H916 H 0.04125 0.38046 0.17307 0.0
C917 C 0.9893 0.37853 0.14998 0.0
C918 C 1.00598 0.38226 0.13757 0.0
H919 H 0.97827 0.37104 0.17939 0.0
H920 H 0.97466 0.3787 0.14377 0.0
C921 C 0.02447 0.38364 0.14668 0.0
C922 C 0.97713 0.71792 0.4648 0.0
C923 C 0.99081 0.71489 0.44917 0.0
H924 H 0.97439 0.72506 0.49581 0.0
C925 C 1.0093 0.70614 0.45395 0.0
H926 H 0.96231 0.72342 0.46174 0.0
C927 C 0.0163 0.70709 0.47336 0.0
C928 C 1.00448 0.71597 0.48819 0.0
H929 H 0.01979 0.70198 0.44231 0.0
H930 H 0.03179 0.70366 0.47592 0.0
C931 C 0.98414 0.71897 0.48438 0.0
C932 C 0.64785 0.73459 0.68978 0.0
C933 C 0.63328 0.72735 0.7029 0.0
H934 H 0.6545 0.74067 0.65917 0.0
C935 C 0.62243 0.71094 0.69622 0.0
H936 H 0.65762 0.74618 0.69455 0.0
C937 C 0.61927 0.70884 0.6757 0.0
C938 C 0.6292 0.72138 0.66224 0.0
H939 H 0.61214 0.70371 0.70634 0.0
H940 H 0.60679 0.70024 0.6709 0.0
C941 C 0.64584 0.73152 0.66929 0.0
C942 C 0.60272 0.37044 0.98593 0.0
C943 C 0.58355 0.36717 0.99379 0.0
H944 H 0.62065 0.37454 0.95947 0.0
C945 C 0.5673 0.37154 0.98171 0.0
H946 H 0.61554 0.36783 0.99516 0.0
C947 C 0.5702 0.37576 0.96147 0.0
C948 C 0.58941 0.37549 0.95274 0.0
H949 H 0.5523 0.36966 0.98731 0.0
H950 H 0.55714 0.37724 0.95237 0.0
C951 C 0.60568 0.37427 0.96548 0.0
C952 C 0.13701 0.03257 0.39854 0.0
C953 C 0.12374 0.01682 0.40036 0.0
H954 H 0.16683 0.04145 0.39291 0.0
C955 C 0.13163 0.99736 0.40123 0.0
H956 H 0.13168 0.0478 0.39842 0.0
C957 C 0.1519 0.99352 0.39733 0.0
C958 C 0.16485 1.00929 0.39375 0.0
H959 H 0.12184 0.98503 0.40406 0.0
H960 H 0.15738 0.97835 0.39707 0.0
C961 C 0.15724 0.02885 0.39524 0.0
C962 C 0.39091 0.87755 0.64585 0.0
C963 C 0.37286 0.87704 0.65662 0.0
H964 H 0.40773 0.89606 0.62557 0.0
C965 C 0.36918 0.89373 0.66858 0.0
H966 H 0.39666 0.86406 0.63947 0.0
C967 C 0.37592 0.91228 0.66178 0.0
C968 C 0.38775 0.91342 0.64429 0.0
H969 H 0.35704 0.89353 0.67929 0.0
H970 H 0.36903 0.92555 0.66788 0.0
C971 C 0.39745 0.8959 0.63809 0.0
C972 C 0.39354 0.10093 0.85063 0.0
C973 C 0.38042 0.11616 0.84451 0.0
H974 H 0.42286 0.09179 0.85838 0.0
C975 C 0.3884 0.13522 0.84187 0.0
H976 H 0.38912 0.0859 0.8515 0.0
C977 C 0.40871 0.13867 0.84521 0.0
C978 C 0.42157 0.12316 0.85149 0.0
H979 H 0.379 0.14741 0.83696 0.0
H980 H 0.41446 0.15334 0.84228 0.0
C981 C 0.41348 0.10435 0.85444 0.0
C982 C 0.24958 0.18496 0.13039 0.0
C983 C 0.26692 0.17326 0.12904 0.0
H984 H 0.23714 0.21389 0.13647 0.0
C985 C 0.28506 0.18223 0.13394 0.0
H986 H 0.23529 0.17856 0.1275 0.0
C987 C 0.28611 0.20248 0.13821 0.0
C988 C 0.26909 0.21461 0.13754 0.0
H989 H 0.29884 0.17381 0.13364 0.0
H990 H 0.30051 0.2088 0.14077 0.0
C991 C 0.25068 0.20527 0.13512 0.0
C992 C 0.16385 0.08734 0.2333 0.0
C993 C 0.14901 0.10155 0.22929 0.0
H994 H 0.19295 0.08158 0.24417 0.0
C995 C 0.15312 0.12169 0.23291 0.0
H996 H 0.16127 0.07173 0.23089 0.0
C997 C 0.17138 0.12739 0.24087 0.0
C998 C 0.18594 0.11304 0.24531 0.0
H999 H 0.142 0.13302 0.22987 0.0
H1000 H 0.17411 0.14294 0.24348 0.0
C1001 C 0.18198 0.09301 0.24121 0.0
C1002 C 0.22692 0.97064 0.51092 0.0
C1003 C 0.23068 0.9797 0.52925 0.0
H1004 H 0.22565 0.9431 0.49499 0.0
C1005 C 0.22936 0.96808 0.5466 0.0
H1006 H 0.227 0.97943 0.49736 0.0
C1007 C 0.22833 0.94741 0.54526 0.0
C1008 C 0.22873 0.93802 0.52657 0.0
H1009 H 0.23156 0.9746 0.56105 0.0
H1010 H 0.22949 0.93881 0.55889 0.0
C1011 C 0.22629 0.94985 0.50952 0.0
C1012 C 0.42735 0.99298 0.72673 0.0
C1013 C 0.42597 0.97273 0.73185 0.0
H1014 H 0.44497 0.01624 0.71409 0.0
C1015 C 0.4412 0.95987 0.72526 0.0
H1016 H 0.41589 1.00335 0.73126 0.0
C1017 C 0.45856 0.96757 0.71625 0.0
C1018 C 0.46085 0.9882 0.71352 0.0
H1019 H 0.44038 0.94411 0.72839 0.0
H1020 H 0.47091 0.95755 0.71319 0.0
C1021 C 0.44427 1.00049 0.7171 0.0
C1022 C 0.40775 0.12837 1.00464 0.0
C1023 C 0.38849 0.12108 1.00766 0.0
H1024 H 0.42519 0.1537 0.99618 0.0
C1025 C 0.37269 0.13272 1.00058 0.0
H1026 H 0.42041 0.12013 1.01022 0.0
C1027 C 0.37552 0.15031 0.99015 0.0
C1028 C 0.3942 0.15888 0.98946 0.0
H1029 H 0.35782 0.12966 1.00458 0.0
H1030 H 0.36243 0.15894 0.98626 0.0
C1031 C 0.41057 0.14728 0.99591 0.0
C1032 C 0.87525 0.41537 0.13296 0.0
C1033 C 0.85727 0.41724 0.14385 0.0
H1034 H 0.89568 0.43087 0.11394 0.0
C1035 C 0.85371 0.4355 0.15331 0.0
H1036 H 0.87912 0.40137 0.12606 0.0
C1037 C 0.86467 0.45231 0.14751 0.0
C1038 C 0.87699 0.45135 0.13038 0.0
H1039 H 0.84048 0.43762 0.16241 0.0
H1040 H 0.85947 0.46663 0.15269 0.0
C1041 C 0.88503 0.43249 0.12604 0.0
C1042 C 0.93594 0.65559 0.38873 0.0
C1043 C 0.93831 0.63727 0.39895 0.0
H1044 H 0.91584 0.67351 0.3717 0.0
C1045 C 0.92165 0.62977 0.40905 0.0
H1046 H 0.94862 0.66249 0.38158 0.0
C1047 C 0.90272 0.63771 0.40474 0.0
C1048 C 0.90055 0.65064 0.38813 0.0
H1049 H 0.92276 0.61613 0.41763 0.0
H1050 H 0.88999 0.6296 0.41024 0.0
C1051 C 0.91697 0.66227 0.38327 0.0
C1052 C 0.73324 0.72624 0.62626 0.0
C1053 C 0.74917 0.71275 0.62468 0.0
H1054 H 0.72404 0.75644 0.62081 0.0
C1055 C 0.7685 0.72034 0.62645 0.0
H1056 H 0.71815 0.72097 0.62637 0.0
C1057 C 0.77191 0.74061 0.62372 0.0
C1058 C 0.75602 0.75346 0.61947 0.0
H1059 H 0.78133 0.71051 0.62675 0.0
H1060 H 0.78705 0.74548 0.62179 0.0
C1061 C 0.73665 0.74664 0.62324 0.0
C1062 C 0.97019 0.53921 0.22786 0.0
C1063 C 0.98209 0.52216 0.23024 0.0
H1064 H 0.94091 0.55164 0.2276 0.0
C1065 C 0.97255 0.50366 0.23154 0.0
H1066 H 0.97681 0.55369 0.22629 0.0
C1067 C 0.95172 0.50241 0.23304 0.0
C1068 C 0.93992 0.51967 0.23198 0.0
H1069 H 0.98134 0.49012 0.2319 0.0
H1070 H 0.9449 0.48805 0.23484 0.0
C1071 C 0.94948 0.53797 0.22874 0.0
C1072 C 0.65446 0.57666 0.70888 0.0
C1073 C 0.66113 0.59621 0.71187 0.0
H1074 H 0.62976 0.55719 0.70663 0.0
C1075 C 0.64708 0.61172 0.71121 0.0
H1076 H 0.66478 0.56421 0.70891 0.0
C1077 C 0.62681 0.60754 0.70908 0.0
C1078 C 0.62004 0.58782 0.70895 0.0
H1079 H 0.65166 0.62696 0.71278 0.0
H1080 H 0.6162 0.61973 0.70876 0.0
C1081 C 0.63424 0.57252 0.70745 0.0
C1082 C 0.47528 0.90321 0.66782 0.0
C1083 C 0.47339 0.89503 0.64871 0.0
H1084 H 0.47205 0.89688 0.69898 0.0
C1085 C 0.45619 0.88388 0.64605 0.0
H1086 H 0.48714 0.91346 0.67055 0.0
C1087 C 0.44811 0.87331 0.6624 0.0
C1088 C 0.45599 0.87584 0.68148 0.0
H1089 H 0.45218 0.87969 0.63126 0.0
H1090 H 0.43861 0.86087 0.65952 0.0
C1091 C 0.46658 0.89348 0.68435 0.0
C1092 C 0.47671 0.22174 0.89345 0.0
C1093 C 0.47916 0.23173 0.91152 0.0
H1094 H 0.47615 0.22442 0.86159 0.0
C1095 C 0.47678 0.25254 0.91148 0.0
H1096 H 0.47795 0.20571 0.89298 0.0
C1097 C 0.47516 0.26324 0.89357 0.0
C1098 C 0.47608 0.25337 0.87527 0.0
H1099 H 0.47788 0.26083 0.92504 0.0
H1100 H 0.4754 0.27929 0.89401 0.0
C1101 C 0.47545 0.23248 0.87545 0.0
C1102 C 0.12913 0.19729 0.1811 0.0
C1103 C 0.13171 0.20769 0.16309 0.0
H1104 H 0.12595 0.20118 0.21255 0.0
C1105 C 0.14649 0.22235 0.16344 0.0
H1106 H 0.11995 0.18423 0.18158 0.0
C1107 C 0.14853 0.2335 0.18095 0.0
C1108 C 0.13881 0.22715 0.19845 0.0
H1109 H 0.15176 0.22871 0.14961 0.0
H1110 H 0.15463 0.24826 0.17989 0.0
C1111 C 0.13252 0.20722 0.19903 0.0
C1112 C 0.13699 0.84743 0.39665 0.0
C1113 C 0.13475 0.83052 0.40873 0.0
H1114 H 0.13341 0.85995 0.3674 0.0
C1115 C 0.13285 0.812 0.39931 0.0
H1116 H 0.13928 0.86179 0.40328 0.0
C1117 C 0.12933 0.81098 0.37886 0.0
C1118 C 0.12771 0.82846 0.3675 0.0
H1119 H 0.13176 0.79843 0.40797 0.0
H1120 H 0.12547 0.79682 0.37262 0.0
C1121 C 0.13373 0.84633 0.37608 0.0
C1122 C 0.71855 0.4873 0.8697 0.0
C1123 C 0.72581 0.48207 0.85064 0.0
H1124 H 0.69304 0.49604 0.8875 0.0
C1125 C 0.71214 0.47632 0.83643 0.0
H1126 H 0.72886 0.49071 0.88134 0.0
C1127 C 0.69181 0.4785 0.8402 0.0
C1128 C 0.68447 0.4868 0.85819 0.0
H1129 H 0.71704 0.47162 0.82179 0.0
H1130 H 0.68196 0.4751 0.82817 0.0
C1131 C 0.69807 0.49022 0.87332 0.0
C1132 C 0.7266 0.42526 0.95823 0.0
C1133 C 0.71398 0.41744 0.9729 0.0
H1134 H 0.73954 0.45157 0.94635 0.0
C1135 C 0.69953 0.43031 0.98157 0.0
H1136 H 0.73742 0.41586 0.9507 0.0
C1137 C 0.70168 0.45091 0.98026 0.0
C1138 C 0.71754 0.45867 0.96926 0.0
H1139 H 0.68874 0.42465 0.9922 0.0
H1140 H 0.69299 0.46028 0.99018 0.0
C1141 C 0.72781 0.44588 0.95589 0.0
C1142 C 0.8816 0.65385 0.4593 0.0
C1143 C 0.8914 0.66941 0.46861 0.0
H1144 H 0.87374 0.62308 0.46188 0.0
C1145 C 0.90694 0.66408 0.48157 0.0
H1146 H 0.87065 0.65702 0.44809 0.0
C1147 C 0.908 0.64472 0.48951 0.0
C1148 C 0.89232 0.63173 0.4859 0.0
H1149 H 0.91575 0.67547 0.48828 0.0
H1150 H 0.91729 0.6422 0.50232 0.0
C1151 C 0.88328 0.63445 0.46731 0.0
C1152 C 0.03204 0.27869 0.21485 0.0
C1153 C 0.0295 0.30416 0.21207 0.0
H1154 H 0.03592 0.26957 0.20657 0.0
C1155 C 0.03362 0.31545 0.19021 0.0
H1156 H 0.02744 0.27483 0.23148 0.0
C1157 C 0.0453 0.29119 0.16302 0.0
C1158 C 0.04724 0.26765 0.1716 0.0
H1159 H 0.03117 0.33156 0.18993 0.0
H1160 H 0.04999 0.29368 0.14752 0.0
C1161 C 0.04059 0.26145 0.1956 0.0
C1162 C 0.08687 0.78893 0.4302 0.0
C1163 C 0.07966 0.78649 0.41099 0.0
H1164 H 0.08389 0.78088 0.46113 0.0
C1165 C 0.06669 0.77064 0.40773 0.0
H1166 H 0.09762 0.80022 0.43295 0.0
C1167 C 0.05844 0.75995 0.42376 0.0
C1168 C 0.06352 0.76448 0.44327 0.0
H1169 H 0.06151 0.76761 0.3929 0.0
H1170 H 0.04718 0.74906 0.42102 0.0
C1171 C 0.07907 0.77779 0.44621 0.0
C1172 C 0.56132 0.82397 0.69982 0.0
C1173 C 0.57233 0.80744 0.69317 0.0
H1174 H 0.54292 0.84894 0.69143 0.0
C1175 C 0.57612 0.80551 0.67271 0.0
H1176 H 0.55872 0.8262 0.71558 0.0
C1177 C 0.5662 0.81777 0.65896 0.0
C1178 C 0.55319 0.83278 0.66558 0.0
H1179 H 0.58546 0.79346 0.66739 0.0
H1180 H 0.5676 0.81468 0.64323 0.0
C1181 C 0.55233 0.83696 0.68601 0.0
C1182 C 0.52308 0.3096 0.95226 0.0
C1183 C 0.53937 0.3224 0.95041 0.0
H1184 H 0.50136 0.29259 0.93685 0.0
C1185 C 0.54337 0.33112 0.93185 0.0
H1186 H 0.51895 0.30335 0.9666 0.0
C1187 C 0.53322 0.32488 0.91498 0.0
C1188 C 0.51955 0.30938 0.91645 0.0
H1189 H 0.55506 0.34184 0.93023 0.0
H1190 H 0.53721 0.33091 0.90055 0.0
C1191 C 0.51317 0.30323 0.93533 0.0
C1192 C 0.04461 0.81073 0.45856 0.0
C1193 C 0.05816 0.82198 0.44748 0.0
H1194 H 0.01791 0.79392 0.45792 0.0
C1195 C 0.05409 0.8256 0.42727 0.0
H1196 H 0.04636 0.80869 0.47437 0.0
C1197 C 0.04043 0.81388 0.41726 0.0
C1198 C 0.0286 0.80057 0.42805 0.0
H1199 H 0.06264 0.83632 0.41891 0.0
H1200 H 0.03946 0.81489 0.40122 0.0
C1201 C 0.02885 0.80161 0.44898 0.0
C1202 C 0.53118 0.78458 0.6453 0.0
C1203 C 0.54695 0.77409 0.65403 0.0
H1204 H 0.50367 0.80052 0.65022 0.0
C1205 C 0.54556 0.76972 0.67443 0.0
H1206 H 0.5309 0.78682 0.62942 0.0
C1207 C 0.53148 0.77961 0.68654 0.0
C1208 C 0.5174 0.79239 0.67805 0.0
H1209 H 0.55629 0.75969 0.68106 0.0
H1210 H 0.53185 0.77782 0.70253 0.0
C1211 C 0.51575 0.79252 0.65724 0.0
C1212 C 0.55619 0.272 0.90628 0.0
C1213 C 0.55353 0.27047 0.92702 0.0
H1214 H 0.56436 0.29148 0.88214 0.0
C1215 C 0.56495 0.28247 0.93909 0.0
H1216 H 0.54944 0.26141 0.89659 0.0
C1217 C 0.5766 0.29735 0.93042 0.0
C1218 C 0.5747 0.30228 0.91016 0.0
H1219 H 0.56455 0.28061 0.95511 0.0
H1220 H 0.58595 0.30606 0.93972 0.0
C1221 C 0.56516 0.28886 0.89792 0.0
C1222 C 0.01245 0.30396 0.16517 0.0
C1223 C 0.02771 0.32155 0.15561 0.0
H1224 H 1.00897 0.27664 0.18749 0.0
C1225 C 0.05232 0.32584 0.16169 0.0
H1226 H 0.99748 0.30282 0.15981 0.0
C1227 C 0.0666 0.31312 0.17886 0.0
C1228 C 0.05718 0.29328 0.19283 0.0
H1229 H 0.05967 0.33778 0.15384 0.0
H1230 H 0.08181 0.3175 0.18076 0.0
C1231 C 0.02 0.28758 0.1828 0.0
C1232 C 0.15763 0.06412 0.30769 0.0
C1233 C 0.15198 0.0502 0.28776 0.0
H1234 H 0.19012 0.05115 0.34419 0.0
C1235 C 0.16275 0.02686 0.28439 0.0
H1236 H 0.15023 0.07863 0.30892 0.0
C1237 C 0.18008 0.01486 0.29976 0.0
C1238 C 0.19012 0.02387 0.32149 0.0
H1239 H 0.15852 0.01894 0.27123 0.0
H1240 H 0.18473 1.00009 0.2954 0.0
C1241 C 0.18346 0.04655 0.33023 0.0
C1242 C 0.32182 0.93798 0.5458 0.0
C1243 C 0.33515 0.92738 0.55779 0.0
H1244 H 0.29961 0.93572 0.52324 0.0
C1245 C 0.33726 0.90685 0.55456 0.0
H1246 H 0.32116 0.95403 0.54617 0.0
C1247 C 0.32217 0.8965 0.54513 0.0
C1248 C 0.30705 0.90698 0.53546 0.0
H1249 H 0.3493 0.89852 0.56127 0.0
H1250 H 0.32225 0.88052 0.54559 0.0
C1251 C 0.30899 0.92763 0.53341 0.0
C1252 C 0.4177 0.05869 0.81126 0.0
C1253 C 0.39605 0.05903 0.79912 0.0
H1254 H 0.46229 0.0435 0.79171 0.0
C1255 C 0.39503 0.0526 0.77451 0.0
H1256 H 0.41718 0.06344 0.8268 0.0
C1257 C 0.41457 0.04453 0.75925 0.0
C1258 C 0.43865 0.04057 0.76591 0.0
H1259 H 0.38061 0.05353 0.76773 0.0
H1260 H 0.41086 0.04069 0.74417 0.0
C1261 C 0.44654 0.04625 0.78879 0.0
C1262 C 0.31645 0.18247 0.05015 0.0
C1263 C 0.32086 0.17491 0.02668 0.0
H1264 H 0.29022 0.15746 0.08556 0.0
C1265 C 0.31068 0.15331 0.01814 0.0
H1266 H 0.32327 0.19645 0.0544 0.0
C1267 C 0.29627 0.13626 0.03184 0.0
C1268 C 0.28946 0.1378 0.05655 0.0
H1269 H 0.31434 0.14934 1.00296 0.0
H1270 H 0.29165 0.12316 0.02407 0.0
C1271 C 0.29547 0.1575 0.07009 0.0
C1272 C 0.18518 0.04986 0.29817 0.0
C1273 C 0.1915 0.07218 0.30742 0.0
H1274 H 0.14878 0.01984 0.31688 0.0
C1275 C 0.1796 0.08176 0.3284 0.0
H1276 H 0.19334 0.04478 0.28491 0.0
C1277 C 0.16036 0.07089 0.34231 0.0
C1278 C 0.14931 0.04821 0.33814 0.0
H1279 H 0.18432 0.09618 0.33324 0.0
H1280 H 0.15476 0.07927 0.35488 0.0
C1281 C 0.15661 0.03382 0.31871 0.0
C1282 C 0.29363 0.94391 0.58809 0.0
C1283 C 0.28117 0.94014 0.57193 0.0
H1284 H 0.31344 0.93159 0.60985 0.0
C1285 C 0.27573 0.92046 0.56861 0.0
H1286 H 0.2977 0.95895 0.59159 0.0
C1287 C 0.28476 0.90473 0.57927 0.0
C1288 C 0.29933 0.90857 0.59335 0.0
H1289 H 0.26539 0.9173 0.55704 0.0
H1290 H 0.28141 0.88955 0.57566 0.0
C1291 C 0.30268 0.92826 0.5986 0.0
C1292 C 0.44752 0.04451 0.82432 0.0
C1293 C 0.45144 0.06861 0.81592 0.0
H1294 H 0.43154 0.01249 0.82125 0.0
C1295 C 0.44115 0.08025 0.79617 0.0
H1296 H 0.45545 0.03992 0.83748 0.0
C1297 C 0.4249 0.06911 0.7815 0.0
C1298 C 0.41806 0.03213 0.79317 0.0
H1299 H 0.44468 0.09552 0.79274 0.0
H1300 H 0.41933 0.07822 0.76914 0.0
C1301 C 0.4322 0.02699 0.81428 0.0
C1302 C 0.28215 0.18747 0.05694 0.0
C1303 C 0.29525 0.19221 0.0776 0.0
H1304 H 0.27915 0.16765 0.02815 0.0
C1305 C 0.31689 0.18041 0.08562 0.0
H1306 H 0.26897 0.19617 0.05369 0.0
C1307 C 0.32968 0.161 0.07434 0.0
C1308 C 0.32165 0.15059 0.05211 0.0
H1309 H 0.32307 0.1857 0.09931 0.0
H1310 H 0.34286 0.15517 0.08138 0.0
C1311 C 0.28894 0.16946 0.04086 0.0
C1312 C 0.78509 0.44796 0.03331 0.0
C1313 C 0.76425 0.45912 0.04267 0.0
H1314 H 0.81144 0.41066 0.05499 0.0
C1315 C 0.75396 0.45146 0.06541 0.0
H1316 H 0.79067 0.45345 0.01893 0.0
C1317 C 0.76308 0.43256 0.08135 0.0
C1318 C 0.78407 0.41765 0.07747 0.0
H1319 H 0.74077 0.45933 0.07043 0.0
H1320 H 0.75499 0.43026 0.09516 0.0
C1321 C 0.79831 0.4203 0.05659 0.0
C1322 C 0.91902 0.56285 0.28986 0.0
C1323 C 0.91022 0.54084 0.29844 0.0
H1324 H 0.95264 0.5917 0.31289 0.0
C1325 C 0.91821 0.5308 0.32099 0.0
H1326 H 0.91353 0.56826 0.27552 0.0
C1327 C 0.93539 0.54114 0.33736 0.0
C1328 C 0.94801 0.56335 0.3342 0.0
H1329 H 0.9122 0.51659 0.32529 0.0
H1330 H 0.9382 0.53291 0.35093 0.0
C1331 C 0.94443 0.5778 0.31377 0.0
C1332 C 0.81681 0.67211 0.575 0.0
C1333 C 0.83024 0.6762 0.55936 0.0
H1334 H 0.79411 0.68405 0.59455 0.0
C1335 C 0.83425 0.69607 0.55482 0.0
H1336 H 0.81378 0.65689 0.57919 0.0
C1337 C 0.82296 0.71137 0.56341 0.0
C1338 C 0.80701 0.70716 0.57649 0.0
H1339 H 0.84503 0.69969 0.54333 0.0
H1340 H 0.82546 0.72637 0.55812 0.0
C1341 C 0.80525 0.68758 0.58354 0.0
C1342 C 0.94445 0.58484 0.27899 0.0
C1343 C 0.95357 0.56106 0.28427 0.0
H1344 H 0.92172 0.61245 0.28632 0.0
C1345 C 0.94399 0.54746 0.30333 0.0
H1346 H 0.95159 0.59271 0.26683 0.0
C1347 C 0.91554 0.56613 0.32176 0.0
C1348 C 0.91124 0.58904 0.31185 0.0
H1349 H 0.95071 0.5328 0.30602 0.0
H1350 H 0.90642 0.56172 0.33463 0.0
C1351 C 0.92511 0.59759 0.29156 0.0
C1352 C 0.68343 0.52021 0.77679 0.0
C1353 C 0.69371 0.52985 0.79814 0.0
H1354 H 0.66002 0.5226 0.74958 0.0
C1355 C 0.68637 0.55236 0.80688 0.0
H1356 H 0.68901 0.50586 0.77207 0.0
C1357 C 0.65912 0.56858 0.78505 0.0
C1358 C 0.65327 0.55407 0.76562 0.0
H1359 H 0.69367 0.55766 0.82024 0.0
H1360 H 0.65092 0.58264 0.7866 0.0
C1361 C 0.66491 0.53117 0.76206 0.0
C1362 C 0.78927 0.45008 0.06515 0.0
C1363 C 0.81224 0.45217 0.0547 0.0
H1364 H 0.75275 0.41951 0.05003 0.0
C1365 C 0.81918 0.43811 0.03401 0.0
H1366 H 0.78573 0.45925 0.07812 0.0
C1367 C 0.8046 0.4206 0.02163 0.0
C1368 C 0.78035 0.41376 0.02769 0.0
H1369 H 0.83419 0.43991 0.02849 0.0
H1370 H 0.81161 0.413 1.00925 0.0
C1371 C 0.76793 0.42444 0.04711 0.0
C1372 C 0.78128 0.70481 0.5375 0.0
C1373 C 0.77966 0.68412 0.54026 0.0
H1374 H 0.79951 0.72818 0.52565 0.0
C1375 C 0.78827 0.67199 0.52569 0.0
H1376 H 0.772 0.71502 0.54564 0.0
C1377 C 0.80028 0.6803 0.51065 0.0
C1378 C 0.80707 0.69984 0.51268 0.0
H1379 H 0.78619 0.65622 0.52618 0.0
H1380 H 0.8068 0.67055 0.49955 0.0
C1381 C 0.79623 0.71254 0.52515 0.0
C1382 C 0.65974 0.53836 0.7964 0.0
C1383 C 0.65243 0.55266 0.81581 0.0
H1384 H 0.69452 0.55056 0.76109 0.0
C1385 C 0.66275 0.5758 0.81954 0.0
H1386 H 0.6529 0.52376 0.79531 0.0
C1387 C 0.6809 0.58744 0.80475 0.0
C1388 C 0.69257 0.57807 0.78353 0.0
H1389 H 0.65775 0.58371 0.83264 0.0
H1390 H 0.68487 0.60228 0.80902 0.0
C1391 C 0.68688 0.55533 0.77475 0.0
C1392 C 0.02751 0.42569 0.27258 0.0
C1393 C 0.01436 0.41237 0.26383 0.0
H1394 H 0.03176 0.45493 0.28426 0.0
C1395 C 0.99433 0.41836 0.26222 0.0
H1396 H 0.04302 0.42169 0.27408 0.0
C1397 C 0.98791 0.43742 0.26792 0.0
C1398 C 1.00121 0.45113 0.27571 0.0
H1399 H 0.98366 0.40862 0.25563 0.0
H1400 H 0.97262 0.44172 0.26539 0.0
C1401 C 0.02099 0.44476 0.27855 0.0
C1402 C 0.93905 0.76358 0.46566 0.0
C1403 C 0.95165 0.76957 0.48085 0.0
H1404 H 0.91117 0.75126 0.45799 0.0
C1405 C 0.94431 0.76928 0.50058 0.0
H1406 H 0.94436 0.76325 0.45038 0.0
C1407 C 0.92538 0.76173 0.50512 0.0
C1408 C 0.9132 0.7547 0.48996 0.0
H1409 H 0.95382 0.77331 0.51269 0.0
H1410 H 0.92068 0.76054 0.52054 0.0
C1411 C 0.92002 0.75653 0.47012 0.0
C1412 C 0.57653 0.66118 0.74462 0.0
C1413 C 0.59551 0.65739 0.75242 0.0
H1414 H 0.5564 0.68281 0.73188 0.0
C1415 C 0.6082 0.67344 0.75494 0.0
H1416 H 0.5666 0.64901 0.74203 0.0
C1417 C 0.60212 0.69279 0.74976 0.0
C1418 C 0.58351 0.69655 0.74107 0.0
H1419 H 0.62303 0.67095 0.76047 0.0
H1420 H 0.61253 0.70472 0.75154 0.0
C1421 C 0.57072 0.6805 0.73866 0.0
C1422 C 0.67475 0.32966 0.01762 0.0
C1423 C 0.68842 0.33837 1.00431 0.0
H1424 H 0.6462 0.31627 0.02147 0.0
C1425 C 0.68417 0.33817 0.98384 0.0
H1426 H 0.67744 0.32971 0.03346 0.0
C1427 C 0.66604 0.33104 0.97705 0.0
C1428 C 0.65199 0.32314 0.99043 0.0
H1429 H 0.69418 0.34498 0.97314 0.0
H1430 H 0.66257 0.33263 0.96143 0.0
C1431 C 0.6569 0.32182 1.0107 0.0
C1432 C 1.00118 0.67838 0.34165 0.0
C1433 C 1.01026 0.66163 0.35047 0.0
H1434 H 0.99783 0.71007 0.34142 0.0
C1435 C 0.02596 0.66476 0.36364 0.0
H1436 H 0.98902 0.67665 0.3315 0.0
C1437 C 0.03118 0.68405 0.36922 0.0
C1438 C 0.02068 0.7007 0.36193 0.0
H1439 H 0.03334 0.65227 0.37075 0.0
H1440 H 0.04228 0.68578 0.38053 0.0
C1441 C 1.00624 0.69763 0.34739 0.0
C1442 C 0.67643 0.72987 0.5832 0.0
C1443 C 0.69035 0.74381 0.57653 0.0
H1444 H 0.64754 0.7247 0.59567 0.0
C1445 C 0.68472 0.76405 0.5767 0.0
H1446 H 0.68043 0.71426 0.5838 0.0
C1447 C 0.66603 0.77022 0.58434 0.0
C1448 C 0.65226 0.75624 0.59144 0.0
H1449 H 0.69531 0.77524 0.57227 0.0
H1450 H 0.6626 0.78593 0.58524 0.0
C1451 C 0.65756 0.73595 0.59013 0.0
C1452 C 0.5983 0.41496 0.84619 0.0
C1453 C 0.58267 0.41357 0.86019 0.0
H1454 H 0.61662 0.434 0.82817 0.0
C1455 C 0.57222 0.431 0.86538 0.0
H1456 H 0.60676 0.4018 0.84207 0.0
C1457 C 0.57829 0.44956 0.8579 0.0
C1458 C 0.59448 0.45104 0.84452 0.0
H1459 H 0.56033 0.43045 0.87636 0.0
H1460 H 0.57087 0.46287 0.86328 0.0
C1461 C 0.60389 0.43341 0.83816 0.0
C1462 C 0.91843 0.355 0.08999 0.0
C1463 C 0.92398 0.34958 0.10943 0.0
H1464 H 0.89541 0.36665 0.07115 0.0
C1465 C 0.90941 0.3498 0.12454 0.0
H1466 H 0.9294 0.35528 0.07808 0.0
C1467 C 0.88991 0.3558 0.12048 0.0
C1468 C 0.88457 0.36237 0.10132 0.0
H1469 H 0.91325 0.34589 0.13968 0.0
H1470 H 0.87926 0.35632 0.13268 0.0
C1471 C 0.899 0.36164 0.08603 0.0
C1472 C 0.25795 0.9653 0.44489 0.0
C1473 C 0.27092 0.97662 0.45626 0.0
H1474 H 0.24016 0.96356 0.41884 0.0
C1475 C 0.27744 0.9948 0.44817 0.0
H1476 H 0.25246 0.95132 0.45065 0.0
C1477 C 0.27002 1.00211 0.42996 0.0
C1478 C 0.25611 0.99127 0.41919 0.0
H1479 H 0.28719 1.0041 0.45657 0.0
H1480 H 0.27446 0.01667 0.42482 0.0
C1481 C 0.25082 0.97241 0.42659 0.0
C1482 C 0.3582 1.00645 0.66123 0.0
C1483 C 0.34353 0.99196 0.65912 0.0
H1484 H 0.37579 0.02325 0.68113 0.0
C1485 C 0.33274 0.98614 0.67622 0.0
H1486 H 0.36677 1.01145 0.64844 0.0
C1487 C 0.33785 0.99315 0.69512 0.0
C1488 C 0.35396 1.00602 0.69736 0.0
H1489 H 0.3214 0.975 0.67523 0.0
H1490 H 0.33028 0.98711 0.70809 0.0
C1491 C 0.36339 0.0133 0.68006 0.0
C1492 C 0.35935 0.09494 0.9401 0.0
C1493 C 0.34356 0.08664 0.95111 0.0
H1494 H 0.37665 0.09521 0.91328 0.0
C1495 C 0.33304 0.07109 0.94239 0.0
H1496 H 0.36807 0.1067 0.94629 0.0
C1497 C 0.33791 0.06453 0.92295 0.0
C1498 C 0.35381 0.07293 0.91207 0.0
H1499 H 0.32095 0.06417 0.95048 0.0
H1500 H 0.32918 0.05299 0.91641 0.0
C1501 C 0.3645 0.0881 0.92112 0.0
C1502 C 0.2754 0.08071 0.19971 0.0
C1503 C 0.25541 0.07549 0.20294 0.0
H1504 H 0.29758 0.09118 0.17888 0.0
C1505 C 0.24304 0.0749 0.18626 0.0
H1506 H 0.28538 0.08151 0.21214 0.0
C1507 C 0.24992 0.08086 0.16736 0.0
C1508 C 0.26952 0.08721 0.16434 0.0
H1509 H 0.22756 0.0711 0.18799 0.0
H1510 H 0.23958 0.08124 0.15519 0.0
C1511 C 0.28242 0.08631 0.18061 0.0
C1512 C 0.43541 0.24691 0.01961 0.0
C1513 C 0.41715 0.24777 1.00977 0.0
H1514 H 0.46669 0.25219 0.0178 0.0
C1515 C 0.41614 0.25856 0.99177 0.0
H1516 H 0.4368 0.23866 0.03343 0.0
C1517 C 0.43326 0.26654 0.98288 0.0
C1518 C 0.45194 0.26369 0.9916 0.0
H1519 H 0.40233 0.2596 0.98379 0.0
H1520 H 0.43205 0.27337 0.9683 0.0
C1521 C 0.45261 0.25467 1.01058 0.0
C1522 C 0.07918 0.91437 0.36516 0.0
C1523 C 0.09166 0.90301 0.37764 0.0
H1524 H 0.0741 0.94223 0.34995 0.0
C1525 C 0.10915 0.91188 0.38422 0.0
H1526 H 0.06575 0.90802 0.35951 0.0
C1527 C 0.11408 0.9313 0.3785 0.0
C1528 C 0.10176 0.94265 0.36591 0.0
H1529 H 0.11931 0.90367 0.39364 0.0
H1530 H 0.12763 0.93746 0.3841 0.0
C1531 C 0.08414 0.93392 0.35941 0.0
C1532 C 0.17365 0.82835 0.51592 0.0
C1533 C 0.16739 0.83524 0.49713 0.0
H1534 H 0.19511 0.83091 0.53931 0.0
C1535 C 0.17915 0.84922 0.48704 0.0
H1536 H 0.16492 0.81757 0.52409 0.0
C1537 C 0.19636 0.85645 0.49542 0.0
C1538 C 0.20244 0.8503 0.51446 0.0
H1539 H 0.17502 0.85471 0.47246 0.0
H1540 H 0.20468 0.86737 0.48699 0.0
C1541 C 0.19094 0.83597 0.52461 0.0
C1542 C 0.48291 0.90042 0.74733 0.0
C1543 C 0.50109 0.89661 0.73736 0.0
H1544 H 0.46418 0.92166 0.7624 0.0
C1545 C 0.51552 0.91148 0.73751 0.0
H1546 H 0.47132 0.88946 0.74746 0.0
C1547 C 0.51158 0.92986 0.74678 0.0
C1548 C 0.49293 0.93402 0.75568 0.0
H1549 H 0.52964 0.90915 0.72996 0.0
H1550 H 0.52266 0.94131 0.74575 0.0
C1551 C 0.4788 0.9189 0.75607 0.0
C1552 C 0.11604 0.17461 0.27261 0.0
C1553 C 0.10303 0.15861 0.27079 0.0
H1554 H 0.1209 0.20574 0.26801 0.0
C1555 C 0.08365 0.16275 0.26423 0.0
H1556 H 0.13111 0.17201 0.27742 0.0
C1557 C 0.07792 0.18207 0.25829 0.0
C1558 C 0.09123 0.19791 0.2593 0.0
H1559 H 0.07328 0.15081 0.26235 0.0
H1560 H 0.06332 0.18444 0.25217 0.0
C1561 C 0.11013 0.19401 0.26722 0.0
C1562 C 0.52296 0.17979 0.83866 0.0
C1563 C 0.51397 0.16544 0.85105 0.0
H1564 H 0.53579 0.20875 0.83645 0.0
C1565 C 0.51371 0.16875 0.87173 0.0
H1566 H 0.52342 0.17782 0.8227 0.0
C1567 C 0.52056 0.18661 0.87958 0.0
C1568 C 0.52833 0.20152 0.86708 0.0
H1569 H 0.50688 0.15816 0.8818 0.0
H1570 H 0.51865 0.18924 0.89535 0.0
C1571 C 0.53024 0.1975 0.8466 0.0
C1572 C 0.17732 0.23316 0.09966 0.0
C1573 C 0.19274 0.24654 0.10246 0.0
H1574 H 0.14667 0.22665 0.10443 0.0
C1575 C 0.1883 0.26476 0.11173 0.0
H1576 H 0.18034 0.2189 0.09287 0.0
C1577 C 0.16906 0.26897 0.11912 0.0
C1578 C 0.15372 0.25532 0.11675 0.0
H1579 H 0.19999 0.2752 0.11446 0.0
H1580 H 0.16634 0.2826 0.12718 0.0
C1581 C 0.15801 0.23766 0.10633 0.0
C1582 C 0.42345 0.86426 0.5932 0.0
C1583 C 0.40667 0.85441 0.60068 0.0
H1584 H 0.45506 0.86703 0.59355 0.0
C1585 C 0.40982 0.83788 0.61339 0.0
H1586 H 0.42172 0.877 0.58342 0.0
C1587 C 0.42894 0.83282 0.62017 0.0
C1588 C 0.44562 0.84338 0.61348 0.0
H1589 H 0.3973 0.82992 0.61957 0.0
H1590 H 0.43058 0.82111 0.63117 0.0
C1591 C 0.44264 0.85849 0.59908 0.0
C1592 C 0.76904 0.53348 0.92868 0.0
C1593 C 0.75487 0.5309 0.94402 0.0
H1594 H 0.77432 0.53904 0.89754 0.0
C1595 C 0.73482 0.53498 0.9397 0.0
H1596 H 0.78457 0.53038 0.93138 0.0
C1597 C 0.72891 0.53947 0.92023 0.0
C1598 C 0.74292 0.54067 0.90462 0.0
H1599 H 0.72341 0.53307 0.95101 0.0
H1600 H 0.71323 0.54079 0.91716 0.0
C1601 C 0.76315 0.53856 0.90926 0.0
C1602 C 0.84812 0.53125 0.17827 0.0
C1603 C 0.84825 0.5194 0.19562 0.0
H1604 H 0.84273 0.53286 0.14687 0.0
C1605 C 0.84029 0.50022 0.19455 0.0
H1606 H 0.85428 0.546 0.17839 0.0
C1607 C 0.83317 0.49283 0.17649 0.0
C1608 C 0.83434 0.50421 0.15885 0.0
H1609 H 0.84023 0.4906 0.20755 0.0
H1610 H 0.82794 0.47772 0.17611 0.0
C1611 C 0.84152 0.52368 0.16011 0.0
C1612 C 0.84581 0.6013 0.42752 0.0
C1613 C 0.84642 0.61393 0.41078 0.0
H1614 H 0.84058 0.59849 0.45897 0.0
C1615 C 0.8403 0.63388 0.41333 0.0
H1616 H 0.8505 0.58593 0.42622 0.0
C1617 C 0.83509 0.64128 0.43225 0.0
C1618 C 0.8354 0.62887 0.44919 0.0
H1619 H 0.84077 0.64416 0.40087 0.0
H1620 H 0.83177 0.65696 0.43376 0.0
C1621 C 0.83999 0.60856 0.44634 0.0
C1622 C 0.76127 0.60154 0.6456 0.0
C1623 C 0.77 0.62038 0.64492 0.0
H1624 H 0.74688 0.57928 0.66355 0.0
C1625 C 0.77245 0.63048 0.66291 0.0
H1626 H 0.75876 0.59361 0.63195 0.0
C1627 C 0.76489 0.62266 0.6809 0.0
C1628 C 0.75532 0.60423 0.68144 0.0
H1629 H 0.77862 0.64523 0.66283 0.0
H1630 H 0.7657 0.63146 0.69426 0.0
C1631 C 0.7544 0.59337 0.66372 0.0
loop_
_geom_bond_atom_site_label_1
_geom_bond_atom_site_label_2
_geom_bond_distance
_geom_bond_site_symmetry_2
_ccdc_geom_bond_type
O0 Cd1 2.223 1_655 S
O0 C8 1.315 . S
Cd1 O0 2.223 1_455 S
Cd1 O4 2.297 1_455 S
Cd1 O5 2.439 1_455 S
Cd1 O11 2.240 . S
Cd2 O3 2.240 . S
Cd2 O10 2.223 1_655 S
Cd2 O12 2.297 1_655 S
Cd2 O13 2.439 1_655 S
O3 Cd2 2.240 . S
O3 C8 1.279 . S
O4 Cd1 2.297 1_655 S
O4 C6 1.247 . S
O5 Cd1 2.439 1_655 S
O5 C6 1.208 . S
C6 O4 1.247 . S
C6 O5 1.208 . S
C7 O12 1.247 . S
C7 O13 1.208 . S
C8 O0 1.315 . S
C8 O3 1.279 . S
C9 O10 1.315 . S
C9 O11 1.279 . S
O10 Cd2 2.223 1_455 S
O10 C9 1.315 . S
O11 Cd1 2.240 . S
O11 C9 1.279 . S
O12 Cd2 2.297 1_455 S
O12 C7 1.247 . S
O13 Cd2 2.439 1_455 S
O13 C7 1.208 . S
O14 Cd15 2.223 . S
O14 C22 1.315 . S
Cd15 O14 2.223 . S
Cd15 O18 2.297 . S
Cd15 O19 2.439 . S
Cd15 O25 2.240 1_655 S
Cd16 O17 2.243 . S
Cd16 O24 2.223 . S
Cd16 O26 2.297 . S
Cd16 O27 2.439 . S
O17 Cd16 2.243 . S
O17 C22 1.278 1_455 S
O18 Cd15 2.297 . S
O18 C20 1.247 . S
O19 Cd15 2.439 . S
O19 C20 1.208 . S
C20 O18 1.247 . S
C20 O19 1.208 . S
C21 O26 1.247 . S
C21 O27 1.208 . S
C22 O14 1.315 . S
C22 O17 1.278 1_655 S
C23 O24 1.315 . S
C23 O25 1.279 . S
O24 Cd16 2.223 . S
O24 C23 1.315 . S
O25 Cd15 2.240 1_455 S
O25 C23 1.279 . S
O26 Cd16 2.297 . S
O26 C21 1.247 . S
O27 Cd16 2.439 . S
O27 C21 1.208 . S
O28 Cd29 2.223 . S
O28 C36 1.315 . S
Cd29 O28 2.223 . S
Cd29 O32 2.297 . S
Cd29 O33 2.439 . S
Cd29 O39 2.240 . S
Cd30 O31 2.240 . S
Cd30 O38 2.223 . S
Cd30 O40 2.297 . S
Cd30 O41 2.439 . S
O31 Cd30 2.240 . S
O31 C36 1.279 . S
O32 Cd29 2.297 . S
O32 C34 1.247 . S
O33 Cd29 2.439 . S
O33 C34 1.208 . S
C34 O32 1.247 . S
C34 O33 1.208 . S
C35 O40 1.247 . S
C35 O41 1.208 . S
C36 O28 1.315 . S
C36 O31 1.279 . S
C37 O38 1.315 . S
C37 O39 1.279 . S
O38 Cd30 2.223 . S
O38 C37 1.315 . S
O39 Cd29 2.240 . S
O39 C37 1.279 . S
O40 Cd30 2.297 . S
O40 C35 1.247 . S
O41 Cd30 2.439 . S
O41 C35 1.208 . S
O42 Cd43 2.223 . S
O42 C50 1.315 . S
Cd43 O42 2.223 . S
Cd43 O46 2.297 . S
Cd43 O47 2.439 . S
Cd43 O53 2.240 . S
Cd44 O45 2.240 . S
Cd44 O52 2.223 . S
Cd44 O54 2.297 . S
Cd44 O55 2.439 1_556 S
O45 Cd44 2.240 . S
O45 C50 1.279 . S
O46 Cd43 2.297 . S
O46 C48 1.247 . S
O47 Cd43 2.439 . S
O47 C48 1.208 . S
C48 O46 1.247 . S
C48 O47 1.208 . S
C49 O54 1.247 1_554 S
C49 O55 1.208 . S
C50 O42 1.315 . S
C50 O45 1.279 . S
C51 O52 1.315 . S
C51 O53 1.279 . S
O52 Cd44 2.223 . S
O52 C51 1.315 . S
O53 Cd43 2.240 . S
O53 C51 1.279 . S
O54 Cd44 2.297 . S
O54 C49 1.247 1_556 S
O55 Cd44 2.439 1_554 S
O55 C49 1.208 . S
O56 Cd57 2.223 1_655 S
O56 C64 1.315 . S
Cd57 O56 2.223 1_455 S
Cd57 O60 2.297 1_455 S
Cd57 O61 2.439 1_455 S
Cd57 O67 2.240 . S
Cd58 O59 2.240 . S
Cd58 O66 2.223 1_655 S
Cd58 O68 2.297 1_655 S
Cd58 O69 2.439 1_655 S
O59 Cd58 2.240 . S
O59 C64 1.279 . S
O60 Cd57 2.297 1_655 S
O60 C62 1.247 . S
O61 Cd57 2.439 1_655 S
O61 C62 1.208 . S
C62 O60 1.247 . S
C62 O61 1.208 . S
C63 O68 1.247 . S
C63 O69 1.208 . S
C64 O56 1.315 . S
C64 O59 1.279 . S
C65 O66 1.315 . S
C65 O67 1.279 . S
O66 Cd58 2.223 1_455 S
O66 C65 1.315 . S
O67 Cd57 2.240 . S
O67 C65 1.279 . S
O68 Cd58 2.297 1_455 S
O68 C63 1.247 . S
O69 Cd58 2.439 1_455 S
O69 C63 1.208 . S
O70 Cd71 2.223 . S
O70 C78 1.315 . S
Cd71 O70 2.223 . S
Cd71 O74 2.297 . S
Cd71 O75 2.439 . S
Cd71 O81 2.240 . S
Cd72 O73 2.240 . S
Cd72 O80 2.223 . S
Cd72 O82 2.297 . S
Cd72 O83 2.439 . S
O73 Cd72 2.240 . S
O73 C78 1.279 . S
O74 Cd71 2.297 . S
O74 C76 1.247 . S
O75 Cd71 2.439 . S
O75 C76 1.208 . S
C76 O74 1.247 . S
C76 O75 1.208 . S
C77 O82 1.247 . S
C77 O83 1.208 . S
C78 O70 1.315 . S
C78 O73 1.279 . S
C79 O80 1.315 . S
C79 O81 1.279 . S
O80 Cd72 2.223 . S
O80 C79 1.315 . S
O81 Cd71 2.240 . S
O81 C79 1.279 . S
O82 Cd72 2.297 . S
O82 C77 1.247 . S
O83 Cd72 2.439 . S
O83 C77 1.208 . S
O84 Cd85 2.223 . S
O84 C92 1.315 . S
Cd85 O84 2.223 . S
Cd85 O88 2.297 . S
Cd85 O89 2.439 . S
Cd85 O95 2.240 . S
Cd86 O87 2.240 . S
Cd86 O94 2.223 . S
Cd86 O96 2.297 . S
Cd86 O97 2.439 . S
O87 Cd86 2.240 . S
O87 C92 1.279 . S
O88 Cd85 2.297 . S
O88 C90 1.247 . S
O89 Cd85 2.439 . S
O89 C90 1.208 . S
C90 O88 1.247 . S
C90 O89 1.208 . S
C91 O96 1.247 . S
C91 O97 1.208 . S
C92 O84 1.315 . S
C92 O87 1.279 . S
C93 O94 1.315 . S
C93 O95 1.279 . S
O94 Cd86 2.223 . S
O94 C93 1.315 . S
O95 Cd85 2.240 . S
O95 C93 1.279 . S
O96 Cd86 2.297 . S
O96 C91 1.247 . S
O97 Cd86 2.439 . S
O97 C91 1.208 . S
O98 Cd99 2.223 . S
O98 C106 1.315 . S
Cd99 O98 2.223 . S
Cd99 O102 2.297 . S
Cd99 O103 2.439 . S
Cd99 O109 2.240 1_655 S
Cd100 O101 2.264 . S
Cd100 O108 2.223 . S
Cd100 O110 2.297 . S
Cd100 O111 2.439 . S
O101 Cd100 2.264 . S
O101 C106 1.273 1_455 S
O102 Cd99 2.297 . S
O102 C104 1.247 . S
O103 Cd99 2.439 . S
O103 C104 1.208 . S
C104 O102 1.247 . S
C104 O103 1.208 . S
C105 O110 1.247 . S
C105 O111 1.208 . S
C106 O98 1.315 . S
C106 O101 1.273 1_655 S
C107 O108 1.315 . S
C107 O109 1.279 . S
O108 Cd100 2.223 . S
O108 C107 1.315 . S
O109 Cd99 2.240 1_455 S
O109 C107 1.279 . S
O110 Cd100 2.297 . S
O110 C105 1.247 . S
O111 Cd100 2.439 . S
O111 C105 1.208 . S
O112 Cd113 2.223 1_565 S
O112 C120 1.315 . S
Cd113 O112 2.223 1_545 S
Cd113 O116 2.297 1_545 S
Cd113 O117 2.439 1_545 S
Cd113 O123 2.240 . S
Cd114 O115 2.240 . S
Cd114 O122 2.223 1_565 S
Cd114 O124 2.297 1_565 S
Cd114 O125 2.439 1_565 S
O115 Cd114 2.240 . S
O115 C120 1.279 . S
O116 Cd113 2.297 1_565 S
O116 C118 1.247 . S
O117 Cd113 2.439 1_565 S
O117 C118 1.208 . S
C118 O116 1.247 . S
C118 O117 1.208 . S
C119 O124 1.247 . S
C119 O125 1.208 . S
C120 O112 1.315 . S
C120 O115 1.279 . S
C121 O122 1.315 . S
C121 O123 1.279 . S
O122 Cd114 2.223 1_545 S
O122 C121 1.315 . S
O123 Cd113 2.240 . S
O123 C121 1.279 . S
O124 Cd114 2.297 1_545 S
O124 C119 1.247 . S
O125 Cd114 2.439 1_545 S
O125 C119 1.208 . S
O126 Cd127 2.223 . S
O126 C134 1.315 . S
Cd127 O126 2.223 . S
Cd127 O130 2.297 . S
Cd127 O131 2.439 . S
Cd127 O137 2.240 . S
Cd128 O129 2.240 . S
Cd128 O136 2.223 . S
Cd128 O138 2.297 . S
Cd128 O139 2.439 1_565 S
O129 Cd128 2.240 . S
O129 C134 1.279 . S
O130 Cd127 2.297 . S
O130 C132 1.247 . S
O131 Cd127 2.439 . S
O131 C132 1.208 . S
C132 O130 1.247 . S
C132 O131 1.208 . S
C133 O138 1.247 1_545 S
C133 O139 1.208 . S
C134 O126 1.315 . S
C134 O129 1.279 . S
C135 O136 1.315 . S
C135 O137 1.279 . S
O136 Cd128 2.223 . S
O136 C135 1.315 . S
O137 Cd127 2.240 . S
O137 C135 1.279 . S
O138 Cd128 2.297 . S
O138 C133 1.247 1_565 S
O139 Cd128 2.439 1_545 S
O139 C133 1.208 . S
O140 Cd141 2.223 . S
O140 C148 1.315 . S
Cd141 O140 2.223 . S
Cd141 O144 2.297 . S
Cd141 O145 2.439 . S
Cd141 O151 2.240 . S
Cd142 O143 2.240 . S
Cd142 O150 2.223 . S
Cd142 O152 2.297 . S
Cd142 O153 2.439 . S
O143 Cd142 2.240 . S
O143 C148 1.279 . S
O144 Cd141 2.297 . S
O144 C146 1.247 . S
O145 Cd141 2.439 . S
O145 C146 1.208 . S
C146 O144 1.247 . S
C146 O145 1.208 . S
C147 O152 1.247 . S
C147 O153 1.208 . S
C148 O140 1.315 . S
C148 O143 1.279 . S
C149 O150 1.315 . S
C149 O151 1.279 . S
O150 Cd142 2.223 . S
O150 C149 1.315 . S
O151 Cd141 2.240 . S
O151 C149 1.279 . S
O152 Cd142 2.297 . S
O152 C147 1.247 . S
O153 Cd142 2.439 . S
O153 C147 1.208 . S
O154 Cd155 2.223 . S
O154 C162 1.315 . S
Cd155 O154 2.223 . S
Cd155 O158 2.297 . S
Cd155 O159 2.439 . S
Cd155 O165 2.240 . S
Cd156 O157 2.240 . S
Cd156 O164 2.223 . S
Cd156 O166 2.297 . S
Cd156 O167 2.439 . S
O157 Cd156 2.240 . S
O157 C162 1.279 . S
O158 Cd155 2.297 . S
O158 C160 1.247 . S
O159 Cd155 2.439 . S
O159 C160 1.208 . S
C160 O158 1.247 . S
C160 O159 1.208 . S
C161 O166 1.247 . S
C161 O167 1.208 . S
C162 O154 1.315 . S
C162 O157 1.279 . S
C163 O164 1.315 . S
C163 O165 1.279 . S
O164 Cd156 2.223 . S
O164 C163 1.315 . S
O165 Cd155 2.240 . S
O165 C163 1.279 . S
O166 Cd156 2.297 . S
O166 C161 1.247 . S
O167 Cd156 2.439 . S
O167 C161 1.208 . S
O168 Cd169 2.223 . S
O168 C176 1.315 . S
Cd169 O168 2.223 . S
Cd169 O172 2.297 . S
Cd169 O173 2.439 . S
Cd169 O179 2.240 . S
Cd170 O171 2.240 . S
Cd170 O178 2.223 . S
Cd170 O180 2.297 . S
Cd170 O181 2.439 . S
O171 Cd170 2.240 . S
O171 C176 1.279 . S
O172 Cd169 2.297 . S
O172 C174 1.247 . S
O173 Cd169 2.439 . S
O173 C174 1.208 . S
C174 O172 1.247 . S
C174 O173 1.208 . S
C175 O180 1.247 . S
C175 O181 1.208 . S
C176 O168 1.315 . S
C176 O171 1.279 . S
C177 O178 1.315 . S
C177 O179 1.279 . S
O178 Cd170 2.223 . S
O178 C177 1.315 . S
O179 Cd169 2.240 . S
O179 C177 1.279 . S
O180 Cd170 2.297 . S
O180 C175 1.247 . S
O181 Cd170 2.439 . S
O181 C175 1.208 . S
O182 Cd183 2.223 . S
O182 C190 1.315 . S
Cd183 O182 2.223 . S
Cd183 O186 2.297 . S
Cd183 O187 2.439 . S
Cd183 O193 2.240 . S
Cd184 O185 2.240 . S
Cd184 O192 2.223 . S
Cd184 O194 2.297 . S
Cd184 O195 2.439 1_565 S
O185 Cd184 2.240 . S
O185 C190 1.279 . S
O186 Cd183 2.297 . S
O186 C188 1.247 . S
O187 Cd183 2.439 . S
O187 C188 1.208 . S
C188 O186 1.247 . S
C188 O187 1.208 . S
C189 O194 1.247 1_545 S
C189 O195 1.208 . S
C190 O182 1.315 . S
C190 O185 1.279 . S
C191 O192 1.315 . S
C191 O193 1.279 . S
O192 Cd184 2.223 . S
O192 C191 1.315 . S
O193 Cd183 2.240 . S
O193 C191 1.279 . S
O194 Cd184 2.297 . S
O194 C189 1.247 1_565 S
O195 Cd184 2.439 1_545 S
O195 C189 1.208 . S
O196 Cd197 2.223 1_565 S
O196 C204 1.315 . S
Cd197 O196 2.223 1_545 S
Cd197 O200 2.297 1_545 S
Cd197 O201 2.439 1_545 S
Cd197 O207 2.240 . S
Cd198 O199 2.240 . S
Cd198 O206 2.223 1_565 S
Cd198 O208 2.297 1_565 S
Cd198 O209 2.439 1_565 S
O199 Cd198 2.240 . S
O199 C204 1.279 . S
O200 Cd197 2.297 1_565 S
O200 C202 1.247 . S
O201 Cd197 2.439 1_565 S
O201 C202 1.208 . S
C202 O200 1.247 . S
C202 O201 1.208 . S
C203 O208 1.247 . S
C203 O209 1.208 . S
C204 O196 1.315 . S
C204 O199 1.279 . S
C205 O206 1.315 . S
C205 O207 1.279 . S
O206 Cd198 2.223 1_545 S
O206 C205 1.315 . S
O207 Cd197 2.240 . S
O207 C205 1.279 . S
O208 Cd198 2.297 1_545 S
O208 C203 1.247 . S
O209 Cd198 2.439 1_545 S
O209 C203 1.208 . S
O210 Cd211 2.223 . S
O210 C218 1.315 . S
Cd211 O210 2.223 . S
Cd211 O214 2.297 . S
Cd211 O215 2.439 . S
Cd211 O221 2.240 1_556 S
Cd212 O213 2.264 . S
Cd212 O220 2.223 . S
Cd212 O222 2.297 . S
Cd212 O223 2.439 . S
O213 Cd212 2.264 . S
O213 C218 1.273 1_554 S
O214 Cd211 2.297 . S
O214 C216 1.247 . S
O215 Cd211 2.439 . S
O215 C216 1.208 . S
C216 O214 1.247 . S
C216 O215 1.208 . S
C217 O222 1.247 . S
C217 O223 1.208 . S
C218 O210 1.315 . S
C218 O213 1.273 1_556 S
C219 O220 1.315 . S
C219 O221 1.279 . S
O220 Cd212 2.223 . S
O220 C219 1.315 . S
O221 Cd211 2.240 1_554 S
O221 C219 1.279 . S
O222 Cd212 2.297 . S
O222 C217 1.247 . S
O223 Cd212 2.439 . S
O223 C217 1.208 . S
O224 Cd225 2.223 1_556 S
O224 C232 1.315 . S
Cd225 O224 2.223 1_554 S
Cd225 O228 2.297 1_554 S
Cd225 O229 2.439 1_554 S
Cd225 O235 2.240 . S
Cd226 O227 2.240 . S
Cd226 O234 2.223 1_556 S
Cd226 O236 2.297 1_556 S
Cd226 O237 2.439 1_556 S
O227 Cd226 2.240 . S
O227 C232 1.279 . S
O228 Cd225 2.297 1_556 S
O228 C230 1.247 . S
O229 Cd225 2.439 1_556 S
O229 C230 1.208 . S
C230 O228 1.247 . S
C230 O229 1.208 . S
C231 O236 1.247 . S
C231 O237 1.208 . S
C232 O224 1.315 . S
C232 O227 1.279 . S
C233 O234 1.315 . S
C233 O235 1.279 . S
O234 Cd226 2.223 1_554 S
O234 C233 1.315 . S
O235 Cd225 2.240 . S
O235 C233 1.279 . S
O236 Cd226 2.297 1_554 S
O236 C231 1.247 . S
O237 Cd226 2.439 1_554 S
O237 C231 1.208 . S
O238 Cd239 2.223 . S
O238 C246 1.315 . S
Cd239 O238 2.223 . S
Cd239 O242 2.297 . S
Cd239 O243 2.439 . S
Cd239 O249 2.240 . S
Cd240 O241 2.240 . S
Cd240 O248 2.223 . S
Cd240 O250 2.297 . S
Cd240 O251 2.439 . S
O241 Cd240 2.240 . S
O241 C246 1.279 . S
O242 Cd239 2.297 . S
O242 C244 1.247 . S
O243 Cd239 2.439 . S
O243 C244 1.208 . S
C244 O242 1.247 . S
C244 O243 1.208 . S
C245 O250 1.247 . S
C245 O251 1.208 . S
C246 O238 1.315 . S
C246 O241 1.279 . S
C247 O248 1.315 . S
C247 O249 1.279 . S
O248 Cd240 2.223 . S
O248 C247 1.315 . S
O249 Cd239 2.240 . S
O249 C247 1.279 . S
O250 Cd240 2.297 . S
O250 C245 1.247 . S
O251 Cd240 2.439 . S
O251 C245 1.208 . S
O252 Cd253 2.223 . S
O252 C260 1.315 . S
Cd253 O252 2.223 . S
Cd253 O256 2.297 . S
Cd253 O257 2.439 . S
Cd253 O263 2.240 . S
Cd254 O255 2.240 . S
Cd254 O262 2.223 . S
Cd254 O264 2.297 . S
Cd254 O265 2.439 1_655 S
O255 Cd254 2.240 . S
O255 C260 1.279 . S
O256 Cd253 2.297 . S
O256 C258 1.247 . S
O257 Cd253 2.439 . S
O257 C258 1.208 . S
C258 O256 1.247 . S
C258 O257 1.208 . S
C259 O264 1.247 1_455 S
C259 O265 1.208 . S
C260 O252 1.315 . S
C260 O255 1.279 . S
C261 O262 1.315 . S
C261 O263 1.279 . S
O262 Cd254 2.223 . S
O262 C261 1.315 . S
O263 Cd253 2.240 . S
O263 C261 1.279 . S
O264 Cd254 2.297 . S
O264 C259 1.247 1_655 S
O265 Cd254 2.439 1_455 S
O265 C259 1.208 . S
O266 Cd267 2.223 . S
O266 C274 1.315 . S
Cd267 O266 2.223 . S
Cd267 O270 2.297 . S
Cd267 O271 2.439 . S
Cd267 O277 2.240 . S
Cd268 O269 2.240 . S
Cd268 O276 2.223 . S
Cd268 O278 2.297 . S
Cd268 O279 2.439 . S
O269 Cd268 2.240 . S
O269 C274 1.279 . S
O270 Cd267 2.297 . S
O270 C272 1.247 . S
O271 Cd267 2.439 . S
O271 C272 1.208 . S
C272 O270 1.247 . S
C272 O271 1.208 . S
C273 O278 1.247 . S
C273 O279 1.208 . S
C274 O266 1.315 . S
C274 O269 1.279 . S
C275 O276 1.315 . S
C275 O277 1.279 . S
O276 Cd268 2.223 . S
O276 C275 1.315 . S
O277 Cd267 2.240 . S
O277 C275 1.279 . S
O278 Cd268 2.297 . S
O278 C273 1.247 . S
O279 Cd268 2.439 . S
O279 C273 1.208 . S
O280 Cd281 2.223 . S
O280 C288 1.315 . S
Cd281 O280 2.223 . S
Cd281 O284 2.297 . S
Cd281 O285 2.439 . S
Cd281 O291 2.240 1_565 S
Cd282 O283 2.264 . S
Cd282 O290 2.223 . S
Cd282 O292 2.297 . S
Cd282 O293 2.439 . S
O283 Cd282 2.264 . S
O283 C288 1.273 1_545 S
O284 Cd281 2.297 . S
O284 C286 1.247 . S
O285 Cd281 2.439 . S
O285 C286 1.208 . S
C286 O284 1.247 . S
C286 O285 1.208 . S
C287 O292 1.247 . S
C287 O293 1.208 . S
C288 O280 1.315 . S
C288 O283 1.273 1_565 S
C289 O290 1.315 . S
C289 O291 1.279 . S
O290 Cd282 2.223 . S
O290 C289 1.315 . S
O291 Cd281 2.240 1_545 S
O291 C289 1.279 . S
O292 Cd282 2.297 . S
O292 C287 1.247 . S
O293 Cd282 2.439 . S
O293 C287 1.208 . S
O294 Cd295 2.223 . S
O294 C302 1.315 . S
Cd295 O294 2.223 . S
Cd295 O298 2.297 . S
Cd295 O299 2.439 . S
Cd295 O305 2.240 . S
Cd296 O297 2.240 . S
Cd296 O304 2.223 . S
Cd296 O306 2.297 . S
Cd296 O307 2.439 . S
O297 Cd296 2.240 . S
O297 C302 1.279 . S
O298 Cd295 2.297 . S
O298 C300 1.247 . S
O299 Cd295 2.439 . S
O299 C300 1.208 . S
C300 O298 1.247 . S
C300 O299 1.208 . S
C301 O306 1.247 . S
C301 O307 1.208 . S
C302 O294 1.315 . S
C302 O297 1.279 . S
C303 O304 1.315 . S
C303 O305 1.279 . S
O304 Cd296 2.223 . S
O304 C303 1.315 . S
O305 Cd295 2.240 . S
O305 C303 1.279 . S
O306 Cd296 2.297 . S
O306 C301 1.247 . S
O307 Cd296 2.439 . S
O307 C301 1.208 . S
O308 Cd309 2.223 . S
O308 C316 1.315 . S
Cd309 O308 2.223 . S
Cd309 O312 2.297 . S
Cd309 O313 2.439 . S
Cd309 O319 2.240 . S
Cd310 O311 2.240 . S
Cd310 O318 2.223 . S
Cd310 O320 2.297 . S
Cd310 O321 2.439 1_655 S
O311 Cd310 2.240 . S
O311 C316 1.279 . S
O312 Cd309 2.297 . S
O312 C314 1.247 . S
O313 Cd309 2.439 . S
O313 C314 1.208 . S
C314 O312 1.247 . S
C314 O313 1.208 . S
C315 O320 1.247 1_455 S
C315 O321 1.208 . S
C316 O308 1.315 . S
C316 O311 1.279 . S
C317 O318 1.315 . S
C317 O319 1.279 . S
O318 Cd310 2.223 . S
O318 C317 1.315 . S
O319 Cd309 2.240 . S
O319 C317 1.279 . S
O320 Cd310 2.297 . S
O320 C315 1.247 1_655 S
O321 Cd310 2.439 1_455 S
O321 C315 1.208 . S
O322 Cd323 2.223 . S
O322 C330 1.315 . S
Cd323 O322 2.223 . S
Cd323 O326 2.297 . S
Cd323 O327 2.439 . S
Cd323 O333 2.240 . S
Cd324 O325 2.240 . S
Cd324 O332 2.223 . S
Cd324 O334 2.297 . S
Cd324 O335 2.439 . S
O325 Cd324 2.240 . S
O325 C330 1.279 . S
O326 Cd323 2.297 . S
O326 C328 1.247 . S
O327 Cd323 2.439 . S
O327 C328 1.208 . S
C328 O326 1.247 . S
C328 O327 1.208 . S
C329 O334 1.247 . S
C329 O335 1.208 . S
C330 O322 1.315 . S
C330 O325 1.279 . S
C331 O332 1.315 . S
C331 O333 1.279 . S
O332 Cd324 2.223 . S
O332 C331 1.315 . S
O333 Cd323 2.240 . S
O333 C331 1.279 . S
O334 Cd324 2.297 . S
O334 C329 1.247 . S
O335 Cd324 2.439 . S
O335 C329 1.208 . S
O336 Cd337 2.223 . S
O336 C344 1.315 . S
Cd337 O336 2.223 . S
Cd337 O340 2.297 . S
Cd337 O341 2.439 . S
Cd337 O347 2.240 . S
Cd338 O339 2.240 . S
Cd338 O346 2.223 . S
Cd338 O348 2.297 . S
Cd338 O349 2.439 . S
O339 Cd338 2.240 . S
O339 C344 1.279 . S
O340 Cd337 2.297 . S
O340 C342 1.247 . S
O341 Cd337 2.439 . S
O341 C342 1.208 . S
C342 O340 1.247 . S
C342 O341 1.208 . S
C343 O348 1.247 . S
C343 O349 1.208 . S
C344 O336 1.315 . S
C344 O339 1.279 . S
C345 O346 1.315 . S
C345 O347 1.279 . S
O346 Cd338 2.223 . S
O346 C345 1.315 . S
O347 Cd337 2.240 . S
O347 C345 1.279 . S
O348 Cd338 2.297 . S
O348 C343 1.247 . S
O349 Cd338 2.439 . S
O349 C343 1.208 . S
O350 Cd351 2.223 . S
O350 C358 1.315 . S
Cd351 O350 2.223 . S
Cd351 O354 2.297 . S
Cd351 O355 2.439 . S
Cd351 O361 2.240 . S
Cd352 O353 2.240 . S
Cd352 O360 2.223 . S
Cd352 O362 2.297 . S
Cd352 O363 2.439 1_556 S
O353 Cd352 2.240 . S
O353 C358 1.279 . S
O354 Cd351 2.297 . S
O354 C356 1.247 . S
O355 Cd351 2.439 . S
O355 C356 1.208 . S
C356 O354 1.247 . S
C356 O355 1.208 . S
C357 O362 1.247 1_554 S
C357 O363 1.208 . S
C358 O350 1.315 . S
C358 O353 1.279 . S
C359 O360 1.315 . S
C359 O361 1.279 . S
O360 Cd352 2.223 . S
O360 C359 1.315 . S
O361 Cd351 2.240 . S
O361 C359 1.279 . S
O362 Cd352 2.297 . S
O362 C357 1.247 1_556 S
O363 Cd352 2.439 1_554 S
O363 C357 1.208 . S
O364 Cd365 2.223 . S
O364 C372 1.315 . S
Cd365 O364 2.223 . S
Cd365 O368 2.297 . S
Cd365 O369 2.439 . S
Cd365 O375 2.240 . S
Cd366 O367 2.240 . S
Cd366 O374 2.223 . S
Cd366 O376 2.297 . S
Cd366 O377 2.439 . S
O367 Cd366 2.240 . S
O367 C372 1.279 . S
O368 Cd365 2.297 . S
O368 C370 1.247 . S
O369 Cd365 2.439 . S
O369 C370 1.208 . S
C370 O368 1.247 . S
C370 O369 1.208 . S
C371 O376 1.247 . S
C371 O377 1.208 . S
C372 O364 1.315 . S
C372 O367 1.279 . S
C373 O374 1.315 . S
C373 O375 1.279 . S
O374 Cd366 2.223 . S
O374 C373 1.315 . S
O375 Cd365 2.240 . S
O375 C373 1.279 . S
O376 Cd366 2.297 . S
O376 C371 1.247 . S
O377 Cd366 2.439 . S
O377 C371 1.208 . S
O378 Cd379 2.223 . S
O378 C386 1.315 . S
Cd379 O378 2.223 . S
Cd379 O382 2.297 . S
Cd379 O383 2.439 . S
Cd379 O389 2.240 . S
Cd380 O381 2.240 . S
Cd380 O388 2.223 . S
Cd380 O390 2.297 . S
Cd380 O391 2.439 . S
O381 Cd380 2.240 . S
O381 C386 1.279 . S
O382 Cd379 2.297 . S
O382 C384 1.247 . S
O383 Cd379 2.439 . S
O383 C384 1.208 . S
C384 O382 1.247 . S
C384 O383 1.208 . S
C385 O390 1.247 . S
C385 O391 1.208 . S
C386 O378 1.315 . S
C386 O381 1.279 . S
C387 O388 1.315 . S
C387 O389 1.279 . S
O388 Cd380 2.223 . S
O388 C387 1.315 . S
O389 Cd379 2.240 . S
O389 C387 1.279 . S
O390 Cd380 2.297 . S
O390 C385 1.247 . S
O391 Cd380 2.439 . S
O391 C385 1.208 . S
O392 Cd393 2.223 . S
O392 C400 1.315 . S
Cd393 O392 2.223 . S
Cd393 O396 2.297 . S
Cd393 O397 2.439 . S
Cd393 O403 2.240 . S
Cd394 O395 2.240 . S
Cd394 O402 2.223 . S
Cd394 O404 2.297 . S
Cd394 O405 2.439 . S
O395 Cd394 2.240 . S
O395 C400 1.279 . S
O396 Cd393 2.297 . S
O396 C398 1.247 . S
O397 Cd393 2.439 . S
O397 C398 1.208 . S
C398 O396 1.247 . S
C398 O397 1.208 . S
C399 O404 1.247 . S
C399 O405 1.208 . S
C400 O392 1.315 . S
C400 O395 1.279 . S
C401 O402 1.315 . S
C401 O403 1.279 . S
O402 Cd394 2.223 . S
O402 C401 1.315 . S
O403 Cd393 2.240 . S
O403 C401 1.279 . S
O404 Cd394 2.297 . S
O404 C399 1.247 . S
O405 Cd394 2.439 . S
O405 C399 1.208 . S
O406 Cd407 2.223 . S
O406 C414 1.315 . S
Cd407 O406 2.223 . S
Cd407 O410 2.297 . S
Cd407 O411 2.439 . S
Cd407 O417 2.240 . S
Cd408 O409 2.240 . S
Cd408 O416 2.223 . S
Cd408 O418 2.297 . S
Cd408 O419 2.439 . S
O409 Cd408 2.240 . S
O409 C414 1.279 . S
O410 Cd407 2.297 . S
O410 C412 1.247 . S
O411 Cd407 2.439 . S
O411 C412 1.208 . S
C412 O410 1.247 . S
C412 O411 1.208 . S
C413 O418 1.247 . S
C413 O419 1.208 . S
C414 O406 1.315 . S
C414 O409 1.279 . S
C415 O416 1.315 . S
C415 O417 1.279 . S
O416 Cd408 2.223 . S
O416 C415 1.315 . S
O417 Cd407 2.240 . S
O417 C415 1.279 . S
O418 Cd408 2.297 . S
O418 C413 1.247 . S
O419 Cd408 2.439 . S
O419 C413 1.208 . S
O420 Cd421 2.223 . S
O420 C428 1.315 . S
Cd421 O420 2.223 . S
Cd421 O424 2.297 . S
Cd421 O425 2.439 . S
Cd421 O431 2.240 . S
Cd422 O423 2.240 . S
Cd422 O430 2.223 . S
Cd422 O432 2.297 . S
Cd422 O433 2.439 . S
O423 Cd422 2.240 . S
O423 C428 1.279 . S
O424 Cd421 2.297 . S
O424 C426 1.247 . S
O425 Cd421 2.439 . S
O425 C426 1.208 . S
C426 O424 1.247 . S
C426 O425 1.208 . S
C427 O432 1.247 . S
C427 O433 1.208 . S
C428 O420 1.315 . S
C428 O423 1.279 . S
C429 O430 1.315 . S
C429 O431 1.279 . S
O430 Cd422 2.223 . S
O430 C429 1.315 . S
O431 Cd421 2.240 . S
O431 C429 1.279 . S
O432 Cd422 2.297 . S
O432 C427 1.247 . S
O433 Cd422 2.439 . S
O433 C427 1.208 . S
O434 Cd435 2.223 . S
O434 C442 1.315 . S
Cd435 O434 2.223 . S
Cd435 O438 2.297 . S
Cd435 O439 2.439 . S
Cd435 O445 2.240 . S
Cd436 O437 2.240 . S
Cd436 O444 2.223 . S
Cd436 O446 2.297 . S
Cd436 O447 2.439 . S
O437 Cd436 2.240 . S
O437 C442 1.279 . S
O438 Cd435 2.297 . S
O438 C440 1.247 . S
O439 Cd435 2.439 . S
O439 C440 1.208 . S
C440 O438 1.247 . S
C440 O439 1.208 . S
C441 O446 1.247 . S
C441 O447 1.208 . S
C442 O434 1.315 . S
C442 O437 1.279 . S
C443 O444 1.315 . S
C443 O445 1.279 . S
O444 Cd436 2.223 . S
O444 C443 1.315 . S
O445 Cd435 2.240 . S
O445 C443 1.279 . S
O446 Cd436 2.297 . S
O446 C441 1.247 . S
O447 Cd436 2.439 . S
O447 C441 1.208 . S
O448 Cd449 2.223 . S
O448 C456 1.315 . S
Cd449 O448 2.223 . S
Cd449 O452 2.297 . S
Cd449 O453 2.439 . S
Cd449 O459 2.240 . S
Cd450 O451 2.240 . S
Cd450 O458 2.223 . S
Cd450 O460 2.297 . S
Cd450 O461 2.439 . S
O451 Cd450 2.240 . S
O451 C456 1.279 . S
O452 Cd449 2.297 . S
O452 C454 1.247 . S
O453 Cd449 2.439 . S
O453 C454 1.208 . S
C454 O452 1.247 . S
C454 O453 1.208 . S
C455 O460 1.247 . S
C455 O461 1.208 . S
C456 O448 1.315 . S
C456 O451 1.279 . S
C457 O458 1.315 . S
C457 O459 1.279 . S
O458 Cd450 2.223 . S
O458 C457 1.315 . S
O459 Cd449 2.240 . S
O459 C457 1.279 . S
O460 Cd450 2.297 . S
O460 C455 1.247 . S
O461 Cd450 2.439 . S
O461 C455 1.208 . S
O462 Cd463 2.223 . S
O462 C470 1.315 . S
Cd463 O462 2.223 . S
Cd463 O466 2.297 . S
Cd463 O467 2.439 . S
Cd463 O473 2.240 . S
Cd464 O465 2.240 . S
Cd464 O472 2.223 . S
Cd464 O474 2.297 . S
Cd464 O475 2.439 . S
O465 Cd464 2.240 . S
O465 C470 1.279 . S
O466 Cd463 2.297 . S
O466 C468 1.247 . S
O467 Cd463 2.439 . S
O467 C468 1.208 . S
C468 O466 1.247 . S
C468 O467 1.208 . S
C469 O474 1.247 . S
C469 O475 1.208 . S
C470 O462 1.315 . S
C470 O465 1.279 . S
C471 O472 1.315 . S
C471 O473 1.279 . S
O472 Cd464 2.223 . S
O472 C471 1.315 . S
O473 Cd463 2.240 . S
O473 C471 1.279 . S
O474 Cd464 2.297 . S
O474 C469 1.247 . S
O475 Cd464 2.439 . S
O475 C469 1.208 . S
O476 Cd477 2.223 . S
O476 C484 1.315 . S
Cd477 O476 2.223 . S
Cd477 O480 2.297 . S
Cd477 O481 2.439 . S
Cd477 O487 2.240 . S
Cd478 O479 2.240 . S
Cd478 O486 2.223 . S
Cd478 O488 2.297 . S
Cd478 O489 2.439 . S
O479 Cd478 2.240 . S
O479 C484 1.279 . S
O480 Cd477 2.297 . S
O480 C482 1.247 . S
O481 Cd477 2.439 . S
O481 C482 1.208 . S
C482 O480 1.247 . S
C482 O481 1.208 . S
C483 O488 1.247 . S
C483 O489 1.208 . S
C484 O476 1.315 . S
C484 O479 1.279 . S
C485 O486 1.315 . S
C485 O487 1.279 . S
O486 Cd478 2.223 . S
O486 C485 1.315 . S
O487 Cd477 2.240 . S
O487 C485 1.279 . S
O488 Cd478 2.297 . S
O488 C483 1.247 . S
O489 Cd478 2.439 . S
O489 C483 1.208 . S
O490 Cd491 2.223 . S
O490 C498 1.315 . S
Cd491 O490 2.223 . S
Cd491 O494 2.297 . S
Cd491 O495 2.439 . S
Cd491 O501 2.240 . S
Cd492 O493 2.240 . S
Cd492 O500 2.223 . S
Cd492 O502 2.297 . S
Cd492 O503 2.439 . S
O493 Cd492 2.240 . S
O493 C498 1.279 . S
O494 Cd491 2.297 . S
O494 C496 1.247 . S
O495 Cd491 2.439 . S
O495 C496 1.208 . S
C496 O494 1.247 . S
C496 O495 1.208 . S
C497 O502 1.247 . S
C497 O503 1.208 . S
C498 O490 1.315 . S
C498 O493 1.279 . S
C499 O500 1.315 . S
C499 O501 1.279 . S
O500 Cd492 2.223 . S
O500 C499 1.315 . S
O501 Cd491 2.240 . S
O501 C499 1.279 . S
O502 Cd492 2.297 . S
O502 C497 1.247 . S
O503 Cd492 2.439 . S
O503 C497 1.208 . S
O504 Cd505 2.223 . S
O504 C512 1.315 . S
Cd505 O504 2.223 . S
Cd505 O508 2.297 . S
Cd505 O509 2.439 . S
Cd505 O515 2.240 . S
Cd506 O507 2.240 . S
Cd506 O514 2.223 . S
Cd506 O516 2.297 . S
Cd506 O517 2.439 . S
O507 Cd506 2.240 . S
O507 C512 1.279 . S
O508 Cd505 2.297 . S
O508 C510 1.247 . S
O509 Cd505 2.439 . S
O509 C510 1.208 . S
C510 O508 1.247 . S
C510 O509 1.208 . S
C511 O516 1.247 . S
C511 O517 1.208 . S
C512 O504 1.315 . S
C512 O507 1.279 . S
C513 O514 1.315 . S
C513 O515 1.279 . S
O514 Cd506 2.223 . S
O514 C513 1.315 . S
O515 Cd505 2.240 . S
O515 C513 1.279 . S
O516 Cd506 2.297 . S
O516 C511 1.247 . S
O517 Cd506 2.439 . S
O517 C511 1.208 . S
O518 Cd519 2.223 . S
O518 C526 1.315 . S
Cd519 O518 2.223 . S
Cd519 O522 2.297 . S
Cd519 O523 2.439 . S
Cd519 O529 2.240 1_556 S
Cd520 O521 2.243 . S
Cd520 O528 2.223 . S
Cd520 O530 2.297 . S
Cd520 O531 2.439 . S
O521 Cd520 2.243 . S
O521 C526 1.278 1_554 S
O522 Cd519 2.297 . S
O522 C524 1.247 . S
O523 Cd519 2.439 . S
O523 C524 1.208 . S
C524 O522 1.247 . S
C524 O523 1.208 . S
C525 O530 1.247 . S
C525 O531 1.208 . S
C526 O518 1.315 . S
C526 O521 1.278 1_556 S
C527 O528 1.315 . S
C527 O529 1.279 . S
O528 Cd520 2.223 . S
O528 C527 1.315 . S
O529 Cd519 2.240 1_554 S
O529 C527 1.279 . S
O530 Cd520 2.297 . S
O530 C525 1.247 . S
O531 Cd520 2.439 . S
O531 C525 1.208 . S
O532 Cd533 2.223 . S
O532 C540 1.315 . S
Cd533 O532 2.223 . S
Cd533 O536 2.297 . S
Cd533 O537 2.439 . S
Cd533 O543 2.240 . S
Cd534 O535 2.240 . S
Cd534 O542 2.223 . S
Cd534 O544 2.297 . S
Cd534 O545 2.439 . S
O535 Cd534 2.240 . S
O535 C540 1.279 . S
O536 Cd533 2.297 . S
O536 C538 1.247 . S
O537 Cd533 2.439 . S
O537 C538 1.208 . S
C538 O536 1.247 . S
C538 O537 1.208 . S
C539 O544 1.247 . S
C539 O545 1.208 . S
C540 O532 1.315 . S
C540 O535 1.279 . S
C541 O542 1.315 . S
C541 O543 1.279 . S
O542 Cd534 2.223 . S
O542 C541 1.315 . S
O543 Cd533 2.240 . S
O543 C541 1.279 . S
O544 Cd534 2.297 . S
O544 C539 1.247 . S
O545 Cd534 2.439 . S
O545 C539 1.208 . S
O546 Cd547 2.223 . S
O546 C554 1.315 . S
Cd547 O546 2.223 . S
Cd547 O550 2.297 . S
Cd547 O551 2.439 . S
Cd547 O557 2.240 . S
Cd548 O549 2.240 . S
Cd548 O556 2.223 . S
Cd548 O558 2.297 . S
Cd548 O559 2.439 . S
O549 Cd548 2.240 . S
O549 C554 1.279 . S
O550 Cd547 2.297 . S
O550 C552 1.247 . S
O551 Cd547 2.439 . S
O551 C552 1.208 . S
C552 O550 1.247 . S
C552 O551 1.208 . S
C553 O558 1.247 . S
C553 O559 1.208 . S
C554 O546 1.315 . S
C554 O549 1.279 . S
C555 O556 1.315 . S
C555 O557 1.279 . S
O556 Cd548 2.223 . S
O556 C555 1.315 . S
O557 Cd547 2.240 . S
O557 C555 1.279 . S
O558 Cd548 2.297 . S
O558 C553 1.247 . S
O559 Cd548 2.439 . S
O559 C553 1.208 . S
O560 Cd561 2.223 . S
O560 C568 1.315 . S
Cd561 O560 2.223 . S
Cd561 O564 2.297 . S
Cd561 O565 2.439 . S
Cd561 O571 2.240 . S
Cd562 O563 2.240 . S
Cd562 O570 2.223 . S
Cd562 O572 2.297 . S
Cd562 O573 2.439 . S
O563 Cd562 2.240 . S
O563 C568 1.279 . S
O564 Cd561 2.297 . S
O564 C566 1.247 . S
O565 Cd561 2.439 . S
O565 C566 1.208 . S
C566 O564 1.247 . S
C566 O565 1.208 . S
C567 O572 1.247 . S
C567 O573 1.208 . S
C568 O560 1.315 . S
C568 O563 1.279 . S
C569 O570 1.315 . S
C569 O571 1.279 . S
O570 Cd562 2.223 . S
O570 C569 1.315 . S
O571 Cd561 2.240 . S
O571 C569 1.279 . S
O572 Cd562 2.297 . S
O572 C567 1.247 . S
O573 Cd562 2.439 . S
O573 C567 1.208 . S
O574 Cd575 2.223 . S
O574 C582 1.315 . S
Cd575 O574 2.223 . S
Cd575 O578 2.297 . S
Cd575 O579 2.439 . S
Cd575 O585 2.240 . S
Cd576 O577 2.240 . S
Cd576 O584 2.223 . S
Cd576 O586 2.297 . S
Cd576 O587 2.439 . S
O577 Cd576 2.240 . S
O577 C582 1.279 . S
O578 Cd575 2.297 . S
O578 C580 1.247 . S
O579 Cd575 2.439 . S
O579 C580 1.208 . S
C580 O578 1.247 . S
C580 O579 1.208 . S
C581 O586 1.247 . S
C581 O587 1.208 . S
C582 O574 1.315 . S
C582 O577 1.279 . S
C583 O584 1.315 . S
C583 O585 1.279 . S
O584 Cd576 2.223 . S
O584 C583 1.315 . S
O585 Cd575 2.240 . S
O585 C583 1.279 . S
O586 Cd576 2.297 . S
O586 C581 1.247 . S
O587 Cd576 2.439 . S
O587 C581 1.208 . S
O588 Cd589 2.223 . S
O588 C596 1.315 . S
Cd589 O588 2.223 . S
Cd589 O592 2.297 . S
Cd589 O593 2.439 . S
Cd589 O599 2.240 . S
Cd590 O591 2.240 . S
Cd590 O598 2.223 . S
Cd590 O600 2.297 . S
Cd590 O601 2.439 . S
O591 Cd590 2.240 . S
O591 C596 1.279 . S
O592 Cd589 2.297 . S
O592 C594 1.247 . S
O593 Cd589 2.439 . S
O593 C594 1.208 . S
C594 O592 1.247 . S
C594 O593 1.208 . S
C595 O600 1.247 . S
C595 O601 1.208 . S
C596 O588 1.315 . S
C596 O591 1.279 . S
C597 O598 1.315 . S
C597 O599 1.279 . S
O598 Cd590 2.223 . S
O598 C597 1.315 . S
O599 Cd589 2.240 . S
O599 C597 1.279 . S
O600 Cd590 2.297 . S
O600 C595 1.247 . S
O601 Cd590 2.439 . S
O601 C595 1.208 . S
O602 Cd603 2.223 . S
O602 C610 1.315 . S
Cd603 O602 2.223 . S
Cd603 O606 2.297 . S
Cd603 O607 2.439 . S
Cd603 O613 2.240 . S
Cd604 O605 2.240 . S
Cd604 O612 2.223 . S
Cd604 O614 2.297 . S
Cd604 O615 2.439 . S
O605 Cd604 2.240 . S
O605 C610 1.279 . S
O606 Cd603 2.297 . S
O606 C608 1.247 . S
O607 Cd603 2.439 . S
O607 C608 1.208 . S
C608 O606 1.247 . S
C608 O607 1.208 . S
C609 O614 1.247 . S
C609 O615 1.208 . S
C610 O602 1.315 . S
C610 O605 1.279 . S
C611 O612 1.315 . S
C611 O613 1.279 . S
O612 Cd604 2.223 . S
O612 C611 1.315 . S
O613 Cd603 2.240 . S
O613 C611 1.279 . S
O614 Cd604 2.297 . S
O614 C609 1.247 . S
O615 Cd604 2.439 . S
O615 C609 1.208 . S
O616 Cd617 2.223 . S
O616 C624 1.315 . S
Cd617 O616 2.223 . S
Cd617 O620 2.297 . S
Cd617 O621 2.439 . S
Cd617 O627 2.240 . S
Cd618 O619 2.240 . S
Cd618 O626 2.223 . S
Cd618 O628 2.297 . S
Cd618 O629 2.439 . S
O619 Cd618 2.240 . S
O619 C624 1.279 . S
O620 Cd617 2.297 . S
O620 C622 1.247 . S
O621 Cd617 2.439 . S
O621 C622 1.208 . S
C622 O620 1.247 . S
C622 O621 1.208 . S
C623 O628 1.247 . S
C623 O629 1.208 . S
C624 O616 1.315 . S
C624 O619 1.279 . S
C625 O626 1.315 . S
C625 O627 1.279 . S
O626 Cd618 2.223 . S
O626 C625 1.315 . S
O627 Cd617 2.240 . S
O627 C625 1.279 . S
O628 Cd618 2.297 . S
O628 C623 1.247 . S
O629 Cd618 2.439 . S
O629 C623 1.208 . S
O630 Cd631 2.223 1_556 S
O630 C638 1.315 . S
Cd631 O630 2.223 1_554 S
Cd631 O634 2.297 1_554 S
Cd631 O635 2.439 1_554 S
Cd631 O641 2.240 . S
Cd632 O633 2.240 . S
Cd632 O640 2.223 1_556 S
Cd632 O642 2.297 1_556 S
Cd632 O643 2.439 1_556 S
O633 Cd632 2.240 . S
O633 C638 1.279 . S
O634 Cd631 2.297 1_556 S
O634 C636 1.247 . S
O635 Cd631 2.439 1_556 S
O635 C636 1.208 . S
C636 O634 1.247 . S
C636 O635 1.208 . S
C637 O642 1.247 . S
C637 O643 1.208 . S
C638 O630 1.315 . S
C638 O633 1.279 . S
C639 O640 1.315 . S
C639 O641 1.279 . S
O640 Cd632 2.223 1_554 S
O640 C639 1.315 . S
O641 Cd631 2.240 . S
O641 C639 1.279 . S
O642 Cd632 2.297 1_554 S
O642 C637 1.247 . S
O643 Cd632 2.439 1_554 S
O643 C637 1.208 . S
O644 Cd645 2.223 . S
O644 C652 1.315 . S
Cd645 O644 2.223 . S
Cd645 O648 2.297 . S
Cd645 O649 2.439 . S
Cd645 O655 2.240 1_565 S
Cd646 O647 2.243 . S
Cd646 O654 2.223 . S
Cd646 O656 2.297 . S
Cd646 O657 2.439 . S
O647 Cd646 2.243 . S
O647 C652 1.278 1_545 S
O648 Cd645 2.297 . S
O648 C650 1.247 . S
O649 Cd645 2.439 . S
O649 C650 1.208 . S
C650 O648 1.247 . S
C650 O649 1.208 . S
C651 O656 1.247 . S
C651 O657 1.208 . S
C652 O644 1.315 . S
C652 O647 1.278 1_565 S
C653 O654 1.315 . S
C653 O655 1.279 . S
O654 Cd646 2.223 . S
O654 C653 1.315 . S
O655 Cd645 2.240 1_545 S
O655 C653 1.279 . S
O656 Cd646 2.297 . S
O656 C651 1.247 . S
O657 Cd646 2.439 . S
O657 C651 1.208 . S
O658 Cd659 2.223 . S
O658 C666 1.315 . S
Cd659 O658 2.223 . S
Cd659 O662 2.297 . S
Cd659 O663 2.439 . S
Cd659 O669 2.240 . S
Cd660 O661 2.240 . S
Cd660 O668 2.223 . S
Cd660 O670 2.297 . S
Cd660 O671 2.439 . S
O661 Cd660 2.240 . S
O661 C666 1.279 . S
O662 Cd659 2.297 . S
O662 C664 1.247 . S
O663 Cd659 2.439 . S
O663 C664 1.208 . S
C664 O662 1.247 . S
C664 O663 1.208 . S
C665 O670 1.247 . S
C665 O671 1.208 . S
C666 O658 1.315 . S
C666 O661 1.279 . S
C667 O668 1.315 . S
C667 O669 1.279 . S
O668 Cd660 2.223 . S
O668 C667 1.315 . S
O669 Cd659 2.240 . S
O669 C667 1.279 . S
O670 Cd660 2.297 . S
O670 C665 1.247 . S
O671 Cd660 2.439 . S
O671 C665 1.208 . S
C672 C673 1.387 . S
C672 H676 0.950 . S
C672 C681 1.390 . S
C673 C672 1.387 . S
C673 C675 1.387 . S
H674 C681 0.950 . S
C675 C673 1.387 . S
C675 C677 1.390 . S
C675 H679 0.950 . S
H676 C672 0.950 . S
C677 C675 1.390 . S
C677 C678 1.387 . S
C677 H680 0.950 . S
C678 C677 1.387 . S
C678 C681 1.387 . S
H679 C675 0.950 . S
H680 C677 0.950 . S
C681 C672 1.390 . S
C681 H674 0.950 . S
C681 C678 1.387 . S
C682 C683 1.387 . S
C682 H686 0.950 . S
C682 C691 1.390 . S
C683 C682 1.387 . S
C683 C685 1.387 . S
H684 C691 0.950 . S
C685 C683 1.387 . S
C685 C687 1.390 . S
C685 H689 0.950 . S
H686 C682 0.950 . S
C687 C685 1.390 . S
C687 C688 1.387 . S
C687 H690 0.950 . S
C688 C687 1.387 . S
C688 C691 1.387 . S
H689 C685 0.950 . S
H690 C687 0.950 . S
C691 C682 1.390 . S
C691 H684 0.950 . S
C691 C688 1.387 . S
C692 C693 1.387 . S
C692 H696 0.950 . S
C692 C701 1.390 . S
C693 C692 1.387 . S
C693 C695 1.387 . S
H694 C701 0.950 . S
C695 C693 1.387 . S
C695 C697 1.390 . S
C695 H699 0.950 . S
H696 C692 0.950 . S
C697 C695 1.390 . S
C697 C698 1.387 . S
C697 H700 0.950 . S
C698 C697 1.387 . S
C698 C701 1.387 . S
H699 C695 0.950 . S
H700 C697 0.950 . S
C701 C692 1.390 . S
C701 H694 0.950 . S
C701 C698 1.387 . S
C702 C703 1.361 1_556 S
C702 H706 0.976 . S
C702 C711 1.390 . S
C703 C702 1.361 1_554 S
C703 C705 1.387 . S
H704 C711 1.000 . S
C705 C703 1.387 . S
C705 C707 1.390 . S
C705 H709 0.950 . S
H706 C702 0.976 . S
C707 C705 1.390 . S
C707 C708 1.387 . S
C707 H710 0.950 . S
C708 C707 1.387 . S
C708 C711 1.338 1_554 S
H709 C705 0.950 . S
H710 C707 0.950 . S
C711 C702 1.390 . S
C711 H704 1.000 . S
C711 C708 1.338 1_556 S
C712 C713 1.387 . S
C712 H716 0.950 . S
C712 C721 1.390 . S
C713 C712 1.387 . S
C713 C715 1.387 . S
H714 C721 0.950 . S
C715 C713 1.387 . S
C715 C717 1.390 . S
C715 H719 0.950 . S
H716 C712 0.950 . S
C717 C715 1.390 . S
C717 C718 1.387 . S
C717 H720 0.950 . S
C718 C717 1.387 . S
C718 C721 1.387 . S
H719 C715 0.950 . S
H720 C717 0.950 . S
C721 C712 1.390 . S
C721 H714 0.950 . S
C721 C718 1.387 . S
C722 C723 1.387 . S
C722 H726 0.950 . S
C722 C731 1.390 . S
C723 C722 1.387 . S
C723 C725 1.387 . S
H724 C731 0.950 . S
C725 C723 1.387 . S
C725 C727 1.390 . S
C725 H729 0.950 . S
H726 C722 0.950 . S
C727 C725 1.390 . S
C727 C728 1.387 . S
C727 H730 0.950 . S
C728 C727 1.387 . S
C728 C731 1.387 . S
H729 C725 0.950 . S
H730 C727 0.950 . S
C731 C722 1.390 . S
C731 H724 0.950 . S
C731 C728 1.387 . S
C732 C733 1.387 . S
C732 H736 0.950 . S
C732 C741 1.390 . S
C733 C732 1.387 . S
C733 C735 1.387 . S
H734 C741 0.950 . S
C735 C733 1.387 . S
C735 C737 1.390 . S
C735 H739 0.950 . S
H736 C732 0.950 . S
C737 C735 1.390 . S
C737 C738 1.387 . S
C737 H740 0.950 . S
C738 C737 1.387 . S
C738 C741 1.387 . S
H739 C735 0.950 . S
H740 C737 0.950 . S
C741 C732 1.390 . S
C741 H734 0.950 . S
C741 C738 1.387 . S
C742 C743 1.387 . S
C742 H746 0.950 . S
C742 C751 1.390 . S
C743 C742 1.387 . S
C743 C745 1.387 . S
H744 C751 0.950 . S
C745 C743 1.387 . S
C745 C747 1.390 . S
C745 H749 0.950 . S
H746 C742 0.950 . S
C747 C745 1.390 . S
C747 C748 1.387 . S
C747 H750 0.950 . S
C748 C747 1.387 . S
C748 C751 1.387 . S
H749 C745 0.950 . S
H750 C747 0.950 . S
C751 C742 1.390 . S
C751 H744 0.950 . S
C751 C748 1.387 . S
C752 C753 1.387 . S
C752 H756 0.950 . S
C752 C761 1.390 . S
C753 C752 1.387 . S
C753 C755 1.387 . S
H754 C761 0.950 . S
C755 C753 1.387 . S
C755 C757 1.390 . S
C755 H759 0.950 . S
H756 C752 0.950 . S
C757 C755 1.390 . S
C757 C758 1.387 . S
C757 H760 0.950 . S
C758 C757 1.387 . S
C758 C761 1.387 . S
H759 C755 0.950 . S
H760 C757 0.950 . S
C761 C752 1.390 . S
C761 H754 0.950 . S
C761 C758 1.387 . S
C762 C763 1.387 . S
C762 H766 0.950 . S
C762 C771 1.390 . S
C763 C762 1.387 . S
C763 C765 1.339 1_545 S
H764 C771 0.950 . S
C765 C763 1.339 1_565 S
C765 C767 1.390 . S
C765 H769 1.000 . S
H766 C762 0.950 . S
C767 C765 1.390 . S
C767 C768 1.361 1_565 S
C767 H770 0.976 . S
C768 C767 1.361 1_545 S
C768 C771 1.387 . S
H769 C765 1.000 . S
H770 C767 0.976 . S
C771 C762 1.390 . S
C771 H764 0.950 . S
C771 C768 1.387 . S
C772 C773 1.387 . S
C772 H776 0.950 . S
C772 C781 1.390 . S
C773 C772 1.387 . S
C773 C775 1.387 . S
H774 C781 0.950 . S
C775 C773 1.387 . S
C775 C777 1.390 . S
C775 H779 0.950 . S
H776 C772 0.950 . S
C777 C775 1.390 . S
C777 C778 1.387 . S
C777 H780 0.950 . S
C778 C777 1.387 . S
C778 C781 1.387 . S
H779 C775 0.950 . S
H780 C777 0.950 . S
C781 C772 1.390 . S
C781 H774 0.950 . S
C781 C778 1.387 . S
C782 C783 1.387 . S
C782 H786 0.950 . S
C782 C791 1.390 . S
C783 C782 1.387 . S
C783 C785 1.387 . S
H784 C791 0.950 . S
C785 C783 1.387 . S
C785 C787 1.390 . S
C785 H789 0.950 . S
H786 C782 0.950 . S
C787 C785 1.390 . S
C787 C788 1.387 . S
C787 H790 0.950 . S
C788 C787 1.387 . S
C788 C791 1.387 . S
H789 C785 0.950 . S
H790 C787 0.950 . S
C791 C782 1.390 . S
C791 H784 0.950 . S
C791 C788 1.387 . S
C792 C793 1.387 . S
C792 H796 0.950 . S
C792 C801 1.390 . S
C793 C792 1.387 . S
C793 C795 1.387 . S
H794 C801 0.950 . S
C795 C793 1.387 . S
C795 C797 1.390 . S
C795 H799 0.950 . S
H796 C792 0.950 . S
C797 C795 1.390 . S
C797 C798 1.387 . S
C797 H800 0.950 . S
C798 C797 1.387 . S
C798 C801 1.387 . S
H799 C795 0.950 . S
H800 C797 0.950 . S
C801 C792 1.390 . S
C801 H794 0.950 . S
C801 C798 1.387 . S
C802 C803 1.387 . S
C802 H806 0.950 . S
C802 C811 1.390 . S
C803 C802 1.387 . S
C803 C805 1.387 . S
H804 C811 0.950 . S
C805 C803 1.387 . S
C805 C807 1.390 . S
C805 H809 0.950 . S
H806 C802 0.950 . S
C807 C805 1.390 . S
C807 C808 1.387 . S
C807 H810 0.950 . S
C808 C807 1.387 . S
C808 C811 1.387 . S
H809 C805 0.950 . S
H810 C807 0.950 . S
C811 C802 1.390 . S
C811 H804 0.950 . S
C811 C808 1.387 . S
C812 C813 1.387 . S
C812 H816 0.950 . S
C812 C821 1.390 . S
C813 C812 1.387 . S
C813 C815 1.383 1_455 S
H814 C821 0.950 . S
C815 C813 1.383 1_655 S
C815 C817 1.390 . S
C815 H819 0.954 . S
H816 C812 0.950 . S
C817 C815 1.390 . S
C817 C818 1.362 1_655 S
C817 H820 0.975 . S
C818 C817 1.362 1_455 S
C818 C821 1.387 . S
H819 C815 0.954 . S
H820 C817 0.975 . S
C821 C812 1.390 . S
C821 H814 0.950 . S
C821 C818 1.387 . S
C822 C823 1.387 . S
C822 H826 0.950 . S
C822 C831 1.390 . S
C823 C822 1.387 . S
C823 C825 1.387 . S
H824 C831 0.950 . S
C825 C823 1.387 . S
C825 C827 1.390 . S
C825 H829 0.950 . S
H826 C822 0.950 . S
C827 C825 1.390 . S
C827 C828 1.387 . S
C827 H830 0.950 . S
C828 C827 1.387 . S
C828 C831 1.387 . S
H829 C825 0.950 . S
H830 C827 0.950 . S
C831 C822 1.390 . S
C831 H824 0.950 . S
C831 C828 1.387 . S
C832 C833 1.387 . S
C832 H836 0.950 . S
C832 C841 1.390 . S
C833 C832 1.387 . S
C833 C835 1.387 . S
H834 C841 0.950 . S
C835 C833 1.387 . S
C835 C837 1.390 . S
C835 H839 0.950 . S
H836 C832 0.950 . S
C837 C835 1.390 . S
C837 C838 1.387 . S
C837 H840 0.950 . S
C838 C837 1.387 . S
C838 C841 1.387 . S
H839 C835 0.950 . S
H840 C837 0.950 . S
C841 C832 1.390 . S
C841 H834 0.950 . S
C841 C838 1.387 . S
C842 C843 1.387 . S
C842 H846 0.950 . S
C842 C851 1.390 . S
C843 C842 1.387 . S
C843 C845 1.387 . S
H844 C851 0.950 . S
C845 C843 1.387 . S
C845 C847 1.390 . S
C845 H849 0.950 . S
H846 C842 0.950 . S
C847 C845 1.390 . S
C847 C848 1.387 . S
C847 H850 0.950 . S
C848 C847 1.387 . S
C848 C851 1.387 . S
H849 C845 0.950 . S
H850 C847 0.950 . S
C851 C842 1.390 . S
C851 H844 0.950 . S
C851 C848 1.387 . S
C852 C853 1.387 . S
C852 H856 0.950 . S
C852 C861 1.390 . S
C853 C852 1.387 . S
C853 C855 1.387 . S
H854 C861 0.950 . S
C855 C853 1.387 . S
C855 C857 1.390 . S
C855 H859 0.950 . S
H856 C852 0.950 . S
C857 C855 1.390 . S
C857 C858 1.387 . S
C857 H860 0.950 . S
C858 C857 1.387 . S
C858 C861 1.387 . S
H859 C855 0.950 . S
H860 C857 0.950 . S
C861 C852 1.390 . S
C861 H854 0.950 . S
C861 C858 1.387 . S
C862 C863 1.387 . S
C862 H866 0.950 . S
C862 C871 1.390 . S
C863 C862 1.387 . S
C863 C865 1.387 . S
H864 C871 0.950 . S
C865 C863 1.387 . S
C865 C867 1.390 . S
C865 H869 0.950 . S
H866 C862 0.950 . S
C867 C865 1.390 . S
C867 C868 1.387 . S
C867 H870 0.950 . S
C868 C867 1.387 . S
C868 C871 1.387 . S
H869 C865 0.950 . S
H870 C867 0.950 . S
C871 C862 1.390 . S
C871 H864 0.950 . S
C871 C868 1.387 . S
C872 C873 1.387 . S
C872 H876 0.950 . S
C872 C881 1.390 . S
C873 C872 1.387 . S
C873 C875 1.387 . S
H874 C881 0.950 . S
C875 C873 1.387 . S
C875 C877 1.390 . S
C875 H879 0.950 . S
H876 C872 0.950 . S
C877 C875 1.390 . S
C877 C878 1.387 . S
C877 H880 0.950 . S
C878 C877 1.387 . S
C878 C881 1.387 . S
H879 C875 0.950 . S
H880 C877 0.950 . S
C881 C872 1.390 . S
C881 H874 0.950 . S
C881 C878 1.387 . S
C882 C883 1.387 . S
C882 H886 0.950 . S
C882 C891 1.390 . S
C883 C882 1.387 . S
C883 C885 1.387 . S
H884 C891 0.950 . S
C885 C883 1.387 . S
C885 C887 1.390 . S
C885 H889 0.950 . S
H886 C882 0.950 . S
C887 C885 1.390 . S
C887 C888 1.387 . S
C887 H890 0.950 . S
C888 C887 1.387 . S
C888 C891 1.387 . S
H889 C885 0.950 . S
H890 C887 0.950 . S
C891 C882 1.390 . S
C891 H884 0.950 . S
C891 C888 1.387 . S
C892 C893 1.387 . S
C892 H896 0.950 . S
C892 C901 1.390 . S
C893 C892 1.387 . S
C893 C895 1.387 . S
H894 C901 0.950 . S
C895 C893 1.387 . S
C895 C897 1.390 . S
C895 H899 0.950 . S
H896 C892 0.950 . S
C897 C895 1.390 . S
C897 C898 1.387 . S
C897 H900 0.950 . S
C898 C897 1.387 . S
C898 C901 1.387 . S
H899 C895 0.950 . S
H900 C897 0.950 . S
C901 C892 1.390 . S
C901 H894 0.950 . S
C901 C898 1.387 . S
C902 C903 1.387 . S
C902 H906 0.950 . S
C902 C911 1.390 . S
C903 C902 1.387 . S
C903 C905 1.387 . S
H904 C911 0.950 . S
C905 C903 1.387 . S
C905 C907 1.390 . S
C905 H909 0.950 . S
H906 C902 0.950 . S
C907 C905 1.390 . S
C907 C908 1.387 . S
C907 H910 0.950 . S
C908 C907 1.387 . S
C908 C911 1.387 . S
H909 C905 0.950 . S
H910 C907 0.950 . S
C911 C902 1.390 . S
C911 H904 0.950 . S
C911 C908 1.387 . S
C912 C913 1.387 . S
C912 H916 0.950 . S
C912 C921 1.390 . S
C913 C912 1.387 . S
C913 C915 1.387 . S
H914 C921 0.950 . S
C915 C913 1.387 . S
C915 C917 1.390 . S
C915 H919 0.950 . S
H916 C912 0.950 . S
C917 C915 1.390 . S
C917 C918 1.387 . S
C917 H920 0.950 . S
C918 C917 1.387 . S
C918 C921 1.387 . S
H919 C915 0.950 . S
H920 C917 0.950 . S
C921 C912 1.390 . S
C921 H914 0.950 . S
C921 C918 1.387 . S
C922 C923 1.387 . S
C922 H926 0.950 . S
C922 C931 1.390 . S
C923 C922 1.387 . S
C923 C925 1.387 . S
H924 C931 0.950 . S
C925 C923 1.387 . S
C925 C927 1.390 . S
C925 H929 0.950 . S
H926 C922 0.950 . S
C927 C925 1.390 . S
C927 C928 1.387 . S
C927 H930 0.950 . S
C928 C927 1.387 . S
C928 C931 1.387 . S
H929 C925 0.950 . S
H930 C927 0.950 . S
C931 C922 1.390 . S
C931 H924 0.950 . S
C931 C928 1.387 . S
C932 C933 1.387 . S
C932 H936 0.950 . S
C932 C941 1.390 . S
C933 C932 1.387 . S
C933 C935 1.387 . S
H934 C941 0.950 . S
C935 C933 1.387 . S
C935 C937 1.390 . S
C935 H939 0.950 . S
H936 C932 0.950 . S
C937 C935 1.390 . S
C937 C938 1.387 . S
C937 H940 0.950 . S
C938 C937 1.387 . S
C938 C941 1.387 . S
H939 C935 0.950 . S
H940 C937 0.950 . S
C941 C932 1.390 . S
C941 H934 0.950 . S
C941 C938 1.387 . S
C942 C943 1.387 . S
C942 H946 0.950 . S
C942 C951 1.390 . S
C943 C942 1.387 . S
C943 C945 1.387 . S
H944 C951 0.950 . S
C945 C943 1.387 . S
C945 C947 1.390 . S
C945 H949 0.950 . S
H946 C942 0.950 . S
C947 C945 1.390 . S
C947 C948 1.387 . S
C947 H950 0.950 . S
C948 C947 1.387 . S
C948 C951 1.387 . S
H949 C945 0.950 . S
H950 C947 0.950 . S
C951 C942 1.390 . S
C951 H944 0.950 . S
C951 C948 1.387 . S
C952 C953 1.387 1_545 S
C952 H956 0.951 . S
C952 C961 1.389 1_545 S
C953 C952 1.387 1_565 S
C953 C955 1.387 . S
H954 C961 0.950 . S
C955 C953 1.387 . S
C955 C957 1.390 . S
C955 H959 0.950 . S
H956 C952 0.951 . S
C957 C955 1.390 . S
C957 C958 1.387 . S
C957 H960 0.950 . S
C958 C957 1.387 . S
C958 C961 1.387 . S
H959 C955 0.950 . S
H960 C957 0.950 . S
C961 C952 1.389 1_565 S
C961 H954 0.950 . S
C961 C958 1.387 . S
C962 C963 1.387 . S
C962 H966 0.950 . S
C962 C971 1.390 . S
C963 C962 1.387 . S
C963 C965 1.387 . S
H964 C971 0.950 . S
C965 C963 1.387 . S
C965 C967 1.390 . S
C965 H969 0.950 . S
H966 C962 0.950 . S
C967 C965 1.390 . S
C967 C968 1.387 . S
C967 H970 0.950 . S
C968 C967 1.387 . S
C968 C971 1.387 . S
H969 C965 0.950 . S
H970 C967 0.950 . S
C971 C962 1.390 . S
C971 H964 0.950 . S
C971 C968 1.387 . S
C972 C973 1.387 . S
C972 H976 0.950 . S
C972 C981 1.390 . S
C973 C972 1.387 . S
C973 C975 1.387 . S
H974 C981 0.950 . S
C975 C973 1.387 . S
C975 C977 1.390 . S
C975 H979 0.950 . S
H976 C972 0.950 . S
C977 C975 1.390 . S
C977 C978 1.387 . S
C977 H980 0.950 . S
C978 C977 1.387 . S
C978 C981 1.387 . S
H979 C975 0.950 . S
H980 C977 0.950 . S
C981 C972 1.390 . S
C981 H974 0.950 . S
C981 C978 1.387 . S
C982 C983 1.387 . S
C982 H986 0.950 . S
C982 C991 1.390 . S
C983 C982 1.387 . S
C983 C985 1.387 . S
H984 C991 0.950 . S
C985 C983 1.387 . S
C985 C987 1.390 . S
C985 H989 0.950 . S
H986 C982 0.950 . S
C987 C985 1.390 . S
C987 C988 1.387 . S
C987 H990 0.950 . S
C988 C987 1.387 . S
C988 C991 1.387 . S
H989 C985 0.950 . S
H990 C987 0.950 . S
C991 C982 1.390 . S
C991 H984 0.950 . S
C991 C988 1.387 . S
C992 C993 1.387 . S
C992 H996 0.950 . S
C992 C1001 1.390 . S
C993 C992 1.387 . S
C993 C995 1.387 . S
H994 C1001 0.950 . S
C995 C993 1.387 . S
C995 C997 1.390 . S
C995 H999 0.950 . S
H996 C992 0.950 . S
C997 C995 1.390 . S
C997 C998 1.387 . S
C997 H1000 0.950 . S
C998 C997 1.387 . S
C998 C1001 1.387 . S
H999 C995 0.950 . S
H1000 C997 0.950 . S
C1001 C992 1.390 . S
C1001 H994 0.950 . S
C1001 C998 1.387 . S
C1002 C1003 1.387 . S
C1002 H1006 0.950 . S
C1002 C1011 1.390 . S
C1003 C1002 1.387 . S
C1003 C1005 1.387 . S
H1004 C1011 0.950 . S
C1005 C1003 1.387 . S
C1005 C1007 1.390 . S
C1005 H1009 0.950 . S
H1006 C1002 0.950 . S
C1007 C1005 1.390 . S
C1007 C1008 1.387 . S
C1007 H1010 0.950 . S
C1008 C1007 1.387 . S
C1008 C1011 1.387 . S
H1009 C1005 0.950 . S
H1010 C1007 0.950 . S
C1011 C1002 1.390 . S
C1011 H1004 0.950 . S
C1011 C1008 1.387 . S
C1012 C1013 1.387 . S
C1012 H1016 0.969 . S
C1012 C1021 1.390 1_565 S
C1013 C1012 1.387 . S
C1013 C1015 1.387 . S
H1014 C1021 0.950 . S
C1015 C1013 1.387 . S
C1015 C1017 1.390 . S
C1015 H1019 0.950 . S
H1016 C1012 0.969 . S
C1017 C1015 1.390 . S
C1017 C1018 1.387 . S
C1017 H1020 0.950 . S
C1018 C1017 1.387 . S
C1018 C1021 1.387 1_565 S
H1019 C1015 0.950 . S
H1020 C1017 0.950 . S
C1021 C1012 1.390 1_545 S
C1021 H1014 0.950 . S
C1021 C1018 1.387 1_545 S
C1022 C1023 1.387 . S
C1022 H1026 0.950 . S
C1022 C1031 1.390 . S
C1023 C1022 1.387 . S
C1023 C1025 1.387 . S
H1024 C1031 0.950 . S
C1025 C1023 1.387 . S
C1025 C1027 1.390 . S
C1025 H1029 0.950 . S
H1026 C1022 0.950 . S
C1027 C1025 1.390 . S
C1027 C1028 1.387 . S
C1027 H1030 0.950 . S
C1028 C1027 1.387 . S
C1028 C1031 1.387 . S
H1029 C1025 0.950 . S
H1030 C1027 0.950 . S
C1031 C1022 1.390 . S
C1031 H1024 0.950 . S
C1031 C1028 1.387 . S
C1032 C1033 1.387 . S
C1032 H1036 0.950 . S
C1032 C1041 1.390 . S
C1033 C1032 1.387 . S
C1033 C1035 1.387 . S
H1034 C1041 0.950 . S
C1035 C1033 1.387 . S
C1035 C1037 1.390 . S
C1035 H1039 0.950 . S
H1036 C1032 0.950 . S
C1037 C1035 1.390 . S
C1037 C1038 1.387 . S
C1037 H1040 0.950 . S
C1038 C1037 1.387 . S
C1038 C1041 1.387 . S
H1039 C1035 0.950 . S
H1040 C1037 0.950 . S
C1041 C1032 1.390 . S
C1041 H1034 0.950 . S
C1041 C1038 1.387 . S
C1042 C1043 1.387 . S
C1042 H1046 0.950 . S
C1042 C1051 1.390 . S
C1043 C1042 1.387 . S
C1043 C1045 1.387 . S
H1044 C1051 0.950 . S
C1045 C1043 1.387 . S
C1045 C1047 1.390 . S
C1045 H1049 0.950 . S
H1046 C1042 0.950 . S
C1047 C1045 1.390 . S
C1047 C1048 1.387 . S
C1047 H1050 0.950 . S
C1048 C1047 1.387 . S
C1048 C1051 1.387 . S
H1049 C1045 0.950 . S
H1050 C1047 0.950 . S
C1051 C1042 1.390 . S
C1051 H1044 0.950 . S
C1051 C1048 1.387 . S
C1052 C1053 1.387 . S
C1052 H1056 0.950 . S
C1052 C1061 1.390 . S
C1053 C1052 1.387 . S
C1053 C1055 1.387 . S
H1054 C1061 0.950 . S
C1055 C1053 1.387 . S
C1055 C1057 1.390 . S
C1055 H1059 0.950 . S
H1056 C1052 0.950 . S
C1057 C1055 1.390 . S
C1057 C1058 1.387 . S
C1057 H1060 0.950 . S
C1058 C1057 1.387 . S
C1058 C1061 1.387 . S
H1059 C1055 0.950 . S
H1060 C1057 0.950 . S
C1061 C1052 1.390 . S
C1061 H1054 0.950 . S
C1061 C1058 1.387 . S
C1062 C1063 1.387 . S
C1062 H1066 0.950 . S
C1062 C1071 1.390 . S
C1063 C1062 1.387 . S
C1063 C1065 1.387 . S
H1064 C1071 0.950 . S
C1065 C1063 1.387 . S
C1065 C1067 1.390 . S
C1065 H1069 0.950 . S
H1066 C1062 0.950 . S
C1067 C1065 1.390 . S
C1067 C1068 1.387 . S
C1067 H1070 0.950 . S
C1068 C1067 1.387 . S
C1068 C1071 1.387 . S
H1069 C1065 0.950 . S
H1070 C1067 0.950 . S
C1071 C1062 1.390 . S
C1071 H1064 0.950 . S
C1071 C1068 1.387 . S
C1072 C1073 1.387 . S
C1072 H1076 0.950 . S
C1072 C1081 1.390 . S
C1073 C1072 1.387 . S
C1073 C1075 1.387 . S
H1074 C1081 0.950 . S
C1075 C1073 1.387 . S
C1075 C1077 1.390 . S
C1075 H1079 0.950 . S
H1076 C1072 0.950 . S
C1077 C1075 1.390 . S
C1077 C1078 1.387 . S
C1077 H1080 0.950 . S
C1078 C1077 1.387 . S
C1078 C1081 1.387 . S
H1079 C1075 0.950 . S
H1080 C1077 0.950 . S
C1081 C1072 1.390 . S
C1081 H1074 0.950 . S
C1081 C1078 1.387 . S
C1082 C1083 1.387 . S
C1082 H1086 0.950 . S
C1082 C1091 1.390 . S
C1083 C1082 1.387 . S
C1083 C1085 1.387 . S
H1084 C1091 0.950 . S
C1085 C1083 1.387 . S
C1085 C1087 1.390 . S
C1085 H1089 0.950 . S
H1086 C1082 0.950 . S
C1087 C1085 1.390 . S
C1087 C1088 1.387 . S
C1087 H1090 0.950 . S
C1088 C1087 1.387 . S
C1088 C1091 1.387 . S
H1089 C1085 0.950 . S
H1090 C1087 0.950 . S
C1091 C1082 1.390 . S
C1091 H1084 0.950 . S
C1091 C1088 1.387 . S
C1092 C1093 1.387 . S
C1092 H1096 0.950 . S
C1092 C1101 1.390 . S
C1093 C1092 1.387 . S
C1093 C1095 1.387 . S
H1094 C1101 0.950 . S
C1095 C1093 1.387 . S
C1095 C1097 1.390 . S
C1095 H1099 0.950 . S
H1096 C1092 0.950 . S
C1097 C1095 1.390 . S
C1097 C1098 1.387 . S
C1097 H1100 0.950 . S
C1098 C1097 1.387 . S
C1098 C1101 1.387 . S
H1099 C1095 0.950 . S
H1100 C1097 0.950 . S
C1101 C1092 1.390 . S
C1101 H1094 0.950 . S
C1101 C1098 1.387 . S
C1102 C1103 1.387 . S
C1102 H1106 0.950 . S
C1102 C1111 1.390 . S
C1103 C1102 1.387 . S
C1103 C1105 1.387 . S
H1104 C1111 0.950 . S
C1105 C1103 1.387 . S
C1105 C1107 1.390 . S
C1105 H1109 0.950 . S
H1106 C1102 0.950 . S
C1107 C1105 1.390 . S
C1107 C1108 1.387 . S
C1107 H1110 0.950 . S
C1108 C1107 1.387 . S
C1108 C1111 1.387 . S
H1109 C1105 0.950 . S
H1110 C1107 0.950 . S
C1111 C1102 1.390 . S
C1111 H1104 0.950 . S
C1111 C1108 1.387 . S
C1112 C1113 1.387 . S
C1112 H1116 0.950 . S
C1112 C1121 1.390 . S
C1113 C1112 1.387 . S
C1113 C1115 1.387 . S
H1114 C1121 0.950 . S
C1115 C1113 1.387 . S
C1115 C1117 1.390 . S
C1115 H1119 0.950 . S
H1116 C1112 0.950 . S
C1117 C1115 1.390 . S
C1117 C1118 1.387 . S
C1117 H1120 0.950 . S
C1118 C1117 1.387 . S
C1118 C1121 1.387 . S
H1119 C1115 0.950 . S
H1120 C1117 0.950 . S
C1121 C1112 1.390 . S
C1121 H1114 0.950 . S
C1121 C1118 1.387 . S
C1122 C1123 1.387 . S
C1122 H1126 0.950 . S
C1122 C1131 1.390 . S
C1123 C1122 1.387 . S
C1123 C1125 1.387 . S
H1124 C1131 0.950 . S
C1125 C1123 1.387 . S
C1125 C1127 1.390 . S
C1125 H1129 0.950 . S
H1126 C1122 0.950 . S
C1127 C1125 1.390 . S
C1127 C1128 1.387 . S
C1127 H1130 0.950 . S
C1128 C1127 1.387 . S
C1128 C1131 1.387 . S
H1129 C1125 0.950 . S
H1130 C1127 0.950 . S
C1131 C1122 1.390 . S
C1131 H1124 0.950 . S
C1131 C1128 1.387 . S
C1132 C1133 1.387 . S
C1132 H1136 0.950 . S
C1132 C1141 1.390 . S
C1133 C1132 1.387 . S
C1133 C1135 1.387 . S
H1134 C1141 0.950 . S
C1135 C1133 1.387 . S
C1135 C1137 1.390 . S
C1135 H1139 0.950 . S
H1136 C1132 0.950 . S
C1137 C1135 1.390 . S
C1137 C1138 1.387 . S
C1137 H1140 0.950 1_556 S
C1138 C1137 1.387 . S
C1138 C1141 1.387 . S
H1139 C1135 0.950 . S
H1140 C1137 0.950 1_554 S
C1141 C1132 1.390 . S
C1141 H1134 0.950 . S
C1141 C1138 1.387 . S
C1142 C1143 1.387 . S
C1142 H1146 0.950 . S
C1142 C1151 1.390 . S
C1143 C1142 1.387 . S
C1143 C1145 1.387 . S
H1144 C1151 0.950 . S
C1145 C1143 1.387 . S
C1145 C1147 1.390 . S
C1145 H1149 0.950 . S
H1146 C1142 0.950 . S
C1147 C1145 1.390 . S
C1147 C1148 1.387 . S
C1147 H1150 0.950 . S
C1148 C1147 1.387 . S
C1148 C1151 1.387 . S
H1149 C1145 0.950 . S
H1150 C1147 0.950 . S
C1151 C1142 1.390 . S
C1151 H1144 0.950 . S
C1151 C1148 1.387 . S
C1152 C1153 1.387 . S
C1152 H1156 0.950 . S
C1152 C1161 1.390 . S
C1153 C1152 1.387 . S
C1153 C1155 1.387 . S
H1154 C1161 0.950 . S
C1155 C1153 1.387 . S
C1155 C1157 1.390 . S
C1155 H1159 0.950 . S
H1156 C1152 0.950 . S
C1157 C1155 1.390 . S
C1157 C1158 1.387 . S
C1157 H1160 0.950 . S
C1158 C1157 1.387 . S
C1158 C1161 1.387 . S
H1159 C1155 0.950 . S
H1160 C1157 0.950 . S
C1161 C1152 1.390 . S
C1161 H1154 0.950 . S
C1161 C1158 1.387 . S
C1162 C1163 1.387 . S
C1162 H1166 0.950 . S
C1162 C1171 1.390 . S
C1163 C1162 1.387 . S
C1163 C1165 1.387 . S
H1164 C1171 0.950 . S
C1165 C1163 1.387 . S
C1165 C1167 1.390 . S
C1165 H1169 0.950 . S
H1166 C1162 0.950 . S
C1167 C1165 1.390 . S
C1167 C1168 1.387 . S
C1167 H1170 0.950 . S
C1168 C1167 1.387 . S
C1168 C1171 1.387 . S
H1169 C1165 0.950 . S
H1170 C1167 0.950 . S
C1171 C1162 1.390 . S
C1171 H1164 0.950 . S
C1171 C1168 1.387 . S
C1172 C1173 1.387 . S
C1172 H1176 0.950 . S
C1172 C1181 1.390 . S
C1173 C1172 1.387 . S
C1173 C1175 1.387 . S
H1174 C1181 0.950 . S
C1175 C1173 1.387 . S
C1175 C1177 1.390 . S
C1175 H1179 0.950 . S
H1176 C1172 0.950 . S
C1177 C1175 1.390 . S
C1177 C1178 1.387 . S
C1177 H1180 0.950 . S
C1178 C1177 1.387 . S
C1178 C1181 1.387 . S
H1179 C1175 0.950 . S
H1180 C1177 0.950 . S
C1181 C1172 1.390 . S
C1181 H1174 0.950 . S
C1181 C1178 1.387 . S
C1182 C1183 1.387 . S
C1182 H1186 0.950 . S
C1182 C1191 1.390 . S
C1183 C1182 1.387 . S
C1183 C1185 1.387 . S
H1184 C1191 0.950 . S
C1185 C1183 1.387 . S
C1185 C1187 1.390 . S
C1185 H1189 0.950 . S
H1186 C1182 0.950 . S
C1187 C1185 1.390 . S
C1187 C1188 1.387 . S
C1187 H1190 0.950 . S
C1188 C1187 1.387 . S
C1188 C1191 1.387 . S
H1189 C1185 0.950 . S
H1190 C1187 0.950 . S
C1191 C1182 1.390 . S
C1191 H1184 0.950 . S
C1191 C1188 1.387 . S
C1192 C1193 1.387 . S
C1192 H1196 0.950 . S
C1192 C1201 1.390 . S
C1193 C1192 1.387 . S
C1193 C1195 1.387 . S
H1194 C1201 0.950 . S
C1195 C1193 1.387 . S
C1195 C1197 1.390 . S
C1195 H1199 0.950 . S
H1196 C1192 0.950 . S
C1197 C1195 1.390 . S
C1197 C1198 1.387 . S
C1197 H1200 0.950 . S
C1198 C1197 1.387 . S
C1198 C1201 1.387 . S
H1199 C1195 0.950 . S
H1200 C1197 0.950 . S
C1201 C1192 1.390 . S
C1201 H1194 0.950 . S
C1201 C1198 1.387 . S
C1202 C1203 1.387 . S
C1202 H1206 0.950 . S
C1202 C1211 1.390 . S
C1203 C1202 1.387 . S
C1203 C1205 1.387 . S
H1204 C1211 0.950 . S
C1205 C1203 1.387 . S
C1205 C1207 1.390 . S
C1205 H1209 0.950 . S
H1206 C1202 0.950 . S
C1207 C1205 1.390 . S
C1207 C1208 1.387 . S
C1207 H1210 0.950 . S
C1208 C1207 1.387 . S
C1208 C1211 1.387 . S
H1209 C1205 0.950 . S
H1210 C1207 0.950 . S
C1211 C1202 1.390 . S
C1211 H1204 0.950 . S
C1211 C1208 1.387 . S
C1212 C1213 1.387 . S
C1212 H1216 0.950 . S
C1212 C1221 1.390 . S
C1213 C1212 1.387 . S
C1213 C1215 1.387 . S
H1214 C1221 0.950 . S
C1215 C1213 1.387 . S
C1215 C1217 1.390 . S
C1215 H1219 0.950 . S
H1216 C1212 0.950 . S
C1217 C1215 1.390 . S
C1217 C1218 1.387 . S
C1217 H1220 0.950 . S
C1218 C1217 1.387 . S
C1218 C1221 1.387 . S
H1219 C1215 0.950 . S
H1220 C1217 0.950 . S
C1221 C1212 1.390 . S
C1221 H1214 0.950 . S
C1221 C1218 1.387 . S
C1222 C1223 1.387 . S
C1222 H1226 0.950 . S
C1222 C1231 1.390 . S
C1223 C1222 1.387 . S
C1223 C1225 1.387 . S
H1224 C1231 0.950 . S
C1225 C1223 1.387 . S
C1225 C1227 1.390 . S
C1225 H1229 0.950 . S
H1226 C1222 0.950 . S
C1227 C1225 1.390 . S
C1227 C1228 1.387 . S
C1227 H1230 0.950 . S
C1228 C1227 1.387 . S
C1228 C1231 1.387 . S
H1229 C1225 0.950 . S
H1230 C1227 0.950 . S
C1231 C1222 1.390 . S
C1231 H1224 0.950 . S
C1231 C1228 1.387 . S
C1232 C1233 1.387 . S
C1232 H1236 0.950 . S
C1232 C1241 1.390 . S
C1233 C1232 1.387 . S
C1233 C1235 1.387 . S
H1234 C1241 0.950 . S
C1235 C1233 1.387 . S
C1235 C1237 1.390 . S
C1235 H1239 0.950 . S
H1236 C1232 0.950 . S
C1237 C1235 1.390 . S
C1237 C1238 1.387 . S
C1237 H1240 0.950 . S
C1238 C1237 1.387 . S
C1238 C1241 1.387 . S
H1239 C1235 0.950 . S
H1240 C1237 0.950 . S
C1241 C1232 1.390 . S
C1241 H1234 0.950 . S
C1241 C1238 1.387 . S
C1242 C1243 1.387 . S
C1242 H1246 0.950 . S
C1242 C1251 1.390 . S
C1243 C1242 1.387 . S
C1243 C1245 1.387 . S
H1244 C1251 0.950 . S
C1245 C1243 1.387 . S
C1245 C1247 1.390 . S
C1245 H1249 0.950 . S
H1246 C1242 0.950 . S
C1247 C1245 1.390 . S
C1247 C1248 1.387 . S
C1247 H1250 0.950 . S
C1248 C1247 1.387 . S
C1248 C1251 1.387 . S
H1249 C1245 0.950 . S
H1250 C1247 0.950 . S
C1251 C1242 1.390 . S
C1251 H1244 0.950 . S
C1251 C1248 1.387 . S
C1252 C1253 1.387 . S
C1252 H1256 0.950 . S
C1252 C1261 1.390 . S
C1253 C1252 1.387 . S
C1253 C1255 1.387 . S
H1254 C1261 0.950 . S
C1255 C1253 1.387 . S
C1255 C1257 1.390 . S
C1255 H1259 0.950 . S
H1256 C1252 0.950 . S
C1257 C1255 1.390 . S
C1257 C1258 1.387 . S
C1257 H1260 0.950 . S
C1258 C1257 1.387 . S
C1258 C1261 1.387 . S
H1259 C1255 0.950 . S
H1260 C1257 0.950 . S
C1261 C1252 1.390 . S
C1261 H1254 0.950 . S
C1261 C1258 1.387 . S
C1262 C1263 1.387 . S
C1262 H1266 0.950 . S
C1262 C1271 1.390 . S
C1263 C1262 1.387 . S
C1263 C1265 1.387 . S
H1264 C1271 0.950 . S
C1265 C1263 1.387 . S
C1265 C1267 1.390 . S
C1265 H1269 0.950 . S
H1266 C1262 0.950 . S
C1267 C1265 1.390 . S
C1267 C1268 1.387 . S
C1267 H1270 0.950 . S
C1268 C1267 1.387 . S
C1268 C1271 1.387 . S
H1269 C1265 0.950 . S
H1270 C1267 0.950 . S
C1271 C1262 1.390 . S
C1271 H1264 0.950 . S
C1271 C1268 1.387 . S
C1272 C1273 1.387 . S
C1272 H1276 0.950 . S
C1272 C1281 1.390 . S
C1273 C1272 1.387 . S
C1273 C1275 1.387 . S
H1274 C1281 0.950 . S
C1275 C1273 1.387 . S
C1275 C1277 1.390 . S
C1275 H1279 0.950 . S
H1276 C1272 0.950 . S
C1277 C1275 1.390 . S
C1277 C1278 1.387 . S
C1277 H1280 0.950 . S
C1278 C1277 1.387 . S
C1278 C1281 1.387 . S
H1279 C1275 0.950 . S
H1280 C1277 0.950 . S
C1281 C1272 1.390 . S
C1281 H1274 0.950 . S
C1281 C1278 1.387 . S
C1282 C1283 1.387 . S
C1282 H1286 0.950 . S
C1282 C1291 1.390 . S
C1283 C1282 1.387 . S
C1283 C1285 1.387 . S
H1284 C1291 0.950 . S
C1285 C1283 1.387 . S
C1285 C1287 1.390 . S
C1285 H1289 0.950 . S
H1286 C1282 0.950 . S
C1287 C1285 1.390 . S
C1287 C1288 1.387 . S
C1287 H1290 0.950 . S
C1288 C1287 1.387 . S
C1288 C1291 1.387 . S
H1289 C1285 0.950 . S
H1290 C1287 0.950 . S
C1291 C1282 1.390 . S
C1291 H1284 0.950 . S
C1291 C1288 1.387 . S
C1292 C1293 1.387 . S
C1292 H1296 0.950 . S
C1292 C1301 1.390 . S
C1293 C1292 1.387 . S
C1293 C1295 1.387 . S
H1294 C1301 0.950 . S
C1295 C1293 1.387 . S
C1295 C1297 1.390 . S
C1295 H1299 0.950 . S
H1296 C1292 0.950 . S
C1297 C1295 1.390 . S
C1297 C1298 1.387 . S
C1297 H1300 0.950 . S
C1298 C1297 1.387 . S
C1298 C1301 1.387 . S
H1299 C1295 0.950 . S
H1300 C1297 0.950 . S
C1301 C1292 1.390 . S
C1301 H1294 0.950 . S
C1301 C1298 1.387 . S
C1302 C1303 1.387 . S
C1302 H1306 0.950 . S
C1302 C1311 1.390 . S
C1303 C1302 1.387 . S
C1303 C1305 1.387 . S
H1304 C1311 0.950 . S
C1305 C1303 1.387 . S
C1305 C1307 1.390 . S
C1305 H1309 0.950 . S
H1306 C1302 0.950 . S
C1307 C1305 1.390 . S
C1307 C1308 1.387 . S
C1307 H1310 0.950 . S
C1308 C1307 1.387 . S
C1308 C1311 1.387 . S
H1309 C1305 0.950 . S
H1310 C1307 0.950 . S
C1311 C1302 1.390 . S
C1311 H1304 0.950 . S
C1311 C1308 1.387 . S
C1312 C1313 1.387 . S
C1312 H1316 0.950 . S
C1312 C1321 1.390 . S
C1313 C1312 1.387 . S
C1313 C1315 1.387 . S
H1314 C1321 0.950 . S
C1315 C1313 1.387 . S
C1315 C1317 1.390 . S
C1315 H1319 0.950 . S
H1316 C1312 0.950 . S
C1317 C1315 1.390 . S
C1317 C1318 1.387 . S
C1317 H1320 0.950 . S
C1318 C1317 1.387 . S
C1318 C1321 1.387 . S
H1319 C1315 0.950 . S
H1320 C1317 0.950 . S
C1321 C1312 1.390 . S
C1321 H1314 0.950 . S
C1321 C1318 1.387 . S
C1322 C1323 1.387 . S
C1322 H1326 0.950 . S
C1322 C1331 1.390 . S
C1323 C1322 1.387 . S
C1323 C1325 1.387 . S
H1324 C1331 0.950 . S
C1325 C1323 1.387 . S
C1325 C1327 1.390 . S
C1325 H1329 0.950 . S
H1326 C1322 0.950 . S
C1327 C1325 1.390 . S
C1327 C1328 1.387 . S
C1327 H1330 0.950 . S
C1328 C1327 1.387 . S
C1328 C1331 1.387 . S
H1329 C1325 0.950 . S
H1330 C1327 0.950 . S
C1331 C1322 1.390 . S
C1331 H1324 0.950 . S
C1331 C1328 1.387 . S
C1332 C1333 1.387 . S
C1332 H1336 0.950 . S
C1332 C1341 1.390 . S
C1333 C1332 1.387 . S
C1333 C1335 1.387 . S
H1334 C1341 0.950 . S
C1335 C1333 1.387 . S
C1335 C1337 1.390 . S
C1335 H1339 0.950 . S
H1336 C1332 0.950 . S
C1337 C1335 1.390 . S
C1337 C1338 1.387 . S
C1337 H1340 0.950 . S
C1338 C1337 1.387 . S
C1338 C1341 1.387 . S
H1339 C1335 0.950 . S
H1340 C1337 0.950 . S
C1341 C1332 1.390 . S
C1341 H1334 0.950 . S
C1341 C1338 1.387 . S
C1342 C1343 1.387 . S
C1342 H1346 0.950 . S
C1342 C1351 1.390 . S
C1343 C1342 1.387 . S
C1343 C1345 1.387 . S
H1344 C1351 0.950 . S
C1345 C1343 1.387 . S
C1345 C1347 1.390 . S
C1345 H1349 0.950 . S
H1346 C1342 0.950 . S
C1347 C1345 1.390 . S
C1347 C1348 1.387 . S
C1347 H1350 0.950 . S
C1348 C1347 1.387 . S
C1348 C1351 1.387 . S
H1349 C1345 0.950 . S
H1350 C1347 0.950 . S
C1351 C1342 1.390 . S
C1351 H1344 0.950 . S
C1351 C1348 1.387 . S
C1352 C1353 1.387 . S
C1352 H1356 0.950 . S
C1352 C1361 1.390 . S
C1353 C1352 1.387 . S
C1353 C1355 1.387 . S
H1354 C1361 0.950 . S
C1355 C1353 1.387 . S
C1355 C1357 1.390 . S
C1355 H1359 0.950 . S
H1356 C1352 0.950 . S
C1357 C1355 1.390 . S
C1357 C1358 1.387 . S
C1357 H1360 0.950 . S
C1358 C1357 1.387 . S
C1358 C1361 1.387 . S
H1359 C1355 0.950 . S
H1360 C1357 0.950 . S
C1361 C1352 1.390 . S
C1361 H1354 0.950 . S
C1361 C1358 1.387 . S
C1362 C1363 1.387 . S
C1362 H1366 0.950 . S
C1362 C1371 1.390 . S
C1363 C1362 1.387 . S
C1363 C1365 1.387 . S
H1364 C1371 0.950 . S
C1365 C1363 1.387 . S
C1365 C1367 1.390 . S
C1365 H1369 0.950 . S
H1366 C1362 0.950 . S
C1367 C1365 1.390 . S
C1367 C1368 1.387 . S
C1367 H1370 0.950 . S
C1368 C1367 1.387 . S
C1368 C1371 1.387 . S
H1369 C1365 0.950 . S
H1370 C1367 0.950 . S
C1371 C1362 1.390 . S
C1371 H1364 0.950 . S
C1371 C1368 1.387 . S
C1372 C1373 1.387 . S
C1372 H1376 0.950 . S
C1372 C1381 1.390 . S
C1373 C1372 1.387 . S
C1373 C1375 1.387 . S
H1374 C1381 0.950 . S
C1375 C1373 1.387 . S
C1375 C1377 1.390 . S
C1375 H1379 0.950 . S
H1376 C1372 0.950 . S
C1377 C1375 1.390 . S
C1377 C1378 1.387 . S
C1377 H1380 0.950 . S
C1378 C1377 1.387 . S
C1378 C1381 1.387 . S
H1379 C1375 0.950 . S
H1380 C1377 0.950 . S
C1381 C1372 1.390 . S
C1381 H1374 0.950 . S
C1381 C1378 1.387 . S
C1382 C1383 1.387 . S
C1382 H1386 0.950 . S
C1382 C1391 1.390 . S
C1383 C1382 1.387 . S
C1383 C1385 1.387 . S
H1384 C1391 0.950 . S
C1385 C1383 1.387 . S
C1385 C1387 1.390 . S
C1385 H1389 0.950 . S
H1386 C1382 0.950 . S
C1387 C1385 1.390 . S
C1387 C1388 1.387 . S
C1387 H1390 0.950 . S
C1388 C1387 1.387 . S
C1388 C1391 1.387 . S
H1389 C1385 0.950 . S
H1390 C1387 0.950 . S
C1391 C1382 1.390 . S
C1391 H1384 0.950 . S
C1391 C1388 1.387 . S
C1392 C1393 1.387 1_455 S
C1392 H1396 0.950 . S
C1392 C1401 1.390 . S
C1393 C1392 1.387 1_655 S
C1393 C1395 1.387 . S
H1394 C1401 0.950 . S
C1395 C1393 1.387 . S
C1395 C1397 1.390 . S
C1395 H1399 0.950 . S
H1396 C1392 0.950 . S
C1397 C1395 1.390 . S
C1397 C1398 1.387 . S
C1397 H1400 0.950 . S
C1398 C1397 1.387 . S
C1398 C1401 1.387 1_655 S
H1399 C1395 0.950 . S
H1400 C1397 0.950 . S
C1401 C1392 1.390 . S
C1401 H1394 0.950 . S
C1401 C1398 1.387 1_455 S
C1402 C1403 1.387 . S
C1402 H1406 0.950 . S
C1402 C1411 1.390 . S
C1403 C1402 1.387 . S
C1403 C1405 1.387 . S
H1404 C1411 0.950 . S
C1405 C1403 1.387 . S
C1405 C1407 1.390 . S
C1405 H1409 0.950 . S
H1406 C1402 0.950 . S
C1407 C1405 1.390 . S
C1407 C1408 1.387 . S
C1407 H1410 0.950 . S
C1408 C1407 1.387 . S
C1408 C1411 1.387 . S
H1409 C1405 0.950 . S
H1410 C1407 0.950 . S
C1411 C1402 1.390 . S
C1411 H1404 0.950 . S
C1411 C1408 1.387 . S
C1412 C1413 1.387 . S
C1412 H1416 0.950 . S
C1412 C1421 1.390 . S
C1413 C1412 1.387 . S
C1413 C1415 1.387 . S
H1414 C1421 0.950 . S
C1415 C1413 1.387 . S
C1415 C1417 1.390 . S
C1415 H1419 0.950 . S
H1416 C1412 0.950 . S
C1417 C1415 1.390 . S
C1417 C1418 1.387 . S
C1417 H1420 0.950 . S
C1418 C1417 1.387 . S
C1418 C1421 1.387 . S
H1419 C1415 0.950 . S
H1420 C1417 0.950 . S
C1421 C1412 1.390 . S
C1421 H1414 0.950 . S
C1421 C1418 1.387 . S
C1422 C1423 1.387 1_554 S
C1422 H1426 0.950 . S
C1422 C1431 1.390 . S
C1423 C1422 1.387 1_556 S
C1423 C1425 1.387 . S
H1424 C1431 0.950 . S
C1425 C1423 1.387 . S
C1425 C1427 1.390 . S
C1425 H1429 0.950 . S
H1426 C1422 0.950 . S
C1427 C1425 1.390 . S
C1427 C1428 1.387 . S
C1427 H1430 0.950 . S
C1428 C1427 1.387 . S
C1428 C1431 1.387 1_556 S
H1429 C1425 0.950 . S
H1430 C1427 0.950 . S
C1431 C1422 1.390 . S
C1431 H1424 0.950 . S
C1431 C1428 1.387 1_554 S
C1432 C1433 1.387 . S
C1432 H1436 0.950 . S
C1432 C1441 1.390 . S
C1433 C1432 1.387 . S
C1433 C1435 1.387 1_655 S
H1434 C1441 0.950 . S
C1435 C1433 1.387 1_455 S
C1435 C1437 1.390 . S
C1435 H1439 0.950 . S
H1436 C1432 0.950 . S
C1437 C1435 1.390 . S
C1437 C1438 1.387 1_455 S
C1437 H1440 0.950 . S
C1438 C1437 1.387 1_655 S
C1438 C1441 1.387 . S
H1439 C1435 0.950 . S
H1440 C1437 0.950 . S
C1441 C1432 1.390 . S
C1441 H1434 0.950 . S
C1441 C1438 1.387 . S
C1442 C1443 1.387 . S
C1442 H1446 0.950 . S
C1442 C1451 1.390 . S
C1443 C1442 1.387 . S
C1443 C1445 1.387 . S
H1444 C1451 0.950 . S
C1445 C1443 1.387 . S
C1445 C1447 1.390 . S
C1445 H1449 0.950 . S
H1446 C1442 0.950 . S
C1447 C1445 1.390 . S
C1447 C1448 1.387 . S
C1447 H1450 0.950 . S
C1448 C1447 1.387 . S
C1448 C1451 1.387 . S
H1449 C1445 0.950 . S
H1450 C1447 0.950 . S
C1451 C1442 1.390 . S
C1451 H1444 0.950 . S
C1451 C1448 1.387 . S
C1452 C1453 1.387 . S
C1452 H1456 0.950 . S
C1452 C1461 1.390 . S
C1453 C1452 1.387 . S
C1453 C1455 1.387 . S
H1454 C1461 0.950 . S
C1455 C1453 1.387 . S
C1455 C1457 1.390 . S
C1455 H1459 0.950 . S
H1456 C1452 0.950 . S
C1457 C1455 1.390 . S
C1457 C1458 1.387 . S
C1457 H1460 0.950 . S
C1458 C1457 1.387 . S
C1458 C1461 1.387 . S
H1459 C1455 0.950 . S
H1460 C1457 0.950 . S
C1461 C1452 1.390 . S
C1461 H1454 0.950 . S
C1461 C1458 1.387 . S
C1462 C1463 1.387 . S
C1462 H1466 0.950 . S
C1462 C1471 1.390 . S
C1463 C1462 1.387 . S
C1463 C1465 1.387 . S
H1464 C1471 0.950 . S
C1465 C1463 1.387 . S
C1465 C1467 1.390 . S
C1465 H1469 0.950 . S
H1466 C1462 0.950 . S
C1467 C1465 1.390 . S
C1467 C1468 1.387 . S
C1467 H1470 0.950 . S
C1468 C1467 1.387 . S
C1468 C1471 1.387 . S
H1469 C1465 0.950 . S
H1470 C1467 0.950 . S
C1471 C1462 1.390 . S
C1471 H1464 0.950 . S
C1471 C1468 1.387 . S
C1472 C1473 1.387 . S
C1472 H1476 0.950 . S
C1472 C1481 1.390 . S
C1473 C1472 1.387 . S
C1473 C1475 1.387 1_565 S
H1474 C1481 0.950 . S
C1475 C1473 1.387 1_545 S
C1475 C1477 1.390 . S
C1475 H1479 0.950 . S
H1476 C1472 0.950 . S
C1477 C1475 1.390 . S
C1477 C1478 1.387 1_545 S
C1477 H1480 0.950 . S
C1478 C1477 1.387 1_565 S
C1478 C1481 1.387 . S
H1479 C1475 0.950 . S
H1480 C1477 0.950 . S
C1481 C1472 1.390 . S
C1481 H1474 0.950 . S
C1481 C1478 1.387 . S
C1482 C1483 1.387 1_545 S
C1482 H1486 0.950 . S
C1482 C1491 1.390 . S
C1483 C1482 1.387 1_565 S
C1483 C1485 1.387 . S
H1484 C1491 0.950 . S
C1485 C1483 1.387 . S
C1485 C1487 1.390 . S
C1485 H1489 0.950 . S
H1486 C1482 0.950 . S
C1487 C1485 1.390 . S
C1487 C1488 1.387 . S
C1487 H1490 0.950 . S
C1488 C1487 1.387 . S
C1488 C1491 1.387 1_565 S
H1489 C1485 0.950 . S
H1490 C1487 0.950 . S
C1491 C1482 1.390 . S
C1491 H1484 0.950 . S
C1491 C1488 1.387 1_545 S
C1492 C1493 1.387 . S
C1492 H1496 0.950 . S
C1492 C1501 1.390 . S
C1493 C1492 1.387 . S
C1493 C1495 1.387 . S
H1494 C1501 0.950 . S
C1495 C1493 1.387 . S
C1495 C1497 1.390 . S
C1495 H1499 0.950 . S
H1496 C1492 0.950 . S
C1497 C1495 1.390 . S
C1497 C1498 1.387 . S
C1497 H1500 0.950 . S
C1498 C1497 1.387 . S
C1498 C1501 1.387 . S
H1499 C1495 0.950 . S
H1500 C1497 0.950 . S
C1501 C1492 1.390 . S
C1501 H1494 0.950 . S
C1501 C1498 1.387 . S
C1502 C1503 1.387 . S
C1502 H1506 0.950 . S
C1502 C1511 1.390 . S
C1503 C1502 1.387 . S
C1503 C1505 1.387 . S
H1504 C1511 0.950 . S
C1505 C1503 1.387 . S
C1505 C1507 1.390 . S
C1505 H1509 0.950 . S
H1506 C1502 0.950 . S
C1507 C1505 1.390 . S
C1507 C1508 1.387 . S
C1507 H1510 0.950 . S
C1508 C1507 1.387 . S
C1508 C1511 1.387 . S
H1509 C1505 0.950 . S
H1510 C1507 0.950 . S
C1511 C1502 1.390 . S
C1511 H1504 0.950 . S
C1511 C1508 1.387 . S
C1512 C1513 1.387 1_554 S
C1512 H1516 0.950 . S
C1512 C1521 1.390 . S
C1513 C1512 1.387 1_556 S
C1513 C1515 1.387 . S
H1514 C1521 0.950 . S
C1515 C1513 1.387 . S
C1515 C1517 1.390 . S
C1515 H1519 0.950 . S
H1516 C1512 0.950 . S
C1517 C1515 1.390 . S
C1517 C1518 1.387 . S
C1517 H1520 0.950 . S
C1518 C1517 1.387 . S
C1518 C1521 1.387 1_556 S
H1519 C1515 0.950 . S
H1520 C1517 0.950 . S
C1521 C1512 1.390 . S
C1521 H1514 0.950 . S
C1521 C1518 1.387 1_554 S
C1522 C1523 1.387 . S
C1522 H1526 0.950 . S
C1522 C1531 1.390 . S
C1523 C1522 1.387 . S
C1523 C1525 1.387 . S
H1524 C1531 0.950 . S
C1525 C1523 1.387 . S
C1525 C1527 1.390 . S
C1525 H1529 0.950 . S
H1526 C1522 0.950 . S
C1527 C1525 1.390 . S
C1527 C1528 1.387 . S
C1527 H1530 0.950 . S
C1528 C1527 1.387 . S
C1528 C1531 1.387 . S
H1529 C1525 0.950 . S
H1530 C1527 0.950 . S
C1531 C1522 1.390 . S
C1531 H1524 0.950 . S
C1531 C1528 1.387 . S
C1532 C1533 1.387 . S
C1532 H1536 0.950 . S
C1532 C1541 1.390 . S
C1533 C1532 1.387 . S
C1533 C1535 1.387 . S
H1534 C1541 0.950 . S
C1535 C1533 1.387 . S
C1535 C1537 1.390 . S
C1535 H1539 0.950 . S
H1536 C1532 0.950 . S
C1537 C1535 1.390 . S
C1537 C1538 1.387 . S
C1537 H1540 0.950 . S
C1538 C1537 1.387 . S
C1538 C1541 1.387 . S
H1539 C1535 0.950 . S
H1540 C1537 0.950 . S
C1541 C1532 1.390 . S
C1541 H1534 0.950 . S
C1541 C1538 1.387 . S
C1542 C1543 1.387 . S
C1542 H1546 0.950 . S
C1542 C1551 1.390 . S
C1543 C1542 1.387 . S
C1543 C1545 1.387 . S
H1544 C1551 0.950 . S
C1545 C1543 1.387 . S
C1545 C1547 1.390 . S
C1545 H1549 0.950 . S
H1546 C1542 0.950 . S
C1547 C1545 1.390 . S
C1547 C1548 1.387 . S
C1547 H1550 0.950 . S
C1548 C1547 1.387 . S
C1548 C1551 1.387 . S
H1549 C1545 0.950 . S
H1550 C1547 0.950 . S
C1551 C1542 1.390 . S
C1551 H1544 0.950 . S
C1551 C1548 1.387 . S
C1552 C1553 1.387 . S
C1552 H1556 0.950 . S
C1552 C1561 1.390 . S
C1553 C1552 1.387 . S
C1553 C1555 1.387 . S
H1554 C1561 0.950 . S
C1555 C1553 1.387 . S
C1555 C1557 1.390 . S
C1555 H1559 0.950 . S
H1556 C1552 0.950 . S
C1557 C1555 1.390 . S
C1557 C1558 1.387 . S
C1557 H1560 0.950 . S
C1558 C1557 1.387 . S
C1558 C1561 1.387 . S
H1559 C1555 0.950 . S
H1560 C1557 0.950 . S
C1561 C1552 1.390 . S
C1561 H1554 0.950 . S
C1561 C1558 1.387 . S
C1562 C1563 1.387 . S
C1562 H1566 0.950 . S
C1562 C1571 1.390 . S
C1563 C1562 1.387 . S
C1563 C1565 1.387 . S
H1564 C1571 0.950 . S
C1565 C1563 1.387 . S
C1565 C1567 1.390 . S
C1565 H1569 0.950 . S
H1566 C1562 0.950 . S
C1567 C1565 1.390 . S
C1567 C1568 1.387 . S
C1567 H1570 0.950 . S
C1568 C1567 1.387 . S
C1568 C1571 1.387 . S
H1569 C1565 0.950 . S
H1570 C1567 0.950 . S
C1571 C1562 1.390 . S
C1571 H1564 0.950 . S
C1571 C1568 1.387 . S
C1572 C1573 1.387 . S
C1572 H1576 0.950 . S
C1572 C1581 1.390 . S
C1573 C1572 1.387 . S
C1573 C1575 1.387 . S
H1574 C1581 0.950 . S
C1575 C1573 1.387 . S
C1575 C1577 1.390 . S
C1575 H1579 0.950 . S
H1576 C1572 0.950 . S
C1577 C1575 1.390 . S
C1577 C1578 1.387 . S
C1577 H1580 0.950 . S
C1578 C1577 1.387 . S
C1578 C1581 1.387 . S
H1579 C1575 0.950 . S
H1580 C1577 0.950 . S
C1581 C1572 1.390 . S
C1581 H1574 0.950 . S
C1581 C1578 1.387 . S
C1582 C1583 1.387 . S
C1582 H1586 0.950 . S
C1582 C1591 1.390 . S
C1583 C1582 1.387 . S
C1583 C1585 1.387 . S
H1584 C1591 0.950 . S
C1585 C1583 1.387 . S
C1585 C1587 1.390 . S
C1585 H1589 0.950 . S
H1586 C1582 0.950 . S
C1587 C1585 1.390 . S
C1587 C1588 1.387 . S
C1587 H1590 0.950 . S
C1588 C1587 1.387 . S
C1588 C1591 1.387 . S
H1589 C1585 0.950 . S
H1590 C1587 0.950 . S
C1591 C1582 1.390 . S
C1591 H1584 0.950 . S
C1591 C1588 1.387 . S
C1592 C1593 1.387 . S
C1592 H1596 0.950 . S
C1592 C1601 1.390 . S
C1593 C1592 1.387 . S
C1593 C1595 1.387 . S
H1594 C1601 0.950 . S
C1595 C1593 1.387 . S
C1595 C1597 1.390 . S
C1595 H1599 0.950 . S
H1596 C1592 0.950 . S
C1597 C1595 1.390 . S
C1597 C1598 1.387 . S
C1597 H1600 0.950 . S
C1598 C1597 1.387 . S
C1598 C1601 1.387 . S
H1599 C1595 0.950 . S
H1600 C1597 0.950 . S
C1601 C1592 1.390 . S
C1601 H1594 0.950 . S
C1601 C1598 1.387 . S
C1602 C1603 1.387 . S
C1602 H1606 0.950 . S
C1602 C1611 1.390 . S
C1603 C1602 1.387 . S
C1603 C1605 1.387 . S
H1604 C1611 0.950 . S
C1605 C1603 1.387 . S
C1605 C1607 1.390 . S
C1605 H1609 0.950 . S
H1606 C1602 0.950 . S
C1607 C1605 1.390 . S
C1607 C1608 1.387 . S
C1607 H1610 0.950 . S
C1608 C1607 1.387 . S
C1608 C1611 1.387 . S
H1609 C1605 0.950 . S
H1610 C1607 0.950 . S
C1611 C1602 1.390 . S
C1611 H1604 0.950 . S
C1611 C1608 1.387 . S
C1612 C1613 1.387 . S
C1612 H1616 0.950 . S
C1612 C1621 1.390 . S
C1613 C1612 1.387 . S
C1613 C1615 1.387 . S
H1614 C1621 0.950 . S
C1615 C1613 1.387 . S
C1615 C1617 1.390 . S
C1615 H1619 0.950 . S
H1616 C1612 0.950 . S
C1617 C1615 1.390 . S
C1617 C1618 1.387 . S
C1617 H1620 0.950 . S
C1618 C1617 1.387 . S
C1618 C1621 1.387 . S
H1619 C1615 0.950 . S
H1620 C1617 0.950 . S
C1621 C1612 1.390 . S
C1621 H1614 0.950 . S
C1621 C1618 1.387 . S
C1622 C1623 1.387 . S
C1622 H1626 0.950 . S
C1622 C1631 1.390 . S
C1623 C1622 1.387 . S
C1623 C1625 1.387 . S
H1624 C1631 0.950 . S
C1625 C1623 1.387 . S
C1625 C1627 1.390 . S
C1625 H1629 0.950 . S
H1626 C1622 0.950 . S
C1627 C1625 1.390 . S
C1627 C1628 1.387 . S
C1627 H1630 0.950 . S
C1628 C1627 1.387 . S
C1628 C1631 1.387 . S
H1629 C1625 0.950 . S
H1630 C1627 0.950 . S
C1631 C1622 1.390 . S
C1631 H1624 0.950 . S
C1631 C1628 1.387 . S
C673 C7 1.326 . S
C678 C371 1.327 . S
C683 C385 1.579 . S
C688 C21 1.595 . S
C693 C35 1.687 . S
C698 C343 1.689 . S
C703 C357 1.786 . S
C708 C49 1.783 . S
C713 C63 1.499 . S
C718 C427 1.509 . S
C723 C77 1.676 . S
C728 C441 1.674 . S
C733 C91 1.794 . S
C738 C399 1.784 . S
C743 C105 1.414 . S
C748 C413 1.402 . S
C753 C175 1.338 . S
C758 C119 1.314 . S
C763 C133 1.781 . S
C768 C189 1.784 . S
C773 C203 1.500 . S
C778 C147 1.512 . S
C783 C161 1.400 . S
C788 C217 1.417 . S
C793 C609 1.336 . S
C798 C231 1.314 . S
C803 C637 1.500 . S
C808 C245 1.512 . S
C813 C315 1.783 . S
C818 C259 1.782 . S
C823 C567 1.691 . S
C828 C273 1.689 . S
C833 C665 1.405 . S
C838 C287 1.412 . S
C843 C581 1.794 . S
C848 C301 1.785 . S
C853 C329 1.675 . S
C858 C623 1.674 . S
C863 C455 1.690 . S
C868 C511 1.686 . S
C873 C525 1.590 . S
C878 C469 1.582 . S
C883 C483 1.794 . S
C888 C539 1.784 . S
C893 C553 1.676 . S
C898 C497 1.676 . S
C903 C595 1.583 . S
C908 C651 1.592 . S
C913 C8 1.054 . S
C918 C106 1.031 . S
C923 C64 1.158 . S
C928 C22 1.141 . S
C933 C36 1.238 . S
C938 C78 1.223 . S
C943 C50 1.318 . S
C948 C92 1.311 . S
C953 C288 1.030 . S
C958 C120 1.050 . S
C963 C582 1.315 . S
C968 C134 1.317 . S
C973 C148 1.148 . S
C978 C596 1.159 . S
C983 C162 1.034 . S
C988 C610 1.062 . S
C993 C666 1.033 . S
C998 C176 1.060 . S
C1003 C190 1.314 . S
C1008 C302 1.338 . S
C1013 C204 1.160 . S
C1018 C652 1.138 . S
C1023 C218 1.034 . S
C1028 C232 1.056 . S
C1033 C246 1.151 . S
C1038 C470 1.161 . S
C1043 C260 1.320 . S
C1048 C484 1.314 . S
C1053 C498 1.219 . S
C1058 C274 1.239 . S
C1063 C316 1.308 . S
C1068 C540 1.334 . S
C1073 C512 1.237 . S
C1078 C330 1.219 . S
C1083 C442 1.248 . S
C1088 C344 1.222 . S
C1093 C358 1.313 . S
C1098 C400 1.339 . S
C1103 C414 1.036 . S
C1108 C372 1.064 . S
C1113 C386 1.160 . S
C1118 C428 1.150 . S
C1123 C456 1.219 . S
C1128 C624 1.246 . S
C1133 C638 1.161 . S
C1138 C526 1.144 . S
C1143 C568 1.220 . S
C1148 C554 1.250 . S
C1153 C9 1.638 . S
C1158 C415 1.656 . S
C1163 C429 1.697 . S
C1168 C23 1.671 . S
C1173 C37 1.658 . S
C1178 C443 1.657 . S
C1183 C51 1.671 . S
C1188 C401 1.657 . S
C1193 C387 1.669 . S
C1198 C65 1.652 . S
C1203 C79 1.680 . S
C1208 C345 1.685 . S
C1213 C359 1.663 . S
C1218 C93 1.661 . S
C1223 C107 1.651 . S
C1228 C373 1.670 . S
C1233 C667 1.659 . S
C1238 C121 1.635 . S
C1243 C135 1.671 . S
C1248 C303 1.657 . S
C1253 C149 1.697 . S
C1258 C653 1.671 . S
C1263 C233 1.639 . S
C1268 C163 1.657 . S
C1273 C177 1.666 . S
C1278 C289 1.654 . S
C1283 C191 1.665 . S
C1288 C583 1.659 . S
C1293 C597 1.667 . S
C1298 C205 1.652 . S
C1303 C611 1.665 . S
C1308 C219 1.654 . S
C1313 C527 1.668 . S
C1318 C247 1.703 . S
C1323 C541 1.658 . S
C1328 C261 1.671 . S
C1333 C555 1.659 . S
C1338 C275 1.656 . S
C1343 C317 1.664 . S
C1348 C485 1.659 . S
C1353 C457 1.685 . S
C1358 C331 1.679 . S
C1363 C471 1.667 . S
C1368 C639 1.654 . S
C1373 C499 1.680 . S
C1378 C569 1.686 . S
C1383 C625 1.658 . S
C1388 C513 1.658 . S
C1393 C6 1.547 . S
C1398 C314 1.566 . S
C1403 C20 1.594 . S
C1408 C566 1.567 . S
C1413 C328 1.608 . S
C1418 C34 1.604 . S
C1423 C636 1.539 . S
C1428 C48 1.542 . S
C1433 C258 1.537 . S
C1438 C62 1.535 . S
C1443 C272 1.608 . S
C1448 C76 1.612 . S
C1453 C90 1.595 . S
C1458 C622 1.589 . S
C1463 C104 1.544 . S
C1468 C244 1.526 . S
C1473 C188 1.562 . S
C1478 C118 1.544 . S
C1483 C132 1.539 . S
C1488 C202 1.539 . S
C1493 C216 1.540 . S
C1498 C146 1.524 . S
C1503 C174 1.608 . S
C1508 C160 1.593 . S
C1513 C230 1.547 . S
C1518 C356 1.567 . S
C1523 C426 1.533 . S
C1528 C286 1.537 . S
C1533 C384 1.592 . S
C1538 C300 1.621 . S
C1543 C342 1.573 . S
C1548 C650 1.587 . S
C1553 C664 1.593 . S
C1558 C370 1.609 . S
C1563 C594 1.596 . S
C1568 C398 1.624 . S
C1573 C608 1.606 . S
C1578 C412 1.589 . S
C1583 C580 1.592 . S
C1588 C440 1.585 . S
C1593 C524 1.593 . S
C1598 C454 1.567 . S
C1603 C538 1.621 . S
C1608 C468 1.592 . S
C1613 C482 1.594 . S
C1618 C552 1.586 . S
C1623 C496 1.612 . S
C1628 C510 1.608 . S
