# Generated by pormake.
# Topology tfs, (6)-cn, num edge types: 1
# Building blocks:
#     Node 0, Type 0, BuildingBlock: BETDAH_clean_sbu_0, # of connection points: 6
#     Node 1, Type 0, BuildingBlock: BETDAH_clean_sbu_0, # of connection points: 6
#     Node 2, Type 0, BuildingBlock: BETDAH_clean_sbu_0, # of connection points: 6
#     Node 3, Type 0, BuildingBlock: BETDAH_clean_sbu_0, # of connection points: 6
#     Node 4, Type 0, BuildingBlock: BETDAH_clean_sbu_0, # of connection points: 6
#     Node 5, Type 0, BuildingBlock: BETDAH_clean_sbu_0, # of connection points: 6
#     Edge 6, Type (0, 0), BuildingBlock: CIFDUS_clean_linker_0, # of connection points: 2
#     Edge 7, Type (0, 0), BuildingBlock: CIFDUS_clean_linker_0, # of connection points: 2
#     Edge 8, Type (0, 0), BuildingBlock: CIFDUS_clean_linker_0, # of connection points: 2
#     Edge 9, Type (0, 0), BuildingBlock: CIFDUS_clean_linker_0, # of connection points: 2
#     Edge 10, Type (0, 0), BuildingBlock: CIFDUS_clean_linker_0, # of connection points: 2
#     Edge 11, Type (0, 0), BuildingBlock: CIFDUS_clean_linker_0, # of connection points: 2
#     Edge 12, Type (0, 0), BuildingBlock: CIFDUS_clean_linker_0, # of connection points: 2
#     Edge 13, Type (0, 0), BuildingBlock: CIFDUS_clean_linker_0, # of connection points: 2
#     Edge 14, Type (0, 0), BuildingBlock: CIFDUS_clean_linker_0, # of connection points: 2
#     Edge 15, Type (0, 0), BuildingBlock: CIFDUS_clean_linker_0, # of connection points: 2
#     Edge 16, Type (0, 0), BuildingBlock: CIFDUS_clean_linker_0, # of connection points: 2
#     Edge 17, Type (0, 0), BuildingBlock: CIFDUS_clean_linker_0, # of connection points: 2
#     Edge 18, Type (0, 0), BuildingBlock: CIFDUS_clean_linker_0, # of connection points: 2
#     Edge 19, Type (0, 0), BuildingBlock: CIFDUS_clean_linker_0, # of connection points: 2
#     Edge 20, Type (0, 0), BuildingBlock: CIFDUS_clean_linker_0, # of connection points: 2
#     Edge 21, Type (0, 0), BuildingBlock: CIFDUS_clean_linker_0, # of connection points: 2
#     Edge 22, Type (0, 0), BuildingBlock: CIFDUS_clean_linker_0, # of connection points: 2
#     Edge 23, Type (0, 0), BuildingBlock: CIFDUS_clean_linker_0, # of connection points: 2
# Relax obj value: 0.572
# Max RMSD: 0.470
# Mean RMSD: 0.364
data_MOF--net-tfs--node1-BETDAH_clean_sbu_0--edge1-CIFDUS_clean_linker_0
_symmetry_space_group_name_H-M    P1
_symmetry_Int_Tables_number       1
_symmetry_cell_setting            triclinic
loop_
_symmetry_equiv_pos_as_xyz
'x, y, z'
_cell_length_a     49.163296
_cell_length_b     45.852615
_cell_length_c     11.302536
_cell_angle_alpha  98.476724
_cell_angle_beta   92.15387
_cell_angle_gamma 127.73279
loop_
_atom_site_label
_atom_site_type_symbol
_atom_site_fract_x
_atom_site_fract_y
_atom_site_fract_z
_atom_type_partial_charge
Ho0 Ho 0.36572 0.47061 0.65453 0.0
Ho1 Ho 0.34436 0.52043 0.7571 0.0
C2 C 0.28214 0.43264 0.64259 0.0
C3 C 0.38985 0.4332 0.62267 0.0
C4 C 0.38665 0.39924 0.56449 0.0
C5 C 0.36641 0.365 0.60444 0.0
C6 C 0.3679 0.33554 0.56101 0.0
C7 C 0.38998 0.33944 0.47719 0.0
C8 C 0.40965 0.37351 0.43591 0.0
C9 C 0.40807 0.40279 0.47893 0.0
C10 C 0.33915 0.48836 0.49964 0.0
C11 C 0.42703 0.5633 0.7515 0.0
C12 C 0.33435 0.56891 0.81904 0.0
C13 C 0.32862 0.59684 0.85443 0.0
C14 C 0.33593 0.62209 0.78044 0.0
C15 C 0.33013 0.6483 0.81272 0.0
C16 C 0.3163 0.6493 0.91853 0.0
C17 C 0.30902 0.62401 -0.00731 0.0
C18 C 0.3155 0.59827 0.96156 0.0
C19 C 0.34283 0.47616 0.89229 0.0
O20 O 0.30582 0.4268 0.65155 0.0
O21 O 0.2919 0.46735 0.66184 0.0
O22 O 0.39528 0.45712 0.55691 0.0
O23 O 0.37147 0.43068 0.70792 0.0
O24 O 0.33497 0.45705 0.47723 0.0
O25 O 0.36069 0.51031 0.59316 0.0
O26 O 0.40241 0.56528 0.78235 0.0
O27 O 0.41953 0.53041 0.69992 0.0
O28 O 0.34557 0.55891 0.89876 0.0
O29 O 0.32856 0.55238 0.7054 0.0
O30 O 0.31971 0.48132 0.88205 0.0
O31 O 0.36623 0.4959 0.83262 0.0
H32 H 0.35008 0.36126 0.67194 0.0
H33 H 0.35253 0.31016 0.59656 0.0
H34 H 0.42657 0.37779 0.37019 0.0
H35 H 0.42453 0.42884 0.44733 0.0
H36 H 0.34623 0.62162 0.69773 0.0
H37 H 0.33577 0.66729 0.75348 0.0
H38 H 0.29851 0.62432 0.07499 0.0
H39 H 0.30969 0.57905 0.02009 0.0
Ho40 Ho 0.88767 0.1693 0.29989 0.0
Ho41 Ho 0.80578 0.13319 0.21811 0.0
C42 C 0.82409 0.08782 0.3586 0.0
C43 C 0.95449 0.20999 0.37904 0.0
C44 C 0.99398 0.23656 0.41368 0.0
C45 C 1.01175 0.23531 0.51157 0.0
C46 C 0.04883 0.26076 0.53984 0.0
C47 C 0.06931 0.28861 0.47207 0.0
C48 C 0.05131 0.2892 0.37342 0.0
C49 C 1.01467 0.26382 0.34482 0.0
C50 C 0.85767 0.12633 0.07024 0.0
C51 C 0.86729 0.20892 0.14485 0.0
C52 C 0.74471 0.10819 0.11164 0.0
C53 C 0.71642 0.112 0.12392 0.0
C54 C 0.70716 0.1238 0.03297 0.0
C55 C 0.67934 0.12528 0.0366 0.0
C56 C 0.65949 0.11513 0.13195 0.0
C57 C 0.66911 0.10361 0.22375 0.0
C58 C 0.69686 0.10189 0.2195 0.0
C59 C 0.83544 0.17483 0.44706 0.0
O60 O 0.85809 0.11758 0.38396 0.0
O61 O 0.80075 0.0858 0.28464 0.0
O62 O 0.94078 0.20755 0.27333 0.0
O63 O 0.93111 0.18919 0.44578 0.0
O64 O 0.89051 0.14744 0.11303 0.0
O65 O 0.84236 0.12353 0.15987 0.0
O66 O 0.83629 0.17599 0.10711 0.0
O67 O 0.88861 0.21512 0.23891 0.0
O68 O 0.74901 0.09093 0.18388 0.0
O69 O 0.77449 0.13697 0.08932 0.0
O70 O 0.80256 0.15407 0.40484 0.0
O71 O 0.85096 0.17917 0.35696 0.0
H72 H 0.99702 0.21473 0.5666 0.0
H73 H 0.0614 0.25931 0.61688 0.0
H74 H 0.06568 0.30962 0.31753 0.0
H75 H 1.0025 0.26593 0.26825 0.0
H76 H 0.72118 0.13133 0.95692 0.0
H77 H 0.67302 0.13361 0.96221 0.0
H78 H 0.65542 0.09607 0.30036 0.0
H79 H 0.70286 0.09245 0.29119 0.0
Ho80 Ho 0.69913 0.83033 0.72835 0.0
Ho81 Ho 0.64979 0.84962 0.79921 0.0
C82 C 0.72306 0.91166 0.69491 0.0
C83 C 0.72821 0.80181 0.64668 0.0
C84 C 0.76339 0.81303 0.64472 0.0
C85 C 0.77251 0.8073 0.5329 0.0
C86 C 0.80304 0.81162 0.5279 0.0
C87 C 0.82517 0.82169 0.63499 0.0
C88 C 0.81723 0.83004 0.74703 0.0
C89 C 0.78656 0.82573 0.75195 0.0
C90 C 0.7088 0.86227 0.96065 0.0
C91 C 0.61736 0.76438 0.77174 0.0
C92 C 0.63637 0.89016 0.92016 0.0
C93 C 0.62466 0.89878 0.02641 0.0
C94 C 0.60854 0.87451 0.10668 0.0
C95 C 0.59272 0.88142 0.19482 0.0
C96 C 0.59262 0.91235 0.20178 0.0
C97 C 0.6123 0.9385 0.12875 0.0
C98 C 0.6281 0.93169 0.04214 0.0
C99 C 0.64083 0.82071 0.56447 0.0
O100 O 0.73004 0.88763 0.67341 0.0
O101 O 0.69579 0.90278 0.74696 0.0
O102 O 0.71729 0.79877 0.75136 0.0
O103 O 0.71917 0.8168 0.58118 0.0
O104 O 0.73421 0.86814 0.9076 0.0
O105 O 0.68038 0.8377 0.89134 0.0
O106 O 0.61707 0.7911 0.83382 0.0
O107 O 0.64371 0.77321 0.71189 0.0
O108 O 0.61305 0.85957 0.83694 0.0
O109 O 0.66662 0.89746 0.93792 0.0
O110 O 0.61667 0.82009 0.61128 0.0
O111 O 0.66814 0.84159 0.63978 0.0
H112 H 0.75505 0.79747 0.44921 0.0
H113 H 0.80781 0.80427 0.43995 0.0
H114 H 0.83387 0.8382 0.83105 0.0
H115 H 0.78032 0.83073 0.83975 0.0
H116 H 0.6066 0.84941 0.09709 0.0
H117 H 0.57853 0.86119 0.25139 0.0
H118 H 0.61284 0.96247 0.12917 0.0
H119 H 0.64109 0.951 0.98177 0.0
Ho120 Ho 0.87839 0.57644 0.06348 0.0
Ho121 Ho 0.90082 0.52616 0.97758 0.0
C122 C 0.95688 0.61216 0.14057 0.0
C123 C 0.86271 0.61369 0.19479 0.0
C124 C 0.87701 0.65318 0.2416 0.0
C125 C 0.89887 0.67377 0.35467 0.0
C126 C 0.90841 0.7092 0.4051 0.0
C127 C 0.89617 0.72459 0.34355 0.0
C128 C 0.87566 0.70467 0.22811 0.0
C129 C 0.86608 0.66936 0.17803 0.0
C130 C 0.89394 0.57667 0.83909 0.0
C131 C 0.82445 0.49578 0.89185 0.0
C132 C 0.92638 0.49294 0.90169 0.0
C133 C 0.92052 0.45881 0.92718 0.0
C134 C 0.91428 0.43081 0.83251 0.0
C135 C 0.9107 0.39961 0.85784 0.0
C136 C 0.91376 0.39623 0.97849 0.0
C137 C 0.91857 0.4235 0.07238 0.0
C138 C 0.92169 0.45424 0.04716 0.0
C139 C 0.86112 0.50615 0.15391 0.0
O140 O 0.93516 0.61943 0.12301 0.0
O141 O 0.94903 0.57871 0.10052 0.0
O142 O 0.85219 0.60068 0.07772 0.0
O143 O 0.87854 0.60208 0.24063 0.0
O144 O 0.87326 0.58364 0.87476 0.0
O145 O 0.90853 0.57487 0.92829 0.0
O146 O 0.8507 0.4981 0.85394 0.0
O147 O 0.82894 0.51932 -0.01161 0.0
O148 O 0.94203 0.52188 -0.00682 0.0
O149 O 0.90048 0.48776 0.83754 0.0
O150 O 0.86336 0.48305 0.08348 0.0
O151 O 0.88398 0.53869 0.13803 0.0
H152 H 0.90757 0.66198 0.40631 0.0
H153 H 0.92426 0.72391 0.49417 0.0
H154 H 0.86508 0.71523 0.17935 0.0
H155 H 0.84884 0.65406 0.09155 0.0
H156 H 0.91276 0.4334 0.73921 0.0
H157 H 0.90668 0.37883 0.78355 0.0
H158 H 0.92012 0.42116 0.16599 0.0
H159 H 0.9256 0.47476 0.12225 0.0
Ho160 Ho 0.24239 0.82489 0.93625 0.0
Ho161 Ho 0.32046 0.89188 0.91562 0.0
C162 C 0.26266 0.89929 0.83547 0.0
C163 C 0.18124 0.79038 -0.00817 0.0
C164 C 0.15088 0.77871 0.91086 0.0
C165 C 0.11874 0.76316 0.94905 0.0
C166 C 0.08922 0.74709 0.86346 0.0
C167 C 0.09164 0.74574 0.73899 0.0
C168 C 0.12474 0.76442 0.7041 0.0
C169 C 0.15402 0.78103 0.78937 0.0
C170 C 0.26084 0.82062 0.71921 0.0
C171 C 0.29881 0.8125 0.97431 0.0
C172 C 0.38407 0.9328 0.88118 0.0
C173 C 0.41467 0.94107 0.9526 0.0
C174 C 0.42559 0.91971 0.91482 0.0
C175 C 0.4501 0.92221 -0.00873 0.0
C176 C 0.46453 0.94644 0.10655 0.0
C177 C 0.45534 0.96958 0.14185 0.0
C178 C 0.43045 0.96681 0.06566 0.0
C179 C 0.29981 0.89412 0.13021 0.0
O180 O 0.23966 0.86932 0.88045 0.0
O181 O 0.29413 0.91017 0.82428 0.0
O182 O 0.19368 0.77289 0.95357 0.0
O183 O 0.20544 0.82702 0.02679 0.0
O184 O 0.23438 0.79106 0.75205 0.0
O185 O 0.27124 0.84945 0.79539 0.0
O186 O 0.32065 0.84352 0.9326 0.0
O187 O 0.26845 0.80224 0.00179 0.0
O188 O 0.37026 0.94705 0.93506 0.0
O189 O 0.36057 0.89764 0.82263 0.0
O190 O 0.32477 0.9243 0.09682 0.0
O191 O 0.29151 0.86589 0.05663 0.0
H192 H 0.1162 0.76201 0.04337 0.0
H193 H 0.06431 0.734 0.89397 0.0
H194 H 0.12803 0.76383 0.60988 0.0
H195 H 0.1789 0.79359 0.75888 0.0
H196 H 0.41421 0.89996 0.82792 0.0
H197 H 0.45761 0.90489 0.96052 0.0
H198 H 0.46655 0.98885 0.22964 0.0
H199 H 0.42275 0.98387 0.09731 0.0
Ho200 Ho 0.44544 0.13702 0.17069 0.0
Ho201 Ho 0.4985 0.20995 0.09489 0.0
C202 C 0.43936 0.2061 0.20285 0.0
C203 C 0.40058 0.08305 0.27301 0.0
C204 C 0.36287 0.05559 0.27497 0.0
C205 C 0.34483 0.06659 0.33381 0.0
C206 C 0.31216 0.03947 0.36343 0.0
C207 C 0.29738 1.00103 0.33705 0.0
C208 C 0.31356 0.99003 0.26426 0.0
C209 C 0.34605 1.01703 0.23437 0.0
C210 C 0.43476 0.13579 0.93091 0.0
C211 C 0.5167 0.15257 0.10516 0.0
C212 C 0.53555 0.25537 0.9581 0.0
C213 C 0.56823 0.27028 0.91606 0.0
C214 C 0.57335 0.28201 0.80603 0.0
C215 C 0.60653 0.30282 0.77526 0.0
C216 C 0.63435 0.31209 0.85565 0.0
C217 C 0.62807 0.29543 0.9563 0.0
C218 C 0.59484 0.27439 -0.01337 0.0
C219 C 0.50679 0.21166 0.33539 0.0
O220 O 0.43206 0.17649 0.24399 0.0
O221 O 0.45897 0.2182 0.11798 0.0
O222 O 0.41207 0.07781 0.17638 0.0
O223 O 0.41629 0.11868 0.31827 0.0
O224 O 0.42831 0.10764 0.97196 0.0
O225 O 0.44443 0.16176 0.01992 0.0
O226 O 0.52157 0.1799 0.05776 0.0
O227 O 0.49086 0.13435 0.16925 0.0
O228 O 0.53719 0.26703 0.07338 0.0
O229 O 0.51173 0.21913 0.91899 0.0
O230 O 0.51485 0.24048 0.29277 0.0
O231 O 0.4984 0.1858 0.24822 0.0
H232 H 0.35689 0.09617 0.36459 0.0
H233 H 0.29992 0.04894 0.41583 0.0
H234 H 0.30308 0.96086 0.2407 0.0
H235 H 0.35924 1.00772 0.18803 0.0
H236 H 0.55243 0.27772 0.74915 0.0
H237 H 0.61121 0.31579 0.69775 0.0
H238 H 0.64952 0.30268 0.01933 0.0
H239 H 0.59062 0.26413 0.06984 0.0
H240 H 0.37928 0.19297 0.27901 0.0
H241 H 0.48824 0.28088 0.27356 0.0
H242 H 0.48324 0.32884 0.35884 0.0
H243 H 0.44829 0.34729 0.42775 0.0
H244 H 0.3388 0.26154 0.43067 0.0
H245 H 0.34382 0.21228 0.35666 0.0
C246 C 0.40193 0.22256 0.29799 0.0
C247 C 0.43413 0.23297 0.26862 0.0
C248 C 0.39883 0.25087 0.34639 0.0
C249 C 0.46305 0.27172 0.2937 0.0
C250 C 0.46027 0.29943 0.34272 0.0
C251 C 0.42529 0.3179 0.41136 0.0
C252 C 0.3931 0.30872 0.43441 0.0
C253 C 0.42825 0.28954 0.36753 0.0
C254 C 0.36407 0.27002 0.41501 0.0
C255 C 0.36688 0.2416 0.37178 0.0
H256 H 0.22952 0.43569 0.58202 0.0
H257 H 0.24582 0.35589 0.63446 0.0
H258 H 0.1824 0.3048 0.59176 0.0
H259 H 0.12111 0.28231 0.53813 0.0
H260 H 0.10745 0.3641 0.48372 0.0
H261 H 0.17022 0.41405 0.52858 0.0
C262 C 0.21949 0.40718 0.58438 0.0
C263 C 0.24316 0.40019 0.61204 0.0
C264 C 0.18288 0.37784 0.55914 0.0
C265 C 0.22882 0.36261 0.61327 0.0
C266 C 0.19229 0.33323 0.5891 0.0
C267 C 0.13183 0.31108 0.53677 0.0
C268 C 0.10878 0.31884 0.50628 0.0
C269 C 0.16884 0.34039 0.56198 0.0
C270 C 0.12386 0.35662 0.50474 0.0
C271 C 0.16005 0.3855 0.53097 0.0
H272 H 0.76744 0.05158 0.47029 0.0
H273 H 0.85186 0.05151 0.38379 0.0
H274 H 0.829 0.99716 0.47835 0.0
H275 H 0.7834 0.94813 0.58482 0.0
H276 H 0.70284 0.95467 0.68346 0.0
H277 H 0.72578 1.00726 0.58727 0.0
C278 C 0.7808 0.03959 0.47172 0.0
C279 C 0.81101 0.05529 0.41815 0.0
C280 C 0.76815 1.00919 0.52969 0.0
C281 C 0.82843 0.0399 0.42369 0.0
C282 C 0.8153 1.00873 0.47788 0.0
C283 C 0.77106 0.96124 0.58622 0.0
C284 C 0.74107 0.94661 0.64238 0.0
C285 C 0.78497 0.99288 0.53135 0.0
C286 C 0.72582 0.96459 0.64235 0.0
C287 C 0.73886 0.99495 0.58639 0.0
H288 H 0.88815 0.73956 0.57476 0.0
H289 H 0.91099 0.78373 0.24935 0.0
H290 H 0.8987 0.82639 0.3288 0.0
H291 H 0.86939 0.84032 0.46959 0.0
H292 H 0.84147 0.79091 0.78464 0.0
H293 H 0.86992 0.76323 0.73453 0.0
C294 C 0.89182 0.75955 0.52316 0.0
C295 C 0.89969 0.75789 0.4052 0.0
C296 C 0.8836 0.78306 0.56763 0.0
C297 C 0.90421 0.78393 0.33941 0.0
C298 C 0.89715 0.80829 0.38472 0.0
C299 C 0.87017 0.82413 0.52861 0.0
C300 C 0.85229 0.81672 0.62835 0.0
C301 C 0.88481 0.80639 0.49543 0.0
C302 C 0.85469 0.79691 0.7066 0.0
C303 C 0.87059 0.78056 0.67709 0.0
H304 H 0.08172 0.75483 0.5113 0.0
H305 H 1.03049 0.67752 0.75169 0.0
H306 H 0.98536 0.62877 0.58385 0.0
H307 H 0.9634 0.60588 0.36605 0.0
H308 H 1.01468 0.68141 0.12305 0.0
H309 H 0.05885 0.73241 0.29358 0.0
C310 C 0.06086 0.72728 0.52722 0.0
C311 C 0.06017 0.71985 0.64415 0.0
C312 C 0.03607 0.69852 0.42896 0.0
C313 C 0.03188 0.68444 0.66349 0.0
C314 C 1.00634 0.65613 0.5669 0.0
C315 C 0.98492 0.6333 0.35071 0.0
C316 C 0.98716 0.63994 0.23323 0.0
C317 C 1.00899 0.66245 0.44898 0.0
C318 C 1.01366 0.67577 0.21325 0.0
C319 C 0.03835 0.70489 0.3106 0.0
H320 H 0.22711 0.87172 0.60997 0.0
H321 H 0.27783 0.96693 0.91129 0.0
H322 H 0.28506 1.00711 0.77514 0.0
H323 H 0.29178 0.01791 0.57105 0.0
H324 H 0.24484 0.92387 0.26573 0.0
H325 H 0.22089 0.88024 0.40271 0.0
C326 C 0.23785 0.90074 0.64602 0.0
C327 C 0.25162 0.91652 0.76996 0.0
C328 C 0.2437 0.92406 0.56602 0.0
C329 C 0.26655 0.95429 0.81628 0.0
C330 C 0.27116 0.97732 0.73808 0.0
C331 C 0.27492 0.98783 0.53281 0.0
C332 C 0.27133 0.97446 0.40815 0.0
C333 C 0.26201 0.96304 0.61229 0.0
C334 C 0.24917 0.93516 0.36174 0.0
C335 C 0.23543 0.91013 0.44013 0.0
H336 H 0.25777 0.73964 0.00722 0.0
H337 H 0.36225 0.83004 0.95931 0.0
H338 H 0.37722 0.78813 0.94389 0.0
H339 H 0.3597 0.72464 0.92779 0.0
H340 H 0.25593 0.63391 0.97708 0.0
H341 H 0.24178 0.67699 0.00894 0.0
C342 C 0.28395 0.75032 -0.00471 0.0
C343 C 0.30863 0.78791 0.98305 0.0
C344 C 0.2925 0.72587 -0.01447 0.0
C345 C 0.34249 0.80119 0.9677 0.0
C346 C 0.35116 0.7772 0.95864 0.0
C347 C 0.33406 0.71441 0.94615 0.0
C348 C 0.3088 0.67614 0.94896 0.0
C349 C 0.32617 0.7393 0.96447 0.0
C350 C 0.27584 0.66331 0.97474 0.0
C351 C 0.2677 0.6879 -0.00756 0.0
H352 H 0.52335 0.10326 0.19949 0.0
H353 H 0.57266 0.1893 -0.01203 0.0
H354 H 0.61967 0.18569 0.97832 0.0
H355 H 0.64915 0.16071 0.03482 0.0
H356 H 0.59949 0.07183 0.23505 0.0
H357 H 0.55184 0.07495 0.24567 0.0
C358 C 0.54422 0.12107 0.15065 0.0
C359 C 0.54389 0.14675 0.09548 0.0
C360 C 0.57193 0.11885 0.14424 0.0
C361 C 0.57157 0.16931 0.03239 0.0
C362 C 0.59888 0.16737 0.02664 0.0
C363 C 0.62784 0.14138 0.07939 0.0
C364 C 0.62904 0.11631 0.13504 0.0
C365 C 0.59963 0.14254 0.08294 0.0
C366 C 0.60063 0.09228 0.19358 0.0
C367 C 0.5728 0.09369 0.19872 0.0
H368 H 0.56336 0.73541 0.9029 0.0
H369 H 0.59947 0.70019 0.61754 0.0
H370 H 0.54587 0.6348 0.58981 0.0
H371 H 0.48573 0.58726 0.63776 0.0
H372 H 0.45193 0.62491 0.92636 0.0
H373 H 0.50684 0.68837 0.96079 0.0
C374 C 0.5598 0.71354 0.83484 0.0
C375 C 0.58583 0.72344 0.76187 0.0
C376 C 0.52871 0.67576 0.81912 0.0
C377 C 0.58026 0.69401 0.67534 0.0
C378 C 0.54933 0.65634 0.65907 0.0
C379 C 0.49056 0.60916 0.70937 0.0
C380 C 0.46385 0.60058 0.77817 0.0
C381 C 0.52291 0.64673 0.72918 0.0
C382 C 0.47121 0.63002 0.87021 0.0
C383 C 0.50289 0.66673 0.89043 0.0
H384 H 0.86702 0.3205 0.8787 0.0
H385 H 0.95916 0.40262 0.14636 0.0
H386 H 0.95531 0.35225 0.21427 0.0
H387 H 0.92253 0.28464 0.21158 0.0
H388 H 0.83039 0.20254 0.94261 0.0
H389 H 0.83771 0.25274 0.86151 0.0
C390 C 0.8865 0.32732 0.95063 0.0
C391 C 0.91298 0.36523 0.00881 0.0
C392 C 0.88396 0.2981 -0.00972 0.0
C393 C 0.93806 0.3736 0.10189 0.0
C394 C 0.93596 0.34481 0.14061 0.0
C395 C 0.90434 0.27773 0.13431 0.0
C396 C 0.87558 0.23983 0.08576 0.0
C397 C 0.9085 0.3069 0.08782 0.0
C398 C 0.8525 0.23146 0.98414 0.0
C399 C 0.8566 0.26021 0.93714 0.0
H400 H 0.45656 0.88716 0.16614 0.0
H401 H 0.52887 1.00849 0.22516 0.0
H402 H 0.57579 1.00887 0.30823 0.0
H403 H 0.59811 0.9736 0.31201 0.0
H404 H 0.52606 0.85168 0.21647 0.0
H405 H 0.4773 0.85254 0.20996 0.0
C406 C 0.48245 0.91369 0.20021 0.0
C407 C 0.48974 0.94766 0.18669 0.0
C408 C 0.50943 0.91346 0.24206 0.0
C409 C 0.52294 0.98202 0.23368 0.0
C410 C 0.54974 0.98217 0.28047 0.0
C411 C 0.57169 0.94718 0.2926 0.0
C412 C 0.56597 0.91278 0.25817 0.0
C413 C 0.54369 0.94788 0.27739 0.0
C414 C 0.53162 0.87878 0.24071 0.0
C415 C 0.50349 0.87918 0.23458 0.0
H416 H 0.76707 0.47913 0.97187 0.0
H417 H 0.80154 0.43662 0.70187 0.0
H418 H 0.7434 0.37474 0.65832 0.0
H419 H 0.68515 0.33097 0.71851 0.0
H420 H 0.65647 0.37457 0.00872 0.0
H421 H 0.71081 0.43794 0.0266 0.0
C422 C 0.76204 0.4566 0.90242 0.0
C423 C 0.78867 0.46203 0.84228 0.0
C424 C 0.72993 0.42109 0.88437 0.0
C425 C 0.78137 0.43278 0.75061 0.0
C426 C 0.74834 0.3974 0.7266 0.0
C427 C 0.69122 0.35457 0.78524 0.0
C428 C 0.66782 0.34876 0.86379 0.0
C429 C 0.72291 0.39086 0.79679 0.0
C430 C 0.67494 0.37898 0.94937 0.0
C431 C 0.70565 0.41504 0.95879 0.0
H432 H 0.38172 0.54638 0.39961 0.0
H433 H 0.27324 0.45696 0.39027 0.0
H434 H 0.26735 0.42971 0.1786 0.0
H435 H 0.29639 0.42632 0.01253 0.0
H436 H 0.40647 0.51339 0.02981 0.0
H437 H 0.41098 0.5425 0.23614 0.0
C438 C 0.35659 0.52175 0.34848 0.0
C439 C 0.32893 0.50034 0.40961 0.0
C440 C 0.35529 0.5035 0.23649 0.0
C441 C 0.29553 0.47163 0.34378 0.0
C442 C 0.29257 0.45498 0.22593 0.0
C443 C 0.32154 0.45062 0.06434 0.0
C444 C 0.3504 0.46992 0.00587 0.0
C445 C 0.32296 0.46914 0.1757 0.0
C446 C 0.3835 0.49951 0.07327 0.0
C447 C 0.38584 0.51722 0.18824 0.0
H448 H 0.89984 0.1654 0.91569 0.0
H449 H 0.7912 0.08859 0.95122 0.0
H450 H 0.7751 0.09768 0.75951 0.0
H451 H 0.79251 0.13033 0.59158 0.0
H452 H 0.90133 0.21088 0.56507 0.0
H453 H 0.91722 0.19811 0.74826 0.0
C454 C 0.87253 0.15025 0.88123 0.0
C455 C 0.8466 0.12635 0.94737 0.0
C456 C 0.86381 0.15696 0.77505 0.0
C457 C 0.81146 0.10701 0.9015 0.0
C458 C 0.8024 0.11253 0.79295 0.0
C459 C 0.81981 0.14542 0.62606 0.0
C460 C 0.84595 0.17125 0.56426 0.0
C461 C 0.82846 0.1381 0.7309 0.0
C462 C 0.88099 0.19043 0.61015 0.0
C463 C 0.88992 0.18313 0.71452 0.0
H464 H 0.66268 0.87585 0.44959 0.0
H465 H 0.63309 0.76461 0.41141 0.0
H466 H 0.66071 0.77217 0.23013 0.0
H467 H 0.69248 0.81038 0.08316 0.0
H468 H 0.72199 0.92154 0.11997 0.0
H469 H 0.69738 0.91556 0.3082 0.0
C470 C 0.66107 0.85276 0.39784 0.0
C471 C 0.64434 0.81888 0.43791 0.0
C472 C 0.67863 0.85829 0.29898 0.0
C473 C 0.64415 0.78992 0.37664 0.0
C474 C 0.66079 0.79474 0.27585 0.0
C475 C 0.69458 0.83374 0.13538 0.0
C476 C 0.70919 0.86646 0.09045 0.0
C477 C 0.67841 0.82895 0.23742 0.0
C478 C 0.71139 0.89647 0.15558 0.0
C479 C 0.69655 0.89261 0.26082 0.0
H480 H 0.84476 0.55521 0.65643 0.0
H481 H 0.93042 0.55462 0.74815 0.0
H482 H 0.9194 0.51997 0.54258 0.0
H483 H 0.8909 0.49846 0.33233 0.0
H484 H 0.8108 0.50698 0.23611 0.0
H485 H 0.8124 0.52788 0.45029 0.0
C486 C 0.86106 0.54757 0.63112 0.0
C487 C 0.88879 0.55793 0.7151 0.0
C488 C 0.85477 0.52815 0.51355 0.0
C489 C 0.90933 0.54734 0.68311 0.0
C490 C 0.90281 0.52727 0.56657 0.0
C491 C 0.87274 0.50322 0.35963 0.0
C492 C 0.85055 0.50104 0.27137 0.0
C493 C 0.87613 0.51834 0.48057 0.0
C494 C 0.8276 0.50805 0.30462 0.0
C495 C 0.82909 0.52073 0.42621 0.0
H496 H 0.24453 0.83511 0.19352 0.0
H497 H 0.34272 0.94515 0.33811 0.0
H498 H 0.34133 0.92792 0.53405 0.0
H499 H 0.31478 0.87974 0.65257 0.0
H500 H 0.21494 0.77087 0.51271 0.0
H501 H 0.2155 0.78845 0.31762 0.0
C502 C 0.26483 0.85586 0.2693 0.0
C503 C 0.29358 0.89119 0.25316 0.0
C504 C 0.26457 0.84509 0.37749 0.0
C505 C 0.32023 0.9179 0.35031 0.0
C506 C 0.31982 0.90772 0.46052 0.0
C507 C 0.29353 0.85956 0.57848 0.0
C508 C 0.26512 0.82407 0.59501 0.0
C509 C 0.29285 0.87089 0.4725 0.0
C510 C 0.23741 0.79803 0.4999 0.0
C511 C 0.23731 0.80846 0.39041 0.0
H512 H 0.44393 0.19008 0.82319 0.0
H513 H 0.44292 0.09432 0.7604 0.0
H514 H 0.46574 0.10994 0.57171 0.0
H515 H 0.49031 0.15347 0.43275 0.0
H516 H 0.49461 0.25135 0.49905 0.0
H517 H 0.46787 0.23343 0.68104 0.0
C518 C 0.44834 0.17242 0.76716 0.0
C519 C 0.44241 0.14153 0.80693 0.0
C520 C 0.46319 0.18272 0.66163 0.0
C521 C 0.4477 0.11853 0.7328 0.0
C522 C 0.46114 0.1277 0.62553 0.0
C523 C 0.48566 0.17106 0.48771 0.0
C524 C 0.49463 0.20381 0.45306 0.0
C525 C 0.46998 0.16034 0.5911 0.0
C526 C 0.48831 0.22624 0.52461 0.0
C527 C 0.47261 0.21572 0.62776 0.0
loop_
_geom_bond_atom_site_label_1
_geom_bond_atom_site_label_2
_geom_bond_distance
_geom_bond_site_symmetry_2
_ccdc_geom_bond_type
Ho0 C3 2.811 . S
Ho0 O20 2.322 . S
Ho0 O22 2.378 . S
Ho0 O23 2.524 . S
Ho0 O24 2.381 . S
Ho0 O25 2.669 . S
Ho0 O27 2.346 . S
Ho0 O31 2.305 1_556 S
Ho1 C12 2.811 1_556 S
Ho1 O21 2.346 . S
Ho1 O25 2.305 . S
Ho1 O26 2.322 1_556 S
Ho1 O28 2.378 1_556 S
Ho1 O29 2.524 . S
Ho1 O30 2.381 1_556 S
Ho1 O31 2.669 1_556 S
C2 O20 1.259 . S
C2 O21 1.268 . S
C3 Ho0 2.811 . S
C3 C4 1.488 . S
C3 O22 1.215 . S
C3 O23 1.289 . S
C4 C3 1.488 . S
C4 C5 1.348 . S
C4 C9 1.413 . S
C5 C4 1.348 . S
C5 C6 1.442 . S
C5 H32 0.930 . S
C6 C5 1.442 . S
C6 C7 1.381 . S
C6 H33 0.931 . S
C7 C6 1.381 . S
C7 C8 1.321 . S
C8 C7 1.321 . S
C8 C9 1.403 . S
C8 H34 0.934 . S
C9 C4 1.413 . S
C9 C8 1.403 . S
C9 H35 0.930 . S
C10 O24 1.275 . S
C10 O25 1.256 . S
C11 O26 1.259 . S
C11 O27 1.268 1_554 S
C12 Ho1 2.811 1_554 S
C12 C13 1.488 . S
C12 O28 1.215 . S
C12 O29 1.289 1_554 S
C13 C12 1.488 . S
C13 C14 1.348 1_554 S
C13 C18 1.413 . S
C14 C13 1.348 1_556 S
C14 C15 1.442 . S
C14 H36 0.930 . S
C15 C14 1.442 . S
C15 C16 1.381 1_556 S
C15 H37 0.931 . S
C16 C15 1.381 1_554 S
C16 C17 1.321 . S
C17 C16 1.321 . S
C17 C18 1.403 . S
C17 H38 0.934 . S
C18 C13 1.413 . S
C18 C17 1.403 . S
C18 H39 0.930 . S
C19 O30 1.275 . S
C19 O31 1.256 . S
O20 Ho0 2.322 . S
O20 C2 1.259 . S
O21 Ho1 2.346 . S
O21 C2 1.268 . S
O22 Ho0 2.378 . S
O22 C3 1.215 . S
O23 Ho0 2.524 . S
O23 C3 1.289 . S
O24 Ho0 2.381 . S
O24 C10 1.275 . S
O25 Ho0 2.669 . S
O25 Ho1 2.305 . S
O25 C10 1.256 . S
O26 Ho1 2.322 1_554 S
O26 C11 1.259 . S
O27 Ho0 2.346 . S
O27 C11 1.268 1_556 S
O28 Ho1 2.378 1_554 S
O28 C12 1.215 . S
O29 Ho1 2.524 . S
O29 C12 1.289 1_556 S
O30 Ho1 2.381 1_554 S
O30 C19 1.275 . S
O31 Ho0 2.305 1_554 S
O31 Ho1 2.669 1_554 S
O31 C19 1.256 . S
H32 C5 0.930 . S
H33 C6 0.931 . S
H34 C8 0.934 . S
H35 C9 0.930 . S
H36 C14 0.930 . S
H37 C15 0.931 . S
H38 C17 0.934 . S
H39 C18 0.930 . S
Ho40 C43 2.811 . S
Ho40 O60 2.322 . S
Ho40 O62 2.378 . S
Ho40 O63 2.524 . S
Ho40 O64 2.381 1_554 S
Ho40 O65 2.669 1_554 S
Ho40 O67 2.346 . S
Ho40 O71 2.305 . S
Ho41 C52 2.811 1_554 S
Ho41 O61 2.346 . S
Ho41 O65 2.305 1_554 S
Ho41 O66 2.322 . S
Ho41 O68 2.378 . S
Ho41 O69 2.524 1_554 S
Ho41 O70 2.381 . S
Ho41 O71 2.669 . S
C42 O60 1.259 . S
C42 O61 1.268 . S
C43 Ho40 2.811 . S
C43 C44 1.488 . S
C43 O62 1.215 . S
C43 O63 1.289 . S
C44 C43 1.488 . S
C44 C45 1.348 . S
C44 C49 1.413 . S
C45 C44 1.348 . S
C45 C46 1.442 . S
C45 H72 0.930 . S
C46 C45 1.442 . S
C46 C47 1.381 1_655 S
C46 H73 0.931 . S
C47 C46 1.381 1_455 S
C47 C48 1.320 1_455 S
C48 C47 1.320 1_655 S
C48 C49 1.410 . S
C48 H74 0.929 1_655 S
C49 C44 1.413 . S
C49 C48 1.410 . S
C49 H75 0.930 . S
C50 O64 1.275 . S
C50 O65 1.256 . S
C51 O66 1.259 . S
C51 O67 1.268 . S
C52 Ho41 2.811 1_556 S
C52 C53 1.488 . S
C52 O68 1.215 1_556 S
C52 O69 1.289 . S
C53 C52 1.488 . S
C53 C54 1.348 . S
C53 C58 1.413 . S
C54 C53 1.348 . S
C54 C55 1.442 . S
C54 H76 0.930 . S
C55 C54 1.442 . S
C55 C56 1.381 . S
C55 H77 0.931 . S
C56 C55 1.381 . S
C56 C57 1.321 . S
C57 C56 1.321 . S
C57 C58 1.403 . S
C57 H78 0.931 1_556 S
C58 C53 1.413 . S
C58 C57 1.403 . S
C58 H79 0.930 1_556 S
C59 O70 1.275 . S
C59 O71 1.256 . S
O60 Ho40 2.322 . S
O60 C42 1.259 . S
O61 Ho41 2.346 . S
O61 C42 1.268 . S
O62 Ho40 2.378 . S
O62 C43 1.215 . S
O63 Ho40 2.524 . S
O63 C43 1.289 . S
O64 Ho40 2.381 1_556 S
O64 C50 1.275 . S
O65 Ho40 2.669 1_556 S
O65 Ho41 2.305 1_556 S
O65 C50 1.256 . S
O66 Ho41 2.322 . S
O66 C51 1.259 . S
O67 Ho40 2.346 . S
O67 C51 1.268 . S
O68 Ho41 2.378 . S
O68 C52 1.215 1_554 S
O69 Ho41 2.524 1_556 S
O69 C52 1.289 . S
O70 Ho41 2.381 . S
O70 C59 1.275 . S
O71 Ho40 2.305 . S
O71 Ho41 2.669 . S
O71 C59 1.256 . S
H72 C45 0.930 . S
H73 C46 0.931 . S
H74 C48 0.929 1_455 S
H75 C49 0.930 . S
H76 C54 0.930 . S
H77 C55 0.931 . S
H78 C57 0.931 1_554 S
H79 C58 0.930 1_554 S
Ho80 C83 2.811 . S
Ho80 O100 2.322 1_556 S
Ho80 O102 2.378 1_556 S
Ho80 O103 2.524 . S
Ho80 O104 2.381 1_556 S
Ho80 O105 2.669 1_556 S
Ho80 O107 2.346 1_556 S
Ho80 O111 2.305 . S
Ho81 C92 2.811 . S
Ho81 O101 2.346 1_554 S
Ho81 O105 2.305 . S
Ho81 O106 2.322 1_554 S
Ho81 O108 2.378 1_554 S
Ho81 O109 2.524 . S
Ho81 O110 2.381 1_554 S
Ho81 O111 2.669 1_554 S
C82 O100 1.259 1_556 S
C82 O101 1.268 . S
C83 Ho80 2.811 . S
C83 C84 1.488 . S
C83 O102 1.215 1_556 S
C83 O103 1.289 . S
C84 C83 1.488 . S
C84 C85 1.348 . S
C84 C89 1.413 . S
C85 C84 1.348 . S
C85 C86 1.442 . S
C85 H112 0.930 . S
C86 C85 1.442 . S
C86 C87 1.381 . S
C86 H113 0.931 . S
C87 C86 1.381 . S
C87 C88 1.321 . S
C88 C87 1.321 . S
C88 C89 1.403 . S
C88 H114 0.934 . S
C89 C84 1.413 . S
C89 C88 1.403 . S
C89 H115 0.930 1_556 S
C90 O104 1.275 . S
C90 O105 1.256 . S
C91 O106 1.259 1_554 S
C91 O107 1.268 . S
C92 Ho81 2.811 . S
C92 C93 1.488 . S
C92 O108 1.215 1_554 S
C92 O109 1.289 . S
C93 C92 1.488 . S
C93 C94 1.348 . S
C93 C98 1.413 . S
C94 C93 1.348 . S
C94 C95 1.442 . S
C94 H116 0.930 . S
C95 C94 1.442 . S
C95 C96 1.381 . S
C95 H117 0.931 . S
C96 C95 1.381 . S
C96 C97 1.321 . S
C97 C96 1.321 . S
C97 C98 1.403 . S
C97 H118 0.934 . S
C98 C93 1.413 . S
C98 C97 1.403 . S
C98 H119 0.930 1_554 S
C99 O110 1.275 . S
C99 O111 1.256 . S
O100 Ho80 2.322 1_554 S
O100 C82 1.259 1_554 S
O101 Ho81 2.346 1_556 S
O101 C82 1.268 . S
O102 Ho80 2.378 1_554 S
O102 C83 1.215 1_554 S
O103 Ho80 2.524 . S
O103 C83 1.289 . S
O104 Ho80 2.381 1_554 S
O104 C90 1.275 . S
O105 Ho80 2.669 1_554 S
O105 Ho81 2.305 . S
O105 C90 1.256 . S
O106 Ho81 2.322 1_556 S
O106 C91 1.259 1_556 S
O107 Ho80 2.346 1_554 S
O107 C91 1.268 . S
O108 Ho81 2.378 1_556 S
O108 C92 1.215 1_556 S
O109 Ho81 2.524 . S
O109 C92 1.289 . S
O110 Ho81 2.381 1_556 S
O110 C99 1.275 . S
O111 Ho80 2.305 . S
O111 Ho81 2.669 1_556 S
O111 C99 1.256 . S
H112 C85 0.930 . S
H113 C86 0.931 . S
H114 C88 0.934 . S
H115 C89 0.930 1_554 S
H116 C94 0.930 . S
H117 C95 0.931 . S
H118 C97 0.934 . S
H119 C98 0.930 1_556 S
Ho120 C123 2.811 . S
Ho120 O140 2.322 . S
Ho120 O142 2.378 1_554 S
Ho120 O143 2.524 . S
Ho120 O144 2.381 1_554 S
Ho120 O145 2.669 1_554 S
Ho120 O147 2.346 1_554 S
Ho120 O151 2.305 . S
Ho121 C132 2.811 . S
Ho121 O141 2.346 1_556 S
Ho121 O145 2.305 . S
Ho121 O146 2.322 . S
Ho121 O148 2.378 1_556 S
Ho121 O149 2.524 . S
Ho121 O150 2.381 1_556 S
Ho121 O151 2.669 1_556 S
C122 O140 1.259 . S
C122 O141 1.268 . S
C123 Ho120 2.811 . S
C123 C124 1.488 . S
C123 O142 1.215 1_554 S
C123 O143 1.289 . S
C124 C123 1.488 . S
C124 C125 1.348 . S
C124 C129 1.413 . S
C125 C124 1.348 . S
C125 C126 1.442 . S
C125 H152 0.930 . S
C126 C125 1.442 . S
C126 C127 1.381 . S
C126 H153 0.931 . S
C127 C126 1.381 . S
C127 C128 1.321 . S
C128 C127 1.321 . S
C128 C129 1.403 . S
C128 H154 0.934 . S
C129 C124 1.413 . S
C129 C128 1.403 . S
C129 H155 0.930 1_554 S
C130 O144 1.275 . S
C130 O145 1.256 . S
C131 O146 1.259 . S
C131 O147 1.268 . S
C132 Ho121 2.811 . S
C132 C133 1.488 . S
C132 O148 1.215 1_556 S
C132 O149 1.289 . S
C133 C132 1.488 . S
C133 C134 1.348 . S
C133 C138 1.413 . S
C134 C133 1.348 . S
C134 C135 1.442 . S
C134 H156 0.930 . S
C135 C134 1.442 . S
C135 C136 1.381 . S
C135 H157 0.931 . S
C136 C135 1.381 . S
C136 C137 1.321 . S
C137 C136 1.321 . S
C137 C138 1.403 . S
C137 H158 0.934 . S
C138 C133 1.413 . S
C138 C137 1.403 . S
C138 H159 0.930 1_556 S
C139 O150 1.275 . S
C139 O151 1.256 . S
O140 Ho120 2.322 . S
O140 C122 1.259 . S
O141 Ho121 2.346 1_554 S
O141 C122 1.268 . S
O142 Ho120 2.378 1_556 S
O142 C123 1.215 1_556 S
O143 Ho120 2.524 . S
O143 C123 1.289 . S
O144 Ho120 2.381 1_556 S
O144 C130 1.275 . S
O145 Ho120 2.669 1_556 S
O145 Ho121 2.305 . S
O145 C130 1.256 . S
O146 Ho121 2.322 . S
O146 C131 1.259 . S
O147 Ho120 2.346 1_556 S
O147 C131 1.268 . S
O148 Ho121 2.378 1_554 S
O148 C132 1.215 1_554 S
O149 Ho121 2.524 . S
O149 C132 1.289 . S
O150 Ho121 2.381 1_554 S
O150 C139 1.275 . S
O151 Ho120 2.305 . S
O151 Ho121 2.669 1_554 S
O151 C139 1.256 . S
H152 C125 0.930 . S
H153 C126 0.931 . S
H154 C128 0.934 . S
H155 C129 0.930 1_556 S
H156 C134 0.930 . S
H157 C135 0.931 . S
H158 C137 0.934 . S
H159 C138 0.930 1_554 S
Ho160 C163 2.811 . S
Ho160 O180 2.322 . S
Ho160 O182 2.378 . S
Ho160 O183 2.524 1_556 S
Ho160 O184 2.381 . S
Ho160 O185 2.669 . S
Ho160 O187 2.346 . S
Ho160 O191 2.305 1_556 S
Ho161 C172 2.811 . S
Ho161 O181 2.346 . S
Ho161 O185 2.305 1_554 S
Ho161 O186 2.322 . S
Ho161 O188 2.378 . S
Ho161 O189 2.524 1_554 S
Ho161 O190 2.381 . S
Ho161 O191 2.669 . S
C162 O180 1.259 . S
C162 O181 1.268 1_556 S
C163 Ho160 2.811 . S
C163 C164 1.488 . S
C163 O182 1.215 . S
C163 O183 1.289 1_556 S
C164 C163 1.488 . S
C164 C165 1.348 . S
C164 C169 1.413 . S
C165 C164 1.348 . S
C165 C166 1.442 . S
C165 H192 0.930 1_556 S
C166 C165 1.442 . S
C166 C167 1.381 . S
C166 H193 0.931 1_556 S
C167 C166 1.381 . S
C167 C168 1.321 . S
C168 C167 1.321 . S
C168 C169 1.403 . S
C168 H194 0.934 . S
C169 C164 1.413 . S
C169 C168 1.403 . S
C169 H195 0.930 . S
C170 O184 1.275 . S
C170 O185 1.256 . S
C171 O186 1.259 . S
C171 O187 1.268 1_554 S
C172 Ho161 2.811 . S
C172 C173 1.488 . S
C172 O188 1.215 . S
C172 O189 1.289 1_554 S
C173 C172 1.488 . S
C173 C174 1.348 . S
C173 C178 1.413 . S
C174 C173 1.348 . S
C174 C175 1.442 . S
C174 H196 0.930 1_554 S
C175 C174 1.442 . S
C175 C176 1.381 . S
C175 H197 0.931 1_554 S
C176 C175 1.381 . S
C176 C177 1.321 . S
C177 C176 1.321 . S
C177 C178 1.403 . S
C177 H198 0.934 . S
C178 C173 1.413 . S
C178 C177 1.403 . S
C178 H199 0.930 . S
C179 O190 1.275 . S
C179 O191 1.256 . S
O180 Ho160 2.322 . S
O180 C162 1.259 . S
O181 Ho161 2.346 . S
O181 C162 1.268 1_554 S
O182 Ho160 2.378 . S
O182 C163 1.215 . S
O183 Ho160 2.524 1_554 S
O183 C163 1.289 1_554 S
O184 Ho160 2.381 . S
O184 C170 1.275 . S
O185 Ho160 2.669 . S
O185 Ho161 2.305 1_556 S
O185 C170 1.256 . S
O186 Ho161 2.322 . S
O186 C171 1.259 . S
O187 Ho160 2.346 . S
O187 C171 1.268 1_556 S
O188 Ho161 2.378 . S
O188 C172 1.215 . S
O189 Ho161 2.524 1_556 S
O189 C172 1.289 1_556 S
O190 Ho161 2.381 . S
O190 C179 1.275 . S
O191 Ho160 2.305 1_554 S
O191 Ho161 2.669 . S
O191 C179 1.256 . S
H192 C165 0.930 1_554 S
H193 C166 0.931 1_554 S
H194 C168 0.934 . S
H195 C169 0.930 . S
H196 C174 0.930 1_556 S
H197 C175 0.931 1_556 S
H198 C177 0.934 . S
H199 C178 0.930 . S
Ho200 C203 2.811 1_556 S
Ho200 O220 2.322 . S
Ho200 O222 2.378 . S
Ho200 O223 2.524 1_556 S
Ho200 O224 2.381 . S
Ho200 O225 2.669 . S
Ho200 O227 2.346 . S
Ho200 O231 2.305 1_556 S
Ho201 C212 2.811 1_554 S
Ho201 O221 2.346 . S
Ho201 O225 2.305 1_554 S
Ho201 O226 2.322 . S
Ho201 O228 2.378 . S
Ho201 O229 2.524 1_554 S
Ho201 O230 2.381 . S
Ho201 O231 2.669 . S
C202 O220 1.259 1_554 S
C202 O221 1.268 . S
C203 Ho200 2.811 1_554 S
C203 C204 1.488 1_545 S
C203 O222 1.215 1_554 S
C203 O223 1.289 . S
C204 C203 1.488 1_565 S
C204 C205 1.343 1_565 S
C204 C209 1.417 1_554 S
C205 C204 1.343 1_545 S
C205 C206 1.442 1_545 S
C205 H232 0.930 . S
C206 C205 1.442 1_565 S
C206 C207 1.381 . S
C206 H233 0.931 . S
C207 C206 1.381 . S
C207 C208 1.321 1_554 S
C208 C207 1.321 1_556 S
C208 C209 1.403 . S
C208 H234 0.934 . S
C209 C204 1.417 1_556 S
C209 C208 1.403 . S
C209 H235 0.930 . S
C210 O224 1.275 . S
C210 O225 1.256 . S
C211 O226 1.259 1_556 S
C211 O227 1.268 . S
C212 Ho201 2.811 1_556 S
C212 C213 1.488 . S
C212 O228 1.215 1_556 S
C212 O229 1.289 . S
C213 C212 1.488 . S
C213 C214 1.348 . S
C213 C218 1.413 1_556 S
C214 C213 1.348 . S
C214 C215 1.442 . S
C214 H236 0.930 . S
C215 C214 1.442 . S
C215 C216 1.381 . S
C215 H237 0.931 . S
C216 C215 1.381 . S
C216 C217 1.321 1_556 S
C217 C216 1.321 1_554 S
C217 C218 1.403 . S
C217 H238 0.934 . S
C218 C213 1.413 1_554 S
C218 C217 1.403 . S
C218 H239 0.930 . S
C219 O230 1.275 . S
C219 O231 1.256 . S
O220 Ho200 2.322 . S
O220 C202 1.259 1_556 S
O221 Ho201 2.346 . S
O221 C202 1.268 . S
O222 Ho200 2.378 . S
O222 C203 1.215 1_556 S
O223 Ho200 2.524 1_554 S
O223 C203 1.289 . S
O224 Ho200 2.381 . S
O224 C210 1.275 . S
O225 Ho200 2.669 . S
O225 Ho201 2.305 1_556 S
O225 C210 1.256 . S
O226 Ho201 2.322 . S
O226 C211 1.259 1_554 S
O227 Ho200 2.346 . S
O227 C211 1.268 . S
O228 Ho201 2.378 . S
O228 C212 1.215 1_554 S
O229 Ho201 2.524 1_556 S
O229 C212 1.289 . S
O230 Ho201 2.381 . S
O230 C219 1.275 . S
O231 Ho200 2.305 1_554 S
O231 Ho201 2.669 . S
O231 C219 1.256 . S
H232 C205 0.930 . S
H233 C206 0.931 . S
H234 C208 0.934 . S
H235 C209 0.930 . S
H236 C214 0.930 . S
H237 C215 0.931 . S
H238 C217 0.934 . S
H239 C218 0.930 . S
H240 C246 0.930 . S
H241 C249 0.930 . S
H242 C250 0.930 . S
H243 C251 0.930 . S
H244 C254 0.930 . S
H245 C255 0.930 . S
C246 H240 0.930 . S
C246 C247 1.355 . S
C246 C248 1.415 . S
C247 C246 1.355 . S
C247 C249 1.419 . S
C248 C246 1.415 . S
C248 C253 1.425 . S
C248 C255 1.409 . S
C249 H241 0.930 . S
C249 C247 1.419 . S
C249 C250 1.362 . S
C250 H242 0.930 . S
C250 C249 1.362 . S
C250 C253 1.409 . S
C251 H243 0.930 . S
C251 C252 1.355 . S
C251 C253 1.415 . S
C252 C251 1.355 . S
C252 C254 1.419 . S
C253 C248 1.425 . S
C253 C250 1.409 . S
C253 C251 1.415 . S
C254 H244 0.930 . S
C254 C252 1.419 . S
C254 C255 1.362 . S
C255 H245 0.930 . S
C255 C248 1.409 . S
C255 C254 1.362 . S
H256 C262 0.930 . S
H257 C265 0.930 . S
H258 C266 0.930 . S
H259 C267 0.930 . S
H260 C270 0.930 . S
H261 C271 0.930 . S
C262 H256 0.930 . S
C262 C263 1.355 . S
C262 C264 1.415 . S
C263 C262 1.355 . S
C263 C265 1.419 . S
C264 C262 1.415 . S
C264 C269 1.425 . S
C264 C271 1.409 . S
C265 H257 0.930 . S
C265 C263 1.419 . S
C265 C266 1.362 . S
C266 H258 0.930 . S
C266 C265 1.362 . S
C266 C269 1.409 . S
C267 H259 0.930 . S
C267 C268 1.355 . S
C267 C269 1.415 . S
C268 C267 1.355 . S
C268 C270 1.419 . S
C269 C264 1.425 . S
C269 C266 1.409 . S
C269 C267 1.415 . S
C270 H260 0.930 . S
C270 C268 1.419 . S
C270 C271 1.362 . S
C271 H261 0.930 . S
C271 C264 1.409 . S
C271 C270 1.362 . S
H272 C278 0.919 . S
H273 C281 0.930 . S
H274 C282 0.930 . S
H275 C283 0.930 . S
H276 C286 0.930 . S
H277 C287 0.930 . S
C278 H272 0.919 . S
C278 C279 1.349 1_565 S
C278 C280 1.432 . S
C279 C278 1.349 1_545 S
C279 C281 1.419 . S
C280 C278 1.432 . S
C280 C285 1.425 1_565 S
C280 C287 1.409 . S
C281 H273 0.930 . S
C281 C279 1.419 . S
C281 C282 1.362 . S
C282 H274 0.930 . S
C282 C281 1.362 . S
C282 C285 1.409 . S
C283 H275 0.930 . S
C283 C284 1.355 1_545 S
C283 C285 1.415 . S
C284 C283 1.355 1_565 S
C284 C286 1.419 . S
C285 C280 1.425 1_545 S
C285 C282 1.409 . S
C285 C283 1.415 . S
C286 H276 0.930 . S
C286 C284 1.419 . S
C286 C287 1.362 . S
C287 H277 0.930 . S
C287 C280 1.409 . S
C287 C286 1.362 . S
H288 C294 0.930 . S
H289 C297 0.930 . S
H290 C298 0.930 . S
H291 C299 0.930 . S
H292 C302 0.930 . S
H293 C303 0.930 . S
C294 H288 0.930 . S
C294 C295 1.355 . S
C294 C296 1.415 . S
C295 C294 1.355 . S
C295 C297 1.419 . S
C296 C294 1.415 . S
C296 C301 1.425 . S
C296 C303 1.409 . S
C297 H289 0.930 . S
C297 C295 1.419 . S
C297 C298 1.362 . S
C298 H290 0.930 . S
C298 C297 1.362 . S
C298 C301 1.409 . S
C299 H291 0.930 . S
C299 C300 1.355 . S
C299 C301 1.415 . S
C300 C299 1.355 . S
C300 C302 1.419 . S
C301 C296 1.425 . S
C301 C298 1.409 . S
C301 C299 1.415 . S
C302 H292 0.930 . S
C302 C300 1.419 . S
C302 C303 1.362 . S
C303 H293 0.930 . S
C303 C296 1.409 . S
C303 C302 1.362 . S
H304 C310 0.930 1_455 S
H305 C313 0.930 . S
H306 C314 0.930 . S
H307 C315 0.930 . S
H308 C318 0.930 . S
H309 C319 0.930 . S
C310 H304 0.930 1_655 S
C310 C311 1.355 1_655 S
C310 C312 1.415 . S
C311 C310 1.355 1_455 S
C311 C313 1.419 . S
C312 C310 1.415 . S
C312 C317 1.425 . S
C312 C319 1.409 . S
C313 H305 0.930 . S
C313 C311 1.419 . S
C313 C314 1.362 1_455 S
C314 H306 0.930 . S
C314 C313 1.362 1_655 S
C314 C317 1.409 . S
C315 H307 0.930 . S
C315 C316 1.355 . S
C315 C317 1.415 . S
C316 C315 1.355 . S
C316 C318 1.419 . S
C317 C312 1.425 . S
C317 C314 1.409 . S
C317 C315 1.415 . S
C318 H308 0.930 . S
C318 C316 1.419 . S
C318 C319 1.362 . S
C319 H309 0.930 . S
C319 C312 1.409 . S
C319 C318 1.362 . S
H320 C326 0.930 . S
H321 C329 0.930 . S
H322 C330 0.930 . S
H323 C331 0.930 . S
H324 C334 0.930 . S
H325 C335 0.930 . S
C326 H320 0.930 . S
C326 C327 1.355 . S
C326 C328 1.415 . S
C327 C326 1.355 . S
C327 C329 1.419 . S
C328 C326 1.415 . S
C328 C333 1.425 . S
C328 C335 1.409 . S
C329 H321 0.930 . S
C329 C327 1.419 . S
C329 C330 1.362 . S
C330 H322 0.930 . S
C330 C329 1.362 . S
C330 C333 1.409 . S
C331 H323 0.930 . S
C331 C332 1.355 . S
C331 C333 1.415 . S
C332 C331 1.355 . S
C332 C334 1.419 . S
C333 C328 1.425 . S
C333 C330 1.409 . S
C333 C331 1.415 . S
C334 H324 0.930 . S
C334 C332 1.419 . S
C334 C335 1.362 . S
C335 H325 0.930 . S
C335 C328 1.409 . S
C335 C334 1.362 . S
H336 C342 0.930 . S
H337 C345 0.930 . S
H338 C346 0.930 . S
H339 C347 0.930 . S
H340 C350 0.930 . S
H341 C351 0.930 . S
C342 H336 0.930 . S
C342 C343 1.355 . S
C342 C344 1.415 . S
C343 C342 1.355 . S
C343 C345 1.419 . S
C344 C342 1.415 . S
C344 C349 1.425 . S
C344 C351 1.409 . S
C345 H337 0.930 . S
C345 C343 1.419 . S
C345 C346 1.362 . S
C346 H338 0.930 . S
C346 C345 1.362 . S
C346 C349 1.409 . S
C347 H339 0.930 . S
C347 C348 1.355 . S
C347 C349 1.415 . S
C348 C347 1.355 . S
C348 C350 1.419 . S
C349 C344 1.425 . S
C349 C346 1.409 . S
C349 C347 1.415 . S
C350 H340 0.930 . S
C350 C348 1.419 . S
C350 C351 1.362 . S
C351 H341 0.930 . S
C351 C344 1.409 . S
C351 C350 1.362 . S
H352 C358 0.930 1_554 S
H353 C361 0.930 . S
H354 C362 0.930 . S
H355 C363 0.930 . S
H356 C366 0.930 . S
H357 C367 0.930 1_554 S
C358 H352 0.930 1_556 S
C358 C359 1.355 . S
C358 C360 1.415 . S
C359 C358 1.355 . S
C359 C361 1.419 . S
C360 C358 1.415 . S
C360 C365 1.425 . S
C360 C367 1.409 . S
C361 H353 0.930 . S
C361 C359 1.419 . S
C361 C362 1.362 . S
C362 H354 0.930 . S
C362 C361 1.362 . S
C362 C365 1.409 . S
C363 H355 0.930 . S
C363 C364 1.355 . S
C363 C365 1.415 . S
C364 C363 1.355 . S
C364 C366 1.419 . S
C365 C360 1.425 . S
C365 C362 1.409 . S
C365 C363 1.415 . S
C366 H356 0.930 . S
C366 C364 1.419 . S
C366 C367 1.362 . S
C367 H357 0.930 1_556 S
C367 C360 1.409 . S
C367 C366 1.362 . S
H368 C374 0.930 . S
H369 C377 0.930 . S
H370 C378 0.930 . S
H371 C379 0.930 . S
H372 C382 0.930 . S
H373 C383 0.930 . S
C374 H368 0.930 . S
C374 C375 1.355 . S
C374 C376 1.415 . S
C375 C374 1.355 . S
C375 C377 1.419 1_554 S
C376 C374 1.415 . S
C376 C381 1.425 1_554 S
C376 C383 1.409 . S
C377 H369 0.930 . S
C377 C375 1.419 1_556 S
C377 C378 1.362 . S
C378 H370 0.930 . S
C378 C377 1.362 . S
C378 C381 1.409 . S
C379 H371 0.930 . S
C379 C380 1.355 1_556 S
C379 C381 1.415 . S
C380 C379 1.355 1_554 S
C380 C382 1.419 . S
C381 C376 1.425 1_556 S
C381 C378 1.409 . S
C381 C379 1.415 . S
C382 H372 0.930 . S
C382 C380 1.419 . S
C382 C383 1.362 . S
C383 H373 0.930 . S
C383 C376 1.409 . S
C383 C382 1.362 . S
H384 C390 0.930 . S
H385 C393 0.930 . S
H386 C394 0.930 . S
H387 C395 0.930 . S
H388 C398 0.930 . S
H389 C399 0.930 . S
C390 H384 0.930 . S
C390 C391 1.355 . S
C390 C392 1.415 . S
C391 C390 1.355 . S
C391 C393 1.419 . S
C392 C390 1.415 . S
C392 C397 1.425 . S
C392 C399 1.409 . S
C393 H385 0.930 . S
C393 C391 1.419 . S
C393 C394 1.362 . S
C394 H386 0.930 . S
C394 C393 1.362 . S
C394 C397 1.409 . S
C395 H387 0.930 . S
C395 C396 1.355 . S
C395 C397 1.415 . S
C396 C395 1.355 . S
C396 C398 1.419 . S
C397 C392 1.425 . S
C397 C394 1.409 . S
C397 C395 1.415 . S
C398 H388 0.930 . S
C398 C396 1.419 . S
C398 C399 1.362 . S
C399 H389 0.930 . S
C399 C392 1.409 . S
C399 C398 1.362 . S
H400 C406 0.930 . S
H401 C409 0.930 . S
H402 C410 0.930 . S
H403 C411 0.930 . S
H404 C414 0.930 . S
H405 C415 0.930 . S
C406 H400 0.930 . S
C406 C407 1.355 . S
C406 C408 1.415 . S
C407 C406 1.355 . S
C407 C409 1.419 . S
C408 C406 1.415 . S
C408 C413 1.425 . S
C408 C415 1.409 . S
C409 H401 0.930 . S
C409 C407 1.419 . S
C409 C410 1.362 . S
C410 H402 0.930 . S
C410 C409 1.362 . S
C410 C413 1.409 . S
C411 H403 0.930 . S
C411 C412 1.355 . S
C411 C413 1.415 . S
C412 C411 1.355 . S
C412 C414 1.419 . S
C413 C408 1.425 . S
C413 C410 1.409 . S
C413 C411 1.415 . S
C414 H404 0.930 . S
C414 C412 1.419 . S
C414 C415 1.362 . S
C415 H405 0.930 . S
C415 C408 1.409 . S
C415 C414 1.362 . S
H416 C422 0.930 1_554 S
H417 C425 0.930 . S
H418 C426 0.930 . S
H419 C427 0.930 . S
H420 C430 0.930 1_554 S
H421 C431 0.930 . S
C422 H416 0.930 1_556 S
C422 C423 1.355 . S
C422 C424 1.415 . S
C423 C422 1.355 . S
C423 C425 1.419 . S
C424 C422 1.415 . S
C424 C429 1.425 . S
C424 C431 1.409 1_556 S
C425 H417 0.930 . S
C425 C423 1.419 . S
C425 C426 1.362 . S
C426 H418 0.930 . S
C426 C425 1.362 . S
C426 C429 1.409 . S
C427 H419 0.930 . S
C427 C428 1.355 . S
C427 C429 1.415 . S
C428 C427 1.355 . S
C428 C430 1.419 . S
C429 C424 1.425 . S
C429 C426 1.409 . S
C429 C427 1.415 . S
C430 H420 0.930 1_556 S
C430 C428 1.419 . S
C430 C431 1.362 1_556 S
C431 H421 0.930 . S
C431 C424 1.409 1_554 S
C431 C430 1.362 1_554 S
H432 C438 0.930 . S
H433 C441 0.930 . S
H434 C442 0.930 . S
H435 C443 0.930 . S
H436 C446 0.930 . S
H437 C447 0.930 . S
C438 H432 0.930 . S
C438 C439 1.355 . S
C438 C440 1.415 . S
C439 C438 1.355 . S
C439 C441 1.419 . S
C440 C438 1.415 . S
C440 C445 1.425 . S
C440 C447 1.409 . S
C441 H433 0.930 . S
C441 C439 1.419 . S
C441 C442 1.362 . S
C442 H434 0.930 . S
C442 C441 1.362 . S
C442 C445 1.409 . S
C443 H435 0.930 . S
C443 C444 1.355 . S
C443 C445 1.415 . S
C444 C443 1.355 . S
C444 C446 1.419 . S
C445 C440 1.425 . S
C445 C442 1.409 . S
C445 C443 1.415 . S
C446 H436 0.930 . S
C446 C444 1.419 . S
C446 C447 1.362 . S
C447 H437 0.930 . S
C447 C440 1.409 . S
C447 C446 1.362 . S
H448 C454 0.930 . S
H449 C457 0.930 . S
H450 C458 0.930 . S
H451 C459 0.930 . S
H452 C462 0.930 . S
H453 C463 0.930 . S
C454 H448 0.930 . S
C454 C455 1.355 . S
C454 C456 1.415 . S
C455 C454 1.355 . S
C455 C457 1.419 . S
C456 C454 1.415 . S
C456 C461 1.425 . S
C456 C463 1.409 . S
C457 H449 0.930 . S
C457 C455 1.419 . S
C457 C458 1.362 . S
C458 H450 0.930 . S
C458 C457 1.362 . S
C458 C461 1.409 . S
C459 H451 0.930 . S
C459 C460 1.355 . S
C459 C461 1.415 . S
C460 C459 1.355 . S
C460 C462 1.419 . S
C461 C456 1.425 . S
C461 C458 1.409 . S
C461 C459 1.415 . S
C462 H452 0.930 . S
C462 C460 1.419 . S
C462 C463 1.362 . S
C463 H453 0.930 . S
C463 C456 1.409 . S
C463 C462 1.362 . S
H464 C470 0.930 . S
H465 C473 0.930 . S
H466 C474 0.930 . S
H467 C475 0.930 . S
H468 C478 0.930 . S
H469 C479 0.930 . S
C470 H464 0.930 . S
C470 C471 1.355 . S
C470 C472 1.415 . S
C471 C470 1.355 . S
C471 C473 1.419 . S
C472 C470 1.415 . S
C472 C477 1.425 . S
C472 C479 1.409 . S
C473 H465 0.930 . S
C473 C471 1.419 . S
C473 C474 1.362 . S
C474 H466 0.930 . S
C474 C473 1.362 . S
C474 C477 1.409 . S
C475 H467 0.930 . S
C475 C476 1.355 . S
C475 C477 1.415 . S
C476 C475 1.355 . S
C476 C478 1.419 . S
C477 C472 1.425 . S
C477 C474 1.409 . S
C477 C475 1.415 . S
C478 H468 0.930 . S
C478 C476 1.419 . S
C478 C479 1.362 . S
C479 H469 0.930 . S
C479 C472 1.409 . S
C479 C478 1.362 . S
H480 C486 0.930 . S
H481 C489 0.930 . S
H482 C490 0.930 . S
H483 C491 0.930 . S
H484 C494 0.930 . S
H485 C495 0.930 . S
C486 H480 0.930 . S
C486 C487 1.355 . S
C486 C488 1.415 . S
C487 C486 1.355 . S
C487 C489 1.419 . S
C488 C486 1.415 . S
C488 C493 1.425 . S
C488 C495 1.409 . S
C489 H481 0.930 . S
C489 C487 1.419 . S
C489 C490 1.362 . S
C490 H482 0.930 . S
C490 C489 1.362 . S
C490 C493 1.409 . S
C491 H483 0.930 . S
C491 C492 1.355 . S
C491 C493 1.415 . S
C492 C491 1.355 . S
C492 C494 1.419 . S
C493 C488 1.425 . S
C493 C490 1.409 . S
C493 C491 1.415 . S
C494 H484 0.930 . S
C494 C492 1.419 . S
C494 C495 1.362 . S
C495 H485 0.930 . S
C495 C488 1.409 . S
C495 C494 1.362 . S
H496 C502 0.930 . S
H497 C505 0.930 . S
H498 C506 0.930 . S
H499 C507 0.930 . S
H500 C510 0.930 . S
H501 C511 0.930 . S
C502 H496 0.930 . S
C502 C503 1.355 . S
C502 C504 1.415 . S
C503 C502 1.355 . S
C503 C505 1.419 . S
C504 C502 1.415 . S
C504 C509 1.425 . S
C504 C511 1.409 . S
C505 H497 0.930 . S
C505 C503 1.419 . S
C505 C506 1.362 . S
C506 H498 0.930 . S
C506 C505 1.362 . S
C506 C509 1.409 . S
C507 H499 0.930 . S
C507 C508 1.355 . S
C507 C509 1.415 . S
C508 C507 1.355 . S
C508 C510 1.419 . S
C509 C504 1.425 . S
C509 C506 1.409 . S
C509 C507 1.415 . S
C510 H500 0.930 . S
C510 C508 1.419 . S
C510 C511 1.362 . S
C511 H501 0.930 . S
C511 C504 1.409 . S
C511 C510 1.362 . S
H512 C518 0.930 . S
H513 C521 0.930 . S
H514 C522 0.930 . S
H515 C523 0.930 . S
H516 C526 0.930 . S
H517 C527 0.930 . S
C518 H512 0.930 . S
C518 C519 1.355 . S
C518 C520 1.415 . S
C519 C518 1.355 . S
C519 C521 1.419 . S
C520 C518 1.415 . S
C520 C525 1.425 . S
C520 C527 1.409 . S
C521 H513 0.930 . S
C521 C519 1.419 . S
C521 C522 1.362 . S
C522 H514 0.930 . S
C522 C521 1.362 . S
C522 C525 1.409 . S
C523 H515 0.930 . S
C523 C524 1.355 . S
C523 C525 1.415 . S
C524 C523 1.355 . S
C524 C526 1.419 . S
C525 C520 1.425 . S
C525 C522 1.409 . S
C525 C523 1.415 . S
C526 H516 0.930 . S
C526 C524 1.419 . S
C526 C527 1.362 . S
C527 H517 0.930 . S
C527 C520 1.409 . S
C527 C526 1.362 . S
C247 C202 3.680 . S
C252 C7 3.599 . S
C263 C2 3.643 . S
C268 C47 3.364 . S
C279 C42 3.126 . S
C284 C82 3.077 . S
C295 C127 2.371 . S
C300 C87 2.199 . S
C311 C167 2.888 . S
C316 C122 3.378 . S
C327 C162 2.761 . S
C332 C207 2.641 . S
C343 C171 2.504 . S
C348 C16 2.409 . S
C359 C211 3.175 . S
C364 C56 3.141 . S
C375 C91 3.673 . S
C380 C11 3.713 . S
C391 C136 1.924 . S
C396 C51 2.074 1_556 S
C407 C176 0.827 . S
C412 C96 0.802 . S
C423 C131 1.220 . S
C428 C216 1.199 . S
C439 C10 0.645 . S
C444 C19 0.645 . S
C455 C50 0.681 . S
C460 C59 0.681 . S
C471 C99 0.789 . S
C476 C90 0.789 . S
C487 C130 0.613 . S
C492 C139 0.613 . S
C503 C179 0.682 . S
C508 C170 0.682 . S
C519 C210 0.637 . S
C524 C219 0.637 . S
