# Generated by pormake.
# Topology whw, (6)-cn, num edge types: 1
# Building blocks:
#     Node 0, Type 0, BuildingBlock: FUNLAD_clean_sbu_0, # of connection points: 6
#     Node 1, Type 0, BuildingBlock: FUNLAD_clean_sbu_0, # of connection points: 6
#     Node 2, Type 0, BuildingBlock: FUNLAD_clean_sbu_0, # of connection points: 6
#     Node 3, Type 0, BuildingBlock: FUNLAD_clean_sbu_0, # of connection points: 6
#     Node 4, Type 0, BuildingBlock: FUNLAD_clean_sbu_0, # of connection points: 6
#     Node 5, Type 0, BuildingBlock: FUNLAD_clean_sbu_0, # of connection points: 6
#     Node 6, Type 0, BuildingBlock: FUNLAD_clean_sbu_0, # of connection points: 6
#     Node 7, Type 0, BuildingBlock: FUNLAD_clean_sbu_0, # of connection points: 6
#     Node 8, Type 0, BuildingBlock: FUNLAD_clean_sbu_0, # of connection points: 6
#     Node 9, Type 0, BuildingBlock: FUNLAD_clean_sbu_0, # of connection points: 6
#     Node 10, Type 0, BuildingBlock: FUNLAD_clean_sbu_0, # of connection points: 6
#     Node 11, Type 0, BuildingBlock: FUNLAD_clean_sbu_0, # of connection points: 6
#     Node 12, Type 0, BuildingBlock: FUNLAD_clean_sbu_0, # of connection points: 6
#     Node 13, Type 0, BuildingBlock: FUNLAD_clean_sbu_0, # of connection points: 6
#     Node 14, Type 0, BuildingBlock: FUNLAD_clean_sbu_0, # of connection points: 6
#     Node 15, Type 0, BuildingBlock: FUNLAD_clean_sbu_0, # of connection points: 6
#     Edge 16, Type (0, 0), BuildingBlock: KIFKEQ_clean_linker_1, # of connection points: 2
#     Edge 17, Type (0, 0), BuildingBlock: KIFKEQ_clean_linker_1, # of connection points: 2
#     Edge 18, Type (0, 0), BuildingBlock: KIFKEQ_clean_linker_1, # of connection points: 2
#     Edge 19, Type (0, 0), BuildingBlock: KIFKEQ_clean_linker_1, # of connection points: 2
#     Edge 20, Type (0, 0), BuildingBlock: KIFKEQ_clean_linker_1, # of connection points: 2
#     Edge 21, Type (0, 0), BuildingBlock: KIFKEQ_clean_linker_1, # of connection points: 2
#     Edge 22, Type (0, 0), BuildingBlock: KIFKEQ_clean_linker_1, # of connection points: 2
#     Edge 23, Type (0, 0), BuildingBlock: KIFKEQ_clean_linker_1, # of connection points: 2
#     Edge 24, Type (0, 0), BuildingBlock: KIFKEQ_clean_linker_1, # of connection points: 2
#     Edge 25, Type (0, 0), BuildingBlock: KIFKEQ_clean_linker_1, # of connection points: 2
#     Edge 26, Type (0, 0), BuildingBlock: KIFKEQ_clean_linker_1, # of connection points: 2
#     Edge 27, Type (0, 0), BuildingBlock: KIFKEQ_clean_linker_1, # of connection points: 2
#     Edge 28, Type (0, 0), BuildingBlock: KIFKEQ_clean_linker_1, # of connection points: 2
#     Edge 29, Type (0, 0), BuildingBlock: KIFKEQ_clean_linker_1, # of connection points: 2
#     Edge 30, Type (0, 0), BuildingBlock: KIFKEQ_clean_linker_1, # of connection points: 2
#     Edge 31, Type (0, 0), BuildingBlock: KIFKEQ_clean_linker_1, # of connection points: 2
#     Edge 32, Type (0, 0), BuildingBlock: KIFKEQ_clean_linker_1, # of connection points: 2
#     Edge 33, Type (0, 0), BuildingBlock: KIFKEQ_clean_linker_1, # of connection points: 2
#     Edge 34, Type (0, 0), BuildingBlock: KIFKEQ_clean_linker_1, # of connection points: 2
#     Edge 35, Type (0, 0), BuildingBlock: KIFKEQ_clean_linker_1, # of connection points: 2
#     Edge 36, Type (0, 0), BuildingBlock: KIFKEQ_clean_linker_1, # of connection points: 2
#     Edge 37, Type (0, 0), BuildingBlock: KIFKEQ_clean_linker_1, # of connection points: 2
#     Edge 38, Type (0, 0), BuildingBlock: KIFKEQ_clean_linker_1, # of connection points: 2
#     Edge 39, Type (0, 0), BuildingBlock: KIFKEQ_clean_linker_1, # of connection points: 2
#     Edge 40, Type (0, 0), BuildingBlock: KIFKEQ_clean_linker_1, # of connection points: 2
#     Edge 41, Type (0, 0), BuildingBlock: KIFKEQ_clean_linker_1, # of connection points: 2
#     Edge 42, Type (0, 0), BuildingBlock: KIFKEQ_clean_linker_1, # of connection points: 2
#     Edge 43, Type (0, 0), BuildingBlock: KIFKEQ_clean_linker_1, # of connection points: 2
#     Edge 44, Type (0, 0), BuildingBlock: KIFKEQ_clean_linker_1, # of connection points: 2
#     Edge 45, Type (0, 0), BuildingBlock: KIFKEQ_clean_linker_1, # of connection points: 2
#     Edge 46, Type (0, 0), BuildingBlock: KIFKEQ_clean_linker_1, # of connection points: 2
#     Edge 47, Type (0, 0), BuildingBlock: KIFKEQ_clean_linker_1, # of connection points: 2
#     Edge 48, Type (0, 0), BuildingBlock: KIFKEQ_clean_linker_1, # of connection points: 2
#     Edge 49, Type (0, 0), BuildingBlock: KIFKEQ_clean_linker_1, # of connection points: 2
#     Edge 50, Type (0, 0), BuildingBlock: KIFKEQ_clean_linker_1, # of connection points: 2
#     Edge 51, Type (0, 0), BuildingBlock: KIFKEQ_clean_linker_1, # of connection points: 2
#     Edge 52, Type (0, 0), BuildingBlock: KIFKEQ_clean_linker_1, # of connection points: 2
#     Edge 53, Type (0, 0), BuildingBlock: KIFKEQ_clean_linker_1, # of connection points: 2
#     Edge 54, Type (0, 0), BuildingBlock: KIFKEQ_clean_linker_1, # of connection points: 2
#     Edge 55, Type (0, 0), BuildingBlock: KIFKEQ_clean_linker_1, # of connection points: 2
#     Edge 56, Type (0, 0), BuildingBlock: KIFKEQ_clean_linker_1, # of connection points: 2
#     Edge 57, Type (0, 0), BuildingBlock: KIFKEQ_clean_linker_1, # of connection points: 2
#     Edge 58, Type (0, 0), BuildingBlock: KIFKEQ_clean_linker_1, # of connection points: 2
#     Edge 59, Type (0, 0), BuildingBlock: KIFKEQ_clean_linker_1, # of connection points: 2
#     Edge 60, Type (0, 0), BuildingBlock: KIFKEQ_clean_linker_1, # of connection points: 2
#     Edge 61, Type (0, 0), BuildingBlock: KIFKEQ_clean_linker_1, # of connection points: 2
#     Edge 62, Type (0, 0), BuildingBlock: KIFKEQ_clean_linker_1, # of connection points: 2
#     Edge 63, Type (0, 0), BuildingBlock: KIFKEQ_clean_linker_1, # of connection points: 2
# Relax obj value: 1.266
# Max RMSD: 0.246
# Mean RMSD: 0.246
data_MOF--net-whw--node1-FUNLAD_clean_sbu_0--edge1-KIFKEQ_clean_linker_1
_symmetry_space_group_name_H-M    P1
_symmetry_Int_Tables_number       1
_symmetry_cell_setting            triclinic
loop_
_symmetry_equiv_pos_as_xyz
'x, y, z'
_cell_length_a     70.349272
_cell_length_b     70.487926
_cell_length_c     21.005746
_cell_angle_alpha  89.986437
_cell_angle_beta   90.035522
_cell_angle_gamma 90.011349
loop_
_atom_site_label
_atom_site_type_symbol
_atom_site_fract_x
_atom_site_fract_y
_atom_site_fract_z
_atom_type_partial_charge
C0 C 0.09781 0.16582 0.06366 0.0
N1 N 0.11615 0.11275 0.14318 0.0
C2 C 0.09838 0.10547 0.13474 0.0
C3 C 0.09587 0.08622 0.11856 0.0
C4 C 0.11179 0.07427 0.11005 0.0
C5 C 0.12987 0.08224 0.12072 0.0
C6 C 0.13169 0.10136 0.13749 0.0
Zn7 Zn 0.12224 0.14177 0.15084 0.0
C8 C 0.15167 0.15245 0.05149 0.0
N9 N 0.14008 0.19953 0.15406 0.0
C10 C 0.14486 0.20876 0.09953 0.0
C11 C 0.14586 0.2061 0.21171 0.0
C12 C 0.15608 0.22292 0.21638 0.0
C13 C 0.15899 0.23424 0.16171 0.0
C14 C 0.15471 0.22591 0.10212 0.0
Zn15 Zn 0.13026 0.17243 0.1502 0.0
O16 O 0.10036 0.14877 0.08239 0.0
C17 C 0.09945 0.16447 0.24612 0.0
O18 O 0.10884 0.17885 0.08377 0.0
H19 H 0.14268 0.1982 0.25454 0.0
H20 H 0.08614 0.1147 0.13845 0.0
H21 H 0.14103 0.20282 0.05381 0.0
O22 O 0.10138 0.14727 0.2271 0.0
O23 O 0.11034 0.1772 0.22331 0.0
H24 H 0.14576 0.10732 0.14299 0.0
O25 O 0.15107 0.16621 0.21465 0.0
O26 O 0.14449 0.13605 0.22364 0.0
O27 O 0.14935 0.1682 0.07844 0.0
O28 O 0.14229 0.13814 0.07099 0.0
C29 C 0.15447 0.15039 0.23974 0.0
H30 H 0.08158 0.0809 0.11195 0.0
H31 H 0.14271 0.07408 0.11358 0.0
H32 H 0.15993 0.22778 0.26352 0.0
H33 H 0.15744 0.23327 0.05783 0.0
C34 C 0.19768 0.74006 0.281 0.0
N35 N 0.24915 0.76333 0.36006 0.0
C36 C 0.25751 0.74591 0.35693 0.0
C37 C 0.277 0.74416 0.34267 0.0
C38 C 0.28813 0.76045 0.33075 0.0
C39 C 0.27904 0.7782 0.33561 0.0
C40 C 0.25967 0.7793 0.35056 0.0
Zn41 Zn 0.21966 0.76717 0.36878 0.0
C42 C 0.2056 0.7952 0.2697 0.0
N43 N 0.15988 0.77787 0.37372 0.0
C44 C 0.14689 0.76413 0.38575 0.0
C45 C 0.15682 0.79608 0.39342 0.0
C46 C 0.14466 0.79937 0.44461 0.0
C47 C 0.13431 0.78407 0.46866 0.0
C48 C 0.13286 0.76754 0.43108 0.0
Zn49 Zn 0.18805 0.7709 0.36628 0.0
O50 O 0.21422 0.74408 0.30241 0.0
C51 C 0.19989 0.74153 0.46261 0.0
O52 O 0.18353 0.75023 0.29721 0.0
H53 H 0.16668 0.80717 0.38017 0.0
H54 H 0.24899 0.73331 0.36401 0.0
H55 H 0.14917 0.74985 0.36854 0.0
O56 O 0.21674 0.74667 0.4471 0.0
O57 O 0.18568 0.74942 0.43617 0.0
H58 H 0.25286 0.79305 0.35239 0.0
O59 O 0.19278 0.79075 0.43734 0.0
O60 O 0.22379 0.79033 0.43878 0.0
O61 O 0.19009 0.7914 0.29696 0.0
O62 O 0.22079 0.78702 0.28813 0.0
C63 C 0.20814 0.79704 0.45952 0.0
H64 H 0.28319 0.73012 0.34066 0.0
H65 H 0.28659 0.79125 0.32581 0.0
H66 H 0.14577 0.81253 0.47101 0.0
H67 H 0.12406 0.75582 0.44618 0.0
C68 C 0.62399 0.84451 0.59052 0.0
N69 N 0.60479 0.90054 0.64957 0.0
C70 C 0.6211 0.90677 0.6214 0.0
C71 C 0.62254 0.92544 0.59788 0.0
C72 C 0.60711 0.93815 0.60341 0.0
C73 C 0.59065 0.93136 0.63415 0.0
C74 C 0.58974 0.91256 0.65622 0.0
Zn75 Zn 0.60098 0.87179 0.67604 0.0
C76 C 0.56957 0.85386 0.60226 0.0
N77 N 0.59037 0.81415 0.72713 0.0
C78 C 0.60267 0.79948 0.73265 0.0
C79 C 0.57139 0.81164 0.73836 0.0
C80 C 0.5639 0.79366 0.74811 0.0
C81 C 0.5757 0.77791 0.73971 0.0
C82 C 0.59562 0.78108 0.73965 0.0
Zn83 Zn 0.59819 0.84085 0.69989 0.0
O84 O 0.61941 0.86195 0.5983 0.0
C85 C 0.63048 0.85678 0.77085 0.0
O86 O 0.61716 0.83195 0.62769 0.0
H87 H 0.56157 0.82337 0.73475 0.0
H88 H 0.63293 0.89713 0.61561 0.0
H89 H 0.61775 0.80183 0.72637 0.0
O90 O 0.6258 0.87178 0.7401 0.0
O91 O 0.62076 0.84171 0.76443 0.0
H92 H 0.57673 0.9075 0.67769 0.0
O93 O 0.58066 0.84917 0.7703 0.0
O94 O 0.58189 0.87981 0.75785 0.0
O95 O 0.57576 0.83988 0.63383 0.0
O96 O 0.57705 0.87014 0.61044 0.0
C97 C 0.57557 0.86535 0.78783 0.0
H98 H 0.63551 0.92962 0.574 0.0
H99 H 0.57843 0.94042 0.64124 0.0
H100 H 0.5486 0.79204 0.75058 0.0
H101 H 0.60568 0.76953 0.73637 0.0
C102 C 0.52186 0.27168 0.83659 0.0
N103 N 0.46572 0.25071 0.88707 0.0
C104 C 0.45894 0.26777 0.86648 0.0
C105 C 0.43996 0.26968 0.84585 0.0
C106 C 0.42753 0.25395 0.84658 0.0
C107 C 0.43497 0.23662 0.86903 0.0
C108 C 0.45403 0.23529 0.88832 0.0
Zn109 Zn 0.49447 0.24665 0.91358 0.0
C110 C 0.51351 0.2167 0.83501 0.0
N111 N 0.55181 0.23535 0.96886 0.0
C112 C 0.56604 0.24764 0.98263 0.0
C113 C 0.55447 0.21623 0.97487 0.0
C114 C 0.57243 0.20878 0.98621 0.0
C115 C 0.58806 0.22103 0.98609 0.0
C116 C 0.58439 0.24072 0.99305 0.0
Zn117 Zn 0.52523 0.24337 0.94022 0.0
O118 O 0.50432 0.26738 0.84412 0.0
C119 C 0.50871 0.27425 0.01611 0.0
O120 O 0.53441 0.26337 0.87063 0.0
H121 H 0.54294 0.20643 0.9664 0.0
H122 H 0.46832 0.27993 0.86507 0.0
H123 H 0.56346 0.26277 0.98109 0.0
O124 O 0.49366 0.26972 0.98511 0.0
O125 O 0.52396 0.26499 1.00744 0.0
H126 H 0.45951 0.22173 0.90384 0.0
O127 O 0.51646 0.22475 1.00741 0.0
O128 O 0.48609 0.22507 0.98678 0.0
O129 O 0.5268 0.22184 0.87168 0.0
O130 O 0.49725 0.22456 0.84035 0.0
C131 C 0.50009 0.21863 0.01883 0.0
H132 H 0.43527 0.28333 0.82829 0.0
H133 H 0.42617 0.22407 0.87218 0.0
H134 H 0.57436 0.19354 0.98387 0.0
H135 H 0.59575 0.25099 0.99722 0.0
C136 C 0.06535 0.86738 0.77451 0.0
N137 N 0.08302 0.81601 0.81845 0.0
C138 C 0.06427 0.81213 0.82948 0.0
C139 C 0.05521 0.79704 0.79927 0.0
C140 C 0.06538 0.78553 0.75703 0.0
C141 C 0.08453 0.79042 0.74416 0.0
C142 C 0.09313 0.80552 0.77612 0.0
Zn143 Zn 0.09223 0.84243 0.84638 0.0
C144 C 0.12083 0.85786 0.75416 0.0
N145 N 0.10216 0.90169 0.88704 0.0
C146 C 0.08685 0.91355 0.88505 0.0
C147 C 0.11916 0.90803 0.90997 0.0
C148 C 0.12105 0.9267 0.93292 0.0
C149 C 0.10541 0.93916 0.93143 0.0
C150 C 0.08823 0.93235 0.90621 0.0
Zn151 Zn 0.09752 0.8731 0.86264 0.0
O152 O 0.06927 0.85109 0.79477 0.0
C153 C 0.07015 0.85501 0.95658 0.0
O154 O 0.07585 0.88125 0.79108 0.0
H155 H 0.1312 0.89851 0.91195 0.0
H156 H 0.05587 0.82117 0.85985 0.0
H157 H 0.07326 0.90832 0.86871 0.0
O158 O 0.07566 0.84052 0.92654 0.0
O159 O 0.07605 0.87138 0.93952 0.0
H160 H 0.10779 0.80898 0.76609 0.0
O161 O 0.11873 0.86345 0.92969 0.0
O162 O 0.11605 0.83345 0.90012 0.0
O163 O 0.11973 0.87299 0.78775 0.0
O164 O 0.10958 0.84428 0.76624 0.0
C165 C 0.12432 0.84622 0.93319 0.0
H166 H 0.04051 0.79398 0.81065 0.0
H167 H 0.09332 0.78209 0.71247 0.0
H168 H 0.13461 0.93133 0.95174 0.0
H169 H 0.07572 0.9413 0.90494 0.0
C170 C 0.51295 0.72371 0.06582 0.0
N171 N 0.55419 0.73754 0.19399 0.0
C172 C 0.55967 0.71959 0.17811 0.0
C173 C 0.57822 0.71633 0.15831 0.0
C174 C 0.59007 0.73214 0.15174 0.0
C175 C 0.58595 0.7482 0.18955 0.0
C176 C 0.56716 0.75119 0.20687 0.0
Zn177 Zn 0.52675 0.7442 0.18222 0.0
C178 C 0.51987 0.7783 0.09829 0.0
N179 N 0.46648 0.75331 0.16195 0.0
C180 C 0.45504 0.738 0.15167 0.0
C181 C 0.45883 0.77021 0.18035 0.0
C182 C 0.43928 0.77183 0.19271 0.0
C183 C 0.42726 0.756 0.1856 0.0
C184 C 0.43537 0.73907 0.16271 0.0
Zn185 Zn 0.49598 0.74911 0.1672 0.0
O186 O 0.52718 0.72821 0.09905 0.0
C187 C 0.5048 0.71567 0.25207 0.0
O188 O 0.49647 0.72969 0.08252 0.0
H189 H 0.46802 0.78226 0.18871 0.0
H190 H 0.54923 0.7085 0.17158 0.0
H191 H 0.46129 0.72456 0.13833 0.0
O192 O 0.52118 0.72058 0.23487 0.0
O193 O 0.49051 0.72525 0.23326 0.0
H194 H 0.56263 0.76507 0.22264 0.0
O195 O 0.49771 0.76891 0.24906 0.0
O196 O 0.52726 0.76023 0.26428 0.0
O197 O 0.50257 0.77285 0.10345 0.0
O198 O 0.53284 0.76914 0.12758 0.0
C199 C 0.51316 0.77022 0.28079 0.0
H200 H 0.58151 0.70311 0.13439 0.0
H201 H 0.59542 0.76029 0.19175 0.0
H202 H 0.43369 0.78526 0.20933 0.0
H203 H 0.42678 0.72644 0.15686 0.0
C204 C 0.64348 0.15648 0.28428 0.0
N205 N 0.62915 0.20218 0.39162 0.0
C206 C 0.6466 0.20822 0.37139 0.0
C207 C 0.6516 0.22734 0.37532 0.0
C208 C 0.63892 0.24009 0.40327 0.0
C209 C 0.62163 0.23309 0.42802 0.0
C210 C 0.61677 0.21424 0.41973 0.0
Zn211 Zn 0.62282 0.17417 0.39019 0.0
C212 C 0.58836 0.16416 0.31391 0.0
N213 N 0.61442 0.11339 0.3989 0.0
C214 C 0.63056 0.10272 0.40177 0.0
C215 C 0.59714 0.1052 0.40945 0.0
C216 C 0.59574 0.08584 0.42557 0.0
C217 C 0.6123 0.07475 0.43213 0.0
C218 C 0.62983 0.08346 0.41861 0.0
Zn219 Zn 0.61776 0.14306 0.39283 0.0
O220 O 0.63843 0.17193 0.30898 0.0
C221 C 0.65159 0.1558 0.47094 0.0
O222 O 0.63775 0.14086 0.30903 0.0
H223 H 0.58444 0.11385 0.40804 0.0
H224 H 0.65672 0.19831 0.35173 0.0
H225 H 0.64421 0.10934 0.39363 0.0
O226 O 0.64692 0.17102 0.4438 0.0
O227 O 0.64159 0.14099 0.46151 0.0
H228 H 0.603 0.20935 0.43531 0.0
O229 O 0.59792 0.14691 0.47268 0.0
O230 O 0.60621 0.17683 0.47288 0.0
O231 O 0.59347 0.14711 0.32702 0.0
O232 O 0.59823 0.17792 0.33522 0.0
C233 C 0.5962 0.16356 0.49597 0.0
H234 H 0.66493 0.23218 0.35524 0.0
H235 H 0.61113 0.24227 0.44954 0.0
H236 H 0.5819 0.07985 0.43575 0.0
H237 H 0.64296 0.07551 0.42206 0.0
C238 C 0.21178 0.29177 0.53774 0.0
N239 N 0.16158 0.26888 0.58364 0.0
C240 C 0.1487 0.2798 0.61558 0.0
C241 C 0.13398 0.28905 0.58257 0.0
C242 C 0.13248 0.2871 0.51601 0.0
C243 C 0.14533 0.27483 0.48557 0.0
C244 C 0.15967 0.266 0.51987 0.0
Zn245 Zn 0.18899 0.26444 0.61729 0.0
C246 C 0.20942 0.235 0.54117 0.0
N247 N 0.24939 0.26265 0.66646 0.0
C248 C 0.25886 0.27894 0.68144 0.0
C249 C 0.25855 0.24562 0.66916 0.0
C250 C 0.2778 0.24455 0.68709 0.0
C251 C 0.28789 0.26112 0.70335 0.0
C252 C 0.27804 0.27848 0.70032 0.0
Zn253 Zn 0.22046 0.26415 0.63986 0.0
O254 O 0.19598 0.28427 0.55013 0.0
C255 C 0.19841 0.29234 0.7188 0.0
O256 O 0.22653 0.28648 0.56843 0.0
H257 H 0.25091 0.23275 0.6576 0.0
H258 H 0.1504 0.28235 0.66599 0.0
H259 H 0.25153 0.29241 0.67881 0.0
O260 O 0.18523 0.28615 0.68336 0.0
O261 O 0.21517 0.28566 0.7128 0.0
H262 H 0.17014 0.2581 0.49352 0.0
O263 O 0.21267 0.24231 0.70812 0.0
O264 O 0.18196 0.24387 0.68527 0.0
O265 O 0.22423 0.24175 0.56814 0.0
O266 O 0.19331 0.24213 0.55324 0.0
C267 C 0.19563 0.2364 0.71638 0.0
H268 H 0.12428 0.29804 0.60878 0.0
H269 H 0.14461 0.272 0.43501 0.0
H270 H 0.28462 0.2308 0.68924 0.0
H271 H 0.28515 0.29169 0.71156 0.0
C272 C 0.01262 0.22175 0.56313 0.0
N273 N 0.05948 0.24035 0.6584 0.0
C274 C 0.06272 0.22181 0.64281 0.0
C275 C 0.0741 0.21758 0.59039 0.0
C276 C 0.08345 0.23247 0.55981 0.0
C277 C 0.08454 0.25016 0.59068 0.0
C278 C 0.07161 0.25415 0.6391 0.0
Zn279 Zn 0.03109 0.2467 0.66491 0.0
C280 C 0.01914 0.27745 0.57487 0.0
N281 N 0.96933 0.25244 0.66686 0.0
C282 C 0.9578 0.23722 0.65595 0.0
C283 C 0.96192 0.26878 0.69132 0.0
C284 C 0.94264 0.2699 0.70852 0.0
C285 C 0.93057 0.25423 0.69933 0.0
C286 C 0.93833 0.23791 0.67104 0.0
Zn287 Zn 0.99913 0.24903 0.65912 0.0
O288 O 0.02737 0.22734 0.59143 0.0
C289 C 0.01298 0.21924 0.75115 0.0
O290 O 0.99652 0.22838 0.58009 0.0
H291 H 0.97106 0.28084 0.69983 0.0
H292 H 0.05328 0.21085 0.66005 0.0
H293 H 0.96379 0.22417 0.63788 0.0
O294 O 0.02867 0.22552 0.73111 0.0
O295 O 0.9975 0.2263 0.73034 0.0
H296 H 0.06907 0.26875 0.65253 0.0
O297 O 1.00364 0.26982 0.7348 0.0
O298 O 0.03486 0.26669 0.73633 0.0
O299 O 1.00231 0.27206 0.58955 0.0
O300 O 0.03339 0.26886 0.59839 0.0
C301 C 0.01988 0.27481 0.7563 0.0
H302 H 0.07308 0.20372 0.56834 0.0
H303 H 0.09215 0.26179 0.56899 0.0
H304 H 0.93726 0.28285 0.72959 0.0
H305 H 0.92962 0.22544 0.66338 0.0
C306 C 0.71732 0.79659 0.04584 0.0
N307 N 0.66679 0.7732 0.06661 0.0
C308 C 0.66169 0.79186 0.06306 0.0
C309 C 0.65152 0.79875 1.0107 0.0
C310 C 0.64611 0.78638 0.96135 0.0
C311 C 0.65107 0.76699 0.96815 0.0
C312 C 0.66078 0.76067 0.02189 0.0
Zn313 Zn 0.69249 0.76763 0.10925 0.0
C314 C 0.71433 0.74066 0.02376 0.0
N315 N 0.75149 0.76233 0.16933 0.0
C316 C 0.76225 0.77838 0.17184 0.0
C317 C 0.75913 0.74534 0.18683 0.0
C318 C 0.77813 0.74411 0.20756 0.0
C319 C 0.78976 0.76044 0.20946 0.0
C320 C 0.78136 0.77773 0.19074 0.0
Zn321 Zn 0.72327 0.76468 0.1363 0.0
O322 O 0.70102 0.79003 0.05552 0.0
C323 C 0.69929 0.79046 0.22374 0.0
O324 O 0.73149 0.78884 0.07326 0.0
H325 H 0.75051 0.73265 0.18482 0.0
H326 H 0.66705 0.80187 0.09764 0.0
H327 H 0.75611 0.79187 0.15869 0.0
O328 O 0.68628 0.78585 0.18492 0.0
O329 O 0.71618 0.7842 0.21529 0.0
H330 H 0.66465 0.74587 0.02534 0.0
O331 O 0.71352 0.74115 0.19519 0.0
O332 O 0.68358 0.74421 0.16495 0.0
O333 O 0.72866 0.74418 0.05919 0.0
O334 O 0.69884 0.74912 0.03434 0.0
C335 C 0.69621 0.73552 0.19757 0.0
H336 H 0.6479 0.81364 1.00921 0.0
H337 H 0.64685 0.75634 0.9339 0.0
H338 H 0.78348 0.73043 0.22242 0.0
H339 H 0.78945 0.79077 0.18956 0.0
C340 C 0.70688 0.24141 0.7785 0.0
N341 N 0.75438 0.26149 0.88337 0.0
C342 C 0.7624 0.24393 0.87776 0.0
C343 C 0.78196 0.24197 0.86471 0.0
C344 C 0.79331 0.2582 0.85581 0.0
C345 C 0.78485 0.27603 0.86494 0.0
C346 C 0.76543 0.27734 0.87938 0.0
Zn347 Zn 0.72488 0.26597 0.87542 0.0
C348 C 0.71759 0.29715 0.78251 0.0
N349 N 0.66712 0.28061 0.84191 0.0
C350 C 0.66468 0.28333 0.77813 0.0
C351 C 0.65343 0.28586 0.8838 0.0
C352 C 0.63574 0.29196 0.86133 0.0
C353 C 0.63206 0.29238 0.79481 0.0
C354 C 0.64766 0.29016 0.75398 0.0
Zn355 Zn 0.69403 0.27287 0.86726 0.0
O356 O 0.72317 0.24374 0.8038 0.0
C357 C 0.69897 0.2412 0.9591 0.0
O358 O 0.69347 0.25244 0.79432 0.0
H359 H 0.656 0.28474 0.93445 0.0
H360 H 0.75346 0.23145 0.87953 0.0
H361 H 0.67595 0.28005 0.74501 0.0
O362 O 0.7166 0.24462 0.94754 0.0
O363 O 0.68622 0.25113 0.93135 0.0
H364 H 0.75893 0.2912 0.88308 0.0
O365 O 0.6939 0.2922 0.93941 0.0
O366 O 0.72474 0.28842 0.95176 0.0
O367 O 0.70163 0.29426 0.80707 0.0
O368 O 0.73142 0.28672 0.79927 0.0
C369 C 0.7091 0.29647 0.96804 0.0
H370 H 0.7879 0.22795 0.85784 0.0
H371 H 0.79307 0.2889 0.85891 0.0
H372 H 0.62472 0.29454 0.89616 0.0
H373 H 0.64617 0.29145 0.70286 0.0
C374 C 0.02239 0.77158 0.2972 0.0
N375 N 0.96871 0.75272 0.37664 0.0
C376 C 0.96058 0.7701 0.36811 0.0
C377 C 0.94118 0.7717 0.3523 0.0
C378 C 0.93005 0.75528 0.34393 0.0
C379 C 0.93879 0.73761 0.35389 0.0
C380 C 0.95805 0.73665 0.37074 0.0
Zn381 Zn 0.998 0.74926 0.39317 0.0
C382 C 0.0135 0.71606 0.31548 0.0
N383 N 0.05736 0.73848 0.42041 0.0
C384 C 0.06126 0.7393 0.48369 0.0
C385 C 0.06913 0.72908 0.37964 0.0
C386 C 0.08526 0.71957 0.40295 0.0
C387 C 0.08883 0.71927 0.46888 0.0
C388 C 0.07651 0.72946 0.50893 0.0
Zn389 Zn 0.02953 0.74468 0.40022 0.0
O390 O 1.00522 0.76843 0.31465 0.0
C391 C 0.01596 0.77846 0.47678 0.0
O392 O 0.0359 0.76259 0.32406 0.0
H393 H 0.06559 0.72816 0.32962 0.0
H394 H 0.96918 0.78275 0.37246 0.0
H395 H 0.05165 0.74636 0.51602 0.0
O396 O 0.99938 0.77363 0.45767 0.0
O397 O 0.03017 0.76855 0.45999 0.0
H398 H 0.96458 0.72294 0.37808 0.0
O399 O 0.02336 0.72722 0.47545 0.0
O400 O 0.99248 0.73037 0.47576 0.0
O401 O 0.02878 0.72149 0.3412 0.0
O402 O 0.99813 0.72507 0.32663 0.0
C403 C 1.00754 0.72325 0.49981 0.0
H404 H 0.93509 0.78564 0.34487 0.0
H405 H 0.93077 0.72457 0.34887 0.0
H406 H 0.09453 0.71219 0.37012 0.0
H407 H 0.07853 0.73003 0.55992 0.0
C408 C 0.58968 0.65755 0.53826 0.0
N409 N 0.61652 0.61356 0.64224 0.0
C410 C 0.59923 0.60478 0.64015 0.0
C411 C 0.59787 0.58522 0.62706 0.0
C412 C 0.61439 0.57453 0.61493 0.0
C413 C 0.63202 0.58376 0.62132 0.0
C414 C 0.63276 0.60322 0.63527 0.0
Zn415 Zn 0.61906 0.64315 0.63031 0.0
C416 C 0.64579 0.65169 0.5237 0.0
N417 N 0.62733 0.70142 0.58245 0.0
C418 C 0.6268 0.70357 0.51797 0.0
C419 C 0.63546 0.71492 0.61976 0.0
C420 C 0.64137 0.73213 0.59301 0.0
C421 C 0.63875 0.73557 0.52696 0.0
C422 C 0.63326 0.72007 0.48923 0.0
Zn423 Zn 0.62173 0.67438 0.61249 0.0
O424 O 0.59488 0.64238 0.56608 0.0
C425 C 0.59431 0.6685 0.71782 0.0
O426 O 0.59888 0.67274 0.54759 0.0
H427 H 0.63704 0.71252 0.67034 0.0
H428 H 0.5864 0.61313 0.64428 0.0
H429 H 0.6217 0.69225 0.48782 0.0
O430 O 0.59922 0.6511 0.70885 0.0
O431 O 0.60176 0.68152 0.68367 0.0
H432 H 0.64639 0.61032 0.63594 0.0
O433 O 0.64385 0.67608 0.67751 0.0
O434 O 0.64338 0.64547 0.69775 0.0
O435 O 0.64111 0.6677 0.54417 0.0
O436 O 0.63846 0.63704 0.54905 0.0
C437 C 0.65054 0.66195 0.70724 0.0
H438 H 0.58394 0.57881 0.62249 0.0
H439 H 0.64517 0.57614 0.61337 0.0
H440 H 0.64652 0.743 0.62501 0.0
H441 H 0.63217 0.72118 0.43798 0.0
C442 C 0.11977 0.34842 0.06186 0.0
N443 N 0.10421 0.4019 0.14495 0.0
C444 C 0.12172 0.40877 0.12928 0.0
C445 C 0.12392 0.42775 0.10942 0.0
C446 C 0.10791 0.43965 0.10437 0.0
C447 C 0.09023 0.43234 0.12331 0.0
C448 C 0.08872 0.4135 0.14377 0.0
Zn449 Zn 0.09829 0.37294 0.15602 0.0
C450 C 0.06565 0.36211 0.06999 0.0
N451 N 0.08088 0.31515 0.16738 0.0
C452 C 0.07492 0.30624 0.11357 0.0
C453 C 0.07679 0.30796 0.22584 0.0
C454 C 0.06758 0.29057 0.23163 0.0
C455 C 0.06371 0.27964 0.17666 0.0
C456 C 0.06572 0.28879 0.11718 0.0
Zn457 Zn 0.09042 0.34226 0.16058 0.0
O458 O 0.11767 0.36567 0.07922 0.0
C459 C 0.12402 0.35076 0.24389 0.0
O460 O 0.10963 0.33558 0.08751 0.0
H461 H 0.08073 0.31568 0.26833 0.0
H462 H 0.13386 0.39936 0.12935 0.0
H463 H 0.07738 0.31262 0.0675 0.0
O464 O 0.1215 0.36776 0.22385 0.0
O465 O 0.11252 0.3378 0.22638 0.0
H466 H 0.07487 0.40787 0.15568 0.0
O467 O 0.07193 0.34845 0.23185 0.0
O468 O 0.07885 0.37864 0.23734 0.0
O469 O 0.06908 0.34644 0.0962 0.0
O470 O 0.07559 0.37651 0.08495 0.0
C471 C 0.06953 0.36432 0.25782 0.0
H472 H 0.13783 0.43276 0.0951 0.0
H473 H 0.07754 0.44101 0.12096 0.0
H474 H 0.06531 0.28502 0.27906 0.0
H475 H 0.06199 0.28178 0.07306 0.0
C476 C 0.57151 0.3599 0.29926 0.0
N477 N 0.5904 0.31125 0.36774 0.0
C478 C 0.58944 0.30517 0.28459 0.0
C479 C 0.57264 0.28397 0.25332 0.0
C480 C 0.55574 0.26983 0.32273 0.0
C481 C 0.55989 0.27814 0.41967 0.0
C482 C 0.57846 0.30032 0.43423 0.0
Zn483 Zn 0.59811 0.3385 0.38233 0.0
C484 C 0.62765 0.35249 0.29569 0.0
N485 N 0.60494 0.39891 0.41298 0.0
C486 C 0.58926 0.41026 0.41116 0.0
C487 C 0.62201 0.40624 0.43147 0.0
C488 C 0.6236 0.42531 0.45066 0.0
C489 C 0.60753 0.43732 0.4505 0.0
C490 C 0.59028 0.42944 0.42886 0.0
Zn491 Zn 0.60117 0.36954 0.39699 0.0
O492 O 0.57887 0.34415 0.31242 0.0
C493 C 0.57277 0.35301 0.4863 0.0
O494 O 0.57719 0.37468 0.3289 0.0
H495 H 0.63439 0.39716 0.43339 0.0
H496 H 0.59644 0.31412 0.25003 0.0
H497 H 0.57567 0.40436 0.39758 0.0
O498 O 0.57651 0.33954 0.44905 0.0
O499 O 0.58144 0.36871 0.47877 0.0
H500 H 0.58205 0.30714 0.48202 0.0
O501 O 0.62437 0.36248 0.46141 0.0
O502 O 0.61819 0.33196 0.4531 0.0
O503 O 0.62201 0.36857 0.31732 0.0
O504 O 0.61994 0.33733 0.31561 0.0
C505 C 0.6282 0.34532 0.47642 0.0
H506 H 0.56995 0.28221 0.20296 0.0
H507 H 0.56828 0.28819 0.4415 0.0
H508 H 0.63724 0.43033 0.46747 0.0
H509 H 0.57748 0.4379 0.426 0.0
C510 C 0.1457 0.65908 0.79884 0.0
N511 N 0.13209 0.70114 0.92619 0.0
C512 C 0.15032 0.70653 0.91319 0.0
C513 C 0.15516 0.72571 0.91255 0.0
C514 C 0.14056 0.73902 0.92106 0.0
C515 C 0.12417 0.73278 0.95395 0.0
C516 C 0.11953 0.71364 0.95136 0.0
Zn517 Zn 0.12468 0.67375 0.9107 0.0
C518 C 0.09128 0.66771 0.82493 0.0
N519 N 0.11421 0.61359 0.89334 0.0
C520 C 0.12945 0.60213 0.88239 0.0
C521 C 0.09756 0.60606 0.91487 0.0
C522 C 0.09625 0.58672 0.93052 0.0
C523 C 0.11212 0.57468 0.92325 0.0
C524 C 0.12864 0.58266 0.89623 0.0
Zn525 Zn 0.11888 0.64298 0.89815 0.0
O526 O 0.14139 0.67374 0.83009 0.0
C527 C 0.15186 0.65101 0.98449 0.0
O528 O 0.13915 0.64294 0.8164 0.0
H529 H 0.08555 0.61523 0.92392 0.0
H530 H 0.16072 0.69618 0.89811 0.0
H531 H 0.14271 0.60825 0.8664 0.0
O532 O 0.1477 0.66737 0.96508 0.0
O533 O 0.1417 0.63702 0.96707 0.0
H534 H 0.10547 0.70908 0.96512 0.0
O535 O 0.09828 0.64504 0.97615 0.0
O536 O 0.10745 0.67436 0.9905 0.0
O537 O 0.09606 0.65027 0.83167 0.0
O538 O 0.10064 0.68056 0.85403 0.0
C539 C 0.09662 0.66076 1.00561 0.0
H540 H 0.16863 0.72989 0.89193 0.0
H541 H 0.11311 0.74254 0.96841 0.0
H542 H 0.08317 0.58164 0.95147 0.0
H543 H 0.14116 0.57413 0.88759 0.0
H544 H 0.13558 0.1531 0.93595 0.0
H545 H 0.18962 0.15619 0.03143 0.0
H546 H 0.14819 0.17113 0.84769 0.0
H547 H 0.20314 0.17291 0.94055 0.0
H548 H 0.21076 0.22911 0.83374 0.0
H549 H 0.20268 0.20325 0.90564 0.0
H550 H 0.16513 0.17985 0.76219 0.0
H551 H 0.1721 0.20673 0.69346 0.0
C552 C 0.15061 0.15647 0.93582 0.0
C553 C 0.16167 0.15304 0.99015 0.0
C554 C 0.15793 0.16711 0.88517 0.0
C555 C 0.17669 0.17421 0.887 0.0
C556 C 0.18843 0.16848 0.93801 0.0
C557 C 0.18089 0.15832 0.9895 0.0
C558 C 0.20078 0.21839 0.81798 0.0
C559 C 0.19177 0.22009 0.75874 0.0
C560 C 0.19627 0.20331 0.85884 0.0
C561 C 0.18308 0.18918 0.84058 0.0
C562 C 0.17488 0.19055 0.77947 0.0
C563 C 0.17892 0.20595 0.73965 0.0
H564 H 0.20181 0.83333 0.25433 0.0
H565 H 0.20369 0.78042 0.15245 0.0
H566 H 0.18628 0.84843 0.16375 0.0
H567 H 0.18671 0.79458 0.06437 0.0
H568 H 0.13183 0.85999 0.05156 0.0
H569 H 0.15664 0.85007 0.12466 0.0
H570 H 0.17907 0.81234 0.98022 0.0
H571 H 0.15298 0.82115 0.90999 0.0
C572 C 0.19954 0.82516 0.2113 0.0
C573 C 0.20426 0.80585 0.20972 0.0
C574 C 0.1901 0.83362 0.15982 0.0
C575 C 0.1844 0.82271 0.1067 0.0
C576 C 0.19074 0.80374 0.10338 0.0
C577 C 0.2007 0.7955 0.15402 0.0
C578 C 0.14212 0.84957 0.03573 0.0
C579 C 0.14032 0.84111 0.97563 0.0
C580 C 0.15663 0.84399 0.0774 0.0
C581 C 0.17017 0.8302 0.05933 0.0
C582 C 0.16878 0.82252 0.99742 0.0
C583 C 0.15386 0.82764 0.95667 0.0
H584 H 0.53907 0.76809 0.37554 0.0
H585 H 0.49486 0.80451 0.30166 0.0
H586 H 0.54922 0.79313 0.44763 0.0
H587 H 0.5051 0.82976 0.37583 0.0
H588 H 0.53202 0.84468 0.60978 0.0
H589 H 0.51406 0.82684 0.52905 0.0
H590 H 0.56077 0.83297 0.39806 0.0
H591 H 0.57842 0.85123 0.4778 0.0
C592 C 0.53125 0.78134 0.37549 0.0
C593 C 0.51614 0.78428 0.33265 0.0
C594 C 0.53716 0.79569 0.41667 0.0
C595 C 0.52809 0.81337 0.41664 0.0
C596 C 0.51231 0.81619 0.3765 0.0
C597 C 0.50637 0.80171 0.33461 0.0
C598 C 0.53794 0.84312 0.56248 0.0
C599 C 0.55638 0.84974 0.54938 0.0
C600 C 0.52773 0.83284 0.51651 0.0
C601 C 0.53601 0.82867 0.45735 0.0
C602 C 0.55394 0.83632 0.44289 0.0
C603 C 0.56398 0.84689 0.48833 0.0
H604 H 0.50656 0.22102 0.70778 0.0
H605 H 0.53356 0.18395 0.84371 0.0
H606 H 0.52412 0.20546 0.6214 0.0
H607 H 0.55076 0.16813 0.75757 0.0
H608 H 0.57399 0.1397 0.57084 0.0
H609 H 0.54959 0.14913 0.64895 0.0
H610 H 0.5605 0.20801 0.60664 0.0
H611 H 0.58478 0.19887 0.53102 0.0
C612 C 0.51551 0.20895 0.71884 0.0
C613 C 0.51855 0.20359 0.78242 0.0
C614 C 0.52576 0.20018 0.66953 0.0
C615 C 0.53898 0.18565 0.68271 0.0
C616 C 0.54064 0.17916 0.74569 0.0
C617 C 0.53072 0.18819 0.79503 0.0
C618 C 0.57119 0.15463 0.57849 0.0
C619 C 0.58155 0.16847 0.5448 0.0
C620 C 0.55717 0.16003 0.62295 0.0
C621 C 0.55291 0.17934 0.63332 0.0
C622 C 0.56312 0.19304 0.59904 0.0
C623 C 0.57727 0.18772 0.55599 0.0
H624 H 0.99791 0.7939 0.22659 0.0
H625 H 0.05758 0.7837 0.26118 0.0
H626 H 1.0063 0.81926 0.1516 0.0
H627 H 0.06583 0.80874 0.18695 0.0
H628 H 0.07886 0.86092 0.0813 0.0
H629 H 0.06497 0.8433 0.17048 0.0
H630 H 0.02145 0.82144 0.04533 0.0
H631 H 0.03534 0.83909 0.95698 0.0
C632 C 0.01278 0.797 0.2182 0.0
C633 C 0.02704 0.78659 0.24966 0.0
C634 C 0.01759 0.81158 0.17541 0.0
C635 C 0.03676 0.81624 0.16375 0.0
C636 C 0.05093 0.80589 0.19568 0.0
C637 C 0.04616 0.79129 0.23776 0.0
C638 C 0.06574 0.85318 0.07387 0.0
C639 C 0.05798 0.85162 1.01257 0.0
C640 C 0.05797 0.84277 0.12458 0.0
C641 C 0.04227 0.83065 0.11485 0.0
C642 C 0.03344 0.83065 0.0548 0.0
C643 C 0.04132 0.84089 1.00416 0.0
H644 H 1.00643 0.22577 0.87576 0.0
H645 H 0.02453 0.18282 0.74317 0.0
H646 H 0.024 0.20982 0.96081 0.0
H647 H 0.04196 0.16671 0.828 0.0
H648 H 0.08712 0.20118 0.02533 0.0
H649 H 0.06031 0.21008 0.95898 0.0
H650 H 0.04447 0.15119 0.93995 0.0
H651 H 0.07149 0.1421 1.00751 0.0
C652 C 0.0131 0.21223 0.86582 0.0
C653 C 0.01396 0.20538 0.80322 0.0
C654 C 0.02346 0.20327 0.91418 0.0
C655 C 0.03468 0.18724 0.90068 0.0
C656 C 0.03345 0.17901 0.83992 0.0
C657 C 0.02328 0.18811 0.79144 0.0
C658 C 0.07794 0.19005 1.00747 0.0
C659 C 0.08156 0.17089 0.02169 0.0
C660 C 0.06239 0.1952 0.96998 0.0
C661 C 0.05006 0.18136 0.94516 0.0
C662 C 0.05366 0.16216 0.95884 0.0
C663 C 0.06918 0.15698 0.99722 0.0
H664 H 0.67183 0.22788 0.75047 0.0
H665 H 0.7313 0.21727 0.71332 0.0
H666 H 0.66313 0.20104 0.68505 0.0
H667 H 0.72233 0.19008 0.64575 0.0
H668 H 0.68712 0.1697 0.45676 0.0
H669 H 0.70427 0.187 0.53936 0.0
H670 H 0.66523 0.16539 0.68021 0.0
H671 H 0.64812 0.14803 0.59713 0.0
C672 C 0.68313 0.21982 0.72824 0.0
C673 C 0.70232 0.22493 0.73678 0.0
C674 C 0.67809 0.20417 0.69133 0.0
C675 C 0.69202 0.19318 0.66089 0.0
C676 C 0.71128 0.1982 0.66905 0.0
C677 C 0.7164 0.21379 0.70739 0.0
C678 C 0.68293 0.16771 0.50596 0.0
C679 C 0.66636 0.15741 0.52058 0.0
C680 C 0.69268 0.17777 0.55331 0.0
C681 C 0.68588 0.17791 0.61613 0.0
C682 C 0.67068 0.16574 0.632 0.0
C683 C 0.66105 0.1555 0.58463 0.0
H684 H 0.62431 0.85573 0.46574 0.0
H685 H 0.6537 0.81997 0.59966 0.0
H686 H 0.64448 0.84406 0.38028 0.0
H687 H 0.67525 0.80954 0.51647 0.0
H688 H 0.69791 0.7772 0.3447 0.0
H689 H 0.68092 0.791 0.43387 0.0
H690 H 0.67079 0.84176 0.32247 0.0
H691 H 0.6863 0.82679 0.23182 0.0
C692 C 0.63545 0.84566 0.47702 0.0
C693 C 0.63735 0.8387 0.53925 0.0
C694 C 0.64727 0.83899 0.42794 0.0
C695 C 0.66184 0.8256 0.44001 0.0
C696 C 0.66405 0.8193 0.50348 0.0
C697 C 0.65177 0.82546 0.55189 0.0
C698 C 0.69241 0.7915 0.34013 0.0
C699 C 0.69369 0.80104 0.28174 0.0
C700 C 0.68255 0.79957 0.39156 0.0
C701 C 0.674 0.81768 0.38667 0.0
C702 C 0.67644 0.82762 0.32875 0.0
C703 C 0.68577 0.81925 0.27673 0.0
H704 H 0.6604 0.72228 0.22341 0.0
H705 H 0.71953 0.71125 0.26414 0.0
H706 H 0.6512 0.69632 0.29307 0.0
H707 H 0.71037 0.68476 0.33248 0.0
H708 H 0.68272 0.6614 0.52022 0.0
H709 H 0.69662 0.67936 0.43328 0.0
H710 H 0.64966 0.66322 0.31218 0.0
H711 H 0.63554 0.64573 0.40079 0.0
C712 C 0.67149 0.71415 0.24656 0.0
C713 C 0.69073 0.71902 0.23827 0.0
C714 C 0.66621 0.69904 0.28618 0.0
C715 C 0.68 0.68817 0.31849 0.0
C716 C 0.69929 0.69282 0.30908 0.0
C717 C 0.70457 0.70804 0.26968 0.0
C718 C 0.67599 0.66069 0.47383 0.0
C719 C 0.6582 0.65183 0.46718 0.0
C720 C 0.68384 0.67129 0.42388 0.0
C721 C 0.67408 0.67326 0.3657 0.0
C722 C 0.65739 0.66248 0.3567 0.0
C723 C 0.64952 0.65192 0.40695 0.0
H724 H 0.72207 0.28689 0.65938 0.0
H725 H 0.70964 0.33457 0.78051 0.0
H726 H 0.70271 0.3009 0.57504 0.0
H727 H 0.69011 0.34852 0.69715 0.0
H728 H 0.65451 0.36962 0.52955 0.0
H729 H 0.68277 0.36126 0.59178 0.0
H730 H 0.66806 0.30195 0.57611 0.0
H731 H 0.64019 0.3102 0.51384 0.0
C732 C 0.71628 0.30099 0.66647 0.0
C733 C 0.71747 0.30967 0.72646 0.0
C734 C 0.70472 0.30879 0.61877 0.0
C735 C 0.6943 0.32554 0.63004 0.0
C736 C 0.69781 0.33559 0.68665 0.0
C737 C 0.70931 0.32774 0.73429 0.0
C738 C 0.65733 0.3548 0.53946 0.0
C739 C 0.64497 0.34061 0.51681 0.0
C740 C 0.67358 0.35001 0.57493 0.0
C741 C 0.67794 0.3309 0.5882 0.0
C742 C 0.66553 0.31678 0.56546 0.0
C743 C 0.64932 0.32155 0.53036 0.0
H744 H 0.07657 0.36418 0.94773 0.0
H745 H 0.02777 0.35536 0.06766 0.0
H746 H 0.06186 0.3455 0.86439 0.0
H747 H 0.01217 0.33764 0.98278 0.0
H748 H 0.00925 0.27957 0.88044 0.0
H749 H 0.01627 0.30678 0.94853 0.0
H750 H 0.04095 0.33606 0.78726 0.0
H751 H 0.03504 0.30822 0.72135 0.0
C752 C 0.06205 0.35941 0.9544 0.0
C753 C 0.05324 0.36135 0.01387 0.0
C754 C 0.0536 0.3484 0.9067 0.0
C755 C 0.03594 0.3394 0.91714 0.0
C756 C 0.02604 0.34369 0.9736 0.0
C757 C 0.03472 0.35434 0.02176 0.0
C758 C 0.016 0.29196 0.8599 0.0
C759 C 0.0218 0.29185 0.79621 0.0
C760 C 0.01989 0.30771 0.89857 0.0
C761 C 0.02932 0.32383 0.87386 0.0
C762 C 0.0341 0.3239 0.80876 0.0
C763 C 0.03061 0.308 0.77073 0.0
H764 H 1.00435 0.71816 0.19011 0.0
H765 H 0.02816 0.68101 0.33227 0.0
H766 H 0.0206 0.70007 0.10685 0.0
H767 H 0.04413 0.66273 0.24918 0.0
H768 H 0.07133 0.63567 0.06307 0.0
H769 H 0.04424 0.64403 0.13253 0.0
H770 H 0.05848 0.70328 0.11345 0.0
H771 H 0.08534 0.69523 0.04758 0.0
C772 C 0.01202 0.7054 0.20317 0.0
C773 C 0.01501 0.70093 0.26743 0.0
C774 C 0.02146 0.69514 0.15562 0.0
C775 C 0.0338 0.68014 0.17179 0.0
C776 C 0.03464 0.67411 0.23535 0.0
C777 C 0.02545 0.68455 0.28289 0.0
C778 C 0.06867 0.65043 0.07419 0.0
C779 C 0.08067 0.66472 0.05012 0.0
C780 C 0.05311 0.65521 0.11331 0.0
C781 C 0.04903 0.67434 0.12698 0.0
C782 C 0.06096 0.68847 0.10246 0.0
C783 C 0.07659 0.68375 0.06523 0.0
H784 H 0.53987 0.33331 0.48585 0.0
H785 H 0.57996 0.36001 0.6125 0.0
H786 H 0.52627 0.31577 0.57459 0.0
H787 H 0.56627 0.34244 0.70241 0.0
H788 H 0.55758 0.28551 0.8132 0.0
H789 H 0.56738 0.30897 0.73425 0.0
H790 H 0.509 0.31518 0.67415 0.0
H791 H 0.49929 0.29146 0.75254 0.0
C792 C 0.54521 0.33607 0.53337 0.0
C793 C 0.56078 0.34832 0.54225 0.0
C794 C 0.53748 0.32588 0.58441 0.0
C795 C 0.54526 0.32744 0.6459 0.0
C796 C 0.56005 0.34068 0.65561 0.0
C797 C 0.56767 0.35108 0.60436 0.0
C798 C 0.54682 0.2919 0.78326 0.0
C799 C 0.52767 0.2864 0.7891 0.0
C800 C 0.55242 0.30555 0.73833 0.0
C801 C 0.539 0.31413 0.69767 0.0
C802 C 0.51978 0.30882 0.70416 0.0
C803 C 0.51419 0.2952 0.74928 0.0
H804 H 0.58607 0.65437 0.41003 0.0
H805 H 0.55418 0.66463 0.58151 0.0
H806 H 0.5585 0.6633 0.34608 0.0
H807 H 0.52628 0.67335 0.51802 0.0
H808 H 0.50114 0.7201 0.37886 0.0
H809 H 0.51848 0.70052 0.45455 0.0
H810 H 0.52674 0.65803 0.30901 0.0
H811 H 0.5099 0.67812 0.23304 0.0
C812 C 0.57287 0.65785 0.43384 0.0
C813 C 0.57207 0.65849 0.50039 0.0
C814 C 0.55699 0.66296 0.39736 0.0
C815 C 0.54 0.66904 0.4267 0.0
C816 C 0.53906 0.66883 0.49367 0.0
C817 C 0.55495 0.66365 0.53008 0.0
C818 C 0.50555 0.70602 0.36428 0.0
C819 C 0.50399 0.70056 0.30023 0.0
C820 C 0.51579 0.69483 0.40754 0.0
C821 C 0.52455 0.67786 0.38753 0.0
C822 C 0.52064 0.67122 0.3257 0.0
C823 C 0.51055 0.68251 0.28243 0.0
H824 H 0.22414 0.71588 0.22787 0.0
H825 H 0.16364 0.72458 0.24828 0.0
H826 H 0.21793 0.68671 0.16739 0.0
H827 H 0.15756 0.69579 0.18873 0.0
H828 H 0.14566 0.64225 0.10799 0.0
H829 H 0.16062 0.66073 0.19255 0.0
H830 H 0.2037 0.67953 0.06058 0.0
H831 H 0.1888 0.66091 0.97677 0.0
C832 C 0.20956 0.71159 0.21958 0.0
C833 C 0.1944 0.7227 0.24243 0.0
C834 C 0.20602 0.69484 0.18533 0.0
C835 C 0.18726 0.6887 0.17427 0.0
C836 C 0.17219 0.69976 0.19777 0.0
C837 C 0.1757 0.71651 0.23112 0.0
C838 C 0.15911 0.64917 0.09833 0.0
C839 C 0.16601 0.65025 0.03581 0.0
C840 C 0.16746 0.66015 0.1464 0.0
C841 C 0.18294 0.67214 0.13259 0.0
C842 C 0.19173 0.67057 0.07281 0.0
C843 C 0.18334 0.65965 0.02483 0.0
H844 H 0.20932 0.2917 0.84389 0.0
H845 H 0.17437 0.32215 0.70962 0.0
H846 H 0.1932 0.30797 0.93202 0.0
H847 H 0.15855 0.33859 0.79701 0.0
H848 H 0.13797 0.3708 0.97323 0.0
H849 H 0.16139 0.36068 0.89345 0.0
H850 H 0.15858 0.30347 0.96615 0.0
H851 H 0.13517 0.31339 0.04463 0.0
C852 C 0.19877 0.30242 0.83319 0.0
C853 C 0.1931 0.30571 0.77004 0.0
C854 C 0.18939 0.31159 0.88354 0.0
C855 C 0.17447 0.32445 0.87144 0.0
C856 C 0.17003 0.32888 0.80798 0.0
C857 C 0.1791 0.31947 0.75791 0.0
C858 C 0.14245 0.3561 0.97226 0.0
C859 C 0.1345 0.34287 0.01469 0.0
C860 C 0.15587 0.35032 0.92674 0.0
C861 C 0.16192 0.3313 0.92374 0.0
C862 C 0.15444 0.31827 0.96769 0.0
C863 C 0.14082 0.32394 1.0122 0.0
H864 H 0.06458 0.24875 0.08202 0.0
H865 H 0.06452 0.25139 0.28069 0.0
H866 H 0.0994 0.24822 0.07891 0.0
H867 H 0.09939 0.25095 0.28394 0.0
H868 H 0.15808 0.2665 0.07194 0.0
H869 H 0.12336 0.269 0.07811 0.0
H870 H 0.12803 0.2624 0.28248 0.0
H871 H 0.1625 0.26101 0.26956 0.0
C872 C 0.07243 0.24982 0.12621 0.0
C873 C 0.06413 0.25819 0.18026 0.0
C874 C 0.09236 0.25002 0.12424 0.0
C875 C 0.10244 0.25421 0.181 0.0
C876 C 0.09238 0.25152 0.23856 0.0
C877 C 0.07243 0.25127 0.23657 0.0
C878 C 0.15121 0.26525 0.11787 0.0
C879 C 0.16018 0.25563 0.16826 0.0
C880 C 0.13132 0.2662 0.12116 0.0
C881 C 0.12237 0.26143 0.17948 0.0
C882 C 0.13381 0.26273 0.23492 0.0
C883 C 0.15364 0.26224 0.22757 0.0
H884 H 0.12511 0.71986 0.41905 0.0
H885 H 0.09411 0.7001 0.58303 0.0
H886 H 0.14995 0.73132 0.48775 0.0
H887 H 0.11861 0.71283 0.65171 0.0
H888 H 0.16418 0.7807 0.5498 0.0
H889 H 0.1651 0.74937 0.59764 0.0
H890 H 0.10397 0.74787 0.58984 0.0
H891 H 0.10318 0.77862 0.54428 0.0
C892 C 0.12402 0.71685 0.46948 0.0
C893 C 0.10664 0.71135 0.49656 0.0
C894 C 0.1385 0.72337 0.50955 0.0
C895 C 0.13464 0.72553 0.57495 0.0
C896 C 0.12093 0.71332 0.60104 0.0
C897 C 0.10674 0.70604 0.56126 0.0
C898 C 0.15083 0.77439 0.56449 0.0
C899 C 0.13359 0.78099 0.53812 0.0
C900 C 0.15144 0.75625 0.59175 0.0
C901 C 0.13461 0.74565 0.59613 0.0
C902 C 0.1172 0.75544 0.58935 0.0
C903 C 0.1167 0.7734 0.56181 0.0
H904 H 0.64791 0.77304 0.57527 0.0
H905 H 0.62138 0.75036 0.41145 0.0
H906 H 0.61699 0.77875 0.62431 0.0
H907 H 0.58976 0.7541 0.45952 0.0
H908 H 0.54558 0.77576 0.65146 0.0
H909 H 0.56349 0.77548 0.55216 0.0
H910 H 0.60351 0.73695 0.63876 0.0
H911 H 0.58618 0.73894 0.73857 0.0
C912 C 0.63519 0.76955 0.5486 0.0
C913 C 0.63572 0.75541 0.50156 0.0
C914 C 0.61749 0.7727 0.57708 0.0
C915 C 0.60114 0.76465 0.54879 0.0
C916 C 0.60224 0.7589 0.48506 0.0
C917 C 0.62036 0.75666 0.45829 0.0
C918 C 0.55795 0.76667 0.64861 0.0
C919 C 0.5678 0.76123 0.70446 0.0
C920 C 0.56817 0.7667 0.59148 0.0
C921 C 0.58587 0.75772 0.59032 0.0
C922 C 0.59052 0.74507 0.64005 0.0
C923 C 0.58025 0.74586 0.69699 0.0
H924 H 0.59444 0.29816 0.84565 0.0
H925 H 0.61886 0.27607 0.67667 0.0
H926 H 0.58953 0.26613 0.88626 0.0
H927 H 0.61582 0.24353 0.7167 0.0
H928 H 0.59258 0.19415 0.88806 0.0
H929 H 0.59457 0.21492 0.79564 0.0
H930 H 0.63034 0.25273 0.90419 0.0
H931 H 0.62659 0.23247 0.99703 0.0
C932 C 0.59836 0.28626 0.81578 0.0
C933 C 0.61245 0.28842 0.7691 0.0
C934 C 0.59578 0.26791 0.83963 0.0
C935 C 0.60446 0.25256 0.80775 0.0
C936 C 0.6105 0.25524 0.7449 0.0
C937 C 0.61225 0.2739 0.7226 0.0
C938 C 0.60148 0.20663 0.89161 0.0
C939 C 0.60558 0.21477 0.95164 0.0
C940 C 0.60245 0.2185 0.83831 0.0
C941 C 0.61101 0.23626 0.84528 0.0
C942 C 0.6225 0.23961 0.8992 0.0
C943 C 0.62074 0.22769 0.95209 0.0
H944 H 0.06844 0.76223 0.6453 0.0
H945 H 0.0443 0.76027 0.83182 0.0
H946 H 0.09256 0.73919 0.67886 0.0
H947 H 0.06961 0.73943 0.86697 0.0
H948 H 0.12227 0.77475 0.91971 0.0
H949 H 0.09235 0.76925 0.86481 0.0
H950 H 0.12056 0.73008 0.73857 0.0
H951 H 0.15039 0.73675 0.79184 0.0
C952 C 0.0677 0.75635 0.69289 0.0
C953 C 0.05806 0.76616 0.74149 0.0
C954 C 0.08184 0.74355 0.71203 0.0
C955 C 0.08484 0.7411 0.77746 0.0
C956 C 0.06887 0.7432 0.81703 0.0
C957 C 0.05438 0.75534 0.79656 0.0
C958 C 0.12225 0.76565 0.87814 0.0
C959 C 0.13719 0.7528 0.86836 0.0
C960 C 0.10486 0.76168 0.84881 0.0
C961 C 0.10361 0.74702 0.8029 0.0
C962 C 0.12061 0.73989 0.77781 0.0
C963 C 0.13781 0.74427 0.8076 0.0
H964 H 0.61823 0.81557 0.96398 0.0
H965 H 0.63765 0.77202 0.838 0.0
H966 H 0.58838 0.799 0.97721 0.0
H967 H 0.60857 0.75422 0.85652 0.0
H968 H 0.57597 0.72071 0.03424 0.0
H969 H 0.5774 0.74081 0.93964 0.0
H970 H 0.61841 0.77616 0.03613 0.0
H971 H 0.62035 0.75419 0.12221 0.0
C972 C 0.61601 0.80276 0.93659 0.0
C973 C 0.63151 0.79223 0.91275 0.0
C974 C 0.59862 0.79328 0.94377 0.0
C975 C 0.59795 0.77394 0.92698 0.0
C976 C 0.6098 0.76832 0.87668 0.0
C977 C 0.62665 0.77852 0.86672 0.0
C978 C 0.58637 0.73203 0.03323 0.0
C979 C 0.59763 0.73637 0.08744 0.0
C980 C 0.58658 0.74389 0.97976 0.0
C981 C 0.59746 0.76048 0.98098 0.0
C982 C 0.60994 0.76351 0.03252 0.0
C983 C 0.61109 0.75081 0.08251 0.0
H984 H 0.64506 0.25945 0.29162 0.0
H985 H 0.63673 0.26935 0.49052 0.0
H986 H 0.61598 0.2762 0.2672 0.0
H987 H 0.60669 0.2831 0.47023 0.0
H988 H 0.55161 0.30312 0.33259 0.0
H989 H 0.57442 0.28972 0.34659 0.0
H990 H 0.59456 0.24626 0.34661 0.0
H991 H 0.55885 0.2392 0.31438 0.0
C992 C 0.63765 0.2664 0.33034 0.0
C993 C 0.64093 0.26077 0.39344 0.0
C994 C 0.62065 0.27575 0.31632 0.0
C995 C 0.60797 0.28027 0.36613 0.0
C996 C 0.61528 0.28013 0.42903 0.0
C997 C 0.63299 0.27205 0.44127 0.0
C998 C 0.54211 0.29147 0.32018 0.0
C999 C 0.54147 0.27013 0.31114 0.0
C1000 C 0.56169 0.30016 0.33993 0.0
C1001 C 0.58628 0.27881 0.35256 0.0
C1002 C 0.58419 0.25755 0.34394 0.0
C1003 C 0.56125 0.25543 0.32268 0.0
H1004 H 0.13169 0.29876 0.38919 0.0
H1005 H 0.09561 0.29615 0.55493 0.0
H1006 H 0.10542 0.28783 0.32381 0.0
H1007 H 0.06931 0.28713 0.48783 0.0
H1008 H 0.11423 0.2324 0.47975 0.0
H1009 H 0.11511 0.25633 0.39784 0.0
H1010 H 0.05404 0.26159 0.40674 0.0
H1011 H 0.05315 0.2357 0.48271 0.0
C1012 C 0.11798 0.29682 0.41147 0.0
C1013 C 0.11642 0.29538 0.47837 0.0
C1014 C 0.1027 0.29099 0.37342 0.0
C1015 C 0.08676 0.28318 0.40389 0.0
C1016 C 0.08267 0.29051 0.46484 0.0
C1017 C 0.09797 0.29552 0.50408 0.0
C1018 C 0.10091 0.23733 0.45976 0.0
C1019 C 0.08374 0.23313 0.48983 0.0
C1020 C 0.10129 0.25141 0.41316 0.0
C1021 C 0.0847 0.26217 0.40073 0.0
C1022 C 0.06713 0.25413 0.41727 0.0
C1023 C 0.06668 0.23922 0.46113 0.0
H1024 H 0.13495 0.04357 0.1371 0.0
H1025 H 0.08437 0.0584 0.03146 0.0
H1026 H 0.13395 0.01195 0.09283 0.0
H1027 H 0.08233 0.02612 0.9918 0.0
H1028 H 0.0929 0.97233 0.87739 0.0
H1029 H 0.09416 1.00433 0.92102 0.0
H1030 H 0.12087 0.98239 0.09134 0.0
H1031 H 0.12045 0.95064 0.04562 0.0
C1032 C 0.1235 0.04017 0.10463 0.0
C1033 C 0.1099 0.05399 0.08763 0.0
C1034 C 0.12273 0.0217 0.07987 0.0
C1035 C 0.10809 0.0161 0.03803 0.0
C1036 C 0.09412 0.02974 0.02258 0.0
C1037 C 0.09508 0.04835 0.04657 0.0
C1038 C 0.09911 0.9744 0.92407 0.0
C1039 C 0.10666 0.95889 0.95777 0.0
C1040 C 0.0997 0.99282 0.94961 0.0
C1041 C 0.10755 0.99631 1.01036 0.0
C1042 C 0.11504 0.98065 0.04403 0.0
C1043 C 0.11476 0.96229 0.0179 0.0
H1044 H 0.30637 0.73232 0.26151 0.0
H1045 H 0.31732 0.78565 0.35602 0.0
H1046 H 0.33947 0.73082 0.22864 0.0
H1047 H 0.34984 0.78494 0.31876 0.0
H1048 H 0.41241 0.77205 0.29343 0.0
H1049 H 0.37963 0.77228 0.32985 0.0
H1050 H 0.36261 0.74217 0.15982 0.0
H1051 H 0.3957 0.74131 0.12498 0.0
C1052 C 0.31574 0.74376 0.27556 0.0
C1053 C 0.3088 0.75915 0.31163 0.0
C1054 C 0.33482 0.74306 0.25554 0.0
C1055 C 0.34766 0.7578 0.27031 0.0
C1056 C 0.34072 0.7731 0.30675 0.0
C1057 C 0.32176 0.77368 0.32742 0.0
C1058 C 0.40166 0.76561 0.26349 0.0
C1059 C 0.4068 0.75676 0.20598 0.0
C1060 C 0.3827 0.76577 0.28436 0.0
C1061 C 0.36809 0.75733 0.24803 0.0
C1062 C 0.37328 0.74856 0.19013 0.0
C1063 C 0.39233 0.74816 0.16972 0.0
H1064 H 0.63499 0.05769 0.52163 0.0
H1065 H 0.5877 0.04606 0.39705 0.0
H1066 H 0.63366 0.0254 0.56209 0.0
H1067 H 0.58677 0.01337 0.43527 0.0
H1068 H 0.57788 0.96024 0.55476 0.0
H1069 H 0.57899 0.99256 0.51565 0.0
H1070 H 0.63971 0.99373 0.54624 0.0
H1071 H 0.63835 0.96194 0.59029 0.0
C1072 C 0.62445 0.04813 0.50208 0.0
C1073 C 0.61149 0.0546 0.45578 0.0
C1074 C 0.62372 0.02942 0.52519 0.0
C1075 C 0.61016 0.01634 0.50223 0.0
C1076 C 0.59724 0.02286 0.4555 0.0
C1077 C 0.5978 0.04169 0.43309 0.0
C1078 C 0.59148 0.9674 0.55448 0.0
C1079 C 0.60799 0.95813 0.5768 0.0
C1080 C 0.59217 0.98605 0.53064 0.0
C1081 C 0.60944 0.99617 0.52727 0.0
C1082 C 0.626 0.98681 0.54873 0.0
C1083 C 0.62527 0.96824 0.57329 0.0
H1084 H 0.40517 0.22637 0.78962 0.0
H1085 H 0.40302 0.28484 0.85088 0.0
H1086 H 0.37215 0.22808 0.75766 0.0
H1087 H 0.37034 0.28698 0.81403 0.0
H1088 H 0.30573 0.28083 0.79968 0.0
H1089 H 0.33885 0.27929 0.83319 0.0
H1090 H 0.35018 0.23851 0.68434 0.0
H1091 H 0.3169 0.23965 0.65262 0.0
C1092 C 0.39776 0.23967 0.79651 0.0
C1093 C 0.40712 0.25539 0.8239 0.0
C1094 C 0.37869 0.24075 0.77682 0.0
C1095 C 0.36818 0.2577 0.78278 0.0
C1096 C 0.3776 0.27353 0.80929 0.0
C1097 C 0.39665 0.27238 0.82968 0.0
C1098 C 0.3153 0.27159 0.77389 0.0
C1099 C 0.30846 0.26033 0.72341 0.0
C1100 C 0.33447 0.27074 0.79301 0.0
C1101 C 0.34758 0.25875 0.76188 0.0
C1102 C 0.34069 0.24764 0.71088 0.0
C1103 C 0.32148 0.24833 0.6923 0.0
H1104 H 0.80839 0.27359 0.74788 0.0
H1105 H 0.82363 0.23973 0.911 0.0
H1106 H 0.84126 0.27199 0.70936 0.0
H1107 H 0.85677 0.23864 0.87351 0.0
H1108 H 0.917 0.2646 0.81657 0.0
H1109 H 0.884 0.26461 0.8544 0.0
H1110 H 0.86516 0.24505 0.67041 0.0
H1111 H 0.89825 0.24454 0.63306 0.0
C1112 C 0.81881 0.26584 0.7756 0.0
C1113 C 0.8134 0.25681 0.83259 0.0
C1114 C 0.83762 0.26486 0.75339 0.0
C1115 C 0.85169 0.25523 0.78836 0.0
C1116 C 0.84631 0.24625 0.84557 0.0
C1117 C 0.82734 0.24681 0.86695 0.0
C1118 C 0.90581 0.26032 0.78414 0.0
C1119 C 0.9103 0.25462 0.72167 0.0
C1120 C 0.88692 0.26019 0.80599 0.0
C1121 C 0.87191 0.25481 0.76553 0.0
C1122 C 0.87636 0.24932 0.70279 0.0
C1123 C 0.89532 0.24898 0.68142 0.0
H1124 H 0.90172 0.77799 0.39217 0.0
H1125 H 0.91199 0.73504 0.25037 0.0
H1126 H 0.86824 0.77882 0.36242 0.0
H1127 H 0.87885 0.7365 0.21758 0.0
H1128 H 0.81519 0.73033 0.20199 0.0
H1129 H 0.84796 0.72896 0.23664 0.0
H1130 H 0.84508 0.78782 0.29344 0.0
H1131 H 0.81182 0.78859 0.26528 0.0
C1132 C 0.89685 0.76889 0.35393 0.0
C1133 C 0.90959 0.75639 0.32397 0.0
C1134 C 0.87755 0.76941 0.33635 0.0
C1135 C 0.8704 0.75771 0.2872 0.0
C1136 C 0.88337 0.74544 0.25663 0.0
C1137 C 0.90255 0.74467 0.27513 0.0
C1138 C 0.82129 0.74293 0.22311 0.0
C1139 C 0.81037 0.75958 0.23034 0.0
C1140 C 0.84046 0.74226 0.24205 0.0
C1141 C 0.84966 0.75831 0.26789 0.0
C1142 C 0.83876 0.77496 0.27489 0.0
C1143 C 0.8195 0.77552 0.25721 0.0
H1144 H 0.59189 0.5452 0.65874 0.0
H1145 H 0.6343 0.55811 0.5172 0.0
H1146 H 0.59051 0.51252 0.62071 0.0
H1147 H 0.63241 0.52583 0.47697 0.0
H1148 H 0.63801 0.46239 0.448 0.0
H1149 H 0.63982 0.49442 0.48964 0.0
H1150 H 0.58071 0.49139 0.54445 0.0
H1151 H 0.57938 0.45885 0.50812 0.0
C1152 C 0.60083 0.54111 0.6191 0.0
C1153 C 0.61334 0.55436 0.59166 0.0
C1154 C 0.59997 0.52228 0.59675 0.0
C1155 C 0.61137 0.51612 0.54533 0.0
C1156 C 0.6237 0.52957 0.51751 0.0
C1157 C 0.62476 0.54826 0.54053 0.0
C1158 C 0.62542 0.46833 0.46984 0.0
C1159 C 0.60854 0.4576 0.47421 0.0
C1160 C 0.62637 0.48704 0.49301 0.0
C1161 C 0.6104 0.49593 0.52077 0.0
C1162 C 0.59349 0.48524 0.52463 0.0
C1163 C 0.59262 0.46646 0.50232 0.0
H1164 H 0.08156 0.54989 0.93261 0.0
H1165 H 0.14194 0.55295 0.96939 0.0
H1166 H 0.08078 0.5183 0.97765 0.0
H1167 H 0.14147 0.52068 1.00858 0.0
H1168 H 0.13314 0.46828 0.13339 0.0
H1169 H 0.13412 0.50045 0.09032 0.0
H1170 H 0.0871 0.48681 0.96564 0.0
H1171 H 0.08561 0.45519 1.01153 0.0
C1172 C 0.09476 0.54391 0.94981 0.0
C1173 C 0.11181 0.5544 0.94689 0.0
C1174 C 0.09437 0.52543 0.97491 0.0
C1175 C 0.11108 0.51652 0.99711 0.0
C1176 C 0.12817 0.52689 0.99327 0.0
C1177 C 0.1285 0.54549 0.96921 0.0
C1178 C 0.12304 0.47223 0.09675 0.0
C1179 C 0.1092 0.45918 0.0764 0.0
C1180 C 0.12363 0.49072 0.07151 0.0
C1181 C 0.11063 0.49663 0.02412 0.0
C1182 C 0.09708 0.48328 1.00302 0.0
C1183 C 0.09628 0.46497 0.02911 0.0
H1184 H 0.19217 0.15629 0.2286 0.0
H1185 H 0.14763 0.14849 0.36654 0.0
H1186 H 0.211 0.1736 0.30699 0.0
H1187 H 0.16617 0.16607 0.44501 0.0
H1188 H 0.20219 0.19926 0.57999 0.0
H1189 H 0.19332 0.17227 0.5129 0.0
H1190 H 0.20589 0.20558 0.34543 0.0
H1191 H 0.21494 0.23234 0.41308 0.0
C1192 C 0.18691 0.15727 0.27697 0.0
C1193 C 0.16858 0.15065 0.29173 0.0
C1194 C 0.1975 0.16763 0.32155 0.0
C1195 C 0.18999 0.17168 0.38209 0.0
C1196 C 0.17255 0.1632 0.39912 0.0
C1197 C 0.16196 0.1528 0.35437 0.0
C1198 C 0.20383 0.20044 0.52884 0.0
C1199 C 0.20978 0.21767 0.50165 0.0
C1200 C 0.19848 0.18508 0.49032 0.0
C1201 C 0.19882 0.18663 0.42352 0.0
C1202 C 0.20577 0.20363 0.39656 0.0
C1203 C 0.21106 0.21901 0.43521 0.0
H1204 H 0.20501 0.7893 0.58457 0.0
H1205 H 0.20341 0.83516 0.44929 0.0
H1206 H 0.18579 0.80799 0.65847 0.0
H1207 H 0.18443 0.8541 0.52398 0.0
H1208 H 0.15565 0.87615 0.73787 0.0
H1209 H 0.1826 0.86495 0.67229 0.0
H1210 H 0.148 0.81915 0.60139 0.0
H1211 H 0.12129 0.83032 0.66414 0.0
C1212 C 0.20177 0.8039 0.57252 0.0
C1213 C 0.20631 0.81095 0.51181 0.0
C1214 C 0.1905 0.81452 0.61451 0.0
C1215 C 0.1837 0.83255 0.59712 0.0
C1216 C 0.18976 0.8404 0.5391 0.0
C1217 C 0.20085 0.82964 0.49666 0.0
C1218 C 0.15367 0.86403 0.70691 0.0
C1219 C 0.13623 0.85418 0.70659 0.0
C1220 C 0.16914 0.85753 0.66991 0.0
C1221 C 0.16742 0.84099 0.63266 0.0
C1222 C 0.1498 0.83176 0.63026 0.0
C1223 C 0.13444 0.83829 0.66619 0.0
H1224 H 0.50593 0.78969 0.98178 0.0
H1225 H 0.54615 0.80525 0.12722 0.0
H1226 H 0.51717 0.8157 0.91517 0.0
H1227 H 0.55628 0.83227 0.06447 0.0
H1228 H 0.58877 0.8628 0.90695 0.0
H1229 H 0.57387 0.84307 0.98603 0.0
H1230 H 0.52103 0.84553 0.88061 0.0
H1231 H 0.53697 0.86401 0.79843 0.0
C1232 C 0.51688 0.799 1.00013 0.0
C1233 C 0.52521 0.79529 0.05965 0.0
C1234 C 0.52333 0.81418 0.96205 0.0
C1235 C 0.53793 0.82652 0.98315 0.0
C1236 C 0.54553 0.82309 0.04439 0.0
C1237 C 0.53955 0.80758 0.08125 0.0
C1238 C 0.57365 0.8601 0.90257 0.0
C1239 C 0.56405 0.86544 0.84669 0.0
C1240 C 0.56498 0.84833 0.94798 0.0
C1241 C 0.54607 0.84192 0.94033 0.0
C1242 C 0.53575 0.84933 0.88811 0.0
C1243 C 0.54469 0.86069 0.84169 0.0
H1244 H 0.56396 0.13993 0.24805 0.0
H1245 H 0.57293 0.19901 0.29364 0.0
H1246 H 0.53574 0.14876 0.18529 0.0
H1247 H 0.54541 0.20767 0.23158 0.0
H1248 H 0.49305 0.22379 0.14443 0.0
H1249 H 0.51152 0.20714 0.22529 0.0
H1250 H 0.52773 0.16516 0.08597 0.0
H1251 H 0.50871 0.18157 1.00621 0.0
C1252 C 0.55992 0.15473 0.24506 0.0
C1253 C 0.57088 0.16869 0.27597 0.0
C1254 C 0.54373 0.15982 0.20907 0.0
C1255 C 0.53798 0.17896 0.20386 0.0
C1256 C 0.5489 0.19276 0.23551 0.0
C1257 C 0.56499 0.18774 0.27074 0.0
C1258 C 0.49937 0.21025 0.1323 0.0
C1259 C 0.49919 0.20395 0.06889 0.0
C1260 C 0.5105 0.20094 0.17824 0.0
C1261 C 0.52178 0.18513 0.16181 0.0
C1262 C 0.51937 0.17729 0.10073 0.0
C1263 C 0.50812 0.18655 0.05499 0.0
H1264 H 0.99012 0.80342 0.53202 0.0
H1265 H 0.05029 0.79311 0.50924 0.0
H1266 H 0.9975 0.83203 0.59484 0.0
H1267 H 0.05744 0.82117 0.5705 0.0
H1268 H 0.07131 0.87485 0.64968 0.0
H1269 H 0.05563 0.85622 0.56695 0.0
H1270 H 0.01273 0.83897 0.70179 0.0
H1271 H 0.02832 0.85781 0.78382 0.0
C1272 C 1.00484 0.80725 0.53997 0.0
C1273 C 0.01956 0.79588 0.5154 0.0
C1274 C 0.00907 0.82366 0.57573 0.0
C1275 C 0.02808 0.82918 0.58654 0.0
C1276 C 0.04265 0.81778 0.56165 0.0
C1277 C 0.03848 0.80143 0.52697 0.0
C1278 C 0.05777 0.86826 0.6604 0.0
C1279 C 0.05105 0.86787 0.72326 0.0
C1280 C 0.049 0.85715 0.61337 0.0
C1281 C 0.03324 0.8456 0.62828 0.0
C1282 C 0.02483 0.84761 0.68853 0.0
C1283 C 0.03363 0.85869 0.73548 0.0
H1284 H 0.02506 0.1856 0.56936 0.0
H1285 H 0.01051 0.2298 0.43658 0.0
H1286 H 0.04395 0.16976 0.48773 0.0
H1287 H 0.02943 0.21402 0.35431 0.0
H1288 H 0.08965 0.20065 0.27835 0.0
H1289 H 0.06414 0.21155 0.34647 0.0
H1290 H 0.04764 0.15356 0.38276 0.0
H1291 H 0.0735 0.14244 0.31336 0.0
C1292 C 0.02497 0.19132 0.52147 0.0
C1293 C 0.01578 0.20867 0.509 0.0
C1294 C 0.03604 0.18235 0.47473 0.0
C1295 C 0.03851 0.19068 0.41445 0.0
C1296 C 0.02804 0.20725 0.40037 0.0
C1297 C 0.0168 0.21612 0.44708 0.0
C1298 C 0.08067 0.19007 0.30065 0.0
C1299 C 0.08387 0.17055 0.29038 0.0
C1300 C 0.06579 0.19642 0.33937 0.0
C1301 C 0.05358 0.1835 0.36984 0.0
C1302 C 0.05675 0.16394 0.36008 0.0
C1303 C 0.07161 0.15754 0.32041 0.0
H1304 H 0.72113 0.21555 0.02678 0.0
H1305 H 0.66275 0.23089 0.99026 0.0
H1306 H 0.7103 0.18977 0.09641 0.0
H1307 H 0.65201 0.20563 0.05979 0.0
H1308 H 0.63308 0.15439 0.15966 0.0
H1309 H 0.64832 0.17242 0.07429 0.0
H1310 H 0.69579 0.18433 0.19843 0.0
H1311 H 0.68065 0.16593 0.28254 0.0
C1312 C 0.70601 0.21349 0.03355 0.0
C1313 C 0.69287 0.22546 1.00275 0.0
C1314 C 0.69976 0.19866 0.07359 0.0
C1315 C 0.68019 0.19531 0.0837 0.0
C1316 C 0.66715 0.20729 0.05246 0.0
C1317 C 0.67337 0.22204 0.01285 0.0
C1318 C 0.6473 0.15986 0.16727 0.0
C1319 C 0.65585 0.15822 0.22746 0.0
C1320 C 0.65587 0.17069 0.11885 0.0
C1321 C 0.67317 0.18036 0.12951 0.0
C1322 C 0.68257 0.17714 0.18777 0.0
C1323 C 0.67398 0.1663 0.23602 0.0
H1324 H 0.63175 0.85084 0.89806 0.0
H1325 H 0.66762 0.85881 0.73408 0.0
H1326 H 0.65952 0.84239 0.962 0.0
H1327 H 0.69554 0.84945 0.7975 0.0
H1328 H 0.72244 0.79621 0.91805 0.0
H1329 H 0.70396 0.8168 0.84781 0.0
H1330 H 0.69135 0.85344 1.00659 0.0
H1331 H 0.71002 0.83293 0.07632 0.0
C1332 C 0.64571 0.85134 0.87631 0.0
C1333 C 0.64762 0.85593 0.81164 0.0
C1334 C 0.66163 0.84639 0.91277 0.0
C1335 C 0.6798 0.84521 0.88495 0.0
C1336 C 0.68178 0.8503 0.82045 0.0
C1337 C 0.66586 0.85582 0.78433 0.0
C1338 C 0.71698 0.80944 0.93693 0.0
C1339 C 0.71803 0.81308 1.00268 0.0
C1340 C 0.70604 0.8211 0.89681 0.0
C1341 C 0.69584 0.83658 0.92183 0.0
C1342 C 0.69886 0.84153 0.9859 0.0
C1343 C 0.70997 0.83 0.02567 0.0
H1344 H 0.65185 0.65521 0.83623 0.0
H1345 H 0.68373 0.67927 0.6809 0.0
H1346 H 0.67263 0.67165 0.91242 0.0
H1347 H 0.70468 0.69528 0.75613 0.0
H1348 H 0.71589 0.7022 0.03875 0.0
H1349 H 0.7043 0.67851 0.962 0.0
H1350 H 0.69773 0.72273 0.8214 0.0
H1351 H 0.70912 0.74606 0.89789 0.0
C1352 C 0.66386 0.66325 0.81846 0.0
C1353 C 0.66627 0.66581 0.7526 0.0
C1354 C 0.67573 0.6728 0.86208 0.0
C1355 C 0.6902 0.68513 0.84056 0.0
C1356 C 0.69351 0.68626 0.77462 0.0
C1357 C 0.68165 0.67686 0.73139 0.0
C1358 C 0.71284 0.70661 0.99039 0.0
C1359 C 0.71408 0.72589 0.97356 0.0
C1360 C 0.70584 0.69311 0.94676 0.0
C1361 C 0.70007 0.69861 0.88516 0.0
C1362 C 0.70235 0.71779 0.8677 0.0
C1363 C 0.70906 0.73122 0.91142 0.0
H1364 H 0.66171 0.33714 0.3243 0.0
H1365 H 0.63032 0.36185 0.16908 0.0
H1366 H 0.68679 0.3274 0.25117 0.0
H1367 H 0.65487 0.35135 0.09453 0.0
H1368 H 0.70134 0.33412 0.96539 0.0
H1369 H 0.68502 0.35181 0.04901 0.0
H1370 H 0.69211 0.30407 0.17612 0.0
H1371 H 0.70917 0.28704 0.09313 0.0
C1372 C 0.66042 0.34085 0.2744 0.0
C1373 C 0.64423 0.35054 0.25251 0.0
C1374 C 0.67469 0.33501 0.2321 0.0
C1375 C 0.67299 0.33827 0.16614 0.0
C1376 C 0.65705 0.34874 0.14477 0.0
C1377 C 0.64288 0.35483 0.18747 0.0
C1378 C 0.70031 0.3279 1.01245 0.0
C1379 C 0.70704 0.30939 0.02318 0.0
C1380 C 0.69049 0.33784 0.06013 0.0
C1381 C 0.68671 0.32937 0.11962 0.0
C1382 C 0.69477 0.31135 0.13166 0.0
C1383 C 0.70482 0.30154 0.08412 0.0
H1384 H 0.08438 0.36093 0.37469 0.0
H1385 H 0.03124 0.36266 0.27349 0.0
H1386 H 0.07004 0.34168 0.45685 0.0
H1387 H 0.01607 0.34454 0.35835 0.0
H1388 H 1.00431 0.28717 0.45775 0.0
H1389 H 0.01431 0.3135 0.3897 0.0
H1390 H 0.05165 0.33337 0.53943 0.0
H1391 H 0.04277 0.30624 0.60391 0.0
C1392 C 0.06918 0.35842 0.37256 0.0
C1393 C 0.05889 0.36373 0.31817 0.0
C1394 C 0.06087 0.34702 0.4196 0.0
C1395 C 0.04178 0.34096 0.41448 0.0
C1396 C 0.03091 0.34826 0.36358 0.0
C1397 C 0.03943 0.35928 0.3157 0.0
C1398 C 0.01449 0.29735 0.47595 0.0
C1399 C 0.02278 0.29465 0.53598 0.0
C1400 C 0.02021 0.31262 0.43717 0.0
C1401 C 0.03402 0.32583 0.45821 0.0
C1402 C 0.04144 0.32345 0.52002 0.0
C1403 C 0.03617 0.30795 0.55766 0.0
H1404 H 0.08018 0.65312 0.7094 0.0
H1405 H 0.06546 0.69546 0.84872 0.0
H1406 H 0.05527 0.66494 0.63907 0.0
H1407 H 0.0395 0.70633 0.78193 0.0
H1408 H 0.01319 0.73857 0.61472 0.0
H1409 H 0.03174 0.72383 0.6978 0.0
H1410 H 0.02513 0.66941 0.60478 0.0
H1411 H 1.00784 0.68497 0.51865 0.0
C1412 C 0.07125 0.66466 0.72561 0.0
C1413 C 0.07486 0.6734 0.78444 0.0
C1414 C 0.05674 0.67144 0.68544 0.0
C1415 C 0.04503 0.68682 0.70377 0.0
C1416 C 0.04829 0.6949 0.76431 0.0
C1417 C 0.06315 0.68852 0.80333 0.0
C1418 C 0.01481 0.72328 0.6139 0.0
C1419 C 0.00854 0.7129 0.56084 0.0
C1420 C 0.02578 0.71469 0.66159 0.0
C1421 C 0.03053 0.69524 0.65858 0.0
C1422 C 0.02246 0.68448 0.60859 0.0
C1423 C 0.01189 0.69326 0.55992 0.0
H1424 H 0.5354 0.35096 0.32784 0.0
H1425 H 0.57246 0.3633 0.17023 0.0
H1426 H 0.5147 0.33266 0.25753 0.0
H1427 H 0.55156 0.3453 0.09918 0.0
H1428 H 0.51456 0.27418 0.14343 0.0
H1429 H 0.52457 0.30093 0.20918 0.0
H1430 H 0.51813 0.33859 0.04893 0.0
H1431 H 0.50739 0.31169 0.98333 0.0
C1432 C 0.53841 0.35091 0.27724 0.0
C1433 C 0.55532 0.35911 0.25442 0.0
C1434 C 0.52674 0.34005 0.2371 0.0
C1435 C 0.53154 0.33731 0.17276 0.0
C1436 C 0.54732 0.34724 0.1483 0.0
C1437 C 0.55917 0.35786 0.18885 0.0
C1438 C 0.51444 0.28831 0.12307 0.0
C1439 C 0.50963 0.29094 0.05885 0.0
C1440 C 0.52032 0.30365 0.16063 0.0
C1441 C 0.52216 0.32196 0.13458 0.0
C1442 C 0.51681 0.32472 0.07062 0.0
C1443 C 0.51044 0.30938 0.03329 0.0
H1444 H 0.51939 0.68578 0.05188 0.0
H1445 H 0.519 0.73845 0.94865 0.0
H1446 H 0.53671 0.67058 0.96503 0.0
H1447 H 0.53731 0.72402 0.86364 0.0
H1448 H 0.56648 0.6948 0.70272 0.0
H1449 H 0.54296 0.70568 0.77882 0.0
H1450 H 0.56568 0.66678 0.91893 0.0
H1451 H 0.58827 0.65493 0.8399 0.0
C1452 C 0.52237 0.69392 1.00927 0.0
C1453 C 0.51703 0.71313 1.00607 0.0
C1454 C 0.53285 0.68535 0.95983 0.0
C1455 C 0.53889 0.69589 0.90624 0.0
C1456 C 0.53282 0.715 0.90247 0.0
C1457 C 0.52206 0.7234 0.95135 0.0
C1458 C 0.56631 0.68843 0.74968 0.0
C1459 C 0.57934 0.674 0.76509 0.0
C1460 C 0.55285 0.69485 0.79407 0.0
C1461 C 0.55224 0.68753 0.85663 0.0
C1462 C 0.56519 0.67277 0.87156 0.0
C1463 C 0.57835 0.66595 0.82623 0.0
H1464 H 0.2109 0.73757 0.58767 0.0
H1465 H 0.17974 0.70976 0.43792 0.0
H1466 H 0.19986 0.71359 0.66354 0.0
H1467 H 0.16941 0.68524 0.51204 0.0
H1468 H 0.13248 0.66285 0.67848 0.0
H1469 H 0.14792 0.68064 0.59367 0.0
H1470 H 0.19958 0.68286 0.70495 0.0
H1471 H 0.18362 0.66562 0.79055 0.0
C1472 C 0.20216 0.72597 0.57068 0.0
C1473 C 0.19622 0.72551 0.50696 0.0
C1474 C 0.1958 0.71212 0.61409 0.0
C1475 C 0.18353 0.6973 0.59461 0.0
C1476 C 0.17847 0.69648 0.52976 0.0
C1477 C 0.18458 0.71045 0.48687 0.0
C1478 C 0.14743 0.66631 0.68334 0.0
C1479 C 0.15702 0.66223 0.74037 0.0
C1480 C 0.15631 0.6768 0.63487 0.0
C1481 C 0.17508 0.68362 0.64213 0.0
C1482 C 0.18505 0.67833 0.69764 0.0
C1483 C 0.17607 0.66797 0.74627 0.0
H1484 H 0.13663 0.31501 0.26776 0.0
H1485 H 0.14986 0.37362 0.30848 0.0
H1486 H 0.16378 0.30488 0.32959 0.0
H1487 H 0.17743 0.36325 0.37189 0.0
H1488 H 0.20238 0.32863 0.55248 0.0
H1489 H 0.1836 0.34596 0.47392 0.0
H1490 H 0.1983 0.30422 0.33197 0.0
H1491 H 0.21676 0.28683 0.4112 0.0
C1492 C 0.14536 0.32583 0.28984 0.0
C1493 C 0.14086 0.3452 0.28322 0.0
C1494 C 0.16119 0.31997 0.32486 0.0
C1495 C 0.17307 0.33321 0.3553 0.0
C1496 C 0.16864 0.35265 0.34901 0.0
C1497 C 0.15282 0.35859 0.31279 0.0
C1498 C 0.20266 0.32388 0.50342 0.0
C1499 C 0.21137 0.30651 0.48789 0.0
C1500 C 0.1916 0.33368 0.45843 0.0
C1501 C 0.18896 0.32625 0.39688 0.0
C1502 C 0.19967 0.31017 0.37929 0.0
C1503 C 0.2107 0.30041 0.42431 0.0
loop_
_geom_bond_atom_site_label_1
_geom_bond_atom_site_label_2
_geom_bond_distance
_geom_bond_site_symmetry_2
_ccdc_geom_bond_type
C0 O16 1.251 . S
C0 O18 1.254 . S
N1 C2 1.333 . S
N1 C6 1.307 . S
N1 Zn7 2.020 . S
C2 N1 1.333 . S
C2 C3 1.379 . S
C2 H20 0.952 . S
C3 C2 1.379 . S
C3 C4 1.390 . S
C3 H30 0.949 . S
C4 C3 1.390 . S
C4 C5 1.357 . S
C5 C4 1.357 . S
C5 C6 1.370 . S
C5 H31 0.950 . S
C6 N1 1.307 . S
C6 C5 1.370 . S
C6 H24 0.948 . S
Zn7 N1 2.020 . S
Zn7 O16 2.039 . S
Zn7 O22 2.034 . S
Zn7 O26 2.025 . S
Zn7 O28 2.024 . S
C8 O27 1.246 . S
C8 O28 1.249 . S
N9 C10 1.307 . S
N9 C11 1.333 . S
N9 Zn15 2.020 . S
C10 N9 1.307 . S
C10 C14 1.370 . S
C10 H21 0.948 . S
C11 N9 1.333 . S
C11 C12 1.379 . S
C11 H19 0.952 . S
C12 C11 1.379 . S
C12 C13 1.390 . S
C12 H32 0.949 . S
C13 C12 1.390 . S
C13 C14 1.357 . S
C14 C10 1.370 . S
C14 C13 1.357 . S
C14 H33 0.950 . S
Zn15 N9 2.020 . S
Zn15 O18 2.025 . S
Zn15 O23 2.024 . S
Zn15 O25 2.039 . S
Zn15 O27 2.034 . S
O16 C0 1.251 . S
O16 Zn7 2.039 . S
C17 O22 1.246 . S
C17 O23 1.249 . S
O18 C0 1.254 . S
O18 Zn15 2.025 . S
H19 C11 0.952 . S
H20 C2 0.952 . S
H21 C10 0.948 . S
O22 Zn7 2.034 . S
O22 C17 1.246 . S
O23 Zn15 2.024 . S
O23 C17 1.249 . S
H24 C6 0.948 . S
O25 Zn15 2.039 . S
O25 C29 1.251 . S
O26 Zn7 2.025 . S
O26 C29 1.254 . S
O27 C8 1.246 . S
O27 Zn15 2.034 . S
O28 Zn7 2.024 . S
O28 C8 1.249 . S
C29 O25 1.251 . S
C29 O26 1.254 . S
H30 C3 0.949 . S
H31 C5 0.950 . S
H32 C12 0.949 . S
H33 C14 0.950 . S
C34 O50 1.251 . S
C34 O52 1.254 . S
N35 C36 1.333 . S
N35 C40 1.307 . S
N35 Zn41 2.020 . S
C36 N35 1.333 . S
C36 C37 1.379 . S
C36 H54 0.952 . S
C37 C36 1.379 . S
C37 C38 1.390 . S
C37 H64 0.949 . S
C38 C37 1.390 . S
C38 C39 1.357 . S
C39 C38 1.357 . S
C39 C40 1.370 . S
C39 H65 0.950 . S
C40 N35 1.307 . S
C40 C39 1.370 . S
C40 H58 0.948 . S
Zn41 N35 2.020 . S
Zn41 O50 2.039 . S
Zn41 O56 2.034 . S
Zn41 O60 2.025 . S
Zn41 O62 2.024 . S
C42 O61 1.246 . S
C42 O62 1.249 . S
N43 C44 1.307 . S
N43 C45 1.333 . S
N43 Zn49 2.020 . S
C44 N43 1.307 . S
C44 C48 1.370 . S
C44 H55 0.948 . S
C45 N43 1.333 . S
C45 C46 1.379 . S
C45 H53 0.952 . S
C46 C45 1.379 . S
C46 C47 1.390 . S
C46 H66 0.949 . S
C47 C46 1.390 . S
C47 C48 1.357 . S
C48 C44 1.370 . S
C48 C47 1.357 . S
C48 H67 0.950 . S
Zn49 N43 2.020 . S
Zn49 O52 2.025 . S
Zn49 O57 2.024 . S
Zn49 O59 2.039 . S
Zn49 O61 2.034 . S
O50 C34 1.251 . S
O50 Zn41 2.039 . S
C51 O56 1.246 . S
C51 O57 1.249 . S
O52 C34 1.254 . S
O52 Zn49 2.025 . S
H53 C45 0.952 . S
H54 C36 0.952 . S
H55 C44 0.948 . S
O56 Zn41 2.034 . S
O56 C51 1.246 . S
O57 Zn49 2.024 . S
O57 C51 1.249 . S
H58 C40 0.948 . S
O59 Zn49 2.039 . S
O59 C63 1.251 . S
O60 Zn41 2.025 . S
O60 C63 1.254 . S
O61 C42 1.246 . S
O61 Zn49 2.034 . S
O62 Zn41 2.024 . S
O62 C42 1.249 . S
C63 O59 1.251 . S
C63 O60 1.254 . S
H64 C37 0.949 . S
H65 C39 0.950 . S
H66 C46 0.949 . S
H67 C48 0.950 . S
C68 O84 1.251 . S
C68 O86 1.254 . S
N69 C70 1.333 . S
N69 C74 1.307 . S
N69 Zn75 2.020 . S
C70 N69 1.333 . S
C70 C71 1.379 . S
C70 H88 0.952 . S
C71 C70 1.379 . S
C71 C72 1.390 . S
C71 H98 0.949 . S
C72 C71 1.390 . S
C72 C73 1.357 . S
C73 C72 1.357 . S
C73 C74 1.370 . S
C73 H99 0.950 . S
C74 N69 1.307 . S
C74 C73 1.370 . S
C74 H92 0.948 . S
Zn75 N69 2.020 . S
Zn75 O84 2.039 . S
Zn75 O90 2.034 . S
Zn75 O94 2.025 . S
Zn75 O96 2.024 . S
C76 O95 1.246 . S
C76 O96 1.249 . S
N77 C78 1.307 . S
N77 C79 1.333 . S
N77 Zn83 2.020 . S
C78 N77 1.307 . S
C78 C82 1.370 . S
C78 H89 0.948 . S
C79 N77 1.333 . S
C79 C80 1.379 . S
C79 H87 0.952 . S
C80 C79 1.379 . S
C80 C81 1.390 . S
C80 H100 0.949 . S
C81 C80 1.390 . S
C81 C82 1.357 . S
C82 C78 1.370 . S
C82 C81 1.357 . S
C82 H101 0.950 . S
Zn83 N77 2.020 . S
Zn83 O86 2.025 . S
Zn83 O91 2.024 . S
Zn83 O93 2.039 . S
Zn83 O95 2.034 . S
O84 C68 1.251 . S
O84 Zn75 2.039 . S
C85 O90 1.246 . S
C85 O91 1.249 . S
O86 C68 1.254 . S
O86 Zn83 2.025 . S
H87 C79 0.952 . S
H88 C70 0.952 . S
H89 C78 0.948 . S
O90 Zn75 2.034 . S
O90 C85 1.246 . S
O91 Zn83 2.024 . S
O91 C85 1.249 . S
H92 C74 0.948 . S
O93 Zn83 2.039 . S
O93 C97 1.251 . S
O94 Zn75 2.025 . S
O94 C97 1.254 . S
O95 C76 1.246 . S
O95 Zn83 2.034 . S
O96 Zn75 2.024 . S
O96 C76 1.249 . S
C97 O93 1.251 . S
C97 O94 1.254 . S
H98 C71 0.949 . S
H99 C73 0.950 . S
H100 C80 0.949 . S
H101 C82 0.950 . S
C102 O118 1.251 . S
C102 O120 1.254 . S
N103 C104 1.333 . S
N103 C108 1.307 . S
N103 Zn109 2.020 . S
C104 N103 1.333 . S
C104 C105 1.379 . S
C104 H122 0.952 . S
C105 C104 1.379 . S
C105 C106 1.390 . S
C105 H132 0.949 . S
C106 C105 1.390 . S
C106 C107 1.357 . S
C107 C106 1.357 . S
C107 C108 1.370 . S
C107 H133 0.950 . S
C108 N103 1.307 . S
C108 C107 1.370 . S
C108 H126 0.948 . S
Zn109 N103 2.020 . S
Zn109 O118 2.039 . S
Zn109 O124 2.034 . S
Zn109 O128 2.025 . S
Zn109 O130 2.024 . S
C110 O129 1.246 . S
C110 O130 1.249 . S
N111 C112 1.307 . S
N111 C113 1.333 . S
N111 Zn117 2.020 . S
C112 N111 1.307 . S
C112 C116 1.370 . S
C112 H123 0.948 . S
C113 N111 1.333 . S
C113 C114 1.379 . S
C113 H121 0.952 . S
C114 C113 1.379 . S
C114 C115 1.390 . S
C114 H134 0.949 . S
C115 C114 1.390 . S
C115 C116 1.357 . S
C116 C112 1.370 . S
C116 C115 1.357 . S
C116 H135 0.950 . S
Zn117 N111 2.020 . S
Zn117 O120 2.025 . S
Zn117 O125 2.024 . S
Zn117 O127 2.039 . S
Zn117 O129 2.034 . S
O118 C102 1.251 . S
O118 Zn109 2.039 . S
C119 O124 1.246 . S
C119 O125 1.249 . S
O120 C102 1.254 . S
O120 Zn117 2.025 . S
H121 C113 0.952 . S
H122 C104 0.952 . S
H123 C112 0.948 . S
O124 Zn109 2.034 . S
O124 C119 1.246 . S
O125 Zn117 2.024 . S
O125 C119 1.249 . S
H126 C108 0.948 . S
O127 Zn117 2.039 . S
O127 C131 1.251 . S
O128 Zn109 2.025 . S
O128 C131 1.254 . S
O129 C110 1.246 . S
O129 Zn117 2.034 . S
O130 Zn109 2.024 . S
O130 C110 1.249 . S
C131 O127 1.251 . S
C131 O128 1.254 . S
H132 C105 0.949 . S
H133 C107 0.950 . S
H134 C114 0.949 . S
H135 C116 0.950 . S
C136 O152 1.251 . S
C136 O154 1.254 . S
N137 C138 1.333 . S
N137 C142 1.307 . S
N137 Zn143 2.020 . S
C138 N137 1.333 . S
C138 C139 1.379 . S
C138 H156 0.952 . S
C139 C138 1.379 . S
C139 C140 1.390 . S
C139 H166 0.949 . S
C140 C139 1.390 . S
C140 C141 1.357 . S
C141 C140 1.357 . S
C141 C142 1.370 . S
C141 H167 0.950 . S
C142 N137 1.307 . S
C142 C141 1.370 . S
C142 H160 0.948 . S
Zn143 N137 2.020 . S
Zn143 O152 2.039 . S
Zn143 O158 2.034 . S
Zn143 O162 2.025 . S
Zn143 O164 2.024 . S
C144 O163 1.246 . S
C144 O164 1.249 . S
N145 C146 1.307 . S
N145 C147 1.333 . S
N145 Zn151 2.020 . S
C146 N145 1.307 . S
C146 C150 1.370 . S
C146 H157 0.948 . S
C147 N145 1.333 . S
C147 C148 1.379 . S
C147 H155 0.952 . S
C148 C147 1.379 . S
C148 C149 1.390 . S
C148 H168 0.949 . S
C149 C148 1.390 . S
C149 C150 1.357 . S
C150 C146 1.370 . S
C150 C149 1.357 . S
C150 H169 0.950 . S
Zn151 N145 2.020 . S
Zn151 O154 2.025 . S
Zn151 O159 2.024 . S
Zn151 O161 2.039 . S
Zn151 O163 2.034 . S
O152 C136 1.251 . S
O152 Zn143 2.039 . S
C153 O158 1.246 . S
C153 O159 1.249 . S
O154 C136 1.254 . S
O154 Zn151 2.025 . S
H155 C147 0.952 . S
H156 C138 0.952 . S
H157 C146 0.948 . S
O158 Zn143 2.034 . S
O158 C153 1.246 . S
O159 Zn151 2.024 . S
O159 C153 1.249 . S
H160 C142 0.948 . S
O161 Zn151 2.039 . S
O161 C165 1.251 . S
O162 Zn143 2.025 . S
O162 C165 1.254 . S
O163 C144 1.246 . S
O163 Zn151 2.034 . S
O164 Zn143 2.024 . S
O164 C144 1.249 . S
C165 O161 1.251 . S
C165 O162 1.254 . S
H166 C139 0.949 . S
H167 C141 0.950 . S
H168 C148 0.949 . S
H169 C150 0.950 . S
C170 O186 1.251 . S
C170 O188 1.254 . S
N171 C172 1.333 . S
N171 C176 1.307 . S
N171 Zn177 2.020 . S
C172 N171 1.333 . S
C172 C173 1.379 . S
C172 H190 0.952 . S
C173 C172 1.379 . S
C173 C174 1.390 . S
C173 H200 0.949 . S
C174 C173 1.390 . S
C174 C175 1.357 . S
C175 C174 1.357 . S
C175 C176 1.370 . S
C175 H201 0.950 . S
C176 N171 1.307 . S
C176 C175 1.370 . S
C176 H194 0.948 . S
Zn177 N171 2.020 . S
Zn177 O186 2.039 . S
Zn177 O192 2.034 . S
Zn177 O196 2.025 . S
Zn177 O198 2.024 . S
C178 O197 1.246 . S
C178 O198 1.249 . S
N179 C180 1.307 . S
N179 C181 1.333 . S
N179 Zn185 2.020 . S
C180 N179 1.307 . S
C180 C184 1.370 . S
C180 H191 0.948 . S
C181 N179 1.333 . S
C181 C182 1.379 . S
C181 H189 0.952 . S
C182 C181 1.379 . S
C182 C183 1.390 . S
C182 H202 0.949 . S
C183 C182 1.390 . S
C183 C184 1.357 . S
C184 C180 1.370 . S
C184 C183 1.357 . S
C184 H203 0.950 . S
Zn185 N179 2.020 . S
Zn185 O188 2.025 . S
Zn185 O193 2.024 . S
Zn185 O195 2.039 . S
Zn185 O197 2.034 . S
O186 C170 1.251 . S
O186 Zn177 2.039 . S
C187 O192 1.246 . S
C187 O193 1.249 . S
O188 C170 1.254 . S
O188 Zn185 2.025 . S
H189 C181 0.952 . S
H190 C172 0.952 . S
H191 C180 0.948 . S
O192 Zn177 2.034 . S
O192 C187 1.246 . S
O193 Zn185 2.024 . S
O193 C187 1.249 . S
H194 C176 0.948 . S
O195 Zn185 2.039 . S
O195 C199 1.251 . S
O196 Zn177 2.025 . S
O196 C199 1.254 . S
O197 C178 1.246 . S
O197 Zn185 2.034 . S
O198 Zn177 2.024 . S
O198 C178 1.249 . S
C199 O195 1.251 . S
C199 O196 1.254 . S
H200 C173 0.949 . S
H201 C175 0.950 . S
H202 C182 0.949 . S
H203 C184 0.950 . S
C204 O220 1.251 . S
C204 O222 1.254 . S
N205 C206 1.333 . S
N205 C210 1.307 . S
N205 Zn211 2.020 . S
C206 N205 1.333 . S
C206 C207 1.379 . S
C206 H224 0.952 . S
C207 C206 1.379 . S
C207 C208 1.390 . S
C207 H234 0.949 . S
C208 C207 1.390 . S
C208 C209 1.357 . S
C209 C208 1.357 . S
C209 C210 1.370 . S
C209 H235 0.950 . S
C210 N205 1.307 . S
C210 C209 1.370 . S
C210 H228 0.948 . S
Zn211 N205 2.020 . S
Zn211 O220 2.039 . S
Zn211 O226 2.034 . S
Zn211 O230 2.025 . S
Zn211 O232 2.024 . S
C212 O231 1.246 . S
C212 O232 1.249 . S
N213 C214 1.307 . S
N213 C215 1.333 . S
N213 Zn219 2.020 . S
C214 N213 1.307 . S
C214 C218 1.370 . S
C214 H225 0.948 . S
C215 N213 1.333 . S
C215 C216 1.379 . S
C215 H223 0.952 . S
C216 C215 1.379 . S
C216 C217 1.390 . S
C216 H236 0.949 . S
C217 C216 1.390 . S
C217 C218 1.357 . S
C218 C214 1.370 . S
C218 C217 1.357 . S
C218 H237 0.950 . S
Zn219 N213 2.020 . S
Zn219 O222 2.025 . S
Zn219 O227 2.024 . S
Zn219 O229 2.039 . S
Zn219 O231 2.034 . S
O220 C204 1.251 . S
O220 Zn211 2.039 . S
C221 O226 1.246 . S
C221 O227 1.249 . S
O222 C204 1.254 . S
O222 Zn219 2.025 . S
H223 C215 0.952 . S
H224 C206 0.952 . S
H225 C214 0.948 . S
O226 Zn211 2.034 . S
O226 C221 1.246 . S
O227 Zn219 2.024 . S
O227 C221 1.249 . S
H228 C210 0.948 . S
O229 Zn219 2.039 . S
O229 C233 1.251 . S
O230 Zn211 2.025 . S
O230 C233 1.254 . S
O231 C212 1.246 . S
O231 Zn219 2.034 . S
O232 Zn211 2.024 . S
O232 C212 1.249 . S
C233 O229 1.251 . S
C233 O230 1.254 . S
H234 C207 0.949 . S
H235 C209 0.950 . S
H236 C216 0.949 . S
H237 C218 0.950 . S
C238 O254 1.251 . S
C238 O256 1.254 . S
N239 C240 1.333 . S
N239 C244 1.307 . S
N239 Zn245 2.020 . S
C240 N239 1.333 . S
C240 C241 1.379 . S
C240 H258 0.952 . S
C241 C240 1.379 . S
C241 C242 1.390 . S
C241 H268 0.949 . S
C242 C241 1.390 . S
C242 C243 1.357 . S
C243 C242 1.357 . S
C243 C244 1.370 . S
C243 H269 0.950 . S
C244 N239 1.307 . S
C244 C243 1.370 . S
C244 H262 0.948 . S
Zn245 N239 2.020 . S
Zn245 O254 2.039 . S
Zn245 O260 2.034 . S
Zn245 O264 2.025 . S
Zn245 O266 2.024 . S
C246 O265 1.246 . S
C246 O266 1.249 . S
N247 C248 1.307 . S
N247 C249 1.333 . S
N247 Zn253 2.020 . S
C248 N247 1.307 . S
C248 C252 1.370 . S
C248 H259 0.948 . S
C249 N247 1.333 . S
C249 C250 1.379 . S
C249 H257 0.952 . S
C250 C249 1.379 . S
C250 C251 1.390 . S
C250 H270 0.949 . S
C251 C250 1.390 . S
C251 C252 1.357 . S
C252 C248 1.370 . S
C252 C251 1.357 . S
C252 H271 0.950 . S
Zn253 N247 2.020 . S
Zn253 O256 2.025 . S
Zn253 O261 2.024 . S
Zn253 O263 2.039 . S
Zn253 O265 2.034 . S
O254 C238 1.251 . S
O254 Zn245 2.039 . S
C255 O260 1.246 . S
C255 O261 1.249 . S
O256 C238 1.254 . S
O256 Zn253 2.025 . S
H257 C249 0.952 . S
H258 C240 0.952 . S
H259 C248 0.948 . S
O260 Zn245 2.034 . S
O260 C255 1.246 . S
O261 Zn253 2.024 . S
O261 C255 1.249 . S
H262 C244 0.948 . S
O263 Zn253 2.039 . S
O263 C267 1.251 . S
O264 Zn245 2.025 . S
O264 C267 1.254 . S
O265 C246 1.246 . S
O265 Zn253 2.034 . S
O266 Zn245 2.024 . S
O266 C246 1.249 . S
C267 O263 1.251 . S
C267 O264 1.254 . S
H268 C241 0.949 . S
H269 C243 0.950 . S
H270 C250 0.949 . S
H271 C252 0.950 . S
C272 O288 1.251 1_655 S
C272 O290 1.254 . S
N273 C274 1.333 . S
N273 C278 1.307 . S
N273 Zn279 2.020 . S
C274 N273 1.333 . S
C274 C275 1.379 . S
C274 H292 0.952 . S
C275 C274 1.379 . S
C275 C276 1.390 . S
C275 H302 0.949 . S
C276 C275 1.390 . S
C276 C277 1.357 . S
C277 C276 1.357 . S
C277 C278 1.370 . S
C277 H303 0.950 . S
C278 N273 1.307 . S
C278 C277 1.370 . S
C278 H296 0.948 . S
Zn279 N273 2.020 . S
Zn279 O288 2.039 . S
Zn279 O294 2.034 . S
Zn279 O298 2.025 . S
Zn279 O300 2.024 . S
C280 O299 1.246 . S
C280 O300 1.249 1_655 S
N281 C282 1.307 . S
N281 C283 1.333 . S
N281 Zn287 2.020 . S
C282 N281 1.307 . S
C282 C286 1.370 . S
C282 H293 0.948 . S
C283 N281 1.333 . S
C283 C284 1.379 . S
C283 H291 0.952 . S
C284 C283 1.379 . S
C284 C285 1.390 . S
C284 H304 0.949 . S
C285 C284 1.390 . S
C285 C286 1.357 . S
C286 C282 1.370 . S
C286 C285 1.357 . S
C286 H305 0.950 . S
Zn287 N281 2.020 . S
Zn287 O290 2.025 . S
Zn287 O295 2.024 . S
Zn287 O297 2.039 . S
Zn287 O299 2.034 . S
O288 C272 1.251 1_455 S
O288 Zn279 2.039 . S
C289 O294 1.272 . S
C289 O295 1.219 1_455 S
O290 C272 1.254 . S
O290 Zn287 2.025 . S
H291 C283 0.952 . S
H292 C274 0.952 . S
H293 C282 0.948 . S
O294 Zn279 2.034 . S
O294 C289 1.272 . S
O295 Zn287 2.024 . S
O295 C289 1.219 1_655 S
H296 C278 0.948 . S
O297 Zn287 2.039 . S
O297 C301 1.251 . S
O298 Zn279 2.025 . S
O298 C301 1.254 1_455 S
O299 C280 1.246 . S
O299 Zn287 2.034 . S
O300 Zn279 2.024 . S
O300 C280 1.249 1_455 S
C301 O297 1.251 . S
C301 O298 1.254 1_655 S
H302 C275 0.949 . S
H303 C277 0.950 . S
H304 C284 0.949 . S
H305 C286 0.950 . S
C306 O322 1.251 . S
C306 O324 1.254 . S
N307 C308 1.333 . S
N307 C312 1.307 . S
N307 Zn313 2.020 . S
C308 N307 1.333 . S
C308 C309 1.379 . S
C308 H326 0.952 . S
C309 C308 1.379 . S
C309 C310 1.390 . S
C309 H336 0.949 . S
C310 C309 1.390 . S
C310 C311 1.357 . S
C311 C310 1.357 . S
C311 C312 1.370 . S
C311 H337 0.950 . S
C312 N307 1.307 . S
C312 C311 1.370 . S
C312 H330 0.948 . S
Zn313 N307 2.020 . S
Zn313 O322 2.039 . S
Zn313 O328 2.034 . S
Zn313 O332 2.025 . S
Zn313 O334 2.024 . S
C314 O333 1.246 . S
C314 O334 1.249 . S
N315 C316 1.307 . S
N315 C317 1.333 . S
N315 Zn321 2.020 . S
C316 N315 1.307 . S
C316 C320 1.370 . S
C316 H327 0.948 . S
C317 N315 1.333 . S
C317 C318 1.379 . S
C317 H325 0.952 . S
C318 C317 1.379 . S
C318 C319 1.390 . S
C318 H338 0.949 . S
C319 C318 1.390 . S
C319 C320 1.357 . S
C320 C316 1.370 . S
C320 C319 1.357 . S
C320 H339 0.950 . S
Zn321 N315 2.020 . S
Zn321 O324 2.025 . S
Zn321 O329 2.024 . S
Zn321 O331 2.039 . S
Zn321 O333 2.034 . S
O322 C306 1.251 . S
O322 Zn313 2.039 . S
C323 O328 1.246 . S
C323 O329 1.249 . S
O324 C306 1.254 . S
O324 Zn321 2.025 . S
H325 C317 0.952 . S
H326 C308 0.952 . S
H327 C316 0.948 . S
O328 Zn313 2.034 . S
O328 C323 1.246 . S
O329 Zn321 2.024 . S
O329 C323 1.249 . S
H330 C312 0.948 . S
O331 Zn321 2.039 . S
O331 C335 1.251 . S
O332 Zn313 2.025 . S
O332 C335 1.254 . S
O333 C314 1.246 . S
O333 Zn321 2.034 . S
O334 Zn313 2.024 . S
O334 C314 1.249 . S
C335 O331 1.251 . S
C335 O332 1.254 . S
H336 C309 0.949 . S
H337 C311 0.950 . S
H338 C318 0.949 . S
H339 C320 0.950 . S
C340 O356 1.251 . S
C340 O358 1.254 . S
N341 C342 1.333 . S
N341 C346 1.307 . S
N341 Zn347 2.020 . S
C342 N341 1.333 . S
C342 C343 1.379 . S
C342 H360 0.952 . S
C343 C342 1.379 . S
C343 C344 1.390 . S
C343 H370 0.949 . S
C344 C343 1.390 . S
C344 C345 1.357 . S
C345 C344 1.357 . S
C345 C346 1.370 . S
C345 H371 0.950 . S
C346 N341 1.307 . S
C346 C345 1.370 . S
C346 H364 0.948 . S
Zn347 N341 2.020 . S
Zn347 O356 2.039 . S
Zn347 O362 2.034 . S
Zn347 O366 2.025 . S
Zn347 O368 2.024 . S
C348 O367 1.246 . S
C348 O368 1.249 . S
N349 C350 1.307 . S
N349 C351 1.333 . S
N349 Zn355 2.020 . S
C350 N349 1.307 . S
C350 C354 1.370 . S
C350 H361 0.948 . S
C351 N349 1.333 . S
C351 C352 1.379 . S
C351 H359 0.952 . S
C352 C351 1.379 . S
C352 C353 1.390 . S
C352 H372 0.949 . S
C353 C352 1.390 . S
C353 C354 1.357 . S
C354 C350 1.370 . S
C354 C353 1.357 . S
C354 H373 0.950 . S
Zn355 N349 2.020 . S
Zn355 O358 2.025 . S
Zn355 O363 2.024 . S
Zn355 O365 2.039 . S
Zn355 O367 2.034 . S
O356 C340 1.251 . S
O356 Zn347 2.039 . S
C357 O362 1.246 . S
C357 O363 1.249 . S
O358 C340 1.254 . S
O358 Zn355 2.025 . S
H359 C351 0.952 . S
H360 C342 0.952 . S
H361 C350 0.948 . S
O362 Zn347 2.034 . S
O362 C357 1.246 . S
O363 Zn355 2.024 . S
O363 C357 1.249 . S
H364 C346 0.948 . S
O365 Zn355 2.039 . S
O365 C369 1.251 . S
O366 Zn347 2.025 . S
O366 C369 1.254 . S
O367 C348 1.246 . S
O367 Zn355 2.034 . S
O368 Zn347 2.024 . S
O368 C348 1.249 . S
C369 O365 1.251 . S
C369 O366 1.254 . S
H370 C343 0.949 . S
H371 C345 0.950 . S
H372 C352 0.949 . S
H373 C354 0.950 . S
C374 O390 1.251 . S
C374 O392 1.254 1_655 S
N375 C376 1.333 . S
N375 C380 1.307 . S
N375 Zn381 2.020 . S
C376 N375 1.333 . S
C376 C377 1.379 . S
C376 H394 0.952 . S
C377 C376 1.379 . S
C377 C378 1.390 . S
C377 H404 0.949 . S
C378 C377 1.390 . S
C378 C379 1.357 . S
C379 C378 1.357 . S
C379 C380 1.370 . S
C379 H405 0.950 . S
C380 N375 1.307 . S
C380 C379 1.370 . S
C380 H398 0.948 . S
Zn381 N375 2.020 . S
Zn381 O390 2.039 . S
Zn381 O396 2.034 . S
Zn381 O400 2.025 . S
Zn381 O402 2.024 . S
C382 O401 1.272 . S
C382 O402 1.219 1_455 S
N383 C384 1.307 . S
N383 C385 1.333 . S
N383 Zn389 2.020 . S
C384 N383 1.307 . S
C384 C388 1.370 . S
C384 H395 0.948 . S
C385 N383 1.333 . S
C385 C386 1.379 . S
C385 H393 0.952 . S
C386 C385 1.379 . S
C386 C387 1.390 . S
C386 H406 0.949 . S
C387 C386 1.390 . S
C387 C388 1.357 . S
C388 C384 1.370 . S
C388 C387 1.357 . S
C388 H407 0.950 . S
Zn389 N383 2.020 . S
Zn389 O392 2.025 . S
Zn389 O397 2.024 . S
Zn389 O399 2.039 . S
Zn389 O401 2.034 . S
O390 C374 1.251 . S
O390 Zn381 2.039 . S
C391 O396 1.246 . S
C391 O397 1.249 1_655 S
O392 C374 1.254 1_455 S
O392 Zn389 2.025 . S
H393 C385 0.952 . S
H394 C376 0.952 . S
H395 C384 0.948 . S
O396 Zn381 2.034 . S
O396 C391 1.246 . S
O397 Zn389 2.024 . S
O397 C391 1.249 1_455 S
H398 C380 0.948 . S
O399 Zn389 2.039 . S
O399 C403 1.251 1_455 S
O400 Zn381 2.025 . S
O400 C403 1.254 . S
O401 C382 1.272 . S
O401 Zn389 2.034 . S
O402 Zn381 2.024 . S
O402 C382 1.219 1_655 S
C403 O399 1.251 1_655 S
C403 O400 1.254 . S
H404 C377 0.949 . S
H405 C379 0.950 . S
H406 C386 0.949 . S
H407 C388 0.950 . S
C408 O424 1.251 . S
C408 O426 1.254 . S
N409 C410 1.333 . S
N409 C414 1.307 . S
N409 Zn415 2.020 . S
C410 N409 1.333 . S
C410 C411 1.379 . S
C410 H428 0.952 . S
C411 C410 1.379 . S
C411 C412 1.390 . S
C411 H438 0.949 . S
C412 C411 1.390 . S
C412 C413 1.357 . S
C413 C412 1.357 . S
C413 C414 1.370 . S
C413 H439 0.950 . S
C414 N409 1.307 . S
C414 C413 1.370 . S
C414 H432 0.948 . S
Zn415 N409 2.020 . S
Zn415 O424 2.039 . S
Zn415 O430 2.034 . S
Zn415 O434 2.025 . S
Zn415 O436 2.024 . S
C416 O435 1.246 . S
C416 O436 1.249 . S
N417 C418 1.307 . S
N417 C419 1.333 . S
N417 Zn423 2.020 . S
C418 N417 1.307 . S
C418 C422 1.370 . S
C418 H429 0.948 . S
C419 N417 1.333 . S
C419 C420 1.379 . S
C419 H427 0.952 . S
C420 C419 1.379 . S
C420 C421 1.390 . S
C420 H440 0.949 . S
C421 C420 1.390 . S
C421 C422 1.357 . S
C422 C418 1.370 . S
C422 C421 1.357 . S
C422 H441 0.950 . S
Zn423 N417 2.020 . S
Zn423 O426 2.025 . S
Zn423 O431 2.024 . S
Zn423 O433 2.039 . S
Zn423 O435 2.034 . S
O424 C408 1.251 . S
O424 Zn415 2.039 . S
C425 O430 1.246 . S
C425 O431 1.249 . S
O426 C408 1.254 . S
O426 Zn423 2.025 . S
H427 C419 0.952 . S
H428 C410 0.952 . S
H429 C418 0.948 . S
O430 Zn415 2.034 . S
O430 C425 1.246 . S
O431 Zn423 2.024 . S
O431 C425 1.249 . S
H432 C414 0.948 . S
O433 Zn423 2.039 . S
O433 C437 1.251 . S
O434 Zn415 2.025 . S
O434 C437 1.254 . S
O435 C416 1.246 . S
O435 Zn423 2.034 . S
O436 Zn415 2.024 . S
O436 C416 1.249 . S
C437 O433 1.251 . S
C437 O434 1.254 . S
H438 C411 0.949 . S
H439 C413 0.950 . S
H440 C420 0.949 . S
H441 C422 0.950 . S
C442 O458 1.251 . S
C442 O460 1.254 . S
N443 C444 1.333 . S
N443 C448 1.307 . S
N443 Zn449 2.020 . S
C444 N443 1.333 . S
C444 C445 1.379 . S
C444 H462 0.952 . S
C445 C444 1.379 . S
C445 C446 1.390 . S
C445 H472 0.949 . S
C446 C445 1.390 . S
C446 C447 1.357 . S
C447 C446 1.357 . S
C447 C448 1.370 . S
C447 H473 0.950 . S
C448 N443 1.307 . S
C448 C447 1.370 . S
C448 H466 0.948 . S
Zn449 N443 2.020 . S
Zn449 O458 2.039 . S
Zn449 O464 2.034 . S
Zn449 O468 2.025 . S
Zn449 O470 2.024 . S
C450 O469 1.246 . S
C450 O470 1.249 . S
N451 C452 1.307 . S
N451 C453 1.333 . S
N451 Zn457 2.020 . S
C452 N451 1.307 . S
C452 C456 1.370 . S
C452 H463 0.948 . S
C453 N451 1.333 . S
C453 C454 1.379 . S
C453 H461 0.952 . S
C454 C453 1.379 . S
C454 C455 1.390 . S
C454 H474 0.949 . S
C455 C454 1.390 . S
C455 C456 1.357 . S
C456 C452 1.370 . S
C456 C455 1.357 . S
C456 H475 0.950 . S
Zn457 N451 2.020 . S
Zn457 O460 2.025 . S
Zn457 O465 2.024 . S
Zn457 O467 2.039 . S
Zn457 O469 2.034 . S
O458 C442 1.251 . S
O458 Zn449 2.039 . S
C459 O464 1.246 . S
C459 O465 1.249 . S
O460 C442 1.254 . S
O460 Zn457 2.025 . S
H461 C453 0.952 . S
H462 C444 0.952 . S
H463 C452 0.948 . S
O464 Zn449 2.034 . S
O464 C459 1.246 . S
O465 Zn457 2.024 . S
O465 C459 1.249 . S
H466 C448 0.948 . S
O467 Zn457 2.039 . S
O467 C471 1.251 . S
O468 Zn449 2.025 . S
O468 C471 1.254 . S
O469 C450 1.246 . S
O469 Zn457 2.034 . S
O470 Zn449 2.024 . S
O470 C450 1.249 . S
C471 O467 1.251 . S
C471 O468 1.254 . S
H472 C445 0.949 . S
H473 C447 0.950 . S
H474 C454 0.949 . S
H475 C456 0.950 . S
C476 O492 1.251 . S
C476 O494 1.254 . S
N477 C478 1.333 . S
N477 C482 1.307 . S
N477 Zn483 2.020 . S
C478 N477 1.333 . S
C478 C479 1.379 . S
C478 H496 0.952 . S
C479 C478 1.379 . S
C479 C480 1.390 . S
C479 H506 0.949 . S
C480 C479 1.390 . S
C480 C481 1.357 . S
C481 C480 1.357 . S
C481 C482 1.370 . S
C481 H507 0.950 . S
C482 N477 1.307 . S
C482 C481 1.370 . S
C482 H500 0.948 . S
Zn483 N477 2.020 . S
Zn483 O492 2.039 . S
Zn483 O498 2.034 . S
Zn483 O502 2.025 . S
Zn483 O504 2.024 . S
C484 O503 1.246 . S
C484 O504 1.249 . S
N485 C486 1.307 . S
N485 C487 1.333 . S
N485 Zn491 2.020 . S
C486 N485 1.307 . S
C486 C490 1.370 . S
C486 H497 0.948 . S
C487 N485 1.333 . S
C487 C488 1.379 . S
C487 H495 0.952 . S
C488 C487 1.379 . S
C488 C489 1.390 . S
C488 H508 0.949 . S
C489 C488 1.390 . S
C489 C490 1.357 . S
C490 C486 1.370 . S
C490 C489 1.357 . S
C490 H509 0.950 . S
Zn491 N485 2.020 . S
Zn491 O494 2.025 . S
Zn491 O499 2.024 . S
Zn491 O501 2.039 . S
Zn491 O503 2.034 . S
O492 C476 1.251 . S
O492 Zn483 2.039 . S
C493 O498 1.246 . S
C493 O499 1.249 . S
O494 C476 1.254 . S
O494 Zn491 2.025 . S
H495 C487 0.952 . S
H496 C478 0.952 . S
H497 C486 0.948 . S
O498 Zn483 2.034 . S
O498 C493 1.246 . S
O499 Zn491 2.024 . S
O499 C493 1.249 . S
H500 C482 0.948 . S
O501 Zn491 2.039 . S
O501 C505 1.251 . S
O502 Zn483 2.025 . S
O502 C505 1.254 . S
O503 C484 1.246 . S
O503 Zn491 2.034 . S
O504 Zn483 2.024 . S
O504 C484 1.249 . S
C505 O501 1.251 . S
C505 O502 1.254 . S
H506 C479 0.949 . S
H507 C481 0.950 . S
H508 C488 0.949 . S
H509 C490 0.950 . S
C510 O526 1.251 . S
C510 O528 1.254 . S
N511 C512 1.333 . S
N511 C516 1.307 . S
N511 Zn517 2.020 . S
C512 N511 1.333 . S
C512 C513 1.379 . S
C512 H530 0.952 . S
C513 C512 1.379 . S
C513 C514 1.390 . S
C513 H540 0.949 . S
C514 C513 1.390 . S
C514 C515 1.357 . S
C515 C514 1.357 . S
C515 C516 1.370 . S
C515 H541 0.950 . S
C516 N511 1.307 . S
C516 C515 1.370 . S
C516 H534 0.948 . S
Zn517 N511 2.020 . S
Zn517 O526 2.039 . S
Zn517 O532 2.034 . S
Zn517 O536 2.025 . S
Zn517 O538 2.024 . S
C518 O537 1.246 . S
C518 O538 1.249 . S
N519 C520 1.307 . S
N519 C521 1.333 . S
N519 Zn525 2.020 . S
C520 N519 1.307 . S
C520 C524 1.370 . S
C520 H531 0.948 . S
C521 N519 1.333 . S
C521 C522 1.379 . S
C521 H529 0.952 . S
C522 C521 1.379 . S
C522 C523 1.390 . S
C522 H542 0.949 . S
C523 C522 1.390 . S
C523 C524 1.357 . S
C524 C520 1.370 . S
C524 C523 1.357 . S
C524 H543 0.950 . S
Zn525 N519 2.020 . S
Zn525 O528 2.025 . S
Zn525 O533 2.024 . S
Zn525 O535 2.039 . S
Zn525 O537 2.034 . S
O526 C510 1.251 . S
O526 Zn517 2.039 . S
C527 O532 1.246 . S
C527 O533 1.249 . S
O528 C510 1.254 . S
O528 Zn525 2.025 . S
H529 C521 0.952 . S
H530 C512 0.952 . S
H531 C520 0.948 . S
O532 Zn517 2.034 . S
O532 C527 1.246 . S
O533 Zn525 2.024 . S
O533 C527 1.249 . S
H534 C516 0.948 . S
O535 Zn525 2.039 . S
O535 C539 1.251 . S
O536 Zn517 2.025 . S
O536 C539 1.254 . S
O537 C518 1.246 . S
O537 Zn525 2.034 . S
O538 Zn517 2.024 . S
O538 C518 1.249 . S
C539 O535 1.251 . S
C539 O536 1.254 . S
H540 C513 0.949 . S
H541 C515 0.950 . S
H542 C522 0.949 . S
H543 C524 0.950 . S
H544 C552 0.950 . S
H545 C557 0.950 1_554 S
H546 C554 0.950 . S
H547 C556 0.950 . S
H548 C558 0.950 . S
H549 C560 0.950 . S
H550 C562 0.950 . S
H551 C563 0.950 . S
C552 H544 0.950 . S
C552 C553 1.386 . S
C552 C554 1.391 . S
C553 C552 1.386 . S
C553 C557 1.393 . S
C554 H546 0.950 . S
C554 C552 1.391 . S
C554 C555 1.400 . S
C555 C554 1.400 . S
C555 C556 1.398 . S
C555 C561 1.491 . S
C556 H547 0.950 . S
C556 C555 1.398 . S
C556 C557 1.391 . S
C557 H545 0.950 1_556 S
C557 C553 1.393 . S
C557 C556 1.391 . S
C558 H548 0.950 . S
C558 C559 1.386 . S
C558 C560 1.391 . S
C559 C558 1.386 . S
C559 C563 1.393 . S
C560 H549 0.950 . S
C560 C558 1.391 . S
C560 C561 1.400 . S
C561 C555 1.491 . S
C561 C560 1.400 . S
C561 C562 1.398 . S
C562 H550 0.950 . S
C562 C561 1.398 . S
C562 C563 1.391 . S
C563 H551 0.950 . S
C563 C559 1.393 . S
C563 C562 1.391 . S
H564 C572 0.950 . S
H565 C577 0.950 . S
H566 C574 0.950 . S
H567 C576 0.950 . S
H568 C578 0.950 . S
H569 C580 0.950 . S
H570 C582 0.950 . S
H571 C583 0.950 1_556 S
C572 H564 0.950 . S
C572 C573 1.386 . S
C572 C574 1.391 . S
C573 C572 1.386 . S
C573 C577 1.393 . S
C574 H566 0.950 . S
C574 C572 1.391 . S
C574 C575 1.400 . S
C575 C574 1.400 . S
C575 C576 1.398 . S
C575 C581 1.491 . S
C576 H567 0.950 . S
C576 C575 1.398 . S
C576 C577 1.391 . S
C577 H565 0.950 . S
C577 C573 1.393 . S
C577 C576 1.391 . S
C578 H568 0.950 . S
C578 C579 1.386 . S
C578 C580 1.391 . S
C579 C578 1.386 . S
C579 C583 1.393 . S
C580 H569 0.950 . S
C580 C578 1.391 . S
C580 C581 1.400 . S
C581 C575 1.491 . S
C581 C580 1.400 . S
C581 C582 1.398 . S
C582 H570 0.950 . S
C582 C581 1.398 . S
C582 C583 1.391 . S
C583 H571 0.950 1_554 S
C583 C579 1.393 . S
C583 C582 1.391 . S
H584 C592 0.950 . S
H585 C597 0.950 . S
H586 C594 0.950 . S
H587 C596 0.950 . S
H588 C598 0.950 . S
H589 C600 0.950 . S
H590 C602 0.950 . S
H591 C603 0.950 . S
C592 H584 0.950 . S
C592 C593 1.386 . S
C592 C594 1.391 . S
C593 C592 1.386 . S
C593 C597 1.393 . S
C594 H586 0.950 . S
C594 C592 1.391 . S
C594 C595 1.400 . S
C595 C594 1.400 . S
C595 C596 1.398 . S
C595 C601 1.491 . S
C596 H587 0.950 . S
C596 C595 1.398 . S
C596 C597 1.391 . S
C597 H585 0.950 . S
C597 C593 1.393 . S
C597 C596 1.391 . S
C598 H588 0.950 . S
C598 C599 1.386 . S
C598 C600 1.391 . S
C599 C598 1.386 . S
C599 C603 1.393 . S
C600 H589 0.950 . S
C600 C598 1.391 . S
C600 C601 1.400 . S
C601 C595 1.491 . S
C601 C600 1.400 . S
C601 C602 1.398 . S
C602 H590 0.950 . S
C602 C601 1.398 . S
C602 C603 1.391 . S
C603 H591 0.950 . S
C603 C599 1.393 . S
C603 C602 1.391 . S
H604 C612 0.950 . S
H605 C617 0.950 . S
H606 C614 0.950 . S
H607 C616 0.950 . S
H608 C618 0.950 . S
H609 C620 0.950 . S
H610 C622 0.950 . S
H611 C623 0.950 . S
C612 H604 0.950 . S
C612 C613 1.386 . S
C612 C614 1.391 . S
C613 C612 1.386 . S
C613 C617 1.393 . S
C614 H606 0.950 . S
C614 C612 1.391 . S
C614 C615 1.400 . S
C615 C614 1.400 . S
C615 C616 1.398 . S
C615 C621 1.491 . S
C616 H607 0.950 . S
C616 C615 1.398 . S
C616 C617 1.391 . S
C617 H605 0.950 . S
C617 C613 1.393 . S
C617 C616 1.391 . S
C618 H608 0.950 . S
C618 C619 1.386 . S
C618 C620 1.391 . S
C619 C618 1.386 . S
C619 C623 1.393 . S
C620 H609 0.950 . S
C620 C618 1.391 . S
C620 C621 1.400 . S
C621 C615 1.491 . S
C621 C620 1.400 . S
C621 C622 1.398 . S
C622 H610 0.950 . S
C622 C621 1.398 . S
C622 C623 1.391 . S
C623 H611 0.950 . S
C623 C619 1.393 . S
C623 C622 1.391 . S
H624 C632 0.950 . S
H625 C637 0.950 . S
H626 C634 0.943 1_655 S
H627 C636 0.950 . S
H628 C638 0.950 . S
H629 C640 0.950 . S
H630 C642 0.950 . S
H631 C643 0.950 . S
C632 H624 0.950 . S
C632 C633 1.386 1_655 S
C632 C634 1.391 1_655 S
C633 C632 1.386 1_455 S
C633 C637 1.393 . S
C634 H626 0.943 1_455 S
C634 C632 1.391 1_455 S
C634 C635 1.400 . S
C635 C634 1.400 . S
C635 C636 1.398 . S
C635 C641 1.491 . S
C636 H627 0.950 . S
C636 C635 1.398 . S
C636 C637 1.391 . S
C637 H625 0.950 . S
C637 C633 1.393 . S
C637 C636 1.391 . S
C638 H628 0.950 . S
C638 C639 1.386 . S
C638 C640 1.391 . S
C639 C638 1.386 . S
C639 C643 1.393 . S
C640 H629 0.950 . S
C640 C638 1.391 . S
C640 C641 1.400 . S
C641 C635 1.491 . S
C641 C640 1.400 . S
C641 C642 1.398 . S
C642 H630 0.950 . S
C642 C641 1.398 . S
C642 C643 1.391 . S
C643 H631 0.950 . S
C643 C639 1.393 . S
C643 C642 1.391 . S
H644 C652 0.950 1_655 S
H645 C657 0.950 . S
H646 C654 0.950 . S
H647 C656 0.950 . S
H648 C658 0.950 . S
H649 C660 0.950 . S
H650 C662 0.950 . S
H651 C663 0.960 . S
C652 H644 0.950 1_455 S
C652 C653 1.386 . S
C652 C654 1.391 . S
C653 C652 1.386 . S
C653 C657 1.393 . S
C654 H646 0.950 . S
C654 C652 1.391 . S
C654 C655 1.400 . S
C655 C654 1.400 . S
C655 C656 1.398 . S
C655 C661 1.491 . S
C656 H647 0.950 . S
C656 C655 1.398 . S
C656 C657 1.391 . S
C657 H645 0.950 . S
C657 C653 1.393 . S
C657 C656 1.391 . S
C658 H648 0.950 . S
C658 C659 1.386 . S
C658 C660 1.391 . S
C659 C658 1.386 . S
C659 C663 1.390 1_556 S
C660 H649 0.950 . S
C660 C658 1.391 . S
C660 C661 1.400 . S
C661 C655 1.491 . S
C661 C660 1.400 . S
C661 C662 1.398 . S
C662 H650 0.950 . S
C662 C661 1.398 . S
C662 C663 1.383 1_556 S
C663 H651 0.960 . S
C663 C659 1.390 1_554 S
C663 C662 1.383 1_554 S
H664 C672 0.950 . S
H665 C677 0.950 . S
H666 C674 0.950 . S
H667 C676 0.950 . S
H668 C678 0.950 . S
H669 C680 0.950 . S
H670 C682 0.950 . S
H671 C683 0.950 . S
C672 H664 0.950 . S
C672 C673 1.386 . S
C672 C674 1.391 . S
C673 C672 1.386 . S
C673 C677 1.393 . S
C674 H666 0.950 . S
C674 C672 1.391 . S
C674 C675 1.400 . S
C675 C674 1.400 . S
C675 C676 1.398 . S
C675 C681 1.491 . S
C676 H667 0.950 . S
C676 C675 1.398 . S
C676 C677 1.391 . S
C677 H665 0.950 . S
C677 C673 1.393 . S
C677 C676 1.391 . S
C678 H668 0.950 . S
C678 C679 1.386 . S
C678 C680 1.391 . S
C679 C678 1.386 . S
C679 C683 1.393 . S
C680 H669 0.950 . S
C680 C678 1.391 . S
C680 C681 1.400 . S
C681 C675 1.491 . S
C681 C680 1.400 . S
C681 C682 1.398 . S
C682 H670 0.950 . S
C682 C681 1.398 . S
C682 C683 1.391 . S
C683 H671 0.950 . S
C683 C679 1.393 . S
C683 C682 1.391 . S
H684 C692 0.950 . S
H685 C697 0.950 . S
H686 C694 0.950 . S
H687 C696 0.950 . S
H688 C698 0.950 . S
H689 C700 0.950 . S
H690 C702 0.950 . S
H691 C703 0.950 . S
C692 H684 0.950 . S
C692 C693 1.386 . S
C692 C694 1.391 . S
C693 C692 1.386 . S
C693 C697 1.393 . S
C694 H686 0.950 . S
C694 C692 1.391 . S
C694 C695 1.400 . S
C695 C694 1.400 . S
C695 C696 1.398 . S
C695 C701 1.491 . S
C696 H687 0.950 . S
C696 C695 1.398 . S
C696 C697 1.391 . S
C697 H685 0.950 . S
C697 C693 1.393 . S
C697 C696 1.391 . S
C698 H688 0.950 . S
C698 C699 1.386 . S
C698 C700 1.391 . S
C699 C698 1.386 . S
C699 C703 1.393 . S
C700 H689 0.950 . S
C700 C698 1.391 . S
C700 C701 1.400 . S
C701 C695 1.491 . S
C701 C700 1.400 . S
C701 C702 1.398 . S
C702 H690 0.950 . S
C702 C701 1.398 . S
C702 C703 1.391 . S
C703 H691 0.950 . S
C703 C699 1.393 . S
C703 C702 1.391 . S
H704 C712 0.950 . S
H705 C717 0.950 . S
H706 C714 0.950 . S
H707 C716 0.950 . S
H708 C718 0.950 . S
H709 C720 0.950 . S
H710 C722 0.950 . S
H711 C723 0.950 . S
C712 H704 0.950 . S
C712 C713 1.386 . S
C712 C714 1.391 . S
C713 C712 1.386 . S
C713 C717 1.393 . S
C714 H706 0.950 . S
C714 C712 1.391 . S
C714 C715 1.400 . S
C715 C714 1.400 . S
C715 C716 1.398 . S
C715 C721 1.491 . S
C716 H707 0.950 . S
C716 C715 1.398 . S
C716 C717 1.391 . S
C717 H705 0.950 . S
C717 C713 1.393 . S
C717 C716 1.391 . S
C718 H708 0.950 . S
C718 C719 1.386 . S
C718 C720 1.391 . S
C719 C718 1.386 . S
C719 C723 1.393 . S
C720 H709 0.950 . S
C720 C718 1.391 . S
C720 C721 1.400 . S
C721 C715 1.491 . S
C721 C720 1.400 . S
C721 C722 1.398 . S
C722 H710 0.950 . S
C722 C721 1.398 . S
C722 C723 1.391 . S
C723 H711 0.950 . S
C723 C719 1.393 . S
C723 C722 1.391 . S
H724 C732 0.950 . S
H725 C737 0.950 . S
H726 C734 0.950 . S
H727 C736 0.950 . S
H728 C738 0.950 . S
H729 C740 0.950 . S
H730 C742 0.950 . S
H731 C743 0.950 . S
C732 H724 0.950 . S
C732 C733 1.386 . S
C732 C734 1.391 . S
C733 C732 1.386 . S
C733 C737 1.393 . S
C734 H726 0.950 . S
C734 C732 1.391 . S
C734 C735 1.400 . S
C735 C734 1.400 . S
C735 C736 1.398 . S
C735 C741 1.491 . S
C736 H727 0.950 . S
C736 C735 1.398 . S
C736 C737 1.391 . S
C737 H725 0.950 . S
C737 C733 1.393 . S
C737 C736 1.391 . S
C738 H728 0.950 . S
C738 C739 1.386 . S
C738 C740 1.391 . S
C739 C738 1.386 . S
C739 C743 1.393 . S
C740 H729 0.950 . S
C740 C738 1.391 . S
C740 C741 1.400 . S
C741 C735 1.491 . S
C741 C740 1.400 . S
C741 C742 1.398 . S
C742 H730 0.950 . S
C742 C741 1.398 . S
C742 C743 1.391 . S
C743 H731 0.950 . S
C743 C739 1.393 . S
C743 C742 1.391 . S
H744 C752 0.950 . S
H745 C757 0.950 1_554 S
H746 C754 0.950 . S
H747 C756 0.950 . S
H748 C758 0.950 . S
H749 C760 0.950 1_655 S
H750 C762 0.950 . S
H751 C763 0.950 . S
C752 H744 0.950 . S
C752 C753 1.386 . S
C752 C754 1.391 . S
C753 C752 1.386 . S
C753 C757 1.393 . S
C754 H746 0.950 . S
C754 C752 1.391 . S
C754 C755 1.400 . S
C755 C754 1.400 . S
C755 C756 1.398 . S
C755 C761 1.491 . S
C756 H747 0.950 . S
C756 C755 1.398 . S
C756 C757 1.391 . S
C757 H745 0.950 1_556 S
C757 C753 1.393 . S
C757 C756 1.391 . S
C758 H748 0.950 . S
C758 C759 1.386 1_655 S
C758 C760 1.391 1_655 S
C759 C758 1.386 1_455 S
C759 C763 1.393 . S
C760 H749 0.950 1_455 S
C760 C758 1.391 1_455 S
C760 C761 1.400 . S
C761 C755 1.491 . S
C761 C760 1.400 . S
C761 C762 1.398 . S
C762 H750 0.950 . S
C762 C761 1.398 . S
C762 C763 1.391 . S
C763 H751 0.950 . S
C763 C759 1.393 . S
C763 C762 1.391 . S
H764 C772 0.950 . S
H765 C777 0.950 1_655 S
H766 C774 0.950 . S
H767 C776 0.950 . S
H768 C778 0.950 . S
H769 C780 0.950 . S
H770 C782 0.950 . S
H771 C783 0.950 . S
C772 H764 0.950 . S
C772 C773 1.386 . S
C772 C774 1.391 . S
C773 C772 1.386 . S
C773 C777 1.393 . S
C774 H766 0.950 . S
C774 C772 1.391 . S
C774 C775 1.400 . S
C775 C774 1.400 . S
C775 C776 1.398 . S
C775 C781 1.491 . S
C776 H767 0.950 . S
C776 C775 1.398 . S
C776 C777 1.391 . S
C777 H765 0.950 1_455 S
C777 C773 1.393 . S
C777 C776 1.391 . S
C778 H768 0.950 . S
C778 C779 1.386 . S
C778 C780 1.391 . S
C779 C778 1.386 . S
C779 C783 1.393 . S
C780 H769 0.950 . S
C780 C778 1.391 . S
C780 C781 1.400 . S
C781 C775 1.491 . S
C781 C780 1.400 . S
C781 C782 1.398 . S
C782 H770 0.950 . S
C782 C781 1.398 . S
C782 C783 1.391 . S
C783 H771 0.950 . S
C783 C779 1.393 . S
C783 C782 1.391 . S
H784 C792 0.950 . S
H785 C797 0.950 . S
H786 C794 0.950 . S
H787 C796 0.950 . S
H788 C798 0.950 . S
H789 C800 0.950 . S
H790 C802 0.950 . S
H791 C803 0.950 . S
C792 H784 0.950 . S
C792 C793 1.386 . S
C792 C794 1.391 . S
C793 C792 1.386 . S
C793 C797 1.393 . S
C794 H786 0.950 . S
C794 C792 1.391 . S
C794 C795 1.400 . S
C795 C794 1.400 . S
C795 C796 1.398 . S
C795 C801 1.491 . S
C796 H787 0.950 . S
C796 C795 1.398 . S
C796 C797 1.391 . S
C797 H785 0.950 . S
C797 C793 1.393 . S
C797 C796 1.391 . S
C798 H788 0.950 . S
C798 C799 1.386 . S
C798 C800 1.391 . S
C799 C798 1.386 . S
C799 C803 1.393 . S
C800 H789 0.950 . S
C800 C798 1.391 . S
C800 C801 1.400 . S
C801 C795 1.491 . S
C801 C800 1.400 . S
C801 C802 1.398 . S
C802 H790 0.950 . S
C802 C801 1.398 . S
C802 C803 1.391 . S
C803 H791 0.950 . S
C803 C799 1.393 . S
C803 C802 1.391 . S
H804 C812 0.950 . S
H805 C817 0.950 . S
H806 C814 0.950 . S
H807 C816 0.950 . S
H808 C818 0.950 . S
H809 C820 0.950 . S
H810 C822 0.950 . S
H811 C823 0.950 . S
C812 H804 0.950 . S
C812 C813 1.386 . S
C812 C814 1.391 . S
C813 C812 1.386 . S
C813 C817 1.393 . S
C814 H806 0.950 . S
C814 C812 1.391 . S
C814 C815 1.400 . S
C815 C814 1.400 . S
C815 C816 1.398 . S
C815 C821 1.491 . S
C816 H807 0.950 . S
C816 C815 1.398 . S
C816 C817 1.391 . S
C817 H805 0.950 . S
C817 C813 1.393 . S
C817 C816 1.391 . S
C818 H808 0.950 . S
C818 C819 1.386 . S
C818 C820 1.391 . S
C819 C818 1.386 . S
C819 C823 1.393 . S
C820 H809 0.950 . S
C820 C818 1.391 . S
C820 C821 1.400 . S
C821 C815 1.491 . S
C821 C820 1.400 . S
C821 C822 1.398 . S
C822 H810 0.950 . S
C822 C821 1.398 . S
C822 C823 1.391 . S
C823 H811 0.950 . S
C823 C819 1.393 . S
C823 C822 1.391 . S
H824 C832 0.950 . S
H825 C837 0.950 . S
H826 C834 0.950 . S
H827 C836 0.950 . S
H828 C838 0.950 . S
H829 C840 0.950 . S
H830 C842 0.950 . S
H831 C843 0.950 . S
C832 H824 0.950 . S
C832 C833 1.386 . S
C832 C834 1.391 . S
C833 C832 1.386 . S
C833 C837 1.393 . S
C834 H826 0.950 . S
C834 C832 1.391 . S
C834 C835 1.400 . S
C835 C834 1.400 . S
C835 C836 1.398 . S
C835 C841 1.491 . S
C836 H827 0.950 . S
C836 C835 1.398 . S
C836 C837 1.391 . S
C837 H825 0.950 . S
C837 C833 1.393 . S
C837 C836 1.391 . S
C838 H828 0.950 . S
C838 C839 1.386 . S
C838 C840 1.391 . S
C839 C838 1.386 . S
C839 C843 1.393 . S
C840 H829 0.950 . S
C840 C838 1.391 . S
C840 C841 1.400 . S
C841 C835 1.491 . S
C841 C840 1.400 . S
C841 C842 1.398 . S
C842 H830 0.950 . S
C842 C841 1.398 . S
C842 C843 1.391 . S
C843 H831 0.950 . S
C843 C839 1.393 . S
C843 C842 1.391 . S
H844 C852 0.950 . S
H845 C857 0.950 . S
H846 C854 0.950 . S
H847 C856 0.950 . S
H848 C858 0.950 . S
H849 C860 0.950 . S
H850 C862 0.950 . S
H851 C863 0.950 1_554 S
C852 H844 0.950 . S
C852 C853 1.386 . S
C852 C854 1.391 . S
C853 C852 1.386 . S
C853 C857 1.393 . S
C854 H846 0.950 . S
C854 C852 1.391 . S
C854 C855 1.400 . S
C855 C854 1.400 . S
C855 C856 1.398 . S
C855 C861 1.491 . S
C856 H847 0.950 . S
C856 C855 1.398 . S
C856 C857 1.391 . S
C857 H845 0.950 . S
C857 C853 1.393 . S
C857 C856 1.391 . S
C858 H848 0.950 . S
C858 C859 1.386 . S
C858 C860 1.391 . S
C859 C858 1.386 . S
C859 C863 1.393 . S
C860 H849 0.950 . S
C860 C858 1.391 . S
C860 C861 1.400 . S
C861 C855 1.491 . S
C861 C860 1.400 . S
C861 C862 1.398 . S
C862 H850 0.950 . S
C862 C861 1.398 . S
C862 C863 1.391 . S
C863 H851 0.950 1_556 S
C863 C859 1.393 . S
C863 C862 1.391 . S
H864 C872 0.950 . S
H865 C877 0.950 . S
H866 C874 0.950 . S
H867 C876 0.950 . S
H868 C878 0.950 . S
H869 C880 0.950 . S
H870 C882 0.950 . S
H871 C883 0.950 . S
C872 H864 0.950 . S
C872 C873 1.386 . S
C872 C874 1.391 . S
C873 C872 1.386 . S
C873 C877 1.393 . S
C874 H866 0.950 . S
C874 C872 1.391 . S
C874 C875 1.400 . S
C875 C874 1.400 . S
C875 C876 1.398 . S
C875 C881 1.491 . S
C876 H867 0.950 . S
C876 C875 1.398 . S
C876 C877 1.391 . S
C877 H865 0.950 . S
C877 C873 1.393 . S
C877 C876 1.391 . S
C878 H868 0.950 . S
C878 C879 1.386 . S
C878 C880 1.391 . S
C879 C878 1.386 . S
C879 C883 1.393 . S
C880 H869 0.950 . S
C880 C878 1.391 . S
C880 C881 1.400 . S
C881 C875 1.491 . S
C881 C880 1.400 . S
C881 C882 1.398 . S
C882 H870 0.950 . S
C882 C881 1.398 . S
C882 C883 1.391 . S
C883 H871 0.950 . S
C883 C879 1.393 . S
C883 C882 1.391 . S
H884 C892 0.950 . S
H885 C897 0.950 . S
H886 C894 0.950 . S
H887 C896 0.950 . S
H888 C898 0.950 . S
H889 C900 0.950 . S
H890 C902 0.950 . S
H891 C903 0.950 . S
C892 H884 0.950 . S
C892 C893 1.386 . S
C892 C894 1.391 . S
C893 C892 1.386 . S
C893 C897 1.393 . S
C894 H886 0.950 . S
C894 C892 1.391 . S
C894 C895 1.400 . S
C895 C894 1.400 . S
C895 C896 1.398 . S
C895 C901 1.491 . S
C896 H887 0.950 . S
C896 C895 1.398 . S
C896 C897 1.391 . S
C897 H885 0.950 . S
C897 C893 1.393 . S
C897 C896 1.391 . S
C898 H888 0.950 . S
C898 C899 1.386 . S
C898 C900 1.391 . S
C899 C898 1.386 . S
C899 C903 1.393 . S
C900 H889 0.950 . S
C900 C898 1.391 . S
C900 C901 1.400 . S
C901 C895 1.491 . S
C901 C900 1.400 . S
C901 C902 1.398 . S
C902 H890 0.950 . S
C902 C901 1.398 . S
C902 C903 1.391 . S
C903 H891 0.950 . S
C903 C899 1.393 . S
C903 C902 1.391 . S
H904 C912 0.950 . S
H905 C917 0.950 . S
H906 C914 0.950 . S
H907 C916 0.950 . S
H908 C918 0.950 . S
H909 C920 0.950 . S
H910 C922 0.950 . S
H911 C923 0.950 . S
C912 H904 0.950 . S
C912 C913 1.386 . S
C912 C914 1.391 . S
C913 C912 1.386 . S
C913 C917 1.393 . S
C914 H906 0.950 . S
C914 C912 1.391 . S
C914 C915 1.400 . S
C915 C914 1.400 . S
C915 C916 1.398 . S
C915 C921 1.491 . S
C916 H907 0.950 . S
C916 C915 1.398 . S
C916 C917 1.391 . S
C917 H905 0.950 . S
C917 C913 1.393 . S
C917 C916 1.391 . S
C918 H908 0.950 . S
C918 C919 1.386 . S
C918 C920 1.391 . S
C919 C918 1.386 . S
C919 C923 1.393 . S
C920 H909 0.950 . S
C920 C918 1.391 . S
C920 C921 1.400 . S
C921 C915 1.491 . S
C921 C920 1.400 . S
C921 C922 1.398 . S
C922 H910 0.950 . S
C922 C921 1.398 . S
C922 C923 1.391 . S
C923 H911 0.950 . S
C923 C919 1.393 . S
C923 C922 1.391 . S
H924 C932 0.950 . S
H925 C937 0.950 . S
H926 C934 0.950 . S
H927 C936 0.950 . S
H928 C938 0.950 . S
H929 C940 0.950 . S
H930 C942 0.950 . S
H931 C943 0.950 . S
C932 H924 0.950 . S
C932 C933 1.386 . S
C932 C934 1.391 . S
C933 C932 1.386 . S
C933 C937 1.393 . S
C934 H926 0.950 . S
C934 C932 1.391 . S
C934 C935 1.400 . S
C935 C934 1.400 . S
C935 C936 1.398 . S
C935 C941 1.491 . S
C936 H927 0.950 . S
C936 C935 1.398 . S
C936 C937 1.391 . S
C937 H925 0.950 . S
C937 C933 1.393 . S
C937 C936 1.391 . S
C938 H928 0.950 . S
C938 C939 1.386 . S
C938 C940 1.391 . S
C939 C938 1.386 . S
C939 C943 1.393 . S
C940 H929 0.950 . S
C940 C938 1.391 . S
C940 C941 1.400 . S
C941 C935 1.491 . S
C941 C940 1.400 . S
C941 C942 1.398 . S
C942 H930 0.950 . S
C942 C941 1.398 . S
C942 C943 1.391 . S
C943 H931 0.950 . S
C943 C939 1.393 . S
C943 C942 1.391 . S
H944 C952 0.950 . S
H945 C957 0.950 . S
H946 C954 0.950 . S
H947 C956 0.950 . S
H948 C958 0.950 . S
H949 C960 0.950 . S
H950 C962 0.950 . S
H951 C963 0.950 . S
C952 H944 0.950 . S
C952 C953 1.386 . S
C952 C954 1.391 . S
C953 C952 1.386 . S
C953 C957 1.393 . S
C954 H946 0.950 . S
C954 C952 1.391 . S
C954 C955 1.400 . S
C955 C954 1.400 . S
C955 C956 1.398 . S
C955 C961 1.491 . S
C956 H947 0.950 . S
C956 C955 1.398 . S
C956 C957 1.391 . S
C957 H945 0.950 . S
C957 C953 1.393 . S
C957 C956 1.391 . S
C958 H948 0.950 . S
C958 C959 1.386 . S
C958 C960 1.391 . S
C959 C958 1.386 . S
C959 C963 1.393 . S
C960 H949 0.950 . S
C960 C958 1.391 . S
C960 C961 1.400 . S
C961 C955 1.491 . S
C961 C960 1.400 . S
C961 C962 1.398 . S
C962 H950 0.950 . S
C962 C961 1.398 . S
C962 C963 1.391 . S
C963 H951 0.950 . S
C963 C959 1.393 . S
C963 C962 1.391 . S
H964 C972 0.950 . S
H965 C977 0.950 . S
H966 C974 0.950 . S
H967 C976 0.950 . S
H968 C978 0.950 . S
H969 C980 0.950 . S
H970 C982 0.950 . S
H971 C983 0.950 . S
C972 H964 0.950 . S
C972 C973 1.386 . S
C972 C974 1.391 . S
C973 C972 1.386 . S
C973 C977 1.393 . S
C974 H966 0.950 . S
C974 C972 1.391 . S
C974 C975 1.400 . S
C975 C974 1.400 . S
C975 C976 1.398 . S
C975 C981 1.491 . S
C976 H967 0.950 . S
C976 C975 1.398 . S
C976 C977 1.391 . S
C977 H965 0.950 . S
C977 C973 1.393 . S
C977 C976 1.391 . S
C978 H968 0.950 . S
C978 C979 1.386 . S
C978 C980 1.391 . S
C979 C978 1.386 . S
C979 C983 1.393 . S
C980 H969 0.950 . S
C980 C978 1.391 . S
C980 C981 1.400 . S
C981 C975 1.491 . S
C981 C980 1.400 . S
C981 C982 1.398 . S
C982 H970 0.950 . S
C982 C981 1.398 . S
C982 C983 1.391 . S
C983 H971 0.950 . S
C983 C979 1.393 . S
C983 C982 1.391 . S
H984 C992 0.950 . S
H985 C997 0.950 . S
H986 C994 0.950 . S
H987 C996 0.950 . S
H988 C998 0.950 . S
H989 C1000 0.950 . S
H990 C1002 0.950 . S
H991 C1003 0.950 . S
C992 H984 0.950 . S
C992 C993 1.386 . S
C992 C994 1.391 . S
C993 C992 1.386 . S
C993 C997 1.393 . S
C994 H986 0.950 . S
C994 C992 1.391 . S
C994 C995 1.400 . S
C995 C994 1.400 . S
C995 C996 1.398 . S
C995 C1001 1.491 . S
C996 H987 0.950 . S
C996 C995 1.398 . S
C996 C997 1.391 . S
C997 H985 0.950 . S
C997 C993 1.393 . S
C997 C996 1.391 . S
C998 H988 0.950 . S
C998 C999 1.386 . S
C998 C1000 1.391 . S
C999 C998 1.386 . S
C999 C1003 1.393 . S
C1000 H989 0.950 . S
C1000 C998 1.391 . S
C1000 C1001 1.400 . S
C1001 C995 1.491 . S
C1001 C1000 1.400 . S
C1001 C1002 1.398 . S
C1002 H990 0.950 . S
C1002 C1001 1.398 . S
C1002 C1003 1.391 . S
C1003 H991 0.950 . S
C1003 C999 1.393 . S
C1003 C1002 1.391 . S
H1004 C1012 0.950 . S
H1005 C1017 0.950 . S
H1006 C1014 0.950 . S
H1007 C1016 0.950 . S
H1008 C1018 0.950 . S
H1009 C1020 0.950 . S
H1010 C1022 0.950 . S
H1011 C1023 0.950 . S
C1012 H1004 0.950 . S
C1012 C1013 1.386 . S
C1012 C1014 1.391 . S
C1013 C1012 1.386 . S
C1013 C1017 1.393 . S
C1014 H1006 0.950 . S
C1014 C1012 1.391 . S
C1014 C1015 1.400 . S
C1015 C1014 1.400 . S
C1015 C1016 1.398 . S
C1015 C1021 1.491 . S
C1016 H1007 0.950 . S
C1016 C1015 1.398 . S
C1016 C1017 1.391 . S
C1017 H1005 0.950 . S
C1017 C1013 1.393 . S
C1017 C1016 1.391 . S
C1018 H1008 0.950 . S
C1018 C1019 1.386 . S
C1018 C1020 1.391 . S
C1019 C1018 1.386 . S
C1019 C1023 1.393 . S
C1020 H1009 0.950 . S
C1020 C1018 1.391 . S
C1020 C1021 1.400 . S
C1021 C1015 1.491 . S
C1021 C1020 1.400 . S
C1021 C1022 1.398 . S
C1022 H1010 0.950 . S
C1022 C1021 1.398 . S
C1022 C1023 1.391 . S
C1023 H1011 0.950 . S
C1023 C1019 1.393 . S
C1023 C1022 1.391 . S
H1024 C1032 0.950 . S
H1025 C1037 0.950 . S
H1026 C1034 0.950 1_565 S
H1027 C1036 0.950 . S
H1028 C1038 0.950 . S
H1029 C1040 0.950 1_545 S
H1030 C1042 0.950 . S
H1031 C1043 0.950 . S
C1032 H1024 0.950 . S
C1032 C1033 1.386 . S
C1032 C1034 1.391 . S
C1033 C1032 1.386 . S
C1033 C1037 1.393 . S
C1034 H1026 0.950 1_545 S
C1034 C1032 1.391 . S
C1034 C1035 1.400 . S
C1035 C1034 1.400 . S
C1035 C1036 1.398 1_554 S
C1035 C1041 1.491 1_544 S
C1036 H1027 0.950 . S
C1036 C1035 1.398 1_556 S
C1036 C1037 1.391 1_556 S
C1037 H1025 0.950 . S
C1037 C1033 1.393 . S
C1037 C1036 1.391 1_554 S
C1038 H1028 0.950 . S
C1038 C1039 1.386 . S
C1038 C1040 1.391 . S
C1039 C1038 1.386 . S
C1039 C1043 1.393 . S
C1040 H1029 0.950 1_565 S
C1040 C1038 1.391 . S
C1040 C1041 1.400 . S
C1041 C1035 1.491 1_566 S
C1041 C1040 1.400 . S
C1041 C1042 1.398 1_556 S
C1042 H1030 0.950 . S
C1042 C1041 1.398 1_554 S
C1042 C1043 1.391 1_554 S
C1043 H1031 0.950 . S
C1043 C1039 1.393 . S
C1043 C1042 1.391 1_556 S
H1044 C1052 0.950 . S
H1045 C1057 0.950 . S
H1046 C1054 0.950 . S
H1047 C1056 0.950 . S
H1048 C1058 0.950 . S
H1049 C1060 0.950 . S
H1050 C1062 0.950 . S
H1051 C1063 0.950 . S
C1052 H1044 0.950 . S
C1052 C1053 1.386 . S
C1052 C1054 1.391 . S
C1053 C1052 1.386 . S
C1053 C1057 1.393 . S
C1054 H1046 0.950 . S
C1054 C1052 1.391 . S
C1054 C1055 1.400 . S
C1055 C1054 1.400 . S
C1055 C1056 1.398 . S
C1055 C1061 1.491 . S
C1056 H1047 0.950 . S
C1056 C1055 1.398 . S
C1056 C1057 1.391 . S
C1057 H1045 0.950 . S
C1057 C1053 1.393 . S
C1057 C1056 1.391 . S
C1058 H1048 0.950 . S
C1058 C1059 1.386 . S
C1058 C1060 1.391 . S
C1059 C1058 1.386 . S
C1059 C1063 1.393 . S
C1060 H1049 0.950 . S
C1060 C1058 1.391 . S
C1060 C1061 1.400 . S
C1061 C1055 1.491 . S
C1061 C1060 1.400 . S
C1061 C1062 1.398 . S
C1062 H1050 0.950 . S
C1062 C1061 1.398 . S
C1062 C1063 1.391 . S
C1063 H1051 0.950 . S
C1063 C1059 1.393 . S
C1063 C1062 1.391 . S
H1064 C1072 0.950 . S
H1065 C1077 0.950 . S
H1066 C1074 0.950 . S
H1067 C1076 0.950 . S
H1068 C1078 0.950 . S
H1069 C1080 0.950 . S
H1070 C1082 0.950 . S
H1071 C1083 0.950 . S
C1072 H1064 0.950 . S
C1072 C1073 1.386 . S
C1072 C1074 1.391 . S
C1073 C1072 1.386 . S
C1073 C1077 1.393 . S
C1074 H1066 0.950 . S
C1074 C1072 1.391 . S
C1074 C1075 1.400 . S
C1075 C1074 1.400 . S
C1075 C1076 1.398 . S
C1075 C1081 1.491 1_545 S
C1076 H1067 0.950 . S
C1076 C1075 1.398 . S
C1076 C1077 1.391 . S
C1077 H1065 0.950 . S
C1077 C1073 1.393 . S
C1077 C1076 1.391 . S
C1078 H1068 0.950 . S
C1078 C1079 1.386 . S
C1078 C1080 1.391 . S
C1079 C1078 1.386 . S
C1079 C1083 1.393 . S
C1080 H1069 0.950 . S
C1080 C1078 1.391 . S
C1080 C1081 1.400 . S
C1081 C1075 1.491 1_565 S
C1081 C1080 1.400 . S
C1081 C1082 1.398 . S
C1082 H1070 0.950 . S
C1082 C1081 1.398 . S
C1082 C1083 1.391 . S
C1083 H1071 0.950 . S
C1083 C1079 1.393 . S
C1083 C1082 1.391 . S
H1084 C1092 0.950 . S
H1085 C1097 0.950 . S
H1086 C1094 0.950 . S
H1087 C1096 0.950 . S
H1088 C1098 0.950 . S
H1089 C1100 0.950 . S
H1090 C1102 0.950 . S
H1091 C1103 0.950 . S
C1092 H1084 0.950 . S
C1092 C1093 1.386 . S
C1092 C1094 1.391 . S
C1093 C1092 1.386 . S
C1093 C1097 1.393 . S
C1094 H1086 0.950 . S
C1094 C1092 1.391 . S
C1094 C1095 1.400 . S
C1095 C1094 1.400 . S
C1095 C1096 1.398 . S
C1095 C1101 1.491 . S
C1096 H1087 0.950 . S
C1096 C1095 1.398 . S
C1096 C1097 1.391 . S
C1097 H1085 0.950 . S
C1097 C1093 1.393 . S
C1097 C1096 1.391 . S
C1098 H1088 0.950 . S
C1098 C1099 1.386 . S
C1098 C1100 1.391 . S
C1099 C1098 1.386 . S
C1099 C1103 1.393 . S
C1100 H1089 0.950 . S
C1100 C1098 1.391 . S
C1100 C1101 1.400 . S
C1101 C1095 1.491 . S
C1101 C1100 1.400 . S
C1101 C1102 1.398 . S
C1102 H1090 0.950 . S
C1102 C1101 1.398 . S
C1102 C1103 1.391 . S
C1103 H1091 0.950 . S
C1103 C1099 1.393 . S
C1103 C1102 1.391 . S
H1104 C1112 0.950 . S
H1105 C1117 0.950 . S
H1106 C1114 0.950 . S
H1107 C1116 0.950 . S
H1108 C1118 0.950 . S
H1109 C1120 0.950 . S
H1110 C1122 0.950 . S
H1111 C1123 0.950 . S
C1112 H1104 0.950 . S
C1112 C1113 1.386 . S
C1112 C1114 1.391 . S
C1113 C1112 1.386 . S
C1113 C1117 1.393 . S
C1114 H1106 0.950 . S
C1114 C1112 1.391 . S
C1114 C1115 1.400 . S
C1115 C1114 1.400 . S
C1115 C1116 1.398 . S
C1115 C1121 1.491 . S
C1116 H1107 0.950 . S
C1116 C1115 1.398 . S
C1116 C1117 1.391 . S
C1117 H1105 0.950 . S
C1117 C1113 1.393 . S
C1117 C1116 1.391 . S
C1118 H1108 0.950 . S
C1118 C1119 1.386 . S
C1118 C1120 1.391 . S
C1119 C1118 1.386 . S
C1119 C1123 1.393 . S
C1120 H1109 0.950 . S
C1120 C1118 1.391 . S
C1120 C1121 1.400 . S
C1121 C1115 1.491 . S
C1121 C1120 1.400 . S
C1121 C1122 1.398 . S
C1122 H1110 0.950 . S
C1122 C1121 1.398 . S
C1122 C1123 1.391 . S
C1123 H1111 0.950 . S
C1123 C1119 1.393 . S
C1123 C1122 1.391 . S
H1124 C1132 0.950 . S
H1125 C1137 0.950 . S
H1126 C1134 0.950 . S
H1127 C1136 0.950 . S
H1128 C1138 0.950 . S
H1129 C1140 0.950 . S
H1130 C1142 0.950 . S
H1131 C1143 0.950 . S
C1132 H1124 0.950 . S
C1132 C1133 1.386 . S
C1132 C1134 1.391 . S
C1133 C1132 1.386 . S
C1133 C1137 1.393 . S
C1134 H1126 0.950 . S
C1134 C1132 1.391 . S
C1134 C1135 1.400 . S
C1135 C1134 1.400 . S
C1135 C1136 1.398 . S
C1135 C1141 1.491 . S
C1136 H1127 0.950 . S
C1136 C1135 1.398 . S
C1136 C1137 1.391 . S
C1137 H1125 0.950 . S
C1137 C1133 1.393 . S
C1137 C1136 1.391 . S
C1138 H1128 0.950 . S
C1138 C1139 1.386 . S
C1138 C1140 1.391 . S
C1139 C1138 1.386 . S
C1139 C1143 1.393 . S
C1140 H1129 0.950 . S
C1140 C1138 1.391 . S
C1140 C1141 1.400 . S
C1141 C1135 1.491 . S
C1141 C1140 1.400 . S
C1141 C1142 1.398 . S
C1142 H1130 0.950 . S
C1142 C1141 1.398 . S
C1142 C1143 1.391 . S
C1143 H1131 0.950 . S
C1143 C1139 1.393 . S
C1143 C1142 1.391 . S
H1144 C1152 0.950 . S
H1145 C1157 0.950 . S
H1146 C1154 0.950 . S
H1147 C1156 0.950 . S
H1148 C1158 0.950 . S
H1149 C1160 0.950 . S
H1150 C1162 0.950 . S
H1151 C1163 0.950 . S
C1152 H1144 0.950 . S
C1152 C1153 1.386 . S
C1152 C1154 1.391 . S
C1153 C1152 1.386 . S
C1153 C1157 1.393 . S
C1154 H1146 0.950 . S
C1154 C1152 1.391 . S
C1154 C1155 1.400 . S
C1155 C1154 1.400 . S
C1155 C1156 1.398 . S
C1155 C1161 1.491 . S
C1156 H1147 0.950 . S
C1156 C1155 1.398 . S
C1156 C1157 1.391 . S
C1157 H1145 0.950 . S
C1157 C1153 1.393 . S
C1157 C1156 1.391 . S
C1158 H1148 0.950 . S
C1158 C1159 1.386 . S
C1158 C1160 1.391 . S
C1159 C1158 1.386 . S
C1159 C1163 1.393 . S
C1160 H1149 0.950 . S
C1160 C1158 1.391 . S
C1160 C1161 1.400 . S
C1161 C1155 1.491 . S
C1161 C1160 1.400 . S
C1161 C1162 1.398 . S
C1162 H1150 0.950 . S
C1162 C1161 1.398 . S
C1162 C1163 1.391 . S
C1163 H1151 0.950 . S
C1163 C1159 1.393 . S
C1163 C1162 1.391 . S
H1164 C1172 0.950 . S
H1165 C1177 0.950 . S
H1166 C1174 0.950 . S
H1167 C1176 0.950 . S
H1168 C1178 0.950 . S
H1169 C1180 0.950 . S
H1170 C1182 0.950 . S
H1171 C1183 0.950 . S
C1172 H1164 0.950 . S
C1172 C1173 1.386 . S
C1172 C1174 1.391 . S
C1173 C1172 1.386 . S
C1173 C1177 1.393 . S
C1174 H1166 0.950 . S
C1174 C1172 1.391 . S
C1174 C1175 1.400 . S
C1175 C1174 1.400 . S
C1175 C1176 1.398 . S
C1175 C1181 1.491 1_556 S
C1176 H1167 0.950 . S
C1176 C1175 1.398 . S
C1176 C1177 1.391 . S
C1177 H1165 0.950 . S
C1177 C1173 1.393 . S
C1177 C1176 1.391 . S
C1178 H1168 0.950 . S
C1178 C1179 1.386 . S
C1178 C1180 1.391 . S
C1179 C1178 1.386 . S
C1179 C1183 1.393 . S
C1180 H1169 0.950 . S
C1180 C1178 1.391 . S
C1180 C1181 1.400 . S
C1181 C1175 1.491 1_554 S
C1181 C1180 1.400 . S
C1181 C1182 1.398 . S
C1182 H1170 0.950 . S
C1182 C1181 1.398 . S
C1182 C1183 1.391 . S
C1183 H1171 0.950 . S
C1183 C1179 1.393 . S
C1183 C1182 1.391 . S
H1184 C1192 0.950 . S
H1185 C1197 0.950 . S
H1186 C1194 0.950 . S
H1187 C1196 0.950 . S
H1188 C1198 0.950 . S
H1189 C1200 0.950 . S
H1190 C1202 0.950 . S
H1191 C1203 0.950 . S
C1192 H1184 0.950 . S
C1192 C1193 1.386 . S
C1192 C1194 1.391 . S
C1193 C1192 1.386 . S
C1193 C1197 1.393 . S
C1194 H1186 0.950 . S
C1194 C1192 1.391 . S
C1194 C1195 1.400 . S
C1195 C1194 1.400 . S
C1195 C1196 1.398 . S
C1195 C1201 1.491 . S
C1196 H1187 0.950 . S
C1196 C1195 1.398 . S
C1196 C1197 1.391 . S
C1197 H1185 0.950 . S
C1197 C1193 1.393 . S
C1197 C1196 1.391 . S
C1198 H1188 0.950 . S
C1198 C1199 1.386 . S
C1198 C1200 1.391 . S
C1199 C1198 1.386 . S
C1199 C1203 1.393 . S
C1200 H1189 0.950 . S
C1200 C1198 1.391 . S
C1200 C1201 1.400 . S
C1201 C1195 1.491 . S
C1201 C1200 1.400 . S
C1201 C1202 1.398 . S
C1202 H1190 0.950 . S
C1202 C1201 1.398 . S
C1202 C1203 1.391 . S
C1203 H1191 0.950 . S
C1203 C1199 1.393 . S
C1203 C1202 1.391 . S
H1204 C1212 0.950 . S
H1205 C1217 0.950 . S
H1206 C1214 0.950 . S
H1207 C1216 0.950 . S
H1208 C1218 0.950 . S
H1209 C1220 0.950 . S
H1210 C1222 0.950 . S
H1211 C1223 0.950 . S
C1212 H1204 0.950 . S
C1212 C1213 1.386 . S
C1212 C1214 1.391 . S
C1213 C1212 1.386 . S
C1213 C1217 1.393 . S
C1214 H1206 0.950 . S
C1214 C1212 1.391 . S
C1214 C1215 1.400 . S
C1215 C1214 1.400 . S
C1215 C1216 1.398 . S
C1215 C1221 1.491 . S
C1216 H1207 0.950 . S
C1216 C1215 1.398 . S
C1216 C1217 1.391 . S
C1217 H1205 0.950 . S
C1217 C1213 1.393 . S
C1217 C1216 1.391 . S
C1218 H1208 0.950 . S
C1218 C1219 1.386 . S
C1218 C1220 1.391 . S
C1219 C1218 1.386 . S
C1219 C1223 1.393 . S
C1220 H1209 0.950 . S
C1220 C1218 1.391 . S
C1220 C1221 1.400 . S
C1221 C1215 1.491 . S
C1221 C1220 1.400 . S
C1221 C1222 1.398 . S
C1222 H1210 0.950 . S
C1222 C1221 1.398 . S
C1222 C1223 1.391 . S
C1223 H1211 0.950 . S
C1223 C1219 1.393 . S
C1223 C1222 1.391 . S
H1224 C1232 0.950 . S
H1225 C1237 0.950 1_554 S
H1226 C1234 0.950 . S
H1227 C1236 0.950 . S
H1228 C1238 0.950 . S
H1229 C1240 0.950 . S
H1230 C1242 0.950 . S
H1231 C1243 0.950 . S
C1232 H1224 0.950 . S
C1232 C1233 1.386 . S
C1232 C1234 1.391 . S
C1233 C1232 1.386 . S
C1233 C1237 1.393 . S
C1234 H1226 0.950 . S
C1234 C1232 1.391 . S
C1234 C1235 1.400 . S
C1235 C1234 1.400 . S
C1235 C1236 1.398 . S
C1235 C1241 1.491 . S
C1236 H1227 0.950 . S
C1236 C1235 1.398 . S
C1236 C1237 1.391 . S
C1237 H1225 0.950 1_556 S
C1237 C1233 1.393 . S
C1237 C1236 1.391 . S
C1238 H1228 0.950 . S
C1238 C1239 1.386 . S
C1238 C1240 1.391 . S
C1239 C1238 1.386 . S
C1239 C1243 1.393 . S
C1240 H1229 0.950 . S
C1240 C1238 1.391 . S
C1240 C1241 1.400 . S
C1241 C1235 1.491 . S
C1241 C1240 1.400 . S
C1241 C1242 1.398 . S
C1242 H1230 0.950 . S
C1242 C1241 1.398 . S
C1242 C1243 1.391 . S
C1243 H1231 0.950 . S
C1243 C1239 1.393 . S
C1243 C1242 1.391 . S
H1244 C1252 0.950 . S
H1245 C1257 0.950 . S
H1246 C1254 0.950 . S
H1247 C1256 0.950 . S
H1248 C1258 0.950 . S
H1249 C1260 0.950 . S
H1250 C1262 0.950 . S
H1251 C1263 0.950 . S
C1252 H1244 0.950 . S
C1252 C1253 1.386 . S
C1252 C1254 1.391 . S
C1253 C1252 1.386 . S
C1253 C1257 1.393 . S
C1254 H1246 0.950 . S
C1254 C1252 1.391 . S
C1254 C1255 1.400 . S
C1255 C1254 1.400 . S
C1255 C1256 1.398 . S
C1255 C1261 1.491 . S
C1256 H1247 0.950 . S
C1256 C1255 1.398 . S
C1256 C1257 1.391 . S
C1257 H1245 0.950 . S
C1257 C1253 1.393 . S
C1257 C1256 1.391 . S
C1258 H1248 0.950 . S
C1258 C1259 1.386 . S
C1258 C1260 1.391 . S
C1259 C1258 1.386 . S
C1259 C1263 1.393 . S
C1260 H1249 0.950 . S
C1260 C1258 1.391 . S
C1260 C1261 1.400 . S
C1261 C1255 1.491 . S
C1261 C1260 1.400 . S
C1261 C1262 1.398 . S
C1262 H1250 0.950 . S
C1262 C1261 1.398 . S
C1262 C1263 1.391 . S
C1263 H1251 0.950 . S
C1263 C1259 1.393 . S
C1263 C1262 1.391 . S
H1264 C1272 0.950 . S
H1265 C1277 0.950 . S
H1266 C1274 0.950 1_655 S
H1267 C1276 0.950 . S
H1268 C1278 0.950 . S
H1269 C1280 0.950 . S
H1270 C1282 0.950 . S
H1271 C1283 0.950 . S
C1272 H1264 0.950 . S
C1272 C1273 1.386 1_655 S
C1272 C1274 1.391 1_655 S
C1273 C1272 1.386 1_455 S
C1273 C1277 1.393 . S
C1274 H1266 0.950 1_455 S
C1274 C1272 1.391 1_455 S
C1274 C1275 1.400 . S
C1275 C1274 1.400 . S
C1275 C1276 1.398 . S
C1275 C1281 1.491 . S
C1276 H1267 0.950 . S
C1276 C1275 1.398 . S
C1276 C1277 1.391 . S
C1277 H1265 0.950 . S
C1277 C1273 1.393 . S
C1277 C1276 1.391 . S
C1278 H1268 0.950 . S
C1278 C1279 1.386 . S
C1278 C1280 1.391 . S
C1279 C1278 1.386 . S
C1279 C1283 1.393 . S
C1280 H1269 0.950 . S
C1280 C1278 1.391 . S
C1280 C1281 1.400 . S
C1281 C1275 1.491 . S
C1281 C1280 1.400 . S
C1281 C1282 1.398 . S
C1282 H1270 0.950 . S
C1282 C1281 1.398 . S
C1282 C1283 1.391 . S
C1283 H1271 0.950 . S
C1283 C1279 1.393 . S
C1283 C1282 1.391 . S
H1284 C1292 0.898 1_655 S
H1285 C1297 0.950 . S
H1286 C1294 0.950 . S
H1287 C1296 0.950 . S
H1288 C1298 0.950 . S
H1289 C1300 0.950 . S
H1290 C1302 0.950 . S
H1291 C1303 0.950 . S
C1292 H1284 0.898 1_455 S
C1292 C1293 1.403 . S
C1292 C1294 1.426 . S
C1293 C1292 1.403 . S
C1293 C1297 1.393 . S
C1294 H1286 0.950 . S
C1294 C1292 1.426 . S
C1294 C1295 1.400 . S
C1295 C1294 1.400 . S
C1295 C1296 1.398 . S
C1295 C1301 1.491 . S
C1296 H1287 0.950 . S
C1296 C1295 1.398 . S
C1296 C1297 1.391 . S
C1297 H1285 0.950 . S
C1297 C1293 1.393 . S
C1297 C1296 1.391 . S
C1298 H1288 0.950 . S
C1298 C1299 1.386 . S
C1298 C1300 1.391 . S
C1299 C1298 1.386 . S
C1299 C1303 1.393 . S
C1300 H1289 0.950 . S
C1300 C1298 1.391 . S
C1300 C1301 1.400 . S
C1301 C1295 1.491 . S
C1301 C1300 1.400 . S
C1301 C1302 1.398 . S
C1302 H1290 0.950 . S
C1302 C1301 1.398 . S
C1302 C1303 1.391 . S
C1303 H1291 0.950 . S
C1303 C1299 1.393 . S
C1303 C1302 1.391 . S
H1304 C1312 0.950 . S
H1305 C1317 0.950 . S
H1306 C1314 0.950 . S
H1307 C1316 0.950 . S
H1308 C1318 0.950 . S
H1309 C1320 0.950 . S
H1310 C1322 0.950 . S
H1311 C1323 0.950 . S
C1312 H1304 0.950 . S
C1312 C1313 1.386 . S
C1312 C1314 1.391 . S
C1313 C1312 1.386 . S
C1313 C1317 1.393 . S
C1314 H1306 0.950 . S
C1314 C1312 1.391 . S
C1314 C1315 1.400 . S
C1315 C1314 1.400 . S
C1315 C1316 1.398 . S
C1315 C1321 1.491 . S
C1316 H1307 0.950 . S
C1316 C1315 1.398 . S
C1316 C1317 1.391 . S
C1317 H1305 0.950 . S
C1317 C1313 1.393 . S
C1317 C1316 1.391 . S
C1318 H1308 0.950 . S
C1318 C1319 1.386 . S
C1318 C1320 1.391 . S
C1319 C1318 1.386 . S
C1319 C1323 1.393 . S
C1320 H1309 0.950 . S
C1320 C1318 1.391 . S
C1320 C1321 1.400 . S
C1321 C1315 1.491 . S
C1321 C1320 1.400 . S
C1321 C1322 1.398 . S
C1322 H1310 0.950 . S
C1322 C1321 1.398 . S
C1322 C1323 1.391 . S
C1323 H1311 0.950 . S
C1323 C1319 1.393 . S
C1323 C1322 1.391 . S
H1324 C1332 0.950 . S
H1325 C1337 0.950 . S
H1326 C1334 0.950 . S
H1327 C1336 0.950 . S
H1328 C1338 0.950 . S
H1329 C1340 0.950 . S
H1330 C1342 0.950 . S
H1331 C1343 0.950 1_554 S
C1332 H1324 0.950 . S
C1332 C1333 1.386 . S
C1332 C1334 1.391 . S
C1333 C1332 1.386 . S
C1333 C1337 1.393 . S
C1334 H1326 0.950 . S
C1334 C1332 1.391 . S
C1334 C1335 1.400 . S
C1335 C1334 1.400 . S
C1335 C1336 1.398 . S
C1335 C1341 1.491 . S
C1336 H1327 0.950 . S
C1336 C1335 1.398 . S
C1336 C1337 1.391 . S
C1337 H1325 0.950 . S
C1337 C1333 1.393 . S
C1337 C1336 1.391 . S
C1338 H1328 0.950 . S
C1338 C1339 1.386 . S
C1338 C1340 1.391 . S
C1339 C1338 1.386 . S
C1339 C1343 1.393 . S
C1340 H1329 0.950 . S
C1340 C1338 1.391 . S
C1340 C1341 1.400 . S
C1341 C1335 1.491 . S
C1341 C1340 1.400 . S
C1341 C1342 1.398 . S
C1342 H1330 0.950 . S
C1342 C1341 1.398 . S
C1342 C1343 1.391 . S
C1343 H1331 0.950 1_556 S
C1343 C1339 1.393 . S
C1343 C1342 1.391 . S
H1344 C1352 0.950 . S
H1345 C1357 0.950 . S
H1346 C1354 0.950 . S
H1347 C1356 0.950 . S
H1348 C1358 0.950 . S
H1349 C1360 0.950 . S
H1350 C1362 0.950 . S
H1351 C1363 0.950 . S
C1352 H1344 0.950 . S
C1352 C1353 1.386 . S
C1352 C1354 1.391 . S
C1353 C1352 1.386 . S
C1353 C1357 1.393 . S
C1354 H1346 0.950 . S
C1354 C1352 1.391 . S
C1354 C1355 1.400 . S
C1355 C1354 1.400 . S
C1355 C1356 1.398 . S
C1355 C1361 1.491 . S
C1356 H1347 0.950 . S
C1356 C1355 1.398 . S
C1356 C1357 1.391 . S
C1357 H1345 0.950 . S
C1357 C1353 1.393 . S
C1357 C1356 1.391 . S
C1358 H1348 0.950 . S
C1358 C1359 1.386 . S
C1358 C1360 1.391 . S
C1359 C1358 1.386 . S
C1359 C1363 1.393 . S
C1360 H1349 0.950 . S
C1360 C1358 1.391 . S
C1360 C1361 1.400 . S
C1361 C1355 1.491 . S
C1361 C1360 1.400 . S
C1361 C1362 1.398 . S
C1362 H1350 0.950 . S
C1362 C1361 1.398 . S
C1362 C1363 1.391 . S
C1363 H1351 0.950 . S
C1363 C1359 1.393 . S
C1363 C1362 1.391 . S
H1364 C1372 0.950 . S
H1365 C1377 0.950 . S
H1366 C1374 0.950 . S
H1367 C1376 0.950 . S
H1368 C1378 0.950 1_556 S
H1369 C1380 0.950 . S
H1370 C1382 0.950 . S
H1371 C1383 0.950 . S
C1372 H1364 0.950 . S
C1372 C1373 1.386 . S
C1372 C1374 1.391 . S
C1373 C1372 1.386 . S
C1373 C1377 1.393 . S
C1374 H1366 0.950 . S
C1374 C1372 1.391 . S
C1374 C1375 1.400 . S
C1375 C1374 1.400 . S
C1375 C1376 1.398 . S
C1375 C1381 1.491 . S
C1376 H1367 0.950 . S
C1376 C1375 1.398 . S
C1376 C1377 1.391 . S
C1377 H1365 0.950 . S
C1377 C1373 1.393 . S
C1377 C1376 1.391 . S
C1378 H1368 0.950 1_554 S
C1378 C1379 1.386 . S
C1378 C1380 1.391 . S
C1379 C1378 1.386 . S
C1379 C1383 1.393 . S
C1380 H1369 0.950 . S
C1380 C1378 1.391 . S
C1380 C1381 1.400 . S
C1381 C1375 1.491 . S
C1381 C1380 1.400 . S
C1381 C1382 1.398 . S
C1382 H1370 0.950 . S
C1382 C1381 1.398 . S
C1382 C1383 1.391 . S
C1383 H1371 0.950 . S
C1383 C1379 1.393 . S
C1383 C1382 1.391 . S
H1384 C1392 0.950 . S
H1385 C1397 0.950 . S
H1386 C1394 0.950 . S
H1387 C1396 0.950 . S
H1388 C1398 0.950 . S
H1389 C1400 0.950 . S
H1390 C1402 0.950 . S
H1391 C1403 0.950 . S
C1392 H1384 0.950 . S
C1392 C1393 1.386 . S
C1392 C1394 1.391 . S
C1393 C1392 1.386 . S
C1393 C1397 1.393 . S
C1394 H1386 0.950 . S
C1394 C1392 1.391 . S
C1394 C1395 1.400 . S
C1395 C1394 1.400 . S
C1395 C1396 1.398 . S
C1395 C1401 1.491 . S
C1396 H1387 0.950 . S
C1396 C1395 1.398 . S
C1396 C1397 1.391 . S
C1397 H1385 0.950 . S
C1397 C1393 1.393 . S
C1397 C1396 1.391 . S
C1398 H1388 0.950 . S
C1398 C1399 1.386 1_655 S
C1398 C1400 1.391 1_655 S
C1399 C1398 1.386 1_455 S
C1399 C1403 1.393 . S
C1400 H1389 0.950 . S
C1400 C1398 1.391 1_455 S
C1400 C1401 1.400 . S
C1401 C1395 1.491 . S
C1401 C1400 1.400 . S
C1401 C1402 1.398 . S
C1402 H1390 0.950 . S
C1402 C1401 1.398 . S
C1402 C1403 1.391 . S
C1403 H1391 0.950 . S
C1403 C1399 1.393 . S
C1403 C1402 1.391 . S
H1404 C1412 0.950 . S
H1405 C1417 0.950 . S
H1406 C1414 0.950 . S
H1407 C1416 0.950 . S
H1408 C1418 0.918 1_655 S
H1409 C1420 0.950 . S
H1410 C1422 0.950 . S
H1411 C1423 0.950 . S
C1412 H1404 0.950 . S
C1412 C1413 1.386 . S
C1412 C1414 1.391 . S
C1413 C1412 1.386 . S
C1413 C1417 1.393 . S
C1414 H1406 0.950 . S
C1414 C1412 1.391 . S
C1414 C1415 1.400 . S
C1415 C1414 1.400 . S
C1415 C1416 1.398 . S
C1415 C1421 1.491 . S
C1416 H1407 0.950 . S
C1416 C1415 1.398 . S
C1416 C1417 1.391 . S
C1417 H1405 0.950 . S
C1417 C1413 1.393 . S
C1417 C1416 1.391 . S
C1418 H1408 0.918 1_455 S
C1418 C1419 1.397 . S
C1418 C1420 1.412 . S
C1419 C1418 1.397 . S
C1419 C1423 1.393 . S
C1420 H1409 0.950 . S
C1420 C1418 1.412 . S
C1420 C1421 1.400 . S
C1421 C1415 1.491 . S
C1421 C1420 1.400 . S
C1421 C1422 1.398 . S
C1422 H1410 0.950 . S
C1422 C1421 1.398 . S
C1422 C1423 1.391 . S
C1423 H1411 0.950 . S
C1423 C1419 1.393 . S
C1423 C1422 1.391 . S
H1424 C1432 0.950 . S
H1425 C1437 0.950 . S
H1426 C1434 0.950 . S
H1427 C1436 0.950 . S
H1428 C1438 0.950 . S
H1429 C1440 0.950 . S
H1430 C1442 0.950 . S
H1431 C1443 0.951 . S
C1432 H1424 0.950 . S
C1432 C1433 1.386 . S
C1432 C1434 1.391 . S
C1433 C1432 1.386 . S
C1433 C1437 1.393 . S
C1434 H1426 0.950 . S
C1434 C1432 1.391 . S
C1434 C1435 1.400 . S
C1435 C1434 1.400 . S
C1435 C1436 1.398 . S
C1435 C1441 1.491 . S
C1436 H1427 0.950 . S
C1436 C1435 1.398 . S
C1436 C1437 1.391 . S
C1437 H1425 0.950 . S
C1437 C1433 1.393 . S
C1437 C1436 1.391 . S
C1438 H1428 0.950 . S
C1438 C1439 1.386 . S
C1438 C1440 1.391 . S
C1439 C1438 1.386 . S
C1439 C1443 1.393 . S
C1440 H1429 0.950 . S
C1440 C1438 1.391 . S
C1440 C1441 1.400 . S
C1441 C1435 1.491 . S
C1441 C1440 1.400 . S
C1441 C1442 1.398 . S
C1442 H1430 0.950 . S
C1442 C1441 1.398 . S
C1442 C1443 1.391 . S
C1443 H1431 0.951 . S
C1443 C1439 1.393 . S
C1443 C1442 1.391 . S
H1444 C1452 0.950 1_554 S
H1445 C1457 0.950 . S
H1446 C1454 0.950 . S
H1447 C1456 0.950 . S
H1448 C1458 0.950 . S
H1449 C1460 0.950 . S
H1450 C1462 0.950 . S
H1451 C1463 0.950 . S
C1452 H1444 0.950 1_556 S
C1452 C1453 1.386 . S
C1452 C1454 1.391 . S
C1453 C1452 1.386 . S
C1453 C1457 1.393 . S
C1454 H1446 0.950 . S
C1454 C1452 1.391 . S
C1454 C1455 1.400 . S
C1455 C1454 1.400 . S
C1455 C1456 1.398 . S
C1455 C1461 1.491 . S
C1456 H1447 0.950 . S
C1456 C1455 1.398 . S
C1456 C1457 1.391 . S
C1457 H1445 0.950 . S
C1457 C1453 1.393 . S
C1457 C1456 1.391 . S
C1458 H1448 0.950 . S
C1458 C1459 1.386 . S
C1458 C1460 1.391 . S
C1459 C1458 1.386 . S
C1459 C1463 1.393 . S
C1460 H1449 0.950 . S
C1460 C1458 1.391 . S
C1460 C1461 1.400 . S
C1461 C1455 1.491 . S
C1461 C1460 1.400 . S
C1461 C1462 1.398 . S
C1462 H1450 0.950 . S
C1462 C1461 1.398 . S
C1462 C1463 1.391 . S
C1463 H1451 0.950 . S
C1463 C1459 1.393 . S
C1463 C1462 1.391 . S
H1464 C1472 0.950 . S
H1465 C1477 0.950 . S
H1466 C1474 0.950 . S
H1467 C1476 0.950 . S
H1468 C1478 0.950 . S
H1469 C1480 0.950 . S
H1470 C1482 0.950 . S
H1471 C1483 0.950 . S
C1472 H1464 0.950 . S
C1472 C1473 1.386 . S
C1472 C1474 1.391 . S
C1473 C1472 1.386 . S
C1473 C1477 1.393 . S
C1474 H1466 0.950 . S
C1474 C1472 1.391 . S
C1474 C1475 1.400 . S
C1475 C1474 1.400 . S
C1475 C1476 1.398 . S
C1475 C1481 1.491 . S
C1476 H1467 0.950 . S
C1476 C1475 1.398 . S
C1476 C1477 1.391 . S
C1477 H1465 0.950 . S
C1477 C1473 1.393 . S
C1477 C1476 1.391 . S
C1478 H1468 0.950 . S
C1478 C1479 1.386 . S
C1478 C1480 1.391 . S
C1479 C1478 1.386 . S
C1479 C1483 1.393 . S
C1480 H1469 0.950 . S
C1480 C1478 1.391 . S
C1480 C1481 1.400 . S
C1481 C1475 1.491 . S
C1481 C1480 1.400 . S
C1481 C1482 1.398 . S
C1482 H1470 0.950 . S
C1482 C1481 1.398 . S
C1482 C1483 1.391 . S
C1483 H1471 0.950 . S
C1483 C1479 1.393 . S
C1483 C1482 1.391 . S
H1484 C1492 0.950 . S
H1485 C1497 0.950 . S
H1486 C1494 0.950 . S
H1487 C1496 0.950 . S
H1488 C1498 0.950 . S
H1489 C1500 0.950 . S
H1490 C1502 0.950 . S
H1491 C1503 0.950 . S
C1492 H1484 0.950 . S
C1492 C1493 1.386 . S
C1492 C1494 1.391 . S
C1493 C1492 1.386 . S
C1493 C1497 1.393 . S
C1494 H1486 0.950 . S
C1494 C1492 1.391 . S
C1494 C1495 1.400 . S
C1495 C1494 1.400 . S
C1495 C1496 1.398 . S
C1495 C1501 1.491 . S
C1496 H1487 0.950 . S
C1496 C1495 1.398 . S
C1496 C1497 1.391 . S
C1497 H1485 0.950 . S
C1497 C1493 1.393 . S
C1497 C1496 1.391 . S
C1498 H1488 0.950 . S
C1498 C1499 1.386 . S
C1498 C1500 1.391 . S
C1499 C1498 1.386 . S
C1499 C1503 1.393 . S
C1500 H1489 0.950 . S
C1500 C1498 1.391 . S
C1500 C1501 1.400 . S
C1501 C1495 1.491 . S
C1501 C1500 1.400 . S
C1501 C1502 1.398 . S
C1502 H1490 0.950 . S
C1502 C1501 1.398 . S
C1502 C1503 1.391 . S
C1503 H1491 0.950 . S
C1503 C1499 1.393 . S
C1503 C1502 1.391 . S
C553 C8 1.904 1_556 S
C559 C267 1.902 . S
C573 C42 1.912 . S
C579 C165 1.911 1_554 S
C593 C199 1.894 . S
C599 C76 1.910 . S
C613 C110 1.907 . S
C619 C233 1.897 . S
C633 C374 1.897 1_455 S
C639 C153 1.907 1_554 S
C653 C289 1.928 . S
C659 C0 1.892 1_556 S
C673 C340 1.903 . S
C679 C221 1.920 . S
C693 C68 1.911 . S
C699 C323 1.909 . S
C713 C335 1.894 . S
C719 C416 1.911 . S
C733 C348 1.908 . S
C739 C505 1.896 . S
C753 C450 1.904 1_556 S
C759 C301 1.903 1_455 S
C773 C382 1.922 . S
C779 C539 1.896 1_554 S
C793 C493 1.905 . S
C799 C102 1.901 . S
C813 C408 1.903 . S
C819 C187 1.904 . S
C833 C34 1.897 . S
C839 C527 1.907 1_554 S
C853 C255 1.921 . S
C859 C442 1.899 1_556 S
C873 C455 2.545 . S
C879 C13 2.540 . S
C893 C387 2.531 . S
C899 C47 2.530 . S
C913 C421 2.550 . S
C919 C81 2.546 . S
C933 C353 2.552 . S
C939 C115 2.549 . S
C953 C140 2.538 . S
C959 C514 2.533 . S
C973 C310 2.550 . S
C979 C174 2.553 . S
C993 C208 2.537 . S
C999 C480 2.542 . S
C1013 C242 2.530 . S
C1019 C276 2.530 . S
C1033 C4 1.416 . S
C1039 C149 1.416 . S
C1053 C38 1.412 . S
C1059 C183 1.412 . S
C1073 C217 1.408 . S
C1079 C72 1.408 . S
C1093 C106 1.425 . S
C1099 C251 1.425 . S
C1113 C344 1.419 . S
C1119 C285 1.419 . S
C1133 C378 1.405 . S
C1139 C319 1.405 . S
C1153 C412 1.407 . S
C1159 C489 1.407 . S
C1173 C523 1.426 . S
C1179 C446 1.426 . S
C1193 C29 1.704 . S
C1199 C246 1.706 . S
C1213 C63 1.722 . S
C1219 C144 1.710 . S
C1233 C178 1.705 1_556 S
C1239 C97 1.703 . S
C1253 C212 1.687 . S
C1259 C131 1.710 1_554 S
C1273 C391 1.697 1_455 S
C1279 C136 1.729 . S
C1293 C272 1.720 1_455 S
C1299 C17 1.711 . S
C1313 C357 1.711 1_554 S
C1319 C204 1.721 . S
C1333 C85 1.685 . S
C1339 C306 1.723 1_556 S
C1353 C437 1.722 . S
C1359 C314 1.710 1_556 S
C1373 C484 1.689 . S
C1379 C369 1.727 1_554 S
C1393 C471 1.728 . S
C1399 C280 1.691 1_455 S
C1413 C518 1.713 . S
C1419 C403 1.711 1_455 S
C1433 C476 1.716 . S
C1439 C119 1.713 1_554 S
C1453 C170 1.723 1_556 S
C1459 C425 1.685 . S
C1473 C51 1.684 . S
C1479 C510 1.719 . S
C1493 C459 1.688 . S
C1499 C238 1.710 . S
