# Generated by pormake.
# Topology wkj, (6)-cn, num edge types: 1
# Building blocks:
#     Node 0, Type 0, BuildingBlock: BETDIP_clean_sbu_0, # of connection points: 6
#     Node 1, Type 0, BuildingBlock: BETDIP_clean_sbu_0, # of connection points: 6
#     Node 2, Type 0, BuildingBlock: BETDIP_clean_sbu_0, # of connection points: 6
#     Node 3, Type 0, BuildingBlock: BETDIP_clean_sbu_0, # of connection points: 6
#     Node 4, Type 0, BuildingBlock: BETDIP_clean_sbu_0, # of connection points: 6
#     Node 5, Type 0, BuildingBlock: BETDIP_clean_sbu_0, # of connection points: 6
#     Node 6, Type 0, BuildingBlock: BETDIP_clean_sbu_0, # of connection points: 6
#     Node 7, Type 0, BuildingBlock: BETDIP_clean_sbu_0, # of connection points: 6
#     Node 8, Type 0, BuildingBlock: BETDIP_clean_sbu_0, # of connection points: 6
#     Node 9, Type 0, BuildingBlock: BETDIP_clean_sbu_0, # of connection points: 6
#     Node 10, Type 0, BuildingBlock: BETDIP_clean_sbu_0, # of connection points: 6
#     Node 11, Type 0, BuildingBlock: BETDIP_clean_sbu_0, # of connection points: 6
#     Edge 12, Type (0, 0), BuildingBlock: MIFKUJ_clean_linker_0, # of connection points: 2
#     Edge 13, Type (0, 0), BuildingBlock: MIFKUJ_clean_linker_0, # of connection points: 2
#     Edge 14, Type (0, 0), BuildingBlock: MIFKUJ_clean_linker_0, # of connection points: 2
#     Edge 15, Type (0, 0), BuildingBlock: MIFKUJ_clean_linker_0, # of connection points: 2
#     Edge 16, Type (0, 0), BuildingBlock: MIFKUJ_clean_linker_0, # of connection points: 2
#     Edge 17, Type (0, 0), BuildingBlock: MIFKUJ_clean_linker_0, # of connection points: 2
#     Edge 18, Type (0, 0), BuildingBlock: MIFKUJ_clean_linker_0, # of connection points: 2
#     Edge 19, Type (0, 0), BuildingBlock: MIFKUJ_clean_linker_0, # of connection points: 2
#     Edge 20, Type (0, 0), BuildingBlock: MIFKUJ_clean_linker_0, # of connection points: 2
#     Edge 21, Type (0, 0), BuildingBlock: MIFKUJ_clean_linker_0, # of connection points: 2
#     Edge 22, Type (0, 0), BuildingBlock: MIFKUJ_clean_linker_0, # of connection points: 2
#     Edge 23, Type (0, 0), BuildingBlock: MIFKUJ_clean_linker_0, # of connection points: 2
#     Edge 24, Type (0, 0), BuildingBlock: MIFKUJ_clean_linker_0, # of connection points: 2
#     Edge 25, Type (0, 0), BuildingBlock: MIFKUJ_clean_linker_0, # of connection points: 2
#     Edge 26, Type (0, 0), BuildingBlock: MIFKUJ_clean_linker_0, # of connection points: 2
#     Edge 27, Type (0, 0), BuildingBlock: MIFKUJ_clean_linker_0, # of connection points: 2
#     Edge 28, Type (0, 0), BuildingBlock: MIFKUJ_clean_linker_0, # of connection points: 2
#     Edge 29, Type (0, 0), BuildingBlock: MIFKUJ_clean_linker_0, # of connection points: 2
#     Edge 30, Type (0, 0), BuildingBlock: MIFKUJ_clean_linker_0, # of connection points: 2
#     Edge 31, Type (0, 0), BuildingBlock: MIFKUJ_clean_linker_0, # of connection points: 2
#     Edge 32, Type (0, 0), BuildingBlock: MIFKUJ_clean_linker_0, # of connection points: 2
#     Edge 33, Type (0, 0), BuildingBlock: MIFKUJ_clean_linker_0, # of connection points: 2
#     Edge 34, Type (0, 0), BuildingBlock: MIFKUJ_clean_linker_0, # of connection points: 2
#     Edge 35, Type (0, 0), BuildingBlock: MIFKUJ_clean_linker_0, # of connection points: 2
#     Edge 36, Type (0, 0), BuildingBlock: MIFKUJ_clean_linker_0, # of connection points: 2
#     Edge 37, Type (0, 0), BuildingBlock: MIFKUJ_clean_linker_0, # of connection points: 2
#     Edge 38, Type (0, 0), BuildingBlock: MIFKUJ_clean_linker_0, # of connection points: 2
#     Edge 39, Type (0, 0), BuildingBlock: MIFKUJ_clean_linker_0, # of connection points: 2
#     Edge 40, Type (0, 0), BuildingBlock: MIFKUJ_clean_linker_0, # of connection points: 2
#     Edge 41, Type (0, 0), BuildingBlock: MIFKUJ_clean_linker_0, # of connection points: 2
#     Edge 42, Type (0, 0), BuildingBlock: MIFKUJ_clean_linker_0, # of connection points: 2
#     Edge 43, Type (0, 0), BuildingBlock: MIFKUJ_clean_linker_0, # of connection points: 2
#     Edge 44, Type (0, 0), BuildingBlock: MIFKUJ_clean_linker_0, # of connection points: 2
#     Edge 45, Type (0, 0), BuildingBlock: MIFKUJ_clean_linker_0, # of connection points: 2
#     Edge 46, Type (0, 0), BuildingBlock: MIFKUJ_clean_linker_0, # of connection points: 2
#     Edge 47, Type (0, 0), BuildingBlock: MIFKUJ_clean_linker_0, # of connection points: 2
# Relax obj value: 0.585
# Max RMSD: 0.174
# Mean RMSD: 0.174
data_MOF--net-wkj--node1-BETDIP_clean_sbu_0--edge1-MIFKUJ_clean_linker_0
_symmetry_space_group_name_H-M    P1
_symmetry_Int_Tables_number       1
_symmetry_cell_setting            triclinic
loop_
_symmetry_equiv_pos_as_xyz
'x, y, z'
_cell_length_a     62.28201
_cell_length_b     62.448392
_cell_length_c     38.563708
_cell_angle_alpha  89.979348
_cell_angle_beta   90.195224
_cell_angle_gamma 119.80522
loop_
_atom_site_label
_atom_site_type_symbol
_atom_site_fract_x
_atom_site_fract_y
_atom_site_fract_z
_atom_type_partial_charge
Tb0 Tb 0.47744 0.09584 0.34498 0.0
Tb1 Tb 0.5266 0.1108 0.33013 0.0
C2 C 0.43093 0.07574 0.3488 0.0
C3 C 0.41029 0.05866 0.37052 0.0
C4 C 0.41221 0.04149 0.39174 0.0
C5 C 0.39232 0.02557 0.41247 0.0
C6 C 0.37029 0.02671 0.41243 0.0
C7 C 0.36842 0.04384 0.3909 0.0
C8 C 0.38829 0.05965 0.36997 0.0
C9 C 0.50299 0.14355 0.32503 0.0
C10 C 0.51231 0.10724 0.41365 0.0
C11 C 0.57158 0.14233 0.32394 0.0
C12 C 0.58371 0.16288 0.29968 0.0
C13 C 0.60815 0.18182 0.30521 0.0
C14 C 0.61805 0.20331 0.28503 0.0
C15 C 0.60331 0.20611 0.25981 0.0
C16 C 0.57906 0.18671 0.25395 0.0
C17 C 0.56937 0.16535 0.27369 0.0
C18 C 0.50271 0.06408 0.3498 0.0
C19 C 0.49038 0.08028 0.26918 0.0
O20 O 0.4425 0.06644 0.33186 0.0
O21 O 0.44619 0.09708 0.36254 0.0
O22 O 0.50355 0.12531 0.3115 0.0
O23 O 0.48788 0.13487 0.35062 0.0
O24 O 0.48892 0.09688 0.40167 0.0
O25 O 0.53004 0.1149 0.38938 0.0
O26 O 0.55645 0.14474 0.34488 0.0
O27 O 0.56168 0.1201 0.31065 0.0
O28 O 0.49996 0.08148 0.36061 0.0
O29 O 0.52103 0.07343 0.328 0.0
O30 O 0.51386 0.09655 0.27651 0.0
O31 O 0.47346 0.0764 0.2934 0.0
H32 H 0.42915 0.04061 0.39258 0.0
H33 H 0.39449 0.01295 0.42944 0.0
H34 H 0.35171 0.04514 0.39051 0.0
H35 H 0.38659 0.07284 0.3536 0.0
H36 H 0.61927 0.18027 0.32565 0.0
H37 H 0.63687 0.2179 0.28966 0.0
H38 H 0.56747 0.18805 0.23402 0.0
H39 H 0.55035 0.15104 0.26942 0.0
Tb40 Tb 0.37294 0.47197 0.67596 0.0
Tb41 Tb 0.41068 0.52029 0.65947 0.0
C42 C 0.34694 0.42587 0.68392 0.0
C43 C 0.35288 0.40757 0.69765 0.0
C44 C 0.37763 0.414 0.70286 0.0
C45 C 0.38349 0.39824 0.72091 0.0
C46 C 0.36462 0.37546 0.73352 0.0
C47 C 0.33981 0.36834 0.72582 0.0
C48 C 0.33399 0.38442 0.70833 0.0
C49 C 0.35289 0.49943 0.65631 0.0
C50 C 0.39918 0.50968 0.74267 0.0
C51 C 0.42913 0.56564 0.64826 0.0
C52 C 0.42431 0.57937 0.6212 0.0
C53 C 0.40039 0.56983 0.60731 0.0
C54 C 0.39573 0.58248 0.58128 0.0
C55 C 0.41494 0.60481 0.56823 0.0
C56 C 0.43888 0.61444 0.58228 0.0
C57 C 0.44349 0.60185 0.60873 0.0
C58 C 0.42729 0.49059 0.68213 0.0
C59 C 0.40353 0.48251 0.6013 0.0
O60 O 0.3578 0.43634 0.65497 0.0
O61 O 0.34818 0.44199 0.70647 0.0
O62 O 0.37163 0.49959 0.64258 0.0
O63 O 0.3455 0.48355 0.68098 0.0
O64 O 0.38405 0.48627 0.73196 0.0
O65 O 0.4108 0.5264 0.7177 0.0
O66 O 0.41068 0.55312 0.66951 0.0
O67 O 0.43954 0.55294 0.63805 0.0
O68 O 0.40905 0.49212 0.69115 0.0
O69 O 0.43991 0.50943 0.66186 0.0
O70 O 0.41061 0.50605 0.60689 0.0
O71 O 0.39058 0.46642 0.62668 0.0
H72 H 0.39241 0.43169 0.69417 0.0
H73 H 0.40278 0.40462 0.72656 0.0
H74 H 0.32482 0.35072 0.73438 0.0
H75 H 0.31476 0.37912 0.70417 0.0
H76 H 0.38531 0.55236 0.61623 0.0
H77 H 0.37724 0.57427 0.57045 0.0
H78 H 0.45404 0.63156 0.57257 0.0
H79 H 0.46206 0.60947 0.6191 0.0
Tb80 Tb 0.88891 0.36589 1.00525 0.0
Tb81 Tb 0.88347 0.4083 0.99982 0.0
C82 C 0.89495 0.32965 1.0194 0.0
C83 C 0.90786 0.32364 1.04643 0.0
C84 C 0.90459 0.32662 1.08178 0.0
C85 C 0.91969 0.32443 0.10666 0.0
C86 C 0.93832 0.31926 0.09666 0.0
C87 C 0.9407 0.315 1.06149 0.0
C88 C 0.92548 0.31705 1.03659 0.0
C89 C 0.84704 0.35509 0.97156 0.0
C90 C 0.87941 0.39063 1.07745 0.0
C91 C 0.86511 0.43479 0.98296 0.0
C92 C 0.84437 0.42951 0.95972 0.0
C93 C 0.8341 0.44502 0.95914 0.0
C94 C 0.81193 0.43785 0.94125 0.0
C95 C 0.79959 0.41487 0.92429 0.0
C96 C 0.81025 0.39961 0.92453 0.0
C97 C 0.83246 0.40691 0.94199 0.0
C98 C 0.92512 0.41695 1.0312 0.0
C99 C 0.91239 0.39924 0.93558 0.0
O100 O 0.90922 0.34751 0.99848 0.0
O101 O 0.8758 0.3314 1.02905 0.0
O102 O 0.85567 0.36871 0.99844 0.0
O103 O 0.86343 0.34957 0.96202 0.0
O104 O 0.88526 0.37438 1.06324 0.0
O105 O 0.8757 0.40504 1.056 0.0
O106 O 0.85842 0.42049 1.01005 0.0
O107 O 0.88514 0.43692 0.9688 0.0
O108 O 0.91432 0.40325 1.00603 0.0
O109 O 0.91476 0.43023 1.03674 0.0
O110 O 0.89921 0.4097 0.94605 0.0
O111 O 0.91285 0.38248 0.95707 0.0
H112 H 0.89124 0.33185 1.09013 0.0
H113 H 0.91769 0.32815 0.13354 0.0
H114 H 0.95487 0.3109 1.05316 0.0
H115 H 0.92826 0.31463 1.00947 0.0
H116 H 0.84285 0.46233 0.97324 0.0
H117 H 0.80416 0.44998 0.94128 0.0
H118 H 0.80147 0.38206 0.91102 0.0
H119 H 0.84001 0.3946 0.9425 0.0
Tb120 Tb 0.51233 0.8983 0.34871 0.0
Tb121 Tb 0.46045 0.8809 0.33365 0.0
C122 C 0.55847 0.92366 0.35605 0.0
C123 C 0.57522 0.94153 0.38164 0.0
C124 C 0.56951 0.93841 0.4171 0.0
C125 C 0.58569 0.95564 0.44103 0.0
C126 C 0.6076 0.97637 0.42979 0.0
C127 C 0.61295 0.97983 0.39426 0.0
C128 C 0.59688 0.96241 0.37033 0.0
C129 C 0.48862 0.85034 0.33164 0.0
C130 C 0.47566 0.88412 0.41662 0.0
C131 C 0.41528 0.84959 0.32737 0.0
C132 C 0.40071 0.82817 0.30498 0.0
C133 C 0.37493 0.81753 0.30282 0.0
C134 C 0.36106 0.79632 0.28271 0.0
C135 C 0.37283 0.78535 0.26492 0.0
C136 C 0.39868 0.79602 0.26774 0.0
C137 C 0.41245 0.81729 0.28733 0.0
C138 C 0.48558 0.92706 0.35735 0.0
C139 C 0.49709 0.91265 0.2728 0.0
O140 O 0.54544 0.93082 0.33794 0.0
O141 O 0.54535 0.90077 0.36632 0.0
O142 O 0.48532 0.86704 0.31719 0.0
O143 O 0.50534 0.86103 0.35521 0.0
O144 O 0.49925 0.89603 0.40502 0.0
O145 O 0.45774 0.87544 0.39237 0.0
O146 O 0.43054 0.84712 0.34819 0.0
O147 O 0.42556 0.87136 0.31259 0.0
O148 O 0.48766 0.90875 0.36314 0.0
O149 O 0.46456 0.91838 0.34093 0.0
O150 O 0.47349 0.89709 0.28085 0.0
O151 O 0.51461 0.91571 0.29584 0.0
H152 H 0.55259 0.9227 0.42631 0.0
H153 H 0.58102 0.9529 0.46832 0.0
H154 H 0.62973 -0.00426 0.38511 0.0
H155 H 0.60137 0.9652 0.34298 0.0
H156 H 0.36558 0.82561 0.31666 0.0
H157 H 0.3412 0.78857 0.28094 0.0
H158 H 0.40845 0.78839 0.25393 0.0
H159 H 0.43231 0.82529 0.28885 0.0
Tb160 Tb 0.616 0.51762 0.67522 0.0
Tb161 Tb 0.57617 0.47001 0.66179 0.0
C162 C 0.64525 0.56344 0.6802 0.0
C163 C 0.65075 0.58211 0.70692 0.0
C164 C 0.64698 0.57552 0.74204 0.0
C165 C 0.65095 0.59316 0.76713 0.0
C166 C 0.65854 0.61761 0.75747 0.0
C167 C 0.66239 0.62418 0.72227 0.0
C168 C 0.65859 0.60651 0.69715 0.0
C169 C 0.63249 0.48658 0.65892 0.0
C170 C 0.58958 0.48389 0.74442 0.0
C171 C 0.55615 0.42386 0.65868 0.0
C172 C 0.56243 0.40816 0.63799 0.0
C173 C 0.55348 0.38345 0.64726 0.0
C174 C 0.56284 0.36972 0.63116 0.0
C175 C 0.58154 0.38074 0.60605 0.0
C176 C 0.59021 0.4055 0.59679 0.0
C177 C 0.58078 0.41907 0.61265 0.0
C178 C 0.563 0.50281 0.67862 0.0
C179 C 0.58588 0.50524 0.59885 0.0
O180 O 0.62319 0.55378 0.66658 0.0
O181 O 0.65139 0.54677 0.68735 0.0
O182 O 0.61481 0.48795 0.64394 0.0
O183 O 0.64029 0.50235 0.68392 0.0
O184 O 0.6054 0.5067 0.73235 0.0
O185 O 0.57673 0.46665 0.72047 0.0
O186 O 0.57367 0.43759 0.68057 0.0
O187 O 0.54756 0.43637 0.64205 0.0
O188 O 0.5799 0.50002 0.69073 0.0
O189 O 0.54905 0.48356 0.65962 0.0
O190 O 0.57524 0.48165 0.60785 0.0
O191 O 0.60196 0.52202 0.62159 0.0
H192 H 0.64055 0.55666 0.75001 0.0
H193 H 0.64733 0.58749 0.79402 0.0
H194 H 0.66818 0.64289 0.71424 0.0
H195 H 0.66138 0.61179 0.67006 0.0
H196 H 0.53974 0.375 0.66747 0.0
H197 H 0.55569 0.35063 0.63856 0.0
H198 H 0.60407 0.41437 0.57683 0.0
H199 H 0.58828 0.43831 0.60576 0.0
Tb200 Tb 0.09121 0.60832 1.00636 0.0
Tb201 Tb 0.1176 0.58397 0.99051 0.0
C202 C 0.06458 0.62761 1.0153 0.0
C203 C 0.06539 0.64514 1.0412 0.0
C204 C 0.08195 0.65185 1.06915 0.0
C205 C 0.07964 0.6644 0.09748 0.0
C206 C 0.06076 0.67054 0.09831 0.0
C207 C 0.04552 0.66556 1.06887 0.0
C208 C 0.04774 0.65278 1.04058 0.0
C209 C 0.14087 0.63902 0.99984 0.0
C210 C 0.10938 0.59048 1.07305 0.0
C211 C 0.15024 0.57429 0.97083 0.0
C212 C 0.16688 0.57961 0.94122 0.0
C213 C 0.19192 0.58758 0.9476 0.0
C214 C 0.20855 0.59413 0.92017 0.0
C215 C 0.20038 0.59271 0.88581 0.0
C216 C 0.17511 0.58414 0.87946 0.0
C217 C 0.15851 0.57775 0.90694 0.0
C218 C 0.07415 0.55337 1.01637 0.0
C219 C 0.08019 0.58232 0.92937 0.0
O220 O 0.05956 0.60621 1.02812 0.0
O221 O 0.08292 0.63611 0.9933 0.0
O222 O 0.12669 0.62106 0.9807 0.0
O223 O 0.1269 0.6401 1.0236 0.0
O224 O 0.09313 0.59675 1.06117 0.0
O225 O 0.12373 0.58791 1.04931 0.0
O226 O 0.15486 0.59339 0.9901 0.0
O227 O 0.12652 0.55966 0.96542 0.0
O228 O 0.07904 0.57058 0.99533 0.0
O229 O 0.09461 0.55397 1.02446 0.0
O230 O 0.09791 0.57691 0.93805 0.0
O231 O 0.07472 0.59466 0.95288 0.0
H232 H 0.09564 0.64597 1.07007 0.0
H233 H 0.09149 0.66755 0.11976 0.0
H234 H 0.03104 0.67036 1.06846 0.0
H235 H 0.03487 0.64779 1.01908 0.0
H236 H 0.19871 0.58925 0.97394 0.0
H237 H 0.22794 0.60106 0.92594 0.0
H238 H 0.16821 0.5826 0.85324 0.0
H239 H 0.13927 0.57171 0.90138 0.0
Tb240 Tb 0.90307 0.49903 0.52396 0.0
Tb241 Tb 0.87872 0.44796 0.54447 0.0
C242 C 0.92534 0.54268 0.50183 0.0
C243 C 0.93893 0.55872 0.47275 0.0
C244 C 0.93321 0.55085 0.43826 0.0
C245 C 0.94528 0.56746 0.4113 0.0
C246 C 0.96345 0.59208 0.41842 0.0
C247 C 0.96921 0.59965 0.45315 0.0
C248 C 0.95703 0.5831 0.48002 0.0
C249 C 0.85979 0.48399 0.55803 0.0
C250 C 0.88174 0.45808 0.46115 0.0
C251 C 0.84504 0.4082 0.56924 0.0
C252 C 0.82413 0.40233 0.5924 0.0
C253 C 0.80016 0.38449 0.58212 0.0
C254 C 0.77965 0.3804 0.60178 0.0
C255 C 0.7828 0.39404 0.63222 0.0
C256 C 0.80696 0.41177 0.64251 0.0
C257 C 0.82737 0.41604 0.62266 0.0
C258 C 0.92016 0.45926 0.51252 0.0
C259 C 0.91802 0.4893 0.60009 0.0
O260 O 0.93623 0.5327 0.51903 0.0
O261 O 0.90166 0.52756 0.49749 0.0
O262 O 0.86441 0.47243 0.53496 0.0
O263 O 0.88013 0.50447 0.56269 0.0
O264 O 0.89516 0.48189 0.47026 0.0
O265 O 0.87187 0.44128 0.48656 0.0
O266 O 0.84349 0.41712 0.53937 0.0
O267 O 0.86742 0.42019 0.58236 0.0
O268 O 0.91584 0.47351 0.53095 0.0
O269 O 0.90242 0.43691 0.51821 0.0
O270 O 0.89853 0.46645 0.59543 0.0
O271 O 0.92436 0.50495 0.5735 0.0
H272 H 0.91923 0.53204 0.43219 0.0
H273 H 0.94032 0.56094 0.38495 0.0
H274 H 0.98275 0.61851 0.45966 0.0
H275 H 0.96146 0.5895 0.5066 0.0
H276 H 0.79727 0.37405 0.55844 0.0
H277 H 0.76137 0.36674 0.59295 0.0
H278 H 0.81024 0.4222 0.66628 0.0
H279 H 0.84563 0.43021 0.63088 0.0
Tb280 Tb 0.38661 0.91126 0.8604 0.0
Tb281 Tb 0.42109 0.89472 0.87612 0.0
C282 C 0.35804 0.92588 0.83768 0.0
C283 C 0.35067 0.93081 0.80384 0.0
C284 C 0.36463 0.93346 0.7741 0.0
C285 C 0.35654 0.93672 0.74179 0.0
C286 C 0.33427 0.93727 0.73863 0.0
C287 C 0.32046 0.93478 0.76862 0.0
C288 C 0.3286 0.93153 0.80096 0.0
C289 C 0.36594 0.8692 0.89737 0.0
C290 C 0.40836 0.89286 0.7954 0.0
C291 C 0.43799 0.86823 0.89858 0.0
C292 C 0.42822 0.84741 0.92266 0.0
C293 C 0.43099 0.827 0.91476 0.0
C294 C 0.41784 0.80501 0.93325 0.0
C295 C 0.4017 0.80313 0.95994 0.0
C296 C 0.39959 0.82395 0.96841 0.0
C297 C 0.41258 0.84583 0.94977 0.0
C298 C 0.44217 0.93762 0.84336 0.0
C299 C 0.41484 0.92963 0.93398 0.0
O300 O 0.3808 0.9407 0.84762 0.0
O301 O 0.35125 0.90281 0.84352 0.0
O302 O 0.38096 0.87457 0.87213 0.0
O303 O 0.3637 0.88837 0.90286 0.0
O304 O 0.39475 0.90292 0.80577 0.0
O305 O 0.41957 0.88669 0.81955 0.0
O306 O 0.42468 0.86347 0.87051 0.0
O307 O 0.44448 0.8901 0.9112 0.0
O308 O 0.42524 0.92985 0.86549 0.0
O309 O 0.45053 0.92229 0.8431 0.0
O310 O 0.42168 0.91274 0.92757 0.0
O311 O 0.40204 0.93364 0.90931 0.0
H312 H 0.38167 0.93287 0.77579 0.0
H313 H 0.36795 0.93917 0.71935 0.0
H314 H 0.30321 0.93502 0.76704 0.0
H315 H 0.31752 0.92929 0.82372 0.0
H316 H 0.44258 0.82778 0.89334 0.0
H317 H 0.41986 0.78934 0.92607 0.0
H318 H 0.38782 0.82336 0.98942 0.0
H319 H 0.40976 0.8612 0.95579 0.0
Tb320 Tb 0.47945 0.39084 0.18978 0.0
Tb321 Tb 0.53032 0.4254 0.20691 0.0
C322 C 0.43748 0.36357 0.16303 0.0
C323 C 0.42976 0.3567 0.12684 0.0
C324 C 0.44301 0.37306 0.09997 0.0
C325 C 0.43858 0.3652 1.06564 0.0
C326 C 0.42079 0.3408 1.05752 0.0
C327 C 0.40665 0.32469 1.08422 0.0
C328 C 0.41126 0.33257 0.11876 0.0
C329 C 0.50199 0.36947 0.22304 0.0
C330 C 0.52017 0.41452 0.12547 0.0
C331 C 0.57329 0.44205 0.23101 0.0
C332 C 0.58341 0.43329 0.25826 0.0
C333 C 0.60765 0.43749 0.25534 0.0
C334 C 0.61583 0.42493 0.27686 0.0
C335 C 0.59967 0.40779 0.30115 0.0
C336 C 0.57575 0.40449 0.30491 0.0
C337 C 0.56767 0.41708 0.28361 0.0
C338 C 0.50796 0.44677 0.17608 0.0
C339 C 0.4879 0.41625 0.26507 0.0
O340 O 0.44571 0.3866 0.17151 0.0
O341 O 0.45167 0.35544 0.17505 0.0
O342 O 0.51105 0.38571 0.19917 0.0
O343 O 0.48011 0.36603 0.22918 0.0
O344 O 0.49668 0.40001 0.13569 0.0
O345 O 0.53735 0.42589 0.1499 0.0
O346 O 0.56452 0.42695 0.2047 0.0
O347 O 0.55841 0.45012 0.24058 0.0
O348 O 0.49897 0.42926 0.19745 0.0
O349 O 0.53168 0.45521 0.17534 0.0
O350 O 0.51181 0.42355 0.25876 0.0
O351 O 0.47146 0.40419 0.23976 0.0
H352 H 0.45737 0.3917 0.10546 0.0
H353 H 0.44919 0.37819 1.04539 0.0
H354 H 0.39266 0.30584 1.07845 0.0
H355 H 0.40099 0.31962 0.13921 0.0
H356 H 0.61987 0.44967 0.23546 0.0
H357 H 0.6344 0.42794 0.27369 0.0
H358 H 0.56307 0.39179 0.32396 0.0
H359 H 0.54875 0.41327 0.28586 0.0
Tb360 Tb 0.07853 0.47845 0.51963 0.0
Tb361 Tb 0.10339 0.52886 0.54064 0.0
C362 C 0.05641 0.4361 0.4924 0.0
C363 C 0.05967 0.42431 0.46151 0.0
C364 C 0.06974 0.43772 0.43097 0.0
C365 C 0.07112 0.42586 0.40115 0.0
C366 C 0.0625 0.40031 0.40134 0.0
C367 C 0.05382 0.38728 0.43268 0.0
C368 C 0.05232 0.39918 0.46246 0.0
C369 C 0.12453 0.49488 0.54522 0.0
C370 C 0.10248 0.51975 0.45769 0.0
C371 C 0.13552 0.56666 0.57175 0.0
C372 C 0.16267 0.58255 0.57207 0.0
C373 C 0.17306 0.60824 0.57024 0.0
C374 C 0.19807 0.62379 0.5782 0.0
C375 C 0.21296 0.61383 0.58869 0.0
C376 C 0.20299 0.58811 0.58723 0.0
C377 C 0.17816 0.57262 0.57875 0.0
C378 C 0.061 0.51739 0.51293 0.0
C379 C 0.06284 0.48689 0.59567 0.0
O380 O 0.05033 0.45305 0.48707 0.0
O381 O 0.07342 0.44264 0.51618 0.0
O382 O 0.11783 0.50576 0.52367 0.0
O383 O 0.10493 0.47476 0.55404 0.0
O384 O 0.08784 0.49615 0.46656 0.0
O385 O 0.11351 0.53613 0.4835 0.0
O386 O 0.12355 0.56765 0.54446 0.0
O387 O 0.12685 0.54413 0.58325 0.0
O388 O 0.0656 0.50325 0.53129 0.0
O389 O 0.07885 0.53986 0.51732 0.0
O390 O 0.08135 0.51022 0.5904 0.0
O391 O 0.05693 0.47124 0.56909 0.0
H392 H 0.07585 0.45718 0.42982 0.0
H393 H 0.07769 0.43653 0.37753 0.0
H394 H 0.0475 0.36771 0.43397 0.0
H395 H 0.04489 0.38863 0.48604 0.0
H396 H 0.1615 0.6163 0.56486 0.0
H397 H 0.20526 0.64354 0.57877 0.0
H398 H 0.21367 0.57975 0.59577 0.0
H399 H 0.17078 0.55285 0.58001 0.0
Tb400 Tb 0.59702 0.08596 0.8656 0.0
Tb401 Tb 0.55921 0.09695 0.8801 0.0
C402 C 0.62903 0.07603 0.84325 0.0
C403 C 0.63798 0.07248 0.80989 0.0
C404 C 0.62934 0.07708 0.77876 0.0
C405 C 0.64041 0.07707 0.74747 0.0
C406 C 0.6601 0.07216 0.74678 0.0
C407 C 0.66808 0.06652 0.77778 0.0
C408 C 0.65719 0.06691 0.80925 0.0
C409 C 0.61344 0.12715 0.90521 0.0
C410 C 0.57273 0.10125 0.79895 0.0
C411 C 0.5373 0.12099 0.89243 0.0
C412 C 0.54438 0.14305 0.91343 0.0
C413 C 0.52849 0.15278 0.91686 0.0
C414 C 0.53587 0.17426 0.9364 0.0
C415 C 0.55932 0.18631 0.95234 0.0
C416 C 0.57513 0.1764 0.94851 0.0
C417 C 0.5677 0.15498 0.9293 0.0
C418 C 0.5409 0.05126 0.85439 0.0
C419 C 0.56783 0.06469 0.9373 0.0
O420 O 0.6068 0.05916 0.85282 0.0
O421 O 0.63306 0.09838 0.84864 0.0
O422 O 0.59904 0.12069 0.87922 0.0
O423 O 0.61741 0.10902 0.91047 0.0
O424 O 0.59066 0.09684 0.81064 0.0
O425 O 0.55696 0.101 0.8225 0.0
O426 O 0.55139 0.12469 0.86565 0.0
O427 O 0.53318 0.10126 0.90945 0.0
O428 O 0.56067 0.07044 0.84764 0.0
O429 O 0.53036 0.05785 0.87778 0.0
O430 O 0.56262 0.08284 0.9326 0.0
O431 O 0.57912 0.06026 0.91109 0.0
H432 H 0.61446 0.08122 0.7786 0.0
H433 H 0.63358 0.08091 0.72374 0.0
H434 H 0.68308 0.06246 0.77771 0.0
H435 H 0.66414 0.06345 0.83315 0.0
H436 H 0.51045 0.14378 0.90454 0.0
H437 H 0.52328 0.18141 0.93908 0.0
H438 H 0.59304 0.18481 0.96118 0.0
H439 H 0.58011 0.14762 0.92687 0.0
Tb440 Tb 0.5106 0.60147 0.19058 0.0
Tb441 Tb 0.46076 0.56894 0.20565 0.0
C442 C 0.55295 0.6309 0.16761 0.0
C443 C 0.56634 0.63787 0.13472 0.0
C444 C 0.55381 0.63467 0.10318 0.0
C445 C 0.56709 0.64356 1.0725 0.0
C446 C 0.59309 0.65576 1.07291 0.0
C447 C 0.60555 0.65843 0.10443 0.0
C448 C 0.59223 0.64959 0.13516 0.0
C449 C 0.48969 0.62293 0.22803 0.0
C450 C 0.47096 0.58154 0.12436 0.0
C451 C 0.41612 0.55186 0.22232 0.0
C452 C 0.39866 0.56115 0.22171 0.0
C453 C 0.40617 0.5851 0.20997 0.0
C454 C 0.39324 0.59703 0.22023 0.0
C455 C 0.37305 0.58535 0.24317 0.0
C456 C 0.3636 0.56004 0.25023 0.0
C457 C 0.37644 0.54815 0.2398 0.0
C458 C 0.4827 0.5445 0.18178 0.0
C459 C 0.50156 0.57195 0.26167 0.0
O460 O 0.54684 0.60908 0.18004 0.0
O461 O 0.53515 0.63613 0.17044 0.0
O462 O 0.4805 0.60877 0.20208 0.0
O463 O 0.50998 0.62311 0.23537 0.0
O464 O 0.4947 0.59316 0.1352 0.0
O465 O 0.45363 0.57209 0.14894 0.0
O466 O 0.42301 0.54732 0.19258 0.0
O467 O 0.43479 0.5639 0.24346 0.0
O468 O 0.48634 0.5654 0.17366 0.0
O469 O 0.466 0.53665 0.2059 0.0
O470 O 0.47841 0.56755 0.2568 0.0
O471 O 0.51744 0.58288 0.23578 0.0
H472 H 0.53384 0.62576 0.1023 0.0
H473 H 0.55703 0.6408 1.04841 0.0
H474 H 0.62557 0.66777 0.10541 0.0
H475 H 0.60215 0.65234 0.15938 0.0
H476 H 0.42319 0.59529 0.19551 0.0
H477 H 0.40052 0.61612 0.21283 0.0
H478 H 0.34801 0.55 0.26731 0.0
H479 H 0.37032 0.52958 0.24893 0.0
H480 H 0.48058 0.14944 0.26644 0.0
H481 H 0.48278 0.18751 0.24482 0.0
H482 H 0.53802 0.2294 0.32233 0.0
H483 H 0.53467 0.19116 0.34485 0.0
H484 H 0.51059 0.24692 0.32283 0.0
H485 H 0.54476 0.22785 0.22565 0.0
H486 H 0.54852 0.20512 0.17587 0.0
H487 H 0.48563 0.20368 0.12751 0.0
H488 H 0.48146 0.22615 0.17725 0.0
H489 H 0.53942 0.36685 0.25896 0.0
H490 H 0.54255 0.32984 0.27212 0.0
H491 H 0.47731 0.28566 0.21061 0.0
H492 H 0.47405 0.32246 0.19799 0.0
H493 H 0.51075 0.27015 0.20002 0.0
H494 H 0.47543 0.28715 0.29871 0.0
H495 H 0.47189 0.30954 0.34898 0.0
H496 H 0.53715 0.314 0.39405 0.0
H497 H 0.54162 0.29253 0.34351 0.0
C498 C 0.49363 0.16686 0.27831 0.0
C499 C 0.50781 0.16709 0.30708 0.0
C500 C 0.49494 0.18889 0.26587 0.0
C501 C 0.5108 0.21211 0.28134 0.0
C502 C 0.52545 0.2122 0.30953 0.0
C503 C 0.52377 0.19017 0.32232 0.0
C504 C 0.5112 0.23593 0.27009 0.0
C505 C 0.51118 0.25201 0.29583 0.0
C506 C 0.511 0.24292 0.23484 0.0
C507 C 0.51277 0.22853 0.20541 0.0
C508 C 0.53167 0.22248 0.20455 0.0
C509 C 0.53388 0.20968 0.1763 0.0
C510 C 0.51731 0.20294 0.14853 0.0
C511 C 0.49846 0.20891 0.14904 0.0
C512 C 0.49619 0.22168 0.17729 0.0
C513 C 0.52599 0.34936 0.24779 0.0
C514 C 0.50663 0.34794 0.22708 0.0
C515 C 0.52764 0.32799 0.25558 0.0
C516 C 0.51005 0.30443 0.24275 0.0
C517 C 0.49125 0.30327 0.221 0.0
C518 C 0.48941 0.3245 0.21369 0.0
C519 C 0.51053 0.28096 0.25283 0.0
C520 C 0.51047 0.26497 0.22693 0.0
C521 C 0.51074 0.27401 0.28785 0.0
C522 C 0.50903 0.28848 0.31709 0.0
C523 C 0.48933 0.29337 0.31899 0.0
C524 C 0.48713 0.3059 0.34758 0.0
C525 C 0.50433 0.3133 0.37465 0.0
C526 C 0.52393 0.30848 0.37299 0.0
C527 C 0.52636 0.2962 0.34432 0.0
H528 H 0.50227 0.32252 0.39706 0.0
H529 H 0.51909 0.19312 0.1266 0.0
H530 H 0.31834 0.50588 0.68944 0.0
H531 H 0.28307 0.50809 0.66611 0.0
H532 H 0.30782 0.50722 0.56225 0.0
H533 H 0.34389 0.50539 0.58595 0.0
H534 H 0.28621 0.53695 0.56528 0.0
H535 H 0.26048 0.45411 0.59992 0.0
H536 H 0.2565 0.42139 0.63966 0.0
H537 H 0.21761 0.44151 0.71264 0.0
H538 H 0.22167 0.4746 0.67352 0.0
H539 H 0.16471 0.50967 0.50081 0.0
H540 H 0.20459 0.5121 0.5131 0.0
H541 H 0.18379 0.4951 0.62049 0.0
H542 H 0.1433 0.49044 0.6072 0.0
H543 H 0.20477 0.47256 0.6092 0.0
H544 H 0.23246 0.55741 0.57471 0.0
H545 H 0.23697 0.59006 0.53406 0.0
H546 H 0.27295 0.56684 0.46073 0.0
H547 H 0.26798 0.53367 0.50036 0.0
C548 C 0.31667 0.50658 0.66154 0.0
C549 C 0.33427 0.50541 0.63982 0.0
C550 C 0.29614 0.50763 0.6481 0.0
C551 C 0.29189 0.50719 0.61214 0.0
C552 C 0.31018 0.5074 0.59009 0.0
C553 C 0.33102 0.50645 0.6037 0.0
C554 C 0.26787 0.50529 0.59845 0.0
C555 C 0.26838 0.52269 0.57465 0.0
C556 C 0.24422 0.48696 0.61049 0.0
C557 C 0.24153 0.46693 0.63389 0.0
C558 C 0.2512 0.45164 0.62452 0.0
C559 C 0.24892 0.43302 0.64693 0.0
C560 C 0.23685 0.4294 0.67868 0.0
C561 C 0.22697 0.44435 0.68804 0.0
C562 C 0.22923 0.46302 0.66575 0.0
C563 C 0.16878 0.50672 0.52712 0.0
C564 C 0.15058 0.49998 0.553 0.0
C565 C 0.19193 0.50828 0.53438 0.0
C566 C 0.19823 0.50418 0.56817 0.0
C567 C 0.18007 0.49819 0.59406 0.0
C568 C 0.15672 0.49574 0.58653 0.0
C569 C 0.22278 0.50492 0.57689 0.0
C570 C 0.22243 0.48705 0.59976 0.0
C571 C 0.24651 0.52291 0.56399 0.0
C572 C 0.24954 0.5429 0.54033 0.0
C573 C 0.24114 0.5592 0.54981 0.0
C574 C 0.24378 0.57776 0.52698 0.0
C575 C 0.25523 0.58051 0.49492 0.0
C576 C 0.26404 0.56467 0.48556 0.0
C577 C 0.26125 0.54594 0.50814 0.0
H578 H 0.2573 0.59492 0.47735 0.0
H579 H 0.23511 0.41498 0.69599 0.0
H580 H 0.82896 0.32487 0.91569 0.0
H581 H 0.78807 0.28953 0.9059 0.0
H582 H 0.76223 0.30584 1.00036 0.0
H583 H 0.80409 0.34121 1.01101 0.0
H584 H 0.74339 0.25795 0.99738 0.0
H585 H 0.74551 0.31471 0.91382 0.0
H586 H 0.76369 0.34501 0.86653 0.0
H587 H 0.76105 0.28907 0.79917 0.0
H588 H 0.74364 0.25854 0.84637 0.0
H589 H 0.61994 0.16001 0.958 0.0
H590 H 0.65592 0.20109 0.96915 0.0
H591 H 0.6917 0.19369 0.87826 0.0
H592 H 0.65529 0.1533 0.86622 0.0
H593 H 0.70301 0.23948 0.88179 0.0
H594 H 0.70393 0.18399 0.96842 0.0
H595 H 0.68767 0.15484 1.01737 0.0
H596 H 0.68406 0.20985 1.07985 0.0
H597 H 0.69975 0.23915 1.031 0.0
C598 C 0.81456 0.32134 0.93428 0.0
C599 C 0.82016 0.33637 0.96407 0.0
C600 C 0.79086 0.3009 0.92851 0.0
C601 C 0.7713 0.29464 0.95191 0.0
C602 C 0.77663 0.30992 0.98155 0.0
C603 C 0.80064 0.33048 0.98751 0.0
C604 C 0.74592 0.27182 0.94561 0.0
C605 C 0.73442 0.25427 0.97221 0.0
C606 C 0.73382 0.26623 0.91271 0.0
C607 C 0.74341 0.28433 0.8838 0.0
C608 C 0.74888 0.30885 0.88898 0.0
C609 C 0.75907 0.32608 0.86219 0.0
C610 C 0.76346 0.31896 0.82987 0.0
C611 C 0.75762 0.29455 0.82422 0.0
C612 C 0.74762 0.27727 0.85102 0.0
C613 C 0.63529 0.16732 0.94006 0.0
C614 C 0.63439 0.15327 0.9109 0.0
C615 C 0.65619 0.1908 0.94679 0.0
C616 C 0.67731 0.20081 0.92523 0.0
C617 C 0.67606 0.18687 0.89567 0.0
C618 C 0.65507 0.16359 0.8887 0.0
C619 C 0.70071 0.22537 0.93337 0.0
C620 C 0.71186 0.24326 0.90705 0.0
C621 C 0.71234 0.23137 0.96663 0.0
C622 C 0.70274 0.21367 0.99589 0.0
C623 C 0.69945 0.1898 0.99248 0.0
C624 C 0.69034 0.17325 1.02022 0.0
C625 C 0.68478 0.18047 1.05167 0.0
C626 C 0.68839 0.20428 1.05549 0.0
C627 C 0.69731 0.22084 1.02774 0.0
H628 H 0.67773 0.16762 1.07311 0.0
H629 H 0.77143 0.33238 0.80923 0.0
H630 H 0.51151 0.65636 0.28091 0.0
H631 H 0.50805 0.6927 0.29546 0.0
H632 H 0.45593 0.67557 0.21191 0.0
H633 H 0.45949 0.63903 0.19712 0.0
H634 H 0.48988 0.72594 0.21383 0.0
H635 H 0.44066 0.66457 0.29705 0.0
H636 H 0.43124 0.63452 0.34405 0.0
H637 H 0.48223 0.69237 0.4113 0.0
H638 H 0.4925 0.72272 0.36442 0.0
H639 H 0.46781 0.82533 0.26766 0.0
H640 H 0.46319 0.78556 0.24822 0.0
H641 H 0.49732 0.78076 0.34304 0.0
H642 H 0.49967 0.81842 0.36346 0.0
H643 H 0.46788 0.73872 0.33224 0.0
H644 H 0.52392 0.79859 0.25142 0.0
H645 H 0.53846 0.83011 0.20543 0.0
H646 H 0.48262 0.77829 0.13627 0.0
H647 H 0.46728 0.74665 0.18216 0.0
C648 C 0.49911 0.66011 0.26566 0.0
C649 C 0.48566 0.64429 0.23789 0.0
C650 C 0.49715 0.68111 0.27407 0.0
C651 C 0.48162 0.68735 0.2551 0.0
C652 C 0.46813 0.67159 0.22721 0.0
C653 C 0.46999 0.65039 0.21889 0.0
C654 C 0.47945 0.71004 0.26462 0.0
C655 C 0.48477 0.72856 0.23969 0.0
C656 C 0.47355 0.7143 0.29865 0.0
C657 C 0.46747 0.69596 0.32694 0.0
C658 C 0.45008 0.6709 0.3217 0.0
C659 C 0.44458 0.65378 0.34836 0.0
C660 C 0.45616 0.66152 0.38059 0.0
C661 C 0.47329 0.68639 0.38626 0.0
C662 C 0.47896 0.70356 0.35962 0.0
C663 C 0.47373 0.81548 0.28471 0.0
C664 C 0.48387 0.82546 0.31758 0.0
C665 C 0.47159 0.79275 0.27318 0.0
C666 C 0.48027 0.77956 0.29351 0.0
C667 C 0.49017 0.7897 0.32628 0.0
C668 C 0.49169 0.81177 0.33803 0.0
C669 C 0.47932 0.75546 0.28185 0.0
C670 C 0.4732 0.73642 0.30638 0.0
C671 C 0.48537 0.75115 0.24781 0.0
C672 C 0.49415 0.77037 0.2205 0.0
C673 C 0.5145 0.79401 0.22658 0.0
C674 C 0.52291 0.81189 0.2005 0.0
C675 C 0.5114 0.80624 0.168 0.0
C676 C 0.49151 0.78266 0.16147 0.0
C677 C 0.48288 0.76478 0.18756 0.0
H678 H 0.51796 0.82011 0.14783 0.0
H679 H 0.45189 0.64823 0.40115 0.0
H680 H 0.65369 0.46296 0.69127 0.0
H681 H 0.68846 0.458 0.67277 0.0
H682 H 0.68946 0.49132 0.57447 0.0
H683 H 0.65345 0.49498 0.5926 0.0
H684 H 0.70488 0.46071 0.56159 0.0
H685 H 0.73126 0.52308 0.65079 0.0
H686 H 0.73017 0.53953 0.70853 0.0
H687 H 0.7426 0.48462 0.7568 0.0
H688 H 0.74345 0.46767 0.69937 0.0
H689 H 0.84959 0.51669 0.59138 0.0
H690 H 0.8099 0.51339 0.60539 0.0
H691 H 0.77193 0.43992 0.56248 0.0
H692 H 0.81207 0.44366 0.5472 0.0
H693 H 0.77448 0.48987 0.64516 0.0
H694 H 0.71176 0.42255 0.54012 0.0
H695 H 0.7146 0.40941 0.48077 0.0
H696 H 0.77799 0.48034 0.46094 0.0
H697 H 0.77546 0.49397 0.52009 0.0
C698 C 0.66081 0.46863 0.66528 0.0
C699 C 0.65019 0.47904 0.64344 0.0
C700 C 0.68126 0.46622 0.65479 0.0
C701 C 0.69285 0.47504 0.62237 0.0
C702 C 0.68148 0.48441 0.59974 0.0
C703 C 0.66056 0.48637 0.61005 0.0
C704 C 0.71705 0.47532 0.61296 0.0
C705 C 0.71997 0.46708 0.58009 0.0
C706 C 0.7375 0.48371 0.63632 0.0
C707 C 0.73721 0.494 0.67082 0.0
C708 C 0.73365 0.51447 0.67374 0.0
C709 C 0.73307 0.52387 0.70641 0.0
C710 C 0.73624 0.51308 0.73632 0.0
C711 C 0.74009 0.49292 0.73362 0.0
C712 C 0.74065 0.48343 0.70102 0.0
C713 C 0.83287 0.49976 0.5847 0.0
C714 C 0.83449 0.48059 0.56767 0.0
C715 C 0.80985 0.49783 0.59295 0.0
C716 C 0.78713 0.47655 0.5848 0.0
C717 C 0.78869 0.45698 0.56851 0.0
C718 C 0.81188 0.45903 0.55989 0.0
C719 C 0.76239 0.47525 0.5938 0.0
C720 C 0.75936 0.48335 0.62666 0.0
C721 C 0.74206 0.46704 0.57028 0.0
C722 C 0.74355 0.45917 0.5346 0.0
C723 C 0.72625 0.43536 0.52304 0.0
C724 C 0.72781 0.42782 0.48946 0.0
C725 C 0.74648 0.444 0.46714 0.0
C726 C 0.76359 0.4678 0.4783 0.0
C727 C 0.76213 0.47543 0.51186 0.0
H728 H 0.74766 0.43811 0.44116 0.0
H729 H 0.73577 0.52038 0.76159 0.0
H730 H 0.31725 0.85574 0.90294 0.0
H731 H 0.28201 0.81656 0.91973 0.0
H732 H 0.32966 0.7852 0.93059 0.0
H733 H 0.36514 0.82457 0.91109 0.0
H734 H 0.28948 0.75001 0.91136 0.0
H735 H 0.30278 0.80444 1.00357 0.0
H736 H 0.30986 0.84225 1.03368 0.0
H737 H 0.23922 0.83022 0.99851 0.0
H738 H 0.23184 0.7925 0.96779 0.0
H739 H 0.18742 0.64367 0.99489 0.0
H740 H 0.2269 0.6803 0.98022 0.0
H741 H 0.18878 0.72118 0.96275 0.0
H742 H 0.14977 0.68502 0.98004 0.0
H743 H 0.22759 0.75105 0.99061 0.0
H744 H 0.21914 0.69346 0.89522 0.0
H745 H 0.21747 0.65592 0.87177 0.0
H746 H 0.28493 0.67364 0.92523 0.0
H747 H 0.28686 0.71113 0.94923 0.0
C748 C 0.32042 0.84057 0.90874 0.0
C749 C 0.34444 0.84377 0.90582 0.0
C750 C 0.30002 0.81793 0.91895 0.0
C751 C 0.30265 0.79749 0.92814 0.0
C752 C 0.32661 0.80037 0.92429 0.0
C753 C 0.34711 0.82306 0.91309 0.0
C754 C 0.28037 0.77348 0.94115 0.0
C755 C 0.27616 0.75042 0.92898 0.0
C756 C 0.26257 0.7731 0.96467 0.0
C757 C 0.26686 0.79575 0.98312 0.0
C758 C 0.28882 0.80994 1.00207 0.0
C759 C 0.29288 0.83135 1.01927 0.0
C760 C 0.27503 0.83866 1.01794 0.0
C761 C 0.25304 0.82455 0.99948 0.0
C762 C 0.2489 0.80313 0.9822 0.0
C763 C 0.18743 0.66042 0.98766 0.0
C764 C 0.16511 0.66108 0.98844 0.0
C765 C 0.21023 0.6816 0.97878 0.0
C766 C 0.21156 0.70413 0.96911 0.0
C767 C 0.18902 0.70452 0.96984 0.0
C768 C 0.16641 0.6836 0.97962 0.0
C769 C 0.23596 0.72752 0.95951 0.0
C770 C 0.24072 0.7506 0.97266 0.0
C771 C 0.25474 0.72777 0.93806 0.0
C772 C 0.253 0.70491 0.92421 0.0
C773 C 0.23349 0.68921 0.90213 0.0
C774 C 0.23255 0.66797 0.8887 0.0
C775 C 0.25112 0.66242 0.89701 0.0
C776 C 0.27057 0.67797 0.91887 0.0
C777 C 0.27161 0.6992 0.93234 0.0
H778 H 0.25065 0.64621 0.88644 0.0
H779 H 0.27821 0.85524 1.03128 0.0
H780 H 0.6044 0.22826 0.95656 0.0
H781 H 0.62056 0.25467 1.00762 0.0
H782 H 0.54755 0.21943 1.05215 0.0
H783 H 0.53133 0.19236 1.00167 0.0
H784 H 0.58765 0.27412 1.07667 0.0
H785 H 0.56503 0.18698 1.07202 0.0
H786 H 0.56215 0.15083 1.04185 0.0
H787 H 0.64073 0.1897 1.02676 0.0
H788 H 0.64403 0.22649 1.05594 0.0
H789 H 0.58133 0.23313 0.24611 0.0
H790 H 0.58485 0.25319 0.19107 0.0
H791 H 0.65253 0.2523 0.17019 0.0
H792 H 0.64683 0.22906 0.22358 0.0
H793 H 0.62221 0.22482 0.12812 0.0
H794 H 0.64021 0.30726 0.15949 0.0
H795 H 0.63521 0.33732 0.19509 0.0
H796 H 0.55823 0.30215 0.16751 0.0
H797 H 0.56272 0.27186 0.13187 0.0
C798 C 0.5916 0.22678 0.97662 0.0
C799 C 0.5668 0.20769 0.97576 0.0
C800 C 0.6008 0.24217 1.00551 0.0
C801 C 0.58527 0.23873 1.03369 0.0
C802 C 0.55976 0.22242 1.03046 0.0
C803 C 0.55054 0.20683 1.00165 0.0
C804 C 0.59626 0.24516 1.06867 0.0
C805 C 0.59555 0.26371 1.08816 0.0
C806 C 0.60634 0.23139 1.08334 0.0
C807 C 0.6047 0.20956 1.06557 0.0
C808 C 0.58166 0.18793 1.06183 0.0
C809 C 0.57997 0.16734 1.04496 0.0
C810 C 0.60128 0.16804 1.03226 0.0
C811 C 0.6243 0.18934 1.03639 0.0
C812 C 0.62608 0.21008 1.05301 0.0
C813 C 0.59726 0.23785 0.22998 0.0
C814 C 0.61284 0.22826 0.23767 0.0
C815 C 0.59965 0.24987 0.19864 0.0
C816 C 0.61852 0.2536 0.17541 0.0
C817 C 0.6373 0.24894 0.18708 0.0
C818 C 0.63419 0.23578 0.21777 0.0
C819 C 0.61438 0.25448 0.13744 0.0
C820 C 0.6158 0.2366 0.11693 0.0
C821 C 0.60434 0.26849 0.12262 0.0
C822 C 0.60189 0.28739 0.14282 0.0
C823 C 0.62225 0.306 0.16092 0.0
C824 C 0.61949 0.32307 0.18113 0.0
C825 C 0.59644 0.32168 0.18349 0.0
C826 C 0.57611 0.3033 0.1655 0.0
C827 C 0.57879 0.28626 0.14513 0.0
H828 H 0.59432 0.33483 0.19929 0.0
H829 H 0.59996 0.15205 1.01931 0.0
H830 H 0.40266 0.63346 0.26505 0.0
H831 H 0.39915 0.64868 0.32104 0.0
H832 H 0.32602 0.58659 0.33336 0.0
H833 H 0.32825 0.57182 0.27567 0.0
H834 H 0.37789 0.65793 0.37321 0.0
H835 H 0.32489 0.55506 0.39576 0.0
H836 H 0.31551 0.51554 0.36835 0.0
H837 H 0.38619 0.55129 0.31779 0.0
H838 H 0.39564 0.59101 0.34427 0.0
H839 H 0.37605 0.61294 0.55721 0.0
H840 H 0.36347 0.62241 0.50152 0.0
H841 H 0.42985 0.63084 0.45442 0.0
H842 H 0.4426 0.62157 0.50966 0.0
H843 H 0.37499 0.58734 0.4365 0.0
H844 H 0.43373 0.67472 0.44286 0.0
H845 H 0.45251 0.71645 0.46813 0.0
H846 H 0.38308 0.71507 0.45918 0.0
H847 H 0.36383 0.67315 0.43412 0.0
C848 C 0.38516 0.62348 0.27838 0.0
C849 C 0.36638 0.60022 0.26666 0.0
C850 C 0.38337 0.63227 0.31087 0.0
C851 C 0.36326 0.61772 0.33234 0.0
C852 C 0.3423 0.59752 0.31773 0.0
C853 C 0.34377 0.58894 0.2848 0.0
C854 C 0.36752 0.61948 0.3704 0.0
C855 C 0.37665 0.64234 0.38736 0.0
C856 C 0.36688 0.59947 0.38867 0.0
C857 C 0.36081 0.57591 0.37164 0.0
C858 C 0.33829 0.55444 0.37858 0.0
C859 C 0.33295 0.53205 0.36315 0.0
C860 C 0.35019 0.53093 0.3412 0.0
C861 C 0.37279 0.5522 0.3346 0.0
C862 C 0.37807 0.57467 0.34961 0.0
C863 C 0.38833 0.61763 0.53519 0.0
C864 C 0.41021 0.61631 0.53766 0.0
C865 C 0.38123 0.62326 0.50356 0.0
C866 C 0.39591 0.62763 0.47408 0.0
C867 C 0.41858 0.62808 0.47711 0.0
C868 C 0.42581 0.6227 0.5087 0.0
C869 C 0.38522 0.62564 0.43925 0.0
C870 C 0.37511 0.60265 0.42295 0.0
C871 C 0.38589 0.64575 0.42152 0.0
C872 C 0.39725 0.67065 0.43722 0.0
C873 C 0.42238 0.68316 0.44675 0.0
C874 C 0.43314 0.7069 0.46087 0.0
C875 C 0.41897 0.71836 0.46543 0.0
C876 C 0.39402 0.70613 0.45575 0.0
C877 C 0.38318 0.6824 0.44156 0.0
H878 H 0.42733 0.73675 0.47634 0.0
H879 H 0.34607 0.51358 0.32937 0.0
H880 H 0.79007 0.44225 0.87842 0.0
H881 H 0.75749 0.42667 0.83488 0.0
H882 H 0.72414 0.35433 0.88147 0.0
H883 H 0.75719 0.36993 0.92493 0.0
H884 H 0.73822 0.35223 0.82082 0.0
H885 H 0.68726 0.38115 0.86035 0.0
H886 H 0.67379 0.40823 0.88738 0.0
H887 H 0.70933 0.46174 0.80671 0.0
H888 H 0.72345 0.43528 0.77947 0.0
H889 H 0.74148 0.34921 0.64612 0.0
H890 H 0.71347 0.34003 0.69491 0.0
H891 H 0.74898 0.41768 0.7196 0.0
H892 H 0.77518 0.42712 0.66904 0.0
H893 H 0.70619 0.39624 0.74937 0.0
H894 H 0.77558 0.37657 0.7424 0.0
H895 H 0.79371 0.35253 0.71804 0.0
H896 H 0.72681 0.28504 0.7407 0.0
H897 H 0.70832 0.30877 0.76501 0.0
C898 C 0.77523 0.4233 0.88028 0.0
C899 C 0.77646 0.40715 0.90446 0.0
C900 C 0.75635 0.41438 0.85551 0.0
C901 C 0.73827 0.38921 0.85468 0.0
C902 C 0.73785 0.37378 0.8815 0.0
C903 C 0.75689 0.38265 0.9061 0.0
C904 C 0.72523 0.37843 0.82144 0.0
C905 C 0.73022 0.36115 0.80564 0.0
C906 C 0.71452 0.38974 0.80145 0.0
C907 C 0.70635 0.40607 0.81774 0.0
C908 C 0.69235 0.39875 0.84843 0.0
C909 C 0.68459 0.41401 0.86381 0.0
C910 C 0.69067 0.43667 0.84875 0.0
C911 C 0.70457 0.44414 0.81829 0.0
C912 C 0.7124 0.42897 0.80281 0.0
C913 C 0.74254 0.36445 0.66088 0.0
C914 C 0.76146 0.38886 0.65479 0.0
C915 C 0.72654 0.35913 0.68899 0.0
C916 C 0.73001 0.37799 0.71207 0.0
C917 C 0.74626 0.40262 0.70277 0.0
C918 C 0.76167 0.40801 0.67416 0.0
C919 C 0.72221 0.37264 0.7489 0.0
C920 C 0.71288 0.38643 0.76525 0.0
C921 C 0.72951 0.3586 0.76965 0.0
C922 C 0.74049 0.34436 0.75496 0.0
C923 C 0.76477 0.3566 0.74202 0.0
C924 C 0.77508 0.34305 0.72824 0.0
C925 C 0.76137 0.31727 0.72767 0.0
C926 C 0.73734 0.305 0.74096 0.0
C927 C 0.72693 0.31848 0.75473 0.0
H928 H 0.7694 0.30681 0.71707 0.0
H929 H 0.68463 0.44845 0.86069 0.0
H930 H 0.41819 0.77216 0.98225 0.0
H931 H 0.40018 0.74171 1.02837 0.0
H932 H 0.33703 0.75268 1.0313 0.0
H933 H 0.35418 0.78192 0.98386 0.0
H934 H 0.40012 0.76451 1.08419 0.0
H935 H 0.29202 0.71371 1.08178 0.0
H936 H 0.25813 0.68779 1.04146 0.0
H937 H 0.30502 0.66572 0.98993 0.0
H938 H 0.33915 0.69125 1.03017 0.0
H939 H 0.33713 0.77977 0.21858 0.0
H940 H 0.32737 0.75628 0.16487 0.0
H941 H 0.36884 0.72196 0.19988 0.0
H942 H 0.37807 0.74481 0.25432 0.0
H943 H 0.31609 0.70737 0.12913 0.0
H944 H 0.41899 0.75283 0.15515 0.0
H945 H 0.45189 0.78651 0.1898 0.0
H946 H 0.41297 0.82698 0.1852 0.0
H947 H 0.37999 0.79373 0.15023 0.0
C948 C 0.39988 0.76717 0.99145 0.0
C949 C 0.38802 0.78013 0.98039 0.0
C950 C 0.38954 0.74963 1.01778 0.0
C951 C 0.36746 0.74517 1.03377 0.0
C952 C 0.35402 0.75562 1.01943 0.0
C953 C 0.36416 0.77284 0.99276 0.0
C954 C 0.36282 0.7369 1.07033 0.0
C955 C 0.38198 0.75104 0.09378 0.0
C956 C 0.33886 0.72026 1.08306 0.0
C957 C 0.3182 0.70442 1.05915 0.0
C958 C 0.29507 0.70315 1.06211 0.0
C959 C 0.27582 0.68857 1.03918 0.0
C960 C 0.2794 0.67505 1.01325 0.0
C961 C 0.30227 0.67618 1.01007 0.0
C962 C 0.3216 0.69075 1.0329 0.0
C963 C 0.34292 0.76613 0.21588 0.0
C964 C 0.35916 0.76481 0.24007 0.0
C965 C 0.33714 0.75253 0.18513 0.0
C966 C 0.34781 0.73781 0.17824 0.0
C967 C 0.36052 0.73332 0.20476 0.0
C968 C 0.36611 0.74672 0.23562 0.0
C969 C 0.35335 0.73517 0.14188 0.0
C970 C 0.33446 0.71948 0.11901 0.0
C971 C 0.37736 0.75101 0.12903 0.0
C972 C 0.39693 0.77068 0.15064 0.0
C973 C 0.41747 0.76889 0.16166 0.0
C974 C 0.43614 0.78792 0.18124 0.0
C975 C 0.43455 0.80884 0.1897 0.0
C976 C 0.41421 0.81078 0.17864 0.0
C977 C 0.39551 0.79185 0.15903 0.0
H978 H 0.44904 0.8235 0.20489 0.0
H979 H 0.26444 0.66373 0.99562 0.0
H980 H 0.57387 0.35867 0.31545 0.0
H981 H 0.5799 0.33895 0.36617 0.0
H982 H 0.64899 0.40491 0.38816 0.0
H983 H 0.64297 0.42501 0.33753 0.0
H984 H 0.63996 0.35409 0.41909 0.0
H985 H 0.61275 0.41391 0.41472 0.0
H986 H 0.58998 0.43339 0.39056 0.0
H987 H 0.52113 0.36709 0.40899 0.0
H988 H 0.54365 0.34696 0.43243 0.0
H989 H 0.62904 0.3944 0.58756 0.0
H990 H 0.63964 0.38018 0.535 0.0
H991 H 0.56471 0.3198 0.52747 0.0
H992 H 0.55374 0.33442 0.57921 0.0
H993 H 0.57653 0.36159 0.48713 0.0
H994 H 0.61056 0.30887 0.51038 0.0
H995 H 0.63881 0.29737 0.53906 0.0
H996 H 0.70137 0.36091 0.49533 0.0
H997 H 0.6735 0.37293 0.46667 0.0
C998 C 0.59081 0.36866 0.33031 0.0
C999 C 0.60748 0.39366 0.32354 0.0
C1000 C 0.59439 0.35723 0.35896 0.0
C1001 C 0.61455 0.37074 0.38119 0.0
C1002 C 0.63332 0.39425 0.37119 0.0
C1003 C 0.62971 0.4058 0.34246 0.0
C1004 C 0.6115 0.36409 0.41818 0.0
C1005 C 0.62613 0.3556 0.43421 0.0
C1006 C 0.59363 0.36649 0.4377 0.0
C1007 C 0.57994 0.37848 0.42365 0.0
C1008 C 0.5928 0.40321 0.41266 0.0
C1009 C 0.57993 0.41446 0.39939 0.0
C1010 C 0.55412 0.40134 0.39775 0.0
C1011 C 0.54114 0.37705 0.40973 0.0
C1012 C 0.55396 0.36568 0.42284 0.0
C1013 C 0.61511 0.37741 0.57559 0.0
C1014 C 0.59028 0.36623 0.58629 0.0
C1015 C 0.62132 0.36903 0.54583 0.0
C1016 C 0.60274 0.3494 0.52681 0.0
C1017 C 0.57925 0.33515 0.54171 0.0
C1018 C 0.57293 0.34367 0.57124 0.0
C1019 C 0.60453 0.35083 0.48864 0.0
C1020 C 0.58983 0.35903 0.47216 0.0
C1021 C 0.62315 0.34932 0.46969 0.0
C1022 C 0.63991 0.34189 0.48652 0.0
C1023 C 0.63034 0.32049 0.50705 0.0
C1024 C 0.64629 0.31385 0.52326 0.0
C1025 C 0.67187 0.32842 0.51906 0.0
C1026 C 0.68155 0.34962 0.49855 0.0
C1027 C 0.66568 0.35633 0.48225 0.0
H1028 H 0.68418 0.32326 0.53167 0.0
H1029 H 0.54417 0.41008 0.38751 0.0
H1030 H 0.24019 0.58572 0.87571 0.0
H1031 H 0.2704 0.60215 0.82827 0.0
H1032 H 0.23138 0.63662 0.78414 0.0
H1033 H 0.20144 0.62046 0.83083 0.0
H1034 H 0.25754 0.59106 0.75874 0.0
H1035 H 0.26766 0.68912 0.75315 0.0
H1036 H 0.27475 0.7218 0.79506 0.0
H1037 H 0.31144 0.69622 0.864 0.0
H1038 H 0.30458 0.66336 0.82256 0.0
H1039 H 0.22095 0.64853 0.63715 0.0
H1040 H 0.24867 0.65909 0.68576 0.0
H1041 H 0.28553 0.62419 0.63644 0.0
H1042 H 0.25681 0.61267 0.5875 0.0
H1043 H 0.29127 0.67642 0.71478 0.0
H1044 H 0.29315 0.59042 0.69257 0.0
H1045 H 0.27621 0.55232 0.65727 0.0
H1046 H 0.20642 0.5503 0.64989 0.0
H1047 H 0.22299 0.58838 0.68507 0.0
C1048 C 0.23827 0.59702 0.85601 0.0
C1049 C 0.21837 0.60172 0.85692 0.0
C1050 C 0.2556 0.60649 0.82916 0.0
C1051 C 0.25351 0.62116 0.80333 0.0
C1052 C 0.23376 0.62593 0.80439 0.0
C1053 C 0.21633 0.61624 0.83074 0.0
C1054 C 0.26927 0.6287 0.77213 0.0
C1055 C 0.26604 0.60992 0.74935 0.0
C1056 C 0.28065 0.65333 0.76023 0.0
C1057 C 0.28579 0.67385 0.78451 0.0
C1058 C 0.27754 0.69064 0.77701 0.0
C1059 C 0.28136 0.7091 0.80083 0.0
C1060 C 0.29353 0.71108 0.83219 0.0
C1061 C 0.30198 0.69465 0.83974 0.0
C1062 C 0.29806 0.67605 0.81614 0.0
C1063 C 0.23564 0.64407 0.63556 0.0
C1064 C 0.236 0.6289 0.60896 0.0
C1065 C 0.2517 0.65021 0.66367 0.0
C1066 C 0.26853 0.64143 0.66563 0.0
C1067 C 0.27206 0.63035 0.63613 0.0
C1068 C 0.25562 0.62379 0.60809 0.0
C1069 C 0.27646 0.63821 0.70075 0.0
C1070 C 0.28457 0.65787 0.72447 0.0
C1071 C 0.26895 0.61421 0.71364 0.0
C1072 C 0.25935 0.59224 0.69102 0.0
C1073 C 0.27426 0.58189 0.68316 0.0
C1074 C 0.26474 0.56034 0.66327 0.0
C1075 C 0.24028 0.54896 0.65146 0.0
C1076 C 0.22535 0.55919 0.65912 0.0
C1077 C 0.23479 0.58073 0.67896 0.0
H1078 H 0.23282 0.53211 0.63664 0.0
H1079 H 0.29637 0.72532 0.85066 0.0
H1080 H 0.43909 0.92565 0.9937 0.0
H1081 H 0.45196 0.95036 1.04715 0.0
H1082 H 0.42217 0.99471 1.00831 0.0
H1083 H 0.40932 0.97007 0.95462 0.0
H1084 H 0.4623 0.02584 1.04318 0.0
H1085 H 0.39474 0.94668 1.08012 0.0
H1086 H 0.37345 0.90135 1.08592 0.0
H1087 H 0.43622 0.90674 0.14021 0.0
H1088 H 0.45801 0.95219 0.13445 0.0
H1089 H 0.44541 0.03866 0.24874 0.0
H1090 H 0.43392 0.01471 0.19449 0.0
H1091 H 0.50636 0.06324 0.15371 0.0
H1092 H 0.518 0.08693 0.20806 0.0
H1093 H 0.44446 0.98572 0.15844 0.0
H1094 H 0.50822 0.06065 1.06351 0.0
H1095 H 0.53 0.10589 1.05725 0.0
H1096 H 0.47407 0.10923 0.11801 0.0
H1097 H 0.45194 0.06392 0.12446 0.0
C1098 C 0.435 0.94053 0.99622 0.0
C1099 C 0.42263 0.94508 0.96857 0.0
C1100 C 0.44245 0.95491 1.02759 0.0
C1101 C 0.43813 0.97494 1.03372 0.0
C1102 C 0.42611 0.97974 1.00581 0.0
C1103 C 0.41849 0.96524 0.9745 0.0
C1104 C 0.44588 0.99051 1.06849 0.0
C1105 C 0.45831 0.01674 1.06817 0.0
C1106 C 0.44125 0.97987 0.1025 0.0
C1107 C 0.428 0.95274 0.10676 0.0
C1108 C 0.404 0.93818 0.09327 0.0
C1109 C 0.39187 0.9125 0.09653 0.0
C1110 C 0.40352 0.9012 0.1134 0.0
C1111 C 0.42727 0.91557 0.12719 0.0
C1112 C 0.43949 0.94127 0.12401 0.0
C1113 C 0.45909 0.0445 0.22836 0.0
C1114 C 0.48288 0.06544 0.23409 0.0
C1115 C 0.45241 0.03041 0.1967 0.0
C1116 C 0.46883 0.03649 0.16813 0.0
C1117 C 0.49263 0.05747 0.17392 0.0
C1118 C 0.49945 0.07133 0.20576 0.0
C1119 C 0.46114 0.0211 0.1332 0.0
C1120 C 0.44861 0.99487 0.13348 0.0
C1121 C 0.46594 0.03179 0.09916 0.0
C1122 C 0.47862 0.05893 0.09478 0.0
C1123 C 0.50058 0.07104 1.07548 0.0
C1124 C 0.51299 0.0967 1.07191 0.0
C1125 C 0.50348 0.11047 1.08732 0.0
C1126 C 0.48147 0.09856 0.10619 0.0
C1127 C 0.469 0.07288 0.10984 0.0
H1128 H 0.51313 0.13034 1.08458 0.0
H1129 H 0.39413 0.88131 0.11582 0.0
H1130 H 0.44165 0.41036 0.28457 0.0
H1131 H 0.42828 0.42095 0.33845 0.0
H1132 H 0.50108 0.44838 0.38162 0.0
H1133 H 0.51435 0.43733 0.32767 0.0
H1134 H 0.47429 0.43179 0.4347 0.0
H1135 H 0.47085 0.48742 0.35416 0.0
H1136 H 0.45993 0.50139 0.30049 0.0
H1137 H 0.38273 0.45573 0.32364 0.0
H1138 H 0.39332 0.44127 0.37721 0.0
H1139 H 0.42263 0.50901 0.53942 0.0
H1140 H 0.43643 0.49831 0.4859 0.0
H1141 H 0.41799 0.4278 0.5292 0.0
H1142 H 0.40372 0.43839 0.58276 0.0
H1143 H 0.41983 0.46853 0.43308 0.0
H1144 H 0.45523 0.40449 0.48968 0.0
H1145 H 0.47598 0.40104 0.54229 0.0
H1146 H 0.50071 0.4768 0.56746 0.0
H1147 H 0.48005 0.48058 0.51506 0.0
C1148 C 0.45507 0.41863 0.30532 0.0
C1149 C 0.47946 0.42272 0.30023 0.0
C1150 C 0.4473 0.42511 0.33683 0.0
C1151 C 0.46331 0.43626 0.36583 0.0
C1152 C 0.48763 0.43997 0.36095 0.0
C1153 C 0.49544 0.43356 0.32931 0.0
C1154 C 0.45477 0.44354 0.40055 0.0
C1155 C 0.46206 0.43947 0.43381 0.0
C1156 C 0.43948 0.45477 0.40167 0.0
C1157 C 0.43291 0.46299 0.36932 0.0
C1158 C 0.45159 0.48015 0.34752 0.0
C1159 C 0.44545 0.48821 0.31721 0.0
C1160 C 0.42064 0.47937 0.30858 0.0
C1161 C 0.40194 0.4625 0.33031 0.0
C1162 C 0.40801 0.45437 0.36065 0.0
C1163 C 0.42124 0.49106 0.53792 0.0
C1164 C 0.41153 0.4748 0.56681 0.0
C1165 C 0.42929 0.48479 0.50652 0.0
C1166 C 0.42885 0.46198 0.50178 0.0
C1167 C 0.41921 0.44568 0.53072 0.0
C1168 C 0.41071 0.45179 0.56198 0.0
C1169 C 0.43827 0.45555 0.46724 0.0
C1170 C 0.43144 0.46014 0.43401 0.0
C1171 C 0.45454 0.44545 0.46621 0.0
C1172 C 0.46592 0.44278 0.49858 0.0
C1173 C 0.46502 0.42038 0.5065 0.0
C1174 C 0.47676 0.41835 0.5363 0.0
C1175 C 0.4896 0.43866 0.55827 0.0
C1176 C 0.49066 0.46102 0.55055 0.0
C1177 C 0.47889 0.4631 0.52086 0.0
H1178 H 0.49877 0.43709 0.58122 0.0
H1179 H 0.4159 0.48566 0.28514 0.0
H1180 H 0.01921 0.44245 0.6119 0.0
H1181 H 0.9952 0.42806 0.6656 0.0
H1182 H 0.04677 0.49563 0.71623 0.0
H1183 H 0.07078 0.51033 0.66208 0.0
H1184 H 0.03343 0.46451 0.76548 0.0
H1185 H 0.98148 0.4738 0.68426 0.0
H1186 H 0.95857 0.46652 0.62935 0.0
H1187 H 0.91201 0.39033 0.65622 0.0
H1188 H 0.93566 0.39674 0.71033 0.0
H1189 H 0.90969 0.42641 0.87809 0.0
H1190 H 0.93347 0.43962 0.82383 0.0
H1191 H 0.97476 0.40476 0.85571 0.0
H1192 H 0.95056 0.39093 0.90953 0.0
H1193 H 0.94196 0.42246 0.76548 0.0
H1194 H 0.0168 0.42013 0.832 0.0
H1195 H 0.04692 0.43454 0.88036 0.0
H1196 H 0.05079 0.50514 0.87807 0.0
H1197 H 0.02027 0.49086 0.83029 0.0
C1198 C 0.02566 0.45466 0.63414 0.0
C1199 C 0.04757 0.47811 0.63082 0.0
C1200 C 0.01143 0.44624 0.66569 0.0
C1201 C 0.01786 0.46054 0.69679 0.0
C1202 C 0.04016 0.48374 0.69374 0.0
C1203 C 0.05427 0.49233 0.66198 0.0
C1204 C 0.00191 0.45154 0.73167 0.0
C1205 C 0.01339 0.45509 0.76472 0.0
C1206 C 0.9753 0.43947 0.73337 0.0
C1207 C 0.96061 0.43571 0.70127 0.0
C1208 C 0.96657 0.4554 0.67831 0.0
C1209 C 0.95351 0.4514 0.64722 0.0
C1210 C 0.93378 0.42801 0.63934 0.0
C1211 C 0.92729 0.40847 0.66236 0.0
C1212 C 0.94066 0.41223 0.69314 0.0
C1213 C 0.92381 0.42139 0.87402 0.0
C1214 C 0.92753 0.40731 0.90012 0.0
C1215 C 0.93792 0.42932 0.84219 0.0
C1216 C 0.95761 0.42469 0.83412 0.0
C1217 C 0.96097 0.41015 0.85993 0.0
C1218 C 0.94645 0.40168 0.89143 0.0
C1219 C 0.97348 0.43418 0.79912 0.0
C1220 C 0.96196 0.43127 0.76603 0.0
C1221 C 9e-05 0.4469 0.79719 0.0
C1222 C 0.01554 0.45409 0.82872 0.0
C1223 C 0.02358 0.43847 0.84254 0.0
C1224 C 0.04088 0.44668 0.86961 0.0
C1225 C 0.05067 0.4707 0.88243 0.0
C1226 C 0.04308 0.4865 0.86831 0.0
C1227 C 0.02562 0.47827 0.84148 0.0
H1228 H 0.06413 0.47706 0.90328 0.0
H1229 H 0.92352 0.42503 0.61542 0.0
H1230 H 0.46838 0.90723 0.21272 0.0
H1231 H 0.47936 0.93121 0.15874 0.0
H1232 H 0.55313 0.97783 0.1972 0.0
H1233 H 0.54229 0.95359 0.25113 0.0
H1234 H 0.5429 0.00801 0.16225 0.0
H1235 H 0.5332 0.92953 0.12556 0.0
H1236 H 0.51019 0.88418 0.11956 0.0
H1237 H 0.45236 0.88816 1.06409 0.0
H1238 H 0.47502 0.93348 1.07002 0.0
H1239 H 0.57119 0.0224 0.9556 0.0
H1240 H 0.5593 -0.00227 1.00922 0.0
H1241 H 0.53496 0.04525 1.05292 0.0
H1242 H 0.54686 0.06993 0.99957 0.0
H1243 H 0.52109 0.9679 1.0468 0.0
H1244 H 0.52985 0.04207 0.14087 0.0
H1245 H 0.5524 0.08751 0.14696 0.0
H1246 H 0.61288 0.09194 1.08814 0.0
H1247 H 0.59078 0.04659 1.08199 0.0
C1248 C 0.48709 0.92245 0.21002 0.0
C1249 C 0.5042 0.92766 0.23769 0.0
C1250 C 0.49354 0.93649 0.17832 0.0
C1251 C 0.5175 0.95706 0.17189 0.0
C1252 C 0.53448 0.96248 0.19982 0.0
C1253 C 0.52816 0.9482 0.23133 0.0
C1254 C 0.52475 0.9726 0.13695 0.0
C1255 C 0.53788 -0.00114 0.13725 0.0
C1256 C 0.51889 0.962 0.1028 0.0
C1257 C 0.50569 0.93486 0.0984 0.0
C1258 C 0.51556 0.92071 0.11213 0.0
C1259 C 0.50259 0.89501 0.10875 0.0
C1260 C 0.4798 0.88328 1.0915 0.0
C1261 C 0.47001 0.89724 1.07744 0.0
C1262 C 0.48293 0.92293 1.08073 0.0
C1263 C 0.56343 0.02792 0.97652 0.0
C1264 C 0.56054 0.049 0.97185 0.0
C1265 C 0.55635 0.01339 1.00787 0.0
C1266 C 0.54615 0.01899 1.03721 0.0
C1267 C 0.54305 0.03994 1.03231 0.0
C1268 C 0.54995 0.05435 1.00093 0.0
C1269 C 0.539 0.00334 1.0721 0.0
C1270 C 0.52598 0.97706 1.0718 0.0
C1271 C 0.54476 0.01391 0.10628 0.0
C1272 C 0.55859 0.04103 0.1108 0.0
C1273 C 0.54802 0.05279 0.12944 0.0
C1274 C 0.56068 0.07849 0.13282 0.0
C1275 C 0.584 0.09258 0.11784 0.0
C1276 C 0.59478 0.081 0.09964 0.0
C1277 C 0.5822 0.05531 0.0962 0.0
H1278 H 0.59374 0.11248 0.1204 0.0
H1279 H 0.46976 0.86338 1.089 0.0
H1280 H 0.59508 0.55187 0.57338 0.0
H1281 H 0.58114 0.56246 0.51939 0.0
H1282 H 0.54458 0.4863 0.48828 0.0
H1283 H 0.55815 0.47566 0.54232 0.0
H1284 H 0.56365 0.51241 0.42986 0.0
H1285 H 0.51518 0.51892 0.5191 0.0
H1286 H 0.50501 0.5334 0.57265 0.0
H1287 H 0.53974 0.60716 0.53222 0.0
H1288 H 0.55023 0.59306 0.47845 0.0
H1289 H 0.54668 0.57409 0.27922 0.0
H1290 H 0.56017 0.56313 0.33301 0.0
H1291 H 0.48972 0.54195 0.37933 0.0
H1292 H 0.47617 0.55291 0.32532 0.0
H1293 H 0.52208 0.56244 0.4305 0.0
H1294 H 0.59015 0.53362 0.37431 0.0
H1295 H 0.5964 0.51574 0.32086 0.0
H1296 H 0.51924 0.48348 0.29586 0.0
H1297 H 0.51243 0.50044 0.34972 0.0
C1298 C 0.58421 0.53719 0.55518 0.0
C1299 C 0.57833 0.51266 0.56357 0.0
C1300 C 0.5759 0.54335 0.52368 0.0
C1301 C 0.5613 0.52549 0.498 0.0
C1302 C 0.55574 0.50105 0.50624 0.0
C1303 C 0.56369 0.49484 0.53792 0.0
C1304 C 0.55181 0.53197 0.46345 0.0
C1305 C 0.55486 0.52364 0.43047 0.0
C1306 C 0.53947 0.54622 0.46222 0.0
C1307 C 0.53358 0.55488 0.49475 0.0
C1308 C 0.5207 0.53821 0.52165 0.0
C1309 C 0.51488 0.54636 0.55206 0.0
C1310 C 0.52175 0.5712 0.55587 0.0
C1311 C 0.53444 0.58791 0.52925 0.0
C1312 C 0.5403 0.57983 0.49877 0.0
C1313 C 0.53378 0.56706 0.30061 0.0
C1314 C 0.50996 0.56468 0.29639 0.0
C1315 C 0.54164 0.56051 0.33209 0.0
C1316 C 0.52635 0.55115 0.36199 0.0
C1317 C 0.50259 0.549 0.35791 0.0
C1318 C 0.49462 0.55534 0.32625 0.0
C1319 C 0.53498 0.54386 0.39672 0.0
C1320 C 0.53142 0.55172 0.42979 0.0
C1321 C 0.54695 0.52926 0.39804 0.0
C1322 C 0.55082 0.51862 0.36586 0.0
C1323 C 0.57448 0.52259 0.35752 0.0
C1324 C 0.57813 0.51256 0.32718 0.0
C1325 C 0.55824 0.49852 0.30494 0.0
C1326 C 0.53465 0.49438 0.31308 0.0
C1327 C 0.53087 0.50416 0.34354 0.0
H1328 H 0.56111 0.49083 0.28143 0.0
H1329 H 0.51722 0.57749 0.57943 0.0
H1330 H 0.08533 0.55802 0.86958 0.0
H1331 H 0.05942 0.54233 0.81698 0.0
H1332 H 0.01116 0.56724 0.85656 0.0
H1333 H 0.03703 0.58299 0.90881 0.0
H1334 H 0.98121 0.52676 0.82438 0.0
H1335 H 0.05641 0.59459 0.78447 0.0
H1336 H 0.10121 0.61949 0.77351 0.0
H1337 H 0.0984 0.56084 0.71201 0.0
H1338 H 0.05362 0.53555 0.72293 0.0
H1339 H 0.91083 0.46582 0.6663 0.0
H1340 H 0.93666 0.47935 0.71891 0.0
H1341 H 0.98806 0.54683 0.66795 0.0
H1342 H 0.96268 0.5329 0.61521 0.0
H1343 H 0.01665 0.54192 0.70636 0.0
H1344 H 0.94651 0.4809 0.80961 0.0
H1345 H 0.90161 0.45966 0.82125 0.0
H1346 H 0.89433 0.51164 0.75638 0.0
H1347 H 0.93919 0.5332 0.74465 0.0
C1348 C 0.06937 0.5605 0.86733 0.0
C1349 C 0.06423 0.57254 0.89484 0.0
C1350 C 0.05419 0.55137 0.83643 0.0
C1351 C 0.03253 0.55333 0.8307 0.0
C1352 C 0.02725 0.56496 0.85854 0.0
C1353 C 0.04254 0.57434 0.88914 0.0
C1354 C 0.01564 0.54358 0.79671 0.0
C1355 C 0.98935 0.53011 0.79876 0.0
C1356 C 0.02483 0.54764 0.76179 0.0
C1357 C 0.05174 0.56291 0.75516 0.0
C1358 C 0.06539 0.58688 0.76895 0.0
C1359 C 0.09078 0.60112 0.76266 0.0
C1360 C 0.10269 0.5917 0.74227 0.0
C1361 C 0.0892 0.56807 0.72798 0.0
C1362 C 0.06382 0.55377 0.73425 0.0
C1363 C 0.92751 0.48369 0.66598 0.0
C1364 C 0.93382 0.49788 0.63491 0.0
C1365 C 0.94262 0.49182 0.69705 0.0
C1366 C 0.96514 0.51497 0.69979 0.0
C1367 C 0.97137 0.52899 0.66855 0.0
C1368 C 0.95634 0.52086 0.63757 0.0
C1369 C 0.98209 0.52452 0.73392 0.0
C1370 C 0.00844 0.5382 0.73193 0.0
C1371 C 0.97296 0.52092 0.76892 0.0
C1372 C 0.94607 0.50831 0.77579 0.0
C1373 C 0.93525 0.48768 0.79779 0.0
C1374 C 0.90985 0.47564 0.80443 0.0
C1375 C 0.8951 0.48421 0.78939 0.0
C1376 C 0.90576 0.50494 0.76786 0.0
C1377 C 0.93117 0.51706 0.76119 0.0
H1378 H 0.87543 0.47487 0.79453 0.0
H1379 H 0.12235 0.60276 0.73741 0.0
H1380 H 0.4766 0.05131 0.41022 0.0
H1381 H 0.4881 0.03656 0.46158 0.0
H1382 H 0.53336 0.01787 0.39773 0.0
H1383 H 0.52407 0.03514 0.34732 0.0
H1384 H 0.48714 0.00332 0.49392 0.0
H1385 H 0.58584 0.02612 0.43012 0.0
H1386 H 0.62164 0.06349 0.40742 0.0
H1387 H 0.59046 0.10739 0.44239 0.0
H1388 H 0.55472 0.07049 0.46633 0.0
H1389 H 0.53272 0.96074 0.3695 0.0
H1390 H 0.55025 0.9787 0.42522 0.0
H1391 H 0.47617 0.94851 0.46684 0.0
H1392 H 0.45921 0.93036 0.41064 0.0
H1393 H 0.56512 0.00276 0.47716 0.0
H1394 H 0.51332 0.94782 0.53336 0.0
H1395 H 0.49991 0.9302 0.59125 0.0
H1396 H 0.46762 0.97599 0.60828 0.0
H1397 H 0.48118 0.99455 0.55103 0.0
C1398 C 0.48901 0.044 0.40721 0.0
C1399 C 0.50056 0.04558 0.37519 0.0
C1400 C 0.49563 0.03567 0.4367 0.0
C1401 C 0.513 0.02774 0.43409 0.0
C1402 C 0.52133 0.02563 0.40099 0.0
C1403 C 0.51543 0.03477 0.37182 0.0
C1404 C 0.52166 0.02013 0.46497 0.0
C1405 C 0.50426 0.00344 0.48885 0.0
C1406 C 0.54579 0.02296 0.46535 0.0
C1407 C 0.56745 0.04527 0.4505 0.0
C1408 C 0.58664 0.04369 0.43362 0.0
C1409 C 0.60697 0.06487 0.42033 0.0
C1410 C 0.60835 0.0878 0.4235 0.0
C1411 C 0.58935 0.0896 0.43985 0.0
C1412 C 0.569 0.06851 0.45323 0.0
C1413 C 0.52029 0.95902 0.39025 0.0
C1414 C 0.49462 0.94556 0.38509 0.0
C1415 C 0.5303 0.96874 0.42275 0.0
C1416 C 0.51491 0.96599 0.45125 0.0
C1417 C 0.48899 0.95194 0.44588 0.0
C1418 C 0.47905 0.94216 0.41323 0.0
C1419 C 0.52562 0.98092 0.48418 0.0
C1420 C 0.54789 0.00299 0.47854 0.0
C1421 C 0.50884 0.98531 0.50319 0.0
C1422 C 0.49812 0.97251 0.53676 0.0
C1423 C 0.50311 0.9541 0.54895 0.0
C1424 C 0.4956 0.94401 0.58202 0.0
C1425 C 0.48281 0.95185 0.60331 0.0
C1426 C 0.47738 0.96977 0.59158 0.0
C1427 C 0.48501 0.98012 0.55863 0.0
H1428 H 0.47728 0.94415 0.62902 0.0
H1429 H 0.62413 0.10416 0.41322 0.0
H1430 H 0.40612 0.46467 0.7415 0.0
H1431 H 0.43021 0.46968 0.79339 0.0
H1432 H 0.49363 0.48804 0.72973 0.0
H1433 H 0.47141 0.4901 0.6785 0.0
H1434 H 0.46656 0.52392 0.7867 0.0
H1435 H 0.47243 0.46689 0.85023 0.0
H1436 H 0.46416 0.42485 0.86268 0.0
H1437 H 0.51535 0.4315 0.78353 0.0
H1438 H 0.52436 0.47383 0.77088 0.0
H1439 H 0.52323 0.50973 0.66535 0.0
H1440 H 0.50909 0.53075 0.70466 0.0
H1441 H 0.57607 0.55783 0.76478 0.0
H1442 H 0.59141 0.53939 0.72364 0.0
H1443 H 0.54125 0.51577 0.79203 0.0
H1444 H 0.46832 0.54301 0.73569 0.0
H1445 H 0.46956 0.57918 0.70885 0.0
H1446 H 0.54446 0.62485 0.74359 0.0
H1447 H 0.54371 0.58903 0.77138 0.0
C1448 C 0.42543 0.47045 0.73846 0.0
C1449 C 0.43783 0.48012 0.70673 0.0
C1450 C 0.43885 0.47217 0.76825 0.0
C1451 C 0.46423 0.48131 0.7656 0.0
C1452 C 0.47442 0.48297 0.73237 0.0
C1453 C 0.46177 0.48402 0.70298 0.0
C1454 C 0.48082 0.49911 0.79189 0.0
C1455 C 0.48322 0.52254 0.78768 0.0
C1456 C 0.50211 0.49795 0.80031 0.0
C1457 C 0.49943 0.47379 0.81014 0.0
C1458 C 0.48233 0.45959 0.83594 0.0
C1459 C 0.47758 0.43571 0.84309 0.0
C1460 C 0.48968 0.42569 0.82442 0.0
C1461 C 0.50656 0.43958 0.79859 0.0
C1462 C 0.51168 0.46364 0.79163 0.0
C1463 C 0.53541 0.52119 0.68592 0.0
C1464 C 0.55748 0.52136 0.69314 0.0
C1465 C 0.52753 0.53353 0.70833 0.0
C1466 C 0.54066 0.54398 0.73941 0.0
C1467 C 0.56513 0.54898 0.74184 0.0
C1468 C 0.57352 0.53767 0.7187 0.0
C1469 C 0.52581 0.53766 0.77162 0.0
C1470 C 0.52507 0.51798 0.7908 0.0
C1471 C 0.50532 0.54155 0.77362 0.0
C1472 C 0.50578 0.56322 0.75661 0.0
C1473 C 0.48497 0.56077 0.73843 0.0
C1474 C 0.48562 0.58125 0.72272 0.0
C1475 C 0.50701 0.60434 0.72471 0.0
C1476 C 0.52785 0.60697 0.74221 0.0
C1477 C 0.52732 0.58654 0.75793 0.0
H1478 H 0.50747 0.62018 0.71251 0.0
H1479 H 0.48573 0.40706 0.82958 0.0
H1480 H 0.92199 0.3736 1.04951 0.0
H1481 H 0.95808 0.3688 1.05114 0.0
H1482 H 0.00269 0.44563 1.07397 0.0
H1483 H 0.96674 0.45133 1.06792 0.0
H1484 H 0.96645 0.40662 0.99206 0.0
H1485 H 0.06064 0.44976 1.07058 0.0
H1486 H 0.08233 0.43539 0.10948 0.0
H1487 H 0.03498 0.36084 1.07546 0.0
H1488 H 0.01266 0.37466 1.03681 0.0
H1489 H 0.05173 0.53397 0.95465 0.0
H1490 H 0.03524 0.49069 0.94021 0.0
H1491 H 0.03656 0.47449 1.04877 0.0
H1492 H 0.05316 0.5175 1.06309 0.0
H1493 H 0.05708 0.4524 1.00755 0.0
H1494 H 0.00134 0.44717 0.90806 0.0
H1495 H 0.98271 0.46893 0.87747 0.0
H1496 H 0.95044 0.47444 0.97266 0.0
H1497 H 0.97061 0.45476 1.00382 0.0
C1498 C 0.93931 0.38943 1.05559 0.0
C1499 C 0.94197 0.41313 1.05431 0.0
C1500 C 0.96003 0.3865 1.0578 0.0
C1501 C 0.98326 0.4076 1.0568 0.0
C1502 C 0.98483 0.42953 1.06978 0.0
C1503 C 0.96425 0.43291 1.06629 0.0
C1504 C -0.00295 0.41108 1.0241 0.0
C1505 C 0.98641 0.41613 0.99502 0.0
C1506 C 0.02291 0.42164 1.02527 0.0
C1507 C 0.035 0.41325 1.05069 0.0
C1508 C 0.05478 0.43028 1.07144 0.0
C1509 C 0.06714 0.42222 0.09355 0.0
C1510 C 0.05994 0.39719 0.09512 0.0
C1511 C 0.04034 0.38018 1.07457 0.0
C1512 C 0.02769 0.38808 1.05277 0.0
C1513 C 0.04725 0.52088 0.97554 0.0
C1514 C 0.05355 0.52884 1.01009 0.0
C1515 C 0.03833 0.49621 0.96708 0.0
C1516 C 0.03498 0.47931 0.99319 0.0
C1517 C 0.03901 0.4871 1.02802 0.0
C1518 C 0.04796 0.51161 1.03644 0.0
C1519 C 0.02547 0.45297 0.98591 0.0
C1520 C 0.03717 0.44204 1.00398 0.0
C1521 C 0.00024 0.43836 0.97722 0.0
C1522 C 0.98703 0.449 0.95809 0.0
C1523 C 0.99037 0.45316 0.92232 0.0
C1524 C 0.97982 0.46539 0.90496 0.0
C1525 C 0.96524 0.47285 0.923 0.0
C1526 C 0.96155 0.46848 0.95857 0.0
C1527 C 0.97264 0.45689 0.97611 0.0
H1528 H 0.95687 0.48204 0.90942 0.0
H1529 H 0.06956 0.39099 0.1122 0.0
H1530 H 0.07133 0.54656 0.45638 0.0
H1531 H 0.05317 0.53536 0.39917 0.0
H1532 H 0.00174 0.4621 0.43672 0.0
H1533 H 0.02157 0.47296 0.49346 0.0
H1534 H 0.01817 0.53025 0.37245 0.0
H1535 H 0.03722 0.47592 0.3414 0.0
H1536 H 0.05098 0.44553 0.33254 0.0
H1537 H 0.98493 0.38966 0.38138 0.0
H1538 H 0.97098 0.41979 0.39114 0.0
H1539 H 0.9502 0.5049 0.48307 0.0
H1540 H 0.96512 0.51307 0.42383 0.0
H1541 H 0.93016 0.43425 0.405 0.0
H1542 H 0.91708 0.42671 0.46426 0.0
H1543 H 0.95588 0.44253 0.36051 0.0
H1544 H 0.00176 0.55444 0.37377 0.0
H1545 H 0.9896 0.58181 0.34577 0.0
H1546 H 0.92563 0.51971 0.30177 0.0
H1547 H 0.938 0.49169 0.32831 0.0
C1548 C 0.05625 0.52791 0.45236 0.0
C1549 C 0.04788 0.51046 0.47939 0.0
C1550 C 0.04601 0.52146 0.41931 0.0
C1551 C 0.02619 0.49773 0.41275 0.0
C1552 C 0.01769 0.48029 0.44003 0.0
C1553 C 0.02859 0.48656 0.47293 0.0
C1554 C 0.01079 0.49297 0.38105 0.0
C1555 C 0.0044 0.51092 0.37176 0.0
C1556 C 0.99446 0.46844 0.37044 0.0
C1557 C 0.00303 0.45022 0.36679 0.0
C1558 C 0.02581 0.45726 0.3507 0.0
C1559 C 0.03357 0.44003 0.34536 0.0
C1560 C 0.01871 0.41565 0.35613 0.0
C1561 C -0.00371 0.40853 0.37279 0.0
C1562 C 0.98841 0.42568 0.3781 0.0
C1563 C 0.94631 0.4895 0.46628 0.0
C1564 C 0.93286 0.46527 0.47859 0.0
C1565 C 0.95432 0.49401 0.43176 0.0
C1566 C 0.94916 0.47433 0.40863 0.0
C1567 C 0.93518 0.45011 0.42137 0.0
C1568 C 0.9278 0.44572 0.45585 0.0
C1569 C 0.96205 0.47879 0.37419 0.0
C1570 C 0.96952 0.46162 0.36529 0.0
C1571 C 0.97936 0.50343 0.36574 0.0
C1572 C 0.97109 0.52064 0.3527 0.0
C1573 C 0.9853 0.54634 0.35778 0.0
C1574 C 0.97836 0.56214 0.34205 0.0
C1575 C 0.957 0.55262 0.32167 0.0
C1576 C 0.94228 0.52716 0.31739 0.0
C1577 C 0.94927 0.51128 0.33278 0.0
H1578 H 0.95172 0.56496 0.30952 0.0
H1579 H 0.02451 0.40224 0.35143 0.0
H1580 H 0.46031 0.93663 0.78022 0.0
H1581 H 0.45631 0.95428 0.72736 0.0
H1582 H 0.42271 0.99005 0.7845 0.0
H1583 H 0.42561 0.97051 0.83672 0.0
H1584 H 0.45971 0.97754 0.68141 0.0
H1585 H 0.39945 0.9859 0.70584 0.0
H1586 H 0.36337 0.99009 0.72001 0.0
H1587 H 0.40829 0.05356 0.78263 0.0
H1588 H 0.44478 0.05017 0.76936 0.0
H1589 H 0.55845 0.04365 0.79347 0.0
H1590 H 0.53846 0.03894 0.7372 0.0
H1591 H 0.47138 0.02432 0.79035 0.0
H1592 H 0.49102 0.02856 0.84524 0.0
H1593 H 0.47508 0.05402 0.7365 0.0
H1594 H 0.49802 0.97528 0.69369 0.0
H1595 H 0.53054 0.97539 0.65733 0.0
H1596 H 0.55509 0.05019 0.62728 0.0
H1597 H 0.5228 0.05061 0.66364 0.0
C1598 C 0.45185 0.94812 0.7812 0.0
C1599 C 0.44291 0.95188 0.81245 0.0
C1600 C 0.44937 0.95844 0.75054 0.0
C1601 C 0.4399 0.9749 0.75041 0.0
C1602 C 0.43047 0.97811 0.78216 0.0
C1603 C 0.4322 0.96694 0.8127 0.0
C1604 C 0.44529 0.99227 0.72005 0.0
C1605 C 0.46325 0.99342 0.69682 0.0
C1606 C 0.44731 0.01564 0.72653 0.0
C1607 C 0.42535 0.01808 0.7355 0.0
C1608 C 0.40182 0.00078 0.72272 0.0
C1609 C 0.38114 0.00295 0.73079 0.0
C1610 C 0.38344 0.02197 0.75218 0.0
C1611 C 0.40653 0.03895 0.7657 0.0
C1612 C 0.42737 0.03706 0.75756 0.0
C1613 C 0.53902 0.03832 0.79282 0.0
C1614 C 0.52644 0.03707 0.82385 0.0
C1615 C 0.52772 0.03608 0.76047 0.0
C1616 C 0.50359 0.03237 0.75862 0.0
C1617 C 0.49028 0.02809 0.78999 0.0
C1618 C 0.50139 0.03 0.822 0.0
C1619 C 0.49141 0.03168 0.72472 0.0
C1620 C 0.47151 0.03626 0.72702 0.0
C1621 C 0.48763 0.0128 0.70124 0.0
C1622 C 0.50816 0.01309 0.68169 0.0
C1623 C 0.51048 0.99184 0.67957 0.0
C1624 C 0.5289 0.99182 0.65898 0.0
C1625 C 0.54494 0.01283 0.6401 0.0
C1626 C 0.5428 0.03402 0.64214 0.0
C1627 C 0.52459 0.03424 0.66298 0.0
H1628 H 0.55898 0.01268 0.62381 0.0
H1629 H 0.36732 0.02352 0.75832 0.0
H1630 H 0.50626 0.55767 0.11947 0.0
H1631 H 0.4916 0.53483 1.06572 0.0
H1632 H 0.43843 0.47111 0.12401 0.0
H1633 H 0.45217 0.49459 0.17681 0.0
H1634 H 0.41534 0.4644 1.06956 0.0
H1635 H 0.46531 0.51717 0.99312 0.0
H1636 H 0.49699 0.55032 0.95669 0.0
H1637 H 0.55219 0.53441 0.9954 0.0
H1638 H 0.52091 0.50095 1.03156 0.0
H1639 H 0.45893 0.43235 0.17086 0.0
H1640 H 0.43562 0.42717 0.11833 0.0
H1641 H 0.50374 0.45685 1.05916 0.0
H1642 H 0.52647 0.46407 0.11231 0.0
H1643 H 0.48314 0.46026 1.01293 0.0
H1644 H 0.39164 0.43022 0.09999 0.0
H1645 H 0.35486 0.38988 0.10942 0.0
H1646 H 0.38189 0.35662 1.03743 0.0
H1647 H 0.41896 0.39675 1.02704 0.0
C1648 C 0.49166 0.53858 0.12065 0.0
C1649 C 0.48011 0.52807 0.15246 0.0
C1650 C 0.48305 0.52543 1.08952 0.0
C1651 C 0.4631 0.5011 1.08943 0.0
C1652 C 0.4531 0.49009 0.12197 0.0
C1653 C 0.46144 0.50334 0.15287 0.0
C1654 C 0.45408 0.48591 1.05682 0.0
C1655 C 0.43111 0.46383 1.05912 0.0
C1656 C 0.47144 0.48498 1.03391 0.0
C1657 C 0.49079 0.50671 1.01531 0.0
C1658 C 0.48427 0.52099 0.99427 0.0
C1659 C 0.50212 0.53971 0.97347 0.0
C1660 C 0.52655 0.54454 0.97391 0.0
C1661 C 0.53326 0.5307 0.99516 0.0
C1662 C 0.51547 0.51178 1.01568 0.0
C1663 C 0.46867 0.43782 0.1464 0.0
C1664 C 0.49431 0.44783 0.14546 0.0
C1665 C 0.45529 0.43458 0.11579 0.0
C1666 C 0.46728 0.44134 1.08318 0.0
C1667 C 0.49324 0.45141 1.08297 0.0
C1668 C 0.50655 0.45571 0.1137 0.0
C1669 C 0.45411 0.44276 1.05099 0.0
C1670 C 0.46948 0.46183 1.02837 0.0
C1671 C 0.43087 0.44118 1.05585 0.0
C1672 C 0.40822 0.41694 1.06216 0.0
C1673 C 0.38976 0.41457 1.08548 0.0
C1674 C 0.36885 0.39155 1.09132 0.0
C1675 C 0.36603 0.37067 1.07402 0.0
C1676 C 0.38416 0.37276 1.05092 0.0
C1677 C 0.40519 0.39567 1.04511 0.0
H1678 H 0.34981 0.35287 1.07855 0.0
H1679 H 0.54026 0.55888 0.95759 0.0
H1680 H 0.33637 0.91765 0.67636 0.0
H1681 H 0.33087 0.93069 0.61888 0.0
H1682 H 0.30816 0.97902 0.66519 0.0
H1683 H 0.31381 0.96628 0.72305 0.0
H1684 H 0.28098 0.95005 0.59931 0.0
H1685 H 0.36022 0.01226 0.64149 0.0
H1686 H 0.4022 0.0327 0.66679 0.0
H1687 H 0.42316 0.99239 0.59776 0.0
H1688 H 0.38161 0.97259 0.57091 0.0
H1689 H 0.34578 0.04201 0.45524 0.0
H1690 H 0.32333 0.02094 0.50775 0.0
H1691 H 0.3288 0.95706 0.47957 0.0
H1692 H 0.35092 0.9778 0.42676 0.0
H1693 H 0.36132 -0.00264 0.53868 0.0
H1694 H 0.27938 0.94006 0.49208 0.0
H1695 H 0.24027 0.93041 0.463 0.0
H1696 H 0.22564 0.96992 0.54189 0.0
H1697 H 0.26488 0.98015 0.57116 0.0
C1698 C 0.33002 0.93091 0.6744 0.0
C1699 C 0.32624 0.94147 0.70425 0.0
C1700 C 0.32679 0.93824 0.6416 0.0
C1701 C 0.31968 0.95616 0.63808 0.0
C1702 C 0.31381 0.96524 0.66759 0.0
C1703 C 0.31693 0.95782 0.70056 0.0
C1704 C 0.32062 0.96665 0.60358 0.0
C1705 C 0.29851 0.96065 0.58606 0.0
C1706 C 0.34352 0.98065 0.58663 0.0
C1707 C 0.36764 0.99052 0.60478 0.0
C1708 C 0.37365 0.00746 0.63209 0.0
C1709 C 0.39747 0.01917 0.64639 0.0
C1710 C 0.41523 0.01357 0.63428 0.0
C1711 C 0.40936 -0.00337 0.60728 0.0
C1712 C 0.38575 0.98534 0.59227 0.0
C1713 C 0.34107 0.023 0.4593 0.0
C1714 C 0.35055 0.01168 0.43745 0.0
C1715 C 0.32809 0.01095 0.4892 0.0
C1716 C 0.32441 0.9875 0.49731 0.0
C1717 C 0.33124 0.97506 0.4734 0.0
C1718 C 0.34416 0.98705 0.44355 0.0
C1719 C 0.32172 0.97992 0.53381 0.0
C1720 C 0.34372 0.98672 0.55184 0.0
C1721 C 0.29882 0.96737 0.55115 0.0
C1722 C 0.27524 0.96114 0.53356 0.0
C1723 C 0.26799 0.94696 0.503 0.0
C1724 C 0.24575 0.94131 0.48654 0.0
C1725 C 0.23052 0.94962 0.50051 0.0
C1726 C 0.23747 0.96353 0.53105 0.0
C1727 C 0.2597 0.96923 0.5476 0.0
H1728 H 0.21331 0.94523 0.48774 0.0
H1729 H 0.43357 0.02247 0.64567 0.0
H1730 H 0.45582 0.34669 1.0105 0.0
H1731 H 0.45035 0.3406 0.94775 0.0
H1732 H 0.37181 0.31208 0.95962 0.0
H1733 H 0.37708 0.31663 1.02241 0.0
H1734 H 0.37883 0.29133 0.90612 0.0
H1735 H 0.41525 0.37665 0.94761 0.0
H1736 H 0.4472 0.41417 0.97721 0.0
H1737 H 0.50277 0.41599 0.90992 0.0
H1738 H 0.47136 0.37802 0.88072 0.0
H1739 H 0.33834 0.34957 0.79028 0.0
H1740 H 0.35167 0.33206 0.83594 0.0
H1741 H 0.41898 0.35216 0.78028 0.0
H1742 H 0.40524 0.36882 0.73314 0.0
H1743 H 0.42602 0.37227 0.84716 0.0
H1744 H 0.38192 0.29309 0.79446 0.0
H1745 H 0.34658 0.25806 0.76548 0.0
H1746 H 0.30141 0.24671 0.85506 0.0
H1747 H 0.33633 0.28189 0.88442 0.0
C1748 C 0.43734 0.33855 0.99965 0.0
C1749 C 0.41691 0.33275 1.02098 0.0
C1750 C 0.43423 0.33512 0.96388 0.0
C1751 C 0.4108 0.32668 0.94891 0.0
C1752 C 0.39012 0.31881 0.97055 0.0
C1753 C 0.39313 0.32157 1.0064 0.0
C1754 C 0.40803 0.32909 0.9112 0.0
C1755 C 0.38921 0.30896 0.8931 0.0
C1756 C 0.42203 0.35198 0.89398 0.0
C1757 C 0.44101 0.37447 0.91208 0.0
C1758 C 0.43435 0.38493 0.93937 0.0
C1759 C 0.45237 0.40619 0.9562 0.0
C1760 C 0.47706 0.4173 0.94571 0.0
C1761 C 0.48375 0.40715 0.9184 0.0
C1762 C 0.46586 0.38577 0.9017 0.0
C1763 C 0.3555 0.34942 0.78678 0.0
C1764 C 0.37077 0.36084 0.75796 0.0
C1765 C 0.36315 0.33943 0.81312 0.0
C1766 C 0.38626 0.34077 0.8114 0.0
C1767 C 0.40104 0.35094 0.78198 0.0
C1768 C 0.39323 0.36063 0.75525 0.0
C1769 C 0.39606 0.3348 0.84262 0.0
C1770 C 0.41623 0.35434 0.8596 0.0
C1771 C 0.38286 0.31158 0.85905 0.0
C1772 C 0.3618 0.2902 0.84164 0.0
C1773 C 0.36442 0.28321 0.80793 0.0
C1774 C 0.34445 0.26331 0.79144 0.0
C1775 C 0.32176 0.25017 0.80841 0.0
C1776 C 0.319 0.25688 0.84195 0.0
C1777 C 0.3389 0.27677 0.85857 0.0
H1778 H 0.30632 0.23477 0.79559 0.0
H1779 H 0.49097 0.43383 0.95862 0.0
H1780 H 0.92995 0.29923 0.16163 0.0
H1781 H 0.96077 0.30906 0.20754 0.0
H1782 H 0.01906 0.35379 0.13617 0.0
H1783 H 0.9883 0.3442 1.09006 0.0
H1784 H 0.00512 0.30648 0.21658 0.0
H1785 H 0.05719 0.4105 0.18543 0.0
H1786 H 0.05138 0.44133 0.15299 0.0
H1787 H 0.97265 0.39684 0.16406 0.0
H1788 H 0.978 0.36644 0.19818 0.0
H1789 H 0.09316 0.41554 0.34441 0.0
H1790 H 0.08251 0.39797 0.28595 0.0
H1791 H 0.01427 0.33769 0.32478 0.0
H1792 H 0.0243 0.35525 0.38248 0.0
H1793 H 0.04372 0.39433 0.25208 0.0
H1794 H 0.99316 0.28756 0.27637 0.0
H1795 H -8e-05 0.25794 0.31024 0.0
H1796 H 0.07801 0.30915 0.31318 0.0
H1797 H 0.07182 0.33896 0.27889 0.0
C1798 C 0.94939 0.31075 0.15557 0.0
C1799 C 0.95681 0.32114 0.12244 0.0
C1800 C 0.96695 0.31619 0.18167 0.0
C1801 C 0.99211 0.33234 0.17508 0.0
C1802 C -0.0003 0.34137 0.14147 0.0
C1803 C 0.98217 0.33581 0.11529 0.0
C1804 C 0.00975 0.34214 0.20433 0.0
C1805 C 0.01365 0.32567 0.22444 0.0
C1806 C 0.02158 0.36743 0.21356 0.0
C1807 C 0.018 0.38583 0.19363 0.0
C1808 C 0.03863 0.40732 0.18105 0.0
C1809 C 0.03543 0.42478 0.16249 0.0
C1810 C 0.01166 0.42087 0.15605 0.0
C1811 C 0.99105 0.39973 0.16877 0.0
C1812 C 0.99417 0.38242 0.18786 0.0
C1813 C 0.0761 0.39831 0.34056 0.0
C1814 C 0.05947 0.387 0.36814 0.0
C1815 C 0.07014 0.38822 0.3072 0.0
C1816 C 0.04767 0.36647 0.30104 0.0
C1817 C 0.03197 0.35421 0.32899 0.0
C1818 C 0.03781 0.3643 0.36218 0.0
C1819 C 0.03848 0.35849 0.26526 0.0
C1820 C 0.036 0.37529 0.24379 0.0
C1821 C 0.02811 0.33358 0.25473 0.0
C1822 C 0.03198 0.31558 0.27513 0.0
C1823 C 0.0118 0.29247 0.28402 0.0
C1824 C 0.01553 0.27564 0.30336 0.0
C1825 C 0.03937 0.28167 0.3139 0.0
C1826 C 0.05955 0.30453 0.30508 0.0
C1827 C 0.05592 0.32142 0.28574 0.0
H1828 H 0.04221 0.26862 0.32888 0.0
H1829 H 0.00924 0.43434 0.14147 0.0
H1830 H 0.67842 0.10861 0.69853 0.0
H1831 H 0.68716 0.10455 0.63785 0.0
H1832 H 0.67513 0.03153 0.65872 0.0
H1833 H 0.66685 0.03573 0.71963 0.0
H1834 H 0.70863 0.05629 0.60159 0.0
H1835 H 0.62457 0.03173 0.64096 0.0
H1836 H 0.59745 0.04146 0.67606 0.0
H1837 H 0.62044 0.10767 0.61711 0.0
H1838 H 0.6478 0.09833 0.58182 0.0
H1839 H 0.62675 0.9662 0.48641 0.0
H1840 H 0.65162 0.99467 0.53249 0.0
H1841 H 0.65167 0.05487 0.47736 0.0
H1842 H 0.62696 0.02629 0.43072 0.0
H1843 H 0.63345 0.04827 0.54416 0.0
H1844 H 0.70573 0.05772 0.48955 0.0
H1845 H 0.73216 0.04448 0.45981 0.0
H1846 H 0.73058 0.00308 0.54962 0.0
H1847 H 0.70383 0.01573 0.57975 0.0
C1848 C 0.67853 0.09207 0.69035 0.0
C1849 C 0.67147 0.07224 0.71331 0.0
C1850 C 0.68373 0.08986 0.65585 0.0
C1851 C 0.6814 0.06761 0.64384 0.0
C1852 C 0.67711 0.04888 0.66761 0.0
C1853 C 0.6722 0.05121 0.70228 0.0
C1854 C 0.67713 0.06147 0.60661 0.0
C1855 C 0.69241 0.05474 0.5887 0.0
C1856 C 0.65607 0.05975 0.58994 0.0
C1857 C 0.63817 0.06439 0.6089 0.0
C1858 C 0.62365 0.04826 0.63537 0.0
C1859 C 0.60833 0.05373 0.65535 0.0
C1860 C 0.60725 0.07516 0.64884 0.0
C1861 C 0.62125 0.09104 0.62207 0.0
C1862 C 0.63664 0.08565 0.60202 0.0
C1863 C 0.63245 0.98559 0.48391 0.0
C1864 C 0.62483 0.99413 0.4554 0.0
C1865 C 0.64687 0.00187 0.50997 0.0
C1866 C 0.65373 0.0269 0.50804 0.0
C1867 C 0.6468 0.03565 0.47901 0.0
C1868 C 0.63266 0.01938 0.45257 0.0
C1869 C 0.66477 0.04265 0.53885 0.0
C1870 C 0.65043 0.0509 0.55601 0.0
C1871 C 0.68647 0.04529 0.55481 0.0
C1872 C 0.70268 0.03766 0.5369 0.0
C1873 C 0.71087 0.04566 0.50291 0.0
C1874 C 0.72594 0.03828 0.48598 0.0
C1875 C 0.73304 0.02294 0.50281 0.0
C1876 C 0.7251 0.01498 0.53663 0.0
C1877 C 0.71002 0.0223 0.55367 0.0
H1878 H 0.7447 0.01724 0.48966 0.0
H1879 H 0.59551 0.07938 0.66459 0.0
H1880 H 0.58594 0.68201 1.0221 0.0
H1881 H 0.60485 0.69192 0.96451 0.0
H1882 H 0.65015 0.66014 0.9926 0.0
H1883 H 0.63147 0.65034 1.05017 0.0
H1884 H 0.6745 0.7005 0.94838 0.0
H1885 H 0.59472 0.62368 0.95658 0.0
H1886 H 0.55049 0.60126 0.97226 0.0
H1887 H 0.53655 0.64655 0.90244 0.0
H1888 H 0.58077 0.66942 0.88661 0.0
H1889 H 0.68204 0.6265 0.81979 0.0
H1890 H 0.67853 0.64961 0.86826 0.0
H1891 H 0.63641 0.67219 0.80406 0.0
H1892 H 0.63945 0.64856 0.75552 0.0
H1893 H 0.61162 0.64874 0.8604 0.0
H1894 H 0.69151 0.71591 0.83935 0.0
H1895 H 0.73602 0.73734 0.82571 0.0
H1896 H 0.75072 0.70991 0.91967 0.0
H1897 H 0.70626 0.688 0.93367 0.0
C1898 C 0.60022 0.6775 1.01609 0.0
C1899 C 0.60698 0.66503 1.04025 0.0
C1900 C 0.61111 0.68334 0.98337 0.0
C1901 C 0.62864 0.67648 0.9743 0.0
C1902 C 0.63672 0.66568 0.99924 0.0
C1903 C 0.62596 0.65999 1.03203 0.0
C1904 C 0.63573 0.67686 0.93775 0.0
C1905 C 0.66087 0.68936 0.92893 0.0
C1906 C 0.61775 0.66282 0.91235 0.0
C1907 C 0.59102 0.64834 0.92062 0.0
C1908 C 0.58219 0.6288 0.94453 0.0
C1909 C 0.55713 0.61597 0.95337 0.0
C1910 C 0.54068 0.62233 0.93814 0.0
C1911 C 0.54928 0.64154 0.91405 0.0
C1912 C 0.57433 0.65442 0.9051 0.0
C1913 C 0.67251 0.63686 0.81583 0.0
C1914 C 0.66077 0.63555 0.78415 0.0
C1915 C 0.67077 0.6503 0.84339 0.0
C1916 C 0.65734 0.66276 0.83968 0.0
C1917 C 0.64699 0.66283 0.80733 0.0
C1918 C 0.64879 0.6494 0.77966 0.0
C1919 C 0.65064 0.67173 0.87101 0.0
C1920 C 0.62541 0.66078 0.87912 0.0
C1921 C 0.66862 0.68703 0.89569 0.0
C1922 C 0.69547 0.70024 0.88752 0.0
C1923 C 0.7042 0.71431 0.85702 0.0
C1924 C 0.72944 0.72656 0.84923 0.0
C1925 C 0.74619 0.72498 0.8718 0.0
C1926 C 0.73773 0.71115 0.90223 0.0
C1927 C 0.7125 0.69884 0.91014 0.0
H1928 H 0.76572 0.73448 0.86572 0.0
H1929 H 0.52131 0.61243 0.94508 0.0
H1930 H 0.01479 0.65518 0.12456 0.0
H1931 H 0.00448 0.65812 0.18416 0.0
H1932 H 0.08189 0.70433 0.20874 0.0
H1933 H 0.09249 0.70185 0.14837 0.0
H1934 H 0.06169 0.66394 0.24694 0.0
H1935 H 0.04122 0.72558 0.22338 0.0
H1936 H 0.02328 0.74734 0.19182 0.0
H1937 H 0.95022 0.68625 0.20847 0.0
H1938 H 0.96769 0.66393 0.23967 0.0
H1939 H 0.01237 0.62789 0.41568 0.0
H1940 H 0.03421 0.65563 0.36779 0.0
H1941 H 0.96671 0.62286 0.30763 0.0
H1942 H 0.94429 0.59648 0.35648 0.0
H1943 H 0.99126 0.67003 0.2954 0.0
H1944 H 0.01536 0.60492 0.29446 0.0
H1945 H 0.03293 0.5812 0.32195 0.0
H1946 H 0.09861 0.6487 0.34908 0.0
H1947 H 0.08142 0.67272 0.3216 0.0
C1948 C 0.02966 0.66695 0.14206 0.0
C1949 C 0.05453 0.67803 0.13167 0.0
C1950 C 0.02368 0.66862 0.17635 0.0
C1951 C 0.04241 0.68145 0.20099 0.0
C1952 C 0.06715 0.69431 0.19013 0.0
C1953 C 0.07317 0.69275 0.15568 0.0
C1954 C 0.03616 0.67731 0.23833 0.0
C1955 C 0.04682 0.66603 0.25793 0.0
C1956 C 0.01655 0.6797 0.25254 0.0
C1957 C 0.00582 0.69305 0.23387 0.0
C1958 C 0.02133 0.7167 0.22015 0.0
C1959 C 0.01124 0.72915 0.20233 0.0
C1960 C 0.98563 0.71818 0.19814 0.0
C1961 C 0.97005 0.69474 0.21178 0.0
C1962 C 0.98005 0.68221 0.22962 0.0
C1963 C 0.002 0.62696 0.39259 0.0
C1964 C 0.97656 0.60976 0.38986 0.0
C1965 C 0.01464 0.64262 0.36499 0.0
C1966 C 0.00226 0.64099 0.33378 0.0
C1967 C 0.97671 0.62444 0.33141 0.0
C1968 C 0.96395 0.60913 0.35923 0.0
C1969 C 0.01588 0.65548 0.30286 0.0
C1970 C 0.00666 0.66873 0.2847 0.0
C1971 C 0.03675 0.65484 0.28976 0.0
C1972 C 0.04694 0.64053 0.30667 0.0
C1973 C 0.03341 0.61463 0.3067 0.0
C1974 C 0.0433 0.60116 0.32219 0.0
C1975 C 0.06672 0.61344 0.33766 0.0
C1976 C 0.08039 0.63921 0.33737 0.0
C1977 C 0.07062 0.65276 0.32177 0.0
H1978 H 0.07437 0.60297 0.34952 0.0
H1979 H 0.97785 0.72785 0.18432 0.0
H1980 H 0.55835 0.12496 0.44758 0.0
H1981 H 0.56839 0.12373 0.50865 0.0
H1982 H 0.49084 0.08502 0.53329 0.0
H1983 H 0.48089 0.08706 0.47206 0.0
H1984 H 0.50737 0.10833 0.5865 0.0
H1985 H 0.54395 0.0537 0.56064 0.0
H1986 H 0.57087 0.04036 0.53254 0.0
H1987 H 0.62874 0.11579 0.52389 0.0
H1988 H 0.60271 0.1294 0.5543 0.0
H1989 H 0.52785 0.08758 0.76597 0.0
H1990 H 0.51722 0.08595 0.70522 0.0
H1991 H 0.59412 0.11813 0.67805 0.0
H1992 H 0.60418 0.11628 0.73936 0.0
H1993 H 0.5771 0.09772 0.62558 0.0
H1994 H 0.53844 0.14417 0.67518 0.0
H1995 H 0.50999 0.14768 0.71632 0.0
H1996 H 0.45058 0.07768 0.68184 0.0
H1997 H 0.47865 0.07388 0.64045 0.0
C1998 C 0.5432 0.1161 0.46572 0.0
C1999 C 0.51854 0.10637 0.45321 0.0
C2000 C 0.54907 0.11497 0.50161 0.0
C2001 C 0.53076 0.10373 0.52793 0.0
C2002 C 0.50606 0.09398 0.51527 0.0
C2003 C 0.50017 0.09517 0.47935 0.0
C2004 C 0.53704 0.10317 0.5679 0.0
C2005 C 0.52269 0.10584 0.59442 0.0
C2006 C 0.55684 0.09994 0.58111 0.0
C2007 C 0.57109 0.09262 0.55839 0.0
C2008 C 0.56224 0.06745 0.55208 0.0
C2009 C 0.57749 0.05981 0.53635 0.0
C2010 C 0.60135 0.07723 0.52587 0.0
C2011 C 0.61016 0.10234 0.53167 0.0
C2012 C 0.59528 0.11001 0.54851 0.0
C2013 C 0.54277 0.09443 0.74733 0.0
C2014 C 0.56716 0.10221 0.75929 0.0
C2015 C 0.53659 0.09407 0.71138 0.0
C2016 C 0.55451 0.10304 0.68432 0.0
C2017 C 0.57909 0.11097 0.69649 0.0
C2018 C 0.58512 0.11015 0.7325 0.0
C2019 C 0.54795 0.10349 0.64432 0.0
C2020 C 0.5621 0.10066 0.61774 0.0
C2021 C 0.52756 0.1059 0.63115 0.0
C2022 C 0.51061 0.10876 0.65488 0.0
C2023 C 0.51927 0.12965 0.67629 0.0
C2024 C 0.50323 0.13166 0.69965 0.0
C2025 C 0.4785 0.11293 0.70168 0.0
C2026 C 0.4697 0.09222 0.68017 0.0
C2027 C 0.48563 0.09017 0.65667 0.0
H2028 H 0.46616 0.11445 0.71992 0.0
H2029 H 0.61305 0.07128 0.51341 0.0
H2030 H 0.43214 0.5555 0.77338 0.0
H2031 H 0.44395 0.56709 0.83392 0.0
H2032 H 0.39609 0.4918 0.86485 0.0
H2033 H 0.38369 0.48037 0.80396 0.0
H2034 H 0.3935 0.51249 0.91647 0.0
H2035 H 0.47646 0.53237 0.88302 0.0
H2036 H 0.51563 0.55047 0.85038 0.0
H2037 H 0.51784 0.62026 0.84723 0.0
H2038 H 0.47942 0.6029 0.88173 0.0
H2039 H 0.42505 0.56419 1.0902 0.0
H2040 H 0.41348 0.55371 1.02944 0.0
H2041 H 0.48833 0.57235 1.00592 0.0
H2042 H 0.50012 0.58456 1.06634 0.0
H2043 H 0.47751 0.57762 0.95039 0.0
H2044 H 0.37116 0.52589 0.96417 0.0
H2045 H 0.3388 0.49987 1.00617 0.0
H2046 H 0.38805 0.47891 1.05348 0.0
H2047 H 0.42067 0.50451 1.01144 0.0
C2048 C 0.4239 0.54117 0.79277 0.0
C2049 C 0.40642 0.51674 0.78206 0.0
C2050 C 0.43116 0.54788 0.82841 0.0
C2051 C 0.42176 0.53069 0.85635 0.0
C2052 C 0.40421 0.5062 0.84553 0.0
C2053 C 0.39693 0.49948 0.8098 0.0
C2054 C 0.42928 0.53818 0.89591 0.0
C2055 C 0.412 0.52685 0.92333 0.0
C2056 C 0.4535 0.55629 0.90774 0.0
C2057 C 0.47488 0.56624 0.88416 0.0
C2058 C 0.48517 0.55149 0.87495 0.0
C2059 C 0.5074 0.5617 0.85661 0.0
C2060 C 0.51917 0.58648 0.8467 0.0
C2061 C 0.50871 0.60108 0.85503 0.0
C2062 C 0.48687 0.59116 0.8743 0.0
C2063 C 0.43925 0.56619 1.0723 0.0
C2064 C 0.46381 0.57552 1.08488 0.0
C2065 C 0.43239 0.5595 1.03656 0.0
C2066 C 0.44926 0.56056 1.01068 0.0
C2067 C 0.47398 0.57041 1.02341 0.0
C2068 C 0.48097 0.57767 1.05898 0.0
C2069 C 0.44168 0.5522 0.97127 0.0
C2070 C 0.45893 0.56335 0.94378 0.0
C2071 C 0.4178 0.5329 0.9597 0.0
C2072 C 0.39841 0.51734 0.98491 0.0
C2073 C 0.37506 0.51566 0.98347 0.0
C2074 C 0.3567 0.50098 1.00726 0.0
C2075 C 0.36143 0.4878 1.03251 0.0
C2076 C 0.3845 0.48916 1.03391 0.0
C2077 C 0.40292 0.50374 1.01011 0.0
H2078 H 0.34722 0.4765 1.05095 0.0
H2079 H 0.53651 0.59443 0.83287 0.0
H2080 H 0.87903 0.4299 0.11136 0.0
H2081 H 0.87944 0.43959 0.17282 0.0
H2082 H 0.87968 0.373 0.20007 0.0
H2083 H 0.87978 0.36336 0.13774 0.0
H2084 H 0.84945 0.37947 0.24758 0.0
H2085 H 0.93196 0.43395 0.20941 0.0
H2086 H 0.96504 0.46606 0.17367 0.0
H2087 H 0.94147 0.51759 0.20233 0.0
H2088 H 0.90793 0.48565 0.23772 0.0
H2089 H 0.86746 0.41143 0.43145 0.0
H2090 H 0.86789 0.39939 0.37125 0.0
H2091 H 0.89187 0.47375 0.33836 0.0
H2092 H 0.89354 0.48615 0.39915 0.0
H2093 H 0.90975 0.46206 0.29265 0.0
H2094 H 0.82556 0.40857 0.32535 0.0
H2095 H 0.79085 0.37722 0.35987 0.0
H2096 H 0.81562 0.32522 0.34101 0.0
H2097 H 0.85062 0.35636 0.30665 0.0
C2098 C 0.87918 0.41701 0.13 0.0
C2099 C 0.87929 0.39552 0.11772 0.0
C2100 C 0.87955 0.42282 0.1661 0.0
C2101 C 0.87977 0.40748 0.19317 0.0
C2102 C 0.87951 0.3857 0.18112 0.0
C2103 C 0.87961 0.38007 0.14469 0.0
C2104 C 0.88036 0.41437 0.23296 0.0
C2105 C 0.86305 0.39752 0.25719 0.0
C2106 C 0.89721 0.43811 0.24744 0.0
C2107 C 0.91718 0.45727 0.22585 0.0
C2108 C 0.93363 0.45204 0.20778 0.0
C2109 C 0.95251 0.47023 0.18763 0.0
C2110 C 0.9553 0.49382 0.18562 0.0
C2111 C 0.93924 0.49928 0.20381 0.0
C2112 C 0.92028 0.48113 0.2239 0.0
C2113 C 0.87264 0.4254 0.41161 0.0
C2114 C 0.88006 0.45001 0.42188 0.0
C2115 C 0.87264 0.41829 0.37604 0.0
C2116 C 0.87915 0.43499 0.34753 0.0
C2117 C 0.8866 0.45967 0.358 0.0
C2118 C 0.88729 0.46693 0.3937 0.0
C2119 C 0.87881 0.42727 0.30789 0.0
C2120 C 0.89615 0.44399 0.28346 0.0
C2121 C 0.86173 0.40357 0.29314 0.0
C2122 C 0.84083 0.38486 0.31379 0.0
C2123 C 0.82366 0.39049 0.32874 0.0
C2124 C 0.80394 0.37276 0.34825 0.0
C2125 C 0.80108 0.34927 0.35272 0.0
C2126 C 0.81789 0.34344 0.33759 0.0
C2127 C 0.83766 0.36111 0.31808 0.0
H2128 H 0.78579 0.33557 0.36783 0.0
H2129 H 0.96995 0.5079 0.17006 0.0
H2130 H 0.50571 0.89886 0.47725 0.0
H2131 H 0.49456 0.89996 0.5381 0.0
H2132 H 0.41884 0.87261 0.50773 0.0
H2133 H 0.42991 0.87115 0.44708 0.0
H2134 H 0.42666 0.90436 0.55742 0.0
H2135 H 0.44481 0.83746 0.55666 0.0
H2136 H 0.47103 0.81876 0.54644 0.0
H2137 H 0.52673 0.87199 0.61444 0.0
H2138 H 0.50093 0.89116 0.62478 0.0
H2139 H 0.3807 0.88893 0.73449 0.0
H2140 H 0.3896 0.88526 0.67367 0.0
H2141 H 0.45926 0.89177 0.70396 0.0
H2142 H 0.44863 0.89205 0.76475 0.0
H2143 H 0.4545 0.8707 0.65256 0.0
H2144 H 0.43891 0.93814 0.65519 0.0
H2145 H 0.41498 0.95928 0.66623 0.0
H2146 H 0.35875 0.91053 0.59529 0.0
H2147 H 0.38207 0.88881 0.58408 0.0
C2148 C 0.48655 0.89276 0.48323 0.0
C2149 C 0.46892 0.88449 0.45579 0.0
C2150 C 0.47998 0.89336 0.51884 0.0
C2151 C 0.45538 0.8861 0.52953 0.0
C2152 C 0.43794 0.87837 0.5019 0.0
C2153 C 0.44441 0.87738 0.46645 0.0
C2154 C 0.44781 0.88652 0.56856 0.0
C2155 C 0.43259 0.89659 0.57795 0.0
C2156 C 0.45567 0.87746 0.5972 0.0
C2157 C 0.47103 0.86583 0.59128 0.0
C2158 C 0.46269 0.84523 0.5693 0.0
C2159 C 0.47748 0.83454 0.5635 0.0
C2160 C 0.50055 0.84421 0.57972 0.0
C2161 C 0.50886 0.86453 0.60187 0.0
C2162 C 0.49416 0.87529 0.60774 0.0
C2163 C 0.39789 0.88939 0.72845 0.0
C2164 C 0.41369 0.89084 0.75607 0.0
C2165 C 0.40347 0.88781 0.69264 0.0
C2166 C 0.42604 0.88917 0.68154 0.0
C2167 C 0.4417 0.89059 0.70951 0.0
C2168 C 0.43554 0.89093 0.74527 0.0
C2169 C 0.43331 0.88877 0.64206 0.0
C2170 C 0.44847 0.8786 0.6324 0.0
C2171 C 0.42587 0.89832 0.61328 0.0
C2172 C 0.41219 0.91177 0.61902 0.0
C2173 C 0.42151 0.93201 0.64184 0.0
C2174 C 0.40804 0.94399 0.64826 0.0
C2175 C 0.38543 0.93616 0.63164 0.0
C2176 C 0.37626 0.91647 0.60826 0.0
C2177 C 0.38959 0.9043 0.60187 0.0
H2178 H 0.37513 0.94547 0.63689 0.0
H2179 H 0.51197 0.83592 0.57518 0.0
H2180 H 0.60483 0.51463 0.80483 0.0
H2181 H 0.59386 0.50391 0.866 0.0
H2182 H 0.54732 0.42775 0.83727 0.0
H2183 H 0.55937 0.43838 0.77672 0.0
H2184 H 0.5569 0.4208 0.89361 0.0
H2185 H 0.58987 0.5189 0.94786 0.0
H2186 H 0.58945 0.55722 0.93333 0.0
H2187 H 0.5278 0.51668 0.86487 0.0
H2188 H 0.52832 0.47824 0.87817 0.0
H2189 H 0.5628 0.45304 0.09469 0.0
H2190 H 0.57313 0.46447 1.03349 0.0
H2191 H 0.50428 0.4016 1.0025 0.0
H2192 H 0.49358 0.39054 1.06399 0.0
H2193 H 0.55094 0.47757 0.97744 0.0
H2194 H 0.51404 0.38232 0.91753 0.0
H2195 H 0.50362 0.34027 0.93488 0.0
H2196 H 0.55949 0.37 1.01429 0.0
H2197 H 0.5703 0.41226 0.99731 0.0
C2198 C 0.59229 0.49549 0.81125 0.0
C2199 C 0.58326 0.47767 0.7841 0.0
C2200 C 0.58546 0.48918 0.84715 0.0
C2201 C 0.56879 0.4646 0.85868 0.0
C2202 C 0.56013 0.44688 0.83134 0.0
C2203 C 0.56709 0.45316 0.79565 0.0
C2204 C 0.56097 0.45711 0.89814 0.0
C2205 C 0.55548 0.43353 0.91122 0.0
C2206 C 0.55851 0.47257 0.92364 0.0
C2207 C 0.55943 0.49584 0.91352 0.0
C2208 C 0.57648 0.51826 0.92929 0.0
C2209 C 0.57628 0.53999 0.92116 0.0
C2210 C 0.55883 0.53942 0.89774 0.0
C2211 C 0.54161 0.51715 0.88235 0.0
C2212 C 0.54196 0.49543 0.88998 0.0
C2213 C 0.54969 0.44135 1.07515 0.0
C2214 C 0.52712 0.42047 1.08593 0.0
C2215 C 0.55567 0.44816 1.03937 0.0
C2216 C 0.5399 0.43423 1.01152 0.0
C2217 C 0.5174 0.41315 1.02215 0.0
C2218 C 0.51114 0.40666 1.05807 0.0
C2219 C 0.54714 0.44163 0.97227 0.0
C2220 C 0.55256 0.46511 0.95946 0.0
C2221 C 0.54847 0.4257 0.94672 0.0
C2222 C 0.54274 0.40046 0.95643 0.0
C2223 C 0.52411 0.37991 0.93867 0.0
C2224 C 0.51813 0.35603 0.94845 0.0
C2225 C 0.53082 0.35246 0.97576 0.0
C2226 C 0.5496 0.37278 0.99324 0.0
C2227 C 0.55562 0.39671 0.98359 0.0
H2228 H 0.52615 0.33395 0.98331 0.0
H2229 H 0.55849 0.5562 0.8918 0.0
H2230 H 0.07906 0.49109 0.39828 0.0
H2231 H 0.08022 0.50237 0.33751 0.0
H2232 H 0.131 0.57817 0.36269 0.0
H2233 H 0.12956 0.56679 0.42427 0.0
H2234 H 0.10753 0.58293 0.31245 0.0
H2235 H 0.14144 0.52749 0.31045 0.0
H2236 H 0.14062 0.48815 0.32162 0.0
H2237 H 0.07332 0.44908 0.2628 0.0
H2238 H 0.0736 0.48814 0.25161 0.0
H2239 H 0.08233 0.59342 0.1298 0.0
H2240 H 0.08117 0.582 0.19081 0.0
H2241 H 0.13582 0.56068 0.17081 0.0
H2242 H 0.13658 0.57172 0.10924 0.0
H2243 H 0.10837 0.5296 0.21806 0.0
H2244 H 0.07264 0.59013 0.26918 0.0
H2245 H 0.07365 0.6291 0.25426 0.0
H2246 H 0.14706 0.65843 0.21385 0.0
H2247 H 0.14621 0.61938 0.22768 0.0
C2248 C 0.09101 0.51022 0.39139 0.0
C2249 C 0.10468 0.52755 0.41806 0.0
C2250 C 0.09168 0.51687 0.35548 0.0
C2251 C 0.1062 0.54146 0.34284 0.0
C2252 C 0.11956 0.55895 0.36964 0.0
C2253 C 0.11888 0.55227 0.40577 0.0
C2254 C 0.10718 0.54874 0.30283 0.0
C2255 C 0.10769 0.5709 0.29232 0.0
C2256 C 0.10742 0.53407 0.27414 0.0
C2257 C 0.10748 0.5107 0.28039 0.0
C2258 C 0.12645 0.51049 0.29997 0.0
C2259 C 0.12606 0.48825 0.30633 0.0
C2260 C 0.10691 0.46614 0.29297 0.0
C2261 C 0.08814 0.46622 0.27313 0.0
C2262 C 0.08841 0.4884 0.26676 0.0
C2263 C 0.09443 0.58655 0.13798 0.0
C2264 C 0.10979 0.58412 0.1128 0.0
C2265 C 0.09392 0.58002 0.17398 0.0
C2266 C 0.10882 0.57059 0.18799 0.0
C2267 C 0.12395 0.56784 0.16266 0.0
C2268 C 0.12451 0.57444 0.12657 0.0
C2269 C 0.10843 0.56352 0.2279 0.0
C2270 C 0.10814 0.5415 0.23832 0.0
C2271 C 0.10825 0.57818 0.25647 0.0
C2272 C 0.1094 0.60199 0.24965 0.0
C2273 C 0.08908 0.60503 0.25749 0.0
C2274 C 0.08956 0.62705 0.24905 0.0
C2275 C 0.11047 0.64631 0.23346 0.0
C2276 C 0.1309 0.64353 0.22603 0.0
C2277 C 0.13038 0.62143 0.23397 0.0
H2278 H 0.11078 0.66333 0.227 0.0
H2279 H 0.10666 0.44896 0.29788 0.0
loop_
_geom_bond_atom_site_label_1
_geom_bond_atom_site_label_2
_geom_bond_distance
_geom_bond_site_symmetry_2
_ccdc_geom_bond_type
Tb0 C2 2.809 . S
Tb0 O20 2.484 . S
Tb0 O21 2.440 . S
Tb0 O22 2.658 . S
Tb0 O23 2.409 . S
Tb0 O24 2.378 . S
Tb0 O28 2.325 . S
Tb0 O31 2.341 . S
Tb1 C11 2.809 . S
Tb1 O22 2.325 . S
Tb1 O25 2.341 . S
Tb1 O26 2.484 . S
Tb1 O27 2.440 . S
Tb1 O28 2.658 . S
Tb1 O29 2.409 . S
Tb1 O30 2.378 . S
C2 Tb0 2.809 . S
C2 C3 1.514 . S
C2 O20 1.248 . S
C2 O21 1.266 . S
C3 C2 1.514 . S
C3 C4 1.359 . S
C3 C8 1.348 . S
C4 C3 1.359 . S
C4 C5 1.380 . S
C4 H32 0.929 . S
C5 C4 1.380 . S
C5 C6 1.347 . S
C5 H33 0.931 . S
C6 C5 1.347 . S
C6 C7 1.369 . S
C7 C6 1.369 . S
C7 C8 1.408 . S
C7 H34 0.930 . S
C8 C3 1.348 . S
C8 C7 1.408 . S
C8 H35 0.930 . S
C9 O22 1.281 . S
C9 O23 1.254 . S
C10 O24 1.236 . S
C10 O25 1.266 . S
C11 Tb1 2.809 . S
C11 C12 1.514 . S
C11 O26 1.248 . S
C11 O27 1.266 . S
C12 C11 1.514 . S
C12 C13 1.359 . S
C12 C17 1.348 . S
C13 C12 1.359 . S
C13 C14 1.380 . S
C13 H36 0.929 . S
C14 C13 1.380 . S
C14 C15 1.347 . S
C14 H37 0.931 . S
C15 C14 1.347 . S
C15 C16 1.369 . S
C16 C15 1.369 . S
C16 C17 1.408 . S
C16 H38 0.930 . S
C17 C12 1.348 . S
C17 C16 1.408 . S
C17 H39 0.930 . S
C18 O28 1.281 . S
C18 O29 1.254 . S
C19 O30 1.236 . S
C19 O31 1.266 . S
O20 Tb0 2.484 . S
O20 C2 1.248 . S
O21 Tb0 2.440 . S
O21 C2 1.266 . S
O22 Tb0 2.658 . S
O22 Tb1 2.325 . S
O22 C9 1.281 . S
O23 Tb0 2.409 . S
O23 C9 1.254 . S
O24 Tb0 2.378 . S
O24 C10 1.236 . S
O25 Tb1 2.341 . S
O25 C10 1.266 . S
O26 Tb1 2.484 . S
O26 C11 1.248 . S
O27 Tb1 2.440 . S
O27 C11 1.266 . S
O28 Tb0 2.325 . S
O28 Tb1 2.658 . S
O28 C18 1.281 . S
O29 Tb1 2.409 . S
O29 C18 1.254 . S
O30 Tb1 2.378 . S
O30 C19 1.236 . S
O31 Tb0 2.341 . S
O31 C19 1.266 . S
H32 C4 0.929 . S
H33 C5 0.931 . S
H34 C7 0.930 . S
H35 C8 0.930 . S
H36 C13 0.929 . S
H37 C14 0.931 . S
H38 C16 0.930 . S
H39 C17 0.930 . S
Tb40 C42 2.809 . S
Tb40 O60 2.484 . S
Tb40 O61 2.440 . S
Tb40 O62 2.658 . S
Tb40 O63 2.409 . S
Tb40 O64 2.378 . S
Tb40 O68 2.325 . S
Tb40 O71 2.341 . S
Tb41 C51 2.809 . S
Tb41 O62 2.325 . S
Tb41 O65 2.341 . S
Tb41 O66 2.484 . S
Tb41 O67 2.440 . S
Tb41 O68 2.658 . S
Tb41 O69 2.409 . S
Tb41 O70 2.378 . S
C42 Tb40 2.809 . S
C42 C43 1.514 . S
C42 O60 1.248 . S
C42 O61 1.266 . S
C43 C42 1.514 . S
C43 C44 1.359 . S
C43 C48 1.348 . S
C44 C43 1.359 . S
C44 C45 1.380 . S
C44 H72 0.929 . S
C45 C44 1.380 . S
C45 C46 1.347 . S
C45 H73 0.931 . S
C46 C45 1.347 . S
C46 C47 1.369 . S
C47 C46 1.369 . S
C47 C48 1.408 . S
C47 H74 0.930 . S
C48 C43 1.348 . S
C48 C47 1.408 . S
C48 H75 0.930 . S
C49 O62 1.281 . S
C49 O63 1.254 . S
C50 O64 1.236 . S
C50 O65 1.266 . S
C51 Tb41 2.809 . S
C51 C52 1.514 . S
C51 O66 1.248 . S
C51 O67 1.266 . S
C52 C51 1.514 . S
C52 C53 1.359 . S
C52 C57 1.348 . S
C53 C52 1.359 . S
C53 C54 1.380 . S
C53 H76 0.929 . S
C54 C53 1.380 . S
C54 C55 1.347 . S
C54 H77 0.931 . S
C55 C54 1.347 . S
C55 C56 1.369 . S
C56 C55 1.369 . S
C56 C57 1.408 . S
C56 H78 0.930 . S
C57 C52 1.348 . S
C57 C56 1.408 . S
C57 H79 0.930 . S
C58 O68 1.281 . S
C58 O69 1.254 . S
C59 O70 1.236 . S
C59 O71 1.266 . S
O60 Tb40 2.484 . S
O60 C42 1.248 . S
O61 Tb40 2.440 . S
O61 C42 1.266 . S
O62 Tb40 2.658 . S
O62 Tb41 2.325 . S
O62 C49 1.281 . S
O63 Tb40 2.409 . S
O63 C49 1.254 . S
O64 Tb40 2.378 . S
O64 C50 1.236 . S
O65 Tb41 2.341 . S
O65 C50 1.266 . S
O66 Tb41 2.484 . S
O66 C51 1.248 . S
O67 Tb41 2.440 . S
O67 C51 1.266 . S
O68 Tb40 2.325 . S
O68 Tb41 2.658 . S
O68 C58 1.281 . S
O69 Tb41 2.409 . S
O69 C58 1.254 . S
O70 Tb41 2.378 . S
O70 C59 1.236 . S
O71 Tb40 2.341 . S
O71 C59 1.266 . S
H72 C44 0.929 . S
H73 C45 0.931 . S
H74 C47 0.930 . S
H75 C48 0.930 . S
H76 C53 0.929 . S
H77 C54 0.931 . S
H78 C56 0.930 . S
H79 C57 0.930 . S
Tb80 C82 2.809 . S
Tb80 O100 2.484 . S
Tb80 O101 2.440 . S
Tb80 O102 2.658 . S
Tb80 O103 2.409 . S
Tb80 O104 2.378 . S
Tb80 O108 2.325 . S
Tb80 O111 2.341 . S
Tb81 C91 2.809 . S
Tb81 O102 2.325 . S
Tb81 O105 2.341 . S
Tb81 O106 2.484 . S
Tb81 O107 2.440 . S
Tb81 O108 2.658 . S
Tb81 O109 2.409 . S
Tb81 O110 2.378 . S
C82 Tb80 2.809 . S
C82 C83 1.514 1_556 S
C82 O100 1.248 . S
C82 O101 1.266 . S
C83 C82 1.514 1_554 S
C83 C84 1.359 . S
C83 C88 1.348 . S
C84 C83 1.359 . S
C84 C85 1.380 . S
C84 H112 0.929 . S
C85 C84 1.380 . S
C85 C86 1.347 . S
C85 H113 0.931 . S
C86 C85 1.347 . S
C86 C87 1.369 . S
C87 C86 1.369 . S
C87 C88 1.408 . S
C87 H114 0.930 . S
C88 C83 1.348 . S
C88 C87 1.408 . S
C88 H115 0.930 . S
C89 O102 1.281 . S
C89 O103 1.254 . S
C90 O104 1.236 . S
C90 O105 1.266 . S
C91 Tb81 2.809 . S
C91 C92 1.514 . S
C91 O106 1.248 . S
C91 O107 1.266 . S
C92 C91 1.514 . S
C92 C93 1.359 . S
C92 C97 1.348 . S
C93 C92 1.359 . S
C93 C94 1.380 . S
C93 H116 0.929 . S
C94 C93 1.380 . S
C94 C95 1.347 . S
C94 H117 0.931 . S
C95 C94 1.347 . S
C95 C96 1.369 . S
C96 C95 1.369 . S
C96 C97 1.408 . S
C96 H118 0.930 . S
C97 C92 1.348 . S
C97 C96 1.408 . S
C97 H119 0.930 . S
C98 O108 1.281 . S
C98 O109 1.254 . S
C99 O110 1.236 . S
C99 O111 1.266 . S
O100 Tb80 2.484 . S
O100 C82 1.248 . S
O101 Tb80 2.440 . S
O101 C82 1.266 . S
O102 Tb80 2.658 . S
O102 Tb81 2.325 . S
O102 C89 1.281 . S
O103 Tb80 2.409 . S
O103 C89 1.254 . S
O104 Tb80 2.378 . S
O104 C90 1.236 . S
O105 Tb81 2.341 . S
O105 C90 1.266 . S
O106 Tb81 2.484 . S
O106 C91 1.248 . S
O107 Tb81 2.440 . S
O107 C91 1.266 . S
O108 Tb80 2.325 . S
O108 Tb81 2.658 . S
O108 C98 1.281 . S
O109 Tb81 2.409 . S
O109 C98 1.254 . S
O110 Tb81 2.378 . S
O110 C99 1.236 . S
O111 Tb80 2.341 . S
O111 C99 1.266 . S
H112 C84 0.929 . S
H113 C85 0.931 . S
H114 C87 0.930 . S
H115 C88 0.930 . S
H116 C93 0.929 . S
H117 C94 0.931 . S
H118 C96 0.930 . S
H119 C97 0.930 . S
Tb120 C122 2.809 . S
Tb120 O140 2.484 . S
Tb120 O141 2.440 . S
Tb120 O142 2.658 . S
Tb120 O143 2.409 . S
Tb120 O144 2.378 . S
Tb120 O148 2.325 . S
Tb120 O151 2.341 . S
Tb121 C131 2.809 . S
Tb121 O142 2.325 . S
Tb121 O145 2.341 . S
Tb121 O146 2.484 . S
Tb121 O147 2.440 . S
Tb121 O148 2.658 . S
Tb121 O149 2.409 . S
Tb121 O150 2.378 . S
C122 Tb120 2.809 . S
C122 C123 1.514 . S
C122 O140 1.248 . S
C122 O141 1.266 . S
C123 C122 1.514 . S
C123 C124 1.359 . S
C123 C128 1.348 . S
C124 C123 1.359 . S
C124 C125 1.380 . S
C124 H152 0.929 . S
C125 C124 1.380 . S
C125 C126 1.347 . S
C125 H153 0.931 . S
C126 C125 1.347 . S
C126 C127 1.369 . S
C127 C126 1.369 . S
C127 C128 1.408 . S
C127 H154 0.930 . S
C128 C123 1.348 . S
C128 C127 1.408 . S
C128 H155 0.930 . S
C129 O142 1.281 . S
C129 O143 1.254 . S
C130 O144 1.236 . S
C130 O145 1.266 . S
C131 Tb121 2.809 . S
C131 C132 1.514 . S
C131 O146 1.248 . S
C131 O147 1.266 . S
C132 C131 1.514 . S
C132 C133 1.359 . S
C132 C137 1.348 . S
C133 C132 1.359 . S
C133 C134 1.380 . S
C133 H156 0.929 . S
C134 C133 1.380 . S
C134 C135 1.347 . S
C134 H157 0.931 . S
C135 C134 1.347 . S
C135 C136 1.369 . S
C136 C135 1.369 . S
C136 C137 1.408 . S
C136 H158 0.930 . S
C137 C132 1.348 . S
C137 C136 1.408 . S
C137 H159 0.930 . S
C138 O148 1.281 . S
C138 O149 1.254 . S
C139 O150 1.236 . S
C139 O151 1.266 . S
O140 Tb120 2.484 . S
O140 C122 1.248 . S
O141 Tb120 2.440 . S
O141 C122 1.266 . S
O142 Tb120 2.658 . S
O142 Tb121 2.325 . S
O142 C129 1.281 . S
O143 Tb120 2.409 . S
O143 C129 1.254 . S
O144 Tb120 2.378 . S
O144 C130 1.236 . S
O145 Tb121 2.341 . S
O145 C130 1.266 . S
O146 Tb121 2.484 . S
O146 C131 1.248 . S
O147 Tb121 2.440 . S
O147 C131 1.266 . S
O148 Tb120 2.325 . S
O148 Tb121 2.658 . S
O148 C138 1.281 . S
O149 Tb121 2.409 . S
O149 C138 1.254 . S
O150 Tb121 2.378 . S
O150 C139 1.236 . S
O151 Tb120 2.341 . S
O151 C139 1.266 . S
H152 C124 0.929 . S
H153 C125 0.931 . S
H154 C127 0.930 . S
H155 C128 0.930 . S
H156 C133 0.929 . S
H157 C134 0.931 . S
H158 C136 0.930 . S
H159 C137 0.930 . S
Tb160 C162 2.809 . S
Tb160 O180 2.484 . S
Tb160 O181 2.440 . S
Tb160 O182 2.658 . S
Tb160 O183 2.409 . S
Tb160 O184 2.378 . S
Tb160 O188 2.325 . S
Tb160 O191 2.341 . S
Tb161 C171 2.809 . S
Tb161 O182 2.325 . S
Tb161 O185 2.341 . S
Tb161 O186 2.484 . S
Tb161 O187 2.440 . S
Tb161 O188 2.658 . S
Tb161 O189 2.409 . S
Tb161 O190 2.378 . S
C162 Tb160 2.809 . S
C162 C163 1.514 . S
C162 O180 1.248 . S
C162 O181 1.266 . S
C163 C162 1.514 . S
C163 C164 1.359 . S
C163 C168 1.348 . S
C164 C163 1.359 . S
C164 C165 1.380 . S
C164 H192 0.929 . S
C165 C164 1.380 . S
C165 C166 1.347 . S
C165 H193 0.931 . S
C166 C165 1.347 . S
C166 C167 1.369 . S
C167 C166 1.369 . S
C167 C168 1.408 . S
C167 H194 0.930 . S
C168 C163 1.348 . S
C168 C167 1.408 . S
C168 H195 0.930 . S
C169 O182 1.281 . S
C169 O183 1.254 . S
C170 O184 1.236 . S
C170 O185 1.266 . S
C171 Tb161 2.809 . S
C171 C172 1.514 . S
C171 O186 1.248 . S
C171 O187 1.266 . S
C172 C171 1.514 . S
C172 C173 1.359 . S
C172 C177 1.348 . S
C173 C172 1.359 . S
C173 C174 1.380 . S
C173 H196 0.929 . S
C174 C173 1.380 . S
C174 C175 1.347 . S
C174 H197 0.931 . S
C175 C174 1.347 . S
C175 C176 1.369 . S
C176 C175 1.369 . S
C176 C177 1.408 . S
C176 H198 0.930 . S
C177 C172 1.348 . S
C177 C176 1.408 . S
C177 H199 0.930 . S
C178 O188 1.281 . S
C178 O189 1.254 . S
C179 O190 1.236 . S
C179 O191 1.266 . S
O180 Tb160 2.484 . S
O180 C162 1.248 . S
O181 Tb160 2.440 . S
O181 C162 1.266 . S
O182 Tb160 2.658 . S
O182 Tb161 2.325 . S
O182 C169 1.281 . S
O183 Tb160 2.409 . S
O183 C169 1.254 . S
O184 Tb160 2.378 . S
O184 C170 1.236 . S
O185 Tb161 2.341 . S
O185 C170 1.266 . S
O186 Tb161 2.484 . S
O186 C171 1.248 . S
O187 Tb161 2.440 . S
O187 C171 1.266 . S
O188 Tb160 2.325 . S
O188 Tb161 2.658 . S
O188 C178 1.281 . S
O189 Tb161 2.409 . S
O189 C178 1.254 . S
O190 Tb161 2.378 . S
O190 C179 1.236 . S
O191 Tb160 2.341 . S
O191 C179 1.266 . S
H192 C164 0.929 . S
H193 C165 0.931 . S
H194 C167 0.930 . S
H195 C168 0.930 . S
H196 C173 0.929 . S
H197 C174 0.931 . S
H198 C176 0.930 . S
H199 C177 0.930 . S
Tb200 C202 2.809 . S
Tb200 O220 2.484 . S
Tb200 O221 2.440 . S
Tb200 O222 2.658 . S
Tb200 O223 2.409 . S
Tb200 O224 2.378 . S
Tb200 O228 2.325 . S
Tb200 O231 2.341 . S
Tb201 C211 2.809 . S
Tb201 O222 2.325 . S
Tb201 O225 2.341 . S
Tb201 O226 2.484 . S
Tb201 O227 2.440 . S
Tb201 O228 2.658 . S
Tb201 O229 2.409 . S
Tb201 O230 2.378 . S
C202 Tb200 2.809 . S
C202 C203 1.514 1_556 S
C202 O220 1.248 . S
C202 O221 1.266 . S
C203 C202 1.514 1_554 S
C203 C204 1.359 . S
C203 C208 1.348 . S
C204 C203 1.359 . S
C204 C205 1.380 . S
C204 H232 0.929 . S
C205 C204 1.380 . S
C205 C206 1.347 . S
C205 H233 0.931 . S
C206 C205 1.347 . S
C206 C207 1.369 . S
C207 C206 1.369 . S
C207 C208 1.408 . S
C207 H234 0.930 . S
C208 C203 1.348 . S
C208 C207 1.408 . S
C208 H235 0.930 . S
C209 O222 1.281 . S
C209 O223 1.254 . S
C210 O224 1.236 . S
C210 O225 1.266 . S
C211 Tb201 2.809 . S
C211 C212 1.514 . S
C211 O226 1.248 . S
C211 O227 1.266 . S
C212 C211 1.514 . S
C212 C213 1.359 . S
C212 C217 1.348 . S
C213 C212 1.359 . S
C213 C214 1.380 . S
C213 H236 0.929 . S
C214 C213 1.380 . S
C214 C215 1.347 . S
C214 H237 0.931 . S
C215 C214 1.347 . S
C215 C216 1.369 . S
C216 C215 1.369 . S
C216 C217 1.408 . S
C216 H238 0.930 . S
C217 C212 1.348 . S
C217 C216 1.408 . S
C217 H239 0.930 . S
C218 O228 1.281 . S
C218 O229 1.254 . S
C219 O230 1.236 . S
C219 O231 1.266 . S
O220 Tb200 2.484 . S
O220 C202 1.248 . S
O221 Tb200 2.440 . S
O221 C202 1.266 . S
O222 Tb200 2.658 . S
O222 Tb201 2.325 . S
O222 C209 1.281 . S
O223 Tb200 2.409 . S
O223 C209 1.254 . S
O224 Tb200 2.378 . S
O224 C210 1.236 . S
O225 Tb201 2.341 . S
O225 C210 1.266 . S
O226 Tb201 2.484 . S
O226 C211 1.248 . S
O227 Tb201 2.440 . S
O227 C211 1.266 . S
O228 Tb200 2.325 . S
O228 Tb201 2.658 . S
O228 C218 1.281 . S
O229 Tb201 2.409 . S
O229 C218 1.254 . S
O230 Tb201 2.378 . S
O230 C219 1.236 . S
O231 Tb200 2.341 . S
O231 C219 1.266 . S
H232 C204 0.929 . S
H233 C205 0.931 . S
H234 C207 0.930 . S
H235 C208 0.930 . S
H236 C213 0.929 . S
H237 C214 0.931 . S
H238 C216 0.930 . S
H239 C217 0.930 . S
Tb240 C242 2.809 . S
Tb240 O260 2.484 . S
Tb240 O261 2.440 . S
Tb240 O262 2.658 . S
Tb240 O263 2.409 . S
Tb240 O264 2.378 . S
Tb240 O268 2.325 . S
Tb240 O271 2.341 . S
Tb241 C251 2.809 . S
Tb241 O262 2.325 . S
Tb241 O265 2.341 . S
Tb241 O266 2.484 . S
Tb241 O267 2.440 . S
Tb241 O268 2.658 . S
Tb241 O269 2.409 . S
Tb241 O270 2.378 . S
C242 Tb240 2.809 . S
C242 C243 1.514 . S
C242 O260 1.248 . S
C242 O261 1.266 . S
C243 C242 1.514 . S
C243 C244 1.359 . S
C243 C248 1.348 . S
C244 C243 1.359 . S
C244 C245 1.380 . S
C244 H272 0.929 . S
C245 C244 1.380 . S
C245 C246 1.347 . S
C245 H273 0.931 . S
C246 C245 1.347 . S
C246 C247 1.369 . S
C247 C246 1.369 . S
C247 C248 1.408 . S
C247 H274 0.930 . S
C248 C243 1.348 . S
C248 C247 1.408 . S
C248 H275 0.930 . S
C249 O262 1.281 . S
C249 O263 1.254 . S
C250 O264 1.236 . S
C250 O265 1.266 . S
C251 Tb241 2.809 . S
C251 C252 1.514 . S
C251 O266 1.248 . S
C251 O267 1.266 . S
C252 C251 1.514 . S
C252 C253 1.359 . S
C252 C257 1.348 . S
C253 C252 1.359 . S
C253 C254 1.380 . S
C253 H276 0.929 . S
C254 C253 1.380 . S
C254 C255 1.347 . S
C254 H277 0.931 . S
C255 C254 1.347 . S
C255 C256 1.369 . S
C256 C255 1.369 . S
C256 C257 1.408 . S
C256 H278 0.930 . S
C257 C252 1.348 . S
C257 C256 1.408 . S
C257 H279 0.930 . S
C258 O268 1.281 . S
C258 O269 1.254 . S
C259 O270 1.236 . S
C259 O271 1.266 . S
O260 Tb240 2.484 . S
O260 C242 1.248 . S
O261 Tb240 2.440 . S
O261 C242 1.266 . S
O262 Tb240 2.658 . S
O262 Tb241 2.325 . S
O262 C249 1.281 . S
O263 Tb240 2.409 . S
O263 C249 1.254 . S
O264 Tb240 2.378 . S
O264 C250 1.236 . S
O265 Tb241 2.341 . S
O265 C250 1.266 . S
O266 Tb241 2.484 . S
O266 C251 1.248 . S
O267 Tb241 2.440 . S
O267 C251 1.266 . S
O268 Tb240 2.325 . S
O268 Tb241 2.658 . S
O268 C258 1.281 . S
O269 Tb241 2.409 . S
O269 C258 1.254 . S
O270 Tb241 2.378 . S
O270 C259 1.236 . S
O271 Tb240 2.341 . S
O271 C259 1.266 . S
H272 C244 0.929 . S
H273 C245 0.931 . S
H274 C247 0.930 . S
H275 C248 0.930 . S
H276 C253 0.929 . S
H277 C254 0.931 . S
H278 C256 0.930 . S
H279 C257 0.930 . S
Tb280 C282 2.809 . S
Tb280 O300 2.484 . S
Tb280 O301 2.440 . S
Tb280 O302 2.658 . S
Tb280 O303 2.409 . S
Tb280 O304 2.378 . S
Tb280 O308 2.325 . S
Tb280 O311 2.341 . S
Tb281 C291 2.809 . S
Tb281 O302 2.325 . S
Tb281 O305 2.341 . S
Tb281 O306 2.484 . S
Tb281 O307 2.440 . S
Tb281 O308 2.658 . S
Tb281 O309 2.409 . S
Tb281 O310 2.378 . S
C282 Tb280 2.809 . S
C282 C283 1.514 . S
C282 O300 1.248 . S
C282 O301 1.266 . S
C283 C282 1.514 . S
C283 C284 1.359 . S
C283 C288 1.348 . S
C284 C283 1.359 . S
C284 C285 1.380 . S
C284 H312 0.929 . S
C285 C284 1.380 . S
C285 C286 1.347 . S
C285 H313 0.931 . S
C286 C285 1.347 . S
C286 C287 1.369 . S
C287 C286 1.369 . S
C287 C288 1.408 . S
C287 H314 0.930 . S
C288 C283 1.348 . S
C288 C287 1.408 . S
C288 H315 0.930 . S
C289 O302 1.281 . S
C289 O303 1.254 . S
C290 O304 1.236 . S
C290 O305 1.266 . S
C291 Tb281 2.809 . S
C291 C292 1.514 . S
C291 O306 1.248 . S
C291 O307 1.266 . S
C292 C291 1.514 . S
C292 C293 1.359 . S
C292 C297 1.348 . S
C293 C292 1.359 . S
C293 C294 1.380 . S
C293 H316 0.929 . S
C294 C293 1.380 . S
C294 C295 1.347 . S
C294 H317 0.931 . S
C295 C294 1.347 . S
C295 C296 1.369 . S
C296 C295 1.369 . S
C296 C297 1.408 . S
C296 H318 0.930 . S
C297 C292 1.348 . S
C297 C296 1.408 . S
C297 H319 0.930 . S
C298 O308 1.281 . S
C298 O309 1.254 . S
C299 O310 1.236 . S
C299 O311 1.266 . S
O300 Tb280 2.484 . S
O300 C282 1.248 . S
O301 Tb280 2.440 . S
O301 C282 1.266 . S
O302 Tb280 2.658 . S
O302 Tb281 2.325 . S
O302 C289 1.281 . S
O303 Tb280 2.409 . S
O303 C289 1.254 . S
O304 Tb280 2.378 . S
O304 C290 1.236 . S
O305 Tb281 2.341 . S
O305 C290 1.266 . S
O306 Tb281 2.484 . S
O306 C291 1.248 . S
O307 Tb281 2.440 . S
O307 C291 1.266 . S
O308 Tb280 2.325 . S
O308 Tb281 2.658 . S
O308 C298 1.281 . S
O309 Tb281 2.409 . S
O309 C298 1.254 . S
O310 Tb281 2.378 . S
O310 C299 1.236 . S
O311 Tb280 2.341 . S
O311 C299 1.266 . S
H312 C284 0.929 . S
H313 C285 0.931 . S
H314 C287 0.930 . S
H315 C288 0.930 . S
H316 C293 0.929 . S
H317 C294 0.931 . S
H318 C296 0.930 . S
H319 C297 0.930 . S
Tb320 C322 2.809 . S
Tb320 O340 2.484 . S
Tb320 O341 2.440 . S
Tb320 O342 2.658 . S
Tb320 O343 2.409 . S
Tb320 O344 2.378 . S
Tb320 O348 2.325 . S
Tb320 O351 2.341 . S
Tb321 C331 2.809 . S
Tb321 O342 2.325 . S
Tb321 O345 2.341 . S
Tb321 O346 2.484 . S
Tb321 O347 2.440 . S
Tb321 O348 2.658 . S
Tb321 O349 2.409 . S
Tb321 O350 2.378 . S
C322 Tb320 2.809 . S
C322 C323 1.514 1_554 S
C322 O340 1.248 . S
C322 O341 1.266 . S
C323 C322 1.514 1_556 S
C323 C324 1.359 . S
C323 C328 1.348 . S
C324 C323 1.359 . S
C324 C325 1.380 . S
C324 H352 0.929 . S
C325 C324 1.380 . S
C325 C326 1.347 . S
C325 H353 0.931 . S
C326 C325 1.347 . S
C326 C327 1.369 . S
C327 C326 1.369 . S
C327 C328 1.408 . S
C327 H354 0.930 . S
C328 C323 1.348 . S
C328 C327 1.408 . S
C328 H355 0.930 . S
C329 O342 1.281 . S
C329 O343 1.254 . S
C330 O344 1.236 . S
C330 O345 1.266 . S
C331 Tb321 2.809 . S
C331 C332 1.514 . S
C331 O346 1.248 . S
C331 O347 1.266 . S
C332 C331 1.514 . S
C332 C333 1.359 . S
C332 C337 1.348 . S
C333 C332 1.359 . S
C333 C334 1.380 . S
C333 H356 0.929 . S
C334 C333 1.380 . S
C334 C335 1.347 . S
C334 H357 0.931 . S
C335 C334 1.347 . S
C335 C336 1.369 . S
C336 C335 1.369 . S
C336 C337 1.408 . S
C336 H358 0.930 . S
C337 C332 1.348 . S
C337 C336 1.408 . S
C337 H359 0.930 . S
C338 O348 1.281 . S
C338 O349 1.254 . S
C339 O350 1.236 . S
C339 O351 1.266 . S
O340 Tb320 2.484 . S
O340 C322 1.248 . S
O341 Tb320 2.440 . S
O341 C322 1.266 . S
O342 Tb320 2.658 . S
O342 Tb321 2.325 . S
O342 C329 1.281 . S
O343 Tb320 2.409 . S
O343 C329 1.254 . S
O344 Tb320 2.378 . S
O344 C330 1.236 . S
O345 Tb321 2.341 . S
O345 C330 1.266 . S
O346 Tb321 2.484 . S
O346 C331 1.248 . S
O347 Tb321 2.440 . S
O347 C331 1.266 . S
O348 Tb320 2.325 . S
O348 Tb321 2.658 . S
O348 C338 1.281 . S
O349 Tb321 2.409 . S
O349 C338 1.254 . S
O350 Tb321 2.378 . S
O350 C339 1.236 . S
O351 Tb320 2.341 . S
O351 C339 1.266 . S
H352 C324 0.929 . S
H353 C325 0.931 . S
H354 C327 0.930 . S
H355 C328 0.930 . S
H356 C333 0.929 . S
H357 C334 0.931 . S
H358 C336 0.930 . S
H359 C337 0.930 . S
Tb360 C362 2.809 . S
Tb360 O380 2.484 . S
Tb360 O381 2.440 . S
Tb360 O382 2.658 . S
Tb360 O383 2.409 . S
Tb360 O384 2.378 . S
Tb360 O388 2.325 . S
Tb360 O391 2.341 . S
Tb361 C371 2.809 . S
Tb361 O382 2.325 . S
Tb361 O385 2.341 . S
Tb361 O386 2.484 . S
Tb361 O387 2.440 . S
Tb361 O388 2.658 . S
Tb361 O389 2.409 . S
Tb361 O390 2.378 . S
C362 Tb360 2.809 . S
C362 C363 1.514 . S
C362 O380 1.248 . S
C362 O381 1.266 . S
C363 C362 1.514 . S
C363 C364 1.359 . S
C363 C368 1.348 . S
C364 C363 1.359 . S
C364 C365 1.380 . S
C364 H392 0.929 . S
C365 C364 1.380 . S
C365 C366 1.347 . S
C365 H393 0.931 . S
C366 C365 1.347 . S
C366 C367 1.369 . S
C367 C366 1.369 . S
C367 C368 1.408 . S
C367 H394 0.930 . S
C368 C363 1.348 . S
C368 C367 1.408 . S
C368 H395 0.930 . S
C369 O382 1.281 . S
C369 O383 1.254 . S
C370 O384 1.236 . S
C370 O385 1.266 . S
C371 Tb361 2.809 . S
C371 C372 1.514 . S
C371 O386 1.248 . S
C371 O387 1.266 . S
C372 C371 1.514 . S
C372 C373 1.359 . S
C372 C377 1.348 . S
C373 C372 1.359 . S
C373 C374 1.380 . S
C373 H396 0.929 . S
C374 C373 1.380 . S
C374 C375 1.347 . S
C374 H397 0.931 . S
C375 C374 1.347 . S
C375 C376 1.369 . S
C376 C375 1.369 . S
C376 C377 1.408 . S
C376 H398 0.930 . S
C377 C372 1.348 . S
C377 C376 1.408 . S
C377 H399 0.930 . S
C378 O388 1.281 . S
C378 O389 1.254 . S
C379 O390 1.236 . S
C379 O391 1.266 . S
O380 Tb360 2.484 . S
O380 C362 1.248 . S
O381 Tb360 2.440 . S
O381 C362 1.266 . S
O382 Tb360 2.658 . S
O382 Tb361 2.325 . S
O382 C369 1.281 . S
O383 Tb360 2.409 . S
O383 C369 1.254 . S
O384 Tb360 2.378 . S
O384 C370 1.236 . S
O385 Tb361 2.341 . S
O385 C370 1.266 . S
O386 Tb361 2.484 . S
O386 C371 1.248 . S
O387 Tb361 2.440 . S
O387 C371 1.266 . S
O388 Tb360 2.325 . S
O388 Tb361 2.658 . S
O388 C378 1.281 . S
O389 Tb361 2.409 . S
O389 C378 1.254 . S
O390 Tb361 2.378 . S
O390 C379 1.236 . S
O391 Tb360 2.341 . S
O391 C379 1.266 . S
H392 C364 0.929 . S
H393 C365 0.931 . S
H394 C367 0.930 . S
H395 C368 0.930 . S
H396 C373 0.929 . S
H397 C374 0.931 . S
H398 C376 0.930 . S
H399 C377 0.930 . S
Tb400 C402 2.809 . S
Tb400 O420 2.484 . S
Tb400 O421 2.440 . S
Tb400 O422 2.658 . S
Tb400 O423 2.409 . S
Tb400 O424 2.378 . S
Tb400 O428 2.325 . S
Tb400 O431 2.341 . S
Tb401 C411 2.809 . S
Tb401 O422 2.325 . S
Tb401 O425 2.341 . S
Tb401 O426 2.484 . S
Tb401 O427 2.440 . S
Tb401 O428 2.658 . S
Tb401 O429 2.409 . S
Tb401 O430 2.378 . S
C402 Tb400 2.809 . S
C402 C403 1.514 . S
C402 O420 1.248 . S
C402 O421 1.266 . S
C403 C402 1.514 . S
C403 C404 1.359 . S
C403 C408 1.348 . S
C404 C403 1.359 . S
C404 C405 1.380 . S
C404 H432 0.929 . S
C405 C404 1.380 . S
C405 C406 1.347 . S
C405 H433 0.931 . S
C406 C405 1.347 . S
C406 C407 1.369 . S
C407 C406 1.369 . S
C407 C408 1.408 . S
C407 H434 0.930 . S
C408 C403 1.348 . S
C408 C407 1.408 . S
C408 H435 0.930 . S
C409 O422 1.281 . S
C409 O423 1.254 . S
C410 O424 1.236 . S
C410 O425 1.266 . S
C411 Tb401 2.809 . S
C411 C412 1.514 . S
C411 O426 1.248 . S
C411 O427 1.266 . S
C412 C411 1.514 . S
C412 C413 1.359 . S
C412 C417 1.348 . S
C413 C412 1.359 . S
C413 C414 1.380 . S
C413 H436 0.929 . S
C414 C413 1.380 . S
C414 C415 1.347 . S
C414 H437 0.931 . S
C415 C414 1.347 . S
C415 C416 1.369 . S
C416 C415 1.369 . S
C416 C417 1.408 . S
C416 H438 0.930 . S
C417 C412 1.348 . S
C417 C416 1.408 . S
C417 H439 0.930 . S
C418 O428 1.281 . S
C418 O429 1.254 . S
C419 O430 1.236 . S
C419 O431 1.266 . S
O420 Tb400 2.484 . S
O420 C402 1.248 . S
O421 Tb400 2.440 . S
O421 C402 1.266 . S
O422 Tb400 2.658 . S
O422 Tb401 2.325 . S
O422 C409 1.281 . S
O423 Tb400 2.409 . S
O423 C409 1.254 . S
O424 Tb400 2.378 . S
O424 C410 1.236 . S
O425 Tb401 2.341 . S
O425 C410 1.266 . S
O426 Tb401 2.484 . S
O426 C411 1.248 . S
O427 Tb401 2.440 . S
O427 C411 1.266 . S
O428 Tb400 2.325 . S
O428 Tb401 2.658 . S
O428 C418 1.281 . S
O429 Tb401 2.409 . S
O429 C418 1.254 . S
O430 Tb401 2.378 . S
O430 C419 1.236 . S
O431 Tb400 2.341 . S
O431 C419 1.266 . S
H432 C404 0.929 . S
H433 C405 0.931 . S
H434 C407 0.930 . S
H435 C408 0.930 . S
H436 C413 0.929 . S
H437 C414 0.931 . S
H438 C416 0.930 . S
H439 C417 0.930 . S
Tb440 C442 2.809 . S
Tb440 O460 2.484 . S
Tb440 O461 2.440 . S
Tb440 O462 2.658 . S
Tb440 O463 2.409 . S
Tb440 O464 2.378 . S
Tb440 O468 2.325 . S
Tb440 O471 2.341 . S
Tb441 C451 2.809 . S
Tb441 O462 2.325 . S
Tb441 O465 2.341 . S
Tb441 O466 2.484 . S
Tb441 O467 2.440 . S
Tb441 O468 2.658 . S
Tb441 O469 2.409 . S
Tb441 O470 2.378 . S
C442 Tb440 2.809 . S
C442 C443 1.514 1_554 S
C442 O460 1.248 . S
C442 O461 1.266 . S
C443 C442 1.514 1_556 S
C443 C444 1.359 . S
C443 C448 1.348 . S
C444 C443 1.359 . S
C444 C445 1.380 . S
C444 H472 0.929 . S
C445 C444 1.380 . S
C445 C446 1.347 . S
C445 H473 0.931 . S
C446 C445 1.347 . S
C446 C447 1.369 . S
C447 C446 1.369 . S
C447 C448 1.408 . S
C447 H474 0.930 . S
C448 C443 1.348 . S
C448 C447 1.408 . S
C448 H475 0.930 . S
C449 O462 1.281 . S
C449 O463 1.254 . S
C450 O464 1.236 . S
C450 O465 1.266 . S
C451 Tb441 2.809 . S
C451 C452 1.514 . S
C451 O466 1.248 . S
C451 O467 1.266 . S
C452 C451 1.514 . S
C452 C453 1.359 . S
C452 C457 1.348 . S
C453 C452 1.359 . S
C453 C454 1.380 . S
C453 H476 0.929 . S
C454 C453 1.380 . S
C454 C455 1.347 . S
C454 H477 0.931 . S
C455 C454 1.347 . S
C455 C456 1.369 . S
C456 C455 1.369 . S
C456 C457 1.408 . S
C456 H478 0.930 . S
C457 C452 1.348 . S
C457 C456 1.408 . S
C457 H479 0.930 . S
C458 O468 1.281 . S
C458 O469 1.254 . S
C459 O470 1.236 . S
C459 O471 1.266 . S
O460 Tb440 2.484 . S
O460 C442 1.248 . S
O461 Tb440 2.440 . S
O461 C442 1.266 . S
O462 Tb440 2.658 . S
O462 Tb441 2.325 . S
O462 C449 1.281 . S
O463 Tb440 2.409 . S
O463 C449 1.254 . S
O464 Tb440 2.378 . S
O464 C450 1.236 . S
O465 Tb441 2.341 . S
O465 C450 1.266 . S
O466 Tb441 2.484 . S
O466 C451 1.248 . S
O467 Tb441 2.440 . S
O467 C451 1.266 . S
O468 Tb440 2.325 . S
O468 Tb441 2.658 . S
O468 C458 1.281 . S
O469 Tb441 2.409 . S
O469 C458 1.254 . S
O470 Tb441 2.378 . S
O470 C459 1.236 . S
O471 Tb440 2.341 . S
O471 C459 1.266 . S
H472 C444 0.929 . S
H473 C445 0.931 . S
H474 C447 0.930 . S
H475 C448 0.930 . S
H476 C453 0.929 . S
H477 C454 0.931 . S
H478 C456 0.930 . S
H479 C457 0.930 . S
H480 C498 0.951 . S
H481 C500 0.951 . S
H482 C502 0.950 . S
H483 C503 0.950 . S
H484 C505 0.950 . S
H485 C508 0.950 . S
H486 C509 0.950 . S
H487 C511 0.950 . S
H488 C512 0.950 . S
H489 C513 0.951 . S
H490 C515 0.951 . S
H491 C517 0.950 . S
H492 C518 0.950 . S
H493 C520 0.950 . S
H494 C523 0.950 . S
H495 C524 0.950 . S
H496 C526 0.950 . S
H497 C527 0.950 . S
C498 H480 0.951 . S
C498 C499 1.366 . S
C498 C500 1.388 . S
C499 C498 1.366 . S
C499 C503 1.385 . S
C500 H481 0.951 . S
C500 C498 1.388 . S
C500 C501 1.366 . S
C501 C500 1.366 . S
C501 C502 1.414 . S
C501 C504 1.499 . S
C502 H482 0.950 . S
C502 C501 1.414 . S
C502 C503 1.374 . S
C503 H483 0.950 . S
C503 C499 1.385 . S
C503 C502 1.374 . S
C504 C501 1.499 . S
C504 C505 1.373 . S
C504 C506 1.389 . S
C505 H484 0.950 . S
C505 C504 1.373 . S
C505 C521 1.377 . S
C506 C504 1.389 . S
C506 C507 1.524 . S
C506 C520 1.377 . S
C507 C506 1.524 . S
C507 C508 1.397 . S
C507 C512 1.363 . S
C508 H485 0.950 . S
C508 C507 1.397 . S
C508 C509 1.334 . S
C509 H486 0.950 . S
C509 C508 1.334 . S
C509 C510 1.287 . S
C510 C509 1.287 . S
C510 C511 1.524 . S
C510 H529 0.913 . S
C511 H487 0.950 . S
C511 C510 1.524 . S
C511 C512 1.415 . S
C512 H488 0.950 . S
C512 C507 1.363 . S
C512 C511 1.415 . S
C513 H489 0.951 . S
C513 C514 1.366 . S
C513 C515 1.388 . S
C514 C513 1.366 . S
C514 C518 1.385 . S
C515 H490 0.951 . S
C515 C513 1.388 . S
C515 C516 1.366 . S
C516 C515 1.366 . S
C516 C517 1.414 . S
C516 C519 1.499 . S
C517 H491 0.950 . S
C517 C516 1.414 . S
C517 C518 1.374 . S
C518 H492 0.950 . S
C518 C514 1.385 . S
C518 C517 1.374 . S
C519 C516 1.499 . S
C519 C520 1.373 . S
C519 C521 1.389 . S
C520 H493 0.950 . S
C520 C506 1.377 . S
C520 C519 1.373 . S
C521 C505 1.377 . S
C521 C519 1.389 . S
C521 C522 1.524 . S
C522 C521 1.524 . S
C522 C523 1.397 . S
C522 C527 1.363 . S
C523 H494 0.950 . S
C523 C522 1.397 . S
C523 C524 1.334 . S
C524 H495 0.950 . S
C524 C523 1.334 . S
C524 C525 1.287 . S
C525 C524 1.287 . S
C525 C526 1.524 . S
C525 H528 0.999 . S
C526 H496 0.950 . S
C526 C525 1.524 . S
C526 C527 1.415 . S
C527 H497 0.950 . S
C527 C522 1.363 . S
C527 C526 1.415 . S
H528 C525 0.999 . S
H529 C510 0.913 . S
H530 C548 0.951 . S
H531 C550 0.951 . S
H532 C552 0.950 . S
H533 C553 0.950 . S
H534 C555 0.950 . S
H535 C558 0.950 . S
H536 C559 0.950 . S
H537 C561 0.950 . S
H538 C562 0.950 . S
H539 C563 0.951 . S
H540 C565 0.951 . S
H541 C567 0.950 . S
H542 C568 0.950 . S
H543 C570 0.950 . S
H544 C573 0.950 . S
H545 C574 0.950 . S
H546 C576 0.950 . S
H547 C577 0.950 . S
C548 H530 0.951 . S
C548 C549 1.366 . S
C548 C550 1.388 . S
C549 C548 1.366 . S
C549 C553 1.385 . S
C550 H531 0.951 . S
C550 C548 1.388 . S
C550 C551 1.366 . S
C551 C550 1.366 . S
C551 C552 1.414 . S
C551 C554 1.499 . S
C552 H532 0.950 . S
C552 C551 1.414 . S
C552 C553 1.374 . S
C553 H533 0.950 . S
C553 C549 1.385 . S
C553 C552 1.374 . S
C554 C551 1.499 . S
C554 C555 1.373 . S
C554 C556 1.389 . S
C555 H534 0.950 . S
C555 C554 1.373 . S
C555 C571 1.377 . S
C556 C554 1.389 . S
C556 C557 1.524 . S
C556 C570 1.377 . S
C557 C556 1.524 . S
C557 C558 1.397 . S
C557 C562 1.363 . S
C558 H535 0.950 . S
C558 C557 1.397 . S
C558 C559 1.334 . S
C559 H536 0.950 . S
C559 C558 1.334 . S
C559 C560 1.287 . S
C560 C559 1.287 . S
C560 C561 1.524 . S
C560 H579 0.913 . S
C561 H537 0.950 . S
C561 C560 1.524 . S
C561 C562 1.415 . S
C562 H538 0.950 . S
C562 C557 1.363 . S
C562 C561 1.415 . S
C563 H539 0.951 . S
C563 C564 1.366 . S
C563 C565 1.388 . S
C564 C563 1.366 . S
C564 C568 1.385 . S
C565 H540 0.951 . S
C565 C563 1.388 . S
C565 C566 1.366 . S
C566 C565 1.366 . S
C566 C567 1.414 . S
C566 C569 1.499 . S
C567 H541 0.950 . S
C567 C566 1.414 . S
C567 C568 1.374 . S
C568 H542 0.950 . S
C568 C564 1.385 . S
C568 C567 1.374 . S
C569 C566 1.499 . S
C569 C570 1.373 . S
C569 C571 1.389 . S
C570 H543 0.950 . S
C570 C556 1.377 . S
C570 C569 1.373 . S
C571 C555 1.377 . S
C571 C569 1.389 . S
C571 C572 1.524 . S
C572 C571 1.524 . S
C572 C573 1.397 . S
C572 C577 1.363 . S
C573 H544 0.950 . S
C573 C572 1.397 . S
C573 C574 1.334 . S
C574 H545 0.950 . S
C574 C573 1.334 . S
C574 C575 1.287 . S
C575 C574 1.287 . S
C575 C576 1.524 . S
C575 H578 0.999 . S
C576 H546 0.950 . S
C576 C575 1.524 . S
C576 C577 1.415 . S
C577 H547 0.950 . S
C577 C572 1.363 . S
C577 C576 1.415 . S
H578 C575 0.999 . S
H579 C560 0.913 . S
H580 C598 0.951 . S
H581 C600 0.951 . S
H582 C602 0.950 . S
H583 C603 0.950 . S
H584 C605 0.950 . S
H585 C608 0.950 . S
H586 C609 0.950 . S
H587 C611 0.950 . S
H588 C612 0.950 . S
H589 C613 0.951 . S
H590 C615 0.951 . S
H591 C617 0.950 . S
H592 C618 0.950 . S
H593 C620 0.950 . S
H594 C623 0.950 . S
H595 C624 0.950 . S
H596 C626 0.950 . S
H597 C627 0.950 . S
C598 H580 0.951 . S
C598 C599 1.366 . S
C598 C600 1.388 . S
C599 C598 1.366 . S
C599 C603 1.385 . S
C600 H581 0.951 . S
C600 C598 1.388 . S
C600 C601 1.366 . S
C601 C600 1.366 . S
C601 C602 1.414 . S
C601 C604 1.499 . S
C602 H582 0.950 . S
C602 C601 1.414 . S
C602 C603 1.374 . S
C603 H583 0.950 . S
C603 C599 1.385 . S
C603 C602 1.374 . S
C604 C601 1.499 . S
C604 C605 1.373 . S
C604 C606 1.389 . S
C605 H584 0.950 . S
C605 C604 1.373 . S
C605 C621 1.377 . S
C606 C604 1.389 . S
C606 C607 1.524 . S
C606 C620 1.377 . S
C607 C606 1.524 . S
C607 C608 1.397 . S
C607 C612 1.363 . S
C608 H585 0.950 . S
C608 C607 1.397 . S
C608 C609 1.334 . S
C609 H586 0.950 . S
C609 C608 1.334 . S
C609 C610 1.287 . S
C610 C609 1.287 . S
C610 C611 1.524 . S
C610 H629 0.913 . S
C611 H587 0.950 . S
C611 C610 1.524 . S
C611 C612 1.415 . S
C612 H588 0.950 . S
C612 C607 1.363 . S
C612 C611 1.415 . S
C613 H589 0.951 . S
C613 C614 1.366 . S
C613 C615 1.388 . S
C614 C613 1.366 . S
C614 C618 1.385 . S
C615 H590 0.951 . S
C615 C613 1.388 . S
C615 C616 1.366 . S
C616 C615 1.366 . S
C616 C617 1.414 . S
C616 C619 1.499 . S
C617 H591 0.950 . S
C617 C616 1.414 . S
C617 C618 1.374 . S
C618 H592 0.950 . S
C618 C614 1.385 . S
C618 C617 1.374 . S
C619 C616 1.499 . S
C619 C620 1.373 . S
C619 C621 1.389 . S
C620 H593 0.950 . S
C620 C606 1.377 . S
C620 C619 1.373 . S
C621 C605 1.377 . S
C621 C619 1.389 . S
C621 C622 1.524 . S
C622 C621 1.524 . S
C622 C623 1.397 . S
C622 C627 1.363 . S
C623 H594 0.950 . S
C623 C622 1.397 . S
C623 C624 1.334 . S
C624 H595 0.950 . S
C624 C623 1.334 . S
C624 C625 1.287 . S
C625 C624 1.287 . S
C625 C626 1.524 . S
C625 H628 0.999 . S
C626 H596 0.950 . S
C626 C625 1.524 . S
C626 C627 1.415 . S
C627 H597 0.950 . S
C627 C622 1.363 . S
C627 C626 1.415 . S
H628 C625 0.999 . S
H629 C610 0.913 . S
H630 C648 0.951 . S
H631 C650 0.951 . S
H632 C652 0.950 . S
H633 C653 0.950 . S
H634 C655 0.950 . S
H635 C658 0.950 . S
H636 C659 0.950 . S
H637 C661 0.950 . S
H638 C662 0.950 . S
H639 C663 0.951 . S
H640 C665 0.951 . S
H641 C667 0.950 . S
H642 C668 0.950 . S
H643 C670 0.950 . S
H644 C673 0.950 . S
H645 C674 0.950 . S
H646 C676 0.950 . S
H647 C677 0.950 . S
C648 H630 0.951 . S
C648 C649 1.366 . S
C648 C650 1.388 . S
C649 C648 1.366 . S
C649 C653 1.385 . S
C650 H631 0.951 . S
C650 C648 1.388 . S
C650 C651 1.366 . S
C651 C650 1.366 . S
C651 C652 1.414 . S
C651 C654 1.499 . S
C652 H632 0.950 . S
C652 C651 1.414 . S
C652 C653 1.374 . S
C653 H633 0.950 . S
C653 C649 1.385 . S
C653 C652 1.374 . S
C654 C651 1.499 . S
C654 C655 1.373 . S
C654 C656 1.389 . S
C655 H634 0.950 . S
C655 C654 1.373 . S
C655 C671 1.377 . S
C656 C654 1.389 . S
C656 C657 1.524 . S
C656 C670 1.377 . S
C657 C656 1.524 . S
C657 C658 1.397 . S
C657 C662 1.363 . S
C658 H635 0.950 . S
C658 C657 1.397 . S
C658 C659 1.334 . S
C659 H636 0.950 . S
C659 C658 1.334 . S
C659 C660 1.287 . S
C660 C659 1.287 . S
C660 C661 1.524 . S
C660 H679 0.913 . S
C661 H637 0.950 . S
C661 C660 1.524 . S
C661 C662 1.415 . S
C662 H638 0.950 . S
C662 C657 1.363 . S
C662 C661 1.415 . S
C663 H639 0.951 . S
C663 C664 1.366 . S
C663 C665 1.388 . S
C664 C663 1.366 . S
C664 C668 1.385 . S
C665 H640 0.951 . S
C665 C663 1.388 . S
C665 C666 1.366 . S
C666 C665 1.366 . S
C666 C667 1.414 . S
C666 C669 1.499 . S
C667 H641 0.950 . S
C667 C666 1.414 . S
C667 C668 1.374 . S
C668 H642 0.950 . S
C668 C664 1.385 . S
C668 C667 1.374 . S
C669 C666 1.499 . S
C669 C670 1.373 . S
C669 C671 1.389 . S
C670 H643 0.950 . S
C670 C656 1.377 . S
C670 C669 1.373 . S
C671 C655 1.377 . S
C671 C669 1.389 . S
C671 C672 1.524 . S
C672 C671 1.524 . S
C672 C673 1.397 . S
C672 C677 1.363 . S
C673 H644 0.950 . S
C673 C672 1.397 . S
C673 C674 1.334 . S
C674 H645 0.950 . S
C674 C673 1.334 . S
C674 C675 1.287 . S
C675 C674 1.287 . S
C675 C676 1.524 . S
C675 H678 0.999 . S
C676 H646 0.950 . S
C676 C675 1.524 . S
C676 C677 1.415 . S
C677 H647 0.950 . S
C677 C672 1.363 . S
C677 C676 1.415 . S
H678 C675 0.999 . S
H679 C660 0.913 . S
H680 C698 0.951 . S
H681 C700 0.951 . S
H682 C702 0.950 . S
H683 C703 0.950 . S
H684 C705 0.950 . S
H685 C708 0.950 . S
H686 C709 0.950 . S
H687 C711 0.950 . S
H688 C712 0.950 . S
H689 C713 0.951 . S
H690 C715 0.951 . S
H691 C717 0.950 . S
H692 C718 0.950 . S
H693 C720 0.950 . S
H694 C723 0.950 . S
H695 C724 0.950 . S
H696 C726 0.950 . S
H697 C727 0.950 . S
C698 H680 0.951 . S
C698 C699 1.366 . S
C698 C700 1.388 . S
C699 C698 1.366 . S
C699 C703 1.385 . S
C700 H681 0.951 . S
C700 C698 1.388 . S
C700 C701 1.366 . S
C701 C700 1.366 . S
C701 C702 1.414 . S
C701 C704 1.499 . S
C702 H682 0.950 . S
C702 C701 1.414 . S
C702 C703 1.374 . S
C703 H683 0.950 . S
C703 C699 1.385 . S
C703 C702 1.374 . S
C704 C701 1.499 . S
C704 C705 1.373 . S
C704 C706 1.389 . S
C705 H684 0.950 . S
C705 C704 1.373 . S
C705 C721 1.377 . S
C706 C704 1.389 . S
C706 C707 1.524 . S
C706 C720 1.377 . S
C707 C706 1.524 . S
C707 C708 1.397 . S
C707 C712 1.363 . S
C708 H685 0.950 . S
C708 C707 1.397 . S
C708 C709 1.334 . S
C709 H686 0.950 . S
C709 C708 1.334 . S
C709 C710 1.287 . S
C710 C709 1.287 . S
C710 C711 1.524 . S
C710 H729 0.913 . S
C711 H687 0.950 . S
C711 C710 1.524 . S
C711 C712 1.415 . S
C712 H688 0.950 . S
C712 C707 1.363 . S
C712 C711 1.415 . S
C713 H689 0.951 . S
C713 C714 1.366 . S
C713 C715 1.388 . S
C714 C713 1.366 . S
C714 C718 1.385 . S
C715 H690 0.951 . S
C715 C713 1.388 . S
C715 C716 1.366 . S
C716 C715 1.366 . S
C716 C717 1.414 . S
C716 C719 1.499 . S
C717 H691 0.950 . S
C717 C716 1.414 . S
C717 C718 1.374 . S
C718 H692 0.950 . S
C718 C714 1.385 . S
C718 C717 1.374 . S
C719 C716 1.499 . S
C719 C720 1.373 . S
C719 C721 1.389 . S
C720 H693 0.950 . S
C720 C706 1.377 . S
C720 C719 1.373 . S
C721 C705 1.377 . S
C721 C719 1.389 . S
C721 C722 1.524 . S
C722 C721 1.524 . S
C722 C723 1.397 . S
C722 C727 1.363 . S
C723 H694 0.950 . S
C723 C722 1.397 . S
C723 C724 1.334 . S
C724 H695 0.950 . S
C724 C723 1.334 . S
C724 C725 1.287 . S
C725 C724 1.287 . S
C725 C726 1.524 . S
C725 H728 0.999 . S
C726 H696 0.950 . S
C726 C725 1.524 . S
C726 C727 1.415 . S
C727 H697 0.950 . S
C727 C722 1.363 . S
C727 C726 1.415 . S
H728 C725 0.999 . S
H729 C710 0.913 . S
H730 C748 0.951 . S
H731 C750 0.951 . S
H732 C752 0.950 . S
H733 C753 0.950 . S
H734 C755 0.950 . S
H735 C758 0.950 . S
H736 C759 0.950 . S
H737 C761 0.950 . S
H738 C762 0.950 . S
H739 C763 0.951 . S
H740 C765 0.951 . S
H741 C767 0.950 . S
H742 C768 0.950 . S
H743 C770 0.950 . S
H744 C773 0.950 . S
H745 C774 0.950 . S
H746 C776 0.950 . S
H747 C777 0.950 . S
C748 H730 0.951 . S
C748 C749 1.366 . S
C748 C750 1.388 . S
C749 C748 1.366 . S
C749 C753 1.385 . S
C750 H731 0.951 . S
C750 C748 1.388 . S
C750 C751 1.366 . S
C751 C750 1.366 . S
C751 C752 1.414 . S
C751 C754 1.499 . S
C752 H732 0.950 . S
C752 C751 1.414 . S
C752 C753 1.374 . S
C753 H733 0.950 . S
C753 C749 1.385 . S
C753 C752 1.374 . S
C754 C751 1.499 . S
C754 C755 1.373 . S
C754 C756 1.389 . S
C755 H734 0.950 . S
C755 C754 1.373 . S
C755 C771 1.377 . S
C756 C754 1.389 . S
C756 C757 1.524 . S
C756 C770 1.377 . S
C757 C756 1.524 . S
C757 C758 1.397 . S
C757 C762 1.363 . S
C758 H735 0.950 . S
C758 C757 1.397 . S
C758 C759 1.334 . S
C759 H736 0.950 . S
C759 C758 1.334 . S
C759 C760 1.287 . S
C760 C759 1.287 . S
C760 C761 1.524 . S
C760 H779 0.913 . S
C761 H737 0.950 . S
C761 C760 1.524 . S
C761 C762 1.415 . S
C762 H738 0.950 . S
C762 C757 1.363 . S
C762 C761 1.415 . S
C763 H739 0.951 . S
C763 C764 1.366 . S
C763 C765 1.388 . S
C764 C763 1.366 . S
C764 C768 1.385 . S
C765 H740 0.951 . S
C765 C763 1.388 . S
C765 C766 1.366 . S
C766 C765 1.366 . S
C766 C767 1.414 . S
C766 C769 1.499 . S
C767 H741 0.950 . S
C767 C766 1.414 . S
C767 C768 1.374 . S
C768 H742 0.950 . S
C768 C764 1.385 . S
C768 C767 1.374 . S
C769 C766 1.499 . S
C769 C770 1.373 . S
C769 C771 1.389 . S
C770 H743 0.950 . S
C770 C756 1.377 . S
C770 C769 1.373 . S
C771 C755 1.377 . S
C771 C769 1.389 . S
C771 C772 1.524 . S
C772 C771 1.524 . S
C772 C773 1.397 . S
C772 C777 1.363 . S
C773 H744 0.950 . S
C773 C772 1.397 . S
C773 C774 1.334 . S
C774 H745 0.950 . S
C774 C773 1.334 . S
C774 C775 1.287 . S
C775 C774 1.287 . S
C775 C776 1.524 . S
C775 H778 0.999 . S
C776 H746 0.950 . S
C776 C775 1.524 . S
C776 C777 1.415 . S
C777 H747 0.950 . S
C777 C772 1.363 . S
C777 C776 1.415 . S
H778 C775 0.999 . S
H779 C760 0.913 . S
H780 C798 0.951 . S
H781 C800 0.951 . S
H782 C802 0.950 . S
H783 C803 0.950 . S
H784 C805 0.950 . S
H785 C808 0.950 . S
H786 C809 0.950 . S
H787 C811 0.950 . S
H788 C812 0.950 . S
H789 C813 0.951 . S
H790 C815 0.951 . S
H791 C817 0.950 . S
H792 C818 0.950 . S
H793 C820 0.950 . S
H794 C823 0.950 . S
H795 C824 0.950 . S
H796 C826 0.950 . S
H797 C827 0.950 . S
C798 H780 0.951 . S
C798 C799 1.366 . S
C798 C800 1.388 . S
C799 C798 1.366 . S
C799 C803 1.385 . S
C800 H781 0.951 . S
C800 C798 1.388 . S
C800 C801 1.366 . S
C801 C800 1.366 . S
C801 C802 1.414 . S
C801 C804 1.499 . S
C802 H782 0.950 . S
C802 C801 1.414 . S
C802 C803 1.374 . S
C803 H783 0.950 . S
C803 C799 1.385 . S
C803 C802 1.374 . S
C804 C801 1.499 . S
C804 C805 1.373 . S
C804 C806 1.389 1_556 S
C805 H784 0.950 . S
C805 C804 1.373 . S
C805 C821 1.377 . S
C806 C804 1.389 1_554 S
C806 C807 1.524 . S
C806 C820 1.377 . S
C807 C806 1.524 . S
C807 C808 1.397 1_554 S
C807 C812 1.363 . S
C808 H785 0.950 . S
C808 C807 1.397 1_556 S
C808 C809 1.334 . S
C809 H786 0.950 . S
C809 C808 1.334 . S
C809 C810 1.287 1_556 S
C810 C809 1.287 1_554 S
C810 C811 1.524 . S
C810 H829 0.913 . S
C811 H787 0.950 . S
C811 C810 1.524 . S
C811 C812 1.415 . S
C812 H788 0.950 . S
C812 C807 1.363 . S
C812 C811 1.415 . S
C813 H789 0.951 . S
C813 C814 1.366 . S
C813 C815 1.388 . S
C814 C813 1.366 . S
C814 C818 1.385 . S
C815 H790 0.951 . S
C815 C813 1.388 . S
C815 C816 1.366 . S
C816 C815 1.366 . S
C816 C817 1.414 . S
C816 C819 1.499 . S
C817 H791 0.950 . S
C817 C816 1.414 . S
C817 C818 1.374 . S
C818 H792 0.950 . S
C818 C814 1.385 . S
C818 C817 1.374 . S
C819 C816 1.499 . S
C819 C820 1.373 . S
C819 C821 1.389 1_554 S
C820 H793 0.950 . S
C820 C806 1.377 . S
C820 C819 1.373 . S
C821 C805 1.377 . S
C821 C819 1.389 1_556 S
C821 C822 1.524 . S
C822 C821 1.524 . S
C822 C823 1.397 1_556 S
C822 C827 1.363 . S
C823 H794 0.950 . S
C823 C822 1.397 1_554 S
C823 C824 1.334 . S
C824 H795 0.950 . S
C824 C823 1.334 . S
C824 C825 1.287 1_554 S
C825 C824 1.287 1_556 S
C825 C826 1.524 . S
C825 H828 0.999 . S
C826 H796 0.950 . S
C826 C825 1.524 . S
C826 C827 1.415 . S
C827 H797 0.950 . S
C827 C822 1.363 . S
C827 C826 1.415 . S
H828 C825 0.999 . S
H829 C810 0.913 . S
H830 C848 0.951 . S
H831 C850 0.951 . S
H832 C852 0.950 . S
H833 C853 0.950 . S
H834 C855 0.950 . S
H835 C858 0.950 . S
H836 C859 0.950 . S
H837 C861 0.950 . S
H838 C862 0.950 . S
H839 C863 0.951 . S
H840 C865 0.951 . S
H841 C867 0.950 . S
H842 C868 0.950 . S
H843 C870 0.950 . S
H844 C873 0.950 . S
H845 C874 0.950 . S
H846 C876 0.950 . S
H847 C877 0.950 . S
C848 H830 0.951 . S
C848 C849 1.366 . S
C848 C850 1.388 . S
C849 C848 1.366 . S
C849 C853 1.385 . S
C850 H831 0.951 . S
C850 C848 1.388 . S
C850 C851 1.366 . S
C851 C850 1.366 . S
C851 C852 1.414 . S
C851 C854 1.499 . S
C852 H832 0.950 . S
C852 C851 1.414 . S
C852 C853 1.374 . S
C853 H833 0.950 . S
C853 C849 1.385 . S
C853 C852 1.374 . S
C854 C851 1.499 . S
C854 C855 1.373 . S
C854 C856 1.389 . S
C855 H834 0.950 . S
C855 C854 1.373 . S
C855 C871 1.377 . S
C856 C854 1.389 . S
C856 C857 1.524 . S
C856 C870 1.377 . S
C857 C856 1.524 . S
C857 C858 1.397 . S
C857 C862 1.363 . S
C858 H835 0.950 . S
C858 C857 1.397 . S
C858 C859 1.334 . S
C859 H836 0.950 . S
C859 C858 1.334 . S
C859 C860 1.287 . S
C860 C859 1.287 . S
C860 C861 1.524 . S
C860 H879 0.913 . S
C861 H837 0.950 . S
C861 C860 1.524 . S
C861 C862 1.415 . S
C862 H838 0.950 . S
C862 C857 1.363 . S
C862 C861 1.415 . S
C863 H839 0.951 . S
C863 C864 1.366 . S
C863 C865 1.388 . S
C864 C863 1.366 . S
C864 C868 1.385 . S
C865 H840 0.951 . S
C865 C863 1.388 . S
C865 C866 1.366 . S
C866 C865 1.366 . S
C866 C867 1.414 . S
C866 C869 1.499 . S
C867 H841 0.950 . S
C867 C866 1.414 . S
C867 C868 1.374 . S
C868 H842 0.950 . S
C868 C864 1.385 . S
C868 C867 1.374 . S
C869 C866 1.499 . S
C869 C870 1.373 . S
C869 C871 1.389 . S
C870 H843 0.950 . S
C870 C856 1.377 . S
C870 C869 1.373 . S
C871 C855 1.377 . S
C871 C869 1.389 . S
C871 C872 1.524 . S
C872 C871 1.524 . S
C872 C873 1.397 . S
C872 C877 1.363 . S
C873 H844 0.950 . S
C873 C872 1.397 . S
C873 C874 1.334 . S
C874 H845 0.950 . S
C874 C873 1.334 . S
C874 C875 1.287 . S
C875 C874 1.287 . S
C875 C876 1.524 . S
C875 H878 0.999 . S
C876 H846 0.950 . S
C876 C875 1.524 . S
C876 C877 1.415 . S
C877 H847 0.950 . S
C877 C872 1.363 . S
C877 C876 1.415 . S
H878 C875 0.999 . S
H879 C860 0.913 . S
H880 C898 0.951 . S
H881 C900 0.951 . S
H882 C902 0.950 . S
H883 C903 0.950 . S
H884 C905 0.950 . S
H885 C908 0.950 . S
H886 C909 0.950 . S
H887 C911 0.950 . S
H888 C912 0.950 . S
H889 C913 0.951 . S
H890 C915 0.951 . S
H891 C917 0.950 . S
H892 C918 0.950 . S
H893 C920 0.950 . S
H894 C923 0.950 . S
H895 C924 0.950 . S
H896 C926 0.950 . S
H897 C927 0.950 . S
C898 H880 0.951 . S
C898 C899 1.366 . S
C898 C900 1.388 . S
C899 C898 1.366 . S
C899 C903 1.385 . S
C900 H881 0.951 . S
C900 C898 1.388 . S
C900 C901 1.366 . S
C901 C900 1.366 . S
C901 C902 1.414 . S
C901 C904 1.499 . S
C902 H882 0.950 . S
C902 C901 1.414 . S
C902 C903 1.374 . S
C903 H883 0.950 . S
C903 C899 1.385 . S
C903 C902 1.374 . S
C904 C901 1.499 . S
C904 C905 1.373 . S
C904 C906 1.389 . S
C905 H884 0.950 . S
C905 C904 1.373 . S
C905 C921 1.377 . S
C906 C904 1.389 . S
C906 C907 1.524 . S
C906 C920 1.377 . S
C907 C906 1.524 . S
C907 C908 1.397 . S
C907 C912 1.363 . S
C908 H885 0.950 . S
C908 C907 1.397 . S
C908 C909 1.334 . S
C909 H886 0.950 . S
C909 C908 1.334 . S
C909 C910 1.287 . S
C910 C909 1.287 . S
C910 C911 1.524 . S
C910 H929 0.913 . S
C911 H887 0.950 . S
C911 C910 1.524 . S
C911 C912 1.415 . S
C912 H888 0.950 . S
C912 C907 1.363 . S
C912 C911 1.415 . S
C913 H889 0.951 . S
C913 C914 1.366 . S
C913 C915 1.388 . S
C914 C913 1.366 . S
C914 C918 1.385 . S
C915 H890 0.951 . S
C915 C913 1.388 . S
C915 C916 1.366 . S
C916 C915 1.366 . S
C916 C917 1.414 . S
C916 C919 1.499 . S
C917 H891 0.950 . S
C917 C916 1.414 . S
C917 C918 1.374 . S
C918 H892 0.950 . S
C918 C914 1.385 . S
C918 C917 1.374 . S
C919 C916 1.499 . S
C919 C920 1.373 . S
C919 C921 1.389 . S
C920 H893 0.950 . S
C920 C906 1.377 . S
C920 C919 1.373 . S
C921 C905 1.377 . S
C921 C919 1.389 . S
C921 C922 1.524 . S
C922 C921 1.524 . S
C922 C923 1.397 . S
C922 C927 1.363 . S
C923 H894 0.950 . S
C923 C922 1.397 . S
C923 C924 1.334 . S
C924 H895 0.950 . S
C924 C923 1.334 . S
C924 C925 1.287 . S
C925 C924 1.287 . S
C925 C926 1.524 . S
C925 H928 0.999 . S
C926 H896 0.950 . S
C926 C925 1.524 . S
C926 C927 1.415 . S
C927 H897 0.950 . S
C927 C922 1.363 . S
C927 C926 1.415 . S
H928 C925 0.999 . S
H929 C910 0.913 . S
H930 C948 0.951 . S
H931 C950 0.951 . S
H932 C952 0.950 . S
H933 C953 0.950 . S
H934 C955 0.950 . S
H935 C958 0.950 . S
H936 C959 0.950 . S
H937 C961 0.950 . S
H938 C962 0.950 . S
H939 C963 0.951 . S
H940 C965 0.951 . S
H941 C967 0.950 . S
H942 C968 0.950 . S
H943 C970 0.950 . S
H944 C973 0.950 . S
H945 C974 0.950 . S
H946 C976 0.950 . S
H947 C977 0.950 . S
C948 H930 0.951 . S
C948 C949 1.366 . S
C948 C950 1.388 . S
C949 C948 1.366 . S
C949 C953 1.385 . S
C950 H931 0.951 . S
C950 C948 1.388 . S
C950 C951 1.366 . S
C951 C950 1.366 . S
C951 C952 1.414 . S
C951 C954 1.499 . S
C952 H932 0.950 . S
C952 C951 1.414 . S
C952 C953 1.374 . S
C953 H933 0.950 . S
C953 C949 1.385 . S
C953 C952 1.374 . S
C954 C951 1.499 . S
C954 C955 1.373 . S
C954 C956 1.389 . S
C955 H934 0.950 . S
C955 C954 1.373 . S
C955 C971 1.377 1_556 S
C956 C954 1.389 . S
C956 C957 1.524 . S
C956 C970 1.377 1_556 S
C957 C956 1.524 . S
C957 C958 1.397 . S
C957 C962 1.363 . S
C958 H935 0.950 . S
C958 C957 1.397 . S
C958 C959 1.334 . S
C959 H936 0.950 . S
C959 C958 1.334 . S
C959 C960 1.287 . S
C960 C959 1.287 . S
C960 C961 1.524 . S
C960 H979 0.913 . S
C961 H937 0.950 . S
C961 C960 1.524 . S
C961 C962 1.415 . S
C962 H938 0.950 . S
C962 C957 1.363 . S
C962 C961 1.415 . S
C963 H939 0.951 . S
C963 C964 1.366 . S
C963 C965 1.388 . S
C964 C963 1.366 . S
C964 C968 1.385 . S
C965 H940 0.951 . S
C965 C963 1.388 . S
C965 C966 1.366 . S
C966 C965 1.366 . S
C966 C967 1.414 . S
C966 C969 1.499 . S
C967 H941 0.950 . S
C967 C966 1.414 . S
C967 C968 1.374 . S
C968 H942 0.950 . S
C968 C964 1.385 . S
C968 C967 1.374 . S
C969 C966 1.499 . S
C969 C970 1.373 . S
C969 C971 1.389 . S
C970 H943 0.950 . S
C970 C956 1.377 1_554 S
C970 C969 1.373 . S
C971 C955 1.377 1_554 S
C971 C969 1.389 . S
C971 C972 1.524 . S
C972 C971 1.524 . S
C972 C973 1.397 . S
C972 C977 1.363 . S
C973 H944 0.950 . S
C973 C972 1.397 . S
C973 C974 1.334 . S
C974 H945 0.950 . S
C974 C973 1.334 . S
C974 C975 1.287 . S
C975 C974 1.287 . S
C975 C976 1.524 . S
C975 H978 0.999 . S
C976 H946 0.950 . S
C976 C975 1.524 . S
C976 C977 1.415 . S
C977 H947 0.950 . S
C977 C972 1.363 . S
C977 C976 1.415 . S
H978 C975 0.999 . S
H979 C960 0.913 . S
H980 C998 0.951 . S
H981 C1000 0.951 . S
H982 C1002 0.950 . S
H983 C1003 0.950 . S
H984 C1005 0.950 . S
H985 C1008 0.950 . S
H986 C1009 0.950 . S
H987 C1011 0.950 . S
H988 C1012 0.950 . S
H989 C1013 0.951 . S
H990 C1015 0.951 . S
H991 C1017 0.950 . S
H992 C1018 0.950 . S
H993 C1020 0.950 . S
H994 C1023 0.950 . S
H995 C1024 0.950 . S
H996 C1026 0.950 . S
H997 C1027 0.950 . S
C998 H980 0.951 . S
C998 C999 1.366 . S
C998 C1000 1.388 . S
C999 C998 1.366 . S
C999 C1003 1.385 . S
C1000 H981 0.951 . S
C1000 C998 1.388 . S
C1000 C1001 1.366 . S
C1001 C1000 1.366 . S
C1001 C1002 1.414 . S
C1001 C1004 1.499 . S
C1002 H982 0.950 . S
C1002 C1001 1.414 . S
C1002 C1003 1.374 . S
C1003 H983 0.950 . S
C1003 C999 1.385 . S
C1003 C1002 1.374 . S
C1004 C1001 1.499 . S
C1004 C1005 1.373 . S
C1004 C1006 1.389 . S
C1005 H984 0.950 . S
C1005 C1004 1.373 . S
C1005 C1021 1.377 . S
C1006 C1004 1.389 . S
C1006 C1007 1.524 . S
C1006 C1020 1.377 . S
C1007 C1006 1.524 . S
C1007 C1008 1.397 . S
C1007 C1012 1.363 . S
C1008 H985 0.950 . S
C1008 C1007 1.397 . S
C1008 C1009 1.334 . S
C1009 H986 0.950 . S
C1009 C1008 1.334 . S
C1009 C1010 1.287 . S
C1010 C1009 1.287 . S
C1010 C1011 1.524 . S
C1010 H1029 0.913 . S
C1011 H987 0.950 . S
C1011 C1010 1.524 . S
C1011 C1012 1.415 . S
C1012 H988 0.950 . S
C1012 C1007 1.363 . S
C1012 C1011 1.415 . S
C1013 H989 0.951 . S
C1013 C1014 1.366 . S
C1013 C1015 1.388 . S
C1014 C1013 1.366 . S
C1014 C1018 1.385 . S
C1015 H990 0.951 . S
C1015 C1013 1.388 . S
C1015 C1016 1.366 . S
C1016 C1015 1.366 . S
C1016 C1017 1.414 . S
C1016 C1019 1.499 . S
C1017 H991 0.950 . S
C1017 C1016 1.414 . S
C1017 C1018 1.374 . S
C1018 H992 0.950 . S
C1018 C1014 1.385 . S
C1018 C1017 1.374 . S
C1019 C1016 1.499 . S
C1019 C1020 1.373 . S
C1019 C1021 1.389 . S
C1020 H993 0.950 . S
C1020 C1006 1.377 . S
C1020 C1019 1.373 . S
C1021 C1005 1.377 . S
C1021 C1019 1.389 . S
C1021 C1022 1.524 . S
C1022 C1021 1.524 . S
C1022 C1023 1.397 . S
C1022 C1027 1.363 . S
C1023 H994 0.950 . S
C1023 C1022 1.397 . S
C1023 C1024 1.334 . S
C1024 H995 0.950 . S
C1024 C1023 1.334 . S
C1024 C1025 1.287 . S
C1025 C1024 1.287 . S
C1025 C1026 1.524 . S
C1025 H1028 0.999 . S
C1026 H996 0.950 . S
C1026 C1025 1.524 . S
C1026 C1027 1.415 . S
C1027 H997 0.950 . S
C1027 C1022 1.363 . S
C1027 C1026 1.415 . S
H1028 C1025 0.999 . S
H1029 C1010 0.913 . S
H1030 C1048 0.951 . S
H1031 C1050 0.951 . S
H1032 C1052 0.950 . S
H1033 C1053 0.950 . S
H1034 C1055 0.950 . S
H1035 C1058 0.950 . S
H1036 C1059 0.950 . S
H1037 C1061 0.950 . S
H1038 C1062 0.950 . S
H1039 C1063 0.951 . S
H1040 C1065 0.951 . S
H1041 C1067 0.950 . S
H1042 C1068 0.950 . S
H1043 C1070 0.950 . S
H1044 C1073 0.950 . S
H1045 C1074 0.950 . S
H1046 C1076 0.950 . S
H1047 C1077 0.950 . S
C1048 H1030 0.951 . S
C1048 C1049 1.366 . S
C1048 C1050 1.388 . S
C1049 C1048 1.366 . S
C1049 C1053 1.385 . S
C1050 H1031 0.951 . S
C1050 C1048 1.388 . S
C1050 C1051 1.366 . S
C1051 C1050 1.366 . S
C1051 C1052 1.414 . S
C1051 C1054 1.499 . S
C1052 H1032 0.950 . S
C1052 C1051 1.414 . S
C1052 C1053 1.374 . S
C1053 H1033 0.950 . S
C1053 C1049 1.385 . S
C1053 C1052 1.374 . S
C1054 C1051 1.499 . S
C1054 C1055 1.373 . S
C1054 C1056 1.389 . S
C1055 H1034 0.950 . S
C1055 C1054 1.373 . S
C1055 C1071 1.377 . S
C1056 C1054 1.389 . S
C1056 C1057 1.524 . S
C1056 C1070 1.377 . S
C1057 C1056 1.524 . S
C1057 C1058 1.397 . S
C1057 C1062 1.363 . S
C1058 H1035 0.950 . S
C1058 C1057 1.397 . S
C1058 C1059 1.334 . S
C1059 H1036 0.950 . S
C1059 C1058 1.334 . S
C1059 C1060 1.287 . S
C1060 C1059 1.287 . S
C1060 C1061 1.524 . S
C1060 H1079 0.913 . S
C1061 H1037 0.950 . S
C1061 C1060 1.524 . S
C1061 C1062 1.415 . S
C1062 H1038 0.950 . S
C1062 C1057 1.363 . S
C1062 C1061 1.415 . S
C1063 H1039 0.951 . S
C1063 C1064 1.366 . S
C1063 C1065 1.388 . S
C1064 C1063 1.366 . S
C1064 C1068 1.385 . S
C1065 H1040 0.951 . S
C1065 C1063 1.388 . S
C1065 C1066 1.366 . S
C1066 C1065 1.366 . S
C1066 C1067 1.414 . S
C1066 C1069 1.499 . S
C1067 H1041 0.950 . S
C1067 C1066 1.414 . S
C1067 C1068 1.374 . S
C1068 H1042 0.950 . S
C1068 C1064 1.385 . S
C1068 C1067 1.374 . S
C1069 C1066 1.499 . S
C1069 C1070 1.373 . S
C1069 C1071 1.389 . S
C1070 H1043 0.950 . S
C1070 C1056 1.377 . S
C1070 C1069 1.373 . S
C1071 C1055 1.377 . S
C1071 C1069 1.389 . S
C1071 C1072 1.524 . S
C1072 C1071 1.524 . S
C1072 C1073 1.397 . S
C1072 C1077 1.363 . S
C1073 H1044 0.950 . S
C1073 C1072 1.397 . S
C1073 C1074 1.334 . S
C1074 H1045 0.950 . S
C1074 C1073 1.334 . S
C1074 C1075 1.287 . S
C1075 C1074 1.287 . S
C1075 C1076 1.524 . S
C1075 H1078 0.999 . S
C1076 H1046 0.950 . S
C1076 C1075 1.524 . S
C1076 C1077 1.415 . S
C1077 H1047 0.950 . S
C1077 C1072 1.363 . S
C1077 C1076 1.415 . S
H1078 C1075 0.999 . S
H1079 C1060 0.913 . S
H1080 C1098 0.951 . S
H1081 C1100 0.951 . S
H1082 C1102 0.950 . S
H1083 C1103 0.950 . S
H1084 C1105 0.950 . S
H1085 C1108 0.950 . S
H1086 C1109 0.950 . S
H1087 C1111 0.950 . S
H1088 C1112 0.951 1_554 S
H1089 C1113 0.951 . S
H1090 C1115 0.951 . S
H1091 C1117 0.950 . S
H1092 C1118 0.950 . S
H1093 C1120 0.950 . S
H1094 C1123 0.950 . S
H1095 C1124 0.950 . S
H1096 C1126 0.950 . S
H1097 C1127 0.951 1_556 S
C1098 H1080 0.951 . S
C1098 C1099 1.366 . S
C1098 C1100 1.388 . S
C1099 C1098 1.366 . S
C1099 C1103 1.385 . S
C1100 H1081 0.951 . S
C1100 C1098 1.388 . S
C1100 C1101 1.366 . S
C1101 C1100 1.366 . S
C1101 C1102 1.414 . S
C1101 C1104 1.499 . S
C1102 H1082 0.950 . S
C1102 C1101 1.414 . S
C1102 C1103 1.374 . S
C1103 H1083 0.950 . S
C1103 C1099 1.385 . S
C1103 C1102 1.374 . S
C1104 C1101 1.499 . S
C1104 C1105 1.373 1_565 S
C1104 C1106 1.389 . S
C1105 H1084 0.950 . S
C1105 C1104 1.373 1_545 S
C1105 C1121 1.377 1_556 S
C1106 C1104 1.389 . S
C1106 C1107 1.524 . S
C1106 C1120 1.377 1_556 S
C1107 C1106 1.524 . S
C1107 C1108 1.397 . S
C1107 C1112 1.363 . S
C1108 H1085 0.950 . S
C1108 C1107 1.397 . S
C1108 C1109 1.334 . S
C1109 H1086 0.950 . S
C1109 C1108 1.334 . S
C1109 C1110 1.287 . S
C1110 C1109 1.287 . S
C1110 C1111 1.524 . S
C1110 H1129 0.913 . S
C1111 H1087 0.950 . S
C1111 C1110 1.524 . S
C1111 C1112 1.415 . S
C1112 H1088 0.951 1_556 S
C1112 C1107 1.363 . S
C1112 C1111 1.415 . S
C1113 H1089 0.951 . S
C1113 C1114 1.366 . S
C1113 C1115 1.388 . S
C1114 C1113 1.366 . S
C1114 C1118 1.385 . S
C1115 H1090 0.951 . S
C1115 C1113 1.388 . S
C1115 C1116 1.366 . S
C1116 C1115 1.366 . S
C1116 C1117 1.414 . S
C1116 C1119 1.499 . S
C1117 H1091 0.950 . S
C1117 C1116 1.414 . S
C1117 C1118 1.374 . S
C1118 H1092 0.950 . S
C1118 C1114 1.385 . S
C1118 C1117 1.374 . S
C1119 C1116 1.499 . S
C1119 C1120 1.373 1_545 S
C1119 C1121 1.389 . S
C1120 H1093 0.950 . S
C1120 C1106 1.377 1_554 S
C1120 C1119 1.373 1_565 S
C1121 C1105 1.377 1_554 S
C1121 C1119 1.389 . S
C1121 C1122 1.524 . S
C1122 C1121 1.524 . S
C1122 C1123 1.397 . S
C1122 C1127 1.363 . S
C1123 H1094 0.950 . S
C1123 C1122 1.397 . S
C1123 C1124 1.334 . S
C1124 H1095 0.950 . S
C1124 C1123 1.334 . S
C1124 C1125 1.287 . S
C1125 C1124 1.287 . S
C1125 C1126 1.524 . S
C1125 H1128 0.999 . S
C1126 H1096 0.950 . S
C1126 C1125 1.524 . S
C1126 C1127 1.415 . S
C1127 H1097 0.951 1_554 S
C1127 C1122 1.363 . S
C1127 C1126 1.415 . S
H1128 C1125 0.999 . S
H1129 C1110 0.913 . S
H1130 C1148 0.951 . S
H1131 C1150 0.951 . S
H1132 C1152 0.950 . S
H1133 C1153 0.950 . S
H1134 C1155 0.950 . S
H1135 C1158 0.950 . S
H1136 C1159 0.950 . S
H1137 C1161 0.950 . S
H1138 C1162 0.950 . S
H1139 C1163 0.951 . S
H1140 C1165 0.951 . S
H1141 C1167 0.950 . S
H1142 C1168 0.950 . S
H1143 C1170 0.950 . S
H1144 C1173 0.950 . S
H1145 C1174 0.950 . S
H1146 C1176 0.950 . S
H1147 C1177 0.950 . S
C1148 H1130 0.951 . S
C1148 C1149 1.366 . S
C1148 C1150 1.388 . S
C1149 C1148 1.366 . S
C1149 C1153 1.385 . S
C1150 H1131 0.951 . S
C1150 C1148 1.388 . S
C1150 C1151 1.366 . S
C1151 C1150 1.366 . S
C1151 C1152 1.414 . S
C1151 C1154 1.499 . S
C1152 H1132 0.950 . S
C1152 C1151 1.414 . S
C1152 C1153 1.374 . S
C1153 H1133 0.950 . S
C1153 C1149 1.385 . S
C1153 C1152 1.374 . S
C1154 C1151 1.499 . S
C1154 C1155 1.373 . S
C1154 C1156 1.389 . S
C1155 H1134 0.950 . S
C1155 C1154 1.373 . S
C1155 C1171 1.377 . S
C1156 C1154 1.389 . S
C1156 C1157 1.524 . S
C1156 C1170 1.377 . S
C1157 C1156 1.524 . S
C1157 C1158 1.397 . S
C1157 C1162 1.363 . S
C1158 H1135 0.950 . S
C1158 C1157 1.397 . S
C1158 C1159 1.334 . S
C1159 H1136 0.950 . S
C1159 C1158 1.334 . S
C1159 C1160 1.287 . S
C1160 C1159 1.287 . S
C1160 C1161 1.524 . S
C1160 H1179 0.913 . S
C1161 H1137 0.950 . S
C1161 C1160 1.524 . S
C1161 C1162 1.415 . S
C1162 H1138 0.950 . S
C1162 C1157 1.363 . S
C1162 C1161 1.415 . S
C1163 H1139 0.951 . S
C1163 C1164 1.366 . S
C1163 C1165 1.388 . S
C1164 C1163 1.366 . S
C1164 C1168 1.385 . S
C1165 H1140 0.951 . S
C1165 C1163 1.388 . S
C1165 C1166 1.366 . S
C1166 C1165 1.366 . S
C1166 C1167 1.414 . S
C1166 C1169 1.499 . S
C1167 H1141 0.950 . S
C1167 C1166 1.414 . S
C1167 C1168 1.374 . S
C1168 H1142 0.950 . S
C1168 C1164 1.385 . S
C1168 C1167 1.374 . S
C1169 C1166 1.499 . S
C1169 C1170 1.373 . S
C1169 C1171 1.389 . S
C1170 H1143 0.950 . S
C1170 C1156 1.377 . S
C1170 C1169 1.373 . S
C1171 C1155 1.377 . S
C1171 C1169 1.389 . S
C1171 C1172 1.524 . S
C1172 C1171 1.524 . S
C1172 C1173 1.397 . S
C1172 C1177 1.363 . S
C1173 H1144 0.950 . S
C1173 C1172 1.397 . S
C1173 C1174 1.334 . S
C1174 H1145 0.950 . S
C1174 C1173 1.334 . S
C1174 C1175 1.287 . S
C1175 C1174 1.287 . S
C1175 C1176 1.524 . S
C1175 H1178 0.999 . S
C1176 H1146 0.950 . S
C1176 C1175 1.524 . S
C1176 C1177 1.415 . S
C1177 H1147 0.950 . S
C1177 C1172 1.363 . S
C1177 C1176 1.415 . S
H1178 C1175 0.999 . S
H1179 C1160 0.913 . S
H1180 C1198 0.951 . S
H1181 C1200 0.951 . S
H1182 C1202 0.950 . S
H1183 C1203 0.950 . S
H1184 C1205 0.950 . S
H1185 C1208 0.950 . S
H1186 C1209 0.950 . S
H1187 C1211 0.950 . S
H1188 C1212 0.950 . S
H1189 C1213 0.951 . S
H1190 C1215 0.951 . S
H1191 C1217 0.950 . S
H1192 C1218 0.950 . S
H1193 C1220 0.950 . S
H1194 C1223 0.950 . S
H1195 C1224 0.950 . S
H1196 C1226 0.950 . S
H1197 C1227 0.950 . S
C1198 H1180 0.951 . S
C1198 C1199 1.366 . S
C1198 C1200 1.388 . S
C1199 C1198 1.366 . S
C1199 C1203 1.385 . S
C1200 H1181 0.951 . S
C1200 C1198 1.388 . S
C1200 C1201 1.366 . S
C1201 C1200 1.366 . S
C1201 C1202 1.414 . S
C1201 C1204 1.499 . S
C1202 H1182 0.950 . S
C1202 C1201 1.414 . S
C1202 C1203 1.374 . S
C1203 H1183 0.950 . S
C1203 C1199 1.385 . S
C1203 C1202 1.374 . S
C1204 C1201 1.499 . S
C1204 C1205 1.373 . S
C1204 C1206 1.389 1_455 S
C1205 H1184 0.950 . S
C1205 C1204 1.373 . S
C1205 C1221 1.377 . S
C1206 C1204 1.389 1_655 S
C1206 C1207 1.524 . S
C1206 C1220 1.377 . S
C1207 C1206 1.524 . S
C1207 C1208 1.397 . S
C1207 C1212 1.363 . S
C1208 H1185 0.950 . S
C1208 C1207 1.397 . S
C1208 C1209 1.334 . S
C1209 H1186 0.950 . S
C1209 C1208 1.334 . S
C1209 C1210 1.287 . S
C1210 C1209 1.287 . S
C1210 C1211 1.524 . S
C1210 H1229 0.913 . S
C1211 H1187 0.950 . S
C1211 C1210 1.524 . S
C1211 C1212 1.415 . S
C1212 H1188 0.950 . S
C1212 C1207 1.363 . S
C1212 C1211 1.415 . S
C1213 H1189 0.951 . S
C1213 C1214 1.366 . S
C1213 C1215 1.388 . S
C1214 C1213 1.366 . S
C1214 C1218 1.385 . S
C1215 H1190 0.951 . S
C1215 C1213 1.388 . S
C1215 C1216 1.366 . S
C1216 C1215 1.366 . S
C1216 C1217 1.414 . S
C1216 C1219 1.499 . S
C1217 H1191 0.950 . S
C1217 C1216 1.414 . S
C1217 C1218 1.374 . S
C1218 H1192 0.950 . S
C1218 C1214 1.385 . S
C1218 C1217 1.374 . S
C1219 C1216 1.499 . S
C1219 C1220 1.373 . S
C1219 C1221 1.389 1_655 S
C1220 H1193 0.950 . S
C1220 C1206 1.377 . S
C1220 C1219 1.373 . S
C1221 C1205 1.377 . S
C1221 C1219 1.389 1_455 S
C1221 C1222 1.524 . S
C1222 C1221 1.524 . S
C1222 C1223 1.397 . S
C1222 C1227 1.363 . S
C1223 H1194 0.950 . S
C1223 C1222 1.397 . S
C1223 C1224 1.334 . S
C1224 H1195 0.950 . S
C1224 C1223 1.334 . S
C1224 C1225 1.287 . S
C1225 C1224 1.287 . S
C1225 C1226 1.524 . S
C1225 H1228 0.999 . S
C1226 H1196 0.950 . S
C1226 C1225 1.524 . S
C1226 C1227 1.415 . S
C1227 H1197 0.950 . S
C1227 C1222 1.363 . S
C1227 C1226 1.415 . S
H1228 C1225 0.999 . S
H1229 C1210 0.913 . S
H1230 C1248 0.951 . S
H1231 C1250 0.951 . S
H1232 C1252 0.950 . S
H1233 C1253 0.950 . S
H1234 C1255 0.950 . S
H1235 C1258 0.950 . S
H1236 C1259 0.950 . S
H1237 C1261 0.950 1_556 S
H1238 C1262 0.944 1_556 S
H1239 C1263 0.951 . S
H1240 C1265 0.951 . S
H1241 C1267 0.950 . S
H1242 C1268 0.950 . S
H1243 C1270 0.950 . S
H1244 C1273 0.950 . S
H1245 C1274 0.950 . S
H1246 C1276 0.950 1_554 S
H1247 C1277 0.944 1_554 S
C1248 H1230 0.951 . S
C1248 C1249 1.366 . S
C1248 C1250 1.388 . S
C1249 C1248 1.366 . S
C1249 C1253 1.385 . S
C1250 H1231 0.951 . S
C1250 C1248 1.388 . S
C1250 C1251 1.366 . S
C1251 C1250 1.366 . S
C1251 C1252 1.414 . S
C1251 C1254 1.499 . S
C1252 H1232 0.950 . S
C1252 C1251 1.414 . S
C1252 C1253 1.374 . S
C1253 H1233 0.950 . S
C1253 C1249 1.385 . S
C1253 C1252 1.374 . S
C1254 C1251 1.499 . S
C1254 C1255 1.373 1_565 S
C1254 C1256 1.389 . S
C1255 H1234 0.950 . S
C1255 C1254 1.373 1_545 S
C1255 C1271 1.377 1_554 S
C1256 C1254 1.389 . S
C1256 C1257 1.524 . S
C1256 C1270 1.377 1_554 S
C1257 C1256 1.524 . S
C1257 C1258 1.397 . S
C1257 C1262 1.369 . S
C1258 H1235 0.950 . S
C1258 C1257 1.397 . S
C1258 C1259 1.334 . S
C1259 H1236 0.950 . S
C1259 C1258 1.334 . S
C1259 C1260 1.287 . S
C1260 C1259 1.287 . S
C1260 C1261 1.524 . S
C1260 H1279 0.913 . S
C1261 H1237 0.950 1_554 S
C1261 C1260 1.524 . S
C1261 C1262 1.416 . S
C1262 H1238 0.944 1_554 S
C1262 C1257 1.369 . S
C1262 C1261 1.416 . S
C1263 H1239 0.951 . S
C1263 C1264 1.366 . S
C1263 C1265 1.388 . S
C1264 C1263 1.366 . S
C1264 C1268 1.385 . S
C1265 H1240 0.951 . S
C1265 C1263 1.388 . S
C1265 C1266 1.366 . S
C1266 C1265 1.366 . S
C1266 C1267 1.414 . S
C1266 C1269 1.499 . S
C1267 H1241 0.950 . S
C1267 C1266 1.414 . S
C1267 C1268 1.374 . S
C1268 H1242 0.950 . S
C1268 C1264 1.385 . S
C1268 C1267 1.374 . S
C1269 C1266 1.499 . S
C1269 C1270 1.373 1_545 S
C1269 C1271 1.389 . S
C1270 H1243 0.950 . S
C1270 C1256 1.377 1_556 S
C1270 C1269 1.373 1_565 S
C1271 C1255 1.377 1_556 S
C1271 C1269 1.389 . S
C1271 C1272 1.524 . S
C1272 C1271 1.524 . S
C1272 C1273 1.397 . S
C1272 C1277 1.369 . S
C1273 H1244 0.950 . S
C1273 C1272 1.397 . S
C1273 C1274 1.334 . S
C1274 H1245 0.950 . S
C1274 C1273 1.334 . S
C1274 C1275 1.287 . S
C1275 C1274 1.287 . S
C1275 C1276 1.524 . S
C1275 H1278 0.999 . S
C1276 H1246 0.950 1_556 S
C1276 C1275 1.524 . S
C1276 C1277 1.416 . S
C1277 H1247 0.944 1_556 S
C1277 C1272 1.369 . S
C1277 C1276 1.416 . S
H1278 C1275 0.999 . S
H1279 C1260 0.913 . S
H1280 C1298 0.951 . S
H1281 C1300 0.951 . S
H1282 C1302 0.950 . S
H1283 C1303 0.950 . S
H1284 C1305 0.950 . S
H1285 C1308 0.950 . S
H1286 C1309 0.950 . S
H1287 C1311 0.950 . S
H1288 C1312 0.950 . S
H1289 C1313 0.951 . S
H1290 C1315 0.951 . S
H1291 C1317 0.950 . S
H1292 C1318 0.950 . S
H1293 C1320 0.950 . S
H1294 C1323 0.950 . S
H1295 C1324 0.950 . S
H1296 C1326 0.950 . S
H1297 C1327 0.950 . S
C1298 H1280 0.951 . S
C1298 C1299 1.366 . S
C1298 C1300 1.388 . S
C1299 C1298 1.366 . S
C1299 C1303 1.385 . S
C1300 H1281 0.951 . S
C1300 C1298 1.388 . S
C1300 C1301 1.366 . S
C1301 C1300 1.366 . S
C1301 C1302 1.414 . S
C1301 C1304 1.499 . S
C1302 H1282 0.950 . S
C1302 C1301 1.414 . S
C1302 C1303 1.374 . S
C1303 H1283 0.950 . S
C1303 C1299 1.385 . S
C1303 C1302 1.374 . S
C1304 C1301 1.499 . S
C1304 C1305 1.373 . S
C1304 C1306 1.389 . S
C1305 H1284 0.950 . S
C1305 C1304 1.373 . S
C1305 C1321 1.377 . S
C1306 C1304 1.389 . S
C1306 C1307 1.524 . S
C1306 C1320 1.377 . S
C1307 C1306 1.524 . S
C1307 C1308 1.397 . S
C1307 C1312 1.363 . S
C1308 H1285 0.950 . S
C1308 C1307 1.397 . S
C1308 C1309 1.334 . S
C1309 H1286 0.950 . S
C1309 C1308 1.334 . S
C1309 C1310 1.287 . S
C1310 C1309 1.287 . S
C1310 C1311 1.524 . S
C1310 H1329 0.913 . S
C1311 H1287 0.950 . S
C1311 C1310 1.524 . S
C1311 C1312 1.415 . S
C1312 H1288 0.950 . S
C1312 C1307 1.363 . S
C1312 C1311 1.415 . S
C1313 H1289 0.951 . S
C1313 C1314 1.366 . S
C1313 C1315 1.388 . S
C1314 C1313 1.366 . S
C1314 C1318 1.385 . S
C1315 H1290 0.951 . S
C1315 C1313 1.388 . S
C1315 C1316 1.366 . S
C1316 C1315 1.366 . S
C1316 C1317 1.414 . S
C1316 C1319 1.499 . S
C1317 H1291 0.950 . S
C1317 C1316 1.414 . S
C1317 C1318 1.374 . S
C1318 H1292 0.950 . S
C1318 C1314 1.385 . S
C1318 C1317 1.374 . S
C1319 C1316 1.499 . S
C1319 C1320 1.373 . S
C1319 C1321 1.389 . S
C1320 H1293 0.950 . S
C1320 C1306 1.377 . S
C1320 C1319 1.373 . S
C1321 C1305 1.377 . S
C1321 C1319 1.389 . S
C1321 C1322 1.524 . S
C1322 C1321 1.524 . S
C1322 C1323 1.397 . S
C1322 C1327 1.363 . S
C1323 H1294 0.950 . S
C1323 C1322 1.397 . S
C1323 C1324 1.334 . S
C1324 H1295 0.950 . S
C1324 C1323 1.334 . S
C1324 C1325 1.287 . S
C1325 C1324 1.287 . S
C1325 C1326 1.524 . S
C1325 H1328 0.999 . S
C1326 H1296 0.950 . S
C1326 C1325 1.524 . S
C1326 C1327 1.415 . S
C1327 H1297 0.950 . S
C1327 C1322 1.363 . S
C1327 C1326 1.415 . S
H1328 C1325 0.999 . S
H1329 C1310 0.913 . S
H1330 C1348 0.951 . S
H1331 C1350 0.951 . S
H1332 C1352 0.953 1_655 S
H1333 C1353 0.950 . S
H1334 C1355 0.950 . S
H1335 C1358 0.950 . S
H1336 C1359 0.950 . S
H1337 C1361 0.950 . S
H1338 C1362 0.950 . S
H1339 C1363 0.951 . S
H1340 C1365 0.951 . S
H1341 C1367 0.953 1_455 S
H1342 C1368 0.950 . S
H1343 C1370 0.950 . S
H1344 C1373 0.950 . S
H1345 C1374 0.950 . S
H1346 C1376 0.950 . S
H1347 C1377 0.950 . S
C1348 H1330 0.951 . S
C1348 C1349 1.366 . S
C1348 C1350 1.388 . S
C1349 C1348 1.366 . S
C1349 C1353 1.385 . S
C1350 H1331 0.951 . S
C1350 C1348 1.388 . S
C1350 C1351 1.366 . S
C1351 C1350 1.366 . S
C1351 C1352 1.414 . S
C1351 C1354 1.499 . S
C1352 H1332 0.953 1_455 S
C1352 C1351 1.414 . S
C1352 C1353 1.374 . S
C1353 H1333 0.950 . S
C1353 C1349 1.385 . S
C1353 C1352 1.374 . S
C1354 C1351 1.499 . S
C1354 C1355 1.373 1_455 S
C1354 C1356 1.389 . S
C1355 H1334 0.950 . S
C1355 C1354 1.373 1_655 S
C1355 C1371 1.377 . S
C1356 C1354 1.389 . S
C1356 C1357 1.524 . S
C1356 C1370 1.377 . S
C1357 C1356 1.524 . S
C1357 C1358 1.397 . S
C1357 C1362 1.363 . S
C1358 H1335 0.950 . S
C1358 C1357 1.397 . S
C1358 C1359 1.334 . S
C1359 H1336 0.950 . S
C1359 C1358 1.334 . S
C1359 C1360 1.287 . S
C1360 C1359 1.287 . S
C1360 C1361 1.524 . S
C1360 H1379 0.913 . S
C1361 H1337 0.950 . S
C1361 C1360 1.524 . S
C1361 C1362 1.415 . S
C1362 H1338 0.950 . S
C1362 C1357 1.363 . S
C1362 C1361 1.415 . S
C1363 H1339 0.951 . S
C1363 C1364 1.366 . S
C1363 C1365 1.388 . S
C1364 C1363 1.366 . S
C1364 C1368 1.385 . S
C1365 H1340 0.951 . S
C1365 C1363 1.388 . S
C1365 C1366 1.366 . S
C1366 C1365 1.366 . S
C1366 C1367 1.414 . S
C1366 C1369 1.499 . S
C1367 H1341 0.953 1_655 S
C1367 C1366 1.414 . S
C1367 C1368 1.374 . S
C1368 H1342 0.950 . S
C1368 C1364 1.385 . S
C1368 C1367 1.374 . S
C1369 C1366 1.499 . S
C1369 C1370 1.373 1_655 S
C1369 C1371 1.389 . S
C1370 H1343 0.950 . S
C1370 C1356 1.377 . S
C1370 C1369 1.373 1_455 S
C1371 C1355 1.377 . S
C1371 C1369 1.389 . S
C1371 C1372 1.524 . S
C1372 C1371 1.524 . S
C1372 C1373 1.397 . S
C1372 C1377 1.363 . S
C1373 H1344 0.950 . S
C1373 C1372 1.397 . S
C1373 C1374 1.334 . S
C1374 H1345 0.950 . S
C1374 C1373 1.334 . S
C1374 C1375 1.287 . S
C1375 C1374 1.287 . S
C1375 C1376 1.524 . S
C1375 H1378 0.999 . S
C1376 H1346 0.950 . S
C1376 C1375 1.524 . S
C1376 C1377 1.415 . S
C1377 H1347 0.950 . S
C1377 C1372 1.363 . S
C1377 C1376 1.415 . S
H1378 C1375 0.999 . S
H1379 C1360 0.913 . S
H1380 C1398 0.951 . S
H1381 C1400 0.951 . S
H1382 C1402 0.950 . S
H1383 C1403 0.950 . S
H1384 C1405 0.950 . S
H1385 C1408 0.950 . S
H1386 C1409 0.950 . S
H1387 C1411 0.950 . S
H1388 C1412 0.950 . S
H1389 C1413 0.951 . S
H1390 C1415 0.951 . S
H1391 C1417 0.950 . S
H1392 C1418 0.950 . S
H1393 C1420 0.950 . S
H1394 C1423 0.950 . S
H1395 C1424 0.950 . S
H1396 C1426 0.950 . S
H1397 C1427 0.950 . S
C1398 H1380 0.951 . S
C1398 C1399 1.366 . S
C1398 C1400 1.388 . S
C1399 C1398 1.366 . S
C1399 C1403 1.385 . S
C1400 H1381 0.951 . S
C1400 C1398 1.388 . S
C1400 C1401 1.366 . S
C1401 C1400 1.366 . S
C1401 C1402 1.414 . S
C1401 C1404 1.499 . S
C1402 H1382 0.950 . S
C1402 C1401 1.414 . S
C1402 C1403 1.374 . S
C1403 H1383 0.950 . S
C1403 C1399 1.385 . S
C1403 C1402 1.374 . S
C1404 C1401 1.499 . S
C1404 C1405 1.373 1_545 S
C1404 C1406 1.389 . S
C1405 H1384 0.950 . S
C1405 C1404 1.373 1_565 S
C1405 C1421 1.377 . S
C1406 C1404 1.389 . S
C1406 C1407 1.524 . S
C1406 C1420 1.377 . S
C1407 C1406 1.524 . S
C1407 C1408 1.397 . S
C1407 C1412 1.363 . S
C1408 H1385 0.950 . S
C1408 C1407 1.397 . S
C1408 C1409 1.334 . S
C1409 H1386 0.950 . S
C1409 C1408 1.334 . S
C1409 C1410 1.287 . S
C1410 C1409 1.287 . S
C1410 C1411 1.524 . S
C1410 H1429 0.913 . S
C1411 H1387 0.950 . S
C1411 C1410 1.524 . S
C1411 C1412 1.415 . S
C1412 H1388 0.950 . S
C1412 C1407 1.363 . S
C1412 C1411 1.415 . S
C1413 H1389 0.951 . S
C1413 C1414 1.366 . S
C1413 C1415 1.388 . S
C1414 C1413 1.366 . S
C1414 C1418 1.385 . S
C1415 H1390 0.951 . S
C1415 C1413 1.388 . S
C1415 C1416 1.366 . S
C1416 C1415 1.366 . S
C1416 C1417 1.414 . S
C1416 C1419 1.499 . S
C1417 H1391 0.950 . S
C1417 C1416 1.414 . S
C1417 C1418 1.374 . S
C1418 H1392 0.950 . S
C1418 C1414 1.385 . S
C1418 C1417 1.374 . S
C1419 C1416 1.499 . S
C1419 C1420 1.373 1_565 S
C1419 C1421 1.389 . S
C1420 H1393 0.950 . S
C1420 C1406 1.377 . S
C1420 C1419 1.373 1_545 S
C1421 C1405 1.377 . S
C1421 C1419 1.389 . S
C1421 C1422 1.524 . S
C1422 C1421 1.524 . S
C1422 C1423 1.397 . S
C1422 C1427 1.363 . S
C1423 H1394 0.950 . S
C1423 C1422 1.397 . S
C1423 C1424 1.334 . S
C1424 H1395 0.950 . S
C1424 C1423 1.334 . S
C1424 C1425 1.287 . S
C1425 C1424 1.287 . S
C1425 C1426 1.524 . S
C1425 H1428 0.999 . S
C1426 H1396 0.950 . S
C1426 C1425 1.524 . S
C1426 C1427 1.415 . S
C1427 H1397 0.950 . S
C1427 C1422 1.363 . S
C1427 C1426 1.415 . S
H1428 C1425 0.999 . S
H1429 C1410 0.913 . S
H1430 C1448 0.951 . S
H1431 C1450 0.951 . S
H1432 C1452 0.950 . S
H1433 C1453 0.950 . S
H1434 C1455 0.950 . S
H1435 C1458 0.950 . S
H1436 C1459 0.950 . S
H1437 C1461 0.950 . S
H1438 C1462 0.950 . S
H1439 C1463 0.951 . S
H1440 C1465 0.951 . S
H1441 C1467 0.950 . S
H1442 C1468 0.950 . S
H1443 C1470 0.950 . S
H1444 C1473 0.950 . S
H1445 C1474 0.950 . S
H1446 C1476 0.950 . S
H1447 C1477 0.950 . S
C1448 H1430 0.951 . S
C1448 C1449 1.366 . S
C1448 C1450 1.388 . S
C1449 C1448 1.366 . S
C1449 C1453 1.385 . S
C1450 H1431 0.951 . S
C1450 C1448 1.388 . S
C1450 C1451 1.366 . S
C1451 C1450 1.366 . S
C1451 C1452 1.414 . S
C1451 C1454 1.499 . S
C1452 H1432 0.950 . S
C1452 C1451 1.414 . S
C1452 C1453 1.374 . S
C1453 H1433 0.950 . S
C1453 C1449 1.385 . S
C1453 C1452 1.374 . S
C1454 C1451 1.499 . S
C1454 C1455 1.373 . S
C1454 C1456 1.389 . S
C1455 H1434 0.950 . S
C1455 C1454 1.373 . S
C1455 C1471 1.377 . S
C1456 C1454 1.389 . S
C1456 C1457 1.524 . S
C1456 C1470 1.377 . S
C1457 C1456 1.524 . S
C1457 C1458 1.397 . S
C1457 C1462 1.363 . S
C1458 H1435 0.950 . S
C1458 C1457 1.397 . S
C1458 C1459 1.334 . S
C1459 H1436 0.950 . S
C1459 C1458 1.334 . S
C1459 C1460 1.287 . S
C1460 C1459 1.287 . S
C1460 C1461 1.524 . S
C1460 H1479 0.913 . S
C1461 H1437 0.950 . S
C1461 C1460 1.524 . S
C1461 C1462 1.415 . S
C1462 H1438 0.950 . S
C1462 C1457 1.363 . S
C1462 C1461 1.415 . S
C1463 H1439 0.951 . S
C1463 C1464 1.366 . S
C1463 C1465 1.388 . S
C1464 C1463 1.366 . S
C1464 C1468 1.385 . S
C1465 H1440 0.951 . S
C1465 C1463 1.388 . S
C1465 C1466 1.366 . S
C1466 C1465 1.366 . S
C1466 C1467 1.414 . S
C1466 C1469 1.499 . S
C1467 H1441 0.950 . S
C1467 C1466 1.414 . S
C1467 C1468 1.374 . S
C1468 H1442 0.950 . S
C1468 C1464 1.385 . S
C1468 C1467 1.374 . S
C1469 C1466 1.499 . S
C1469 C1470 1.373 . S
C1469 C1471 1.389 . S
C1470 H1443 0.950 . S
C1470 C1456 1.377 . S
C1470 C1469 1.373 . S
C1471 C1455 1.377 . S
C1471 C1469 1.389 . S
C1471 C1472 1.524 . S
C1472 C1471 1.524 . S
C1472 C1473 1.397 . S
C1472 C1477 1.363 . S
C1473 H1444 0.950 . S
C1473 C1472 1.397 . S
C1473 C1474 1.334 . S
C1474 H1445 0.950 . S
C1474 C1473 1.334 . S
C1474 C1475 1.287 . S
C1475 C1474 1.287 . S
C1475 C1476 1.524 . S
C1475 H1478 0.999 . S
C1476 H1446 0.950 . S
C1476 C1475 1.524 . S
C1476 C1477 1.415 . S
C1477 H1447 0.950 . S
C1477 C1472 1.363 . S
C1477 C1476 1.415 . S
H1478 C1475 0.999 . S
H1479 C1460 0.913 . S
H1480 C1498 0.951 . S
H1481 C1500 0.951 . S
H1482 C1502 0.950 . S
H1483 C1503 0.950 . S
H1484 C1505 0.950 . S
H1485 C1508 0.950 1_655 S
H1486 C1509 0.950 . S
H1487 C1511 0.950 . S
H1488 C1512 0.950 . S
H1489 C1513 0.951 . S
H1490 C1515 0.951 . S
H1491 C1517 0.950 . S
H1492 C1518 0.950 . S
H1493 C1520 0.950 . S
H1494 C1523 0.950 1_455 S
H1495 C1524 0.950 . S
H1496 C1526 0.950 . S
H1497 C1527 0.950 . S
C1498 H1480 0.951 . S
C1498 C1499 1.366 . S
C1498 C1500 1.388 . S
C1499 C1498 1.366 . S
C1499 C1503 1.385 . S
C1500 H1481 0.951 . S
C1500 C1498 1.388 . S
C1500 C1501 1.366 . S
C1501 C1500 1.366 . S
C1501 C1502 1.414 . S
C1501 C1504 1.499 . S
C1502 H1482 0.950 . S
C1502 C1501 1.414 . S
C1502 C1503 1.374 . S
C1503 H1483 0.950 . S
C1503 C1499 1.385 . S
C1503 C1502 1.374 . S
C1504 C1501 1.499 . S
C1504 C1505 1.373 . S
C1504 C1506 1.389 1_655 S
C1505 H1484 0.950 . S
C1505 C1504 1.373 . S
C1505 C1521 1.377 . S
C1506 C1504 1.389 1_455 S
C1506 C1507 1.524 . S
C1506 C1520 1.377 . S
C1507 C1506 1.524 . S
C1507 C1508 1.397 . S
C1507 C1512 1.363 . S
C1508 H1485 0.950 1_455 S
C1508 C1507 1.397 . S
C1508 C1509 1.334 . S
C1509 H1486 0.950 . S
C1509 C1508 1.334 . S
C1509 C1510 1.287 . S
C1510 C1509 1.287 . S
C1510 C1511 1.524 . S
C1510 H1529 0.913 . S
C1511 H1487 0.950 . S
C1511 C1510 1.524 . S
C1511 C1512 1.415 . S
C1512 H1488 0.950 . S
C1512 C1507 1.363 . S
C1512 C1511 1.415 . S
C1513 H1489 0.951 . S
C1513 C1514 1.366 . S
C1513 C1515 1.388 . S
C1514 C1513 1.366 . S
C1514 C1518 1.385 . S
C1515 H1490 0.951 . S
C1515 C1513 1.388 . S
C1515 C1516 1.366 . S
C1516 C1515 1.366 . S
C1516 C1517 1.414 . S
C1516 C1519 1.499 . S
C1517 H1491 0.950 . S
C1517 C1516 1.414 . S
C1517 C1518 1.374 . S
C1518 H1492 0.950 . S
C1518 C1514 1.385 . S
C1518 C1517 1.374 . S
C1519 C1516 1.499 . S
C1519 C1520 1.373 . S
C1519 C1521 1.389 1_455 S
C1520 H1493 0.950 . S
C1520 C1506 1.377 . S
C1520 C1519 1.373 . S
C1521 C1505 1.377 . S
C1521 C1519 1.389 1_655 S
C1521 C1522 1.524 . S
C1522 C1521 1.524 . S
C1522 C1523 1.397 . S
C1522 C1527 1.363 . S
C1523 H1494 0.950 1_655 S
C1523 C1522 1.397 . S
C1523 C1524 1.334 . S
C1524 H1495 0.950 . S
C1524 C1523 1.334 . S
C1524 C1525 1.287 . S
C1525 C1524 1.287 . S
C1525 C1526 1.524 . S
C1525 H1528 0.999 . S
C1526 H1496 0.950 . S
C1526 C1525 1.524 . S
C1526 C1527 1.415 . S
C1527 H1497 0.950 . S
C1527 C1522 1.363 . S
C1527 C1526 1.415 . S
H1528 C1525 0.999 . S
H1529 C1510 0.913 . S
H1530 C1548 0.951 . S
H1531 C1550 0.951 . S
H1532 C1552 0.950 . S
H1533 C1553 0.950 . S
H1534 C1555 0.950 . S
H1535 C1558 0.950 . S
H1536 C1559 0.950 . S
H1537 C1561 0.950 . S
H1538 C1562 0.950 . S
H1539 C1563 0.951 . S
H1540 C1565 0.951 . S
H1541 C1567 0.950 . S
H1542 C1568 0.950 . S
H1543 C1570 0.950 . S
H1544 C1573 0.950 . S
H1545 C1574 0.950 . S
H1546 C1576 0.950 . S
H1547 C1577 0.950 . S
C1548 H1530 0.951 . S
C1548 C1549 1.366 . S
C1548 C1550 1.388 . S
C1549 C1548 1.366 . S
C1549 C1553 1.385 . S
C1550 H1531 0.951 . S
C1550 C1548 1.388 . S
C1550 C1551 1.366 . S
C1551 C1550 1.366 . S
C1551 C1552 1.414 . S
C1551 C1554 1.499 . S
C1552 H1532 0.950 . S
C1552 C1551 1.414 . S
C1552 C1553 1.374 . S
C1553 H1533 0.950 . S
C1553 C1549 1.385 . S
C1553 C1552 1.374 . S
C1554 C1551 1.499 . S
C1554 C1555 1.373 1_455 S
C1554 C1556 1.389 . S
C1555 H1534 0.950 . S
C1555 C1554 1.373 1_655 S
C1555 C1571 1.377 . S
C1556 C1554 1.389 . S
C1556 C1557 1.524 . S
C1556 C1570 1.377 . S
C1557 C1556 1.524 . S
C1557 C1558 1.397 . S
C1557 C1562 1.363 . S
C1558 H1535 0.950 . S
C1558 C1557 1.397 . S
C1558 C1559 1.334 . S
C1559 H1536 0.950 . S
C1559 C1558 1.334 . S
C1559 C1560 1.287 . S
C1560 C1559 1.287 . S
C1560 C1561 1.524 . S
C1560 H1579 0.913 . S
C1561 H1537 0.950 . S
C1561 C1560 1.524 . S
C1561 C1562 1.415 . S
C1562 H1538 0.950 . S
C1562 C1557 1.363 . S
C1562 C1561 1.415 . S
C1563 H1539 0.951 . S
C1563 C1564 1.366 . S
C1563 C1565 1.388 . S
C1564 C1563 1.366 . S
C1564 C1568 1.385 . S
C1565 H1540 0.951 . S
C1565 C1563 1.388 . S
C1565 C1566 1.366 . S
C1566 C1565 1.366 . S
C1566 C1567 1.414 . S
C1566 C1569 1.499 . S
C1567 H1541 0.950 . S
C1567 C1566 1.414 . S
C1567 C1568 1.374 . S
C1568 H1542 0.950 . S
C1568 C1564 1.385 . S
C1568 C1567 1.374 . S
C1569 C1566 1.499 . S
C1569 C1570 1.373 1_655 S
C1569 C1571 1.389 . S
C1570 H1543 0.950 . S
C1570 C1556 1.377 . S
C1570 C1569 1.373 1_455 S
C1571 C1555 1.377 . S
C1571 C1569 1.389 . S
C1571 C1572 1.524 . S
C1572 C1571 1.524 . S
C1572 C1573 1.397 . S
C1572 C1577 1.363 . S
C1573 H1544 0.950 . S
C1573 C1572 1.397 . S
C1573 C1574 1.334 . S
C1574 H1545 0.950 . S
C1574 C1573 1.334 . S
C1574 C1575 1.287 . S
C1575 C1574 1.287 . S
C1575 C1576 1.524 . S
C1575 H1578 0.999 . S
C1576 H1546 0.950 . S
C1576 C1575 1.524 . S
C1576 C1577 1.415 . S
C1577 H1547 0.950 . S
C1577 C1572 1.363 . S
C1577 C1576 1.415 . S
H1578 C1575 0.999 . S
H1579 C1560 0.913 . S
H1580 C1598 0.951 . S
H1581 C1600 0.951 . S
H1582 C1602 0.950 . S
H1583 C1603 0.950 . S
H1584 C1605 0.950 . S
H1585 C1608 0.950 . S
H1586 C1609 0.950 . S
H1587 C1611 0.950 . S
H1588 C1612 0.950 . S
H1589 C1613 0.951 . S
H1590 C1615 0.951 . S
H1591 C1617 0.950 . S
H1592 C1618 0.950 . S
H1593 C1620 0.950 . S
H1594 C1623 0.950 . S
H1595 C1624 0.950 . S
H1596 C1626 0.950 . S
H1597 C1627 0.950 . S
C1598 H1580 0.951 . S
C1598 C1599 1.366 . S
C1598 C1600 1.388 . S
C1599 C1598 1.366 . S
C1599 C1603 1.385 . S
C1600 H1581 0.951 . S
C1600 C1598 1.388 . S
C1600 C1601 1.366 . S
C1601 C1600 1.366 . S
C1601 C1602 1.414 . S
C1601 C1604 1.499 . S
C1602 H1582 0.950 . S
C1602 C1601 1.414 . S
C1602 C1603 1.374 . S
C1603 H1583 0.950 . S
C1603 C1599 1.385 . S
C1603 C1602 1.374 . S
C1604 C1601 1.499 . S
C1604 C1605 1.373 1_565 S
C1604 C1606 1.389 . S
C1605 H1584 0.950 . S
C1605 C1604 1.373 1_545 S
C1605 C1621 1.377 . S
C1606 C1604 1.389 . S
C1606 C1607 1.524 . S
C1606 C1620 1.377 . S
C1607 C1606 1.524 . S
C1607 C1608 1.397 . S
C1607 C1612 1.363 . S
C1608 H1585 0.950 . S
C1608 C1607 1.397 . S
C1608 C1609 1.334 . S
C1609 H1586 0.950 . S
C1609 C1608 1.334 . S
C1609 C1610 1.287 . S
C1610 C1609 1.287 . S
C1610 C1611 1.524 . S
C1610 H1629 0.913 . S
C1611 H1587 0.950 . S
C1611 C1610 1.524 . S
C1611 C1612 1.415 . S
C1612 H1588 0.950 . S
C1612 C1607 1.363 . S
C1612 C1611 1.415 . S
C1613 H1589 0.951 . S
C1613 C1614 1.366 . S
C1613 C1615 1.388 . S
C1614 C1613 1.366 . S
C1614 C1618 1.385 . S
C1615 H1590 0.951 . S
C1615 C1613 1.388 . S
C1615 C1616 1.366 . S
C1616 C1615 1.366 . S
C1616 C1617 1.414 . S
C1616 C1619 1.499 . S
C1617 H1591 0.950 . S
C1617 C1616 1.414 . S
C1617 C1618 1.374 . S
C1618 H1592 0.950 . S
C1618 C1614 1.385 . S
C1618 C1617 1.374 . S
C1619 C1616 1.499 . S
C1619 C1620 1.373 1_545 S
C1619 C1621 1.389 . S
C1620 H1593 0.950 . S
C1620 C1606 1.377 . S
C1620 C1619 1.373 1_565 S
C1621 C1605 1.377 . S
C1621 C1619 1.389 . S
C1621 C1622 1.524 . S
C1622 C1621 1.524 . S
C1622 C1623 1.397 . S
C1622 C1627 1.363 . S
C1623 H1594 0.950 . S
C1623 C1622 1.397 . S
C1623 C1624 1.334 . S
C1624 H1595 0.950 . S
C1624 C1623 1.334 . S
C1624 C1625 1.287 . S
C1625 C1624 1.287 . S
C1625 C1626 1.524 . S
C1625 H1628 0.999 . S
C1626 H1596 0.950 . S
C1626 C1625 1.524 . S
C1626 C1627 1.415 . S
C1627 H1597 0.950 . S
C1627 C1622 1.363 . S
C1627 C1626 1.415 . S
H1628 C1625 0.999 . S
H1629 C1610 0.913 . S
H1630 C1648 0.951 . S
H1631 C1650 0.951 . S
H1632 C1652 0.950 . S
H1633 C1653 0.950 . S
H1634 C1655 0.950 . S
H1635 C1658 0.950 . S
H1636 C1659 0.950 . S
H1637 C1661 0.950 . S
H1638 C1662 0.950 . S
H1639 C1663 0.951 . S
H1640 C1665 0.951 . S
H1641 C1667 0.950 . S
H1642 C1668 0.950 . S
H1643 C1670 0.950 . S
H1644 C1673 0.950 . S
H1645 C1674 0.950 . S
H1646 C1676 0.950 . S
H1647 C1677 0.950 . S
C1648 H1630 0.951 . S
C1648 C1649 1.366 . S
C1648 C1650 1.388 . S
C1649 C1648 1.366 . S
C1649 C1653 1.385 . S
C1650 H1631 0.951 . S
C1650 C1648 1.388 . S
C1650 C1651 1.366 . S
C1651 C1650 1.366 . S
C1651 C1652 1.414 . S
C1651 C1654 1.499 . S
C1652 H1632 0.950 . S
C1652 C1651 1.414 . S
C1652 C1653 1.374 . S
C1653 H1633 0.950 . S
C1653 C1649 1.385 . S
C1653 C1652 1.374 . S
C1654 C1651 1.499 . S
C1654 C1655 1.373 . S
C1654 C1656 1.389 . S
C1655 H1634 0.950 . S
C1655 C1654 1.373 . S
C1655 C1671 1.377 . S
C1656 C1654 1.389 . S
C1656 C1657 1.524 . S
C1656 C1670 1.377 . S
C1657 C1656 1.524 . S
C1657 C1658 1.397 . S
C1657 C1662 1.363 . S
C1658 H1635 0.950 . S
C1658 C1657 1.397 . S
C1658 C1659 1.334 1_554 S
C1659 H1636 0.950 . S
C1659 C1658 1.334 1_556 S
C1659 C1660 1.287 . S
C1660 C1659 1.287 . S
C1660 C1661 1.524 . S
C1660 H1679 0.913 . S
C1661 H1637 0.950 . S
C1661 C1660 1.524 . S
C1661 C1662 1.415 1_556 S
C1662 H1638 0.950 . S
C1662 C1657 1.363 . S
C1662 C1661 1.415 1_554 S
C1663 H1639 0.951 . S
C1663 C1664 1.366 . S
C1663 C1665 1.388 . S
C1664 C1663 1.366 . S
C1664 C1668 1.385 . S
C1665 H1640 0.951 . S
C1665 C1663 1.388 . S
C1665 C1666 1.366 . S
C1666 C1665 1.366 . S
C1666 C1667 1.414 . S
C1666 C1669 1.499 . S
C1667 H1641 0.950 . S
C1667 C1666 1.414 . S
C1667 C1668 1.374 . S
C1668 H1642 0.950 . S
C1668 C1664 1.385 . S
C1668 C1667 1.374 . S
C1669 C1666 1.499 . S
C1669 C1670 1.373 . S
C1669 C1671 1.389 . S
C1670 H1643 0.950 . S
C1670 C1656 1.377 . S
C1670 C1669 1.373 . S
C1671 C1655 1.377 . S
C1671 C1669 1.389 . S
C1671 C1672 1.524 . S
C1672 C1671 1.524 . S
C1672 C1673 1.397 . S
C1672 C1677 1.363 . S
C1673 H1644 0.950 . S
C1673 C1672 1.397 . S
C1673 C1674 1.334 . S
C1674 H1645 0.950 . S
C1674 C1673 1.334 . S
C1674 C1675 1.287 . S
C1675 C1674 1.287 . S
C1675 C1676 1.524 . S
C1675 H1678 0.999 . S
C1676 H1646 0.950 . S
C1676 C1675 1.524 . S
C1676 C1677 1.415 . S
C1677 H1647 0.950 . S
C1677 C1672 1.363 . S
C1677 C1676 1.415 . S
H1678 C1675 0.999 . S
H1679 C1660 0.913 . S
H1680 C1698 0.951 . S
H1681 C1700 0.951 . S
H1682 C1702 0.950 . S
H1683 C1703 0.950 . S
H1684 C1705 0.950 . S
H1685 C1708 0.950 . S
H1686 C1709 0.950 . S
H1687 C1711 0.950 . S
H1688 C1712 0.950 . S
H1689 C1713 0.951 . S
H1690 C1715 0.951 . S
H1691 C1717 0.950 . S
H1692 C1718 0.950 . S
H1693 C1720 0.950 . S
H1694 C1723 0.950 . S
H1695 C1724 0.950 . S
H1696 C1726 0.950 . S
H1697 C1727 0.950 . S
C1698 H1680 0.951 . S
C1698 C1699 1.366 . S
C1698 C1700 1.388 . S
C1699 C1698 1.366 . S
C1699 C1703 1.385 . S
C1700 H1681 0.951 . S
C1700 C1698 1.388 . S
C1700 C1701 1.366 . S
C1701 C1700 1.366 . S
C1701 C1702 1.414 . S
C1701 C1704 1.499 . S
C1702 H1682 0.950 . S
C1702 C1701 1.414 . S
C1702 C1703 1.374 . S
C1703 H1683 0.950 . S
C1703 C1699 1.385 . S
C1703 C1702 1.374 . S
C1704 C1701 1.499 . S
C1704 C1705 1.373 . S
C1704 C1706 1.389 . S
C1705 H1684 0.950 . S
C1705 C1704 1.373 . S
C1705 C1721 1.377 1_565 S
C1706 C1704 1.389 . S
C1706 C1707 1.524 . S
C1706 C1720 1.377 1_565 S
C1707 C1706 1.524 . S
C1707 C1708 1.397 . S
C1707 C1712 1.363 . S
C1708 H1685 0.950 . S
C1708 C1707 1.397 . S
C1708 C1709 1.334 . S
C1709 H1686 0.950 . S
C1709 C1708 1.334 . S
C1709 C1710 1.287 . S
C1710 C1709 1.287 . S
C1710 C1711 1.524 . S
C1710 H1729 0.913 . S
C1711 H1687 0.950 . S
C1711 C1710 1.524 . S
C1711 C1712 1.415 . S
C1712 H1688 0.950 . S
C1712 C1707 1.363 . S
C1712 C1711 1.415 . S
C1713 H1689 0.951 . S
C1713 C1714 1.366 . S
C1713 C1715 1.388 . S
C1714 C1713 1.366 . S
C1714 C1718 1.385 . S
C1715 H1690 0.951 . S
C1715 C1713 1.388 . S
C1715 C1716 1.366 . S
C1716 C1715 1.366 . S
C1716 C1717 1.414 . S
C1716 C1719 1.499 . S
C1717 H1691 0.950 . S
C1717 C1716 1.414 . S
C1717 C1718 1.374 . S
C1718 H1692 0.950 . S
C1718 C1714 1.385 . S
C1718 C1717 1.374 . S
C1719 C1716 1.499 . S
C1719 C1720 1.373 . S
C1719 C1721 1.389 . S
C1720 H1693 0.950 . S
C1720 C1706 1.377 1_545 S
C1720 C1719 1.373 . S
C1721 C1705 1.377 1_545 S
C1721 C1719 1.389 . S
C1721 C1722 1.524 . S
C1722 C1721 1.524 . S
C1722 C1723 1.397 . S
C1722 C1727 1.363 . S
C1723 H1694 0.950 . S
C1723 C1722 1.397 . S
C1723 C1724 1.334 . S
C1724 H1695 0.950 . S
C1724 C1723 1.334 . S
C1724 C1725 1.287 . S
C1725 C1724 1.287 . S
C1725 C1726 1.524 . S
C1725 H1728 0.999 . S
C1726 H1696 0.950 . S
C1726 C1725 1.524 . S
C1726 C1727 1.415 . S
C1727 H1697 0.950 . S
C1727 C1722 1.363 . S
C1727 C1726 1.415 . S
H1728 C1725 0.999 . S
H1729 C1710 0.913 . S
H1730 C1748 0.951 . S
H1731 C1750 0.951 . S
H1732 C1752 0.950 . S
H1733 C1753 0.950 . S
H1734 C1755 0.950 . S
H1735 C1758 0.950 . S
H1736 C1759 0.950 . S
H1737 C1761 0.950 . S
H1738 C1762 0.950 . S
H1739 C1763 0.951 . S
H1740 C1765 0.951 . S
H1741 C1767 0.950 . S
H1742 C1768 0.950 . S
H1743 C1770 0.950 . S
H1744 C1773 0.950 . S
H1745 C1774 0.950 . S
H1746 C1776 0.950 . S
H1747 C1777 0.950 . S
C1748 H1730 0.951 . S
C1748 C1749 1.366 . S
C1748 C1750 1.388 . S
C1749 C1748 1.366 . S
C1749 C1753 1.385 . S
C1750 H1731 0.951 . S
C1750 C1748 1.388 . S
C1750 C1751 1.366 . S
C1751 C1750 1.366 . S
C1751 C1752 1.414 . S
C1751 C1754 1.499 . S
C1752 H1732 0.950 . S
C1752 C1751 1.414 . S
C1752 C1753 1.374 . S
C1753 H1733 0.950 . S
C1753 C1749 1.385 . S
C1753 C1752 1.374 . S
C1754 C1751 1.499 . S
C1754 C1755 1.373 . S
C1754 C1756 1.389 . S
C1755 H1734 0.950 . S
C1755 C1754 1.373 . S
C1755 C1771 1.377 . S
C1756 C1754 1.389 . S
C1756 C1757 1.524 . S
C1756 C1770 1.377 . S
C1757 C1756 1.524 . S
C1757 C1758 1.397 . S
C1757 C1762 1.363 . S
C1758 H1735 0.950 . S
C1758 C1757 1.397 . S
C1758 C1759 1.334 . S
C1759 H1736 0.950 . S
C1759 C1758 1.334 . S
C1759 C1760 1.287 . S
C1760 C1759 1.287 . S
C1760 C1761 1.524 . S
C1760 H1779 0.913 . S
C1761 H1737 0.950 . S
C1761 C1760 1.524 . S
C1761 C1762 1.415 . S
C1762 H1738 0.950 . S
C1762 C1757 1.363 . S
C1762 C1761 1.415 . S
C1763 H1739 0.951 . S
C1763 C1764 1.366 . S
C1763 C1765 1.388 . S
C1764 C1763 1.366 . S
C1764 C1768 1.385 . S
C1765 H1740 0.951 . S
C1765 C1763 1.388 . S
C1765 C1766 1.366 . S
C1766 C1765 1.366 . S
C1766 C1767 1.414 . S
C1766 C1769 1.499 . S
C1767 H1741 0.950 . S
C1767 C1766 1.414 . S
C1767 C1768 1.374 . S
C1768 H1742 0.950 . S
C1768 C1764 1.385 . S
C1768 C1767 1.374 . S
C1769 C1766 1.499 . S
C1769 C1770 1.373 . S
C1769 C1771 1.389 . S
C1770 H1743 0.950 . S
C1770 C1756 1.377 . S
C1770 C1769 1.373 . S
C1771 C1755 1.377 . S
C1771 C1769 1.389 . S
C1771 C1772 1.524 . S
C1772 C1771 1.524 . S
C1772 C1773 1.397 . S
C1772 C1777 1.363 . S
C1773 H1744 0.950 . S
C1773 C1772 1.397 . S
C1773 C1774 1.334 . S
C1774 H1745 0.950 . S
C1774 C1773 1.334 . S
C1774 C1775 1.287 . S
C1775 C1774 1.287 . S
C1775 C1776 1.524 . S
C1775 H1778 0.999 . S
C1776 H1746 0.950 . S
C1776 C1775 1.524 . S
C1776 C1777 1.415 . S
C1777 H1747 0.950 . S
C1777 C1772 1.363 . S
C1777 C1776 1.415 . S
H1778 C1775 0.999 . S
H1779 C1760 0.913 . S
H1780 C1798 0.951 . S
H1781 C1800 0.951 . S
H1782 C1802 0.950 . S
H1783 C1803 0.950 . S
H1784 C1805 0.950 . S
H1785 C1808 0.950 . S
H1786 C1809 0.950 . S
H1787 C1811 0.950 . S
H1788 C1812 0.950 . S
H1789 C1813 0.951 . S
H1790 C1815 0.951 . S
H1791 C1817 0.950 . S
H1792 C1818 0.950 . S
H1793 C1820 0.950 . S
H1794 C1823 0.950 . S
H1795 C1824 0.950 . S
H1796 C1826 0.950 . S
H1797 C1827 0.950 . S
C1798 H1780 0.951 . S
C1798 C1799 1.366 . S
C1798 C1800 1.388 . S
C1799 C1798 1.366 . S
C1799 C1803 1.385 . S
C1800 H1781 0.951 . S
C1800 C1798 1.388 . S
C1800 C1801 1.366 . S
C1801 C1800 1.366 . S
C1801 C1802 1.414 . S
C1801 C1804 1.499 . S
C1802 H1782 0.950 . S
C1802 C1801 1.414 . S
C1802 C1803 1.374 . S
C1803 H1783 0.950 . S
C1803 C1799 1.385 . S
C1803 C1802 1.374 . S
C1804 C1801 1.499 . S
C1804 C1805 1.373 . S
C1804 C1806 1.389 . S
C1805 H1784 0.950 . S
C1805 C1804 1.373 . S
C1805 C1821 1.377 1_655 S
C1806 C1804 1.389 . S
C1806 C1807 1.524 . S
C1806 C1820 1.377 1_655 S
C1807 C1806 1.524 . S
C1807 C1808 1.397 . S
C1807 C1812 1.363 . S
C1808 H1785 0.950 . S
C1808 C1807 1.397 . S
C1808 C1809 1.334 . S
C1809 H1786 0.950 . S
C1809 C1808 1.334 . S
C1809 C1810 1.287 . S
C1810 C1809 1.287 . S
C1810 C1811 1.524 . S
C1810 H1829 0.913 . S
C1811 H1787 0.950 . S
C1811 C1810 1.524 . S
C1811 C1812 1.415 . S
C1812 H1788 0.950 . S
C1812 C1807 1.363 . S
C1812 C1811 1.415 . S
C1813 H1789 0.951 . S
C1813 C1814 1.366 . S
C1813 C1815 1.388 . S
C1814 C1813 1.366 . S
C1814 C1818 1.385 . S
C1815 H1790 0.951 . S
C1815 C1813 1.388 . S
C1815 C1816 1.366 . S
C1816 C1815 1.366 . S
C1816 C1817 1.414 . S
C1816 C1819 1.499 . S
C1817 H1791 0.950 . S
C1817 C1816 1.414 . S
C1817 C1818 1.374 . S
C1818 H1792 0.950 . S
C1818 C1814 1.385 . S
C1818 C1817 1.374 . S
C1819 C1816 1.499 . S
C1819 C1820 1.373 . S
C1819 C1821 1.389 . S
C1820 H1793 0.950 . S
C1820 C1806 1.377 1_455 S
C1820 C1819 1.373 . S
C1821 C1805 1.377 1_455 S
C1821 C1819 1.389 . S
C1821 C1822 1.524 . S
C1822 C1821 1.524 . S
C1822 C1823 1.397 . S
C1822 C1827 1.363 . S
C1823 H1794 0.950 . S
C1823 C1822 1.397 . S
C1823 C1824 1.334 . S
C1824 H1795 0.950 . S
C1824 C1823 1.334 . S
C1824 C1825 1.287 . S
C1825 C1824 1.287 . S
C1825 C1826 1.524 . S
C1825 H1828 0.999 . S
C1826 H1796 0.950 . S
C1826 C1825 1.524 . S
C1826 C1827 1.415 . S
C1827 H1797 0.950 . S
C1827 C1822 1.363 . S
C1827 C1826 1.415 . S
H1828 C1825 0.999 . S
H1829 C1810 0.913 . S
H1830 C1848 0.951 . S
H1831 C1850 0.951 . S
H1832 C1852 0.950 . S
H1833 C1853 0.950 . S
H1834 C1855 0.950 . S
H1835 C1858 0.967 . S
H1836 C1859 0.950 . S
H1837 C1861 0.950 . S
H1838 C1862 0.950 . S
H1839 C1863 0.951 . S
H1840 C1865 0.951 . S
H1841 C1867 0.950 . S
H1842 C1868 0.950 . S
H1843 C1870 0.950 . S
H1844 C1873 0.967 . S
H1845 C1874 0.950 . S
H1846 C1876 0.950 . S
H1847 C1877 0.950 . S
C1848 H1830 0.951 . S
C1848 C1849 1.366 . S
C1848 C1850 1.388 . S
C1849 C1848 1.366 . S
C1849 C1853 1.385 . S
C1850 H1831 0.951 . S
C1850 C1848 1.388 . S
C1850 C1851 1.366 . S
C1851 C1850 1.366 . S
C1851 C1852 1.414 . S
C1851 C1854 1.499 . S
C1852 H1832 0.950 . S
C1852 C1851 1.414 . S
C1852 C1853 1.374 . S
C1853 H1833 0.950 . S
C1853 C1849 1.385 . S
C1853 C1852 1.374 . S
C1854 C1851 1.499 . S
C1854 C1855 1.373 . S
C1854 C1856 1.389 . S
C1855 H1834 0.950 . S
C1855 C1854 1.373 . S
C1855 C1871 1.377 1_545 S
C1856 C1854 1.389 . S
C1856 C1857 1.524 . S
C1856 C1870 1.377 1_545 S
C1857 C1856 1.524 . S
C1857 C1858 1.397 . S
C1857 C1862 1.363 . S
C1858 H1835 0.967 . S
C1858 C1857 1.397 . S
C1858 C1859 1.334 . S
C1859 H1836 0.950 . S
C1859 C1858 1.334 . S
C1859 C1860 1.287 . S
C1860 C1859 1.287 . S
C1860 C1861 1.524 . S
C1860 H1879 0.913 . S
C1861 H1837 0.950 . S
C1861 C1860 1.524 . S
C1861 C1862 1.415 . S
C1862 H1838 0.950 . S
C1862 C1857 1.363 . S
C1862 C1861 1.415 . S
C1863 H1839 0.951 . S
C1863 C1864 1.366 . S
C1863 C1865 1.388 . S
C1864 C1863 1.366 . S
C1864 C1868 1.385 . S
C1865 H1840 0.951 . S
C1865 C1863 1.388 . S
C1865 C1866 1.366 . S
C1866 C1865 1.366 . S
C1866 C1867 1.414 . S
C1866 C1869 1.499 . S
C1867 H1841 0.950 . S
C1867 C1866 1.414 . S
C1867 C1868 1.374 . S
C1868 H1842 0.950 . S
C1868 C1864 1.385 . S
C1868 C1867 1.374 . S
C1869 C1866 1.499 . S
C1869 C1870 1.373 . S
C1869 C1871 1.389 . S
C1870 H1843 0.950 . S
C1870 C1856 1.377 1_565 S
C1870 C1869 1.373 . S
C1871 C1855 1.377 1_565 S
C1871 C1869 1.389 . S
C1871 C1872 1.524 . S
C1872 C1871 1.524 . S
C1872 C1873 1.397 . S
C1872 C1877 1.363 . S
C1873 H1844 0.967 . S
C1873 C1872 1.397 . S
C1873 C1874 1.334 . S
C1874 H1845 0.950 . S
C1874 C1873 1.334 . S
C1874 C1875 1.287 . S
C1875 C1874 1.287 . S
C1875 C1876 1.524 . S
C1875 H1878 0.999 . S
C1876 H1846 0.950 . S
C1876 C1875 1.524 . S
C1876 C1877 1.415 . S
C1877 H1847 0.950 . S
C1877 C1872 1.363 . S
C1877 C1876 1.415 . S
H1878 C1875 0.999 . S
H1879 C1860 0.913 . S
H1880 C1898 0.951 . S
H1881 C1900 0.951 . S
H1882 C1902 0.950 . S
H1883 C1903 0.950 . S
H1884 C1905 0.950 . S
H1885 C1908 0.950 . S
H1886 C1909 0.950 . S
H1887 C1911 0.950 . S
H1888 C1912 0.950 . S
H1889 C1913 0.951 . S
H1890 C1915 0.951 . S
H1891 C1917 0.950 . S
H1892 C1918 0.950 . S
H1893 C1920 0.950 . S
H1894 C1923 0.950 . S
H1895 C1924 0.950 . S
H1896 C1926 0.950 . S
H1897 C1927 0.950 . S
C1898 H1880 0.951 . S
C1898 C1899 1.366 . S
C1898 C1900 1.388 . S
C1899 C1898 1.366 . S
C1899 C1903 1.385 . S
C1900 H1881 0.951 . S
C1900 C1898 1.388 . S
C1900 C1901 1.366 . S
C1901 C1900 1.366 . S
C1901 C1902 1.414 . S
C1901 C1904 1.499 . S
C1902 H1882 0.950 . S
C1902 C1901 1.414 . S
C1902 C1903 1.374 . S
C1903 H1883 0.950 . S
C1903 C1899 1.385 . S
C1903 C1902 1.374 . S
C1904 C1901 1.499 . S
C1904 C1905 1.373 . S
C1904 C1906 1.389 . S
C1905 H1884 0.950 . S
C1905 C1904 1.373 . S
C1905 C1921 1.377 . S
C1906 C1904 1.389 . S
C1906 C1907 1.524 . S
C1906 C1920 1.377 . S
C1907 C1906 1.524 . S
C1907 C1908 1.397 . S
C1907 C1912 1.363 . S
C1908 H1885 0.950 . S
C1908 C1907 1.397 . S
C1908 C1909 1.334 . S
C1909 H1886 0.950 . S
C1909 C1908 1.334 . S
C1909 C1910 1.287 . S
C1910 C1909 1.287 . S
C1910 C1911 1.524 . S
C1910 H1929 0.913 . S
C1911 H1887 0.950 . S
C1911 C1910 1.524 . S
C1911 C1912 1.415 . S
C1912 H1888 0.950 . S
C1912 C1907 1.363 . S
C1912 C1911 1.415 . S
C1913 H1889 0.951 . S
C1913 C1914 1.366 . S
C1913 C1915 1.388 . S
C1914 C1913 1.366 . S
C1914 C1918 1.385 . S
C1915 H1890 0.951 . S
C1915 C1913 1.388 . S
C1915 C1916 1.366 . S
C1916 C1915 1.366 . S
C1916 C1917 1.414 . S
C1916 C1919 1.499 . S
C1917 H1891 0.950 . S
C1917 C1916 1.414 . S
C1917 C1918 1.374 . S
C1918 H1892 0.950 . S
C1918 C1914 1.385 . S
C1918 C1917 1.374 . S
C1919 C1916 1.499 . S
C1919 C1920 1.373 . S
C1919 C1921 1.389 . S
C1920 H1893 0.950 . S
C1920 C1906 1.377 . S
C1920 C1919 1.373 . S
C1921 C1905 1.377 . S
C1921 C1919 1.389 . S
C1921 C1922 1.524 . S
C1922 C1921 1.524 . S
C1922 C1923 1.397 . S
C1922 C1927 1.363 . S
C1923 H1894 0.950 . S
C1923 C1922 1.397 . S
C1923 C1924 1.334 . S
C1924 H1895 0.950 . S
C1924 C1923 1.334 . S
C1924 C1925 1.287 . S
C1925 C1924 1.287 . S
C1925 C1926 1.524 . S
C1925 H1928 0.999 . S
C1926 H1896 0.950 . S
C1926 C1925 1.524 . S
C1926 C1927 1.415 . S
C1927 H1897 0.950 . S
C1927 C1922 1.363 . S
C1927 C1926 1.415 . S
H1928 C1925 0.999 . S
H1929 C1910 0.913 . S
H1930 C1948 0.951 . S
H1931 C1950 0.951 . S
H1932 C1952 0.950 . S
H1933 C1953 0.950 . S
H1934 C1955 0.950 . S
H1935 C1958 0.950 . S
H1936 C1959 0.950 . S
H1937 C1961 0.950 . S
H1938 C1962 0.950 . S
H1939 C1963 0.951 . S
H1940 C1965 0.951 . S
H1941 C1967 0.950 . S
H1942 C1968 0.950 . S
H1943 C1970 0.950 . S
H1944 C1973 0.950 . S
H1945 C1974 0.950 . S
H1946 C1976 0.950 . S
H1947 C1977 0.950 . S
C1948 H1930 0.951 . S
C1948 C1949 1.366 . S
C1948 C1950 1.388 . S
C1949 C1948 1.366 . S
C1949 C1953 1.385 . S
C1950 H1931 0.951 . S
C1950 C1948 1.388 . S
C1950 C1951 1.366 . S
C1951 C1950 1.366 . S
C1951 C1952 1.414 . S
C1951 C1954 1.499 . S
C1952 H1932 0.950 . S
C1952 C1951 1.414 . S
C1952 C1953 1.374 . S
C1953 H1933 0.950 . S
C1953 C1949 1.385 . S
C1953 C1952 1.374 . S
C1954 C1951 1.499 . S
C1954 C1955 1.373 . S
C1954 C1956 1.389 . S
C1955 H1934 0.950 . S
C1955 C1954 1.373 . S
C1955 C1971 1.377 1_455 S
C1956 C1954 1.389 . S
C1956 C1957 1.524 . S
C1956 C1970 1.377 1_455 S
C1957 C1956 1.524 . S
C1957 C1958 1.397 . S
C1957 C1962 1.363 1_455 S
C1958 H1935 0.950 . S
C1958 C1957 1.397 . S
C1958 C1959 1.334 . S
C1959 H1936 0.950 . S
C1959 C1958 1.334 . S
C1959 C1960 1.287 . S
C1960 C1959 1.287 . S
C1960 C1961 1.524 1_455 S
C1960 H1979 0.913 . S
C1961 H1937 0.950 . S
C1961 C1960 1.524 1_655 S
C1961 C1962 1.415 . S
C1962 H1938 0.950 . S
C1962 C1957 1.363 1_655 S
C1962 C1961 1.415 . S
C1963 H1939 0.951 . S
C1963 C1964 1.366 . S
C1963 C1965 1.388 . S
C1964 C1963 1.366 . S
C1964 C1968 1.385 . S
C1965 H1940 0.951 . S
C1965 C1963 1.388 . S
C1965 C1966 1.366 . S
C1966 C1965 1.366 . S
C1966 C1967 1.414 . S
C1966 C1969 1.499 . S
C1967 H1941 0.950 . S
C1967 C1966 1.414 . S
C1967 C1968 1.374 . S
C1968 H1942 0.950 . S
C1968 C1964 1.385 . S
C1968 C1967 1.374 . S
C1969 C1966 1.499 . S
C1969 C1970 1.373 . S
C1969 C1971 1.389 . S
C1970 H1943 0.950 . S
C1970 C1956 1.377 1_655 S
C1970 C1969 1.373 . S
C1971 C1955 1.377 1_655 S
C1971 C1969 1.389 . S
C1971 C1972 1.524 . S
C1972 C1971 1.524 . S
C1972 C1973 1.397 . S
C1972 C1977 1.363 1_655 S
C1973 H1944 0.950 . S
C1973 C1972 1.397 . S
C1973 C1974 1.334 . S
C1974 H1945 0.950 . S
C1974 C1973 1.334 . S
C1974 C1975 1.287 . S
C1975 C1974 1.287 . S
C1975 C1976 1.524 1_655 S
C1975 H1978 0.999 . S
C1976 H1946 0.950 . S
C1976 C1975 1.524 1_455 S
C1976 C1977 1.415 . S
C1977 H1947 0.950 . S
C1977 C1972 1.363 1_455 S
C1977 C1976 1.415 . S
H1978 C1975 0.999 . S
H1979 C1960 0.913 . S
H1980 C1998 0.951 . S
H1981 C2000 0.951 . S
H1982 C2002 0.950 . S
H1983 C2003 0.950 . S
H1984 C2005 0.950 . S
H1985 C2008 0.950 . S
H1986 C2009 0.950 . S
H1987 C2011 0.950 . S
H1988 C2012 0.950 . S
H1989 C2013 0.951 . S
H1990 C2015 0.951 . S
H1991 C2017 0.950 . S
H1992 C2018 0.950 . S
H1993 C2020 0.950 . S
H1994 C2023 0.950 . S
H1995 C2024 0.950 . S
H1996 C2026 0.950 . S
H1997 C2027 0.950 . S
C1998 H1980 0.951 . S
C1998 C1999 1.366 . S
C1998 C2000 1.388 . S
C1999 C1998 1.366 . S
C1999 C2003 1.385 . S
C2000 H1981 0.951 . S
C2000 C1998 1.388 . S
C2000 C2001 1.366 . S
C2001 C2000 1.366 . S
C2001 C2002 1.414 . S
C2001 C2004 1.499 . S
C2002 H1982 0.950 . S
C2002 C2001 1.414 . S
C2002 C2003 1.374 . S
C2003 H1983 0.950 . S
C2003 C1999 1.385 . S
C2003 C2002 1.374 . S
C2004 C2001 1.499 . S
C2004 C2005 1.373 . S
C2004 C2006 1.389 . S
C2005 H1984 0.950 . S
C2005 C2004 1.373 . S
C2005 C2021 1.377 . S
C2006 C2004 1.389 . S
C2006 C2007 1.524 . S
C2006 C2020 1.377 . S
C2007 C2006 1.524 . S
C2007 C2008 1.397 . S
C2007 C2012 1.363 . S
C2008 H1985 0.950 . S
C2008 C2007 1.397 . S
C2008 C2009 1.334 . S
C2009 H1986 0.950 . S
C2009 C2008 1.334 . S
C2009 C2010 1.287 . S
C2010 C2009 1.287 . S
C2010 C2011 1.524 . S
C2010 H2029 0.913 . S
C2011 H1987 0.950 . S
C2011 C2010 1.524 . S
C2011 C2012 1.415 . S
C2012 H1988 0.950 . S
C2012 C2007 1.363 . S
C2012 C2011 1.415 . S
C2013 H1989 0.951 . S
C2013 C2014 1.366 . S
C2013 C2015 1.388 . S
C2014 C2013 1.366 . S
C2014 C2018 1.385 . S
C2015 H1990 0.951 . S
C2015 C2013 1.388 . S
C2015 C2016 1.366 . S
C2016 C2015 1.366 . S
C2016 C2017 1.414 . S
C2016 C2019 1.499 . S
C2017 H1991 0.950 . S
C2017 C2016 1.414 . S
C2017 C2018 1.374 . S
C2018 H1992 0.950 . S
C2018 C2014 1.385 . S
C2018 C2017 1.374 . S
C2019 C2016 1.499 . S
C2019 C2020 1.373 . S
C2019 C2021 1.389 . S
C2020 H1993 0.950 . S
C2020 C2006 1.377 . S
C2020 C2019 1.373 . S
C2021 C2005 1.377 . S
C2021 C2019 1.389 . S
C2021 C2022 1.524 . S
C2022 C2021 1.524 . S
C2022 C2023 1.397 . S
C2022 C2027 1.363 . S
C2023 H1994 0.950 . S
C2023 C2022 1.397 . S
C2023 C2024 1.334 . S
C2024 H1995 0.950 . S
C2024 C2023 1.334 . S
C2024 C2025 1.287 . S
C2025 C2024 1.287 . S
C2025 C2026 1.524 . S
C2025 H2028 0.999 . S
C2026 H1996 0.950 . S
C2026 C2025 1.524 . S
C2026 C2027 1.415 . S
C2027 H1997 0.950 . S
C2027 C2022 1.363 . S
C2027 C2026 1.415 . S
H2028 C2025 0.999 . S
H2029 C2010 0.913 . S
H2030 C2048 0.951 . S
H2031 C2050 0.951 . S
H2032 C2052 0.950 . S
H2033 C2053 0.950 . S
H2034 C2055 0.950 . S
H2035 C2058 0.950 . S
H2036 C2059 0.950 . S
H2037 C2061 0.950 . S
H2038 C2062 0.950 . S
H2039 C2063 0.951 . S
H2040 C2065 0.951 . S
H2041 C2067 0.950 . S
H2042 C2068 0.950 . S
H2043 C2070 0.950 . S
H2044 C2073 0.950 . S
H2045 C2074 0.950 . S
H2046 C2076 0.950 . S
H2047 C2077 0.950 . S
C2048 H2030 0.951 . S
C2048 C2049 1.366 . S
C2048 C2050 1.388 . S
C2049 C2048 1.366 . S
C2049 C2053 1.385 . S
C2050 H2031 0.951 . S
C2050 C2048 1.388 . S
C2050 C2051 1.366 . S
C2051 C2050 1.366 . S
C2051 C2052 1.414 . S
C2051 C2054 1.499 . S
C2052 H2032 0.950 . S
C2052 C2051 1.414 . S
C2052 C2053 1.374 . S
C2053 H2033 0.950 . S
C2053 C2049 1.385 . S
C2053 C2052 1.374 . S
C2054 C2051 1.499 . S
C2054 C2055 1.373 . S
C2054 C2056 1.389 . S
C2055 H2034 0.950 . S
C2055 C2054 1.373 . S
C2055 C2071 1.377 . S
C2056 C2054 1.389 . S
C2056 C2057 1.524 . S
C2056 C2070 1.377 . S
C2057 C2056 1.524 . S
C2057 C2058 1.397 . S
C2057 C2062 1.363 . S
C2058 H2035 0.950 . S
C2058 C2057 1.397 . S
C2058 C2059 1.334 . S
C2059 H2036 0.950 . S
C2059 C2058 1.334 . S
C2059 C2060 1.287 . S
C2060 C2059 1.287 . S
C2060 C2061 1.524 . S
C2060 H2079 0.913 . S
C2061 H2037 0.950 . S
C2061 C2060 1.524 . S
C2061 C2062 1.415 . S
C2062 H2038 0.950 . S
C2062 C2057 1.363 . S
C2062 C2061 1.415 . S
C2063 H2039 0.951 . S
C2063 C2064 1.366 . S
C2063 C2065 1.388 . S
C2064 C2063 1.366 . S
C2064 C2068 1.385 . S
C2065 H2040 0.951 . S
C2065 C2063 1.388 . S
C2065 C2066 1.366 . S
C2066 C2065 1.366 . S
C2066 C2067 1.414 . S
C2066 C2069 1.499 . S
C2067 H2041 0.950 . S
C2067 C2066 1.414 . S
C2067 C2068 1.374 . S
C2068 H2042 0.950 . S
C2068 C2064 1.385 . S
C2068 C2067 1.374 . S
C2069 C2066 1.499 . S
C2069 C2070 1.373 . S
C2069 C2071 1.389 . S
C2070 H2043 0.950 . S
C2070 C2056 1.377 . S
C2070 C2069 1.373 . S
C2071 C2055 1.377 . S
C2071 C2069 1.389 . S
C2071 C2072 1.524 . S
C2072 C2071 1.524 . S
C2072 C2073 1.397 . S
C2072 C2077 1.363 . S
C2073 H2044 0.950 . S
C2073 C2072 1.397 . S
C2073 C2074 1.334 . S
C2074 H2045 0.950 . S
C2074 C2073 1.334 . S
C2074 C2075 1.287 . S
C2075 C2074 1.287 . S
C2075 C2076 1.524 . S
C2075 H2078 0.999 . S
C2076 H2046 0.950 . S
C2076 C2075 1.524 . S
C2076 C2077 1.415 . S
C2077 H2047 0.950 . S
C2077 C2072 1.363 . S
C2077 C2076 1.415 . S
H2078 C2075 0.999 . S
H2079 C2060 0.913 . S
H2080 C2098 0.951 . S
H2081 C2100 0.951 . S
H2082 C2102 0.950 . S
H2083 C2103 0.950 . S
H2084 C2105 0.950 . S
H2085 C2108 0.950 . S
H2086 C2109 0.950 . S
H2087 C2111 0.950 . S
H2088 C2112 0.950 . S
H2089 C2113 0.951 . S
H2090 C2115 0.951 . S
H2091 C2117 0.950 . S
H2092 C2118 0.950 . S
H2093 C2120 0.950 . S
H2094 C2123 0.950 . S
H2095 C2124 0.950 . S
H2096 C2126 0.950 . S
H2097 C2127 0.950 . S
C2098 H2080 0.951 . S
C2098 C2099 1.366 . S
C2098 C2100 1.388 . S
C2099 C2098 1.366 . S
C2099 C2103 1.385 . S
C2100 H2081 0.951 . S
C2100 C2098 1.388 . S
C2100 C2101 1.366 . S
C2101 C2100 1.366 . S
C2101 C2102 1.414 . S
C2101 C2104 1.499 . S
C2102 H2082 0.950 . S
C2102 C2101 1.414 . S
C2102 C2103 1.374 . S
C2103 H2083 0.950 . S
C2103 C2099 1.385 . S
C2103 C2102 1.374 . S
C2104 C2101 1.499 . S
C2104 C2105 1.373 . S
C2104 C2106 1.389 . S
C2105 H2084 0.950 . S
C2105 C2104 1.373 . S
C2105 C2121 1.377 . S
C2106 C2104 1.389 . S
C2106 C2107 1.524 . S
C2106 C2120 1.377 . S
C2107 C2106 1.524 . S
C2107 C2108 1.397 . S
C2107 C2112 1.363 . S
C2108 H2085 0.950 . S
C2108 C2107 1.397 . S
C2108 C2109 1.334 . S
C2109 H2086 0.950 . S
C2109 C2108 1.334 . S
C2109 C2110 1.287 . S
C2110 C2109 1.287 . S
C2110 C2111 1.524 . S
C2110 H2129 0.913 . S
C2111 H2087 0.950 . S
C2111 C2110 1.524 . S
C2111 C2112 1.415 . S
C2112 H2088 0.950 . S
C2112 C2107 1.363 . S
C2112 C2111 1.415 . S
C2113 H2089 0.951 . S
C2113 C2114 1.366 . S
C2113 C2115 1.388 . S
C2114 C2113 1.366 . S
C2114 C2118 1.385 . S
C2115 H2090 0.951 . S
C2115 C2113 1.388 . S
C2115 C2116 1.366 . S
C2116 C2115 1.366 . S
C2116 C2117 1.414 . S
C2116 C2119 1.499 . S
C2117 H2091 0.950 . S
C2117 C2116 1.414 . S
C2117 C2118 1.374 . S
C2118 H2092 0.950 . S
C2118 C2114 1.385 . S
C2118 C2117 1.374 . S
C2119 C2116 1.499 . S
C2119 C2120 1.373 . S
C2119 C2121 1.389 . S
C2120 H2093 0.950 . S
C2120 C2106 1.377 . S
C2120 C2119 1.373 . S
C2121 C2105 1.377 . S
C2121 C2119 1.389 . S
C2121 C2122 1.524 . S
C2122 C2121 1.524 . S
C2122 C2123 1.397 . S
C2122 C2127 1.363 . S
C2123 H2094 0.950 . S
C2123 C2122 1.397 . S
C2123 C2124 1.334 . S
C2124 H2095 0.950 . S
C2124 C2123 1.334 . S
C2124 C2125 1.287 . S
C2125 C2124 1.287 . S
C2125 C2126 1.524 . S
C2125 H2128 0.999 . S
C2126 H2096 0.950 . S
C2126 C2125 1.524 . S
C2126 C2127 1.415 . S
C2127 H2097 0.950 . S
C2127 C2122 1.363 . S
C2127 C2126 1.415 . S
H2128 C2125 0.999 . S
H2129 C2110 0.913 . S
H2130 C2148 0.951 . S
H2131 C2150 0.951 . S
H2132 C2152 0.950 . S
H2133 C2153 0.950 . S
H2134 C2155 0.950 . S
H2135 C2158 0.950 . S
H2136 C2159 0.950 . S
H2137 C2161 0.950 . S
H2138 C2162 0.950 . S
H2139 C2163 0.951 . S
H2140 C2165 0.951 . S
H2141 C2167 0.950 . S
H2142 C2168 0.950 . S
H2143 C2170 0.950 . S
H2144 C2173 0.950 . S
H2145 C2174 0.950 . S
H2146 C2176 0.950 . S
H2147 C2177 0.950 . S
C2148 H2130 0.951 . S
C2148 C2149 1.366 . S
C2148 C2150 1.388 . S
C2149 C2148 1.366 . S
C2149 C2153 1.385 . S
C2150 H2131 0.951 . S
C2150 C2148 1.388 . S
C2150 C2151 1.366 . S
C2151 C2150 1.366 . S
C2151 C2152 1.414 . S
C2151 C2154 1.499 . S
C2152 H2132 0.950 . S
C2152 C2151 1.414 . S
C2152 C2153 1.374 . S
C2153 H2133 0.950 . S
C2153 C2149 1.385 . S
C2153 C2152 1.374 . S
C2154 C2151 1.499 . S
C2154 C2155 1.373 . S
C2154 C2156 1.389 . S
C2155 H2134 0.950 . S
C2155 C2154 1.373 . S
C2155 C2171 1.377 . S
C2156 C2154 1.389 . S
C2156 C2157 1.524 . S
C2156 C2170 1.377 . S
C2157 C2156 1.524 . S
C2157 C2158 1.397 . S
C2157 C2162 1.363 . S
C2158 H2135 0.950 . S
C2158 C2157 1.397 . S
C2158 C2159 1.334 . S
C2159 H2136 0.950 . S
C2159 C2158 1.334 . S
C2159 C2160 1.287 . S
C2160 C2159 1.287 . S
C2160 C2161 1.524 . S
C2160 H2179 0.913 . S
C2161 H2137 0.950 . S
C2161 C2160 1.524 . S
C2161 C2162 1.415 . S
C2162 H2138 0.950 . S
C2162 C2157 1.363 . S
C2162 C2161 1.415 . S
C2163 H2139 0.951 . S
C2163 C2164 1.366 . S
C2163 C2165 1.388 . S
C2164 C2163 1.366 . S
C2164 C2168 1.385 . S
C2165 H2140 0.951 . S
C2165 C2163 1.388 . S
C2165 C2166 1.366 . S
C2166 C2165 1.366 . S
C2166 C2167 1.414 . S
C2166 C2169 1.499 . S
C2167 H2141 0.950 . S
C2167 C2166 1.414 . S
C2167 C2168 1.374 . S
C2168 H2142 0.950 . S
C2168 C2164 1.385 . S
C2168 C2167 1.374 . S
C2169 C2166 1.499 . S
C2169 C2170 1.373 . S
C2169 C2171 1.389 . S
C2170 H2143 0.950 . S
C2170 C2156 1.377 . S
C2170 C2169 1.373 . S
C2171 C2155 1.377 . S
C2171 C2169 1.389 . S
C2171 C2172 1.524 . S
C2172 C2171 1.524 . S
C2172 C2173 1.397 . S
C2172 C2177 1.363 . S
C2173 H2144 0.950 . S
C2173 C2172 1.397 . S
C2173 C2174 1.334 . S
C2174 H2145 0.950 . S
C2174 C2173 1.334 . S
C2174 C2175 1.287 . S
C2175 C2174 1.287 . S
C2175 C2176 1.524 . S
C2175 H2178 0.999 . S
C2176 H2146 0.950 . S
C2176 C2175 1.524 . S
C2176 C2177 1.415 . S
C2177 H2147 0.950 . S
C2177 C2172 1.363 . S
C2177 C2176 1.415 . S
H2178 C2175 0.999 . S
H2179 C2160 0.913 . S
H2180 C2198 0.951 . S
H2181 C2200 0.951 . S
H2182 C2202 0.950 . S
H2183 C2203 0.950 . S
H2184 C2205 0.950 . S
H2185 C2208 0.950 . S
H2186 C2209 0.950 . S
H2187 C2211 0.950 . S
H2188 C2212 0.950 . S
H2189 C2213 0.951 . S
H2190 C2215 0.951 . S
H2191 C2217 0.950 . S
H2192 C2218 0.950 . S
H2193 C2220 0.950 . S
H2194 C2223 0.950 . S
H2195 C2224 0.950 . S
H2196 C2226 0.950 . S
H2197 C2227 0.950 . S
C2198 H2180 0.951 . S
C2198 C2199 1.366 . S
C2198 C2200 1.388 . S
C2199 C2198 1.366 . S
C2199 C2203 1.385 . S
C2200 H2181 0.951 . S
C2200 C2198 1.388 . S
C2200 C2201 1.366 . S
C2201 C2200 1.366 . S
C2201 C2202 1.414 . S
C2201 C2204 1.499 . S
C2202 H2182 0.950 . S
C2202 C2201 1.414 . S
C2202 C2203 1.374 . S
C2203 H2183 0.950 . S
C2203 C2199 1.385 . S
C2203 C2202 1.374 . S
C2204 C2201 1.499 . S
C2204 C2205 1.373 . S
C2204 C2206 1.389 . S
C2205 H2184 0.950 . S
C2205 C2204 1.373 . S
C2205 C2221 1.377 . S
C2206 C2204 1.389 . S
C2206 C2207 1.524 . S
C2206 C2220 1.377 . S
C2207 C2206 1.524 . S
C2207 C2208 1.397 . S
C2207 C2212 1.363 . S
C2208 H2185 0.950 . S
C2208 C2207 1.397 . S
C2208 C2209 1.334 . S
C2209 H2186 0.950 . S
C2209 C2208 1.334 . S
C2209 C2210 1.287 . S
C2210 C2209 1.287 . S
C2210 C2211 1.524 . S
C2210 H2229 0.913 . S
C2211 H2187 0.950 . S
C2211 C2210 1.524 . S
C2211 C2212 1.415 . S
C2212 H2188 0.950 . S
C2212 C2207 1.363 . S
C2212 C2211 1.415 . S
C2213 H2189 0.951 . S
C2213 C2214 1.366 . S
C2213 C2215 1.388 . S
C2214 C2213 1.366 . S
C2214 C2218 1.385 . S
C2215 H2190 0.951 . S
C2215 C2213 1.388 . S
C2215 C2216 1.366 . S
C2216 C2215 1.366 . S
C2216 C2217 1.414 . S
C2216 C2219 1.499 . S
C2217 H2191 0.950 . S
C2217 C2216 1.414 . S
C2217 C2218 1.374 . S
C2218 H2192 0.950 . S
C2218 C2214 1.385 . S
C2218 C2217 1.374 . S
C2219 C2216 1.499 . S
C2219 C2220 1.373 . S
C2219 C2221 1.389 . S
C2220 H2193 0.950 . S
C2220 C2206 1.377 . S
C2220 C2219 1.373 . S
C2221 C2205 1.377 . S
C2221 C2219 1.389 . S
C2221 C2222 1.524 . S
C2222 C2221 1.524 . S
C2222 C2223 1.397 . S
C2222 C2227 1.363 . S
C2223 H2194 0.950 . S
C2223 C2222 1.397 . S
C2223 C2224 1.334 . S
C2224 H2195 0.950 . S
C2224 C2223 1.334 . S
C2224 C2225 1.287 . S
C2225 C2224 1.287 . S
C2225 C2226 1.524 . S
C2225 H2228 0.999 . S
C2226 H2196 0.950 . S
C2226 C2225 1.524 . S
C2226 C2227 1.415 . S
C2227 H2197 0.950 . S
C2227 C2222 1.363 . S
C2227 C2226 1.415 . S
H2228 C2225 0.999 . S
H2229 C2210 0.913 . S
H2230 C2248 0.951 . S
H2231 C2250 0.951 . S
H2232 C2252 0.950 . S
H2233 C2253 0.950 . S
H2234 C2255 0.950 . S
H2235 C2258 0.950 . S
H2236 C2259 0.950 . S
H2237 C2261 0.950 . S
H2238 C2262 0.950 . S
H2239 C2263 0.951 . S
H2240 C2265 0.951 . S
H2241 C2267 0.950 . S
H2242 C2268 0.950 . S
H2243 C2270 0.950 . S
H2244 C2273 0.950 . S
H2245 C2274 0.950 . S
H2246 C2276 0.950 . S
H2247 C2277 0.950 . S
C2248 H2230 0.951 . S
C2248 C2249 1.366 . S
C2248 C2250 1.388 . S
C2249 C2248 1.366 . S
C2249 C2253 1.385 . S
C2250 H2231 0.951 . S
C2250 C2248 1.388 . S
C2250 C2251 1.366 . S
C2251 C2250 1.366 . S
C2251 C2252 1.414 . S
C2251 C2254 1.499 . S
C2252 H2232 0.950 . S
C2252 C2251 1.414 . S
C2252 C2253 1.374 . S
C2253 H2233 0.950 . S
C2253 C2249 1.385 . S
C2253 C2252 1.374 . S
C2254 C2251 1.499 . S
C2254 C2255 1.373 . S
C2254 C2256 1.389 . S
C2255 H2234 0.950 . S
C2255 C2254 1.373 . S
C2255 C2271 1.377 . S
C2256 C2254 1.389 . S
C2256 C2257 1.524 . S
C2256 C2270 1.377 . S
C2257 C2256 1.524 . S
C2257 C2258 1.397 . S
C2257 C2262 1.363 . S
C2258 H2235 0.950 . S
C2258 C2257 1.397 . S
C2258 C2259 1.334 . S
C2259 H2236 0.950 . S
C2259 C2258 1.334 . S
C2259 C2260 1.287 . S
C2260 C2259 1.287 . S
C2260 C2261 1.524 . S
C2260 H2279 0.913 . S
C2261 H2237 0.950 . S
C2261 C2260 1.524 . S
C2261 C2262 1.415 . S
C2262 H2238 0.950 . S
C2262 C2257 1.363 . S
C2262 C2261 1.415 . S
C2263 H2239 0.951 . S
C2263 C2264 1.366 . S
C2263 C2265 1.388 . S
C2264 C2263 1.366 . S
C2264 C2268 1.385 . S
C2265 H2240 0.951 . S
C2265 C2263 1.388 . S
C2265 C2266 1.366 . S
C2266 C2265 1.366 . S
C2266 C2267 1.414 . S
C2266 C2269 1.499 . S
C2267 H2241 0.950 . S
C2267 C2266 1.414 . S
C2267 C2268 1.374 . S
C2268 H2242 0.950 . S
C2268 C2264 1.385 . S
C2268 C2267 1.374 . S
C2269 C2266 1.499 . S
C2269 C2270 1.373 . S
C2269 C2271 1.389 . S
C2270 H2243 0.950 . S
C2270 C2256 1.377 . S
C2270 C2269 1.373 . S
C2271 C2255 1.377 . S
C2271 C2269 1.389 . S
C2271 C2272 1.524 . S
C2272 C2271 1.524 . S
C2272 C2273 1.397 . S
C2272 C2277 1.363 . S
C2273 H2244 0.950 . S
C2273 C2272 1.397 . S
C2273 C2274 1.334 . S
C2274 H2245 0.950 . S
C2274 C2273 1.334 . S
C2274 C2275 1.287 . S
C2275 C2274 1.287 . S
C2275 C2276 1.524 . S
C2275 H2278 0.999 . S
C2276 H2246 0.950 . S
C2276 C2275 1.524 . S
C2276 C2277 1.415 . S
C2277 H2247 0.950 . S
C2277 C2272 1.363 . S
C2277 C2276 1.415 . S
H2278 C2275 0.999 . S
H2279 C2260 0.913 . S
C499 C9 0.985 . S
C514 C329 0.985 . S
C549 C49 0.985 . S
C564 C369 0.984 . S
C599 C89 0.985 . S
C614 C409 0.986 . S
C649 C449 0.985 . S
C664 C129 0.985 . S
C699 C169 0.985 . S
C714 C249 0.984 . S
C749 C289 0.986 . S
C764 C209 0.985 . S
C799 C415 1.638 . S
C814 C15 1.638 . S
C849 C455 1.639 . S
C864 C55 1.639 . S
C899 C95 1.638 . S
C914 C255 1.639 . S
C949 C295 1.638 . S
C964 C135 1.639 . S
C999 C335 1.639 . S
C1014 C175 1.638 . S
C1049 C215 1.638 . S
C1064 C375 1.639 . S
C1099 C299 4.172 . S
C1114 C19 4.171 . S
C1149 C339 4.172 . S
C1164 C59 4.172 . S
C1199 C379 4.172 . S
C1214 C99 4.172 . S
C1249 C139 4.172 . S
C1264 C419 4.171 . S
C1299 C179 4.172 . S
C1314 C459 4.172 . S
C1349 C219 4.171 . S
C1364 C259 4.172 . S
C1399 C18 0.855 . S
C1414 C138 0.855 . S
C1449 C58 0.854 . S
C1464 C178 0.855 . S
C1499 C98 0.852 . S
C1514 C218 0.853 . S
C1549 C378 0.854 . S
C1564 C258 0.853 . S
C1599 C298 0.855 . S
C1614 C418 0.854 . S
C1649 C458 0.853 . S
C1664 C338 0.854 . S
C1699 C286 0.672 . S
C1714 C6 0.671 . S
C1749 C326 0.672 . S
C1764 C46 0.671 . S
C1799 C86 0.672 . S
C1814 C366 0.671 . S
C1849 C406 0.672 . S
C1864 C126 0.671 . S
C1899 C446 0.672 . S
C1914 C166 0.671 . S
C1949 C206 0.671 . S
C1964 C246 0.672 . S
C1999 C10 4.656 . S
C2014 C410 4.656 . S
C2049 C50 4.656 . S
C2064 C450 4.656 1_556 S
C2099 C90 4.656 1_554 S
C2114 C250 4.656 . S
C2149 C130 4.656 . S
C2164 C290 4.656 . S
C2199 C170 4.656 . S
C2214 C330 4.656 1_556 S
C2249 C370 4.656 . S
C2264 C210 4.656 1_554 S
