# Generated by pormake.
# Topology whw, (6)-cn, num edge types: 1
# Building blocks:
#     Node 0, Type 0, BuildingBlock: KUMJIN_clean_sbu_0, # of connection points: 6
#     Node 1, Type 0, BuildingBlock: KUMJIN_clean_sbu_0, # of connection points: 6
#     Node 2, Type 0, BuildingBlock: KUMJIN_clean_sbu_0, # of connection points: 6
#     Node 3, Type 0, BuildingBlock: KUMJIN_clean_sbu_0, # of connection points: 6
#     Node 4, Type 0, BuildingBlock: KUMJIN_clean_sbu_0, # of connection points: 6
#     Node 5, Type 0, BuildingBlock: KUMJIN_clean_sbu_0, # of connection points: 6
#     Node 6, Type 0, BuildingBlock: KUMJIN_clean_sbu_0, # of connection points: 6
#     Node 7, Type 0, BuildingBlock: KUMJIN_clean_sbu_0, # of connection points: 6
#     Node 8, Type 0, BuildingBlock: KUMJIN_clean_sbu_0, # of connection points: 6
#     Node 9, Type 0, BuildingBlock: KUMJIN_clean_sbu_0, # of connection points: 6
#     Node 10, Type 0, BuildingBlock: KUMJIN_clean_sbu_0, # of connection points: 6
#     Node 11, Type 0, BuildingBlock: KUMJIN_clean_sbu_0, # of connection points: 6
#     Node 12, Type 0, BuildingBlock: KUMJIN_clean_sbu_0, # of connection points: 6
#     Node 13, Type 0, BuildingBlock: KUMJIN_clean_sbu_0, # of connection points: 6
#     Node 14, Type 0, BuildingBlock: KUMJIN_clean_sbu_0, # of connection points: 6
#     Node 15, Type 0, BuildingBlock: KUMJIN_clean_sbu_0, # of connection points: 6
#     Edge 16, Type (0, 0), BuildingBlock: MIFKUJ_clean_linker_0, # of connection points: 2
#     Edge 17, Type (0, 0), BuildingBlock: MIFKUJ_clean_linker_0, # of connection points: 2
#     Edge 18, Type (0, 0), BuildingBlock: MIFKUJ_clean_linker_0, # of connection points: 2
#     Edge 19, Type (0, 0), BuildingBlock: MIFKUJ_clean_linker_0, # of connection points: 2
#     Edge 20, Type (0, 0), BuildingBlock: MIFKUJ_clean_linker_0, # of connection points: 2
#     Edge 21, Type (0, 0), BuildingBlock: MIFKUJ_clean_linker_0, # of connection points: 2
#     Edge 22, Type (0, 0), BuildingBlock: MIFKUJ_clean_linker_0, # of connection points: 2
#     Edge 23, Type (0, 0), BuildingBlock: MIFKUJ_clean_linker_0, # of connection points: 2
#     Edge 24, Type (0, 0), BuildingBlock: MIFKUJ_clean_linker_0, # of connection points: 2
#     Edge 25, Type (0, 0), BuildingBlock: MIFKUJ_clean_linker_0, # of connection points: 2
#     Edge 26, Type (0, 0), BuildingBlock: MIFKUJ_clean_linker_0, # of connection points: 2
#     Edge 27, Type (0, 0), BuildingBlock: MIFKUJ_clean_linker_0, # of connection points: 2
#     Edge 28, Type (0, 0), BuildingBlock: MIFKUJ_clean_linker_0, # of connection points: 2
#     Edge 29, Type (0, 0), BuildingBlock: MIFKUJ_clean_linker_0, # of connection points: 2
#     Edge 30, Type (0, 0), BuildingBlock: MIFKUJ_clean_linker_0, # of connection points: 2
#     Edge 31, Type (0, 0), BuildingBlock: MIFKUJ_clean_linker_0, # of connection points: 2
#     Edge 32, Type (0, 0), BuildingBlock: MIFKUJ_clean_linker_0, # of connection points: 2
#     Edge 33, Type (0, 0), BuildingBlock: MIFKUJ_clean_linker_0, # of connection points: 2
#     Edge 34, Type (0, 0), BuildingBlock: MIFKUJ_clean_linker_0, # of connection points: 2
#     Edge 35, Type (0, 0), BuildingBlock: MIFKUJ_clean_linker_0, # of connection points: 2
#     Edge 36, Type (0, 0), BuildingBlock: MIFKUJ_clean_linker_0, # of connection points: 2
#     Edge 37, Type (0, 0), BuildingBlock: MIFKUJ_clean_linker_0, # of connection points: 2
#     Edge 38, Type (0, 0), BuildingBlock: MIFKUJ_clean_linker_0, # of connection points: 2
#     Edge 39, Type (0, 0), BuildingBlock: MIFKUJ_clean_linker_0, # of connection points: 2
#     Edge 40, Type (0, 0), BuildingBlock: MIFKUJ_clean_linker_0, # of connection points: 2
#     Edge 41, Type (0, 0), BuildingBlock: MIFKUJ_clean_linker_0, # of connection points: 2
#     Edge 42, Type (0, 0), BuildingBlock: MIFKUJ_clean_linker_0, # of connection points: 2
#     Edge 43, Type (0, 0), BuildingBlock: MIFKUJ_clean_linker_0, # of connection points: 2
#     Edge 44, Type (0, 0), BuildingBlock: MIFKUJ_clean_linker_0, # of connection points: 2
#     Edge 45, Type (0, 0), BuildingBlock: MIFKUJ_clean_linker_0, # of connection points: 2
#     Edge 46, Type (0, 0), BuildingBlock: MIFKUJ_clean_linker_0, # of connection points: 2
#     Edge 47, Type (0, 0), BuildingBlock: MIFKUJ_clean_linker_0, # of connection points: 2
#     Edge 48, Type (0, 0), BuildingBlock: MIFKUJ_clean_linker_0, # of connection points: 2
#     Edge 49, Type (0, 0), BuildingBlock: MIFKUJ_clean_linker_0, # of connection points: 2
#     Edge 50, Type (0, 0), BuildingBlock: MIFKUJ_clean_linker_0, # of connection points: 2
#     Edge 51, Type (0, 0), BuildingBlock: MIFKUJ_clean_linker_0, # of connection points: 2
#     Edge 52, Type (0, 0), BuildingBlock: MIFKUJ_clean_linker_0, # of connection points: 2
#     Edge 53, Type (0, 0), BuildingBlock: MIFKUJ_clean_linker_0, # of connection points: 2
#     Edge 54, Type (0, 0), BuildingBlock: MIFKUJ_clean_linker_0, # of connection points: 2
#     Edge 55, Type (0, 0), BuildingBlock: MIFKUJ_clean_linker_0, # of connection points: 2
#     Edge 56, Type (0, 0), BuildingBlock: MIFKUJ_clean_linker_0, # of connection points: 2
#     Edge 57, Type (0, 0), BuildingBlock: MIFKUJ_clean_linker_0, # of connection points: 2
#     Edge 58, Type (0, 0), BuildingBlock: MIFKUJ_clean_linker_0, # of connection points: 2
#     Edge 59, Type (0, 0), BuildingBlock: MIFKUJ_clean_linker_0, # of connection points: 2
#     Edge 60, Type (0, 0), BuildingBlock: MIFKUJ_clean_linker_0, # of connection points: 2
#     Edge 61, Type (0, 0), BuildingBlock: MIFKUJ_clean_linker_0, # of connection points: 2
#     Edge 62, Type (0, 0), BuildingBlock: MIFKUJ_clean_linker_0, # of connection points: 2
#     Edge 63, Type (0, 0), BuildingBlock: MIFKUJ_clean_linker_0, # of connection points: 2
# Relax obj value: 0.268
# Max RMSD: 0.250
# Mean RMSD: 0.213
data_MOF--net-whw--node1-KUMJIN_clean_sbu_0--edge1-MIFKUJ_clean_linker_0
_symmetry_space_group_name_H-M    P1
_symmetry_Int_Tables_number       1
_symmetry_cell_setting            triclinic
loop_
_symmetry_equiv_pos_as_xyz
'x, y, z'
_cell_length_a     61.185717
_cell_length_b     61.690154
_cell_length_c     40.849484
_cell_angle_alpha  98.860368
_cell_angle_beta   94.121756
_cell_angle_gamma 99.968418
loop_
_atom_site_label
_atom_site_type_symbol
_atom_site_fract_x
_atom_site_fract_y
_atom_site_fract_z
_atom_type_partial_charge
Eu0 Eu 0.04766 0.14752 0.18523 0.0
C1 C 0.95658 0.109 0.12709 0.0
C2 C 0.94183 0.14142 0.11538 0.0
C3 C 0.92784 0.10535 0.08088 0.0
C4 C 0.95618 0.13173 0.13516 0.0
C5 C 0.94191 0.09561 0.1003 0.0
C6 C 0.92789 0.12819 0.08826 0.0
C7 C 0.95434 0.06317 0.11517 0.0
N8 N 0.97049 0.09972 0.14587 0.0
C9 C 0.96858 0.07689 0.14112 0.0
C10 C 0.94116 0.07257 0.09433 0.0
Eu11 Eu 0.99154 0.12412 0.19286 0.0
N12 N 0.96975 0.1444 0.16178 0.0
C13 C 0.96976 0.1669 0.16902 0.0
C14 C 0.94188 0.16425 0.12314 0.0
C15 C 0.95596 0.17702 0.14996 0.0
H16 H 0.9775 0.06876 0.15788 0.0
H17 H 0.95634 0.19482 0.15589 0.0
H18 H 0.91689 0.13545 0.07297 0.0
H19 H 0.95318 0.04526 0.11192 0.0
H20 H 0.98077 0.17783 0.18852 0.0
H21 H 0.06462 0.07256 0.23223 0.0
H22 H 0.93123 0.17222 0.10841 0.0
H23 H 0.07172 0.20128 0.21076 0.0
H24 H 0.04339 0.09366 0.2005 0.0
H25 H 0.10531 0.22277 0.24697 0.0
H26 H 0.91664 0.09529 0.06023 0.0
H27 H 0.09853 0.09182 0.26872 0.0
H28 H 0.12514 0.12724 0.29177 0.0
H29 H 0.92982 0.06182 0.07448 0.0
H30 H 0.13617 0.16782 0.29557 0.0
N31 N 0.06433 0.1252 0.21857 0.0
C32 C 0.0579 0.10259 0.21608 0.0
C33 C 0.08913 0.10134 0.25474 0.0
C34 C 0.09594 0.12439 0.25696 0.0
C35 C 0.07001 0.09042 0.23424 0.0
C36 C 0.08314 0.13606 0.23823 0.0
H37 H 0.12877 0.20343 0.2792 0.0
N38 N 0.07642 0.17017 0.22325 0.0
C39 C 0.10075 0.20495 0.24553 0.0
C40 C 0.08951 0.15905 0.24024 0.0
C41 C 0.0818 0.1928 0.22538 0.0
C42 C 0.11416 0.1939 0.26354 0.0
C43 C 0.1086 0.17074 0.26121 0.0
O44 O 0.07169 0.16835 0.1608 0.0
O45 O 0.01339 0.13912 0.15513 0.0
O46 O 0.00946 0.09678 0.16972 0.0
O47 O 0.03671 0.11688 0.14489 0.0
O48 O 0.03204 0.17096 0.15691 0.0
O49 O 0.07248 0.1324 0.15901 0.0
O50 O 0.97592 0.09419 0.21002 0.0
O51 O 0.0263 0.13157 0.21983 0.0
O52 O 0.03574 0.17363 0.22141 0.0
O53 O -0.00228 0.15882 0.22248 0.0
O54 O 0.00157 0.12663 0.2494 0.0
O55 O 0.95895 0.12266 0.21225 0.0
C56 C 0.01396 0.1574 0.14315 0.0
C57 C 0.10139 0.15411 0.13441 0.0
C58 C 0.11886 0.14189 0.08567 0.0
C59 C 0.10047 0.14026 0.10395 0.0
C60 C 0.13875 0.15668 0.09893 0.0
C61 C 0.12101 0.1692 0.1476 0.0
C62 C 0.1398 0.17025 0.12995 0.0
C63 C 0.02322 0.09804 0.14632 0.0
C64 C 0.08203 0.15175 0.15277 0.0
C65 C 0.12143 0.15908 0.27947 0.0
C66 C 0.11512 0.13598 0.27735 0.0
C67 C 0.02298 0.13192 0.2508 0.0
C68 C 0.94828 0.09541 0.24725 0.0
C69 C 0.94579 0.11074 0.2754 0.0
C70 C 0.93616 0.10289 0.30266 0.0
C71 C 0.92884 0.07986 0.30129 0.0
C72 C 0.94076 0.07248 0.2464 0.0
C73 C 0.93109 0.06478 0.27326 0.0
C74 C 0.01579 0.17444 0.23186 0.0
C75 C 0.95825 0.10221 0.21788 0.0
H76 H 0.08504 0.12893 0.09366 0.0
H77 H 0.15298 0.15856 0.0846 0.0
H78 H 0.12185 0.17985 0.17154 0.0
H79 H 0.15499 0.18191 0.13993 0.0
H80 H 0.95158 0.12848 0.27637 0.0
H81 H 0.92117 0.07354 0.32189 0.0
H82 H 0.94237 0.06047 0.22478 0.0
H83 H 0.92532 0.04707 0.27235 0.0
Eu84 Eu 0.14331 0.78767 0.32941 0.0
C85 C 0.17403 0.6952 0.33239 0.0
C86 C 0.14641 0.66685 0.29675 0.0
C87 C 0.18469 0.66134 0.30479 0.0
C88 C 0.15236 0.68779 0.31777 0.0
C89 C 0.19034 0.68186 0.3266 0.0
C90 C 0.16278 0.65387 0.28985 0.0
C91 C 0.21613 0.70924 0.36634 0.0
N92 N 0.17889 0.71499 0.3536 0.0
C93 C 0.19937 0.72185 0.37138 0.0
C94 C 0.21167 0.68926 0.34361 0.0
Eu95 Eu 0.1496 0.73526 0.36083 0.0
N96 N 0.13687 0.70058 0.32531 0.0
C97 C 0.11487 0.69277 0.31442 0.0
C98 C 0.12407 0.65931 0.28402 0.0
C99 C 0.10819 0.67223 0.29322 0.0
H100 H 0.20293 0.73726 0.389 0.0
H101 H 0.0908 0.66638 0.28399 0.0
H102 H 0.15856 0.6378 0.27359 0.0
H103 H 0.23244 0.71491 0.38006 0.0
H104 H 0.10244 0.70259 0.32145 0.0
H105 H 0.21074 0.84775 0.40658 0.0
H106 H 0.11884 0.64336 0.26769 0.0
H107 H 0.09066 0.79223 0.30978 0.0
H108 H 0.19397 0.81324 0.36831 0.0
H109 H 0.06516 0.81857 0.32405 0.0
H110 H 0.19703 0.65091 0.29985 0.0
H111 H 0.18742 0.87515 0.42614 0.0
H112 H 0.1499 0.88643 0.42449 0.0
H113 H 0.22465 0.67947 0.3399 0.0
H114 H 0.11036 0.8785 0.40223 0.0
N115 N 0.16113 0.82049 0.36632 0.0
C116 C 0.18346 0.8249 0.37646 0.0
C117 C 0.17988 0.85993 0.4093 0.0
C118 C 0.15716 0.85565 0.39806 0.0
C119 C 0.1931 0.84452 0.39829 0.0
C120 C 0.14816 0.83554 0.37623 0.0
H121 H 0.07866 0.85332 0.36468 0.0
N122 N 0.11788 0.81162 0.34278 0.0
C123 C 0.08214 0.82219 0.33567 0.0
C124 C 0.12585 0.83096 0.3641 0.0
C125 C 0.09657 0.80733 0.32766 0.0
C126 C 0.08983 0.84178 0.35861 0.0
C127 C 0.11199 0.84651 0.37289 0.0
O128 O 0.13265 0.79134 0.2788 0.0
O129 O 0.1423 0.75111 0.31654 0.0
O130 O 0.17655 0.74197 0.32741 0.0
O131 O 0.17893 0.78043 0.32911 0.0
O132 O 0.11725 0.76387 0.29303 0.0
O133 O 0.16559 0.80786 0.30154 0.0
O134 O 0.15576 0.73146 0.41262 0.0
O135 O 0.15044 0.7718 0.37305 0.0
O136 O 0.11569 0.7791 0.36198 0.0
O137 O 0.11389 0.74094 0.35355 0.0
O138 O 0.1737 0.76025 0.40011 0.0
O139 O 0.12486 0.71404 0.38388 0.0
C140 C 0.12568 0.74627 0.29483 0.0
C141 C 0.14687 0.82552 0.26342 0.0
C142 C 0.13729 0.84343 0.21645 0.0
C143 C 0.14281 0.82482 0.22897 0.0
C144 C 0.13569 0.86262 0.23913 0.0
C145 C 0.14559 0.84496 0.28546 0.0
C146 C 0.13996 0.86338 0.27332 0.0
C147 C 0.18708 0.76173 0.32312 0.0
C148 C 0.15068 0.80532 0.27601 0.0
C149 C 0.12077 0.8664 0.39503 0.0
C150 C 0.1433 0.87093 0.40766 0.0
C151 C 0.16554 0.77784 0.3969 0.0
C152 C 0.13928 0.69754 0.4272 0.0
C153 C 0.13036 0.69554 0.45745 0.0
C154 C 0.13452 0.67846 0.4746 0.0
C155 C 0.14715 0.66301 0.46092 0.0
C156 C 0.15163 0.68186 0.41345 0.0
C157 C 0.15543 0.66458 0.43023 0.0
C158 C 0.10641 0.75889 0.36636 0.0
C159 C 0.13729 0.71721 0.41211 0.0
H160 H 0.14398 0.80978 0.21206 0.0
H161 H 0.13084 0.87702 0.23053 0.0
H162 H 0.14872 0.84585 0.31202 0.0
H163 H 0.13869 0.87822 0.29049 0.0
H164 H 0.12105 0.7078 0.46832 0.0
H165 H 0.15075 0.6499 0.47416 0.0
H166 H 0.15869 0.68324 0.39024 0.0
H167 H 0.16521 0.65267 0.41979 0.0
Eu168 Eu 0.5239 0.85084 0.59405 0.0
C169 C 0.62215 0.89792 0.61255 0.0
C170 C 0.64411 0.87968 0.57333 0.0
C171 C 0.65562 0.91918 0.59573 0.0
C172 C 0.62528 0.87886 0.59151 0.0
C173 C 0.63744 0.91821 0.61487 0.0
C174 C 0.659 0.89997 0.57517 0.0
C175 C 0.6167 0.93503 0.65671 0.0
N176 N 0.60467 0.89653 0.6315 0.0
C177 C 0.60216 0.91458 0.65411 0.0
C178 C 0.63433 0.9369 0.63692 0.0
Eu179 Eu 0.58127 0.86079 0.62441 0.0
N180 N 0.61073 0.85927 0.59017 0.0
C181 C 0.61468 0.8398 0.5725 0.0
C182 C 0.64786 0.85994 0.55455 0.0
C183 C 0.63325 0.83989 0.55448 0.0
H184 H 0.58856 0.91365 0.66947 0.0
H185 H 0.63624 0.82449 0.54048 0.0
H186 H 0.67344 0.9009 0.56121 0.0
H187 H 0.6143 0.94935 0.67407 0.0
H188 H 0.60363 0.82414 0.57228 0.0
H189 H 0.48818 0.90116 0.69256 0.0
H190 H 0.66223 0.85992 0.54052 0.0
H191 H 0.50131 0.79997 0.5502 0.0
H192 H 0.51406 0.89454 0.65143 0.0
H193 H 0.4703 0.76921 0.55203 0.0
H194 H 0.66745 0.93464 0.59718 0.0
H195 H 0.4581 0.87076 0.7005 0.0
H196 H 0.43802 0.83139 0.68309 0.0
H197 H 0.64565 0.95276 0.63922 0.0
H198 H 0.43314 0.79559 0.64504 0.0
N199 N 0.50002 0.85981 0.6359 0.0
C200 C 0.50143 0.88069 0.65415 0.0
C201 C 0.46959 0.86754 0.68214 0.0
C202 C 0.46729 0.84657 0.66222 0.0
C203 C 0.48655 0.88472 0.67777 0.0
C204 C 0.48275 0.84318 0.63867 0.0
H205 H 0.44434 0.77281 0.59508 0.0
N206 N 0.4945 0.82024 0.59392 0.0
C207 C 0.47281 0.78418 0.57052 0.0
C208 C 0.48012 0.82281 0.61745 0.0
C209 C 0.49047 0.80169 0.56972 0.0
C210 C 0.45842 0.78614 0.59524 0.0
C211 C 0.46182 0.80565 0.61896 0.0
O212 O 0.49192 0.85533 0.57198 0.0
O213 O 0.55837 0.85462 0.57551 0.0
O214 O 0.57472 0.88959 0.60011 0.0
O215 O 0.53914 0.88702 0.61468 0.0
O216 O 0.53323 0.83045 0.54821 0.0
O217 O 0.52213 0.87106 0.55465 0.0
O218 O 0.58748 0.8519 0.67365 0.0
O219 O 0.54627 0.85266 0.6405 0.0
O220 O 0.53264 0.81725 0.60049 0.0
O221 O 0.57144 0.8245 0.60245 0.0
O222 O 0.56785 0.87795 0.67093 0.0
O223 O 0.61149 0.84848 0.63847 0.0
C224 C 0.55393 0.83982 0.54862 0.0
C225 C 0.49082 0.85807 0.51584 0.0
C226 C 0.47245 0.86466 0.46503 0.0
C227 C 0.48297 0.87274 0.49715 0.0
C228 C 0.47034 0.84192 0.45144 0.0
C229 C 0.48884 0.83546 0.50201 0.0
C230 C 0.47875 0.82746 0.46982 0.0
C231 C 0.55674 0.89818 0.60406 0.0
C232 C 0.50051 0.86638 0.54998 0.0
C233 C 0.44706 0.80871 0.64327 0.0
C234 C 0.44982 0.82911 0.66488 0.0
C235 C 0.54803 0.866 0.66821 0.0
C236 C 0.62491 0.863 0.69456 0.0
C237 C 0.62221 0.86233 0.72803 0.0
C238 C 0.6374 0.87609 0.75326 0.0
C239 C 0.65515 0.89113 0.74452 0.0
C240 C 0.64284 0.87796 0.6861 0.0
C241 C 0.65777 0.89206 0.71106 0.0
C242 C 0.55219 0.81071 0.59949 0.0
C243 C 0.60768 0.84933 0.66933 0.0
H244 H 0.48489 0.89025 0.50765 0.0
H245 H 0.46271 0.83547 0.42627 0.0
H246 H 0.49501 0.824 0.51598 0.0
H247 H 0.47756 0.8101 0.45908 0.0
H248 H 0.60797 0.85122 0.73437 0.0
H249 H 0.6673 0.90179 0.76342 0.0
H250 H 0.64526 0.87894 0.66038 0.0
H251 H 0.67149 0.90363 0.70446 0.0
Eu252 Eu 0.38786 0.20573 0.97204 0.0
C253 C 0.44113 0.30429 0.9734 0.0
C254 C 0.41519 0.32667 0.99614 0.0
C255 C 0.45482 0.3425 1.00117 0.0
C256 C 0.41954 0.30645 0.97913 0.0
C257 C 0.45901 0.32231 0.98411 0.0
C258 C 0.43295 0.34467 1.0072 0.0
C259 C 0.48367 0.29924 0.95932 0.0
N260 N 0.44453 0.28453 0.95701 0.0
C261 C 0.46535 0.28191 0.9491 0.0
C262 C 0.48052 0.31953 0.97705 0.0
Eu263 Eu 0.41273 0.25625 0.93864 0.0
N264 N 0.40284 0.28861 0.96841 0.0
C265 C 0.38125 0.2901 0.97295 0.0
C266 C 0.39313 0.32817 1.00146 0.0
C267 C 0.37608 0.30981 0.98974 0.0
H268 H 0.46781 0.2663 0.93513 0.0
H269 H 0.35895 0.31083 0.99357 0.0
H270 H 0.42995 0.36036 1.02034 0.0
H271 H 0.50018 0.29699 0.9534 0.0
H272 H 0.36796 0.27602 0.96397 0.0
H273 H 0.42913 0.14128 0.91029 0.0
H274 H 0.38906 0.34341 1.01444 0.0
H275 H 0.33444 0.20065 0.98804 0.0
H276 H 0.42681 0.17598 0.94792 0.0
H277 H 0.29813 0.17572 0.96762 0.0
H278 H 0.46833 0.35656 1.00967 0.0
H279 H 0.39474 0.11711 0.8804 0.0
H280 H 0.3528 0.10868 0.87179 0.0
H281 H 0.49472 0.33297 0.98485 0.0
H282 H 0.31703 0.11796 0.8877 0.0
N283 N 0.39161 0.17212 0.93807 0.0
C284 C 0.41169 0.16561 0.93498 0.0
C285 C 0.39364 0.13239 0.89676 0.0
C286 C 0.37294 0.13818 0.90245 0.0
C287 C 0.41308 0.14594 0.91368 0.0
C288 C 0.37247 0.15831 0.92387 0.0
H289 H 0.2965 0.14268 0.92397 0.0
N290 N 0.35275 0.18206 0.95564 0.0
C291 C 0.31325 0.17212 0.95758 0.0
C292 C 0.35238 0.1634 0.93302 0.0
C293 C 0.33376 0.1861 0.96919 0.0
C294 C 0.31239 0.15353 0.93284 0.0
C295 C 0.33216 0.1487 0.92074 0.0
O296 O 0.37603 0.19601 1.01805 0.0
O297 O 0.39901 0.24225 0.98116 0.0
O298 O 0.43822 0.25019 0.97742 0.0
O299 O 0.42563 0.21304 0.98275 0.0
O300 O 0.3749 0.23124 1.00912 0.0
O301 O 0.40851 0.19078 1.00413 0.0
O302 O 0.42835 0.26052 0.89301 0.0
O303 O 0.40244 0.21904 0.92842 0.0
O304 O 0.36074 0.21158 0.93526 0.0
O305 O 0.37538 0.24613 0.92084 0.0
O306 O 0.43388 0.2327 0.91662 0.0
O307 O 0.3962 0.26979 0.89951 0.0
C308 C 0.38878 0.24879 1.00535 0.0
C309 C 0.39138 0.16704 0.03799 0.0
C310 C 0.4018 0.14616 0.08081 0.0
C311 C 0.40192 0.16654 0.06944 0.0
C312 C 0.39074 0.12627 0.06035 0.0
C313 C 0.38042 0.1471 1.01784 0.0
C314 C 0.38004 0.1268 0.02914 0.0
C315 C 0.44005 0.23215 0.99053 0.0
C316 C 0.39399 0.1883 0.02567 0.0
C317 C 0.33242 0.12933 0.89774 0.0
C318 C 0.35279 0.12407 0.88863 0.0
C319 C 0.41963 0.21448 0.91533 0.0
C320 C 0.42025 0.29069 0.86862 0.0
C321 C 0.42136 0.29021 0.83444 0.0
C322 C 0.42835 0.31006 0.82232 0.0
C323 C 0.43455 0.33035 0.84455 0.0
C324 C 0.42606 0.31113 0.89049 0.0
C325 C 0.43344 0.33083 0.87856 0.0
C326 C 0.35916 0.22855 0.91956 0.0
C327 C 0.41273 0.26987 0.88105 0.0
H328 H 0.4108 0.18197 0.0846 0.0
H329 H 0.39021 0.11035 0.06863 0.0
H330 H 0.37249 0.14722 0.99333 0.0
H331 H 0.3716 0.1114 1.01356 0.0
H332 H 0.41629 0.27458 0.81724 0.0
H333 H 0.44014 0.34579 0.83553 0.0
H334 H 0.42455 0.31199 0.9166 0.0
H335 H 0.43803 0.3465 0.89566 0.0
Eu336 Eu 0.05693 0.88223 0.83483 0.0
C337 C 0.95917 0.82855 0.83364 0.0
C338 C 0.93695 0.85647 0.82496 0.0
C339 C 0.91972 0.81716 0.81429 0.0
C340 C 0.95754 0.85071 0.8345 0.0
C341 C 0.94014 0.81158 0.8245 0.0
C342 C 0.91818 0.83954 0.81422 0.0
C343 C 0.96262 0.78492 0.83768 0.0
N344 N 0.97893 0.82372 0.84445 0.0
C345 C 0.98098 0.80227 0.84652 0.0
C346 C 0.942 0.78963 0.82734 0.0
Eu347 Eu 0.00716 0.85404 0.86869 0.0
N348 N 0.97566 0.86668 0.84678 0.0
C349 C 0.97437 0.88879 0.84992 0.0
C350 C 0.93562 0.87908 0.82775 0.0
C351 C 0.95441 0.89531 0.84037 0.0
H352 H 0.9967 0.79872 0.85608 0.0
H353 H 0.95355 0.91285 0.84276 0.0
H354 H 0.90224 0.84365 0.80679 0.0
H355 H 0.96425 0.76804 0.83968 0.0
H356 H 0.98868 0.9016 0.85944 0.0
H357 H 0.12483 0.84951 0.89213 0.0
H358 H 0.92012 0.88418 0.82068 0.0
H359 H 0.05701 0.9343 0.82098 0.0
H360 H 0.09018 0.84765 0.85623 0.0
H361 H 0.07848 0.97254 0.84144 0.0
H362 H 0.90494 0.80433 0.80697 0.0
H363 H 0.14575 0.88606 0.9219 0.0
H364 H 0.15028 0.928 0.93148 0.0
H365 H 0.9276 0.77622 0.82201 0.0
H366 H 0.13776 0.96158 0.91736 0.0
N367 N 0.09081 0.88261 0.86681 0.0
C368 C 0.0991 0.86368 0.86914 0.0
C369 C 0.13047 0.88532 0.90627 0.0
C370 C 0.12282 0.90484 0.90149 0.0
C371 C 0.11876 0.86467 0.88946 0.0
C372 C 0.10278 0.9029 0.88103 0.0
H373 H 0.11125 0.97835 0.88321 0.0
N374 N 0.07726 0.91905 0.85145 0.0
C375 C 0.08347 0.95841 0.85064 0.0
C376 C 0.09583 0.92175 0.87299 0.0
C377 C 0.07145 0.93682 0.83899 0.0
C378 C 0.10192 0.96162 0.8743 0.0
C379 C 0.10858 0.94313 0.88531 0.0
O380 O 0.06417 0.89265 0.78739 0.0
O381 O 0.02098 0.86938 0.82829 0.0
O382 O 0.01484 0.8309 0.82382 0.0
O383 O 0.05298 0.84435 0.82356 0.0
O384 O 0.03042 0.89211 0.7999 0.0
O385 O 0.07569 0.86361 0.80098 0.0
O386 O 0.00017 0.83383 0.90757 0.0
O387 O 0.04392 0.86667 0.87794 0.0
O388 O 0.0481 0.90891 0.87393 0.0
O389 O 0.01631 0.8905 0.89402 0.0
O390 O 0.03198 0.83442 0.88617 0.0
O391 O 0.99434 0.86791 0.9139 0.0
C392 C 0.01334 0.87818 0.80541 0.0
C393 C 0.09644 0.88308 0.76499 0.0
C394 C 0.11951 0.87779 0.71924 0.0
C395 C 0.09908 0.87288 0.73271 0.0
C396 C 0.13714 0.89326 0.73846 0.0
C397 C 0.11419 0.89836 0.78386 0.0
C398 C 0.13444 0.90346 0.77051 0.0
C399 C 0.03475 0.82898 0.814 0.0
C400 C 0.07538 0.87682 0.77901 0.0
C401 C 0.12787 0.94527 0.90728 0.0
C402 C 0.13499 0.92615 0.91536 0.0
C403 C 0.04937 0.85006 0.88914 0.0
C404 C 0.97115 0.84241 0.93918 0.0
C405 C 0.97152 0.83835 0.97186 0.0
C406 C 0.95151 0.83361 0.98609 0.0
C407 C 0.93106 0.83224 0.96735 0.0
C408 C 0.95065 0.84114 0.92053 0.0
C409 C 0.93067 0.8358 0.93446 0.0
C410 C 0.03184 0.90834 0.89366 0.0
C411 C 0.99231 0.84935 0.92593 0.0
H412 H 0.08542 0.86076 0.71845 0.0
H413 H 0.15299 0.89759 0.7286 0.0
H414 H 0.11242 0.9062 0.80887 0.0
H415 H 0.14812 0.9153 0.78509 0.0
H416 H 0.98732 0.8397 0.98662 0.0
H417 H 0.91549 0.82858 0.97827 0.0
H418 H 0.95005 0.8448 0.89566 0.0
H419 H 0.91491 0.83489 0.91999 0.0
Eu420 Eu 0.42629 0.78876 0.11804 0.0
C421 C 0.42636 0.69436 0.13604 0.0
C422 C 0.38732 0.67669 0.12633 0.0
C423 C 0.41537 0.65624 0.10607 0.0
C424 C 0.40418 0.69539 0.13952 0.0
C425 C 0.43216 0.67437 0.1204 0.0
C426 C 0.39297 0.65754 0.1084 0.0
C427 C 0.47059 0.6899 0.13985 0.0
N428 N 0.44232 0.71179 0.15139 0.0
C429 C 0.46408 0.7092 0.15532 0.0
C430 C 0.45464 0.67257 0.12167 0.0
Eu431 Eu 0.42981 0.74442 0.1759 0.0
N432 N 0.3993 0.71363 0.15871 0.0
C433 C 0.37851 0.71247 0.16963 0.0
C434 C 0.36542 0.67713 0.13352 0.0
C435 C 0.36111 0.69486 0.15601 0.0
H436 H 0.47663 0.72216 0.17021 0.0
H437 H 0.34448 0.69473 0.16345 0.0
H438 H 0.38025 0.64308 0.09814 0.0
H439 H 0.48785 0.68828 0.14246 0.0
H440 H 0.37504 0.72505 0.189 0.0
H441 H 0.48114 0.86946 0.1619 0.0
H442 H 0.35202 0.66321 0.12365 0.0
H443 H 0.37235 0.77989 0.08352 0.0
H444 H 0.47164 0.82888 0.14181 0.0
H445 H 0.34121 0.80008 0.08184 0.0
H446 H 0.41954 0.64065 0.09495 0.0
H447 H 0.45116 0.8915 0.16904 0.0
H448 H 0.41053 0.89295 0.16078 0.0
H449 H 0.45974 0.65744 0.11023 0.0
H450 H 0.37231 0.874 0.13919 0.0
N451 N 0.43661 0.82775 0.1378 0.0
C452 C 0.45839 0.83831 0.1444 0.0
C453 C 0.4469 0.87369 0.15995 0.0
C454 C 0.42471 0.86307 0.15088 0.0
C455 C 0.46386 0.86134 0.15583 0.0
C456 C 0.42006 0.83983 0.13916 0.0
H457 H 0.34643 0.83952 0.10913 0.0
N458 N 0.39523 0.80725 0.11288 0.0
C459 C 0.35725 0.80845 0.09467 0.0
C460 C 0.39871 0.82929 0.12629 0.0
C461 C 0.37508 0.79705 0.09568 0.0
C462 C 0.36025 0.83069 0.11015 0.0
C463 C 0.38127 0.84154 0.12559 0.0
O464 O 0.42584 0.7782 0.06325 0.0
O465 O 0.42456 0.7526 0.12426 0.0
O466 O 0.46078 0.7503 0.14669 0.0
O467 O 0.46022 0.78665 0.14258 0.0
O468 O 0.40122 0.7593 0.09034 0.0
O469 O 0.44943 0.80616 0.08739 0.0
O470 O 0.45384 0.73922 0.21626 0.0
O471 O 0.43678 0.78033 0.16805 0.0
O472 O 0.39797 0.78918 0.15045 0.0
O473 O 0.39574 0.75517 0.17114 0.0
O474 O 0.43435 0.77489 0.21637 0.0
O475 O 0.41908 0.73486 0.22291 0.0
C476 C 0.40826 0.74362 0.10315 0.0
C477 C 0.43793 0.80678 0.03034 0.0
C478 C 0.44769 0.82087 0.97774 0.0
C479 C 0.45183 0.80798 1.00331 0.0
C480 C 0.42972 0.83222 0.98011 0.0
C481 C 0.42035 0.81864 0.03105 0.0
C482 C 0.41633 0.83113 1.0063 0.0
C483 C 0.46942 0.76885 0.13586 0.0
C484 C 0.44164 0.79419 0.05873 0.0
C485 C 0.38553 0.86436 0.1392 0.0
C486 C 0.40726 0.87514 0.15163 0.0
C487 C 0.43709 0.78983 0.1977 0.0
C488 C 0.43999 0.71322 0.25314 0.0
C489 C 0.44396 0.71397 0.28885 0.0
C490 C 0.44431 0.69382 0.30287 0.0
C491 C 0.44002 0.67353 0.28034 0.0
C492 C 0.43591 0.69223 0.23271 0.0
C493 C 0.43588 0.67277 0.2461 0.0
C494 C 0.38748 0.77275 0.16416 0.0
C495 C 0.43875 0.73346 0.2362 0.0
H496 H 0.46555 0.799 1.00213 0.0
H497 H 0.42597 0.84209 0.96139 0.0
H498 H 0.40968 0.81835 0.05106 0.0
H499 H 0.40264 0.84014 1.00745 0.0
H500 H 0.44701 0.72994 0.3053 0.0
H501 H 0.4397 0.65785 0.28933 0.0
H502 H 0.43245 0.69079 0.20605 0.0
H503 H 0.43256 0.65679 0.22965 0.0
Eu504 Eu 0.49569 0.1313 0.46195 0.0
C505 C 0.58665 0.09961 0.43766 0.0
C506 C 0.61475 0.12608 0.47538 0.0
C507 C 0.62059 0.08827 0.45772 0.0
C508 C 0.59387 0.12076 0.45608 0.0
C509 C 0.6002 0.0833 0.43758 0.0
C510 C 0.62775 0.10954 0.47685 0.0
C511 C 0.57401 0.05952 0.39419 0.0
N512 N 0.56722 0.09558 0.4176 0.0
C513 C 0.56131 0.07634 0.39479 0.0
C514 C 0.59337 0.06287 0.41605 0.0
Eu515 Eu 0.54666 0.12484 0.41978 0.0
N516 N 0.58134 0.1366 0.45303 0.0
C517 C 0.58959 0.15845 0.46641 0.0
C518 C 0.62243 0.14814 0.49131 0.0
C519 C 0.60996 0.16446 0.48633 0.0
H520 H 0.5464 0.07374 0.37774 0.0
H521 H 0.61604 0.1817 0.49772 0.0
H522 H 0.64378 0.11329 0.49165 0.0
H523 H 0.56891 0.04404 0.37678 0.0
H524 H 0.58029 0.17133 0.46256 0.0
H525 H 0.44545 0.05356 0.39239 0.0
H526 H 0.63833 0.15288 0.50648 0.0
H527 H 0.4834 0.18238 0.47725 0.0
H528 H 0.47861 0.07719 0.4249 0.0
H529 H 0.45255 0.20168 0.46351 0.0
H530 H 0.6313 0.07601 0.45783 0.0
H531 H 0.41288 0.07 0.37702 0.0
H532 H 0.39457 0.10338 0.38156 0.0
H533 H 0.6033 0.0499 0.4153 0.0
H534 H 0.39702 0.14384 0.39836 0.0
N535 N 0.46562 0.10727 0.42733 0.0
C536 C 0.46476 0.08484 0.41831 0.0
C537 C 0.42762 0.08062 0.39098 0.0
C538 C 0.42846 0.10353 0.40063 0.0
C539 C 0.44592 0.07127 0.39968 0.0
C540 C 0.44809 0.1167 0.4185 0.0
H541 H 0.41875 0.18067 0.42806 0.0
N542 N 0.46799 0.15142 0.44735 0.0
C543 C 0.45151 0.18422 0.4533 0.0
C544 C 0.4494 0.13946 0.42849 0.0
C545 C 0.46897 0.17332 0.4608 0.0
C546 C 0.43249 0.17232 0.43324 0.0
C547 C 0.43104 0.14956 0.42117 0.0
O548 O 0.4883 0.14671 0.51054 0.0
O549 O 0.53205 0.13173 0.46833 0.0
O550 O 0.53962 0.09484 0.44436 0.0
O551 O 0.50597 0.09796 0.46745 0.0
O552 O 0.52019 0.157 0.498 0.0
O553 O 0.47756 0.11096 0.49398 0.0
O554 O 0.54765 0.11996 0.36598 0.0
O555 O 0.51045 0.12605 0.41415 0.0
O556 O 0.50521 0.16051 0.43526 0.0
O557 O 0.54317 0.16106 0.43397 0.0
O558 O 0.52039 0.10213 0.38127 0.0
O559 O 0.56931 0.14825 0.39694 0.0
C560 C 0.53744 0.14824 0.49166 0.0
C561 C 0.45584 0.12947 0.5305 0.0
C562 C 0.43531 0.13476 0.57916 0.0
C563 C 0.45496 0.13131 0.56487 0.0
C564 C 0.4165 0.13615 0.55806 0.0
C565 C 0.43671 0.12998 0.5099 0.0
C566 C 0.41717 0.13344 0.52365 0.0
C567 C 0.52262 0.08737 0.46019 0.0
C568 C 0.47719 0.12808 0.51702 0.0
C569 C 0.41145 0.13646 0.40361 0.0
C570 C 0.41009 0.11347 0.39378 0.0
C571 C 0.50365 0.11138 0.38887 0.0
C572 C 0.58181 0.13256 0.34687 0.0
C573 C 0.58179 0.1389 0.31548 0.0
C574 C 0.59822 0.13404 0.29495 0.0
C575 C 0.61461 0.12267 0.30569 0.0
C576 C 0.59825 0.12123 0.35764 0.0
C577 C 0.61455 0.11622 0.33698 0.0
C578 C 0.52531 0.16994 0.42939 0.0
C579 C 0.56378 0.13686 0.367 0.0
H580 H 0.46969 0.13001 0.58027 0.0
H581 H 0.4013 0.13959 0.56796 0.0
H582 H 0.43683 0.12779 0.48335 0.0
H583 H 0.40256 0.13426 0.50762 0.0
H584 H 0.56909 0.14766 0.30706 0.0
H585 H 0.6274 0.11885 0.28989 0.0
H586 H 0.59847 0.11622 0.38179 0.0
H587 H 0.62716 0.10738 0.34524 0.0
Eu588 Eu 0.10933 0.20854 0.66375 0.0
C589 C 0.18166 0.2828 0.71604 0.0
C590 C 0.16519 0.3057 0.75785 0.0
C591 C 0.20428 0.3033 0.76639 0.0
C592 C 0.16296 0.29058 0.72756 0.0
C593 C 0.20262 0.29014 0.73474 0.0
C594 C 0.18559 0.31106 0.77793 0.0
C595 C 0.21983 0.27525 0.6869 0.0
N596 N 0.18002 0.27078 0.68474 0.0
C597 C 0.1988 0.26842 0.66919 0.0
C598 C 0.22161 0.28565 0.72 0.0
Eu599 Eu 0.14335 0.26065 0.65784 0.0
N600 N 0.14351 0.28588 0.70726 0.0
C601 C 0.12695 0.29777 0.71359 0.0
C602 C 0.14735 0.31628 0.76599 0.0
C603 C 0.12841 0.31272 0.74331 0.0
H604 H 0.19732 0.26059 0.64332 0.0
H605 H 0.11497 0.32158 0.74843 0.0
H606 H 0.18743 0.3223 0.80153 0.0
H607 H 0.23464 0.2727 0.67499 0.0
H608 H 0.11251 0.29592 0.69598 0.0
H609 H 0.1638 0.16824 0.58372 0.0
H610 H 0.14852 0.32812 0.78886 0.0
H611 H 0.05379 0.20359 0.65772 0.0
H612 H 0.15537 0.19553 0.62972 0.0
H613 H 0.02141 0.17897 0.62345 0.0
H614 H 0.22024 0.30869 0.78129 0.0
H615 H 0.13302 0.14222 0.5477 0.0
H616 H 0.09194 0.12813 0.53386 0.0
H617 H 0.23784 0.29153 0.73323 0.0
H618 H 0.05344 0.13083 0.54482 0.0
N619 N 0.12025 0.18575 0.6187 0.0
C620 C 0.14187 0.18455 0.61373 0.0
C621 C 0.12922 0.15428 0.56769 0.0
C622 C 0.1071 0.15516 0.57361 0.0
C623 C 0.14666 0.169 0.58787 0.0
C624 C 0.103 0.17123 0.59978 0.0
H625 H 0.02696 0.14982 0.57778 0.0
N626 N 0.07736 0.18922 0.63014 0.0
C627 C 0.038 0.17716 0.61815 0.0
C628 C 0.08106 0.17284 0.60592 0.0
C629 C 0.05631 0.19121 0.63722 0.0
C630 C 0.04129 0.16067 0.59246 0.0
C631 C 0.06301 0.15833 0.58604 0.0
O632 O 0.08903 0.18667 0.69221 0.0
O633 O 0.12492 0.24173 0.69604 0.0
O634 O 0.16584 0.23586 0.66647 0.0
O635 O 0.14315 0.21393 0.69572 0.0
O636 O 0.09221 0.22754 0.70308 0.0
O637 O 0.119 0.17771 0.67171 0.0
O638 O 0.15949 0.2951 0.65666 0.0
O639 O 0.12671 0.22744 0.62801 0.0
O640 O 0.08906 0.22739 0.63328 0.0
O641 O 0.10692 0.2619 0.65958 0.0
O642 O 0.14568 0.24742 0.60208 0.0
O643 O 0.13738 0.27686 0.61486 0.0
C644 C 0.10849 0.24423 0.7138 0.0
C645 C 0.10431 0.15686 0.71034 0.0
C646 C 0.12217 0.1502 0.76141 0.0
C647 C 0.11684 0.16512 0.74096 0.0
C648 C 0.115 0.12705 0.75089 0.0
C649 C 0.09708 0.13382 0.70002 0.0
C650 C 0.10247 0.11894 0.72029 0.0
C651 C 0.16333 0.22302 0.68943 0.0
C652 C 0.10137 0.17137 0.68644 0.0
C653 C 0.06714 0.14214 0.56028 0.0
C654 C 0.08908 0.1406 0.55404 0.0
C655 C 0.13094 0.22924 0.59803 0.0
C656 C 0.16926 0.30046 0.60305 0.0
C657 C 0.1624 0.30237 0.57026 0.0
C658 C 0.17817 0.30607 0.54727 0.0
C659 C 0.20087 0.30716 0.55741 0.0
C660 C 0.19217 0.30309 0.61307 0.0
C661 C 0.20779 0.30596 0.59019 0.0
C662 C 0.0914 0.24939 0.6375 0.0
C663 C 0.15236 0.29455 0.62585 0.0
H664 H 0.1225 0.18297 0.74871 0.0
H665 H 0.11844 0.11528 0.76682 0.0
H666 H 0.08776 0.12735 0.6759 0.0
H667 H 0.09691 0.10115 0.71233 0.0
H668 H 0.14481 0.30128 0.56297 0.0
H669 H 0.21338 0.30918 0.54012 0.0
H670 H 0.1981 0.30284 0.6385 0.0
H671 H 0.22534 0.30735 0.59793 0.0
Eu672 Eu 0.92176 0.29024 0.61206 0.0
C673 C 0.94289 0.20092 0.63787 0.0
C674 C 0.90723 0.17697 0.61724 0.0
C675 C 0.94142 0.16284 0.60965 0.0
C676 C 0.91977 0.1977 0.63386 0.0
C677 C 0.95379 0.18315 0.62706 0.0
C678 C 0.9182 0.15983 0.60448 0.0
C679 C 0.9884 0.20598 0.65396 0.0
N680 N 0.95467 0.22087 0.65407 0.0
C681 C 0.97696 0.22326 0.66369 0.0
C682 C 0.97676 0.18595 0.63516 0.0
Eu683 Eu 0.93384 0.24883 0.67069 0.0
N684 N 0.9095 0.21452 0.64666 0.0
C685 C 0.88668 0.21106 0.64498 0.0
C686 C 0.88398 0.17388 0.6143 0.0
C687 C 0.87369 0.19091 0.62858 0.0
H688 H 0.98593 0.23873 0.67849 0.0
H689 H 0.85567 0.18854 0.62698 0.0
H690 H 0.90883 0.14395 0.59139 0.0
H691 H 0.0061 0.20808 0.6612 0.0
H692 H 0.87792 0.22352 0.65581 0.0
H693 H 0.97042 0.37138 0.67039 0.0
H694 H 0.87383 0.15827 0.60161 0.0
H695 H 0.86996 0.27933 0.57126 0.0
H696 H 0.96427 0.33161 0.64489 0.0
H697 H 0.83729 0.29756 0.56699 0.0
H698 H 0.94962 0.14917 0.60069 0.0
H699 H 0.93834 0.39067 0.67636 0.0
H700 H 0.89739 0.38969 0.66379 0.0
H701 H 0.98533 0.1723 0.62802 0.0
H702 H 0.86113 0.36963 0.63518 0.0
N703 N 0.92899 0.32815 0.63763 0.0
C704 C 0.95011 0.33978 0.64757 0.0
C705 C 0.93553 0.37317 0.66527 0.0
C706 C 0.91411 0.36158 0.65269 0.0
C707 C 0.95368 0.36238 0.66185 0.0
C708 C 0.91138 0.33885 0.63827 0.0
H709 H 0.83875 0.33552 0.59831 0.0
N710 N 0.88952 0.30635 0.60575 0.0
C711 C 0.85225 0.30614 0.58267 0.0
C712 C 0.89104 0.32764 0.62177 0.0
C713 C 0.8708 0.29583 0.58524 0.0
C714 C 0.85312 0.32755 0.60046 0.0
C715 C 0.8728 0.33874 0.61982 0.0
O716 O 0.92587 0.28026 0.5585 0.0
O717 O 0.92438 0.25523 0.6187 0.0
O718 O 0.96174 0.25497 0.63627 0.0
O719 O 0.95736 0.29048 0.63109 0.0
O720 O 0.89973 0.25907 0.58355 0.0
O721 O 0.93944 0.31338 0.58211 0.0
O722 O 0.95399 0.24872 0.7181 0.0
O723 O 0.9308 0.28349 0.66374 0.0
O724 O 0.89127 0.28381 0.63987 0.0
O725 O 0.8992 0.25796 0.67439 0.0
O726 O 0.95239 0.28116 0.70326 0.0
O727 O 0.9191 0.23518 0.7131 0.0
C728 C 0.90888 0.24471 0.59697 0.0
C729 C 0.93061 0.30833 0.52265 0.0
C730 C 0.93893 0.32051 0.46816 0.0
C731 C 0.94615 0.31385 0.49883 0.0
C732 C 0.91641 0.32236 0.46309 0.0
C733 C 0.90849 0.31073 0.51585 0.0
C734 C 0.90156 0.31777 0.48662 0.0
C735 C 0.96758 0.27358 0.62386 0.0
C736 C 0.93669 0.29956 0.55413 0.0
C737 C 0.87503 0.36091 0.63612 0.0
C738 C 0.89566 0.37232 0.65247 0.0
C739 C 0.94313 0.29483 0.68861 0.0
C740 C 0.94238 0.22044 0.75229 0.0
C741 C 0.94424 0.2222 0.78844 0.0
C742 C 0.94854 0.20376 0.80462 0.0
C743 C 0.951 0.1842 0.78359 0.0
C744 C 0.94497 0.20019 0.73363 0.0
C745 C 0.94925 0.18248 0.749 0.0
C746 C 0.88591 0.27036 0.66174 0.0
C747 C 0.93771 0.23886 0.73285 0.0
H748 H 0.96339 0.31237 0.50368 0.0
H749 H 0.91017 0.32747 0.44053 0.0
H750 H 0.8964 0.30697 0.53319 0.0
H751 H 0.88434 0.31943 0.48192 0.0
H752 H 0.94187 0.23737 0.80372 0.0
H753 H 0.95447 0.16991 0.79407 0.0
H754 H 0.9436 0.19795 0.70674 0.0
H755 H 0.95122 0.16708 0.73378 0.0
Eu756 Eu 0.6114 0.71508 0.17425 0.0
C757 C 0.66838 0.79587 0.22997 0.0
C758 C 0.64527 0.82369 0.24158 0.0
C759 C 0.67687 0.82341 0.28086 0.0
C760 C 0.65009 0.80492 0.22094 0.0
C761 C 0.6825 0.80571 0.25938 0.0
C762 C 0.65833 0.83236 0.27183 0.0
C763 C 0.70916 0.78329 0.24081 0.0
N764 N 0.67378 0.77914 0.20837 0.0
C765 C 0.69481 0.77443 0.21193 0.0
C766 C 0.70265 0.79852 0.26522 0.0
Eu767 Eu 0.64761 0.76347 0.16104 0.0
N768 N 0.63838 0.79684 0.19068 0.0
C769 C 0.6237 0.80877 0.17821 0.0
C770 C 0.62828 0.83408 0.23044 0.0
C771 C 0.61783 0.82691 0.19825 0.0
H772 H 0.70097 0.76406 0.19238 0.0
H773 H 0.6056 0.83566 0.18854 0.0
H774 H 0.65497 0.84686 0.28735 0.0
H775 H 0.72541 0.77875 0.2438 0.0
H776 H 0.61642 0.80464 0.15265 0.0
H777 H 0.66394 0.6661 0.10242 0.0
H778 H 0.62402 0.84843 0.24575 0.0
H779 H 0.55586 0.70938 0.16933 0.0
H780 H 0.65633 0.69713 0.14244 0.0
H781 H 0.52288 0.68252 0.14055 0.0
H782 H 0.68739 0.83105 0.3036 0.0
H783 H 0.63273 0.63788 0.07136 0.0
H784 H 0.59156 0.62377 0.05979 0.0
H785 H 0.71395 0.80574 0.28737 0.0
H786 H 0.55335 0.62811 0.0702 0.0
N787 N 0.62106 0.68724 0.13407 0.0
C788 C 0.6425 0.68517 0.12915 0.0
C789 C 0.62925 0.65157 0.08899 0.0
C790 C 0.60732 0.65344 0.09462 0.0
C791 C 0.6469 0.66749 0.1064 0.0
C792 C 0.60367 0.6716 0.11782 0.0
H793 H 0.52758 0.64996 0.10001 0.0
N794 N 0.57897 0.69222 0.14489 0.0
C795 C 0.53937 0.68007 0.1353 0.0
C796 C 0.58206 0.67401 0.12371 0.0
C797 C 0.55805 0.69524 0.15145 0.0
C798 C 0.54214 0.66162 0.11261 0.0
C799 C 0.56367 0.6584 0.10651 0.0
O800 O 0.58982 0.70244 0.20985 0.0
O801 O 0.62971 0.74909 0.20205 0.0
O802 O 0.66783 0.7375 0.17289 0.0
O803 O 0.6446 0.71881 0.20481 0.0
O804 O 0.59543 0.74109 0.20427 0.0
O805 O 0.61892 0.68789 0.1987 0.0
O806 O 0.67927 0.76641 0.13977 0.0
O807 O 0.63143 0.72835 0.13466 0.0
O808 O 0.59015 0.73075 0.14173 0.0
O809 O 0.61155 0.76644 0.14904 0.0
O810 O 0.63516 0.75325 0.1062 0.0
O811 O 0.65911 0.79167 0.13623 0.0
C812 C 0.61323 0.7557 0.21595 0.0
C813 C 0.61164 0.694 0.25433 0.0
C814 C 0.6294 0.68129 0.30113 0.0
C815 C 0.62116 0.67775 0.2674 0.0
C816 C 0.62915 0.70206 0.32109 0.0
C817 C 0.61129 0.71445 0.27469 0.0
C818 C 0.62031 0.71854 0.30778 0.0
C819 C 0.6647 0.72562 0.19682 0.0
C820 C 0.60356 0.68997 0.21892 0.0
C821 C 0.56728 0.64026 0.08362 0.0
C822 C 0.58904 0.6378 0.07767 0.0
C823 C 0.6274 0.73231 0.10461 0.0
C824 C 0.67847 0.78102 0.08989 0.0
C825 C 0.66841 0.79412 0.07038 0.0
C826 C 0.66891 0.79057 0.03577 0.0
C827 C 0.6797 0.7739 1.02062 0.0
C828 C 0.6896 0.76469 0.0744 0.0
C829 C 0.6901 0.76114 0.03994 0.0
C830 C 0.59361 0.75152 0.13635 0.0
C831 C 0.67616 0.78342 0.12589 0.0
H832 H 0.62176 0.66221 0.25129 0.0
H833 H 0.63479 0.70531 0.3474 0.0
H834 H 0.60403 0.72725 0.26513 0.0
H835 H 0.61993 0.73432 0.32337 0.0
H836 H 0.65978 0.80677 0.08196 0.0
H837 H 0.68046 0.77105 0.99392 0.0
H838 H 0.69762 0.75439 0.0888 0.0
H839 H 0.69851 0.74842 0.02817 0.0
Eu840 Eu 0.63883 0.28382 0.8287 0.0
C841 C 0.68233 0.19792 0.83372 0.0
C842 C 0.65689 0.16759 0.79816 0.0
C843 C 0.69617 0.16569 0.80704 0.0
C844 C 0.66109 0.18875 0.81869 0.0
C845 C 0.7 0.18623 0.82883 0.0
C846 C 0.67465 0.1564 0.79167 0.0
C847 C 0.72323 0.21476 0.87021 0.0
N848 N 0.68532 0.21752 0.85517 0.0
C849 C 0.70516 0.22571 0.87423 0.0
C850 C 0.72074 0.19509 0.84705 0.0
Eu851 Eu 0.65405 0.23484 0.86159 0.0
N852 N 0.64423 0.19966 0.82641 0.0
C853 C 0.62257 0.18951 0.81676 0.0
C854 C 0.63483 0.15788 0.78603 0.0
C855 C 0.61756 0.16874 0.79582 0.0
H856 H 0.70714 0.24093 0.89211 0.0
H857 H 0.60039 0.16111 0.78736 0.0
H858 H 0.67179 0.14021 0.77575 0.0
H859 H 0.73905 0.22151 0.88493 0.0
H860 H 0.60908 0.19767 0.8244 0.0
H861 H 0.69913 0.35616 0.89371 0.0
H862 H 0.6309 0.14168 0.77009 0.0
H863 H 0.58372 0.27868 0.81162 0.0
H864 H 0.68685 0.31897 0.85966 0.0
H865 H 0.55357 0.29896 0.82774 0.0
H866 H 0.70958 0.15652 0.80272 0.0
H867 H 0.67132 0.37741 0.91665 0.0
H868 H 0.63112 0.38021 0.92041 0.0
H869 H 0.73472 0.18657 0.8441 0.0
H870 H 0.59151 0.36468 0.90244 0.0
N871 N 0.65225 0.31881 0.86313 0.0
C872 C 0.67444 0.32792 0.86936 0.0
C873 C 0.66578 0.36102 0.90164 0.0
C874 C 0.64305 0.35193 0.89423 0.0
C875 C 0.68152 0.34911 0.88865 0.0
C876 C 0.63672 0.33059 0.87436 0.0
H877 H 0.56246 0.33457 0.86755 0.0
N878 N 0.60913 0.30218 0.84295 0.0
C879 C 0.57061 0.30557 0.83824 0.0
C880 C 0.61445 0.32199 0.86401 0.0
C881 C 0.58768 0.29416 0.82914 0.0
C882 C 0.57569 0.32563 0.86079 0.0
C883 C 0.59787 0.33427 0.87357 0.0
O884 O 0.62528 0.28586 0.77864 0.0
O885 O 0.64298 0.24836 0.81671 0.0
O886 O 0.68087 0.2458 0.82988 0.0
O887 O 0.67595 0.28241 0.82758 0.0
O888 O 0.61447 0.25654 0.79472 0.0
O889 O 0.65797 0.30493 0.79853 0.0
O890 O 0.66298 0.23077 0.91277 0.0
O891 O 0.65072 0.27007 0.87177 0.0
O892 O 0.61481 0.27348 0.8654 0.0
O893 O 0.61691 0.23592 0.85733 0.0
O894 O 0.67554 0.26267 0.90015 0.0
O895 O 0.63093 0.21398 0.88691 0.0
C896 C 0.62583 0.24092 0.7964 0.0
C897 C 0.6365 0.31981 0.76026 0.0
C898 C 0.62872 0.33694 0.7118 0.0
C899 C 0.63523 0.31927 0.72574 0.0
C900 C 0.62354 0.35515 0.73317 0.0
C901 C 0.63143 0.33814 0.78112 0.0
C902 C 0.62501 0.35574 0.76756 0.0
C903 C 0.68772 0.26615 0.82356 0.0
C904 C 0.64218 0.30066 0.7739 0.0
C905 C 0.60401 0.35504 0.89467 0.0
C906 C 0.62656 0.36387 0.90493 0.0
C907 C 0.66484 0.27852 0.8962 0.0
C908 C 0.64675 0.19652 0.92716 0.0
C909 C 0.64036 0.19467 0.95889 0.0
C910 C 0.64123 0.17506 0.97187 0.0
C911 C 0.64871 0.15731 0.95287 0.0
C912 C 0.65435 0.1788 0.90839 0.0
C913 C 0.65535 0.15928 0.9213 0.0
C914 C 0.60733 0.2527 0.86934 0.0
C915 C 0.64457 0.21675 0.91381 0.0
H916 H 0.63935 0.3051 0.70985 0.0
H917 H 0.61795 0.36881 0.72333 0.0
H918 H 0.6323 0.33878 0.80776 0.0
H919 H 0.62093 0.36979 0.78372 0.0
H920 H 0.6343 0.20833 0.97323 0.0
H921 H 0.64964 0.14209 0.96261 0.0
H922 H 0.65931 0.17998 0.88382 0.0
H923 H 0.66121 0.14562 0.90677 0.0
Eu924 Eu 0.88641 0.70469 0.47482 0.0
C925 C 0.94122 0.79929 0.47319 0.0
C926 C 0.91429 0.82226 0.49036 0.0
C927 C 0.95341 0.83906 0.49311 0.0
C928 C 0.91934 0.80139 0.47714 0.0
C929 C 0.95852 0.81817 0.48121 0.0
C930 C 0.93146 0.84104 0.49849 0.0
C931 C 0.98418 0.79522 0.45969 0.0
N932 N 0.94526 0.77945 0.45801 0.0
C933 C 0.96631 0.77731 0.45049 0.0
C934 C 0.98025 0.8158 0.47499 0.0
Eu935 Eu 0.91379 0.7516 0.43599 0.0
N936 N 0.90286 0.78357 0.4654 0.0
C937 C 0.88099 0.78529 0.4672 0.0
C938 C 0.89197 0.82396 0.49302 0.0
C939 C 0.87525 0.80535 0.48148 0.0
H940 H 0.96923 0.76181 0.43671 0.0
H941 H 0.8579 0.80653 0.48307 0.0
H942 H 0.92782 0.85732 0.50771 0.0
H943 H 0.00082 0.79334 0.45395 0.0
H944 H 0.86781 0.77122 0.45798 0.0
H945 H 0.9144 0.63128 0.41075 0.0
H946 H 0.88744 0.83967 0.5032 0.0
H947 H 0.83596 0.70788 0.4993 0.0
H948 H 0.91872 0.66795 0.44636 0.0
H949 H 0.79715 0.68669 0.48704 0.0
H950 H 0.96629 0.85391 0.4974 0.0
H951 H 0.87678 0.61036 0.38811 0.0
H952 H 0.83524 0.60719 0.3871 0.0
H953 H 0.99398 0.82991 0.48101 0.0
H954 H 0.80323 0.62209 0.40842 0.0
N955 N 0.88395 0.66873 0.4426 0.0
C956 C 0.90217 0.65924 0.43658 0.0
C957 C 0.87857 0.62662 0.40358 0.0
C958 C 0.85986 0.63554 0.4123 0.0
C959 C 0.89981 0.63833 0.4164 0.0
C960 C 0.86315 0.65682 0.43241 0.0
H961 H 0.78892 0.65146 0.44636 0.0
N962 N 0.84916 0.68494 0.46556 0.0
C963 C 0.81049 0.68049 0.47478 0.0
C964 C 0.84517 0.66512 0.44446 0.0
C965 C 0.83241 0.69237 0.48178 0.0
C966 C 0.8059 0.66065 0.4517 0.0
C967 C 0.82339 0.65252 0.43664 0.0
O968 O 0.87729 0.69995 0.52439 0.0
O969 O 0.90282 0.73995 0.48116 0.0
O970 O 0.94069 0.74068 0.4673 0.0
O971 O 0.92356 0.70524 0.47632 0.0
O972 O 0.87833 0.73398 0.51111 0.0
O973 O 0.90663 0.68879 0.50616 0.0
O974 O 0.93179 0.75796 0.39314 0.0
O975 O 0.89908 0.71539 0.42837 0.0
O976 O 0.859 0.71188 0.43987 0.0
O977 O 0.87668 0.7423 0.41748 0.0
O978 O 0.92906 0.72465 0.40835 0.0
O979 O 0.89843 0.76508 0.39585 0.0
C980 C 0.89383 0.74924 0.50456 0.0
C981 C 0.88955 0.67002 0.54572 0.0
C982 C 0.89961 0.65028 0.58981 0.0
C983 C 0.90194 0.66975 0.57579 0.0
C984 C 0.88465 0.63108 0.5738 0.0
C985 C 0.87458 0.65082 0.52977 0.0
C986 C 0.8721 0.63142 0.54395 0.0
C987 C 0.94111 0.72121 0.47706 0.0
C988 C 0.89395 0.68999 0.53039 0.0
C989 C 0.81988 0.63192 0.41503 0.0
C990 C 0.8381 0.62345 0.40285 0.0
C991 C 0.91359 0.70815 0.41133 0.0
C992 C 0.92321 0.78786 0.36854 0.0
C993 C 0.92479 0.78809 0.3347 0.0
C994 C 0.93162 0.80835 0.32345 0.0
C995 C 0.93734 0.82831 0.34665 0.0
C996 C 0.92812 0.80799 0.39114 0.0
C997 C 0.93546 0.82808 0.38034 0.0
C998 C 0.85897 0.72716 0.42041 0.0
C999 C 0.91608 0.76656 0.37966 0.0
H1000 H 0.91372 0.68452 0.58793 0.0
H1001 H 0.88264 0.61592 0.58448 0.0
H1002 H 0.86511 0.65077 0.50632 0.0
H1003 H 0.86057 0.61658 0.53166 0.0
H1004 H 0.92021 0.77256 0.31717 0.0
H1005 H 0.94322 0.84409 0.33877 0.0
H1006 H 0.92602 0.80828 0.41694 0.0
H1007 H 0.93951 0.84351 0.39806 0.0
Eu1008 Eu 0.54069 0.65312 0.69016 0.0
C1009 C 0.45409 0.5861 0.64537 0.0
C1010 C 0.42805 0.60787 0.62525 0.0
C1011 C 0.42268 0.5682 0.60425 0.0
C1012 C 0.44754 0.60668 0.6453 0.0
C1013 C 0.44108 0.5666 0.62564 0.0
C1014 C 0.41614 0.58875 0.60414 0.0
C1015 C 0.4626 0.54451 0.65376 0.0
N1016 N 0.47178 0.58469 0.66664 0.0
C1017 C 0.47489 0.56412 0.67285 0.0
C1018 C 0.44603 0.54578 0.62938 0.0
Eu1019 Eu 0.4893 0.61894 0.70111 0.0
N1020 N 0.45954 0.62534 0.66538 0.0
C1021 C 0.45234 0.64523 0.66712 0.0
C1022 C 0.4206 0.62815 0.6276 0.0
C1023 C 0.43249 0.64669 0.64927 0.0
H1024 H 0.48766 0.56279 0.6918 0.0
H1025 H 0.42627 0.66217 0.65243 0.0
H1026 H 0.40141 0.58957 0.58831 0.0
H1027 H 0.46591 0.52843 0.65796 0.0
H1028 H 0.46149 0.66016 0.68231 0.0
H1029 H 0.57476 0.58505 0.73508 0.0
H1030 H 0.40544 0.62955 0.6133 0.0
H1031 H 0.55234 0.70807 0.72099 0.0
H1032 H 0.54742 0.60137 0.70523 0.0
H1033 H 0.58088 0.73471 0.76 0.0
H1034 H 0.4128 0.55344 0.5887 0.0
H1035 H 0.60649 0.60953 0.77107 0.0
H1036 H 0.62615 0.6482 0.79612 0.0
H1037 H 0.43639 0.53052 0.61476 0.0
H1038 H 0.62768 0.68874 0.80322 0.0
N1039 N 0.56382 0.63503 0.72185 0.0
C1040 C 0.56143 0.6124 0.71959 0.0
C1041 C 0.59465 0.61687 0.75742 0.0
C1042 C 0.59665 0.64004 0.76065 0.0
C1043 C 0.5768 0.60301 0.7371 0.0
C1044 C 0.58075 0.64878 0.74239 0.0
H1045 H 0.61071 0.72103 0.79041 0.0
N1046 N 0.56529 0.67952 0.73027 0.0
C1047 C 0.58126 0.71703 0.75654 0.0
C1048 C 0.58158 0.67166 0.74654 0.0
C1049 C 0.56502 0.70189 0.73469 0.0
C1050 C 0.5981 0.70925 0.77352 0.0
C1051 C 0.59837 0.68634 0.76881 0.0
O1052 O 0.55614 0.68093 0.6679 0.0
O1053 O 0.50694 0.63641 0.66101 0.0
O1054 O 0.50866 0.59644 0.66902 0.0
O1055 O 0.53859 0.62034 0.65409 0.0
O1056 O 0.51719 0.6702 0.66259 0.0
O1057 O 0.56834 0.64977 0.66006 0.0
O1058 O 0.47908 0.59376 0.73112 0.0
O1059 O 0.52312 0.63607 0.72667 0.0
O1060 O 0.52326 0.67428 0.72612 0.0
O1061 O 0.48674 0.65444 0.72262 0.0
O1062 O 0.50418 0.61899 0.75523 0.0
O1063 O 0.45727 0.61731 0.7216 0.0
C1064 C 0.50263 0.65311 0.64776 0.0
C1065 C 0.57053 0.67155 0.61682 0.0
C1066 C 0.5782 0.65704 0.56116 0.0
C1067 C 0.57697 0.65472 0.59448 0.0
C1068 C 0.57239 0.67581 0.54976 0.0
C1069 C 0.5659 0.69081 0.60544 0.0
C1070 C 0.56623 0.69266 0.57193 0.0
C1071 C 0.52562 0.60042 0.65089 0.0
C1072 C 0.56943 0.66963 0.65213 0.0
C1073 C 0.61461 0.67772 0.78615 0.0
C1074 C 0.61374 0.65463 0.7821 0.0
C1075 C 0.5227 0.63269 0.75681 0.0
C1076 C 0.45251 0.59918 0.76905 0.0
C1077 C 0.44216 0.6158 0.78525 0.0
C1078 C 0.43301 0.61304 0.81508 0.0
C1079 C 0.43475 0.59393 0.82914 0.0
C1080 C 0.45404 0.58009 0.78328 0.0
C1081 C 0.44533 0.57758 0.81333 0.0
C1082 C 0.50232 0.6723 0.73349 0.0
C1083 C 0.46015 0.60027 0.73609 0.0
H1084 H 0.58176 0.64027 0.60305 0.0
H1085 H 0.57345 0.67777 0.52399 0.0
H1086 H 0.56177 0.70431 0.62246 0.0
H1087 H 0.56218 0.70736 0.5633 0.0
H1088 H 0.44071 0.63055 0.77445 0.0
H1089 H 0.42809 0.59175 0.85254 0.0
H1090 H 0.46171 0.56693 0.77089 0.0
H1091 H 0.44659 0.56286 0.8242 0.0
Eu1092 Eu 0.02256 0.34511 0.0892 0.0
C1093 C 0.11896 0.3572 0.07234 0.0
C1094 C 0.1333 0.32342 0.07693 0.0
C1095 C 0.14779 0.34695 0.03802 0.0
C1096 C 0.11858 0.3381 0.0865 0.0
C1097 C 0.13432 0.36224 0.04904 0.0
C1098 C 0.14723 0.32754 0.05186 0.0
C1099 C 0.12502 0.39888 0.05354 0.0
N1100 N 0.10597 0.3719 0.08358 0.0
C1101 C 0.11024 0.3932 0.07665 0.0
C1102 C 0.13665 0.38309 0.03889 0.0
Eu1103 Eu 0.08086 0.36099 0.12247 0.0
N1104 N 0.10484 0.3344 0.11068 0.0
C1105 C 0.10774 0.31826 0.12943 0.0
C1106 C 0.13404 0.30531 0.0934 0.0
C1107 C 0.12162 0.30306 0.12032 0.0
H1108 H 0.10268 0.40626 0.08935 0.0
H1109 H 0.12311 0.2899 0.13459 0.0
H1110 H 0.15827 0.31623 0.04387 0.0
H1111 H 0.12778 0.41559 0.04764 0.0
H1112 H 0.09975 0.31707 0.15198 0.0
H1113 H 0.97553 0.39188 0.17575 0.0
H1114 H 0.14497 0.29364 0.08662 0.0
H1115 H 0.01035 0.28938 0.05376 0.0
H1116 H 0.00568 0.38733 0.14147 0.0
H1117 H 0.98248 0.25649 0.05609 0.0
H1118 H 0.15935 0.35041 1.01978 0.0
H1119 H 0.94653 0.35956 0.17996 0.0
H1120 H 0.93065 0.31914 0.16286 0.0
H1121 H 0.14837 0.38762 1.02131 0.0
H1122 H 0.93268 0.2826 0.13089 0.0
N1123 N 0.9947 0.35211 0.12516 0.0
C1124 C 0.99343 0.37273 0.14221 0.0
C1125 C 0.95986 0.35728 0.16443 0.0
C1126 C 0.96083 0.3363 0.14662 0.0
C1127 C 0.97618 0.37555 0.16211 0.0
C1128 C 0.97861 0.33409 0.12678 0.0
H1129 H 0.95203 0.25914 0.09205 0.0
N1130 N 0.9968 0.31137 0.08933 0.0
C1131 C 0.98156 0.27233 0.07108 0.0
C1132 C 0.97977 0.31328 0.10871 0.0
C1133 C -0.00252 0.29129 0.06993 0.0
C1134 C 0.96441 0.27389 0.0914 0.0
C1135 C 0.96318 0.2945 0.11019 0.0
O1136 O 0.99122 0.34436 0.05963 0.0
O1137 O 0.0583 0.34874 0.07407 0.0
O1138 O 0.06793 0.38442 0.09161 0.0
O1139 O 0.0333 0.38208 0.10851 0.0
O1140 O 0.03649 0.32063 0.05249 0.0
O1141 O 0.02173 0.36186 0.04571 0.0
O1142 O 0.09243 0.39525 0.14824 0.0
O1143 O 0.04538 0.36006 0.13508 0.0
O1144 O 0.02826 0.31886 0.11903 0.0
O1145 O 0.06677 0.32659 0.13408 0.0
O1146 O 0.06858 0.3648 0.17476 0.0
O1147 O 0.11158 0.36969 0.15589 0.0
C1148 C 0.05679 0.33074 0.05294 0.0
C1149 C 0.98904 0.37613 0.03587 0.0
C1150 C 0.96502 0.39195 1.00017 0.0
C1151 C 0.97664 0.37495 1.0056 0.0
C1152 C 0.96667 0.41081 0.02488 0.0
C1153 C 0.98978 0.39445 0.06122 0.0
C1154 C 0.97895 0.41193 0.05551 0.0
C1155 C 0.05069 0.39369 0.09818 0.0
C1156 C 0.00015 0.3575 0.04044 0.0
C1157 C 0.94562 0.29681 0.12987 0.0
C1158 C 0.94444 0.31762 0.148 0.0
C1159 C 0.04748 0.36296 0.16702 0.0
C1160 C 0.11172 0.39849 0.20187 0.0
C1161 C 0.12051 0.38636 0.22455 0.0
C1162 C 0.12264 0.39424 0.25909 0.0
C1163 C 0.116 0.41462 0.27051 0.0
C1164 C 0.10545 0.41883 0.21404 0.0
C1165 C 0.10755 0.42676 0.24813 0.0
C1166 C 0.04643 0.31492 0.13442 0.0
C1167 C 0.10903 0.39019 0.16558 0.0
H1168 H 0.97601 0.36066 0.98613 0.0
H1169 H 0.95817 0.42431 1.02073 0.0
H1170 H -0.00146 0.39516 0.08528 0.0
H1171 H 0.97987 0.42622 0.07494 0.0
H1172 H 0.12575 0.37084 0.21535 0.0
H1173 H 0.11691 0.4211 0.29684 0.0
H1174 H 0.0988 0.42857 0.19717 0.0
H1175 H 0.10245 0.44235 0.2573 0.0
Eu1176 Eu 0.55339 0.38146 0.33666 0.0
C1177 C 0.45542 0.33299 0.34355 0.0
C1178 C 0.43211 0.35471 0.31678 0.0
C1179 C 0.41838 0.31535 0.31702 0.0
C1180 C 0.45224 0.35336 0.33485 0.0
C1181 C 0.43834 0.31392 0.33502 0.0
C1182 C 0.41529 0.33564 0.3079 0.0
C1183 C 0.46135 0.29347 0.36431 0.0
N1184 N 0.47499 0.33187 0.36066 0.0
C1185 C 0.47773 0.31278 0.37249 0.0
C1186 C 0.44166 0.29397 0.34522 0.0
Eu1187 Eu 0.50086 0.366 0.37446 0.0
N1188 N 0.46885 0.37167 0.34344 0.0
C1189 C 0.46618 0.39175 0.33519 0.0
C1190 C 0.42944 0.37521 0.30801 0.0
C1191 C 0.44654 0.39378 0.31726 0.0
H1192 H 0.49296 0.31238 0.3874 0.0
H1193 H 0.44458 0.4097 0.3106 0.0
H1194 H 0.39975 0.33644 0.29404 0.0
H1195 H 0.46389 0.27823 0.37281 0.0
H1196 H 0.47913 0.40634 0.34196 0.0
H1197 H 0.61387 0.34008 0.39496 0.0
H1198 H 0.41424 0.37688 0.2941 0.0
H1199 H 0.55996 0.4337 0.32178 0.0
H1200 H 0.57951 0.34239 0.36115 0.0
H1201 H 0.58687 0.46944 0.33799 0.0
H1202 H 0.40513 0.30085 0.31018 0.0
H1203 H 0.64049 0.37461 0.41996 0.0
H1204 H 0.6517 0.41633 0.42561 0.0
H1205 H 0.42896 0.27898 0.33898 0.0
H1206 H 0.64445 0.45158 0.40985 0.0
N1207 N 0.5861 0.37787 0.36825 0.0
C1208 C 0.59095 0.35757 0.37209 0.0
C1209 C 0.62535 0.37572 0.40536 0.0
C1210 C 0.62097 0.39638 0.39942 0.0
C1211 C 0.61041 0.35619 0.39119 0.0
C1212 C 0.60095 0.3969 0.38041 0.0
H1213 H 0.62051 0.47148 0.37667 0.0
N1214 N 0.57793 0.41623 0.35191 0.0
C1215 C 0.58978 0.45477 0.34786 0.0
C1216 C 0.59681 0.41671 0.37179 0.0
C1217 C 0.57461 0.4346 0.33875 0.0
C1218 C 0.60873 0.45587 0.36977 0.0
C1219 C 0.61263 0.43661 0.3816 0.0
O1220 O 0.55919 0.38752 0.28639 0.0
O1221 O 0.51666 0.37252 0.32912 0.0
O1222 O 0.50606 0.33567 0.33917 0.0
O1223 O 0.54346 0.34371 0.32912 0.0
O1224 O 0.5301 0.39593 0.30323 0.0
O1225 O 0.57198 0.36086 0.30516 0.0
O1226 O 0.49524 0.35301 0.42042 0.0
O1227 O 0.5376 0.36466 0.37602 0.0
O1228 O 0.54888 0.41011 0.37711 0.0
O1229 O 0.51024 0.40345 0.37705 0.0
O1230 O 0.52572 0.37498 0.42027 0.0
O1231 O 0.48008 0.38106 0.40882 0.0
C1232 C 0.51176 0.38275 0.30615 0.0
C1233 C 0.59142 0.37746 0.265 0.0
C1234 C 0.6122 0.37311 0.21645 0.0
C1235 C 0.59288 0.3673 0.23223 0.0
C1236 C 0.63015 0.38895 0.23408 0.0
C1237 C 0.60952 0.39311 0.28231 0.0
C1238 C 0.62881 0.39878 0.26685 0.0
C1239 C 0.52358 0.33054 0.32463 0.0
C1240 C 0.5708 0.3718 0.28051 0.0
C1241 C 0.63216 0.43642 0.4018 0.0
C1242 C 0.63629 0.41635 0.41077 0.0
C1243 C 0.54312 0.37114 0.40668 0.0
C1244 C 0.46086 0.35662 0.4413 0.0
C1245 C 0.46172 0.35203 0.47381 0.0
C1246 C 0.44222 0.34302 0.48675 0.0
C1247 C 0.42182 0.33811 0.46661 0.0
C1248 C 0.4403 0.35199 0.42159 0.0
C1249 C 0.42093 0.3425 0.4341 0.0
C1250 C 0.53014 0.41616 0.38644 0.0
C1251 C 0.48157 0.36659 0.429 0.0
H1252 H 0.57883 0.35525 0.21882 0.0
H1253 H 0.6453 0.39357 0.22257 0.0
H1254 H 0.60869 0.40098 0.30761 0.0
H1255 H 0.64275 0.41088 0.28027 0.0
H1256 H 0.47746 0.35616 0.48941 0.0
H1257 H 0.4066 0.33098 0.4761 0.0
H1258 H 0.43907 0.35599 0.39684 0.0
H1259 H 0.40515 0.33883 0.41873 0.0
Eu1260 Eu 0.98995 0.62808 0.95993 0.0
C1261 C 0.08265 0.59748 0.94276 0.0
C1262 C 0.11056 0.62556 0.97825 0.0
C1263 C 0.11654 0.58735 0.96562 0.0
C1264 C 0.08975 0.61925 0.95885 0.0
C1265 C 0.09616 0.58137 0.94541 0.0
C1266 C 0.1237 0.6094 0.98208 0.0
C1267 C 0.06905 0.555 0.90629 0.0
N1268 N 0.06295 0.5923 0.92329 0.0
C1269 C 0.05624 0.57154 0.90446 0.0
C1270 C 0.089 0.55985 0.92709 0.0
Eu1271 Eu 0.04206 0.6211 0.9218 0.0
N1272 N 0.07681 0.63449 0.95419 0.0
C1273 C 0.08446 0.65665 0.96612 0.0
C1274 C 0.11781 0.64805 0.99243 0.0
C1275 C 0.10483 0.66371 0.98594 0.0
H1276 H 0.04086 0.56753 0.88831 0.0
H1277 H 0.11048 0.6812 0.9962 0.0
H1278 H 0.13967 0.61389 0.99708 0.0
H1279 H 0.06352 0.53851 0.89162 0.0
H1280 H 0.07461 0.66892 0.96117 0.0
H1281 H 0.93244 0.55572 0.88687 0.0
H1282 H 0.13363 0.65355 1.00767 0.0
H1283 H 0.98463 0.68264 0.97532 0.0
H1284 H 0.96669 0.57482 0.92106 0.0
H1285 H 0.95711 0.70559 0.9619 0.0
H1286 H 0.12708 0.57516 0.96817 0.0
H1287 H 0.90363 0.57684 0.87179 0.0
H1288 H 0.89097 0.61337 0.87433 0.0
H1289 H 0.09893 0.54702 0.92836 0.0
H1290 H 0.89783 0.65383 0.89378 0.0
N1291 N 0.95804 0.60721 0.92554 0.0
C1292 C 0.95453 0.58462 0.915 0.0
C1293 C 0.91881 0.58558 0.88677 0.0
C1294 C 0.92227 0.60863 0.89779 0.0
C1295 C 0.93501 0.57357 0.89534 0.0
C1296 C 0.94221 0.6192 0.91772 0.0
H1297 H 0.92226 0.68818 0.92623 0.0
N1298 N 0.96546 0.65233 0.94787 0.0
C1299 C 0.95379 0.68782 0.95254 0.0
C1300 C 0.94606 0.64226 0.92898 0.0
C1301 C 0.96921 0.6747 0.96042 0.0
C1302 C 0.93416 0.67793 0.93236 0.0
C1303 C 0.93001 0.65493 0.92048 0.0
O1304 O 0.99374 0.626 1.01311 0.0
O1305 O 0.02646 0.63089 0.96836 0.0
O1306 O 0.03542 0.59518 0.95437 0.0
O1307 O 0.99698 0.59276 0.95844 0.0
O1308 O 0.01323 0.65717 0.99273 0.0
O1309 O 0.96095 0.62191 0.98785 0.0
O1310 O 0.04415 0.61397 0.86836 0.0
O1311 O 0.00554 0.61931 0.91371 0.0
O1312 O -0.00093 0.65518 0.92946 0.0
O1313 O 0.03728 0.65711 0.92917 0.0
O1314 O 0.01753 0.59503 0.88515 0.0
O1315 O 0.06224 0.6452 0.89712 0.0
C1316 C 0.03116 0.64889 0.98903 0.0
C1317 C 0.96687 0.64117 0.04262 0.0
C1318 C 0.94857 0.6499 0.09238 0.0
C1319 C 0.95464 0.63408 0.06792 0.0
C1320 C 0.95447 0.67276 0.0911 0.0
C1321 C 0.97324 0.6641 0.04226 0.0
C1322 C 0.96685 0.67981 0.06615 0.0
C1323 C 0.01588 0.58507 0.96125 0.0
C1324 C 0.97267 0.6247 1.01643 0.0
C1325 C 0.91028 0.64433 0.90056 0.0
C1326 C 0.9064 0.62128 0.88939 0.0
C1327 C -0.00012 0.60344 0.88965 0.0
C1328 C 0.07676 0.63047 0.84862 0.0
C1329 C 0.07734 0.63898 0.81884 0.0
C1330 C 0.09487 0.63668 0.79918 0.0
C1331 C 0.11177 0.62567 0.80946 0.0
C1332 C 0.09363 0.61948 0.85878 0.0
C1333 C 0.11108 0.61706 0.83913 0.0
C1334 C 0.01879 0.66439 0.9218 0.0
C1335 C 0.05792 0.63251 0.86796 0.0
H1336 H 0.9501 0.61641 0.06883 0.0
H1337 H 0.95019 0.68518 0.11012 0.0
H1338 H 0.98325 0.66993 0.02374 0.0
H1339 H 0.9718 0.69745 0.06561 0.0
H1340 H 0.0642 0.64742 0.81102 0.0
H1341 H 0.12529 0.62344 0.79429 0.0
H1342 H 0.09322 0.61267 0.88163 0.0
H1343 H 0.12402 0.60842 0.8468 0.0
H1344 H 0.08705 0.1472 0.04116 0.0
H1345 H 0.08825 0.14218 0.98159 0.0
H1346 H 0.14405 0.10839 0.99074 0.0
H1347 H 0.1439 0.11518 0.05148 0.0
H1348 H 0.15587 0.14441 0.96926 0.0
H1349 H 0.09229 0.08528 0.93502 0.0
H1350 H 0.05377 0.06525 0.93547 0.0
H1351 H 0.02821 0.12143 0.90886 0.0
H1352 H 0.06652 0.14187 0.90849 0.0
H1353 H 0.15757 0.13778 0.79271 0.0
H1354 H 0.16203 0.13781 0.85256 0.0
H1355 H 0.11337 0.18049 0.86671 0.0
H1356 H 0.10875 0.18039 0.80697 0.0
H1357 H 0.09886 0.13583 0.87353 0.0
H1358 H 0.16027 0.19535 0.90958 0.0
H1359 H 0.19795 0.21788 0.9126 0.0
H1360 H 0.22657 0.1637 0.94032 0.0
H1361 H 0.18912 0.14042 0.93599 0.0
C1362 C 0.09892 0.13782 0.03028 0.0
C1363 C 0.11565 0.13192 0.05046 0.0
C1364 C 0.09937 0.13461 0.99609 0.0
C1365 C 0.11618 0.12484 0.98165 0.0
C1366 C 0.13099 0.11605 1.00156 0.0
C1367 C 0.13101 0.11999 0.03606 0.0
C1368 C 0.12197 0.12983 0.94899 0.0
C1369 C 0.1436 0.14179 0.94783 0.0
C1370 C 0.10554 0.12756 0.92191 0.0
C1371 C 0.08237 0.1151 0.92164 0.0
C1372 C 0.07847 0.09339 0.92933 0.0
C1373 C 0.05665 0.08195 0.92955 0.0
C1374 C 0.03856 0.09204 0.92215 0.0
C1375 C 0.04224 0.11359 0.91446 0.0
C1376 C 0.06401 0.12507 0.91411 0.0
C1377 C 0.14877 0.14812 0.80889 0.0
C1378 C 0.13231 0.15845 0.79557 0.0
C1379 C 0.15139 0.14822 0.84298 0.0
C1380 C 0.13755 0.15867 0.86349 0.0
C1381 C 0.12398 0.1722 0.85088 0.0
C1382 C 0.12143 0.17217 0.81683 0.0
C1383 C 0.1326 0.1504 0.89427 0.0
C1384 C 0.11119 0.13787 0.89479 0.0
C1385 C 0.14913 0.15228 0.92084 0.0
C1386 C 0.17179 0.16597 0.92197 0.0
C1387 C 0.17458 0.18802 0.91561 0.0
C1388 C 0.19593 0.20096 0.91764 0.0
C1389 C 0.21465 0.1922 0.92653 0.0
C1390 C 0.21205 0.17046 0.93337 0.0
C1391 C 0.19077 0.15733 0.93092 0.0
H1392 H 0.23117 0.20227 0.92817 0.0
H1393 H 0.0217 0.08317 0.92237 0.0
H1394 H 0.14888 0.87742 0.18167 0.0
H1395 H 0.13801 0.87819 0.12332 0.0
H1396 H 0.10585 0.80907 0.10948 0.0
H1397 H 0.11564 0.80833 0.1685 0.0
H1398 H 0.1358 0.82574 0.05648 0.0
H1399 H 0.07196 0.83784 0.11595 0.0
H1400 H 0.0539 0.85604 0.1619 0.0
H1401 H 0.07699 0.92005 0.13483 0.0
H1402 H 0.09544 0.90222 0.08897 0.0
H1403 H 0.06502 0.81562 0.90873 0.0
H1404 H 0.08539 0.81525 0.9619 0.0
H1405 H 0.09254 0.88695 0.98617 0.0
H1406 H 0.07081 0.88712 0.93334 0.0
H1407 H 0.07722 0.86966 0.0346 0.0
H1408 H 0.13876 0.85847 0.97281 0.0
H1409 H 0.15872 0.84159 0.92816 0.0
H1410 H 0.14233 0.77785 0.95928 0.0
H1411 H 0.12219 0.79433 1.00405 0.0
C1412 C 0.13936 0.86238 0.1664 0.0
C1413 C 0.13279 0.84294 0.18004 0.0
C1414 C 0.13338 0.86282 0.13299 0.0
C1415 C 0.12105 0.84375 0.11238 0.0
C1416 C 0.11543 0.82393 0.12519 0.0
C1417 C 0.12112 0.82354 0.15887 0.0
C1418 C 0.1129 0.84521 0.07808 0.0
C1419 C 0.12281 0.83507 0.05145 0.0
C1420 C 0.09651 0.85803 0.07196 0.0
C1421 C 0.08528 0.86874 0.09931 0.0
C1422 C 0.07336 0.85582 0.12001 0.0
C1423 C 0.06301 0.86606 0.14598 0.0
C1424 C 0.06437 0.8892 0.15136 0.0
C1425 C 0.07599 0.90213 0.13068 0.0
C1426 C 0.08637 0.89197 0.10467 0.0
C1427 C 0.07146 0.83138 0.92506 0.0
C1428 C 0.06649 0.8514 0.91695 0.0
C1429 C 0.08327 0.83118 0.95541 0.0
C1430 C 0.09078 0.85109 0.97805 0.0
C1431 C 0.08695 0.87137 0.96909 0.0
C1432 C 0.07475 0.87152 0.93881 0.0
C1433 C 0.10014 0.85023 1.01232 0.0
C1434 C 0.09037 0.86043 0.03922 0.0
C1435 C 0.11682 0.83762 1.01861 0.0
C1436 C 0.12884 0.82761 0.99164 0.0
C1437 C 0.13929 0.84082 0.97 0.0
C1438 C 0.15067 0.83133 0.94471 0.0
C1439 C 0.15172 0.80864 0.94081 0.0
C1440 C 0.14148 0.79541 0.9623 0.0
C1441 C 0.13014 0.80484 0.98771 0.0
H1442 H 0.16052 0.80133 0.92118 0.0
H1443 H 0.05636 0.8971 0.17149 0.0
H1444 H 0.40549 0.80595 0.22992 0.0
H1445 H 0.40998 0.8414 0.26646 0.0
H1446 H 0.47437 0.86179 0.23207 0.0
H1447 H 0.47117 0.82428 0.2006 0.0
H1448 H 0.48096 0.8639 0.28905 0.0
H1449 H 0.42331 0.89497 0.23478 0.0
H1450 H 0.38597 0.8945 0.20688 0.0
H1451 H 0.35535 0.87329 0.29065 0.0
H1452 H 0.3923 0.87401 0.31938 0.0
H1453 H 0.49717 0.90196 0.44919 0.0
H1454 H 0.48961 0.91645 0.39793 0.0
H1455 H 0.42415 0.87461 0.38203 0.0
H1456 H 0.43131 0.86108 0.43367 0.0
H1457 H 0.42559 0.90376 0.34198 0.0
H1458 H 0.47239 0.84971 0.37102 0.0
H1459 H 0.50467 0.83889 0.4 0.0
H1460 H 0.54912 0.88991 0.36438 0.0
H1461 H 0.51704 0.90112 0.33549 0.0
C1462 C 0.41996 0.81858 0.22879 0.0
C1463 C 0.43724 0.81322 0.21032 0.0
C1464 C 0.4225 0.83916 0.24955 0.0
C1465 C 0.44228 0.85504 0.2516 0.0
C1466 C 0.45881 0.8501 0.23089 0.0
C1467 C 0.45687 0.82886 0.21219 0.0
C1468 C 0.44846 0.87277 0.28154 0.0
C1469 C 0.46908 0.87345 0.2996 0.0
C1470 C 0.43292 0.8848 0.2965 0.0
C1471 C 0.41067 0.88474 0.27932 0.0
C1472 C 0.40862 0.89025 0.24727 0.0
C1473 C 0.38752 0.88991 0.2313 0.0
C1474 C 0.36835 0.88375 0.24687 0.0
C1475 C 0.37021 0.87812 0.27863 0.0
C1476 C 0.39123 0.87869 0.2949 0.0
C1477 C 0.48069 0.897 0.4357 0.0
C1478 C 0.46504 0.87983 0.4442 0.0
C1479 C 0.47635 0.90533 0.40652 0.0
C1480 C 0.4568 0.89573 0.38545 0.0
C1481 C 0.43957 0.88195 0.39753 0.0
C1482 C 0.44373 0.87395 0.42687 0.0
C1483 C 0.45699 0.89315 0.34897 0.0
C1484 C 0.43784 0.89549 0.32982 0.0
C1485 C 0.47315 0.88254 0.33326 0.0
C1486 C 0.49236 0.87661 0.35188 0.0
C1487 C 0.48905 0.85878 0.36978 0.0
C1488 C 0.50728 0.85255 0.3861 0.0
C1489 C 0.52891 0.86383 0.38426 0.0
C1490 C 0.53234 0.88132 0.36603 0.0
C1491 C 0.51415 0.88767 0.34977 0.0
H1492 H 0.54301 0.85892 0.39677 0.0
H1493 H 0.35206 0.88338 0.23434 0.0
H1494 H 0.45522 0.19781 0.89597 0.0
H1495 H 0.45829 0.17698 0.84101 0.0
H1496 H 0.38777 0.17165 0.81529 0.0
H1497 H 0.38447 0.19222 0.87063 0.0
H1498 H 0.40679 0.13345 0.78795 0.0
H1499 H 0.42277 0.21509 0.80442 0.0
H1500 H 0.44371 0.25253 0.82904 0.0
H1501 H 0.50351 0.2355 0.79231 0.0
H1502 H 0.48337 0.1975 0.76914 0.0
H1503 H 0.39933 0.12312 0.61369 0.0
H1504 H 0.3973 0.13134 0.67315 0.0
H1505 H 0.46806 0.15785 0.68819 0.0
H1506 H 0.46966 0.15273 0.62853 0.0
H1507 H 0.45033 0.18398 0.72277 0.0
H1508 H 0.44114 0.10504 0.71104 0.0
H1509 H 0.4255 0.06569 0.68745 0.0
H1510 H 0.3609 0.07493 0.71499 0.0
H1511 H 0.3761 0.11442 0.73845 0.0
C1512 C 0.44025 0.19146 0.87898 0.0
C1513 C 0.41963 0.1966 0.88723 0.0
C1514 C 0.44207 0.17975 0.84767 0.0
C1515 C 0.42341 0.17341 0.82407 0.0
C1516 C 0.40236 0.1766 0.83329 0.0
C1517 C 0.40047 0.18824 0.86483 0.0
C1518 C 0.42636 0.1661 0.78888 0.0
C1519 C 0.41623 0.14444 0.77352 0.0
C1520 C 0.43947 0.18031 0.77067 0.0
C1521 C 0.45156 0.20319 0.78549 0.0
C1522 C 0.44046 0.21911 0.80212 0.0
C1523 C 0.45219 0.24051 0.81575 0.0
C1524 C 0.47486 0.24644 0.81216 0.0
C1525 C 0.48593 0.23092 0.79506 0.0
C1526 C 0.4744 0.20939 0.78191 0.0
C1527 C 0.41445 0.13108 0.62945 0.0
C1528 C 0.43459 0.13748 0.61587 0.0
C1529 C 0.41335 0.13523 0.66372 0.0
C1530 C 0.43259 0.14486 0.68538 0.0
C1531 C 0.45294 0.15038 0.67205 0.0
C1532 C 0.45388 0.14709 0.63772 0.0
C1533 C 0.43116 0.15102 0.72158 0.0
C1534 C 0.44129 0.17265 0.73714 0.0
C1535 C 0.41897 0.13647 0.74029 0.0
C1536 C 0.40974 0.11272 0.72632 0.0
C1537 C 0.42357 0.09871 0.7119 0.0
C1538 C 0.41479 0.07638 0.69858 0.0
C1539 C 0.39221 0.06782 0.69968 0.0
C1540 C 0.37838 0.08158 0.71416 0.0
C1541 C 0.38708 0.10393 0.72754 0.0
H1542 H 0.38545 0.05053 0.68934 0.0
H1543 H 0.48385 0.26305 0.82264 0.0
H1544 H 0.94576 0.77822 0.27704 0.0
H1545 H 0.9483 0.78003 0.21813 0.0
H1546 H 0.92316 0.84171 0.23068 0.0
H1547 H 0.91896 0.83915 0.28879 0.0
H1548 H 0.9059 0.81709 0.17475 0.0
H1549 H 0.98002 0.84033 0.23213 0.0
H1550 H 0.01258 0.83571 0.26785 0.0
H1551 H 0.01969 0.77797 0.19886 0.0
H1552 H 0.98698 0.78209 0.16293 0.0
H1553 H 0.93981 0.86178 0.03605 0.0
H1554 H 0.93831 0.85685 0.09423 0.0
H1555 H 0.96222 0.79481 0.07207 0.0
H1556 H 0.96483 0.80044 1.01416 0.0
H1557 H 0.97969 0.81701 0.13157 0.0
H1558 H 0.90538 0.79647 0.07265 0.0
H1559 H 0.87344 0.80346 0.03803 0.0
H1560 H 0.86745 0.85916 0.11188 0.0
H1561 H 0.89954 0.85268 0.14672 0.0
C1562 C 0.94038 0.79194 0.26709 0.0
C1563 C 0.93252 0.80878 0.28762 0.0
C1564 C 0.94208 0.79306 0.23358 0.0
C1565 C 0.93642 0.81127 0.22043 0.0
C1566 C 0.9278 0.82763 0.24054 0.0
C1567 C 0.92571 0.82631 0.27381 0.0
C1568 C 0.94002 0.81384 0.18596 0.0
C1569 C 0.92206 0.81723 0.16536 0.0
C1570 C 0.96105 0.81366 0.17375 0.0
C1571 C 0.98094 0.81139 0.19503 0.0
C1572 C 0.98847 0.82658 0.22468 0.0
C1573 C 0.00695 0.82406 0.24495 0.0
C1574 C 0.01816 0.80653 0.23567 0.0
C1575 C 0.01097 0.79153 0.20603 0.0
C1576 C 0.99247 0.79395 0.1857 0.0
C1577 C 0.94489 0.84724 0.04389 0.0
C1578 C 0.95199 0.83121 1.02108 0.0
C1579 C 0.944 0.8444 0.07688 0.0
C1580 C 0.94951 0.82513 0.087 0.0
C1581 C 0.95769 0.80965 0.0645 0.0
C1582 C 0.95906 0.81277 0.03161 0.0
C1583 C 0.94564 0.82057 0.12057 0.0
C1584 C 0.9635 0.81671 0.14092 0.0
C1585 C 0.92458 0.82063 0.13277 0.0
C1586 C 0.90493 0.82416 0.11217 0.0
C1587 C 0.89729 0.81024 0.08144 0.0
C1588 C 0.87916 0.81412 0.06178 0.0
C1589 C 0.86844 0.83176 0.07273 0.0
C1590 C 0.87577 0.84551 0.10342 0.0
C1591 C 0.8939 0.84172 0.12315 0.0
H1592 H 0.85444 0.83476 0.05744 0.0
H1593 H 0.03245 0.80459 0.25142 0.0
H1594 H 0.92606 0.17235 0.83763 0.0
H1595 H 0.93414 0.16481 0.89361 0.0
H1596 H 0.98455 0.22454 0.9153 0.0
H1597 H 0.97687 0.23165 0.85812 0.0
H1598 H 0.00143 0.19574 0.94199 0.0
H1599 H 0.92784 0.21261 0.95191 0.0
H1600 H 0.88746 0.20894 0.9366 0.0
H1601 H 0.87721 0.13971 0.94646 0.0
H1602 H 0.91755 0.1429 0.96149 0.0
H1603 H 0.01517 0.19678 0.11938 0.0
H1604 H 0.00191 0.2043 0.06504 0.0
H1605 H 0.97444 0.13454 0.03365 0.0
H1606 H 0.98923 0.12665 0.08771 0.0
H1607 H 0.94434 0.16783 1.01333 0.0
H1608 H 0.01416 0.14741 0.99242 0.0
H1609 H 0.05376 0.14667 1.00541 0.0
H1610 H 0.06957 0.21813 1.01544 0.0
H1611 H 0.02985 0.21918 1.0015 0.0
C1612 C 0.93857 0.18433 0.85438 0.0
C1613 C 0.95042 0.20295 0.84247 0.0
C1614 C 0.94322 0.17996 0.8871 0.0
C1615 C 0.95993 0.19406 0.91039 0.0
C1616 C 0.97148 0.21307 0.89884 0.0
C1617 C 0.96682 0.21744 0.86583 0.0
C1618 C 0.96604 0.18833 0.94542 0.0
C1619 C 0.98867 0.19012 0.95747 0.0
C1620 C 0.95001 0.17987 0.96654 0.0
C1621 C 0.92576 0.17796 0.95756 0.0
C1622 C 0.91699 0.19658 0.95062 0.0
C1623 C 0.8941 0.19459 0.94202 0.0
C1624 C 0.87979 0.1741 0.94049 0.0
C1625 C 0.88832 0.15557 0.94763 0.0
C1626 C 0.91119 0.15746 0.95623 0.0
C1627 C 0.00619 0.18284 0.10123 0.0
C1628 C 0.00302 0.16103 0.10937 0.0
C1629 C -0.00151 0.18727 0.06966 0.0
C1630 C 0.98672 0.17024 0.04424 0.0
C1631 C 0.98312 0.14836 0.05225 0.0
C1632 C 0.99147 0.14379 0.08375 0.0
C1633 C 0.97956 0.17551 1.00945 0.0
C1634 C 0.9569 0.17368 0.99767 0.0
C1635 C 0.99537 0.18359 0.9882 0.0
C1636 C 0.01917 0.18338 0.99619 0.0
C1637 C 0.02613 0.16297 0.99736 0.0
C1638 C 0.04864 0.1625 1.00465 0.0
C1639 C 0.06435 0.18239 1.01099 0.0
C1640 C 0.05748 0.20276 1.00999 0.0
C1641 C 0.03497 0.2033 1.00228 0.0
H1642 H 0.08181 0.18205 1.01676 0.0
H1643 H 0.86208 0.17259 0.93382 0.0
H1644 H 0.65806 0.2208 0.76802 0.0
H1645 H 0.65264 0.19369 0.71603 0.0
H1646 H 0.58171 0.19272 0.71122 0.0
H1647 H 0.58701 0.21874 0.76357 0.0
H1648 H 0.58795 0.15378 0.68451 0.0
H1649 H 0.61914 0.2314 0.67821 0.0
H1650 H 0.64794 0.2657 0.69085 0.0
H1651 H 0.69615 0.22968 0.64856 0.0
H1652 H 0.66768 0.19508 0.63615 0.0
H1653 H 0.55635 0.1878 0.52792 0.0
H1654 H 0.58278 0.19437 0.57751 0.0
H1655 H 0.5885 0.12481 0.56073 0.0
H1656 H 0.5612 0.11804 0.51143 0.0
H1657 H 0.62466 0.18926 0.59654 0.0
H1658 H 0.58522 0.10797 0.62179 0.0
H1659 H 0.55079 0.07949 0.60597 0.0
H1660 H 0.51178 0.13119 0.60841 0.0
H1661 H 0.54605 0.15991 0.62381 0.0
C1662 C 0.6413 0.21408 0.75635 0.0
C1663 C 0.6229 0.22171 0.76953 0.0
C1664 C 0.63822 0.19873 0.72667 0.0
C1665 C 0.61682 0.19146 0.70949 0.0
C1666 C 0.59836 0.19799 0.72403 0.0
C1667 C 0.6014 0.21301 0.75376 0.0
C1668 C 0.61353 0.18001 0.67444 0.0
C1669 C 0.59647 0.16114 0.66534 0.0
C1670 C 0.62437 0.1898 0.64928 0.0
C1671 C 0.64142 0.2106 0.65679 0.0
C1672 C 0.63593 0.23077 0.67187 0.0
C1673 C 0.65218 0.25027 0.67896 0.0
C1674 C 0.67389 0.24985 0.67066 0.0
C1675 C 0.67936 0.22995 0.65513 0.0
C1676 C 0.66319 0.2104 0.6481 0.0
C1677 C 0.56368 0.17406 0.53444 0.0
C1678 C 0.55689 0.15249 0.51617 0.0
C1679 C 0.57888 0.17782 0.56256 0.0
C1680 C 0.58738 0.16001 0.57294 0.0
C1681 C 0.58189 0.13869 0.55326 0.0
C1682 C 0.56647 0.13487 0.5251 0.0
C1683 C 0.59881 0.16355 0.60689 0.0
C1684 C 0.61722 0.18103 0.61579 0.0
C1685 C 0.58868 0.15311 0.63189 0.0
C1686 C 0.56807 0.13596 0.62401 0.0
C1687 C 0.56925 0.11319 0.61917 0.0
C1688 C 0.54981 0.09704 0.61012 0.0
C1689 C 0.52911 0.10353 0.60623 0.0
C1690 C 0.52781 0.12619 0.61141 0.0
C1691 C 0.54723 0.14239 0.62023 0.0
H1692 H 0.51409 0.09101 0.59918 0.0
H1693 H 0.68645 0.26495 0.67615 0.0
H1694 H 0.53321 0.81948 0.48816 0.0
H1695 H 0.54691 0.81286 0.43475 0.0
H1696 H 0.61288 0.8457 0.47694 0.0
H1697 H 0.59698 0.85868 0.52879 0.0
H1698 H 0.61413 0.84632 0.41641 0.0
H1699 H 0.58896 0.7778 0.45795 0.0
H1700 H 0.56014 0.75731 0.48694 0.0
H1701 H 0.51111 0.75596 0.40558 0.0
H1702 H 0.53928 0.77665 0.37679 0.0
H1703 H 0.64621 0.76863 0.27139 0.0
H1704 H 0.64234 0.78796 0.32785 0.0
H1705 H 0.57484 0.79209 0.29621 0.0
H1706 H 0.57909 0.77424 0.2399 0.0
H1707 H 0.58065 0.77062 0.35539 0.0
H1708 H 0.60494 0.85164 0.33239 0.0
H1709 H 0.63173 0.8836 0.32044 0.0
H1710 H 0.68533 0.86105 0.37107 0.0
H1711 H 0.65868 0.82928 0.38385 0.0
C1712 C 0.55078 0.82545 0.48685 0.0
C1713 C 0.56453 0.83756 0.51545 0.0
C1714 C 0.55888 0.82086 0.45565 0.0
C1715 C 0.58177 0.82585 0.4515 0.0
C1716 C 0.59539 0.83985 0.47904 0.0
C1717 C 0.58657 0.8465 0.50983 0.0
C1718 C 0.5906 0.81645 0.4186 0.0
C1719 C 0.60697 0.82957 0.40364 0.0
C1720 C 0.58202 0.79445 0.40075 0.0
C1721 C 0.56616 0.77867 0.41525 0.0
C1722 C 0.57203 0.77275 0.44614 0.0
C1723 C 0.55573 0.76132 0.46274 0.0
C1724 C 0.53364 0.75557 0.44846 0.0
C1725 C 0.52799 0.76058 0.41706 0.0
C1726 C 0.54417 0.77194 0.40035 0.0
C1727 C 0.63093 0.77464 0.27591 0.0
C1728 C 0.61331 0.77043 0.24994 0.0
C1729 C 0.62857 0.78557 0.30866 0.0
C1730 C 0.60828 0.79208 0.31705 0.0
C1731 C 0.59084 0.78783 0.29107 0.0
C1732 C 0.59335 0.7775 0.25846 0.0
C1733 C 0.60386 0.80064 0.35295 0.0
C1734 C 0.58818 0.78719 0.36851 0.0
C1735 C 0.61366 0.82201 0.37166 0.0
C1736 C 0.62999 0.83793 0.35833 0.0
C1737 C 0.62252 0.85331 0.34032 0.0
C1738 C 0.63759 0.87162 0.334 0.0
C1739 C 0.66021 0.87448 0.34526 0.0
C1740 C 0.66782 0.85885 0.36244 0.0
C1741 C 0.65275 0.8407 0.36919 0.0
H1742 H 0.67186 0.88862 0.34029 0.0
H1743 H 0.521 0.74723 0.46178 0.0
H1744 H 0.6609 0.68275 0.35331 0.0
H1745 H 0.65844 0.65612 0.39132 0.0
H1746 H 0.60993 0.60948 0.3209 0.0
H1747 H 0.61046 0.63684 0.28441 0.0
H1748 H 0.59173 0.62432 0.37246 0.0
H1749 H 0.65763 0.59372 0.35985 0.0
H1750 H 0.6975 0.59614 0.35203 0.0
H1751 H 0.71534 0.63919 0.44671 0.0
H1752 H 0.67561 0.63736 0.45492 0.0
H1753 H 0.5587 0.61604 0.52627 0.0
H1754 H 0.57314 0.59646 0.47774 0.0
H1755 H 0.63436 0.64536 0.49754 0.0
H1756 H 0.62024 0.66415 0.54607 0.0
H1757 H 0.64253 0.60917 0.46272 0.0
H1758 H 0.58707 0.65738 0.45749 0.0
H1759 H 0.55053 0.66806 0.46572 0.0
H1760 H 0.51734 0.60566 0.40706 0.0
H1761 H 0.55373 0.59459 0.39862 0.0
C1762 C 0.65002 0.66665 0.34557 0.0
C1763 C 0.63502 0.66249 0.31667 0.0
C1764 C 0.64905 0.65111 0.36703 0.0
C1765 C 0.63366 0.63087 0.3592 0.0
C1766 C 0.62177 0.62509 0.32753 0.0
C1767 C 0.62217 0.64089 0.30656 0.0
C1768 C 0.62515 0.61989 0.38667 0.0
C1769 C 0.60265 0.61994 0.39152 0.0
C1770 C 0.63955 0.61502 0.41204 0.0
C1771 C 0.66355 0.6152 0.40811 0.0
C1772 C 0.67004 0.60364 0.37908 0.0
C1773 C 0.69263 0.60496 0.37454 0.0
C1774 C 0.70894 0.61775 0.3989 0.0
C1775 C 0.70269 0.6292 0.42793 0.0
C1776 C 0.68012 0.62794 0.4326 0.0
C1777 C 0.5756 0.62181 0.52087 0.0
C1778 C 0.58837 0.64166 0.53897 0.0
C1779 C 0.58386 0.61066 0.49337 0.0
C1780 C 0.60458 0.61981 0.4836 0.0
C1781 C 0.61833 0.63799 0.5045 0.0
C1782 C 0.61021 0.6489 0.532 0.0
C1783 C 0.60967 0.61494 0.44874 0.0
C1784 C 0.63136 0.61195 0.44258 0.0
C1785 C 0.59498 0.61854 0.42256 0.0
C1786 C 0.57305 0.62496 0.428 0.0
C1787 C 0.57196 0.64587 0.4466 0.0
C1788 C 0.55129 0.65201 0.45126 0.0
C1789 C 0.53162 0.63749 0.43712 0.0
C1790 C 0.53259 0.61683 0.41817 0.0
C1791 C 0.55322 0.6106 0.41346 0.0
H1792 H 0.51563 0.64228 0.44072 0.0
H1793 H 0.72642 0.61883 0.39527 0.0
H1794 H 0.61348 0.30065 0.66237 0.0
H1795 H 0.60748 0.30044 0.60258 0.0
H1796 H 0.63169 0.37165 0.61884 0.0
H1797 H 0.63935 0.37168 0.67799 0.0
H1798 H 0.57953 0.31802 0.57266 0.0
H1799 H 0.64991 0.39113 0.55442 0.0
H1800 H 0.68988 0.405 0.57262 0.0
H1801 H 0.69739 0.33965 0.58992 0.0
H1802 H 0.65754 0.32532 0.57149 0.0
H1803 H 0.57347 0.39815 0.45288 0.0
H1804 H 0.59559 0.3865 0.49712 0.0
H1805 H 0.57344 0.31753 0.45124 0.0
H1806 H 0.55078 0.32924 0.4075 0.0
H1807 H 0.62826 0.36237 0.50531 0.0
H1808 H 0.56169 0.28736 0.50927 0.0
H1809 H 0.52189 0.27236 0.49057 0.0
H1810 H 0.50838 0.339 0.50233 0.0
H1811 H 0.54802 0.35432 0.52108 0.0
C1812 C 0.6182 0.31616 0.65311 0.0
C1813 C 0.62673 0.33625 0.67512 0.0
C1814 C 0.61458 0.31603 0.61889 0.0
C1815 C 0.61931 0.33598 0.60599 0.0
C1816 C 0.62838 0.35591 0.62786 0.0
C1817 C 0.63233 0.35599 0.66192 0.0
C1818 C 0.61255 0.33658 0.57051 0.0
C1819 C 0.59048 0.32716 0.55766 0.0
C1820 C 0.62663 0.34869 0.55083 0.0
C1821 C 0.65069 0.35717 0.56165 0.0
C1822 C 0.66012 0.37968 0.56189 0.0
C1823 C 0.68274 0.38764 0.57233 0.0
C1824 C 0.69616 0.37322 0.58245 0.0
C1825 C 0.68697 0.35081 0.58215 0.0
C1826 C 0.66435 0.34278 0.57177 0.0
C1827 C 0.57398 0.38058 0.45178 0.0
C1828 C 0.56086 0.36458 0.42673 0.0
C1829 C 0.58658 0.37391 0.47697 0.0
C1830 C 0.5859 0.35113 0.47773 0.0
C1831 C 0.57398 0.33518 0.45133 0.0
C1832 C 0.56125 0.34185 0.42624 0.0
C1833 C 0.59527 0.34428 0.5082 0.0
C1834 C 0.6177 0.35263 0.5201 0.0
C1835 C 0.58167 0.33092 0.52691 0.0
C1836 C 0.55776 0.32194 0.51623 0.0
C1837 C 0.55016 0.29876 0.50792 0.0
C1838 C 0.52765 0.29022 0.49727 0.0
C1839 C 0.5126 0.30472 0.49515 0.0
C1840 C 0.52002 0.32778 0.50383 0.0
C1841 C 0.54251 0.33641 0.51441 0.0
H1842 H 0.4952 0.29808 0.4868 0.0
H1843 H 0.71367 0.37941 0.59051 0.0
H1844 H 0.96801 0.42134 0.95685 0.0
H1845 H 0.95477 0.41232 0.89742 0.0
H1846 H 0.92116 0.34737 0.91119 0.0
H1847 H 0.93368 0.35661 0.97064 0.0
H1848 H 0.95883 0.34962 0.87078 0.0
H1849 H 0.8895 0.37223 0.88409 0.0
H1850 H 0.86527 0.39806 0.90538 0.0
H1851 H 0.89423 0.44555 0.84672 0.0
H1852 H 0.91898 0.42013 0.82553 0.0
H1853 H 0.90451 0.30075 0.71312 0.0
H1854 H 0.90067 0.32865 0.76001 0.0
H1855 H 0.9673 0.36345 0.754 0.0
H1856 H 0.97236 0.33351 0.71001 0.0
H1857 H 0.91113 0.37791 0.78967 0.0
H1858 H 0.98999 0.35186 0.79663 0.0
H1859 H 0.00802 0.32064 0.77386 0.0
H1860 H 0.95432 0.27369 0.79889 0.0
H1861 H 0.93498 0.3043 0.81902 0.0
C1862 C 0.9568 0.4057 0.94744 0.0
C1863 C 0.95191 0.38961 0.96793 0.0
C1864 C 0.94938 0.40051 0.91361 0.0
C1865 C 0.93719 0.37919 0.90032 0.0
C1866 C 0.93052 0.36392 0.92132 0.0
C1867 C 0.93768 0.36919 0.95508 0.0
C1868 C 0.9353 0.37132 0.86442 0.0
C1869 C 0.94856 0.35597 0.85306 0.0
C1870 C 0.92155 0.37934 0.84172 0.0
C1871 C 0.90626 0.39439 0.85348 0.0
C1872 C 0.89084 0.38826 0.87592 0.0
C1873 C 0.87699 0.40281 0.88795 0.0
C1874 C 0.87825 0.42347 0.87749 0.0
C1875 C 0.89329 0.42955 0.85483 0.0
C1876 C 0.90723 0.41507 0.84277 0.0
C1877 C 0.91796 0.31486 0.72059 0.0
C1878 C 0.93861 0.31527 0.70763 0.0
C1879 C 0.91565 0.33093 0.74733 0.0
C1880 C 0.93389 0.34776 0.76065 0.0
C1881 C 0.95326 0.35021 0.74422 0.0
C1882 C 0.95615 0.3332 0.7192 0.0
C1883 C 0.93545 0.35705 0.79614 0.0
C1884 C 0.92189 0.37222 0.80748 0.0
C1885 C 0.94863 0.34854 0.81921 0.0
C1886 C 0.9609 0.33031 0.80877 0.0
C1887 C 0.98198 0.33483 0.79708 0.0
C1888 C 0.99238 0.31726 0.78452 0.0
C1889 C 0.98245 0.29522 0.78526 0.0
C1890 C 0.96195 0.2907 0.79821 0.0
C1891 C 0.9511 0.30812 0.80973 0.0
H1892 H 0.99059 0.28165 0.77574 0.0
H1893 H 0.86755 0.43473 0.88687 0.0
H1894 H 0.94196 0.68049 0.39637 0.0
H1895 H 0.94233 0.65809 0.34181 0.0
H1896 H 0.87845 0.67296 0.3104 0.0
H1897 H 0.87729 0.69389 0.36611 0.0
H1898 H 0.8833 0.63469 0.27586 0.0
H1899 H 0.92777 0.70839 0.30392 0.0
H1900 H 0.95612 0.73914 0.33589 0.0
H1901 H 0.0069 0.69984 0.31829 0.0
H1902 H 0.9788 0.66874 0.28655 0.0
H1903 H 0.90957 0.6588 0.11379 0.0
H1904 H 0.89752 0.656 0.16919 0.0
H1905 H 0.95306 0.62442 0.19206 0.0
H1906 H 0.9649 0.62685 0.13657 0.0
H1907 H 0.95214 0.66769 0.23051 0.0
H1908 H 0.9056 0.5955 0.19537 0.0
H1909 H 0.87597 0.56767 0.16033 0.0
H1910 H 0.82772 0.60846 0.18723 0.0
H1911 H 0.85714 0.63669 0.2221 0.0
C1912 C 0.92746 0.67785 0.37835 0.0
C1913 C 0.90953 0.68863 0.38517 0.0
C1914 C 0.92779 0.66533 0.34713 0.0
C1915 C 0.91084 0.66465 0.32182 0.0
C1916 C 0.89178 0.67344 0.32961 0.0
C1917 C 0.89104 0.68528 0.36141 0.0
C1918 C 0.9146 0.65787 0.28675 0.0
C1919 C 0.8983 0.64194 0.26588 0.0
C1920 C 0.93421 0.66745 0.27378 0.0
C1921 C 0.9511 0.6861 0.29325 0.0
C1922 C 0.94493 0.70621 0.30714 0.0
C1923 C 0.96097 0.72373 0.32517 0.0
C1924 C 0.98328 0.7214 0.32925 0.0
C1925 C 0.9896 0.70159 0.31521 0.0
C1926 C 0.97363 0.68402 0.2972 0.0
C1927 C 0.91861 0.65048 0.13027 0.0
C1928 C 0.93811 0.64307 0.12128 0.0
C1929 C 0.91171 0.64879 0.1617 0.0
C1930 C 0.92442 0.63995 0.18443 0.0
C1931 C 0.94297 0.63105 0.17455 0.0
C1932 C 0.94968 0.63242 0.14296 0.0
C1933 C 0.92109 0.64419 0.21992 0.0
C1934 C 0.93736 0.66007 0.24072 0.0
C1935 C 0.90127 0.63506 0.2324 0.0
C1936 C 0.88361 0.61828 0.21114 0.0
C1937 C 0.88872 0.59864 0.19355 0.0
C1938 C 0.87195 0.58277 0.17378 0.0
C1939 C 0.84998 0.58631 0.17151 0.0
C1940 C 0.84474 0.60574 0.189 0.0
C1941 C 0.86145 0.62167 0.20881 0.0
H1942 H 0.83701 0.57397 0.15624 0.0
H1943 H 0.99567 0.73498 0.34319 0.0
H1944 H 0.41652 0.35767 0.53359 0.0
H1945 H 0.41699 0.35119 0.5912 0.0
H1946 H 0.47033 0.31433 0.5761 0.0
H1947 H 0.46974 0.32065 0.51817 0.0
H1948 H 0.43502 0.29223 0.60504 0.0
H1949 H 0.48236 0.36489 0.62254 0.0
H1950 H 0.49311 0.40468 0.61811 0.0
H1951 H 0.43574 0.41906 0.66581 0.0
H1952 H 0.42453 0.37933 0.67024 0.0
H1953 H 0.45075 0.28611 0.77916 0.0
H1954 H 0.45458 0.28972 0.72075 0.0
H1955 H 0.40961 0.33672 0.72684 0.0
H1956 H 0.40663 0.33383 0.78536 0.0
H1957 H 0.44494 0.35319 0.70242 0.0
H1958 H 0.39525 0.28188 0.68183 0.0
H1959 H 0.38261 0.24238 0.6865 0.0
H1960 H 0.44095 0.22546 0.64422 0.0
H1961 H 0.45408 0.26492 0.63965 0.0
C1962 C 0.4283 0.34817 0.54262 0.0
C1963 C 0.44301 0.33951 0.52162 0.0
C1964 C 0.4287 0.34466 0.57549 0.0
C1965 C 0.4438 0.33244 0.58778 0.0
C1966 C 0.45863 0.32387 0.56694 0.0
C1967 C 0.45835 0.32754 0.53407 0.0
C1968 C 0.44323 0.32778 0.62199 0.0
C1969 C 0.43757 0.30548 0.62651 0.0
C1970 C 0.44598 0.3452 0.64962 0.0
C1971 C 0.45253 0.36908 0.64648 0.0
C1972 C 0.47193 0.37649 0.6318 0.0
C1973 C 0.47814 0.39906 0.62938 0.0
C1974 C 0.4651 0.41438 0.64161 0.0
C1975 C 0.44583 0.40718 0.65633 0.0
C1976 C 0.43956 0.38465 0.65885 0.0
C1977 C 0.44154 0.29696 0.76769 0.0
C1978 C 0.42863 0.30994 0.78644 0.0
C1979 C 0.44362 0.29894 0.73443 0.0
C1980 C 0.43237 0.3135 0.71951 0.0
C1981 C 0.41859 0.32556 0.73798 0.0
C1982 C 0.41686 0.32391 0.77126 0.0
C1983 C 0.43609 0.31761 0.68554 0.0
C1984 C 0.44249 0.33985 0.68107 0.0
C1985 C 0.43362 0.30014 0.65795 0.0
C1986 C 0.42577 0.27641 0.66075 0.0
C1987 C 0.40548 0.26977 0.67379 0.0
C1988 C 0.39821 0.24738 0.67636 0.0
C1989 C 0.41101 0.23143 0.66577 0.0
C1990 C 0.43108 0.23784 0.65248 0.0
C1991 C 0.43843 0.26021 0.64986 0.0
H1992 H 0.40535 0.21411 0.66777 0.0
H1993 H 0.46994 0.43184 0.63975 0.0
H1994 H 0.4662 0.6269 0.60212 0.0
H1995 H 0.45149 0.63445 0.5494 0.0
H1996 H 0.5094 0.68571 0.55093 0.0
H1997 H 0.52195 0.67992 0.60601 0.0
H1998 H 0.48189 0.70139 0.52266 0.0
H1999 H 0.48252 0.61477 0.48671 0.0
H2000 H 0.46619 0.57676 0.49561 0.0
H2001 H 0.40117 0.59415 0.49504 0.0
H2002 H 0.41708 0.63203 0.48577 0.0
H2003 H 0.47484 0.67215 0.33039 0.0
H2004 H 0.48 0.66363 0.38667 0.0
H2005 H 0.42931 0.70076 0.41667 0.0
H2006 H 0.4242 0.70956 0.35983 0.0
H2007 H 0.44816 0.6414 0.4288 0.0
H2008 H 0.45094 0.72346 0.51198 0.0
H2009 H 0.44335 0.75985 0.50175 0.0
H2010 H 0.47533 0.7532 0.41202 0.0
H2011 H 0.4863 0.71833 0.42403 0.0
C2012 C 0.47557 0.64011 0.59204 0.0
C2013 C 0.495 0.65329 0.61057 0.0
C2014 C 0.46744 0.64413 0.56022 0.0
C2015 C 0.47912 0.66069 0.54374 0.0
C2016 C 0.49921 0.67302 0.5617 0.0
C2017 C 0.5067 0.66949 0.59386 0.0
C2018 C 0.47122 0.66566 0.50877 0.0
C2019 C 0.47487 0.68798 0.50231 0.0
C2020 C 0.4602 0.6491 0.48137 0.0
C2021 C 0.45098 0.62612 0.48571 0.0
C2022 C 0.46476 0.61038 0.48835 0.0
C2023 C 0.45557 0.58889 0.49345 0.0
C2024 C 0.43268 0.58307 0.49595 0.0
C2025 C 0.41887 0.59863 0.49304 0.0
C2026 C 0.42793 0.62004 0.48768 0.0
C2027 C 0.46492 0.67891 0.34893 0.0
C2028 C 0.44942 0.69216 0.33989 0.0
C2029 C 0.46771 0.67367 0.38141 0.0
C2030 C 0.45522 0.68139 0.40696 0.0
C2031 C 0.43946 0.69448 0.3981 0.0
C2032 C 0.43676 0.6999 0.3654 0.0
C2033 C 0.46001 0.67673 0.4427 0.0
C2034 C 0.45583 0.65462 0.44911 0.0
C2035 C 0.46868 0.69376 0.47064 0.0
C2036 C 0.46875 0.71766 0.46835 0.0
C2037 C 0.45735 0.73013 0.49083 0.0
C2038 C 0.45273 0.75069 0.48493 0.0
C2039 C 0.45915 0.75889 0.45644 0.0
C2040 C 0.47114 0.7471 0.43462 0.0
C2041 C 0.47685 0.7271 0.44127 0.0
H2042 H 0.45453 0.77419 0.451 0.0
H2043 H 0.42564 0.56649 0.50012 0.0
H2044 H 0.15339 0.71882 0.26878 0.0
H2045 H 0.14454 0.69059 0.21805 0.0
H2046 H 0.07804 0.7053 0.20762 0.0
H2047 H 0.08609 0.73117 0.25975 0.0
H2048 H 0.07439 0.66555 0.18461 0.0
H2049 H 0.13105 0.73251 0.17195 0.0
H2050 H 0.16895 0.7553 0.18542 0.0
H2051 H 0.19738 0.6975 0.15401 0.0
H2052 H 0.15966 0.67438 0.1407 0.0
H2053 H 0.04784 0.68932 0.02602 0.0
H2054 H 0.07406 0.69716 0.07644 0.0
H2055 H 0.08245 0.62848 0.06147 0.0
H2056 H 0.05567 0.62035 1.01173 0.0
H2057 H 0.12216 0.68351 0.09556 0.0
H2058 H 0.06214 0.61676 0.1113 0.0
H2059 H 0.0232 0.59757 0.09395 0.0
H2060 H 0.00069 0.65983 0.11721 0.0
H2061 H 0.0396 0.67938 0.13424 0.0
C2062 C 0.13665 0.71518 0.25625 0.0
C2063 C 0.12027 0.72684 0.26821 0.0
C2064 C 0.1317 0.69938 0.22697 0.0
C2065 C 0.11078 0.69616 0.20838 0.0
C2066 C 0.09428 0.70725 0.22136 0.0
C2067 C 0.09892 0.72223 0.25108 0.0
C2068 C 0.1061 0.68324 0.17405 0.0
C2069 C 0.08516 0.66915 0.16539 0.0
C2070 C 0.12011 0.68755 0.14862 0.0
C2071 C 0.14262 0.70172 0.15567 0.0
C2072 C 0.14541 0.72471 0.16793 0.0
C2073 C 0.16684 0.73766 0.17559 0.0
C2074 C 0.18556 0.72784 0.17068 0.0
C2075 C 0.18288 0.70508 0.15789 0.0
C2076 C 0.1615 0.69205 0.15029 0.0
C2077 C 0.05577 0.67609 0.03305 0.0
C2078 C 0.04995 0.65433 1.01504 0.0
C2079 C 0.07088 0.68061 0.06152 0.0
C2080 C 0.0802 0.6634 0.07231 0.0
C2081 C 0.07553 0.64196 0.05318 0.0
C2082 C 0.06023 0.63736 0.02489 0.0
C2083 C 0.09039 0.6669 0.10684 0.0
C2084 C 0.11206 0.67919 0.11522 0.0
C2085 C 0.07705 0.66128 0.13212 0.0
C2086 C 0.05365 0.64943 0.12405 0.0
C2087 C 0.04883 0.62628 0.11286 0.0
C2088 C 0.02683 0.61538 0.10295 0.0
C2089 C 0.00951 0.62747 0.10447 0.0
C2090 C 0.01414 0.65049 0.11604 0.0
C2091 C 0.03615 0.66148 0.12583 0.0
H2092 H 0.99254 0.61895 0.09667 0.0
H2093 H 0.20214 0.73787 0.17673 0.0
H2094 H 0.07365 0.26214 0.73652 0.0
H2095 H 0.06861 0.28008 0.79234 0.0
H2096 H 0.13604 0.27632 0.82576 0.0
H2097 H 0.14084 0.25769 0.76945 0.0
H2098 H 0.11407 0.267 0.87262 0.0
H2099 H 0.11345 0.32876 0.81731 0.0
H2100 H 0.10383 0.35397 0.77937 0.0
H2101 H 0.03702 0.34523 0.80699 0.0
H2102 H 0.04581 0.31916 0.84386 0.0
H2103 H 0.09469 0.31372 0.03703 0.0
H2104 H 0.11023 0.30791 0.98429 0.0
H2105 H 0.05102 0.32374 0.93661 0.0
H2106 H 0.03969 0.33618 0.99122 0.0
H2107 H 0.07365 0.32958 0.89623 0.0
H2108 H 0.0773 0.26146 0.94925 0.0
H2109 H 0.093 0.24396 0.99367 0.0
H2110 H 0.15937 0.27039 0.97376 0.0
H2111 H 0.14412 0.28841 0.92965 0.0
C2112 C 0.08768 0.26555 0.75548 0.0
C2113 C 0.10791 0.25883 0.74753 0.0
C2114 C 0.08477 0.27605 0.78787 0.0
C2115 C 0.10191 0.28031 0.81439 0.0
C2116 C 0.12229 0.27362 0.80648 0.0
C2117 C 0.12522 0.26311 0.77382 0.0
C2118 C 0.09797 0.2902 0.85023 0.0
C2119 C 0.10518 0.28074 0.87747 0.0
C2120 C 0.0864 0.30825 0.85809 0.0
C2121 C 0.08023 0.3216 0.83282 0.0
C2122 C 0.0965 0.33161 0.81444 0.0
C2123 C 0.09117 0.34604 0.79311 0.0
C2124 C 0.06965 0.35068 0.79009 0.0
C2125 C 0.05343 0.34101 0.80851 0.0
C2126 C 0.05858 0.32638 0.82958 0.0
C2127 C 0.0864 0.31842 1.01596 0.0
C2128 C 0.06729 0.32801 1.01993 0.0
C2129 C 0.09431 0.31311 0.98438 0.0
C2130 C 0.08169 0.3139 0.95413 0.0
C2131 C 0.06194 0.32283 0.95818 0.0
C2132 C 0.05522 0.33005 0.99006 0.0
C2133 C 0.08828 0.30543 0.91878 0.0
C2134 C 0.0818 0.31533 0.89146 0.0
C2135 C 0.10067 0.2879 0.91086 0.0
C2136 C 0.10958 0.27637 0.93645 0.0
C2137 C 0.09522 0.26344 0.95431 0.0
C2138 C 0.10405 0.25349 0.97948 0.0
C2139 C 0.12713 0.25602 0.98653 0.0
C2140 C 0.14149 0.26845 0.96833 0.0
C2141 C 0.13279 0.27856 0.94329 0.0
H2142 H 0.13388 0.24834 1.00611 0.0
H2143 H 0.06562 0.36204 0.77385 0.0
H2144 H 0.01433 0.27879 0.13951 0.0
H2145 H 0.00012 0.27084 0.19113 0.0
H2146 H 0.05021 0.32527 0.2454 0.0
H2147 H 0.06786 0.32815 0.19583 0.0
H2148 H 0.04943 0.30221 0.27976 0.0
H2149 H 0.96807 0.31125 0.25551 0.0
H2150 H 0.93266 0.30697 0.22003 0.0
H2151 H 0.93706 0.239 0.1831 0.0
H2152 H 0.97275 0.24359 0.21796 0.0
H2153 H 0.0481 0.20159 0.27807 0.0
H2154 H 0.04401 0.23486 0.3148 0.0
H2155 H 0.97459 0.22406 0.27628 0.0
H2156 H 0.9775 0.18872 0.24592 0.0
H2157 H 0.97714 0.2591 0.29041 0.0
H2158 H 0.02509 0.24261 0.22771 0.0
H2159 H 0.05241 0.23354 0.18902 0.0
H2160 H 0.10594 0.2689 0.26169 0.0
H2161 H 0.07881 0.27811 0.30112 0.0
C2162 C 0.02291 0.28801 0.16297 0.0
C2163 C 0.04227 0.30407 0.1635 0.0
C2164 C 0.01387 0.28449 0.19265 0.0
C2165 C 0.02289 0.29818 0.22325 0.0
C2166 C 0.04256 0.31394 0.22314 0.0
C2167 C 0.05287 0.31566 0.19427 0.0
C2168 C 0.01567 0.29291 0.25595 0.0
C2169 C 0.03317 0.29201 0.27968 0.0
C2170 C 0.99431 0.2808 0.26047 0.0
C2171 C 0.97373 0.2785 0.23778 0.0
C2172 C 0.96194 0.29596 0.23862 0.0
C2173 C 0.94165 0.29328 0.21905 0.0
C2174 C 0.93272 0.27279 0.19892 0.0
C2175 C 0.94406 0.25496 0.19846 0.0
C2176 C 0.9643 0.25766 0.21817 0.0
C2177 C 0.03168 0.20559 0.27884 0.0
C2178 C 0.0134 0.19316 0.25724 0.0
C2179 C 0.02932 0.2249 0.2998 0.0
C2180 C 0.0101 0.23393 0.29434 0.0
C2181 C 0.99066 0.21919 0.27861 0.0
C2182 C 0.99236 0.19882 0.26025 0.0
C2183 C 0.01262 0.25827 0.29282 0.0
C2184 C 0.99335 0.26689 0.28476 0.0
C2185 C 0.03342 0.27083 0.28694 0.0
C2186 C 0.04992 0.26039 0.26793 0.0
C2187 C 0.04272 0.24771 0.23601 0.0
C2188 C 0.05813 0.24291 0.21369 0.0
C2189 C 0.08088 0.25075 0.22284 0.0
C2190 C 0.08828 0.26285 0.2547 0.0
C2191 C 0.07291 0.26769 0.27721 0.0
H2192 H 0.09279 0.2473 0.2053 0.0
H2193 H 0.91693 0.27067 0.18395 0.0
H2194 H 0.97052 0.71347 0.43358 0.0
H2195 H 0.0083 0.70762 0.44583 0.0
H2196 H -0.00173 0.71107 0.55002 0.0
H2197 H 0.95962 0.71602 0.53715 0.0
H2198 H 0.02944 0.7464 0.53276 0.0
H2199 H 0.02775 0.66964 0.52587 0.0
H2200 H 0.01354 0.62932 0.50779 0.0
H2201 H 0.02547 0.63562 0.40709 0.0
H2202 H 0.03952 0.67592 0.42438 0.0
H2203 H 0.12713 0.75968 0.42614 0.0
H2204 H 0.11055 0.74817 0.47433 0.0
H2205 H 0.0451 0.74105 0.42292 0.0
H2206 H 0.06192 0.75204 0.37352 0.0
H2207 H 0.07043 0.7014 0.45672 0.0
H2208 H 0.04211 0.77624 0.46727 0.0
H2209 H 0.05089 0.81741 0.4803 0.0
H2210 H 0.09163 0.81411 0.56882 0.0
H2211 H 0.08349 0.77296 0.55582 0.0
C2212 C 0.97622 0.71229 0.45887 0.0
C2213 C 0.96275 0.7156 0.48463 0.0
C2214 C -0.0024 0.70847 0.46584 0.0
C2215 C 0.00596 0.70852 0.49883 0.0
C2216 C 0.99194 0.71052 0.5244 0.0
C2217 C 0.97017 0.71372 0.51717 0.0
C2218 C 0.03032 0.71354 0.50618 0.0
C2219 C 0.03905 0.73625 0.51769 0.0
C2220 C 0.04319 0.70022 0.48748 0.0
C2221 C 0.03499 0.67585 0.47665 0.0
C2222 C 0.02737 0.66244 0.49989 0.0
C2223 C 0.01932 0.63956 0.48974 0.0
C2224 C 0.01869 0.6299 0.45634 0.0
C2225 C 0.02611 0.64309 0.433 0.0
C2226 C 0.03423 0.66595 0.44302 0.0
C2227 C 0.10923 0.75666 0.42563 0.0
C2228 C 0.09571 0.75719 0.39667 0.0
C2229 C 0.09986 0.75009 0.45324 0.0
C2230 C 0.07682 0.74443 0.45236 0.0
C2231 C 0.06307 0.74585 0.42394 0.0
C2232 C 0.07253 0.75217 0.39598 0.0
C2233 C 0.06678 0.73432 0.47902 0.0
C2234 C 0.06174 0.71097 0.47424 0.0
C2235 C 0.05693 0.747 0.50332 0.0
C2236 C 0.06257 0.77163 0.51027 0.0
C2237 C 0.05326 0.78434 0.48917 0.0
C2238 C 0.0581 0.80766 0.49658 0.0
C2239 C 0.07199 0.81839 0.52523 0.0
C2240 C 0.08111 0.80581 0.54646 0.0
C2241 C 0.07642 0.7825 0.53905 0.0
H2242 H 0.07549 0.83642 0.53118 0.0
H2243 H 0.01238 0.61221 0.44852 0.0
H2244 H 0.46256 0.68828 0.72503 0.0
H2245 H 0.46747 0.72688 0.71496 0.0
H2246 H 0.53045 0.74236 0.77281 0.0
H2247 H 0.52607 0.70473 0.78414 0.0
H2248 H 0.54569 0.75522 0.73233 0.0
H2249 H 0.47903 0.68632 0.64585 0.0
H2250 H 0.44245 0.68043 0.61279 0.0
H2251 H 0.4419 0.7504 0.63567 0.0
H2252 H 0.4806 0.75694 0.66075 0.0
H2253 H 0.58802 0.79092 0.61367 0.0
H2254 H 0.58445 0.75395 0.62907 0.0
H2255 H 0.51459 0.74066 0.59262 0.0
H2256 H 0.51904 0.77528 0.57382 0.0
H2257 H 0.51324 0.71452 0.62148 0.0
H2258 H 0.57025 0.79148 0.69492 0.0
H2259 H 0.61008 0.80773 0.7104 0.0
H2260 H 0.62577 0.74193 0.69929 0.0
H2261 H 0.58591 0.72538 0.68436 0.0
C2262 C 0.47757 0.69991 0.73572 0.0
C2263 C 0.49589 0.69271 0.75037 0.0
C2264 C 0.48069 0.72175 0.72911 0.0
C2265 C 0.50259 0.73418 0.73373 0.0
C2266 C 0.51544 0.73078 0.76194 0.0
C2267 C 0.51281 0.70917 0.76911 0.0
C2268 C 0.51497 0.73696 0.70342 0.0
C2269 C 0.53787 0.74694 0.708 0.0
C2270 C 0.50607 0.72617 0.67057 0.0
C2271 C 0.48213 0.72196 0.65787 0.0
C2272 C 0.47108 0.70033 0.6438 0.0
C2273 C 0.45017 0.69692 0.62564 0.0
C2274 C 0.43938 0.71487 0.62341 0.0
C2275 C 0.45007 0.73642 0.63775 0.0
C2276 C 0.47172 0.74004 0.65347 0.0
C2277 C 0.57202 0.77969 0.60837 0.0
C2278 C 0.55285 0.78687 0.59638 0.0
C2279 C 0.56985 0.75874 0.61803 0.0
C2280 C 0.54836 0.74635 0.61865 0.0
C2281 C 0.53117 0.75069 0.5969 0.0
C2282 C 0.53338 0.77112 0.58638 0.0
C2283 C 0.54161 0.73682 0.6489 0.0
C2284 C 0.52038 0.7235 0.64579 0.0
C2285 C 0.55113 0.74717 0.68144 0.0
C2286 C 0.57506 0.75722 0.68944 0.0
C2287 C 0.5821 0.78052 0.69664 0.0
C2288 C 0.60472 0.78978 0.70497 0.0
C2289 C 0.62043 0.77587 0.70607 0.0
C2290 C 0.61357 0.75268 0.69863 0.0
C2291 C 0.59098 0.74336 0.69029 0.0
H2292 H 0.63793 0.78306 0.71249 0.0
H2293 H 0.42299 0.71214 0.60994 0.0
H2294 H 0.58804 0.21243 0.88299 0.0
H2295 H 0.56801 0.20567 0.93057 0.0
H2296 H 0.56911 0.2763 0.95793 0.0
H2297 H 0.59066 0.28352 0.91121 0.0
H2298 H 0.57501 0.2563 1.01387 0.0
H2299 H 0.52437 0.24763 0.91822 0.0
H2300 H 0.50924 0.2354 0.85963 0.0
H2301 H 0.50161 0.16683 0.87275 0.0
H2302 H 0.51726 0.17876 0.93155 0.0
H2303 H 0.47157 0.26881 1.01763 0.0
H2304 H 0.50914 0.26796 0.03929 0.0
H2305 H 0.49063 0.19761 0.04135 0.0
H2306 H 0.45292 0.19804 1.01875 0.0
H2307 H 0.5012 0.20709 0.98049 0.0
H2308 H 0.53997 0.22536 0.08837 0.0
H2309 H 0.54914 0.24564 0.14593 0.0
H2310 H 0.56894 0.30695 0.10943 0.0
H2311 H 0.56065 0.28699 0.05161 0.0
C2312 C 0.58426 0.22662 0.89919 0.0
C2313 C 0.59119 0.24854 0.89359 0.0
C2314 C 0.57294 0.22271 0.9265 0.0
C2315 C 0.56744 0.24052 0.9479 0.0
C2316 C 0.57367 0.26242 0.94195 0.0
C2317 C 0.58545 0.26642 0.91483 0.0
C2318 C 0.55253 0.23572 0.97349 0.0
C2319 C 0.55877 0.24562 1.00691 0.0
C2320 C 0.53166 0.22149 0.96426 0.0
C2321 C 0.52244 0.21405 0.92896 0.0
C2322 C 0.51975 0.22993 0.90847 0.0
C2323 C 0.51101 0.22305 0.87526 0.0
C2324 C 0.50462 0.20032 0.86234 0.0
C2325 C 0.50676 0.18443 0.88274 0.0
C2326 C 0.51559 0.19123 0.91601 0.0
C2327 C 0.47528 0.25319 0.02341 0.0
C2328 C 0.46 0.23305 1.01347 0.0
C2329 C 0.49669 0.25287 0.03713 0.0
C2330 C 0.50305 0.23225 0.03901 0.0
C2331 C 0.48622 0.21351 0.03837 0.0
C2332 C 0.46479 0.21364 0.02425 0.0
C2333 C 0.52269 0.22868 1.02141 0.0
C2334 C 0.51767 0.21704 0.98859 0.0
C2335 C 0.54379 0.24255 0.03103 0.0
C2336 C 0.5498 0.25461 0.06564 0.0
C2337 C 0.5465 0.24314 0.0926 0.0
C2338 C 0.55165 0.25458 0.12529 0.0
C2339 C 0.55986 0.27756 0.13133 0.0
C2340 C 0.563 0.28911 0.10468 0.0
C2341 C 0.55825 0.27771 0.07194 0.0
H2342 H 0.56367 0.28645 0.15665 0.0
H2343 H 0.49796 0.19499 0.83655 0.0
H2344 H 0.06935 0.80664 0.81598 0.0
H2345 H 0.06765 0.76767 0.79156 0.0
H2346 H 0.00588 0.7675 0.73424 0.0
H2347 H 0.00504 0.80456 0.76358 0.0
H2348 H -0.00087 0.75379 0.79078 0.0
H2349 H 0.03985 0.73305 0.70308 0.0
H2350 H 0.06974 0.731 0.66618 0.0
H2351 H 0.11107 0.71332 0.74345 0.0
H2352 H 0.08159 0.71536 0.78099 0.0
H2353 H 0.98328 0.67092 0.88327 0.0
H2354 H 0.98465 0.68379 0.83047 0.0
H2355 H 0.05571 0.70713 0.8521 0.0
H2356 H 0.05511 0.68976 0.90206 0.0
H2357 H 0.04557 0.69535 0.78661 0.0
H2358 H 0.01994 0.74771 0.87334 0.0
H2359 H 0.99692 0.75369 0.91999 0.0
H2360 H 0.93817 0.71981 0.85624 0.0
H2361 H 0.96089 0.71408 0.80901 0.0
C2362 C 0.05559 0.79838 0.79762 0.0
C2363 C 0.03695 0.80832 0.79243 0.0
C2364 C 0.05498 0.77628 0.78275 0.0
C2365 C 0.03586 0.76434 0.76233 0.0
C2366 C 0.02025 0.77628 0.75082 0.0
C2367 C 0.01972 0.79749 0.76785 0.0
C2368 C 0.02705 0.74177 0.76899 0.0
C2369 C 0.00891 0.74063 0.78843 0.0
C2370 C 0.03991 0.72471 0.76686 0.0
C2371 C 0.05828 0.72429 0.74492 0.0
C2372 C 0.05536 0.72891 0.7124 0.0
C2373 C 0.07225 0.72767 0.69127 0.0
C2374 C 0.0923 0.72203 0.70244 0.0
C2375 C 0.0955 0.7176 0.73477 0.0
C2376 C 0.07862 0.7187 0.75594 0.0
C2377 C -0.00065 0.67805 0.87642 0.0
C2378 C 0.01918 0.67862 0.89628 0.0
C2379 C 5e-05 0.68563 0.8463 0.0
C2380 C 0.02019 0.69662 0.83757 0.0
C2381 C 0.04001 0.69832 0.85814 0.0
C2382 C 0.03956 0.68902 0.88711 0.0
C2383 C 0.01998 0.7097 0.81048 0.0
C2384 C 0.03567 0.70836 0.78721 0.0
C2385 C 0.00612 0.72573 0.81056 0.0
C2386 C 0.99203 0.7304 0.83787 0.0
C2387 C 0.00207 0.74173 0.8693 0.0
C2388 C 0.98911 0.74506 0.89578 0.0
C2389 C 0.9661 0.73705 0.89111 0.0
C2390 C 0.95599 0.72596 0.85981 0.0
C2391 C 0.96885 0.72284 0.83309 0.0
H2392 H 0.95612 0.73948 0.91172 0.0
H2393 H 0.10534 0.72103 0.686 0.0
H2394 H 0.60965 0.77987 0.09502 0.0
H2395 H 0.59475 0.77945 0.03831 0.0
H2396 H 0.5366 0.73219 0.05233 0.0
H2397 H 0.55277 0.73035 0.10731 0.0
H2398 H 0.54166 0.72886 0.9857 0.0
H2399 H 0.54015 0.79201 0.08372 0.0
H2400 H 0.56302 0.82082 0.12705 0.0
H2401 H 0.60271 0.84523 0.05321 0.0
H2402 H 0.57989 0.81643 1.00927 0.0
H2403 H 0.4819 0.73198 0.09949 0.0
H2404 H 0.49533 0.72993 0.04528 0.0
H2405 H 0.49584 0.80083 0.05024 0.0
H2406 H 0.48781 0.80308 0.10657 0.0
H2407 H 0.51843 0.80087 1.01339 0.0
H2408 H 0.474 0.74135 0.95562 0.0
H2409 H 0.44694 0.70683 0.93371 0.0
H2410 H 0.48676 0.6686 0.98311 0.0
H2411 H 0.51488 0.70239 1.00368 0.0
C2412 C 0.59374 0.76919 0.08592 0.0
C2413 C 0.58205 0.75542 0.10591 0.0
C2414 C 0.58551 0.76871 0.0532 0.0
C2415 C 0.56443 0.7562 0.04108 0.0
C2416 C 0.55297 0.74207 0.06084 0.0
C2417 C 0.56178 0.74158 0.09284 0.0
C2418 C 0.55141 0.76223 1.01324 0.0
C2419 C 0.53631 0.74456 0.99338 0.0
C2420 C 0.54541 0.78367 1.01796 0.0
C2421 C 0.55813 0.80236 0.04317 0.0
C2422 C 0.55342 0.80387 0.07661 0.0
C2423 C 0.56649 0.82003 0.10132 0.0
C2424 C 0.58425 0.83493 0.09286 0.0
C2425 C 0.58887 0.83373 0.05964 0.0
C2426 C 0.57585 0.8175 0.03478 0.0
C2427 C 0.48562 0.74716 0.08908 0.0
C2428 C 0.48249 0.76756 0.10669 0.0
C2429 C 0.49256 0.74593 0.05697 0.0
C2430 C 0.49617 0.76501 0.0412 0.0
C2431 C 0.49349 0.78541 0.06003 0.0
C2432 C 0.48843 0.78681 0.0928 0.0
C2433 C 0.50745 0.76513 1.00936 0.0
C2434 C 0.52319 0.78467 1.00898 0.0
C2435 C 0.51342 0.7452 0.9933 0.0
C2436 C 0.49663 0.72458 0.98111 0.0
C2437 C 0.47704 0.7256 0.96182 0.0
C2438 C 0.46152 0.70611 0.94952 0.0
C2439 C 0.46493 0.68563 0.95728 0.0
C2440 C 0.48416 0.68446 0.97692 0.0
C2441 C 0.50013 0.70373 0.98838 0.0
H2442 H 0.45279 0.67062 0.94783 0.0
H2443 H 0.59447 0.84733 0.11207 0.0
H2444 H 0.52869 0.15649 0.36593 0.0
H2445 H 0.53043 0.17834 0.32124 0.0
H2446 H 0.52183 0.23596 0.39026 0.0
H2447 H 0.52178 0.21406 0.43618 0.0
H2448 H 0.48836 0.21233 0.32551 0.0
H2449 H 0.56578 0.24409 0.36561 0.0
H2450 H 0.60471 0.24174 0.3821 0.0
H2451 H 0.60907 0.2051 0.28533 0.0
H2452 H 0.56985 0.20645 0.2686 0.0
H2453 H 0.48434 0.30278 0.29909 0.0
H2454 H 0.47969 0.26609 0.26744 0.0
H2455 H 0.55066 0.2755 0.25969 0.0
H2456 H 0.55513 0.31241 0.29127 0.0
H2457 H 0.55027 0.24162 0.26392 0.0
H2458 H 0.48221 0.21426 0.2213 0.0
H2459 H 0.44323 0.2038 0.19712 0.0
H2460 H 0.42111 0.22603 0.29189 0.0
H2461 H 0.46016 0.23617 0.31692 0.0
C2462 C 0.52844 0.1741 0.37183 0.0
C2463 C 0.52619 0.18406 0.40427 0.0
C2464 C 0.52921 0.18644 0.34637 0.0
C2465 C 0.52694 0.20873 0.35299 0.0
C2466 C 0.5242 0.2188 0.38534 0.0
C2467 C 0.52398 0.20642 0.41122 0.0
C2468 C 0.52383 0.22006 0.32484 0.0
C2469 C 0.50197 0.22049 0.31345 0.0
C2470 C 0.54132 0.22654 0.3058 0.0
C2471 C 0.56472 0.22505 0.31602 0.0
C2472 C 0.57487 0.23512 0.34804 0.0
C2473 C 0.59702 0.23398 0.35743 0.0
C2474 C 0.60929 0.22304 0.33489 0.0
C2475 C 0.59945 0.21327 0.3029 0.0
C2476 C 0.57725 0.2142 0.29345 0.0
C2477 C 0.49907 0.2967 0.29146 0.0
C2478 C 0.52048 0.30939 0.30125 0.0
C2479 C 0.49646 0.27532 0.27311 0.0
C2480 C 0.51532 0.26568 0.26648 0.0
C2481 C 0.53586 0.28072 0.26845 0.0
C2482 C 0.5386 0.30214 0.28685 0.0
C2483 C 0.51551 0.24198 0.27159 0.0
C2484 C 0.53658 0.23609 0.27778 0.0
C2485 C 0.49746 0.23033 0.28586 0.0
C2486 C 0.47409 0.22599 0.27083 0.0
C2487 C 0.46905 0.21713 0.23689 0.0
C2488 C 0.4469 0.21113 0.22311 0.0
C2489 C 0.4296 0.21434 0.24285 0.0
C2490 C 0.43448 0.22351 0.27659 0.0
C2491 C 0.45663 0.22921 0.29066 0.0
H2492 H 0.41244 0.20967 0.23201 0.0
H2493 H 0.62647 0.22227 0.34212 0.0
H2494 H 0.06353 0.22959 0.58155 0.0
H2495 H 0.06038 0.24389 0.53037 0.0
H2496 H 0.10037 0.30739 0.57905 0.0
H2497 H 0.10211 0.29305 0.63046 0.0
H2498 H 0.07827 0.32249 0.54632 0.0
H2499 H 0.10008 0.26327 0.49331 0.0
H2500 H 0.11383 0.24111 0.4471 0.0
H2501 H 0.05038 0.2314 0.38974 0.0
H2502 H 0.03585 0.25337 0.43542 0.0
H2503 H 0.97765 0.3081 0.5909 0.0
H2504 H 0.99716 0.30992 0.54242 0.0
H2505 H 0.01618 0.24679 0.55117 0.0
H2506 H 0.99097 0.242 0.59504 0.0
H2507 H 0.02368 0.25742 0.48817 0.0
H2508 H 0.04504 0.29305 0.60371 0.0
H2509 H 0.03725 0.31422 0.65652 0.0
H2510 H 0.02831 0.36918 0.60717 0.0
H2511 H 0.03604 0.34819 0.55391 0.0
C2512 C 0.07169 0.24655 0.58113 0.0
C2513 C 0.08395 0.25974 0.60959 0.0
C2514 C 0.07017 0.25492 0.55147 0.0
C2515 C 0.08009 0.27722 0.5498 0.0
C2516 C 0.09226 0.29033 0.57882 0.0
C2517 C 0.09305 0.28211 0.60861 0.0
C2518 C 0.0731 0.28842 0.52151 0.0
C2519 C 0.06605 0.30833 0.53345 0.0
C2520 C 0.05821 0.27449 0.49576 0.0
C2521 C 0.06654 0.25991 0.46863 0.0
C2522 C 0.08875 0.25631 0.47118 0.0
C2523 C 0.09677 0.24368 0.44489 0.0
C2524 C 0.08289 0.23453 0.41567 0.0
C2525 C 0.06097 0.23805 0.41267 0.0
C2526 C 0.05277 0.25054 0.43892 0.0
C2527 C 0.98412 0.29355 0.58092 0.0
C2528 C 0.98194 0.27456 0.59637 0.0
C2529 C 0.99563 0.29479 0.55318 0.0
C2530 C 0.00856 0.27885 0.54362 0.0
C2531 C 0.00619 0.25933 0.55806 0.0
C2532 C 0.99244 0.25694 0.58387 0.0
C2533 C 0.02892 0.28601 0.5278 0.0
C2534 C 0.03542 0.27175 0.50133 0.0
C2535 C 0.04439 0.30567 0.54299 0.0
C2536 C 0.04101 0.31911 0.57495 0.0
C2537 C 0.04158 0.30974 0.60423 0.0
C2538 C 0.0371 0.32164 0.63417 0.0
C2539 C 0.03224 0.34303 0.63518 0.0
C2540 C 0.03207 0.35261 0.60629 0.0
C2541 C 0.03655 0.34075 0.57623 0.0
H2542 H 0.02863 0.35218 0.65834 0.0
H2543 H 0.08916 0.22482 0.39529 0.0
H2544 H 0.03324 0.09752 0.0823 0.0
H2545 H 0.03375 0.06516 0.03938 0.0
H2546 H 0.01479 0.02103 0.1088 0.0
H2547 H 0.01375 0.05344 0.15184 0.0
H2548 H 0.05853 0.01869 0.06319 0.0
H2549 H 0.97717 0.00739 0.06386 0.0
H2550 H 0.9401 0.01809 0.06173 0.0
H2551 H 0.95285 0.04572 0.97323 0.0
H2552 H 0.98975 0.03456 0.9743 0.0
H2553 H 0.02331 0.90962 0.95817 0.0
H2554 H 0.02251 0.94243 1.00015 0.0
H2555 H 0.03787 0.98525 0.92772 0.0
H2556 H 0.03951 0.95241 0.88578 0.0
H2557 H 0.99621 0.98842 0.97439 0.0
H2558 H 0.07598 0.99365 0.97046 0.0
H2559 H 0.10988 0.97711 0.96994 0.0
H2560 H 0.09966 0.95939 0.06607 0.0
H2561 H 0.06538 0.97543 0.06679 0.0
C2562 C 0.0292 0.08094 0.08852 0.0
C2563 C 0.02353 0.0781 0.1206 0.0
C2564 C 0.02942 0.06244 0.06388 0.0
C2565 C 0.02434 0.04065 0.07083 0.0
C2566 C 0.01874 0.03769 0.10284 0.0
C2567 C 0.01811 0.05622 0.1274 0.0
C2568 C 0.02534 0.02117 0.04464 0.0
C2569 C 0.04483 0.01198 0.04396 0.0
C2570 C 0.00771 0.01254 1.01915 0.0
C2571 C 0.98627 0.02049 1.01947 0.0
C2572 C 0.97215 0.016 0.0442 0.0
C2573 C 0.95113 0.02199 0.04305 0.0
C2574 C 0.94423 0.03279 1.01758 0.0
C2575 C 0.95827 0.03745 0.99303 0.0
C2576 C 0.97917 0.03118 0.99378 0.0
C2577 C 0.02652 0.92604 0.95117 0.0
C2578 C 0.03146 0.92846 0.91867 0.0
C2579 C 0.02609 0.94475 0.9752 0.0
C2580 C 0.03007 0.96628 0.96708 0.0
C2581 C 0.03476 0.96878 0.93452 0.0
C2582 C 0.0358 0.95006 0.91065 0.0
C2583 C 0.02938 0.98603 0.99287 0.0
C2584 C 0.00998 0.99525 0.99349 0.0
C2585 C 0.04706 0.99455 1.01836 0.0
C2586 C 0.06799 0.98552 1.01851 0.0
C2587 C 0.08085 0.98605 0.99135 0.0
C2588 C 0.10015 0.97679 0.99104 0.0
C2589 C 0.1069 0.96716 1.01793 0.0
C2590 C 0.0944 0.96684 0.04524 0.0
C2591 C 0.07503 0.97602 0.04562 0.0
H2592 H 0.12184 0.95998 1.01764 0.0
H2593 H 0.92795 0.03743 1.01675 0.0
H2594 H 0.22313 0.79568 0.33594 0.0
H2595 H 0.25792 0.79783 0.30951 0.0
H2596 H 0.23333 0.7325 0.25082 0.0
H2597 H 0.19931 0.72968 0.27893 0.0
H2598 H 0.27561 0.7368 0.26728 0.0
H2599 H 0.22922 0.78401 0.22252 0.0
H2600 H 0.20755 0.81431 0.23031 0.0
H2601 H 0.26681 0.86092 0.27359 0.0
H2602 H 0.28875 0.83081 0.2666 0.0
H2603 H 0.35038 0.74074 0.14771 0.0
H2604 H 0.31459 0.7402 0.17087 0.0
H2605 H 0.33832 0.8072 0.22445 0.0
H2606 H 0.37326 0.8084 0.19854 0.0
H2607 H 0.29662 0.80237 0.2116 0.0
H2608 H 0.34298 0.75628 0.25798 0.0
H2609 H 0.36495 0.72617 0.25516 0.0
H2610 H 0.30665 0.67802 0.21242 0.0
H2611 H 0.28439 0.70788 0.21461 0.0
C2612 C 0.22532 0.78175 0.31761 0.0
C2613 C 0.20853 0.76269 0.30902 0.0
C2614 C 0.24512 0.78299 0.30244 0.0
C2615 C 0.24793 0.76562 0.2774 0.0
C2616 C 0.23148 0.74618 0.26987 0.0
C2617 C 0.21202 0.74463 0.28582 0.0
C2618 C 0.26745 0.76801 0.25786 0.0
C2619 C 0.28006 0.75101 0.25478 0.0
C2620 C 0.27352 0.78679 0.24214 0.0
C2621 C 0.26061 0.80515 0.24412 0.0
C2622 C 0.23764 0.80074 0.23358 0.0
C2623 C 0.22529 0.81786 0.23797 0.0
C2624 C 0.2358 0.83952 0.25244 0.0
C2625 C 0.2587 0.84413 0.26236 0.0
C2626 C 0.2711 0.82706 0.25816 0.0
C2627 C 0.3478 0.75535 0.16429 0.0
C2628 C 0.36492 0.77409 0.17317 0.0
C2629 C 0.32741 0.75506 0.17753 0.0
C2630 C 0.32423 0.77316 0.20098 0.0
C2631 C 0.34057 0.79276 0.20716 0.0
C2632 C 0.36065 0.79336 0.19275 0.0
C2633 C 0.30477 0.77105 0.22077 0.0
C2634 C 0.29217 0.78812 0.22397 0.0
C2635 C 0.29878 0.75237 0.23685 0.0
C2636 C 0.31205 0.73433 0.23633 0.0
C2637 C 0.33485 0.73927 0.24799 0.0
C2638 C 0.34735 0.72225 0.24652 0.0
C2639 C 0.33718 0.7002 0.23375 0.0
C2640 C 0.31448 0.6951 0.22243 0.0
C2641 C 0.30192 0.71206 0.2238 0.0
H2642 H 0.34691 0.68707 0.23246 0.0
H2643 H 0.22619 0.85272 0.25597 0.0
H2644 H 0.51516 0.08077 0.52274 0.0
H2645 H 0.52249 0.04906 0.54874 0.0
H2646 H 0.54184 0.01795 0.45605 0.0
H2647 H 0.5342 0.04938 0.42988 0.0
H2648 H 0.50193 -0.00119 0.516 0.0
H2649 H 0.58324 0.00906 0.47646 0.0
H2650 H 0.61753 0.0355 0.47099 0.0
H2651 H 0.61304 0.07293 0.56727 0.0
H2652 H 0.57874 0.04663 0.57319 0.0
H2653 H 0.57392 0.91192 0.54993 0.0
H2654 H 0.56719 0.94428 0.5254 0.0
H2655 H 0.53001 0.96401 0.60717 0.0
H2656 H 0.53525 0.93075 0.6304 0.0
H2657 H 0.57841 0.98907 0.55168 0.0
H2658 H 0.4966 0.97514 0.59073 0.0
H2659 H 0.46171 0.94857 0.59231 0.0
H2660 H 0.46397 0.91998 0.49036 0.0
H2661 H 0.49988 0.94522 0.48896 0.0
C2662 C 0.52055 0.06692 0.50785 0.0
C2663 C 0.52409 0.06729 0.47439 0.0
C2664 C 0.52499 0.04907 0.52275 0.0
C2665 C 0.53296 0.03153 0.50427 0.0
C2666 C 0.53605 0.03164 0.47068 0.0
C2667 C 0.53166 0.04948 0.45582 0.0
C2668 C 0.537 0.01248 0.51966 0.0
C2669 C 0.5186 0.99671 0.52413 0.0
C2670 C 0.55873 0.00967 0.52937 0.0
C2671 C 0.57857 0.026 0.52522 0.0
C2672 C 0.58957 0.023 0.49634 0.0
C2673 C 0.60899 0.03793 0.49319 0.0
C2674 C 0.6175 0.05584 0.51883 0.0
C2675 C 0.60645 0.05903 0.54748 0.0
C2676 C 0.58703 0.04415 0.55073 0.0
C2677 C 0.56431 0.92322 0.5626 0.0
C2678 C 0.55494 0.91895 0.59184 0.0
C2679 C 0.56036 0.94155 0.5485 0.0
C2680 C 0.54734 0.95601 0.5638 0.0
C2681 C 0.53902 0.95237 0.59401 0.0
C2682 C 0.54238 0.93367 0.60759 0.0
C2683 C 0.54323 0.97534 0.54873 0.0
C2684 C 0.56166 0.99114 0.54391 0.0
C2685 C 0.52145 0.97808 0.53839 0.0
C2686 C 0.50133 0.9614 0.54024 0.0
C2687 C 0.49011 0.96258 0.56907 0.0
C2688 C 0.47018 0.94776 0.56991 0.0
C2689 C 0.4609 0.93226 0.5416 0.0
C2690 C 0.47156 0.93155 0.51245 0.0
C2691 C 0.49185 0.94588 0.51179 0.0
H2692 H 0.4453 0.921 0.54209 0.0
H2693 H 0.63267 0.06724 0.51658 0.0
H2694 H 0.31505 0.21534 0.9296 0.0
H2695 H 0.28191 0.21284 0.89058 0.0
H2696 H 0.32449 0.23364 0.81687 0.0
H2697 H 0.35719 0.23764 0.85665 0.0
H2698 H 0.29446 0.2534 0.81253 0.0
H2699 H 0.29267 0.17754 0.82105 0.0
H2700 H 0.29096 0.14377 0.84673 0.0
H2701 H 0.22564 0.14946 0.87452 0.0
H2702 H 0.22751 0.18419 0.85117 0.0
H2703 H 0.20642 0.22325 0.6738 0.0
H2704 H 0.23974 0.22393 0.71112 0.0
H2705 H 0.19982 0.22128 0.79358 0.0
H2706 H 0.16628 0.21998 0.756 0.0
H2707 H 0.22864 0.19212 0.79245 0.0
H2708 H 0.25931 0.28292 0.8104 0.0
H2709 H 0.27435 0.31697 0.78845 0.0
H2710 H 0.29012 0.27678 0.70097 0.0
H2711 H 0.27653 0.24267 0.72352 0.0
C2712 C 0.31723 0.21939 0.90505 0.0
C2713 C 0.33875 0.2269 0.89635 0.0
C2714 C 0.29823 0.21776 0.8825 0.0
C2715 C 0.30032 0.22277 0.85016 0.0
C2716 C 0.32201 0.22985 0.84151 0.0
C2717 C 0.34084 0.23216 0.86435 0.0
C2718 C 0.28024 0.22193 0.82574 0.0
C2719 C 0.28026 0.2397 0.80801 0.0
C2720 C 0.2613 0.20431 0.81957 0.0
C2721 C 0.26042 0.1838 0.83477 0.0
C2722 C 0.27813 0.17194 0.83331 0.0
C2723 C 0.27717 0.15265 0.8476 0.0
C2724 C 0.25831 0.14466 0.86265 0.0
C2725 C 0.2404 0.15595 0.86346 0.0
C2726 C 0.24147 0.17552 0.84987 0.0
C2727 C 0.20473 0.22296 0.69994 0.0
C2728 C 0.18355 0.22167 0.71176 0.0
C2729 C 0.22401 0.22377 0.72155 0.0
C2730 C 0.22281 0.22364 0.75583 0.0
C2731 C 0.20152 0.22181 0.76749 0.0
C2732 C 0.18222 0.22083 0.74583 0.0
C2733 C 0.24315 0.22348 0.77912 0.0
C2734 C 0.24299 0.20563 0.79702 0.0
C2735 C 0.26248 0.24058 0.78467 0.0
C2736 C 0.26554 0.26018 0.76763 0.0
C2737 C 0.26536 0.28137 0.78602 0.0
C2738 C 0.27426 0.30071 0.77396 0.0
C2739 C 0.283 0.29905 0.74317 0.0
C2740 C 0.28303 0.27806 0.72456 0.0
C2741 C 0.27472 0.2587 0.73699 0.0
H2742 H 0.28978 0.31402 0.73376 0.0
H2743 H 0.25751 0.12962 0.87344 0.0
H2744 H 0.71862 0.2391 0.81678 0.0
H2745 H 0.75367 0.24576 0.79238 0.0
H2746 H 0.74071 0.3092 0.77248 0.0
H2747 H 0.70596 0.30336 0.79891 0.0
H2748 H 0.74812 0.27021 0.7157 0.0
H2749 H 0.77918 0.31896 0.81766 0.0
H2750 H 0.78895 0.33055 0.87816 0.0
H2751 H 0.82533 0.27706 0.87985 0.0
H2752 H 0.81538 0.26486 0.81945 0.0
H2753 H 0.85453 0.29571 0.64875 0.0
H2754 H 0.81984 0.29724 0.67414 0.0
H2755 H 0.83345 0.2473 0.73188 0.0
H2756 H 0.86797 0.24545 0.70654 0.0
H2757 H 0.82565 0.28517 0.76976 0.0
H2758 H 0.79342 0.23422 0.67115 0.0
H2759 H 0.78188 0.2191 0.61184 0.0
H2760 H 0.74621 0.27254 0.60422 0.0
H2761 H 0.75798 0.2883 0.66331 0.0
C2762 C 0.72344 0.25483 0.80841 0.0
C2763 C 0.70956 0.27082 0.81037 0.0
C2764 C 0.74349 0.25855 0.79432 0.0
C2765 C 0.74975 0.27806 0.78116 0.0
C2766 C 0.73615 0.29419 0.78307 0.0
C2767 C 0.71631 0.29075 0.79805 0.0
C2768 C 0.76915 0.28001 0.76193 0.0
C2769 C 0.76519 0.27407 0.72726 0.0
C2770 C 0.79112 0.28415 0.77753 0.0
C2771 C 0.79626 0.29081 0.81409 0.0
C2772 C 0.78891 0.30942 0.83102 0.0
C2773 C 0.79458 0.31616 0.86528 0.0
C2774 C 0.80769 0.30451 0.88287 0.0
C2775 C 0.81512 0.28604 0.86623 0.0
C2776 C 0.80946 0.2792 0.83199 0.0
C2777 C 0.84998 0.28468 0.66622 0.0
C2778 C 0.86409 0.27036 0.67529 0.0
C2779 C 0.8301 0.28559 0.68073 0.0
C2780 C 0.82411 0.27231 0.70472 0.0
C2781 C 0.83783 0.25766 0.71331 0.0
C2782 C 0.85759 0.25664 0.69873 0.0
C2783 C 0.80471 0.27507 0.7233 0.0
C2784 C 0.80867 0.28178 0.75793 0.0
C2785 C 0.78269 0.27127 0.70764 0.0
C2786 C 0.77702 0.26273 0.67152 0.0
C2787 C 0.78357 0.24306 0.65666 0.0
C2788 C 0.77686 0.23429 0.6231 0.0
C2789 C 0.76343 0.24492 0.60421 0.0
C2790 C 0.75673 0.26439 0.61881 0.0
C2791 C 0.76347 0.27328 0.65231 0.0
H2792 H 0.75812 0.23801 0.5783 0.0
H2793 H 0.81215 0.30983 0.90937 0.0
H2794 H 0.85694 0.73692 0.35779 0.0
H2795 H 0.824 0.73406 0.319 0.0
H2796 H 0.78188 0.71219 0.3925 0.0
H2797 H 0.8151 0.71402 0.4309 0.0
H2798 H 0.76492 0.68985 0.33549 0.0
H2799 H 0.79062 0.76821 0.37381 0.0
H2800 H 0.81883 0.80293 0.38614 0.0
H2801 H 0.82915 0.79771 0.28257 0.0
H2802 H 0.80115 0.7628 0.26967 0.0
H2803 H 0.666 0.71718 0.26049 0.0
H2804 H 0.69874 0.71567 0.29743 0.0
H2805 H 0.74046 0.72481 0.21808 0.0
H2806 H 0.70758 0.72581 0.18061 0.0
H2807 H 0.75711 0.75373 0.27795 0.0
H2808 H 0.72952 0.67526 0.24074 0.0
H2809 H 0.70054 0.64114 0.2302 0.0
H2810 H 0.69265 0.64767 0.33466 0.0
H2811 H 0.72122 0.68216 0.34575 0.0
C2812 C 0.84065 0.73167 0.36583 0.0
C2813 C 0.83862 0.72601 0.39766 0.0
C2814 C 0.82176 0.73007 0.34359 0.0
C2815 C 0.80025 0.7235 0.35295 0.0
C2816 C 0.7982 0.71744 0.38459 0.0
C2817 C 0.81721 0.71854 0.40663 0.0
C2818 C 0.78002 0.72316 0.32982 0.0
C2819 C 0.76313 0.70397 0.32334 0.0
C2820 C 0.77763 0.7414 0.31335 0.0
C2821 C 0.79388 0.76282 0.32081 0.0
C2822 C 0.79893 0.77446 0.35367 0.0
C2823 C 0.81489 0.79416 0.36077 0.0
C2824 C 0.8258 0.8025 0.33516 0.0
C2825 C 0.82068 0.79122 0.30237 0.0
C2826 C 0.80473 0.7715 0.29514 0.0
C2827 C 0.68206 0.71843 0.25063 0.0
C2828 C 0.6842 0.72182 0.21762 0.0
C2829 C 0.70081 0.71769 0.27189 0.0
C2830 C 0.72211 0.72022 0.26061 0.0
C2831 C 0.72422 0.72297 0.2274 0.0
C2832 C 0.70542 0.72347 0.206 0.0
C2833 C 0.74219 0.72044 0.28369 0.0
C2834 C 0.75898 0.73965 0.29018 0.0
C2835 C 0.74431 0.70237 0.30052 0.0
C2836 C 0.72738 0.68142 0.29403 0.0
C2837 C 0.72147 0.66953 0.26144 0.0
C2838 C 0.7051 0.65014 0.25537 0.0
C2839 C 0.69466 0.64232 0.28173 0.0
C2840 C 0.70066 0.65382 0.31425 0.0
C2841 C 0.71695 0.6733 0.32044 0.0
H2842 H 0.68197 0.62731 0.27698 0.0
H2843 H 0.83821 0.81771 0.34071 0.0
H2844 H 0.50574 0.55614 0.63977 0.0
H2845 H 0.50728 0.52754 0.59372 0.0
H2846 H 0.56057 0.57146 0.55976 0.0
H2847 H 0.55583 0.60182 0.60341 0.0
H2848 H 0.53933 0.5504 0.50928 0.0
H2849 H 0.5638 0.52076 0.60513 0.0
H2850 H 0.56191 0.50856 0.65979 0.0
H2851 H 0.50178 0.46145 0.62235 0.0
H2852 H 0.50309 0.47361 0.5677 0.0
H2853 H 0.56588 0.45106 0.40656 0.0
H2854 H 0.56779 0.48409 0.4495 0.0
H2855 H 0.49966 0.4609 0.46643 0.0
H2856 H 0.49727 0.42853 0.4229 0.0
H2857 H 0.53213 0.47144 0.52469 0.0
H2858 H 0.50851 0.50149 0.42918 0.0
H2859 H 0.5107 0.51383 0.37478 0.0
H2860 H 0.5713 0.56017 0.41262 0.0
H2861 H 0.56978 0.54767 0.46701 0.0
C2862 C 0.51711 0.56022 0.62211 0.0
C2863 C 0.52982 0.58181 0.62516 0.0
C2864 C 0.51874 0.54328 0.59602 0.0
C2865 C 0.53462 0.54664 0.57329 0.0
C2866 C 0.54813 0.56807 0.57678 0.0
C2867 C 0.54558 0.58548 0.60212 0.0
C2868 C 0.53629 0.52817 0.54529 0.0
C2869 C 0.53834 0.53326 0.51307 0.0
C2870 C 0.53436 0.50542 0.54939 0.0
C2871 C 0.53349 0.49824 0.58239 0.0
C2872 C 0.5501 0.50791 0.60864 0.0
C2873 C 0.54912 0.50099 0.63962 0.0
C2874 C 0.53171 0.48428 0.64456 0.0
C2875 C 0.51524 0.47442 0.61852 0.0
C2876 C 0.5161 0.48132 0.58755 0.0
C2877 C 0.55114 0.45324 0.4188 0.0
C2878 C 0.53132 0.43719 0.41068 0.0
C2879 C 0.55229 0.47213 0.44346 0.0
C2880 C 0.53381 0.47508 0.46106 0.0
C2881 C 0.51407 0.45911 0.45303 0.0
C2882 C 0.51274 0.44058 0.42796 0.0
C2883 C 0.53523 0.49389 0.48934 0.0
C2884 C 0.53363 0.48875 0.52141 0.0
C2885 C 0.53789 0.51652 0.48518 0.0
C2886 C 0.53928 0.52327 0.45199 0.0
C2887 C 0.52256 0.51395 0.42572 0.0
C2888 C 0.52362 0.52107 0.39491 0.0
C2889 C 0.54119 0.53768 0.39017 0.0
C2890 C 0.55776 0.5472 0.41623 0.0
C2891 C 0.55683 0.54007 0.44703 0.0
H2892 H 0.54191 0.54326 0.36635 0.0
H2893 H 0.531 0.47893 0.66854 0.0
H2894 H 0.01065 0.5423 0.92944 0.0
H2895 H 0.01574 0.50968 0.95521 0.0
H2896 H 0.02831 0.5516 0.05197 0.0
H2897 H 0.02278 0.58398 0.02632 0.0
H2898 H 0.0621 0.52336 0.02983 0.0
H2899 H 0.98321 0.52179 0.04107 0.0
H2900 H 0.94406 0.51967 1.01961 0.0
H2901 H 0.9442 0.45648 0.9585 0.0
H2902 H 0.98363 0.45865 0.97895 0.0
H2903 H 0.02656 0.42412 0.12434 0.0
H2904 H 0.0207 0.458 0.10329 0.0
H2905 H 0.06529 0.44565 0.02827 0.0
H2906 H 0.07097 0.41171 0.04891 0.0
H2907 H 0.0026 0.45986 0.04071 0.0
H2908 H 0.09036 0.49471 1.01047 0.0
H2909 H 0.12976 0.49628 0.03034 0.0
H2910 H 0.11178 0.49285 0.12937 0.0
H2911 H 0.07231 0.49135 0.11008 0.0
C2912 C 0.01392 0.54424 0.95626 0.0
C2913 C 0.0159 0.56521 0.97626 0.0
C2914 C 0.01694 0.52579 0.97085 0.0
C2915 C 0.02228 0.52839 1.00539 0.0
C2916 C 0.0241 0.54939 0.02529 0.0
C2917 C 0.02081 0.56771 1.01078 0.0
C2918 C 0.02699 0.50944 1.02077 0.0
C2919 C 0.04913 0.50945 0.03227 0.0
C2920 C 0.01 0.49142 0.02372 0.0
C2921 C 0.9864 0.49042 1.01129 0.0
C2922 C 0.975 0.50759 1.02274 0.0
C2923 C 0.95274 0.50638 1.0108 0.0
C2924 C 0.94165 0.48797 0.98766 0.0
C2925 C 0.9528 0.47075 0.97638 0.0
C2926 C 0.97509 0.47196 0.98811 0.0
C2927 C 0.03522 0.42877 0.10353 0.0
C2928 C 0.04906 0.41528 0.08807 0.0
C2929 C 0.03188 0.44808 0.09157 0.0
C2930 C 0.04261 0.45431 0.06431 0.0
C2931 C 0.05707 0.44126 0.04958 0.0
C2932 C 0.06034 0.42192 0.06146 0.0
C2933 C 0.03774 0.4738 0.05016 0.0
C2934 C 0.01559 0.47381 0.0385 0.0
C2935 C 0.05475 0.49179 0.04687 0.0
C2936 C 0.0784 0.49275 0.05878 0.0
C2937 C 0.09485 0.49434 0.03649 0.0
C2938 C 0.11717 0.49518 0.04764 0.0
C2939 C 0.12326 0.49461 0.08108 0.0
C2940 C 0.10703 0.4932 0.10345 0.0
C2941 C 0.08467 0.49229 0.09241 0.0
H2942 H 0.14056 0.49529 0.08968 0.0
H2943 H 0.92441 0.48704 0.97852 0.0
H2944 H 0.0177 0.11652 0.30991 0.0
H2945 H 0.03541 0.13201 0.36654 0.0
H2946 H 0.07726 0.18379 0.32842 0.0
H2947 H 0.05792 0.16924 0.27304 0.0
H2948 H 0.10209 0.16713 0.37847 0.0
H2949 H 0.03472 0.19395 0.36601 0.0
H2950 H 0.99434 0.19035 0.35237 0.0
H2951 H 0.98172 0.1549 0.43368 0.0
H2952 H 0.02221 0.15802 0.44767 0.0
H2953 H 0.1485 0.22995 0.53819 0.0
H2954 H 0.13169 0.21636 0.48164 0.0
H2955 H 0.07118 0.18732 0.51868 0.0
H2956 H 0.08707 0.20518 0.57475 0.0
H2957 H 0.05594 0.19179 0.46669 0.0
H2958 H 0.12287 0.15849 0.47211 0.0
H2959 H 0.16337 0.15993 0.48292 0.0
H2960 H 0.17615 0.20537 0.41373 0.0
H2961 H 0.13573 0.2042 0.4026 0.0
C2962 C 0.03104 0.13096 0.31317 0.0
C2963 C 0.03724 0.14051 0.28492 0.0
C2964 C 0.04122 0.14 0.34614 0.0
C2965 C 0.05835 0.15919 0.35293 0.0
C2966 C 0.06469 0.1687 0.32489 0.0
C2967 C 0.05399 0.15988 0.29218 0.0
C2968 C 0.06872 0.16982 0.38887 0.0
C2969 C 0.09188 0.17255 0.39762 0.0
C2970 C 0.05592 0.17702 0.41493 0.0
C2971 C 0.0316 0.17608 0.40777 0.0
C2972 C 0.02341 0.18541 0.3811 0.0
C2973 C 0.00049 0.18342 0.37323 0.0
C2974 C 0.98551 0.17227 0.392 0.0
C2975 C 0.9934 0.16344 0.41908 0.0
C2976 C 0.01636 0.16535 0.42702 0.0
C2977 C 0.13171 0.22026 0.53463 0.0
C2978 C 0.12011 0.21718 0.56283 0.0
C2979 C 0.12194 0.21186 0.50136 0.0
C2980 C 0.10011 0.19876 0.49376 0.0
C2981 C 0.08819 0.19639 0.52201 0.0
C2982 C 0.09772 0.20595 0.5552 0.0
C2983 C 0.0896 0.18844 0.45725 0.0
C2984 C 0.0663 0.18598 0.44807 0.0
C2985 C 0.10223 0.18116 0.43074 0.0
C2986 C 0.12636 0.1813 0.43663 0.0
C2987 C 0.13435 0.16871 0.45915 0.0
C2988 C 0.15727 0.16951 0.46536 0.0
C2989 C 0.17232 0.18274 0.44903 0.0
C2990 C 0.16447 0.1951 0.42631 0.0
C2991 C 0.14157 0.19432 0.41996 0.0
H2992 H 0.19006 0.1834 0.45396 0.0
H2993 H 0.96781 0.17039 0.38536 0.0
H2994 H 0.19445 0.7897 0.45334 0.0
H2995 H 0.18734 0.80869 0.50762 0.0
H2996 H 0.1246 0.81955 0.46444 0.0
H2997 H 0.13228 0.80224 0.41074 0.0
H2998 H 0.14212 0.85365 0.50975 0.0
H2999 H 0.11962 0.7716 0.52691 0.0
H3000 H 0.12749 0.73325 0.52178 0.0
H3001 H 0.1958 0.75973 0.55926 0.0
H3002 H 0.18798 0.79805 0.56574 0.0
H3003 H 0.09119 0.87067 0.6617 0.0
H3004 H 0.09818 0.85446 0.60555 0.0
H3005 H 0.16219 0.84394 0.6448 0.0
H3006 H 0.15506 0.8595 0.70074 0.0
H3007 H 0.14211 0.80899 0.6009 0.0
H3008 H 0.15606 0.88882 0.60714 0.0
H3009 H 0.14632 0.92627 0.61573 0.0
H3010 H 0.09506 0.90553 0.53388 0.0
H3011 H 0.10438 0.86786 0.52498 0.0
C3012 C 0.17941 0.79665 0.45527 0.0
C3013 C 0.16385 0.79407 0.42728 0.0
C3014 C 0.1751 0.80704 0.48651 0.0
C3015 C 0.15487 0.81454 0.49055 0.0
C3016 C 0.14018 0.81358 0.46226 0.0
C3017 C 0.14472 0.80365 0.43109 0.0
C3018 C 0.14864 0.82298 0.52404 0.0
C3019 C 0.14201 0.84384 0.52964 0.0
C3020 C 0.14846 0.81031 0.55013 0.0
C3021 C 0.1534 0.78753 0.54561 0.0
C3022 C 0.13633 0.76912 0.5336 0.0
C3023 C 0.14074 0.74745 0.5307 0.0
C3024 C 0.16225 0.74411 0.53951 0.0
C3025 C 0.17922 0.76237 0.55206 0.0
C3026 C 0.17477 0.78403 0.55556 0.0
C3027 C 0.10662 0.86464 0.65833 0.0
C3028 C 0.12276 0.86667 0.68552 0.0
C3029 C 0.11066 0.85555 0.62624 0.0
C3030 C 0.1309 0.84837 0.62092 0.0
C3031 C 0.14655 0.84955 0.64827 0.0
C3032 C 0.14254 0.85862 0.68019 0.0
C3033 C 0.13627 0.83996 0.58699 0.0
C3034 C 0.14235 0.81892 0.58114 0.0
C3035 C 0.13605 0.85262 0.56087 0.0
C3036 C 0.13064 0.87537 0.56581 0.0
C3037 C 0.14257 0.89217 0.59117 0.0
C3038 C 0.13716 0.91346 0.59604 0.0
C3039 C 0.12 0.91824 0.57548 0.0
C3040 C 0.10829 0.90177 0.54988 0.0
C3041 C 0.11362 0.88044 0.54492 0.0
H3042 H 0.11584 0.93474 0.57929 0.0
H3043 H 0.16576 0.7274 0.5369 0.0
H3044 H 0.48666 0.85025 0.97237 0.0
H3045 H 0.50231 0.85951 0.92127 0.0
H3046 H 0.45182 0.80804 0.86253 0.0
H3047 H 0.43667 0.79865 0.91358 0.0
H3048 H 0.48596 0.80689 0.83299 0.0
H3049 H 0.45403 0.87028 0.87418 0.0
H3050 H 0.44834 0.90303 0.91331 0.0
H3051 H 0.5171 0.93337 0.91408 0.0
H3052 H 0.52327 0.90067 0.87534 0.0
H3053 H 0.51309 0.8322 0.67739 0.0
H3054 H 0.49166 0.83002 0.72526 0.0
H3055 H 0.53923 0.88459 0.78277 0.0
H3056 H 0.5564 0.89097 0.73174 0.0
H3057 H 0.50527 0.885 0.81344 0.0
H3058 H 0.53876 0.82002 0.78193 0.0
H3059 H 0.54409 0.7988 0.72821 0.0
H3060 H 0.47334 0.77422 0.70956 0.0
H3061 H 0.46778 0.79543 0.7629 0.0
C3062 C 0.47933 0.84042 0.94861 0.0
C3063 C 0.46076 0.82305 0.9476 0.0
C3064 C 0.48801 0.84611 0.91901 0.0
C3065 C 0.47821 0.83498 0.88701 0.0
C3066 C 0.46003 0.8172 0.88624 0.0
C3067 C 0.45142 0.81153 0.91575 0.0
C3068 C 0.48688 0.8412 0.85452 0.0
C3069 C 0.48978 0.82406 0.82904 0.0
C3070 C 0.4927 0.86356 0.84817 0.0
C3071 C 0.48916 0.8829 0.87218 0.0
C3072 C 0.46799 0.88382 0.883 0.0
C3073 C 0.46467 0.9024 0.90504 0.0
C3074 C 0.48237 0.92023 0.91626 0.0
C3075 C 0.50342 0.91952 0.90545 0.0
C3076 C 0.50684 0.90097 0.88346 0.0
C3077 C 0.51811 0.84472 0.69943 0.0
C3078 C 0.53582 0.86259 0.69921 0.0
C3079 C 0.50652 0.84265 0.72801 0.0
C3080 C 0.51426 0.85597 0.75961 0.0
C3081 C 0.53246 0.8736 0.75965 0.0
C3082 C 0.54262 0.8771 0.73009 0.0
C3083 C 0.50448 0.85069 0.79227 0.0
C3084 C 0.50134 0.8679 0.81765 0.0
C3085 C 0.49875 0.82851 0.79918 0.0
C3086 C 0.50283 0.80962 0.77561 0.0
C3087 C 0.52453 0.80928 0.76685 0.0
C3088 C 0.52757 0.79758 0.7361 0.0
C3089 C 0.5091 0.78579 0.71469 0.0
C3090 C 0.48774 0.7837 0.72548 0.0
C3091 C 0.4846 0.79541 0.7562 0.0
H3092 H 0.51154 0.77832 0.68985 0.0
H3093 H 0.47974 0.93463 0.93325 0.0
H3094 H 0.4819 0.14671 0.38403 0.0
H3095 H 0.46178 0.15405 0.33481 0.0
H3096 H 0.46959 0.09051 0.28109 0.0
H3097 H 0.48919 0.08264 0.33111 0.0
H3098 H 0.48846 0.13028 0.25449 0.0
H3099 H 0.41656 0.09446 0.28609 0.0
H3100 H 0.38415 0.08826 0.31837 0.0
H3101 H 0.38118 0.15806 0.33023 0.0
H3102 H 0.41324 0.16451 0.29721 0.0
H3103 H 0.42997 0.11851 0.09597 0.0
H3104 H 0.44703 0.11604 0.15086 0.0
H3105 H 0.41628 0.16983 0.1951 0.0
H3106 H 0.39927 0.17239 0.1402 0.0
H3107 H 0.41071 0.14041 0.23009 0.0
H3108 H 0.47502 0.17472 0.18787 0.0
H3109 H 0.50441 0.18208 0.15067 0.0
H3110 H 0.52376 0.11947 0.1599 0.0
H3111 H 0.49423 0.11152 0.19672 0.0
C3112 C 0.4786 0.1338 0.36248 0.0
C3113 C 0.48706 0.11392 0.36192 0.0
C3114 C 0.46711 0.13813 0.33409 0.0
C3115 C 0.46419 0.12283 0.30431 0.0
C3116 C 0.4716 0.10251 0.30395 0.0
C3117 C 0.48276 0.09802 0.33255 0.0
C3118 C 0.45624 0.12923 0.27267 0.0
C3119 C 0.47138 0.13221 0.2488 0.0
C3120 C 0.43445 0.13318 0.26626 0.0
C3121 C 0.4174 0.12998 0.2897 0.0
C3122 C 0.40919 0.10851 0.29605 0.0
C3123 C 0.39068 0.1049 0.31398 0.0
C3124 C 0.38054 0.12274 0.32619 0.0
C3125 C 0.38899 0.14426 0.32067 0.0
C3126 C 0.40726 0.14788 0.30225 0.0
C3127 C 0.42705 0.12995 0.11742 0.0
C3128 C 0.41327 0.14562 0.11384 0.0
C3129 C 0.43707 0.12875 0.14876 0.0
C3130 C 0.43357 0.14323 0.17719 0.0
C3131 C 0.41979 0.1589 0.17355 0.0
C3132 C 0.40998 0.16029 0.14217 0.0
C3133 C 0.44265 0.14064 0.21089 0.0
C3134 C 0.4279 0.13872 0.23549 0.0
C3135 C 0.465 0.13816 0.21814 0.0
C3136 C 0.48226 0.14247 0.19495 0.0
C3137 C 0.48536 0.1624 0.18171 0.0
C3138 C 0.50208 0.16669 0.16073 0.0
C3139 C 0.51592 0.15124 0.15292 0.0
C3140 C 0.51301 0.13141 0.16596 0.0
C3141 C 0.49628 0.12701 0.1869 0.0
H3142 H 0.52893 0.15468 0.13687 0.0
H3143 H 0.36625 0.11991 0.34018 0.0
H3144 H 0.8815 0.7854 0.54171 0.0
H3145 H 0.90289 0.81 0.59108 0.0
H3146 H 0.95663 0.77344 0.58014 0.0
H3147 H 0.93578 0.74953 0.531 0.0
H3148 H 0.93715 0.77451 0.64218 0.0
H3149 H 0.98112 0.82741 0.58533 0.0
H3150 H 0.99241 0.85605 0.55077 0.0
H3151 H 0.93945 0.88942 0.58203 0.0
H3152 H 0.92859 0.86145 0.61805 0.0
H3153 H 0.02497 0.84705 0.75971 0.0
H3154 H 0.0022 0.82335 0.71146 0.0
H3155 H 0.94722 0.85632 0.7338 0.0
H3156 H 0.9703 0.88039 0.78181 0.0
H3157 H 0.96611 0.85603 0.66753 0.0
H3158 H 0.9269 0.80174 0.73085 0.0
H3159 H 0.91965 0.77222 0.76493 0.0
H3160 H 0.96968 0.74001 0.72057 0.0
H3161 H 0.97578 0.76838 0.68383 0.0
C3162 C 0.89818 0.78318 0.54926 0.0
C3163 C 0.90722 0.76596 0.53182 0.0
C3164 C 0.9104 0.79724 0.57735 0.0
C3165 C 0.93149 0.79373 0.58898 0.0
C3166 C 0.94063 0.77677 0.57124 0.0
C3167 C 0.92869 0.76315 0.5429 0.0
C3168 C 0.9423 0.80513 0.6223 0.0
C3169 C 0.94369 0.79234 0.64765 0.0
C3170 C 0.95057 0.82829 0.62967 0.0
C3171 C 0.95374 0.84216 0.60359 0.0
C3172 C 0.97162 0.84061 0.58423 0.0
C3173 C 0.97826 0.85699 0.56504 0.0
C3174 C 0.96667 0.87458 0.56426 0.0
C3175 C 0.94838 0.87578 0.58263 0.0
C3176 C 0.94206 0.85975 0.60259 0.0
C3177 C 0.00768 0.84853 0.7553 0.0
C3178 C -0.00122 0.86425 0.77642 0.0
C3179 C 0.9947 0.83498 0.72766 0.0
C3180 C 0.97258 0.83711 0.72015 0.0
C3181 C 0.96388 0.85354 0.74023 0.0
C3182 C 0.977 0.8672 0.76787 0.0
C3183 C 0.96053 0.82557 0.68769 0.0
C3184 C 0.95919 0.83828 0.66228 0.0
C3185 C 0.9529 0.80221 0.68013 0.0
C3186 C 0.95239 0.78763 0.7056 0.0
C3187 C 0.9368 0.78873 0.72904 0.0
C3188 C 0.93273 0.77205 0.74856 0.0
C3189 C 0.9449 0.75478 0.74609 0.0
C3190 C 0.96062 0.75369 0.72304 0.0
C3191 C 0.9642 0.76991 0.70255 0.0
H3192 H 0.94182 0.742 0.76151 0.0
H3193 H 0.97177 0.8872 0.54923 0.0
H3194 H 0.94606 0.22812 0.58197 0.0
H3195 H 0.94867 0.20105 0.53299 0.0
H3196 H 0.87707 0.18889 0.51139 0.0
H3197 H 0.87443 0.21559 0.56117 0.0
H3198 H 0.89122 0.15233 0.49116 0.0
H3199 H 0.90943 0.22749 0.47833 0.0
H3200 H 0.92685 0.26685 0.48214 0.0
H3201 H 0.9892 0.24784 0.46094 0.0
H3202 H 0.97244 0.20829 0.45823 0.0
H3203 H 0.91574 0.13919 0.30734 0.0
H3204 H 0.90756 0.16145 0.35892 0.0
H3205 H 0.94283 0.12329 0.41706 0.0
H3206 H 0.95073 0.10093 0.36601 0.0
H3207 H 0.94137 0.18569 0.4146 0.0
H3208 H 0.9126 0.1052 0.44487 0.0
H3209 H 0.88638 0.06953 0.42546 0.0
H3210 H 0.83507 0.10529 0.39987 0.0
H3211 H 0.86121 0.1411 0.41842 0.0
C3212 C 0.93082 0.2189 0.56776 0.0
C3213 C 0.91 0.22371 0.57546 0.0
C3214 C 0.93235 0.20368 0.53945 0.0
C3215 C 0.91311 0.19346 0.51814 0.0
C3216 C 0.89213 0.19672 0.52743 0.0
C3217 C 0.89061 0.21186 0.55588 0.0
C3218 C 0.91503 0.1812 0.48478 0.0
C3219 C 0.90248 0.15958 0.47474 0.0
C3220 C 0.92875 0.19102 0.46242 0.0
C3221 C 0.93973 0.21489 0.46874 0.0
C3222 C 0.92707 0.23171 0.47566 0.0
C3223 C 0.9369 0.25413 0.47766 0.0
C3224 C 0.95936 0.25996 0.47266 0.0
C3225 C 0.97205 0.24337 0.46582 0.0
C3226 C 0.96239 0.22095 0.46407 0.0
C3227 C 0.92183 0.13574 0.33121 0.0
C3228 C 0.93361 0.11826 0.33293 0.0
C3229 C 0.91696 0.14822 0.36046 0.0
C3230 C 0.92386 0.14327 0.39153 0.0
C3231 C 0.93657 0.12661 0.39321 0.0
C3232 C 0.9413 0.1141 0.36415 0.0
C3233 C 0.91927 0.1564 0.42259 0.0
C3234 C 0.93088 0.17831 0.43178 0.0
C3235 C 0.90428 0.1472 0.44365 0.0
C3236 C 0.88888 0.12568 0.43249 0.0
C3237 C 0.89582 0.10539 0.43471 0.0
C3238 C 0.88096 0.08518 0.42392 0.0
C3239 C 0.85909 0.08514 0.41131 0.0
C3240 C 0.85203 0.10532 0.40947 0.0
C3241 C 0.86687 0.12555 0.42 0.0
H3242 H 0.8476 0.06948 0.40308 0.0
H3243 H 0.96691 0.27723 0.47341 0.0
H3244 H 0.61186 0.1415 0.98955 0.0
H3245 H 0.60105 0.13827 0.04552 0.0
H3246 H 0.64436 0.20129 0.08493 0.0
H3247 H 0.65521 0.20456 0.02897 0.0
H3248 H 0.65059 0.16511 0.11759 0.0
H3249 H 0.592 0.20012 0.07903 0.0
H3250 H 0.5612 0.20387 0.03945 0.0
H3251 H 0.52349 0.14167 0.05566 0.0
H3252 H 0.55464 0.13688 0.09402 0.0
H3253 H 0.6251 0.16991 0.28071 0.0
H3254 H 0.62834 0.18118 0.22609 0.0
H3255 H 0.57648 0.12525 0.18222 0.0
H3256 H 0.5724 0.11485 0.23751 0.0
H3257 H 0.57384 0.15969 0.15172 0.0
H3258 H 0.63204 0.12145 0.18259 0.0
H3259 H 0.66307 0.11424 0.21882 0.0
H3260 H 0.70075 0.1791 0.21449 0.0
H3261 H 0.6698 0.18681 0.17858 0.0
C3262 C 0.61899 0.15464 1.01022 0.0
C3263 C 0.63436 0.17325 1.00526 0.0
C3264 C 0.61268 0.15289 0.04196 0.0
C3265 C 0.6218 0.16966 0.06904 0.0
C3266 C 0.63708 0.18831 0.06413 0.0
C3267 C 0.6432 0.19017 0.03234 0.0
C3268 C 0.61656 0.16695 0.10289 0.0
C3269 C 0.63391 0.16434 0.12532 0.0
C3270 C 0.5946 0.16516 0.11221 0.0
C3271 C 0.57577 0.16806 0.08926 0.0
C3272 C 0.57727 0.18708 0.07387 0.0
C3273 C 0.55973 0.1894 0.05162 0.0
C3274 C 0.54032 0.17311 0.04515 0.0
C3275 C 0.53852 0.1543 0.06069 0.0
C3276 C 0.55619 0.15171 0.08255 0.0
C3277 C 0.6142 0.16036 0.25937 0.0
C3278 C 0.59875 0.14149 0.26271 0.0
C3279 C 0.61606 0.16669 0.22831 0.0
C3280 C 0.60307 0.15367 0.20004 0.0
C3281 C 0.58676 0.13541 0.20372 0.0
C3282 C 0.58454 0.12939 0.23505 0.0
C3283 C 0.60794 0.15797 0.16653 0.0
C3284 C 0.59055 0.1607 0.14409 0.0
C3285 C 0.62983 0.15943 0.1568 0.0
C3286 C 0.64853 0.15478 0.17818 0.0
C3287 C 0.64689 0.13422 0.18955 0.0
C3288 C 0.66446 0.13004 0.21 0.0
C3289 C 0.68384 0.14623 0.21902 0.0
C3290 C 0.68571 0.1666 0.20753 0.0
C3291 C 0.66817 0.17088 0.18711 0.0
H3292 H 0.69743 0.14296 0.23486 0.0
H3293 H 0.5267 0.17504 0.02808 0.0
H3294 H 0.62472 0.83766 0.77764 0.0
H3295 H 0.62265 0.83323 0.83534 0.0
H3296 H 0.64411 0.90425 0.86678 0.0
H3297 H 0.64512 0.90917 0.80839 0.0
H3298 H 0.67053 0.87554 0.89461 0.0
H3299 H 0.59588 0.88637 0.88525 0.0
H3300 H 0.55762 0.88204 0.85839 0.0
H3301 H 0.54705 0.81152 0.85916 0.0
H3302 H 0.58538 0.81528 0.88561 0.0
H3303 H 0.674 0.8359 0.0476 0.0
H3304 H 0.66189 0.85956 1.00962 0.0
H3305 H 0.62946 0.80076 0.94041 0.0
H3306 H 0.64118 0.77706 0.97849 0.0
H3307 H 0.60614 0.83514 0.94192 0.0
H3308 H 0.6821 0.82263 0.9354 0.0
H3309 H 0.72126 0.82451 0.95661 0.0
H3310 H 0.73049 0.896 0.9801 0.0
H3311 H 0.69122 0.89448 0.95956 0.0
C3312 C 0.62833 0.85251 0.79659 0.0
C3313 C 0.63509 0.87381 0.78839 0.0
C3314 C 0.62716 0.8499 0.82958 0.0
C3315 C 0.633 0.86846 0.85504 0.0
C3316 C 0.63941 0.88982 0.84721 0.0
C3317 C 0.64022 0.89252 0.81398 0.0
C3318 C 0.63492 0.86465 0.88961 0.0
C3319 C 0.65641 0.86748 0.90576 0.0
C3320 C 0.61649 0.85364 0.90331 0.0
C3321 C 0.59347 0.85114 0.88747 0.0
C3322 C 0.58544 0.86992 0.87956 0.0
C3323 C 0.56379 0.86758 0.86447 0.0
C3324 C 0.55005 0.84656 0.85732 0.0
C3325 C 0.55782 0.82778 0.86496 0.0
C3326 C 0.57947 0.83002 0.88005 0.0
C3327 C 0.6638 0.82808 0.02465 0.0
C3328 C 0.65884 0.80472 1.01549 0.0
C3329 C 0.65696 0.84159 1.00306 0.0
C3330 C 0.64513 0.83183 0.97218 0.0
C3331 C 0.63867 0.80854 0.96418 0.0
C3332 C 0.64555 0.79504 0.98568 0.0
C3333 C 0.64185 0.84541 0.94633 0.0
C3334 C 0.62016 0.84419 0.93173 0.0
C3335 C 0.6602 0.85758 0.93366 0.0
C3336 C 0.68363 0.85841 0.94663 0.0
C3337 C 0.69239 0.83872 0.94554 0.0
C3338 C 0.71462 0.83972 0.95735 0.0
C3339 C 0.72832 0.86035 0.96988 0.0
C3340 C 0.71983 0.88002 0.97056 0.0
C3341 C 0.69758 0.8791 0.9589 0.0
H3342 H 0.74555 0.86111 0.97892 0.0
H3343 H 0.53341 0.84486 0.84592 0.0
H3344 H 0.52785 0.61311 0.81192 0.0
H3345 H 0.54464 0.62908 0.86874 0.0
H3346 H 0.56515 0.69247 0.8381 0.0
H3347 H 0.54646 0.67687 0.78221 0.0
H3348 H 0.60034 0.67923 0.88251 0.0
H3349 H 0.52353 0.69026 0.88668 0.0
H3350 H 0.48315 0.67565 0.87454 0.0
H3351 H 0.48869 0.62438 0.93319 0.0
H3352 H 0.52914 0.63892 0.94599 0.0
H3353 H 0.64194 0.73742 0.04507 0.0
H3354 H 0.62457 0.72425 0.98934 0.0
H3355 H 0.57159 0.68218 0.02644 0.0
H3356 H 0.58649 0.70075 0.08292 0.0
H3357 H 0.55292 0.6831 0.97586 0.0
H3358 H 0.62837 0.66864 0.97146 0.0
H3359 H 0.66947 0.67879 0.98023 0.0
H3360 H 0.66829 0.72964 0.9195 0.0
H3361 H 0.62721 0.71977 0.91039 0.0
C3362 C 0.53628 0.63041 0.8168 0.0
C3363 C 0.53675 0.64304 0.79052 0.0
C3364 C 0.54588 0.63969 0.84991 0.0
C3365 C 0.55676 0.66223 0.85885 0.0
C3366 C 0.55743 0.67497 0.83274 0.0
C3367 C 0.54713 0.66576 0.79981 0.0
C3368 C 0.56674 0.67236 0.89516 0.0
C3369 C 0.58986 0.68024 0.90282 0.0
C3370 C 0.55374 0.67336 0.92276 0.0
C3371 C 0.5293 0.66557 0.9171 0.0
C3372 C 0.51609 0.6759 0.89703 0.0
C3373 C 0.49322 0.66758 0.88993 0.0
C3374 C 0.48339 0.64887 0.90267 0.0
C3375 C 0.49636 0.63874 0.9231 0.0
C3376 C 0.51923 0.64712 0.93049 0.0
C3377 C 0.62689 0.72481 0.04177 0.0
C3378 C 0.61736 0.71838 0.07021 0.0
C3379 C 0.61691 0.7166 1.00873 0.0
C3380 C 0.5973 0.69994 1.00107 0.0
C3381 C 0.58721 0.69395 0.02964 0.0
C3382 C 0.59652 0.70363 0.06307 0.0
C3383 C 0.58713 0.68997 0.96418 0.0
C3384 C 0.56378 0.6821 0.95612 0.0
C3385 C 0.60011 0.68827 0.93615 0.0
C3386 C 0.62477 0.69355 0.94043 0.0
C3387 C 0.63692 0.68192 0.9599 0.0
C3388 C 0.66019 0.68765 0.96496 0.0
C3389 C 0.67147 0.70488 0.95048 0.0
C3390 C 0.65953 0.71629 0.93067 0.0
C3391 C 0.63627 0.71059 0.92545 0.0
H3392 H 0.68947 0.70937 0.95459 0.0
H3393 H 0.46569 0.64239 0.89708 0.0
H3394 H 0.62508 0.39458 0.16574 0.0
H3395 H 0.63059 0.37806 0.10943 0.0
H3396 H 0.60869 0.3122 0.13223 0.0
H3397 H 0.60317 0.32879 0.18883 0.0
H3398 H 0.64361 0.31193 0.102 0.0
H3399 H 0.57563 0.33576 0.07643 0.0
H3400 H 0.54876 0.36132 0.07767 0.0
H3401 H 0.59352 0.40649 0.03201 0.0
H3402 H 0.62077 0.38126 0.03086 0.0
H3403 H 0.63294 0.26098 0.93111 0.0
H3404 H 0.62102 0.27755 0.98338 0.0
H3405 H 0.66933 0.33753 0.98445 0.0
H3406 H 0.68219 0.3202 0.93274 0.0
H3407 H 0.6182 0.33922 1.00031 0.0
H3408 H 0.68618 0.31149 0.02738 0.0
H3409 H 0.70933 0.28245 0.0248 0.0
H3410 H 0.65952 0.24064 0.06762 0.0
H3411 H 0.63564 0.26904 0.0691 0.0
C3412 C 0.62125 0.37658 0.15859 0.0
C3413 C 0.61375 0.36296 0.18159 0.0
C3414 C 0.62416 0.36714 0.12629 0.0
C3415 C 0.61956 0.34386 0.11621 0.0
C3416 C 0.61196 0.33021 0.13918 0.0
C3417 C 0.60879 0.33968 0.17147 0.0
C3418 C 0.62413 0.33391 0.08246 0.0
C3419 C 0.63773 0.31771 0.07979 0.0
C3420 C 0.61662 0.34146 0.05333 0.0
C3421 C 0.60032 0.35671 0.05389 0.0
C3422 C 0.57982 0.35123 0.06695 0.0
C3423 C 0.5645 0.36563 0.06755 0.0
C3424 C 0.56946 0.38555 0.05501 0.0
C3425 C 0.58972 0.39106 0.04174 0.0
C3426 C 0.60508 0.37669 0.04105 0.0
C3427 C 0.64045 0.278 0.9418 0.0
C3428 C 0.65735 0.29 0.92655 0.0
C3429 C 0.63378 0.28733 0.97182 0.0
C3430 C 0.64397 0.30889 0.98727 0.0
C3431 C 0.66092 0.32103 0.97229 0.0
C3432 C 0.66801 0.31134 0.94253 0.0
C3433 C 0.63801 0.31784 1.02037 0.0
C3434 C 0.624 0.3336 1.02271 0.0
C3435 C 0.64466 0.30948 0.04908 0.0
C3436 C 0.65894 0.29227 0.0478 0.0
C3437 C 0.67995 0.29593 0.0356 0.0
C3438 C 0.69323 0.27957 0.03437 0.0
C3439 C 0.68582 0.2596 0.04575 0.0
C3440 C 0.66514 0.25599 0.05845 0.0
C3441 C 0.65171 0.27219 0.05942 0.0
H3442 H 0.69617 0.247 0.04494 0.0
H3443 H 0.55758 0.39669 0.05551 0.0
H3444 H 0.05073 0.39382 0.22315 0.0
H3445 H 0.03111 0.39236 0.27277 0.0
H3446 H 0.98959 0.33055 0.22476 0.0
H3447 H 0.00917 0.33213 0.17531 0.0
H3448 H 0.96517 0.34998 0.26772 0.0
H3449 H 0.04608 0.3383 0.30111 0.0
H3450 H 0.08607 0.35382 0.30556 0.0
H3451 H 0.07377 0.41808 0.34866 0.0
H3452 H 0.03348 0.40234 0.34504 0.0
H3453 H 0.93341 0.29783 0.40409 0.0
H3454 H 0.95019 0.30843 0.35501 0.0
H3455 H 0.99216 0.36557 0.41664 0.0
H3456 H 0.97568 0.35434 0.46625 0.0
H3457 H 0.01522 0.35548 0.37079 0.0
H3458 H 0.94367 0.37218 0.35665 0.0
H3459 H 0.90287 0.36652 0.35841 0.0
H3460 H 0.89479 0.30633 0.28659 0.0
H3461 H 0.9355 0.31147 0.28514 0.0
C3462 C 0.03705 0.38001 0.22281 0.0
C3463 C 0.03133 0.36347 0.19395 0.0
C3464 C 0.02606 0.37881 0.25209 0.0
C3465 C 0.00923 0.36048 0.2548 0.0
C3466 C 0.00256 0.34472 0.22509 0.0
C3467 C 0.01357 0.34593 0.1957 0.0
C3468 C -0.00042 0.35708 0.28825 0.0
C3469 C 0.97636 0.35069 0.28984 0.0
C3470 C 0.01311 0.35994 0.31915 0.0
C3471 C 0.03704 0.36923 0.32211 0.0
C3472 C 0.05201 0.35571 0.31103 0.0
C3473 C 0.0747 0.3646 0.31345 0.0
C3474 C 0.08254 0.3871 0.32687 0.0
C3475 C 0.06765 0.40072 0.338 0.0
C3476 C 0.04493 0.39174 0.33613 0.0
C3477 C 0.94658 0.31242 0.40746 0.0
C3478 C 0.95322 0.32491 0.43974 0.0
C3479 C 0.95596 0.31886 0.37892 0.0
C3480 C 0.97217 0.33848 0.38091 0.0
C3481 C 0.97963 0.35049 0.41345 0.0
C3482 C 0.97029 0.3439 0.44222 0.0
C3483 C 0.98111 0.34611 0.34928 0.0
C3484 C 0.00405 0.35403 0.34841 0.0
C3485 C 0.96711 0.34573 0.31965 0.0
C3486 C 0.9426 0.3424 0.32024 0.0
C3487 C 0.93315 0.35778 0.34117 0.0
C3488 C 0.91005 0.35463 0.34224 0.0
C3489 C 0.89622 0.33615 0.32247 0.0
C3490 C 0.90549 0.32075 0.30168 0.0
C3491 C 0.92859 0.32384 0.30056 0.0
H3492 H 0.87834 0.33371 0.32336 0.0
H3493 H 0.10015 0.39387 0.32962 0.0
H3494 H 0.97359 0.63417 0.88297 0.0
H3495 H 0.9565 0.64276 0.83234 0.0
H3496 H 0.98107 0.58898 0.7753 0.0
H3497 H 0.99666 0.5792 0.82694 0.0
H3498 H 0.99205 0.63979 0.7612 0.0
H3499 H 0.93495 0.5768 0.77098 0.0
H3500 H 0.90649 0.55474 0.79837 0.0
H3501 H 0.87091 0.60916 0.81077 0.0
H3502 H 0.89961 0.63186 0.78448 0.0
H3503 H 0.93633 0.63179 0.59799 0.0
H3504 H 0.95574 0.6278 0.65087 0.0
H3505 H 0.91136 0.66395 0.70478 0.0
H3506 H 0.89208 0.668 0.65185 0.0
H3507 H 0.91132 0.62383 0.72219 0.0
H3508 H 0.96623 0.68643 0.71065 0.0
H3509 H 0.99364 0.70923 0.68241 0.0
H3510 H 0.03271 0.65754 0.67317 0.0
H3511 H 0.00548 0.63432 0.70115 0.0
C3512 C 0.97434 0.62344 0.86015 0.0
C3513 C 0.98585 0.60566 0.85958 0.0
C3514 C 0.96498 0.62865 0.83098 0.0
C3515 C 0.9677 0.61658 0.80021 0.0
C3516 C 0.97886 0.59849 0.79902 0.0
C3517 C 0.98754 0.59282 0.82855 0.0
C3518 C 0.95934 0.62346 0.76945 0.0
C3519 C 0.97446 0.63603 0.75218 0.0
C3520 C 0.93632 0.61939 0.75895 0.0
C3521 C 0.91962 0.60615 0.77618 0.0
C3522 C 0.92132 0.58424 0.78015 0.0
C3523 C 0.90507 0.57157 0.79532 0.0
C3524 C 0.88686 0.58052 0.80621 0.0
C3525 C 0.88499 0.60224 0.80225 0.0
C3526 C 0.9013 0.61505 0.78736 0.0
C3527 C 0.93107 0.63915 0.62124 0.0
C3528 C 0.91272 0.64997 0.62126 0.0
C3529 C 0.94222 0.63707 0.65133 0.0
C3530 C 0.93503 0.64567 0.68172 0.0
C3531 C 0.91721 0.65729 0.68159 0.0
C3532 C 0.90621 0.65955 0.65151 0.0
C3533 C 0.944 0.63987 0.71318 0.0
C3534 C 0.92895 0.62766 0.73096 0.0
C3535 C 0.96706 0.64446 0.72417 0.0
C3536 C 0.98359 0.65847 0.70754 0.0
C3537 C 0.98055 0.67981 0.70232 0.0
C3538 C 0.99609 0.69284 0.68643 0.0
C3539 C 0.01478 0.68472 0.67574 0.0
C3540 C 0.01816 0.66373 0.68133 0.0
C3541 C 0.0027 0.65065 0.69726 0.0
H3542 H 0.02668 0.69473 0.66321 0.0
H3543 H 0.87424 0.57065 0.81781 0.0
H3544 H 0.51352 0.39227 0.24295 0.0
H3545 H 0.49577 0.36906 0.19111 0.0
H3546 H 0.45997 0.3227 0.24651 0.0
H3547 H 0.48141 0.34332 0.29668 0.0
H3548 H 0.46657 0.29939 0.19695 0.0
H3549 H 0.43818 0.37054 0.20375 0.0
H3550 H 0.44487 0.41163 0.20886 0.0
H3551 H 0.48082 0.40764 0.12225 0.0
H3552 H 0.47435 0.36657 0.1167 0.0
H3553 H 0.37397 0.25607 0.06735 0.0
H3554 H 0.3948 0.27843 0.11886 0.0
H3555 H 0.44942 0.30012 0.0636 0.0
H3556 H 0.42958 0.2774 1.01423 0.0
H3557 H 0.43349 0.33543 0.10999 0.0
H3558 H 0.46697 0.26817 0.10641 0.0
H3559 H 0.46292 0.22709 0.09787 0.0
H3560 H 0.41688 0.22399 0.17227 0.0
H3561 H 0.42158 0.2651 0.18245 0.0
C3562 C 0.5016 0.37731 0.24417 0.0
C3563 C 0.49775 0.37063 0.275 0.0
C3564 C 0.49117 0.36403 0.21426 0.0
C3565 C 0.47526 0.34454 0.21437 0.0
C3566 C 0.47163 0.33782 0.24511 0.0
C3567 C 0.48329 0.35025 0.27455 0.0
C3568 C 0.46241 0.33105 0.18296 0.0
C3569 C 0.45904 0.30749 0.17849 0.0
C3570 C 0.4531 0.3411 0.15758 0.0
C3571 C 0.45579 0.36559 0.15985 0.0
C3572 C 0.44737 0.37847 0.1857 0.0
C3573 C 0.45118 0.40173 0.18871 0.0
C3574 C 0.46326 0.41223 0.16589 0.0
C3575 C 0.47142 0.39949 0.13985 0.0
C3576 C 0.46762 0.37623 0.13668 0.0
C3577 C 0.39026 0.26591 0.06604 0.0
C3578 C 0.3997 0.26524 0.03549 0.0
C3579 C 0.40219 0.27854 0.09557 0.0
C3580 C 0.42363 0.29104 0.09494 0.0
C3581 C 0.43283 0.29079 0.06473 0.0
C3582 C 0.42118 0.27779 0.03587 0.0
C3583 C 0.43682 0.30433 0.12552 0.0
C3584 C 0.44062 0.32765 0.12923 0.0
C3585 C 0.44658 0.29414 0.14995 0.0
C3586 C 0.44467 0.2696 0.14527 0.0
C3587 C 0.45621 0.25869 0.12122 0.0
C3588 C 0.45389 0.23543 0.1162 0.0
C3589 C 0.43983 0.22294 0.13474 0.0
C3590 C 0.42808 0.23369 0.15834 0.0
C3591 C 0.43073 0.25697 0.164 0.0
H3592 H 0.43803 0.20494 0.13081 0.0
H3593 H 0.46631 0.43025 0.16838 0.0
H3594 H 0.37241 0.71182 0.07635 0.0
H3595 H 0.37085 0.68706 1.02256 0.0
H3596 H 0.44181 0.70784 1.02179 0.0
H3597 H 0.44328 0.73143 0.07575 0.0
H3598 H 0.40082 0.71679 0.96731 0.0
H3599 H 0.44475 0.6677 1.01359 0.0
H3600 H 0.45529 0.64048 0.04704 0.0
H3601 H 0.39073 0.59877 1.01921 0.0
H3602 H 0.37994 0.62577 0.98521 0.0
H3603 H 0.45043 0.65706 0.83542 0.0
H3604 H 0.43715 0.6818 0.87926 0.0
H3605 H 0.37759 0.63225 0.87689 0.0
H3606 H 0.39125 0.60729 0.83405 0.0
H3607 H 0.40696 0.63774 0.93231 0.0
H3608 H 0.37512 0.68377 0.86587 0.0
H3609 H 0.37496 0.70863 0.82422 0.0
H3610 H 0.42451 0.7583 0.88705 0.0
H3611 H 0.42512 0.7339 0.92908 0.0
C3612 C 0.38776 0.70994 0.0655 0.0
C3613 C 0.40815 0.72298 0.08031 0.0
C3614 C 0.38685 0.6961 0.03479 0.0
C3615 C 0.40622 0.69578 1.01854 0.0
C3616 C 0.42678 0.70759 0.03438 0.0
C3617 C 0.42773 0.72081 0.06539 0.0
C3618 C 0.40463 0.68587 0.98333 0.0
C3619 C 0.40204 0.69948 0.95926 0.0
C3620 C 0.40621 0.66344 0.9735 0.0
C3621 C 0.41138 0.64894 0.99747 0.0
C3622 C 0.43264 0.65298 1.01516 0.0
C3623 C 0.43879 0.63743 0.0338 0.0
C3624 C 0.42373 0.61783 0.03507 0.0
C3625 C 0.4024 0.61392 1.01811 0.0
C3626 C 0.39626 0.62933 0.99915 0.0
C3627 C 0.43413 0.65193 0.84346 0.0
C3628 C 0.42209 0.6302 0.83248 0.0
C3629 C 0.42644 0.66612 0.86821 0.0
C3630 C 0.40649 0.65869 0.88147 0.0
C3631 C 0.39303 0.6382 0.86691 0.0
C3632 C 0.4009 0.62392 0.84274 0.0
C3633 C 0.40314 0.6685 0.91548 0.0
C3634 C 0.40487 0.65488 0.93971 0.0
C3635 C 0.40164 0.69118 0.92513 0.0
C3636 C 0.40057 0.70654 0.90045 0.0
C3637 C 0.38621 0.69986 0.87075 0.0
C3638 C 0.38595 0.71398 0.84709 0.0
C3639 C 0.39983 0.73497 0.85288 0.0
C3640 C 0.41381 0.74201 0.88254 0.0
C3641 C 0.41409 0.728 0.90633 0.0
H3642 H 0.39966 0.74584 0.83447 0.0
H3643 H 0.42854 0.60578 0.0495 0.0
H3644 H 0.09221 0.66843 0.49224 0.0
H3645 H 0.08158 0.66389 0.54792 0.0
H3646 H 0.15075 0.68516 0.58787 0.0
H3647 H 0.16132 0.6871 0.53191 0.0
H3648 H 0.13751 0.65219 0.6104 0.0
H3649 H 0.10316 0.71645 0.6022 0.0
H3650 H 0.07778 0.74057 0.58506 0.0
H3651 H 0.02116 0.69038 0.59272 0.0
H3652 H 0.04616 0.66586 0.60954 0.0
H3653 H 0.12882 0.66468 0.77992 0.0
H3654 H 0.13164 0.67542 0.725 0.0
H3655 H 0.06514 0.63831 0.69227 0.0
H3656 H 0.06194 0.62828 0.74779 0.0
H3657 H 0.07384 0.67591 0.66527 0.0
H3658 H 0.11095 0.61403 0.67823 0.0
H3659 H 0.13734 0.59595 0.708 0.0
H3660 H 0.19148 0.64794 0.69702 0.0
H3661 H 0.16537 0.66646 0.66754 0.0
C3662 C 0.10498 0.67211 0.51315 0.0
C3663 C 0.12755 0.67791 0.50817 0.0
C3664 C 0.09892 0.66985 0.54502 0.0
C3665 C 0.11532 0.67426 0.57241 0.0
C3666 C 0.13774 0.68132 0.56727 0.0
C3667 C 0.14383 0.68261 0.53539 0.0
C3668 C 0.10986 0.66951 0.60579 0.0
C3669 C 0.1238 0.6579 0.62242 0.0
C3670 C 0.09137 0.67582 0.62129 0.0
C3671 C 0.07654 0.68928 0.60692 0.0
C3672 C 0.08532 0.71037 0.59952 0.0
C3673 C 0.07099 0.72417 0.59009 0.0
C3674 C 0.0479 0.7171 0.5882 0.0
C3675 C 0.03905 0.6959 0.59448 0.0
C3676 C 0.05328 0.68203 0.60388 0.0
C3677 C 0.11474 0.65908 0.76107 0.0
C3678 C 0.09539 0.6453 0.76758 0.0
C3679 C 0.11635 0.66517 0.72981 0.0
C3680 C 0.09886 0.65703 0.70439 0.0
C3681 C 0.07888 0.64455 0.71153 0.0
C3682 C 0.07711 0.63878 0.74308 0.0
C3683 C 0.10224 0.66007 0.66989 0.0
C3684 C 0.08762 0.67062 0.65292 0.0
C3685 C 0.12039 0.65332 0.65428 0.0
C3686 C 0.1362 0.64164 0.67076 0.0
C3687 C 0.12849 0.62159 0.68217 0.0
C3688 C 0.14339 0.61129 0.69903 0.0
C3689 C 0.16607 0.6208 0.70441 0.0
C3690 C 0.17392 0.64058 0.6928 0.0
C3691 C 0.15908 0.65096 0.67596 0.0
H3692 H 0.17757 0.61284 0.71756 0.0
H3693 H 0.03682 0.72811 0.58222 0.0
H3694 H 0.1151 0.34845 0.255 0.0
H3695 H 0.1229 0.32751 0.29933 0.0
H3696 H 0.1555 0.38858 0.36284 0.0
H3697 H 0.14864 0.40966 0.3185 0.0
H3698 H 0.16933 0.33122 0.34234 0.0
H3699 H 0.12971 0.39002 0.40732 0.0
H3700 H 0.09778 0.40864 0.41867 0.0
H3701 H 0.05263 0.34595 0.38873 0.0
H3702 H 0.08431 0.32711 0.37667 0.0
H3703 H 0.20056 0.33492 0.5114 0.0
H3704 H 0.1893 0.34186 0.45635 0.0
H3705 H 0.12813 0.29422 0.45159 0.0
H3706 H 0.1398 0.28612 0.50638 0.0
H3707 H 0.12309 0.33676 0.43721 0.0
H3708 H 0.16266 0.27951 0.4023 0.0
H3709 H 0.19398 0.25934 0.40489 0.0
H3710 H 0.23814 0.31562 0.38133 0.0
H3711 H 0.20713 0.33632 0.37915 0.0
C3712 C 0.12447 0.35745 0.278 0.0
C3713 C 0.13064 0.38093 0.28344 0.0
C3714 C 0.12861 0.34544 0.30347 0.0
C3715 C 0.13887 0.35671 0.33466 0.0
C3716 C 0.14671 0.37977 0.33929 0.0
C3717 C 0.14281 0.39176 0.31385 0.0
C3718 C 0.14182 0.34447 0.36244 0.0
C3719 C 0.1592 0.33233 0.36304 0.0
C3720 C 0.12821 0.34541 0.38897 0.0
C3721 C 0.10927 0.35732 0.39015 0.0
C3722 C 0.11292 0.38037 0.4022 0.0
C3723 C 0.0949 0.3909 0.40923 0.0
C3724 C 0.07319 0.37846 0.40461 0.0
C3725 C 0.06943 0.35556 0.39238 0.0
C3726 C 0.08739 0.34499 0.38518 0.0
C3727 C 0.18499 0.32538 0.49844 0.0
C3728 C 0.17123 0.30976 0.5133 0.0
C3729 C 0.17854 0.32949 0.467 0.0
C3730 C 0.15809 0.3183 0.44987 0.0
C3731 C 0.1441 0.30284 0.46448 0.0
C3732 C 0.15071 0.29841 0.49587 0.0
C3733 C 0.15101 0.32419 0.41767 0.0
C3734 C 0.1329 0.33514 0.41616 0.0
C3735 C 0.16394 0.32207 0.39045 0.0
C3736 C 0.18255 0.3095 0.39061 0.0
C3737 C 0.17906 0.28763 0.39777 0.0
C3738 C 0.19676 0.2761 0.39919 0.0
C3739 C 0.21804 0.28619 0.39328 0.0
C3740 C 0.22163 0.30782 0.38585 0.0
C3741 C 0.20398 0.31945 0.38445 0.0
H3742 H 0.23174 0.27725 0.39443 0.0
H3743 H 0.05927 0.3866 0.41024 0.0
loop_
_geom_bond_atom_site_label_1
_geom_bond_atom_site_label_2
_geom_bond_distance
_geom_bond_site_symmetry_2
_ccdc_geom_bond_type
Eu0 N31 2.657 . S
Eu0 N38 2.609 . S
Eu0 O44 2.558 . S
Eu0 O45 2.612 1_455 S
Eu0 O47 2.339 . S
Eu0 O48 2.563 . S
Eu0 O49 2.419 . S
Eu0 O51 2.380 . S
Eu0 O52 2.432 . S
Eu0 C64 2.848 . S
C1 C4 1.429 . S
C1 C5 1.411 . S
C1 N8 1.377 . S
C2 C4 1.420 . S
C2 C6 1.423 . S
C2 C14 1.392 . S
C3 C5 1.420 . S
C3 C6 1.351 . S
C3 H26 0.931 . S
C4 C1 1.429 . S
C4 C2 1.420 . S
C4 N12 1.362 . S
C5 C1 1.411 . S
C5 C3 1.420 . S
C5 C10 1.395 . S
C6 C2 1.423 . S
C6 C3 1.351 . S
C6 H18 0.930 . S
C7 C9 1.400 . S
C7 C10 1.386 . S
C7 H19 0.930 . S
N8 C1 1.377 . S
N8 C9 1.321 . S
N8 Eu11 2.609 . S
C9 C7 1.400 . S
C9 N8 1.321 . S
C9 H16 0.930 . S
C10 C5 1.395 . S
C10 C7 1.386 . S
C10 H29 0.930 . S
Eu11 N8 2.609 . S
Eu11 N12 2.657 . S
Eu11 O45 2.380 . S
Eu11 O46 2.432 . S
Eu11 O50 2.558 . S
Eu11 O51 2.612 1_655 S
Eu11 O53 2.339 . S
Eu11 O54 2.563 1_655 S
Eu11 O55 2.419 . S
Eu11 C75 2.848 . S
N12 C4 1.362 . S
N12 Eu11 2.657 . S
N12 C13 1.334 . S
C13 N12 1.334 . S
C13 C15 1.413 . S
C13 H20 0.929 . S
C14 C2 1.392 . S
C14 C15 1.367 . S
C14 H22 0.930 . S
C15 C13 1.413 . S
C15 C14 1.367 . S
C15 H17 0.930 . S
H16 C9 0.930 . S
H17 C15 0.930 . S
H18 C6 0.930 . S
H19 C7 0.930 . S
H20 C13 0.929 . S
H21 C35 0.930 . S
H22 C14 0.930 . S
H23 C41 0.930 . S
H24 C32 0.929 . S
H25 C39 0.930 . S
H26 C3 0.931 . S
H27 C33 0.930 . S
H28 C66 0.930 . S
H29 C10 0.930 . S
H30 C65 0.931 . S
N31 Eu0 2.657 . S
N31 C32 1.334 . S
N31 C36 1.362 . S
C32 H24 0.929 . S
C32 N31 1.334 . S
C32 C35 1.413 . S
C33 H27 0.930 . S
C33 C34 1.392 . S
C33 C35 1.367 . S
C34 C33 1.392 . S
C34 C36 1.420 . S
C34 C66 1.423 . S
C35 H21 0.930 . S
C35 C32 1.413 . S
C35 C33 1.367 . S
C36 N31 1.362 . S
C36 C34 1.420 . S
C36 C40 1.429 . S
H37 C42 0.930 . S
N38 Eu0 2.609 . S
N38 C40 1.377 . S
N38 C41 1.321 . S
C39 H25 0.930 . S
C39 C41 1.400 . S
C39 C42 1.386 . S
C40 C36 1.429 . S
C40 N38 1.377 . S
C40 C43 1.411 . S
C41 H23 0.930 . S
C41 N38 1.321 . S
C41 C39 1.400 . S
C42 H37 0.930 . S
C42 C39 1.386 . S
C42 C43 1.395 . S
C43 C40 1.411 . S
C43 C42 1.395 . S
C43 C65 1.420 . S
O44 Eu0 2.558 . S
O44 C64 1.257 . S
O45 Eu0 2.612 1_655 S
O45 Eu11 2.380 . S
O45 C56 1.276 . S
O46 Eu11 2.432 . S
O46 C63 1.264 1_655 S
O47 Eu0 2.339 . S
O47 C63 1.254 . S
O48 Eu0 2.563 . S
O48 C56 1.235 1_455 S
O49 Eu0 2.419 . S
O49 C64 1.249 . S
O50 Eu11 2.558 . S
O50 C75 1.257 . S
O51 Eu0 2.380 . S
O51 Eu11 2.612 1_455 S
O51 C67 1.276 . S
O52 Eu0 2.432 . S
O52 C74 1.264 . S
O53 Eu11 2.339 . S
O53 C74 1.254 1_655 S
O54 Eu11 2.563 1_455 S
O54 C67 1.235 . S
O55 Eu11 2.419 . S
O55 C75 1.249 . S
C56 O45 1.276 . S
C56 O48 1.235 1_655 S
C57 C59 1.393 . S
C57 C61 1.395 . S
C57 C64 1.492 . S
C58 C59 1.392 1_556 S
C58 C60 1.386 . S
C59 C57 1.393 . S
C59 C58 1.392 1_554 S
C59 H76 0.930 . S
C60 C58 1.386 . S
C60 C62 1.395 1_556 S
C60 H77 0.930 . S
C61 C57 1.395 . S
C61 C62 1.379 . S
C61 H78 0.930 . S
C62 C60 1.395 1_554 S
C62 C61 1.379 . S
C62 H79 0.930 . S
C63 O46 1.264 1_455 S
C63 O47 1.254 . S
C64 Eu0 2.848 . S
C64 O44 1.257 . S
C64 O49 1.249 . S
C64 C57 1.492 . S
C65 H30 0.931 . S
C65 C43 1.420 . S
C65 C66 1.351 . S
C66 H28 0.930 . S
C66 C34 1.423 . S
C66 C65 1.351 . S
C67 O51 1.276 . S
C67 O54 1.235 . S
C68 C69 1.393 . S
C68 C72 1.395 . S
C68 C75 1.492 . S
C69 C68 1.393 . S
C69 C70 1.392 . S
C69 H80 0.930 . S
C70 C69 1.392 . S
C70 C71 1.386 . S
C71 C70 1.386 . S
C71 C73 1.395 . S
C71 H81 0.930 . S
C72 C68 1.395 . S
C72 C73 1.379 . S
C72 H82 0.930 . S
C73 C71 1.395 . S
C73 C72 1.379 . S
C73 H83 0.930 . S
C74 O52 1.264 . S
C74 O53 1.254 1_455 S
C75 Eu11 2.848 . S
C75 O50 1.257 . S
C75 O55 1.249 . S
C75 C68 1.492 . S
H76 C59 0.930 . S
H77 C60 0.930 . S
H78 C61 0.930 . S
H79 C62 0.930 . S
H80 C69 0.930 . S
H81 C71 0.930 . S
H82 C72 0.930 . S
H83 C73 0.930 . S
Eu84 N115 2.657 . S
Eu84 N122 2.609 . S
Eu84 O128 2.558 . S
Eu84 O129 2.612 . S
Eu84 O131 2.339 . S
Eu84 O132 2.563 . S
Eu84 O133 2.419 . S
Eu84 O135 2.380 . S
Eu84 O136 2.432 . S
Eu84 C148 2.848 . S
C85 C88 1.429 . S
C85 C89 1.411 . S
C85 N92 1.377 . S
C86 C88 1.420 . S
C86 C90 1.423 . S
C86 C98 1.392 . S
C87 C89 1.420 . S
C87 C90 1.351 . S
C87 H110 0.931 . S
C88 C85 1.429 . S
C88 C86 1.420 . S
C88 N96 1.362 . S
C89 C85 1.411 . S
C89 C87 1.420 . S
C89 C94 1.395 . S
C90 C86 1.423 . S
C90 C87 1.351 . S
C90 H102 0.930 . S
C91 C93 1.400 . S
C91 C94 1.386 . S
C91 H103 0.930 . S
N92 C85 1.377 . S
N92 C93 1.321 . S
N92 Eu95 2.609 . S
C93 C91 1.400 . S
C93 N92 1.321 . S
C93 H100 0.930 . S
C94 C89 1.395 . S
C94 C91 1.386 . S
C94 H113 0.930 . S
Eu95 N92 2.609 . S
Eu95 N96 2.657 . S
Eu95 O129 2.380 . S
Eu95 O130 2.432 . S
Eu95 O134 2.558 . S
Eu95 O135 2.612 . S
Eu95 O137 2.339 . S
Eu95 O138 2.563 . S
Eu95 O139 2.419 . S
Eu95 C159 2.848 . S
N96 C88 1.362 . S
N96 Eu95 2.657 . S
N96 C97 1.334 . S
C97 N96 1.334 . S
C97 C99 1.413 . S
C97 H104 0.929 . S
C98 C86 1.392 . S
C98 C99 1.367 . S
C98 H106 0.930 . S
C99 C97 1.413 . S
C99 C98 1.367 . S
C99 H101 0.930 . S
H100 C93 0.930 . S
H101 C99 0.930 . S
H102 C90 0.930 . S
H103 C91 0.930 . S
H104 C97 0.929 . S
H105 C119 0.930 . S
H106 C98 0.930 . S
H107 C125 0.930 . S
H108 C116 0.929 . S
H109 C123 0.930 . S
H110 C87 0.931 . S
H111 C117 0.930 . S
H112 C150 0.930 . S
H113 C94 0.930 . S
H114 C149 0.931 . S
N115 Eu84 2.657 . S
N115 C116 1.334 . S
N115 C120 1.362 . S
C116 H108 0.929 . S
C116 N115 1.334 . S
C116 C119 1.413 . S
C117 H111 0.930 . S
C117 C118 1.392 . S
C117 C119 1.367 . S
C118 C117 1.392 . S
C118 C120 1.420 . S
C118 C150 1.423 . S
C119 H105 0.930 . S
C119 C116 1.413 . S
C119 C117 1.367 . S
C120 N115 1.362 . S
C120 C118 1.420 . S
C120 C124 1.429 . S
H121 C126 0.930 . S
N122 Eu84 2.609 . S
N122 C124 1.377 . S
N122 C125 1.321 . S
C123 H109 0.930 . S
C123 C125 1.400 . S
C123 C126 1.386 . S
C124 C120 1.429 . S
C124 N122 1.377 . S
C124 C127 1.411 . S
C125 H107 0.930 . S
C125 N122 1.321 . S
C125 C123 1.400 . S
C126 H121 0.930 . S
C126 C123 1.386 . S
C126 C127 1.395 . S
C127 C124 1.411 . S
C127 C126 1.395 . S
C127 C149 1.420 . S
O128 Eu84 2.558 . S
O128 C148 1.257 . S
O129 Eu84 2.612 . S
O129 Eu95 2.380 . S
O129 C140 1.276 . S
O130 Eu95 2.432 . S
O130 C147 1.264 . S
O131 Eu84 2.339 . S
O131 C147 1.254 . S
O132 Eu84 2.563 . S
O132 C140 1.235 . S
O133 Eu84 2.419 . S
O133 C148 1.249 . S
O134 Eu95 2.558 . S
O134 C159 1.257 . S
O135 Eu84 2.380 . S
O135 Eu95 2.612 . S
O135 C151 1.276 . S
O136 Eu84 2.432 . S
O136 C158 1.264 . S
O137 Eu95 2.339 . S
O137 C158 1.254 . S
O138 Eu95 2.563 . S
O138 C151 1.235 . S
O139 Eu95 2.419 . S
O139 C159 1.249 . S
C140 O129 1.276 . S
C140 O132 1.235 . S
C141 C143 1.393 . S
C141 C145 1.395 . S
C141 C148 1.492 . S
C142 C143 1.392 . S
C142 C144 1.386 . S
C143 C141 1.393 . S
C143 C142 1.392 . S
C143 H160 0.930 . S
C144 C142 1.386 . S
C144 C146 1.395 . S
C144 H161 0.930 . S
C145 C141 1.395 . S
C145 C146 1.379 . S
C145 H162 0.930 . S
C146 C144 1.395 . S
C146 C145 1.379 . S
C146 H163 0.930 . S
C147 O130 1.264 . S
C147 O131 1.254 . S
C148 Eu84 2.848 . S
C148 O128 1.257 . S
C148 O133 1.249 . S
C148 C141 1.492 . S
C149 H114 0.931 . S
C149 C127 1.420 . S
C149 C150 1.351 . S
C150 H112 0.930 . S
C150 C118 1.423 . S
C150 C149 1.351 . S
C151 O135 1.276 . S
C151 O138 1.235 . S
C152 C153 1.393 . S
C152 C156 1.395 . S
C152 C159 1.492 . S
C153 C152 1.393 . S
C153 C154 1.392 . S
C153 H164 0.930 . S
C154 C153 1.392 . S
C154 C155 1.386 . S
C155 C154 1.386 . S
C155 C157 1.395 . S
C155 H165 0.930 . S
C156 C152 1.395 . S
C156 C157 1.379 . S
C156 H166 0.930 . S
C157 C155 1.395 . S
C157 C156 1.379 . S
C157 H167 0.930 . S
C158 O136 1.264 . S
C158 O137 1.254 . S
C159 Eu95 2.848 . S
C159 O134 1.257 . S
C159 O139 1.249 . S
C159 C152 1.492 . S
H160 C143 0.930 . S
H161 C144 0.930 . S
H162 C145 0.930 . S
H163 C146 0.930 . S
H164 C153 0.930 . S
H165 C155 0.930 . S
H166 C156 0.930 . S
H167 C157 0.930 . S
Eu168 N199 2.657 . S
Eu168 N206 2.609 . S
Eu168 O212 2.558 . S
Eu168 O213 2.612 . S
Eu168 O215 2.339 . S
Eu168 O216 2.563 . S
Eu168 O217 2.419 . S
Eu168 O219 2.380 . S
Eu168 O220 2.432 . S
Eu168 C232 2.848 . S
C169 C172 1.429 . S
C169 C173 1.411 . S
C169 N176 1.377 . S
C170 C172 1.420 . S
C170 C174 1.423 . S
C170 C182 1.392 . S
C171 C173 1.420 . S
C171 C174 1.351 . S
C171 H194 0.931 . S
C172 C169 1.429 . S
C172 C170 1.420 . S
C172 N180 1.362 . S
C173 C169 1.411 . S
C173 C171 1.420 . S
C173 C178 1.395 . S
C174 C170 1.423 . S
C174 C171 1.351 . S
C174 H186 0.930 . S
C175 C177 1.400 . S
C175 C178 1.386 . S
C175 H187 0.930 . S
N176 C169 1.377 . S
N176 C177 1.321 . S
N176 Eu179 2.609 . S
C177 C175 1.400 . S
C177 N176 1.321 . S
C177 H184 0.930 . S
C178 C173 1.395 . S
C178 C175 1.386 . S
C178 H197 0.930 . S
Eu179 N176 2.609 . S
Eu179 N180 2.657 . S
Eu179 O213 2.380 . S
Eu179 O214 2.432 . S
Eu179 O218 2.558 . S
Eu179 O219 2.612 . S
Eu179 O221 2.339 . S
Eu179 O222 2.563 . S
Eu179 O223 2.419 . S
Eu179 C243 2.848 . S
N180 C172 1.362 . S
N180 Eu179 2.657 . S
N180 C181 1.334 . S
C181 N180 1.334 . S
C181 C183 1.413 . S
C181 H188 0.929 . S
C182 C170 1.392 . S
C182 C183 1.367 . S
C182 H190 0.930 . S
C183 C181 1.413 . S
C183 C182 1.367 . S
C183 H185 0.930 . S
H184 C177 0.930 . S
H185 C183 0.930 . S
H186 C174 0.930 . S
H187 C175 0.930 . S
H188 C181 0.929 . S
H189 C203 0.930 . S
H190 C182 0.930 . S
H191 C209 0.930 . S
H192 C200 0.929 . S
H193 C207 0.930 . S
H194 C171 0.931 . S
H195 C201 0.930 . S
H196 C234 0.930 . S
H197 C178 0.930 . S
H198 C233 0.931 . S
N199 Eu168 2.657 . S
N199 C200 1.334 . S
N199 C204 1.362 . S
C200 H192 0.929 . S
C200 N199 1.334 . S
C200 C203 1.413 . S
C201 H195 0.930 . S
C201 C202 1.392 . S
C201 C203 1.367 . S
C202 C201 1.392 . S
C202 C204 1.420 . S
C202 C234 1.423 . S
C203 H189 0.930 . S
C203 C200 1.413 . S
C203 C201 1.367 . S
C204 N199 1.362 . S
C204 C202 1.420 . S
C204 C208 1.429 . S
H205 C210 0.930 . S
N206 Eu168 2.609 . S
N206 C208 1.377 . S
N206 C209 1.321 . S
C207 H193 0.930 . S
C207 C209 1.400 . S
C207 C210 1.386 . S
C208 C204 1.429 . S
C208 N206 1.377 . S
C208 C211 1.411 . S
C209 H191 0.930 . S
C209 N206 1.321 . S
C209 C207 1.400 . S
C210 H205 0.930 . S
C210 C207 1.386 . S
C210 C211 1.395 . S
C211 C208 1.411 . S
C211 C210 1.395 . S
C211 C233 1.420 . S
O212 Eu168 2.558 . S
O212 C232 1.257 . S
O213 Eu168 2.612 . S
O213 Eu179 2.380 . S
O213 C224 1.276 . S
O214 Eu179 2.432 . S
O214 C231 1.264 . S
O215 Eu168 2.339 . S
O215 C231 1.254 . S
O216 Eu168 2.563 . S
O216 C224 1.235 . S
O217 Eu168 2.419 . S
O217 C232 1.249 . S
O218 Eu179 2.558 . S
O218 C243 1.257 . S
O219 Eu168 2.380 . S
O219 Eu179 2.612 . S
O219 C235 1.276 . S
O220 Eu168 2.432 . S
O220 C242 1.264 . S
O221 Eu179 2.339 . S
O221 C242 1.254 . S
O222 Eu179 2.563 . S
O222 C235 1.235 . S
O223 Eu179 2.419 . S
O223 C243 1.249 . S
C224 O213 1.276 . S
C224 O216 1.235 . S
C225 C227 1.393 . S
C225 C229 1.395 . S
C225 C232 1.492 . S
C226 C227 1.392 . S
C226 C228 1.386 . S
C227 C225 1.393 . S
C227 C226 1.392 . S
C227 H244 0.930 . S
C228 C226 1.386 . S
C228 C230 1.395 . S
C228 H245 0.930 . S
C229 C225 1.395 . S
C229 C230 1.379 . S
C229 H246 0.930 . S
C230 C228 1.395 . S
C230 C229 1.379 . S
C230 H247 0.930 . S
C231 O214 1.264 . S
C231 O215 1.254 . S
C232 Eu168 2.848 . S
C232 O212 1.257 . S
C232 O217 1.249 . S
C232 C225 1.492 . S
C233 H198 0.931 . S
C233 C211 1.420 . S
C233 C234 1.351 . S
C234 H196 0.930 . S
C234 C202 1.423 . S
C234 C233 1.351 . S
C235 O219 1.276 . S
C235 O222 1.235 . S
C236 C237 1.393 . S
C236 C240 1.395 . S
C236 C243 1.492 . S
C237 C236 1.393 . S
C237 C238 1.392 . S
C237 H248 0.930 . S
C238 C237 1.392 . S
C238 C239 1.386 . S
C239 C238 1.386 . S
C239 C241 1.395 . S
C239 H249 0.930 . S
C240 C236 1.395 . S
C240 C241 1.379 . S
C240 H250 0.930 . S
C241 C239 1.395 . S
C241 C240 1.379 . S
C241 H251 0.930 . S
C242 O220 1.264 . S
C242 O221 1.254 . S
C243 Eu179 2.848 . S
C243 O218 1.257 . S
C243 O223 1.249 . S
C243 C236 1.492 . S
H244 C227 0.930 . S
H245 C228 0.930 . S
H246 C229 0.930 . S
H247 C230 0.930 . S
H248 C237 0.930 . S
H249 C239 0.930 . S
H250 C240 0.930 . S
H251 C241 0.930 . S
Eu252 N283 2.657 . S
Eu252 N290 2.609 . S
Eu252 O296 2.558 . S
Eu252 O297 2.612 . S
Eu252 O299 2.339 . S
Eu252 O300 2.563 . S
Eu252 O301 2.419 . S
Eu252 O303 2.380 . S
Eu252 O304 2.432 . S
Eu252 C316 2.848 . S
C253 C256 1.429 . S
C253 C257 1.411 . S
C253 N260 1.377 . S
C254 C256 1.420 . S
C254 C258 1.423 . S
C254 C266 1.392 . S
C255 C257 1.420 . S
C255 C258 1.351 . S
C255 H278 0.931 . S
C256 C253 1.429 . S
C256 C254 1.420 . S
C256 N264 1.362 . S
C257 C253 1.411 . S
C257 C255 1.420 . S
C257 C262 1.395 . S
C258 C254 1.423 . S
C258 C255 1.351 . S
C258 H270 0.930 . S
C259 C261 1.400 . S
C259 C262 1.386 . S
C259 H271 0.930 . S
N260 C253 1.377 . S
N260 C261 1.321 . S
N260 Eu263 2.609 . S
C261 C259 1.400 . S
C261 N260 1.321 . S
C261 H268 0.930 . S
C262 C257 1.395 . S
C262 C259 1.386 . S
C262 H281 0.930 . S
Eu263 N260 2.609 . S
Eu263 N264 2.657 . S
Eu263 O297 2.380 . S
Eu263 O298 2.432 . S
Eu263 O302 2.558 . S
Eu263 O303 2.612 . S
Eu263 O305 2.339 . S
Eu263 O306 2.563 . S
Eu263 O307 2.419 . S
Eu263 C327 2.848 . S
N264 C256 1.362 . S
N264 Eu263 2.657 . S
N264 C265 1.334 . S
C265 N264 1.334 . S
C265 C267 1.413 . S
C265 H272 0.929 . S
C266 C254 1.392 . S
C266 C267 1.367 . S
C266 H274 0.930 . S
C267 C265 1.413 . S
C267 C266 1.367 . S
C267 H269 0.930 . S
H268 C261 0.930 . S
H269 C267 0.930 . S
H270 C258 0.930 . S
H271 C259 0.930 . S
H272 C265 0.929 . S
H273 C287 0.930 . S
H274 C266 0.930 . S
H275 C293 0.930 . S
H276 C284 0.929 . S
H277 C291 0.930 . S
H278 C255 0.931 . S
H279 C285 0.930 . S
H280 C318 0.930 . S
H281 C262 0.930 . S
H282 C317 0.931 . S
N283 Eu252 2.657 . S
N283 C284 1.334 . S
N283 C288 1.362 . S
C284 H276 0.929 . S
C284 N283 1.334 . S
C284 C287 1.413 . S
C285 H279 0.930 . S
C285 C286 1.392 . S
C285 C287 1.367 . S
C286 C285 1.392 . S
C286 C288 1.420 . S
C286 C318 1.423 . S
C287 H273 0.930 . S
C287 C284 1.413 . S
C287 C285 1.367 . S
C288 N283 1.362 . S
C288 C286 1.420 . S
C288 C292 1.429 . S
H289 C294 0.930 . S
N290 Eu252 2.609 . S
N290 C292 1.377 . S
N290 C293 1.321 . S
C291 H277 0.930 . S
C291 C293 1.400 . S
C291 C294 1.386 . S
C292 C288 1.429 . S
C292 N290 1.377 . S
C292 C295 1.411 . S
C293 H275 0.930 . S
C293 N290 1.321 . S
C293 C291 1.400 . S
C294 H289 0.930 . S
C294 C291 1.386 . S
C294 C295 1.395 . S
C295 C292 1.411 . S
C295 C294 1.395 . S
C295 C317 1.420 . S
O296 Eu252 2.558 . S
O296 C316 1.257 . S
O297 Eu252 2.612 . S
O297 Eu263 2.380 . S
O297 C308 1.276 . S
O298 Eu263 2.432 . S
O298 C315 1.264 . S
O299 Eu252 2.339 . S
O299 C315 1.254 . S
O300 Eu252 2.563 . S
O300 C308 1.235 . S
O301 Eu252 2.419 . S
O301 C316 1.249 . S
O302 Eu263 2.558 . S
O302 C327 1.257 . S
O303 Eu252 2.380 . S
O303 Eu263 2.612 . S
O303 C319 1.276 . S
O304 Eu252 2.432 . S
O304 C326 1.264 . S
O305 Eu263 2.339 . S
O305 C326 1.254 . S
O306 Eu263 2.563 . S
O306 C319 1.235 . S
O307 Eu263 2.419 . S
O307 C327 1.249 . S
C308 O297 1.276 . S
C308 O300 1.235 . S
C309 C311 1.393 . S
C309 C313 1.395 . S
C309 C316 1.492 1_554 S
C310 C311 1.392 . S
C310 C312 1.386 . S
C311 C309 1.393 . S
C311 C310 1.392 . S
C311 H328 0.930 . S
C312 C310 1.386 . S
C312 C314 1.395 . S
C312 H329 0.930 . S
C313 C309 1.395 . S
C313 C314 1.379 . S
C313 H330 0.945 . S
C314 C312 1.395 . S
C314 C313 1.379 . S
C314 H331 0.930 . S
C315 O298 1.264 . S
C315 O299 1.254 . S
C316 Eu252 2.848 . S
C316 O296 1.257 . S
C316 O301 1.249 . S
C316 C309 1.492 1_556 S
C317 H282 0.931 . S
C317 C295 1.420 . S
C317 C318 1.351 . S
C318 H280 0.930 . S
C318 C286 1.423 . S
C318 C317 1.351 . S
C319 O303 1.276 . S
C319 O306 1.235 . S
C320 C321 1.393 . S
C320 C324 1.395 . S
C320 C327 1.492 . S
C321 C320 1.393 . S
C321 C322 1.392 . S
C321 H332 0.930 . S
C322 C321 1.392 . S
C322 C323 1.386 . S
C323 C322 1.386 . S
C323 C325 1.395 . S
C323 H333 0.930 . S
C324 C320 1.395 . S
C324 C325 1.379 . S
C324 H334 0.930 . S
C325 C323 1.395 . S
C325 C324 1.379 . S
C325 H335 0.930 . S
C326 O304 1.264 . S
C326 O305 1.254 . S
C327 Eu263 2.848 . S
C327 O302 1.257 . S
C327 O307 1.249 . S
C327 C320 1.492 . S
H328 C311 0.930 . S
H329 C312 0.930 . S
H330 C313 0.945 . S
H331 C314 0.930 . S
H332 C321 0.930 . S
H333 C323 0.930 . S
H334 C324 0.930 . S
H335 C325 0.930 . S
Eu336 N367 2.657 . S
Eu336 N374 2.609 . S
Eu336 O380 2.558 . S
Eu336 O381 2.612 . S
Eu336 O383 2.339 . S
Eu336 O384 2.563 . S
Eu336 O385 2.419 . S
Eu336 O387 2.380 . S
Eu336 O388 2.432 . S
Eu336 C400 2.848 . S
C337 C340 1.429 . S
C337 C341 1.411 . S
C337 N344 1.377 . S
C338 C340 1.420 . S
C338 C342 1.423 . S
C338 C350 1.392 . S
C339 C341 1.420 . S
C339 C342 1.351 . S
C339 H362 0.931 . S
C340 C337 1.429 . S
C340 C338 1.420 . S
C340 N348 1.362 . S
C341 C337 1.411 . S
C341 C339 1.420 . S
C341 C346 1.395 . S
C342 C338 1.423 . S
C342 C339 1.351 . S
C342 H354 0.930 . S
C343 C345 1.400 . S
C343 C346 1.386 . S
C343 H355 0.930 . S
N344 C337 1.377 . S
N344 C345 1.321 . S
N344 Eu347 2.609 1_655 S
C345 C343 1.400 . S
C345 N344 1.321 . S
C345 H352 0.930 . S
C346 C341 1.395 . S
C346 C343 1.386 . S
C346 H365 0.930 . S
Eu347 N344 2.609 1_455 S
Eu347 N348 2.657 1_455 S
Eu347 O381 2.380 . S
Eu347 O382 2.432 . S
Eu347 O386 2.558 1_455 S
Eu347 O387 2.612 . S
Eu347 O389 2.339 . S
Eu347 O390 2.563 . S
Eu347 O391 2.419 1_455 S
Eu347 C411 2.848 1_455 S
N348 C340 1.362 . S
N348 Eu347 2.657 1_655 S
N348 C349 1.334 . S
C349 N348 1.334 . S
C349 C351 1.413 . S
C349 H356 0.929 . S
C350 C338 1.392 . S
C350 C351 1.367 . S
C350 H358 0.930 . S
C351 C349 1.413 . S
C351 C350 1.367 . S
C351 H353 0.930 . S
H352 C345 0.930 . S
H353 C351 0.930 . S
H354 C342 0.930 . S
H355 C343 0.930 . S
H356 C349 0.929 . S
H357 C371 0.930 . S
H358 C350 0.930 . S
H359 C377 0.930 . S
H360 C368 0.929 . S
H361 C375 0.930 . S
H362 C339 0.931 . S
H363 C369 0.930 . S
H364 C402 0.930 . S
H365 C346 0.930 . S
H366 C401 0.931 . S
N367 Eu336 2.657 . S
N367 C368 1.334 . S
N367 C372 1.362 . S
C368 H360 0.929 . S
C368 N367 1.334 . S
C368 C371 1.413 . S
C369 H363 0.930 . S
C369 C370 1.392 . S
C369 C371 1.367 . S
C370 C369 1.392 . S
C370 C372 1.420 . S
C370 C402 1.423 . S
C371 H357 0.930 . S
C371 C368 1.413 . S
C371 C369 1.367 . S
C372 N367 1.362 . S
C372 C370 1.420 . S
C372 C376 1.429 . S
H373 C378 0.930 . S
N374 Eu336 2.609 . S
N374 C376 1.377 . S
N374 C377 1.321 . S
C375 H361 0.930 . S
C375 C377 1.400 . S
C375 C378 1.386 . S
C376 C372 1.429 . S
C376 N374 1.377 . S
C376 C379 1.411 . S
C377 H359 0.930 . S
C377 N374 1.321 . S
C377 C375 1.400 . S
C378 H373 0.930 . S
C378 C375 1.386 . S
C378 C379 1.395 . S
C379 C376 1.411 . S
C379 C378 1.395 . S
C379 C401 1.420 . S
O380 Eu336 2.558 . S
O380 C400 1.257 . S
O381 Eu336 2.612 . S
O381 Eu347 2.380 . S
O381 C392 1.276 . S
O382 Eu347 2.432 . S
O382 C399 1.264 . S
O383 Eu336 2.339 . S
O383 C399 1.254 . S
O384 Eu336 2.563 . S
O384 C392 1.235 . S
O385 Eu336 2.419 . S
O385 C400 1.249 . S
O386 Eu347 2.558 1_655 S
O386 C411 1.257 . S
O387 Eu336 2.380 . S
O387 Eu347 2.612 . S
O387 C403 1.276 . S
O388 Eu336 2.432 . S
O388 C410 1.264 . S
O389 Eu347 2.339 . S
O389 C410 1.254 . S
O390 Eu347 2.563 . S
O390 C403 1.235 . S
O391 Eu347 2.419 1_655 S
O391 C411 1.249 . S
C392 O381 1.276 . S
C392 O384 1.235 . S
C393 C395 1.393 . S
C393 C397 1.395 . S
C393 C400 1.492 . S
C394 C395 1.392 . S
C394 C396 1.386 . S
C395 C393 1.393 . S
C395 C394 1.392 . S
C395 H412 0.930 . S
C396 C394 1.386 . S
C396 C398 1.395 . S
C396 H413 0.930 . S
C397 C393 1.395 . S
C397 C398 1.379 . S
C397 H414 0.930 . S
C398 C396 1.395 . S
C398 C397 1.379 . S
C398 H415 0.930 . S
C399 O382 1.264 . S
C399 O383 1.254 . S
C400 Eu336 2.848 . S
C400 O380 1.257 . S
C400 O385 1.249 . S
C400 C393 1.492 . S
C401 H366 0.931 . S
C401 C379 1.420 . S
C401 C402 1.351 . S
C402 H364 0.930 . S
C402 C370 1.423 . S
C402 C401 1.351 . S
C403 O387 1.276 . S
C403 O390 1.235 . S
C404 C405 1.393 . S
C404 C408 1.395 . S
C404 C411 1.492 . S
C405 C404 1.393 . S
C405 C406 1.392 1_556 S
C405 H416 0.930 . S
C406 C405 1.392 1_554 S
C406 C407 1.386 . S
C407 C406 1.386 . S
C407 C409 1.395 1_554 S
C407 H417 0.930 . S
C408 C404 1.395 . S
C408 C409 1.379 . S
C408 H418 0.930 . S
C409 C407 1.395 1_556 S
C409 C408 1.379 . S
C409 H419 0.930 . S
C410 O388 1.264 . S
C410 O389 1.254 . S
C411 Eu347 2.848 1_655 S
C411 O386 1.257 . S
C411 O391 1.249 . S
C411 C404 1.492 . S
H412 C395 0.930 . S
H413 C396 0.930 . S
H414 C397 0.930 . S
H415 C398 0.930 . S
H416 C405 0.930 . S
H417 C407 0.930 . S
H418 C408 0.930 . S
H419 C409 0.930 . S
Eu420 N451 2.657 . S
Eu420 N458 2.609 . S
Eu420 O464 2.558 . S
Eu420 O465 2.612 . S
Eu420 O467 2.339 . S
Eu420 O468 2.563 . S
Eu420 O469 2.419 . S
Eu420 O471 2.380 . S
Eu420 O472 2.432 . S
Eu420 C484 2.848 . S
C421 C424 1.429 . S
C421 C425 1.411 . S
C421 N428 1.377 . S
C422 C424 1.420 . S
C422 C426 1.423 . S
C422 C434 1.392 . S
C423 C425 1.420 . S
C423 C426 1.351 . S
C423 H446 0.931 . S
C424 C421 1.429 . S
C424 C422 1.420 . S
C424 N432 1.362 . S
C425 C421 1.411 . S
C425 C423 1.420 . S
C425 C430 1.395 . S
C426 C422 1.423 . S
C426 C423 1.351 . S
C426 H438 0.930 . S
C427 C429 1.400 . S
C427 C430 1.386 . S
C427 H439 0.930 . S
N428 C421 1.377 . S
N428 C429 1.321 . S
N428 Eu431 2.609 . S
C429 C427 1.400 . S
C429 N428 1.321 . S
C429 H436 0.930 . S
C430 C425 1.395 . S
C430 C427 1.386 . S
C430 H449 0.930 . S
Eu431 N428 2.609 . S
Eu431 N432 2.657 . S
Eu431 O465 2.380 . S
Eu431 O466 2.432 . S
Eu431 O470 2.558 . S
Eu431 O471 2.612 . S
Eu431 O473 2.339 . S
Eu431 O474 2.563 . S
Eu431 O475 2.419 . S
Eu431 C495 2.848 . S
N432 C424 1.362 . S
N432 Eu431 2.657 . S
N432 C433 1.334 . S
C433 N432 1.334 . S
C433 C435 1.413 . S
C433 H440 0.929 . S
C434 C422 1.392 . S
C434 C435 1.367 . S
C434 H442 0.930 . S
C435 C433 1.413 . S
C435 C434 1.367 . S
C435 H437 0.930 . S
H436 C429 0.930 . S
H437 C435 0.930 . S
H438 C426 0.930 . S
H439 C427 0.930 . S
H440 C433 0.929 . S
H441 C455 0.930 . S
H442 C434 0.930 . S
H443 C461 0.930 . S
H444 C452 0.929 . S
H445 C459 0.930 . S
H446 C423 0.931 . S
H447 C453 0.930 . S
H448 C486 0.930 . S
H449 C430 0.930 . S
H450 C485 0.931 . S
N451 Eu420 2.657 . S
N451 C452 1.334 . S
N451 C456 1.362 . S
C452 H444 0.929 . S
C452 N451 1.334 . S
C452 C455 1.413 . S
C453 H447 0.930 . S
C453 C454 1.392 . S
C453 C455 1.367 . S
C454 C453 1.392 . S
C454 C456 1.420 . S
C454 C486 1.423 . S
C455 H441 0.930 . S
C455 C452 1.413 . S
C455 C453 1.367 . S
C456 N451 1.362 . S
C456 C454 1.420 . S
C456 C460 1.429 . S
H457 C462 0.930 . S
N458 Eu420 2.609 . S
N458 C460 1.377 . S
N458 C461 1.321 . S
C459 H445 0.930 . S
C459 C461 1.400 . S
C459 C462 1.386 . S
C460 C456 1.429 . S
C460 N458 1.377 . S
C460 C463 1.411 . S
C461 H443 0.930 . S
C461 N458 1.321 . S
C461 C459 1.400 . S
C462 H457 0.930 . S
C462 C459 1.386 . S
C462 C463 1.395 . S
C463 C460 1.411 . S
C463 C462 1.395 . S
C463 C485 1.420 . S
O464 Eu420 2.558 . S
O464 C484 1.257 . S
O465 Eu420 2.612 . S
O465 Eu431 2.380 . S
O465 C476 1.276 . S
O466 Eu431 2.432 . S
O466 C483 1.264 . S
O467 Eu420 2.339 . S
O467 C483 1.254 . S
O468 Eu420 2.563 . S
O468 C476 1.235 . S
O469 Eu420 2.419 . S
O469 C484 1.249 . S
O470 Eu431 2.558 . S
O470 C495 1.257 . S
O471 Eu420 2.380 . S
O471 Eu431 2.612 . S
O471 C487 1.276 . S
O472 Eu420 2.432 . S
O472 C494 1.264 . S
O473 Eu431 2.339 . S
O473 C494 1.254 . S
O474 Eu431 2.563 . S
O474 C487 1.235 . S
O475 Eu431 2.419 . S
O475 C495 1.249 . S
C476 O465 1.276 . S
C476 O468 1.235 . S
C477 C479 1.393 1_554 S
C477 C481 1.395 . S
C477 C484 1.492 . S
C478 C479 1.392 . S
C478 C480 1.386 . S
C479 C477 1.393 1_556 S
C479 C478 1.392 . S
C479 H496 0.930 1_556 S
C480 C478 1.386 . S
C480 C482 1.395 . S
C480 H497 0.930 . S
C481 C477 1.395 . S
C481 C482 1.379 1_554 S
C481 H498 0.930 . S
C482 C480 1.395 . S
C482 C481 1.379 1_556 S
C482 H499 0.930 . S
C483 O466 1.264 . S
C483 O467 1.254 . S
C484 Eu420 2.848 . S
C484 O464 1.257 . S
C484 O469 1.249 . S
C484 C477 1.492 . S
C485 H450 0.931 . S
C485 C463 1.420 . S
C485 C486 1.351 . S
C486 H448 0.930 . S
C486 C454 1.423 . S
C486 C485 1.351 . S
C487 O471 1.276 . S
C487 O474 1.235 . S
C488 C489 1.393 . S
C488 C492 1.395 . S
C488 C495 1.492 . S
C489 C488 1.393 . S
C489 C490 1.392 . S
C489 H500 0.930 . S
C490 C489 1.392 . S
C490 C491 1.386 . S
C491 C490 1.386 . S
C491 C493 1.395 . S
C491 H501 0.930 . S
C492 C488 1.395 . S
C492 C493 1.379 . S
C492 H502 0.930 . S
C493 C491 1.395 . S
C493 C492 1.379 . S
C493 H503 0.930 . S
C494 O472 1.264 . S
C494 O473 1.254 . S
C495 Eu431 2.848 . S
C495 O470 1.257 . S
C495 O475 1.249 . S
C495 C488 1.492 . S
H496 C479 0.930 1_554 S
H497 C480 0.930 . S
H498 C481 0.930 . S
H499 C482 0.930 . S
H500 C489 0.930 . S
H501 C491 0.930 . S
H502 C492 0.930 . S
H503 C493 0.930 . S
Eu504 N535 2.657 . S
Eu504 N542 2.609 . S
Eu504 O548 2.558 . S
Eu504 O549 2.612 . S
Eu504 O551 2.339 . S
Eu504 O552 2.563 . S
Eu504 O553 2.419 . S
Eu504 O555 2.380 . S
Eu504 O556 2.432 . S
Eu504 C568 2.848 . S
C505 C508 1.429 . S
C505 C509 1.411 . S
C505 N512 1.377 . S
C506 C508 1.420 . S
C506 C510 1.423 . S
C506 C518 1.392 . S
C507 C509 1.420 . S
C507 C510 1.351 . S
C507 H530 0.931 . S
C508 C505 1.429 . S
C508 C506 1.420 . S
C508 N516 1.362 . S
C509 C505 1.411 . S
C509 C507 1.420 . S
C509 C514 1.395 . S
C510 C506 1.423 . S
C510 C507 1.351 . S
C510 H522 0.930 . S
C511 C513 1.400 . S
C511 C514 1.386 . S
C511 H523 0.930 . S
N512 C505 1.377 . S
N512 C513 1.321 . S
N512 Eu515 2.609 . S
C513 C511 1.400 . S
C513 N512 1.321 . S
C513 H520 0.930 . S
C514 C509 1.395 . S
C514 C511 1.386 . S
C514 H533 0.930 . S
Eu515 N512 2.609 . S
Eu515 N516 2.657 . S
Eu515 O549 2.380 . S
Eu515 O550 2.432 . S
Eu515 O554 2.558 . S
Eu515 O555 2.612 . S
Eu515 O557 2.339 . S
Eu515 O558 2.563 . S
Eu515 O559 2.419 . S
Eu515 C579 2.848 . S
N516 C508 1.362 . S
N516 Eu515 2.657 . S
N516 C517 1.334 . S
C517 N516 1.334 . S
C517 C519 1.413 . S
C517 H524 0.929 . S
C518 C506 1.392 . S
C518 C519 1.367 . S
C518 H526 0.930 . S
C519 C517 1.413 . S
C519 C518 1.367 . S
C519 H521 0.930 . S
H520 C513 0.930 . S
H521 C519 0.930 . S
H522 C510 0.930 . S
H523 C511 0.930 . S
H524 C517 0.929 . S
H525 C539 0.930 . S
H526 C518 0.930 . S
H527 C545 0.930 . S
H528 C536 0.929 . S
H529 C543 0.930 . S
H530 C507 0.931 . S
H531 C537 0.930 . S
H532 C570 0.930 . S
H533 C514 0.930 . S
H534 C569 0.931 . S
N535 Eu504 2.657 . S
N535 C536 1.334 . S
N535 C540 1.362 . S
C536 H528 0.929 . S
C536 N535 1.334 . S
C536 C539 1.413 . S
C537 H531 0.930 . S
C537 C538 1.392 . S
C537 C539 1.367 . S
C538 C537 1.392 . S
C538 C540 1.420 . S
C538 C570 1.423 . S
C539 H525 0.930 . S
C539 C536 1.413 . S
C539 C537 1.367 . S
C540 N535 1.362 . S
C540 C538 1.420 . S
C540 C544 1.429 . S
H541 C546 0.930 . S
N542 Eu504 2.609 . S
N542 C544 1.377 . S
N542 C545 1.321 . S
C543 H529 0.930 . S
C543 C545 1.400 . S
C543 C546 1.386 . S
C544 C540 1.429 . S
C544 N542 1.377 . S
C544 C547 1.411 . S
C545 H527 0.930 . S
C545 N542 1.321 . S
C545 C543 1.400 . S
C546 H541 0.930 . S
C546 C543 1.386 . S
C546 C547 1.395 . S
C547 C544 1.411 . S
C547 C546 1.395 . S
C547 C569 1.420 . S
O548 Eu504 2.558 . S
O548 C568 1.257 . S
O549 Eu504 2.612 . S
O549 Eu515 2.380 . S
O549 C560 1.276 . S
O550 Eu515 2.432 . S
O550 C567 1.264 . S
O551 Eu504 2.339 . S
O551 C567 1.254 . S
O552 Eu504 2.563 . S
O552 C560 1.235 . S
O553 Eu504 2.419 . S
O553 C568 1.249 . S
O554 Eu515 2.558 . S
O554 C579 1.257 . S
O555 Eu504 2.380 . S
O555 Eu515 2.612 . S
O555 C571 1.276 . S
O556 Eu504 2.432 . S
O556 C578 1.264 . S
O557 Eu515 2.339 . S
O557 C578 1.254 . S
O558 Eu515 2.563 . S
O558 C571 1.235 . S
O559 Eu515 2.419 . S
O559 C579 1.249 . S
C560 O549 1.276 . S
C560 O552 1.235 . S
C561 C563 1.393 . S
C561 C565 1.395 . S
C561 C568 1.492 . S
C562 C563 1.392 . S
C562 C564 1.386 . S
C563 C561 1.393 . S
C563 C562 1.392 . S
C563 H580 0.930 . S
C564 C562 1.386 . S
C564 C566 1.395 . S
C564 H581 0.930 . S
C565 C561 1.395 . S
C565 C566 1.379 . S
C565 H582 0.930 . S
C566 C564 1.395 . S
C566 C565 1.379 . S
C566 H583 0.930 . S
C567 O550 1.264 . S
C567 O551 1.254 . S
C568 Eu504 2.848 . S
C568 O548 1.257 . S
C568 O553 1.249 . S
C568 C561 1.492 . S
C569 H534 0.931 . S
C569 C547 1.420 . S
C569 C570 1.351 . S
C570 H532 0.930 . S
C570 C538 1.423 . S
C570 C569 1.351 . S
C571 O555 1.276 . S
C571 O558 1.235 . S
C572 C573 1.393 . S
C572 C576 1.395 . S
C572 C579 1.492 . S
C573 C572 1.393 . S
C573 C574 1.392 . S
C573 H584 0.930 . S
C574 C573 1.392 . S
C574 C575 1.386 . S
C575 C574 1.386 . S
C575 C577 1.395 . S
C575 H585 0.930 . S
C576 C572 1.395 . S
C576 C577 1.379 . S
C576 H586 0.930 . S
C577 C575 1.395 . S
C577 C576 1.379 . S
C577 H587 0.930 . S
C578 O556 1.264 . S
C578 O557 1.254 . S
C579 Eu515 2.848 . S
C579 O554 1.257 . S
C579 O559 1.249 . S
C579 C572 1.492 . S
H580 C563 0.930 . S
H581 C564 0.930 . S
H582 C565 0.930 . S
H583 C566 0.930 . S
H584 C573 0.930 . S
H585 C575 0.930 . S
H586 C576 0.930 . S
H587 C577 0.930 . S
Eu588 N619 2.657 . S
Eu588 N626 2.609 . S
Eu588 O632 2.558 . S
Eu588 O633 2.612 . S
Eu588 O635 2.339 . S
Eu588 O636 2.563 . S
Eu588 O637 2.419 . S
Eu588 O639 2.380 . S
Eu588 O640 2.432 . S
Eu588 C652 2.848 . S
C589 C592 1.429 . S
C589 C593 1.411 . S
C589 N596 1.377 . S
C590 C592 1.420 . S
C590 C594 1.423 . S
C590 C602 1.392 . S
C591 C593 1.420 . S
C591 C594 1.351 . S
C591 H614 0.931 . S
C592 C589 1.429 . S
C592 C590 1.420 . S
C592 N600 1.362 . S
C593 C589 1.411 . S
C593 C591 1.420 . S
C593 C598 1.395 . S
C594 C590 1.423 . S
C594 C591 1.351 . S
C594 H606 0.930 . S
C595 C597 1.400 . S
C595 C598 1.386 . S
C595 H607 0.930 . S
N596 C589 1.377 . S
N596 C597 1.321 . S
N596 Eu599 2.609 . S
C597 C595 1.400 . S
C597 N596 1.321 . S
C597 H604 0.930 . S
C598 C593 1.395 . S
C598 C595 1.386 . S
C598 H617 0.930 . S
Eu599 N596 2.609 . S
Eu599 N600 2.657 . S
Eu599 O633 2.380 . S
Eu599 O634 2.432 . S
Eu599 O638 2.558 . S
Eu599 O639 2.612 . S
Eu599 O641 2.339 . S
Eu599 O642 2.563 . S
Eu599 O643 2.419 . S
Eu599 C663 2.848 . S
N600 C592 1.362 . S
N600 Eu599 2.657 . S
N600 C601 1.334 . S
C601 N600 1.334 . S
C601 C603 1.413 . S
C601 H608 0.929 . S
C602 C590 1.392 . S
C602 C603 1.367 . S
C602 H610 0.930 . S
C603 C601 1.413 . S
C603 C602 1.367 . S
C603 H605 0.930 . S
H604 C597 0.930 . S
H605 C603 0.930 . S
H606 C594 0.930 . S
H607 C595 0.930 . S
H608 C601 0.929 . S
H609 C623 0.930 . S
H610 C602 0.930 . S
H611 C629 0.930 . S
H612 C620 0.929 . S
H613 C627 0.930 . S
H614 C591 0.931 . S
H615 C621 0.930 . S
H616 C654 0.930 . S
H617 C598 0.930 . S
H618 C653 0.931 . S
N619 Eu588 2.657 . S
N619 C620 1.334 . S
N619 C624 1.362 . S
C620 H612 0.929 . S
C620 N619 1.334 . S
C620 C623 1.413 . S
C621 H615 0.930 . S
C621 C622 1.392 . S
C621 C623 1.367 . S
C622 C621 1.392 . S
C622 C624 1.420 . S
C622 C654 1.423 . S
C623 H609 0.930 . S
C623 C620 1.413 . S
C623 C621 1.367 . S
C624 N619 1.362 . S
C624 C622 1.420 . S
C624 C628 1.429 . S
H625 C630 0.930 . S
N626 Eu588 2.609 . S
N626 C628 1.377 . S
N626 C629 1.321 . S
C627 H613 0.930 . S
C627 C629 1.400 . S
C627 C630 1.386 . S
C628 C624 1.429 . S
C628 N626 1.377 . S
C628 C631 1.411 . S
C629 H611 0.930 . S
C629 N626 1.321 . S
C629 C627 1.400 . S
C630 H625 0.930 . S
C630 C627 1.386 . S
C630 C631 1.395 . S
C631 C628 1.411 . S
C631 C630 1.395 . S
C631 C653 1.420 . S
O632 Eu588 2.558 . S
O632 C652 1.257 . S
O633 Eu588 2.612 . S
O633 Eu599 2.380 . S
O633 C644 1.276 . S
O634 Eu599 2.432 . S
O634 C651 1.264 . S
O635 Eu588 2.339 . S
O635 C651 1.254 . S
O636 Eu588 2.563 . S
O636 C644 1.235 . S
O637 Eu588 2.419 . S
O637 C652 1.249 . S
O638 Eu599 2.558 . S
O638 C663 1.257 . S
O639 Eu588 2.380 . S
O639 Eu599 2.612 . S
O639 C655 1.276 . S
O640 Eu588 2.432 . S
O640 C662 1.264 . S
O641 Eu599 2.339 . S
O641 C662 1.254 . S
O642 Eu599 2.563 . S
O642 C655 1.235 . S
O643 Eu599 2.419 . S
O643 C663 1.249 . S
C644 O633 1.276 . S
C644 O636 1.235 . S
C645 C647 1.393 . S
C645 C649 1.395 . S
C645 C652 1.492 . S
C646 C647 1.392 . S
C646 C648 1.386 . S
C647 C645 1.393 . S
C647 C646 1.392 . S
C647 H664 0.930 . S
C648 C646 1.386 . S
C648 C650 1.395 . S
C648 H665 0.930 . S
C649 C645 1.395 . S
C649 C650 1.379 . S
C649 H666 0.930 . S
C650 C648 1.395 . S
C650 C649 1.379 . S
C650 H667 0.930 . S
C651 O634 1.264 . S
C651 O635 1.254 . S
C652 Eu588 2.848 . S
C652 O632 1.257 . S
C652 O637 1.249 . S
C652 C645 1.492 . S
C653 H618 0.931 . S
C653 C631 1.420 . S
C653 C654 1.351 . S
C654 H616 0.930 . S
C654 C622 1.423 . S
C654 C653 1.351 . S
C655 O639 1.276 . S
C655 O642 1.235 . S
C656 C657 1.393 . S
C656 C660 1.395 . S
C656 C663 1.492 . S
C657 C656 1.393 . S
C657 C658 1.392 . S
C657 H668 0.930 . S
C658 C657 1.392 . S
C658 C659 1.386 . S
C659 C658 1.386 . S
C659 C661 1.395 . S
C659 H669 0.930 . S
C660 C656 1.395 . S
C660 C661 1.379 . S
C660 H670 0.930 . S
C661 C659 1.395 . S
C661 C660 1.379 . S
C661 H671 0.930 . S
C662 O640 1.264 . S
C662 O641 1.254 . S
C663 Eu599 2.848 . S
C663 O638 1.257 . S
C663 O643 1.249 . S
C663 C656 1.492 . S
H664 C647 0.930 . S
H665 C648 0.930 . S
H666 C649 0.930 . S
H667 C650 0.930 . S
H668 C657 0.930 . S
H669 C659 0.930 . S
H670 C660 0.930 . S
H671 C661 0.930 . S
Eu672 N703 2.657 . S
Eu672 N710 2.609 . S
Eu672 O716 2.558 . S
Eu672 O717 2.612 . S
Eu672 O719 2.339 . S
Eu672 O720 2.563 . S
Eu672 O721 2.419 . S
Eu672 O723 2.380 . S
Eu672 O724 2.432 . S
Eu672 C736 2.848 . S
C673 C676 1.429 . S
C673 C677 1.411 . S
C673 N680 1.377 . S
C674 C676 1.420 . S
C674 C678 1.423 . S
C674 C686 1.392 . S
C675 C677 1.420 . S
C675 C678 1.351 . S
C675 H698 0.931 . S
C676 C673 1.429 . S
C676 C674 1.420 . S
C676 N684 1.362 . S
C677 C673 1.411 . S
C677 C675 1.420 . S
C677 C682 1.395 . S
C678 C674 1.423 . S
C678 C675 1.351 . S
C678 H690 0.930 . S
C679 C681 1.400 . S
C679 C682 1.386 . S
C679 H691 0.930 . S
N680 C673 1.377 . S
N680 C681 1.321 . S
N680 Eu683 2.609 . S
C681 C679 1.400 . S
C681 N680 1.321 . S
C681 H688 0.930 . S
C682 C677 1.395 . S
C682 C679 1.386 . S
C682 H701 0.930 . S
Eu683 N680 2.609 . S
Eu683 N684 2.657 . S
Eu683 O717 2.380 . S
Eu683 O718 2.432 . S
Eu683 O722 2.558 . S
Eu683 O723 2.612 . S
Eu683 O725 2.339 . S
Eu683 O726 2.563 . S
Eu683 O727 2.419 . S
Eu683 C747 2.848 . S
N684 C676 1.362 . S
N684 Eu683 2.657 . S
N684 C685 1.334 . S
C685 N684 1.334 . S
C685 C687 1.413 . S
C685 H692 0.929 . S
C686 C674 1.392 . S
C686 C687 1.367 . S
C686 H694 0.930 . S
C687 C685 1.413 . S
C687 C686 1.367 . S
C687 H689 0.930 . S
H688 C681 0.930 . S
H689 C687 0.930 . S
H690 C678 0.930 . S
H691 C679 0.930 . S
H692 C685 0.929 . S
H693 C707 0.930 . S
H694 C686 0.930 . S
H695 C713 0.930 . S
H696 C704 0.929 . S
H697 C711 0.930 . S
H698 C675 0.931 . S
H699 C705 0.930 . S
H700 C738 0.930 . S
H701 C682 0.930 . S
H702 C737 0.931 . S
N703 Eu672 2.657 . S
N703 C704 1.334 . S
N703 C708 1.362 . S
C704 H696 0.929 . S
C704 N703 1.334 . S
C704 C707 1.413 . S
C705 H699 0.930 . S
C705 C706 1.392 . S
C705 C707 1.367 . S
C706 C705 1.392 . S
C706 C708 1.420 . S
C706 C738 1.423 . S
C707 H693 0.930 . S
C707 C704 1.413 . S
C707 C705 1.367 . S
C708 N703 1.362 . S
C708 C706 1.420 . S
C708 C712 1.429 . S
H709 C714 0.930 . S
N710 Eu672 2.609 . S
N710 C712 1.377 . S
N710 C713 1.321 . S
C711 H697 0.930 . S
C711 C713 1.400 . S
C711 C714 1.386 . S
C712 C708 1.429 . S
C712 N710 1.377 . S
C712 C715 1.411 . S
C713 H695 0.930 . S
C713 N710 1.321 . S
C713 C711 1.400 . S
C714 H709 0.930 . S
C714 C711 1.386 . S
C714 C715 1.395 . S
C715 C712 1.411 . S
C715 C714 1.395 . S
C715 C737 1.420 . S
O716 Eu672 2.558 . S
O716 C736 1.257 . S
O717 Eu672 2.612 . S
O717 Eu683 2.380 . S
O717 C728 1.276 . S
O718 Eu683 2.432 . S
O718 C735 1.264 . S
O719 Eu672 2.339 . S
O719 C735 1.254 . S
O720 Eu672 2.563 . S
O720 C728 1.235 . S
O721 Eu672 2.419 . S
O721 C736 1.249 . S
O722 Eu683 2.558 . S
O722 C747 1.257 . S
O723 Eu672 2.380 . S
O723 Eu683 2.612 . S
O723 C739 1.276 . S
O724 Eu672 2.432 . S
O724 C746 1.264 . S
O725 Eu683 2.339 . S
O725 C746 1.254 . S
O726 Eu683 2.563 . S
O726 C739 1.235 . S
O727 Eu683 2.419 . S
O727 C747 1.249 . S
C728 O717 1.276 . S
C728 O720 1.235 . S
C729 C731 1.393 . S
C729 C733 1.395 . S
C729 C736 1.492 . S
C730 C731 1.392 . S
C730 C732 1.386 . S
C731 C729 1.393 . S
C731 C730 1.392 . S
C731 H748 0.930 . S
C732 C730 1.386 . S
C732 C734 1.395 . S
C732 H749 0.930 . S
C733 C729 1.395 . S
C733 C734 1.379 . S
C733 H750 0.930 . S
C734 C732 1.395 . S
C734 C733 1.379 . S
C734 H751 0.930 . S
C735 O718 1.264 . S
C735 O719 1.254 . S
C736 Eu672 2.848 . S
C736 O716 1.257 . S
C736 O721 1.249 . S
C736 C729 1.492 . S
C737 H702 0.931 . S
C737 C715 1.420 . S
C737 C738 1.351 . S
C738 H700 0.930 . S
C738 C706 1.423 . S
C738 C737 1.351 . S
C739 O723 1.276 . S
C739 O726 1.235 . S
C740 C741 1.393 . S
C740 C744 1.395 . S
C740 C747 1.492 . S
C741 C740 1.393 . S
C741 C742 1.392 . S
C741 H752 0.930 . S
C742 C741 1.392 . S
C742 C743 1.386 . S
C743 C742 1.386 . S
C743 C745 1.395 . S
C743 H753 0.930 . S
C744 C740 1.395 . S
C744 C745 1.379 . S
C744 H754 0.930 . S
C745 C743 1.395 . S
C745 C744 1.379 . S
C745 H755 0.930 . S
C746 O724 1.264 . S
C746 O725 1.254 . S
C747 Eu683 2.848 . S
C747 O722 1.257 . S
C747 O727 1.249 . S
C747 C740 1.492 . S
H748 C731 0.930 . S
H749 C732 0.930 . S
H750 C733 0.930 . S
H751 C734 0.930 . S
H752 C741 0.930 . S
H753 C743 0.930 . S
H754 C744 0.930 . S
H755 C745 0.930 . S
Eu756 N787 2.657 . S
Eu756 N794 2.609 . S
Eu756 O800 2.558 . S
Eu756 O801 2.612 . S
Eu756 O803 2.339 . S
Eu756 O804 2.563 . S
Eu756 O805 2.419 . S
Eu756 O807 2.380 . S
Eu756 O808 2.432 . S
Eu756 C820 2.848 . S
C757 C760 1.429 . S
C757 C761 1.411 . S
C757 N764 1.377 . S
C758 C760 1.420 . S
C758 C762 1.423 . S
C758 C770 1.392 . S
C759 C761 1.420 . S
C759 C762 1.351 . S
C759 H782 0.931 . S
C760 C757 1.429 . S
C760 C758 1.420 . S
C760 N768 1.362 . S
C761 C757 1.411 . S
C761 C759 1.420 . S
C761 C766 1.395 . S
C762 C758 1.423 . S
C762 C759 1.351 . S
C762 H774 0.930 . S
C763 C765 1.400 . S
C763 C766 1.386 . S
C763 H775 0.930 . S
N764 C757 1.377 . S
N764 C765 1.321 . S
N764 Eu767 2.609 . S
C765 C763 1.400 . S
C765 N764 1.321 . S
C765 H772 0.930 . S
C766 C761 1.395 . S
C766 C763 1.386 . S
C766 H785 0.930 . S
Eu767 N764 2.609 . S
Eu767 N768 2.657 . S
Eu767 O801 2.380 . S
Eu767 O802 2.432 . S
Eu767 O806 2.558 . S
Eu767 O807 2.612 . S
Eu767 O809 2.339 . S
Eu767 O810 2.563 . S
Eu767 O811 2.419 . S
Eu767 C831 2.848 . S
N768 C760 1.362 . S
N768 Eu767 2.657 . S
N768 C769 1.334 . S
C769 N768 1.334 . S
C769 C771 1.413 . S
C769 H776 0.929 . S
C770 C758 1.392 . S
C770 C771 1.367 . S
C770 H778 0.930 . S
C771 C769 1.413 . S
C771 C770 1.367 . S
C771 H773 0.930 . S
H772 C765 0.930 . S
H773 C771 0.930 . S
H774 C762 0.930 . S
H775 C763 0.930 . S
H776 C769 0.929 . S
H777 C791 0.930 . S
H778 C770 0.930 . S
H779 C797 0.930 . S
H780 C788 0.929 . S
H781 C795 0.930 . S
H782 C759 0.931 . S
H783 C789 0.930 . S
H784 C822 0.930 . S
H785 C766 0.930 . S
H786 C821 0.931 . S
N787 Eu756 2.657 . S
N787 C788 1.334 . S
N787 C792 1.362 . S
C788 H780 0.929 . S
C788 N787 1.334 . S
C788 C791 1.413 . S
C789 H783 0.930 . S
C789 C790 1.392 . S
C789 C791 1.367 . S
C790 C789 1.392 . S
C790 C792 1.420 . S
C790 C822 1.423 . S
C791 H777 0.930 . S
C791 C788 1.413 . S
C791 C789 1.367 . S
C792 N787 1.362 . S
C792 C790 1.420 . S
C792 C796 1.429 . S
H793 C798 0.930 . S
N794 Eu756 2.609 . S
N794 C796 1.377 . S
N794 C797 1.321 . S
C795 H781 0.930 . S
C795 C797 1.400 . S
C795 C798 1.386 . S
C796 C792 1.429 . S
C796 N794 1.377 . S
C796 C799 1.411 . S
C797 H779 0.930 . S
C797 N794 1.321 . S
C797 C795 1.400 . S
C798 H793 0.930 . S
C798 C795 1.386 . S
C798 C799 1.395 . S
C799 C796 1.411 . S
C799 C798 1.395 . S
C799 C821 1.420 . S
O800 Eu756 2.558 . S
O800 C820 1.257 . S
O801 Eu756 2.612 . S
O801 Eu767 2.380 . S
O801 C812 1.276 . S
O802 Eu767 2.432 . S
O802 C819 1.264 . S
O803 Eu756 2.339 . S
O803 C819 1.254 . S
O804 Eu756 2.563 . S
O804 C812 1.235 . S
O805 Eu756 2.419 . S
O805 C820 1.249 . S
O806 Eu767 2.558 . S
O806 C831 1.257 . S
O807 Eu756 2.380 . S
O807 Eu767 2.612 . S
O807 C823 1.276 . S
O808 Eu756 2.432 . S
O808 C830 1.264 . S
O809 Eu767 2.339 . S
O809 C830 1.254 . S
O810 Eu767 2.563 . S
O810 C823 1.235 . S
O811 Eu767 2.419 . S
O811 C831 1.249 . S
C812 O801 1.276 . S
C812 O804 1.235 . S
C813 C815 1.393 . S
C813 C817 1.395 . S
C813 C820 1.492 . S
C814 C815 1.392 . S
C814 C816 1.386 . S
C815 C813 1.393 . S
C815 C814 1.392 . S
C815 H832 0.930 . S
C816 C814 1.386 . S
C816 C818 1.395 . S
C816 H833 0.930 . S
C817 C813 1.395 . S
C817 C818 1.379 . S
C817 H834 0.930 . S
C818 C816 1.395 . S
C818 C817 1.379 . S
C818 H835 0.930 . S
C819 O802 1.264 . S
C819 O803 1.254 . S
C820 Eu756 2.848 . S
C820 O800 1.257 . S
C820 O805 1.249 . S
C820 C813 1.492 . S
C821 H786 0.931 . S
C821 C799 1.420 . S
C821 C822 1.351 . S
C822 H784 0.930 . S
C822 C790 1.423 . S
C822 C821 1.351 . S
C823 O807 1.276 . S
C823 O810 1.235 . S
C824 C825 1.393 . S
C824 C828 1.395 . S
C824 C831 1.492 . S
C825 C824 1.393 . S
C825 C826 1.392 1_554 S
C825 H836 0.930 . S
C826 C825 1.392 1_556 S
C826 C827 1.386 . S
C827 C826 1.386 . S
C827 C829 1.395 1_556 S
C827 H837 0.930 . S
C828 C824 1.395 . S
C828 C829 1.379 . S
C828 H838 0.930 . S
C829 C827 1.395 1_554 S
C829 C828 1.379 . S
C829 H839 0.930 . S
C830 O808 1.264 . S
C830 O809 1.254 . S
C831 Eu767 2.848 . S
C831 O806 1.257 . S
C831 O811 1.249 . S
C831 C824 1.492 . S
H832 C815 0.930 . S
H833 C816 0.930 . S
H834 C817 0.930 . S
H835 C818 0.930 . S
H836 C825 0.930 . S
H837 C827 0.930 . S
H838 C828 0.930 . S
H839 C829 0.930 . S
Eu840 N871 2.657 . S
Eu840 N878 2.609 . S
Eu840 O884 2.558 . S
Eu840 O885 2.612 . S
Eu840 O887 2.339 . S
Eu840 O888 2.563 . S
Eu840 O889 2.419 . S
Eu840 O891 2.380 . S
Eu840 O892 2.432 . S
Eu840 C904 2.848 . S
C841 C844 1.429 . S
C841 C845 1.411 . S
C841 N848 1.377 . S
C842 C844 1.420 . S
C842 C846 1.423 . S
C842 C854 1.392 . S
C843 C845 1.420 . S
C843 C846 1.351 . S
C843 H866 0.931 . S
C844 C841 1.429 . S
C844 C842 1.420 . S
C844 N852 1.362 . S
C845 C841 1.411 . S
C845 C843 1.420 . S
C845 C850 1.395 . S
C846 C842 1.423 . S
C846 C843 1.351 . S
C846 H858 0.930 . S
C847 C849 1.400 . S
C847 C850 1.386 . S
C847 H859 0.930 . S
N848 C841 1.377 . S
N848 C849 1.321 . S
N848 Eu851 2.609 . S
C849 C847 1.400 . S
C849 N848 1.321 . S
C849 H856 0.930 . S
C850 C845 1.395 . S
C850 C847 1.386 . S
C850 H869 0.930 . S
Eu851 N848 2.609 . S
Eu851 N852 2.657 . S
Eu851 O885 2.380 . S
Eu851 O886 2.432 . S
Eu851 O890 2.558 . S
Eu851 O891 2.612 . S
Eu851 O893 2.339 . S
Eu851 O894 2.563 . S
Eu851 O895 2.419 . S
Eu851 C915 2.848 . S
N852 C844 1.362 . S
N852 Eu851 2.657 . S
N852 C853 1.334 . S
C853 N852 1.334 . S
C853 C855 1.413 . S
C853 H860 0.929 . S
C854 C842 1.392 . S
C854 C855 1.367 . S
C854 H862 0.930 . S
C855 C853 1.413 . S
C855 C854 1.367 . S
C855 H857 0.930 . S
H856 C849 0.930 . S
H857 C855 0.930 . S
H858 C846 0.930 . S
H859 C847 0.930 . S
H860 C853 0.929 . S
H861 C875 0.930 . S
H862 C854 0.930 . S
H863 C881 0.930 . S
H864 C872 0.929 . S
H865 C879 0.930 . S
H866 C843 0.931 . S
H867 C873 0.930 . S
H868 C906 0.930 . S
H869 C850 0.930 . S
H870 C905 0.931 . S
N871 Eu840 2.657 . S
N871 C872 1.334 . S
N871 C876 1.362 . S
C872 H864 0.929 . S
C872 N871 1.334 . S
C872 C875 1.413 . S
C873 H867 0.930 . S
C873 C874 1.392 . S
C873 C875 1.367 . S
C874 C873 1.392 . S
C874 C876 1.420 . S
C874 C906 1.423 . S
C875 H861 0.930 . S
C875 C872 1.413 . S
C875 C873 1.367 . S
C876 N871 1.362 . S
C876 C874 1.420 . S
C876 C880 1.429 . S
H877 C882 0.930 . S
N878 Eu840 2.609 . S
N878 C880 1.377 . S
N878 C881 1.321 . S
C879 H865 0.930 . S
C879 C881 1.400 . S
C879 C882 1.386 . S
C880 C876 1.429 . S
C880 N878 1.377 . S
C880 C883 1.411 . S
C881 H863 0.930 . S
C881 N878 1.321 . S
C881 C879 1.400 . S
C882 H877 0.930 . S
C882 C879 1.386 . S
C882 C883 1.395 . S
C883 C880 1.411 . S
C883 C882 1.395 . S
C883 C905 1.420 . S
O884 Eu840 2.558 . S
O884 C904 1.257 . S
O885 Eu840 2.612 . S
O885 Eu851 2.380 . S
O885 C896 1.276 . S
O886 Eu851 2.432 . S
O886 C903 1.264 . S
O887 Eu840 2.339 . S
O887 C903 1.254 . S
O888 Eu840 2.563 . S
O888 C896 1.235 . S
O889 Eu840 2.419 . S
O889 C904 1.249 . S
O890 Eu851 2.558 . S
O890 C915 1.257 . S
O891 Eu840 2.380 . S
O891 Eu851 2.612 . S
O891 C907 1.276 . S
O892 Eu840 2.432 . S
O892 C914 1.264 . S
O893 Eu851 2.339 . S
O893 C914 1.254 . S
O894 Eu851 2.563 . S
O894 C907 1.235 . S
O895 Eu851 2.419 . S
O895 C915 1.249 . S
C896 O885 1.276 . S
C896 O888 1.235 . S
C897 C899 1.393 . S
C897 C901 1.395 . S
C897 C904 1.492 . S
C898 C899 1.392 . S
C898 C900 1.386 . S
C899 C897 1.393 . S
C899 C898 1.392 . S
C899 H916 0.930 . S
C900 C898 1.386 . S
C900 C902 1.395 . S
C900 H917 0.930 . S
C901 C897 1.395 . S
C901 C902 1.379 . S
C901 H918 0.930 . S
C902 C900 1.395 . S
C902 C901 1.379 . S
C902 H919 0.930 . S
C903 O886 1.264 . S
C903 O887 1.254 . S
C904 Eu840 2.848 . S
C904 O884 1.257 . S
C904 O889 1.249 . S
C904 C897 1.492 . S
C905 H870 0.931 . S
C905 C883 1.420 . S
C905 C906 1.351 . S
C906 H868 0.930 . S
C906 C874 1.423 . S
C906 C905 1.351 . S
C907 O891 1.276 . S
C907 O894 1.235 . S
C908 C909 1.393 . S
C908 C912 1.395 . S
C908 C915 1.492 . S
C909 C908 1.393 . S
C909 C910 1.392 . S
C909 H920 0.930 . S
C910 C909 1.392 . S
C910 C911 1.386 . S
C911 C910 1.386 . S
C911 C913 1.395 . S
C911 H921 0.930 1_556 S
C912 C908 1.395 . S
C912 C913 1.379 . S
C912 H922 0.930 . S
C913 C911 1.395 . S
C913 C912 1.379 . S
C913 H923 0.930 . S
C914 O892 1.264 . S
C914 O893 1.254 . S
C915 Eu851 2.848 . S
C915 O890 1.257 . S
C915 O895 1.249 . S
C915 C908 1.492 . S
H916 C899 0.930 . S
H917 C900 0.930 . S
H918 C901 0.930 . S
H919 C902 0.930 . S
H920 C909 0.930 . S
H921 C911 0.930 1_554 S
H922 C912 0.930 . S
H923 C913 0.930 . S
Eu924 N955 2.657 . S
Eu924 N962 2.609 . S
Eu924 O968 2.558 . S
Eu924 O969 2.612 . S
Eu924 O971 2.339 . S
Eu924 O972 2.563 . S
Eu924 O973 2.419 . S
Eu924 O975 2.380 . S
Eu924 O976 2.432 . S
Eu924 C988 2.848 . S
C925 C928 1.429 . S
C925 C929 1.411 . S
C925 N932 1.377 . S
C926 C928 1.420 . S
C926 C930 1.423 . S
C926 C938 1.392 . S
C927 C929 1.420 . S
C927 C930 1.351 . S
C927 H950 0.931 . S
C928 C925 1.429 . S
C928 C926 1.420 . S
C928 N936 1.362 . S
C929 C925 1.411 . S
C929 C927 1.420 . S
C929 C934 1.395 . S
C930 C926 1.423 . S
C930 C927 1.351 . S
C930 H942 0.930 . S
C931 C933 1.400 . S
C931 C934 1.386 . S
C931 H943 0.930 1_655 S
N932 C925 1.377 . S
N932 C933 1.321 . S
N932 Eu935 2.609 . S
C933 C931 1.400 . S
C933 N932 1.321 . S
C933 H940 0.930 . S
C934 C929 1.395 . S
C934 C931 1.386 . S
C934 H953 0.930 . S
Eu935 N932 2.609 . S
Eu935 N936 2.657 . S
Eu935 O969 2.380 . S
Eu935 O970 2.432 . S
Eu935 O974 2.558 . S
Eu935 O975 2.612 . S
Eu935 O977 2.339 . S
Eu935 O978 2.563 . S
Eu935 O979 2.419 . S
Eu935 C999 2.848 . S
N936 C928 1.362 . S
N936 Eu935 2.657 . S
N936 C937 1.334 . S
C937 N936 1.334 . S
C937 C939 1.413 . S
C937 H944 0.929 . S
C938 C926 1.392 . S
C938 C939 1.367 . S
C938 H946 0.930 . S
C939 C937 1.413 . S
C939 C938 1.367 . S
C939 H941 0.930 . S
H940 C933 0.930 . S
H941 C939 0.930 . S
H942 C930 0.930 . S
H943 C931 0.930 1_455 S
H944 C937 0.929 . S
H945 C959 0.930 . S
H946 C938 0.930 . S
H947 C965 0.930 . S
H948 C956 0.929 . S
H949 C963 0.930 . S
H950 C927 0.931 . S
H951 C957 0.930 . S
H952 C990 0.930 . S
H953 C934 0.930 . S
H954 C989 0.931 . S
N955 Eu924 2.657 . S
N955 C956 1.334 . S
N955 C960 1.362 . S
C956 H948 0.929 . S
C956 N955 1.334 . S
C956 C959 1.413 . S
C957 H951 0.930 . S
C957 C958 1.392 . S
C957 C959 1.367 . S
C958 C957 1.392 . S
C958 C960 1.420 . S
C958 C990 1.423 . S
C959 H945 0.930 . S
C959 C956 1.413 . S
C959 C957 1.367 . S
C960 N955 1.362 . S
C960 C958 1.420 . S
C960 C964 1.429 . S
H961 C966 0.930 . S
N962 Eu924 2.609 . S
N962 C964 1.377 . S
N962 C965 1.321 . S
C963 H949 0.930 . S
C963 C965 1.400 . S
C963 C966 1.386 . S
C964 C960 1.429 . S
C964 N962 1.377 . S
C964 C967 1.411 . S
C965 H947 0.930 . S
C965 N962 1.321 . S
C965 C963 1.400 . S
C966 H961 0.930 . S
C966 C963 1.386 . S
C966 C967 1.395 . S
C967 C964 1.411 . S
C967 C966 1.395 . S
C967 C989 1.420 . S
O968 Eu924 2.558 . S
O968 C988 1.257 . S
O969 Eu924 2.612 . S
O969 Eu935 2.380 . S
O969 C980 1.276 . S
O970 Eu935 2.432 . S
O970 C987 1.264 . S
O971 Eu924 2.339 . S
O971 C987 1.254 . S
O972 Eu924 2.563 . S
O972 C980 1.235 . S
O973 Eu924 2.419 . S
O973 C988 1.249 . S
O974 Eu935 2.558 . S
O974 C999 1.257 . S
O975 Eu924 2.380 . S
O975 Eu935 2.612 . S
O975 C991 1.276 . S
O976 Eu924 2.432 . S
O976 C998 1.264 . S
O977 Eu935 2.339 . S
O977 C998 1.254 . S
O978 Eu935 2.563 . S
O978 C991 1.235 . S
O979 Eu935 2.419 . S
O979 C999 1.249 . S
C980 O969 1.276 . S
C980 O972 1.235 . S
C981 C983 1.393 . S
C981 C985 1.395 . S
C981 C988 1.492 . S
C982 C983 1.392 . S
C982 C984 1.386 . S
C983 C981 1.393 . S
C983 C982 1.392 . S
C983 H1000 0.930 . S
C984 C982 1.386 . S
C984 C986 1.395 . S
C984 H1001 0.930 . S
C985 C981 1.395 . S
C985 C986 1.379 . S
C985 H1002 0.930 . S
C986 C984 1.395 . S
C986 C985 1.379 . S
C986 H1003 0.930 . S
C987 O970 1.264 . S
C987 O971 1.254 . S
C988 Eu924 2.848 . S
C988 O968 1.257 . S
C988 O973 1.249 . S
C988 C981 1.492 . S
C989 H954 0.931 . S
C989 C967 1.420 . S
C989 C990 1.351 . S
C990 H952 0.930 . S
C990 C958 1.423 . S
C990 C989 1.351 . S
C991 O975 1.276 . S
C991 O978 1.235 . S
C992 C993 1.393 . S
C992 C996 1.395 . S
C992 C999 1.492 . S
C993 C992 1.393 . S
C993 C994 1.392 . S
C993 H1004 0.930 . S
C994 C993 1.392 . S
C994 C995 1.386 . S
C995 C994 1.386 . S
C995 C997 1.395 . S
C995 H1005 0.930 . S
C996 C992 1.395 . S
C996 C997 1.379 . S
C996 H1006 0.930 . S
C997 C995 1.395 . S
C997 C996 1.379 . S
C997 H1007 0.930 . S
C998 O976 1.264 . S
C998 O977 1.254 . S
C999 Eu935 2.848 . S
C999 O974 1.257 . S
C999 O979 1.249 . S
C999 C992 1.492 . S
H1000 C983 0.930 . S
H1001 C984 0.930 . S
H1002 C985 0.930 . S
H1003 C986 0.930 . S
H1004 C993 0.930 . S
H1005 C995 0.930 . S
H1006 C996 0.930 . S
H1007 C997 0.930 . S
Eu1008 N1039 2.657 . S
Eu1008 N1046 2.609 . S
Eu1008 O1052 2.558 . S
Eu1008 O1053 2.612 . S
Eu1008 O1055 2.339 . S
Eu1008 O1056 2.563 . S
Eu1008 O1057 2.419 . S
Eu1008 O1059 2.380 . S
Eu1008 O1060 2.432 . S
Eu1008 C1072 2.848 . S
C1009 C1012 1.429 . S
C1009 C1013 1.411 . S
C1009 N1016 1.377 . S
C1010 C1012 1.420 . S
C1010 C1014 1.423 . S
C1010 C1022 1.392 . S
C1011 C1013 1.420 . S
C1011 C1014 1.351 . S
C1011 H1034 0.931 . S
C1012 C1009 1.429 . S
C1012 C1010 1.420 . S
C1012 N1020 1.362 . S
C1013 C1009 1.411 . S
C1013 C1011 1.420 . S
C1013 C1018 1.395 . S
C1014 C1010 1.423 . S
C1014 C1011 1.351 . S
C1014 H1026 0.930 . S
C1015 C1017 1.400 . S
C1015 C1018 1.386 . S
C1015 H1027 0.930 . S
N1016 C1009 1.377 . S
N1016 C1017 1.321 . S
N1016 Eu1019 2.609 . S
C1017 C1015 1.400 . S
C1017 N1016 1.321 . S
C1017 H1024 0.930 . S
C1018 C1013 1.395 . S
C1018 C1015 1.386 . S
C1018 H1037 0.930 . S
Eu1019 N1016 2.609 . S
Eu1019 N1020 2.657 . S
Eu1019 O1053 2.380 . S
Eu1019 O1054 2.432 . S
Eu1019 O1058 2.558 . S
Eu1019 O1059 2.612 . S
Eu1019 O1061 2.339 . S
Eu1019 O1062 2.563 . S
Eu1019 O1063 2.419 . S
Eu1019 C1083 2.848 . S
N1020 C1012 1.362 . S
N1020 Eu1019 2.657 . S
N1020 C1021 1.334 . S
C1021 N1020 1.334 . S
C1021 C1023 1.413 . S
C1021 H1028 0.929 . S
C1022 C1010 1.392 . S
C1022 C1023 1.367 . S
C1022 H1030 0.930 . S
C1023 C1021 1.413 . S
C1023 C1022 1.367 . S
C1023 H1025 0.930 . S
H1024 C1017 0.930 . S
H1025 C1023 0.930 . S
H1026 C1014 0.930 . S
H1027 C1015 0.930 . S
H1028 C1021 0.929 . S
H1029 C1043 0.930 . S
H1030 C1022 0.930 . S
H1031 C1049 0.930 . S
H1032 C1040 0.929 . S
H1033 C1047 0.930 . S
H1034 C1011 0.931 . S
H1035 C1041 0.930 . S
H1036 C1074 0.930 . S
H1037 C1018 0.930 . S
H1038 C1073 0.931 . S
N1039 Eu1008 2.657 . S
N1039 C1040 1.334 . S
N1039 C1044 1.362 . S
C1040 H1032 0.929 . S
C1040 N1039 1.334 . S
C1040 C1043 1.413 . S
C1041 H1035 0.930 . S
C1041 C1042 1.392 . S
C1041 C1043 1.367 . S
C1042 C1041 1.392 . S
C1042 C1044 1.420 . S
C1042 C1074 1.423 . S
C1043 H1029 0.930 . S
C1043 C1040 1.413 . S
C1043 C1041 1.367 . S
C1044 N1039 1.362 . S
C1044 C1042 1.420 . S
C1044 C1048 1.429 . S
H1045 C1050 0.930 . S
N1046 Eu1008 2.609 . S
N1046 C1048 1.377 . S
N1046 C1049 1.321 . S
C1047 H1033 0.930 . S
C1047 C1049 1.400 . S
C1047 C1050 1.386 . S
C1048 C1044 1.429 . S
C1048 N1046 1.377 . S
C1048 C1051 1.411 . S
C1049 H1031 0.930 . S
C1049 N1046 1.321 . S
C1049 C1047 1.400 . S
C1050 H1045 0.930 . S
C1050 C1047 1.386 . S
C1050 C1051 1.395 . S
C1051 C1048 1.411 . S
C1051 C1050 1.395 . S
C1051 C1073 1.420 . S
O1052 Eu1008 2.558 . S
O1052 C1072 1.257 . S
O1053 Eu1008 2.612 . S
O1053 Eu1019 2.380 . S
O1053 C1064 1.276 . S
O1054 Eu1019 2.432 . S
O1054 C1071 1.264 . S
O1055 Eu1008 2.339 . S
O1055 C1071 1.254 . S
O1056 Eu1008 2.563 . S
O1056 C1064 1.235 . S
O1057 Eu1008 2.419 . S
O1057 C1072 1.249 . S
O1058 Eu1019 2.558 . S
O1058 C1083 1.257 . S
O1059 Eu1008 2.380 . S
O1059 Eu1019 2.612 . S
O1059 C1075 1.276 . S
O1060 Eu1008 2.432 . S
O1060 C1082 1.264 . S
O1061 Eu1019 2.339 . S
O1061 C1082 1.254 . S
O1062 Eu1019 2.563 . S
O1062 C1075 1.235 . S
O1063 Eu1019 2.419 . S
O1063 C1083 1.249 . S
C1064 O1053 1.276 . S
C1064 O1056 1.235 . S
C1065 C1067 1.393 . S
C1065 C1069 1.395 . S
C1065 C1072 1.492 . S
C1066 C1067 1.392 . S
C1066 C1068 1.386 . S
C1067 C1065 1.393 . S
C1067 C1066 1.392 . S
C1067 H1084 0.930 . S
C1068 C1066 1.386 . S
C1068 C1070 1.395 . S
C1068 H1085 0.930 . S
C1069 C1065 1.395 . S
C1069 C1070 1.379 . S
C1069 H1086 0.930 . S
C1070 C1068 1.395 . S
C1070 C1069 1.379 . S
C1070 H1087 0.930 . S
C1071 O1054 1.264 . S
C1071 O1055 1.254 . S
C1072 Eu1008 2.848 . S
C1072 O1052 1.257 . S
C1072 O1057 1.249 . S
C1072 C1065 1.492 . S
C1073 H1038 0.931 . S
C1073 C1051 1.420 . S
C1073 C1074 1.351 . S
C1074 H1036 0.930 . S
C1074 C1042 1.423 . S
C1074 C1073 1.351 . S
C1075 O1059 1.276 . S
C1075 O1062 1.235 . S
C1076 C1077 1.393 . S
C1076 C1080 1.395 . S
C1076 C1083 1.492 . S
C1077 C1076 1.393 . S
C1077 C1078 1.392 . S
C1077 H1088 0.930 . S
C1078 C1077 1.392 . S
C1078 C1079 1.386 . S
C1079 C1078 1.386 . S
C1079 C1081 1.395 . S
C1079 H1089 0.930 . S
C1080 C1076 1.395 . S
C1080 C1081 1.379 . S
C1080 H1090 0.930 . S
C1081 C1079 1.395 . S
C1081 C1080 1.379 . S
C1081 H1091 0.930 . S
C1082 O1060 1.264 . S
C1082 O1061 1.254 . S
C1083 Eu1019 2.848 . S
C1083 O1058 1.257 . S
C1083 O1063 1.249 . S
C1083 C1076 1.492 . S
H1084 C1067 0.930 . S
H1085 C1068 0.930 . S
H1086 C1069 0.930 . S
H1087 C1070 0.930 . S
H1088 C1077 0.930 . S
H1089 C1079 0.930 . S
H1090 C1080 0.930 . S
H1091 C1081 0.930 . S
Eu1092 N1123 2.657 1_455 S
Eu1092 N1130 2.609 1_455 S
Eu1092 O1136 2.558 1_455 S
Eu1092 O1137 2.612 . S
Eu1092 O1139 2.339 . S
Eu1092 O1140 2.563 . S
Eu1092 O1141 2.412 1_455 S
Eu1092 O1143 2.380 . S
Eu1092 O1144 2.432 . S
Eu1092 C1156 2.848 1_455 S
C1093 C1096 1.429 . S
C1093 C1097 1.411 . S
C1093 N1100 1.377 . S
C1094 C1096 1.420 . S
C1094 C1098 1.423 . S
C1094 C1106 1.392 . S
C1095 C1097 1.420 . S
C1095 C1098 1.351 . S
C1095 H1118 0.931 . S
C1096 C1093 1.429 . S
C1096 C1094 1.420 . S
C1096 N1104 1.362 . S
C1097 C1093 1.411 . S
C1097 C1095 1.420 . S
C1097 C1102 1.395 . S
C1098 C1094 1.423 . S
C1098 C1095 1.351 . S
C1098 H1110 0.930 . S
C1099 C1101 1.400 . S
C1099 C1102 1.386 . S
C1099 H1111 0.930 . S
N1100 C1093 1.377 . S
N1100 C1101 1.321 . S
N1100 Eu1103 2.609 . S
C1101 C1099 1.400 . S
C1101 N1100 1.321 . S
C1101 H1108 0.930 . S
C1102 C1097 1.395 . S
C1102 C1099 1.386 . S
C1102 H1121 0.930 . S
Eu1103 N1100 2.609 . S
Eu1103 N1104 2.657 . S
Eu1103 O1137 2.380 . S
Eu1103 O1138 2.432 . S
Eu1103 O1142 2.558 . S
Eu1103 O1143 2.612 . S
Eu1103 O1145 2.339 . S
Eu1103 O1146 2.563 . S
Eu1103 O1147 2.419 . S
Eu1103 C1167 2.848 . S
N1104 C1096 1.362 . S
N1104 Eu1103 2.657 . S
N1104 C1105 1.334 . S
C1105 N1104 1.334 . S
C1105 C1107 1.413 . S
C1105 H1112 0.929 . S
C1106 C1094 1.392 . S
C1106 C1107 1.367 . S
C1106 H1114 0.930 . S
C1107 C1105 1.413 . S
C1107 C1106 1.367 . S
C1107 H1109 0.930 . S
H1108 C1101 0.930 . S
H1109 C1107 0.930 . S
H1110 C1098 0.930 . S
H1111 C1099 0.930 . S
H1112 C1105 0.929 . S
H1113 C1127 0.930 . S
H1114 C1106 0.930 . S
H1115 C1133 0.930 . S
H1116 C1124 0.929 1_455 S
H1117 C1131 0.930 . S
H1118 C1095 0.931 . S
H1119 C1125 0.930 . S
H1120 C1158 0.930 . S
H1121 C1102 0.930 . S
H1122 C1157 0.931 . S
N1123 Eu1092 2.657 1_655 S
N1123 C1124 1.334 . S
N1123 C1128 1.362 . S
C1124 H1116 0.929 1_655 S
C1124 N1123 1.334 . S
C1124 C1127 1.413 . S
C1125 H1119 0.930 . S
C1125 C1126 1.392 . S
C1125 C1127 1.367 . S
C1126 C1125 1.392 . S
C1126 C1128 1.420 . S
C1126 C1158 1.423 . S
C1127 H1113 0.930 . S
C1127 C1124 1.413 . S
C1127 C1125 1.367 . S
C1128 N1123 1.362 . S
C1128 C1126 1.420 . S
C1128 C1132 1.429 . S
H1129 C1134 0.930 . S
N1130 Eu1092 2.609 1_655 S
N1130 C1132 1.377 . S
N1130 C1133 1.321 . S
C1131 H1117 0.930 . S
C1131 C1133 1.400 . S
C1131 C1134 1.386 . S
C1132 C1128 1.429 . S
C1132 N1130 1.377 . S
C1132 C1135 1.411 . S
C1133 H1115 0.930 . S
C1133 N1130 1.321 . S
C1133 C1131 1.400 . S
C1134 H1129 0.930 . S
C1134 C1131 1.386 . S
C1134 C1135 1.395 . S
C1135 C1132 1.411 . S
C1135 C1134 1.395 . S
C1135 C1157 1.420 . S
O1136 Eu1092 2.558 1_655 S
O1136 C1156 1.257 . S
O1137 Eu1092 2.612 . S
O1137 Eu1103 2.380 . S
O1137 C1148 1.276 . S
O1138 Eu1103 2.432 . S
O1138 C1155 1.264 . S
O1139 Eu1092 2.339 . S
O1139 C1155 1.254 . S
O1140 Eu1092 2.563 . S
O1140 C1148 1.235 . S
O1141 Eu1092 2.412 1_655 S
O1141 C1156 1.250 . S
O1142 Eu1103 2.558 . S
O1142 C1167 1.257 . S
O1143 Eu1092 2.380 . S
O1143 Eu1103 2.612 . S
O1143 C1159 1.276 . S
O1144 Eu1092 2.432 . S
O1144 C1166 1.264 . S
O1145 Eu1103 2.339 . S
O1145 C1166 1.254 . S
O1146 Eu1103 2.563 . S
O1146 C1159 1.235 . S
O1147 Eu1103 2.419 . S
O1147 C1167 1.249 . S
C1148 O1137 1.276 . S
C1148 O1140 1.235 . S
C1149 C1151 1.393 . S
C1149 C1153 1.395 . S
C1149 C1156 1.492 1_556 S
C1150 C1151 1.392 . S
C1150 C1152 1.386 . S
C1151 C1149 1.393 . S
C1151 C1150 1.392 . S
C1151 H1168 0.930 . S
C1152 C1150 1.386 . S
C1152 C1154 1.395 . S
C1152 H1169 0.930 . S
C1153 C1149 1.395 . S
C1153 C1154 1.379 . S
C1153 H1170 0.930 . S
C1154 C1152 1.395 . S
C1154 C1153 1.379 . S
C1154 H1171 0.930 . S
C1155 O1138 1.264 . S
C1155 O1139 1.254 . S
C1156 Eu1092 2.848 1_655 S
C1156 O1136 1.257 . S
C1156 O1141 1.250 . S
C1156 C1149 1.492 1_554 S
C1157 H1122 0.931 . S
C1157 C1135 1.420 . S
C1157 C1158 1.351 . S
C1158 H1120 0.930 . S
C1158 C1126 1.423 . S
C1158 C1157 1.351 . S
C1159 O1143 1.276 . S
C1159 O1146 1.235 . S
C1160 C1161 1.393 . S
C1160 C1164 1.395 . S
C1160 C1167 1.492 . S
C1161 C1160 1.393 . S
C1161 C1162 1.392 . S
C1161 H1172 0.930 . S
C1162 C1161 1.392 . S
C1162 C1163 1.386 . S
C1163 C1162 1.386 . S
C1163 C1165 1.395 . S
C1163 H1173 0.930 . S
C1164 C1160 1.395 . S
C1164 C1165 1.379 . S
C1164 H1174 0.930 . S
C1165 C1163 1.395 . S
C1165 C1164 1.379 . S
C1165 H1175 0.930 . S
C1166 O1144 1.264 . S
C1166 O1145 1.254 . S
C1167 Eu1103 2.848 . S
C1167 O1142 1.257 . S
C1167 O1147 1.249 . S
C1167 C1160 1.492 . S
H1168 C1151 0.930 . S
H1169 C1152 0.930 . S
H1170 C1153 0.930 . S
H1171 C1154 0.930 . S
H1172 C1161 0.930 . S
H1173 C1163 0.930 . S
H1174 C1164 0.930 . S
H1175 C1165 0.930 . S
Eu1176 N1207 2.657 . S
Eu1176 N1214 2.609 . S
Eu1176 O1220 2.558 . S
Eu1176 O1221 2.612 . S
Eu1176 O1223 2.339 . S
Eu1176 O1224 2.563 . S
Eu1176 O1225 2.419 . S
Eu1176 O1227 2.380 . S
Eu1176 O1228 2.432 . S
Eu1176 C1240 2.848 . S
C1177 C1180 1.429 . S
C1177 C1181 1.411 . S
C1177 N1184 1.377 . S
C1178 C1180 1.420 . S
C1178 C1182 1.423 . S
C1178 C1190 1.392 . S
C1179 C1181 1.420 . S
C1179 C1182 1.351 . S
C1179 H1202 0.931 . S
C1180 C1177 1.429 . S
C1180 C1178 1.420 . S
C1180 N1188 1.362 . S
C1181 C1177 1.411 . S
C1181 C1179 1.420 . S
C1181 C1186 1.395 . S
C1182 C1178 1.423 . S
C1182 C1179 1.351 . S
C1182 H1194 0.930 . S
C1183 C1185 1.400 . S
C1183 C1186 1.386 . S
C1183 H1195 0.930 . S
N1184 C1177 1.377 . S
N1184 C1185 1.321 . S
N1184 Eu1187 2.609 . S
C1185 C1183 1.400 . S
C1185 N1184 1.321 . S
C1185 H1192 0.930 . S
C1186 C1181 1.395 . S
C1186 C1183 1.386 . S
C1186 H1205 0.930 . S
Eu1187 N1184 2.609 . S
Eu1187 N1188 2.657 . S
Eu1187 O1221 2.380 . S
Eu1187 O1222 2.432 . S
Eu1187 O1226 2.558 . S
Eu1187 O1227 2.612 . S
Eu1187 O1229 2.339 . S
Eu1187 O1230 2.563 . S
Eu1187 O1231 2.419 . S
Eu1187 C1251 2.848 . S
N1188 C1180 1.362 . S
N1188 Eu1187 2.657 . S
N1188 C1189 1.334 . S
C1189 N1188 1.334 . S
C1189 C1191 1.413 . S
C1189 H1196 0.929 . S
C1190 C1178 1.392 . S
C1190 C1191 1.367 . S
C1190 H1198 0.930 . S
C1191 C1189 1.413 . S
C1191 C1190 1.367 . S
C1191 H1193 0.930 . S
H1192 C1185 0.930 . S
H1193 C1191 0.930 . S
H1194 C1182 0.930 . S
H1195 C1183 0.930 . S
H1196 C1189 0.929 . S
H1197 C1211 0.930 . S
H1198 C1190 0.930 . S
H1199 C1217 0.930 . S
H1200 C1208 0.929 . S
H1201 C1215 0.930 . S
H1202 C1179 0.931 . S
H1203 C1209 0.930 . S
H1204 C1242 0.930 . S
H1205 C1186 0.930 . S
H1206 C1241 0.931 . S
N1207 Eu1176 2.657 . S
N1207 C1208 1.334 . S
N1207 C1212 1.362 . S
C1208 H1200 0.929 . S
C1208 N1207 1.334 . S
C1208 C1211 1.413 . S
C1209 H1203 0.930 . S
C1209 C1210 1.392 . S
C1209 C1211 1.367 . S
C1210 C1209 1.392 . S
C1210 C1212 1.420 . S
C1210 C1242 1.423 . S
C1211 H1197 0.930 . S
C1211 C1208 1.413 . S
C1211 C1209 1.367 . S
C1212 N1207 1.362 . S
C1212 C1210 1.420 . S
C1212 C1216 1.429 . S
H1213 C1218 0.930 . S
N1214 Eu1176 2.609 . S
N1214 C1216 1.377 . S
N1214 C1217 1.321 . S
C1215 H1201 0.930 . S
C1215 C1217 1.400 . S
C1215 C1218 1.386 . S
C1216 C1212 1.429 . S
C1216 N1214 1.377 . S
C1216 C1219 1.411 . S
C1217 H1199 0.930 . S
C1217 N1214 1.321 . S
C1217 C1215 1.400 . S
C1218 H1213 0.930 . S
C1218 C1215 1.386 . S
C1218 C1219 1.395 . S
C1219 C1216 1.411 . S
C1219 C1218 1.395 . S
C1219 C1241 1.420 . S
O1220 Eu1176 2.558 . S
O1220 C1240 1.257 . S
O1221 Eu1176 2.612 . S
O1221 Eu1187 2.380 . S
O1221 C1232 1.276 . S
O1222 Eu1187 2.432 . S
O1222 C1239 1.264 . S
O1223 Eu1176 2.339 . S
O1223 C1239 1.254 . S
O1224 Eu1176 2.563 . S
O1224 C1232 1.235 . S
O1225 Eu1176 2.419 . S
O1225 C1240 1.249 . S
O1226 Eu1187 2.558 . S
O1226 C1251 1.257 . S
O1227 Eu1176 2.380 . S
O1227 Eu1187 2.612 . S
O1227 C1243 1.276 . S
O1228 Eu1176 2.432 . S
O1228 C1250 1.264 . S
O1229 Eu1187 2.339 . S
O1229 C1250 1.254 . S
O1230 Eu1187 2.563 . S
O1230 C1243 1.235 . S
O1231 Eu1187 2.419 . S
O1231 C1251 1.249 . S
C1232 O1221 1.276 . S
C1232 O1224 1.235 . S
C1233 C1235 1.393 . S
C1233 C1237 1.395 . S
C1233 C1240 1.492 . S
C1234 C1235 1.392 . S
C1234 C1236 1.386 . S
C1235 C1233 1.393 . S
C1235 C1234 1.392 . S
C1235 H1252 0.930 . S
C1236 C1234 1.386 . S
C1236 C1238 1.395 . S
C1236 H1253 0.930 . S
C1237 C1233 1.395 . S
C1237 C1238 1.379 . S
C1237 H1254 0.930 . S
C1238 C1236 1.395 . S
C1238 C1237 1.379 . S
C1238 H1255 0.930 . S
C1239 O1222 1.264 . S
C1239 O1223 1.254 . S
C1240 Eu1176 2.848 . S
C1240 O1220 1.257 . S
C1240 O1225 1.249 . S
C1240 C1233 1.492 . S
C1241 H1206 0.931 . S
C1241 C1219 1.420 . S
C1241 C1242 1.351 . S
C1242 H1204 0.930 . S
C1242 C1210 1.423 . S
C1242 C1241 1.351 . S
C1243 O1227 1.276 . S
C1243 O1230 1.235 . S
C1244 C1245 1.393 . S
C1244 C1248 1.395 . S
C1244 C1251 1.492 . S
C1245 C1244 1.393 . S
C1245 C1246 1.392 . S
C1245 H1256 0.930 . S
C1246 C1245 1.392 . S
C1246 C1247 1.386 . S
C1247 C1246 1.386 . S
C1247 C1249 1.395 . S
C1247 H1257 0.930 . S
C1248 C1244 1.395 . S
C1248 C1249 1.379 . S
C1248 H1258 0.930 . S
C1249 C1247 1.395 . S
C1249 C1248 1.379 . S
C1249 H1259 0.930 . S
C1250 O1228 1.264 . S
C1250 O1229 1.254 . S
C1251 Eu1187 2.848 . S
C1251 O1226 1.257 . S
C1251 O1231 1.249 . S
C1251 C1244 1.492 . S
H1252 C1235 0.930 . S
H1253 C1236 0.930 . S
H1254 C1237 0.930 . S
H1255 C1238 0.930 . S
H1256 C1245 0.930 . S
H1257 C1247 0.930 . S
H1258 C1248 0.930 . S
H1259 C1249 0.930 . S
Eu1260 N1291 2.657 . S
Eu1260 N1298 2.609 . S
Eu1260 O1304 2.558 . S
Eu1260 O1305 2.612 1_655 S
Eu1260 O1307 2.339 1_655 S
Eu1260 O1308 2.563 1_655 S
Eu1260 O1309 2.419 . S
Eu1260 O1311 2.380 1_655 S
Eu1260 O1312 2.432 1_655 S
Eu1260 C1324 2.848 . S
C1261 C1264 1.429 . S
C1261 C1265 1.411 . S
C1261 N1268 1.377 . S
C1262 C1264 1.420 . S
C1262 C1266 1.423 . S
C1262 C1274 1.392 . S
C1263 C1265 1.420 . S
C1263 C1266 1.351 . S
C1263 H1286 0.931 . S
C1264 C1261 1.429 . S
C1264 C1262 1.420 . S
C1264 N1272 1.362 . S
C1265 C1261 1.411 . S
C1265 C1263 1.420 . S
C1265 C1270 1.395 . S
C1266 C1262 1.423 . S
C1266 C1263 1.351 . S
C1266 H1278 0.930 . S
C1267 C1269 1.400 . S
C1267 C1270 1.386 . S
C1267 H1279 0.930 . S
N1268 C1261 1.377 . S
N1268 C1269 1.321 . S
N1268 Eu1271 2.609 . S
C1269 C1267 1.400 . S
C1269 N1268 1.321 . S
C1269 H1276 0.930 . S
C1270 C1265 1.395 . S
C1270 C1267 1.386 . S
C1270 H1289 0.930 . S
Eu1271 N1268 2.609 . S
Eu1271 N1272 2.657 . S
Eu1271 O1305 2.380 . S
Eu1271 O1306 2.432 . S
Eu1271 O1310 2.558 . S
Eu1271 O1311 2.612 . S
Eu1271 O1313 2.339 . S
Eu1271 O1314 2.563 . S
Eu1271 O1315 2.419 . S
Eu1271 C1335 2.848 . S
N1272 C1264 1.362 . S
N1272 Eu1271 2.657 . S
N1272 C1273 1.334 . S
C1273 N1272 1.334 . S
C1273 C1275 1.413 . S
C1273 H1280 0.929 . S
C1274 C1262 1.392 . S
C1274 C1275 1.367 . S
C1274 H1282 0.930 . S
C1275 C1273 1.413 . S
C1275 C1274 1.367 . S
C1275 H1277 0.930 . S
H1276 C1269 0.930 . S
H1277 C1275 0.930 . S
H1278 C1266 0.930 . S
H1279 C1267 0.930 . S
H1280 C1273 0.929 . S
H1281 C1295 0.930 . S
H1282 C1274 0.930 . S
H1283 C1301 0.930 . S
H1284 C1292 0.929 . S
H1285 C1299 0.930 . S
H1286 C1263 0.931 . S
H1287 C1293 0.930 . S
H1288 C1326 0.930 . S
H1289 C1270 0.930 . S
H1290 C1325 0.931 . S
N1291 Eu1260 2.657 . S
N1291 C1292 1.334 . S
N1291 C1296 1.362 . S
C1292 H1284 0.929 . S
C1292 N1291 1.334 . S
C1292 C1295 1.413 . S
C1293 H1287 0.930 . S
C1293 C1294 1.392 . S
C1293 C1295 1.367 . S
C1294 C1293 1.392 . S
C1294 C1296 1.420 . S
C1294 C1326 1.423 . S
C1295 H1281 0.930 . S
C1295 C1292 1.413 . S
C1295 C1293 1.367 . S
C1296 N1291 1.362 . S
C1296 C1294 1.420 . S
C1296 C1300 1.429 . S
H1297 C1302 0.930 . S
N1298 Eu1260 2.609 . S
N1298 C1300 1.377 . S
N1298 C1301 1.321 . S
C1299 H1285 0.930 . S
C1299 C1301 1.400 . S
C1299 C1302 1.386 . S
C1300 C1296 1.429 . S
C1300 N1298 1.377 . S
C1300 C1303 1.411 . S
C1301 H1283 0.930 . S
C1301 N1298 1.321 . S
C1301 C1299 1.400 . S
C1302 H1297 0.930 . S
C1302 C1299 1.386 . S
C1302 C1303 1.395 . S
C1303 C1300 1.411 . S
C1303 C1302 1.395 . S
C1303 C1325 1.420 . S
O1304 Eu1260 2.558 . S
O1304 C1324 1.257 . S
O1305 Eu1260 2.612 1_455 S
O1305 Eu1271 2.380 . S
O1305 C1316 1.276 . S
O1306 Eu1271 2.432 . S
O1306 C1323 1.264 . S
O1307 Eu1260 2.339 1_455 S
O1307 C1323 1.254 . S
O1308 Eu1260 2.563 1_455 S
O1308 C1316 1.235 . S
O1309 Eu1260 2.419 . S
O1309 C1324 1.249 . S
O1310 Eu1271 2.558 . S
O1310 C1335 1.257 . S
O1311 Eu1260 2.380 1_455 S
O1311 Eu1271 2.612 . S
O1311 C1327 1.276 . S
O1312 Eu1260 2.432 1_455 S
O1312 C1334 1.264 . S
O1313 Eu1271 2.339 . S
O1313 C1334 1.254 . S
O1314 Eu1271 2.563 . S
O1314 C1327 1.235 . S
O1315 Eu1271 2.419 . S
O1315 C1335 1.249 . S
C1316 O1305 1.276 . S
C1316 O1308 1.235 . S
C1317 C1319 1.393 . S
C1317 C1321 1.395 . S
C1317 C1324 1.492 1_554 S
C1318 C1319 1.392 . S
C1318 C1320 1.386 . S
C1319 C1317 1.393 . S
C1319 C1318 1.392 . S
C1319 H1336 0.930 . S
C1320 C1318 1.386 . S
C1320 C1322 1.395 . S
C1320 H1337 0.930 . S
C1321 C1317 1.395 . S
C1321 C1322 1.379 . S
C1321 H1338 0.930 . S
C1322 C1320 1.395 . S
C1322 C1321 1.379 . S
C1322 H1339 0.930 . S
C1323 O1306 1.264 . S
C1323 O1307 1.254 . S
C1324 Eu1260 2.848 . S
C1324 O1304 1.257 . S
C1324 O1309 1.249 . S
C1324 C1317 1.492 1_556 S
C1325 H1290 0.931 . S
C1325 C1303 1.420 . S
C1325 C1326 1.351 . S
C1326 H1288 0.930 . S
C1326 C1294 1.423 . S
C1326 C1325 1.351 . S
C1327 O1311 1.276 . S
C1327 O1314 1.235 . S
C1328 C1329 1.393 . S
C1328 C1332 1.395 . S
C1328 C1335 1.492 . S
C1329 C1328 1.393 . S
C1329 C1330 1.392 . S
C1329 H1340 0.930 . S
C1330 C1329 1.392 . S
C1330 C1331 1.386 . S
C1331 C1330 1.386 . S
C1331 C1333 1.395 . S
C1331 H1341 0.930 . S
C1332 C1328 1.395 . S
C1332 C1333 1.379 . S
C1332 H1342 0.930 . S
C1333 C1331 1.395 . S
C1333 C1332 1.379 . S
C1333 H1343 0.930 . S
C1334 O1312 1.264 . S
C1334 O1313 1.254 . S
C1335 Eu1271 2.848 . S
C1335 O1310 1.257 . S
C1335 O1315 1.249 . S
C1335 C1328 1.492 . S
H1336 C1319 0.930 . S
H1337 C1320 0.930 . S
H1338 C1321 0.930 . S
H1339 C1322 0.930 . S
H1340 C1329 0.930 . S
H1341 C1331 0.930 . S
H1342 C1332 0.930 . S
H1343 C1333 0.930 . S
H1344 C1362 0.951 . S
H1345 C1364 0.951 . S
H1346 C1366 0.950 . S
H1347 C1367 0.950 . S
H1348 C1369 0.950 . S
H1349 C1372 0.950 . S
H1350 C1373 0.950 . S
H1351 C1375 0.950 . S
H1352 C1376 0.950 . S
H1353 C1377 0.951 . S
H1354 C1379 0.951 . S
H1355 C1381 0.950 . S
H1356 C1382 0.950 . S
H1357 C1384 0.950 . S
H1358 C1387 0.950 . S
H1359 C1388 0.950 . S
H1360 C1390 0.950 . S
H1361 C1391 0.950 . S
C1362 H1344 0.951 . S
C1362 C1363 1.366 . S
C1362 C1364 1.388 . S
C1363 C1362 1.366 . S
C1363 C1367 1.385 . S
C1364 H1345 0.951 . S
C1364 C1362 1.388 . S
C1364 C1365 1.366 . S
C1365 C1364 1.366 . S
C1365 C1366 1.414 . S
C1365 C1368 1.499 . S
C1366 H1346 0.950 . S
C1366 C1365 1.414 . S
C1366 C1367 1.374 . S
C1367 H1347 0.950 . S
C1367 C1363 1.385 . S
C1367 C1366 1.374 . S
C1368 C1365 1.499 . S
C1368 C1369 1.373 . S
C1368 C1370 1.389 . S
C1369 H1348 0.950 . S
C1369 C1368 1.373 . S
C1369 C1385 1.377 . S
C1370 C1368 1.389 . S
C1370 C1371 1.524 . S
C1370 C1384 1.377 . S
C1371 C1370 1.524 . S
C1371 C1372 1.397 . S
C1371 C1376 1.363 . S
C1372 H1349 0.950 . S
C1372 C1371 1.397 . S
C1372 C1373 1.334 . S
C1373 H1350 0.950 . S
C1373 C1372 1.334 . S
C1373 C1374 1.287 . S
C1374 C1373 1.287 . S
C1374 C1375 1.524 . S
C1374 H1393 0.913 . S
C1375 H1351 0.950 . S
C1375 C1374 1.524 . S
C1375 C1376 1.415 . S
C1376 H1352 0.950 . S
C1376 C1371 1.363 . S
C1376 C1375 1.415 . S
C1377 H1353 0.951 . S
C1377 C1378 1.366 . S
C1377 C1379 1.388 . S
C1378 C1377 1.366 . S
C1378 C1382 1.385 . S
C1379 H1354 0.951 . S
C1379 C1377 1.388 . S
C1379 C1380 1.366 . S
C1380 C1379 1.366 . S
C1380 C1381 1.414 . S
C1380 C1383 1.499 . S
C1381 H1355 0.950 . S
C1381 C1380 1.414 . S
C1381 C1382 1.374 . S
C1382 H1356 0.950 . S
C1382 C1378 1.385 . S
C1382 C1381 1.374 . S
C1383 C1380 1.499 . S
C1383 C1384 1.373 . S
C1383 C1385 1.389 . S
C1384 H1357 0.950 . S
C1384 C1370 1.377 . S
C1384 C1383 1.373 . S
C1385 C1369 1.377 . S
C1385 C1383 1.389 . S
C1385 C1386 1.524 . S
C1386 C1385 1.524 . S
C1386 C1387 1.397 . S
C1386 C1391 1.363 . S
C1387 H1358 0.950 . S
C1387 C1386 1.397 . S
C1387 C1388 1.334 . S
C1388 H1359 0.950 . S
C1388 C1387 1.334 . S
C1388 C1389 1.287 . S
C1389 C1388 1.287 . S
C1389 C1390 1.524 . S
C1389 H1392 0.999 . S
C1390 H1360 0.950 . S
C1390 C1389 1.524 . S
C1390 C1391 1.415 . S
C1391 H1361 0.950 . S
C1391 C1386 1.363 . S
C1391 C1390 1.415 . S
H1392 C1389 0.999 . S
H1393 C1374 0.913 . S
H1394 C1412 0.951 . S
H1395 C1414 0.951 . S
H1396 C1416 0.950 . S
H1397 C1417 0.950 . S
H1398 C1419 0.950 . S
H1399 C1422 0.950 . S
H1400 C1423 0.950 . S
H1401 C1425 0.950 . S
H1402 C1426 0.950 . S
H1403 C1427 0.951 . S
H1404 C1429 0.951 . S
H1405 C1431 0.950 1_554 S
H1406 C1432 0.950 . S
H1407 C1434 0.950 . S
H1408 C1437 0.950 . S
H1409 C1438 0.950 . S
H1410 C1440 0.950 . S
H1411 C1441 0.950 . S
C1412 H1394 0.951 . S
C1412 C1413 1.366 . S
C1412 C1414 1.388 . S
C1413 C1412 1.366 . S
C1413 C1417 1.385 . S
C1414 H1395 0.951 . S
C1414 C1412 1.388 . S
C1414 C1415 1.366 . S
C1415 C1414 1.366 . S
C1415 C1416 1.414 . S
C1415 C1418 1.499 . S
C1416 H1396 0.950 . S
C1416 C1415 1.414 . S
C1416 C1417 1.374 . S
C1417 H1397 0.950 . S
C1417 C1413 1.385 . S
C1417 C1416 1.374 . S
C1418 C1415 1.499 . S
C1418 C1419 1.373 . S
C1418 C1420 1.389 . S
C1419 H1398 0.950 . S
C1419 C1418 1.373 . S
C1419 C1435 1.377 . S
C1420 C1418 1.389 . S
C1420 C1421 1.524 . S
C1420 C1434 1.377 . S
C1421 C1420 1.524 . S
C1421 C1422 1.397 . S
C1421 C1426 1.363 . S
C1422 H1399 0.950 . S
C1422 C1421 1.397 . S
C1422 C1423 1.334 . S
C1423 H1400 0.950 . S
C1423 C1422 1.334 . S
C1423 C1424 1.287 . S
C1424 C1423 1.287 . S
C1424 C1425 1.524 . S
C1424 H1443 0.913 . S
C1425 H1401 0.950 . S
C1425 C1424 1.524 . S
C1425 C1426 1.415 . S
C1426 H1402 0.950 . S
C1426 C1421 1.363 . S
C1426 C1425 1.415 . S
C1427 H1403 0.951 . S
C1427 C1428 1.366 . S
C1427 C1429 1.388 . S
C1428 C1427 1.366 . S
C1428 C1432 1.385 . S
C1429 H1404 0.951 . S
C1429 C1427 1.388 . S
C1429 C1430 1.366 . S
C1430 C1429 1.366 . S
C1430 C1431 1.414 . S
C1430 C1433 1.499 1_556 S
C1431 H1405 0.950 1_556 S
C1431 C1430 1.414 . S
C1431 C1432 1.374 . S
C1432 H1406 0.950 . S
C1432 C1428 1.385 . S
C1432 C1431 1.374 . S
C1433 C1430 1.499 1_554 S
C1433 C1434 1.373 . S
C1433 C1435 1.389 . S
C1434 H1407 0.950 . S
C1434 C1420 1.377 . S
C1434 C1433 1.373 . S
C1435 C1419 1.377 . S
C1435 C1433 1.389 . S
C1435 C1436 1.524 1_554 S
C1436 C1435 1.524 1_556 S
C1436 C1437 1.397 . S
C1436 C1441 1.363 . S
C1437 H1408 0.950 . S
C1437 C1436 1.397 . S
C1437 C1438 1.334 . S
C1438 H1409 0.950 . S
C1438 C1437 1.334 . S
C1438 C1439 1.287 . S
C1439 C1438 1.287 . S
C1439 C1440 1.524 . S
C1439 H1442 0.999 . S
C1440 H1410 0.950 . S
C1440 C1439 1.524 . S
C1440 C1441 1.415 . S
C1441 H1411 0.950 . S
C1441 C1436 1.363 . S
C1441 C1440 1.415 . S
H1442 C1439 0.999 . S
H1443 C1424 0.913 . S
H1444 C1462 0.951 . S
H1445 C1464 0.951 . S
H1446 C1466 0.950 . S
H1447 C1467 0.950 . S
H1448 C1469 0.950 . S
H1449 C1472 0.950 . S
H1450 C1473 0.950 . S
H1451 C1475 0.950 . S
H1452 C1476 0.950 . S
H1453 C1477 0.951 . S
H1454 C1479 0.951 . S
H1455 C1481 0.950 . S
H1456 C1482 0.950 . S
H1457 C1484 0.950 . S
H1458 C1487 0.950 . S
H1459 C1488 0.950 . S
H1460 C1490 0.950 . S
H1461 C1491 0.950 . S
C1462 H1444 0.951 . S
C1462 C1463 1.366 . S
C1462 C1464 1.388 . S
C1463 C1462 1.366 . S
C1463 C1467 1.385 . S
C1464 H1445 0.951 . S
C1464 C1462 1.388 . S
C1464 C1465 1.366 . S
C1465 C1464 1.366 . S
C1465 C1466 1.414 . S
C1465 C1468 1.499 . S
C1466 H1446 0.950 . S
C1466 C1465 1.414 . S
C1466 C1467 1.374 . S
C1467 H1447 0.950 . S
C1467 C1463 1.385 . S
C1467 C1466 1.374 . S
C1468 C1465 1.499 . S
C1468 C1469 1.373 . S
C1468 C1470 1.389 . S
C1469 H1448 0.950 . S
C1469 C1468 1.373 . S
C1469 C1485 1.377 . S
C1470 C1468 1.389 . S
C1470 C1471 1.524 . S
C1470 C1484 1.377 . S
C1471 C1470 1.524 . S
C1471 C1472 1.397 . S
C1471 C1476 1.363 . S
C1472 H1449 0.950 . S
C1472 C1471 1.397 . S
C1472 C1473 1.334 . S
C1473 H1450 0.950 . S
C1473 C1472 1.334 . S
C1473 C1474 1.287 . S
C1474 C1473 1.287 . S
C1474 C1475 1.524 . S
C1474 H1493 0.913 . S
C1475 H1451 0.950 . S
C1475 C1474 1.524 . S
C1475 C1476 1.415 . S
C1476 H1452 0.950 . S
C1476 C1471 1.363 . S
C1476 C1475 1.415 . S
C1477 H1453 0.951 . S
C1477 C1478 1.366 . S
C1477 C1479 1.388 . S
C1478 C1477 1.366 . S
C1478 C1482 1.385 . S
C1479 H1454 0.951 . S
C1479 C1477 1.388 . S
C1479 C1480 1.366 . S
C1480 C1479 1.366 . S
C1480 C1481 1.414 . S
C1480 C1483 1.499 . S
C1481 H1455 0.950 . S
C1481 C1480 1.414 . S
C1481 C1482 1.374 . S
C1482 H1456 0.950 . S
C1482 C1478 1.385 . S
C1482 C1481 1.374 . S
C1483 C1480 1.499 . S
C1483 C1484 1.373 . S
C1483 C1485 1.389 . S
C1484 H1457 0.950 . S
C1484 C1470 1.377 . S
C1484 C1483 1.373 . S
C1485 C1469 1.377 . S
C1485 C1483 1.389 . S
C1485 C1486 1.524 . S
C1486 C1485 1.524 . S
C1486 C1487 1.397 . S
C1486 C1491 1.363 . S
C1487 H1458 0.950 . S
C1487 C1486 1.397 . S
C1487 C1488 1.334 . S
C1488 H1459 0.950 . S
C1488 C1487 1.334 . S
C1488 C1489 1.287 . S
C1489 C1488 1.287 . S
C1489 C1490 1.524 . S
C1489 H1492 0.999 . S
C1490 H1460 0.950 . S
C1490 C1489 1.524 . S
C1490 C1491 1.415 . S
C1491 H1461 0.950 . S
C1491 C1486 1.363 . S
C1491 C1490 1.415 . S
H1492 C1489 0.999 . S
H1493 C1474 0.913 . S
H1494 C1512 0.951 . S
H1495 C1514 0.951 . S
H1496 C1516 0.950 . S
H1497 C1517 0.950 . S
H1498 C1519 0.950 . S
H1499 C1522 0.950 . S
H1500 C1523 0.950 . S
H1501 C1525 0.950 . S
H1502 C1526 0.950 . S
H1503 C1527 0.951 . S
H1504 C1529 0.951 . S
H1505 C1531 0.950 . S
H1506 C1532 0.950 . S
H1507 C1534 0.950 . S
H1508 C1537 0.950 . S
H1509 C1538 0.950 . S
H1510 C1540 0.950 . S
H1511 C1541 0.950 . S
C1512 H1494 0.951 . S
C1512 C1513 1.366 . S
C1512 C1514 1.388 . S
C1513 C1512 1.366 . S
C1513 C1517 1.385 . S
C1514 H1495 0.951 . S
C1514 C1512 1.388 . S
C1514 C1515 1.366 . S
C1515 C1514 1.366 . S
C1515 C1516 1.414 . S
C1515 C1518 1.499 . S
C1516 H1496 0.950 . S
C1516 C1515 1.414 . S
C1516 C1517 1.374 . S
C1517 H1497 0.950 . S
C1517 C1513 1.385 . S
C1517 C1516 1.374 . S
C1518 C1515 1.499 . S
C1518 C1519 1.373 . S
C1518 C1520 1.389 . S
C1519 H1498 0.950 . S
C1519 C1518 1.373 . S
C1519 C1535 1.377 . S
C1520 C1518 1.389 . S
C1520 C1521 1.524 . S
C1520 C1534 1.377 . S
C1521 C1520 1.524 . S
C1521 C1522 1.397 . S
C1521 C1526 1.363 . S
C1522 H1499 0.950 . S
C1522 C1521 1.397 . S
C1522 C1523 1.334 . S
C1523 H1500 0.950 . S
C1523 C1522 1.334 . S
C1523 C1524 1.287 . S
C1524 C1523 1.287 . S
C1524 C1525 1.524 . S
C1524 H1543 0.913 . S
C1525 H1501 0.950 . S
C1525 C1524 1.524 . S
C1525 C1526 1.415 . S
C1526 H1502 0.950 . S
C1526 C1521 1.363 . S
C1526 C1525 1.415 . S
C1527 H1503 0.951 . S
C1527 C1528 1.366 . S
C1527 C1529 1.388 . S
C1528 C1527 1.366 . S
C1528 C1532 1.385 . S
C1529 H1504 0.951 . S
C1529 C1527 1.388 . S
C1529 C1530 1.366 . S
C1530 C1529 1.366 . S
C1530 C1531 1.414 . S
C1530 C1533 1.499 . S
C1531 H1505 0.950 . S
C1531 C1530 1.414 . S
C1531 C1532 1.374 . S
C1532 H1506 0.950 . S
C1532 C1528 1.385 . S
C1532 C1531 1.374 . S
C1533 C1530 1.499 . S
C1533 C1534 1.373 . S
C1533 C1535 1.389 . S
C1534 H1507 0.950 . S
C1534 C1520 1.377 . S
C1534 C1533 1.373 . S
C1535 C1519 1.377 . S
C1535 C1533 1.389 . S
C1535 C1536 1.524 . S
C1536 C1535 1.524 . S
C1536 C1537 1.397 . S
C1536 C1541 1.363 . S
C1537 H1508 0.950 . S
C1537 C1536 1.397 . S
C1537 C1538 1.334 . S
C1538 H1509 0.950 . S
C1538 C1537 1.334 . S
C1538 C1539 1.287 . S
C1539 C1538 1.287 . S
C1539 C1540 1.524 . S
C1539 H1542 0.999 . S
C1540 H1510 0.950 . S
C1540 C1539 1.524 . S
C1540 C1541 1.415 . S
C1541 H1511 0.950 . S
C1541 C1536 1.363 . S
C1541 C1540 1.415 . S
H1542 C1539 0.999 . S
H1543 C1524 0.913 . S
H1544 C1562 0.951 . S
H1545 C1564 0.951 . S
H1546 C1566 0.950 . S
H1547 C1567 0.950 . S
H1548 C1569 0.950 . S
H1549 C1572 0.950 . S
H1550 C1573 0.950 . S
H1551 C1575 0.950 1_455 S
H1552 C1576 0.950 . S
H1553 C1577 0.951 . S
H1554 C1579 0.951 . S
H1555 C1581 0.950 . S
H1556 C1582 0.950 . S
H1557 C1584 0.950 . S
H1558 C1587 0.950 . S
H1559 C1588 0.950 . S
H1560 C1590 0.950 . S
H1561 C1591 0.950 . S
C1562 H1544 0.951 . S
C1562 C1563 1.366 . S
C1562 C1564 1.388 . S
C1563 C1562 1.366 . S
C1563 C1567 1.385 . S
C1564 H1545 0.951 . S
C1564 C1562 1.388 . S
C1564 C1565 1.366 . S
C1565 C1564 1.366 . S
C1565 C1566 1.414 . S
C1565 C1568 1.499 . S
C1566 H1546 0.950 . S
C1566 C1565 1.414 . S
C1566 C1567 1.374 . S
C1567 H1547 0.950 . S
C1567 C1563 1.385 . S
C1567 C1566 1.374 . S
C1568 C1565 1.499 . S
C1568 C1569 1.373 . S
C1568 C1570 1.389 . S
C1569 H1548 0.950 . S
C1569 C1568 1.373 . S
C1569 C1585 1.377 . S
C1570 C1568 1.389 . S
C1570 C1571 1.524 . S
C1570 C1584 1.377 . S
C1571 C1570 1.524 . S
C1571 C1572 1.397 . S
C1571 C1576 1.363 . S
C1572 H1549 0.950 . S
C1572 C1571 1.397 . S
C1572 C1573 1.334 . S
C1573 H1550 0.950 . S
C1573 C1572 1.334 . S
C1573 C1574 1.287 . S
C1574 C1573 1.287 . S
C1574 C1575 1.524 . S
C1574 H1593 0.913 1_655 S
C1575 H1551 0.950 1_655 S
C1575 C1574 1.524 . S
C1575 C1576 1.415 . S
C1576 H1552 0.950 . S
C1576 C1571 1.363 . S
C1576 C1575 1.415 . S
C1577 H1553 0.951 . S
C1577 C1578 1.366 . S
C1577 C1579 1.388 . S
C1578 C1577 1.366 . S
C1578 C1582 1.385 . S
C1579 H1554 0.951 . S
C1579 C1577 1.388 . S
C1579 C1580 1.366 . S
C1580 C1579 1.366 . S
C1580 C1581 1.414 . S
C1580 C1583 1.499 . S
C1581 H1555 0.950 . S
C1581 C1580 1.414 . S
C1581 C1582 1.374 . S
C1582 H1556 0.950 . S
C1582 C1578 1.385 . S
C1582 C1581 1.374 . S
C1583 C1580 1.499 . S
C1583 C1584 1.373 . S
C1583 C1585 1.389 . S
C1584 H1557 0.950 . S
C1584 C1570 1.377 . S
C1584 C1583 1.373 . S
C1585 C1569 1.377 . S
C1585 C1583 1.389 . S
C1585 C1586 1.524 . S
C1586 C1585 1.524 . S
C1586 C1587 1.397 . S
C1586 C1591 1.363 . S
C1587 H1558 0.950 . S
C1587 C1586 1.397 . S
C1587 C1588 1.334 . S
C1588 H1559 0.950 . S
C1588 C1587 1.334 . S
C1588 C1589 1.287 . S
C1589 C1588 1.287 . S
C1589 C1590 1.524 . S
C1589 H1592 0.999 . S
C1590 H1560 0.950 . S
C1590 C1589 1.524 . S
C1590 C1591 1.415 . S
C1591 H1561 0.950 . S
C1591 C1586 1.363 . S
C1591 C1590 1.415 . S
H1592 C1589 0.999 . S
H1593 C1574 0.913 1_455 S
H1594 C1612 0.951 . S
H1595 C1614 0.951 . S
H1596 C1616 0.950 . S
H1597 C1617 0.950 . S
H1598 C1619 0.950 . S
H1599 C1622 0.950 . S
H1600 C1623 0.950 . S
H1601 C1625 0.950 . S
H1602 C1626 0.950 . S
H1603 C1627 0.951 . S
H1604 C1629 0.941 1_556 S
H1605 C1631 0.950 . S
H1606 C1632 0.950 . S
H1607 C1634 0.950 . S
H1608 C1637 0.950 . S
H1609 C1638 0.950 . S
H1610 C1640 0.950 . S
H1611 C1641 0.950 . S
C1612 H1594 0.951 . S
C1612 C1613 1.366 . S
C1612 C1614 1.388 . S
C1613 C1612 1.366 . S
C1613 C1617 1.385 . S
C1614 H1595 0.951 . S
C1614 C1612 1.388 . S
C1614 C1615 1.366 . S
C1615 C1614 1.366 . S
C1615 C1616 1.414 . S
C1615 C1618 1.499 . S
C1616 H1596 0.950 . S
C1616 C1615 1.414 . S
C1616 C1617 1.374 . S
C1617 H1597 0.950 . S
C1617 C1613 1.385 . S
C1617 C1616 1.374 . S
C1618 C1615 1.499 . S
C1618 C1619 1.373 . S
C1618 C1620 1.389 . S
C1619 H1598 0.950 . S
C1619 C1618 1.373 . S
C1619 C1635 1.377 . S
C1620 C1618 1.389 . S
C1620 C1621 1.524 . S
C1620 C1634 1.377 . S
C1621 C1620 1.524 . S
C1621 C1622 1.397 . S
C1621 C1626 1.363 . S
C1622 H1599 0.950 . S
C1622 C1621 1.397 . S
C1622 C1623 1.334 . S
C1623 H1600 0.950 . S
C1623 C1622 1.334 . S
C1623 C1624 1.287 . S
C1624 C1623 1.287 . S
C1624 C1625 1.524 . S
C1624 H1643 0.913 . S
C1625 H1601 0.950 . S
C1625 C1624 1.524 . S
C1625 C1626 1.415 . S
C1626 H1602 0.950 . S
C1626 C1621 1.363 . S
C1626 C1625 1.415 . S
C1627 H1603 0.951 . S
C1627 C1628 1.366 . S
C1627 C1629 1.388 . S
C1628 C1627 1.366 . S
C1628 C1632 1.385 . S
C1629 H1604 0.941 1_554 S
C1629 C1627 1.388 . S
C1629 C1630 1.366 1_554 S
C1630 C1629 1.366 1_556 S
C1630 C1631 1.414 . S
C1630 C1633 1.499 . S
C1631 H1605 0.950 . S
C1631 C1630 1.414 . S
C1631 C1632 1.374 1_556 S
C1632 H1606 0.950 . S
C1632 C1628 1.385 . S
C1632 C1631 1.374 1_554 S
C1633 C1630 1.499 . S
C1633 C1634 1.373 . S
C1633 C1635 1.389 . S
C1634 H1607 0.950 . S
C1634 C1620 1.377 . S
C1634 C1633 1.373 . S
C1635 C1619 1.377 . S
C1635 C1633 1.389 . S
C1635 C1636 1.524 . S
C1636 C1635 1.524 . S
C1636 C1637 1.397 . S
C1636 C1641 1.363 . S
C1637 H1608 0.950 . S
C1637 C1636 1.397 . S
C1637 C1638 1.334 1_655 S
C1638 H1609 0.950 . S
C1638 C1637 1.334 1_455 S
C1638 C1639 1.287 . S
C1639 C1638 1.287 . S
C1639 C1640 1.524 . S
C1639 H1642 0.999 . S
C1640 H1610 0.950 . S
C1640 C1639 1.524 . S
C1640 C1641 1.415 1_455 S
C1641 H1611 0.950 . S
C1641 C1636 1.363 . S
C1641 C1640 1.415 1_655 S
H1642 C1639 0.999 . S
H1643 C1624 0.913 . S
H1644 C1662 0.951 . S
H1645 C1664 0.951 . S
H1646 C1666 0.950 . S
H1647 C1667 0.950 . S
H1648 C1669 0.950 . S
H1649 C1672 0.950 . S
H1650 C1673 0.950 . S
H1651 C1675 0.950 . S
H1652 C1676 0.950 . S
H1653 C1677 0.951 . S
H1654 C1679 0.951 . S
H1655 C1681 0.950 . S
H1656 C1682 0.950 . S
H1657 C1684 0.950 . S
H1658 C1687 0.950 . S
H1659 C1688 0.950 . S
H1660 C1690 0.950 . S
H1661 C1691 0.950 . S
C1662 H1644 0.951 . S
C1662 C1663 1.366 . S
C1662 C1664 1.388 . S
C1663 C1662 1.366 . S
C1663 C1667 1.385 . S
C1664 H1645 0.951 . S
C1664 C1662 1.388 . S
C1664 C1665 1.366 . S
C1665 C1664 1.366 . S
C1665 C1666 1.414 . S
C1665 C1668 1.499 . S
C1666 H1646 0.950 . S
C1666 C1665 1.414 . S
C1666 C1667 1.374 . S
C1667 H1647 0.950 . S
C1667 C1663 1.385 . S
C1667 C1666 1.374 . S
C1668 C1665 1.499 . S
C1668 C1669 1.373 . S
C1668 C1670 1.389 . S
C1669 H1648 0.950 . S
C1669 C1668 1.373 . S
C1669 C1685 1.377 . S
C1670 C1668 1.389 . S
C1670 C1671 1.524 . S
C1670 C1684 1.377 . S
C1671 C1670 1.524 . S
C1671 C1672 1.397 . S
C1671 C1676 1.363 . S
C1672 H1649 0.950 . S
C1672 C1671 1.397 . S
C1672 C1673 1.334 . S
C1673 H1650 0.950 . S
C1673 C1672 1.334 . S
C1673 C1674 1.287 . S
C1674 C1673 1.287 . S
C1674 C1675 1.524 . S
C1674 H1693 0.913 . S
C1675 H1651 0.950 . S
C1675 C1674 1.524 . S
C1675 C1676 1.415 . S
C1676 H1652 0.950 . S
C1676 C1671 1.363 . S
C1676 C1675 1.415 . S
C1677 H1653 0.951 . S
C1677 C1678 1.366 . S
C1677 C1679 1.388 . S
C1678 C1677 1.366 . S
C1678 C1682 1.385 . S
C1679 H1654 0.951 . S
C1679 C1677 1.388 . S
C1679 C1680 1.366 . S
C1680 C1679 1.366 . S
C1680 C1681 1.414 . S
C1680 C1683 1.499 . S
C1681 H1655 0.950 . S
C1681 C1680 1.414 . S
C1681 C1682 1.374 . S
C1682 H1656 0.950 . S
C1682 C1678 1.385 . S
C1682 C1681 1.374 . S
C1683 C1680 1.499 . S
C1683 C1684 1.373 . S
C1683 C1685 1.389 . S
C1684 H1657 0.950 . S
C1684 C1670 1.377 . S
C1684 C1683 1.373 . S
C1685 C1669 1.377 . S
C1685 C1683 1.389 . S
C1685 C1686 1.524 . S
C1686 C1685 1.524 . S
C1686 C1687 1.397 . S
C1686 C1691 1.363 . S
C1687 H1658 0.950 . S
C1687 C1686 1.397 . S
C1687 C1688 1.334 . S
C1688 H1659 0.950 . S
C1688 C1687 1.334 . S
C1688 C1689 1.287 . S
C1689 C1688 1.287 . S
C1689 C1690 1.524 . S
C1689 H1692 0.999 . S
C1690 H1660 0.950 . S
C1690 C1689 1.524 . S
C1690 C1691 1.415 . S
C1691 H1661 0.950 . S
C1691 C1686 1.363 . S
C1691 C1690 1.415 . S
H1692 C1689 0.999 . S
H1693 C1674 0.913 . S
H1694 C1712 0.951 . S
H1695 C1714 0.951 . S
H1696 C1716 0.950 . S
H1697 C1717 0.950 . S
H1698 C1719 0.950 . S
H1699 C1722 0.950 . S
H1700 C1723 0.950 . S
H1701 C1725 0.950 . S
H1702 C1726 0.950 . S
H1703 C1727 0.951 . S
H1704 C1729 0.951 . S
H1705 C1731 0.950 . S
H1706 C1732 0.950 . S
H1707 C1734 0.950 . S
H1708 C1737 0.950 . S
H1709 C1738 0.950 . S
H1710 C1740 0.950 . S
H1711 C1741 0.950 . S
C1712 H1694 0.951 . S
C1712 C1713 1.366 . S
C1712 C1714 1.388 . S
C1713 C1712 1.366 . S
C1713 C1717 1.385 . S
C1714 H1695 0.951 . S
C1714 C1712 1.388 . S
C1714 C1715 1.366 . S
C1715 C1714 1.366 . S
C1715 C1716 1.414 . S
C1715 C1718 1.499 . S
C1716 H1696 0.950 . S
C1716 C1715 1.414 . S
C1716 C1717 1.374 . S
C1717 H1697 0.950 . S
C1717 C1713 1.385 . S
C1717 C1716 1.374 . S
C1718 C1715 1.499 . S
C1718 C1719 1.373 . S
C1718 C1720 1.389 . S
C1719 H1698 0.950 . S
C1719 C1718 1.373 . S
C1719 C1735 1.377 . S
C1720 C1718 1.389 . S
C1720 C1721 1.524 . S
C1720 C1734 1.377 . S
C1721 C1720 1.524 . S
C1721 C1722 1.397 . S
C1721 C1726 1.363 . S
C1722 H1699 0.950 . S
C1722 C1721 1.397 . S
C1722 C1723 1.334 . S
C1723 H1700 0.950 . S
C1723 C1722 1.334 . S
C1723 C1724 1.287 . S
C1724 C1723 1.287 . S
C1724 C1725 1.524 . S
C1724 H1743 0.913 . S
C1725 H1701 0.950 . S
C1725 C1724 1.524 . S
C1725 C1726 1.415 . S
C1726 H1702 0.950 . S
C1726 C1721 1.363 . S
C1726 C1725 1.415 . S
C1727 H1703 0.951 . S
C1727 C1728 1.366 . S
C1727 C1729 1.388 . S
C1728 C1727 1.366 . S
C1728 C1732 1.385 . S
C1729 H1704 0.951 . S
C1729 C1727 1.388 . S
C1729 C1730 1.366 . S
C1730 C1729 1.366 . S
C1730 C1731 1.414 . S
C1730 C1733 1.499 . S
C1731 H1705 0.950 . S
C1731 C1730 1.414 . S
C1731 C1732 1.374 . S
C1732 H1706 0.950 . S
C1732 C1728 1.385 . S
C1732 C1731 1.374 . S
C1733 C1730 1.499 . S
C1733 C1734 1.373 . S
C1733 C1735 1.389 . S
C1734 H1707 0.950 . S
C1734 C1720 1.377 . S
C1734 C1733 1.373 . S
C1735 C1719 1.377 . S
C1735 C1733 1.389 . S
C1735 C1736 1.524 . S
C1736 C1735 1.524 . S
C1736 C1737 1.397 . S
C1736 C1741 1.363 . S
C1737 H1708 0.950 . S
C1737 C1736 1.397 . S
C1737 C1738 1.334 . S
C1738 H1709 0.950 . S
C1738 C1737 1.334 . S
C1738 C1739 1.287 . S
C1739 C1738 1.287 . S
C1739 C1740 1.524 . S
C1739 H1742 0.999 . S
C1740 H1710 0.950 . S
C1740 C1739 1.524 . S
C1740 C1741 1.415 . S
C1741 H1711 0.950 . S
C1741 C1736 1.363 . S
C1741 C1740 1.415 . S
H1742 C1739 0.999 . S
H1743 C1724 0.913 . S
H1744 C1762 0.951 . S
H1745 C1764 0.951 . S
H1746 C1766 0.950 . S
H1747 C1767 0.950 . S
H1748 C1769 0.950 . S
H1749 C1772 0.950 . S
H1750 C1773 0.950 . S
H1751 C1775 0.950 . S
H1752 C1776 0.950 . S
H1753 C1777 0.951 . S
H1754 C1779 0.951 . S
H1755 C1781 0.950 . S
H1756 C1782 0.950 . S
H1757 C1784 0.950 . S
H1758 C1787 0.950 . S
H1759 C1788 0.950 . S
H1760 C1790 0.950 . S
H1761 C1791 0.950 . S
C1762 H1744 0.951 . S
C1762 C1763 1.366 . S
C1762 C1764 1.388 . S
C1763 C1762 1.366 . S
C1763 C1767 1.385 . S
C1764 H1745 0.951 . S
C1764 C1762 1.388 . S
C1764 C1765 1.366 . S
C1765 C1764 1.366 . S
C1765 C1766 1.414 . S
C1765 C1768 1.499 . S
C1766 H1746 0.950 . S
C1766 C1765 1.414 . S
C1766 C1767 1.374 . S
C1767 H1747 0.950 . S
C1767 C1763 1.385 . S
C1767 C1766 1.374 . S
C1768 C1765 1.499 . S
C1768 C1769 1.373 . S
C1768 C1770 1.389 . S
C1769 H1748 0.950 . S
C1769 C1768 1.373 . S
C1769 C1785 1.377 . S
C1770 C1768 1.389 . S
C1770 C1771 1.524 . S
C1770 C1784 1.377 . S
C1771 C1770 1.524 . S
C1771 C1772 1.397 . S
C1771 C1776 1.363 . S
C1772 H1749 0.950 . S
C1772 C1771 1.397 . S
C1772 C1773 1.334 . S
C1773 H1750 0.950 . S
C1773 C1772 1.334 . S
C1773 C1774 1.287 . S
C1774 C1773 1.287 . S
C1774 C1775 1.524 . S
C1774 H1793 0.913 . S
C1775 H1751 0.950 . S
C1775 C1774 1.524 . S
C1775 C1776 1.415 . S
C1776 H1752 0.950 . S
C1776 C1771 1.363 . S
C1776 C1775 1.415 . S
C1777 H1753 0.951 . S
C1777 C1778 1.366 . S
C1777 C1779 1.388 . S
C1778 C1777 1.366 . S
C1778 C1782 1.385 . S
C1779 H1754 0.951 . S
C1779 C1777 1.388 . S
C1779 C1780 1.366 . S
C1780 C1779 1.366 . S
C1780 C1781 1.414 . S
C1780 C1783 1.499 . S
C1781 H1755 0.950 . S
C1781 C1780 1.414 . S
C1781 C1782 1.374 . S
C1782 H1756 0.950 . S
C1782 C1778 1.385 . S
C1782 C1781 1.374 . S
C1783 C1780 1.499 . S
C1783 C1784 1.373 . S
C1783 C1785 1.389 . S
C1784 H1757 0.950 . S
C1784 C1770 1.377 . S
C1784 C1783 1.373 . S
C1785 C1769 1.377 . S
C1785 C1783 1.389 . S
C1785 C1786 1.524 . S
C1786 C1785 1.524 . S
C1786 C1787 1.397 . S
C1786 C1791 1.363 . S
C1787 H1758 0.950 . S
C1787 C1786 1.397 . S
C1787 C1788 1.334 . S
C1788 H1759 0.950 . S
C1788 C1787 1.334 . S
C1788 C1789 1.287 . S
C1789 C1788 1.287 . S
C1789 C1790 1.524 . S
C1789 H1792 0.999 . S
C1790 H1760 0.950 . S
C1790 C1789 1.524 . S
C1790 C1791 1.415 . S
C1791 H1761 0.950 . S
C1791 C1786 1.363 . S
C1791 C1790 1.415 . S
H1792 C1789 0.999 . S
H1793 C1774 0.913 . S
H1794 C1812 0.951 . S
H1795 C1814 0.951 . S
H1796 C1816 0.950 . S
H1797 C1817 0.950 . S
H1798 C1819 0.950 . S
H1799 C1822 0.950 . S
H1800 C1823 0.950 . S
H1801 C1825 0.950 . S
H1802 C1826 0.950 . S
H1803 C1827 0.951 . S
H1804 C1829 0.951 . S
H1805 C1831 0.950 . S
H1806 C1832 0.950 . S
H1807 C1834 0.950 . S
H1808 C1837 0.950 . S
H1809 C1838 0.950 . S
H1810 C1840 0.950 . S
H1811 C1841 0.950 . S
C1812 H1794 0.951 . S
C1812 C1813 1.366 . S
C1812 C1814 1.388 . S
C1813 C1812 1.366 . S
C1813 C1817 1.385 . S
C1814 H1795 0.951 . S
C1814 C1812 1.388 . S
C1814 C1815 1.366 . S
C1815 C1814 1.366 . S
C1815 C1816 1.414 . S
C1815 C1818 1.499 . S
C1816 H1796 0.950 . S
C1816 C1815 1.414 . S
C1816 C1817 1.374 . S
C1817 H1797 0.950 . S
C1817 C1813 1.385 . S
C1817 C1816 1.374 . S
C1818 C1815 1.499 . S
C1818 C1819 1.373 . S
C1818 C1820 1.389 . S
C1819 H1798 0.950 . S
C1819 C1818 1.373 . S
C1819 C1835 1.377 . S
C1820 C1818 1.389 . S
C1820 C1821 1.524 . S
C1820 C1834 1.377 . S
C1821 C1820 1.524 . S
C1821 C1822 1.397 . S
C1821 C1826 1.363 . S
C1822 H1799 0.950 . S
C1822 C1821 1.397 . S
C1822 C1823 1.334 . S
C1823 H1800 0.950 . S
C1823 C1822 1.334 . S
C1823 C1824 1.287 . S
C1824 C1823 1.287 . S
C1824 C1825 1.524 . S
C1824 H1843 0.913 . S
C1825 H1801 0.950 . S
C1825 C1824 1.524 . S
C1825 C1826 1.415 . S
C1826 H1802 0.950 . S
C1826 C1821 1.363 . S
C1826 C1825 1.415 . S
C1827 H1803 0.951 . S
C1827 C1828 1.366 . S
C1827 C1829 1.388 . S
C1828 C1827 1.366 . S
C1828 C1832 1.385 . S
C1829 H1804 0.951 . S
C1829 C1827 1.388 . S
C1829 C1830 1.366 . S
C1830 C1829 1.366 . S
C1830 C1831 1.414 . S
C1830 C1833 1.499 . S
C1831 H1805 0.950 . S
C1831 C1830 1.414 . S
C1831 C1832 1.374 . S
C1832 H1806 0.950 . S
C1832 C1828 1.385 . S
C1832 C1831 1.374 . S
C1833 C1830 1.499 . S
C1833 C1834 1.373 . S
C1833 C1835 1.389 . S
C1834 H1807 0.950 . S
C1834 C1820 1.377 . S
C1834 C1833 1.373 . S
C1835 C1819 1.377 . S
C1835 C1833 1.389 . S
C1835 C1836 1.524 . S
C1836 C1835 1.524 . S
C1836 C1837 1.397 . S
C1836 C1841 1.363 . S
C1837 H1808 0.950 . S
C1837 C1836 1.397 . S
C1837 C1838 1.334 . S
C1838 H1809 0.950 . S
C1838 C1837 1.334 . S
C1838 C1839 1.287 . S
C1839 C1838 1.287 . S
C1839 C1840 1.524 . S
C1839 H1842 0.999 . S
C1840 H1810 0.950 . S
C1840 C1839 1.524 . S
C1840 C1841 1.415 . S
C1841 H1811 0.950 . S
C1841 C1836 1.363 . S
C1841 C1840 1.415 . S
H1842 C1839 0.999 . S
H1843 C1824 0.913 . S
H1844 C1862 0.951 . S
H1845 C1864 0.951 . S
H1846 C1866 0.950 . S
H1847 C1867 0.950 . S
H1848 C1869 0.950 . S
H1849 C1872 0.950 . S
H1850 C1873 0.950 . S
H1851 C1875 0.950 . S
H1852 C1876 0.950 . S
H1853 C1877 0.951 . S
H1854 C1879 0.951 . S
H1855 C1881 0.950 . S
H1856 C1882 0.950 . S
H1857 C1884 0.950 . S
H1858 C1887 0.950 . S
H1859 C1888 0.950 . S
H1860 C1890 0.950 . S
H1861 C1891 0.950 . S
C1862 H1844 0.951 . S
C1862 C1863 1.366 . S
C1862 C1864 1.388 . S
C1863 C1862 1.366 . S
C1863 C1867 1.385 . S
C1864 H1845 0.951 . S
C1864 C1862 1.388 . S
C1864 C1865 1.366 . S
C1865 C1864 1.366 . S
C1865 C1866 1.414 . S
C1865 C1868 1.499 . S
C1866 H1846 0.950 . S
C1866 C1865 1.414 . S
C1866 C1867 1.374 . S
C1867 H1847 0.950 . S
C1867 C1863 1.385 . S
C1867 C1866 1.374 . S
C1868 C1865 1.499 . S
C1868 C1869 1.373 . S
C1868 C1870 1.389 . S
C1869 H1848 0.950 . S
C1869 C1868 1.373 . S
C1869 C1885 1.377 . S
C1870 C1868 1.389 . S
C1870 C1871 1.524 . S
C1870 C1884 1.377 . S
C1871 C1870 1.524 . S
C1871 C1872 1.397 . S
C1871 C1876 1.363 . S
C1872 H1849 0.950 . S
C1872 C1871 1.397 . S
C1872 C1873 1.334 . S
C1873 H1850 0.950 . S
C1873 C1872 1.334 . S
C1873 C1874 1.287 . S
C1874 C1873 1.287 . S
C1874 C1875 1.524 . S
C1874 H1893 0.913 . S
C1875 H1851 0.950 . S
C1875 C1874 1.524 . S
C1875 C1876 1.415 . S
C1876 H1852 0.950 . S
C1876 C1871 1.363 . S
C1876 C1875 1.415 . S
C1877 H1853 0.951 . S
C1877 C1878 1.366 . S
C1877 C1879 1.388 . S
C1878 C1877 1.366 . S
C1878 C1882 1.385 . S
C1879 H1854 0.951 . S
C1879 C1877 1.388 . S
C1879 C1880 1.366 . S
C1880 C1879 1.366 . S
C1880 C1881 1.414 . S
C1880 C1883 1.499 . S
C1881 H1855 0.950 . S
C1881 C1880 1.414 . S
C1881 C1882 1.374 . S
C1882 H1856 0.950 . S
C1882 C1878 1.385 . S
C1882 C1881 1.374 . S
C1883 C1880 1.499 . S
C1883 C1884 1.373 . S
C1883 C1885 1.389 . S
C1884 H1857 0.950 . S
C1884 C1870 1.377 . S
C1884 C1883 1.373 . S
C1885 C1869 1.377 . S
C1885 C1883 1.389 . S
C1885 C1886 1.524 . S
C1886 C1885 1.524 . S
C1886 C1887 1.397 . S
C1886 C1891 1.363 . S
C1887 H1858 0.950 . S
C1887 C1886 1.397 . S
C1887 C1888 1.334 . S
C1888 H1859 0.950 . S
C1888 C1887 1.334 . S
C1888 C1889 1.287 . S
C1889 C1888 1.287 . S
C1889 C1890 1.524 . S
C1889 H1892 0.999 1_655 S
C1890 H1860 0.950 . S
C1890 C1889 1.524 . S
C1890 C1891 1.415 . S
C1891 H1861 0.950 . S
C1891 C1886 1.363 . S
C1891 C1890 1.415 . S
H1892 C1889 0.999 1_455 S
H1893 C1874 0.913 . S
H1894 C1912 0.951 . S
H1895 C1914 0.951 . S
H1896 C1916 0.950 . S
H1897 C1917 0.950 . S
H1898 C1919 0.950 . S
H1899 C1922 0.950 . S
H1900 C1923 0.950 . S
H1901 C1925 0.950 . S
H1902 C1926 0.950 . S
H1903 C1927 0.951 . S
H1904 C1929 0.951 . S
H1905 C1931 0.950 . S
H1906 C1932 0.950 . S
H1907 C1934 0.950 . S
H1908 C1937 0.950 . S
H1909 C1938 0.950 . S
H1910 C1940 0.950 . S
H1911 C1941 0.950 . S
C1912 H1894 0.951 . S
C1912 C1913 1.366 . S
C1912 C1914 1.388 . S
C1913 C1912 1.366 . S
C1913 C1917 1.385 . S
C1914 H1895 0.951 . S
C1914 C1912 1.388 . S
C1914 C1915 1.366 . S
C1915 C1914 1.366 . S
C1915 C1916 1.414 . S
C1915 C1918 1.499 . S
C1916 H1896 0.950 . S
C1916 C1915 1.414 . S
C1916 C1917 1.374 . S
C1917 H1897 0.950 . S
C1917 C1913 1.385 . S
C1917 C1916 1.374 . S
C1918 C1915 1.499 . S
C1918 C1919 1.373 . S
C1918 C1920 1.389 . S
C1919 H1898 0.950 . S
C1919 C1918 1.373 . S
C1919 C1935 1.377 . S
C1920 C1918 1.389 . S
C1920 C1921 1.524 . S
C1920 C1934 1.377 . S
C1921 C1920 1.524 . S
C1921 C1922 1.397 . S
C1921 C1926 1.363 . S
C1922 H1899 0.950 . S
C1922 C1921 1.397 . S
C1922 C1923 1.334 . S
C1923 H1900 0.950 . S
C1923 C1922 1.334 . S
C1923 C1924 1.287 . S
C1924 C1923 1.287 . S
C1924 C1925 1.524 1_655 S
C1924 H1943 0.913 1_655 S
C1925 H1901 0.950 . S
C1925 C1924 1.524 1_455 S
C1925 C1926 1.415 1_455 S
C1926 H1902 0.950 . S
C1926 C1921 1.363 . S
C1926 C1925 1.415 1_655 S
C1927 H1903 0.951 . S
C1927 C1928 1.366 . S
C1927 C1929 1.388 . S
C1928 C1927 1.366 . S
C1928 C1932 1.385 . S
C1929 H1904 0.951 . S
C1929 C1927 1.388 . S
C1929 C1930 1.366 . S
C1930 C1929 1.366 . S
C1930 C1931 1.414 . S
C1930 C1933 1.499 . S
C1931 H1905 0.950 . S
C1931 C1930 1.414 . S
C1931 C1932 1.374 . S
C1932 H1906 0.950 . S
C1932 C1928 1.385 . S
C1932 C1931 1.374 . S
C1933 C1930 1.499 . S
C1933 C1934 1.373 . S
C1933 C1935 1.389 . S
C1934 H1907 0.950 . S
C1934 C1920 1.377 . S
C1934 C1933 1.373 . S
C1935 C1919 1.377 . S
C1935 C1933 1.389 . S
C1935 C1936 1.524 . S
C1936 C1935 1.524 . S
C1936 C1937 1.397 . S
C1936 C1941 1.363 . S
C1937 H1908 0.950 . S
C1937 C1936 1.397 . S
C1937 C1938 1.334 . S
C1938 H1909 0.950 . S
C1938 C1937 1.334 . S
C1938 C1939 1.287 . S
C1939 C1938 1.287 . S
C1939 C1940 1.524 . S
C1939 H1942 0.999 . S
C1940 H1910 0.950 . S
C1940 C1939 1.524 . S
C1940 C1941 1.415 . S
C1941 H1911 0.950 . S
C1941 C1936 1.363 . S
C1941 C1940 1.415 . S
H1942 C1939 0.999 . S
H1943 C1924 0.913 1_455 S
H1944 C1962 0.951 . S
H1945 C1964 0.951 . S
H1946 C1966 0.950 . S
H1947 C1967 0.950 . S
H1948 C1969 0.950 . S
H1949 C1972 0.950 . S
H1950 C1973 0.950 . S
H1951 C1975 0.950 . S
H1952 C1976 0.950 . S
H1953 C1977 0.951 . S
H1954 C1979 0.951 . S
H1955 C1981 0.950 . S
H1956 C1982 0.950 . S
H1957 C1984 0.950 . S
H1958 C1987 0.950 . S
H1959 C1988 0.950 . S
H1960 C1990 0.950 . S
H1961 C1991 0.950 . S
C1962 H1944 0.951 . S
C1962 C1963 1.366 . S
C1962 C1964 1.388 . S
C1963 C1962 1.366 . S
C1963 C1967 1.385 . S
C1964 H1945 0.951 . S
C1964 C1962 1.388 . S
C1964 C1965 1.366 . S
C1965 C1964 1.366 . S
C1965 C1966 1.414 . S
C1965 C1968 1.499 . S
C1966 H1946 0.950 . S
C1966 C1965 1.414 . S
C1966 C1967 1.374 . S
C1967 H1947 0.950 . S
C1967 C1963 1.385 . S
C1967 C1966 1.374 . S
C1968 C1965 1.499 . S
C1968 C1969 1.373 . S
C1968 C1970 1.389 . S
C1969 H1948 0.950 . S
C1969 C1968 1.373 . S
C1969 C1985 1.377 . S
C1970 C1968 1.389 . S
C1970 C1971 1.524 . S
C1970 C1984 1.377 . S
C1971 C1970 1.524 . S
C1971 C1972 1.397 . S
C1971 C1976 1.363 . S
C1972 H1949 0.950 . S
C1972 C1971 1.397 . S
C1972 C1973 1.334 . S
C1973 H1950 0.950 . S
C1973 C1972 1.334 . S
C1973 C1974 1.287 . S
C1974 C1973 1.287 . S
C1974 C1975 1.524 . S
C1974 H1993 0.913 . S
C1975 H1951 0.950 . S
C1975 C1974 1.524 . S
C1975 C1976 1.415 . S
C1976 H1952 0.950 . S
C1976 C1971 1.363 . S
C1976 C1975 1.415 . S
C1977 H1953 0.951 . S
C1977 C1978 1.366 . S
C1977 C1979 1.388 . S
C1978 C1977 1.366 . S
C1978 C1982 1.385 . S
C1979 H1954 0.951 . S
C1979 C1977 1.388 . S
C1979 C1980 1.366 . S
C1980 C1979 1.366 . S
C1980 C1981 1.414 . S
C1980 C1983 1.499 . S
C1981 H1955 0.950 . S
C1981 C1980 1.414 . S
C1981 C1982 1.374 . S
C1982 H1956 0.950 . S
C1982 C1978 1.385 . S
C1982 C1981 1.374 . S
C1983 C1980 1.499 . S
C1983 C1984 1.373 . S
C1983 C1985 1.389 . S
C1984 H1957 0.950 . S
C1984 C1970 1.377 . S
C1984 C1983 1.373 . S
C1985 C1969 1.377 . S
C1985 C1983 1.389 . S
C1985 C1986 1.524 . S
C1986 C1985 1.524 . S
C1986 C1987 1.397 . S
C1986 C1991 1.363 . S
C1987 H1958 0.950 . S
C1987 C1986 1.397 . S
C1987 C1988 1.334 . S
C1988 H1959 0.950 . S
C1988 C1987 1.334 . S
C1988 C1989 1.287 . S
C1989 C1988 1.287 . S
C1989 C1990 1.524 . S
C1989 H1992 0.999 . S
C1990 H1960 0.950 . S
C1990 C1989 1.524 . S
C1990 C1991 1.415 . S
C1991 H1961 0.950 . S
C1991 C1986 1.363 . S
C1991 C1990 1.415 . S
H1992 C1989 0.999 . S
H1993 C1974 0.913 . S
H1994 C2012 0.951 . S
H1995 C2014 0.951 . S
H1996 C2016 0.950 . S
H1997 C2017 0.950 . S
H1998 C2019 0.950 . S
H1999 C2022 0.950 . S
H2000 C2023 0.950 . S
H2001 C2025 0.950 . S
H2002 C2026 0.950 . S
H2003 C2027 0.951 . S
H2004 C2029 0.951 . S
H2005 C2031 0.950 . S
H2006 C2032 0.950 . S
H2007 C2034 0.950 . S
H2008 C2037 0.950 . S
H2009 C2038 0.950 . S
H2010 C2040 0.950 . S
H2011 C2041 0.950 . S
C2012 H1994 0.951 . S
C2012 C2013 1.366 . S
C2012 C2014 1.388 . S
C2013 C2012 1.366 . S
C2013 C2017 1.385 . S
C2014 H1995 0.951 . S
C2014 C2012 1.388 . S
C2014 C2015 1.366 . S
C2015 C2014 1.366 . S
C2015 C2016 1.414 . S
C2015 C2018 1.499 . S
C2016 H1996 0.950 . S
C2016 C2015 1.414 . S
C2016 C2017 1.374 . S
C2017 H1997 0.950 . S
C2017 C2013 1.385 . S
C2017 C2016 1.374 . S
C2018 C2015 1.499 . S
C2018 C2019 1.373 . S
C2018 C2020 1.389 . S
C2019 H1998 0.950 . S
C2019 C2018 1.373 . S
C2019 C2035 1.377 . S
C2020 C2018 1.389 . S
C2020 C2021 1.524 . S
C2020 C2034 1.377 . S
C2021 C2020 1.524 . S
C2021 C2022 1.397 . S
C2021 C2026 1.363 . S
C2022 H1999 0.950 . S
C2022 C2021 1.397 . S
C2022 C2023 1.334 . S
C2023 H2000 0.950 . S
C2023 C2022 1.334 . S
C2023 C2024 1.287 . S
C2024 C2023 1.287 . S
C2024 C2025 1.524 . S
C2024 H2043 0.913 . S
C2025 H2001 0.950 . S
C2025 C2024 1.524 . S
C2025 C2026 1.415 . S
C2026 H2002 0.950 . S
C2026 C2021 1.363 . S
C2026 C2025 1.415 . S
C2027 H2003 0.951 . S
C2027 C2028 1.366 . S
C2027 C2029 1.388 . S
C2028 C2027 1.366 . S
C2028 C2032 1.385 . S
C2029 H2004 0.951 . S
C2029 C2027 1.388 . S
C2029 C2030 1.366 . S
C2030 C2029 1.366 . S
C2030 C2031 1.414 . S
C2030 C2033 1.499 . S
C2031 H2005 0.950 . S
C2031 C2030 1.414 . S
C2031 C2032 1.374 . S
C2032 H2006 0.950 . S
C2032 C2028 1.385 . S
C2032 C2031 1.374 . S
C2033 C2030 1.499 . S
C2033 C2034 1.373 . S
C2033 C2035 1.389 . S
C2034 H2007 0.950 . S
C2034 C2020 1.377 . S
C2034 C2033 1.373 . S
C2035 C2019 1.377 . S
C2035 C2033 1.389 . S
C2035 C2036 1.524 . S
C2036 C2035 1.524 . S
C2036 C2037 1.397 . S
C2036 C2041 1.363 . S
C2037 H2008 0.950 . S
C2037 C2036 1.397 . S
C2037 C2038 1.334 . S
C2038 H2009 0.950 . S
C2038 C2037 1.334 . S
C2038 C2039 1.287 . S
C2039 C2038 1.287 . S
C2039 C2040 1.524 . S
C2039 H2042 0.999 . S
C2040 H2010 0.950 . S
C2040 C2039 1.524 . S
C2040 C2041 1.415 . S
C2041 H2011 0.950 . S
C2041 C2036 1.363 . S
C2041 C2040 1.415 . S
H2042 C2039 0.999 . S
H2043 C2024 0.913 . S
H2044 C2062 0.951 . S
H2045 C2064 0.951 . S
H2046 C2066 0.950 . S
H2047 C2067 0.950 . S
H2048 C2069 0.950 . S
H2049 C2072 0.950 . S
H2050 C2073 0.950 . S
H2051 C2075 0.950 . S
H2052 C2076 0.950 . S
H2053 C2077 0.951 . S
H2054 C2079 0.951 . S
H2055 C2081 0.950 . S
H2056 C2082 0.950 1_556 S
H2057 C2084 0.950 . S
H2058 C2087 0.950 . S
H2059 C2088 0.950 . S
H2060 C2090 0.950 . S
H2061 C2091 0.950 . S
C2062 H2044 0.951 . S
C2062 C2063 1.366 . S
C2062 C2064 1.388 . S
C2063 C2062 1.366 . S
C2063 C2067 1.385 . S
C2064 H2045 0.951 . S
C2064 C2062 1.388 . S
C2064 C2065 1.366 . S
C2065 C2064 1.366 . S
C2065 C2066 1.414 . S
C2065 C2068 1.499 . S
C2066 H2046 0.950 . S
C2066 C2065 1.414 . S
C2066 C2067 1.374 . S
C2067 H2047 0.950 . S
C2067 C2063 1.385 . S
C2067 C2066 1.374 . S
C2068 C2065 1.499 . S
C2068 C2069 1.373 . S
C2068 C2070 1.389 . S
C2069 H2048 0.950 . S
C2069 C2068 1.373 . S
C2069 C2085 1.377 . S
C2070 C2068 1.389 . S
C2070 C2071 1.524 . S
C2070 C2084 1.377 . S
C2071 C2070 1.524 . S
C2071 C2072 1.397 . S
C2071 C2076 1.363 . S
C2072 H2049 0.950 . S
C2072 C2071 1.397 . S
C2072 C2073 1.334 . S
C2073 H2050 0.950 . S
C2073 C2072 1.334 . S
C2073 C2074 1.287 . S
C2074 C2073 1.287 . S
C2074 C2075 1.524 . S
C2074 H2093 0.913 . S
C2075 H2051 0.950 . S
C2075 C2074 1.524 . S
C2075 C2076 1.415 . S
C2076 H2052 0.950 . S
C2076 C2071 1.363 . S
C2076 C2075 1.415 . S
C2077 H2053 0.951 . S
C2077 C2078 1.366 1_554 S
C2077 C2079 1.388 . S
C2078 C2077 1.366 1_556 S
C2078 C2082 1.385 1_556 S
C2079 H2054 0.951 . S
C2079 C2077 1.388 . S
C2079 C2080 1.366 . S
C2080 C2079 1.366 . S
C2080 C2081 1.414 . S
C2080 C2083 1.499 . S
C2081 H2055 0.950 . S
C2081 C2080 1.414 . S
C2081 C2082 1.374 . S
C2082 H2056 0.950 1_554 S
C2082 C2078 1.385 1_554 S
C2082 C2081 1.374 . S
C2083 C2080 1.499 . S
C2083 C2084 1.373 . S
C2083 C2085 1.389 . S
C2084 H2057 0.950 . S
C2084 C2070 1.377 . S
C2084 C2083 1.373 . S
C2085 C2069 1.377 . S
C2085 C2083 1.389 . S
C2085 C2086 1.524 . S
C2086 C2085 1.524 . S
C2086 C2087 1.397 . S
C2086 C2091 1.363 . S
C2087 H2058 0.950 . S
C2087 C2086 1.397 . S
C2087 C2088 1.334 . S
C2088 H2059 0.950 . S
C2088 C2087 1.334 . S
C2088 C2089 1.287 . S
C2089 C2088 1.287 . S
C2089 C2090 1.524 . S
C2089 H2092 0.999 1_455 S
C2090 H2060 0.950 . S
C2090 C2089 1.524 . S
C2090 C2091 1.415 . S
C2091 H2061 0.950 . S
C2091 C2086 1.363 . S
C2091 C2090 1.415 . S
H2092 C2089 0.999 1_655 S
H2093 C2074 0.913 . S
H2094 C2112 0.951 . S
H2095 C2114 0.951 . S
H2096 C2116 0.950 . S
H2097 C2117 0.950 . S
H2098 C2119 0.950 . S
H2099 C2122 0.950 . S
H2100 C2123 0.950 . S
H2101 C2125 0.950 . S
H2102 C2126 0.950 . S
H2103 C2127 0.951 1_554 S
H2104 C2129 0.951 . S
H2105 C2131 0.950 . S
H2106 C2132 0.950 . S
H2107 C2134 0.950 . S
H2108 C2137 0.950 . S
H2109 C2138 0.950 . S
H2110 C2140 0.950 . S
H2111 C2141 0.950 . S
C2112 H2094 0.951 . S
C2112 C2113 1.366 . S
C2112 C2114 1.388 . S
C2113 C2112 1.366 . S
C2113 C2117 1.385 . S
C2114 H2095 0.951 . S
C2114 C2112 1.388 . S
C2114 C2115 1.366 . S
C2115 C2114 1.366 . S
C2115 C2116 1.414 . S
C2115 C2118 1.499 . S
C2116 H2096 0.950 . S
C2116 C2115 1.414 . S
C2116 C2117 1.374 . S
C2117 H2097 0.950 . S
C2117 C2113 1.385 . S
C2117 C2116 1.374 . S
C2118 C2115 1.499 . S
C2118 C2119 1.373 . S
C2118 C2120 1.389 . S
C2119 H2098 0.950 . S
C2119 C2118 1.373 . S
C2119 C2135 1.377 . S
C2120 C2118 1.389 . S
C2120 C2121 1.524 . S
C2120 C2134 1.377 . S
C2121 C2120 1.524 . S
C2121 C2122 1.397 . S
C2121 C2126 1.363 . S
C2122 H2099 0.950 . S
C2122 C2121 1.397 . S
C2122 C2123 1.334 . S
C2123 H2100 0.950 . S
C2123 C2122 1.334 . S
C2123 C2124 1.287 . S
C2124 C2123 1.287 . S
C2124 C2125 1.524 . S
C2124 H2143 0.913 . S
C2125 H2101 0.950 . S
C2125 C2124 1.524 . S
C2125 C2126 1.415 . S
C2126 H2102 0.950 . S
C2126 C2121 1.363 . S
C2126 C2125 1.415 . S
C2127 H2103 0.951 1_556 S
C2127 C2128 1.366 . S
C2127 C2129 1.388 . S
C2128 C2127 1.366 . S
C2128 C2132 1.385 . S
C2129 H2104 0.951 . S
C2129 C2127 1.388 . S
C2129 C2130 1.366 . S
C2130 C2129 1.366 . S
C2130 C2131 1.414 . S
C2130 C2133 1.499 . S
C2131 H2105 0.950 . S
C2131 C2130 1.414 . S
C2131 C2132 1.374 . S
C2132 H2106 0.950 . S
C2132 C2128 1.385 . S
C2132 C2131 1.374 . S
C2133 C2130 1.499 . S
C2133 C2134 1.373 . S
C2133 C2135 1.389 . S
C2134 H2107 0.950 . S
C2134 C2120 1.377 . S
C2134 C2133 1.373 . S
C2135 C2119 1.377 . S
C2135 C2133 1.389 . S
C2135 C2136 1.524 . S
C2136 C2135 1.524 . S
C2136 C2137 1.397 . S
C2136 C2141 1.363 . S
C2137 H2108 0.950 . S
C2137 C2136 1.397 . S
C2137 C2138 1.334 . S
C2138 H2109 0.950 . S
C2138 C2137 1.334 . S
C2138 C2139 1.287 . S
C2139 C2138 1.287 . S
C2139 C2140 1.524 . S
C2139 H2142 0.999 . S
C2140 H2110 0.950 . S
C2140 C2139 1.524 . S
C2140 C2141 1.415 . S
C2141 H2111 0.950 . S
C2141 C2136 1.363 . S
C2141 C2140 1.415 . S
H2142 C2139 0.999 . S
H2143 C2124 0.913 . S
H2144 C2162 0.951 . S
H2145 C2164 0.951 . S
H2146 C2166 0.950 . S
H2147 C2167 0.950 . S
H2148 C2169 0.950 . S
H2149 C2172 0.950 1_455 S
H2150 C2173 0.950 . S
H2151 C2175 0.950 . S
H2152 C2176 0.950 . S
H2153 C2177 0.951 . S
H2154 C2179 0.951 . S
H2155 C2181 0.950 . S
H2156 C2182 0.950 . S
H2157 C2184 0.950 1_655 S
H2158 C2187 0.950 . S
H2159 C2188 0.950 . S
H2160 C2190 0.950 . S
H2161 C2191 0.950 . S
C2162 H2144 0.951 . S
C2162 C2163 1.366 . S
C2162 C2164 1.388 . S
C2163 C2162 1.366 . S
C2163 C2167 1.385 . S
C2164 H2145 0.951 . S
C2164 C2162 1.388 . S
C2164 C2165 1.366 . S
C2165 C2164 1.366 . S
C2165 C2166 1.414 . S
C2165 C2168 1.499 . S
C2166 H2146 0.950 . S
C2166 C2165 1.414 . S
C2166 C2167 1.374 . S
C2167 H2147 0.950 . S
C2167 C2163 1.385 . S
C2167 C2166 1.374 . S
C2168 C2165 1.499 . S
C2168 C2169 1.373 . S
C2168 C2170 1.389 . S
C2169 H2148 0.950 . S
C2169 C2168 1.373 . S
C2169 C2185 1.377 . S
C2170 C2168 1.389 . S
C2170 C2171 1.524 1_455 S
C2170 C2184 1.377 . S
C2171 C2170 1.524 1_655 S
C2171 C2172 1.397 . S
C2171 C2176 1.363 . S
C2172 H2149 0.950 1_655 S
C2172 C2171 1.397 . S
C2172 C2173 1.334 . S
C2173 H2150 0.950 . S
C2173 C2172 1.334 . S
C2173 C2174 1.287 . S
C2174 C2173 1.287 . S
C2174 C2175 1.524 . S
C2174 H2193 0.913 . S
C2175 H2151 0.950 . S
C2175 C2174 1.524 . S
C2175 C2176 1.415 . S
C2176 H2152 0.950 . S
C2176 C2171 1.363 . S
C2176 C2175 1.415 . S
C2177 H2153 0.951 . S
C2177 C2178 1.366 . S
C2177 C2179 1.388 . S
C2178 C2177 1.366 . S
C2178 C2182 1.385 1_455 S
C2179 H2154 0.951 . S
C2179 C2177 1.388 . S
C2179 C2180 1.366 . S
C2180 C2179 1.366 . S
C2180 C2181 1.414 1_455 S
C2180 C2183 1.499 . S
C2181 H2155 0.950 . S
C2181 C2180 1.414 1_655 S
C2181 C2182 1.374 . S
C2182 H2156 0.950 . S
C2182 C2178 1.385 1_655 S
C2182 C2181 1.374 . S
C2183 C2180 1.499 . S
C2183 C2184 1.373 . S
C2183 C2185 1.389 . S
C2184 H2157 0.950 1_455 S
C2184 C2170 1.377 . S
C2184 C2183 1.373 . S
C2185 C2169 1.377 . S
C2185 C2183 1.389 . S
C2185 C2186 1.524 . S
C2186 C2185 1.524 . S
C2186 C2187 1.397 . S
C2186 C2191 1.363 . S
C2187 H2158 0.950 . S
C2187 C2186 1.397 . S
C2187 C2188 1.334 . S
C2188 H2159 0.950 . S
C2188 C2187 1.334 . S
C2188 C2189 1.287 . S
C2189 C2188 1.287 . S
C2189 C2190 1.524 . S
C2189 H2192 0.999 . S
C2190 H2160 0.950 . S
C2190 C2189 1.524 . S
C2190 C2191 1.415 . S
C2191 H2161 0.950 . S
C2191 C2186 1.363 . S
C2191 C2190 1.415 . S
H2192 C2189 0.999 . S
H2193 C2174 0.913 . S
H2194 C2212 0.951 . S
H2195 C2214 0.951 . S
H2196 C2216 0.932 1_455 S
H2197 C2217 0.950 . S
H2198 C2219 0.950 . S
H2199 C2222 0.950 . S
H2200 C2223 0.950 . S
H2201 C2225 0.950 . S
H2202 C2226 0.950 1_455 S
H2203 C2227 0.951 . S
H2204 C2229 0.951 . S
H2205 C2231 0.950 . S
H2206 C2232 0.950 . S
H2207 C2234 0.950 . S
H2208 C2237 0.950 . S
H2209 C2238 0.950 . S
H2210 C2240 0.950 . S
H2211 C2241 0.950 . S
C2212 H2194 0.951 . S
C2212 C2213 1.366 . S
C2212 C2214 1.388 . S
C2213 C2212 1.366 . S
C2213 C2217 1.385 . S
C2214 H2195 0.951 . S
C2214 C2212 1.388 . S
C2214 C2215 1.366 . S
C2215 C2214 1.366 . S
C2215 C2216 1.414 . S
C2215 C2218 1.499 1_655 S
C2216 H2196 0.932 1_655 S
C2216 C2215 1.414 . S
C2216 C2217 1.374 . S
C2217 H2197 0.950 . S
C2217 C2213 1.385 . S
C2217 C2216 1.374 . S
C2218 C2215 1.499 1_455 S
C2218 C2219 1.373 . S
C2218 C2220 1.389 . S
C2219 H2198 0.950 . S
C2219 C2218 1.373 . S
C2219 C2235 1.377 . S
C2220 C2218 1.389 . S
C2220 C2221 1.524 . S
C2220 C2234 1.377 . S
C2221 C2220 1.524 . S
C2221 C2222 1.397 1_455 S
C2221 C2226 1.363 1_455 S
C2222 H2199 0.950 . S
C2222 C2221 1.397 1_655 S
C2222 C2223 1.334 . S
C2223 H2200 0.950 . S
C2223 C2222 1.334 . S
C2223 C2224 1.287 . S
C2224 C2223 1.287 . S
C2224 C2225 1.524 . S
C2224 H2243 0.913 . S
C2225 H2201 0.950 . S
C2225 C2224 1.524 . S
C2225 C2226 1.415 . S
C2226 H2202 0.950 1_655 S
C2226 C2221 1.363 1_655 S
C2226 C2225 1.415 . S
C2227 H2203 0.951 . S
C2227 C2228 1.366 . S
C2227 C2229 1.388 . S
C2228 C2227 1.366 . S
C2228 C2232 1.385 . S
C2229 H2204 0.951 . S
C2229 C2227 1.388 . S
C2229 C2230 1.366 . S
C2230 C2229 1.366 . S
C2230 C2231 1.414 . S
C2230 C2233 1.499 . S
C2231 H2205 0.950 . S
C2231 C2230 1.414 . S
C2231 C2232 1.374 . S
C2232 H2206 0.950 . S
C2232 C2228 1.385 . S
C2232 C2231 1.374 . S
C2233 C2230 1.499 . S
C2233 C2234 1.373 . S
C2233 C2235 1.389 . S
C2234 H2207 0.950 . S
C2234 C2220 1.377 . S
C2234 C2233 1.373 . S
C2235 C2219 1.377 . S
C2235 C2233 1.389 . S
C2235 C2236 1.524 . S
C2236 C2235 1.524 . S
C2236 C2237 1.397 . S
C2236 C2241 1.363 . S
C2237 H2208 0.950 . S
C2237 C2236 1.397 . S
C2237 C2238 1.334 . S
C2238 H2209 0.950 . S
C2238 C2237 1.334 . S
C2238 C2239 1.287 . S
C2239 C2238 1.287 . S
C2239 C2240 1.524 . S
C2239 H2242 0.999 . S
C2240 H2210 0.950 . S
C2240 C2239 1.524 . S
C2240 C2241 1.415 . S
C2241 H2211 0.950 . S
C2241 C2236 1.363 . S
C2241 C2240 1.415 . S
H2242 C2239 0.999 . S
H2243 C2224 0.913 . S
H2244 C2262 0.951 . S
H2245 C2264 0.951 . S
H2246 C2266 0.950 . S
H2247 C2267 0.950 . S
H2248 C2269 0.950 . S
H2249 C2272 0.950 . S
H2250 C2273 0.950 . S
H2251 C2275 0.950 . S
H2252 C2276 0.950 . S
H2253 C2277 0.951 . S
H2254 C2279 0.951 . S
H2255 C2281 0.950 . S
H2256 C2282 0.950 . S
H2257 C2284 0.950 . S
H2258 C2287 0.950 . S
H2259 C2288 0.950 . S
H2260 C2290 0.950 . S
H2261 C2291 0.950 . S
C2262 H2244 0.951 . S
C2262 C2263 1.366 . S
C2262 C2264 1.388 . S
C2263 C2262 1.366 . S
C2263 C2267 1.385 . S
C2264 H2245 0.951 . S
C2264 C2262 1.388 . S
C2264 C2265 1.366 . S
C2265 C2264 1.366 . S
C2265 C2266 1.414 . S
C2265 C2268 1.499 . S
C2266 H2246 0.950 . S
C2266 C2265 1.414 . S
C2266 C2267 1.374 . S
C2267 H2247 0.950 . S
C2267 C2263 1.385 . S
C2267 C2266 1.374 . S
C2268 C2265 1.499 . S
C2268 C2269 1.373 . S
C2268 C2270 1.389 . S
C2269 H2248 0.950 . S
C2269 C2268 1.373 . S
C2269 C2285 1.377 . S
C2270 C2268 1.389 . S
C2270 C2271 1.524 . S
C2270 C2284 1.377 . S
C2271 C2270 1.524 . S
C2271 C2272 1.397 . S
C2271 C2276 1.363 . S
C2272 H2249 0.950 . S
C2272 C2271 1.397 . S
C2272 C2273 1.334 . S
C2273 H2250 0.950 . S
C2273 C2272 1.334 . S
C2273 C2274 1.287 . S
C2274 C2273 1.287 . S
C2274 C2275 1.524 . S
C2274 H2293 0.913 . S
C2275 H2251 0.950 . S
C2275 C2274 1.524 . S
C2275 C2276 1.415 . S
C2276 H2252 0.950 . S
C2276 C2271 1.363 . S
C2276 C2275 1.415 . S
C2277 H2253 0.951 . S
C2277 C2278 1.366 . S
C2277 C2279 1.388 . S
C2278 C2277 1.366 . S
C2278 C2282 1.385 . S
C2279 H2254 0.951 . S
C2279 C2277 1.388 . S
C2279 C2280 1.366 . S
C2280 C2279 1.366 . S
C2280 C2281 1.414 . S
C2280 C2283 1.499 . S
C2281 H2255 0.950 . S
C2281 C2280 1.414 . S
C2281 C2282 1.374 . S
C2282 H2256 0.950 . S
C2282 C2278 1.385 . S
C2282 C2281 1.374 . S
C2283 C2280 1.499 . S
C2283 C2284 1.373 . S
C2283 C2285 1.389 . S
C2284 H2257 0.950 . S
C2284 C2270 1.377 . S
C2284 C2283 1.373 . S
C2285 C2269 1.377 . S
C2285 C2283 1.389 . S
C2285 C2286 1.524 . S
C2286 C2285 1.524 . S
C2286 C2287 1.397 . S
C2286 C2291 1.363 . S
C2287 H2258 0.950 . S
C2287 C2286 1.397 . S
C2287 C2288 1.334 . S
C2288 H2259 0.950 . S
C2288 C2287 1.334 . S
C2288 C2289 1.287 . S
C2289 C2288 1.287 . S
C2289 C2290 1.524 . S
C2289 H2292 0.999 . S
C2290 H2260 0.950 . S
C2290 C2289 1.524 . S
C2290 C2291 1.415 . S
C2291 H2261 0.950 . S
C2291 C2286 1.363 . S
C2291 C2290 1.415 . S
H2292 C2289 0.999 . S
H2293 C2274 0.913 . S
H2294 C2312 0.951 . S
H2295 C2314 0.951 . S
H2296 C2316 0.950 . S
H2297 C2317 0.950 . S
H2298 C2319 0.950 . S
H2299 C2322 0.950 . S
H2300 C2323 0.950 . S
H2301 C2325 0.950 . S
H2302 C2326 0.950 . S
H2303 C2327 0.951 . S
H2304 C2329 0.951 . S
H2305 C2331 0.950 . S
H2306 C2332 0.950 . S
H2307 C2334 0.950 . S
H2308 C2337 0.950 . S
H2309 C2338 0.950 . S
H2310 C2340 0.950 . S
H2311 C2341 0.950 . S
C2312 H2294 0.951 . S
C2312 C2313 1.366 . S
C2312 C2314 1.388 . S
C2313 C2312 1.366 . S
C2313 C2317 1.385 . S
C2314 H2295 0.951 . S
C2314 C2312 1.388 . S
C2314 C2315 1.366 . S
C2315 C2314 1.366 . S
C2315 C2316 1.414 . S
C2315 C2318 1.499 . S
C2316 H2296 0.950 . S
C2316 C2315 1.414 . S
C2316 C2317 1.374 . S
C2317 H2297 0.950 . S
C2317 C2313 1.385 . S
C2317 C2316 1.374 . S
C2318 C2315 1.499 . S
C2318 C2319 1.373 . S
C2318 C2320 1.389 . S
C2319 H2298 0.950 . S
C2319 C2318 1.373 . S
C2319 C2335 1.377 . S
C2320 C2318 1.389 . S
C2320 C2321 1.524 . S
C2320 C2334 1.377 . S
C2321 C2320 1.524 . S
C2321 C2322 1.397 . S
C2321 C2326 1.363 . S
C2322 H2299 0.950 . S
C2322 C2321 1.397 . S
C2322 C2323 1.334 . S
C2323 H2300 0.950 . S
C2323 C2322 1.334 . S
C2323 C2324 1.287 . S
C2324 C2323 1.287 . S
C2324 C2325 1.524 . S
C2324 H2343 0.913 . S
C2325 H2301 0.950 . S
C2325 C2324 1.524 . S
C2325 C2326 1.415 . S
C2326 H2302 0.950 . S
C2326 C2321 1.363 . S
C2326 C2325 1.415 . S
C2327 H2303 0.951 . S
C2327 C2328 1.366 . S
C2327 C2329 1.388 . S
C2328 C2327 1.366 . S
C2328 C2332 1.385 . S
C2329 H2304 0.951 . S
C2329 C2327 1.388 . S
C2329 C2330 1.366 . S
C2330 C2329 1.366 . S
C2330 C2331 1.414 . S
C2330 C2333 1.499 . S
C2331 H2305 0.950 . S
C2331 C2330 1.414 . S
C2331 C2332 1.374 . S
C2332 H2306 0.950 . S
C2332 C2328 1.385 . S
C2332 C2331 1.374 . S
C2333 C2330 1.499 . S
C2333 C2334 1.373 . S
C2333 C2335 1.389 . S
C2334 H2307 0.950 . S
C2334 C2320 1.377 . S
C2334 C2333 1.373 . S
C2335 C2319 1.377 . S
C2335 C2333 1.389 . S
C2335 C2336 1.524 . S
C2336 C2335 1.524 . S
C2336 C2337 1.397 . S
C2336 C2341 1.363 . S
C2337 H2308 0.950 . S
C2337 C2336 1.397 . S
C2337 C2338 1.334 1_556 S
C2338 H2309 0.950 . S
C2338 C2337 1.334 1_554 S
C2338 C2339 1.287 . S
C2339 C2338 1.287 . S
C2339 C2340 1.524 . S
C2339 H2342 0.999 . S
C2340 H2310 0.950 . S
C2340 C2339 1.524 . S
C2340 C2341 1.415 1_554 S
C2341 H2311 0.950 . S
C2341 C2336 1.363 . S
C2341 C2340 1.415 1_556 S
H2342 C2339 0.999 . S
H2343 C2324 0.913 . S
H2344 C2362 0.951 . S
H2345 C2364 0.951 . S
H2346 C2366 0.950 . S
H2347 C2367 0.950 . S
H2348 C2369 0.950 . S
H2349 C2372 0.950 . S
H2350 C2373 0.950 . S
H2351 C2375 0.950 . S
H2352 C2376 0.950 . S
H2353 C2377 0.951 1_655 S
H2354 C2379 0.951 1_655 S
H2355 C2381 0.950 . S
H2356 C2382 0.950 . S
H2357 C2384 0.950 . S
H2358 C2387 0.950 . S
H2359 C2388 0.950 . S
H2360 C2390 0.950 . S
H2361 C2391 0.950 . S
C2362 H2344 0.951 . S
C2362 C2363 1.366 . S
C2362 C2364 1.388 . S
C2363 C2362 1.366 . S
C2363 C2367 1.385 . S
C2364 H2345 0.951 . S
C2364 C2362 1.388 . S
C2364 C2365 1.366 . S
C2365 C2364 1.366 . S
C2365 C2366 1.414 . S
C2365 C2368 1.499 . S
C2366 H2346 0.950 . S
C2366 C2365 1.414 . S
C2366 C2367 1.374 . S
C2367 H2347 0.950 . S
C2367 C2363 1.385 . S
C2367 C2366 1.374 . S
C2368 C2365 1.499 . S
C2368 C2369 1.373 . S
C2368 C2370 1.389 . S
C2369 H2348 0.950 . S
C2369 C2368 1.373 . S
C2369 C2385 1.377 . S
C2370 C2368 1.389 . S
C2370 C2371 1.524 . S
C2370 C2384 1.377 . S
C2371 C2370 1.524 . S
C2371 C2372 1.397 . S
C2371 C2376 1.363 . S
C2372 H2349 0.950 . S
C2372 C2371 1.397 . S
C2372 C2373 1.334 . S
C2373 H2350 0.950 . S
C2373 C2372 1.334 . S
C2373 C2374 1.287 . S
C2374 C2373 1.287 . S
C2374 C2375 1.524 . S
C2374 H2393 0.913 . S
C2375 H2351 0.950 . S
C2375 C2374 1.524 . S
C2375 C2376 1.415 . S
C2376 H2352 0.950 . S
C2376 C2371 1.363 . S
C2376 C2375 1.415 . S
C2377 H2353 0.951 1_455 S
C2377 C2378 1.366 . S
C2377 C2379 1.388 . S
C2378 C2377 1.366 . S
C2378 C2382 1.385 . S
C2379 H2354 0.951 1_455 S
C2379 C2377 1.388 . S
C2379 C2380 1.366 . S
C2380 C2379 1.366 . S
C2380 C2381 1.414 . S
C2380 C2383 1.499 . S
C2381 H2355 0.950 . S
C2381 C2380 1.414 . S
C2381 C2382 1.374 . S
C2382 H2356 0.950 . S
C2382 C2378 1.385 . S
C2382 C2381 1.374 . S
C2383 C2380 1.499 . S
C2383 C2384 1.373 . S
C2383 C2385 1.389 . S
C2384 H2357 0.950 . S
C2384 C2370 1.377 . S
C2384 C2383 1.373 . S
C2385 C2369 1.377 . S
C2385 C2383 1.389 . S
C2385 C2386 1.524 1_455 S
C2386 C2385 1.524 1_655 S
C2386 C2387 1.397 1_655 S
C2386 C2391 1.363 . S
C2387 H2358 0.950 . S
C2387 C2386 1.397 1_455 S
C2387 C2388 1.334 1_455 S
C2388 H2359 0.950 . S
C2388 C2387 1.334 1_655 S
C2388 C2389 1.287 . S
C2389 C2388 1.287 . S
C2389 C2390 1.524 . S
C2389 H2392 0.999 . S
C2390 H2360 0.950 . S
C2390 C2389 1.524 . S
C2390 C2391 1.415 . S
C2391 H2361 0.950 . S
C2391 C2386 1.363 . S
C2391 C2390 1.415 . S
H2392 C2389 0.999 . S
H2393 C2374 0.913 . S
H2394 C2412 0.951 . S
H2395 C2414 0.951 . S
H2396 C2416 0.950 . S
H2397 C2417 0.950 . S
H2398 C2419 0.950 . S
H2399 C2422 0.950 . S
H2400 C2423 0.950 . S
H2401 C2425 0.950 . S
H2402 C2426 0.950 . S
H2403 C2427 0.951 . S
H2404 C2429 0.951 . S
H2405 C2431 0.950 . S
H2406 C2432 0.950 . S
H2407 C2434 0.950 . S
H2408 C2437 0.950 . S
H2409 C2438 0.950 1_556 S
H2410 C2440 0.950 . S
H2411 C2441 0.950 . S
C2412 H2394 0.951 . S
C2412 C2413 1.366 . S
C2412 C2414 1.388 . S
C2413 C2412 1.366 . S
C2413 C2417 1.385 . S
C2414 H2395 0.951 . S
C2414 C2412 1.388 . S
C2414 C2415 1.366 . S
C2415 C2414 1.366 . S
C2415 C2416 1.414 . S
C2415 C2418 1.499 . S
C2416 H2396 0.950 . S
C2416 C2415 1.414 . S
C2416 C2417 1.374 . S
C2417 H2397 0.950 . S
C2417 C2413 1.385 . S
C2417 C2416 1.374 . S
C2418 C2415 1.499 . S
C2418 C2419 1.373 . S
C2418 C2420 1.389 . S
C2419 H2398 0.950 . S
C2419 C2418 1.373 . S
C2419 C2435 1.377 . S
C2420 C2418 1.389 . S
C2420 C2421 1.524 . S
C2420 C2434 1.377 . S
C2421 C2420 1.524 . S
C2421 C2422 1.397 . S
C2421 C2426 1.363 . S
C2422 H2399 0.950 . S
C2422 C2421 1.397 . S
C2422 C2423 1.334 . S
C2423 H2400 0.950 . S
C2423 C2422 1.334 . S
C2423 C2424 1.287 . S
C2424 C2423 1.287 . S
C2424 C2425 1.524 . S
C2424 H2443 0.913 . S
C2425 H2401 0.950 . S
C2425 C2424 1.524 . S
C2425 C2426 1.415 . S
C2426 H2402 0.950 . S
C2426 C2421 1.363 . S
C2426 C2425 1.415 . S
C2427 H2403 0.951 . S
C2427 C2428 1.366 . S
C2427 C2429 1.388 . S
C2428 C2427 1.366 . S
C2428 C2432 1.385 . S
C2429 H2404 0.951 . S
C2429 C2427 1.388 . S
C2429 C2430 1.366 . S
C2430 C2429 1.366 . S
C2430 C2431 1.414 . S
C2430 C2433 1.499 . S
C2431 H2405 0.950 . S
C2431 C2430 1.414 . S
C2431 C2432 1.374 . S
C2432 H2406 0.950 . S
C2432 C2428 1.385 . S
C2432 C2431 1.374 . S
C2433 C2430 1.499 . S
C2433 C2434 1.373 . S
C2433 C2435 1.389 . S
C2434 H2407 0.950 . S
C2434 C2420 1.377 . S
C2434 C2433 1.373 . S
C2435 C2419 1.377 . S
C2435 C2433 1.389 . S
C2435 C2436 1.524 . S
C2436 C2435 1.524 . S
C2436 C2437 1.397 . S
C2436 C2441 1.363 . S
C2437 H2408 0.950 . S
C2437 C2436 1.397 . S
C2437 C2438 1.334 . S
C2438 H2409 0.950 1_554 S
C2438 C2437 1.334 . S
C2438 C2439 1.287 . S
C2439 C2438 1.287 . S
C2439 C2440 1.524 . S
C2439 H2442 0.999 1_554 S
C2440 H2410 0.950 . S
C2440 C2439 1.524 . S
C2440 C2441 1.415 . S
C2441 H2411 0.950 . S
C2441 C2436 1.363 . S
C2441 C2440 1.415 . S
H2442 C2439 0.999 1_556 S
H2443 C2424 0.913 . S
H2444 C2462 0.951 . S
H2445 C2464 0.951 . S
H2446 C2466 0.950 . S
H2447 C2467 0.950 . S
H2448 C2469 0.950 . S
H2449 C2472 0.950 . S
H2450 C2473 0.950 . S
H2451 C2475 0.950 . S
H2452 C2476 0.950 . S
H2453 C2477 0.951 . S
H2454 C2479 0.951 . S
H2455 C2481 0.950 . S
H2456 C2482 0.950 . S
H2457 C2484 0.950 . S
H2458 C2487 0.950 . S
H2459 C2488 0.950 . S
H2460 C2490 0.950 . S
H2461 C2491 0.950 . S
C2462 H2444 0.951 . S
C2462 C2463 1.366 . S
C2462 C2464 1.388 . S
C2463 C2462 1.366 . S
C2463 C2467 1.385 . S
C2464 H2445 0.951 . S
C2464 C2462 1.388 . S
C2464 C2465 1.366 . S
C2465 C2464 1.366 . S
C2465 C2466 1.414 . S
C2465 C2468 1.499 . S
C2466 H2446 0.950 . S
C2466 C2465 1.414 . S
C2466 C2467 1.374 . S
C2467 H2447 0.950 . S
C2467 C2463 1.385 . S
C2467 C2466 1.374 . S
C2468 C2465 1.499 . S
C2468 C2469 1.373 . S
C2468 C2470 1.389 . S
C2469 H2448 0.950 . S
C2469 C2468 1.373 . S
C2469 C2485 1.377 . S
C2470 C2468 1.389 . S
C2470 C2471 1.524 . S
C2470 C2484 1.377 . S
C2471 C2470 1.524 . S
C2471 C2472 1.397 . S
C2471 C2476 1.363 . S
C2472 H2449 0.950 . S
C2472 C2471 1.397 . S
C2472 C2473 1.334 . S
C2473 H2450 0.950 . S
C2473 C2472 1.334 . S
C2473 C2474 1.287 . S
C2474 C2473 1.287 . S
C2474 C2475 1.524 . S
C2474 H2493 0.913 . S
C2475 H2451 0.950 . S
C2475 C2474 1.524 . S
C2475 C2476 1.415 . S
C2476 H2452 0.950 . S
C2476 C2471 1.363 . S
C2476 C2475 1.415 . S
C2477 H2453 0.951 . S
C2477 C2478 1.366 . S
C2477 C2479 1.388 . S
C2478 C2477 1.366 . S
C2478 C2482 1.385 . S
C2479 H2454 0.951 . S
C2479 C2477 1.388 . S
C2479 C2480 1.366 . S
C2480 C2479 1.366 . S
C2480 C2481 1.414 . S
C2480 C2483 1.499 . S
C2481 H2455 0.950 . S
C2481 C2480 1.414 . S
C2481 C2482 1.374 . S
C2482 H2456 0.950 . S
C2482 C2478 1.385 . S
C2482 C2481 1.374 . S
C2483 C2480 1.499 . S
C2483 C2484 1.373 . S
C2483 C2485 1.389 . S
C2484 H2457 0.950 . S
C2484 C2470 1.377 . S
C2484 C2483 1.373 . S
C2485 C2469 1.377 . S
C2485 C2483 1.389 . S
C2485 C2486 1.524 . S
C2486 C2485 1.524 . S
C2486 C2487 1.397 . S
C2486 C2491 1.363 . S
C2487 H2458 0.950 . S
C2487 C2486 1.397 . S
C2487 C2488 1.334 . S
C2488 H2459 0.950 . S
C2488 C2487 1.334 . S
C2488 C2489 1.287 . S
C2489 C2488 1.287 . S
C2489 C2490 1.524 . S
C2489 H2492 0.999 . S
C2490 H2460 0.950 . S
C2490 C2489 1.524 . S
C2490 C2491 1.415 . S
C2491 H2461 0.950 . S
C2491 C2486 1.363 . S
C2491 C2490 1.415 . S
H2492 C2489 0.999 . S
H2493 C2474 0.913 . S
H2494 C2512 0.951 . S
H2495 C2514 0.951 . S
H2496 C2516 0.950 . S
H2497 C2517 0.950 . S
H2498 C2519 0.950 . S
H2499 C2522 0.950 . S
H2500 C2523 0.950 . S
H2501 C2525 0.950 . S
H2502 C2526 0.950 . S
H2503 C2527 0.951 . S
H2504 C2529 0.951 . S
H2505 C2531 0.950 . S
H2506 C2532 0.950 . S
H2507 C2534 0.950 . S
H2508 C2537 0.950 1_655 S
H2509 C2538 0.950 . S
H2510 C2540 0.950 . S
H2511 C2541 0.950 . S
C2512 H2494 0.951 . S
C2512 C2513 1.366 . S
C2512 C2514 1.388 . S
C2513 C2512 1.366 . S
C2513 C2517 1.385 . S
C2514 H2495 0.951 . S
C2514 C2512 1.388 . S
C2514 C2515 1.366 . S
C2515 C2514 1.366 . S
C2515 C2516 1.414 . S
C2515 C2518 1.499 . S
C2516 H2496 0.950 . S
C2516 C2515 1.414 . S
C2516 C2517 1.374 . S
C2517 H2497 0.950 . S
C2517 C2513 1.385 . S
C2517 C2516 1.374 . S
C2518 C2515 1.499 . S
C2518 C2519 1.373 . S
C2518 C2520 1.389 . S
C2519 H2498 0.950 . S
C2519 C2518 1.373 . S
C2519 C2535 1.377 . S
C2520 C2518 1.389 . S
C2520 C2521 1.524 . S
C2520 C2534 1.377 . S
C2521 C2520 1.524 . S
C2521 C2522 1.397 . S
C2521 C2526 1.363 . S
C2522 H2499 0.950 . S
C2522 C2521 1.397 . S
C2522 C2523 1.334 . S
C2523 H2500 0.950 . S
C2523 C2522 1.334 . S
C2523 C2524 1.287 . S
C2524 C2523 1.287 . S
C2524 C2525 1.524 . S
C2524 H2543 0.913 . S
C2525 H2501 0.950 . S
C2525 C2524 1.524 . S
C2525 C2526 1.415 . S
C2526 H2502 0.950 . S
C2526 C2521 1.363 . S
C2526 C2525 1.415 . S
C2527 H2503 0.951 . S
C2527 C2528 1.366 . S
C2527 C2529 1.388 . S
C2528 C2527 1.366 . S
C2528 C2532 1.385 . S
C2529 H2504 0.951 . S
C2529 C2527 1.388 . S
C2529 C2530 1.366 . S
C2530 C2529 1.366 . S
C2530 C2531 1.414 . S
C2530 C2533 1.499 1_655 S
C2531 H2505 0.950 . S
C2531 C2530 1.414 . S
C2531 C2532 1.374 . S
C2532 H2506 0.950 . S
C2532 C2528 1.385 . S
C2532 C2531 1.374 . S
C2533 C2530 1.499 1_455 S
C2533 C2534 1.373 . S
C2533 C2535 1.389 . S
C2534 H2507 0.950 . S
C2534 C2520 1.377 . S
C2534 C2533 1.373 . S
C2535 C2519 1.377 . S
C2535 C2533 1.389 . S
C2535 C2536 1.524 . S
C2536 C2535 1.524 . S
C2536 C2537 1.397 . S
C2536 C2541 1.363 . S
C2537 H2508 0.950 1_455 S
C2537 C2536 1.397 . S
C2537 C2538 1.334 1_455 S
C2538 H2509 0.950 . S
C2538 C2537 1.334 1_655 S
C2538 C2539 1.287 1_655 S
C2539 C2538 1.287 1_455 S
C2539 C2540 1.524 . S
C2539 H2542 0.999 . S
C2540 H2510 0.950 . S
C2540 C2539 1.524 . S
C2540 C2541 1.415 . S
C2541 H2511 0.950 . S
C2541 C2536 1.363 . S
C2541 C2540 1.415 . S
H2542 C2539 0.999 . S
H2543 C2524 0.913 . S
H2544 C2562 0.951 1_655 S
H2545 C2564 0.951 . S
H2546 C2566 0.950 . S
H2547 C2567 0.950 . S
H2548 C2569 0.950 . S
H2549 C2572 0.950 . S
H2550 C2573 0.950 . S
H2551 C2575 0.950 . S
H2552 C2576 0.950 . S
H2553 C2577 0.951 . S
H2554 C2579 0.951 . S
H2555 C2581 0.950 . S
H2556 C2582 0.950 . S
H2557 C2584 0.950 1_655 S
H2558 C2587 0.950 . S
H2559 C2588 0.950 . S
H2560 C2590 0.950 . S
H2561 C2591 0.950 . S
C2562 H2544 0.951 1_455 S
C2562 C2563 1.366 . S
C2562 C2564 1.388 . S
C2563 C2562 1.366 . S
C2563 C2567 1.385 . S
C2564 H2545 0.951 . S
C2564 C2562 1.388 . S
C2564 C2565 1.366 . S
C2565 C2564 1.366 . S
C2565 C2566 1.414 . S
C2565 C2568 1.499 . S
C2566 H2546 0.950 . S
C2566 C2565 1.414 . S
C2566 C2567 1.374 . S
C2567 H2547 0.950 . S
C2567 C2563 1.385 . S
C2567 C2566 1.374 . S
C2568 C2565 1.499 . S
C2568 C2569 1.373 . S
C2568 C2570 1.389 1_554 S
C2569 H2548 0.950 . S
C2569 C2568 1.373 . S
C2569 C2585 1.386 1_545 S
C2570 C2568 1.389 1_556 S
C2570 C2571 1.524 1_455 S
C2570 C2584 1.377 1_545 S
C2571 C2570 1.524 1_655 S
C2571 C2572 1.397 1_556 S
C2571 C2576 1.363 . S
C2572 H2549 0.950 . S
C2572 C2571 1.397 1_554 S
C2572 C2573 1.334 . S
C2573 H2550 0.950 . S
C2573 C2572 1.334 . S
C2573 C2574 1.287 1_554 S
C2574 C2573 1.287 1_556 S
C2574 C2575 1.524 . S
C2574 H2593 0.913 . S
C2575 H2551 0.950 . S
C2575 C2574 1.524 . S
C2575 C2576 1.415 . S
C2576 H2552 0.950 . S
C2576 C2571 1.363 . S
C2576 C2575 1.415 . S
C2577 H2553 0.951 . S
C2577 C2578 1.366 . S
C2577 C2579 1.388 . S
C2578 C2577 1.366 . S
C2578 C2582 1.385 . S
C2579 H2554 0.951 . S
C2579 C2577 1.388 . S
C2579 C2580 1.366 . S
C2580 C2579 1.366 . S
C2580 C2581 1.414 . S
C2580 C2583 1.499 . S
C2581 H2555 0.950 . S
C2581 C2580 1.414 . S
C2581 C2582 1.374 . S
C2582 H2556 0.950 . S
C2582 C2578 1.385 . S
C2582 C2581 1.374 . S
C2583 C2580 1.499 . S
C2583 C2584 1.373 . S
C2583 C2585 1.380 1_556 S
C2584 H2557 0.950 1_455 S
C2584 C2570 1.377 1_565 S
C2584 C2583 1.373 . S
C2585 C2569 1.386 1_565 S
C2585 C2583 1.380 1_554 S
C2585 C2586 1.525 . S
C2586 C2585 1.525 . S
C2586 C2587 1.397 1_554 S
C2586 C2591 1.363 . S
C2587 H2558 0.950 . S
C2587 C2586 1.397 1_556 S
C2587 C2588 1.334 . S
C2588 H2559 0.950 . S
C2588 C2587 1.334 . S
C2588 C2589 1.287 1_556 S
C2589 C2588 1.287 1_554 S
C2589 C2590 1.524 . S
C2589 H2592 0.999 . S
C2590 H2560 0.950 . S
C2590 C2589 1.524 . S
C2590 C2591 1.415 . S
C2591 H2561 0.950 . S
C2591 C2586 1.363 . S
C2591 C2590 1.415 . S
H2592 C2589 0.999 . S
H2593 C2574 0.913 . S
H2594 C2612 0.951 . S
H2595 C2614 0.951 . S
H2596 C2616 0.950 . S
H2597 C2617 0.950 . S
H2598 C2619 0.950 . S
H2599 C2622 0.950 . S
H2600 C2623 0.950 . S
H2601 C2625 0.950 . S
H2602 C2626 0.950 . S
H2603 C2627 0.951 . S
H2604 C2629 0.951 . S
H2605 C2631 0.950 . S
H2606 C2632 0.950 . S
H2607 C2634 0.950 . S
H2608 C2637 0.950 . S
H2609 C2638 0.950 . S
H2610 C2640 0.950 . S
H2611 C2641 0.950 . S
C2612 H2594 0.951 . S
C2612 C2613 1.366 . S
C2612 C2614 1.388 . S
C2613 C2612 1.366 . S
C2613 C2617 1.385 . S
C2614 H2595 0.951 . S
C2614 C2612 1.388 . S
C2614 C2615 1.366 . S
C2615 C2614 1.366 . S
C2615 C2616 1.414 . S
C2615 C2618 1.499 . S
C2616 H2596 0.950 . S
C2616 C2615 1.414 . S
C2616 C2617 1.374 . S
C2617 H2597 0.950 . S
C2617 C2613 1.385 . S
C2617 C2616 1.374 . S
C2618 C2615 1.499 . S
C2618 C2619 1.373 . S
C2618 C2620 1.389 . S
C2619 H2598 0.950 . S
C2619 C2618 1.373 . S
C2619 C2635 1.377 . S
C2620 C2618 1.389 . S
C2620 C2621 1.524 . S
C2620 C2634 1.377 . S
C2621 C2620 1.524 . S
C2621 C2622 1.397 . S
C2621 C2626 1.363 . S
C2622 H2599 0.950 . S
C2622 C2621 1.397 . S
C2622 C2623 1.334 . S
C2623 H2600 0.950 . S
C2623 C2622 1.334 . S
C2623 C2624 1.287 . S
C2624 C2623 1.287 . S
C2624 C2625 1.524 . S
C2624 H2643 0.913 . S
C2625 H2601 0.950 . S
C2625 C2624 1.524 . S
C2625 C2626 1.415 . S
C2626 H2602 0.950 . S
C2626 C2621 1.363 . S
C2626 C2625 1.415 . S
C2627 H2603 0.951 . S
C2627 C2628 1.366 . S
C2627 C2629 1.388 . S
C2628 C2627 1.366 . S
C2628 C2632 1.385 . S
C2629 H2604 0.951 . S
C2629 C2627 1.388 . S
C2629 C2630 1.366 . S
C2630 C2629 1.366 . S
C2630 C2631 1.414 . S
C2630 C2633 1.499 . S
C2631 H2605 0.950 . S
C2631 C2630 1.414 . S
C2631 C2632 1.374 . S
C2632 H2606 0.950 . S
C2632 C2628 1.385 . S
C2632 C2631 1.374 . S
C2633 C2630 1.499 . S
C2633 C2634 1.373 . S
C2633 C2635 1.389 . S
C2634 H2607 0.950 . S
C2634 C2620 1.377 . S
C2634 C2633 1.373 . S
C2635 C2619 1.377 . S
C2635 C2633 1.389 . S
C2635 C2636 1.524 . S
C2636 C2635 1.524 . S
C2636 C2637 1.397 . S
C2636 C2641 1.363 . S
C2637 H2608 0.950 . S
C2637 C2636 1.397 . S
C2637 C2638 1.334 . S
C2638 H2609 0.950 . S
C2638 C2637 1.334 . S
C2638 C2639 1.287 . S
C2639 C2638 1.287 . S
C2639 C2640 1.524 . S
C2639 H2642 0.999 . S
C2640 H2610 0.950 . S
C2640 C2639 1.524 . S
C2640 C2641 1.415 . S
C2641 H2611 0.950 . S
C2641 C2636 1.363 . S
C2641 C2640 1.415 . S
H2642 C2639 0.999 . S
H2643 C2624 0.913 . S
H2644 C2662 0.951 . S
H2645 C2664 0.951 . S
H2646 C2666 0.950 . S
H2647 C2667 0.950 . S
H2648 C2669 0.947 . S
H2649 C2672 0.950 . S
H2650 C2673 0.950 . S
H2651 C2675 0.950 . S
H2652 C2676 0.950 . S
H2653 C2677 0.951 . S
H2654 C2679 0.951 . S
H2655 C2681 0.950 . S
H2656 C2682 0.950 . S
H2657 C2684 0.950 . S
H2658 C2687 0.950 . S
H2659 C2688 0.950 . S
H2660 C2690 0.950 . S
H2661 C2691 0.950 . S
C2662 H2644 0.951 . S
C2662 C2663 1.366 . S
C2662 C2664 1.388 . S
C2663 C2662 1.366 . S
C2663 C2667 1.385 . S
C2664 H2645 0.951 . S
C2664 C2662 1.388 . S
C2664 C2665 1.366 . S
C2665 C2664 1.366 . S
C2665 C2666 1.414 . S
C2665 C2668 1.499 . S
C2666 H2646 0.950 . S
C2666 C2665 1.414 . S
C2666 C2667 1.374 . S
C2667 H2647 0.950 . S
C2667 C2663 1.385 . S
C2667 C2666 1.374 . S
C2668 C2665 1.499 . S
C2668 C2669 1.357 1_545 S
C2668 C2670 1.389 . S
C2669 H2648 0.947 . S
C2669 C2668 1.357 1_565 S
C2669 C2685 1.397 . S
C2670 C2668 1.389 . S
C2670 C2671 1.524 . S
C2670 C2684 1.377 . S
C2671 C2670 1.524 . S
C2671 C2672 1.397 . S
C2671 C2676 1.363 . S
C2672 H2649 0.950 . S
C2672 C2671 1.397 . S
C2672 C2673 1.334 . S
C2673 H2650 0.950 . S
C2673 C2672 1.334 . S
C2673 C2674 1.287 . S
C2674 C2673 1.287 . S
C2674 C2675 1.524 . S
C2674 H2693 0.913 . S
C2675 H2651 0.950 . S
C2675 C2674 1.524 . S
C2675 C2676 1.415 . S
C2676 H2652 0.950 . S
C2676 C2671 1.363 . S
C2676 C2675 1.415 . S
C2677 H2653 0.951 . S
C2677 C2678 1.366 . S
C2677 C2679 1.388 . S
C2678 C2677 1.366 . S
C2678 C2682 1.385 . S
C2679 H2654 0.951 . S
C2679 C2677 1.388 . S
C2679 C2680 1.366 . S
C2680 C2679 1.366 . S
C2680 C2681 1.414 . S
C2680 C2683 1.499 . S
C2681 H2655 0.950 . S
C2681 C2680 1.414 . S
C2681 C2682 1.374 . S
C2682 H2656 0.950 . S
C2682 C2678 1.385 . S
C2682 C2681 1.374 . S
C2683 C2680 1.499 . S
C2683 C2684 1.373 1_565 S
C2683 C2685 1.389 . S
C2684 H2657 0.950 . S
C2684 C2670 1.377 . S
C2684 C2683 1.373 1_545 S
C2685 C2669 1.397 . S
C2685 C2683 1.389 . S
C2685 C2686 1.524 . S
C2686 C2685 1.524 . S
C2686 C2687 1.397 . S
C2686 C2691 1.363 . S
C2687 H2658 0.950 . S
C2687 C2686 1.397 . S
C2687 C2688 1.334 . S
C2688 H2659 0.950 . S
C2688 C2687 1.334 . S
C2688 C2689 1.287 . S
C2689 C2688 1.287 . S
C2689 C2690 1.524 . S
C2689 H2692 0.999 . S
C2690 H2660 0.950 . S
C2690 C2689 1.524 . S
C2690 C2691 1.415 . S
C2691 H2661 0.950 . S
C2691 C2686 1.363 . S
C2691 C2690 1.415 . S
H2692 C2689 0.999 . S
H2693 C2674 0.913 . S
H2694 C2712 0.951 . S
H2695 C2714 0.951 . S
H2696 C2716 0.950 . S
H2697 C2717 0.950 . S
H2698 C2719 0.950 . S
H2699 C2722 0.950 . S
H2700 C2723 0.950 . S
H2701 C2725 0.950 . S
H2702 C2726 0.950 . S
H2703 C2727 0.951 . S
H2704 C2729 0.951 . S
H2705 C2731 0.950 . S
H2706 C2732 0.950 . S
H2707 C2734 0.950 . S
H2708 C2737 0.950 . S
H2709 C2738 0.950 . S
H2710 C2740 0.950 . S
H2711 C2741 0.950 . S
C2712 H2694 0.951 . S
C2712 C2713 1.366 . S
C2712 C2714 1.388 . S
C2713 C2712 1.366 . S
C2713 C2717 1.385 . S
C2714 H2695 0.951 . S
C2714 C2712 1.388 . S
C2714 C2715 1.366 . S
C2715 C2714 1.366 . S
C2715 C2716 1.414 . S
C2715 C2718 1.499 . S
C2716 H2696 0.950 . S
C2716 C2715 1.414 . S
C2716 C2717 1.374 . S
C2717 H2697 0.950 . S
C2717 C2713 1.385 . S
C2717 C2716 1.374 . S
C2718 C2715 1.499 . S
C2718 C2719 1.373 . S
C2718 C2720 1.389 . S
C2719 H2698 0.950 . S
C2719 C2718 1.373 . S
C2719 C2735 1.377 . S
C2720 C2718 1.389 . S
C2720 C2721 1.524 . S
C2720 C2734 1.377 . S
C2721 C2720 1.524 . S
C2721 C2722 1.397 . S
C2721 C2726 1.363 . S
C2722 H2699 0.950 . S
C2722 C2721 1.397 . S
C2722 C2723 1.334 . S
C2723 H2700 0.950 . S
C2723 C2722 1.334 . S
C2723 C2724 1.287 . S
C2724 C2723 1.287 . S
C2724 C2725 1.524 . S
C2724 H2743 0.913 . S
C2725 H2701 0.950 . S
C2725 C2724 1.524 . S
C2725 C2726 1.415 . S
C2726 H2702 0.950 . S
C2726 C2721 1.363 . S
C2726 C2725 1.415 . S
C2727 H2703 0.951 . S
C2727 C2728 1.366 . S
C2727 C2729 1.388 . S
C2728 C2727 1.366 . S
C2728 C2732 1.385 . S
C2729 H2704 0.951 . S
C2729 C2727 1.388 . S
C2729 C2730 1.366 . S
C2730 C2729 1.366 . S
C2730 C2731 1.414 . S
C2730 C2733 1.499 . S
C2731 H2705 0.950 . S
C2731 C2730 1.414 . S
C2731 C2732 1.374 . S
C2732 H2706 0.950 . S
C2732 C2728 1.385 . S
C2732 C2731 1.374 . S
C2733 C2730 1.499 . S
C2733 C2734 1.373 . S
C2733 C2735 1.389 . S
C2734 H2707 0.950 . S
C2734 C2720 1.377 . S
C2734 C2733 1.373 . S
C2735 C2719 1.377 . S
C2735 C2733 1.389 . S
C2735 C2736 1.524 . S
C2736 C2735 1.524 . S
C2736 C2737 1.397 . S
C2736 C2741 1.363 . S
C2737 H2708 0.950 . S
C2737 C2736 1.397 . S
C2737 C2738 1.334 . S
C2738 H2709 0.950 . S
C2738 C2737 1.334 . S
C2738 C2739 1.287 . S
C2739 C2738 1.287 . S
C2739 C2740 1.524 . S
C2739 H2742 0.999 . S
C2740 H2710 0.950 . S
C2740 C2739 1.524 . S
C2740 C2741 1.415 . S
C2741 H2711 0.950 . S
C2741 C2736 1.363 . S
C2741 C2740 1.415 . S
H2742 C2739 0.999 . S
H2743 C2724 0.913 . S
H2744 C2762 0.951 . S
H2745 C2764 0.951 . S
H2746 C2766 0.950 . S
H2747 C2767 0.950 . S
H2748 C2769 0.950 . S
H2749 C2772 0.950 . S
H2750 C2773 0.950 . S
H2751 C2775 0.950 . S
H2752 C2776 0.950 . S
H2753 C2777 0.951 . S
H2754 C2779 0.951 . S
H2755 C2781 0.950 . S
H2756 C2782 0.950 . S
H2757 C2784 0.950 . S
H2758 C2787 0.950 . S
H2759 C2788 0.950 . S
H2760 C2790 0.950 . S
H2761 C2791 0.950 . S
C2762 H2744 0.951 . S
C2762 C2763 1.366 . S
C2762 C2764 1.388 . S
C2763 C2762 1.366 . S
C2763 C2767 1.385 . S
C2764 H2745 0.951 . S
C2764 C2762 1.388 . S
C2764 C2765 1.366 . S
C2765 C2764 1.366 . S
C2765 C2766 1.414 . S
C2765 C2768 1.499 . S
C2766 H2746 0.950 . S
C2766 C2765 1.414 . S
C2766 C2767 1.374 . S
C2767 H2747 0.950 . S
C2767 C2763 1.385 . S
C2767 C2766 1.374 . S
C2768 C2765 1.499 . S
C2768 C2769 1.373 . S
C2768 C2770 1.389 . S
C2769 H2748 0.950 . S
C2769 C2768 1.373 . S
C2769 C2785 1.377 . S
C2770 C2768 1.389 . S
C2770 C2771 1.524 . S
C2770 C2784 1.377 . S
C2771 C2770 1.524 . S
C2771 C2772 1.397 . S
C2771 C2776 1.363 . S
C2772 H2749 0.950 . S
C2772 C2771 1.397 . S
C2772 C2773 1.334 . S
C2773 H2750 0.950 . S
C2773 C2772 1.334 . S
C2773 C2774 1.287 . S
C2774 C2773 1.287 . S
C2774 C2775 1.524 . S
C2774 H2793 0.913 . S
C2775 H2751 0.950 . S
C2775 C2774 1.524 . S
C2775 C2776 1.415 . S
C2776 H2752 0.950 . S
C2776 C2771 1.363 . S
C2776 C2775 1.415 . S
C2777 H2753 0.951 . S
C2777 C2778 1.366 . S
C2777 C2779 1.388 . S
C2778 C2777 1.366 . S
C2778 C2782 1.385 . S
C2779 H2754 0.951 . S
C2779 C2777 1.388 . S
C2779 C2780 1.366 . S
C2780 C2779 1.366 . S
C2780 C2781 1.414 . S
C2780 C2783 1.499 . S
C2781 H2755 0.950 . S
C2781 C2780 1.414 . S
C2781 C2782 1.374 . S
C2782 H2756 0.950 . S
C2782 C2778 1.385 . S
C2782 C2781 1.374 . S
C2783 C2780 1.499 . S
C2783 C2784 1.373 . S
C2783 C2785 1.389 . S
C2784 H2757 0.950 . S
C2784 C2770 1.377 . S
C2784 C2783 1.373 . S
C2785 C2769 1.377 . S
C2785 C2783 1.389 . S
C2785 C2786 1.524 . S
C2786 C2785 1.524 . S
C2786 C2787 1.397 . S
C2786 C2791 1.363 . S
C2787 H2758 0.950 . S
C2787 C2786 1.397 . S
C2787 C2788 1.334 . S
C2788 H2759 0.950 . S
C2788 C2787 1.334 . S
C2788 C2789 1.287 . S
C2789 C2788 1.287 . S
C2789 C2790 1.524 . S
C2789 H2792 0.999 . S
C2790 H2760 0.950 . S
C2790 C2789 1.524 . S
C2790 C2791 1.415 . S
C2791 H2761 0.950 . S
C2791 C2786 1.363 . S
C2791 C2790 1.415 . S
H2792 C2789 0.999 . S
H2793 C2774 0.913 . S
H2794 C2812 0.951 . S
H2795 C2814 0.951 . S
H2796 C2816 0.950 . S
H2797 C2817 0.950 . S
H2798 C2819 0.950 . S
H2799 C2822 0.950 . S
H2800 C2823 0.950 . S
H2801 C2825 0.950 . S
H2802 C2826 0.950 . S
H2803 C2827 0.951 . S
H2804 C2829 0.951 . S
H2805 C2831 0.950 . S
H2806 C2832 0.950 . S
H2807 C2834 0.950 . S
H2808 C2837 0.950 . S
H2809 C2838 0.950 . S
H2810 C2840 0.950 . S
H2811 C2841 0.950 . S
C2812 H2794 0.951 . S
C2812 C2813 1.366 . S
C2812 C2814 1.388 . S
C2813 C2812 1.366 . S
C2813 C2817 1.385 . S
C2814 H2795 0.951 . S
C2814 C2812 1.388 . S
C2814 C2815 1.366 . S
C2815 C2814 1.366 . S
C2815 C2816 1.414 . S
C2815 C2818 1.499 . S
C2816 H2796 0.950 . S
C2816 C2815 1.414 . S
C2816 C2817 1.374 . S
C2817 H2797 0.950 . S
C2817 C2813 1.385 . S
C2817 C2816 1.374 . S
C2818 C2815 1.499 . S
C2818 C2819 1.373 . S
C2818 C2820 1.389 . S
C2819 H2798 0.950 . S
C2819 C2818 1.373 . S
C2819 C2835 1.377 . S
C2820 C2818 1.389 . S
C2820 C2821 1.524 . S
C2820 C2834 1.377 . S
C2821 C2820 1.524 . S
C2821 C2822 1.397 . S
C2821 C2826 1.363 . S
C2822 H2799 0.950 . S
C2822 C2821 1.397 . S
C2822 C2823 1.334 . S
C2823 H2800 0.950 . S
C2823 C2822 1.334 . S
C2823 C2824 1.287 . S
C2824 C2823 1.287 . S
C2824 C2825 1.524 . S
C2824 H2843 0.913 . S
C2825 H2801 0.950 . S
C2825 C2824 1.524 . S
C2825 C2826 1.415 . S
C2826 H2802 0.950 . S
C2826 C2821 1.363 . S
C2826 C2825 1.415 . S
C2827 H2803 0.951 . S
C2827 C2828 1.366 . S
C2827 C2829 1.388 . S
C2828 C2827 1.366 . S
C2828 C2832 1.385 . S
C2829 H2804 0.951 . S
C2829 C2827 1.388 . S
C2829 C2830 1.366 . S
C2830 C2829 1.366 . S
C2830 C2831 1.414 . S
C2830 C2833 1.499 . S
C2831 H2805 0.950 . S
C2831 C2830 1.414 . S
C2831 C2832 1.374 . S
C2832 H2806 0.950 . S
C2832 C2828 1.385 . S
C2832 C2831 1.374 . S
C2833 C2830 1.499 . S
C2833 C2834 1.373 . S
C2833 C2835 1.389 . S
C2834 H2807 0.950 . S
C2834 C2820 1.377 . S
C2834 C2833 1.373 . S
C2835 C2819 1.377 . S
C2835 C2833 1.389 . S
C2835 C2836 1.524 . S
C2836 C2835 1.524 . S
C2836 C2837 1.397 . S
C2836 C2841 1.363 . S
C2837 H2808 0.950 . S
C2837 C2836 1.397 . S
C2837 C2838 1.334 . S
C2838 H2809 0.950 . S
C2838 C2837 1.334 . S
C2838 C2839 1.287 . S
C2839 C2838 1.287 . S
C2839 C2840 1.524 . S
C2839 H2842 0.999 . S
C2840 H2810 0.950 . S
C2840 C2839 1.524 . S
C2840 C2841 1.415 . S
C2841 H2811 0.950 . S
C2841 C2836 1.363 . S
C2841 C2840 1.415 . S
H2842 C2839 0.999 . S
H2843 C2824 0.913 . S
H2844 C2862 0.951 . S
H2845 C2864 0.951 . S
H2846 C2866 0.950 . S
H2847 C2867 0.950 . S
H2848 C2869 0.950 . S
H2849 C2872 0.950 . S
H2850 C2873 0.950 . S
H2851 C2875 0.950 . S
H2852 C2876 0.950 . S
H2853 C2877 0.951 . S
H2854 C2879 0.951 . S
H2855 C2881 0.950 . S
H2856 C2882 0.950 . S
H2857 C2884 0.950 . S
H2858 C2887 0.950 . S
H2859 C2888 0.950 . S
H2860 C2890 0.950 . S
H2861 C2891 0.950 . S
C2862 H2844 0.951 . S
C2862 C2863 1.366 . S
C2862 C2864 1.388 . S
C2863 C2862 1.366 . S
C2863 C2867 1.385 . S
C2864 H2845 0.951 . S
C2864 C2862 1.388 . S
C2864 C2865 1.366 . S
C2865 C2864 1.366 . S
C2865 C2866 1.414 . S
C2865 C2868 1.499 . S
C2866 H2846 0.950 . S
C2866 C2865 1.414 . S
C2866 C2867 1.374 . S
C2867 H2847 0.950 . S
C2867 C2863 1.385 . S
C2867 C2866 1.374 . S
C2868 C2865 1.499 . S
C2868 C2869 1.373 . S
C2868 C2870 1.389 . S
C2869 H2848 0.950 . S
C2869 C2868 1.373 . S
C2869 C2885 1.377 . S
C2870 C2868 1.389 . S
C2870 C2871 1.524 . S
C2870 C2884 1.377 . S
C2871 C2870 1.524 . S
C2871 C2872 1.397 . S
C2871 C2876 1.363 . S
C2872 H2849 0.950 . S
C2872 C2871 1.397 . S
C2872 C2873 1.334 . S
C2873 H2850 0.950 . S
C2873 C2872 1.334 . S
C2873 C2874 1.287 . S
C2874 C2873 1.287 . S
C2874 C2875 1.524 . S
C2874 H2893 0.913 . S
C2875 H2851 0.950 . S
C2875 C2874 1.524 . S
C2875 C2876 1.415 . S
C2876 H2852 0.950 . S
C2876 C2871 1.363 . S
C2876 C2875 1.415 . S
C2877 H2853 0.951 . S
C2877 C2878 1.366 . S
C2877 C2879 1.388 . S
C2878 C2877 1.366 . S
C2878 C2882 1.385 . S
C2879 H2854 0.951 . S
C2879 C2877 1.388 . S
C2879 C2880 1.366 . S
C2880 C2879 1.366 . S
C2880 C2881 1.414 . S
C2880 C2883 1.499 . S
C2881 H2855 0.950 . S
C2881 C2880 1.414 . S
C2881 C2882 1.374 . S
C2882 H2856 0.950 . S
C2882 C2878 1.385 . S
C2882 C2881 1.374 . S
C2883 C2880 1.499 . S
C2883 C2884 1.373 . S
C2883 C2885 1.389 . S
C2884 H2857 0.950 . S
C2884 C2870 1.377 . S
C2884 C2883 1.373 . S
C2885 C2869 1.377 . S
C2885 C2883 1.389 . S
C2885 C2886 1.524 . S
C2886 C2885 1.524 . S
C2886 C2887 1.397 . S
C2886 C2891 1.363 . S
C2887 H2858 0.950 . S
C2887 C2886 1.397 . S
C2887 C2888 1.334 . S
C2888 H2859 0.950 . S
C2888 C2887 1.334 . S
C2888 C2889 1.287 . S
C2889 C2888 1.287 . S
C2889 C2890 1.524 . S
C2889 H2892 0.999 . S
C2890 H2860 0.950 . S
C2890 C2889 1.524 . S
C2890 C2891 1.415 . S
C2891 H2861 0.950 . S
C2891 C2886 1.363 . S
C2891 C2890 1.415 . S
H2892 C2889 0.999 . S
H2893 C2874 0.913 . S
H2894 C2912 0.951 . S
H2895 C2914 0.951 . S
H2896 C2916 0.950 . S
H2897 C2917 0.950 . S
H2898 C2919 0.950 . S
H2899 C2922 0.950 . S
H2900 C2923 0.950 . S
H2901 C2925 0.950 . S
H2902 C2926 0.950 . S
H2903 C2927 0.951 . S
H2904 C2929 0.951 . S
H2905 C2931 0.950 . S
H2906 C2932 0.950 . S
H2907 C2934 0.950 . S
H2908 C2937 0.950 . S
H2909 C2938 0.950 . S
H2910 C2940 0.950 . S
H2911 C2941 0.950 . S
C2912 H2894 0.951 . S
C2912 C2913 1.366 . S
C2912 C2914 1.388 . S
C2913 C2912 1.366 . S
C2913 C2917 1.385 . S
C2914 H2895 0.951 . S
C2914 C2912 1.388 . S
C2914 C2915 1.366 . S
C2915 C2914 1.366 . S
C2915 C2916 1.414 . S
C2915 C2918 1.499 . S
C2916 H2896 0.950 . S
C2916 C2915 1.414 . S
C2916 C2917 1.374 . S
C2917 H2897 0.950 . S
C2917 C2913 1.385 . S
C2917 C2916 1.374 . S
C2918 C2915 1.499 . S
C2918 C2919 1.373 . S
C2918 C2920 1.389 . S
C2919 H2898 0.950 . S
C2919 C2918 1.373 . S
C2919 C2935 1.377 1_556 S
C2920 C2918 1.389 . S
C2920 C2921 1.524 1_455 S
C2920 C2934 1.377 1_556 S
C2921 C2920 1.524 1_655 S
C2921 C2922 1.397 . S
C2921 C2926 1.363 . S
C2922 H2899 0.950 . S
C2922 C2921 1.397 . S
C2922 C2923 1.334 . S
C2923 H2900 0.950 . S
C2923 C2922 1.334 . S
C2923 C2924 1.287 . S
C2924 C2923 1.287 . S
C2924 C2925 1.524 . S
C2924 H2943 0.913 . S
C2925 H2901 0.950 . S
C2925 C2924 1.524 . S
C2925 C2926 1.415 . S
C2926 H2902 0.950 . S
C2926 C2921 1.363 . S
C2926 C2925 1.415 . S
C2927 H2903 0.951 . S
C2927 C2928 1.366 . S
C2927 C2929 1.388 . S
C2928 C2927 1.366 . S
C2928 C2932 1.385 . S
C2929 H2904 0.951 . S
C2929 C2927 1.388 . S
C2929 C2930 1.366 . S
C2930 C2929 1.366 . S
C2930 C2931 1.414 . S
C2930 C2933 1.499 . S
C2931 H2905 0.950 . S
C2931 C2930 1.414 . S
C2931 C2932 1.374 . S
C2932 H2906 0.950 . S
C2932 C2928 1.385 . S
C2932 C2931 1.374 . S
C2933 C2930 1.499 . S
C2933 C2934 1.373 . S
C2933 C2935 1.389 . S
C2934 H2907 0.950 . S
C2934 C2920 1.377 1_554 S
C2934 C2933 1.373 . S
C2935 C2919 1.377 1_554 S
C2935 C2933 1.389 . S
C2935 C2936 1.524 . S
C2936 C2935 1.524 . S
C2936 C2937 1.397 . S
C2936 C2941 1.363 . S
C2937 H2908 0.950 . S
C2937 C2936 1.397 . S
C2937 C2938 1.334 . S
C2938 H2909 0.950 . S
C2938 C2937 1.334 . S
C2938 C2939 1.287 . S
C2939 C2938 1.287 . S
C2939 C2940 1.524 . S
C2939 H2942 0.999 . S
C2940 H2910 0.950 . S
C2940 C2939 1.524 . S
C2940 C2941 1.415 . S
C2941 H2911 0.950 . S
C2941 C2936 1.363 . S
C2941 C2940 1.415 . S
H2942 C2939 0.999 . S
H2943 C2924 0.913 . S
H2944 C2962 0.951 . S
H2945 C2964 0.951 . S
H2946 C2966 0.950 . S
H2947 C2967 0.950 . S
H2948 C2969 0.950 . S
H2949 C2972 0.950 . S
H2950 C2973 0.950 . S
H2951 C2975 0.950 1_655 S
H2952 C2976 0.950 . S
H2953 C2977 0.951 . S
H2954 C2979 0.951 . S
H2955 C2981 0.950 . S
H2956 C2982 0.950 . S
H2957 C2984 0.950 . S
H2958 C2987 0.950 . S
H2959 C2988 0.950 . S
H2960 C2990 0.950 . S
H2961 C2991 0.950 . S
C2962 H2944 0.951 . S
C2962 C2963 1.366 . S
C2962 C2964 1.388 . S
C2963 C2962 1.366 . S
C2963 C2967 1.385 . S
C2964 H2945 0.951 . S
C2964 C2962 1.388 . S
C2964 C2965 1.366 . S
C2965 C2964 1.366 . S
C2965 C2966 1.414 . S
C2965 C2968 1.499 . S
C2966 H2946 0.950 . S
C2966 C2965 1.414 . S
C2966 C2967 1.374 . S
C2967 H2947 0.950 . S
C2967 C2963 1.385 . S
C2967 C2966 1.374 . S
C2968 C2965 1.499 . S
C2968 C2969 1.373 . S
C2968 C2970 1.389 . S
C2969 H2948 0.950 . S
C2969 C2968 1.373 . S
C2969 C2985 1.377 . S
C2970 C2968 1.389 . S
C2970 C2971 1.524 . S
C2970 C2984 1.377 . S
C2971 C2970 1.524 . S
C2971 C2972 1.397 . S
C2971 C2976 1.363 . S
C2972 H2949 0.950 . S
C2972 C2971 1.397 . S
C2972 C2973 1.334 . S
C2973 H2950 0.950 . S
C2973 C2972 1.334 . S
C2973 C2974 1.287 . S
C2974 C2973 1.287 . S
C2974 C2975 1.524 . S
C2974 H2993 0.913 1_455 S
C2975 H2951 0.950 1_455 S
C2975 C2974 1.524 . S
C2975 C2976 1.415 . S
C2976 H2952 0.950 . S
C2976 C2971 1.363 . S
C2976 C2975 1.415 . S
C2977 H2953 0.951 . S
C2977 C2978 1.366 . S
C2977 C2979 1.388 . S
C2978 C2977 1.366 . S
C2978 C2982 1.385 . S
C2979 H2954 0.951 . S
C2979 C2977 1.388 . S
C2979 C2980 1.366 . S
C2980 C2979 1.366 . S
C2980 C2981 1.414 . S
C2980 C2983 1.499 . S
C2981 H2955 0.950 . S
C2981 C2980 1.414 . S
C2981 C2982 1.374 . S
C2982 H2956 0.950 . S
C2982 C2978 1.385 . S
C2982 C2981 1.374 . S
C2983 C2980 1.499 . S
C2983 C2984 1.373 . S
C2983 C2985 1.389 . S
C2984 H2957 0.950 . S
C2984 C2970 1.377 . S
C2984 C2983 1.373 . S
C2985 C2969 1.377 . S
C2985 C2983 1.389 . S
C2985 C2986 1.524 . S
C2986 C2985 1.524 . S
C2986 C2987 1.397 . S
C2986 C2991 1.363 . S
C2987 H2958 0.950 . S
C2987 C2986 1.397 . S
C2987 C2988 1.334 . S
C2988 H2959 0.950 . S
C2988 C2987 1.334 . S
C2988 C2989 1.287 . S
C2989 C2988 1.287 . S
C2989 C2990 1.524 . S
C2989 H2992 0.999 . S
C2990 H2960 0.950 . S
C2990 C2989 1.524 . S
C2990 C2991 1.415 . S
C2991 H2961 0.950 . S
C2991 C2986 1.363 . S
C2991 C2990 1.415 . S
H2992 C2989 0.999 . S
H2993 C2974 0.913 1_655 S
H2994 C3012 0.951 . S
H2995 C3014 0.951 . S
H2996 C3016 0.950 . S
H2997 C3017 0.950 . S
H2998 C3019 0.950 . S
H2999 C3022 0.950 . S
H3000 C3023 0.950 . S
H3001 C3025 0.950 . S
H3002 C3026 0.950 . S
H3003 C3027 0.951 . S
H3004 C3029 0.951 . S
H3005 C3031 0.950 . S
H3006 C3032 0.950 . S
H3007 C3034 0.950 . S
H3008 C3037 0.950 . S
H3009 C3038 0.950 . S
H3010 C3040 0.950 . S
H3011 C3041 0.950 . S
C3012 H2994 0.951 . S
C3012 C3013 1.366 . S
C3012 C3014 1.388 . S
C3013 C3012 1.366 . S
C3013 C3017 1.385 . S
C3014 H2995 0.951 . S
C3014 C3012 1.388 . S
C3014 C3015 1.366 . S
C3015 C3014 1.366 . S
C3015 C3016 1.414 . S
C3015 C3018 1.499 . S
C3016 H2996 0.950 . S
C3016 C3015 1.414 . S
C3016 C3017 1.374 . S
C3017 H2997 0.950 . S
C3017 C3013 1.385 . S
C3017 C3016 1.374 . S
C3018 C3015 1.499 . S
C3018 C3019 1.373 . S
C3018 C3020 1.389 . S
C3019 H2998 0.950 . S
C3019 C3018 1.373 . S
C3019 C3035 1.377 . S
C3020 C3018 1.389 . S
C3020 C3021 1.524 . S
C3020 C3034 1.377 . S
C3021 C3020 1.524 . S
C3021 C3022 1.397 . S
C3021 C3026 1.363 . S
C3022 H2999 0.950 . S
C3022 C3021 1.397 . S
C3022 C3023 1.334 . S
C3023 H3000 0.950 . S
C3023 C3022 1.334 . S
C3023 C3024 1.287 . S
C3024 C3023 1.287 . S
C3024 C3025 1.524 . S
C3024 H3043 0.913 . S
C3025 H3001 0.950 . S
C3025 C3024 1.524 . S
C3025 C3026 1.415 . S
C3026 H3002 0.950 . S
C3026 C3021 1.363 . S
C3026 C3025 1.415 . S
C3027 H3003 0.951 . S
C3027 C3028 1.366 . S
C3027 C3029 1.388 . S
C3028 C3027 1.366 . S
C3028 C3032 1.385 . S
C3029 H3004 0.951 . S
C3029 C3027 1.388 . S
C3029 C3030 1.366 . S
C3030 C3029 1.366 . S
C3030 C3031 1.414 . S
C3030 C3033 1.499 . S
C3031 H3005 0.950 . S
C3031 C3030 1.414 . S
C3031 C3032 1.374 . S
C3032 H3006 0.950 . S
C3032 C3028 1.385 . S
C3032 C3031 1.374 . S
C3033 C3030 1.499 . S
C3033 C3034 1.373 . S
C3033 C3035 1.389 . S
C3034 H3007 0.950 . S
C3034 C3020 1.377 . S
C3034 C3033 1.373 . S
C3035 C3019 1.377 . S
C3035 C3033 1.389 . S
C3035 C3036 1.524 . S
C3036 C3035 1.524 . S
C3036 C3037 1.397 . S
C3036 C3041 1.363 . S
C3037 H3008 0.950 . S
C3037 C3036 1.397 . S
C3037 C3038 1.334 . S
C3038 H3009 0.950 . S
C3038 C3037 1.334 . S
C3038 C3039 1.287 . S
C3039 C3038 1.287 . S
C3039 C3040 1.524 . S
C3039 H3042 0.999 . S
C3040 H3010 0.950 . S
C3040 C3039 1.524 . S
C3040 C3041 1.415 . S
C3041 H3011 0.950 . S
C3041 C3036 1.363 . S
C3041 C3040 1.415 . S
H3042 C3039 0.999 . S
H3043 C3024 0.913 . S
H3044 C3062 0.951 . S
H3045 C3064 0.951 . S
H3046 C3066 0.950 . S
H3047 C3067 0.950 . S
H3048 C3069 0.950 . S
H3049 C3072 0.950 . S
H3050 C3073 0.950 . S
H3051 C3075 0.950 . S
H3052 C3076 0.950 . S
H3053 C3077 0.951 . S
H3054 C3079 0.951 . S
H3055 C3081 0.950 . S
H3056 C3082 0.950 . S
H3057 C3084 0.950 . S
H3058 C3087 0.950 . S
H3059 C3088 0.950 . S
H3060 C3090 0.950 . S
H3061 C3091 0.950 . S
C3062 H3044 0.951 . S
C3062 C3063 1.366 . S
C3062 C3064 1.388 . S
C3063 C3062 1.366 . S
C3063 C3067 1.385 . S
C3064 H3045 0.951 . S
C3064 C3062 1.388 . S
C3064 C3065 1.366 . S
C3065 C3064 1.366 . S
C3065 C3066 1.414 . S
C3065 C3068 1.499 . S
C3066 H3046 0.950 . S
C3066 C3065 1.414 . S
C3066 C3067 1.374 . S
C3067 H3047 0.950 . S
C3067 C3063 1.385 . S
C3067 C3066 1.374 . S
C3068 C3065 1.499 . S
C3068 C3069 1.373 . S
C3068 C3070 1.389 . S
C3069 H3048 0.950 . S
C3069 C3068 1.373 . S
C3069 C3085 1.377 . S
C3070 C3068 1.389 . S
C3070 C3071 1.524 . S
C3070 C3084 1.377 . S
C3071 C3070 1.524 . S
C3071 C3072 1.397 . S
C3071 C3076 1.363 . S
C3072 H3049 0.950 . S
C3072 C3071 1.397 . S
C3072 C3073 1.334 . S
C3073 H3050 0.950 . S
C3073 C3072 1.334 . S
C3073 C3074 1.287 . S
C3074 C3073 1.287 . S
C3074 C3075 1.524 . S
C3074 H3093 0.913 . S
C3075 H3051 0.950 . S
C3075 C3074 1.524 . S
C3075 C3076 1.415 . S
C3076 H3052 0.950 . S
C3076 C3071 1.363 . S
C3076 C3075 1.415 . S
C3077 H3053 0.951 . S
C3077 C3078 1.366 . S
C3077 C3079 1.388 . S
C3078 C3077 1.366 . S
C3078 C3082 1.385 . S
C3079 H3054 0.951 . S
C3079 C3077 1.388 . S
C3079 C3080 1.366 . S
C3080 C3079 1.366 . S
C3080 C3081 1.414 . S
C3080 C3083 1.499 . S
C3081 H3055 0.950 . S
C3081 C3080 1.414 . S
C3081 C3082 1.374 . S
C3082 H3056 0.950 . S
C3082 C3078 1.385 . S
C3082 C3081 1.374 . S
C3083 C3080 1.499 . S
C3083 C3084 1.373 . S
C3083 C3085 1.389 . S
C3084 H3057 0.950 . S
C3084 C3070 1.377 . S
C3084 C3083 1.373 . S
C3085 C3069 1.377 . S
C3085 C3083 1.389 . S
C3085 C3086 1.524 . S
C3086 C3085 1.524 . S
C3086 C3087 1.397 . S
C3086 C3091 1.363 . S
C3087 H3058 0.950 . S
C3087 C3086 1.397 . S
C3087 C3088 1.334 . S
C3088 H3059 0.950 . S
C3088 C3087 1.334 . S
C3088 C3089 1.287 . S
C3089 C3088 1.287 . S
C3089 C3090 1.524 . S
C3089 H3092 0.999 . S
C3090 H3060 0.950 . S
C3090 C3089 1.524 . S
C3090 C3091 1.415 . S
C3091 H3061 0.950 . S
C3091 C3086 1.363 . S
C3091 C3090 1.415 . S
H3092 C3089 0.999 . S
H3093 C3074 0.913 . S
H3094 C3112 0.951 . S
H3095 C3114 0.951 . S
H3096 C3116 0.950 . S
H3097 C3117 0.950 . S
H3098 C3119 0.950 . S
H3099 C3122 0.950 . S
H3100 C3123 0.950 . S
H3101 C3125 0.950 . S
H3102 C3126 0.950 . S
H3103 C3127 0.951 . S
H3104 C3129 0.951 . S
H3105 C3131 0.950 . S
H3106 C3132 0.950 . S
H3107 C3134 0.950 . S
H3108 C3137 0.950 . S
H3109 C3138 0.950 . S
H3110 C3140 0.950 . S
H3111 C3141 0.950 . S
C3112 H3094 0.951 . S
C3112 C3113 1.366 . S
C3112 C3114 1.388 . S
C3113 C3112 1.366 . S
C3113 C3117 1.385 . S
C3114 H3095 0.951 . S
C3114 C3112 1.388 . S
C3114 C3115 1.366 . S
C3115 C3114 1.366 . S
C3115 C3116 1.414 . S
C3115 C3118 1.499 . S
C3116 H3096 0.950 . S
C3116 C3115 1.414 . S
C3116 C3117 1.374 . S
C3117 H3097 0.950 . S
C3117 C3113 1.385 . S
C3117 C3116 1.374 . S
C3118 C3115 1.499 . S
C3118 C3119 1.373 . S
C3118 C3120 1.389 . S
C3119 H3098 0.950 . S
C3119 C3118 1.373 . S
C3119 C3135 1.377 . S
C3120 C3118 1.389 . S
C3120 C3121 1.524 . S
C3120 C3134 1.377 . S
C3121 C3120 1.524 . S
C3121 C3122 1.397 . S
C3121 C3126 1.363 . S
C3122 H3099 0.950 . S
C3122 C3121 1.397 . S
C3122 C3123 1.334 . S
C3123 H3100 0.950 . S
C3123 C3122 1.334 . S
C3123 C3124 1.287 . S
C3124 C3123 1.287 . S
C3124 C3125 1.524 . S
C3124 H3143 0.913 . S
C3125 H3101 0.950 . S
C3125 C3124 1.524 . S
C3125 C3126 1.415 . S
C3126 H3102 0.950 . S
C3126 C3121 1.363 . S
C3126 C3125 1.415 . S
C3127 H3103 0.951 . S
C3127 C3128 1.366 . S
C3127 C3129 1.388 . S
C3128 C3127 1.366 . S
C3128 C3132 1.385 . S
C3129 H3104 0.951 . S
C3129 C3127 1.388 . S
C3129 C3130 1.366 . S
C3130 C3129 1.366 . S
C3130 C3131 1.414 . S
C3130 C3133 1.499 . S
C3131 H3105 0.950 . S
C3131 C3130 1.414 . S
C3131 C3132 1.374 . S
C3132 H3106 0.950 . S
C3132 C3128 1.385 . S
C3132 C3131 1.374 . S
C3133 C3130 1.499 . S
C3133 C3134 1.373 . S
C3133 C3135 1.389 . S
C3134 H3107 0.950 . S
C3134 C3120 1.377 . S
C3134 C3133 1.373 . S
C3135 C3119 1.377 . S
C3135 C3133 1.389 . S
C3135 C3136 1.524 . S
C3136 C3135 1.524 . S
C3136 C3137 1.397 . S
C3136 C3141 1.363 . S
C3137 H3108 0.950 . S
C3137 C3136 1.397 . S
C3137 C3138 1.334 . S
C3138 H3109 0.950 . S
C3138 C3137 1.334 . S
C3138 C3139 1.287 . S
C3139 C3138 1.287 . S
C3139 C3140 1.524 . S
C3139 H3142 0.999 . S
C3140 H3110 0.950 . S
C3140 C3139 1.524 . S
C3140 C3141 1.415 . S
C3141 H3111 0.950 . S
C3141 C3136 1.363 . S
C3141 C3140 1.415 . S
H3142 C3139 0.999 . S
H3143 C3124 0.913 . S
H3144 C3162 0.951 . S
H3145 C3164 0.951 . S
H3146 C3166 0.950 . S
H3147 C3167 0.950 . S
H3148 C3169 0.950 . S
H3149 C3172 0.950 . S
H3150 C3173 0.950 . S
H3151 C3175 0.950 . S
H3152 C3176 0.950 . S
H3153 C3177 0.951 . S
H3154 C3179 0.947 1_455 S
H3155 C3181 0.950 . S
H3156 C3182 0.950 . S
H3157 C3184 0.950 . S
H3158 C3187 0.950 . S
H3159 C3188 0.950 . S
H3160 C3190 0.950 . S
H3161 C3191 0.950 . S
C3162 H3144 0.951 . S
C3162 C3163 1.366 . S
C3162 C3164 1.388 . S
C3163 C3162 1.366 . S
C3163 C3167 1.385 . S
C3164 H3145 0.951 . S
C3164 C3162 1.388 . S
C3164 C3165 1.366 . S
C3165 C3164 1.366 . S
C3165 C3166 1.414 . S
C3165 C3168 1.499 . S
C3166 H3146 0.950 . S
C3166 C3165 1.414 . S
C3166 C3167 1.374 . S
C3167 H3147 0.950 . S
C3167 C3163 1.385 . S
C3167 C3166 1.374 . S
C3168 C3165 1.499 . S
C3168 C3169 1.373 . S
C3168 C3170 1.389 . S
C3169 H3148 0.950 . S
C3169 C3168 1.373 . S
C3169 C3185 1.377 . S
C3170 C3168 1.389 . S
C3170 C3171 1.524 . S
C3170 C3184 1.377 . S
C3171 C3170 1.524 . S
C3171 C3172 1.397 . S
C3171 C3176 1.363 . S
C3172 H3149 0.950 . S
C3172 C3171 1.397 . S
C3172 C3173 1.334 . S
C3173 H3150 0.950 . S
C3173 C3172 1.334 . S
C3173 C3174 1.287 . S
C3174 C3173 1.287 . S
C3174 C3175 1.524 . S
C3174 H3193 0.913 . S
C3175 H3151 0.950 . S
C3175 C3174 1.524 . S
C3175 C3176 1.415 . S
C3176 H3152 0.950 . S
C3176 C3171 1.363 . S
C3176 C3175 1.415 . S
C3177 H3153 0.951 . S
C3177 C3178 1.366 . S
C3177 C3179 1.386 1_455 S
C3178 C3177 1.366 . S
C3178 C3182 1.385 1_455 S
C3179 H3154 0.947 1_655 S
C3179 C3177 1.386 1_655 S
C3179 C3180 1.371 . S
C3180 C3179 1.371 . S
C3180 C3181 1.414 . S
C3180 C3183 1.499 . S
C3181 H3155 0.950 . S
C3181 C3180 1.414 . S
C3181 C3182 1.374 . S
C3182 H3156 0.950 . S
C3182 C3178 1.385 1_655 S
C3182 C3181 1.374 . S
C3183 C3180 1.499 . S
C3183 C3184 1.373 . S
C3183 C3185 1.389 . S
C3184 H3157 0.950 . S
C3184 C3170 1.377 . S
C3184 C3183 1.373 . S
C3185 C3169 1.377 . S
C3185 C3183 1.389 . S
C3185 C3186 1.524 . S
C3186 C3185 1.524 . S
C3186 C3187 1.397 . S
C3186 C3191 1.363 . S
C3187 H3158 0.950 . S
C3187 C3186 1.397 . S
C3187 C3188 1.334 . S
C3188 H3159 0.950 . S
C3188 C3187 1.334 . S
C3188 C3189 1.287 . S
C3189 C3188 1.287 . S
C3189 C3190 1.524 . S
C3189 H3192 0.999 . S
C3190 H3160 0.950 . S
C3190 C3189 1.524 . S
C3190 C3191 1.415 . S
C3191 H3161 0.950 . S
C3191 C3186 1.363 . S
C3191 C3190 1.415 . S
H3192 C3189 0.999 . S
H3193 C3174 0.913 . S
H3194 C3212 0.951 . S
H3195 C3214 0.951 . S
H3196 C3216 0.950 . S
H3197 C3217 0.950 . S
H3198 C3219 0.950 . S
H3199 C3222 0.950 . S
H3200 C3223 0.950 . S
H3201 C3225 0.974 . S
H3202 C3226 0.950 . S
H3203 C3227 0.951 . S
H3204 C3229 0.951 . S
H3205 C3231 0.950 . S
H3206 C3232 0.950 . S
H3207 C3234 0.950 . S
H3208 C3237 0.950 . S
H3209 C3238 0.950 . S
H3210 C3240 0.950 . S
H3211 C3241 0.950 . S
C3212 H3194 0.951 . S
C3212 C3213 1.366 . S
C3212 C3214 1.388 . S
C3213 C3212 1.366 . S
C3213 C3217 1.385 . S
C3214 H3195 0.951 . S
C3214 C3212 1.388 . S
C3214 C3215 1.366 . S
C3215 C3214 1.366 . S
C3215 C3216 1.414 . S
C3215 C3218 1.499 . S
C3216 H3196 0.950 . S
C3216 C3215 1.414 . S
C3216 C3217 1.374 . S
C3217 H3197 0.950 . S
C3217 C3213 1.385 . S
C3217 C3216 1.374 . S
C3218 C3215 1.499 . S
C3218 C3219 1.373 . S
C3218 C3220 1.389 . S
C3219 H3198 0.950 . S
C3219 C3218 1.373 . S
C3219 C3235 1.377 . S
C3220 C3218 1.389 . S
C3220 C3221 1.524 . S
C3220 C3234 1.377 . S
C3221 C3220 1.524 . S
C3221 C3222 1.397 . S
C3221 C3226 1.363 . S
C3222 H3199 0.950 . S
C3222 C3221 1.397 . S
C3222 C3223 1.334 . S
C3223 H3200 0.950 . S
C3223 C3222 1.334 . S
C3223 C3224 1.287 . S
C3224 C3223 1.287 . S
C3224 C3225 1.524 . S
C3224 H3243 0.913 . S
C3225 H3201 0.974 . S
C3225 C3224 1.524 . S
C3225 C3226 1.415 . S
C3226 H3202 0.950 . S
C3226 C3221 1.363 . S
C3226 C3225 1.415 . S
C3227 H3203 0.951 . S
C3227 C3228 1.366 . S
C3227 C3229 1.388 . S
C3228 C3227 1.366 . S
C3228 C3232 1.385 . S
C3229 H3204 0.951 . S
C3229 C3227 1.388 . S
C3229 C3230 1.366 . S
C3230 C3229 1.366 . S
C3230 C3231 1.414 . S
C3230 C3233 1.499 . S
C3231 H3205 0.950 . S
C3231 C3230 1.414 . S
C3231 C3232 1.374 . S
C3232 H3206 0.950 . S
C3232 C3228 1.385 . S
C3232 C3231 1.374 . S
C3233 C3230 1.499 . S
C3233 C3234 1.373 . S
C3233 C3235 1.389 . S
C3234 H3207 0.950 . S
C3234 C3220 1.377 . S
C3234 C3233 1.373 . S
C3235 C3219 1.377 . S
C3235 C3233 1.389 . S
C3235 C3236 1.524 . S
C3236 C3235 1.524 . S
C3236 C3237 1.397 . S
C3236 C3241 1.363 . S
C3237 H3208 0.950 . S
C3237 C3236 1.397 . S
C3237 C3238 1.334 . S
C3238 H3209 0.950 . S
C3238 C3237 1.334 . S
C3238 C3239 1.287 . S
C3239 C3238 1.287 . S
C3239 C3240 1.524 . S
C3239 H3242 0.999 . S
C3240 H3210 0.950 . S
C3240 C3239 1.524 . S
C3240 C3241 1.415 . S
C3241 H3211 0.950 . S
C3241 C3236 1.363 . S
C3241 C3240 1.415 . S
H3242 C3239 0.999 . S
H3243 C3224 0.913 . S
H3244 C3262 0.941 1_556 S
H3245 C3264 0.951 . S
H3246 C3266 0.950 . S
H3247 C3267 0.950 . S
H3248 C3269 0.950 . S
H3249 C3272 0.950 . S
H3250 C3273 0.950 . S
H3251 C3275 0.950 . S
H3252 C3276 0.950 . S
H3253 C3277 0.951 . S
H3254 C3279 0.951 . S
H3255 C3281 0.950 . S
H3256 C3282 0.950 . S
H3257 C3284 0.950 . S
H3258 C3287 0.950 . S
H3259 C3288 0.950 . S
H3260 C3290 0.950 . S
H3261 C3291 0.950 . S
C3262 H3244 0.941 1_554 S
C3262 C3263 1.364 . S
C3262 C3264 1.399 . S
C3263 C3262 1.364 . S
C3263 C3267 1.385 . S
C3264 H3245 0.951 . S
C3264 C3262 1.399 . S
C3264 C3265 1.366 . S
C3265 C3264 1.366 . S
C3265 C3266 1.414 . S
C3265 C3268 1.499 . S
C3266 H3246 0.950 . S
C3266 C3265 1.414 . S
C3266 C3267 1.374 . S
C3267 H3247 0.950 . S
C3267 C3263 1.385 . S
C3267 C3266 1.374 . S
C3268 C3265 1.499 . S
C3268 C3269 1.373 . S
C3268 C3270 1.389 . S
C3269 H3248 0.950 . S
C3269 C3268 1.373 . S
C3269 C3285 1.377 . S
C3270 C3268 1.389 . S
C3270 C3271 1.524 . S
C3270 C3284 1.377 . S
C3271 C3270 1.524 . S
C3271 C3272 1.397 . S
C3271 C3276 1.363 . S
C3272 H3249 0.950 . S
C3272 C3271 1.397 . S
C3272 C3273 1.334 . S
C3273 H3250 0.950 . S
C3273 C3272 1.334 . S
C3273 C3274 1.287 . S
C3274 C3273 1.287 . S
C3274 C3275 1.524 . S
C3274 H3293 0.913 . S
C3275 H3251 0.950 . S
C3275 C3274 1.524 . S
C3275 C3276 1.415 . S
C3276 H3252 0.950 . S
C3276 C3271 1.363 . S
C3276 C3275 1.415 . S
C3277 H3253 0.951 . S
C3277 C3278 1.366 . S
C3277 C3279 1.388 . S
C3278 C3277 1.366 . S
C3278 C3282 1.385 . S
C3279 H3254 0.951 . S
C3279 C3277 1.388 . S
C3279 C3280 1.366 . S
C3280 C3279 1.366 . S
C3280 C3281 1.414 . S
C3280 C3283 1.499 . S
C3281 H3255 0.950 . S
C3281 C3280 1.414 . S
C3281 C3282 1.374 . S
C3282 H3256 0.950 . S
C3282 C3278 1.385 . S
C3282 C3281 1.374 . S
C3283 C3280 1.499 . S
C3283 C3284 1.373 . S
C3283 C3285 1.389 . S
C3284 H3257 0.950 . S
C3284 C3270 1.377 . S
C3284 C3283 1.373 . S
C3285 C3269 1.377 . S
C3285 C3283 1.389 . S
C3285 C3286 1.524 . S
C3286 C3285 1.524 . S
C3286 C3287 1.397 . S
C3286 C3291 1.363 . S
C3287 H3258 0.950 . S
C3287 C3286 1.397 . S
C3287 C3288 1.334 . S
C3288 H3259 0.950 . S
C3288 C3287 1.334 . S
C3288 C3289 1.287 . S
C3289 C3288 1.287 . S
C3289 C3290 1.524 . S
C3289 H3292 0.999 . S
C3290 H3260 0.950 . S
C3290 C3289 1.524 . S
C3290 C3291 1.415 . S
C3291 H3261 0.950 . S
C3291 C3286 1.363 . S
C3291 C3290 1.415 . S
H3292 C3289 0.999 . S
H3293 C3274 0.913 . S
H3294 C3312 0.951 . S
H3295 C3314 0.951 . S
H3296 C3316 0.950 . S
H3297 C3317 0.950 . S
H3298 C3319 0.950 . S
H3299 C3322 0.950 . S
H3300 C3323 0.950 . S
H3301 C3325 0.950 . S
H3302 C3326 0.950 . S
H3303 C3327 0.951 1_554 S
H3304 C3329 0.951 . S
H3305 C3331 0.950 . S
H3306 C3332 0.950 . S
H3307 C3334 0.950 . S
H3308 C3337 0.950 . S
H3309 C3338 0.950 . S
H3310 C3340 0.950 . S
H3311 C3341 0.950 . S
C3312 H3294 0.951 . S
C3312 C3313 1.366 . S
C3312 C3314 1.388 . S
C3313 C3312 1.366 . S
C3313 C3317 1.385 . S
C3314 H3295 0.951 . S
C3314 C3312 1.388 . S
C3314 C3315 1.366 . S
C3315 C3314 1.366 . S
C3315 C3316 1.414 . S
C3315 C3318 1.499 . S
C3316 H3296 0.950 . S
C3316 C3315 1.414 . S
C3316 C3317 1.374 . S
C3317 H3297 0.950 . S
C3317 C3313 1.385 . S
C3317 C3316 1.374 . S
C3318 C3315 1.499 . S
C3318 C3319 1.373 . S
C3318 C3320 1.389 . S
C3319 H3298 0.950 . S
C3319 C3318 1.373 . S
C3319 C3335 1.377 . S
C3320 C3318 1.389 . S
C3320 C3321 1.524 . S
C3320 C3334 1.377 . S
C3321 C3320 1.524 . S
C3321 C3322 1.397 . S
C3321 C3326 1.363 . S
C3322 H3299 0.950 . S
C3322 C3321 1.397 . S
C3322 C3323 1.334 . S
C3323 H3300 0.950 . S
C3323 C3322 1.334 . S
C3323 C3324 1.287 . S
C3324 C3323 1.287 . S
C3324 C3325 1.524 . S
C3324 H3343 0.913 . S
C3325 H3301 0.950 . S
C3325 C3324 1.524 . S
C3325 C3326 1.415 . S
C3326 H3302 0.950 . S
C3326 C3321 1.363 . S
C3326 C3325 1.415 . S
C3327 H3303 0.951 1_556 S
C3327 C3328 1.366 . S
C3327 C3329 1.388 . S
C3328 C3327 1.366 . S
C3328 C3332 1.385 . S
C3329 H3304 0.951 . S
C3329 C3327 1.388 . S
C3329 C3330 1.366 . S
C3330 C3329 1.366 . S
C3330 C3331 1.414 . S
C3330 C3333 1.499 . S
C3331 H3305 0.950 . S
C3331 C3330 1.414 . S
C3331 C3332 1.374 . S
C3332 H3306 0.950 . S
C3332 C3328 1.385 . S
C3332 C3331 1.374 . S
C3333 C3330 1.499 . S
C3333 C3334 1.373 . S
C3333 C3335 1.389 . S
C3334 H3307 0.950 . S
C3334 C3320 1.377 . S
C3334 C3333 1.373 . S
C3335 C3319 1.377 . S
C3335 C3333 1.389 . S
C3335 C3336 1.524 . S
C3336 C3335 1.524 . S
C3336 C3337 1.397 . S
C3336 C3341 1.363 . S
C3337 H3308 0.950 . S
C3337 C3336 1.397 . S
C3337 C3338 1.334 . S
C3338 H3309 0.950 . S
C3338 C3337 1.334 . S
C3338 C3339 1.287 . S
C3339 C3338 1.287 . S
C3339 C3340 1.524 . S
C3339 H3342 0.999 . S
C3340 H3310 0.950 . S
C3340 C3339 1.524 . S
C3340 C3341 1.415 . S
C3341 H3311 0.950 . S
C3341 C3336 1.363 . S
C3341 C3340 1.415 . S
H3342 C3339 0.999 . S
H3343 C3324 0.913 . S
H3344 C3362 0.951 . S
H3345 C3364 0.951 . S
H3346 C3366 0.950 . S
H3347 C3367 0.950 . S
H3348 C3369 0.950 . S
H3349 C3372 0.950 . S
H3350 C3373 0.950 . S
H3351 C3375 0.950 . S
H3352 C3376 0.950 . S
H3353 C3377 0.951 . S
H3354 C3379 0.951 . S
H3355 C3381 0.950 . S
H3356 C3382 0.950 . S
H3357 C3384 0.950 . S
H3358 C3387 0.950 . S
H3359 C3388 0.950 . S
H3360 C3390 0.950 . S
H3361 C3391 0.950 . S
C3362 H3344 0.951 . S
C3362 C3363 1.366 . S
C3362 C3364 1.388 . S
C3363 C3362 1.366 . S
C3363 C3367 1.385 . S
C3364 H3345 0.951 . S
C3364 C3362 1.388 . S
C3364 C3365 1.366 . S
C3365 C3364 1.366 . S
C3365 C3366 1.414 . S
C3365 C3368 1.499 . S
C3366 H3346 0.950 . S
C3366 C3365 1.414 . S
C3366 C3367 1.374 . S
C3367 H3347 0.950 . S
C3367 C3363 1.385 . S
C3367 C3366 1.374 . S
C3368 C3365 1.499 . S
C3368 C3369 1.373 . S
C3368 C3370 1.389 . S
C3369 H3348 0.950 . S
C3369 C3368 1.373 . S
C3369 C3385 1.377 . S
C3370 C3368 1.389 . S
C3370 C3371 1.524 . S
C3370 C3384 1.377 . S
C3371 C3370 1.524 . S
C3371 C3372 1.397 . S
C3371 C3376 1.363 . S
C3372 H3349 0.950 . S
C3372 C3371 1.397 . S
C3372 C3373 1.334 . S
C3373 H3350 0.950 . S
C3373 C3372 1.334 . S
C3373 C3374 1.287 . S
C3374 C3373 1.287 . S
C3374 C3375 1.524 . S
C3374 H3393 0.913 . S
C3375 H3351 0.950 . S
C3375 C3374 1.524 . S
C3375 C3376 1.415 . S
C3376 H3352 0.950 . S
C3376 C3371 1.363 . S
C3376 C3375 1.415 . S
C3377 H3353 0.951 . S
C3377 C3378 1.366 1_556 S
C3377 C3379 1.388 . S
C3378 C3377 1.366 1_554 S
C3378 C3382 1.385 . S
C3379 H3354 0.951 . S
C3379 C3377 1.388 . S
C3379 C3380 1.366 . S
C3380 C3379 1.366 . S
C3380 C3381 1.414 . S
C3380 C3383 1.499 . S
C3381 H3355 0.950 . S
C3381 C3380 1.414 . S
C3381 C3382 1.374 1_556 S
C3382 H3356 0.950 . S
C3382 C3378 1.385 . S
C3382 C3381 1.374 1_554 S
C3383 C3380 1.499 . S
C3383 C3384 1.373 . S
C3383 C3385 1.389 . S
C3384 H3357 0.950 . S
C3384 C3370 1.377 . S
C3384 C3383 1.373 . S
C3385 C3369 1.377 . S
C3385 C3383 1.389 . S
C3385 C3386 1.524 . S
C3386 C3385 1.524 . S
C3386 C3387 1.397 . S
C3386 C3391 1.363 . S
C3387 H3358 0.950 . S
C3387 C3386 1.397 . S
C3387 C3388 1.334 . S
C3388 H3359 0.950 . S
C3388 C3387 1.334 . S
C3388 C3389 1.287 . S
C3389 C3388 1.287 . S
C3389 C3390 1.524 . S
C3389 H3392 0.999 . S
C3390 H3360 0.950 . S
C3390 C3389 1.524 . S
C3390 C3391 1.415 . S
C3391 H3361 0.950 . S
C3391 C3386 1.363 . S
C3391 C3390 1.415 . S
H3392 C3389 0.999 . S
H3393 C3374 0.913 . S
H3394 C3412 0.951 . S
H3395 C3414 0.951 . S
H3396 C3416 0.950 . S
H3397 C3417 0.950 . S
H3398 C3419 0.950 . S
H3399 C3422 0.950 . S
H3400 C3423 0.950 . S
H3401 C3425 0.950 . S
H3402 C3426 0.950 . S
H3403 C3427 0.951 . S
H3404 C3429 0.951 . S
H3405 C3431 0.950 . S
H3406 C3432 0.950 . S
H3407 C3434 0.941 1_556 S
H3408 C3437 0.950 . S
H3409 C3438 0.950 . S
H3410 C3440 0.950 . S
H3411 C3441 0.950 . S
C3412 H3394 0.951 . S
C3412 C3413 1.366 . S
C3412 C3414 1.388 . S
C3413 C3412 1.366 . S
C3413 C3417 1.385 . S
C3414 H3395 0.951 . S
C3414 C3412 1.388 . S
C3414 C3415 1.366 . S
C3415 C3414 1.366 . S
C3415 C3416 1.414 . S
C3415 C3418 1.499 . S
C3416 H3396 0.950 . S
C3416 C3415 1.414 . S
C3416 C3417 1.374 . S
C3417 H3397 0.950 . S
C3417 C3413 1.385 . S
C3417 C3416 1.374 . S
C3418 C3415 1.499 . S
C3418 C3419 1.373 . S
C3418 C3420 1.389 . S
C3419 H3398 0.950 . S
C3419 C3418 1.373 . S
C3419 C3435 1.377 . S
C3420 C3418 1.389 . S
C3420 C3421 1.524 . S
C3420 C3434 1.377 . S
C3421 C3420 1.524 . S
C3421 C3422 1.397 . S
C3421 C3426 1.363 . S
C3422 H3399 0.950 . S
C3422 C3421 1.397 . S
C3422 C3423 1.334 . S
C3423 H3400 0.950 . S
C3423 C3422 1.334 . S
C3423 C3424 1.287 . S
C3424 C3423 1.287 . S
C3424 C3425 1.524 . S
C3424 H3443 0.913 . S
C3425 H3401 0.950 . S
C3425 C3424 1.524 . S
C3425 C3426 1.415 . S
C3426 H3402 0.950 . S
C3426 C3421 1.363 . S
C3426 C3425 1.415 . S
C3427 H3403 0.951 . S
C3427 C3428 1.366 . S
C3427 C3429 1.388 . S
C3428 C3427 1.366 . S
C3428 C3432 1.385 . S
C3429 H3404 0.951 . S
C3429 C3427 1.388 . S
C3429 C3430 1.366 . S
C3430 C3429 1.366 . S
C3430 C3431 1.414 . S
C3430 C3433 1.499 1_556 S
C3431 H3405 0.950 . S
C3431 C3430 1.414 . S
C3431 C3432 1.374 . S
C3432 H3406 0.950 . S
C3432 C3428 1.385 . S
C3432 C3431 1.374 . S
C3433 C3430 1.499 1_554 S
C3433 C3434 1.373 . S
C3433 C3435 1.389 . S
C3434 H3407 0.941 1_554 S
C3434 C3420 1.377 . S
C3434 C3433 1.373 . S
C3435 C3419 1.377 . S
C3435 C3433 1.389 . S
C3435 C3436 1.524 . S
C3436 C3435 1.524 . S
C3436 C3437 1.397 . S
C3436 C3441 1.363 . S
C3437 H3408 0.950 . S
C3437 C3436 1.397 . S
C3437 C3438 1.334 . S
C3438 H3409 0.950 . S
C3438 C3437 1.334 . S
C3438 C3439 1.287 . S
C3439 C3438 1.287 . S
C3439 C3440 1.524 . S
C3439 H3442 0.999 . S
C3440 H3410 0.950 . S
C3440 C3439 1.524 . S
C3440 C3441 1.415 . S
C3441 H3411 0.950 . S
C3441 C3436 1.363 . S
C3441 C3440 1.415 . S
H3442 C3439 0.999 . S
H3443 C3424 0.913 . S
H3444 C3462 0.951 . S
H3445 C3464 0.951 . S
H3446 C3466 0.950 . S
H3447 C3467 0.950 1_655 S
H3448 C3469 0.950 . S
H3449 C3472 0.950 . S
H3450 C3473 0.950 . S
H3451 C3475 0.950 . S
H3452 C3476 0.950 . S
H3453 C3477 0.951 . S
H3454 C3479 0.951 . S
H3455 C3481 0.950 . S
H3456 C3482 0.950 . S
H3457 C3484 0.950 1_455 S
H3458 C3487 0.950 . S
H3459 C3488 0.950 . S
H3460 C3490 0.950 . S
H3461 C3491 0.950 . S
C3462 H3444 0.951 . S
C3462 C3463 1.366 . S
C3462 C3464 1.388 . S
C3463 C3462 1.366 . S
C3463 C3467 1.396 . S
C3464 H3445 0.951 . S
C3464 C3462 1.388 . S
C3464 C3465 1.366 1_455 S
C3465 C3464 1.366 1_655 S
C3465 C3466 1.414 . S
C3465 C3468 1.499 . S
C3466 H3446 0.950 . S
C3466 C3465 1.414 . S
C3466 C3467 1.363 1_655 S
C3467 H3447 0.950 1_455 S
C3467 C3463 1.396 . S
C3467 C3466 1.363 1_455 S
C3468 C3465 1.499 . S
C3468 C3469 1.373 . S
C3468 C3470 1.365 1_655 S
C3469 H3448 0.950 . S
C3469 C3468 1.373 . S
C3469 C3485 1.377 . S
C3470 C3468 1.365 1_455 S
C3470 C3471 1.575 . S
C3470 C3484 1.354 1_455 S
C3471 C3470 1.575 . S
C3471 C3472 1.397 . S
C3471 C3476 1.363 . S
C3472 H3449 0.950 . S
C3472 C3471 1.397 . S
C3472 C3473 1.334 . S
C3473 H3450 0.950 . S
C3473 C3472 1.334 . S
C3473 C3474 1.287 . S
C3474 C3473 1.287 . S
C3474 C3475 1.524 . S
C3474 H3493 0.913 . S
C3475 H3451 0.950 . S
C3475 C3474 1.524 . S
C3475 C3476 1.415 . S
C3476 H3452 0.950 . S
C3476 C3471 1.363 . S
C3476 C3475 1.415 . S
C3477 H3453 0.951 . S
C3477 C3478 1.366 . S
C3477 C3479 1.388 . S
C3478 C3477 1.366 . S
C3478 C3482 1.385 . S
C3479 H3454 0.951 . S
C3479 C3477 1.388 . S
C3479 C3480 1.366 . S
C3480 C3479 1.366 . S
C3480 C3481 1.414 . S
C3480 C3483 1.499 . S
C3481 H3455 0.950 . S
C3481 C3480 1.414 . S
C3481 C3482 1.374 . S
C3482 H3456 0.950 . S
C3482 C3478 1.385 . S
C3482 C3481 1.374 . S
C3483 C3480 1.499 . S
C3483 C3484 1.373 . S
C3483 C3485 1.389 . S
C3484 H3457 0.950 1_655 S
C3484 C3470 1.354 1_655 S
C3484 C3483 1.373 . S
C3485 C3469 1.377 . S
C3485 C3483 1.389 . S
C3485 C3486 1.524 . S
C3486 C3485 1.524 . S
C3486 C3487 1.397 . S
C3486 C3491 1.363 . S
C3487 H3458 0.950 . S
C3487 C3486 1.397 . S
C3487 C3488 1.334 . S
C3488 H3459 0.950 . S
C3488 C3487 1.334 . S
C3488 C3489 1.287 . S
C3489 C3488 1.287 . S
C3489 C3490 1.524 . S
C3489 H3492 0.999 . S
C3490 H3460 0.950 . S
C3490 C3489 1.524 . S
C3490 C3491 1.415 . S
C3491 H3461 0.950 . S
C3491 C3486 1.363 . S
C3491 C3490 1.415 . S
H3492 C3489 0.999 . S
H3493 C3474 0.913 . S
H3494 C3512 0.951 . S
H3495 C3514 0.951 . S
H3496 C3516 0.946 1_455 S
H3497 C3517 0.988 . S
H3498 C3519 0.950 . S
H3499 C3522 0.950 . S
H3500 C3523 0.950 . S
H3501 C3525 0.950 . S
H3502 C3526 0.950 . S
H3503 C3527 0.951 . S
H3504 C3529 0.951 . S
H3505 C3531 0.950 . S
H3506 C3532 0.950 . S
H3507 C3534 0.950 . S
H3508 C3537 0.950 . S
H3509 C3538 0.950 . S
H3510 C3540 0.950 . S
H3511 C3541 0.950 . S
C3512 H3494 0.951 . S
C3512 C3513 1.366 . S
C3512 C3514 1.388 . S
C3513 C3512 1.366 . S
C3513 C3517 1.361 1_655 S
C3514 H3495 0.951 . S
C3514 C3512 1.388 . S
C3514 C3515 1.366 . S
C3515 C3514 1.366 . S
C3515 C3516 1.414 . S
C3515 C3518 1.499 . S
C3516 H3496 0.946 1_655 S
C3516 C3515 1.414 . S
C3516 C3517 1.360 1_655 S
C3517 H3497 0.988 . S
C3517 C3513 1.361 1_455 S
C3517 C3516 1.360 1_455 S
C3518 C3515 1.499 . S
C3518 C3519 1.373 . S
C3518 C3520 1.389 . S
C3519 H3498 0.950 . S
C3519 C3518 1.373 . S
C3519 C3535 1.377 . S
C3520 C3518 1.389 . S
C3520 C3521 1.524 . S
C3520 C3534 1.377 . S
C3521 C3520 1.524 . S
C3521 C3522 1.397 . S
C3521 C3526 1.363 . S
C3522 H3499 0.950 . S
C3522 C3521 1.397 . S
C3522 C3523 1.334 . S
C3523 H3500 0.950 . S
C3523 C3522 1.334 . S
C3523 C3524 1.287 . S
C3524 C3523 1.287 . S
C3524 C3525 1.524 . S
C3524 H3543 0.913 . S
C3525 H3501 0.950 . S
C3525 C3524 1.524 . S
C3525 C3526 1.415 . S
C3526 H3502 0.950 . S
C3526 C3521 1.363 . S
C3526 C3525 1.415 . S
C3527 H3503 0.951 . S
C3527 C3528 1.366 . S
C3527 C3529 1.388 . S
C3528 C3527 1.366 . S
C3528 C3532 1.385 . S
C3529 H3504 0.951 . S
C3529 C3527 1.388 . S
C3529 C3530 1.366 . S
C3530 C3529 1.366 . S
C3530 C3531 1.414 . S
C3530 C3533 1.499 . S
C3531 H3505 0.950 . S
C3531 C3530 1.414 . S
C3531 C3532 1.374 . S
C3532 H3506 0.950 . S
C3532 C3528 1.385 . S
C3532 C3531 1.374 . S
C3533 C3530 1.499 . S
C3533 C3534 1.373 . S
C3533 C3535 1.389 . S
C3534 H3507 0.950 . S
C3534 C3520 1.377 . S
C3534 C3533 1.373 . S
C3535 C3519 1.377 . S
C3535 C3533 1.389 . S
C3535 C3536 1.524 . S
C3536 C3535 1.524 . S
C3536 C3537 1.397 . S
C3536 C3541 1.363 1_655 S
C3537 H3508 0.950 . S
C3537 C3536 1.397 . S
C3537 C3538 1.334 . S
C3538 H3509 0.950 . S
C3538 C3537 1.334 . S
C3538 C3539 1.287 1_655 S
C3539 C3538 1.287 1_455 S
C3539 C3540 1.524 . S
C3539 H3542 0.999 . S
C3540 H3510 0.950 . S
C3540 C3539 1.524 . S
C3540 C3541 1.415 . S
C3541 H3511 0.950 . S
C3541 C3536 1.363 1_455 S
C3541 C3540 1.415 . S
H3542 C3539 0.999 . S
H3543 C3524 0.913 . S
H3544 C3562 0.951 . S
H3545 C3564 0.951 . S
H3546 C3566 0.950 . S
H3547 C3567 0.950 . S
H3548 C3569 0.950 . S
H3549 C3572 0.950 . S
H3550 C3573 0.950 . S
H3551 C3575 0.950 . S
H3552 C3576 0.950 . S
H3553 C3577 0.951 . S
H3554 C3579 0.951 . S
H3555 C3581 0.950 . S
H3556 C3582 0.950 1_556 S
H3557 C3584 0.950 . S
H3558 C3587 0.950 . S
H3559 C3588 0.950 . S
H3560 C3590 0.950 . S
H3561 C3591 0.950 . S
C3562 H3544 0.951 . S
C3562 C3563 1.366 . S
C3562 C3564 1.388 . S
C3563 C3562 1.366 . S
C3563 C3567 1.385 . S
C3564 H3545 0.951 . S
C3564 C3562 1.388 . S
C3564 C3565 1.366 . S
C3565 C3564 1.366 . S
C3565 C3566 1.414 . S
C3565 C3568 1.499 . S
C3566 H3546 0.950 . S
C3566 C3565 1.414 . S
C3566 C3567 1.374 . S
C3567 H3547 0.950 . S
C3567 C3563 1.385 . S
C3567 C3566 1.374 . S
C3568 C3565 1.499 . S
C3568 C3569 1.373 . S
C3568 C3570 1.389 . S
C3569 H3548 0.950 . S
C3569 C3568 1.373 . S
C3569 C3585 1.377 . S
C3570 C3568 1.389 . S
C3570 C3571 1.524 . S
C3570 C3584 1.377 . S
C3571 C3570 1.524 . S
C3571 C3572 1.397 . S
C3571 C3576 1.363 . S
C3572 H3549 0.950 . S
C3572 C3571 1.397 . S
C3572 C3573 1.334 . S
C3573 H3550 0.950 . S
C3573 C3572 1.334 . S
C3573 C3574 1.287 . S
C3574 C3573 1.287 . S
C3574 C3575 1.524 . S
C3574 H3593 0.913 . S
C3575 H3551 0.950 . S
C3575 C3574 1.524 . S
C3575 C3576 1.415 . S
C3576 H3552 0.950 . S
C3576 C3571 1.363 . S
C3576 C3575 1.415 . S
C3577 H3553 0.951 . S
C3577 C3578 1.366 . S
C3577 C3579 1.388 . S
C3578 C3577 1.366 . S
C3578 C3582 1.385 . S
C3579 H3554 0.951 . S
C3579 C3577 1.388 . S
C3579 C3580 1.366 . S
C3580 C3579 1.366 . S
C3580 C3581 1.414 . S
C3580 C3583 1.499 . S
C3581 H3555 0.950 . S
C3581 C3580 1.414 . S
C3581 C3582 1.374 . S
C3582 H3556 0.950 1_554 S
C3582 C3578 1.385 . S
C3582 C3581 1.374 . S
C3583 C3580 1.499 . S
C3583 C3584 1.373 . S
C3583 C3585 1.389 . S
C3584 H3557 0.950 . S
C3584 C3570 1.377 . S
C3584 C3583 1.373 . S
C3585 C3569 1.377 . S
C3585 C3583 1.389 . S
C3585 C3586 1.524 . S
C3586 C3585 1.524 . S
C3586 C3587 1.397 . S
C3586 C3591 1.363 . S
C3587 H3558 0.950 . S
C3587 C3586 1.397 . S
C3587 C3588 1.334 . S
C3588 H3559 0.950 . S
C3588 C3587 1.334 . S
C3588 C3589 1.287 . S
C3589 C3588 1.287 . S
C3589 C3590 1.524 . S
C3589 H3592 0.999 . S
C3590 H3560 0.950 . S
C3590 C3589 1.524 . S
C3590 C3591 1.415 . S
C3591 H3561 0.950 . S
C3591 C3586 1.363 . S
C3591 C3590 1.415 . S
H3592 C3589 0.999 . S
H3593 C3574 0.913 . S
H3594 C3612 0.951 . S
H3595 C3614 0.951 1_556 S
H3596 C3616 0.950 1_556 S
H3597 C3617 0.950 . S
H3598 C3619 0.950 . S
H3599 C3622 0.950 . S
H3600 C3623 0.950 . S
H3601 C3625 0.950 . S
H3602 C3626 0.950 . S
H3603 C3627 0.951 . S
H3604 C3629 0.951 . S
H3605 C3631 0.950 . S
H3606 C3632 0.950 . S
H3607 C3634 0.950 . S
H3608 C3637 0.950 . S
H3609 C3638 0.950 . S
H3610 C3640 0.950 . S
H3611 C3641 0.950 . S
C3612 H3594 0.951 . S
C3612 C3613 1.366 . S
C3612 C3614 1.388 . S
C3613 C3612 1.366 . S
C3613 C3617 1.385 . S
C3614 H3595 0.951 1_554 S
C3614 C3612 1.388 . S
C3614 C3615 1.366 1_554 S
C3615 C3614 1.366 1_556 S
C3615 C3616 1.414 1_556 S
C3615 C3618 1.499 . S
C3616 H3596 0.950 1_554 S
C3616 C3615 1.414 1_554 S
C3616 C3617 1.374 . S
C3617 H3597 0.950 . S
C3617 C3613 1.385 . S
C3617 C3616 1.374 . S
C3618 C3615 1.499 . S
C3618 C3619 1.373 . S
C3618 C3620 1.389 . S
C3619 H3598 0.950 . S
C3619 C3618 1.373 . S
C3619 C3635 1.377 . S
C3620 C3618 1.389 . S
C3620 C3621 1.524 . S
C3620 C3634 1.377 . S
C3621 C3620 1.524 . S
C3621 C3622 1.397 1_556 S
C3621 C3626 1.363 . S
C3622 H3599 0.950 . S
C3622 C3621 1.397 1_554 S
C3622 C3623 1.334 . S
C3623 H3600 0.950 . S
C3623 C3622 1.334 . S
C3623 C3624 1.287 . S
C3624 C3623 1.287 . S
C3624 C3625 1.524 . S
C3624 H3643 0.913 . S
C3625 H3601 0.950 . S
C3625 C3624 1.524 . S
C3625 C3626 1.415 1_554 S
C3626 H3602 0.950 . S
C3626 C3621 1.363 . S
C3626 C3625 1.415 1_556 S
C3627 H3603 0.951 . S
C3627 C3628 1.366 . S
C3627 C3629 1.388 . S
C3628 C3627 1.366 . S
C3628 C3632 1.385 . S
C3629 H3604 0.951 . S
C3629 C3627 1.388 . S
C3629 C3630 1.366 . S
C3630 C3629 1.366 . S
C3630 C3631 1.414 . S
C3630 C3633 1.499 . S
C3631 H3605 0.950 . S
C3631 C3630 1.414 . S
C3631 C3632 1.374 . S
C3632 H3606 0.950 . S
C3632 C3628 1.385 . S
C3632 C3631 1.374 . S
C3633 C3630 1.499 . S
C3633 C3634 1.373 . S
C3633 C3635 1.389 . S
C3634 H3607 0.950 . S
C3634 C3620 1.377 . S
C3634 C3633 1.373 . S
C3635 C3619 1.377 . S
C3635 C3633 1.389 . S
C3635 C3636 1.524 . S
C3636 C3635 1.524 . S
C3636 C3637 1.397 . S
C3636 C3641 1.363 . S
C3637 H3608 0.950 . S
C3637 C3636 1.397 . S
C3637 C3638 1.334 . S
C3638 H3609 0.950 . S
C3638 C3637 1.334 . S
C3638 C3639 1.287 . S
C3639 C3638 1.287 . S
C3639 C3640 1.524 . S
C3639 H3642 0.999 . S
C3640 H3610 0.950 . S
C3640 C3639 1.524 . S
C3640 C3641 1.415 . S
C3641 H3611 0.950 . S
C3641 C3636 1.363 . S
C3641 C3640 1.415 . S
H3642 C3639 0.999 . S
H3643 C3624 0.913 . S
H3644 C3662 0.951 . S
H3645 C3664 0.951 . S
H3646 C3666 0.950 . S
H3647 C3667 0.950 . S
H3648 C3669 0.950 . S
H3649 C3672 0.950 . S
H3650 C3673 0.950 . S
H3651 C3675 0.950 . S
H3652 C3676 0.950 . S
H3653 C3677 0.951 . S
H3654 C3679 0.951 . S
H3655 C3681 0.950 . S
H3656 C3682 0.950 . S
H3657 C3684 0.950 . S
H3658 C3687 0.950 . S
H3659 C3688 0.950 . S
H3660 C3690 0.950 . S
H3661 C3691 0.950 . S
C3662 H3644 0.951 . S
C3662 C3663 1.366 . S
C3662 C3664 1.388 . S
C3663 C3662 1.366 . S
C3663 C3667 1.385 . S
C3664 H3645 0.951 . S
C3664 C3662 1.388 . S
C3664 C3665 1.366 . S
C3665 C3664 1.366 . S
C3665 C3666 1.414 . S
C3665 C3668 1.499 . S
C3666 H3646 0.950 . S
C3666 C3665 1.414 . S
C3666 C3667 1.374 . S
C3667 H3647 0.950 . S
C3667 C3663 1.385 . S
C3667 C3666 1.374 . S
C3668 C3665 1.499 . S
C3668 C3669 1.373 . S
C3668 C3670 1.389 . S
C3669 H3648 0.950 . S
C3669 C3668 1.373 . S
C3669 C3685 1.377 . S
C3670 C3668 1.389 . S
C3670 C3671 1.524 . S
C3670 C3684 1.377 . S
C3671 C3670 1.524 . S
C3671 C3672 1.397 . S
C3671 C3676 1.363 . S
C3672 H3649 0.950 . S
C3672 C3671 1.397 . S
C3672 C3673 1.334 . S
C3673 H3650 0.950 . S
C3673 C3672 1.334 . S
C3673 C3674 1.287 . S
C3674 C3673 1.287 . S
C3674 C3675 1.524 . S
C3674 H3693 0.913 . S
C3675 H3651 0.950 . S
C3675 C3674 1.524 . S
C3675 C3676 1.415 . S
C3676 H3652 0.950 . S
C3676 C3671 1.363 . S
C3676 C3675 1.415 . S
C3677 H3653 0.951 . S
C3677 C3678 1.366 . S
C3677 C3679 1.388 . S
C3678 C3677 1.366 . S
C3678 C3682 1.385 . S
C3679 H3654 0.951 . S
C3679 C3677 1.388 . S
C3679 C3680 1.366 . S
C3680 C3679 1.366 . S
C3680 C3681 1.414 . S
C3680 C3683 1.499 . S
C3681 H3655 0.950 . S
C3681 C3680 1.414 . S
C3681 C3682 1.374 . S
C3682 H3656 0.950 . S
C3682 C3678 1.385 . S
C3682 C3681 1.374 . S
C3683 C3680 1.499 . S
C3683 C3684 1.373 . S
C3683 C3685 1.389 . S
C3684 H3657 0.950 . S
C3684 C3670 1.377 . S
C3684 C3683 1.373 . S
C3685 C3669 1.377 . S
C3685 C3683 1.389 . S
C3685 C3686 1.524 . S
C3686 C3685 1.524 . S
C3686 C3687 1.397 . S
C3686 C3691 1.363 . S
C3687 H3658 0.950 . S
C3687 C3686 1.397 . S
C3687 C3688 1.334 . S
C3688 H3659 0.950 . S
C3688 C3687 1.334 . S
C3688 C3689 1.287 . S
C3689 C3688 1.287 . S
C3689 C3690 1.524 . S
C3689 H3692 0.999 . S
C3690 H3660 0.950 . S
C3690 C3689 1.524 . S
C3690 C3691 1.415 . S
C3691 H3661 0.950 . S
C3691 C3686 1.363 . S
C3691 C3690 1.415 . S
H3692 C3689 0.999 . S
H3693 C3674 0.913 . S
H3694 C3712 0.951 . S
H3695 C3714 0.951 . S
H3696 C3716 0.950 . S
H3697 C3717 0.950 . S
H3698 C3719 0.950 . S
H3699 C3722 0.950 . S
H3700 C3723 0.950 . S
H3701 C3725 0.950 . S
H3702 C3726 0.950 . S
H3703 C3727 0.951 . S
H3704 C3729 0.951 . S
H3705 C3731 0.950 . S
H3706 C3732 0.950 . S
H3707 C3734 0.950 . S
H3708 C3737 0.950 . S
H3709 C3738 0.950 . S
H3710 C3740 0.950 . S
H3711 C3741 0.950 . S
C3712 H3694 0.951 . S
C3712 C3713 1.366 . S
C3712 C3714 1.388 . S
C3713 C3712 1.366 . S
C3713 C3717 1.385 . S
C3714 H3695 0.951 . S
C3714 C3712 1.388 . S
C3714 C3715 1.366 . S
C3715 C3714 1.366 . S
C3715 C3716 1.414 . S
C3715 C3718 1.499 . S
C3716 H3696 0.950 . S
C3716 C3715 1.414 . S
C3716 C3717 1.374 . S
C3717 H3697 0.950 . S
C3717 C3713 1.385 . S
C3717 C3716 1.374 . S
C3718 C3715 1.499 . S
C3718 C3719 1.373 . S
C3718 C3720 1.389 . S
C3719 H3698 0.950 . S
C3719 C3718 1.373 . S
C3719 C3735 1.377 . S
C3720 C3718 1.389 . S
C3720 C3721 1.524 . S
C3720 C3734 1.377 . S
C3721 C3720 1.524 . S
C3721 C3722 1.397 . S
C3721 C3726 1.363 . S
C3722 H3699 0.950 . S
C3722 C3721 1.397 . S
C3722 C3723 1.334 . S
C3723 H3700 0.950 . S
C3723 C3722 1.334 . S
C3723 C3724 1.287 . S
C3724 C3723 1.287 . S
C3724 C3725 1.524 . S
C3724 H3743 0.913 . S
C3725 H3701 0.950 . S
C3725 C3724 1.524 . S
C3725 C3726 1.415 . S
C3726 H3702 0.950 . S
C3726 C3721 1.363 . S
C3726 C3725 1.415 . S
C3727 H3703 0.951 . S
C3727 C3728 1.366 . S
C3727 C3729 1.388 . S
C3728 C3727 1.366 . S
C3728 C3732 1.385 . S
C3729 H3704 0.951 . S
C3729 C3727 1.388 . S
C3729 C3730 1.366 . S
C3730 C3729 1.366 . S
C3730 C3731 1.414 . S
C3730 C3733 1.499 . S
C3731 H3705 0.950 . S
C3731 C3730 1.414 . S
C3731 C3732 1.374 . S
C3732 H3706 0.950 . S
C3732 C3728 1.385 . S
C3732 C3731 1.374 . S
C3733 C3730 1.499 . S
C3733 C3734 1.373 . S
C3733 C3735 1.389 . S
C3734 H3707 0.950 . S
C3734 C3720 1.377 . S
C3734 C3733 1.373 . S
C3735 C3719 1.377 . S
C3735 C3733 1.389 . S
C3735 C3736 1.524 . S
C3736 C3735 1.524 . S
C3736 C3737 1.397 . S
C3736 C3741 1.363 . S
C3737 H3708 0.950 . S
C3737 C3736 1.397 . S
C3737 C3738 1.334 . S
C3738 H3709 0.950 . S
C3738 C3737 1.334 . S
C3738 C3739 1.287 . S
C3739 C3738 1.287 . S
C3739 C3740 1.524 . S
C3739 H3742 0.999 . S
C3740 H3710 0.950 . S
C3740 C3739 1.524 . S
C3740 C3741 1.415 . S
C3741 H3711 0.950 . S
C3741 C3736 1.363 . S
C3741 C3740 1.415 . S
H3742 C3739 0.999 . S
H3743 C3724 0.913 . S
C1363 C58 0.838 . S
C1378 C646 0.832 . S
C1413 C142 1.323 . S
C1428 C403 1.563 . S
C1463 C487 0.597 . S
C1478 C226 0.733 . S
C1513 C319 1.564 . S
C1528 C562 1.318 . S
C1563 C994 1.011 . S
C1578 C406 1.006 . S
C1613 C742 2.391 . S
C1628 C56 2.710 . S
C1663 C896 1.988 . S
C1678 C560 2.000 . S
C1713 C224 3.166 . S
C1728 C812 3.142 . S
C1763 C814 0.832 . S
C1778 C1066 0.840 . S
C1813 C898 1.321 . S
C1828 C1243 1.564 . S
C1863 C1150 0.732 . S
C1878 C739 0.600 . S
C1913 C991 1.565 . S
C1928 C1318 1.318 . S
C1963 C1246 1.004 . S
C1978 C322 1.009 . S
C2013 C1064 2.709 . S
C2028 C490 2.392 . S
C2063 C140 1.988 . S
C2078 C1316 2.000 . S
C2113 C644 3.143 . S
C2128 C1148 3.166 1_556 S
C2163 C1166 0.314 . S
C2178 C74 0.827 . S
C2213 C987 0.894 . S
C2228 C158 0.383 . S
C2263 C1082 0.827 . S
C2278 C242 0.314 . S
C2313 C914 0.386 . S
C2328 C315 0.892 . S
C2363 C399 0.880 . S
C2378 C1334 0.401 . S
C2413 C830 0.789 . S
C2428 C483 0.757 . S
C2463 C578 0.401 . S
C2478 C1239 0.881 . S
C2513 C662 0.786 . S
C2528 C735 0.760 . S
C2563 C63 1.662 . S
C2578 C410 1.669 . S
C2613 C147 1.000 . S
C2628 C494 0.998 . S
C2663 C567 0.801 . S
C2678 C231 0.798 . S
C2713 C326 1.343 . S
C2728 C651 1.350 . S
C2763 C903 1.000 . S
C2778 C746 0.997 . S
C2813 C998 1.344 . S
C2828 C819 1.351 . S
C2863 C1071 1.663 . S
C2878 C1250 1.670 . S
C2913 C1323 0.801 . S
C2928 C1155 0.798 . S
C2963 C67 2.768 . S
C2978 C655 2.728 . S
C3013 C151 1.268 . S
C3028 C394 1.270 . S
C3063 C478 2.068 . S
C3078 C235 2.060 . S
C3113 C571 1.284 . S
C3128 C310 1.289 . S
C3163 C980 1.960 . S
C3178 C392 1.960 . S
C3213 C728 0.706 . S
C3228 C70 0.706 . S
C3263 C910 0.734 1_554 S
C3278 C574 0.737 . S
C3313 C238 0.381 . S
C3328 C826 0.516 . S
C3363 C1075 2.768 . S
C3378 C823 2.728 . S
C3413 C1234 1.270 . S
C3428 C907 1.268 . S
C3463 C1159 2.060 . S
C3478 C730 2.069 . S
C3513 C1327 1.284 1_655 S
C3528 C982 1.289 . S
C3563 C1232 1.960 . S
C3578 C308 1.961 1_554 S
C3613 C476 0.704 . S
C3628 C1078 0.704 . S
C3663 C154 0.734 . S
C3678 C1330 0.738 . S
C3713 C1162 0.382 . S
C3728 C658 0.515 . S
