# Generated by pormake.
# Topology wjd, (6)-cn, num edge types: 1
# Building blocks:
#     Node 0, Type 0, BuildingBlock: BETGAK_clean_sbu_0, # of connection points: 6
#     Node 1, Type 0, BuildingBlock: BETGAK_clean_sbu_0, # of connection points: 6
#     Node 2, Type 0, BuildingBlock: BETGAK_clean_sbu_0, # of connection points: 6
#     Node 3, Type 0, BuildingBlock: BETGAK_clean_sbu_0, # of connection points: 6
#     Node 4, Type 0, BuildingBlock: BETGAK_clean_sbu_0, # of connection points: 6
#     Node 5, Type 0, BuildingBlock: BETGAK_clean_sbu_0, # of connection points: 6
#     Node 6, Type 0, BuildingBlock: BETGAK_clean_sbu_0, # of connection points: 6
#     Node 7, Type 0, BuildingBlock: BETGAK_clean_sbu_0, # of connection points: 6
#     Node 8, Type 0, BuildingBlock: BETGAK_clean_sbu_0, # of connection points: 6
#     Node 9, Type 0, BuildingBlock: BETGAK_clean_sbu_0, # of connection points: 6
#     Node 10, Type 0, BuildingBlock: BETGAK_clean_sbu_0, # of connection points: 6
#     Node 11, Type 0, BuildingBlock: BETGAK_clean_sbu_0, # of connection points: 6
#     Edge 12, Type (0, 0), BuildingBlock: EZIPEK_clean_linker_0, # of connection points: 2
#     Edge 13, Type (0, 0), BuildingBlock: EZIPEK_clean_linker_0, # of connection points: 2
#     Edge 14, Type (0, 0), BuildingBlock: EZIPEK_clean_linker_0, # of connection points: 2
#     Edge 15, Type (0, 0), BuildingBlock: EZIPEK_clean_linker_0, # of connection points: 2
#     Edge 16, Type (0, 0), BuildingBlock: EZIPEK_clean_linker_0, # of connection points: 2
#     Edge 17, Type (0, 0), BuildingBlock: EZIPEK_clean_linker_0, # of connection points: 2
#     Edge 18, Type (0, 0), BuildingBlock: EZIPEK_clean_linker_0, # of connection points: 2
#     Edge 19, Type (0, 0), BuildingBlock: EZIPEK_clean_linker_0, # of connection points: 2
#     Edge 20, Type (0, 0), BuildingBlock: EZIPEK_clean_linker_0, # of connection points: 2
#     Edge 21, Type (0, 0), BuildingBlock: EZIPEK_clean_linker_0, # of connection points: 2
#     Edge 22, Type (0, 0), BuildingBlock: EZIPEK_clean_linker_0, # of connection points: 2
#     Edge 23, Type (0, 0), BuildingBlock: EZIPEK_clean_linker_0, # of connection points: 2
#     Edge 24, Type (0, 0), BuildingBlock: EZIPEK_clean_linker_0, # of connection points: 2
#     Edge 25, Type (0, 0), BuildingBlock: EZIPEK_clean_linker_0, # of connection points: 2
#     Edge 26, Type (0, 0), BuildingBlock: EZIPEK_clean_linker_0, # of connection points: 2
#     Edge 27, Type (0, 0), BuildingBlock: EZIPEK_clean_linker_0, # of connection points: 2
#     Edge 28, Type (0, 0), BuildingBlock: EZIPEK_clean_linker_0, # of connection points: 2
#     Edge 29, Type (0, 0), BuildingBlock: EZIPEK_clean_linker_0, # of connection points: 2
#     Edge 30, Type (0, 0), BuildingBlock: EZIPEK_clean_linker_0, # of connection points: 2
#     Edge 31, Type (0, 0), BuildingBlock: EZIPEK_clean_linker_0, # of connection points: 2
#     Edge 32, Type (0, 0), BuildingBlock: EZIPEK_clean_linker_0, # of connection points: 2
#     Edge 33, Type (0, 0), BuildingBlock: EZIPEK_clean_linker_0, # of connection points: 2
#     Edge 34, Type (0, 0), BuildingBlock: EZIPEK_clean_linker_0, # of connection points: 2
#     Edge 35, Type (0, 0), BuildingBlock: EZIPEK_clean_linker_0, # of connection points: 2
#     Edge 36, Type (0, 0), BuildingBlock: EZIPEK_clean_linker_0, # of connection points: 2
#     Edge 37, Type (0, 0), BuildingBlock: EZIPEK_clean_linker_0, # of connection points: 2
#     Edge 38, Type (0, 0), BuildingBlock: EZIPEK_clean_linker_0, # of connection points: 2
#     Edge 39, Type (0, 0), BuildingBlock: EZIPEK_clean_linker_0, # of connection points: 2
#     Edge 40, Type (0, 0), BuildingBlock: EZIPEK_clean_linker_0, # of connection points: 2
#     Edge 41, Type (0, 0), BuildingBlock: EZIPEK_clean_linker_0, # of connection points: 2
#     Edge 42, Type (0, 0), BuildingBlock: EZIPEK_clean_linker_0, # of connection points: 2
#     Edge 43, Type (0, 0), BuildingBlock: EZIPEK_clean_linker_0, # of connection points: 2
#     Edge 44, Type (0, 0), BuildingBlock: EZIPEK_clean_linker_0, # of connection points: 2
#     Edge 45, Type (0, 0), BuildingBlock: EZIPEK_clean_linker_0, # of connection points: 2
#     Edge 46, Type (0, 0), BuildingBlock: EZIPEK_clean_linker_0, # of connection points: 2
#     Edge 47, Type (0, 0), BuildingBlock: EZIPEK_clean_linker_0, # of connection points: 2
# Relax obj value: 0.113
# Max RMSD: 0.240
# Mean RMSD: 0.240
data_MOF--net-wjd--node1-BETGAK_clean_sbu_0--edge1-EZIPEK_clean_linker_0
_symmetry_space_group_name_H-M    P1
_symmetry_Int_Tables_number       1
_symmetry_cell_setting            triclinic
loop_
_symmetry_equiv_pos_as_xyz
'x, y, z'
_cell_length_a     31.755376
_cell_length_b     31.752332
_cell_length_c     37.435651
_cell_angle_alpha  90.104041
_cell_angle_beta   89.629101
_cell_angle_gamma 120.16909
loop_
_atom_site_label
_atom_site_type_symbol
_atom_site_fract_x
_atom_site_fract_y
_atom_site_fract_z
_atom_type_partial_charge
La0 La 0.41674 0.20329 0.12445 0.0
La1 La 0.35324 0.10204 0.14888 0.0
C2 C 0.46217 0.29494 0.11442 0.0
C3 C 0.50006 0.34324 0.12833 0.0
C4 C 0.48681 0.3784 0.13632 0.0
C5 C 0.52213 0.42632 0.14498 0.0
C6 C 0.57164 0.44029 0.14575 0.0
C7 C 0.585 0.40495 0.13894 0.0
C8 C 0.54958 0.35687 0.13023 0.0
C9 C 0.37582 0.13521 0.07252 0.0
C10 C 0.4697 0.14676 0.14057 0.0
C11 C 0.29711 1.01099 0.15066 0.0
C12 C 0.24319 0.97954 0.14864 0.0
C13 C 0.2125 0.97995 0.17583 0.0
C14 C 0.16186 0.94969 0.17374 0.0
C15 C 0.14079 0.91857 0.14441 0.0
C16 C 0.17112 0.91872 0.11689 0.0
C17 C 0.22183 0.94888 0.119 0.0
C18 C 0.38576 0.16444 0.203 0.0
C19 C 0.30725 0.16891 0.14367 0.0
O20 O 0.47541 0.2655 0.10054 0.0
O21 O 0.42175 0.27128 0.13275 0.0
O22 O 0.41788 0.17441 0.07019 0.0
O23 O 0.35769 0.13868 0.10137 0.0
O24 O 0.47365 0.19011 0.1415 0.0
O25 O 0.42561 0.10668 0.14015 0.0
O26 O 0.315 1.03789 0.17924 0.0
O27 O 0.31913 1.03501 0.12159 0.0
O28 O 0.34333 0.12556 0.20084 0.0
O29 O 0.41007 0.16671 0.17512 0.0
O30 O 0.29757 0.12321 0.14221 0.0
O31 O 0.35222 0.20555 0.14129 0.0
H32 H 0.44906 0.36918 0.1347 0.0
H33 H 0.511 0.45293 0.15 0.0
H34 H 0.62302 0.41497 0.13932 0.0
H35 H 0.56114 0.33087 0.12403 0.0
H36 H 0.22751 1.0033 0.19893 0.0
H37 H 0.13909 0.94984 0.19536 0.0
H38 H 0.15559 0.89469 0.09417 0.0
H39 H 0.24445 0.94793 0.09758 0.0
La40 La 0.82513 0.74054 0.41014 0.0
La41 La 0.86172 0.68087 0.44052 0.0
C42 C 0.80643 0.80849 0.40126 0.0
C43 C 0.83461 0.86234 0.40124 0.0
C44 C 0.8165 0.88847 0.38309 0.0
C45 C 0.84053 0.93938 0.38524 0.0
C46 C 0.8829 0.96492 0.40578 0.0
C47 C 0.90192 0.93895 0.42307 0.0
C48 C 0.87818 0.88807 0.42053 0.0
C49 C 0.84062 0.69158 0.35985 0.0
C50 C 0.94042 0.78293 0.42132 0.0
C51 C 0.8829 0.6163 0.45762 0.0
C52 C 0.89844 0.58332 0.44135 0.0
C53 C 0.86343 0.53533 0.43191 0.0
C54 C 0.87754 0.50161 0.42205 0.0
C55 C 0.92693 0.515 0.42139 0.0
C56 C 0.96219 0.56338 0.42918 0.0
C57 C 0.94809 0.59719 0.43917 0.0
C58 C 0.83611 0.72918 0.48748 0.0
C59 C 0.75254 0.62914 0.41777 0.0
O60 O 0.81491 0.78655 0.37504 0.0
O61 O 0.80285 0.78722 0.43191 0.0
O62 O 0.80457 0.69982 0.36115 0.0
O63 O 0.86751 0.71098 0.38709 0.0
O64 O 0.90422 0.79256 0.42045 0.0
O65 O 0.93119 0.73789 0.42207 0.0
O66 O 0.83891 0.60738 0.45093 0.0
O67 O 0.91397 0.66304 0.45789 0.0
O68 O 0.8718 0.72131 0.49209 0.0
O69 O 0.81515 0.70693 0.4599 0.0
O70 O 0.79237 0.62602 0.41823 0.0
O71 O 0.7554 0.67236 0.41897 0.0
H72 H 0.78306 0.86941 0.368 0.0
H73 H 0.82511 0.95877 0.37195 0.0
H74 H 0.93438 0.95797 0.43921 0.0
H75 H 0.89321 0.8688 0.43434 0.0
H76 H 0.8249 0.52309 0.43368 0.0
H77 H 0.84974 0.46432 0.41661 0.0
H78 H 1.00044 0.57425 0.42937 0.0
H79 H 0.97601 0.63358 0.44669 0.0
La80 La 0.89976 0.23191 0.12453 0.0
La81 La 1.00141 0.28096 0.15159 0.0
C82 C 0.80992 0.1919 0.10972 0.0
C83 C 0.76151 0.18701 0.11615 0.0
C84 C 0.72035 0.14655 0.10202 0.0
C85 C 0.67386 0.14078 0.1063 0.0
C86 C 0.6667 0.1768 0.12304 0.0
C87 C 0.70805 0.21385 0.14137 0.0
C88 C 0.75484 0.21981 0.13698 0.0
C89 C 0.97148 0.25681 0.07532 0.0
C90 C 0.94861 0.34346 0.14586 0.0
C91 C 0.09229 0.31862 0.15548 0.0
C92 C 0.12111 0.29346 0.1563 0.0
C93 C 0.16267 0.31049 0.17775 0.0
C94 C 0.19023 0.28698 0.17723 0.0
C95 C 0.17648 0.24609 0.15532 0.0
C96 C 0.13448 0.22852 0.13453 0.0
C97 C 0.10717 0.25189 0.135 0.0
C98 C 0.93509 0.23308 0.20264 0.0
C99 C 0.9448 0.16766 0.1392 0.0
O100 O 0.84391 0.23119 0.09379 0.0
O101 O 0.82762 0.17645 0.13465 0.0
O102 O 0.92893 0.21821 0.07369 0.0
O103 O 0.97044 0.27996 0.10198 0.0
O104 O 0.90795 0.30226 0.13862 0.0
O105 O 0.99064 0.34471 0.15178 0.0
O106 O 0.06487 0.31325 0.18342 0.0
O107 O 0.06912 0.31371 0.12558 0.0
O108 O 0.97752 0.23704 0.19992 0.0
O109 O 0.93127 0.25724 0.17711 0.0
O110 O 0.98726 0.20816 0.13539 0.0
O111 O 0.90441 0.16934 0.14152 0.0
H112 H 0.72404 0.11887 0.08768 0.0
H113 H 0.64366 0.10716 0.0966 0.0
H114 H 0.70542 0.23807 0.16018 0.0
H115 H 0.78562 0.24963 0.15028 0.0
H116 H 0.17417 0.34227 0.19445 0.0
H117 H 0.22278 0.30123 0.19333 0.0
H118 H 0.12341 0.19727 0.1173 0.0
H119 H 0.07556 0.23779 0.11805 0.0
La120 La 0.35499 0.10287 0.40648 0.0
La121 La 0.41479 0.20327 0.43085 0.0
C122 C 0.30295 1.01138 0.40386 0.0
C123 C 0.24992 0.97958 0.40861 0.0
C124 C 0.22636 0.93179 0.39551 0.0
C125 C 0.17569 0.90245 0.39861 0.0
C126 C 0.14788 0.92067 0.41461 0.0
C127 C 0.17151 0.96846 0.42778 0.0
C128 C 0.22214 0.99754 0.42502 0.0
C129 C 0.38655 0.16538 0.35238 0.0
C130 C 0.30454 0.16544 0.41343 0.0
C131 C 0.45547 0.29416 0.44244 0.0
C132 C 0.49826 0.34279 0.43577 0.0
C133 C 0.50479 0.38141 0.45777 0.0
C134 C 0.54404 0.42845 0.45225 0.0
C135 C 0.57757 0.43786 0.42453 0.0
C136 C 0.57092 0.39936 0.40213 0.0
C137 C 0.53138 0.35203 0.40766 0.0
C138 C 0.37511 0.13423 0.48269 0.0
C139 C 0.47167 0.15098 0.41563 0.0
O140 O 0.31645 1.03939 0.37561 0.0
O141 O 0.32684 1.03521 0.43229 0.0
O142 O 0.34438 0.1263 0.35499 0.0
O143 O 0.41107 0.16813 0.38001 0.0
O144 O 0.29686 0.12048 0.41423 0.0
O145 O 0.34866 0.2031 0.41629 0.0
O146 O 0.46097 0.26387 0.46276 0.0
O147 O 0.4267 0.27206 0.41556 0.0
O148 O 0.41739 0.17322 0.48387 0.0
O149 O 0.35627 0.13767 0.4543 0.0
O150 O 0.4747 0.19387 0.41514 0.0
O151 O 0.42829 0.11009 0.4151 0.0
H152 H 0.24708 0.91733 0.38266 0.0
H153 H 0.15804 0.86562 0.38827 0.0
H154 H 0.15075 0.98315 0.44022 0.0
H155 H 0.23949 1.03415 0.43551 0.0
H156 H 0.47948 0.37513 0.47944 0.0
H157 H 0.5488 0.45746 0.47005 0.0
H158 H 0.59679 0.4058 0.38087 0.0
H159 H 0.52683 0.32275 0.39026 0.0
La160 La 0.84739 0.67468 0.13166 0.0
La161 La 0.82298 0.74055 0.16656 0.0
C162 C 0.8596 0.60362 0.11576 0.0
C163 C 0.88499 0.57702 0.12709 0.0
C164 C 0.92093 0.57702 0.10491 0.0
C165 C 0.93816 0.54474 0.11128 0.0
C166 C 0.9195 0.51132 0.1398 0.0
C167 C 0.8857 0.51313 0.1632 0.0
C168 C 0.86866 0.5456 0.15697 0.0
C169 C 0.82063 0.72326 0.08548 0.0
C170 C 0.73875 0.6325 0.15886 0.0
C171 C 0.81854 0.81468 0.18699 0.0
C172 C 0.84613 0.86745 0.17937 0.0
C173 C 0.84182 0.89979 0.20261 0.0
C174 C 0.86468 0.94952 0.19449 0.0
C175 C 0.89222 0.96767 0.16298 0.0
C176 C 0.89794 0.93559 0.14025 0.0
C177 C 0.87496 0.88577 0.14835 0.0
C178 C 0.83874 0.68752 0.21315 0.0
C179 C 0.93274 0.77585 0.1442 0.0
O180 O 0.8251 0.60063 0.13661 0.0
O181 O 0.88501 0.64703 0.10156 0.0
O182 O 0.85358 0.71142 0.07983 0.0
O183 O 0.80315 0.70606 0.11568 0.0
O184 O 0.77343 0.62358 0.14934 0.0
O185 O 0.74807 0.67769 0.16464 0.0
O186 O 0.84124 0.79663 0.20436 0.0
O187 O 0.79415 0.78676 0.16053 0.0
O188 O 0.80381 0.69721 0.21448 0.0
O189 O 0.86306 0.70631 0.1847 0.0
O190 O 0.89814 0.78759 0.14538 0.0
O191 O 0.92048 0.7298 0.14473 0.0
H192 H 0.93387 0.6002 0.08148 0.0
H193 H 0.9639 0.54376 0.09266 0.0
H194 H 0.87044 0.48752 0.18516 0.0
H195 H 0.84077 0.54417 0.17458 0.0
H196 H 0.81979 0.88638 0.22665 0.0
H197 H 0.85978 0.97369 0.21229 0.0
H198 H 0.91896 0.94892 0.11578 0.0
H199 H 0.87871 0.86145 0.12998 0.0
La200 La 1.00256 0.2812 0.40125 0.0
La201 La 0.9011 0.237 0.43006 0.0
C202 C 0.09304 0.31672 0.39595 0.0
C203 C 0.12048 0.29027 0.39605 0.0
C204 C 0.16191 0.30532 0.37441 0.0
C205 C 0.18837 0.28078 0.37597 0.0
C206 C 0.17355 0.24083 0.39909 0.0
C207 C 0.13157 0.2251 0.42001 0.0
C208 C 0.1054 0.24956 0.41859 0.0
C209 C 0.93531 0.23473 0.3513 0.0
C210 C 0.94206 0.16884 0.41739 0.0
C211 C 0.81184 0.19977 0.4464 0.0
C212 C 0.76378 0.19543 0.44042 0.0
C213 C 0.72453 0.16278 0.46169 0.0
C214 C 0.67805 0.15656 0.45703 0.0
C215 C 0.66931 0.18519 0.43245 0.0
C216 C 0.70817 0.21312 0.40805 0.0
C217 C 0.75497 0.21937 0.41267 0.0
C218 C 0.97404 0.26432 0.4783 0.0
C219 C 0.95347 0.34747 0.40781 0.0
O220 O 0.06538 0.31034 0.36824 0.0
O221 O 0.07062 0.31412 0.42599 0.0
O222 O 0.97668 0.23639 0.35371 0.0
O223 O 0.9326 0.25984 0.37676 0.0
O224 O 0.9855 0.2084 0.42024 0.0
O225 O 0.9029 0.17247 0.41438 0.0
O226 O 0.84659 0.23955 0.46104 0.0
O227 O 0.82843 0.1824 0.4218 0.0
O228 O 0.93091 0.22673 0.4818 0.0
O229 O 0.97256 0.28426 0.45014 0.0
O230 O 0.91139 0.30728 0.41407 0.0
O231 O 0.99465 0.34671 0.40207 0.0
H232 H 0.17421 0.33643 0.35682 0.0
H233 H 0.22094 0.29357 0.35977 0.0
H234 H 0.11979 0.19462 0.43817 0.0
H235 H 0.07393 0.23711 0.43587 0.0
H236 H 0.72959 0.14118 0.48176 0.0
H237 H 0.64907 0.12822 0.47272 0.0
H238 H 0.70329 0.22938 0.38441 0.0
H239 H 0.78394 0.24211 0.39416 0.0
La240 La 0.11671 0.33769 0.65541 0.0
La241 La 0.21368 0.39569 0.62334 0.0
C242 C 1.03084 0.26899 0.66613 0.0
C243 C 1.00622 0.21498 0.66315 0.0
C244 C 1.00757 0.18645 0.69143 0.0
C245 C 0.98204 0.13551 0.68923 0.0
C246 C 0.95474 0.11207 0.65875 0.0
C247 C 0.95443 0.1403 0.63006 0.0
C248 C 0.97977 0.19123 0.63227 0.0
C249 C 0.18306 0.38867 0.70427 0.0
C250 C 0.18365 0.29016 0.64206 0.0
C251 C 0.30071 0.45716 0.6047 0.0
C252 C 0.34859 0.49689 0.61756 0.0
C253 C 0.37695 0.53636 0.5947 0.0
C254 C 0.42478 0.57147 0.60368 0.0
C255 C 0.44542 0.56798 0.63581 0.0
C256 C 0.41677 0.52922 0.65926 0.0
C257 C 0.36875 0.49396 0.65024 0.0
C258 C 0.14069 0.34284 0.57706 0.0
C259 C 0.15521 0.44837 0.64531 0.0
O260 O 0.06309 0.28953 0.69143 0.0
O261 O 1.04542 0.29383 0.6363 0.0
O262 O 0.13833 0.37929 0.70436 0.0
O263 O 0.18956 0.36808 0.67721 0.0
O264 O 0.13896 0.2831 0.6441 0.0
O265 O 0.22129 0.33446 0.63935 0.0
O266 O 0.26444 0.4654 0.60278 0.0
O267 O 0.28629 0.41304 0.61579 0.0
O268 O 0.18535 0.35366 0.57265 0.0
O269 O 0.14059 0.36654 0.60375 0.0
O270 O 0.19852 0.45206 0.64281 0.0
O271 O 0.1148 0.40512 0.64645 0.0
H272 H 1.02743 0.20338 0.71563 0.0
H273 H 0.98219 0.1143 0.71181 0.0
H274 H 0.93307 0.12284 0.6065 0.0
H275 H 0.9778 0.21198 0.61006 0.0
H276 H 0.36254 0.53928 0.56925 0.0
H277 H 0.44613 0.60091 0.58516 0.0
H278 H 0.43194 0.52572 0.68416 0.0
H279 H 0.34791 0.46381 0.66833 0.0
La280 La 0.2684 0.89237 0.92823 0.0
La281 La 0.30613 0.98941 0.8976 0.0
C282 C 0.24798 0.80548 0.94139 0.0
C283 C 0.22149 0.7531 0.93043 0.0
C284 C 0.18704 0.71771 0.95381 0.0
C285 C 0.17002 0.6679 0.94835 0.0
C286 C 0.18729 0.65227 0.91948 0.0
C287 C 0.21946 0.68723 0.89489 0.0
C288 C 0.23638 0.73704 0.90027 0.0
C289 C 0.29399 0.96444 0.97633 0.0
C290 C 0.38215 0.95588 0.90768 0.0
C291 C 0.3225 0.07473 0.88546 0.0
C292 C 0.2951 0.10078 0.88963 0.0
C293 C 0.30617 0.1405 0.86729 0.0
C294 C 0.28189 0.16679 0.87149 0.0
C295 C 0.24606 0.15374 0.89809 0.0
C296 C 0.23398 0.11318 0.91989 0.0
C297 C 0.25835 0.0869 0.91571 0.0
C298 C 0.28612 0.92162 0.8481 0.0
C299 C 0.19268 0.92203 0.91308 0.0
O300 O 0.28417 0.83626 0.92128 0.0
O301 O 0.22403 0.82524 0.95523 0.0
O302 O 0.25884 0.92012 0.98075 0.0
O303 O 0.31537 0.96518 0.94791 0.0
O304 O 0.3437 0.91263 0.9143 0.0
O305 O 0.37755 0.99475 0.90281 0.0
O306 O 0.3061 1.04019 0.86153 0.0
O307 O 0.3351 0.06175 0.91484 0.0
O308 O 0.32273 0.96577 0.84766 0.0
O309 O 0.26101 0.91673 0.87598 0.0
O310 O 0.23075 0.96657 0.91528 0.0
O311 O 0.19989 0.8847 0.91053 0.0
H312 H 0.17536 0.72871 0.97754 0.0
H313 H 0.14551 0.64173 0.96784 0.0
H314 H 0.2336 0.67622 0.87258 0.0
H315 H 0.2632 0.76306 0.88181 0.0
H316 H 0.33417 0.15166 0.84691 0.0
H317 H 0.29181 0.19804 0.8545 0.0
H318 H 0.20655 0.10264 0.94064 0.0
H319 H 0.24901 0.05628 0.93318 0.0
La320 La 0.76003 0.78926 0.6542 0.0
La321 La 0.70212 0.83905 0.62705 0.0
C322 C 0.82144 0.76189 0.64681 0.0
C323 C 0.87559 0.7893 0.64599 0.0
C324 C 0.9023 0.78056 0.67176 0.0
C325 C 0.9534 0.80572 0.67041 0.0
C326 C 0.97853 0.84 0.64327 0.0
C327 C 0.95206 0.84944 0.61791 0.0
C328 C 0.9012 0.8243 0.61918 0.0
C329 C 0.7334 0.82212 0.70948 0.0
C330 C 0.81219 0.90652 0.64606 0.0
C331 C 0.65143 0.87851 0.61718 0.0
C332 C 0.60881 0.88433 0.62351 0.0
C333 C 0.60119 0.91383 0.59968 0.0
C334 C 0.56406 0.92436 0.60578 0.0
C335 C 0.53356 0.90538 0.6358 0.0
C336 C 0.541 0.87571 0.65984 0.0
C337 C 0.57871 0.86546 0.65385 0.0
C338 C 0.74791 0.81429 0.57871 0.0
C339 C 0.64499 0.72549 0.64937 0.0
O340 O 0.79992 0.75948 0.6774 0.0
O341 O 0.80013 0.77014 0.62016 0.0
O342 O 0.75604 0.79765 0.71157 0.0
O343 O 0.72467 0.82498 0.6768 0.0
O344 O 0.81681 0.86745 0.65064 0.0
O345 O 0.77052 0.90342 0.63782 0.0
O346 O 0.64715 0.84219 0.59762 0.0
O347 O 0.68276 0.89013 0.64321 0.0
O348 O 0.74115 0.85106 0.57502 0.0
O349 O 0.72627 0.79243 0.60671 0.0
O350 O 0.64352 0.76602 0.64276 0.0
O351 O 0.6865 0.72496 0.65355 0.0
H352 H 0.88365 0.75384 0.69265 0.0
H353 H 0.97331 0.7977 0.69004 0.0
H354 H 0.97079 0.87546 0.59661 0.0
H355 H 0.88206 0.83199 0.59881 0.0
H356 H 0.62447 0.92929 0.57641 0.0
H357 H 0.55864 0.94687 0.58676 0.0
H358 H 0.51743 0.86027 0.68295 0.0
H359 H 0.58446 0.84312 0.6728 0.0
La360 La 0.21534 0.39965 0.93117 0.0
La361 La 0.11729 0.34428 0.9011 0.0
C362 C 0.30345 0.46059 0.94702 0.0
C363 C 0.35363 0.49086 0.9317 0.0
C364 C 0.38848 0.47611 0.93541 0.0
C365 C 0.43777 0.50798 0.92689 0.0
C366 C 0.45348 0.55553 0.91474 0.0
C367 C 0.41851 0.56962 0.90947 0.0
C368 C 0.36925 0.53777 0.91789 0.0
C369 C 0.14167 0.35273 0.97901 0.0
C370 C 0.16059 0.45622 0.91119 0.0
C371 C 1.02978 0.2778 0.8929 0.0
C372 C 1.00162 0.22408 0.89869 0.0
C373 C 0.9889 0.19221 0.86942 0.0
C374 C 0.95973 0.14177 0.87417 0.0
C375 C 0.94231 0.12202 0.90828 0.0
C376 C 0.95592 0.15353 0.93775 0.0
C377 C 0.9853 0.20404 0.93304 0.0
C378 C 0.18358 0.39256 0.85094 0.0
C379 C 0.18271 0.29489 0.9124 0.0
O380 O 0.27073 0.47236 0.93906 0.0
O381 O 0.2844 0.41337 0.9485 0.0
O382 O 0.18509 0.35977 0.983 0.0
O383 O 0.14318 0.37533 0.95139 0.0
O384 O 0.20282 0.45762 0.91252 0.0
O385 O 0.11902 0.41385 0.91014 0.0
O386 O 1.04578 0.30539 0.92129 0.0
O387 O 0.06225 0.29398 0.86716 0.0
O388 O 0.13954 0.38529 0.85174 0.0
O389 O 0.1892 0.37121 0.87777 0.0
O390 O 0.13824 0.28881 0.91383 0.0
O391 O 0.22095 0.33888 0.9118 0.0
H392 H 0.37807 0.44065 0.94644 0.0
H393 H 0.46406 0.4964 0.93149 0.0
H394 H 0.42972 0.60618 0.90043 0.0
H395 H 0.3438 0.55081 0.91507 0.0
H396 H 1.00059 0.20635 0.84264 0.0
H397 H 0.94932 0.11816 0.85104 0.0
H398 H 0.94256 0.13913 0.96424 0.0
H399 H 0.99423 0.22737 0.95624 0.0
La400 La 0.29938 0.97864 0.65174 0.0
La401 La 0.25935 0.88128 0.62055 0.0
C402 C 0.32062 0.06582 0.66247 0.0
C403 C 0.29499 0.09369 0.65863 0.0
C404 C 0.30639 0.1328 0.68174 0.0
C405 C 0.28331 0.16031 0.67825 0.0
C406 C 0.2484 0.1492 0.65156 0.0
C407 C 0.23626 0.1095 0.62878 0.0
C408 C 0.25936 0.08193 0.63228 0.0
C409 C 0.27968 0.91224 0.70163 0.0
C410 C 0.18549 0.91206 0.63693 0.0
C411 C 0.23404 0.79415 0.60277 0.0
C412 C 0.21694 0.74389 0.61669 0.0
C413 C 0.16869 0.70642 0.61067 0.0
C414 C 0.15407 0.65758 0.61825 0.0
C415 C 0.18741 0.64491 0.63181 0.0
C416 C 0.23514 0.68231 0.63903 0.0
C417 C 0.24979 0.73118 0.63151 0.0
C418 C 0.28989 0.9565 0.57347 0.0
C419 C 0.3677 0.93506 0.64475 0.0
O420 O 0.30401 1.03229 0.68727 0.0
O421 O 0.33101 0.05065 0.63299 0.0
O422 O 0.31635 0.95636 0.7014 0.0
O423 O 0.25381 0.90617 0.67401 0.0
O424 O 0.22364 0.95682 0.63583 0.0
O425 O 0.19196 0.87446 0.63867 0.0
O426 O 0.27864 0.82809 0.60956 0.0
O427 O 0.20428 0.81127 0.60397 0.0
O428 O 0.25374 0.91304 0.56828 0.0
O429 O 0.30858 0.9541 0.60198 0.0
O430 O 0.32673 0.89295 0.64394 0.0
O431 O 0.36735 0.97677 0.64385 0.0
H432 H 0.33353 0.14236 0.70233 0.0
H433 H 0.29322 0.1908 0.69603 0.0
H434 H 0.20947 0.10039 0.60799 0.0
H435 H 0.24975 0.0518 0.61419 0.0
H436 H 0.14264 0.71464 0.59877 0.0
H437 H 0.11714 0.62943 0.61228 0.0
H438 H 0.26159 0.67349 0.64932 0.0
H439 H 0.28739 0.75874 0.63611 0.0
La440 La 0.69265 0.83099 0.93243 0.0
La441 La 0.75955 0.8028 0.89874 0.0
C442 C 0.62107 0.8438 0.94466 0.0
C443 C 0.59781 0.87382 0.93861 0.0
C444 C 0.56185 0.86941 0.96286 0.0
C445 C 0.5333 0.89063 0.95562 0.0
C446 C 0.54002 0.91694 0.92391 0.0
C447 C 0.57755 0.92333 0.90026 0.0
C448 C 0.60599 0.90167 0.90742 0.0
C449 C 0.73903 0.80172 0.97843 0.0
C450 C 0.64857 0.72118 0.90634 0.0
C451 C 0.83185 0.79111 0.88702 0.0
C452 C 0.88561 0.81848 0.89117 0.0
C453 C 0.91485 0.81245 0.86573 0.0
C454 C 0.96526 0.83405 0.87067 0.0
C455 C 0.98742 0.86199 0.90125 0.0
C456 C 0.95851 0.86925 0.92631 0.0
C457 C 0.90804 0.84777 0.9213 0.0
C458 C 0.71182 0.82318 0.85092 0.0
C459 C 0.79703 0.9152 0.92023 0.0
O460 O 0.62434 0.8199 0.9173 0.0
O461 O 0.65913 0.86029 0.96545 0.0
O462 O 0.72409 0.83209 0.98562 0.0
O463 O 0.72256 0.78598 0.94793 0.0
O464 O 0.64118 0.7557 0.91889 0.0
O465 O 0.69297 0.72971 0.89774 0.0
O466 O 0.81308 0.80644 0.86287 0.0
O467 O 0.80598 0.77822 0.91638 0.0
O468 O 0.72108 0.78783 0.84912 0.0
O469 O 0.72874 0.84575 0.88032 0.0
O470 O 0.80807 0.8805 0.91422 0.0
O471 O 0.75154 0.90423 0.92463 0.0
H472 H 0.55445 0.84778 0.9869 0.0
H473 H 0.50476 0.88516 0.97429 0.0
H474 H 0.58359 0.94355 0.87567 0.0
H475 H 0.63319 0.90536 0.8881 0.0
H476 H 0.89848 0.78998 0.84238 0.0
H477 H 0.98686 0.82798 0.85103 0.0
H478 H 0.97488 0.89072 0.95006 0.0
H479 H 0.88644 0.85313 0.94136 0.0
C480 C 0.23969 0.2357 0.1221 0.0
C481 C 0.20771 0.22347 0.15185 0.0
C482 C 0.23697 0.17031 0.17513 0.0
C483 C 0.26784 0.18142 0.14472 0.0
N484 N 0.29022 0.21548 0.08545 0.0
N485 N 0.16882 0.17256 0.20315 0.0
C486 C 0.26655 0.21133 0.11705 0.0
C487 C 0.20416 0.18867 0.17729 0.0
N488 N 0.2457 0.27193 0.09925 0.0
N489 N 0.24062 0.14423 0.20271 0.0
H490 H 0.14492 0.18592 0.20588 0.0
H491 H 0.16072 0.14348 0.22013 0.0
H492 H 0.26297 0.129 0.20167 0.0
H493 H 0.22376 0.1401 0.22744 0.0
H494 H 0.27255 0.2865 0.07951 0.0
H495 H 0.22638 0.29037 0.10174 0.0
H496 H 0.28645 0.23228 0.06281 0.0
H497 H 0.3101 0.19803 0.08067 0.0
C498 C 0.07092 0.87057 0.45065 0.0
C499 C 0.09388 0.88952 0.41712 0.0
C500 C 1.0167 0.83789 0.3866 0.0
C501 C 0.99246 0.82216 0.42004 0.0
N502 N 0.99579 0.82422 0.48438 0.0
N503 N 0.08649 0.89983 0.35411 0.0
C504 C 1.01935 0.83921 0.45225 0.0
C505 C 0.06598 0.87601 0.38541 0.0
N506 N 0.09871 0.8802 0.48062 0.0
N507 N 0.99397 0.81382 0.3561 0.0
H508 H 0.1225 0.92827 0.35226 0.0
H509 H 0.06643 0.89461 0.33094 0.0
H510 H 0.95978 0.78255 0.3565 0.0
H511 H 1.01131 0.82092 0.3313 0.0
H512 H 0.08499 0.86371 0.50524 0.0
H513 H 0.13652 0.90232 0.48052 0.0
H514 H 1.01157 0.83984 0.50875 0.0
H515 H 0.95939 0.79719 0.48658 0.0
C516 C 0.96516 0.10661 0.1664 0.0
C517 C 0.94064 0.11862 0.14013 0.0
C518 C 0.88756 1.03174 0.12662 0.0
C519 C 0.91187 1.01968 0.15278 0.0
N520 N 0.98088 0.04515 0.19127 0.0
N521 N 0.89 0.09374 0.0878 0.0
C522 C 0.95306 0.05707 0.17061 0.0
C523 C 0.90547 0.08143 0.1179 0.0
N524 N 0.99798 0.14175 0.18869 0.0
N525 N 0.8459 0.9959 0.11124 0.0
H526 H 0.90367 0.12977 0.07999 0.0
H527 H 0.86806 0.06854 0.06863 0.0
H528 H 0.83151 0.95894 0.11661 0.0
H529 H 0.82341 1.003 0.09529 0.0
H530 H 1.0119 0.13416 0.21132 0.0
H531 H 1.00957 0.17856 0.18587 0.0
H532 H 1.01422 0.0708 0.20204 0.0
H533 H 0.9727 1.00924 0.19499 0.0
C534 C 0.23344 0.16391 0.38195 0.0
C535 C 0.26387 0.17597 0.41239 0.0
C536 C 0.23497 0.23029 0.4338 0.0
C537 C 0.20387 0.21759 0.40379 0.0
N538 N 0.16569 0.16533 0.35325 0.0
N539 N 0.28461 0.21076 0.47141 0.0
C540 C 0.20063 0.18212 0.37909 0.0
C541 C 0.26167 0.20605 0.43962 0.0
N542 N 0.23761 0.13727 0.35491 0.0
N543 N 0.24052 0.26698 0.45602 0.0
H544 H 0.30459 0.1936 0.47662 0.0
H545 H 0.28013 0.22774 0.49375 0.0
H546 H 0.22142 0.28552 0.4529 0.0
H547 H 0.26684 0.28181 0.47588 0.0
H548 H 0.2212 0.1326 0.3301 0.0
H549 H 0.25981 0.12193 0.35647 0.0
H550 H 0.15788 0.13585 0.3368 0.0
H551 H 0.14175 0.17853 0.35008 0.0
C552 C 1.05518 0.89126 0.12335 0.0
C553 C 0.08736 0.88274 0.14419 0.0
C554 C 1.01777 0.80837 0.16842 0.0
C555 C 0.98573 0.81391 0.14481 0.0
N556 N 0.97631 0.85651 0.09482 0.0
N557 N 0.10046 0.8286 0.18142 0.0
C558 C 1.005 0.85445 0.12103 0.0
C559 C 0.06894 0.83997 0.16521 0.0
N560 N 0.07244 0.93485 0.10614 0.0
N561 N 0.9996 0.77434 0.19514 0.0
H562 H 0.13823 0.85092 0.18015 0.0
H563 H 0.08936 0.79499 0.19338 0.0
H564 H 0.96271 0.75017 0.19924 0.0
H565 H 1.02098 0.77312 0.21565 0.0
H566 H 1.04996 0.94549 0.0938 0.0
H567 H 0.10904 0.96208 0.10669 0.0
H568 H 0.98963 0.8825 0.07453 0.0
H569 H 0.94014 0.82952 0.09108 0.0
C570 C 0.88232 1.03379 0.43826 0.0
C571 C 0.90399 1.01816 0.41212 0.0
C572 C 0.95742 0.10303 0.39278 0.0
C573 C 0.93523 0.1187 0.41872 0.0
N574 N 0.88547 0.10049 0.4718 0.0
N575 N 0.96838 1.03748 0.36963 0.0
C576 C 0.9004 0.08443 0.44317 0.0
C577 C 0.94374 0.05277 0.39114 0.0
N578 N 0.84336 1.0 0.45779 0.0
N579 N 0.98931 0.13542 0.3683 0.0
H580 H 0.95823 1.00088 0.36693 0.0
H581 H 1.00094 0.06106 0.35662 0.0
H582 H 1.00169 0.17258 0.36913 0.0
H583 H 1.00165 0.12529 0.34589 0.0
H584 H 0.8215 1.00841 0.4736 0.0
H585 H 0.83088 0.96272 0.45672 0.0
H586 H 0.86465 0.07823 0.49285 0.0
H587 H 0.89763 0.13713 0.47635 0.0
C588 C 0.19001 0.17721 0.67072 0.0
C589 C 0.22643 0.1808 0.64665 0.0
C590 C 0.22268 0.24598 0.61436 0.0
C591 C 0.19268 0.24818 0.64179 0.0
N592 N 0.14823 0.21609 0.69715 0.0
N593 N 0.28081 0.22142 0.59706 0.0
C594 C 0.17582 0.21338 0.67004 0.0
C595 C 0.24345 0.21574 0.61872 0.0
N596 N 0.16846 0.1387 0.69385 0.0
N597 N 0.22978 0.27143 0.58338 0.0
H598 H 0.29676 0.19973 0.59899 0.0
H599 H 0.29857 0.2501 0.57901 0.0
H600 H 0.21331 0.29212 0.57861 0.0
H601 H 0.24715 0.26758 0.56096 0.0
H602 H 0.13815 0.13086 0.7095 0.0
H603 H 0.17829 0.11192 0.69512 0.0
H604 H 0.14009 0.19584 0.72061 0.0
H605 H 0.13589 0.24087 0.69749 0.0
C606 C 0.1064 0.8745 0.93583 0.0
C607 C 0.14141 0.91287 0.91393 0.0
C608 C 0.07579 0.92503 0.89039 0.0
C609 C 1.04057 0.88156 0.9076 0.0
N610 N 1.02191 0.81234 0.94478 0.0
N611 N 0.15874 0.97459 0.86904 0.0
C612 C 1.05578 0.85572 0.92994 0.0
C613 C 0.12609 0.93867 0.89121 0.0
N614 N 0.1216 0.8574 0.96345 0.0
N615 N 0.06113 0.95372 0.8737 0.0
H616 H 0.19597 0.98753 0.86922 0.0
H617 H 0.14858 0.98982 0.84862 0.0
H618 H 1.02465 0.94439 0.87218 0.0
H619 H 0.08516 0.98859 0.86416 0.0
H620 H 0.098 0.83279 0.98245 0.0
H621 H 0.15825 0.87207 0.96987 0.0
H622 H 1.03098 0.78899 0.95773 0.0
H623 H 0.98448 0.79781 0.94185 0.0
C624 C 0.8425 0.98785 0.67513 0.0
C625 C 0.85321 0.95689 0.65405 0.0
C626 C 0.93544 1.02675 0.64265 0.0
C627 C 0.92124 0.05827 0.65873 0.0
N628 N 0.85957 0.06972 0.6875 0.0
N629 N 0.91049 0.94739 0.61705 0.0
C630 C 0.87443 1.039 0.67439 0.0
C631 C 0.90018 0.97629 0.63803 0.0
N632 N 0.80229 0.96823 0.69688 0.0
N633 N 0.98279 0.04509 0.63213 0.0
H634 H 0.88671 0.91027 0.614 0.0
H635 H 0.94154 0.96052 0.60108 0.0
H636 H 1.00896 0.08189 0.63454 0.0
H637 H 0.99706 1.02352 0.62368 0.0
H638 H 0.79577 0.9883 0.71589 0.0
H639 H 0.77793 0.93099 0.69878 0.0
H640 H 0.82368 0.05813 0.69486 0.0
H641 H 0.88207 0.10746 0.68847 0.0
C642 C 0.22154 0.25004 0.9383 0.0
C643 C 0.19115 0.25275 0.91178 0.0
C644 C 0.1881 0.18277 0.88095 0.0
C645 C 0.22399 0.18498 0.90454 0.0
N646 N 0.27856 0.2236 0.95392 0.0
N647 N 0.1483 0.22423 0.85599 0.0
C648 C 0.24137 0.21909 0.93297 0.0
C649 C 0.17455 0.21934 0.88281 0.0
N650 N 0.23074 0.27648 0.96903 0.0
N651 N 0.16665 0.14538 0.85702 0.0
H652 H 0.13744 0.25022 0.85635 0.0
H653 H 0.14025 0.20492 0.83211 0.0
H654 H 0.17604 0.11833 0.85492 0.0
H655 H 0.13684 0.13874 0.84151 0.0
H656 H 0.24799 0.27207 0.99108 0.0
H657 H 0.21697 0.2996 0.97389 0.0
H658 H 0.29687 0.25175 0.97217 0.0
H659 H 0.29385 0.20137 0.95129 0.0
C660 C 0.115 0.92056 0.66065 0.0
C661 C 0.13439 0.90198 0.63476 0.0
C662 C 1.05179 0.84405 0.61405 0.0
C663 C 1.03237 0.86298 0.63947 0.0
N664 N 1.04503 0.92574 0.68147 0.0
N665 N 0.12255 0.85616 0.58064 0.0
C666 C 0.06392 0.90342 0.66102 0.0
C667 C 0.10306 0.86688 0.60952 0.0
N668 N 0.14467 0.95244 0.68607 0.0
N669 N 1.02126 0.80311 0.59508 0.0
H670 H 0.15991 0.87357 0.57576 0.0
H671 H 0.10193 0.8338 0.55974 0.0
H672 H 0.98341 0.78552 0.59722 0.0
H673 H 1.03334 0.78421 0.57929 0.0
H674 H 0.13177 0.96256 0.7082 0.0
H675 H 0.18219 0.96655 0.68649 0.0
H676 H 0.06637 0.95844 0.69487 0.0
H677 H 1.00781 0.9136 0.68268 0.0
C678 C 0.85812 0.05121 0.8987 0.0
C679 C 0.90561 0.06905 0.91231 0.0
C680 C 0.88097 0.98685 0.93462 0.0
C681 C 0.83531 0.96798 0.91713 0.0
N682 N 0.78631 0.98246 0.87463 0.0
N683 N 0.96497 0.0527 0.93863 0.0
C684 C 0.82546 1.00021 0.89701 0.0
C685 C 0.91788 1.0365 0.92894 0.0
N686 N 0.84345 0.08306 0.8882 0.0
N687 N 0.8884 0.95831 0.95806 0.0
H688 H 0.99267 0.08876 0.93515 0.0
H689 H 0.97726 1.0296 0.94728 0.0
H690 H 0.86179 0.92264 0.96421 0.0
H691 H 0.91913 0.97151 0.97412 0.0
H692 H 0.80746 0.07206 0.88189 0.0
H693 H 0.86594 0.1208 0.88933 0.0
H694 H 0.78109 1.00436 0.8566 0.0
H695 H 0.76192 0.94558 0.87077 0.0
C696 C 0.41929 0.14828 0.29633 0.0
C697 C 0.40741 0.17965 0.31552 0.0
C698 C 0.39907 0.21383 0.25874 0.0
C699 C 0.40669 0.17953 0.23963 0.0
N700 N 0.43617 0.12284 0.23947 0.0
N701 N 0.39799 0.2499 0.31616 0.0
C702 C 0.42153 0.15021 0.25825 0.0
C703 C 0.40179 0.21536 0.29694 0.0
N704 N 0.42431 0.11369 0.31443 0.0
N705 N 0.38669 0.24304 0.24025 0.0
H706 H 0.39996 0.25117 0.344 0.0
H707 H 0.39672 0.27913 0.30484 0.0
H708 H 0.38681 0.244 0.21237 0.0
H709 H 0.37532 0.2653 0.25216 0.0
H710 H 0.42588 0.08504 0.30222 0.0
H711 H 0.42472 0.11217 0.34219 0.0
H712 H 0.4526 0.10497 0.25102 0.0
H713 H 0.4357 0.12116 0.21174 0.0
C714 C 0.84706 0.64798 0.30618 0.0
C715 C 0.86041 0.6926 0.32358 0.0
C716 C 0.88548 0.73497 0.26594 0.0
C717 C 0.86146 0.68943 0.24816 0.0
N718 N 0.82333 0.60239 0.25032 0.0
N719 N 0.88986 0.77903 0.31957 0.0
C720 C 0.84448 0.64582 0.26803 0.0
C721 C 0.88038 0.73648 0.30346 0.0
N722 N 0.83534 0.60772 0.32631 0.0
N723 N 0.911 0.77708 0.24683 0.0
H724 H 0.88794 0.78255 0.34709 0.0
H725 H 0.8972 0.81032 0.30553 0.0
H726 H 0.91326 0.77783 0.21913 0.0
H727 H 0.93354 0.81079 0.25865 0.0
H728 H 0.82792 0.57442 0.3156 0.0
H729 H 0.8371 0.60917 0.35417 0.0
H730 H 0.80522 0.5686 0.26294 0.0
H731 H 0.82301 0.60065 0.22244 0.0
C732 C 0.90539 0.25943 0.25719 0.0
C733 C 0.91138 0.22344 0.23903 0.0
C734 C 0.90431 0.1832 0.29682 0.0
C735 C 0.9119 0.22566 0.31504 0.0
N736 N 0.91208 0.30179 0.31281 0.0
N737 N 0.90734 0.14585 0.24083 0.0
C738 C 0.90918 0.26267 0.29539 0.0
C739 C 0.90697 0.1832 0.25874 0.0
N740 N 0.89502 0.28966 0.23813 0.0
N741 N 0.89503 0.14306 0.31633 0.0
H742 H 0.90514 0.14312 0.21305 0.0
H743 H 0.91082 0.1184 0.25312 0.0
H744 H 0.89205 0.14231 0.34413 0.0
H745 H 0.88592 0.1095 0.30523 0.0
H746 H 0.88722 0.31479 0.24973 0.0
H747 H 0.88791 0.28523 0.21087 0.0
H748 H 0.91837 0.33351 0.29996 0.0
H749 H 0.90831 0.30267 0.34033 0.0
C750 C 0.21905 0.44226 0.75716 0.0
C751 C 0.20872 0.39873 0.7395 0.0
C752 C 0.2132 0.3647 0.79757 0.0
C753 C 0.20883 0.40195 0.81527 0.0
N754 N 0.21542 0.48068 0.81236 0.0
N755 N 0.20389 0.32061 0.74242 0.0
C756 C 0.21527 0.44266 0.79513 0.0
C757 C 0.20919 0.36091 0.7595 0.0
N758 N 0.23234 0.48306 0.73728 0.0
N759 N 0.22197 0.33362 0.81694 0.0
H760 H 0.20663 0.31912 0.71483 0.0
H761 H 0.19644 0.28869 0.75555 0.0
H762 H 0.22922 0.3384 0.84412 0.0
H763 H 0.22847 0.30744 0.80561 0.0
H764 H 0.24393 0.5173 0.74825 0.0
H765 H 0.23608 0.48305 0.70954 0.0
H766 H 0.21368 0.50866 0.79926 0.0
H767 H 0.21588 0.48319 0.84017 0.0
C768 C 0.28764 0.874 0.79525 0.0
C769 C 0.26558 0.89744 0.81296 0.0
C770 C 0.22799 0.89896 0.75602 0.0
C771 C 0.26117 0.88922 0.73746 0.0
N772 N 0.31902 0.86163 0.73923 0.0
N773 N 0.21101 0.92952 0.81023 0.0
C774 C 0.28913 0.87386 0.75712 0.0
C775 C 0.23366 0.90806 0.7935 0.0
N776 N 0.30705 0.85199 0.81506 0.0
N777 N 0.19148 0.89994 0.73777 0.0
H778 H 0.21229 0.93449 0.8377 0.0
H779 H 0.19274 0.94416 0.79671 0.0
H780 H 0.18535 0.89081 0.71085 0.0
H781 H 0.16396 0.90354 0.75009 0.0
H782 H 0.32078 0.83117 0.80402 0.0
H783 H 0.3049 0.85102 0.84294 0.0
H784 H 0.34484 0.85581 0.75177 0.0
H785 H 0.31863 0.85889 0.71143 0.0
C786 C 0.76925 0.87289 0.7633 0.0
C787 C 0.72772 0.84697 0.74138 0.0
C788 C 0.67449 0.8285 0.79364 0.0
C789 C 0.71596 0.84775 0.81606 0.0
N790 N 0.80227 0.90351 0.82182 0.0
N791 N 0.6431 0.819 0.73301 0.0
C792 C 0.7631 0.87595 0.80063 0.0
C793 C 0.68094 0.83153 0.75569 0.0
N794 N 0.81468 0.89098 0.74864 0.0
N795 N 0.62919 0.80448 0.80879 0.0
H796 H 0.64831 0.82188 0.70536 0.0
H797 H 0.60827 0.81006 0.74145 0.0
H798 H 0.62419 0.80353 0.83645 0.0
H799 H 0.59728 0.78476 0.79423 0.0
H800 H 0.8465 0.90419 0.7634 0.0
H801 H 0.82029 0.89092 0.72118 0.0
H802 H 0.83669 0.92862 0.81209 0.0
H803 H 0.79942 0.9046 0.84931 0.0
C804 C 0.36091 1.0256 1.01658 0.0
C805 C 0.3128 1.00531 1.00343 0.0
C806 C 0.30403 0.06713 0.03812 0.0
C807 C 0.35437 0.09105 0.04786 0.0
N808 N 0.43208 0.09441 0.04186 0.0
N809 N 0.23838 1.00761 1.00072 0.0
C810 C 0.38316 0.07083 0.03559 0.0
C811 C 0.28416 1.02602 1.01431 0.0
N812 N 0.38439 0.99965 1.01325 0.0
N813 N 0.2749 0.08383 0.05132 0.0
H814 H 0.2218 0.97639 0.98496 0.0
H815 H 0.21771 1.02454 1.00326 0.0
H816 H 0.28824 0.11661 0.06495 0.0
H817 H 0.23705 0.0643 0.04998 0.0
H818 H 0.41679 1.009 1.02632 0.0
H819 H 0.3689 0.96587 1.00055 0.0
H820 H 0.45553 0.08522 0.02895 0.0
H821 H 0.45011 0.12464 0.05833 0.0
C822 C 0.84115 0.80354 0.51835 0.0
C823 C 0.81634 0.75219 0.51279 0.0
C824 C 0.74393 0.74563 0.54249 0.0
C825 C 0.77034 0.79546 0.55222 0.0
N826 N 0.845 0.87267 0.54975 0.0
N827 N 0.74752 0.67364 0.52691 0.0
C828 C 0.81921 0.82479 0.54003 0.0
C829 C 0.76864 0.72314 0.52688 0.0
N830 N 0.88495 0.83219 0.50191 0.0
N831 N 0.69447 0.72014 0.54643 0.0
H832 H 0.76616 0.65632 0.51822 0.0
H833 H 0.71445 0.65058 0.5396 0.0
H834 H 0.67479 0.73589 0.55635 0.0
H835 H 0.67274 0.68527 0.53607 0.0
H836 H 0.90315 0.87007 0.50174 0.0
H837 H 0.9016 0.8178 0.48605 0.0
H838 H 0.88225 0.8949 0.5454 0.0
H839 H 0.82963 0.88976 0.56414 0.0
C840 C 0.08018 0.27764 1.015 0.0
C841 C 0.09803 0.3268 1.00389 0.0
C842 C 1.02528 0.32292 0.0315 0.0
C843 C 1.01123 0.27701 0.04702 0.0
N844 N 1.02538 0.20978 0.05335 0.0
N845 N 0.09047 0.39864 1.00778 0.0
C846 C 1.03863 0.254 0.03854 0.0
C847 C 0.07123 0.34996 1.01381 0.0
N848 N 0.10141 0.25263 1.00173 0.0
N849 N 0.99316 0.33952 0.03183 0.0
H850 H 0.12476 0.42037 0.99647 0.0
H851 H 0.07487 0.41842 1.01764 0.0
H852 H 0.95762 0.31796 0.04121 0.0
H853 H 0.99922 0.37083 1.01842 0.0
H854 H 0.08707 0.21536 1.00524 0.0
H855 H 0.13152 0.26839 0.98472 0.0
H856 H 1.04697 0.1937 0.05237 0.0
H857 H 0.99342 0.19004 0.06816 0.0
C858 C 0.30178 0.06179 0.51324 0.0
C859 C 0.35347 0.09042 0.50811 0.0
C860 C 0.36198 1.02921 0.54354 0.0
C861 C 0.31069 1.00075 0.54889 0.0
N862 N 0.23094 0.98765 0.53535 0.0
N863 N 0.43246 0.10682 0.52954 0.0
C864 C 0.28041 1.01634 0.53256 0.0
C865 C 0.3834 0.07587 0.52655 0.0
N866 N 0.27332 0.08056 0.50283 0.0
N867 N 0.39063 1.00993 0.55205 0.0
H868 H 0.45175 0.14075 0.51758 0.0
H869 H 0.45408 0.10063 0.54714 0.0
H870 H 0.37668 0.97497 0.56221 0.0
H871 H 0.42719 1.02584 0.54469 0.0
H872 H 0.23629 0.06462 0.50834 0.0
H873 H 0.28752 0.11523 0.49201 0.0
H874 H 0.20641 0.99219 0.51987 0.0
H875 H 0.21389 0.95714 0.55181 0.0
C876 C 0.77357 0.76597 0.06686 0.0
C877 C 0.79638 0.73882 0.05724 0.0
C878 C 0.76904 0.74115 0.99601 0.0
C879 C 0.76002 0.7801 1.00484 0.0
N880 N 0.77102 0.83796 0.05188 0.0
N881 N 0.81621 0.70222 1.00752 0.0
C882 C 0.76837 0.79568 0.04106 0.0
C883 C 0.79555 0.72804 1.02015 0.0
N884 N 0.7505 0.75895 0.09873 0.0
N885 N 0.74833 0.71235 0.96696 0.0
H886 H 0.8287 0.68418 1.02352 0.0
H887 H 0.82144 0.6996 0.98022 0.0
H888 H 0.7238 0.71511 0.95072 0.0
H889 H 0.7504 0.68114 0.96184 0.0
H890 H 0.7313 0.77665 0.10536 0.0
H891 H 0.74372 0.72996 0.11525 0.0
H892 H 0.77777 0.8492 0.07851 0.0
H893 H 0.77388 0.86456 0.03425 0.0
C894 C 0.06899 0.27054 0.54646 0.0
C895 C 0.10119 0.32167 0.54916 0.0
C896 C 1.04901 0.33493 0.50782 0.0
C897 C 1.0174 0.28358 0.50345 0.0
N898 N 1.00577 0.20316 0.51281 0.0
N899 N 0.1299 0.40039 0.52283 0.0
C900 C 1.0296 0.25149 0.52135 0.0
C901 C 0.09361 0.35311 0.52688 0.0
N902 N 0.07617 0.23992 0.56776 0.0
N903 N 1.03561 0.36695 0.49562 0.0
H904 H 0.16333 0.41458 0.53576 0.0
H905 H 0.12873 0.42383 0.50393 0.0
H906 H 1.00253 0.35616 0.4834 0.0
H907 H 1.05487 0.40407 0.50142 0.0
H908 H 1.05073 0.20308 0.57093 0.0
H909 H 0.10715 0.25203 0.58337 0.0
H910 H 1.01607 0.17876 0.52205 0.0
H911 H 0.97878 0.18817 0.49352 0.0
C912 C 0.60532 0.20214 0.14615 0.0
C913 C 0.61579 0.17203 0.12416 0.0
C914 C 0.52691 0.11964 0.11445 0.0
C915 C 0.51706 0.14631 0.14042 0.0
N916 N 0.54933 0.20559 0.188 0.0
N917 N 0.58479 0.12602 0.06976 0.0
C918 C 0.55711 0.18473 0.1587 0.0
C919 C 0.57608 0.13662 0.10339 0.0
N920 N 0.63793 0.25075 0.14851 0.0
N921 N 0.48996 0.07784 0.10032 0.0
H922 H 0.61918 0.14536 0.05784 0.0
H923 H 0.55713 0.10427 0.05199 0.0
H924 H 0.45381 0.06287 0.1083 0.0
H925 H 0.4962 0.05522 0.08357 0.0
H926 H 0.63034 0.27492 0.1621 0.0
H927 H 0.66799 0.26766 0.13136 0.0
H928 H 0.57793 0.23171 0.20332 0.0
H929 H 0.51472 0.19297 0.1989 0.0
C930 C 0.66854 0.56839 0.39386 0.0
C931 C 0.70507 0.58233 0.42032 0.0
C932 C 0.66033 0.49997 0.44627 0.0
C933 C 0.62205 0.48714 0.4217 0.0
N934 N 0.58589 0.51062 0.37517 0.0
N935 N 0.72978 0.5644 0.47651 0.0
C936 C 0.62502 0.52184 0.39636 0.0
C937 C 0.69917 0.54891 0.44787 0.0
N938 N 0.67629 0.5985 0.36551 0.0
N939 N 0.66036 0.46496 0.4675 0.0
H940 H 0.75841 0.6 0.47909 0.0
H941 H 0.72398 0.5434 0.49933 0.0
H942 H 0.63251 0.42862 0.46731 0.0
H943 H 0.69009 0.47092 0.48288 0.0
H944 H 0.65373 0.58823 0.34328 0.0
H945 H 0.70734 0.63277 0.36297 0.0
H946 H 0.58355 0.53592 0.35891 0.0
H947 H 0.55413 0.47662 0.37576 0.0
C948 C 0.92235 0.39633 0.11428 0.0
C949 C 0.94583 0.38934 0.14411 0.0
C950 C 0.95779 0.46641 0.16953 0.0
C951 C 0.92933 0.46978 0.14168 0.0
N952 N 0.87514 0.43108 0.09209 0.0
N953 N 0.97925 0.41444 0.20314 0.0
C954 C 0.90902 0.43281 0.11535 0.0
C955 C 0.9621 0.4237 0.17253 0.0
N956 N 0.91411 0.36914 0.08408 0.0
N957 N 0.98135 0.50434 0.19274 0.0
H958 H 0.98203 0.38336 0.20659 0.0
H959 H 0.98675 0.43537 0.22619 0.0
H960 H 0.97857 0.53568 0.1914 0.0
H961 H 1.00658 0.50642 0.21133 0.0
H962 H 0.90222 0.37638 0.06021 0.0
H963 H 0.92405 0.3427 0.08164 0.0
H964 H 0.85502 0.4017 0.07512 0.0
H965 H 0.86333 0.45636 0.09219 0.0
C966 C 0.53176 0.13466 0.44753 0.0
C967 C 0.51911 0.15152 0.41666 0.0
C968 C 0.60635 0.20361 0.40285 0.0
C969 C 0.61888 0.18122 0.43044 0.0
N970 N 0.59427 0.15701 0.49157 0.0
N971 N 0.54513 0.19652 0.36141 0.0
C972 C 0.58181 0.15474 0.45651 0.0
C973 C 0.55673 0.18379 0.39308 0.0
N974 N 0.49631 0.10015 0.4689 0.0
N975 N 0.63948 0.24942 0.39161 0.0
H976 H 0.50916 0.18249 0.35326 0.0
H977 H 0.57132 0.21699 0.34208 0.0
H978 H 0.67187 0.27073 0.40542 0.0
H979 H 0.63112 0.26907 0.37354 0.0
H980 H 0.50412 0.0839 0.49006 0.0
H981 H 0.45934 0.08439 0.46335 0.0
H982 H 0.56871 0.14248 0.51224 0.0
H983 H 0.62984 0.18008 0.50024 0.0
C984 C 0.62444 0.52594 0.12221 0.0
C985 C 0.60976 0.49263 0.15128 0.0
C986 C 0.6736 0.55634 0.18868 0.0
C987 C 0.68842 0.58949 0.15956 0.0
N988 N 0.67232 0.60959 0.10128 0.0
N989 N 0.61303 0.47848 0.21408 0.0
C990 C 0.66162 0.57546 0.12729 0.0
C991 C 0.63203 0.50869 0.18518 0.0
N992 N 0.60459 0.50958 0.08921 0.0
N993 N 0.70061 0.56992 0.21921 0.0
H994 H 0.58308 0.44332 0.21225 0.0
H995 H 0.62434 0.48934 0.2402 0.0
H996 H 0.72933 0.60529 0.22326 0.0
H997 H 0.696 0.54595 0.23981 0.0
H998 H 0.61749 0.53025 0.06597 0.0
H999 H 0.57705 0.47387 0.08443 0.0
H1000 H 0.65155 0.60341 0.07842 0.0
H1001 H 0.69985 0.64574 0.10411 0.0
C1002 C 0.95466 0.46579 0.38471 0.0
C1003 C 0.94056 0.4764 0.4181 0.0
C1004 C 0.93837 0.40487 0.44484 0.0
C1005 C 0.95376 0.39452 0.4117 0.0
N1006 N 0.98361 0.41907 0.35157 0.0
N1007 N 0.93089 0.4636 0.48171 0.0
C1008 C 0.96455 0.42653 0.38215 0.0
C1009 C 0.93622 0.44827 0.44867 0.0
N1010 N 0.95681 0.49217 0.35525 0.0
N1011 N 0.92413 0.3725 0.47262 0.0
H1012 H 0.92836 0.49477 0.4857 0.0
H1013 H 0.93356 0.44814 0.50548 0.0
H1014 H 0.92714 0.34137 0.47249 0.0
H1015 H 0.906 0.37465 0.49521 0.0
H1016 H 0.96154 0.48336 0.32932 0.0
H1017 H 0.95105 0.52173 0.35656 0.0
H1018 H 0.99662 0.44343 0.33025 0.0
H1019 H 0.98949 0.38982 0.34835 0.0
C1020 C 0.1704 0.56477 0.60484 0.0
C1021 C 0.17356 0.59233 0.63572 0.0
C1022 C 0.15639 0.52176 0.67368 0.0
C1023 C 0.1533 0.49452 0.64268 0.0
N1024 N 0.14366 0.48509 0.57913 0.0
N1025 N 0.1615 0.59498 0.69905 0.0
C1026 C 0.15602 0.5146 0.60838 0.0
C1027 C 0.16408 0.5701 0.67007 0.0
N1028 N 0.18333 0.5871 0.57218 0.0
N1029 N 0.15246 0.50145 0.70652 0.0
H1030 H 0.16717 0.63024 0.69722 0.0
H1031 H 0.15064 0.5799 0.72443 0.0
H1032 H 0.14311 0.46515 0.70968 0.0
H1033 H 0.15982 0.52052 0.73045 0.0
H1034 H 0.18729 0.57057 0.54937 0.0
H1035 H 0.19404 0.62366 0.56829 0.0
H1036 H 0.14023 0.49586 0.55357 0.0
H1037 H 0.13156 0.44801 0.58129 0.0
C1038 C 0.43625 0.92772 0.88099 0.0
C1039 C 0.43069 0.95842 0.9057 0.0
C1040 C 0.50607 0.97316 0.93541 0.0
C1041 C 0.5056 0.93501 0.91504 0.0
N1042 N 0.46719 0.87311 0.86967 0.0
N1043 N 0.46242 1.0139 0.95523 0.0
C1044 C 0.47027 0.91197 0.88779 0.0
C1045 C 0.4667 0.9828 0.93228 0.0
N1046 N 0.40961 0.91473 0.85036 0.0
N1047 N 0.54457 1.00051 0.95736 0.0
H1048 H 0.43627 1.02419 0.95201 0.0
H1049 H 0.48362 1.02838 0.97794 0.0
H1050 H 0.57381 0.99444 0.95993 0.0
H1051 H 0.54973 1.03151 0.9707 0.0
H1052 H 0.41476 0.89592 0.82955 0.0
H1053 H 0.38658 0.9282 0.84419 0.0
H1054 H 0.43868 0.85153 0.85249 0.0
H1055 H 0.49079 0.8598 0.87393 0.0
C1056 C 0.56025 0.67682 0.67475 0.0
C1057 C 0.59673 0.67894 0.65146 0.0
C1058 C 0.5353 0.60086 0.62503 0.0
C1059 C 0.49781 0.60393 0.64371 0.0
N1060 N 0.47426 0.64652 0.68533 0.0
N1061 N 0.61902 0.64216 0.604 0.0
C1062 C 0.51023 0.64216 0.66857 0.0
C1063 C 0.58443 0.6403 0.62684 0.0
N1064 N 0.5739 0.707 0.70365 0.0
N1065 N 0.52393 0.55973 0.606 0.0
H1066 H 0.65568 0.66852 0.60563 0.0
H1067 H 0.61111 0.61892 0.58227 0.0
H1068 H 0.48845 0.53037 0.60408 0.0
H1069 H 0.5499 0.55274 0.59484 0.0
H1070 H 0.54978 0.705 0.72346 0.0
H1071 H 0.61048 0.73006 0.70987 0.0
H1072 H 0.48093 0.67669 0.70059 0.0
H1073 H 0.43731 0.62157 0.68188 0.0
C1074 C 0.20083 0.58539 0.94244 0.0
C1075 C 0.17731 0.60069 0.91788 0.0
C1076 C 0.14126 0.52042 0.88822 0.0
C1077 C 0.16187 0.50404 0.91457 0.0
N1078 N 0.20249 0.51833 0.97146 0.0
N1079 N 0.11928 0.58064 0.8706 0.0
C1080 C 0.18898 0.53581 0.94305 0.0
C1081 C 0.14569 0.56747 0.89172 0.0
N1082 N 0.23641 0.61877 0.96425 0.0
N1083 N 0.1197 0.49226 0.85888 0.0
H1084 H 0.12213 0.61478 0.87225 0.0
H1085 H 0.0919 0.55659 0.85356 0.0
H1086 H 0.11585 0.45793 0.85538 0.0
H1087 H 0.10905 0.50437 0.83675 0.0
H1088 H 0.25897 0.61098 0.97953 0.0
H1089 H 0.24678 0.65557 0.96462 0.0
H1090 H 0.21708 0.53809 0.99483 0.0
H1091 H 0.19493 0.48248 0.97329 0.0
C1092 C 0.45003 0.95295 0.6682 0.0
C1093 C 0.41342 0.93295 0.64161 0.0
C1094 C 0.45234 0.89002 0.61523 0.0
C1095 C 0.49128 0.91335 0.63962 0.0
N1096 N 0.53132 0.97254 0.68623 0.0
N1097 N 0.38643 0.8916 0.58487 0.0
C1098 C 0.49136 0.94648 0.66527 0.0
C1099 C 0.41665 0.90423 0.61367 0.0
N1100 N 0.44435 0.97614 0.69699 0.0
N1101 N 0.44844 0.85291 0.59425 0.0
H1102 H 0.35989 0.90143 0.58223 0.0
H1103 H 0.39083 0.87551 0.56195 0.0
H1104 H 0.47347 0.84078 0.5949 0.0
H1105 H 0.41786 0.83091 0.57889 0.0
H1106 H 0.4669 0.98662 0.71925 0.0
H1107 H 0.41489 0.98182 0.6998 0.0
H1108 H 0.53579 1.00091 0.70275 0.0
H1109 H 0.56171 0.96813 0.68514 0.0
C1110 C 0.58379 0.65094 0.94088 0.0
C1111 C 0.60482 0.67107 0.90705 0.0
C1112 C 0.52989 0.60817 0.8779 0.0
C1113 C 0.50683 0.59261 0.91187 0.0
N1114 N 0.51046 0.60246 0.9759 0.0
N1115 N 0.59752 0.6708 0.84317 0.0
C1116 C 0.53367 0.61441 0.94344 0.0
C1117 C 0.57798 0.64973 0.87542 0.0
N1118 N 0.61192 0.66728 0.97081 0.0
N1119 N 0.50581 0.58295 0.84806 0.0
H1120 H 0.63306 0.69991 0.84052 0.0
H1121 H 0.57801 0.66114 0.81943 0.0
H1122 H 0.47063 0.55286 0.84909 0.0
H1123 H 0.52183 0.58931 0.82282 0.0
H1124 H 0.60086 0.65058 0.99571 0.0
H1125 H 0.64813 0.69518 0.97015 0.0
H1126 H 0.52619 0.62135 0.99937 0.0
H1127 H 0.47392 0.576 0.97921 0.0
loop_
_geom_bond_atom_site_label_1
_geom_bond_atom_site_label_2
_geom_bond_distance
_geom_bond_site_symmetry_2
_ccdc_geom_bond_type
La0 C2 2.928 . S
La0 O20 2.521 . S
La0 O21 2.628 . S
La0 O22 2.554 . S
La0 O23 2.757 . S
La0 O24 2.470 . S
La0 O29 2.482 . S
La0 O31 2.503 . S
La1 C11 2.928 1_545 S
La1 O23 2.482 . S
La1 O25 2.503 . S
La1 O26 2.521 . S
La1 O27 2.628 . S
La1 O28 2.554 . S
La1 O29 2.757 . S
La1 O30 2.470 . S
C2 La0 2.928 . S
C2 C3 1.503 . S
C2 O20 1.261 . S
C2 O21 1.243 . S
C3 C2 1.503 . S
C3 C4 1.394 . S
C3 C8 1.373 . S
C4 C3 1.394 . S
C4 C5 1.380 . S
C4 H32 0.930 . S
C5 C4 1.380 . S
C5 C6 1.376 . S
C5 H33 0.930 . S
C6 C5 1.376 . S
C6 C7 1.370 . S
C7 C6 1.370 . S
C7 C8 1.396 . S
C7 H34 0.929 . S
C8 C3 1.373 . S
C8 C7 1.396 . S
C8 H35 0.929 . S
C9 O22 1.240 . S
C9 O23 1.289 . S
C10 O24 1.258 . S
C10 O25 1.256 . S
C11 La1 2.928 1_565 S
C11 C12 1.503 . S
C11 O26 1.261 1_565 S
C11 O27 1.243 1_565 S
C12 C11 1.503 . S
C12 C13 1.394 . S
C12 C17 1.373 . S
C13 C12 1.394 . S
C13 C14 1.380 . S
C13 H36 0.930 . S
C14 C13 1.380 . S
C14 C15 1.376 . S
C14 H37 0.930 . S
C15 C14 1.376 . S
C15 C16 1.370 . S
C16 C15 1.370 . S
C16 C17 1.396 . S
C16 H38 0.929 . S
C17 C12 1.373 . S
C17 C16 1.396 . S
C17 H39 0.929 . S
C18 O28 1.240 . S
C18 O29 1.289 . S
C19 O30 1.258 . S
C19 O31 1.256 . S
O20 La0 2.521 . S
O20 C2 1.261 . S
O21 La0 2.628 . S
O21 C2 1.243 . S
O22 La0 2.554 . S
O22 C9 1.240 . S
O23 La0 2.757 . S
O23 La1 2.482 . S
O23 C9 1.289 . S
O24 La0 2.470 . S
O24 C10 1.258 . S
O25 La1 2.503 . S
O25 C10 1.256 . S
O26 La1 2.521 . S
O26 C11 1.261 1_545 S
O27 La1 2.628 . S
O27 C11 1.243 1_545 S
O28 La1 2.554 . S
O28 C18 1.240 . S
O29 La0 2.482 . S
O29 La1 2.757 . S
O29 C18 1.289 . S
O30 La1 2.470 . S
O30 C19 1.258 . S
O31 La0 2.503 . S
O31 C19 1.256 . S
H32 C4 0.930 . S
H33 C5 0.930 . S
H34 C7 0.929 . S
H35 C8 0.929 . S
H36 C13 0.930 . S
H37 C14 0.930 . S
H38 C16 0.929 . S
H39 C17 0.929 . S
La40 C42 2.928 . S
La40 O60 2.521 . S
La40 O61 2.628 . S
La40 O62 2.554 . S
La40 O63 2.757 . S
La40 O64 2.470 . S
La40 O69 2.482 . S
La40 O71 2.503 . S
La41 C51 2.928 . S
La41 O63 2.482 . S
La41 O65 2.503 . S
La41 O66 2.521 . S
La41 O67 2.628 . S
La41 O68 2.554 . S
La41 O69 2.757 . S
La41 O70 2.470 . S
C42 La40 2.928 . S
C42 C43 1.503 . S
C42 O60 1.261 . S
C42 O61 1.243 . S
C43 C42 1.503 . S
C43 C44 1.394 . S
C43 C48 1.373 . S
C44 C43 1.394 . S
C44 C45 1.380 . S
C44 H72 0.930 . S
C45 C44 1.380 . S
C45 C46 1.376 . S
C45 H73 0.930 . S
C46 C45 1.376 . S
C46 C47 1.370 . S
C47 C46 1.370 . S
C47 C48 1.396 . S
C47 H74 0.929 . S
C48 C43 1.373 . S
C48 C47 1.396 . S
C48 H75 0.929 . S
C49 O62 1.240 . S
C49 O63 1.289 . S
C50 O64 1.258 . S
C50 O65 1.256 . S
C51 La41 2.928 . S
C51 C52 1.503 . S
C51 O66 1.261 . S
C51 O67 1.243 . S
C52 C51 1.503 . S
C52 C53 1.394 . S
C52 C57 1.373 . S
C53 C52 1.394 . S
C53 C54 1.380 . S
C53 H76 0.930 . S
C54 C53 1.380 . S
C54 C55 1.376 . S
C54 H77 0.930 . S
C55 C54 1.376 . S
C55 C56 1.370 . S
C56 C55 1.370 . S
C56 C57 1.396 . S
C56 H78 0.929 . S
C57 C52 1.373 . S
C57 C56 1.396 . S
C57 H79 0.929 . S
C58 O68 1.240 . S
C58 O69 1.289 . S
C59 O70 1.258 . S
C59 O71 1.256 . S
O60 La40 2.521 . S
O60 C42 1.261 . S
O61 La40 2.628 . S
O61 C42 1.243 . S
O62 La40 2.554 . S
O62 C49 1.240 . S
O63 La40 2.757 . S
O63 La41 2.482 . S
O63 C49 1.289 . S
O64 La40 2.470 . S
O64 C50 1.258 . S
O65 La41 2.503 . S
O65 C50 1.256 . S
O66 La41 2.521 . S
O66 C51 1.261 . S
O67 La41 2.628 . S
O67 C51 1.243 . S
O68 La41 2.554 . S
O68 C58 1.240 . S
O69 La40 2.482 . S
O69 La41 2.757 . S
O69 C58 1.289 . S
O70 La41 2.470 . S
O70 C59 1.258 . S
O71 La40 2.503 . S
O71 C59 1.256 . S
H72 C44 0.930 . S
H73 C45 0.930 . S
H74 C47 0.929 . S
H75 C48 0.929 . S
H76 C53 0.930 . S
H77 C54 0.930 . S
H78 C56 0.929 . S
H79 C57 0.929 . S
La80 C82 2.928 . S
La80 O100 2.521 . S
La80 O101 2.628 . S
La80 O102 2.554 . S
La80 O103 2.757 . S
La80 O104 2.470 . S
La80 O109 2.482 . S
La80 O111 2.503 . S
La81 C91 2.928 1_655 S
La81 O103 2.482 . S
La81 O105 2.503 . S
La81 O106 2.521 . S
La81 O107 2.628 . S
La81 O108 2.554 . S
La81 O109 2.757 . S
La81 O110 2.470 . S
C82 La80 2.928 . S
C82 C83 1.503 . S
C82 O100 1.261 . S
C82 O101 1.243 . S
C83 C82 1.503 . S
C83 C84 1.394 . S
C83 C88 1.373 . S
C84 C83 1.394 . S
C84 C85 1.380 . S
C84 H112 0.930 . S
C85 C84 1.380 . S
C85 C86 1.376 . S
C85 H113 0.930 . S
C86 C85 1.376 . S
C86 C87 1.370 . S
C87 C86 1.370 . S
C87 C88 1.396 . S
C87 H114 0.929 . S
C88 C83 1.373 . S
C88 C87 1.396 . S
C88 H115 0.929 . S
C89 O102 1.240 . S
C89 O103 1.289 . S
C90 O104 1.258 . S
C90 O105 1.256 . S
C91 La81 2.928 1_455 S
C91 C92 1.503 . S
C91 O106 1.261 1_455 S
C91 O107 1.243 1_455 S
C92 C91 1.503 . S
C92 C93 1.394 . S
C92 C97 1.373 . S
C93 C92 1.394 . S
C93 C94 1.380 . S
C93 H116 0.930 . S
C94 C93 1.380 . S
C94 C95 1.376 . S
C94 H117 0.930 . S
C95 C94 1.376 . S
C95 C96 1.370 . S
C96 C95 1.370 . S
C96 C97 1.396 . S
C96 H118 0.929 . S
C97 C92 1.373 . S
C97 C96 1.396 . S
C97 H119 0.929 . S
C98 O108 1.240 . S
C98 O109 1.289 . S
C99 O110 1.258 . S
C99 O111 1.256 . S
O100 La80 2.521 . S
O100 C82 1.261 . S
O101 La80 2.628 . S
O101 C82 1.243 . S
O102 La80 2.554 . S
O102 C89 1.240 . S
O103 La80 2.757 . S
O103 La81 2.482 . S
O103 C89 1.289 . S
O104 La80 2.470 . S
O104 C90 1.258 . S
O105 La81 2.503 . S
O105 C90 1.256 . S
O106 La81 2.521 . S
O106 C91 1.261 1_655 S
O107 La81 2.628 . S
O107 C91 1.243 1_655 S
O108 La81 2.554 . S
O108 C98 1.240 . S
O109 La80 2.482 . S
O109 La81 2.757 . S
O109 C98 1.289 . S
O110 La81 2.470 . S
O110 C99 1.258 . S
O111 La80 2.503 . S
O111 C99 1.256 . S
H112 C84 0.930 . S
H113 C85 0.930 . S
H114 C87 0.929 . S
H115 C88 0.929 . S
H116 C93 0.930 . S
H117 C94 0.930 . S
H118 C96 0.929 . S
H119 C97 0.929 . S
La120 C122 2.928 1_545 S
La120 O140 2.521 . S
La120 O141 2.628 . S
La120 O142 2.554 . S
La120 O143 2.757 . S
La120 O144 2.470 . S
La120 O149 2.482 . S
La120 O151 2.503 . S
La121 C131 2.928 . S
La121 O143 2.482 . S
La121 O145 2.503 . S
La121 O146 2.521 . S
La121 O147 2.628 . S
La121 O148 2.554 . S
La121 O149 2.757 . S
La121 O150 2.470 . S
C122 La120 2.928 1_565 S
C122 C123 1.503 . S
C122 O140 1.261 1_565 S
C122 O141 1.243 1_565 S
C123 C122 1.503 . S
C123 C124 1.394 . S
C123 C128 1.373 . S
C124 C123 1.394 . S
C124 C125 1.380 . S
C124 H152 0.930 . S
C125 C124 1.380 . S
C125 C126 1.376 . S
C125 H153 0.930 . S
C126 C125 1.376 . S
C126 C127 1.370 . S
C127 C126 1.370 . S
C127 C128 1.396 . S
C127 H154 0.929 . S
C128 C123 1.373 . S
C128 C127 1.396 . S
C128 H155 0.929 . S
C129 O142 1.240 . S
C129 O143 1.289 . S
C130 O144 1.258 . S
C130 O145 1.256 . S
C131 La121 2.928 . S
C131 C132 1.503 . S
C131 O146 1.261 . S
C131 O147 1.243 . S
C132 C131 1.503 . S
C132 C133 1.394 . S
C132 C137 1.373 . S
C133 C132 1.394 . S
C133 C134 1.380 . S
C133 H156 0.930 . S
C134 C133 1.380 . S
C134 C135 1.376 . S
C134 H157 0.930 . S
C135 C134 1.376 . S
C135 C136 1.370 . S
C136 C135 1.370 . S
C136 C137 1.396 . S
C136 H158 0.929 . S
C137 C132 1.373 . S
C137 C136 1.396 . S
C137 H159 0.929 . S
C138 O148 1.240 . S
C138 O149 1.289 . S
C139 O150 1.258 . S
C139 O151 1.256 . S
O140 La120 2.521 . S
O140 C122 1.261 1_545 S
O141 La120 2.628 . S
O141 C122 1.243 1_545 S
O142 La120 2.554 . S
O142 C129 1.240 . S
O143 La120 2.757 . S
O143 La121 2.482 . S
O143 C129 1.289 . S
O144 La120 2.470 . S
O144 C130 1.258 . S
O145 La121 2.503 . S
O145 C130 1.256 . S
O146 La121 2.521 . S
O146 C131 1.261 . S
O147 La121 2.628 . S
O147 C131 1.243 . S
O148 La121 2.554 . S
O148 C138 1.240 . S
O149 La120 2.482 . S
O149 La121 2.757 . S
O149 C138 1.289 . S
O150 La121 2.470 . S
O150 C139 1.258 . S
O151 La120 2.503 . S
O151 C139 1.256 . S
H152 C124 0.930 . S
H153 C125 0.930 . S
H154 C127 0.929 . S
H155 C128 0.929 . S
H156 C133 0.930 . S
H157 C134 0.930 . S
H158 C136 0.929 . S
H159 C137 0.929 . S
La160 C162 2.928 . S
La160 O180 2.521 . S
La160 O181 2.628 . S
La160 O182 2.554 . S
La160 O183 2.757 . S
La160 O184 2.470 . S
La160 O189 2.482 . S
La160 O191 2.503 . S
La161 C171 2.928 . S
La161 O183 2.482 . S
La161 O185 2.503 . S
La161 O186 2.521 . S
La161 O187 2.628 . S
La161 O188 2.554 . S
La161 O189 2.757 . S
La161 O190 2.470 . S
C162 La160 2.928 . S
C162 C163 1.503 . S
C162 O180 1.261 . S
C162 O181 1.243 . S
C163 C162 1.503 . S
C163 C164 1.394 . S
C163 C168 1.373 . S
C164 C163 1.394 . S
C164 C165 1.380 . S
C164 H192 0.930 . S
C165 C164 1.380 . S
C165 C166 1.376 . S
C165 H193 0.930 . S
C166 C165 1.376 . S
C166 C167 1.370 . S
C167 C166 1.370 . S
C167 C168 1.396 . S
C167 H194 0.929 . S
C168 C163 1.373 . S
C168 C167 1.396 . S
C168 H195 0.929 . S
C169 O182 1.240 . S
C169 O183 1.289 . S
C170 O184 1.258 . S
C170 O185 1.256 . S
C171 La161 2.928 . S
C171 C172 1.503 . S
C171 O186 1.261 . S
C171 O187 1.243 . S
C172 C171 1.503 . S
C172 C173 1.394 . S
C172 C177 1.373 . S
C173 C172 1.394 . S
C173 C174 1.380 . S
C173 H196 0.930 . S
C174 C173 1.380 . S
C174 C175 1.376 . S
C174 H197 0.930 . S
C175 C174 1.376 . S
C175 C176 1.370 . S
C176 C175 1.370 . S
C176 C177 1.396 . S
C176 H198 0.929 . S
C177 C172 1.373 . S
C177 C176 1.396 . S
C177 H199 0.929 . S
C178 O188 1.240 . S
C178 O189 1.289 . S
C179 O190 1.258 . S
C179 O191 1.256 . S
O180 La160 2.521 . S
O180 C162 1.261 . S
O181 La160 2.628 . S
O181 C162 1.243 . S
O182 La160 2.554 . S
O182 C169 1.240 . S
O183 La160 2.757 . S
O183 La161 2.482 . S
O183 C169 1.289 . S
O184 La160 2.470 . S
O184 C170 1.258 . S
O185 La161 2.503 . S
O185 C170 1.256 . S
O186 La161 2.521 . S
O186 C171 1.261 . S
O187 La161 2.628 . S
O187 C171 1.243 . S
O188 La161 2.554 . S
O188 C178 1.240 . S
O189 La160 2.482 . S
O189 La161 2.757 . S
O189 C178 1.289 . S
O190 La161 2.470 . S
O190 C179 1.258 . S
O191 La160 2.503 . S
O191 C179 1.256 . S
H192 C164 0.930 . S
H193 C165 0.930 . S
H194 C167 0.929 . S
H195 C168 0.929 . S
H196 C173 0.930 . S
H197 C174 0.930 . S
H198 C176 0.929 . S
H199 C177 0.929 . S
La200 C202 2.928 1_655 S
La200 O220 2.521 . S
La200 O221 2.628 . S
La200 O222 2.554 . S
La200 O223 2.757 . S
La200 O224 2.470 . S
La200 O229 2.482 . S
La200 O231 2.503 . S
La201 C211 2.928 . S
La201 O223 2.482 . S
La201 O225 2.503 . S
La201 O226 2.521 . S
La201 O227 2.628 . S
La201 O228 2.554 . S
La201 O229 2.757 . S
La201 O230 2.470 . S
C202 La200 2.928 1_455 S
C202 C203 1.503 . S
C202 O220 1.261 1_455 S
C202 O221 1.243 1_455 S
C203 C202 1.503 . S
C203 C204 1.394 . S
C203 C208 1.373 . S
C204 C203 1.394 . S
C204 C205 1.380 . S
C204 H232 0.930 . S
C205 C204 1.380 . S
C205 C206 1.376 . S
C205 H233 0.930 . S
C206 C205 1.376 . S
C206 C207 1.370 . S
C207 C206 1.370 . S
C207 C208 1.396 . S
C207 H234 0.929 . S
C208 C203 1.373 . S
C208 C207 1.396 . S
C208 H235 0.929 . S
C209 O222 1.240 . S
C209 O223 1.289 . S
C210 O224 1.258 . S
C210 O225 1.256 . S
C211 La201 2.928 . S
C211 C212 1.503 . S
C211 O226 1.261 . S
C211 O227 1.243 . S
C212 C211 1.503 . S
C212 C213 1.394 . S
C212 C217 1.373 . S
C213 C212 1.394 . S
C213 C214 1.380 . S
C213 H236 0.930 . S
C214 C213 1.380 . S
C214 C215 1.376 . S
C214 H237 0.930 . S
C215 C214 1.376 . S
C215 C216 1.370 . S
C216 C215 1.370 . S
C216 C217 1.396 . S
C216 H238 0.929 . S
C217 C212 1.373 . S
C217 C216 1.396 . S
C217 H239 0.929 . S
C218 O228 1.240 . S
C218 O229 1.289 . S
C219 O230 1.258 . S
C219 O231 1.256 . S
O220 La200 2.521 . S
O220 C202 1.261 1_655 S
O221 La200 2.628 . S
O221 C202 1.243 1_655 S
O222 La200 2.554 . S
O222 C209 1.240 . S
O223 La200 2.757 . S
O223 La201 2.482 . S
O223 C209 1.289 . S
O224 La200 2.470 . S
O224 C210 1.258 . S
O225 La201 2.503 . S
O225 C210 1.256 . S
O226 La201 2.521 . S
O226 C211 1.261 . S
O227 La201 2.628 . S
O227 C211 1.243 . S
O228 La201 2.554 . S
O228 C218 1.240 . S
O229 La200 2.482 . S
O229 La201 2.757 . S
O229 C218 1.289 . S
O230 La201 2.470 . S
O230 C219 1.258 . S
O231 La200 2.503 . S
O231 C219 1.256 . S
H232 C204 0.930 . S
H233 C205 0.930 . S
H234 C207 0.929 . S
H235 C208 0.929 . S
H236 C213 0.930 . S
H237 C214 0.930 . S
H238 C216 0.929 . S
H239 C217 0.929 . S
La240 C242 2.928 1_455 S
La240 O260 2.521 . S
La240 O261 2.628 . S
La240 O262 2.554 . S
La240 O263 2.757 . S
La240 O264 2.470 . S
La240 O269 2.482 . S
La240 O271 2.503 . S
La241 C251 2.928 . S
La241 O263 2.482 . S
La241 O265 2.503 . S
La241 O266 2.521 . S
La241 O267 2.628 . S
La241 O268 2.554 . S
La241 O269 2.757 . S
La241 O270 2.470 . S
C242 La240 2.928 1_655 S
C242 C243 1.503 . S
C242 O260 1.261 1_655 S
C242 O261 1.243 1_655 S
C243 C242 1.503 . S
C243 C244 1.394 . S
C243 C248 1.373 . S
C244 C243 1.394 . S
C244 C245 1.380 . S
C244 H272 0.930 . S
C245 C244 1.380 . S
C245 C246 1.376 . S
C245 H273 0.930 . S
C246 C245 1.376 . S
C246 C247 1.370 . S
C247 C246 1.370 . S
C247 C248 1.396 . S
C247 H274 0.929 . S
C248 C243 1.373 . S
C248 C247 1.396 . S
C248 H275 0.929 . S
C249 O262 1.240 . S
C249 O263 1.289 . S
C250 O264 1.258 . S
C250 O265 1.256 . S
C251 La241 2.928 . S
C251 C252 1.503 . S
C251 O266 1.261 . S
C251 O267 1.243 . S
C252 C251 1.503 . S
C252 C253 1.394 . S
C252 C257 1.373 . S
C253 C252 1.394 . S
C253 C254 1.380 . S
C253 H276 0.930 . S
C254 C253 1.380 . S
C254 C255 1.376 . S
C254 H277 0.930 . S
C255 C254 1.376 . S
C255 C256 1.370 . S
C256 C255 1.370 . S
C256 C257 1.396 . S
C256 H278 0.929 . S
C257 C252 1.373 . S
C257 C256 1.396 . S
C257 H279 0.929 . S
C258 O268 1.240 . S
C258 O269 1.289 . S
C259 O270 1.258 . S
C259 O271 1.256 . S
O260 La240 2.521 . S
O260 C242 1.261 1_455 S
O261 La240 2.628 . S
O261 C242 1.243 1_455 S
O262 La240 2.554 . S
O262 C249 1.240 . S
O263 La240 2.757 . S
O263 La241 2.482 . S
O263 C249 1.289 . S
O264 La240 2.470 . S
O264 C250 1.258 . S
O265 La241 2.503 . S
O265 C250 1.256 . S
O266 La241 2.521 . S
O266 C251 1.261 . S
O267 La241 2.628 . S
O267 C251 1.243 . S
O268 La241 2.554 . S
O268 C258 1.240 . S
O269 La240 2.482 . S
O269 La241 2.757 . S
O269 C258 1.289 . S
O270 La241 2.470 . S
O270 C259 1.258 . S
O271 La240 2.503 . S
O271 C259 1.256 . S
H272 C244 0.930 . S
H273 C245 0.930 . S
H274 C247 0.929 . S
H275 C248 0.929 . S
H276 C253 0.930 . S
H277 C254 0.930 . S
H278 C256 0.929 . S
H279 C257 0.929 . S
La280 C282 2.928 . S
La280 O300 2.521 . S
La280 O301 2.628 . S
La280 O302 2.554 . S
La280 O303 2.757 . S
La280 O304 2.470 . S
La280 O309 2.482 . S
La280 O311 2.503 . S
La281 C291 2.928 1_565 S
La281 O303 2.482 . S
La281 O305 2.503 . S
La281 O306 2.521 . S
La281 O307 2.628 . S
La281 O308 2.554 . S
La281 O309 2.757 . S
La281 O310 2.470 . S
C282 La280 2.928 . S
C282 C283 1.503 . S
C282 O300 1.261 . S
C282 O301 1.243 . S
C283 C282 1.503 . S
C283 C284 1.394 . S
C283 C288 1.373 . S
C284 C283 1.394 . S
C284 C285 1.380 . S
C284 H312 0.930 . S
C285 C284 1.380 . S
C285 C286 1.376 . S
C285 H313 0.930 . S
C286 C285 1.376 . S
C286 C287 1.370 . S
C287 C286 1.370 . S
C287 C288 1.396 . S
C287 H314 0.929 . S
C288 C283 1.373 . S
C288 C287 1.396 . S
C288 H315 0.929 . S
C289 O302 1.240 . S
C289 O303 1.289 . S
C290 O304 1.258 . S
C290 O305 1.256 . S
C291 La281 2.928 1_545 S
C291 C292 1.503 . S
C291 O306 1.261 1_545 S
C291 O307 1.243 1_545 S
C292 C291 1.503 . S
C292 C293 1.394 . S
C292 C297 1.373 . S
C293 C292 1.394 . S
C293 C294 1.380 . S
C293 H316 0.930 . S
C294 C293 1.380 . S
C294 C295 1.376 . S
C294 H317 0.930 . S
C295 C294 1.376 . S
C295 C296 1.370 . S
C296 C295 1.370 . S
C296 C297 1.396 . S
C296 H318 0.929 . S
C297 C292 1.373 . S
C297 C296 1.396 . S
C297 H319 0.929 . S
C298 O308 1.240 . S
C298 O309 1.289 . S
C299 O310 1.258 . S
C299 O311 1.256 . S
O300 La280 2.521 . S
O300 C282 1.261 . S
O301 La280 2.628 . S
O301 C282 1.243 . S
O302 La280 2.554 . S
O302 C289 1.240 . S
O303 La280 2.757 . S
O303 La281 2.482 . S
O303 C289 1.289 . S
O304 La280 2.470 . S
O304 C290 1.258 . S
O305 La281 2.503 . S
O305 C290 1.256 . S
O306 La281 2.521 . S
O306 C291 1.261 1_565 S
O307 La281 2.628 . S
O307 C291 1.243 1_565 S
O308 La281 2.554 . S
O308 C298 1.240 . S
O309 La280 2.482 . S
O309 La281 2.757 . S
O309 C298 1.289 . S
O310 La281 2.470 . S
O310 C299 1.258 . S
O311 La280 2.503 . S
O311 C299 1.256 . S
H312 C284 0.930 . S
H313 C285 0.930 . S
H314 C287 0.929 . S
H315 C288 0.929 . S
H316 C293 0.930 . S
H317 C294 0.930 . S
H318 C296 0.929 . S
H319 C297 0.929 . S
La320 C322 2.928 . S
La320 O340 2.521 . S
La320 O341 2.628 . S
La320 O342 2.554 . S
La320 O343 2.757 . S
La320 O344 2.470 . S
La320 O349 2.482 . S
La320 O351 2.503 . S
La321 C331 2.928 . S
La321 O343 2.482 . S
La321 O345 2.503 . S
La321 O346 2.521 . S
La321 O347 2.628 . S
La321 O348 2.554 . S
La321 O349 2.757 . S
La321 O350 2.470 . S
C322 La320 2.928 . S
C322 C323 1.503 . S
C322 O340 1.261 . S
C322 O341 1.243 . S
C323 C322 1.503 . S
C323 C324 1.394 . S
C323 C328 1.373 . S
C324 C323 1.394 . S
C324 C325 1.380 . S
C324 H352 0.930 . S
C325 C324 1.380 . S
C325 C326 1.376 . S
C325 H353 0.930 . S
C326 C325 1.376 . S
C326 C327 1.370 . S
C327 C326 1.370 . S
C327 C328 1.396 . S
C327 H354 0.929 . S
C328 C323 1.373 . S
C328 C327 1.396 . S
C328 H355 0.929 . S
C329 O342 1.240 . S
C329 O343 1.289 . S
C330 O344 1.258 . S
C330 O345 1.256 . S
C331 La321 2.928 . S
C331 C332 1.503 . S
C331 O346 1.261 . S
C331 O347 1.243 . S
C332 C331 1.503 . S
C332 C333 1.394 . S
C332 C337 1.373 . S
C333 C332 1.394 . S
C333 C334 1.380 . S
C333 H356 0.930 . S
C334 C333 1.380 . S
C334 C335 1.376 . S
C334 H357 0.930 . S
C335 C334 1.376 . S
C335 C336 1.370 . S
C336 C335 1.370 . S
C336 C337 1.396 . S
C336 H358 0.929 . S
C337 C332 1.373 . S
C337 C336 1.396 . S
C337 H359 0.929 . S
C338 O348 1.240 . S
C338 O349 1.289 . S
C339 O350 1.258 . S
C339 O351 1.256 . S
O340 La320 2.521 . S
O340 C322 1.261 . S
O341 La320 2.628 . S
O341 C322 1.243 . S
O342 La320 2.554 . S
O342 C329 1.240 . S
O343 La320 2.757 . S
O343 La321 2.482 . S
O343 C329 1.289 . S
O344 La320 2.470 . S
O344 C330 1.258 . S
O345 La321 2.503 . S
O345 C330 1.256 . S
O346 La321 2.521 . S
O346 C331 1.261 . S
O347 La321 2.628 . S
O347 C331 1.243 . S
O348 La321 2.554 . S
O348 C338 1.240 . S
O349 La320 2.482 . S
O349 La321 2.757 . S
O349 C338 1.289 . S
O350 La321 2.470 . S
O350 C339 1.258 . S
O351 La320 2.503 . S
O351 C339 1.256 . S
H352 C324 0.930 . S
H353 C325 0.930 . S
H354 C327 0.929 . S
H355 C328 0.929 . S
H356 C333 0.930 . S
H357 C334 0.930 . S
H358 C336 0.929 . S
H359 C337 0.929 . S
La360 C362 2.928 . S
La360 O380 2.521 . S
La360 O381 2.628 . S
La360 O382 2.554 . S
La360 O383 2.757 . S
La360 O384 2.470 . S
La360 O389 2.482 . S
La360 O391 2.503 . S
La361 C371 2.928 1_455 S
La361 O383 2.482 . S
La361 O385 2.503 . S
La361 O386 2.521 . S
La361 O387 2.628 . S
La361 O388 2.554 . S
La361 O389 2.757 . S
La361 O390 2.470 . S
C362 La360 2.928 . S
C362 C363 1.503 . S
C362 O380 1.261 . S
C362 O381 1.243 . S
C363 C362 1.503 . S
C363 C364 1.394 . S
C363 C368 1.373 . S
C364 C363 1.394 . S
C364 C365 1.380 . S
C364 H392 0.930 . S
C365 C364 1.380 . S
C365 C366 1.376 . S
C365 H393 0.930 . S
C366 C365 1.376 . S
C366 C367 1.370 . S
C367 C366 1.370 . S
C367 C368 1.396 . S
C367 H394 0.929 . S
C368 C363 1.373 . S
C368 C367 1.396 . S
C368 H395 0.929 . S
C369 O382 1.240 . S
C369 O383 1.289 . S
C370 O384 1.258 . S
C370 O385 1.256 . S
C371 La361 2.928 1_655 S
C371 C372 1.503 . S
C371 O386 1.261 1_655 S
C371 O387 1.243 1_655 S
C372 C371 1.503 . S
C372 C373 1.394 . S
C372 C377 1.373 . S
C373 C372 1.394 . S
C373 C374 1.380 . S
C373 H396 0.930 . S
C374 C373 1.380 . S
C374 C375 1.376 . S
C374 H397 0.930 . S
C375 C374 1.376 . S
C375 C376 1.370 . S
C376 C375 1.370 . S
C376 C377 1.396 . S
C376 H398 0.929 . S
C377 C372 1.373 . S
C377 C376 1.396 . S
C377 H399 0.929 . S
C378 O388 1.240 . S
C378 O389 1.289 . S
C379 O390 1.258 . S
C379 O391 1.256 . S
O380 La360 2.521 . S
O380 C362 1.261 . S
O381 La360 2.628 . S
O381 C362 1.243 . S
O382 La360 2.554 . S
O382 C369 1.240 . S
O383 La360 2.757 . S
O383 La361 2.482 . S
O383 C369 1.289 . S
O384 La360 2.470 . S
O384 C370 1.258 . S
O385 La361 2.503 . S
O385 C370 1.256 . S
O386 La361 2.521 . S
O386 C371 1.261 1_455 S
O387 La361 2.628 . S
O387 C371 1.243 1_455 S
O388 La361 2.554 . S
O388 C378 1.240 . S
O389 La360 2.482 . S
O389 La361 2.757 . S
O389 C378 1.289 . S
O390 La361 2.470 . S
O390 C379 1.258 . S
O391 La360 2.503 . S
O391 C379 1.256 . S
H392 C364 0.930 . S
H393 C365 0.930 . S
H394 C367 0.929 . S
H395 C368 0.929 . S
H396 C373 0.930 . S
H397 C374 0.930 . S
H398 C376 0.929 . S
H399 C377 0.929 . S
La400 C402 2.928 1_565 S
La400 O420 2.521 . S
La400 O421 2.628 . S
La400 O422 2.554 . S
La400 O423 2.757 . S
La400 O424 2.470 . S
La400 O429 2.482 . S
La400 O431 2.503 . S
La401 C411 2.928 . S
La401 O423 2.482 . S
La401 O425 2.503 . S
La401 O426 2.521 . S
La401 O427 2.628 . S
La401 O428 2.554 . S
La401 O429 2.757 . S
La401 O430 2.470 . S
C402 La400 2.928 1_545 S
C402 C403 1.503 . S
C402 O420 1.261 1_545 S
C402 O421 1.243 1_545 S
C403 C402 1.503 . S
C403 C404 1.394 . S
C403 C408 1.373 . S
C404 C403 1.394 . S
C404 C405 1.380 . S
C404 H432 0.930 . S
C405 C404 1.380 . S
C405 C406 1.376 . S
C405 H433 0.930 . S
C406 C405 1.376 . S
C406 C407 1.370 . S
C407 C406 1.370 . S
C407 C408 1.396 . S
C407 H434 0.929 . S
C408 C403 1.373 . S
C408 C407 1.396 . S
C408 H435 0.929 . S
C409 O422 1.240 . S
C409 O423 1.289 . S
C410 O424 1.258 . S
C410 O425 1.256 . S
C411 La401 2.928 . S
C411 C412 1.503 . S
C411 O426 1.261 . S
C411 O427 1.243 . S
C412 C411 1.503 . S
C412 C413 1.394 . S
C412 C417 1.373 . S
C413 C412 1.394 . S
C413 C414 1.380 . S
C413 H436 0.930 . S
C414 C413 1.380 . S
C414 C415 1.376 . S
C414 H437 0.930 . S
C415 C414 1.376 . S
C415 C416 1.370 . S
C416 C415 1.370 . S
C416 C417 1.396 . S
C416 H438 0.929 . S
C417 C412 1.373 . S
C417 C416 1.396 . S
C417 H439 0.929 . S
C418 O428 1.240 . S
C418 O429 1.289 . S
C419 O430 1.258 . S
C419 O431 1.256 . S
O420 La400 2.521 . S
O420 C402 1.261 1_565 S
O421 La400 2.628 . S
O421 C402 1.243 1_565 S
O422 La400 2.554 . S
O422 C409 1.240 . S
O423 La400 2.757 . S
O423 La401 2.482 . S
O423 C409 1.289 . S
O424 La400 2.470 . S
O424 C410 1.258 . S
O425 La401 2.503 . S
O425 C410 1.256 . S
O426 La401 2.521 . S
O426 C411 1.261 . S
O427 La401 2.628 . S
O427 C411 1.243 . S
O428 La401 2.554 . S
O428 C418 1.240 . S
O429 La400 2.482 . S
O429 La401 2.757 . S
O429 C418 1.289 . S
O430 La401 2.470 . S
O430 C419 1.258 . S
O431 La400 2.503 . S
O431 C419 1.256 . S
H432 C404 0.930 . S
H433 C405 0.930 . S
H434 C407 0.929 . S
H435 C408 0.929 . S
H436 C413 0.930 . S
H437 C414 0.930 . S
H438 C416 0.929 . S
H439 C417 0.929 . S
La440 C442 2.928 . S
La440 O460 2.521 . S
La440 O461 2.628 . S
La440 O462 2.554 . S
La440 O463 2.757 . S
La440 O464 2.470 . S
La440 O469 2.482 . S
La440 O471 2.503 . S
La441 C451 2.928 . S
La441 O463 2.482 . S
La441 O465 2.503 . S
La441 O466 2.521 . S
La441 O467 2.628 . S
La441 O468 2.554 . S
La441 O469 2.757 . S
La441 O470 2.470 . S
C442 La440 2.928 . S
C442 C443 1.503 . S
C442 O460 1.261 . S
C442 O461 1.243 . S
C443 C442 1.503 . S
C443 C444 1.394 . S
C443 C448 1.373 . S
C444 C443 1.394 . S
C444 C445 1.380 . S
C444 H472 0.930 . S
C445 C444 1.380 . S
C445 C446 1.376 . S
C445 H473 0.930 . S
C446 C445 1.376 . S
C446 C447 1.370 . S
C447 C446 1.370 . S
C447 C448 1.396 . S
C447 H474 0.929 . S
C448 C443 1.373 . S
C448 C447 1.396 . S
C448 H475 0.929 . S
C449 O462 1.240 . S
C449 O463 1.289 . S
C450 O464 1.258 . S
C450 O465 1.256 . S
C451 La441 2.928 . S
C451 C452 1.503 . S
C451 O466 1.261 . S
C451 O467 1.243 . S
C452 C451 1.503 . S
C452 C453 1.394 . S
C452 C457 1.373 . S
C453 C452 1.394 . S
C453 C454 1.380 . S
C453 H476 0.930 . S
C454 C453 1.380 . S
C454 C455 1.376 . S
C454 H477 0.930 . S
C455 C454 1.376 . S
C455 C456 1.370 . S
C456 C455 1.370 . S
C456 C457 1.396 . S
C456 H478 0.929 . S
C457 C452 1.373 . S
C457 C456 1.396 . S
C457 H479 0.929 . S
C458 O468 1.240 . S
C458 O469 1.289 . S
C459 O470 1.258 . S
C459 O471 1.256 . S
O460 La440 2.521 . S
O460 C442 1.261 . S
O461 La440 2.628 . S
O461 C442 1.243 . S
O462 La440 2.554 . S
O462 C449 1.240 . S
O463 La440 2.757 . S
O463 La441 2.482 . S
O463 C449 1.289 . S
O464 La440 2.470 . S
O464 C450 1.258 . S
O465 La441 2.503 . S
O465 C450 1.256 . S
O466 La441 2.521 . S
O466 C451 1.261 . S
O467 La441 2.628 . S
O467 C451 1.243 . S
O468 La441 2.554 . S
O468 C458 1.240 . S
O469 La440 2.482 . S
O469 La441 2.757 . S
O469 C458 1.289 . S
O470 La441 2.470 . S
O470 C459 1.258 . S
O471 La440 2.503 . S
O471 C459 1.256 . S
H472 C444 0.930 . S
H473 C445 0.930 . S
H474 C447 0.929 . S
H475 C448 0.929 . S
H476 C453 0.930 . S
H477 C454 0.930 . S
H478 C456 0.929 . S
H479 C457 0.929 . S
C480 C481 1.363 . S
C480 C486 1.379 . S
C480 N488 1.356 . S
C481 C480 1.363 . S
C481 C487 1.363 . S
C482 C483 1.363 . S
C482 C487 1.379 . S
C482 N489 1.356 . S
C483 C482 1.363 . S
C483 C486 1.363 . S
N484 C486 1.356 . S
N484 H496 0.984 . S
N484 H497 0.985 . S
N485 C487 1.356 . S
N485 H490 0.984 . S
N485 H491 0.985 . S
C486 C480 1.379 . S
C486 C483 1.363 . S
C486 N484 1.356 . S
C487 C481 1.363 . S
C487 C482 1.379 . S
C487 N485 1.356 . S
N488 C480 1.356 . S
N488 H494 0.984 . S
N488 H495 0.984 . S
N489 C482 1.356 . S
N489 H492 0.984 . S
N489 H493 0.985 . S
H490 N485 0.984 . S
H491 N485 0.985 . S
H492 N489 0.984 . S
H493 N489 0.985 . S
H494 N488 0.984 . S
H495 N488 0.984 . S
H496 N484 0.984 . S
H497 N484 0.985 . S
C498 C499 1.363 . S
C498 C504 1.379 1_455 S
C498 N506 1.356 . S
C499 C498 1.363 . S
C499 C505 1.363 1_455 S
C500 C501 1.363 . S
C500 C505 1.379 . S
C500 N507 1.356 . S
C501 C500 1.363 . S
C501 C504 1.363 . S
N502 C504 1.356 . S
N502 H514 0.984 . S
N502 H515 0.985 . S
N503 C505 1.356 1_455 S
N503 H508 0.984 . S
N503 H509 0.985 1_455 S
C504 C498 1.379 1_655 S
C504 C501 1.363 . S
C504 N502 1.356 . S
C505 C499 1.363 1_655 S
C505 C500 1.379 . S
C505 N503 1.356 1_655 S
N506 C498 1.356 . S
N506 H512 0.984 . S
N506 H513 0.984 . S
N507 C500 1.356 . S
N507 H510 0.984 . S
N507 H511 0.985 . S
H508 N503 0.984 . S
H509 N503 0.985 1_655 S
H510 N507 0.984 . S
H511 N507 0.985 . S
H512 N506 0.984 . S
H513 N506 0.984 . S
H514 N502 0.984 . S
H515 N502 0.985 . S
C516 C517 1.363 . S
C516 C522 1.379 . S
C516 N524 1.356 . S
C517 C516 1.363 . S
C517 C523 1.363 . S
C518 C519 1.363 . S
C518 C523 1.379 1_565 S
C518 N525 1.356 . S
C519 C518 1.363 . S
C519 C522 1.363 1_565 S
N520 C522 1.356 1_565 S
N520 H532 0.984 1_565 S
N520 H533 0.985 . S
N521 C523 1.356 . S
N521 H526 0.984 . S
N521 H527 0.985 . S
C522 C516 1.379 . S
C522 C519 1.363 1_545 S
C522 N520 1.356 1_545 S
C523 C517 1.363 . S
C523 C518 1.379 1_545 S
C523 N521 1.356 . S
N524 C516 1.356 . S
N524 H530 0.984 . S
N524 H531 0.984 . S
N525 C518 1.356 . S
N525 H528 0.984 . S
N525 H529 0.985 . S
H526 N521 0.984 . S
H527 N521 0.985 . S
H528 N525 0.984 . S
H529 N525 0.985 . S
H530 N524 0.984 . S
H531 N524 0.984 . S
H532 N520 0.984 1_545 S
H533 N520 0.985 . S
C534 C535 1.363 . S
C534 C540 1.379 . S
C534 N542 1.356 . S
C535 C534 1.363 . S
C535 C541 1.363 . S
C536 C537 1.363 . S
C536 C541 1.379 . S
C536 N543 1.356 . S
C537 C536 1.363 . S
C537 C540 1.363 . S
N538 C540 1.356 . S
N538 H550 0.984 . S
N538 H551 0.985 . S
N539 C541 1.356 . S
N539 H544 0.984 . S
N539 H545 0.985 . S
C540 C534 1.379 . S
C540 C537 1.363 . S
C540 N538 1.356 . S
C541 C535 1.363 . S
C541 C536 1.379 . S
C541 N539 1.356 . S
N542 C534 1.356 . S
N542 H548 0.984 . S
N542 H549 0.984 . S
N543 C536 1.356 . S
N543 H546 0.984 . S
N543 H547 0.985 . S
H544 N539 0.984 . S
H545 N539 0.985 . S
H546 N543 0.984 . S
H547 N543 0.985 . S
H548 N542 0.984 . S
H549 N542 0.984 . S
H550 N538 0.984 . S
H551 N538 0.985 . S
C552 C553 1.363 1_655 S
C552 C558 1.379 . S
C552 N560 1.356 1_655 S
C553 C552 1.363 1_455 S
C553 C559 1.363 1_455 S
C554 C555 1.363 . S
C554 C559 1.379 . S
C554 N561 1.356 . S
C555 C554 1.363 . S
C555 C558 1.363 . S
N556 C558 1.356 . S
N556 H568 0.984 . S
N556 H569 0.985 . S
N557 C559 1.356 1_455 S
N557 H562 0.984 . S
N557 H563 0.985 . S
C558 C552 1.379 . S
C558 C555 1.363 . S
C558 N556 1.356 . S
C559 C553 1.363 1_655 S
C559 C554 1.379 . S
C559 N557 1.356 1_655 S
N560 C552 1.356 1_455 S
N560 H566 0.984 . S
N560 H567 0.984 . S
N561 C554 1.356 . S
N561 H564 0.984 . S
N561 H565 0.985 . S
H562 N557 0.984 . S
H563 N557 0.985 . S
H564 N561 0.984 . S
H565 N561 0.985 . S
H566 N560 0.984 . S
H567 N560 0.984 . S
H568 N556 0.984 . S
H569 N556 0.985 . S
C570 C571 1.363 . S
C570 C576 1.379 1_565 S
C570 N578 1.356 . S
C571 C570 1.363 . S
C571 C577 1.363 1_565 S
C572 C573 1.363 . S
C572 C577 1.379 . S
C572 N579 1.356 . S
C573 C572 1.363 . S
C573 C576 1.363 . S
N574 C576 1.356 . S
N574 H586 0.984 . S
N574 H587 0.985 . S
N575 C577 1.356 1_565 S
N575 H580 0.984 . S
N575 H581 0.985 1_565 S
C576 C570 1.379 1_545 S
C576 C573 1.363 . S
C576 N574 1.356 . S
C577 C571 1.363 1_545 S
C577 C572 1.379 . S
C577 N575 1.356 1_545 S
N578 C570 1.356 . S
N578 H584 0.984 . S
N578 H585 0.984 . S
N579 C572 1.356 . S
N579 H582 0.984 . S
N579 H583 0.985 . S
H580 N575 0.984 . S
H581 N575 0.985 1_545 S
H582 N579 0.984 . S
H583 N579 0.985 . S
H584 N578 0.984 . S
H585 N578 0.984 . S
H586 N574 0.984 . S
H587 N574 0.985 . S
C588 C589 1.363 . S
C588 C594 1.379 . S
C588 N596 1.356 . S
C589 C588 1.363 . S
C589 C595 1.363 . S
C590 C591 1.363 . S
C590 C595 1.379 . S
C590 N597 1.356 . S
C591 C590 1.363 . S
C591 C594 1.363 . S
N592 C594 1.356 . S
N592 H604 0.984 . S
N592 H605 0.985 . S
N593 C595 1.356 . S
N593 H598 0.984 . S
N593 H599 0.985 . S
C594 C588 1.379 . S
C594 C591 1.363 . S
C594 N592 1.356 . S
C595 C589 1.363 . S
C595 C590 1.379 . S
C595 N593 1.356 . S
N596 C588 1.356 . S
N596 H602 0.984 . S
N596 H603 0.984 . S
N597 C590 1.356 . S
N597 H600 0.984 . S
N597 H601 0.985 . S
H598 N593 0.984 . S
H599 N593 0.985 . S
H600 N597 0.984 . S
H601 N597 0.985 . S
H602 N596 0.984 . S
H603 N596 0.984 . S
H604 N592 0.984 . S
H605 N592 0.985 . S
C606 C607 1.363 . S
C606 C612 1.379 1_455 S
C606 N614 1.356 . S
C607 C606 1.363 . S
C607 C613 1.363 . S
C608 C609 1.363 1_455 S
C608 C613 1.379 . S
C608 N615 1.356 1_455 S
C609 C608 1.363 1_655 S
C609 C612 1.363 . S
N610 C612 1.356 . S
N610 H622 0.984 . S
N610 H623 0.985 . S
N611 C613 1.356 . S
N611 H616 0.984 . S
N611 H617 0.985 . S
C612 C606 1.379 1_655 S
C612 C609 1.363 . S
C612 N610 1.356 . S
C613 C607 1.363 . S
C613 C608 1.379 . S
C613 N611 1.356 . S
N614 C606 1.356 . S
N614 H620 0.984 . S
N614 H621 0.984 . S
N615 C608 1.356 1_655 S
N615 H618 0.984 . S
N615 H619 0.985 1_655 S
H616 N611 0.984 . S
H617 N611 0.985 . S
H618 N615 0.984 . S
H619 N615 0.985 1_455 S
H620 N614 0.984 . S
H621 N614 0.984 . S
H622 N610 0.984 . S
H623 N610 0.985 . S
C624 C625 1.363 . S
C624 C630 1.379 . S
C624 N632 1.356 . S
C625 C624 1.363 . S
C625 C631 1.363 . S
C626 C627 1.363 1_565 S
C626 C631 1.379 . S
C626 N633 1.356 1_565 S
C627 C626 1.363 1_545 S
C627 C630 1.363 1_545 S
N628 C630 1.356 1_545 S
N628 H640 0.984 . S
N628 H641 0.985 . S
N629 C631 1.356 . S
N629 H634 0.984 . S
N629 H635 0.985 . S
C630 C624 1.379 . S
C630 C627 1.363 1_565 S
C630 N628 1.356 1_565 S
C631 C625 1.363 . S
C631 C626 1.379 . S
C631 N629 1.356 . S
N632 C624 1.356 . S
N632 H638 0.984 . S
N632 H639 0.984 . S
N633 C626 1.356 1_545 S
N633 H636 0.984 . S
N633 H637 0.985 . S
H634 N629 0.984 . S
H635 N629 0.985 . S
H636 N633 0.984 . S
H637 N633 0.985 . S
H638 N632 0.984 . S
H639 N632 0.984 . S
H640 N628 0.984 . S
H641 N628 0.985 . S
C642 C643 1.363 . S
C642 C648 1.379 . S
C642 N650 1.356 . S
C643 C642 1.363 . S
C643 C649 1.363 . S
C644 C645 1.363 . S
C644 C649 1.379 . S
C644 N651 1.356 . S
C645 C644 1.363 . S
C645 C648 1.363 . S
N646 C648 1.356 . S
N646 H658 0.984 . S
N646 H659 0.985 . S
N647 C649 1.356 . S
N647 H652 0.984 . S
N647 H653 0.985 . S
C648 C642 1.379 . S
C648 C645 1.363 . S
C648 N646 1.356 . S
C649 C643 1.363 . S
C649 C644 1.379 . S
C649 N647 1.356 . S
N650 C642 1.356 . S
N650 H656 0.984 . S
N650 H657 0.984 . S
N651 C644 1.356 . S
N651 H654 0.984 . S
N651 H655 0.985 . S
H652 N647 0.984 . S
H653 N647 0.985 . S
H654 N651 0.984 . S
H655 N651 0.985 . S
H656 N650 0.984 . S
H657 N650 0.984 . S
H658 N646 0.984 . S
H659 N646 0.985 . S
C660 C661 1.363 . S
C660 C666 1.379 . S
C660 N668 1.356 . S
C661 C660 1.363 . S
C661 C667 1.363 . S
C662 C663 1.363 . S
C662 C667 1.379 1_655 S
C662 N669 1.356 . S
C663 C662 1.363 . S
C663 C666 1.363 1_655 S
N664 C666 1.356 1_655 S
N664 H676 0.984 1_655 S
N664 H677 0.985 . S
N665 C667 1.356 . S
N665 H670 0.984 . S
N665 H671 0.985 . S
C666 C660 1.379 . S
C666 C663 1.363 1_455 S
C666 N664 1.356 1_455 S
C667 C661 1.363 . S
C667 C662 1.379 1_455 S
C667 N665 1.356 . S
N668 C660 1.356 . S
N668 H674 0.984 . S
N668 H675 0.984 . S
N669 C662 1.356 . S
N669 H672 0.984 . S
N669 H673 0.985 . S
H670 N665 0.984 . S
H671 N665 0.985 . S
H672 N669 0.984 . S
H673 N669 0.985 . S
H674 N668 0.984 . S
H675 N668 0.984 . S
H676 N664 0.984 1_455 S
H677 N664 0.985 . S
C678 C679 1.363 1_565 S
C678 C684 1.379 . S
C678 N686 1.356 1_565 S
C679 C678 1.363 1_545 S
C679 C685 1.363 . S
C680 C681 1.363 . S
C680 C685 1.379 1_565 S
C680 N687 1.356 . S
C681 C680 1.363 . S
C681 C684 1.363 . S
N682 C684 1.356 . S
N682 H694 0.984 . S
N682 H695 0.985 . S
N683 C685 1.356 . S
N683 H688 0.984 . S
N683 H689 0.985 . S
C684 C678 1.379 . S
C684 C681 1.363 . S
C684 N682 1.356 . S
C685 C679 1.363 . S
C685 C680 1.379 1_545 S
C685 N683 1.356 . S
N686 C678 1.356 1_545 S
N686 H692 0.985 . S
N686 H693 0.984 . S
N687 C680 1.356 . S
N687 H690 0.984 . S
N687 H691 0.985 . S
H688 N683 0.984 . S
H689 N683 0.985 . S
H690 N687 0.984 . S
H691 N687 0.985 . S
H692 N686 0.985 . S
H693 N686 0.984 . S
H694 N682 0.984 . S
H695 N682 0.985 . S
C696 C697 1.363 . S
C696 C702 1.379 . S
C696 N704 1.356 . S
C697 C696 1.363 . S
C697 C703 1.363 . S
C698 C699 1.363 . S
C698 C703 1.379 . S
C698 N705 1.356 . S
C699 C698 1.363 . S
C699 C702 1.363 . S
N700 C702 1.356 . S
N700 H712 0.984 . S
N700 H713 0.985 . S
N701 C703 1.356 . S
N701 H706 0.984 . S
N701 H707 0.985 . S
C702 C696 1.379 . S
C702 C699 1.363 . S
C702 N700 1.356 . S
C703 C697 1.363 . S
C703 C698 1.379 . S
C703 N701 1.356 . S
N704 C696 1.356 . S
N704 H710 0.984 . S
N704 H711 0.984 . S
N705 C698 1.356 . S
N705 H708 0.984 . S
N705 H709 0.985 . S
H706 N701 0.984 . S
H707 N701 0.985 . S
H708 N705 0.984 . S
H709 N705 0.985 . S
H710 N704 0.984 . S
H711 N704 0.984 . S
H712 N700 0.984 . S
H713 N700 0.985 . S
C714 C715 1.363 . S
C714 C720 1.379 . S
C714 N722 1.356 . S
C715 C714 1.363 . S
C715 C721 1.363 . S
C716 C717 1.363 . S
C716 C721 1.379 . S
C716 N723 1.356 . S
C717 C716 1.363 . S
C717 C720 1.363 . S
N718 C720 1.356 . S
N718 H730 0.984 . S
N718 H731 0.985 . S
N719 C721 1.356 . S
N719 H724 0.984 . S
N719 H725 0.985 . S
C720 C714 1.379 . S
C720 C717 1.363 . S
C720 N718 1.356 . S
C721 C715 1.363 . S
C721 C716 1.379 . S
C721 N719 1.356 . S
N722 C714 1.356 . S
N722 H728 0.984 . S
N722 H729 0.984 . S
N723 C716 1.356 . S
N723 H726 0.984 . S
N723 H727 0.985 . S
H724 N719 0.984 . S
H725 N719 0.985 . S
H726 N723 0.984 . S
H727 N723 0.985 . S
H728 N722 0.984 . S
H729 N722 0.984 . S
H730 N718 0.984 . S
H731 N718 0.985 . S
C732 C733 1.363 . S
C732 C738 1.379 . S
C732 N740 1.356 . S
C733 C732 1.363 . S
C733 C739 1.363 . S
C734 C735 1.363 . S
C734 C739 1.379 . S
C734 N741 1.356 . S
C735 C734 1.363 . S
C735 C738 1.363 . S
N736 C738 1.356 . S
N736 H748 0.984 . S
N736 H749 0.985 . S
N737 C739 1.356 . S
N737 H742 0.984 . S
N737 H743 0.985 . S
C738 C732 1.379 . S
C738 C735 1.363 . S
C738 N736 1.356 . S
C739 C733 1.363 . S
C739 C734 1.379 . S
C739 N737 1.356 . S
N740 C732 1.356 . S
N740 H746 0.984 . S
N740 H747 0.984 . S
N741 C734 1.356 . S
N741 H744 0.984 . S
N741 H745 0.985 . S
H742 N737 0.984 . S
H743 N737 0.985 . S
H744 N741 0.984 . S
H745 N741 0.985 . S
H746 N740 0.984 . S
H747 N740 0.984 . S
H748 N736 0.984 . S
H749 N736 0.985 . S
C750 C751 1.363 . S
C750 C756 1.379 . S
C750 N758 1.356 . S
C751 C750 1.363 . S
C751 C757 1.363 . S
C752 C753 1.363 . S
C752 C757 1.379 . S
C752 N759 1.356 . S
C753 C752 1.363 . S
C753 C756 1.363 . S
N754 C756 1.356 . S
N754 H766 0.984 . S
N754 H767 0.985 . S
N755 C757 1.356 . S
N755 H760 0.984 . S
N755 H761 0.985 . S
C756 C750 1.379 . S
C756 C753 1.363 . S
C756 N754 1.356 . S
C757 C751 1.363 . S
C757 C752 1.379 . S
C757 N755 1.356 . S
N758 C750 1.356 . S
N758 H764 0.984 . S
N758 H765 0.984 . S
N759 C752 1.356 . S
N759 H762 0.984 . S
N759 H763 0.985 . S
H760 N755 0.984 . S
H761 N755 0.985 . S
H762 N759 0.984 . S
H763 N759 0.985 . S
H764 N758 0.984 . S
H765 N758 0.984 . S
H766 N754 0.984 . S
H767 N754 0.985 . S
C768 C769 1.363 . S
C768 C774 1.379 . S
C768 N776 1.356 . S
C769 C768 1.363 . S
C769 C775 1.363 . S
C770 C771 1.363 . S
C770 C775 1.379 . S
C770 N777 1.356 . S
C771 C770 1.363 . S
C771 C774 1.363 . S
N772 C774 1.356 . S
N772 H784 0.984 . S
N772 H785 0.985 . S
N773 C775 1.356 . S
N773 H778 0.984 . S
N773 H779 0.985 . S
C774 C768 1.379 . S
C774 C771 1.363 . S
C774 N772 1.356 . S
C775 C769 1.363 . S
C775 C770 1.379 . S
C775 N773 1.356 . S
N776 C768 1.356 . S
N776 H782 0.984 . S
N776 H783 0.984 . S
N777 C770 1.356 . S
N777 H780 0.984 . S
N777 H781 0.985 . S
H778 N773 0.984 . S
H779 N773 0.985 . S
H780 N777 0.984 . S
H781 N777 0.985 . S
H782 N776 0.984 . S
H783 N776 0.984 . S
H784 N772 0.984 . S
H785 N772 0.985 . S
C786 C787 1.363 . S
C786 C792 1.379 . S
C786 N794 1.356 . S
C787 C786 1.363 . S
C787 C793 1.363 . S
C788 C789 1.363 . S
C788 C793 1.379 . S
C788 N795 1.356 . S
C789 C788 1.363 . S
C789 C792 1.363 . S
N790 C792 1.356 . S
N790 H802 0.984 . S
N790 H803 0.985 . S
N791 C793 1.356 . S
N791 H796 0.984 . S
N791 H797 0.985 . S
C792 C786 1.379 . S
C792 C789 1.363 . S
C792 N790 1.356 . S
C793 C787 1.363 . S
C793 C788 1.379 . S
C793 N791 1.356 . S
N794 C786 1.356 . S
N794 H800 0.984 . S
N794 H801 0.984 . S
N795 C788 1.356 . S
N795 H798 0.984 . S
N795 H799 0.985 . S
H796 N791 0.984 . S
H797 N791 0.985 . S
H798 N795 0.984 . S
H799 N795 0.985 . S
H800 N794 0.984 . S
H801 N794 0.984 . S
H802 N790 0.984 . S
H803 N790 0.985 . S
C804 C805 1.363 . S
C804 C810 1.379 1_565 S
C804 N812 1.356 . S
C805 C804 1.363 . S
C805 C811 1.363 1_556 S
C806 C807 1.363 . S
C806 C811 1.379 1_545 S
C806 N813 1.356 . S
C807 C806 1.363 . S
C807 C810 1.363 1_554 S
N808 C810 1.356 . S
N808 H820 0.984 . S
N808 H821 0.985 . S
N809 C811 1.356 . S
N809 H814 0.984 . S
N809 H815 0.985 . S
C810 C804 1.379 1_545 S
C810 C807 1.363 1_556 S
C810 N808 1.356 . S
C811 C805 1.363 1_554 S
C811 C806 1.379 1_565 S
C811 N809 1.356 . S
N812 C804 1.356 . S
N812 H818 0.984 . S
N812 H819 0.984 . S
N813 C806 1.356 . S
N813 H816 0.984 . S
N813 H817 0.985 . S
H814 N809 0.984 . S
H815 N809 0.985 . S
H816 N813 0.984 . S
H817 N813 0.985 . S
H818 N812 0.984 . S
H819 N812 0.984 . S
H820 N808 0.984 . S
H821 N808 0.985 . S
C822 C823 1.363 . S
C822 C828 1.379 . S
C822 N830 1.356 . S
C823 C822 1.363 . S
C823 C829 1.363 . S
C824 C825 1.363 . S
C824 C829 1.379 . S
C824 N831 1.356 . S
C825 C824 1.363 . S
C825 C828 1.363 . S
N826 C828 1.356 . S
N826 H838 0.984 . S
N826 H839 0.985 . S
N827 C829 1.356 . S
N827 H832 0.984 . S
N827 H833 0.985 . S
C828 C822 1.379 . S
C828 C825 1.363 . S
C828 N826 1.356 . S
C829 C823 1.363 . S
C829 C824 1.379 . S
C829 N827 1.356 . S
N830 C822 1.356 . S
N830 H836 0.984 . S
N830 H837 0.984 . S
N831 C824 1.356 . S
N831 H834 0.984 . S
N831 H835 0.985 . S
H832 N827 0.984 . S
H833 N827 0.985 . S
H834 N831 0.984 . S
H835 N831 0.985 . S
H836 N830 0.984 . S
H837 N830 0.984 . S
H838 N826 0.984 . S
H839 N826 0.985 . S
C840 C841 1.363 . S
C840 C846 1.379 1_455 S
C840 N848 1.356 . S
C841 C840 1.363 . S
C841 C847 1.363 1_556 S
C842 C843 1.363 . S
C842 C847 1.379 1_655 S
C842 N849 1.356 . S
C843 C842 1.363 . S
C843 C846 1.363 1_554 S
N844 C846 1.356 . S
N844 H856 0.984 . S
N844 H857 0.985 . S
N845 C847 1.356 . S
N845 H850 0.984 . S
N845 H851 0.985 . S
C846 C840 1.379 1_655 S
C846 C843 1.363 1_556 S
C846 N844 1.356 . S
C847 C841 1.363 1_554 S
C847 C842 1.379 1_455 S
C847 N845 1.356 . S
N848 C840 1.356 . S
N848 H854 0.984 . S
N848 H855 0.984 . S
N849 C842 1.356 . S
N849 H852 0.984 . S
N849 H853 0.985 . S
H850 N845 0.984 . S
H851 N845 0.985 . S
H852 N849 0.984 . S
H853 N849 0.985 . S
H854 N848 0.984 . S
H855 N848 0.984 . S
H856 N844 0.984 . S
H857 N844 0.985 . S
C858 C859 1.363 . S
C858 C864 1.379 1_545 S
C858 N866 1.356 . S
C859 C858 1.363 . S
C859 C865 1.363 . S
C860 C861 1.363 . S
C860 C865 1.379 1_565 S
C860 N867 1.356 . S
C861 C860 1.363 . S
C861 C864 1.363 . S
N862 C864 1.356 . S
N862 H874 0.984 . S
N862 H875 0.985 . S
N863 C865 1.356 . S
N863 H868 0.984 . S
N863 H869 0.985 . S
C864 C858 1.379 1_565 S
C864 C861 1.363 . S
C864 N862 1.356 . S
C865 C859 1.363 . S
C865 C860 1.379 1_545 S
C865 N863 1.356 . S
N866 C858 1.356 . S
N866 H872 0.984 . S
N866 H873 0.984 . S
N867 C860 1.356 . S
N867 H870 0.984 . S
N867 H871 0.985 . S
H868 N863 0.984 . S
H869 N863 0.985 . S
H870 N867 0.984 . S
H871 N867 0.985 . S
H872 N866 0.984 . S
H873 N866 0.984 . S
H874 N862 0.984 . S
H875 N862 0.985 . S
C876 C877 1.363 . S
C876 C882 1.379 . S
C876 N884 1.356 . S
C877 C876 1.363 . S
C877 C883 1.363 1_554 S
C878 C879 1.363 . S
C878 C883 1.379 . S
C878 N885 1.356 . S
C879 C878 1.363 . S
C879 C882 1.363 1_556 S
N880 C882 1.356 . S
N880 H892 0.984 . S
N880 H893 0.985 . S
N881 C883 1.356 . S
N881 H886 0.984 . S
N881 H887 0.985 . S
C882 C876 1.379 . S
C882 C879 1.363 1_554 S
C882 N880 1.356 . S
C883 C877 1.363 1_556 S
C883 C878 1.379 . S
C883 N881 1.356 . S
N884 C876 1.356 . S
N884 H890 0.984 . S
N884 H891 0.984 . S
N885 C878 1.356 . S
N885 H888 0.984 . S
N885 H889 0.985 . S
H886 N881 0.984 . S
H887 N881 0.985 . S
H888 N885 0.984 . S
H889 N885 0.985 . S
H890 N884 0.984 . S
H891 N884 0.984 . S
H892 N880 0.984 . S
H893 N880 0.985 . S
C894 C895 1.363 . S
C894 C900 1.379 1_455 S
C894 N902 1.356 . S
C895 C894 1.363 . S
C895 C901 1.363 . S
C896 C897 1.363 . S
C896 C901 1.379 1_655 S
C896 N903 1.356 . S
C897 C896 1.363 . S
C897 C900 1.363 . S
N898 C900 1.356 . S
N898 H910 0.984 . S
N898 H911 0.985 . S
N899 C901 1.356 . S
N899 H904 0.984 . S
N899 H905 0.985 . S
C900 C894 1.379 1_655 S
C900 C897 1.363 . S
C900 N898 1.356 . S
C901 C895 1.363 . S
C901 C896 1.379 1_455 S
C901 N899 1.356 . S
N902 C894 1.356 . S
N902 H908 0.984 . S
N902 H909 0.984 . S
N903 C896 1.356 . S
N903 H906 0.984 . S
N903 H907 0.985 . S
H904 N899 0.984 . S
H905 N899 0.985 . S
H906 N903 0.984 . S
H907 N903 0.985 . S
H908 N902 0.984 . S
H909 N902 0.984 . S
H910 N898 0.984 . S
H911 N898 0.985 . S
C912 C913 1.363 . S
C912 C918 1.379 . S
C912 N920 1.356 . S
C913 C912 1.363 . S
C913 C919 1.363 . S
C914 C915 1.363 . S
C914 C919 1.379 . S
C914 N921 1.356 . S
C915 C914 1.363 . S
C915 C918 1.363 . S
N916 C918 1.356 . S
N916 H928 0.984 . S
N916 H929 0.985 . S
N917 C919 1.356 . S
N917 H922 0.984 . S
N917 H923 0.985 . S
C918 C912 1.379 . S
C918 C915 1.363 . S
C918 N916 1.356 . S
C919 C913 1.363 . S
C919 C914 1.379 . S
C919 N917 1.356 . S
N920 C912 1.356 . S
N920 H926 0.984 . S
N920 H927 0.984 . S
N921 C914 1.356 . S
N921 H924 0.984 . S
N921 H925 0.985 . S
H922 N917 0.984 . S
H923 N917 0.985 . S
H924 N921 0.984 . S
H925 N921 0.985 . S
H926 N920 0.984 . S
H927 N920 0.984 . S
H928 N916 0.984 . S
H929 N916 0.985 . S
C930 C931 1.363 . S
C930 C936 1.379 . S
C930 N938 1.356 . S
C931 C930 1.363 . S
C931 C937 1.363 . S
C932 C933 1.363 . S
C932 C937 1.379 . S
C932 N939 1.356 . S
C933 C932 1.363 . S
C933 C936 1.363 . S
N934 C936 1.356 . S
N934 H946 0.984 . S
N934 H947 0.985 . S
N935 C937 1.356 . S
N935 H940 0.984 . S
N935 H941 0.985 . S
C936 C930 1.379 . S
C936 C933 1.363 . S
C936 N934 1.356 . S
C937 C931 1.363 . S
C937 C932 1.379 . S
C937 N935 1.356 . S
N938 C930 1.356 . S
N938 H944 0.984 . S
N938 H945 0.984 . S
N939 C932 1.356 . S
N939 H942 0.984 . S
N939 H943 0.985 . S
H940 N935 0.984 . S
H941 N935 0.985 . S
H942 N939 0.984 . S
H943 N939 0.985 . S
H944 N938 0.984 . S
H945 N938 0.984 . S
H946 N934 0.984 . S
H947 N934 0.985 . S
C948 C949 1.363 . S
C948 C954 1.379 . S
C948 N956 1.356 . S
C949 C948 1.363 . S
C949 C955 1.363 . S
C950 C951 1.363 . S
C950 C955 1.379 . S
C950 N957 1.356 . S
C951 C950 1.363 . S
C951 C954 1.363 . S
N952 C954 1.356 . S
N952 H964 0.984 . S
N952 H965 0.985 . S
N953 C955 1.356 . S
N953 H958 0.984 . S
N953 H959 0.985 . S
C954 C948 1.379 . S
C954 C951 1.363 . S
C954 N952 1.356 . S
C955 C949 1.363 . S
C955 C950 1.379 . S
C955 N953 1.356 . S
N956 C948 1.356 . S
N956 H962 0.984 . S
N956 H963 0.984 . S
N957 C950 1.356 . S
N957 H960 0.984 . S
N957 H961 0.985 . S
H958 N953 0.984 . S
H959 N953 0.985 . S
H960 N957 0.984 . S
H961 N957 0.985 . S
H962 N956 0.984 . S
H963 N956 0.984 . S
H964 N952 0.984 . S
H965 N952 0.985 . S
C966 C967 1.363 . S
C966 C972 1.379 . S
C966 N974 1.356 . S
C967 C966 1.363 . S
C967 C973 1.363 . S
C968 C969 1.363 . S
C968 C973 1.379 . S
C968 N975 1.356 . S
C969 C968 1.363 . S
C969 C972 1.363 . S
N970 C972 1.356 . S
N970 H982 0.984 . S
N970 H983 0.985 . S
N971 C973 1.356 . S
N971 H976 0.984 . S
N971 H977 0.985 . S
C972 C966 1.379 . S
C972 C969 1.363 . S
C972 N970 1.356 . S
C973 C967 1.363 . S
C973 C968 1.379 . S
C973 N971 1.356 . S
N974 C966 1.356 . S
N974 H980 0.984 . S
N974 H981 0.984 . S
N975 C968 1.356 . S
N975 H978 0.984 . S
N975 H979 0.985 . S
H976 N971 0.984 . S
H977 N971 0.985 . S
H978 N975 0.984 . S
H979 N975 0.985 . S
H980 N974 0.984 . S
H981 N974 0.984 . S
H982 N970 0.984 . S
H983 N970 0.985 . S
C984 C985 1.363 . S
C984 C990 1.379 . S
C984 N992 1.356 . S
C985 C984 1.363 . S
C985 C991 1.363 . S
C986 C987 1.363 . S
C986 C991 1.379 . S
C986 N993 1.356 . S
C987 C986 1.363 . S
C987 C990 1.363 . S
N988 C990 1.356 . S
N988 H1000 0.984 . S
N988 H1001 0.985 . S
N989 C991 1.356 . S
N989 H994 0.984 . S
N989 H995 0.985 . S
C990 C984 1.379 . S
C990 C987 1.363 . S
C990 N988 1.356 . S
C991 C985 1.363 . S
C991 C986 1.379 . S
C991 N989 1.356 . S
N992 C984 1.356 . S
N992 H998 0.984 . S
N992 H999 0.984 . S
N993 C986 1.356 . S
N993 H996 0.984 . S
N993 H997 0.985 . S
H994 N989 0.984 . S
H995 N989 0.985 . S
H996 N993 0.984 . S
H997 N993 0.985 . S
H998 N992 0.984 . S
H999 N992 0.984 . S
H1000 N988 0.984 . S
H1001 N988 0.985 . S
C1002 C1003 1.363 . S
C1002 C1008 1.379 . S
C1002 N1010 1.356 . S
C1003 C1002 1.363 . S
C1003 C1009 1.363 . S
C1004 C1005 1.363 . S
C1004 C1009 1.379 . S
C1004 N1011 1.356 . S
C1005 C1004 1.363 . S
C1005 C1008 1.363 . S
N1006 C1008 1.356 . S
N1006 H1018 0.984 . S
N1006 H1019 0.985 . S
N1007 C1009 1.356 . S
N1007 H1012 0.984 . S
N1007 H1013 0.985 . S
C1008 C1002 1.379 . S
C1008 C1005 1.363 . S
C1008 N1006 1.356 . S
C1009 C1003 1.363 . S
C1009 C1004 1.379 . S
C1009 N1007 1.356 . S
N1010 C1002 1.356 . S
N1010 H1016 0.984 . S
N1010 H1017 0.984 . S
N1011 C1004 1.356 . S
N1011 H1014 0.984 . S
N1011 H1015 0.985 . S
H1012 N1007 0.984 . S
H1013 N1007 0.985 . S
H1014 N1011 0.984 . S
H1015 N1011 0.985 . S
H1016 N1010 0.984 . S
H1017 N1010 0.984 . S
H1018 N1006 0.984 . S
H1019 N1006 0.985 . S
C1020 C1021 1.363 . S
C1020 C1026 1.379 . S
C1020 N1028 1.356 . S
C1021 C1020 1.363 . S
C1021 C1027 1.363 . S
C1022 C1023 1.363 . S
C1022 C1027 1.379 . S
C1022 N1029 1.356 . S
C1023 C1022 1.363 . S
C1023 C1026 1.363 . S
N1024 C1026 1.356 . S
N1024 H1036 0.984 . S
N1024 H1037 0.985 . S
N1025 C1027 1.356 . S
N1025 H1030 0.984 . S
N1025 H1031 0.985 . S
C1026 C1020 1.379 . S
C1026 C1023 1.363 . S
C1026 N1024 1.356 . S
C1027 C1021 1.363 . S
C1027 C1022 1.379 . S
C1027 N1025 1.356 . S
N1028 C1020 1.356 . S
N1028 H1034 0.984 . S
N1028 H1035 0.984 . S
N1029 C1022 1.356 . S
N1029 H1032 0.984 . S
N1029 H1033 0.985 . S
H1030 N1025 0.984 . S
H1031 N1025 0.985 . S
H1032 N1029 0.984 . S
H1033 N1029 0.985 . S
H1034 N1028 0.984 . S
H1035 N1028 0.984 . S
H1036 N1024 0.984 . S
H1037 N1024 0.985 . S
C1038 C1039 1.363 . S
C1038 C1044 1.379 . S
C1038 N1046 1.356 . S
C1039 C1038 1.363 . S
C1039 C1045 1.363 . S
C1040 C1041 1.363 . S
C1040 C1045 1.379 . S
C1040 N1047 1.356 . S
C1041 C1040 1.363 . S
C1041 C1044 1.363 . S
N1042 C1044 1.356 . S
N1042 H1054 0.984 . S
N1042 H1055 0.985 . S
N1043 C1045 1.356 . S
N1043 H1048 0.984 . S
N1043 H1049 0.985 . S
C1044 C1038 1.379 . S
C1044 C1041 1.363 . S
C1044 N1042 1.356 . S
C1045 C1039 1.363 . S
C1045 C1040 1.379 . S
C1045 N1043 1.356 . S
N1046 C1038 1.356 . S
N1046 H1052 0.984 . S
N1046 H1053 0.984 . S
N1047 C1040 1.356 . S
N1047 H1050 0.984 . S
N1047 H1051 0.985 . S
H1048 N1043 0.984 . S
H1049 N1043 0.985 . S
H1050 N1047 0.984 . S
H1051 N1047 0.985 . S
H1052 N1046 0.984 . S
H1053 N1046 0.984 . S
H1054 N1042 0.984 . S
H1055 N1042 0.985 . S
C1056 C1057 1.363 . S
C1056 C1062 1.379 . S
C1056 N1064 1.356 . S
C1057 C1056 1.363 . S
C1057 C1063 1.363 . S
C1058 C1059 1.363 . S
C1058 C1063 1.379 . S
C1058 N1065 1.356 . S
C1059 C1058 1.363 . S
C1059 C1062 1.363 . S
N1060 C1062 1.356 . S
N1060 H1072 0.984 . S
N1060 H1073 0.985 . S
N1061 C1063 1.356 . S
N1061 H1066 0.984 . S
N1061 H1067 0.985 . S
C1062 C1056 1.379 . S
C1062 C1059 1.363 . S
C1062 N1060 1.356 . S
C1063 C1057 1.363 . S
C1063 C1058 1.379 . S
C1063 N1061 1.356 . S
N1064 C1056 1.356 . S
N1064 H1070 0.984 . S
N1064 H1071 0.984 . S
N1065 C1058 1.356 . S
N1065 H1068 0.984 . S
N1065 H1069 0.985 . S
H1066 N1061 0.984 . S
H1067 N1061 0.985 . S
H1068 N1065 0.984 . S
H1069 N1065 0.985 . S
H1070 N1064 0.984 . S
H1071 N1064 0.984 . S
H1072 N1060 0.984 . S
H1073 N1060 0.985 . S
C1074 C1075 1.363 . S
C1074 C1080 1.379 . S
C1074 N1082 1.356 . S
C1075 C1074 1.363 . S
C1075 C1081 1.363 . S
C1076 C1077 1.363 . S
C1076 C1081 1.379 . S
C1076 N1083 1.356 . S
C1077 C1076 1.363 . S
C1077 C1080 1.363 . S
N1078 C1080 1.356 . S
N1078 H1090 0.984 . S
N1078 H1091 0.985 . S
N1079 C1081 1.356 . S
N1079 H1084 0.984 . S
N1079 H1085 0.985 . S
C1080 C1074 1.379 . S
C1080 C1077 1.363 . S
C1080 N1078 1.356 . S
C1081 C1075 1.363 . S
C1081 C1076 1.379 . S
C1081 N1079 1.356 . S
N1082 C1074 1.356 . S
N1082 H1088 0.984 . S
N1082 H1089 0.984 . S
N1083 C1076 1.356 . S
N1083 H1086 0.984 . S
N1083 H1087 0.985 . S
H1084 N1079 0.984 . S
H1085 N1079 0.985 . S
H1086 N1083 0.984 . S
H1087 N1083 0.985 . S
H1088 N1082 0.984 . S
H1089 N1082 0.984 . S
H1090 N1078 0.984 . S
H1091 N1078 0.985 . S
C1092 C1093 1.363 . S
C1092 C1098 1.379 . S
C1092 N1100 1.356 . S
C1093 C1092 1.363 . S
C1093 C1099 1.363 . S
C1094 C1095 1.363 . S
C1094 C1099 1.379 . S
C1094 N1101 1.356 . S
C1095 C1094 1.363 . S
C1095 C1098 1.363 . S
N1096 C1098 1.356 . S
N1096 H1108 0.984 . S
N1096 H1109 0.985 . S
N1097 C1099 1.356 . S
N1097 H1102 0.984 . S
N1097 H1103 0.985 . S
C1098 C1092 1.379 . S
C1098 C1095 1.363 . S
C1098 N1096 1.356 . S
C1099 C1093 1.363 . S
C1099 C1094 1.379 . S
C1099 N1097 1.356 . S
N1100 C1092 1.356 . S
N1100 H1106 0.984 . S
N1100 H1107 0.984 . S
N1101 C1094 1.356 . S
N1101 H1104 0.984 . S
N1101 H1105 0.985 . S
H1102 N1097 0.984 . S
H1103 N1097 0.985 . S
H1104 N1101 0.984 . S
H1105 N1101 0.985 . S
H1106 N1100 0.984 . S
H1107 N1100 0.984 . S
H1108 N1096 0.984 . S
H1109 N1096 0.985 . S
C1110 C1111 1.363 . S
C1110 C1116 1.379 . S
C1110 N1118 1.356 . S
C1111 C1110 1.363 . S
C1111 C1117 1.363 . S
C1112 C1113 1.363 . S
C1112 C1117 1.379 . S
C1112 N1119 1.356 . S
C1113 C1112 1.363 . S
C1113 C1116 1.363 . S
N1114 C1116 1.356 . S
N1114 H1126 0.984 . S
N1114 H1127 0.985 . S
N1115 C1117 1.356 . S
N1115 H1120 0.984 . S
N1115 H1121 0.985 . S
C1116 C1110 1.379 . S
C1116 C1113 1.363 . S
C1116 N1114 1.356 . S
C1117 C1111 1.363 . S
C1117 C1112 1.379 . S
C1117 N1115 1.356 . S
N1118 C1110 1.356 . S
N1118 H1124 0.984 . S
N1118 H1125 0.984 . S
N1119 C1112 1.356 . S
N1119 H1122 0.984 . S
N1119 H1123 0.985 . S
H1120 N1115 0.984 . S
H1121 N1115 0.985 . S
H1122 N1119 0.984 . S
H1123 N1119 0.985 . S
H1124 N1118 0.984 . S
H1125 N1118 0.984 . S
H1126 N1114 0.984 . S
H1127 N1114 0.985 . S
C481 C95 1.424 . S
C483 C19 1.342 . S
C499 C126 1.424 . S
C501 C50 1.342 . S
C517 C99 1.342 . S
C519 C175 1.424 . S
C535 C130 1.342 . S
C537 C206 1.424 . S
C553 C15 1.424 . S
C555 C179 1.342 . S
C571 C46 1.424 . S
C573 C210 1.342 . S
C589 C406 1.424 . S
C591 C250 1.342 . S
C607 C299 1.342 . S
C609 C455 1.424 . S
C625 C330 1.342 . S
C627 C246 1.424 . S
C643 C379 1.342 . S
C645 C295 1.424 . S
C661 C410 1.342 . S
C663 C326 1.424 . S
C679 C375 1.424 . S
C681 C459 1.342 . S
C697 C129 1.678 . S
C699 C18 1.678 . S
C715 C49 1.678 . S
C717 C178 1.678 . S
C733 C98 1.678 . S
C735 C209 1.678 . S
C751 C249 1.678 . S
C753 C378 1.678 . S
C769 C298 1.678 . S
C771 C409 1.678 . S
C787 C329 1.678 . S
C789 C458 1.678 . S
C805 C289 2.593 . S
C807 C9 2.593 . S
C823 C58 2.593 . S
C825 C338 2.593 . S
C841 C369 2.593 . S
C843 C89 2.593 . S
C859 C138 2.593 . S
C861 C418 2.593 . S
C877 C169 2.593 . S
C879 C449 2.593 . S
C895 C258 2.593 . S
C897 C218 2.593 . S
C913 C86 1.811 . S
C915 C10 1.829 . S
C931 C59 1.829 . S
C933 C135 1.811 . S
C949 C90 1.829 . S
C951 C166 1.811 . S
C967 C139 1.829 . S
C969 C215 1.811 . S
C985 C6 1.811 . S
C987 C170 1.829 . S
C1003 C55 1.811 . S
C1005 C219 1.829 . S
C1021 C415 1.811 . S
C1023 C259 1.829 . S
C1039 C290 1.829 . S
C1041 C446 1.811 . S
C1057 C339 1.829 . S
C1059 C255 1.811 . S
C1075 C286 1.811 . S
C1077 C370 1.829 . S
C1093 C419 1.829 . S
C1095 C335 1.811 . S
C1111 C450 1.829 . S
C1113 C366 1.811 . S
