# Generated by pormake.
# Topology uoy, (4)-cn, num edge types: 1
# Building blocks:
#     Node 0, Type 0, BuildingBlock: KUFVIS_clean_sbu_0, # of connection points: 4
#     Node 1, Type 0, BuildingBlock: KUFVIS_clean_sbu_0, # of connection points: 4
#     Node 2, Type 0, BuildingBlock: KUFVIS_clean_sbu_0, # of connection points: 4
#     Node 3, Type 0, BuildingBlock: KUFVIS_clean_sbu_0, # of connection points: 4
#     Node 4, Type 0, BuildingBlock: KUFVIS_clean_sbu_0, # of connection points: 4
#     Node 5, Type 0, BuildingBlock: KUFVIS_clean_sbu_0, # of connection points: 4
#     Node 6, Type 0, BuildingBlock: KUFVIS_clean_sbu_0, # of connection points: 4
#     Node 7, Type 0, BuildingBlock: KUFVIS_clean_sbu_0, # of connection points: 4
#     Node 8, Type 0, BuildingBlock: KUFVIS_clean_sbu_0, # of connection points: 4
#     Node 9, Type 0, BuildingBlock: KUFVIS_clean_sbu_0, # of connection points: 4
#     Node 10, Type 0, BuildingBlock: KUFVIS_clean_sbu_0, # of connection points: 4
#     Node 11, Type 0, BuildingBlock: KUFVIS_clean_sbu_0, # of connection points: 4
#     Node 12, Type 0, BuildingBlock: KUFVIS_clean_sbu_0, # of connection points: 4
#     Node 13, Type 0, BuildingBlock: KUFVIS_clean_sbu_0, # of connection points: 4
#     Node 14, Type 0, BuildingBlock: KUFVIS_clean_sbu_0, # of connection points: 4
#     Node 15, Type 0, BuildingBlock: KUFVIS_clean_sbu_0, # of connection points: 4
#     Edge 16, Type (0, 0), BuildingBlock: XUDNAN_clean_linker_2, # of connection points: 2
#     Edge 17, Type (0, 0), BuildingBlock: XUDNAN_clean_linker_2, # of connection points: 2
#     Edge 18, Type (0, 0), BuildingBlock: XUDNAN_clean_linker_2, # of connection points: 2
#     Edge 19, Type (0, 0), BuildingBlock: XUDNAN_clean_linker_2, # of connection points: 2
#     Edge 20, Type (0, 0), BuildingBlock: XUDNAN_clean_linker_2, # of connection points: 2
#     Edge 21, Type (0, 0), BuildingBlock: XUDNAN_clean_linker_2, # of connection points: 2
#     Edge 22, Type (0, 0), BuildingBlock: XUDNAN_clean_linker_2, # of connection points: 2
#     Edge 23, Type (0, 0), BuildingBlock: XUDNAN_clean_linker_2, # of connection points: 2
#     Edge 24, Type (0, 0), BuildingBlock: XUDNAN_clean_linker_2, # of connection points: 2
#     Edge 25, Type (0, 0), BuildingBlock: XUDNAN_clean_linker_2, # of connection points: 2
#     Edge 26, Type (0, 0), BuildingBlock: XUDNAN_clean_linker_2, # of connection points: 2
#     Edge 27, Type (0, 0), BuildingBlock: XUDNAN_clean_linker_2, # of connection points: 2
#     Edge 28, Type (0, 0), BuildingBlock: XUDNAN_clean_linker_2, # of connection points: 2
#     Edge 29, Type (0, 0), BuildingBlock: XUDNAN_clean_linker_2, # of connection points: 2
#     Edge 30, Type (0, 0), BuildingBlock: XUDNAN_clean_linker_2, # of connection points: 2
#     Edge 31, Type (0, 0), BuildingBlock: XUDNAN_clean_linker_2, # of connection points: 2
#     Edge 32, Type (0, 0), BuildingBlock: XUDNAN_clean_linker_2, # of connection points: 2
#     Edge 33, Type (0, 0), BuildingBlock: XUDNAN_clean_linker_2, # of connection points: 2
#     Edge 34, Type (0, 0), BuildingBlock: XUDNAN_clean_linker_2, # of connection points: 2
#     Edge 35, Type (0, 0), BuildingBlock: XUDNAN_clean_linker_2, # of connection points: 2
#     Edge 36, Type (0, 0), BuildingBlock: XUDNAN_clean_linker_2, # of connection points: 2
#     Edge 37, Type (0, 0), BuildingBlock: XUDNAN_clean_linker_2, # of connection points: 2
#     Edge 38, Type (0, 0), BuildingBlock: XUDNAN_clean_linker_2, # of connection points: 2
#     Edge 39, Type (0, 0), BuildingBlock: XUDNAN_clean_linker_2, # of connection points: 2
#     Edge 40, Type (0, 0), BuildingBlock: XUDNAN_clean_linker_2, # of connection points: 2
#     Edge 41, Type (0, 0), BuildingBlock: XUDNAN_clean_linker_2, # of connection points: 2
#     Edge 42, Type (0, 0), BuildingBlock: XUDNAN_clean_linker_2, # of connection points: 2
#     Edge 43, Type (0, 0), BuildingBlock: XUDNAN_clean_linker_2, # of connection points: 2
#     Edge 44, Type (0, 0), BuildingBlock: XUDNAN_clean_linker_2, # of connection points: 2
#     Edge 45, Type (0, 0), BuildingBlock: XUDNAN_clean_linker_2, # of connection points: 2
#     Edge 46, Type (0, 0), BuildingBlock: XUDNAN_clean_linker_2, # of connection points: 2
#     Edge 47, Type (0, 0), BuildingBlock: XUDNAN_clean_linker_2, # of connection points: 2
# Relax obj value: 0.051
# Max RMSD: 0.080
# Mean RMSD: 0.080
data_MOF--net-uoy--node1-KUFVIS_clean_sbu_0--edge1-XUDNAN_clean_linker_2
_symmetry_space_group_name_H-M    P1
_symmetry_Int_Tables_number       1
_symmetry_cell_setting            triclinic
loop_
_symmetry_equiv_pos_as_xyz
'x, y, z'
_cell_length_a     27.63716
_cell_length_b     27.607734
_cell_length_c     104.01773
_cell_angle_alpha  90.018543
_cell_angle_beta   89.964006
_cell_angle_gamma 89.961714
loop_
_atom_site_label
_atom_site_type_symbol
_atom_site_fract_x
_atom_site_fract_y
_atom_site_fract_z
_atom_type_partial_charge
Mn0 Mn 0.26039 0.10285 0.19248 0.0
Mn1 Mn 0.20269 0.20999 0.19476 0.0
C2 C 0.25759 0.14397 0.21203 0.0
C3 C 0.33108 0.05833 0.18833 0.0
C4 C 0.15009 0.11384 0.1919 0.0
O5 O 0.25655 0.12619 0.17382 0.0
O6 O 0.22478 0.20105 0.17679 0.0
C7 C 0.28322 0.27814 0.18979 0.0
N8 N 0.24746 0.2615 0.19765 0.0
C9 C 0.2656 0.32182 0.21362 0.0
C10 C 0.30253 0.33975 0.2057 0.0
C11 C 0.31145 0.31772 0.19375 0.0
C12 C 0.23863 0.28233 0.20917 0.0
H13 H 0.29019 0.26127 0.18061 0.0
C14 C 0.24325 0.16784 0.16972 0.0
O15 O 0.28842 0.03902 0.18728 0.0
O16 O 0.33263 0.10365 0.19157 0.0
N17 N 0.18058 0.22215 0.21187 0.0
C18 C 0.14621 0.19815 0.21878 0.0
C19 C 0.13408 0.21457 0.23114 0.0
C20 C 0.15719 0.25559 0.23622 0.0
C21 C 0.19264 0.2794 0.22894 0.0
C22 C 0.2032 0.26148 0.21669 0.0
H23 H 0.12819 0.16671 0.21491 0.0
O24 O 0.26458 0.09744 0.21179 0.0
O25 O 0.25112 0.16403 0.20091 0.0
O26 O 0.18733 0.08654 0.19265 0.0
O27 O 0.15285 0.15995 0.19207 0.0
C28 C 0.2182 0.31998 0.23341 0.0
C29 C 0.25492 0.34106 0.22584 0.0
H30 H 0.32449 0.37016 0.20873 0.0
H31 H 0.34002 0.33121 0.1876 0.0
H32 H 0.10692 0.19576 0.23672 0.0
H33 H 0.14769 0.26824 0.24575 0.0
H34 H 0.2097 0.335 0.24268 0.0
H35 H 0.27485 0.37182 0.22954 0.0
Mn36 Mn 0.89782 0.76415 0.44059 0.0
Mn37 Mn 0.81489 0.67901 0.44779 0.0
C38 C 0.87729 0.74802 0.46197 0.0
C39 C 0.91724 0.84483 0.43573 0.0
C40 C 0.91778 0.6546 0.43967 0.0
O41 O 0.86267 0.75446 0.42329 0.0
O42 O 0.80511 0.70273 0.43008 0.0
C43 C 0.72995 0.74447 0.44749 0.0
N44 N 0.75697 0.70993 0.45347 0.0
C45 C 0.70025 0.70465 0.47087 0.0
C46 C 0.67053 0.73845 0.46463 0.0
C47 C 0.68597 0.75923 0.45301 0.0
C48 C 0.74421 0.6924 0.46507 0.0
H49 H 0.74219 0.76095 0.43868 0.0
C50 C 0.8239 0.73 0.42149 0.0
O51 O 0.9464 0.80955 0.43284 0.0
O52 O 0.87652 0.83314 0.44107 0.0
N53 N 0.81874 0.65312 0.46481 0.0
C54 C 0.85288 0.62318 0.46994 0.0
C55 C 0.84487 0.60233 0.48207 0.0
C56 C 0.80126 0.61126 0.48861 0.0
C57 C 0.7663 0.64141 0.48301 0.0
C58 C 0.7768 0.66212 0.47106 0.0
H59 H 0.88587 0.61513 0.4648 0.0
O60 O 0.91795 0.76897 0.45919 0.0
O61 O 0.85019 0.73754 0.45224 0.0
O62 O 0.93252 0.69839 0.43878 0.0
O63 O 0.87406 0.6436 0.44243 0.0
C64 C 0.72089 0.65076 0.48863 0.0
C65 C 0.68791 0.68244 0.48256 0.0
H66 H 0.63631 0.74942 0.4688 0.0
H67 H 0.66394 0.78632 0.44829 0.0
H68 H 0.87191 0.57883 0.48628 0.0
H69 H 0.79488 0.59454 0.49787 0.0
H70 H 0.71082 0.63331 0.49753 0.0
H71 H 0.65297 0.6894 0.48688 0.0
Mn72 Mn 0.23752 0.40021 0.68982 0.0
Mn73 Mn 0.31449 0.308 0.69591 0.0
C74 C 0.25419 0.37761 0.71077 0.0
C75 C 0.16137 0.43393 0.68547 0.0
C76 C 0.34896 0.40778 0.6884 0.0
O77 O 0.23882 0.36412 0.67276 0.0
O78 O 0.29241 0.30522 0.67768 0.0
C79 C 0.24469 0.22729 0.69307 0.0
N80 N 0.27767 0.25181 0.70029 0.0
C81 C 0.27251 0.1928 0.71724 0.0
C82 C 0.2386 0.16681 0.70997 0.0
C83 C 0.22432 0.18437 0.69788 0.0
C84 C 0.2906 0.23598 0.71209 0.0
H85 H 0.23418 0.24021 0.68368 0.0
C86 C 0.26362 0.32663 0.66988 0.0
O87 O 0.20133 0.45509 0.68217 0.0
O88 O 0.16534 0.39208 0.6911 0.0
N89 N 0.33833 0.30527 0.71315 0.0
C90 C 0.37079 0.33506 0.71903 0.0
C91 C 0.38797 0.32321 0.73133 0.0
C92 C 0.37254 0.28031 0.73731 0.0
C93 C 0.33954 0.24995 0.731 0.0
C94 C 0.32295 0.26412 0.71886 0.0
H95 H 0.38349 0.36761 0.71438 0.0
O96 O 0.23938 0.42118 0.70817 0.0
O97 O 0.25911 0.34852 0.70103 0.0
O98 O 0.30662 0.42533 0.68698 0.0
O99 O 0.35647 0.36409 0.69185 0.0
C100 C 0.32329 0.20566 0.73613 0.0
C101 C 0.28954 0.17727 0.72931 0.0
H102 H 0.22331 0.13334 0.71358 0.0
H103 H 0.19812 0.16457 0.69222 0.0
H104 H 0.41355 0.34675 0.73612 0.0
H105 H 0.38663 0.27092 0.74669 0.0
H106 H 0.33687 0.19281 0.74526 0.0
H107 H 0.27688 0.14357 0.73345 0.0
Mn108 Mn 0.61825 0.76517 0.94302 0.0
Mn109 Mn 0.71121 0.84 0.9496 0.0
C110 C 0.64581 0.77394 0.96406 0.0
C111 C 0.5916 0.68759 0.93717 0.0
C112 C 0.60985 0.87546 0.94294 0.0
O113 O 0.64929 0.77696 0.92531 0.0
O114 O 0.71562 0.81891 0.93147 0.0
C115 C 0.79391 0.77249 0.94725 0.0
N116 N 0.76765 0.80452 0.95436 0.0
C117 C 0.8261 0.80279 0.97144 0.0
C118 C 0.85396 0.76985 0.96431 0.0
C119 C 0.8375 0.75423 0.95222 0.0
C120 C 0.78235 0.81858 0.96616 0.0
H121 H 0.78184 0.76138 0.93782 0.0
C122 C 0.68981 0.79766 0.92296 0.0
O123 O 0.56427 0.72537 0.93552 0.0
O124 O 0.63425 0.69504 0.94192 0.0
N125 N 0.71112 0.86344 0.96687 0.0
C126 C 0.67944 0.89451 0.97261 0.0
C127 C 0.68961 0.91221 0.98498 0.0
C128 C 0.73285 0.8989 0.99112 0.0
C129 C 0.76518 0.86749 0.98491 0.0
C130 C 0.75249 0.84994 0.97277 0.0
H131 H 0.64676 0.90582 0.96779 0.0
O132 O 0.60272 0.75742 0.9618 0.0
O133 O 0.6713 0.78438 0.95399 0.0
O134 O 0.58862 0.83429 0.94277 0.0
O135 O 0.65513 0.88034 0.94497 0.0
C136 C 0.81004 0.85388 0.99015 0.0
C137 C 0.84039 0.82126 0.98348 0.0
H138 H 0.88797 0.75631 0.96803 0.0
H139 H 0.85875 0.72878 0.94666 0.0
H140 H 0.66455 0.93662 0.98967 0.0
H141 H 0.74098 0.9132 1.00058 0.0
H142 H 0.8217 0.86895 0.99922 0.0
H143 H 0.8747 0.81073 0.98766 0.0
Mn144 Mn 0.27832 0.4035 0.06631 0.0
Mn145 Mn 0.20488 0.30833 0.0605 0.0
C146 C 0.2629 0.37923 0.04544 0.0
C147 C 0.35306 0.43979 0.07076 0.0
C148 C 0.16651 0.40719 0.0674 0.0
O149 O 0.27769 0.36882 0.08353 0.0
O150 O 0.22537 0.30872 0.07886 0.0
C151 C 0.27824 0.23149 0.0645 0.0
N152 N 0.2448 0.25346 0.05684 0.0
C153 C 0.25601 0.19374 0.04027 0.0
C154 C 0.29043 0.17038 0.04799 0.0
C155 C 0.30185 0.18957 0.06012 0.0
C156 C 0.23451 0.23605 0.04502 0.0
H157 H 0.28675 0.2457 0.07389 0.0
C158 C 0.25337 0.33133 0.08662 0.0
O159 O 0.31232 0.46 0.07383 0.0
O160 O 0.35068 0.39759 0.06524 0.0
N161 N 0.18265 0.30215 0.04316 0.0
C162 C 0.14848 0.32887 0.03692 0.0
C163 C 0.13345 0.31485 0.02458 0.0
C164 C 0.15275 0.27286 0.01893 0.0
C165 C 0.18712 0.24538 0.02565 0.0
C166 C 0.20132 0.26159 0.03782 0.0
H167 H 0.13291 0.36071 0.04131 0.0
O168 O 0.27626 0.42337 0.04788 0.0
O169 O 0.25883 0.3505 0.05528 0.0
O170 O 0.20826 0.42593 0.06896 0.0
O171 O 0.16032 0.36333 0.06387 0.0
C172 C 0.20703 0.20195 0.02089 0.0
C173 C 0.24171 0.17635 0.02814 0.0
H174 H 0.30827 0.13768 0.0447 0.0
H175 H 0.32843 0.17181 0.06613 0.0
H176 H 0.10667 0.33607 0.01949 0.0
H177 H 0.14052 0.26186 0.00948 0.0
H178 H 0.19557 0.18748 0.01174 0.0
H179 H 0.2571 0.14328 0.02429 0.0
Mn180 Mn 0.5986 0.75557 0.31502 0.0
Mn181 Mn 0.70389 0.69606 0.3114 0.0
C182 C 0.63161 0.74646 0.29463 0.0
C183 C 0.5561 0.82741 0.31951 0.0
C184 C 0.60856 0.6465 0.31792 0.0
O185 O 0.62783 0.75277 0.33308 0.0
O186 O 0.70372 0.727 0.32864 0.0
C187 C 0.77533 0.77591 0.31119 0.0
N188 N 0.75421 0.7374 0.30525 0.0
C189 C 0.80912 0.74308 0.28735 0.0
C190 C 0.83172 0.78261 0.29331 0.0
C191 C 0.81449 0.79933 0.30523 0.0
C192 C 0.76995 0.72156 0.29368 0.0
H193 H 0.76254 0.78841 0.32043 0.0
C194 C 0.67166 0.7439 0.33636 0.0
O195 O 0.53726 0.785 0.32147 0.0
O196 O 0.60018 0.82824 0.3152 0.0
N197 N 0.70801 0.66478 0.29502 0.0
C198 C 0.68202 0.62644 0.29049 0.0
C199 C 0.69375 0.60627 0.2785 0.0
C200 C 0.73252 0.62519 0.27138 0.0
C201 C 0.75913 0.66417 0.27634 0.0
C202 C 0.74557 0.68305 0.28829 0.0
H203 H 0.65256 0.6112 0.29595 0.0
O204 O 0.58598 0.75654 0.29599 0.0
O205 O 0.65619 0.74284 0.3052 0.0
O206 O 0.58134 0.68312 0.316 0.0
O207 O 0.65469 0.64907 0.31747 0.0
C208 C 0.79879 0.68474 0.2699 0.0
C209 C 0.82392 0.72409 0.27539 0.0
H210 H 0.86208 0.80061 0.28878 0.0
H211 H 0.8316 0.82996 0.30986 0.0
H212 H 0.67311 0.57606 0.27478 0.0
H213 H 0.74159 0.60949 0.26215 0.0
H214 H 0.81019 0.67009 0.26077 0.0
H215 H 0.85442 0.73961 0.27031 0.0
Mn216 Mn 0.24702 0.08833 0.56548 0.0
Mn217 Mn 0.30618 0.19445 0.56185 0.0
C218 C 0.24807 0.12709 0.5456 0.0
C219 C 0.1763 0.04482 0.57048 0.0
C220 C 0.35787 0.09763 0.56472 0.0
O221 O 0.25305 0.11365 0.58391 0.0
O222 O 0.28831 0.18632 0.58021 0.0
C223 C 0.22804 0.26399 0.56811 0.0
N224 N 0.26166 0.24677 0.55968 0.0
C225 C 0.24087 0.30759 0.54407 0.0
C226 C 0.20615 0.32611 0.55259 0.0
C227 C 0.19968 0.30415 0.56466 0.0
C228 C 0.26835 0.26774 0.54808 0.0
H229 H 0.22285 0.24714 0.57737 0.0
C230 C 0.26921 0.15472 0.58768 0.0
O231 O 0.21896 0.02538 0.57137 0.0
O232 O 0.17473 0.08978 0.5669 0.0
N233 N 0.32444 0.20636 0.54441 0.0
C234 C 0.35648 0.18155 0.53693 0.0
C235 C 0.36576 0.1976 0.52437 0.0
C236 C 0.34211 0.23896 0.51966 0.0
C237 C 0.30896 0.26365 0.52749 0.0
C238 C 0.30152 0.24624 0.53997 0.0
H239 H 0.37472 0.14971 0.54051 0.0
O240 O 0.24079 0.08068 0.54628 0.0
O241 O 0.25598 0.14861 0.55649 0.0
O242 O 0.32005 0.071 0.56495 0.0
O243 O 0.35584 0.14368 0.56382 0.0
C244 C 0.28237 0.30428 0.52335 0.0
C245 C 0.24836 0.32625 0.53162 0.0
H246 H 0.18391 0.35682 0.54992 0.0
H247 H 0.17279 0.31809 0.57126 0.0
H248 H 0.39107 0.17815 0.51833 0.0
H249 H 0.3495 0.25113 0.50998 0.0
H250 H 0.28724 0.3185 0.51376 0.0
H251 H 0.22758 0.35697 0.52823 0.0
Mn252 Mn 0.89871 0.75065 0.81678 0.0
Mn253 Mn 0.81659 0.83832 0.81074 0.0
C254 C 0.86447 0.75909 0.79641 0.0
C255 C 0.91858 0.67067 0.82257 0.0
C256 C 0.92361 0.85908 0.81404 0.0
O257 O 0.87447 0.76836 0.83487 0.0
O258 O 0.81814 0.8243 0.82939 0.0
C259 C 0.72685 0.78577 0.8176 0.0
N260 N 0.75377 0.81046 0.80881 0.0
C261 C 0.69025 0.80536 0.79306 0.0
C262 C 0.66174 0.78 0.80195 0.0
C263 C 0.68022 0.76998 0.81425 0.0
C264 C 0.73654 0.81989 0.79691 0.0
H265 H 0.74086 0.77823 0.82708 0.0
C266 C 0.84073 0.79846 0.83769 0.0
O267 O 0.94995 0.70551 0.82341 0.0
O268 O 0.87537 0.68265 0.81891 0.0
N269 N 0.8119 0.85422 0.7929 0.0
C270 C 0.84529 0.87597 0.78518 0.0
C271 C 0.83313 0.88711 0.77242 0.0
C272 C 0.78665 0.87632 0.76779 0.0
C273 C 0.75302 0.8538 0.77592 0.0
C274 C 0.76729 0.8432 0.7885 0.0
H275 H 0.88092 0.88476 0.78873 0.0
O276 O 0.90634 0.73841 0.79777 0.0
O277 O 0.84519 0.77539 0.8069 0.0
O278 O 0.93681 0.81502 0.81557 0.0
O279 O 0.8796 0.87132 0.8123 0.0
C280 C 0.7059 0.84146 0.77204 0.0
C281 C 0.67467 0.81671 0.78052 0.0
H282 H 0.62571 0.76787 0.79942 0.0
H283 H 0.65849 0.75031 0.82116 0.0
H284 H 0.8594 0.90423 0.76618 0.0
H285 H 0.77729 0.88521 0.75796 0.0
H286 H 0.69338 0.85121 0.76257 0.0
H287 H 0.63878 0.80666 0.77731 0.0
Mn288 Mn 0.75723 0.60265 0.69482 0.0
Mn289 Mn 0.68803 0.70151 0.69802 0.0
C290 C 0.74456 0.63485 0.71514 0.0
C291 C 0.83442 0.57259 0.69007 0.0
C292 C 0.64871 0.60114 0.69149 0.0
O293 O 0.75049 0.63028 0.6767 0.0
O294 O 0.71999 0.70452 0.68089 0.0
C295 C 0.76116 0.77972 0.69866 0.0
N296 N 0.72414 0.75536 0.70438 0.0
C297 C 0.72541 0.80896 0.72261 0.0
C298 C 0.76329 0.83492 0.71687 0.0
C299 C 0.78146 0.82002 0.70488 0.0
C300 C 0.70691 0.76892 0.716 0.0
H301 H 0.77497 0.76851 0.6894 0.0
C302 C 0.73875 0.67323 0.67326 0.0
O303 O 0.79617 0.54589 0.68846 0.0
O304 O 0.82775 0.61596 0.69446 0.0
N305 N 0.65552 0.70251 0.71426 0.0
C306 C 0.61945 0.67308 0.71861 0.0
C307 C 0.59809 0.68238 0.73061 0.0
C308 C 0.61359 0.72214 0.73794 0.0
C309 C 0.65034 0.7522 0.73319 0.0
C310 C 0.6704 0.7411 0.72119 0.0
H311 H 0.60689 0.64279 0.71299 0.0
O312 O 0.76027 0.59077 0.71387 0.0
O313 O 0.73797 0.65834 0.7045 0.0
O314 O 0.68717 0.57704 0.69392 0.0
O315 O 0.64714 0.64748 0.69174 0.0
C316 C 0.66773 0.7928 0.73989 0.0
C317 C 0.7053 0.82118 0.73463 0.0
H318 H 0.77895 0.86609 0.72163 0.0
H319 H 0.81088 0.8397 0.70043 0.0
H320 H 0.56964 0.65906 0.73418 0.0
H321 H 0.59705 0.72923 0.74719 0.0
H322 H 0.65208 0.80236 0.74907 0.0
H323 H 0.71852 0.85231 0.73989 0.0
Mn324 Mn 0.41 0.28791 0.9405 0.0
Mn325 Mn 0.31435 0.21327 0.94458 0.0
C326 C 0.37473 0.27865 0.9606 0.0
C327 C 0.44748 0.36225 0.93589 0.0
C328 C 0.41616 0.17605 0.94103 0.0
O329 O 0.38277 0.28221 0.92235 0.0
O330 O 0.32082 0.23058 0.9261 0.0
C331 C 0.23679 0.28259 0.93761 0.0
N332 N 0.25721 0.25181 0.9463 0.0
C333 C 0.19444 0.26823 0.96172 0.0
C334 C 0.17263 0.29989 0.95293 0.0
C335 C 0.19396 0.30715 0.94083 0.0
C336 C 0.23701 0.24459 0.95797 0.0
H337 H 0.25305 0.28849 0.92831 0.0
C338 C 0.3463 0.25737 0.91864 0.0
O339 O 0.46917 0.32109 0.93429 0.0
O340 O 0.40307 0.36057 0.94 0.0
N341 N 0.30349 0.19512 0.96208 0.0
C342 C 0.33055 0.16561 0.96973 0.0
C343 C 0.31456 0.1552 0.98224 0.0
C344 C 0.27094 0.17513 0.98673 0.0
C345 C 0.24396 0.20579 0.97873 0.0
C346 C 0.2614 0.2144 0.96631 0.0
H347 H 0.36407 0.15015 0.96631 0.0
O348 O 0.41984 0.29143 0.95962 0.0
O349 O 0.35261 0.26999 0.94985 0.0
O350 O 0.4347 0.21804 0.93984 0.0
O351 O 0.37116 0.1694 0.94313 0.0
C352 C 0.20069 0.22851 0.98261 0.0
C353 C 0.17605 0.25983 0.97415 0.0
H354 H 0.13971 0.31909 0.9554 0.0
H355 H 0.17748 0.33169 0.934 0.0
H356 H 0.33575 0.13182 0.9884 0.0
H357 H 0.25867 0.16673 0.99634 0.0
H358 H 0.18616 0.22258 0.9921 0.0
H359 H 0.14318 0.27756 0.97733 0.0
Mn360 Mn 0.73931 0.89876 0.19261 0.0
Mn361 Mn 0.82702 0.81509 0.19629 0.0
C362 C 0.75314 0.8642 0.21264 0.0
C363 C 0.65859 0.91874 0.18806 0.0
C364 C 0.84767 0.92213 0.19235 0.0
O365 O 0.75116 0.87448 0.17433 0.0
O366 O 0.80436 0.81379 0.17813 0.0
C367 C 0.77278 0.72407 0.19196 0.0
N368 N 0.80042 0.75256 0.19972 0.0
C369 C 0.80181 0.69157 0.21624 0.0
C370 C 0.77336 0.66156 0.20843 0.0
C371 C 0.75867 0.67796 0.19625 0.0
C372 C 0.81466 0.73718 0.21146 0.0
H373 H 0.76158 0.73646 0.18257 0.0
C374 C 0.77637 0.83804 0.17066 0.0
O375 O 0.69313 0.95022 0.18674 0.0
O376 O 0.67108 0.87565 0.19174 0.0
N377 N 0.85024 0.8131 0.21361 0.0
C378 C 0.87419 0.84794 0.22037 0.0
C379 C 0.88957 0.83813 0.23296 0.0
C380 C 0.88061 0.79251 0.23842 0.0
C381 C 0.85582 0.75734 0.23127 0.0
C382 C 0.84093 0.76931 0.21883 0.0
H383 H 0.88141 0.88301 0.21621 0.0
O384 O 0.73268 0.90642 0.21173 0.0
O385 O 0.76621 0.84479 0.20182 0.0
O386 O 0.80369 0.93633 0.19255 0.0
O387 O 0.85961 0.87762 0.19313 0.0
C388 C 0.8451 0.71094 0.23606 0.0
C389 C 0.81767 0.67819 0.22862 0.0
H390 H 0.7624 0.62598 0.21171 0.0
H391 H 0.73663 0.65504 0.19018 0.0
H392 H 0.90846 0.8656 0.23842 0.0
H393 H 0.89255 0.78502 0.24814 0.0
H394 H 0.85809 0.70021 0.24542 0.0
H395 H 0.80892 0.6429 0.23252 0.0
Mn396 Mn 0.10108 0.24274 0.4423 0.0
Mn397 Mn 0.20713 0.30087 0.44637 0.0
C398 C 0.13413 0.2494 0.46273 0.0
C399 C 0.05805 0.17172 0.43744 0.0
C400 C 0.11159 0.35302 0.44139 0.0
O401 O 0.12908 0.2467 0.42416 0.0
O402 O 0.2032 0.27689 0.42836 0.0
C403 C 0.27614 0.21971 0.4432 0.0
N404 N 0.25779 0.25644 0.45046 0.0
C405 C 0.31911 0.2453 0.46658 0.0
C406 C 0.3388 0.2074 0.45927 0.0
C407 C 0.31694 0.19427 0.44759 0.0
C408 C 0.27774 0.26851 0.46187 0.0
H409 H 0.25998 0.21019 0.43409 0.0
C410 C 0.17173 0.25898 0.42067 0.0
O411 O 0.03931 0.21441 0.4358 0.0
O412 O 0.10219 0.17025 0.44167 0.0
N413 N 0.21605 0.32561 0.46337 0.0
C414 C 0.19182 0.36212 0.46941 0.0
C415 C 0.20796 0.37841 0.48145 0.0
C416 C 0.24947 0.35784 0.487 0.0
C417 C 0.27407 0.32065 0.48054 0.0
C418 C 0.25569 0.3052 0.4687 0.0
H419 H 0.16052 0.3788 0.46506 0.0
O420 O 0.0884 0.24036 0.46121 0.0
O421 O 0.15935 0.25338 0.45223 0.0
O422 O 0.08446 0.31562 0.44184 0.0
O423 O 0.15762 0.35064 0.44242 0.0
C424 C 0.31663 0.29894 0.48525 0.0
C425 C 0.33912 0.26126 0.47829 0.0
H426 H 0.37063 0.18811 0.46255 0.0
H427 H 0.33189 0.16504 0.4419 0.0
H428 H 0.18886 0.40723 0.48636 0.0
H429 H 0.26227 0.37119 0.49618 0.0
H430 H 0.33261 0.31121 0.49416 0.0
H431 H 0.37157 0.24454 0.48209 0.0
Mn432 Mn 0.76984 0.8842 0.5668 0.0
Mn433 Mn 0.68606 0.80031 0.55957 0.0
C434 C 0.76035 0.85617 0.54561 0.0
C435 C 0.84956 0.90421 0.57258 0.0
C436 C 0.66067 0.90479 0.56589 0.0
O437 O 0.75504 0.85323 0.58449 0.0
O438 O 0.70572 0.79329 0.5777 0.0
C439 C 0.75054 0.71496 0.56171 0.0
N440 N 0.71782 0.74143 0.5549 0.0
C441 C 0.7229 0.68654 0.53703 0.0
C442 C 0.75487 0.65743 0.54408 0.0
C443 C 0.76928 0.67209 0.55642 0.0
C444 C 0.70556 0.72893 0.54279 0.0
H445 H 0.76319 0.72715 0.57095 0.0
C446 C 0.73064 0.81435 0.58644 0.0
O447 O 0.81412 0.93443 0.57433 0.0
O448 O 0.83841 0.8621 0.56796 0.0
N449 N 0.66516 0.80289 0.54208 0.0
C450 C 0.63826 0.8375 0.53606 0.0
C451 C 0.62304 0.82988 0.52335 0.0
C452 C 0.63527 0.78664 0.51702 0.0
C453 C 0.66332 0.75181 0.52339 0.0
C454 C 0.67735 0.76131 0.53604 0.0
H455 H 0.62818 0.87051 0.54094 0.0
O456 O 0.78014 0.89796 0.54781 0.0
O457 O 0.74586 0.83386 0.5558 0.0
O458 O 0.70431 0.91981 0.56678 0.0
O459 O 0.64998 0.8604 0.56386 0.0
C460 C 0.67801 0.70805 0.51769 0.0
C461 C 0.70829 0.67568 0.52441 0.0
H462 H 0.7695 0.62443 0.53999 0.0
H463 H 0.79509 0.65065 0.56179 0.0
H464 H 0.60166 0.8571 0.51847 0.0
H465 H 0.62333 0.78077 0.50722 0.0
H466 H 0.66623 0.69923 0.50813 0.0
H467 H 0.72036 0.64263 0.51982 0.0
Mn468 Mn 0.1044 0.27276 0.81517 0.0
Mn469 Mn 0.21166 0.21558 0.81155 0.0
C470 C 0.14275 0.27117 0.79524 0.0
C471 C 0.05981 0.34322 0.82 0.0
C472 C 0.1162 0.16177 0.81423 0.0
O473 O 0.12981 0.26797 0.8336 0.0
O474 O 0.20235 0.23267 0.82988 0.0
C475 C 0.2776 0.29638 0.81811 0.0
N476 N 0.26232 0.26207 0.80962 0.0
C477 C 0.32282 0.28562 0.79421 0.0
C478 C 0.33939 0.32104 0.80281 0.0
C479 C 0.31659 0.32649 0.8148 0.0
C480 C 0.28395 0.25653 0.79806 0.0
H481 H 0.2601 0.3008 0.82732 0.0
C482 C 0.17081 0.25173 0.83735 0.0
O483 O 0.04101 0.30029 0.82103 0.0
O484 O 0.10464 0.34516 0.81637 0.0
N485 N 0.22524 0.19793 0.79415 0.0
C486 C 0.20283 0.16425 0.78666 0.0
C487 C 0.22058 0.155 0.77426 0.0
C488 C 0.26116 0.18034 0.76973 0.0
C489 C 0.28329 0.21522 0.77756 0.0
C490 C 0.26439 0.22245 0.78988 0.0
H491 H 0.17173 0.14454 0.79013 0.0
O492 O 0.09632 0.27795 0.79597 0.0
O493 O 0.16465 0.26448 0.80612 0.0
O494 O 0.08891 0.1992 0.81479 0.0
O495 O 0.16216 0.16455 0.81322 0.0
C496 C 0.32299 0.24347 0.77358 0.0
C497 C 0.34267 0.27873 0.78187 0.0
H498 H 0.36927 0.34452 0.80027 0.0
H499 H 0.32901 0.35389 0.82147 0.0
H500 H 0.20312 0.12831 0.76822 0.0
H501 H 0.27482 0.17276 0.7602 0.0
H502 H 0.33835 0.23885 0.76412 0.0
H503 H 0.37272 0.3007 0.77861 0.0
Mn504 Mn 0.75764 0.60821 0.06509 0.0
Mn505 Mn 0.83196 0.70358 0.06209 0.0
C506 C 0.76763 0.64542 0.04511 0.0
C507 C 0.67962 0.57995 0.06962 0.0
C508 C 0.86679 0.6007 0.06727 0.0
O509 O 0.76542 0.63384 0.08352 0.0
O510 O 0.8043 0.7047 0.07967 0.0
C511 C 0.76451 0.7866 0.06395 0.0
N512 N 0.79786 0.7608 0.05715 0.0
C513 C 0.7926 0.81592 0.0393 0.0
C514 C 0.75823 0.84316 0.04611 0.0
C515 C 0.74409 0.82838 0.05848 0.0
C516 C 0.81183 0.77474 0.04526 0.0
H517 H 0.75343 0.77523 0.07344 0.0
C518 C 0.78195 0.67511 0.08708 0.0
O519 O 0.71705 0.55179 0.07082 0.0
O520 O 0.68761 0.62393 0.06587 0.0
N521 N 0.85939 0.70514 0.04522 0.0
C522 C 0.89015 0.67292 0.03956 0.0
C523 C 0.90644 0.68144 0.02698 0.0
C524 C 0.8911 0.72302 0.02038 0.0
C525 C 0.85934 0.75551 0.02641 0.0
C526 C 0.84435 0.74521 0.03895 0.0
H527 H 0.90213 0.64089 0.04457 0.0
O528 O 0.75251 0.60096 0.04578 0.0
O529 O 0.77779 0.66495 0.05609 0.0
O530 O 0.82659 0.57901 0.06538 0.0
O531 O 0.87107 0.64673 0.06699 0.0
C532 C 0.8415 0.79736 0.02038 0.0
C533 C 0.80791 0.82747 0.02676 0.0
H534 H 0.74218 0.87522 0.04188 0.0
H535 H 0.71743 0.84909 0.06377 0.0
H536 H 0.93075 0.65602 0.02238 0.0
H537 H 0.90356 0.72943 0.01065 0.0
H538 H 0.85348 0.80626 0.01081 0.0
H539 H 0.79381 0.85919 0.02191 0.0
Mn540 Mn 0.39751 0.23651 0.31628 0.0
Mn541 Mn 0.31671 0.32367 0.30924 0.0
C542 C 0.37906 0.25463 0.29491 0.0
C543 C 0.41541 0.15518 0.32087 0.0
C544 C 0.41794 0.34447 0.31923 0.0
O545 O 0.36036 0.24627 0.33329 0.0
O546 O 0.29998 0.2946 0.32611 0.0
C547 C 0.22752 0.26539 0.30598 0.0
N548 N 0.25998 0.29794 0.30129 0.0
C549 C 0.21187 0.31112 0.28235 0.0
C550 C 0.17706 0.27896 0.28718 0.0
C551 C 0.18533 0.25536 0.29895 0.0
C552 C 0.25346 0.31908 0.28971 0.0
H553 H 0.23396 0.24716 0.31497 0.0
C554 C 0.31958 0.26785 0.33475 0.0
O555 O 0.44458 0.18987 0.32415 0.0
O556 O 0.37529 0.16778 0.31534 0.0
N557 N 0.32911 0.35373 0.29299 0.0
C558 C 0.3676 0.38133 0.28932 0.0
C559 C 0.36666 0.40491 0.27737 0.0
C560 C 0.32582 0.40063 0.26944 0.0
C561 C 0.28668 0.37211 0.27345 0.0
C562 C 0.29007 0.34865 0.28532 0.0
H563 H 0.39878 0.3855 0.29543 0.0
O564 O 0.41915 0.23268 0.29778 0.0
O565 O 0.3515 0.26499 0.30457 0.0
O566 O 0.43353 0.301 0.31871 0.0
O567 O 0.37395 0.35561 0.31694 0.0
C568 C 0.24419 0.36655 0.26619 0.0
C569 C 0.2069 0.33575 0.27057 0.0
H570 H 0.14432 0.27143 0.28182 0.0
H571 H 0.15912 0.22974 0.30262 0.0
H572 H 0.39708 0.42682 0.27435 0.0
H573 H 0.32494 0.41932 0.26028 0.0
H574 H 0.23995 0.38621 0.25727 0.0
H575 H 0.17458 0.33121 0.26481 0.0
H576 H 0.18631 0.28619 0.10178 0.0
H577 H 0.33784 0.32639 0.10008 0.0
H578 H 0.35293 0.28132 0.12025 0.0
H579 H 0.17526 0.30055 0.13622 0.0
H580 H 0.13339 0.25091 0.13789 0.0
H581 H 0.13561 0.28476 0.12311 0.0
H582 H 0.15041 0.20494 0.11057 0.0
H583 H 0.14928 0.17098 0.12536 0.0
H584 H 0.20099 0.16696 0.11485 0.0
H585 H 0.35197 0.22873 0.14006 0.0
H586 H 0.33239 0.18582 0.16032 0.0
H587 H 0.18055 0.18595 0.15007 0.0
C588 C 0.22258 0.28568 0.10572 0.0
C589 C 0.261 0.30958 0.09941 0.0
C590 C 0.3079 0.30859 0.10486 0.0
C591 C 0.31687 0.28266 0.11621 0.0
C592 C 0.27838 0.25864 0.12207 0.0
C593 C 0.23193 0.26097 0.1172 0.0
C594 C 0.19635 0.2347 0.12581 0.0
C595 C 0.1579 0.26983 0.13107 0.0
C596 C 0.17289 0.19186 0.11872 0.0
C597 C 0.23002 0.21727 0.13631 0.0
C598 C 0.27738 0.23044 0.13381 0.0
C599 C 0.31505 0.21824 0.14211 0.0
C600 C 0.30375 0.19347 0.1535 0.0
C601 C 0.25523 0.18201 0.15652 0.0
C602 C 0.21802 0.19355 0.14777 0.0
H603 H 0.85431 0.74947 0.39636 0.0
H604 H 0.72651 0.72304 0.41968 0.0
H605 H 0.67488 0.73421 0.40094 0.0
H606 H 0.79959 0.83608 0.37346 0.0
H607 H 0.8295 0.8103 0.35966 0.0
H608 H 0.85782 0.80739 0.37525 0.0
H609 H 0.86456 0.71409 0.37325 0.0
H610 H 0.83652 0.71681 0.35764 0.0
H611 H 0.8109 0.67902 0.37003 0.0
H612 H 0.63575 0.7459 0.38008 0.0
H613 H 0.61209 0.74546 0.35726 0.0
H614 H 0.76344 0.75565 0.34626 0.0
C615 C 0.81545 0.7469 0.39751 0.0
C616 C 0.79466 0.73679 0.40965 0.0
C617 C 0.74364 0.732 0.41065 0.0
C618 C 0.71367 0.73831 0.40001 0.0
C619 C 0.73496 0.74822 0.38824 0.0
C620 C 0.78462 0.75151 0.38678 0.0
C621 C 0.79767 0.75674 0.37265 0.0
C622 C 0.82262 0.80554 0.37011 0.0
C623 C 0.82927 0.71412 0.36813 0.0
C624 C 0.74766 0.75514 0.36656 0.0
C625 C 0.71211 0.75147 0.37581 0.0
C626 C 0.66316 0.74883 0.37269 0.0
C627 C 0.65004 0.74879 0.3597 0.0
C628 C 0.68581 0.75037 0.34997 0.0
C629 C 0.73525 0.75431 0.35349 0.0
H630 H 0.33472 0.19351 0.60438 0.0
H631 H 0.18385 0.15345 0.60059 0.0
H632 H 0.16544 0.19513 0.62112 0.0
H633 H 0.33914 0.1768 0.63983 0.0
H634 H 0.38074 0.22644 0.6419 0.0
H635 H 0.38168 0.19145 0.62728 0.0
H636 H 0.37027 0.27036 0.61414 0.0
H637 H 0.36813 0.30546 0.62872 0.0
H638 H 0.31891 0.30877 0.61739 0.0
H639 H 0.16227 0.25043 0.64049 0.0
H640 H 0.17687 0.30077 0.65983 0.0
H641 H 0.33102 0.29734 0.65224 0.0
C642 C 0.29811 0.19249 0.60809 0.0
C643 C 0.26067 0.17006 0.60104 0.0
C644 C 0.21305 0.16976 0.60602 0.0
C645 C 0.20224 0.19376 0.61758 0.0
C646 C 0.23974 0.21681 0.62413 0.0
C647 C 0.28699 0.215 0.61979 0.0
C648 C 0.32074 0.24191 0.62878 0.0
C649 C 0.35776 0.20707 0.6348 0.0
C650 C 0.34598 0.28412 0.62184 0.0
C651 C 0.28495 0.2602 0.63869 0.0
C652 C 0.23829 0.24604 0.63571 0.0
C653 C 0.19872 0.26101 0.64303 0.0
C654 C 0.20725 0.28998 0.65389 0.0
C655 C 0.25496 0.3028 0.65743 0.0
C656 C 0.29421 0.28786 0.6497 0.0
H657 H 0.81805 0.72911 0.85596 0.0
H658 H 0.82616 0.88404 0.84935 0.0
H659 H 0.7861 0.89911 0.87011 0.0
H660 H 0.70122 0.7295 0.86995 0.0
H661 H 0.71323 0.68388 0.88193 0.0
H662 H 0.74668 0.6839 0.86706 0.0
H663 H 0.82756 0.6874 0.87957 0.0
H664 H 0.79441 0.68631 0.89449 0.0
H665 H 0.83682 0.73444 0.89134 0.0
H666 H 0.74158 0.89856 0.89043 0.0
H667 H 0.70097 0.88257 0.91108 0.0
H668 H 0.71867 0.728 0.9053 0.0
C669 C 0.81263 0.76609 0.85913 0.0
C670 C 0.82566 0.80555 0.85117 0.0
C671 C 0.81675 0.85346 0.85539 0.0
C672 C 0.79381 0.86236 0.86712 0.0
C673 C 0.77972 0.82293 0.87454 0.0
C674 C 0.78922 0.77572 0.87089 0.0
C675 C 0.76864 0.74032 0.88068 0.0
C676 C 0.73016 0.70746 0.87453 0.0
C677 C 0.80928 0.71035 0.88689 0.0
C678 C 0.74597 0.77516 0.89029 0.0
C679 C 0.75287 0.82258 0.88643 0.0
C680 C 0.73597 0.86165 0.89359 0.0
C681 C 0.7127 0.85223 0.90524 0.0
C682 C 0.70619 0.8042 0.90962 0.0
C683 C 0.72233 0.76499 0.90198 0.0
H684 H 0.74653 0.84904 0.61147 0.0
H685 H 0.72175 0.7175 0.58944 0.0
H686 H 0.7304 0.66895 0.60877 0.0
H687 H 0.82979 0.7979 0.63557 0.0
H688 H 0.80271 0.82964 0.6489 0.0
H689 H 0.80117 0.85581 0.63303 0.0
H690 H 0.70783 0.86251 0.63437 0.0
H691 H 0.70915 0.83658 0.65025 0.0
H692 H 0.67262 0.80916 0.63789 0.0
H693 H 0.74109 0.6329 0.62988 0.0
H694 H 0.74042 0.61189 0.65285 0.0
H695 H 0.74825 0.76469 0.66268 0.0
C696 C 0.74366 0.81002 0.61074 0.0
C697 C 0.73505 0.78731 0.59874 0.0
C698 C 0.7298 0.73616 0.59832 0.0
C699 C 0.73459 0.70787 0.60931 0.0
C700 C 0.74324 0.73097 0.6209 0.0
C701 C 0.74659 0.78083 0.62186 0.0
C702 C 0.7505 0.79583 0.63589 0.0
C703 C 0.79893 0.82131 0.6385 0.0
C704 C 0.70746 0.82791 0.63983 0.0
C705 C 0.74843 0.7466 0.64248 0.0
C706 C 0.74547 0.70986 0.63354 0.0
C707 C 0.74329 0.66125 0.63705 0.0
C708 C 0.74312 0.64966 0.65012 0.0
C709 C 0.74412 0.68654 0.65956 0.0
C710 C 0.74727 0.73571 0.65566 0.0
H711 H 0.31349 0.18928 0.90165 0.0
H712 H 0.33205 0.3439 0.90691 0.0
H713 H 0.2827 0.35927 0.88748 0.0
H714 H 0.32249 0.19323 0.86629 0.0
H715 H 0.27928 0.14494 0.86428 0.0
H716 H 0.31664 0.14704 0.87844 0.0
H717 H 0.23937 0.14445 0.89256 0.0
H718 H 0.20173 0.14385 0.87843 0.0
H719 H 0.19342 0.19014 0.89046 0.0
H720 H 0.22442 0.35753 0.86878 0.0
H721 H 0.17779 0.33904 0.84904 0.0
H722 H 0.20398 0.18584 0.85476 0.0
C723 C 0.30806 0.22628 0.8985 0.0
C724 C 0.32674 0.26547 0.90566 0.0
C725 C 0.31869 0.31345 0.90138 0.0
C726 C 0.29018 0.3225 0.89048 0.0
C727 C 0.27089 0.28308 0.88386 0.0
C728 C 0.28085 0.2359 0.88744 0.0
C729 C 0.25759 0.20004 0.87832 0.0
C730 C 0.2963 0.16953 0.87142 0.0
C731 C 0.22085 0.16772 0.88537 0.0
C732 C 0.23249 0.2344 0.86914 0.0
C733 C 0.23965 0.28213 0.87268 0.0
C734 C 0.21892 0.32033 0.86585 0.0
C735 C 0.19196 0.30953 0.85478 0.0
C736 C 0.18692 0.2611 0.85057 0.0
C737 C 0.20682 0.2231 0.85794 0.0
H738 H 0.84176 0.68382 0.10785 0.0
H739 H 0.69577 0.71106 0.09459 0.0
H740 H 0.67862 0.7577 0.11443 0.0
H741 H 0.80852 0.66973 0.14231 0.0
H742 H 0.86368 0.69789 0.14773 0.0
H743 H 0.86292 0.66457 0.13283 0.0
H744 H 0.89609 0.74015 0.12099 0.0
H745 H 0.89594 0.77403 0.13578 0.0
H746 H 0.86343 0.79659 0.12201 0.0
H747 H 0.68059 0.80837 0.13456 0.0
H748 H 0.69655 0.84848 0.15537 0.0
H749 H 0.83977 0.78389 0.15626 0.0
C750 C 0.80583 0.69846 0.10937 0.0
C751 C 0.76965 0.69338 0.09992 0.0
C752 C 0.72339 0.71386 0.10194 0.0
C753 C 0.71357 0.74071 0.11309 0.0
C754 C 0.75031 0.74611 0.12216 0.0
C755 C 0.79513 0.72454 0.12059 0.0
C756 C 0.82816 0.7358 0.13182 0.0
C757 C 0.8416 0.68923 0.13911 0.0
C758 C 0.87358 0.76328 0.12738 0.0
C759 C 0.79533 0.76795 0.13979 0.0
C760 C 0.75078 0.77386 0.13398 0.0
C761 C 0.71512 0.80349 0.13929 0.0
C762 C 0.7247 0.82652 0.15105 0.0
C763 C 0.76937 0.81931 0.15745 0.0
C764 C 0.8052 0.78997 0.15163 0.0
H765 H 0.26349 0.25764 0.4103 0.0
H766 H 0.11147 0.24835 0.39999 0.0
H767 H 0.13403 0.24467 0.37708 0.0
H768 H 0.30049 0.33291 0.38477 0.0
H769 H 0.35785 0.30337 0.38217 0.0
H770 H 0.33037 0.30234 0.39786 0.0
H771 H 0.33422 0.20862 0.39801 0.0
H772 H 0.36191 0.20933 0.38231 0.0
H773 H 0.30733 0.17505 0.38498 0.0
H774 H 0.17157 0.25091 0.35555 0.0
H775 H 0.22206 0.26017 0.33635 0.0
H776 H 0.3514 0.25955 0.35998 0.0
C777 C 0.23493 0.2544 0.40323 0.0
C778 C 0.18558 0.25346 0.40697 0.0
C779 C 0.14942 0.24896 0.3974 0.0
C780 C 0.1619 0.24691 0.38435 0.0
C781 C 0.21073 0.24859 0.38102 0.0
C782 C 0.24679 0.25158 0.39015 0.0
C783 C 0.29645 0.25363 0.38388 0.0
C784 C 0.32283 0.30087 0.38738 0.0
C785 C 0.32677 0.20899 0.38751 0.0
C786 C 0.28252 0.25265 0.36976 0.0
C787 C 0.2328 0.24985 0.36842 0.0
C788 C 0.21056 0.25208 0.35646 0.0
C789 C 0.23972 0.25743 0.34558 0.0
C790 C 0.29082 0.25975 0.3466 0.0
C791 C 0.31254 0.25676 0.35888 0.0
H792 H 0.23152 0.13531 0.23753 0.0
H793 H 0.32534 0.21421 0.21158 0.0
H794 H 0.36015 0.25903 0.22989 0.0
H795 H 0.21134 0.23543 0.26101 0.0
H796 H 0.21271 0.19391 0.2744 0.0
H797 H 0.19164 0.17376 0.25891 0.0
H798 H 0.25534 0.10445 0.25983 0.0
H799 H 0.27694 0.12626 0.27508 0.0
H800 H 0.31838 0.11952 0.26181 0.0
H801 H 0.39268 0.28691 0.25106 0.0
H802 H 0.41834 0.29769 0.27373 0.0
H803 H 0.30089 0.20524 0.2862 0.0
C804 C 0.25862 0.16282 0.23575 0.0
C805 C 0.27462 0.17265 0.22313 0.0
C806 C 0.3114 0.20751 0.22115 0.0
C807 C 0.33153 0.23299 0.23149 0.0
C808 C 0.31476 0.22298 0.24383 0.0
C809 C 0.27903 0.18885 0.24602 0.0
C810 C 0.27019 0.18247 0.2603 0.0
C811 C 0.21836 0.19732 0.26387 0.0
C812 C 0.28087 0.13007 0.26449 0.0
C813 C 0.30709 0.21758 0.26578 0.0
C814 C 0.33253 0.24052 0.2561 0.0
C815 C 0.37217 0.27026 0.25874 0.0
C816 C 0.38657 0.27619 0.2716 0.0
C817 C 0.36061 0.25357 0.28162 0.0
C818 C 0.3201 0.2244 0.27868 0.0
H819 H 0.8031 0.80308 0.47078 0.0
H820 H 0.91205 0.70022 0.48296 0.0
H821 H 0.88446 0.70897 0.50553 0.0
H822 H 0.82544 0.88326 0.49599 0.0
H823 H 0.7638 0.90351 0.49783 0.0
H824 H 0.78457 0.88169 0.48249 0.0
H825 H 0.71572 0.81827 0.48207 0.0
H826 H 0.6944 0.84022 0.49738 0.0
H827 H 0.70892 0.77696 0.49535 0.0
H828 H 0.84933 0.73297 0.52668 0.0
H829 H 0.8172 0.77747 0.54538 0.0
H830 H 0.73744 0.87294 0.52 0.0
C831 C 0.82001 0.78141 0.47821 0.0
C832 C 0.85834 0.74948 0.4752 0.0
C833 C 0.88166 0.72365 0.48513 0.0
C834 C 0.86612 0.72838 0.49792 0.0
C835 C 0.82839 0.76048 0.50064 0.0
C836 C 0.80621 0.78725 0.49109 0.0
C837 C 0.77197 0.82465 0.49678 0.0
C838 C 0.78739 0.87632 0.49305 0.0
C839 C 0.71961 0.8144 0.49265 0.0
C840 C 0.77908 0.81548 0.51104 0.0
C841 C 0.81073 0.77729 0.51299 0.0
C842 C 0.82431 0.76265 0.52526 0.0
C843 C 0.80582 0.78809 0.53582 0.0
C844 C 0.7745 0.82814 0.5341 0.0
C845 C 0.76092 0.84209 0.52155 0.0
H846 H 0.19877 0.3044 0.72021 0.0
H847 H 0.30147 0.41502 0.73139 0.0
H848 H 0.28918 0.39368 0.75429 0.0
H849 H 0.11645 0.3335 0.7448 0.0
H850 H 0.09541 0.2725 0.7474 0.0
H851 H 0.1182 0.29003 0.73187 0.0
H852 H 0.18036 0.22025 0.73259 0.0
H853 H 0.1579 0.20215 0.74815 0.0
H854 H 0.22104 0.21579 0.74605 0.0
H855 H 0.25925 0.36746 0.77571 0.0
H856 H 0.21463 0.33701 0.79458 0.0
H857 H 0.12807 0.24501 0.76992 0.0
C858 C 0.21981 0.32283 0.72751 0.0
C859 C 0.25238 0.36016 0.72413 0.0
C860 C 0.27737 0.38553 0.73386 0.0
C861 C 0.27055 0.37364 0.74685 0.0
C862 C 0.23748 0.33728 0.74992 0.0
C863 C 0.21225 0.31236 0.74055 0.0
C864 C 0.17432 0.27944 0.7465 0.0
C865 C 0.12307 0.29481 0.74239 0.0
C866 C 0.18396 0.22621 0.74311 0.0
C867 C 0.18266 0.28919 0.76067 0.0
C868 C 0.21926 0.32274 0.76239 0.0
C869 C 0.23138 0.34032 0.7745 0.0
C870 C 0.20603 0.32265 0.78517 0.0
C871 C 0.16955 0.28716 0.78372 0.0
C872 C 0.15701 0.27093 0.77129 0.0
H873 H 0.78996 0.63565 0.01925 0.0
H874 H 0.70771 0.72189 0.04637 0.0
H875 H 0.67528 0.77112 0.02861 0.0
H876 H 0.8175 0.73513 0.99659 0.0
H877 H 0.80986 0.69802 0.98246 0.0
H878 H 0.83078 0.6714 0.99727 0.0
H879 H 0.76095 0.60955 0.99687 0.0
H880 H 0.74002 0.63482 0.98193 0.0
H881 H 0.69946 0.63073 0.99546 0.0
H882 H 0.64243 0.80287 0.00811 0.0
H883 H 0.6143 0.81785 0.98588 0.0
H884 H 0.72114 0.71665 0.9715 0.0
C885 C 0.76593 0.66558 0.02139 0.0
C886 C 0.75248 0.67609 0.03419 0.0
C887 C 0.7197 0.7144 0.03665 0.0
C888 C 0.70093 0.74245 0.02662 0.0
C889 C 0.71507 0.73169 0.01411 0.0
C890 C 0.74697 0.69437 0.01141 0.0
C891 C 0.75348 0.68864 0.997 0.0
C892 C 0.80604 0.69894 0.99308 0.0
C893 C 0.73751 0.63793 0.99256 0.0
C894 C 0.71933 0.72764 0.99206 0.0
C895 C 0.69752 0.75194 1.00213 0.0
C896 C 0.66027 0.78524 1.00012 0.0
C897 C 0.64445 0.79353 0.9875 0.0
C898 C 0.6668 0.7698 0.97704 0.0
C899 C 0.70499 0.73679 0.97934 0.0
H900 H 0.32339 0.31037 0.03589 0.0
H901 H 0.21095 0.41161 0.02503 0.0
H902 H 0.22172 0.38879 1.00217 0.0
H903 H 0.39984 0.34435 0.01057 0.0
H904 H 0.42591 0.28524 0.00804 0.0
H905 H 0.40331 0.30176 0.02367 0.0
H906 H 0.34701 0.22682 0.02372 0.0
H907 H 0.37003 0.20975 0.00812 0.0
H908 H 0.30606 0.21781 0.01047 0.0
H909 H 0.24936 0.36128 0.98067 0.0
H910 H 0.29478 0.33434 0.96156 0.0
H911 H 0.39449 0.25515 0.98589 0.0
C912 C 0.30003 0.32634 0.02868 0.0
C913 C 0.26493 0.36123 0.03214 0.0
C914 C 0.23693 0.38378 0.0225 0.0
C915 C 0.24282 0.37098 0.00955 0.0
C916 C 0.27813 0.33685 0.00639 0.0
C917 C 0.30675 0.31523 0.01565 0.0
C918 C 0.34682 0.28536 0.00953 0.0
C919 C 0.39692 0.30539 0.01317 0.0
C920 C 0.34223 0.23172 0.01319 0.0
C921 C 0.33608 0.29334 0.99539 0.0
C922 C 0.29594 0.32275 0.99384 0.0
C923 C 0.28028 0.33758 0.98176 0.0
C924 C 0.30617 0.32191 0.97097 0.0
C925 C 0.34703 0.2914 0.97226 0.0
C926 C 0.36258 0.27743 0.98465 0.0
H927 H 0.69379 0.81651 0.28662 0.0
H928 H 0.61711 0.68862 0.27384 0.0
H929 H 0.65113 0.69908 0.25198 0.0
H930 H 0.66228 0.88166 0.25893 0.0
H931 H 0.71672 0.91742 0.25816 0.0
H932 H 0.69569 0.89487 0.2734 0.0
H933 H 0.77836 0.85114 0.27731 0.0
H934 H 0.79874 0.87741 0.26241 0.0
H935 H 0.80265 0.81316 0.26469 0.0
H936 H 0.68728 0.72667 0.23137 0.0
H937 H 0.71474 0.77429 0.21274 0.0
H938 H 0.76345 0.88865 0.23813 0.0
C939 C 0.68565 0.78995 0.27927 0.0
C940 C 0.65476 0.75042 0.28193 0.0
C941 C 0.64206 0.71806 0.272 0.0
C942 C 0.66132 0.72371 0.25961 0.0
C943 C 0.69185 0.76298 0.25724 0.0
C944 C 0.70328 0.79614 0.26672 0.0
C945 C 0.72932 0.83977 0.2611 0.0
C946 C 0.6992 0.88615 0.26301 0.0
C947 C 0.78028 0.84562 0.26674 0.0
C948 C 0.73157 0.82547 0.24704 0.0
C949 C 0.7103 0.78074 0.24508 0.0
C950 C 0.705 0.76118 0.23284 0.0
C951 C 0.72127 0.78824 0.22231 0.0
C952 C 0.74333 0.83402 0.22405 0.0
C953 C 0.74835 0.85293 0.23659 0.0
H954 H 0.20409 0.18628 0.47092 0.0
H955 H 0.1083 0.30069 0.48378 0.0
H956 H 0.13229 0.28511 0.5063 0.0
H957 H 0.17241 0.10686 0.49579 0.0
H958 H 0.23127 0.07966 0.49771 0.0
H959 H 0.21376 0.10442 0.48239 0.0
H960 H 0.28919 0.16006 0.48234 0.0
H961 H 0.30731 0.1341 0.49748 0.0
H962 H 0.30032 0.19857 0.49605 0.0
H963 H 0.15631 0.24994 0.52722 0.0
H964 H 0.18591 0.20236 0.54565 0.0
H965 H 0.26768 0.11008 0.51989 0.0
C966 C 0.18979 0.20916 0.47848 0.0
C967 C 0.15558 0.24582 0.47567 0.0
C968 C 0.1354 0.27335 0.48578 0.0
C969 C 0.14874 0.26464 0.49857 0.0
C970 C 0.18154 0.22747 0.5011 0.0
C971 C 0.20213 0.20023 0.49138 0.0
C972 C 0.23217 0.15896 0.4969 0.0
C973 C 0.21113 0.10957 0.49296 0.0
C974 C 0.28544 0.1632 0.49293 0.0
C975 C 0.22582 0.16783 0.51121 0.0
C976 C 0.196 0.20724 0.51336 0.0
C977 C 0.18108 0.22013 0.52567 0.0
C978 C 0.19836 0.19312 0.53609 0.0
C979 C 0.23132 0.15453 0.53423 0.0
C980 C 0.24417 0.14082 0.52159 0.0
H981 H 0.81076 0.70147 0.72263 0.0
H982 H 0.68842 0.61805 0.73616 0.0
H983 H 0.69939 0.65201 0.75801 0.0
H984 H 0.88151 0.6735 0.74913 0.0
H985 H 0.91343 0.73035 0.74986 0.0
H986 H 0.88974 0.70915 0.73478 0.0
H987 H 0.84148 0.78897 0.73208 0.0
H988 H 0.86568 0.81048 0.74712 0.0
H989 H 0.80128 0.80844 0.74474 0.0
H990 H 0.72781 0.68854 0.77854 0.0
H991 H 0.7764 0.7173 0.79689 0.0
H992 H 0.88603 0.77077 0.77072 0.0
C993 C 0.78537 0.6919 0.73015 0.0
C994 C 0.74735 0.65901 0.72771 0.0
C995 C 0.71657 0.64458 0.73783 0.0
C996 C 0.72257 0.66375 0.75023 0.0
C997 C 0.7606 0.69599 0.75239 0.0
C998 C 0.79201 0.70942 0.74268 0.0
C999 C 0.83475 0.73763 0.74799 0.0
C1000 C 0.88267 0.71105 0.74528 0.0
C1001 C 0.83583 0.78946 0.74265 0.0
C1002 C 0.82278 0.73748 0.76221 0.0
C1003 C 0.77923 0.71429 0.76447 0.0
C1004 C 0.76154 0.7074 0.77686 0.0
C1005 C 0.78927 0.72405 0.78722 0.0
C1006 C 0.83419 0.74738 0.78516 0.0
C1007 C 0.85125 0.75403 0.7725 0.0
H1008 H 0.12251 0.0171 0.19394 0.0
H1009 H 0.06483 0.16185 0.18798 0.0
H1010 H 0.98251 0.12869 0.18714 0.0
H1011 H 0.0377 0.95491 0.17293 0.0
H1012 H 0.0323 0.90269 0.18322 0.0
H1013 H 0.08749 0.9374 0.18311 0.0
H1014 H 0.08065 0.94953 0.20774 0.0
H1015 H 0.02541 0.91496 0.20792 0.0
H1016 H 0.02626 0.97551 0.2144 0.0
H1017 H 0.90551 0.08074 0.18739 0.0
H1018 H 0.83963 0.0205 0.18854 0.0
H1019 H 0.94604 0.90662 0.19428 0.0
C1020 C 0.09265 0.0418 0.19238 0.0
C1021 C 0.10066 0.09224 0.19102 0.0
C1022 C 0.06016 0.12313 0.18907 0.0
C1023 C 0.01299 0.10466 0.18856 0.0
C1024 C 1.00635 0.05504 0.19001 0.0
C1025 C 0.04497 0.02393 0.19186 0.0
C1026 C 0.02742 0.97211 0.19333 0.0
C1027 C 0.04742 0.93988 0.1825 0.0
C1028 C 0.04073 0.95185 0.20664 0.0
C1029 C 0.9731 0.97916 0.19204 0.0
C1030 C 0.96175 0.02729 0.19013 0.0
C1031 C 0.91395 0.04286 0.18884 0.0
C1032 C 0.8767 0.00832 0.18952 0.0
C1033 C 0.88731 0.95863 0.19146 0.0
C1034 C 0.9364 0.94417 0.19271 0.0
H1035 H 0.01527 0.38047 0.44403 0.0
H1036 H 0.15794 0.43727 0.43512 0.0
H1037 H 0.12348 0.51901 0.43287 0.0
H1038 H 0.94753 0.45868 0.42229 0.0
H1039 H 0.89761 0.46663 0.43325 0.0
H1040 H 0.93289 0.41174 0.43369 0.0
H1041 H 0.95028 0.42555 0.45788 0.0
H1042 H 0.91508 0.48046 0.45751 0.0
H1043 H 0.97688 0.48194 0.46302 0.0
H1044 H 0.07433 0.59551 0.43202 0.0
H1045 H 0.0141 0.66135 0.43323 0.0
H1046 H 0.90298 0.55622 0.44291 0.0
C1047 C 0.03921 0.40999 0.44148 0.0
C1048 C 0.08947 0.40201 0.43971 0.0
C1049 C 0.11942 0.44205 0.43655 0.0
C1050 C 0.10015 0.48881 0.43521 0.0
C1051 C 0.05071 0.49545 0.43709 0.0
C1052 C 0.02058 0.45724 0.44019 0.0
C1053 C 0.96895 0.47482 0.44212 0.0
C1054 C 0.93473 0.45158 0.43225 0.0
C1055 C 0.95181 0.46511 0.45596 0.0
C1056 C 0.97492 0.52875 0.43965 0.0
C1057 C 0.02236 0.5398 0.43671 0.0
C1058 C 0.037 0.58726 0.43428 0.0
C1059 C 1.00241 0.6245 0.43498 0.0
C1060 C 0.95351 0.61435 0.43812 0.0
C1061 C 0.93984 0.56551 0.44038 0.0
H1062 H 0.44401 0.39488 0.69621 0.0
H1063 H 0.34953 0.49526 0.6761 0.0
H1064 H 0.41748 0.55208 0.6736 0.0
H1065 H 0.50822 0.48431 0.71386 0.0
H1066 H 0.56603 0.45424 0.71294 0.0
H1067 H 0.51107 0.4193 0.71236 0.0
H1068 H 0.53828 0.3813 0.69076 0.0
H1069 H 0.59335 0.41619 0.69128 0.0
H1070 H 0.55405 0.42024 0.6775 0.0
H1071 H 0.49315 0.60007 0.67423 0.0
H1072 H 0.5724 0.6375 0.67816 0.0
H1073 H 0.62017 0.50756 0.69798 0.0
C1074 C 0.43776 0.42849 0.69111 0.0
C1075 C 0.39119 0.44037 0.68631 0.0
C1076 C 0.38461 0.48516 0.67988 0.0
C1077 C 0.4231 0.51771 0.67837 0.0
C1078 C 0.4682 0.50519 0.68334 0.0
C1079 C 0.47588 0.46174 0.68959 0.0
C1080 C 0.52755 0.45858 0.69457 0.0
C1081 C 0.52824 0.45384 0.70931 0.0
C1082 C 0.55492 0.41658 0.68814 0.0
C1083 C 0.54742 0.50732 0.69028 0.0
C1084 C 0.51242 0.53332 0.68376 0.0
C1085 C 0.52096 0.57996 0.67925 0.0
C1086 C 0.5662 0.60096 0.68157 0.0
C1087 C 0.60278 0.57555 0.68836 0.0
C1088 C 0.59331 0.52771 0.69261 0.0
H1089 H 0.40264 0.08055 0.94906 0.0
H1090 H 0.5042 0.17508 0.92938 0.0
H1091 H 0.56017 0.10687 0.92661 0.0
H1092 H 0.49253 0.01306 0.96635 0.0
H1093 H 0.46196 0.9556 0.9651 0.0
H1094 H 0.42754 0.01103 0.96497 0.0
H1095 H 0.38877 0.98619 0.9433 0.0
H1096 H 0.42327 0.93074 0.94334 0.0
H1097 H 0.42718 0.97146 0.92984 0.0
H1098 H 0.60667 0.03147 0.92643 0.0
H1099 H 0.64418 0.95188 0.92974 0.0
H1100 H 0.51549 0.90227 0.94975 0.0
C1101 C 0.43647 0.08669 0.94407 0.0
C1102 C 0.44882 0.13347 0.93943 0.0
C1103 C 0.49378 0.13996 0.93309 0.0
C1104 C 0.52585 0.10127 0.93139 0.0
C1105 C 0.51284 0.05596 0.93611 0.0
C1106 C 0.46948 0.04822 0.94237 0.0
C1107 C 0.46615 0.99591 0.947 0.0
C1108 C 0.46179 0.99379 0.96173 0.0
C1109 C 0.42382 0.96952 0.94048 0.0
C1110 C 0.51465 0.97592 0.94246 0.0
C1111 C 0.54051 0.01147 0.93611 0.0
C1112 C 0.58677 1.00324 0.93134 0.0
C1113 C 0.60781 0.95783 0.93331 0.0
C1114 C 0.58288 0.92073 0.94 0.0
C1115 C 0.53517 0.92965 0.94445 0.0
H1116 H 0.07242 0.39658 0.05837 0.0
H1117 H 0.16341 0.48907 0.08195 0.0
H1118 H 0.09456 0.54374 0.08563 0.0
H1119 H 0.00875 0.49259 0.043 0.0
H1120 H 0.95114 0.46206 0.04259 0.0
H1121 H 1.00634 0.42735 0.04255 0.0
H1122 H 0.97724 0.38043 0.06266 0.0
H1123 H 0.92195 0.41512 0.06278 0.0
H1124 H 0.95982 0.41351 0.07688 0.0
H1125 H 0.01905 0.59079 0.08598 0.0
H1126 H 0.94041 0.62999 0.08245 0.0
H1127 H 0.89518 0.50947 0.05847 0.0
C1128 C 0.07762 0.42798 0.06445 0.0
C1129 C 0.12353 0.43834 0.0699 0.0
C1130 C 0.12887 0.48028 0.07763 0.0
C1131 C 0.08984 0.51153 0.07984 0.0
C1132 C 0.04542 0.50066 0.07424 0.0
C1133 C 0.03887 0.46008 0.06668 0.0
C1134 C 0.9877 0.45887 0.06125 0.0
C1135 C 0.98855 0.46031 0.04647 0.0
C1136 C 0.96004 0.41433 0.06619 0.0
C1137 C 0.96694 0.50545 0.06682 0.0
C1138 C 1.00105 0.52853 0.07437 0.0
C1139 C 0.99191 0.57296 0.08017 0.0
C1140 C 0.94706 0.595 0.07806 0.0
C1141 C 0.91149 0.57285 0.07021 0.0
C1142 C 0.92133 0.52694 0.06468 0.0
H1143 H 0.51276 0.61831 0.31518 0.0
H1144 H 0.65475 0.56385 0.32575 0.0
H1145 H 0.62069 0.48215 0.32847 0.0
H1146 H 0.4429 0.54161 0.33711 0.0
H1147 H 0.39453 0.5324 0.32575 0.0
H1148 H 0.42934 0.58755 0.32533 0.0
H1149 H 0.44994 0.57206 0.30138 0.0
H1150 H 0.41528 0.51687 0.30173 0.0
H1151 H 0.47777 0.51555 0.29679 0.0
H1152 H 0.57239 0.40478 0.32887 0.0
H1153 H 0.51315 0.33818 0.3269 0.0
H1154 H 0.40233 0.44248 0.31636 0.0
C1155 C 0.53659 0.5894 0.31824 0.0
C1156 C 0.58655 0.59794 0.32029 0.0
C1157 C 0.61641 0.55863 0.32412 0.0
C1158 C 0.59738 0.51191 0.32572 0.0
C1159 C 0.54826 0.50465 0.32349 0.0
C1160 C 0.51819 0.54229 0.31986 0.0
C1161 C 0.46706 0.52417 0.31756 0.0
C1162 C 0.43135 0.54785 0.32701 0.0
C1163 C 0.45163 0.53267 0.30353 0.0
C1164 C 0.47326 0.47056 0.32038 0.0
C1165 C 0.52035 0.46004 0.3238 0.0
C1166 C 0.53526 0.41267 0.32631 0.0
C1167 C 0.5013 0.375 0.32517 0.0
C1168 C 0.45282 0.38478 0.32156 0.0
C1169 C 0.43882 0.43351 0.31931 0.0
H1170 H 0.5621 0.88876 0.56333 0.0
H1171 H 0.66729 1.00263 0.57037 0.0
H1172 H 0.60133 0.06266 0.5711 0.0
H1173 H 0.48427 0.95807 0.54281 0.0
H1174 H 0.429 0.93219 0.54892 0.0
H1175 H 0.4842 0.89747 0.54926 0.0
H1176 H 0.47445 0.88496 0.57379 0.0
H1177 H 0.41917 0.91959 0.57353 0.0
H1178 H 0.46774 0.93698 0.58413 0.0
H1179 H 0.52504 0.11089 0.57046 0.0
H1180 H 0.44314 0.14469 0.56899 0.0
H1181 H 0.38507 1.0004 0.56263 0.0
C1182 C 0.57136 0.92625 0.56512 0.0
C1183 C 0.6203 0.9407 0.56682 0.0
C1184 C 0.63042 0.99034 0.56906 0.0
C1185 C 0.59309 0.02483 0.56949 0.0
C1186 C 0.54555 0.00938 0.5677 0.0
C1187 C 0.53444 0.9613 0.56561 0.0
C1188 C 0.48016 0.95464 0.56384 0.0
C1189 C 0.46875 0.9344 0.55041 0.0
C1190 C 0.45915 0.92211 0.57446 0.0
C1191 C 0.46254 1.00658 0.56523 0.0
C1192 C 0.50107 0.0374 0.56742 0.0
C1193 C 0.49459 0.08708 0.56879 0.0
C1194 C 0.44764 0.10594 0.5679 0.0
C1195 C 0.40712 0.0754 0.56569 0.0
C1196 C 0.41496 0.02484 0.56439 0.0
H1197 H 0.01925 0.13429 0.81286 0.0
H1198 H 0.16459 0.07582 0.81658 0.0
H1199 H 0.13153 0.9933 0.81699 0.0
H1200 H 0.96044 0.04689 0.83367 0.0
H1201 H 0.90666 0.04275 0.82394 0.0
H1202 H 0.94143 0.09791 0.8241 0.0
H1203 H 0.94958 0.09393 0.79931 0.0
H1204 H 0.91492 0.0387 0.79908 0.0
H1205 H 0.97432 0.04025 0.79193 0.0
H1206 H 0.08325 0.91615 0.81699 0.0
H1207 H 0.0226 0.85047 0.81639 0.0
H1208 H 0.90851 0.95774 0.81238 0.0
C1209 C 0.04412 0.10419 0.81382 0.0
C1210 C 0.09469 0.11209 0.8147 0.0
C1211 C 0.12577 0.07128 0.81586 0.0
C1212 C 0.10735 0.02397 0.81612 0.0
C1213 C 0.05758 0.01747 0.81517 0.0
C1214 C 0.02631 0.05637 0.81403 0.0
C1215 C 0.97432 0.03897 0.81301 0.0
C1216 C 0.94393 0.05775 0.82436 0.0
C1217 C 0.95198 0.05385 0.80006 0.0
C1218 C 0.98142 0.98443 0.81378 0.0
C1219 C 0.02973 0.97282 0.81505 0.0
C1220 C 0.04524 0.92481 0.81599 0.0
C1221 C 0.01046 0.88766 0.81564 0.0
C1222 C 0.96058 0.89853 0.81433 0.0
C1223 C 0.94623 0.94782 0.81337 0.0
H1224 H 0.61681 0.00932 0.18819 0.0
H1225 H 0.58355 0.85663 0.18387 0.0
H1226 H 0.49665 0.87636 0.18207 0.0
H1227 H 0.51683 0.03662 0.20818 0.0
H1228 H 0.50602 0.09588 0.2015 0.0
H1229 H 0.56601 0.07047 0.20119 0.0
H1230 H 0.56944 0.08191 0.17648 0.0
H1231 H 0.50944 0.1075 0.17673 0.0
H1232 H 0.52249 0.05617 0.16659 0.0
H1233 H 0.41298 0.91212 0.18172 0.0
H1234 H 0.33845 0.96104 0.18361 0.0
H1235 H 0.42535 0.0904 0.18893 0.0
C1236 C 0.59128 0.98017 0.18662 0.0
C1237 C 0.60699 0.93143 0.18605 0.0
C1238 C 0.57237 0.89421 0.18429 0.0
C1239 C 0.52292 0.90507 0.18323 0.0
C1240 C 0.50849 0.95336 0.18403 0.0
C1241 C 0.5416 0.99034 0.18572 0.0
C1242 C 0.51622 0.03884 0.1871 0.0
C1243 C 0.52691 0.06178 0.20027 0.0
C1244 C 0.53024 0.07312 0.17606 0.0
C1245 C 0.46372 0.02326 0.18606 0.0
C1246 C 0.46011 0.97387 0.18415 0.0
C1247 C 0.41537 0.95087 0.18315 0.0
C1248 C 0.3732 0.97898 0.18424 0.0
C1249 C 0.37594 0.02956 0.18641 0.0
C1250 C 0.42196 0.05186 0.18723 0.0
H1251 H 0.00803 0.88564 0.43568 0.0
H1252 H 0.85571 0.92045 0.43185 0.0
H1253 H 0.876 1.00742 0.43026 0.0
H1254 H 0.03552 0.98395 0.45618 0.0
H1255 H 0.09491 0.99497 0.44964 0.0
H1256 H 0.06927 0.93512 0.44895 0.0
H1257 H 0.08118 0.93365 0.42425 0.0
H1258 H 0.10705 0.99352 0.42487 0.0
H1259 H 0.05593 0.98163 0.41459 0.0
H1260 H 0.91228 0.09075 0.43 0.0
H1261 H 0.96131 0.16491 0.43234 0.0
H1262 H 0.09004 0.07703 0.43764 0.0
C1263 C 0.97913 0.91156 0.43421 0.0
C1264 C 0.9303 0.89632 0.43369 0.0
C1265 C 0.89333 0.93136 0.43217 0.0
C1266 C 0.90454 0.98081 0.43124 0.0
C1267 C 0.95291 0.99481 0.43199 0.0
C1268 C 0.98965 0.96128 0.43352 0.0
C1269 C 0.0382 0.98631 0.43511 0.0
C1270 C 0.06079 0.97438 0.44825 0.0
C1271 C 0.07262 0.97298 0.42404 0.0
C1272 C 0.02294 0.03907 0.43436 0.0
C1273 C 0.97367 0.04308 0.43237 0.0
C1274 C 0.95092 0.08804 0.43151 0.0
C1275 C 0.97912 0.13002 0.43285 0.0
C1276 C 0.02953 0.12691 0.43518 0.0
C1277 C 0.05162 0.08068 0.43585 0.0
H1278 H 0.06933 0.40193 0.69201 0.0
H1279 H 0.14655 0.52214 0.67457 0.0
H1280 H 0.07032 0.56731 0.67259 0.0
H1281 H 0.95821 0.41477 0.67229 0.0
H1282 H 0.91858 0.39942 0.68544 0.0
H1283 H 0.9788 0.3744 0.68477 0.0
H1284 H 0.99654 0.40843 0.70748 0.0
H1285 H 0.9365 0.43362 0.70822 0.0
H1286 H 0.98836 0.47221 0.71052 0.0
H1287 H 0.98885 0.60328 0.67449 0.0
H1288 H 0.90429 0.62635 0.67897 0.0
H1289 H 0.87606 0.48263 0.69401 0.0
C1290 C 0.06999 0.43743 0.6876 0.0
C1291 C 0.11411 0.45841 0.68344 0.0
C1292 C 0.11342 0.50514 0.67781 0.0
C1293 C 0.0702 0.53119 0.67663 0.0
C1294 C 0.0276 0.50997 0.68098 0.0
C1295 C 0.02682 0.464 0.68623 0.0
C1296 C 0.97588 0.45067 0.6905 0.0
C1297 C 0.95674 0.40723 0.68279 0.0
C1298 C 0.97425 0.44065 0.70504 0.0
C1299 C 0.94864 0.4968 0.68712 0.0
C1300 C 0.97945 0.53042 0.68164 0.0
C1301 C 0.96412 0.57702 0.67854 0.0
C1302 C 0.91611 0.58984 0.68115 0.0
C1303 C 0.88365 0.55609 0.68665 0.0
C1304 C 0.89994 0.50871 0.68952 0.0
H1305 H 0.41575 0.45677 0.9397 0.0
H1306 H 0.5395 0.37217 0.92705 0.0
H1307 H 0.58693 0.44679 0.92452 0.0
H1308 H 0.43781 0.56123 0.91811 0.0
H1309 H 0.41912 0.60513 0.92995 0.0
H1310 H 0.39304 0.54529 0.92999 0.0
H1311 H 0.41898 0.53401 0.95372 0.0
H1312 H 0.44514 0.59371 0.95375 0.0
H1313 H 0.4816 0.54207 0.95806 0.0
H1314 H 0.62393 0.52833 0.92533 0.0
H1315 H 0.64732 0.6137 0.92856 0.0
H1316 H 0.50002 0.6486 0.9396 0.0
C1317 C 0.45258 0.4541 0.93622 0.0
C1318 C 0.47378 0.40841 0.93357 0.0
C1319 C 0.52227 0.40653 0.92914 0.0
C1320 C 0.54963 0.44881 0.92765 0.0
C1321 C 0.52805 0.49307 0.9305 0.0
C1322 C 0.48056 0.49628 0.93458 0.0
C1323 C 0.46709 0.54865 0.93741 0.0
C1324 C 0.42687 0.5661 0.92832 0.0
C1325 C 0.45234 0.55496 0.95158 0.0
C1326 C 0.51475 0.57399 0.93455 0.0
C1327 C 0.5493 0.54102 0.93057 0.0
C1328 C 0.59702 0.55466 0.92822 0.0
C1329 C 0.61 0.6032 0.9301 0.0
C1330 C 0.57538 0.63779 0.93413 0.0
C1331 C 0.52692 0.62308 0.93621 0.0
H1332 H 0.639 0.48979 0.06564 0.0
H1333 H 0.60743 0.63462 0.07949 0.0
H1334 H 0.5221 0.61177 0.08282 0.0
H1335 H 0.53112 0.47771 0.04761 0.0
H1336 H 0.52246 0.41419 0.05087 0.0
H1337 H 0.58248 0.43949 0.05099 0.0
H1338 H 0.59558 0.40767 0.07415 0.0
H1339 H 0.53557 0.3821 0.07409 0.0
H1340 H 0.55303 0.4238 0.08658 0.0
H1341 H 0.44029 0.57568 0.08366 0.0
H1342 H 0.36486 0.52965 0.08099 0.0
H1343 H 0.44635 0.40831 0.06551 0.0
C1344 C 0.61419 0.5162 0.06963 0.0
C1345 C 0.62978 0.56382 0.07247 0.0
C1346 C 0.59618 0.59793 0.07732 0.0
C1347 C 0.5477 0.58524 0.07928 0.0
C1348 C 0.53315 0.53838 0.0762 0.0
C1349 C 0.56516 0.50434 0.07142 0.0
C1350 C 0.53884 0.45782 0.06792 0.0
C1351 C 0.54404 0.44667 0.05349 0.0
C1352 C 0.55683 0.41533 0.07618 0.0
C1353 C 0.4871 0.47141 0.07133 0.0
C1354 C 0.485 0.51784 0.07626 0.0
C1355 C 0.44145 0.53919 0.07987 0.0
C1356 C 0.39872 0.51266 0.0783 0.0
C1357 C 0.39953 0.4653 0.07304 0.0
C1358 C 0.44451 0.44432 0.06961 0.0
H1359 H 0.50601 0.11392 0.32114 0.0
H1360 H 0.35336 0.07941 0.32403 0.0
H1361 H 0.37346 0.99228 0.32547 0.0
H1362 H 0.53514 0.01583 0.30051 0.0
H1363 H 0.59398 1.00464 0.30736 0.0
H1364 H 0.56826 0.06452 0.30798 0.0
H1365 H 0.57815 0.06556 0.33274 0.0
H1366 H 0.60406 1.00567 0.33219 0.0
H1367 H 0.55209 0.01748 0.3422 0.0
H1368 H 0.4098 0.90886 0.32596 0.0
H1369 H 0.45902 0.83464 0.324 0.0
H1370 H 0.58821 0.92223 0.31934 0.0
C1371 C 0.47695 0.08802 0.32235 0.0
C1372 C 0.4281 0.10341 0.32268 0.0
C1373 C 0.39098 0.0684 0.32385 0.0
C1374 C 0.40208 0.01886 0.3247 0.0
C1375 C 0.45051 1.00475 0.32418 0.0
C1376 C 0.48738 0.03823 0.32293 0.0
C1377 C 0.53607 0.01313 0.32158 0.0
C1378 C 0.55974 0.02526 0.30858 0.0
C1379 C 0.56957 0.02625 0.33285 0.0
C1380 C 0.52078 0.96036 0.32218 0.0
C1381 C 0.47133 0.95644 0.32388 0.0
C1382 C 0.44855 0.91151 0.32465 0.0
C1383 C 0.47689 0.8695 0.32354 0.0
C1384 C 0.52751 0.87247 0.3215 0.0
C1385 C 0.54963 0.91868 0.32089 0.0
H1386 H 0.89041 0.99523 0.57231 0.0
H1387 H 0.9249 0.84314 0.57732 0.0
H1388 H 0.01169 0.86351 0.57893 0.0
H1389 H 0.9889 0.02101 0.55191 0.0
H1390 H 0.99998 0.08096 0.55812 0.0
H1391 H 0.94012 0.0555 0.55891 0.0
H1392 H 0.93834 0.06937 0.58353 0.0
H1393 H 0.9982 0.09511 0.58281 0.0
H1394 H 0.98611 0.0448 0.59337 0.0
H1395 H 0.09509 0.89954 0.57874 0.0
H1396 H 0.1693 0.94822 0.57603 0.0
H1397 H 0.08173 0.07692 0.5702 0.0
C1398 C 0.91618 0.96642 0.57406 0.0
C1399 C 0.90084 0.91761 0.57487 0.0
C1400 C 0.93579 0.88076 0.57677 0.0
C1401 C 0.98518 0.89201 0.57771 0.0
C1402 C 0.99928 0.94031 0.57663 0.0
C1403 C 0.96586 0.97697 0.57482 0.0
C1404 C 0.99101 0.02539 0.57296 0.0
C1405 C 0.9793 0.04696 0.55969 0.0
C1406 C 0.97762 0.06076 0.58382 0.0
C1407 C 0.04369 0.01009 0.57385 0.0
C1408 C 0.04759 0.96094 0.57612 0.0
C1409 C 0.09247 0.93811 0.57703 0.0
C1410 C 0.13448 0.96611 0.57547 0.0
C1411 C 0.1315 0.01642 0.57291 0.0
C1412 C 0.08533 0.03859 0.57219 0.0
H1413 H 0.0093 0.62928 0.82174 0.0
H1414 H 0.85767 0.59507 0.82748 0.0
H1415 H 0.87806 0.50807 0.82885 0.0
H1416 H 0.03407 0.53062 0.80119 0.0
H1417 H 0.09426 0.51961 0.80718 0.0
H1418 H 0.06875 0.57953 0.80804 0.0
H1419 H 0.08375 0.58144 0.83261 0.0
H1420 H 0.10955 0.52154 0.83182 0.0
H1421 H 0.05976 0.53365 0.84256 0.0
H1422 H 0.91429 0.42419 0.82844 0.0
H1423 H 0.96322 0.34996 0.82571 0.0
H1424 H 0.09112 0.43799 0.81944 0.0
C1425 C 0.98056 0.60355 0.82358 0.0
C1426 C 0.93189 0.61908 0.82466 0.0
C1427 C 0.8952 0.58411 0.8267 0.0
C1428 C 0.90645 0.53457 0.82751 0.0
C1429 C 0.95461 0.52034 0.82617 0.0
C1430 C 0.99111 0.55378 0.82423 0.0
C1431 C 0.03943 0.52863 0.82222 0.0
C1432 C 0.06034 0.5403 0.80887 0.0
C1433 C 0.07524 0.54212 0.83294 0.0
C1434 C 0.02431 0.47589 0.82318 0.0
C1435 C 0.97531 0.47193 0.8256 0.0
C1436 C 0.95275 0.42691 0.82662 0.0
C1437 C 0.98088 0.38487 0.82505 0.0
C1438 C 0.03105 0.38796 0.82237 0.0
C1439 C 0.05291 0.43427 0.82152 0.0
loop_
_geom_bond_atom_site_label_1
_geom_bond_atom_site_label_2
_geom_bond_distance
_geom_bond_site_symmetry_2
_ccdc_geom_bond_type
Mn0 O5 2.095 . S
Mn0 O15 2.162 . S
Mn0 O16 2.297 . S
Mn0 O24 2.385 . S
Mn0 O25 2.209 . S
Mn0 O26 2.094 . S
Mn1 O6 2.121 . S
Mn1 N8 2.257 . S
Mn1 N17 2.282 . S
Mn1 O25 2.215 . S
Mn1 O27 2.117 . S
C2 O24 1.234 . S
C2 O25 1.283 . S
C3 O15 1.281 . S
C3 O16 1.236 . S
C4 O26 1.240 . S
C4 O27 1.264 . S
O5 Mn0 2.095 . S
O5 C14 1.250 . S
O6 Mn1 2.121 . S
O6 C14 1.258 . S
C7 N8 1.326 . S
C7 C11 1.460 . S
C7 H13 0.929 . S
N8 Mn1 2.257 . S
N8 C7 1.326 . S
N8 C12 1.362 . S
C9 C10 1.258 . S
C9 C12 1.431 . S
C9 C29 1.449 . S
C10 C9 1.258 . S
C10 C11 1.477 . S
C10 H30 0.931 . S
C11 C7 1.460 . S
C11 C10 1.477 . S
C11 H31 0.930 . S
C12 N8 1.362 . S
C12 C9 1.431 . S
C12 C22 1.476 . S
H13 C7 0.929 . S
C14 O5 1.250 . S
C14 O6 1.258 . S
O15 Mn0 2.162 . S
O15 C3 1.281 . S
O16 Mn0 2.297 . S
O16 C3 1.236 . S
N17 Mn1 2.282 . S
N17 C18 1.328 . S
N17 C22 1.318 . S
C18 N17 1.328 . S
C18 C19 1.457 . S
C18 H23 0.929 . S
C19 C18 1.457 . S
C19 C20 1.291 . S
C19 H32 0.931 . S
C20 C19 1.291 . S
C20 C21 1.373 . S
C20 H33 0.929 . S
C21 C20 1.373 . S
C21 C22 1.396 . S
C21 C28 1.403 . S
C22 C12 1.476 . S
C22 N17 1.318 . S
C22 C21 1.396 . S
H23 C18 0.929 . S
O24 Mn0 2.385 . S
O24 C2 1.234 . S
O25 Mn0 2.209 . S
O25 Mn1 2.215 . S
O25 C2 1.283 . S
O26 Mn0 2.094 . S
O26 C4 1.240 . S
O27 Mn1 2.117 . S
O27 C4 1.264 . S
C28 C21 1.403 . S
C28 C29 1.399 . S
C28 H34 0.929 . S
C29 C9 1.449 . S
C29 C28 1.399 . S
C29 H35 0.930 . S
H30 C10 0.931 . S
H31 C11 0.930 . S
H32 C19 0.931 . S
H33 C20 0.929 . S
H34 C28 0.929 . S
H35 C29 0.930 . S
Mn36 O41 2.095 . S
Mn36 O51 2.162 . S
Mn36 O52 2.297 . S
Mn36 O60 2.385 . S
Mn36 O61 2.209 . S
Mn36 O62 2.094 . S
Mn37 O42 2.121 . S
Mn37 N44 2.257 . S
Mn37 N53 2.282 . S
Mn37 O61 2.215 . S
Mn37 O63 2.117 . S
C38 O60 1.234 . S
C38 O61 1.283 . S
C39 O51 1.281 . S
C39 O52 1.236 . S
C40 O62 1.240 . S
C40 O63 1.264 . S
O41 Mn36 2.095 . S
O41 C50 1.250 . S
O42 Mn37 2.121 . S
O42 C50 1.258 . S
C43 N44 1.326 . S
C43 C47 1.460 . S
C43 H49 0.929 . S
N44 Mn37 2.257 . S
N44 C43 1.326 . S
N44 C48 1.362 . S
C45 C46 1.258 . S
C45 C48 1.431 . S
C45 C65 1.449 . S
C46 C45 1.258 . S
C46 C47 1.477 . S
C46 H66 0.931 . S
C47 C43 1.460 . S
C47 C46 1.477 . S
C47 H67 0.930 . S
C48 N44 1.362 . S
C48 C45 1.431 . S
C48 C58 1.476 . S
H49 C43 0.929 . S
C50 O41 1.250 . S
C50 O42 1.258 . S
O51 Mn36 2.162 . S
O51 C39 1.281 . S
O52 Mn36 2.297 . S
O52 C39 1.236 . S
N53 Mn37 2.282 . S
N53 C54 1.328 . S
N53 C58 1.318 . S
C54 N53 1.328 . S
C54 C55 1.457 . S
C54 H59 0.929 . S
C55 C54 1.457 . S
C55 C56 1.291 . S
C55 H68 0.931 . S
C56 C55 1.291 . S
C56 C57 1.373 . S
C56 H69 0.929 . S
C57 C56 1.373 . S
C57 C58 1.396 . S
C57 C64 1.403 . S
C58 C48 1.476 . S
C58 N53 1.318 . S
C58 C57 1.396 . S
H59 C54 0.929 . S
O60 Mn36 2.385 . S
O60 C38 1.234 . S
O61 Mn36 2.209 . S
O61 Mn37 2.215 . S
O61 C38 1.283 . S
O62 Mn36 2.094 . S
O62 C40 1.240 . S
O63 Mn37 2.117 . S
O63 C40 1.264 . S
C64 C57 1.403 . S
C64 C65 1.399 . S
C64 H70 0.929 . S
C65 C45 1.449 . S
C65 C64 1.399 . S
C65 H71 0.930 . S
H66 C46 0.931 . S
H67 C47 0.930 . S
H68 C55 0.931 . S
H69 C56 0.929 . S
H70 C64 0.929 . S
H71 C65 0.930 . S
Mn72 O77 2.095 . S
Mn72 O87 2.162 . S
Mn72 O88 2.297 . S
Mn72 O96 2.385 . S
Mn72 O97 2.209 . S
Mn72 O98 2.094 . S
Mn73 O78 2.121 . S
Mn73 N80 2.257 . S
Mn73 N89 2.282 . S
Mn73 O97 2.215 . S
Mn73 O99 2.117 . S
C74 O96 1.234 . S
C74 O97 1.283 . S
C75 O87 1.281 . S
C75 O88 1.236 . S
C76 O98 1.240 . S
C76 O99 1.264 . S
O77 Mn72 2.095 . S
O77 C86 1.250 . S
O78 Mn73 2.121 . S
O78 C86 1.258 . S
C79 N80 1.326 . S
C79 C83 1.460 . S
C79 H85 0.929 . S
N80 Mn73 2.257 . S
N80 C79 1.326 . S
N80 C84 1.362 . S
C81 C82 1.258 . S
C81 C84 1.431 . S
C81 C101 1.449 . S
C82 C81 1.258 . S
C82 C83 1.477 . S
C82 H102 0.931 . S
C83 C79 1.460 . S
C83 C82 1.477 . S
C83 H103 0.930 . S
C84 N80 1.362 . S
C84 C81 1.431 . S
C84 C94 1.476 . S
H85 C79 0.929 . S
C86 O77 1.250 . S
C86 O78 1.258 . S
O87 Mn72 2.162 . S
O87 C75 1.281 . S
O88 Mn72 2.297 . S
O88 C75 1.236 . S
N89 Mn73 2.282 . S
N89 C90 1.328 . S
N89 C94 1.318 . S
C90 N89 1.328 . S
C90 C91 1.457 . S
C90 H95 0.929 . S
C91 C90 1.457 . S
C91 C92 1.291 . S
C91 H104 0.931 . S
C92 C91 1.291 . S
C92 C93 1.373 . S
C92 H105 0.929 . S
C93 C92 1.373 . S
C93 C94 1.396 . S
C93 C100 1.403 . S
C94 C84 1.476 . S
C94 N89 1.318 . S
C94 C93 1.396 . S
H95 C90 0.929 . S
O96 Mn72 2.385 . S
O96 C74 1.234 . S
O97 Mn72 2.209 . S
O97 Mn73 2.215 . S
O97 C74 1.283 . S
O98 Mn72 2.094 . S
O98 C76 1.240 . S
O99 Mn73 2.117 . S
O99 C76 1.264 . S
C100 C93 1.403 . S
C100 C101 1.399 . S
C100 H106 0.929 . S
C101 C81 1.449 . S
C101 C100 1.399 . S
C101 H107 0.930 . S
H102 C82 0.931 . S
H103 C83 0.930 . S
H104 C91 0.931 . S
H105 C92 0.929 . S
H106 C100 0.929 . S
H107 C101 0.930 . S
Mn108 O113 2.095 . S
Mn108 O123 2.162 . S
Mn108 O124 2.297 . S
Mn108 O132 2.385 . S
Mn108 O133 2.209 . S
Mn108 O134 2.094 . S
Mn109 O114 2.121 . S
Mn109 N116 2.257 . S
Mn109 N125 2.282 . S
Mn109 O133 2.215 . S
Mn109 O135 2.117 . S
C110 O132 1.234 . S
C110 O133 1.283 . S
C111 O123 1.281 . S
C111 O124 1.236 . S
C112 O134 1.240 . S
C112 O135 1.264 . S
O113 Mn108 2.095 . S
O113 C122 1.250 . S
O114 Mn109 2.121 . S
O114 C122 1.258 . S
C115 N116 1.326 . S
C115 C119 1.460 . S
C115 H121 0.929 . S
N116 Mn109 2.257 . S
N116 C115 1.326 . S
N116 C120 1.362 . S
C117 C118 1.258 . S
C117 C120 1.431 . S
C117 C137 1.449 . S
C118 C117 1.258 . S
C118 C119 1.477 . S
C118 H138 0.931 . S
C119 C115 1.460 . S
C119 C118 1.477 . S
C119 H139 0.930 . S
C120 N116 1.362 . S
C120 C117 1.431 . S
C120 C130 1.476 . S
H121 C115 0.929 . S
C122 O113 1.250 . S
C122 O114 1.258 . S
O123 Mn108 2.162 . S
O123 C111 1.281 . S
O124 Mn108 2.297 . S
O124 C111 1.236 . S
N125 Mn109 2.282 . S
N125 C126 1.328 . S
N125 C130 1.318 . S
C126 N125 1.328 . S
C126 C127 1.457 . S
C126 H131 0.929 . S
C127 C126 1.457 . S
C127 C128 1.291 . S
C127 H140 0.931 . S
C128 C127 1.291 . S
C128 C129 1.373 . S
C128 H141 0.929 . S
C129 C128 1.373 . S
C129 C130 1.396 . S
C129 C136 1.403 . S
C130 C120 1.476 . S
C130 N125 1.318 . S
C130 C129 1.396 . S
H131 C126 0.929 . S
O132 Mn108 2.385 . S
O132 C110 1.234 . S
O133 Mn108 2.209 . S
O133 Mn109 2.215 . S
O133 C110 1.283 . S
O134 Mn108 2.094 . S
O134 C112 1.240 . S
O135 Mn109 2.117 . S
O135 C112 1.264 . S
C136 C129 1.403 . S
C136 C137 1.399 . S
C136 H142 0.929 . S
C137 C117 1.449 . S
C137 C136 1.399 . S
C137 H143 0.930 . S
H138 C118 0.931 . S
H139 C119 0.930 . S
H140 C127 0.931 . S
H141 C128 0.929 . S
H142 C136 0.929 . S
H143 C137 0.930 . S
Mn144 O149 2.095 . S
Mn144 O159 2.162 . S
Mn144 O160 2.297 . S
Mn144 O168 2.385 . S
Mn144 O169 2.209 . S
Mn144 O170 2.094 . S
Mn145 O150 2.121 . S
Mn145 N152 2.257 . S
Mn145 N161 2.282 . S
Mn145 O169 2.215 . S
Mn145 O171 2.117 . S
C146 O168 1.234 . S
C146 O169 1.283 . S
C147 O159 1.281 . S
C147 O160 1.236 . S
C148 O170 1.240 . S
C148 O171 1.264 . S
O149 Mn144 2.095 . S
O149 C158 1.250 . S
O150 Mn145 2.121 . S
O150 C158 1.258 . S
C151 N152 1.326 . S
C151 C155 1.460 . S
C151 H157 0.929 . S
N152 Mn145 2.257 . S
N152 C151 1.326 . S
N152 C156 1.362 . S
C153 C154 1.258 . S
C153 C156 1.431 . S
C153 C173 1.449 . S
C154 C153 1.258 . S
C154 C155 1.477 . S
C154 H174 0.931 . S
C155 C151 1.460 . S
C155 C154 1.477 . S
C155 H175 0.930 . S
C156 N152 1.362 . S
C156 C153 1.431 . S
C156 C166 1.476 . S
H157 C151 0.929 . S
C158 O149 1.250 . S
C158 O150 1.258 . S
O159 Mn144 2.162 . S
O159 C147 1.281 . S
O160 Mn144 2.297 . S
O160 C147 1.236 . S
N161 Mn145 2.282 . S
N161 C162 1.328 . S
N161 C166 1.318 . S
C162 N161 1.328 . S
C162 C163 1.457 . S
C162 H167 0.929 . S
C163 C162 1.457 . S
C163 C164 1.291 . S
C163 H176 0.931 . S
C164 C163 1.291 . S
C164 C165 1.373 . S
C164 H177 0.929 . S
C165 C164 1.373 . S
C165 C166 1.396 . S
C165 C172 1.403 . S
C166 C156 1.476 . S
C166 N161 1.318 . S
C166 C165 1.396 . S
H167 C162 0.929 . S
O168 Mn144 2.385 . S
O168 C146 1.234 . S
O169 Mn144 2.209 . S
O169 Mn145 2.215 . S
O169 C146 1.283 . S
O170 Mn144 2.094 . S
O170 C148 1.240 . S
O171 Mn145 2.117 . S
O171 C148 1.264 . S
C172 C165 1.403 . S
C172 C173 1.399 . S
C172 H178 0.929 . S
C173 C153 1.449 . S
C173 C172 1.399 . S
C173 H179 0.930 . S
H174 C154 0.931 . S
H175 C155 0.930 . S
H176 C163 0.931 . S
H177 C164 0.929 . S
H178 C172 0.929 . S
H179 C173 0.930 . S
Mn180 O185 2.095 . S
Mn180 O195 2.162 . S
Mn180 O196 2.297 . S
Mn180 O204 2.385 . S
Mn180 O205 2.209 . S
Mn180 O206 2.094 . S
Mn181 O186 2.121 . S
Mn181 N188 2.257 . S
Mn181 N197 2.282 . S
Mn181 O205 2.215 . S
Mn181 O207 2.117 . S
C182 O204 1.234 . S
C182 O205 1.283 . S
C183 O195 1.281 . S
C183 O196 1.236 . S
C184 O206 1.240 . S
C184 O207 1.264 . S
O185 Mn180 2.095 . S
O185 C194 1.250 . S
O186 Mn181 2.121 . S
O186 C194 1.258 . S
C187 N188 1.326 . S
C187 C191 1.460 . S
C187 H193 0.929 . S
N188 Mn181 2.257 . S
N188 C187 1.326 . S
N188 C192 1.362 . S
C189 C190 1.258 . S
C189 C192 1.431 . S
C189 C209 1.449 . S
C190 C189 1.258 . S
C190 C191 1.477 . S
C190 H210 0.931 . S
C191 C187 1.460 . S
C191 C190 1.477 . S
C191 H211 0.930 . S
C192 N188 1.362 . S
C192 C189 1.431 . S
C192 C202 1.476 . S
H193 C187 0.929 . S
C194 O185 1.250 . S
C194 O186 1.258 . S
O195 Mn180 2.162 . S
O195 C183 1.281 . S
O196 Mn180 2.297 . S
O196 C183 1.236 . S
N197 Mn181 2.282 . S
N197 C198 1.328 . S
N197 C202 1.318 . S
C198 N197 1.328 . S
C198 C199 1.457 . S
C198 H203 0.929 . S
C199 C198 1.457 . S
C199 C200 1.291 . S
C199 H212 0.931 . S
C200 C199 1.291 . S
C200 C201 1.373 . S
C200 H213 0.929 . S
C201 C200 1.373 . S
C201 C202 1.396 . S
C201 C208 1.403 . S
C202 C192 1.476 . S
C202 N197 1.318 . S
C202 C201 1.396 . S
H203 C198 0.929 . S
O204 Mn180 2.385 . S
O204 C182 1.234 . S
O205 Mn180 2.209 . S
O205 Mn181 2.215 . S
O205 C182 1.283 . S
O206 Mn180 2.094 . S
O206 C184 1.240 . S
O207 Mn181 2.117 . S
O207 C184 1.264 . S
C208 C201 1.403 . S
C208 C209 1.399 . S
C208 H214 0.929 . S
C209 C189 1.449 . S
C209 C208 1.399 . S
C209 H215 0.930 . S
H210 C190 0.931 . S
H211 C191 0.930 . S
H212 C199 0.931 . S
H213 C200 0.929 . S
H214 C208 0.929 . S
H215 C209 0.930 . S
Mn216 O221 2.095 . S
Mn216 O231 2.162 . S
Mn216 O232 2.297 . S
Mn216 O240 2.385 . S
Mn216 O241 2.209 . S
Mn216 O242 2.094 . S
Mn217 O222 2.121 . S
Mn217 N224 2.257 . S
Mn217 N233 2.282 . S
Mn217 O241 2.215 . S
Mn217 O243 2.117 . S
C218 O240 1.234 . S
C218 O241 1.283 . S
C219 O231 1.281 . S
C219 O232 1.236 . S
C220 O242 1.240 . S
C220 O243 1.264 . S
O221 Mn216 2.095 . S
O221 C230 1.250 . S
O222 Mn217 2.121 . S
O222 C230 1.258 . S
C223 N224 1.326 . S
C223 C227 1.460 . S
C223 H229 0.929 . S
N224 Mn217 2.257 . S
N224 C223 1.326 . S
N224 C228 1.362 . S
C225 C226 1.258 . S
C225 C228 1.431 . S
C225 C245 1.449 . S
C226 C225 1.258 . S
C226 C227 1.477 . S
C226 H246 0.931 . S
C227 C223 1.460 . S
C227 C226 1.477 . S
C227 H247 0.930 . S
C228 N224 1.362 . S
C228 C225 1.431 . S
C228 C238 1.476 . S
H229 C223 0.929 . S
C230 O221 1.250 . S
C230 O222 1.258 . S
O231 Mn216 2.162 . S
O231 C219 1.281 . S
O232 Mn216 2.297 . S
O232 C219 1.236 . S
N233 Mn217 2.282 . S
N233 C234 1.328 . S
N233 C238 1.318 . S
C234 N233 1.328 . S
C234 C235 1.457 . S
C234 H239 0.929 . S
C235 C234 1.457 . S
C235 C236 1.291 . S
C235 H248 0.931 . S
C236 C235 1.291 . S
C236 C237 1.373 . S
C236 H249 0.929 . S
C237 C236 1.373 . S
C237 C238 1.396 . S
C237 C244 1.403 . S
C238 C228 1.476 . S
C238 N233 1.318 . S
C238 C237 1.396 . S
H239 C234 0.929 . S
O240 Mn216 2.385 . S
O240 C218 1.234 . S
O241 Mn216 2.209 . S
O241 Mn217 2.215 . S
O241 C218 1.283 . S
O242 Mn216 2.094 . S
O242 C220 1.240 . S
O243 Mn217 2.117 . S
O243 C220 1.264 . S
C244 C237 1.403 . S
C244 C245 1.399 . S
C244 H250 0.929 . S
C245 C225 1.449 . S
C245 C244 1.399 . S
C245 H251 0.930 . S
H246 C226 0.931 . S
H247 C227 0.930 . S
H248 C235 0.931 . S
H249 C236 0.929 . S
H250 C244 0.929 . S
H251 C245 0.930 . S
Mn252 O257 2.095 . S
Mn252 O267 2.162 . S
Mn252 O268 2.297 . S
Mn252 O276 2.385 . S
Mn252 O277 2.209 . S
Mn252 O278 2.094 . S
Mn253 O258 2.121 . S
Mn253 N260 2.257 . S
Mn253 N269 2.282 . S
Mn253 O277 2.215 . S
Mn253 O279 2.117 . S
C254 O276 1.234 . S
C254 O277 1.283 . S
C255 O267 1.281 . S
C255 O268 1.236 . S
C256 O278 1.240 . S
C256 O279 1.264 . S
O257 Mn252 2.095 . S
O257 C266 1.250 . S
O258 Mn253 2.121 . S
O258 C266 1.258 . S
C259 N260 1.326 . S
C259 C263 1.460 . S
C259 H265 0.929 . S
N260 Mn253 2.257 . S
N260 C259 1.326 . S
N260 C264 1.362 . S
C261 C262 1.258 . S
C261 C264 1.431 . S
C261 C281 1.449 . S
C262 C261 1.258 . S
C262 C263 1.477 . S
C262 H282 0.931 . S
C263 C259 1.460 . S
C263 C262 1.477 . S
C263 H283 0.930 . S
C264 N260 1.362 . S
C264 C261 1.431 . S
C264 C274 1.476 . S
H265 C259 0.929 . S
C266 O257 1.250 . S
C266 O258 1.258 . S
O267 Mn252 2.162 . S
O267 C255 1.281 . S
O268 Mn252 2.297 . S
O268 C255 1.236 . S
N269 Mn253 2.282 . S
N269 C270 1.328 . S
N269 C274 1.318 . S
C270 N269 1.328 . S
C270 C271 1.457 . S
C270 H275 0.929 . S
C271 C270 1.457 . S
C271 C272 1.291 . S
C271 H284 0.931 . S
C272 C271 1.291 . S
C272 C273 1.373 . S
C272 H285 0.929 . S
C273 C272 1.373 . S
C273 C274 1.396 . S
C273 C280 1.403 . S
C274 C264 1.476 . S
C274 N269 1.318 . S
C274 C273 1.396 . S
H275 C270 0.929 . S
O276 Mn252 2.385 . S
O276 C254 1.234 . S
O277 Mn252 2.209 . S
O277 Mn253 2.215 . S
O277 C254 1.283 . S
O278 Mn252 2.094 . S
O278 C256 1.240 . S
O279 Mn253 2.117 . S
O279 C256 1.264 . S
C280 C273 1.403 . S
C280 C281 1.399 . S
C280 H286 0.929 . S
C281 C261 1.449 . S
C281 C280 1.399 . S
C281 H287 0.930 . S
H282 C262 0.931 . S
H283 C263 0.930 . S
H284 C271 0.931 . S
H285 C272 0.929 . S
H286 C280 0.929 . S
H287 C281 0.930 . S
Mn288 O293 2.095 . S
Mn288 O303 2.162 . S
Mn288 O304 2.297 . S
Mn288 O312 2.385 . S
Mn288 O313 2.209 . S
Mn288 O314 2.094 . S
Mn289 O294 2.121 . S
Mn289 N296 2.257 . S
Mn289 N305 2.282 . S
Mn289 O313 2.215 . S
Mn289 O315 2.117 . S
C290 O312 1.234 . S
C290 O313 1.283 . S
C291 O303 1.281 . S
C291 O304 1.236 . S
C292 O314 1.240 . S
C292 O315 1.264 . S
O293 Mn288 2.095 . S
O293 C302 1.250 . S
O294 Mn289 2.121 . S
O294 C302 1.258 . S
C295 N296 1.326 . S
C295 C299 1.460 . S
C295 H301 0.929 . S
N296 Mn289 2.257 . S
N296 C295 1.326 . S
N296 C300 1.362 . S
C297 C298 1.258 . S
C297 C300 1.431 . S
C297 C317 1.449 . S
C298 C297 1.258 . S
C298 C299 1.477 . S
C298 H318 0.931 . S
C299 C295 1.460 . S
C299 C298 1.477 . S
C299 H319 0.930 . S
C300 N296 1.362 . S
C300 C297 1.431 . S
C300 C310 1.476 . S
H301 C295 0.929 . S
C302 O293 1.250 . S
C302 O294 1.258 . S
O303 Mn288 2.162 . S
O303 C291 1.281 . S
O304 Mn288 2.297 . S
O304 C291 1.236 . S
N305 Mn289 2.282 . S
N305 C306 1.328 . S
N305 C310 1.318 . S
C306 N305 1.328 . S
C306 C307 1.457 . S
C306 H311 0.929 . S
C307 C306 1.457 . S
C307 C308 1.291 . S
C307 H320 0.931 . S
C308 C307 1.291 . S
C308 C309 1.373 . S
C308 H321 0.929 . S
C309 C308 1.373 . S
C309 C310 1.396 . S
C309 C316 1.403 . S
C310 C300 1.476 . S
C310 N305 1.318 . S
C310 C309 1.396 . S
H311 C306 0.929 . S
O312 Mn288 2.385 . S
O312 C290 1.234 . S
O313 Mn288 2.209 . S
O313 Mn289 2.215 . S
O313 C290 1.283 . S
O314 Mn288 2.094 . S
O314 C292 1.240 . S
O315 Mn289 2.117 . S
O315 C292 1.264 . S
C316 C309 1.403 . S
C316 C317 1.399 . S
C316 H322 0.929 . S
C317 C297 1.449 . S
C317 C316 1.399 . S
C317 H323 0.930 . S
H318 C298 0.931 . S
H319 C299 0.930 . S
H320 C307 0.931 . S
H321 C308 0.929 . S
H322 C316 0.929 . S
H323 C317 0.930 . S
Mn324 O329 2.095 . S
Mn324 O339 2.162 . S
Mn324 O340 2.297 . S
Mn324 O348 2.385 . S
Mn324 O349 2.209 . S
Mn324 O350 2.094 . S
Mn325 O330 2.121 . S
Mn325 N332 2.257 . S
Mn325 N341 2.282 . S
Mn325 O349 2.215 . S
Mn325 O351 2.117 . S
C326 O348 1.234 . S
C326 O349 1.283 . S
C327 O339 1.281 . S
C327 O340 1.236 . S
C328 O350 1.240 . S
C328 O351 1.264 . S
O329 Mn324 2.095 . S
O329 C338 1.250 . S
O330 Mn325 2.121 . S
O330 C338 1.258 . S
C331 N332 1.326 . S
C331 C335 1.460 . S
C331 H337 0.929 . S
N332 Mn325 2.257 . S
N332 C331 1.326 . S
N332 C336 1.362 . S
C333 C334 1.258 . S
C333 C336 1.431 . S
C333 C353 1.449 . S
C334 C333 1.258 . S
C334 C335 1.477 . S
C334 H354 0.931 . S
C335 C331 1.460 . S
C335 C334 1.477 . S
C335 H355 0.930 . S
C336 N332 1.362 . S
C336 C333 1.431 . S
C336 C346 1.476 . S
H337 C331 0.929 . S
C338 O329 1.250 . S
C338 O330 1.258 . S
O339 Mn324 2.162 . S
O339 C327 1.281 . S
O340 Mn324 2.297 . S
O340 C327 1.236 . S
N341 Mn325 2.282 . S
N341 C342 1.328 . S
N341 C346 1.318 . S
C342 N341 1.328 . S
C342 C343 1.457 . S
C342 H347 0.929 . S
C343 C342 1.457 . S
C343 C344 1.291 . S
C343 H356 0.931 . S
C344 C343 1.291 . S
C344 C345 1.373 . S
C344 H357 0.929 . S
C345 C344 1.373 . S
C345 C346 1.396 . S
C345 C352 1.403 . S
C346 C336 1.476 . S
C346 N341 1.318 . S
C346 C345 1.396 . S
H347 C342 0.929 . S
O348 Mn324 2.385 . S
O348 C326 1.234 . S
O349 Mn324 2.209 . S
O349 Mn325 2.215 . S
O349 C326 1.283 . S
O350 Mn324 2.094 . S
O350 C328 1.240 . S
O351 Mn325 2.117 . S
O351 C328 1.264 . S
C352 C345 1.403 . S
C352 C353 1.399 . S
C352 H358 0.929 . S
C353 C333 1.449 . S
C353 C352 1.399 . S
C353 H359 0.930 . S
H354 C334 0.931 . S
H355 C335 0.930 . S
H356 C343 0.931 . S
H357 C344 0.929 . S
H358 C352 0.929 . S
H359 C353 0.930 . S
Mn360 O365 2.095 . S
Mn360 O375 2.162 . S
Mn360 O376 2.297 . S
Mn360 O384 2.385 . S
Mn360 O385 2.209 . S
Mn360 O386 2.094 . S
Mn361 O366 2.121 . S
Mn361 N368 2.257 . S
Mn361 N377 2.282 . S
Mn361 O385 2.215 . S
Mn361 O387 2.117 . S
C362 O384 1.234 . S
C362 O385 1.283 . S
C363 O375 1.281 . S
C363 O376 1.236 . S
C364 O386 1.240 . S
C364 O387 1.264 . S
O365 Mn360 2.095 . S
O365 C374 1.250 . S
O366 Mn361 2.121 . S
O366 C374 1.258 . S
C367 N368 1.326 . S
C367 C371 1.460 . S
C367 H373 0.929 . S
N368 Mn361 2.257 . S
N368 C367 1.326 . S
N368 C372 1.362 . S
C369 C370 1.258 . S
C369 C372 1.431 . S
C369 C389 1.449 . S
C370 C369 1.258 . S
C370 C371 1.477 . S
C370 H390 0.931 . S
C371 C367 1.460 . S
C371 C370 1.477 . S
C371 H391 0.930 . S
C372 N368 1.362 . S
C372 C369 1.431 . S
C372 C382 1.476 . S
H373 C367 0.929 . S
C374 O365 1.250 . S
C374 O366 1.258 . S
O375 Mn360 2.162 . S
O375 C363 1.281 . S
O376 Mn360 2.297 . S
O376 C363 1.236 . S
N377 Mn361 2.282 . S
N377 C378 1.328 . S
N377 C382 1.318 . S
C378 N377 1.328 . S
C378 C379 1.457 . S
C378 H383 0.929 . S
C379 C378 1.457 . S
C379 C380 1.291 . S
C379 H392 0.931 . S
C380 C379 1.291 . S
C380 C381 1.373 . S
C380 H393 0.929 . S
C381 C380 1.373 . S
C381 C382 1.396 . S
C381 C388 1.403 . S
C382 C372 1.476 . S
C382 N377 1.318 . S
C382 C381 1.396 . S
H383 C378 0.929 . S
O384 Mn360 2.385 . S
O384 C362 1.234 . S
O385 Mn360 2.209 . S
O385 Mn361 2.215 . S
O385 C362 1.283 . S
O386 Mn360 2.094 . S
O386 C364 1.240 . S
O387 Mn361 2.117 . S
O387 C364 1.264 . S
C388 C381 1.403 . S
C388 C389 1.399 . S
C388 H394 0.929 . S
C389 C369 1.449 . S
C389 C388 1.399 . S
C389 H395 0.930 . S
H390 C370 0.931 . S
H391 C371 0.930 . S
H392 C379 0.931 . S
H393 C380 0.929 . S
H394 C388 0.929 . S
H395 C389 0.930 . S
Mn396 O401 2.095 . S
Mn396 O411 2.162 . S
Mn396 O412 2.297 . S
Mn396 O420 2.385 . S
Mn396 O421 2.209 . S
Mn396 O422 2.094 . S
Mn397 O402 2.121 . S
Mn397 N404 2.257 . S
Mn397 N413 2.282 . S
Mn397 O421 2.215 . S
Mn397 O423 2.117 . S
C398 O420 1.234 . S
C398 O421 1.283 . S
C399 O411 1.281 . S
C399 O412 1.236 . S
C400 O422 1.240 . S
C400 O423 1.264 . S
O401 Mn396 2.095 . S
O401 C410 1.250 . S
O402 Mn397 2.121 . S
O402 C410 1.258 . S
C403 N404 1.326 . S
C403 C407 1.460 . S
C403 H409 0.929 . S
N404 Mn397 2.257 . S
N404 C403 1.326 . S
N404 C408 1.362 . S
C405 C406 1.258 . S
C405 C408 1.431 . S
C405 C425 1.449 . S
C406 C405 1.258 . S
C406 C407 1.477 . S
C406 H426 0.931 . S
C407 C403 1.460 . S
C407 C406 1.477 . S
C407 H427 0.930 . S
C408 N404 1.362 . S
C408 C405 1.431 . S
C408 C418 1.476 . S
H409 C403 0.929 . S
C410 O401 1.250 . S
C410 O402 1.258 . S
O411 Mn396 2.162 . S
O411 C399 1.281 . S
O412 Mn396 2.297 . S
O412 C399 1.236 . S
N413 Mn397 2.282 . S
N413 C414 1.328 . S
N413 C418 1.318 . S
C414 N413 1.328 . S
C414 C415 1.457 . S
C414 H419 0.929 . S
C415 C414 1.457 . S
C415 C416 1.291 . S
C415 H428 0.931 . S
C416 C415 1.291 . S
C416 C417 1.373 . S
C416 H429 0.929 . S
C417 C416 1.373 . S
C417 C418 1.396 . S
C417 C424 1.403 . S
C418 C408 1.476 . S
C418 N413 1.318 . S
C418 C417 1.396 . S
H419 C414 0.929 . S
O420 Mn396 2.385 . S
O420 C398 1.234 . S
O421 Mn396 2.209 . S
O421 Mn397 2.215 . S
O421 C398 1.283 . S
O422 Mn396 2.094 . S
O422 C400 1.240 . S
O423 Mn397 2.117 . S
O423 C400 1.264 . S
C424 C417 1.403 . S
C424 C425 1.399 . S
C424 H430 0.929 . S
C425 C405 1.449 . S
C425 C424 1.399 . S
C425 H431 0.930 . S
H426 C406 0.931 . S
H427 C407 0.930 . S
H428 C415 0.931 . S
H429 C416 0.929 . S
H430 C424 0.929 . S
H431 C425 0.930 . S
Mn432 O437 2.095 . S
Mn432 O447 2.162 . S
Mn432 O448 2.297 . S
Mn432 O456 2.385 . S
Mn432 O457 2.209 . S
Mn432 O458 2.094 . S
Mn433 O438 2.121 . S
Mn433 N440 2.257 . S
Mn433 N449 2.282 . S
Mn433 O457 2.215 . S
Mn433 O459 2.117 . S
C434 O456 1.234 . S
C434 O457 1.283 . S
C435 O447 1.281 . S
C435 O448 1.236 . S
C436 O458 1.240 . S
C436 O459 1.264 . S
O437 Mn432 2.095 . S
O437 C446 1.250 . S
O438 Mn433 2.121 . S
O438 C446 1.258 . S
C439 N440 1.326 . S
C439 C443 1.460 . S
C439 H445 0.929 . S
N440 Mn433 2.257 . S
N440 C439 1.326 . S
N440 C444 1.362 . S
C441 C442 1.258 . S
C441 C444 1.431 . S
C441 C461 1.449 . S
C442 C441 1.258 . S
C442 C443 1.477 . S
C442 H462 0.931 . S
C443 C439 1.460 . S
C443 C442 1.477 . S
C443 H463 0.930 . S
C444 N440 1.362 . S
C444 C441 1.431 . S
C444 C454 1.476 . S
H445 C439 0.929 . S
C446 O437 1.250 . S
C446 O438 1.258 . S
O447 Mn432 2.162 . S
O447 C435 1.281 . S
O448 Mn432 2.297 . S
O448 C435 1.236 . S
N449 Mn433 2.282 . S
N449 C450 1.328 . S
N449 C454 1.318 . S
C450 N449 1.328 . S
C450 C451 1.457 . S
C450 H455 0.929 . S
C451 C450 1.457 . S
C451 C452 1.291 . S
C451 H464 0.931 . S
C452 C451 1.291 . S
C452 C453 1.373 . S
C452 H465 0.929 . S
C453 C452 1.373 . S
C453 C454 1.396 . S
C453 C460 1.403 . S
C454 C444 1.476 . S
C454 N449 1.318 . S
C454 C453 1.396 . S
H455 C450 0.929 . S
O456 Mn432 2.385 . S
O456 C434 1.234 . S
O457 Mn432 2.209 . S
O457 Mn433 2.215 . S
O457 C434 1.283 . S
O458 Mn432 2.094 . S
O458 C436 1.240 . S
O459 Mn433 2.117 . S
O459 C436 1.264 . S
C460 C453 1.403 . S
C460 C461 1.399 . S
C460 H466 0.929 . S
C461 C441 1.449 . S
C461 C460 1.399 . S
C461 H467 0.930 . S
H462 C442 0.931 . S
H463 C443 0.930 . S
H464 C451 0.931 . S
H465 C452 0.929 . S
H466 C460 0.929 . S
H467 C461 0.930 . S
Mn468 O473 2.095 . S
Mn468 O483 2.162 . S
Mn468 O484 2.297 . S
Mn468 O492 2.385 . S
Mn468 O493 2.209 . S
Mn468 O494 2.094 . S
Mn469 O474 2.121 . S
Mn469 N476 2.257 . S
Mn469 N485 2.282 . S
Mn469 O493 2.215 . S
Mn469 O495 2.117 . S
C470 O492 1.234 . S
C470 O493 1.283 . S
C471 O483 1.281 . S
C471 O484 1.236 . S
C472 O494 1.240 . S
C472 O495 1.264 . S
O473 Mn468 2.095 . S
O473 C482 1.250 . S
O474 Mn469 2.121 . S
O474 C482 1.258 . S
C475 N476 1.326 . S
C475 C479 1.460 . S
C475 H481 0.929 . S
N476 Mn469 2.257 . S
N476 C475 1.326 . S
N476 C480 1.362 . S
C477 C478 1.258 . S
C477 C480 1.431 . S
C477 C497 1.449 . S
C478 C477 1.258 . S
C478 C479 1.477 . S
C478 H498 0.931 . S
C479 C475 1.460 . S
C479 C478 1.477 . S
C479 H499 0.930 . S
C480 N476 1.362 . S
C480 C477 1.431 . S
C480 C490 1.476 . S
H481 C475 0.929 . S
C482 O473 1.250 . S
C482 O474 1.258 . S
O483 Mn468 2.162 . S
O483 C471 1.281 . S
O484 Mn468 2.297 . S
O484 C471 1.236 . S
N485 Mn469 2.282 . S
N485 C486 1.328 . S
N485 C490 1.318 . S
C486 N485 1.328 . S
C486 C487 1.457 . S
C486 H491 0.929 . S
C487 C486 1.457 . S
C487 C488 1.291 . S
C487 H500 0.931 . S
C488 C487 1.291 . S
C488 C489 1.373 . S
C488 H501 0.929 . S
C489 C488 1.373 . S
C489 C490 1.396 . S
C489 C496 1.403 . S
C490 C480 1.476 . S
C490 N485 1.318 . S
C490 C489 1.396 . S
H491 C486 0.929 . S
O492 Mn468 2.385 . S
O492 C470 1.234 . S
O493 Mn468 2.209 . S
O493 Mn469 2.215 . S
O493 C470 1.283 . S
O494 Mn468 2.094 . S
O494 C472 1.240 . S
O495 Mn469 2.117 . S
O495 C472 1.264 . S
C496 C489 1.403 . S
C496 C497 1.399 . S
C496 H502 0.929 . S
C497 C477 1.449 . S
C497 C496 1.399 . S
C497 H503 0.930 . S
H498 C478 0.931 . S
H499 C479 0.930 . S
H500 C487 0.931 . S
H501 C488 0.929 . S
H502 C496 0.929 . S
H503 C497 0.930 . S
Mn504 O509 2.095 . S
Mn504 O519 2.162 . S
Mn504 O520 2.297 . S
Mn504 O528 2.385 . S
Mn504 O529 2.209 . S
Mn504 O530 2.094 . S
Mn505 O510 2.121 . S
Mn505 N512 2.257 . S
Mn505 N521 2.282 . S
Mn505 O529 2.215 . S
Mn505 O531 2.117 . S
C506 O528 1.234 . S
C506 O529 1.283 . S
C507 O519 1.281 . S
C507 O520 1.236 . S
C508 O530 1.240 . S
C508 O531 1.264 . S
O509 Mn504 2.095 . S
O509 C518 1.250 . S
O510 Mn505 2.121 . S
O510 C518 1.258 . S
C511 N512 1.326 . S
C511 C515 1.460 . S
C511 H517 0.929 . S
N512 Mn505 2.257 . S
N512 C511 1.326 . S
N512 C516 1.362 . S
C513 C514 1.258 . S
C513 C516 1.431 . S
C513 C533 1.449 . S
C514 C513 1.258 . S
C514 C515 1.477 . S
C514 H534 0.931 . S
C515 C511 1.460 . S
C515 C514 1.477 . S
C515 H535 0.930 . S
C516 N512 1.362 . S
C516 C513 1.431 . S
C516 C526 1.476 . S
H517 C511 0.929 . S
C518 O509 1.250 . S
C518 O510 1.258 . S
O519 Mn504 2.162 . S
O519 C507 1.281 . S
O520 Mn504 2.297 . S
O520 C507 1.236 . S
N521 Mn505 2.282 . S
N521 C522 1.328 . S
N521 C526 1.318 . S
C522 N521 1.328 . S
C522 C523 1.457 . S
C522 H527 0.929 . S
C523 C522 1.457 . S
C523 C524 1.291 . S
C523 H536 0.931 . S
C524 C523 1.291 . S
C524 C525 1.373 . S
C524 H537 0.929 . S
C525 C524 1.373 . S
C525 C526 1.396 . S
C525 C532 1.403 . S
C526 C516 1.476 . S
C526 N521 1.318 . S
C526 C525 1.396 . S
H527 C522 0.929 . S
O528 Mn504 2.385 . S
O528 C506 1.234 . S
O529 Mn504 2.209 . S
O529 Mn505 2.215 . S
O529 C506 1.283 . S
O530 Mn504 2.094 . S
O530 C508 1.240 . S
O531 Mn505 2.117 . S
O531 C508 1.264 . S
C532 C525 1.403 . S
C532 C533 1.399 . S
C532 H538 0.929 . S
C533 C513 1.449 . S
C533 C532 1.399 . S
C533 H539 0.930 . S
H534 C514 0.931 . S
H535 C515 0.930 . S
H536 C523 0.931 . S
H537 C524 0.929 . S
H538 C532 0.929 . S
H539 C533 0.930 . S
Mn540 O545 2.095 . S
Mn540 O555 2.162 . S
Mn540 O556 2.297 . S
Mn540 O564 2.385 . S
Mn540 O565 2.209 . S
Mn540 O566 2.094 . S
Mn541 O546 2.121 . S
Mn541 N548 2.257 . S
Mn541 N557 2.282 . S
Mn541 O565 2.215 . S
Mn541 O567 2.117 . S
C542 O564 1.234 . S
C542 O565 1.283 . S
C543 O555 1.281 . S
C543 O556 1.236 . S
C544 O566 1.240 . S
C544 O567 1.264 . S
O545 Mn540 2.095 . S
O545 C554 1.250 . S
O546 Mn541 2.121 . S
O546 C554 1.258 . S
C547 N548 1.326 . S
C547 C551 1.460 . S
C547 H553 0.929 . S
N548 Mn541 2.257 . S
N548 C547 1.326 . S
N548 C552 1.362 . S
C549 C550 1.258 . S
C549 C552 1.431 . S
C549 C569 1.449 . S
C550 C549 1.258 . S
C550 C551 1.477 . S
C550 H570 0.931 . S
C551 C547 1.460 . S
C551 C550 1.477 . S
C551 H571 0.930 . S
C552 N548 1.362 . S
C552 C549 1.431 . S
C552 C562 1.476 . S
H553 C547 0.929 . S
C554 O545 1.250 . S
C554 O546 1.258 . S
O555 Mn540 2.162 . S
O555 C543 1.281 . S
O556 Mn540 2.297 . S
O556 C543 1.236 . S
N557 Mn541 2.282 . S
N557 C558 1.328 . S
N557 C562 1.318 . S
C558 N557 1.328 . S
C558 C559 1.457 . S
C558 H563 0.929 . S
C559 C558 1.457 . S
C559 C560 1.291 . S
C559 H572 0.931 . S
C560 C559 1.291 . S
C560 C561 1.373 . S
C560 H573 0.929 . S
C561 C560 1.373 . S
C561 C562 1.396 . S
C561 C568 1.403 . S
C562 C552 1.476 . S
C562 N557 1.318 . S
C562 C561 1.396 . S
H563 C558 0.929 . S
O564 Mn540 2.385 . S
O564 C542 1.234 . S
O565 Mn540 2.209 . S
O565 Mn541 2.215 . S
O565 C542 1.283 . S
O566 Mn540 2.094 . S
O566 C544 1.240 . S
O567 Mn541 2.117 . S
O567 C544 1.264 . S
C568 C561 1.403 . S
C568 C569 1.399 . S
C568 H574 0.929 . S
C569 C549 1.449 . S
C569 C568 1.399 . S
C569 H575 0.930 . S
H570 C550 0.931 . S
H571 C551 0.930 . S
H572 C559 0.931 . S
H573 C560 0.929 . S
H574 C568 0.929 . S
H575 C569 0.930 . S
H576 C588 0.930 . S
H577 C590 0.930 . S
H578 C591 0.930 . S
H579 C595 0.959 . S
H580 C595 0.959 . S
H581 C595 0.961 . S
H582 C596 0.960 . S
H583 C596 0.961 . S
H584 C596 0.959 . S
H585 C599 0.929 . S
H586 C600 0.931 . S
H587 C602 0.930 . S
C588 H576 0.930 . S
C588 C589 1.399 . S
C588 C593 1.399 . S
C589 C588 1.399 . S
C589 C590 1.376 . S
C590 H577 0.930 . S
C590 C589 1.376 . S
C590 C591 1.388 . S
C591 H578 0.930 . S
C591 C590 1.388 . S
C591 C592 1.390 . S
C592 C591 1.390 . S
C592 C593 1.394 . S
C592 C598 1.465 . S
C593 C588 1.399 . S
C593 C592 1.394 . S
C593 C594 1.516 . S
C594 C593 1.516 . S
C594 C595 1.502 . S
C594 C596 1.561 . S
C594 C597 1.526 . S
C595 H579 0.959 . S
C595 H580 0.959 . S
C595 H581 0.961 . S
C595 C594 1.502 . S
C596 H582 0.960 . S
C596 H583 0.961 . S
C596 H584 0.959 . S
C596 C594 1.561 . S
C597 C594 1.526 . S
C597 C598 1.396 . S
C597 C602 1.390 . S
C598 C592 1.465 . S
C598 C597 1.396 . S
C598 C599 1.399 . S
C599 H585 0.929 . S
C599 C598 1.399 . S
C599 C600 1.385 . S
C600 H586 0.931 . S
C600 C599 1.385 . S
C600 C601 1.389 . S
C601 C600 1.389 . S
C601 C602 1.387 . S
C602 H587 0.930 . S
C602 C597 1.390 . S
C602 C601 1.387 . S
H603 C615 0.930 . S
H604 C617 0.930 . S
H605 C618 0.930 . S
H606 C622 0.959 . S
H607 C622 0.959 . S
H608 C622 0.961 . S
H609 C623 0.960 . S
H610 C623 0.961 . S
H611 C623 0.959 . S
H612 C626 0.929 . S
H613 C627 0.931 . S
H614 C629 0.930 . S
C615 H603 0.930 . S
C615 C616 1.399 . S
C615 C620 1.399 . S
C616 C615 1.399 . S
C616 C617 1.376 . S
C617 H604 0.930 . S
C617 C616 1.376 . S
C617 C618 1.388 . S
C618 H605 0.930 . S
C618 C617 1.388 . S
C618 C619 1.390 . S
C619 C618 1.390 . S
C619 C620 1.394 . S
C619 C625 1.465 . S
C620 C615 1.399 . S
C620 C619 1.394 . S
C620 C621 1.516 . S
C621 C620 1.516 . S
C621 C622 1.502 . S
C621 C623 1.561 . S
C621 C624 1.526 . S
C622 H606 0.959 . S
C622 H607 0.959 . S
C622 H608 0.961 . S
C622 C621 1.502 . S
C623 H609 0.960 . S
C623 H610 0.961 . S
C623 H611 0.959 . S
C623 C621 1.561 . S
C624 C621 1.526 . S
C624 C625 1.396 . S
C624 C629 1.390 . S
C625 C619 1.465 . S
C625 C624 1.396 . S
C625 C626 1.399 . S
C626 H612 0.929 . S
C626 C625 1.399 . S
C626 C627 1.385 . S
C627 H613 0.931 . S
C627 C626 1.385 . S
C627 C628 1.389 . S
C628 C627 1.389 . S
C628 C629 1.387 . S
C629 H614 0.930 . S
C629 C624 1.390 . S
C629 C628 1.387 . S
H630 C642 0.930 . S
H631 C644 0.930 . S
H632 C645 0.930 . S
H633 C649 0.959 . S
H634 C649 0.959 . S
H635 C649 0.961 . S
H636 C650 0.960 . S
H637 C650 0.961 . S
H638 C650 0.959 . S
H639 C653 0.929 . S
H640 C654 0.931 . S
H641 C656 0.930 . S
C642 H630 0.930 . S
C642 C643 1.399 . S
C642 C647 1.399 . S
C643 C642 1.399 . S
C643 C644 1.376 . S
C644 H631 0.930 . S
C644 C643 1.376 . S
C644 C645 1.388 . S
C645 H632 0.930 . S
C645 C644 1.388 . S
C645 C646 1.390 . S
C646 C645 1.390 . S
C646 C647 1.394 . S
C646 C652 1.465 . S
C647 C642 1.399 . S
C647 C646 1.394 . S
C647 C648 1.516 . S
C648 C647 1.516 . S
C648 C649 1.502 . S
C648 C650 1.561 . S
C648 C651 1.526 . S
C649 H633 0.959 . S
C649 H634 0.959 . S
C649 H635 0.961 . S
C649 C648 1.502 . S
C650 H636 0.960 . S
C650 H637 0.961 . S
C650 H638 0.959 . S
C650 C648 1.561 . S
C651 C648 1.526 . S
C651 C652 1.396 . S
C651 C656 1.390 . S
C652 C646 1.465 . S
C652 C651 1.396 . S
C652 C653 1.399 . S
C653 H639 0.929 . S
C653 C652 1.399 . S
C653 C654 1.385 . S
C654 H640 0.931 . S
C654 C653 1.385 . S
C654 C655 1.389 . S
C655 C654 1.389 . S
C655 C656 1.387 . S
C656 H641 0.930 . S
C656 C651 1.390 . S
C656 C655 1.387 . S
H657 C669 0.930 . S
H658 C671 0.930 . S
H659 C672 0.930 . S
H660 C676 0.959 . S
H661 C676 0.959 . S
H662 C676 0.961 . S
H663 C677 0.960 . S
H664 C677 0.961 . S
H665 C677 0.959 . S
H666 C680 0.929 . S
H667 C681 0.931 . S
H668 C683 0.930 . S
C669 H657 0.930 . S
C669 C670 1.399 . S
C669 C674 1.399 . S
C670 C669 1.399 . S
C670 C671 1.376 . S
C671 H658 0.930 . S
C671 C670 1.376 . S
C671 C672 1.388 . S
C672 H659 0.930 . S
C672 C671 1.388 . S
C672 C673 1.390 . S
C673 C672 1.390 . S
C673 C674 1.394 . S
C673 C679 1.465 . S
C674 C669 1.399 . S
C674 C673 1.394 . S
C674 C675 1.516 . S
C675 C674 1.516 . S
C675 C676 1.502 . S
C675 C677 1.561 . S
C675 C678 1.526 . S
C676 H660 0.959 . S
C676 H661 0.959 . S
C676 H662 0.961 . S
C676 C675 1.502 . S
C677 H663 0.960 . S
C677 H664 0.961 . S
C677 H665 0.959 . S
C677 C675 1.561 . S
C678 C675 1.526 . S
C678 C679 1.396 . S
C678 C683 1.390 . S
C679 C673 1.465 . S
C679 C678 1.396 . S
C679 C680 1.399 . S
C680 H666 0.929 . S
C680 C679 1.399 . S
C680 C681 1.385 . S
C681 H667 0.931 . S
C681 C680 1.385 . S
C681 C682 1.389 . S
C682 C681 1.389 . S
C682 C683 1.387 . S
C683 H668 0.930 . S
C683 C678 1.390 . S
C683 C682 1.387 . S
H684 C696 0.930 . S
H685 C698 0.930 . S
H686 C699 0.930 . S
H687 C703 0.959 . S
H688 C703 0.959 . S
H689 C703 0.961 . S
H690 C704 0.960 . S
H691 C704 0.961 . S
H692 C704 0.959 . S
H693 C707 0.929 . S
H694 C708 0.931 . S
H695 C710 0.930 . S
C696 H684 0.930 . S
C696 C697 1.399 . S
C696 C701 1.399 . S
C697 C696 1.399 . S
C697 C698 1.376 . S
C698 H685 0.930 . S
C698 C697 1.376 . S
C698 C699 1.388 . S
C699 H686 0.930 . S
C699 C698 1.388 . S
C699 C700 1.390 . S
C700 C699 1.390 . S
C700 C701 1.394 . S
C700 C706 1.465 . S
C701 C696 1.399 . S
C701 C700 1.394 . S
C701 C702 1.516 . S
C702 C701 1.516 . S
C702 C703 1.502 . S
C702 C704 1.561 . S
C702 C705 1.526 . S
C703 H687 0.959 . S
C703 H688 0.959 . S
C703 H689 0.961 . S
C703 C702 1.502 . S
C704 H690 0.960 . S
C704 H691 0.961 . S
C704 H692 0.959 . S
C704 C702 1.561 . S
C705 C702 1.526 . S
C705 C706 1.396 . S
C705 C710 1.390 . S
C706 C700 1.465 . S
C706 C705 1.396 . S
C706 C707 1.399 . S
C707 H693 0.929 . S
C707 C706 1.399 . S
C707 C708 1.385 . S
C708 H694 0.931 . S
C708 C707 1.385 . S
C708 C709 1.389 . S
C709 C708 1.389 . S
C709 C710 1.387 . S
C710 H695 0.930 . S
C710 C705 1.390 . S
C710 C709 1.387 . S
H711 C723 0.930 . S
H712 C725 0.930 . S
H713 C726 0.930 . S
H714 C730 0.959 . S
H715 C730 0.959 . S
H716 C730 0.961 . S
H717 C731 0.960 . S
H718 C731 0.961 . S
H719 C731 0.959 . S
H720 C734 0.929 . S
H721 C735 0.931 . S
H722 C737 0.930 . S
C723 H711 0.930 . S
C723 C724 1.399 . S
C723 C728 1.399 . S
C724 C723 1.399 . S
C724 C725 1.376 . S
C725 H712 0.930 . S
C725 C724 1.376 . S
C725 C726 1.388 . S
C726 H713 0.930 . S
C726 C725 1.388 . S
C726 C727 1.390 . S
C727 C726 1.390 . S
C727 C728 1.394 . S
C727 C733 1.465 . S
C728 C723 1.399 . S
C728 C727 1.394 . S
C728 C729 1.516 . S
C729 C728 1.516 . S
C729 C730 1.502 . S
C729 C731 1.561 . S
C729 C732 1.526 . S
C730 H714 0.959 . S
C730 H715 0.959 . S
C730 H716 0.961 . S
C730 C729 1.502 . S
C731 H717 0.960 . S
C731 H718 0.961 . S
C731 H719 0.959 . S
C731 C729 1.561 . S
C732 C729 1.526 . S
C732 C733 1.396 . S
C732 C737 1.390 . S
C733 C727 1.465 . S
C733 C732 1.396 . S
C733 C734 1.399 . S
C734 H720 0.929 . S
C734 C733 1.399 . S
C734 C735 1.385 . S
C735 H721 0.931 . S
C735 C734 1.385 . S
C735 C736 1.389 . S
C736 C735 1.389 . S
C736 C737 1.387 . S
C737 H722 0.930 . S
C737 C732 1.390 . S
C737 C736 1.387 . S
H738 C750 0.930 . S
H739 C752 0.930 . S
H740 C753 0.930 . S
H741 C757 0.959 . S
H742 C757 0.959 . S
H743 C757 0.961 . S
H744 C758 0.960 . S
H745 C758 0.961 . S
H746 C758 0.959 . S
H747 C761 0.929 . S
H748 C762 0.931 . S
H749 C764 0.930 . S
C750 H738 0.930 . S
C750 C751 1.399 . S
C750 C755 1.399 . S
C751 C750 1.399 . S
C751 C752 1.376 . S
C752 H739 0.930 . S
C752 C751 1.376 . S
C752 C753 1.388 . S
C753 H740 0.930 . S
C753 C752 1.388 . S
C753 C754 1.390 . S
C754 C753 1.390 . S
C754 C755 1.394 . S
C754 C760 1.465 . S
C755 C750 1.399 . S
C755 C754 1.394 . S
C755 C756 1.516 . S
C756 C755 1.516 . S
C756 C757 1.502 . S
C756 C758 1.561 . S
C756 C759 1.526 . S
C757 H741 0.959 . S
C757 H742 0.959 . S
C757 H743 0.961 . S
C757 C756 1.502 . S
C758 H744 0.960 . S
C758 H745 0.961 . S
C758 H746 0.959 . S
C758 C756 1.561 . S
C759 C756 1.526 . S
C759 C760 1.396 . S
C759 C764 1.390 . S
C760 C754 1.465 . S
C760 C759 1.396 . S
C760 C761 1.399 . S
C761 H747 0.929 . S
C761 C760 1.399 . S
C761 C762 1.385 . S
C762 H748 0.931 . S
C762 C761 1.385 . S
C762 C763 1.389 . S
C763 C762 1.389 . S
C763 C764 1.387 . S
C764 H749 0.930 . S
C764 C759 1.390 . S
C764 C763 1.387 . S
H765 C777 0.930 . S
H766 C779 0.930 . S
H767 C780 0.930 . S
H768 C784 0.959 . S
H769 C784 0.959 . S
H770 C784 0.961 . S
H771 C785 0.960 . S
H772 C785 0.961 . S
H773 C785 0.959 . S
H774 C788 0.929 . S
H775 C789 0.931 . S
H776 C791 0.930 . S
C777 H765 0.930 . S
C777 C778 1.399 . S
C777 C782 1.399 . S
C778 C777 1.399 . S
C778 C779 1.376 . S
C779 H766 0.930 . S
C779 C778 1.376 . S
C779 C780 1.388 . S
C780 H767 0.930 . S
C780 C779 1.388 . S
C780 C781 1.390 . S
C781 C780 1.390 . S
C781 C782 1.394 . S
C781 C787 1.465 . S
C782 C777 1.399 . S
C782 C781 1.394 . S
C782 C783 1.516 . S
C783 C782 1.516 . S
C783 C784 1.502 . S
C783 C785 1.561 . S
C783 C786 1.526 . S
C784 H768 0.959 . S
C784 H769 0.959 . S
C784 H770 0.961 . S
C784 C783 1.502 . S
C785 H771 0.960 . S
C785 H772 0.961 . S
C785 H773 0.959 . S
C785 C783 1.561 . S
C786 C783 1.526 . S
C786 C787 1.396 . S
C786 C791 1.390 . S
C787 C781 1.465 . S
C787 C786 1.396 . S
C787 C788 1.399 . S
C788 H774 0.929 . S
C788 C787 1.399 . S
C788 C789 1.385 . S
C789 H775 0.931 . S
C789 C788 1.385 . S
C789 C790 1.389 . S
C790 C789 1.389 . S
C790 C791 1.387 . S
C791 H776 0.930 . S
C791 C786 1.390 . S
C791 C790 1.387 . S
H792 C804 0.930 . S
H793 C806 0.930 . S
H794 C807 0.930 . S
H795 C811 0.959 . S
H796 C811 0.959 . S
H797 C811 0.961 . S
H798 C812 0.960 . S
H799 C812 0.961 . S
H800 C812 0.959 . S
H801 C815 0.929 . S
H802 C816 0.931 . S
H803 C818 0.930 . S
C804 H792 0.930 . S
C804 C805 1.399 . S
C804 C809 1.399 . S
C805 C804 1.399 . S
C805 C806 1.376 . S
C806 H793 0.930 . S
C806 C805 1.376 . S
C806 C807 1.388 . S
C807 H794 0.930 . S
C807 C806 1.388 . S
C807 C808 1.390 . S
C808 C807 1.390 . S
C808 C809 1.394 . S
C808 C814 1.465 . S
C809 C804 1.399 . S
C809 C808 1.394 . S
C809 C810 1.516 . S
C810 C809 1.516 . S
C810 C811 1.502 . S
C810 C812 1.561 . S
C810 C813 1.526 . S
C811 H795 0.959 . S
C811 H796 0.959 . S
C811 H797 0.961 . S
C811 C810 1.502 . S
C812 H798 0.960 . S
C812 H799 0.961 . S
C812 H800 0.959 . S
C812 C810 1.561 . S
C813 C810 1.526 . S
C813 C814 1.396 . S
C813 C818 1.390 . S
C814 C808 1.465 . S
C814 C813 1.396 . S
C814 C815 1.399 . S
C815 H801 0.929 . S
C815 C814 1.399 . S
C815 C816 1.385 . S
C816 H802 0.931 . S
C816 C815 1.385 . S
C816 C817 1.389 . S
C817 C816 1.389 . S
C817 C818 1.387 . S
C818 H803 0.930 . S
C818 C813 1.390 . S
C818 C817 1.387 . S
H819 C831 0.930 . S
H820 C833 0.930 . S
H821 C834 0.930 . S
H822 C838 0.959 . S
H823 C838 0.959 . S
H824 C838 0.961 . S
H825 C839 0.960 . S
H826 C839 0.961 . S
H827 C839 0.959 . S
H828 C842 0.929 . S
H829 C843 0.931 . S
H830 C845 0.930 . S
C831 H819 0.930 . S
C831 C832 1.399 . S
C831 C836 1.399 . S
C832 C831 1.399 . S
C832 C833 1.376 . S
C833 H820 0.930 . S
C833 C832 1.376 . S
C833 C834 1.388 . S
C834 H821 0.930 . S
C834 C833 1.388 . S
C834 C835 1.390 . S
C835 C834 1.390 . S
C835 C836 1.394 . S
C835 C841 1.465 . S
C836 C831 1.399 . S
C836 C835 1.394 . S
C836 C837 1.516 . S
C837 C836 1.516 . S
C837 C838 1.502 . S
C837 C839 1.561 . S
C837 C840 1.526 . S
C838 H822 0.959 . S
C838 H823 0.959 . S
C838 H824 0.961 . S
C838 C837 1.502 . S
C839 H825 0.960 . S
C839 H826 0.961 . S
C839 H827 0.959 . S
C839 C837 1.561 . S
C840 C837 1.526 . S
C840 C841 1.396 . S
C840 C845 1.390 . S
C841 C835 1.465 . S
C841 C840 1.396 . S
C841 C842 1.399 . S
C842 H828 0.929 . S
C842 C841 1.399 . S
C842 C843 1.385 . S
C843 H829 0.931 . S
C843 C842 1.385 . S
C843 C844 1.389 . S
C844 C843 1.389 . S
C844 C845 1.387 . S
C845 H830 0.930 . S
C845 C840 1.390 . S
C845 C844 1.387 . S
H846 C858 0.930 . S
H847 C860 0.930 . S
H848 C861 0.930 . S
H849 C865 0.959 . S
H850 C865 0.959 . S
H851 C865 0.961 . S
H852 C866 0.960 . S
H853 C866 0.961 . S
H854 C866 0.959 . S
H855 C869 0.929 . S
H856 C870 0.931 . S
H857 C872 0.930 . S
C858 H846 0.930 . S
C858 C859 1.399 . S
C858 C863 1.399 . S
C859 C858 1.399 . S
C859 C860 1.376 . S
C860 H847 0.930 . S
C860 C859 1.376 . S
C860 C861 1.388 . S
C861 H848 0.930 . S
C861 C860 1.388 . S
C861 C862 1.390 . S
C862 C861 1.390 . S
C862 C863 1.394 . S
C862 C868 1.465 . S
C863 C858 1.399 . S
C863 C862 1.394 . S
C863 C864 1.516 . S
C864 C863 1.516 . S
C864 C865 1.502 . S
C864 C866 1.561 . S
C864 C867 1.526 . S
C865 H849 0.959 . S
C865 H850 0.959 . S
C865 H851 0.961 . S
C865 C864 1.502 . S
C866 H852 0.960 . S
C866 H853 0.961 . S
C866 H854 0.959 . S
C866 C864 1.561 . S
C867 C864 1.526 . S
C867 C868 1.396 . S
C867 C872 1.390 . S
C868 C862 1.465 . S
C868 C867 1.396 . S
C868 C869 1.399 . S
C869 H855 0.929 . S
C869 C868 1.399 . S
C869 C870 1.385 . S
C870 H856 0.931 . S
C870 C869 1.385 . S
C870 C871 1.389 . S
C871 C870 1.389 . S
C871 C872 1.387 . S
C872 H857 0.930 . S
C872 C867 1.390 . S
C872 C871 1.387 . S
H873 C885 0.930 . S
H874 C887 0.930 . S
H875 C888 0.930 . S
H876 C892 0.959 . S
H877 C892 0.959 . S
H878 C892 0.961 . S
H879 C893 0.960 . S
H880 C893 0.961 . S
H881 C893 0.959 . S
H882 C896 0.929 . S
H883 C897 0.931 . S
H884 C899 0.930 . S
C885 H873 0.930 . S
C885 C886 1.399 . S
C885 C890 1.399 . S
C886 C885 1.399 . S
C886 C887 1.376 . S
C887 H874 0.930 . S
C887 C886 1.376 . S
C887 C888 1.388 . S
C888 H875 0.930 . S
C888 C887 1.388 . S
C888 C889 1.390 . S
C889 C888 1.390 . S
C889 C890 1.394 . S
C889 C895 1.465 1_554 S
C890 C885 1.399 . S
C890 C889 1.394 . S
C890 C891 1.516 1_554 S
C891 C890 1.516 1_556 S
C891 C892 1.502 . S
C891 C893 1.561 . S
C891 C894 1.526 . S
C892 H876 0.959 . S
C892 H877 0.959 . S
C892 H878 0.961 . S
C892 C891 1.502 . S
C893 H879 0.960 . S
C893 H880 0.961 . S
C893 H881 0.959 . S
C893 C891 1.561 . S
C894 C891 1.526 . S
C894 C895 1.396 . S
C894 C899 1.390 . S
C895 C889 1.465 1_556 S
C895 C894 1.396 . S
C895 C896 1.399 . S
C896 H882 0.929 . S
C896 C895 1.399 . S
C896 C897 1.385 . S
C897 H883 0.931 . S
C897 C896 1.385 . S
C897 C898 1.389 . S
C898 C897 1.389 . S
C898 C899 1.387 . S
C899 H884 0.930 . S
C899 C894 1.390 . S
C899 C898 1.387 . S
H900 C912 0.930 . S
H901 C914 0.930 . S
H902 C915 0.930 . S
H903 C919 0.959 . S
H904 C919 0.959 . S
H905 C919 0.961 . S
H906 C920 0.960 . S
H907 C920 0.971 . S
H908 C920 0.959 . S
H909 C923 0.929 . S
H910 C924 0.931 . S
H911 C926 0.930 . S
C912 H900 0.930 . S
C912 C913 1.399 . S
C912 C917 1.399 . S
C913 C912 1.399 . S
C913 C914 1.376 . S
C914 H901 0.930 . S
C914 C913 1.376 . S
C914 C915 1.388 . S
C915 H902 0.930 . S
C915 C914 1.388 . S
C915 C916 1.390 . S
C916 C915 1.390 . S
C916 C917 1.394 . S
C916 C922 1.465 1_554 S
C917 C912 1.399 . S
C917 C916 1.394 . S
C917 C918 1.516 . S
C918 C917 1.516 . S
C918 C919 1.502 . S
C918 C920 1.561 . S
C918 C921 1.526 1_554 S
C919 H903 0.959 . S
C919 H904 0.959 . S
C919 H905 0.961 . S
C919 C918 1.502 . S
C920 H906 0.960 . S
C920 H907 0.971 . S
C920 H908 0.959 . S
C920 C918 1.561 . S
C921 C918 1.526 1_556 S
C921 C922 1.396 . S
C921 C926 1.390 . S
C922 C916 1.465 1_556 S
C922 C921 1.396 . S
C922 C923 1.399 . S
C923 H909 0.929 . S
C923 C922 1.399 . S
C923 C924 1.385 . S
C924 H910 0.931 . S
C924 C923 1.385 . S
C924 C925 1.389 . S
C925 C924 1.389 . S
C925 C926 1.387 . S
C926 H911 0.930 . S
C926 C921 1.390 . S
C926 C925 1.387 . S
H927 C939 0.930 . S
H928 C941 0.930 . S
H929 C942 0.930 . S
H930 C946 0.959 . S
H931 C946 0.959 . S
H932 C946 0.961 . S
H933 C947 0.960 . S
H934 C947 0.961 . S
H935 C947 0.959 . S
H936 C950 0.929 . S
H937 C951 0.931 . S
H938 C953 0.930 . S
C939 H927 0.930 . S
C939 C940 1.399 . S
C939 C944 1.399 . S
C940 C939 1.399 . S
C940 C941 1.376 . S
C941 H928 0.930 . S
C941 C940 1.376 . S
C941 C942 1.388 . S
C942 H929 0.930 . S
C942 C941 1.388 . S
C942 C943 1.390 . S
C943 C942 1.390 . S
C943 C944 1.394 . S
C943 C949 1.465 . S
C944 C939 1.399 . S
C944 C943 1.394 . S
C944 C945 1.516 . S
C945 C944 1.516 . S
C945 C946 1.502 . S
C945 C947 1.561 . S
C945 C948 1.526 . S
C946 H930 0.959 . S
C946 H931 0.959 . S
C946 H932 0.961 . S
C946 C945 1.502 . S
C947 H933 0.960 . S
C947 H934 0.961 . S
C947 H935 0.959 . S
C947 C945 1.561 . S
C948 C945 1.526 . S
C948 C949 1.396 . S
C948 C953 1.390 . S
C949 C943 1.465 . S
C949 C948 1.396 . S
C949 C950 1.399 . S
C950 H936 0.929 . S
C950 C949 1.399 . S
C950 C951 1.385 . S
C951 H937 0.931 . S
C951 C950 1.385 . S
C951 C952 1.389 . S
C952 C951 1.389 . S
C952 C953 1.387 . S
C953 H938 0.930 . S
C953 C948 1.390 . S
C953 C952 1.387 . S
H954 C966 0.930 . S
H955 C968 0.930 . S
H956 C969 0.930 . S
H957 C973 0.959 . S
H958 C973 0.959 . S
H959 C973 0.961 . S
H960 C974 0.960 . S
H961 C974 0.961 . S
H962 C974 0.959 . S
H963 C977 0.929 . S
H964 C978 0.931 . S
H965 C980 0.930 . S
C966 H954 0.930 . S
C966 C967 1.399 . S
C966 C971 1.399 . S
C967 C966 1.399 . S
C967 C968 1.376 . S
C968 H955 0.930 . S
C968 C967 1.376 . S
C968 C969 1.388 . S
C969 H956 0.930 . S
C969 C968 1.388 . S
C969 C970 1.390 . S
C970 C969 1.390 . S
C970 C971 1.394 . S
C970 C976 1.465 . S
C971 C966 1.399 . S
C971 C970 1.394 . S
C971 C972 1.516 . S
C972 C971 1.516 . S
C972 C973 1.502 . S
C972 C974 1.561 . S
C972 C975 1.526 . S
C973 H957 0.959 . S
C973 H958 0.959 . S
C973 H959 0.961 . S
C973 C972 1.502 . S
C974 H960 0.960 . S
C974 H961 0.961 . S
C974 H962 0.959 . S
C974 C972 1.561 . S
C975 C972 1.526 . S
C975 C976 1.396 . S
C975 C980 1.390 . S
C976 C970 1.465 . S
C976 C975 1.396 . S
C976 C977 1.399 . S
C977 H963 0.929 . S
C977 C976 1.399 . S
C977 C978 1.385 . S
C978 H964 0.931 . S
C978 C977 1.385 . S
C978 C979 1.389 . S
C979 C978 1.389 . S
C979 C980 1.387 . S
C980 H965 0.930 . S
C980 C975 1.390 . S
C980 C979 1.387 . S
H981 C993 0.930 . S
H982 C995 0.930 . S
H983 C996 0.930 . S
H984 C1000 0.959 . S
H985 C1000 0.959 . S
H986 C1000 0.961 . S
H987 C1001 0.960 . S
H988 C1001 0.961 . S
H989 C1001 0.959 . S
H990 C1004 0.929 . S
H991 C1005 0.931 . S
H992 C1007 0.930 . S
C993 H981 0.930 . S
C993 C994 1.399 . S
C993 C998 1.399 . S
C994 C993 1.399 . S
C994 C995 1.376 . S
C995 H982 0.930 . S
C995 C994 1.376 . S
C995 C996 1.388 . S
C996 H983 0.930 . S
C996 C995 1.388 . S
C996 C997 1.390 . S
C997 C996 1.390 . S
C997 C998 1.394 . S
C997 C1003 1.465 . S
C998 C993 1.399 . S
C998 C997 1.394 . S
C998 C999 1.516 . S
C999 C998 1.516 . S
C999 C1000 1.502 . S
C999 C1001 1.561 . S
C999 C1002 1.526 . S
C1000 H984 0.959 . S
C1000 H985 0.959 . S
C1000 H986 0.961 . S
C1000 C999 1.502 . S
C1001 H987 0.960 . S
C1001 H988 0.961 . S
C1001 H989 0.959 . S
C1001 C999 1.561 . S
C1002 C999 1.526 . S
C1002 C1003 1.396 . S
C1002 C1007 1.390 . S
C1003 C997 1.465 . S
C1003 C1002 1.396 . S
C1003 C1004 1.399 . S
C1004 H990 0.929 . S
C1004 C1003 1.399 . S
C1004 C1005 1.385 . S
C1005 H991 0.931 . S
C1005 C1004 1.385 . S
C1005 C1006 1.389 . S
C1006 C1005 1.389 . S
C1006 C1007 1.387 . S
C1007 H992 0.930 . S
C1007 C1002 1.390 . S
C1007 C1006 1.387 . S
H1008 C1020 0.930 . S
H1009 C1022 0.930 . S
H1010 C1023 0.930 . S
H1011 C1027 0.959 . S
H1012 C1027 0.959 1_655 S
H1013 C1027 0.961 . S
H1014 C1028 0.960 1_455 S
H1015 C1028 0.961 . S
H1016 C1028 0.959 . S
H1017 C1031 0.929 . S
H1018 C1032 0.931 . S
H1019 C1034 0.930 . S
C1020 H1008 0.930 . S
C1020 C1021 1.399 . S
C1020 C1025 1.399 . S
C1021 C1020 1.399 . S
C1021 C1022 1.376 . S
C1022 H1009 0.930 . S
C1022 C1021 1.376 . S
C1022 C1023 1.388 . S
C1023 H1010 0.930 . S
C1023 C1022 1.388 . S
C1023 C1024 1.390 . S
C1024 C1023 1.390 . S
C1024 C1025 1.394 . S
C1024 C1030 1.465 1_445 S
C1025 C1020 1.399 . S
C1025 C1024 1.394 . S
C1025 C1026 1.516 1_545 S
C1026 C1025 1.516 1_565 S
C1026 C1027 1.502 . S
C1026 C1028 1.561 1_465 S
C1026 C1029 1.526 1_455 S
C1027 H1011 0.959 . S
C1027 H1012 0.959 1_455 S
C1027 H1013 0.961 . S
C1027 C1026 1.502 . S
C1028 H1014 0.960 1_655 S
C1028 H1015 0.961 . S
C1028 H1016 0.959 . S
C1028 C1026 1.561 1_645 S
C1029 C1026 1.526 1_655 S
C1029 C1030 1.396 . S
C1029 C1034 1.390 . S
C1030 C1024 1.465 1_665 S
C1030 C1029 1.396 . S
C1030 C1031 1.399 . S
C1031 H1017 0.929 . S
C1031 C1030 1.399 . S
C1031 C1032 1.385 . S
C1032 H1018 0.931 . S
C1032 C1031 1.385 . S
C1032 C1033 1.389 . S
C1033 C1032 1.389 . S
C1033 C1034 1.387 . S
C1034 H1019 0.930 . S
C1034 C1029 1.390 . S
C1034 C1033 1.387 . S
H1035 C1047 0.930 . S
H1036 C1049 0.930 . S
H1037 C1050 0.930 . S
H1038 C1054 0.959 . S
H1039 C1054 0.959 . S
H1040 C1054 0.961 . S
H1041 C1055 0.960 . S
H1042 C1055 0.961 1_655 S
H1043 C1055 0.959 . S
H1044 C1058 0.925 1_455 S
H1045 C1059 0.931 . S
H1046 C1061 0.930 . S
C1047 H1035 0.930 . S
C1047 C1048 1.399 . S
C1047 C1052 1.399 . S
C1048 C1047 1.399 . S
C1048 C1049 1.376 . S
C1049 H1036 0.930 . S
C1049 C1048 1.376 . S
C1049 C1050 1.388 . S
C1050 H1037 0.930 . S
C1050 C1049 1.388 . S
C1050 C1051 1.390 . S
C1051 C1050 1.390 . S
C1051 C1052 1.394 . S
C1051 C1057 1.473 . S
C1052 C1047 1.399 . S
C1052 C1051 1.394 . S
C1052 C1053 1.516 1_455 S
C1053 C1052 1.516 1_655 S
C1053 C1054 1.502 . S
C1053 C1055 1.561 1_655 S
C1053 C1056 1.526 . S
C1054 H1038 0.959 . S
C1054 H1039 0.959 . S
C1054 H1040 0.961 . S
C1054 C1053 1.502 . S
C1055 H1041 0.960 . S
C1055 H1042 0.961 1_455 S
C1055 H1043 0.959 . S
C1055 C1053 1.561 1_455 S
C1056 C1053 1.526 . S
C1056 C1057 1.388 1_655 S
C1056 C1061 1.390 . S
C1057 C1051 1.473 . S
C1057 C1056 1.388 1_455 S
C1057 C1058 1.398 1_455 S
C1058 H1044 0.925 1_655 S
C1058 C1057 1.398 1_655 S
C1058 C1059 1.389 . S
C1059 H1045 0.931 . S
C1059 C1058 1.389 . S
C1059 C1060 1.389 . S
C1060 C1059 1.389 . S
C1060 C1061 1.387 . S
C1061 H1046 0.930 . S
C1061 C1056 1.390 . S
C1061 C1060 1.387 . S
H1062 C1074 0.930 . S
H1063 C1076 0.930 . S
H1064 C1077 0.930 . S
H1065 C1081 0.959 . S
H1066 C1081 0.959 . S
H1067 C1081 0.961 . S
H1068 C1082 0.960 . S
H1069 C1082 0.961 . S
H1070 C1082 0.959 . S
H1071 C1085 0.929 . S
H1072 C1086 0.931 . S
H1073 C1088 0.930 . S
C1074 H1062 0.930 . S
C1074 C1075 1.399 . S
C1074 C1079 1.399 . S
C1075 C1074 1.399 . S
C1075 C1076 1.376 . S
C1076 H1063 0.930 . S
C1076 C1075 1.376 . S
C1076 C1077 1.388 . S
C1077 H1064 0.930 . S
C1077 C1076 1.388 . S
C1077 C1078 1.390 . S
C1078 C1077 1.390 . S
C1078 C1079 1.394 . S
C1078 C1084 1.465 . S
C1079 C1074 1.399 . S
C1079 C1078 1.394 . S
C1079 C1080 1.516 . S
C1080 C1079 1.516 . S
C1080 C1081 1.502 . S
C1080 C1082 1.561 . S
C1080 C1083 1.526 . S
C1081 H1065 0.959 . S
C1081 H1066 0.959 . S
C1081 H1067 0.961 . S
C1081 C1080 1.502 . S
C1082 H1068 0.960 . S
C1082 H1069 0.961 . S
C1082 H1070 0.959 . S
C1082 C1080 1.561 . S
C1083 C1080 1.526 . S
C1083 C1084 1.396 . S
C1083 C1088 1.390 . S
C1084 C1078 1.465 . S
C1084 C1083 1.396 . S
C1084 C1085 1.399 . S
C1085 H1071 0.929 . S
C1085 C1084 1.399 . S
C1085 C1086 1.385 . S
C1086 H1072 0.931 . S
C1086 C1085 1.385 . S
C1086 C1087 1.389 . S
C1087 C1086 1.389 . S
C1087 C1088 1.387 . S
C1088 H1073 0.930 . S
C1088 C1083 1.390 . S
C1088 C1087 1.387 . S
H1089 C1101 0.930 . S
H1090 C1103 0.930 . S
H1091 C1104 0.930 . S
H1092 C1108 0.959 . S
H1093 C1108 0.959 . S
H1094 C1108 0.961 . S
H1095 C1109 0.960 . S
H1096 C1109 0.961 1_565 S
H1097 C1109 0.959 . S
H1098 C1112 0.929 . S
H1099 C1113 0.931 . S
H1100 C1115 0.930 . S
C1101 H1089 0.930 . S
C1101 C1102 1.399 . S
C1101 C1106 1.399 . S
C1102 C1101 1.399 . S
C1102 C1103 1.376 . S
C1103 H1090 0.930 . S
C1103 C1102 1.376 . S
C1103 C1104 1.388 . S
C1104 H1091 0.930 . S
C1104 C1103 1.388 . S
C1104 C1105 1.390 . S
C1105 C1104 1.390 . S
C1105 C1106 1.394 . S
C1105 C1111 1.465 1_545 S
C1106 C1101 1.399 . S
C1106 C1105 1.394 . S
C1106 C1107 1.516 1_545 S
C1107 C1106 1.516 1_565 S
C1107 C1108 1.502 . S
C1107 C1109 1.561 1_565 S
C1107 C1110 1.526 . S
C1108 H1092 0.959 . S
C1108 H1093 0.959 . S
C1108 H1094 0.961 . S
C1108 C1107 1.502 . S
C1109 H1095 0.960 . S
C1109 H1096 0.961 1_545 S
C1109 H1097 0.959 . S
C1109 C1107 1.561 1_545 S
C1110 C1107 1.526 . S
C1110 C1111 1.396 . S
C1110 C1115 1.390 . S
C1111 C1105 1.465 1_565 S
C1111 C1110 1.396 . S
C1111 C1112 1.399 . S
C1112 H1098 0.929 . S
C1112 C1111 1.399 . S
C1112 C1113 1.385 . S
C1113 H1099 0.931 . S
C1113 C1112 1.385 . S
C1113 C1114 1.389 . S
C1114 C1113 1.389 . S
C1114 C1115 1.387 . S
C1115 H1100 0.930 . S
C1115 C1110 1.390 . S
C1115 C1114 1.387 . S
H1116 C1128 0.930 . S
H1117 C1130 0.930 . S
H1118 C1131 0.930 . S
H1119 C1135 0.959 . S
H1120 C1135 0.959 1_655 S
H1121 C1135 0.961 . S
H1122 C1136 0.960 . S
H1123 C1136 0.961 . S
H1124 C1136 0.959 . S
H1125 C1139 0.929 . S
H1126 C1140 0.931 . S
H1127 C1142 0.930 . S
C1128 H1116 0.930 . S
C1128 C1129 1.399 . S
C1128 C1133 1.399 . S
C1129 C1128 1.399 . S
C1129 C1130 1.376 . S
C1130 H1117 0.930 . S
C1130 C1129 1.376 . S
C1130 C1131 1.388 . S
C1131 H1118 0.930 . S
C1131 C1130 1.388 . S
C1131 C1132 1.390 . S
C1132 C1131 1.390 . S
C1132 C1133 1.394 . S
C1132 C1138 1.465 1_455 S
C1133 C1128 1.399 . S
C1133 C1132 1.394 . S
C1133 C1134 1.516 1_455 S
C1134 C1133 1.516 1_655 S
C1134 C1135 1.502 1_655 S
C1134 C1136 1.561 . S
C1134 C1137 1.526 . S
C1135 H1119 0.959 . S
C1135 H1120 0.959 1_455 S
C1135 H1121 0.961 . S
C1135 C1134 1.502 1_455 S
C1136 H1122 0.960 . S
C1136 H1123 0.961 . S
C1136 H1124 0.959 . S
C1136 C1134 1.561 . S
C1137 C1134 1.526 . S
C1137 C1138 1.396 . S
C1137 C1142 1.390 . S
C1138 C1132 1.465 1_655 S
C1138 C1137 1.396 . S
C1138 C1139 1.399 . S
C1139 H1125 0.929 . S
C1139 C1138 1.399 . S
C1139 C1140 1.385 . S
C1140 H1126 0.931 . S
C1140 C1139 1.385 . S
C1140 C1141 1.389 . S
C1141 C1140 1.389 . S
C1141 C1142 1.387 . S
C1142 H1127 0.930 . S
C1142 C1137 1.390 . S
C1142 C1141 1.387 . S
H1143 C1155 0.930 . S
H1144 C1157 0.930 . S
H1145 C1158 0.930 . S
H1146 C1162 0.959 . S
H1147 C1162 0.959 . S
H1148 C1162 0.961 . S
H1149 C1163 0.960 . S
H1150 C1163 0.961 . S
H1151 C1163 0.959 . S
H1152 C1166 0.929 . S
H1153 C1167 0.931 . S
H1154 C1169 0.930 . S
C1155 H1143 0.930 . S
C1155 C1156 1.399 . S
C1155 C1160 1.399 . S
C1156 C1155 1.399 . S
C1156 C1157 1.376 . S
C1157 H1144 0.930 . S
C1157 C1156 1.376 . S
C1157 C1158 1.388 . S
C1158 H1145 0.930 . S
C1158 C1157 1.388 . S
C1158 C1159 1.390 . S
C1159 C1158 1.390 . S
C1159 C1160 1.394 . S
C1159 C1165 1.465 . S
C1160 C1155 1.399 . S
C1160 C1159 1.394 . S
C1160 C1161 1.516 . S
C1161 C1160 1.516 . S
C1161 C1162 1.502 . S
C1161 C1163 1.561 . S
C1161 C1164 1.526 . S
C1162 H1146 0.959 . S
C1162 H1147 0.959 . S
C1162 H1148 0.961 . S
C1162 C1161 1.502 . S
C1163 H1149 0.960 . S
C1163 H1150 0.961 . S
C1163 H1151 0.959 . S
C1163 C1161 1.561 . S
C1164 C1161 1.526 . S
C1164 C1165 1.396 . S
C1164 C1169 1.390 . S
C1165 C1159 1.465 . S
C1165 C1164 1.396 . S
C1165 C1166 1.399 . S
C1166 H1152 0.929 . S
C1166 C1165 1.399 . S
C1166 C1167 1.385 . S
C1167 H1153 0.931 . S
C1167 C1166 1.385 . S
C1167 C1168 1.389 . S
C1168 C1167 1.389 . S
C1168 C1169 1.387 . S
C1169 H1154 0.930 . S
C1169 C1164 1.390 . S
C1169 C1168 1.387 . S
H1170 C1182 0.930 . S
H1171 C1184 0.930 1_545 S
H1172 C1185 0.930 . S
H1173 C1189 0.959 . S
H1174 C1189 0.959 . S
H1175 C1189 0.961 . S
H1176 C1190 0.960 . S
H1177 C1190 0.961 . S
H1178 C1190 0.959 . S
H1179 C1193 0.929 . S
H1180 C1194 0.931 . S
H1181 C1196 0.930 1_565 S
C1182 H1170 0.930 . S
C1182 C1183 1.399 . S
C1182 C1187 1.399 . S
C1183 C1182 1.399 . S
C1183 C1184 1.376 . S
C1184 H1171 0.930 1_565 S
C1184 C1183 1.376 . S
C1184 C1185 1.388 1_565 S
C1185 H1172 0.930 . S
C1185 C1184 1.388 1_545 S
C1185 C1186 1.390 . S
C1186 C1185 1.390 . S
C1186 C1187 1.394 1_545 S
C1186 C1192 1.465 . S
C1187 C1182 1.399 . S
C1187 C1186 1.394 1_565 S
C1187 C1188 1.516 . S
C1188 C1187 1.516 . S
C1188 C1189 1.502 . S
C1188 C1190 1.561 . S
C1188 C1191 1.519 1_565 S
C1189 H1173 0.959 . S
C1189 H1174 0.959 . S
C1189 H1175 0.961 . S
C1189 C1188 1.502 . S
C1190 H1176 0.960 . S
C1190 H1177 0.961 . S
C1190 H1178 0.959 . S
C1190 C1188 1.561 . S
C1191 C1188 1.519 1_545 S
C1191 C1192 1.401 . S
C1191 C1196 1.392 . S
C1192 C1186 1.465 . S
C1192 C1191 1.401 . S
C1192 C1193 1.399 . S
C1193 H1179 0.929 . S
C1193 C1192 1.399 . S
C1193 C1194 1.385 . S
C1194 H1180 0.931 . S
C1194 C1193 1.385 . S
C1194 C1195 1.389 . S
C1195 C1194 1.389 . S
C1195 C1196 1.387 . S
C1196 H1181 0.930 1_545 S
C1196 C1191 1.392 . S
C1196 C1195 1.387 . S
H1197 C1209 0.930 . S
H1198 C1211 0.930 . S
H1199 C1212 0.930 . S
H1200 C1216 0.959 . S
H1201 C1216 0.959 . S
H1202 C1216 0.961 . S
H1203 C1217 0.960 . S
H1204 C1217 0.961 . S
H1205 C1217 0.959 . S
H1206 C1220 0.929 . S
H1207 C1221 0.931 . S
H1208 C1223 0.930 . S
C1209 H1197 0.930 . S
C1209 C1210 1.399 . S
C1209 C1214 1.399 . S
C1210 C1209 1.399 . S
C1210 C1211 1.376 . S
C1211 H1198 0.930 . S
C1211 C1210 1.376 . S
C1211 C1212 1.388 . S
C1212 H1199 0.930 . S
C1212 C1211 1.388 . S
C1212 C1213 1.390 . S
C1213 C1212 1.390 . S
C1213 C1214 1.394 . S
C1213 C1219 1.468 1_545 S
C1214 C1209 1.399 . S
C1214 C1213 1.394 . S
C1214 C1215 1.516 1_455 S
C1215 C1214 1.516 1_655 S
C1215 C1216 1.502 . S
C1215 C1217 1.561 . S
C1215 C1218 1.526 1_545 S
C1216 H1200 0.959 . S
C1216 H1201 0.959 . S
C1216 H1202 0.961 . S
C1216 C1215 1.502 . S
C1217 H1203 0.960 . S
C1217 H1204 0.961 . S
C1217 H1205 0.959 . S
C1217 C1215 1.561 . S
C1218 C1215 1.526 1_565 S
C1218 C1219 1.392 1_655 S
C1218 C1223 1.390 . S
C1219 C1213 1.468 1_565 S
C1219 C1218 1.392 1_455 S
C1219 C1220 1.400 . S
C1220 H1206 0.929 . S
C1220 C1219 1.400 . S
C1220 C1221 1.385 1_455 S
C1221 H1207 0.931 . S
C1221 C1220 1.385 1_655 S
C1221 C1222 1.389 . S
C1222 C1221 1.389 . S
C1222 C1223 1.387 . S
C1223 H1208 0.930 . S
C1223 C1218 1.390 . S
C1223 C1222 1.387 . S
H1224 C1236 0.930 . S
H1225 C1238 0.930 . S
H1226 C1239 0.930 . S
H1227 C1243 0.959 . S
H1228 C1243 0.959 . S
H1229 C1243 0.961 . S
H1230 C1244 0.960 . S
H1231 C1244 0.961 1_545 S
H1232 C1244 0.959 . S
H1233 C1247 0.929 . S
H1234 C1248 0.931 . S
H1235 C1250 0.930 . S
C1236 H1224 0.930 . S
C1236 C1237 1.399 . S
C1236 C1241 1.399 . S
C1237 C1236 1.399 . S
C1237 C1238 1.376 . S
C1238 H1225 0.930 . S
C1238 C1237 1.376 . S
C1238 C1239 1.388 . S
C1239 H1226 0.930 . S
C1239 C1238 1.388 . S
C1239 C1240 1.390 . S
C1240 C1239 1.390 . S
C1240 C1241 1.394 . S
C1240 C1246 1.465 . S
C1241 C1236 1.399 . S
C1241 C1240 1.394 . S
C1241 C1242 1.516 1_565 S
C1242 C1241 1.516 1_545 S
C1242 C1243 1.502 . S
C1242 C1244 1.561 1_545 S
C1242 C1245 1.526 . S
C1243 H1227 0.959 . S
C1243 H1228 0.959 . S
C1243 H1229 0.961 . S
C1243 C1242 1.502 . S
C1244 H1230 0.960 . S
C1244 H1231 0.961 1_565 S
C1244 H1232 0.959 . S
C1244 C1242 1.561 1_565 S
C1245 C1242 1.526 . S
C1245 C1246 1.396 1_545 S
C1245 C1250 1.390 . S
C1246 C1240 1.465 . S
C1246 C1245 1.396 1_565 S
C1246 C1247 1.399 . S
C1247 H1233 0.929 . S
C1247 C1246 1.399 . S
C1247 C1248 1.385 1_565 S
C1248 H1234 0.931 . S
C1248 C1247 1.385 1_545 S
C1248 C1249 1.389 . S
C1249 C1248 1.389 . S
C1249 C1250 1.387 . S
C1250 H1235 0.930 . S
C1250 C1245 1.390 . S
C1250 C1249 1.387 . S
H1251 C1263 0.930 . S
H1252 C1265 0.930 . S
H1253 C1266 0.930 . S
H1254 C1270 0.958 1_655 S
H1255 C1270 0.958 . S
H1256 C1270 0.963 1_665 S
H1257 C1271 0.960 . S
H1258 C1271 0.961 . S
H1259 C1271 0.959 . S
H1260 C1274 0.929 1_655 S
H1261 C1275 0.931 . S
H1262 C1277 0.930 . S
C1263 H1251 0.930 . S
C1263 C1264 1.399 . S
C1263 C1268 1.399 . S
C1264 C1263 1.399 . S
C1264 C1265 1.376 . S
C1265 H1252 0.930 . S
C1265 C1264 1.376 . S
C1265 C1266 1.388 . S
C1266 H1253 0.930 . S
C1266 C1265 1.388 . S
C1266 C1267 1.390 . S
C1267 C1266 1.390 . S
C1267 C1268 1.394 . S
C1267 C1273 1.465 1_665 S
C1268 C1263 1.399 . S
C1268 C1267 1.394 . S
C1268 C1269 1.516 1_655 S
C1269 C1268 1.516 1_455 S
C1269 C1270 1.502 1_565 S
C1269 C1271 1.561 . S
C1269 C1272 1.526 1_565 S
C1270 H1254 0.958 1_455 S
C1270 H1255 0.958 . S
C1270 H1256 0.963 1_445 S
C1270 C1269 1.502 1_545 S
C1271 H1257 0.960 . S
C1271 H1258 0.961 . S
C1271 H1259 0.959 . S
C1271 C1269 1.561 . S
C1272 C1269 1.526 1_545 S
C1272 C1273 1.396 . S
C1272 C1277 1.390 . S
C1273 C1267 1.465 1_445 S
C1273 C1272 1.396 . S
C1273 C1274 1.399 . S
C1274 H1260 0.929 1_455 S
C1274 C1273 1.399 . S
C1274 C1275 1.385 . S
C1275 H1261 0.931 . S
C1275 C1274 1.385 . S
C1275 C1276 1.389 . S
C1276 C1275 1.389 . S
C1276 C1277 1.387 . S
C1277 H1262 0.930 . S
C1277 C1272 1.390 . S
C1277 C1276 1.387 . S
H1278 C1290 0.930 . S
H1279 C1292 0.930 . S
H1280 C1293 0.930 . S
H1281 C1297 0.959 . S
H1282 C1297 0.959 . S
H1283 C1297 0.961 . S
H1284 C1298 0.960 1_455 S
H1285 C1298 0.961 . S
H1286 C1298 0.959 1_455 S
H1287 C1301 0.929 . S
H1288 C1302 0.931 . S
H1289 C1304 0.930 . S
C1290 H1278 0.930 . S
C1290 C1291 1.399 . S
C1290 C1295 1.399 . S
C1291 C1290 1.399 . S
C1291 C1292 1.376 . S
C1292 H1279 0.930 . S
C1292 C1291 1.376 . S
C1292 C1293 1.388 . S
C1293 H1280 0.930 . S
C1293 C1292 1.388 . S
C1293 C1294 1.390 . S
C1294 C1293 1.390 . S
C1294 C1295 1.394 . S
C1294 C1300 1.465 1_455 S
C1295 C1290 1.399 . S
C1295 C1294 1.394 . S
C1295 C1296 1.516 1_455 S
C1296 C1295 1.516 1_655 S
C1296 C1297 1.502 . S
C1296 C1298 1.561 . S
C1296 C1299 1.526 . S
C1297 H1281 0.959 . S
C1297 H1282 0.959 . S
C1297 H1283 0.961 . S
C1297 C1296 1.502 . S
C1298 H1284 0.960 1_655 S
C1298 H1285 0.961 . S
C1298 H1286 0.959 1_655 S
C1298 C1296 1.561 . S
C1299 C1296 1.526 . S
C1299 C1300 1.396 . S
C1299 C1304 1.390 . S
C1300 C1294 1.465 1_655 S
C1300 C1299 1.396 . S
C1300 C1301 1.399 . S
C1301 H1287 0.929 . S
C1301 C1300 1.399 . S
C1301 C1302 1.385 . S
C1302 H1288 0.931 . S
C1302 C1301 1.385 . S
C1302 C1303 1.389 . S
C1303 C1302 1.389 . S
C1303 C1304 1.387 . S
C1304 H1289 0.930 . S
C1304 C1299 1.390 . S
C1304 C1303 1.387 . S
H1305 C1317 0.930 . S
H1306 C1319 0.930 . S
H1307 C1320 0.930 . S
H1308 C1324 0.959 . S
H1309 C1324 0.959 . S
H1310 C1324 0.961 . S
H1311 C1325 0.960 . S
H1312 C1325 0.961 . S
H1313 C1325 0.959 . S
H1314 C1328 0.929 . S
H1315 C1329 0.931 . S
H1316 C1331 0.930 . S
C1317 H1305 0.930 . S
C1317 C1318 1.399 . S
C1317 C1322 1.399 . S
C1318 C1317 1.399 . S
C1318 C1319 1.376 . S
C1319 H1306 0.930 . S
C1319 C1318 1.376 . S
C1319 C1320 1.388 . S
C1320 H1307 0.930 . S
C1320 C1319 1.388 . S
C1320 C1321 1.390 . S
C1321 C1320 1.390 . S
C1321 C1322 1.394 . S
C1321 C1327 1.465 . S
C1322 C1317 1.399 . S
C1322 C1321 1.394 . S
C1322 C1323 1.516 . S
C1323 C1322 1.516 . S
C1323 C1324 1.502 . S
C1323 C1325 1.561 . S
C1323 C1326 1.526 . S
C1324 H1308 0.959 . S
C1324 H1309 0.959 . S
C1324 H1310 0.961 . S
C1324 C1323 1.502 . S
C1325 H1311 0.960 . S
C1325 H1312 0.961 . S
C1325 H1313 0.959 . S
C1325 C1323 1.561 . S
C1326 C1323 1.526 . S
C1326 C1327 1.396 . S
C1326 C1331 1.390 . S
C1327 C1321 1.465 . S
C1327 C1326 1.396 . S
C1327 C1328 1.399 . S
C1328 H1314 0.929 . S
C1328 C1327 1.399 . S
C1328 C1329 1.385 . S
C1329 H1315 0.931 . S
C1329 C1328 1.385 . S
C1329 C1330 1.389 . S
C1330 C1329 1.389 . S
C1330 C1331 1.387 . S
C1331 H1316 0.930 . S
C1331 C1326 1.390 . S
C1331 C1330 1.387 . S
H1332 C1344 0.930 . S
H1333 C1346 0.930 . S
H1334 C1347 0.930 . S
H1335 C1351 0.959 . S
H1336 C1351 0.959 . S
H1337 C1351 0.961 . S
H1338 C1352 0.960 . S
H1339 C1352 0.961 . S
H1340 C1352 0.959 . S
H1341 C1355 0.929 . S
H1342 C1356 0.931 . S
H1343 C1358 0.930 . S
C1344 H1332 0.930 . S
C1344 C1345 1.399 . S
C1344 C1349 1.399 . S
C1345 C1344 1.399 . S
C1345 C1346 1.376 . S
C1346 H1333 0.930 . S
C1346 C1345 1.376 . S
C1346 C1347 1.388 . S
C1347 H1334 0.930 . S
C1347 C1346 1.388 . S
C1347 C1348 1.390 . S
C1348 C1347 1.390 . S
C1348 C1349 1.394 . S
C1348 C1354 1.465 . S
C1349 C1344 1.399 . S
C1349 C1348 1.394 . S
C1349 C1350 1.516 . S
C1350 C1349 1.516 . S
C1350 C1351 1.502 . S
C1350 C1352 1.561 . S
C1350 C1353 1.526 . S
C1351 H1335 0.959 . S
C1351 H1336 0.959 . S
C1351 H1337 0.961 . S
C1351 C1350 1.502 . S
C1352 H1338 0.960 . S
C1352 H1339 0.961 . S
C1352 H1340 0.959 . S
C1352 C1350 1.561 . S
C1353 C1350 1.526 . S
C1353 C1354 1.396 . S
C1353 C1358 1.390 . S
C1354 C1348 1.465 . S
C1354 C1353 1.396 . S
C1354 C1355 1.399 . S
C1355 H1341 0.929 . S
C1355 C1354 1.399 . S
C1355 C1356 1.385 . S
C1356 H1342 0.931 . S
C1356 C1355 1.385 . S
C1356 C1357 1.389 . S
C1357 C1356 1.389 . S
C1357 C1358 1.387 . S
C1358 H1343 0.930 . S
C1358 C1353 1.390 . S
C1358 C1357 1.387 . S
H1359 C1371 0.930 . S
H1360 C1373 0.930 . S
H1361 C1374 0.930 . S
H1362 C1378 0.959 . S
H1363 C1378 0.959 1_565 S
H1364 C1378 0.961 . S
H1365 C1379 0.960 1_545 S
H1366 C1379 0.961 . S
H1367 C1379 0.959 . S
H1368 C1382 0.929 . S
H1369 C1383 0.931 . S
H1370 C1385 0.930 . S
C1371 H1359 0.930 . S
C1371 C1372 1.399 . S
C1371 C1376 1.399 . S
C1372 C1371 1.399 . S
C1372 C1373 1.376 . S
C1373 H1360 0.930 . S
C1373 C1372 1.376 . S
C1373 C1374 1.388 . S
C1374 H1361 0.930 . S
C1374 C1373 1.388 . S
C1374 C1375 1.390 . S
C1375 C1374 1.390 . S
C1375 C1376 1.394 . S
C1375 C1381 1.465 1_545 S
C1376 C1371 1.399 . S
C1376 C1375 1.394 . S
C1376 C1377 1.532 . S
C1377 C1376 1.532 . S
C1377 C1378 1.510 . S
C1377 C1379 1.553 1_545 S
C1377 C1380 1.509 1_545 S
C1378 H1362 0.959 . S
C1378 H1363 0.959 1_545 S
C1378 H1364 0.961 . S
C1378 C1377 1.510 . S
C1379 H1365 0.960 1_565 S
C1379 H1366 0.961 . S
C1379 H1367 0.959 . S
C1379 C1377 1.553 1_565 S
C1380 C1377 1.509 1_565 S
C1380 C1381 1.396 . S
C1380 C1385 1.390 . S
C1381 C1375 1.465 1_565 S
C1381 C1380 1.396 . S
C1381 C1382 1.399 . S
C1382 H1368 0.929 . S
C1382 C1381 1.399 . S
C1382 C1383 1.385 . S
C1383 H1369 0.931 . S
C1383 C1382 1.385 . S
C1383 C1384 1.389 . S
C1384 C1383 1.389 . S
C1384 C1385 1.387 . S
C1385 H1370 0.930 . S
C1385 C1380 1.390 . S
C1385 C1384 1.387 . S
H1386 C1398 0.930 . S
H1387 C1400 0.930 . S
H1388 C1401 0.930 . S
H1389 C1405 0.959 . S
H1390 C1405 0.959 . S
H1391 C1405 0.961 . S
H1392 C1406 0.960 . S
H1393 C1406 0.961 1_455 S
H1394 C1406 0.959 1_465 S
H1395 C1409 0.929 . S
H1396 C1410 0.931 . S
H1397 C1412 0.930 . S
C1398 H1386 0.930 . S
C1398 C1399 1.399 . S
C1398 C1403 1.399 . S
C1399 C1398 1.399 . S
C1399 C1400 1.376 . S
C1400 H1387 0.930 . S
C1400 C1399 1.376 . S
C1400 C1401 1.388 . S
C1401 H1388 0.930 . S
C1401 C1400 1.388 . S
C1401 C1402 1.390 . S
C1402 C1401 1.390 . S
C1402 C1403 1.394 . S
C1402 C1408 1.465 1_655 S
C1403 C1398 1.399 . S
C1403 C1402 1.394 . S
C1403 C1404 1.516 1_565 S
C1404 C1403 1.516 1_545 S
C1404 C1405 1.502 . S
C1404 C1406 1.561 . S
C1404 C1407 1.526 1_655 S
C1405 H1389 0.959 . S
C1405 H1390 0.959 . S
C1405 H1391 0.961 . S
C1405 C1404 1.502 . S
C1406 H1392 0.960 . S
C1406 H1393 0.961 1_655 S
C1406 H1394 0.959 1_645 S
C1406 C1404 1.561 . S
C1407 C1404 1.526 1_455 S
C1407 C1408 1.396 1_545 S
C1407 C1412 1.390 . S
C1408 C1402 1.465 1_455 S
C1408 C1407 1.396 1_565 S
C1408 C1409 1.399 . S
C1409 H1395 0.929 . S
C1409 C1408 1.399 . S
C1409 C1410 1.385 1_565 S
C1410 H1396 0.931 . S
C1410 C1409 1.385 1_545 S
C1410 C1411 1.389 . S
C1411 C1410 1.389 . S
C1411 C1412 1.387 . S
C1412 H1397 0.930 . S
C1412 C1407 1.390 . S
C1412 C1411 1.387 . S
H1413 C1425 0.930 . S
H1414 C1427 0.930 . S
H1415 C1428 0.930 . S
H1416 C1432 0.959 . S
H1417 C1432 0.959 . S
H1418 C1432 0.961 . S
H1419 C1433 0.960 . S
H1420 C1433 0.961 . S
H1421 C1433 0.959 . S
H1422 C1436 0.929 . S
H1423 C1437 0.931 . S
H1424 C1439 0.930 . S
C1425 H1413 0.930 . S
C1425 C1426 1.399 . S
C1425 C1430 1.399 . S
C1426 C1425 1.399 . S
C1426 C1427 1.376 . S
C1427 H1414 0.930 . S
C1427 C1426 1.376 . S
C1427 C1428 1.388 . S
C1428 H1415 0.930 . S
C1428 C1427 1.388 . S
C1428 C1429 1.390 . S
C1429 C1428 1.390 . S
C1429 C1430 1.394 . S
C1429 C1435 1.465 1_655 S
C1430 C1425 1.399 . S
C1430 C1429 1.394 . S
C1430 C1431 1.516 1_655 S
C1431 C1430 1.516 1_455 S
C1431 C1432 1.502 1_455 S
C1431 C1433 1.561 . S
C1431 C1434 1.526 . S
C1432 H1416 0.959 . S
C1432 H1417 0.959 . S
C1432 H1418 0.961 . S
C1432 C1431 1.502 1_655 S
C1433 H1419 0.960 . S
C1433 H1420 0.961 . S
C1433 H1421 0.959 . S
C1433 C1431 1.561 . S
C1434 C1431 1.526 . S
C1434 C1435 1.396 . S
C1434 C1439 1.390 . S
C1435 C1429 1.465 1_455 S
C1435 C1434 1.396 . S
C1435 C1436 1.399 . S
C1436 H1422 0.929 . S
C1436 C1435 1.399 . S
C1436 C1437 1.385 . S
C1437 H1423 0.931 . S
C1437 C1436 1.385 . S
C1437 C1438 1.389 . S
C1438 C1437 1.389 . S
C1438 C1439 1.387 . S
C1439 H1424 0.930 . S
C1439 C1434 1.390 . S
C1439 C1438 1.387 . S
C589 C158 1.266 . S
C601 C14 1.245 . S
C616 C50 1.253 . S
C628 C194 1.238 . S
C643 C230 1.248 . S
C655 C86 1.271 . S
C670 C266 1.249 . S
C682 C122 1.236 . S
C697 C446 1.239 . S
C709 C302 1.257 . S
C724 C338 1.291 . S
C736 C482 1.301 . S
C751 C518 1.245 . S
C763 C374 1.267 . S
C778 C410 1.247 . S
C790 C554 1.236 . S
C805 C2 1.335 . S
C817 C542 1.315 . S
C832 C38 1.302 . S
C844 C434 1.323 . S
C859 C74 1.303 . S
C871 C470 1.324 . S
C886 C506 1.321 . S
C898 C110 1.301 . S
C913 C146 1.306 . S
C925 C326 1.327 . S
C940 C182 1.345 . S
C952 C362 1.349 . S
C967 C398 1.345 . S
C979 C218 1.349 . S
C994 C290 1.327 . S
C1006 C254 1.343 . S
C1021 C4 1.617 . S
C1033 C364 1.621 . S
C1048 C400 1.615 . S
C1060 C40 1.622 . S
C1075 C76 1.617 . S
C1087 C292 1.621 . S
C1102 C328 1.617 . S
C1114 C112 1.610 . S
C1129 C148 1.618 . S
C1141 C508 1.621 . S
C1156 C184 1.616 . S
C1168 C544 1.622 . S
C1183 C436 1.622 . S
C1195 C220 1.613 . S
C1210 C472 1.610 . S
C1222 C256 1.616 . S
C1237 C363 1.386 . S
C1249 C3 1.384 . S
C1264 C39 1.388 . S
C1276 C399 1.388 . S
C1291 C75 1.386 . S
C1303 C291 1.388 . S
C1318 C327 1.387 . S
C1330 C111 1.389 . S
C1345 C507 1.388 . S
C1357 C147 1.386 . S
C1372 C543 1.385 . S
C1384 C183 1.385 . S
C1399 C435 1.387 . S
C1411 C219 1.385 . S
C1426 C255 1.387 . S
C1438 C471 1.388 . S
