# Generated by pormake.
# Topology vcc, (6)-cn, num edge types: 1
# Building blocks:
#     Node 0, Type 0, BuildingBlock: MIFKUJ_clean_sbu_0, # of connection points: 6
#     Node 1, Type 0, BuildingBlock: MIFKUJ_clean_sbu_0, # of connection points: 6
#     Node 2, Type 0, BuildingBlock: MIFKUJ_clean_sbu_0, # of connection points: 6
#     Node 3, Type 0, BuildingBlock: MIFKUJ_clean_sbu_0, # of connection points: 6
#     Node 4, Type 0, BuildingBlock: MIFKUJ_clean_sbu_0, # of connection points: 6
#     Node 5, Type 0, BuildingBlock: MIFKUJ_clean_sbu_0, # of connection points: 6
#     Node 6, Type 0, BuildingBlock: MIFKUJ_clean_sbu_0, # of connection points: 6
#     Node 7, Type 0, BuildingBlock: MIFKUJ_clean_sbu_0, # of connection points: 6
#     Node 8, Type 0, BuildingBlock: MIFKUJ_clean_sbu_0, # of connection points: 6
#     Node 9, Type 0, BuildingBlock: MIFKUJ_clean_sbu_0, # of connection points: 6
#     Node 10, Type 0, BuildingBlock: MIFKUJ_clean_sbu_0, # of connection points: 6
#     Node 11, Type 0, BuildingBlock: MIFKUJ_clean_sbu_0, # of connection points: 6
#     Node 12, Type 0, BuildingBlock: MIFKUJ_clean_sbu_0, # of connection points: 6
#     Node 13, Type 0, BuildingBlock: MIFKUJ_clean_sbu_0, # of connection points: 6
#     Node 14, Type 0, BuildingBlock: MIFKUJ_clean_sbu_0, # of connection points: 6
#     Node 15, Type 0, BuildingBlock: MIFKUJ_clean_sbu_0, # of connection points: 6
#     Node 16, Type 0, BuildingBlock: MIFKUJ_clean_sbu_0, # of connection points: 6
#     Node 17, Type 0, BuildingBlock: MIFKUJ_clean_sbu_0, # of connection points: 6
#     Node 18, Type 0, BuildingBlock: MIFKUJ_clean_sbu_0, # of connection points: 6
#     Node 19, Type 0, BuildingBlock: MIFKUJ_clean_sbu_0, # of connection points: 6
#     Node 20, Type 0, BuildingBlock: MIFKUJ_clean_sbu_0, # of connection points: 6
#     Node 21, Type 0, BuildingBlock: MIFKUJ_clean_sbu_0, # of connection points: 6
#     Node 22, Type 0, BuildingBlock: MIFKUJ_clean_sbu_0, # of connection points: 6
#     Node 23, Type 0, BuildingBlock: MIFKUJ_clean_sbu_0, # of connection points: 6
#     Node 24, Type 0, BuildingBlock: MIFKUJ_clean_sbu_0, # of connection points: 6
#     Node 25, Type 0, BuildingBlock: MIFKUJ_clean_sbu_0, # of connection points: 6
#     Node 26, Type 0, BuildingBlock: MIFKUJ_clean_sbu_0, # of connection points: 6
#     Node 27, Type 0, BuildingBlock: MIFKUJ_clean_sbu_0, # of connection points: 6
#     Node 28, Type 0, BuildingBlock: MIFKUJ_clean_sbu_0, # of connection points: 6
#     Node 29, Type 0, BuildingBlock: MIFKUJ_clean_sbu_0, # of connection points: 6
#     Node 30, Type 0, BuildingBlock: MIFKUJ_clean_sbu_0, # of connection points: 6
#     Node 31, Type 0, BuildingBlock: MIFKUJ_clean_sbu_0, # of connection points: 6
#     Edge 32, Type (0, 0), BuildingBlock: OJICUG_clean_linker_0, # of connection points: 2
#     Edge 33, Type (0, 0), BuildingBlock: OJICUG_clean_linker_0, # of connection points: 2
#     Edge 34, Type (0, 0), BuildingBlock: OJICUG_clean_linker_0, # of connection points: 2
#     Edge 35, Type (0, 0), BuildingBlock: OJICUG_clean_linker_0, # of connection points: 2
#     Edge 36, Type (0, 0), BuildingBlock: OJICUG_clean_linker_0, # of connection points: 2
#     Edge 37, Type (0, 0), BuildingBlock: OJICUG_clean_linker_0, # of connection points: 2
#     Edge 38, Type (0, 0), BuildingBlock: OJICUG_clean_linker_0, # of connection points: 2
#     Edge 39, Type (0, 0), BuildingBlock: OJICUG_clean_linker_0, # of connection points: 2
#     Edge 40, Type (0, 0), BuildingBlock: OJICUG_clean_linker_0, # of connection points: 2
#     Edge 41, Type (0, 0), BuildingBlock: OJICUG_clean_linker_0, # of connection points: 2
#     Edge 42, Type (0, 0), BuildingBlock: OJICUG_clean_linker_0, # of connection points: 2
#     Edge 43, Type (0, 0), BuildingBlock: OJICUG_clean_linker_0, # of connection points: 2
#     Edge 44, Type (0, 0), BuildingBlock: OJICUG_clean_linker_0, # of connection points: 2
#     Edge 45, Type (0, 0), BuildingBlock: OJICUG_clean_linker_0, # of connection points: 2
#     Edge 46, Type (0, 0), BuildingBlock: OJICUG_clean_linker_0, # of connection points: 2
#     Edge 47, Type (0, 0), BuildingBlock: OJICUG_clean_linker_0, # of connection points: 2
#     Edge 48, Type (0, 0), BuildingBlock: OJICUG_clean_linker_0, # of connection points: 2
#     Edge 49, Type (0, 0), BuildingBlock: OJICUG_clean_linker_0, # of connection points: 2
#     Edge 50, Type (0, 0), BuildingBlock: OJICUG_clean_linker_0, # of connection points: 2
#     Edge 51, Type (0, 0), BuildingBlock: OJICUG_clean_linker_0, # of connection points: 2
#     Edge 52, Type (0, 0), BuildingBlock: OJICUG_clean_linker_0, # of connection points: 2
#     Edge 53, Type (0, 0), BuildingBlock: OJICUG_clean_linker_0, # of connection points: 2
#     Edge 54, Type (0, 0), BuildingBlock: OJICUG_clean_linker_0, # of connection points: 2
#     Edge 55, Type (0, 0), BuildingBlock: OJICUG_clean_linker_0, # of connection points: 2
#     Edge 56, Type (0, 0), BuildingBlock: OJICUG_clean_linker_0, # of connection points: 2
#     Edge 57, Type (0, 0), BuildingBlock: OJICUG_clean_linker_0, # of connection points: 2
#     Edge 58, Type (0, 0), BuildingBlock: OJICUG_clean_linker_0, # of connection points: 2
#     Edge 59, Type (0, 0), BuildingBlock: OJICUG_clean_linker_0, # of connection points: 2
#     Edge 60, Type (0, 0), BuildingBlock: OJICUG_clean_linker_0, # of connection points: 2
#     Edge 61, Type (0, 0), BuildingBlock: OJICUG_clean_linker_0, # of connection points: 2
#     Edge 62, Type (0, 0), BuildingBlock: OJICUG_clean_linker_0, # of connection points: 2
#     Edge 63, Type (0, 0), BuildingBlock: OJICUG_clean_linker_0, # of connection points: 2
#     Edge 64, Type (0, 0), BuildingBlock: OJICUG_clean_linker_0, # of connection points: 2
#     Edge 65, Type (0, 0), BuildingBlock: OJICUG_clean_linker_0, # of connection points: 2
#     Edge 66, Type (0, 0), BuildingBlock: OJICUG_clean_linker_0, # of connection points: 2
#     Edge 67, Type (0, 0), BuildingBlock: OJICUG_clean_linker_0, # of connection points: 2
#     Edge 68, Type (0, 0), BuildingBlock: OJICUG_clean_linker_0, # of connection points: 2
#     Edge 69, Type (0, 0), BuildingBlock: OJICUG_clean_linker_0, # of connection points: 2
#     Edge 70, Type (0, 0), BuildingBlock: OJICUG_clean_linker_0, # of connection points: 2
#     Edge 71, Type (0, 0), BuildingBlock: OJICUG_clean_linker_0, # of connection points: 2
#     Edge 72, Type (0, 0), BuildingBlock: OJICUG_clean_linker_0, # of connection points: 2
#     Edge 73, Type (0, 0), BuildingBlock: OJICUG_clean_linker_0, # of connection points: 2
#     Edge 74, Type (0, 0), BuildingBlock: OJICUG_clean_linker_0, # of connection points: 2
#     Edge 75, Type (0, 0), BuildingBlock: OJICUG_clean_linker_0, # of connection points: 2
#     Edge 76, Type (0, 0), BuildingBlock: OJICUG_clean_linker_0, # of connection points: 2
#     Edge 77, Type (0, 0), BuildingBlock: OJICUG_clean_linker_0, # of connection points: 2
#     Edge 78, Type (0, 0), BuildingBlock: OJICUG_clean_linker_0, # of connection points: 2
#     Edge 79, Type (0, 0), BuildingBlock: OJICUG_clean_linker_0, # of connection points: 2
#     Edge 80, Type (0, 0), BuildingBlock: OJICUG_clean_linker_0, # of connection points: 2
#     Edge 81, Type (0, 0), BuildingBlock: OJICUG_clean_linker_0, # of connection points: 2
#     Edge 82, Type (0, 0), BuildingBlock: OJICUG_clean_linker_0, # of connection points: 2
#     Edge 83, Type (0, 0), BuildingBlock: OJICUG_clean_linker_0, # of connection points: 2
#     Edge 84, Type (0, 0), BuildingBlock: OJICUG_clean_linker_0, # of connection points: 2
#     Edge 85, Type (0, 0), BuildingBlock: OJICUG_clean_linker_0, # of connection points: 2
#     Edge 86, Type (0, 0), BuildingBlock: OJICUG_clean_linker_0, # of connection points: 2
#     Edge 87, Type (0, 0), BuildingBlock: OJICUG_clean_linker_0, # of connection points: 2
#     Edge 88, Type (0, 0), BuildingBlock: OJICUG_clean_linker_0, # of connection points: 2
#     Edge 89, Type (0, 0), BuildingBlock: OJICUG_clean_linker_0, # of connection points: 2
#     Edge 90, Type (0, 0), BuildingBlock: OJICUG_clean_linker_0, # of connection points: 2
#     Edge 91, Type (0, 0), BuildingBlock: OJICUG_clean_linker_0, # of connection points: 2
#     Edge 92, Type (0, 0), BuildingBlock: OJICUG_clean_linker_0, # of connection points: 2
#     Edge 93, Type (0, 0), BuildingBlock: OJICUG_clean_linker_0, # of connection points: 2
#     Edge 94, Type (0, 0), BuildingBlock: OJICUG_clean_linker_0, # of connection points: 2
#     Edge 95, Type (0, 0), BuildingBlock: OJICUG_clean_linker_0, # of connection points: 2
#     Edge 96, Type (0, 0), BuildingBlock: OJICUG_clean_linker_0, # of connection points: 2
#     Edge 97, Type (0, 0), BuildingBlock: OJICUG_clean_linker_0, # of connection points: 2
#     Edge 98, Type (0, 0), BuildingBlock: OJICUG_clean_linker_0, # of connection points: 2
#     Edge 99, Type (0, 0), BuildingBlock: OJICUG_clean_linker_0, # of connection points: 2
#     Edge 100, Type (0, 0), BuildingBlock: OJICUG_clean_linker_0, # of connection points: 2
#     Edge 101, Type (0, 0), BuildingBlock: OJICUG_clean_linker_0, # of connection points: 2
#     Edge 102, Type (0, 0), BuildingBlock: OJICUG_clean_linker_0, # of connection points: 2
#     Edge 103, Type (0, 0), BuildingBlock: OJICUG_clean_linker_0, # of connection points: 2
#     Edge 104, Type (0, 0), BuildingBlock: OJICUG_clean_linker_0, # of connection points: 2
#     Edge 105, Type (0, 0), BuildingBlock: OJICUG_clean_linker_0, # of connection points: 2
#     Edge 106, Type (0, 0), BuildingBlock: OJICUG_clean_linker_0, # of connection points: 2
#     Edge 107, Type (0, 0), BuildingBlock: OJICUG_clean_linker_0, # of connection points: 2
#     Edge 108, Type (0, 0), BuildingBlock: OJICUG_clean_linker_0, # of connection points: 2
#     Edge 109, Type (0, 0), BuildingBlock: OJICUG_clean_linker_0, # of connection points: 2
#     Edge 110, Type (0, 0), BuildingBlock: OJICUG_clean_linker_0, # of connection points: 2
#     Edge 111, Type (0, 0), BuildingBlock: OJICUG_clean_linker_0, # of connection points: 2
#     Edge 112, Type (0, 0), BuildingBlock: OJICUG_clean_linker_0, # of connection points: 2
#     Edge 113, Type (0, 0), BuildingBlock: OJICUG_clean_linker_0, # of connection points: 2
#     Edge 114, Type (0, 0), BuildingBlock: OJICUG_clean_linker_0, # of connection points: 2
#     Edge 115, Type (0, 0), BuildingBlock: OJICUG_clean_linker_0, # of connection points: 2
#     Edge 116, Type (0, 0), BuildingBlock: OJICUG_clean_linker_0, # of connection points: 2
#     Edge 117, Type (0, 0), BuildingBlock: OJICUG_clean_linker_0, # of connection points: 2
#     Edge 118, Type (0, 0), BuildingBlock: OJICUG_clean_linker_0, # of connection points: 2
#     Edge 119, Type (0, 0), BuildingBlock: OJICUG_clean_linker_0, # of connection points: 2
#     Edge 120, Type (0, 0), BuildingBlock: OJICUG_clean_linker_0, # of connection points: 2
#     Edge 121, Type (0, 0), BuildingBlock: OJICUG_clean_linker_0, # of connection points: 2
#     Edge 122, Type (0, 0), BuildingBlock: OJICUG_clean_linker_0, # of connection points: 2
#     Edge 123, Type (0, 0), BuildingBlock: OJICUG_clean_linker_0, # of connection points: 2
#     Edge 124, Type (0, 0), BuildingBlock: OJICUG_clean_linker_0, # of connection points: 2
#     Edge 125, Type (0, 0), BuildingBlock: OJICUG_clean_linker_0, # of connection points: 2
#     Edge 126, Type (0, 0), BuildingBlock: OJICUG_clean_linker_0, # of connection points: 2
#     Edge 127, Type (0, 0), BuildingBlock: OJICUG_clean_linker_0, # of connection points: 2
# Relax obj value: 0.073
# Max RMSD: 0.147
# Mean RMSD: 0.147
data_MOF--net-vcc--node1-MIFKUJ_clean_sbu_0--edge1-OJICUG_clean_linker_0
_symmetry_space_group_name_H-M    P1
_symmetry_Int_Tables_number       1
_symmetry_cell_setting            triclinic
loop_
_symmetry_equiv_pos_as_xyz
'x, y, z'
_cell_length_a     37.870737
_cell_length_b     37.792075
_cell_length_c     35.921518
_cell_angle_alpha  90.260498
_cell_angle_beta   90.014371
_cell_angle_gamma 89.996135
loop_
_atom_site_label
_atom_site_type_symbol
_atom_site_fract_x
_atom_site_fract_y
_atom_site_fract_z
_atom_type_partial_charge
Zn0 Zn 0.31898 0.99269 0.13523 0.0
Zn1 Zn 0.31378 0.00551 0.02004 0.0
C2 C 0.36808 0.97437 0.18835 0.0
O3 O 0.3444 0.94902 0.1902 0.0
C4 C 0.25099 0.02946 0.98577 0.0
O5 O 0.27129 0.05744 0.98225 0.0
O6 O 0.27655 0.99503 0.16834 0.0
O7 O 0.31669 0.02069 0.09087 0.0
O8 O 0.32323 0.05453 0.04409 0.0
C9 C 0.27838 0.01633 0.19577 0.0
O10 O 0.30612 0.03699 0.19897 0.0
O11 O 0.36302 -0.00029 0.16575 0.0
C12 C 0.33765 0.9764 0.95161 0.0
O13 O 0.3206 0.94876 0.96449 0.0
O14 O 0.34005 0.00404 0.97171 0.0
O15 O 0.32754 0.96002 0.05082 0.0
O16 O 0.32606 0.94588 0.11157 0.0
O17 O 0.26272 0.00284 1.00346 0.0
C18 C 0.3221 0.05136 0.079 0.0
C19 C 0.3322 0.938 0.07756 0.0
Zn20 Zn 0.89908 0.24898 0.14307 0.0
Zn21 Zn 0.90933 0.23365 0.02947 0.0
C22 C 0.84828 0.26829 0.19475 0.0
O23 O 0.86834 0.29658 0.19251 0.0
C24 C 0.97995 0.21414 0.01253 0.0
O25 O 0.96517 0.1827 0.01273 0.0
O26 O 0.9438 0.25375 0.17303 0.0
O27 O 0.90196 0.21802 0.10062 0.0
O28 O 0.90126 0.18456 0.05284 0.0
C29 C 0.94362 0.24257 0.20636 0.0
O30 O 0.91509 0.2272 0.21931 0.0
O31 O 0.85662 0.24099 0.17583 0.0
C32 C 0.89531 0.25852 0.9574 0.0
O33 O 0.90915 0.28705 0.97251 0.0
O34 O 0.89075 0.23129 0.97741 0.0
O35 O 0.88813 0.2791 0.05512 0.0
O36 O 0.88742 0.29271 0.11624 0.0
O37 O 0.9615 0.24098 0.02133 0.0
C38 C 0.90019 0.18712 0.08784 0.0
C39 C 0.88088 0.30009 0.08229 0.0
Zn40 Zn 0.32463 0.24481 0.14894 0.0
Zn41 Zn 0.35794 0.22755 0.22198 0.0
C42 C 0.38094 0.2707 0.10634 0.0
O43 O 0.35903 0.29765 0.10602 0.0
C44 C 0.29074 0.20863 0.25178 0.0
O45 O 0.30758 0.17859 0.25655 0.0
O46 O 0.29172 0.25525 0.10691 0.0
O47 O 0.31129 0.19621 0.16685 0.0
O48 O 0.36492 0.18578 0.18682 0.0
C49 C 0.29512 0.23636 0.07777 0.0
O50 O 0.31851 0.21067 0.07754 0.0
O51 O 0.37258 0.24312 0.12447 0.0
C52 C 0.37462 0.24463 0.29396 0.0
O53 O 0.35914 0.27311 0.28092 0.0
O54 O 0.37944 0.21839 0.27225 0.0
O55 O 0.37704 0.27449 0.20482 0.0
O56 O 0.32435 0.28711 0.18332 0.0
O57 O 0.30632 0.23383 0.23521 0.0
C58 C 0.33695 0.17503 0.17083 0.0
C59 C 0.35411 0.29738 0.19572 0.0
Zn60 Zn 0.89135 0.00325 0.12299 0.0
Zn61 Zn 0.91111 0.01551 0.23961 0.0
C62 C 0.83762 0.97987 0.07658 0.0
O63 O 0.86036 0.95361 0.07601 0.0
C64 C 0.97294 0.0372 0.27635 0.0
O65 O 0.95245 0.06486 0.28142 0.0
O66 O 0.9321 0.00538 0.08688 0.0
O67 O 0.89689 0.03263 0.16718 0.0
O68 O 0.90395 0.06466 0.21583 0.0
C69 C 0.92778 0.01923 0.05497 0.0
O70 O 0.89716 0.03345 0.04665 0.0
O71 O 0.84483 0.00737 0.09574 0.0
C72 C 0.88877 0.98654 0.30775 0.0
O73 O 0.90496 0.95915 0.29289 0.0
O74 O 0.88538 0.01454 0.28862 0.0
O75 O 0.89748 0.97044 0.2081 0.0
O76 O 0.88942 0.95684 0.14778 0.0
O77 O 0.96179 0.01166 0.25638 0.0
C78 C 0.89847 0.06316 0.18114 0.0
C79 C 0.8903 0.94817 0.18205 0.0
Zn80 Zn 0.63664 0.9833 0.97342 0.0
Zn81 Zn 0.66917 -0.00339 0.89509 0.0
C82 C 0.7034 0.96365 1.00253 0.0
O83 O 0.68588 0.93411 0.00799 0.0
C84 C 0.61214 0.02021 0.85161 0.0
O85 O 0.63315 0.04786 0.85089 0.0
O86 O 0.6152 0.97673 0.0242 0.0
O87 O 0.61858 0.02941 0.95431 0.0
O88 O 0.6692 0.04091 0.92673 0.0
C89 C 0.61957 0.00358 0.04523 0.0
O90 O 0.63482 0.03191 0.03153 0.0
O91 O 0.68831 0.98896 0.98568 0.0
C92 C 0.70162 0.98094 0.82616 0.0
O93 O 0.67922 0.95451 0.82857 0.0
O94 O 0.7031 0.00338 0.85262 0.0
O95 O 0.68155 0.9499 0.91809 0.0
O96 O 0.62831 0.9409 0.93999 0.0
O97 O 0.62138 0.99324 0.87027 0.0
C98 C 0.64087 0.05161 0.94219 0.0
C99 C 0.65567 0.92933 0.92356 0.0
Zn100 Zn 0.07346 0.75702 0.98438 0.0
Zn101 Zn 0.09577 0.74877 0.86803 0.0
C102 C 0.0126 0.77728 0.0227 0.0
O103 O 0.03273 0.80546 0.0257 0.0
C104 C 0.14777 0.72856 0.81944 0.0
O105 O 0.12394 0.70338 0.81691 0.0
O106 O 0.10199 0.7563 0.03151 0.0
O107 O 0.08875 0.71349 0.95133 0.0
O108 O 0.09879 0.7015 0.8911 0.0
C109 C 0.1022 0.72752 0.0497 0.0
O110 O 0.08695 0.69942 0.03522 0.0
O111 O 0.02371 0.751 1.00376 0.0
C112 C 0.05749 0.76945 0.8032 0.0
O113 O 0.08597 0.78853 0.79763 0.0
O114 O 0.05516 0.7509 0.8325 0.0
O115 O 0.08869 0.77678 0.91251 0.0
O116 O 0.07626 0.80695 0.96116 0.0
O117 O 0.14179 0.75482 0.84083 0.0
C118 C 0.09713 0.69192 0.92505 0.0
C119 C 0.0827 0.80662 0.92665 0.0
Zn120 Zn 0.67914 0.7595 0.77351 0.0
Zn121 Zn 0.66502 0.74739 0.88998 0.0
C122 C 0.74131 0.78168 0.73756 0.0
O123 O 0.72051 0.80912 0.73282 0.0
C124 C 0.61251 0.7293 0.93983 0.0
O125 O 0.63536 0.7032 0.94191 0.0
O126 O 0.65339 0.75781 0.72466 0.0
O127 O 0.6635 0.71526 0.8049 0.0
O128 O 0.65865 0.70111 0.86543 0.0
C129 C 0.66047 0.73197 0.70311 0.0
O130 O 0.6813 0.70667 0.71514 0.0
O131 O 0.73032 0.75594 0.75716 0.0
C132 C 0.70357 0.76552 0.95479 0.0
O133 O 0.67597 0.78616 0.95927 0.0
O134 O 0.70602 0.74691 0.92533 0.0
O135 O 0.67118 0.77484 0.84517 0.0
O136 O 0.67052 0.80855 0.79754 0.0
O137 O 0.61931 0.7551 0.91829 0.0
C138 C 0.65625 0.69322 0.83093 0.0
C139 C 0.66857 0.80559 0.83249 0.0
Zn140 Zn 0.07761 0.9799 0.77515 0.0
Zn141 Zn 0.05927 0.00228 0.86456 0.0
C142 C 0.01028 0.95765 0.75131 0.0
O143 O 0.0287 0.92826 0.74904 0.0
C144 C 0.11868 0.02676 0.90518 0.0
O145 O 0.09861 0.0551 0.90538 0.0
O146 O 0.09585 0.96984 0.72357 0.0
O147 O 0.10036 0.02644 0.79029 0.0
O148 O 0.05889 0.04368 0.82933 0.0
C149 C 0.08908 -0.00452 0.70189 0.0
O150 O 0.07358 0.02379 0.71561 0.0
O151 O 0.02484 0.98497 0.76543 0.0
C152 C 0.03062 -7e-05 0.93813 0.0
O153 O 0.05738 0.97832 0.943 0.0
O154 O 0.02588 0.01383 0.90635 0.0
O155 O 0.04409 0.9547 0.84529 0.0
O156 O 0.08833 0.93884 0.80958 0.0
O157 O 0.10792 -0.00077 0.88809 0.0
C158 C 0.08533 0.05081 0.80889 0.0
C159 C 0.06742 0.93214 0.83631 0.0
Zn160 Zn 0.33687 0.48788 0.63949 0.0
Zn161 Zn 0.31662 0.49861 0.52283 0.0
C162 C 0.38809 0.47161 0.69149 0.0
O163 O 0.36608 0.44478 0.69327 0.0
C164 C 0.25483 0.51901 0.48685 0.0
O165 O 0.27538 0.54685 0.48376 0.0
O166 O 0.29549 0.48652 0.67427 0.0
O167 O 0.32987 0.51671 0.59594 0.0
O168 O 0.32036 0.54792 0.54746 0.0
C169 C 0.29527 0.50818 0.70144 0.0
O170 O 0.32038 0.53207 0.70381 0.0
O171 O 0.38139 0.49661 0.66896 0.0
C172 C 0.34218 0.47301 0.45357 0.0
O173 O 0.32652 0.44431 0.46581 0.0
O174 O 0.34338 0.50022 0.47447 0.0
O175 O 0.33525 0.45503 0.55383 0.0
O176 O 0.34392 0.44206 0.61416 0.0
O177 O 0.26602 0.49246 0.50514 0.0
C178 C 0.32635 0.54689 0.58205 0.0
C179 C 0.34462 0.43358 0.57971 0.0
Zn180 Zn 0.92941 0.74781 0.61169 0.0
Zn181 Zn 0.90511 0.72296 0.53084 0.0
C182 C 0.8705 0.77569 0.6516 0.0
O183 O 0.89038 0.80409 0.64933 0.0
C184 C 0.9755 0.70552 0.51333 0.0
O185 O 0.96042 0.67431 0.51045 0.0
O186 O 0.96282 0.76198 0.65226 0.0
O187 O 0.94351 0.69888 0.59676 0.0
O188 O 0.89716 0.68189 0.56434 0.0
C189 C 0.95831 0.74741 0.68371 0.0
O190 O 0.93268 0.7243 0.68763 0.0
O191 O 0.88096 0.74723 0.63604 0.0
C192 C 0.89551 0.74157 0.45837 0.0
O193 O 0.9095 0.76954 0.47446 0.0
O194 O 0.88892 0.71448 0.47812 0.0
O195 O 0.88053 0.76649 0.54869 0.0
O196 O 0.93041 0.78529 0.57266 0.0
O197 O 0.9572 0.7317 0.52436 0.0
C198 C 0.92036 0.67573 0.58902 0.0
C199 C 0.90026 0.79175 0.55898 0.0
Zn200 Zn 0.32262 0.74428 0.64604 0.0
Zn201 Zn 0.3519 0.72616 0.72405 0.0
C202 C 0.38323 0.76122 0.60244 0.0
O203 O 0.36377 0.78917 0.59529 0.0
C204 C 0.2835 0.70939 0.74996 0.0
O205 O 0.29903 0.67853 0.75387 0.0
O206 O 0.29169 0.7563 0.60251 0.0
O207 O 0.30578 0.69775 0.66469 0.0
O208 O 0.35625 0.68294 0.69019 0.0
C209 C 0.29571 0.7391 0.57232 0.0
O210 O 0.31954 0.71387 0.57076 0.0
O211 O 0.37171 0.73824 0.62515 0.0
C212 C 0.36827 0.74463 0.79608 0.0
O213 O 0.35421 0.77334 0.78185 0.0
O214 O 0.37217 0.71758 0.77525 0.0
O215 O 0.37306 0.77214 0.70563 0.0
O216 O 0.32194 0.78562 0.6807 0.0
O217 O 0.30062 0.73475 0.73558 0.0
C218 C 0.32956 0.67478 0.67035 0.0
C219 C 0.35131 0.79533 0.69432 0.0
Zn220 Zn 0.89793 0.4988 0.62044 0.0
Zn221 Zn 0.92036 0.50387 0.7376 0.0
C222 C 0.84425 0.47927 0.57203 0.0
O223 O 0.86738 0.45355 0.56854 0.0
C224 C 0.98251 0.52328 0.77372 0.0
O225 O 0.96288 0.55172 0.7776 0.0
O226 O 0.93883 0.502 0.58506 0.0
O227 O 0.90443 0.52314 0.6674 0.0
O228 O 0.91716 0.55378 0.71578 0.0
C229 C 0.93622 0.51982 0.55525 0.0
O230 O 0.90736 0.53818 0.54914 0.0
O231 O 0.85134 0.50505 0.59371 0.0
C232 C 0.89262 0.47465 0.80444 0.0
O233 O 0.90804 0.44612 0.79114 0.0
O234 O 0.89239 0.50267 0.785 0.0
O235 O 0.90483 0.46252 0.70228 0.0
O236 O 0.89551 0.45129 0.64161 0.0
O237 O 0.9704 0.49715 0.7553 0.0
C238 C 0.9102 0.55298 0.68142 0.0
C239 C 0.89642 0.44154 0.67555 0.0
Zn240 Zn 0.63762 0.48493 0.48139 0.0
Zn241 Zn 0.66661 0.50294 0.40298 0.0
C242 C 0.70663 0.46491 0.50478 0.0
O243 O 0.69026 0.43453 0.50894 0.0
C244 C 0.60807 0.52809 0.36134 0.0
O245 O 0.62836 0.55628 0.36128 0.0
O246 O 0.61876 0.47586 0.53272 0.0
O247 O 0.61752 0.53119 0.46471 0.0
O248 O 0.66859 0.54338 0.43897 0.0
C249 C 0.62495 0.50202 0.55413 0.0
O250 O 0.64 0.53036 0.54022 0.0
O251 O 0.68988 0.49091 0.49111 0.0
C252 C 0.69526 0.49724 0.33045 0.0
O253 O 0.67047 0.47298 0.3284 0.0
O254 O 0.6996 0.51401 0.36087 0.0
O255 O 0.67994 0.45507 0.42127 0.0
O256 O 0.62849 0.44388 0.44679 0.0
O257 O 0.6181 0.50089 0.37917 0.0
C258 C 0.63974 0.55376 0.4533 0.0
C259 C 0.65467 0.43389 0.42734 0.0
Zn260 Zn 0.07072 0.25709 0.48663 0.0
Zn261 Zn 0.10236 0.24761 0.37183 0.0
C262 C 0.00751 0.27613 0.52222 0.0
O263 O 0.0261 0.30539 0.52483 0.0
C264 C 0.1562 0.22612 0.32524 0.0
O265 O 0.13325 0.20006 0.32397 0.0
O266 O 0.0986 0.25746 0.534 0.0
O267 O 0.08796 0.21442 0.4542 0.0
O268 O 0.10393 0.20084 0.39583 0.0
C269 C 0.09985 0.22867 0.5521 0.0
O270 O 0.08559 0.20008 0.53758 0.0
O271 O 0.02054 0.24988 0.50466 0.0
C272 C 0.06294 0.26173 0.30431 0.0
O273 O 0.09202 0.27731 0.29306 0.0
O274 O 0.06168 0.24838 0.33665 0.0
O275 O 0.09278 0.27527 0.41631 0.0
O276 O 0.07391 0.30618 0.46221 0.0
O277 O 0.14906 0.25326 0.34502 0.0
C278 C 0.09834 0.19211 0.42956 0.0
C279 C 0.08386 0.30511 0.4286 0.0
Zn280 Zn 0.64545 0.25313 0.28923 0.0
Zn281 Zn 0.67138 0.23683 0.37493 0.0
C282 C 0.71342 0.27651 0.26821 0.0
O283 O 0.69546 0.30599 0.2641 0.0
C284 C 0.61422 0.21167 0.4183 0.0
O285 O 0.6357 0.18437 0.41878 0.0
O286 O 0.62695 0.25993 0.23691 0.0
O287 O 0.62777 0.20632 0.3061 0.0
O288 O 0.67392 0.19433 0.3415 0.0
C289 C 0.63398 0.23391 0.21548 0.0
O290 O 0.65029 0.20626 0.22937 0.0
O291 O 0.69789 0.2495 0.28123 0.0
C292 C 0.70309 0.25158 0.44482 0.0
O293 O 0.68032 0.27777 0.44296 0.0
O294 O 0.70515 0.22993 0.41768 0.0
O295 O 0.68367 0.28289 0.35158 0.0
O296 O 0.63351 0.2939 0.32336 0.0
O297 O 0.62293 0.23875 0.39943 0.0
C298 C 0.6486 0.18412 0.32084 0.0
C299 C 0.65808 0.30357 0.34521 0.0
Zn300 Zn 0.08553 0.47697 0.27655 0.0
Zn301 Zn 0.06416 0.49773 0.36235 0.0
C302 C 0.01475 0.45955 0.25925 0.0
O303 O 0.02979 0.42836 0.25586 0.0
C304 C 0.12391 0.52024 0.40369 0.0
O305 O 0.10461 0.54912 0.40392 0.0
O306 O 0.10106 0.46763 0.2237 0.0
O307 O 0.10975 0.52206 0.29259 0.0
O308 O 0.0645 0.53865 0.32687 0.0
C309 C 0.0943 0.494 0.20298 0.0
O310 O 0.08031 0.52245 0.21813 0.0
O311 O 0.03317 0.48555 0.27061 0.0
C312 C 0.03547 0.49609 0.4358 0.0
O313 O 0.06134 0.47332 0.44016 0.0
O314 O 0.03099 0.51033 0.40414 0.0
O315 O 0.04822 0.45083 0.34268 0.0
O316 O 0.09456 0.43499 0.31002 0.0
O317 O 0.11266 0.49324 0.38604 0.0
C318 C 0.0923 0.54631 0.30883 0.0
C319 C 0.07159 0.42798 0.33472 0.0
Zn320 Zn 0.82041 0.98285 0.62571 0.0
Zn321 Zn 0.84375 0.00171 0.53852 0.0
C322 C 0.87831 0.96086 0.66953 0.0
O323 O 0.85811 0.93259 0.66941 0.0
C324 C 0.77493 0.02 0.51709 0.0
O325 O 0.79142 0.0504 0.5136 0.0
O326 O 0.78648 0.97463 0.66786 0.0
O327 O 0.80541 0.02799 0.60156 0.0
O328 O 0.85325 0.04333 0.57135 0.0
C329 C 0.78731 -0.00261 0.69406 0.0
O330 O 0.80894 0.02444 0.69128 0.0
O331 O 0.86841 0.98777 0.65101 0.0
C332 C 0.85682 0.98261 0.46497 0.0
O333 O 0.84316 0.95366 0.47908 0.0
O334 O 0.86171 0.0092 0.48624 0.0
O335 O 0.86633 0.95811 0.55748 0.0
O336 O 0.82199 0.9398 0.5926 0.0
O337 O 0.79164 0.9938 0.5304 0.0
C338 C 0.82941 0.05044 0.59497 0.0
C339 C 0.84907 0.93338 0.57279 0.0
Zn340 Zn 0.4321 0.24808 0.61327 0.0
Zn341 Zn 0.41506 0.22628 0.524 0.0
C342 C 0.37124 0.27231 0.65213 0.0
O343 O 0.39086 0.30098 0.65223 0.0
C344 C 0.48288 0.20503 0.50073 0.0
O345 O 0.46498 0.17533 0.49816 0.0
O346 O 0.46383 0.26064 0.65616 0.0
O347 O 0.44837 0.20085 0.59441 0.0
O348 O 0.40467 0.18483 0.55793 0.0
C349 C 0.45835 0.24673 0.68779 0.0
O350 O 0.43237 0.224 0.69155 0.0
O351 O 0.38265 0.24482 0.63541 0.0
C352 C 0.40475 0.24309 0.45113 0.0
O353 O 0.42006 0.27104 0.46584 0.0
O354 O 0.39753 0.21698 0.47202 0.0
O355 O 0.39179 0.2724 0.53945 0.0
O356 O 0.43436 0.28866 0.57744 0.0
O357 O 0.46779 0.23201 0.51492 0.0
C358 C 0.42549 0.17808 0.58475 0.0
C359 C 0.40777 0.29645 0.55757 0.0
Zn360 Zn 0.81915 0.24639 0.64753 0.0
Zn361 Zn 0.84944 0.23314 0.7288 0.0
C362 C 0.876 0.26957 0.60373 0.0
O363 O 0.85451 0.29684 0.60259 0.0
C364 C 0.78103 0.21525 0.75406 0.0
O365 O 0.79724 0.18498 0.75955 0.0
O366 O 0.78522 0.2537 0.60498 0.0
O367 O 0.80608 0.20065 0.67153 0.0
O368 O 0.8577 0.19025 0.69707 0.0
C369 C 0.78693 0.23187 0.57797 0.0
O370 O 0.80933 0.20538 0.57998 0.0
O371 O 0.86715 0.2427 0.62281 0.0
C372 C 0.8656 0.25554 0.79998 0.0
O373 O 0.85129 0.2837 0.78487 0.0
O374 O 0.86961 0.22784 0.78016 0.0
O375 O 0.86938 0.27722 0.70803 0.0
O376 O 0.81939 0.28992 0.67968 0.0
O377 O 0.79773 0.24047 0.73887 0.0
C378 C 0.83127 0.17962 0.67841 0.0
C379 C 0.84807 0.29981 0.69494 0.0
Zn380 Zn 0.39078 -0.00201 0.61909 0.0
Zn381 Zn 0.41782 0.00534 0.73446 0.0
C382 C 0.33896 0.97722 0.57022 0.0
O383 O 0.36257 0.95177 0.56862 0.0
C384 C 0.48032 0.02484 0.77072 0.0
O385 O 0.46117 0.0537 0.77365 0.0
O386 O 0.43228 -0.00116 0.58523 0.0
O387 O 0.39865 0.0249 0.66397 0.0
O388 O 0.41526 0.0551 0.7111 0.0
C389 C 0.43141 0.01215 0.55287 0.0
O390 O 0.40255 0.02796 0.54131 0.0
O391 O 0.34496 0.00386 0.59112 0.0
C392 C 0.38863 0.97696 0.80019 0.0
O393 O 0.40303 0.94824 0.7861 0.0
O394 O 0.38976 0.00553 0.7817 0.0
O395 O 0.40149 0.96187 0.70202 0.0
O396 O 0.38828 0.95103 0.64219 0.0
O397 O 0.46783 -0.0015 0.75288 0.0
C398 C 0.40696 0.05459 0.67704 0.0
C399 C 0.39201 0.94079 0.67573 0.0
Zn400 Zn 0.1358 0.97696 0.47256 0.0
Zn401 Zn 0.16291 0.00041 0.39578 0.0
C402 C 0.20481 0.95836 0.49685 0.0
O403 O 0.18949 0.92727 0.49948 0.0
C404 C 0.10302 0.02888 0.35992 0.0
O405 O 0.12391 0.05663 0.36097 0.0
O406 O 0.11599 0.96729 0.52363 0.0
O407 O 0.11517 0.024 0.45673 0.0
O408 O 0.16719 0.03788 0.43471 0.0
C409 C 0.12155 0.99355 0.54516 0.0
O410 O 0.13719 0.02175 0.53168 0.0
O411 O 0.18745 0.98415 0.48366 0.0
C412 C 0.18656 -0.00172 0.32189 0.0
O413 O 0.1613 0.97447 0.32082 0.0
O414 O 0.19304 0.01413 0.35242 0.0
O415 O 0.17831 0.95169 0.40864 0.0
O416 O 0.1299 0.93506 0.43733 0.0
O417 O 0.11322 0.00028 0.37506 0.0
C418 C 0.13793 0.04743 0.44868 0.0
C419 C 0.1554 0.92814 0.41538 0.0
Zn420 Zn 0.57755 0.76359 0.48648 0.0
Zn421 Zn 0.59835 0.75063 0.36969 0.0
C422 C 0.51528 0.73972 0.5246 0.0
O423 O 0.53663 0.7142 0.53496 0.0
C424 C 0.65334 0.72623 0.32422 0.0
O425 O 0.63092 0.69971 0.32335 0.0
O426 O 0.60381 0.76169 0.53514 0.0
O427 O 0.58996 0.71969 0.45349 0.0
O428 O 0.59815 0.70409 0.3938 0.0
C429 C 0.61645 0.73351 0.54898 0.0
O430 O 0.61544 0.70403 0.52948 0.0
O431 O 0.52633 0.76273 0.50166 0.0
C432 C 0.56232 0.76793 0.30156 0.0
O433 O 0.59344 0.7807 0.29269 0.0
O434 O 0.55776 0.7546 0.33366 0.0
O435 O 0.59359 0.77899 0.41479 0.0
O436 O 0.58665 0.81196 0.46287 0.0
O437 O 0.64545 0.75376 0.34303 0.0
C438 C 0.59673 0.69652 0.42834 0.0
C439 C 0.5925 0.80967 0.42831 0.0
Zn440 Zn 0.17487 0.75064 0.27138 0.0
Zn441 Zn 0.15929 0.73999 0.38811 0.0
C442 C 0.23724 0.77367 0.23788 0.0
O443 O 0.21665 0.80149 0.23483 0.0
C444 C 0.11018 0.72085 0.44115 0.0
O445 O 0.13346 0.69509 0.44239 0.0
O446 O 0.14867 0.7502 0.2228 0.0
O447 O 0.1591 0.7067 0.30289 0.0
O448 O 0.15351 0.69368 0.36356 0.0
C449 C 0.1512 0.72309 0.20192 0.0
O450 O 0.16805 0.69508 0.2142 0.0
O451 O 0.22576 0.74662 0.25503 0.0
C452 C 0.20201 0.7625 0.44831 0.0
O453 O 0.176 0.7853 0.45158 0.0
O454 O 0.20183 0.74081 0.42119 0.0
O455 O 0.16282 0.76902 0.3443 0.0
O456 O 0.16803 0.79985 0.29485 0.0
O457 O 0.11541 0.74641 0.4189 0.0
C458 C 0.15165 0.68507 0.32922 0.0
C459 C 0.16341 0.79908 0.32965 0.0
Zn460 Zn 0.57513 0.97548 0.27411 0.0
Zn461 Zn 0.59094 0.9894 0.38864 0.0
C462 C 0.5029 0.95717 0.26034 0.0
O463 O 0.51574 0.92494 0.26228 0.0
C464 C 0.64212 0.00763 0.43967 0.0
O465 O 0.62108 0.03526 0.43829 0.0
O466 O 0.5938 0.97441 0.2219 0.0
O467 O 0.59554 0.0198 0.30186 0.0
O468 O 0.60179 0.03317 0.36268 0.0
C469 C 0.58906 0.00207 0.20257 0.0
O470 O 0.57505 0.03016 0.21842 0.0
O471 O 0.52314 0.98329 0.26671 0.0
C472 C 0.54797 0.98526 0.45359 0.0
O473 O 0.57613 0.96901 0.46628 0.0
O474 O 0.54742 -0.0044 0.41998 0.0
O475 O 0.58475 0.96121 0.3443 0.0
O476 O 0.58358 0.92663 0.29723 0.0
O477 O 0.6345 0.98053 0.42003 0.0
C478 C 0.60484 0.04076 0.3283 0.0
C479 C 0.58639 0.93015 0.33204 0.0
Zn480 Zn 0.82585 0.49759 0.14072 0.0
Zn481 Zn 0.81956 0.5095 0.02392 0.0
C482 C 0.87822 0.47561 0.19017 0.0
O483 O 0.85484 0.45001 0.19233 0.0
C484 C 0.75845 0.53734 0.98804 0.0
O485 O 0.77938 0.56493 0.98535 0.0
O486 O 0.78479 0.50172 0.17594 0.0
O487 O 0.82405 0.52486 0.09567 0.0
O488 O 0.83031 0.55809 0.04831 0.0
C489 C 0.78886 0.5192 0.20598 0.0
O490 O 0.81839 0.53676 0.21129 0.0
O491 O 0.87189 0.50168 0.16888 0.0
C492 C 0.84401 0.47769 0.95682 0.0
O493 O 0.8256 0.45104 0.96991 0.0
O494 O 0.84724 0.50558 0.97644 0.0
O495 O 0.82665 0.46304 0.05545 0.0
O496 O 0.82661 0.4506 0.11664 0.0
O497 O 0.76923 0.51016 1.00543 0.0
C498 C 0.82943 0.55534 0.08329 0.0
C499 C 0.82905 0.44107 0.08255 0.0
Zn500 Zn 0.42725 0.75258 0.11373 0.0
Zn501 Zn 0.40565 0.73129 0.02801 0.0
C502 C 0.36884 0.77501 0.15666 0.0
O503 O 0.38854 0.80361 0.15729 0.0
C504 C 0.47633 0.71422 0.01022 0.0
O505 O 0.46124 0.68305 0.00693 0.0
O506 O 0.46149 0.76471 0.15464 0.0
O507 O 0.44252 0.70503 0.09461 0.0
O508 O 0.39633 0.6894 0.06166 0.0
C509 C 0.45767 0.75025 0.18628 0.0
O510 O 0.43144 0.72803 0.19132 0.0
O511 O 0.37949 0.74814 0.13843 0.0
C512 C 0.39688 0.74706 0.95392 0.0
O513 O 0.4108 0.77586 0.9684 0.0
O514 O 0.39016 0.72115 0.97528 0.0
O515 O 0.38101 0.77636 0.04346 0.0
O516 O 0.42513 0.79423 0.0788 0.0
O517 O 0.45803 0.74018 0.02192 0.0
C518 C 0.41901 0.68231 0.08663 0.0
C519 C 0.39738 0.80107 0.06021 0.0
Zn520 Zn 0.82627 0.74848 0.15103 0.0
Zn521 Zn 0.85736 0.73217 0.22691 0.0
C522 C 0.88377 0.7742 0.10876 0.0
O523 O 0.86307 0.8021 0.10892 0.0
C524 C 0.7894 0.71131 0.25328 0.0
O525 O 0.80665 0.68154 0.25832 0.0
O526 O 0.79301 0.75872 0.10918 0.0
O527 O 0.81376 0.69985 0.16911 0.0
O528 O 0.8668 0.69112 0.19174 0.0
C529 C 0.79664 0.74116 0.07917 0.0
O530 O 0.82098 0.71642 0.07736 0.0
O531 O 0.87433 0.74683 0.12663 0.0
C532 C 0.87052 0.74791 0.30024 0.0
O533 O 0.85501 0.77645 0.28737 0.0
O534 O 0.87696 0.7225 0.27793 0.0
O535 O 0.87606 0.77969 0.21107 0.0
O536 O 0.82458 0.7906 0.18552 0.0
O537 O 0.8051 0.73706 0.2378 0.0
C538 C 0.83987 0.67954 0.17451 0.0
C539 C 0.85317 0.80178 0.19992 0.0
Zn540 Zn 0.3949 0.49911 0.11889 0.0
Zn541 Zn 0.41903 0.50787 0.23555 0.0
C542 C 0.34186 0.47757 0.07119 0.0
O543 O 0.36529 0.45199 0.06922 0.0
C544 C 0.47955 0.52905 0.27428 0.0
O545 O 0.45897 0.55692 0.27715 0.0
O546 O 0.4356 0.50246 0.0834 0.0
O547 O 0.40193 0.52688 0.16368 0.0
O548 O 0.41526 0.5575 0.21185 0.0
C549 C 0.43326 0.52136 0.05434 0.0
O550 O 0.40431 0.53965 0.04844 0.0
O551 O 0.34842 0.50429 0.09178 0.0
C552 C 0.39136 0.47835 0.30136 0.0
O553 O 0.40759 0.45068 0.28717 0.0
O554 O 0.39048 0.50691 0.28278 0.0
O555 O 0.40414 0.4643 0.20227 0.0
O556 O 0.3933 0.45187 0.14222 0.0
O557 O 0.46896 0.50265 0.25516 0.0
C558 C 0.40796 0.55686 0.1775 0.0
C559 C 0.39579 0.44247 0.1762 0.0
Zn560 Zn 0.13831 0.47769 0.97262 0.0
Zn561 Zn 0.17115 0.49411 0.89722 0.0
C562 C 0.20635 0.45927 1.00019 0.0
O563 O 0.18998 0.42899 1.00507 0.0
C564 C 0.11438 0.51845 0.85393 0.0
O565 O 0.13542 0.54608 0.85347 0.0
O566 O 0.1178 0.46881 0.02358 0.0
O567 O 0.1186 0.5242 0.95507 0.0
O568 O 0.17029 0.53704 0.93097 0.0
C569 C 0.12248 0.49523 0.04512 0.0
O570 O 0.13726 0.5239 0.03166 0.0
O571 O 0.19007 0.48449 0.98444 0.0
C572 C 0.20236 0.48538 0.82644 0.0
O573 O 0.17914 0.45955 0.82561 0.0
O574 O 0.20481 0.50443 0.85558 0.0
O575 O 0.1842 0.44569 0.91611 0.0
O576 O 0.13105 0.43569 0.93789 0.0
O577 O 0.12356 0.49127 0.87227 0.0
C578 C 0.1408 0.54713 0.94426 0.0
C579 C 0.15851 0.42472 0.9211 0.0
Zn580 Zn 0.57516 0.26144 0.99024 0.0
Zn581 Zn 0.59416 0.25355 0.87332 0.0
C582 C 0.51194 0.28029 0.02507 0.0
O583 O 0.53084 0.30921 0.02914 0.0
C584 C 0.6452 0.23378 0.82328 0.0
O585 O 0.62157 0.20837 0.82128 0.0
O586 O 0.60113 0.26188 0.03918 0.0
O587 O 0.59128 0.21789 0.95756 0.0
O588 O 0.5991 0.20691 0.89656 0.0
C589 C 0.59942 0.234 0.05875 0.0
O590 O 0.58463 0.20557 0.04446 0.0
O591 O 0.52483 0.25449 0.00675 0.0
C592 C 0.55403 0.27345 0.80971 0.0
O593 O 0.58147 0.29417 0.80476 0.0
O594 O 0.55261 0.25432 0.83868 0.0
O595 O 0.58821 0.28063 0.91843 0.0
O596 O 0.57848 0.31124 0.96748 0.0
O597 O 0.63941 0.25999 0.8448 0.0
C598 C 0.59946 0.19711 0.93048 0.0
C599 C 0.58397 0.31061 0.93283 0.0
Zn600 Zn 0.1777 0.25285 0.77142 0.0
Zn601 Zn 0.16604 0.24031 0.88731 0.0
C602 C 0.23976 0.27414 0.73472 0.0
O603 O 0.21926 0.30195 0.73102 0.0
C604 C 0.11482 0.2245 0.939 0.0
O605 O 0.1372 0.19799 0.94108 0.0
O606 O 0.15079 0.25323 0.72343 0.0
O607 O 0.16063 0.2081 0.80193 0.0
O608 O 0.15744 0.19423 0.86264 0.0
C609 C 0.15225 0.22575 0.70298 0.0
O610 O 0.1687 0.19755 0.71538 0.0
O611 O 0.22855 0.24802 0.75365 0.0
C612 C 0.20588 0.25968 0.95021 0.0
O613 O 0.17949 0.2821 0.95301 0.0
O614 O 0.20734 0.23915 0.92213 0.0
O615 O 0.17191 0.26865 0.84337 0.0
O616 O 0.17107 0.30223 0.79582 0.0
O617 O 0.12145 0.2496 0.91654 0.0
C618 C 0.15336 0.18634 0.82829 0.0
C619 C 0.16991 0.29949 0.8308 0.0
Zn620 Zn 0.59123 0.48479 0.78539 0.0
Zn621 Zn 0.56743 0.50959 0.86645 0.0
C622 C 0.52197 0.46458 0.76727 0.0
O623 O 0.53863 0.43414 0.765 0.0
C624 C 0.62683 0.53654 0.90645 0.0
O625 O 0.6071 0.56512 0.90584 0.0
O626 O 0.60717 0.47467 0.73302 0.0
O627 O 0.61473 0.5304 0.79993 0.0
O628 O 0.5666 0.54829 0.82824 0.0
C629 C 0.59971 0.50078 0.71221 0.0
O630 O 0.58499 0.52893 0.72718 0.0
O631 O 0.53877 0.49169 0.77853 0.0
C632 C 0.53793 0.50783 0.93855 0.0
O633 O 0.56416 0.48542 0.94266 0.0
O634 O 0.53372 0.52286 0.90728 0.0
O635 O 0.55382 0.46012 0.85205 0.0
O636 O 0.60063 0.4441 0.81999 0.0
O637 O 0.61584 0.50866 0.89021 0.0
C638 C 0.59553 0.5554 0.81204 0.0
C639 C 0.57731 0.43727 0.84437 0.0
C640 C 0.35554 0.84803 0.03702 0.0
C641 C 0.38223 0.83716 0.06182 0.0
H642 H 0.31896 0.88924 0.02193 0.0
C643 C 0.39323 0.86055 0.08998 0.0
H644 H 0.34669 0.83061 0.01488 0.0
C645 C 0.37679 0.8932 0.09456 0.0
C646 C 0.34969 0.90382 0.07042 0.0
H647 H 0.41388 0.85328 0.10935 0.0
H648 H 0.38533 0.91025 0.11719 0.0
C649 C 0.33971 0.88145 0.04097 0.0
C650 C 0.85886 0.39182 0.04704 0.0
C651 C 0.83591 0.40322 0.0755 0.0
H652 H 0.89155 0.34925 0.02662 0.0
C653 C 0.82378 0.37864 0.10168 0.0
H654 H 0.86862 0.41037 0.02657 0.0
C655 C 0.83687 0.34437 0.10183 0.0
C656 C 0.86234 0.33372 0.07573 0.0
H657 H 0.80566 0.38651 0.12355 0.0
H658 H 0.82838 0.32663 0.12371 0.0
C659 C 0.87203 0.35703 0.04712 0.0
C660 C 0.40273 0.38447 0.20965 0.0
C661 C 0.38409 0.40634 0.18505 0.0
H662 H 0.40809 0.33206 0.232 0.0
C663 C 0.35431 0.3929 0.16649 0.0
H664 H 0.42575 0.39436 0.22426 0.0
C665 C 0.34382 0.35799 0.17144 0.0
C666 C 0.36336 0.33534 0.19441 0.0
H667 H 0.33928 0.40939 0.14762 0.0
H668 H 0.32112 0.34843 0.15603 0.0
C669 C 0.39268 0.34895 0.21393 0.0
C670 C 0.88905 0.85474 0.21997 0.0
C671 C 0.86107 0.84006 0.19916 0.0
H672 H 0.92 0.90135 0.23164 0.0
C673 C 0.84148 0.86205 0.17551 0.0
H674 H 0.90445 0.83839 0.23859 0.0
C675 C 0.85071 0.89738 0.17116 0.0
C676 C 0.87926 0.91186 0.19091 0.0
H677 H 0.81977 0.8517 0.15911 0.0
H678 H 0.83579 0.91333 0.15169 0.0
C679 C 0.89785 0.89064 0.21619 0.0
C680 C 0.64982 0.11243 0.91804 0.0
C681 C 0.63245 0.08968 0.94271 0.0
H682 H 0.65264 0.16426 0.89501 0.0
C683 C 0.60584 0.10335 0.96611 0.0
H684 H 0.67043 0.10277 0.89972 0.0
C685 C 0.596 0.13902 0.96385 0.0
C686 C 0.61215 0.16105 0.93759 0.0
H687 H 0.59222 0.08635 0.98561 0.0
H688 H 0.57482 0.1489 0.98129 0.0
C689 C 0.63954 0.14762 0.91527 0.0
C690 C 0.09205 0.63408 0.95929 0.0
C691 C 0.10935 0.65581 0.93349 0.0
H692 H 0.08816 0.58192 0.98261 0.0
C693 C 0.13828 0.64229 0.91353 0.0
H694 H 0.0697 0.64399 0.97498 0.0
C695 C 0.14925 0.60749 0.91839 0.0
C696 C 0.13103 0.58499 0.94269 0.0
H697 H 0.15232 0.65864 0.89372 0.0
H698 H 0.17129 0.59789 0.90198 0.0
C699 C 0.10255 0.59867 0.9635 0.0
C700 C 0.65369 0.63563 0.79594 0.0
C701 C 0.63936 0.65934 0.82197 0.0
H702 H 0.65108 0.58329 0.77259 0.0
C703 C 0.60893 0.64991 0.84183 0.0
H704 H 0.6771 0.6426 0.78027 0.0
C705 C 0.59366 0.61681 0.83691 0.0
C706 C 0.60908 0.59199 0.81274 0.0
H707 H 0.59721 0.66806 0.86176 0.0
H708 H 0.57065 0.61019 0.85338 0.0
C709 C 0.63885 0.60187 0.79168 0.0
C710 C 0.14493 0.13024 0.79082 0.0
C711 C 0.13492 0.15277 0.82015 0.0
H712 H 0.13731 0.07963 0.76441 0.0
C713 C 0.10693 0.14273 0.84345 0.0
H714 H 0.16633 0.13753 0.77239 0.0
C715 C 0.08986 0.11047 0.83842 0.0
C716 C 0.10094 0.0868 0.81054 0.0
H717 H 0.09826 0.15989 0.86593 0.0
H718 H 0.06869 0.10366 0.85733 0.0
C719 C 0.12834 0.0972 0.78635 0.0
C720 C 0.36469 0.3436 0.53713 0.0
C721 C 0.3932 0.33276 0.55963 0.0
H722 H 0.32693 0.38475 0.52528 0.0
C723 C 0.40666 0.35642 0.5863 0.0
H724 H 0.35391 0.326 0.51614 0.0
C725 C 0.39092 0.3892 0.5919 0.0
C726 C 0.36175 0.39966 0.57048 0.0
H727 H 0.42871 0.34923 0.60393 0.0
H728 H 0.40147 0.40636 0.61346 0.0
C729 C 0.34928 0.3771 0.54225 0.0
C730 C 0.89745 0.89078 0.56076 0.0
C731 C 0.86163 0.89703 0.56837 0.0
H732 H 0.93779 0.85207 0.55206 0.0
C733 C 0.83827 0.86843 0.57168 0.0
H734 H 0.916 0.91247 0.55827 0.0
C735 C 0.85064 0.83395 0.56728 0.0
C736 C 0.88661 0.82781 0.56045 0.0
H737 H 0.81051 0.87272 0.57744 0.0
H738 H 0.83234 0.81212 0.57033 0.0
C739 C 0.90992 0.85637 0.55724 0.0
C740 C 0.39891 0.88285 0.70946 0.0
C741 C 0.38098 0.90431 0.68385 0.0
H742 H 0.40391 0.83064 0.73257 0.0
C743 C 0.3525 0.89022 0.66368 0.0
H744 H 0.42097 0.89324 0.72528 0.0
C745 C 0.34254 0.85519 0.66812 0.0
C746 C 0.36114 0.83305 0.69246 0.0
H747 H 0.33795 0.90631 0.64402 0.0
H748 H 0.32077 0.84523 0.65152 0.0
C749 C 0.38928 0.84717 0.71343 0.0
C750 C 0.8861 0.35021 0.7156 0.0
C751 C 0.8585 0.33707 0.69322 0.0
H752 H 0.91974 0.39454 0.72793 0.0
C753 C 0.84228 0.35928 0.66723 0.0
H754 H 0.8988 0.33354 0.73609 0.0
C755 C 0.85464 0.39341 0.66219 0.0
C756 C 0.88294 0.40623 0.68355 0.0
H757 H 0.82088 0.34994 0.64974 0.0
H758 H 0.84219 0.40976 0.64121 0.0
C759 C 0.89803 0.3849 0.71107 0.0
C760 C 0.60073 0.60515 0.46997 0.0
C761 C 0.63032 0.5914 0.45108 0.0
H762 H 0.56692 0.65034 0.47811 0.0
C763 C 0.64989 0.61348 0.42756 0.0
H764 H 0.58539 0.58865 0.48849 0.0
C765 C 0.639 0.6479 0.42121 0.0
C766 C 0.60878 0.66127 0.43883 0.0
H767 H 0.67287 0.6038 0.41271 0.0
H768 H 0.65396 0.66401 0.40191 0.0
C769 C 0.59021 0.64022 0.46417 0.0
C770 C 0.09643 0.09767 0.46331 0.0
C771 C 0.12891 0.08539 0.44918 0.0
H772 H 0.06119 0.14215 0.46883 0.0
C773 C 0.15223 0.10956 0.43269 0.0
H774 H 0.07807 0.07962 0.4764 0.0
C775 C 0.14242 0.1446 0.42802 0.0
C776 C 0.1094 0.15652 0.44036 0.0
H777 H 0.17756 0.10117 0.42177 0.0
H778 H 0.16033 0.16229 0.41367 0.0
C779 C 0.08682 0.13328 0.45918 0.0
C780 C 0.65873 0.1223 0.34093 0.0
C781 C 0.64118 0.14611 0.31749 0.0
H782 H 0.66075 0.06979 0.36222 0.0
C783 C 0.61486 0.1335 0.29312 0.0
H784 H 0.67936 0.13107 0.35973 0.0
C785 C 0.60453 0.09802 0.29423 0.0
C786 C 0.6202 0.07521 0.32002 0.0
H787 H 0.60127 0.15128 0.27439 0.0
H788 H 0.58287 0.08908 0.27687 0.0
C789 C 0.64815 0.08723 0.34234 0.0
C790 C 0.10717 0.63938 0.34278 0.0
C791 C 0.13562 0.65055 0.32076 0.0
H792 H 0.07073 0.5984 0.35555 0.0
C793 C 0.14845 0.62821 0.29254 0.0
H794 H 0.09644 0.65638 0.36438 0.0
C795 C 0.13404 0.59425 0.2879 0.0
C796 C 0.10611 0.58281 0.3108 0.0
H797 H 0.17029 0.63646 0.27517 0.0
H798 H 0.14499 0.57685 0.26682 0.0
C799 C 0.09233 0.60615 0.33758 0.0
C800 C 0.25657 0.03571 0.25823 0.0
C801 C 0.25239 0.01448 0.2263 0.0
H802 H 0.23904 0.04724 0.31358 0.0
C803 C 0.22487 0.98961 0.22515 0.0
H804 H 0.27744 0.05526 0.25991 0.0
C805 C 0.20289 0.98502 0.25593 0.0
C806 C 0.20804 0.00518 0.28845 0.0
H807 H 0.2209 0.97292 0.20091 0.0
H808 H 0.18246 0.965 0.25451 0.0
C809 C 0.23464 0.03106 0.28905 0.0
C810 C 0.00192 0.2402 0.29147 0.0
C811 C 0.03239 0.25778 0.27911 0.0
H812 H 0.9503 0.22149 0.27821 0.0
C813 C 0.03356 0.27045 0.24241 0.0
H814 H 0.00013 0.23006 0.31957 0.0
C815 C 0.00481 0.26544 0.2185 0.0
C816 C 0.97443 0.24768 0.23095 0.0
H817 H 0.05671 0.28406 0.23206 0.0
H818 H 0.00638 0.27547 0.19035 0.0
C819 C 0.97331 0.2352 0.26769 0.0
C820 C 0.22795 0.27738 0.01311 0.0
C821 C 0.23074 0.25548 0.98152 0.0
H822 H 0.246 0.28846 0.06835 0.0
C823 C 0.25582 0.22809 0.9813 0.0
H824 H 0.20894 0.29878 0.01411 0.0
C825 C 0.27698 0.2221 0.01248 0.0
C826 C 0.27349 0.24339 0.04445 0.0
H827 H 0.25859 0.21075 0.9574 0.0
H828 H 0.29571 0.20045 0.01167 0.0
C829 C 0.2491 0.27139 0.04426 0.0
C830 C 0.98609 -0.00371 0.03241 0.0
C831 C 0.95559 0.0166 0.02624 0.0
H832 H 0.03371 0.97504 0.00936 0.0
C833 C 0.9509 0.03287 0.99148 0.0
H834 H 0.99049 0.98344 0.0589 0.0
C835 C 0.97565 0.02808 0.96311 0.0
C836 C 0.00557 0.00683 0.96886 0.0
H837 H 0.92776 0.04884 0.98589 0.0
H838 H 0.97093 0.0405 0.93645 0.0
C839 C 0.01081 0.99141 1.00397 0.0
C840 C 0.72233 0.95975 0.7637 0.0
C841 C 0.72382 0.985 0.79255 0.0
H842 H 0.74112 0.94383 0.70996 0.0
C843 C 0.74624 0.01435 0.78864 0.0
H844 H 0.70531 0.93682 0.76582 0.0
C845 C 0.76669 0.0184 0.75657 0.0
C846 C 0.7652 0.99317 0.72771 0.0
H847 H 0.74794 0.03432 0.8103 0.0
H848 H 0.78369 0.04135 0.75446 0.0
C849 C 0.74281 0.96378 0.73163 0.0
C850 C 0.00155 0.74342 0.77837 0.0
C851 C 0.03038 0.76639 0.77384 0.0
H852 H 0.95622 0.71943 0.75345 0.0
C853 C 0.0342 0.78467 0.7401 0.0
H854 H -0.00221 0.72902 0.80407 0.0
C855 C 0.01036 0.7791 0.71099 0.0
C856 C 0.98225 0.75518 0.71511 0.0
H857 H 0.05607 0.80266 0.7358 0.0
H858 H 0.01438 0.79304 0.68505 0.0
C859 C 0.97775 0.73786 0.7493 0.0
C860 C 0.72586 0.78129 0.01818 0.0
C861 C 0.72918 0.76112 0.98541 0.0
H862 H 0.7445 0.79079 0.07352 0.0
C863 C 0.75574 0.73523 0.98322 0.0
H864 H 0.70572 0.80151 0.02072 0.0
C865 C 0.77789 0.72898 0.01358 0.0
C866 C 0.77395 0.74854 0.04669 0.0
H867 H 0.75895 0.71922 0.95836 0.0
H868 H 0.79777 0.70849 0.01121 0.0
C869 C 0.74802 0.77507 0.04851 0.0
C870 C 0.22291 0.47043 0.76209 0.0
C871 C 0.22507 0.49223 0.79381 0.0
H872 H 0.24315 0.45852 0.70787 0.0
C873 C 0.24918 0.52048 0.79405 0.0
H874 H 0.20447 0.44854 0.76093 0.0
C875 C 0.27126 0.52629 0.76354 0.0
C876 C 0.26972 0.50395 0.73219 0.0
H877 H 0.25131 0.53792 0.81796 0.0
H878 H 0.28998 0.54793 0.76487 0.0
C879 C 0.245 0.47622 0.7316 0.0
C880 C 0.22617 0.7803 0.51044 0.0
C881 C 0.22828 0.75884 0.47847 0.0
H882 H 0.24577 0.79088 0.56524 0.0
C883 C 0.25405 0.73211 0.47685 0.0
H884 H 0.20667 0.80118 0.51253 0.0
C885 C 0.2764 0.72617 0.50709 0.0
C886 C 0.27344 0.74681 0.53958 0.0
H887 H 0.2564 0.71515 0.45259 0.0
H888 H 0.2955 0.7049 0.50525 0.0
C889 C 0.2485 0.77432 0.54072 0.0
C890 C 0.01612 0.48765 0.50171 0.0
C891 C 0.0114 0.50418 0.4671 0.0
H892 H -0.00366 0.47988 0.5568 0.0
C893 C 0.98307 0.52778 0.46255 0.0
H894 H 0.03782 0.46949 0.50622 0.0
C895 C 0.95928 0.53382 0.49165 0.0
C896 C 0.96335 0.51636 0.52586 0.0
H897 H 0.97884 0.54113 0.43631 0.0
H898 H 0.93726 0.55154 0.48699 0.0
C899 C 0.99238 0.49369 0.53078 0.0
C900 C 0.76778 0.53503 0.26991 0.0
C901 C 0.76292 0.51612 0.23652 0.0
H902 H 0.75026 0.54394 0.32581 0.0
C903 C 0.73457 0.49227 0.23371 0.0
H904 H 0.78931 0.5537 0.27294 0.0
C905 C 0.71232 0.48653 0.26409 0.0
C906 C 0.71787 0.50461 0.29786 0.0
H907 H 0.7301 0.47726 0.20838 0.0
H908 H 0.69112 0.46748 0.26122 0.0
C909 C 0.74546 0.52937 0.30027 0.0
C910 C 0.72237 0.27081 0.50854 0.0
C911 C 0.72484 0.24671 0.4787 0.0
H912 H 0.73988 0.28503 0.56329 0.0
C913 C 0.74774 0.21762 0.48191 0.0
H914 H 0.70497 0.2935 0.50701 0.0
C915 C 0.76768 0.21273 0.51424 0.0
C916 C 0.76521 0.23682 0.54409 0.0
H917 H 0.75019 0.19851 0.4595 0.0
H918 H 0.78509 0.19004 0.51576 0.0
C919 C 0.74234 0.26593 0.54087 0.0
C920 C 0.4998 0.2447 0.78363 0.0
C921 C 0.52759 0.26904 0.77978 0.0
H922 H 0.45616 0.21855 0.75759 0.0
C923 C 0.5313 0.28735 0.74603 0.0
H924 H 0.49617 0.2302 0.80929 0.0
C925 C 0.50846 0.28054 0.71632 0.0
C926 C 0.48137 0.25537 0.71979 0.0
H927 H 0.55239 0.30634 0.74219 0.0
H928 H 0.51241 0.29462 0.69046 0.0
C929 C 0.47691 0.23795 0.75395 0.0
C930 C 0.49175 0.98878 0.54014 0.0
C931 C 0.46162 0.00684 0.52758 0.0
H932 H 0.54238 0.96763 0.52661 0.0
C933 C 0.46015 0.01814 0.49041 0.0
H934 H 0.49373 0.9797 0.56863 0.0
C935 C 0.48817 0.01108 0.46616 0.0
C936 C 0.51808 0.99263 0.47872 0.0
H937 H 0.43725 0.03207 0.47991 0.0
H938 H 0.48632 0.01999 0.4376 0.0
C939 C 0.51963 0.98173 0.51599 0.0
C940 C 0.47805 0.74198 0.25189 0.0
C941 C 0.4832 0.75702 0.21659 0.0
H942 H 0.49881 0.73391 0.30659 0.0
C943 C 0.51349 0.77758 0.21028 0.0
H944 H 0.45486 0.72617 0.25773 0.0
C945 C 0.53873 0.78196 0.23829 0.0
C946 C 0.5341 0.766 0.27322 0.0
H947 H 0.51814 0.78968 0.18344 0.0
H948 H 0.56218 0.79731 0.23228 0.0
C949 C 0.50319 0.7465 0.27995 0.0
C950 C 0.4581 0.53949 0.99271 0.0
C951 C 0.46146 0.52029 0.02594 0.0
H952 H 0.4797 0.55074 0.93898 0.0
C953 C 0.49122 0.49863 0.03099 0.0
H954 H 0.43555 0.55654 0.98803 0.0
C955 C 0.51647 0.49531 1.00291 0.0
C956 C 0.51253 0.51358 0.96918 0.0
H957 H 0.49468 0.48359 0.05632 0.0
H958 H 0.53871 0.47782 0.00741 0.0
C959 C 0.48339 0.53616 0.96458 0.0
C960 C 0.35519 0.94451 0.89327 0.0
C961 C 0.35114 0.97641 0.91305 0.0
H962 H 0.37033 0.91968 0.84199 0.0
C963 C 0.35879 0.0085 0.89516 0.0
H964 H 0.34942 0.91939 0.90633 0.0
C965 C 0.37012 0.0087 0.85818 0.0
C966 C 0.37456 0.9768 0.83852 0.0
H967 H 0.35562 0.03354 0.90958 0.0
H968 H 0.37595 0.03386 0.84521 0.0
C969 C 0.36708 0.94469 0.85644 0.0
C970 C 0.88474 0.28911 0.89704 0.0
C971 C 0.88747 0.2575 0.91719 0.0
H972 H 0.87565 0.31317 0.84416 0.0
C973 C 0.88385 0.22502 0.89832 0.0
H974 H 0.88748 0.31453 0.91082 0.0
C975 C 0.87768 0.22422 0.85994 0.0
C976 C 0.87446 0.25589 0.83995 0.0
H977 H 0.88614 0.20021 0.91312 0.0
H978 H 0.87479 0.19886 0.84609 0.0
C979 C 0.87801 0.28832 0.85887 0.0
C980 C 0.38614 0.21095 0.35284 0.0
C981 C 0.38405 0.24324 0.3337 0.0
H982 H 0.39361 0.18549 0.40563 0.0
C983 C 0.38882 0.27501 0.35341 0.0
H984 H 0.38223 0.1861 0.33827 0.0
C985 C 0.3955 0.27467 0.3915 0.0
C986 C 0.397 0.24256 0.41091 0.0
H987 H 0.38735 0.3003 0.33939 0.0
H988 H 0.39909 0.29971 0.40581 0.0
C989 C 0.39226 0.21062 0.39132 0.0
C990 C 0.87508 0.01752 0.36797 0.0
C991 C 0.87868 0.98591 0.34749 0.0
H992 H 0.86607 0.04133 0.42149 0.0
C993 C 0.87497 0.95346 0.36594 0.0
H994 H 0.87816 0.04295 0.35455 0.0
C995 C 0.86784 0.95256 0.40405 0.0
C996 C 0.86487 0.98409 0.42473 0.0
H997 H 0.87768 0.92868 0.35093 0.0
H998 H 0.86508 0.92707 0.41741 0.0
C999 C 0.86854 0.01661 0.40633 0.0
C1000 C 0.60693 0.97048 0.10406 0.0
C1001 C 0.61027 0.00272 0.08509 0.0
H1002 H 0.59831 0.94497 0.15645 0.0
C1003 C 0.60663 0.03458 0.10503 0.0
H1004 H 0.60991 0.94554 0.08941 0.0
C1005 C 0.59976 0.03429 0.14318 0.0
C1006 C 0.59698 0.00212 0.16233 0.0
H1007 H 0.60909 0.05985 0.09114 0.0
H1008 H 0.59699 0.0593 0.15773 0.0
C1009 C 0.60064 0.97019 0.14244 0.0
C1010 C 0.12267 0.69388 0.10552 0.0
C1011 C 0.11595 0.72645 0.08818 0.0
H1012 H 0.1392 0.66728 0.1551 0.0
C1013 C 0.12061 0.75788 0.10864 0.0
H1014 H 0.11923 0.66921 0.09047 0.0
C1015 C 0.13137 0.75674 0.14584 0.0
C1016 C 0.13823 0.72417 0.16313 0.0
H1017 H 0.11533 0.78337 0.09614 0.0
H1018 H 0.13471 0.78141 0.16089 0.0
C1019 C 0.13401 0.69276 0.14254 0.0
C1020 C 0.63265 0.76229 0.64867 0.0
C1021 C 0.6484 0.732 0.66395 0.0
H1022 H 0.61075 0.78672 0.60033 0.0
C1023 C 0.65404 0.70232 0.64097 0.0
H1024 H 0.62816 0.78568 0.66555 0.0
C1025 C 0.64403 0.70288 0.6035 0.0
C1026 C 0.62845 0.73325 0.58818 0.0
H1027 H 0.6662 0.67859 0.65189 0.0
H1028 H 0.64851 0.67951 0.58658 0.0
C1029 C 0.62292 0.76296 0.61117 0.0
C1030 C 0.09999 0.0257 0.64181 0.0
C1031 C 0.0976 0.99402 0.66186 0.0
H1032 H 0.10937 0.05018 0.58935 0.0
C1033 C 0.10219 0.96164 0.64304 0.0
H1034 H 0.09656 0.05107 0.65552 0.0
C1035 C 0.10894 0.96111 0.60465 0.0
C1036 C 0.11186 0.99298 0.58488 0.0
H1037 H 0.10016 0.93682 0.65785 0.0
H1038 H 0.11261 0.93593 0.59066 0.0
C1039 C 0.10732 0.0252 0.60386 0.0
C1040 C 0.36086 0.44314 0.39448 0.0
C1041 C 0.35531 0.47448 0.41484 0.0
H1042 H 0.37664 0.41982 0.34265 0.0
C1043 C 0.36092 0.50717 0.3973 0.0
H1044 H 0.35667 0.41755 0.4072 0.0
C1045 C 0.3717 0.50849 0.36009 0.0
C1046 C 0.37764 0.47712 0.33987 0.0
H1047 H 0.35654 0.53179 0.41216 0.0
H1048 H 0.37597 0.53407 0.34738 0.0
C1049 C 0.3722 0.44444 0.35748 0.0
C1050 C 0.88595 0.71091 0.3969 0.0
C1051 C 0.88864 0.74222 0.41797 0.0
H1052 H 0.8789 0.68807 0.3425 0.0
C1053 C 0.88617 0.77497 0.39987 0.0
H1054 H 0.88806 0.68532 0.41017 0.0
C1055 C 0.88074 0.77653 0.3616 0.0
C1056 C 0.87822 0.74539 0.34037 0.0
H1057 H 0.88814 0.79957 0.41535 0.0
H1058 H 0.8786 0.80227 0.34861 0.0
C1059 C 0.88109 0.71249 0.35824 0.0
C1060 C 0.37894 0.71241 0.85621 0.0
C1061 C 0.37739 0.74416 0.83603 0.0
H1062 H 0.38567 0.68834 0.90985 0.0
C1063 C 0.3825 0.77638 0.85486 0.0
H1064 H 0.37481 0.68722 0.84239 0.0
C1065 C 0.38889 0.77701 0.89303 0.0
C1066 C 0.3898 0.74547 0.91349 0.0
H1067 H 0.3815 0.80129 0.84008 0.0
H1068 H 0.39266 0.80241 0.90657 0.0
C1069 C 0.38481 0.71308 0.89478 0.0
C1070 C 0.87525 0.50765 0.86205 0.0
C1071 C 0.87935 0.47529 0.84311 0.0
H1072 H 0.86165 0.53371 0.91307 0.0
C1073 C 0.87238 0.44362 0.86209 0.0
H1074 H 0.88076 0.53249 0.84828 0.0
C1075 C 0.86114 0.44434 0.89918 0.0
C1076 C 0.85734 0.4767 0.91818 0.0
H1077 H 0.87544 0.41828 0.84824 0.0
H1078 H 0.85559 0.41955 0.91302 0.0
C1079 C 0.86466 0.50833 0.89928 0.0
C1080 C 0.60993 0.46816 0.65205 0.0
C1081 C 0.60657 0.50014 0.67185 0.0
H1082 H 0.6176 0.44356 0.59861 0.0
C1083 C 0.60846 0.53227 0.65251 0.0
H1084 H 0.60828 0.44303 0.66632 0.0
C1085 C 0.61399 0.53258 0.61423 0.0
C1086 C 0.61721 0.50076 0.59427 0.0
H1087 H 0.60597 0.55735 0.66702 0.0
H1088 H 0.61568 0.55787 0.60025 0.0
C1089 C 0.61489 0.46847 0.61338 0.0
C1090 C 0.13368 0.19483 0.64446 0.0
C1091 C 0.13832 0.22644 0.6646 0.0
H1092 H 0.1178 0.17076 0.59305 0.0
C1093 C 0.13086 0.25883 0.64722 0.0
H1094 H 0.13929 0.16948 0.65711 0.0
C1095 C 0.11914 0.2596 0.61036 0.0
C1096 C 0.11416 0.22797 0.59033 0.0
H1097 H 0.13447 0.28365 0.66192 0.0
H1098 H 0.11349 0.28496 0.59776 0.0
C1099 C 0.12145 0.19557 0.60777 0.0
C1100 C 0.6161 0.20258 0.11714 0.0
C1101 C 0.61001 0.23449 0.09837 0.0
H1102 H 0.62854 0.17749 0.16872 0.0
C1103 C 0.61183 0.26651 0.11844 0.0
H1104 H 0.61478 0.1775 0.10246 0.0
C1105 C 0.61902 0.26648 0.1567 0.0
C1106 C 0.62515 0.23448 0.17539 0.0
H1107 H 0.6069 0.29151 0.10477 0.0
H1108 H 0.6201 0.29146 0.17155 0.0
C1109 C 0.6239 0.2026 0.15512 0.0
C1110 C 0.10908 0.52571 0.10484 0.0
C1111 C 0.11354 0.49391 0.08507 0.0
H1112 H 0.09951 0.55051 0.15733 0.0
C1113 C 0.11151 0.46166 0.10432 0.0
H1114 H 0.11049 0.55097 0.09078 0.0
C1115 C 0.10579 0.4614 0.1429 0.0
C1116 C 0.10139 0.49336 0.16255 0.0
H1117 H 0.11516 0.43677 0.08975 0.0
H1118 H 0.10453 0.43628 0.15725 0.0
C1119 C 0.10282 0.52543 0.14302 0.0
C1120 C 0.36199 0.13243 0.12466 0.0
C1121 C 0.33581 0.14098 0.15091 0.0
H1122 H 0.37762 0.09743 0.08024 0.0
C1123 C 0.30606 0.11912 0.15427 0.0
H1124 H 0.38478 0.14941 0.12111 0.0
C1125 C 0.3024 0.08922 0.13159 0.0
C1126 C 0.32787 0.08136 0.10445 0.0
H1127 H 0.28536 0.12557 0.17399 0.0
H1128 H 0.27897 0.07297 0.13425 0.0
C1129 C 0.35775 0.10306 0.10113 0.0
C1130 C 0.88926 0.09243 0.11959 0.0
C1131 C 0.89596 0.09531 0.15793 0.0
H1132 H 0.88544 0.11904 0.06723 0.0
C1133 C 0.9018 0.12899 0.17342 0.0
H1134 H 0.88404 0.06698 0.10705 0.0
C1135 C 0.90209 0.15895 0.15072 0.0
C1136 C 0.89673 0.15585 0.11214 0.0
H1137 H 0.90696 0.13216 0.20291 0.0
H1138 H 0.90756 0.1844 0.16319 0.0
C1139 C 0.88988 0.12231 0.09685 0.0
C1140 C 0.68343 0.8396 0.88948 0.0
C1141 C 0.66282 0.83604 0.85723 0.0
H1142 H 0.69731 0.8726 0.93601 0.0
C1143 C 0.63782 0.86211 0.84855 0.0
H1144 H 0.70331 0.82004 0.89617 0.0
C1145 C 0.63366 0.89155 0.87189 0.0
C1146 C 0.65516 0.89559 0.90347 0.0
H1147 H 0.62176 0.85982 0.8237 0.0
H1148 H 0.61492 0.91197 0.86434 0.0
C1149 C 0.68 0.86947 0.91218 0.0
C1150 C 0.05837 0.86707 0.91567 0.0
C1151 C 0.07956 0.8388 0.90364 0.0
H1152 H 0.03724 0.9181 0.90347 0.0
C1153 C 0.09678 0.84123 0.86909 0.0
H1154 H 0.04461 0.86586 0.94208 0.0
C1155 C 0.09291 0.87145 0.84697 0.0
C1156 C 0.07132 0.89958 0.85884 0.0
H1157 H 0.11356 0.81994 0.85939 0.0
H1158 H 0.10668 0.8727 0.82059 0.0
C1159 C 0.05402 0.89693 0.89339 0.0
C1160 C 0.35011 0.6125 0.65809 0.0
C1161 C 0.32815 0.64117 0.64914 0.0
H1162 H 0.36658 0.55986 0.64372 0.0
C1163 C 0.30551 0.63827 0.61817 0.0
H1164 H 0.36785 0.61397 0.68171 0.0
C1165 C 0.30544 0.60782 0.59612 0.0
C1166 C 0.32722 0.57918 0.60513 0.0
H1167 H 0.28819 0.65982 0.61044 0.0
H1168 H 0.28796 0.60652 0.57225 0.0
C1169 C 0.34934 0.58157 0.63646 0.0
C1170 C 0.89597 0.61571 0.60185 0.0
C1171 C 0.91865 0.64355 0.61166 0.0
H1172 H 0.87529 0.56518 0.6169 0.0
C1173 C 0.93832 0.64145 0.64482 0.0
H1174 H 0.88041 0.61671 0.57656 0.0
C1175 C 0.93492 0.6123 0.66805 0.0
C1176 C 0.91238 0.58449 0.65809 0.0
H1177 H 0.95601 0.66255 0.65319 0.0
H1178 H 0.95034 0.61127 0.69343 0.0
C1179 C 0.89304 0.58628 0.62484 0.0
C1180 C 0.68796 0.35265 0.37839 0.0
C1181 C 0.65649 0.33728 0.36551 0.0
H1182 H 0.71183 0.3953 0.40833 0.0
C1183 C 0.62402 0.35314 0.37433 0.0
H1184 H 0.71334 0.34081 0.37207 0.0
C1185 C 0.62314 0.38399 0.39594 0.0
C1186 C 0.65475 0.39956 0.40823 0.0
H1187 H 0.59941 0.34144 0.36507 0.0
H1188 H 0.5979 0.39614 0.40217 0.0
C1189 C 0.68711 0.38367 0.39925 0.0
C1190 C 0.05873 0.36438 0.41434 0.0
C1191 C 0.08064 0.33609 0.40404 0.0
H1192 H 0.03798 0.41495 0.40005 0.0
C1193 C 0.09892 0.33756 0.37001 0.0
H1194 H 0.04407 0.36385 0.44023 0.0
C1195 C 0.09588 0.36724 0.34705 0.0
C1196 C 0.07399 0.3956 0.35749 0.0
H1197 H 0.116 0.31606 0.36145 0.0
H1198 H 0.11067 0.36801 0.32126 0.0
C1199 C 0.05515 0.39361 0.39116 0.0
C1200 C 0.86249 0.10046 0.62388 0.0
C1201 C 0.83032 0.08335 0.61657 0.0
H1202 H 0.8881 0.1443 0.65061 0.0
C1203 C 0.79891 0.09702 0.63149 0.0
H1204 H 0.88708 0.09005 0.61301 0.0
C1205 C 0.79947 0.12794 0.65258 0.0
C1206 C 0.83154 0.14518 0.65977 0.0
H1207 H 0.77381 0.08412 0.62635 0.0
H1208 H 0.77479 0.13856 0.66306 0.0
C1209 C 0.86314 0.13106 0.64575 0.0
C1210 C 0.40002 0.11743 0.59529 0.0
C1211 C 0.42128 0.14571 0.60738 0.0
H1212 H 0.37892 0.06621 0.60792 0.0
C1213 C 0.43778 0.14356 0.64239 0.0
H1214 H 0.38699 0.1183 0.56846 0.0
C1215 C 0.43264 0.11419 0.66512 0.0
C1216 C 0.41148 0.08592 0.65309 0.0
H1217 H 0.45439 0.16481 0.6526 0.0
H1218 H 0.44561 0.1135 0.692 0.0
C1219 C 0.39541 0.08765 0.61785 0.0
C1220 C 0.14075 0.83298 0.38483 0.0
C1221 C 0.16083 0.83173 0.35194 0.0
H1222 H 0.12273 0.8648 0.43079 0.0
C1223 C 0.17907 0.86198 0.34048 0.0
H1224 H 0.12619 0.81 0.39396 0.0
C1225 C 0.17773 0.89284 0.36172 0.0
C1226 C 0.15733 0.89447 0.39443 0.0
H1227 H 0.1949 0.86163 0.31535 0.0
H1228 H 0.19243 0.91562 0.35211 0.0
C1229 C 0.13867 0.86428 0.40576 0.0
C1230 C 0.58729 0.87477 0.41896 0.0
C1231 C 0.59486 0.84112 0.40446 0.0
H1232 H 0.57839 0.9292 0.40699 0.0
C1233 C 0.60232 0.83745 0.36635 0.0
H1234 H 0.58145 0.87846 0.44824 0.0
C1235 C 0.60038 0.86652 0.3427 0.0
C1236 C 0.59148 0.89989 0.357 0.0
H1237 H 0.60893 0.81199 0.35465 0.0
H1238 H 0.60529 0.86275 0.31324 0.0
C1239 C 0.58564 0.90387 0.39537 0.0
C1240 C 0.81296 0.58966 0.13969 0.0
C1241 C 0.83479 0.58573 0.10837 0.0
H1242 H 0.79745 0.62303 0.18534 0.0
C1243 C 0.86016 0.61172 0.10058 0.0
H1244 H 0.79268 0.57032 0.14561 0.0
C1245 C 0.86348 0.64137 0.12383 0.0
C1246 C 0.84083 0.64572 0.15445 0.0
H1247 H 0.87711 0.60925 0.07642 0.0
H1248 H 0.88254 0.66169 0.11691 0.0
C1249 C 0.81562 0.6197 0.16229 0.0
C1250 C 0.43201 0.61712 0.16517 0.0
C1251 C 0.41036 0.58884 0.15416 0.0
H1252 H 0.45247 0.66817 0.15199 0.0
C1253 C 0.39181 0.59113 0.12037 0.0
H1254 H 0.44681 0.61598 0.19096 0.0
C1255 C 0.39463 0.62134 0.0981 0.0
C1256 C 0.41654 0.64956 0.10901 0.0
H1257 H 0.37472 0.56977 0.11144 0.0
H1258 H 0.37974 0.62258 0.07239 0.0
C1259 C 0.43537 0.64694 0.14267 0.0
C1260 C 0.1349 0.38509 0.87149 0.0
C1261 C 0.15858 0.39077 0.90101 0.0
H1262 H 0.12054 0.35177 0.82524 0.0
C1263 C 0.18517 0.36583 0.90792 0.0
H1264 H 0.11469 0.40449 0.86525 0.0
C1265 C 0.18801 0.33551 0.88565 0.0
C1266 C 0.16503 0.33031 0.85547 0.0
H1267 H 0.20406 0.3701 0.93016 0.0
H1268 H 0.20904 0.31681 0.89108 0.0
C1269 C 0.13843 0.35527 0.8485 0.0
C1270 C 0.60125 0.34491 0.87636 0.0
C1271 C 0.58264 0.34286 0.9101 0.0
H1272 H 0.61444 0.3766 0.82896 0.0
C1273 C 0.56192 0.3716 0.92162 0.0
H1274 H 0.61759 0.32312 0.86709 0.0
C1275 C 0.55955 0.40178 0.89961 0.0
C1276 C 0.57853 0.4042 0.86605 0.0
H1277 H 0.54709 0.37054 0.94738 0.0
H1278 H 0.54314 0.42342 0.90924 0.0
C1279 C 0.59949 0.37548 0.85463 0.0
C1280 C 0.20013 0.05995 0.95537 0.0
C1281 C 0.21636 0.02833 0.96663 0.0
H1282 H 0.15661 0.08417 0.92732 0.0
C1283 C 0.20019 -0.00407 0.95751 0.0
H1284 H 0.21195 0.08534 0.96191 0.0
C1285 C 0.1687 -0.00477 0.93699 0.0
C1286 C 0.1525 0.02694 0.92584 0.0
H1287 H 0.21225 0.97111 0.96553 0.0
H1288 H 0.15687 0.96992 0.93018 0.0
C1289 C 0.16843 0.05928 0.93551 0.0
C1290 C 0.05951 0.25308 0.96356 0.0
C1291 C 0.08156 0.22329 0.96048 0.0
H1292 H 0.01016 0.27377 0.98326 0.0
C1293 C 0.071 0.19142 0.97716 0.0
H1294 H 0.06706 0.27803 0.95115 0.0
C1295 C 0.03848 0.18891 0.99517 0.0
C1296 C 0.01598 0.21833 0.99741 0.0
H1297 H 0.08736 0.16797 0.97535 0.0
H1298 H 0.03067 0.16366 0.00672 0.0
C1299 C 0.02709 0.25069 0.98214 0.0
C1300 C 0.24327 0.24777 0.2781 0.0
C1301 C 0.25541 0.21378 0.26835 0.0
H1302 H 0.20248 0.27843 0.30449 0.0
C1303 C 0.23439 0.18431 0.2767 0.0
H1304 H 0.25912 0.27095 0.27224 0.0
C1305 C 0.20198 0.18863 0.29461 0.0
C1306 C 0.19015 0.22246 0.30526 0.0
H1307 H 0.24305 0.15782 0.26952 0.0
H1308 H 0.18653 0.16527 0.30081 0.0
C1309 C 0.21104 0.25205 0.29677 0.0
C1310 C 0.02252 0.00182 0.30382 0.0
C1311 C 0.00687 0.03481 0.29655 0.0
H1312 H 0.06491 0.97397 0.3304 0.0
C1313 C 0.02286 0.0656 0.31067 0.0
H1314 H 0.01058 0.9776 0.29361 0.0
C1315 C 0.05398 0.06355 0.33141 0.0
C1316 C 0.06945 0.0306 0.33906 0.0
H1317 H 0.01136 0.09139 0.30562 0.0
H1318 H 0.06579 0.08781 0.3417 0.0
C1319 C 0.05338 -0.00029 0.32519 0.0
C1320 C 0.79154 0.94259 0.04619 0.0
C1321 C 0.8039 0.97637 0.05624 0.0
H1322 H 0.75 0.91215 0.02144 0.0
C1323 C 0.78371 0.00621 0.04689 0.0
H1324 H 0.80649 0.91907 0.05307 0.0
C1325 C 0.75156 0.00223 0.02807 0.0
C1326 C 0.7388 0.96831 0.01901 0.0
H1327 H 0.79273 0.03256 0.05412 0.0
H1328 H 0.73622 0.02561 0.02162 0.0
C1329 C 0.75917 0.93858 0.0281 0.0
C1330 C 0.96349 0.74347 0.05333 0.0
C1331 C 0.97882 0.77592 0.04326 0.0
H1332 H 0.92164 0.71742 0.08274 0.0
C1333 C 0.96264 0.80755 0.05489 0.0
H1334 H 0.97558 0.71869 0.04501 0.0
C1335 C 0.93177 0.80684 0.07608 0.0
C1336 C 0.91672 0.77448 0.08672 0.0
H1337 H 0.97384 0.83296 0.04758 0.0
H1338 H 0.91993 0.83171 0.08451 0.0
C1339 C 0.93286 0.74276 0.07519 0.0
C1340 C 0.82144 0.80941 0.68182 0.0
C1341 C 0.83743 0.77676 0.67357 0.0
H1342 H 0.77867 0.83647 0.70848 0.0
C1343 C 0.82216 0.7456 0.68754 0.0
H1344 H 0.83255 0.83388 0.67146 0.0
C1345 C 0.79154 0.74714 0.70943 0.0
C1346 C 0.7753 0.77982 0.71719 0.0
H1347 H 0.83407 0.72008 0.68188 0.0
H1348 H 0.78017 0.72272 0.71958 0.0
C1349 C 0.79059 0.81089 0.7031 0.0
C1350 C 0.92535 0.92878 0.70467 0.0
C1351 C 0.9116 0.9609 0.6914 0.0
H1352 H 0.96694 0.90271 0.73406 0.0
C1353 C 0.92967 0.99248 0.6998 0.0
H1354 H 0.91213 0.90395 0.69882 0.0
C1355 C 0.96102 0.99179 0.72072 0.0
C1356 C 0.97513 0.95947 0.73313 0.0
H1357 H 0.91962 0.01768 0.69021 0.0
H1358 H 0.97473 0.01642 0.72619 0.0
C1359 C 0.95679 0.92806 0.72501 0.0
C1360 C 0.20494 0.55068 0.45635 0.0
C1361 C 0.22045 0.51856 0.46718 0.0
H1362 H 0.16246 0.5763 0.428 0.0
C1363 C 0.20391 0.48664 0.45701 0.0
H1364 H 0.21702 0.57574 0.46372 0.0
C1365 C 0.17276 0.48696 0.43581 0.0
C1366 C 0.15735 0.51921 0.42503 0.0
H1367 H 0.21543 0.46147 0.4647 0.0
H1368 H 0.16061 0.46202 0.42815 0.0
C1369 C 0.17366 0.55102 0.43581 0.0
C1370 C 0.06688 0.68534 0.47749 0.0
C1371 C 0.07718 0.71816 0.4628 0.0
H1372 H 0.02655 0.65567 0.50499 0.0
C1373 C 0.05495 0.74759 0.46765 0.0
H1374 H 0.08343 0.66215 0.47422 0.0
C1375 C 0.02253 0.74395 0.48591 0.0
C1376 C 0.01159 0.7107 0.49899 0.0
H1377 H 0.06233 0.77324 0.45679 0.0
H1378 H 0.00543 0.76682 0.48836 0.0
C1379 C 0.03429 0.68158 0.4951 0.0
C1380 C 0.23658 0.74905 0.77604 0.0
C1381 C 0.24778 0.71508 0.76508 0.0
H1382 H 0.19614 0.77999 0.80253 0.0
C1383 C 0.22535 0.6861 0.77084 0.0
H1384 H 0.25351 0.77183 0.77211 0.0
C1385 C 0.19252 0.69083 0.78766 0.0
C1386 C 0.18171 0.72456 0.79976 0.0
H1387 H 0.2333 0.65966 0.7626 0.0
H1388 H 0.176 0.66783 0.7921 0.0
C1389 C 0.20392 0.7537 0.79362 0.0
C1390 C 0.06379 0.48767 0.82243 0.0
C1391 C 0.08088 0.51918 0.833 0.0
H1392 H 0.01944 0.46421 0.79448 0.0
C1393 C 0.06596 0.55175 0.82289 0.0
H1394 H 0.07488 0.46219 0.82967 0.0
C1395 C 0.03424 0.55289 0.80322 0.0
C1396 C 0.01707 0.52149 0.79262 0.0
H1397 H 0.07852 0.57645 0.83069 0.0
H1398 H 0.02313 0.57846 0.79632 0.0
C1399 C 0.03228 0.48882 0.80206 0.0
C1400 C 0.75519 0.50287 0.53058 0.0
C1401 C 0.74287 0.46942 0.51918 0.0
H1402 H 0.79689 0.53225 0.55694 0.0
C1403 C 0.76463 0.43976 0.524 0.0
H1404 H 0.73881 0.52617 0.52741 0.0
C1405 C 0.79788 0.44331 0.54034 0.0
C1406 C 0.80981 0.47651 0.5529 0.0
H1407 H 0.75583 0.41368 0.51544 0.0
H1408 H 0.81384 0.4198 0.54403 0.0
C1409 C 0.78827 0.50633 0.54768 0.0
C1410 C 0.95894 0.24086 0.55222 0.0
C1411 C 0.97311 0.2737 0.54158 0.0
H1412 H 0.91732 0.21373 0.58104 0.0
C1413 C 0.95504 0.30481 0.55146 0.0
H1414 H 0.97247 0.21646 0.54526 0.0
C1415 C 0.92352 0.30324 0.57148 0.0
C1416 C 0.90958 0.27055 0.58272 0.0
H1417 H 0.96528 0.33051 0.5437 0.0
H1418 H 0.9103 0.32778 0.5786 0.0
C1419 C 0.92759 0.23932 0.57295 0.0
C1420 C 0.7691 0.30455 0.24612 0.0
C1421 C 0.74963 0.27377 0.25333 0.0
H1422 H 0.8157 0.32685 0.22238 0.0
C1423 C 0.76387 0.24071 0.24326 0.0
H1424 H 0.75883 0.33036 0.25367 0.0
C1425 C 0.79634 0.23868 0.22477 0.0
C1426 C 0.81531 0.26963 0.21663 0.0
H1427 H 0.74933 0.21653 0.24832 0.0
H1428 H 0.80627 0.21299 0.21633 0.0
C1429 C 0.80172 0.30249 0.22823 0.0
C1430 C 0.93449 0.50197 0.215 0.0
C1431 C 0.91207 0.47263 0.21047 0.0
H1432 H 0.98444 0.52102 0.2349 0.0
C1433 C 0.92271 0.43969 0.22463 0.0
H1434 H 0.92689 0.52772 0.20457 0.0
C1435 C 0.95565 0.43579 0.24155 0.0
C1436 C 0.97844 0.46486 0.24531 0.0
H1437 H 0.90605 0.41655 0.22163 0.0
H1438 H 0.96353 0.40981 0.25113 0.0
C1439 C 0.96728 0.49818 0.23259 0.0
C1440 C 0.71821 0.04555 0.49488 0.0
C1441 C 0.73925 0.01563 0.50114 0.0
H1442 H 0.67105 0.06633 0.47097 0.0
C1443 C 0.72721 0.98234 0.48887 0.0
H1444 H 0.72676 0.07152 0.50406 0.0
C1445 C 0.69534 0.97936 0.46924 0.0
C1446 C 0.6748 0.00956 0.46215 0.0
H1447 H 0.74307 0.95884 0.49311 0.0
H1448 H 0.68707 0.9536 0.45919 0.0
C1449 C 0.68625 0.04252 0.47587 0.0
C1450 C 0.53709 0.17677 0.47443 0.0
C1451 C 0.51789 0.20769 0.48244 0.0
H1452 H 0.58233 0.15385 0.44813 0.0
C1453 C 0.53094 0.24033 0.46971 0.0
H1454 H 0.52772 0.15121 0.48372 0.0
C1455 C 0.56209 0.2418 0.44857 0.0
C1456 C 0.58104 0.21072 0.44028 0.0
H1457 H 0.51653 0.26458 0.47508 0.0
H1458 H 0.57131 0.26723 0.43875 0.0
C1459 C 0.56838 0.1783 0.45389 0.0
C1460 C 0.723 0.19159 0.77484 0.0
C1461 C 0.7451 0.22074 0.76869 0.0
H1462 H 0.67388 0.17305 0.79644 0.0
C1463 C 0.73349 0.25473 0.77904 0.0
H1464 H 0.7313 0.16513 0.76706 0.0
C1465 C 0.7008 0.25925 0.79658 0.0
C1466 C 0.67896 0.22993 0.80325 0.0
H1467 H 0.75018 0.27764 0.7748 0.0
H1468 H 0.69274 0.28555 0.80515 0.0
C1469 C 0.69011 0.19618 0.79159 0.0
C1470 C 0.52968 0.99034 0.80013 0.0
C1471 C 0.51482 0.02297 0.78987 0.0
H1472 H 0.57196 0.96381 0.82848 0.0
C1473 C 0.53233 0.05437 0.79988 0.0
H1474 H 0.5166 0.96572 0.79302 0.0
C1475 C 0.56398 0.05328 0.81971 0.0
C1476 C 0.57858 0.02078 0.8306 0.0
H1477 H 0.52154 0.07991 0.79237 0.0
H1478 H 0.57676 0.07801 0.82697 0.0
C1479 C 0.56115 0.98926 0.82065 0.0
C1480 C 0.26261 0.93501 0.51902 0.0
C1481 C 0.24025 0.96398 0.5129 0.0
H1482 H 0.31142 0.91666 0.54155 0.0
C1483 C 0.25109 -0.00213 0.52457 0.0
H1484 H 0.25494 0.90862 0.51031 0.0
C1485 C 0.28329 0.00245 0.54314 0.0
C1486 C 0.30542 0.97331 0.54965 0.0
H1487 H 0.23422 0.02067 0.52043 0.0
H1488 H 0.29077 0.02868 0.55252 0.0
C1489 C 0.29498 0.93967 0.53689 0.0
C1490 C 0.43754 0.7253 0.58924 0.0
C1491 C 0.41684 0.75543 0.58229 0.0
H1492 H 0.48463 0.69651 0.57622 0.0
C1493 C 0.4281 0.77961 0.55514 0.0
H1494 H 0.4295 0.70605 0.60981 0.0
C1495 C 0.45957 0.77401 0.53567 0.0
C1496 C 0.48055 0.74415 0.54298 0.0
H1497 H 0.41267 0.80298 0.54893 0.0
H1498 H 0.46768 0.79341 0.51528 0.0
C1499 C 0.46907 0.71975 0.56982 0.0
C1500 C 0.31938 0.80596 0.18902 0.0
C1501 C 0.33543 0.77414 0.17788 0.0
H1502 H 0.27582 0.83064 0.21668 0.0
C1503 C 0.31962 0.74188 0.18784 0.0
H1504 H 0.33093 0.83125 0.18179 0.0
C1505 C 0.28825 0.74153 0.20852 0.0
C1506 C 0.27188 0.77345 0.21895 0.0
H1507 H 0.33158 0.71693 0.17986 0.0
H1508 H 0.27639 0.71634 0.21552 0.0
C1509 C 0.28782 0.80562 0.20905 0.0
C1510 C 0.45728 -0.00413 0.23057 0.0
C1511 C 0.46692 0.96298 0.24571 0.0
H1512 H 0.41845 0.02527 0.20016 0.0
C1513 C 0.44288 0.93478 0.24391 0.0
H1514 H 0.47534 0.01808 0.2314 0.0
C1515 C 0.41029 0.939 0.22636 0.0
C1516 C 0.40123 0.97139 0.20978 0.0
H1517 H 0.44953 0.90916 0.25538 0.0
H1518 H 0.3927 0.91644 0.22476 0.0
C1519 C 0.4248 -4e-05 0.21251 0.0
C1520 C 0.67705 0.56867 0.93657 0.0
C1521 C 0.66049 0.53655 0.92729 0.0
H1522 H 0.72104 0.59406 0.96293 0.0
C1523 C 0.67595 0.50464 0.93892 0.0
H1524 H 0.66576 0.59368 0.92798 0.0
C1525 C 0.7073 0.50489 0.95955 0.0
C1526 C 0.72412 0.53702 0.96837 0.0
H1527 H 0.66365 0.47949 0.9324 0.0
H1528 H 0.71871 0.47989 0.96797 0.0
C1529 C 0.70869 0.56889 0.9566 0.0
C1530 C 0.55636 0.75622 0.96475 0.0
C1531 C 0.57868 0.72679 0.96033 0.0
H1532 H 0.50656 0.77554 0.98494 0.0
C1533 C 0.56801 0.694 0.97488 0.0
H1534 H 0.56395 0.78184 0.95398 0.0
C1535 C 0.53523 0.69033 0.99215 0.0
C1536 C 0.51254 0.71947 0.99589 0.0
H1537 H 0.58455 0.67076 0.97198 0.0
H1538 H 0.5274 0.66446 1.00204 0.0
C1539 C 0.52367 0.75266 0.9827 0.0
C1540 C 0.70786 0.75307 0.29616 0.0
C1541 C 0.68752 0.72306 0.30459 0.0
H1542 H 0.75586 0.77294 0.27241 0.0
C1543 C 0.70024 0.68945 0.29435 0.0
H1544 H 0.69862 0.7793 0.30354 0.0
C1545 C 0.73303 0.68578 0.277 0.0
C1546 C 0.75355 0.71567 0.26888 0.0
H1547 H 0.68522 0.6658 0.30049 0.0
H1548 H 0.74242 0.65945 0.27021 0.0
C1549 C 0.74046 0.74942 0.27811 0.0
C1550 C 0.52881 0.56008 0.307 0.0
C1551 C 0.51322 0.5282 0.29519 0.0
H1552 H 0.57092 0.58495 0.33697 0.0
C1553 C 0.52901 0.49602 0.30545 0.0
H1554 H 0.51726 0.58531 0.2996 0.0
C1555 C 0.55951 0.49581 0.3276 0.0
C1556 C 0.57508 0.52779 0.33925 0.0
H1557 H 0.51739 0.47104 0.29703 0.0
H1558 H 0.5711 0.47066 0.33524 0.0
C1559 C 0.55954 0.55988 0.32847 0.0
C1560 C 0.29639 0.4399 0.0403 0.0
C1561 C 0.30783 0.47371 0.05146 0.0
H1562 H 0.25528 0.40889 0.01552 0.0
C1563 C 0.28631 0.50311 0.04401 0.0
H1564 H 0.31233 0.41668 0.04572 0.0
C1565 C 0.2538 0.49866 0.02598 0.0
C1566 C 0.242 0.46465 0.01585 0.0
H1567 H 0.29457 0.52948 0.05216 0.0
H1568 H 0.23744 0.52168 0.021 0.0
C1569 C 0.26368 0.43538 0.02303 0.0
C1570 C 0.4281 0.30575 0.0753 0.0
C1571 C 0.41432 0.27263 0.08528 0.0
H1572 H 0.46979 0.33402 0.0485 0.0
C1573 C 0.43229 0.24178 0.07427 0.0
H1574 H 0.41483 0.32998 0.08343 0.0
C1575 C 0.46353 0.24409 0.05357 0.0
C1576 C 0.47759 0.27731 0.04421 0.0
H1577 H 0.42208 0.2159 0.08139 0.0
H1578 H 0.47708 0.21996 0.04566 0.0
C1579 C 0.45956 0.30806 0.05528 0.0
C1580 C 0.32188 0.24026 0.68486 0.0
C1581 C 0.33742 0.27207 0.67293 0.0
H1582 H 0.27912 0.21588 0.71462 0.0
C1583 C 0.32105 0.30424 0.68233 0.0
H1584 H 0.33406 0.21506 0.6783 0.0
C1585 C 0.28967 0.30469 0.70275 0.0
C1586 C 0.27411 0.27301 0.71488 0.0
H1587 H 0.33233 0.32921 0.67361 0.0
H1588 H 0.2776 0.33 0.70909 0.0
C1589 C 0.29065 0.24074 0.70595 0.0
C1590 C 0.46481 0.43749 0.74814 0.0
C1591 C 0.48599 0.46776 0.75184 0.0
H1592 H 0.41719 0.41515 0.72658 0.0
C1593 C 0.47383 0.50007 0.73739 0.0
H1594 H 0.47351 0.41226 0.75903 0.0
C1595 C 0.44172 0.50164 0.71811 0.0
C1596 C 0.42101 0.47106 0.71358 0.0
H1597 H 0.48979 0.52377 0.7396 0.0
H1598 H 0.43336 0.52661 0.70632 0.0
C1599 C 0.43254 0.43918 0.72951 0.0
loop_
_geom_bond_atom_site_label_1
_geom_bond_atom_site_label_2
_geom_bond_distance
_geom_bond_site_symmetry_2
_ccdc_geom_bond_type
Zn0 O6 1.969 . S
Zn0 O7 1.965 1_565 S
Zn0 O11 2.024 1_565 S
Zn0 O16 1.969 . S
Zn1 O8 1.969 . S
Zn1 O14 1.969 1_554 S
Zn1 O15 1.965 1_545 S
Zn1 O17 2.024 1_545 S
C2 O3 1.229 . S
C2 O11 1.058 1_565 S
O3 C2 1.229 . S
C4 O5 1.229 . S
C4 O17 1.058 1_546 S
O5 C4 1.229 . S
O6 Zn0 1.969 . S
O6 C9 1.267 1_565 S
O7 Zn0 1.965 1_545 S
O7 C18 1.260 . S
O8 Zn1 1.969 . S
O8 C18 1.258 . S
C9 O6 1.267 1_545 S
C9 O10 1.228 . S
O10 C9 1.228 . S
O11 Zn0 2.024 1_545 S
O11 C2 1.058 1_545 S
C12 O13 1.228 1_545 S
C12 O14 1.267 . S
O13 C12 1.228 1_565 S
O14 Zn1 1.969 1_556 S
O14 C12 1.267 . S
O15 Zn1 1.965 1_565 S
O15 C19 1.260 . S
O16 Zn0 1.969 . S
O16 C19 1.258 . S
O17 Zn1 2.024 1_565 S
O17 C4 1.058 1_564 S
C18 O7 1.260 . S
C18 O8 1.258 . S
C19 O15 1.260 . S
C19 O16 1.258 . S
Zn20 O26 1.969 . S
Zn20 O27 1.965 . S
Zn20 O31 2.024 . S
Zn20 O36 1.969 . S
Zn21 O28 1.969 . S
Zn21 O34 1.969 1_554 S
Zn21 O35 1.965 . S
Zn21 O37 2.024 . S
C22 O23 1.229 . S
C22 O31 1.058 . S
O23 C22 1.229 . S
C24 O25 1.229 . S
C24 O37 1.058 1_556 S
O25 C24 1.229 . S
O26 Zn20 1.969 . S
O26 C29 1.267 . S
O27 Zn20 1.965 . S
O27 C38 1.260 . S
O28 Zn21 1.969 . S
O28 C38 1.258 . S
C29 O26 1.267 . S
C29 O30 1.228 . S
O30 C29 1.228 . S
O31 Zn20 2.024 . S
O31 C22 1.058 . S
C32 O33 1.228 . S
C32 O34 1.267 . S
O33 C32 1.228 . S
O34 Zn21 1.969 1_556 S
O34 C32 1.267 . S
O35 Zn21 1.965 . S
O35 C39 1.260 . S
O36 Zn20 1.969 . S
O36 C39 1.258 . S
O37 Zn21 2.024 . S
O37 C24 1.058 1_554 S
C38 O27 1.260 . S
C38 O28 1.258 . S
C39 O35 1.260 . S
C39 O36 1.258 . S
Zn40 O46 1.969 . S
Zn40 O47 1.965 . S
Zn40 O51 2.024 . S
Zn40 O56 1.969 . S
Zn41 O48 1.969 . S
Zn41 O54 1.969 . S
Zn41 O55 1.965 . S
Zn41 O57 2.024 . S
C42 O43 1.229 . S
C42 O51 1.058 . S
O43 C42 1.229 . S
C44 O45 1.229 . S
C44 O57 1.058 . S
O45 C44 1.229 . S
O46 Zn40 1.969 . S
O46 C49 1.267 . S
O47 Zn40 1.965 . S
O47 C58 1.260 . S
O48 Zn41 1.969 . S
O48 C58 1.258 . S
C49 O46 1.267 . S
C49 O50 1.228 . S
O50 C49 1.228 . S
O51 Zn40 2.024 . S
O51 C42 1.058 . S
C52 O53 1.228 . S
C52 O54 1.267 . S
O53 C52 1.228 . S
O54 Zn41 1.969 . S
O54 C52 1.267 . S
O55 Zn41 1.965 . S
O55 C59 1.260 . S
O56 Zn40 1.969 . S
O56 C59 1.258 . S
O57 Zn41 2.024 . S
O57 C44 1.058 . S
C58 O47 1.260 . S
C58 O48 1.258 . S
C59 O55 1.260 . S
C59 O56 1.258 . S
Zn60 O66 1.969 . S
Zn60 O67 1.965 1_565 S
Zn60 O71 2.024 1_565 S
Zn60 O76 1.969 . S
Zn61 O68 1.969 . S
Zn61 O74 1.969 . S
Zn61 O75 1.965 1_545 S
Zn61 O77 2.024 1_545 S
C62 O63 1.229 . S
C62 O71 1.058 1_565 S
O63 C62 1.229 . S
C64 O65 1.229 . S
C64 O77 1.058 1_545 S
O65 C64 1.229 . S
O66 Zn60 1.969 . S
O66 C69 1.267 1_565 S
O67 Zn60 1.965 1_545 S
O67 C78 1.260 . S
O68 Zn61 1.969 . S
O68 C78 1.258 . S
C69 O66 1.267 1_545 S
C69 O70 1.228 . S
O70 C69 1.228 . S
O71 Zn60 2.024 1_545 S
O71 C62 1.058 1_545 S
C72 O73 1.228 1_545 S
C72 O74 1.267 . S
O73 C72 1.228 1_565 S
O74 Zn61 1.969 . S
O74 C72 1.267 . S
O75 Zn61 1.965 1_565 S
O75 C79 1.260 . S
O76 Zn60 1.969 . S
O76 C79 1.258 . S
O77 Zn61 2.024 1_565 S
O77 C64 1.058 1_565 S
C78 O67 1.260 . S
C78 O68 1.258 . S
C79 O75 1.260 . S
C79 O76 1.258 . S
Zn80 O86 1.969 1_556 S
Zn80 O87 1.965 1_565 S
Zn80 O91 2.024 1_565 S
Zn80 O96 1.969 . S
Zn81 O88 1.969 . S
Zn81 O94 1.969 . S
Zn81 O95 1.965 1_545 S
Zn81 O97 2.024 1_545 S
C82 O83 1.229 . S
C82 O91 1.058 1_564 S
O83 C82 1.229 . S
C84 O85 1.229 . S
C84 O97 1.058 1_545 S
O85 C84 1.229 . S
O86 Zn80 1.969 1_554 S
O86 C89 1.267 . S
O87 Zn80 1.965 1_545 S
O87 C98 1.260 . S
O88 Zn81 1.969 . S
O88 C98 1.258 . S
C89 O86 1.267 . S
C89 O90 1.228 1_565 S
O90 C89 1.228 1_545 S
O91 Zn80 2.024 1_545 S
O91 C82 1.058 1_546 S
C92 O93 1.228 . S
C92 O94 1.267 1_565 S
O93 C92 1.228 . S
O94 Zn81 1.969 . S
O94 C92 1.267 1_545 S
O95 Zn81 1.965 1_565 S
O95 C99 1.260 . S
O96 Zn80 1.969 . S
O96 C99 1.258 . S
O97 Zn81 2.024 1_565 S
O97 C84 1.058 1_565 S
C98 O87 1.260 . S
C98 O88 1.258 . S
C99 O95 1.260 . S
C99 O96 1.258 . S
Zn100 O106 1.969 1_556 S
Zn100 O107 1.965 . S
Zn100 O111 2.024 . S
Zn100 O116 1.969 . S
Zn101 O108 1.969 . S
Zn101 O114 1.969 . S
Zn101 O115 1.965 . S
Zn101 O117 2.024 . S
C102 O103 1.229 . S
C102 O111 1.058 1_554 S
O103 C102 1.229 . S
C104 O105 1.229 . S
C104 O117 1.058 . S
O105 C104 1.229 . S
O106 Zn100 1.969 1_554 S
O106 C109 1.267 . S
O107 Zn100 1.965 . S
O107 C118 1.260 . S
O108 Zn101 1.969 . S
O108 C118 1.258 . S
C109 O106 1.267 . S
C109 O110 1.228 . S
O110 C109 1.228 . S
O111 Zn100 2.024 . S
O111 C102 1.058 1_556 S
C112 O113 1.228 . S
C112 O114 1.267 . S
O113 C112 1.228 . S
O114 Zn101 1.969 . S
O114 C112 1.267 . S
O115 Zn101 1.965 . S
O115 C119 1.260 . S
O116 Zn100 1.969 . S
O116 C119 1.258 . S
O117 Zn101 2.024 . S
O117 C104 1.058 . S
C118 O107 1.260 . S
C118 O108 1.258 . S
C119 O115 1.260 . S
C119 O116 1.258 . S
Zn120 O126 1.969 . S
Zn120 O127 1.965 . S
Zn120 O131 2.024 . S
Zn120 O136 1.969 . S
Zn121 O128 1.969 . S
Zn121 O134 1.969 . S
Zn121 O135 1.965 . S
Zn121 O137 2.024 . S
C122 O123 1.229 . S
C122 O131 1.058 . S
O123 C122 1.229 . S
C124 O125 1.229 . S
C124 O137 1.058 . S
O125 C124 1.229 . S
O126 Zn120 1.969 . S
O126 C129 1.267 . S
O127 Zn120 1.965 . S
O127 C138 1.260 . S
O128 Zn121 1.969 . S
O128 C138 1.258 . S
C129 O126 1.267 . S
C129 O130 1.228 . S
O130 C129 1.228 . S
O131 Zn120 2.024 . S
O131 C122 1.058 . S
C132 O133 1.228 . S
C132 O134 1.267 . S
O133 C132 1.228 . S
O134 Zn121 1.969 . S
O134 C132 1.267 . S
O135 Zn121 1.965 . S
O135 C139 1.260 . S
O136 Zn120 1.969 . S
O136 C139 1.258 . S
O137 Zn121 2.024 . S
O137 C124 1.058 . S
C138 O127 1.260 . S
C138 O128 1.258 . S
C139 O135 1.260 . S
C139 O136 1.258 . S
Zn140 O146 1.969 . S
Zn140 O147 1.965 1_565 S
Zn140 O151 2.024 1_565 S
Zn140 O156 1.969 . S
Zn141 O148 1.969 . S
Zn141 O154 1.969 . S
Zn141 O155 1.965 1_545 S
Zn141 O157 2.024 1_545 S
C142 O143 1.229 . S
C142 O151 1.058 1_565 S
O143 C142 1.229 . S
C144 O145 1.229 . S
C144 O157 1.058 1_545 S
O145 C144 1.229 . S
O146 Zn140 1.969 . S
O146 C149 1.267 . S
O147 Zn140 1.965 1_545 S
O147 C158 1.260 . S
O148 Zn141 1.969 . S
O148 C158 1.258 . S
C149 O146 1.267 . S
C149 O150 1.228 1_565 S
O150 C149 1.228 1_545 S
O151 Zn140 2.024 1_545 S
O151 C142 1.058 1_545 S
C152 O153 1.228 . S
C152 O154 1.267 1_565 S
O153 C152 1.228 . S
O154 Zn141 1.969 . S
O154 C152 1.267 1_545 S
O155 Zn141 1.965 1_565 S
O155 C159 1.260 . S
O156 Zn140 1.969 . S
O156 C159 1.258 . S
O157 Zn141 2.024 1_565 S
O157 C144 1.058 1_565 S
C158 O147 1.260 . S
C158 O148 1.258 . S
C159 O155 1.260 . S
C159 O156 1.258 . S
Zn160 O166 1.969 . S
Zn160 O167 1.965 . S
Zn160 O171 2.024 . S
Zn160 O176 1.969 . S
Zn161 O168 1.969 . S
Zn161 O174 1.969 . S
Zn161 O175 1.965 . S
Zn161 O177 2.024 . S
C162 O163 1.229 . S
C162 O171 1.058 . S
O163 C162 1.229 . S
C164 O165 1.229 . S
C164 O177 1.058 . S
O165 C164 1.229 . S
O166 Zn160 1.969 . S
O166 C169 1.267 . S
O167 Zn160 1.965 . S
O167 C178 1.260 . S
O168 Zn161 1.969 . S
O168 C178 1.258 . S
C169 O166 1.267 . S
C169 O170 1.228 . S
O170 C169 1.228 . S
O171 Zn160 2.024 . S
O171 C162 1.058 . S
C172 O173 1.228 . S
C172 O174 1.267 . S
O173 C172 1.228 . S
O174 Zn161 1.969 . S
O174 C172 1.267 . S
O175 Zn161 1.965 . S
O175 C179 1.260 . S
O176 Zn160 1.969 . S
O176 C179 1.258 . S
O177 Zn161 2.024 . S
O177 C164 1.058 . S
C178 O167 1.260 . S
C178 O168 1.258 . S
C179 O175 1.260 . S
C179 O176 1.258 . S
Zn180 O186 1.969 . S
Zn180 O187 1.965 . S
Zn180 O191 2.024 . S
Zn180 O196 1.969 . S
Zn181 O188 1.969 . S
Zn181 O194 1.969 . S
Zn181 O195 1.965 . S
Zn181 O197 2.024 . S
C182 O183 1.229 . S
C182 O191 1.058 . S
O183 C182 1.229 . S
C184 O185 1.229 . S
C184 O197 1.058 . S
O185 C184 1.229 . S
O186 Zn180 1.969 . S
O186 C189 1.267 . S
O187 Zn180 1.965 . S
O187 C198 1.260 . S
O188 Zn181 1.969 . S
O188 C198 1.258 . S
C189 O186 1.267 . S
C189 O190 1.228 . S
O190 C189 1.228 . S
O191 Zn180 2.024 . S
O191 C182 1.058 . S
C192 O193 1.228 . S
C192 O194 1.267 . S
O193 C192 1.228 . S
O194 Zn181 1.969 . S
O194 C192 1.267 . S
O195 Zn181 1.965 . S
O195 C199 1.260 . S
O196 Zn180 1.969 . S
O196 C199 1.258 . S
O197 Zn181 2.024 . S
O197 C184 1.058 . S
C198 O187 1.260 . S
C198 O188 1.258 . S
C199 O195 1.260 . S
C199 O196 1.258 . S
Zn200 O206 1.969 . S
Zn200 O207 1.965 . S
Zn200 O211 2.024 . S
Zn200 O216 1.969 . S
Zn201 O208 1.969 . S
Zn201 O214 1.969 . S
Zn201 O215 1.965 . S
Zn201 O217 2.024 . S
C202 O203 1.229 . S
C202 O211 1.058 . S
O203 C202 1.229 . S
C204 O205 1.229 . S
C204 O217 1.058 . S
O205 C204 1.229 . S
O206 Zn200 1.969 . S
O206 C209 1.267 . S
O207 Zn200 1.965 . S
O207 C218 1.260 . S
O208 Zn201 1.969 . S
O208 C218 1.258 . S
C209 O206 1.267 . S
C209 O210 1.228 . S
O210 C209 1.228 . S
O211 Zn200 2.024 . S
O211 C202 1.058 . S
C212 O213 1.228 . S
C212 O214 1.267 . S
O213 C212 1.228 . S
O214 Zn201 1.969 . S
O214 C212 1.267 . S
O215 Zn201 1.965 . S
O215 C219 1.260 . S
O216 Zn200 1.969 . S
O216 C219 1.258 . S
O217 Zn201 2.024 . S
O217 C204 1.058 . S
C218 O207 1.260 . S
C218 O208 1.258 . S
C219 O215 1.260 . S
C219 O216 1.258 . S
Zn220 O226 1.969 . S
Zn220 O227 1.965 . S
Zn220 O231 2.024 . S
Zn220 O236 1.969 . S
Zn221 O228 1.969 . S
Zn221 O234 1.969 . S
Zn221 O235 1.965 . S
Zn221 O237 2.024 . S
C222 O223 1.229 . S
C222 O231 1.058 . S
O223 C222 1.229 . S
C224 O225 1.229 . S
C224 O237 1.058 . S
O225 C224 1.229 . S
O226 Zn220 1.969 . S
O226 C229 1.267 . S
O227 Zn220 1.965 . S
O227 C238 1.260 . S
O228 Zn221 1.969 . S
O228 C238 1.258 . S
C229 O226 1.267 . S
C229 O230 1.228 . S
O230 C229 1.228 . S
O231 Zn220 2.024 . S
O231 C222 1.058 . S
C232 O233 1.228 . S
C232 O234 1.267 . S
O233 C232 1.228 . S
O234 Zn221 1.969 . S
O234 C232 1.267 . S
O235 Zn221 1.965 . S
O235 C239 1.260 . S
O236 Zn220 1.969 . S
O236 C239 1.258 . S
O237 Zn221 2.024 . S
O237 C224 1.058 . S
C238 O227 1.260 . S
C238 O228 1.258 . S
C239 O235 1.260 . S
C239 O236 1.258 . S
Zn240 O246 1.969 . S
Zn240 O247 1.965 . S
Zn240 O251 2.024 . S
Zn240 O256 1.969 . S
Zn241 O248 1.969 . S
Zn241 O254 1.969 . S
Zn241 O255 1.965 . S
Zn241 O257 2.024 . S
C242 O243 1.229 . S
C242 O251 1.058 . S
O243 C242 1.229 . S
C244 O245 1.229 . S
C244 O257 1.058 . S
O245 C244 1.229 . S
O246 Zn240 1.969 . S
O246 C249 1.267 . S
O247 Zn240 1.965 . S
O247 C258 1.260 . S
O248 Zn241 1.969 . S
O248 C258 1.258 . S
C249 O246 1.267 . S
C249 O250 1.228 . S
O250 C249 1.228 . S
O251 Zn240 2.024 . S
O251 C242 1.058 . S
C252 O253 1.228 . S
C252 O254 1.267 . S
O253 C252 1.228 . S
O254 Zn241 1.969 . S
O254 C252 1.267 . S
O255 Zn241 1.965 . S
O255 C259 1.260 . S
O256 Zn240 1.969 . S
O256 C259 1.258 . S
O257 Zn241 2.024 . S
O257 C244 1.058 . S
C258 O247 1.260 . S
C258 O248 1.258 . S
C259 O255 1.260 . S
C259 O256 1.258 . S
Zn260 O266 1.969 . S
Zn260 O267 1.965 . S
Zn260 O271 2.024 . S
Zn260 O276 1.969 . S
Zn261 O268 1.969 . S
Zn261 O274 1.969 . S
Zn261 O275 1.965 . S
Zn261 O277 2.024 . S
C262 O263 1.229 . S
C262 O271 1.058 . S
O263 C262 1.229 . S
C264 O265 1.229 . S
C264 O277 1.058 . S
O265 C264 1.229 . S
O266 Zn260 1.969 . S
O266 C269 1.267 . S
O267 Zn260 1.965 . S
O267 C278 1.260 . S
O268 Zn261 1.969 . S
O268 C278 1.258 . S
C269 O266 1.267 . S
C269 O270 1.228 . S
O270 C269 1.228 . S
O271 Zn260 2.024 . S
O271 C262 1.058 . S
C272 O273 1.228 . S
C272 O274 1.267 . S
O273 C272 1.228 . S
O274 Zn261 1.969 . S
O274 C272 1.267 . S
O275 Zn261 1.965 . S
O275 C279 1.260 . S
O276 Zn260 1.969 . S
O276 C279 1.258 . S
O277 Zn261 2.024 . S
O277 C264 1.058 . S
C278 O267 1.260 . S
C278 O268 1.258 . S
C279 O275 1.260 . S
C279 O276 1.258 . S
Zn280 O286 1.969 . S
Zn280 O287 1.965 . S
Zn280 O291 2.024 . S
Zn280 O296 1.969 . S
Zn281 O288 1.969 . S
Zn281 O294 1.969 . S
Zn281 O295 1.965 . S
Zn281 O297 2.024 . S
C282 O283 1.229 . S
C282 O291 1.058 . S
O283 C282 1.229 . S
C284 O285 1.229 . S
C284 O297 1.058 . S
O285 C284 1.229 . S
O286 Zn280 1.969 . S
O286 C289 1.267 . S
O287 Zn280 1.965 . S
O287 C298 1.260 . S
O288 Zn281 1.969 . S
O288 C298 1.258 . S
C289 O286 1.267 . S
C289 O290 1.228 . S
O290 C289 1.228 . S
O291 Zn280 2.024 . S
O291 C282 1.058 . S
C292 O293 1.228 . S
C292 O294 1.267 . S
O293 C292 1.228 . S
O294 Zn281 1.969 . S
O294 C292 1.267 . S
O295 Zn281 1.965 . S
O295 C299 1.260 . S
O296 Zn280 1.969 . S
O296 C299 1.258 . S
O297 Zn281 2.024 . S
O297 C284 1.058 . S
C298 O287 1.260 . S
C298 O288 1.258 . S
C299 O295 1.260 . S
C299 O296 1.258 . S
Zn300 O306 1.969 . S
Zn300 O307 1.965 . S
Zn300 O311 2.024 . S
Zn300 O316 1.969 . S
Zn301 O308 1.969 . S
Zn301 O314 1.969 . S
Zn301 O315 1.965 . S
Zn301 O317 2.024 . S
C302 O303 1.229 . S
C302 O311 1.058 . S
O303 C302 1.229 . S
C304 O305 1.229 . S
C304 O317 1.058 . S
O305 C304 1.229 . S
O306 Zn300 1.969 . S
O306 C309 1.267 . S
O307 Zn300 1.965 . S
O307 C318 1.260 . S
O308 Zn301 1.969 . S
O308 C318 1.258 . S
C309 O306 1.267 . S
C309 O310 1.228 . S
O310 C309 1.228 . S
O311 Zn300 2.024 . S
O311 C302 1.058 . S
C312 O313 1.228 . S
C312 O314 1.267 . S
O313 C312 1.228 . S
O314 Zn301 1.969 . S
O314 C312 1.267 . S
O315 Zn301 1.965 . S
O315 C319 1.260 . S
O316 Zn300 1.969 . S
O316 C319 1.258 . S
O317 Zn301 2.024 . S
O317 C304 1.058 . S
C318 O307 1.260 . S
C318 O308 1.258 . S
C319 O315 1.260 . S
C319 O316 1.258 . S
Zn320 O326 1.969 . S
Zn320 O327 1.965 1_565 S
Zn320 O331 2.024 1_565 S
Zn320 O336 1.969 . S
Zn321 O328 1.969 . S
Zn321 O334 1.969 . S
Zn321 O335 1.965 1_545 S
Zn321 O337 2.024 1_545 S
C322 O323 1.229 . S
C322 O331 1.058 1_565 S
O323 C322 1.229 . S
C324 O325 1.229 . S
C324 O337 1.058 1_545 S
O325 C324 1.229 . S
O326 Zn320 1.969 . S
O326 C329 1.267 1_565 S
O327 Zn320 1.965 1_545 S
O327 C338 1.260 . S
O328 Zn321 1.969 . S
O328 C338 1.258 . S
C329 O326 1.267 1_545 S
C329 O330 1.228 . S
O330 C329 1.228 . S
O331 Zn320 2.024 1_545 S
O331 C322 1.058 1_545 S
C332 O333 1.228 1_545 S
C332 O334 1.267 . S
O333 C332 1.228 1_565 S
O334 Zn321 1.969 . S
O334 C332 1.267 . S
O335 Zn321 1.965 1_565 S
O335 C339 1.260 . S
O336 Zn320 1.969 . S
O336 C339 1.258 . S
O337 Zn321 2.024 1_565 S
O337 C324 1.058 1_565 S
C338 O327 1.260 . S
C338 O328 1.258 . S
C339 O335 1.260 . S
C339 O336 1.258 . S
Zn340 O346 1.969 . S
Zn340 O347 1.965 . S
Zn340 O351 2.024 . S
Zn340 O356 1.969 . S
Zn341 O348 1.969 . S
Zn341 O354 1.969 . S
Zn341 O355 1.965 . S
Zn341 O357 2.024 . S
C342 O343 1.229 . S
C342 O351 1.058 . S
O343 C342 1.229 . S
C344 O345 1.229 . S
C344 O357 1.058 . S
O345 C344 1.229 . S
O346 Zn340 1.969 . S
O346 C349 1.267 . S
O347 Zn340 1.965 . S
O347 C358 1.260 . S
O348 Zn341 1.969 . S
O348 C358 1.258 . S
C349 O346 1.267 . S
C349 O350 1.228 . S
O350 C349 1.228 . S
O351 Zn340 2.024 . S
O351 C342 1.058 . S
C352 O353 1.228 . S
C352 O354 1.267 . S
O353 C352 1.228 . S
O354 Zn341 1.969 . S
O354 C352 1.267 . S
O355 Zn341 1.965 . S
O355 C359 1.260 . S
O356 Zn340 1.969 . S
O356 C359 1.258 . S
O357 Zn341 2.024 . S
O357 C344 1.058 . S
C358 O347 1.260 . S
C358 O348 1.258 . S
C359 O355 1.260 . S
C359 O356 1.258 . S
Zn360 O366 1.969 . S
Zn360 O367 1.965 . S
Zn360 O371 2.024 . S
Zn360 O376 1.969 . S
Zn361 O368 1.969 . S
Zn361 O374 1.969 . S
Zn361 O375 1.965 . S
Zn361 O377 2.024 . S
C362 O363 1.229 . S
C362 O371 1.058 . S
O363 C362 1.229 . S
C364 O365 1.229 . S
C364 O377 1.058 . S
O365 C364 1.229 . S
O366 Zn360 1.969 . S
O366 C369 1.267 . S
O367 Zn360 1.965 . S
O367 C378 1.260 . S
O368 Zn361 1.969 . S
O368 C378 1.258 . S
C369 O366 1.267 . S
C369 O370 1.228 . S
O370 C369 1.228 . S
O371 Zn360 2.024 . S
O371 C362 1.058 . S
C372 O373 1.228 . S
C372 O374 1.267 . S
O373 C372 1.228 . S
O374 Zn361 1.969 . S
O374 C372 1.267 . S
O375 Zn361 1.965 . S
O375 C379 1.260 . S
O376 Zn360 1.969 . S
O376 C379 1.258 . S
O377 Zn361 2.024 . S
O377 C364 1.058 . S
C378 O367 1.260 . S
C378 O368 1.258 . S
C379 O375 1.260 . S
C379 O376 1.258 . S
Zn380 O386 1.969 . S
Zn380 O387 1.965 1_565 S
Zn380 O391 2.024 1_565 S
Zn380 O396 1.969 . S
Zn381 O388 1.969 . S
Zn381 O394 1.969 . S
Zn381 O395 1.965 1_545 S
Zn381 O397 2.024 1_545 S
C382 O383 1.229 . S
C382 O391 1.058 1_565 S
O383 C382 1.229 . S
C384 O385 1.229 . S
C384 O397 1.058 1_545 S
O385 C384 1.229 . S
O386 Zn380 1.969 . S
O386 C389 1.267 1_565 S
O387 Zn380 1.965 1_545 S
O387 C398 1.260 . S
O388 Zn381 1.969 . S
O388 C398 1.258 . S
C389 O386 1.267 1_545 S
C389 O390 1.228 . S
O390 C389 1.228 . S
O391 Zn380 2.024 1_545 S
O391 C382 1.058 1_545 S
C392 O393 1.228 1_545 S
C392 O394 1.267 . S
O393 C392 1.228 1_565 S
O394 Zn381 1.969 . S
O394 C392 1.267 . S
O395 Zn381 1.965 1_565 S
O395 C399 1.260 . S
O396 Zn380 1.969 . S
O396 C399 1.258 . S
O397 Zn381 2.024 1_565 S
O397 C384 1.058 1_565 S
C398 O387 1.260 . S
C398 O388 1.258 . S
C399 O395 1.260 . S
C399 O396 1.258 . S
Zn400 O406 1.969 . S
Zn400 O407 1.965 1_565 S
Zn400 O411 2.024 1_565 S
Zn400 O416 1.969 . S
Zn401 O408 1.969 . S
Zn401 O414 1.969 . S
Zn401 O415 1.965 1_545 S
Zn401 O417 2.024 1_545 S
C402 O403 1.229 . S
C402 O411 1.058 1_565 S
O403 C402 1.229 . S
C404 O405 1.229 . S
C404 O417 1.058 1_545 S
O405 C404 1.229 . S
O406 Zn400 1.969 . S
O406 C409 1.267 . S
O407 Zn400 1.965 1_545 S
O407 C418 1.260 . S
O408 Zn401 1.969 . S
O408 C418 1.258 . S
C409 O406 1.267 . S
C409 O410 1.228 1_565 S
O410 C409 1.228 1_545 S
O411 Zn400 2.024 1_545 S
O411 C402 1.058 1_545 S
C412 O413 1.228 . S
C412 O414 1.267 1_565 S
O413 C412 1.228 . S
O414 Zn401 1.969 . S
O414 C412 1.267 1_545 S
O415 Zn401 1.965 1_565 S
O415 C419 1.260 . S
O416 Zn400 1.969 . S
O416 C419 1.258 . S
O417 Zn401 2.024 1_565 S
O417 C404 1.058 1_565 S
C418 O407 1.260 . S
C418 O408 1.258 . S
C419 O415 1.260 . S
C419 O416 1.258 . S
Zn420 O426 1.969 . S
Zn420 O427 1.965 . S
Zn420 O431 2.024 . S
Zn420 O436 1.969 . S
Zn421 O428 1.969 . S
Zn421 O434 1.969 . S
Zn421 O435 1.965 . S
Zn421 O437 2.024 . S
C422 O423 1.229 . S
C422 O431 1.058 . S
O423 C422 1.229 . S
C424 O425 1.229 . S
C424 O437 1.058 . S
O425 C424 1.229 . S
O426 Zn420 1.969 . S
O426 C429 1.267 . S
O427 Zn420 1.965 . S
O427 C438 1.260 . S
O428 Zn421 1.969 . S
O428 C438 1.258 . S
C429 O426 1.267 . S
C429 O430 1.228 . S
O430 C429 1.228 . S
O431 Zn420 2.024 . S
O431 C422 1.058 . S
C432 O433 1.228 . S
C432 O434 1.267 . S
O433 C432 1.228 . S
O434 Zn421 1.969 . S
O434 C432 1.267 . S
O435 Zn421 1.965 . S
O435 C439 1.260 . S
O436 Zn420 1.969 . S
O436 C439 1.258 . S
O437 Zn421 2.024 . S
O437 C424 1.058 . S
C438 O427 1.260 . S
C438 O428 1.258 . S
C439 O435 1.260 . S
C439 O436 1.258 . S
Zn440 O446 1.969 . S
Zn440 O447 1.965 . S
Zn440 O451 2.024 . S
Zn440 O456 1.969 . S
Zn441 O448 1.969 . S
Zn441 O454 1.969 . S
Zn441 O455 1.965 . S
Zn441 O457 2.024 . S
C442 O443 1.229 . S
C442 O451 1.058 . S
O443 C442 1.229 . S
C444 O445 1.229 . S
C444 O457 1.058 . S
O445 C444 1.229 . S
O446 Zn440 1.969 . S
O446 C449 1.267 . S
O447 Zn440 1.965 . S
O447 C458 1.260 . S
O448 Zn441 1.969 . S
O448 C458 1.258 . S
C449 O446 1.267 . S
C449 O450 1.228 . S
O450 C449 1.228 . S
O451 Zn440 2.024 . S
O451 C442 1.058 . S
C452 O453 1.228 . S
C452 O454 1.267 . S
O453 C452 1.228 . S
O454 Zn441 1.969 . S
O454 C452 1.267 . S
O455 Zn441 1.965 . S
O455 C459 1.260 . S
O456 Zn440 1.969 . S
O456 C459 1.258 . S
O457 Zn441 2.024 . S
O457 C444 1.058 . S
C458 O447 1.260 . S
C458 O448 1.258 . S
C459 O455 1.260 . S
C459 O456 1.258 . S
Zn460 O466 1.969 . S
Zn460 O467 1.965 1_565 S
Zn460 O471 2.024 1_565 S
Zn460 O476 1.969 . S
Zn461 O468 1.969 . S
Zn461 O474 1.969 . S
Zn461 O475 1.965 1_545 S
Zn461 O477 2.024 1_545 S
C462 O463 1.229 . S
C462 O471 1.058 1_565 S
O463 C462 1.229 . S
C464 O465 1.229 . S
C464 O477 1.058 1_545 S
O465 C464 1.229 . S
O466 Zn460 1.969 . S
O466 C469 1.267 . S
O467 Zn460 1.965 1_545 S
O467 C478 1.260 . S
O468 Zn461 1.969 . S
O468 C478 1.258 . S
C469 O466 1.267 . S
C469 O470 1.228 1_565 S
O470 C469 1.228 1_545 S
O471 Zn460 2.024 1_545 S
O471 C462 1.058 1_545 S
C472 O473 1.228 . S
C472 O474 1.267 1_565 S
O473 C472 1.228 . S
O474 Zn461 1.969 . S
O474 C472 1.267 1_545 S
O475 Zn461 1.965 1_565 S
O475 C479 1.260 . S
O476 Zn460 1.969 . S
O476 C479 1.258 . S
O477 Zn461 2.024 1_565 S
O477 C464 1.058 1_565 S
C478 O467 1.260 . S
C478 O468 1.258 . S
C479 O475 1.260 . S
C479 O476 1.258 . S
Zn480 O486 1.969 . S
Zn480 O487 1.965 . S
Zn480 O491 2.024 . S
Zn480 O496 1.969 . S
Zn481 O488 1.969 . S
Zn481 O494 1.969 1_554 S
Zn481 O495 1.965 . S
Zn481 O497 2.024 . S
C482 O483 1.229 . S
C482 O491 1.058 . S
O483 C482 1.229 . S
C484 O485 1.229 . S
C484 O497 1.058 1_556 S
O485 C484 1.229 . S
O486 Zn480 1.969 . S
O486 C489 1.267 . S
O487 Zn480 1.965 . S
O487 C498 1.260 . S
O488 Zn481 1.969 . S
O488 C498 1.258 . S
C489 O486 1.267 . S
C489 O490 1.228 . S
O490 C489 1.228 . S
O491 Zn480 2.024 . S
O491 C482 1.058 . S
C492 O493 1.228 . S
C492 O494 1.267 . S
O493 C492 1.228 . S
O494 Zn481 1.969 1_556 S
O494 C492 1.267 . S
O495 Zn481 1.965 . S
O495 C499 1.260 . S
O496 Zn480 1.969 . S
O496 C499 1.258 . S
O497 Zn481 2.024 . S
O497 C484 1.058 1_554 S
C498 O487 1.260 . S
C498 O488 1.258 . S
C499 O495 1.260 . S
C499 O496 1.258 . S
Zn500 O506 1.969 . S
Zn500 O507 1.965 . S
Zn500 O511 2.024 . S
Zn500 O516 1.969 . S
Zn501 O508 1.969 . S
Zn501 O514 1.969 1_554 S
Zn501 O515 1.965 . S
Zn501 O517 2.024 . S
C502 O503 1.229 . S
C502 O511 1.058 . S
O503 C502 1.229 . S
C504 O505 1.229 . S
C504 O517 1.058 1_556 S
O505 C504 1.229 . S
O506 Zn500 1.969 . S
O506 C509 1.267 . S
O507 Zn500 1.965 . S
O507 C518 1.260 . S
O508 Zn501 1.969 . S
O508 C518 1.258 . S
C509 O506 1.267 . S
C509 O510 1.228 . S
O510 C509 1.228 . S
O511 Zn500 2.024 . S
O511 C502 1.058 . S
C512 O513 1.228 . S
C512 O514 1.267 . S
O513 C512 1.228 . S
O514 Zn501 1.969 1_556 S
O514 C512 1.267 . S
O515 Zn501 1.965 . S
O515 C519 1.260 . S
O516 Zn500 1.969 . S
O516 C519 1.258 . S
O517 Zn501 2.024 . S
O517 C504 1.058 1_554 S
C518 O507 1.260 . S
C518 O508 1.258 . S
C519 O515 1.260 . S
C519 O516 1.258 . S
Zn520 O526 1.969 . S
Zn520 O527 1.965 . S
Zn520 O531 2.024 . S
Zn520 O536 1.969 . S
Zn521 O528 1.969 . S
Zn521 O534 1.969 . S
Zn521 O535 1.965 . S
Zn521 O537 2.024 . S
C522 O523 1.229 . S
C522 O531 1.058 . S
O523 C522 1.229 . S
C524 O525 1.229 . S
C524 O537 1.058 . S
O525 C524 1.229 . S
O526 Zn520 1.969 . S
O526 C529 1.267 . S
O527 Zn520 1.965 . S
O527 C538 1.260 . S
O528 Zn521 1.969 . S
O528 C538 1.258 . S
C529 O526 1.267 . S
C529 O530 1.228 . S
O530 C529 1.228 . S
O531 Zn520 2.024 . S
O531 C522 1.058 . S
C532 O533 1.228 . S
C532 O534 1.267 . S
O533 C532 1.228 . S
O534 Zn521 1.969 . S
O534 C532 1.267 . S
O535 Zn521 1.965 . S
O535 C539 1.260 . S
O536 Zn520 1.969 . S
O536 C539 1.258 . S
O537 Zn521 2.024 . S
O537 C524 1.058 . S
C538 O527 1.260 . S
C538 O528 1.258 . S
C539 O535 1.260 . S
C539 O536 1.258 . S
Zn540 O546 1.969 . S
Zn540 O547 1.965 . S
Zn540 O551 2.024 . S
Zn540 O556 1.969 . S
Zn541 O548 1.969 . S
Zn541 O554 1.969 . S
Zn541 O555 1.965 . S
Zn541 O557 2.024 . S
C542 O543 1.229 . S
C542 O551 1.058 . S
O543 C542 1.229 . S
C544 O545 1.229 . S
C544 O557 1.058 . S
O545 C544 1.229 . S
O546 Zn540 1.969 . S
O546 C549 1.267 . S
O547 Zn540 1.965 . S
O547 C558 1.260 . S
O548 Zn541 1.969 . S
O548 C558 1.258 . S
C549 O546 1.267 . S
C549 O550 1.228 . S
O550 C549 1.228 . S
O551 Zn540 2.024 . S
O551 C542 1.058 . S
C552 O553 1.228 . S
C552 O554 1.267 . S
O553 C552 1.228 . S
O554 Zn541 1.969 . S
O554 C552 1.267 . S
O555 Zn541 1.965 . S
O555 C559 1.260 . S
O556 Zn540 1.969 . S
O556 C559 1.258 . S
O557 Zn541 2.024 . S
O557 C544 1.058 . S
C558 O547 1.260 . S
C558 O548 1.258 . S
C559 O555 1.260 . S
C559 O556 1.258 . S
Zn560 O566 1.969 1_556 S
Zn560 O567 1.965 . S
Zn560 O571 2.024 . S
Zn560 O576 1.969 . S
Zn561 O568 1.969 . S
Zn561 O574 1.969 . S
Zn561 O575 1.965 . S
Zn561 O577 2.024 . S
C562 O563 1.229 . S
C562 O571 1.058 1_554 S
O563 C562 1.229 . S
C564 O565 1.229 . S
C564 O577 1.058 . S
O565 C564 1.229 . S
O566 Zn560 1.969 1_554 S
O566 C569 1.267 . S
O567 Zn560 1.965 . S
O567 C578 1.260 . S
O568 Zn561 1.969 . S
O568 C578 1.258 . S
C569 O566 1.267 . S
C569 O570 1.228 . S
O570 C569 1.228 . S
O571 Zn560 2.024 . S
O571 C562 1.058 1_556 S
C572 O573 1.228 . S
C572 O574 1.267 . S
O573 C572 1.228 . S
O574 Zn561 1.969 . S
O574 C572 1.267 . S
O575 Zn561 1.965 . S
O575 C579 1.260 . S
O576 Zn560 1.969 . S
O576 C579 1.258 . S
O577 Zn561 2.024 . S
O577 C564 1.058 . S
C578 O567 1.260 . S
C578 O568 1.258 . S
C579 O575 1.260 . S
C579 O576 1.258 . S
Zn580 O586 1.969 1_556 S
Zn580 O587 1.965 . S
Zn580 O591 2.024 . S
Zn580 O596 1.969 . S
Zn581 O588 1.969 . S
Zn581 O594 1.969 . S
Zn581 O595 1.965 . S
Zn581 O597 2.024 . S
C582 O583 1.229 . S
C582 O591 1.058 1_554 S
O583 C582 1.229 . S
C584 O585 1.229 . S
C584 O597 1.058 . S
O585 C584 1.229 . S
O586 Zn580 1.969 1_554 S
O586 C589 1.267 . S
O587 Zn580 1.965 . S
O587 C598 1.260 . S
O588 Zn581 1.969 . S
O588 C598 1.258 . S
C589 O586 1.267 . S
C589 O590 1.228 . S
O590 C589 1.228 . S
O591 Zn580 2.024 . S
O591 C582 1.058 1_556 S
C592 O593 1.228 . S
C592 O594 1.267 . S
O593 C592 1.228 . S
O594 Zn581 1.969 . S
O594 C592 1.267 . S
O595 Zn581 1.965 . S
O595 C599 1.260 . S
O596 Zn580 1.969 . S
O596 C599 1.258 . S
O597 Zn581 2.024 . S
O597 C584 1.058 . S
C598 O587 1.260 . S
C598 O588 1.258 . S
C599 O595 1.260 . S
C599 O596 1.258 . S
Zn600 O606 1.969 . S
Zn600 O607 1.965 . S
Zn600 O611 2.024 . S
Zn600 O616 1.969 . S
Zn601 O608 1.969 . S
Zn601 O614 1.969 . S
Zn601 O615 1.965 . S
Zn601 O617 2.024 . S
C602 O603 1.229 . S
C602 O611 1.058 . S
O603 C602 1.229 . S
C604 O605 1.229 . S
C604 O617 1.058 . S
O605 C604 1.229 . S
O606 Zn600 1.969 . S
O606 C609 1.267 . S
O607 Zn600 1.965 . S
O607 C618 1.260 . S
O608 Zn601 1.969 . S
O608 C618 1.258 . S
C609 O606 1.267 . S
C609 O610 1.228 . S
O610 C609 1.228 . S
O611 Zn600 2.024 . S
O611 C602 1.058 . S
C612 O613 1.228 . S
C612 O614 1.267 . S
O613 C612 1.228 . S
O614 Zn601 1.969 . S
O614 C612 1.267 . S
O615 Zn601 1.965 . S
O615 C619 1.260 . S
O616 Zn600 1.969 . S
O616 C619 1.258 . S
O617 Zn601 2.024 . S
O617 C604 1.058 . S
C618 O607 1.260 . S
C618 O608 1.258 . S
C619 O615 1.260 . S
C619 O616 1.258 . S
Zn620 O626 1.969 . S
Zn620 O627 1.965 . S
Zn620 O631 2.024 . S
Zn620 O636 1.969 . S
Zn621 O628 1.969 . S
Zn621 O634 1.969 . S
Zn621 O635 1.965 . S
Zn621 O637 2.024 . S
C622 O623 1.229 . S
C622 O631 1.058 . S
O623 C622 1.229 . S
C624 O625 1.229 . S
C624 O637 1.058 . S
O625 C624 1.229 . S
O626 Zn620 1.969 . S
O626 C629 1.267 . S
O627 Zn620 1.965 . S
O627 C638 1.260 . S
O628 Zn621 1.969 . S
O628 C638 1.258 . S
C629 O626 1.267 . S
C629 O630 1.228 . S
O630 C629 1.228 . S
O631 Zn620 2.024 . S
O631 C622 1.058 . S
C632 O633 1.228 . S
C632 O634 1.267 . S
O633 C632 1.228 . S
O634 Zn621 1.969 . S
O634 C632 1.267 . S
O635 Zn621 1.965 . S
O635 C639 1.260 . S
O636 Zn620 1.969 . S
O636 C639 1.258 . S
O637 Zn621 2.024 . S
O637 C624 1.058 . S
C638 O627 1.260 . S
C638 O628 1.258 . S
C639 O635 1.260 . S
C639 O636 1.258 . S
C640 C641 1.387 . S
C640 H644 0.950 . S
C640 C649 1.390 . S
C641 C640 1.387 . S
C641 C643 1.387 . S
H642 C649 0.950 . S
C643 C641 1.387 . S
C643 C645 1.390 . S
C643 H647 0.950 . S
H644 C640 0.950 . S
C645 C643 1.390 . S
C645 C646 1.387 . S
C645 H648 0.950 . S
C646 C645 1.387 . S
C646 C649 1.387 . S
H647 C643 0.950 . S
H648 C645 0.950 . S
C649 C640 1.390 . S
C649 H642 0.950 . S
C649 C646 1.387 . S
C650 C651 1.387 . S
C650 H654 0.950 . S
C650 C659 1.390 . S
C651 C650 1.387 . S
C651 C653 1.387 . S
H652 C659 0.950 . S
C653 C651 1.387 . S
C653 C655 1.390 . S
C653 H657 0.950 . S
H654 C650 0.950 . S
C655 C653 1.390 . S
C655 C656 1.387 . S
C655 H658 0.950 . S
C656 C655 1.387 . S
C656 C659 1.387 . S
H657 C653 0.950 . S
H658 C655 0.950 . S
C659 C650 1.390 . S
C659 H652 0.950 . S
C659 C656 1.387 . S
C660 C661 1.387 . S
C660 H664 0.950 . S
C660 C669 1.390 . S
C661 C660 1.387 . S
C661 C663 1.387 . S
H662 C669 0.950 . S
C663 C661 1.387 . S
C663 C665 1.390 . S
C663 H667 0.950 . S
H664 C660 0.950 . S
C665 C663 1.390 . S
C665 C666 1.387 . S
C665 H668 0.950 . S
C666 C665 1.387 . S
C666 C669 1.387 . S
H667 C663 0.950 . S
H668 C665 0.950 . S
C669 C660 1.390 . S
C669 H662 0.950 . S
C669 C666 1.387 . S
C670 C671 1.387 . S
C670 H674 0.950 . S
C670 C679 1.390 . S
C671 C670 1.387 . S
C671 C673 1.387 . S
H672 C679 0.950 . S
C673 C671 1.387 . S
C673 C675 1.390 . S
C673 H677 0.950 . S
H674 C670 0.950 . S
C675 C673 1.390 . S
C675 C676 1.387 . S
C675 H678 0.950 . S
C676 C675 1.387 . S
C676 C679 1.387 . S
H677 C673 0.950 . S
H678 C675 0.950 . S
C679 C670 1.390 . S
C679 H672 0.950 . S
C679 C676 1.387 . S
C680 C681 1.387 . S
C680 H684 0.950 . S
C680 C689 1.390 . S
C681 C680 1.387 . S
C681 C683 1.387 . S
H682 C689 0.950 . S
C683 C681 1.387 . S
C683 C685 1.390 . S
C683 H687 0.950 . S
H684 C680 0.950 . S
C685 C683 1.390 . S
C685 C686 1.387 . S
C685 H688 0.950 . S
C686 C685 1.387 . S
C686 C689 1.387 . S
H687 C683 0.950 . S
H688 C685 0.950 . S
C689 C680 1.390 . S
C689 H682 0.950 . S
C689 C686 1.387 . S
C690 C691 1.387 . S
C690 H694 0.950 . S
C690 C699 1.390 . S
C691 C690 1.387 . S
C691 C693 1.387 . S
H692 C699 0.950 . S
C693 C691 1.387 . S
C693 C695 1.390 . S
C693 H697 0.950 . S
H694 C690 0.950 . S
C695 C693 1.390 . S
C695 C696 1.387 . S
C695 H698 0.950 . S
C696 C695 1.387 . S
C696 C699 1.387 . S
H697 C693 0.950 . S
H698 C695 0.950 . S
C699 C690 1.390 . S
C699 H692 0.950 . S
C699 C696 1.387 . S
C700 C701 1.387 . S
C700 H704 0.950 . S
C700 C709 1.390 . S
C701 C700 1.387 . S
C701 C703 1.387 . S
H702 C709 0.950 . S
C703 C701 1.387 . S
C703 C705 1.390 . S
C703 H707 0.950 . S
H704 C700 0.950 . S
C705 C703 1.390 . S
C705 C706 1.387 . S
C705 H708 0.950 . S
C706 C705 1.387 . S
C706 C709 1.387 . S
H707 C703 0.950 . S
H708 C705 0.950 . S
C709 C700 1.390 . S
C709 H702 0.950 . S
C709 C706 1.387 . S
C710 C711 1.387 . S
C710 H714 0.950 . S
C710 C719 1.390 . S
C711 C710 1.387 . S
C711 C713 1.387 . S
H712 C719 0.950 . S
C713 C711 1.387 . S
C713 C715 1.390 . S
C713 H717 0.950 . S
H714 C710 0.950 . S
C715 C713 1.390 . S
C715 C716 1.387 . S
C715 H718 0.950 . S
C716 C715 1.387 . S
C716 C719 1.387 . S
H717 C713 0.950 . S
H718 C715 0.950 . S
C719 C710 1.390 . S
C719 H712 0.950 . S
C719 C716 1.387 . S
C720 C721 1.387 . S
C720 H724 0.950 . S
C720 C729 1.390 . S
C721 C720 1.387 . S
C721 C723 1.387 . S
H722 C729 0.950 . S
C723 C721 1.387 . S
C723 C725 1.390 . S
C723 H727 0.950 . S
H724 C720 0.950 . S
C725 C723 1.390 . S
C725 C726 1.387 . S
C725 H728 0.950 . S
C726 C725 1.387 . S
C726 C729 1.387 . S
H727 C723 0.950 . S
H728 C725 0.950 . S
C729 C720 1.390 . S
C729 H722 0.950 . S
C729 C726 1.387 . S
C730 C731 1.387 . S
C730 H734 0.950 . S
C730 C739 1.390 . S
C731 C730 1.387 . S
C731 C733 1.387 . S
H732 C739 0.950 . S
C733 C731 1.387 . S
C733 C735 1.390 . S
C733 H737 0.950 . S
H734 C730 0.950 . S
C735 C733 1.390 . S
C735 C736 1.387 . S
C735 H738 0.950 . S
C736 C735 1.387 . S
C736 C739 1.387 . S
H737 C733 0.950 . S
H738 C735 0.950 . S
C739 C730 1.390 . S
C739 H732 0.950 . S
C739 C736 1.387 . S
C740 C741 1.387 . S
C740 H744 0.950 . S
C740 C749 1.390 . S
C741 C740 1.387 . S
C741 C743 1.387 . S
H742 C749 0.950 . S
C743 C741 1.387 . S
C743 C745 1.390 . S
C743 H747 0.950 . S
H744 C740 0.950 . S
C745 C743 1.390 . S
C745 C746 1.387 . S
C745 H748 0.950 . S
C746 C745 1.387 . S
C746 C749 1.387 . S
H747 C743 0.950 . S
H748 C745 0.950 . S
C749 C740 1.390 . S
C749 H742 0.950 . S
C749 C746 1.387 . S
C750 C751 1.387 . S
C750 H754 0.950 . S
C750 C759 1.390 . S
C751 C750 1.387 . S
C751 C753 1.387 . S
H752 C759 0.950 . S
C753 C751 1.387 . S
C753 C755 1.390 . S
C753 H757 0.950 . S
H754 C750 0.950 . S
C755 C753 1.390 . S
C755 C756 1.387 . S
C755 H758 0.950 . S
C756 C755 1.387 . S
C756 C759 1.387 . S
H757 C753 0.950 . S
H758 C755 0.950 . S
C759 C750 1.390 . S
C759 H752 0.950 . S
C759 C756 1.387 . S
C760 C761 1.387 . S
C760 H764 0.950 . S
C760 C769 1.390 . S
C761 C760 1.387 . S
C761 C763 1.387 . S
H762 C769 0.950 . S
C763 C761 1.387 . S
C763 C765 1.390 . S
C763 H767 0.950 . S
H764 C760 0.950 . S
C765 C763 1.390 . S
C765 C766 1.387 . S
C765 H768 0.950 . S
C766 C765 1.387 . S
C766 C769 1.387 . S
H767 C763 0.950 . S
H768 C765 0.950 . S
C769 C760 1.390 . S
C769 H762 0.950 . S
C769 C766 1.387 . S
C770 C771 1.387 . S
C770 H774 0.950 . S
C770 C779 1.390 . S
C771 C770 1.387 . S
C771 C773 1.387 . S
H772 C779 0.950 . S
C773 C771 1.387 . S
C773 C775 1.390 . S
C773 H777 0.950 . S
H774 C770 0.950 . S
C775 C773 1.390 . S
C775 C776 1.387 . S
C775 H778 0.950 . S
C776 C775 1.387 . S
C776 C779 1.387 . S
H777 C773 0.950 . S
H778 C775 0.950 . S
C779 C770 1.390 . S
C779 H772 0.950 . S
C779 C776 1.387 . S
C780 C781 1.387 . S
C780 H784 0.950 . S
C780 C789 1.390 . S
C781 C780 1.387 . S
C781 C783 1.387 . S
H782 C789 0.950 . S
C783 C781 1.387 . S
C783 C785 1.390 . S
C783 H787 0.950 . S
H784 C780 0.950 . S
C785 C783 1.390 . S
C785 C786 1.387 . S
C785 H788 0.950 . S
C786 C785 1.387 . S
C786 C789 1.387 . S
H787 C783 0.950 . S
H788 C785 0.950 . S
C789 C780 1.390 . S
C789 H782 0.950 . S
C789 C786 1.387 . S
C790 C791 1.387 . S
C790 H794 0.950 . S
C790 C799 1.390 . S
C791 C790 1.387 . S
C791 C793 1.387 . S
H792 C799 0.950 . S
C793 C791 1.387 . S
C793 C795 1.390 . S
C793 H797 0.950 . S
H794 C790 0.950 . S
C795 C793 1.390 . S
C795 C796 1.387 . S
C795 H798 0.950 . S
C796 C795 1.387 . S
C796 C799 1.387 . S
H797 C793 0.950 . S
H798 C795 0.950 . S
C799 C790 1.390 . S
C799 H792 0.950 . S
C799 C796 1.387 . S
C800 C801 1.387 1_545 S
C800 H804 0.950 . S
C800 C809 1.390 . S
C801 C800 1.387 1_565 S
C801 C803 1.387 . S
H802 C809 0.950 . S
C803 C801 1.387 . S
C803 C805 1.390 . S
C803 H807 0.950 . S
H804 C800 0.950 . S
C805 C803 1.390 . S
C805 C806 1.387 1_565 S
C805 H808 0.950 . S
C806 C805 1.387 1_545 S
C806 C809 1.387 . S
H807 C803 0.950 . S
H808 C805 0.950 . S
C809 C800 1.390 . S
C809 H802 0.950 . S
C809 C806 1.387 . S
C810 C811 1.387 . S
C810 H814 0.950 . S
C810 C819 1.390 1_455 S
C811 C810 1.387 . S
C811 C813 1.387 . S
H812 C819 0.950 . S
C813 C811 1.387 . S
C813 C815 1.390 1_455 S
C813 H817 0.950 . S
H814 C810 0.950 . S
C815 C813 1.390 1_655 S
C815 C816 1.387 . S
C815 H818 0.950 . S
C816 C815 1.387 . S
C816 C819 1.387 . S
H817 C813 0.950 . S
H818 C815 0.950 . S
C819 C810 1.390 1_655 S
C819 H812 0.950 . S
C819 C816 1.387 . S
C820 C821 1.387 . S
C820 H824 0.950 . S
C820 C829 1.390 1_556 S
C821 C820 1.387 . S
C821 C823 1.387 . S
H822 C829 0.950 . S
C823 C821 1.387 . S
C823 C825 1.390 1_556 S
C823 H827 0.950 . S
H824 C820 0.950 . S
C825 C823 1.390 1_554 S
C825 C826 1.387 . S
C825 H828 0.950 . S
C826 C825 1.387 . S
C826 C829 1.387 . S
H827 C823 0.950 . S
H828 C825 0.950 . S
C829 C820 1.390 1_554 S
C829 H822 0.950 . S
C829 C826 1.387 . S
C830 C831 1.387 . S
C830 H834 0.950 . S
C830 C839 1.390 1_654 S
C831 C830 1.387 . S
C831 C833 1.387 1_565 S
H832 C839 0.950 . S
C833 C831 1.387 1_545 S
C833 C835 1.390 1_654 S
C833 H837 0.950 . S
H834 C830 0.950 . S
C835 C833 1.390 1_456 S
C835 C836 1.387 . S
C835 H838 0.950 . S
C836 C835 1.387 . S
C836 C839 1.387 1_545 S
H837 C833 0.950 . S
H838 C835 0.950 . S
C839 C830 1.390 1_456 S
C839 H832 0.950 . S
C839 C836 1.387 1_565 S
C840 C841 1.387 1_565 S
C840 H844 0.950 . S
C840 C849 1.390 . S
C841 C840 1.387 1_545 S
C841 C843 1.387 . S
H842 C849 0.950 . S
C843 C841 1.387 . S
C843 C845 1.390 . S
C843 H847 0.950 . S
H844 C840 0.950 . S
C845 C843 1.390 . S
C845 C846 1.387 1_545 S
C845 H848 0.950 . S
C846 C845 1.387 1_565 S
C846 C849 1.387 . S
H847 C843 0.950 . S
H848 C845 0.950 . S
C849 C840 1.390 . S
C849 H842 0.950 . S
C849 C846 1.387 . S
C850 C851 1.387 . S
C850 H854 0.950 . S
C850 C859 1.390 1_455 S
C851 C850 1.387 . S
C851 C853 1.387 . S
H852 C859 0.950 . S
C853 C851 1.387 . S
C853 C855 1.390 1_455 S
C853 H857 0.950 . S
H854 C850 0.950 . S
C855 C853 1.390 1_655 S
C855 C856 1.387 . S
C855 H858 0.950 . S
C856 C855 1.387 . S
C856 C859 1.387 . S
H857 C853 0.950 . S
H858 C855 0.950 . S
C859 C850 1.390 1_655 S
C859 H852 0.950 . S
C859 C856 1.387 . S
C860 C861 1.387 . S
C860 H864 0.950 . S
C860 C869 1.390 1_556 S
C861 C860 1.387 . S
C861 C863 1.387 . S
H862 C869 0.950 . S
C863 C861 1.387 . S
C863 C865 1.390 1_556 S
C863 H867 0.950 . S
H864 C860 0.950 . S
C865 C863 1.390 1_554 S
C865 C866 1.387 . S
C865 H868 0.950 . S
C866 C865 1.387 . S
C866 C869 1.387 . S
H867 C863 0.950 . S
H868 C865 0.950 . S
C869 C860 1.390 1_554 S
C869 H862 0.950 . S
C869 C866 1.387 . S
C870 C871 1.387 . S
C870 H874 0.950 . S
C870 C879 1.390 . S
C871 C870 1.387 . S
C871 C873 1.387 . S
H872 C879 0.950 . S
C873 C871 1.387 . S
C873 C875 1.390 . S
C873 H877 0.950 . S
H874 C870 0.950 . S
C875 C873 1.390 . S
C875 C876 1.387 . S
C875 H878 0.950 . S
C876 C875 1.387 . S
C876 C879 1.387 . S
H877 C873 0.950 . S
H878 C875 0.950 . S
C879 C870 1.390 . S
C879 H872 0.950 . S
C879 C876 1.387 . S
C880 C881 1.387 . S
C880 H884 0.950 . S
C880 C889 1.390 . S
C881 C880 1.387 . S
C881 C883 1.387 . S
H882 C889 0.950 . S
C883 C881 1.387 . S
C883 C885 1.390 . S
C883 H887 0.950 . S
H884 C880 0.950 . S
C885 C883 1.390 . S
C885 C886 1.387 . S
C885 H888 0.950 . S
C886 C885 1.387 . S
C886 C889 1.387 . S
H887 C883 0.950 . S
H888 C885 0.950 . S
C889 C880 1.390 . S
C889 H882 0.950 . S
C889 C886 1.387 . S
C890 C891 1.387 . S
C890 H894 0.950 . S
C890 C899 1.390 . S
C891 C890 1.387 . S
C891 C893 1.387 1_455 S
H892 C899 0.950 . S
C893 C891 1.387 1_655 S
C893 C895 1.390 . S
C893 H897 0.950 . S
H894 C890 0.950 . S
C895 C893 1.390 . S
C895 C896 1.387 . S
C895 H898 0.950 . S
C896 C895 1.387 . S
C896 C899 1.387 1_655 S
H897 C893 0.950 . S
H898 C895 0.950 . S
C899 C890 1.390 . S
C899 H892 0.950 . S
C899 C896 1.387 1_455 S
C900 C901 1.387 . S
C900 H904 0.950 . S
C900 C909 1.390 . S
C901 C900 1.387 . S
C901 C903 1.387 . S
H902 C909 0.950 . S
C903 C901 1.387 . S
C903 C905 1.390 . S
C903 H907 0.950 . S
H904 C900 0.950 . S
C905 C903 1.390 . S
C905 C906 1.387 . S
C905 H908 0.950 . S
C906 C905 1.387 . S
C906 C909 1.387 . S
H907 C903 0.950 . S
H908 C905 0.950 . S
C909 C900 1.390 . S
C909 H902 0.950 . S
C909 C906 1.387 . S
C910 C911 1.387 . S
C910 H914 0.950 . S
C910 C919 1.390 . S
C911 C910 1.387 . S
C911 C913 1.387 . S
H912 C919 0.950 . S
C913 C911 1.387 . S
C913 C915 1.390 . S
C913 H917 0.950 . S
H914 C910 0.950 . S
C915 C913 1.390 . S
C915 C916 1.387 . S
C915 H918 0.950 . S
C916 C915 1.387 . S
C916 C919 1.387 . S
H917 C913 0.950 . S
H918 C915 0.950 . S
C919 C910 1.390 . S
C919 H912 0.950 . S
C919 C916 1.387 . S
C920 C921 1.387 . S
C920 H924 0.950 . S
C920 C929 1.390 . S
C921 C920 1.387 . S
C921 C923 1.387 . S
H922 C929 0.950 . S
C923 C921 1.387 . S
C923 C925 1.390 . S
C923 H927 0.950 . S
H924 C920 0.950 . S
C925 C923 1.390 . S
C925 C926 1.387 . S
C925 H928 0.950 . S
C926 C925 1.387 . S
C926 C929 1.387 . S
H927 C923 0.950 . S
H928 C925 0.950 . S
C929 C920 1.390 . S
C929 H922 0.950 . S
C929 C926 1.387 . S
C930 C931 1.387 . S
C930 H934 0.950 . S
C930 C939 1.390 . S
C931 C930 1.387 . S
C931 C933 1.387 1_565 S
H932 C939 0.950 . S
C933 C931 1.387 1_545 S
C933 C935 1.390 . S
C933 H937 0.950 . S
H934 C930 0.950 . S
C935 C933 1.390 . S
C935 C936 1.387 . S
C935 H938 0.950 . S
C936 C935 1.387 . S
C936 C939 1.387 1_545 S
H937 C933 0.950 . S
H938 C935 0.950 . S
C939 C930 1.390 . S
C939 H932 0.950 . S
C939 C936 1.387 1_565 S
C940 C941 1.387 . S
C940 H944 0.950 . S
C940 C949 1.390 . S
C941 C940 1.387 . S
C941 C943 1.387 . S
H942 C949 0.950 . S
C943 C941 1.387 . S
C943 C945 1.390 . S
C943 H947 0.950 . S
H944 C940 0.950 . S
C945 C943 1.390 . S
C945 C946 1.387 . S
C945 H948 0.950 . S
C946 C945 1.387 . S
C946 C949 1.387 . S
H947 C943 0.950 . S
H948 C945 0.950 . S
C949 C940 1.390 . S
C949 H942 0.950 . S
C949 C946 1.387 . S
C950 C951 1.387 . S
C950 H954 0.950 . S
C950 C959 1.390 1_554 S
C951 C950 1.387 . S
C951 C953 1.387 . S
H952 C959 0.950 . S
C953 C951 1.387 . S
C953 C955 1.390 1_554 S
C953 H957 0.950 . S
H954 C950 0.950 . S
C955 C953 1.390 1_556 S
C955 C956 1.387 . S
C955 H958 0.950 . S
C956 C955 1.387 . S
C956 C959 1.387 . S
H957 C953 0.950 . S
H958 C955 0.950 . S
C959 C950 1.390 1_556 S
C959 H952 0.950 . S
C959 C956 1.387 . S
C960 C961 1.387 1_565 S
C960 H964 0.950 . S
C960 C969 1.390 . S
C961 C960 1.387 1_545 S
C961 C963 1.387 . S
H962 C969 0.950 . S
C963 C961 1.387 . S
C963 C965 1.390 . S
C963 H967 0.950 . S
H964 C960 0.950 . S
C965 C963 1.390 . S
C965 C966 1.387 . S
C965 H968 0.950 . S
C966 C965 1.387 . S
C966 C969 1.387 1_545 S
H967 C963 0.950 . S
H968 C965 0.950 . S
C969 C960 1.390 . S
C969 H962 0.950 . S
C969 C966 1.387 1_565 S
C970 C971 1.387 . S
C970 H974 0.950 . S
C970 C979 1.390 . S
C971 C970 1.387 . S
C971 C973 1.387 . S
H972 C979 0.950 . S
C973 C971 1.387 . S
C973 C975 1.390 . S
C973 H977 0.950 . S
H974 C970 0.950 . S
C975 C973 1.390 . S
C975 C976 1.387 . S
C975 H978 0.950 . S
C976 C975 1.387 . S
C976 C979 1.387 . S
H977 C973 0.950 . S
H978 C975 0.950 . S
C979 C970 1.390 . S
C979 H972 0.950 . S
C979 C976 1.387 . S
C980 C981 1.387 . S
C980 H984 0.950 . S
C980 C989 1.390 . S
C981 C980 1.387 . S
C981 C983 1.387 . S
H982 C989 0.950 . S
C983 C981 1.387 . S
C983 C985 1.390 . S
C983 H987 0.950 . S
H984 C980 0.950 . S
C985 C983 1.390 . S
C985 C986 1.387 . S
C985 H988 0.950 . S
C986 C985 1.387 . S
C986 C989 1.387 . S
H987 C983 0.950 . S
H988 C985 0.950 . S
C989 C980 1.390 . S
C989 H982 0.950 . S
C989 C986 1.387 . S
C990 C991 1.387 . S
C990 H994 0.950 . S
C990 C999 1.390 . S
C991 C990 1.387 . S
C991 C993 1.387 1_545 S
H992 C999 0.950 . S
C993 C991 1.387 1_565 S
C993 C995 1.390 . S
C993 H997 0.950 . S
H994 C990 0.950 . S
C995 C993 1.390 . S
C995 C996 1.387 1_565 S
C995 H998 0.950 . S
C996 C995 1.387 1_545 S
C996 C999 1.387 . S
H997 C993 0.950 . S
H998 C995 0.950 . S
C999 C990 1.390 . S
C999 H992 0.950 . S
C999 C996 1.387 . S
C1000 C1001 1.387 . S
C1000 H1004 0.950 . S
C1000 C1009 1.390 . S
C1001 C1000 1.387 . S
C1001 C1003 1.387 1_565 S
H1002 C1009 0.950 . S
C1003 C1001 1.387 1_545 S
C1003 C1005 1.390 . S
C1003 H1007 0.950 . S
H1004 C1000 0.950 . S
C1005 C1003 1.390 . S
C1005 C1006 1.387 1_545 S
C1005 H1008 0.950 . S
C1006 C1005 1.387 1_565 S
C1006 C1009 1.387 . S
H1007 C1003 0.950 . S
H1008 C1005 0.950 . S
C1009 C1000 1.390 . S
C1009 H1002 0.950 . S
C1009 C1006 1.387 . S
C1010 C1011 1.387 . S
C1010 H1014 0.950 . S
C1010 C1019 1.390 . S
C1011 C1010 1.387 . S
C1011 C1013 1.387 . S
H1012 C1019 0.950 . S
C1013 C1011 1.387 . S
C1013 C1015 1.390 . S
C1013 H1017 0.950 . S
H1014 C1010 0.950 . S
C1015 C1013 1.390 . S
C1015 C1016 1.387 . S
C1015 H1018 0.950 . S
C1016 C1015 1.387 . S
C1016 C1019 1.387 . S
H1017 C1013 0.950 . S
H1018 C1015 0.950 . S
C1019 C1010 1.390 . S
C1019 H1012 0.950 . S
C1019 C1016 1.387 . S
C1020 C1021 1.387 . S
C1020 H1024 0.950 . S
C1020 C1029 1.390 . S
C1021 C1020 1.387 . S
C1021 C1023 1.387 . S
H1022 C1029 0.950 . S
C1023 C1021 1.387 . S
C1023 C1025 1.390 . S
C1023 H1027 0.950 . S
H1024 C1020 0.950 . S
C1025 C1023 1.390 . S
C1025 C1026 1.387 . S
C1025 H1028 0.950 . S
C1026 C1025 1.387 . S
C1026 C1029 1.387 . S
H1027 C1023 0.950 . S
H1028 C1025 0.950 . S
C1029 C1020 1.390 . S
C1029 H1022 0.950 . S
C1029 C1026 1.387 . S
C1030 C1031 1.387 1_545 S
C1030 H1034 0.950 . S
C1030 C1039 1.390 . S
C1031 C1030 1.387 1_565 S
C1031 C1033 1.387 . S
H1032 C1039 0.950 . S
C1033 C1031 1.387 . S
C1033 C1035 1.390 . S
C1033 H1037 0.950 . S
H1034 C1030 0.950 . S
C1035 C1033 1.390 . S
C1035 C1036 1.387 . S
C1035 H1038 0.950 . S
C1036 C1035 1.387 . S
C1036 C1039 1.387 1_565 S
H1037 C1033 0.950 . S
H1038 C1035 0.950 . S
C1039 C1030 1.390 . S
C1039 H1032 0.950 . S
C1039 C1036 1.387 1_545 S
C1040 C1041 1.387 . S
C1040 H1044 0.950 . S
C1040 C1049 1.390 . S
C1041 C1040 1.387 . S
C1041 C1043 1.387 . S
H1042 C1049 0.950 . S
C1043 C1041 1.387 . S
C1043 C1045 1.390 . S
C1043 H1047 0.950 . S
H1044 C1040 0.950 . S
C1045 C1043 1.390 . S
C1045 C1046 1.387 . S
C1045 H1048 0.950 . S
C1046 C1045 1.387 . S
C1046 C1049 1.387 . S
H1047 C1043 0.950 . S
H1048 C1045 0.950 . S
C1049 C1040 1.390 . S
C1049 H1042 0.950 . S
C1049 C1046 1.387 . S
C1050 C1051 1.387 . S
C1050 H1054 0.950 . S
C1050 C1059 1.390 . S
C1051 C1050 1.387 . S
C1051 C1053 1.387 . S
H1052 C1059 0.950 . S
C1053 C1051 1.387 . S
C1053 C1055 1.390 . S
C1053 H1057 0.950 . S
H1054 C1050 0.950 . S
C1055 C1053 1.390 . S
C1055 C1056 1.387 . S
C1055 H1058 0.950 . S
C1056 C1055 1.387 . S
C1056 C1059 1.387 . S
H1057 C1053 0.950 . S
H1058 C1055 0.950 . S
C1059 C1050 1.390 . S
C1059 H1052 0.950 . S
C1059 C1056 1.387 . S
C1060 C1061 1.387 . S
C1060 H1064 0.950 . S
C1060 C1069 1.390 . S
C1061 C1060 1.387 . S
C1061 C1063 1.387 . S
H1062 C1069 0.950 . S
C1063 C1061 1.387 . S
C1063 C1065 1.390 . S
C1063 H1067 0.950 . S
H1064 C1060 0.950 . S
C1065 C1063 1.390 . S
C1065 C1066 1.387 . S
C1065 H1068 0.950 . S
C1066 C1065 1.387 . S
C1066 C1069 1.387 . S
H1067 C1063 0.950 . S
H1068 C1065 0.950 . S
C1069 C1060 1.390 . S
C1069 H1062 0.950 . S
C1069 C1066 1.387 . S
C1070 C1071 1.387 . S
C1070 H1074 0.950 . S
C1070 C1079 1.390 . S
C1071 C1070 1.387 . S
C1071 C1073 1.387 . S
H1072 C1079 0.950 . S
C1073 C1071 1.387 . S
C1073 C1075 1.390 . S
C1073 H1077 0.950 . S
H1074 C1070 0.950 . S
C1075 C1073 1.390 . S
C1075 C1076 1.387 . S
C1075 H1078 0.950 . S
C1076 C1075 1.387 . S
C1076 C1079 1.387 . S
H1077 C1073 0.950 . S
H1078 C1075 0.950 . S
C1079 C1070 1.390 . S
C1079 H1072 0.950 . S
C1079 C1076 1.387 . S
C1080 C1081 1.387 . S
C1080 H1084 0.950 . S
C1080 C1089 1.390 . S
C1081 C1080 1.387 . S
C1081 C1083 1.387 . S
H1082 C1089 0.950 . S
C1083 C1081 1.387 . S
C1083 C1085 1.390 . S
C1083 H1087 0.950 . S
H1084 C1080 0.950 . S
C1085 C1083 1.390 . S
C1085 C1086 1.387 . S
C1085 H1088 0.950 . S
C1086 C1085 1.387 . S
C1086 C1089 1.387 . S
H1087 C1083 0.950 . S
H1088 C1085 0.950 . S
C1089 C1080 1.390 . S
C1089 H1082 0.950 . S
C1089 C1086 1.387 . S
C1090 C1091 1.387 . S
C1090 H1094 0.950 . S
C1090 C1099 1.390 . S
C1091 C1090 1.387 . S
C1091 C1093 1.387 . S
H1092 C1099 0.950 . S
C1093 C1091 1.387 . S
C1093 C1095 1.390 . S
C1093 H1097 0.950 . S
H1094 C1090 0.950 . S
C1095 C1093 1.390 . S
C1095 C1096 1.387 . S
C1095 H1098 0.950 . S
C1096 C1095 1.387 . S
C1096 C1099 1.387 . S
H1097 C1093 0.950 . S
H1098 C1095 0.950 . S
C1099 C1090 1.390 . S
C1099 H1092 0.950 . S
C1099 C1096 1.387 . S
C1100 C1101 1.387 . S
C1100 H1104 0.950 . S
C1100 C1109 1.390 . S
C1101 C1100 1.387 . S
C1101 C1103 1.387 . S
H1102 C1109 0.950 . S
C1103 C1101 1.387 . S
C1103 C1105 1.390 . S
C1103 H1107 0.950 . S
H1104 C1100 0.950 . S
C1105 C1103 1.390 . S
C1105 C1106 1.387 . S
C1105 H1108 0.950 . S
C1106 C1105 1.387 . S
C1106 C1109 1.387 . S
H1107 C1103 0.950 . S
H1108 C1105 0.950 . S
C1109 C1100 1.390 . S
C1109 H1102 0.950 . S
C1109 C1106 1.387 . S
C1110 C1111 1.387 . S
C1110 H1114 0.950 . S
C1110 C1119 1.390 . S
C1111 C1110 1.387 . S
C1111 C1113 1.387 . S
H1112 C1119 0.950 . S
C1113 C1111 1.387 . S
C1113 C1115 1.390 . S
C1113 H1117 0.950 . S
H1114 C1110 0.950 . S
C1115 C1113 1.390 . S
C1115 C1116 1.387 . S
C1115 H1118 0.950 . S
C1116 C1115 1.387 . S
C1116 C1119 1.387 . S
H1117 C1113 0.950 . S
H1118 C1115 0.950 . S
C1119 C1110 1.390 . S
C1119 H1112 0.950 . S
C1119 C1116 1.387 . S
C1120 C1121 1.387 . S
C1120 H1124 0.950 . S
C1120 C1129 1.390 . S
C1121 C1120 1.387 . S
C1121 C1123 1.387 . S
H1122 C1129 0.950 . S
C1123 C1121 1.387 . S
C1123 C1125 1.390 . S
C1123 H1127 0.950 . S
H1124 C1120 0.950 . S
C1125 C1123 1.390 . S
C1125 C1126 1.387 . S
C1125 H1128 0.950 . S
C1126 C1125 1.387 . S
C1126 C1129 1.387 . S
H1127 C1123 0.950 . S
H1128 C1125 0.950 . S
C1129 C1120 1.390 . S
C1129 H1122 0.950 . S
C1129 C1126 1.387 . S
C1130 C1131 1.387 . S
C1130 H1134 0.950 . S
C1130 C1139 1.390 . S
C1131 C1130 1.387 . S
C1131 C1133 1.387 . S
H1132 C1139 0.950 . S
C1133 C1131 1.387 . S
C1133 C1135 1.390 . S
C1133 H1137 0.950 . S
H1134 C1130 0.950 . S
C1135 C1133 1.390 . S
C1135 C1136 1.387 . S
C1135 H1138 0.950 . S
C1136 C1135 1.387 . S
C1136 C1139 1.387 . S
H1137 C1133 0.950 . S
H1138 C1135 0.950 . S
C1139 C1130 1.390 . S
C1139 H1132 0.950 . S
C1139 C1136 1.387 . S
C1140 C1141 1.387 . S
C1140 H1144 0.950 . S
C1140 C1149 1.390 . S
C1141 C1140 1.387 . S
C1141 C1143 1.387 . S
H1142 C1149 0.950 . S
C1143 C1141 1.387 . S
C1143 C1145 1.390 . S
C1143 H1147 0.950 . S
H1144 C1140 0.950 . S
C1145 C1143 1.390 . S
C1145 C1146 1.387 . S
C1145 H1148 0.950 . S
C1146 C1145 1.387 . S
C1146 C1149 1.387 . S
H1147 C1143 0.950 . S
H1148 C1145 0.950 . S
C1149 C1140 1.390 . S
C1149 H1142 0.950 . S
C1149 C1146 1.387 . S
C1150 C1151 1.387 . S
C1150 H1154 0.950 . S
C1150 C1159 1.390 . S
C1151 C1150 1.387 . S
C1151 C1153 1.387 . S
H1152 C1159 0.950 . S
C1153 C1151 1.387 . S
C1153 C1155 1.390 . S
C1153 H1157 0.950 . S
H1154 C1150 0.950 . S
C1155 C1153 1.390 . S
C1155 C1156 1.387 . S
C1155 H1158 0.950 . S
C1156 C1155 1.387 . S
C1156 C1159 1.387 . S
H1157 C1153 0.950 . S
H1158 C1155 0.950 . S
C1159 C1150 1.390 . S
C1159 H1152 0.950 . S
C1159 C1156 1.387 . S
C1160 C1161 1.387 . S
C1160 H1164 0.950 . S
C1160 C1169 1.390 . S
C1161 C1160 1.387 . S
C1161 C1163 1.387 . S
H1162 C1169 0.950 . S
C1163 C1161 1.387 . S
C1163 C1165 1.390 . S
C1163 H1167 0.950 . S
H1164 C1160 0.950 . S
C1165 C1163 1.390 . S
C1165 C1166 1.387 . S
C1165 H1168 0.950 . S
C1166 C1165 1.387 . S
C1166 C1169 1.387 . S
H1167 C1163 0.950 . S
H1168 C1165 0.950 . S
C1169 C1160 1.390 . S
C1169 H1162 0.950 . S
C1169 C1166 1.387 . S
C1170 C1171 1.387 . S
C1170 H1174 0.950 . S
C1170 C1179 1.390 . S
C1171 C1170 1.387 . S
C1171 C1173 1.387 . S
H1172 C1179 0.950 . S
C1173 C1171 1.387 . S
C1173 C1175 1.390 . S
C1173 H1177 0.950 . S
H1174 C1170 0.950 . S
C1175 C1173 1.390 . S
C1175 C1176 1.387 . S
C1175 H1178 0.950 . S
C1176 C1175 1.387 . S
C1176 C1179 1.387 . S
H1177 C1173 0.950 . S
H1178 C1175 0.950 . S
C1179 C1170 1.390 . S
C1179 H1172 0.950 . S
C1179 C1176 1.387 . S
C1180 C1181 1.387 . S
C1180 H1184 0.950 . S
C1180 C1189 1.390 . S
C1181 C1180 1.387 . S
C1181 C1183 1.387 . S
H1182 C1189 0.950 . S
C1183 C1181 1.387 . S
C1183 C1185 1.390 . S
C1183 H1187 0.950 . S
H1184 C1180 0.950 . S
C1185 C1183 1.390 . S
C1185 C1186 1.387 . S
C1185 H1188 0.950 . S
C1186 C1185 1.387 . S
C1186 C1189 1.387 . S
H1187 C1183 0.950 . S
H1188 C1185 0.950 . S
C1189 C1180 1.390 . S
C1189 H1182 0.950 . S
C1189 C1186 1.387 . S
C1190 C1191 1.387 . S
C1190 H1194 0.950 . S
C1190 C1199 1.390 . S
C1191 C1190 1.387 . S
C1191 C1193 1.387 . S
H1192 C1199 0.950 . S
C1193 C1191 1.387 . S
C1193 C1195 1.390 . S
C1193 H1197 0.950 . S
H1194 C1190 0.950 . S
C1195 C1193 1.390 . S
C1195 C1196 1.387 . S
C1195 H1198 0.950 . S
C1196 C1195 1.387 . S
C1196 C1199 1.387 . S
H1197 C1193 0.950 . S
H1198 C1195 0.950 . S
C1199 C1190 1.390 . S
C1199 H1192 0.950 . S
C1199 C1196 1.387 . S
C1200 C1201 1.387 . S
C1200 H1204 0.950 . S
C1200 C1209 1.390 . S
C1201 C1200 1.387 . S
C1201 C1203 1.387 . S
H1202 C1209 0.950 . S
C1203 C1201 1.387 . S
C1203 C1205 1.390 . S
C1203 H1207 0.950 . S
H1204 C1200 0.950 . S
C1205 C1203 1.390 . S
C1205 C1206 1.387 . S
C1205 H1208 0.950 . S
C1206 C1205 1.387 . S
C1206 C1209 1.387 . S
H1207 C1203 0.950 . S
H1208 C1205 0.950 . S
C1209 C1200 1.390 . S
C1209 H1202 0.950 . S
C1209 C1206 1.387 . S
C1210 C1211 1.387 . S
C1210 H1214 0.950 . S
C1210 C1219 1.390 . S
C1211 C1210 1.387 . S
C1211 C1213 1.387 . S
H1212 C1219 0.950 . S
C1213 C1211 1.387 . S
C1213 C1215 1.390 . S
C1213 H1217 0.950 . S
H1214 C1210 0.950 . S
C1215 C1213 1.390 . S
C1215 C1216 1.387 . S
C1215 H1218 0.950 . S
C1216 C1215 1.387 . S
C1216 C1219 1.387 . S
H1217 C1213 0.950 . S
H1218 C1215 0.950 . S
C1219 C1210 1.390 . S
C1219 H1212 0.950 . S
C1219 C1216 1.387 . S
C1220 C1221 1.387 . S
C1220 H1224 0.950 . S
C1220 C1229 1.390 . S
C1221 C1220 1.387 . S
C1221 C1223 1.387 . S
H1222 C1229 0.950 . S
C1223 C1221 1.387 . S
C1223 C1225 1.390 . S
C1223 H1227 0.950 . S
H1224 C1220 0.950 . S
C1225 C1223 1.390 . S
C1225 C1226 1.387 . S
C1225 H1228 0.950 . S
C1226 C1225 1.387 . S
C1226 C1229 1.387 . S
H1227 C1223 0.950 . S
H1228 C1225 0.950 . S
C1229 C1220 1.390 . S
C1229 H1222 0.950 . S
C1229 C1226 1.387 . S
C1230 C1231 1.387 . S
C1230 H1234 0.950 . S
C1230 C1239 1.390 . S
C1231 C1230 1.387 . S
C1231 C1233 1.387 . S
H1232 C1239 0.950 . S
C1233 C1231 1.387 . S
C1233 C1235 1.390 . S
C1233 H1237 0.950 . S
H1234 C1230 0.950 . S
C1235 C1233 1.390 . S
C1235 C1236 1.387 . S
C1235 H1238 0.950 . S
C1236 C1235 1.387 . S
C1236 C1239 1.387 . S
H1237 C1233 0.950 . S
H1238 C1235 0.950 . S
C1239 C1230 1.390 . S
C1239 H1232 0.950 . S
C1239 C1236 1.387 . S
C1240 C1241 1.387 . S
C1240 H1244 0.950 . S
C1240 C1249 1.390 . S
C1241 C1240 1.387 . S
C1241 C1243 1.387 . S
H1242 C1249 0.950 . S
C1243 C1241 1.387 . S
C1243 C1245 1.390 . S
C1243 H1247 0.950 . S
H1244 C1240 0.950 . S
C1245 C1243 1.390 . S
C1245 C1246 1.387 . S
C1245 H1248 0.950 . S
C1246 C1245 1.387 . S
C1246 C1249 1.387 . S
H1247 C1243 0.950 . S
H1248 C1245 0.950 . S
C1249 C1240 1.390 . S
C1249 H1242 0.950 . S
C1249 C1246 1.387 . S
C1250 C1251 1.387 . S
C1250 H1254 0.950 . S
C1250 C1259 1.390 . S
C1251 C1250 1.387 . S
C1251 C1253 1.387 . S
H1252 C1259 0.950 . S
C1253 C1251 1.387 . S
C1253 C1255 1.390 . S
C1253 H1257 0.950 . S
H1254 C1250 0.950 . S
C1255 C1253 1.390 . S
C1255 C1256 1.387 . S
C1255 H1258 0.950 . S
C1256 C1255 1.387 . S
C1256 C1259 1.387 . S
H1257 C1253 0.950 . S
H1258 C1255 0.950 . S
C1259 C1250 1.390 . S
C1259 H1252 0.950 . S
C1259 C1256 1.387 . S
C1260 C1261 1.387 . S
C1260 H1264 0.950 . S
C1260 C1269 1.390 . S
C1261 C1260 1.387 . S
C1261 C1263 1.387 . S
H1262 C1269 0.950 . S
C1263 C1261 1.387 . S
C1263 C1265 1.390 . S
C1263 H1267 0.950 . S
H1264 C1260 0.950 . S
C1265 C1263 1.390 . S
C1265 C1266 1.387 . S
C1265 H1268 0.950 . S
C1266 C1265 1.387 . S
C1266 C1269 1.387 . S
H1267 C1263 0.950 . S
H1268 C1265 0.950 . S
C1269 C1260 1.390 . S
C1269 H1262 0.950 . S
C1269 C1266 1.387 . S
C1270 C1271 1.387 . S
C1270 H1274 0.950 . S
C1270 C1279 1.390 . S
C1271 C1270 1.387 . S
C1271 C1273 1.387 . S
H1272 C1279 0.950 . S
C1273 C1271 1.387 . S
C1273 C1275 1.390 . S
C1273 H1277 0.950 . S
H1274 C1270 0.950 . S
C1275 C1273 1.390 . S
C1275 C1276 1.387 . S
C1275 H1278 0.950 . S
C1276 C1275 1.387 . S
C1276 C1279 1.387 . S
H1277 C1273 0.950 . S
H1278 C1275 0.950 . S
C1279 C1270 1.390 . S
C1279 H1272 0.950 . S
C1279 C1276 1.387 . S
C1280 C1281 1.387 . S
C1280 H1284 0.950 . S
C1280 C1289 1.390 . S
C1281 C1280 1.387 . S
C1281 C1283 1.387 1_545 S
H1282 C1289 0.950 . S
C1283 C1281 1.387 1_565 S
C1283 C1285 1.390 . S
C1283 H1287 0.950 . S
H1284 C1280 0.950 . S
C1285 C1283 1.390 . S
C1285 C1286 1.387 . S
C1285 H1288 0.950 . S
C1286 C1285 1.387 . S
C1286 C1289 1.387 1_565 S
H1287 C1283 0.950 . S
H1288 C1285 0.950 . S
C1289 C1280 1.390 . S
C1289 H1282 0.950 . S
C1289 C1286 1.387 1_545 S
C1290 C1291 1.387 . S
C1290 H1294 0.950 . S
C1290 C1299 1.390 . S
C1291 C1290 1.387 . S
C1291 C1293 1.387 . S
H1292 C1299 0.950 . S
C1293 C1291 1.387 . S
C1293 C1295 1.390 . S
C1293 H1297 0.950 . S
H1294 C1290 0.950 . S
C1295 C1293 1.390 . S
C1295 C1296 1.387 . S
C1295 H1298 0.950 . S
C1296 C1295 1.387 . S
C1296 C1299 1.387 . S
H1297 C1293 0.950 . S
H1298 C1295 0.950 . S
C1299 C1290 1.390 . S
C1299 H1292 0.950 . S
C1299 C1296 1.387 . S
C1300 C1301 1.387 . S
C1300 H1304 0.950 . S
C1300 C1309 1.390 . S
C1301 C1300 1.387 . S
C1301 C1303 1.387 . S
H1302 C1309 0.950 . S
C1303 C1301 1.387 . S
C1303 C1305 1.390 . S
C1303 H1307 0.950 . S
H1304 C1300 0.950 . S
C1305 C1303 1.390 . S
C1305 C1306 1.387 . S
C1305 H1308 0.950 . S
C1306 C1305 1.387 . S
C1306 C1309 1.387 . S
H1307 C1303 0.950 . S
H1308 C1305 0.950 . S
C1309 C1300 1.390 . S
C1309 H1302 0.950 . S
C1309 C1306 1.387 . S
C1310 C1311 1.387 1_565 S
C1310 H1314 0.950 . S
C1310 C1319 1.390 . S
C1311 C1310 1.387 1_545 S
C1311 C1313 1.387 . S
H1312 C1319 0.950 . S
C1313 C1311 1.387 . S
C1313 C1315 1.390 . S
C1313 H1317 0.950 . S
H1314 C1310 0.950 . S
C1315 C1313 1.390 . S
C1315 C1316 1.387 1_545 S
C1315 H1318 0.950 . S
C1316 C1315 1.387 1_565 S
C1316 C1319 1.387 . S
H1317 C1313 0.950 . S
H1318 C1315 0.950 . S
C1319 C1310 1.390 . S
C1319 H1312 0.950 . S
C1319 C1316 1.387 . S
C1320 C1321 1.387 1_565 S
C1320 H1324 0.950 . S
C1320 C1329 1.390 . S
C1321 C1320 1.387 1_545 S
C1321 C1323 1.387 . S
H1322 C1329 0.950 . S
C1323 C1321 1.387 . S
C1323 C1325 1.390 . S
C1323 H1327 0.950 . S
H1324 C1320 0.950 . S
C1325 C1323 1.390 . S
C1325 C1326 1.387 1_545 S
C1325 H1328 0.950 . S
C1326 C1325 1.387 1_565 S
C1326 C1329 1.387 . S
H1327 C1323 0.950 . S
H1328 C1325 0.950 . S
C1329 C1320 1.390 . S
C1329 H1322 0.950 . S
C1329 C1326 1.387 . S
C1330 C1331 1.387 . S
C1330 H1334 0.950 . S
C1330 C1339 1.390 . S
C1331 C1330 1.387 . S
C1331 C1333 1.387 . S
H1332 C1339 0.950 . S
C1333 C1331 1.387 . S
C1333 C1335 1.390 . S
C1333 H1337 0.950 . S
H1334 C1330 0.950 . S
C1335 C1333 1.390 . S
C1335 C1336 1.387 . S
C1335 H1338 0.950 . S
C1336 C1335 1.387 . S
C1336 C1339 1.387 . S
H1337 C1333 0.950 . S
H1338 C1335 0.950 . S
C1339 C1330 1.390 . S
C1339 H1332 0.950 . S
C1339 C1336 1.387 . S
C1340 C1341 1.387 . S
C1340 H1344 0.950 . S
C1340 C1349 1.390 . S
C1341 C1340 1.387 . S
C1341 C1343 1.387 . S
H1342 C1349 0.950 . S
C1343 C1341 1.387 . S
C1343 C1345 1.390 . S
C1343 H1347 0.950 . S
H1344 C1340 0.950 . S
C1345 C1343 1.390 . S
C1345 C1346 1.387 . S
C1345 H1348 0.950 . S
C1346 C1345 1.387 . S
C1346 C1349 1.387 . S
H1347 C1343 0.950 . S
H1348 C1345 0.950 . S
C1349 C1340 1.390 . S
C1349 H1342 0.950 . S
C1349 C1346 1.387 . S
C1350 C1351 1.387 1_565 S
C1350 H1354 0.950 . S
C1350 C1359 1.390 . S
C1351 C1350 1.387 1_545 S
C1351 C1353 1.387 . S
H1352 C1359 0.950 . S
C1353 C1351 1.387 . S
C1353 C1355 1.390 . S
C1353 H1357 0.950 . S
H1354 C1350 0.950 . S
C1355 C1353 1.390 . S
C1355 C1356 1.387 1_545 S
C1355 H1358 0.950 . S
C1356 C1355 1.387 1_565 S
C1356 C1359 1.387 . S
H1357 C1353 0.950 . S
H1358 C1355 0.950 . S
C1359 C1350 1.390 . S
C1359 H1352 0.950 . S
C1359 C1356 1.387 . S
C1360 C1361 1.387 . S
C1360 H1364 0.950 . S
C1360 C1369 1.390 . S
C1361 C1360 1.387 . S
C1361 C1363 1.387 . S
H1362 C1369 0.950 . S
C1363 C1361 1.387 . S
C1363 C1365 1.390 . S
C1363 H1367 0.950 . S
H1364 C1360 0.950 . S
C1365 C1363 1.390 . S
C1365 C1366 1.387 . S
C1365 H1368 0.950 . S
C1366 C1365 1.387 . S
C1366 C1369 1.387 . S
H1367 C1363 0.950 . S
H1368 C1365 0.950 . S
C1369 C1360 1.390 . S
C1369 H1362 0.950 . S
C1369 C1366 1.387 . S
C1370 C1371 1.387 . S
C1370 H1374 0.950 . S
C1370 C1379 1.390 . S
C1371 C1370 1.387 . S
C1371 C1373 1.387 . S
H1372 C1379 0.950 . S
C1373 C1371 1.387 . S
C1373 C1375 1.390 . S
C1373 H1377 0.950 . S
H1374 C1370 0.950 . S
C1375 C1373 1.390 . S
C1375 C1376 1.387 . S
C1375 H1378 0.950 . S
C1376 C1375 1.387 . S
C1376 C1379 1.387 . S
H1377 C1373 0.950 . S
H1378 C1375 0.950 . S
C1379 C1370 1.390 . S
C1379 H1372 0.950 . S
C1379 C1376 1.387 . S
C1380 C1381 1.387 . S
C1380 H1384 0.950 . S
C1380 C1389 1.390 . S
C1381 C1380 1.387 . S
C1381 C1383 1.387 . S
H1382 C1389 0.950 . S
C1383 C1381 1.387 . S
C1383 C1385 1.390 . S
C1383 H1387 0.950 . S
H1384 C1380 0.950 . S
C1385 C1383 1.390 . S
C1385 C1386 1.387 . S
C1385 H1388 0.950 . S
C1386 C1385 1.387 . S
C1386 C1389 1.387 . S
H1387 C1383 0.950 . S
H1388 C1385 0.950 . S
C1389 C1380 1.390 . S
C1389 H1382 0.950 . S
C1389 C1386 1.387 . S
C1390 C1391 1.387 . S
C1390 H1394 0.950 . S
C1390 C1399 1.390 . S
C1391 C1390 1.387 . S
C1391 C1393 1.387 . S
H1392 C1399 0.950 . S
C1393 C1391 1.387 . S
C1393 C1395 1.390 . S
C1393 H1397 0.950 . S
H1394 C1390 0.950 . S
C1395 C1393 1.390 . S
C1395 C1396 1.387 . S
C1395 H1398 0.950 . S
C1396 C1395 1.387 . S
C1396 C1399 1.387 . S
H1397 C1393 0.950 . S
H1398 C1395 0.950 . S
C1399 C1390 1.390 . S
C1399 H1392 0.950 . S
C1399 C1396 1.387 . S
C1400 C1401 1.387 . S
C1400 H1404 0.950 . S
C1400 C1409 1.390 . S
C1401 C1400 1.387 . S
C1401 C1403 1.387 . S
H1402 C1409 0.950 . S
C1403 C1401 1.387 . S
C1403 C1405 1.390 . S
C1403 H1407 0.950 . S
H1404 C1400 0.950 . S
C1405 C1403 1.390 . S
C1405 C1406 1.387 . S
C1405 H1408 0.950 . S
C1406 C1405 1.387 . S
C1406 C1409 1.387 . S
H1407 C1403 0.950 . S
H1408 C1405 0.950 . S
C1409 C1400 1.390 . S
C1409 H1402 0.950 . S
C1409 C1406 1.387 . S
C1410 C1411 1.387 . S
C1410 H1414 0.950 . S
C1410 C1419 1.390 . S
C1411 C1410 1.387 . S
C1411 C1413 1.387 . S
H1412 C1419 0.950 . S
C1413 C1411 1.387 . S
C1413 C1415 1.390 . S
C1413 H1417 0.950 . S
H1414 C1410 0.950 . S
C1415 C1413 1.390 . S
C1415 C1416 1.387 . S
C1415 H1418 0.950 . S
C1416 C1415 1.387 . S
C1416 C1419 1.387 . S
H1417 C1413 0.950 . S
H1418 C1415 0.950 . S
C1419 C1410 1.390 . S
C1419 H1412 0.950 . S
C1419 C1416 1.387 . S
C1420 C1421 1.387 . S
C1420 H1424 0.950 . S
C1420 C1429 1.390 . S
C1421 C1420 1.387 . S
C1421 C1423 1.387 . S
H1422 C1429 0.950 . S
C1423 C1421 1.387 . S
C1423 C1425 1.390 . S
C1423 H1427 0.950 . S
H1424 C1420 0.950 . S
C1425 C1423 1.390 . S
C1425 C1426 1.387 . S
C1425 H1428 0.950 . S
C1426 C1425 1.387 . S
C1426 C1429 1.387 . S
H1427 C1423 0.950 . S
H1428 C1425 0.950 . S
C1429 C1420 1.390 . S
C1429 H1422 0.950 . S
C1429 C1426 1.387 . S
C1430 C1431 1.387 . S
C1430 H1434 0.950 . S
C1430 C1439 1.390 . S
C1431 C1430 1.387 . S
C1431 C1433 1.387 . S
H1432 C1439 0.950 . S
C1433 C1431 1.387 . S
C1433 C1435 1.390 . S
C1433 H1437 0.950 . S
H1434 C1430 0.950 . S
C1435 C1433 1.390 . S
C1435 C1436 1.387 . S
C1435 H1438 0.950 . S
C1436 C1435 1.387 . S
C1436 C1439 1.387 . S
H1437 C1433 0.950 . S
H1438 C1435 0.950 . S
C1439 C1430 1.390 . S
C1439 H1432 0.950 . S
C1439 C1436 1.387 . S
C1440 C1441 1.387 . S
C1440 H1444 0.950 . S
C1440 C1449 1.390 . S
C1441 C1440 1.387 . S
C1441 C1443 1.387 1_545 S
H1442 C1449 0.950 . S
C1443 C1441 1.387 1_565 S
C1443 C1445 1.390 . S
C1443 H1447 0.950 . S
H1444 C1440 0.950 . S
C1445 C1443 1.390 . S
C1445 C1446 1.387 . S
C1445 H1448 0.950 . S
C1446 C1445 1.387 . S
C1446 C1449 1.387 1_565 S
H1447 C1443 0.950 . S
H1448 C1445 0.950 . S
C1449 C1440 1.390 . S
C1449 H1442 0.950 . S
C1449 C1446 1.387 1_545 S
C1450 C1451 1.387 . S
C1450 H1454 0.950 . S
C1450 C1459 1.390 . S
C1451 C1450 1.387 . S
C1451 C1453 1.387 . S
H1452 C1459 0.950 . S
C1453 C1451 1.387 . S
C1453 C1455 1.390 . S
C1453 H1457 0.950 . S
H1454 C1450 0.950 . S
C1455 C1453 1.390 . S
C1455 C1456 1.387 . S
C1455 H1458 0.950 . S
C1456 C1455 1.387 . S
C1456 C1459 1.387 . S
H1457 C1453 0.950 . S
H1458 C1455 0.950 . S
C1459 C1450 1.390 . S
C1459 H1452 0.950 . S
C1459 C1456 1.387 . S
C1460 C1461 1.387 . S
C1460 H1464 0.950 . S
C1460 C1469 1.390 . S
C1461 C1460 1.387 . S
C1461 C1463 1.387 . S
H1462 C1469 0.950 . S
C1463 C1461 1.387 . S
C1463 C1465 1.390 . S
C1463 H1467 0.950 . S
H1464 C1460 0.950 . S
C1465 C1463 1.390 . S
C1465 C1466 1.387 . S
C1465 H1468 0.950 . S
C1466 C1465 1.387 . S
C1466 C1469 1.387 . S
H1467 C1463 0.950 . S
H1468 C1465 0.950 . S
C1469 C1460 1.390 . S
C1469 H1462 0.950 . S
C1469 C1466 1.387 . S
C1470 C1471 1.387 1_565 S
C1470 H1474 0.950 . S
C1470 C1479 1.390 . S
C1471 C1470 1.387 1_545 S
C1471 C1473 1.387 . S
H1472 C1479 0.950 . S
C1473 C1471 1.387 . S
C1473 C1475 1.390 . S
C1473 H1477 0.950 . S
H1474 C1470 0.950 . S
C1475 C1473 1.390 . S
C1475 C1476 1.387 1_545 S
C1475 H1478 0.950 . S
C1476 C1475 1.387 1_565 S
C1476 C1479 1.387 . S
H1477 C1473 0.950 . S
H1478 C1475 0.950 . S
C1479 C1470 1.390 . S
C1479 H1472 0.950 . S
C1479 C1476 1.387 . S
C1480 C1481 1.387 . S
C1480 H1484 0.950 . S
C1480 C1489 1.390 . S
C1481 C1480 1.387 . S
C1481 C1483 1.387 1_565 S
H1482 C1489 0.950 . S
C1483 C1481 1.387 1_545 S
C1483 C1485 1.390 . S
C1483 H1487 0.950 . S
H1484 C1480 0.950 . S
C1485 C1483 1.390 . S
C1485 C1486 1.387 . S
C1485 H1488 0.950 . S
C1486 C1485 1.387 . S
C1486 C1489 1.387 1_545 S
H1487 C1483 0.950 . S
H1488 C1485 0.950 . S
C1489 C1480 1.390 . S
C1489 H1482 0.950 . S
C1489 C1486 1.387 1_565 S
C1490 C1491 1.387 . S
C1490 H1494 0.950 . S
C1490 C1499 1.390 . S
C1491 C1490 1.387 . S
C1491 C1493 1.387 . S
H1492 C1499 0.950 . S
C1493 C1491 1.387 . S
C1493 C1495 1.390 . S
C1493 H1497 0.950 . S
H1494 C1490 0.950 . S
C1495 C1493 1.390 . S
C1495 C1496 1.387 . S
C1495 H1498 0.950 . S
C1496 C1495 1.387 . S
C1496 C1499 1.387 . S
H1497 C1493 0.950 . S
H1498 C1495 0.950 . S
C1499 C1490 1.390 . S
C1499 H1492 0.950 . S
C1499 C1496 1.387 . S
C1500 C1501 1.387 . S
C1500 H1504 0.950 . S
C1500 C1509 1.390 . S
C1501 C1500 1.387 . S
C1501 C1503 1.387 . S
H1502 C1509 0.950 . S
C1503 C1501 1.387 . S
C1503 C1505 1.390 . S
C1503 H1507 0.950 . S
H1504 C1500 0.950 . S
C1505 C1503 1.390 . S
C1505 C1506 1.387 . S
C1505 H1508 0.950 . S
C1506 C1505 1.387 . S
C1506 C1509 1.387 . S
H1507 C1503 0.950 . S
H1508 C1505 0.950 . S
C1509 C1500 1.390 . S
C1509 H1502 0.950 . S
C1509 C1506 1.387 . S
C1510 C1511 1.387 1_545 S
C1510 H1514 0.950 . S
C1510 C1519 1.390 . S
C1511 C1510 1.387 1_565 S
C1511 C1513 1.387 . S
H1512 C1519 0.950 . S
C1513 C1511 1.387 . S
C1513 C1515 1.390 . S
C1513 H1517 0.950 . S
H1514 C1510 0.950 . S
C1515 C1513 1.390 . S
C1515 C1516 1.387 1_565 S
C1515 H1518 0.950 . S
C1516 C1515 1.387 1_545 S
C1516 C1519 1.387 . S
H1517 C1513 0.950 . S
H1518 C1515 0.950 . S
C1519 C1510 1.390 . S
C1519 H1512 0.950 . S
C1519 C1516 1.387 . S
C1520 C1521 1.387 . S
C1520 H1524 0.950 . S
C1520 C1529 1.390 . S
C1521 C1520 1.387 . S
C1521 C1523 1.387 . S
H1522 C1529 0.950 . S
C1523 C1521 1.387 . S
C1523 C1525 1.390 . S
C1523 H1527 0.950 . S
H1524 C1520 0.950 . S
C1525 C1523 1.390 . S
C1525 C1526 1.387 . S
C1525 H1528 0.950 . S
C1526 C1525 1.387 . S
C1526 C1529 1.387 . S
H1527 C1523 0.950 . S
H1528 C1525 0.950 . S
C1529 C1520 1.390 . S
C1529 H1522 0.950 . S
C1529 C1526 1.387 . S
C1530 C1531 1.387 . S
C1530 H1534 0.950 . S
C1530 C1539 1.390 . S
C1531 C1530 1.387 . S
C1531 C1533 1.387 . S
H1532 C1539 0.950 . S
C1533 C1531 1.387 . S
C1533 C1535 1.390 . S
C1533 H1537 0.950 . S
H1534 C1530 0.950 . S
C1535 C1533 1.390 . S
C1535 C1536 1.387 . S
C1535 H1538 0.950 . S
C1536 C1535 1.387 . S
C1536 C1539 1.387 . S
H1537 C1533 0.950 . S
H1538 C1535 0.950 . S
C1539 C1530 1.390 . S
C1539 H1532 0.950 . S
C1539 C1536 1.387 . S
C1540 C1541 1.387 . S
C1540 H1544 0.950 . S
C1540 C1549 1.390 . S
C1541 C1540 1.387 . S
C1541 C1543 1.387 . S
H1542 C1549 0.950 . S
C1543 C1541 1.387 . S
C1543 C1545 1.390 . S
C1543 H1547 0.950 . S
H1544 C1540 0.950 . S
C1545 C1543 1.390 . S
C1545 C1546 1.387 . S
C1545 H1548 0.950 . S
C1546 C1545 1.387 . S
C1546 C1549 1.387 . S
H1547 C1543 0.950 . S
H1548 C1545 0.950 . S
C1549 C1540 1.390 . S
C1549 H1542 0.950 . S
C1549 C1546 1.387 . S
C1550 C1551 1.387 . S
C1550 H1554 0.950 . S
C1550 C1559 1.390 . S
C1551 C1550 1.387 . S
C1551 C1553 1.387 . S
H1552 C1559 0.950 . S
C1553 C1551 1.387 . S
C1553 C1555 1.390 . S
C1553 H1557 0.950 . S
H1554 C1550 0.950 . S
C1555 C1553 1.390 . S
C1555 C1556 1.387 . S
C1555 H1558 0.950 . S
C1556 C1555 1.387 . S
C1556 C1559 1.387 . S
H1557 C1553 0.950 . S
H1558 C1555 0.950 . S
C1559 C1550 1.390 . S
C1559 H1552 0.950 . S
C1559 C1556 1.387 . S
C1560 C1561 1.387 . S
C1560 H1564 0.950 . S
C1560 C1569 1.390 . S
C1561 C1560 1.387 . S
C1561 C1563 1.387 . S
H1562 C1569 0.950 . S
C1563 C1561 1.387 . S
C1563 C1565 1.390 . S
C1563 H1567 0.950 . S
H1564 C1560 0.950 . S
C1565 C1563 1.390 . S
C1565 C1566 1.387 . S
C1565 H1568 0.950 . S
C1566 C1565 1.387 . S
C1566 C1569 1.387 . S
H1567 C1563 0.950 . S
H1568 C1565 0.950 . S
C1569 C1560 1.390 . S
C1569 H1562 0.950 . S
C1569 C1566 1.387 . S
C1570 C1571 1.387 . S
C1570 H1574 0.950 . S
C1570 C1579 1.390 . S
C1571 C1570 1.387 . S
C1571 C1573 1.387 . S
H1572 C1579 0.950 . S
C1573 C1571 1.387 . S
C1573 C1575 1.390 . S
C1573 H1577 0.950 . S
H1574 C1570 0.950 . S
C1575 C1573 1.390 . S
C1575 C1576 1.387 . S
C1575 H1578 0.950 . S
C1576 C1575 1.387 . S
C1576 C1579 1.387 . S
H1577 C1573 0.950 . S
H1578 C1575 0.950 . S
C1579 C1570 1.390 . S
C1579 H1572 0.950 . S
C1579 C1576 1.387 . S
C1580 C1581 1.387 . S
C1580 H1584 0.950 . S
C1580 C1589 1.390 . S
C1581 C1580 1.387 . S
C1581 C1583 1.387 . S
H1582 C1589 0.950 . S
C1583 C1581 1.387 . S
C1583 C1585 1.390 . S
C1583 H1587 0.950 . S
H1584 C1580 0.950 . S
C1585 C1583 1.390 . S
C1585 C1586 1.387 . S
C1585 H1588 0.950 . S
C1586 C1585 1.387 . S
C1586 C1589 1.387 . S
H1587 C1583 0.950 . S
H1588 C1585 0.950 . S
C1589 C1580 1.390 . S
C1589 H1582 0.950 . S
C1589 C1586 1.387 . S
C1590 C1591 1.387 . S
C1590 H1594 0.950 . S
C1590 C1599 1.390 . S
C1591 C1590 1.387 . S
C1591 C1593 1.387 . S
H1592 C1599 0.950 . S
C1593 C1591 1.387 . S
C1593 C1595 1.390 . S
C1593 H1597 0.950 . S
H1594 C1590 0.950 . S
C1595 C1593 1.390 . S
C1595 C1596 1.387 . S
C1595 H1598 0.950 . S
C1596 C1595 1.387 . S
C1596 C1599 1.387 . S
H1597 C1593 0.950 . S
H1598 C1595 0.950 . S
C1599 C1590 1.390 . S
C1599 H1592 0.950 . S
C1599 C1596 1.387 . S
C641 C519 1.673 . S
C646 C19 1.673 . S
C651 C499 1.673 . S
C656 C39 1.673 . S
C661 C559 1.673 . S
C666 C59 1.673 . S
C671 C539 1.673 . S
C676 C79 1.673 . S
C681 C98 1.673 . S
C686 C598 1.673 . S
C691 C118 1.670 . S
C696 C578 1.670 . S
C701 C138 1.670 . S
C706 C638 1.670 . S
C711 C618 1.670 . S
C716 C158 1.670 . S
C721 C359 1.673 . S
C726 C179 1.673 . S
C731 C339 1.673 . S
C736 C199 1.673 . S
C741 C399 1.673 . S
C746 C219 1.673 . S
C751 C379 1.673 . S
C756 C239 1.673 . S
C761 C258 1.670 . S
C766 C438 1.670 . S
C771 C418 1.670 . S
C776 C278 1.670 . S
C781 C298 1.673 . S
C786 C478 1.673 . S
C791 C458 1.673 . S
C796 C318 1.673 . S
C801 C9 1.376 1_565 S
C806 C412 1.376 1_545 S
C811 C272 1.377 . S
C816 C29 1.377 . S
C821 C612 1.377 . S
C826 C49 1.377 . S
C831 C69 1.377 1_565 S
C836 C152 1.377 1_545 S
C841 C92 1.377 1_545 S
C846 C329 1.377 1_565 S
C851 C112 1.377 . S
C856 C189 1.377 . S
C861 C132 1.377 . S
C866 C529 1.377 . S
C871 C572 1.377 . S
C876 C169 1.377 . S
C881 C452 1.377 . S
C886 C209 1.377 . S
C891 C312 1.376 . S
C896 C229 1.376 . S
C901 C489 1.376 . S
C906 C252 1.376 . S
C911 C292 1.377 . S
C916 C369 1.377 . S
C921 C592 1.377 . S
C926 C349 1.377 . S
C931 C389 1.377 1_565 S
C936 C472 1.377 1_545 S
C941 C509 1.377 . S
C946 C432 1.377 . S
C951 C549 1.376 . S
C956 C632 1.376 . S
C961 C12 1.613 . S
C966 C392 1.613 . S
C971 C32 1.613 . S
C976 C372 1.613 . S
C981 C52 1.609 . S
C986 C352 1.609 . S
C991 C72 1.609 . S
C996 C332 1.609 . S
C1001 C89 1.613 . S
C1006 C469 1.613 . S
C1011 C109 1.609 . S
C1016 C449 1.609 . S
C1021 C129 1.613 . S
C1026 C429 1.613 . S
C1031 C149 1.609 . S
C1036 C409 1.609 . S
C1041 C172 1.613 . S
C1046 C552 1.613 . S
C1051 C192 1.609 . S
C1056 C532 1.609 . S
C1061 C212 1.609 . S
C1066 C512 1.609 . S
C1071 C232 1.609 . S
C1076 C492 1.609 . S
C1081 C629 1.613 . S
C1086 C249 1.613 . S
C1091 C609 1.609 . S
C1096 C269 1.609 . S
C1101 C589 1.609 . S
C1106 C289 1.609 . S
C1111 C569 1.609 . S
C1116 C309 1.609 . S
C1121 C58 1.716 . S
C1126 C18 1.716 . S
C1131 C78 1.716 . S
C1136 C38 1.716 . S
C1141 C139 1.716 . S
C1146 C99 1.716 . S
C1151 C119 1.716 . S
C1156 C159 1.716 . S
C1161 C218 1.716 . S
C1166 C178 1.716 . S
C1171 C198 1.716 . S
C1176 C238 1.716 . S
C1181 C299 1.716 . S
C1186 C259 1.716 . S
C1191 C279 1.716 . S
C1196 C319 1.716 . S
C1201 C338 1.716 . S
C1206 C378 1.716 . S
C1211 C358 1.716 . S
C1216 C398 1.716 . S
C1221 C459 1.717 . S
C1226 C419 1.717 . S
C1231 C439 1.716 . S
C1236 C479 1.716 . S
C1241 C498 1.717 . S
C1246 C538 1.717 . S
C1251 C558 1.717 . S
C1256 C518 1.717 . S
C1261 C579 1.717 . S
C1266 C619 1.717 . S
C1271 C599 1.717 . S
C1276 C639 1.717 . S
C1281 C4 1.230 . S
C1286 C144 1.224 1_565 S
C1291 C604 1.220 . S
C1296 C24 1.226 1_455 S
C1301 C44 1.226 . S
C1306 C264 1.220 . S
C1311 C64 1.226 1_455 S
C1316 C404 1.220 1_565 S
C1321 C62 1.220 1_545 S
C1326 C82 1.226 . S
C1331 C102 1.230 1_655 S
C1336 C522 1.224 . S
C1341 C182 1.220 . S
C1346 C122 1.226 . S
C1351 C322 1.220 1_545 S
C1356 C142 1.226 1_655 S
C1361 C164 1.230 . S
C1366 C304 1.224 . S
C1371 C444 1.224 . S
C1376 C184 1.230 1_455 S
C1381 C204 1.226 . S
C1386 C104 1.220 . S
C1391 C564 1.220 . S
C1396 C224 1.226 1_455 S
C1401 C242 1.230 . S
C1406 C222 1.224 . S
C1411 C262 1.230 1_655 S
C1416 C362 1.224 . S
C1421 C282 1.226 . S
C1426 C22 1.220 . S
C1431 C482 1.224 . S
C1436 C302 1.230 1_655 S
C1441 C324 1.230 . S
C1446 C464 1.224 1_565 S
C1451 C344 1.230 . S
C1456 C284 1.224 . S
C1461 C364 1.230 . S
C1466 C584 1.224 . S
C1471 C384 1.226 . S
C1476 C84 1.220 1_565 S
C1481 C402 1.226 . S
C1486 C382 1.220 1_545 S
C1491 C202 1.222 . S
C1496 C422 1.229 . S
C1501 C502 1.220 . S
C1506 C442 1.226 . S
C1511 C462 1.230 . S
C1516 C2 1.224 1_545 S
C1521 C624 1.224 . S
C1526 C484 1.230 . S
C1531 C124 1.220 . S
C1536 C504 1.225 . S
C1541 C424 1.220 . S
C1546 C524 1.226 . S
C1551 C544 1.230 . S
C1556 C244 1.224 . S
C1561 C542 1.220 . S
C1566 C562 1.226 . S
C1571 C42 1.220 . S
C1576 C582 1.226 . S
C1581 C342 1.224 . S
C1586 C602 1.230 . S
C1591 C622 1.226 . S
C1596 C162 1.220 . S
