# Generated by pormake.
# Topology vmm, (7)-cn, num edge types: 1
# Building blocks:
#     Node 0, Type 0, BuildingBlock: HICVOG_clean_sbu_0, # of connection points: 7
#     Node 1, Type 0, BuildingBlock: HICVOG_clean_sbu_0, # of connection points: 7
#     Node 2, Type 0, BuildingBlock: HICVOG_clean_sbu_0, # of connection points: 7
#     Node 3, Type 0, BuildingBlock: HICVOG_clean_sbu_0, # of connection points: 7
#     Edge 4, Type (0, 0), BuildingBlock: XUDNAN_clean_linker_2, # of connection points: 2
#     Edge 5, Type (0, 0), BuildingBlock: XUDNAN_clean_linker_2, # of connection points: 2
#     Edge 6, Type (0, 0), BuildingBlock: XUDNAN_clean_linker_2, # of connection points: 2
#     Edge 7, Type (0, 0), BuildingBlock: XUDNAN_clean_linker_2, # of connection points: 2
#     Edge 8, Type (0, 0), BuildingBlock: XUDNAN_clean_linker_2, # of connection points: 2
#     Edge 9, Type (0, 0), BuildingBlock: XUDNAN_clean_linker_2, # of connection points: 2
#     Edge 10, Type (0, 0), BuildingBlock: XUDNAN_clean_linker_2, # of connection points: 2
#     Edge 11, Type (0, 0), BuildingBlock: XUDNAN_clean_linker_2, # of connection points: 2
#     Edge 12, Type (0, 0), BuildingBlock: XUDNAN_clean_linker_2, # of connection points: 2
#     Edge 13, Type (0, 0), BuildingBlock: XUDNAN_clean_linker_2, # of connection points: 2
#     Edge 14, Type (0, 0), BuildingBlock: XUDNAN_clean_linker_2, # of connection points: 2
#     Edge 15, Type (0, 0), BuildingBlock: XUDNAN_clean_linker_2, # of connection points: 2
#     Edge 16, Type (0, 0), BuildingBlock: XUDNAN_clean_linker_2, # of connection points: 2
#     Edge 17, Type (0, 0), BuildingBlock: XUDNAN_clean_linker_2, # of connection points: 2
# Relax obj value: 0.084
# Max RMSD: 0.164
# Mean RMSD: 0.164
data_MOF--net-vmm--node1-HICVOG_clean_sbu_0--edge1-XUDNAN_clean_linker_2
_symmetry_space_group_name_H-M    P1
_symmetry_Int_Tables_number       1
_symmetry_cell_setting            triclinic
loop_
_symmetry_equiv_pos_as_xyz
'x, y, z'
_cell_length_a     18.020362
_cell_length_b     44.548431
_cell_length_c     22.049453
_cell_angle_alpha  89.940616
_cell_angle_beta   81.376686
_cell_angle_gamma 90.349282
loop_
_atom_site_label
_atom_site_type_symbol
_atom_site_fract_x
_atom_site_fract_y
_atom_site_fract_z
_atom_type_partial_charge
Zn0 Zn 0.30822 0.10236 0.23082 0.0
C1 C 0.16296 0.06996 0.12808 0.0
N2 N 0.20866 0.04627 0.12504 0.0
C3 C 0.26633 0.05671 0.15069 0.0
N4 N 0.25607 0.08538 0.16904 0.0
N5 N 0.19131 0.09418 0.15378 0.0
C6 C 0.00983 0.12492 0.19185 0.0
O7 O 0.04356 0.1165 0.2379 0.0
O8 O 0.42017 0.10227 0.20689 0.0
Zn9 Zn 0.16039 0.13582 0.14832 0.0
N10 N 0.29188 0.07555 0.30089 0.0
C11 C 0.2171 0.04079 0.3657 0.0
C12 C 0.22655 0.05999 0.31506 0.0
C13 C 0.34799 0.07287 0.33546 0.0
N14 N 0.27311 0.03814 0.40034 0.0
C15 C 0.33875 0.05381 0.38711 0.0
O16 O 0.17891 0.16222 0.21968 0.0
C17 C 0.22316 0.163 0.25961 0.0
O18 O 0.27079 0.14244 0.26395 0.0
H19 H 0.18241 0.06243 0.28717 0.0
H20 H 0.39943 0.08526 0.32184 0.0
C21 C 0.18917 0.17652 0.04393 0.0
C22 C 0.23543 0.19015 0.99408 0.0
C23 C 0.33324 0.15648 1.00796 0.0
C24 C 0.28761 0.1433 0.05748 0.0
N25 N 0.21666 0.15352 0.07468 0.0
N26 N 0.30641 0.17962 0.97782 0.0
H27 H 0.13312 0.18468 0.0595 0.0
C28 C 0.46926 0.11809 0.17373 0.0
O29 O 0.44852 0.14067 0.14192 0.0
O30 O 0.04937 0.13578 0.14426 0.0
H31 H 0.30921 0.12542 0.08278 0.0
H32 H 0.16558 0.02809 0.37748 0.0
H33 H 0.38995 0.14865 0.99406 0.0
Zn34 Zn 0.81161 0.63692 0.39387 0.0
C35 C 0.67682 0.56772 0.42357 0.0
N36 N 0.73112 0.5555 0.45071 0.0
C37 C 0.78944 0.57405 0.4338 0.0
N38 N 0.77169 0.59691 0.3986 0.0
N39 N 0.70138 0.59236 0.39096 0.0
C40 C 0.51236 0.63484 0.32627 0.0
O41 O 0.54362 0.64684 0.27413 0.0
O42 O 0.91538 0.63687 0.41484 0.0
Zn43 Zn 0.65663 0.60819 0.32373 0.0
N44 N 0.74618 0.66173 0.45083 0.0
C45 C 0.62143 0.67875 0.48176 0.0
C46 C 0.67226 0.66078 0.44485 0.0
C47 C 0.77196 0.68074 0.49149 0.0
N48 N 0.64687 0.69776 0.52205 0.0
C49 C 0.72089 0.69958 0.52812 0.0
O50 O 0.70737 0.64472 0.27857 0.0
C51 C 0.76774 0.66016 0.27442 0.0
O52 O 0.81427 0.65686 0.31187 0.0
H53 H 0.65311 0.64659 0.41074 0.0
H54 H 0.83155 0.68186 0.49329 0.0
C55 C 0.61241 0.57451 0.22156 0.0
C56 C 0.61553 0.54976 0.18184 0.0
C57 C 0.71393 0.52917 0.22852 0.0
C58 C 0.71121 0.5538 0.26759 0.0
N59 N 0.65978 0.57577 0.26426 0.0
N60 N 0.66591 0.52763 0.18681 0.0
H61 H 0.57221 0.59224 0.21914 0.0
C62 C 0.96713 0.6334 0.36968 0.0
O63 O 0.94924 0.6293 0.31468 0.0
O64 O 0.55039 0.61761 0.35526 0.0
H65 H 0.74977 0.55523 0.30054 0.0
H66 H 0.56237 0.67806 0.47762 0.0
H67 H 0.75395 0.51141 0.23127 0.0
Zn68 Zn 0.68251 0.93256 0.80882 0.0
C69 C 0.80475 0.97302 0.91886 0.0
N70 N 0.7489 0.99299 0.92264 0.0
C71 C 0.69608 0.97858 0.89684 0.0
N72 N 0.72004 0.9513 0.87655 0.0
N73 N 0.78694 0.94712 0.89257 0.0
C74 C 0.97489 0.92827 0.85954 0.0
O75 O 0.93747 0.94003 0.81876 0.0
O76 O 0.57073 0.93584 0.81794 0.0
Zn77 Zn 0.82905 0.90771 0.90138 0.0
N78 N 0.71994 0.95635 0.73725 0.0
C79 C 0.82433 0.97841 0.67379 0.0
C80 C 0.79531 0.96029 0.72333 0.0
C81 C 0.67203 0.96949 0.70307 0.0
N82 N 0.77668 0.99179 0.64004 0.0
C83 C 0.70094 0.98778 0.6529 0.0
O84 O 0.81466 0.87787 0.83461 0.0
C85 C 0.7685 0.87215 0.7976 0.0
O86 O 0.71655 0.89029 0.78943 0.0
H87 H 0.83226 0.94961 0.75096 0.0
H88 H 0.6122 0.96631 0.71583 0.0
C89 C 0.79994 0.86201 0.99493 0.0
C90 C 0.75872 0.84816 0.04699 0.0
C91 C 0.68067 0.8911 0.06195 0.0
C92 C 0.72136 0.9046 1.01031 0.0
N93 N 0.78003 0.88986 0.97767 0.0
N94 N 0.69994 0.86326 0.07883 0.0
H95 H 0.84565 0.85049 0.96718 0.0
C96 C 0.52017 0.91827 0.84412 0.0
O97 O 0.53913 0.89395 0.87169 0.0
O98 O 0.93975 0.91237 0.9025 0.0
H99 H 0.70534 0.92647 0.99592 0.0
H100 H 0.88424 0.98196 0.66238 0.0
H101 H 0.63359 0.90253 0.08809 0.0
Zn102 Zn 0.28592 0.42884 0.72899 0.0
C103 C 0.14666 0.47155 0.63276 0.0
N104 N 0.1914 0.49484 0.64077 0.0
C105 C 0.24628 0.48222 0.6666 0.0
N106 N 0.23507 0.45241 0.67449 0.0
N107 N 0.1728 0.44551 0.6523 0.0
C108 C 0.97744 0.41759 0.65764 0.0
O109 O -0.00791 0.42998 0.70861 0.0
O110 O 0.39851 0.42802 0.70444 0.0
Zn111 Zn 0.1392 0.40548 0.6357 0.0
N112 N 0.26371 0.44823 0.8078 0.0
C113 C 0.17164 0.45568 0.89561 0.0
C114 C 0.1924 0.44416 0.8369 0.0
C115 C 0.31516 0.464 0.83446 0.0
N116 N 0.22318 0.47077 0.92296 0.0
C117 C 0.29449 0.47547 0.894 0.0
O118 O 0.14639 0.37496 0.70266 0.0
C119 C 0.19297 0.36877 0.7389 0.0
O120 O 0.2465 0.38654 0.74631 0.0
H121 H 0.15233 0.43167 0.81476 0.0
H122 H 0.37177 0.46673 0.81046 0.0
C123 C 0.18847 0.36235 0.5428 0.0
C124 C 0.22939 0.35186 0.48765 0.0
C125 C 0.29117 0.39911 0.47338 0.0
C126 C 0.25092 0.4093 0.52839 0.0
N127 N 0.19953 0.39091 0.56151 0.0
N128 N 0.27932 0.37076 0.45417 0.0
H129 H 0.1473 0.34819 0.57019 0.0
C130 C 0.43064 0.40941 0.66558 0.0
O131 O 0.38931 0.39095 0.63811 0.0
O132 O 0.03092 0.40633 0.62055 0.0
H133 H 0.26019 0.43177 0.54419 0.0
H134 H 0.11526 0.45238 0.91958 0.0
H135 H 0.33163 0.4136 0.44618 0.0
H136 H 0.59508 0.14586 0.10933 0.0
H137 H 0.52502 0.0773 0.24683 0.0
H138 H 0.65584 0.07033 0.26182 0.0
H139 H 0.77372 0.10779 0.04548 0.0
H140 H 0.82416 0.14279 0.03149 0.0
H141 H 0.72494 0.14113 0.02775 0.0
H142 H 0.70236 0.18384 0.10798 0.0
H143 H 0.80123 0.18546 0.11242 0.0
H144 H 0.73465 0.17946 0.18101 0.0
H145 H 0.78984 0.07447 0.27146 0.0
H146 H 0.924 0.0861 0.26786 0.0
H147 H 0.91289 0.14952 0.11981 0.0
C148 C 0.60749 0.12913 0.14195 0.0
C149 C 0.54942 0.11237 0.17722 0.0
C150 C 0.56811 0.09058 0.21932 0.0
C151 C 0.64246 0.08635 0.22822 0.0
C152 C 0.69801 0.10365 0.19391 0.0
C153 C 0.68201 0.12421 0.1508 0.0
C154 C 0.75297 0.14013 0.121 0.0
C155 C 0.76995 0.1325 0.05235 0.0
C156 C 0.74743 0.17424 0.13125 0.0
C157 C 0.8104 0.12622 0.15621 0.0
C158 C 0.77715 0.10516 0.19783 0.0
C159 C 0.81695 0.09053 0.23837 0.0
C160 C 0.89305 0.09748 0.23626 0.0
C161 C 0.92895 0.11863 0.19344 0.0
C162 C 0.88705 0.13303 0.15259 0.0
H163 H 0.4042 0.64962 0.25787 0.0
H164 H 0.43899 0.62677 0.4428 0.0
H165 H 0.30187 0.62705 0.47645 0.0
H166 H 0.23854 0.69763 0.29927 0.0
H167 H 0.19451 0.68379 0.23651 0.0
H168 H 0.29537 0.68549 0.22939 0.0
H169 H 0.3022 0.6288 0.20261 0.0
H170 H 0.2015 0.62683 0.21028 0.0
H171 H 0.25114 0.60214 0.25486 0.0
H172 H 0.16066 0.62661 0.48794 0.0
H173 H 0.02629 0.62466 0.4757 0.0
H174 H 0.08626 0.64558 0.28221 0.0
C175 C 0.38302 0.64544 0.30576 0.0
C176 C 0.43178 0.63838 0.34789 0.0
C177 C 0.40218 0.63225 0.40988 0.0
C178 C 0.32455 0.63246 0.42943 0.0
C179 C 0.27771 0.63875 0.38629 0.0
C180 C 0.30587 0.64517 0.32577 0.0
C181 C 0.24379 0.64875 0.28736 0.0
C182 C 0.24301 0.68083 0.26164 0.0
C183 C 0.25006 0.62522 0.23576 0.0
C184 C 0.17637 0.64284 0.33546 0.0
C185 C 0.19682 0.63752 0.39242 0.0
C186 C 0.14389 0.63096 0.44366 0.0
C187 C 0.06794 0.62989 0.43632 0.0
C188 C 0.04636 0.63493 0.37804 0.0
C189 C 0.10133 0.64149 0.32723 0.0
H190 H 0.07489 0.89928 0.9217 0.0
H191 H 0.0594 0.96838 0.78516 0.0
H192 H 0.19661 0.97529 0.77166 0.0
H193 H 0.23095 0.93372 0.98822 0.0
H194 H 0.27401 0.89806 0.99885 0.0
H195 H 0.17363 0.9004 1.00232 0.0
H196 H 0.17831 0.85983 0.91768 0.0
H197 H 0.27857 0.85743 0.91375 0.0
H198 H 0.23841 0.86556 0.84548 0.0
H199 H 0.33453 0.97303 0.76848 0.0
H200 H 0.46635 0.96107 0.77414 0.0
H201 H 0.3944 0.89231 0.91063 0.0
C202 C 0.10032 0.91616 0.88964 0.0
C203 C 0.05654 0.93333 0.85451 0.0
C204 C 0.09189 0.9549 0.8124 0.0
C205 C 0.16974 0.9591 0.80459 0.0
C206 C 0.21142 0.94152 0.83917 0.0
C207 C 0.17818 0.92049 0.88088 0.0
C208 C 0.2366 0.90332 0.90946 0.0
C209 C 0.22829 0.90924 0.97883 0.0
C210 C 0.23272 0.86954 0.89574 0.0
C211 C 0.30784 0.91748 0.87603 0.0
C212 C 0.29177 0.93978 0.83644 0.0
C213 C 0.34791 0.95577 0.79962 0.0
C214 C 0.42266 0.94875 0.80317 0.0
C215 C 0.44069 0.92568 0.84276 0.0
C216 C 0.38235 0.90998 0.87985 0.0
H217 H 0.85094 0.44318 0.72207 0.0
H218 H 0.92638 0.38716 0.56407 0.0
H219 H 0.79522 0.38066 0.54645 0.0
H220 H 0.68834 0.40172 0.7776 0.0
H221 H 0.63076 0.43378 0.80144 0.0
H222 H 0.73088 0.43605 0.79925 0.0
H223 H 0.73624 0.48238 0.72772 0.0
H224 H 0.63612 0.48027 0.72954 0.0
H225 H 0.69736 0.47979 0.65705 0.0
H226 H 0.65511 0.37688 0.5508 0.0
H227 H 0.51671 0.37848 0.5736 0.0
H228 H 0.53249 0.43796 0.72706 0.0
C229 C 0.84001 0.4298 0.68337 0.0
C230 C 0.8991 0.41556 0.64462 0.0
C231 C 0.88223 0.3983 0.59443 0.0
C232 C 0.80783 0.39447 0.58399 0.0
C233 C 0.75085 0.40833 0.6237 0.0
C234 C 0.76606 0.42596 0.67195 0.0
C235 C 0.69426 0.43764 0.70887 0.0
C236 C 0.68557 0.42663 0.77574 0.0
C237 C 0.69087 0.47207 0.70555 0.0
C238 C 0.63638 0.42325 0.67471 0.0
C239 C 0.67014 0.40651 0.62562 0.0
C240 C 0.62808 0.39019 0.58874 0.0
C241 C 0.54947 0.39111 0.60225 0.0
C242 C 0.51366 0.40838 0.65201 0.0
C243 C 0.55806 0.4247 0.68844 0.0
H244 H 0.35833 1.00632 0.4627 0.0
H245 H 0.45399 0.09334 0.40377 0.0
H246 H 0.55411 0.08575 0.46604 0.0
H247 H 0.39651 1.01204 0.62 0.0
H248 H 0.41819 0.97278 0.62539 0.0
H249 H 0.35287 0.9848 0.57603 0.0
H250 H 0.43256 0.95869 0.48362 0.0
H251 H 0.49799 0.94653 0.53266 0.0
H252 H 0.53078 0.96803 0.4645 0.0
H253 H 0.6474 0.06823 0.53128 0.0
H254 H 0.72485 0.04248 0.59835 0.0
H255 H 0.56691 0.96784 0.61919 0.0
C256 C 0.39999 0.02392 0.46302 0.0
C257 C 0.39854 0.0501 0.42663 0.0
C258 C 0.45439 0.07254 0.42899 0.0
C259 C 0.51143 0.06864 0.46503 0.0
C260 C 0.51166 0.04241 0.49936 0.0
C261 C 0.45713 1.02052 0.49918 0.0
C262 C 0.47073 0.99437 0.54022 0.0
C263 C 0.40571 0.9908 0.59357 0.0
C264 C 0.4838 0.96519 0.50302 0.0
C265 C 0.54188 1.0049 0.56291 0.0
C266 C 0.56445 0.03267 0.53869 0.0
C267 C 0.62996 0.04659 0.55098 0.0
C268 C 0.67372 0.03173 0.58895 0.0
C269 C 0.65168 1.00331 0.6147 0.0
C270 C 0.58456 0.98984 0.60149 0.0
H271 H 0.3181 0.46527 1.01071 0.0
H272 H 0.39148 0.52137 0.85209 0.0
H273 H 0.47561 0.5495 0.91156 0.0
H274 H 0.32084 0.52125 0.12754 0.0
H275 H 0.35717 0.49617 0.18 0.0
H276 H 0.30063 0.4816 0.12581 0.0
H277 H 0.40669 0.44473 0.08358 0.0
H278 H 0.46308 0.45892 0.13813 0.0
H279 H 0.49968 0.45917 0.05743 0.0
H280 H 0.54924 0.57223 0.99076 0.0
H281 H 0.61937 0.58276 0.07727 0.0
H282 H 0.50353 0.5091 0.18005 0.0
C283 C 0.35183 0.48354 0.98862 0.0
C284 C 0.34834 0.49134 0.92712 0.0
C285 C 0.39389 0.51503 0.89919 0.0
C286 C 0.44122 0.53123 0.93275 0.0
C287 C 0.44284 0.52311 0.99372 0.0
C288 C 0.4003 0.49943 1.02092 0.0
C289 C 0.4155 0.49382 0.08559 0.0
C290 C 0.34429 0.4985 0.13249 0.0
C291 C 0.4482 0.4623 0.0915 0.0
C292 C 0.47325 0.51806 0.09082 0.0
C293 C 0.48739 0.53513 0.03785 0.0
C294 C 0.53864 0.55896 0.03233 0.0
C295 C 0.57775 0.56493 0.08162 0.0
C296 C 0.5659 0.54685 0.13496 0.0
C297 C 0.5127 0.52336 0.13975 0.0
H298 H 0.94011 0.99976 0.8851 0.0
H299 H 0.79422 0.96064 0.03911 0.0
H300 H 0.86221 0.98826 0.1108 0.0
H301 H 0.11306 0.99946 0.96022 0.0
H302 H 0.14627 0.03446 0.92457 0.0
H303 H 0.09056 1.00936 0.88585 0.0
H304 H -0.00294 0.05197 0.87591 0.0
H305 H 0.05032 0.07742 0.91627 0.0
H306 H 0.95227 0.07083 0.94389 0.0
H307 H 0.93523 0.02461 0.1649 0.0
H308 H 0.03458 0.05551 0.19985 0.0
H309 H 0.134 0.07129 1.01145 0.0
C310 C 0.92551 0.99577 0.93391 0.0
C311 C 0.86367 0.97739 0.95686 0.0
C312 C 0.84344 0.97368 1.0209 0.0
C313 C 0.88058 0.98985 0.06187 0.0
C314 C 0.9381 1.0094 0.03779 0.0
C315 C 0.96269 1.0115 0.97546 0.0
C316 C 0.02636 0.03402 0.96179 0.0
C317 C 0.09835 1.01839 0.9314 0.0
C318 C 0.00517 0.0601 0.92211 0.0
C319 C 0.0329 0.04453 0.02612 0.0
C320 C -0.01967 0.03048 0.06911 0.0
C321 C 0.97659 0.0358 0.1317 0.0
C322 C 0.03199 0.05404 0.15116 0.0
C323 C 0.08971 0.06677 0.10821 0.0
C324 C 0.08826 0.06299 0.04491 0.0
H325 H 0.0069 0.49235 0.66561 0.0
H326 H 0.16586 0.46388 0.50992 0.0
H327 H 0.09732 0.49267 0.44044 0.0
H328 H 0.83846 0.49261 0.58372 0.0
H329 H 0.80086 0.52483 0.62703 0.0
H330 H 0.85749 0.49824 0.66083 0.0
H331 H 0.9442 0.54195 0.68379 0.0
H332 H 0.89092 0.56856 0.64679 0.0
H333 H -0.00977 0.5647 0.62141 0.0
H334 H 0.02092 0.5307 0.39042 0.0
H335 H 0.92142 0.56327 0.36021 0.0
H336 H 0.81509 0.56695 0.5495 0.0
C337 C 0.02435 0.49073 0.61652 0.0
C338 C 0.08983 0.47511 0.59268 0.0
C339 C 0.1138 0.47466 0.52859 0.0
C340 C 0.07624 0.49156 0.48901 0.0
C341 C 0.01479 0.50855 0.51457 0.0
C342 C -0.01268 0.50731 0.57657 0.0
C343 C 0.92137 0.52802 0.59296 0.0
C344 C 0.8503 0.50986 0.6175 0.0
C345 C 0.93774 0.55223 0.63896 0.0
C346 C 0.91684 0.54157 0.53079 0.0
C347 C 0.97175 0.53044 0.48616 0.0
C348 C 0.97748 0.53947 0.42496 0.0
C349 C 0.92193 0.55851 0.40834 0.0
C350 C 0.86208 0.568 0.45288 0.0
C351 C 0.86171 0.56061 0.51504 0.0
H352 H 0.32006 0.23806 0.94804 0.0
H353 H 0.09568 0.20037 0.9613 0.0
H354 H 0.05955 0.24207 0.89749 0.0
H355 H 0.26284 0.31626 0.95637 0.0
H356 H 0.34335 0.32857 0.90344 0.0
H357 H 0.35005 0.29613 0.95108 0.0
H358 H 0.39519 0.26441 0.85421 0.0
H359 H 0.3881 0.29669 0.80627 0.0
H360 H 0.33837 0.26258 0.7936 0.0
H361 H 0.05123 0.28672 0.82619 0.0
H362 H 0.06784 0.33247 0.76171 0.0
H363 H 0.29654 0.34141 0.7994 0.0
C364 C 0.26314 0.23864 0.93779 0.0
C365 C 0.21063 0.216 0.95976 0.0
C366 C 0.13659 0.21767 0.94566 0.0
C367 C 0.11575 0.24116 0.90909 0.0
C368 C 0.16934 0.26296 0.88763 0.0
C369 C 0.24123 0.26207 0.90224 0.0
C370 C 0.28827 0.28826 0.87415 0.0
C371 C 0.31253 0.3085 0.92425 0.0
C372 C 0.3565 0.27732 0.8294 0.0
C373 C 0.2321 0.30386 0.84054 0.0
C374 C 0.1639 0.2889 0.8485 0.0
C375 C 0.10421 0.29873 0.82017 0.0
C376 C 0.1143 0.32468 0.78337 0.0
C377 C 0.18336 0.34067 0.77565 0.0
C378 C 0.24282 0.32992 0.8047 0.0
H379 H 0.65142 0.75225 0.56166 0.0
H380 H 0.84298 0.6986 0.59189 0.0
H381 H 0.87723 0.73704 0.66385 0.0
H382 H 0.74031 0.8243 0.56611 0.0
H383 H 0.65684 0.84206 0.60484 0.0
H384 H 0.649 0.81049 0.55524 0.0
H385 H 0.56638 0.78247 0.64427 0.0
H386 H 0.57411 0.81393 0.69418 0.0
H387 H 0.60137 0.77704 0.7159 0.0
H388 H 0.88803 0.78164 0.73516 0.0
H389 H 0.87624 0.82837 0.79633 0.0
H390 H 0.67698 0.85162 0.71788 0.0
C391 C 0.70064 0.74842 0.58334 0.0
C392 C 0.74467 0.7224 0.57059 0.0
C393 C 0.80891 0.71853 0.59985 0.0
C394 C 0.82854 0.74018 0.64122 0.0
C395 C 0.78349 0.76553 0.6527 0.0
C396 C 0.72101 0.7697 0.62432 0.0
C397 C 0.68151 0.7987 0.64411 0.0
C398 C 0.68199 0.82015 0.58931 0.0
C399 C 0.6011 0.79266 0.67655 0.0
C400 C 0.73121 0.81027 0.68846 0.0
C401 C 0.78975 0.7909 0.69302 0.0
C402 C 0.84247 0.79697 0.73174 0.0
C403 C 0.83523 0.82357 0.76638 0.0
C404 C 0.77575 0.84379 0.76197 0.0
C405 C 0.72325 0.8368 0.72242 0.0
H406 H 0.65962 0.8055 0.09859 0.0
H407 H 0.89783 0.82241 0.04515 0.0
H408 H 0.92587 0.7735 0.08942 0.0
H409 H 0.67034 0.77269 0.24061 0.0
H410 H 0.59792 0.745 0.23651 0.0
H411 H 0.59662 0.77991 0.19564 0.0
H412 H 0.59467 0.75084 0.09414 0.0
H413 H 0.5959 0.71577 0.13483 0.0
H414 H 0.66671 0.72366 0.06986 0.0
H415 H 0.92793 0.72573 0.15092 0.0
H416 H 0.9037 0.68161 0.21934 0.0
H417 H 0.66403 0.69445 0.2277 0.0
C418 C 0.71769 0.79871 0.09537 0.0
C419 C 0.7765 0.8177 0.06797 0.0
C420 C 0.85175 0.80806 0.06488 0.0
C421 C 0.86822 0.78035 0.09017 0.0
C422 C 0.80883 0.76235 0.11754 0.0
C423 C 0.735 0.77098 0.11952 0.0
C424 C 0.68153 0.74812 0.15354 0.0
C425 C 0.63383 0.76228 0.20991 0.0
C426 C 0.63177 0.73374 0.11051 0.0
C427 C 0.73682 0.7257 0.1722 0.0
C428 C 0.81 0.73428 0.15092 0.0
C429 C 0.87088 0.71847 0.1667 0.0
C430 C 0.85659 0.69349 0.20567 0.0
C431 C 0.78204 0.68434 0.22796 0.0
C432 C 0.72157 0.70043 0.21002 0.0
H433 H 0.2202 0.33371 0.3706 0.0
H434 H 0.22043 0.30002 0.55519 0.0
H435 H 0.21452 0.24798 0.5172 0.0
H436 H 0.08842 0.27737 0.32738 0.0
H437 H 0.13524 0.27502 0.24934 0.0
H438 H 0.13774 0.30959 0.29137 0.0
H439 H 0.28309 0.30945 0.26979 0.0
H440 H 0.28104 0.27486 0.22791 0.0
H441 H 0.33318 0.2772 0.29142 0.0
H442 H 0.22113 0.19981 0.45751 0.0
H443 H 0.22635 0.15859 0.38192 0.0
H444 H 0.21041 0.22323 0.2374 0.0
C445 C 0.21833 0.31533 0.403 0.0
C446 C 0.22047 0.32081 0.46584 0.0
C447 C 0.21785 0.29629 0.50702 0.0
C448 C 0.21489 0.26668 0.4858 0.0
C449 C 0.21329 0.26202 0.42348 0.0
C450 C 0.21367 0.28566 0.3828 0.0
C451 C 0.21106 0.27449 0.31819 0.0
C452 C 0.1388 0.28472 0.29524 0.0
C453 C 0.28128 0.2846 0.27426 0.0
C454 C 0.21068 0.24085 0.32864 0.0
C455 C 0.21273 0.23418 0.38964 0.0
C456 C 0.21813 0.20474 0.40987 0.0
C457 C 0.22135 0.18152 0.36667 0.0
C458 C 0.21773 0.18782 0.30426 0.0
C459 C 0.21167 0.21785 0.28515 0.0
H460 H 0.39427 0.08048 0.09013 0.0
H461 H 0.2949 0.99868 0.17282 0.0
H462 H 0.39134 0.9689 0.10822 0.0
H463 H 0.4261 0.055 0.94453 0.0
H464 H 0.51494 0.07349 0.9206 0.0
H465 H 0.4487 0.08933 0.98116 0.0
H466 H 0.54707 0.08895 0.05383 0.0
H467 H 0.61576 0.07355 0.99475 0.0
H468 H 0.59451 0.05466 0.06772 0.0
H469 H 0.48437 0.94812 0.02416 0.0
H470 H 0.59205 0.93751 0.94498 0.0
H471 H 0.62872 0.03291 0.91404 0.0
C472 C 0.39622 0.05651 0.09776 0.0
C473 C 0.33885 0.04179 0.13752 0.0
C474 C 0.33999 1.01022 0.1437 0.0
C475 C 0.3936 0.99317 0.10643 0.0
C476 C 0.44552 1.00822 0.06372 0.0
C477 C 0.44915 0.0392 0.06064 0.0
C478 C 0.50771 0.0497 1.00826 0.0
C479 C 0.47218 0.06796 0.96087 0.0
C480 C 0.57003 0.06773 0.03263 0.0
C481 C 0.53579 1.01977 0.9821 0.0
C482 C 0.49831 0.99617 1.01422 0.0
C483 C 0.51441 0.9664 0.99881 0.0
C484 C 0.5745 0.96056 0.95247 0.0
C485 C 0.61743 0.98439 0.92217 0.0
C486 C 0.59553 1.01432 0.93536 0.0
H487 H 0.37427 0.46014 0.60349 0.0
H488 H 0.27796 0.53875 0.69936 0.0
H489 H 0.37471 0.5706 0.63892 0.0
H490 H 0.57649 0.48702 0.58555 0.0
H491 H 0.59754 0.47047 0.51033 0.0
H492 H 0.5292 0.45319 0.56745 0.0
H493 H 0.43075 0.45455 0.49519 0.0
H494 H 0.49628 0.4726 0.43661 0.0
H495 H 0.40718 0.4899 0.46326 0.0
H496 H 0.46665 0.59442 0.55538 0.0
H497 H 0.57335 0.60746 0.47572 0.0
H498 H 0.60981 0.51317 0.43504 0.0
C499 C 0.37721 0.48366 0.61528 0.0
C500 C 0.32009 0.49694 0.65729 0.0
C501 C 0.32263 0.52817 0.6685 0.0
C502 C 0.37643 0.54646 0.63352 0.0
C503 C 0.42774 0.53299 0.58835 0.0
C504 C 0.43079 0.50217 0.58093 0.0
C505 C 0.4892 0.4935 0.52716 0.0
C506 C 0.55195 0.47502 0.54897 0.0
C507 C 0.45367 0.47665 0.47766 0.0
C508 C 0.51719 0.5242 0.50478 0.0
C509 C 0.48033 0.54671 0.54009 0.0
C510 C 0.49643 0.57695 0.52784 0.0
C511 C 0.5559 0.58421 0.48142 0.0
C512 C 0.59837 0.56131 0.44843 0.0
C513 C 0.57674 0.53106 0.4586 0.0
loop_
_geom_bond_atom_site_label_1
_geom_bond_atom_site_label_2
_geom_bond_distance
_geom_bond_site_symmetry_2
_ccdc_geom_bond_type
Zn0 N4 2.020 . S
Zn0 O8 2.019 . S
Zn0 N10 2.119 . S
Zn0 O18 1.975 . S
C1 N2 1.334 . S
C1 N5 1.336 . S
N2 C1 1.334 . S
N2 C3 1.334 . S
C3 N2 1.334 . S
C3 N4 1.336 . S
N4 Zn0 2.020 . S
N4 C3 1.336 . S
N4 N5 1.354 . S
N5 C1 1.336 . S
N5 N4 1.354 . S
N5 Zn9 2.020 . S
C6 O7 1.244 1_655 S
C6 O30 1.257 1_655 S
O7 C6 1.244 1_455 S
O8 Zn0 2.019 . S
O8 C28 1.257 . S
Zn9 N5 2.020 . S
Zn9 O16 1.975 . S
Zn9 N25 2.119 . S
Zn9 O30 2.019 . S
N10 Zn0 2.119 . S
N10 C12 1.334 . S
N10 C13 1.328 . S
C11 C12 1.391 . S
C11 N14 1.329 . S
C11 H32 0.930 . S
C12 N10 1.334 . S
C12 C11 1.391 . S
C12 H19 0.930 . S
C13 N10 1.328 . S
C13 C15 1.392 . S
C13 H20 0.930 . S
N14 C11 1.329 . S
N14 C15 1.331 . S
C15 C13 1.392 . S
C15 N14 1.331 . S
O16 Zn9 1.975 . S
O16 C17 1.252 . S
C17 O16 1.252 . S
C17 O18 1.252 . S
O18 Zn0 1.975 . S
O18 C17 1.252 . S
H19 C12 0.930 . S
H20 C13 0.930 . S
C21 C22 1.392 . S
C21 N25 1.328 . S
C21 H27 0.930 . S
C22 C21 1.392 . S
C22 N26 1.331 . S
C23 C24 1.391 . S
C23 N26 1.329 . S
C23 H33 0.930 . S
C24 C23 1.391 . S
C24 N25 1.334 . S
C24 H31 0.930 . S
N25 Zn9 2.119 . S
N25 C21 1.328 . S
N25 C24 1.334 . S
N26 C22 1.331 . S
N26 C23 1.329 . S
H27 C21 0.930 . S
C28 O8 1.257 . S
C28 O29 1.244 . S
O29 C28 1.244 . S
O30 C6 1.257 1_455 S
O30 Zn9 2.019 . S
H31 C24 0.930 . S
H32 C11 0.930 . S
H33 C23 0.930 . S
Zn34 N38 2.020 . S
Zn34 O42 2.019 . S
Zn34 N44 2.119 . S
Zn34 O52 1.975 . S
C35 N36 1.334 . S
C35 N39 1.336 . S
N36 C35 1.334 . S
N36 C37 1.334 . S
C37 N36 1.334 . S
C37 N38 1.336 . S
N38 Zn34 2.020 . S
N38 C37 1.336 . S
N38 N39 1.354 . S
N39 C35 1.336 . S
N39 N38 1.354 . S
N39 Zn43 2.020 . S
C40 O41 1.244 . S
C40 O64 1.257 . S
O41 C40 1.244 . S
O42 Zn34 2.019 . S
O42 C62 1.257 1_655 S
Zn43 N39 2.020 . S
Zn43 O50 1.975 . S
Zn43 N59 2.119 . S
Zn43 O64 2.019 . S
N44 Zn34 2.119 . S
N44 C46 1.334 . S
N44 C47 1.328 . S
C45 C46 1.391 . S
C45 N48 1.329 . S
C45 H66 0.930 . S
C46 N44 1.334 . S
C46 C45 1.391 . S
C46 H53 0.930 . S
C47 N44 1.328 . S
C47 C49 1.392 . S
C47 H54 0.930 . S
N48 C45 1.329 . S
N48 C49 1.331 . S
C49 C47 1.392 . S
C49 N48 1.331 . S
O50 Zn43 1.975 . S
O50 C51 1.252 . S
C51 O50 1.252 . S
C51 O52 1.252 . S
O52 Zn34 1.975 . S
O52 C51 1.252 . S
H53 C46 0.930 . S
H54 C47 0.930 . S
C55 C56 1.392 . S
C55 N59 1.328 . S
C55 H61 0.930 . S
C56 C55 1.392 . S
C56 N60 1.331 . S
C57 C58 1.391 . S
C57 N60 1.329 . S
C57 H67 0.930 . S
C58 C57 1.391 . S
C58 N59 1.334 . S
C58 H65 0.930 . S
N59 Zn43 2.119 . S
N59 C55 1.328 . S
N59 C58 1.334 . S
N60 C56 1.331 . S
N60 C57 1.329 . S
H61 C55 0.930 . S
C62 O42 1.257 1_455 S
C62 O63 1.244 1_455 S
O63 C62 1.244 1_655 S
O64 C40 1.257 . S
O64 Zn43 2.019 . S
H65 C58 0.930 . S
H66 C45 0.930 . S
H67 C57 0.930 . S
Zn68 N72 2.020 . S
Zn68 O76 2.019 . S
Zn68 N78 2.119 . S
Zn68 O86 1.975 . S
C69 N70 1.334 . S
C69 N73 1.336 . S
N70 C69 1.334 . S
N70 C71 1.334 . S
C71 N70 1.334 . S
C71 N72 1.336 . S
N72 Zn68 2.020 . S
N72 C71 1.336 . S
N72 N73 1.354 . S
N73 C69 1.336 . S
N73 N72 1.354 . S
N73 Zn77 2.020 . S
C74 O75 1.244 1_455 S
C74 O98 1.257 1_455 S
O75 C74 1.244 1_655 S
O76 Zn68 2.019 . S
O76 C96 1.257 . S
Zn77 N73 2.020 . S
Zn77 O84 1.975 . S
Zn77 N93 2.119 . S
Zn77 O98 2.019 . S
N78 Zn68 2.119 . S
N78 C80 1.334 . S
N78 C81 1.328 . S
C79 C80 1.391 . S
C79 N82 1.329 . S
C79 H100 0.930 . S
C80 N78 1.334 . S
C80 C79 1.391 . S
C80 H87 0.930 . S
C81 N78 1.328 . S
C81 C83 1.392 . S
C81 H88 0.930 . S
N82 C79 1.329 . S
N82 C83 1.331 . S
C83 C81 1.392 . S
C83 N82 1.331 . S
O84 Zn77 1.975 . S
O84 C85 1.252 . S
C85 O84 1.252 . S
C85 O86 1.252 . S
O86 Zn68 1.975 . S
O86 C85 1.252 . S
H87 C80 0.930 . S
H88 C81 0.930 . S
C89 C90 1.392 . S
C89 N93 1.328 . S
C89 H95 0.930 . S
C90 C89 1.392 . S
C90 N94 1.331 . S
C91 C92 1.391 . S
C91 N94 1.329 . S
C91 H101 0.930 . S
C92 C91 1.391 . S
C92 N93 1.334 . S
C92 H99 0.930 . S
N93 Zn77 2.119 . S
N93 C89 1.328 . S
N93 C92 1.334 . S
N94 C90 1.331 . S
N94 C91 1.329 . S
H95 C89 0.930 . S
C96 O76 1.257 . S
C96 O97 1.244 . S
O97 C96 1.244 . S
O98 C74 1.257 1_655 S
O98 Zn77 2.019 . S
H99 C92 0.930 . S
H100 C79 0.930 . S
H101 C91 0.930 . S
Zn102 N106 2.020 . S
Zn102 O110 2.019 . S
Zn102 N112 2.119 . S
Zn102 O120 1.975 . S
C103 N104 1.334 . S
C103 N107 1.336 . S
N104 C103 1.334 . S
N104 C105 1.334 . S
C105 N104 1.334 . S
C105 N106 1.336 . S
N106 Zn102 2.020 . S
N106 C105 1.336 . S
N106 N107 1.354 . S
N107 C103 1.336 . S
N107 N106 1.354 . S
N107 Zn111 2.020 . S
C108 O109 1.244 1_655 S
C108 O132 1.257 1_655 S
O109 C108 1.244 1_455 S
O110 Zn102 2.019 . S
O110 C130 1.257 . S
Zn111 N107 2.020 . S
Zn111 O118 1.975 . S
Zn111 N127 2.119 . S
Zn111 O132 2.019 . S
N112 Zn102 2.119 . S
N112 C114 1.334 . S
N112 C115 1.328 . S
C113 C114 1.391 . S
C113 N116 1.329 . S
C113 H134 0.930 . S
C114 N112 1.334 . S
C114 C113 1.391 . S
C114 H121 0.930 . S
C115 N112 1.328 . S
C115 C117 1.392 . S
C115 H122 0.930 . S
N116 C113 1.329 . S
N116 C117 1.331 . S
C117 C115 1.392 . S
C117 N116 1.331 . S
O118 Zn111 1.975 . S
O118 C119 1.252 . S
C119 O118 1.252 . S
C119 O120 1.252 . S
O120 Zn102 1.975 . S
O120 C119 1.252 . S
H121 C114 0.930 . S
H122 C115 0.930 . S
C123 C124 1.392 . S
C123 N127 1.328 . S
C123 H129 0.930 . S
C124 C123 1.392 . S
C124 N128 1.331 . S
C125 C126 1.391 . S
C125 N128 1.329 . S
C125 H135 0.930 . S
C126 C125 1.391 . S
C126 N127 1.334 . S
C126 H133 0.930 . S
N127 Zn111 2.119 . S
N127 C123 1.328 . S
N127 C126 1.334 . S
N128 C124 1.331 . S
N128 C125 1.329 . S
H129 C123 0.930 . S
C130 O110 1.257 . S
C130 O131 1.244 . S
O131 C130 1.244 . S
O132 C108 1.257 1_455 S
O132 Zn111 2.019 . S
H133 C126 0.930 . S
H134 C113 0.930 . S
H135 C125 0.930 . S
H136 C148 0.930 . S
H137 C150 0.930 . S
H138 C151 0.930 . S
H139 C155 0.959 . S
H140 C155 0.959 . S
H141 C155 0.961 . S
H142 C156 0.960 . S
H143 C156 0.961 . S
H144 C156 0.959 . S
H145 C159 0.929 . S
H146 C160 0.931 . S
H147 C162 0.930 . S
C148 H136 0.930 . S
C148 C149 1.399 . S
C148 C153 1.399 . S
C149 C148 1.399 . S
C149 C150 1.376 . S
C150 H137 0.930 . S
C150 C149 1.376 . S
C150 C151 1.388 . S
C151 H138 0.930 . S
C151 C150 1.388 . S
C151 C152 1.390 . S
C152 C151 1.390 . S
C152 C153 1.394 . S
C152 C158 1.465 . S
C153 C148 1.399 . S
C153 C152 1.394 . S
C153 C154 1.516 . S
C154 C153 1.516 . S
C154 C155 1.502 . S
C154 C156 1.561 . S
C154 C157 1.526 . S
C155 H139 0.959 . S
C155 H140 0.959 . S
C155 H141 0.961 . S
C155 C154 1.502 . S
C156 H142 0.960 . S
C156 H143 0.961 . S
C156 H144 0.959 . S
C156 C154 1.561 . S
C157 C154 1.526 . S
C157 C158 1.396 . S
C157 C162 1.390 . S
C158 C152 1.465 . S
C158 C157 1.396 . S
C158 C159 1.399 . S
C159 H145 0.929 . S
C159 C158 1.399 . S
C159 C160 1.385 . S
C160 H146 0.931 . S
C160 C159 1.385 . S
C160 C161 1.389 . S
C161 C160 1.389 . S
C161 C162 1.387 . S
C162 H147 0.930 . S
C162 C157 1.390 . S
C162 C161 1.387 . S
H163 C175 0.930 . S
H164 C177 0.930 . S
H165 C178 0.930 . S
H166 C182 0.959 . S
H167 C182 0.959 . S
H168 C182 0.961 . S
H169 C183 0.960 . S
H170 C183 0.961 . S
H171 C183 0.959 . S
H172 C186 0.929 . S
H173 C187 0.931 . S
H174 C189 0.930 . S
C175 H163 0.930 . S
C175 C176 1.399 . S
C175 C180 1.399 . S
C176 C175 1.399 . S
C176 C177 1.376 . S
C177 H164 0.930 . S
C177 C176 1.376 . S
C177 C178 1.388 . S
C178 H165 0.930 . S
C178 C177 1.388 . S
C178 C179 1.390 . S
C179 C178 1.390 . S
C179 C180 1.394 . S
C179 C185 1.465 . S
C180 C175 1.399 . S
C180 C179 1.394 . S
C180 C181 1.516 . S
C181 C180 1.516 . S
C181 C182 1.502 . S
C181 C183 1.561 . S
C181 C184 1.526 . S
C182 H166 0.959 . S
C182 H167 0.959 . S
C182 H168 0.961 . S
C182 C181 1.502 . S
C183 H169 0.960 . S
C183 H170 0.961 . S
C183 H171 0.959 . S
C183 C181 1.561 . S
C184 C181 1.526 . S
C184 C185 1.396 . S
C184 C189 1.390 . S
C185 C179 1.465 . S
C185 C184 1.396 . S
C185 C186 1.399 . S
C186 H172 0.929 . S
C186 C185 1.399 . S
C186 C187 1.385 . S
C187 H173 0.931 . S
C187 C186 1.385 . S
C187 C188 1.389 . S
C188 C187 1.389 . S
C188 C189 1.387 . S
C189 H174 0.930 . S
C189 C184 1.390 . S
C189 C188 1.387 . S
H190 C202 0.930 . S
H191 C204 0.930 . S
H192 C205 0.930 . S
H193 C209 0.959 . S
H194 C209 0.959 . S
H195 C209 0.961 . S
H196 C210 0.960 . S
H197 C210 0.961 . S
H198 C210 0.959 . S
H199 C213 0.929 . S
H200 C214 0.931 . S
H201 C216 0.930 . S
C202 H190 0.930 . S
C202 C203 1.399 . S
C202 C207 1.399 . S
C203 C202 1.399 . S
C203 C204 1.376 . S
C204 H191 0.930 . S
C204 C203 1.376 . S
C204 C205 1.388 . S
C205 H192 0.930 . S
C205 C204 1.388 . S
C205 C206 1.390 . S
C206 C205 1.390 . S
C206 C207 1.394 . S
C206 C212 1.465 . S
C207 C202 1.399 . S
C207 C206 1.394 . S
C207 C208 1.516 . S
C208 C207 1.516 . S
C208 C209 1.502 . S
C208 C210 1.561 . S
C208 C211 1.526 . S
C209 H193 0.959 . S
C209 H194 0.959 . S
C209 H195 0.961 . S
C209 C208 1.502 . S
C210 H196 0.960 . S
C210 H197 0.961 . S
C210 H198 0.959 . S
C210 C208 1.561 . S
C211 C208 1.526 . S
C211 C212 1.396 . S
C211 C216 1.390 . S
C212 C206 1.465 . S
C212 C211 1.396 . S
C212 C213 1.399 . S
C213 H199 0.929 . S
C213 C212 1.399 . S
C213 C214 1.385 . S
C214 H200 0.931 . S
C214 C213 1.385 . S
C214 C215 1.389 . S
C215 C214 1.389 . S
C215 C216 1.387 . S
C216 H201 0.930 . S
C216 C211 1.390 . S
C216 C215 1.387 . S
H217 C229 0.930 . S
H218 C231 0.930 . S
H219 C232 0.930 . S
H220 C236 0.959 . S
H221 C236 0.959 . S
H222 C236 0.961 . S
H223 C237 0.960 . S
H224 C237 0.961 . S
H225 C237 0.959 . S
H226 C240 0.929 . S
H227 C241 0.931 . S
H228 C243 0.930 . S
C229 H217 0.930 . S
C229 C230 1.399 . S
C229 C234 1.399 . S
C230 C229 1.399 . S
C230 C231 1.376 . S
C231 H218 0.930 . S
C231 C230 1.376 . S
C231 C232 1.388 . S
C232 H219 0.930 . S
C232 C231 1.388 . S
C232 C233 1.390 . S
C233 C232 1.390 . S
C233 C234 1.394 . S
C233 C239 1.465 . S
C234 C229 1.399 . S
C234 C233 1.394 . S
C234 C235 1.516 . S
C235 C234 1.516 . S
C235 C236 1.502 . S
C235 C237 1.561 . S
C235 C238 1.526 . S
C236 H220 0.959 . S
C236 H221 0.959 . S
C236 H222 0.961 . S
C236 C235 1.502 . S
C237 H223 0.960 . S
C237 H224 0.961 . S
C237 H225 0.959 . S
C237 C235 1.561 . S
C238 C235 1.526 . S
C238 C239 1.396 . S
C238 C243 1.390 . S
C239 C233 1.465 . S
C239 C238 1.396 . S
C239 C240 1.399 . S
C240 H226 0.929 . S
C240 C239 1.399 . S
C240 C241 1.385 . S
C241 H227 0.931 . S
C241 C240 1.385 . S
C241 C242 1.389 . S
C242 C241 1.389 . S
C242 C243 1.387 . S
C243 H228 0.930 . S
C243 C238 1.390 . S
C243 C242 1.387 . S
H244 C256 0.930 1_565 S
H245 C258 0.930 . S
H246 C259 0.930 . S
H247 C263 0.959 . S
H248 C263 0.959 . S
H249 C263 0.961 . S
H250 C264 0.960 . S
H251 C264 0.961 . S
H252 C264 0.959 . S
H253 C267 0.929 . S
H254 C268 0.931 . S
H255 C270 0.930 . S
C256 H244 0.930 1_545 S
C256 C257 1.399 . S
C256 C261 1.399 1_545 S
C257 C256 1.399 . S
C257 C258 1.376 . S
C258 H245 0.930 . S
C258 C257 1.376 . S
C258 C259 1.388 . S
C259 H246 0.930 . S
C259 C258 1.388 . S
C259 C260 1.390 . S
C260 C259 1.390 . S
C260 C261 1.394 1_545 S
C260 C266 1.465 . S
C261 C256 1.399 1_565 S
C261 C260 1.394 1_565 S
C261 C262 1.516 . S
C262 C261 1.516 . S
C262 C263 1.502 . S
C262 C264 1.561 . S
C262 C265 1.526 . S
C263 H247 0.959 . S
C263 H248 0.959 . S
C263 H249 0.961 . S
C263 C262 1.502 . S
C264 H250 0.960 . S
C264 H251 0.961 . S
C264 H252 0.959 . S
C264 C262 1.561 . S
C265 C262 1.526 . S
C265 C266 1.396 1_565 S
C265 C270 1.390 . S
C266 C260 1.465 . S
C266 C265 1.396 1_545 S
C266 C267 1.399 . S
C267 H253 0.929 . S
C267 C266 1.399 . S
C267 C268 1.385 . S
C268 H254 0.931 . S
C268 C267 1.385 . S
C268 C269 1.389 1_545 S
C269 C268 1.389 1_565 S
C269 C270 1.387 . S
C270 H255 0.930 . S
C270 C265 1.390 . S
C270 C269 1.387 . S
H271 C283 0.930 . S
H272 C285 0.930 . S
H273 C286 0.930 . S
H274 C290 0.959 . S
H275 C290 0.959 . S
H276 C290 0.961 . S
H277 C291 0.960 . S
H278 C291 0.961 . S
H279 C291 0.959 . S
H280 C294 0.929 . S
H281 C295 0.931 . S
H282 C297 0.930 . S
C283 H271 0.930 . S
C283 C284 1.399 . S
C283 C288 1.399 . S
C284 C283 1.399 . S
C284 C285 1.376 . S
C285 H272 0.930 . S
C285 C284 1.376 . S
C285 C286 1.388 . S
C286 H273 0.930 . S
C286 C285 1.388 . S
C286 C287 1.390 . S
C287 C286 1.390 . S
C287 C288 1.394 . S
C287 C293 1.465 . S
C288 C283 1.399 . S
C288 C287 1.394 . S
C288 C289 1.516 1_556 S
C289 C288 1.516 1_554 S
C289 C290 1.502 . S
C289 C291 1.561 . S
C289 C292 1.526 . S
C290 H274 0.959 . S
C290 H275 0.959 . S
C290 H276 0.961 . S
C290 C289 1.502 . S
C291 H277 0.960 . S
C291 H278 0.961 . S
C291 H279 0.959 . S
C291 C289 1.561 . S
C292 C289 1.526 . S
C292 C293 1.396 1_554 S
C292 C297 1.390 . S
C293 C287 1.465 . S
C293 C292 1.396 1_556 S
C293 C294 1.399 . S
C294 H280 0.929 . S
C294 C293 1.399 . S
C294 C295 1.385 1_556 S
C295 H281 0.931 . S
C295 C294 1.385 1_554 S
C295 C296 1.389 . S
C296 C295 1.389 . S
C296 C297 1.387 . S
C297 H282 0.930 . S
C297 C292 1.390 . S
C297 C296 1.387 . S
H298 C310 0.930 . S
H299 C312 0.930 . S
H300 C313 0.930 . S
H301 C317 0.959 1_565 S
H302 C317 0.959 . S
H303 C317 0.961 . S
H304 C318 0.960 . S
H305 C318 0.961 . S
H306 C318 0.959 . S
H307 C321 0.929 1_665 S
H308 C322 0.931 . S
H309 C324 0.930 1_556 S
C310 H298 0.930 . S
C310 C311 1.399 . S
C310 C315 1.399 . S
C311 C310 1.399 . S
C311 C312 1.376 1_556 S
C312 H299 0.930 . S
C312 C311 1.376 1_554 S
C312 C313 1.388 . S
C313 H300 0.930 . S
C313 C312 1.388 . S
C313 C314 1.390 . S
C314 C313 1.390 . S
C314 C315 1.394 1_554 S
C314 C320 1.465 1_665 S
C315 C310 1.399 . S
C315 C314 1.394 1_556 S
C315 C316 1.516 1_665 S
C316 C315 1.516 1_445 S
C316 C317 1.502 . S
C316 C318 1.561 1_455 S
C316 C319 1.526 . S
C317 H301 0.959 1_545 S
C317 H302 0.959 . S
C317 H303 0.961 . S
C317 C316 1.502 . S
C318 H304 0.960 . S
C318 H305 0.961 . S
C318 H306 0.959 . S
C318 C316 1.561 1_655 S
C319 C316 1.526 . S
C319 C320 1.396 1_556 S
C319 C324 1.390 1_556 S
C320 C314 1.465 1_445 S
C320 C319 1.396 1_554 S
C320 C321 1.399 . S
C321 H307 0.929 1_445 S
C321 C320 1.399 . S
C321 C322 1.385 . S
C322 H308 0.931 . S
C322 C321 1.385 . S
C322 C323 1.389 . S
C323 C322 1.389 . S
C323 C324 1.387 . S
C324 H309 0.930 1_554 S
C324 C319 1.390 1_554 S
C324 C323 1.387 . S
H325 C337 0.930 . S
H326 C339 0.930 . S
H327 C340 0.930 . S
H328 C344 0.959 . S
H329 C344 0.959 . S
H330 C344 0.961 . S
H331 C345 0.960 . S
H332 C345 0.961 . S
H333 C345 0.959 . S
H334 C348 0.929 . S
H335 C349 0.931 . S
H336 C351 0.930 . S
C337 H325 0.930 . S
C337 C338 1.399 . S
C337 C342 1.399 . S
C338 C337 1.399 . S
C338 C339 1.376 . S
C339 H326 0.930 . S
C339 C338 1.376 . S
C339 C340 1.388 . S
C340 H327 0.930 . S
C340 C339 1.388 . S
C340 C341 1.390 . S
C341 C340 1.390 . S
C341 C342 1.394 . S
C341 C347 1.465 . S
C342 C337 1.399 . S
C342 C341 1.394 . S
C342 C343 1.516 1_455 S
C343 C342 1.516 1_655 S
C343 C344 1.502 . S
C343 C345 1.561 . S
C343 C346 1.526 . S
C344 H328 0.959 . S
C344 H329 0.959 . S
C344 H330 0.961 . S
C344 C343 1.502 . S
C345 H331 0.960 . S
C345 H332 0.961 . S
C345 H333 0.959 . S
C345 C343 1.561 . S
C346 C343 1.526 . S
C346 C347 1.396 1_655 S
C346 C351 1.390 . S
C347 C341 1.465 . S
C347 C346 1.396 1_455 S
C347 C348 1.399 . S
C348 H334 0.929 . S
C348 C347 1.399 . S
C348 C349 1.385 1_455 S
C349 H335 0.931 . S
C349 C348 1.385 1_655 S
C349 C350 1.389 . S
C350 C349 1.389 . S
C350 C351 1.387 . S
C351 H336 0.930 . S
C351 C346 1.390 . S
C351 C350 1.387 . S
H352 C364 0.930 . S
H353 C366 0.930 . S
H354 C367 0.930 . S
H355 C371 0.959 . S
H356 C371 0.959 . S
H357 C371 0.961 1_554 S
H358 C372 0.960 1_554 S
H359 C372 0.961 . S
H360 C372 0.959 . S
H361 C375 0.929 . S
H362 C376 0.931 . S
H363 C378 0.930 . S
C364 H352 0.930 . S
C364 C365 1.399 1_554 S
C364 C369 1.399 1_554 S
C365 C364 1.399 1_556 S
C365 C366 1.376 . S
C366 H353 0.930 . S
C366 C365 1.376 . S
C366 C367 1.388 . S
C367 H354 0.930 . S
C367 C366 1.388 . S
C367 C368 1.390 . S
C368 C367 1.390 . S
C368 C369 1.394 . S
C368 C374 1.465 . S
C369 C364 1.399 1_556 S
C369 C368 1.394 . S
C369 C370 1.516 . S
C370 C369 1.516 . S
C370 C371 1.502 . S
C370 C372 1.561 . S
C370 C373 1.526 . S
C371 H355 0.959 . S
C371 H356 0.959 . S
C371 H357 0.961 1_556 S
C371 C370 1.502 . S
C372 H358 0.960 1_556 S
C372 H359 0.961 . S
C372 H360 0.959 . S
C372 C370 1.561 . S
C373 C370 1.526 . S
C373 C374 1.396 . S
C373 C378 1.390 . S
C374 C368 1.465 . S
C374 C373 1.396 . S
C374 C375 1.399 . S
C375 H361 0.929 . S
C375 C374 1.399 . S
C375 C376 1.385 . S
C376 H362 0.931 . S
C376 C375 1.385 . S
C376 C377 1.389 . S
C377 C376 1.389 . S
C377 C378 1.387 . S
C378 H363 0.930 . S
C378 C373 1.390 . S
C378 C377 1.387 . S
H379 C391 0.930 . S
H380 C393 0.930 . S
H381 C394 0.930 . S
H382 C398 0.959 . S
H383 C398 0.959 . S
H384 C398 0.961 . S
H385 C399 0.960 . S
H386 C399 0.961 . S
H387 C399 0.959 . S
H388 C402 0.929 . S
H389 C403 0.931 . S
H390 C405 0.930 . S
C391 H379 0.930 . S
C391 C392 1.399 . S
C391 C396 1.399 . S
C392 C391 1.399 . S
C392 C393 1.376 . S
C393 H380 0.930 . S
C393 C392 1.376 . S
C393 C394 1.388 . S
C394 H381 0.930 . S
C394 C393 1.388 . S
C394 C395 1.390 . S
C395 C394 1.390 . S
C395 C396 1.394 . S
C395 C401 1.465 . S
C396 C391 1.399 . S
C396 C395 1.394 . S
C396 C397 1.516 . S
C397 C396 1.516 . S
C397 C398 1.502 . S
C397 C399 1.561 . S
C397 C400 1.526 . S
C398 H382 0.959 . S
C398 H383 0.959 . S
C398 H384 0.961 . S
C398 C397 1.502 . S
C399 H385 0.960 . S
C399 H386 0.961 . S
C399 H387 0.959 . S
C399 C397 1.561 . S
C400 C397 1.526 . S
C400 C401 1.396 . S
C400 C405 1.390 . S
C401 C395 1.465 . S
C401 C400 1.396 . S
C401 C402 1.399 . S
C402 H388 0.929 . S
C402 C401 1.399 . S
C402 C403 1.385 . S
C403 H389 0.931 . S
C403 C402 1.385 . S
C403 C404 1.389 . S
C404 C403 1.389 . S
C404 C405 1.387 . S
C405 H390 0.930 . S
C405 C400 1.390 . S
C405 C404 1.387 . S
H406 C418 0.930 . S
H407 C420 0.930 . S
H408 C421 0.930 . S
H409 C425 0.959 . S
H410 C425 0.959 . S
H411 C425 0.961 1_556 S
H412 C426 0.960 1_556 S
H413 C426 0.961 . S
H414 C426 0.959 . S
H415 C429 0.929 . S
H416 C430 0.931 . S
H417 C432 0.930 . S
C418 H406 0.930 . S
C418 C419 1.399 1_556 S
C418 C423 1.399 1_556 S
C419 C418 1.399 1_554 S
C419 C420 1.376 . S
C420 H407 0.930 . S
C420 C419 1.376 . S
C420 C421 1.388 . S
C421 H408 0.930 . S
C421 C420 1.388 . S
C421 C422 1.390 . S
C422 C421 1.390 . S
C422 C423 1.394 . S
C422 C428 1.465 . S
C423 C418 1.399 1_554 S
C423 C422 1.394 . S
C423 C424 1.516 . S
C424 C423 1.516 . S
C424 C425 1.502 . S
C424 C426 1.561 . S
C424 C427 1.526 . S
C425 H409 0.959 . S
C425 H410 0.959 . S
C425 H411 0.961 1_554 S
C425 C424 1.502 . S
C426 H412 0.960 1_554 S
C426 H413 0.961 . S
C426 H414 0.959 . S
C426 C424 1.561 . S
C427 C424 1.526 . S
C427 C428 1.396 . S
C427 C432 1.390 . S
C428 C422 1.465 . S
C428 C427 1.396 . S
C428 C429 1.399 . S
C429 H415 0.929 . S
C429 C428 1.399 . S
C429 C430 1.385 . S
C430 H416 0.931 . S
C430 C429 1.385 . S
C430 C431 1.389 . S
C431 C430 1.389 . S
C431 C432 1.387 . S
C432 H417 0.930 . S
C432 C427 1.390 . S
C432 C431 1.387 . S
H433 C445 0.930 . S
H434 C447 0.930 . S
H435 C448 0.930 . S
H436 C452 0.959 . S
H437 C452 0.959 . S
H438 C452 0.961 . S
H439 C453 0.960 . S
H440 C453 0.961 . S
H441 C453 0.959 . S
H442 C456 0.929 . S
H443 C457 0.931 . S
H444 C459 0.930 . S
C445 H433 0.930 . S
C445 C446 1.399 . S
C445 C450 1.399 . S
C446 C445 1.399 . S
C446 C447 1.376 . S
C447 H434 0.930 . S
C447 C446 1.376 . S
C447 C448 1.388 . S
C448 H435 0.930 . S
C448 C447 1.388 . S
C448 C449 1.390 . S
C449 C448 1.390 . S
C449 C450 1.394 . S
C449 C455 1.465 . S
C450 C445 1.399 . S
C450 C449 1.394 . S
C450 C451 1.516 . S
C451 C450 1.516 . S
C451 C452 1.502 . S
C451 C453 1.561 . S
C451 C454 1.526 . S
C452 H436 0.959 . S
C452 H437 0.959 . S
C452 H438 0.961 . S
C452 C451 1.502 . S
C453 H439 0.960 . S
C453 H440 0.961 . S
C453 H441 0.959 . S
C453 C451 1.561 . S
C454 C451 1.526 . S
C454 C455 1.396 . S
C454 C459 1.390 . S
C455 C449 1.465 . S
C455 C454 1.396 . S
C455 C456 1.399 . S
C456 H442 0.929 . S
C456 C455 1.399 . S
C456 C457 1.385 . S
C457 H443 0.931 . S
C457 C456 1.385 . S
C457 C458 1.389 . S
C458 C457 1.389 . S
C458 C459 1.387 . S
C459 H444 0.930 . S
C459 C454 1.390 . S
C459 C458 1.387 . S
H460 C472 0.930 . S
H461 C474 0.930 . S
H462 C475 0.930 . S
H463 C479 0.959 . S
H464 C479 0.959 . S
H465 C479 0.961 . S
H466 C480 0.960 . S
H467 C480 0.961 . S
H468 C480 0.959 . S
H469 C483 0.929 . S
H470 C484 0.931 . S
H471 C486 0.930 . S
C472 H460 0.930 . S
C472 C473 1.399 . S
C472 C477 1.399 . S
C473 C472 1.399 . S
C473 C474 1.376 . S
C474 H461 0.930 . S
C474 C473 1.376 . S
C474 C475 1.388 . S
C475 H462 0.930 . S
C475 C474 1.388 . S
C475 C476 1.390 . S
C476 C475 1.390 . S
C476 C477 1.394 . S
C476 C482 1.465 1_544 S
C477 C472 1.399 . S
C477 C476 1.394 . S
C477 C478 1.516 1_554 S
C478 C477 1.516 1_556 S
C478 C479 1.502 1_545 S
C478 C480 1.561 . S
C478 C481 1.526 1_545 S
C479 H463 0.959 . S
C479 H464 0.959 . S
C479 H465 0.961 . S
C479 C478 1.502 1_565 S
C480 H466 0.960 . S
C480 H467 0.961 . S
C480 H468 0.959 . S
C480 C478 1.561 . S
C481 C478 1.526 1_565 S
C481 C482 1.396 . S
C481 C486 1.390 . S
C482 C476 1.465 1_566 S
C482 C481 1.396 . S
C482 C483 1.399 1_556 S
C483 H469 0.929 . S
C483 C482 1.399 1_554 S
C483 C484 1.385 1_554 S
C484 H470 0.931 . S
C484 C483 1.385 1_556 S
C484 C485 1.389 . S
C485 C484 1.389 . S
C485 C486 1.387 . S
C486 H471 0.930 . S
C486 C481 1.390 . S
C486 C485 1.387 . S
H487 C499 0.930 . S
H488 C501 0.930 . S
H489 C502 0.930 . S
H490 C506 0.959 . S
H491 C506 0.959 . S
H492 C506 0.961 . S
H493 C507 0.960 . S
H494 C507 0.961 . S
H495 C507 0.959 . S
H496 C510 0.929 . S
H497 C511 0.931 . S
H498 C513 0.930 . S
C499 H487 0.930 . S
C499 C500 1.399 . S
C499 C504 1.399 . S
C500 C499 1.399 . S
C500 C501 1.376 . S
C501 H488 0.930 . S
C501 C500 1.376 . S
C501 C502 1.388 . S
C502 H489 0.930 . S
C502 C501 1.388 . S
C502 C503 1.390 . S
C503 C502 1.390 . S
C503 C504 1.394 . S
C503 C509 1.465 . S
C504 C499 1.399 . S
C504 C503 1.394 . S
C504 C505 1.516 . S
C505 C504 1.516 . S
C505 C506 1.502 . S
C505 C507 1.561 . S
C505 C508 1.526 . S
C506 H490 0.959 . S
C506 H491 0.959 . S
C506 H492 0.961 . S
C506 C505 1.502 . S
C507 H493 0.960 . S
C507 H494 0.961 . S
C507 H495 0.959 . S
C507 C505 1.561 . S
C508 C505 1.526 . S
C508 C509 1.396 . S
C508 C513 1.390 . S
C509 C503 1.465 . S
C509 C508 1.396 . S
C509 C510 1.399 . S
C510 H496 0.929 . S
C510 C509 1.399 . S
C510 C511 1.385 . S
C511 H497 0.931 . S
C511 C510 1.385 . S
C511 C512 1.389 . S
C512 C511 1.389 . S
C512 C513 1.387 . S
C513 H498 0.930 . S
C513 C508 1.390 . S
C513 C512 1.387 . S
C149 C28 1.062 . S
C161 C6 1.092 . S
C176 C40 1.064 . S
C188 C62 1.042 . S
C203 C74 1.082 . S
C215 C96 1.054 . S
C230 C108 1.032 . S
C242 C130 1.083 . S
C257 C15 1.806 . S
C269 C83 1.815 . S
C284 C117 1.818 . S
C296 C56 1.801 . S
C311 C69 1.953 . S
C323 C1 1.943 . S
C338 C103 1.930 . S
C350 C37 1.966 . S
C365 C22 1.554 1_556 S
C377 C119 1.770 . S
C392 C49 1.549 . S
C404 C85 1.771 . S
C419 C90 1.618 1_554 S
C431 C51 1.765 . S
C446 C124 1.567 . S
C458 C17 1.768 . S
C473 C3 1.526 . S
C485 C71 1.433 . S
C500 C105 1.482 . S
C512 C35 1.469 . S
