# Generated by pormake.
# Topology und, (4)-cn, num edge types: 1
# Building blocks:
#     Node 0, Type 0, BuildingBlock: ICAMEG_clean_sbu_1, # of connection points: 4
#     Node 1, Type 0, BuildingBlock: ICAMEG_clean_sbu_1, # of connection points: 4
#     Node 2, Type 0, BuildingBlock: ICAMEG_clean_sbu_1, # of connection points: 4
#     Node 3, Type 0, BuildingBlock: ICAMEG_clean_sbu_1, # of connection points: 4
#     Node 4, Type 0, BuildingBlock: ICAMEG_clean_sbu_1, # of connection points: 4
#     Node 5, Type 0, BuildingBlock: ICAMEG_clean_sbu_1, # of connection points: 4
#     Node 6, Type 0, BuildingBlock: ICAMEG_clean_sbu_1, # of connection points: 4
#     Node 7, Type 0, BuildingBlock: ICAMEG_clean_sbu_1, # of connection points: 4
#     Node 8, Type 0, BuildingBlock: ICAMEG_clean_sbu_1, # of connection points: 4
#     Node 9, Type 0, BuildingBlock: ICAMEG_clean_sbu_1, # of connection points: 4
#     Node 10, Type 0, BuildingBlock: ICAMEG_clean_sbu_1, # of connection points: 4
#     Node 11, Type 0, BuildingBlock: ICAMEG_clean_sbu_1, # of connection points: 4
#     Node 12, Type 0, BuildingBlock: ICAMEG_clean_sbu_1, # of connection points: 4
#     Node 13, Type 0, BuildingBlock: ICAMEG_clean_sbu_1, # of connection points: 4
#     Node 14, Type 0, BuildingBlock: ICAMEG_clean_sbu_1, # of connection points: 4
#     Node 15, Type 0, BuildingBlock: ICAMEG_clean_sbu_1, # of connection points: 4
#     Edge 16, Type (0, 0), BuildingBlock: ZUJKAS_clean_linker_0, # of connection points: 2
#     Edge 17, Type (0, 0), BuildingBlock: ZUJKAS_clean_linker_0, # of connection points: 2
#     Edge 18, Type (0, 0), BuildingBlock: ZUJKAS_clean_linker_0, # of connection points: 2
#     Edge 19, Type (0, 0), BuildingBlock: ZUJKAS_clean_linker_0, # of connection points: 2
#     Edge 20, Type (0, 0), BuildingBlock: ZUJKAS_clean_linker_0, # of connection points: 2
#     Edge 21, Type (0, 0), BuildingBlock: ZUJKAS_clean_linker_0, # of connection points: 2
#     Edge 22, Type (0, 0), BuildingBlock: ZUJKAS_clean_linker_0, # of connection points: 2
#     Edge 23, Type (0, 0), BuildingBlock: ZUJKAS_clean_linker_0, # of connection points: 2
#     Edge 24, Type (0, 0), BuildingBlock: ZUJKAS_clean_linker_0, # of connection points: 2
#     Edge 25, Type (0, 0), BuildingBlock: ZUJKAS_clean_linker_0, # of connection points: 2
#     Edge 26, Type (0, 0), BuildingBlock: ZUJKAS_clean_linker_0, # of connection points: 2
#     Edge 27, Type (0, 0), BuildingBlock: ZUJKAS_clean_linker_0, # of connection points: 2
#     Edge 28, Type (0, 0), BuildingBlock: ZUJKAS_clean_linker_0, # of connection points: 2
#     Edge 29, Type (0, 0), BuildingBlock: ZUJKAS_clean_linker_0, # of connection points: 2
#     Edge 30, Type (0, 0), BuildingBlock: ZUJKAS_clean_linker_0, # of connection points: 2
#     Edge 31, Type (0, 0), BuildingBlock: ZUJKAS_clean_linker_0, # of connection points: 2
#     Edge 32, Type (0, 0), BuildingBlock: ZUJKAS_clean_linker_0, # of connection points: 2
#     Edge 33, Type (0, 0), BuildingBlock: ZUJKAS_clean_linker_0, # of connection points: 2
#     Edge 34, Type (0, 0), BuildingBlock: ZUJKAS_clean_linker_0, # of connection points: 2
#     Edge 35, Type (0, 0), BuildingBlock: ZUJKAS_clean_linker_0, # of connection points: 2
#     Edge 36, Type (0, 0), BuildingBlock: ZUJKAS_clean_linker_0, # of connection points: 2
#     Edge 37, Type (0, 0), BuildingBlock: ZUJKAS_clean_linker_0, # of connection points: 2
#     Edge 38, Type (0, 0), BuildingBlock: ZUJKAS_clean_linker_0, # of connection points: 2
#     Edge 39, Type (0, 0), BuildingBlock: ZUJKAS_clean_linker_0, # of connection points: 2
#     Edge 40, Type (0, 0), BuildingBlock: ZUJKAS_clean_linker_0, # of connection points: 2
#     Edge 41, Type (0, 0), BuildingBlock: ZUJKAS_clean_linker_0, # of connection points: 2
#     Edge 42, Type (0, 0), BuildingBlock: ZUJKAS_clean_linker_0, # of connection points: 2
#     Edge 43, Type (0, 0), BuildingBlock: ZUJKAS_clean_linker_0, # of connection points: 2
#     Edge 44, Type (0, 0), BuildingBlock: ZUJKAS_clean_linker_0, # of connection points: 2
#     Edge 45, Type (0, 0), BuildingBlock: ZUJKAS_clean_linker_0, # of connection points: 2
#     Edge 46, Type (0, 0), BuildingBlock: ZUJKAS_clean_linker_0, # of connection points: 2
#     Edge 47, Type (0, 0), BuildingBlock: ZUJKAS_clean_linker_0, # of connection points: 2
# Relax obj value: 0.022
# Max RMSD: 0.082
# Mean RMSD: 0.082
data_MOF--net-und--node1-ICAMEG_clean_sbu_1--edge1-ZUJKAS_clean_linker_0
_symmetry_space_group_name_H-M    P1
_symmetry_Int_Tables_number       1
_symmetry_cell_setting            triclinic
loop_
_symmetry_equiv_pos_as_xyz
'x, y, z'
_cell_length_a     83.498198
_cell_length_b     83.550107
_cell_length_c     28.67188
_cell_angle_alpha  90.048953
_cell_angle_beta   90.020195
_cell_angle_gamma 90.10464
loop_
_atom_site_label
_atom_site_type_symbol
_atom_site_fract_x
_atom_site_fract_y
_atom_site_fract_z
_atom_type_partial_charge
Co0 Co 0.27597 0.33398 0.0113 0.0
Co1 Co 0.23529 0.33451 0.00399 0.0
O2 O 0.25581 0.34599 0.00816 0.0
C3 C 0.28362 0.35985 0.94212 0.0
O4 O 0.27006 0.35718 0.92024 0.0
C5 C 0.22887 0.36161 0.07091 0.0
O6 O 0.24349 0.36064 0.08744 0.0
O7 O 0.24032 0.32311 0.06339 0.0
O8 O 0.2655 0.31607 0.04654 0.0
H9 H 0.20001 0.28582 0.01256 0.0
H10 H 0.27555 0.36762 0.04421 0.0
O11 O 0.28741 0.35157 0.97763 0.0
H12 H 0.29311 0.3359 0.1798 0.0
H13 H 0.33556 0.32769 0.03201 0.0
H14 H 0.2848 0.30002 0.99626 0.0
H15 H 0.28716 0.32274 0.10482 0.0
H16 H 0.31011 0.3426 0.03026 0.0
O17 O 0.22413 0.35198 0.03936 0.0
H18 H 0.22556 0.30062 0.01584 0.0
H19 H 0.20139 0.3441 0.98582 0.0
H20 H 0.30996 0.28462 0.99801 0.0
H21 H 0.28166 0.3813 0.11837 0.0
H22 H 0.33558 0.29847 0.01599 0.0
H23 H 0.29044 0.36541 0.18691 0.0
O24 O 0.27067 0.32329 0.95105 0.0
H25 H 0.23209 0.38289 0.90048 0.0
H26 H 0.22348 0.32458 0.90977 0.0
H27 H 0.21821 0.33862 0.8358 0.0
H28 H 0.22246 0.36801 0.83084 0.0
H29 H 0.2374 0.36833 0.97363 0.0
H30 H 0.17556 0.3298 0.98263 0.0
H31 H 0.17477 0.30043 0.99586 0.0
O32 O 0.24528 0.31671 0.96698 0.0
C33 C 0.2528 0.31468 0.07095 0.0
C34 C 0.2002 0.29861 0.00664 0.0
C35 C 0.18648 0.3233 0.9899 0.0
N36 N 0.215 0.3232 1.00082 0.0
C37 C 0.21465 0.30706 0.00838 0.0
C38 C 0.20114 0.33134 0.9919 0.0
C39 C 0.18605 0.30682 0.99731 0.0
C40 C 0.2795 0.36063 0.07375 0.0
N41 N 0.28094 0.34439 0.07016 0.0
C42 C 0.28289 0.36844 0.11571 0.0
C43 C 0.28779 0.35951 0.15417 0.0
C44 C 0.28927 0.34296 0.15023 0.0
C45 C 0.28579 0.33556 0.10771 0.0
C46 C 0.32447 0.32152 0.02415 0.0
C47 C 0.29589 0.30612 0.00426 0.0
C48 C 0.31003 0.32991 0.02296 0.0
N49 N 0.29596 0.32218 0.01332 0.0
C50 C 0.3101 0.29734 0.00513 0.0
C51 C 0.32447 0.30512 0.01519 0.0
C52 C 0.258 0.31521 0.9427 0.0
C53 C 0.23014 0.37009 0.90224 0.0
C54 C 0.22545 0.33735 0.90787 0.0
C55 C 0.22239 0.34525 0.8659 0.0
C56 C 0.22477 0.36173 0.86316 0.0
N57 N 0.2307 0.34563 0.94609 0.0
C58 C 0.23307 0.36179 0.94363 0.0
Co59 Co 0.93079 0.98216 0.25183 0.0
Co60 Co 0.92768 0.02283 0.25804 0.0
O61 O 0.91786 1.00166 0.25296 0.0
C62 C 0.90457 0.97494 0.31941 0.0
O63 O 0.90673 0.98909 0.33834 0.0
C64 C 0.91098 0.04079 0.1833 0.0
O65 O 0.92517 0.04392 0.16569 0.0
O66 O 0.9407 0.01828 0.20114 0.0
O67 O 0.94836 0.99313 0.21636 0.0
H68 H 0.97351 0.06187 0.25444 0.0
H69 H 0.89736 0.9816 0.21705 0.0
O70 O 0.91345 0.97036 0.2859 0.0
H71 H 0.93039 0.96339 0.08477 0.0
H72 H 0.93958 0.92275 0.23665 0.0
H73 H 0.9651 0.97494 0.26794 0.0
H74 H 0.94291 0.97033 0.16001 0.0
H75 H 0.92361 0.94755 0.23603 0.0
O76 O 0.90978 0.03166 0.21877 0.0
H77 H 0.9608 0.03524 0.24971 0.0
H78 H 0.91518 0.05588 0.27519 0.0
H79 H 0.98154 0.95045 0.26854 0.0
H80 H 0.88432 0.9746 0.14254 0.0
H81 H 0.96878 0.92412 0.2528 0.0
H82 H 0.90088 0.96545 0.07572 0.0
O83 O 0.94105 0.98839 0.31197 0.0
H84 H 0.87689 0.02368 0.35205 0.0
H85 H 0.93483 0.03517 0.35382 0.0
H86 H 0.91887 0.0398 0.42483 0.0
H87 H 0.88967 0.03411 0.4242 0.0
H88 H 0.89334 0.01897 0.28201 0.0
H89 H 0.92738 0.08273 0.28007 0.0
H90 H 0.95676 0.08584 0.2697 0.0
O91 O 0.94547 0.01445 0.2984 0.0
C92 C 0.94959 0.00615 0.19332 0.0
C93 C 0.9607 0.06066 0.25905 0.0
C94 C 0.93481 0.07237 0.27344 0.0
N95 N 0.93728 0.04399 0.26225 0.0
C96 C 0.95344 0.04561 0.25643 0.0
C97 C 0.92797 0.05714 0.27064 0.0
C98 C 0.95129 0.07411 0.26761 0.0
C99 C 0.90463 0.97753 0.18823 0.0
N100 N 0.92087 0.97631 0.19298 0.0
C101 C 0.89719 0.97362 0.14608 0.0
C102 C 0.90649 0.9685 0.10859 0.0
C103 C 0.92304 0.96735 0.11364 0.0
C104 C 0.93007 0.97135 0.15631 0.0
C105 C 0.94528 0.93416 0.2435 0.0
C106 C 0.95947 0.96354 0.26085 0.0
C107 C 0.93629 0.94824 0.24333 0.0
N108 N 0.94343 0.96269 0.25168 0.0
C109 C 0.96884 0.94971 0.26133 0.0
C110 C 0.96167 0.93493 0.25254 0.0
C111 C 0.94802 1.00163 0.32147 0.0
C112 C 0.8896 0.02626 0.35271 0.0
C113 C 0.92216 0.03253 0.35332 0.0
C114 C 0.91317 0.03525 0.39361 0.0
C115 C 0.89678 0.03208 0.39321 0.0
N116 N 0.91503 0.02684 0.31368 0.0
C117 C 0.89896 0.0237 0.31307 0.0
Co118 Co 0.23422 0.6775 0.50664 0.0
Co119 Co 0.27497 0.67816 0.50058 0.0
O120 O 0.25476 0.66611 0.50335 0.0
C121 C 0.22806 0.65056 0.43907 0.0
O122 O 0.24262 0.65191 0.42231 0.0
C123 C 0.28196 0.65176 0.56869 0.0
O124 O 0.26766 0.6533 0.5871 0.0
O125 O 0.26944 0.68905 0.56032 0.0
O126 O 0.24406 0.6954 0.54375 0.0
H127 H 0.30889 0.72771 0.51336 0.0
H128 H 0.23585 0.64368 0.53721 0.0
O129 O 0.22323 0.65995 0.47108 0.0
H130 H 0.21655 0.67361 0.67435 0.0
H131 H 0.17442 0.68202 0.52595 0.0
H132 H 0.22452 0.71134 0.49401 0.0
H133 H 0.22224 0.68757 0.6005 0.0
H134 H 0.20026 0.6678 0.52378 0.0
O135 O 0.28636 0.66081 0.5354 0.0
H136 H 0.28373 0.71222 0.5148 0.0
H137 H 0.30918 0.66961 0.48304 0.0
H138 H 0.19896 0.72604 0.49626 0.0
H139 H 0.23006 0.62919 0.6102 0.0
H140 H 0.17366 0.71136 0.51233 0.0
H141 H 0.2204 0.64419 0.6795 0.0
O142 O 0.23945 0.68884 0.44731 0.0
H143 H 0.28093 0.63043 0.39533 0.0
H144 H 0.28654 0.68905 0.40708 0.0
H145 H 0.29277 0.67559 0.33277 0.0
H146 H 0.29004 0.64605 0.32659 0.0
H147 H 0.27456 0.64441 0.46879 0.0
H148 H 0.33463 0.68462 0.48164 0.0
H149 H 0.33458 0.7139 0.49669 0.0
O150 O 0.26464 0.6959 0.46432 0.0
C151 C 0.25672 0.69705 0.56824 0.0
C152 C 0.30906 0.71496 0.50666 0.0
C153 C 0.32351 0.69077 0.48892 0.0
N154 N 0.29496 0.69004 0.49882 0.0
C155 C 0.29485 0.70613 0.50736 0.0
C156 C 0.30906 0.68233 0.4899 0.0
C157 C 0.32347 0.7072 0.49734 0.0
C158 C 0.23149 0.65026 0.56705 0.0
N159 N 0.22937 0.66645 0.5645 0.0
C160 C 0.2283 0.64201 0.60836 0.0
C161 C 0.22291 0.65043 0.64725 0.0
C162 C 0.22076 0.66694 0.6444 0.0
C163 C 0.22407 0.67479 0.60252 0.0
C164 C 0.18536 0.68855 0.51895 0.0
C165 C 0.21358 0.70487 0.50119 0.0
C166 C 0.20003 0.68056 0.51753 0.0
N167 N 0.21391 0.68874 0.50895 0.0
C168 C 0.19913 0.71326 0.50234 0.0
C169 C 0.18494 0.70501 0.51132 0.0
C170 C 0.25196 0.69726 0.43981 0.0
C171 C 0.28219 0.6433 0.39761 0.0
C172 C 0.28516 0.67622 0.40459 0.0
C173 C 0.28879 0.66865 0.36246 0.0
C174 C 0.28727 0.65208 0.35903 0.0
N175 N 0.28016 0.66753 0.44228 0.0
C176 C 0.27867 0.65128 0.43918 0.0
Co177 Co 0.58303 0.02768 0.74496 0.0
Co178 Co 0.58331 0.98719 0.75758 0.0
O179 O 0.59486 0.00753 0.75113 0.0
C180 C 0.60862 0.03621 0.81445 0.0
O181 O 0.60553 0.02313 0.83818 0.0
C182 C 0.60945 0.97944 0.68909 0.0
O183 O 0.60716 0.99317 0.66793 0.0
O184 O 0.572 0.99132 0.69739 0.0
O185 O 0.56516 0.01683 0.71024 0.0
H186 H 0.53453 0.95192 0.75245 0.0
H187 H 0.61679 0.02616 0.71354 0.0
O188 O 0.60063 0.03948 0.7779 0.0
H189 H 0.58594 0.04205 0.57446 0.0
H190 H 0.57744 0.0869 0.71637 0.0
H191 H 0.54906 0.03704 0.7572 0.0
H192 H 0.57236 0.03756 0.64965 0.0
H193 H 0.59209 0.06139 0.72214 0.0
O194 O 0.60087 0.97555 0.72399 0.0
H195 H 0.5494 0.97736 0.74626 0.0
H196 H 0.5928 0.95361 0.78019 0.0
H197 H 0.53392 0.06227 0.75144 0.0
H198 H 0.63089 0.03075 0.63916 0.0
H199 H 0.54812 0.08744 0.73089 0.0
H200 H 0.61543 0.03869 0.56889 0.0
O201 O 0.57195 0.02341 0.80538 0.0
H202 H 0.63153 0.98539 0.86225 0.0
H203 H 0.57316 0.97691 0.85305 0.0
H204 H 0.58706 0.97278 0.9279 0.0
H205 H 0.61648 0.97697 0.93282 0.0
H206 H 0.6171 0.98958 0.78818 0.0
H207 H 0.57842 0.92789 0.78634 0.0
H208 H 0.54906 0.92695 0.77261 0.0
O209 O 0.56546 0.99777 0.79292 0.0
C210 C 0.56369 1.00371 0.68779 0.0
C211 C 0.54732 0.95218 0.75859 0.0
C212 C 0.57195 0.93869 0.77755 0.0
N213 N 0.57194 0.96699 0.76304 0.0
C214 C 0.5558 0.96656 0.75521 0.0
C215 C 0.58004 0.95328 0.77387 0.0
C216 C 0.55548 0.93817 0.76987 0.0
C217 C 0.61 0.02976 0.68323 0.0
N218 N 0.59377 0.0316 0.686 0.0
C219 C 0.61804 0.03228 0.64116 0.0
C220 C 0.60936 0.03671 0.60173 0.0
C221 C 0.59281 0.03858 0.60482 0.0
C222 C 0.58517 0.03595 0.64747 0.0
C223 C 0.57111 0.07601 0.72532 0.0
C224 C 0.55532 0.04793 0.74808 0.0
C225 C 0.57936 0.06153 0.72879 0.0
N226 N 0.57143 0.04771 0.73982 0.0
C227 C 0.54668 0.06219 0.74495 0.0
C228 C 0.55466 0.07631 0.73345 0.0
C229 C 0.56382 0.0109 0.81521 0.0
C230 C 0.61872 0.98348 0.86052 0.0
C231 C 0.58594 0.97886 0.85493 0.0
C232 C 0.59376 0.97644 0.8974 0.0
C233 C 0.61026 0.97879 0.90012 0.0
N234 N 0.59432 0.98345 0.81621 0.0
C235 C 0.61049 0.98578 0.81864 0.0
Co236 Co 0.73261 0.68095 1.00216 0.0
Co237 Co 0.77322 0.67745 0.0076 0.0
O238 O 0.75194 0.66778 0.00309 0.0
C239 C 0.72487 0.65483 0.06964 0.0
O240 O 0.73905 0.65664 0.08872 0.0
C241 C 0.79095 0.6601 0.93332 0.0
O242 O 0.79425 0.67411 0.91485 0.0
O243 O 0.76869 0.69028 0.95026 0.0
O244 O 0.74379 0.6984 0.96692 0.0
H245 H 0.81268 0.72287 1.00197 0.0
H246 H 0.7316 0.64761 0.96697 0.0
O247 O 0.72056 0.66378 0.03604 0.0
H248 H 0.71371 0.68101 0.83522 0.0
H249 H 0.67329 0.69062 0.9872 0.0
H250 H 0.72587 0.71531 0.01895 0.0
H251 H 0.72085 0.69333 0.91057 0.0
H252 H 0.69788 0.67431 0.98625 0.0
O253 O 0.78184 0.65926 0.96895 0.0
H254 H 0.78592 0.71039 0.99803 0.0
H255 H 0.8062 0.66472 0.02467 0.0
H256 H 0.70161 0.73209 0.01988 0.0
H257 H 0.7244 0.63476 0.89234 0.0
H258 H 0.67508 0.71975 0.00391 0.0
H259 H 0.71541 0.6515 0.82578 0.0
O260 O 0.73906 0.691 0.06235 0.0
H261 H 0.77365 0.62713 0.10359 0.0
H262 H 0.78584 0.68489 0.10288 0.0
H263 H 0.79041 0.66924 0.17444 0.0
H264 H 0.78437 0.64012 0.17506 0.0
H265 H 0.769 0.64329 0.03298 0.0
H266 H 0.83318 0.6767 0.02877 0.0
H267 H 0.83655 0.70598 0.01743 0.0
O268 O 0.76505 0.69548 0.04758 0.0
C269 C 0.75666 0.69937 0.94306 0.0
C270 C 0.81137 0.7101 0.007 0.0
C271 C 0.82288 0.68419 0.02205 0.0
N272 N 0.79449 0.68686 0.01117 0.0
C273 C 0.79624 0.70297 0.00482 0.0
C274 C 0.80757 0.67748 0.01967 0.0
C275 C 0.82475 0.70062 0.01567 0.0
C276 C 0.7276 0.65496 0.93826 0.0
N277 N 0.72659 0.67119 0.94322 0.0
C278 C 0.72358 0.64762 0.89605 0.0
C279 C 0.71855 0.65703 0.8587 0.0
C280 C 0.7176 0.67358 0.86397 0.0
C281 C 0.72171 0.6805 0.9067 0.0
C282 C 0.68479 0.69614 0.99416 0.0
C283 C 0.71438 0.70986 0.01177 0.0
C284 C 0.69874 0.68695 0.99381 0.0
N285 N 0.71331 0.69386 1.00229 0.0
C286 C 0.70068 0.71942 0.01244 0.0
C287 C 0.6858 0.71248 0.00352 0.0
C288 C 0.75234 0.69797 0.07134 0.0
C289 C 0.77638 0.6398 0.10371 0.0
C290 C 0.78305 0.67226 0.10292 0.0
C291 C 0.78574 0.66344 0.14352 0.0
C292 C 0.78237 0.6471 0.14382 0.0
N293 N 0.7772 0.66501 0.06365 0.0
C294 C 0.77386 0.649 0.06374 0.0
Co295 Co 0.08306 0.03027 0.759 0.0
Co296 Co 0.08654 0.98967 0.75227 0.0
O297 O 0.09618 0.01092 0.75711 0.0
C298 C 0.10898 0.03787 0.69084 0.0
O299 O 0.10688 0.02375 0.6717 0.0
C300 C 0.10407 0.97188 0.82598 0.0
O301 O 0.09011 0.96842 0.84453 0.0
O302 O 0.07383 0.99401 0.80992 0.0
O303 O 0.06574 0.01903 0.79484 0.0
H304 H 0.04114 0.95017 0.75774 0.0
H305 H 0.1166 0.03109 0.7928 0.0
O306 O 0.10015 0.04231 0.72461 0.0
H307 H 0.08386 0.04876 0.92631 0.0
H308 H 0.07367 0.08954 0.77538 0.0
H309 H 0.04861 0.03713 0.74408 0.0
H310 H 0.07115 0.04183 0.85135 0.0
H311 H 0.08991 0.06492 0.7751 0.0
O312 O 0.1048 0.98101 0.79042 0.0
H313 H 0.0536 0.97692 0.76212 0.0
H314 H 0.09928 0.95677 0.7343 0.0
H315 H 0.0319 0.06143 0.74439 0.0
H316 H 0.12983 0.03809 0.86702 0.0
H317 H 0.04442 0.08788 0.76014 0.0
H318 H 0.11342 0.04697 0.93446 0.0
O319 O 0.07265 0.024 0.69911 0.0
H320 H 0.13671 0.98946 0.65543 0.0
H321 H 0.07891 0.97732 0.65683 0.0
H322 H 0.09444 0.97292 0.5849 0.0
H323 H 0.12358 0.97894 0.58393 0.0
H324 H 0.12068 0.99394 0.7264 0.0
H325 H 0.08732 0.9298 0.72973 0.0
H326 H 0.05803 0.92638 0.74144 0.0
O327 O 0.06841 0.99792 0.71291 0.0
C328 C 0.0648 0.00602 0.81801 0.0
C329 C 0.05391 0.95151 0.75254 0.0
C330 C 0.07982 0.94007 0.73681 0.0
N331 N 0.07714 0.96841 0.74839 0.0
C332 C 0.06103 0.96662 0.75496 0.0
C333 C 0.08653 0.95537 0.73945 0.0
C334 C 0.0634 0.93816 0.7434 0.0
C335 C 0.10939 0.03505 0.82189 0.0
N336 N 0.09313 0.03611 0.81764 0.0
C337 C 0.11694 0.03895 0.86387 0.0
C338 C 0.10773 0.04392 0.90171 0.0
C339 C 0.09114 0.04492 0.89717 0.0
C340 C 0.08401 0.04093 0.85465 0.0
C341 C 0.06807 0.07809 0.76853 0.0
C342 C 0.05414 0.04858 0.75117 0.0
C343 C 0.07721 0.06411 0.7682 0.0
N344 N 0.0702 0.04959 0.75984 0.0
C345 C 0.04462 0.06231 0.7512 0.0
C346 C 0.05166 0.07714 0.76 0.0
C347 C 0.06572 0.01073 0.68987 0.0
C348 C 0.12404 0.98674 0.65546 0.0
C349 C 0.09155 0.9801 0.65664 0.0
C350 C 0.1003 0.97751 0.61583 0.0
C351 C 0.11665 0.98087 0.61533 0.0
N352 N 0.09887 0.98585 0.69591 0.0
C353 C 0.1149 0.98917 0.69564 0.0
Co354 Co 0.77516 0.33422 0.49897 0.0
Co355 Co 0.73459 0.33339 0.51001 0.0
O356 O 0.75467 0.34551 0.50498 0.0
C357 C 0.7823 0.36067 0.56732 0.0
O358 O 0.76821 0.35874 0.58681 0.0
C359 C 0.72608 0.35901 0.44095 0.0
O360 O 0.73926 0.35614 0.41745 0.0
O361 O 0.73924 0.32262 0.44939 0.0
O362 O 0.76487 0.31635 0.46277 0.0
H363 H 0.70052 0.28385 0.50041 0.0
H364 H 0.77256 0.36803 0.46904 0.0
O365 O 0.78656 0.35179 0.53343 0.0
H366 H 0.79033 0.33857 0.32929 0.0
H367 H 0.83465 0.33006 0.47224 0.0
H368 H 0.78519 0.30042 0.50979 0.0
H369 H 0.78601 0.32445 0.40368 0.0
H370 H 0.80879 0.34413 0.47782 0.0
O371 O 0.72277 0.35091 0.47726 0.0
H372 H 0.72563 0.29936 0.49618 0.0
H373 H 0.70067 0.34188 0.53188 0.0
H374 H 0.81078 0.28585 0.50415 0.0
H375 H 0.77692 0.38267 0.39545 0.0
H376 H 0.83575 0.30069 0.48525 0.0
H377 H 0.78582 0.36791 0.32486 0.0
O378 O 0.77083 0.32274 0.55873 0.0
H379 H 0.73028 0.38078 0.61723 0.0
H380 H 0.72444 0.3222 0.6046 0.0
H381 H 0.71937 0.33543 0.68002 0.0
H382 H 0.72223 0.36494 0.68666 0.0
H383 H 0.73548 0.36704 0.54261 0.0
H384 H 0.67526 0.32686 0.53612 0.0
H385 H 0.6751 0.29762 0.52051 0.0
O386 O 0.74547 0.31556 0.54447 0.0
C387 C 0.75187 0.31468 0.43981 0.0
C388 C 0.70044 0.29659 0.50738 0.0
C389 C 0.68627 0.32073 0.52736 0.0
N390 N 0.71464 0.3215 0.51397 0.0
C391 C 0.71463 0.30543 0.50511 0.0
C392 C 0.70068 0.32918 0.52476 0.0
C393 C 0.68618 0.30432 0.51862 0.0
C394 C 0.77657 0.36155 0.43858 0.0
N395 N 0.77907 0.34541 0.44074 0.0
C396 C 0.77896 0.36989 0.39697 0.0
C397 C 0.78394 0.3616 0.35736 0.0
C398 C 0.78645 0.34514 0.35981 0.0
C399 C 0.78393 0.33719 0.40201 0.0
C400 C 0.82385 0.32346 0.48047 0.0
C401 C 0.79599 0.30695 0.50139 0.0
C402 C 0.80918 0.33137 0.48383 0.0
N403 N 0.79547 0.32309 0.49395 0.0
C404 C 0.81045 0.29864 0.49832 0.0
C405 C 0.82446 0.30698 0.48775 0.0
C406 C 0.75847 0.31423 0.56754 0.0
C407 C 0.72897 0.36792 0.61476 0.0
C408 C 0.72585 0.33503 0.60726 0.0
C409 C 0.72289 0.34246 0.65003 0.0
C410 C 0.72448 0.35902 0.65372 0.0
N411 N 0.73028 0.34384 0.56919 0.0
C412 C 0.73183 0.36008 0.57255 0.0
Co413 Co 0.42969 0.983 0.25236 0.0
Co414 Co 0.42611 0.02362 0.25001 0.0
O415 O 0.41646 1.0023 0.25279 0.0
C416 C 0.40316 0.97575 0.18527 0.0
O417 O 0.4045 0.99022 0.16796 0.0
C418 C 0.40862 0.04078 0.32519 0.0
O419 O 0.42259 0.04409 0.34397 0.0
O420 O 0.43889 0.01863 0.30714 0.0
O421 O 0.44712 0.99394 0.28857 0.0
H422 H 0.47154 0.06301 0.25919 0.0
H423 H 0.39633 0.98168 0.28741 0.0
O424 O 0.41253 0.97113 0.21756 0.0
H425 H 0.42978 0.96268 0.4178 0.0
H426 H 0.43957 0.92365 0.26299 0.0
H427 H 0.46409 0.97653 0.23527 0.0
H428 H 0.44209 0.97047 0.34306 0.0
H429 H 0.42316 0.94814 0.2657 0.0
O430 O 0.40788 0.03187 0.28909 0.0
H431 H 0.45906 0.03625 0.261 0.0
H432 H 0.41338 0.05671 0.23516 0.0
H433 H 0.48096 0.95235 0.23262 0.0
H434 H 0.38349 0.97384 0.36142 0.0
H435 H 0.46871 0.92567 0.24655 0.0
H436 H 0.40025 0.96428 0.4273 0.0
O437 O 0.43974 0.98999 0.19267 0.0
H438 H 0.37582 0.02509 0.1537 0.0
H439 H 0.43367 0.03699 0.15575 0.0
H440 H 0.41806 0.04226 0.08448 0.0
H441 H 0.38889 0.03638 0.08319 0.0
H442 H 0.39193 0.01971 0.22399 0.0
H443 H 0.42537 0.0837 0.23317 0.0
H444 H 0.45465 0.08698 0.2452 0.0
O445 O 0.44421 0.01581 0.20968 0.0
C446 C 0.44804 0.00659 0.31345 0.0
C447 C 0.45877 0.06174 0.25388 0.0
C448 C 0.43285 0.07335 0.23927 0.0
N449 N 0.43552 0.0449 0.24815 0.0
C450 C 0.45163 0.04661 0.25486 0.0
C451 C 0.42614 0.05804 0.24045 0.0
C452 C 0.44928 0.07518 0.24603 0.0
C453 C 0.40369 0.97744 0.31581 0.0
N454 N 0.41993 0.97648 0.31081 0.0
C455 C 0.39636 0.97305 0.35768 0.0
C456 C 0.40577 0.96771 0.39464 0.0
C457 C 0.42234 0.96681 0.38935 0.0
C458 C 0.42925 0.97129 0.34697 0.0
C459 C 0.44505 0.93521 0.25691 0.0
C460 C 0.45868 0.96497 0.24156 0.0
C461 C 0.43581 0.94911 0.25826 0.0
N462 N 0.44267 0.96376 0.25088 0.0
C463 C 0.46829 0.95132 0.23993 0.0
C464 C 0.4614 0.93635 0.24771 0.0
C465 C 0.44672 1.00334 0.18488 0.0
C466 C 0.3885 0.02775 0.15387 0.0
C467 C 0.42102 0.03425 0.1554 0.0
C468 C 0.41222 0.03734 0.11498 0.0
C469 C 0.39585 0.03406 0.1143 0.0
N470 N 0.41373 0.02808 0.19413 0.0
C471 C 0.39768 0.02482 0.19368 0.0
Co472 Co 0.77578 0.83436 0.51084 0.0
Co473 Co 0.73509 0.83456 0.50073 0.0
O474 O 0.7555 0.84614 0.50612 0.0
C475 C 0.78321 0.86051 0.44246 0.0
O476 O 0.76923 0.85843 0.42242 0.0
C477 C 0.72806 0.86118 0.56858 0.0
O478 O 0.74246 0.85989 0.5865 0.0
O479 O 0.73974 0.82312 0.56029 0.0
O480 O 0.76525 0.81651 0.54625 0.0
H481 H 0.70004 0.78565 0.50664 0.0
H482 H 0.77478 0.86814 0.54223 0.0
O483 O 0.78734 0.85184 0.47687 0.0
H484 H 0.79161 0.8373 0.68029 0.0
H485 H 0.83527 0.8288 0.53531 0.0
H486 H 0.78506 0.80041 0.49779 0.0
H487 H 0.78635 0.8237 0.60553 0.0
H488 H 0.80969 0.84343 0.53141 0.0
O489 O 0.72361 0.85191 0.53577 0.0
H490 H 0.72548 0.8006 0.51157 0.0
H491 H 0.70125 0.84399 0.48084 0.0
H492 H 0.81036 0.78529 0.50169 0.0
H493 H 0.78018 0.88227 0.61615 0.0
H494 H 0.8357 0.7995 0.52057 0.0
H495 H 0.78859 0.86681 0.68592 0.0
O496 O 0.77104 0.82332 0.45074 0.0
H497 H 0.73182 0.88314 0.39803 0.0
H498 H 0.72414 0.82468 0.40558 0.0
H499 H 0.71918 0.83881 0.33158 0.0
H500 H 0.72297 0.86827 0.3275 0.0
H501 H 0.73687 0.86848 0.47118 0.0
H502 H 0.67554 0.82954 0.47598 0.0
H503 H 0.67483 0.80014 0.48874 0.0
O504 O 0.74543 0.81686 0.46405 0.0
C505 C 0.75226 0.81491 0.56923 0.0
C506 C 0.7002 0.79846 0.50092 0.0
C507 C 0.68644 0.82309 0.48377 0.0
N508 N 0.71488 0.82314 0.49629 0.0
C509 C 0.71457 0.80698 0.50358 0.0
C510 C 0.70104 0.83121 0.48671 0.0
C511 C 0.68606 0.80659 0.49091 0.0
C512 C 0.77859 0.86135 0.5723 0.0
N513 N 0.78023 0.84511 0.56951 0.0
C514 C 0.78157 0.86941 0.61413 0.0
C515 C 0.78626 0.86072 0.65328 0.0
C516 C 0.78793 0.84416 0.65016 0.0
C517 C 0.78485 0.83652 0.60776 0.0
C518 C 0.8243 0.82247 0.52709 0.0
C519 C 0.79602 0.80667 0.5062 0.0
C520 C 0.80978 0.8307 0.5247 0.0
N521 N 0.79587 0.82277 0.51457 0.0
C522 C 0.81032 0.79805 0.50828 0.0
C523 C 0.82454 0.80603 0.51884 0.0
C524 C 0.75847 0.81525 0.44126 0.0
C525 C 0.73009 0.8703 0.39939 0.0
C526 C 0.72594 0.83747 0.40404 0.0
C527 C 0.72304 0.84542 0.36207 0.0
C528 C 0.72515 0.86195 0.35981 0.0
N529 N 0.73078 0.84574 0.44273 0.0
C530 C 0.73287 0.86195 0.44078 0.0
Co531 Co 0.42517 0.48891 0.75006 0.0
Co532 Co 0.42911 0.52949 0.75587 0.0
O533 O 0.41578 0.51025 0.75457 0.0
C534 C 0.40749 0.47154 0.82441 0.0
O535 O 0.42143 0.46793 0.84287 0.0
C536 C 0.40317 0.53709 0.68778 0.0
O537 O 0.40518 0.52295 0.66872 0.0
O538 O 0.43933 0.52296 0.69598 0.0
O539 O 0.44333 0.4969 0.71036 0.0
H540 H 0.48059 0.56022 0.73995 0.0
H541 H 0.39104 0.49341 0.72443 0.0
O542 O 0.40686 0.48056 0.7886 0.0
H543 H 0.41685 0.47186 0.58311 0.0
H544 H 0.42356 0.429 0.72894 0.0
H545 H 0.45795 0.47588 0.75982 0.0
H546 H 0.43252 0.47629 0.65481 0.0
H547 H 0.41196 0.45609 0.73301 0.0
O548 O 0.41208 0.54155 0.72142 0.0
H549 H 0.4636 0.53604 0.74043 0.0
H550 H 0.42266 0.56425 0.77113 0.0
H551 H 0.47006 0.449 0.75593 0.0
H552 H 0.37486 0.48891 0.65367 0.0
H553 H 0.45282 0.42533 0.7404 0.0
H554 H 0.38778 0.47812 0.58226 0.0
O555 O 0.43804 0.49328 0.80741 0.0
H556 H 0.38258 0.53792 0.8642 0.0
H557 H 0.44126 0.54131 0.84774 0.0
H558 H 0.42874 0.54857 0.92264 0.0
H559 H 0.39918 0.54695 0.93119 0.0
H560 H 0.39563 0.5306 0.79004 0.0
H561 H 0.43918 0.58874 0.7706 0.0
H562 H 0.46838 0.58681 0.75512 0.0
O563 O 0.44635 0.51822 0.79181 0.0
C564 C 0.44609 0.50961 0.68693 0.0
C565 C 0.46789 0.56121 0.74686 0.0
C566 C 0.44464 0.57722 0.764 0.0
N567 N 0.44218 0.54871 0.75608 0.0
C568 C 0.45821 0.54756 0.74727 0.0
C569 C 0.43534 0.56331 0.76411 0.0
C570 C 0.46103 0.57613 0.75533 0.0
C571 C 0.39671 0.48852 0.69371 0.0
N572 N 0.4127 0.48506 0.69391 0.0
C573 C 0.3875 0.48608 0.65365 0.0
C574 C 0.39477 0.48006 0.61357 0.0
C575 C 0.41108 0.47656 0.614 0.0
C576 C 0.41991 0.47916 0.65469 0.0
C577 C 0.4312 0.43922 0.73569 0.0
C578 C 0.45038 0.46564 0.75298 0.0
C579 C 0.42471 0.45459 0.73804 0.0
N580 N 0.43428 0.46757 0.74655 0.0
C581 C 0.4573 0.45045 0.75084 0.0
C582 C 0.44762 0.43717 0.74213 0.0
C583 C 0.44722 0.50523 0.81512 0.0
C584 C 0.39547 0.5387 0.86089 0.0
C585 C 0.42841 0.54048 0.85123 0.0
C586 C 0.42138 0.54466 0.89371 0.0
C587 C 0.40479 0.54376 0.89847 0.0
N588 N 0.41919 0.53558 0.81447 0.0
C589 C 0.40292 0.53461 0.81894 0.0
Co590 Co 0.73969 0.1766 0.00608 0.0
Co591 Co 0.78017 0.18119 1.00099 0.0
O592 O 0.76117 0.16749 1.00163 0.0
C593 C 0.7223 0.15889 0.93172 0.0
O594 O 0.71872 0.17283 0.91337 0.0
C595 C 0.78896 0.15545 0.06889 0.0
O596 O 0.77508 0.15722 0.08976 0.0
O597 O 0.77348 0.19091 0.06142 0.0
O598 O 0.74745 0.19481 0.04613 0.0
H599 H 0.80993 0.23312 0.02007 0.0
H600 H 0.74487 0.1426 0.03149 0.0
O601 O 0.73146 0.15823 0.96731 0.0
H602 H 0.72265 0.16785 0.1728 0.0
H603 H 0.67976 0.17432 0.0272 0.0
H604 H 0.72627 0.20922 0.99657 0.0
H605 H 0.72678 0.18364 0.10124 0.0
H606 H 0.70699 0.16303 0.02307 0.0
O607 O 0.79265 0.16424 0.03429 0.0
H608 H 0.78608 0.21567 0.0187 0.0
H609 H 0.81505 0.17558 0.98479 0.0
H610 H 0.69924 0.22101 1.00053 0.0
H611 H 0.7407 0.12632 0.10213 0.0
H612 H 0.67575 0.20351 0.01593 0.0
H613 H 0.72957 0.13895 0.17352 0.0
O614 O 0.74395 0.18958 0.94879 0.0
H615 H 0.78944 0.13558 0.88997 0.0
H616 H 0.7916 0.19417 0.90971 0.0
H617 H 0.79901 0.18228 0.83406 0.0
H618 H 0.79802 0.15277 0.82386 0.0
H619 H 0.78196 0.148 0.96493 0.0
H620 H 0.83922 0.19257 0.98615 0.0
H621 H 0.83674 0.22158 0.0037 0.0
O622 O 0.76856 0.19843 0.96623 0.0
C623 C 0.76005 0.19756 0.07019 0.0
C624 C 0.81116 0.2205 0.01227 0.0
C625 C 0.8276 0.19774 0.9933 0.0
N626 N 0.79915 0.19464 1.00143 0.0
C627 C 0.7977 0.21057 0.01136 0.0
C628 C 0.81387 0.18817 0.99272 0.0
C629 C 0.8262 0.21402 0.00312 0.0
C630 C 0.73985 0.14816 0.06223 0.0
N631 N 0.736 0.16405 0.06208 0.0
C632 C 0.73759 0.13889 0.10221 0.0
C633 C 0.73137 0.14599 0.14227 0.0
C634 C 0.7275 0.16221 0.14191 0.0
C635 C 0.72993 0.1711 0.1013 0.0
C636 C 0.6899 0.18207 0.0205 0.0
C637 C 0.71611 0.20153 0.00333 0.0
C638 C 0.70535 0.17575 0.01811 0.0
N639 N 0.71822 0.18546 0.00964 0.0
C640 C 0.70083 0.20827 0.00552 0.0
C641 C 0.68766 0.19845 0.01416 0.0
C642 C 0.75575 0.19906 0.94203 0.0
C643 C 0.78996 0.14845 0.89401 0.0
C644 C 0.79104 0.18133 0.90551 0.0
C645 C 0.79531 0.17466 0.86261 0.0
C646 C 0.79475 0.1581 0.85692 0.0
N647 N 0.78639 0.17178 0.94179 0.0
C648 C 0.78577 0.15555 0.93641 0.0
Co649 Co 0.08311 0.52608 0.24857 0.0
Co650 Co 0.08304 0.48544 0.2564 0.0
O651 O 0.09477 0.50576 0.2526 0.0
C652 C 0.10934 0.53298 0.31753 0.0
O653 O 0.10697 0.51903 0.33738 0.0
C654 C 0.10932 0.47851 0.1878 0.0
O655 O 0.1069 0.49238 0.16753 0.0
O656 O 0.07197 0.49048 0.19648 0.0
O657 O 0.06526 0.51584 0.21217 0.0
H658 H 0.03403 0.45063 0.24579 0.0
H659 H 0.11692 0.52463 0.21756 0.0
O660 O 0.10069 0.53733 0.28329 0.0
H661 H 0.08656 0.54287 0.08005 0.0
H662 H 0.07794 0.58569 0.22691 0.0
H663 H 0.04918 0.53547 0.2613 0.0
H664 H 0.07277 0.53748 0.15439 0.0
H665 H 0.09243 0.56002 0.2299 0.0
O666 O 0.10066 0.4742 0.22209 0.0
H667 H 0.0491 0.47602 0.24299 0.0
H668 H 0.09221 0.4515 0.27529 0.0
H669 H 0.0342 0.56085 0.25828 0.0
H670 H 0.13124 0.53012 0.14405 0.0
H671 H 0.04859 0.5862 0.24097 0.0
H672 H 0.11602 0.53925 0.07457 0.0
O673 O 0.0719 0.52102 0.30826 0.0
H674 H 0.13092 0.48134 0.36189 0.0
H675 H 0.07243 0.47409 0.3504 0.0
H676 H 0.08604 0.46867 0.42501 0.0
H677 H 0.11551 0.47224 0.43107 0.0
H678 H 0.11679 0.48685 0.2881 0.0
H679 H 0.07763 0.42583 0.27806 0.0
H680 H 0.04831 0.4253 0.26344 0.0
O681 O 0.06513 0.49567 0.29241 0.0
C682 C 0.06376 0.50305 0.18816 0.0
C683 C 0.0468 0.45071 0.25231 0.0
C684 C 0.07127 0.43679 0.27036 0.0
N685 N 0.07151 0.46527 0.25915 0.0
C686 C 0.05539 0.46506 0.25084 0.0
C687 C 0.07947 0.45136 0.26859 0.0
C688 C 0.05482 0.4365 0.26217 0.0
C689 C 0.11024 0.52875 0.18762 0.0
N690 N 0.09403 0.53074 0.19034 0.0
C691 C 0.1184 0.53178 0.14603 0.0
C692 C 0.10985 0.53688 0.10704 0.0
C693 C 0.09332 0.53889 0.11007 0.0
C694 C 0.08557 0.53575 0.15223 0.0
C695 C 0.07153 0.57472 0.23446 0.0
C696 C 0.05552 0.54644 0.2536 0.0
C697 C 0.07968 0.56015 0.23635 0.0
N698 N 0.07165 0.54624 0.2456 0.0
C699 C 0.04698 0.56078 0.252 0.0
C700 C 0.05506 0.575 0.24233 0.0
C701 C 0.06364 0.50846 0.31642 0.0
C702 C 0.11808 0.4797 0.35966 0.0
C703 C 0.08523 0.47579 0.35281 0.0
C704 C 0.09289 0.47264 0.39512 0.0
C705 C 0.10942 0.47462 0.39849 0.0
N706 N 0.0938 0.48078 0.31487 0.0
C707 C 0.11002 0.48274 0.31791 0.0
Co708 Co 0.23725 0.17917 0.50177 0.0
Co709 Co 0.27782 0.17986 0.51229 0.0
O710 O 0.25771 0.1678 0.50718 0.0
C711 C 0.23004 0.1529 0.57014 0.0
O712 O 0.24396 0.15509 0.59042 0.0
C713 C 0.28615 0.15423 0.44277 0.0
O714 O 0.27288 0.15706 0.41961 0.0
O715 O 0.27306 0.19079 0.45194 0.0
O716 O 0.24752 0.19714 0.46634 0.0
H717 H 0.31193 0.22938 0.50387 0.0
H718 H 0.2396 0.14545 0.47061 0.0
O719 O 0.22591 0.16153 0.53565 0.0
H720 H 0.22195 0.17556 0.33201 0.0
H721 H 0.17775 0.18354 0.47558 0.0
H722 H 0.22727 0.21295 0.51415 0.0
H723 H 0.22641 0.18937 0.40689 0.0
H724 H 0.20359 0.16941 0.48039 0.0
O725 O 0.28957 0.16238 0.47895 0.0
H726 H 0.2868 0.21391 0.49939 0.0
H727 H 0.31177 0.17125 0.53346 0.0
H728 H 0.20171 0.22757 0.50932 0.0
H729 H 0.23508 0.13112 0.39652 0.0
H730 H 0.1767 0.21285 0.48991 0.0
H731 H 0.22624 0.1462 0.32651 0.0
O732 O 0.24168 0.19042 0.56182 0.0
H733 H 0.28194 0.13217 0.61822 0.0
H734 H 0.28828 0.19072 0.60699 0.0
H735 H 0.29337 0.17728 0.68201 0.0
H736 H 0.29026 0.14778 0.68795 0.0
H737 H 0.27674 0.14614 0.54402 0.0
H738 H 0.33719 0.18623 0.53792 0.0
H739 H 0.33737 0.21552 0.52326 0.0
O740 O 0.26703 0.19761 0.54746 0.0
C741 C 0.26041 0.1988 0.44298 0.0
C742 C 0.31201 0.21662 0.51041 0.0
C743 C 0.32619 0.1924 0.52946 0.0
N744 N 0.29779 0.1917 0.51634 0.0
C745 C 0.2978 0.2078 0.508 0.0
C746 C 0.31176 0.18397 0.52673 0.0
C747 C 0.32628 0.20884 0.52126 0.0
C748 C 0.23562 0.15207 0.44041 0.0
N749 N 0.23324 0.16822 0.44316 0.0
C750 C 0.23313 0.1439 0.3985 0.0
C751 C 0.22819 0.15238 0.35922 0.0
C752 C 0.2258 0.16885 0.36227 0.0
C753 C 0.2284 0.17662 0.40475 0.0
C754 C 0.18856 0.19009 0.48404 0.0
C755 C 0.21646 0.20646 0.50553 0.0
C756 C 0.20323 0.18215 0.48696 0.0
N757 N 0.21695 0.19035 0.49737 0.0
C758 C 0.20201 0.2148 0.50291 0.0
C759 C 0.18798 0.20654 0.49206 0.0
C760 C 0.25405 0.1989 0.57068 0.0
C761 C 0.28337 0.14503 0.61606 0.0
C762 C 0.28677 0.17791 0.60934 0.0
C763 C 0.28974 0.17035 0.65189 0.0
C764 C 0.28801 0.15379 0.65518 0.0
N765 N 0.2822 0.16923 0.57112 0.0
C766 C 0.2805 0.153 0.57409 0.0
Co767 Co 0.58066 0.52875 0.25678 0.0
Co768 Co 0.58433 0.48821 0.24986 0.0
O769 O 0.5939 0.5095 0.255 0.0
C770 C 0.60661 0.53677 0.18904 0.0
O771 O 0.6047 0.52268 0.16948 0.0
C772 C 0.60194 0.47041 0.32347 0.0
O773 O 0.588 0.46679 0.3419 0.0
O774 O 0.57154 0.49243 0.30746 0.0
O775 O 0.56331 0.51737 0.29199 0.0
H776 H 0.53913 0.44847 0.25463 0.0
H777 H 0.61408 0.52973 0.29148 0.0
O778 O 0.59774 0.54096 0.22299 0.0
H779 H 0.58083 0.54707 0.42428 0.0
H780 H 0.57079 0.58794 0.27367 0.0
H781 H 0.54622 0.5354 0.24088 0.0
H782 H 0.5684 0.54018 0.34891 0.0
H783 H 0.58721 0.56343 0.27357 0.0
O784 O 0.60261 0.47961 0.28805 0.0
H785 H 0.55145 0.47528 0.25933 0.0
H786 H 0.59726 0.4554 0.23168 0.0
H787 H 0.52934 0.55958 0.24101 0.0
H788 H 0.62704 0.5367 0.36613 0.0
H789 H 0.54162 0.58609 0.25751 0.0
H790 H 0.61038 0.54542 0.43321 0.0
O791 O 0.57053 0.52248 0.19655 0.0
H792 H 0.63457 0.4884 0.15328 0.0
H793 H 0.57683 0.47593 0.15426 0.0
H794 H 0.59243 0.47171 0.08237 0.0
H795 H 0.62154 0.4779 0.08161 0.0
H796 H 0.61847 0.4927 0.22422 0.0
H797 H 0.58544 0.42837 0.2268 0.0
H798 H 0.55617 0.42478 0.23826 0.0
O799 O 0.5662 0.49642 0.21039 0.0
C800 C 0.5624 0.50438 0.31527 0.0
C801 C 0.5519 0.44988 0.24954 0.0
C802 C 0.57789 0.4386 0.23391 0.0
N803 N 0.57504 0.46691 0.24571 0.0
C804 C 0.55894 0.46503 0.25214 0.0
C805 C 0.58451 0.45393 0.23673 0.0
C806 C 0.56147 0.4366 0.24036 0.0
C807 C 0.60676 0.53361 0.32042 0.0
N808 N 0.59051 0.53459 0.31575 0.0
C809 C 0.61416 0.5375 0.36264 0.0
C810 C 0.6048 0.54238 0.40028 0.0
C811 C 0.58823 0.5433 0.39531 0.0
C812 C 0.58125 0.53933 0.35256 0.0
C813 C 0.5653 0.57645 0.26649 0.0
C814 C 0.55165 0.54688 0.24829 0.0
C815 C 0.57454 0.56254 0.26625 0.0
N816 N 0.56767 0.54798 0.25748 0.0
C817 C 0.54203 0.56054 0.24822 0.0
C818 C 0.54893 0.57541 0.25744 0.0
C819 C 0.56364 0.5092 0.1871 0.0
C820 C 0.62191 0.48561 0.15322 0.0
C821 C 0.58946 0.47877 0.15417 0.0
C822 C 0.59825 0.47629 0.11338 0.0
C823 C 0.61458 0.47974 0.113 0.0
N824 N 0.59673 0.48451 0.19355 0.0
C825 C 0.61274 0.48793 0.19339 0.0
Co826 Co 0.27509 0.83272 0.99873 0.0
Co827 Co 0.23454 0.83262 0.00979 0.0
O828 O 0.25481 0.84438 0.0045 0.0
C829 C 0.28278 0.8589 0.06721 0.0
O830 O 0.26888 0.85685 0.08774 0.0
C831 C 0.22649 0.8583 0.94045 0.0
O832 O 0.23974 0.85533 0.91739 0.0
O833 O 0.23902 0.82164 0.94934 0.0
O834 O 0.2645 0.81492 0.96313 0.0
H835 H 0.19966 0.78363 1.00127 0.0
H836 H 0.27315 0.86649 0.96796 0.0
O837 O 0.28674 0.8502 0.03266 0.0
H838 H 0.2902 0.83625 0.82886 0.0
H839 H 0.33448 0.8275 0.97184 0.0
H840 H 0.28458 0.79879 0.01054 0.0
H841 H 0.28567 0.82245 0.90364 0.0
H842 H 0.30886 0.842 0.97711 0.0
O843 O 0.22298 0.85025 0.97667 0.0
H844 H 0.22502 0.79871 0.99661 0.0
H845 H 0.20077 0.84172 0.03164 0.0
H846 H 0.30993 0.7838 0.00524 0.0
H847 H 0.27775 0.88082 0.89397 0.0
H848 H 0.33512 0.79817 0.98576 0.0
H849 H 0.28629 0.86566 0.8237 0.0
O850 O 0.2706 0.82148 0.05876 0.0
H851 H 0.23129 0.88032 0.11614 0.0
H852 H 0.22414 0.82186 0.10458 0.0
H853 H 0.2194 0.83535 0.17978 0.0
H854 H 0.22292 0.86481 0.18589 0.0
H855 H 0.23613 0.86631 0.04174 0.0
H856 H 0.17513 0.82712 0.03629 0.0
H857 H 0.17448 0.79784 0.02124 0.0
O858 O 0.24512 0.8147 0.0446 0.0
C859 C 0.25151 0.81346 0.94002 0.0
C860 C 0.19979 0.79638 0.00799 0.0
C861 C 0.18602 0.82079 0.02758 0.0
N862 N 0.2144 0.82107 0.01402 0.0
C863 C 0.21412 0.80498 0.00547 0.0
C864 C 0.20057 0.829 0.02474 0.0
C865 C 0.18567 0.80436 0.01916 0.0
C866 C 0.277 0.85984 0.93764 0.0
N867 N 0.27917 0.84366 0.94019 0.0
C868 C 0.27953 0.868 0.8958 0.0
C869 C 0.2843 0.85949 0.85637 0.0
C870 C 0.28648 0.84299 0.85923 0.0
C871 C 0.28384 0.83523 0.90165 0.0
C872 C 0.32359 0.8211 0.98033 0.0
C873 C 0.29548 0.80512 1.0019 0.0
C874 C 0.30904 0.82926 0.98352 0.0
N875 N 0.29521 0.82124 0.99397 0.0
C876 C 0.3098 0.79657 0.99902 0.0
C877 C 0.32393 0.80464 0.98812 0.0
C878 C 0.2581 0.8132 0.06768 0.0
C879 C 0.22969 0.86749 0.1139 0.0
C880 C 0.22583 0.83466 0.107 0.0
C881 C 0.22305 0.84225 0.14965 0.0
C882 C 0.22502 0.85877 0.15304 0.0
N883 N 0.23042 0.84329 0.06876 0.0
C884 C 0.23235 0.8595 0.07182 0.0
Co885 Co 0.92738 0.48627 0.75727 0.0
Co886 Co 0.92822 0.52684 0.74709 0.0
O887 O 0.91607 0.50678 0.75201 0.0
C888 C 0.90076 0.47924 0.68938 0.0
O889 O 0.90268 0.49332 0.66992 0.0
C890 C 0.90266 0.53541 0.81673 0.0
O891 O 0.90529 0.5221 0.83983 0.0
O892 O 0.93912 0.52202 0.80743 0.0
O893 O 0.94539 0.49646 0.79313 0.0
H894 H 0.9779 0.56072 0.75638 0.0
H895 H 0.89365 0.48878 0.78822 0.0
O896 O 0.90969 0.47496 0.72311 0.0
H897 H 0.9236 0.47078 0.92678 0.0
H898 H 0.93161 0.42676 0.78274 0.0
H899 H 0.96117 0.47624 0.74516 0.0
H900 H 0.93749 0.47526 0.85208 0.0
H901 H 0.91753 0.45263 0.77814 0.0
O902 O 0.91081 0.53869 0.78047 0.0
H903 H 0.96232 0.53567 0.76046 0.0
H904 H 0.91978 0.56081 0.72585 0.0
H905 H 0.97574 0.45065 0.74979 0.0
H906 H 0.87924 0.48425 0.86214 0.0
H907 H 0.96094 0.42567 0.7687 0.0
H908 H 0.89425 0.47523 0.93213 0.0
O909 O 0.93869 0.49071 0.69727 0.0
H910 H 0.88052 0.53134 0.64106 0.0
H911 H 0.93916 0.53724 0.65247 0.0
H912 H 0.92574 0.54245 0.57746 0.0
H913 H 0.89619 0.53956 0.57143 0.0
H914 H 0.89447 0.52601 0.71527 0.0
H915 H 0.93488 0.58615 0.72179 0.0
H916 H 0.96417 0.58621 0.73693 0.0
O917 O 0.94595 0.51601 0.71197 0.0
C918 C 0.94709 0.50937 0.81649 0.0
C919 C 0.96515 0.56085 0.74963 0.0
C920 C 0.941 0.57513 0.73028 0.0
N921 N 0.94016 0.54675 0.74324 0.0
C922 C 0.95626 0.54669 0.75182 0.0
C923 C 0.9325 0.56074 0.73279 0.0
C924 C 0.95743 0.57515 0.73876 0.0
C925 C 0.90024 0.48472 0.81842 0.0
N926 N 0.91638 0.48225 0.81575 0.0
C927 C 0.89203 0.48223 0.86022 0.0
C928 C 0.90046 0.47719 0.8995 0.0
C929 C 0.91692 0.4747 0.89653 0.0
C930 C 0.92473 0.47732 0.85415 0.0
C931 C 0.93819 0.43757 0.7745 0.0
C932 C 0.95465 0.46544 0.75356 0.0
C933 C 0.93027 0.45225 0.77169 0.0
N934 N 0.93852 0.46596 0.76155 0.0
C935 C 0.96296 0.45098 0.75606 0.0
C936 C 0.95465 0.43696 0.76664 0.0
C937 C 0.9472 0.50307 0.68854 0.0
C938 C 0.8934 0.53267 0.64326 0.0
C939 C 0.92632 0.53581 0.65008 0.0
C940 C 0.91878 0.53886 0.60753 0.0
C941 C 0.9022 0.53725 0.60419 0.0
N942 N 0.91761 0.5313 0.68825 0.0
C943 C 0.90136 0.52973 0.68524 0.0
H944 H 0.22931 0.30799 0.13597 0.0
H945 H 0.23064 0.28839 0.19979 0.0
H946 H 0.27771 0.27413 0.15443 0.0
H947 H 0.27661 0.29348 0.09137 0.0
H948 H 0.23575 0.25443 0.19532 0.0
H949 H 0.28439 0.28501 0.29294 0.0
H950 H 0.27289 0.29487 0.24806 0.0
H951 H 0.28884 0.28146 0.23254 0.0
C952 C 0.23993 0.30067 0.13961 0.0
C953 C 0.25289 0.30248 0.10869 0.0
C954 C 0.24068 0.2895 0.17608 0.0
C955 C 0.25442 0.28004 0.18239 0.0
C956 C 0.26716 0.28155 0.15093 0.0
H957 H 0.28423 0.20575 0.37916 0.0
H958 H 0.28299 0.22517 0.31486 0.0
C959 C 0.26643 0.29263 0.11464 0.0
C960 C 0.25553 0.26837 0.22129 0.0
H961 H 0.27769 0.25868 0.31749 0.0
C962 C 0.24484 0.25541 0.22223 0.0
C963 C 0.26751 0.26959 0.25611 0.0
C964 C 0.27899 0.28355 0.25777 0.0
C965 C 0.24596 0.24349 0.25663 0.0
C966 C 0.2579 0.24473 0.29155 0.0
C967 C 0.26861 0.25769 0.29056 0.0
C968 C 0.25893 0.23312 0.33066 0.0
C969 C 0.23452 0.22949 0.25474 0.0
C970 C 0.24601 0.23144 0.3614 0.0
C971 C 0.24668 0.22045 0.39789 0.0
C972 C 0.26035 0.21087 0.40488 0.0
C973 C 0.2735 0.21285 0.37472 0.0
C974 C 0.2728 0.22393 0.33798 0.0
H975 H 0.22939 0.22789 0.21928 0.0
H976 H 0.24055 0.21821 0.2652 0.0
H977 H 0.22447 0.23167 0.27921 0.0
H978 H 0.23536 0.23868 0.35721 0.0
H979 H 0.23635 0.21945 0.42056 0.0
H980 H 0.96516 0.02763 0.35137 0.0
H981 H 0.98499 0.02892 0.41352 0.0
H982 H 0.97831 0.97863 0.44098 0.0
H983 H 0.95816 0.97719 0.37881 0.0
H984 H 0.97869 0.99793 0.52198 0.0
H985 H 0.03072 0.01151 0.40835 0.0
H986 H 0.01407 0.0248 0.40048 0.0
H987 H 0.01199 1.00399 0.38569 0.0
C988 C 0.96785 0.01678 0.37044 0.0
C989 C 0.96002 1.00227 0.35982 0.0
C990 C 0.97932 0.01755 0.40587 0.0
C991 C 0.98336 1.00382 0.43138 0.0
C992 C 0.97545 0.98935 0.42148 0.0
H993 H 0.04848 0.98467 0.66074 0.0
H994 H 0.02855 0.98328 0.59885 0.0
C995 C 0.96393 0.98855 0.38593 0.0
C996 C 0.99561 1.00474 0.46895 0.0
H997 H 0.03481 0.01417 0.49003 0.0
C998 C 0.99098 1.00137 0.51498 0.0
C999 C 0.01163 0.00933 0.45981 0.0
C1000 C 0.01748 0.01248 0.41087 0.0
C1001 C 1.00187 1.00275 0.5522 0.0
C1002 C 0.0179 0.00736 0.54306 0.0
C1003 C 0.02252 0.01072 0.49703 0.0
C1004 C 0.03014 0.00834 0.58063 0.0
C1005 C 0.99602 0.99961 0.60114 0.0
C1006 C 0.03805 0.02284 0.59027 0.0
C1007 C 0.04962 0.0237 0.62566 0.0
C1008 C 0.05359 0.01002 0.65186 0.0
C1009 C 0.04575 0.99549 0.64157 0.0
C1010 C 0.03422 0.99467 0.6063 0.0
H1011 H 0.98278 1.00056 0.60365 0.0
H1012 H 0.99946 0.9873 0.61158 0.0
H1013 H 1.0015 0.00813 0.6263 0.0
H1014 H 0.03516 0.03353 0.57066 0.0
H1015 H 0.0554 0.03507 0.63252 0.0
H1016 H 0.28062 0.7048 0.63088 0.0
H1017 H 0.27933 0.72448 0.69444 0.0
H1018 H 0.23105 0.7365 0.65464 0.0
H1019 H 0.2321 0.71698 0.5918 0.0
H1020 H 0.27324 0.75779 0.68975 0.0
H1021 H 0.22661 0.72674 0.79391 0.0
H1022 H 0.23757 0.71692 0.74779 0.0
H1023 H 0.22116 0.73001 0.7341 0.0
C1024 C 0.26971 0.7116 0.63575 0.0
C1025 C 0.25643 0.70914 0.60635 0.0
C1026 C 0.269 0.72284 0.67207 0.0
C1027 C 0.25497 0.73173 0.67983 0.0
C1028 C 0.24185 0.72952 0.65005 0.0
H1029 H 0.22702 0.80638 0.87852 0.0
H1030 H 0.22755 0.7869 0.81424 0.0
C1031 C 0.24254 0.71835 0.61387 0.0
C1032 C 0.25407 0.74362 0.71832 0.0
H1033 H 0.23321 0.75327 0.81701 0.0
C1034 C 0.26456 0.75676 0.71772 0.0
C1035 C 0.24263 0.74232 0.7546 0.0
C1036 C 0.23144 0.72817 0.75804 0.0
C1037 C 0.26378 0.76874 0.75207 0.0
C1038 C 0.2524 0.76741 0.78847 0.0
C1039 C 0.24186 0.75431 0.78896 0.0
C1040 C 0.25182 0.77908 0.82756 0.0
C1041 C 0.275 0.78288 0.74864 0.0
C1042 C 0.26512 0.78088 0.85688 0.0
C1043 C 0.26486 0.79191 0.89341 0.0
C1044 C 0.25123 0.80141 0.90179 0.0
C1045 C 0.23773 0.79934 0.87298 0.0
C1046 C 0.23802 0.78822 0.83625 0.0
H1047 H 0.27965 0.78444 0.71262 0.0
H1048 H 0.26895 0.79411 0.75953 0.0
H1049 H 0.28539 0.78092 0.77207 0.0
H1050 H 0.27576 0.7737 0.85157 0.0
H1051 H 0.27545 0.79298 0.91501 0.0
H1052 H 0.45619 0.97998 0.12289 0.0
H1053 H 0.47609 0.98234 0.06038 0.0
H1054 H 0.48411 0.03174 0.09722 0.0
H1055 H 0.46446 0.02954 0.15971 0.0
H1056 H 0.47625 1.00378 0.98331 0.0
H1057 H 0.52952 0.01294 0.09634 0.0
H1058 H 0.51078 1.00525 0.11842 0.0
H1059 H 0.51316 0.02631 0.10768 0.0
C1060 C 0.4622 0.99134 0.1178 0.0
C1061 C 0.4587 1.00454 0.14657 0.0
C1062 C 0.47358 0.99267 0.08203 0.0
C1063 C 0.48177 0.00715 0.07457 0.0
C1064 C 0.47819 0.02036 0.10288 0.0
H1065 H 0.55586 0.036 0.87357 0.0
H1066 H 0.53554 0.03607 0.93559 0.0
C1067 C 0.46684 0.01907 0.13851 0.0
C1068 C 0.49379 0.0086 0.03653 0.0
H1069 H 0.53336 0.01626 0.01505 0.0
C1070 C 0.48875 0.00646 0.99025 0.0
C1071 C 0.51007 0.01226 0.04559 0.0
C1072 C 0.51629 0.0142 0.09469 0.0
C1073 C 0.4995 0.00795 0.95278 0.0
C1074 C 0.51583 0.01136 0.96185 0.0
C1075 C 0.52084 0.01371 0.00811 0.0
C1076 C 0.52803 0.01158 0.92404 0.0
C1077 C 0.49322 0.00604 0.90373 0.0
C1078 C 0.53071 0.99776 0.89746 0.0
C1079 C 0.54223 0.99768 0.8622 0.0
C1080 C 0.55152 0.0114 0.85276 0.0
C1081 C 0.54892 0.02524 0.87974 0.0
C1082 C 0.53733 0.0253 0.91522 0.0
H1083 H 0.48013 0.00832 0.9019 0.0
H1084 H 0.49941 0.0143 0.87929 0.0
H1085 H 0.49535 0.99359 0.89183 0.0
H1086 H 0.52397 0.98692 0.90426 0.0
H1087 H 0.54385 0.98674 0.84247 0.0
H1088 H 0.28222 0.80652 0.1307 0.0
H1089 H 0.28171 0.78653 0.19357 0.0
H1090 H 0.23402 0.77246 0.1528 0.0
H1091 H 0.23441 0.79204 0.09027 0.0
H1092 H 0.25935 0.78424 0.2686 0.0
H1093 H 0.25791 0.7297 0.15827 0.0
H1094 H 0.26372 0.74906 0.13589 0.0
H1095 H 0.24289 0.74419 0.14341 0.0
C1096 C 0.27168 0.79909 0.13493 0.0
C1097 C 0.25839 0.80092 0.10522 0.0
C1098 C 0.2714 0.78769 0.17089 0.0
C1099 C 0.25791 0.77784 0.1774 0.0
C1100 C 0.24468 0.77968 0.14788 0.0
H1101 H 0.22838 0.70396 0.37516 0.0
H1102 H 0.22941 0.72393 0.31237 0.0
C1103 C 0.24492 0.79101 0.1122 0.0
C1104 C 0.25727 0.76599 0.21595 0.0
H1105 H 0.25194 0.72618 0.2388 0.0
C1106 C 0.25787 0.77153 0.26213 0.0
C1107 C 0.25518 0.74942 0.20742 0.0
C1108 C 0.25502 0.74268 0.15858 0.0
C1109 C 0.25614 0.761 0.30001 0.0
C1110 C 0.25401 0.74443 0.29148 0.0
C1111 C 0.25345 0.73889 0.24529 0.0
C1112 C 0.25309 0.73259 0.33002 0.0
C1113 C 0.25624 0.76776 0.34884 0.0
C1114 C 0.2661 0.73072 0.3604 0.0
C1115 C 0.26556 0.7194 0.39611 0.0
C1116 C 0.25202 0.70952 0.40221 0.0
C1117 C 0.23897 0.71137 0.37161 0.0
C1118 C 0.23955 0.72276 0.33569 0.0
H1119 H 0.25339 0.78074 0.34908 0.0
H1120 H 0.2475 0.76141 0.37145 0.0
H1121 H 0.26835 0.76623 0.36414 0.0
H1122 H 0.2768 0.73792 0.35614 0.0
H1123 H 0.27589 0.71837 0.41874 0.0
H1124 H 0.45393 0.03021 0.37871 0.0
H1125 H 0.4739 0.0298 0.44161 0.0
H1126 H 0.48976 0.98325 0.39632 0.0
H1127 H 0.47024 0.9836 0.33345 0.0
H1128 H 0.47687 0.00768 0.5144 0.0
H1129 H 0.53175 0.00775 0.40563 0.0
H1130 H 0.51229 0.01282 0.38251 0.0
H1131 H 0.51785 0.9922 0.39037 0.0
C1132 C 0.46176 0.01995 0.38188 0.0
C1133 C 0.46043 0.00697 0.3508 0.0
C1134 C 0.47315 0.01972 0.41791 0.0
C1135 C 0.4835 0.00659 0.42327 0.0
C1136 C 0.48218 0.99366 0.39233 0.0
H1137 H 0.55741 0.97936 0.6251 0.0
H1138 H 0.53756 0.9794 0.56174 0.0
C1139 C 0.47087 0.99387 0.35646 0.0
C1140 C 0.4953 0.00601 0.46216 0.0
H1141 H 0.53519 1.00174 0.48618 0.0
C1142 C 0.48963 0.0065 0.50823 0.0
C1143 C 0.51195 1.00432 0.45411 0.0
C1144 C 0.51887 1.00439 0.4055 0.0
C1145 C 0.50011 1.00512 0.5464 0.0
C1146 C 0.51675 1.00343 0.53834 0.0
C1147 C 0.52242 1.0029 0.4923 0.0
C1148 C 0.52852 1.00308 0.57724 0.0
C1149 C 0.49325 1.00521 0.59508 0.0
C1150 C 0.53012 0.01639 0.60661 0.0
C1151 C 0.54139 0.01642 0.64257 0.0
C1152 C 0.55145 1.00313 0.65004 0.0
C1153 C 0.54984 0.98976 0.62053 0.0
C1154 C 0.53853 0.98978 0.58427 0.0
H1155 H 0.4803 1.00212 0.59512 0.0
H1156 H 0.49968 0.99664 0.61795 0.0
H1157 H 0.49458 0.01736 0.61022 0.0
H1158 H 0.52277 0.0269 0.60134 0.0
H1159 H 0.54224 0.02699 0.66433 0.0
H1160 H 0.22946 0.20576 0.63187 0.0
H1161 H 0.22948 0.22589 0.69442 0.0
H1162 H 0.27761 0.23961 0.65743 0.0
H1163 H 0.2777 0.21991 0.59509 0.0
H1164 H 0.25064 0.22835 0.77118 0.0
H1165 H 0.25426 0.2825 0.66003 0.0
H1166 H 0.2487 0.26312 0.63725 0.0
H1167 H 0.26942 0.26793 0.64734 0.0
C1168 C 0.24 0.21314 0.63687 0.0
C1169 C 0.25355 0.21118 0.60823 0.0
C1170 C 0.24 0.22462 0.67265 0.0
C1171 C 0.25346 0.23443 0.68009 0.0
C1172 C 0.26697 0.23244 0.65173 0.0
H1173 H 0.28201 0.30788 0.88019 0.0
H1174 H 0.28113 0.28795 0.81724 0.0
C1175 C 0.267 0.22103 0.61617 0.0
C1176 C 0.25376 0.2464 0.71844 0.0
H1177 H 0.25934 0.2862 0.74111 0.0
C1178 C 0.2524 0.24102 0.76463 0.0
C1179 C 0.25618 0.26292 0.70983 0.0
C1180 C 0.25708 0.26951 0.66092 0.0
C1181 C 0.25374 0.25165 0.80246 0.0
C1182 C 0.25625 0.26815 0.79384 0.0
C1183 C 0.25754 0.27354 0.74766 0.0
C1184 C 0.25697 0.28008 0.83225 0.0
C1185 C 0.25282 0.24507 0.85139 0.0
C1186 C 0.24365 0.28239 0.86114 0.0
C1187 C 0.2441 0.2937 0.89695 0.0
C1188 C 0.25789 0.30311 0.90464 0.0
C1189 C 0.27123 0.30085 0.8754 0.0
C1190 C 0.27074 0.28948 0.83939 0.0
H1191 H 0.25527 0.23201 0.85225 0.0
H1192 H 0.26146 0.25124 0.87478 0.0
H1193 H 0.24058 0.24702 0.86534 0.0
H1194 H 0.23279 0.27552 0.85571 0.0
H1195 H 0.23354 0.29508 0.9185 0.0
H1196 H 0.04267 0.02871 0.84143 0.0
H1197 H 0.02355 0.02827 0.9054 0.0
H1198 H 0.03965 0.98114 0.94435 0.0
H1199 H 0.05916 0.98152 0.8804 0.0
H1200 H 0.99851 0.00735 0.92348 0.0
H1201 H 0.04335 0.00636 0.06667 0.0
H1202 H 0.04863 0.01102 0.00717 0.0
H1203 H 0.0454 0.9906 0.02442 0.0
C1204 C 0.04224 0.0182 0.86349 0.0
C1205 C 0.05263 1.00518 0.85584 0.0
C1206 C 0.03123 0.01799 0.9001 0.0
C1207 C 0.03032 1.0048 0.93015 0.0
C1208 C 0.04037 0.9916 0.92216 0.0
H1209 H 0.97158 0.98322 0.17058 0.0
H1210 H 0.99082 0.9834 0.10684 0.0
C1211 C 0.05145 0.99179 0.88538 0.0
C1212 C 0.01874 1.005 0.96955 0.0
H1213 H 0.0161 1.00417 0.08847 0.0
C1214 C 1.00235 0.00669 0.95957 0.0
C1215 C 0.02377 1.00419 0.01663 0.0
C1216 C 0.04125 1.00308 0.0296 0.0
C1217 C 0.99085 0.00732 0.99532 0.0
C1218 C 0.99589 0.00655 0.04239 0.0
C1219 C 0.01226 1.00483 0.05237 0.0
C1220 C 0.9843 0.0069 0.08177 0.0
C1221 C 0.97337 0.00845 0.98235 0.0
C1222 C 0.97438 0.02021 0.08952 0.0
C1223 C 0.96324 0.02018 0.12615 0.0
C1224 C 0.96188 0.00682 0.15579 0.0
C1225 C 0.97215 0.9937 0.14843 0.0
C1226 C 0.98323 0.99376 0.11195 0.0
H1227 H 0.97127 1.00512 0.94532 0.0
H1228 H 0.96597 1.00056 0.00489 0.0
H1229 H 0.96925 0.02095 0.98734 0.0
H1230 H 0.97523 0.03063 0.06721 0.0
H1231 H 0.95563 0.03053 0.13091 0.0
H1232 H 0.73388 0.72168 0.92231 0.0
H1233 H 0.7337 0.74091 0.85879 0.0
H1234 H 0.7804 0.72483 0.81527 0.0
H1235 H 0.78062 0.70514 0.87879 0.0
H1236 H 0.75405 0.76591 0.83913 0.0
H1237 H 0.75415 0.72136 0.6952 0.0
H1238 H 0.75021 0.7159 0.75501 0.0
H1239 H 0.7704 0.71944 0.73586 0.0
C1240 C 0.74417 0.72212 0.89935 0.0
C1241 C 0.75723 0.71167 0.90558 0.0
C1242 C 0.74403 0.73321 0.86299 0.0
C1243 C 0.75689 0.73416 0.83177 0.0
C1244 C 0.77017 0.72407 0.83838 0.0
H1245 H 0.77583 0.79364 0.59162 0.0
H1246 H 0.77636 0.77443 0.65525 0.0
C1247 C 0.77033 0.7129 0.87491 0.0
C1248 C 0.75624 0.7458 0.79257 0.0
H1249 H 0.75582 0.74864 0.67367 0.0
C1250 C 0.75441 0.76214 0.80294 0.0
C1251 C 0.75662 0.74086 0.74536 0.0
C1252 C 0.75781 0.72343 0.73198 0.0
C1253 C 0.75321 0.77368 0.76745 0.0
C1254 C 0.7536 0.76873 0.72027 0.0
C1255 C 0.75546 0.75241 0.70987 0.0
C1256 C 0.75279 0.78037 0.68114 0.0
C1257 C 0.75192 0.79111 0.78072 0.0
C1258 C 0.73922 0.79 0.67396 0.0
C1259 C 0.73883 0.80111 0.6373 0.0
C1260 C 0.75203 0.80277 0.60716 0.0
C1261 C 0.76545 0.79284 0.61413 0.0
C1262 C 0.76579 0.78177 0.65055 0.0
H1263 H 0.75535 0.79321 0.81767 0.0
H1264 H 0.75964 0.79862 0.75801 0.0
H1265 H 0.73935 0.79509 0.77611 0.0
H1266 H 0.72892 0.78891 0.6967 0.0
H1267 H 0.72829 0.80848 0.63287 0.0
H1268 H 0.77641 0.2953 0.41219 0.0
H1269 H 0.77675 0.27594 0.34891 0.0
H1270 H 0.72756 0.28691 0.3168 0.0
H1271 H 0.727 0.3065 0.38079 0.0
H1272 H 0.73505 0.2533 0.32023 0.0
H1273 H 0.77793 0.28664 0.20885 0.0
H1274 H 0.78464 0.28381 0.26777 0.0
H1275 H 0.76729 0.29592 0.25655 0.0
C1276 C 0.76561 0.29373 0.39174 0.0
C1277 C 0.75169 0.30265 0.4015 0.0
C1278 C 0.76589 0.28265 0.35533 0.0
C1279 C 0.7523 0.28018 0.32756 0.0
C1280 C 0.73824 0.28875 0.3376 0.0
H1281 H 0.73367 0.21459 0.09733 0.0
H1282 H 0.73161 0.23435 0.1595 0.0
C1283 C 0.73794 0.29994 0.37414 0.0
C1284 C 0.75287 0.26843 0.28867 0.0
H1285 H 0.77273 0.25959 0.18767 0.0
C1286 C 0.74316 0.25472 0.29099 0.0
C1287 C 0.76356 0.27027 0.25073 0.0
C1288 C 0.77386 0.28502 0.24544 0.0
C1289 C 0.74416 0.2426 0.25704 0.0
C1290 C 0.75495 0.24439 0.21925 0.0
C1291 C 0.76454 0.25817 0.21675 0.0
C1292 C 0.75629 0.23222 0.18155 0.0
C1293 C 0.73399 0.22778 0.2627 0.0
C1294 C 0.771 0.2247 0.17225 0.0
C1295 C 0.77229 0.21339 0.13629 0.0
C1296 C 0.7589 0.20945 0.10872 0.0
C1297 C 0.74424 0.21716 0.11796 0.0
C1298 C 0.74298 0.22844 0.1538 0.0
H1299 H 0.72988 0.22626 0.29928 0.0
H1300 H 0.72323 0.2288 0.24021 0.0
H1301 H 0.74067 0.21689 0.25208 0.0
H1302 H 0.78147 0.22753 0.19301 0.0
H1303 H 0.78378 0.20778 0.13007 0.0
H1304 H 0.77785 0.22226 0.92305 0.0
H1305 H 0.77775 0.2417 0.86017 0.0
H1306 H 0.73203 0.22388 0.81316 0.0
H1307 H 0.73209 0.20396 0.87619 0.0
H1308 H 0.75459 0.22755 0.74134 0.0
H1309 H 0.75171 0.2826 0.84896 0.0
H1310 H 0.76764 0.2694 0.86569 0.0
H1311 H 0.74717 0.26303 0.87214 0.0
C1312 C 0.76766 0.22244 0.8997 0.0
C1313 C 0.75494 0.21147 0.9049 0.0
C1314 C 0.7676 0.23371 0.86382 0.0
C1315 C 0.75478 0.23445 0.83237 0.0
C1316 C 0.74201 0.22359 0.8373 0.0
H1317 H 0.73544 0.29217 0.58859 0.0
H1318 H 0.7352 0.27277 0.65165 0.0
C1319 C 0.74204 0.21224 0.87339 0.0
C1320 C 0.7552 0.24615 0.79332 0.0
H1321 H 0.75864 0.28606 0.76894 0.0
C1322 C 0.75533 0.24035 0.74735 0.0
C1323 C 0.75632 0.26285 0.80119 0.0
C1324 C 0.75555 0.26988 0.84964 0.0
C1325 C 0.75685 0.25077 0.70912 0.0
C1326 C 0.75804 0.26746 0.71702 0.0
C1327 C 0.75788 0.27326 0.76296 0.0
C1328 C 0.75863 0.27913 0.67799 0.0
C1329 C 0.75747 0.2438 0.66059 0.0
C1330 C 0.77181 0.28944 0.67216 0.0
C1331 C 0.77201 0.30071 0.63587 0.0
C1332 C 0.75893 0.30198 0.60513 0.0
C1333 C 0.74578 0.29159 0.61134 0.0
C1334 C 0.74563 0.28036 0.64733 0.0
H1335 H 0.7608 0.23094 0.66107 0.0
H1336 H 0.74547 0.24483 0.64421 0.0
H1337 H 0.76619 0.25038 0.63847 0.0
H1338 H 0.78193 0.28875 0.6957 0.0
H1339 H 0.78229 0.30853 0.63228 0.0
H1340 H 0.77828 0.71566 0.09922 0.0
H1341 H 0.77982 0.73513 0.16247 0.0
H1342 H 0.72998 0.72714 0.19405 0.0
H1343 H 0.72828 0.70744 0.13091 0.0
H1344 H 0.76238 0.76345 0.17438 0.0
H1345 H 0.75205 0.72134 0.32104 0.0
H1346 H 0.75719 0.71464 0.26307 0.0
H1347 H 0.73704 0.72069 0.27616 0.0
C1348 C 0.76761 0.71793 0.11964 0.0
C1349 C 0.75315 0.70984 0.11 0.0
C1350 C 0.76854 0.72913 0.15581 0.0
C1351 C 0.75509 0.73245 0.18343 0.0
C1352 C 0.74059 0.72454 0.17376 0.0
H1353 H 0.73405 0.79571 0.41279 0.0
H1354 H 0.73411 0.77609 0.35007 0.0
C1355 C 0.73963 0.71332 0.13748 0.0
C1356 C 0.75624 0.74442 0.22171 0.0
H1357 H 0.75239 0.749 0.33959 0.0
C1358 C 0.76028 0.76029 0.21056 0.0
C1359 C 0.75354 0.74027 0.26888 0.0
C1360 C 0.74985 0.72329 0.28324 0.0
C1361 C 0.76127 0.77221 0.24513 0.0
C1362 C 0.75846 0.76808 0.2923 0.0
C1363 C 0.75457 0.75216 0.30346 0.0
C1364 C 0.75878 0.78018 0.33041 0.0
C1365 C 0.76483 0.78921 0.23067 0.0
C1366 C 0.77272 0.78897 0.34074 0.0
C1367 C 0.77273 0.80036 0.37673 0.0
C1368 C 0.75882 0.8031 0.40326 0.0
C1369 C 0.74498 0.79406 0.3931 0.0
C1370 C 0.74498 0.78276 0.3572 0.0
H1371 H 0.76288 0.79106 0.19273 0.0
H1372 H 0.75724 0.79779 0.25024 0.0
H1373 H 0.77755 0.79199 0.23847 0.0
H1374 H 0.78362 0.78694 0.32117 0.0
H1375 H 0.78363 0.80698 0.38377 0.0
H1376 H 0.54535 0.48357 0.16021 0.0
H1377 H 0.52605 0.48212 0.09646 0.0
H1378 H 0.53547 0.53148 0.06236 0.0
H1379 H 0.55495 0.5331 0.12615 0.0
H1380 H 0.49809 0.50098 0.08264 0.0
H1381 H 0.54149 0.50753 0.93709 0.0
H1382 H 0.54758 0.50241 0.99565 0.0
H1383 H 0.54269 0.52275 0.98128 0.0
C1384 C 0.54341 0.49416 0.13918 0.0
C1385 C 0.55183 0.50846 0.14831 0.0
C1386 C 0.53232 0.49328 0.10273 0.0
C1387 C 0.52946 0.50661 0.07429 0.0
C1388 C 0.5377 0.52095 0.08341 0.0
H1389 H 0.46882 0.5283 0.8403 0.0
H1390 H 0.48832 0.5276 0.90323 0.0
C1391 C 0.54878 0.52188 0.12004 0.0
C1392 C 0.51766 0.50552 0.03562 0.0
H1393 H 0.51395 0.50804 0.91722 0.0
C1394 C 0.50154 0.50244 0.04642 0.0
C1395 C 0.52222 0.50737 0.98844 0.0
C1396 C 0.53945 0.51006 0.97467 0.0
C1397 C 0.48977 0.50164 0.01139 0.0
C1398 C 0.49431 0.50362 0.96415 0.0
C1399 C 0.51047 0.5065 0.95339 0.0
C1400 C 0.48239 0.50359 0.92554 0.0
C1401 C 0.47252 0.49924 0.02543 0.0
C1402 C 0.47263 0.4902 0.91651 0.0
C1403 C 0.46128 0.49057 0.88044 0.0
C1404 C 0.45955 0.50431 0.85251 0.0
C1405 C 0.46965 0.51753 0.86114 0.0
C1406 C 0.48089 0.51716 0.89715 0.0
H1407 H 0.47058 0.50184 0.06302 0.0
H1408 H 0.46446 0.50701 0.00459 0.0
H1409 H 0.46906 0.4866 0.01902 0.0
H1410 H 0.47382 0.47945 0.93728 0.0
H1411 H 0.45383 0.48013 0.87459 0.0
H1412 H 0.04288 0.48439 0.33916 0.0
H1413 H 0.02321 0.48373 0.40163 0.0
H1414 H 0.03689 0.53145 0.44308 0.0
H1415 H 0.05666 0.53235 0.37979 0.0
H1416 H 0.02802 0.48632 0.49639 0.0
H1417 H 0.98819 0.5348 0.43288 0.0
H1418 H 1.00332 0.52574 0.39654 0.0
H1419 H 0.00882 0.5405 0.43933 0.0
C1420 C 0.04174 0.49484 0.36128 0.0
C1421 C 0.05142 0.50846 0.35422 0.0
C1422 C 0.03045 0.4944 0.39714 0.0
C1423 C 0.02843 0.50758 0.4268 0.0
C1424 C 0.03804 0.52123 0.42008 0.0
H1425 H 0.96848 0.5266 0.66534 0.0
H1426 H 0.98796 0.52681 0.60243 0.0
C1427 C 0.04939 0.5217 0.38401 0.0
C1428 C 0.01648 0.50672 0.46524 0.0
H1429 H 0.98244 0.5241 0.50754 0.0
C1430 C 0.01802 0.49455 0.49877 0.0
C1431 C 1.0034 0.51742 0.46821 0.0
C1432 C 1.00069 0.53027 0.43214 0.0
C1433 C 0.00703 0.49299 0.53565 0.0
C1434 C 0.99399 0.50372 0.53871 0.0
C1435 C 0.99243 0.51586 0.50511 0.0
C1436 C 0.98219 0.50306 0.57757 0.0
C1437 C 0.00971 0.48013 0.57172 0.0
C1438 C 0.97237 0.48958 0.58468 0.0
C1439 C 0.96109 0.48937 0.62101 0.0
C1440 C 0.95939 0.50269 0.65068 0.0
C1441 C 0.96934 0.5161 0.64332 0.0
C1442 C 0.98053 0.51629 0.6072 0.0
H1443 H 0.02212 0.47537 0.57048 0.0
H1444 H 0.00734 0.48476 0.60737 0.0
H1445 H 1.00134 0.47005 0.56505 0.0
H1446 H 0.97325 0.47932 0.56174 0.0
H1447 H 0.95361 0.47888 0.62549 0.0
H1448 H 0.05637 0.47892 0.12583 0.0
H1449 H 0.03656 0.47972 0.06259 0.0
H1450 H 0.02402 0.52799 0.10106 0.0
H1451 H 0.04341 0.52727 0.16427 0.0
H1452 H 0.9975 0.50896 0.08527 0.0
H1453 H 0.04088 0.504 0.93917 0.0
H1454 H 0.04213 0.48829 0.98175 0.0
H1455 H 0.04701 0.50849 0.99813 0.0
C1456 C 0.0494 0.4897 0.12081 0.0
C1457 C 0.05163 0.50305 0.15009 0.0
C1458 C 0.03815 0.49018 0.08446 0.0
C1459 C 0.02897 0.50402 0.07661 0.0
C1460 C 0.03099 0.51721 0.10625 0.0
H1461 H 0.95467 0.53365 0.87815 0.0
H1462 H 0.97448 0.53289 0.94143 0.0
C1463 C 0.04217 0.51676 0.14243 0.0
C1464 C 0.01709 0.50488 0.03798 0.0
H1465 H 0.01336 0.50359 0.91933 0.0
C1466 C 1.00096 0.50782 0.04897 0.0
C1467 C 0.02164 0.50347 0.99061 0.0
C1468 C 0.03887 0.50103 0.97648 0.0
C1469 C 0.98922 0.5091 0.014 0.0
C1470 C 0.99377 0.50768 0.96664 0.0
C1471 C 0.0099 0.50474 0.95564 0.0
C1472 C 0.98189 0.5085 0.92803 0.0
C1473 C 0.972 0.51158 0.02808 0.0
C1474 C 0.97975 0.49522 0.89879 0.0
C1475 C 0.96856 0.49564 0.86263 0.0
C1476 C 0.95922 0.5094 0.85456 0.0
C1477 C 0.96156 0.52283 0.88346 0.0
C1478 C 0.97281 0.52238 0.91983 0.0
H1479 H 0.96999 0.50874 0.06548 0.0
H1480 H 0.96871 0.52429 0.0224 0.0
H1481 H 0.96387 0.50403 0.00665 0.0
H1482 H 0.98665 0.48441 0.90428 0.0
H1483 H 0.96723 0.48506 0.84111 0.0
H1484 H 0.45541 0.53331 0.62593 0.0
H1485 H 0.47499 0.53128 0.56255 0.0
H1486 H 0.48367 0.48195 0.5984 0.0
H1487 H 0.46402 0.48371 0.66092 0.0
H1488 H 0.50713 0.52399 0.56637 0.0
H1489 H 0.47517 0.47867 0.45958 0.0
H1490 H 0.46562 0.48932 0.50674 0.0
H1491 H 0.47845 0.47256 0.51879 0.0
C1492 C 0.4614 0.522 0.62017 0.0
C1493 C 0.45799 0.50866 0.64843 0.0
C1494 C 0.47261 0.52086 0.58393 0.0
C1495 C 0.48059 0.50637 0.57511 0.0
C1496 C 0.47738 0.49313 0.60368 0.0
H1497 H 0.55621 0.47968 0.37677 0.0
H1498 H 0.53668 0.47952 0.44091 0.0
C1499 C 0.46618 0.49422 0.63972 0.0
C1500 C 0.49261 0.5052 0.53698 0.0
H1501 H 0.50187 0.48481 0.43704 0.0
C1502 C 0.50594 0.51546 0.53803 0.0
C1503 C 0.49112 0.49399 0.50008 0.0
C1504 C 0.47675 0.4831 0.49584 0.0
C1505 C 0.51783 0.51477 0.50343 0.0
C1506 C 0.51628 0.50365 0.46646 0.0
C1507 C 0.50307 0.49325 0.46559 0.0
C1508 C 0.52779 0.50335 0.42699 0.0
C1509 C 0.53206 0.52588 0.50689 0.0
C1510 C 0.52896 0.51661 0.39735 0.0
C1511 C 0.53998 0.51673 0.36079 0.0
C1512 C 0.55015 0.50355 0.35287 0.0
C1513 C 0.54866 0.49006 0.38195 0.0
C1514 C 0.53752 0.48994 0.41861 0.0
H1515 H 0.53358 0.53067 0.54278 0.0
H1516 H 0.54325 0.51968 0.49643 0.0
H1517 H 0.53026 0.53616 0.48298 0.0
H1518 H 0.52136 0.52695 0.40261 0.0
H1519 H 0.54058 0.52729 0.33899 0.0
H1520 H 0.11538 0.44814 0.21757 0.0
H1521 H 0.13773 0.43089 0.19712 0.0
H1522 H 0.15626 0.46727 0.10514 0.0
H1523 H 0.13358 0.48471 0.125 0.0
H1524 H 0.15733 0.43752 0.06561 0.0
H1525 H 0.18343 0.43473 0.24248 0.0
H1526 H 0.1627 0.42909 0.24261 0.0
H1527 H 0.16834 0.44917 0.22661 0.0
C1528 C 0.12418 0.45257 0.193 0.0
C1529 C 0.1227 0.46791 0.17317 0.0
C1530 C 0.13706 0.44269 0.18163 0.0
C1531 C 0.14893 0.44791 0.15054 0.0
C1532 C 0.14734 0.46306 0.12967 0.0
H1533 H 0.23619 0.38943 0.11798 0.0
H1534 H 0.21804 0.41172 0.13585 0.0
C1535 C 0.13435 0.47299 0.14096 0.0
C1536 C 0.16263 0.43723 0.13908 0.0
H1537 H 0.19157 0.41399 0.1892 0.0
C1538 C 0.16495 0.43255 0.09255 0.0
C1539 C 0.17285 0.43095 0.17403 0.0
C1540 C 0.17183 0.43638 0.22414 0.0
C1541 C 0.17661 0.42116 0.0804 0.0
C1542 C 0.18597 0.41395 0.11588 0.0
C1543 C 0.18424 0.41927 0.16206 0.0
C1544 C 0.19705 0.4004 0.10605 0.0
C1545 C 0.17873 0.41695 0.02959 0.0
C1546 C 0.19123 0.38643 0.08472 0.0
C1547 C 0.20154 0.37378 0.07434 0.0
C1548 C 0.21791 0.37464 0.08571 0.0
C1549 C 0.22365 0.38837 0.10878 0.0
C1550 C 0.2133 0.40114 0.11884 0.0
H1551 H 0.17491 0.42695 0.00663 0.0
H1552 H 0.19138 0.41396 0.02153 0.0
H1553 H 0.17115 0.40642 0.02109 0.0
H1554 H 0.17866 0.3853 0.07594 0.0
H1555 H 0.19664 0.36331 0.05714 0.0
H1556 H 0.8146 0.86415 0.46591 0.0
H1557 H 0.83274 0.88574 0.44465 0.0
H1558 H 0.79535 0.90797 0.36378 0.0
H1559 H 0.77702 0.88601 0.38427 0.0
H1560 H 0.82373 0.90842 0.3181 0.0
H1561 H 0.83324 0.93037 0.49774 0.0
H1562 H 0.83767 0.90944 0.49317 0.0
H1563 H 0.81754 0.91637 0.48311 0.0
C1564 C 0.81015 0.87362 0.44366 0.0
C1565 C 0.79427 0.8734 0.42712 0.0
C1566 C 0.82055 0.88606 0.43182 0.0
C1567 C 0.81531 0.89874 0.40372 0.0
C1568 C 0.7996 0.8984 0.38601 0.0
H1569 H 0.87859 0.98272 0.3738 0.0
H1570 H 0.85559 0.96561 0.39294 0.0
C1571 C 0.78915 0.88583 0.39763 0.0
C1572 C 0.82652 0.91202 0.39203 0.0
H1573 H 0.85305 0.93829 0.44114 0.0
C1574 C 0.82998 0.91511 0.34499 0.0
C1575 C 0.83446 0.92103 0.42701 0.0
C1576 C 0.8304 0.91926 0.47804 0.0
C1577 C 0.84174 0.92632 0.3321 0.0
C1578 C 0.85058 0.93439 0.36723 0.0
C1579 C 0.84651 0.93193 0.41418 0.0
C1580 C 0.86452 0.94484 0.35607 0.0
C1581 C 0.84456 0.92939 0.2809 0.0
C1582 C 0.8774 0.93876 0.33012 0.0
C1583 C 0.89046 0.94849 0.31899 0.0
C1584 C 0.89111 0.96449 0.33422 0.0
C1585 C 0.87848 0.97045 0.36158 0.0
C1586 C 0.8653 0.9607 0.3724 0.0
H1587 H 0.83365 0.92676 0.26002 0.0
H1588 H 0.8482 0.94198 0.27446 0.0
H1589 H 0.85423 0.92139 0.26826 0.0
H1590 H 0.87738 0.92643 0.31844 0.0
H1591 H 0.90006 0.94344 0.29829 0.0
H1592 H 0.31365 0.64891 0.54816 0.0
H1593 H 0.33179 0.62729 0.56866 0.0
H1594 H 0.29385 0.60361 0.64391 0.0
H1595 H 0.27549 0.62556 0.62405 0.0
H1596 H 0.32215 0.60304 0.69173 0.0
H1597 H 0.33268 0.58325 0.51042 0.0
H1598 H 0.33683 0.60418 0.51745 0.0
H1599 H 0.31674 0.59683 0.52581 0.0
C1600 C 0.30908 0.63913 0.56904 0.0
C1601 C 0.29303 0.63892 0.58409 0.0
C1602 C 0.31948 0.62668 0.58046 0.0
C1603 C 0.31409 0.61358 0.6067 0.0
C1604 C 0.29822 0.61351 0.6231 0.0
H1605 H 0.37736 0.52966 0.63216 0.0
H1606 H 0.3544 0.54684 0.61357 0.0
C1607 C 0.28776 0.62608 0.61186 0.0
C1608 C 0.32529 0.60027 0.61763 0.0
H1609 H 0.35213 0.57473 0.56718 0.0
C1610 C 0.32855 0.5967 0.6645 0.0
C1611 C 0.33342 0.59172 0.58215 0.0
C1612 C 0.32962 0.59406 0.53116 0.0
C1613 C 0.3403 0.58544 0.6768 0.0
C1614 C 0.34932 0.57782 0.6413 0.0
C1615 C 0.34544 0.58075 0.59445 0.0
C1616 C 0.36324 0.56734 0.65204 0.0
C1617 C 0.34296 0.58187 0.7278 0.0
C1618 C 0.37604 0.57327 0.67869 0.0
C1619 C 0.38909 0.56351 0.68945 0.0
C1620 C 0.38978 0.54762 0.6732 0.0
C1621 C 0.37721 0.54184 0.64516 0.0
C1622 C 0.36406 0.55162 0.63466 0.0
H1623 H 0.33199 0.58427 0.7486 0.0
H1624 H 0.34655 0.56922 0.73325 0.0
H1625 H 0.35261 0.58974 0.74138 0.0
H1626 H 0.37597 0.5855 0.69122 0.0
H1627 H 0.39862 0.56843 0.71072 0.0
H1628 H 0.70118 0.1557 0.85907 0.0
H1629 H 0.68411 0.13265 0.84112 0.0
H1630 H 0.70591 0.10609 0.95314 0.0
H1631 H 0.72299 0.12906 0.97155 0.0
H1632 H 0.69213 0.09978 0.81924 0.0
H1633 H 0.65728 0.10545 0.98382 0.0
H1634 H 0.66986 0.12136 0.96198 0.0
H1635 H 0.67868 0.10429 0.98987 0.0
C1636 C 0.70249 0.14491 0.87961 0.0
C1637 C 0.71342 0.1443 0.91693 0.0
C1638 C 0.6927 0.13174 0.86931 0.0
C1639 C 0.69354 0.11776 0.8963 0.0
C1640 C 0.70487 0.11686 0.93237 0.0
H1641 H 0.6297 0.03348 0.88825 0.0
H1642 H 0.65149 0.05198 0.90928 0.0
C1643 C 0.71471 0.12999 0.9426 0.0
C1644 C 0.68227 0.10431 0.88729 0.0
H1645 H 0.65017 0.08436 0.93331 0.0
C1646 C 0.683 0.09635 0.84425 0.0
C1647 C 0.67044 0.09977 0.92012 0.0
C1648 C 0.66885 0.1082 0.96646 0.0
C1649 C 0.67213 0.08407 0.83295 0.0
C1650 C 0.65995 0.0799 0.86512 0.0
C1651 C 0.6595 0.08755 0.9087 0.0
C1652 C 0.6469 0.0685 0.85274 0.0
C1653 C 0.67384 0.07567 0.78662 0.0
C1654 C 0.6369 0.07179 0.81467 0.0
C1655 C 0.62453 0.06131 0.80265 0.0
C1656 C 0.6217 0.0473 0.82868 0.0
C1657 C 0.63155 0.04412 0.8674 0.0
C1658 C 0.64401 0.05467 0.87943 0.0
H1659 H 0.6863 0.07647 0.77325 0.0
H1660 H 0.67041 0.06285 0.78926 0.0
H1661 H 0.66587 0.08149 0.76071 0.0
H1662 H 0.63859 0.08257 0.79428 0.0
H1663 H 0.61717 0.06427 0.77279 0.0
H1664 H 0.11489 0.56374 0.29022 0.0
H1665 H 0.13717 0.5811 0.31114 0.0
H1666 H 0.1566 0.54405 0.39905 0.0
H1667 H 0.13397 0.52651 0.37876 0.0
H1668 H 0.15771 0.57326 0.4411 0.0
H1669 H 0.18256 0.57849 0.26322 0.0
H1670 H 0.16179 0.58389 0.26472 0.0
H1671 H 0.16768 0.56369 0.27841 0.0
C1672 C 0.12387 0.55919 0.31397 0.0
C1673 C 0.12266 0.54364 0.33255 0.0
C1674 C 0.13672 0.56913 0.32561 0.0
C1675 C 0.14882 0.56376 0.35567 0.0
C1676 C 0.14749 0.54839 0.37532 0.0
H1677 H 0.23557 0.62333 0.38946 0.0
H1678 H 0.21766 0.60088 0.37046 0.0
C1679 C 0.13454 0.5384 0.3638 0.0
C1680 C 0.16249 0.57451 0.36741 0.0
H1681 H 0.19082 0.59876 0.31804 0.0
C1682 C 0.16509 0.57867 0.41424 0.0
C1683 C 0.17239 0.58135 0.33254 0.0
C1684 C 0.17109 0.57649 0.28198 0.0
C1685 C 0.17671 0.59008 0.42687 0.0
C1686 C 0.18574 0.59784 0.39161 0.0
C1687 C 0.18374 0.59304 0.34504 0.0
C1688 C 0.19667 0.61148 0.40217 0.0
C1689 C 0.17914 0.59373 0.47794 0.0
C1690 C 0.19076 0.62511 0.42498 0.0
C1691 C 0.20093 0.63785 0.43597 0.0
C1692 C 0.21725 0.63742 0.4238 0.0
C1693 C 0.22307 0.62404 0.39933 0.0
C1694 C 0.21286 0.61118 0.3886 0.0
H1695 H 0.17561 0.5834 0.50009 0.0
H1696 H 0.19182 0.59682 0.48557 0.0
H1697 H 0.17151 0.60403 0.48791 0.0
H1698 H 0.17823 0.6259 0.43442 0.0
H1699 H 0.19595 0.64804 0.45426 0.0
H1700 H 0.63432 0.98516 0.62807 0.0
H1701 H 0.65621 0.9669 0.60737 0.0
H1702 H 0.63562 0.93046 0.69546 0.0
H1703 H 0.61408 0.94861 0.717 0.0
H1704 H 0.66733 0.93293 0.70957 0.0
H1705 H 0.65496 0.92904 0.51959 0.0
H1706 H 0.65829 0.94899 0.54078 0.0
H1707 H 0.64104 0.93792 0.56009 0.0
C1708 C 0.63441 0.97321 0.64273 0.0
C1709 C 0.6224 0.96837 0.67413 0.0
C1710 C 0.64691 0.96276 0.63075 0.0
C1711 C 0.6475 0.9472 0.64945 0.0
C1712 C 0.63547 0.94238 0.68059 0.0
H1713 H 0.69598 0.86317 0.55216 0.0
H1714 H 0.67772 0.88469 0.57325 0.0
C1715 C 0.62311 0.95281 0.69279 0.0
C1716 C 0.66066 0.93586 0.63754 0.0
H1717 H 0.67775 0.91535 0.54726 0.0
C1718 C 0.66966 0.92914 0.67404 0.0
C1719 C 0.66362 0.93079 0.59123 0.0
C1720 C 0.6539 0.93692 0.55065 0.0
C1721 C 0.68127 0.91729 0.6657 0.0
C1722 C 0.6843 0.91228 0.61935 0.0
C1723 C 0.67551 0.91924 0.58277 0.0
C1724 C 0.69568 0.89908 0.60812 0.0
C1725 C 0.68968 0.90981 0.70684 0.0
C1726 C 0.71194 0.89987 0.62085 0.0
C1727 C 0.72245 0.88738 0.60929 0.0
C1728 C 0.71695 0.874 0.58408 0.0
C1729 C 0.70067 0.87329 0.57147 0.0
C1730 C 0.69019 0.88564 0.58341 0.0
H1731 H 0.68314 0.912 0.73999 0.0
H1732 H 0.69101 0.89669 0.70201 0.0
H1733 H 0.70181 0.91513 0.71031 0.0
H1734 H 0.71658 0.91025 0.63903 0.0
H1735 H 0.73495 0.8884 0.61904 0.0
H1736 H 0.37758 0.4728 0.78531 0.0
H1737 H 0.35425 0.4564 0.80477 0.0
H1738 H 0.38078 0.43414 0.91615 0.0
H1739 H 0.40418 0.45053 0.89715 0.0
H1740 H 0.3534 0.42271 0.803 0.0
H1741 H 0.33806 0.44599 0.97846 0.0
H1742 H 0.35074 0.45681 0.93831 0.0
H1743 H 0.35875 0.44058 0.97212 0.0
C1744 C 0.37841 0.46462 0.8145 0.0
C1745 C 0.39279 0.46302 0.83975 0.0
C1746 C 0.36505 0.45522 0.82543 0.0
C1747 C 0.36571 0.44415 0.86214 0.0
C1748 C 0.3799 0.4428 0.88817 0.0
H1749 H 0.31276 0.36717 0.97927 0.0
H1750 H 0.33113 0.38834 0.95661 0.0
C1751 C 0.3933 0.45215 0.87715 0.0
C1752 C 0.35197 0.43328 0.87136 0.0
H1753 H 0.3262 0.42106 0.95664 0.0
C1754 C 0.34728 0.42247 0.83635 0.0
C1755 C 0.344 0.43302 0.91484 0.0
C1756 C 0.34802 0.44482 0.95298 0.0
C1757 C 0.33536 0.41089 0.84445 0.0
C1758 C 0.32772 0.41032 0.88847 0.0
C1759 C 0.33206 0.42149 0.92292 0.0
C1760 C 0.3162 0.39743 0.90101 0.0
C1761 C 0.33158 0.39889 0.80663 0.0
C1762 C 0.30158 0.39545 0.87731 0.0
C1763 C 0.29094 0.38318 0.89011 0.0
C1764 C 0.29474 0.37276 0.92701 0.0
C1765 C 0.30938 0.37489 0.95062 0.0
C1766 C 0.31994 0.38707 0.93781 0.0
H1767 H 0.34073 0.39896 0.7785 0.0
H1768 H 0.33077 0.38662 0.82126 0.0
H1769 H 0.31983 0.40186 0.7908 0.0
H1770 H 0.29832 0.40348 0.84927 0.0
H1771 H 0.27973 0.38194 0.87142 0.0
H1772 H 0.81874 0.14972 0.03379 0.0
H1773 H 0.83758 0.12891 0.05604 0.0
H1774 H 0.80447 0.11175 0.16004 0.0
H1775 H 0.78526 0.13262 0.13755 0.0
H1776 H 0.85157 0.12385 0.14364 0.0
H1777 H 0.81612 0.07097 0.08585 0.0
H1778 H 0.81145 0.09108 0.06733 0.0
H1779 H 0.80624 0.08456 0.12502 0.0
C1780 C 0.81536 0.14156 0.06141 0.0
C1781 C 0.80042 0.14288 0.08386 0.0
C1782 C 0.8262 0.12963 0.07407 0.0
C1783 C 0.82238 0.11865 0.1093 0.0
C1784 C 0.80755 0.11994 0.13219 0.0
H1785 H 0.88065 0.04042 0.22005 0.0
H1786 H 0.85866 0.05878 0.20256 0.0
C1787 C 0.79664 0.13194 0.11953 0.0
C1788 C 0.83426 0.10619 0.12228 0.0
H1789 H 0.8413 0.06589 0.12023 0.0
C1790 C 0.8493 0.11117 0.13866 0.0
C1791 C 0.83126 0.08965 0.11591 0.0
C1792 C 0.81545 0.08366 0.09725 0.0
C1793 C 0.86147 0.10011 0.14854 0.0
C1794 C 0.85865 0.0836 0.14093 0.0
C1795 C 0.84348 0.07855 0.12567 0.0
C1796 C 0.87142 0.0715 0.14839 0.0
C1797 C 0.87722 0.10621 0.16744 0.0
C1798 C 0.8857 0.07216 0.12256 0.0
C1799 C 0.89831 0.06169 0.13242 0.0
C1800 C 0.89686 0.05026 0.16819 0.0
C1801 C 0.88221 0.04908 0.19233 0.0
C1802 C 0.86962 0.05959 0.18244 0.0
H1803 H 0.87601 0.11834 0.18293 0.0
H1804 H 0.88207 0.09799 0.19439 0.0
H1805 H 0.88603 0.10696 0.13857 0.0
H1806 H 0.88722 0.08104 0.0954 0.0
H1807 H 0.90935 0.06289 0.11294 0.0
H1808 H 0.79069 0.63022 0.97298 0.0
H1809 H 0.80854 0.6078 0.95576 0.0
H1810 H 0.82992 0.63481 0.84383 0.0
H1811 H 0.81232 0.6574 0.86121 0.0
H1812 H 0.81425 0.58927 0.87645 0.0
H1813 H 0.86834 0.62391 0.92587 0.0
H1814 H 0.84834 0.63069 0.93896 0.0
H1815 H 0.85657 0.63344 0.88154 0.0
C1816 C 0.79906 0.63136 0.94432 0.0
C1817 C 0.80015 0.64572 0.91875 0.0
C1818 C 0.80928 0.61851 0.93459 0.0
C1819 C 0.82082 0.61975 0.89921 0.0
C1820 C 0.82138 0.63373 0.87206 0.0
H1821 H 0.89536 0.56408 0.77683 0.0
H1822 H 0.87508 0.5833 0.80026 0.0
C1823 C 0.81121 0.6466 0.88183 0.0
C1824 C 0.8326 0.60665 0.89155 0.0
H1825 H 0.87275 0.59892 0.88815 0.0
C1826 C 0.82704 0.59132 0.87939 0.0
C1827 C 0.84929 0.60929 0.89595 0.0
C1828 C 0.85602 0.62517 0.91175 0.0
C1829 C 0.83775 0.57876 0.86951 0.0
C1830 C 0.85443 0.58158 0.87242 0.0
C1831 C 0.85996 0.59679 0.8858 0.0
C1832 C 0.86644 0.56935 0.85855 0.0
C1833 C 0.83119 0.56275 0.85437 0.0
C1834 C 0.86843 0.55505 0.88373 0.0
C1835 C 0.88017 0.54392 0.87044 0.0
C1836 C 0.89012 0.54693 0.83178 0.0
C1837 C 0.888 0.56129 0.80682 0.0
C1838 C 0.87637 0.57235 0.82014 0.0
H1839 H 0.81819 0.5633 0.8463 0.0
H1840 H 0.83767 0.55834 0.82309 0.0
H1841 H 0.83299 0.55392 0.88278 0.0
H1842 H 0.86104 0.5526 0.91393 0.0
H1843 H 0.88148 0.53301 0.89046 0.0
H1844 H 0.23632 0.12727 0.62781 0.0
H1845 H 0.21804 0.10522 0.64791 0.0
H1846 H 0.18055 0.1276 0.56779 0.0
H1847 H 0.19863 0.14928 0.54694 0.0
H1848 H 0.18965 0.10455 0.69366 0.0
H1849 H 0.18017 0.08314 0.51346 0.0
H1850 H 0.19585 0.09713 0.52845 0.0
H1851 H 0.17571 0.10405 0.51857 0.0
C1852 C 0.22417 0.12747 0.61455 0.0
C1853 C 0.21901 0.13996 0.58535 0.0
C1854 C 0.21376 0.11485 0.62594 0.0
C1855 C 0.19804 0.11452 0.60829 0.0
C1856 C 0.19276 0.12728 0.58054 0.0
H1857 H 0.11338 0.06934 0.71258 0.0
H1858 H 0.13602 0.08647 0.69281 0.0
C1859 C 0.20312 0.13976 0.56893 0.0
C1860 C 0.18686 0.10118 0.61964 0.0
H1861 H 0.16037 0.07502 0.56984 0.0
C1862 C 0.18341 0.09794 0.66659 0.0
C1863 C 0.17894 0.09227 0.58442 0.0
C1864 C 0.18299 0.0942 0.53344 0.0
C1865 C 0.17166 0.08667 0.67918 0.0
C1866 C 0.16283 0.07871 0.64384 0.0
C1867 C 0.1669 0.08131 0.59697 0.0
C1868 C 0.14891 0.0682 0.65472 0.0
C1869 C 0.16884 0.08345 0.73031 0.0
C1870 C 0.14817 0.05239 0.63798 0.0
C1871 C 0.13502 0.04257 0.64858 0.0
C1872 C 0.12237 0.04841 0.67613 0.0
C1873 C 0.12298 0.06438 0.69173 0.0
C1874 C 0.13602 0.07417 0.68082 0.0
H1875 H 0.17974 0.08603 0.75127 0.0
H1876 H 0.15915 0.09138 0.74314 0.0
H1877 H 0.16523 0.07082 0.73641 0.0
H1878 H 0.15789 0.04756 0.61732 0.0
H1879 H 0.13493 0.03033 0.63609 0.0
H1880 H 0.72871 0.38017 0.36738 0.0
H1881 H 0.70995 0.40164 0.34626 0.0
H1882 H 0.67931 0.38819 0.46077 0.0
H1883 H 0.69786 0.36709 0.48236 0.0
H1884 H 0.67757 0.39968 0.32188 0.0
H1885 H 0.68474 0.43598 0.48205 0.0
H1886 H 0.69863 0.42037 0.46609 0.0
H1887 H 0.68004 0.41547 0.49457 0.0
C1888 C 0.718 0.38184 0.38811 0.0
C1889 C 0.71487 0.37192 0.42671 0.0
C1890 C 0.7073 0.39411 0.37604 0.0
C1891 C 0.69339 0.39674 0.40256 0.0
C1892 C 0.69016 0.38669 0.44052 0.0
H1893 H 0.60517 0.44905 0.39542 0.0
H1894 H 0.62845 0.43238 0.41346 0.0
C1895 C 0.70078 0.3745 0.45259 0.0
C1896 C 0.68181 0.40956 0.39012 0.0
H1897 H 0.6613 0.44126 0.43606 0.0
C1898 C 0.67419 0.40894 0.34651 0.0
C1899 C 0.6774 0.42165 0.42232 0.0
C1900 C 0.68575 0.42353 0.46869 0.0
C1901 C 0.66177 0.4196 0.3351 0.0
C1902 C 0.65699 0.4313 0.36798 0.0
C1903 C 0.66492 0.43222 0.41103 0.0
C1904 C 0.64337 0.44228 0.35892 0.0
C1905 C 0.65341 0.41785 0.28871 0.0
C1906 C 0.6442 0.4537 0.32318 0.0
C1907 C 0.63094 0.46331 0.31292 0.0
C1908 C 0.61657 0.46167 0.33822 0.0
C1909 C 0.61601 0.45062 0.37518 0.0
C1910 C 0.6293 0.44107 0.38552 0.0
H1911 H 0.65642 0.40637 0.27119 0.0
H1912 H 0.64021 0.4185 0.29317 0.0
H1913 H 0.6571 0.4278 0.26545 0.0
H1914 H 0.65502 0.45501 0.30272 0.0
H1915 H 0.63185 0.4717 0.28426 0.0
H1916 H 0.40046 0.94377 0.2022 0.0
H1917 H 0.37842 0.92594 0.18174 0.0
H1918 H 0.35374 0.96514 0.11559 0.0
H1919 H 0.37608 0.98308 0.13501 0.0
H1920 H 0.34758 0.92697 0.20821 0.0
H1921 H 0.35135 0.93132 0.01525 0.0
H1922 H 0.36688 0.93888 0.0531 0.0
H1923 H 0.3488 0.95016 0.04445 0.0
C1924 C 0.39043 0.94862 0.18291 0.0
C1925 C 0.39009 0.96486 0.17003 0.0
C1926 C 0.37778 0.93839 0.17135 0.0
C1927 C 0.36444 0.94411 0.14676 0.0
C1928 C 0.36404 0.96034 0.13373 0.0
H1929 H 0.27706 0.88421 0.12669 0.0
H1930 H 0.29557 0.90598 0.14722 0.0
C1931 C 0.3768 0.97059 0.14494 0.0
C1932 C 0.35096 0.93302 0.13587 0.0
H1933 H 0.3301 0.91597 0.04605 0.0
C1934 C 0.3437 0.92462 0.17274 0.0
C1935 C 0.34596 0.92986 0.08959 0.0
C1936 C 0.35372 0.93791 0.04824 0.0
C1937 C 0.33188 0.91293 0.16461 0.0
C1938 C 0.32687 0.90979 0.11833 0.0
C1939 C 0.33387 0.91845 0.08155 0.0
C1940 C 0.31539 0.8967 0.10676 0.0
C1941 C 0.32538 0.90359 0.20547 0.0
C1942 C 0.32024 0.88438 0.0767 0.0
C1943 C 0.30969 0.87208 0.06463 0.0
C1944 C 0.29398 0.87174 0.08235 0.0
C1945 C 0.28911 0.88402 0.11278 0.0
C1946 C 0.2997 0.89646 0.12464 0.0
H1947 H 0.33309 0.90482 0.23686 0.0
H1948 H 0.31329 0.90814 0.21444 0.0
H1949 H 0.32428 0.89068 0.19676 0.0
H1950 H 0.33227 0.88426 0.06252 0.0
H1951 H 0.31391 0.86283 0.04122 0.0
H1952 H 0.81388 0.36412 0.54558 0.0
H1953 H 0.83197 0.38579 0.56711 0.0
H1954 H 0.79391 0.40875 0.64356 0.0
H1955 H 0.77571 0.38674 0.62298 0.0
H1956 H 0.83057 0.41705 0.54673 0.0
H1957 H 0.82943 0.40917 0.73899 0.0
H1958 H 0.82122 0.39447 0.69951 0.0
H1959 H 0.81012 0.41231 0.71306 0.0
C1960 C 0.80932 0.3737 0.56726 0.0
C1961 C 0.79332 0.37363 0.58269 0.0
C1962 C 0.81971 0.38614 0.57946 0.0
C1963 C 0.8144 0.39889 0.60732 0.0
C1964 C 0.79841 0.39891 0.62284 0.0
H1965 H 0.8747 0.48577 0.63356 0.0
H1966 H 0.8527 0.46755 0.61294 0.0
C1967 C 0.788 0.38633 0.61093 0.0
C1968 C 0.8257 0.41214 0.61907 0.0
H1969 H 0.8443 0.43104 0.70997 0.0
C1970 C 0.83352 0.42016 0.58245 0.0
C1971 C 0.82966 0.41613 0.66566 0.0
C1972 C 0.8223 0.4075 0.70662 0.0
C1973 C 0.84539 0.43177 0.59104 0.0
C1974 C 0.84931 0.4358 0.63763 0.0
C1975 C 0.84124 0.42803 0.67425 0.0
C1976 C 0.86254 0.44712 0.64941 0.0
C1977 C 0.85408 0.43908 0.5501 0.0
C1978 C 0.87527 0.44185 0.67739 0.0
C1979 C 0.8877 0.45224 0.68959 0.0
C1980 C 0.88778 0.46822 0.67406 0.0
C1981 C 0.8751 0.47351 0.64571 0.0
C1982 C 0.86253 0.46308 0.63378 0.0
H1983 H 0.85245 0.43191 0.51777 0.0
H1984 H 0.84928 0.45124 0.54353 0.0
H1985 H 0.8671 0.44017 0.55733 0.0
H1986 H 0.87561 0.42961 0.68982 0.0
H1987 H 0.89727 0.4477 0.71136 0.0
H1988 H 0.28325 0.13294 0.36948 0.0
H1989 H 0.30178 0.11125 0.34849 0.0
H1990 H 0.33273 0.12472 0.46238 0.0
H1991 H 0.31442 0.14605 0.48382 0.0
H1992 H 0.33423 0.11281 0.32382 0.0
H1993 H 0.3267 0.07701 0.48466 0.0
H1994 H 0.31298 0.09273 0.46841 0.0
H1995 H 0.33165 0.09751 0.49663 0.0
C1996 C 0.29398 0.13124 0.39008 0.0
C1997 C 0.29726 0.14123 0.42848 0.0
C1998 C 0.30455 0.11884 0.37808 0.0
C1999 C 0.31849 0.11614 0.40448 0.0
C2000 C 0.32187 0.12627 0.44222 0.0
H2001 H 0.40568 0.06194 0.39785 0.0
H2002 H 0.38274 0.07905 0.41601 0.0
C2003 C 0.31139 0.13859 0.4542 0.0
C2004 C 0.32989 0.10314 0.3922 0.0
H2005 H 0.34989 0.07116 0.43835 0.0
C2006 C 0.33748 0.10354 0.34854 0.0
C2007 C 0.33414 0.09105 0.42452 0.0
C2008 C 0.32583 0.08942 0.47099 0.0
C2009 C 0.3497 0.09265 0.33716 0.0
C2010 C 0.3543 0.0809 0.37011 0.0
C2011 C 0.34641 0.08022 0.41325 0.0
C2012 C 0.36769 0.06962 0.36102 0.0
C2013 C 0.35806 0.09419 0.29072 0.0
C2014 C 0.36667 0.05828 0.32501 0.0
C2015 C 0.37974 0.04842 0.31467 0.0
C2016 C 0.39411 0.0497 0.34017 0.0
C2017 C 0.39484 0.06064 0.37745 0.0
C2018 C 0.38174 0.07045 0.38785 0.0
H2019 H 0.35534 0.10575 0.27335 0.0
H2020 H 0.37124 0.09316 0.29503 0.0
H2021 H 0.35405 0.08437 0.26738 0.0
H2022 H 0.35585 0.05724 0.30438 0.0
H2023 H 0.3787 0.04013 0.28577 0.0
H2024 H 0.63242 0.53008 0.13273 0.0
H2025 H 0.65486 0.54795 0.11353 0.0
H2026 H 0.63256 0.58592 0.19196 0.0
H2027 H 0.61045 0.56818 0.21204 0.0
H2028 H 0.65624 0.576 0.06728 0.0
H2029 H 0.67673 0.58584 0.24828 0.0
H2030 H 0.66252 0.57038 0.2331 0.0
H2031 H 0.65595 0.5907 0.24176 0.0
C2032 C 0.63231 0.54225 0.14578 0.0
C2033 C 0.61971 0.54765 0.17424 0.0
C2034 C 0.64516 0.55243 0.13492 0.0
C2035 C 0.64562 0.56816 0.15234 0.0
C2036 C 0.63277 0.57369 0.17938 0.0
H2037 H 0.69333 0.6512 0.04775 0.0
H2038 H 0.67557 0.62912 0.06788 0.0
C2039 C 0.62004 0.56354 0.1905 0.0
C2040 C 0.65922 0.57905 0.14136 0.0
H2041 H 0.68581 0.60504 0.1915 0.0
C2042 C 0.66285 0.58219 0.09446 0.0
C2043 C 0.66812 0.5869 0.17675 0.0
C2044 C 0.66576 0.58315 0.22776 0.0
C2045 C 0.67452 0.59354 0.08202 0.0
C2046 C 0.68252 0.6023 0.11743 0.0
C2047 C 0.6795 0.59855 0.16432 0.0
C2048 C 0.69344 0.61588 0.1065 0.0
C2049 C 0.67813 0.59604 0.03097 0.0
C2050 C 0.70925 0.61622 0.12337 0.0
C2051 C 0.71945 0.62904 0.11248 0.0
C2052 C 0.71399 0.64174 0.08454 0.0
C2053 C 0.69801 0.64154 0.06886 0.0
C2054 C 0.68785 0.62883 0.08002 0.0
H2055 H 0.67533 0.58515 0.01023 0.0
H2056 H 0.67059 0.60593 0.01744 0.0
H2057 H 0.69091 0.59923 0.02538 0.0
H2058 H 0.71377 0.60644 0.14434 0.0
H2059 H 0.73168 0.62884 0.12507 0.0
H2060 H 0.19784 0.86617 0.97966 0.0
H2061 H 0.17957 0.88745 0.95753 0.0
H2062 H 0.21157 0.90166 0.84701 0.0
H2063 H 0.23002 0.88001 0.8686 0.0
H2064 H 0.18481 0.92 0.95589 0.0
H2065 H 0.16862 0.89746 0.77941 0.0
H2066 H 0.17883 0.8852 0.8218 0.0
H2067 H 0.18966 0.90023 0.78995 0.0
C2068 C 0.20105 0.87371 0.95042 0.0
C2069 C 0.21543 0.87127 0.92575 0.0
C2070 C 0.19055 0.88594 0.93791 0.0
C2071 C 0.19408 0.89608 0.90036 0.0
C2072 C 0.20845 0.8938 0.87563 0.0
H2073 H 0.13382 0.97235 0.78565 0.0
H2074 H 0.15681 0.95545 0.80448 0.0
C2075 C 0.21902 0.88147 0.88811 0.0
C2076 C 0.18265 0.90905 0.88812 0.0
H2077 H 0.15675 0.92165 0.8035 0.0
C2078 C 0.17874 0.92041 0.92245 0.0
C2079 C 0.17475 0.90961 0.84447 0.0
C2080 C 0.17803 0.89743 0.80682 0.0
C2081 C 0.16701 0.93214 0.9146 0.0
C2082 C 0.15881 0.93242 0.87146 0.0
C2083 C 0.16305 0.92139 0.83659 0.0
C2084 C 0.1453 0.94357 0.8625 0.0
C2085 C 0.16347 0.94413 0.95258 0.0
C2086 C 0.13121 0.9426 0.88909 0.0
C2087 C 0.11801 0.95224 0.87843 0.0
C2088 C 0.11863 0.96303 0.84084 0.0
C2089 C 0.13292 0.96425 0.81501 0.0
C2090 C 0.14608 0.95455 0.82558 0.0
H2091 H 0.17356 0.94514 0.97769 0.0
H2092 H 0.16101 0.95614 0.93769 0.0
H2093 H 0.15271 0.94019 0.97217 0.0
H2094 H 0.13023 0.93402 0.91725 0.0
H2095 H 0.10719 0.95091 0.89888 0.0
loop_
_geom_bond_atom_site_label_1
_geom_bond_atom_site_label_2
_geom_bond_distance
_geom_bond_site_symmetry_2
_ccdc_geom_bond_type
Co0 O2 2.143 . S
Co0 O8 2.074 . S
Co0 O11 2.093 1_554 S
Co0 O24 2.097 1_554 S
Co0 N41 2.151 . S
Co0 N49 2.214 . S
Co1 O2 2.160 1_556 S
Co1 O7 2.058 1_556 S
Co1 O17 2.057 1_556 S
Co1 O32 2.037 . S
Co1 N36 2.145 . S
Co1 N57 2.257 . S
O2 Co0 2.143 . S
O2 Co1 2.160 1_554 S
C3 O4 1.278 . S
C3 O11 1.224 . S
O4 C3 1.278 . S
C5 O6 1.245 . S
C5 O17 1.232 . S
O6 C5 1.245 . S
O7 Co1 2.058 1_554 S
O7 C33 1.269 . S
O8 Co0 2.074 . S
O8 C33 1.257 . S
H9 C34 0.930 . S
H10 C40 0.930 . S
O11 Co0 2.093 1_556 S
O11 C3 1.224 . S
H12 C44 0.929 . S
H13 C46 0.930 . S
H14 C47 0.930 . S
H15 C45 0.929 . S
H16 C48 0.928 . S
O17 Co1 2.057 1_554 S
O17 C5 1.232 . S
H18 C37 0.929 . S
H19 C38 0.929 1_554 S
H20 C50 0.931 . S
H21 C42 0.929 . S
H22 C51 0.930 . S
H23 C43 0.931 . S
O24 Co0 2.097 1_556 S
O24 C52 1.214 . S
H25 C53 0.929 . S
H26 C54 0.929 . S
H27 C55 0.930 . S
H28 C56 0.929 . S
H29 C58 0.930 . S
H30 C35 0.930 1_554 S
H31 C39 0.930 . S
O32 Co1 2.037 . S
O32 C52 1.234 . S
C33 O7 1.269 . S
C33 O8 1.257 . S
C34 H9 0.930 . S
C34 C37 1.388 . S
C34 C39 1.418 . S
C35 H30 0.930 1_556 S
C35 C38 1.404 . S
C35 C39 1.353 . S
N36 Co1 2.145 . S
N36 C37 1.397 . S
N36 C38 1.334 . S
C37 H18 0.929 . S
C37 C34 1.388 . S
C37 N36 1.397 . S
C38 H19 0.929 1_556 S
C38 C35 1.404 . S
C38 N36 1.334 . S
C39 H31 0.930 . S
C39 C34 1.418 . S
C39 C35 1.353 . S
C40 H10 0.930 . S
C40 N41 1.330 . S
C40 C42 1.446 . S
N41 Co0 2.151 . S
N41 C40 1.330 . S
N41 C45 1.418 . S
C42 H21 0.929 . S
C42 C40 1.446 . S
C42 C43 1.332 . S
C43 H23 0.931 . S
C43 C42 1.332 . S
C43 C44 1.267 . S
C44 H12 0.929 . S
C44 C43 1.267 . S
C44 C45 1.251 . S
C45 H15 0.929 . S
C45 N41 1.418 . S
C45 C44 1.251 . S
C46 H13 0.930 . S
C46 C48 1.406 . S
C46 C51 1.261 . S
C47 H14 0.930 . S
C47 N49 1.325 1_556 S
C47 C50 1.357 . S
C48 H16 0.928 . S
C48 C46 1.406 . S
C48 N49 1.261 . S
N49 Co0 2.214 . S
N49 C47 1.325 1_554 S
N49 C48 1.261 . S
C50 H20 0.931 . S
C50 C47 1.357 . S
C50 C51 1.312 1_556 S
C51 H22 0.930 . S
C51 C46 1.261 . S
C51 C50 1.312 1_554 S
C52 O24 1.214 . S
C52 O32 1.234 . S
C53 H25 0.929 . S
C53 C56 1.391 . S
C53 C58 1.391 . S
C54 H26 0.929 . S
C54 C55 1.390 . S
C54 N57 1.391 . S
C55 H27 0.930 . S
C55 C54 1.390 . S
C55 C56 1.392 . S
C56 H28 0.929 . S
C56 C53 1.391 . S
C56 C55 1.392 . S
N57 Co1 2.257 . S
N57 C54 1.391 . S
N57 C58 1.388 . S
C58 H29 0.930 . S
C58 C53 1.391 . S
C58 N57 1.388 . S
Co59 O61 2.146 1_565 S
Co59 O67 2.074 . S
Co59 O70 2.093 . S
Co59 O83 2.097 . S
Co59 N100 2.151 . S
Co59 N108 2.214 . S
Co60 O61 2.156 . S
Co60 O66 2.058 . S
Co60 O76 2.057 . S
Co60 O91 2.037 . S
Co60 N95 2.145 . S
Co60 N116 2.257 . S
O61 Co59 2.146 1_545 S
O61 Co60 2.156 . S
C62 O63 1.278 . S
C62 O70 1.224 . S
O63 C62 1.278 . S
C64 O65 1.245 . S
C64 O76 1.232 . S
O65 C64 1.245 . S
O66 Co60 2.058 . S
O66 C92 1.269 . S
O67 Co59 2.074 . S
O67 C92 1.257 1_565 S
H68 C93 0.930 . S
H69 C99 0.930 . S
O70 Co59 2.093 . S
O70 C62 1.224 . S
H71 C103 0.929 . S
H72 C105 0.930 . S
H73 C106 0.930 . S
H74 C104 0.929 . S
H75 C107 0.928 . S
O76 Co60 2.057 . S
O76 C64 1.232 . S
H77 C96 0.929 . S
H78 C97 0.929 . S
H79 C109 0.931 . S
H80 C101 0.929 . S
H81 C110 0.930 . S
H82 C102 0.931 . S
O83 Co59 2.097 . S
O83 C111 1.214 . S
H84 C112 0.929 . S
H85 C113 0.929 . S
H86 C114 0.930 . S
H87 C115 0.929 . S
H88 C117 0.930 . S
H89 C94 0.930 . S
H90 C98 0.930 . S
O91 Co60 2.037 . S
O91 C111 1.234 1_545 S
C92 O66 1.269 . S
C92 O67 1.257 1_545 S
C93 H68 0.930 . S
C93 C96 1.388 . S
C93 C98 1.418 . S
C94 H89 0.930 . S
C94 C97 1.404 . S
C94 C98 1.353 . S
N95 Co60 2.145 . S
N95 C96 1.397 . S
N95 C97 1.334 . S
C96 H77 0.929 . S
C96 C93 1.388 . S
C96 N95 1.397 . S
C97 H78 0.929 . S
C97 C94 1.404 . S
C97 N95 1.334 . S
C98 H90 0.930 . S
C98 C93 1.418 . S
C98 C94 1.353 . S
C99 H69 0.930 . S
C99 N100 1.330 . S
C99 C101 1.446 . S
N100 Co59 2.151 . S
N100 C99 1.330 . S
N100 C104 1.418 . S
C101 H80 0.929 . S
C101 C99 1.446 . S
C101 C102 1.332 . S
C102 H82 0.931 . S
C102 C101 1.332 . S
C102 C103 1.267 . S
C103 H71 0.929 . S
C103 C102 1.267 . S
C103 C104 1.251 . S
C104 H74 0.929 . S
C104 N100 1.418 . S
C104 C103 1.251 . S
C105 H72 0.930 . S
C105 C107 1.406 . S
C105 C110 1.261 . S
C106 H73 0.930 . S
C106 N108 1.325 . S
C106 C109 1.357 . S
C107 H75 0.928 . S
C107 C105 1.406 . S
C107 N108 1.261 . S
N108 Co59 2.214 . S
N108 C106 1.325 . S
N108 C107 1.261 . S
C109 H79 0.931 . S
C109 C106 1.357 . S
C109 C110 1.312 . S
C110 H81 0.930 . S
C110 C105 1.261 . S
C110 C109 1.312 . S
C111 O83 1.214 . S
C111 O91 1.234 1_565 S
C112 H84 0.929 . S
C112 C115 1.391 . S
C112 C117 1.391 . S
C113 H85 0.929 . S
C113 C114 1.390 . S
C113 N116 1.391 . S
C114 H86 0.930 . S
C114 C113 1.390 . S
C114 C115 1.392 . S
C115 H87 0.929 . S
C115 C112 1.391 . S
C115 C114 1.392 . S
N116 Co60 2.257 . S
N116 C113 1.391 . S
N116 C117 1.388 . S
C117 H88 0.930 . S
C117 C112 1.391 . S
C117 N116 1.388 . S
Co118 O120 2.143 . S
Co118 O126 2.074 . S
Co118 O129 2.093 . S
Co118 O142 2.097 . S
Co118 N159 2.151 . S
Co118 N167 2.214 . S
Co119 O120 2.160 . S
Co119 O125 2.058 . S
Co119 O135 2.057 . S
Co119 O150 2.037 . S
Co119 N154 2.145 . S
Co119 N175 2.257 . S
O120 Co118 2.143 . S
O120 Co119 2.160 . S
C121 O122 1.278 . S
C121 O129 1.224 . S
O122 C121 1.278 . S
C123 O124 1.245 . S
C123 O135 1.232 . S
O124 C123 1.245 . S
O125 Co119 2.058 . S
O125 C151 1.269 . S
O126 Co118 2.074 . S
O126 C151 1.257 . S
H127 C152 0.930 . S
H128 C158 0.930 . S
O129 Co118 2.093 . S
O129 C121 1.224 . S
H130 C162 0.929 . S
H131 C164 0.930 . S
H132 C165 0.930 . S
H133 C163 0.929 . S
H134 C166 0.928 . S
O135 Co119 2.057 . S
O135 C123 1.232 . S
H136 C155 0.929 . S
H137 C156 0.929 . S
H138 C168 0.931 . S
H139 C160 0.929 . S
H140 C169 0.930 . S
H141 C161 0.931 . S
O142 Co118 2.097 . S
O142 C170 1.214 . S
H143 C171 0.929 . S
H144 C172 0.929 . S
H145 C173 0.930 . S
H146 C174 0.929 . S
H147 C176 0.930 . S
H148 C153 0.930 . S
H149 C157 0.930 . S
O150 Co119 2.037 . S
O150 C170 1.234 . S
C151 O125 1.269 . S
C151 O126 1.257 . S
C152 H127 0.930 . S
C152 C155 1.388 . S
C152 C157 1.418 . S
C153 H148 0.930 . S
C153 C156 1.404 . S
C153 C157 1.353 . S
N154 Co119 2.145 . S
N154 C155 1.397 . S
N154 C156 1.334 . S
C155 H136 0.929 . S
C155 C152 1.388 . S
C155 N154 1.397 . S
C156 H137 0.929 . S
C156 C153 1.404 . S
C156 N154 1.334 . S
C157 H149 0.930 . S
C157 C152 1.418 . S
C157 C153 1.353 . S
C158 H128 0.930 . S
C158 N159 1.330 . S
C158 C160 1.446 . S
N159 Co118 2.151 . S
N159 C158 1.330 . S
N159 C163 1.418 . S
C160 H139 0.929 . S
C160 C158 1.446 . S
C160 C161 1.332 . S
C161 H141 0.931 . S
C161 C160 1.332 . S
C161 C162 1.267 . S
C162 H130 0.929 . S
C162 C161 1.267 . S
C162 C163 1.251 . S
C163 H133 0.929 . S
C163 N159 1.418 . S
C163 C162 1.251 . S
C164 H131 0.930 . S
C164 C166 1.406 . S
C164 C169 1.261 . S
C165 H132 0.930 . S
C165 N167 1.325 . S
C165 C168 1.357 . S
C166 H134 0.928 . S
C166 C164 1.406 . S
C166 N167 1.261 . S
N167 Co118 2.214 . S
N167 C165 1.325 . S
N167 C166 1.261 . S
C168 H138 0.931 . S
C168 C165 1.357 . S
C168 C169 1.312 . S
C169 H140 0.930 . S
C169 C164 1.261 . S
C169 C168 1.312 . S
C170 O142 1.214 . S
C170 O150 1.234 . S
C171 H143 0.929 . S
C171 C174 1.391 . S
C171 C176 1.391 . S
C172 H144 0.929 . S
C172 C173 1.390 . S
C172 N175 1.391 . S
C173 H145 0.930 . S
C173 C172 1.390 . S
C173 C174 1.392 . S
C174 H146 0.929 . S
C174 C171 1.391 . S
C174 C173 1.392 . S
N175 Co119 2.257 . S
N175 C172 1.391 . S
N175 C176 1.388 . S
C176 H147 0.930 . S
C176 C171 1.391 . S
C176 N175 1.388 . S
Co177 O179 2.143 . S
Co177 O185 2.074 . S
Co177 O188 2.093 . S
Co177 O201 2.097 . S
Co177 N218 2.151 . S
Co177 N226 2.214 . S
Co178 O179 2.160 1_565 S
Co178 O184 2.058 . S
Co178 O194 2.057 . S
Co178 O209 2.037 . S
Co178 N213 2.145 . S
Co178 N234 2.257 . S
O179 Co177 2.143 . S
O179 Co178 2.160 1_545 S
C180 O181 1.278 . S
C180 O188 1.224 . S
O181 C180 1.278 . S
C182 O183 1.245 . S
C182 O194 1.232 . S
O183 C182 1.245 . S
O184 Co178 2.058 . S
O184 C210 1.269 . S
O185 Co177 2.074 . S
O185 C210 1.257 1_545 S
H186 C211 0.930 . S
H187 C217 0.930 . S
O188 Co177 2.093 . S
O188 C180 1.224 . S
H189 C221 0.929 . S
H190 C223 0.930 . S
H191 C224 0.930 . S
H192 C222 0.929 . S
H193 C225 0.928 . S
O194 Co178 2.057 . S
O194 C182 1.232 . S
H195 C214 0.929 . S
H196 C215 0.929 . S
H197 C227 0.931 . S
H198 C219 0.929 . S
H199 C228 0.930 . S
H200 C220 0.931 . S
O201 Co177 2.097 . S
O201 C229 1.214 . S
H202 C230 0.929 . S
H203 C231 0.929 . S
H204 C232 0.930 . S
H205 C233 0.929 . S
H206 C235 0.930 . S
H207 C212 0.930 . S
H208 C216 0.930 . S
O209 Co178 2.037 . S
O209 C229 1.234 1_565 S
C210 O184 1.269 . S
C210 O185 1.257 1_565 S
C211 H186 0.930 . S
C211 C214 1.388 . S
C211 C216 1.418 . S
C212 H207 0.930 . S
C212 C215 1.404 . S
C212 C216 1.353 . S
N213 Co178 2.145 . S
N213 C214 1.397 . S
N213 C215 1.334 . S
C214 H195 0.929 . S
C214 C211 1.388 . S
C214 N213 1.397 . S
C215 H196 0.929 . S
C215 C212 1.404 . S
C215 N213 1.334 . S
C216 H208 0.930 . S
C216 C211 1.418 . S
C216 C212 1.353 . S
C217 H187 0.930 . S
C217 N218 1.330 . S
C217 C219 1.446 . S
N218 Co177 2.151 . S
N218 C217 1.330 . S
N218 C222 1.418 . S
C219 H198 0.929 . S
C219 C217 1.446 . S
C219 C220 1.332 . S
C220 H200 0.931 . S
C220 C219 1.332 . S
C220 C221 1.267 . S
C221 H189 0.929 . S
C221 C220 1.267 . S
C221 C222 1.251 . S
C222 H192 0.929 . S
C222 N218 1.418 . S
C222 C221 1.251 . S
C223 H190 0.930 . S
C223 C225 1.406 . S
C223 C228 1.261 . S
C224 H191 0.930 . S
C224 N226 1.325 . S
C224 C227 1.357 . S
C225 H193 0.928 . S
C225 C223 1.406 . S
C225 N226 1.261 . S
N226 Co177 2.214 . S
N226 C224 1.325 . S
N226 C225 1.261 . S
C227 H197 0.931 . S
C227 C224 1.357 . S
C227 C228 1.312 . S
C228 H199 0.930 . S
C228 C223 1.261 . S
C228 C227 1.312 . S
C229 O201 1.214 . S
C229 O209 1.234 1_545 S
C230 H202 0.929 . S
C230 C233 1.391 . S
C230 C235 1.391 . S
C231 H203 0.929 . S
C231 C232 1.390 . S
C231 N234 1.391 . S
C232 H204 0.930 . S
C232 C231 1.390 . S
C232 C233 1.392 . S
C233 H205 0.929 . S
C233 C230 1.391 . S
C233 C232 1.392 . S
N234 Co178 2.257 . S
N234 C231 1.391 . S
N234 C235 1.388 . S
C235 H206 0.930 . S
C235 C230 1.391 . S
C235 N234 1.388 . S
Co236 O238 2.143 . S
Co236 O244 2.074 . S
Co236 O247 2.093 1_556 S
Co236 O260 2.097 1_556 S
Co236 N277 2.151 . S
Co236 N285 2.214 . S
Co237 O238 2.160 1_554 S
Co237 O243 2.058 1_554 S
Co237 O253 2.057 1_554 S
Co237 O268 2.037 . S
Co237 N272 2.145 . S
Co237 N293 2.257 . S
O238 Co236 2.143 . S
O238 Co237 2.160 1_556 S
C239 O240 1.278 . S
C239 O247 1.224 . S
O240 C239 1.278 . S
C241 O242 1.245 . S
C241 O253 1.232 . S
O242 C241 1.245 . S
O243 Co237 2.058 1_556 S
O243 C269 1.269 . S
O244 Co236 2.074 . S
O244 C269 1.257 . S
H245 C270 0.930 . S
H246 C276 0.930 . S
O247 Co236 2.093 1_554 S
O247 C239 1.224 . S
H248 C280 0.929 . S
H249 C282 0.930 . S
H250 C283 0.930 . S
H251 C281 0.929 . S
H252 C284 0.928 . S
O253 Co237 2.057 1_556 S
O253 C241 1.232 . S
H254 C273 0.929 . S
H255 C274 0.929 1_556 S
H256 C286 0.931 . S
H257 C278 0.929 . S
H258 C287 0.930 . S
H259 C279 0.931 . S
O260 Co236 2.097 1_554 S
O260 C288 1.214 . S
H261 C289 0.929 . S
H262 C290 0.929 . S
H263 C291 0.930 . S
H264 C292 0.929 . S
H265 C294 0.930 . S
H266 C271 0.931 . S
H267 C275 0.930 . S
O268 Co237 2.037 . S
O268 C288 1.234 . S
C269 O243 1.269 . S
C269 O244 1.257 . S
C270 H245 0.930 . S
C270 C273 1.388 . S
C270 C275 1.418 . S
C271 H266 0.931 . S
C271 C274 1.404 . S
C271 C275 1.353 . S
N272 Co237 2.145 . S
N272 C273 1.397 . S
N272 C274 1.334 . S
C273 H254 0.929 . S
C273 C270 1.388 . S
C273 N272 1.397 . S
C274 H255 0.929 1_554 S
C274 C271 1.404 . S
C274 N272 1.334 . S
C275 H267 0.930 . S
C275 C270 1.418 . S
C275 C271 1.353 . S
C276 H246 0.930 . S
C276 N277 1.330 . S
C276 C278 1.446 . S
N277 Co236 2.151 . S
N277 C276 1.330 . S
N277 C281 1.418 . S
C278 H257 0.929 . S
C278 C276 1.446 . S
C278 C279 1.332 . S
C279 H259 0.931 . S
C279 C278 1.332 . S
C279 C280 1.267 . S
C280 H248 0.929 . S
C280 C279 1.267 . S
C280 C281 1.251 . S
C281 H251 0.929 . S
C281 N277 1.418 . S
C281 C280 1.251 . S
C282 H249 0.930 . S
C282 C284 1.406 . S
C282 C287 1.263 . S
C283 H250 0.930 . S
C283 N285 1.325 1_554 S
C283 C286 1.357 . S
C284 H252 0.928 . S
C284 C282 1.406 . S
C284 N285 1.261 . S
N285 Co236 2.214 . S
N285 C283 1.325 1_556 S
N285 C284 1.261 . S
C286 H256 0.931 . S
C286 C283 1.357 . S
C286 C287 1.310 1_554 S
C287 H258 0.930 . S
C287 C282 1.263 . S
C287 C286 1.310 1_556 S
C288 O260 1.214 . S
C288 O268 1.234 . S
C289 H261 0.929 . S
C289 C292 1.391 . S
C289 C294 1.391 . S
C290 H262 0.929 . S
C290 C291 1.390 . S
C290 N293 1.391 . S
C291 H263 0.930 . S
C291 C290 1.390 . S
C291 C292 1.392 . S
C292 H264 0.929 . S
C292 C289 1.391 . S
C292 C291 1.392 . S
N293 Co237 2.257 . S
N293 C290 1.391 . S
N293 C294 1.388 . S
C294 H265 0.930 . S
C294 C289 1.391 . S
C294 N293 1.388 . S
Co295 O297 2.143 . S
Co295 O303 2.074 . S
Co295 O306 2.093 . S
Co295 O319 2.097 . S
Co295 N336 2.151 . S
Co295 N344 2.214 . S
Co296 O297 2.160 1_565 S
Co296 O302 2.058 . S
Co296 O312 2.057 . S
Co296 O327 2.037 . S
Co296 N331 2.145 . S
Co296 N352 2.257 . S
O297 Co295 2.143 . S
O297 Co296 2.160 1_545 S
C298 O299 1.278 . S
C298 O306 1.224 . S
O299 C298 1.278 . S
C300 O301 1.245 . S
C300 O312 1.232 . S
O301 C300 1.245 . S
O302 Co296 2.058 . S
O302 C328 1.269 . S
O303 Co295 2.074 . S
O303 C328 1.257 1_545 S
H304 C329 0.930 . S
H305 C335 0.930 . S
O306 Co295 2.093 . S
O306 C298 1.224 . S
H307 C339 0.929 . S
H308 C341 0.930 . S
H309 C342 0.930 . S
H310 C340 0.929 . S
H311 C343 0.928 . S
O312 Co296 2.057 . S
O312 C300 1.232 . S
H313 C332 0.929 . S
H314 C333 0.929 . S
H315 C345 0.931 . S
H316 C337 0.929 . S
H317 C346 0.930 . S
H318 C338 0.931 . S
O319 Co295 2.097 . S
O319 C347 1.214 . S
H320 C348 0.929 . S
H321 C349 0.929 . S
H322 C350 0.930 . S
H323 C351 0.929 . S
H324 C353 0.930 . S
H325 C330 0.930 . S
H326 C334 0.930 . S
O327 Co296 2.037 . S
O327 C347 1.234 1_565 S
C328 O302 1.269 . S
C328 O303 1.257 1_565 S
C329 H304 0.930 . S
C329 C332 1.388 . S
C329 C334 1.418 . S
C330 H325 0.930 . S
C330 C333 1.404 . S
C330 C334 1.353 . S
N331 Co296 2.145 . S
N331 C332 1.397 . S
N331 C333 1.334 . S
C332 H313 0.929 . S
C332 C329 1.388 . S
C332 N331 1.397 . S
C333 H314 0.929 . S
C333 C330 1.404 . S
C333 N331 1.334 . S
C334 H326 0.930 . S
C334 C329 1.418 . S
C334 C330 1.353 . S
C335 H305 0.930 . S
C335 N336 1.330 . S
C335 C337 1.446 . S
N336 Co295 2.151 . S
N336 C335 1.330 . S
N336 C340 1.418 . S
C337 H316 0.929 . S
C337 C335 1.446 . S
C337 C338 1.332 . S
C338 H318 0.931 . S
C338 C337 1.332 . S
C338 C339 1.267 . S
C339 H307 0.929 . S
C339 C338 1.267 . S
C339 C340 1.251 . S
C340 H310 0.929 . S
C340 N336 1.418 . S
C340 C339 1.251 . S
C341 H308 0.930 . S
C341 C343 1.406 . S
C341 C346 1.261 . S
C342 H309 0.930 . S
C342 N344 1.325 . S
C342 C345 1.357 . S
C343 H311 0.928 . S
C343 C341 1.406 . S
C343 N344 1.261 . S
N344 Co295 2.214 . S
N344 C342 1.325 . S
N344 C343 1.261 . S
C345 H315 0.931 . S
C345 C342 1.357 . S
C345 C346 1.312 . S
C346 H317 0.930 . S
C346 C341 1.261 . S
C346 C345 1.312 . S
C347 O319 1.214 . S
C347 O327 1.234 1_545 S
C348 H320 0.929 . S
C348 C351 1.391 . S
C348 C353 1.391 . S
C349 H321 0.929 . S
C349 C350 1.390 . S
C349 N352 1.391 . S
C350 H322 0.930 . S
C350 C349 1.390 . S
C350 C351 1.392 . S
C351 H323 0.929 . S
C351 C348 1.391 . S
C351 C350 1.392 . S
N352 Co296 2.257 . S
N352 C349 1.391 . S
N352 C353 1.388 . S
C353 H324 0.930 . S
C353 C348 1.391 . S
C353 N352 1.388 . S
Co354 O356 2.143 . S
Co354 O362 2.074 . S
Co354 O365 2.093 . S
Co354 O378 2.097 . S
Co354 N395 2.151 . S
Co354 N403 2.214 . S
Co355 O356 2.160 . S
Co355 O361 2.058 . S
Co355 O371 2.057 . S
Co355 O386 2.037 . S
Co355 N390 2.145 . S
Co355 N411 2.257 . S
O356 Co354 2.143 . S
O356 Co355 2.160 . S
C357 O358 1.278 . S
C357 O365 1.224 . S
O358 C357 1.278 . S
C359 O360 1.245 . S
C359 O371 1.232 . S
O360 C359 1.245 . S
O361 Co355 2.058 . S
O361 C387 1.269 . S
O362 Co354 2.074 . S
O362 C387 1.257 . S
H363 C388 0.930 . S
H364 C394 0.930 . S
O365 Co354 2.093 . S
O365 C357 1.224 . S
H366 C398 0.929 . S
H367 C400 0.930 . S
H368 C401 0.930 . S
H369 C399 0.929 . S
H370 C402 0.928 . S
O371 Co355 2.057 . S
O371 C359 1.232 . S
H372 C391 0.929 . S
H373 C392 0.929 . S
H374 C404 0.931 . S
H375 C396 0.929 . S
H376 C405 0.930 . S
H377 C397 0.931 . S
O378 Co354 2.097 . S
O378 C406 1.214 . S
H379 C407 0.929 . S
H380 C408 0.929 . S
H381 C409 0.930 . S
H382 C410 0.929 . S
H383 C412 0.930 . S
H384 C389 0.930 . S
H385 C393 0.930 . S
O386 Co355 2.037 . S
O386 C406 1.234 . S
C387 O361 1.269 . S
C387 O362 1.257 . S
C388 H363 0.930 . S
C388 C391 1.388 . S
C388 C393 1.418 . S
C389 H384 0.930 . S
C389 C392 1.404 . S
C389 C393 1.353 . S
N390 Co355 2.145 . S
N390 C391 1.397 . S
N390 C392 1.334 . S
C391 H372 0.929 . S
C391 C388 1.388 . S
C391 N390 1.397 . S
C392 H373 0.929 . S
C392 C389 1.404 . S
C392 N390 1.334 . S
C393 H385 0.930 . S
C393 C388 1.418 . S
C393 C389 1.353 . S
C394 H364 0.930 . S
C394 N395 1.330 . S
C394 C396 1.446 . S
N395 Co354 2.151 . S
N395 C394 1.330 . S
N395 C399 1.418 . S
C396 H375 0.929 . S
C396 C394 1.446 . S
C396 C397 1.332 . S
C397 H377 0.931 . S
C397 C396 1.332 . S
C397 C398 1.267 . S
C398 H366 0.929 . S
C398 C397 1.267 . S
C398 C399 1.251 . S
C399 H369 0.929 . S
C399 N395 1.418 . S
C399 C398 1.251 . S
C400 H367 0.930 . S
C400 C402 1.406 . S
C400 C405 1.261 . S
C401 H368 0.930 . S
C401 N403 1.325 . S
C401 C404 1.357 . S
C402 H370 0.928 . S
C402 C400 1.406 . S
C402 N403 1.261 . S
N403 Co354 2.214 . S
N403 C401 1.325 . S
N403 C402 1.261 . S
C404 H374 0.931 . S
C404 C401 1.357 . S
C404 C405 1.312 . S
C405 H376 0.930 . S
C405 C400 1.261 . S
C405 C404 1.312 . S
C406 O378 1.214 . S
C406 O386 1.234 . S
C407 H379 0.929 . S
C407 C410 1.391 . S
C407 C412 1.391 . S
C408 H380 0.929 . S
C408 C409 1.390 . S
C408 N411 1.391 . S
C409 H381 0.930 . S
C409 C408 1.390 . S
C409 C410 1.392 . S
C410 H382 0.929 . S
C410 C407 1.391 . S
C410 C409 1.392 . S
N411 Co355 2.257 . S
N411 C408 1.391 . S
N411 C412 1.388 . S
C412 H383 0.930 . S
C412 C407 1.391 . S
C412 N411 1.388 . S
Co413 O415 2.146 1_565 S
Co413 O421 2.074 . S
Co413 O424 2.093 . S
Co413 O437 2.097 . S
Co413 N454 2.151 . S
Co413 N462 2.214 . S
Co414 O415 2.156 . S
Co414 O420 2.058 . S
Co414 O430 2.057 . S
Co414 O445 2.037 . S
Co414 N449 2.145 . S
Co414 N470 2.257 . S
O415 Co413 2.146 1_545 S
O415 Co414 2.156 . S
C416 O417 1.278 . S
C416 O424 1.224 . S
O417 C416 1.278 . S
C418 O419 1.245 . S
C418 O430 1.232 . S
O419 C418 1.245 . S
O420 Co414 2.058 . S
O420 C446 1.269 . S
O421 Co413 2.074 . S
O421 C446 1.257 1_565 S
H422 C447 0.930 . S
H423 C453 0.930 . S
O424 Co413 2.093 . S
O424 C416 1.224 . S
H425 C457 0.929 . S
H426 C459 0.930 . S
H427 C460 0.930 . S
H428 C458 0.929 . S
H429 C461 0.928 . S
O430 Co414 2.057 . S
O430 C418 1.232 . S
H431 C450 0.929 . S
H432 C451 0.929 . S
H433 C463 0.931 . S
H434 C455 0.929 . S
H435 C464 0.930 . S
H436 C456 0.931 . S
O437 Co413 2.097 . S
O437 C465 1.214 . S
H438 C466 0.929 . S
H439 C467 0.929 . S
H440 C468 0.930 . S
H441 C469 0.929 . S
H442 C471 0.930 . S
H443 C448 0.930 . S
H444 C452 0.930 . S
O445 Co414 2.037 . S
O445 C465 1.234 1_545 S
C446 O420 1.269 . S
C446 O421 1.257 1_545 S
C447 H422 0.930 . S
C447 C450 1.388 . S
C447 C452 1.418 . S
C448 H443 0.930 . S
C448 C451 1.404 . S
C448 C452 1.353 . S
N449 Co414 2.145 . S
N449 C450 1.397 . S
N449 C451 1.334 . S
C450 H431 0.929 . S
C450 C447 1.388 . S
C450 N449 1.397 . S
C451 H432 0.929 . S
C451 C448 1.404 . S
C451 N449 1.334 . S
C452 H444 0.930 . S
C452 C447 1.418 . S
C452 C448 1.353 . S
C453 H423 0.930 . S
C453 N454 1.330 . S
C453 C455 1.446 . S
N454 Co413 2.151 . S
N454 C453 1.330 . S
N454 C458 1.418 . S
C455 H434 0.929 . S
C455 C453 1.446 . S
C455 C456 1.332 . S
C456 H436 0.931 . S
C456 C455 1.332 . S
C456 C457 1.267 . S
C457 H425 0.929 . S
C457 C456 1.267 . S
C457 C458 1.251 . S
C458 H428 0.929 . S
C458 N454 1.418 . S
C458 C457 1.251 . S
C459 H426 0.930 . S
C459 C461 1.406 . S
C459 C464 1.261 . S
C460 H427 0.930 . S
C460 N462 1.325 . S
C460 C463 1.357 . S
C461 H429 0.928 . S
C461 C459 1.406 . S
C461 N462 1.261 . S
N462 Co413 2.214 . S
N462 C460 1.325 . S
N462 C461 1.261 . S
C463 H433 0.931 . S
C463 C460 1.357 . S
C463 C464 1.312 . S
C464 H435 0.930 . S
C464 C459 1.261 . S
C464 C463 1.312 . S
C465 O437 1.214 . S
C465 O445 1.234 1_565 S
C466 H438 0.929 . S
C466 C469 1.391 . S
C466 C471 1.391 . S
C467 H439 0.929 . S
C467 C468 1.390 . S
C467 N470 1.391 . S
C468 H440 0.930 . S
C468 C467 1.390 . S
C468 C469 1.392 . S
C469 H441 0.929 . S
C469 C466 1.391 . S
C469 C468 1.392 . S
N470 Co414 2.257 . S
N470 C467 1.391 . S
N470 C471 1.388 . S
C471 H442 0.930 . S
C471 C466 1.391 . S
C471 N470 1.388 . S
Co472 O474 2.143 . S
Co472 O480 2.074 . S
Co472 O483 2.093 . S
Co472 O496 2.097 . S
Co472 N513 2.151 . S
Co472 N521 2.214 . S
Co473 O474 2.160 . S
Co473 O479 2.058 . S
Co473 O489 2.057 . S
Co473 O504 2.037 . S
Co473 N508 2.145 . S
Co473 N529 2.257 . S
O474 Co472 2.143 . S
O474 Co473 2.160 . S
C475 O476 1.278 . S
C475 O483 1.224 . S
O476 C475 1.278 . S
C477 O478 1.245 . S
C477 O489 1.232 . S
O478 C477 1.245 . S
O479 Co473 2.058 . S
O479 C505 1.269 . S
O480 Co472 2.074 . S
O480 C505 1.257 . S
H481 C506 0.930 . S
H482 C512 0.930 . S
O483 Co472 2.093 . S
O483 C475 1.224 . S
H484 C516 0.929 . S
H485 C518 0.930 . S
H486 C519 0.930 . S
H487 C517 0.929 . S
H488 C520 0.928 . S
O489 Co473 2.057 . S
O489 C477 1.232 . S
H490 C509 0.929 . S
H491 C510 0.929 . S
H492 C522 0.931 . S
H493 C514 0.929 . S
H494 C523 0.930 . S
H495 C515 0.931 . S
O496 Co472 2.097 . S
O496 C524 1.214 . S
H497 C525 0.929 . S
H498 C526 0.929 . S
H499 C527 0.930 . S
H500 C528 0.929 . S
H501 C530 0.930 . S
H502 C507 0.930 . S
H503 C511 0.930 . S
O504 Co473 2.037 . S
O504 C524 1.234 . S
C505 O479 1.269 . S
C505 O480 1.257 . S
C506 H481 0.930 . S
C506 C509 1.388 . S
C506 C511 1.418 . S
C507 H502 0.930 . S
C507 C510 1.404 . S
C507 C511 1.353 . S
N508 Co473 2.145 . S
N508 C509 1.397 . S
N508 C510 1.334 . S
C509 H490 0.929 . S
C509 C506 1.388 . S
C509 N508 1.397 . S
C510 H491 0.929 . S
C510 C507 1.404 . S
C510 N508 1.334 . S
C511 H503 0.930 . S
C511 C506 1.418 . S
C511 C507 1.353 . S
C512 H482 0.930 . S
C512 N513 1.330 . S
C512 C514 1.446 . S
N513 Co472 2.151 . S
N513 C512 1.330 . S
N513 C517 1.418 . S
C514 H493 0.929 . S
C514 C512 1.446 . S
C514 C515 1.332 . S
C515 H495 0.931 . S
C515 C514 1.332 . S
C515 C516 1.267 . S
C516 H484 0.929 . S
C516 C515 1.267 . S
C516 C517 1.251 . S
C517 H487 0.929 . S
C517 N513 1.418 . S
C517 C516 1.251 . S
C518 H485 0.930 . S
C518 C520 1.406 . S
C518 C523 1.261 . S
C519 H486 0.930 . S
C519 N521 1.325 . S
C519 C522 1.357 . S
C520 H488 0.928 . S
C520 C518 1.406 . S
C520 N521 1.261 . S
N521 Co472 2.214 . S
N521 C519 1.325 . S
N521 C520 1.261 . S
C522 H492 0.931 . S
C522 C519 1.357 . S
C522 C523 1.312 . S
C523 H494 0.930 . S
C523 C518 1.261 . S
C523 C522 1.312 . S
C524 O496 1.214 . S
C524 O504 1.234 . S
C525 H497 0.929 . S
C525 C528 1.391 . S
C525 C530 1.391 . S
C526 H498 0.929 . S
C526 C527 1.390 . S
C526 N529 1.391 . S
C527 H499 0.930 . S
C527 C526 1.390 . S
C527 C528 1.392 . S
C528 H500 0.929 . S
C528 C525 1.391 . S
C528 C527 1.392 . S
N529 Co473 2.257 . S
N529 C526 1.391 . S
N529 C530 1.388 . S
C530 H501 0.930 . S
C530 C525 1.391 . S
C530 N529 1.388 . S
Co531 O533 2.143 . S
Co531 O539 2.074 . S
Co531 O542 2.093 . S
Co531 O555 2.097 . S
Co531 N572 2.151 . S
Co531 N580 2.214 . S
Co532 O533 2.160 . S
Co532 O538 2.058 . S
Co532 O548 2.057 . S
Co532 O563 2.037 . S
Co532 N567 2.145 . S
Co532 N588 2.257 . S
O533 Co531 2.143 . S
O533 Co532 2.160 . S
C534 O535 1.278 . S
C534 O542 1.224 . S
O535 C534 1.278 . S
C536 O537 1.245 . S
C536 O548 1.232 . S
O537 C536 1.245 . S
O538 Co532 2.058 . S
O538 C564 1.269 . S
O539 Co531 2.074 . S
O539 C564 1.257 . S
H540 C565 0.930 . S
H541 C571 0.930 . S
O542 Co531 2.093 . S
O542 C534 1.224 . S
H543 C575 0.929 . S
H544 C577 0.930 . S
H545 C578 0.930 . S
H546 C576 0.929 . S
H547 C579 0.928 . S
O548 Co532 2.057 . S
O548 C536 1.232 . S
H549 C568 0.929 . S
H550 C569 0.929 . S
H551 C581 0.931 . S
H552 C573 0.929 . S
H553 C582 0.930 . S
H554 C574 0.931 . S
O555 Co531 2.097 . S
O555 C583 1.214 . S
H556 C584 0.929 . S
H557 C585 0.929 . S
H558 C586 0.930 . S
H559 C587 0.929 . S
H560 C589 0.930 . S
H561 C566 0.930 . S
H562 C570 0.930 . S
O563 Co532 2.037 . S
O563 C583 1.234 . S
C564 O538 1.269 . S
C564 O539 1.257 . S
C565 H540 0.930 . S
C565 C568 1.388 . S
C565 C570 1.418 . S
C566 H561 0.930 . S
C566 C569 1.404 . S
C566 C570 1.353 . S
N567 Co532 2.145 . S
N567 C568 1.397 . S
N567 C569 1.334 . S
C568 H549 0.929 . S
C568 C565 1.388 . S
C568 N567 1.397 . S
C569 H550 0.929 . S
C569 C566 1.404 . S
C569 N567 1.334 . S
C570 H562 0.930 . S
C570 C565 1.418 . S
C570 C566 1.353 . S
C571 H541 0.930 . S
C571 N572 1.330 . S
C571 C573 1.446 . S
N572 Co531 2.151 . S
N572 C571 1.330 . S
N572 C576 1.418 . S
C573 H552 0.929 . S
C573 C571 1.446 . S
C573 C574 1.332 . S
C574 H554 0.931 . S
C574 C573 1.332 . S
C574 C575 1.267 . S
C575 H543 0.929 . S
C575 C574 1.267 . S
C575 C576 1.251 . S
C576 H546 0.929 . S
C576 N572 1.418 . S
C576 C575 1.251 . S
C577 H544 0.930 . S
C577 C579 1.406 . S
C577 C582 1.261 . S
C578 H545 0.930 . S
C578 N580 1.325 . S
C578 C581 1.357 . S
C579 H547 0.928 . S
C579 C577 1.406 . S
C579 N580 1.261 . S
N580 Co531 2.214 . S
N580 C578 1.325 . S
N580 C579 1.261 . S
C581 H551 0.931 . S
C581 C578 1.357 . S
C581 C582 1.312 . S
C582 H553 0.930 . S
C582 C577 1.261 . S
C582 C581 1.312 . S
C583 O555 1.214 . S
C583 O563 1.234 . S
C584 H556 0.929 . S
C584 C587 1.391 . S
C584 C589 1.391 . S
C585 H557 0.929 . S
C585 C586 1.390 . S
C585 N588 1.391 . S
C586 H558 0.930 . S
C586 C585 1.390 . S
C586 C587 1.392 . S
C587 H559 0.929 . S
C587 C584 1.391 . S
C587 C586 1.392 . S
N588 Co532 2.257 . S
N588 C585 1.391 . S
N588 C589 1.388 . S
C589 H560 0.930 . S
C589 C584 1.391 . S
C589 N588 1.388 . S
Co590 O592 2.143 . S
Co590 O598 2.074 . S
Co590 O601 2.093 1_554 S
Co590 O614 2.097 1_554 S
Co590 N631 2.151 . S
Co590 N639 2.214 . S
Co591 O592 2.160 1_556 S
Co591 O597 2.058 1_556 S
Co591 O607 2.057 1_556 S
Co591 O622 2.037 . S
Co591 N626 2.145 . S
Co591 N647 2.257 . S
O592 Co590 2.143 . S
O592 Co591 2.160 1_554 S
C593 O594 1.278 . S
C593 O601 1.224 . S
O594 C593 1.278 . S
C595 O596 1.245 . S
C595 O607 1.232 . S
O596 C595 1.245 . S
O597 Co591 2.058 1_554 S
O597 C623 1.269 . S
O598 Co590 2.074 . S
O598 C623 1.257 . S
H599 C624 0.930 . S
H600 C630 0.930 . S
O601 Co590 2.093 1_556 S
O601 C593 1.224 . S
H602 C634 0.929 . S
H603 C636 0.930 . S
H604 C637 0.930 . S
H605 C635 0.929 . S
H606 C638 0.928 . S
O607 Co591 2.057 1_554 S
O607 C595 1.232 . S
H608 C627 0.929 . S
H609 C628 0.929 1_554 S
H610 C640 0.931 . S
H611 C632 0.929 . S
H612 C641 0.930 . S
H613 C633 0.931 . S
O614 Co590 2.097 1_556 S
O614 C642 1.214 . S
H615 C643 0.929 . S
H616 C644 0.929 . S
H617 C645 0.930 . S
H618 C646 0.929 . S
H619 C648 0.930 . S
H620 C625 0.930 1_554 S
H621 C629 0.930 . S
O622 Co591 2.037 . S
O622 C642 1.234 . S
C623 O597 1.269 . S
C623 O598 1.257 . S
C624 H599 0.930 . S
C624 C627 1.388 . S
C624 C629 1.418 . S
C625 H620 0.930 1_556 S
C625 C628 1.404 . S
C625 C629 1.353 . S
N626 Co591 2.145 . S
N626 C627 1.397 . S
N626 C628 1.334 . S
C627 H608 0.929 . S
C627 C624 1.388 . S
C627 N626 1.397 . S
C628 H609 0.929 1_556 S
C628 C625 1.404 . S
C628 N626 1.334 . S
C629 H621 0.930 . S
C629 C624 1.418 . S
C629 C625 1.353 . S
C630 H600 0.930 . S
C630 N631 1.330 . S
C630 C632 1.446 . S
N631 Co590 2.151 . S
N631 C630 1.330 . S
N631 C635 1.418 . S
C632 H611 0.929 . S
C632 C630 1.446 . S
C632 C633 1.332 . S
C633 H613 0.931 . S
C633 C632 1.332 . S
C633 C634 1.267 . S
C634 H602 0.929 . S
C634 C633 1.267 . S
C634 C635 1.251 . S
C635 H605 0.929 . S
C635 N631 1.418 . S
C635 C634 1.251 . S
C636 H603 0.930 . S
C636 C638 1.406 . S
C636 C641 1.261 . S
C637 H604 0.930 . S
C637 N639 1.325 1_556 S
C637 C640 1.357 . S
C638 H606 0.928 . S
C638 C636 1.406 . S
C638 N639 1.261 . S
N639 Co590 2.214 . S
N639 C637 1.325 1_554 S
N639 C638 1.261 . S
C640 H610 0.931 . S
C640 C637 1.357 . S
C640 C641 1.312 1_556 S
C641 H612 0.930 . S
C641 C636 1.261 . S
C641 C640 1.312 1_554 S
C642 O614 1.214 . S
C642 O622 1.234 . S
C643 H615 0.929 . S
C643 C646 1.391 . S
C643 C648 1.391 . S
C644 H616 0.929 . S
C644 C645 1.390 . S
C644 N647 1.391 . S
C645 H617 0.930 . S
C645 C644 1.390 . S
C645 C646 1.392 . S
C646 H618 0.929 . S
C646 C643 1.391 . S
C646 C645 1.392 . S
N647 Co591 2.257 . S
N647 C644 1.391 . S
N647 C648 1.388 . S
C648 H619 0.930 . S
C648 C643 1.391 . S
C648 N647 1.388 . S
Co649 O651 2.143 . S
Co649 O657 2.074 . S
Co649 O660 2.093 . S
Co649 O673 2.097 . S
Co649 N690 2.151 . S
Co649 N698 2.214 . S
Co650 O651 2.160 . S
Co650 O656 2.058 . S
Co650 O666 2.057 . S
Co650 O681 2.037 . S
Co650 N685 2.145 . S
Co650 N706 2.257 . S
O651 Co649 2.143 . S
O651 Co650 2.160 . S
C652 O653 1.278 . S
C652 O660 1.224 . S
O653 C652 1.278 . S
C654 O655 1.245 . S
C654 O666 1.232 . S
O655 C654 1.245 . S
O656 Co650 2.058 . S
O656 C682 1.269 . S
O657 Co649 2.074 . S
O657 C682 1.257 . S
H658 C683 0.930 . S
H659 C689 0.930 . S
O660 Co649 2.093 . S
O660 C652 1.224 . S
H661 C693 0.929 . S
H662 C695 0.930 . S
H663 C696 0.930 . S
H664 C694 0.929 . S
H665 C697 0.928 . S
O666 Co650 2.057 . S
O666 C654 1.232 . S
H667 C686 0.929 . S
H668 C687 0.929 . S
H669 C699 0.931 . S
H670 C691 0.929 . S
H671 C700 0.930 . S
H672 C692 0.931 . S
O673 Co649 2.097 . S
O673 C701 1.214 . S
H674 C702 0.929 . S
H675 C703 0.929 . S
H676 C704 0.930 . S
H677 C705 0.929 . S
H678 C707 0.930 . S
H679 C684 0.930 . S
H680 C688 0.930 . S
O681 Co650 2.037 . S
O681 C701 1.234 . S
C682 O656 1.269 . S
C682 O657 1.257 . S
C683 H658 0.930 . S
C683 C686 1.388 . S
C683 C688 1.418 . S
C684 H679 0.930 . S
C684 C687 1.404 . S
C684 C688 1.353 . S
N685 Co650 2.145 . S
N685 C686 1.397 . S
N685 C687 1.334 . S
C686 H667 0.929 . S
C686 C683 1.388 . S
C686 N685 1.397 . S
C687 H668 0.929 . S
C687 C684 1.404 . S
C687 N685 1.334 . S
C688 H680 0.930 . S
C688 C683 1.418 . S
C688 C684 1.353 . S
C689 H659 0.930 . S
C689 N690 1.330 . S
C689 C691 1.446 . S
N690 Co649 2.151 . S
N690 C689 1.330 . S
N690 C694 1.418 . S
C691 H670 0.929 . S
C691 C689 1.446 . S
C691 C692 1.332 . S
C692 H672 0.931 . S
C692 C691 1.332 . S
C692 C693 1.267 . S
C693 H661 0.929 . S
C693 C692 1.267 . S
C693 C694 1.251 . S
C694 H664 0.929 . S
C694 N690 1.418 . S
C694 C693 1.251 . S
C695 H662 0.930 . S
C695 C697 1.406 . S
C695 C700 1.261 . S
C696 H663 0.930 . S
C696 N698 1.325 . S
C696 C699 1.357 . S
C697 H665 0.928 . S
C697 C695 1.406 . S
C697 N698 1.261 . S
N698 Co649 2.214 . S
N698 C696 1.325 . S
N698 C697 1.261 . S
C699 H669 0.931 . S
C699 C696 1.357 . S
C699 C700 1.312 . S
C700 H671 0.930 . S
C700 C695 1.261 . S
C700 C699 1.312 . S
C701 O673 1.214 . S
C701 O681 1.234 . S
C702 H674 0.929 . S
C702 C705 1.391 . S
C702 C707 1.391 . S
C703 H675 0.929 . S
C703 C704 1.390 . S
C703 N706 1.391 . S
C704 H676 0.930 . S
C704 C703 1.390 . S
C704 C705 1.392 . S
C705 H677 0.929 . S
C705 C702 1.391 . S
C705 C704 1.392 . S
N706 Co650 2.257 . S
N706 C703 1.391 . S
N706 C707 1.388 . S
C707 H678 0.930 . S
C707 C702 1.391 . S
C707 N706 1.388 . S
Co708 O710 2.143 . S
Co708 O716 2.074 . S
Co708 O719 2.093 . S
Co708 O732 2.097 . S
Co708 N749 2.151 . S
Co708 N757 2.214 . S
Co709 O710 2.160 . S
Co709 O715 2.058 . S
Co709 O725 2.057 . S
Co709 O740 2.037 . S
Co709 N744 2.145 . S
Co709 N765 2.257 . S
O710 Co708 2.143 . S
O710 Co709 2.160 . S
C711 O712 1.278 . S
C711 O719 1.224 . S
O712 C711 1.278 . S
C713 O714 1.245 . S
C713 O725 1.232 . S
O714 C713 1.245 . S
O715 Co709 2.058 . S
O715 C741 1.269 . S
O716 Co708 2.074 . S
O716 C741 1.257 . S
H717 C742 0.930 . S
H718 C748 0.930 . S
O719 Co708 2.093 . S
O719 C711 1.224 . S
H720 C752 0.929 . S
H721 C754 0.930 . S
H722 C755 0.930 . S
H723 C753 0.929 . S
H724 C756 0.928 . S
O725 Co709 2.057 . S
O725 C713 1.232 . S
H726 C745 0.929 . S
H727 C746 0.929 . S
H728 C758 0.931 . S
H729 C750 0.929 . S
H730 C759 0.930 . S
H731 C751 0.931 . S
O732 Co708 2.097 . S
O732 C760 1.214 . S
H733 C761 0.929 . S
H734 C762 0.929 . S
H735 C763 0.930 . S
H736 C764 0.929 . S
H737 C766 0.930 . S
H738 C743 0.930 . S
H739 C747 0.930 . S
O740 Co709 2.037 . S
O740 C760 1.234 . S
C741 O715 1.269 . S
C741 O716 1.257 . S
C742 H717 0.930 . S
C742 C745 1.388 . S
C742 C747 1.418 . S
C743 H738 0.930 . S
C743 C746 1.404 . S
C743 C747 1.353 . S
N744 Co709 2.145 . S
N744 C745 1.397 . S
N744 C746 1.334 . S
C745 H726 0.929 . S
C745 C742 1.388 . S
C745 N744 1.397 . S
C746 H727 0.929 . S
C746 C743 1.404 . S
C746 N744 1.334 . S
C747 H739 0.930 . S
C747 C742 1.418 . S
C747 C743 1.353 . S
C748 H718 0.930 . S
C748 N749 1.330 . S
C748 C750 1.446 . S
N749 Co708 2.151 . S
N749 C748 1.330 . S
N749 C753 1.418 . S
C750 H729 0.929 . S
C750 C748 1.446 . S
C750 C751 1.332 . S
C751 H731 0.931 . S
C751 C750 1.332 . S
C751 C752 1.267 . S
C752 H720 0.929 . S
C752 C751 1.267 . S
C752 C753 1.251 . S
C753 H723 0.929 . S
C753 N749 1.418 . S
C753 C752 1.251 . S
C754 H721 0.930 . S
C754 C756 1.406 . S
C754 C759 1.261 . S
C755 H722 0.930 . S
C755 N757 1.325 . S
C755 C758 1.357 . S
C756 H724 0.928 . S
C756 C754 1.406 . S
C756 N757 1.261 . S
N757 Co708 2.214 . S
N757 C755 1.325 . S
N757 C756 1.261 . S
C758 H728 0.931 . S
C758 C755 1.357 . S
C758 C759 1.312 . S
C759 H730 0.930 . S
C759 C754 1.261 . S
C759 C758 1.312 . S
C760 O732 1.214 . S
C760 O740 1.234 . S
C761 H733 0.929 . S
C761 C764 1.391 . S
C761 C766 1.391 . S
C762 H734 0.929 . S
C762 C763 1.390 . S
C762 N765 1.391 . S
C763 H735 0.930 . S
C763 C762 1.390 . S
C763 C764 1.392 . S
C764 H736 0.929 . S
C764 C761 1.391 . S
C764 C763 1.392 . S
N765 Co709 2.257 . S
N765 C762 1.391 . S
N765 C766 1.388 . S
C766 H737 0.930 . S
C766 C761 1.391 . S
C766 N765 1.388 . S
Co767 O769 2.143 . S
Co767 O775 2.074 . S
Co767 O778 2.093 . S
Co767 O791 2.097 . S
Co767 N808 2.151 . S
Co767 N816 2.214 . S
Co768 O769 2.160 . S
Co768 O774 2.058 . S
Co768 O784 2.057 . S
Co768 O799 2.037 . S
Co768 N803 2.145 . S
Co768 N824 2.257 . S
O769 Co767 2.143 . S
O769 Co768 2.160 . S
C770 O771 1.278 . S
C770 O778 1.224 . S
O771 C770 1.278 . S
C772 O773 1.245 . S
C772 O784 1.232 . S
O773 C772 1.245 . S
O774 Co768 2.058 . S
O774 C800 1.269 . S
O775 Co767 2.074 . S
O775 C800 1.257 . S
H776 C801 0.930 . S
H777 C807 0.930 . S
O778 Co767 2.093 . S
O778 C770 1.224 . S
H779 C811 0.929 . S
H780 C813 0.930 . S
H781 C814 0.930 . S
H782 C812 0.929 . S
H783 C815 0.928 . S
O784 Co768 2.057 . S
O784 C772 1.232 . S
H785 C804 0.929 . S
H786 C805 0.929 . S
H787 C817 0.931 . S
H788 C809 0.929 . S
H789 C818 0.930 . S
H790 C810 0.931 . S
O791 Co767 2.097 . S
O791 C819 1.214 . S
H792 C820 0.929 . S
H793 C821 0.929 . S
H794 C822 0.930 . S
H795 C823 0.929 . S
H796 C825 0.930 . S
H797 C802 0.930 . S
H798 C806 0.930 . S
O799 Co768 2.037 . S
O799 C819 1.234 . S
C800 O774 1.269 . S
C800 O775 1.257 . S
C801 H776 0.930 . S
C801 C804 1.388 . S
C801 C806 1.418 . S
C802 H797 0.930 . S
C802 C805 1.404 . S
C802 C806 1.353 . S
N803 Co768 2.145 . S
N803 C804 1.397 . S
N803 C805 1.334 . S
C804 H785 0.929 . S
C804 C801 1.388 . S
C804 N803 1.397 . S
C805 H786 0.929 . S
C805 C802 1.404 . S
C805 N803 1.334 . S
C806 H798 0.930 . S
C806 C801 1.418 . S
C806 C802 1.353 . S
C807 H777 0.930 . S
C807 N808 1.330 . S
C807 C809 1.446 . S
N808 Co767 2.151 . S
N808 C807 1.330 . S
N808 C812 1.418 . S
C809 H788 0.929 . S
C809 C807 1.446 . S
C809 C810 1.332 . S
C810 H790 0.931 . S
C810 C809 1.332 . S
C810 C811 1.267 . S
C811 H779 0.929 . S
C811 C810 1.267 . S
C811 C812 1.251 . S
C812 H782 0.929 . S
C812 N808 1.418 . S
C812 C811 1.251 . S
C813 H780 0.930 . S
C813 C815 1.406 . S
C813 C818 1.261 . S
C814 H781 0.930 . S
C814 N816 1.325 . S
C814 C817 1.357 . S
C815 H783 0.928 . S
C815 C813 1.406 . S
C815 N816 1.261 . S
N816 Co767 2.214 . S
N816 C814 1.325 . S
N816 C815 1.261 . S
C817 H787 0.931 . S
C817 C814 1.357 . S
C817 C818 1.312 . S
C818 H789 0.930 . S
C818 C813 1.261 . S
C818 C817 1.312 . S
C819 O791 1.214 . S
C819 O799 1.234 . S
C820 H792 0.929 . S
C820 C823 1.391 . S
C820 C825 1.391 . S
C821 H793 0.929 . S
C821 C822 1.390 . S
C821 N824 1.391 . S
C822 H794 0.930 . S
C822 C821 1.390 . S
C822 C823 1.392 . S
C823 H795 0.929 . S
C823 C820 1.391 . S
C823 C822 1.392 . S
N824 Co768 2.257 . S
N824 C821 1.391 . S
N824 C825 1.388 . S
C825 H796 0.930 . S
C825 C820 1.391 . S
C825 N824 1.388 . S
Co826 O828 2.143 . S
Co826 O834 2.074 . S
Co826 O837 2.093 1_556 S
Co826 O850 2.097 1_556 S
Co826 N867 2.151 . S
Co826 N875 2.214 . S
Co827 O828 2.160 1_554 S
Co827 O833 2.058 1_554 S
Co827 O843 2.057 1_554 S
Co827 O858 2.037 . S
Co827 N862 2.145 . S
Co827 N883 2.257 . S
O828 Co826 2.143 . S
O828 Co827 2.160 1_556 S
C829 O830 1.278 . S
C829 O837 1.224 . S
O830 C829 1.278 . S
C831 O832 1.245 . S
C831 O843 1.232 . S
O832 C831 1.245 . S
O833 Co827 2.058 1_556 S
O833 C859 1.269 . S
O834 Co826 2.074 . S
O834 C859 1.257 . S
H835 C860 0.930 . S
H836 C866 0.930 . S
O837 Co826 2.093 1_554 S
O837 C829 1.224 . S
H838 C870 0.929 . S
H839 C872 0.930 . S
H840 C873 0.930 . S
H841 C871 0.929 . S
H842 C874 0.928 . S
O843 Co827 2.057 1_556 S
O843 C831 1.232 . S
H844 C863 0.929 . S
H845 C864 0.929 1_556 S
H846 C876 0.931 . S
H847 C868 0.929 . S
H848 C877 0.930 . S
H849 C869 0.931 . S
O850 Co826 2.097 1_554 S
O850 C878 1.214 . S
H851 C879 0.929 . S
H852 C880 0.929 . S
H853 C881 0.930 . S
H854 C882 0.929 . S
H855 C884 0.930 . S
H856 C861 0.932 . S
H857 C865 0.930 . S
O858 Co827 2.037 . S
O858 C878 1.234 . S
C859 O833 1.269 . S
C859 O834 1.257 . S
C860 H835 0.930 . S
C860 C863 1.388 . S
C860 C865 1.418 . S
C861 H856 0.932 . S
C861 C864 1.404 . S
C861 C865 1.353 . S
N862 Co827 2.145 . S
N862 C863 1.397 . S
N862 C864 1.334 . S
C863 H844 0.929 . S
C863 C860 1.388 . S
C863 N862 1.397 . S
C864 H845 0.929 1_554 S
C864 C861 1.404 . S
C864 N862 1.334 . S
C865 H857 0.930 . S
C865 C860 1.418 . S
C865 C861 1.353 . S
C866 H836 0.930 . S
C866 N867 1.330 . S
C866 C868 1.446 . S
N867 Co826 2.151 . S
N867 C866 1.330 . S
N867 C871 1.418 . S
C868 H847 0.929 . S
C868 C866 1.446 . S
C868 C869 1.332 . S
C869 H849 0.931 . S
C869 C868 1.332 . S
C869 C870 1.267 . S
C870 H838 0.929 . S
C870 C869 1.267 . S
C870 C871 1.251 . S
C871 H841 0.929 . S
C871 N867 1.418 . S
C871 C870 1.251 . S
C872 H839 0.930 . S
C872 C874 1.406 . S
C872 C877 1.263 . S
C873 H840 0.930 . S
C873 N875 1.325 1_554 S
C873 C876 1.357 . S
C874 H842 0.928 . S
C874 C872 1.406 . S
C874 N875 1.261 . S
N875 Co826 2.214 . S
N875 C873 1.325 1_556 S
N875 C874 1.261 . S
C876 H846 0.931 . S
C876 C873 1.357 . S
C876 C877 1.310 1_554 S
C877 H848 0.930 . S
C877 C872 1.263 . S
C877 C876 1.310 1_556 S
C878 O850 1.214 . S
C878 O858 1.234 . S
C879 H851 0.929 . S
C879 C882 1.391 . S
C879 C884 1.391 . S
C880 H852 0.929 . S
C880 C881 1.390 . S
C880 N883 1.391 . S
C881 H853 0.930 . S
C881 C880 1.390 . S
C881 C882 1.392 . S
C882 H854 0.929 . S
C882 C879 1.391 . S
C882 C881 1.392 . S
N883 Co827 2.257 . S
N883 C880 1.391 . S
N883 C884 1.388 . S
C884 H855 0.930 . S
C884 C879 1.391 . S
C884 N883 1.388 . S
Co885 O887 2.143 . S
Co885 O893 2.074 . S
Co885 O896 2.093 . S
Co885 O909 2.097 . S
Co885 N926 2.151 . S
Co885 N934 2.214 . S
Co886 O887 2.160 . S
Co886 O892 2.058 . S
Co886 O902 2.057 . S
Co886 O917 2.037 . S
Co886 N921 2.145 . S
Co886 N942 2.257 . S
O887 Co885 2.143 . S
O887 Co886 2.160 . S
C888 O889 1.278 . S
C888 O896 1.224 . S
O889 C888 1.278 . S
C890 O891 1.245 . S
C890 O902 1.232 . S
O891 C890 1.245 . S
O892 Co886 2.058 . S
O892 C918 1.269 . S
O893 Co885 2.074 . S
O893 C918 1.257 . S
H894 C919 0.930 . S
H895 C925 0.930 . S
O896 Co885 2.093 . S
O896 C888 1.224 . S
H897 C929 0.929 . S
H898 C931 0.930 . S
H899 C932 0.930 . S
H900 C930 0.929 . S
H901 C933 0.928 . S
O902 Co886 2.057 . S
O902 C890 1.232 . S
H903 C922 0.929 . S
H904 C923 0.929 . S
H905 C935 0.931 . S
H906 C927 0.929 . S
H907 C936 0.930 . S
H908 C928 0.931 . S
O909 Co885 2.097 . S
O909 C937 1.214 . S
H910 C938 0.929 . S
H911 C939 0.929 . S
H912 C940 0.930 . S
H913 C941 0.929 . S
H914 C943 0.930 . S
H915 C920 0.930 . S
H916 C924 0.930 . S
O917 Co886 2.037 . S
O917 C937 1.234 . S
C918 O892 1.269 . S
C918 O893 1.257 . S
C919 H894 0.930 . S
C919 C922 1.388 . S
C919 C924 1.418 . S
C920 H915 0.930 . S
C920 C923 1.404 . S
C920 C924 1.353 . S
N921 Co886 2.145 . S
N921 C922 1.397 . S
N921 C923 1.334 . S
C922 H903 0.929 . S
C922 C919 1.388 . S
C922 N921 1.397 . S
C923 H904 0.929 . S
C923 C920 1.404 . S
C923 N921 1.334 . S
C924 H916 0.930 . S
C924 C919 1.418 . S
C924 C920 1.353 . S
C925 H895 0.930 . S
C925 N926 1.330 . S
C925 C927 1.446 . S
N926 Co885 2.151 . S
N926 C925 1.330 . S
N926 C930 1.418 . S
C927 H906 0.929 . S
C927 C925 1.446 . S
C927 C928 1.332 . S
C928 H908 0.931 . S
C928 C927 1.332 . S
C928 C929 1.267 . S
C929 H897 0.929 . S
C929 C928 1.267 . S
C929 C930 1.251 . S
C930 H900 0.929 . S
C930 N926 1.418 . S
C930 C929 1.251 . S
C931 H898 0.930 . S
C931 C933 1.406 . S
C931 C936 1.261 . S
C932 H899 0.930 . S
C932 N934 1.325 . S
C932 C935 1.357 . S
C933 H901 0.928 . S
C933 C931 1.406 . S
C933 N934 1.261 . S
N934 Co885 2.214 . S
N934 C932 1.325 . S
N934 C933 1.261 . S
C935 H905 0.931 . S
C935 C932 1.357 . S
C935 C936 1.312 . S
C936 H907 0.930 . S
C936 C931 1.261 . S
C936 C935 1.312 . S
C937 O909 1.214 . S
C937 O917 1.234 . S
C938 H910 0.929 . S
C938 C941 1.391 . S
C938 C943 1.391 . S
C939 H911 0.929 . S
C939 C940 1.390 . S
C939 N942 1.391 . S
C940 H912 0.930 . S
C940 C939 1.390 . S
C940 C941 1.392 . S
C941 H913 0.929 . S
C941 C938 1.391 . S
C941 C940 1.392 . S
N942 Co886 2.257 . S
N942 C939 1.391 . S
N942 C943 1.388 . S
C943 H914 0.930 . S
C943 C938 1.391 . S
C943 N942 1.388 . S
H944 C952 0.929 . S
H945 C954 0.930 . S
H946 C956 0.930 . S
H947 C959 0.929 . S
H948 C962 0.930 . S
H949 C964 0.960 . S
H950 C964 0.960 . S
H951 C964 0.960 . S
C952 H944 0.929 . S
C952 C953 1.377 . S
C952 C954 1.384 . S
C953 C952 1.377 . S
C953 C959 1.390 . S
C954 H945 0.930 . S
C954 C952 1.384 . S
C954 C955 1.372 . S
C955 C954 1.372 . S
C955 C956 1.400 . S
C955 C960 1.490 . S
C956 H946 0.930 . S
C956 C955 1.400 . S
C956 C959 1.386 . S
H957 C973 0.930 . S
H958 C974 0.931 . S
C959 H947 0.929 . S
C959 C953 1.390 . S
C959 C956 1.386 . S
C960 C955 1.490 . S
C960 C962 1.395 . S
C960 C963 1.403 . S
H961 C967 0.930 . S
C962 H948 0.930 . S
C962 C960 1.395 . S
C962 C965 1.403 . S
C963 C960 1.403 . S
C963 C964 1.524 . S
C963 C967 1.400 . S
C964 H949 0.960 . S
C964 H950 0.960 . S
C964 H951 0.960 . S
C964 C963 1.524 . S
C965 C962 1.403 . S
C965 C966 1.392 . S
C965 C969 1.495 . S
C966 C965 1.392 . S
C966 C967 1.385 . S
C966 C968 1.478 . S
C967 H961 0.930 . S
C967 C963 1.400 . S
C967 C966 1.385 . S
C968 C966 1.478 . S
C968 C970 1.381 . S
C968 C974 1.383 . S
C969 C965 1.495 . S
C969 H975 0.959 . S
C969 H976 0.961 . S
C969 H977 0.960 . S
C970 C968 1.381 . S
C970 C971 1.394 . S
C970 H978 0.930 . S
C971 C970 1.394 . S
C971 C972 1.383 . S
C971 H979 0.929 . S
C972 C971 1.383 . S
C972 C973 1.377 . S
C973 H957 0.930 . S
C973 C972 1.377 . S
C973 C974 1.379 . S
C974 H958 0.931 . S
C974 C968 1.383 . S
C974 C973 1.379 . S
H975 C969 0.959 . S
H976 C969 0.961 . S
H977 C969 0.960 . S
H978 C970 0.930 . S
H979 C971 0.929 . S
H980 C988 0.929 . S
H981 C990 0.930 . S
H982 C992 0.930 . S
H983 C995 0.929 . S
H984 C998 0.930 . S
H985 C1000 0.960 . S
H986 C1000 0.960 . S
H987 C1000 0.960 . S
C988 H980 0.929 . S
C988 C989 1.351 1_545 S
C988 C990 1.384 . S
C989 C988 1.351 1_565 S
C989 C995 1.416 . S
C990 H981 0.930 . S
C990 C988 1.384 . S
C990 C991 1.395 . S
C991 C990 1.395 . S
C991 C992 1.376 1_545 S
C991 C996 1.490 . S
C992 H982 0.930 . S
C992 C991 1.376 1_565 S
C992 C995 1.386 . S
H993 C1009 0.930 . S
H994 C1010 0.931 . S
C995 H983 0.929 . S
C995 C989 1.416 . S
C995 C992 1.386 . S
C996 C991 1.490 . S
C996 C998 1.371 1_545 S
C996 C999 1.430 1_655 S
H997 C1003 0.930 . S
C998 H984 0.930 . S
C998 C996 1.371 1_565 S
C998 C1001 1.403 . S
C999 C996 1.430 1_455 S
C999 C1000 1.524 . S
C999 C1003 1.400 . S
C1000 H985 0.960 . S
C1000 H986 0.960 . S
C1000 H987 0.960 . S
C1000 C999 1.524 . S
C1001 C998 1.403 . S
C1001 C1002 1.378 1_665 S
C1001 C1005 1.495 . S
C1002 C1001 1.378 1_445 S
C1002 C1003 1.401 . S
C1002 C1004 1.478 . S
C1003 H997 0.930 . S
C1003 C999 1.400 . S
C1003 C1002 1.401 . S
C1004 C1002 1.478 . S
C1004 C1006 1.413 . S
C1004 C1010 1.355 1_545 S
C1005 C1001 1.495 . S
C1005 H1011 0.959 . S
C1005 H1012 0.961 . S
C1005 H1013 0.960 . S
C1006 C1004 1.413 . S
C1006 C1007 1.394 . S
C1006 H1014 0.930 . S
C1007 C1006 1.394 . S
C1007 C1008 1.383 . S
C1007 H1015 0.929 . S
C1008 C1007 1.383 . S
C1008 C1009 1.377 1_545 S
C1009 H993 0.930 . S
C1009 C1008 1.377 1_565 S
C1009 C1010 1.379 . S
C1010 H994 0.931 . S
C1010 C1004 1.355 1_565 S
C1010 C1009 1.379 . S
H1011 C1005 0.959 . S
H1012 C1005 0.961 . S
H1013 C1005 0.960 . S
H1014 C1006 0.930 . S
H1015 C1007 0.929 . S
H1016 C1024 0.929 . S
H1017 C1026 0.930 . S
H1018 C1028 0.930 . S
H1019 C1031 0.929 . S
H1020 C1034 0.930 . S
H1021 C1036 0.960 . S
H1022 C1036 0.960 . S
H1023 C1036 0.960 . S
C1024 H1016 0.929 . S
C1024 C1025 1.377 . S
C1024 C1026 1.384 . S
C1025 C1024 1.377 . S
C1025 C1031 1.390 . S
C1026 H1017 0.930 . S
C1026 C1024 1.384 . S
C1026 C1027 1.372 . S
C1027 C1026 1.372 . S
C1027 C1028 1.400 . S
C1027 C1032 1.490 . S
C1028 H1018 0.930 . S
C1028 C1027 1.400 . S
C1028 C1031 1.386 . S
H1029 C1045 0.930 . S
H1030 C1046 0.931 . S
C1031 H1019 0.929 . S
C1031 C1025 1.390 . S
C1031 C1028 1.386 . S
C1032 C1027 1.490 . S
C1032 C1034 1.395 . S
C1032 C1035 1.403 . S
H1033 C1039 0.930 . S
C1034 H1020 0.930 . S
C1034 C1032 1.395 . S
C1034 C1037 1.403 . S
C1035 C1032 1.403 . S
C1035 C1036 1.524 . S
C1035 C1039 1.400 . S
C1036 H1021 0.960 . S
C1036 H1022 0.960 . S
C1036 H1023 0.960 . S
C1036 C1035 1.524 . S
C1037 C1034 1.403 . S
C1037 C1038 1.392 . S
C1037 C1041 1.495 . S
C1038 C1037 1.392 . S
C1038 C1039 1.385 . S
C1038 C1040 1.478 . S
C1039 H1033 0.930 . S
C1039 C1035 1.400 . S
C1039 C1038 1.385 . S
C1040 C1038 1.478 . S
C1040 C1042 1.381 . S
C1040 C1046 1.383 . S
C1041 C1037 1.495 . S
C1041 H1047 0.959 . S
C1041 H1048 0.961 . S
C1041 H1049 0.960 . S
C1042 C1040 1.381 . S
C1042 C1043 1.394 . S
C1042 H1050 0.930 . S
C1043 C1042 1.394 . S
C1043 C1044 1.383 . S
C1043 H1051 0.929 . S
C1044 C1043 1.383 . S
C1044 C1045 1.377 . S
C1045 H1029 0.930 . S
C1045 C1044 1.377 . S
C1045 C1046 1.379 . S
C1046 H1030 0.931 . S
C1046 C1040 1.383 . S
C1046 C1045 1.379 . S
H1047 C1041 0.959 . S
H1048 C1041 0.961 . S
H1049 C1041 0.960 . S
H1050 C1042 0.930 . S
H1051 C1043 0.929 . S
H1052 C1060 0.929 . S
H1053 C1062 0.930 . S
H1054 C1064 0.930 . S
H1055 C1067 0.929 . S
H1056 C1070 0.930 . S
H1057 C1072 0.960 . S
H1058 C1072 0.960 . S
H1059 C1072 0.960 . S
C1060 H1052 0.929 . S
C1060 C1061 1.377 . S
C1060 C1062 1.384 . S
C1061 C1060 1.377 . S
C1061 C1067 1.390 1_565 S
C1062 H1053 0.930 . S
C1062 C1060 1.384 . S
C1062 C1063 1.395 . S
C1063 C1062 1.395 . S
C1063 C1064 1.379 1_565 S
C1063 C1068 1.489 1_565 S
C1064 H1054 0.930 . S
C1064 C1063 1.379 1_545 S
C1064 C1067 1.386 . S
H1065 C1081 0.930 . S
H1066 C1082 0.931 . S
C1067 H1055 0.929 . S
C1067 C1061 1.390 1_545 S
C1067 C1064 1.386 . S
C1068 C1063 1.489 1_545 S
C1068 C1070 1.396 1_554 S
C1068 C1071 1.401 1_545 S
H1069 C1075 0.930 . S
C1070 H1056 0.930 . S
C1070 C1068 1.396 1_556 S
C1070 C1073 1.403 . S
C1071 C1068 1.401 1_565 S
C1071 C1072 1.524 . S
C1071 C1075 1.400 . S
C1072 H1057 0.960 . S
C1072 H1058 0.960 . S
C1072 H1059 0.960 . S
C1072 C1071 1.524 . S
C1073 C1070 1.403 . S
C1073 C1074 1.392 . S
C1073 C1077 1.495 . S
C1074 C1073 1.392 . S
C1074 C1075 1.385 1_546 S
C1074 C1076 1.478 . S
C1075 H1069 0.930 . S
C1075 C1071 1.400 . S
C1075 C1074 1.385 1_564 S
C1076 C1074 1.478 . S
C1076 C1078 1.381 1_545 S
C1076 C1082 1.383 . S
C1077 C1073 1.495 . S
C1077 H1083 0.959 . S
C1077 H1084 0.961 . S
C1077 H1085 0.960 . S
C1078 C1076 1.381 1_565 S
C1078 C1079 1.394 . S
C1078 H1086 0.930 . S
C1079 C1078 1.394 . S
C1079 C1080 1.383 1_565 S
C1079 H1087 0.929 . S
C1080 C1079 1.383 1_545 S
C1080 C1081 1.377 . S
C1081 H1065 0.930 . S
C1081 C1080 1.377 . S
C1081 C1082 1.379 . S
C1082 H1066 0.931 . S
C1082 C1076 1.383 . S
C1082 C1081 1.379 . S
H1083 C1077 0.959 . S
H1084 C1077 0.961 . S
H1085 C1077 0.960 . S
H1086 C1078 0.930 . S
H1087 C1079 0.929 . S
H1088 C1096 0.929 . S
H1089 C1098 0.930 . S
H1090 C1100 0.930 . S
H1091 C1103 0.929 . S
H1092 C1106 0.930 . S
H1093 C1108 0.960 . S
H1094 C1108 0.960 . S
H1095 C1108 0.960 . S
C1096 H1088 0.929 . S
C1096 C1097 1.377 . S
C1096 C1098 1.384 . S
C1097 C1096 1.377 . S
C1097 C1103 1.390 . S
C1098 H1089 0.930 . S
C1098 C1096 1.384 . S
C1098 C1099 1.372 . S
C1099 C1098 1.372 . S
C1099 C1100 1.400 . S
C1099 C1104 1.490 . S
C1100 H1090 0.930 . S
C1100 C1099 1.400 . S
C1100 C1103 1.386 . S
H1101 C1117 0.930 . S
H1102 C1118 0.931 . S
C1103 H1091 0.929 . S
C1103 C1097 1.390 . S
C1103 C1100 1.386 . S
C1104 C1099 1.490 . S
C1104 C1106 1.395 . S
C1104 C1107 1.403 . S
H1105 C1111 0.930 . S
C1106 H1092 0.930 . S
C1106 C1104 1.395 . S
C1106 C1109 1.403 . S
C1107 C1104 1.403 . S
C1107 C1108 1.524 . S
C1107 C1111 1.400 . S
C1108 H1093 0.960 . S
C1108 H1094 0.960 . S
C1108 H1095 0.960 . S
C1108 C1107 1.524 . S
C1109 C1106 1.403 . S
C1109 C1110 1.392 . S
C1109 C1113 1.495 . S
C1110 C1109 1.392 . S
C1110 C1111 1.385 . S
C1110 C1112 1.478 . S
C1111 H1105 0.930 . S
C1111 C1107 1.400 . S
C1111 C1110 1.385 . S
C1112 C1110 1.478 . S
C1112 C1114 1.381 . S
C1112 C1118 1.383 . S
C1113 C1109 1.495 . S
C1113 H1119 0.959 . S
C1113 H1120 0.961 . S
C1113 H1121 0.960 . S
C1114 C1112 1.381 . S
C1114 C1115 1.394 . S
C1114 H1122 0.930 . S
C1115 C1114 1.394 . S
C1115 C1116 1.383 . S
C1115 H1123 0.929 . S
C1116 C1115 1.383 . S
C1116 C1117 1.377 . S
C1117 H1101 0.930 . S
C1117 C1116 1.377 . S
C1117 C1118 1.379 . S
C1118 H1102 0.931 . S
C1118 C1112 1.383 . S
C1118 C1117 1.379 . S
H1119 C1113 0.959 . S
H1120 C1113 0.961 . S
H1121 C1113 0.960 . S
H1122 C1114 0.930 . S
H1123 C1115 0.929 . S
H1124 C1132 0.929 . S
H1125 C1134 0.930 . S
H1126 C1136 0.930 . S
H1127 C1139 0.929 . S
H1128 C1142 0.935 . S
H1129 C1144 0.960 . S
H1130 C1144 0.960 . S
H1131 C1144 0.966 . S
C1132 H1124 0.929 . S
C1132 C1133 1.377 . S
C1132 C1134 1.384 . S
C1133 C1132 1.377 . S
C1133 C1139 1.390 1_545 S
C1134 H1125 0.930 . S
C1134 C1132 1.384 . S
C1134 C1135 1.372 . S
C1135 C1134 1.372 . S
C1135 C1136 1.400 1_545 S
C1135 C1140 1.490 . S
C1136 H1126 0.930 . S
C1136 C1135 1.400 1_565 S
C1136 C1139 1.386 . S
H1137 C1153 0.930 . S
H1138 C1154 0.931 . S
C1139 H1127 0.929 . S
C1139 C1133 1.390 1_565 S
C1139 C1136 1.386 . S
C1140 C1135 1.490 . S
C1140 C1142 1.388 1_545 S
C1140 C1143 1.403 . S
H1141 C1147 0.930 . S
C1142 H1128 0.935 . S
C1142 C1140 1.388 1_565 S
C1142 C1145 1.407 . S
C1143 C1140 1.403 . S
C1143 C1144 1.524 . S
C1143 C1147 1.400 . S
C1144 H1129 0.960 . S
C1144 H1130 0.960 . S
C1144 H1131 0.966 . S
C1144 C1143 1.524 . S
C1145 C1142 1.407 . S
C1145 C1146 1.390 1_565 S
C1145 C1149 1.495 . S
C1146 C1145 1.390 1_545 S
C1146 C1147 1.390 . S
C1146 C1148 1.475 1_545 S
C1147 H1141 0.930 . S
C1147 C1143 1.400 . S
C1147 C1146 1.390 . S
C1148 C1146 1.475 1_565 S
C1148 C1150 1.353 1_565 S
C1148 C1154 1.412 . S
C1149 C1145 1.495 . S
C1149 H1155 0.959 . S
C1149 H1156 0.961 . S
C1149 H1157 0.960 1_565 S
C1150 C1148 1.353 1_545 S
C1150 C1151 1.394 . S
C1150 H1158 0.930 . S
C1151 C1150 1.394 . S
C1151 C1152 1.383 1_545 S
C1151 H1159 0.929 . S
C1152 C1151 1.383 1_565 S
C1152 C1153 1.377 . S
C1153 H1137 0.930 . S
C1153 C1152 1.377 . S
C1153 C1154 1.379 . S
C1154 H1138 0.931 . S
C1154 C1148 1.412 . S
C1154 C1153 1.379 . S
H1155 C1149 0.959 . S
H1156 C1149 0.961 . S
H1157 C1149 0.960 1_545 S
H1158 C1150 0.930 . S
H1159 C1151 0.929 . S
H1160 C1168 0.929 . S
H1161 C1170 0.930 . S
H1162 C1172 0.930 . S
H1163 C1175 0.929 . S
H1164 C1178 0.930 . S
H1165 C1180 0.960 . S
H1166 C1180 0.960 . S
H1167 C1180 0.960 . S
C1168 H1160 0.929 . S
C1168 C1169 1.377 . S
C1168 C1170 1.384 . S
C1169 C1168 1.377 . S
C1169 C1175 1.390 . S
C1170 H1161 0.930 . S
C1170 C1168 1.384 . S
C1170 C1171 1.372 . S
C1171 C1170 1.372 . S
C1171 C1172 1.400 . S
C1171 C1176 1.490 . S
C1172 H1162 0.930 . S
C1172 C1171 1.400 . S
C1172 C1175 1.386 . S
H1173 C1189 0.930 . S
H1174 C1190 0.931 . S
C1175 H1163 0.929 . S
C1175 C1169 1.390 . S
C1175 C1172 1.386 . S
C1176 C1171 1.490 . S
C1176 C1178 1.395 . S
C1176 C1179 1.403 . S
H1177 C1183 0.930 . S
C1178 H1164 0.930 . S
C1178 C1176 1.395 . S
C1178 C1181 1.403 . S
C1179 C1176 1.403 . S
C1179 C1180 1.524 . S
C1179 C1183 1.400 . S
C1180 H1165 0.960 . S
C1180 H1166 0.960 . S
C1180 H1167 0.960 . S
C1180 C1179 1.524 . S
C1181 C1178 1.403 . S
C1181 C1182 1.392 . S
C1181 C1185 1.495 . S
C1182 C1181 1.392 . S
C1182 C1183 1.385 . S
C1182 C1184 1.478 . S
C1183 H1177 0.930 . S
C1183 C1179 1.400 . S
C1183 C1182 1.385 . S
C1184 C1182 1.478 . S
C1184 C1186 1.381 . S
C1184 C1190 1.383 . S
C1185 C1181 1.495 . S
C1185 H1191 0.959 . S
C1185 H1192 0.961 . S
C1185 H1193 0.960 . S
C1186 C1184 1.381 . S
C1186 C1187 1.394 . S
C1186 H1194 0.930 . S
C1187 C1186 1.394 . S
C1187 C1188 1.383 . S
C1187 H1195 0.929 . S
C1188 C1187 1.383 . S
C1188 C1189 1.377 . S
C1189 H1173 0.930 . S
C1189 C1188 1.377 . S
C1189 C1190 1.379 . S
C1190 H1174 0.931 . S
C1190 C1184 1.383 . S
C1190 C1189 1.379 . S
H1191 C1185 0.959 . S
H1192 C1185 0.961 . S
H1193 C1185 0.960 . S
H1194 C1186 0.930 . S
H1195 C1187 0.929 . S
H1196 C1204 0.929 . S
H1197 C1206 0.930 . S
H1198 C1208 0.930 . S
H1199 C1211 0.929 . S
H1200 C1214 0.930 . S
H1201 C1216 0.960 . S
H1202 C1216 0.960 . S
H1203 C1216 0.960 1_556 S
C1204 H1196 0.929 . S
C1204 C1205 1.377 1_545 S
C1204 C1206 1.384 . S
C1205 C1204 1.377 1_565 S
C1205 C1211 1.390 . S
C1206 H1197 0.930 . S
C1206 C1204 1.384 . S
C1206 C1207 1.403 . S
C1207 C1206 1.403 . S
C1207 C1208 1.367 1_545 S
C1207 C1212 1.493 . S
C1208 H1198 0.930 . S
C1208 C1207 1.367 1_565 S
C1208 C1211 1.386 . S
H1209 C1225 0.930 . S
H1210 C1226 0.931 . S
C1211 H1199 0.929 . S
C1211 C1205 1.390 . S
C1211 C1208 1.386 . S
C1212 C1207 1.493 . S
C1212 C1214 1.395 . S
C1212 C1215 1.400 1_546 S
H1213 C1219 0.930 . S
C1214 H1200 0.930 . S
C1214 C1212 1.395 . S
C1214 C1217 1.403 1_456 S
C1215 C1212 1.400 1_564 S
C1215 C1216 1.524 . S
C1215 C1219 1.403 1_455 S
C1216 H1201 0.960 . S
C1216 H1202 0.960 . S
C1216 H1203 0.960 1_554 S
C1216 C1215 1.524 . S
C1217 C1214 1.403 1_654 S
C1217 C1218 1.392 . S
C1217 C1221 1.496 . S
C1218 C1217 1.392 . S
C1218 C1219 1.385 1_545 S
C1218 C1220 1.478 . S
C1219 H1213 0.930 . S
C1219 C1215 1.403 1_655 S
C1219 C1218 1.385 1_565 S
C1220 C1218 1.478 . S
C1220 C1222 1.381 . S
C1220 C1226 1.383 1_545 S
C1221 C1217 1.496 . S
C1221 H1227 0.947 1_554 S
C1221 H1228 0.959 1_554 S
C1221 H1229 0.974 . S
C1222 C1220 1.381 . S
C1222 C1223 1.394 . S
C1222 H1230 0.930 . S
C1223 C1222 1.394 . S
C1223 C1224 1.383 . S
C1223 H1231 0.929 . S
C1224 C1223 1.383 . S
C1224 C1225 1.377 1_545 S
C1225 H1209 0.930 . S
C1225 C1224 1.377 1_565 S
C1225 C1226 1.379 . S
C1226 H1210 0.931 . S
C1226 C1220 1.383 1_565 S
C1226 C1225 1.379 . S
H1227 C1221 0.947 1_556 S
H1228 C1221 0.959 1_556 S
H1229 C1221 0.974 . S
H1230 C1222 0.930 . S
H1231 C1223 0.929 . S
H1232 C1240 0.929 . S
H1233 C1242 0.930 . S
H1234 C1244 0.930 . S
H1235 C1247 0.929 . S
H1236 C1250 0.930 . S
H1237 C1252 0.960 . S
H1238 C1252 0.960 . S
H1239 C1252 0.960 . S
C1240 H1232 0.929 . S
C1240 C1241 1.377 . S
C1240 C1242 1.384 . S
C1241 C1240 1.377 . S
C1241 C1247 1.390 . S
C1242 H1233 0.930 . S
C1242 C1240 1.384 . S
C1242 C1243 1.372 . S
C1243 C1242 1.372 . S
C1243 C1244 1.400 . S
C1243 C1248 1.490 . S
C1244 H1234 0.930 . S
C1244 C1243 1.400 . S
C1244 C1247 1.386 . S
H1245 C1261 0.930 . S
H1246 C1262 0.931 . S
C1247 H1235 0.929 . S
C1247 C1241 1.390 . S
C1247 C1244 1.386 . S
C1248 C1243 1.490 . S
C1248 C1250 1.395 . S
C1248 C1251 1.403 . S
H1249 C1255 0.930 . S
C1250 H1236 0.930 . S
C1250 C1248 1.395 . S
C1250 C1253 1.403 . S
C1251 C1248 1.403 . S
C1251 C1252 1.524 . S
C1251 C1255 1.400 . S
C1252 H1237 0.960 . S
C1252 H1238 0.960 . S
C1252 H1239 0.960 . S
C1252 C1251 1.524 . S
C1253 C1250 1.403 . S
C1253 C1254 1.392 . S
C1253 C1257 1.495 . S
C1254 C1253 1.392 . S
C1254 C1255 1.385 . S
C1254 C1256 1.478 . S
C1255 H1249 0.930 . S
C1255 C1251 1.400 . S
C1255 C1254 1.385 . S
C1256 C1254 1.478 . S
C1256 C1258 1.381 . S
C1256 C1262 1.383 . S
C1257 C1253 1.495 . S
C1257 H1263 0.959 . S
C1257 H1264 0.961 . S
C1257 H1265 0.960 . S
C1258 C1256 1.381 . S
C1258 C1259 1.394 . S
C1258 H1266 0.930 . S
C1259 C1258 1.394 . S
C1259 C1260 1.383 . S
C1259 H1267 0.929 . S
C1260 C1259 1.383 . S
C1260 C1261 1.377 . S
C1261 H1245 0.930 . S
C1261 C1260 1.377 . S
C1261 C1262 1.379 . S
C1262 H1246 0.931 . S
C1262 C1256 1.383 . S
C1262 C1261 1.379 . S
H1263 C1257 0.959 . S
H1264 C1257 0.961 . S
H1265 C1257 0.960 . S
H1266 C1258 0.930 . S
H1267 C1259 0.929 . S
H1268 C1276 0.929 . S
H1269 C1278 0.930 . S
H1270 C1280 0.930 . S
H1271 C1283 0.929 . S
H1272 C1286 0.930 . S
H1273 C1288 0.960 . S
H1274 C1288 0.960 . S
H1275 C1288 0.960 . S
C1276 H1268 0.929 . S
C1276 C1277 1.377 . S
C1276 C1278 1.384 . S
C1277 C1276 1.377 . S
C1277 C1283 1.390 . S
C1278 H1269 0.930 . S
C1278 C1276 1.384 . S
C1278 C1279 1.372 . S
C1279 C1278 1.372 . S
C1279 C1280 1.400 . S
C1279 C1284 1.490 . S
C1280 H1270 0.930 . S
C1280 C1279 1.400 . S
C1280 C1283 1.386 . S
H1281 C1297 0.930 . S
H1282 C1298 0.931 . S
C1283 H1271 0.929 . S
C1283 C1277 1.390 . S
C1283 C1280 1.386 . S
C1284 C1279 1.490 . S
C1284 C1286 1.395 . S
C1284 C1287 1.403 . S
H1285 C1291 0.930 . S
C1286 H1272 0.930 . S
C1286 C1284 1.395 . S
C1286 C1289 1.403 . S
C1287 C1284 1.403 . S
C1287 C1288 1.524 . S
C1287 C1291 1.400 . S
C1288 H1273 0.960 . S
C1288 H1274 0.960 . S
C1288 H1275 0.960 . S
C1288 C1287 1.524 . S
C1289 C1286 1.403 . S
C1289 C1290 1.392 . S
C1289 C1293 1.495 . S
C1290 C1289 1.392 . S
C1290 C1291 1.385 . S
C1290 C1292 1.478 . S
C1291 H1285 0.930 . S
C1291 C1287 1.400 . S
C1291 C1290 1.385 . S
C1292 C1290 1.478 . S
C1292 C1294 1.381 . S
C1292 C1298 1.383 . S
C1293 C1289 1.495 . S
C1293 H1299 0.959 . S
C1293 H1300 0.961 . S
C1293 H1301 0.960 . S
C1294 C1292 1.381 . S
C1294 C1295 1.394 . S
C1294 H1302 0.930 . S
C1295 C1294 1.394 . S
C1295 C1296 1.383 . S
C1295 H1303 0.929 . S
C1296 C1295 1.383 . S
C1296 C1297 1.377 . S
C1297 H1281 0.930 . S
C1297 C1296 1.377 . S
C1297 C1298 1.379 . S
C1298 H1282 0.931 . S
C1298 C1292 1.383 . S
C1298 C1297 1.379 . S
H1299 C1293 0.959 . S
H1300 C1293 0.961 . S
H1301 C1293 0.960 . S
H1302 C1294 0.930 . S
H1303 C1295 0.929 . S
H1304 C1312 0.929 . S
H1305 C1314 0.930 . S
H1306 C1316 0.930 . S
H1307 C1319 0.929 . S
H1308 C1322 0.930 . S
H1309 C1324 0.960 . S
H1310 C1324 0.960 . S
H1311 C1324 0.960 . S
C1312 H1304 0.929 . S
C1312 C1313 1.377 . S
C1312 C1314 1.384 . S
C1313 C1312 1.377 . S
C1313 C1319 1.390 . S
C1314 H1305 0.930 . S
C1314 C1312 1.384 . S
C1314 C1315 1.372 . S
C1315 C1314 1.372 . S
C1315 C1316 1.400 . S
C1315 C1320 1.490 . S
C1316 H1306 0.930 . S
C1316 C1315 1.400 . S
C1316 C1319 1.386 . S
H1317 C1333 0.930 . S
H1318 C1334 0.931 . S
C1319 H1307 0.929 . S
C1319 C1313 1.390 . S
C1319 C1316 1.386 . S
C1320 C1315 1.490 . S
C1320 C1322 1.395 . S
C1320 C1323 1.403 . S
H1321 C1327 0.930 . S
C1322 H1308 0.930 . S
C1322 C1320 1.395 . S
C1322 C1325 1.403 . S
C1323 C1320 1.403 . S
C1323 C1324 1.524 . S
C1323 C1327 1.400 . S
C1324 H1309 0.960 . S
C1324 H1310 0.960 . S
C1324 H1311 0.960 . S
C1324 C1323 1.524 . S
C1325 C1322 1.403 . S
C1325 C1326 1.392 . S
C1325 C1329 1.495 . S
C1326 C1325 1.392 . S
C1326 C1327 1.385 . S
C1326 C1328 1.478 . S
C1327 H1321 0.930 . S
C1327 C1323 1.400 . S
C1327 C1326 1.385 . S
C1328 C1326 1.478 . S
C1328 C1330 1.381 . S
C1328 C1334 1.383 . S
C1329 C1325 1.495 . S
C1329 H1335 0.959 . S
C1329 H1336 0.961 . S
C1329 H1337 0.960 . S
C1330 C1328 1.381 . S
C1330 C1331 1.394 . S
C1330 H1338 0.930 . S
C1331 C1330 1.394 . S
C1331 C1332 1.383 . S
C1331 H1339 0.929 . S
C1332 C1331 1.383 . S
C1332 C1333 1.377 . S
C1333 H1317 0.930 . S
C1333 C1332 1.377 . S
C1333 C1334 1.379 . S
C1334 H1318 0.931 . S
C1334 C1328 1.383 . S
C1334 C1333 1.379 . S
H1335 C1329 0.959 . S
H1336 C1329 0.961 . S
H1337 C1329 0.960 . S
H1338 C1330 0.930 . S
H1339 C1331 0.929 . S
H1340 C1348 0.929 . S
H1341 C1350 0.930 . S
H1342 C1352 0.930 . S
H1343 C1355 0.929 . S
H1344 C1358 0.930 . S
H1345 C1360 0.960 . S
H1346 C1360 0.960 . S
H1347 C1360 0.960 . S
C1348 H1340 0.929 . S
C1348 C1349 1.377 . S
C1348 C1350 1.384 . S
C1349 C1348 1.377 . S
C1349 C1355 1.390 . S
C1350 H1341 0.930 . S
C1350 C1348 1.384 . S
C1350 C1351 1.372 . S
C1351 C1350 1.372 . S
C1351 C1352 1.400 . S
C1351 C1356 1.490 . S
C1352 H1342 0.930 . S
C1352 C1351 1.400 . S
C1352 C1355 1.386 . S
H1353 C1369 0.930 . S
H1354 C1370 0.931 . S
C1355 H1343 0.929 . S
C1355 C1349 1.390 . S
C1355 C1352 1.386 . S
C1356 C1351 1.490 . S
C1356 C1358 1.395 . S
C1356 C1359 1.403 . S
H1357 C1363 0.930 . S
C1358 H1344 0.930 . S
C1358 C1356 1.395 . S
C1358 C1361 1.403 . S
C1359 C1356 1.403 . S
C1359 C1360 1.524 . S
C1359 C1363 1.400 . S
C1360 H1345 0.960 . S
C1360 H1346 0.960 . S
C1360 H1347 0.960 . S
C1360 C1359 1.524 . S
C1361 C1358 1.403 . S
C1361 C1362 1.392 . S
C1361 C1365 1.495 . S
C1362 C1361 1.392 . S
C1362 C1363 1.385 . S
C1362 C1364 1.478 . S
C1363 H1357 0.930 . S
C1363 C1359 1.400 . S
C1363 C1362 1.385 . S
C1364 C1362 1.478 . S
C1364 C1366 1.381 . S
C1364 C1370 1.383 . S
C1365 C1361 1.495 . S
C1365 H1371 0.959 . S
C1365 H1372 0.961 . S
C1365 H1373 0.960 . S
C1366 C1364 1.381 . S
C1366 C1367 1.394 . S
C1366 H1374 0.930 . S
C1367 C1366 1.394 . S
C1367 C1368 1.383 . S
C1367 H1375 0.929 . S
C1368 C1367 1.383 . S
C1368 C1369 1.377 . S
C1369 H1353 0.930 . S
C1369 C1368 1.377 . S
C1369 C1370 1.379 . S
C1370 H1354 0.931 . S
C1370 C1364 1.383 . S
C1370 C1369 1.379 . S
H1371 C1365 0.959 . S
H1372 C1365 0.961 . S
H1373 C1365 0.960 . S
H1374 C1366 0.930 . S
H1375 C1367 0.929 . S
H1376 C1384 0.929 . S
H1377 C1386 0.930 . S
H1378 C1388 0.930 . S
H1379 C1391 0.929 . S
H1380 C1394 0.930 . S
H1381 C1396 0.960 . S
H1382 C1396 0.960 . S
H1383 C1396 0.960 . S
C1384 H1376 0.929 . S
C1384 C1385 1.377 . S
C1384 C1386 1.384 . S
C1385 C1384 1.377 . S
C1385 C1391 1.390 . S
C1386 H1377 0.930 . S
C1386 C1384 1.384 . S
C1386 C1387 1.372 . S
C1387 C1386 1.372 . S
C1387 C1388 1.400 . S
C1387 C1392 1.490 . S
C1388 H1378 0.930 . S
C1388 C1387 1.400 . S
C1388 C1391 1.386 . S
H1389 C1405 0.930 . S
H1390 C1406 0.931 . S
C1391 H1379 0.929 . S
C1391 C1385 1.390 . S
C1391 C1388 1.386 . S
C1392 C1387 1.490 . S
C1392 C1394 1.395 . S
C1392 C1395 1.403 1_554 S
H1393 C1399 0.930 . S
C1394 H1380 0.930 . S
C1394 C1392 1.395 . S
C1394 C1397 1.403 . S
C1395 C1392 1.403 1_556 S
C1395 C1396 1.524 . S
C1395 C1399 1.400 . S
C1396 H1381 0.960 . S
C1396 H1382 0.960 . S
C1396 H1383 0.960 . S
C1396 C1395 1.524 . S
C1397 C1394 1.403 . S
C1397 C1398 1.392 1_554 S
C1397 C1401 1.495 . S
C1398 C1397 1.392 1_556 S
C1398 C1399 1.385 . S
C1398 C1400 1.478 . S
C1399 H1393 0.930 . S
C1399 C1395 1.400 . S
C1399 C1398 1.385 . S
C1400 C1398 1.478 . S
C1400 C1402 1.381 . S
C1400 C1406 1.383 . S
C1401 C1397 1.495 . S
C1401 H1407 0.959 . S
C1401 H1408 0.961 . S
C1401 H1409 0.960 . S
C1402 C1400 1.381 . S
C1402 C1403 1.394 . S
C1402 H1410 0.930 . S
C1403 C1402 1.394 . S
C1403 C1404 1.383 . S
C1403 H1411 0.929 . S
C1404 C1403 1.383 . S
C1404 C1405 1.377 . S
C1405 H1389 0.930 . S
C1405 C1404 1.377 . S
C1405 C1406 1.379 . S
C1406 H1390 0.931 . S
C1406 C1400 1.383 . S
C1406 C1405 1.379 . S
H1407 C1401 0.959 . S
H1408 C1401 0.961 . S
H1409 C1401 0.960 . S
H1410 C1402 0.930 . S
H1411 C1403 0.929 . S
H1412 C1420 0.929 . S
H1413 C1422 0.930 . S
H1414 C1424 0.930 . S
H1415 C1427 0.929 . S
H1416 C1430 0.930 . S
H1417 C1432 0.960 . S
H1418 C1432 0.960 . S
H1419 C1432 0.960 1_455 S
C1420 H1412 0.929 . S
C1420 C1421 1.377 . S
C1420 C1422 1.384 . S
C1421 C1420 1.377 . S
C1421 C1427 1.390 . S
C1422 H1413 0.930 . S
C1422 C1420 1.384 . S
C1422 C1423 1.372 . S
C1423 C1422 1.372 . S
C1423 C1424 1.400 . S
C1423 C1428 1.490 . S
C1424 H1414 0.930 . S
C1424 C1423 1.400 . S
C1424 C1427 1.386 . S
H1425 C1441 0.930 . S
H1426 C1442 0.931 . S
C1427 H1415 0.929 . S
C1427 C1421 1.390 . S
C1427 C1424 1.386 . S
C1428 C1423 1.490 . S
C1428 C1430 1.395 . S
C1428 C1431 1.403 1_455 S
H1429 C1435 0.930 . S
C1430 H1416 0.930 . S
C1430 C1428 1.395 . S
C1430 C1433 1.404 . S
C1431 C1428 1.403 1_655 S
C1431 C1432 1.524 . S
C1431 C1435 1.400 . S
C1432 H1417 0.960 . S
C1432 H1418 0.960 . S
C1432 H1419 0.960 1_655 S
C1432 C1431 1.524 . S
C1433 C1430 1.404 . S
C1433 C1434 1.391 1_455 S
C1433 C1437 1.494 . S
C1434 C1433 1.391 1_655 S
C1434 C1435 1.385 . S
C1434 C1436 1.478 . S
C1435 H1429 0.930 . S
C1435 C1431 1.400 . S
C1435 C1434 1.385 . S
C1436 C1434 1.478 . S
C1436 C1438 1.381 . S
C1436 C1442 1.383 . S
C1437 C1433 1.494 . S
C1437 H1443 1.001 . S
C1437 H1444 0.975 . S
C1437 H1445 0.909 1_455 S
C1438 C1436 1.381 . S
C1438 C1439 1.394 . S
C1438 H1446 0.930 . S
C1439 C1438 1.394 . S
C1439 C1440 1.383 . S
C1439 H1447 0.929 . S
C1440 C1439 1.383 . S
C1440 C1441 1.377 . S
C1441 H1425 0.930 . S
C1441 C1440 1.377 . S
C1441 C1442 1.379 . S
C1442 H1426 0.931 . S
C1442 C1436 1.383 . S
C1442 C1441 1.379 . S
H1443 C1437 1.001 . S
H1444 C1437 0.975 . S
H1445 C1437 0.909 1_655 S
H1446 C1438 0.930 . S
H1447 C1439 0.929 . S
H1448 C1456 0.929 . S
H1449 C1458 0.930 . S
H1450 C1460 0.930 . S
H1451 C1463 0.929 . S
H1452 C1466 0.930 . S
H1453 C1468 0.960 . S
H1454 C1468 0.960 . S
H1455 C1468 0.960 . S
C1456 H1448 0.929 . S
C1456 C1457 1.377 . S
C1456 C1458 1.384 . S
C1457 C1456 1.377 . S
C1457 C1463 1.390 . S
C1458 H1449 0.930 . S
C1458 C1456 1.384 . S
C1458 C1459 1.372 . S
C1459 C1458 1.372 . S
C1459 C1460 1.400 . S
C1459 C1464 1.490 . S
C1460 H1450 0.930 . S
C1460 C1459 1.400 . S
C1460 C1463 1.386 . S
H1461 C1477 0.930 . S
H1462 C1478 0.931 . S
C1463 H1451 0.929 . S
C1463 C1457 1.390 . S
C1463 C1460 1.386 . S
C1464 C1459 1.490 . S
C1464 C1466 1.395 1_455 S
C1464 C1467 1.403 1_554 S
H1465 C1471 0.930 . S
C1466 H1452 0.930 . S
C1466 C1464 1.395 1_655 S
C1466 C1469 1.403 . S
C1467 C1464 1.403 1_556 S
C1467 C1468 1.524 . S
C1467 C1471 1.400 . S
C1468 H1453 0.960 . S
C1468 H1454 0.960 . S
C1468 H1455 0.960 . S
C1468 C1467 1.524 . S
C1469 C1466 1.403 . S
C1469 C1470 1.392 1_554 S
C1469 C1473 1.495 . S
C1470 C1469 1.392 1_556 S
C1470 C1471 1.385 1_655 S
C1470 C1472 1.478 . S
C1471 H1465 0.930 . S
C1471 C1467 1.400 . S
C1471 C1470 1.385 1_455 S
C1472 C1470 1.478 . S
C1472 C1474 1.381 . S
C1472 C1478 1.383 . S
C1473 C1469 1.495 . S
C1473 H1479 0.959 . S
C1473 H1480 0.961 . S
C1473 H1481 0.960 . S
C1474 C1472 1.381 . S
C1474 C1475 1.394 . S
C1474 H1482 0.930 . S
C1475 C1474 1.394 . S
C1475 C1476 1.383 . S
C1475 H1483 0.929 . S
C1476 C1475 1.383 . S
C1476 C1477 1.377 . S
C1477 H1461 0.930 . S
C1477 C1476 1.377 . S
C1477 C1478 1.379 . S
C1478 H1462 0.931 . S
C1478 C1472 1.383 . S
C1478 C1477 1.379 . S
H1479 C1473 0.959 . S
H1480 C1473 0.961 . S
H1481 C1473 0.960 . S
H1482 C1474 0.930 . S
H1483 C1475 0.929 . S
H1484 C1492 0.929 . S
H1485 C1494 0.930 . S
H1486 C1496 0.930 . S
H1487 C1499 0.929 . S
H1488 C1502 0.930 . S
H1489 C1504 0.960 . S
H1490 C1504 0.960 . S
H1491 C1504 0.960 . S
C1492 H1484 0.929 . S
C1492 C1493 1.377 . S
C1492 C1494 1.384 . S
C1493 C1492 1.377 . S
C1493 C1499 1.390 . S
C1494 H1485 0.930 . S
C1494 C1492 1.384 . S
C1494 C1495 1.372 . S
C1495 C1494 1.372 . S
C1495 C1496 1.400 . S
C1495 C1500 1.490 . S
C1496 H1486 0.930 . S
C1496 C1495 1.400 . S
C1496 C1499 1.386 . S
H1497 C1513 0.930 . S
H1498 C1514 0.931 . S
C1499 H1487 0.929 . S
C1499 C1493 1.390 . S
C1499 C1496 1.386 . S
C1500 C1495 1.490 . S
C1500 C1502 1.395 . S
C1500 C1503 1.403 . S
H1501 C1507 0.930 . S
C1502 H1488 0.930 . S
C1502 C1500 1.395 . S
C1502 C1505 1.403 . S
C1503 C1500 1.403 . S
C1503 C1504 1.524 . S
C1503 C1507 1.400 . S
C1504 H1489 0.960 . S
C1504 H1490 0.960 . S
C1504 H1491 0.960 . S
C1504 C1503 1.524 . S
C1505 C1502 1.403 . S
C1505 C1506 1.392 . S
C1505 C1509 1.495 . S
C1506 C1505 1.392 . S
C1506 C1507 1.385 . S
C1506 C1508 1.478 . S
C1507 H1501 0.930 . S
C1507 C1503 1.400 . S
C1507 C1506 1.385 . S
C1508 C1506 1.478 . S
C1508 C1510 1.381 . S
C1508 C1514 1.383 . S
C1509 C1505 1.495 . S
C1509 H1515 0.959 . S
C1509 H1516 0.961 . S
C1509 H1517 0.960 . S
C1510 C1508 1.381 . S
C1510 C1511 1.394 . S
C1510 H1518 0.930 . S
C1511 C1510 1.394 . S
C1511 C1512 1.383 . S
C1511 H1519 0.929 . S
C1512 C1511 1.383 . S
C1512 C1513 1.377 . S
C1513 H1497 0.930 . S
C1513 C1512 1.377 . S
C1513 C1514 1.379 . S
C1514 H1498 0.931 . S
C1514 C1508 1.383 . S
C1514 C1513 1.379 . S
H1515 C1509 0.959 . S
H1516 C1509 0.961 . S
H1517 C1509 0.960 . S
H1518 C1510 0.930 . S
H1519 C1511 0.929 . S
H1520 C1528 0.929 . S
H1521 C1530 0.930 . S
H1522 C1532 0.930 . S
H1523 C1535 0.929 . S
H1524 C1538 0.930 . S
H1525 C1540 0.960 . S
H1526 C1540 0.960 . S
H1527 C1540 0.960 . S
C1528 H1520 0.929 . S
C1528 C1529 1.377 . S
C1528 C1530 1.384 . S
C1529 C1528 1.377 . S
C1529 C1535 1.390 . S
C1530 H1521 0.930 . S
C1530 C1528 1.384 . S
C1530 C1531 1.372 . S
C1531 C1530 1.372 . S
C1531 C1532 1.400 . S
C1531 C1536 1.490 . S
C1532 H1522 0.930 . S
C1532 C1531 1.400 . S
C1532 C1535 1.386 . S
H1533 C1549 0.930 . S
H1534 C1550 0.931 . S
C1535 H1523 0.929 . S
C1535 C1529 1.390 . S
C1535 C1532 1.386 . S
C1536 C1531 1.490 . S
C1536 C1538 1.395 . S
C1536 C1539 1.403 . S
H1537 C1543 0.930 . S
C1538 H1524 0.930 . S
C1538 C1536 1.395 . S
C1538 C1541 1.403 . S
C1539 C1536 1.403 . S
C1539 C1540 1.524 . S
C1539 C1543 1.400 . S
C1540 H1525 0.960 . S
C1540 H1526 0.960 . S
C1540 H1527 0.960 . S
C1540 C1539 1.524 . S
C1541 C1538 1.403 . S
C1541 C1542 1.392 . S
C1541 C1545 1.495 . S
C1542 C1541 1.392 . S
C1542 C1543 1.385 . S
C1542 C1544 1.478 . S
C1543 H1537 0.930 . S
C1543 C1539 1.400 . S
C1543 C1542 1.385 . S
C1544 C1542 1.478 . S
C1544 C1546 1.381 . S
C1544 C1550 1.383 . S
C1545 C1541 1.495 . S
C1545 H1551 0.959 . S
C1545 H1552 0.961 . S
C1545 H1553 0.960 . S
C1546 C1544 1.381 . S
C1546 C1547 1.394 . S
C1546 H1554 0.930 . S
C1547 C1546 1.394 . S
C1547 C1548 1.383 . S
C1547 H1555 0.929 . S
C1548 C1547 1.383 . S
C1548 C1549 1.377 . S
C1549 H1533 0.930 . S
C1549 C1548 1.377 . S
C1549 C1550 1.379 . S
C1550 H1534 0.931 . S
C1550 C1544 1.383 . S
C1550 C1549 1.379 . S
H1551 C1545 0.959 . S
H1552 C1545 0.961 . S
H1553 C1545 0.960 . S
H1554 C1546 0.930 . S
H1555 C1547 0.929 . S
H1556 C1564 0.929 . S
H1557 C1566 0.930 . S
H1558 C1568 0.930 . S
H1559 C1571 0.929 . S
H1560 C1574 0.930 . S
H1561 C1576 0.960 . S
H1562 C1576 0.960 . S
H1563 C1576 0.960 . S
C1564 H1556 0.929 . S
C1564 C1565 1.377 . S
C1564 C1566 1.384 . S
C1565 C1564 1.377 . S
C1565 C1571 1.390 . S
C1566 H1557 0.930 . S
C1566 C1564 1.384 . S
C1566 C1567 1.372 . S
C1567 C1566 1.372 . S
C1567 C1568 1.400 . S
C1567 C1572 1.490 . S
C1568 H1558 0.930 . S
C1568 C1567 1.400 . S
C1568 C1571 1.386 . S
H1569 C1585 0.930 . S
H1570 C1586 0.931 . S
C1571 H1559 0.929 . S
C1571 C1565 1.390 . S
C1571 C1568 1.386 . S
C1572 C1567 1.490 . S
C1572 C1574 1.395 . S
C1572 C1575 1.403 . S
H1573 C1579 0.930 . S
C1574 H1560 0.930 . S
C1574 C1572 1.395 . S
C1574 C1577 1.403 . S
C1575 C1572 1.403 . S
C1575 C1576 1.524 . S
C1575 C1579 1.400 . S
C1576 H1561 0.960 . S
C1576 H1562 0.960 . S
C1576 H1563 0.960 . S
C1576 C1575 1.524 . S
C1577 C1574 1.403 . S
C1577 C1578 1.392 . S
C1577 C1581 1.495 . S
C1578 C1577 1.392 . S
C1578 C1579 1.385 . S
C1578 C1580 1.478 . S
C1579 H1573 0.930 . S
C1579 C1575 1.400 . S
C1579 C1578 1.385 . S
C1580 C1578 1.478 . S
C1580 C1582 1.381 . S
C1580 C1586 1.383 . S
C1581 C1577 1.495 . S
C1581 H1587 0.959 . S
C1581 H1588 0.961 . S
C1581 H1589 0.960 . S
C1582 C1580 1.381 . S
C1582 C1583 1.394 . S
C1582 H1590 0.930 . S
C1583 C1582 1.394 . S
C1583 C1584 1.383 . S
C1583 H1591 0.929 . S
C1584 C1583 1.383 . S
C1584 C1585 1.377 . S
C1585 H1569 0.930 . S
C1585 C1584 1.377 . S
C1585 C1586 1.379 . S
C1586 H1570 0.931 . S
C1586 C1580 1.383 . S
C1586 C1585 1.379 . S
H1587 C1581 0.959 . S
H1588 C1581 0.961 . S
H1589 C1581 0.960 . S
H1590 C1582 0.930 . S
H1591 C1583 0.929 . S
H1592 C1600 0.929 . S
H1593 C1602 0.930 . S
H1594 C1604 0.930 . S
H1595 C1607 0.929 . S
H1596 C1610 0.930 . S
H1597 C1612 0.960 . S
H1598 C1612 0.960 . S
H1599 C1612 0.960 . S
C1600 H1592 0.929 . S
C1600 C1601 1.377 . S
C1600 C1602 1.384 . S
C1601 C1600 1.377 . S
C1601 C1607 1.390 . S
C1602 H1593 0.930 . S
C1602 C1600 1.384 . S
C1602 C1603 1.372 . S
C1603 C1602 1.372 . S
C1603 C1604 1.400 . S
C1603 C1608 1.490 . S
C1604 H1594 0.930 . S
C1604 C1603 1.400 . S
C1604 C1607 1.386 . S
H1605 C1621 0.930 . S
H1606 C1622 0.931 . S
C1607 H1595 0.929 . S
C1607 C1601 1.390 . S
C1607 C1604 1.386 . S
C1608 C1603 1.490 . S
C1608 C1610 1.395 . S
C1608 C1611 1.403 . S
H1609 C1615 0.930 . S
C1610 H1596 0.930 . S
C1610 C1608 1.395 . S
C1610 C1613 1.403 . S
C1611 C1608 1.403 . S
C1611 C1612 1.524 . S
C1611 C1615 1.400 . S
C1612 H1597 0.960 . S
C1612 H1598 0.960 . S
C1612 H1599 0.960 . S
C1612 C1611 1.524 . S
C1613 C1610 1.403 . S
C1613 C1614 1.392 . S
C1613 C1617 1.495 . S
C1614 C1613 1.392 . S
C1614 C1615 1.385 . S
C1614 C1616 1.478 . S
C1615 H1609 0.930 . S
C1615 C1611 1.400 . S
C1615 C1614 1.385 . S
C1616 C1614 1.478 . S
C1616 C1618 1.381 . S
C1616 C1622 1.383 . S
C1617 C1613 1.495 . S
C1617 H1623 0.959 . S
C1617 H1624 0.961 . S
C1617 H1625 0.960 . S
C1618 C1616 1.381 . S
C1618 C1619 1.394 . S
C1618 H1626 0.930 . S
C1619 C1618 1.394 . S
C1619 C1620 1.383 . S
C1619 H1627 0.929 . S
C1620 C1619 1.383 . S
C1620 C1621 1.377 . S
C1621 H1605 0.930 . S
C1621 C1620 1.377 . S
C1621 C1622 1.379 . S
C1622 H1606 0.931 . S
C1622 C1616 1.383 . S
C1622 C1621 1.379 . S
H1623 C1617 0.959 . S
H1624 C1617 0.961 . S
H1625 C1617 0.960 . S
H1626 C1618 0.930 . S
H1627 C1619 0.929 . S
H1628 C1636 0.929 . S
H1629 C1638 0.930 . S
H1630 C1640 0.930 . S
H1631 C1643 0.929 . S
H1632 C1646 0.930 . S
H1633 C1648 0.960 . S
H1634 C1648 0.960 . S
H1635 C1648 0.960 . S
C1636 H1628 0.929 . S
C1636 C1637 1.377 . S
C1636 C1638 1.384 . S
C1637 C1636 1.377 . S
C1637 C1643 1.390 . S
C1638 H1629 0.930 . S
C1638 C1636 1.384 . S
C1638 C1639 1.372 . S
C1639 C1638 1.372 . S
C1639 C1640 1.400 . S
C1639 C1644 1.490 . S
C1640 H1630 0.930 . S
C1640 C1639 1.400 . S
C1640 C1643 1.386 . S
H1641 C1657 0.930 . S
H1642 C1658 0.931 . S
C1643 H1631 0.929 . S
C1643 C1637 1.390 . S
C1643 C1640 1.386 . S
C1644 C1639 1.490 . S
C1644 C1646 1.395 . S
C1644 C1647 1.403 . S
H1645 C1651 0.930 . S
C1646 H1632 0.930 . S
C1646 C1644 1.395 . S
C1646 C1649 1.403 . S
C1647 C1644 1.403 . S
C1647 C1648 1.524 . S
C1647 C1651 1.400 . S
C1648 H1633 0.960 . S
C1648 H1634 0.960 . S
C1648 H1635 0.960 . S
C1648 C1647 1.524 . S
C1649 C1646 1.403 . S
C1649 C1650 1.392 . S
C1649 C1653 1.495 . S
C1650 C1649 1.392 . S
C1650 C1651 1.385 . S
C1650 C1652 1.478 . S
C1651 H1645 0.930 . S
C1651 C1647 1.400 . S
C1651 C1650 1.385 . S
C1652 C1650 1.478 . S
C1652 C1654 1.381 . S
C1652 C1658 1.383 . S
C1653 C1649 1.495 . S
C1653 H1659 0.959 . S
C1653 H1660 0.961 . S
C1653 H1661 0.960 . S
C1654 C1652 1.381 . S
C1654 C1655 1.394 . S
C1654 H1662 0.930 . S
C1655 C1654 1.394 . S
C1655 C1656 1.383 . S
C1655 H1663 0.929 . S
C1656 C1655 1.383 . S
C1656 C1657 1.377 . S
C1657 H1641 0.930 . S
C1657 C1656 1.377 . S
C1657 C1658 1.379 . S
C1658 H1642 0.931 . S
C1658 C1652 1.383 . S
C1658 C1657 1.379 . S
H1659 C1653 0.959 . S
H1660 C1653 0.961 . S
H1661 C1653 0.960 . S
H1662 C1654 0.930 . S
H1663 C1655 0.929 . S
H1664 C1672 0.929 . S
H1665 C1674 0.930 . S
H1666 C1676 0.930 . S
H1667 C1679 0.929 . S
H1668 C1682 0.930 . S
H1669 C1684 0.960 . S
H1670 C1684 0.960 . S
H1671 C1684 0.960 . S
C1672 H1664 0.929 . S
C1672 C1673 1.377 . S
C1672 C1674 1.384 . S
C1673 C1672 1.377 . S
C1673 C1679 1.390 . S
C1674 H1665 0.930 . S
C1674 C1672 1.384 . S
C1674 C1675 1.372 . S
C1675 C1674 1.372 . S
C1675 C1676 1.400 . S
C1675 C1680 1.490 . S
C1676 H1666 0.930 . S
C1676 C1675 1.400 . S
C1676 C1679 1.386 . S
H1677 C1693 0.930 . S
H1678 C1694 0.931 . S
C1679 H1667 0.929 . S
C1679 C1673 1.390 . S
C1679 C1676 1.386 . S
C1680 C1675 1.490 . S
C1680 C1682 1.395 . S
C1680 C1683 1.403 . S
H1681 C1687 0.930 . S
C1682 H1668 0.930 . S
C1682 C1680 1.395 . S
C1682 C1685 1.403 . S
C1683 C1680 1.403 . S
C1683 C1684 1.524 . S
C1683 C1687 1.400 . S
C1684 H1669 0.960 . S
C1684 H1670 0.960 . S
C1684 H1671 0.960 . S
C1684 C1683 1.524 . S
C1685 C1682 1.403 . S
C1685 C1686 1.392 . S
C1685 C1689 1.495 . S
C1686 C1685 1.392 . S
C1686 C1687 1.385 . S
C1686 C1688 1.478 . S
C1687 H1681 0.930 . S
C1687 C1683 1.400 . S
C1687 C1686 1.385 . S
C1688 C1686 1.478 . S
C1688 C1690 1.381 . S
C1688 C1694 1.383 . S
C1689 C1685 1.495 . S
C1689 H1695 0.959 . S
C1689 H1696 0.961 . S
C1689 H1697 0.960 . S
C1690 C1688 1.381 . S
C1690 C1691 1.394 . S
C1690 H1698 0.930 . S
C1691 C1690 1.394 . S
C1691 C1692 1.383 . S
C1691 H1699 0.929 . S
C1692 C1691 1.383 . S
C1692 C1693 1.377 . S
C1693 H1677 0.930 . S
C1693 C1692 1.377 . S
C1693 C1694 1.379 . S
C1694 H1678 0.931 . S
C1694 C1688 1.383 . S
C1694 C1693 1.379 . S
H1695 C1689 0.959 . S
H1696 C1689 0.961 . S
H1697 C1689 0.960 . S
H1698 C1690 0.930 . S
H1699 C1691 0.929 . S
H1700 C1708 0.929 . S
H1701 C1710 0.930 . S
H1702 C1712 0.930 . S
H1703 C1715 0.929 . S
H1704 C1718 0.930 . S
H1705 C1720 0.960 . S
H1706 C1720 0.960 . S
H1707 C1720 0.960 . S
C1708 H1700 0.929 . S
C1708 C1709 1.377 . S
C1708 C1710 1.384 . S
C1709 C1708 1.377 . S
C1709 C1715 1.390 . S
C1710 H1701 0.930 . S
C1710 C1708 1.384 . S
C1710 C1711 1.372 . S
C1711 C1710 1.372 . S
C1711 C1712 1.400 . S
C1711 C1716 1.490 . S
C1712 H1702 0.930 . S
C1712 C1711 1.400 . S
C1712 C1715 1.386 . S
H1713 C1729 0.930 . S
H1714 C1730 0.931 . S
C1715 H1703 0.929 . S
C1715 C1709 1.390 . S
C1715 C1712 1.386 . S
C1716 C1711 1.490 . S
C1716 C1718 1.395 . S
C1716 C1719 1.403 . S
H1717 C1723 0.930 . S
C1718 H1704 0.930 . S
C1718 C1716 1.395 . S
C1718 C1721 1.403 . S
C1719 C1716 1.403 . S
C1719 C1720 1.524 . S
C1719 C1723 1.400 . S
C1720 H1705 0.960 . S
C1720 H1706 0.960 . S
C1720 H1707 0.960 . S
C1720 C1719 1.524 . S
C1721 C1718 1.403 . S
C1721 C1722 1.392 . S
C1721 C1725 1.495 . S
C1722 C1721 1.392 . S
C1722 C1723 1.385 . S
C1722 C1724 1.478 . S
C1723 H1717 0.930 . S
C1723 C1719 1.400 . S
C1723 C1722 1.385 . S
C1724 C1722 1.478 . S
C1724 C1726 1.381 . S
C1724 C1730 1.383 . S
C1725 C1721 1.495 . S
C1725 H1731 0.959 . S
C1725 H1732 0.961 . S
C1725 H1733 0.960 . S
C1726 C1724 1.381 . S
C1726 C1727 1.394 . S
C1726 H1734 0.930 . S
C1727 C1726 1.394 . S
C1727 C1728 1.383 . S
C1727 H1735 0.929 . S
C1728 C1727 1.383 . S
C1728 C1729 1.377 . S
C1729 H1713 0.930 . S
C1729 C1728 1.377 . S
C1729 C1730 1.379 . S
C1730 H1714 0.931 . S
C1730 C1724 1.383 . S
C1730 C1729 1.379 . S
H1731 C1725 0.959 . S
H1732 C1725 0.961 . S
H1733 C1725 0.960 . S
H1734 C1726 0.930 . S
H1735 C1727 0.929 . S
H1736 C1744 0.929 . S
H1737 C1746 0.930 . S
H1738 C1748 0.930 . S
H1739 C1751 0.929 . S
H1740 C1754 0.930 . S
H1741 C1756 0.960 . S
H1742 C1756 0.960 . S
H1743 C1756 0.960 . S
C1744 H1736 0.929 . S
C1744 C1745 1.377 . S
C1744 C1746 1.384 . S
C1745 C1744 1.377 . S
C1745 C1751 1.390 . S
C1746 H1737 0.930 . S
C1746 C1744 1.384 . S
C1746 C1747 1.372 . S
C1747 C1746 1.372 . S
C1747 C1748 1.400 . S
C1747 C1752 1.490 . S
C1748 H1738 0.930 . S
C1748 C1747 1.400 . S
C1748 C1751 1.386 . S
H1749 C1765 0.930 . S
H1750 C1766 0.931 . S
C1751 H1739 0.929 . S
C1751 C1745 1.390 . S
C1751 C1748 1.386 . S
C1752 C1747 1.490 . S
C1752 C1754 1.395 . S
C1752 C1755 1.403 . S
H1753 C1759 0.930 . S
C1754 H1740 0.930 . S
C1754 C1752 1.395 . S
C1754 C1757 1.403 . S
C1755 C1752 1.403 . S
C1755 C1756 1.524 . S
C1755 C1759 1.400 . S
C1756 H1741 0.960 . S
C1756 H1742 0.960 . S
C1756 H1743 0.960 . S
C1756 C1755 1.524 . S
C1757 C1754 1.403 . S
C1757 C1758 1.392 . S
C1757 C1761 1.495 . S
C1758 C1757 1.392 . S
C1758 C1759 1.385 . S
C1758 C1760 1.478 . S
C1759 H1753 0.930 . S
C1759 C1755 1.400 . S
C1759 C1758 1.385 . S
C1760 C1758 1.478 . S
C1760 C1762 1.381 . S
C1760 C1766 1.383 . S
C1761 C1757 1.495 . S
C1761 H1767 0.959 . S
C1761 H1768 0.961 . S
C1761 H1769 0.960 . S
C1762 C1760 1.381 . S
C1762 C1763 1.394 . S
C1762 H1770 0.930 . S
C1763 C1762 1.394 . S
C1763 C1764 1.383 . S
C1763 H1771 0.929 . S
C1764 C1763 1.383 . S
C1764 C1765 1.377 . S
C1765 H1749 0.930 . S
C1765 C1764 1.377 . S
C1765 C1766 1.379 . S
C1766 H1750 0.931 . S
C1766 C1760 1.383 . S
C1766 C1765 1.379 . S
H1767 C1761 0.959 . S
H1768 C1761 0.961 . S
H1769 C1761 0.960 . S
H1770 C1762 0.930 . S
H1771 C1763 0.929 . S
H1772 C1780 0.929 . S
H1773 C1782 0.930 . S
H1774 C1784 0.930 . S
H1775 C1787 0.929 . S
H1776 C1790 0.930 . S
H1777 C1792 0.960 . S
H1778 C1792 0.960 . S
H1779 C1792 0.960 . S
C1780 H1772 0.929 . S
C1780 C1781 1.377 . S
C1780 C1782 1.384 . S
C1781 C1780 1.377 . S
C1781 C1787 1.390 . S
C1782 H1773 0.930 . S
C1782 C1780 1.384 . S
C1782 C1783 1.372 . S
C1783 C1782 1.372 . S
C1783 C1784 1.400 . S
C1783 C1788 1.490 . S
C1784 H1774 0.930 . S
C1784 C1783 1.400 . S
C1784 C1787 1.386 . S
H1785 C1801 0.930 . S
H1786 C1802 0.931 . S
C1787 H1775 0.929 . S
C1787 C1781 1.390 . S
C1787 C1784 1.386 . S
C1788 C1783 1.490 . S
C1788 C1790 1.395 . S
C1788 C1791 1.403 . S
H1789 C1795 0.930 . S
C1790 H1776 0.930 . S
C1790 C1788 1.395 . S
C1790 C1793 1.403 . S
C1791 C1788 1.403 . S
C1791 C1792 1.524 . S
C1791 C1795 1.400 . S
C1792 H1777 0.960 . S
C1792 H1778 0.960 . S
C1792 H1779 0.960 . S
C1792 C1791 1.524 . S
C1793 C1790 1.403 . S
C1793 C1794 1.392 . S
C1793 C1797 1.495 . S
C1794 C1793 1.392 . S
C1794 C1795 1.385 . S
C1794 C1796 1.478 . S
C1795 H1789 0.930 . S
C1795 C1791 1.400 . S
C1795 C1794 1.385 . S
C1796 C1794 1.478 . S
C1796 C1798 1.381 . S
C1796 C1802 1.383 . S
C1797 C1793 1.495 . S
C1797 H1803 0.959 . S
C1797 H1804 0.961 . S
C1797 H1805 0.960 . S
C1798 C1796 1.381 . S
C1798 C1799 1.394 . S
C1798 H1806 0.930 . S
C1799 C1798 1.394 . S
C1799 C1800 1.383 . S
C1799 H1807 0.929 . S
C1800 C1799 1.383 . S
C1800 C1801 1.377 . S
C1801 H1785 0.930 . S
C1801 C1800 1.377 . S
C1801 C1802 1.379 . S
C1802 H1786 0.931 . S
C1802 C1796 1.383 . S
C1802 C1801 1.379 . S
H1803 C1797 0.959 . S
H1804 C1797 0.961 . S
H1805 C1797 0.960 . S
H1806 C1798 0.930 . S
H1807 C1799 0.929 . S
H1808 C1816 0.929 . S
H1809 C1818 0.930 . S
H1810 C1820 0.930 . S
H1811 C1823 0.929 . S
H1812 C1826 0.930 . S
H1813 C1828 0.960 . S
H1814 C1828 0.960 . S
H1815 C1828 0.960 . S
C1816 H1808 0.929 . S
C1816 C1817 1.377 . S
C1816 C1818 1.384 . S
C1817 C1816 1.377 . S
C1817 C1823 1.390 . S
C1818 H1809 0.930 . S
C1818 C1816 1.384 . S
C1818 C1819 1.372 . S
C1819 C1818 1.372 . S
C1819 C1820 1.400 . S
C1819 C1824 1.490 . S
C1820 H1810 0.930 . S
C1820 C1819 1.400 . S
C1820 C1823 1.386 . S
H1821 C1837 0.930 . S
H1822 C1838 0.931 . S
C1823 H1811 0.929 . S
C1823 C1817 1.390 . S
C1823 C1820 1.386 . S
C1824 C1819 1.490 . S
C1824 C1826 1.395 . S
C1824 C1827 1.403 . S
H1825 C1831 0.930 . S
C1826 H1812 0.930 . S
C1826 C1824 1.395 . S
C1826 C1829 1.403 . S
C1827 C1824 1.403 . S
C1827 C1828 1.524 . S
C1827 C1831 1.400 . S
C1828 H1813 0.960 . S
C1828 H1814 0.960 . S
C1828 H1815 0.960 . S
C1828 C1827 1.524 . S
C1829 C1826 1.403 . S
C1829 C1830 1.392 . S
C1829 C1833 1.495 . S
C1830 C1829 1.392 . S
C1830 C1831 1.385 . S
C1830 C1832 1.478 . S
C1831 H1825 0.930 . S
C1831 C1827 1.400 . S
C1831 C1830 1.385 . S
C1832 C1830 1.478 . S
C1832 C1834 1.381 . S
C1832 C1838 1.383 . S
C1833 C1829 1.495 . S
C1833 H1839 0.959 . S
C1833 H1840 0.961 . S
C1833 H1841 0.960 . S
C1834 C1832 1.381 . S
C1834 C1835 1.394 . S
C1834 H1842 0.930 . S
C1835 C1834 1.394 . S
C1835 C1836 1.383 . S
C1835 H1843 0.929 . S
C1836 C1835 1.383 . S
C1836 C1837 1.377 . S
C1837 H1821 0.930 . S
C1837 C1836 1.377 . S
C1837 C1838 1.379 . S
C1838 H1822 0.931 . S
C1838 C1832 1.383 . S
C1838 C1837 1.379 . S
H1839 C1833 0.959 . S
H1840 C1833 0.961 . S
H1841 C1833 0.960 . S
H1842 C1834 0.930 . S
H1843 C1835 0.929 . S
H1844 C1852 0.929 . S
H1845 C1854 0.930 . S
H1846 C1856 0.930 . S
H1847 C1859 0.929 . S
H1848 C1862 0.930 . S
H1849 C1864 0.960 . S
H1850 C1864 0.960 . S
H1851 C1864 0.960 . S
C1852 H1844 0.929 . S
C1852 C1853 1.377 . S
C1852 C1854 1.384 . S
C1853 C1852 1.377 . S
C1853 C1859 1.390 . S
C1854 H1845 0.930 . S
C1854 C1852 1.384 . S
C1854 C1855 1.372 . S
C1855 C1854 1.372 . S
C1855 C1856 1.400 . S
C1855 C1860 1.490 . S
C1856 H1846 0.930 . S
C1856 C1855 1.400 . S
C1856 C1859 1.386 . S
H1857 C1873 0.930 . S
H1858 C1874 0.931 . S
C1859 H1847 0.929 . S
C1859 C1853 1.390 . S
C1859 C1856 1.386 . S
C1860 C1855 1.490 . S
C1860 C1862 1.395 . S
C1860 C1863 1.403 . S
H1861 C1867 0.930 . S
C1862 H1848 0.930 . S
C1862 C1860 1.395 . S
C1862 C1865 1.403 . S
C1863 C1860 1.403 . S
C1863 C1864 1.524 . S
C1863 C1867 1.400 . S
C1864 H1849 0.960 . S
C1864 H1850 0.960 . S
C1864 H1851 0.960 . S
C1864 C1863 1.524 . S
C1865 C1862 1.403 . S
C1865 C1866 1.392 . S
C1865 C1869 1.495 . S
C1866 C1865 1.392 . S
C1866 C1867 1.385 . S
C1866 C1868 1.478 . S
C1867 H1861 0.930 . S
C1867 C1863 1.400 . S
C1867 C1866 1.385 . S
C1868 C1866 1.478 . S
C1868 C1870 1.381 . S
C1868 C1874 1.383 . S
C1869 C1865 1.495 . S
C1869 H1875 0.959 . S
C1869 H1876 0.961 . S
C1869 H1877 0.960 . S
C1870 C1868 1.381 . S
C1870 C1871 1.394 . S
C1870 H1878 0.930 . S
C1871 C1870 1.394 . S
C1871 C1872 1.383 . S
C1871 H1879 0.929 . S
C1872 C1871 1.383 . S
C1872 C1873 1.377 . S
C1873 H1857 0.930 . S
C1873 C1872 1.377 . S
C1873 C1874 1.379 . S
C1874 H1858 0.931 . S
C1874 C1868 1.383 . S
C1874 C1873 1.379 . S
H1875 C1869 0.959 . S
H1876 C1869 0.961 . S
H1877 C1869 0.960 . S
H1878 C1870 0.930 . S
H1879 C1871 0.929 . S
H1880 C1888 0.929 . S
H1881 C1890 0.930 . S
H1882 C1892 0.930 . S
H1883 C1895 0.929 . S
H1884 C1898 0.930 . S
H1885 C1900 0.960 . S
H1886 C1900 0.960 . S
H1887 C1900 0.960 . S
C1888 H1880 0.929 . S
C1888 C1889 1.377 . S
C1888 C1890 1.384 . S
C1889 C1888 1.377 . S
C1889 C1895 1.390 . S
C1890 H1881 0.930 . S
C1890 C1888 1.384 . S
C1890 C1891 1.372 . S
C1891 C1890 1.372 . S
C1891 C1892 1.400 . S
C1891 C1896 1.490 . S
C1892 H1882 0.930 . S
C1892 C1891 1.400 . S
C1892 C1895 1.386 . S
H1893 C1909 0.930 . S
H1894 C1910 0.931 . S
C1895 H1883 0.929 . S
C1895 C1889 1.390 . S
C1895 C1892 1.386 . S
C1896 C1891 1.490 . S
C1896 C1898 1.395 . S
C1896 C1899 1.403 . S
H1897 C1903 0.930 . S
C1898 H1884 0.930 . S
C1898 C1896 1.395 . S
C1898 C1901 1.403 . S
C1899 C1896 1.403 . S
C1899 C1900 1.524 . S
C1899 C1903 1.400 . S
C1900 H1885 0.960 . S
C1900 H1886 0.960 . S
C1900 H1887 0.960 . S
C1900 C1899 1.524 . S
C1901 C1898 1.403 . S
C1901 C1902 1.392 . S
C1901 C1905 1.495 . S
C1902 C1901 1.392 . S
C1902 C1903 1.385 . S
C1902 C1904 1.478 . S
C1903 H1897 0.930 . S
C1903 C1899 1.400 . S
C1903 C1902 1.385 . S
C1904 C1902 1.478 . S
C1904 C1906 1.381 . S
C1904 C1910 1.383 . S
C1905 C1901 1.495 . S
C1905 H1911 0.959 . S
C1905 H1912 0.961 . S
C1905 H1913 0.960 . S
C1906 C1904 1.381 . S
C1906 C1907 1.394 . S
C1906 H1914 0.930 . S
C1907 C1906 1.394 . S
C1907 C1908 1.383 . S
C1907 H1915 0.929 . S
C1908 C1907 1.383 . S
C1908 C1909 1.377 . S
C1909 H1893 0.930 . S
C1909 C1908 1.377 . S
C1909 C1910 1.379 . S
C1910 H1894 0.931 . S
C1910 C1904 1.383 . S
C1910 C1909 1.379 . S
H1911 C1905 0.959 . S
H1912 C1905 0.961 . S
H1913 C1905 0.960 . S
H1914 C1906 0.930 . S
H1915 C1907 0.929 . S
H1916 C1924 0.929 . S
H1917 C1926 0.930 . S
H1918 C1928 0.930 . S
H1919 C1931 0.929 . S
H1920 C1934 0.930 . S
H1921 C1936 0.960 . S
H1922 C1936 0.960 . S
H1923 C1936 0.960 . S
C1924 H1916 0.929 . S
C1924 C1925 1.377 . S
C1924 C1926 1.384 . S
C1925 C1924 1.377 . S
C1925 C1931 1.390 . S
C1926 H1917 0.930 . S
C1926 C1924 1.384 . S
C1926 C1927 1.372 . S
C1927 C1926 1.372 . S
C1927 C1928 1.400 . S
C1927 C1932 1.490 . S
C1928 H1918 0.930 . S
C1928 C1927 1.400 . S
C1928 C1931 1.386 . S
H1929 C1945 0.930 . S
H1930 C1946 0.931 . S
C1931 H1919 0.929 . S
C1931 C1925 1.390 . S
C1931 C1928 1.386 . S
C1932 C1927 1.490 . S
C1932 C1934 1.395 . S
C1932 C1935 1.403 . S
H1933 C1939 0.930 . S
C1934 H1920 0.930 . S
C1934 C1932 1.395 . S
C1934 C1937 1.403 . S
C1935 C1932 1.403 . S
C1935 C1936 1.524 . S
C1935 C1939 1.400 . S
C1936 H1921 0.960 . S
C1936 H1922 0.960 . S
C1936 H1923 0.960 . S
C1936 C1935 1.524 . S
C1937 C1934 1.403 . S
C1937 C1938 1.392 . S
C1937 C1941 1.495 . S
C1938 C1937 1.392 . S
C1938 C1939 1.385 . S
C1938 C1940 1.478 . S
C1939 H1933 0.930 . S
C1939 C1935 1.400 . S
C1939 C1938 1.385 . S
C1940 C1938 1.478 . S
C1940 C1942 1.381 . S
C1940 C1946 1.383 . S
C1941 C1937 1.495 . S
C1941 H1947 0.959 . S
C1941 H1948 0.961 . S
C1941 H1949 0.960 . S
C1942 C1940 1.381 . S
C1942 C1943 1.394 . S
C1942 H1950 0.930 . S
C1943 C1942 1.394 . S
C1943 C1944 1.383 . S
C1943 H1951 0.929 . S
C1944 C1943 1.383 . S
C1944 C1945 1.377 . S
C1945 H1929 0.930 . S
C1945 C1944 1.377 . S
C1945 C1946 1.379 . S
C1946 H1930 0.931 . S
C1946 C1940 1.383 . S
C1946 C1945 1.379 . S
H1947 C1941 0.959 . S
H1948 C1941 0.961 . S
H1949 C1941 0.960 . S
H1950 C1942 0.930 . S
H1951 C1943 0.929 . S
H1952 C1960 0.929 . S
H1953 C1962 0.930 . S
H1954 C1964 0.930 . S
H1955 C1967 0.929 . S
H1956 C1970 0.930 . S
H1957 C1972 0.960 . S
H1958 C1972 0.960 . S
H1959 C1972 0.960 . S
C1960 H1952 0.929 . S
C1960 C1961 1.377 . S
C1960 C1962 1.384 . S
C1961 C1960 1.377 . S
C1961 C1967 1.390 . S
C1962 H1953 0.930 . S
C1962 C1960 1.384 . S
C1962 C1963 1.372 . S
C1963 C1962 1.372 . S
C1963 C1964 1.400 . S
C1963 C1968 1.490 . S
C1964 H1954 0.930 . S
C1964 C1963 1.400 . S
C1964 C1967 1.386 . S
H1965 C1981 0.930 . S
H1966 C1982 0.931 . S
C1967 H1955 0.929 . S
C1967 C1961 1.390 . S
C1967 C1964 1.386 . S
C1968 C1963 1.490 . S
C1968 C1970 1.395 . S
C1968 C1971 1.403 . S
H1969 C1975 0.930 . S
C1970 H1956 0.930 . S
C1970 C1968 1.395 . S
C1970 C1973 1.403 . S
C1971 C1968 1.403 . S
C1971 C1972 1.524 . S
C1971 C1975 1.400 . S
C1972 H1957 0.960 . S
C1972 H1958 0.960 . S
C1972 H1959 0.960 . S
C1972 C1971 1.524 . S
C1973 C1970 1.403 . S
C1973 C1974 1.392 . S
C1973 C1977 1.495 . S
C1974 C1973 1.392 . S
C1974 C1975 1.385 . S
C1974 C1976 1.478 . S
C1975 H1969 0.930 . S
C1975 C1971 1.400 . S
C1975 C1974 1.385 . S
C1976 C1974 1.478 . S
C1976 C1978 1.381 . S
C1976 C1982 1.383 . S
C1977 C1973 1.495 . S
C1977 H1983 0.959 . S
C1977 H1984 0.961 . S
C1977 H1985 0.960 . S
C1978 C1976 1.381 . S
C1978 C1979 1.394 . S
C1978 H1986 0.930 . S
C1979 C1978 1.394 . S
C1979 C1980 1.383 . S
C1979 H1987 0.929 . S
C1980 C1979 1.383 . S
C1980 C1981 1.377 . S
C1981 H1965 0.930 . S
C1981 C1980 1.377 . S
C1981 C1982 1.379 . S
C1982 H1966 0.931 . S
C1982 C1976 1.383 . S
C1982 C1981 1.379 . S
H1983 C1977 0.959 . S
H1984 C1977 0.961 . S
H1985 C1977 0.960 . S
H1986 C1978 0.930 . S
H1987 C1979 0.929 . S
H1988 C1996 0.929 . S
H1989 C1998 0.930 . S
H1990 C2000 0.930 . S
H1991 C2003 0.929 . S
H1992 C2006 0.930 . S
H1993 C2008 0.960 . S
H1994 C2008 0.960 . S
H1995 C2008 0.960 . S
C1996 H1988 0.929 . S
C1996 C1997 1.377 . S
C1996 C1998 1.384 . S
C1997 C1996 1.377 . S
C1997 C2003 1.390 . S
C1998 H1989 0.930 . S
C1998 C1996 1.384 . S
C1998 C1999 1.372 . S
C1999 C1998 1.372 . S
C1999 C2000 1.400 . S
C1999 C2004 1.490 . S
C2000 H1990 0.930 . S
C2000 C1999 1.400 . S
C2000 C2003 1.386 . S
H2001 C2017 0.930 . S
H2002 C2018 0.931 . S
C2003 H1991 0.929 . S
C2003 C1997 1.390 . S
C2003 C2000 1.386 . S
C2004 C1999 1.490 . S
C2004 C2006 1.395 . S
C2004 C2007 1.403 . S
H2005 C2011 0.930 . S
C2006 H1992 0.930 . S
C2006 C2004 1.395 . S
C2006 C2009 1.403 . S
C2007 C2004 1.403 . S
C2007 C2008 1.524 . S
C2007 C2011 1.400 . S
C2008 H1993 0.960 . S
C2008 H1994 0.960 . S
C2008 H1995 0.960 . S
C2008 C2007 1.524 . S
C2009 C2006 1.403 . S
C2009 C2010 1.392 . S
C2009 C2013 1.495 . S
C2010 C2009 1.392 . S
C2010 C2011 1.385 . S
C2010 C2012 1.478 . S
C2011 H2005 0.930 . S
C2011 C2007 1.400 . S
C2011 C2010 1.385 . S
C2012 C2010 1.478 . S
C2012 C2014 1.381 . S
C2012 C2018 1.383 . S
C2013 C2009 1.495 . S
C2013 H2019 0.959 . S
C2013 H2020 0.961 . S
C2013 H2021 0.960 . S
C2014 C2012 1.381 . S
C2014 C2015 1.394 . S
C2014 H2022 0.930 . S
C2015 C2014 1.394 . S
C2015 C2016 1.383 . S
C2015 H2023 0.929 . S
C2016 C2015 1.383 . S
C2016 C2017 1.377 . S
C2017 H2001 0.930 . S
C2017 C2016 1.377 . S
C2017 C2018 1.379 . S
C2018 H2002 0.931 . S
C2018 C2012 1.383 . S
C2018 C2017 1.379 . S
H2019 C2013 0.959 . S
H2020 C2013 0.961 . S
H2021 C2013 0.960 . S
H2022 C2014 0.930 . S
H2023 C2015 0.929 . S
H2024 C2032 0.929 . S
H2025 C2034 0.930 . S
H2026 C2036 0.930 . S
H2027 C2039 0.929 . S
H2028 C2042 0.930 . S
H2029 C2044 0.960 . S
H2030 C2044 0.960 . S
H2031 C2044 0.960 . S
C2032 H2024 0.929 . S
C2032 C2033 1.377 . S
C2032 C2034 1.384 . S
C2033 C2032 1.377 . S
C2033 C2039 1.390 . S
C2034 H2025 0.930 . S
C2034 C2032 1.384 . S
C2034 C2035 1.372 . S
C2035 C2034 1.372 . S
C2035 C2036 1.400 . S
C2035 C2040 1.490 . S
C2036 H2026 0.930 . S
C2036 C2035 1.400 . S
C2036 C2039 1.386 . S
H2037 C2053 0.930 . S
H2038 C2054 0.931 . S
C2039 H2027 0.929 . S
C2039 C2033 1.390 . S
C2039 C2036 1.386 . S
C2040 C2035 1.490 . S
C2040 C2042 1.395 . S
C2040 C2043 1.403 . S
H2041 C2047 0.930 . S
C2042 H2028 0.930 . S
C2042 C2040 1.395 . S
C2042 C2045 1.403 . S
C2043 C2040 1.403 . S
C2043 C2044 1.524 . S
C2043 C2047 1.400 . S
C2044 H2029 0.960 . S
C2044 H2030 0.960 . S
C2044 H2031 0.960 . S
C2044 C2043 1.524 . S
C2045 C2042 1.403 . S
C2045 C2046 1.392 . S
C2045 C2049 1.495 . S
C2046 C2045 1.392 . S
C2046 C2047 1.385 . S
C2046 C2048 1.478 . S
C2047 H2041 0.930 . S
C2047 C2043 1.400 . S
C2047 C2046 1.385 . S
C2048 C2046 1.478 . S
C2048 C2050 1.381 . S
C2048 C2054 1.383 . S
C2049 C2045 1.495 . S
C2049 H2055 0.959 . S
C2049 H2056 0.961 . S
C2049 H2057 0.960 . S
C2050 C2048 1.381 . S
C2050 C2051 1.394 . S
C2050 H2058 0.930 . S
C2051 C2050 1.394 . S
C2051 C2052 1.383 . S
C2051 H2059 0.929 . S
C2052 C2051 1.383 . S
C2052 C2053 1.377 . S
C2053 H2037 0.930 . S
C2053 C2052 1.377 . S
C2053 C2054 1.379 . S
C2054 H2038 0.931 . S
C2054 C2048 1.383 . S
C2054 C2053 1.379 . S
H2055 C2049 0.959 . S
H2056 C2049 0.961 . S
H2057 C2049 0.960 . S
H2058 C2050 0.930 . S
H2059 C2051 0.929 . S
H2060 C2068 0.929 . S
H2061 C2070 0.930 . S
H2062 C2072 0.930 . S
H2063 C2075 0.929 . S
H2064 C2078 0.930 . S
H2065 C2080 0.960 . S
H2066 C2080 0.960 . S
H2067 C2080 0.960 . S
C2068 H2060 0.929 . S
C2068 C2069 1.377 . S
C2068 C2070 1.384 . S
C2069 C2068 1.377 . S
C2069 C2075 1.390 . S
C2070 H2061 0.930 . S
C2070 C2068 1.384 . S
C2070 C2071 1.372 . S
C2071 C2070 1.372 . S
C2071 C2072 1.400 . S
C2071 C2076 1.490 . S
C2072 H2062 0.930 . S
C2072 C2071 1.400 . S
C2072 C2075 1.386 . S
H2073 C2089 0.930 . S
H2074 C2090 0.931 . S
C2075 H2063 0.929 . S
C2075 C2069 1.390 . S
C2075 C2072 1.386 . S
C2076 C2071 1.490 . S
C2076 C2078 1.395 . S
C2076 C2079 1.403 . S
H2077 C2083 0.930 . S
C2078 H2064 0.930 . S
C2078 C2076 1.395 . S
C2078 C2081 1.403 . S
C2079 C2076 1.403 . S
C2079 C2080 1.524 . S
C2079 C2083 1.400 . S
C2080 H2065 0.960 . S
C2080 H2066 0.960 . S
C2080 H2067 0.960 . S
C2080 C2079 1.524 . S
C2081 C2078 1.403 . S
C2081 C2082 1.392 . S
C2081 C2085 1.495 . S
C2082 C2081 1.392 . S
C2082 C2083 1.385 . S
C2082 C2084 1.478 . S
C2083 H2077 0.930 . S
C2083 C2079 1.400 . S
C2083 C2082 1.385 . S
C2084 C2082 1.478 . S
C2084 C2086 1.381 . S
C2084 C2090 1.383 . S
C2085 C2081 1.495 . S
C2085 H2091 0.959 . S
C2085 H2092 0.961 . S
C2085 H2093 0.960 . S
C2086 C2084 1.381 . S
C2086 C2087 1.394 . S
C2086 H2094 0.930 . S
C2087 C2086 1.394 . S
C2087 C2088 1.383 . S
C2087 H2095 0.929 . S
C2088 C2087 1.383 . S
C2088 C2089 1.377 . S
C2089 H2073 0.930 . S
C2089 C2088 1.377 . S
C2089 C2090 1.379 . S
C2090 H2074 0.931 . S
C2090 C2084 1.383 . S
C2090 C2089 1.379 . S
H2091 C2085 0.959 . S
H2092 C2085 0.961 . S
H2093 C2085 0.960 . S
H2094 C2086 0.930 . S
H2095 C2087 0.929 . S
C953 C33 1.695 . S
C972 C741 1.689 . S
C989 C111 1.690 . S
C1008 C347 1.689 . S
C1025 C151 1.695 . S
C1044 C859 1.689 . S
C1061 C465 1.690 . S
C1080 C229 1.692 . S
C1097 C878 1.690 . S
C1116 C170 1.691 . S
C1133 C446 1.696 . S
C1152 C210 1.693 . S
C1169 C760 1.690 . S
C1188 C52 1.692 . S
C1205 C328 1.695 . S
C1224 C92 1.693 . S
C1241 C269 1.695 . S
C1260 C505 1.690 . S
C1277 C387 1.695 . S
C1296 C623 1.689 . S
C1313 C642 1.689 . S
C1332 C406 1.691 . S
C1349 C288 1.688 . S
C1368 C524 1.681 . S
C1385 C819 1.688 . S
C1404 C583 1.680 . S
C1421 C701 1.690 . S
C1440 C937 1.691 . S
C1457 C682 1.696 . S
C1476 C918 1.691 . S
C1493 C564 1.695 . S
C1512 C800 1.689 . S
C1529 C654 1.479 . S
C1548 C5 1.476 . S
C1565 C475 1.477 . S
C1584 C62 1.469 . S
C1601 C123 1.479 . S
C1620 C536 1.475 . S
C1637 C593 1.475 . S
C1656 C180 1.480 . S
C1673 C652 1.477 . S
C1692 C121 1.469 . S
C1709 C182 1.480 . S
C1728 C477 1.477 . S
C1745 C534 1.478 . S
C1764 C3 1.466 . S
C1781 C595 1.479 . S
C1800 C64 1.476 . S
C1817 C241 1.479 . S
C1836 C890 1.477 . S
C1853 C711 1.478 . S
C1872 C298 1.474 . S
C1889 C359 1.480 . S
C1908 C772 1.475 . S
C1925 C416 1.476 . S
C1944 C829 1.466 . S
C1961 C357 1.475 . S
C1980 C888 1.468 . S
C1997 C713 1.480 . S
C2016 C418 1.475 . S
C2033 C770 1.478 . S
C2052 C239 1.477 . S
C2069 C831 1.479 . S
C2088 C300 1.477 . S
