# Generated by pormake.
# Topology wkq, (6)-cn, num edge types: 1
# Building blocks:
#     Node 0, Type 0, BuildingBlock: OJICUG_clean_sbu_0, # of connection points: 6
#     Node 1, Type 0, BuildingBlock: OJICUG_clean_sbu_0, # of connection points: 6
#     Node 2, Type 0, BuildingBlock: OJICUG_clean_sbu_0, # of connection points: 6
#     Node 3, Type 0, BuildingBlock: OJICUG_clean_sbu_0, # of connection points: 6
#     Node 4, Type 0, BuildingBlock: OJICUG_clean_sbu_0, # of connection points: 6
#     Node 5, Type 0, BuildingBlock: OJICUG_clean_sbu_0, # of connection points: 6
#     Node 6, Type 0, BuildingBlock: OJICUG_clean_sbu_0, # of connection points: 6
#     Node 7, Type 0, BuildingBlock: OJICUG_clean_sbu_0, # of connection points: 6
#     Node 8, Type 0, BuildingBlock: OJICUG_clean_sbu_0, # of connection points: 6
#     Node 9, Type 0, BuildingBlock: OJICUG_clean_sbu_0, # of connection points: 6
#     Node 10, Type 0, BuildingBlock: OJICUG_clean_sbu_0, # of connection points: 6
#     Node 11, Type 0, BuildingBlock: OJICUG_clean_sbu_0, # of connection points: 6
#     Edge 12, Type (0, 0), BuildingBlock: KIFKEQ_clean_linker_1, # of connection points: 2
#     Edge 13, Type (0, 0), BuildingBlock: KIFKEQ_clean_linker_1, # of connection points: 2
#     Edge 14, Type (0, 0), BuildingBlock: KIFKEQ_clean_linker_1, # of connection points: 2
#     Edge 15, Type (0, 0), BuildingBlock: KIFKEQ_clean_linker_1, # of connection points: 2
#     Edge 16, Type (0, 0), BuildingBlock: KIFKEQ_clean_linker_1, # of connection points: 2
#     Edge 17, Type (0, 0), BuildingBlock: KIFKEQ_clean_linker_1, # of connection points: 2
#     Edge 18, Type (0, 0), BuildingBlock: KIFKEQ_clean_linker_1, # of connection points: 2
#     Edge 19, Type (0, 0), BuildingBlock: KIFKEQ_clean_linker_1, # of connection points: 2
#     Edge 20, Type (0, 0), BuildingBlock: KIFKEQ_clean_linker_1, # of connection points: 2
#     Edge 21, Type (0, 0), BuildingBlock: KIFKEQ_clean_linker_1, # of connection points: 2
#     Edge 22, Type (0, 0), BuildingBlock: KIFKEQ_clean_linker_1, # of connection points: 2
#     Edge 23, Type (0, 0), BuildingBlock: KIFKEQ_clean_linker_1, # of connection points: 2
#     Edge 24, Type (0, 0), BuildingBlock: KIFKEQ_clean_linker_1, # of connection points: 2
#     Edge 25, Type (0, 0), BuildingBlock: KIFKEQ_clean_linker_1, # of connection points: 2
#     Edge 26, Type (0, 0), BuildingBlock: KIFKEQ_clean_linker_1, # of connection points: 2
#     Edge 27, Type (0, 0), BuildingBlock: KIFKEQ_clean_linker_1, # of connection points: 2
#     Edge 28, Type (0, 0), BuildingBlock: KIFKEQ_clean_linker_1, # of connection points: 2
#     Edge 29, Type (0, 0), BuildingBlock: KIFKEQ_clean_linker_1, # of connection points: 2
#     Edge 30, Type (0, 0), BuildingBlock: KIFKEQ_clean_linker_1, # of connection points: 2
#     Edge 31, Type (0, 0), BuildingBlock: KIFKEQ_clean_linker_1, # of connection points: 2
#     Edge 32, Type (0, 0), BuildingBlock: KIFKEQ_clean_linker_1, # of connection points: 2
#     Edge 33, Type (0, 0), BuildingBlock: KIFKEQ_clean_linker_1, # of connection points: 2
#     Edge 34, Type (0, 0), BuildingBlock: KIFKEQ_clean_linker_1, # of connection points: 2
#     Edge 35, Type (0, 0), BuildingBlock: KIFKEQ_clean_linker_1, # of connection points: 2
#     Edge 36, Type (0, 0), BuildingBlock: KIFKEQ_clean_linker_1, # of connection points: 2
#     Edge 37, Type (0, 0), BuildingBlock: KIFKEQ_clean_linker_1, # of connection points: 2
#     Edge 38, Type (0, 0), BuildingBlock: KIFKEQ_clean_linker_1, # of connection points: 2
#     Edge 39, Type (0, 0), BuildingBlock: KIFKEQ_clean_linker_1, # of connection points: 2
#     Edge 40, Type (0, 0), BuildingBlock: KIFKEQ_clean_linker_1, # of connection points: 2
#     Edge 41, Type (0, 0), BuildingBlock: KIFKEQ_clean_linker_1, # of connection points: 2
#     Edge 42, Type (0, 0), BuildingBlock: KIFKEQ_clean_linker_1, # of connection points: 2
#     Edge 43, Type (0, 0), BuildingBlock: KIFKEQ_clean_linker_1, # of connection points: 2
#     Edge 44, Type (0, 0), BuildingBlock: KIFKEQ_clean_linker_1, # of connection points: 2
#     Edge 45, Type (0, 0), BuildingBlock: KIFKEQ_clean_linker_1, # of connection points: 2
#     Edge 46, Type (0, 0), BuildingBlock: KIFKEQ_clean_linker_1, # of connection points: 2
#     Edge 47, Type (0, 0), BuildingBlock: KIFKEQ_clean_linker_1, # of connection points: 2
# Relax obj value: 0.340
# Max RMSD: 0.275
# Mean RMSD: 0.275
data_MOF--net-wkq--node1-OJICUG_clean_sbu_0--edge1-KIFKEQ_clean_linker_1
_symmetry_space_group_name_H-M    P1
_symmetry_Int_Tables_number       1
_symmetry_cell_setting            triclinic
loop_
_symmetry_equiv_pos_as_xyz
'x, y, z'
_cell_length_a     39.586629
_cell_length_b     39.521319
_cell_length_c     36.001493
_cell_angle_alpha  90.092896
_cell_angle_beta   89.854469
_cell_angle_gamma 120.03441
loop_
_atom_site_label
_atom_site_type_symbol
_atom_site_fract_x
_atom_site_fract_y
_atom_site_fract_z
_atom_type_partial_charge
Sc0 Sc 0.21202 0.43023 0.96818 0.0
Sc1 Sc 0.26675 0.45514 0.05096 0.0
Sc2 Sc 0.20709 0.3564 0.02739 0.0
O3 O 0.22866 0.41392 0.01547 0.0
C4 C 0.1319 0.35497 -0.00691 0.0
C5 C 0.21418 0.49217 0.02669 0.0
C6 C 0.20441 0.39121 0.10593 0.0
C7 C 0.30352 0.49327 0.97289 0.0
C8 C 0.22562 0.36033 0.9408 0.0
C9 C 0.29298 0.39146 0.06039 0.0
O10 O 0.1505 0.38739 0.9759 0.0
O11 O 0.23861 0.48918 0.04711 0.0
O12 O 0.19271 0.36263 0.08356 0.0
O13 O 0.27114 0.47538 0.95565 0.0
O14 O 0.22027 0.34498 0.97282 0.0
O15 O 0.29963 0.42636 0.06205 0.0
O16 O 0.22319 0.39081 0.9343 0.0
O17 O 0.30687 0.48789 0.00719 0.0
O18 O 0.26182 0.3638 0.04659 0.0
O19 O 0.20057 0.47226 -0.00301 0.0
O20 O 0.14892 0.34064 0.01167 0.0
O21 O 0.2301 0.42605 0.09766 0.0
Sc22 Sc 0.86312 0.20472 0.19168 0.0
Sc23 Sc 0.82134 0.25947 0.22396 0.0
Sc24 Sc 0.78922 0.20778 0.13964 0.0
O25 O 0.82457 0.22407 0.1851 0.0
C26 C 0.8734 0.22895 0.10692 0.0
C27 C 0.91164 0.28926 0.22976 0.0
C28 C 0.81423 0.29807 0.14892 0.0
C29 C 0.8272 0.19429 0.27188 0.0
C30 C 0.78987 0.12918 0.15628 0.0
C31 C 0.73122 0.20494 0.20316 0.0
O32 O 0.88727 0.22615 0.13779 0.0
O33 O 0.88331 0.29567 0.23129 0.0
O34 O 0.80159 0.26677 0.13003 0.0
O35 O 0.8422 0.1833 0.24666 0.0
O36 O 0.77218 0.14675 0.14542 0.0
O37 O 0.75899 0.22811 0.22404 0.0
O38 O 0.82373 0.14707 0.1705 0.0
O39 O 0.8191 0.22143 0.2676 0.0
O40 O 0.73697 0.19439 0.1714 0.0
O41 O 0.90829 0.25817 0.21587 0.0
O42 O 0.83811 0.2208 0.10255 0.0
O43 O 0.82315 0.30025 0.18314 0.0
Sc44 Sc 0.59329 0.78982 0.30218 0.0
Sc45 Sc 0.57059 0.82842 0.38026 0.0
Sc46 Sc 0.66794 0.86033 0.35909 0.0
O47 O 0.61052 0.82602 0.34702 0.0
C48 C 0.66751 0.78443 0.32766 0.0
C49 C 0.53381 0.73678 0.36679 0.0
C50 C 0.63556 0.83681 0.43856 0.0
C51 C 0.52946 0.81637 0.30144 0.0
C52 C 0.66448 0.87167 0.27222 0.0
C53 C 0.63371 0.91582 0.38416 0.0
O54 O 0.63353 0.76888 0.3137 0.0
O55 O 0.53987 0.76604 0.38656 0.0
O56 O 0.66086 0.83933 0.41525 0.0
O57 O 0.5501 0.80467 0.2848 0.0
O58 O 0.67867 0.88409 0.30434 0.0
O59 O 0.59811 0.89103 0.37793 0.0
O60 O 0.63496 0.83769 0.26637 0.0
O61 O 0.53322 0.82469 0.33574 0.0
O62 O 0.66082 0.90785 0.37935 0.0
O63 O 0.54976 0.74035 0.33495 0.0
O64 O 0.6839 0.81795 0.34267 0.0
O65 O 0.6035 0.83439 0.42926 0.0
Sc66 Sc 0.82032 0.66063 0.52682 0.0
Sc67 Sc 0.75926 0.56227 0.55119 0.0
Sc68 Sc 0.81294 0.58569 0.46758 0.0
O69 O 0.79747 0.60284 0.51516 0.0
C70 C 0.79955 0.65606 0.44107 0.0
C71 C 0.73445 0.62649 0.56105 0.0
C72 C 0.72155 0.52321 0.47342 0.0
C73 C 0.82362 0.62662 0.60507 0.0
C74 C 0.89393 0.66061 0.48987 0.0
C75 C 0.81102 0.52437 0.52674 0.0
O76 O 0.80471 0.6712 0.4732 0.0
O77 O 0.7261 0.59101 0.56082 0.0
O78 O 0.75348 0.54157 0.45548 0.0
O79 O 0.83714 0.65466 0.58193 0.0
O80 O 0.87475 0.62718 0.47465 0.0
O81 O 0.78784 0.52859 0.54808 0.0
O82 O 0.87777 0.67628 0.5079 0.0
O83 O 0.79582 0.59242 0.59775 0.0
O84 O 0.8233 0.54293 0.49616 0.0
O85 O 0.76679 0.65399 0.54901 0.0
O86 O 0.8026 0.62595 0.43413 0.0
O87 O 0.71892 0.5282 0.50798 0.0
Sc88 Sc 0.23264 0.8095 0.63895 0.0
Sc89 Sc 0.20151 0.75478 0.72187 0.0
Sc90 Sc 0.15909 0.81025 0.69454 0.0
O91 O 0.19768 0.79143 0.68504 0.0
C92 C 0.23306 0.88776 0.66284 0.0
C93 C 0.29145 0.80989 0.7 0.0
C94 C 0.19451 0.81564 0.77454 0.0
C95 C 0.20687 0.71863 0.64465 0.0
C96 C 0.14943 0.79273 0.60774 0.0
C97 C 0.11031 0.72412 0.72767 0.0
O98 O 0.24876 0.87044 0.6465 0.0
O99 O 0.26375 0.7849 0.71989 0.0
O100 O 0.17679 0.82509 0.75108 0.0
O101 O 0.22096 0.75095 0.62721 0.0
O102 O 0.13729 0.79678 0.63918 0.0
O103 O 0.13983 0.71986 0.73133 0.0
O104 O 0.18322 0.79678 0.60277 0.0
O105 O 0.19716 0.71504 0.67876 0.0
O106 O 0.11237 0.75416 0.71256 0.0
O107 O 0.28557 0.82287 0.66972 0.0
O108 O 0.20073 0.86932 0.67992 0.0
O109 O 0.20618 0.79155 0.76776 0.0
Sc110 Sc 0.36156 0.16156 0.85812 0.0
Sc111 Sc 0.4594 0.20126 0.88503 0.0
Sc112 Sc 0.43712 0.23398 0.80271 0.0
O113 O 0.41936 0.19891 0.84861 0.0
C114 C 0.3704 0.15035 0.77202 0.0
C115 C 0.39711 0.1111 0.89213 0.0
C116 C 0.50106 0.20693 0.80772 0.0
C117 C 0.39222 0.19691 0.93789 0.0
C118 C 0.35984 0.23567 0.82431 0.0
C119 C 0.49594 0.29174 0.86409 0.0
O120 O 0.35431 0.13751 0.8034 0.0
O121 O 0.43211 0.1391 0.89293 0.0
O122 O 0.48272 0.2208 0.79031 0.0
O123 O 0.36474 0.18199 0.91419 0.0
O124 O 0.39407 0.25206 0.81064 0.0
O125 O 0.49195 0.26373 0.88431 0.0
O126 O 0.34435 0.20256 0.84014 0.0
O127 O 0.42702 0.20497 0.93103 0.0
O128 O 0.47791 0.2863 0.8334 0.0
O129 O 0.36937 0.11504 0.87941 0.0
O130 O 0.39919 0.18476 0.76694 0.0
O131 O 0.49518 0.1976 0.8419 0.0
Sc132 Sc 0.66553 0.81692 0.78886 0.0
Sc133 Sc 0.5676 0.75646 0.76348 0.0
Sc134 Sc 0.59022 0.81046 0.8468 0.0
O135 O 0.60776 0.79457 0.79977 0.0
C136 C 0.65947 0.79593 0.8746 0.0
C137 C 0.63125 0.73096 0.75451 0.0
C138 C 0.52747 0.719 0.84095 0.0
C139 C 0.63281 0.82114 0.71038 0.0
C140 C 0.66601 0.89108 0.82532 0.0
C141 C 0.53017 0.80907 0.78645 0.0
O142 O 0.67487 0.80068 0.84263 0.0
O143 O 0.59591 0.7228 0.75458 0.0
O144 O 0.5456 0.75104 0.85878 0.0
O145 O 0.66049 0.83442 0.73379 0.0
O146 O 0.63223 0.87225 0.83983 0.0
O147 O 0.5343 0.78542 0.7657 0.0
O148 O 0.68163 0.87449 0.80791 0.0
O149 O 0.59857 0.79318 0.71723 0.0
O150 O 0.54837 0.82147 0.81717 0.0
O151 O 0.65874 0.7633 0.76656 0.0
O152 O 0.62967 0.79962 0.88108 0.0
O153 O 0.53292 0.71621 0.80652 0.0
Sc154 Sc 0.86107 0.66246 0.95687 0.0
Sc155 Sc 0.82835 0.56446 0.93708 0.0
Sc156 Sc 0.79142 0.58885 0.01533 0.0
O157 O 0.82678 0.60517 0.96989 0.0
C158 C 0.87402 0.65973 0.04355 0.0
C159 C 0.91548 0.62736 0.93078 0.0
C160 C 0.81773 0.52471 0.01662 0.0
C161 C 0.83581 0.62873 0.87799 0.0
C162 C 0.78625 0.6632 0.98939 0.0
C163 C 0.73717 0.52862 0.95212 0.0
O164 O 0.88596 0.67369 0.01122 0.0
O165 O 0.8909 0.59185 0.93788 0.0
O166 O 0.80609 0.54555 0.03295 0.0
O167 O 0.839 0.65458 0.90102 0.0
O168 O 0.77075 0.62933 0.00376 0.0
O169 O 0.76595 0.53387 0.93209 0.0
O170 O 0.81949 0.67923 0.97389 0.0
O171 O 0.8333 0.59665 0.88767 0.0
O172 O 0.74134 0.5452 0.98368 0.0
O173 O 0.90774 0.65464 0.93572 0.0
O174 O 0.84 0.63061 0.05003 0.0
O175 O 0.82563 0.52787 0.98221 0.0
Sc176 Sc 0.20545 0.8579 0.12399 0.0
Sc177 Sc 0.26743 0.82376 0.09633 0.0
Sc178 Sc 0.21175 0.78707 0.17787 0.0
O179 O 0.2282 0.82275 0.13291 0.0
C180 C 0.22592 0.86983 0.20941 0.0
C181 C 0.29305 0.91125 0.09241 0.0
C182 C 0.30152 0.81233 0.17256 0.0
C183 C 0.20671 0.83237 0.04382 0.0
C184 C 0.13155 0.78299 0.15856 0.0
C185 C 0.21341 0.73269 0.1117 0.0
O186 O 0.22387 0.88291 0.17775 0.0
O187 O 0.30376 0.88629 0.09809 0.0
O188 O 0.27078 0.80245 0.19144 0.0
O189 O 0.18597 0.83514 0.06926 0.0
O190 O 0.15014 0.76625 0.1692 0.0
O191 O 0.23436 0.76138 0.09039 0.0
O192 O 0.14845 0.81716 0.14497 0.0
O193 O 0.23721 0.83032 0.05008 0.0
O194 O 0.20409 0.73715 0.14469 0.0
O195 O 0.25853 0.90396 0.09947 0.0
O196 O 0.21984 0.83514 0.21458 0.0
O197 O 0.30362 0.81916 0.13796 0.0
Sc198 Sc 0.35833 0.20029 0.2897 0.0
Sc199 Sc 0.4565 0.26083 0.26471 0.0
Sc200 Sc 0.43334 0.20669 0.3478 0.0
O201 O 0.41605 0.22262 0.30077 0.0
C202 C 0.36431 0.22138 0.37567 0.0
C203 C 0.39294 0.28644 0.25567 0.0
C204 C 0.49646 0.29806 0.34221 0.0
C205 C 0.3915 0.19692 0.21088 0.0
C206 C 0.35769 0.12609 0.32606 0.0
C207 C 0.49331 0.20775 0.28756 0.0
O208 O 0.34872 0.21632 0.34379 0.0
O209 O 0.42831 0.29462 0.25595 0.0
O210 O 0.47818 0.26597 0.35992 0.0
O211 O 0.36355 0.18329 0.23416 0.0
O212 O 0.39122 0.14503 0.34091 0.0
O213 O 0.48956 0.23158 0.26682 0.0
O214 O 0.34219 0.14254 0.30835 0.0
O215 O 0.42572 0.22456 0.21825 0.0
O216 O 0.4749 0.19538 0.3182 0.0
O217 O 0.36534 0.2541 0.26766 0.0
O218 O 0.39412 0.2178 0.38198 0.0
O219 O 0.49111 0.30095 0.30783 0.0
Sc220 Sc 0.17017 0.35827 0.45714 0.0
Sc221 Sc 0.20715 0.45662 0.43336 0.0
Sc222 Sc 0.23827 0.43297 0.51604 0.0
O223 O 0.20519 0.41598 0.4689 0.0
C224 C 0.15458 0.36263 0.54307 0.0
C225 C 0.11827 0.39249 0.42362 0.0
C226 C 0.20922 0.49537 0.51153 0.0
C227 C 0.20702 0.39247 0.37891 0.0
C228 C 0.24372 0.35784 0.49328 0.0
C229 C 0.29703 0.49452 0.45644 0.0
O230 O 0.1441 0.34782 0.51089 0.0
O231 O 0.14512 0.42805 0.42452 0.0
O232 O 0.22289 0.47693 0.52903 0.0
O233 O 0.19304 0.36434 0.40195 0.0
O234 O 0.25856 0.3915 0.50812 0.0
O235 O 0.2694 0.49018 0.43552 0.0
O236 O 0.21163 0.3423 0.47585 0.0
O237 O 0.21292 0.42645 0.3865 0.0
O238 O 0.29113 0.47605 0.48702 0.0
O239 O 0.12338 0.36498 0.43502 0.0
O240 O 0.18797 0.39243 0.54986 0.0
O241 O 0.20142 0.49059 0.47703 0.0
Sc242 Sc 0.81942 0.15904 0.62101 0.0
Sc243 Sc 0.75623 0.1925 0.59638 0.0
Sc244 Sc 0.81391 0.22948 0.6765 0.0
O245 O 0.79659 0.19388 0.63146 0.0
C246 C 0.80038 0.14669 0.70689 0.0
C247 C 0.73103 0.10543 0.59174 0.0
C248 C 0.72405 0.20402 0.6741 0.0
C249 C 0.81549 0.18371 0.54123 0.0
C250 C 0.89387 0.23407 0.65471 0.0
C251 C 0.81077 0.28359 0.6111 0.0
O252 O 0.80222 0.13385 0.67496 0.0
O253 O 0.72022 0.13006 0.59894 0.0
O254 O 0.75531 0.21405 0.69193 0.0
O255 O 0.83738 0.1819 0.56593 0.0
O256 O 0.87526 0.25045 0.66639 0.0
O257 O 0.78921 0.25483 0.59012 0.0
O258 O 0.87694 0.20001 0.6408 0.0
O259 O 0.78498 0.18546 0.54873 0.0
O260 O 0.82081 0.27928 0.64376 0.0
O261 O 0.76584 0.11294 0.59737 0.0
O262 O 0.80645 0.18133 0.71251 0.0
O263 O 0.72105 0.19724 0.63944 0.0
H264 H 0.21919 0.52128 0.09613 0.0
H265 H 0.18326 0.52873 0.9847 0.0
H266 H 0.20997 0.57476 0.11542 0.0
H267 H 0.17296 0.58236 0.00445 0.0
H268 H 0.22411 0.71225 0.04185 0.0
H269 H 0.21499 0.64991 0.02094 0.0
H270 H 0.16708 0.59944 0.1281 0.0
H271 H 0.17731 0.66257 0.1496 0.0
C272 C 0.20871 0.53398 0.07576 0.0
C273 C 0.20256 0.521 0.03863 0.0
C274 C 0.20297 0.56454 0.08703 0.0
C275 C 0.19088 0.58321 0.06156 0.0
C276 C 0.18279 0.569 0.02475 0.0
C277 C 0.18841 0.53808 0.01344 0.0
C278 C 0.21119 0.68785 0.061 0.0
C279 C 0.20208 0.69283 0.09775 0.0
C280 C 0.20559 0.6518 0.04876 0.0
C281 C 0.19062 0.61953 0.07283 0.0
C282 C 0.17934 0.62383 0.10894 0.0
C283 C 0.185 0.66002 0.12126 0.0
H284 H 0.52614 0.172 0.32786 0.0
H285 H 0.52407 0.21548 0.21832 0.0
H286 H 0.57803 0.15952 0.30752 0.0
H287 H 0.57601 0.20421 0.19857 0.0
H288 H 0.66266 0.17116 0.16305 0.0
H289 H 0.5991 0.16035 0.18382 0.0
H290 H 0.64594 0.20065 0.29365 0.0
H291 H 0.70847 0.21017 0.27343 0.0
C292 C 0.53634 0.17845 0.29941 0.0
C293 C 0.52131 0.19535 0.275 0.0
C294 C 0.56622 0.1715 0.28776 0.0
C295 C 0.58154 0.18113 0.25141 0.0
C296 C 0.56485 0.19596 0.22658 0.0
C297 C 0.53522 0.20291 0.23816 0.0
C298 C 0.65908 0.17686 0.19181 0.0
C299 C 0.69094 0.19222 0.21631 0.0
C300 C 0.62272 0.17092 0.2037 0.0
C301 C 0.61742 0.18014 0.24035 0.0
C302 C 0.64863 0.19292 0.26536 0.0
C303 C 0.6848 0.19883 0.25354 0.0
H304 H 0.36367 0.53582 0.4987 0.0
H305 H 0.32124 0.51944 0.38596 0.0
H306 H 0.42649 0.59039 0.47802 0.0
H307 H 0.38292 0.5739 0.36564 0.0
H308 H 0.49976 0.71859 0.43551 0.0
H309 H 0.44799 0.65618 0.45775 0.0
H310 H 0.4515 0.60191 0.35467 0.0
H311 H 0.50308 0.66513 0.33176 0.0
C312 C 0.36792 0.54338 0.4695 0.0
C313 C 0.33722 0.52357 0.44415 0.0
C314 C 0.4038 0.57485 0.45763 0.0
C315 C 0.40979 0.58692 0.42013 0.0
C316 C 0.37975 0.56544 0.3946 0.0
C317 C 0.34407 0.53431 0.40642 0.0
C318 C 0.4899 0.6934 0.41752 0.0
C319 C 0.5054 0.69724 0.38147 0.0
C320 C 0.46032 0.65732 0.43057 0.0
C321 C 0.44525 0.62384 0.40805 0.0
C322 C 0.46197 0.62719 0.37263 0.0
C323 C 0.49171 0.66344 0.35951 0.0
H324 H 0.84099 0.4871 0.48425 0.0
H325 H 0.80679 0.49585 0.59631 0.0
H326 H 0.85118 0.43346 0.50377 0.0
H327 H 0.81584 0.44228 0.61535 0.0
H328 H 0.84778 0.35387 0.6487 0.0
H329 H 0.85838 0.4171 0.62724 0.0
H330 H 0.80889 0.3662 0.52071 0.0
H331 H 0.79942 0.30378 0.54155 0.0
C332 C 0.83617 0.47802 0.51306 0.0
C333 C 0.82253 0.49547 0.53851 0.0
C334 C 0.84174 0.44709 0.52425 0.0
C335 C 0.83406 0.4332 0.56115 0.0
C336 C 0.82251 0.45225 0.58686 0.0
C337 C 0.81686 0.48286 0.57574 0.0
C338 C 0.83981 0.35635 0.6205 0.0
C339 C 0.82218 0.32342 0.59716 0.0
C340 C 0.84569 0.39259 0.60821 0.0
C341 C 0.83409 0.39679 0.57231 0.0
C342 C 0.81855 0.36437 0.54837 0.0
C343 C 0.81273 0.32828 0.56058 0.0
H344 H 0.49534 0.84331 0.82658 0.0
H345 H 0.50087 0.80207 0.71676 0.0
H346 H 0.44313 0.85491 0.8056 0.0
H347 H 0.4486 0.8124 0.69637 0.0
H348 H 0.36058 0.84396 0.66012 0.0
H349 H 0.42408 0.85487 0.68131 0.0
H350 H 0.37588 0.81369 0.79069 0.0
H351 H 0.31357 0.80406 0.77005 0.0
C352 C 0.48583 0.83717 0.79794 0.0
C353 C 0.50197 0.82114 0.77364 0.0
C354 C 0.45573 0.84359 0.7859 0.0
C355 C 0.44124 0.83428 0.74927 0.0
C356 C 0.45904 0.82037 0.72459 0.0
C357 C 0.48888 0.81395 0.73655 0.0
C358 C 0.36388 0.83808 0.68886 0.0
C359 C 0.33172 0.82251 0.71312 0.0
C360 C 0.40019 0.84405 0.70101 0.0
C361 C 0.40516 0.83473 0.73771 0.0
C362 C 0.37355 0.82156 0.76241 0.0
C363 C 0.33748 0.81558 0.75033 0.0
H364 H 0.66677 0.49669 0.98932 0.0
H365 H 0.7173 0.49659 0.88277 0.0
H366 H 0.60322 0.44506 0.96736 0.0
H367 H 0.65454 0.44481 0.86139 0.0
H368 H 0.52276 0.31449 0.93441 0.0
H369 H 0.57661 0.37656 0.95476 0.0
H370 H 0.58784 0.42292 0.84395 0.0
H371 H 0.53395 0.35981 0.82317 0.0
C372 C 0.66432 0.48606 0.96115 0.0
C373 C 0.6974 0.50051 0.9381 0.0
C374 C 0.62791 0.45631 0.94858 0.0
C375 C 0.62372 0.44046 0.91264 0.0
C376 C 0.6564 0.45645 0.88904 0.0
C377 C 0.69265 0.48599 0.90156 0.0
C378 C 0.53631 0.338 0.91434 0.0
C379 C 0.52438 0.33189 0.87693 0.0
C380 C 0.56706 0.37388 0.9262 0.0
C381 C 0.58691 0.4048 0.90101 0.0
C382 C 0.57355 0.39952 0.864 0.0
C383 C 0.54249 0.36346 0.85211 0.0
H384 H 0.35744 0.4399 0.10237 0.0
H385 H 0.28398 0.31881 0.07077 0.0
H386 H 0.38515 0.41975 0.15246 0.0
H387 H 0.31156 0.29913 0.12082 0.0
H388 H 0.32002 0.27475 0.24142 0.0
H389 H 0.30193 0.30376 0.19139 0.0
H390 H 0.42345 0.38298 0.1673 0.0
H391 H 0.44202 0.35384 0.21741 0.0
C392 C 0.34793 0.40914 0.10533 0.0
C393 C 0.31791 0.38096 0.08278 0.0
C394 C 0.36371 0.39767 0.1342 0.0
C395 C 0.34959 0.35786 0.14113 0.0
C396 C 0.32218 0.33 0.11665 0.0
C397 C 0.30671 0.34139 0.08768 0.0
C398 C 0.34306 0.29894 0.22618 0.0
C399 C 0.38254 0.31143 0.23321 0.0
C400 C 0.33262 0.31526 0.1972 0.0
C401 C 0.36132 0.34478 0.17483 0.0
C402 C 0.40077 0.35992 0.1839 0.0
C403 C 0.41132 0.34332 0.21277 0.0
H404 H 0.97545 0.28082 0.24014 0.0
H405 H 0.92749 0.35397 0.2716 0.0
H406 H 0.02319 0.30938 0.28973 0.0
H407 H 0.97587 0.3827 0.32124 0.0
H408 H 0.09997 0.44116 0.38475 0.0
H409 H 0.0517 0.4218 0.33505 0.0
H410 H 1.00915 0.30046 0.36064 0.0
H411 H 0.05672 0.31931 0.4103 0.0
C412 C 0.9756 0.30367 0.25692 0.0
C413 C 0.94704 0.31452 0.25212 0.0
C414 C 1.00277 0.31973 0.28562 0.0
C415 C 1.00241 0.34738 0.30992 0.0
C416 C 0.97645 0.36109 0.3031 0.0
C417 C 0.94889 0.34472 0.27451 0.0
C418 C 0.07962 0.41034 0.38054 0.0
C419 C 0.08276 0.38181 0.40129 0.0
C420 C 0.05214 0.39935 0.3519 0.0
C421 C 0.02758 0.35969 0.34338 0.0
C422 C 0.0285 0.33128 0.36604 0.0
C423 C 0.05556 0.34217 0.39479 0.0
H424 H 0.66506 0.09097 0.5534 0.0
H425 H 0.74241 0.04509 0.57238 0.0
H426 H 0.63798 0.04831 0.49923 0.0
H427 H 0.71545 1.00296 0.5184 0.0
H428 H 0.58357 0.93047 0.42475 0.0
H429 H 0.60167 0.97514 0.47757 0.0
H430 H 0.7233 0.0236 0.44963 0.0
H431 H 0.70554 0.97922 0.39698 0.0
C432 C 0.67547 0.07101 0.54683 0.0
C433 C 0.70636 0.07191 0.56706 0.0
C434 C 0.66015 0.04686 0.51558 0.0
C435 C 0.67556 0.02339 0.50401 0.0
C436 C 0.70388 0.02172 0.5261 0.0
C437 C 0.71897 0.04553 0.55734 0.0
C438 C 0.61412 0.95161 0.42899 0.0
C439 C 0.64316 0.95077 0.40693 0.0
C440 C 0.62443 0.97695 0.45947 0.0
C441 C 0.66387 1.00179 0.46831 0.0
C442 C 0.69266 1.00384 0.44403 0.0
C443 C 0.68243 0.97871 0.4136 0.0
H444 H 0.58273 0.66447 0.71491 0.0
H445 H 0.70414 0.74148 0.7425 0.0
H446 H 0.60233 0.63549 0.66531 0.0
H447 H 0.72327 0.71258 0.69299 0.0
H448 H 0.74502 0.69953 0.57282 0.0
H449 H 0.71652 0.71893 0.62246 0.0
H450 H 0.63978 0.59793 0.65099 0.0
H451 H 0.66838 0.57806 0.60126 0.0
C452 C 0.61348 0.67454 0.71116 0.0
C453 C 0.64187 0.70587 0.7324 0.0
C454 C 0.62463 0.65802 0.68259 0.0
C455 C 0.66429 0.67268 0.67467 0.0
C456 C 0.69247 0.70151 0.69791 0.0
C457 C 0.68142 0.71776 0.72657 0.0
C458 C 0.72148 0.67686 0.58898 0.0
C459 C 0.70956 0.63721 0.58333 0.0
C460 C 0.70545 0.68806 0.61771 0.0
C461 C 0.67683 0.65994 0.64121 0.0
C462 C 0.66216 0.62018 0.6335 0.0
C463 C 0.67845 0.60888 0.60485 0.0
H464 H 0.09526 0.65886 0.76781 0.0
H465 H 0.04587 0.73141 0.73944 0.0
H466 H 0.04919 0.63092 0.8194 0.0
H467 H 1.00021 0.70342 0.79093 0.0
H468 H 0.97692 0.69927 0.91403 0.0
H469 H 0.02022 0.71544 0.8608 0.0
H470 H 0.97443 0.59283 0.83862 0.0
H471 H 0.93039 0.57622 0.89191 0.0
C472 C 0.07389 0.66802 0.77175 0.0
C473 C 0.07495 0.6981 0.74983 0.0
C474 C 0.04763 0.65207 0.80145 0.0
C475 C 0.02213 0.66601 0.80977 0.0
C476 C 0.0204 0.69299 0.78563 0.0
C477 C 0.04632 0.70868 0.75583 0.0
C478 C 0.97661 0.67562 0.89849 0.0
C479 C 0.9497 0.63643 0.90706 0.0
C480 C 1.00111 0.68494 0.8677 0.0
C481 C 0.99967 0.65534 0.84498 0.0
C482 C 0.97568 0.61616 0.85547 0.0
C483 C 0.95079 0.60673 0.88625 0.0
H484 H 0.44553 0.09596 0.93497 0.0
H485 H 0.32498 0.04646 0.90168 0.0
H486 H 0.42528 0.04863 0.98562 0.0
H487 H 0.30516 0.99954 0.95223 0.0
H488 H 0.27998 0.97067 0.07388 0.0
H489 H 0.30842 0.01546 0.02196 0.0
H490 H 0.38949 0.97434 0.00312 0.0
H491 H 0.36081 0.92883 0.05519 0.0
C492 C 0.41489 0.07434 0.93763 0.0
C493 C 0.38683 0.07563 0.91453 0.0
C494 C 0.40335 0.04736 0.96683 0.0
C495 C 0.36361 0.02132 0.97348 0.0
C496 C 0.33596 0.02009 0.9483 0.0
C497 C 0.34742 0.04677 0.91906 0.0
C498 C 0.30441 0.97159 0.05933 0.0
C499 C 0.31768 0.94564 0.06856 0.0
C500 C 0.32039 0.99699 0.02925 0.0
C501 C 0.35033 0.99747 0.00787 0.0
C502 C 0.3661 0.97419 0.01893 0.0
C503 C 0.34983 0.94837 0.04897 0.0
H504 H 0.50519 0.7127 0.91392 0.0
H505 H 0.4818 0.64518 0.81293 0.0
H506 H 0.45296 0.65601 0.94515 0.0
H507 H 0.43003 0.58831 0.84452 0.0
H508 H 0.30887 0.51564 0.90006 0.0
H509 H 0.36501 0.56828 0.86851 0.0
H510 H 0.43387 0.59084 0.968 0.0
H511 H 0.37762 0.5387 -0.00012 0.0
C512 C 0.48924 0.6857 0.89844 0.0
C513 C 0.4976 0.6837 0.86078 0.0
C514 C 0.45941 0.65309 0.91646 0.0
C515 C 0.43723 0.61768 0.89727 0.0
C516 C 0.44621 0.61534 0.85991 0.0
C517 C 0.47606 0.64794 0.84188 0.0
C518 C 0.33602 0.53158 0.91519 0.0
C519 C 0.33852 0.52304 0.95265 0.0
C520 C 0.36831 0.56165 0.897 0.0
C521 C 0.40386 0.58389 0.91581 0.0
C522 C 0.40672 0.57464 0.95291 0.0
C523 C 0.37447 0.54457 0.97111 0.0
H524 H 0.84816 0.47983 -0.00716 0.0
H525 H 0.79531 0.50106 0.08871 0.0
H526 H 0.85032 0.42745 0.02585 0.0
H527 H 0.79686 0.44783 0.12156 0.0
H528 H 0.79956 0.3057 0.07615 0.0
H529 H 0.80276 0.3621 0.04596 0.0
H530 H 0.84041 0.42687 0.1488 0.0
H531 H 0.83653 0.37 0.17947 0.0
C532 C 0.837 0.4734 0.02099 0.0
C533 C 0.8212 0.49451 0.03796 0.0
C534 C 0.8381 0.44318 0.03986 0.0
C535 C 0.82337 0.43317 0.07617 0.0
C536 C 0.80868 0.45501 0.09367 0.0
C537 C 0.80763 0.48539 0.07477 0.0
C538 C 0.80866 0.33193 0.09243 0.0
C539 C 0.81775 0.33317 0.13032 0.0
C540 C 0.81071 0.36441 0.075 0.0
C541 C 0.82196 0.39904 0.09494 0.0
C542 C 0.83129 0.40049 0.13277 0.0
C543 C 0.82928 0.36794 0.15026 0.0
H544 H 0.37281 0.83382 0.14184 0.0
H545 H 0.30891 0.79721 0.24546 0.0
H546 H 0.42933 0.83707 0.17196 0.0
H547 H 0.36532 0.79985 0.27528 0.0
H548 H 0.50391 0.79234 0.23014 0.0
H549 H 0.4496 0.79282 0.19862 0.0
H550 H 0.43139 0.84776 0.29442 0.0
H551 H 0.48493 0.84677 0.32612 0.0
C552 C 0.37073 0.82643 0.17103 0.0
C553 C 0.3362 0.81524 0.19123 0.0
C554 C 0.40311 0.82809 0.1882 0.0
C555 C 0.40179 0.81868 0.22595 0.0
C556 C 0.36742 0.80777 0.24623 0.0
C557 C 0.33501 0.80608 0.22908 0.0
C558 C 0.4885 0.80476 0.24437 0.0
C559 C 0.49862 0.81919 0.28079 0.0
C560 C 0.45746 0.80515 0.22626 0.0
C561 C 0.43598 0.82 0.2442 0.0
C562 C 0.44685 0.83541 0.28015 0.0
C563 C 0.47775 0.83501 0.29822 0.0
H564 H 0.64787 0.47715 0.50151 0.0
H565 H 0.71523 0.50141 0.40031 0.0
H566 H 0.59126 0.42515 0.46997 0.0
H567 H 0.65883 0.44891 0.36915 0.0
H568 H 0.51916 0.30386 0.41492 0.0
H569 H 0.57158 0.36033 0.44615 0.0
H570 H 0.59381 0.42877 0.34623 0.0
H571 H 0.54191 0.37211 0.31462 0.0
C572 C 0.65064 0.47157 0.47252 0.0
C573 C 0.68629 0.49341 0.45356 0.0
C574 C 0.61819 0.44157 0.45451 0.0
C575 C 0.62057 0.4327 0.41711 0.0
C576 C 0.65586 0.45524 0.39786 0.0
C577 C 0.68831 0.48523 0.41584 0.0
C578 C 0.535 0.33098 0.3996 0.0
C579 C 0.52641 0.33324 0.36211 0.0
C580 C 0.56494 0.36347 0.41763 0.0
C581 C 0.587 0.39904 0.39864 0.0
C582 C 0.57776 0.40163 0.36148 0.0
C583 C 0.54783 0.36914 0.34343 0.0
H584 H 0.22561 0.71395 0.57223 0.0
H585 H 0.17875 0.6445 0.67175 0.0
H586 H 0.22245 0.65799 0.54064 0.0
H587 H 0.17495 0.58836 0.63976 0.0
H588 H 0.22466 0.51658 0.58475 0.0
H589 H 0.2206 0.56881 0.61655 0.0
H590 H 0.17688 0.59329 0.51636 0.0
H591 H 0.1816 0.54158 0.48421 0.0
C592 C 0.21428 0.6867 0.58731 0.0
C593 C 0.20269 0.6839 0.62466 0.0
C594 C 0.21224 0.65451 0.56908 0.0
C595 C 0.19853 0.61875 0.58772 0.0
C596 C 0.18615 0.61567 0.62479 0.0
C597 C 0.18816 0.64785 0.64305 0.0
C598 C 0.21392 0.53287 0.5695 0.0
C599 C 0.20376 0.525 0.53178 0.0
C600 C 0.21138 0.5627 0.58784 0.0
C601 C 0.1986 0.58533 0.56892 0.0
C602 C 0.18741 0.57677 0.53154 0.0
C603 C 0.18993 0.54695 0.51318 0.0
H604 H 0.54641 0.17799 0.83436 0.0
H605 H 0.52513 0.22668 0.73562 0.0
H606 H 0.59861 0.17415 0.80223 0.0
H607 H 0.57782 0.22355 0.70391 0.0
H608 H 0.65123 0.18059 0.64648 0.0
H609 H 0.59588 0.17793 0.67872 0.0
H610 H 0.66405 0.21856 0.7793 0.0
H611 H 0.71928 0.22047 0.74734 0.0
C612 C 0.55276 0.18783 0.80581 0.0
C613 C 0.53156 0.20278 0.78766 0.0
C614 C 0.58287 0.18583 0.78748 0.0
C615 C 0.59249 0.19869 0.75057 0.0
C616 C 0.57086 0.21296 0.7322 0.0
C617 C 0.54074 0.21494 0.7505 0.0
C618 C 0.65446 0.18881 0.67552 0.0
C619 C 0.68988 0.20095 0.69423 0.0
C620 C 0.62272 0.18745 0.69395 0.0
C621 C 0.62559 0.19822 0.73152 0.0
C622 C 0.66072 0.20965 0.75045 0.0
C623 C 0.69249 0.21096 0.73204 0.0
H624 H 0.20515 0.28426 0.93415 0.0
H625 H 0.27511 0.39653 0.88166 0.0
H626 H 0.23511 0.25653 0.89541 0.0
H627 H 0.30506 0.36832 0.84163 0.0
H628 H 0.28132 0.20486 0.81986 0.0
H629 H 0.24415 0.23662 0.83617 0.0
H630 H 0.35165 0.34596 0.8513 0.0
H631 H 0.38874 0.3143 0.83321 0.0
C632 C 0.22629 0.30282 0.91352 0.0
C633 C 0.23789 0.34264 0.91115 0.0
C634 C 0.24338 0.28681 0.89097 0.0
C635 C 0.27272 0.31012 0.86529 0.0
C636 C 0.28283 0.34959 0.86134 0.0
C637 C 0.26538 0.36566 0.88395 0.0
C638 C 0.29696 0.23593 0.82567 0.0
C639 C 0.33793 0.25698 0.82572 0.0
C640 C 0.27568 0.25414 0.83527 0.0
C641 C 0.29484 0.29368 0.84604 0.0
C642 C 0.33582 0.31553 0.84308 0.0
C643 C 0.35716 0.29737 0.83279 0.0
H644 H 0.88999 0.19166 0.05221 0.0
H645 H 0.92154 0.30562 0.09481 0.0
H646 H 0.94764 0.22107 0.01175 0.0
H647 H 0.97958 0.33516 0.05557 0.0
H648 H 0.08255 0.38415 0.98103 0.0
H649 H 1.01308 0.35238 -0.00328 0.0
H650 H 0.01475 0.24743 0.02688 0.0
H651 H 0.08317 0.27855 0.01046 0.0
C652 C 0.90868 0.22314 0.05194 0.0
C653 C 0.9014 0.24654 0.07617 0.0
C654 C 0.9419 0.24001 0.02914 0.0
C655 C 0.96865 0.28053 0.03063 0.0
C656 C 0.95958 0.30403 0.05318 0.0
C657 C 0.92637 0.28716 0.07579 0.0
C658 C 0.06773 0.35393 0.98999 0.0
C659 C 0.08859 0.33411 -0.00503 0.0
C660 C 0.02797 0.3358 -0.00071 0.0
C661 C 1.00825 0.29741 0.01352 0.0
C662 C 0.0286 0.2768 0.01573 0.0
C663 C 0.06814 0.29487 0.00661 0.0
H664 H 0.74082 0.92503 0.26415 0.0
H665 H 0.62884 0.88375 0.21215 0.0
H666 H 0.76928 0.98219 0.22472 0.0
H667 H 0.65771 0.9413 0.17136 0.0
H668 H 0.71142 0.07873 0.16412 0.0
H669 H 0.67999 0.00979 0.18107 0.0
H670 H 0.78968 0.01244 0.16643 0.0
H671 H 0.82129 0.08171 0.15125 0.0
C672 C 0.72253 0.92765 0.24334 0.0
C673 C 0.68256 0.90003 0.24143 0.0
C674 C 0.73894 0.96046 0.22041 0.0
C675 C 0.71584 0.96676 0.19482 0.0
C676 C 0.67629 0.93767 0.19105 0.0
C677 C 0.65981 0.90445 0.21405 0.0
C678 C 0.72855 0.06428 0.16355 0.0
C679 C 0.76898 0.08582 0.15699 0.0
C680 C 0.71048 0.02461 0.17318 0.0
C681 C 0.73241 1.00556 0.17597 0.0
C682 C 0.77206 0.02633 0.16566 0.0
C683 C 0.79019 0.06603 0.15671 0.0
H684 H 0.63684 0.70573 0.33854 0.0
H685 H 0.74555 0.81318 0.32193 0.0
H686 H 0.6729 0.67279 0.35593 0.0
H687 H 0.78159 0.78015 0.33748 0.0
H688 H 0.82167 0.73237 0.43392 0.0
H689 H 0.79161 0.7607 0.39638 0.0
H690 H 0.7179 0.64852 0.34464 0.0
H691 H 0.74804 0.61973 0.38348 0.0
C692 C 0.66843 0.72192 0.33735 0.0
C693 C 0.68841 0.76216 0.32951 0.0
C694 C 0.68916 0.70304 0.3472 0.0
C695 C 0.73025 0.72399 0.34891 0.0
C696 C 0.75001 0.76333 0.33753 0.0
C697 C 0.72937 0.78227 0.3284 0.0
C698 C 0.79968 0.71386 0.41393 0.0
C699 C 0.78713 0.6738 0.41178 0.0
C700 C 0.7825 0.73018 0.3921 0.0
C701 C 0.75212 0.70696 0.36739 0.0
C702 C 0.74097 0.66719 0.36362 0.0
C703 C 0.75852 0.65078 0.3855 0.0
H704 H 0.13683 0.74097 0.55085 0.0
H705 H 0.09679 0.81589 0.59619 0.0
H706 H 0.07985 0.71093 0.50947 0.0
H707 H 0.04031 0.78599 0.55617 0.0
H708 H 0.94336 0.73834 0.48101 0.0
H709 H 1.01245 0.77478 0.49663 0.0
H710 H 1.01041 0.66629 0.51864 0.0
H711 H 0.94155 0.62988 0.50097 0.0
C712 C 0.11652 0.7518 0.55116 0.0
C713 C 0.12114 0.78068 0.5768 0.0
C714 C 0.08366 0.73432 0.52782 0.0
C715 C 0.05521 0.7458 0.52948 0.0
C716 C 0.06162 0.7766 0.55346 0.0
C717 C 0.09402 0.79369 0.57674 0.0
C718 C 0.95807 0.7223 0.48803 0.0
C719 C 0.93708 0.68135 0.49015 0.0
C720 C 0.99761 0.74316 0.49728 0.0
C721 C 0.0169 0.72361 0.50994 0.0
C722 C 0.99668 0.68242 0.50894 0.0
C723 C 0.95714 0.66147 0.49888 0.0
H724 H 0.30593 0.12653 0.72922 0.0
H725 H 0.40298 0.10832 0.74855 0.0
H726 H 0.27486 0.06788 0.69046 0.0
H727 H 0.37137 0.04849 0.71178 0.0
H728 H 0.3092 0.94053 0.64305 0.0
H729 H 0.3458 0.01034 0.65762 0.0
H730 H 0.24172 1.00205 0.70574 0.0
H731 H 0.20533 0.93366 0.68989 0.0
C732 C 0.32103 0.11043 0.72422 0.0
C733 C 0.35689 0.12193 0.74137 0.0
C734 C 0.30307 0.0765 0.70249 0.0
C735 C 0.32008 0.05271 0.69847 0.0
C736 C 0.35739 0.06598 0.71374 0.0
C737 C 0.3756 0.1003 0.73491 0.0
C738 C 0.294 0.95392 0.6559 0.0
C739 C 0.25436 0.9312 0.66565 0.0
C740 C 0.31507 0.99394 0.66457 0.0
C741 C 0.297 0.01211 0.68325 0.0
C742 C 0.25682 0.98967 0.69092 0.0
C743 C 0.23586 0.94999 0.68212 0.0
H744 H 0.70777 0.63275 0.97851 0.0
H745 H 0.8152 0.74142 -0.00495 0.0
H746 H 0.67512 0.66901 0.96091 0.0
H747 H 0.78243 0.77771 0.97942 0.0
H748 H 0.73556 0.81843 0.88289 0.0
H749 H 0.76346 0.78827 0.92082 0.0
H750 H 0.6508 0.71388 0.97136 0.0
H751 H 0.62245 0.74409 0.93201 0.0
C752 C 0.72401 0.66439 0.97967 0.0
C753 C 0.76416 0.68429 0.98754 0.0
C754 C 0.70529 0.68525 0.9697 0.0
C755 C 0.7263 0.7264 0.96792 0.0
C756 C 0.76555 0.74608 0.97937 0.0
C757 C 0.78434 0.72531 0.98858 0.0
C758 C 0.71683 0.79627 0.9027 0.0
C759 C 0.67678 0.78354 0.90433 0.0
C760 C 0.73292 0.77903 0.92478 0.0
C761 C 0.70946 0.7484 0.94926 0.0
C762 C 0.66967 0.73712 0.95256 0.0
C763 C 0.65349 0.75472 0.9304 0.0
H764 H 0.08243 0.70452 0.1474 0.0
H765 H 0.0831 0.81259 0.16705 0.0
H766 H 1.01346 0.6729 0.13039 0.0
H767 H 0.01408 0.78086 0.15147 0.0
H768 H 0.92869 0.7358 0.05176 0.0
H769 H 0.98599 0.76292 0.09098 0.0
H770 H 0.94399 0.65 0.14234 0.0
H771 H 0.88613 0.62258 0.10216 0.0
C772 C 0.06748 0.7211 0.14943 0.0
C773 C 0.0883 0.76119 0.15791 0.0
C774 C 0.02787 0.70298 0.13976 0.0
C775 C 1.00836 0.72456 0.13877 0.0
C776 C 0.02841 0.76362 0.15097 0.0
C777 C 0.06794 0.78178 0.16009 0.0
C778 C 0.9311 0.71695 0.07213 0.0
C779 C 0.90298 0.67709 0.07384 0.0
C780 C 0.96396 0.73255 0.09485 0.0
C781 C 0.96984 0.70865 0.11984 0.0
C782 C 0.94052 0.66914 0.12319 0.0
C783 C 0.90718 0.65353 0.10053 0.0
H784 H 0.38785 0.07785 0.31552 0.0
H785 H 0.27989 0.07707 0.33478 0.0
H786 H 0.35122 1.00869 0.29857 0.0
H787 H 0.2432 1.00764 0.31996 0.0
H788 H 0.20214 0.92196 0.22107 0.0
H789 H 0.23168 0.97868 0.26104 0.0
H790 H 0.30668 0.93952 0.30799 0.0
H791 H 0.277 0.88233 0.26661 0.0
C792 C 0.35631 0.06245 0.31758 0.0
C793 C 0.33664 0.08287 0.32587 0.0
C794 C 0.33523 0.02272 0.30796 0.0
C795 C 0.29411 1.00263 0.30701 0.0
C796 C 0.27477 0.02235 0.31926 0.0
C797 C 0.29575 0.06209 0.32803 0.0
C798 C 0.22421 0.92485 0.24063 0.0
C799 C 0.23737 0.89783 0.24061 0.0
C800 C 0.24111 0.95739 0.26387 0.0
C801 C 0.27185 0.96403 0.28783 0.0
C802 C 0.28336 0.93556 0.28963 0.0
C803 C 0.26608 0.90257 0.26631 0.0
H804 H 0.40244 0.27155 0.43373 0.0
H805 H 0.28888 0.20219 0.38392 0.0
H806 H 0.37598 0.30265 0.47453 0.0
H807 H 0.2628 0.2331 0.42364 0.0
H808 H 0.21394 0.27983 0.50116 0.0
H809 H 0.2454 0.24241 0.48463 0.0
H810 H 0.35345 0.34987 0.46447 0.0
H811 H 0.32208 0.38732 0.48267 0.0
C812 C 0.37167 0.2622 0.43222 0.0
C813 C 0.34773 0.23454 0.40556 0.0
C814 C 0.3566 0.28027 0.45528 0.0
C815 C 0.31725 0.27051 0.4524 0.0
C816 C 0.29304 0.24107 0.42721 0.0
C817 C 0.30808 0.22344 0.40413 0.0
C818 C 0.24475 0.29543 0.49433 0.0
C819 C 0.26548 0.33643 0.49278 0.0
C820 C 0.26275 0.27401 0.48461 0.0
C821 C 0.3017 0.29306 0.47224 0.0
C822 C 0.32345 0.3342 0.47392 0.0
C823 C 0.3055 0.35572 0.48431 0.0
H824 H 0.1393 0.39889 0.60079 0.0
H825 H 0.10126 0.28618 0.55084 0.0
H826 H 0.08038 0.3699 0.63984 0.0
H827 H 0.04286 0.25761 0.58861 0.0
H828 H 0.94304 0.20514 0.66178 0.0
H829 H 1.01241 0.23817 0.64722 0.0
H830 H 1.01146 0.3456 0.62798 0.0
H831 H 0.94223 0.31273 0.64432 0.0
C832 C 0.11897 0.36777 0.59897 0.0
C833 C 0.12476 0.34479 0.57271 0.0
C834 C 0.08501 0.35124 0.62097 0.0
C835 C 0.0566 0.3114 0.61733 0.0
C836 C 0.06408 0.28819 0.59277 0.0
C837 C 0.09759 0.30464 0.57082 0.0
C838 C 0.9579 0.23607 0.65536 0.0
C839 C 0.9371 0.25621 0.65366 0.0
C840 C 0.99766 0.25501 0.64681 0.0
C841 C 0.01746 0.29437 0.63547 0.0
C842 C 0.99732 0.31534 0.6367 0.0
C843 C 0.95755 0.29647 0.64594 0.0
H844 H 0.75058 0.13557 0.76506 0.0
H845 H 0.82177 0.09244 0.71704 0.0
H846 H 0.72013 0.07852 0.80653 0.0
H847 H 0.79155 0.03593 0.75734 0.0
H848 H 0.74388 0.93953 0.83361 0.0
H849 H 0.7812 1.00862 0.81763 0.0
H850 H 0.67385 1.00889 0.79692 0.0
H851 H 0.63654 0.93995 0.81473 0.0
C852 C 0.76056 0.11457 0.7642 0.0
C853 C 0.78849 0.11836 0.73783 0.0
C854 C 0.74284 0.08169 0.7876 0.0
C855 C 0.75318 0.0524 0.78528 0.0
C856 C 0.78308 0.05793 0.76052 0.0
C857 C 0.80036 0.09033 0.73713 0.0
C858 C 0.72828 0.95472 0.82679 0.0
C859 C 0.68736 0.93433 0.825 0.0
C860 C 0.74964 0.99426 0.81737 0.0
C861 C 0.73063 0.01418 0.80499 0.0
C862 C 0.68954 0.99462 0.8064 0.0
C863 C 0.66808 0.95505 0.81655 0.0
H864 H 0.25899 0.44255 0.32882 0.0
H865 H 0.16195 0.32495 0.3409 0.0
H866 H 0.25282 0.43628 0.26159 0.0
H867 H 0.15516 0.31898 0.27333 0.0
H868 H 0.18558 0.32486 0.14458 0.0
H869 H 0.18685 0.31968 0.21215 0.0
H870 H 0.19995 0.43455 0.22302 0.0
H871 H 0.1996 0.44012 0.15574 0.0
C872 C 0.23696 0.41505 0.31698 0.0
C873 C 0.21067 0.38442 0.33983 0.0
C874 C 0.23308 0.41161 0.27863 0.0
C875 C 0.2026 0.37766 0.26254 0.0
C876 C 0.17863 0.34558 0.28519 0.0
C877 C 0.18273 0.3489 0.32375 0.0
C878 C 0.18745 0.34843 0.16151 0.0
C879 C 0.19312 0.38317 0.14513 0.0
C880 C 0.18845 0.34554 0.20009 0.0
C881 C 0.19486 0.37727 0.2225 0.0
C882 C 0.19636 0.41024 0.20615 0.0
C883 C 0.19569 0.41326 0.16776 0.0
H884 H 0.88102 0.21853 0.49726 0.0
H885 H 0.7598 0.12807 0.49924 0.0
H886 H 0.88312 0.2086 0.43002 0.0
H887 H 0.76208 0.11727 0.43296 0.0
H888 H 0.76815 0.17777 0.31938 0.0
H889 H 0.76665 0.16492 0.38548 0.0
H890 H 0.87446 0.16289 0.37546 0.0
H891 H 0.87573 0.17561 0.30861 0.0
C892 C 0.85527 0.196 0.48339 0.0
C893 C 0.81998 0.17493 0.50269 0.0
C894 C 0.85648 0.19 0.44519 0.0
C895 C 0.82253 0.16255 0.42638 0.0
C896 C 0.78839 0.13908 0.4467 0.0
C897 C 0.78706 0.14543 0.48445 0.0
C898 C 0.79089 0.17343 0.33112 0.0
C899 C 0.82206 0.17773 0.3092 0.0
C900 C 0.79001 0.16592 0.36889 0.0
C901 C 0.82058 0.16308 0.38551 0.0
C902 C 0.85069 0.16512 0.36321 0.0
C903 C 0.85121 0.17202 0.32508 0.0
H904 H 0.58263 0.82475 0.66194 0.0
H905 H 0.70151 0.84922 0.67264 0.0
H906 H 0.59231 0.83723 0.59564 0.0
H907 H 0.71125 0.86177 0.60568 0.0
H908 H 0.67235 0.80775 0.48189 0.0
H909 H 0.68035 0.81456 0.54975 0.0
H910 H 0.63131 0.89071 0.55011 0.0
H911 H 0.6226 0.88325 0.48327 0.0
C912 C 0.61108 0.83363 0.65014 0.0
C913 C 0.64126 0.83592 0.6722 0.0
C914 C 0.61671 0.84093 0.61227 0.0
C915 C 0.65253 0.85033 0.5957 0.0
C916 C 0.68337 0.85438 0.61795 0.0
C917 C 0.67788 0.84758 0.65613 0.0
C918 C 0.6639 0.82628 0.49665 0.0
C919 C 0.64568 0.84387 0.47795 0.0
C920 C 0.66874 0.83048 0.5352 0.0
C921 C 0.65582 0.85268 0.55496 0.0
C922 C 0.64076 0.87286 0.53555 0.0
C923 C 0.63556 0.86833 0.49744 0.0
H924 H 0.80679 0.66526 0.83401 0.0
H925 H 0.88175 0.61496 0.83344 0.0
H926 H 0.81378 0.6729 0.76607 0.0
H927 H 0.88938 0.62331 0.76658 0.0
H928 H 0.82627 0.57589 0.65372 0.0
H929 H 0.83703 0.58483 0.72029 0.0
H930 H 0.86142 0.70394 0.71055 0.0
H931 H 0.85061 0.69496 0.64335 0.0
C932 C 0.82518 0.65654 0.81941 0.0
C933 C 0.84262 0.63834 0.8384 0.0
C934 C 0.82947 0.66117 0.7808 0.0
C935 C 0.85162 0.64805 0.76126 0.0
C936 C 0.87152 0.63286 0.78094 0.0
C937 C 0.86691 0.62788 0.81908 0.0
C938 C 0.83476 0.60423 0.66565 0.0
C939 C 0.83757 0.63469 0.64356 0.0
C940 C 0.84104 0.60943 0.7037 0.0
C941 C 0.8499 0.64507 0.72043 0.0
C942 C 0.8544 0.67617 0.69819 0.0
C943 C 0.84863 0.67113 0.65985 0.0
H944 H 0.14573 0.83435 0.81092 0.0
H945 H 0.25126 0.82855 0.8239 0.0
H946 H 0.14633 0.84792 0.87741 0.0
H947 H 0.25201 0.84243 0.88985 0.0
H948 H 0.2604 0.88832 0.00075 0.0
H949 H 0.25719 0.8957 0.93395 0.0
H950 H 0.13737 0.80154 0.93387 0.0
H951 H 0.14049 0.79464 0.00151 0.0
C952 C 0.16956 0.83703 0.82781 0.0
C953 C 0.19842 0.83029 0.81257 0.0
C954 C 0.1697 0.84452 0.8657 0.0
C955 C 0.19917 0.8462 0.88843 0.0
C956 C 0.22919 0.84169 0.8727 0.0
C957 C 0.22869 0.83355 0.8351 0.0
C958 C 0.23313 0.86975 0.98647 0.0
C959 C 0.20092 0.84022 0.00555 0.0
C960 C 0.23129 0.87413 0.94847 0.0
C961 C 0.19731 0.84877 0.92899 0.0
C962 C 0.16384 0.82149 0.94855 0.0
C963 C 0.16561 0.81731 0.98695 0.0
H964 H 0.32557 0.14798 0.97573 0.0
H965 H 0.43892 0.25132 0.98788 0.0
H966 H 0.31929 0.14165 0.04347 0.0
H967 H 0.43236 0.24542 0.05513 0.0
H968 H 0.44109 0.19423 0.16069 0.0
H969 H 0.43463 0.19339 0.09346 0.0
H970 H 0.31772 0.17427 0.10518 0.0
H971 H 0.32394 0.17445 0.17289 0.0
C972 C 0.3484 0.17013 -0.00711 0.0
C973 C 0.38296 0.19987 0.97682 0.0
C974 C 0.34492 0.16631 0.03153 0.0
C975 C 0.37591 0.1923 0.05424 0.0
C976 C 0.4086 0.22428 0.03807 0.0
C977 C 0.41218 0.22793 -0.00031 0.0
C978 C 0.41363 0.18876 0.14891 0.0
C979 C 0.38322 0.18491 0.17182 0.0
C980 C 0.41006 0.1887 0.11053 0.0
C981 C 0.37617 0.18512 0.09439 0.0
C982 C 0.34426 0.17747 0.11711 0.0
C983 C 0.34775 0.17729 0.15574 0.0
loop_
_geom_bond_atom_site_label_1
_geom_bond_atom_site_label_2
_geom_bond_distance
_geom_bond_site_symmetry_2
_ccdc_geom_bond_type
Sc0 O3 2.025 1_556 S
Sc0 O10 2.105 1_556 S
Sc0 O13 2.105 . S
Sc0 O16 2.105 . S
Sc0 O19 2.105 1_556 S
Sc1 O3 2.025 . S
Sc1 O11 2.105 . S
Sc1 O15 2.105 . S
Sc1 O17 2.105 . S
Sc1 O21 2.105 . S
Sc2 O3 2.025 . S
Sc2 O12 2.105 . S
Sc2 O14 2.105 . S
Sc2 O18 2.105 . S
Sc2 O20 2.105 . S
O3 Sc0 2.025 1_554 S
O3 Sc1 2.025 . S
O3 Sc2 2.025 . S
C4 O10 1.268 . S
C4 O20 1.268 . S
C5 O11 1.268 . S
C5 O19 1.268 . S
C6 O12 1.268 . S
C6 O21 1.268 . S
C7 O13 1.268 . S
C7 O17 1.268 1_556 S
C8 O14 1.268 1_556 S
C8 O16 1.268 . S
C9 O15 1.268 . S
C9 O18 1.268 . S
O10 Sc0 2.105 1_554 S
O10 C4 1.268 . S
O11 Sc1 2.105 . S
O11 C5 1.268 . S
O12 Sc2 2.105 . S
O12 C6 1.268 . S
O13 Sc0 2.105 . S
O13 C7 1.268 . S
O14 Sc2 2.105 . S
O14 C8 1.268 1_554 S
O15 Sc1 2.105 . S
O15 C9 1.268 . S
O16 Sc0 2.105 . S
O16 C8 1.268 . S
O17 Sc1 2.105 . S
O17 C7 1.268 1_554 S
O18 Sc2 2.105 . S
O18 C9 1.268 . S
O19 Sc0 2.105 1_554 S
O19 C5 1.268 . S
O20 Sc2 2.105 . S
O20 C4 1.268 . S
O21 Sc1 2.105 . S
O21 C6 1.268 . S
Sc22 O25 2.025 . S
Sc22 O32 2.105 . S
Sc22 O35 2.105 . S
Sc22 O38 2.105 . S
Sc22 O41 2.105 . S
Sc23 O25 2.025 . S
Sc23 O33 2.105 . S
Sc23 O37 2.105 . S
Sc23 O39 2.105 . S
Sc23 O43 2.105 . S
Sc24 O25 2.025 . S
Sc24 O34 2.105 . S
Sc24 O36 2.105 . S
Sc24 O40 2.105 . S
Sc24 O42 2.105 . S
O25 Sc22 2.025 . S
O25 Sc23 2.025 . S
O25 Sc24 2.025 . S
C26 O32 1.268 . S
C26 O42 1.268 . S
C27 O33 1.268 . S
C27 O41 1.268 . S
C28 O34 1.268 . S
C28 O43 1.268 . S
C29 O35 1.268 . S
C29 O39 1.268 . S
C30 O36 1.268 . S
C30 O38 1.268 . S
C31 O37 1.268 . S
C31 O40 1.268 . S
O32 Sc22 2.105 . S
O32 C26 1.268 . S
O33 Sc23 2.105 . S
O33 C27 1.268 . S
O34 Sc24 2.105 . S
O34 C28 1.268 . S
O35 Sc22 2.105 . S
O35 C29 1.268 . S
O36 Sc24 2.105 . S
O36 C30 1.268 . S
O37 Sc23 2.105 . S
O37 C31 1.268 . S
O38 Sc22 2.105 . S
O38 C30 1.268 . S
O39 Sc23 2.105 . S
O39 C29 1.268 . S
O40 Sc24 2.105 . S
O40 C31 1.268 . S
O41 Sc22 2.105 . S
O41 C27 1.268 . S
O42 Sc24 2.105 . S
O42 C26 1.268 . S
O43 Sc23 2.105 . S
O43 C28 1.268 . S
Sc44 O47 2.025 . S
Sc44 O54 2.105 . S
Sc44 O57 2.105 . S
Sc44 O60 2.105 . S
Sc44 O63 2.105 . S
Sc45 O47 2.025 . S
Sc45 O55 2.105 . S
Sc45 O59 2.105 . S
Sc45 O61 2.105 . S
Sc45 O65 2.105 . S
Sc46 O47 2.025 . S
Sc46 O56 2.105 . S
Sc46 O58 2.105 . S
Sc46 O62 2.105 . S
Sc46 O64 2.105 . S
O47 Sc44 2.025 . S
O47 Sc45 2.025 . S
O47 Sc46 2.025 . S
C48 O54 1.268 . S
C48 O64 1.268 . S
C49 O55 1.268 . S
C49 O63 1.268 . S
C50 O56 1.268 . S
C50 O65 1.268 . S
C51 O57 1.268 . S
C51 O61 1.268 . S
C52 O58 1.268 . S
C52 O60 1.268 . S
C53 O59 1.268 . S
C53 O62 1.268 . S
O54 Sc44 2.105 . S
O54 C48 1.268 . S
O55 Sc45 2.105 . S
O55 C49 1.268 . S
O56 Sc46 2.105 . S
O56 C50 1.268 . S
O57 Sc44 2.105 . S
O57 C51 1.268 . S
O58 Sc46 2.105 . S
O58 C52 1.268 . S
O59 Sc45 2.105 . S
O59 C53 1.268 . S
O60 Sc44 2.105 . S
O60 C52 1.268 . S
O61 Sc45 2.105 . S
O61 C51 1.268 . S
O62 Sc46 2.105 . S
O62 C53 1.268 . S
O63 Sc44 2.105 . S
O63 C49 1.268 . S
O64 Sc46 2.105 . S
O64 C48 1.268 . S
O65 Sc45 2.105 . S
O65 C50 1.268 . S
Sc66 O69 2.025 . S
Sc66 O76 2.105 . S
Sc66 O79 2.105 . S
Sc66 O82 2.105 . S
Sc66 O85 2.105 . S
Sc67 O69 2.025 . S
Sc67 O77 2.105 . S
Sc67 O81 2.105 . S
Sc67 O83 2.105 . S
Sc67 O87 2.105 . S
Sc68 O69 2.025 . S
Sc68 O78 2.105 . S
Sc68 O80 2.105 . S
Sc68 O84 2.105 . S
Sc68 O86 2.105 . S
O69 Sc66 2.025 . S
O69 Sc67 2.025 . S
O69 Sc68 2.025 . S
C70 O76 1.268 . S
C70 O86 1.268 . S
C71 O77 1.268 . S
C71 O85 1.268 . S
C72 O78 1.268 . S
C72 O87 1.268 . S
C73 O79 1.268 . S
C73 O83 1.268 . S
C74 O80 1.268 . S
C74 O82 1.268 . S
C75 O81 1.268 . S
C75 O84 1.268 . S
O76 Sc66 2.105 . S
O76 C70 1.268 . S
O77 Sc67 2.105 . S
O77 C71 1.268 . S
O78 Sc68 2.105 . S
O78 C72 1.268 . S
O79 Sc66 2.105 . S
O79 C73 1.268 . S
O80 Sc68 2.105 . S
O80 C74 1.268 . S
O81 Sc67 2.105 . S
O81 C75 1.268 . S
O82 Sc66 2.105 . S
O82 C74 1.268 . S
O83 Sc67 2.105 . S
O83 C73 1.268 . S
O84 Sc68 2.105 . S
O84 C75 1.268 . S
O85 Sc66 2.105 . S
O85 C71 1.268 . S
O86 Sc68 2.105 . S
O86 C70 1.268 . S
O87 Sc67 2.105 . S
O87 C72 1.268 . S
Sc88 O91 2.025 . S
Sc88 O98 2.105 . S
Sc88 O101 2.105 . S
Sc88 O104 2.105 . S
Sc88 O107 2.105 . S
Sc89 O91 2.025 . S
Sc89 O99 2.105 . S
Sc89 O103 2.105 . S
Sc89 O105 2.105 . S
Sc89 O109 2.105 . S
Sc90 O91 2.025 . S
Sc90 O100 2.105 . S
Sc90 O102 2.105 . S
Sc90 O106 2.105 . S
Sc90 O108 2.105 . S
O91 Sc88 2.025 . S
O91 Sc89 2.025 . S
O91 Sc90 2.025 . S
C92 O98 1.268 . S
C92 O108 1.268 . S
C93 O99 1.268 . S
C93 O107 1.268 . S
C94 O100 1.268 . S
C94 O109 1.268 . S
C95 O101 1.268 . S
C95 O105 1.268 . S
C96 O102 1.268 . S
C96 O104 1.268 . S
C97 O103 1.268 . S
C97 O106 1.268 . S
O98 Sc88 2.105 . S
O98 C92 1.268 . S
O99 Sc89 2.105 . S
O99 C93 1.268 . S
O100 Sc90 2.105 . S
O100 C94 1.268 . S
O101 Sc88 2.105 . S
O101 C95 1.268 . S
O102 Sc90 2.105 . S
O102 C96 1.268 . S
O103 Sc89 2.105 . S
O103 C97 1.268 . S
O104 Sc88 2.105 . S
O104 C96 1.268 . S
O105 Sc89 2.105 . S
O105 C95 1.268 . S
O106 Sc90 2.105 . S
O106 C97 1.268 . S
O107 Sc88 2.105 . S
O107 C93 1.268 . S
O108 Sc90 2.105 . S
O108 C92 1.268 . S
O109 Sc89 2.105 . S
O109 C94 1.268 . S
Sc110 O113 2.025 . S
Sc110 O120 2.105 . S
Sc110 O123 2.105 . S
Sc110 O126 2.105 . S
Sc110 O129 2.105 . S
Sc111 O113 2.025 . S
Sc111 O121 2.105 . S
Sc111 O125 2.105 . S
Sc111 O127 2.105 . S
Sc111 O131 2.105 . S
Sc112 O113 2.025 . S
Sc112 O122 2.105 . S
Sc112 O124 2.105 . S
Sc112 O128 2.105 . S
Sc112 O130 2.105 . S
O113 Sc110 2.025 . S
O113 Sc111 2.025 . S
O113 Sc112 2.025 . S
C114 O120 1.268 . S
C114 O130 1.268 . S
C115 O121 1.268 . S
C115 O129 1.268 . S
C116 O122 1.268 . S
C116 O131 1.268 . S
C117 O123 1.268 . S
C117 O127 1.268 . S
C118 O124 1.268 . S
C118 O126 1.268 . S
C119 O125 1.268 . S
C119 O128 1.268 . S
O120 Sc110 2.105 . S
O120 C114 1.268 . S
O121 Sc111 2.105 . S
O121 C115 1.268 . S
O122 Sc112 2.105 . S
O122 C116 1.268 . S
O123 Sc110 2.105 . S
O123 C117 1.268 . S
O124 Sc112 2.105 . S
O124 C118 1.268 . S
O125 Sc111 2.105 . S
O125 C119 1.268 . S
O126 Sc110 2.105 . S
O126 C118 1.268 . S
O127 Sc111 2.105 . S
O127 C117 1.268 . S
O128 Sc112 2.105 . S
O128 C119 1.268 . S
O129 Sc110 2.105 . S
O129 C115 1.268 . S
O130 Sc112 2.105 . S
O130 C114 1.268 . S
O131 Sc111 2.105 . S
O131 C116 1.268 . S
Sc132 O135 2.025 . S
Sc132 O142 2.105 . S
Sc132 O145 2.105 . S
Sc132 O148 2.105 . S
Sc132 O151 2.105 . S
Sc133 O135 2.025 . S
Sc133 O143 2.105 . S
Sc133 O147 2.105 . S
Sc133 O149 2.105 . S
Sc133 O153 2.105 . S
Sc134 O135 2.025 . S
Sc134 O144 2.105 . S
Sc134 O146 2.105 . S
Sc134 O150 2.105 . S
Sc134 O152 2.105 . S
O135 Sc132 2.025 . S
O135 Sc133 2.025 . S
O135 Sc134 2.025 . S
C136 O142 1.268 . S
C136 O152 1.268 . S
C137 O143 1.268 . S
C137 O151 1.268 . S
C138 O144 1.268 . S
C138 O153 1.268 . S
C139 O145 1.268 . S
C139 O149 1.268 . S
C140 O146 1.268 . S
C140 O148 1.268 . S
C141 O147 1.268 . S
C141 O150 1.268 . S
O142 Sc132 2.105 . S
O142 C136 1.268 . S
O143 Sc133 2.105 . S
O143 C137 1.268 . S
O144 Sc134 2.105 . S
O144 C138 1.268 . S
O145 Sc132 2.105 . S
O145 C139 1.268 . S
O146 Sc134 2.105 . S
O146 C140 1.268 . S
O147 Sc133 2.105 . S
O147 C141 1.268 . S
O148 Sc132 2.105 . S
O148 C140 1.268 . S
O149 Sc133 2.105 . S
O149 C139 1.268 . S
O150 Sc134 2.105 . S
O150 C141 1.268 . S
O151 Sc132 2.105 . S
O151 C137 1.268 . S
O152 Sc134 2.105 . S
O152 C136 1.268 . S
O153 Sc133 2.105 . S
O153 C138 1.268 . S
Sc154 O157 2.025 . S
Sc154 O164 2.105 . S
Sc154 O167 2.105 . S
Sc154 O170 2.105 . S
Sc154 O173 2.105 . S
Sc155 O157 2.025 . S
Sc155 O165 2.105 . S
Sc155 O169 2.105 . S
Sc155 O171 2.105 . S
Sc155 O175 2.105 . S
Sc156 O157 2.025 1_554 S
Sc156 O166 2.105 . S
Sc156 O168 2.105 1_554 S
Sc156 O172 2.105 1_554 S
Sc156 O174 2.105 . S
O157 Sc154 2.025 . S
O157 Sc155 2.025 . S
O157 Sc156 2.025 1_556 S
C158 O164 1.268 1_554 S
C158 O174 1.268 . S
C159 O165 1.268 . S
C159 O173 1.268 . S
C160 O166 1.268 . S
C160 O175 1.268 1_554 S
C161 O167 1.268 . S
C161 O171 1.268 . S
C162 O168 1.268 . S
C162 O170 1.268 . S
C163 O169 1.268 . S
C163 O172 1.268 . S
O164 Sc154 2.105 . S
O164 C158 1.268 1_556 S
O165 Sc155 2.105 . S
O165 C159 1.268 . S
O166 Sc156 2.105 . S
O166 C160 1.268 . S
O167 Sc154 2.105 . S
O167 C161 1.268 . S
O168 Sc156 2.105 1_556 S
O168 C162 1.268 . S
O169 Sc155 2.105 . S
O169 C163 1.268 . S
O170 Sc154 2.105 . S
O170 C162 1.268 . S
O171 Sc155 2.105 . S
O171 C161 1.268 . S
O172 Sc156 2.105 1_556 S
O172 C163 1.268 . S
O173 Sc154 2.105 . S
O173 C159 1.268 . S
O174 Sc156 2.105 . S
O174 C158 1.268 . S
O175 Sc155 2.105 . S
O175 C160 1.268 1_556 S
Sc176 O179 2.025 . S
Sc176 O186 2.105 . S
Sc176 O189 2.105 . S
Sc176 O192 2.105 . S
Sc176 O195 2.105 . S
Sc177 O179 2.025 . S
Sc177 O187 2.105 . S
Sc177 O191 2.105 . S
Sc177 O193 2.105 . S
Sc177 O197 2.105 . S
Sc178 O179 2.025 . S
Sc178 O188 2.105 . S
Sc178 O190 2.105 . S
Sc178 O194 2.105 . S
Sc178 O196 2.105 . S
O179 Sc176 2.025 . S
O179 Sc177 2.025 . S
O179 Sc178 2.025 . S
C180 O186 1.268 . S
C180 O196 1.268 . S
C181 O187 1.268 . S
C181 O195 1.268 . S
C182 O188 1.268 . S
C182 O197 1.268 . S
C183 O189 1.268 . S
C183 O193 1.268 . S
C184 O190 1.268 . S
C184 O192 1.268 . S
C185 O191 1.268 . S
C185 O194 1.268 . S
O186 Sc176 2.105 . S
O186 C180 1.268 . S
O187 Sc177 2.105 . S
O187 C181 1.268 . S
O188 Sc178 2.105 . S
O188 C182 1.268 . S
O189 Sc176 2.105 . S
O189 C183 1.268 . S
O190 Sc178 2.105 . S
O190 C184 1.268 . S
O191 Sc177 2.105 . S
O191 C185 1.268 . S
O192 Sc176 2.105 . S
O192 C184 1.268 . S
O193 Sc177 2.105 . S
O193 C183 1.268 . S
O194 Sc178 2.105 . S
O194 C185 1.268 . S
O195 Sc176 2.105 . S
O195 C181 1.268 . S
O196 Sc178 2.105 . S
O196 C180 1.268 . S
O197 Sc177 2.105 . S
O197 C182 1.268 . S
Sc198 O201 2.025 . S
Sc198 O208 2.105 . S
Sc198 O211 2.105 . S
Sc198 O214 2.105 . S
Sc198 O217 2.105 . S
Sc199 O201 2.025 . S
Sc199 O209 2.105 . S
Sc199 O213 2.105 . S
Sc199 O215 2.105 . S
Sc199 O219 2.105 . S
Sc200 O201 2.025 . S
Sc200 O210 2.105 . S
Sc200 O212 2.105 . S
Sc200 O216 2.105 . S
Sc200 O218 2.105 . S
O201 Sc198 2.025 . S
O201 Sc199 2.025 . S
O201 Sc200 2.025 . S
C202 O208 1.268 . S
C202 O218 1.268 . S
C203 O209 1.268 . S
C203 O217 1.268 . S
C204 O210 1.268 . S
C204 O219 1.268 . S
C205 O211 1.268 . S
C205 O215 1.268 . S
C206 O212 1.268 . S
C206 O214 1.268 . S
C207 O213 1.268 . S
C207 O216 1.268 . S
O208 Sc198 2.105 . S
O208 C202 1.268 . S
O209 Sc199 2.105 . S
O209 C203 1.268 . S
O210 Sc200 2.105 . S
O210 C204 1.268 . S
O211 Sc198 2.105 . S
O211 C205 1.268 . S
O212 Sc200 2.105 . S
O212 C206 1.268 . S
O213 Sc199 2.105 . S
O213 C207 1.268 . S
O214 Sc198 2.105 . S
O214 C206 1.268 . S
O215 Sc199 2.105 . S
O215 C205 1.268 . S
O216 Sc200 2.105 . S
O216 C207 1.268 . S
O217 Sc198 2.105 . S
O217 C203 1.268 . S
O218 Sc200 2.105 . S
O218 C202 1.268 . S
O219 Sc199 2.105 . S
O219 C204 1.268 . S
Sc220 O223 2.025 . S
Sc220 O230 2.105 . S
Sc220 O233 2.105 . S
Sc220 O236 2.105 . S
Sc220 O239 2.105 . S
Sc221 O223 2.025 . S
Sc221 O231 2.105 . S
Sc221 O235 2.105 . S
Sc221 O237 2.105 . S
Sc221 O241 2.105 . S
Sc222 O223 2.025 . S
Sc222 O232 2.105 . S
Sc222 O234 2.105 . S
Sc222 O238 2.105 . S
Sc222 O240 2.105 . S
O223 Sc220 2.025 . S
O223 Sc221 2.025 . S
O223 Sc222 2.025 . S
C224 O230 1.268 . S
C224 O240 1.268 . S
C225 O231 1.268 . S
C225 O239 1.268 . S
C226 O232 1.268 . S
C226 O241 1.268 . S
C227 O233 1.268 . S
C227 O237 1.268 . S
C228 O234 1.268 . S
C228 O236 1.268 . S
C229 O235 1.268 . S
C229 O238 1.268 . S
O230 Sc220 2.105 . S
O230 C224 1.268 . S
O231 Sc221 2.105 . S
O231 C225 1.268 . S
O232 Sc222 2.105 . S
O232 C226 1.268 . S
O233 Sc220 2.105 . S
O233 C227 1.268 . S
O234 Sc222 2.105 . S
O234 C228 1.268 . S
O235 Sc221 2.105 . S
O235 C229 1.268 . S
O236 Sc220 2.105 . S
O236 C228 1.268 . S
O237 Sc221 2.105 . S
O237 C227 1.268 . S
O238 Sc222 2.105 . S
O238 C229 1.268 . S
O239 Sc220 2.105 . S
O239 C225 1.268 . S
O240 Sc222 2.105 . S
O240 C224 1.268 . S
O241 Sc221 2.105 . S
O241 C226 1.268 . S
Sc242 O245 2.025 . S
Sc242 O252 2.105 . S
Sc242 O255 2.105 . S
Sc242 O258 2.105 . S
Sc242 O261 2.105 . S
Sc243 O245 2.025 . S
Sc243 O253 2.105 . S
Sc243 O257 2.105 . S
Sc243 O259 2.105 . S
Sc243 O263 2.105 . S
Sc244 O245 2.025 . S
Sc244 O254 2.105 . S
Sc244 O256 2.105 . S
Sc244 O260 2.105 . S
Sc244 O262 2.105 . S
O245 Sc242 2.025 . S
O245 Sc243 2.025 . S
O245 Sc244 2.025 . S
C246 O252 1.268 . S
C246 O262 1.268 . S
C247 O253 1.268 . S
C247 O261 1.268 . S
C248 O254 1.268 . S
C248 O263 1.268 . S
C249 O255 1.268 . S
C249 O259 1.268 . S
C250 O256 1.268 . S
C250 O258 1.268 . S
C251 O257 1.268 . S
C251 O260 1.268 . S
O252 Sc242 2.105 . S
O252 C246 1.268 . S
O253 Sc243 2.105 . S
O253 C247 1.268 . S
O254 Sc244 2.105 . S
O254 C248 1.268 . S
O255 Sc242 2.105 . S
O255 C249 1.268 . S
O256 Sc244 2.105 . S
O256 C250 1.268 . S
O257 Sc243 2.105 . S
O257 C251 1.268 . S
O258 Sc242 2.105 . S
O258 C250 1.268 . S
O259 Sc243 2.105 . S
O259 C249 1.268 . S
O260 Sc244 2.105 . S
O260 C251 1.268 . S
O261 Sc242 2.105 . S
O261 C247 1.268 . S
O262 Sc244 2.105 . S
O262 C246 1.268 . S
O263 Sc243 2.105 . S
O263 C248 1.268 . S
H264 C272 0.950 . S
H265 C277 0.950 . S
H266 C274 0.950 . S
H267 C276 0.950 . S
H268 C278 0.950 . S
H269 C280 0.950 . S
H270 C282 0.950 . S
H271 C283 0.950 . S
C272 H264 0.950 . S
C272 C273 1.386 . S
C272 C274 1.391 . S
C273 C272 1.386 . S
C273 C277 1.393 . S
C274 H266 0.950 . S
C274 C272 1.391 . S
C274 C275 1.400 . S
C275 C274 1.400 . S
C275 C276 1.398 . S
C275 C281 1.491 . S
C276 H267 0.950 . S
C276 C275 1.398 . S
C276 C277 1.391 . S
C277 H265 0.950 . S
C277 C273 1.393 . S
C277 C276 1.391 . S
C278 H268 0.950 . S
C278 C279 1.386 . S
C278 C280 1.391 . S
C279 C278 1.386 . S
C279 C283 1.393 . S
C280 H269 0.950 . S
C280 C278 1.391 . S
C280 C281 1.400 . S
C281 C275 1.491 . S
C281 C280 1.400 . S
C281 C282 1.398 . S
C282 H270 0.950 . S
C282 C281 1.398 . S
C282 C283 1.391 . S
C283 H271 0.950 . S
C283 C279 1.393 . S
C283 C282 1.391 . S
H284 C292 0.950 . S
H285 C297 0.950 . S
H286 C294 0.950 . S
H287 C296 0.950 . S
H288 C298 0.950 . S
H289 C300 0.950 . S
H290 C302 0.950 . S
H291 C303 0.950 . S
C292 H284 0.950 . S
C292 C293 1.386 . S
C292 C294 1.391 . S
C293 C292 1.386 . S
C293 C297 1.393 . S
C294 H286 0.950 . S
C294 C292 1.391 . S
C294 C295 1.400 . S
C295 C294 1.400 . S
C295 C296 1.398 . S
C295 C301 1.491 . S
C296 H287 0.950 . S
C296 C295 1.398 . S
C296 C297 1.391 . S
C297 H285 0.950 . S
C297 C293 1.393 . S
C297 C296 1.391 . S
C298 H288 0.950 . S
C298 C299 1.386 . S
C298 C300 1.391 . S
C299 C298 1.386 . S
C299 C303 1.393 . S
C300 H289 0.950 . S
C300 C298 1.391 . S
C300 C301 1.400 . S
C301 C295 1.491 . S
C301 C300 1.400 . S
C301 C302 1.398 . S
C302 H290 0.950 . S
C302 C301 1.398 . S
C302 C303 1.391 . S
C303 H291 0.950 . S
C303 C299 1.393 . S
C303 C302 1.391 . S
H304 C312 0.950 . S
H305 C317 0.950 . S
H306 C314 0.950 . S
H307 C316 0.950 . S
H308 C318 0.950 . S
H309 C320 0.950 . S
H310 C322 0.950 . S
H311 C323 0.950 . S
C312 H304 0.950 . S
C312 C313 1.386 . S
C312 C314 1.391 . S
C313 C312 1.386 . S
C313 C317 1.393 . S
C314 H306 0.950 . S
C314 C312 1.391 . S
C314 C315 1.400 . S
C315 C314 1.400 . S
C315 C316 1.398 . S
C315 C321 1.491 . S
C316 H307 0.950 . S
C316 C315 1.398 . S
C316 C317 1.391 . S
C317 H305 0.950 . S
C317 C313 1.393 . S
C317 C316 1.391 . S
C318 H308 0.950 . S
C318 C319 1.386 . S
C318 C320 1.391 . S
C319 C318 1.386 . S
C319 C323 1.393 . S
C320 H309 0.950 . S
C320 C318 1.391 . S
C320 C321 1.400 . S
C321 C315 1.491 . S
C321 C320 1.400 . S
C321 C322 1.398 . S
C322 H310 0.950 . S
C322 C321 1.398 . S
C322 C323 1.391 . S
C323 H311 0.950 . S
C323 C319 1.393 . S
C323 C322 1.391 . S
H324 C332 0.950 . S
H325 C337 0.950 . S
H326 C334 0.950 . S
H327 C336 0.950 . S
H328 C338 0.950 . S
H329 C340 0.950 . S
H330 C342 0.950 . S
H331 C343 0.950 . S
C332 H324 0.950 . S
C332 C333 1.386 . S
C332 C334 1.391 . S
C333 C332 1.386 . S
C333 C337 1.393 . S
C334 H326 0.950 . S
C334 C332 1.391 . S
C334 C335 1.400 . S
C335 C334 1.400 . S
C335 C336 1.398 . S
C335 C341 1.491 . S
C336 H327 0.950 . S
C336 C335 1.398 . S
C336 C337 1.391 . S
C337 H325 0.950 . S
C337 C333 1.393 . S
C337 C336 1.391 . S
C338 H328 0.950 . S
C338 C339 1.386 . S
C338 C340 1.391 . S
C339 C338 1.386 . S
C339 C343 1.393 . S
C340 H329 0.950 . S
C340 C338 1.391 . S
C340 C341 1.400 . S
C341 C335 1.491 . S
C341 C340 1.400 . S
C341 C342 1.398 . S
C342 H330 0.950 . S
C342 C341 1.398 . S
C342 C343 1.391 . S
C343 H331 0.950 . S
C343 C339 1.393 . S
C343 C342 1.391 . S
H344 C352 0.950 . S
H345 C357 0.950 . S
H346 C354 0.950 . S
H347 C356 0.950 . S
H348 C358 0.950 . S
H349 C360 0.950 . S
H350 C362 0.950 . S
H351 C363 0.950 . S
C352 H344 0.950 . S
C352 C353 1.386 . S
C352 C354 1.391 . S
C353 C352 1.386 . S
C353 C357 1.393 . S
C354 H346 0.950 . S
C354 C352 1.391 . S
C354 C355 1.400 . S
C355 C354 1.400 . S
C355 C356 1.398 . S
C355 C361 1.491 . S
C356 H347 0.950 . S
C356 C355 1.398 . S
C356 C357 1.391 . S
C357 H345 0.950 . S
C357 C353 1.393 . S
C357 C356 1.391 . S
C358 H348 0.950 . S
C358 C359 1.386 . S
C358 C360 1.391 . S
C359 C358 1.386 . S
C359 C363 1.393 . S
C360 H349 0.950 . S
C360 C358 1.391 . S
C360 C361 1.400 . S
C361 C355 1.491 . S
C361 C360 1.400 . S
C361 C362 1.398 . S
C362 H350 0.950 . S
C362 C361 1.398 . S
C362 C363 1.391 . S
C363 H351 0.950 . S
C363 C359 1.393 . S
C363 C362 1.391 . S
H364 C372 0.950 . S
H365 C377 0.950 . S
H366 C374 0.950 . S
H367 C376 0.950 . S
H368 C378 0.950 . S
H369 C380 0.950 . S
H370 C382 0.950 . S
H371 C383 0.950 . S
C372 H364 0.950 . S
C372 C373 1.386 . S
C372 C374 1.391 . S
C373 C372 1.386 . S
C373 C377 1.393 . S
C374 H366 0.950 . S
C374 C372 1.391 . S
C374 C375 1.400 . S
C375 C374 1.400 . S
C375 C376 1.398 . S
C375 C381 1.491 . S
C376 H367 0.950 . S
C376 C375 1.398 . S
C376 C377 1.391 . S
C377 H365 0.950 . S
C377 C373 1.393 . S
C377 C376 1.391 . S
C378 H368 0.950 . S
C378 C379 1.386 . S
C378 C380 1.391 . S
C379 C378 1.386 . S
C379 C383 1.393 . S
C380 H369 0.950 . S
C380 C378 1.391 . S
C380 C381 1.400 . S
C381 C375 1.491 . S
C381 C380 1.400 . S
C381 C382 1.398 . S
C382 H370 0.950 . S
C382 C381 1.398 . S
C382 C383 1.391 . S
C383 H371 0.950 . S
C383 C379 1.393 . S
C383 C382 1.391 . S
H384 C392 0.950 . S
H385 C397 0.950 . S
H386 C394 0.950 . S
H387 C396 0.950 . S
H388 C398 0.950 . S
H389 C400 0.950 . S
H390 C402 0.950 . S
H391 C403 0.950 . S
C392 H384 0.950 . S
C392 C393 1.386 . S
C392 C394 1.391 . S
C393 C392 1.386 . S
C393 C397 1.393 . S
C394 H386 0.950 . S
C394 C392 1.391 . S
C394 C395 1.400 . S
C395 C394 1.400 . S
C395 C396 1.398 . S
C395 C401 1.491 . S
C396 H387 0.950 . S
C396 C395 1.398 . S
C396 C397 1.391 . S
C397 H385 0.950 . S
C397 C393 1.393 . S
C397 C396 1.391 . S
C398 H388 0.950 . S
C398 C399 1.386 . S
C398 C400 1.391 . S
C399 C398 1.386 . S
C399 C403 1.393 . S
C400 H389 0.950 . S
C400 C398 1.391 . S
C400 C401 1.400 . S
C401 C395 1.491 . S
C401 C400 1.400 . S
C401 C402 1.398 . S
C402 H390 0.950 . S
C402 C401 1.398 . S
C402 C403 1.391 . S
C403 H391 0.950 . S
C403 C399 1.393 . S
C403 C402 1.391 . S
H404 C412 0.950 . S
H405 C417 0.950 . S
H406 C414 0.950 1_455 S
H407 C416 0.950 . S
H408 C418 0.950 . S
H409 C420 0.950 1_655 S
H410 C422 0.950 . S
H411 C423 0.950 . S
C412 H404 0.950 . S
C412 C413 1.386 . S
C412 C414 1.391 . S
C413 C412 1.386 . S
C413 C417 1.393 . S
C414 H406 0.950 1_655 S
C414 C412 1.391 . S
C414 C415 1.400 . S
C415 C414 1.400 . S
C415 C416 1.398 . S
C415 C421 1.491 1_655 S
C416 H407 0.950 . S
C416 C415 1.398 . S
C416 C417 1.391 . S
C417 H405 0.950 . S
C417 C413 1.393 . S
C417 C416 1.391 . S
C418 H408 0.950 . S
C418 C419 1.386 . S
C418 C420 1.391 . S
C419 C418 1.386 . S
C419 C423 1.393 . S
C420 H409 0.950 1_455 S
C420 C418 1.391 . S
C420 C421 1.400 . S
C421 C415 1.491 1_455 S
C421 C420 1.400 . S
C421 C422 1.398 . S
C422 H410 0.950 . S
C422 C421 1.398 . S
C422 C423 1.391 . S
C423 H411 0.950 . S
C423 C419 1.393 . S
C423 C422 1.391 . S
H424 C432 0.950 . S
H425 C437 0.950 . S
H426 C434 0.950 . S
H427 C436 0.950 1_565 S
H428 C438 0.950 . S
H429 C440 0.950 . S
H430 C442 0.950 1_545 S
H431 C443 0.950 . S
C432 H424 0.950 . S
C432 C433 1.386 . S
C432 C434 1.391 . S
C433 C432 1.386 . S
C433 C437 1.393 . S
C434 H426 0.950 . S
C434 C432 1.391 . S
C434 C435 1.400 . S
C435 C434 1.400 . S
C435 C436 1.398 . S
C435 C441 1.491 1_545 S
C436 H427 0.950 1_545 S
C436 C435 1.398 . S
C436 C437 1.391 . S
C437 H425 0.950 . S
C437 C433 1.393 . S
C437 C436 1.391 . S
C438 H428 0.950 . S
C438 C439 1.386 . S
C438 C440 1.391 . S
C439 C438 1.386 . S
C439 C443 1.393 . S
C440 H429 0.950 . S
C440 C438 1.391 . S
C440 C441 1.400 . S
C441 C435 1.491 1_565 S
C441 C440 1.400 . S
C441 C442 1.398 . S
C442 H430 0.950 1_565 S
C442 C441 1.398 . S
C442 C443 1.391 . S
C443 H431 0.950 . S
C443 C439 1.393 . S
C443 C442 1.391 . S
H444 C452 0.950 . S
H445 C457 0.950 . S
H446 C454 0.950 . S
H447 C456 0.950 . S
H448 C458 0.950 . S
H449 C460 0.950 . S
H450 C462 0.950 . S
H451 C463 0.950 . S
C452 H444 0.950 . S
C452 C453 1.386 . S
C452 C454 1.391 . S
C453 C452 1.386 . S
C453 C457 1.393 . S
C454 H446 0.950 . S
C454 C452 1.391 . S
C454 C455 1.400 . S
C455 C454 1.400 . S
C455 C456 1.398 . S
C455 C461 1.491 . S
C456 H447 0.950 . S
C456 C455 1.398 . S
C456 C457 1.391 . S
C457 H445 0.950 . S
C457 C453 1.393 . S
C457 C456 1.391 . S
C458 H448 0.950 . S
C458 C459 1.386 . S
C458 C460 1.391 . S
C459 C458 1.386 . S
C459 C463 1.393 . S
C460 H449 0.950 . S
C460 C458 1.391 . S
C460 C461 1.400 . S
C461 C455 1.491 . S
C461 C460 1.400 . S
C461 C462 1.398 . S
C462 H450 0.950 . S
C462 C461 1.398 . S
C462 C463 1.391 . S
C463 H451 0.950 . S
C463 C459 1.393 . S
C463 C462 1.391 . S
H464 C472 0.950 . S
H465 C477 0.950 . S
H466 C474 0.950 . S
H467 C476 0.950 . S
H468 C478 0.950 . S
H469 C480 0.950 . S
H470 C482 0.950 . S
H471 C483 0.950 . S
C472 H464 0.950 . S
C472 C473 1.386 . S
C472 C474 1.391 . S
C473 C472 1.386 . S
C473 C477 1.393 . S
C474 H466 0.950 . S
C474 C472 1.391 . S
C474 C475 1.400 . S
C475 C474 1.400 . S
C475 C476 1.398 . S
C475 C481 1.491 1_455 S
C476 H467 0.950 . S
C476 C475 1.398 . S
C476 C477 1.391 . S
C477 H465 0.950 . S
C477 C473 1.393 . S
C477 C476 1.391 . S
C478 H468 0.950 . S
C478 C479 1.386 . S
C478 C480 1.391 . S
C479 C478 1.386 . S
C479 C483 1.393 . S
C480 H469 0.950 . S
C480 C478 1.391 . S
C480 C481 1.400 . S
C481 C475 1.491 1_655 S
C481 C480 1.400 . S
C481 C482 1.398 . S
C482 H470 0.950 . S
C482 C481 1.398 . S
C482 C483 1.391 . S
C483 H471 0.950 . S
C483 C479 1.393 . S
C483 C482 1.391 . S
H484 C492 0.950 . S
H485 C497 0.950 . S
H486 C494 0.950 . S
H487 C496 0.950 . S
H488 C498 0.950 . S
H489 C500 0.950 . S
H490 C502 0.950 . S
H491 C503 0.950 . S
C492 H484 0.950 . S
C492 C493 1.386 . S
C492 C494 1.391 . S
C493 C492 1.386 . S
C493 C497 1.393 . S
C494 H486 0.950 . S
C494 C492 1.391 . S
C494 C495 1.400 . S
C495 C494 1.400 . S
C495 C496 1.398 . S
C495 C501 1.491 1_546 S
C496 H487 0.950 . S
C496 C495 1.398 . S
C496 C497 1.391 . S
C497 H485 0.950 . S
C497 C493 1.393 . S
C497 C496 1.391 . S
C498 H488 0.950 . S
C498 C499 1.386 . S
C498 C500 1.391 . S
C499 C498 1.386 . S
C499 C503 1.393 . S
C500 H489 0.950 . S
C500 C498 1.391 . S
C500 C501 1.400 . S
C501 C495 1.491 1_564 S
C501 C500 1.400 . S
C501 C502 1.398 . S
C502 H490 0.950 . S
C502 C501 1.398 . S
C502 C503 1.391 . S
C503 H491 0.950 . S
C503 C499 1.393 . S
C503 C502 1.391 . S
H504 C512 0.950 . S
H505 C517 0.950 . S
H506 C514 0.950 . S
H507 C516 0.950 . S
H508 C518 0.950 . S
H509 C520 0.950 . S
H510 C522 0.950 . S
H511 C523 0.950 . S
C512 H504 0.950 . S
C512 C513 1.386 . S
C512 C514 1.391 . S
C513 C512 1.386 . S
C513 C517 1.393 . S
C514 H506 0.950 . S
C514 C512 1.391 . S
C514 C515 1.400 . S
C515 C514 1.400 . S
C515 C516 1.398 . S
C515 C521 1.491 . S
C516 H507 0.950 . S
C516 C515 1.398 . S
C516 C517 1.391 . S
C517 H505 0.950 . S
C517 C513 1.393 . S
C517 C516 1.391 . S
C518 H508 0.950 . S
C518 C519 1.386 . S
C518 C520 1.391 . S
C519 C518 1.386 . S
C519 C523 1.393 . S
C520 H509 0.950 . S
C520 C518 1.391 . S
C520 C521 1.400 . S
C521 C515 1.491 . S
C521 C520 1.400 . S
C521 C522 1.398 . S
C522 H510 0.950 . S
C522 C521 1.398 . S
C522 C523 1.391 . S
C523 H511 0.950 . S
C523 C519 1.393 . S
C523 C522 1.391 . S
H524 C532 0.950 . S
H525 C537 0.950 1_556 S
H526 C534 0.950 . S
H527 C536 0.950 . S
H528 C538 0.950 . S
H529 C540 0.950 . S
H530 C542 0.950 . S
H531 C543 0.950 . S
C532 H524 0.950 . S
C532 C533 1.386 . S
C532 C534 1.391 . S
C533 C532 1.386 . S
C533 C537 1.393 . S
C534 H526 0.950 . S
C534 C532 1.391 . S
C534 C535 1.400 . S
C535 C534 1.400 . S
C535 C536 1.398 . S
C535 C541 1.491 . S
C536 H527 0.950 . S
C536 C535 1.398 . S
C536 C537 1.391 . S
C537 H525 0.950 1_554 S
C537 C533 1.393 . S
C537 C536 1.391 . S
C538 H528 0.950 . S
C538 C539 1.386 . S
C538 C540 1.391 . S
C539 C538 1.386 . S
C539 C543 1.393 . S
C540 H529 0.950 . S
C540 C538 1.391 . S
C540 C541 1.400 . S
C541 C535 1.491 . S
C541 C540 1.400 . S
C541 C542 1.398 . S
C542 H530 0.950 . S
C542 C541 1.398 . S
C542 C543 1.391 . S
C543 H531 0.950 . S
C543 C539 1.393 . S
C543 C542 1.391 . S
H544 C552 0.950 . S
H545 C557 0.950 . S
H546 C554 0.950 . S
H547 C556 0.950 . S
H548 C558 0.950 . S
H549 C560 0.950 . S
H550 C562 0.950 . S
H551 C563 0.950 . S
C552 H544 0.950 . S
C552 C553 1.386 . S
C552 C554 1.391 . S
C553 C552 1.386 . S
C553 C557 1.393 . S
C554 H546 0.950 . S
C554 C552 1.391 . S
C554 C555 1.400 . S
C555 C554 1.400 . S
C555 C556 1.398 . S
C555 C561 1.491 . S
C556 H547 0.950 . S
C556 C555 1.398 . S
C556 C557 1.391 . S
C557 H545 0.950 . S
C557 C553 1.393 . S
C557 C556 1.391 . S
C558 H548 0.950 . S
C558 C559 1.386 . S
C558 C560 1.391 . S
C559 C558 1.386 . S
C559 C563 1.393 . S
C560 H549 0.950 . S
C560 C558 1.391 . S
C560 C561 1.400 . S
C561 C555 1.491 . S
C561 C560 1.400 . S
C561 C562 1.398 . S
C562 H550 0.950 . S
C562 C561 1.398 . S
C562 C563 1.391 . S
C563 H551 0.950 . S
C563 C559 1.393 . S
C563 C562 1.391 . S
H564 C572 0.950 . S
H565 C577 0.950 . S
H566 C574 0.950 . S
H567 C576 0.950 . S
H568 C578 0.950 . S
H569 C580 0.950 . S
H570 C582 0.950 . S
H571 C583 0.950 . S
C572 H564 0.950 . S
C572 C573 1.386 . S
C572 C574 1.391 . S
C573 C572 1.386 . S
C573 C577 1.393 . S
C574 H566 0.950 . S
C574 C572 1.391 . S
C574 C575 1.400 . S
C575 C574 1.400 . S
C575 C576 1.398 . S
C575 C581 1.491 . S
C576 H567 0.950 . S
C576 C575 1.398 . S
C576 C577 1.391 . S
C577 H565 0.950 . S
C577 C573 1.393 . S
C577 C576 1.391 . S
C578 H568 0.950 . S
C578 C579 1.386 . S
C578 C580 1.391 . S
C579 C578 1.386 . S
C579 C583 1.393 . S
C580 H569 0.950 . S
C580 C578 1.391 . S
C580 C581 1.400 . S
C581 C575 1.491 . S
C581 C580 1.400 . S
C581 C582 1.398 . S
C582 H570 0.950 . S
C582 C581 1.398 . S
C582 C583 1.391 . S
C583 H571 0.950 . S
C583 C579 1.393 . S
C583 C582 1.391 . S
H584 C592 0.950 . S
H585 C597 0.950 . S
H586 C594 0.950 . S
H587 C596 0.950 . S
H588 C598 0.950 . S
H589 C600 0.950 . S
H590 C602 0.950 . S
H591 C603 0.950 . S
C592 H584 0.950 . S
C592 C593 1.386 . S
C592 C594 1.391 . S
C593 C592 1.386 . S
C593 C597 1.393 . S
C594 H586 0.950 . S
C594 C592 1.391 . S
C594 C595 1.400 . S
C595 C594 1.400 . S
C595 C596 1.398 . S
C595 C601 1.491 . S
C596 H587 0.950 . S
C596 C595 1.398 . S
C596 C597 1.391 . S
C597 H585 0.950 . S
C597 C593 1.393 . S
C597 C596 1.391 . S
C598 H588 0.950 . S
C598 C599 1.386 . S
C598 C600 1.391 . S
C599 C598 1.386 . S
C599 C603 1.393 . S
C600 H589 0.950 . S
C600 C598 1.391 . S
C600 C601 1.400 . S
C601 C595 1.491 . S
C601 C600 1.400 . S
C601 C602 1.398 . S
C602 H590 0.950 . S
C602 C601 1.398 . S
C602 C603 1.391 . S
C603 H591 0.950 . S
C603 C599 1.393 . S
C603 C602 1.391 . S
H604 C612 0.950 . S
H605 C617 0.950 . S
H606 C614 0.950 . S
H607 C616 0.950 . S
H608 C618 0.950 . S
H609 C620 0.950 . S
H610 C622 0.950 . S
H611 C623 0.950 . S
C612 H604 0.950 . S
C612 C613 1.386 . S
C612 C614 1.391 . S
C613 C612 1.386 . S
C613 C617 1.393 . S
C614 H606 0.950 . S
C614 C612 1.391 . S
C614 C615 1.400 . S
C615 C614 1.400 . S
C615 C616 1.398 . S
C615 C621 1.491 . S
C616 H607 0.950 . S
C616 C615 1.398 . S
C616 C617 1.391 . S
C617 H605 0.950 . S
C617 C613 1.393 . S
C617 C616 1.391 . S
C618 H608 0.950 . S
C618 C619 1.386 . S
C618 C620 1.391 . S
C619 C618 1.386 . S
C619 C623 1.393 . S
C620 H609 0.950 . S
C620 C618 1.391 . S
C620 C621 1.400 . S
C621 C615 1.491 . S
C621 C620 1.400 . S
C621 C622 1.398 . S
C622 H610 0.950 . S
C622 C621 1.398 . S
C622 C623 1.391 . S
C623 H611 0.950 . S
C623 C619 1.393 . S
C623 C622 1.391 . S
H624 C632 0.950 1_554 S
H625 C637 0.950 . S
H626 C634 0.950 . S
H627 C636 0.950 . S
H628 C638 0.950 . S
H629 C640 0.950 . S
H630 C642 0.950 . S
H631 C643 0.950 . S
C632 H624 0.950 1_556 S
C632 C633 1.386 . S
C632 C634 1.391 . S
C633 C632 1.386 . S
C633 C637 1.393 . S
C634 H626 0.950 . S
C634 C632 1.391 . S
C634 C635 1.400 . S
C635 C634 1.400 . S
C635 C636 1.398 . S
C635 C641 1.491 . S
C636 H627 0.950 . S
C636 C635 1.398 . S
C636 C637 1.391 . S
C637 H625 0.950 . S
C637 C633 1.393 . S
C637 C636 1.391 . S
C638 H628 0.950 . S
C638 C639 1.386 . S
C638 C640 1.391 . S
C639 C638 1.386 . S
C639 C643 1.393 . S
C640 H629 0.950 . S
C640 C638 1.391 . S
C640 C641 1.400 . S
C641 C635 1.491 . S
C641 C640 1.400 . S
C641 C642 1.398 . S
C642 H630 0.950 . S
C642 C641 1.398 . S
C642 C643 1.391 . S
C643 H631 0.950 . S
C643 C639 1.393 . S
C643 C642 1.391 . S
H644 C652 0.950 . S
H645 C657 0.950 . S
H646 C654 0.970 . S
H647 C656 0.950 . S
H648 C658 0.950 . S
H649 C660 0.950 . S
H650 C662 0.950 . S
H651 C663 0.950 . S
C652 H644 0.950 . S
C652 C653 1.386 . S
C652 C654 1.391 . S
C653 C652 1.386 . S
C653 C657 1.393 . S
C654 H646 0.970 . S
C654 C652 1.391 . S
C654 C655 1.400 . S
C655 C654 1.400 . S
C655 C656 1.398 . S
C655 C661 1.491 1_655 S
C656 H647 0.950 . S
C656 C655 1.398 . S
C656 C657 1.391 . S
C657 H645 0.950 . S
C657 C653 1.393 . S
C657 C656 1.391 . S
C658 H648 0.950 . S
C658 C659 1.386 . S
C658 C660 1.391 . S
C659 C658 1.386 . S
C659 C663 1.393 . S
C660 H649 0.950 . S
C660 C658 1.391 . S
C660 C661 1.400 . S
C661 C655 1.491 1_455 S
C661 C660 1.400 . S
C661 C662 1.398 . S
C662 H650 0.950 . S
C662 C661 1.398 . S
C662 C663 1.391 . S
C663 H651 0.950 . S
C663 C659 1.393 . S
C663 C662 1.391 . S
H664 C672 0.950 . S
H665 C677 0.950 . S
H666 C674 0.950 . S
H667 C676 0.950 . S
H668 C678 0.950 . S
H669 C680 0.950 . S
H670 C682 0.950 . S
H671 C683 0.950 . S
C672 H664 0.950 . S
C672 C673 1.386 . S
C672 C674 1.391 . S
C673 C672 1.386 . S
C673 C677 1.393 . S
C674 H666 0.950 . S
C674 C672 1.391 . S
C674 C675 1.400 . S
C675 C674 1.400 . S
C675 C676 1.398 . S
C675 C681 1.491 1_565 S
C676 H667 0.950 . S
C676 C675 1.398 . S
C676 C677 1.391 . S
C677 H665 0.950 . S
C677 C673 1.393 . S
C677 C676 1.391 . S
C678 H668 0.950 . S
C678 C679 1.386 . S
C678 C680 1.391 . S
C679 C678 1.386 . S
C679 C683 1.393 . S
C680 H669 0.950 . S
C680 C678 1.391 . S
C680 C681 1.400 . S
C681 C675 1.491 1_545 S
C681 C680 1.400 . S
C681 C682 1.398 . S
C682 H670 0.950 . S
C682 C681 1.398 . S
C682 C683 1.391 . S
C683 H671 0.950 . S
C683 C679 1.393 . S
C683 C682 1.391 . S
H684 C692 0.950 . S
H685 C697 0.950 . S
H686 C694 0.950 . S
H687 C696 0.950 . S
H688 C698 0.950 . S
H689 C700 0.950 . S
H690 C702 0.950 . S
H691 C703 0.950 . S
C692 H684 0.950 . S
C692 C693 1.386 . S
C692 C694 1.391 . S
C693 C692 1.386 . S
C693 C697 1.393 . S
C694 H686 0.950 . S
C694 C692 1.391 . S
C694 C695 1.400 . S
C695 C694 1.400 . S
C695 C696 1.398 . S
C695 C701 1.491 . S
C696 H687 0.950 . S
C696 C695 1.398 . S
C696 C697 1.391 . S
C697 H685 0.950 . S
C697 C693 1.393 . S
C697 C696 1.391 . S
C698 H688 0.950 . S
C698 C699 1.386 . S
C698 C700 1.391 . S
C699 C698 1.386 . S
C699 C703 1.393 . S
C700 H689 0.950 . S
C700 C698 1.391 . S
C700 C701 1.400 . S
C701 C695 1.491 . S
C701 C700 1.400 . S
C701 C702 1.398 . S
C702 H690 0.950 . S
C702 C701 1.398 . S
C702 C703 1.391 . S
C703 H691 0.950 . S
C703 C699 1.393 . S
C703 C702 1.391 . S
H704 C712 0.950 . S
H705 C717 0.950 . S
H706 C714 0.950 . S
H707 C716 0.950 . S
H708 C718 0.950 . S
H709 C720 0.950 . S
H710 C722 0.950 . S
H711 C723 0.950 . S
C712 H704 0.950 . S
C712 C713 1.386 . S
C712 C714 1.391 . S
C713 C712 1.386 . S
C713 C717 1.393 . S
C714 H706 0.950 . S
C714 C712 1.391 . S
C714 C715 1.400 . S
C715 C714 1.400 . S
C715 C716 1.398 . S
C715 C721 1.491 1_455 S
C716 H707 0.950 . S
C716 C715 1.398 . S
C716 C717 1.391 . S
C717 H705 0.950 . S
C717 C713 1.393 . S
C717 C716 1.391 . S
C718 H708 0.950 . S
C718 C719 1.386 . S
C718 C720 1.391 . S
C719 C718 1.386 . S
C719 C723 1.393 . S
C720 H709 0.950 . S
C720 C718 1.391 . S
C720 C721 1.400 . S
C721 C715 1.491 1_655 S
C721 C720 1.400 . S
C721 C722 1.398 . S
C722 H710 0.950 . S
C722 C721 1.398 . S
C722 C723 1.391 . S
C723 H711 0.950 . S
C723 C719 1.393 . S
C723 C722 1.391 . S
H724 C732 0.950 . S
H725 C737 0.950 . S
H726 C734 0.950 1_565 S
H727 C736 0.950 . S
H728 C738 0.950 . S
H729 C740 0.950 . S
H730 C742 0.950 . S
H731 C743 0.950 . S
C732 H724 0.950 . S
C732 C733 1.386 . S
C732 C734 1.391 . S
C733 C732 1.386 . S
C733 C737 1.393 . S
C734 H726 0.950 1_545 S
C734 C732 1.391 . S
C734 C735 1.400 . S
C735 C734 1.400 . S
C735 C736 1.398 . S
C735 C741 1.491 1_545 S
C736 H727 0.950 . S
C736 C735 1.398 . S
C736 C737 1.391 . S
C737 H725 0.950 . S
C737 C733 1.393 . S
C737 C736 1.391 . S
C738 H728 0.950 . S
C738 C739 1.386 . S
C738 C740 1.391 . S
C739 C738 1.386 . S
C739 C743 1.393 . S
C740 H729 0.950 . S
C740 C738 1.391 . S
C740 C741 1.400 . S
C741 C735 1.491 1_565 S
C741 C740 1.400 . S
C741 C742 1.398 . S
C742 H730 0.950 . S
C742 C741 1.398 . S
C742 C743 1.391 . S
C743 H731 0.950 . S
C743 C739 1.393 . S
C743 C742 1.391 . S
H744 C752 0.950 . S
H745 C757 0.950 . S
H746 C754 0.950 . S
H747 C756 0.950 . S
H748 C758 0.950 . S
H749 C760 0.950 . S
H750 C762 0.950 . S
H751 C763 0.950 . S
C752 H744 0.950 . S
C752 C753 1.386 . S
C752 C754 1.391 . S
C753 C752 1.386 . S
C753 C757 1.393 . S
C754 H746 0.950 . S
C754 C752 1.391 . S
C754 C755 1.400 . S
C755 C754 1.400 . S
C755 C756 1.398 . S
C755 C761 1.491 . S
C756 H747 0.950 . S
C756 C755 1.398 . S
C756 C757 1.391 . S
C757 H745 0.950 . S
C757 C753 1.393 . S
C757 C756 1.391 . S
C758 H748 0.950 . S
C758 C759 1.386 . S
C758 C760 1.391 . S
C759 C758 1.386 . S
C759 C763 1.393 . S
C760 H749 0.950 . S
C760 C758 1.391 . S
C760 C761 1.400 . S
C761 C755 1.491 . S
C761 C760 1.400 . S
C761 C762 1.398 . S
C762 H750 0.950 . S
C762 C761 1.398 . S
C762 C763 1.391 . S
C763 H751 0.950 . S
C763 C759 1.393 . S
C763 C762 1.391 . S
H764 C772 0.950 . S
H765 C777 0.950 . S
H766 C774 0.950 . S
H767 C776 0.950 . S
H768 C778 0.950 . S
H769 C780 0.950 . S
H770 C782 0.950 . S
H771 C783 0.950 . S
C772 H764 0.950 . S
C772 C773 1.386 . S
C772 C774 1.391 . S
C773 C772 1.386 . S
C773 C777 1.393 . S
C774 H766 0.950 . S
C774 C772 1.391 . S
C774 C775 1.400 . S
C775 C774 1.400 . S
C775 C776 1.398 . S
C775 C781 1.491 1_455 S
C776 H767 0.950 . S
C776 C775 1.398 . S
C776 C777 1.391 . S
C777 H765 0.950 . S
C777 C773 1.393 . S
C777 C776 1.391 . S
C778 H768 0.950 . S
C778 C779 1.386 . S
C778 C780 1.391 . S
C779 C778 1.386 . S
C779 C783 1.393 . S
C780 H769 0.950 . S
C780 C778 1.391 . S
C780 C781 1.400 . S
C781 C775 1.491 1_655 S
C781 C780 1.400 . S
C781 C782 1.398 . S
C782 H770 0.950 . S
C782 C781 1.398 . S
C782 C783 1.391 . S
C783 H771 0.950 . S
C783 C779 1.393 . S
C783 C782 1.391 . S
H784 C792 0.950 . S
H785 C797 0.950 . S
H786 C794 0.950 . S
H787 C796 0.950 . S
H788 C798 0.950 . S
H789 C800 0.959 . S
H790 C802 0.950 . S
H791 C803 0.950 . S
C792 H784 0.950 . S
C792 C793 1.386 . S
C792 C794 1.391 . S
C793 C792 1.386 . S
C793 C797 1.393 . S
C794 H786 0.950 . S
C794 C792 1.391 . S
C794 C795 1.400 . S
C795 C794 1.400 . S
C795 C796 1.398 . S
C795 C801 1.491 1_545 S
C796 H787 0.950 . S
C796 C795 1.398 . S
C796 C797 1.391 . S
C797 H785 0.950 . S
C797 C793 1.393 . S
C797 C796 1.391 . S
C798 H788 0.950 . S
C798 C799 1.386 . S
C798 C800 1.391 . S
C799 C798 1.386 . S
C799 C803 1.393 . S
C800 H789 0.959 . S
C800 C798 1.391 . S
C800 C801 1.400 . S
C801 C795 1.491 1_565 S
C801 C800 1.400 . S
C801 C802 1.398 . S
C802 H790 0.950 . S
C802 C801 1.398 . S
C802 C803 1.391 . S
C803 H791 0.950 . S
C803 C799 1.393 . S
C803 C802 1.391 . S
H804 C812 0.950 . S
H805 C817 0.950 . S
H806 C814 0.950 . S
H807 C816 0.950 . S
H808 C818 0.950 . S
H809 C820 0.950 . S
H810 C822 0.950 . S
H811 C823 0.950 . S
C812 H804 0.950 . S
C812 C813 1.386 . S
C812 C814 1.391 . S
C813 C812 1.386 . S
C813 C817 1.393 . S
C814 H806 0.950 . S
C814 C812 1.391 . S
C814 C815 1.400 . S
C815 C814 1.400 . S
C815 C816 1.398 . S
C815 C821 1.491 . S
C816 H807 0.950 . S
C816 C815 1.398 . S
C816 C817 1.391 . S
C817 H805 0.950 . S
C817 C813 1.393 . S
C817 C816 1.391 . S
C818 H808 0.950 . S
C818 C819 1.386 . S
C818 C820 1.391 . S
C819 C818 1.386 . S
C819 C823 1.393 . S
C820 H809 0.950 . S
C820 C818 1.391 . S
C820 C821 1.400 . S
C821 C815 1.491 . S
C821 C820 1.400 . S
C821 C822 1.398 . S
C822 H810 0.950 . S
C822 C821 1.398 . S
C822 C823 1.391 . S
C823 H811 0.950 . S
C823 C819 1.393 . S
C823 C822 1.391 . S
H824 C832 0.950 . S
H825 C837 0.950 . S
H826 C834 0.950 . S
H827 C836 0.951 . S
H828 C838 0.950 . S
H829 C840 0.950 . S
H830 C842 0.950 . S
H831 C843 0.950 . S
C832 H824 0.950 . S
C832 C833 1.386 . S
C832 C834 1.391 . S
C833 C832 1.386 . S
C833 C837 1.393 . S
C834 H826 0.950 . S
C834 C832 1.391 . S
C834 C835 1.400 . S
C835 C834 1.400 . S
C835 C836 1.398 . S
C835 C841 1.491 1_455 S
C836 H827 0.951 . S
C836 C835 1.398 . S
C836 C837 1.391 . S
C837 H825 0.950 . S
C837 C833 1.393 . S
C837 C836 1.391 . S
C838 H828 0.950 . S
C838 C839 1.386 . S
C838 C840 1.391 . S
C839 C838 1.386 . S
C839 C843 1.393 . S
C840 H829 0.950 . S
C840 C838 1.391 . S
C840 C841 1.400 . S
C841 C835 1.491 1_655 S
C841 C840 1.400 . S
C841 C842 1.398 . S
C842 H830 0.950 . S
C842 C841 1.398 . S
C842 C843 1.391 . S
C843 H831 0.950 . S
C843 C839 1.393 . S
C843 C842 1.391 . S
H844 C852 0.950 . S
H845 C857 0.950 . S
H846 C854 0.950 . S
H847 C856 0.950 . S
H848 C858 0.950 . S
H849 C860 0.950 . S
H850 C862 0.950 . S
H851 C863 0.950 . S
C852 H844 0.950 . S
C852 C853 1.386 . S
C852 C854 1.391 . S
C853 C852 1.386 . S
C853 C857 1.393 . S
C854 H846 0.950 . S
C854 C852 1.391 . S
C854 C855 1.400 . S
C855 C854 1.400 . S
C855 C856 1.398 . S
C855 C861 1.491 1_545 S
C856 H847 0.950 . S
C856 C855 1.398 . S
C856 C857 1.391 . S
C857 H845 0.950 . S
C857 C853 1.393 . S
C857 C856 1.391 . S
C858 H848 0.950 . S
C858 C859 1.386 . S
C858 C860 1.391 . S
C859 C858 1.386 . S
C859 C863 1.393 . S
C860 H849 0.950 . S
C860 C858 1.391 . S
C860 C861 1.400 . S
C861 C855 1.491 1_565 S
C861 C860 1.400 . S
C861 C862 1.398 . S
C862 H850 0.950 . S
C862 C861 1.398 . S
C862 C863 1.391 . S
C863 H851 0.950 . S
C863 C859 1.393 . S
C863 C862 1.391 . S
H864 C872 0.950 . S
H865 C877 0.950 . S
H866 C874 0.950 . S
H867 C876 0.950 . S
H868 C878 0.950 . S
H869 C880 0.950 . S
H870 C882 0.950 . S
H871 C883 0.950 . S
C872 H864 0.950 . S
C872 C873 1.386 . S
C872 C874 1.391 . S
C873 C872 1.386 . S
C873 C877 1.393 . S
C874 H866 0.950 . S
C874 C872 1.391 . S
C874 C875 1.400 . S
C875 C874 1.400 . S
C875 C876 1.398 . S
C875 C881 1.491 . S
C876 H867 0.950 . S
C876 C875 1.398 . S
C876 C877 1.391 . S
C877 H865 0.950 . S
C877 C873 1.393 . S
C877 C876 1.391 . S
C878 H868 0.950 . S
C878 C879 1.386 . S
C878 C880 1.391 . S
C879 C878 1.386 . S
C879 C883 1.393 . S
C880 H869 0.950 . S
C880 C878 1.391 . S
C880 C881 1.400 . S
C881 C875 1.491 . S
C881 C880 1.400 . S
C881 C882 1.398 . S
C882 H870 0.950 . S
C882 C881 1.398 . S
C882 C883 1.391 . S
C883 H871 0.950 . S
C883 C879 1.393 . S
C883 C882 1.391 . S
H884 C892 0.950 . S
H885 C897 0.950 . S
H886 C894 0.950 . S
H887 C896 0.950 . S
H888 C898 0.950 . S
H889 C900 0.950 . S
H890 C902 0.950 . S
H891 C903 0.950 . S
C892 H884 0.950 . S
C892 C893 1.386 . S
C892 C894 1.391 . S
C893 C892 1.386 . S
C893 C897 1.393 . S
C894 H886 0.950 . S
C894 C892 1.391 . S
C894 C895 1.400 . S
C895 C894 1.400 . S
C895 C896 1.398 . S
C895 C901 1.491 . S
C896 H887 0.950 . S
C896 C895 1.398 . S
C896 C897 1.391 . S
C897 H885 0.950 . S
C897 C893 1.393 . S
C897 C896 1.391 . S
C898 H888 0.950 . S
C898 C899 1.386 . S
C898 C900 1.391 . S
C899 C898 1.386 . S
C899 C903 1.393 . S
C900 H889 0.950 . S
C900 C898 1.391 . S
C900 C901 1.400 . S
C901 C895 1.491 . S
C901 C900 1.400 . S
C901 C902 1.398 . S
C902 H890 0.950 . S
C902 C901 1.398 . S
C902 C903 1.391 . S
C903 H891 0.950 . S
C903 C899 1.393 . S
C903 C902 1.391 . S
H904 C912 0.950 . S
H905 C917 0.950 . S
H906 C914 0.950 . S
H907 C916 0.950 . S
H908 C918 0.950 . S
H909 C920 0.950 . S
H910 C922 0.950 . S
H911 C923 0.950 . S
C912 H904 0.950 . S
C912 C913 1.386 . S
C912 C914 1.391 . S
C913 C912 1.386 . S
C913 C917 1.393 . S
C914 H906 0.950 . S
C914 C912 1.391 . S
C914 C915 1.400 . S
C915 C914 1.400 . S
C915 C916 1.398 . S
C915 C921 1.491 . S
C916 H907 0.950 . S
C916 C915 1.398 . S
C916 C917 1.391 . S
C917 H905 0.950 . S
C917 C913 1.393 . S
C917 C916 1.391 . S
C918 H908 0.950 . S
C918 C919 1.386 . S
C918 C920 1.391 . S
C919 C918 1.386 . S
C919 C923 1.393 . S
C920 H909 0.950 . S
C920 C918 1.391 . S
C920 C921 1.400 . S
C921 C915 1.491 . S
C921 C920 1.400 . S
C921 C922 1.398 . S
C922 H910 0.950 . S
C922 C921 1.398 . S
C922 C923 1.391 . S
C923 H911 0.950 . S
C923 C919 1.393 . S
C923 C922 1.391 . S
H924 C932 0.950 . S
H925 C937 0.950 . S
H926 C934 0.950 . S
H927 C936 0.950 . S
H928 C938 0.950 . S
H929 C940 0.950 . S
H930 C942 0.950 . S
H931 C943 0.950 . S
C932 H924 0.950 . S
C932 C933 1.386 . S
C932 C934 1.391 . S
C933 C932 1.386 . S
C933 C937 1.393 . S
C934 H926 0.950 . S
C934 C932 1.391 . S
C934 C935 1.400 . S
C935 C934 1.400 . S
C935 C936 1.398 . S
C935 C941 1.491 . S
C936 H927 0.950 . S
C936 C935 1.398 . S
C936 C937 1.391 . S
C937 H925 0.950 . S
C937 C933 1.393 . S
C937 C936 1.391 . S
C938 H928 0.950 . S
C938 C939 1.386 . S
C938 C940 1.391 . S
C939 C938 1.386 . S
C939 C943 1.393 . S
C940 H929 0.950 . S
C940 C938 1.391 . S
C940 C941 1.400 . S
C941 C935 1.491 . S
C941 C940 1.400 . S
C941 C942 1.398 . S
C942 H930 0.950 . S
C942 C941 1.398 . S
C942 C943 1.391 . S
C943 H931 0.950 . S
C943 C939 1.393 . S
C943 C942 1.391 . S
H944 C952 0.950 . S
H945 C957 0.950 . S
H946 C954 0.950 . S
H947 C956 0.950 . S
H948 C958 0.950 1_554 S
H949 C960 0.950 . S
H950 C962 0.950 . S
H951 C963 0.950 1_554 S
C952 H944 0.950 . S
C952 C953 1.386 . S
C952 C954 1.391 . S
C953 C952 1.386 . S
C953 C957 1.393 . S
C954 H946 0.950 . S
C954 C952 1.391 . S
C954 C955 1.400 . S
C955 C954 1.400 . S
C955 C956 1.398 . S
C955 C961 1.491 . S
C956 H947 0.950 . S
C956 C955 1.398 . S
C956 C957 1.391 . S
C957 H945 0.950 . S
C957 C953 1.393 . S
C957 C956 1.391 . S
C958 H948 0.950 1_556 S
C958 C959 1.386 1_556 S
C958 C960 1.391 . S
C959 C958 1.386 1_554 S
C959 C963 1.393 1_554 S
C960 H949 0.950 . S
C960 C958 1.391 . S
C960 C961 1.400 . S
C961 C955 1.491 . S
C961 C960 1.400 . S
C961 C962 1.398 . S
C962 H950 0.950 . S
C962 C961 1.398 . S
C962 C963 1.391 . S
C963 H951 0.950 1_556 S
C963 C959 1.393 1_556 S
C963 C962 1.391 . S
H964 C972 0.950 1_556 S
H965 C977 0.936 1_556 S
H966 C974 0.950 . S
H967 C976 0.950 . S
H968 C978 0.950 . S
H969 C980 0.950 . S
H970 C982 0.950 . S
H971 C983 0.950 . S
C972 H964 0.950 1_554 S
C972 C973 1.386 1_554 S
C972 C974 1.391 . S
C973 C972 1.386 1_556 S
C973 C977 1.382 1_556 S
C974 H966 0.950 . S
C974 C972 1.391 . S
C974 C975 1.400 . S
C975 C974 1.400 . S
C975 C976 1.398 . S
C975 C981 1.491 . S
C976 H967 0.950 . S
C976 C975 1.398 . S
C976 C977 1.415 . S
C977 H965 0.936 1_554 S
C977 C973 1.382 1_554 S
C977 C976 1.415 . S
C978 H968 0.950 . S
C978 C979 1.386 . S
C978 C980 1.391 . S
C979 C978 1.386 . S
C979 C983 1.393 . S
C980 H969 0.950 . S
C980 C978 1.391 . S
C980 C981 1.400 . S
C981 C975 1.491 . S
C981 C980 1.400 . S
C981 C982 1.398 . S
C982 H970 0.950 . S
C982 C981 1.398 . S
C982 C983 1.391 . S
C983 H971 0.950 . S
C983 C979 1.393 . S
C983 C982 1.391 . S
C273 C5 1.433 . S
C279 C185 1.430 . S
C293 C207 1.433 . S
C299 C31 1.429 . S
C313 C229 1.434 . S
C319 C49 1.428 . S
C333 C75 1.444 . S
C339 C251 1.426 . S
C353 C141 1.444 . S
C359 C93 1.424 . S
C373 C163 1.424 . S
C379 C119 1.440 . S
C393 C9 0.885 . S
C399 C203 0.893 . S
C413 C27 0.940 . S
C419 C225 0.922 . S
C433 C247 0.920 . S
C439 C53 0.939 . S
C453 C137 0.885 . S
C459 C71 0.901 . S
C473 C97 0.893 . S
C479 C159 0.885 . S
C493 C115 0.892 . S
C499 C181 0.885 . S
C513 C138 1.298 . S
C519 C7 1.313 . S
C533 C160 1.299 . S
C539 C28 1.323 . S
C553 C182 1.298 . S
C559 C51 1.323 . S
C573 C72 1.305 . S
C579 C204 1.320 . S
C593 C95 1.297 . S
C599 C226 1.315 . S
C613 C116 1.321 . S
C619 C248 1.295 . S
C633 C8 1.688 . S
C639 C118 1.682 . S
C653 C26 1.690 . S
C659 C4 1.673 . S
C673 C52 1.689 . S
C679 C30 1.670 . S
C693 C48 1.682 . S
C699 C70 1.678 . S
C713 C96 1.677 . S
C719 C74 1.681 . S
C733 C114 1.688 . S
C739 C92 1.682 . S
C753 C162 1.682 . S
C759 C136 1.678 . S
C773 C184 1.682 . S
C779 C158 1.678 . S
C793 C206 1.675 . S
C799 C180 1.675 . S
C813 C202 1.677 . S
C819 C228 1.680 . S
C833 C224 1.676 . S
C839 C250 1.678 . S
C853 C246 1.682 . S
C859 C140 1.684 . S
C873 C227 0.582 . S
C879 C6 0.580 . S
C893 C249 0.518 . S
C899 C29 0.517 . S
C913 C139 0.556 . S
C919 C50 0.564 . S
C933 C161 0.521 . S
C939 C73 0.526 . S
C953 C94 0.531 . S
C959 C183 0.525 . S
C973 C117 0.535 . S
C979 C205 0.528 . S
