# Generated by pormake.
# Topology wir, (6)-cn, num edge types: 1
# Building blocks:
#     Node 0, Type 0, BuildingBlock: MIFKUJ_clean_sbu_0, # of connection points: 6
#     Node 1, Type 0, BuildingBlock: MIFKUJ_clean_sbu_0, # of connection points: 6
#     Node 2, Type 0, BuildingBlock: MIFKUJ_clean_sbu_0, # of connection points: 6
#     Node 3, Type 0, BuildingBlock: MIFKUJ_clean_sbu_0, # of connection points: 6
#     Node 4, Type 0, BuildingBlock: MIFKUJ_clean_sbu_0, # of connection points: 6
#     Node 5, Type 0, BuildingBlock: MIFKUJ_clean_sbu_0, # of connection points: 6
#     Node 6, Type 0, BuildingBlock: MIFKUJ_clean_sbu_0, # of connection points: 6
#     Node 7, Type 0, BuildingBlock: MIFKUJ_clean_sbu_0, # of connection points: 6
#     Node 8, Type 0, BuildingBlock: MIFKUJ_clean_sbu_0, # of connection points: 6
#     Node 9, Type 0, BuildingBlock: MIFKUJ_clean_sbu_0, # of connection points: 6
#     Node 10, Type 0, BuildingBlock: MIFKUJ_clean_sbu_0, # of connection points: 6
#     Node 11, Type 0, BuildingBlock: MIFKUJ_clean_sbu_0, # of connection points: 6
#     Node 12, Type 0, BuildingBlock: MIFKUJ_clean_sbu_0, # of connection points: 6
#     Node 13, Type 0, BuildingBlock: MIFKUJ_clean_sbu_0, # of connection points: 6
#     Node 14, Type 0, BuildingBlock: MIFKUJ_clean_sbu_0, # of connection points: 6
#     Node 15, Type 0, BuildingBlock: MIFKUJ_clean_sbu_0, # of connection points: 6
#     Node 16, Type 0, BuildingBlock: MIFKUJ_clean_sbu_0, # of connection points: 6
#     Node 17, Type 0, BuildingBlock: MIFKUJ_clean_sbu_0, # of connection points: 6
#     Node 18, Type 0, BuildingBlock: MIFKUJ_clean_sbu_0, # of connection points: 6
#     Node 19, Type 0, BuildingBlock: MIFKUJ_clean_sbu_0, # of connection points: 6
#     Node 20, Type 0, BuildingBlock: MIFKUJ_clean_sbu_0, # of connection points: 6
#     Node 21, Type 0, BuildingBlock: MIFKUJ_clean_sbu_0, # of connection points: 6
#     Node 22, Type 0, BuildingBlock: MIFKUJ_clean_sbu_0, # of connection points: 6
#     Node 23, Type 0, BuildingBlock: MIFKUJ_clean_sbu_0, # of connection points: 6
#     Node 24, Type 0, BuildingBlock: MIFKUJ_clean_sbu_0, # of connection points: 6
#     Node 25, Type 0, BuildingBlock: MIFKUJ_clean_sbu_0, # of connection points: 6
#     Node 26, Type 0, BuildingBlock: MIFKUJ_clean_sbu_0, # of connection points: 6
#     Node 27, Type 0, BuildingBlock: MIFKUJ_clean_sbu_0, # of connection points: 6
#     Node 28, Type 0, BuildingBlock: MIFKUJ_clean_sbu_0, # of connection points: 6
#     Node 29, Type 0, BuildingBlock: MIFKUJ_clean_sbu_0, # of connection points: 6
#     Node 30, Type 0, BuildingBlock: MIFKUJ_clean_sbu_0, # of connection points: 6
#     Node 31, Type 0, BuildingBlock: MIFKUJ_clean_sbu_0, # of connection points: 6
#     Edge 32, Type (0, 0), BuildingBlock: KIFKEQ_clean_linker_1, # of connection points: 2
#     Edge 33, Type (0, 0), BuildingBlock: KIFKEQ_clean_linker_1, # of connection points: 2
#     Edge 34, Type (0, 0), BuildingBlock: KIFKEQ_clean_linker_1, # of connection points: 2
#     Edge 35, Type (0, 0), BuildingBlock: KIFKEQ_clean_linker_1, # of connection points: 2
#     Edge 36, Type (0, 0), BuildingBlock: KIFKEQ_clean_linker_1, # of connection points: 2
#     Edge 37, Type (0, 0), BuildingBlock: KIFKEQ_clean_linker_1, # of connection points: 2
#     Edge 38, Type (0, 0), BuildingBlock: KIFKEQ_clean_linker_1, # of connection points: 2
#     Edge 39, Type (0, 0), BuildingBlock: KIFKEQ_clean_linker_1, # of connection points: 2
#     Edge 40, Type (0, 0), BuildingBlock: KIFKEQ_clean_linker_1, # of connection points: 2
#     Edge 41, Type (0, 0), BuildingBlock: KIFKEQ_clean_linker_1, # of connection points: 2
#     Edge 42, Type (0, 0), BuildingBlock: KIFKEQ_clean_linker_1, # of connection points: 2
#     Edge 43, Type (0, 0), BuildingBlock: KIFKEQ_clean_linker_1, # of connection points: 2
#     Edge 44, Type (0, 0), BuildingBlock: KIFKEQ_clean_linker_1, # of connection points: 2
#     Edge 45, Type (0, 0), BuildingBlock: KIFKEQ_clean_linker_1, # of connection points: 2
#     Edge 46, Type (0, 0), BuildingBlock: KIFKEQ_clean_linker_1, # of connection points: 2
#     Edge 47, Type (0, 0), BuildingBlock: KIFKEQ_clean_linker_1, # of connection points: 2
#     Edge 48, Type (0, 0), BuildingBlock: KIFKEQ_clean_linker_1, # of connection points: 2
#     Edge 49, Type (0, 0), BuildingBlock: KIFKEQ_clean_linker_1, # of connection points: 2
#     Edge 50, Type (0, 0), BuildingBlock: KIFKEQ_clean_linker_1, # of connection points: 2
#     Edge 51, Type (0, 0), BuildingBlock: KIFKEQ_clean_linker_1, # of connection points: 2
#     Edge 52, Type (0, 0), BuildingBlock: KIFKEQ_clean_linker_1, # of connection points: 2
#     Edge 53, Type (0, 0), BuildingBlock: KIFKEQ_clean_linker_1, # of connection points: 2
#     Edge 54, Type (0, 0), BuildingBlock: KIFKEQ_clean_linker_1, # of connection points: 2
#     Edge 55, Type (0, 0), BuildingBlock: KIFKEQ_clean_linker_1, # of connection points: 2
#     Edge 56, Type (0, 0), BuildingBlock: KIFKEQ_clean_linker_1, # of connection points: 2
#     Edge 57, Type (0, 0), BuildingBlock: KIFKEQ_clean_linker_1, # of connection points: 2
#     Edge 58, Type (0, 0), BuildingBlock: KIFKEQ_clean_linker_1, # of connection points: 2
#     Edge 59, Type (0, 0), BuildingBlock: KIFKEQ_clean_linker_1, # of connection points: 2
#     Edge 60, Type (0, 0), BuildingBlock: KIFKEQ_clean_linker_1, # of connection points: 2
#     Edge 61, Type (0, 0), BuildingBlock: KIFKEQ_clean_linker_1, # of connection points: 2
#     Edge 62, Type (0, 0), BuildingBlock: KIFKEQ_clean_linker_1, # of connection points: 2
#     Edge 63, Type (0, 0), BuildingBlock: KIFKEQ_clean_linker_1, # of connection points: 2
#     Edge 64, Type (0, 0), BuildingBlock: KIFKEQ_clean_linker_1, # of connection points: 2
#     Edge 65, Type (0, 0), BuildingBlock: KIFKEQ_clean_linker_1, # of connection points: 2
#     Edge 66, Type (0, 0), BuildingBlock: KIFKEQ_clean_linker_1, # of connection points: 2
#     Edge 67, Type (0, 0), BuildingBlock: KIFKEQ_clean_linker_1, # of connection points: 2
#     Edge 68, Type (0, 0), BuildingBlock: KIFKEQ_clean_linker_1, # of connection points: 2
#     Edge 69, Type (0, 0), BuildingBlock: KIFKEQ_clean_linker_1, # of connection points: 2
#     Edge 70, Type (0, 0), BuildingBlock: KIFKEQ_clean_linker_1, # of connection points: 2
#     Edge 71, Type (0, 0), BuildingBlock: KIFKEQ_clean_linker_1, # of connection points: 2
#     Edge 72, Type (0, 0), BuildingBlock: KIFKEQ_clean_linker_1, # of connection points: 2
#     Edge 73, Type (0, 0), BuildingBlock: KIFKEQ_clean_linker_1, # of connection points: 2
#     Edge 74, Type (0, 0), BuildingBlock: KIFKEQ_clean_linker_1, # of connection points: 2
#     Edge 75, Type (0, 0), BuildingBlock: KIFKEQ_clean_linker_1, # of connection points: 2
#     Edge 76, Type (0, 0), BuildingBlock: KIFKEQ_clean_linker_1, # of connection points: 2
#     Edge 77, Type (0, 0), BuildingBlock: KIFKEQ_clean_linker_1, # of connection points: 2
#     Edge 78, Type (0, 0), BuildingBlock: KIFKEQ_clean_linker_1, # of connection points: 2
#     Edge 79, Type (0, 0), BuildingBlock: KIFKEQ_clean_linker_1, # of connection points: 2
#     Edge 80, Type (0, 0), BuildingBlock: KIFKEQ_clean_linker_1, # of connection points: 2
#     Edge 81, Type (0, 0), BuildingBlock: KIFKEQ_clean_linker_1, # of connection points: 2
#     Edge 82, Type (0, 0), BuildingBlock: KIFKEQ_clean_linker_1, # of connection points: 2
#     Edge 83, Type (0, 0), BuildingBlock: KIFKEQ_clean_linker_1, # of connection points: 2
#     Edge 84, Type (0, 0), BuildingBlock: KIFKEQ_clean_linker_1, # of connection points: 2
#     Edge 85, Type (0, 0), BuildingBlock: KIFKEQ_clean_linker_1, # of connection points: 2
#     Edge 86, Type (0, 0), BuildingBlock: KIFKEQ_clean_linker_1, # of connection points: 2
#     Edge 87, Type (0, 0), BuildingBlock: KIFKEQ_clean_linker_1, # of connection points: 2
#     Edge 88, Type (0, 0), BuildingBlock: KIFKEQ_clean_linker_1, # of connection points: 2
#     Edge 89, Type (0, 0), BuildingBlock: KIFKEQ_clean_linker_1, # of connection points: 2
#     Edge 90, Type (0, 0), BuildingBlock: KIFKEQ_clean_linker_1, # of connection points: 2
#     Edge 91, Type (0, 0), BuildingBlock: KIFKEQ_clean_linker_1, # of connection points: 2
#     Edge 92, Type (0, 0), BuildingBlock: KIFKEQ_clean_linker_1, # of connection points: 2
#     Edge 93, Type (0, 0), BuildingBlock: KIFKEQ_clean_linker_1, # of connection points: 2
#     Edge 94, Type (0, 0), BuildingBlock: KIFKEQ_clean_linker_1, # of connection points: 2
#     Edge 95, Type (0, 0), BuildingBlock: KIFKEQ_clean_linker_1, # of connection points: 2
#     Edge 96, Type (0, 0), BuildingBlock: KIFKEQ_clean_linker_1, # of connection points: 2
#     Edge 97, Type (0, 0), BuildingBlock: KIFKEQ_clean_linker_1, # of connection points: 2
#     Edge 98, Type (0, 0), BuildingBlock: KIFKEQ_clean_linker_1, # of connection points: 2
#     Edge 99, Type (0, 0), BuildingBlock: KIFKEQ_clean_linker_1, # of connection points: 2
#     Edge 100, Type (0, 0), BuildingBlock: KIFKEQ_clean_linker_1, # of connection points: 2
#     Edge 101, Type (0, 0), BuildingBlock: KIFKEQ_clean_linker_1, # of connection points: 2
#     Edge 102, Type (0, 0), BuildingBlock: KIFKEQ_clean_linker_1, # of connection points: 2
#     Edge 103, Type (0, 0), BuildingBlock: KIFKEQ_clean_linker_1, # of connection points: 2
#     Edge 104, Type (0, 0), BuildingBlock: KIFKEQ_clean_linker_1, # of connection points: 2
#     Edge 105, Type (0, 0), BuildingBlock: KIFKEQ_clean_linker_1, # of connection points: 2
#     Edge 106, Type (0, 0), BuildingBlock: KIFKEQ_clean_linker_1, # of connection points: 2
#     Edge 107, Type (0, 0), BuildingBlock: KIFKEQ_clean_linker_1, # of connection points: 2
#     Edge 108, Type (0, 0), BuildingBlock: KIFKEQ_clean_linker_1, # of connection points: 2
#     Edge 109, Type (0, 0), BuildingBlock: KIFKEQ_clean_linker_1, # of connection points: 2
#     Edge 110, Type (0, 0), BuildingBlock: KIFKEQ_clean_linker_1, # of connection points: 2
#     Edge 111, Type (0, 0), BuildingBlock: KIFKEQ_clean_linker_1, # of connection points: 2
#     Edge 112, Type (0, 0), BuildingBlock: KIFKEQ_clean_linker_1, # of connection points: 2
#     Edge 113, Type (0, 0), BuildingBlock: KIFKEQ_clean_linker_1, # of connection points: 2
#     Edge 114, Type (0, 0), BuildingBlock: KIFKEQ_clean_linker_1, # of connection points: 2
#     Edge 115, Type (0, 0), BuildingBlock: KIFKEQ_clean_linker_1, # of connection points: 2
#     Edge 116, Type (0, 0), BuildingBlock: KIFKEQ_clean_linker_1, # of connection points: 2
#     Edge 117, Type (0, 0), BuildingBlock: KIFKEQ_clean_linker_1, # of connection points: 2
#     Edge 118, Type (0, 0), BuildingBlock: KIFKEQ_clean_linker_1, # of connection points: 2
#     Edge 119, Type (0, 0), BuildingBlock: KIFKEQ_clean_linker_1, # of connection points: 2
#     Edge 120, Type (0, 0), BuildingBlock: KIFKEQ_clean_linker_1, # of connection points: 2
#     Edge 121, Type (0, 0), BuildingBlock: KIFKEQ_clean_linker_1, # of connection points: 2
#     Edge 122, Type (0, 0), BuildingBlock: KIFKEQ_clean_linker_1, # of connection points: 2
#     Edge 123, Type (0, 0), BuildingBlock: KIFKEQ_clean_linker_1, # of connection points: 2
#     Edge 124, Type (0, 0), BuildingBlock: KIFKEQ_clean_linker_1, # of connection points: 2
#     Edge 125, Type (0, 0), BuildingBlock: KIFKEQ_clean_linker_1, # of connection points: 2
#     Edge 126, Type (0, 0), BuildingBlock: KIFKEQ_clean_linker_1, # of connection points: 2
#     Edge 127, Type (0, 0), BuildingBlock: KIFKEQ_clean_linker_1, # of connection points: 2
# Relax obj value: 0.300
# Max RMSD: 0.183
# Mean RMSD: 0.183
data_MOF--net-wir--node1-MIFKUJ_clean_sbu_0--edge1-KIFKEQ_clean_linker_1
_symmetry_space_group_name_H-M    P1
_symmetry_Int_Tables_number       1
_symmetry_cell_setting            triclinic
loop_
_symmetry_equiv_pos_as_xyz
'x, y, z'
_cell_length_a     37.474143
_cell_length_b     37.403307
_cell_length_c     92.855553
_cell_angle_alpha  90.251291
_cell_angle_beta   90.12639
_cell_angle_gamma 89.940039
loop_
_atom_site_label
_atom_site_type_symbol
_atom_site_fract_x
_atom_site_fract_y
_atom_site_fract_z
_atom_type_partial_charge
Zn0 Zn 0.1993 0.14769 0.36181 0.0
Zn1 Zn 0.19717 0.18209 0.39112 0.0
C2 C 0.212 0.19316 0.3381 0.0
O3 O 0.17994 0.18046 0.33549 0.0
C4 C 0.16667 0.10805 0.39663 0.0
O5 O 0.18688 0.10329 0.40804 0.0
O6 O 0.19057 0.10784 0.34701 0.0
O7 O 0.23221 0.12297 0.37779 0.0
O8 O 0.2495 0.17286 0.38765 0.0
C9 C 0.21771 0.09973 0.33941 0.0
O10 O 0.24831 0.11532 0.3423 0.0
O11 O 0.22735 0.18442 0.34987 0.0
C12 C 0.21859 0.19494 0.42058 0.0
O13 O 0.2437 0.17153 0.41779 0.0
O14 O 0.19462 0.20119 0.41122 0.0
O15 O 0.17022 0.21789 0.37886 0.0
O16 O 0.1494 0.17285 0.3661 0.0
O17 O 0.1684 0.13709 0.38968 0.0
C18 C 0.25405 0.13953 0.38603 0.0
C19 C 0.14505 0.20426 0.37141 0.0
Zn20 Zn 0.13415 0.97368 0.61014 0.0
Zn21 Zn 0.10795 0.96867 0.64155 0.0
C22 C 0.0979 0.98424 0.58396 0.0
O23 O 0.11026 0.95149 0.58268 0.0
C24 C 0.18285 0.94733 0.64284 0.0
O25 O 0.18455 0.96913 0.65395 0.0
O26 O 0.1766 0.95886 0.59765 0.0
O27 O 0.156 1.00982 0.62574 0.0
O28 O 0.10743 1.02075 0.63767 0.0
C29 C 0.19654 0.98432 0.59346 0.0
O30 O 0.18999 1.01675 0.59828 0.0
O31 O 0.10371 1.00119 0.59569 0.0
C32 C 0.10379 0.93549 0.66954 0.0
O33 O 0.10494 0.90534 0.66224 0.0
O34 O 0.10437 0.965 0.66286 0.0
O35 O 0.06876 0.94049 0.63288 0.0
O36 O 0.10367 0.92668 0.61455 0.0
O37 O 0.15364 0.94421 0.63602 0.0
C38 C 0.13942 1.02888 0.63501 0.0
C39 C 0.07674 0.91957 0.62257 0.0
Zn40 Zn 0.35002 0.88617 0.8571 0.0
Zn41 Zn 0.34973 0.86979 0.8938 0.0
C42 C 0.34201 0.84022 0.83266 0.0
O43 O 0.37493 0.85173 0.83124 0.0
C44 C 0.35607 0.94447 0.90183 0.0
O45 O 0.33144 0.93585 0.91123 0.0
O46 O 0.36519 0.92592 0.8433 0.0
O47 O 0.31379 0.91186 0.87112 0.0
O48 O 0.30331 0.86451 0.88364 0.0
C49 C 0.34244 0.93418 0.83364 0.0
O50 O 0.31138 0.91795 0.83352 0.0
O51 O 0.32437 0.85009 0.84374 0.0
C52 C 0.35889 0.86847 0.92486 0.0
O53 O 0.38981 0.88365 0.92228 0.0
O54 O 0.33893 0.85928 0.91442 0.0
O55 O 0.3892 0.8377 0.88669 0.0
O56 O 0.39622 0.85881 0.86451 0.0
O57 O 0.36728 0.92083 0.89304 0.0
C58 C 0.29456 0.89613 0.88045 0.0
C59 C 0.40713 0.83953 0.87507 0.0
Zn60 Zn 0.41759 0.0975 0.11128 0.0
Zn61 Zn 0.42093 0.13339 0.149 0.0
C62 C 0.4595 0.08429 0.08644 0.0
O63 O 0.44346 0.11477 0.08369 0.0
C64 C 0.44341 0.18156 0.17003 0.0
O65 O 0.47384 0.16771 0.16573 0.0
O66 O 0.37528 0.10249 0.09769 0.0
O67 O 0.39784 0.06663 0.12912 0.0
O68 O 0.37627 0.10653 0.14451 0.0
C69 C 0.36577 0.07441 0.09092 0.0
O70 O 0.38145 0.04398 0.09407 0.0
O71 O 0.45377 0.06956 0.09863 0.0
C72 C 0.48196 0.08745 0.14396 0.0
O73 O 0.4775 0.09701 0.1305 0.0
O74 O 0.4604 0.09885 0.15347 0.0
O75 O 0.4372 0.16895 0.13486 0.0
O76 O 0.43989 0.14897 0.1125 0.0
O77 O 0.41446 0.16718 0.16574 0.0
C78 C 0.3791 0.07424 0.14033 0.0
C79 C 0.44486 0.1737 0.12178 0.0
Zn80 Zn 0.20488 0.87613 0.23349 0.0
Zn81 Zn 0.14944 0.92091 0.20996 0.0
C82 C 0.21811 0.82899 0.25679 0.0
O83 O 0.18415 0.83695 0.25827 0.0
C84 C 0.12448 0.95356 0.23687 0.0
O85 O 0.12762 0.97389 0.24834 0.0
O86 O 0.19507 0.91529 0.24835 0.0
O87 O 0.23611 0.89719 0.21615 0.0
O88 O 0.1977 0.92217 0.20091 0.0
C89 C 0.22255 0.92811 0.2546 0.0
O90 O 0.25419 0.91735 0.2503 0.0
O91 O 0.23489 0.84186 0.24603 0.0
C92 C 0.09952 0.93731 0.18572 0.0
O93 O 0.07642 0.95851 0.17939 0.0
O94 O 0.11648 0.9488 0.19673 0.0
O95 O 0.12735 0.87249 0.21184 0.0
O96 O 0.15886 0.84579 0.22892 0.0
O97 O 0.15164 0.94714 0.2291 0.0
C98 C 0.22946 0.91379 0.20432 0.0
C99 C 0.13223 0.84638 0.22029 0.0
Zn100 Zn 0.421 0.96518 0.48916 0.0
Zn101 Zn 0.44435 0.95975 0.45686 0.0
C102 C 0.47038 0.9769 0.51226 0.0
O103 O 0.46292 0.94272 0.51342 0.0
C104 C 0.3723 0.93837 0.45171 0.0
O105 O 0.37501 0.96321 0.44182 0.0
O106 O 0.38254 0.95289 0.50388 0.0
O107 O 0.39319 0.99753 0.47364 0.0
O108 O 0.43891 1.01207 0.4606 0.0
C109 C 0.36597 0.9799 0.50894 0.0
O110 O 0.37382 1.01168 0.50387 0.0
O111 O 0.45628 0.9943 0.50186 0.0
C112 C 0.44907 0.92842 0.42838 0.0
O113 O 0.44185 0.89808 0.43483 0.0
O114 O 0.45245 0.95686 0.43577 0.0
O115 O 0.48427 0.93368 0.46647 0.0
O116 O 0.44814 0.91662 0.48382 0.0
O117 O 0.39869 0.93248 0.45998 0.0
C118 C 0.4066 1.01739 0.46385 0.0
C119 C 0.47586 0.91101 0.47602 0.0
Zn120 Zn 0.33056 0.17616 0.73635 0.0
Zn121 Zn 0.31756 0.21995 0.70783 0.0
C122 C 0.31907 0.23042 0.75781 0.0
O123 O 0.35407 0.22844 0.75795 0.0
C124 C 0.34679 0.15532 0.69275 0.0
O125 O 0.32129 0.15726 0.68309 0.0
O126 O 0.34661 0.13627 0.75018 0.0
O127 O 0.29884 0.15071 0.72093 0.0
O128 O 0.27063 0.19906 0.71436 0.0
C129 C 0.33334 0.13339 0.76277 0.0
O130 O 0.30847 0.15588 0.7669 0.0
O131 O 0.30184 0.21143 0.7487 0.0
C132 C 0.28515 0.23796 0.68012 0.0
O133 O 0.26864 0.20724 0.68128 0.0
O134 O 0.3067 0.24816 0.68993 0.0
O135 O 0.34989 0.25073 0.72063 0.0
O136 O 0.3762 0.20301 0.72966 0.0
O137 O 0.34907 0.17866 0.70267 0.0
C138 C 0.27261 0.16514 0.71437 0.0
C139 C 0.37785 0.23567 0.72566 0.0
Zn140 Zn 0.1568 0.09604 0.98141 0.0
Zn141 Zn 0.11487 0.08544 0.95316 0.0
C142 C 0.10594 0.08534 1.00356 0.0
O143 O 0.11428 0.11924 1.00515 0.0
C144 C 0.173 0.10273 0.93427 0.0
O145 O 0.16099 0.0748 0.92715 0.0
O146 O 0.1943 0.10545 0.99684 0.0
O147 O 0.18262 0.06502 0.9658 0.0
O148 O 0.13344 0.03775 0.96007 0.0
C149 C 0.20285 0.07746 1.00382 0.0
O150 O 0.1892 0.04668 0.99975 0.0
O151 O 0.11936 0.0681 0.99297 0.0
C152 C 0.07489 0.04378 0.93183 0.0
O153 O 0.08159 1.01584 0.93992 0.0
O154 O 0.08549 0.07461 0.93575 0.0
O155 O 0.08573 0.11986 0.96575 0.0
O156 O 0.13342 0.14445 0.97549 0.0
O157 O 0.15702 0.11284 0.94566 0.0
C158 C 0.16725 0.03877 0.95957 0.0
C159 C 0.10092 0.14704 0.97139 0.0
Zn160 Zn 0.92054 0.93877 0.72555 0.0
Zn161 Zn 0.86377 0.87725 0.73956 0.0
C162 C 0.95176 0.9701 0.75167 0.0
O163 O 0.95124 0.98678 0.76413 0.0
C164 C 0.84773 0.82813 0.76204 0.0
O165 O 0.88234 0.83211 0.76365 0.0
O166 O 0.95163 0.96803 0.71192 0.0
O167 O 0.94476 0.89001 0.7256 0.0
O168 O 0.90994 0.84824 0.73473 0.0
C169 C 0.96624 0.96 0.69988 0.0
O170 O 0.98702 0.98378 0.69379 0.0
O171 O 0.92264 0.96178 0.74547 0.0
C172 C 0.84477 0.93643 0.7571 0.0
O173 O 0.81475 0.92999 0.75023 0.0
O174 O 0.87202 0.91745 0.75405 0.0
O175 O 0.83509 0.89739 0.72185 0.0
O176 O 0.87049 0.94312 0.71691 0.0
O177 O 0.83235 0.8439 0.75156 0.0
C178 C 0.93964 0.85768 0.72921 0.0
C179 C 0.84121 0.92648 0.71504 0.0
Zn180 Zn 0.9381 0.10934 0.44832 0.0
Zn181 Zn 0.91345 0.10664 0.47911 0.0
C182 C 0.86166 0.13486 0.44659 0.0
O183 O 0.8542 0.1113 0.4365 0.0
C184 C 0.96665 0.09738 0.50017 0.0
O185 O 0.9578 0.13116 0.50176 0.0
O186 O 0.95101 0.11145 0.42743 0.0
O187 O 0.97658 0.13786 0.45915 0.0
O188 O 0.93497 0.15663 0.47402 0.0
C189 C 0.93897 0.08881 0.41838 0.0
O190 O 0.9135 0.06687 0.42226 0.0
O191 O 0.89307 0.13701 0.45164 0.0
C192 C 0.87001 0.08594 0.50137 0.0
O193 O 0.88312 0.05569 0.49643 0.0
O194 O 0.87821 0.11488 0.49505 0.0
O195 O 0.88482 0.07309 0.46503 0.0
O196 O 0.92957 0.05639 0.4517 0.0
O197 O 0.95248 0.07957 0.48991 0.0
C198 C 0.96475 0.16191 0.46769 0.0
C199 C 0.89774 0.05132 0.45581 0.0
Zn200 Zn 0.72371 0.18241 0.21046 0.0
Zn201 Zn 0.7104 0.13804 0.2368 0.0
C202 C 0.70142 0.12375 0.1911 0.0
O203 O 0.73145 0.12942 0.18421 0.0
C204 C 0.72144 0.18627 0.26013 0.0
O205 O 0.68923 0.1738 0.26251 0.0
O206 O 0.73792 0.2145 0.19436 0.0
O207 O 0.69016 0.21093 0.2235 0.0
O208 O 0.66256 0.16222 0.23053 0.0
C209 C 0.72023 0.21728 0.18276 0.0
O210 O 0.69006 0.19977 0.18132 0.0
O211 O 0.69379 0.14275 0.20205 0.0
C212 C 0.72569 0.09194 0.26 0.0
O213 O 0.75657 0.10757 0.25781 0.0
O214 O 0.69967 0.09943 0.25168 0.0
O215 O 0.74214 0.11258 0.22123 0.0
O216 O 0.77075 0.16181 0.217 0.0
O217 O 0.73765 0.17604 0.24874 0.0
C218 C 0.66156 0.19559 0.22761 0.0
C219 C 0.76917 0.12808 0.21577 0.0
Zn220 Zn 0.61088 0.97855 0.95894 0.0
Zn221 Zn 0.66254 0.96361 0.98452 0.0
C222 C 0.62799 0.92932 0.93687 0.0
O223 O 0.59336 0.92433 0.93775 0.0
C224 C 0.61259 0.97379 1.00722 0.0
O225 O 0.62322 0.94062 1.00901 0.0
O226 O 0.57182 0.99586 0.94617 0.0
O227 O 0.58916 0.9413 0.97256 0.0
O228 O 0.63996 0.91571 0.97856 0.0
C229 C 0.55677 1.02631 0.9463 0.0
O230 O 0.56499 0.04988 0.95629 0.0
O231 O 0.64282 0.95134 0.94545 0.0
C232 C 0.70935 0.98029 1.00739 0.0
O233 O 0.69412 1.01127 1.00479 0.0
O234 O 0.70141 0.95374 0.99938 0.0
O235 O 0.68635 0.99267 0.96808 0.0
O236 O 0.63772 1.02331 0.96472 0.0
O237 O 0.62473 0.99112 0.99645 0.0
C238 C 0.60649 0.91335 0.97618 0.0
C239 C 0.67097 1.01975 0.96258 0.0
Zn240 Zn 0.85675 0.21569 0.88625 0.0
Zn241 Zn 0.84153 0.17651 0.857 0.0
C242 C 0.87986 0.14491 0.89315 0.0
O243 O 0.86006 0.15126 0.90454 0.0
C244 C 0.82609 0.21967 0.83249 0.0
O245 O 0.85988 0.21184 0.83042 0.0
O246 O 0.88076 0.24187 0.90269 0.0
O247 O 0.86494 0.24895 0.86968 0.0
O248 O 0.89037 0.20357 0.85926 0.0
C249 C 0.91473 0.24147 0.90226 0.0
O250 O 0.93063 0.22065 0.89282 0.0
O251 O 0.88303 0.16903 0.88367 0.0
C252 C 0.82604 0.11558 0.83898 0.0
O253 O 0.79352 0.12462 0.84283 0.0
O254 O 0.85216 0.13315 0.8442 0.0
O255 O 0.81103 0.1578 0.87496 0.0
O256 O 0.80653 0.20221 0.89069 0.0
O257 O 0.81083 0.20801 0.84382 0.0
C258 C 0.89143 0.23649 0.86287 0.0
C259 C 0.79697 0.17129 0.88639 0.0
Zn260 Zn 0.63018 0.08943 0.64142 0.0
Zn261 Zn 0.67597 0.09759 0.61389 0.0
C262 C 0.6765 0.10181 0.66553 0.0
O263 O 0.66421 0.07019 0.66908 0.0
C264 C 0.62639 0.08811 0.59089 0.0
O265 O 0.64117 0.11922 0.58822 0.0
O266 O 0.58959 0.07669 0.65415 0.0
O267 O 0.60788 0.12514 0.62697 0.0
O268 O 0.65853 0.14756 0.61945 0.0
C269 C 0.58086 0.09752 0.66436 0.0
O270 O 0.59888 0.12725 0.66637 0.0
O271 O 0.66589 0.11601 0.65383 0.0
C272 C 0.72082 0.07684 0.59144 0.0
O273 O 0.70589 0.04634 0.59496 0.0
O274 O 0.7133 0.10467 0.59872 0.0
O275 O 0.70166 0.06819 0.62966 0.0
O276 O 0.65349 0.04149 0.63704 0.0
O277 O 0.6355 0.0719 0.60245 0.0
C278 C 0.62549 0.15161 0.62212 0.0
C279 C 0.68733 0.04312 0.63683 0.0
Zn280 Zn 0.64701 0.92601 0.38245 0.0
Zn281 Zn 0.70157 0.8677 0.36406 0.0
C282 C 0.62491 0.96578 0.35675 0.0
O283 O 0.63012 0.98709 0.34577 0.0
C284 C 0.7143 0.82102 0.34071 0.0
O285 O 0.68018 0.82834 0.3393 0.0
O286 O 0.61537 0.95483 0.3961 0.0
O287 O 0.62079 0.87901 0.37969 0.0
O288 O 0.65483 0.83933 0.36859 0.0
C289 C 0.59731 0.94418 0.40692 0.0
O290 O 0.57612 0.96704 0.41345 0.0
O291 O 0.65145 0.95359 0.36371 0.0
C292 C 0.72092 0.91991 0.34388 0.0
O293 O 0.75206 0.90875 0.34861 0.0
O294 O 0.69278 0.90713 0.34953 0.0
O295 O 0.7331 0.88752 0.38123 0.0
O296 O 0.6957 0.92505 0.39196 0.0
O297 O 0.73101 0.83363 0.35159 0.0
C298 C 0.6252 0.84786 0.37445 0.0
C299 C 0.72636 0.91066 0.39109 0.0
Zn300 Zn 0.95041 0.94006 0.14324 0.0
Zn301 Zn 0.93373 0.95568 0.11159 0.0
C302 C 0.87531 0.92226 0.13917 0.0
O303 O 0.87062 0.94163 0.15085 0.0
C304 C 0.9746 0.96785 0.08661 0.0
O305 O 0.96189 0.93543 0.08472 0.0
O306 O 0.94827 0.92681 0.16394 0.0
O307 O 0.99297 0.91624 0.13492 0.0
O308 O 0.9612 0.90634 0.11532 0.0
C309 C 0.95061 0.89553 0.16913 0.0
O310 O 0.95445 0.86803 0.16041 0.0
O311 O 0.90648 0.91924 0.13399 0.0
C312 C 0.88078 0.9735 0.09175 0.0
O313 O 0.89369 1.00453 0.09592 0.0
O314 O 0.89283 0.9453 0.09768 0.0
O315 O 0.90907 0.98952 0.12752 0.0
O316 O 0.95145 0.99307 0.14353 0.0
O317 O 0.96763 0.98402 0.09843 0.0
C318 C 0.98681 0.89748 0.12378 0.0
C319 C 0.92185 1.00432 0.13886 0.0
Zn320 Zn 0.70155 0.65401 0.86568 0.0
Zn321 Zn 0.72358 0.72121 0.8881 0.0
C322 C 0.71515 0.6981 0.84162 0.0
O323 O 0.68263 0.68653 0.83907 0.0
C324 C 0.70501 0.74942 0.91556 0.0
O325 O 0.71211 0.71749 0.92066 0.0
O326 O 0.69213 0.61456 0.85118 0.0
O327 O 0.73039 0.631 0.88256 0.0
O328 O 0.74148 0.67523 0.89786 0.0
C329 C 0.71882 0.59905 0.84546 0.0
O330 O 0.75096 0.60665 0.85025 0.0
O331 O 0.73019 0.68915 0.85341 0.0
C332 C 0.76661 0.77013 0.87045 0.0
O333 O 0.7917 0.77804 0.86116 0.0
O334 O 0.75941 0.73758 0.87308 0.0
O335 O 0.6722 0.72444 0.88087 0.0
O336 O 0.65202 0.67583 0.87015 0.0
O337 O 0.71893 0.75839 0.90366 0.0
C338 C 0.74385 0.64225 0.89442 0.0
C339 C 0.64667 0.70719 0.87511 0.0
Zn340 Zn 0.64067 0.45898 0.10768 0.0
Zn341 Zn 0.61382 0.45833 0.13884 0.0
C342 C 0.59471 0.47174 0.08417 0.0
O343 O 0.60175 0.43752 0.08259 0.0
C344 C 0.68652 0.4352 0.14382 0.0
O345 O 0.68543 0.45912 0.15421 0.0
O346 O 0.67968 0.44493 0.09369 0.0
O347 O 0.66604 0.49316 0.12269 0.0
O348 O 0.61755 0.5098 0.13357 0.0
C349 C 0.6972 0.47111 0.08862 0.0
O350 O 0.68995 0.50347 0.09336 0.0
O351 O 0.60773 0.48826 0.095 0.0
C352 C 0.60861 0.43098 0.16784 0.0
O353 O 0.61507 0.39982 0.1618 0.0
O354 O 0.60612 0.45869 0.16006 0.0
O355 O 0.57516 0.42962 0.12979 0.0
O356 O 0.6119 0.41203 0.11262 0.0
O357 O 0.65944 0.43119 0.13574 0.0
C358 C 0.65028 0.51505 0.13112 0.0
C359 C 0.58398 0.40681 0.12026 0.0
Zn360 Zn 0.85385 0.39251 0.35833 0.0
Zn361 Zn 0.84831 0.36421 0.38914 0.0
C362 C 0.84144 0.33675 0.33797 0.0
O363 O 0.87559 0.34341 0.33627 0.0
C364 C 0.87382 0.436 0.39781 0.0
O365 O 0.84473 0.4392 0.40556 0.0
O366 O 0.8652 0.4258 0.34196 0.0
O367 O 0.82321 0.42514 0.37206 0.0
O368 O 0.79907 0.38014 0.38296 0.0
C369 C 0.8377 0.43368 0.33457 0.0
O370 O 0.80656 0.42114 0.33861 0.0
O371 O 0.82468 0.35337 0.34793 0.0
C372 C 0.84743 0.35412 0.42106 0.0
O373 O 0.87317 0.37758 0.42272 0.0
O374 O 0.83695 0.34518 0.40855 0.0
O375 O 0.87892 0.32698 0.37843 0.0
O376 O 0.90201 0.36921 0.36491 0.0
O377 O 0.87985 0.40719 0.39096 0.0
C378 C 0.79884 0.41336 0.38032 0.0
C379 C 0.9051 0.33883 0.37108 0.0
Zn380 Zn 0.91613 0.61083 0.61337 0.0
Zn381 Zn 0.90114 0.66063 0.63912 0.0
C382 C 0.96007 0.59249 0.59005 0.0
O383 O 0.94962 0.62538 0.58745 0.0
C384 C 0.93455 0.71511 0.65522 0.0
O385 O 0.96203 0.70098 0.64854 0.0
O386 O 0.87719 0.62044 0.59861 0.0
O387 O 0.88937 0.58365 0.63074 0.0
O388 O 0.86081 0.62696 0.64235 0.0
C389 C 0.86502 0.59227 0.59264 0.0
O390 O 0.87594 0.56107 0.59739 0.0
O391 O 0.94968 0.57777 0.60172 0.0
C392 C 0.95179 0.61764 0.65384 0.0
O393 O 0.92766 0.62154 0.66398 0.0
O394 O 0.94609 0.63142 0.64158 0.0
O395 O 0.90014 0.68904 0.62089 0.0
O396 O 0.9467 0.65776 0.61535 0.0
O397 O 0.90401 0.70046 0.65387 0.0
C398 C 0.86534 0.59375 0.63982 0.0
C399 C 0.93181 0.68827 0.61626 0.0
Zn400 Zn 0.68105 0.40759 0.73209 0.0
Zn401 Zn 0.6964 0.3417 0.7073 0.0
C402 C 0.6965 0.36296 0.75555 0.0
O403 O 0.66564 0.37742 0.75893 0.0
C404 C 0.6711 0.27881 0.69376 0.0
O405 O 0.67217 0.26853 0.70722 0.0
O406 O 0.6763 0.4469 0.74703 0.0
O407 O 0.7079 0.43043 0.71467 0.0
O408 O 0.71662 0.38756 0.69851 0.0
C409 C 0.70483 0.46111 0.75179 0.0
O410 O 0.73536 0.45229 0.7458 0.0
O411 O 0.71 0.37031 0.7433 0.0
C412 C 0.72551 0.2917 0.728 0.0
O413 O 0.69503 0.29505 0.73486 0.0
O414 O 0.73389 0.31575 0.719 0.0
O415 O 0.64621 0.34206 0.71562 0.0
O416 O 0.62989 0.38824 0.7288 0.0
O417 O 0.68514 0.30874 0.69052 0.0
C418 C 0.72017 0.42005 0.70249 0.0
C419 C 0.6223 0.35868 0.72265 0.0
Zn420 Zn 0.92404 0.44672 0.98671 0.0
Zn421 Zn 0.98741 0.46892 0.96246 0.0
C422 C 0.9644 0.46028 1.01265 0.0
O423 O 0.95421 0.42709 1.0147 0.0
C424 C 0.04022 0.46087 0.93858 0.0
O425 O 0.06912 0.4712 0.9318 0.0
O426 O 0.88261 0.43493 0.99983 0.0
O427 O 0.90035 0.47631 0.96989 0.0
O428 O 0.94133 0.48742 0.95337 0.0
C429 C 0.86386 0.46174 1.0036 0.0
O430 O 0.87121 0.4931 0.99802 0.0
O431 O 0.95575 0.47547 1.00084 0.0
C432 C 1.02967 0.49921 0.98602 0.0
O433 O 0.03674 0.52323 0.99596 0.0
O434 O 0.99892 0.49845 0.98018 0.0
O435 O 0.99018 0.41517 0.96601 0.0
O436 O 0.94832 0.39819 0.98129 0.0
O437 O 1.02778 0.48045 0.94864 0.0
C438 C 0.90921 0.48966 0.95773 0.0
C439 C 0.97482 0.39062 0.97317 0.0
Zn440 Zn 0.84474 0.65645 0.23118 0.0
Zn441 Zn 0.83726 0.68748 0.19692 0.0
C442 C 0.83518 0.69838 0.25617 0.0
O443 O 0.86771 0.68581 0.25775 0.0
C444 C 0.84413 0.61858 0.18196 0.0
O445 O 0.81955 0.63072 0.17314 0.0
O446 O 0.85771 0.61621 0.24457 0.0
O447 O 0.81066 0.63242 0.21646 0.0
O448 O 0.79194 0.68288 0.20803 0.0
C449 C 0.83049 0.6038 0.25097 0.0
O450 O 0.79888 0.61664 0.24763 0.0
O451 O 0.81833 0.69103 0.24457 0.0
C452 C 0.84014 0.70846 0.16685 0.0
O453 O 0.8701 0.69018 0.16657 0.0
O454 O 0.8229 0.7111 0.17856 0.0
O455 O 0.87887 0.71486 0.20582 0.0
O456 O 0.8915 0.68185 0.22499 0.0
O457 O 0.85524 0.63809 0.19227 0.0
C458 C 0.78746 0.64949 0.20921 0.0
C459 C 0.90004 0.70624 0.21603 0.0
Zn460 Zn 0.6639 0.61834 0.48121 0.0
Zn461 Zn 0.59738 0.62448 0.45423 0.0
C462 C 0.61569 0.60539 0.50465 0.0
O463 O 0.62821 0.63715 0.50803 0.0
C464 C 0.61004 0.68329 0.434 0.0
O465 O 0.64023 0.6669 0.43112 0.0
O466 O 0.70448 0.62186 0.4957 0.0
O467 O 0.68242 0.5891 0.46341 0.0
O468 O 0.64119 0.59715 0.44657 0.0
C469 C 0.71093 0.59374 0.50292 0.0
O470 O 0.69383 0.56418 0.49957 0.0
O471 O 0.62554 0.59112 0.49278 0.0
C472 C 0.55501 0.56413 0.44438 0.0
O473 O 0.58255 0.55664 0.43617 0.0
O474 O 0.55584 0.59147 0.45253 0.0
O475 O 0.59516 0.64444 0.47437 0.0
O476 O 0.64637 0.67021 0.47742 0.0
O477 O 0.58787 0.66878 0.44248 0.0
C478 C 0.67098 0.58395 0.45056 0.0
C479 C 0.61269 0.67306 0.47621 0.0
Zn480 Zn 0.41732 0.43098 0.2212 0.0
Zn481 Zn 0.35772 0.37073 0.23483 0.0
C482 C 0.44597 0.46851 0.24651 0.0
O483 O 0.44392 0.48716 0.25849 0.0
C484 C 0.34121 0.32505 0.2581 0.0
O485 O 0.37554 0.33082 0.25983 0.0
O486 O 0.44968 0.45599 0.20679 0.0
O487 O 0.44048 0.38224 0.22351 0.0
O488 O 0.40314 0.34001 0.23034 0.0
C489 C 0.46483 0.44288 0.19562 0.0
O490 O 0.48698 0.4631 0.18835 0.0
O491 O 0.41764 0.4577 0.24035 0.0
C492 C 0.34293 0.42937 0.25292 0.0
O493 O 0.31216 0.42483 0.24635 0.0
O494 O 0.36909 0.40961 0.2493 0.0
O495 O 0.32883 0.39381 0.21761 0.0
O496 O 0.3683 0.43535 0.21197 0.0
O497 O 0.32569 0.3386 0.24715 0.0
C498 C 0.43444 0.34974 0.22661 0.0
C499 C 0.33755 0.42156 0.21036 0.0
Zn500 Zn 0.4337 0.66534 0.9517 0.0
Zn501 Zn 0.41931 0.6202 0.98159 0.0
C502 C 0.36598 0.68317 0.96787 0.0
O503 O 0.35113 0.65335 0.96339 0.0
C504 C 0.45738 0.60096 1.00602 0.0
O505 O 0.44293 0.63196 1.0093 0.0
O506 O 0.45229 0.69919 0.93666 0.0
O507 O 0.47821 0.65682 0.96327 0.0
O508 O 0.44614 0.66909 0.98203 0.0
C509 C 0.45824 0.7314 0.94046 0.0
O510 O 0.44453 0.7431 0.9526 0.0
O511 O 0.39724 0.69139 0.96377 0.0
C512 C 0.36404 0.59542 0.99915 0.0
O513 O 0.37724 0.56558 0.99386 0.0
O514 O 0.37649 0.625 0.99472 0.0
O515 O 0.4002 0.59321 0.9629 0.0
O516 O 0.41171 0.62233 0.94272 0.0
O517 O 0.45209 0.58815 0.99344 0.0
C518 C 0.47402 0.67506 0.97464 0.0
C519 C 0.39814 0.59568 0.94913 0.0
Zn520 Zn 0.22521 0.68966 0.70077 0.0
Zn521 Zn 0.21562 0.64871 0.72846 0.0
C522 C 0.19834 0.63208 0.68214 0.0
O523 O 0.22622 0.63875 0.67404 0.0
C524 C 0.22724 0.70028 0.75053 0.0
O525 O 0.19329 0.69247 0.75206 0.0
O526 O 0.23728 0.72063 0.68405 0.0
O527 O 0.19397 0.72016 0.71416 0.0
O528 O 0.1676 0.67245 0.72274 0.0
C529 C 0.21785 0.72472 0.67298 0.0
O530 O 0.18665 0.70881 0.6723 0.0
O531 O 0.19366 0.64978 0.6937 0.0
C532 C 0.23168 0.60261 0.75104 0.0
O533 O 0.26323 0.61481 0.74736 0.0
O534 O 0.20458 0.61225 0.74376 0.0
O535 O 0.2461 0.62082 0.71325 0.0
O536 O 0.27318 0.66882 0.70588 0.0
O537 O 0.24433 0.68594 0.74011 0.0
C538 C 0.16618 0.70549 0.71939 0.0
C539 C 0.27189 0.63498 0.7064 0.0
Zn540 Zn 0.11243 0.46412 0.46225 0.0
Zn541 Zn 0.15486 0.45024 0.49009 0.0
C542 C 0.17688 0.4301 0.44753 0.0
O543 O 0.1788 0.45431 0.43735 0.0
C544 C 0.0986 0.46492 0.51089 0.0
O545 O 0.09537 0.43006 0.50988 0.0
O546 O 0.08594 0.4806 0.44494 0.0
O547 O 0.08057 0.43062 0.47388 0.0
O548 O 0.12749 0.40401 0.4835 0.0
C549 C 0.06728 0.5086 0.44689 0.0
O550 O 0.06554 0.52289 0.45982 0.0
O551 O 0.15227 0.4315 0.45684 0.0
C552 C 0.19294 0.41951 0.51541 0.0
O553 O 0.16276 0.40382 0.51874 0.0
O554 O 0.19499 0.43746 0.50383 0.0
O555 O 0.18171 0.48029 0.47452 0.0
O556 O 0.1335 0.50981 0.46993 0.0
O557 O 0.12118 0.48065 0.50281 0.0
C558 C 0.09534 0.40234 0.47879 0.0
C559 C 0.16697 0.507 0.46849 0.0
Zn560 Zn 0.32898 0.68702 0.39043 0.0
Zn561 Zn 0.3465 0.64155 0.36157 0.0
C562 C 0.3424 0.6368 0.41336 0.0
O563 O 0.31735 0.65451 0.42023 0.0
C564 C 0.33454 0.68559 0.33732 0.0
O565 O 0.36683 0.6729 0.33522 0.0
O566 O 0.31035 0.72116 0.40511 0.0
O567 O 0.36786 0.71311 0.37893 0.0
O568 O 0.39315 0.66691 0.36806 0.0
C569 C 0.28631 0.74372 0.40193 0.0
O570 O 0.27421 0.74523 0.38866 0.0
O571 O 0.35274 0.64714 0.40105 0.0
C572 C 0.33306 0.58654 0.34151 0.0
O573 O 0.30081 0.59466 0.346 0.0
O574 O 0.35954 0.60253 0.34722 0.0
O575 O 0.31608 0.61631 0.37732 0.0
O576 O 0.28551 0.66445 0.38159 0.0
O577 O 0.31838 0.67711 0.34892 0.0
C578 C 0.39518 0.69874 0.37307 0.0
C579 C 0.28895 0.63092 0.38315 0.0
Zn580 Zn 0.10682 0.61209 0.14195 0.0
Zn581 Zn 0.16515 0.60136 0.11135 0.0
C582 C 0.12937 0.6781 0.15614 0.0
O583 O 0.16166 0.66642 0.15327 0.0
C584 C 0.109 0.58885 0.09026 0.0
O585 O 0.11656 0.6224 0.08749 0.0
O586 O 0.06596 0.58039 0.14685 0.0
O587 O 0.09852 0.62883 0.12166 0.0
O588 O 0.14875 0.65308 0.11554 0.0
C589 C 0.06604 0.56232 0.1584 0.0
O590 O 0.09296 0.56537 0.1674 0.0
O591 O 0.1027 0.65828 0.1533 0.0
C592 C 0.20763 0.5792 0.08746 0.0
O593 O 0.18965 0.54963 0.08973 0.0
O594 O 0.20326 0.60554 0.09599 0.0
O595 O 0.18736 0.57336 0.12869 0.0
O596 O 0.15166 0.58341 0.14732 0.0
O597 O 0.12491 0.57356 0.10076 0.0
C598 C 0.1159 0.65679 0.11852 0.0
C599 C 0.17964 0.5691 0.14201 0.0
Zn600 Zn 0.19494 0.35628 0.89641 0.0
Zn601 Zn 0.19125 0.40942 0.86321 0.0
C602 C 0.197 0.36033 0.92747 0.0
O603 O 0.23045 0.36935 0.9254 0.0
C604 C 0.20035 0.35939 0.84126 0.0
O605 O 0.1683 0.37263 0.83909 0.0
O606 O 0.2252 0.31405 0.89143 0.0
O607 O 0.14854 0.354 0.88535 0.0
O608 O 0.13983 0.39149 0.86733 0.0
C609 C 0.257 0.30929 0.8958 0.0
O610 O 0.27334 0.33526 0.90272 0.0
O611 O 0.17818 0.35046 0.91677 0.0
C612 C 0.21583 0.45302 0.84106 0.0
O613 O 0.24531 0.43805 0.84581 0.0
O614 O 0.18662 0.44617 0.84743 0.0
O615 O 0.22216 0.43599 0.87863 0.0
O616 O 0.22299 0.40182 0.89796 0.0
O617 O 0.2174 0.36927 0.8525 0.0
C618 C 0.12855 0.36671 0.87556 0.0
C619 C 0.23238 0.43007 0.89152 0.0
Zn620 Zn 0.44873 0.40126 0.63707 0.0
Zn621 Zn 0.44516 0.4498 0.60815 0.0
C622 C 0.38061 0.39438 0.6214 0.0
O623 O 0.37389 0.42669 0.62624 0.0
C624 C 0.4778 0.47101 0.58172 0.0
O625 O 0.46345 0.44009 0.57827 0.0
O626 O 0.45753 0.36225 0.6515 0.0
O627 O 0.49763 0.40762 0.62907 0.0
O628 O 0.47402 0.40112 0.60797 0.0
C629 C 0.46017 0.33063 0.64646 0.0
O630 O 0.45123 0.32477 0.63297 0.0
O631 O 0.41159 0.38125 0.62328 0.0
C632 C 0.38374 0.46421 0.59021 0.0
O633 O 0.3948 0.49729 0.59193 0.0
O634 O 0.40045 0.43919 0.59654 0.0
O635 O 0.42824 0.47926 0.62715 0.0
O636 O 0.43131 0.44505 0.64656 0.0
O637 O 0.47429 0.48237 0.59464 0.0
C638 C 0.49797 0.39217 0.617 0.0
C639 C 0.42368 0.47482 0.64079 0.0
H640 H 0.2803 0.23001 0.42572 0.0
H641 H 0.17011 0.22346 0.43886 0.0
H642 H 0.28465 0.28971 0.43652 0.0
H643 H 0.17489 0.28222 0.45021 0.0
H644 H 0.18913 0.3859 0.47007 0.0
H645 H 0.21221 0.32518 0.46871 0.0
H646 H 0.24176 0.34218 0.42438 0.0
H647 H 0.21762 0.40293 0.42554 0.0
C648 C 0.25769 0.2405 0.43165 0.0
C649 C 0.22478 0.22253 0.43149 0.0
C650 C 0.26019 0.27461 0.43773 0.0
C651 C 0.23011 0.29033 0.44408 0.0
C652 C 0.19854 0.27039 0.44546 0.0
C653 C 0.19574 0.23685 0.439 0.0
C654 C 0.20132 0.37705 0.46011 0.0
C655 C 0.20038 0.39856 0.44771 0.0
C656 C 0.21489 0.34246 0.45944 0.0
C657 C 0.22832 0.32916 0.44644 0.0
C658 C 0.23165 0.35213 0.43457 0.0
C659 C 0.21766 0.38675 0.43518 0.0
H660 H 0.11802 0.98869 0.68875 0.0
H661 H 0.07254 0.88299 0.68539 0.0
H662 H 0.09359 0.99507 0.71286 0.0
H663 H 0.04621 0.89014 0.70898 0.0
H664 H 0.9891 1.01946 0.73714 0.0
H665 H 0.03751 1.00855 0.72041 0.0
H666 H 0.03976 0.8972 0.73316 0.0
H667 H 0.98946 0.90847 0.74926 0.0
C668 C 0.1031 0.96664 0.69327 0.0
C669 C 0.09622 0.93577 0.68508 0.0
C670 C 0.0888 0.97037 0.70705 0.0
C671 C 0.06645 0.94375 0.71273 0.0
C672 C 0.06295 0.91135 0.70507 0.0
C673 C 0.07799 0.90724 0.69142 0.0
C674 C 1.00065 0.99292 0.73653 0.0
C675 C 0.98552 0.96463 0.74414 0.0
C676 C 1.02872 0.98654 0.72703 0.0
C677 C 0.04255 0.95172 0.72516 0.0
C678 C 1.02925 0.92411 0.73392 0.0
C679 C 1.00067 0.93049 0.74323 0.0
H680 H 0.29189 0.85912 0.93555 0.0
H681 H 0.40322 0.85495 0.94738 0.0
H682 H 0.27648 0.82557 0.9571 0.0
H683 H 0.38866 0.82001 0.96826 0.0
H684 H 0.38397 0.72997 0.98916 0.0
H685 H 0.366 0.79247 0.98836 0.0
H686 H 0.28292 0.76471 0.95789 0.0
H687 H 0.29949 0.7027 0.95955 0.0
C688 C 0.31297 0.85161 0.94296 0.0
C689 C 0.34889 0.85801 0.93955 0.0
C690 C 0.30418 0.83246 0.95533 0.0
C691 C 0.3313 0.81817 0.9641 0.0
C692 C 0.36671 0.82977 0.96179 0.0
C693 C 0.37537 0.84962 0.94962 0.0
C694 C 0.36038 0.73718 0.98305 0.0
C695 C 0.34418 0.71221 0.97381 0.0
C696 C 0.35023 0.77305 0.98246 0.0
C697 C 0.32528 0.78412 0.97204 0.0
C698 C 0.30345 0.75776 0.96559 0.0
C699 C 0.31293 0.72177 0.96651 0.0
H700 H 0.6364 0.10858 0.2024 0.0
H701 H 0.70385 0.08546 0.16582 0.0
H702 H 0.5862 0.08231 0.19007 0.0
H703 H 0.65337 0.05745 0.15352 0.0
H704 H 0.54642 0.0924 0.13076 0.0
H705 H 0.60396 0.08448 0.14226 0.0
H706 H 0.55224 0.03751 0.17923 0.0
H707 H 0.49431 0.04769 0.16796 0.0
C708 C 0.64076 0.09689 0.19185 0.0
C709 C 0.6738 0.10013 0.1849 0.0
C710 C 0.6119 0.08128 0.18479 0.0
C711 C 0.61543 0.06819 0.17063 0.0
C712 C 0.64951 0.06802 0.16428 0.0
C713 C 0.67846 0.08397 0.17134 0.0
C714 C 0.54742 0.07933 0.14114 0.0
C715 C 0.51598 0.07168 0.14869 0.0
C716 C 0.58056 0.07452 0.14775 0.0
C717 C 0.58275 0.06142 0.16192 0.0
C718 C 0.55143 0.04891 0.16853 0.0
C719 C 0.51825 0.05451 0.16206 0.0
H720 H 0.16129 0.90174 0.17989 0.0
H721 H 0.04729 0.891 0.17815 0.0
H722 H 0.16835 0.84076 0.17129 0.0
H723 H 0.05328 0.82894 0.17067 0.0
H724 H 0.17488 0.72089 0.17133 0.0
H725 H 0.16724 0.78342 0.17764 0.0
H726 H 0.06482 0.78368 0.15587 0.0
H727 H 0.07161 0.72047 0.15079 0.0
C728 C 0.13773 0.8857 0.17813 0.0
C729 C 0.1038 0.90027 0.18043 0.0
C730 C 0.14158 0.85059 0.17311 0.0
C731 C 0.11148 0.82876 0.17054 0.0
C732 C 0.07738 0.8443 0.1723 0.0
C733 C 0.07372 0.87976 0.17694 0.0
C734 C 0.15064 0.73441 0.16803 0.0
C735 C 0.12386 0.71576 0.16061 0.0
C736 C 0.14638 0.77065 0.17142 0.0
C737 C 0.11568 0.78968 0.16702 0.0
C738 C 0.08878 0.77058 0.15963 0.0
C739 C 0.09264 0.73408 0.15665 0.0
H740 H 0.58524 1.01379 0.37111 0.0
H741 H 0.58459 0.90583 0.3548 0.0
H742 H 0.53056 1.0026 0.38413 0.0
H743 H 0.52801 0.89456 0.36702 0.0
H744 H 0.44104 0.98408 0.41005 0.0
H745 H 0.47159 0.99175 0.38722 0.0
H746 H 0.51039 0.88306 0.38991 0.0
H747 H 0.47777 0.87485 0.41211 0.0
C748 C 0.57243 0.98796 0.36998 0.0
C749 C 0.58894 0.96046 0.36227 0.0
C750 C 0.54074 0.98146 0.37729 0.0
C751 C 0.52453 0.94743 0.37679 0.0
C752 C 0.53995 0.92079 0.368 0.0
C753 C 0.57218 0.92718 0.36093 0.0
C754 C 0.4553 0.96154 0.40546 0.0
C755 C 0.45843 0.92935 0.41305 0.0
C756 C 0.47311 0.96598 0.39245 0.0
C757 C 0.49547 0.93876 0.38712 0.0
C758 C 0.49423 0.90495 0.39373 0.0
C759 C 0.47552 0.90017 0.40656 0.0
H760 H 0.3091 0.40902 0.62281 0.0
H761 H 0.38358 0.32296 0.61484 0.0
H762 H 0.2661 0.36623 0.63203 0.0
H763 H 0.34068 0.28045 0.62409 0.0
H764 H 0.27563 0.21398 0.65258 0.0
H765 H 0.28135 0.2495 0.63053 0.0
H766 H 0.29091 0.34531 0.65642 0.0
H767 H 0.28623 0.30997 0.67819 0.0
C768 C 0.31568 0.38083 0.62231 0.0
C769 C 0.35053 0.36949 0.61905 0.0
C770 C 0.2909 0.3563 0.62754 0.0
C771 C 0.30084 0.3204 0.62943 0.0
C772 C 0.33255 0.30813 0.62305 0.0
C773 C 0.35735 0.33264 0.61783 0.0
C774 C 0.2779 0.24278 0.65345 0.0
C775 C 0.28117 0.25937 0.667 0.0
C776 C 0.28096 0.26302 0.64087 0.0
C777 C 0.28635 0.30014 0.64174 0.0
C778 C 0.28616 0.31686 0.65535 0.0
C779 C 0.28402 0.29662 0.66785 0.0
H780 H 0.072 0.08803 0.90893 0.0
H781 H 1.02342 0.9934 0.92669 0.0
H782 H 1.02183 0.09552 0.89285 0.0
H783 H 0.97276 1.00054 0.91031 0.0
H784 H 0.88167 0.0899 0.91223 0.0
H785 H 0.92981 0.04745 0.91513 0.0
H786 H 0.97649 0.083 0.87514 0.0
H787 H 0.92847 0.12649 0.87243 0.0
C788 C 0.05105 0.06807 0.909 0.0
C789 C 0.05075 0.04101 0.91939 0.0
C790 C 1.02239 0.07201 0.89961 0.0
C791 C 0.99273 0.04914 0.90058 0.0
C792 C 0.99493 1.01899 0.90955 0.0
C793 C 1.02388 1.01492 0.91893 0.0
C794 C 0.90162 0.088 0.90383 0.0
C795 C 0.90234 0.11262 0.89249 0.0
C796 C 0.92906 0.06317 0.90537 0.0
C797 C 0.95765 0.06263 0.89557 0.0
C798 C 0.95528 0.08348 0.88304 0.0
C799 C 0.92787 0.1085 0.88154 0.0
H800 H 0.91074 0.91334 0.70261 0.0
H801 H 1.00956 0.92737 0.68006 0.0
H802 H 0.90362 0.85463 0.69244 0.0
H803 H 1.00201 0.86854 0.66889 0.0
H804 H 0.9963 0.74658 0.66419 0.0
H805 H 1.00402 0.80626 0.67435 0.0
H806 H 0.89015 0.82374 0.67132 0.0
H807 H 0.88243 0.76351 0.66182 0.0
C808 C 0.93108 0.90387 0.69558 0.0
C809 C 0.96128 0.92461 0.69282 0.0
C810 C 0.92677 0.87016 0.68942 0.0
C811 C 0.95233 0.85646 0.67985 0.0
C812 C 0.98212 0.87779 0.67649 0.0
C813 C 0.98642 0.91159 0.68286 0.0
C814 C 0.97289 0.76309 0.66586 0.0
C815 C 0.93869 0.75021 0.66238 0.0
C816 C 0.97737 0.79748 0.67151 0.0
C817 C 0.94777 0.81999 0.67363 0.0
C818 C 0.91355 0.807 0.6701 0.0
C819 C 0.90904 0.77242 0.66465 0.0
H820 H 0.9711 0.13362 0.39963 0.0
H821 H 0.96124 1.02235 0.41102 0.0
H822 H 1.0267 0.12065 0.38719 0.0
H823 H 1.01787 1.00948 0.39904 0.0
H824 H 0.13521 0.05906 0.41435 0.0
H825 H 0.0737 0.03887 0.4121 0.0
H826 H 0.06759 0.08404 0.36947 0.0
H827 H 0.12939 0.1035 0.37154 0.0
C828 C 0.97997 0.10609 0.3988 0.0
C829 C 0.96235 0.07909 0.40636 0.0
C830 C 1.01175 0.09854 0.39166 0.0
C831 C 1.02676 0.06409 0.39237 0.0
C832 C 1.00678 0.03619 0.39836 0.0
C833 C 0.97438 0.04359 0.40517 0.0
C834 C 0.1214 0.06304 0.40422 0.0
C835 C 0.13643 0.08416 0.39338 0.0
C836 C 0.08618 0.05128 0.40287 0.0
C837 C 0.06577 0.06073 0.39073 0.0
C838 C 0.08271 0.07681 0.37899 0.0
C839 C 0.11795 0.08824 0.38027 0.0
H840 H 0.69944 0.38501 0.12302 0.0
H841 H 0.73558 0.42151 0.16478 0.0
H842 H 0.7266 0.32686 0.12738 0.0
H843 H 0.76155 0.36349 0.16933 0.0
H844 H 0.6845 0.23613 0.15837 0.0
H845 H 0.69573 0.28792 0.1436 0.0
H846 H 0.79356 0.30834 0.16702 0.0
H847 H 0.78167 0.25663 0.18216 0.0
C848 C 0.71429 0.38102 0.13292 0.0
C849 C 0.71398 0.40705 0.14388 0.0
C850 C 0.72984 0.34772 0.13541 0.0
C851 C 0.74474 0.34004 0.14894 0.0
C852 C 0.74987 0.36822 0.15883 0.0
C853 C 0.73465 0.40161 0.15628 0.0
C854 C 0.70886 0.2511 0.16016 0.0
C855 C 0.73145 0.24321 0.17177 0.0
C856 C 0.71567 0.28063 0.15152 0.0
C857 C 0.74528 0.30278 0.15431 0.0
C858 C 0.77016 0.29222 0.1648 0.0
C859 C 0.76323 0.26272 0.17351 0.0
H860 H 0.35528 0.98911 0.92507 0.0
H861 H 0.40346 0.97495 0.88321 0.0
H862 H 0.40344 1.0284 0.93214 0.0
H863 H 0.451 1.01614 0.89002 0.0
H864 H 0.5489 0.99483 0.92029 0.0
H865 H 0.49626 0.99454 0.90537 0.0
H866 H 0.44755 0.07416 0.93302 0.0
H867 H 0.50089 0.07366 0.94832 0.0
C868 C 0.37535 0.99568 0.91713 0.0
C869 C 0.37669 0.97763 0.90385 0.0
C870 C 0.40294 1.01866 0.92114 0.0
C871 C 0.43199 1.02421 0.91184 0.0
C872 C 0.42971 1.01123 0.89762 0.0
C873 C 0.40248 0.98765 0.89371 0.0
C874 C 0.5273 1.01291 0.92302 0.0
C875 C 0.5284 0.03336 0.9357 0.0
C876 C 0.49714 1.01324 0.9143 0.0
C877 C 0.46721 0.03393 0.9181 0.0
C878 C 0.46992 0.05746 0.92994 0.0
C879 C 0.50041 0.05722 0.93869 0.0
H880 H 0.98215 0.26324 0.89618 0.0
H881 H 0.89482 0.28209 0.92554 0.0
H882 H 1.01359 0.31438 0.90601 0.0
H883 H 0.9274 0.33228 0.93612 0.0
H884 H 0.9695 0.44692 0.93607 0.0
H885 H 0.94102 0.391 0.92938 0.0
H886 H 0.04495 0.34183 0.92469 0.0
H887 H 0.07301 0.39869 0.93102 0.0
C888 C 0.97005 0.27779 0.90502 0.0
C889 C 0.9358 0.26888 0.90999 0.0
C890 C 0.98826 0.30711 0.91075 0.0
C891 C 0.97298 0.32786 0.92179 0.0
C892 C 0.9396 0.31752 0.92736 0.0
C893 C 0.92103 0.28857 0.92141 0.0
C894 C 0.98607 0.4239 0.93401 0.0
C895 C 1.02328 0.42666 0.93466 0.0
C896 C 0.96984 0.39172 0.93013 0.0
C897 C 0.99056 0.36148 0.92671 0.0
C898 C 1.02803 0.3645 0.92716 0.0
C899 C 0.04418 0.39695 0.9309 0.0
H900 H 0.53083 0.04565 0.65955 0.0
H901 H 0.5565 0.13472 0.68754 0.0
H902 H 0.47088 0.0434 0.66973 0.0
H903 H 0.49691 0.13269 0.69754 0.0
H904 H 0.3917 0.13286 0.71383 0.0
H905 H 0.44854 0.10243 0.71036 0.0
H906 H 0.42389 0.08851 0.66518 0.0
H907 H 0.36675 0.1182 0.66873 0.0
C908 C 0.52398 0.06415 0.66812 0.0
C909 C 0.54793 0.09101 0.67251 0.0
C910 C 0.48972 0.06278 0.67394 0.0
C911 C 0.47911 0.08806 0.68429 0.0
C912 C 0.50432 0.11259 0.68966 0.0
C913 C 0.53841 0.11407 0.6838 0.0
C914 C 0.39803 0.12232 0.70324 0.0
C915 C 0.37558 0.1289 0.69141 0.0
C916 C 0.43045 0.10481 0.70129 0.0
C917 C 0.44097 0.09398 0.68746 0.0
C918 C 0.41649 0.09657 0.67599 0.0
C919 C 0.38386 0.11385 0.67798 0.0
H920 H 0.65441 0.89915 0.40801 0.0
H921 H 0.54318 0.90545 0.41864 0.0
H922 H 0.6554 0.83629 0.41418 0.0
H923 H 0.54311 0.8419 0.42465 0.0
H924 H 0.56546 0.73317 0.44583 0.0
H925 H 0.56172 0.79647 0.44016 0.0
H926 H 0.63663 0.78085 0.40531 0.0
H927 H 0.6419 0.71792 0.41163 0.0
C928 C 0.62989 0.88671 0.41119 0.0
C929 C 0.59826 0.90654 0.41178 0.0
C930 C 0.63033 0.8506 0.41487 0.0
C931 C 0.59901 0.83334 0.41942 0.0
C932 C 0.56775 0.85395 0.42105 0.0
C933 C 0.56757 0.89029 0.41742 0.0
C934 C 0.58098 0.74325 0.43691 0.0
C935 C 0.6043 0.72062 0.42927 0.0
C936 C 0.57874 0.77963 0.43361 0.0
C937 C 0.59936 0.79416 0.42243 0.0
C938 C 0.62125 0.77099 0.41432 0.0
C939 C 0.62401 0.73477 0.41781 0.0
H940 H 0.09245 0.88963 0.24143 0.0
H941 H 0.0777 0.99251 0.22161 0.0
H942 H 0.03673 0.86824 0.23027 0.0
H943 H 1.02275 0.97169 0.21041 0.0
H944 H 0.99037 0.84431 0.18266 0.0
H945 H 1.0238 0.85483 0.20475 0.0
H946 H 0.96174 0.9501 0.21289 0.0
H947 H 0.92923 0.94031 0.1905 0.0
C948 C 0.07685 0.90766 0.23483 0.0
C949 C 0.08916 0.94229 0.23204 0.0
C950 C 0.04513 0.89556 0.22852 0.0
C951 C 1.02534 0.9182 0.21948 0.0
C952 C 0.03687 0.9537 0.21754 0.0
C953 C 0.06848 0.96563 0.2238 0.0
C954 C 0.98272 0.86655 0.1895 0.0
C955 C 0.95847 0.89243 0.18461 0.0
C956 C 1.00184 0.87253 0.20223 0.0
C957 C 0.99636 0.90413 0.2102 0.0
C958 C 0.96737 0.92622 0.20664 0.0
C959 C 0.94869 0.92055 0.19386 0.0
H960 H 0.69953 0.93507 0.93142 0.0
H961 H 0.60392 0.88105 0.91708 0.0
H962 H 0.73407 0.90279 0.91343 0.0
H963 H 0.63807 0.84876 0.89925 0.0
H964 H 0.70171 0.79833 0.86468 0.0
H965 H 0.66958 0.8432 0.87873 0.0
H966 H 0.75823 0.84813 0.90873 0.0
H967 H 0.79104 0.80583 0.89379 0.0
C968 C 0.68593 0.91611 0.92447 0.0
C969 C 0.64909 0.91018 0.92584 0.0
C970 C 0.70577 0.89739 0.91417 0.0
C971 C 0.68929 0.87213 0.90503 0.0
C972 C 0.65211 0.86747 0.9061 0.0
C973 C 0.63235 0.88601 0.91642 0.0
C974 C 0.71431 0.80978 0.87414 0.0
C975 C 0.74847 0.79878 0.87832 0.0
C976 C 0.69588 0.83521 0.88232 0.0
C977 C 0.71083 0.84915 0.89512 0.0
C978 C 0.7458 0.83873 0.8989 0.0
C979 C 0.76461 0.81417 0.89044 0.0
H980 H 0.48791 0.40933 0.24623 0.0
H981 H 0.4802 0.51728 0.2306 0.0
H982 H 0.54092 0.39937 0.23147 0.0
H983 H 0.53079 0.5072 0.21496 0.0
H984 H 0.61487 0.48943 0.18514 0.0
H985 H 0.58788 0.49804 0.20865 0.0
H986 H 0.55366 0.38756 0.20823 0.0
H987 H 0.58297 0.37862 0.18533 0.0
C988 C 0.498 0.43097 0.23968 0.0
C989 C 0.48029 0.46392 0.23933 0.0
C990 C 0.5281 0.42528 0.2311 0.0
C991 C 0.54023 0.45217 0.22171 0.0
C992 C 0.52322 0.48586 0.22214 0.0
C993 C 0.4938 0.49172 0.23099 0.0
C994 C 0.60223 0.46683 0.1903 0.0
C995 C 0.59972 0.43372 0.18323 0.0
C996 C 0.58641 0.47179 0.20374 0.0
C997 C 0.5666 0.4441 0.2101 0.0
C998 C 0.56802 0.40984 0.20374 0.0
C999 C 0.58476 0.40463 0.19047 0.0
H1000 H 0.80826 0.16182 0.4299 0.0
H1001 H 0.85954 0.17405 0.4713 0.0
H1002 H 0.78707 0.22282 0.43133 0.0
H1003 H 0.83771 0.23528 0.47295 0.0
H1004 H 0.77986 0.33062 0.42486 0.0
H1005 H 0.76306 0.27887 0.43918 0.0
H1006 H 0.86838 0.27831 0.45835 0.0
H1007 H 0.88435 0.33059 0.44444 0.0
C1008 C 0.8134 0.17698 0.43965 0.0
C1009 C 0.83684 0.16401 0.45015 0.0
C1010 C 0.80107 0.21211 0.44056 0.0
C1011 C 0.81207 0.23449 0.45201 0.0
C1012 C 0.82983 0.21907 0.46378 0.0
C1013 C 0.84237 0.18405 0.46281 0.0
C1014 C 0.79873 0.32027 0.43267 0.0
C1015 C 0.83378 0.33347 0.43325 0.0
C1016 C 0.78911 0.29071 0.44087 0.0
C1017 C 0.81478 0.27351 0.44943 0.0
C1018 C 0.84789 0.29057 0.45177 0.0
C1019 C 0.8573 0.32052 0.44372 0.0
H1020 H 0.98111 0.61066 0.68043 0.0
H1021 H 1.00336 0.59392 0.6353 0.0
H1022 H 0.0431 0.6005 0.68618 0.0
H1023 H 0.06561 0.5812 0.64109 0.0
H1024 H 0.17365 0.63254 0.65471 0.0
H1025 H 0.11404 0.61596 0.64704 0.0
H1026 H 0.0947 0.56862 0.68877 0.0
H1027 H 0.15364 0.58814 0.69669 0.0
C1028 C 0.99912 0.60355 0.67177 0.0
C1029 C 0.98757 0.60377 0.6574 0.0
C1030 C 0.03488 0.59733 0.67507 0.0
C1031 C 0.0599 0.59043 0.66409 0.0
C1032 C 0.04748 0.58743 0.64981 0.0
C1033 C 1.01175 0.59447 0.64648 0.0
C1034 C 0.15699 0.6176 0.66206 0.0
C1035 C 0.16783 0.61205 0.67633 0.0
C1036 C 0.12266 0.6079 0.65767 0.0
C1037 C 0.09885 0.59173 0.6674 0.0
C1038 C 0.11166 0.58226 0.68114 0.0
C1039 C 0.14557 0.59297 0.68566 0.0
H1040 H 0.69731 0.08221 0.69265 0.0
H1041 H 0.70489 0.1683 0.66191 0.0
H1042 H 0.72525 0.12009 0.71098 0.0
H1043 H 0.73242 0.20596 0.68015 0.0
H1044 H 0.7818 0.27227 0.71087 0.0
H1045 H 0.7832 0.2173 0.69679 0.0
H1046 H 0.70007 0.17325 0.72347 0.0
H1047 H 0.69895 0.22784 0.73767 0.0
C1048 C 0.70555 0.10895 0.68971 0.0
C1049 C 0.69839 0.12248 0.67588 0.0
C1050 C 0.72159 0.13056 0.70022 0.0
C1051 C 0.7311 0.16596 0.69703 0.0
C1052 C 0.72604 0.1786 0.68292 0.0
C1053 C 0.70986 0.15712 0.67247 0.0
C1054 C 0.76497 0.25027 0.71418 0.0
C1055 C 0.73889 0.25512 0.7249 0.0
C1056 C 0.76564 0.21883 0.70602 0.0
C1057 C 0.74064 0.19169 0.70862 0.0
C1058 C 0.71933 0.19393 0.72104 0.0
C1059 C 0.71869 0.22538 0.72922 0.0
H1060 H 0.13156 0.33906 0.93683 0.0
H1061 H 0.22036 0.40747 0.94798 0.0
H1062 H 0.09495 0.36943 0.95457 0.0
H1063 H 0.18348 0.43785 0.96585 0.0
H1064 H 0.03408 0.42735 0.98881 0.0
H1065 H 0.08005 0.3877 0.97882 0.0
H1066 H 0.13515 0.47971 0.96174 0.0
H1067 H 0.08975 0.51892 0.97213 0.0
C1068 C 0.14356 0.35986 0.94339 0.0
C1069 C 0.1786 0.37133 0.94081 0.0
C1070 C 0.12254 0.37725 0.95362 0.0
C1071 C 0.13594 0.40671 0.96136 0.0
C1072 C 0.17211 0.41581 0.95979 0.0
C1073 C 0.19333 0.39815 0.94964 0.0
C1074 C 0.05614 0.43879 0.98289 0.0
C1075 C 0.05821 0.47578 0.98081 0.0
C1076 C 0.08243 0.41626 0.97723 0.0
C1077 C 0.11109 0.43047 0.96936 0.0
C1078 C 0.11376 0.46784 0.96791 0.0
C1079 C 0.08767 0.49031 0.9737 0.0
H1080 H 0.81447 0.90389 0.15335 0.0
H1081 H 0.87435 0.88129 0.11468 0.0
H1082 H 0.78786 0.84539 0.15212 0.0
H1083 H 0.84651 0.82265 0.11307 0.0
H1084 H 0.88098 0.72844 0.14405 0.0
H1085 H 0.87031 0.77961 0.1289 0.0
H1086 H 0.7635 0.78952 0.14609 0.0
H1087 H 0.77502 0.73871 0.16178 0.0
C1088 C 0.8206 0.88708 0.14415 0.0
C1089 C 0.84806 0.89614 0.13463 0.0
C1090 C 0.80502 0.85331 0.14334 0.0
C1091 C 0.81672 0.82838 0.13293 0.0
C1092 C 0.83825 0.84064 0.1216 0.0
C1093 C 0.8542 0.87428 0.12253 0.0
C1094 C 0.85481 0.74077 0.14426 0.0
C1095 C 0.82949 0.73083 0.15456 0.0
C1096 C 0.84838 0.77007 0.1354 0.0
C1097 C 0.81641 0.78977 0.13669 0.0
C1098 C 0.78886 0.77577 0.14522 0.0
C1099 C 0.79551 0.74676 0.15425 0.0
H1100 H 0.50299 0.54885 0.46377 0.0
H1101 H 0.52856 0.5431 0.41857 0.0
H1102 H 0.43973 0.54352 0.45807 0.0
H1103 H 0.46601 0.54093 0.41266 0.0
H1104 H 0.36403 0.5751 0.40065 0.0
H1105 H 0.40662 0.53228 0.41041 0.0
H1106 H 0.40618 0.59062 0.45085 0.0
H1107 H 0.3615 0.63079 0.44138 0.0
C1108 C 0.49499 0.54536 0.45263 0.0
C1109 C 0.52024 0.54759 0.44155 0.0
C1110 C 0.45876 0.54269 0.44932 0.0
C1111 C 0.44732 0.54405 0.43488 0.0
C1112 C 0.47321 0.54041 0.42395 0.0
C1113 C 0.50945 0.54185 0.42729 0.0
C1114 C 0.37231 0.57772 0.41179 0.0
C1115 C 0.36067 0.60668 0.42019 0.0
C1116 C 0.39684 0.55336 0.41739 0.0
C1117 C 0.41145 0.55876 0.43121 0.0
C1118 C 0.3961 0.58528 0.44013 0.0
C1119 C 0.37061 0.60881 0.43468 0.0
H1120 H 0.40411 0.40267 0.19638 0.0
H1121 H 0.51336 0.3985 0.18294 0.0
H1122 H 0.39766 0.33906 0.19217 0.0
H1123 H 0.50716 0.33474 0.17772 0.0
H1124 H 0.38971 0.23097 0.16908 0.0
H1125 H 0.3942 0.29449 0.17449 0.0
H1126 H 0.50188 0.27884 0.19006 0.0
H1127 H 0.49777 0.21544 0.18407 0.0
C1128 C 0.42697 0.38795 0.19287 0.0
C1129 C 0.4599 0.40502 0.19124 0.0
C1130 C 0.42318 0.35147 0.19005 0.0
C1131 C 0.45222 0.33126 0.18499 0.0
C1132 C 0.48459 0.34903 0.18218 0.0
C1133 C 0.48821 0.38559 0.18515 0.0
C1134 C 0.41407 0.24094 0.17394 0.0
C1135 C 0.44339 0.21817 0.17613 0.0
C1136 C 0.41673 0.27748 0.17702 0.0
C1137 C 0.44862 0.29203 0.18253 0.0
C1138 C 0.47725 0.2688 0.18547 0.0
C1139 C 0.47473 0.23235 0.18222 0.0
H1140 H 0.49283 0.71605 0.91529 0.0
H1141 H 0.4936 0.78956 0.95132 0.0
H1142 H 0.55253 0.7357 0.90868 0.0
H1143 H 0.55412 0.80806 0.94499 0.0
H1144 H 0.67328 0.75192 0.94198 0.0
H1145 H 0.60995 0.76268 0.94665 0.0
H1146 H 0.59388 0.79045 0.90212 0.0
H1147 H 0.65718 0.78087 0.8975 0.0
C1148 C 0.5053 0.73711 0.92156 0.0
C1149 C 0.48884 0.75056 0.93404 0.0
C1150 C 0.5395 0.7484 0.91777 0.0
C1151 C 0.55807 0.77288 0.92652 0.0
C1152 C 0.54041 0.78887 0.93819 0.0
C1153 C 0.50578 0.77824 0.94177 0.0
C1154 C 0.65648 0.76168 0.93333 0.0
C1155 C 0.67015 0.7653 0.91937 0.0
C1156 C 0.62026 0.76788 0.936 0.0
C1157 C 0.59705 0.77688 0.92466 0.0
C1158 C 0.61124 0.78322 0.91098 0.0
C1159 C 0.64753 0.77784 0.90839 0.0
H1160 H 0.1783 0.74847 0.65028 0.0
H1161 H 0.28117 0.7605 0.67086 0.0
H1162 H 0.18884 0.80223 0.63657 0.0
H1163 H 0.2922 0.81423 0.65681 0.0
H1164 H 0.23657 0.92867 0.66118 0.0
H1165 H 0.26247 0.86957 0.66241 0.0
H1166 H 0.21785 0.84383 0.62066 0.0
H1167 H 0.19098 0.90307 0.61963 0.0
C1168 C 0.2037 0.76196 0.65152 0.0
C1169 C 0.22823 0.75118 0.66206 0.0
C1170 C 0.21006 0.79266 0.64349 0.0
C1171 C 0.24112 0.81308 0.64585 0.0
C1172 C 0.26771 0.7995 0.65499 0.0
C1173 C 0.26127 0.76884 0.66308 0.0
C1174 C 0.23357 0.91103 0.65197 0.0
C1175 C 0.2103 0.91966 0.64066 0.0
C1176 C 0.2487 0.87702 0.65261 0.0
C1177 C 0.24081 0.85144 0.6419 0.0
C1178 C 0.2233 0.86262 0.6293 0.0
C1179 C 0.20791 0.89655 0.62872 0.0
H1180 H 1.00181 0.53752 0.45058 0.0
H1181 H 0.07765 0.50715 0.41785 0.0
H1182 H 0.95482 0.53865 0.4329 0.0
H1183 H 0.03107 0.51151 0.39956 0.0
H1184 H 0.94229 0.42988 0.38875 0.0
H1185 H 0.9913 0.46746 0.3955 0.0
H1186 H 0.91761 0.54451 0.41382 0.0
H1187 H 0.86819 0.50474 0.40785 0.0
C1188 C 1.00866 0.53266 0.43941 0.0
C1189 C 0.04272 0.52054 0.4356 0.0
C1190 C 0.98165 0.53371 0.42911 0.0
C1191 C 0.98856 0.52323 0.41478 0.0
C1192 C 1.0243 0.51768 0.41063 0.0
C1193 C 0.05106 0.51531 0.42105 0.0
C1194 C 0.93641 0.45514 0.394 0.0
C1195 C 0.9017 0.46355 0.39848 0.0
C1196 C 0.96472 0.47728 0.39773 0.0
C1197 C 0.95884 0.50862 0.40587 0.0
C1198 C 0.92338 0.51974 0.40822 0.0
C1199 C 0.89501 0.49702 0.40479 0.0
H1200 H 0.30645 0.94831 0.43982 0.0
H1201 H 0.37182 0.87003 0.46149 0.0
H1202 H 0.26581 0.90116 0.43202 0.0
H1203 H 0.33316 0.82295 0.45305 0.0
H1204 H 0.2831 0.73799 0.43108 0.0
H1205 H 0.28492 0.78726 0.44834 0.0
H1206 H 0.27499 0.86225 0.41315 0.0
H1207 H 0.2705 0.81304 0.39629 0.0
C1208 C 0.31164 0.92108 0.44317 0.0
C1209 C 0.34281 0.91255 0.45083 0.0
C1210 C 0.28851 0.89401 0.43864 0.0
C1211 C 0.29683 0.85794 0.44134 0.0
C1212 C 0.32559 0.8502 0.45063 0.0
C1213 C 0.34817 0.87732 0.45543 0.0
C1214 C 0.28 0.7651 0.4272 0.0
C1215 C 0.27766 0.77197 0.41239 0.0
C1216 C 0.28125 0.79336 0.43704 0.0
C1217 C 0.28161 0.82893 0.43216 0.0
C1218 C 0.27489 0.83542 0.41745 0.0
C1219 C 0.2726 0.80712 0.40767 0.0
H1220 H 0.86203 0.59501 0.15537 0.0
H1221 H 0.87207 0.56979 0.20046 0.0
H1222 H 0.91271 0.55766 0.14999 0.0
H1223 H 0.92143 0.52944 0.19508 0.0
H1224 H 1.01759 0.52803 0.14138 0.0
H1225 H 0.95573 0.51567 0.14765 0.0
H1226 H 0.97812 0.54808 0.19161 0.0
H1227 H 0.03983 0.55721 0.18547 0.0
C1228 C 0.87406 0.57985 0.16404 0.0
C1229 C 0.86435 0.58623 0.17836 0.0
C1230 C 0.90324 0.558 0.16098 0.0
C1231 C 0.92272 0.54173 0.17222 0.0
C1232 C 0.90843 0.54305 0.18624 0.0
C1233 C 0.87997 0.56589 0.18934 0.0
C1234 C 1.00929 0.53104 0.15249 0.0
C1235 C 0.0329 0.54471 0.16287 0.0
C1236 C 0.9738 0.52423 0.15609 0.0
C1237 C 0.9611 0.5327 0.16995 0.0
C1238 C 0.98624 0.54148 0.18075 0.0
C1239 C 1.02192 0.5471 0.17723 0.0
H1240 H 0.30327 0.28225 0.91582 0.0
H1241 H 0.23755 0.25197 0.87953 0.0
H1242 H 0.3013 0.22097 0.9246 0.0
H1243 H 0.23491 0.19126 0.88837 0.0
H1244 H 0.20982 0.09208 0.90916 0.0
H1245 H 0.2516 0.13351 0.89793 0.0
H1246 H 0.24584 0.20178 0.93555 0.0
H1247 H 0.20492 0.16044 0.94675 0.0
C1248 C 0.28983 0.2622 0.90935 0.0
C1249 C 0.26931 0.27204 0.89732 0.0
C1250 C 0.28852 0.22711 0.91443 0.0
C1251 C 0.26671 0.20165 0.90752 0.0
C1252 C 0.25163 0.2102 0.89409 0.0
C1253 C 0.25293 0.24519 0.88903 0.0
C1254 C 0.21818 0.11556 0.91514 0.0
C1255 C 0.20318 0.1237 0.92862 0.0
C1256 C 0.24225 0.13916 0.90873 0.0
C1257 C 0.2517 0.17122 0.91572 0.0
C1258 C 0.23947 0.17728 0.92985 0.0
C1259 C 0.21546 0.15379 0.93622 0.0
H1260 H 0.47931 0.33035 0.67488 0.0
H1261 H 0.49249 0.27157 0.63505 0.0
H1262 H 0.5296 0.2978 0.68525 0.0
H1263 H 0.54344 0.23989 0.64547 0.0
H1264 H 0.61861 0.23187 0.70121 0.0
H1265 H 0.56057 0.22799 0.68945 0.0
H1266 H 0.60175 0.28605 0.65312 0.0
H1267 H 0.65934 0.29207 0.66516 0.0
C1268 C 0.49213 0.3097 0.66851 0.0
C1269 C 0.48253 0.30417 0.65405 0.0
C1270 C 0.52075 0.29093 0.67447 0.0
C1271 C 0.54038 0.26678 0.66599 0.0
C1272 C 0.5286 0.25856 0.65206 0.0
C1273 C 0.49951 0.27678 0.64618 0.0
C1274 C 0.61582 0.24278 0.69048 0.0
C1275 C 0.64309 0.26366 0.68434 0.0
C1276 C 0.58253 0.24036 0.68378 0.0
C1277 C 0.57678 0.25729 0.67057 0.0
C1278 C 0.60569 0.27295 0.66336 0.0
C1279 C 0.63863 0.27644 0.67026 0.0
H1280 H 0.13075 0.27525 0.37681 0.0
H1281 H 0.07873 0.17764 0.36361 0.0
H1282 H 0.07355 0.30654 0.37623 0.0
H1283 H 1.02121 0.20902 0.36308 0.0
H1284 H 0.91943 0.26947 0.37971 0.0
H1285 H 0.97624 0.23705 0.37906 0.0
H1286 H 1.02698 0.32895 0.36013 0.0
H1287 H 0.97027 0.36125 0.36073 0.0
C1288 C 0.10717 0.2604 0.37368 0.0
C1289 C 0.10981 0.22375 0.37018 0.0
C1290 C 0.07415 0.2785 0.37329 0.0
C1291 C 0.04227 0.2606 0.3696 0.0
C1292 C 0.04488 0.22388 0.36609 0.0
C1293 C 0.07808 0.20586 0.36627 0.0
C1294 C 0.94262 0.2828 0.37534 0.0
C1295 C 0.93983 0.31823 0.37028 0.0
C1296 C 0.97536 0.26403 0.3749 0.0
C1297 C 1.0067 0.28014 0.36957 0.0
C1298 C 1.00381 0.31553 0.36447 0.0
C1299 C 0.97102 0.3341 0.36473 0.0
H1300 H 1.00296 0.69745 0.60934 0.0
H1301 H 0.90904 0.75656 0.62195 0.0
H1302 H 0.03804 0.75268 0.61028 0.0
H1303 H 0.94371 0.81144 0.62272 0.0
H1304 H 1.02162 0.89528 0.63921 0.0
H1305 H 0.98805 0.84008 0.63703 0.0
H1306 H 0.04948 0.81086 0.59949 0.0
H1307 H 0.08395 0.86631 0.60188 0.0
C1308 C 0.98965 0.72222 0.61214 0.0
C1309 C 0.95301 0.72228 0.61555 0.0
C1310 C 1.00979 0.75403 0.61265 0.0
C1311 C 0.99398 0.78684 0.61667 0.0
C1312 C 0.95719 0.78684 0.6198 0.0
C1313 C 0.9371 0.75521 0.61922 0.0
C1314 C 1.02802 0.87734 0.6304 0.0
C1315 C 0.05555 0.88574 0.62065 0.0
C1316 C 1.00847 0.84551 0.6291 0.0
C1317 C 1.01557 0.82077 0.61799 0.0
C1318 C 0.04326 0.82898 0.60826 0.0
C1319 C 0.06293 0.86099 0.60956 0.0
H1320 H 0.46349 0.84844 0.85618 0.0
H1321 H 0.42915 0.78299 0.8917 0.0
H1322 H 0.52028 0.81577 0.85549 0.0
H1323 H 0.4854 0.75006 0.89079 0.0
H1324 H 0.57928 0.67684 0.87615 0.0
H1325 H 0.52125 0.70758 0.87553 0.0
H1326 H 0.57499 0.80878 0.87084 0.0
H1327 H 0.63258 0.77827 0.87169 0.0
C1328 C 0.46783 0.82696 0.86377 0.0
C1329 C 0.44145 0.81862 0.87401 0.0
C1330 C 0.50056 0.80827 0.86343 0.0
C1331 C 0.50772 0.78014 0.87311 0.0
C1332 C 0.48099 0.77131 0.88311 0.0
C1333 C 0.44864 0.79042 0.88366 0.0
C1334 C 0.57866 0.70561 0.87492 0.0
C1335 C 0.61077 0.72498 0.87405 0.0
C1336 C 0.54536 0.72333 0.87463 0.0
C1337 C 0.54316 0.76083 0.8731 0.0
C1338 C 0.57535 0.77995 0.87188 0.0
C1339 C 0.60851 0.76239 0.87248 0.0
H1340 H 0.42452 0.23915 0.13113 0.0
H1341 H 0.50374 0.18726 0.10475 0.0
H1342 H 0.45616 0.29542 0.12916 0.0
H1343 H 0.53724 0.24351 0.1034 0.0
H1344 H 0.58209 0.35781 0.09779 0.0
H1345 H 0.54669 0.30285 0.09607 0.0
H1346 H 0.50475 0.32331 0.13867 0.0
H1347 H 0.5383 0.3784 0.13994 0.0
C1348 C 0.44868 0.23993 0.12475 0.0
C1349 C 0.46143 0.2087 0.11803 0.0
C1350 C 0.46734 0.27224 0.1238 0.0
C1351 C 0.50015 0.27439 0.11644 0.0
C1352 C 0.51214 0.24337 0.10913 0.0
C1353 C 0.49288 0.21098 0.10985 0.0
C1354 C 0.56504 0.35058 0.10671 0.0
C1355 C 0.56283 0.37295 0.11892 0.0
C1356 C 0.5448 0.31883 0.10578 0.0
C1357 C 0.52209 0.3083 0.11713 0.0
C1358 C 0.52068 0.33057 0.12942 0.0
C1359 C 0.54033 0.36236 0.13024 0.0
H1360 H 0.95276 0.69699 0.2366 0.0
H1361 H 0.92832 0.75779 0.19841 0.0
H1362 H 1.01101 0.72636 0.23818 0.0
H1363 H 0.98591 0.78735 0.20011 0.0
H1364 H 0.09737 0.81744 0.24372 0.0
H1365 H 0.04208 0.78212 0.24321 0.0
H1366 H 0.04791 0.77718 0.19679 0.0
H1367 H 0.10247 0.81257 0.19762 0.0
C1368 C 0.95965 0.71667 0.22855 0.0
C1369 C 0.93555 0.72474 0.21733 0.0
C1370 C 0.99314 0.7337 0.22951 0.0
C1371 C 1.00369 0.7592 0.21922 0.0
C1372 C 0.97936 0.76745 0.20811 0.0
C1373 C 0.94597 0.75057 0.20718 0.0
C1374 C 0.08721 0.80796 0.23347 0.0
C1375 C 0.10402 0.81819 0.2206 0.0
C1376 C 0.05533 0.78784 0.23314 0.0
C1377 C 0.03966 0.7773 0.21992 0.0
C1378 C 0.05815 0.78558 0.20718 0.0
C1379 C 0.08961 0.80577 0.20757 0.0
H1380 H 0.53781 0.89331 0.46186 0.0
H1381 H 0.46239 0.85061 0.49232 0.0
H1382 H 0.57096 0.83731 0.46225 0.0
H1383 H 0.49584 0.79433 0.49278 0.0
H1384 H 0.54068 0.68555 0.47761 0.0
H1385 H 0.50894 0.74243 0.47811 0.0
H1386 H 0.60932 0.79865 0.47623 0.0
H1387 H 0.64119 0.7414 0.47564 0.0
C1388 C 0.52833 0.8721 0.46876 0.0
C1389 C 0.49717 0.87689 0.47708 0.0
C1390 C 0.5476 0.83979 0.46902 0.0
C1391 C 0.53632 0.8108 0.47751 0.0
C1392 C 0.50532 0.81567 0.48594 0.0
C1393 C 0.48616 0.84819 0.48578 0.0
C1394 C 0.55614 0.70998 0.47734 0.0
C1395 C 0.59371 0.70856 0.47663 0.0
C1396 C 0.53781 0.74282 0.47773 0.0
C1397 C 0.55629 0.77559 0.47731 0.0
C1398 C 0.59393 0.77419 0.47649 0.0
C1399 C 0.61233 0.74124 0.47623 0.0
H1400 H 0.55923 0.38773 0.73348 0.0
H1401 H 0.60148 0.29237 0.71354 0.0
H1402 H 0.50008 0.35948 0.73458 0.0
H1403 H 0.54304 0.26457 0.71448 0.0
H1404 H 0.44433 0.20901 0.73214 0.0
H1405 H 0.50173 0.2396 0.73178 0.0
H1406 H 0.44929 0.33764 0.71954 0.0
H1407 H 0.39154 0.30693 0.71994 0.0
C1408 C 0.55603 0.36085 0.7293 0.0
C1409 C 0.58551 0.34251 0.72341 0.0
C1410 C 0.52198 0.34464 0.72986 0.0
C1411 C 0.51649 0.30945 0.72472 0.0
C1412 C 0.546 0.29137 0.71879 0.0
C1413 C 0.57971 0.30757 0.71813 0.0
C1414 C 0.44483 0.23714 0.72944 0.0
C1415 C 0.41293 0.25529 0.72607 0.0
C1416 C 0.47798 0.25474 0.72914 0.0
C1417 C 0.48054 0.29126 0.72555 0.0
C1418 C 0.44858 0.30966 0.72246 0.0
C1419 C 0.41535 0.29192 0.72263 0.0
H1420 H 1.02849 0.1594 0.96923 0.0
H1421 H 0.12825 0.2146 0.97582 0.0
H1422 H 0.99663 0.21666 0.96986 0.0
H1423 H 0.09647 0.27178 0.97624 0.0
H1424 H 0.03399 0.36824 0.9587 0.0
H1425 H 0.06305 0.30999 0.9587 0.0
H1426 H 0.98061 0.26915 0.98643 0.0
H1427 H 0.9515 0.32816 0.9865 0.0
C1428 C 0.0437 0.18368 0.97087 0.0
C1429 C 0.08114 0.18207 0.97246 0.0
C1430 C 1.02532 0.21661 0.97129 0.0
C1431 C 0.04382 0.24913 0.97304 0.0
C1432 C 0.08122 0.24747 0.97474 0.0
C1433 C 0.09951 0.21452 0.97458 0.0
C1434 C 1.02186 0.34694 0.96477 0.0
C1435 C 0.99037 0.3534 0.97262 0.0
C1436 C 0.03877 0.31342 0.96486 0.0
C1437 C 1.02462 0.28468 0.97271 0.0
C1438 C 0.99241 0.29056 0.98025 0.0
C1439 C 0.97567 0.32449 0.9803 0.0
H1440 H 0.10003 0.68209 0.72852 0.0
H1441 H 0.15453 0.77693 0.71414 0.0
H1442 H 0.0444 0.71599 0.73044 0.0
H1443 H 0.09946 0.81102 0.71642 0.0
H1444 H 0.95695 0.79741 0.74511 0.0
H1445 H 1.01065 0.7601 0.743 0.0
H1446 H 0.04363 0.82137 0.70603 0.0
H1447 H 0.99109 0.85901 0.7086 0.0
C1448 C 0.10031 0.71024 0.72585 0.0
C1449 C 0.13211 0.72653 0.72112 0.0
C1450 C 0.06824 0.72986 0.72703 0.0
C1451 C 0.0668 0.76652 0.72351 0.0
C1452 C 0.09882 0.7828 0.71896 0.0
C1453 C 0.13077 0.7632 0.71775 0.0
C1454 C 0.97557 0.80264 0.73647 0.0
C1455 C 0.96974 0.8316 0.72711 0.0
C1456 C 1.00652 0.78118 0.73522 0.0
C1457 C 0.0324 0.78782 0.72449 0.0
C1458 C 1.02539 0.81581 0.71476 0.0
C1459 C 0.99486 0.83736 0.71613 0.0
H1460 H 0.94143 0.22339 0.48116 0.0
H1461 H 0.03288 0.18017 0.45893 0.0
H1462 H 0.97248 0.28031 0.48423 0.0
H1463 H 0.06403 0.23724 0.46201 0.0
H1464 H 0.12269 0.33435 0.48228 0.0
H1465 H 0.09201 0.27691 0.47986 0.0
H1466 H 0.99339 0.33215 0.47084 0.0
H1467 H 1.02407 0.38953 0.47326 0.0
C1468 C 0.96823 0.22588 0.47694 0.0
C1469 C 0.98446 0.19676 0.46979 0.0
C1470 C 0.98606 0.25882 0.47863 0.0
C1471 C 1.02099 0.26386 0.47338 0.0
C1472 C 0.03738 0.23459 0.46636 0.0
C1473 C 1.01936 0.20174 0.46451 0.0
C1474 C 0.09439 0.33436 0.47989 0.0
C1475 C 0.07601 0.36697 0.47806 0.0
C1476 C 0.07676 0.30122 0.47836 0.0
C1477 C 0.03998 0.29943 0.47512 0.0
C1478 C 1.02154 0.3321 0.47348 0.0
C1479 C 0.03926 0.36521 0.47483 0.0
H1480 H 0.65269 0.26833 0.22734 0.0
H1481 H 0.59201 0.17058 0.22901 0.0
H1482 H 0.59784 0.30284 0.22725 0.0
H1483 H 0.53648 0.20514 0.22824 0.0
H1484 H 0.441 0.28152 0.23841 0.0
H1485 H 0.49443 0.24351 0.23909 0.0
H1486 H 0.55086 0.32127 0.21353 0.0
H1487 H 0.49872 0.35944 0.21369 0.0
C1488 C 0.62756 0.25407 0.2276 0.0
C1489 C 0.62715 0.21647 0.22816 0.0
C1490 C 0.59573 0.274 0.2274 0.0
C1491 C 0.56196 0.2572 0.22749 0.0
C1492 C 0.56155 0.21947 0.22827 0.0
C1493 C 0.59359 0.19947 0.22866 0.0
C1494 C 0.46483 0.29035 0.2329 0.0
C1495 C 0.46533 0.32389 0.22604 0.0
C1496 C 0.49566 0.26843 0.23324 0.0
C1497 C 0.52788 0.27921 0.22661 0.0
C1498 C 0.52751 0.31212 0.21926 0.0
C1499 C 0.49713 0.33405 0.21915 0.0
H1500 H 0.5345 0.89959 0.9743 0.0
H1501 H 0.63573 0.84646 0.98021 0.0
H1502 H 0.50405 0.84199 0.97512 0.0
H1503 H 0.6052 0.78879 0.98114 0.0
H1504 H 0.5405 0.69066 0.96418 0.0
H1505 H 0.5732 0.74689 0.96587 0.0
H1506 H 0.48764 0.79278 0.99089 0.0
H1507 H 0.4553 0.73609 0.98953 0.0
C1508 C 0.55033 0.87569 0.97589 0.0
C1509 C 0.58772 0.87798 0.97724 0.0
C1510 C 0.53275 0.84252 0.97646 0.0
C1511 C 0.55196 0.81043 0.9783 0.0
C1512 C 0.58938 0.81273 0.97964 0.0
C1513 C 0.60695 0.84596 0.97919 0.0
C1514 C 0.52884 0.71257 0.97022 0.0
C1515 C 0.4952 0.70864 0.97673 0.0
C1516 C 0.5477 0.74495 0.97121 0.0
C1517 C 0.5331 0.77484 0.97838 0.0
C1518 C 0.49967 0.77067 0.9851 0.0
C1519 C 0.48118 0.73797 0.98442 0.0
H1520 H 0.10387 0.30398 0.88677 0.0
H1521 H 0.07126 0.39074 0.85914 0.0
H1522 H 0.04722 0.27405 0.88245 0.0
H1523 H 1.0137 0.36067 0.85507 0.0
H1524 H 0.90125 0.30836 0.8677 0.0
H1525 H 0.95755 0.34112 0.87006 0.0
H1526 H 1.01587 0.24432 0.86081 0.0
H1527 H 0.95965 0.2116 0.85821 0.0
C1528 C 0.08456 0.31694 0.87983 0.0
C1529 C 0.09248 0.35001 0.87331 0.0
C1530 C 0.05205 0.29948 0.87727 0.0
C1531 C 1.02591 0.31469 0.86831 0.0
C1532 C 0.03323 0.34817 0.86204 0.0
C1533 C 0.06626 0.36541 0.86437 0.0
C1534 C 0.92604 0.29412 0.86593 0.0
C1535 C 0.9257 0.25722 0.8627 0.0
C1536 C 0.95835 0.31299 0.86726 0.0
C1537 C 0.99133 0.29542 0.86567 0.0
C1538 C 0.991 0.2587 0.86219 0.0
C1539 C 0.95869 0.23996 0.86059 0.0
H1540 H 0.48502 0.33366 0.59942 0.0
H1541 H 0.55853 0.37336 0.6315 0.0
H1542 H 0.51626 0.27594 0.59939 0.0
H1543 H 0.59 0.31639 0.63125 0.0
H1544 H 0.65659 0.21788 0.6202 0.0
H1545 H 0.6276 0.27599 0.61732 0.0
H1546 H 0.52484 0.22417 0.61561 0.0
H1547 H 0.55387 0.16604 0.61873 0.0
C1548 C 0.50822 0.33037 0.60626 0.0
C1549 C 0.51925 0.3584 0.61542 0.0
C1550 C 0.52597 0.29709 0.60636 0.0
C1551 C 0.55571 0.29112 0.61539 0.0
C1552 C 0.5674 0.3197 0.62412 0.0
C1553 C 0.54928 0.35256 0.62425 0.0
C1554 C 0.62781 0.21879 0.61914 0.0
C1555 C 0.60767 0.18707 0.61975 0.0
C1556 C 0.61111 0.25225 0.61754 0.0
C1557 C 0.57372 0.25509 0.61622 0.0
C1558 C 0.55366 0.22322 0.61641 0.0
C1559 C 0.57032 0.1898 0.61834 0.0
H1560 H 0.61326 0.78603 0.35827 0.0
H1561 H 0.56563 0.85237 0.39095 0.0
H1562 H 0.55893 0.74949 0.35742 0.0
H1563 H 0.51288 0.81506 0.391 0.0
H1564 H 0.4632 0.67416 0.36669 0.0
H1565 H 0.51947 0.7073 0.36735 0.0
H1566 H 0.46163 0.80352 0.37843 0.0
H1567 H 0.40616 0.77015 0.37838 0.0
C1568 C 0.59154 0.79246 0.3655 0.0
C1569 C 0.59406 0.8224 0.37472 0.0
C1570 C 0.5602 0.77137 0.36506 0.0
C1571 C 0.53055 0.77931 0.37395 0.0
C1572 C 0.53408 0.80836 0.38357 0.0
C1573 C 0.56488 0.82964 0.38377 0.0
C1574 C 0.46252 0.70242 0.36925 0.0
C1575 C 0.42981 0.71922 0.37257 0.0
C1576 C 0.49498 0.72162 0.36958 0.0
C1577 C 0.49585 0.75839 0.37313 0.0
C1578 C 0.46285 0.77519 0.37606 0.0
C1579 C 0.43062 0.75598 0.37589 0.0
H1580 H 0.9702 0.8392 0.10669 0.0
H1581 H 0.05033 0.87811 0.13629 0.0
H1582 H 1.0019 0.78203 0.10496 0.0
H1583 H 0.0822 0.82144 0.13438 0.0
H1584 H 0.14678 0.72381 0.11811 0.0
H1585 H 0.11699 0.78216 0.11854 0.0
H1586 H 1.0146 0.72963 0.11997 0.0
H1587 H 0.04429 0.67154 0.11957 0.0
C1588 C 0.99476 0.83579 0.1127 0.0
C1589 C 1.00756 0.86351 0.12162 0.0
C1590 C 1.01286 0.80281 0.11181 0.0
C1591 C 0.04463 0.7967 0.11963 0.0
C1592 C 0.05796 0.82489 0.12818 0.0
C1593 C 0.03955 0.85755 0.12928 0.0
C1594 C 0.11791 0.7247 0.11846 0.0
C1595 C 0.09806 0.69275 0.11875 0.0
C1596 C 0.10076 0.75825 0.11878 0.0
C1597 C 0.0632 0.7609 0.11918 0.0
C1598 C 0.04345 0.72889 0.11942 0.0
C1599 C 0.06058 0.69543 0.11929 0.0
H1600 H 0.27673 0.22818 0.33963 0.0
H1601 H 0.18914 0.20568 0.3107 0.0
H1602 H 0.30688 0.26094 0.32045 0.0
H1603 H 0.2196 0.23687 0.29149 0.0
H1604 H 0.26861 0.32171 0.26253 0.0
H1605 H 0.23725 0.29221 0.28222 0.0
H1606 H 0.33788 0.25306 0.2987 0.0
H1607 H 0.36901 0.28359 0.27942 0.0
C1608 C 0.26392 0.23016 0.32919 0.0
C1609 C 0.23045 0.21432 0.32677 0.0
C1610 C 0.28132 0.24873 0.31811 0.0
C1611 C 0.26587 0.25164 0.30428 0.0
C1612 C 0.23224 0.23593 0.30198 0.0
C1613 C 0.21479 0.21773 0.31305 0.0
C1614 C 0.28395 0.30663 0.27033 0.0
C1615 C 0.32133 0.30506 0.26936 0.0
C1616 C 0.26598 0.28958 0.28164 0.0
C1617 C 0.2849 0.27021 0.29222 0.0
C1618 C 0.32228 0.26827 0.29104 0.0
C1619 C 0.34019 0.28556 0.27984 0.0
H1620 H 0.97388 1.02574 0.5059 0.0
H1621 H 1.00923 0.12998 0.52004 0.0
H1622 H 1.0051 0.99849 0.52619 0.0
H1623 H 0.04135 0.10286 0.53999 0.0
H1624 H 0.06222 0.04857 0.58309 0.0
H1625 H 0.03143 0.07514 0.56253 0.0
H1626 H 0.06148 0.98453 0.53616 0.0
H1627 H 0.09096 0.9576 0.55675 0.0
C1628 C 0.98889 0.04276 0.51318 0.0
C1629 C 0.98902 0.08002 0.51135 0.0
C1630 C 1.00684 1.02717 0.52484 0.0
C1631 C 1.02561 0.04844 0.53489 0.0
C1632 C 1.02657 0.08562 0.53273 0.0
C1633 C 1.00841 0.10118 0.52117 0.0
C1634 C 0.06213 0.03433 0.57291 0.0
C1635 C 0.07898 1.00092 0.57161 0.0
C1636 C 0.04468 0.04965 0.56106 0.0
C1637 C 0.04391 0.03207 0.54759 0.0
C1638 C 0.06089 0.99867 0.54636 0.0
C1639 C 0.07804 0.98328 0.5582 0.0
H1640 H 0.27668 0.80624 0.83214 0.0
H1641 H 0.36983 0.82609 0.80611 0.0
H1642 H 0.25003 0.77249 0.81226 0.0
H1643 H 0.34286 0.79387 0.78614 0.0
H1644 H 0.29898 0.70573 0.75672 0.0
H1645 H 0.32675 0.73799 0.77675 0.0
H1646 H 0.22333 0.77826 0.78954 0.0
H1647 H 0.19576 0.74499 0.76993 0.0
C1648 C 0.29143 0.80351 0.82218 0.0
C1649 C 0.32546 0.81884 0.8208 0.0
C1650 C 0.27604 0.78436 0.81068 0.0
C1651 C 0.29411 0.78034 0.79743 0.0
C1652 C 0.32822 0.79567 0.79616 0.0
C1653 C 0.34367 0.81445 0.80766 0.0
C1654 C 0.28229 0.72176 0.76374 0.0
C1655 C 0.24514 0.72271 0.7617 0.0
C1656 C 0.29819 0.74036 0.77527 0.0
C1657 C 0.27738 0.76073 0.78497 0.0
C1658 C 0.2403 0.7623 0.78261 0.0
C1659 C 0.22445 0.74345 0.77122 0.0
H1660 H 0.46749 0.10625 0.05871 0.0
H1661 H 0.50331 1.02478 0.0882 0.0
H1662 H 0.50334 0.0801 1.0397 0.0
H1663 H 0.54057 0.99901 0.06915 0.0
H1664 H 0.57529 0.94015 1.02837 0.0
H1665 H 0.53915 0.96633 1.04738 0.0
H1666 H 0.56134 0.07175 1.0308 0.0
H1667 H 0.5967 0.04518 1.0114 0.0
C1668 C 0.48332 0.08284 0.06121 0.0
C1669 C 0.4824 0.06768 0.07507 0.0
C1670 C 0.50423 0.06791 0.05025 0.0
C1671 C 0.52523 0.03738 0.05275 0.0
C1672 C 0.52445 1.02222 0.06667 0.0
C1673 C 0.50322 0.03709 0.07766 0.0
C1674 C 0.57235 0.96896 1.0287 0.0
C1675 C 0.58892 0.99052 1.01827 0.0
C1676 C 0.5518 0.98406 1.03975 0.0
C1677 C 0.54728 1.02132 1.04084 0.0
C1678 C 0.56366 0.04293 1.0303 0.0
C1679 C 0.58408 1.02773 1.01914 0.0
H1680 H 0.35931 0.69744 0.31019 0.0
H1681 H 0.2711 0.72338 0.33819 0.0
H1682 H 0.33191 0.73117 0.29087 0.0
H1683 H 0.24405 0.75867 0.3189 0.0
H1684 H 0.18646 0.78835 0.27741 0.0
H1685 H 0.21424 0.7547 0.29673 0.0
H1686 H 0.31823 0.78776 0.2818 0.0
H1687 H 0.29014 0.82045 0.26204 0.0
C1688 C 0.33415 0.71071 0.3123 0.0
C1689 C 0.31745 0.70757 0.32582 0.0
C1690 C 0.31847 0.7304 0.30117 0.0
C1691 C 0.28563 0.74797 0.30317 0.0
C1692 C 0.26904 0.74513 0.31677 0.0
C1693 C 0.28465 0.72506 0.32792 0.0
C1694 C 0.21531 0.78833 0.27818 0.0
C1695 C 0.23604 0.80709 0.26809 0.0
C1696 C 0.23131 0.76922 0.28941 0.0
C1697 C 0.26864 0.76848 0.29105 0.0
C1698 C 0.28944 0.78713 0.28087 0.0
C1699 C 0.27336 0.80602 0.26951 0.0
H1700 H 0.58694 1.02553 0.59228 0.0
H1701 H 0.61028 0.1143 0.56431 0.0
H1702 H 0.54831 0.99987 0.57362 0.0
H1703 H 0.57323 0.08831 0.54561 0.0
H1704 H 0.48063 0.04885 0.51788 0.0
H1705 H 0.51578 0.07579 0.53732 0.0
H1706 H 0.54822 0.97056 0.55127 0.0
H1707 H 0.51222 0.94395 0.5323 0.0
C1708 C 0.58392 0.03955 0.58217 0.0
C1709 C 0.6018 0.07206 0.5799 0.0
C1710 C 0.56192 1.02472 0.57137 0.0
C1711 C 0.5574 0.04182 0.55793 0.0
C1712 C 0.57522 0.07445 0.55579 0.0
C1713 C 0.59686 0.08932 0.56658 0.0
C1714 C 0.4954 0.03154 0.52507 0.0
C1715 C 0.49348 0.99421 0.52345 0.0
C1716 C 0.51574 0.04696 0.53626 0.0
C1717 C 0.53504 1.02551 0.54607 0.0
C1718 C 0.53332 0.98817 0.54426 0.0
C1719 C 0.51281 0.97283 0.5332 0.0
H1720 H 0.34776 0.27867 0.77665 0.0
H1721 H 0.24872 0.22604 0.76583 0.0
H1722 H 0.31912 0.30775 0.79708 0.0
H1723 H 0.22022 0.25419 0.78658 0.0
H1724 H 0.171 0.3397 0.8156 0.0
H1725 H 0.19908 0.30914 0.79556 0.0
H1726 H 0.29585 0.2977 0.82053 0.0
H1727 H 0.26785 0.32979 0.84057 0.0
C1728 C 0.3198 0.27332 0.77863 0.0
C1729 C 0.3005 0.25013 0.76954 0.0
C1730 C 0.30343 0.28972 0.79048 0.0
C1731 C 0.26733 0.28322 0.79365 0.0
C1732 C 0.24793 0.26027 0.78443 0.0
C1733 C 0.26427 0.24407 0.7725 0.0
C1734 C 0.19822 0.3305 0.81692 0.0
C1735 C 0.21717 0.33735 0.82974 0.0
C1736 C 0.21432 0.31269 0.80538 0.0
C1737 C 0.24987 0.30088 0.80631 0.0
C1738 C 0.26862 0.30691 0.81929 0.0
C1739 C 0.25249 0.32501 0.83086 0.0
H1740 H 0.06484 0.11696 1.02419 0.0
H1741 H 0.09936 1.01337 1.009 0.0
H1742 H 0.03358 0.08898 1.0441 0.0
H1743 H 0.06909 0.98521 1.02927 0.0
H1744 H 0.98362 0.94248 0.05932 0.0
H1745 H 1.01366 0.97038 1.03921 0.0
H1746 H 0.04173 0.06017 0.0664 0.0
H1747 H 1.01017 0.03255 0.08653 0.0
C1748 C 0.06574 0.08811 1.02509 0.0
C1749 C 0.08455 0.06742 1.01493 0.0
C1750 C 0.04806 0.07203 1.03665 0.0
C1751 C 0.04888 0.03472 1.0385 0.0
C1752 C 0.06733 1.01396 1.02818 0.0
C1753 C 0.08478 1.03008 1.01652 0.0
C1754 C 0.99625 0.96817 0.06109 0.0
C1755 C 0.99443 0.98521 0.07462 0.0
C1756 C 1.01378 0.98414 0.04949 0.0
C1757 C 0.03041 1.01763 0.05105 0.0
C1758 C 1.02884 0.03463 0.06465 0.0
C1759 C 1.01095 1.01869 0.07627 0.0
H1760 H 0.68972 0.71815 0.81531 0.0
H1761 H 0.78398 0.72393 0.842 0.0
H1762 H 0.72099 0.74831 0.79604 0.0
H1763 H 0.81491 0.75629 0.82298 0.0
H1764 H 0.87356 0.78009 0.78143 0.0
H1765 H 0.84167 0.74953 0.80052 0.0
H1766 H 0.74394 0.80175 0.7874 0.0
H1767 H 0.77584 0.83102 0.76784 0.0
C1768 C 0.71704 0.72639 0.81718 0.0
C1769 C 0.73421 0.71876 0.83031 0.0
C1770 C 0.735 0.74405 0.80609 0.0
C1771 C 0.77067 0.75503 0.8078 0.0
C1772 C 0.78769 0.74785 0.82107 0.0
C1773 C 0.76979 0.72971 0.83211 0.0
C1774 C 0.84518 0.78484 0.78255 0.0
C1775 C 0.82725 0.80794 0.77305 0.0
C1776 C 0.82686 0.76756 0.79365 0.0
C1777 C 0.79008 0.77321 0.79574 0.0
C1778 C 0.77209 0.79615 0.7861 0.0
C1779 C 0.79039 0.81309 0.77485 0.0
H1780 H 0.76936 0.33082 0.33251 0.0
H1781 H 0.87174 0.2898 0.31907 0.0
H1782 H 0.74039 0.29623 0.31341 0.0
H1783 H 0.84295 0.25436 0.30038 0.0
H1784 H 0.78647 0.22088 0.25899 0.0
H1785 H 0.81448 0.25737 0.27779 0.0
H1786 H 0.72401 0.23885 0.30555 0.0
H1787 H 0.69574 0.20383 0.28669 0.0
C1788 C 0.78562 0.31397 0.32564 0.0
C1789 C 0.82288 0.31314 0.32737 0.0
C1790 C 0.76903 0.29402 0.31465 0.0
C1791 C 0.78922 0.27245 0.30516 0.0
C1792 C 0.82643 0.27114 0.30717 0.0
C1793 C 0.84298 0.29126 0.31804 0.0
C1794 C 0.77253 0.22483 0.26908 0.0
C1795 C 0.73879 0.20941 0.27125 0.0
C1796 C 0.78869 0.24556 0.27995 0.0
C1797 C 0.77168 0.2512 0.29333 0.0
C1798 C 0.73784 0.23583 0.29539 0.0
C1799 C 0.72165 0.21542 0.28453 0.0
H1800 H 0.75998 0.32588 0.75276 0.0
H1801 H 0.67583 0.34928 0.78307 0.0
H1802 H 0.7901 0.28974 0.77097 0.0
H1803 H 0.70657 0.31515 0.8014 0.0
H1804 H 0.75355 0.22676 0.82883 0.0
H1805 H 0.72218 0.25879 0.80976 0.0
H1806 H 0.82332 0.29301 0.79227 0.0
H1807 H 0.85437 0.25972 0.81089 0.0
C1808 C 0.74788 0.32332 0.76328 0.0
C1809 C 0.71529 0.34031 0.76635 0.0
C1810 C 0.76534 0.30286 0.77383 0.0
C1811 C 0.75095 0.29931 0.7878 0.0
C1812 C 0.71833 0.31642 0.79077 0.0
C1813 C 0.70073 0.33638 0.78022 0.0
C1814 C 0.76901 0.24122 0.82092 0.0
C1815 C 0.80647 0.24065 0.82142 0.0
C1816 C 0.75104 0.25977 0.80997 0.0
C1817 C 0.77005 0.27868 0.79932 0.0
C1818 C 0.80757 0.27829 0.79999 0.0
C1819 C 0.82547 0.2594 0.81081 0.0
H1820 H 0.78627 0.81774 0.33522 0.0
H1821 H 0.68434 0.78062 0.31943 0.0
H1822 H 0.81567 0.79006 0.31454 0.0
H1823 H 0.7136 0.75182 0.29912 0.0
H1824 H 0.77041 0.73324 0.25661 0.0
H1825 H 0.74218 0.76321 0.27706 0.0
H1826 H 0.83243 0.73558 0.30388 0.0
H1827 H 0.86101 0.70715 0.2834 0.0
C1828 C 0.77022 0.80316 0.32746 0.0
C1829 C 0.73298 0.80141 0.32899 0.0
C1830 C 0.78705 0.7872 0.31558 0.0
C1831 C 0.76709 0.76876 0.305 0.0
C1832 C 0.72989 0.76641 0.30679 0.0
C1833 C 0.71309 0.78265 0.31856 0.0
C1834 C 0.78427 0.73384 0.26685 0.0
C1835 C 0.81801 0.71784 0.26832 0.0
C1836 C 0.76798 0.75077 0.27865 0.0
C1837 C 0.78486 0.75181 0.29225 0.0
C1838 C 0.81874 0.73597 0.29361 0.0
C1839 C 0.83511 0.7194 0.28181 0.0
H1840 H 0.55704 0.44236 0.06191 0.0
H1841 H 0.58574 0.544 0.08088 0.0
H1842 H 0.5244 0.47307 1.04293 0.0
H1843 H 0.55408 0.57485 0.06162 0.0
H1844 H 0.46343 0.61818 1.03437 0.0
H1845 H 0.49587 0.58693 0.05308 0.0
H1846 H 0.53143 0.50871 1.02184 0.0
H1847 H 0.49762 0.53964 1.00305 0.0
C1848 C 0.55647 0.47132 0.06201 0.0
C1849 C 0.57389 0.49073 0.07296 0.0
C1850 C 0.53798 0.48895 0.05103 0.0
C1851 C 0.5366 0.5265 0.05066 0.0
C1852 C 0.55405 0.54591 0.06165 0.0
C1853 C 0.57233 0.52824 0.07269 0.0
C1854 C 0.47819 0.59434 1.03143 0.0
C1855 C 0.47796 0.58146 1.01717 0.0
C1856 C 0.49706 0.5765 1.04219 0.0
C1857 C 0.51655 0.54535 1.03903 0.0
C1858 C 0.51638 0.53239 1.02474 0.0
C1859 C 0.49719 0.5502 1.01393 0.0
H1860 H 0.9839 0.61889 0.56456 0.0
H1861 H 0.98579 0.52305 0.59032 0.0
H1862 H 1.01713 0.58868 0.54576 0.0
H1863 H 1.02027 0.49274 0.57147 0.0
H1864 H 0.04615 0.43865 0.52824 0.0
H1865 H 1.01436 0.46885 0.54758 0.0
H1866 H 0.07377 0.56543 0.53917 0.0
H1867 H 0.10505 0.53527 0.51949 0.0
C1868 C 0.99169 0.59135 0.56631 0.0
C1869 C 0.982 0.57344 0.57903 0.0
C1870 C 1.0111 0.57404 0.55549 0.0
C1871 C 1.02163 0.53819 0.557 0.0
C1872 C 1.01229 0.52025 0.5698 0.0
C1873 C 0.99271 0.53766 0.58068 0.0
C1874 C 0.05239 0.4664 0.53044 0.0
C1875 C 0.07816 0.48452 0.52221 0.0
C1876 C 0.03433 0.48367 0.54168 0.0
C1877 C 0.04148 0.51962 0.5451 0.0
C1878 C 0.06714 0.53785 0.5368 0.0
C1879 C 0.08519 0.52056 0.52549 0.0
H1880 H 0.10905 0.51706 0.08378 0.0
H1881 H 0.05536 0.61584 0.0737 0.0
H1882 H 0.07472 0.48646 0.0651 0.0
H1883 H 1.01939 0.58522 0.05566 0.0
H1884 H 0.98355 0.5314 1.01422 0.0
H1885 H 1.0181 0.56129 1.03298 0.0
H1886 H 1.02213 0.46263 0.05706 0.0
H1887 H 0.99028 0.43248 1.03777 0.0
C1888 C 0.08926 0.53205 0.0778 0.0
C1889 C 0.08498 0.56889 0.08025 0.0
C1890 C 0.06935 0.5145 0.06704 0.0
C1891 C 0.04405 0.53313 0.05859 0.0
C1892 C 0.03907 0.56983 0.06151 0.0
C1893 C 0.05947 0.58745 0.07204 0.0
C1894 C 0.99248 0.51598 1.02339 0.0
C1895 C 0.98476 0.4793 1.02424 0.0
C1896 C 1.01186 0.53329 1.03436 0.0
C1897 C 1.02335 0.51465 1.04675 0.0
C1898 C 1.0148 0.47805 1.04767 0.0
C1899 C 0.99607 0.46068 1.03658 0.0
H1900 H 0.52064 0.53055 0.58501 0.0
H1901 H 0.47864 0.45838 0.55279 0.0
H1902 H 0.55331 0.56254 0.5663 0.0
H1903 H 0.50991 0.49086 0.53412 0.0
H1904 H 0.59867 0.5338 0.50529 0.0
H1905 H 0.56594 0.50188 0.52395 0.0
H1906 H 0.54828 0.60152 0.54659 0.0
H1907 H 0.58202 0.63296 0.52825 0.0
C1908 C 0.51813 0.52169 0.57394 0.0
C1909 C 0.4971 0.49175 0.57047 0.0
C1910 C 0.53672 0.54016 0.56314 0.0
C1911 C 0.53452 0.5294 0.54856 0.0
C1912 C 0.51306 0.49968 0.54516 0.0
C1913 C 0.49481 0.48111 0.55594 0.0
C1914 C 0.58754 0.54888 0.51419 0.0
C1915 C 0.59306 0.58596 0.51523 0.0
C1916 C 0.56863 0.5306 0.52493 0.0
C1917 C 0.55439 0.54893 0.53695 0.0
C1918 C 0.55935 0.58618 0.53775 0.0
C1919 C 0.5785 0.60435 0.52711 0.0
H1920 H 0.31364 0.16551 0.39975 0.0
H1921 H 0.24999 0.06997 0.39611 0.0
H1922 H 0.34909 0.13781 0.41878 0.0
H1923 H 0.28546 0.04211 0.4153 0.0
H1924 H 0.33268 1.01817 0.46089 0.0
H1925 H 0.29707 0.04607 0.44175 0.0
H1926 H 0.39279 0.09131 0.42371 0.0
H1927 H 0.42814 0.06347 0.44265 0.0
C1928 C 0.30749 0.13832 0.40284 0.0
C1929 C 0.27882 0.12012 0.39623 0.0
C1930 C 0.32788 0.12235 0.41385 0.0
C1931 C 0.32026 0.08759 0.41883 0.0
C1932 C 0.29203 0.06904 0.412 0.0
C1933 C 0.27188 0.0849 0.40081 0.0
C1934 C 0.3461 0.03457 0.45299 0.0
C1935 C 0.38354 0.0385 0.45351 0.0
C1936 C 0.32565 0.05024 0.44184 0.0
C1937 C 0.3418 0.07101 0.43097 0.0
C1938 C 0.37906 0.07586 0.43182 0.0
C1939 C 0.39948 0.0598 0.44279 0.0
H1940 H 0.2859 0.09795 0.70328 0.0
H1941 H 0.20998 0.18451 0.701 0.0
H1942 H 0.25444 0.06694 0.68382 0.0
H1943 H 0.17875 0.15379 0.68144 0.0
H1944 H 0.11113 0.07184 0.65608 0.0
H1945 H 0.14189 0.10339 0.67543 0.0
H1946 H 0.2433 0.07006 0.65795 0.0
H1947 H 0.21229 0.03797 0.63856 0.0
C1948 C 0.26221 0.11023 0.69878 0.0
C1949 C 0.25065 0.14393 0.70379 0.0
C1950 C 0.24439 0.09261 0.68742 0.0
C1951 C 0.21408 0.10784 0.68081 0.0
C1952 C 0.20178 0.14093 0.68621 0.0
C1953 C 0.21975 0.15865 0.69749 0.0
C1954 C 0.14003 0.07154 0.65619 0.0
C1955 C 0.15905 0.05224 0.64562 0.0
C1956 C 0.15778 0.08979 0.66736 0.0
C1957 C 0.19528 0.08931 0.66845 0.0
C1958 C 0.21442 0.07072 0.65767 0.0
C1959 C 0.19661 0.05263 0.6464 0.0
H1960 H 0.23381 0.04954 0.94762 0.0
H1961 H 0.14448 0.97693 0.94635 0.0
H1962 H 0.26224 1.01614 0.928 0.0
H1963 H 0.173 0.94343 0.92685 0.0
H1964 H 0.25518 0.87071 0.90307 0.0
H1965 H 0.2252 0.90423 0.9221 0.0
H1966 H 0.2539 1.00317 0.90146 0.0
H1967 H 0.28386 0.96948 0.88223 0.0
C1968 C 0.22039 1.02617 0.94333 0.0
C1969 C 0.18672 1.01602 0.9487 0.0
C1970 C 0.23655 1.00722 0.9319 0.0
C1971 C 0.21995 0.97705 0.92568 0.0
C1972 C 0.18678 0.96635 0.93134 0.0
C1973 C 0.17035 0.98564 0.94257 0.0
C1974 C 0.25473 0.8996 0.9024 0.0
C1975 C 0.27221 0.91717 0.891 0.0
C1976 C 0.23745 0.91892 0.91339 0.0
C1977 C 0.23721 0.95657 0.91348 0.0
C1978 C 0.25384 0.97424 0.90189 0.0
C1979 C 0.27073 0.95485 0.89074 0.0
H1980 H 0.22799 0.91949 0.17504 0.0
H1981 H 0.2953 0.9423 0.21162 0.0
H1982 H 0.26759 0.95388 0.15954 0.0
H1983 H 0.33508 0.97722 0.19607 0.0
H1984 H 0.35995 0.07899 0.16864 0.0
H1985 H 0.32951 0.03552 0.18364 0.0
H1986 H 0.32752 0.96094 0.14809 0.0
H1987 H 0.35869 1.00481 0.13294 0.0
C1988 C 0.25181 0.93111 0.17973 0.0
C1989 C 0.25841 0.92775 0.19464 0.0
C1990 C 0.27463 0.95095 0.17079 0.0
C1991 C 0.30461 0.96884 0.17645 0.0
C1992 C 0.31213 0.96421 0.19127 0.0
C1993 C 0.28955 0.94373 0.2002 0.0
C1994 C 0.35329 0.05328 0.16394 0.0
C1995 C 0.36177 0.04578 0.14943 0.0
C1996 C 0.336 1.02807 0.17267 0.0
C1997 C 0.32591 0.99439 0.16722 0.0
C1998 C 0.33465 0.98657 0.15273 0.0
C1999 C 0.35267 1.01172 0.14401 0.0
H2000 H 0.84269 0.9927 0.70292 0.0
H2001 H 0.78188 0.8948 0.70184 0.0
H2002 H 0.8056 1.01742 0.6841 0.0
H2003 H 0.74461 0.91963 0.68245 0.0
H2004 H 0.66479 0.99256 0.65652 0.0
H2005 H 0.6999 0.963 0.67529 0.0
H2006 H 0.7951 1.01394 0.65925 0.0
H2007 H 0.75998 0.04409 0.64089 0.0
C2008 C 0.82139 0.97619 0.69864 0.0
C2009 C 0.81571 0.94142 0.704 0.0
C2010 C 0.8001 0.99044 0.68764 0.0
C2011 C 0.7722 0.97054 0.68136 0.0
C2012 C 0.76571 0.936 0.68694 0.0
C2013 C 0.78715 0.92165 0.6981 0.0
C2014 C 0.6933 0.99717 0.65689 0.0
C2015 C 0.70931 1.0211 0.64713 0.0
C2016 C 0.71356 0.98007 0.66771 0.0
C2017 C 0.75054 0.98625 0.66911 0.0
C2018 C 0.76665 1.009 0.65891 0.0
C2019 C 0.74645 1.02614 0.64818 0.0
H2020 H 0.91661 0.99578 0.43755 0.0
H2021 H 0.8245 0.04901 0.45531 0.0
H2022 H 0.87767 0.95785 0.42288 0.0
H2023 H 0.78569 1.01269 0.44029 0.0
H2024 H 0.71677 0.93087 0.41902 0.0
H2025 H 0.75847 0.95991 0.4353 0.0
H2026 H 0.84077 0.95233 0.40288 0.0
H2027 H 0.79892 0.92122 0.38685 0.0
C2028 C 0.888 0.9993 0.43841 0.0
C2029 C 0.87393 1.02554 0.44778 0.0
C2030 C 0.86547 0.97769 0.42982 0.0
C2031 C 0.82797 0.98166 0.43018 0.0
C2032 C 0.81408 1.00769 0.43974 0.0
C2033 C 0.83655 1.02892 0.44843 0.0
C2034 C 0.74397 0.93482 0.41543 0.0
C2035 C 0.75431 0.92348 0.40156 0.0
C2036 C 0.76802 0.95211 0.42476 0.0
C2037 C 0.80337 0.95967 0.42053 0.0
C2038 C 0.81412 0.94708 0.40679 0.0
C2039 C 0.79004 0.92907 0.3975 0.0
H2040 H 0.8483 1.01239 0.13935 0.0
H2041 H 0.94391 0.04605 0.1615 0.0
H2042 H 0.81198 0.04151 0.158 0.0
H2043 H 0.90784 0.07525 0.17995 0.0
H2044 H 0.83089 0.15288 0.2034 0.0
H2045 H 0.86661 0.12545 0.18435 0.0
H2046 H 0.79695 0.03373 0.18421 0.0
H2047 H 0.76126 0.0611 0.20341 0.0
C2048 C 0.86166 1.02654 0.14801 0.0
C2049 C 0.89924 1.02684 0.14878 0.0
C2050 C 0.84077 0.04291 0.15885 0.0
C2051 C 0.85679 0.06068 0.17065 0.0
C2052 C 0.89434 0.06211 0.17107 0.0
C2053 C 0.91514 0.0453 0.16041 0.0
C2054 C 0.82334 0.12665 0.19947 0.0
C2055 C 0.79314 0.10926 0.20514 0.0
C2056 C 0.84391 0.11086 0.18847 0.0
C2057 C 0.83476 0.07731 0.18256 0.0
C2058 C 0.80472 0.05973 0.18831 0.0
C2059 C 0.78445 0.07529 0.19949 0.0
H2060 H 0.64669 0.08165 0.94999 0.0
H2061 H 0.73689 1.00987 0.94992 0.0
H2062 H 0.67473 0.11716 0.93113 0.0
H2063 H 0.76502 0.04548 0.93103 0.0
H2064 H 0.79001 0.09775 0.88717 0.0
H2065 H 0.75978 0.06152 0.90537 0.0
H2066 H 0.72435 0.1577 0.92683 0.0
H2067 H 0.75438 0.19373 0.9087 0.0
C2068 C 0.67267 0.07353 0.94606 0.0
C2069 C 0.68949 0.04285 0.95166 0.0
C2070 C 0.68885 0.09402 0.93519 0.0
C2071 C 0.72228 0.08437 0.9294 0.0
C2072 C 0.73914 0.05369 0.93502 0.0
C2073 C 0.72311 0.03339 0.94601 0.0
C2074 C 0.77524 0.11121 0.89561 0.0
C2075 C 0.77456 0.14886 0.8963 0.0
C2076 C 0.75823 0.09037 0.90621 0.0
C2077 C 0.73958 0.10647 0.91774 0.0
C2078 C 0.73805 0.14411 0.91813 0.0
C2079 C 0.7554 0.16489 0.90768 0.0
H2080 H 0.76314 0.65183 0.92286 0.0
H2081 H 0.7728 0.57605 0.88794 0.0
H2082 H 0.80035 0.61357 0.93805 0.0
H2083 H 0.81045 0.53797 0.9031 0.0
H2084 H 0.91304 0.50508 0.92885 0.0
H2085 H 0.87153 0.53939 0.914 0.0
H2086 H 0.80276 0.55427 0.95072 0.0
H2087 H 0.84423 0.51937 0.9656 0.0
C2088 C 0.77295 0.62689 0.91841 0.0
C2089 C 0.76466 0.61727 0.90407 0.0
C2090 C 0.79429 0.60477 0.92719 0.0
C2091 C 0.80876 0.57248 0.9219 0.0
C2092 C 0.8002 0.56267 0.9076 0.0
C2093 C 0.77829 0.58449 0.89889 0.0
C2094 C 0.88897 0.51539 0.9338 0.0
C2095 C 0.88226 0.50922 0.94853 0.0
C2096 C 0.86495 0.53504 0.92521 0.0
C2097 C 0.83354 0.54989 0.93105 0.0
C2098 C 0.82668 0.5436 0.94578 0.0
C2099 C 0.85044 0.52332 0.95434 0.0
H2100 H 0.62467 0.56736 0.14912 0.0
H2101 H 0.72274 0.51546 0.13649 0.0
H2102 H 0.6567 0.60011 0.16796 0.0
H2103 H 0.75462 0.54781 0.15557 0.0
H2104 H 0.78584 0.57739 0.20293 0.0
H2105 H 0.75383 0.54721 0.18337 0.0
H2106 H 0.70549 0.64731 0.17118 0.0
H2107 H 0.73801 0.67776 0.19053 0.0
C2108 C 0.65315 0.56322 0.15022 0.0
C2109 C 0.67099 0.53863 0.14121 0.0
C2110 C 0.67152 0.58202 0.16107 0.0
C2111 C 0.7082 0.57638 0.16342 0.0
C2112 C 0.72629 0.5525 0.15419 0.0
C2113 C 0.70804 0.53421 0.14313 0.0
C2114 C 0.76814 0.59301 0.19619 0.0
C2115 C 0.76472 0.63019 0.19837 0.0
C2116 C 0.75005 0.5757 0.18486 0.0
C2117 C 0.72728 0.59484 0.17559 0.0
C2118 C 0.72276 0.63171 0.1781 0.0
C2119 C 0.74139 0.64917 0.18924 0.0
H2120 H 0.76242 0.39837 0.40534 0.0
H2121 H 0.78733 0.48605 0.37708 0.0
H2122 H 0.73348 0.43987 0.42207 0.0
H2123 H 0.75753 0.52754 0.39373 0.0
H2124 H 0.66611 0.58231 0.42098 0.0
H2125 H 0.6959 0.54225 0.4039 0.0
H2126 H 0.75084 0.49096 0.43903 0.0
H2127 H 0.72156 0.53163 0.45616 0.0
C2128 C 0.76123 0.42641 0.40251 0.0
C2129 C 0.77717 0.43853 0.38966 0.0
C2130 C 0.7449 0.45038 0.41225 0.0
C2131 C 0.74315 0.48733 0.4094 0.0
C2132 C 0.75811 0.49936 0.39635 0.0
C2133 C 0.77518 0.47546 0.38673 0.0
C2134 C 0.68479 0.56274 0.42511 0.0
C2135 C 0.69133 0.56056 0.44007 0.0
C2136 C 0.702 0.53972 0.41525 0.0
C2137 C 0.72583 0.51302 0.41997 0.0
C2138 C 0.7325 0.51087 0.43492 0.0
C2139 C 0.71586 0.53447 0.44478 0.0
H2140 H 0.74779 0.40805 0.67535 0.0
H2141 H 0.73941 0.49027 0.70789 0.0
H2142 H 0.78181 0.44852 0.66011 0.0
H2143 H 0.77425 0.5305 0.69285 0.0
H2144 H 0.80928 0.60758 0.65796 0.0
H2145 H 0.77449 0.5665 0.67238 0.0
H2146 H 0.83662 0.47808 0.65595 0.0
H2147 H 0.87108 0.51957 0.64109 0.0
C2148 C 0.75317 0.43478 0.67931 0.0
C2149 C 0.74039 0.44564 0.69295 0.0
C2150 C 0.77312 0.45808 0.67055 0.0
C2151 C 0.78119 0.49324 0.67506 0.0
C2152 C 0.76835 0.50406 0.68872 0.0
C2153 C 0.74832 0.48077 0.69746 0.0
C2154 C 0.81565 0.57937 0.65732 0.0
C2155 C 0.84333 0.56723 0.64823 0.0
C2156 C 0.79567 0.5556 0.66578 0.0
C2157 C 0.80252 0.51853 0.66562 0.0
C2158 C 0.82997 0.50622 0.65638 0.0
C2159 C 0.84999 0.53014 0.64784 0.0
H2160 H 0.26326 0.41795 0.20776 0.0
H2161 H 0.35599 0.46582 0.18832 0.0
H2162 H 0.22483 0.45143 0.19102 0.0
H2163 H 0.31815 0.49908 0.17192 0.0
H2164 H 0.24347 0.53473 0.13576 0.0
H2165 H 0.27953 0.49647 0.1514 0.0
H2166 H 0.20387 0.51181 0.18584 0.0
H2167 H 0.16781 0.54971 0.17022 0.0
C2168 C 0.27554 0.43523 0.19987 0.0
C2169 C 0.31294 0.43898 0.19954 0.0
C2170 C 0.25346 0.4548 0.19031 0.0
C2171 C 0.2681 0.47834 0.17998 0.0
C2172 C 0.30553 0.48116 0.17948 0.0
C2173 C 0.32739 0.46205 0.18906 0.0
C2174 C 0.23446 0.53004 0.14666 0.0
C2175 C 0.20254 0.54578 0.1516 0.0
C2176 C 0.25529 0.50803 0.15572 0.0
C2177 C 0.24491 0.50069 0.17004 0.0
C2178 C 0.21279 0.51617 0.1749 0.0
C2179 C 0.19213 0.53834 0.1659 0.0
H2180 H 0.36998 0.53024 0.95722 0.0
H2181 H 0.37538 0.60258 0.92124 0.0
H2182 H 0.33163 0.49048 0.94315 0.0
H2183 H 0.33569 0.56436 0.90751 0.0
H2184 H 0.28292 0.47661 0.88074 0.0
H2185 H 0.32465 0.5141 0.89427 0.0
H2186 H 0.27583 0.48008 0.93408 0.0
H2187 H 0.23579 0.44156 0.92054 0.0
C2188 C 0.36302 0.53773 0.94632 0.0
C2189 C 0.37619 0.5697 0.94044 0.0
C2190 C 0.34052 0.51504 0.93821 0.0
C2191 C 0.32985 0.52384 0.92402 0.0
C2192 C 0.34341 0.55578 0.91819 0.0
C2193 C 0.36627 0.57806 0.92618 0.0
C2194 C 0.28107 0.47735 0.89238 0.0
C2195 C 0.25601 0.4558 0.8995 0.0
C2196 C 0.30504 0.49903 0.90024 0.0
C2197 C 0.30431 0.50042 0.91548 0.0
C2198 C 0.27844 0.4794 0.92248 0.0
C2199 C 0.25502 0.45735 0.91465 0.0
H2200 H 0.38965 0.53864 0.63323 0.0
H2201 H 0.41504 0.47299 0.66999 0.0
H2202 H 0.35418 0.57816 0.64893 0.0
H2203 H 0.38 0.51186 0.68539 0.0
H2204 H 0.28008 0.56173 0.70575 0.0
H2205 H 0.31751 0.52573 0.68976 0.0
H2206 H 0.35609 0.62168 0.66944 0.0
H2207 H 0.31862 0.65772 0.68546 0.0
C2208 C 0.38818 0.53281 0.64462 0.0
C2209 C 0.40537 0.50228 0.65019 0.0
C2210 C 0.36773 0.55548 0.65366 0.0
C2211 C 0.36358 0.54808 0.6685 0.0
C2212 C 0.38171 0.51821 0.67404 0.0
C2213 C 0.4022 0.49592 0.66512 0.0
C2214 C 0.29671 0.57525 0.69797 0.0
C2215 C 0.29637 0.61282 0.6971 0.0
C2216 C 0.31835 0.55455 0.68876 0.0
C2217 C 0.34015 0.5706 0.67821 0.0
C2218 C 0.33962 0.60818 0.67728 0.0
C2219 C 0.31828 0.62893 0.68662 0.0
H2220 H 0.13909 0.55778 0.45026 0.0
H2221 H 0.2371 0.50171 0.45948 0.0
H2222 H 0.16718 0.58648 0.42971 0.0
H2223 H 0.26565 0.53114 0.43905 0.0
H2224 H 0.29702 0.56163 0.39284 0.0
H2225 H 0.26862 0.53306 0.41345 0.0
H2226 H 0.20857 0.62955 0.42169 0.0
H2227 H 0.23653 0.65777 0.40097 0.0
C2228 C 0.16686 0.5519 0.44807 0.0
C2229 C 0.18568 0.52733 0.45671 0.0
C2230 C 0.18314 0.56856 0.4362 0.0
C2231 C 0.21894 0.56136 0.43248 0.0
C2232 C 0.23795 0.53718 0.44129 0.0
C2233 C 0.22163 0.5205 0.45319 0.0
C2234 C 0.27748 0.57669 0.39894 0.0
C2235 C 0.26913 0.61213 0.39505 0.0
C2236 C 0.26137 0.56035 0.41095 0.0
C2237 C 0.23612 0.57876 0.41949 0.0
C2238 C 0.22738 0.61403 0.41541 0.0
C2239 C 0.24355 0.63038 0.40344 0.0
H2240 H 0.17066 0.04425 0.33462 0.0
H2241 H 0.25884 0.10085 0.31554 0.0
H2242 H 0.17032 1.00247 0.3142 0.0
H2243 H 0.25735 0.06103 0.29493 0.0
H2244 H 0.27654 0.96384 0.26795 0.0
H2245 H 0.27341 1.00394 0.28841 0.0
H2246 H 0.15878 0.99121 0.28963 0.0
H2247 H 0.16254 0.94844 0.26971 0.0
C2248 C 0.18965 0.04798 0.32598 0.0
C2249 C 0.21514 0.07543 0.32679 0.0
C2250 C 0.18938 1.02419 0.31421 0.0
C2251 C 0.21422 1.02779 0.3029 0.0
C2252 C 0.23859 0.05637 0.30357 0.0
C2253 C 0.23931 0.0795 0.31539 0.0
C2254 C 0.25059 0.96954 0.27254 0.0
C2255 C 0.21965 0.95355 0.26689 0.0
C2256 C 0.24871 0.99297 0.28426 0.0
C2257 C 0.21572 1.00169 0.29062 0.0
C2258 C 0.1847 0.98529 0.28509 0.0
C2259 C 0.18672 0.96125 0.27345 0.0
H2260 H 0.2488 1.03074 0.58585 0.0
H2261 H 0.20669 0.92633 0.57543 0.0
H2262 H 0.28977 1.02649 0.56571 0.0
H2263 H 0.24763 0.92234 0.55488 0.0
H2264 H 0.35059 0.92107 0.52574 0.0
H2265 H 0.311 0.91891 0.54676 0.0
H2266 H 0.28279 1.02955 0.53996 0.0
H2267 H 0.32233 0.03188 0.51937 0.0
C2268 C 0.24839 1.00673 0.57929 0.0
C2269 C 0.22417 0.97904 0.58219 0.0
C2270 C 0.27178 1.00439 0.56765 0.0
C2271 C 0.27155 0.9744 0.55846 0.0
C2272 C 0.24853 0.94583 0.56174 0.0
C2273 C 0.22506 0.94812 0.5735 0.0
C2274 C 0.33571 0.9448 0.52871 0.0
C2275 C 0.33995 0.97675 0.52094 0.0
C2276 C 0.31299 0.94355 0.54074 0.0
C2277 C 0.29415 0.97424 0.54523 0.0
C2278 C 0.29755 1.00566 0.53709 0.0
C2279 C 0.32014 1.00692 0.52517 0.0
H2280 H 0.33162 0.13495 0.79196 0.0
H2281 H 0.35909 0.06654 0.75608 0.0
H2282 H 0.34218 0.08571 0.80858 0.0
H2283 H 0.36902 1.01677 0.77282 0.0
H2284 H 0.3159 0.93639 0.8065 0.0
H2285 H 0.3222 0.98394 0.7888 0.0
H2286 H 0.39122 0.04173 0.81797 0.0
H2287 H 0.38548 0.99345 0.83571 0.0
C2288 C 0.34038 0.10946 0.78764 0.0
C2289 C 0.34429 0.1045 0.77271 0.0
C2290 C 0.34668 0.08136 0.79718 0.0
C2291 C 0.35639 0.04742 0.792 0.0
C2292 C 0.36152 0.0427 0.77709 0.0
C2293 C 0.35595 0.07114 0.76754 0.0
C2294 C 0.33288 0.95898 0.80907 0.0
C2295 C 0.35 0.96138 0.82252 0.0
C2296 C 0.33671 0.98605 0.79887 0.0
C2297 C 0.35719 1.01652 0.802 0.0
C2298 C 0.37525 1.0185 0.8153 0.0
C2299 C 0.37205 0.99091 0.82541 0.0
H2300 H 0.24489 0.13306 1.01357 0.0
H2301 H 0.21231 1.02533 1.02369 0.0
H2302 H 0.28355 0.13362 1.0349 0.0
H2303 H 0.24943 1.02631 1.04506 0.0
H2304 H 0.34899 1.0211 0.07209 0.0
H2305 H 0.31023 1.02373 0.05122 0.0
H2306 H 0.28545 0.13409 0.06096 0.0
H2307 H 0.32568 0.13176 0.08175 0.0
C2308 C 0.24582 0.10963 1.02038 0.0
C2309 C 0.2259 0.079 1.01681 0.0
C2310 C 0.26776 0.11001 1.03266 0.0
C2311 C 0.26997 0.07985 1.04167 0.0
C2312 C 0.24923 0.0497 1.03822 0.0
C2313 C 0.22773 0.0492 1.02595 0.0
C2314 C 0.33518 0.04594 0.06988 0.0
C2315 C 0.34032 0.07615 0.07867 0.0
C2316 C 0.31272 0.04741 0.05789 0.0
C2317 C 0.29435 0.07905 0.05441 0.0
C2318 C 0.29941 0.10937 0.06322 0.0
C2319 C 0.32222 0.10796 0.07521 0.0
H2320 H 0.89583 0.94727 0.77812 0.0
H2321 H 0.79496 0.98761 0.76254 0.0
H2322 H 0.89342 0.98971 0.79831 0.0
H2323 H 0.79279 1.02997 0.7824 0.0
H2324 H 0.77592 0.07128 0.82732 0.0
H2325 H 0.78287 1.02829 0.80786 0.0
H2326 H 0.89519 0.05325 0.80537 0.0
H2327 H 0.88831 0.09609 0.82522 0.0
C2328 C 0.87342 0.96548 0.77889 0.0
C2329 C 0.84552 0.96389 0.76874 0.0
C2330 C 0.87203 0.98982 0.79046 0.0
C2331 C 0.84263 1.01299 0.79214 0.0
C2332 C 0.81541 1.012 0.7817 0.0
C2333 C 0.81678 0.98779 0.77021 0.0
C2334 C 0.8022 0.06755 0.82272 0.0
C2335 C 0.83149 0.08741 0.82781 0.0
C2336 C 0.80616 0.043 0.81144 0.0
C2337 C 0.8395 0.03761 0.80483 0.0
C2338 C 0.86913 0.0566 0.81022 0.0
C2339 C 0.86517 0.08124 0.82158 0.0
H2340 H 0.73034 1.02565 0.57096 0.0
H2341 H 0.76169 0.13322 0.58247 0.0
H2342 H 0.7654 1.02937 0.5491 0.0
H2343 H 0.79808 0.13652 0.56071 0.0
H2344 H 0.83051 0.14097 0.51282 0.0
H2345 H 0.79433 0.13968 0.53472 0.0
H2346 H 0.82589 1.02994 0.54181 0.0
H2347 H 0.86065 1.03085 0.51985 0.0
C2348 C 0.74511 0.04998 0.56891 0.0
C2349 C 0.74344 0.07906 0.57849 0.0
C2350 C 0.76535 0.05207 0.55638 0.0
C2351 C 0.78479 0.08316 0.55318 0.0
C2352 C 0.78311 0.11233 0.56276 0.0
C2353 C 0.76252 0.11034 0.57528 0.0
C2354 C 0.82952 0.1166 0.51907 0.0
C2355 C 0.84811 0.08592 0.51455 0.0
C2356 C 0.80903 0.11592 0.53166 0.0
C2357 C 0.80702 0.08462 0.53998 0.0
C2358 C 0.82615 0.05423 0.53551 0.0
C2359 C 0.84625 0.05481 0.52292 0.0
H2360 H 0.77642 0.95507 0.33157 0.0
H2361 H 0.66233 0.94156 0.32821 0.0
H2362 H 0.77539 0.9956 0.31135 0.0
H2363 H 0.66073 0.98459 0.30845 0.0
H2364 H 0.67776 0.03692 0.26372 0.0
H2365 H 0.67492 0.99526 0.28399 0.0
H2366 H 0.76016 0.05328 0.30511 0.0
H2367 H 0.76411 0.09308 0.28468 0.0
C2368 C 0.75091 0.96124 0.32666 0.0
C2369 C 0.71932 0.94562 0.33175 0.0
C2370 C 0.75024 0.9849 0.31509 0.0
C2371 C 0.71787 0.99416 0.30833 0.0
C2372 C 0.68621 0.97817 0.31331 0.0
C2373 C 0.68699 0.95393 0.32481 0.0
C2374 C 0.69579 0.0406 0.27274 0.0
C2375 C 0.72154 0.06787 0.27251 0.0
C2376 C 0.69408 1.01687 0.28441 0.0
C2377 C 0.71771 1.02036 0.29618 0.0
C2378 C 0.7423 0.04878 0.2961 0.0
C2379 C 0.74444 0.07187 0.28439 0.0
H2380 H 0.86045 1.02848 0.07464 0.0
H2381 H 0.84323 0.91551 0.08114 0.0
H2382 H 0.81977 1.02769 0.05441 0.0
H2383 H 0.80097 0.91494 0.0609 0.0
H2384 H 0.75452 0.92448 1.01417 0.0
H2385 H 0.79552 0.92072 1.03475 0.0
H2386 H 0.75806 1.02355 0.04983 0.0
H2387 H 0.71857 1.02779 1.02924 0.0
C2388 C 0.84763 1.00343 0.07186 0.0
C2389 C 0.85494 0.9721 0.07962 0.0
C2390 C 0.82404 1.00303 0.06024 0.0
C2391 C 0.80658 0.97136 0.05608 0.0
C2392 C 0.81407 0.93978 0.06374 0.0
C2393 C 0.83808 0.94013 0.0754 0.0
C2394 C 0.75521 0.94624 1.0219 0.0
C2395 C 0.73367 0.97667 1.01994 0.0
C2396 C 0.7785 0.94399 1.03375 0.0
C2397 C 0.78051 0.97205 1.04389 0.0
C2398 C 0.75805 1.00184 1.04208 0.0
C2399 C 0.7352 1.00422 1.03025 0.0
H2400 H 0.76851 0.5559 0.83284 0.0
H2401 H 0.65943 0.59168 0.8284 0.0
H2402 H 0.76347 0.52302 0.81027 0.0
H2403 H 0.65469 0.55971 0.80551 0.0
H2404 H 0.65018 0.47055 0.77103 0.0
H2405 H 0.65221 0.50238 0.79403 0.0
H2406 H 0.76068 0.53467 0.78521 0.0
H2407 H 0.75897 0.50194 0.76253 0.0
C2408 C 0.74339 0.55668 0.82706 0.0
C2409 C 0.71441 0.57647 0.83242 0.0
C2410 C 0.74059 0.53809 0.81402 0.0
C2411 C 0.70883 0.53907 0.80591 0.0
C2412 C 0.67948 0.55809 0.81149 0.0
C2413 C 0.68221 0.57649 0.82462 0.0
C2414 C 0.67433 0.48475 0.77396 0.0
C2415 C 0.70447 0.48359 0.76498 0.0
C2416 C 0.67549 0.50306 0.78715 0.0
C2417 C 0.70676 0.5208 0.79161 0.0
C2418 C 0.73644 0.52059 0.78234 0.0
C2419 C 0.73536 0.50208 0.76924 0.0
H2420 H 0.81451 0.51163 1.01112 0.0
H2421 H 0.85225 0.40617 1.02234 0.0
H2422 H 0.77432 0.51104 1.03159 0.0
H2423 H 0.81223 0.40589 1.04318 0.0
H2424 H 0.71016 0.41082 0.07231 0.0
H2425 H 0.74922 0.40578 0.05126 0.0
H2426 H 0.78209 0.51549 0.05734 0.0
H2427 H 0.7429 0.52071 0.07801 0.0
C2428 C 0.81413 0.48821 1.01794 0.0
C2429 C 0.83683 0.45909 1.01517 0.0
C2430 C 0.79123 0.48797 1.02975 0.0
C2431 C 0.79053 0.45871 1.0392 0.0
C2432 C 0.81209 0.42883 1.0361 0.0
C2433 C 0.83504 0.42901 1.02418 0.0
C2434 C 0.72598 0.43372 0.06919 0.0
C2435 C 0.72316 0.46628 0.07675 0.0
C2436 C 0.74838 0.43082 0.05715 0.0
C2437 C 0.76833 0.46042 0.05246 0.0
C2438 C 0.76641 0.49244 0.06041 0.0
C2439 C 0.74409 0.49536 0.07235 0.0
H2440 H 0.89159 0.47917 0.32653 0.0
H2441 H 0.78903 0.43812 0.31309 0.0
H2442 H 0.89198 0.51923 0.30572 0.0
H2443 H 0.78996 0.47676 0.2922 0.0
H2444 H 0.77809 0.58096 0.26877 0.0
H2445 H 0.78258 0.53907 0.28846 0.0
H2446 H 0.89471 0.52396 0.27946 0.0
H2447 H 0.89041 0.56729 0.2598 0.0
C2448 C 0.86941 0.47841 0.31904 0.0
C2449 C 0.84001 0.45601 0.32155 0.0
C2450 C 0.8697 0.50116 0.30709 0.0
C2451 C 0.84073 0.50159 0.29741 0.0
C2452 C 0.81224 0.47787 0.29964 0.0
C2453 C 0.81177 0.45559 0.3116 0.0
C2454 C 0.80374 0.56866 0.27089 0.0
C2455 C 0.83385 0.57729 0.26265 0.0
C2456 C 0.80627 0.54441 0.28217 0.0
C2457 C 0.83891 0.52777 0.28544 0.0
C2458 C 0.86922 0.53647 0.27725 0.0
C2459 C 0.86672 0.56108 0.26596 0.0
H2460 H 0.75685 0.64698 0.51175 0.0
H2461 H 0.71707 0.54284 0.52356 0.0
H2462 H 0.79415 0.64787 0.53343 0.0
H2463 H 0.75278 0.54429 0.54532 0.0
H2464 H 0.8475 0.53747 0.57472 0.0
H2465 H 0.81201 0.5392 0.55293 0.0
H2466 H 0.7938 0.65233 0.55926 0.0
H2467 H 0.83101 0.65078 0.58097 0.0
C2468 C 0.75602 0.62434 0.51897 0.0
C2469 C 0.7343 0.59467 0.51583 0.0
C2470 C 0.77715 0.62496 0.53147 0.0
C2471 C 0.77675 0.59604 0.54114 0.0
C2472 C 0.75457 0.56669 0.53801 0.0
C2473 C 0.73388 0.56591 0.5255 0.0
C2474 C 0.83585 0.56276 0.57155 0.0
C2475 C 0.8419 0.59395 0.57968 0.0
C2476 C 0.81526 0.56373 0.55903 0.0
C2477 C 0.7996 0.59583 0.55434 0.0
C2478 C 0.80569 0.62718 0.56245 0.0
C2479 C 0.82676 0.62627 0.57496 0.0
H2480 H 0.39416 0.57147 0.32617 0.0
H2481 H 0.28201 0.54564 0.3287 0.0
H2482 H 0.39928 0.53456 0.30439 0.0
H2483 H 0.28725 0.50862 0.30728 0.0
H2484 H 0.29531 0.48101 0.26044 0.0
H2485 H 0.29561 0.5187 0.28181 0.0
H2486 H 0.39608 0.47239 0.295 0.0
H2487 H 0.39603 0.43476 0.27333 0.0
C2488 C 0.37074 0.55761 0.32219 0.0
C2489 C 0.33762 0.56174 0.32912 0.0
C2490 C 0.37369 0.53644 0.30973 0.0
C2491 C 0.34356 0.51906 0.30395 0.0
C2492 C 0.31082 0.5223 0.31121 0.0
C2493 C 0.30788 0.54337 0.32359 0.0
C2494 C 0.31764 0.47898 0.26782 0.0
C2495 C 0.34552 0.45468 0.26522 0.0
C2496 C 0.31771 0.50047 0.28014 0.0
C2497 C 0.34555 0.49815 0.29027 0.0
C2498 C 0.37425 0.47489 0.28741 0.0
C2499 C 0.3742 0.45331 0.275 0.0
H2500 H 0.34201 0.53644 1.01364 0.0
H2501 H 0.32949 0.65124 1.01255 0.0
H2502 H 0.30472 0.53362 1.03487 0.0
H2503 H 0.2907 0.64831 1.03367 0.0
H2504 H 0.25539 0.63227 0.08079 0.0
H2505 H 0.29191 0.63713 0.05911 0.0
H2506 H 0.24547 0.53925 1.04275 0.0
H2507 H 0.21032 0.53375 0.06453 0.0
C2508 C 0.33081 0.5611 1.0178 0.0
C2509 C 0.33871 0.59407 1.01137 0.0
C2510 C 0.3092 0.55946 1.02999 0.0
C2511 C 0.2945 0.59071 1.03602 0.0
C2512 C 0.30194 0.62374 1.02945 0.0
C2513 C 0.3239 0.62541 1.01727 0.0
C2514 C 0.25319 0.61174 0.07257 0.0
C2515 C 0.23024 0.58243 0.07446 0.0
C2516 C 0.27387 0.61468 0.06008 0.0
C2517 C 0.27181 0.58851 0.04916 0.0
C2518 C 0.24841 0.55953 0.05103 0.0
C2519 C 0.2281 0.55642 0.06354 0.0
H2520 H 0.28215 0.59004 0.77142 0.0
H2521 H 0.17284 0.56548 0.76031 0.0
H2522 H 0.27677 0.55513 0.79322 0.0
H2523 H 0.16778 0.52907 0.78204 0.0
H2524 H 0.16272 0.49537 0.82984 0.0
H2525 H 0.16536 0.5317 0.80801 0.0
H2526 H 0.27316 0.49498 0.80048 0.0
H2527 H 0.27097 0.4601 0.82239 0.0
C2528 C 0.25703 0.5768 0.77354 0.0
C2529 C 0.228 0.58032 0.76407 0.0
C2530 C 0.25398 0.55659 0.78605 0.0
C2531 C 0.22195 0.53893 0.78935 0.0
C2532 C 0.19274 0.54258 0.77991 0.0
C2533 C 0.19571 0.5632 0.7674 0.0
C2534 C 0.18698 0.49528 0.82352 0.0
C2535 C 0.21675 0.47519 0.82792 0.0
C2536 C 0.18842 0.51586 0.81096 0.0
C2537 C 0.21957 0.51651 0.80252 0.0
C2538 C 0.24903 0.49585 0.80687 0.0
C2539 C 0.24771 0.47567 0.81943 0.0
H2540 H 0.25692 0.45375 0.51261 0.0
H2541 H 0.19618 0.3893 0.54228 0.0
H2542 H 0.30267 0.46254 0.53092 0.0
H2543 H 0.24209 0.39844 0.56069 0.0
H2544 H 0.35106 0.39963 0.58523 0.0
H2545 H 0.30585 0.38578 0.56698 0.0
H2546 H 0.30531 0.49633 0.55377 0.0
H2547 H 0.35045 0.51013 0.57182 0.0
C2548 C 0.25343 0.44116 0.52299 0.0
C2549 C 0.22268 0.42103 0.52599 0.0
C2550 C 0.27958 0.44644 0.53353 0.0
C2551 C 0.27576 0.43163 0.54733 0.0
C2552 C 0.24583 0.41014 0.55015 0.0
C2553 C 0.21951 0.40497 0.5396 0.0
C2554 C 0.34116 0.42099 0.57846 0.0
C2555 C 0.35453 0.45597 0.57993 0.0
C2556 C 0.31519 0.41306 0.56804 0.0
C2557 C 0.30232 0.43987 0.55881 0.0
C2558 C 0.31517 0.47493 0.56052 0.0
C2559 C 0.34086 0.4829 0.57097 0.0
loop_
_geom_bond_atom_site_label_1
_geom_bond_atom_site_label_2
_geom_bond_distance
_geom_bond_site_symmetry_2
_ccdc_geom_bond_type
Zn0 O6 1.969 . S
Zn0 O7 1.965 . S
Zn0 O11 2.024 . S
Zn0 O16 1.969 . S
Zn1 O8 1.969 . S
Zn1 O14 1.969 . S
Zn1 O15 1.965 . S
Zn1 O17 2.024 . S
C2 O3 1.229 . S
C2 O11 1.058 . S
O3 C2 1.229 . S
C4 O5 1.229 . S
C4 O17 1.058 . S
O5 C4 1.229 . S
O6 Zn0 1.969 . S
O6 C9 1.267 . S
O7 Zn0 1.965 . S
O7 C18 1.260 . S
O8 Zn1 1.969 . S
O8 C18 1.258 . S
C9 O6 1.267 . S
C9 O10 1.228 . S
O10 C9 1.228 . S
O11 Zn0 2.024 . S
O11 C2 1.058 . S
C12 O13 1.228 . S
C12 O14 1.267 . S
O13 C12 1.228 . S
O14 Zn1 1.969 . S
O14 C12 1.267 . S
O15 Zn1 1.965 . S
O15 C19 1.260 . S
O16 Zn0 1.969 . S
O16 C19 1.258 . S
O17 Zn1 2.024 . S
O17 C4 1.058 . S
C18 O7 1.260 . S
C18 O8 1.258 . S
C19 O15 1.260 . S
C19 O16 1.258 . S
Zn20 O26 1.969 . S
Zn20 O27 1.965 . S
Zn20 O31 2.024 . S
Zn20 O36 1.969 . S
Zn21 O28 1.969 . S
Zn21 O34 1.969 . S
Zn21 O35 1.965 . S
Zn21 O37 2.024 . S
C22 O23 1.229 . S
C22 O31 1.058 . S
O23 C22 1.229 . S
C24 O25 1.229 . S
C24 O37 1.058 . S
O25 C24 1.229 . S
O26 Zn20 1.969 . S
O26 C29 1.267 . S
O27 Zn20 1.965 . S
O27 C38 1.260 . S
O28 Zn21 1.969 . S
O28 C38 1.258 . S
C29 O26 1.267 . S
C29 O30 1.228 . S
O30 C29 1.228 . S
O31 Zn20 2.024 . S
O31 C22 1.058 . S
C32 O33 1.228 . S
C32 O34 1.267 . S
O33 C32 1.228 . S
O34 Zn21 1.969 . S
O34 C32 1.267 . S
O35 Zn21 1.965 . S
O35 C39 1.260 . S
O36 Zn20 1.969 . S
O36 C39 1.258 . S
O37 Zn21 2.024 . S
O37 C24 1.058 . S
C38 O27 1.260 . S
C38 O28 1.258 . S
C39 O35 1.260 . S
C39 O36 1.258 . S
Zn40 O46 1.969 . S
Zn40 O47 1.965 . S
Zn40 O51 2.024 . S
Zn40 O56 1.969 . S
Zn41 O48 1.969 . S
Zn41 O54 1.969 . S
Zn41 O55 1.965 . S
Zn41 O57 2.024 . S
C42 O43 1.229 . S
C42 O51 1.058 . S
O43 C42 1.229 . S
C44 O45 1.229 . S
C44 O57 1.058 . S
O45 C44 1.229 . S
O46 Zn40 1.969 . S
O46 C49 1.267 . S
O47 Zn40 1.965 . S
O47 C58 1.260 . S
O48 Zn41 1.969 . S
O48 C58 1.258 . S
C49 O46 1.267 . S
C49 O50 1.228 . S
O50 C49 1.228 . S
O51 Zn40 2.024 . S
O51 C42 1.058 . S
C52 O53 1.228 . S
C52 O54 1.267 . S
O53 C52 1.228 . S
O54 Zn41 1.969 . S
O54 C52 1.267 . S
O55 Zn41 1.965 . S
O55 C59 1.260 . S
O56 Zn40 1.969 . S
O56 C59 1.258 . S
O57 Zn41 2.024 . S
O57 C44 1.058 . S
C58 O47 1.260 . S
C58 O48 1.258 . S
C59 O55 1.260 . S
C59 O56 1.258 . S
Zn60 O66 1.969 . S
Zn60 O67 1.965 . S
Zn60 O71 2.024 . S
Zn60 O76 1.969 . S
Zn61 O68 1.969 . S
Zn61 O74 1.969 . S
Zn61 O75 1.965 . S
Zn61 O77 2.024 . S
C62 O63 1.229 . S
C62 O71 1.058 . S
O63 C62 1.229 . S
C64 O65 1.229 . S
C64 O77 1.058 . S
O65 C64 1.229 . S
O66 Zn60 1.969 . S
O66 C69 1.267 . S
O67 Zn60 1.965 . S
O67 C78 1.260 . S
O68 Zn61 1.969 . S
O68 C78 1.258 . S
C69 O66 1.267 . S
C69 O70 1.228 . S
O70 C69 1.228 . S
O71 Zn60 2.024 . S
O71 C62 1.058 . S
C72 O73 1.228 . S
C72 O74 1.267 . S
O73 C72 1.228 . S
O74 Zn61 1.969 . S
O74 C72 1.267 . S
O75 Zn61 1.965 . S
O75 C79 1.260 . S
O76 Zn60 1.969 . S
O76 C79 1.258 . S
O77 Zn61 2.024 . S
O77 C64 1.058 . S
C78 O67 1.260 . S
C78 O68 1.258 . S
C79 O75 1.260 . S
C79 O76 1.258 . S
Zn80 O86 1.969 . S
Zn80 O87 1.965 . S
Zn80 O91 2.024 . S
Zn80 O96 1.969 . S
Zn81 O88 1.969 . S
Zn81 O94 1.969 . S
Zn81 O95 1.965 . S
Zn81 O97 2.024 . S
C82 O83 1.229 . S
C82 O91 1.058 . S
O83 C82 1.229 . S
C84 O85 1.229 . S
C84 O97 1.058 . S
O85 C84 1.229 . S
O86 Zn80 1.969 . S
O86 C89 1.267 . S
O87 Zn80 1.965 . S
O87 C98 1.260 . S
O88 Zn81 1.969 . S
O88 C98 1.258 . S
C89 O86 1.267 . S
C89 O90 1.228 . S
O90 C89 1.228 . S
O91 Zn80 2.024 . S
O91 C82 1.058 . S
C92 O93 1.228 . S
C92 O94 1.267 . S
O93 C92 1.228 . S
O94 Zn81 1.969 . S
O94 C92 1.267 . S
O95 Zn81 1.965 . S
O95 C99 1.260 . S
O96 Zn80 1.969 . S
O96 C99 1.258 . S
O97 Zn81 2.024 . S
O97 C84 1.058 . S
C98 O87 1.260 . S
C98 O88 1.258 . S
C99 O95 1.260 . S
C99 O96 1.258 . S
Zn100 O106 1.969 . S
Zn100 O107 1.965 . S
Zn100 O111 2.024 . S
Zn100 O116 1.969 . S
Zn101 O108 1.969 . S
Zn101 O114 1.969 . S
Zn101 O115 1.965 . S
Zn101 O117 2.024 . S
C102 O103 1.229 . S
C102 O111 1.058 . S
O103 C102 1.229 . S
C104 O105 1.229 . S
C104 O117 1.058 . S
O105 C104 1.229 . S
O106 Zn100 1.969 . S
O106 C109 1.267 . S
O107 Zn100 1.965 . S
O107 C118 1.260 . S
O108 Zn101 1.969 . S
O108 C118 1.258 . S
C109 O106 1.267 . S
C109 O110 1.228 . S
O110 C109 1.228 . S
O111 Zn100 2.024 . S
O111 C102 1.058 . S
C112 O113 1.228 . S
C112 O114 1.267 . S
O113 C112 1.228 . S
O114 Zn101 1.969 . S
O114 C112 1.267 . S
O115 Zn101 1.965 . S
O115 C119 1.260 . S
O116 Zn100 1.969 . S
O116 C119 1.258 . S
O117 Zn101 2.024 . S
O117 C104 1.058 . S
C118 O107 1.260 . S
C118 O108 1.258 . S
C119 O115 1.260 . S
C119 O116 1.258 . S
Zn120 O126 1.969 . S
Zn120 O127 1.965 . S
Zn120 O131 2.024 . S
Zn120 O136 1.969 . S
Zn121 O128 1.969 . S
Zn121 O134 1.969 . S
Zn121 O135 1.965 . S
Zn121 O137 2.024 . S
C122 O123 1.229 . S
C122 O131 1.058 . S
O123 C122 1.229 . S
C124 O125 1.229 . S
C124 O137 1.058 . S
O125 C124 1.229 . S
O126 Zn120 1.969 . S
O126 C129 1.267 . S
O127 Zn120 1.965 . S
O127 C138 1.260 . S
O128 Zn121 1.969 . S
O128 C138 1.258 . S
C129 O126 1.267 . S
C129 O130 1.228 . S
O130 C129 1.228 . S
O131 Zn120 2.024 . S
O131 C122 1.058 . S
C132 O133 1.228 . S
C132 O134 1.267 . S
O133 C132 1.228 . S
O134 Zn121 1.969 . S
O134 C132 1.267 . S
O135 Zn121 1.965 . S
O135 C139 1.260 . S
O136 Zn120 1.969 . S
O136 C139 1.258 . S
O137 Zn121 2.024 . S
O137 C124 1.058 . S
C138 O127 1.260 . S
C138 O128 1.258 . S
C139 O135 1.260 . S
C139 O136 1.258 . S
Zn140 O146 1.969 . S
Zn140 O147 1.965 . S
Zn140 O151 2.024 . S
Zn140 O156 1.969 . S
Zn141 O148 1.969 . S
Zn141 O154 1.969 . S
Zn141 O155 1.965 . S
Zn141 O157 2.024 . S
C142 O143 1.229 . S
C142 O151 1.058 . S
O143 C142 1.229 . S
C144 O145 1.229 . S
C144 O157 1.058 . S
O145 C144 1.229 . S
O146 Zn140 1.969 . S
O146 C149 1.267 . S
O147 Zn140 1.965 . S
O147 C158 1.260 . S
O148 Zn141 1.969 . S
O148 C158 1.258 . S
C149 O146 1.267 . S
C149 O150 1.228 . S
O150 C149 1.228 . S
O151 Zn140 2.024 . S
O151 C142 1.058 . S
C152 O153 1.228 . S
C152 O154 1.267 . S
O153 C152 1.228 . S
O154 Zn141 1.969 . S
O154 C152 1.267 . S
O155 Zn141 1.965 . S
O155 C159 1.260 . S
O156 Zn140 1.969 . S
O156 C159 1.258 . S
O157 Zn141 2.024 . S
O157 C144 1.058 . S
C158 O147 1.260 . S
C158 O148 1.258 . S
C159 O155 1.260 . S
C159 O156 1.258 . S
Zn160 O166 1.969 . S
Zn160 O167 1.965 . S
Zn160 O171 2.024 . S
Zn160 O176 1.969 . S
Zn161 O168 1.969 . S
Zn161 O174 1.969 . S
Zn161 O175 1.965 . S
Zn161 O177 2.024 . S
C162 O163 1.229 . S
C162 O171 1.058 . S
O163 C162 1.229 . S
C164 O165 1.229 . S
C164 O177 1.058 . S
O165 C164 1.229 . S
O166 Zn160 1.969 . S
O166 C169 1.267 . S
O167 Zn160 1.965 . S
O167 C178 1.260 . S
O168 Zn161 1.969 . S
O168 C178 1.258 . S
C169 O166 1.267 . S
C169 O170 1.228 . S
O170 C169 1.228 . S
O171 Zn160 2.024 . S
O171 C162 1.058 . S
C172 O173 1.228 . S
C172 O174 1.267 . S
O173 C172 1.228 . S
O174 Zn161 1.969 . S
O174 C172 1.267 . S
O175 Zn161 1.965 . S
O175 C179 1.260 . S
O176 Zn160 1.969 . S
O176 C179 1.258 . S
O177 Zn161 2.024 . S
O177 C164 1.058 . S
C178 O167 1.260 . S
C178 O168 1.258 . S
C179 O175 1.260 . S
C179 O176 1.258 . S
Zn180 O186 1.969 . S
Zn180 O187 1.965 . S
Zn180 O191 2.024 . S
Zn180 O196 1.969 . S
Zn181 O188 1.969 . S
Zn181 O194 1.969 . S
Zn181 O195 1.965 . S
Zn181 O197 2.024 . S
C182 O183 1.229 . S
C182 O191 1.058 . S
O183 C182 1.229 . S
C184 O185 1.229 . S
C184 O197 1.058 . S
O185 C184 1.229 . S
O186 Zn180 1.969 . S
O186 C189 1.267 . S
O187 Zn180 1.965 . S
O187 C198 1.260 . S
O188 Zn181 1.969 . S
O188 C198 1.258 . S
C189 O186 1.267 . S
C189 O190 1.228 . S
O190 C189 1.228 . S
O191 Zn180 2.024 . S
O191 C182 1.058 . S
C192 O193 1.228 . S
C192 O194 1.267 . S
O193 C192 1.228 . S
O194 Zn181 1.969 . S
O194 C192 1.267 . S
O195 Zn181 1.965 . S
O195 C199 1.260 . S
O196 Zn180 1.969 . S
O196 C199 1.258 . S
O197 Zn181 2.024 . S
O197 C184 1.058 . S
C198 O187 1.260 . S
C198 O188 1.258 . S
C199 O195 1.260 . S
C199 O196 1.258 . S
Zn200 O206 1.969 . S
Zn200 O207 1.965 . S
Zn200 O211 2.024 . S
Zn200 O216 1.969 . S
Zn201 O208 1.969 . S
Zn201 O214 1.969 . S
Zn201 O215 1.965 . S
Zn201 O217 2.024 . S
C202 O203 1.229 . S
C202 O211 1.058 . S
O203 C202 1.229 . S
C204 O205 1.229 . S
C204 O217 1.058 . S
O205 C204 1.229 . S
O206 Zn200 1.969 . S
O206 C209 1.267 . S
O207 Zn200 1.965 . S
O207 C218 1.260 . S
O208 Zn201 1.969 . S
O208 C218 1.258 . S
C209 O206 1.267 . S
C209 O210 1.228 . S
O210 C209 1.228 . S
O211 Zn200 2.024 . S
O211 C202 1.058 . S
C212 O213 1.228 . S
C212 O214 1.267 . S
O213 C212 1.228 . S
O214 Zn201 1.969 . S
O214 C212 1.267 . S
O215 Zn201 1.965 . S
O215 C219 1.260 . S
O216 Zn200 1.969 . S
O216 C219 1.258 . S
O217 Zn201 2.024 . S
O217 C204 1.058 . S
C218 O207 1.260 . S
C218 O208 1.258 . S
C219 O215 1.260 . S
C219 O216 1.258 . S
Zn220 O226 1.969 . S
Zn220 O227 1.965 . S
Zn220 O231 2.024 . S
Zn220 O236 1.969 . S
Zn221 O228 1.969 . S
Zn221 O234 1.969 . S
Zn221 O235 1.965 . S
Zn221 O237 2.024 . S
C222 O223 1.229 . S
C222 O231 1.058 . S
O223 C222 1.229 . S
C224 O225 1.229 . S
C224 O237 1.058 . S
O225 C224 1.229 . S
O226 Zn220 1.969 . S
O226 C229 1.267 . S
O227 Zn220 1.965 . S
O227 C238 1.260 . S
O228 Zn221 1.969 . S
O228 C238 1.258 . S
C229 O226 1.267 . S
C229 O230 1.228 . S
O230 C229 1.228 . S
O231 Zn220 2.024 . S
O231 C222 1.058 . S
C232 O233 1.228 . S
C232 O234 1.267 . S
O233 C232 1.228 . S
O234 Zn221 1.969 . S
O234 C232 1.267 . S
O235 Zn221 1.965 . S
O235 C239 1.260 . S
O236 Zn220 1.969 . S
O236 C239 1.258 . S
O237 Zn221 2.024 . S
O237 C224 1.058 . S
C238 O227 1.260 . S
C238 O228 1.258 . S
C239 O235 1.260 . S
C239 O236 1.258 . S
Zn240 O246 1.969 . S
Zn240 O247 1.965 . S
Zn240 O251 2.024 . S
Zn240 O256 1.969 . S
Zn241 O248 1.969 . S
Zn241 O254 1.969 . S
Zn241 O255 1.965 . S
Zn241 O257 2.024 . S
C242 O243 1.229 . S
C242 O251 1.058 . S
O243 C242 1.229 . S
C244 O245 1.229 . S
C244 O257 1.058 . S
O245 C244 1.229 . S
O246 Zn240 1.969 . S
O246 C249 1.267 . S
O247 Zn240 1.965 . S
O247 C258 1.260 . S
O248 Zn241 1.969 . S
O248 C258 1.258 . S
C249 O246 1.267 . S
C249 O250 1.228 . S
O250 C249 1.228 . S
O251 Zn240 2.024 . S
O251 C242 1.058 . S
C252 O253 1.228 . S
C252 O254 1.267 . S
O253 C252 1.228 . S
O254 Zn241 1.969 . S
O254 C252 1.267 . S
O255 Zn241 1.965 . S
O255 C259 1.260 . S
O256 Zn240 1.969 . S
O256 C259 1.258 . S
O257 Zn241 2.024 . S
O257 C244 1.058 . S
C258 O247 1.260 . S
C258 O248 1.258 . S
C259 O255 1.260 . S
C259 O256 1.258 . S
Zn260 O266 1.969 . S
Zn260 O267 1.965 . S
Zn260 O271 2.024 . S
Zn260 O276 1.969 . S
Zn261 O268 1.969 . S
Zn261 O274 1.969 . S
Zn261 O275 1.965 . S
Zn261 O277 2.024 . S
C262 O263 1.229 . S
C262 O271 1.058 . S
O263 C262 1.229 . S
C264 O265 1.229 . S
C264 O277 1.058 . S
O265 C264 1.229 . S
O266 Zn260 1.969 . S
O266 C269 1.267 . S
O267 Zn260 1.965 . S
O267 C278 1.260 . S
O268 Zn261 1.969 . S
O268 C278 1.258 . S
C269 O266 1.267 . S
C269 O270 1.228 . S
O270 C269 1.228 . S
O271 Zn260 2.024 . S
O271 C262 1.058 . S
C272 O273 1.228 . S
C272 O274 1.267 . S
O273 C272 1.228 . S
O274 Zn261 1.969 . S
O274 C272 1.267 . S
O275 Zn261 1.965 . S
O275 C279 1.260 . S
O276 Zn260 1.969 . S
O276 C279 1.258 . S
O277 Zn261 2.024 . S
O277 C264 1.058 . S
C278 O267 1.260 . S
C278 O268 1.258 . S
C279 O275 1.260 . S
C279 O276 1.258 . S
Zn280 O286 1.969 . S
Zn280 O287 1.965 . S
Zn280 O291 2.024 . S
Zn280 O296 1.969 . S
Zn281 O288 1.969 . S
Zn281 O294 1.969 . S
Zn281 O295 1.965 . S
Zn281 O297 2.024 . S
C282 O283 1.229 . S
C282 O291 1.058 . S
O283 C282 1.229 . S
C284 O285 1.229 . S
C284 O297 1.058 . S
O285 C284 1.229 . S
O286 Zn280 1.969 . S
O286 C289 1.267 . S
O287 Zn280 1.965 . S
O287 C298 1.260 . S
O288 Zn281 1.969 . S
O288 C298 1.258 . S
C289 O286 1.267 . S
C289 O290 1.228 . S
O290 C289 1.228 . S
O291 Zn280 2.024 . S
O291 C282 1.058 . S
C292 O293 1.228 . S
C292 O294 1.267 . S
O293 C292 1.228 . S
O294 Zn281 1.969 . S
O294 C292 1.267 . S
O295 Zn281 1.965 . S
O295 C299 1.260 . S
O296 Zn280 1.969 . S
O296 C299 1.258 . S
O297 Zn281 2.024 . S
O297 C284 1.058 . S
C298 O287 1.260 . S
C298 O288 1.258 . S
C299 O295 1.260 . S
C299 O296 1.258 . S
Zn300 O306 1.969 . S
Zn300 O307 1.965 . S
Zn300 O311 2.024 . S
Zn300 O316 1.969 . S
Zn301 O308 1.969 . S
Zn301 O314 1.969 . S
Zn301 O315 1.965 . S
Zn301 O317 2.024 . S
C302 O303 1.229 . S
C302 O311 1.058 . S
O303 C302 1.229 . S
C304 O305 1.229 . S
C304 O317 1.058 . S
O305 C304 1.229 . S
O306 Zn300 1.969 . S
O306 C309 1.267 . S
O307 Zn300 1.965 . S
O307 C318 1.260 . S
O308 Zn301 1.969 . S
O308 C318 1.258 . S
C309 O306 1.267 . S
C309 O310 1.228 . S
O310 C309 1.228 . S
O311 Zn300 2.024 . S
O311 C302 1.058 . S
C312 O313 1.228 . S
C312 O314 1.267 . S
O313 C312 1.228 . S
O314 Zn301 1.969 . S
O314 C312 1.267 . S
O315 Zn301 1.965 . S
O315 C319 1.260 . S
O316 Zn300 1.969 . S
O316 C319 1.258 . S
O317 Zn301 2.024 . S
O317 C304 1.058 . S
C318 O307 1.260 . S
C318 O308 1.258 . S
C319 O315 1.260 . S
C319 O316 1.258 . S
Zn320 O326 1.969 . S
Zn320 O327 1.965 . S
Zn320 O331 2.024 . S
Zn320 O336 1.969 . S
Zn321 O328 1.969 . S
Zn321 O334 1.969 . S
Zn321 O335 1.965 . S
Zn321 O337 2.024 . S
C322 O323 1.229 . S
C322 O331 1.058 . S
O323 C322 1.229 . S
C324 O325 1.229 . S
C324 O337 1.058 . S
O325 C324 1.229 . S
O326 Zn320 1.969 . S
O326 C329 1.267 . S
O327 Zn320 1.965 . S
O327 C338 1.260 . S
O328 Zn321 1.969 . S
O328 C338 1.258 . S
C329 O326 1.267 . S
C329 O330 1.228 . S
O330 C329 1.228 . S
O331 Zn320 2.024 . S
O331 C322 1.058 . S
C332 O333 1.228 . S
C332 O334 1.267 . S
O333 C332 1.228 . S
O334 Zn321 1.969 . S
O334 C332 1.267 . S
O335 Zn321 1.965 . S
O335 C339 1.260 . S
O336 Zn320 1.969 . S
O336 C339 1.258 . S
O337 Zn321 2.024 . S
O337 C324 1.058 . S
C338 O327 1.260 . S
C338 O328 1.258 . S
C339 O335 1.260 . S
C339 O336 1.258 . S
Zn340 O346 1.969 . S
Zn340 O347 1.965 . S
Zn340 O351 2.024 . S
Zn340 O356 1.969 . S
Zn341 O348 1.969 . S
Zn341 O354 1.969 . S
Zn341 O355 1.965 . S
Zn341 O357 2.024 . S
C342 O343 1.229 . S
C342 O351 1.058 . S
O343 C342 1.229 . S
C344 O345 1.229 . S
C344 O357 1.058 . S
O345 C344 1.229 . S
O346 Zn340 1.969 . S
O346 C349 1.267 . S
O347 Zn340 1.965 . S
O347 C358 1.260 . S
O348 Zn341 1.969 . S
O348 C358 1.258 . S
C349 O346 1.267 . S
C349 O350 1.228 . S
O350 C349 1.228 . S
O351 Zn340 2.024 . S
O351 C342 1.058 . S
C352 O353 1.228 . S
C352 O354 1.267 . S
O353 C352 1.228 . S
O354 Zn341 1.969 . S
O354 C352 1.267 . S
O355 Zn341 1.965 . S
O355 C359 1.260 . S
O356 Zn340 1.969 . S
O356 C359 1.258 . S
O357 Zn341 2.024 . S
O357 C344 1.058 . S
C358 O347 1.260 . S
C358 O348 1.258 . S
C359 O355 1.260 . S
C359 O356 1.258 . S
Zn360 O366 1.969 . S
Zn360 O367 1.965 . S
Zn360 O371 2.024 . S
Zn360 O376 1.969 . S
Zn361 O368 1.969 . S
Zn361 O374 1.969 . S
Zn361 O375 1.965 . S
Zn361 O377 2.024 . S
C362 O363 1.229 . S
C362 O371 1.058 . S
O363 C362 1.229 . S
C364 O365 1.229 . S
C364 O377 1.058 . S
O365 C364 1.229 . S
O366 Zn360 1.969 . S
O366 C369 1.267 . S
O367 Zn360 1.965 . S
O367 C378 1.260 . S
O368 Zn361 1.969 . S
O368 C378 1.258 . S
C369 O366 1.267 . S
C369 O370 1.228 . S
O370 C369 1.228 . S
O371 Zn360 2.024 . S
O371 C362 1.058 . S
C372 O373 1.228 . S
C372 O374 1.267 . S
O373 C372 1.228 . S
O374 Zn361 1.969 . S
O374 C372 1.267 . S
O375 Zn361 1.965 . S
O375 C379 1.260 . S
O376 Zn360 1.969 . S
O376 C379 1.258 . S
O377 Zn361 2.024 . S
O377 C364 1.058 . S
C378 O367 1.260 . S
C378 O368 1.258 . S
C379 O375 1.260 . S
C379 O376 1.258 . S
Zn380 O386 1.969 . S
Zn380 O387 1.965 . S
Zn380 O391 2.024 . S
Zn380 O396 1.969 . S
Zn381 O388 1.969 . S
Zn381 O394 1.969 . S
Zn381 O395 1.965 . S
Zn381 O397 2.024 . S
C382 O383 1.229 . S
C382 O391 1.058 . S
O383 C382 1.229 . S
C384 O385 1.229 . S
C384 O397 1.058 . S
O385 C384 1.229 . S
O386 Zn380 1.969 . S
O386 C389 1.267 . S
O387 Zn380 1.965 . S
O387 C398 1.260 . S
O388 Zn381 1.969 . S
O388 C398 1.258 . S
C389 O386 1.267 . S
C389 O390 1.228 . S
O390 C389 1.228 . S
O391 Zn380 2.024 . S
O391 C382 1.058 . S
C392 O393 1.228 . S
C392 O394 1.267 . S
O393 C392 1.228 . S
O394 Zn381 1.969 . S
O394 C392 1.267 . S
O395 Zn381 1.965 . S
O395 C399 1.260 . S
O396 Zn380 1.969 . S
O396 C399 1.258 . S
O397 Zn381 2.024 . S
O397 C384 1.058 . S
C398 O387 1.260 . S
C398 O388 1.258 . S
C399 O395 1.260 . S
C399 O396 1.258 . S
Zn400 O406 1.969 . S
Zn400 O407 1.965 . S
Zn400 O411 2.024 . S
Zn400 O416 1.969 . S
Zn401 O408 1.969 . S
Zn401 O414 1.969 . S
Zn401 O415 1.965 . S
Zn401 O417 2.024 . S
C402 O403 1.229 . S
C402 O411 1.058 . S
O403 C402 1.229 . S
C404 O405 1.229 . S
C404 O417 1.058 . S
O405 C404 1.229 . S
O406 Zn400 1.969 . S
O406 C409 1.267 . S
O407 Zn400 1.965 . S
O407 C418 1.260 . S
O408 Zn401 1.969 . S
O408 C418 1.258 . S
C409 O406 1.267 . S
C409 O410 1.228 . S
O410 C409 1.228 . S
O411 Zn400 2.024 . S
O411 C402 1.058 . S
C412 O413 1.228 . S
C412 O414 1.267 . S
O413 C412 1.228 . S
O414 Zn401 1.969 . S
O414 C412 1.267 . S
O415 Zn401 1.965 . S
O415 C419 1.260 . S
O416 Zn400 1.969 . S
O416 C419 1.258 . S
O417 Zn401 2.024 . S
O417 C404 1.058 . S
C418 O407 1.260 . S
C418 O408 1.258 . S
C419 O415 1.260 . S
C419 O416 1.258 . S
Zn420 O426 1.969 . S
Zn420 O427 1.965 . S
Zn420 O431 2.024 . S
Zn420 O436 1.969 . S
Zn421 O428 1.969 . S
Zn421 O434 1.969 . S
Zn421 O435 1.965 . S
Zn421 O437 2.024 . S
C422 O423 1.229 . S
C422 O431 1.058 . S
O423 C422 1.229 . S
C424 O425 1.229 . S
C424 O437 1.058 . S
O425 C424 1.229 . S
O426 Zn420 1.969 . S
O426 C429 1.267 . S
O427 Zn420 1.965 . S
O427 C438 1.260 . S
O428 Zn421 1.969 . S
O428 C438 1.258 . S
C429 O426 1.267 . S
C429 O430 1.228 . S
O430 C429 1.228 . S
O431 Zn420 2.024 . S
O431 C422 1.058 . S
C432 O433 1.228 . S
C432 O434 1.267 . S
O433 C432 1.228 . S
O434 Zn421 1.969 . S
O434 C432 1.267 . S
O435 Zn421 1.965 . S
O435 C439 1.260 . S
O436 Zn420 1.969 . S
O436 C439 1.258 . S
O437 Zn421 2.024 . S
O437 C424 1.058 . S
C438 O427 1.260 . S
C438 O428 1.258 . S
C439 O435 1.260 . S
C439 O436 1.258 . S
Zn440 O446 1.969 . S
Zn440 O447 1.965 . S
Zn440 O451 2.024 . S
Zn440 O456 1.969 . S
Zn441 O448 1.969 . S
Zn441 O454 1.969 . S
Zn441 O455 1.965 . S
Zn441 O457 2.024 . S
C442 O443 1.229 . S
C442 O451 1.058 . S
O443 C442 1.229 . S
C444 O445 1.229 . S
C444 O457 1.058 . S
O445 C444 1.229 . S
O446 Zn440 1.969 . S
O446 C449 1.267 . S
O447 Zn440 1.965 . S
O447 C458 1.260 . S
O448 Zn441 1.969 . S
O448 C458 1.258 . S
C449 O446 1.267 . S
C449 O450 1.228 . S
O450 C449 1.228 . S
O451 Zn440 2.024 . S
O451 C442 1.058 . S
C452 O453 1.228 . S
C452 O454 1.267 . S
O453 C452 1.228 . S
O454 Zn441 1.969 . S
O454 C452 1.267 . S
O455 Zn441 1.965 . S
O455 C459 1.260 . S
O456 Zn440 1.969 . S
O456 C459 1.258 . S
O457 Zn441 2.024 . S
O457 C444 1.058 . S
C458 O447 1.260 . S
C458 O448 1.258 . S
C459 O455 1.260 . S
C459 O456 1.258 . S
Zn460 O466 1.969 . S
Zn460 O467 1.965 . S
Zn460 O471 2.024 . S
Zn460 O476 1.969 . S
Zn461 O468 1.969 . S
Zn461 O474 1.969 . S
Zn461 O475 1.965 . S
Zn461 O477 2.024 . S
C462 O463 1.229 . S
C462 O471 1.058 . S
O463 C462 1.229 . S
C464 O465 1.229 . S
C464 O477 1.058 . S
O465 C464 1.229 . S
O466 Zn460 1.969 . S
O466 C469 1.267 . S
O467 Zn460 1.965 . S
O467 C478 1.260 . S
O468 Zn461 1.969 . S
O468 C478 1.258 . S
C469 O466 1.267 . S
C469 O470 1.228 . S
O470 C469 1.228 . S
O471 Zn460 2.024 . S
O471 C462 1.058 . S
C472 O473 1.228 . S
C472 O474 1.267 . S
O473 C472 1.228 . S
O474 Zn461 1.969 . S
O474 C472 1.267 . S
O475 Zn461 1.965 . S
O475 C479 1.260 . S
O476 Zn460 1.969 . S
O476 C479 1.258 . S
O477 Zn461 2.024 . S
O477 C464 1.058 . S
C478 O467 1.260 . S
C478 O468 1.258 . S
C479 O475 1.260 . S
C479 O476 1.258 . S
Zn480 O486 1.969 . S
Zn480 O487 1.965 . S
Zn480 O491 2.024 . S
Zn480 O496 1.969 . S
Zn481 O488 1.969 . S
Zn481 O494 1.969 . S
Zn481 O495 1.965 . S
Zn481 O497 2.024 . S
C482 O483 1.229 . S
C482 O491 1.058 . S
O483 C482 1.229 . S
C484 O485 1.229 . S
C484 O497 1.058 . S
O485 C484 1.229 . S
O486 Zn480 1.969 . S
O486 C489 1.267 . S
O487 Zn480 1.965 . S
O487 C498 1.260 . S
O488 Zn481 1.969 . S
O488 C498 1.258 . S
C489 O486 1.267 . S
C489 O490 1.228 . S
O490 C489 1.228 . S
O491 Zn480 2.024 . S
O491 C482 1.058 . S
C492 O493 1.228 . S
C492 O494 1.267 . S
O493 C492 1.228 . S
O494 Zn481 1.969 . S
O494 C492 1.267 . S
O495 Zn481 1.965 . S
O495 C499 1.260 . S
O496 Zn480 1.969 . S
O496 C499 1.258 . S
O497 Zn481 2.024 . S
O497 C484 1.058 . S
C498 O487 1.260 . S
C498 O488 1.258 . S
C499 O495 1.260 . S
C499 O496 1.258 . S
Zn500 O506 1.969 . S
Zn500 O507 1.965 . S
Zn500 O511 2.024 . S
Zn500 O516 1.969 . S
Zn501 O508 1.969 . S
Zn501 O514 1.969 . S
Zn501 O515 1.965 . S
Zn501 O517 2.024 . S
C502 O503 1.229 . S
C502 O511 1.058 . S
O503 C502 1.229 . S
C504 O505 1.229 . S
C504 O517 1.058 . S
O505 C504 1.229 . S
O506 Zn500 1.969 . S
O506 C509 1.267 . S
O507 Zn500 1.965 . S
O507 C518 1.260 . S
O508 Zn501 1.969 . S
O508 C518 1.258 . S
C509 O506 1.267 . S
C509 O510 1.228 . S
O510 C509 1.228 . S
O511 Zn500 2.024 . S
O511 C502 1.058 . S
C512 O513 1.228 . S
C512 O514 1.267 . S
O513 C512 1.228 . S
O514 Zn501 1.969 . S
O514 C512 1.267 . S
O515 Zn501 1.965 . S
O515 C519 1.260 . S
O516 Zn500 1.969 . S
O516 C519 1.258 . S
O517 Zn501 2.024 . S
O517 C504 1.058 . S
C518 O507 1.260 . S
C518 O508 1.258 . S
C519 O515 1.260 . S
C519 O516 1.258 . S
Zn520 O526 1.969 . S
Zn520 O527 1.965 . S
Zn520 O531 2.024 . S
Zn520 O536 1.969 . S
Zn521 O528 1.969 . S
Zn521 O534 1.969 . S
Zn521 O535 1.965 . S
Zn521 O537 2.024 . S
C522 O523 1.229 . S
C522 O531 1.058 . S
O523 C522 1.229 . S
C524 O525 1.229 . S
C524 O537 1.058 . S
O525 C524 1.229 . S
O526 Zn520 1.969 . S
O526 C529 1.267 . S
O527 Zn520 1.965 . S
O527 C538 1.260 . S
O528 Zn521 1.969 . S
O528 C538 1.258 . S
C529 O526 1.267 . S
C529 O530 1.228 . S
O530 C529 1.228 . S
O531 Zn520 2.024 . S
O531 C522 1.058 . S
C532 O533 1.228 . S
C532 O534 1.267 . S
O533 C532 1.228 . S
O534 Zn521 1.969 . S
O534 C532 1.267 . S
O535 Zn521 1.965 . S
O535 C539 1.260 . S
O536 Zn520 1.969 . S
O536 C539 1.258 . S
O537 Zn521 2.024 . S
O537 C524 1.058 . S
C538 O527 1.260 . S
C538 O528 1.258 . S
C539 O535 1.260 . S
C539 O536 1.258 . S
Zn540 O546 1.969 . S
Zn540 O547 1.965 . S
Zn540 O551 2.024 . S
Zn540 O556 1.969 . S
Zn541 O548 1.969 . S
Zn541 O554 1.969 . S
Zn541 O555 1.965 . S
Zn541 O557 2.024 . S
C542 O543 1.229 . S
C542 O551 1.058 . S
O543 C542 1.229 . S
C544 O545 1.229 . S
C544 O557 1.058 . S
O545 C544 1.229 . S
O546 Zn540 1.969 . S
O546 C549 1.267 . S
O547 Zn540 1.965 . S
O547 C558 1.260 . S
O548 Zn541 1.969 . S
O548 C558 1.258 . S
C549 O546 1.267 . S
C549 O550 1.228 . S
O550 C549 1.228 . S
O551 Zn540 2.024 . S
O551 C542 1.058 . S
C552 O553 1.228 . S
C552 O554 1.267 . S
O553 C552 1.228 . S
O554 Zn541 1.969 . S
O554 C552 1.267 . S
O555 Zn541 1.965 . S
O555 C559 1.260 . S
O556 Zn540 1.969 . S
O556 C559 1.258 . S
O557 Zn541 2.024 . S
O557 C544 1.058 . S
C558 O547 1.260 . S
C558 O548 1.258 . S
C559 O555 1.260 . S
C559 O556 1.258 . S
Zn560 O566 1.969 . S
Zn560 O567 1.965 . S
Zn560 O571 2.024 . S
Zn560 O576 1.969 . S
Zn561 O568 1.969 . S
Zn561 O574 1.969 . S
Zn561 O575 1.965 . S
Zn561 O577 2.024 . S
C562 O563 1.229 . S
C562 O571 1.058 . S
O563 C562 1.229 . S
C564 O565 1.229 . S
C564 O577 1.058 . S
O565 C564 1.229 . S
O566 Zn560 1.969 . S
O566 C569 1.267 . S
O567 Zn560 1.965 . S
O567 C578 1.260 . S
O568 Zn561 1.969 . S
O568 C578 1.258 . S
C569 O566 1.267 . S
C569 O570 1.228 . S
O570 C569 1.228 . S
O571 Zn560 2.024 . S
O571 C562 1.058 . S
C572 O573 1.228 . S
C572 O574 1.267 . S
O573 C572 1.228 . S
O574 Zn561 1.969 . S
O574 C572 1.267 . S
O575 Zn561 1.965 . S
O575 C579 1.260 . S
O576 Zn560 1.969 . S
O576 C579 1.258 . S
O577 Zn561 2.024 . S
O577 C564 1.058 . S
C578 O567 1.260 . S
C578 O568 1.258 . S
C579 O575 1.260 . S
C579 O576 1.258 . S
Zn580 O586 1.969 . S
Zn580 O587 1.965 . S
Zn580 O591 2.024 . S
Zn580 O596 1.969 . S
Zn581 O588 1.969 . S
Zn581 O594 1.969 . S
Zn581 O595 1.965 . S
Zn581 O597 2.024 . S
C582 O583 1.229 . S
C582 O591 1.058 . S
O583 C582 1.229 . S
C584 O585 1.229 . S
C584 O597 1.058 . S
O585 C584 1.229 . S
O586 Zn580 1.969 . S
O586 C589 1.267 . S
O587 Zn580 1.965 . S
O587 C598 1.260 . S
O588 Zn581 1.969 . S
O588 C598 1.258 . S
C589 O586 1.267 . S
C589 O590 1.228 . S
O590 C589 1.228 . S
O591 Zn580 2.024 . S
O591 C582 1.058 . S
C592 O593 1.228 . S
C592 O594 1.267 . S
O593 C592 1.228 . S
O594 Zn581 1.969 . S
O594 C592 1.267 . S
O595 Zn581 1.965 . S
O595 C599 1.260 . S
O596 Zn580 1.969 . S
O596 C599 1.258 . S
O597 Zn581 2.024 . S
O597 C584 1.058 . S
C598 O587 1.260 . S
C598 O588 1.258 . S
C599 O595 1.260 . S
C599 O596 1.258 . S
Zn600 O606 1.969 . S
Zn600 O607 1.965 . S
Zn600 O611 2.024 . S
Zn600 O616 1.969 . S
Zn601 O608 1.969 . S
Zn601 O614 1.969 . S
Zn601 O615 1.965 . S
Zn601 O617 2.024 . S
C602 O603 1.229 . S
C602 O611 1.058 . S
O603 C602 1.229 . S
C604 O605 1.229 . S
C604 O617 1.058 . S
O605 C604 1.229 . S
O606 Zn600 1.969 . S
O606 C609 1.267 . S
O607 Zn600 1.965 . S
O607 C618 1.260 . S
O608 Zn601 1.969 . S
O608 C618 1.258 . S
C609 O606 1.267 . S
C609 O610 1.228 . S
O610 C609 1.228 . S
O611 Zn600 2.024 . S
O611 C602 1.058 . S
C612 O613 1.228 . S
C612 O614 1.267 . S
O613 C612 1.228 . S
O614 Zn601 1.969 . S
O614 C612 1.267 . S
O615 Zn601 1.965 . S
O615 C619 1.260 . S
O616 Zn600 1.969 . S
O616 C619 1.258 . S
O617 Zn601 2.024 . S
O617 C604 1.058 . S
C618 O607 1.260 . S
C618 O608 1.258 . S
C619 O615 1.260 . S
C619 O616 1.258 . S
Zn620 O626 1.969 . S
Zn620 O627 1.965 . S
Zn620 O631 2.024 . S
Zn620 O636 1.969 . S
Zn621 O628 1.969 . S
Zn621 O634 1.969 . S
Zn621 O635 1.965 . S
Zn621 O637 2.024 . S
C622 O623 1.229 . S
C622 O631 1.058 . S
O623 C622 1.229 . S
C624 O625 1.229 . S
C624 O637 1.058 . S
O625 C624 1.229 . S
O626 Zn620 1.969 . S
O626 C629 1.267 . S
O627 Zn620 1.965 . S
O627 C638 1.260 . S
O628 Zn621 1.969 . S
O628 C638 1.258 . S
C629 O626 1.267 . S
C629 O630 1.228 . S
O630 C629 1.228 . S
O631 Zn620 2.024 . S
O631 C622 1.058 . S
C632 O633 1.228 . S
C632 O634 1.267 . S
O633 C632 1.228 . S
O634 Zn621 1.969 . S
O634 C632 1.267 . S
O635 Zn621 1.965 . S
O635 C639 1.260 . S
O636 Zn620 1.969 . S
O636 C639 1.258 . S
O637 Zn621 2.024 . S
O637 C624 1.058 . S
C638 O627 1.260 . S
C638 O628 1.258 . S
C639 O635 1.260 . S
C639 O636 1.258 . S
H640 C648 0.950 . S
H641 C653 0.950 . S
H642 C650 0.950 . S
H643 C652 0.950 . S
H644 C654 0.950 . S
H645 C656 0.950 . S
H646 C658 0.950 . S
H647 C659 0.950 . S
C648 H640 0.950 . S
C648 C649 1.386 . S
C648 C650 1.391 . S
C649 C648 1.386 . S
C649 C653 1.393 . S
C650 H642 0.950 . S
C650 C648 1.391 . S
C650 C651 1.400 . S
C651 C650 1.400 . S
C651 C652 1.398 . S
C651 C657 1.491 . S
C652 H643 0.950 . S
C652 C651 1.398 . S
C652 C653 1.391 . S
C653 H641 0.950 . S
C653 C649 1.393 . S
C653 C652 1.391 . S
C654 H644 0.950 . S
C654 C655 1.386 . S
C654 C656 1.391 . S
C655 C654 1.386 . S
C655 C659 1.393 . S
C656 H645 0.950 . S
C656 C654 1.391 . S
C656 C657 1.400 . S
C657 C651 1.491 . S
C657 C656 1.400 . S
C657 C658 1.398 . S
C658 H646 0.950 . S
C658 C657 1.398 . S
C658 C659 1.391 . S
C659 H647 0.950 . S
C659 C655 1.393 . S
C659 C658 1.391 . S
H660 C668 0.950 . S
H661 C673 0.950 . S
H662 C670 0.954 . S
H663 C672 0.950 . S
H664 C674 0.950 . S
H665 C676 0.950 . S
H666 C678 0.950 . S
H667 C679 0.950 . S
C668 H660 0.950 . S
C668 C669 1.386 . S
C668 C670 1.391 1_455 S
C669 C668 1.386 . S
C669 C673 1.393 1_455 S
C670 H662 0.954 . S
C670 C668 1.391 1_655 S
C670 C671 1.400 . S
C671 C670 1.400 . S
C671 C672 1.398 . S
C671 C677 1.491 . S
C672 H663 0.950 . S
C672 C671 1.398 . S
C672 C673 1.391 . S
C673 H661 0.950 . S
C673 C669 1.393 1_655 S
C673 C672 1.391 . S
C674 H664 0.950 . S
C674 C675 1.386 . S
C674 C676 1.391 . S
C675 C674 1.386 . S
C675 C679 1.393 . S
C676 H665 0.950 . S
C676 C674 1.391 . S
C676 C677 1.400 . S
C677 C671 1.491 . S
C677 C676 1.400 . S
C677 C678 1.398 . S
C678 H666 0.950 . S
C678 C677 1.398 . S
C678 C679 1.391 . S
C679 H667 0.950 . S
C679 C675 1.393 . S
C679 C678 1.391 . S
H680 C688 0.950 . S
H681 C693 0.950 . S
H682 C690 0.950 . S
H683 C692 0.950 . S
H684 C694 0.950 . S
H685 C696 0.950 . S
H686 C698 0.950 . S
H687 C699 0.950 . S
C688 H680 0.950 . S
C688 C689 1.386 . S
C688 C690 1.391 . S
C689 C688 1.386 . S
C689 C693 1.393 . S
C690 H682 0.950 . S
C690 C688 1.391 . S
C690 C691 1.400 . S
C691 C690 1.400 . S
C691 C692 1.398 . S
C691 C697 1.491 . S
C692 H683 0.950 . S
C692 C691 1.398 . S
C692 C693 1.391 . S
C693 H681 0.950 . S
C693 C689 1.393 . S
C693 C692 1.391 . S
C694 H684 0.950 . S
C694 C695 1.386 . S
C694 C696 1.391 . S
C695 C694 1.386 . S
C695 C699 1.393 . S
C696 H685 0.950 . S
C696 C694 1.391 . S
C696 C697 1.400 . S
C697 C691 1.491 . S
C697 C696 1.400 . S
C697 C698 1.398 . S
C698 H686 0.950 . S
C698 C697 1.398 . S
C698 C699 1.391 . S
C699 H687 0.950 . S
C699 C695 1.393 . S
C699 C698 1.391 . S
H700 C708 0.950 . S
H701 C713 0.950 . S
H702 C710 0.950 . S
H703 C712 0.950 . S
H704 C714 0.950 . S
H705 C716 0.950 . S
H706 C718 0.950 . S
H707 C719 0.950 . S
C708 H700 0.950 . S
C708 C709 1.386 . S
C708 C710 1.391 . S
C709 C708 1.386 . S
C709 C713 1.393 . S
C710 H702 0.950 . S
C710 C708 1.391 . S
C710 C711 1.400 . S
C711 C710 1.400 . S
C711 C712 1.398 . S
C711 C717 1.491 . S
C712 H703 0.950 . S
C712 C711 1.398 . S
C712 C713 1.391 . S
C713 H701 0.950 . S
C713 C709 1.393 . S
C713 C712 1.391 . S
C714 H704 0.950 . S
C714 C715 1.386 . S
C714 C716 1.391 . S
C715 C714 1.386 . S
C715 C719 1.393 . S
C716 H705 0.950 . S
C716 C714 1.391 . S
C716 C717 1.400 . S
C717 C711 1.491 . S
C717 C716 1.400 . S
C717 C718 1.398 . S
C718 H706 0.950 . S
C718 C717 1.398 . S
C718 C719 1.391 . S
C719 H707 0.950 . S
C719 C715 1.393 . S
C719 C718 1.391 . S
H720 C728 0.950 . S
H721 C733 0.950 . S
H722 C730 0.950 . S
H723 C732 0.950 . S
H724 C734 0.950 . S
H725 C736 0.950 . S
H726 C738 0.950 . S
H727 C739 0.950 . S
C728 H720 0.950 . S
C728 C729 1.386 . S
C728 C730 1.391 . S
C729 C728 1.386 . S
C729 C733 1.393 . S
C730 H722 0.950 . S
C730 C728 1.391 . S
C730 C731 1.400 . S
C731 C730 1.400 . S
C731 C732 1.398 . S
C731 C737 1.491 . S
C732 H723 0.950 . S
C732 C731 1.398 . S
C732 C733 1.391 . S
C733 H721 0.950 . S
C733 C729 1.393 . S
C733 C732 1.391 . S
C734 H724 0.950 . S
C734 C735 1.386 . S
C734 C736 1.391 . S
C735 C734 1.386 . S
C735 C739 1.393 . S
C736 H725 0.950 . S
C736 C734 1.391 . S
C736 C737 1.400 . S
C737 C731 1.491 . S
C737 C736 1.400 . S
C737 C738 1.398 . S
C738 H726 0.950 . S
C738 C737 1.398 . S
C738 C739 1.391 . S
C739 H727 0.950 . S
C739 C735 1.393 . S
C739 C738 1.391 . S
H740 C748 0.950 . S
H741 C753 0.950 . S
H742 C750 0.950 . S
H743 C752 0.950 . S
H744 C754 0.950 . S
H745 C756 0.950 . S
H746 C758 0.950 . S
H747 C759 0.950 . S
C748 H740 0.950 . S
C748 C749 1.386 . S
C748 C750 1.391 . S
C749 C748 1.386 . S
C749 C753 1.393 . S
C750 H742 0.950 . S
C750 C748 1.391 . S
C750 C751 1.400 . S
C751 C750 1.400 . S
C751 C752 1.398 . S
C751 C757 1.491 . S
C752 H743 0.950 . S
C752 C751 1.398 . S
C752 C753 1.391 . S
C753 H741 0.950 . S
C753 C749 1.393 . S
C753 C752 1.391 . S
C754 H744 0.950 . S
C754 C755 1.386 . S
C754 C756 1.391 . S
C755 C754 1.386 . S
C755 C759 1.393 . S
C756 H745 0.950 . S
C756 C754 1.391 . S
C756 C757 1.400 . S
C757 C751 1.491 . S
C757 C756 1.400 . S
C757 C758 1.398 . S
C758 H746 0.950 . S
C758 C757 1.398 . S
C758 C759 1.391 . S
C759 H747 0.950 . S
C759 C755 1.393 . S
C759 C758 1.391 . S
H760 C768 0.950 . S
H761 C773 0.950 . S
H762 C770 0.950 . S
H763 C772 0.950 . S
H764 C774 0.950 . S
H765 C776 0.950 . S
H766 C778 0.950 . S
H767 C779 0.950 . S
C768 H760 0.950 . S
C768 C769 1.386 . S
C768 C770 1.391 . S
C769 C768 1.386 . S
C769 C773 1.393 . S
C770 H762 0.950 . S
C770 C768 1.391 . S
C770 C771 1.400 . S
C771 C770 1.400 . S
C771 C772 1.398 . S
C771 C777 1.491 . S
C772 H763 0.950 . S
C772 C771 1.398 . S
C772 C773 1.391 . S
C773 H761 0.950 . S
C773 C769 1.393 . S
C773 C772 1.391 . S
C774 H764 0.950 . S
C774 C775 1.386 . S
C774 C776 1.391 . S
C775 C774 1.386 . S
C775 C779 1.393 . S
C776 H765 0.950 . S
C776 C774 1.391 . S
C776 C777 1.400 . S
C777 C771 1.491 . S
C777 C776 1.400 . S
C777 C778 1.398 . S
C778 H766 0.950 . S
C778 C777 1.398 . S
C778 C779 1.391 . S
C779 H767 0.950 . S
C779 C775 1.393 . S
C779 C778 1.391 . S
H780 C788 0.950 . S
H781 C793 0.950 . S
H782 C790 0.950 . S
H783 C792 0.950 . S
H784 C794 0.950 . S
H785 C796 0.950 . S
H786 C798 0.950 . S
H787 C799 0.950 . S
C788 H780 0.950 . S
C788 C789 1.386 . S
C788 C790 1.391 1_455 S
C789 C788 1.386 . S
C789 C793 1.393 1_455 S
C790 H782 0.950 . S
C790 C788 1.391 1_655 S
C790 C791 1.400 . S
C791 C790 1.400 . S
C791 C792 1.398 . S
C791 C797 1.491 . S
C792 H783 0.950 . S
C792 C791 1.398 . S
C792 C793 1.391 . S
C793 H781 0.950 . S
C793 C789 1.393 1_655 S
C793 C792 1.391 . S
C794 H784 0.950 . S
C794 C795 1.386 . S
C794 C796 1.391 . S
C795 C794 1.386 . S
C795 C799 1.393 . S
C796 H785 0.950 . S
C796 C794 1.391 . S
C796 C797 1.400 . S
C797 C791 1.491 . S
C797 C796 1.400 . S
C797 C798 1.398 . S
C798 H786 0.950 . S
C798 C797 1.398 . S
C798 C799 1.391 . S
C799 H787 0.950 . S
C799 C795 1.393 . S
C799 C798 1.391 . S
H800 C808 0.950 . S
H801 C813 0.950 . S
H802 C810 0.950 . S
H803 C812 0.950 . S
H804 C814 0.950 . S
H805 C816 0.950 . S
H806 C818 0.950 . S
H807 C819 0.950 . S
C808 H800 0.950 . S
C808 C809 1.386 . S
C808 C810 1.391 . S
C809 C808 1.386 . S
C809 C813 1.393 . S
C810 H802 0.950 . S
C810 C808 1.391 . S
C810 C811 1.400 . S
C811 C810 1.400 . S
C811 C812 1.398 . S
C811 C817 1.491 . S
C812 H803 0.950 . S
C812 C811 1.398 . S
C812 C813 1.391 . S
C813 H801 0.950 . S
C813 C809 1.393 . S
C813 C812 1.391 . S
C814 H804 0.950 . S
C814 C815 1.386 . S
C814 C816 1.391 . S
C815 C814 1.386 . S
C815 C819 1.393 . S
C816 H805 0.950 . S
C816 C814 1.391 . S
C816 C817 1.400 . S
C817 C811 1.491 . S
C817 C816 1.400 . S
C817 C818 1.398 . S
C818 H806 0.950 . S
C818 C817 1.398 . S
C818 C819 1.391 . S
C819 H807 0.950 . S
C819 C815 1.393 . S
C819 C818 1.391 . S
H820 C828 0.950 . S
H821 C833 0.950 . S
H822 C830 0.950 . S
H823 C832 0.950 . S
H824 C834 0.950 . S
H825 C836 0.950 . S
H826 C838 0.950 . S
H827 C839 0.950 . S
C828 H820 0.950 . S
C828 C829 1.386 . S
C828 C830 1.391 1_655 S
C829 C828 1.386 . S
C829 C833 1.393 1_655 S
C830 H822 0.950 . S
C830 C828 1.391 1_455 S
C830 C831 1.400 . S
C831 C830 1.400 . S
C831 C832 1.398 . S
C831 C837 1.491 . S
C832 H823 0.950 . S
C832 C831 1.398 . S
C832 C833 1.391 . S
C833 H821 0.950 . S
C833 C829 1.393 1_455 S
C833 C832 1.391 . S
C834 H824 0.950 . S
C834 C835 1.386 . S
C834 C836 1.391 . S
C835 C834 1.386 . S
C835 C839 1.393 . S
C836 H825 0.950 . S
C836 C834 1.391 . S
C836 C837 1.400 . S
C837 C831 1.491 . S
C837 C836 1.400 . S
C837 C838 1.398 . S
C838 H826 0.950 . S
C838 C837 1.398 . S
C838 C839 1.391 . S
C839 H827 0.950 . S
C839 C835 1.393 . S
C839 C838 1.391 . S
H840 C848 0.950 . S
H841 C853 0.950 . S
H842 C850 0.950 . S
H843 C852 0.950 . S
H844 C854 0.950 . S
H845 C856 0.950 . S
H846 C858 0.950 . S
H847 C859 0.950 . S
C848 H840 0.950 . S
C848 C849 1.386 . S
C848 C850 1.391 . S
C849 C848 1.386 . S
C849 C853 1.393 . S
C850 H842 0.950 . S
C850 C848 1.391 . S
C850 C851 1.400 . S
C851 C850 1.400 . S
C851 C852 1.398 . S
C851 C857 1.491 . S
C852 H843 0.950 . S
C852 C851 1.398 . S
C852 C853 1.391 . S
C853 H841 0.950 . S
C853 C849 1.393 . S
C853 C852 1.391 . S
C854 H844 0.950 . S
C854 C855 1.386 . S
C854 C856 1.391 . S
C855 C854 1.386 . S
C855 C859 1.393 . S
C856 H845 0.950 . S
C856 C854 1.391 . S
C856 C857 1.400 . S
C857 C851 1.491 . S
C857 C856 1.400 . S
C857 C858 1.398 . S
C858 H846 0.950 . S
C858 C857 1.398 . S
C858 C859 1.391 . S
C859 H847 0.950 . S
C859 C855 1.393 . S
C859 C858 1.391 . S
H860 C868 0.950 . S
H861 C873 0.950 . S
H862 C870 0.950 . S
H863 C872 0.950 . S
H864 C874 0.950 . S
H865 C876 0.950 . S
H866 C878 0.950 . S
H867 C879 0.950 . S
C868 H860 0.950 . S
C868 C869 1.386 . S
C868 C870 1.391 . S
C869 C868 1.386 . S
C869 C873 1.393 . S
C870 H862 0.950 . S
C870 C868 1.391 . S
C870 C871 1.400 . S
C871 C870 1.400 . S
C871 C872 1.398 . S
C871 C877 1.491 . S
C872 H863 0.950 . S
C872 C871 1.398 . S
C872 C873 1.391 . S
C873 H861 0.950 . S
C873 C869 1.393 . S
C873 C872 1.391 . S
C874 H864 0.950 . S
C874 C875 1.386 . S
C874 C876 1.391 . S
C875 C874 1.386 . S
C875 C879 1.393 . S
C876 H865 0.950 . S
C876 C874 1.391 . S
C876 C877 1.400 . S
C877 C871 1.491 . S
C877 C876 1.400 . S
C877 C878 1.398 . S
C878 H866 0.950 . S
C878 C877 1.398 . S
C878 C879 1.391 . S
C879 H867 0.950 . S
C879 C875 1.393 . S
C879 C878 1.391 . S
H880 C888 0.950 . S
H881 C893 0.950 . S
H882 C890 0.950 . S
H883 C892 0.950 . S
H884 C894 0.950 . S
H885 C896 0.950 . S
H886 C898 0.950 . S
H887 C899 0.950 . S
C888 H880 0.950 . S
C888 C889 1.386 . S
C888 C890 1.391 . S
C889 C888 1.386 . S
C889 C893 1.393 . S
C890 H882 0.950 . S
C890 C888 1.391 . S
C890 C891 1.400 . S
C891 C890 1.400 . S
C891 C892 1.398 . S
C891 C897 1.491 . S
C892 H883 0.950 . S
C892 C891 1.398 . S
C892 C893 1.391 . S
C893 H881 0.950 . S
C893 C889 1.393 . S
C893 C892 1.391 . S
C894 H884 0.950 . S
C894 C895 1.386 . S
C894 C896 1.391 . S
C895 C894 1.386 . S
C895 C899 1.393 . S
C896 H885 0.950 . S
C896 C894 1.391 . S
C896 C897 1.400 . S
C897 C891 1.491 . S
C897 C896 1.400 . S
C897 C898 1.398 . S
C898 H886 0.950 . S
C898 C897 1.398 . S
C898 C899 1.391 . S
C899 H887 0.950 . S
C899 C895 1.393 . S
C899 C898 1.391 . S
H900 C908 0.950 . S
H901 C913 0.950 . S
H902 C910 0.950 . S
H903 C912 0.950 . S
H904 C914 0.950 . S
H905 C916 0.950 . S
H906 C918 0.950 . S
H907 C919 0.950 . S
C908 H900 0.950 . S
C908 C909 1.386 . S
C908 C910 1.391 . S
C909 C908 1.386 . S
C909 C913 1.393 . S
C910 H902 0.950 . S
C910 C908 1.391 . S
C910 C911 1.400 . S
C911 C910 1.400 . S
C911 C912 1.398 . S
C911 C917 1.491 . S
C912 H903 0.950 . S
C912 C911 1.398 . S
C912 C913 1.391 . S
C913 H901 0.950 . S
C913 C909 1.393 . S
C913 C912 1.391 . S
C914 H904 0.950 . S
C914 C915 1.386 . S
C914 C916 1.391 . S
C915 C914 1.386 . S
C915 C919 1.393 . S
C916 H905 0.950 . S
C916 C914 1.391 . S
C916 C917 1.400 . S
C917 C911 1.491 . S
C917 C916 1.400 . S
C917 C918 1.398 . S
C918 H906 0.950 . S
C918 C917 1.398 . S
C918 C919 1.391 . S
C919 H907 0.950 . S
C919 C915 1.393 . S
C919 C918 1.391 . S
H920 C928 0.950 . S
H921 C933 0.950 . S
H922 C930 0.950 . S
H923 C932 0.950 . S
H924 C934 0.950 . S
H925 C936 0.950 . S
H926 C938 0.950 . S
H927 C939 0.950 . S
C928 H920 0.950 . S
C928 C929 1.386 . S
C928 C930 1.391 . S
C929 C928 1.386 . S
C929 C933 1.393 . S
C930 H922 0.950 . S
C930 C928 1.391 . S
C930 C931 1.400 . S
C931 C930 1.400 . S
C931 C932 1.398 . S
C931 C937 1.491 . S
C932 H923 0.950 . S
C932 C931 1.398 . S
C932 C933 1.391 . S
C933 H921 0.950 . S
C933 C929 1.393 . S
C933 C932 1.391 . S
C934 H924 0.950 . S
C934 C935 1.386 . S
C934 C936 1.391 . S
C935 C934 1.386 . S
C935 C939 1.393 . S
C936 H925 0.950 . S
C936 C934 1.391 . S
C936 C937 1.400 . S
C937 C931 1.491 . S
C937 C936 1.400 . S
C937 C938 1.398 . S
C938 H926 0.950 . S
C938 C937 1.398 . S
C938 C939 1.391 . S
C939 H927 0.950 . S
C939 C935 1.393 . S
C939 C938 1.391 . S
H940 C948 0.950 . S
H941 C953 0.950 . S
H942 C950 0.950 . S
H943 C952 0.950 . S
H944 C954 0.950 . S
H945 C956 0.950 . S
H946 C958 0.950 1_655 S
H947 C959 0.950 . S
C948 H940 0.950 . S
C948 C949 1.386 . S
C948 C950 1.391 . S
C949 C948 1.386 . S
C949 C953 1.393 . S
C950 H942 0.950 . S
C950 C948 1.391 . S
C950 C951 1.400 . S
C951 C950 1.400 . S
C951 C952 1.398 . S
C951 C957 1.491 . S
C952 H943 0.950 . S
C952 C951 1.398 . S
C952 C953 1.391 . S
C953 H941 0.950 . S
C953 C949 1.393 . S
C953 C952 1.391 . S
C954 H944 0.950 . S
C954 C955 1.386 1_455 S
C954 C956 1.391 . S
C955 C954 1.386 1_655 S
C955 C959 1.393 . S
C956 H945 0.950 . S
C956 C954 1.391 . S
C956 C957 1.400 . S
C957 C951 1.491 . S
C957 C956 1.400 . S
C957 C958 1.398 . S
C958 H946 0.950 1_455 S
C958 C957 1.398 . S
C958 C959 1.391 1_455 S
C959 H947 0.950 . S
C959 C955 1.393 . S
C959 C958 1.391 1_655 S
H960 C968 0.950 . S
H961 C973 0.950 . S
H962 C970 0.950 . S
H963 C972 0.950 . S
H964 C974 0.950 . S
H965 C976 0.950 . S
H966 C978 0.950 . S
H967 C979 0.950 . S
C968 H960 0.950 . S
C968 C969 1.386 . S
C968 C970 1.391 . S
C969 C968 1.386 . S
C969 C973 1.393 . S
C970 H962 0.950 . S
C970 C968 1.391 . S
C970 C971 1.400 . S
C971 C970 1.400 . S
C971 C972 1.398 . S
C971 C977 1.491 . S
C972 H963 0.950 . S
C972 C971 1.398 . S
C972 C973 1.391 . S
C973 H961 0.950 . S
C973 C969 1.393 . S
C973 C972 1.391 . S
C974 H964 0.950 . S
C974 C975 1.386 . S
C974 C976 1.391 . S
C975 C974 1.386 . S
C975 C979 1.393 . S
C976 H965 0.950 . S
C976 C974 1.391 . S
C976 C977 1.400 . S
C977 C971 1.491 . S
C977 C976 1.400 . S
C977 C978 1.398 . S
C978 H966 0.950 . S
C978 C977 1.398 . S
C978 C979 1.391 . S
C979 H967 0.950 . S
C979 C975 1.393 . S
C979 C978 1.391 . S
H980 C988 0.950 . S
H981 C993 0.950 . S
H982 C990 0.950 . S
H983 C992 0.950 . S
H984 C994 0.950 . S
H985 C996 0.950 . S
H986 C998 0.950 . S
H987 C999 0.950 . S
C988 H980 0.950 . S
C988 C989 1.386 . S
C988 C990 1.391 . S
C989 C988 1.386 . S
C989 C993 1.393 . S
C990 H982 0.950 . S
C990 C988 1.391 . S
C990 C991 1.400 . S
C991 C990 1.400 . S
C991 C992 1.398 . S
C991 C997 1.491 . S
C992 H983 0.950 . S
C992 C991 1.398 . S
C992 C993 1.391 . S
C993 H981 0.950 . S
C993 C989 1.393 . S
C993 C992 1.391 . S
C994 H984 0.950 . S
C994 C995 1.386 . S
C994 C996 1.391 . S
C995 C994 1.386 . S
C995 C999 1.393 . S
C996 H985 0.950 . S
C996 C994 1.391 . S
C996 C997 1.400 . S
C997 C991 1.491 . S
C997 C996 1.400 . S
C997 C998 1.398 . S
C998 H986 0.950 . S
C998 C997 1.398 . S
C998 C999 1.391 . S
C999 H987 0.950 . S
C999 C995 1.393 . S
C999 C998 1.391 . S
H1000 C1008 0.950 . S
H1001 C1013 0.950 . S
H1002 C1010 0.950 . S
H1003 C1012 0.950 . S
H1004 C1014 0.950 . S
H1005 C1016 0.950 . S
H1006 C1018 0.950 . S
H1007 C1019 0.950 . S
C1008 H1000 0.950 . S
C1008 C1009 1.386 . S
C1008 C1010 1.391 . S
C1009 C1008 1.386 . S
C1009 C1013 1.393 . S
C1010 H1002 0.950 . S
C1010 C1008 1.391 . S
C1010 C1011 1.400 . S
C1011 C1010 1.400 . S
C1011 C1012 1.398 . S
C1011 C1017 1.491 . S
C1012 H1003 0.950 . S
C1012 C1011 1.398 . S
C1012 C1013 1.391 . S
C1013 H1001 0.950 . S
C1013 C1009 1.393 . S
C1013 C1012 1.391 . S
C1014 H1004 0.950 . S
C1014 C1015 1.386 . S
C1014 C1016 1.391 . S
C1015 C1014 1.386 . S
C1015 C1019 1.393 . S
C1016 H1005 0.950 . S
C1016 C1014 1.391 . S
C1016 C1017 1.400 . S
C1017 C1011 1.491 . S
C1017 C1016 1.400 . S
C1017 C1018 1.398 . S
C1018 H1006 0.950 . S
C1018 C1017 1.398 . S
C1018 C1019 1.391 . S
C1019 H1007 0.950 . S
C1019 C1015 1.393 . S
C1019 C1018 1.391 . S
H1020 C1028 0.950 . S
H1021 C1033 0.950 . S
H1022 C1030 0.950 . S
H1023 C1032 0.950 . S
H1024 C1034 0.950 . S
H1025 C1036 0.950 . S
H1026 C1038 0.950 . S
H1027 C1039 0.950 . S
C1028 H1020 0.950 . S
C1028 C1029 1.386 . S
C1028 C1030 1.391 1_655 S
C1029 C1028 1.386 . S
C1029 C1033 1.393 1_655 S
C1030 H1022 0.950 . S
C1030 C1028 1.391 1_455 S
C1030 C1031 1.400 . S
C1031 C1030 1.400 . S
C1031 C1032 1.398 . S
C1031 C1037 1.491 . S
C1032 H1023 0.950 . S
C1032 C1031 1.398 . S
C1032 C1033 1.391 . S
C1033 H1021 0.950 . S
C1033 C1029 1.393 1_455 S
C1033 C1032 1.391 . S
C1034 H1024 0.950 . S
C1034 C1035 1.386 . S
C1034 C1036 1.391 . S
C1035 C1034 1.386 . S
C1035 C1039 1.393 . S
C1036 H1025 0.950 . S
C1036 C1034 1.391 . S
C1036 C1037 1.400 . S
C1037 C1031 1.491 . S
C1037 C1036 1.400 . S
C1037 C1038 1.398 . S
C1038 H1026 0.950 . S
C1038 C1037 1.398 . S
C1038 C1039 1.391 . S
C1039 H1027 0.950 . S
C1039 C1035 1.393 . S
C1039 C1038 1.391 . S
H1040 C1048 0.950 . S
H1041 C1053 0.950 . S
H1042 C1050 0.950 . S
H1043 C1052 0.950 . S
H1044 C1054 0.950 . S
H1045 C1056 0.950 . S
H1046 C1058 0.950 . S
H1047 C1059 0.950 . S
C1048 H1040 0.950 . S
C1048 C1049 1.386 . S
C1048 C1050 1.391 . S
C1049 C1048 1.386 . S
C1049 C1053 1.393 . S
C1050 H1042 0.950 . S
C1050 C1048 1.391 . S
C1050 C1051 1.400 . S
C1051 C1050 1.400 . S
C1051 C1052 1.398 . S
C1051 C1057 1.491 . S
C1052 H1043 0.950 . S
C1052 C1051 1.398 . S
C1052 C1053 1.391 . S
C1053 H1041 0.950 . S
C1053 C1049 1.393 . S
C1053 C1052 1.391 . S
C1054 H1044 0.950 . S
C1054 C1055 1.386 . S
C1054 C1056 1.391 . S
C1055 C1054 1.386 . S
C1055 C1059 1.393 . S
C1056 H1045 0.950 . S
C1056 C1054 1.391 . S
C1056 C1057 1.400 . S
C1057 C1051 1.491 . S
C1057 C1056 1.400 . S
C1057 C1058 1.398 . S
C1058 H1046 0.950 . S
C1058 C1057 1.398 . S
C1058 C1059 1.391 . S
C1059 H1047 0.950 . S
C1059 C1055 1.393 . S
C1059 C1058 1.391 . S
H1060 C1068 0.950 . S
H1061 C1073 0.950 . S
H1062 C1070 0.950 . S
H1063 C1072 0.950 . S
H1064 C1074 0.950 . S
H1065 C1076 0.950 . S
H1066 C1078 0.950 1_655 S
H1067 C1079 0.950 . S
C1068 H1060 0.950 . S
C1068 C1069 1.386 . S
C1068 C1070 1.391 . S
C1069 C1068 1.386 . S
C1069 C1073 1.393 . S
C1070 H1062 0.950 . S
C1070 C1068 1.391 . S
C1070 C1071 1.400 . S
C1071 C1070 1.400 . S
C1071 C1072 1.398 . S
C1071 C1077 1.491 . S
C1072 H1063 0.950 . S
C1072 C1071 1.398 . S
C1072 C1073 1.391 . S
C1073 H1061 0.950 . S
C1073 C1069 1.393 . S
C1073 C1072 1.391 . S
C1074 H1064 0.950 . S
C1074 C1075 1.386 1_455 S
C1074 C1076 1.391 . S
C1075 C1074 1.386 1_655 S
C1075 C1079 1.393 . S
C1076 H1065 0.950 . S
C1076 C1074 1.391 . S
C1076 C1077 1.400 . S
C1077 C1071 1.491 . S
C1077 C1076 1.400 . S
C1077 C1078 1.398 . S
C1078 H1066 0.950 1_455 S
C1078 C1077 1.398 . S
C1078 C1079 1.391 1_455 S
C1079 H1067 0.950 . S
C1079 C1075 1.393 . S
C1079 C1078 1.391 1_655 S
H1080 C1088 0.950 . S
H1081 C1093 0.950 . S
H1082 C1090 0.950 . S
H1083 C1092 0.950 . S
H1084 C1094 0.950 . S
H1085 C1096 0.950 . S
H1086 C1098 0.950 . S
H1087 C1099 0.950 . S
C1088 H1080 0.950 . S
C1088 C1089 1.386 . S
C1088 C1090 1.391 . S
C1089 C1088 1.386 . S
C1089 C1093 1.393 . S
C1090 H1082 0.950 . S
C1090 C1088 1.391 . S
C1090 C1091 1.400 . S
C1091 C1090 1.400 . S
C1091 C1092 1.398 . S
C1091 C1097 1.491 . S
C1092 H1083 0.950 . S
C1092 C1091 1.398 . S
C1092 C1093 1.391 . S
C1093 H1081 0.950 . S
C1093 C1089 1.393 . S
C1093 C1092 1.391 . S
C1094 H1084 0.950 . S
C1094 C1095 1.386 . S
C1094 C1096 1.391 . S
C1095 C1094 1.386 . S
C1095 C1099 1.393 . S
C1096 H1085 0.950 . S
C1096 C1094 1.391 . S
C1096 C1097 1.400 . S
C1097 C1091 1.491 . S
C1097 C1096 1.400 . S
C1097 C1098 1.398 . S
C1098 H1086 0.950 . S
C1098 C1097 1.398 . S
C1098 C1099 1.391 . S
C1099 H1087 0.950 . S
C1099 C1095 1.393 . S
C1099 C1098 1.391 . S
H1100 C1108 0.950 . S
H1101 C1113 0.950 . S
H1102 C1110 0.950 . S
H1103 C1112 0.950 . S
H1104 C1114 0.950 . S
H1105 C1116 0.950 . S
H1106 C1118 0.950 . S
H1107 C1119 0.950 . S
C1108 H1100 0.950 . S
C1108 C1109 1.386 . S
C1108 C1110 1.391 . S
C1109 C1108 1.386 . S
C1109 C1113 1.393 . S
C1110 H1102 0.950 . S
C1110 C1108 1.391 . S
C1110 C1111 1.400 . S
C1111 C1110 1.400 . S
C1111 C1112 1.398 . S
C1111 C1117 1.491 . S
C1112 H1103 0.950 . S
C1112 C1111 1.398 . S
C1112 C1113 1.391 . S
C1113 H1101 0.950 . S
C1113 C1109 1.393 . S
C1113 C1112 1.391 . S
C1114 H1104 0.950 . S
C1114 C1115 1.386 . S
C1114 C1116 1.391 . S
C1115 C1114 1.386 . S
C1115 C1119 1.393 . S
C1116 H1105 0.950 . S
C1116 C1114 1.391 . S
C1116 C1117 1.400 . S
C1117 C1111 1.491 . S
C1117 C1116 1.400 . S
C1117 C1118 1.398 . S
C1118 H1106 0.950 . S
C1118 C1117 1.398 . S
C1118 C1119 1.391 . S
C1119 H1107 0.950 . S
C1119 C1115 1.393 . S
C1119 C1118 1.391 . S
H1120 C1128 0.950 . S
H1121 C1133 0.950 . S
H1122 C1130 0.950 . S
H1123 C1132 0.950 . S
H1124 C1134 0.950 . S
H1125 C1136 0.950 . S
H1126 C1138 0.950 . S
H1127 C1139 0.950 . S
C1128 H1120 0.950 . S
C1128 C1129 1.386 . S
C1128 C1130 1.391 . S
C1129 C1128 1.386 . S
C1129 C1133 1.393 . S
C1130 H1122 0.950 . S
C1130 C1128 1.391 . S
C1130 C1131 1.400 . S
C1131 C1130 1.400 . S
C1131 C1132 1.398 . S
C1131 C1137 1.491 . S
C1132 H1123 0.950 . S
C1132 C1131 1.398 . S
C1132 C1133 1.391 . S
C1133 H1121 0.950 . S
C1133 C1129 1.393 . S
C1133 C1132 1.391 . S
C1134 H1124 0.950 . S
C1134 C1135 1.386 . S
C1134 C1136 1.391 . S
C1135 C1134 1.386 . S
C1135 C1139 1.393 . S
C1136 H1125 0.950 . S
C1136 C1134 1.391 . S
C1136 C1137 1.400 . S
C1137 C1131 1.491 . S
C1137 C1136 1.400 . S
C1137 C1138 1.398 . S
C1138 H1126 0.950 . S
C1138 C1137 1.398 . S
C1138 C1139 1.391 . S
C1139 H1127 0.950 . S
C1139 C1135 1.393 . S
C1139 C1138 1.391 . S
H1140 C1148 0.950 . S
H1141 C1153 0.950 . S
H1142 C1150 0.950 . S
H1143 C1152 0.950 . S
H1144 C1154 0.950 . S
H1145 C1156 0.950 . S
H1146 C1158 0.950 . S
H1147 C1159 0.950 . S
C1148 H1140 0.950 . S
C1148 C1149 1.386 . S
C1148 C1150 1.391 . S
C1149 C1148 1.386 . S
C1149 C1153 1.393 . S
C1150 H1142 0.950 . S
C1150 C1148 1.391 . S
C1150 C1151 1.400 . S
C1151 C1150 1.400 . S
C1151 C1152 1.398 . S
C1151 C1157 1.491 . S
C1152 H1143 0.950 . S
C1152 C1151 1.398 . S
C1152 C1153 1.391 . S
C1153 H1141 0.950 . S
C1153 C1149 1.393 . S
C1153 C1152 1.391 . S
C1154 H1144 0.950 . S
C1154 C1155 1.386 . S
C1154 C1156 1.391 . S
C1155 C1154 1.386 . S
C1155 C1159 1.393 . S
C1156 H1145 0.950 . S
C1156 C1154 1.391 . S
C1156 C1157 1.400 . S
C1157 C1151 1.491 . S
C1157 C1156 1.400 . S
C1157 C1158 1.398 . S
C1158 H1146 0.950 . S
C1158 C1157 1.398 . S
C1158 C1159 1.391 . S
C1159 H1147 0.950 . S
C1159 C1155 1.393 . S
C1159 C1158 1.391 . S
H1160 C1168 0.950 . S
H1161 C1173 0.950 . S
H1162 C1170 0.950 . S
H1163 C1172 0.950 . S
H1164 C1174 0.950 . S
H1165 C1176 0.950 . S
H1166 C1178 0.950 . S
H1167 C1179 0.950 . S
C1168 H1160 0.950 . S
C1168 C1169 1.386 . S
C1168 C1170 1.391 . S
C1169 C1168 1.386 . S
C1169 C1173 1.393 . S
C1170 H1162 0.950 . S
C1170 C1168 1.391 . S
C1170 C1171 1.400 . S
C1171 C1170 1.400 . S
C1171 C1172 1.398 . S
C1171 C1177 1.491 . S
C1172 H1163 0.950 . S
C1172 C1171 1.398 . S
C1172 C1173 1.391 . S
C1173 H1161 0.950 . S
C1173 C1169 1.393 . S
C1173 C1172 1.391 . S
C1174 H1164 0.950 . S
C1174 C1175 1.386 . S
C1174 C1176 1.391 . S
C1175 C1174 1.386 . S
C1175 C1179 1.393 . S
C1176 H1165 0.950 . S
C1176 C1174 1.391 . S
C1176 C1177 1.400 . S
C1177 C1171 1.491 . S
C1177 C1176 1.400 . S
C1177 C1178 1.398 . S
C1178 H1166 0.950 . S
C1178 C1177 1.398 . S
C1178 C1179 1.391 . S
C1179 H1167 0.950 . S
C1179 C1175 1.393 . S
C1179 C1178 1.391 . S
H1180 C1188 0.950 . S
H1181 C1193 0.950 . S
H1182 C1190 0.950 . S
H1183 C1192 0.950 1_455 S
H1184 C1194 0.950 . S
H1185 C1196 0.950 . S
H1186 C1198 0.950 . S
H1187 C1199 0.950 . S
C1188 H1180 0.950 . S
C1188 C1189 1.386 1_655 S
C1188 C1190 1.391 . S
C1189 C1188 1.386 1_455 S
C1189 C1193 1.393 . S
C1190 H1182 0.950 . S
C1190 C1188 1.391 . S
C1190 C1191 1.400 . S
C1191 C1190 1.400 . S
C1191 C1192 1.398 . S
C1191 C1197 1.491 . S
C1192 H1183 0.950 1_655 S
C1192 C1191 1.398 . S
C1192 C1193 1.391 1_655 S
C1193 H1181 0.950 . S
C1193 C1189 1.393 . S
C1193 C1192 1.391 1_455 S
C1194 H1184 0.950 . S
C1194 C1195 1.386 . S
C1194 C1196 1.391 . S
C1195 C1194 1.386 . S
C1195 C1199 1.393 . S
C1196 H1185 0.950 . S
C1196 C1194 1.391 . S
C1196 C1197 1.400 . S
C1197 C1191 1.491 . S
C1197 C1196 1.400 . S
C1197 C1198 1.398 . S
C1198 H1186 0.950 . S
C1198 C1197 1.398 . S
C1198 C1199 1.391 . S
C1199 H1187 0.950 . S
C1199 C1195 1.393 . S
C1199 C1198 1.391 . S
H1200 C1208 0.950 . S
H1201 C1213 0.950 . S
H1202 C1210 0.950 . S
H1203 C1212 0.950 . S
H1204 C1214 0.950 . S
H1205 C1216 0.950 . S
H1206 C1218 0.950 . S
H1207 C1219 0.950 . S
C1208 H1200 0.950 . S
C1208 C1209 1.386 . S
C1208 C1210 1.391 . S
C1209 C1208 1.386 . S
C1209 C1213 1.393 . S
C1210 H1202 0.950 . S
C1210 C1208 1.391 . S
C1210 C1211 1.400 . S
C1211 C1210 1.400 . S
C1211 C1212 1.398 . S
C1211 C1217 1.491 . S
C1212 H1203 0.950 . S
C1212 C1211 1.398 . S
C1212 C1213 1.391 . S
C1213 H1201 0.950 . S
C1213 C1209 1.393 . S
C1213 C1212 1.391 . S
C1214 H1204 0.950 . S
C1214 C1215 1.386 . S
C1214 C1216 1.391 . S
C1215 C1214 1.386 . S
C1215 C1219 1.393 . S
C1216 H1205 0.950 . S
C1216 C1214 1.391 . S
C1216 C1217 1.400 . S
C1217 C1211 1.491 . S
C1217 C1216 1.400 . S
C1217 C1218 1.398 . S
C1218 H1206 0.950 . S
C1218 C1217 1.398 . S
C1218 C1219 1.391 . S
C1219 H1207 0.950 . S
C1219 C1215 1.393 . S
C1219 C1218 1.391 . S
H1220 C1228 0.950 . S
H1221 C1233 0.950 . S
H1222 C1230 0.950 . S
H1223 C1232 0.950 . S
H1224 C1234 0.950 . S
H1225 C1236 0.950 1_455 S
H1226 C1238 0.950 . S
H1227 C1239 0.950 . S
C1228 H1220 0.950 . S
C1228 C1229 1.386 . S
C1228 C1230 1.391 . S
C1229 C1228 1.386 . S
C1229 C1233 1.393 . S
C1230 H1222 0.950 . S
C1230 C1228 1.391 . S
C1230 C1231 1.400 . S
C1231 C1230 1.400 . S
C1231 C1232 1.398 . S
C1231 C1237 1.491 . S
C1232 H1223 0.950 . S
C1232 C1231 1.398 . S
C1232 C1233 1.391 . S
C1233 H1221 0.950 . S
C1233 C1229 1.393 . S
C1233 C1232 1.391 . S
C1234 H1224 0.950 . S
C1234 C1235 1.386 . S
C1234 C1236 1.391 1_455 S
C1235 C1234 1.386 . S
C1235 C1239 1.393 1_455 S
C1236 H1225 0.950 1_655 S
C1236 C1234 1.391 1_655 S
C1236 C1237 1.400 . S
C1237 C1231 1.491 . S
C1237 C1236 1.400 . S
C1237 C1238 1.398 . S
C1238 H1226 0.950 . S
C1238 C1237 1.398 . S
C1238 C1239 1.391 . S
C1239 H1227 0.950 . S
C1239 C1235 1.393 1_655 S
C1239 C1238 1.391 . S
H1240 C1248 0.950 . S
H1241 C1253 0.950 . S
H1242 C1250 0.950 . S
H1243 C1252 0.950 . S
H1244 C1254 0.950 . S
H1245 C1256 0.950 . S
H1246 C1258 0.950 . S
H1247 C1259 0.950 . S
C1248 H1240 0.950 . S
C1248 C1249 1.386 . S
C1248 C1250 1.391 . S
C1249 C1248 1.386 . S
C1249 C1253 1.393 . S
C1250 H1242 0.950 . S
C1250 C1248 1.391 . S
C1250 C1251 1.400 . S
C1251 C1250 1.400 . S
C1251 C1252 1.398 . S
C1251 C1257 1.491 . S
C1252 H1243 0.950 . S
C1252 C1251 1.398 . S
C1252 C1253 1.391 . S
C1253 H1241 0.950 . S
C1253 C1249 1.393 . S
C1253 C1252 1.391 . S
C1254 H1244 0.950 . S
C1254 C1255 1.386 . S
C1254 C1256 1.391 . S
C1255 C1254 1.386 . S
C1255 C1259 1.393 . S
C1256 H1245 0.950 . S
C1256 C1254 1.391 . S
C1256 C1257 1.400 . S
C1257 C1251 1.491 . S
C1257 C1256 1.400 . S
C1257 C1258 1.398 . S
C1258 H1246 0.950 . S
C1258 C1257 1.398 . S
C1258 C1259 1.391 . S
C1259 H1247 0.950 . S
C1259 C1255 1.393 . S
C1259 C1258 1.391 . S
H1260 C1268 0.950 . S
H1261 C1273 0.950 . S
H1262 C1270 0.950 . S
H1263 C1272 0.950 . S
H1264 C1274 0.950 . S
H1265 C1276 0.950 . S
H1266 C1278 0.950 . S
H1267 C1279 0.950 . S
C1268 H1260 0.950 . S
C1268 C1269 1.386 . S
C1268 C1270 1.391 . S
C1269 C1268 1.386 . S
C1269 C1273 1.393 . S
C1270 H1262 0.950 . S
C1270 C1268 1.391 . S
C1270 C1271 1.400 . S
C1271 C1270 1.400 . S
C1271 C1272 1.398 . S
C1271 C1277 1.491 . S
C1272 H1263 0.950 . S
C1272 C1271 1.398 . S
C1272 C1273 1.391 . S
C1273 H1261 0.950 . S
C1273 C1269 1.393 . S
C1273 C1272 1.391 . S
C1274 H1264 0.950 . S
C1274 C1275 1.386 . S
C1274 C1276 1.391 . S
C1275 C1274 1.386 . S
C1275 C1279 1.393 . S
C1276 H1265 0.950 . S
C1276 C1274 1.391 . S
C1276 C1277 1.400 . S
C1277 C1271 1.491 . S
C1277 C1276 1.400 . S
C1277 C1278 1.398 . S
C1278 H1266 0.950 . S
C1278 C1277 1.398 . S
C1278 C1279 1.391 . S
C1279 H1267 0.950 . S
C1279 C1275 1.393 . S
C1279 C1278 1.391 . S
H1280 C1288 0.950 . S
H1281 C1293 0.950 . S
H1282 C1290 0.950 . S
H1283 C1292 0.950 . S
H1284 C1294 0.950 . S
H1285 C1296 0.950 . S
H1286 C1298 0.950 . S
H1287 C1299 0.950 . S
C1288 H1280 0.950 . S
C1288 C1289 1.386 . S
C1288 C1290 1.391 . S
C1289 C1288 1.386 . S
C1289 C1293 1.393 . S
C1290 H1282 0.950 . S
C1290 C1288 1.391 . S
C1290 C1291 1.400 . S
C1291 C1290 1.400 . S
C1291 C1292 1.398 . S
C1291 C1297 1.491 1_455 S
C1292 H1283 0.950 . S
C1292 C1291 1.398 . S
C1292 C1293 1.391 . S
C1293 H1281 0.950 . S
C1293 C1289 1.393 . S
C1293 C1292 1.391 . S
C1294 H1284 0.950 . S
C1294 C1295 1.386 . S
C1294 C1296 1.391 . S
C1295 C1294 1.386 . S
C1295 C1299 1.393 . S
C1296 H1285 0.950 . S
C1296 C1294 1.391 . S
C1296 C1297 1.400 . S
C1297 C1291 1.491 1_655 S
C1297 C1296 1.400 . S
C1297 C1298 1.398 . S
C1298 H1286 0.950 . S
C1298 C1297 1.398 . S
C1298 C1299 1.391 . S
C1299 H1287 0.950 . S
C1299 C1295 1.393 . S
C1299 C1298 1.391 . S
H1300 C1308 0.950 1_455 S
H1301 C1313 0.950 . S
H1302 C1310 0.950 . S
H1303 C1312 0.950 . S
H1304 C1314 0.950 1_655 S
H1305 C1316 0.950 . S
H1306 C1318 0.950 . S
H1307 C1319 0.950 . S
C1308 H1300 0.950 1_655 S
C1308 C1309 1.386 . S
C1308 C1310 1.391 1_655 S
C1309 C1308 1.386 . S
C1309 C1313 1.393 . S
C1310 H1302 0.950 . S
C1310 C1308 1.391 1_455 S
C1310 C1311 1.400 1_455 S
C1311 C1310 1.400 1_655 S
C1311 C1312 1.398 . S
C1311 C1317 1.491 1_655 S
C1312 H1303 0.950 . S
C1312 C1311 1.398 . S
C1312 C1313 1.391 . S
C1313 H1301 0.950 . S
C1313 C1309 1.393 . S
C1313 C1312 1.391 . S
C1314 H1304 0.950 1_455 S
C1314 C1315 1.386 . S
C1314 C1316 1.391 1_455 S
C1315 C1314 1.386 . S
C1315 C1319 1.393 . S
C1316 H1305 0.950 . S
C1316 C1314 1.391 1_655 S
C1316 C1317 1.400 1_655 S
C1317 C1311 1.491 1_455 S
C1317 C1316 1.400 1_455 S
C1317 C1318 1.398 . S
C1318 H1306 0.950 . S
C1318 C1317 1.398 . S
C1318 C1319 1.391 . S
C1319 H1307 0.950 . S
C1319 C1315 1.393 . S
C1319 C1318 1.391 . S
H1320 C1328 0.950 . S
H1321 C1333 0.950 . S
H1322 C1330 0.950 . S
H1323 C1332 0.950 . S
H1324 C1334 0.950 . S
H1325 C1336 0.950 . S
H1326 C1338 0.950 . S
H1327 C1339 0.950 . S
C1328 H1320 0.950 . S
C1328 C1329 1.386 . S
C1328 C1330 1.391 . S
C1329 C1328 1.386 . S
C1329 C1333 1.393 . S
C1330 H1322 0.950 . S
C1330 C1328 1.391 . S
C1330 C1331 1.400 . S
C1331 C1330 1.400 . S
C1331 C1332 1.398 . S
C1331 C1337 1.491 . S
C1332 H1323 0.950 . S
C1332 C1331 1.398 . S
C1332 C1333 1.391 . S
C1333 H1321 0.950 . S
C1333 C1329 1.393 . S
C1333 C1332 1.391 . S
C1334 H1324 0.950 . S
C1334 C1335 1.386 . S
C1334 C1336 1.391 . S
C1335 C1334 1.386 . S
C1335 C1339 1.393 . S
C1336 H1325 0.950 . S
C1336 C1334 1.391 . S
C1336 C1337 1.400 . S
C1337 C1331 1.491 . S
C1337 C1336 1.400 . S
C1337 C1338 1.398 . S
C1338 H1326 0.950 . S
C1338 C1337 1.398 . S
C1338 C1339 1.391 . S
C1339 H1327 0.950 . S
C1339 C1335 1.393 . S
C1339 C1338 1.391 . S
H1340 C1348 0.950 . S
H1341 C1353 0.950 . S
H1342 C1350 0.950 . S
H1343 C1352 0.950 . S
H1344 C1354 0.950 . S
H1345 C1356 0.950 . S
H1346 C1358 0.950 . S
H1347 C1359 0.950 . S
C1348 H1340 0.950 . S
C1348 C1349 1.386 . S
C1348 C1350 1.391 . S
C1349 C1348 1.386 . S
C1349 C1353 1.393 . S
C1350 H1342 0.950 . S
C1350 C1348 1.391 . S
C1350 C1351 1.400 . S
C1351 C1350 1.400 . S
C1351 C1352 1.398 . S
C1351 C1357 1.491 . S
C1352 H1343 0.950 . S
C1352 C1351 1.398 . S
C1352 C1353 1.391 . S
C1353 H1341 0.950 . S
C1353 C1349 1.393 . S
C1353 C1352 1.391 . S
C1354 H1344 0.950 . S
C1354 C1355 1.386 . S
C1354 C1356 1.391 . S
C1355 C1354 1.386 . S
C1355 C1359 1.393 . S
C1356 H1345 0.950 . S
C1356 C1354 1.391 . S
C1356 C1357 1.400 . S
C1357 C1351 1.491 . S
C1357 C1356 1.400 . S
C1357 C1358 1.398 . S
C1358 H1346 0.950 . S
C1358 C1357 1.398 . S
C1358 C1359 1.391 . S
C1359 H1347 0.950 . S
C1359 C1355 1.393 . S
C1359 C1358 1.391 . S
H1360 C1368 0.950 . S
H1361 C1373 0.950 . S
H1362 C1370 0.950 . S
H1363 C1372 0.950 . S
H1364 C1374 0.950 . S
H1365 C1376 0.950 . S
H1366 C1378 0.950 . S
H1367 C1379 0.950 . S
C1368 H1360 0.950 . S
C1368 C1369 1.386 . S
C1368 C1370 1.391 . S
C1369 C1368 1.386 . S
C1369 C1373 1.393 . S
C1370 H1362 0.950 . S
C1370 C1368 1.391 . S
C1370 C1371 1.400 . S
C1371 C1370 1.400 . S
C1371 C1372 1.398 . S
C1371 C1377 1.491 1_655 S
C1372 H1363 0.950 . S
C1372 C1371 1.398 . S
C1372 C1373 1.391 . S
C1373 H1361 0.950 . S
C1373 C1369 1.393 . S
C1373 C1372 1.391 . S
C1374 H1364 0.950 . S
C1374 C1375 1.386 . S
C1374 C1376 1.391 . S
C1375 C1374 1.386 . S
C1375 C1379 1.393 . S
C1376 H1365 0.950 . S
C1376 C1374 1.391 . S
C1376 C1377 1.400 . S
C1377 C1371 1.491 1_455 S
C1377 C1376 1.400 . S
C1377 C1378 1.398 . S
C1378 H1366 0.950 . S
C1378 C1377 1.398 . S
C1378 C1379 1.391 . S
C1379 H1367 0.950 . S
C1379 C1375 1.393 . S
C1379 C1378 1.391 . S
H1380 C1388 0.950 . S
H1381 C1393 0.950 . S
H1382 C1390 0.950 . S
H1383 C1392 0.950 . S
H1384 C1394 0.950 . S
H1385 C1396 0.950 . S
H1386 C1398 0.950 . S
H1387 C1399 0.950 . S
C1388 H1380 0.950 . S
C1388 C1389 1.386 . S
C1388 C1390 1.391 . S
C1389 C1388 1.386 . S
C1389 C1393 1.393 . S
C1390 H1382 0.950 . S
C1390 C1388 1.391 . S
C1390 C1391 1.400 . S
C1391 C1390 1.400 . S
C1391 C1392 1.398 . S
C1391 C1397 1.491 . S
C1392 H1383 0.950 . S
C1392 C1391 1.398 . S
C1392 C1393 1.391 . S
C1393 H1381 0.950 . S
C1393 C1389 1.393 . S
C1393 C1392 1.391 . S
C1394 H1384 0.950 . S
C1394 C1395 1.386 . S
C1394 C1396 1.391 . S
C1395 C1394 1.386 . S
C1395 C1399 1.393 . S
C1396 H1385 0.950 . S
C1396 C1394 1.391 . S
C1396 C1397 1.400 . S
C1397 C1391 1.491 . S
C1397 C1396 1.400 . S
C1397 C1398 1.398 . S
C1398 H1386 0.950 . S
C1398 C1397 1.398 . S
C1398 C1399 1.391 . S
C1399 H1387 0.950 . S
C1399 C1395 1.393 . S
C1399 C1398 1.391 . S
H1400 C1408 0.950 . S
H1401 C1413 0.950 . S
H1402 C1410 0.950 . S
H1403 C1412 0.950 . S
H1404 C1414 0.950 . S
H1405 C1416 0.950 . S
H1406 C1418 0.950 . S
H1407 C1419 0.950 . S
C1408 H1400 0.950 . S
C1408 C1409 1.386 . S
C1408 C1410 1.391 . S
C1409 C1408 1.386 . S
C1409 C1413 1.393 . S
C1410 H1402 0.950 . S
C1410 C1408 1.391 . S
C1410 C1411 1.400 . S
C1411 C1410 1.400 . S
C1411 C1412 1.398 . S
C1411 C1417 1.491 . S
C1412 H1403 0.950 . S
C1412 C1411 1.398 . S
C1412 C1413 1.391 . S
C1413 H1401 0.950 . S
C1413 C1409 1.393 . S
C1413 C1412 1.391 . S
C1414 H1404 0.950 . S
C1414 C1415 1.386 . S
C1414 C1416 1.391 . S
C1415 C1414 1.386 . S
C1415 C1419 1.393 . S
C1416 H1405 0.950 . S
C1416 C1414 1.391 . S
C1416 C1417 1.400 . S
C1417 C1411 1.491 . S
C1417 C1416 1.400 . S
C1417 C1418 1.398 . S
C1418 H1406 0.950 . S
C1418 C1417 1.398 . S
C1418 C1419 1.391 . S
C1419 H1407 0.950 . S
C1419 C1415 1.393 . S
C1419 C1418 1.391 . S
H1420 C1428 0.950 1_655 S
H1421 C1433 0.950 . S
H1422 C1430 0.950 . S
H1423 C1432 0.950 . S
H1424 C1434 0.950 1_455 S
H1425 C1436 0.950 . S
H1426 C1438 0.950 . S
H1427 C1439 0.950 . S
C1428 H1420 0.950 1_455 S
C1428 C1429 1.386 . S
C1428 C1430 1.391 1_455 S
C1429 C1428 1.386 . S
C1429 C1433 1.393 . S
C1430 H1422 0.950 . S
C1430 C1428 1.391 1_655 S
C1430 C1431 1.400 1_655 S
C1431 C1430 1.400 1_455 S
C1431 C1432 1.398 . S
C1431 C1437 1.491 1_455 S
C1432 H1423 0.950 . S
C1432 C1431 1.398 . S
C1432 C1433 1.391 . S
C1433 H1421 0.950 . S
C1433 C1429 1.393 . S
C1433 C1432 1.391 . S
C1434 H1424 0.950 1_655 S
C1434 C1435 1.386 . S
C1434 C1436 1.391 1_655 S
C1435 C1434 1.386 . S
C1435 C1439 1.393 . S
C1436 H1425 0.950 . S
C1436 C1434 1.391 1_455 S
C1436 C1437 1.400 1_455 S
C1437 C1431 1.491 1_655 S
C1437 C1436 1.400 1_655 S
C1437 C1438 1.398 . S
C1438 H1426 0.950 . S
C1438 C1437 1.398 . S
C1438 C1439 1.391 . S
C1439 H1427 0.950 . S
C1439 C1435 1.393 . S
C1439 C1438 1.391 . S
H1440 C1448 0.950 . S
H1441 C1453 0.950 . S
H1442 C1450 0.950 . S
H1443 C1452 0.950 . S
H1444 C1454 0.950 . S
H1445 C1456 0.950 . S
H1446 C1458 0.950 . S
H1447 C1459 0.950 . S
C1448 H1440 0.950 . S
C1448 C1449 1.386 . S
C1448 C1450 1.391 . S
C1449 C1448 1.386 . S
C1449 C1453 1.393 . S
C1450 H1442 0.950 . S
C1450 C1448 1.391 . S
C1450 C1451 1.400 . S
C1451 C1450 1.400 . S
C1451 C1452 1.398 . S
C1451 C1457 1.491 1_455 S
C1452 H1443 0.950 . S
C1452 C1451 1.398 . S
C1452 C1453 1.391 . S
C1453 H1441 0.950 . S
C1453 C1449 1.393 . S
C1453 C1452 1.391 . S
C1454 H1444 0.950 . S
C1454 C1455 1.386 . S
C1454 C1456 1.391 . S
C1455 C1454 1.386 . S
C1455 C1459 1.393 . S
C1456 H1445 0.950 . S
C1456 C1454 1.391 . S
C1456 C1457 1.400 . S
C1457 C1451 1.491 1_655 S
C1457 C1456 1.400 . S
C1457 C1458 1.398 . S
C1458 H1446 0.950 . S
C1458 C1457 1.398 . S
C1458 C1459 1.391 . S
C1459 H1447 0.950 . S
C1459 C1455 1.393 . S
C1459 C1458 1.391 . S
H1460 C1468 0.950 . S
H1461 C1473 0.950 1_455 S
H1462 C1470 0.950 . S
H1463 C1472 0.950 . S
H1464 C1474 0.950 . S
H1465 C1476 0.950 . S
H1466 C1478 0.950 . S
H1467 C1479 0.950 1_655 S
C1468 H1460 0.950 . S
C1468 C1469 1.386 . S
C1468 C1470 1.391 . S
C1469 C1468 1.386 . S
C1469 C1473 1.393 . S
C1470 H1462 0.950 . S
C1470 C1468 1.391 . S
C1470 C1471 1.400 . S
C1471 C1470 1.400 . S
C1471 C1472 1.398 1_655 S
C1471 C1477 1.491 1_655 S
C1472 H1463 0.950 . S
C1472 C1471 1.398 1_455 S
C1472 C1473 1.391 1_455 S
C1473 H1461 0.950 1_655 S
C1473 C1469 1.393 . S
C1473 C1472 1.391 1_655 S
C1474 H1464 0.950 . S
C1474 C1475 1.386 . S
C1474 C1476 1.391 . S
C1475 C1474 1.386 . S
C1475 C1479 1.393 . S
C1476 H1465 0.950 . S
C1476 C1474 1.391 . S
C1476 C1477 1.400 . S
C1477 C1471 1.491 1_455 S
C1477 C1476 1.400 . S
C1477 C1478 1.398 1_455 S
C1478 H1466 0.950 . S
C1478 C1477 1.398 1_655 S
C1478 C1479 1.391 1_655 S
C1479 H1467 0.950 1_455 S
C1479 C1475 1.393 . S
C1479 C1478 1.391 1_455 S
H1480 C1488 0.950 . S
H1481 C1493 0.950 . S
H1482 C1490 0.950 . S
H1483 C1492 0.950 . S
H1484 C1494 0.950 . S
H1485 C1496 0.950 . S
H1486 C1498 0.950 . S
H1487 C1499 0.950 . S
C1488 H1480 0.950 . S
C1488 C1489 1.386 . S
C1488 C1490 1.391 . S
C1489 C1488 1.386 . S
C1489 C1493 1.393 . S
C1490 H1482 0.950 . S
C1490 C1488 1.391 . S
C1490 C1491 1.400 . S
C1491 C1490 1.400 . S
C1491 C1492 1.398 . S
C1491 C1497 1.491 . S
C1492 H1483 0.950 . S
C1492 C1491 1.398 . S
C1492 C1493 1.391 . S
C1493 H1481 0.950 . S
C1493 C1489 1.393 . S
C1493 C1492 1.391 . S
C1494 H1484 0.950 . S
C1494 C1495 1.386 . S
C1494 C1496 1.391 . S
C1495 C1494 1.386 . S
C1495 C1499 1.393 . S
C1496 H1485 0.950 . S
C1496 C1494 1.391 . S
C1496 C1497 1.400 . S
C1497 C1491 1.491 . S
C1497 C1496 1.400 . S
C1497 C1498 1.398 . S
C1498 H1486 0.950 . S
C1498 C1497 1.398 . S
C1498 C1499 1.391 . S
C1499 H1487 0.950 . S
C1499 C1495 1.393 . S
C1499 C1498 1.391 . S
H1500 C1508 0.950 . S
H1501 C1513 0.950 . S
H1502 C1510 0.950 . S
H1503 C1512 0.950 . S
H1504 C1514 0.950 . S
H1505 C1516 0.950 . S
H1506 C1518 0.950 . S
H1507 C1519 0.950 . S
C1508 H1500 0.950 . S
C1508 C1509 1.386 . S
C1508 C1510 1.391 . S
C1509 C1508 1.386 . S
C1509 C1513 1.393 . S
C1510 H1502 0.950 . S
C1510 C1508 1.391 . S
C1510 C1511 1.400 . S
C1511 C1510 1.400 . S
C1511 C1512 1.398 . S
C1511 C1517 1.491 . S
C1512 H1503 0.950 . S
C1512 C1511 1.398 . S
C1512 C1513 1.391 . S
C1513 H1501 0.950 . S
C1513 C1509 1.393 . S
C1513 C1512 1.391 . S
C1514 H1504 0.950 . S
C1514 C1515 1.386 . S
C1514 C1516 1.391 . S
C1515 C1514 1.386 . S
C1515 C1519 1.393 . S
C1516 H1505 0.950 . S
C1516 C1514 1.391 . S
C1516 C1517 1.400 . S
C1517 C1511 1.491 . S
C1517 C1516 1.400 . S
C1517 C1518 1.398 . S
C1518 H1506 0.950 . S
C1518 C1517 1.398 . S
C1518 C1519 1.391 . S
C1519 H1507 0.950 . S
C1519 C1515 1.393 . S
C1519 C1518 1.391 . S
H1520 C1528 0.950 . S
H1521 C1533 0.950 . S
H1522 C1530 0.950 . S
H1523 C1532 0.950 . S
H1524 C1534 0.950 . S
H1525 C1536 0.950 . S
H1526 C1538 0.950 . S
H1527 C1539 0.950 . S
C1528 H1520 0.950 . S
C1528 C1529 1.386 . S
C1528 C1530 1.391 . S
C1529 C1528 1.386 . S
C1529 C1533 1.393 . S
C1530 H1522 0.950 . S
C1530 C1528 1.391 . S
C1530 C1531 1.400 . S
C1531 C1530 1.400 . S
C1531 C1532 1.398 . S
C1531 C1537 1.491 1_455 S
C1532 H1523 0.950 . S
C1532 C1531 1.398 . S
C1532 C1533 1.391 . S
C1533 H1521 0.950 . S
C1533 C1529 1.393 . S
C1533 C1532 1.391 . S
C1534 H1524 0.950 . S
C1534 C1535 1.386 . S
C1534 C1536 1.391 . S
C1535 C1534 1.386 . S
C1535 C1539 1.393 . S
C1536 H1525 0.950 . S
C1536 C1534 1.391 . S
C1536 C1537 1.400 . S
C1537 C1531 1.491 1_655 S
C1537 C1536 1.400 . S
C1537 C1538 1.398 . S
C1538 H1526 0.950 . S
C1538 C1537 1.398 . S
C1538 C1539 1.391 . S
C1539 H1527 0.950 . S
C1539 C1535 1.393 . S
C1539 C1538 1.391 . S
H1540 C1548 0.950 . S
H1541 C1553 0.950 . S
H1542 C1550 0.950 . S
H1543 C1552 0.950 . S
H1544 C1554 0.950 . S
H1545 C1556 0.950 . S
H1546 C1558 0.950 . S
H1547 C1559 0.950 . S
C1548 H1540 0.950 . S
C1548 C1549 1.386 . S
C1548 C1550 1.391 . S
C1549 C1548 1.386 . S
C1549 C1553 1.393 . S
C1550 H1542 0.950 . S
C1550 C1548 1.391 . S
C1550 C1551 1.400 . S
C1551 C1550 1.400 . S
C1551 C1552 1.398 . S
C1551 C1557 1.491 . S
C1552 H1543 0.950 . S
C1552 C1551 1.398 . S
C1552 C1553 1.391 . S
C1553 H1541 0.950 . S
C1553 C1549 1.393 . S
C1553 C1552 1.391 . S
C1554 H1544 0.950 . S
C1554 C1555 1.386 . S
C1554 C1556 1.391 . S
C1555 C1554 1.386 . S
C1555 C1559 1.393 . S
C1556 H1545 0.950 . S
C1556 C1554 1.391 . S
C1556 C1557 1.400 . S
C1557 C1551 1.491 . S
C1557 C1556 1.400 . S
C1557 C1558 1.398 . S
C1558 H1546 0.950 . S
C1558 C1557 1.398 . S
C1558 C1559 1.391 . S
C1559 H1547 0.950 . S
C1559 C1555 1.393 . S
C1559 C1558 1.391 . S
H1560 C1568 0.950 . S
H1561 C1573 0.950 . S
H1562 C1570 0.950 . S
H1563 C1572 0.950 . S
H1564 C1574 0.950 . S
H1565 C1576 0.950 . S
H1566 C1578 0.950 . S
H1567 C1579 0.950 . S
C1568 H1560 0.950 . S
C1568 C1569 1.386 . S
C1568 C1570 1.391 . S
C1569 C1568 1.386 . S
C1569 C1573 1.393 . S
C1570 H1562 0.950 . S
C1570 C1568 1.391 . S
C1570 C1571 1.400 . S
C1571 C1570 1.400 . S
C1571 C1572 1.398 . S
C1571 C1577 1.491 . S
C1572 H1563 0.950 . S
C1572 C1571 1.398 . S
C1572 C1573 1.391 . S
C1573 H1561 0.950 . S
C1573 C1569 1.393 . S
C1573 C1572 1.391 . S
C1574 H1564 0.950 . S
C1574 C1575 1.386 . S
C1574 C1576 1.391 . S
C1575 C1574 1.386 . S
C1575 C1579 1.393 . S
C1576 H1565 0.950 . S
C1576 C1574 1.391 . S
C1576 C1577 1.400 . S
C1577 C1571 1.491 . S
C1577 C1576 1.400 . S
C1577 C1578 1.398 . S
C1578 H1566 0.950 . S
C1578 C1577 1.398 . S
C1578 C1579 1.391 . S
C1579 H1567 0.950 . S
C1579 C1575 1.393 . S
C1579 C1578 1.391 . S
H1580 C1588 0.950 . S
H1581 C1593 0.950 1_455 S
H1582 C1590 0.950 . S
H1583 C1592 0.950 . S
H1584 C1594 0.950 . S
H1585 C1596 0.950 . S
H1586 C1598 0.950 . S
H1587 C1599 0.950 1_655 S
C1588 H1580 0.950 . S
C1588 C1589 1.386 . S
C1588 C1590 1.391 . S
C1589 C1588 1.386 . S
C1589 C1593 1.393 . S
C1590 H1582 0.950 . S
C1590 C1588 1.391 . S
C1590 C1591 1.400 . S
C1591 C1590 1.400 . S
C1591 C1592 1.398 1_655 S
C1591 C1597 1.491 1_655 S
C1592 H1583 0.950 . S
C1592 C1591 1.398 1_455 S
C1592 C1593 1.391 1_455 S
C1593 H1581 0.950 1_655 S
C1593 C1589 1.393 . S
C1593 C1592 1.391 1_655 S
C1594 H1584 0.950 . S
C1594 C1595 1.386 . S
C1594 C1596 1.391 . S
C1595 C1594 1.386 . S
C1595 C1599 1.393 . S
C1596 H1585 0.950 . S
C1596 C1594 1.391 . S
C1596 C1597 1.400 . S
C1597 C1591 1.491 1_455 S
C1597 C1596 1.400 . S
C1597 C1598 1.398 1_455 S
C1598 H1586 0.950 . S
C1598 C1597 1.398 1_655 S
C1598 C1599 1.391 1_655 S
C1599 H1587 0.950 1_455 S
C1599 C1595 1.393 . S
C1599 C1598 1.391 1_455 S
H1600 C1608 0.950 . S
H1601 C1613 0.950 . S
H1602 C1610 0.950 . S
H1603 C1612 0.950 . S
H1604 C1614 0.950 . S
H1605 C1616 0.950 . S
H1606 C1618 0.950 . S
H1607 C1619 0.950 . S
C1608 H1600 0.950 . S
C1608 C1609 1.386 . S
C1608 C1610 1.391 . S
C1609 C1608 1.386 . S
C1609 C1613 1.393 . S
C1610 H1602 0.950 . S
C1610 C1608 1.391 . S
C1610 C1611 1.400 . S
C1611 C1610 1.400 . S
C1611 C1612 1.398 . S
C1611 C1617 1.491 . S
C1612 H1603 0.950 . S
C1612 C1611 1.398 . S
C1612 C1613 1.391 . S
C1613 H1601 0.950 . S
C1613 C1609 1.393 . S
C1613 C1612 1.391 . S
C1614 H1604 0.950 . S
C1614 C1615 1.386 . S
C1614 C1616 1.391 . S
C1615 C1614 1.386 . S
C1615 C1619 1.393 . S
C1616 H1605 0.950 . S
C1616 C1614 1.391 . S
C1616 C1617 1.400 . S
C1617 C1611 1.491 . S
C1617 C1616 1.400 . S
C1617 C1618 1.398 . S
C1618 H1606 0.950 . S
C1618 C1617 1.398 . S
C1618 C1619 1.391 . S
C1619 H1607 0.950 . S
C1619 C1615 1.393 . S
C1619 C1618 1.391 . S
H1620 C1628 0.950 . S
H1621 C1633 0.950 . S
H1622 C1630 0.950 . S
H1623 C1632 0.950 1_455 S
H1624 C1634 0.950 . S
H1625 C1636 0.950 . S
H1626 C1638 0.950 1_655 S
H1627 C1639 0.950 . S
C1628 H1620 0.950 . S
C1628 C1629 1.386 1_565 S
C1628 C1630 1.391 . S
C1629 C1628 1.386 1_545 S
C1629 C1633 1.393 . S
C1630 H1622 0.950 . S
C1630 C1628 1.391 . S
C1630 C1631 1.400 1_565 S
C1631 C1630 1.400 1_545 S
C1631 C1632 1.398 . S
C1631 C1637 1.491 1_645 S
C1632 H1623 0.950 1_655 S
C1632 C1631 1.398 . S
C1632 C1633 1.391 . S
C1633 H1621 0.950 . S
C1633 C1629 1.393 . S
C1633 C1632 1.391 . S
C1634 H1624 0.950 . S
C1634 C1635 1.386 1_545 S
C1634 C1636 1.391 . S
C1635 C1634 1.386 1_565 S
C1635 C1639 1.393 . S
C1636 H1625 0.950 . S
C1636 C1634 1.391 . S
C1636 C1637 1.400 1_545 S
C1637 C1631 1.491 1_465 S
C1637 C1636 1.400 1_565 S
C1637 C1638 1.398 . S
C1638 H1626 0.950 1_455 S
C1638 C1637 1.398 . S
C1638 C1639 1.391 . S
C1639 H1627 0.950 . S
C1639 C1635 1.393 . S
C1639 C1638 1.391 . S
H1640 C1648 0.950 . S
H1641 C1653 0.950 . S
H1642 C1650 0.950 . S
H1643 C1652 0.950 . S
H1644 C1654 0.950 . S
H1645 C1656 0.950 . S
H1646 C1658 0.950 . S
H1647 C1659 0.950 . S
C1648 H1640 0.950 . S
C1648 C1649 1.386 . S
C1648 C1650 1.391 . S
C1649 C1648 1.386 . S
C1649 C1653 1.393 . S
C1650 H1642 0.950 . S
C1650 C1648 1.391 . S
C1650 C1651 1.400 . S
C1651 C1650 1.400 . S
C1651 C1652 1.398 . S
C1651 C1657 1.491 . S
C1652 H1643 0.950 . S
C1652 C1651 1.398 . S
C1652 C1653 1.391 . S
C1653 H1641 0.950 . S
C1653 C1649 1.393 . S
C1653 C1652 1.391 . S
C1654 H1644 0.950 . S
C1654 C1655 1.386 . S
C1654 C1656 1.391 . S
C1655 C1654 1.386 . S
C1655 C1659 1.393 . S
C1656 H1645 0.950 . S
C1656 C1654 1.391 . S
C1656 C1657 1.400 . S
C1657 C1651 1.491 . S
C1657 C1656 1.400 . S
C1657 C1658 1.398 . S
C1658 H1646 0.950 . S
C1658 C1657 1.398 . S
C1658 C1659 1.391 . S
C1659 H1647 0.950 . S
C1659 C1655 1.393 . S
C1659 C1658 1.391 . S
H1660 C1668 0.950 . S
H1661 C1673 0.950 1_565 S
H1662 C1670 0.950 1_556 S
H1663 C1672 0.950 . S
H1664 C1674 0.950 . S
H1665 C1676 0.950 1_554 S
H1666 C1678 0.950 . S
H1667 C1679 0.950 1_545 S
C1668 H1660 0.950 . S
C1668 C1669 1.386 . S
C1668 C1670 1.391 . S
C1669 C1668 1.386 . S
C1669 C1673 1.393 . S
C1670 H1662 0.950 1_554 S
C1670 C1668 1.391 . S
C1670 C1671 1.400 . S
C1671 C1670 1.400 . S
C1671 C1672 1.398 1_545 S
C1671 C1677 1.491 1_544 S
C1672 H1663 0.950 . S
C1672 C1671 1.398 1_565 S
C1672 C1673 1.391 1_565 S
C1673 H1661 0.950 1_545 S
C1673 C1669 1.393 . S
C1673 C1672 1.391 1_545 S
C1674 H1664 0.950 . S
C1674 C1675 1.386 . S
C1674 C1676 1.391 . S
C1675 C1674 1.386 . S
C1675 C1679 1.393 . S
C1676 H1665 0.950 1_556 S
C1676 C1674 1.391 . S
C1676 C1677 1.400 . S
C1677 C1671 1.491 1_566 S
C1677 C1676 1.400 . S
C1677 C1678 1.398 1_565 S
C1678 H1666 0.950 . S
C1678 C1677 1.398 1_545 S
C1678 C1679 1.391 1_545 S
C1679 H1667 0.950 1_565 S
C1679 C1675 1.393 . S
C1679 C1678 1.391 1_565 S
H1680 C1688 0.950 . S
H1681 C1693 0.950 . S
H1682 C1690 0.950 . S
H1683 C1692 0.950 . S
H1684 C1694 0.950 . S
H1685 C1696 0.950 . S
H1686 C1698 0.950 . S
H1687 C1699 0.950 . S
C1688 H1680 0.950 . S
C1688 C1689 1.386 . S
C1688 C1690 1.391 . S
C1689 C1688 1.386 . S
C1689 C1693 1.393 . S
C1690 H1682 0.950 . S
C1690 C1688 1.391 . S
C1690 C1691 1.400 . S
C1691 C1690 1.400 . S
C1691 C1692 1.398 . S
C1691 C1697 1.491 . S
C1692 H1683 0.950 . S
C1692 C1691 1.398 . S
C1692 C1693 1.391 . S
C1693 H1681 0.950 . S
C1693 C1689 1.393 . S
C1693 C1692 1.391 . S
C1694 H1684 0.950 . S
C1694 C1695 1.386 . S
C1694 C1696 1.391 . S
C1695 C1694 1.386 . S
C1695 C1699 1.393 . S
C1696 H1685 0.950 . S
C1696 C1694 1.391 . S
C1696 C1697 1.400 . S
C1697 C1691 1.491 . S
C1697 C1696 1.400 . S
C1697 C1698 1.398 . S
C1698 H1686 0.950 . S
C1698 C1697 1.398 . S
C1698 C1699 1.391 . S
C1699 H1687 0.950 . S
C1699 C1695 1.393 . S
C1699 C1698 1.391 . S
H1700 C1708 0.950 . S
H1701 C1713 0.950 . S
H1702 C1710 0.950 . S
H1703 C1712 0.950 . S
H1704 C1714 0.950 . S
H1705 C1716 0.950 . S
H1706 C1718 0.950 . S
H1707 C1719 0.950 . S
C1708 H1700 0.950 . S
C1708 C1709 1.386 1_565 S
C1708 C1710 1.391 . S
C1709 C1708 1.386 1_545 S
C1709 C1713 1.393 . S
C1710 H1702 0.950 . S
C1710 C1708 1.391 . S
C1710 C1711 1.400 1_565 S
C1711 C1710 1.400 1_545 S
C1711 C1712 1.398 . S
C1711 C1717 1.491 1_545 S
C1712 H1703 0.950 . S
C1712 C1711 1.398 . S
C1712 C1713 1.391 . S
C1713 H1701 0.950 . S
C1713 C1709 1.393 . S
C1713 C1712 1.391 . S
C1714 H1704 0.950 . S
C1714 C1715 1.386 1_545 S
C1714 C1716 1.391 . S
C1715 C1714 1.386 1_565 S
C1715 C1719 1.393 . S
C1716 H1705 0.950 . S
C1716 C1714 1.391 . S
C1716 C1717 1.400 1_545 S
C1717 C1711 1.491 1_565 S
C1717 C1716 1.400 1_565 S
C1717 C1718 1.398 . S
C1718 H1706 0.950 . S
C1718 C1717 1.398 . S
C1718 C1719 1.391 . S
C1719 H1707 0.950 . S
C1719 C1715 1.393 . S
C1719 C1718 1.391 . S
H1720 C1728 0.950 . S
H1721 C1733 0.950 . S
H1722 C1730 0.950 . S
H1723 C1732 0.950 . S
H1724 C1734 0.950 . S
H1725 C1736 0.950 . S
H1726 C1738 0.950 . S
H1727 C1739 0.950 . S
C1728 H1720 0.950 . S
C1728 C1729 1.386 . S
C1728 C1730 1.391 . S
C1729 C1728 1.386 . S
C1729 C1733 1.393 . S
C1730 H1722 0.950 . S
C1730 C1728 1.391 . S
C1730 C1731 1.400 . S
C1731 C1730 1.400 . S
C1731 C1732 1.398 . S
C1731 C1737 1.491 . S
C1732 H1723 0.950 . S
C1732 C1731 1.398 . S
C1732 C1733 1.391 . S
C1733 H1721 0.950 . S
C1733 C1729 1.393 . S
C1733 C1732 1.391 . S
C1734 H1724 0.950 . S
C1734 C1735 1.386 . S
C1734 C1736 1.391 . S
C1735 C1734 1.386 . S
C1735 C1739 1.393 . S
C1736 H1725 0.950 . S
C1736 C1734 1.391 . S
C1736 C1737 1.400 . S
C1737 C1731 1.491 . S
C1737 C1736 1.400 . S
C1737 C1738 1.398 . S
C1738 H1726 0.950 . S
C1738 C1737 1.398 . S
C1738 C1739 1.391 . S
C1739 H1727 0.950 . S
C1739 C1735 1.393 . S
C1739 C1738 1.391 . S
H1740 C1748 0.950 . S
H1741 C1753 0.946 1_565 S
H1742 C1750 0.950 1_554 S
H1743 C1752 0.950 . S
H1744 C1754 0.950 . S
H1745 C1756 0.950 1_556 S
H1746 C1758 0.950 . S
H1747 C1759 0.946 1_545 S
C1748 H1740 0.950 . S
C1748 C1749 1.386 . S
C1748 C1750 1.391 . S
C1749 C1748 1.386 . S
C1749 C1753 1.398 . S
C1750 H1742 0.950 1_556 S
C1750 C1748 1.391 . S
C1750 C1751 1.400 . S
C1751 C1750 1.400 . S
C1751 C1752 1.398 1_445 S
C1751 C1757 1.491 1_446 S
C1752 H1743 0.950 . S
C1752 C1751 1.398 1_665 S
C1752 C1753 1.389 1_665 S
C1753 H1741 0.946 1_545 S
C1753 C1749 1.398 . S
C1753 C1752 1.389 1_445 S
C1754 H1744 0.950 . S
C1754 C1755 1.386 . S
C1754 C1756 1.391 . S
C1755 C1754 1.386 . S
C1755 C1759 1.398 . S
C1756 H1745 0.950 1_554 S
C1756 C1754 1.391 . S
C1756 C1757 1.400 . S
C1757 C1751 1.491 1_664 S
C1757 C1756 1.400 . S
C1757 C1758 1.398 1_665 S
C1758 H1746 0.950 . S
C1758 C1757 1.398 1_445 S
C1758 C1759 1.389 1_445 S
C1759 H1747 0.946 1_565 S
C1759 C1755 1.398 . S
C1759 C1758 1.389 1_665 S
H1760 C1768 0.950 . S
H1761 C1773 0.950 . S
H1762 C1770 0.950 . S
H1763 C1772 0.950 . S
H1764 C1774 0.950 . S
H1765 C1776 0.950 . S
H1766 C1778 0.950 . S
H1767 C1779 0.950 . S
C1768 H1760 0.950 . S
C1768 C1769 1.386 . S
C1768 C1770 1.391 . S
C1769 C1768 1.386 . S
C1769 C1773 1.393 . S
C1770 H1762 0.950 . S
C1770 C1768 1.391 . S
C1770 C1771 1.400 . S
C1771 C1770 1.400 . S
C1771 C1772 1.398 . S
C1771 C1777 1.491 . S
C1772 H1763 0.950 . S
C1772 C1771 1.398 . S
C1772 C1773 1.391 . S
C1773 H1761 0.950 . S
C1773 C1769 1.393 . S
C1773 C1772 1.391 . S
C1774 H1764 0.950 . S
C1774 C1775 1.386 . S
C1774 C1776 1.391 . S
C1775 C1774 1.386 . S
C1775 C1779 1.393 . S
C1776 H1765 0.950 . S
C1776 C1774 1.391 . S
C1776 C1777 1.400 . S
C1777 C1771 1.491 . S
C1777 C1776 1.400 . S
C1777 C1778 1.398 . S
C1778 H1766 0.950 . S
C1778 C1777 1.398 . S
C1778 C1779 1.391 . S
C1779 H1767 0.950 . S
C1779 C1775 1.393 . S
C1779 C1778 1.391 . S
H1780 C1788 0.950 . S
H1781 C1793 0.950 . S
H1782 C1790 0.950 . S
H1783 C1792 0.950 . S
H1784 C1794 0.950 . S
H1785 C1796 0.950 . S
H1786 C1798 0.950 . S
H1787 C1799 0.950 . S
C1788 H1780 0.950 . S
C1788 C1789 1.386 . S
C1788 C1790 1.391 . S
C1789 C1788 1.386 . S
C1789 C1793 1.393 . S
C1790 H1782 0.950 . S
C1790 C1788 1.391 . S
C1790 C1791 1.400 . S
C1791 C1790 1.400 . S
C1791 C1792 1.398 . S
C1791 C1797 1.491 . S
C1792 H1783 0.950 . S
C1792 C1791 1.398 . S
C1792 C1793 1.391 . S
C1793 H1781 0.950 . S
C1793 C1789 1.393 . S
C1793 C1792 1.391 . S
C1794 H1784 0.950 . S
C1794 C1795 1.386 . S
C1794 C1796 1.391 . S
C1795 C1794 1.386 . S
C1795 C1799 1.393 . S
C1796 H1785 0.950 . S
C1796 C1794 1.391 . S
C1796 C1797 1.400 . S
C1797 C1791 1.491 . S
C1797 C1796 1.400 . S
C1797 C1798 1.398 . S
C1798 H1786 0.950 . S
C1798 C1797 1.398 . S
C1798 C1799 1.391 . S
C1799 H1787 0.950 . S
C1799 C1795 1.393 . S
C1799 C1798 1.391 . S
H1800 C1808 0.950 . S
H1801 C1813 0.950 . S
H1802 C1810 0.950 . S
H1803 C1812 0.950 . S
H1804 C1814 0.950 . S
H1805 C1816 0.950 . S
H1806 C1818 0.950 . S
H1807 C1819 0.950 . S
C1808 H1800 0.950 . S
C1808 C1809 1.386 . S
C1808 C1810 1.391 . S
C1809 C1808 1.386 . S
C1809 C1813 1.393 . S
C1810 H1802 0.950 . S
C1810 C1808 1.391 . S
C1810 C1811 1.400 . S
C1811 C1810 1.400 . S
C1811 C1812 1.398 . S
C1811 C1817 1.491 . S
C1812 H1803 0.950 . S
C1812 C1811 1.398 . S
C1812 C1813 1.391 . S
C1813 H1801 0.950 . S
C1813 C1809 1.393 . S
C1813 C1812 1.391 . S
C1814 H1804 0.950 . S
C1814 C1815 1.386 . S
C1814 C1816 1.391 . S
C1815 C1814 1.386 . S
C1815 C1819 1.393 . S
C1816 H1805 0.950 . S
C1816 C1814 1.391 . S
C1816 C1817 1.400 . S
C1817 C1811 1.491 . S
C1817 C1816 1.400 . S
C1817 C1818 1.398 . S
C1818 H1806 0.950 . S
C1818 C1817 1.398 . S
C1818 C1819 1.391 . S
C1819 H1807 0.950 . S
C1819 C1815 1.393 . S
C1819 C1818 1.391 . S
H1820 C1828 0.950 . S
H1821 C1833 0.950 . S
H1822 C1830 0.950 . S
H1823 C1832 0.950 . S
H1824 C1834 0.950 . S
H1825 C1836 0.950 . S
H1826 C1838 0.950 . S
H1827 C1839 0.950 . S
C1828 H1820 0.950 . S
C1828 C1829 1.386 . S
C1828 C1830 1.391 . S
C1829 C1828 1.386 . S
C1829 C1833 1.393 . S
C1830 H1822 0.950 . S
C1830 C1828 1.391 . S
C1830 C1831 1.400 . S
C1831 C1830 1.400 . S
C1831 C1832 1.398 . S
C1831 C1837 1.491 . S
C1832 H1823 0.950 . S
C1832 C1831 1.398 . S
C1832 C1833 1.391 . S
C1833 H1821 0.950 . S
C1833 C1829 1.393 . S
C1833 C1832 1.391 . S
C1834 H1824 0.950 . S
C1834 C1835 1.386 . S
C1834 C1836 1.391 . S
C1835 C1834 1.386 . S
C1835 C1839 1.393 . S
C1836 H1825 0.950 . S
C1836 C1834 1.391 . S
C1836 C1837 1.400 . S
C1837 C1831 1.491 . S
C1837 C1836 1.400 . S
C1837 C1838 1.398 . S
C1838 H1826 0.950 . S
C1838 C1837 1.398 . S
C1838 C1839 1.391 . S
C1839 H1827 0.950 . S
C1839 C1835 1.393 . S
C1839 C1838 1.391 . S
H1840 C1848 0.950 . S
H1841 C1853 0.950 . S
H1842 C1850 0.950 . S
H1843 C1852 0.950 . S
H1844 C1854 0.950 . S
H1845 C1856 0.950 . S
H1846 C1858 0.950 . S
H1847 C1859 0.950 . S
C1848 H1840 0.950 . S
C1848 C1849 1.386 . S
C1848 C1850 1.391 . S
C1849 C1848 1.386 . S
C1849 C1853 1.393 . S
C1850 H1842 0.950 . S
C1850 C1848 1.391 . S
C1850 C1851 1.400 . S
C1851 C1850 1.400 . S
C1851 C1852 1.398 . S
C1851 C1857 1.491 1_554 S
C1852 H1843 0.950 . S
C1852 C1851 1.398 . S
C1852 C1853 1.391 . S
C1853 H1841 0.950 . S
C1853 C1849 1.393 . S
C1853 C1852 1.391 . S
C1854 H1844 0.950 . S
C1854 C1855 1.386 . S
C1854 C1856 1.391 . S
C1855 C1854 1.386 . S
C1855 C1859 1.393 . S
C1856 H1845 0.950 . S
C1856 C1854 1.391 . S
C1856 C1857 1.400 . S
C1857 C1851 1.491 1_556 S
C1857 C1856 1.400 . S
C1857 C1858 1.398 . S
C1858 H1846 0.950 . S
C1858 C1857 1.398 . S
C1858 C1859 1.391 . S
C1859 H1847 0.950 . S
C1859 C1855 1.393 . S
C1859 C1858 1.391 . S
H1860 C1868 0.950 . S
H1861 C1873 0.962 . S
H1862 C1870 0.950 . S
H1863 C1872 0.950 . S
H1864 C1874 0.950 . S
H1865 C1876 0.950 . S
H1866 C1878 0.950 . S
H1867 C1879 0.962 . S
C1868 H1860 0.950 . S
C1868 C1869 1.386 . S
C1868 C1870 1.391 . S
C1869 C1868 1.386 . S
C1869 C1873 1.393 . S
C1870 H1862 0.950 . S
C1870 C1868 1.391 . S
C1870 C1871 1.400 . S
C1871 C1870 1.400 . S
C1871 C1872 1.398 1_655 S
C1871 C1877 1.491 1_655 S
C1872 H1863 0.950 . S
C1872 C1871 1.398 1_455 S
C1872 C1873 1.391 1_455 S
C1873 H1861 0.962 . S
C1873 C1869 1.393 . S
C1873 C1872 1.391 1_655 S
C1874 H1864 0.950 . S
C1874 C1875 1.386 . S
C1874 C1876 1.391 . S
C1875 C1874 1.386 . S
C1875 C1879 1.393 . S
C1876 H1865 0.950 . S
C1876 C1874 1.391 . S
C1876 C1877 1.400 . S
C1877 C1871 1.491 1_455 S
C1877 C1876 1.400 . S
C1877 C1878 1.398 1_455 S
C1878 H1866 0.950 . S
C1878 C1877 1.398 1_655 S
C1878 C1879 1.391 1_655 S
C1879 H1867 0.962 . S
C1879 C1875 1.393 . S
C1879 C1878 1.391 1_455 S
H1880 C1888 0.950 . S
H1881 C1893 0.950 . S
H1882 C1890 0.950 . S
H1883 C1892 0.950 . S
H1884 C1894 0.950 . S
H1885 C1896 0.950 . S
H1886 C1898 0.950 . S
H1887 C1899 0.950 . S
C1888 H1880 0.950 . S
C1888 C1889 1.386 . S
C1888 C1890 1.391 . S
C1889 C1888 1.386 . S
C1889 C1893 1.393 . S
C1890 H1882 0.950 . S
C1890 C1888 1.391 . S
C1890 C1891 1.400 . S
C1891 C1890 1.400 . S
C1891 C1892 1.398 1_455 S
C1891 C1897 1.491 1_454 S
C1892 H1883 0.950 . S
C1892 C1891 1.398 1_655 S
C1892 C1893 1.391 1_655 S
C1893 H1881 0.950 . S
C1893 C1889 1.393 . S
C1893 C1892 1.391 1_455 S
C1894 H1884 0.950 . S
C1894 C1895 1.386 . S
C1894 C1896 1.391 . S
C1895 C1894 1.386 . S
C1895 C1899 1.393 . S
C1896 H1885 0.950 . S
C1896 C1894 1.391 . S
C1896 C1897 1.400 . S
C1897 C1891 1.491 1_656 S
C1897 C1896 1.400 . S
C1897 C1898 1.398 1_655 S
C1898 H1886 0.950 . S
C1898 C1897 1.398 1_455 S
C1898 C1899 1.391 1_455 S
C1899 H1887 0.950 . S
C1899 C1895 1.393 . S
C1899 C1898 1.391 1_655 S
H1900 C1908 0.950 . S
H1901 C1913 0.950 . S
H1902 C1910 0.950 . S
H1903 C1912 0.950 . S
H1904 C1914 0.950 . S
H1905 C1916 0.950 . S
H1906 C1918 0.950 . S
H1907 C1919 0.950 . S
C1908 H1900 0.950 . S
C1908 C1909 1.386 . S
C1908 C1910 1.391 . S
C1909 C1908 1.386 . S
C1909 C1913 1.393 . S
C1910 H1902 0.950 . S
C1910 C1908 1.391 . S
C1910 C1911 1.400 . S
C1911 C1910 1.400 . S
C1911 C1912 1.398 . S
C1911 C1917 1.491 . S
C1912 H1903 0.950 . S
C1912 C1911 1.398 . S
C1912 C1913 1.391 . S
C1913 H1901 0.950 . S
C1913 C1909 1.393 . S
C1913 C1912 1.391 . S
C1914 H1904 0.950 . S
C1914 C1915 1.386 . S
C1914 C1916 1.391 . S
C1915 C1914 1.386 . S
C1915 C1919 1.393 . S
C1916 H1905 0.950 . S
C1916 C1914 1.391 . S
C1916 C1917 1.400 . S
C1917 C1911 1.491 . S
C1917 C1916 1.400 . S
C1917 C1918 1.398 . S
C1918 H1906 0.950 . S
C1918 C1917 1.398 . S
C1918 C1919 1.391 . S
C1919 H1907 0.950 . S
C1919 C1915 1.393 . S
C1919 C1918 1.391 . S
H1920 C1928 0.950 . S
H1921 C1933 0.950 . S
H1922 C1930 0.950 . S
H1923 C1932 0.950 . S
H1924 C1934 0.950 . S
H1925 C1936 0.950 1_565 S
H1926 C1938 0.950 . S
H1927 C1939 0.950 . S
C1928 H1920 0.950 . S
C1928 C1929 1.386 . S
C1928 C1930 1.391 . S
C1929 C1928 1.386 . S
C1929 C1933 1.393 . S
C1930 H1922 0.950 . S
C1930 C1928 1.391 . S
C1930 C1931 1.400 . S
C1931 C1930 1.400 . S
C1931 C1932 1.398 . S
C1931 C1937 1.491 . S
C1932 H1923 0.950 . S
C1932 C1931 1.398 . S
C1932 C1933 1.391 . S
C1933 H1921 0.950 . S
C1933 C1929 1.393 . S
C1933 C1932 1.391 . S
C1934 H1924 0.950 . S
C1934 C1935 1.386 1_565 S
C1934 C1936 1.391 1_565 S
C1935 C1934 1.386 1_545 S
C1935 C1939 1.393 . S
C1936 H1925 0.950 1_545 S
C1936 C1934 1.391 1_545 S
C1936 C1937 1.400 . S
C1937 C1931 1.491 . S
C1937 C1936 1.400 . S
C1937 C1938 1.398 . S
C1938 H1926 0.950 . S
C1938 C1937 1.398 . S
C1938 C1939 1.391 . S
C1939 H1927 0.950 . S
C1939 C1935 1.393 . S
C1939 C1938 1.391 . S
H1940 C1948 0.950 . S
H1941 C1953 0.950 . S
H1942 C1950 0.950 . S
H1943 C1952 0.950 . S
H1944 C1954 0.950 . S
H1945 C1956 0.950 . S
H1946 C1958 0.953 . S
H1947 C1959 0.950 . S
C1948 H1940 0.950 . S
C1948 C1949 1.386 . S
C1948 C1950 1.391 . S
C1949 C1948 1.386 . S
C1949 C1953 1.393 . S
C1950 H1942 0.950 . S
C1950 C1948 1.391 . S
C1950 C1951 1.400 . S
C1951 C1950 1.400 . S
C1951 C1952 1.398 . S
C1951 C1957 1.491 . S
C1952 H1943 0.950 . S
C1952 C1951 1.398 . S
C1952 C1953 1.391 . S
C1953 H1941 0.950 . S
C1953 C1949 1.393 . S
C1953 C1952 1.391 . S
C1954 H1944 0.950 . S
C1954 C1955 1.386 . S
C1954 C1956 1.391 . S
C1955 C1954 1.386 . S
C1955 C1959 1.393 1_545 S
C1956 H1945 0.950 . S
C1956 C1954 1.391 . S
C1956 C1957 1.400 . S
C1957 C1951 1.491 . S
C1957 C1956 1.400 . S
C1957 C1958 1.398 . S
C1958 H1946 0.953 . S
C1958 C1957 1.398 . S
C1958 C1959 1.391 1_545 S
C1959 H1947 0.950 . S
C1959 C1955 1.393 1_565 S
C1959 C1958 1.391 1_565 S
H1960 C1968 0.950 . S
H1961 C1973 0.950 1_545 S
H1962 C1970 0.950 . S
H1963 C1972 0.950 . S
H1964 C1974 0.950 . S
H1965 C1976 0.950 . S
H1966 C1978 0.950 . S
H1967 C1979 0.950 . S
C1968 H1960 0.950 . S
C1968 C1969 1.386 . S
C1968 C1970 1.391 . S
C1969 C1968 1.386 . S
C1969 C1973 1.393 . S
C1970 H1962 0.950 . S
C1970 C1968 1.391 . S
C1970 C1971 1.400 . S
C1971 C1970 1.400 . S
C1971 C1972 1.398 . S
C1971 C1977 1.491 . S
C1972 H1963 0.950 . S
C1972 C1971 1.398 . S
C1972 C1973 1.391 . S
C1973 H1961 0.950 1_565 S
C1973 C1969 1.393 . S
C1973 C1972 1.391 . S
C1974 H1964 0.950 . S
C1974 C1975 1.386 . S
C1974 C1976 1.391 . S
C1975 C1974 1.386 . S
C1975 C1979 1.393 . S
C1976 H1965 0.950 . S
C1976 C1974 1.391 . S
C1976 C1977 1.400 . S
C1977 C1971 1.491 . S
C1977 C1976 1.400 . S
C1977 C1978 1.398 . S
C1978 H1966 0.950 . S
C1978 C1977 1.398 . S
C1978 C1979 1.391 . S
C1979 H1967 0.950 . S
C1979 C1975 1.393 . S
C1979 C1978 1.391 . S
H1980 C1988 0.950 . S
H1981 C1993 0.950 . S
H1982 C1990 0.950 . S
H1983 C1992 0.950 . S
H1984 C1994 0.950 . S
H1985 C1996 0.950 1_545 S
H1986 C1998 0.950 . S
H1987 C1999 0.950 . S
C1988 H1980 0.950 . S
C1988 C1989 1.386 . S
C1988 C1990 1.391 . S
C1989 C1988 1.386 . S
C1989 C1993 1.393 . S
C1990 H1982 0.950 . S
C1990 C1988 1.391 . S
C1990 C1991 1.400 . S
C1991 C1990 1.400 . S
C1991 C1992 1.398 . S
C1991 C1997 1.491 . S
C1992 H1983 0.950 . S
C1992 C1991 1.398 . S
C1992 C1993 1.391 . S
C1993 H1981 0.950 . S
C1993 C1989 1.393 . S
C1993 C1992 1.391 . S
C1994 H1984 0.950 . S
C1994 C1995 1.386 1_545 S
C1994 C1996 1.391 1_545 S
C1995 C1994 1.386 1_565 S
C1995 C1999 1.393 . S
C1996 H1985 0.950 1_565 S
C1996 C1994 1.391 1_565 S
C1996 C1997 1.400 . S
C1997 C1991 1.491 . S
C1997 C1996 1.400 . S
C1997 C1998 1.398 . S
C1998 H1986 0.950 . S
C1998 C1997 1.398 . S
C1998 C1999 1.391 . S
C1999 H1987 0.950 . S
C1999 C1995 1.393 . S
C1999 C1998 1.391 . S
H2000 C2008 0.950 . S
H2001 C2013 0.950 . S
H2002 C2010 0.950 . S
H2003 C2012 0.950 . S
H2004 C2014 0.950 . S
H2005 C2016 0.950 . S
H2006 C2018 0.950 . S
H2007 C2019 0.950 1_545 S
C2008 H2000 0.950 . S
C2008 C2009 1.386 . S
C2008 C2010 1.391 . S
C2009 C2008 1.386 . S
C2009 C2013 1.393 . S
C2010 H2002 0.950 . S
C2010 C2008 1.391 . S
C2010 C2011 1.400 . S
C2011 C2010 1.400 . S
C2011 C2012 1.398 . S
C2011 C2017 1.491 . S
C2012 H2003 0.950 . S
C2012 C2011 1.398 . S
C2012 C2013 1.391 . S
C2013 H2001 0.950 . S
C2013 C2009 1.393 . S
C2013 C2012 1.391 . S
C2014 H2004 0.950 . S
C2014 C2015 1.386 . S
C2014 C2016 1.391 . S
C2015 C2014 1.386 . S
C2015 C2019 1.393 . S
C2016 H2005 0.950 . S
C2016 C2014 1.391 . S
C2016 C2017 1.400 . S
C2017 C2011 1.491 . S
C2017 C2016 1.400 . S
C2017 C2018 1.398 . S
C2018 H2006 0.950 . S
C2018 C2017 1.398 . S
C2018 C2019 1.391 . S
C2019 H2007 0.950 1_565 S
C2019 C2015 1.393 . S
C2019 C2018 1.391 . S
H2020 C2028 0.950 . S
H2021 C2033 0.950 . S
H2022 C2030 0.950 . S
H2023 C2032 0.950 1_545 S
H2024 C2034 0.950 . S
H2025 C2036 0.950 . S
H2026 C2038 0.950 . S
H2027 C2039 0.950 . S
C2028 H2020 0.950 . S
C2028 C2029 1.386 . S
C2028 C2030 1.391 . S
C2029 C2028 1.386 . S
C2029 C2033 1.393 1_565 S
C2030 H2022 0.950 . S
C2030 C2028 1.391 . S
C2030 C2031 1.400 . S
C2031 C2030 1.400 . S
C2031 C2032 1.398 . S
C2031 C2037 1.491 . S
C2032 H2023 0.950 1_565 S
C2032 C2031 1.398 . S
C2032 C2033 1.391 1_565 S
C2033 H2021 0.950 . S
C2033 C2029 1.393 1_545 S
C2033 C2032 1.391 1_545 S
C2034 H2024 0.950 . S
C2034 C2035 1.386 . S
C2034 C2036 1.391 . S
C2035 C2034 1.386 . S
C2035 C2039 1.393 . S
C2036 H2025 0.950 . S
C2036 C2034 1.391 . S
C2036 C2037 1.400 . S
C2037 C2031 1.491 . S
C2037 C2036 1.400 . S
C2037 C2038 1.398 . S
C2038 H2026 0.950 . S
C2038 C2037 1.398 . S
C2038 C2039 1.391 . S
C2039 H2027 0.950 . S
C2039 C2035 1.393 . S
C2039 C2038 1.391 . S
H2040 C2048 0.950 . S
H2041 C2053 0.950 . S
H2042 C2050 0.950 1_565 S
H2043 C2052 0.950 . S
H2044 C2054 0.950 . S
H2045 C2056 0.950 . S
H2046 C2058 0.950 . S
H2047 C2059 0.950 . S
C2048 H2040 0.950 . S
C2048 C2049 1.386 1_565 S
C2048 C2050 1.391 1_565 S
C2049 C2048 1.386 1_545 S
C2049 C2053 1.393 . S
C2050 H2042 0.950 1_545 S
C2050 C2048 1.391 1_545 S
C2050 C2051 1.400 . S
C2051 C2050 1.400 . S
C2051 C2052 1.398 . S
C2051 C2057 1.491 . S
C2052 H2043 0.950 . S
C2052 C2051 1.398 . S
C2052 C2053 1.391 . S
C2053 H2041 0.950 . S
C2053 C2049 1.393 . S
C2053 C2052 1.391 . S
C2054 H2044 0.950 . S
C2054 C2055 1.386 . S
C2054 C2056 1.391 . S
C2055 C2054 1.386 . S
C2055 C2059 1.393 . S
C2056 H2045 0.950 . S
C2056 C2054 1.391 . S
C2056 C2057 1.400 . S
C2057 C2051 1.491 . S
C2057 C2056 1.400 . S
C2057 C2058 1.398 . S
C2058 H2046 0.950 . S
C2058 C2057 1.398 . S
C2058 C2059 1.391 . S
C2059 H2047 0.950 . S
C2059 C2055 1.393 . S
C2059 C2058 1.391 . S
H2060 C2068 0.950 . S
H2061 C2073 0.950 . S
H2062 C2070 0.950 . S
H2063 C2072 0.950 . S
H2064 C2074 0.950 . S
H2065 C2076 0.950 . S
H2066 C2078 0.950 . S
H2067 C2079 0.950 . S
C2068 H2060 0.950 . S
C2068 C2069 1.386 . S
C2068 C2070 1.391 . S
C2069 C2068 1.386 . S
C2069 C2073 1.393 . S
C2070 H2062 0.950 . S
C2070 C2068 1.391 . S
C2070 C2071 1.400 . S
C2071 C2070 1.400 . S
C2071 C2072 1.398 . S
C2071 C2077 1.491 . S
C2072 H2063 0.950 . S
C2072 C2071 1.398 . S
C2072 C2073 1.391 . S
C2073 H2061 0.950 . S
C2073 C2069 1.393 . S
C2073 C2072 1.391 . S
C2074 H2064 0.950 . S
C2074 C2075 1.386 . S
C2074 C2076 1.391 . S
C2075 C2074 1.386 . S
C2075 C2079 1.393 . S
C2076 H2065 0.950 . S
C2076 C2074 1.391 . S
C2076 C2077 1.400 . S
C2077 C2071 1.491 . S
C2077 C2076 1.400 . S
C2077 C2078 1.398 . S
C2078 H2066 0.950 . S
C2078 C2077 1.398 . S
C2078 C2079 1.391 . S
C2079 H2067 0.950 . S
C2079 C2075 1.393 . S
C2079 C2078 1.391 . S
H2080 C2088 0.950 . S
H2081 C2093 0.950 . S
H2082 C2090 0.950 . S
H2083 C2092 0.950 . S
H2084 C2094 0.950 . S
H2085 C2096 0.950 . S
H2086 C2098 0.950 . S
H2087 C2099 0.950 . S
C2088 H2080 0.950 . S
C2088 C2089 1.386 . S
C2088 C2090 1.391 . S
C2089 C2088 1.386 . S
C2089 C2093 1.393 . S
C2090 H2082 0.950 . S
C2090 C2088 1.391 . S
C2090 C2091 1.400 . S
C2091 C2090 1.400 . S
C2091 C2092 1.398 . S
C2091 C2097 1.491 . S
C2092 H2083 0.950 . S
C2092 C2091 1.398 . S
C2092 C2093 1.391 . S
C2093 H2081 0.950 . S
C2093 C2089 1.393 . S
C2093 C2092 1.391 . S
C2094 H2084 0.950 . S
C2094 C2095 1.386 . S
C2094 C2096 1.391 . S
C2095 C2094 1.386 . S
C2095 C2099 1.393 . S
C2096 H2085 0.950 . S
C2096 C2094 1.391 . S
C2096 C2097 1.400 . S
C2097 C2091 1.491 . S
C2097 C2096 1.400 . S
C2097 C2098 1.398 . S
C2098 H2086 0.950 . S
C2098 C2097 1.398 . S
C2098 C2099 1.391 . S
C2099 H2087 0.950 . S
C2099 C2095 1.393 . S
C2099 C2098 1.391 . S
H2100 C2108 0.950 . S
H2101 C2113 0.950 . S
H2102 C2110 0.950 . S
H2103 C2112 0.950 . S
H2104 C2114 0.950 . S
H2105 C2116 0.950 . S
H2106 C2118 0.950 . S
H2107 C2119 0.950 . S
C2108 H2100 0.950 . S
C2108 C2109 1.386 . S
C2108 C2110 1.391 . S
C2109 C2108 1.386 . S
C2109 C2113 1.393 . S
C2110 H2102 0.950 . S
C2110 C2108 1.391 . S
C2110 C2111 1.400 . S
C2111 C2110 1.400 . S
C2111 C2112 1.398 . S
C2111 C2117 1.491 . S
C2112 H2103 0.950 . S
C2112 C2111 1.398 . S
C2112 C2113 1.391 . S
C2113 H2101 0.950 . S
C2113 C2109 1.393 . S
C2113 C2112 1.391 . S
C2114 H2104 0.950 . S
C2114 C2115 1.386 . S
C2114 C2116 1.391 . S
C2115 C2114 1.386 . S
C2115 C2119 1.393 . S
C2116 H2105 0.950 . S
C2116 C2114 1.391 . S
C2116 C2117 1.400 . S
C2117 C2111 1.491 . S
C2117 C2116 1.400 . S
C2117 C2118 1.398 . S
C2118 H2106 0.950 . S
C2118 C2117 1.398 . S
C2118 C2119 1.391 . S
C2119 H2107 0.950 . S
C2119 C2115 1.393 . S
C2119 C2118 1.391 . S
H2120 C2128 0.950 . S
H2121 C2133 0.950 . S
H2122 C2130 0.950 . S
H2123 C2132 0.950 . S
H2124 C2134 0.950 . S
H2125 C2136 0.950 . S
H2126 C2138 0.950 . S
H2127 C2139 0.950 . S
C2128 H2120 0.950 . S
C2128 C2129 1.386 . S
C2128 C2130 1.391 . S
C2129 C2128 1.386 . S
C2129 C2133 1.393 . S
C2130 H2122 0.950 . S
C2130 C2128 1.391 . S
C2130 C2131 1.400 . S
C2131 C2130 1.400 . S
C2131 C2132 1.398 . S
C2131 C2137 1.491 . S
C2132 H2123 0.950 . S
C2132 C2131 1.398 . S
C2132 C2133 1.391 . S
C2133 H2121 0.950 . S
C2133 C2129 1.393 . S
C2133 C2132 1.391 . S
C2134 H2124 0.950 . S
C2134 C2135 1.386 . S
C2134 C2136 1.391 . S
C2135 C2134 1.386 . S
C2135 C2139 1.393 . S
C2136 H2125 0.950 . S
C2136 C2134 1.391 . S
C2136 C2137 1.400 . S
C2137 C2131 1.491 . S
C2137 C2136 1.400 . S
C2137 C2138 1.398 . S
C2138 H2126 0.950 . S
C2138 C2137 1.398 . S
C2138 C2139 1.391 . S
C2139 H2127 0.950 . S
C2139 C2135 1.393 . S
C2139 C2138 1.391 . S
H2140 C2148 0.950 . S
H2141 C2153 0.950 . S
H2142 C2150 0.950 . S
H2143 C2152 0.950 . S
H2144 C2154 0.950 . S
H2145 C2156 0.950 . S
H2146 C2158 0.950 . S
H2147 C2159 0.950 . S
C2148 H2140 0.950 . S
C2148 C2149 1.386 . S
C2148 C2150 1.391 . S
C2149 C2148 1.386 . S
C2149 C2153 1.393 . S
C2150 H2142 0.950 . S
C2150 C2148 1.391 . S
C2150 C2151 1.400 . S
C2151 C2150 1.400 . S
C2151 C2152 1.398 . S
C2151 C2157 1.491 . S
C2152 H2143 0.950 . S
C2152 C2151 1.398 . S
C2152 C2153 1.391 . S
C2153 H2141 0.950 . S
C2153 C2149 1.393 . S
C2153 C2152 1.391 . S
C2154 H2144 0.950 . S
C2154 C2155 1.386 . S
C2154 C2156 1.391 . S
C2155 C2154 1.386 . S
C2155 C2159 1.393 . S
C2156 H2145 0.950 . S
C2156 C2154 1.391 . S
C2156 C2157 1.400 . S
C2157 C2151 1.491 . S
C2157 C2156 1.400 . S
C2157 C2158 1.398 . S
C2158 H2146 0.950 . S
C2158 C2157 1.398 . S
C2158 C2159 1.391 . S
C2159 H2147 0.950 . S
C2159 C2155 1.393 . S
C2159 C2158 1.391 . S
H2160 C2168 0.950 . S
H2161 C2173 0.950 . S
H2162 C2170 0.950 . S
H2163 C2172 0.950 . S
H2164 C2174 0.950 . S
H2165 C2176 0.950 . S
H2166 C2178 0.950 . S
H2167 C2179 0.950 . S
C2168 H2160 0.950 . S
C2168 C2169 1.386 . S
C2168 C2170 1.391 . S
C2169 C2168 1.386 . S
C2169 C2173 1.393 . S
C2170 H2162 0.950 . S
C2170 C2168 1.391 . S
C2170 C2171 1.400 . S
C2171 C2170 1.400 . S
C2171 C2172 1.398 . S
C2171 C2177 1.491 . S
C2172 H2163 0.950 . S
C2172 C2171 1.398 . S
C2172 C2173 1.391 . S
C2173 H2161 0.950 . S
C2173 C2169 1.393 . S
C2173 C2172 1.391 . S
C2174 H2164 0.950 . S
C2174 C2175 1.386 . S
C2174 C2176 1.391 . S
C2175 C2174 1.386 . S
C2175 C2179 1.393 . S
C2176 H2165 0.950 . S
C2176 C2174 1.391 . S
C2176 C2177 1.400 . S
C2177 C2171 1.491 . S
C2177 C2176 1.400 . S
C2177 C2178 1.398 . S
C2178 H2166 0.950 . S
C2178 C2177 1.398 . S
C2178 C2179 1.391 . S
C2179 H2167 0.950 . S
C2179 C2175 1.393 . S
C2179 C2178 1.391 . S
H2180 C2188 0.950 . S
H2181 C2193 0.950 . S
H2182 C2190 0.950 . S
H2183 C2192 0.950 . S
H2184 C2194 0.950 . S
H2185 C2196 0.950 . S
H2186 C2198 0.950 . S
H2187 C2199 0.950 . S
C2188 H2180 0.950 . S
C2188 C2189 1.386 . S
C2188 C2190 1.391 . S
C2189 C2188 1.386 . S
C2189 C2193 1.393 . S
C2190 H2182 0.950 . S
C2190 C2188 1.391 . S
C2190 C2191 1.400 . S
C2191 C2190 1.400 . S
C2191 C2192 1.398 . S
C2191 C2197 1.491 . S
C2192 H2183 0.950 . S
C2192 C2191 1.398 . S
C2192 C2193 1.391 . S
C2193 H2181 0.950 . S
C2193 C2189 1.393 . S
C2193 C2192 1.391 . S
C2194 H2184 0.950 . S
C2194 C2195 1.386 . S
C2194 C2196 1.391 . S
C2195 C2194 1.386 . S
C2195 C2199 1.393 . S
C2196 H2185 0.950 . S
C2196 C2194 1.391 . S
C2196 C2197 1.400 . S
C2197 C2191 1.491 . S
C2197 C2196 1.400 . S
C2197 C2198 1.398 . S
C2198 H2186 0.950 . S
C2198 C2197 1.398 . S
C2198 C2199 1.391 . S
C2199 H2187 0.950 . S
C2199 C2195 1.393 . S
C2199 C2198 1.391 . S
H2200 C2208 0.950 . S
H2201 C2213 0.950 . S
H2202 C2210 0.950 . S
H2203 C2212 0.950 . S
H2204 C2214 0.950 . S
H2205 C2216 0.950 . S
H2206 C2218 0.950 . S
H2207 C2219 0.950 . S
C2208 H2200 0.950 . S
C2208 C2209 1.386 . S
C2208 C2210 1.391 . S
C2209 C2208 1.386 . S
C2209 C2213 1.393 . S
C2210 H2202 0.950 . S
C2210 C2208 1.391 . S
C2210 C2211 1.400 . S
C2211 C2210 1.400 . S
C2211 C2212 1.398 . S
C2211 C2217 1.491 . S
C2212 H2203 0.950 . S
C2212 C2211 1.398 . S
C2212 C2213 1.391 . S
C2213 H2201 0.950 . S
C2213 C2209 1.393 . S
C2213 C2212 1.391 . S
C2214 H2204 0.950 . S
C2214 C2215 1.386 . S
C2214 C2216 1.391 . S
C2215 C2214 1.386 . S
C2215 C2219 1.393 . S
C2216 H2205 0.950 . S
C2216 C2214 1.391 . S
C2216 C2217 1.400 . S
C2217 C2211 1.491 . S
C2217 C2216 1.400 . S
C2217 C2218 1.398 . S
C2218 H2206 0.950 . S
C2218 C2217 1.398 . S
C2218 C2219 1.391 . S
C2219 H2207 0.950 . S
C2219 C2215 1.393 . S
C2219 C2218 1.391 . S
H2220 C2228 0.950 . S
H2221 C2233 0.950 . S
H2222 C2230 0.950 . S
H2223 C2232 0.950 . S
H2224 C2234 0.950 . S
H2225 C2236 0.950 . S
H2226 C2238 0.950 . S
H2227 C2239 0.950 . S
C2228 H2220 0.950 . S
C2228 C2229 1.386 . S
C2228 C2230 1.391 . S
C2229 C2228 1.386 . S
C2229 C2233 1.393 . S
C2230 H2222 0.950 . S
C2230 C2228 1.391 . S
C2230 C2231 1.400 . S
C2231 C2230 1.400 . S
C2231 C2232 1.398 . S
C2231 C2237 1.491 . S
C2232 H2223 0.950 . S
C2232 C2231 1.398 . S
C2232 C2233 1.391 . S
C2233 H2221 0.950 . S
C2233 C2229 1.393 . S
C2233 C2232 1.391 . S
C2234 H2224 0.950 . S
C2234 C2235 1.386 . S
C2234 C2236 1.391 . S
C2235 C2234 1.386 . S
C2235 C2239 1.393 . S
C2236 H2225 0.950 . S
C2236 C2234 1.391 . S
C2236 C2237 1.400 . S
C2237 C2231 1.491 . S
C2237 C2236 1.400 . S
C2237 C2238 1.398 . S
C2238 H2226 0.950 . S
C2238 C2237 1.398 . S
C2238 C2239 1.391 . S
C2239 H2227 0.950 . S
C2239 C2235 1.393 . S
C2239 C2238 1.391 . S
H2240 C2248 0.950 . S
H2241 C2253 0.950 . S
H2242 C2250 0.950 . S
H2243 C2252 0.950 1_565 S
H2244 C2254 0.950 . S
H2245 C2256 0.950 . S
H2246 C2258 0.950 1_545 S
H2247 C2259 0.950 . S
C2248 H2240 0.950 . S
C2248 C2249 1.386 . S
C2248 C2250 1.391 . S
C2249 C2248 1.386 . S
C2249 C2253 1.393 . S
C2250 H2242 0.950 . S
C2250 C2248 1.391 . S
C2250 C2251 1.400 . S
C2251 C2250 1.400 . S
C2251 C2252 1.398 . S
C2251 C2257 1.491 1_545 S
C2252 H2243 0.950 1_545 S
C2252 C2251 1.398 . S
C2252 C2253 1.391 . S
C2253 H2241 0.950 . S
C2253 C2249 1.393 . S
C2253 C2252 1.391 . S
C2254 H2244 0.950 . S
C2254 C2255 1.386 . S
C2254 C2256 1.391 . S
C2255 C2254 1.386 . S
C2255 C2259 1.393 . S
C2256 H2245 0.950 . S
C2256 C2254 1.391 . S
C2256 C2257 1.400 . S
C2257 C2251 1.491 1_565 S
C2257 C2256 1.400 . S
C2257 C2258 1.398 . S
C2258 H2246 0.950 1_565 S
C2258 C2257 1.398 . S
C2258 C2259 1.391 . S
C2259 H2247 0.950 . S
C2259 C2255 1.393 . S
C2259 C2258 1.391 . S
H2260 C2268 0.950 . S
H2261 C2273 0.950 . S
H2262 C2270 0.950 . S
H2263 C2272 0.950 . S
H2264 C2274 0.950 . S
H2265 C2276 0.950 . S
H2266 C2278 0.950 . S
H2267 C2279 0.950 . S
C2268 H2260 0.950 . S
C2268 C2269 1.386 . S
C2268 C2270 1.391 . S
C2269 C2268 1.386 . S
C2269 C2273 1.393 . S
C2270 H2262 0.950 . S
C2270 C2268 1.391 . S
C2270 C2271 1.400 . S
C2271 C2270 1.400 . S
C2271 C2272 1.398 . S
C2271 C2277 1.491 . S
C2272 H2263 0.950 . S
C2272 C2271 1.398 . S
C2272 C2273 1.391 . S
C2273 H2261 0.950 . S
C2273 C2269 1.393 . S
C2273 C2272 1.391 . S
C2274 H2264 0.950 . S
C2274 C2275 1.386 . S
C2274 C2276 1.391 . S
C2275 C2274 1.386 . S
C2275 C2279 1.393 . S
C2276 H2265 0.950 . S
C2276 C2274 1.391 . S
C2276 C2277 1.400 . S
C2277 C2271 1.491 . S
C2277 C2276 1.400 . S
C2277 C2278 1.398 . S
C2278 H2266 0.950 . S
C2278 C2277 1.398 . S
C2278 C2279 1.391 . S
C2279 H2267 0.950 . S
C2279 C2275 1.393 . S
C2279 C2278 1.391 . S
H2280 C2288 0.950 . S
H2281 C2293 0.950 . S
H2282 C2290 0.950 . S
H2283 C2292 0.950 1_565 S
H2284 C2294 0.950 . S
H2285 C2296 0.950 . S
H2286 C2298 0.950 1_545 S
H2287 C2299 0.950 . S
C2288 H2280 0.950 . S
C2288 C2289 1.386 . S
C2288 C2290 1.391 . S
C2289 C2288 1.386 . S
C2289 C2293 1.393 . S
C2290 H2282 0.950 . S
C2290 C2288 1.391 . S
C2290 C2291 1.400 . S
C2291 C2290 1.400 . S
C2291 C2292 1.398 . S
C2291 C2297 1.491 1_545 S
C2292 H2283 0.950 1_545 S
C2292 C2291 1.398 . S
C2292 C2293 1.391 . S
C2293 H2281 0.950 . S
C2293 C2289 1.393 . S
C2293 C2292 1.391 . S
C2294 H2284 0.950 . S
C2294 C2295 1.386 . S
C2294 C2296 1.391 . S
C2295 C2294 1.386 . S
C2295 C2299 1.393 . S
C2296 H2285 0.950 . S
C2296 C2294 1.391 . S
C2296 C2297 1.400 . S
C2297 C2291 1.491 1_565 S
C2297 C2296 1.400 . S
C2297 C2298 1.398 . S
C2298 H2286 0.950 1_565 S
C2298 C2297 1.398 . S
C2298 C2299 1.391 . S
C2299 H2287 0.950 . S
C2299 C2295 1.393 . S
C2299 C2298 1.391 . S
H2300 C2308 0.950 . S
H2301 C2313 0.950 . S
H2302 C2310 0.950 . S
H2303 C2312 0.950 1_554 S
H2304 C2314 0.950 . S
H2305 C2316 0.950 . S
H2306 C2318 0.950 1_556 S
H2307 C2319 0.950 . S
C2308 H2300 0.950 . S
C2308 C2309 1.386 . S
C2308 C2310 1.391 . S
C2309 C2308 1.386 . S
C2309 C2313 1.393 . S
C2310 H2302 0.950 . S
C2310 C2308 1.391 . S
C2310 C2311 1.400 . S
C2311 C2310 1.400 . S
C2311 C2312 1.398 . S
C2311 C2317 1.491 1_556 S
C2312 H2303 0.950 1_556 S
C2312 C2311 1.398 . S
C2312 C2313 1.391 . S
C2313 H2301 0.950 . S
C2313 C2309 1.393 . S
C2313 C2312 1.391 . S
C2314 H2304 0.950 . S
C2314 C2315 1.386 . S
C2314 C2316 1.391 . S
C2315 C2314 1.386 . S
C2315 C2319 1.393 . S
C2316 H2305 0.950 . S
C2316 C2314 1.391 . S
C2316 C2317 1.400 . S
C2317 C2311 1.491 1_554 S
C2317 C2316 1.400 . S
C2317 C2318 1.398 . S
C2318 H2306 0.950 1_554 S
C2318 C2317 1.398 . S
C2318 C2319 1.391 . S
C2319 H2307 0.950 . S
C2319 C2315 1.393 . S
C2319 C2318 1.391 . S
H2320 C2328 0.950 . S
H2321 C2333 0.950 . S
H2322 C2330 0.950 . S
H2323 C2332 0.950 1_545 S
H2324 C2334 0.950 . S
H2325 C2336 0.950 . S
H2326 C2338 0.950 1_565 S
H2327 C2339 0.950 . S
C2328 H2320 0.950 . S
C2328 C2329 1.386 . S
C2328 C2330 1.391 . S
C2329 C2328 1.386 . S
C2329 C2333 1.393 . S
C2330 H2322 0.950 . S
C2330 C2328 1.391 . S
C2330 C2331 1.400 . S
C2331 C2330 1.400 . S
C2331 C2332 1.398 . S
C2331 C2337 1.491 1_565 S
C2332 H2323 0.950 1_565 S
C2332 C2331 1.398 . S
C2332 C2333 1.391 . S
C2333 H2321 0.950 . S
C2333 C2329 1.393 . S
C2333 C2332 1.391 . S
C2334 H2324 0.950 . S
C2334 C2335 1.386 . S
C2334 C2336 1.391 . S
C2335 C2334 1.386 . S
C2335 C2339 1.393 . S
C2336 H2325 0.950 . S
C2336 C2334 1.391 . S
C2336 C2337 1.400 . S
C2337 C2331 1.491 1_545 S
C2337 C2336 1.400 . S
C2337 C2338 1.398 . S
C2338 H2326 0.950 1_545 S
C2338 C2337 1.398 . S
C2338 C2339 1.391 . S
C2339 H2327 0.950 . S
C2339 C2335 1.393 . S
C2339 C2338 1.391 . S
H2340 C2348 0.950 . S
H2341 C2353 0.950 . S
H2342 C2350 0.950 . S
H2343 C2352 0.950 . S
H2344 C2354 0.950 . S
H2345 C2356 0.950 . S
H2346 C2358 0.950 . S
H2347 C2359 0.950 . S
C2348 H2340 0.950 . S
C2348 C2349 1.386 . S
C2348 C2350 1.391 . S
C2349 C2348 1.386 . S
C2349 C2353 1.393 . S
C2350 H2342 0.950 . S
C2350 C2348 1.391 . S
C2350 C2351 1.400 . S
C2351 C2350 1.400 . S
C2351 C2352 1.398 . S
C2351 C2357 1.491 . S
C2352 H2343 0.950 . S
C2352 C2351 1.398 . S
C2352 C2353 1.391 . S
C2353 H2341 0.950 . S
C2353 C2349 1.393 . S
C2353 C2352 1.391 . S
C2354 H2344 0.950 . S
C2354 C2355 1.386 . S
C2354 C2356 1.391 . S
C2355 C2354 1.386 . S
C2355 C2359 1.393 . S
C2356 H2345 0.950 . S
C2356 C2354 1.391 . S
C2356 C2357 1.400 . S
C2357 C2351 1.491 . S
C2357 C2356 1.400 . S
C2357 C2358 1.398 . S
C2358 H2346 0.950 . S
C2358 C2357 1.398 . S
C2358 C2359 1.391 . S
C2359 H2347 0.950 . S
C2359 C2355 1.393 . S
C2359 C2358 1.391 . S
H2360 C2368 0.950 . S
H2361 C2373 0.950 . S
H2362 C2370 0.928 1_545 S
H2363 C2372 0.950 . S
H2364 C2374 0.950 . S
H2365 C2376 0.928 1_565 S
H2366 C2378 0.950 . S
H2367 C2379 0.950 . S
C2368 H2360 0.950 . S
C2368 C2369 1.386 . S
C2368 C2370 1.391 . S
C2369 C2368 1.386 . S
C2369 C2373 1.393 . S
C2370 H2362 0.928 1_565 S
C2370 C2368 1.391 . S
C2370 C2371 1.400 . S
C2371 C2370 1.400 . S
C2371 C2372 1.398 . S
C2371 C2377 1.491 1_565 S
C2372 H2363 0.950 . S
C2372 C2371 1.398 . S
C2372 C2373 1.391 . S
C2373 H2361 0.950 . S
C2373 C2369 1.393 . S
C2373 C2372 1.391 . S
C2374 H2364 0.950 . S
C2374 C2375 1.386 . S
C2374 C2376 1.391 . S
C2375 C2374 1.386 . S
C2375 C2379 1.393 . S
C2376 H2365 0.928 1_545 S
C2376 C2374 1.391 . S
C2376 C2377 1.400 . S
C2377 C2371 1.491 1_545 S
C2377 C2376 1.400 . S
C2377 C2378 1.398 . S
C2378 H2366 0.950 . S
C2378 C2377 1.398 . S
C2378 C2379 1.391 . S
C2379 H2367 0.950 . S
C2379 C2375 1.393 . S
C2379 C2378 1.391 . S
H2380 C2388 0.950 . S
H2381 C2393 0.950 . S
H2382 C2390 0.950 1_556 S
H2383 C2392 0.950 . S
H2384 C2394 0.950 . S
H2385 C2396 0.950 1_554 S
H2386 C2398 0.950 . S
H2387 C2399 0.950 . S
C2388 H2380 0.950 . S
C2388 C2389 1.386 . S
C2388 C2390 1.391 . S
C2389 C2388 1.386 . S
C2389 C2393 1.393 . S
C2390 H2382 0.950 1_554 S
C2390 C2388 1.391 . S
C2390 C2391 1.400 . S
C2391 C2390 1.400 . S
C2391 C2392 1.398 . S
C2391 C2397 1.491 1_554 S
C2392 H2383 0.950 . S
C2392 C2391 1.398 . S
C2392 C2393 1.391 . S
C2393 H2381 0.950 . S
C2393 C2389 1.393 . S
C2393 C2392 1.391 . S
C2394 H2384 0.950 . S
C2394 C2395 1.386 . S
C2394 C2396 1.391 . S
C2395 C2394 1.386 . S
C2395 C2399 1.393 . S
C2396 H2385 0.950 1_556 S
C2396 C2394 1.391 . S
C2396 C2397 1.400 . S
C2397 C2391 1.491 1_556 S
C2397 C2396 1.400 . S
C2397 C2398 1.398 . S
C2398 H2386 0.950 . S
C2398 C2397 1.398 . S
C2398 C2399 1.391 . S
C2399 H2387 0.950 . S
C2399 C2395 1.393 . S
C2399 C2398 1.391 . S
H2400 C2408 0.950 . S
H2401 C2413 0.950 . S
H2402 C2410 0.950 . S
H2403 C2412 0.950 . S
H2404 C2414 0.950 . S
H2405 C2416 0.950 . S
H2406 C2418 0.950 . S
H2407 C2419 0.950 . S
C2408 H2400 0.950 . S
C2408 C2409 1.386 . S
C2408 C2410 1.391 . S
C2409 C2408 1.386 . S
C2409 C2413 1.393 . S
C2410 H2402 0.950 . S
C2410 C2408 1.391 . S
C2410 C2411 1.400 . S
C2411 C2410 1.400 . S
C2411 C2412 1.398 . S
C2411 C2417 1.491 . S
C2412 H2403 0.950 . S
C2412 C2411 1.398 . S
C2412 C2413 1.391 . S
C2413 H2401 0.950 . S
C2413 C2409 1.393 . S
C2413 C2412 1.391 . S
C2414 H2404 0.950 . S
C2414 C2415 1.386 . S
C2414 C2416 1.391 . S
C2415 C2414 1.386 . S
C2415 C2419 1.393 . S
C2416 H2405 0.950 . S
C2416 C2414 1.391 . S
C2416 C2417 1.400 . S
C2417 C2411 1.491 . S
C2417 C2416 1.400 . S
C2417 C2418 1.398 . S
C2418 H2406 0.950 . S
C2418 C2417 1.398 . S
C2418 C2419 1.391 . S
C2419 H2407 0.950 . S
C2419 C2415 1.393 . S
C2419 C2418 1.391 . S
H2420 C2428 0.950 . S
H2421 C2433 0.950 . S
H2422 C2430 0.950 . S
H2423 C2432 0.950 . S
H2424 C2434 0.950 . S
H2425 C2436 0.950 . S
H2426 C2438 0.950 . S
H2427 C2439 0.950 . S
C2428 H2420 0.950 . S
C2428 C2429 1.386 . S
C2428 C2430 1.391 . S
C2429 C2428 1.386 . S
C2429 C2433 1.393 . S
C2430 H2422 0.950 . S
C2430 C2428 1.391 . S
C2430 C2431 1.400 . S
C2431 C2430 1.400 . S
C2431 C2432 1.398 . S
C2431 C2437 1.491 1_556 S
C2432 H2423 0.950 . S
C2432 C2431 1.398 . S
C2432 C2433 1.391 . S
C2433 H2421 0.950 . S
C2433 C2429 1.393 . S
C2433 C2432 1.391 . S
C2434 H2424 0.950 . S
C2434 C2435 1.386 . S
C2434 C2436 1.391 . S
C2435 C2434 1.386 . S
C2435 C2439 1.393 . S
C2436 H2425 0.950 . S
C2436 C2434 1.391 . S
C2436 C2437 1.400 . S
C2437 C2431 1.491 1_554 S
C2437 C2436 1.400 . S
C2437 C2438 1.398 . S
C2438 H2426 0.950 . S
C2438 C2437 1.398 . S
C2438 C2439 1.391 . S
C2439 H2427 0.950 . S
C2439 C2435 1.393 . S
C2439 C2438 1.391 . S
H2440 C2448 0.950 . S
H2441 C2453 0.950 . S
H2442 C2450 0.950 . S
H2443 C2452 0.950 . S
H2444 C2454 0.950 . S
H2445 C2456 0.950 . S
H2446 C2458 0.950 . S
H2447 C2459 0.950 . S
C2448 H2440 0.950 . S
C2448 C2449 1.386 . S
C2448 C2450 1.391 . S
C2449 C2448 1.386 . S
C2449 C2453 1.393 . S
C2450 H2442 0.950 . S
C2450 C2448 1.391 . S
C2450 C2451 1.400 . S
C2451 C2450 1.400 . S
C2451 C2452 1.398 . S
C2451 C2457 1.491 . S
C2452 H2443 0.950 . S
C2452 C2451 1.398 . S
C2452 C2453 1.391 . S
C2453 H2441 0.950 . S
C2453 C2449 1.393 . S
C2453 C2452 1.391 . S
C2454 H2444 0.950 . S
C2454 C2455 1.386 . S
C2454 C2456 1.391 . S
C2455 C2454 1.386 . S
C2455 C2459 1.393 . S
C2456 H2445 0.950 . S
C2456 C2454 1.391 . S
C2456 C2457 1.400 . S
C2457 C2451 1.491 . S
C2457 C2456 1.400 . S
C2457 C2458 1.398 . S
C2458 H2446 0.950 . S
C2458 C2457 1.398 . S
C2458 C2459 1.391 . S
C2459 H2447 0.950 . S
C2459 C2455 1.393 . S
C2459 C2458 1.391 . S
H2460 C2468 0.950 . S
H2461 C2473 0.950 . S
H2462 C2470 0.950 . S
H2463 C2472 0.950 . S
H2464 C2474 0.950 . S
H2465 C2476 0.950 . S
H2466 C2478 0.950 . S
H2467 C2479 0.950 . S
C2468 H2460 0.950 . S
C2468 C2469 1.386 . S
C2468 C2470 1.391 . S
C2469 C2468 1.386 . S
C2469 C2473 1.393 . S
C2470 H2462 0.950 . S
C2470 C2468 1.391 . S
C2470 C2471 1.400 . S
C2471 C2470 1.400 . S
C2471 C2472 1.398 . S
C2471 C2477 1.491 . S
C2472 H2463 0.950 . S
C2472 C2471 1.398 . S
C2472 C2473 1.391 . S
C2473 H2461 0.950 . S
C2473 C2469 1.393 . S
C2473 C2472 1.391 . S
C2474 H2464 0.950 . S
C2474 C2475 1.386 . S
C2474 C2476 1.391 . S
C2475 C2474 1.386 . S
C2475 C2479 1.393 . S
C2476 H2465 0.950 . S
C2476 C2474 1.391 . S
C2476 C2477 1.400 . S
C2477 C2471 1.491 . S
C2477 C2476 1.400 . S
C2477 C2478 1.398 . S
C2478 H2466 0.950 . S
C2478 C2477 1.398 . S
C2478 C2479 1.391 . S
C2479 H2467 0.950 . S
C2479 C2475 1.393 . S
C2479 C2478 1.391 . S
H2480 C2488 0.950 . S
H2481 C2493 0.950 . S
H2482 C2490 0.950 . S
H2483 C2492 0.950 . S
H2484 C2494 0.950 . S
H2485 C2496 0.950 . S
H2486 C2498 0.950 . S
H2487 C2499 0.950 . S
C2488 H2480 0.950 . S
C2488 C2489 1.386 . S
C2488 C2490 1.391 . S
C2489 C2488 1.386 . S
C2489 C2493 1.393 . S
C2490 H2482 0.950 . S
C2490 C2488 1.391 . S
C2490 C2491 1.400 . S
C2491 C2490 1.400 . S
C2491 C2492 1.398 . S
C2491 C2497 1.491 . S
C2492 H2483 0.950 . S
C2492 C2491 1.398 . S
C2492 C2493 1.391 . S
C2493 H2481 0.950 . S
C2493 C2489 1.393 . S
C2493 C2492 1.391 . S
C2494 H2484 0.950 . S
C2494 C2495 1.386 . S
C2494 C2496 1.391 . S
C2495 C2494 1.386 . S
C2495 C2499 1.393 . S
C2496 H2485 0.950 . S
C2496 C2494 1.391 . S
C2496 C2497 1.400 . S
C2497 C2491 1.491 . S
C2497 C2496 1.400 . S
C2497 C2498 1.398 . S
C2498 H2486 0.950 . S
C2498 C2497 1.398 . S
C2498 C2499 1.391 . S
C2499 H2487 0.950 . S
C2499 C2495 1.393 . S
C2499 C2498 1.391 . S
H2500 C2508 0.950 . S
H2501 C2513 0.950 . S
H2502 C2510 0.950 . S
H2503 C2512 0.950 1_554 S
H2504 C2514 0.950 . S
H2505 C2516 0.950 . S
H2506 C2518 0.950 1_556 S
H2507 C2519 0.950 . S
C2508 H2500 0.950 . S
C2508 C2509 1.386 . S
C2508 C2510 1.391 . S
C2509 C2508 1.386 . S
C2509 C2513 1.393 . S
C2510 H2502 0.950 . S
C2510 C2508 1.391 . S
C2510 C2511 1.400 . S
C2511 C2510 1.400 . S
C2511 C2512 1.398 . S
C2511 C2517 1.491 1_556 S
C2512 H2503 0.950 1_556 S
C2512 C2511 1.398 . S
C2512 C2513 1.391 . S
C2513 H2501 0.950 . S
C2513 C2509 1.393 . S
C2513 C2512 1.391 . S
C2514 H2504 0.950 . S
C2514 C2515 1.386 . S
C2514 C2516 1.391 . S
C2515 C2514 1.386 . S
C2515 C2519 1.393 . S
C2516 H2505 0.950 . S
C2516 C2514 1.391 . S
C2516 C2517 1.400 . S
C2517 C2511 1.491 1_554 S
C2517 C2516 1.400 . S
C2517 C2518 1.398 . S
C2518 H2506 0.950 1_554 S
C2518 C2517 1.398 . S
C2518 C2519 1.391 . S
C2519 H2507 0.950 . S
C2519 C2515 1.393 . S
C2519 C2518 1.391 . S
H2520 C2528 0.950 . S
H2521 C2533 0.950 . S
H2522 C2530 0.950 . S
H2523 C2532 0.950 . S
H2524 C2534 0.950 . S
H2525 C2536 0.950 . S
H2526 C2538 0.950 . S
H2527 C2539 0.950 . S
C2528 H2520 0.950 . S
C2528 C2529 1.386 . S
C2528 C2530 1.391 . S
C2529 C2528 1.386 . S
C2529 C2533 1.393 . S
C2530 H2522 0.950 . S
C2530 C2528 1.391 . S
C2530 C2531 1.400 . S
C2531 C2530 1.400 . S
C2531 C2532 1.398 . S
C2531 C2537 1.491 . S
C2532 H2523 0.950 . S
C2532 C2531 1.398 . S
C2532 C2533 1.391 . S
C2533 H2521 0.950 . S
C2533 C2529 1.393 . S
C2533 C2532 1.391 . S
C2534 H2524 0.950 . S
C2534 C2535 1.386 . S
C2534 C2536 1.391 . S
C2535 C2534 1.386 . S
C2535 C2539 1.393 . S
C2536 H2525 0.950 . S
C2536 C2534 1.391 . S
C2536 C2537 1.400 . S
C2537 C2531 1.491 . S
C2537 C2536 1.400 . S
C2537 C2538 1.398 . S
C2538 H2526 0.950 . S
C2538 C2537 1.398 . S
C2538 C2539 1.391 . S
C2539 H2527 0.950 . S
C2539 C2535 1.393 . S
C2539 C2538 1.391 . S
H2540 C2548 0.950 . S
H2541 C2553 0.950 . S
H2542 C2550 0.950 . S
H2543 C2552 0.950 . S
H2544 C2554 0.950 . S
H2545 C2556 0.950 . S
H2546 C2558 0.950 . S
H2547 C2559 0.950 . S
C2548 H2540 0.950 . S
C2548 C2549 1.386 . S
C2548 C2550 1.391 . S
C2549 C2548 1.386 . S
C2549 C2553 1.393 . S
C2550 H2542 0.950 . S
C2550 C2548 1.391 . S
C2550 C2551 1.400 . S
C2551 C2550 1.400 . S
C2551 C2552 1.398 . S
C2551 C2557 1.491 . S
C2552 H2543 0.950 . S
C2552 C2551 1.398 . S
C2552 C2553 1.391 . S
C2553 H2541 0.950 . S
C2553 C2549 1.393 . S
C2553 C2552 1.391 . S
C2554 H2544 0.950 . S
C2554 C2555 1.386 . S
C2554 C2556 1.391 . S
C2555 C2554 1.386 . S
C2555 C2559 1.393 . S
C2556 H2545 0.950 . S
C2556 C2554 1.391 . S
C2556 C2557 1.400 . S
C2557 C2551 1.491 . S
C2557 C2556 1.400 . S
C2557 C2558 1.398 . S
C2558 H2546 0.950 . S
C2558 C2557 1.398 . S
C2558 C2559 1.391 . S
C2559 H2547 0.950 . S
C2559 C2555 1.393 . S
C2559 C2558 1.391 . S
C649 C12 0.385 . S
C655 C542 0.478 . S
C669 C32 0.473 . S
C675 C162 0.424 . S
C689 C52 0.436 . S
C695 C502 0.480 . S
C709 C202 0.411 . S
C715 C72 0.455 . S
C729 C92 0.473 . S
C735 C582 0.423 . S
C749 C282 0.501 . S
C755 C112 0.387 . S
C769 C622 0.499 . S
C775 C132 0.405 . S
C789 C152 0.457 . S
C795 C242 0.410 . S
C809 C169 0.384 . S
C815 C384 0.500 . S
C829 C189 0.439 . S
C835 C4 0.478 . S
C849 C344 0.488 . S
C855 C209 0.381 . S
C869 C44 0.464 . S
C875 C229 0.452 . S
C889 C249 0.464 . S
C895 C424 0.447 . S
C909 C269 0.473 . S
C915 C124 0.421 . S
C929 C289 0.472 . S
C935 C464 0.427 . S
C949 C84 0.497 . S
C955 C309 0.381 . S
C969 C222 0.437 . S
C975 C332 0.469 . S
C989 C482 0.413 . S
C995 C352 0.450 . S
C1009 C182 0.499 . S
C1015 C372 0.383 . S
C1029 C392 0.472 . S
C1035 C522 0.428 . S
C1049 C262 0.436 . S
C1055 C412 0.420 . S
C1069 C602 0.409 . S
C1075 C432 0.466 . S
C1089 C302 0.481 . S
C1095 C452 0.434 . S
C1109 C472 0.391 . S
C1115 C562 0.468 . S
C1129 C489 0.467 . S
C1135 C64 0.442 . S
C1149 C509 0.419 . S
C1155 C324 0.437 . S
C1169 C529 0.427 . S
C1175 C24 0.487 . S
C1189 C549 0.471 . S
C1195 C364 0.412 . S
C1209 C104 0.413 . S
C1215 C569 0.471 . S
C1229 C444 0.417 . S
C1235 C589 0.473 . S
C1249 C609 0.408 . S
C1255 C144 0.497 . S
C1269 C629 0.384 . S
C1275 C404 0.479 . S
C1289 C19 2.023 . S
C1295 C379 2.022 . S
C1309 C399 2.023 . S
C1315 C39 2.021 . S
C1329 C59 2.022 . S
C1335 C339 2.023 . S
C1349 C79 2.021 . S
C1355 C359 2.023 . S
C1369 C459 2.022 . S
C1375 C99 2.022 . S
C1389 C119 2.023 . S
C1395 C479 2.021 . S
C1409 C419 2.022 . S
C1415 C139 2.023 . S
C1429 C159 2.023 . S
C1435 C439 2.021 . S
C1449 C538 2.023 . S
C1455 C178 2.021 . S
C1469 C198 2.023 . S
C1475 C558 2.021 . S
C1489 C218 2.023 . S
C1495 C498 2.022 . S
C1509 C238 2.021 . S
C1515 C518 2.023 . S
C1529 C618 2.021 . S
C1535 C258 2.023 . S
C1549 C638 2.023 . S
C1555 C278 2.021 . S
C1569 C298 2.022 . S
C1575 C578 2.022 . S
C1589 C318 2.023 . S
C1595 C598 2.021 . S
C1609 C2 1.354 . S
C1615 C484 1.354 . S
C1629 C184 1.387 . S
C1635 C22 1.387 . S
C1649 C42 1.353 . S
C1655 C524 1.353 . S
C1669 C62 1.366 . S
C1675 C224 1.366 . S
C1689 C564 1.375 . S
C1695 C82 1.375 . S
C1709 C264 1.387 . S
C1715 C102 1.387 . S
C1729 C122 1.378 . S
C1735 C604 1.378 . S
C1749 C142 1.369 . S
C1755 C304 1.369 . S
C1769 C322 1.366 . S
C1775 C164 1.366 . S
C1789 C362 1.353 . S
C1795 C204 1.353 . S
C1809 C402 1.388 . S
C1815 C244 1.388 . S
C1829 C284 1.384 . S
C1835 C442 1.384 . S
C1849 C342 1.377 . S
C1855 C504 1.377 . S
C1869 C382 1.364 . S
C1875 C544 1.364 . S
C1889 C584 1.391 . S
C1895 C422 1.391 . S
C1909 C624 1.379 . S
C1915 C462 1.379 . S
C1929 C18 3.317 . S
C1935 C118 3.323 1_545 S
C1949 C138 3.332 . S
C1955 C38 3.331 1_545 S
C1969 C158 3.330 1_565 S
C1975 C58 3.322 . S
C1989 C98 3.318 . S
C1995 C78 3.326 1_565 S
C2009 C179 3.324 . S
C2015 C279 3.317 1_565 S
C2029 C199 3.327 1_565 S
C2035 C299 3.332 . S
C2049 C319 3.319 1_545 S
C2055 C219 3.317 . S
C2069 C239 3.332 1_545 S
C2075 C259 3.326 . S
C2089 C338 3.319 . S
C2095 C438 3.317 . S
C2109 C358 3.325 . S
C2115 C458 3.318 . S
C2129 C378 3.318 . S
C2135 C478 3.318 . S
C2149 C418 3.317 . S
C2155 C398 3.322 . S
C2169 C499 3.333 . S
C2175 C599 3.327 . S
C2189 C519 3.317 . S
C2195 C619 3.320 . S
C2209 C639 3.333 . S
C2215 C539 3.328 . S
C2229 C559 3.325 . S
C2235 C579 3.332 . S
C2249 C9 1.698 . S
C2255 C89 1.710 . S
C2269 C29 1.712 . S
C2275 C109 1.712 . S
C2289 C129 1.702 . S
C2295 C49 1.715 . S
C2309 C149 1.706 . S
C2315 C69 1.698 . S
C2329 C172 1.714 . S
C2335 C252 1.708 . S
C2349 C272 1.701 . S
C2355 C192 1.701 . S
C2369 C292 1.699 . S
C2375 C212 1.704 . S
C2389 C312 1.709 . S
C2395 C232 1.697 . S
C2409 C329 1.711 . S
C2415 C409 1.712 . S
C2429 C429 1.713 . S
C2435 C349 1.710 . S
C2449 C369 1.698 . S
C2455 C449 1.706 . S
C2469 C469 1.698 . S
C2475 C389 1.710 . S
C2489 C572 1.709 . S
C2495 C492 1.714 . S
C2509 C512 1.698 . S
C2515 C592 1.706 . S
C2529 C532 1.707 . S
C2535 C612 1.697 . S
C2549 C552 1.699 . S
C2555 C632 1.713 . S
