# Generated by pormake.
# Topology wip, (6)-cn, num edge types: 1
# Building blocks:
#     Node 0, Type 0, BuildingBlock: INOVEN_clean_sbu_0, # of connection points: 6
#     Node 1, Type 0, BuildingBlock: INOVEN_clean_sbu_0, # of connection points: 6
#     Node 2, Type 0, BuildingBlock: INOVEN_clean_sbu_0, # of connection points: 6
#     Node 3, Type 0, BuildingBlock: INOVEN_clean_sbu_0, # of connection points: 6
#     Node 4, Type 0, BuildingBlock: INOVEN_clean_sbu_0, # of connection points: 6
#     Node 5, Type 0, BuildingBlock: INOVEN_clean_sbu_0, # of connection points: 6
#     Node 6, Type 0, BuildingBlock: INOVEN_clean_sbu_0, # of connection points: 6
#     Node 7, Type 0, BuildingBlock: INOVEN_clean_sbu_0, # of connection points: 6
#     Node 8, Type 0, BuildingBlock: INOVEN_clean_sbu_0, # of connection points: 6
#     Node 9, Type 0, BuildingBlock: INOVEN_clean_sbu_0, # of connection points: 6
#     Node 10, Type 0, BuildingBlock: INOVEN_clean_sbu_0, # of connection points: 6
#     Node 11, Type 0, BuildingBlock: INOVEN_clean_sbu_0, # of connection points: 6
#     Node 12, Type 0, BuildingBlock: INOVEN_clean_sbu_0, # of connection points: 6
#     Node 13, Type 0, BuildingBlock: INOVEN_clean_sbu_0, # of connection points: 6
#     Node 14, Type 0, BuildingBlock: INOVEN_clean_sbu_0, # of connection points: 6
#     Node 15, Type 0, BuildingBlock: INOVEN_clean_sbu_0, # of connection points: 6
#     Node 16, Type 0, BuildingBlock: INOVEN_clean_sbu_0, # of connection points: 6
#     Node 17, Type 0, BuildingBlock: INOVEN_clean_sbu_0, # of connection points: 6
#     Node 18, Type 0, BuildingBlock: INOVEN_clean_sbu_0, # of connection points: 6
#     Node 19, Type 0, BuildingBlock: INOVEN_clean_sbu_0, # of connection points: 6
#     Node 20, Type 0, BuildingBlock: INOVEN_clean_sbu_0, # of connection points: 6
#     Node 21, Type 0, BuildingBlock: INOVEN_clean_sbu_0, # of connection points: 6
#     Node 22, Type 0, BuildingBlock: INOVEN_clean_sbu_0, # of connection points: 6
#     Node 23, Type 0, BuildingBlock: INOVEN_clean_sbu_0, # of connection points: 6
#     Node 24, Type 0, BuildingBlock: INOVEN_clean_sbu_0, # of connection points: 6
#     Node 25, Type 0, BuildingBlock: INOVEN_clean_sbu_0, # of connection points: 6
#     Node 26, Type 0, BuildingBlock: INOVEN_clean_sbu_0, # of connection points: 6
#     Node 27, Type 0, BuildingBlock: INOVEN_clean_sbu_0, # of connection points: 6
#     Node 28, Type 0, BuildingBlock: INOVEN_clean_sbu_0, # of connection points: 6
#     Node 29, Type 0, BuildingBlock: INOVEN_clean_sbu_0, # of connection points: 6
#     Node 30, Type 0, BuildingBlock: INOVEN_clean_sbu_0, # of connection points: 6
#     Node 31, Type 0, BuildingBlock: INOVEN_clean_sbu_0, # of connection points: 6
#     Edge 32, Type (0, 0), BuildingBlock: AJUNOK_clean_linker_0, # of connection points: 2
#     Edge 33, Type (0, 0), BuildingBlock: AJUNOK_clean_linker_0, # of connection points: 2
#     Edge 34, Type (0, 0), BuildingBlock: AJUNOK_clean_linker_0, # of connection points: 2
#     Edge 35, Type (0, 0), BuildingBlock: AJUNOK_clean_linker_0, # of connection points: 2
#     Edge 36, Type (0, 0), BuildingBlock: AJUNOK_clean_linker_0, # of connection points: 2
#     Edge 37, Type (0, 0), BuildingBlock: AJUNOK_clean_linker_0, # of connection points: 2
#     Edge 38, Type (0, 0), BuildingBlock: AJUNOK_clean_linker_0, # of connection points: 2
#     Edge 39, Type (0, 0), BuildingBlock: AJUNOK_clean_linker_0, # of connection points: 2
#     Edge 40, Type (0, 0), BuildingBlock: AJUNOK_clean_linker_0, # of connection points: 2
#     Edge 41, Type (0, 0), BuildingBlock: AJUNOK_clean_linker_0, # of connection points: 2
#     Edge 42, Type (0, 0), BuildingBlock: AJUNOK_clean_linker_0, # of connection points: 2
#     Edge 43, Type (0, 0), BuildingBlock: AJUNOK_clean_linker_0, # of connection points: 2
#     Edge 44, Type (0, 0), BuildingBlock: AJUNOK_clean_linker_0, # of connection points: 2
#     Edge 45, Type (0, 0), BuildingBlock: AJUNOK_clean_linker_0, # of connection points: 2
#     Edge 46, Type (0, 0), BuildingBlock: AJUNOK_clean_linker_0, # of connection points: 2
#     Edge 47, Type (0, 0), BuildingBlock: AJUNOK_clean_linker_0, # of connection points: 2
#     Edge 48, Type (0, 0), BuildingBlock: AJUNOK_clean_linker_0, # of connection points: 2
#     Edge 49, Type (0, 0), BuildingBlock: AJUNOK_clean_linker_0, # of connection points: 2
#     Edge 50, Type (0, 0), BuildingBlock: AJUNOK_clean_linker_0, # of connection points: 2
#     Edge 51, Type (0, 0), BuildingBlock: AJUNOK_clean_linker_0, # of connection points: 2
#     Edge 52, Type (0, 0), BuildingBlock: AJUNOK_clean_linker_0, # of connection points: 2
#     Edge 53, Type (0, 0), BuildingBlock: AJUNOK_clean_linker_0, # of connection points: 2
#     Edge 54, Type (0, 0), BuildingBlock: AJUNOK_clean_linker_0, # of connection points: 2
#     Edge 55, Type (0, 0), BuildingBlock: AJUNOK_clean_linker_0, # of connection points: 2
#     Edge 56, Type (0, 0), BuildingBlock: AJUNOK_clean_linker_0, # of connection points: 2
#     Edge 57, Type (0, 0), BuildingBlock: AJUNOK_clean_linker_0, # of connection points: 2
#     Edge 58, Type (0, 0), BuildingBlock: AJUNOK_clean_linker_0, # of connection points: 2
#     Edge 59, Type (0, 0), BuildingBlock: AJUNOK_clean_linker_0, # of connection points: 2
#     Edge 60, Type (0, 0), BuildingBlock: AJUNOK_clean_linker_0, # of connection points: 2
#     Edge 61, Type (0, 0), BuildingBlock: AJUNOK_clean_linker_0, # of connection points: 2
#     Edge 62, Type (0, 0), BuildingBlock: AJUNOK_clean_linker_0, # of connection points: 2
#     Edge 63, Type (0, 0), BuildingBlock: AJUNOK_clean_linker_0, # of connection points: 2
#     Edge 64, Type (0, 0), BuildingBlock: AJUNOK_clean_linker_0, # of connection points: 2
#     Edge 65, Type (0, 0), BuildingBlock: AJUNOK_clean_linker_0, # of connection points: 2
#     Edge 66, Type (0, 0), BuildingBlock: AJUNOK_clean_linker_0, # of connection points: 2
#     Edge 67, Type (0, 0), BuildingBlock: AJUNOK_clean_linker_0, # of connection points: 2
#     Edge 68, Type (0, 0), BuildingBlock: AJUNOK_clean_linker_0, # of connection points: 2
#     Edge 69, Type (0, 0), BuildingBlock: AJUNOK_clean_linker_0, # of connection points: 2
#     Edge 70, Type (0, 0), BuildingBlock: AJUNOK_clean_linker_0, # of connection points: 2
#     Edge 71, Type (0, 0), BuildingBlock: AJUNOK_clean_linker_0, # of connection points: 2
#     Edge 72, Type (0, 0), BuildingBlock: AJUNOK_clean_linker_0, # of connection points: 2
#     Edge 73, Type (0, 0), BuildingBlock: AJUNOK_clean_linker_0, # of connection points: 2
#     Edge 74, Type (0, 0), BuildingBlock: AJUNOK_clean_linker_0, # of connection points: 2
#     Edge 75, Type (0, 0), BuildingBlock: AJUNOK_clean_linker_0, # of connection points: 2
#     Edge 76, Type (0, 0), BuildingBlock: AJUNOK_clean_linker_0, # of connection points: 2
#     Edge 77, Type (0, 0), BuildingBlock: AJUNOK_clean_linker_0, # of connection points: 2
#     Edge 78, Type (0, 0), BuildingBlock: AJUNOK_clean_linker_0, # of connection points: 2
#     Edge 79, Type (0, 0), BuildingBlock: AJUNOK_clean_linker_0, # of connection points: 2
#     Edge 80, Type (0, 0), BuildingBlock: AJUNOK_clean_linker_0, # of connection points: 2
#     Edge 81, Type (0, 0), BuildingBlock: AJUNOK_clean_linker_0, # of connection points: 2
#     Edge 82, Type (0, 0), BuildingBlock: AJUNOK_clean_linker_0, # of connection points: 2
#     Edge 83, Type (0, 0), BuildingBlock: AJUNOK_clean_linker_0, # of connection points: 2
#     Edge 84, Type (0, 0), BuildingBlock: AJUNOK_clean_linker_0, # of connection points: 2
#     Edge 85, Type (0, 0), BuildingBlock: AJUNOK_clean_linker_0, # of connection points: 2
#     Edge 86, Type (0, 0), BuildingBlock: AJUNOK_clean_linker_0, # of connection points: 2
#     Edge 87, Type (0, 0), BuildingBlock: AJUNOK_clean_linker_0, # of connection points: 2
#     Edge 88, Type (0, 0), BuildingBlock: AJUNOK_clean_linker_0, # of connection points: 2
#     Edge 89, Type (0, 0), BuildingBlock: AJUNOK_clean_linker_0, # of connection points: 2
#     Edge 90, Type (0, 0), BuildingBlock: AJUNOK_clean_linker_0, # of connection points: 2
#     Edge 91, Type (0, 0), BuildingBlock: AJUNOK_clean_linker_0, # of connection points: 2
#     Edge 92, Type (0, 0), BuildingBlock: AJUNOK_clean_linker_0, # of connection points: 2
#     Edge 93, Type (0, 0), BuildingBlock: AJUNOK_clean_linker_0, # of connection points: 2
#     Edge 94, Type (0, 0), BuildingBlock: AJUNOK_clean_linker_0, # of connection points: 2
#     Edge 95, Type (0, 0), BuildingBlock: AJUNOK_clean_linker_0, # of connection points: 2
#     Edge 96, Type (0, 0), BuildingBlock: AJUNOK_clean_linker_0, # of connection points: 2
#     Edge 97, Type (0, 0), BuildingBlock: AJUNOK_clean_linker_0, # of connection points: 2
#     Edge 98, Type (0, 0), BuildingBlock: AJUNOK_clean_linker_0, # of connection points: 2
#     Edge 99, Type (0, 0), BuildingBlock: AJUNOK_clean_linker_0, # of connection points: 2
#     Edge 100, Type (0, 0), BuildingBlock: AJUNOK_clean_linker_0, # of connection points: 2
#     Edge 101, Type (0, 0), BuildingBlock: AJUNOK_clean_linker_0, # of connection points: 2
#     Edge 102, Type (0, 0), BuildingBlock: AJUNOK_clean_linker_0, # of connection points: 2
#     Edge 103, Type (0, 0), BuildingBlock: AJUNOK_clean_linker_0, # of connection points: 2
#     Edge 104, Type (0, 0), BuildingBlock: AJUNOK_clean_linker_0, # of connection points: 2
#     Edge 105, Type (0, 0), BuildingBlock: AJUNOK_clean_linker_0, # of connection points: 2
#     Edge 106, Type (0, 0), BuildingBlock: AJUNOK_clean_linker_0, # of connection points: 2
#     Edge 107, Type (0, 0), BuildingBlock: AJUNOK_clean_linker_0, # of connection points: 2
#     Edge 108, Type (0, 0), BuildingBlock: AJUNOK_clean_linker_0, # of connection points: 2
#     Edge 109, Type (0, 0), BuildingBlock: AJUNOK_clean_linker_0, # of connection points: 2
#     Edge 110, Type (0, 0), BuildingBlock: AJUNOK_clean_linker_0, # of connection points: 2
#     Edge 111, Type (0, 0), BuildingBlock: AJUNOK_clean_linker_0, # of connection points: 2
#     Edge 112, Type (0, 0), BuildingBlock: AJUNOK_clean_linker_0, # of connection points: 2
#     Edge 113, Type (0, 0), BuildingBlock: AJUNOK_clean_linker_0, # of connection points: 2
#     Edge 114, Type (0, 0), BuildingBlock: AJUNOK_clean_linker_0, # of connection points: 2
#     Edge 115, Type (0, 0), BuildingBlock: AJUNOK_clean_linker_0, # of connection points: 2
#     Edge 116, Type (0, 0), BuildingBlock: AJUNOK_clean_linker_0, # of connection points: 2
#     Edge 117, Type (0, 0), BuildingBlock: AJUNOK_clean_linker_0, # of connection points: 2
#     Edge 118, Type (0, 0), BuildingBlock: AJUNOK_clean_linker_0, # of connection points: 2
#     Edge 119, Type (0, 0), BuildingBlock: AJUNOK_clean_linker_0, # of connection points: 2
#     Edge 120, Type (0, 0), BuildingBlock: AJUNOK_clean_linker_0, # of connection points: 2
#     Edge 121, Type (0, 0), BuildingBlock: AJUNOK_clean_linker_0, # of connection points: 2
#     Edge 122, Type (0, 0), BuildingBlock: AJUNOK_clean_linker_0, # of connection points: 2
#     Edge 123, Type (0, 0), BuildingBlock: AJUNOK_clean_linker_0, # of connection points: 2
#     Edge 124, Type (0, 0), BuildingBlock: AJUNOK_clean_linker_0, # of connection points: 2
#     Edge 125, Type (0, 0), BuildingBlock: AJUNOK_clean_linker_0, # of connection points: 2
#     Edge 126, Type (0, 0), BuildingBlock: AJUNOK_clean_linker_0, # of connection points: 2
#     Edge 127, Type (0, 0), BuildingBlock: AJUNOK_clean_linker_0, # of connection points: 2
# Relax obj value: 0.376
# Max RMSD: 0.332
# Mean RMSD: 0.255
data_MOF--net-wip--node1-INOVEN_clean_sbu_0--edge1-AJUNOK_clean_linker_0
_symmetry_space_group_name_H-M    P1
_symmetry_Int_Tables_number       1
_symmetry_cell_setting            triclinic
loop_
_symmetry_equiv_pos_as_xyz
'x, y, z'
_cell_length_a     47.700639
_cell_length_b     44.984979
_cell_length_c     27.867406
_cell_angle_alpha  95.916923
_cell_angle_beta   84.66837
_cell_angle_gamma 88.644773
loop_
_atom_site_label
_atom_site_type_symbol
_atom_site_fract_x
_atom_site_fract_y
_atom_site_fract_z
_atom_type_partial_charge
Gd0 Gd 0.05195 0.40461 0.13372 0.0
Gd1 Gd 0.09252 0.43654 0.07175 0.0
C2 C 0.08994 0.45978 0.18003 0.0
C3 C 0.03202 0.37251 0.19965 0.0
C4 C 0.04086 0.36645 0.24703 0.0
C5 C 0.0513 0.38943 0.27777 0.0
C6 C 0.03731 0.33819 0.26316 0.0
C7 C 0.05047 0.35732 0.34277 0.0
C8 C 0.04226 0.33358 0.31059 0.0
C9 C 0.05573 0.38505 0.32528 0.0
C10 C 0.02652 0.45508 0.11469 0.0
C11 C 0.03916 0.40485 1.0235 0.0
C12 C 0.11786 0.46084 0.99878 0.0
C13 C 0.11166 0.47287 0.95177 0.0
C14 C 0.11103 0.45397 0.90814 0.0
C15 C 0.10828 0.5039 0.94921 0.0
C16 C 0.10422 0.49679 0.86121 0.0
C17 C 0.10447 0.51559 0.905 0.0
C18 C 0.10732 0.46568 0.86382 0.0
C19 C 0.11653 0.39538 0.12619 0.0
O20 O 0.075 0.43558 0.18667 0.0
O21 O 0.09684 0.46801 0.13657 0.0
O22 O 0.02332 0.39998 0.19679 0.0
O23 O 0.0481 0.36118 0.16119 0.0
O24 O 0.01516 0.42913 0.11263 0.0
O25 O 0.05275 0.45182 0.11883 0.0
O26 O 0.05891 0.42462 1.02235 0.0
O27 O 0.03435 0.38979 0.06179 0.0
O28 O 0.11732 0.43184 1.00127 0.0
O29 O 0.1079 0.47609 1.03977 0.0
O30 O 0.12817 0.41934 0.11266 0.0
O31 O 0.09469 0.39228 0.10289 0.0
H32 H 0.05467 0.41128 0.2659 0.0
H33 H 0.02969 0.32003 0.23974 0.0
H34 H 0.03838 0.31183 0.3228 0.0
H35 H 0.06147 0.40406 0.34901 0.0
H36 H 0.11364 0.42999 0.90803 0.0
H37 H 0.10897 0.51938 0.98151 0.0
H38 H 0.10226 0.5396 0.90499 0.0
H39 H 0.10662 0.45021 0.83155 0.0
Gd40 Gd 0.83949 0.79905 0.3814 0.0
Gd41 Gd 0.80111 0.84078 0.33507 0.0
C42 C 0.7901 0.84207 0.44762 0.0
C43 C 0.87282 0.77593 0.43743 0.0
C44 C 0.87361 0.77265 0.48967 0.0
C45 C 0.88005 0.74438 0.5036 0.0
C46 C 0.86779 0.79683 0.5258 0.0
C47 C 0.87502 0.76422 0.58882 0.0
C48 C 0.86858 0.79265 0.57493 0.0
C49 C 0.88065 0.74017 0.55252 0.0
C50 C 0.79054 0.77325 0.36276 0.0
C51 C 0.83965 0.7887 0.26896 0.0
C52 C 0.76938 0.86618 0.27802 0.0
C53 C 0.75799 0.86295 0.22925 0.0
C54 C 0.75288 0.88871 0.20626 0.0
C55 C 0.75077 0.8352 0.2062 0.0
C56 C 0.73345 0.85932 0.13848 0.0
C57 C 0.73865 0.83344 0.16158 0.0
C58 C 0.74078 0.88698 0.16184 0.0
C59 C 0.84595 0.86615 0.37722 0.0
O60 O 0.81387 0.82571 0.44473 0.0
O61 O 0.77855 0.84913 0.40886 0.0
O62 O 0.85376 0.76091 0.41559 0.0
O63 O 0.87568 0.80257 0.42331 0.0
O64 O 0.81532 0.76047 0.3531 0.0
O65 O 0.79349 0.80073 0.37576 0.0
O66 O 0.81629 0.80526 0.2758 0.0
O67 O 0.85613 0.78603 0.30395 0.0
O68 O 0.79627 0.87107 0.27965 0.0
O69 O 0.75983 0.84883 0.31046 0.0
O70 O 0.82161 0.87945 0.37599 0.0
O71 O 0.84602 0.8413 0.35115 0.0
H72 H 0.88457 0.72541 0.47647 0.0
H73 H 0.86243 0.81884 0.51617 0.0
H74 H 0.86365 0.81152 0.60208 0.0
H75 H 0.88579 0.71807 0.562 0.0
H76 H 0.75786 0.91047 0.2232 0.0
H77 H 0.75431 0.81488 0.22281 0.0
H78 H 0.73346 0.81168 0.14499 0.0
H79 H 0.73657 0.90755 0.14638 0.0
Gd80 Gd 0.43958 0.5941 0.68454 0.0
Gd81 Gd 0.40246 0.55501 0.62667 0.0
C82 C 0.40547 0.53835 0.73125 0.0
C83 C 0.46041 0.63258 0.74645 0.0
C84 C 0.45847 0.64126 0.79876 0.0
C85 C 0.48102 0.65575 0.81883 0.0
C86 C 0.43655 0.63134 0.82932 0.0
C87 C 0.46112 0.64727 0.89949 0.0
C88 C 0.4374 0.6352 0.87945 0.0
C89 C 0.48244 0.65862 0.86896 0.0
C90 C 0.46822 0.54305 0.64752 0.0
C91 C 0.45325 0.58952 0.56948 0.0
C92 C 0.3804 0.52602 0.55346 0.0
C93 C 0.38763 0.51368 0.50062 0.0
C94 C 0.38321 0.48342 0.48535 0.0
C95 C 0.39695 0.53186 0.4642 0.0
C96 C 0.39741 0.48973 0.3994 0.0
C97 C 0.40172 0.52014 0.41471 0.0
C98 C 0.38792 0.47172 0.43599 0.0
C99 C 0.37308 0.59417 0.70043 0.0
O100 O 0.41749 0.56482 0.73852 0.0
O101 O 0.40135 0.52638 0.6871 0.0
O102 O 0.47108 0.60579 0.73321 0.0
O103 O 0.43879 0.63883 0.72309 0.0
O104 O 0.47838 0.56949 0.6487 0.0
O105 O 0.44211 0.54574 0.66067 0.0
O106 O 0.43619 0.5671 0.56997 0.0
O107 O 0.45491 0.60766 0.60969 0.0
O108 O 0.37809 0.55518 0.56423 0.0
O109 O 0.39163 0.51271 0.58727 0.0
O110 O 0.36433 0.56893 0.68119 0.0
O111 O 0.39495 0.5999 0.67222 0.0
H112 H 0.49837 0.66318 0.79558 0.0
H113 H 0.41967 0.61914 0.81429 0.0
H114 H 0.42027 0.62731 0.9025 0.0
H115 H 0.50096 0.66806 0.8835 0.0
H116 H 0.37556 0.46871 0.51173 0.0
H117 H 0.40035 0.55533 0.47383 0.0
H118 H 0.40903 0.53499 0.38835 0.0
H119 H 0.38343 0.44851 0.42647 0.0
Gd120 Gd 0.67991 0.19617 0.8537 0.0
Gd121 Gd 0.71989 0.1465 0.88112 0.0
C122 C 0.72398 0.15812 0.76741 0.0
C123 C 0.65693 0.24089 0.82037 0.0
C124 C 0.662 0.25335 0.77406 0.0
C125 C 0.63904 0.26104 0.74936 0.0
C126 C 0.68954 0.25439 0.75171 0.0
C127 C 0.67103 0.27019 0.68017 0.0
C128 C 0.69402 0.26302 0.70515 0.0
C129 C 0.64353 0.26937 0.70249 0.0
C130 C 0.65241 0.15046 0.88891 0.0
C131 C 0.68751 0.19392 0.96908 0.0
C132 C 0.73983 0.09917 0.91291 0.0
C133 C 0.74105 0.08699 0.95981 0.0
C134 C 0.76612 0.08873 0.98246 0.0
C135 C 0.71755 0.0741 0.98275 0.0
C136 C 0.74367 0.06695 0.05176 0.0
C137 C 0.71886 0.06414 1.02835 0.0
C138 C 0.76733 0.07914 1.02816 0.0
C139 C 0.74293 0.20108 0.87657 0.0
O140 O 0.70622 0.18135 0.78125 0.0
O141 O 0.73045 0.13938 0.79891 0.0
O142 O 0.6465 0.21416 0.81697 0.0
O143 O 0.67703 0.24381 0.84945 0.0
O144 O 0.64131 0.17666 0.88618 0.0
O145 O 0.676 0.14802 0.86264 0.0
O146 O 0.70145 0.16769 0.95661 0.0
O147 O 0.67929 0.21034 0.9352 0.0
O148 O 0.75444 0.12298 0.90699 0.0
O149 O 0.7153 0.10035 0.89545 0.0
O150 O 0.75724 0.17588 0.86605 0.0
O151 O 0.7182 0.19472 0.88864 0.0
H152 H 0.61767 0.25993 0.76591 0.0
H153 H 0.70756 0.24792 0.76973 0.0
H154 H 0.71537 0.26355 0.68823 0.0
H155 H 0.62562 0.2752 0.68369 0.0
H156 H 0.78463 0.09836 0.96545 0.0
H157 H 0.69801 0.07221 0.96604 0.0
H158 H 0.7003 0.05486 0.04578 0.0
H159 H 0.78648 0.08248 0.04578 0.0
Gd160 Gd 0.04235 0.5872 0.61925 0.0
Gd161 Gd 0.08417 0.5419 0.55986 0.0
C162 C 0.08418 0.54755 0.67721 0.0
C163 C 0.00561 0.6194 0.67749 0.0
C164 C 0.99147 0.61878 0.72617 0.0
C165 C 0.97199 0.64171 0.74525 0.0
C166 C 0.99809 0.5961 0.75446 0.0
C167 C 0.96757 0.62074 0.82245 0.0
C168 C 0.98645 0.59721 0.80242 0.0
C169 C 0.96003 0.64267 0.79309 0.0
C170 C 0.08222 0.61093 0.55882 0.0
C171 C 0.03079 0.57067 0.50898 0.0
C172 C 0.12486 0.51724 0.5009 0.0
C173 C 0.13372 0.5197 0.45012 0.0
C174 C 0.14856 0.49572 0.42221 0.0
C175 C 0.12214 0.54285 0.42746 0.0
C176 C 0.13415 0.51467 0.34981 0.0
C177 C 0.12313 0.54077 0.37729 0.0
C178 C 0.14867 0.49312 0.3719 0.0
C179 C 0.04189 0.51671 0.60949 0.0
O180 O 0.06085 0.56436 0.67889 0.0
O181 O 0.09931 0.53942 0.6351 0.0
O182 O 0.03273 0.624 0.67511 0.0
O183 O 0.99888 0.59843 0.64491 0.0
O184 O 0.05727 0.62236 0.57195 0.0
O185 O 0.08602 0.58944 0.58371 0.0
O186 O 0.05665 0.55778 0.50208 0.0
O187 O 0.01915 0.57966 0.55314 0.0
O188 O 0.10031 0.50516 0.50816 0.0
O189 O 0.12789 0.5411 0.53092 0.0
O190 O 0.06689 0.50432 0.59977 0.0
O191 O 0.04009 0.54032 0.58903 0.0
H192 H 0.96656 0.65927 0.72355 0.0
H193 H 0.01293 0.57809 0.73995 0.0
H194 H 0.99328 0.58041 0.82436 0.0
H195 H 0.94552 0.661 0.80755 0.0
H196 H 0.15732 0.47752 0.43935 0.0
H197 H 0.10959 0.56076 0.4484 0.0
H198 H 0.11194 0.55752 0.36056 0.0
H199 H 0.15697 0.47263 0.35104 0.0
Gd200 Gd 0.65004 0.80108 0.87572 0.0
Gd201 Gd 0.69599 0.83251 0.83768 0.0
C202 C 0.68255 0.84518 0.95117 0.0
C203 C 0.61346 0.77658 0.93246 0.0
C204 C 0.61473 0.76755 0.98183 0.0
C205 C 0.58996 0.76544 1.01249 0.0
C206 C 0.64085 0.76192 0.99925 0.0
C207 C 0.61744 0.75202 0.07734 0.0
C208 C 0.64219 0.7543 0.04646 0.0
C209 C 0.59128 0.75772 0.0598 0.0
C210 C 0.63417 0.83411 0.80259 0.0
C211 C 0.67484 0.77396 0.77467 0.0
C212 C 0.72822 0.86533 0.78756 0.0
C213 C 0.72869 0.87285 0.73805 0.0
C214 C 0.74928 0.89152 0.7201 0.0
C215 C 0.71057 0.8585 0.70699 0.0
C216 C 0.73707 0.8768 0.63893 0.0
C217 C 0.71455 0.86073 0.65755 0.0
C218 C 0.75351 0.89348 0.67038 0.0
C219 C 0.7155 0.79056 0.89192 0.0
O220 O 0.66714 0.82156 0.94467 0.0
O221 O 0.69241 0.8579 0.91283 0.0
O222 O 0.61353 0.80542 0.92909 0.0
O223 O 0.63013 0.76134 0.89816 0.0
O224 O 0.62431 0.80882 0.81307 0.0
O225 O 0.65019 0.84294 0.83572 0.0
O226 O 0.68626 0.80041 0.77307 0.0
O227 O 0.66326 0.76588 0.81578 0.0
O228 O 0.73406 0.83715 0.79133 0.0
O229 O 0.70649 0.87614 0.81666 0.0
O230 O 0.72585 0.81662 0.8884 0.0
O231 O 0.69574 0.78696 0.86433 0.0
H232 H 0.56961 0.77005 1.00002 0.0
H233 H 0.6603 0.76361 0.97642 0.0
H234 H 0.66265 0.75011 0.05882 0.0
H235 H 0.57187 0.75685 0.08299 0.0
H236 H 0.76338 0.90267 0.7439 0.0
H237 H 0.69456 0.84403 0.7205 0.0
H238 H 0.70206 0.84733 0.6335 0.0
H239 H 0.77136 0.90544 0.65614 0.0
Gd240 Gd 0.46015 0.40407 0.10153 0.0
Gd241 Gd 0.42159 0.45173 0.07487 0.0
C242 C 0.41941 0.44277 0.18944 0.0
C243 C 0.49375 0.36794 0.13703 0.0
C244 C 0.50618 0.36653 0.1829 0.0
C245 C 0.52384 0.34216 0.18895 0.0
C246 C 0.50027 0.38926 0.22101 0.0
C247 C 0.52764 0.36193 0.27268 0.0
C248 C 0.51072 0.38688 0.26562 0.0
C249 C 0.53476 0.34 0.23337 0.0
C250 C 0.41947 0.38416 0.0435 0.0
C251 C 0.47462 0.42307 0.99628 0.0
C252 C 0.38309 0.47975 1.03689 0.0
C253 C 0.37133 0.47426 0.99052 0.0
C254 C 0.3856 0.45444 0.95369 0.0
C255 C 0.34877 0.49218 0.98021 0.0
C256 C 0.36209 0.47858 0.89473 0.0
C257 C 0.34373 0.4939 0.93205 0.0
C258 C 0.38068 0.45629 0.9057 0.0
C259 C 0.46267 0.47484 0.12418 0.0
O260 O 0.44173 0.42461 0.17668 0.0
O261 O 0.40556 0.45372 0.15552 0.0
O262 O 0.46644 0.36485 0.13873 0.0
O263 O 0.50248 0.38939 0.11166 0.0
O264 O 0.44485 0.37301 1.0405 0.0
O265 O 0.41634 0.404 0.07939 0.0
O266 O 0.44885 0.43607 1.00241 0.0
O267 O 0.48574 0.41298 1.03332 0.0
O268 O 0.40953 0.4873 1.03383 0.0
O269 O 0.37754 0.45999 0.06725 0.0
O270 O 0.43803 0.48761 0.12484 0.0
O271 O 0.46557 0.45205 0.09325 0.0
H272 H 0.52901 0.3247 0.15944 0.0
H273 H 0.48721 0.40859 0.21654 0.0
H274 H 0.50488 0.40425 0.29497 0.0
H275 H 0.5486 0.3211 0.23694 0.0
H276 H 0.40256 0.43986 0.96142 0.0
H277 H 0.33721 0.50715 1.00856 0.0
H278 H 0.329 0.51099 0.92397 0.0
H279 H 0.39466 0.44391 0.87735 0.0
Gd280 Gd 0.83237 0.1784 0.49461 0.0
Gd281 Gd 0.78473 0.14425 0.44929 0.0
C282 C 0.78218 0.14892 0.56583 0.0
C283 C 0.85877 0.21131 0.55716 0.0
C284 C 0.85232 0.22477 0.60918 0.0
C285 C 0.87073 0.21928 0.64422 0.0
C286 C 0.82832 0.24356 0.62455 0.0
C287 C 0.8413 0.25059 0.70848 0.0
C288 C 0.823 0.25632 0.67323 0.0
C289 C 0.86535 0.23191 0.69286 0.0
C290 C 0.8526 0.13574 0.41945 0.0
C291 C 0.8213 0.18988 0.38615 0.0
C292 C 0.75546 0.10659 0.40024 0.0
C293 C 0.75604 0.09064 0.35178 0.0
C294 C 0.73331 0.07318 0.33959 0.0
C295 C 0.77776 0.09506 0.31627 0.0
C296 C 0.75291 0.06693 0.25547 0.0
C297 C 0.77642 0.08302 0.26847 0.0
C298 C 0.73165 0.06149 0.29156 0.0
C299 C 0.76897 0.20177 0.48657 0.0
O300 O 0.80448 0.16561 0.56078 0.0
O301 O 0.77202 0.13525 0.52719 0.0
O302 O 0.86254 0.18209 0.54921 0.0
O303 O 0.84487 0.22222 0.52407 0.0
O304 O 0.86654 0.15796 0.43801 0.0
O305 O 0.83074 0.1334 0.45027 0.0
O306 O 0.80502 0.16625 0.38606 0.0
O307 O 0.83142 0.20202 0.42657 0.0
O308 O 0.75171 0.13563 0.40241 0.0
O309 O 0.77468 0.0984 0.42744 0.0
O310 O 0.75227 0.17931 0.48585 0.0
O311 O 0.79258 0.19111 0.46916 0.0
H312 H 0.88952 0.20523 0.6339 0.0
H313 H 0.81354 0.24844 0.59895 0.0
H314 H 0.80424 0.27042 0.68343 0.0
H315 H 0.88039 0.22736 0.71818 0.0
H316 H 0.71624 0.06976 0.36674 0.0
H317 H 0.79491 0.10914 0.3252 0.0
H318 H 0.7928 0.08803 0.24117 0.0
H319 H 0.71325 0.04932 0.28221 0.0
Gd320 Gd 0.90513 0.56436 0.30576 0.0
Gd321 Gd 0.94787 0.59395 0.24351 0.0
C322 C 0.96006 0.59422 0.3534 0.0
C323 C 0.87919 0.5396 0.37777 0.0
C324 C 0.88545 0.52781 0.42455 0.0
C325 C 0.86489 0.51224 0.45061 0.0
C326 C 0.91159 0.53155 0.44375 0.0
C327 C 0.8966 0.5038 0.51317 0.0
C328 C 0.91701 0.51996 0.48738 0.0
C329 C 0.87031 0.5005 0.49411 0.0
C330 C 0.88307 0.60748 0.25337 0.0
C331 C 0.90542 0.54394 0.19612 0.0
C332 C 0.97176 0.62343 0.17699 0.0
C333 C 0.96463 0.62922 0.12877 0.0
C334 C 0.98363 0.64376 0.09865 0.0
C335 C 0.94037 0.61728 0.11059 0.0
C336 C 0.9553 0.63214 1.03127 0.0
C337 C 0.93552 0.61906 0.06241 0.0
C338 C 0.97903 0.64521 0.05017 0.0
C339 C 0.96901 0.541 0.26289 0.0
O340 O 0.93916 0.57577 0.35516 0.0
O341 O 0.96589 0.60848 0.31462 0.0
O342 O 0.87985 0.56862 0.37571 0.0
O343 O 0.89007 0.52455 0.33722 0.0
O344 O 0.86993 0.58447 0.26746 0.0
O345 O 0.90561 0.60892 0.27519 0.0
O346 O 0.92275 0.56629 0.19034 0.0
O347 O 0.8973 0.53565 0.23917 0.0
O348 O 0.97789 0.59543 0.18102 0.0
O349 O 0.95531 0.63617 0.21396 0.0
O350 O 0.98228 0.56585 0.26585 0.0
O351 O 0.94343 0.54682 0.25732 0.0
H352 H 0.8445 0.50892 0.43707 0.0
H353 H 0.92796 0.54338 0.42502 0.0
H354 H 0.93725 0.52393 0.50105 0.0
H355 H 0.85398 0.48828 0.51237 0.0
H356 H 0.00262 0.65282 0.11201 0.0
H357 H 0.92557 0.60579 0.13317 0.0
H358 H 0.91674 0.60941 0.04922 0.0
H359 H 0.99477 0.65524 1.02692 0.0
Gd360 Gd 0.19474 0.16105 1.03942 0.0
Gd361 Gd 0.15049 0.19898 0.9919 0.0
C362 C 0.15509 0.21294 0.10441 0.0
C363 C 0.22631 0.13693 0.09784 0.0
C364 C 0.23994 0.1404 0.14456 0.0
C365 C 0.26721 0.12805 0.14577 0.0
C366 C 0.22558 0.15307 0.18872 0.0
C367 C 0.26556 0.14069 0.23392 0.0
C368 C 0.2382 0.15319 0.2327 0.0
C369 C 0.27977 0.12811 0.18956 0.0
C370 C 0.15221 0.13138 0.99698 0.0
C371 C 0.20616 0.16422 0.92848 0.0
C372 C 0.11105 0.2102 0.93743 0.0
C373 C 0.10994 0.22107 0.88895 0.0
C374 C 0.1219 0.24806 0.8774 0.0
C375 C 0.09791 0.20308 0.85251 0.0
C376 C 0.10987 0.23858 0.79386 0.0
C377 C 0.09801 0.21162 0.80554 0.0
C378 C 0.12174 0.25677 0.8304 0.0
C379 C 0.197 0.23095 0.99354 0.0
O380 O 0.17873 0.19677 0.09759 0.0
O381 O 0.13754 0.21446 0.0705 0.0
O382 O 0.19882 0.13512 0.10009 0.0
O383 O 0.23656 0.15098 0.06138 0.0
O384 O 0.1777 0.12076 0.99703 0.0
O385 O 0.15018 0.15635 1.02286 0.0
O386 O 0.1803 0.17622 0.93012 0.0
O387 O 0.21828 0.15842 0.96726 0.0
O388 O 0.11743 0.22904 0.97363 0.0
O389 O 0.1234 0.18401 0.93697 0.0
O390 O 0.17319 0.24004 0.98069 0.0
O391 O 0.19456 0.20561 1.01015 0.0
H392 H 0.27868 0.1176 0.1127 0.0
H393 H 0.20445 0.16258 0.18942 0.0
H394 H 0.22653 0.1632 0.26585 0.0
H395 H 0.30048 0.11757 0.1887 0.0
H396 H 0.13172 0.26223 0.90439 0.0
H397 H 0.08871 0.1821 0.86025 0.0
H398 H 0.08869 0.19713 0.77828 0.0
H399 H 0.13146 0.27743 0.82233 0.0
Gd400 Gd 0.59868 0.44223 0.75451 0.0
Gd401 Gd 0.55813 0.40824 0.69515 0.0
C402 C 0.54663 0.40781 0.80981 0.0
C403 C 0.6228 0.46874 0.8276 0.0
C404 C 0.61657 0.47934 0.88121 0.0
C405 C 0.63875 0.48209 0.91132 0.0
C406 C 0.58924 0.48797 0.90282 0.0
C407 C 0.6067 0.50195 0.98291 0.0
C408 C 0.58443 0.49911 0.95259 0.0
C409 C 0.63398 0.49318 0.96094 0.0
C410 C 0.62407 0.40344 0.67628 0.0
C411 C 0.59456 0.46376 0.65334 0.0
C412 C 0.53586 0.37505 0.6284 0.0
C413 C 0.54143 0.36672 0.57615 0.0
C414 C 0.52253 0.34863 0.55222 0.0
C415 C 0.56346 0.37939 0.54922 0.0
C416 C 0.54672 0.3572 0.47423 0.0
C417 C 0.56635 0.37435 0.49867 0.0
C418 C 0.52496 0.34412 0.50169 0.0
C419 C 0.5331 0.45924 0.74039 0.0
O420 O 0.56623 0.42782 0.81115 0.0
O421 O 0.54188 0.39284 0.76798 0.0
O422 O 0.62509 0.43982 0.8144 0.0
O423 O 0.61018 0.48304 0.79643 0.0
O424 O 0.63483 0.42754 0.6959 0.0
O425 O 0.6024 0.39853 0.70529 0.0
O426 O 0.58078 0.43861 0.6441 0.0
O427 O 0.60023 0.47337 0.69773 0.0
O428 O 0.5288 0.40319 0.64079 0.0
O429 O 0.55351 0.36451 0.65627 0.0
O430 O 0.52137 0.43352 0.73705 0.0
O431 O 0.55878 0.45524 0.72495 0.0
H432 H 0.66012 0.47601 0.8962 0.0
H433 H 0.57153 0.48628 0.88114 0.0
H434 H 0.56307 0.50536 0.96745 0.0
H435 H 0.65198 0.49553 0.98181 0.0
H436 H 0.50504 0.3392 0.57253 0.0
H437 H 0.57782 0.394 0.56721 0.0
H438 H 0.58331 0.38478 0.47868 0.0
H439 H 0.50881 0.33177 0.48428 0.0
Gd440 Gd 0.27064 0.84945 0.49432 0.0
Gd441 Gd 0.31672 0.80975 0.52449 0.0
C442 C 0.30786 0.80475 0.40919 0.0
C443 C 0.24036 0.88953 0.46069 0.0
C444 C 0.23674 0.90177 0.4146 0.0
C445 C 0.2291 0.88329 0.37444 0.0
C446 C 0.24028 0.93238 0.41086 0.0
C447 C 0.22964 0.92558 0.32703 0.0
C448 C 0.23691 0.94421 0.36721 0.0
C449 C 0.22551 0.89514 0.33115 0.0
C450 C 0.25525 0.79271 0.50882 0.0
C451 C 0.26937 0.84422 0.60894 0.0
C452 C 0.34602 0.77169 0.56332 0.0
C453 C 0.34176 0.75898 0.60964 0.0
C454 C 0.36492 0.75314 0.6351 0.0
C455 C 0.31438 0.75469 0.63037 0.0
C456 C 0.33339 0.73874 0.70158 0.0
C457 C 0.31026 0.74443 0.67588 0.0
C458 C 0.36077 0.74309 0.68094 0.0
C459 C 0.33787 0.85577 0.48161 0.0
O460 O 0.29074 0.82886 0.41994 0.0
O461 O 0.31842 0.79127 0.4444 0.0
O462 O 0.2329 0.86199 0.46369 0.0
O463 O 0.26352 0.89574 0.48097 0.0
O464 O 0.23865 0.81625 0.51939 0.0
O465 O 0.27828 0.80152 0.49216 0.0
O466 O 0.28981 0.82347 0.59707 0.0
O467 O 0.26034 0.85997 0.57555 0.0
O468 O 0.35096 0.80032 0.56693 0.0
O469 O 0.32813 0.7638 0.53169 0.0
O470 O 0.35098 0.83055 0.48346 0.0
O471 O 0.31491 0.85793 0.50996 0.0
H472 H 0.22619 0.8596 0.3761 0.0
H473 H 0.24591 0.94705 0.44154 0.0
H474 H 0.24018 0.96776 0.36466 0.0
H475 H 0.2203 0.8803 0.30034 0.0
H476 H 0.38615 0.75666 0.61975 0.0
H477 H 0.29617 0.75959 0.61167 0.0
H478 H 0.28897 0.74129 0.69132 0.0
H479 H 0.37888 0.73847 0.70008 0.0
Gd480 Gd 0.91934 0.4592 0.8119 0.0
Gd481 Gd 0.96026 0.41233 0.75531 0.0
C482 C 0.97107 0.42904 0.86525 0.0
C483 C 0.87887 0.48603 0.86903 0.0
C484 C 0.86874 0.48478 0.91965 0.0
C485 C 0.85456 0.50983 0.94567 0.0
C486 C 0.87829 0.46142 0.94418 0.0
C487 C 0.86568 0.4913 1.02036 0.0
C488 C 0.87635 0.46446 0.99452 0.0
C489 C 0.85301 0.51311 0.99615 0.0
C490 C 0.96183 0.48306 0.76107 0.0
C491 C 0.91997 0.45176 0.69457 0.0
C492 C 0.99546 0.37706 0.69898 0.0
C493 C 0.00859 0.37277 0.64889 0.0
C494 C 0.01222 0.34363 0.62555 0.0
C495 C 0.01695 0.39706 0.62371 0.0
C496 C 0.03112 0.363 0.5515 0.0
C497 C 0.02828 0.39217 0.57534 0.0
C498 C 0.02319 0.33878 0.57712 0.0
C499 C 0.91822 0.39154 0.81529 0.0
O500 O 0.94545 0.4425 0.87106 0.0
O501 O 0.98319 0.41995 0.82148 0.0
O502 O 0.90406 0.49679 0.86258 0.0
O503 O 0.87536 0.46209 0.83956 0.0
O504 O 0.93715 0.49596 0.77179 0.0
O505 O 0.96378 0.4597 0.78236 0.0
O506 O 0.94284 0.43443 0.69419 0.0
O507 O 0.90459 0.46078 0.7361 0.0
O508 O 0.96839 0.37245 0.70494 0.0
O509 O 0.00312 0.40016 0.72677 0.0
O510 O 0.94354 0.38011 0.80728 0.0
O511 O 0.91595 0.41201 0.78802 0.0
H512 H 0.84729 0.52812 0.92706 0.0
H513 H 0.88989 0.44235 0.92457 0.0
H514 H 0.88631 0.44757 1.01285 0.0
H515 H 0.84503 0.53414 1.01571 0.0
H516 H 0.00595 0.32464 0.6445 0.0
H517 H 0.01417 0.41977 0.64101 0.0
H518 H 0.03369 0.41125 0.55601 0.0
H519 H 0.0249 0.31615 0.55937 0.0
Gd520 Gd 0.29998 0.16147 0.53601 0.0
Gd521 Gd 0.34558 0.19351 0.49823 0.0
C522 C 0.3203 0.22069 0.599 0.0
C523 C 0.26884 0.12813 0.58693 0.0
C524 C 0.26779 0.12251 0.63746 0.0
C525 C 0.24457 0.10843 0.65825 0.0
C526 C 0.2874 0.13583 0.66675 0.0
C527 C 0.25772 0.12598 0.73776 0.0
C528 C 0.28237 0.13758 0.71693 0.0
C529 C 0.23953 0.11015 0.70851 0.0
C530 C 0.2798 0.20268 0.48124 0.0
C531 C 0.31412 0.14895 0.42226 0.0
C532 C 0.38257 0.21823 0.44264 0.0
C533 C 0.38243 0.22638 0.39262 0.0
C534 C 0.40779 0.22733 0.36311 0.0
C535 C 0.35688 0.23222 0.37341 0.0
C536 C 0.38205 0.23934 0.2954 0.0
C537 C 0.35671 0.23879 0.32542 0.0
C538 C 0.40763 0.23387 0.31501 0.0
C539 C 0.36126 0.16061 0.57127 0.0
O540 O 0.30882 0.19424 0.60052 0.0
O541 O 0.33198 0.22865 0.55791 0.0
O542 O 0.26157 0.15557 0.58062 0.0
O543 O 0.29155 0.11798 0.55969 0.0
O544 O 0.26988 0.17647 0.48535 0.0
O545 O 0.29961 0.20695 0.50868 0.0
O546 O 0.32975 0.17233 0.42903 0.0
O547 O 0.30307 0.13665 0.46032 0.0
O548 O 0.38303 0.18953 0.44704 0.0
O549 O 0.36487 0.23346 0.47534 0.0
O550 O 0.37068 0.1862 0.56151 0.0
O551 O 0.34576 0.15156 0.53757 0.0
H552 H 0.22922 0.0983 0.63589 0.0
H553 H 0.30523 0.14708 0.65099 0.0
H554 H 0.29626 0.15031 0.73924 0.0
H555 H 0.22017 0.10157 0.72445 0.0
H556 H 0.42771 0.22283 0.37717 0.0
H557 H 0.33699 0.23132 0.39534 0.0
H558 H 0.33666 0.24265 0.31138 0.0
H559 H 0.42755 0.23474 0.29324 0.0
Gd560 Gd 0.58116 0.54529 0.30706 0.0
Gd561 Gd 0.54168 0.59119 0.27713 0.0
C562 C 0.52675 0.57329 0.38378 0.0
C563 C 0.62132 0.51949 0.34432 0.0
C564 C 0.63228 0.52328 0.39132 0.0
C565 C 0.61831 0.54319 0.42824 0.0
C566 C 0.65336 0.5035 0.40179 0.0
C567 C 0.64074 0.51796 0.48719 0.0
C568 C 0.65765 0.50085 0.44994 0.0
C569 C 0.62313 0.5411 0.47613 0.0
C570 C 0.54145 0.52003 0.2569 0.0
C571 C 0.58383 0.55211 0.19158 0.0
C572 C 0.50906 0.6271 0.2393 0.0
C573 C 0.50011 0.62984 0.19112 0.0
C574 C 0.4835 0.6546 0.18306 0.0
C575 C 0.50894 0.60825 0.15256 0.0
C576 C 0.48463 0.63608 0.09774 0.0
C577 C 0.50172 0.61159 0.10611 0.0
C578 C 0.47567 0.65765 0.13665 0.0
C579 C 0.5813 0.61254 0.33594 0.0
O580 O 0.55263 0.56039 0.37858 0.0
O581 O 0.51596 0.58306 0.34602 0.0
O582 O 0.59571 0.50948 0.34511 0.0
O583 O 0.62529 0.5417 0.31796 0.0
O584 O 0.56628 0.50809 0.25812 0.0
O585 O 0.53747 0.54328 0.28685 0.0
O586 O 0.56115 0.56994 0.20288 0.0
O587 O 0.59773 0.54268 0.22667 0.0
O588 O 0.53574 0.6318 0.2436 0.0
O589 O 0.49999 0.60387 0.26014 0.0
O590 O 0.55565 0.62285 0.33842 0.0
O591 O 0.58507 0.59272 0.30017 0.0
H592 H 0.60176 0.55835 0.42054 0.0
H593 H 0.66428 0.48804 0.37338 0.0
H594 H 0.67116 0.48269 0.45813 0.0
H595 H 0.60982 0.55434 0.5045 0.0
H596 H 0.47662 0.67152 0.2126 0.0
H597 H 0.52155 0.58892 0.1583 0.0
H598 H 0.50977 0.59509 0.07671 0.0
H599 H 0.46252 0.67675 0.13123 0.0
Gd600 Gd 0.21241 0.85987 0.92689 0.0
Gd601 Gd 0.16703 0.81896 0.8843 0.0
C602 C 0.18277 0.81072 0.99203 0.0
C603 C 0.23742 0.90129 0.97626 0.0
C604 C 0.23689 0.91543 1.02651 0.0
C605 C 0.25844 0.90782 0.05446 0.0
C606 C 0.21514 0.93563 0.04755 0.0
C607 C 0.23468 0.93704 0.12523 0.0
C608 C 0.21386 0.94609 0.09679 0.0
C609 C 0.25728 0.91836 0.10331 0.0
C610 C 0.23251 0.80348 0.89063 0.0
C611 C 0.21259 0.85325 0.81077 0.0
C612 C 0.14316 0.78132 0.82486 0.0
C613 C 0.14909 0.76803 0.77266 0.0
C614 C 0.14986 0.78575 0.73364 0.0
C615 C 0.15341 0.7369 0.76127 0.0
C616 C 0.15932 0.74159 0.67363 0.0
C617 C 0.15838 0.72392 0.71277 0.0
C618 C 0.15487 0.77278 0.68509 0.0
C619 C 0.14471 0.85999 0.96 0.0
O620 O 0.19637 0.83619 0.99098 0.0
O621 O 0.17269 0.79698 0.95267 0.0
O622 O 0.24628 0.87326 0.9693 0.0
O623 O 0.2161 0.90688 0.95153 0.0
O624 O 0.2476 0.82724 0.8917 0.0
O625 O 0.20838 0.81251 0.90767 0.0
O626 O 0.19179 0.83467 0.81728 0.0
O627 O 0.22245 0.8686 0.84831 0.0
O628 O 0.13559 0.80985 0.83334 0.0
O629 O 0.16008 0.77297 0.85596 0.0
O630 O 0.13242 0.83628 0.94234 0.0
O631 O 0.16543 0.86428 0.92792 0.0
H632 H 0.27574 0.89274 1.03896 0.0
H633 H 0.19875 0.94275 1.02647 0.0
H634 H 0.19624 0.96051 0.11297 0.0
H635 H 0.2733 0.91047 0.12452 0.0
H636 H 0.1465 0.80975 0.74052 0.0
H637 H 0.15268 0.72242 0.79007 0.0
H638 H 0.16092 0.69984 0.706 0.0
H639 H 0.15545 0.78732 0.6564 0.0
Gd640 Gd 0.54087 0.89051 0.62145 0.0
Gd641 Gd 0.58353 0.92698 0.56691 0.0
C642 C 0.5798 0.93949 0.67966 0.0
C643 C 0.51721 0.85431 0.67834 0.0
C644 C 0.52142 0.84592 0.72677 0.0
C645 C 0.50103 0.82972 0.75144 0.0
C646 C 0.54358 0.85786 0.75125 0.0
C647 C 0.52335 0.84057 0.82611 0.0
C648 C 0.54477 0.85502 0.8004 0.0
C649 C 0.50203 0.82696 0.80084 0.0
C650 C 0.51915 0.94539 0.61068 0.0
C651 C 0.53076 0.89769 0.51134 0.0
C652 C 0.61014 0.95758 0.50307 0.0
C653 C 0.60672 0.97105 0.45646 0.0
C654 C 0.6305 0.9734 0.42331 0.0
C655 C 0.58068 0.98243 0.4448 0.0
C656 C 0.60255 -0.00188 0.36797 0.0
C657 C 0.57866 0.99584 0.40134 0.0
C658 C 0.6285 0.98668 0.38001 0.0
C659 C 0.60776 0.88324 0.61536 0.0
O660 O 0.56422 0.91531 0.6801 0.0
O661 O 0.58662 0.95203 0.63937 0.0
O662 O 0.50894 0.88213 0.67799 0.0
O663 O 0.53676 0.84558 0.64316 0.0
O664 O 0.50544 0.92083 0.60673 0.0
O665 O 0.54444 0.93863 0.61563 0.0
O666 O 0.55102 0.91696 0.51382 0.0
O667 O 0.52511 0.88048 0.5467 0.0
O668 O 0.61205 0.9283 0.50121 0.0
O669 O 0.59578 0.96984 0.543 0.0
O670 O 0.61968 0.90718 0.60235 0.0
O671 O 0.58528 0.88096 0.59283 0.0
H672 H 0.48354 0.82062 0.73321 0.0
H673 H 0.55914 0.87062 0.73272 0.0
H674 H 0.56169 0.86533 0.81879 0.0
H675 H 0.48519 0.81581 0.8199 0.0
H676 H 0.65092 0.96515 0.43118 0.0
H677 H 0.56187 0.98103 0.4693 0.0
H678 H 0.55826 0.00416 0.39359 0.0
H679 H 0.64754 0.98845 0.35625 0.0
Gd680 Gd 0.33786 0.30222 0.88942 0.0
Gd681 Gd 0.30096 0.34652 0.8442 0.0
C682 C 0.29291 0.35014 0.95761 0.0
C683 C 0.37136 0.2777 0.94363 0.0
C684 C 0.37223 0.27305 0.99553 0.0
C685 C 0.37003 0.24403 1.00962 0.0
C686 C 0.37607 0.29683 1.03106 0.0
C687 C 0.37623 0.26235 0.09331 0.0
C688 C 0.37802 0.29152 0.0794 0.0
C689 C 0.37177 0.23877 0.0579 0.0
C690 C 0.28626 0.28098 0.87633 0.0
C691 C 0.33527 0.29212 0.77753 0.0
C692 C 0.27001 0.37307 0.78748 0.0
C693 C 0.25841 0.36963 0.73888 0.0
C694 C 0.26081 0.39309 0.70909 0.0
C695 C 0.24367 0.34434 0.7226 0.0
C696 C 0.2332 0.3667 0.64889 0.0
C697 C 0.23133 0.34289 0.67829 0.0
C698 C 0.24854 0.39163 0.66483 0.0
C699 C 0.34863 0.36862 0.88058 0.0
O700 O 0.31511 0.33124 0.95348 0.0
O701 O 0.28108 0.35782 0.91944 0.0
O702 O 0.35265 0.263 0.9203 0.0
O703 O 0.37397 0.30484 0.93149 0.0
O704 O 0.30968 0.26534 0.86702 0.0
O705 O 0.29195 0.30798 0.88745 0.0
O706 O 0.3125 0.30949 0.78594 0.0
O707 O 0.35244 0.28856 0.81119 0.0
O708 O 0.29716 0.37656 0.78826 0.0
O709 O 0.25973 0.35695 0.82123 0.0
O710 O 0.32528 0.38391 0.87979 0.0
O711 O 0.34636 0.34338 0.85652 0.0
H712 H 0.36702 0.22527 0.98316 0.0
H713 H 0.37781 0.31949 1.02156 0.0
H714 H 0.38139 0.3102 0.10579 0.0
H715 H 0.36947 0.21618 0.06751 0.0
H716 H 0.27188 0.41297 0.7205 0.0
H717 H 0.24146 0.32573 0.74427 0.0
H718 H 0.22039 0.32293 0.66695 0.0
H719 H 0.25053 0.41044 0.64356 0.0
Gd720 Gd 0.94213 0.08471 0.18103 0.0
Gd721 Gd 0.90039 0.05433 0.12314 0.0
C722 C 0.90338 0.03064 0.22206 0.0
C723 C 0.96525 0.11511 0.24967 0.0
C724 C 0.95798 0.12241 0.30192 0.0
C725 C 0.97119 0.14591 0.32689 0.0
C726 C 0.93987 0.10428 0.32786 0.0
C727 C 0.95127 0.13056 0.40359 0.0
C728 C 0.93663 0.10826 0.37837 0.0
C729 C 0.9678 0.15004 0.37751 0.0
C730 C 0.96616 0.03392 0.13497 0.0
C731 C 0.95342 0.08643 0.06683 0.0
C732 C 0.87486 0.02996 0.05023 0.0
C733 C 0.88149 0.01842 0.99726 0.0
C734 C 0.85954 0.0135 0.9671 0.0
C735 C 0.90918 0.01111 0.97642 0.0
C736 C 0.89259 0.99327 0.89719 0.0
C737 C 0.91464 -0.00106 0.92733 0.0
C738 C 0.86495 0.00126 0.91813 0.0
C739 C 0.87676 0.09367 0.20239 0.0
O740 O 0.91942 0.05399 0.23144 0.0
O741 O 0.89576 0.02276 0.17845 0.0
O742 O 0.97123 0.08686 0.23588 0.0
O743 O 0.9494 0.12751 0.22086 0.0
O744 O 0.9778 0.05972 0.13646 0.0
O745 O 0.94027 0.03773 0.15025 0.0
O746 O 0.93329 0.06707 0.06596 0.0
O747 O 0.95902 0.10062 0.10877 0.0
O748 O 0.87503 0.05895 0.0625 0.0
O749 O 0.88563 0.0148 0.08229 0.0
O750 O 0.865 0.07027 0.18274 0.0
O751 O 0.89842 0.09776 0.1729 0.0
H752 H 0.98518 0.16013 0.30739 0.0
H753 H 0.92923 0.08621 0.30927 0.0
H754 H 0.92371 0.09307 0.39781 0.0
H755 H 0.97955 0.16717 0.39629 0.0
H756 H 0.83794 0.01877 0.98169 0.0
H757 H 0.92672 0.01473 0.99815 0.0
H758 H 0.93633 0.99426 0.91294 0.0
H759 H 0.84725 0.99741 0.89689 0.0
Gd760 Gd 0.17033 0.69316 0.35294 0.0
Gd761 Gd 0.20779 0.64085 0.37774 0.0
C762 C 0.2139 0.65557 0.26574 0.0
C763 C 0.14823 0.73844 0.31987 0.0
C764 C 0.15398 0.75197 0.27464 0.0
C765 C 0.13142 0.75896 0.24852 0.0
C766 C 0.18179 0.75431 0.25422 0.0
C767 C 0.1643 0.7693 0.18127 0.0
C768 C 0.1869 0.76321 0.20789 0.0
C769 C 0.13654 0.76751 0.20193 0.0
C770 C 0.14028 0.64823 0.38482 0.0
C771 C 0.17681 0.68928 0.4675 0.0
C772 C 0.22678 0.59187 0.40647 0.0
C773 C 0.22743 0.58025 0.45348 0.0
C774 C 0.246 0.55642 0.45893 0.0
C775 C 0.21232 0.59555 0.4944 0.0
C776 C 0.23651 0.5659 0.54623 0.0
C777 C 0.21634 0.58801 0.54026 0.0
C778 C 0.25068 0.5493 0.50537 0.0
C779 C 0.23309 0.69434 0.37462 0.0
O780 O 0.19886 0.68047 0.28192 0.0
O781 O 0.21705 0.6344 0.29494 0.0
O782 O 0.13819 0.71158 0.31416 0.0
O783 O 0.16757 0.74101 0.35052 0.0
O784 O 0.13141 0.67569 0.38691 0.0
O785 O 0.16389 0.64454 0.35854 0.0
O786 O 0.19006 0.66267 0.45407 0.0
O787 O 0.16937 0.70658 0.43434 0.0
O788 O 0.24191 0.61533 0.40132 0.0
O789 O 0.20203 0.59442 0.39034 0.0
O790 O 0.24665 0.66871 0.36423 0.0
O791 O 0.20828 0.68888 0.38725 0.0
H792 H 0.10986 0.7569 0.2636 0.0
H793 H 0.19954 0.74847 0.27341 0.0
H794 H 0.20845 0.76463 0.19233 0.0
H795 H 0.11891 0.77259 0.18192 0.0
H796 H 0.25813 0.54463 0.42761 0.0
H797 H 0.19889 0.6147 0.49156 0.0
H798 H 0.20529 0.60112 0.57145 0.0
H799 H 0.26658 0.5324 0.50943 0.0
Gd800 Gd 0.55071 0.09295 0.12245 0.0
Gd801 Gd 0.57764 0.03865 0.07352 0.0
C802 C 0.58836 0.0521 0.18499 0.0
C803 C 0.526 0.13649 0.18002 0.0
C804 C 0.51369 0.14047 0.2306 0.0
C805 C 0.51575 0.16797 0.25841 0.0
C806 C 0.50102 0.11663 0.25208 0.0
C807 C 0.49419 0.14721 0.32957 0.0
C808 C 0.49131 0.11998 0.30119 0.0
C809 C 0.50612 0.17132 0.30763 0.0
C810 C 0.592 0.10297 0.05158 0.0
C811 C 0.52906 0.07374 1.02084 0.0
C812 C 0.60471 0.99709 1.01578 0.0
C813 C 0.60962 0.99265 0.96329 0.0
C814 C 0.59126 0.00672 0.93563 0.0
C815 C 0.63195 0.9741 0.9404 0.0
C816 C 0.61596 0.98224 0.86272 0.0
C817 C 0.63492 0.96855 0.88994 0.0
C818 C 0.59465 0.00193 0.8857 0.0
C819 C 0.53553 0.02727 0.13873 0.0
O820 O 0.56745 0.07213 0.18629 0.0
O821 O 0.59966 0.0393 0.14249 0.0
O822 O 0.55339 0.13238 0.17348 0.0
O823 O 0.51282 0.11866 0.15029 0.0
O824 O 0.56876 0.11844 0.06237 0.0
O825 O 0.5939 0.08395 0.08169 0.0
O826 O 0.55246 0.05654 1.01448 0.0
O827 O 0.52109 0.08746 0.06418 0.0
O828 O 0.57838 0.99529 1.03265 0.0
O829 O 0.61708 0.01991 1.03663 0.0
O830 O 0.55855 0.01131 0.12936 0.0
O831 O 0.53449 0.04747 0.11057 0.0
H832 H 0.52546 0.1866 0.24235 0.0
H833 H 0.49929 0.09518 0.2312 0.0
H834 H 0.48273 0.10088 0.31742 0.0
H835 H 0.50864 0.19249 0.32887 0.0
H836 H 0.5737 0.02066 0.9524 0.0
H837 H 0.64624 0.96308 0.96148 0.0
H838 H 0.65095 0.95257 0.87233 0.0
H839 H 0.57926 0.0118 0.86521 0.0
Gd840 Gd 0.1504 0.3106 0.38655 0.0
Gd841 Gd 0.1979 0.33981 0.34742 0.0
C842 C 0.18408 0.35392 0.46093 0.0
C843 C 0.11316 0.2878 0.44443 0.0
C844 C 0.11264 0.28068 0.49536 0.0
C845 C 0.08797 0.28623 0.52693 0.0
C846 C 0.1368 0.26919 0.51335 0.0
C847 C 0.11143 0.26856 0.59355 0.0
C848 C 0.13613 0.26301 0.56175 0.0
C849 C 0.08733 0.28025 0.57548 0.0
C850 C 0.13586 0.34593 0.31567 0.0
C851 C 0.17186 0.28437 0.28252 0.0
C852 C 0.23252 0.37136 0.29929 0.0
C853 C 0.23537 0.38092 0.25098 0.0
C854 C 0.25877 0.39712 0.23665 0.0
C855 C 0.21667 0.37093 0.21739 0.0
C856 C 0.24768 0.38834 0.15352 0.0
C857 C 0.22266 0.3749 0.16872 0.0
C858 C 0.26497 0.4008 0.18789 0.0
C859 C 0.21539 0.29701 0.40189 0.0
O860 O 0.16765 0.33112 0.45501 0.0
O861 O 0.19546 0.36537 0.42235 0.0
O862 O 0.11318 0.31624 0.43824 0.0
O863 O 0.13049 0.27161 0.41226 0.0
O864 O 0.12443 0.32124 0.32565 0.0
O865 O 0.1527 0.35299 0.34822 0.0
O866 O 0.18577 0.30956 0.28206 0.0
O867 O 0.16002 0.2763 0.32355 0.0
O868 O 0.23623 0.34257 0.30086 0.0
O869 O 0.21088 0.38297 0.32781 0.0
O870 O 0.22662 0.32262 0.39849 0.0
O871 O 0.19558 0.29428 0.3742 0.0
H872 H 0.06916 0.29519 0.51391 0.0
H873 H 0.15629 0.2651 0.49006 0.0
H874 H 0.15511 0.25428 0.57456 0.0
H875 H 0.06784 0.28437 0.59869 0.0
H876 H 0.27328 0.40497 0.26249 0.0
H877 H 0.19854 0.35837 0.22835 0.0
H878 H 0.20932 0.36488 0.14253 0.0
H879 H 0.28449 0.411 0.17646 0.0
Gd880 Gd 0.95484 0.90068 0.60294 0.0
Gd881 Gd 0.91834 0.94929 0.57589 0.0
C882 C 0.91494 0.94046 0.69024 0.0
C883 C 0.98548 0.86307 0.64088 0.0
C884 C 0.99693 0.86065 0.68749 0.0
C885 C 0.99688 0.83295 0.70636 0.0
C886 C 0.00738 0.88562 0.71385 0.0
C887 C 0.01726 0.85515 0.77775 0.0
C888 C 0.01764 0.88282 0.75858 0.0
C889 C 0.00681 0.83025 0.75132 0.0
C890 C 0.91453 0.88208 0.54337 0.0
C891 C 0.97116 0.91896 0.49768 0.0
C892 C 0.88064 0.97825 0.53748 0.0
C893 C 0.87121 0.97408 0.48929 0.0
C894 C 0.85343 0.99557 0.47389 0.0
C895 C 0.88402 0.95119 0.45604 0.0
C896 C 0.86697 0.97538 0.39088 0.0
C897 C 0.88162 0.95158 0.40693 0.0
C898 C 0.85122 0.99618 0.42447 0.0
C899 C 0.95863 0.97145 0.62779 0.0
O900 O 0.93713 0.92215 0.67774 0.0
O901 O 0.90118 0.95106 0.65593 0.0
O902 O 0.95809 0.86135 0.64111 0.0
O903 O 0.99598 0.88362 0.61503 0.0
O904 O 0.93967 0.87044 0.541 0.0
O905 O 0.91135 0.90179 0.5795 0.0
O906 O 0.94666 0.93463 0.50427 0.0
O907 O 0.98109 0.90699 0.53418 0.0
O908 O 0.90673 0.98663 0.53828 0.0
O909 O 0.87472 0.95668 0.56437 0.0
O910 O 0.93422 0.98443 0.62699 0.0
O911 O 0.96217 0.94871 0.59649 0.0
H912 H 0.98884 0.81349 0.68655 0.0
H913 H 0.00728 0.90733 0.70023 0.0
H914 H 0.02505 0.90246 0.77887 0.0
H915 H 0.00618 0.80875 0.76564 0.0
H916 H 0.84351 0.0134 0.49939 0.0
H917 H 0.89814 0.93477 0.4675 0.0
H918 H 0.8941 0.93559 0.38136 0.0
H919 H 0.84014 0.01494 0.41241 0.0
Gd920 Gd 0.3243 0.67893 0.99279 0.0
Gd921 Gd 0.27724 0.64371 0.94977 0.0
C922 C 0.27469 0.64964 0.06533 0.0
C923 C 0.35179 0.70953 0.05593 0.0
C924 C 0.34482 0.72336 0.10751 0.0
C925 C 0.33929 0.70577 0.14626 0.0
C926 C 0.3439 0.75467 0.11865 0.0
C927 C 0.33205 0.75041 0.20545 0.0
C928 C 0.33762 0.76795 0.16669 0.0
C929 C 0.33314 0.71907 0.19434 0.0
C930 C 0.34455 0.63702 0.91636 0.0
C931 C 0.31209 0.69157 0.88682 0.0
C932 C 0.24933 0.6065 0.89738 0.0
C933 C 0.25263 0.5941 0.84666 0.0
C934 C 0.23369 0.57342 0.82878 0.0
C935 C 0.27389 0.60435 0.81518 0.0
C936 C 0.25667 0.57446 0.74729 0.0
C937 C 0.27632 0.59414 0.76618 0.0
C938 C 0.23548 0.56386 0.77922 0.0
C939 C 0.26033 0.70073 0.98791 0.0
O940 O 0.29379 0.67001 0.05843 0.0
O941 O 0.26777 0.63198 1.02755 0.0
O942 O 0.35363 0.68014 0.04812 0.0
O943 O 0.33957 0.7217 1.022 0.0
O944 O 0.35773 0.66018 0.93341 0.0
O945 O 0.32353 0.63375 0.94844 0.0
O946 O 0.29665 0.66723 0.88675 0.0
O947 O 0.32207 0.70387 0.9271 0.0
O948 O 0.24345 0.63524 0.90438 0.0
O949 O 0.26867 0.59804 0.92403 0.0
O950 O 0.24409 0.67786 0.98748 0.0
O951 O 0.2839 0.69075 0.96932 0.0
H952 H 0.33969 0.68162 0.13955 0.0
H953 H 0.34819 0.76899 0.09007 0.0
H954 H 0.33759 0.79209 0.17355 0.0
H955 H 0.32888 0.70472 0.22289 0.0
H956 H 0.21687 0.56565 0.85276 0.0
H957 H 0.28843 0.62057 0.82843 0.0
H958 H 0.29301 0.60261 0.74276 0.0
H959 H 0.21938 0.54956 0.76579 0.0
Gd960 Gd 0.40771 0.06202 0.80249 0.0
Gd961 Gd 0.45144 0.09465 0.74641 0.0
C962 C 0.461 0.09005 0.85702 0.0
C963 C 0.37992 0.03413 0.86853 0.0
C964 C 0.38407 0.02086 0.91516 0.0
C965 C 0.38383 0.03883 0.95983 0.0
C966 C 0.38646 0.98962 0.916 0.0
C967 C 0.38802 0.99473 1.00452 0.0
C968 C 0.38852 0.97682 0.95974 0.0
C969 C 0.38592 0.02602 1.00361 0.0
C970 C 0.38577 0.10754 0.75533 0.0
C971 C 0.40931 0.04807 0.69021 0.0
C972 C 0.47759 0.12799 0.68745 0.0
C973 C 0.47799 0.13273 0.63572 0.0
C974 C 0.50105 0.12163 0.60335 0.0
C975 C 0.4559 0.14821 0.61806 0.0
C976 C 0.47965 0.14102 0.53664 0.0
C977 C 0.45663 0.15229 0.56894 0.0
C978 C 0.50185 0.12567 0.55431 0.0
C979 C 0.47036 0.03826 0.75637 0.0
O980 O 0.44111 0.07035 0.8547 0.0
O981 O 0.46645 0.10684 0.82112 0.0
O982 O 0.37971 0.06337 0.86904 0.0
O983 O 0.39236 0.02051 0.8279 0.0
O984 O 0.37278 0.08384 0.76659 0.0
O985 O 0.40835 0.10823 0.77749 0.0
O986 O 0.42586 0.07152 0.68844 0.0
O987 O 0.40252 0.03652 0.73136 0.0
O988 O 0.48723 0.10198 0.69612 0.0
O989 O 0.45537 0.13737 0.71668 0.0
O990 O 0.48508 0.06203 0.76158 0.0
O991 O 0.44542 0.0467 0.75201 0.0
H992 H 0.38184 0.06293 0.96116 0.0
H993 H 0.38636 0.97491 0.88271 0.0
H994 H 0.39002 0.95269 0.95853 0.0
H995 H 0.38617 0.04079 1.03677 0.0
H996 H 0.5185 0.10972 0.61594 0.0
H997 H 0.43821 0.15729 0.64221 0.0
H998 H 0.43945 0.16465 0.55641 0.0
H999 H 0.51979 0.11661 0.53007 0.0
Gd1000 Gd 0.70139 0.64689 0.52943 0.0
Gd1001 Gd 0.66518 0.68968 0.48277 0.0
C1002 C 0.66647 0.70104 0.5949 0.0
C1003 C 0.73241 0.62106 0.5868 0.0
C1004 C 0.74271 0.62459 0.63623 0.0
C1005 C 0.74674 0.59905 0.66031 0.0
C1006 C 0.74965 0.65247 0.65914 0.0
C1007 C 0.76501 0.62886 0.72863 0.0
C1008 C 0.76071 0.65454 0.70461 0.0
C1009 C 0.75772 0.6011 0.70566 0.0
C1010 C 0.6523 0.62527 0.49787 0.0
C1011 C 0.70753 0.63816 0.41673 0.0
C1012 C 0.63206 0.71464 0.42827 0.0
C1013 C 0.63019 0.71829 0.37633 0.0
C1014 C 0.62642 0.74716 0.36256 0.0
C1015 C 0.63169 0.69374 0.34042 0.0
C1016 C 0.62557 0.72711 0.27801 0.0
C1017 C 0.62939 0.69812 0.29174 0.0
C1018 C 0.62424 0.75153 0.31403 0.0
C1019 C 0.71677 0.71113 0.49442 0.0
O1020 O 0.68963 0.68425 0.58706 0.0
O1021 O 0.64969 0.70407 0.5605 0.0
O1022 O 0.70565 0.6161 0.58408 0.0
O1023 O 0.74239 0.63849 0.55479 0.0
O1024 O 0.67564 0.60965 0.49663 0.0
O1025 O 0.6557 0.65068 0.52021 0.0
O1026 O 0.68588 0.65773 0.42003 0.0
O1027 O 0.72019 0.63228 0.45492 0.0
O1028 O 0.65213 0.72859 0.44905 0.0
O1029 O 0.62839 0.68809 0.44231 0.0
O1030 O 0.69319 0.72599 0.50721 0.0
O1031 O 0.71143 0.684 0.48281 0.0
H1032 H 0.74178 0.57724 0.64356 0.0
H1033 H 0.74674 0.67262 0.64177 0.0
H1034 H 0.76586 0.67634 0.7211 0.0
H1035 H 0.76117 0.58073 0.72216 0.0
H1036 H 0.62509 0.76644 0.3895 0.0
H1037 H 0.63471 0.67121 0.34985 0.0
H1038 H 0.631 0.67886 0.26477 0.0
H1039 H 0.6212 0.7741 0.30472 0.0
Gd1040 Gd 0.09458 0.93904 0.2555 0.0
Gd1041 Gd 0.05555 0.90416 0.19838 0.0
C1042 C 0.04394 0.90519 0.31251 0.0
C1043 C 0.12003 0.96365 0.32827 0.0
C1044 C 0.11378 0.97549 0.38111 0.0
C1045 C 0.13604 0.98129 0.4103 0.0
C1046 C 0.08613 0.98175 0.40294 0.0
C1047 C 0.10335 0.00028 0.48132 0.0
C1048 C 0.08101 0.99379 0.45212 0.0
C1049 C 0.13096 0.99337 0.45937 0.0
C1050 C 0.12103 0.90085 0.17719 0.0
C1051 C 0.08962 0.96113 0.15614 0.0
C1052 C 0.03427 0.87074 0.13088 0.0
C1053 C 0.04067 0.8636 0.07834 0.0
C1054 C 0.05231 0.88503 0.04979 0.0
C1055 C 0.03243 0.83637 0.05588 0.0
C1056 C 0.0434 0.85381 0.97665 0.0
C1057 C 0.03397 0.8314 1.00538 0.0
C1058 C 0.05341 0.88031 0.99937 0.0
C1059 C 0.02749 0.95348 0.24096 0.0
O1060 O 0.06009 0.92834 0.31176 0.0
O1061 O 0.04225 0.88748 0.27186 0.0
O1062 O 0.11937 0.93461 0.31673 0.0
O1063 O 0.1094 0.97874 0.29595 0.0
O1064 O 0.13059 0.92576 0.19594 0.0
O1065 O 0.09996 0.89511 0.2068 0.0
O1066 O 0.07612 0.93582 0.147 0.0
O1067 O 0.09625 0.97057 0.19992 0.0
O1068 O 0.02576 0.8983 0.14494 0.0
O1069 O 0.05189 0.86036 0.15883 0.0
O1070 O 0.01782 0.92679 0.24015 0.0
O1071 O 0.05372 0.95178 0.22723 0.0
H1072 H 0.15761 0.97674 0.39492 0.0
H1073 H 0.06839 0.97742 0.38194 0.0
H1074 H 0.05938 0.99776 0.46734 0.0
H1075 H 0.14885 0.99787 0.47992 0.0
H1076 H 0.05903 0.90614 0.06642 0.0
H1077 H 0.02365 0.81948 0.07739 0.0
H1078 H 0.02648 0.81059 0.98886 0.0
H1079 H 0.06033 0.89829 0.97859 0.0
Gd1080 Gd 0.78757 0.35251 1.00028 0.0
Gd1081 Gd 0.83176 0.31092 1.02723 0.0
C1082 C 0.82121 0.3051 0.9134 0.0
C1083 C 0.75784 0.39423 0.9696 0.0
C1084 C 0.75273 0.40263 0.92202 0.0
C1085 C 0.74199 0.43127 0.91679 0.0
C1086 C 0.75814 0.38157 0.88149 0.0
C1087 C 0.74237 0.41766 0.83016 0.0
C1088 C 0.7534 0.38914 0.83594 0.0
C1089 C 0.73663 0.43875 0.87095 0.0
C1090 C 0.7693 0.29652 1.01398 0.0
C1091 C 0.78566 0.34487 0.11293 0.0
C1092 C 0.86225 0.27529 0.06859 0.0
C1093 C 0.85716 0.26219 0.11439 0.0
C1094 C 0.87956 0.2573 0.14216 0.0
C1095 C 0.82951 0.25689 0.13258 0.0
C1096 C 0.84676 0.24098 0.2052 0.0
C1097 C 0.82437 0.2463 0.17763 0.0
C1098 C 0.87438 0.24675 0.18751 0.0
C1099 C 0.85425 0.35584 0.98237 0.0
O1100 O 0.80595 0.33069 0.92436 0.0
O1101 O 0.8309 0.29097 0.94868 0.0
O1102 O 0.74809 0.36842 0.97905 0.0
O1103 O 0.78327 0.39817 0.98237 0.0
O1104 O 0.75403 0.32089 1.02579 0.0
O1105 O 0.79263 0.30406 0.99651 0.0
O1106 O 0.80203 0.32088 0.09767 0.0
O1107 O 0.78099 0.36443 0.0821 0.0
O1108 O 0.86481 0.30436 0.07344 0.0
O1109 O 0.84638 0.26593 1.03442 0.0
O1110 O 0.86556 0.32949 0.98148 0.0
O1111 O 0.83241 0.35935 1.01333 0.0
H1112 H 0.73745 0.44761 0.94811 0.0
H1113 H 0.76636 0.35933 0.88493 0.0
H1114 H 0.75848 0.37258 0.80507 0.0
H1115 H 0.72759 0.46065 0.86759 0.0
H1116 H 0.90095 0.26179 0.12889 0.0
H1117 H 0.81186 0.26111 0.11213 0.0
H1118 H 0.80289 0.24214 0.19095 0.0
H1119 H 0.89187 0.2426 0.20836 0.0
Gd1120 Gd 0.40719 0.9496 0.30238 0.0
Gd1121 Gd 0.44296 0.89953 0.24623 0.0
C1122 C 0.45957 0.91816 0.3531 0.0
C1123 C 0.37018 0.98059 0.36137 0.0
C1124 C 0.36369 0.98446 0.41363 0.0
C1125 C 0.3508 0.01139 0.4353 0.0
C1126 C 0.37536 0.96435 0.44208 0.0
C1127 C 0.36618 0.00074 0.51226 0.0
C1128 C 0.37655 0.97244 0.49137 0.0
C1129 C 0.35203 0.01954 0.48459 0.0
C1130 C 0.44908 0.96927 0.24569 0.0
C1131 C 0.40331 0.94071 0.18689 0.0
C1132 C 0.47304 0.86067 0.1866 0.0
C1133 C 0.48212 0.85647 0.13439 0.0
C1134 C 0.50669 0.83942 0.11705 0.0
C1135 C 0.46654 0.86975 0.10162 0.0
C1136 C 0.50046 0.85008 1.03488 0.0
C1137 C 0.47571 0.8668 0.05232 0.0
C1138 C 0.51571 0.83602 0.06743 0.0
C1139 C 0.39999 0.88366 0.30965 0.0
O1140 O 0.43501 0.9338 0.36022 0.0
O1141 O 0.46901 0.90577 0.30932 0.0
O1142 O 0.39468 0.99064 0.34673 0.0
O1143 O 0.36514 0.95442 0.33936 0.0
O1144 O 0.4251 0.98351 0.25679 0.0
O1145 O 0.4513 0.94681 0.26912 0.0
O1146 O 0.42538 0.92209 0.1853 0.0
O1147 O 0.38958 0.95097 0.22922 0.0
O1148 O 0.44607 0.85818 0.19874 0.0
O1149 O 0.48377 0.88324 0.21131 0.0
O1150 O 0.42473 0.87068 0.30248 0.0
O1151 O 0.39899 0.90331 0.28075 0.0
H1152 H 0.34189 0.02715 0.41349 0.0
H1153 H 0.38568 0.94363 0.42552 0.0
H1154 H 0.38788 0.9578 0.51197 0.0
H1155 H 0.34391 0.04145 0.50029 0.0
H1156 H 0.51892 0.82887 0.14188 0.0
H1157 H 0.44723 0.88231 0.11423 0.0
H1158 H 0.46337 0.87741 1.02769 0.0
H1159 H 0.53477 0.8229 0.05458 0.0
Gd1160 Gd 0.79988 0.65699 1.03073 0.0
Gd1161 Gd 0.84565 0.68886 0.99145 0.0
C1162 C 0.82193 0.7151 0.09398 0.0
C1163 C 0.76771 0.62264 0.07807 0.0
C1164 C 0.76506 0.61197 0.12567 0.0
C1165 C 0.74345 0.59269 0.13709 0.0
C1166 C 0.78202 0.62328 0.16122 0.0
C1167 C 0.75231 0.60054 0.22151 0.0
C1168 C 0.77572 0.61751 0.20908 0.0
C1169 C 0.73708 0.58694 0.18495 0.0
C1170 C 0.77993 0.69811 0.9754 0.0
C1171 C 0.81372 0.64399 0.91702 0.0
C1172 C 0.88187 0.71397 0.93488 0.0
C1173 C 0.88094 0.7227 0.8853 0.0
C1174 C 0.90593 0.72713 0.85658 0.0
C1175 C 0.85502 0.72608 0.86592 0.0
C1176 C 0.87907 0.73854 0.78985 0.0
C1177 C 0.8541 0.73378 0.81866 0.0
C1178 C 0.90502 0.73504 0.80931 0.0
C1179 C 0.86176 0.65571 0.06396 0.0
O1180 O 0.80996 0.68886 0.0954 0.0
O1181 O 0.83285 0.72345 0.05258 0.0
O1182 O 0.76223 0.65127 0.07756 0.0
O1183 O 0.79007 0.6128 0.04968 0.0
O1184 O 0.76975 0.67212 0.98021 0.0
O1185 O 0.79974 0.70236 1.00278 0.0
O1186 O 0.82903 0.66768 0.92297 0.0
O1187 O 0.80375 0.63156 0.95558 0.0
O1188 O 0.88239 0.68517 0.93861 0.0
O1189 O 0.86457 0.72898 0.96851 0.0
O1190 O 0.87182 0.68082 0.05304 0.0
O1191 O 0.84562 0.64695 1.03111 0.0
H1192 H 0.73037 0.5837 0.10965 0.0
H1193 H 0.79879 0.63819 0.15254 0.0
H1194 H 0.78745 0.62862 0.23682 0.0
H1195 H 0.7189 0.5739 0.19401 0.0
H1196 H 0.92616 0.72431 0.8706 0.0
H1197 H 0.83543 0.72267 0.88731 0.0
H1198 H 0.83381 0.73623 0.80472 0.0
H1199 H 0.92464 0.7379 0.78767 0.0
Gd1200 Gd 0.08062 0.04337 0.80331 0.0
Gd1201 Gd 0.04165 0.09011 0.77673 0.0
C1202 C 0.02631 0.07036 0.88103 0.0
C1203 C 0.12004 0.01634 0.84081 0.0
C1204 C 0.12898 0.01952 0.88943 0.0
C1205 C 0.14495 0.99653 0.90499 0.0
C1206 C 0.11646 0.04241 0.92302 0.0
C1207 C 0.12975 0.01541 0.98796 0.0
C1208 C 0.11719 0.04062 0.97227 0.0
C1209 C 0.1454 0.99449 0.95449 0.0
C1210 C 0.03978 0.01916 0.75446 0.0
C1211 C 0.08167 0.05145 0.68889 0.0
C1212 C 0.00939 0.12646 0.73933 0.0
C1213 C 0.99678 0.12764 0.69326 0.0
C1214 C 0.00173 0.1522 0.66687 0.0
C1215 C 0.98028 0.10445 0.6748 0.0
C1216 C 0.97433 0.13025 0.60368 0.0
C1217 C 0.96907 0.10583 0.63053 0.0
C1218 C 0.99081 0.15341 0.62233 0.0
C1219 C 0.08186 0.11051 0.83501 0.0
O1220 O 0.05227 0.05765 0.87561 0.0
O1221 O 0.01569 0.0808 0.84384 0.0
O1222 O 0.09471 0.00598 0.83848 0.0
O1223 O 0.12444 0.0393 0.81624 0.0
O1224 O 0.06486 0.00721 0.7529 0.0
O1225 O 0.03653 0.04206 0.78523 0.0
O1226 O 0.05868 0.06844 0.70198 0.0
O1227 O 0.0966 0.04198 0.72271 0.0
O1228 O 0.0368 0.12871 0.73734 0.0
O1229 O -0.00016 0.10651 0.76725 0.0
O1230 O 0.05619 0.12085 0.83864 0.0
O1231 O 0.08538 0.09109 0.79862 0.0
H1232 H 0.15453 0.97862 0.87927 0.0
H1233 H 0.10343 0.05975 0.91148 0.0
H1234 H 0.10473 0.05668 0.99778 0.0
H1235 H 0.15491 0.97471 0.96631 0.0
H1236 H 0.01454 0.17023 0.68033 0.0
H1237 H 0.97627 0.0851 0.69418 0.0
H1238 H 0.95653 0.08761 0.617 0.0
H1239 H 0.99603 0.17205 0.60185 0.0
Gd1240 Gd 0.71974 0.36072 0.42556 0.0
Gd1241 Gd 0.67496 0.3208 0.38428 0.0
C1242 C 0.68942 0.31181 0.49106 0.0
C1243 C 0.74608 0.40062 0.47587 0.0
C1244 C 0.7416 0.41283 0.52661 0.0
C1245 C 0.76227 0.42897 0.54945 0.0
C1246 C 0.71744 0.40503 0.5538 0.0
C1247 C 0.73469 0.42778 0.62737 0.0
C1248 C 0.71347 0.41333 0.60323 0.0
C1249 C 0.75903 0.4361 0.59985 0.0
C1250 C 0.74005 0.30434 0.3894 0.0
C1251 C 0.72219 0.3523 0.31045 0.0
C1252 C 0.6488 0.28642 0.32381 0.0
C1253 C 0.65533 0.27232 0.27261 0.0
C1254 C 0.63388 0.26953 0.24119 0.0
C1255 C 0.68272 0.26189 0.25423 0.0
C1256 C 0.66682 0.2457 0.17445 0.0
C1257 C 0.68837 0.24876 0.20593 0.0
C1258 C 0.63953 0.25652 0.19293 0.0
C1259 C 0.65162 0.36171 0.45971 0.0
O1260 O 0.70268 0.33749 0.48995 0.0
O1261 O 0.67999 0.2978 0.45143 0.0
O1262 O 0.75363 0.37227 0.46952 0.0
O1263 O 0.72619 0.40729 0.4489 0.0
O1264 O 0.75482 0.32827 0.38909 0.0
O1265 O 0.71607 0.31298 0.40774 0.0
O1266 O 0.70449 0.33073 0.31815 0.0
O1267 O 0.72776 0.37146 0.34731 0.0
O1268 O 0.64499 0.31569 0.32986 0.0
O1269 O 0.66313 0.27629 0.35718 0.0
O1270 O 0.6402 0.33754 0.44211 0.0
O1271 O 0.6725 0.36652 0.428 0.0
H1272 H 0.78149 0.43448 0.52888 0.0
H1273 H 0.70252 0.39085 0.53693 0.0
H1274 H 0.69465 0.4064 0.62316 0.0
H1275 H 0.77632 0.44627 0.61722 0.0
H1276 H 0.6126 0.27743 0.25404 0.0
H1277 H 0.69987 0.26401 0.27714 0.0
H1278 H 0.70979 0.24145 0.19303 0.0
H1279 H 0.62234 0.25464 0.1701 0.0
C1280 C 0.12618 0.49011 0.21858 0.0
C1281 C 0.09936 0.47764 0.22195 0.0
C1282 C 0.13741 0.50331 0.25998 0.0
C1283 C 0.12165 0.50502 0.30515 0.0
H1284 H 0.13921 0.48805 0.18434 0.0
H1285 H 0.15871 0.51123 0.25701 0.0
S1286 S 0.04876 0.48028 0.3315 0.0
N1287 N 0.05618 0.47111 0.27271 0.0
N1288 N 0.07719 0.49601 0.35063 0.0
C1289 C 0.09412 0.49453 0.30833 0.0
C1290 C 0.08291 0.48084 0.26654 0.0
C1291 C 0.74546 0.88543 0.55184 0.0
C1292 C 0.74907 0.86777 0.58947 0.0
C1293 C 0.7582 0.87654 0.50506 0.0
C1294 C 0.77522 0.85021 0.49559 0.0
H1295 H 0.73302 0.90615 0.55872 0.0
H1296 H 0.7555 0.89078 0.47665 0.0
S1297 S 0.78911 0.79565 0.5825 0.0
N1298 N 0.76922 0.82247 0.61465 0.0
N1299 N 0.79331 0.80572 0.52707 0.0
C1300 C 0.77827 0.83214 0.53306 0.0
C1301 C 0.76516 0.841 0.58011 0.0
C1302 C 0.38275 0.49466 0.76589 0.0
C1303 C 0.39535 0.52266 0.77313 0.0
C1304 C 0.37102 0.48048 0.80516 0.0
C1305 C 0.37106 0.49422 0.85258 0.0
H1306 H 0.38181 0.48361 0.72969 0.0
H1307 H 0.362 0.45873 0.79855 0.0
S1308 S 0.4022 0.56629 0.89163 0.0
N1309 N 0.40789 0.56273 0.83208 0.0
N1310 N 0.38573 0.53614 0.90535 0.0
C1311 C 0.38397 0.52178 0.86038 0.0
C1312 C 0.39616 0.536 0.82079 0.0
C1313 C 0.72422 0.07218 0.18677 0.0
C1314 C 0.74859 0.0605 0.20374 0.0
C1315 C 0.72201 0.07235 0.13715 0.0
C1316 C 0.74403 0.06067 0.10281 0.0
H1317 H 0.70757 0.08313 0.212 0.0
H1318 H 0.70374 0.08352 0.12587 0.0
S1319 S 0.81 0.02274 0.12884 0.0
N1320 N 0.79364 0.0339 0.18276 0.0
N1321 N 0.78919 0.03331 0.08909 0.0
C1322 C 0.76749 0.04672 0.1193 0.0
C1323 C 0.76986 0.04688 0.16989 0.0
C1324 C 0.86788 0.51893 0.1524 0.0
C1325 C 0.89603 0.52747 0.15297 0.0
C1326 C 0.85793 0.50611 0.10951 0.0
C1327 C 0.87622 0.50071 0.06697 0.0
H1328 H 0.85323 0.52348 0.18459 0.0
H1329 H 0.83585 0.50106 0.10925 0.0
S1330 S 0.95222 0.51676 0.05111 0.0
N1331 N 0.94223 0.52835 0.10841 0.0
N1332 N 0.92378 0.50349 1.02817 0.0
C1333 C 0.90466 0.50794 0.06781 0.0
C1334 C 0.91454 0.52153 0.11086 0.0
C1335 C 0.23992 0.13098 0.87286 0.0
C1336 C 0.22168 0.15644 0.88096 0.0
C1337 C 0.25236 0.12126 0.82625 0.0
C1338 C 0.24716 0.13716 0.78721 0.0
H1339 H 0.24355 0.11776 0.9022 0.0
H1340 H 0.26544 0.10095 0.82047 0.0
S1341 S 0.20407 0.20703 0.79043 0.0
N1342 N 0.20109 0.19863 0.84694 0.0
N1343 N 0.2248 0.18044 0.75939 0.0
C1344 C 0.23023 0.16339 0.79523 0.0
C1345 C 0.21738 0.17308 0.84227 0.0
C1346 C 0.61633 0.47823 0.52536 0.0
C1347 C 0.63198 0.50414 0.531 0.0
C1348 C 0.60318 0.46636 0.56524 0.0
C1349 C 0.60579 0.47951 0.61246 0.0
H1350 H 0.61348 0.46751 0.48954 0.0
H1351 H 0.59139 0.44631 0.55869 0.0
S1352 S 0.64346 0.54895 0.64581 0.0
N1353 N 0.6482 0.54392 0.58601 0.0
N1354 N 0.62452 0.52082 0.6625 0.0
C1355 C 0.62121 0.50581 0.61863 0.0
C1356 C 0.63413 0.51829 0.57748 0.0
C1357 C 0.20503 0.93089 0.25328 0.0
C1358 C 0.22855 0.93666 0.27925 0.0
C1359 C 0.20624 0.93407 0.20373 0.0
C1360 C 0.23108 0.94292 0.17863 0.0
H1361 H 0.18624 0.92199 0.27069 0.0
H1362 H 0.18849 0.92711 0.18422 0.0
S1363 S 0.29695 0.96466 0.23184 0.0
N1364 N 0.27621 0.95462 0.27776 0.0
N1365 N 0.27839 0.96103 0.18452 0.0
C1366 C 0.25381 0.95133 0.20517 0.0
C1367 C 0.25255 0.94811 0.25562 0.0
C1368 C 0.60134 0.94227 0.80609 0.0
C1369 C 0.6128 0.97051 0.81307 0.0
C1370 C 0.59023 0.93296 0.76305 0.0
C1371 C 0.5908 0.9512 0.72497 0.0
H1372 H 0.59956 0.92791 0.83511 0.0
H1373 H 0.58136 0.91112 0.75983 0.0
S1374 S 0.61876 0.02751 0.72638 0.0
N1375 N 0.62396 0.01713 0.78011 0.0
N1376 N 0.60408 -0.00099 0.69717 0.0
C1377 C 0.60292 0.97937 0.73115 0.0
C1378 C 0.61375 0.98914 0.77573 0.0
C1379 C 0.29392 0.35277 0.04651 0.0
C1380 C 0.28073 0.36138 1.00677 0.0
C1381 C 0.28358 0.36295 0.0937 0.0
C1382 C 0.25941 0.38171 0.10309 0.0
H1383 H 0.31257 0.33815 0.04146 0.0
H1384 H 0.29417 0.35535 0.12322 0.0
S1385 S 0.21647 0.41053 1.01304 0.0
N1386 N 0.24208 0.3902 0.98027 0.0
N1387 N 0.22204 0.40833 0.07022 0.0
C1388 C 0.24571 0.39042 0.06428 0.0
C1389 C 0.25654 0.3805 1.01576 0.0
C1390 C 0.91302 0.00773 0.29534 0.0
C1391 C 0.89427 0.01302 0.2612 0.0
C1392 C 0.90421 0.99336 0.33564 0.0
C1393 C 0.87623 0.98449 0.34339 0.0
H1394 H 0.93448 0.0152 0.2913 0.0
H1395 H 0.91898 0.99059 0.36229 0.0
S1396 S 0.81933 0.99268 0.26395 0.0
N1397 N 0.847 0.00721 0.23598 0.0
N1398 N 0.83006 0.98121 0.31385 0.0
C1399 C 0.85744 0.98896 0.30903 0.0
C1400 C 0.86663 0.00294 0.26717 0.0
C1401 C 0.25502 0.59153 0.61817 0.0
C1402 C 0.24591 0.56491 0.59476 0.0
C1403 C 0.25949 0.59383 0.66691 0.0
C1404 C 0.25566 0.56932 0.69412 0.0
H1405 H 0.25749 0.61124 0.59905 0.0
H1406 H 0.26458 0.61556 0.68376 0.0
S1407 S 0.23625 0.49308 0.64703 0.0
N1408 N 0.2357 0.51268 0.60009 0.0
N1409 N 0.24551 0.51637 0.69224 0.0
C1410 C 0.24855 0.54178 0.67011 0.0
C1411 C 0.24353 0.53965 0.62017 0.0
C1412 C 0.40227 0.04971 0.60342 0.0
C1413 C 0.39819 0.03497 0.64549 0.0
C1414 C 0.39082 0.03895 0.56109 0.0
C1415 C 0.37518 0.01287 0.55907 0.0
H1416 H 0.41417 0.06992 0.6031 0.0
H1417 H 0.39483 0.05076 0.52928 0.0
S1418 S 0.35865 0.96553 0.65827 0.0
N1419 N 0.37738 0.99265 0.68224 0.0
N1420 N 0.35618 0.97235 0.60171 0.0
C1421 C 0.37103 0.99771 0.60043 0.0
C1422 C 0.38247 0.00879 0.6439 0.0
C1423 C 0.7126 0.61678 0.28206 0.0
C1424 C 0.7398 0.60371 0.27199 0.0
C1425 C 0.70205 0.6268 0.32932 0.0
C1426 C 0.7182 0.62385 0.36835 0.0
H1427 H 0.70002 0.62109 0.25292 0.0
H1428 H 0.68143 0.63788 0.33487 0.0
S1429 S 0.78932 0.58717 0.36113 0.0
N1430 N 0.78179 0.58572 0.3043 0.0
N1431 N 0.76166 0.60371 0.39419 0.0
C1432 C 0.74467 0.60871 0.3591 0.0
C1433 C 0.7556 0.59893 0.31058 0.0
C1434 C 0.12565 0.98955 0.11245 0.0
C1435 C 0.09835 0.97832 0.11631 0.0
C1436 C 0.13583 0.00267 0.07121 0.0
C1437 C 0.1185 0.00566 1.034 0.0
H1438 H 0.13968 0.98675 0.14021 0.0
H1439 H 0.15741 0.00976 0.06779 0.0
S1440 S 0.04482 0.9818 1.02898 0.0
N1441 N 0.05392 0.9721 0.08108 0.0
N1442 N 0.07264 0.99764 1.00402 0.0
C1443 C 0.09077 0.99572 1.03858 0.0
C1444 C 0.08073 0.98181 0.07981 0.0
C1445 C 0.72276 0.404 0.70292 0.0
C1446 C 0.73321 0.42885 0.68092 0.0
C1447 C 0.72379 0.40203 0.75206 0.0
C1448 C 0.73639 0.42415 0.78124 0.0
H1449 H 0.71489 0.38496 0.68183 0.0
H1450 H 0.71591 0.38212 0.76682 0.0
S1451 S 0.76377 0.49554 0.74357 0.0
N1452 N 0.75316 0.47806 0.69371 0.0
N1453 N 0.75732 0.47306 0.78629 0.0
C1454 C 0.7456 0.44995 0.76083 0.0
C1455 C 0.74374 0.45245 0.71054 0.0
C1456 C 0.11477 0.34512 0.23376 0.0
C1457 C 0.13124 0.35994 0.26842 0.0
C1458 C 0.11042 0.35608 0.18854 0.0
C1459 C 0.12202 0.38287 0.17457 0.0
H1460 H 0.10526 0.32427 0.24126 0.0
H1461 H 0.09825 0.34292 0.16382 0.0
S1462 S 0.16769 0.43047 0.25046 0.0
N1463 N 0.15932 0.40331 0.28419 0.0
N1464 N 0.15216 0.42331 0.20015 0.0
C1465 C 0.13894 0.39772 0.20864 0.0
C1466 C 0.14313 0.38664 0.25497 0.0
C1467 C 0.90812 0.86581 0.45557 0.0
C1468 C 0.8964 0.87834 0.50193 0.0
C1469 C 0.89206 0.8628 0.41527 0.0
C1470 C 0.8635 0.87222 0.41927 0.0
H1471 H 0.93003 0.85831 0.45018 0.0
H1472 H 0.90201 0.8526 0.38079 0.0
S1473 S 0.82289 0.90744 0.53215 0.0
N1474 N 0.85419 0.89963 0.54927 0.0
N1475 N 0.8248 0.89654 0.47347 0.0
C1476 C 0.85179 0.88564 0.46515 0.0
C1477 C 0.86793 0.88784 0.50645 0.0
C1478 C 0.36518 0.64293 0.82827 0.0
C1479 C 0.34988 0.62538 0.86114 0.0
C1480 C 0.37206 0.63355 0.77752 0.0
C1481 C 0.36451 0.60556 0.75525 0.0
H1482 H 0.3723 0.66456 0.842 0.0
H1483 H 0.38376 0.64847 0.75571 0.0
S1484 S 0.32308 0.55064 0.82266 0.0
N1485 N 0.32705 0.57816 0.8653 0.0
N1486 N 0.33881 0.56091 0.77189 0.0
C1487 C 0.34844 0.58806 0.78744 0.0
C1488 C 0.34163 0.59763 0.83928 0.0
C1489 C 0.63169 0.15472 0.97473 0.0
C1490 C 0.64408 0.13609 0.93397 0.0
C1491 C 0.61757 0.14323 1.01459 0.0
C1492 C 0.61455 0.11242 1.01594 0.0
H1493 H 0.63135 0.17881 0.97501 0.0
H1494 H 0.60727 0.1589 0.04338 0.0
S1495 S 0.6448 0.05356 0.9206 0.0
N1496 N 0.6541 0.08506 0.89902 0.0
N1497 N 0.62696 0.06309 0.974 0.0
C1498 C 0.62828 0.09323 0.97699 0.0
C1499 C 0.64311 0.10514 0.93604 0.0
C1500 C 0.12651 0.60966 0.49953 0.0
C1501 C 0.0973 0.61547 0.51057 0.0
C1502 C 0.1405 0.61643 0.45497 0.0
C1503 C 0.12602 0.62929 0.42008 0.0
H1504 H 0.13879 0.60097 0.52607 0.0
H1505 H 0.16289 0.61343 0.44913 0.0
S1506 S 0.04936 0.64766 0.42982 0.0
N1507 N 0.05437 0.63407 0.48121 0.0
N1508 N 0.08052 0.64556 0.39847 0.0
C1509 C 0.09665 0.63332 0.42964 0.0
C1510 C 0.08245 0.62706 0.47472 0.0
C1511 C 0.60423 0.8433 0.67784 0.0
C1512 C 0.61504 0.87014 0.66258 0.0
C1513 C 0.61055 0.83244 0.72243 0.0
C1514 C 0.6279 0.84767 0.75545 0.0
H1515 H 0.59065 0.83042 0.65524 0.0
H1516 H 0.60143 0.81164 0.7312 0.0
S1517 S 0.66338 0.91817 0.73274 0.0
N1518 N 0.64629 0.9105 0.6843 0.0
N1519 N 0.65612 0.89128 0.76761 0.0
C1520 C 0.63914 0.87427 0.74037 0.0
C1521 C 0.6334 0.88495 0.6944 0.0
C1522 C 0.41155 0.36578 0.95696 0.0
C1523 C 0.40082 0.38002 1.00283 0.0
C1524 C 0.39498 0.36278 0.91729 0.0
C1525 C 0.36703 0.37421 0.92146 0.0
H1526 H 0.43304 0.3569 0.95147 0.0
H1527 H 0.40406 0.35118 0.8832 0.0
S1528 S 0.32932 0.41479 1.03287 0.0
N1529 N 0.35996 0.40447 0.05003 0.0
N1530 N 0.33037 0.4028 0.97471 0.0
C1531 C 0.35647 0.38946 0.96667 0.0
C1532 C 0.37285 0.39116 1.00753 0.0
C1533 C 0.84824 0.09769 0.34146 0.0
C1534 C 0.85834 0.12451 0.364 0.0
C1535 C 0.85407 0.0884 0.2903 0.0
C1536 C 0.87066 0.10498 0.2576 0.0
H1537 H 0.83558 0.08359 0.36345 0.0
H1538 H 0.84534 0.06768 0.27622 0.0
S1539 S 0.90163 0.17759 0.29586 0.0
N1540 N 0.88639 0.16748 0.34701 0.0
N1541 N 0.89552 0.15091 0.25323 0.0
C1542 C 0.88061 0.13187 0.27956 0.0
C1543 C 0.87509 0.14117 0.33155 0.0
C1544 C 0.86135 0.60486 0.17107 0.0
C1545 C 0.87746 0.62046 0.20564 0.0
C1546 C 0.85645 0.61558 0.12573 0.0
C1547 C 0.86699 0.64294 0.1121 0.0
H1548 H 0.8525 0.58377 0.17886 0.0
H1549 H 0.84416 0.60228 0.1013 0.0
S1550 S 0.90802 0.69443 0.19075 0.0
N1551 N 0.90195 0.66616 0.22321 0.0
N1552 N 0.89345 0.68605 0.13982 0.0
C1553 C 0.88257 0.65904 0.14698 0.0
C1554 C 0.88754 0.64805 0.1929 0.0
C1555 C 0.08834 0.12433 0.92328 0.0
C1556 C 0.10029 0.11455 0.87578 0.0
C1557 C 0.10495 0.12828 0.96272 0.0
C1558 C 0.13433 0.12289 0.95639 0.0
H1559 H 0.06588 0.12909 0.93016 0.0
H1560 H 0.09484 0.13656 0.99815 0.0
S1561 S 0.17586 0.09561 0.83987 0.0
N1562 N 0.14331 0.09919 0.82516 0.0
N1563 N 0.1743 0.10524 0.8989 0.0
C1564 C 0.14635 0.11197 0.90939 0.0
C1565 C 0.12947 0.10838 0.86919 0.0
C1566 C 0.65012 0.40203 0.53654 0.0
C1567 C 0.64473 0.37308 0.51496 0.0
C1568 C 0.64383 0.41106 0.58766 0.0
C1569 C 0.63058 0.39244 0.62106 0.0
H1570 H 0.65984 0.41787 0.51396 0.0
H1571 H 0.64959 0.43327 0.60121 0.0
S1572 S 0.60837 0.3156 0.58427 0.0
N1573 N 0.62264 0.3266 0.53306 0.0
N1574 N 0.61134 0.34362 0.62641 0.0
C1575 C 0.6242 0.36391 0.59977 0.0
C1576 C 0.6308 0.3545 0.54799 0.0
C1577 C 0.3801 0.87603 0.44261 0.0
C1578 C 0.35041 0.87616 0.4471 0.0
C1579 C 0.39567 0.87908 0.39837 0.0
C1580 C 0.38245 0.88424 0.35693 0.0
H1581 H 0.39155 0.86993 0.47218 0.0
H1582 H 0.41834 0.87601 0.3962 0.0
S1583 S 0.3056 0.89409 0.3512 0.0
N1584 N 0.30851 0.8865 0.40737 0.0
N1585 N 0.33804 0.89412 0.32473 0.0
C1586 C 0.35295 0.88818 0.36202 0.0
C1587 C 0.33688 0.88403 0.40709 0.0
C1588 C 0.91337 0.38099 0.90197 0.0
C1589 C 0.90046 0.38884 0.86151 0.0
C1590 C 0.89749 0.37558 0.94494 0.0
C1591 C 0.86778 0.37654 0.94926 0.0
H1592 H 0.93606 0.37799 0.90005 0.0
H1593 H 0.90866 0.36769 0.97358 0.0
S1594 S 0.8239 0.39944 0.8552 0.0
N1595 N 0.85645 0.40052 0.82985 0.0
N1596 N 0.82633 0.38887 0.90978 0.0
C1597 C 0.85463 0.38627 0.91004 0.0
C1598 C 0.87101 0.39255 0.86635 0.0
C1599 C 0.35935 0.11797 0.62844 0.0
C1600 C 0.36717 0.14695 0.61836 0.0
C1601 C 0.36499 0.10616 0.67253 0.0
C1602 C 0.37974 0.12193 0.70895 0.0
H1603 H 0.34854 0.10424 0.60225 0.0
H1604 H 0.35782 0.08398 0.67779 0.0
S1605 S 0.40139 0.20038 0.70492 0.0
N1606 N 0.38802 0.19234 0.6527 0.0
N1607 N 0.39899 0.16981 0.73298 0.0
C1608 C 0.38682 0.15121 0.70006 0.0
C1609 C 0.38058 0.16358 0.65574 0.0
C1610 C 0.62721 0.6054 0.37243 0.0
C1611 C 0.59906 0.61615 0.37771 0.0
C1612 C 0.64362 0.60685 0.41208 0.0
C1613 C 0.63314 0.62052 0.45834 0.0
H1614 H 0.63673 0.59582 0.33734 0.0
H1615 H 0.66492 0.59757 0.40604 0.0
S1616 S 0.56104 0.65303 0.49177 0.0
N1617 N 0.56134 0.64086 0.43373 0.0
N1618 N 0.59273 0.64488 0.5071 0.0
C1619 C 0.60512 0.63152 0.46417 0.0
C1620 C 0.5881 0.62937 0.42411 0.0
C1621 C 0.14845 0.89814 1.03791 0.0
C1622 C 0.13952 0.8707 1.01561 0.0
C1623 C 0.14271 0.90718 0.08913 0.0
C1624 C 0.12762 0.88956 0.12213 0.0
H1625 H 0.15951 0.91311 1.01541 0.0
H1626 H 0.15009 0.92865 0.10297 0.0
S1627 S 0.1018 0.81421 0.08496 0.0
N1628 N 0.11522 0.82544 1.03339 0.0
N1629 N 0.10658 0.84155 0.12734 0.0
C1630 C 0.11941 0.86176 0.10054 0.0
C1631 C 0.12467 0.85276 0.04849 0.0
C1632 C 0.01242 0.51919 0.21342 0.0
C1633 C 0.98386 0.51627 0.23001 0.0
C1634 C 0.02528 0.50119 0.17304 0.0
C1635 C 0.01047 0.47883 0.14796 0.0
H1636 H 0.02489 0.53626 0.23074 0.0
H1637 H 0.04731 0.50438 0.16229 0.0
S1638 S 0.93562 0.46067 0.17821 0.0
N1639 N 0.94161 0.4881 0.21965 0.0
N1640 N 0.96539 0.4548 0.14298 0.0
C1641 C 0.98189 0.47554 0.16428 0.0
C1642 C 0.96888 0.49372 0.20581 0.0
C1643 C 0.75098 0.77234 0.42815 0.0
C1644 C 0.76974 0.75659 0.39183 0.0
C1645 C 0.73568 0.75759 0.46341 0.0
C1646 C 0.73793 0.72628 0.46352 0.0
H1647 H 0.74855 0.79644 0.43033 0.0
H1648 H 0.7214 0.77091 0.49019 0.0
S1649 S 0.7842 0.67452 0.37629 0.0
N1650 N 0.78962 0.70781 0.35802 0.0
N1651 N 0.76103 0.68011 0.42441 0.0
C1652 C 0.75668 0.71022 0.42749 0.0
C1653 C 0.77224 0.72528 0.39142 0.0
C1654 C 0.51783 0.47963 0.6672 0.0
C1655 C 0.51762 0.48199 0.71824 0.0
C1656 C 0.50166 0.49926 0.64417 0.0
C1657 C 0.48469 0.52177 0.67151 0.0
H1658 H 0.53028 0.46216 0.6448 0.0
H1659 H 0.50236 0.49673 0.60498 0.0
S1660 S 0.47823 0.53836 0.80599 0.0
N1661 N 0.49988 0.50877 0.79503 0.0
N1662 N 0.47004 0.54644 0.75243 0.0
C1663 C 0.48485 0.5247 0.7226 0.0
C1664 C 0.50115 0.50455 0.74587 0.0
C1665 C 0.73886 0.25376 0.91074 0.0
C1666 C 0.75342 0.22599 0.90744 0.0
C1667 C 0.7413 0.27568 0.94943 0.0
C1668 C 0.75844 0.2706 0.98635 0.0
H1669 H 0.72494 0.25833 0.88364 0.0
H1670 H 0.73085 0.29729 0.94902 0.0
S1671 S 0.80055 0.20158 0.9957 0.0
N1672 N 0.78498 0.1943 0.94547 0.0
N1673 N 0.79018 0.23602 1.01748 0.0
C1674 C 0.77298 0.24293 0.98372 0.0
C1675 C 0.7705 0.22057 0.94435 0.0
C1676 C 0.00956 0.47945 0.7158 0.0
C1677 C 0.98195 0.49158 0.72205 0.0
C1678 C 0.02876 0.48729 0.67848 0.0
C1679 C 0.0208 0.50728 0.64611 0.0
H1680 H 0.01648 0.46413 0.7402 0.0
H1681 H 0.0501 0.47802 0.67552 0.0
S1682 S 0.95009 0.54261 0.64381 0.0
N1683 N 0.94712 0.52337 0.69124 0.0
N1684 N 0.983 0.53693 0.62 0.0
C1685 C 0.99302 0.51873 0.65096 0.0
C1686 C 0.97363 0.5112 0.68932 0.0
C1687 C 0.76853 0.75223 0.9633 0.0
C1688 C 0.76412 0.72152 0.95273 0.0
C1689 C 0.75244 0.77413 0.94394 0.0
C1690 C 0.73123 0.7664 0.91301 0.0
H1691 H 0.78428 0.75946 0.9872 0.0
H1692 H 0.75665 0.79744 0.9535 0.0
S1693 S 0.71246 0.68905 0.87149 0.0
N1694 N 0.7376 0.68458 0.90729 0.0
N1695 N 0.70757 0.72553 0.87165 0.0
C1696 C 0.72683 0.73579 0.90178 0.0
C1697 C 0.74324 0.71349 0.9213 0.0
C1698 C 0.47508 0.50857 0.19447 0.0
C1699 C 0.48348 0.48595 0.15669 0.0
C1700 C 0.49393 0.51962 0.22691 0.0
C1701 C 0.52173 0.50825 0.22276 0.0
H1702 H 0.45367 0.51774 0.19935 0.0
H1703 H 0.48664 0.53699 0.25551 0.0
S1704 S 0.55449 0.44995 0.12858 0.0
N1705 N 0.52155 0.45341 0.11579 0.0
N1706 N 0.55714 0.47374 0.17703 0.0
C1707 C 0.53048 0.48576 0.18486 0.0
C1708 C 0.51128 0.47467 0.15171 0.0
C1709 C 0.73754 0.22923 0.43767 0.0
C1710 C 0.76008 0.22961 0.46697 0.0
C1711 C 0.73311 0.2523 0.40864 0.0
C1712 C 0.75089 0.27685 0.40759 0.0
H1713 H 0.72361 0.21056 0.43594 0.0
H1714 H 0.71492 0.25147 0.38803 0.0
S1715 S 0.81281 0.28859 0.47798 0.0
N1716 N 0.80034 0.25658 0.4931 0.0
N1717 N 0.79199 0.30003 0.43896 0.0
C1718 C 0.77364 0.2774 0.43642 0.0
C1719 C 0.77807 0.25391 0.46615 0.0
C1720 C 0.26559 0.23833 0.91793 0.0
C1721 C 0.26298 0.26793 0.90566 0.0
C1722 C 0.24594 0.227 0.9516 0.0
C1723 C 0.22278 0.24473 0.97381 0.0
H1724 H 0.28307 0.22374 0.9017 0.0
H1725 H 0.24833 0.20393 0.95844 0.0
S1726 S 0.20703 0.32402 0.95699 0.0
N1727 N 0.2357 0.31482 0.92011 0.0
N1728 N 0.19941 0.29389 0.98406 0.0
C1729 C 0.22066 0.27467 0.96353 0.0
C1730 C 0.24034 0.28605 0.92896 0.0
C1731 C 0.23182 0.7479 0.40092 0.0
C1732 C 0.24411 0.71954 0.40372 0.0
C1733 C 0.23267 0.77087 0.43849 0.0
C1734 C 0.24593 0.76634 0.48029 0.0
H1735 H 0.22059 0.75202 0.37009 0.0
H1736 H 0.22398 0.79275 0.43378 0.0
S1737 S 0.28118 0.69629 0.50575 0.0
N1738 N 0.26943 0.68796 0.45221 0.0
N1739 N 0.27205 0.73181 0.52209 0.0
C1740 C 0.25856 0.73826 0.48341 0.0
C1741 C 0.25754 0.71473 0.44524 0.0
C1742 C 0.26916 0.25693 0.46944 0.0
C1743 C 0.26352 0.22644 0.46003 0.0
C1744 C 0.25312 0.27929 0.45114 0.0
C1745 C 0.23073 0.27231 0.42235 0.0
H1746 H 0.28594 0.26367 0.49146 0.0
H1747 H 0.25841 0.30239 0.45967 0.0
S1748 S 0.20783 0.19582 0.38554 0.0
N1749 N 0.23404 0.1905 0.41882 0.0
N1750 N 0.20427 0.23238 0.38484 0.0
C1751 C 0.22493 0.24194 0.41254 0.0
C1752 C 0.24124 0.21913 0.43113 0.0
C1753 C 0.22897 0.72826 0.93917 0.0
C1754 C 0.25091 0.72875 0.9697 0.0
C1755 C 0.22497 0.75141 0.91005 0.0
C1756 C 0.24268 0.77605 0.91002 0.0
H1757 H 0.21536 0.70935 0.93632 0.0
H1758 H 0.20731 0.75042 0.88823 0.0
S1759 S 0.30305 0.78807 0.98419 0.0
N1760 N 0.29039 0.75596 0.99848 0.0
N1761 N 0.28299 0.79945 0.944 0.0
C1762 C 0.26475 0.77675 0.94036 0.0
C1763 C 0.26866 0.75327 0.97028 0.0
C1764 C 0.49164 0.98678 0.7319 0.0
C1765 C 0.48278 0.01455 0.71921 0.0
C1766 C 0.50305 0.96441 0.69603 0.0
C1767 C 0.50584 0.96908 0.64643 0.0
H1768 H 0.4898 0.98236 0.76952 0.0
H1769 H 0.50995 0.94329 0.7072 0.0
S1770 S 0.48583 0.03777 0.59437 0.0
N1771 N 0.47776 0.04543 0.65333 0.0
N1772 N 0.49898 0.00314 0.58662 0.0
C1773 C 0.49705 0.99656 0.6333 0.0
C1774 C 0.48556 0.01936 0.66959 0.0
C1775 C 0.02352 -0.00074 0.19825 0.0
C1776 C 0.01016 0.97541 0.21887 0.0
C1777 C 0.01017 0.01608 0.1669 0.0
C1778 C 0.98244 0.01043 0.1555 0.0
H1779 H 0.04486 0.0046 0.20536 0.0
H1780 H 0.0215 0.03442 0.1529 0.0
S1781 S 0.93822 0.94978 0.19807 0.0
N1782 N 0.9674 0.94676 0.22493 0.0
N1783 N 0.94277 0.97798 0.16501 0.0
C1784 C 0.96899 0.98627 0.17501 0.0
C1785 C 0.98248 0.96923 0.20741 0.0
C1786 C 0.4749 0.97895 0.1684 0.0
C1787 C 0.47224 0.98276 0.21924 0.0
C1788 C 0.49447 0.9951 0.14196 0.0
C1789 C 0.51138 0.01577 0.16588 0.0
H1790 H 0.46181 0.96349 0.14903 0.0
H1791 H 0.49691 0.99087 0.10277 0.0
S1792 S 0.51105 0.03468 0.29845 0.0
N1793 N 0.48694 0.00914 0.29252 0.0
N1794 N 0.52395 0.03953 0.2428 0.0
C1795 C 0.50853 0.02002 0.21664 0.0
C1796 C 0.48876 0.00352 0.24345 0.0
C1797 C 0.00721 0.97291 0.6543 0.0
C1798 C 0.97897 0.98296 0.66116 0.0
C1799 C 0.02669 0.98475 0.6851 0.0
C1800 C 0.01847 0.00684 0.72384 0.0
H1801 H 0.0144 0.9562 0.62463 0.0
H1802 H 0.04844 0.97677 0.67807 0.0
S1803 S 0.94637 0.03854 0.75996 0.0
N1804 N 0.94329 0.01501 0.71136 0.0
N1805 N 0.98003 0.03692 0.76914 0.0
C1806 C 0.99018 0.01651 0.73182 0.0
C1807 C 0.97037 0.00459 0.70049 0.0
C1808 C 0.03181 0.40559 0.93597 0.0
C1809 C 0.01979 0.40513 0.98395 0.0
C1810 C 0.01586 0.41335 0.89879 0.0
C1811 C 0.98697 0.42198 0.90749 0.0
H1812 H 0.05419 0.40078 0.92725 0.0
H1813 H 0.02669 0.41323 0.86284 0.0
S1814 S 0.94512 0.42539 1.02734 0.0
N1815 N 0.97688 0.41402 1.03823 0.0
N1816 N 0.94708 0.42961 0.96892 0.0
C1817 C 0.97453 0.42163 0.95543 0.0
C1818 C 0.99079 0.41295 0.99331 0.0
C1819 C 0.83489 0.76326 0.13807 0.0
C1820 C 0.8278 0.73313 0.13931 0.0
C1821 C 0.84168 0.78064 0.1798 0.0
C1822 C 0.84262 0.76832 0.22395 0.0
H1823 H 0.83437 0.77383 0.10493 0.0
H1824 H 0.84495 0.80428 0.17809 0.0
S1825 S 0.82726 0.69029 0.24642 0.0
N1826 N 0.82274 0.69159 0.18865 0.0
N1827 N 0.83688 0.72402 0.26631 0.0
C1828 C 0.8369 0.73793 0.22529 0.0
C1829 C 0.82905 0.72042 0.18322 0.0
C1830 C 0.47963 0.5837 0.43427 0.0
C1831 C 0.50909 0.57831 0.43259 0.0
C1832 C 0.4622 0.58898 0.47849 0.0
C1833 C 0.47316 0.59027 0.52392 0.0
H1834 H 0.46963 0.58315 0.40088 0.0
H1835 H 0.43968 0.59161 0.47703 0.0
S1836 S 0.54871 0.57784 0.54129 0.0
N1837 N 0.54826 0.57444 0.48175 0.0
N1838 N 0.51579 0.58533 0.56418 0.0
C1839 C 0.50263 0.58553 0.52307 0.0
C1840 C 0.52041 0.57935 0.47785 0.0
C1841 C 0.69142 0.30498 0.62448 0.0
C1842 C 0.67597 0.27945 0.63128 0.0
C1843 C 0.69604 0.3148 0.57871 0.0
C1844 C 0.68559 0.29922 0.53792 0.0
H1845 H 0.69955 0.31777 0.65499 0.0
H1846 H 0.70761 0.33506 0.57571 0.0
S1847 S 0.64483 0.22994 0.53726 0.0
N1848 N 0.65069 0.23819 0.59451 0.0
N1849 N 0.65993 0.25614 0.50748 0.0
C1850 C 0.67069 0.27307 0.5442 0.0
C1851 C 0.66566 0.26335 0.59121 0.0
C1852 C 0.95874 0.65482 0.9529 0.0
C1853 C 0.95287 0.62996 0.9784 0.0
C1854 C 0.96161 0.65204 0.90222 0.0
C1855 C 0.95866 0.62428 0.87517 0.0
H1856 H 0.96232 0.67633 0.97226 0.0
H1857 H 0.96783 0.67141 0.88423 0.0
S1858 S 0.93913 0.55329 0.92447 0.0
N1859 N 0.94164 0.57723 0.9728 0.0
N1860 N 0.94592 0.57238 0.87744 0.0
C1861 C 0.95059 0.59979 0.90017 0.0
C1862 C 0.9479 0.60254 0.95182 0.0
C1863 C 0.63985 0.75413 0.20549 0.0
C1864 C 0.62345 0.73229 0.22632 0.0
C1865 C 0.63787 0.76013 0.15742 0.0
C1866 C 0.6192 0.74477 0.12817 0.0
H1867 H 0.65448 0.76666 0.22649 0.0
H1868 H 0.65083 0.7773 0.14327 0.0
S1869 S 0.57159 0.6853 0.16511 0.0
N1870 N 0.58784 0.69521 0.21382 0.0
N1871 N 0.58429 0.70629 0.12343 0.0
C1872 C 0.60271 0.72278 0.14845 0.0
C1873 C 0.60486 0.71653 0.19739 0.0
C1874 C 0.55014 0.38275 0.39847 0.0
C1875 C 0.5466 0.35621 0.42073 0.0
C1876 C 0.54545 0.38391 0.34988 0.0
C1877 C 0.53671 0.3587 0.32161 0.0
H1878 H 0.55518 0.40327 0.4193 0.0
H1879 H 0.5478 0.40507 0.33481 0.0
S1880 S 0.52765 0.2828 0.3611 0.0
N1881 N 0.53717 0.30318 0.40922 0.0
N1882 N 0.5266 0.30574 0.31868 0.0
C1883 C 0.53458 0.33156 0.34263 0.0
C1884 C 0.53986 0.33027 0.39198 0.0
C1885 C 0.82239 0.30749 0.8219 0.0
C1886 C 0.82581 0.2908 0.86137 0.0
C1887 C 0.82712 0.29447 0.77309 0.0
C1888 C 0.83549 0.26402 0.76104 0.0
H1889 H 0.81631 0.33099 0.82865 0.0
H1890 H 0.82464 0.30861 0.74448 0.0
S1891 S 0.84382 0.20929 0.85038 0.0
N1892 N 0.83593 0.24121 0.88426 0.0
N1893 N 0.84441 0.21706 0.79369 0.0
C1894 C 0.83811 0.24691 0.80021 0.0
C1895 C 0.83338 0.26013 0.8498 0.0
C1896 C 0.98515 0.58573 0.47731 0.0
C1897 C 0.01395 0.57686 0.4674 0.0
C1898 C 0.96854 0.59315 0.44073 0.0
C1899 C 0.97982 0.59294 0.39221 0.0
H1900 H 0.97496 0.58652 0.51382 0.0
H1901 H 0.94634 0.59849 0.45046 0.0
S1902 S 0.05367 0.57132 0.34547 0.0
N1903 N 0.05275 0.56789 0.40408 0.0
N1904 N 0.02174 0.58283 0.33596 0.0
C1905 C 0.0086 0.58456 0.38154 0.0
C1906 C 0.0255 0.5762 0.41876 0.0
C1907 C 0.15756 0.23723 0.2366 0.0
C1908 C 0.16572 0.26712 0.23644 0.0
C1909 C 0.15123 0.22039 0.19395 0.0
C1910 C 0.15187 0.23302 0.14982 0.0
H1911 H 0.157 0.22637 0.2696 0.0
H1912 H 0.14711 0.19687 0.19502 0.0
S1913 S 0.17058 0.31047 0.12958 0.0
N1914 N 0.17322 0.3088 0.18794 0.0
N1915 N 0.16068 0.27712 0.10829 0.0
C1916 C 0.15883 0.26312 0.14936 0.0
C1917 C 0.16593 0.28016 0.1925 0.0
C1918 C 0.52155 0.41682 0.94536 0.0
C1919 C 0.49185 0.41854 0.9474 0.0
C1920 C 0.53875 0.41176 0.90104 0.0
C1921 C 0.52736 0.40712 0.85599 0.0
H1922 H 0.53181 0.4201 0.97851 0.0
H1923 H 0.5614 0.41202 0.90208 0.0
S1924 S 0.45084 0.40838 0.84021 0.0
N1925 N 0.4518 0.41474 0.89951 0.0
N1926 N 0.48398 0.40444 0.81663 0.0
C1927 C 0.49765 0.40803 0.85733 0.0
C1928 C 0.48003 0.41395 0.90269 0.0
C1929 C 0.31333 0.70148 0.75357 0.0
C1930 C 0.32871 0.72739 0.74929 0.0
C1931 C 0.30802 0.69034 0.79829 0.0
C1932 C 0.31778 0.70476 0.8406 0.0
H1933 H 0.30549 0.6896 0.72197 0.0
H1934 H 0.29622 0.67013 0.79933 0.0
S1935 S 0.35824 0.77433 0.84836 0.0
N1936 N 0.35313 0.76779 0.79046 0.0
N1937 N 0.34317 0.74691 0.87515 0.0
C1938 C 0.3331 0.73092 0.83677 0.0
C1939 C 0.3386 0.74219 0.79093 0.0
C1940 C 0.0257 0.34134 0.41824 0.0
C1941 C 0.04911 0.35473 0.39571 0.0
C1942 C 0.02089 0.34294 0.4687 0.0
C1943 C 0.03916 0.35817 0.49867 0.0
H1944 H 0.01002 0.33096 0.39692 0.0
H1945 H 0.0019 0.33351 0.48436 0.0
S1946 S 0.10577 0.39295 0.45847 0.0
N1947 N 0.09261 0.38062 0.40761 0.0
N1948 N 0.08312 0.38403 0.50282 0.0
C1949 C 0.06346 0.37022 0.47695 0.0
C1950 C 0.06854 0.3684 0.4254 0.0
C1951 C 0.36351 0.27466 0.18305 0.0
C1952 C 0.37873 0.25655 0.14465 0.0
C1953 C 0.36481 0.26904 0.23151 0.0
C1954 C 0.38156 0.24523 0.24368 0.0
H1955 H 0.35008 0.29304 0.17557 0.0
H1956 H 0.35264 0.28356 0.25973 0.0
S1957 S 0.42594 0.19144 0.15691 0.0
N1958 N 0.41173 0.21423 0.1224 0.0
N1959 N 0.41358 0.20328 0.21311 0.0
C1960 C 0.39706 0.22709 0.20568 0.0
C1961 C 0.39575 0.2328 0.15636 0.0
C1962 C 0.47912 0.6667 1.02872 0.0
C1963 C 0.47656 0.63915 0.04833 0.0
C1964 C 0.47356 0.66945 0.98079 0.0
C1965 C 0.46519 0.64476 0.95097 0.0
H1966 H 0.48622 0.68608 0.05008 0.0
H1967 H 0.4761 0.69092 0.96682 0.0
S1968 S 0.45514 0.56782 0.98511 0.0
N1969 N 0.46389 0.58709 1.03481 0.0
N1970 N 0.45531 0.59178 0.94407 0.0
C1971 C 0.46237 0.61719 0.9703 0.0
C1972 C 0.46759 0.61451 1.01913 0.0
C1973 C 0.14818 0.7374 0.58532 0.0
C1974 C 0.16423 0.72764 0.62125 0.0
C1975 C 0.15221 0.72474 0.5364 0.0
C1976 C 0.17242 0.70149 0.52052 0.0
H1977 H 0.13205 0.75487 0.59512 0.0
H1978 H 0.13914 0.73326 0.51078 0.0
S1979 S 0.222 0.66951 0.5984 0.0
N1980 N 0.20265 0.69434 0.63595 0.0
N1981 N 0.20988 0.67053 0.54498 0.0
C1982 C 0.18886 0.69172 0.55585 0.0
C1983 C 0.18486 0.70472 0.60569 0.0
C1984 C 0.46557 0.90847 0.44112 0.0
C1985 C 0.47741 0.91342 0.39425 0.0
C1986 C 0.48264 0.90127 0.47795 0.0
C1987 C 0.5124 0.89942 0.47008 0.0
H1988 H 0.44294 0.90992 0.44945 0.0
H1989 H 0.47245 0.8983 0.51343 0.0
S1990 S 0.55419 0.9128 0.35542 0.0
N1991 N 0.52116 0.91687 0.34335 0.0
N1992 N 0.55268 0.90467 0.41201 0.0
C1993 C 0.52436 0.90497 0.42375 0.0
C1994 C 0.50711 0.9116 0.38619 0.0
C1995 C 0.32768 0.22571 0.68717 0.0
C1996 C 0.32481 0.23923 0.64437 0.0
C1997 C 0.33428 0.2426 0.72967 0.0
C1998 C 0.33782 0.27355 0.73081 0.0
H1999 H 0.32497 0.20191 0.68785 0.0
H2000 H 0.33505 0.23167 0.76243 0.0
S2001 S 0.33148 0.31983 0.62952 0.0
N2002 N 0.32592 0.28547 0.60618 0.0
N2003 N 0.33742 0.31717 0.68637 0.0
C2004 C 0.33517 0.28723 0.68832 0.0
C2005 C 0.32885 0.27009 0.64504 0.0
C2006 C 0.00218 0.08474 1.01885 0.0
C2007 C 0.97242 0.08666 1.02022 0.0
C2008 C 0.01967 0.07867 0.97436 0.0
C2009 C 0.00821 0.0744 0.92918 0.0
H2010 H 0.01201 0.08683 0.05248 0.0
H2011 H 0.04231 0.07752 0.97539 0.0
S2012 S 0.93164 0.07682 0.9127 0.0
N2013 N 0.93267 0.08361 0.97183 0.0
N2014 N 0.96479 0.07239 0.88972 0.0
C2015 C 0.97852 0.07651 0.93042 0.0
C2016 C 0.96092 0.08253 0.9753 0.0
C2017 C 0.18862 0.81434 0.08002 0.0
C2018 C 0.17913 0.79809 1.03891 0.0
C2019 C 0.18408 0.80452 0.1258 0.0
C2020 C 0.16974 0.77826 0.13227 0.0
H2021 H 0.19923 0.8352 0.07732 0.0
H2022 H 0.1913 0.81791 0.15658 0.0
S2023 S 0.14201 0.72648 1.03726 0.0
N2024 N 0.15585 0.75349 1.00781 0.0
N2025 N 0.14705 0.73529 0.09476 0.0
C2026 C 0.1606 0.76137 0.09184 0.0
C2027 C 0.16543 0.7712 0.04487 0.0
C2028 C 0.50929 0.15832 0.41236 0.0
C2029 C 0.48808 0.14914 0.38284 0.0
C2030 C 0.50593 0.15649 0.46231 0.0
C2031 C 0.48119 0.14556 0.48464 0.0
H2032 H 0.52916 0.16577 0.39648 0.0
H2033 H 0.52311 0.16309 0.48352 0.0
S2034 S 0.41838 0.12106 0.42398 0.0
N2035 N 0.44071 0.1307 0.37974 0.0
N2036 N 0.43445 0.12696 0.47396 0.0
C2037 C 0.45926 0.13758 0.45593 0.0
C2038 C 0.46273 0.13935 0.4049 0.0
C2039 C 0.12136 0.23381 0.65575 0.0
C2040 C 0.11088 0.26169 0.64509 0.0
C2041 C 0.12091 0.22659 0.70374 0.0
C2042 C 0.11036 0.24711 0.74328 0.0
H2043 H 0.12966 0.21721 0.62664 0.0
H2044 H 0.12911 0.2048 0.70998 0.0
S2045 S 0.08079 0.32332 0.73546 0.0
N2046 N 0.0898 0.31004 0.67849 0.0
N2047 N 0.08915 0.29655 0.76847 0.0
C2048 C 0.10005 0.27517 0.73325 0.0
C2049 C 0.10019 0.28239 0.68431 0.0
C2050 C 0.01284 0.84171 0.90978 0.0
C2051 C 0.03891 0.8514 0.92436 0.0
C2052 C 0.00642 0.84226 0.86195 0.0
C2053 C 0.02569 0.85274 0.82692 0.0
H2054 H 0.99675 0.83472 0.93592 0.0
H2055 H 0.98579 0.83541 0.8527 0.0
S2056 S 0.09779 0.87789 0.84471 0.0
N2057 N 0.08497 0.86963 0.89867 0.0
N2058 N 0.07253 0.87117 0.80868 0.0
C2059 C 0.05213 0.86167 0.84036 0.0
C2060 C 0.05882 0.86088 0.88909 0.0
C2061 C 0.33309 0.76698 0.34404 0.0
C2062 C 0.31375 0.79142 0.3569 0.0
C2063 C 0.33872 0.75389 0.29557 0.0
C2064 C 0.32546 0.76462 0.25717 0.0
H2065 H 0.34413 0.75779 0.37168 0.0
H2066 H 0.35394 0.73536 0.28804 0.0
S2067 S 0.27145 0.82658 0.27078 0.0
N2068 N 0.28021 0.8247 0.32634 0.0
N2069 N 0.29088 0.80037 0.2362 0.0
C2070 C 0.30584 0.78879 0.26949 0.0
C2071 C 0.29998 0.80204 0.31886 0.0
C2072 C 0.50832 0.08455 0.89211 0.0
C2073 C 0.47881 0.08995 0.89924 0.0
C2074 C 0.5244 0.07883 0.93096 0.0
C2075 C 0.51184 0.07881 0.97903 0.0
H2076 H 0.51893 0.08355 0.85587 0.0
H2077 H 0.54689 0.07452 0.92326 0.0
S2078 S 0.43537 0.09164 1.01725 0.0
N2079 N 0.43791 0.09433 0.95836 0.0
N2080 N 0.46775 0.08491 1.03072 0.0
C2081 C 0.48245 0.08468 0.98651 0.0
C2082 C 0.46612 0.08981 0.94697 0.0
C2083 C 0.66103 0.75049 0.6445 0.0
C2084 C 0.66259 0.71916 0.64213 0.0
C2085 C 0.66551 0.7682 0.68749 0.0
C2086 C 0.67127 0.75503 0.72942 0.0
H2087 H 0.65799 0.76133 0.61232 0.0
H2088 H 0.66458 0.79231 0.68783 0.0
S2089 S 0.6769 0.67393 0.74174 0.0
N2090 N 0.66994 0.67572 0.68514 0.0
N2091 N 0.67754 0.70893 0.76609 0.0
C2092 C 0.67186 0.72377 0.72782 0.0
C2093 C 0.66771 0.70584 0.6841 0.0
C2094 C 0.00362 0.93007 0.36877 0.0
C2095 C 0.02263 0.90524 0.35605 0.0
C2096 C 0.98633 0.93387 0.41332 0.0
C2097 C 0.98781 0.9135 0.44827 0.0
H2098 H 0.00256 0.94724 0.34439 0.0
H2099 H 0.9725 0.95356 0.42115 0.0
S2100 S 0.03332 0.84402 0.43238 0.0
N2101 N 0.04092 0.85943 0.38164 0.0
N2102 N 0.0093 0.86647 0.46522 0.0
C2103 C 0.00634 0.88818 0.43542 0.0
C2104 C 0.0235 0.8841 0.3896 0.0
C2105 C 0.84754 0.24272 0.29509 0.0
C2106 C 0.84116 0.22763 0.25098 0.0
C2107 C 0.8409 0.23052 0.33894 0.0
C2108 C 0.82783 0.2028 0.33981 0.0
H2109 H 0.85728 0.26425 0.29572 0.0
H2110 H 0.84593 0.24295 0.37226 0.0
S2111 S 0.80899 0.15381 0.23235 0.0
N2112 N 0.82265 0.18332 0.20984 0.0
N2113 N 0.81002 0.16019 0.2915 0.0
C2114 C 0.82185 0.18741 0.29536 0.0
C2115 C 0.82862 0.19986 0.25109 0.0
C2116 C 0.51677 0.81714 0.90418 0.0
C2117 C 0.5212 0.84276 0.87979 0.0
C2118 C 0.51149 0.81944 0.95487 0.0
C2119 C 0.50997 0.84749 0.98256 0.0
H2120 H 0.51682 0.79528 0.88383 0.0
H2121 H 0.50739 0.79934 0.97232 0.0
S2122 S 0.52137 0.92111 0.93666 0.0
N2123 N 0.52485 0.8969 0.88758 0.0
N2124 N 0.51478 0.90109 0.98262 0.0
C2125 C 0.51528 0.8731 0.95884 0.0
C2126 C 0.52095 0.87078 0.90748 0.0
C2127 C 0.86089 0.73523 0.65908 0.0
C2128 C 0.87556 0.75912 0.64084 0.0
C2129 C 0.8619 0.72902 0.70728 0.0
C2130 C 0.87791 0.7462 0.73917 0.0
H2131 H 0.84847 0.72119 0.63585 0.0
H2132 H 0.85043 0.71024 0.71943 0.0
S2133 S 0.91971 0.81165 0.7099 0.0
N2134 N 0.9063 0.80032 0.65884 0.0
N2135 N 0.90813 0.78871 0.7494 0.0
C2136 C 0.89248 0.77033 0.72158 0.0
C2137 C 0.89126 0.77682 0.67255 0.0
C2138 C 0.96894 0.10425 0.5217 0.0
C2139 C 0.96479 0.13027 0.55449 0.0
C2140 C 0.96312 0.1043 0.47348 0.0
C2141 C 0.95309 0.1304 0.45615 0.0
H2142 H 0.97789 0.08397 0.53275 0.0
H2143 H 0.96777 0.0841 0.44901 0.0
S2144 S 0.93512 0.20327 0.5283 0.0
N2145 N 0.94714 0.182 0.56731 0.0
N2146 N 0.93688 0.18214 0.4759 0.0
C2147 C 0.94762 0.1562 0.48879 0.0
C2148 C 0.9533 0.15612 0.53816 0.0
C2149 C 0.66679 0.23333 1.03554 0.0
C2150 C 0.68247 0.20626 1.0219 0.0
C2151 C 0.66189 0.24569 0.08441 0.0
C2152 C 0.67263 0.23188 0.12241 0.0
H2153 H 0.65808 0.24524 1.00821 0.0
H2154 H 0.64979 0.26658 0.09239 0.0
S2155 S 0.71452 0.1602 0.10739 0.0
N2156 N 0.7084 0.16577 0.0516 0.0
N2157 N 0.69926 0.18893 0.1427 0.0
C2158 C 0.68835 0.20478 0.10944 0.0
C2159 C 0.69319 0.19203 0.05962 0.0
C2160 C 0.07544 0.545 0.76829 0.0
C2161 C 0.09132 0.53528 0.72372 0.0
C2162 C 0.07988 0.53273 0.81186 0.0
C2163 C 0.1003 0.50973 0.81367 0.0
H2164 H 0.05907 0.56223 0.76974 0.0
H2165 H 0.06668 0.54106 0.84442 0.0
S2166 S 0.14875 0.47671 0.7083 0.0
N2167 N 0.12918 0.50138 0.68519 0.0
N2168 N 0.13751 0.47861 0.76645 0.0
C2169 C 0.11663 0.49997 0.76958 0.0
C2170 C 0.11221 0.51263 0.72508 0.0
C2171 C 0.68415 0.83659 1.03954 0.0
C2172 C 0.69387 0.85224 1.00002 0.0
C2173 C 0.69683 0.8391 0.08362 0.0
C2174 C 0.71994 0.85751 0.09098 0.0
H2175 H 0.66684 0.82161 1.0362 0.0
H2176 H 0.68837 0.82639 0.11228 0.0
S2177 S 0.75418 0.90309 0.99945 0.0
N2178 N 0.72844 0.88695 0.9719 0.0
N2179 N 0.75219 0.89151 0.05396 0.0
C2180 C 0.72966 0.87365 0.05209 0.0
C2181 C 0.71673 0.87107 1.00708 0.0
C2182 C 0.39391 0.49304 0.30826 0.0
C2183 C 0.40251 0.47701 0.34589 0.0
C2184 C 0.39841 0.48155 0.25846 0.0
C2185 C 0.41211 0.45347 0.24314 0.0
H2186 H 0.38338 0.51475 0.31731 0.0
H2187 H 0.39164 0.49523 0.23163 0.0
S2188 S 0.43916 0.40217 0.32611 0.0
N2189 N 0.42584 0.43118 0.36295 0.0
N2190 N 0.4339 0.40982 0.27091 0.0
C2191 C 0.42071 0.43718 0.28036 0.0
C2192 C 0.41601 0.44877 0.33097 0.0
C2193 C 0.77946 0.13906 0.65566 0.0
C2194 C 0.76643 0.14882 0.61617 0.0
C2195 C 0.76541 0.14103 0.70348 0.0
C2196 C 0.73789 0.15396 0.7151 0.0
H2197 H 0.80083 0.12984 0.6496 0.0
H2198 H 0.77667 0.13318 0.732 0.0
S2199 S 0.69483 0.18455 0.62569 0.0
N2200 N 0.72422 0.17228 0.59285 0.0
N2201 N 0.69867 0.17729 0.68166 0.0
C2202 C 0.72487 0.16418 0.67591 0.0
C2203 C 0.73884 0.16131 0.62708 0.0
C2204 C 0.88801 0.47931 0.64324 0.0
C2205 C 0.91366 0.46389 0.64756 0.0
C2206 C 0.88259 0.49182 0.6001 0.0
C2207 C 0.90271 0.4901 0.55912 0.0
H2208 H 0.87188 0.48183 0.67353 0.0
H2209 H 0.86254 0.50344 0.59923 0.0
S2210 S 0.97353 0.45248 0.55082 0.0
N2211 N 0.95957 0.44798 0.6059 0.0
N2212 N 0.94939 0.47113 0.52614 0.0
C2213 C 0.92844 0.47479 0.563 0.0
C2214 C 0.93387 0.46182 0.60659 0.0
C2215 C 0.26383 0.13254 0.32349 0.0
C2216 C 0.27911 0.1406 0.28109 0.0
C2217 C 0.2759 0.13306 0.36815 0.0
C2218 C 0.30373 0.14211 0.37291 0.0
H2219 H 0.2422 0.12596 0.32231 0.0
H2220 H 0.26278 0.12767 0.39972 0.0
S2221 S 0.35339 0.16438 0.27309 0.0
N2222 N 0.32421 0.1571 0.24719 0.0
N2223 N 0.34657 0.15815 0.3303 0.0
C2224 C 0.31945 0.14949 0.33057 0.0
C2225 C 0.30729 0.14872 0.28509 0.0
C2226 C 0.58304 0.53945 0.05155 0.0
C2227 C 0.60163 0.51456 1.0365 0.0
C2228 C 0.57818 0.55172 0.10081 0.0
C2229 C 0.59148 0.53991 0.13845 0.0
H2230 H 0.57222 0.54989 1.02485 0.0
H2231 H 0.56368 0.57078 0.1093 0.0
S2232 S 0.64076 0.47349 0.12013 0.0
N2233 N 0.63249 0.47776 0.06497 0.0
N2234 N 0.62363 0.5007 0.15626 0.0
C2235 C 0.61006 0.51493 0.124 0.0
C2236 C 0.61501 0.50239 0.07376 0.0
C2237 C 0.25652 0.85071 0.7498 0.0
C2238 C 0.22688 0.85412 0.7596 0.0
C2239 C 0.27008 0.84751 0.70164 0.0
C2240 C 0.25486 0.84857 0.66056 0.0
H2241 H 0.26938 0.84932 0.7796 0.0
H2242 H 0.29276 0.84419 0.69659 0.0
S2243 S 0.17687 0.85723 0.66556 0.0
N2244 N 0.18291 0.85786 0.72307 0.0
N2245 N 0.20805 0.85342 0.63399 0.0
C2246 C 0.22527 0.85259 0.67003 0.0
C2247 C 0.21146 0.8549 0.71886 0.0
C2248 C 0.58551 0.03979 0.32065 0.0
C2249 C 0.60053 0.01238 0.32109 0.0
C2250 C 0.58306 0.05319 0.27725 0.0
C2251 C 0.59509 0.03973 0.2316 0.0
H2252 H 0.57545 0.05108 0.35427 0.0
H2253 H 0.57084 0.07397 0.27949 0.0
S2254 S 0.63681 0.96782 0.2122 0.0
N2255 N 0.62794 0.97248 0.27123 0.0
N2256 N 0.62327 0.9972 0.19054 0.0
C2257 C 0.61068 0.0126 0.23172 0.0
C2258 C 0.61333 -0.00092 0.27597 0.0
C2259 C 0.22185 0.37219 0.51451 0.0
C2260 C 0.19457 0.36137 0.51008 0.0
C2261 C 0.23392 0.3743 0.55926 0.0
C2262 C 0.21937 0.36562 0.60188 0.0
H2263 H 0.23455 0.3779 0.48271 0.0
H2264 H 0.25526 0.38191 0.56005 0.0
S2265 S 0.14585 0.33973 0.61164 0.0
N2266 N 0.15247 0.34444 0.55376 0.0
N2267 N 0.17482 0.34868 0.63713 0.0
C2268 C 0.1916 0.35604 0.59832 0.0
C2269 C 0.17934 0.35388 0.55283 0.0
C2270 C 0.88329 0.98895 0.8072 0.0
C2271 C 0.89814 0.97901 0.84464 0.0
C2272 C 0.88817 0.97608 0.75821 0.0
C2273 C 0.90812 0.95234 0.74358 0.0
H2274 H 0.868 0.00736 0.81558 0.0
H2275 H 0.87649 0.98532 0.7314 0.0
S2276 S 0.95152 0.91617 0.82725 0.0
N2277 N 0.93281 0.94242 0.86296 0.0
N2278 N 0.94213 0.91878 0.77228 0.0
C2279 C 0.92277 0.94183 0.78083 0.0
C2280 C 0.91782 0.95495 0.83062 0.0
C2281 C 0.23941 0.6784 0.19383 0.0
C2282 C 0.22908 0.65277 0.21422 0.0
C2283 C 0.25424 0.67685 0.14683 0.0
C2284 C 0.25896 0.6497 0.11611 0.0
H2285 H 0.23647 0.70008 0.21483 0.0
H2286 H 0.26174 0.69747 0.13413 0.0
S2287 S 0.23591 0.57574 0.15039 0.0
N2288 N 0.22513 0.59897 0.19883 0.0
N2289 N 0.2514 0.59634 0.11049 0.0
C2290 C 0.24835 0.62391 0.13558 0.0
C2291 C 0.23397 0.62535 0.18428 0.0
C2292 C 0.41312 0.94377 0.09625 0.0
C2293 C 0.39695 0.95348 0.14049 0.0
C2294 C 0.40986 0.95685 0.05307 0.0
C2295 C 0.39035 0.98069 0.0514 0.0
H2296 H 0.42913 0.92628 0.09485 0.0
H2297 H 0.4234 0.94861 1.02086 0.0
S2298 S 0.3417 0.01435 0.15593 0.0
N2299 N 0.35995 0.98851 0.17889 0.0
N2300 N 0.35359 0.01268 0.09812 0.0
C2301 C 0.37365 0.99045 0.09506 0.0
C2302 C 0.37695 0.97701 0.13921 0.0
C2303 C 0.81385 0.65082 0.82799 0.0
C2304 C 0.80284 0.63645 0.86813 0.0
C2305 C 0.80164 0.6482 0.78356 0.0
C2306 C 0.77779 0.63092 0.77657 0.0
H2307 H 0.83184 0.66489 0.83106 0.0
H2308 H 0.81106 0.6599 0.75434 0.0
S2309 S 0.74003 0.58909 0.86969 0.0
N2310 N 0.76617 0.6043 0.89733 0.0
N2311 N 0.74336 0.59944 0.81434 0.0
C2312 C 0.76674 0.61605 0.81604 0.0
C2313 C 0.77917 0.61876 0.86146 0.0
C2314 C 0.11359 0.00444 0.57078 0.0
C2315 C 0.09807 0.0142 0.53401 0.0
C2316 C 0.1088 0.01686 0.62 0.0
C2317 C 0.08833 0.03997 0.63543 0.0
H2318 H 0.12931 0.9865 0.56169 0.0
H2319 H 0.12099 0.00781 0.64634 0.0
S2320 S 0.04325 0.0756 0.55363 0.0
N2321 N 0.0623 0.05001 0.51712 0.0
N2322 N 0.0532 0.0729 0.6082 0.0
C2323 C 0.07307 0.05036 0.59881 0.0
C2324 C 0.07791 0.03768 0.54883 0.0
C2325 C 0.74619 0.32416 0.23254 0.0
C2326 C 0.73851 0.35181 0.26033 0.0
C2327 C 0.76185 0.32228 0.18629 0.0
C2328 C 0.77012 0.34796 0.16395 0.0
H2329 H 0.7404 0.30348 0.24702 0.0
H2330 H 0.76703 0.3003 0.16738 0.0
S2331 S 0.75534 0.42611 0.22004 0.0
N2332 N 0.74112 0.40567 0.26135 0.0
N2333 N 0.76898 0.40228 0.17422 0.0
C2334 C 0.76234 0.37582 0.19102 0.0
C2335 C 0.7471 0.37769 0.23896 0.0
loop_
_geom_bond_atom_site_label_1
_geom_bond_atom_site_label_2
_geom_bond_distance
_geom_bond_site_symmetry_2
_ccdc_geom_bond_type
Gd0 C3 2.818 . S
Gd0 O20 2.377 . S
Gd0 O22 2.448 . S
Gd0 O23 2.506 . S
Gd0 O24 2.435 . S
Gd0 O25 2.717 . S
Gd0 O27 2.395 . S
Gd0 O31 2.327 . S
Gd1 C12 2.818 1_554 S
Gd1 O21 2.395 . S
Gd1 O25 2.327 . S
Gd1 O26 2.377 . S
Gd1 O28 2.448 1_554 S
Gd1 O29 2.506 1_554 S
Gd1 O30 2.435 . S
Gd1 O31 2.717 . S
C2 O20 1.240 . S
C2 O21 1.240 . S
C3 Gd0 2.818 . S
C3 C4 1.510 . S
C3 O22 1.249 . S
C3 O23 1.252 . S
C4 C3 1.510 . S
C4 C5 1.404 1_455 S
C4 C6 1.352 . S
C5 C4 1.404 1_655 S
C5 C9 1.389 . S
C5 H32 0.930 . S
C6 C4 1.352 . S
C6 C8 1.374 . S
C6 H33 0.931 . S
C7 C8 1.359 . S
C7 C9 1.364 1_455 S
C8 C6 1.374 . S
C8 C7 1.359 . S
C8 H34 0.931 . S
C9 C5 1.389 . S
C9 C7 1.364 1_655 S
C9 H35 0.931 . S
C10 O24 1.256 . S
C10 O25 1.257 . S
C11 O26 1.240 . S
C11 O27 1.240 . S
C12 Gd1 2.818 1_556 S
C12 C13 1.510 . S
C12 O28 1.249 . S
C12 O29 1.252 . S
C13 C12 1.510 . S
C13 C14 1.404 . S
C13 C15 1.352 . S
C14 C13 1.404 . S
C14 C18 1.389 . S
C14 H36 0.930 . S
C15 C13 1.352 . S
C15 C17 1.374 . S
C15 H37 0.931 . S
C16 C17 1.359 . S
C16 C18 1.364 . S
C17 C15 1.374 . S
C17 C16 1.359 . S
C17 H38 0.931 . S
C18 C14 1.389 . S
C18 C16 1.364 . S
C18 H39 0.931 . S
C19 O30 1.256 . S
C19 O31 1.257 . S
O20 Gd0 2.377 . S
O20 C2 1.240 . S
O21 Gd1 2.395 . S
O21 C2 1.240 . S
O22 Gd0 2.448 . S
O22 C3 1.249 . S
O23 Gd0 2.506 . S
O23 C3 1.252 . S
O24 Gd0 2.435 . S
O24 C10 1.256 . S
O25 Gd0 2.717 . S
O25 Gd1 2.327 . S
O25 C10 1.257 . S
O26 Gd1 2.377 . S
O26 C11 1.240 . S
O27 Gd0 2.395 . S
O27 C11 1.240 . S
O28 Gd1 2.448 1_556 S
O28 C12 1.249 . S
O29 Gd1 2.506 1_556 S
O29 C12 1.252 . S
O30 Gd1 2.435 . S
O30 C19 1.256 . S
O31 Gd0 2.327 . S
O31 Gd1 2.717 . S
O31 C19 1.257 . S
H32 C5 0.930 . S
H33 C6 0.931 . S
H34 C8 0.931 . S
H35 C9 0.931 . S
H36 C14 0.930 . S
H37 C15 0.931 . S
H38 C17 0.931 . S
H39 C18 0.931 . S
Gd40 C43 2.818 . S
Gd40 O60 2.377 . S
Gd40 O62 2.448 . S
Gd40 O63 2.506 . S
Gd40 O64 2.435 . S
Gd40 O65 2.717 . S
Gd40 O67 2.395 . S
Gd40 O71 2.327 . S
Gd41 C52 2.818 . S
Gd41 O61 2.395 . S
Gd41 O65 2.327 . S
Gd41 O66 2.377 . S
Gd41 O68 2.448 . S
Gd41 O69 2.506 . S
Gd41 O70 2.435 . S
Gd41 O71 2.717 . S
C42 O60 1.240 . S
C42 O61 1.240 . S
C43 Gd40 2.818 . S
C43 C44 1.510 . S
C43 O62 1.249 . S
C43 O63 1.252 . S
C44 C43 1.510 . S
C44 C45 1.404 . S
C44 C46 1.352 . S
C45 C44 1.404 . S
C45 C49 1.389 . S
C45 H72 0.930 . S
C46 C44 1.352 . S
C46 C48 1.374 . S
C46 H73 0.931 . S
C47 C48 1.359 . S
C47 C49 1.364 . S
C48 C46 1.374 . S
C48 C47 1.359 . S
C48 H74 0.931 . S
C49 C45 1.389 . S
C49 C47 1.364 . S
C49 H75 0.931 . S
C50 O64 1.256 . S
C50 O65 1.257 . S
C51 O66 1.240 . S
C51 O67 1.240 . S
C52 Gd41 2.818 . S
C52 C53 1.510 . S
C52 O68 1.249 . S
C52 O69 1.252 . S
C53 C52 1.510 . S
C53 C54 1.404 . S
C53 C55 1.352 . S
C54 C53 1.404 . S
C54 C58 1.389 . S
C54 H76 0.930 . S
C55 C53 1.352 . S
C55 C57 1.374 . S
C55 H77 0.931 . S
C56 C57 1.359 . S
C56 C58 1.364 . S
C57 C55 1.374 . S
C57 C56 1.359 . S
C57 H78 0.931 . S
C58 C54 1.389 . S
C58 C56 1.364 . S
C58 H79 0.931 . S
C59 O70 1.256 . S
C59 O71 1.257 . S
O60 Gd40 2.377 . S
O60 C42 1.240 . S
O61 Gd41 2.395 . S
O61 C42 1.240 . S
O62 Gd40 2.448 . S
O62 C43 1.249 . S
O63 Gd40 2.506 . S
O63 C43 1.252 . S
O64 Gd40 2.435 . S
O64 C50 1.256 . S
O65 Gd40 2.717 . S
O65 Gd41 2.327 . S
O65 C50 1.257 . S
O66 Gd41 2.377 . S
O66 C51 1.240 . S
O67 Gd40 2.395 . S
O67 C51 1.240 . S
O68 Gd41 2.448 . S
O68 C52 1.249 . S
O69 Gd41 2.506 . S
O69 C52 1.252 . S
O70 Gd41 2.435 . S
O70 C59 1.256 . S
O71 Gd40 2.327 . S
O71 Gd41 2.717 . S
O71 C59 1.257 . S
H72 C45 0.930 . S
H73 C46 0.931 . S
H74 C48 0.931 . S
H75 C49 0.931 . S
H76 C54 0.930 . S
H77 C55 0.931 . S
H78 C57 0.931 . S
H79 C58 0.931 . S
Gd80 C83 2.818 . S
Gd80 O100 2.377 . S
Gd80 O102 2.448 . S
Gd80 O103 2.506 . S
Gd80 O104 2.435 . S
Gd80 O105 2.717 . S
Gd80 O107 2.395 . S
Gd80 O111 2.327 . S
Gd81 C92 2.818 . S
Gd81 O101 2.395 . S
Gd81 O105 2.327 . S
Gd81 O106 2.377 . S
Gd81 O108 2.448 . S
Gd81 O109 2.506 . S
Gd81 O110 2.435 . S
Gd81 O111 2.717 . S
C82 O100 1.240 . S
C82 O101 1.240 . S
C83 Gd80 2.818 . S
C83 C84 1.510 . S
C83 O102 1.249 . S
C83 O103 1.252 . S
C84 C83 1.510 . S
C84 C85 1.404 . S
C84 C86 1.352 . S
C85 C84 1.404 . S
C85 C89 1.389 . S
C85 H112 0.930 . S
C86 C84 1.352 . S
C86 C88 1.374 . S
C86 H113 0.931 . S
C87 C88 1.359 . S
C87 C89 1.364 . S
C88 C86 1.374 . S
C88 C87 1.359 . S
C88 H114 0.931 . S
C89 C85 1.389 . S
C89 C87 1.364 . S
C89 H115 0.931 . S
C90 O104 1.256 . S
C90 O105 1.257 . S
C91 O106 1.240 . S
C91 O107 1.240 . S
C92 Gd81 2.818 . S
C92 C93 1.510 . S
C92 O108 1.249 . S
C92 O109 1.252 . S
C93 C92 1.510 . S
C93 C94 1.404 . S
C93 C95 1.352 . S
C94 C93 1.404 . S
C94 C98 1.389 . S
C94 H116 0.930 . S
C95 C93 1.352 . S
C95 C97 1.374 . S
C95 H117 0.931 . S
C96 C97 1.359 . S
C96 C98 1.364 . S
C97 C95 1.374 . S
C97 C96 1.359 . S
C97 H118 0.931 . S
C98 C94 1.389 . S
C98 C96 1.364 . S
C98 H119 0.931 . S
C99 O110 1.256 . S
C99 O111 1.257 . S
O100 Gd80 2.377 . S
O100 C82 1.240 . S
O101 Gd81 2.395 . S
O101 C82 1.240 . S
O102 Gd80 2.448 . S
O102 C83 1.249 . S
O103 Gd80 2.506 . S
O103 C83 1.252 . S
O104 Gd80 2.435 . S
O104 C90 1.256 . S
O105 Gd80 2.717 . S
O105 Gd81 2.327 . S
O105 C90 1.257 . S
O106 Gd81 2.377 . S
O106 C91 1.240 . S
O107 Gd80 2.395 . S
O107 C91 1.240 . S
O108 Gd81 2.448 . S
O108 C92 1.249 . S
O109 Gd81 2.506 . S
O109 C92 1.252 . S
O110 Gd81 2.435 . S
O110 C99 1.256 . S
O111 Gd80 2.327 . S
O111 Gd81 2.717 . S
O111 C99 1.257 . S
H112 C85 0.930 . S
H113 C86 0.931 . S
H114 C88 0.931 . S
H115 C89 0.931 . S
H116 C94 0.930 . S
H117 C95 0.931 . S
H118 C97 0.931 . S
H119 C98 0.931 . S
Gd120 C123 2.818 . S
Gd120 O140 2.377 . S
Gd120 O142 2.448 . S
Gd120 O143 2.506 . S
Gd120 O144 2.435 . S
Gd120 O145 2.717 . S
Gd120 O147 2.395 . S
Gd120 O151 2.327 . S
Gd121 C132 2.818 . S
Gd121 O141 2.395 . S
Gd121 O145 2.327 . S
Gd121 O146 2.377 . S
Gd121 O148 2.448 . S
Gd121 O149 2.506 . S
Gd121 O150 2.435 . S
Gd121 O151 2.717 . S
C122 O140 1.240 . S
C122 O141 1.240 . S
C123 Gd120 2.818 . S
C123 C124 1.510 . S
C123 O142 1.249 . S
C123 O143 1.252 . S
C124 C123 1.510 . S
C124 C125 1.404 . S
C124 C126 1.352 . S
C125 C124 1.404 . S
C125 C129 1.389 . S
C125 H152 0.930 . S
C126 C124 1.352 . S
C126 C128 1.374 . S
C126 H153 0.931 . S
C127 C128 1.359 . S
C127 C129 1.364 . S
C128 C126 1.374 . S
C128 C127 1.359 . S
C128 H154 0.931 . S
C129 C125 1.389 . S
C129 C127 1.364 . S
C129 H155 0.931 . S
C130 O144 1.256 . S
C130 O145 1.257 . S
C131 O146 1.240 . S
C131 O147 1.240 . S
C132 Gd121 2.818 . S
C132 C133 1.500 1_556 S
C132 O148 1.249 . S
C132 O149 1.252 . S
C133 C132 1.500 1_554 S
C133 C134 1.409 . S
C133 C135 1.358 . S
C134 C133 1.409 . S
C134 C138 1.389 . S
C134 H156 0.916 1_554 S
C135 C133 1.358 . S
C135 C137 1.374 . S
C135 H157 0.931 . S
C136 C137 1.359 . S
C136 C138 1.364 . S
C137 C135 1.374 . S
C137 C136 1.359 . S
C137 H158 0.931 . S
C138 C134 1.389 . S
C138 C136 1.364 . S
C138 H159 0.931 . S
C139 O150 1.256 . S
C139 O151 1.257 . S
O140 Gd120 2.377 . S
O140 C122 1.240 . S
O141 Gd121 2.395 . S
O141 C122 1.240 . S
O142 Gd120 2.448 . S
O142 C123 1.249 . S
O143 Gd120 2.506 . S
O143 C123 1.252 . S
O144 Gd120 2.435 . S
O144 C130 1.256 . S
O145 Gd120 2.717 . S
O145 Gd121 2.327 . S
O145 C130 1.257 . S
O146 Gd121 2.377 . S
O146 C131 1.240 . S
O147 Gd120 2.395 . S
O147 C131 1.240 . S
O148 Gd121 2.448 . S
O148 C132 1.249 . S
O149 Gd121 2.506 . S
O149 C132 1.252 . S
O150 Gd121 2.435 . S
O150 C139 1.256 . S
O151 Gd120 2.327 . S
O151 Gd121 2.717 . S
O151 C139 1.257 . S
H152 C125 0.930 . S
H153 C126 0.931 . S
H154 C128 0.931 . S
H155 C129 0.931 . S
H156 C134 0.916 1_556 S
H157 C135 0.931 . S
H158 C137 0.931 . S
H159 C138 0.931 . S
Gd160 C163 2.818 . S
Gd160 O180 2.377 . S
Gd160 O182 2.448 . S
Gd160 O183 2.506 . S
Gd160 O184 2.435 . S
Gd160 O185 2.717 . S
Gd160 O187 2.395 . S
Gd160 O191 2.327 . S
Gd161 C172 2.818 . S
Gd161 O181 2.395 . S
Gd161 O185 2.327 . S
Gd161 O186 2.377 . S
Gd161 O188 2.448 . S
Gd161 O189 2.506 . S
Gd161 O190 2.435 . S
Gd161 O191 2.717 . S
C162 O180 1.240 . S
C162 O181 1.240 . S
C163 Gd160 2.818 . S
C163 C164 1.510 . S
C163 O182 1.249 . S
C163 O183 1.252 . S
C164 C163 1.510 . S
C164 C165 1.404 . S
C164 C166 1.352 . S
C165 C164 1.404 . S
C165 C169 1.389 . S
C165 H192 0.930 . S
C166 C164 1.352 . S
C166 C168 1.374 . S
C166 H193 0.931 . S
C167 C168 1.359 . S
C167 C169 1.364 . S
C168 C166 1.374 . S
C168 C167 1.359 . S
C168 H194 0.931 . S
C169 C165 1.389 . S
C169 C167 1.364 . S
C169 H195 0.931 . S
C170 O184 1.256 . S
C170 O185 1.257 . S
C171 O186 1.240 . S
C171 O187 1.240 . S
C172 Gd161 2.818 . S
C172 C173 1.510 . S
C172 O188 1.249 . S
C172 O189 1.252 . S
C173 C172 1.510 . S
C173 C174 1.404 . S
C173 C175 1.352 . S
C174 C173 1.404 . S
C174 C178 1.389 . S
C174 H196 0.930 . S
C175 C173 1.352 . S
C175 C177 1.374 . S
C175 H197 0.931 . S
C176 C177 1.359 . S
C176 C178 1.364 . S
C177 C175 1.374 . S
C177 C176 1.359 . S
C177 H198 0.931 . S
C178 C174 1.389 . S
C178 C176 1.364 . S
C178 H199 0.931 . S
C179 O190 1.256 . S
C179 O191 1.257 . S
O180 Gd160 2.377 . S
O180 C162 1.240 . S
O181 Gd161 2.395 . S
O181 C162 1.240 . S
O182 Gd160 2.448 . S
O182 C163 1.249 . S
O183 Gd160 2.506 . S
O183 C163 1.252 . S
O184 Gd160 2.435 . S
O184 C170 1.256 . S
O185 Gd160 2.717 . S
O185 Gd161 2.327 . S
O185 C170 1.257 . S
O186 Gd161 2.377 . S
O186 C171 1.240 . S
O187 Gd160 2.395 . S
O187 C171 1.240 . S
O188 Gd161 2.448 . S
O188 C172 1.249 . S
O189 Gd161 2.506 . S
O189 C172 1.252 . S
O190 Gd161 2.435 . S
O190 C179 1.256 . S
O191 Gd160 2.327 . S
O191 Gd161 2.717 . S
O191 C179 1.257 . S
H192 C165 0.930 . S
H193 C166 0.931 . S
H194 C168 0.931 . S
H195 C169 0.931 . S
H196 C174 0.930 . S
H197 C175 0.931 . S
H198 C177 0.931 . S
H199 C178 0.931 . S
Gd200 C203 2.818 . S
Gd200 O220 2.377 . S
Gd200 O222 2.448 . S
Gd200 O223 2.506 . S
Gd200 O224 2.435 . S
Gd200 O225 2.717 . S
Gd200 O227 2.395 . S
Gd200 O231 2.327 . S
Gd201 C212 2.818 . S
Gd201 O221 2.395 . S
Gd201 O225 2.327 . S
Gd201 O226 2.377 . S
Gd201 O228 2.448 . S
Gd201 O229 2.506 . S
Gd201 O230 2.435 . S
Gd201 O231 2.717 . S
C202 O220 1.240 . S
C202 O221 1.240 . S
C203 Gd200 2.818 . S
C203 C204 1.510 . S
C203 O222 1.249 . S
C203 O223 1.252 . S
C204 C203 1.510 . S
C204 C205 1.404 . S
C204 C206 1.352 1_556 S
C205 C204 1.404 . S
C205 C209 1.389 1_556 S
C205 H232 0.930 . S
C206 C204 1.352 1_554 S
C206 C208 1.374 . S
C206 H233 0.931 1_554 S
C207 C208 1.359 . S
C207 C209 1.364 . S
C208 C206 1.374 . S
C208 C207 1.359 . S
C208 H234 0.931 . S
C209 C205 1.389 1_554 S
C209 C207 1.364 . S
C209 H235 0.931 . S
C210 O224 1.256 . S
C210 O225 1.257 . S
C211 O226 1.240 . S
C211 O227 1.240 . S
C212 Gd201 2.818 . S
C212 C213 1.510 . S
C212 O228 1.249 . S
C212 O229 1.252 . S
C213 C212 1.510 . S
C213 C214 1.404 . S
C213 C215 1.352 . S
C214 C213 1.404 . S
C214 C218 1.389 . S
C214 H236 0.930 . S
C215 C213 1.352 . S
C215 C217 1.374 . S
C215 H237 0.931 . S
C216 C217 1.359 . S
C216 C218 1.364 . S
C217 C215 1.374 . S
C217 C216 1.359 . S
C217 H238 0.931 . S
C218 C214 1.389 . S
C218 C216 1.364 . S
C218 H239 0.931 . S
C219 O230 1.256 . S
C219 O231 1.257 . S
O220 Gd200 2.377 . S
O220 C202 1.240 . S
O221 Gd201 2.395 . S
O221 C202 1.240 . S
O222 Gd200 2.448 . S
O222 C203 1.249 . S
O223 Gd200 2.506 . S
O223 C203 1.252 . S
O224 Gd200 2.435 . S
O224 C210 1.256 . S
O225 Gd200 2.717 . S
O225 Gd201 2.327 . S
O225 C210 1.257 . S
O226 Gd201 2.377 . S
O226 C211 1.240 . S
O227 Gd200 2.395 . S
O227 C211 1.240 . S
O228 Gd201 2.448 . S
O228 C212 1.249 . S
O229 Gd201 2.506 . S
O229 C212 1.252 . S
O230 Gd201 2.435 . S
O230 C219 1.256 . S
O231 Gd200 2.327 . S
O231 Gd201 2.717 . S
O231 C219 1.257 . S
H232 C205 0.930 . S
H233 C206 0.931 1_556 S
H234 C208 0.931 . S
H235 C209 0.931 . S
H236 C214 0.930 . S
H237 C215 0.931 . S
H238 C217 0.931 . S
H239 C218 0.931 . S
Gd240 C243 2.818 . S
Gd240 O260 2.377 . S
Gd240 O262 2.448 . S
Gd240 O263 2.506 . S
Gd240 O264 2.435 . S
Gd240 O265 2.717 . S
Gd240 O267 2.395 1_554 S
Gd240 O271 2.327 . S
Gd241 C252 2.818 1_554 S
Gd241 O261 2.395 . S
Gd241 O265 2.327 . S
Gd241 O266 2.377 1_554 S
Gd241 O268 2.448 1_554 S
Gd241 O269 2.506 1_554 S
Gd241 O270 2.435 . S
Gd241 O271 2.717 . S
C242 O260 1.240 . S
C242 O261 1.240 . S
C243 Gd240 2.818 . S
C243 C244 1.510 . S
C243 O262 1.249 . S
C243 O263 1.252 . S
C244 C243 1.510 . S
C244 C245 1.404 . S
C244 C246 1.352 . S
C245 C244 1.404 . S
C245 C249 1.389 . S
C245 H272 0.930 . S
C246 C244 1.352 . S
C246 C248 1.374 . S
C246 H273 0.931 . S
C247 C248 1.359 . S
C247 C249 1.364 . S
C248 C246 1.374 . S
C248 C247 1.359 . S
C248 H274 0.931 . S
C249 C245 1.389 . S
C249 C247 1.364 . S
C249 H275 0.931 . S
C250 O264 1.256 . S
C250 O265 1.257 . S
C251 O266 1.240 . S
C251 O267 1.240 . S
C252 Gd241 2.818 1_556 S
C252 C253 1.510 . S
C252 O268 1.249 . S
C252 O269 1.252 . S
C253 C252 1.510 . S
C253 C254 1.404 . S
C253 C255 1.352 . S
C254 C253 1.404 . S
C254 C258 1.389 . S
C254 H276 0.930 . S
C255 C253 1.352 . S
C255 C257 1.374 . S
C255 H277 0.931 . S
C256 C257 1.359 . S
C256 C258 1.364 . S
C257 C255 1.374 . S
C257 C256 1.359 . S
C257 H278 0.931 . S
C258 C254 1.389 . S
C258 C256 1.364 . S
C258 H279 0.931 . S
C259 O270 1.256 . S
C259 O271 1.257 . S
O260 Gd240 2.377 . S
O260 C242 1.240 . S
O261 Gd241 2.395 . S
O261 C242 1.240 . S
O262 Gd240 2.448 . S
O262 C243 1.249 . S
O263 Gd240 2.506 . S
O263 C243 1.252 . S
O264 Gd240 2.435 . S
O264 C250 1.256 . S
O265 Gd240 2.717 . S
O265 Gd241 2.327 . S
O265 C250 1.257 . S
O266 Gd241 2.377 1_556 S
O266 C251 1.240 . S
O267 Gd240 2.395 1_556 S
O267 C251 1.240 . S
O268 Gd241 2.448 1_556 S
O268 C252 1.249 . S
O269 Gd241 2.506 1_556 S
O269 C252 1.252 . S
O270 Gd241 2.435 . S
O270 C259 1.256 . S
O271 Gd240 2.327 . S
O271 Gd241 2.717 . S
O271 C259 1.257 . S
H272 C245 0.930 . S
H273 C246 0.931 . S
H274 C248 0.931 . S
H275 C249 0.931 . S
H276 C254 0.930 . S
H277 C255 0.931 . S
H278 C257 0.931 . S
H279 C258 0.931 . S
Gd280 C283 2.818 . S
Gd280 O300 2.377 . S
Gd280 O302 2.448 . S
Gd280 O303 2.506 . S
Gd280 O304 2.435 . S
Gd280 O305 2.717 . S
Gd280 O307 2.395 . S
Gd280 O311 2.327 . S
Gd281 C292 2.818 . S
Gd281 O301 2.395 . S
Gd281 O305 2.327 . S
Gd281 O306 2.377 . S
Gd281 O308 2.448 . S
Gd281 O309 2.506 . S
Gd281 O310 2.435 . S
Gd281 O311 2.717 . S
C282 O300 1.240 . S
C282 O301 1.240 . S
C283 Gd280 2.818 . S
C283 C284 1.510 . S
C283 O302 1.249 . S
C283 O303 1.252 . S
C284 C283 1.510 . S
C284 C285 1.404 . S
C284 C286 1.352 . S
C285 C284 1.404 . S
C285 C289 1.389 . S
C285 H312 0.930 . S
C286 C284 1.352 . S
C286 C288 1.374 . S
C286 H313 0.931 . S
C287 C288 1.359 . S
C287 C289 1.364 . S
C288 C286 1.374 . S
C288 C287 1.359 . S
C288 H314 0.931 . S
C289 C285 1.389 . S
C289 C287 1.364 . S
C289 H315 0.931 . S
C290 O304 1.256 . S
C290 O305 1.257 . S
C291 O306 1.240 . S
C291 O307 1.240 . S
C292 Gd281 2.818 . S
C292 C293 1.510 . S
C292 O308 1.249 . S
C292 O309 1.252 . S
C293 C292 1.510 . S
C293 C294 1.404 . S
C293 C295 1.352 . S
C294 C293 1.404 . S
C294 C298 1.389 . S
C294 H316 0.930 . S
C295 C293 1.352 . S
C295 C297 1.374 . S
C295 H317 0.931 . S
C296 C297 1.359 . S
C296 C298 1.364 . S
C297 C295 1.374 . S
C297 C296 1.359 . S
C297 H318 0.931 . S
C298 C294 1.389 . S
C298 C296 1.364 . S
C298 H319 0.931 . S
C299 O310 1.256 . S
C299 O311 1.257 . S
O300 Gd280 2.377 . S
O300 C282 1.240 . S
O301 Gd281 2.395 . S
O301 C282 1.240 . S
O302 Gd280 2.448 . S
O302 C283 1.249 . S
O303 Gd280 2.506 . S
O303 C283 1.252 . S
O304 Gd280 2.435 . S
O304 C290 1.256 . S
O305 Gd280 2.717 . S
O305 Gd281 2.327 . S
O305 C290 1.257 . S
O306 Gd281 2.377 . S
O306 C291 1.240 . S
O307 Gd280 2.395 . S
O307 C291 1.240 . S
O308 Gd281 2.448 . S
O308 C292 1.249 . S
O309 Gd281 2.506 . S
O309 C292 1.252 . S
O310 Gd281 2.435 . S
O310 C299 1.256 . S
O311 Gd280 2.327 . S
O311 Gd281 2.717 . S
O311 C299 1.257 . S
H312 C285 0.930 . S
H313 C286 0.931 . S
H314 C288 0.931 . S
H315 C289 0.931 . S
H316 C294 0.930 . S
H317 C295 0.931 . S
H318 C297 0.931 . S
H319 C298 0.931 . S
Gd320 C323 2.818 . S
Gd320 O340 2.377 . S
Gd320 O342 2.448 . S
Gd320 O343 2.506 . S
Gd320 O344 2.435 . S
Gd320 O345 2.717 . S
Gd320 O347 2.395 . S
Gd320 O351 2.327 . S
Gd321 C332 2.818 . S
Gd321 O341 2.395 . S
Gd321 O345 2.327 . S
Gd321 O346 2.377 . S
Gd321 O348 2.448 . S
Gd321 O349 2.506 . S
Gd321 O350 2.435 . S
Gd321 O351 2.717 . S
C322 O340 1.240 . S
C322 O341 1.240 . S
C323 Gd320 2.818 . S
C323 C324 1.510 . S
C323 O342 1.249 . S
C323 O343 1.252 . S
C324 C323 1.510 . S
C324 C325 1.404 . S
C324 C326 1.352 . S
C325 C324 1.404 . S
C325 C329 1.389 . S
C325 H352 0.930 . S
C326 C324 1.352 . S
C326 C328 1.374 . S
C326 H353 0.931 . S
C327 C328 1.359 . S
C327 C329 1.364 . S
C328 C326 1.374 . S
C328 C327 1.359 . S
C328 H354 0.931 . S
C329 C325 1.389 . S
C329 C327 1.364 . S
C329 H355 0.931 . S
C330 O344 1.256 . S
C330 O345 1.257 . S
C331 O346 1.240 . S
C331 O347 1.240 . S
C332 Gd321 2.818 . S
C332 C333 1.510 . S
C332 O348 1.249 . S
C332 O349 1.252 . S
C333 C332 1.510 . S
C333 C334 1.404 1_655 S
C333 C335 1.352 . S
C334 C333 1.404 1_455 S
C334 C338 1.389 1_554 S
C334 H356 0.930 . S
C335 C333 1.352 . S
C335 C337 1.374 1_554 S
C335 H357 0.931 . S
C336 C337 1.359 . S
C336 C338 1.364 1_655 S
C337 C335 1.374 1_556 S
C337 C336 1.359 . S
C337 H358 0.931 . S
C338 C334 1.389 1_556 S
C338 C336 1.364 1_455 S
C338 H359 0.931 . S
C339 O350 1.256 . S
C339 O351 1.257 . S
O340 Gd320 2.377 . S
O340 C322 1.240 . S
O341 Gd321 2.395 . S
O341 C322 1.240 . S
O342 Gd320 2.448 . S
O342 C323 1.249 . S
O343 Gd320 2.506 . S
O343 C323 1.252 . S
O344 Gd320 2.435 . S
O344 C330 1.256 . S
O345 Gd320 2.717 . S
O345 Gd321 2.327 . S
O345 C330 1.257 . S
O346 Gd321 2.377 . S
O346 C331 1.240 . S
O347 Gd320 2.395 . S
O347 C331 1.240 . S
O348 Gd321 2.448 . S
O348 C332 1.249 . S
O349 Gd321 2.506 . S
O349 C332 1.252 . S
O350 Gd321 2.435 . S
O350 C339 1.256 . S
O351 Gd320 2.327 . S
O351 Gd321 2.717 . S
O351 C339 1.257 . S
H352 C325 0.930 . S
H353 C326 0.931 . S
H354 C328 0.931 . S
H355 C329 0.931 . S
H356 C334 0.930 . S
H357 C335 0.931 . S
H358 C337 0.931 . S
H359 C338 0.931 . S
Gd360 C363 2.818 1_556 S
Gd360 O380 2.377 1_556 S
Gd360 O382 2.448 1_556 S
Gd360 O383 2.506 1_556 S
Gd360 O384 2.435 . S
Gd360 O385 2.717 . S
Gd360 O387 2.395 . S
Gd360 O391 2.327 . S
Gd361 C372 2.818 . S
Gd361 O381 2.395 1_556 S
Gd361 O385 2.327 . S
Gd361 O386 2.377 . S
Gd361 O388 2.448 . S
Gd361 O389 2.506 . S
Gd361 O390 2.435 . S
Gd361 O391 2.717 . S
C362 O380 1.240 . S
C362 O381 1.240 . S
C363 Gd360 2.818 1_554 S
C363 C364 1.510 . S
C363 O382 1.249 . S
C363 O383 1.252 . S
C364 C363 1.510 . S
C364 C365 1.404 . S
C364 C366 1.352 . S
C365 C364 1.404 . S
C365 C369 1.389 . S
C365 H392 0.930 . S
C366 C364 1.352 . S
C366 C368 1.374 . S
C366 H393 0.931 . S
C367 C368 1.359 . S
C367 C369 1.364 . S
C368 C366 1.374 . S
C368 C367 1.359 . S
C368 H394 0.931 . S
C369 C365 1.389 . S
C369 C367 1.364 . S
C369 H395 0.931 . S
C370 O384 1.256 . S
C370 O385 1.257 . S
C371 O386 1.240 . S
C371 O387 1.240 . S
C372 Gd361 2.818 . S
C372 C373 1.510 . S
C372 O388 1.249 . S
C372 O389 1.252 . S
C373 C372 1.510 . S
C373 C374 1.404 . S
C373 C375 1.352 . S
C374 C373 1.404 . S
C374 C378 1.389 . S
C374 H396 0.930 . S
C375 C373 1.352 . S
C375 C377 1.374 . S
C375 H397 0.931 . S
C376 C377 1.359 . S
C376 C378 1.364 . S
C377 C375 1.374 . S
C377 C376 1.359 . S
C377 H398 0.931 . S
C378 C374 1.389 . S
C378 C376 1.364 . S
C378 H399 0.931 . S
C379 O390 1.256 . S
C379 O391 1.257 . S
O380 Gd360 2.377 1_554 S
O380 C362 1.240 . S
O381 Gd361 2.395 1_554 S
O381 C362 1.240 . S
O382 Gd360 2.448 1_554 S
O382 C363 1.249 . S
O383 Gd360 2.506 1_554 S
O383 C363 1.252 . S
O384 Gd360 2.435 . S
O384 C370 1.256 . S
O385 Gd360 2.717 . S
O385 Gd361 2.327 . S
O385 C370 1.257 . S
O386 Gd361 2.377 . S
O386 C371 1.240 . S
O387 Gd360 2.395 . S
O387 C371 1.240 . S
O388 Gd361 2.448 . S
O388 C372 1.249 . S
O389 Gd361 2.506 . S
O389 C372 1.252 . S
O390 Gd361 2.435 . S
O390 C379 1.256 . S
O391 Gd360 2.327 . S
O391 Gd361 2.717 . S
O391 C379 1.257 . S
H392 C365 0.930 . S
H393 C366 0.931 . S
H394 C368 0.931 . S
H395 C369 0.931 . S
H396 C374 0.930 . S
H397 C375 0.931 . S
H398 C377 0.931 . S
H399 C378 0.931 . S
Gd400 C403 2.818 . S
Gd400 O420 2.377 . S
Gd400 O422 2.448 . S
Gd400 O423 2.506 . S
Gd400 O424 2.435 . S
Gd400 O425 2.717 . S
Gd400 O427 2.395 . S
Gd400 O431 2.327 . S
Gd401 C412 2.818 . S
Gd401 O421 2.395 . S
Gd401 O425 2.327 . S
Gd401 O426 2.377 . S
Gd401 O428 2.448 . S
Gd401 O429 2.506 . S
Gd401 O430 2.435 . S
Gd401 O431 2.717 . S
C402 O420 1.240 . S
C402 O421 1.240 . S
C403 Gd400 2.818 . S
C403 C404 1.510 . S
C403 O422 1.249 . S
C403 O423 1.252 . S
C404 C403 1.510 . S
C404 C405 1.404 . S
C404 C406 1.352 . S
C405 C404 1.404 . S
C405 C409 1.389 . S
C405 H432 0.930 . S
C406 C404 1.352 . S
C406 C408 1.374 . S
C406 H433 0.931 . S
C407 C408 1.359 . S
C407 C409 1.364 . S
C408 C406 1.374 . S
C408 C407 1.359 . S
C408 H434 0.931 . S
C409 C405 1.389 . S
C409 C407 1.364 . S
C409 H435 0.931 . S
C410 O424 1.256 . S
C410 O425 1.257 . S
C411 O426 1.240 . S
C411 O427 1.240 . S
C412 Gd401 2.818 . S
C412 C413 1.510 . S
C412 O428 1.249 . S
C412 O429 1.252 . S
C413 C412 1.510 . S
C413 C414 1.404 . S
C413 C415 1.352 . S
C414 C413 1.404 . S
C414 C418 1.389 . S
C414 H436 0.930 . S
C415 C413 1.352 . S
C415 C417 1.374 . S
C415 H437 0.931 . S
C416 C417 1.359 . S
C416 C418 1.364 . S
C417 C415 1.374 . S
C417 C416 1.359 . S
C417 H438 0.931 . S
C418 C414 1.389 . S
C418 C416 1.364 . S
C418 H439 0.931 . S
C419 O430 1.256 . S
C419 O431 1.257 . S
O420 Gd400 2.377 . S
O420 C402 1.240 . S
O421 Gd401 2.395 . S
O421 C402 1.240 . S
O422 Gd400 2.448 . S
O422 C403 1.249 . S
O423 Gd400 2.506 . S
O423 C403 1.252 . S
O424 Gd400 2.435 . S
O424 C410 1.256 . S
O425 Gd400 2.717 . S
O425 Gd401 2.327 . S
O425 C410 1.257 . S
O426 Gd401 2.377 . S
O426 C411 1.240 . S
O427 Gd400 2.395 . S
O427 C411 1.240 . S
O428 Gd401 2.448 . S
O428 C412 1.249 . S
O429 Gd401 2.506 . S
O429 C412 1.252 . S
O430 Gd401 2.435 . S
O430 C419 1.256 . S
O431 Gd400 2.327 . S
O431 Gd401 2.717 . S
O431 C419 1.257 . S
H432 C405 0.930 . S
H433 C406 0.931 . S
H434 C408 0.931 . S
H435 C409 0.931 . S
H436 C414 0.930 . S
H437 C415 0.931 . S
H438 C417 0.931 . S
H439 C418 0.931 . S
Gd440 C443 2.818 . S
Gd440 O460 2.377 . S
Gd440 O462 2.448 . S
Gd440 O463 2.506 . S
Gd440 O464 2.435 . S
Gd440 O465 2.717 . S
Gd440 O467 2.395 . S
Gd440 O471 2.327 . S
Gd441 C452 2.818 . S
Gd441 O461 2.395 . S
Gd441 O465 2.327 . S
Gd441 O466 2.377 . S
Gd441 O468 2.448 . S
Gd441 O469 2.506 . S
Gd441 O470 2.435 . S
Gd441 O471 2.717 . S
C442 O460 1.240 . S
C442 O461 1.240 . S
C443 Gd440 2.818 . S
C443 C444 1.510 . S
C443 O462 1.249 . S
C443 O463 1.252 . S
C444 C443 1.510 . S
C444 C445 1.404 . S
C444 C446 1.352 . S
C445 C444 1.404 . S
C445 C449 1.389 . S
C445 H472 0.930 . S
C446 C444 1.352 . S
C446 C448 1.374 . S
C446 H473 0.931 . S
C447 C448 1.359 . S
C447 C449 1.364 . S
C448 C446 1.374 . S
C448 C447 1.359 . S
C448 H474 0.931 . S
C449 C445 1.389 . S
C449 C447 1.364 . S
C449 H475 0.931 . S
C450 O464 1.256 . S
C450 O465 1.257 . S
C451 O466 1.240 . S
C451 O467 1.240 . S
C452 Gd441 2.818 . S
C452 C453 1.510 . S
C452 O468 1.249 . S
C452 O469 1.252 . S
C453 C452 1.510 . S
C453 C454 1.404 . S
C453 C455 1.352 . S
C454 C453 1.404 . S
C454 C458 1.389 . S
C454 H476 0.930 . S
C455 C453 1.352 . S
C455 C457 1.374 . S
C455 H477 0.931 . S
C456 C457 1.359 . S
C456 C458 1.364 . S
C457 C455 1.374 . S
C457 C456 1.359 . S
C457 H478 0.931 . S
C458 C454 1.389 . S
C458 C456 1.364 . S
C458 H479 0.931 . S
C459 O470 1.256 . S
C459 O471 1.257 . S
O460 Gd440 2.377 . S
O460 C442 1.240 . S
O461 Gd441 2.395 . S
O461 C442 1.240 . S
O462 Gd440 2.448 . S
O462 C443 1.249 . S
O463 Gd440 2.506 . S
O463 C443 1.252 . S
O464 Gd440 2.435 . S
O464 C450 1.256 . S
O465 Gd440 2.717 . S
O465 Gd441 2.327 . S
O465 C450 1.257 . S
O466 Gd441 2.377 . S
O466 C451 1.240 . S
O467 Gd440 2.395 . S
O467 C451 1.240 . S
O468 Gd441 2.448 . S
O468 C452 1.249 . S
O469 Gd441 2.506 . S
O469 C452 1.252 . S
O470 Gd441 2.435 . S
O470 C459 1.256 . S
O471 Gd440 2.327 . S
O471 Gd441 2.717 . S
O471 C459 1.257 . S
H472 C445 0.930 . S
H473 C446 0.931 . S
H474 C448 0.931 . S
H475 C449 0.931 . S
H476 C454 0.930 . S
H477 C455 0.931 . S
H478 C457 0.931 . S
H479 C458 0.931 . S
Gd480 C483 2.818 . S
Gd480 O500 2.377 . S
Gd480 O502 2.448 . S
Gd480 O503 2.506 . S
Gd480 O504 2.435 . S
Gd480 O505 2.717 . S
Gd480 O507 2.395 . S
Gd480 O511 2.327 . S
Gd481 C492 2.818 . S
Gd481 O501 2.395 . S
Gd481 O505 2.327 . S
Gd481 O506 2.377 . S
Gd481 O508 2.448 . S
Gd481 O509 2.506 . S
Gd481 O510 2.435 . S
Gd481 O511 2.717 . S
C482 O500 1.240 . S
C482 O501 1.240 . S
C483 Gd480 2.818 . S
C483 C484 1.510 . S
C483 O502 1.249 . S
C483 O503 1.252 . S
C484 C483 1.510 . S
C484 C485 1.404 . S
C484 C486 1.352 . S
C485 C484 1.404 . S
C485 C489 1.389 . S
C485 H512 0.930 . S
C486 C484 1.352 . S
C486 C488 1.374 1_556 S
C486 H513 0.931 . S
C487 C488 1.359 . S
C487 C489 1.364 1_554 S
C488 C486 1.374 1_554 S
C488 C487 1.359 . S
C488 H514 0.931 . S
C489 C485 1.389 . S
C489 C487 1.364 1_556 S
C489 H515 0.926 1_556 S
C490 O504 1.256 . S
C490 O505 1.257 . S
C491 O506 1.240 . S
C491 O507 1.240 . S
C492 Gd481 2.818 . S
C492 C493 1.510 . S
C492 O508 1.249 . S
C492 O509 1.252 . S
C493 C492 1.510 . S
C493 C494 1.404 . S
C493 C495 1.352 . S
C494 C493 1.404 . S
C494 C498 1.389 . S
C494 H516 0.930 . S
C495 C493 1.352 . S
C495 C497 1.374 . S
C495 H517 0.931 . S
C496 C497 1.359 . S
C496 C498 1.364 . S
C497 C495 1.374 . S
C497 C496 1.359 . S
C497 H518 0.931 . S
C498 C494 1.389 . S
C498 C496 1.364 . S
C498 H519 0.931 . S
C499 O510 1.256 . S
C499 O511 1.257 . S
O500 Gd480 2.377 . S
O500 C482 1.240 . S
O501 Gd481 2.395 . S
O501 C482 1.240 . S
O502 Gd480 2.448 . S
O502 C483 1.249 . S
O503 Gd480 2.506 . S
O503 C483 1.252 . S
O504 Gd480 2.435 . S
O504 C490 1.256 . S
O505 Gd480 2.717 . S
O505 Gd481 2.327 . S
O505 C490 1.257 . S
O506 Gd481 2.377 . S
O506 C491 1.240 . S
O507 Gd480 2.395 . S
O507 C491 1.240 . S
O508 Gd481 2.448 . S
O508 C492 1.249 . S
O509 Gd481 2.506 . S
O509 C492 1.252 . S
O510 Gd481 2.435 . S
O510 C499 1.256 . S
O511 Gd480 2.327 . S
O511 Gd481 2.717 . S
O511 C499 1.257 . S
H512 C485 0.930 . S
H513 C486 0.931 . S
H514 C488 0.931 . S
H515 C489 0.926 1_554 S
H516 C494 0.930 . S
H517 C495 0.931 . S
H518 C497 0.931 . S
H519 C498 0.931 . S
Gd520 C523 2.818 . S
Gd520 O540 2.377 . S
Gd520 O542 2.448 . S
Gd520 O543 2.506 . S
Gd520 O544 2.435 . S
Gd520 O545 2.717 . S
Gd520 O547 2.395 . S
Gd520 O551 2.327 . S
Gd521 C532 2.818 . S
Gd521 O541 2.395 . S
Gd521 O545 2.327 . S
Gd521 O546 2.377 . S
Gd521 O548 2.448 . S
Gd521 O549 2.506 . S
Gd521 O550 2.435 . S
Gd521 O551 2.717 . S
C522 O540 1.240 . S
C522 O541 1.240 . S
C523 Gd520 2.818 . S
C523 C524 1.510 . S
C523 O542 1.249 . S
C523 O543 1.252 . S
C524 C523 1.510 . S
C524 C525 1.404 . S
C524 C526 1.352 . S
C525 C524 1.404 . S
C525 C529 1.389 . S
C525 H552 0.930 . S
C526 C524 1.352 . S
C526 C528 1.374 . S
C526 H553 0.931 . S
C527 C528 1.359 . S
C527 C529 1.364 . S
C528 C526 1.374 . S
C528 C527 1.359 . S
C528 H554 0.931 . S
C529 C525 1.389 . S
C529 C527 1.364 . S
C529 H555 0.931 . S
C530 O544 1.256 . S
C530 O545 1.257 . S
C531 O546 1.240 . S
C531 O547 1.240 . S
C532 Gd521 2.818 . S
C532 C533 1.510 . S
C532 O548 1.249 . S
C532 O549 1.252 . S
C533 C532 1.510 . S
C533 C534 1.404 . S
C533 C535 1.352 . S
C534 C533 1.404 . S
C534 C538 1.389 . S
C534 H556 0.930 . S
C535 C533 1.352 . S
C535 C537 1.374 . S
C535 H557 0.931 . S
C536 C537 1.359 . S
C536 C538 1.364 . S
C537 C535 1.374 . S
C537 C536 1.359 . S
C537 H558 0.931 . S
C538 C534 1.389 . S
C538 C536 1.364 . S
C538 H559 0.931 . S
C539 O550 1.256 . S
C539 O551 1.257 . S
O540 Gd520 2.377 . S
O540 C522 1.240 . S
O541 Gd521 2.395 . S
O541 C522 1.240 . S
O542 Gd520 2.448 . S
O542 C523 1.249 . S
O543 Gd520 2.506 . S
O543 C523 1.252 . S
O544 Gd520 2.435 . S
O544 C530 1.256 . S
O545 Gd520 2.717 . S
O545 Gd521 2.327 . S
O545 C530 1.257 . S
O546 Gd521 2.377 . S
O546 C531 1.240 . S
O547 Gd520 2.395 . S
O547 C531 1.240 . S
O548 Gd521 2.448 . S
O548 C532 1.249 . S
O549 Gd521 2.506 . S
O549 C532 1.252 . S
O550 Gd521 2.435 . S
O550 C539 1.256 . S
O551 Gd520 2.327 . S
O551 Gd521 2.717 . S
O551 C539 1.257 . S
H552 C525 0.930 . S
H553 C526 0.931 . S
H554 C528 0.931 . S
H555 C529 0.931 . S
H556 C534 0.930 . S
H557 C535 0.931 . S
H558 C537 0.931 . S
H559 C538 0.931 . S
Gd560 C563 2.818 . S
Gd560 O580 2.377 . S
Gd560 O582 2.448 . S
Gd560 O583 2.506 . S
Gd560 O584 2.435 . S
Gd560 O585 2.717 . S
Gd560 O587 2.395 . S
Gd560 O591 2.327 . S
Gd561 C572 2.818 . S
Gd561 O581 2.395 . S
Gd561 O585 2.327 . S
Gd561 O586 2.377 . S
Gd561 O588 2.448 . S
Gd561 O589 2.506 . S
Gd561 O590 2.435 . S
Gd561 O591 2.717 . S
C562 O580 1.240 . S
C562 O581 1.240 . S
C563 Gd560 2.818 . S
C563 C564 1.510 . S
C563 O582 1.249 . S
C563 O583 1.252 . S
C564 C563 1.510 . S
C564 C565 1.404 . S
C564 C566 1.352 . S
C565 C564 1.404 . S
C565 C569 1.389 . S
C565 H592 0.930 . S
C566 C564 1.352 . S
C566 C568 1.374 . S
C566 H593 0.931 . S
C567 C568 1.359 . S
C567 C569 1.364 . S
C568 C566 1.374 . S
C568 C567 1.359 . S
C568 H594 0.931 . S
C569 C565 1.389 . S
C569 C567 1.364 . S
C569 H595 0.931 . S
C570 O584 1.256 . S
C570 O585 1.257 . S
C571 O586 1.240 . S
C571 O587 1.240 . S
C572 Gd561 2.818 . S
C572 C573 1.510 . S
C572 O588 1.249 . S
C572 O589 1.252 . S
C573 C572 1.510 . S
C573 C574 1.404 . S
C573 C575 1.352 . S
C574 C573 1.404 . S
C574 C578 1.389 . S
C574 H596 0.930 . S
C575 C573 1.352 . S
C575 C577 1.374 . S
C575 H597 0.931 . S
C576 C577 1.359 . S
C576 C578 1.364 . S
C577 C575 1.374 . S
C577 C576 1.359 . S
C577 H598 0.931 1_554 S
C578 C574 1.389 . S
C578 C576 1.364 . S
C578 H599 0.931 . S
C579 O590 1.256 . S
C579 O591 1.257 . S
O580 Gd560 2.377 . S
O580 C562 1.240 . S
O581 Gd561 2.395 . S
O581 C562 1.240 . S
O582 Gd560 2.448 . S
O582 C563 1.249 . S
O583 Gd560 2.506 . S
O583 C563 1.252 . S
O584 Gd560 2.435 . S
O584 C570 1.256 . S
O585 Gd560 2.717 . S
O585 Gd561 2.327 . S
O585 C570 1.257 . S
O586 Gd561 2.377 . S
O586 C571 1.240 . S
O587 Gd560 2.395 . S
O587 C571 1.240 . S
O588 Gd561 2.448 . S
O588 C572 1.249 . S
O589 Gd561 2.506 . S
O589 C572 1.252 . S
O590 Gd561 2.435 . S
O590 C579 1.256 . S
O591 Gd560 2.327 . S
O591 Gd561 2.717 . S
O591 C579 1.257 . S
H592 C565 0.930 . S
H593 C566 0.931 . S
H594 C568 0.931 . S
H595 C569 0.931 . S
H596 C574 0.930 . S
H597 C575 0.931 . S
H598 C577 0.931 1_556 S
H599 C578 0.931 . S
Gd600 C603 2.818 . S
Gd600 O620 2.377 . S
Gd600 O622 2.448 . S
Gd600 O623 2.506 . S
Gd600 O624 2.435 . S
Gd600 O625 2.717 . S
Gd600 O627 2.395 . S
Gd600 O631 2.327 . S
Gd601 C612 2.818 . S
Gd601 O621 2.395 . S
Gd601 O625 2.327 . S
Gd601 O626 2.377 . S
Gd601 O628 2.448 . S
Gd601 O629 2.506 . S
Gd601 O630 2.435 . S
Gd601 O631 2.717 . S
C602 O620 1.240 . S
C602 O621 1.240 . S
C603 Gd600 2.818 . S
C603 C604 1.510 1_556 S
C603 O622 1.249 . S
C603 O623 1.252 . S
C604 C603 1.510 1_554 S
C604 C605 1.404 . S
C604 C606 1.352 . S
C605 C604 1.404 . S
C605 C609 1.389 . S
C605 H632 0.930 . S
C606 C604 1.352 . S
C606 C608 1.374 . S
C606 H633 0.931 . S
C607 C608 1.359 . S
C607 C609 1.364 . S
C608 C606 1.374 . S
C608 C607 1.359 . S
C608 H634 0.931 . S
C609 C605 1.389 . S
C609 C607 1.364 . S
C609 H635 0.931 . S
C610 O624 1.256 . S
C610 O625 1.257 . S
C611 O626 1.240 . S
C611 O627 1.240 . S
C612 Gd601 2.818 . S
C612 C613 1.510 . S
C612 O628 1.249 . S
C612 O629 1.252 . S
C613 C612 1.510 . S
C613 C614 1.404 . S
C613 C615 1.352 . S
C614 C613 1.404 . S
C614 C618 1.389 . S
C614 H636 0.930 . S
C615 C613 1.352 . S
C615 C617 1.374 . S
C615 H637 0.931 . S
C616 C617 1.359 . S
C616 C618 1.364 . S
C617 C615 1.374 . S
C617 C616 1.359 . S
C617 H638 0.931 . S
C618 C614 1.389 . S
C618 C616 1.364 . S
C618 H639 0.931 . S
C619 O630 1.256 . S
C619 O631 1.257 . S
O620 Gd600 2.377 . S
O620 C602 1.240 . S
O621 Gd601 2.395 . S
O621 C602 1.240 . S
O622 Gd600 2.448 . S
O622 C603 1.249 . S
O623 Gd600 2.506 . S
O623 C603 1.252 . S
O624 Gd600 2.435 . S
O624 C610 1.256 . S
O625 Gd600 2.717 . S
O625 Gd601 2.327 . S
O625 C610 1.257 . S
O626 Gd601 2.377 . S
O626 C611 1.240 . S
O627 Gd600 2.395 . S
O627 C611 1.240 . S
O628 Gd601 2.448 . S
O628 C612 1.249 . S
O629 Gd601 2.506 . S
O629 C612 1.252 . S
O630 Gd601 2.435 . S
O630 C619 1.256 . S
O631 Gd600 2.327 . S
O631 Gd601 2.717 . S
O631 C619 1.257 . S
H632 C605 0.930 . S
H633 C606 0.931 . S
H634 C608 0.931 . S
H635 C609 0.931 . S
H636 C614 0.930 . S
H637 C615 0.931 . S
H638 C617 0.931 . S
H639 C618 0.931 . S
Gd640 C643 2.818 . S
Gd640 O660 2.377 . S
Gd640 O662 2.448 . S
Gd640 O663 2.506 . S
Gd640 O664 2.435 . S
Gd640 O665 2.717 . S
Gd640 O667 2.395 . S
Gd640 O671 2.327 . S
Gd641 C652 2.818 . S
Gd641 O661 2.395 . S
Gd641 O665 2.327 . S
Gd641 O666 2.377 . S
Gd641 O668 2.448 . S
Gd641 O669 2.506 . S
Gd641 O670 2.435 . S
Gd641 O671 2.717 . S
C642 O660 1.240 . S
C642 O661 1.240 . S
C643 Gd640 2.818 . S
C643 C644 1.510 . S
C643 O662 1.249 . S
C643 O663 1.252 . S
C644 C643 1.510 . S
C644 C645 1.404 . S
C644 C646 1.352 . S
C645 C644 1.404 . S
C645 C649 1.389 . S
C645 H672 0.930 . S
C646 C644 1.352 . S
C646 C648 1.374 . S
C646 H673 0.931 . S
C647 C648 1.359 . S
C647 C649 1.364 . S
C648 C646 1.374 . S
C648 C647 1.359 . S
C648 H674 0.931 . S
C649 C645 1.389 . S
C649 C647 1.364 . S
C649 H675 0.931 . S
C650 O664 1.256 . S
C650 O665 1.257 . S
C651 O666 1.240 . S
C651 O667 1.240 . S
C652 Gd641 2.818 . S
C652 C653 1.510 . S
C652 O668 1.249 . S
C652 O669 1.252 . S
C653 C652 1.510 . S
C653 C654 1.404 . S
C653 C655 1.352 . S
C654 C653 1.404 . S
C654 C658 1.389 . S
C654 H676 0.930 . S
C655 C653 1.352 . S
C655 C657 1.374 . S
C655 H677 0.931 . S
C656 C657 1.359 . S
C656 C658 1.364 . S
C657 C655 1.374 . S
C657 C656 1.359 . S
C657 H678 0.931 . S
C658 C654 1.389 . S
C658 C656 1.364 . S
C658 H679 0.931 . S
C659 O670 1.256 . S
C659 O671 1.257 . S
O660 Gd640 2.377 . S
O660 C642 1.240 . S
O661 Gd641 2.395 . S
O661 C642 1.240 . S
O662 Gd640 2.448 . S
O662 C643 1.249 . S
O663 Gd640 2.506 . S
O663 C643 1.252 . S
O664 Gd640 2.435 . S
O664 C650 1.256 . S
O665 Gd640 2.717 . S
O665 Gd641 2.327 . S
O665 C650 1.257 . S
O666 Gd641 2.377 . S
O666 C651 1.240 . S
O667 Gd640 2.395 . S
O667 C651 1.240 . S
O668 Gd641 2.448 . S
O668 C652 1.249 . S
O669 Gd641 2.506 . S
O669 C652 1.252 . S
O670 Gd641 2.435 . S
O670 C659 1.256 . S
O671 Gd640 2.327 . S
O671 Gd641 2.717 . S
O671 C659 1.257 . S
H672 C645 0.930 . S
H673 C646 0.931 . S
H674 C648 0.931 . S
H675 C649 0.931 . S
H676 C654 0.930 . S
H677 C655 0.931 . S
H678 C657 0.931 . S
H679 C658 0.931 . S
Gd680 C683 2.818 . S
Gd680 O700 2.377 . S
Gd680 O702 2.448 . S
Gd680 O703 2.506 . S
Gd680 O704 2.435 . S
Gd680 O705 2.717 . S
Gd680 O707 2.395 . S
Gd680 O711 2.327 . S
Gd681 C692 2.818 . S
Gd681 O701 2.395 . S
Gd681 O705 2.327 . S
Gd681 O706 2.377 . S
Gd681 O708 2.448 . S
Gd681 O709 2.506 . S
Gd681 O710 2.435 . S
Gd681 O711 2.717 . S
C682 O700 1.240 . S
C682 O701 1.240 . S
C683 Gd680 2.818 . S
C683 C684 1.510 1_556 S
C683 O702 1.249 . S
C683 O703 1.252 . S
C684 C683 1.510 1_554 S
C684 C685 1.404 . S
C684 C686 1.352 . S
C685 C684 1.404 . S
C685 C689 1.389 . S
C685 H712 0.930 . S
C686 C684 1.352 . S
C686 C688 1.374 . S
C686 H713 0.931 . S
C687 C688 1.359 . S
C687 C689 1.364 . S
C688 C686 1.374 . S
C688 C687 1.359 . S
C688 H714 0.931 . S
C689 C685 1.389 . S
C689 C687 1.364 . S
C689 H715 0.931 . S
C690 O704 1.256 . S
C690 O705 1.257 . S
C691 O706 1.240 . S
C691 O707 1.240 . S
C692 Gd681 2.818 . S
C692 C693 1.510 . S
C692 O708 1.249 . S
C692 O709 1.252 . S
C693 C692 1.510 . S
C693 C694 1.404 . S
C693 C695 1.352 . S
C694 C693 1.404 . S
C694 C698 1.389 . S
C694 H716 0.930 . S
C695 C693 1.352 . S
C695 C697 1.374 . S
C695 H717 0.931 . S
C696 C697 1.359 . S
C696 C698 1.364 . S
C697 C695 1.374 . S
C697 C696 1.359 . S
C697 H718 0.931 . S
C698 C694 1.389 . S
C698 C696 1.364 . S
C698 H719 0.931 . S
C699 O710 1.256 . S
C699 O711 1.257 . S
O700 Gd680 2.377 . S
O700 C682 1.240 . S
O701 Gd681 2.395 . S
O701 C682 1.240 . S
O702 Gd680 2.448 . S
O702 C683 1.249 . S
O703 Gd680 2.506 . S
O703 C683 1.252 . S
O704 Gd680 2.435 . S
O704 C690 1.256 . S
O705 Gd680 2.717 . S
O705 Gd681 2.327 . S
O705 C690 1.257 . S
O706 Gd681 2.377 . S
O706 C691 1.240 . S
O707 Gd680 2.395 . S
O707 C691 1.240 . S
O708 Gd681 2.448 . S
O708 C692 1.249 . S
O709 Gd681 2.506 . S
O709 C692 1.252 . S
O710 Gd681 2.435 . S
O710 C699 1.256 . S
O711 Gd680 2.327 . S
O711 Gd681 2.717 . S
O711 C699 1.257 . S
H712 C685 0.930 . S
H713 C686 0.931 . S
H714 C688 0.931 . S
H715 C689 0.931 . S
H716 C694 0.930 . S
H717 C695 0.931 . S
H718 C697 0.931 . S
H719 C698 0.931 . S
Gd720 C723 2.818 . S
Gd720 O740 2.377 . S
Gd720 O742 2.448 1_655 S
Gd720 O743 2.506 . S
Gd720 O744 2.431 1_655 S
Gd720 O745 2.717 . S
Gd720 O747 2.395 . S
Gd720 O751 2.327 . S
Gd721 C732 2.818 . S
Gd721 O741 2.395 . S
Gd721 O745 2.327 . S
Gd721 O746 2.377 . S
Gd721 O748 2.448 . S
Gd721 O749 2.506 . S
Gd721 O750 2.435 . S
Gd721 O751 2.717 . S
C722 O740 1.240 . S
C722 O741 1.240 . S
C723 Gd720 2.818 . S
C723 C724 1.510 . S
C723 O742 1.249 1_655 S
C723 O743 1.252 . S
C724 C723 1.510 . S
C724 C725 1.404 1_655 S
C724 C726 1.352 . S
C725 C724 1.404 1_455 S
C725 C729 1.389 . S
C725 H752 0.930 . S
C726 C724 1.352 . S
C726 C728 1.374 . S
C726 H753 0.931 . S
C727 C728 1.359 1_455 S
C727 C729 1.364 . S
C728 C726 1.374 . S
C728 C727 1.359 1_655 S
C728 H754 0.931 . S
C729 C725 1.389 . S
C729 C727 1.364 . S
C729 H755 0.931 . S
C730 O744 1.248 1_655 S
C730 O745 1.257 . S
C731 O746 1.240 . S
C731 O747 1.240 . S
C732 Gd721 2.818 . S
C732 C733 1.510 1_554 S
C732 O748 1.249 . S
C732 O749 1.252 . S
C733 C732 1.510 1_556 S
C733 C734 1.404 . S
C733 C735 1.352 . S
C734 C733 1.404 . S
C734 C738 1.389 . S
C734 H756 0.930 . S
C735 C733 1.352 . S
C735 C737 1.374 . S
C735 H757 0.931 . S
C736 C737 1.359 . S
C736 C738 1.364 . S
C737 C735 1.374 . S
C737 C736 1.359 . S
C737 H758 0.931 . S
C738 C734 1.389 . S
C738 C736 1.364 . S
C738 H759 0.931 . S
C739 O750 1.256 . S
C739 O751 1.257 . S
O740 Gd720 2.377 . S
O740 C722 1.240 . S
O741 Gd721 2.395 . S
O741 C722 1.240 . S
O742 Gd720 2.448 1_455 S
O742 C723 1.249 1_455 S
O743 Gd720 2.506 . S
O743 C723 1.252 . S
O744 Gd720 2.431 1_455 S
O744 C730 1.248 1_455 S
O745 Gd720 2.717 . S
O745 Gd721 2.327 . S
O745 C730 1.257 . S
O746 Gd721 2.377 . S
O746 C731 1.240 . S
O747 Gd720 2.395 . S
O747 C731 1.240 . S
O748 Gd721 2.448 . S
O748 C732 1.249 . S
O749 Gd721 2.506 . S
O749 C732 1.252 . S
O750 Gd721 2.435 . S
O750 C739 1.256 . S
O751 Gd720 2.327 . S
O751 Gd721 2.717 . S
O751 C739 1.257 . S
H752 C725 0.930 . S
H753 C726 0.931 . S
H754 C728 0.931 . S
H755 C729 0.931 . S
H756 C734 0.930 . S
H757 C735 0.931 . S
H758 C737 0.931 . S
H759 C738 0.931 . S
Gd760 C763 2.818 . S
Gd760 O780 2.377 . S
Gd760 O782 2.448 . S
Gd760 O783 2.506 . S
Gd760 O784 2.435 . S
Gd760 O785 2.717 . S
Gd760 O787 2.395 . S
Gd760 O791 2.327 . S
Gd761 C772 2.818 . S
Gd761 O781 2.395 . S
Gd761 O785 2.327 . S
Gd761 O786 2.377 . S
Gd761 O788 2.448 . S
Gd761 O789 2.506 . S
Gd761 O790 2.435 . S
Gd761 O791 2.717 . S
C762 O780 1.240 . S
C762 O781 1.240 . S
C763 Gd760 2.818 . S
C763 C764 1.510 . S
C763 O782 1.249 . S
C763 O783 1.252 . S
C764 C763 1.510 . S
C764 C765 1.404 . S
C764 C766 1.352 . S
C765 C764 1.404 . S
C765 C769 1.389 . S
C765 H792 0.930 . S
C766 C764 1.352 . S
C766 C768 1.374 . S
C766 H793 0.931 . S
C767 C768 1.359 . S
C767 C769 1.364 . S
C768 C766 1.374 . S
C768 C767 1.359 . S
C768 H794 0.931 . S
C769 C765 1.389 . S
C769 C767 1.364 . S
C769 H795 0.931 . S
C770 O784 1.256 . S
C770 O785 1.257 . S
C771 O786 1.240 . S
C771 O787 1.240 . S
C772 Gd761 2.818 . S
C772 C773 1.510 . S
C772 O788 1.249 . S
C772 O789 1.252 . S
C773 C772 1.510 . S
C773 C774 1.404 . S
C773 C775 1.352 . S
C774 C773 1.404 . S
C774 C778 1.389 . S
C774 H796 0.930 . S
C775 C773 1.352 . S
C775 C777 1.374 . S
C775 H797 0.931 . S
C776 C777 1.359 . S
C776 C778 1.364 . S
C777 C775 1.374 . S
C777 C776 1.359 . S
C777 H798 0.931 . S
C778 C774 1.389 . S
C778 C776 1.364 . S
C778 H799 0.931 . S
C779 O790 1.256 . S
C779 O791 1.257 . S
O780 Gd760 2.377 . S
O780 C762 1.240 . S
O781 Gd761 2.395 . S
O781 C762 1.240 . S
O782 Gd760 2.448 . S
O782 C763 1.249 . S
O783 Gd760 2.506 . S
O783 C763 1.252 . S
O784 Gd760 2.435 . S
O784 C770 1.256 . S
O785 Gd760 2.717 . S
O785 Gd761 2.327 . S
O785 C770 1.257 . S
O786 Gd761 2.377 . S
O786 C771 1.240 . S
O787 Gd760 2.395 . S
O787 C771 1.240 . S
O788 Gd761 2.448 . S
O788 C772 1.249 . S
O789 Gd761 2.506 . S
O789 C772 1.252 . S
O790 Gd761 2.435 . S
O790 C779 1.256 . S
O791 Gd760 2.327 . S
O791 Gd761 2.717 . S
O791 C779 1.257 . S
H792 C765 0.930 . S
H793 C766 0.931 . S
H794 C768 0.931 . S
H795 C769 0.931 . S
H796 C774 0.930 . S
H797 C775 0.931 . S
H798 C777 0.931 . S
H799 C778 0.931 . S
Gd800 C803 2.818 . S
Gd800 O820 2.377 . S
Gd800 O822 2.448 . S
Gd800 O823 2.506 . S
Gd800 O824 2.435 . S
Gd800 O825 2.717 . S
Gd800 O827 2.395 . S
Gd800 O831 2.327 . S
Gd801 C812 2.818 1_544 S
Gd801 O821 2.395 . S
Gd801 O825 2.327 . S
Gd801 O826 2.377 1_554 S
Gd801 O828 2.448 1_544 S
Gd801 O829 2.506 1_554 S
Gd801 O830 2.435 1_545 S
Gd801 O831 2.717 . S
C802 O820 1.240 . S
C802 O821 1.240 . S
C803 Gd800 2.818 . S
C803 C804 1.510 . S
C803 O822 1.249 . S
C803 O823 1.252 . S
C804 C803 1.510 . S
C804 C805 1.404 . S
C804 C806 1.352 . S
C805 C804 1.404 . S
C805 C809 1.389 . S
C805 H832 0.930 . S
C806 C804 1.352 . S
C806 C808 1.374 . S
C806 H833 0.931 . S
C807 C808 1.359 . S
C807 C809 1.364 . S
C808 C806 1.374 . S
C808 C807 1.359 . S
C808 H834 0.931 . S
C809 C805 1.389 . S
C809 C807 1.364 . S
C809 H835 0.931 . S
C810 O824 1.256 . S
C810 O825 1.257 . S
C811 O826 1.240 . S
C811 O827 1.240 1_556 S
C812 Gd801 2.818 1_566 S
C812 C813 1.510 . S
C812 O828 1.249 . S
C812 O829 1.252 1_565 S
C813 C812 1.510 . S
C813 C814 1.404 . S
C813 C815 1.352 . S
C814 C813 1.404 . S
C814 C818 1.389 . S
C814 H836 0.930 . S
C815 C813 1.352 . S
C815 C817 1.374 . S
C815 H837 0.931 1_565 S
C816 C817 1.359 . S
C816 C818 1.364 . S
C817 C815 1.374 . S
C817 C816 1.359 . S
C817 H838 0.918 1_565 S
C818 C814 1.389 . S
C818 C816 1.364 . S
C818 H839 0.931 . S
C819 O830 1.256 1_545 S
C819 O831 1.257 . S
O820 Gd800 2.377 . S
O820 C802 1.240 . S
O821 Gd801 2.395 . S
O821 C802 1.240 . S
O822 Gd800 2.448 . S
O822 C803 1.249 . S
O823 Gd800 2.506 . S
O823 C803 1.252 . S
O824 Gd800 2.435 . S
O824 C810 1.256 . S
O825 Gd800 2.717 . S
O825 Gd801 2.327 . S
O825 C810 1.257 . S
O826 Gd801 2.377 1_556 S
O826 C811 1.240 . S
O827 Gd800 2.395 . S
O827 C811 1.240 1_554 S
O828 Gd801 2.448 1_566 S
O828 C812 1.249 . S
O829 Gd801 2.506 1_556 S
O829 C812 1.252 1_545 S
O830 Gd801 2.435 1_565 S
O830 C819 1.256 1_565 S
O831 Gd800 2.327 . S
O831 Gd801 2.717 . S
O831 C819 1.257 . S
H832 C805 0.930 . S
H833 C806 0.931 . S
H834 C808 0.931 . S
H835 C809 0.931 . S
H836 C814 0.930 . S
H837 C815 0.931 1_545 S
H838 C817 0.918 1_545 S
H839 C818 0.931 . S
Gd840 C843 2.818 . S
Gd840 O860 2.377 . S
Gd840 O862 2.448 . S
Gd840 O863 2.506 . S
Gd840 O864 2.435 . S
Gd840 O865 2.717 . S
Gd840 O867 2.395 . S
Gd840 O871 2.327 . S
Gd841 C852 2.818 . S
Gd841 O861 2.395 . S
Gd841 O865 2.327 . S
Gd841 O866 2.377 . S
Gd841 O868 2.448 . S
Gd841 O869 2.506 . S
Gd841 O870 2.435 . S
Gd841 O871 2.717 . S
C842 O860 1.240 . S
C842 O861 1.240 . S
C843 Gd840 2.818 . S
C843 C844 1.510 . S
C843 O862 1.249 . S
C843 O863 1.252 . S
C844 C843 1.510 . S
C844 C845 1.404 . S
C844 C846 1.352 . S
C845 C844 1.404 . S
C845 C849 1.389 . S
C845 H872 0.930 . S
C846 C844 1.352 . S
C846 C848 1.374 . S
C846 H873 0.931 . S
C847 C848 1.359 . S
C847 C849 1.364 . S
C848 C846 1.374 . S
C848 C847 1.359 . S
C848 H874 0.931 . S
C849 C845 1.389 . S
C849 C847 1.364 . S
C849 H875 0.931 . S
C850 O864 1.256 . S
C850 O865 1.257 . S
C851 O866 1.240 . S
C851 O867 1.240 . S
C852 Gd841 2.818 . S
C852 C853 1.510 . S
C852 O868 1.249 . S
C852 O869 1.252 . S
C853 C852 1.510 . S
C853 C854 1.404 . S
C853 C855 1.352 . S
C854 C853 1.404 . S
C854 C858 1.389 . S
C854 H876 0.930 . S
C855 C853 1.352 . S
C855 C857 1.374 . S
C855 H877 0.931 . S
C856 C857 1.359 . S
C856 C858 1.364 . S
C857 C855 1.374 . S
C857 C856 1.359 . S
C857 H878 0.931 . S
C858 C854 1.389 . S
C858 C856 1.364 . S
C858 H879 0.931 . S
C859 O870 1.256 . S
C859 O871 1.257 . S
O860 Gd840 2.377 . S
O860 C842 1.240 . S
O861 Gd841 2.395 . S
O861 C842 1.240 . S
O862 Gd840 2.448 . S
O862 C843 1.249 . S
O863 Gd840 2.506 . S
O863 C843 1.252 . S
O864 Gd840 2.435 . S
O864 C850 1.256 . S
O865 Gd840 2.717 . S
O865 Gd841 2.327 . S
O865 C850 1.257 . S
O866 Gd841 2.377 . S
O866 C851 1.240 . S
O867 Gd840 2.395 . S
O867 C851 1.240 . S
O868 Gd841 2.448 . S
O868 C852 1.249 . S
O869 Gd841 2.506 . S
O869 C852 1.252 . S
O870 Gd841 2.435 . S
O870 C859 1.256 . S
O871 Gd840 2.327 . S
O871 Gd841 2.717 . S
O871 C859 1.257 . S
H872 C845 0.930 . S
H873 C846 0.931 . S
H874 C848 0.931 . S
H875 C849 0.931 . S
H876 C854 0.930 . S
H877 C855 0.931 . S
H878 C857 0.931 . S
H879 C858 0.931 . S
Gd880 C883 2.818 . S
Gd880 O900 2.377 . S
Gd880 O902 2.448 . S
Gd880 O903 2.506 . S
Gd880 O904 2.435 . S
Gd880 O905 2.717 . S
Gd880 O907 2.395 . S
Gd880 O911 2.327 . S
Gd881 C892 2.806 1_565 S
Gd881 O901 2.400 . S
Gd881 O905 2.358 . S
Gd881 O906 2.391 . S
Gd881 O908 2.427 1_565 S
Gd881 O909 2.506 . S
Gd881 O910 2.424 1_565 S
Gd881 O911 2.731 . S
C882 O900 1.240 . S
C882 O901 1.240 . S
C883 Gd880 2.818 . S
C883 C884 1.510 . S
C883 O902 1.249 . S
C883 O903 1.252 . S
C884 C883 1.510 . S
C884 C885 1.404 . S
C884 C886 1.352 . S
C885 C884 1.404 . S
C885 C889 1.389 . S
C885 H912 0.930 . S
C886 C884 1.352 . S
C886 C888 1.374 . S
C886 H913 0.931 . S
C887 C888 1.359 . S
C887 C889 1.364 . S
C888 C886 1.374 . S
C888 C887 1.359 . S
C888 H914 0.931 . S
C889 C885 1.389 . S
C889 C887 1.364 . S
C889 H915 0.931 . S
C890 O904 1.256 . S
C890 O905 1.257 . S
C891 O906 1.240 . S
C891 O907 1.240 . S
C892 Gd881 2.806 1_545 S
C892 C893 1.510 . S
C892 O908 1.249 . S
C892 O909 1.252 1_545 S
C893 C892 1.510 . S
C893 C894 1.404 . S
C893 C895 1.352 . S
C894 C893 1.404 . S
C894 C898 1.389 . S
C894 H916 0.930 . S
C895 C893 1.352 . S
C895 C897 1.374 . S
C895 H917 0.931 1_545 S
C896 C897 1.359 . S
C896 C898 1.364 . S
C897 C895 1.374 . S
C897 C896 1.359 . S
C897 H918 0.931 . S
C898 C894 1.389 . S
C898 C896 1.364 . S
C898 H919 0.931 . S
C899 O910 1.262 . S
C899 O911 1.250 1_545 S
O900 Gd880 2.377 . S
O900 C882 1.240 . S
O901 Gd881 2.400 . S
O901 C882 1.240 . S
O902 Gd880 2.448 . S
O902 C883 1.249 . S
O903 Gd880 2.506 . S
O903 C883 1.252 . S
O904 Gd880 2.435 . S
O904 C890 1.256 . S
O905 Gd880 2.717 . S
O905 Gd881 2.358 . S
O905 C890 1.257 . S
O906 Gd881 2.391 . S
O906 C891 1.240 . S
O907 Gd880 2.395 . S
O907 C891 1.240 . S
O908 Gd881 2.427 1_545 S
O908 C892 1.249 . S
O909 Gd881 2.506 . S
O909 C892 1.252 1_565 S
O910 Gd881 2.424 1_545 S
O910 C899 1.262 . S
O911 Gd880 2.327 . S
O911 Gd881 2.731 . S
O911 C899 1.250 1_565 S
H912 C885 0.930 . S
H913 C886 0.931 . S
H914 C888 0.931 . S
H915 C889 0.931 . S
H916 C894 0.930 . S
H917 C895 0.931 1_565 S
H918 C897 0.931 . S
H919 C898 0.931 . S
Gd920 C923 2.818 1_556 S
Gd920 O940 2.377 . S
Gd920 O942 2.448 1_556 S
Gd920 O943 2.506 1_556 S
Gd920 O944 2.435 . S
Gd920 O945 2.717 . S
Gd920 O947 2.395 . S
Gd920 O951 2.327 . S
Gd921 C932 2.818 . S
Gd921 O941 2.395 . S
Gd921 O945 2.327 . S
Gd921 O946 2.377 . S
Gd921 O948 2.448 . S
Gd921 O949 2.506 . S
Gd921 O950 2.435 . S
Gd921 O951 2.717 . S
C922 O940 1.240 . S
C922 O941 1.240 . S
C923 Gd920 2.818 1_554 S
C923 C924 1.510 . S
C923 O942 1.249 . S
C923 O943 1.252 . S
C924 C923 1.510 . S
C924 C925 1.404 . S
C924 C926 1.352 . S
C925 C924 1.404 . S
C925 C929 1.389 . S
C925 H952 0.930 . S
C926 C924 1.352 . S
C926 C928 1.374 . S
C926 H953 0.931 . S
C927 C928 1.359 . S
C927 C929 1.364 . S
C928 C926 1.374 . S
C928 C927 1.359 . S
C928 H954 0.931 . S
C929 C925 1.389 . S
C929 C927 1.364 . S
C929 H955 0.931 . S
C930 O944 1.256 . S
C930 O945 1.257 . S
C931 O946 1.240 . S
C931 O947 1.240 . S
C932 Gd921 2.818 . S
C932 C933 1.510 . S
C932 O948 1.249 . S
C932 O949 1.252 . S
C933 C932 1.510 . S
C933 C934 1.404 . S
C933 C935 1.352 . S
C934 C933 1.404 . S
C934 C938 1.389 . S
C934 H956 0.930 . S
C935 C933 1.352 . S
C935 C937 1.374 . S
C935 H957 0.931 . S
C936 C937 1.359 . S
C936 C938 1.364 . S
C937 C935 1.374 . S
C937 C936 1.359 . S
C937 H958 0.931 . S
C938 C934 1.389 . S
C938 C936 1.364 . S
C938 H959 0.931 . S
C939 O950 1.256 . S
C939 O951 1.257 . S
O940 Gd920 2.377 . S
O940 C922 1.240 . S
O941 Gd921 2.395 . S
O941 C922 1.240 . S
O942 Gd920 2.448 1_554 S
O942 C923 1.249 . S
O943 Gd920 2.506 1_554 S
O943 C923 1.252 . S
O944 Gd920 2.435 . S
O944 C930 1.256 . S
O945 Gd920 2.717 . S
O945 Gd921 2.327 . S
O945 C930 1.257 . S
O946 Gd921 2.377 . S
O946 C931 1.240 . S
O947 Gd920 2.395 . S
O947 C931 1.240 . S
O948 Gd921 2.448 . S
O948 C932 1.249 . S
O949 Gd921 2.506 . S
O949 C932 1.252 . S
O950 Gd921 2.435 . S
O950 C939 1.256 . S
O951 Gd920 2.327 . S
O951 Gd921 2.717 . S
O951 C939 1.257 . S
H952 C925 0.930 . S
H953 C926 0.931 . S
H954 C928 0.931 . S
H955 C929 0.931 . S
H956 C934 0.930 . S
H957 C935 0.931 . S
H958 C937 0.931 . S
H959 C938 0.931 . S
Gd960 C963 2.818 . S
Gd960 O980 2.377 . S
Gd960 O982 2.448 . S
Gd960 O983 2.506 . S
Gd960 O984 2.435 . S
Gd960 O985 2.717 . S
Gd960 O987 2.395 . S
Gd960 O991 2.327 . S
Gd961 C972 2.818 . S
Gd961 O981 2.395 . S
Gd961 O985 2.327 . S
Gd961 O986 2.377 . S
Gd961 O988 2.448 . S
Gd961 O989 2.506 . S
Gd961 O990 2.435 . S
Gd961 O991 2.717 . S
C962 O980 1.240 . S
C962 O981 1.240 . S
C963 Gd960 2.818 . S
C963 C964 1.510 . S
C963 O982 1.249 . S
C963 O983 1.252 . S
C964 C963 1.510 . S
C964 C965 1.404 . S
C964 C966 1.352 . S
C965 C964 1.404 . S
C965 C969 1.389 . S
C965 H992 0.930 . S
C966 C964 1.352 . S
C966 C968 1.374 . S
C966 H993 0.931 . S
C967 C968 1.359 . S
C967 C969 1.364 . S
C968 C966 1.374 . S
C968 C967 1.359 . S
C968 H994 0.931 . S
C969 C965 1.389 . S
C969 C967 1.364 . S
C969 H995 0.931 . S
C970 O984 1.256 . S
C970 O985 1.257 . S
C971 O986 1.240 . S
C971 O987 1.240 . S
C972 Gd961 2.818 . S
C972 C973 1.510 . S
C972 O988 1.249 . S
C972 O989 1.252 . S
C973 C972 1.510 . S
C973 C974 1.404 . S
C973 C975 1.352 . S
C974 C973 1.404 . S
C974 C978 1.389 . S
C974 H996 0.930 . S
C975 C973 1.352 . S
C975 C977 1.374 . S
C975 H997 0.931 . S
C976 C977 1.359 . S
C976 C978 1.364 . S
C977 C975 1.374 . S
C977 C976 1.359 . S
C977 H998 0.931 . S
C978 C974 1.389 . S
C978 C976 1.364 . S
C978 H999 0.931 . S
C979 O990 1.256 . S
C979 O991 1.257 . S
O980 Gd960 2.377 . S
O980 C962 1.240 . S
O981 Gd961 2.395 . S
O981 C962 1.240 . S
O982 Gd960 2.448 . S
O982 C963 1.249 . S
O983 Gd960 2.506 . S
O983 C963 1.252 . S
O984 Gd960 2.435 . S
O984 C970 1.256 . S
O985 Gd960 2.717 . S
O985 Gd961 2.327 . S
O985 C970 1.257 . S
O986 Gd961 2.377 . S
O986 C971 1.240 . S
O987 Gd960 2.395 . S
O987 C971 1.240 . S
O988 Gd961 2.448 . S
O988 C972 1.249 . S
O989 Gd961 2.506 . S
O989 C972 1.252 . S
O990 Gd961 2.435 . S
O990 C979 1.256 . S
O991 Gd960 2.327 . S
O991 Gd961 2.717 . S
O991 C979 1.257 . S
H992 C965 0.930 . S
H993 C966 0.931 . S
H994 C968 0.931 . S
H995 C969 0.931 . S
H996 C974 0.930 . S
H997 C975 0.931 . S
H998 C977 0.931 . S
H999 C978 0.931 . S
Gd1000 C1003 2.818 . S
Gd1000 O1020 2.377 . S
Gd1000 O1022 2.448 . S
Gd1000 O1023 2.506 . S
Gd1000 O1024 2.435 . S
Gd1000 O1025 2.717 . S
Gd1000 O1027 2.395 . S
Gd1000 O1031 2.327 . S
Gd1001 C1012 2.818 . S
Gd1001 O1021 2.395 . S
Gd1001 O1025 2.327 . S
Gd1001 O1026 2.377 . S
Gd1001 O1028 2.448 . S
Gd1001 O1029 2.506 . S
Gd1001 O1030 2.435 . S
Gd1001 O1031 2.717 . S
C1002 O1020 1.240 . S
C1002 O1021 1.240 . S
C1003 Gd1000 2.818 . S
C1003 C1004 1.510 . S
C1003 O1022 1.249 . S
C1003 O1023 1.252 . S
C1004 C1003 1.510 . S
C1004 C1005 1.404 . S
C1004 C1006 1.352 . S
C1005 C1004 1.404 . S
C1005 C1009 1.389 . S
C1005 H1032 0.930 . S
C1006 C1004 1.352 . S
C1006 C1008 1.374 . S
C1006 H1033 0.931 . S
C1007 C1008 1.359 . S
C1007 C1009 1.364 . S
C1008 C1006 1.374 . S
C1008 C1007 1.359 . S
C1008 H1034 0.931 . S
C1009 C1005 1.389 . S
C1009 C1007 1.364 . S
C1009 H1035 0.931 . S
C1010 O1024 1.256 . S
C1010 O1025 1.257 . S
C1011 O1026 1.240 . S
C1011 O1027 1.240 . S
C1012 Gd1001 2.818 . S
C1012 C1013 1.510 . S
C1012 O1028 1.249 . S
C1012 O1029 1.252 . S
C1013 C1012 1.510 . S
C1013 C1014 1.404 . S
C1013 C1015 1.352 . S
C1014 C1013 1.404 . S
C1014 C1018 1.389 . S
C1014 H1036 0.930 . S
C1015 C1013 1.352 . S
C1015 C1017 1.374 . S
C1015 H1037 0.931 . S
C1016 C1017 1.359 . S
C1016 C1018 1.364 . S
C1017 C1015 1.374 . S
C1017 C1016 1.359 . S
C1017 H1038 0.931 . S
C1018 C1014 1.389 . S
C1018 C1016 1.364 . S
C1018 H1039 0.931 . S
C1019 O1030 1.256 . S
C1019 O1031 1.257 . S
O1020 Gd1000 2.377 . S
O1020 C1002 1.240 . S
O1021 Gd1001 2.395 . S
O1021 C1002 1.240 . S
O1022 Gd1000 2.448 . S
O1022 C1003 1.249 . S
O1023 Gd1000 2.506 . S
O1023 C1003 1.252 . S
O1024 Gd1000 2.435 . S
O1024 C1010 1.256 . S
O1025 Gd1000 2.717 . S
O1025 Gd1001 2.327 . S
O1025 C1010 1.257 . S
O1026 Gd1001 2.377 . S
O1026 C1011 1.240 . S
O1027 Gd1000 2.395 . S
O1027 C1011 1.240 . S
O1028 Gd1001 2.448 . S
O1028 C1012 1.249 . S
O1029 Gd1001 2.506 . S
O1029 C1012 1.252 . S
O1030 Gd1001 2.435 . S
O1030 C1019 1.256 . S
O1031 Gd1000 2.327 . S
O1031 Gd1001 2.717 . S
O1031 C1019 1.257 . S
H1032 C1005 0.930 . S
H1033 C1006 0.931 . S
H1034 C1008 0.931 . S
H1035 C1009 0.931 . S
H1036 C1014 0.930 . S
H1037 C1015 0.931 . S
H1038 C1017 0.931 . S
H1039 C1018 0.931 . S
Gd1040 C1043 2.818 . S
Gd1040 O1060 2.377 . S
Gd1040 O1062 2.448 . S
Gd1040 O1063 2.506 . S
Gd1040 O1064 2.435 . S
Gd1040 O1065 2.717 . S
Gd1040 O1067 2.395 . S
Gd1040 O1071 2.327 . S
Gd1041 C1052 2.818 . S
Gd1041 O1061 2.395 . S
Gd1041 O1065 2.327 . S
Gd1041 O1066 2.377 . S
Gd1041 O1068 2.448 1_455 S
Gd1041 O1069 2.506 . S
Gd1041 O1070 2.430 1_455 S
Gd1041 O1071 2.717 . S
C1042 O1060 1.240 . S
C1042 O1061 1.240 . S
C1043 Gd1040 2.818 . S
C1043 C1044 1.510 . S
C1043 O1062 1.249 . S
C1043 O1063 1.252 . S
C1044 C1043 1.510 . S
C1044 C1045 1.404 . S
C1044 C1046 1.352 . S
C1045 C1044 1.404 . S
C1045 C1049 1.389 . S
C1045 H1072 0.930 . S
C1046 C1044 1.352 . S
C1046 C1048 1.374 . S
C1046 H1073 0.931 . S
C1047 C1048 1.359 . S
C1047 C1049 1.364 . S
C1048 C1046 1.374 . S
C1048 C1047 1.359 . S
C1048 H1074 0.931 . S
C1049 C1045 1.389 . S
C1049 C1047 1.364 . S
C1049 H1075 0.931 . S
C1050 O1064 1.256 . S
C1050 O1065 1.257 . S
C1051 O1066 1.240 . S
C1051 O1067 1.240 . S
C1052 Gd1041 2.818 . S
C1052 C1053 1.505 1_554 S
C1052 O1068 1.249 1_455 S
C1052 O1069 1.252 . S
C1053 C1052 1.505 1_556 S
C1053 C1054 1.406 1_455 S
C1053 C1055 1.355 . S
C1054 C1053 1.406 1_655 S
C1054 C1058 1.389 . S
C1054 H1076 0.930 1_556 S
C1055 C1053 1.355 . S
C1055 C1057 1.374 . S
C1055 H1077 0.931 . S
C1056 C1057 1.359 1_655 S
C1056 C1058 1.364 . S
C1057 C1055 1.374 . S
C1057 C1056 1.359 1_455 S
C1057 H1078 0.931 . S
C1058 C1054 1.389 . S
C1058 C1056 1.364 . S
C1058 H1079 0.931 . S
C1059 O1070 1.247 1_455 S
C1059 O1071 1.257 . S
O1060 Gd1040 2.377 . S
O1060 C1042 1.240 . S
O1061 Gd1041 2.395 . S
O1061 C1042 1.240 . S
O1062 Gd1040 2.448 . S
O1062 C1043 1.249 . S
O1063 Gd1040 2.506 . S
O1063 C1043 1.252 . S
O1064 Gd1040 2.435 . S
O1064 C1050 1.256 . S
O1065 Gd1040 2.717 . S
O1065 Gd1041 2.327 . S
O1065 C1050 1.257 . S
O1066 Gd1041 2.377 . S
O1066 C1051 1.240 . S
O1067 Gd1040 2.395 . S
O1067 C1051 1.240 . S
O1068 Gd1041 2.448 1_655 S
O1068 C1052 1.249 1_655 S
O1069 Gd1041 2.506 . S
O1069 C1052 1.252 . S
O1070 Gd1041 2.430 1_655 S
O1070 C1059 1.247 1_655 S
O1071 Gd1040 2.327 . S
O1071 Gd1041 2.717 . S
O1071 C1059 1.257 . S
H1072 C1045 0.930 . S
H1073 C1046 0.931 . S
H1074 C1048 0.931 . S
H1075 C1049 0.931 . S
H1076 C1054 0.930 1_554 S
H1077 C1055 0.931 . S
H1078 C1057 0.931 . S
H1079 C1058 0.931 . S
Gd1080 C1083 2.818 . S
Gd1080 O1100 2.377 . S
Gd1080 O1102 2.448 . S
Gd1080 O1103 2.506 . S
Gd1080 O1104 2.435 . S
Gd1080 O1105 2.717 . S
Gd1080 O1107 2.395 1_556 S
Gd1080 O1111 2.327 . S
Gd1081 C1092 2.818 1_556 S
Gd1081 O1101 2.395 . S
Gd1081 O1105 2.327 . S
Gd1081 O1106 2.377 1_556 S
Gd1081 O1108 2.448 1_556 S
Gd1081 O1109 2.506 1_556 S
Gd1081 O1110 2.435 . S
Gd1081 O1111 2.717 . S
C1082 O1100 1.240 . S
C1082 O1101 1.240 . S
C1083 Gd1080 2.818 . S
C1083 C1084 1.510 . S
C1083 O1102 1.249 . S
C1083 O1103 1.252 . S
C1084 C1083 1.510 . S
C1084 C1085 1.404 . S
C1084 C1086 1.352 . S
C1085 C1084 1.404 . S
C1085 C1089 1.389 . S
C1085 H1112 0.930 . S
C1086 C1084 1.352 . S
C1086 C1088 1.374 . S
C1086 H1113 0.931 . S
C1087 C1088 1.359 . S
C1087 C1089 1.364 . S
C1088 C1086 1.374 . S
C1088 C1087 1.359 . S
C1088 H1114 0.931 . S
C1089 C1085 1.389 . S
C1089 C1087 1.364 . S
C1089 H1115 0.931 . S
C1090 O1104 1.256 . S
C1090 O1105 1.257 . S
C1091 O1106 1.240 . S
C1091 O1107 1.240 . S
C1092 Gd1081 2.818 1_554 S
C1092 C1093 1.510 . S
C1092 O1108 1.249 . S
C1092 O1109 1.252 . S
C1093 C1092 1.510 . S
C1093 C1094 1.404 . S
C1093 C1095 1.352 . S
C1094 C1093 1.404 . S
C1094 C1098 1.389 . S
C1094 H1116 0.930 . S
C1095 C1093 1.352 . S
C1095 C1097 1.374 . S
C1095 H1117 0.931 . S
C1096 C1097 1.359 . S
C1096 C1098 1.364 . S
C1097 C1095 1.374 . S
C1097 C1096 1.359 . S
C1097 H1118 0.931 . S
C1098 C1094 1.389 . S
C1098 C1096 1.364 . S
C1098 H1119 0.931 . S
C1099 O1110 1.256 . S
C1099 O1111 1.257 . S
O1100 Gd1080 2.377 . S
O1100 C1082 1.240 . S
O1101 Gd1081 2.395 . S
O1101 C1082 1.240 . S
O1102 Gd1080 2.448 . S
O1102 C1083 1.249 . S
O1103 Gd1080 2.506 . S
O1103 C1083 1.252 . S
O1104 Gd1080 2.435 . S
O1104 C1090 1.256 . S
O1105 Gd1080 2.717 . S
O1105 Gd1081 2.327 . S
O1105 C1090 1.257 . S
O1106 Gd1081 2.377 1_554 S
O1106 C1091 1.240 . S
O1107 Gd1080 2.395 1_554 S
O1107 C1091 1.240 . S
O1108 Gd1081 2.448 1_554 S
O1108 C1092 1.249 . S
O1109 Gd1081 2.506 1_554 S
O1109 C1092 1.252 . S
O1110 Gd1081 2.435 . S
O1110 C1099 1.256 . S
O1111 Gd1080 2.327 . S
O1111 Gd1081 2.717 . S
O1111 C1099 1.257 . S
H1112 C1085 0.930 . S
H1113 C1086 0.931 . S
H1114 C1088 0.931 . S
H1115 C1089 0.931 . S
H1116 C1094 0.930 . S
H1117 C1095 0.931 . S
H1118 C1097 0.931 . S
H1119 C1098 0.931 . S
Gd1120 C1123 2.818 1_565 S
Gd1120 O1140 2.377 . S
Gd1120 O1142 2.448 1_565 S
Gd1120 O1143 2.506 . S
Gd1120 O1144 2.435 1_565 S
Gd1120 O1145 2.717 . S
Gd1120 O1147 2.395 . S
Gd1120 O1151 2.327 . S
Gd1121 C1132 2.818 . S
Gd1121 O1141 2.395 . S
Gd1121 O1145 2.327 . S
Gd1121 O1146 2.377 . S
Gd1121 O1148 2.448 . S
Gd1121 O1149 2.506 . S
Gd1121 O1150 2.435 . S
Gd1121 O1151 2.717 . S
C1122 O1140 1.240 . S
C1122 O1141 1.240 . S
C1123 Gd1120 2.818 1_545 S
C1123 C1124 1.510 . S
C1123 O1142 1.249 . S
C1123 O1143 1.252 1_545 S
C1124 C1123 1.510 . S
C1124 C1125 1.404 . S
C1124 C1126 1.352 . S
C1125 C1124 1.404 . S
C1125 C1129 1.389 . S
C1125 H1152 0.930 . S
C1126 C1124 1.352 . S
C1126 C1128 1.374 . S
C1126 H1153 0.931 1_545 S
C1127 C1128 1.359 . S
C1127 C1129 1.364 . S
C1128 C1126 1.374 . S
C1128 C1127 1.359 . S
C1128 H1154 0.919 1_545 S
C1129 C1125 1.389 . S
C1129 C1127 1.364 . S
C1129 H1155 0.931 . S
C1130 O1144 1.256 1_565 S
C1130 O1145 1.257 . S
C1131 O1146 1.240 . S
C1131 O1147 1.240 . S
C1132 Gd1121 2.818 . S
C1132 C1133 1.510 . S
C1132 O1148 1.249 . S
C1132 O1149 1.252 . S
C1133 C1132 1.510 . S
C1133 C1134 1.404 . S
C1133 C1135 1.352 . S
C1134 C1133 1.404 . S
C1134 C1138 1.389 . S
C1134 H1156 0.930 . S
C1135 C1133 1.352 . S
C1135 C1137 1.374 1_554 S
C1135 H1157 0.931 . S
C1136 C1137 1.359 . S
C1136 C1138 1.364 1_556 S
C1137 C1135 1.374 1_556 S
C1137 C1136 1.359 . S
C1137 H1158 0.931 . S
C1138 C1134 1.389 . S
C1138 C1136 1.364 1_554 S
C1138 H1159 0.931 . S
C1139 O1150 1.256 . S
C1139 O1151 1.257 . S
O1140 Gd1120 2.377 . S
O1140 C1122 1.240 . S
O1141 Gd1121 2.395 . S
O1141 C1122 1.240 . S
O1142 Gd1120 2.448 1_545 S
O1142 C1123 1.249 . S
O1143 Gd1120 2.506 . S
O1143 C1123 1.252 1_565 S
O1144 Gd1120 2.435 1_545 S
O1144 C1130 1.256 1_545 S
O1145 Gd1120 2.717 . S
O1145 Gd1121 2.327 . S
O1145 C1130 1.257 . S
O1146 Gd1121 2.377 . S
O1146 C1131 1.240 . S
O1147 Gd1120 2.395 . S
O1147 C1131 1.240 . S
O1148 Gd1121 2.448 . S
O1148 C1132 1.249 . S
O1149 Gd1121 2.506 . S
O1149 C1132 1.252 . S
O1150 Gd1121 2.435 . S
O1150 C1139 1.256 . S
O1151 Gd1120 2.327 . S
O1151 Gd1121 2.717 . S
O1151 C1139 1.257 . S
H1152 C1125 0.930 . S
H1153 C1126 0.931 1_565 S
H1154 C1128 0.919 1_565 S
H1155 C1129 0.931 . S
H1156 C1134 0.930 . S
H1157 C1135 0.931 . S
H1158 C1137 0.931 . S
H1159 C1138 0.931 . S
Gd1160 C1163 2.818 . S
Gd1160 O1180 2.377 . S
Gd1160 O1182 2.448 . S
Gd1160 O1183 2.506 . S
Gd1160 O1184 2.435 . S
Gd1160 O1185 2.717 1_554 S
Gd1160 O1187 2.395 1_554 S
Gd1160 O1191 2.327 . S
Gd1161 C1172 2.818 . S
Gd1161 O1181 2.395 1_556 S
Gd1161 O1185 2.327 . S
Gd1161 O1186 2.377 . S
Gd1161 O1188 2.448 . S
Gd1161 O1189 2.506 . S
Gd1161 O1190 2.435 . S
Gd1161 O1191 2.717 1_556 S
C1162 O1180 1.240 . S
C1162 O1181 1.240 . S
C1163 Gd1160 2.818 . S
C1163 C1164 1.510 . S
C1163 O1182 1.249 . S
C1163 O1183 1.252 . S
C1164 C1163 1.510 . S
C1164 C1165 1.404 . S
C1164 C1166 1.352 . S
C1165 C1164 1.404 . S
C1165 C1169 1.389 . S
C1165 H1192 0.930 . S
C1166 C1164 1.352 . S
C1166 C1168 1.374 . S
C1166 H1193 0.931 . S
C1167 C1168 1.359 . S
C1167 C1169 1.364 . S
C1168 C1166 1.374 . S
C1168 C1167 1.359 . S
C1168 H1194 0.931 . S
C1169 C1165 1.389 . S
C1169 C1167 1.364 . S
C1169 H1195 0.931 . S
C1170 O1184 1.256 1_556 S
C1170 O1185 1.257 . S
C1171 O1186 1.240 . S
C1171 O1187 1.240 . S
C1172 Gd1161 2.818 . S
C1172 C1173 1.510 . S
C1172 O1188 1.249 . S
C1172 O1189 1.252 . S
C1173 C1172 1.510 . S
C1173 C1174 1.404 . S
C1173 C1175 1.352 . S
C1174 C1173 1.404 . S
C1174 C1178 1.389 . S
C1174 H1196 0.930 . S
C1175 C1173 1.352 . S
C1175 C1177 1.374 . S
C1175 H1197 0.931 . S
C1176 C1177 1.359 . S
C1176 C1178 1.364 . S
C1177 C1175 1.374 . S
C1177 C1176 1.359 . S
C1177 H1198 0.931 . S
C1178 C1174 1.389 . S
C1178 C1176 1.364 . S
C1178 H1199 0.931 . S
C1179 O1190 1.256 1_554 S
C1179 O1191 1.257 . S
O1180 Gd1160 2.377 . S
O1180 C1162 1.240 . S
O1181 Gd1161 2.395 1_554 S
O1181 C1162 1.240 . S
O1182 Gd1160 2.448 . S
O1182 C1163 1.249 . S
O1183 Gd1160 2.506 . S
O1183 C1163 1.252 . S
O1184 Gd1160 2.435 . S
O1184 C1170 1.256 1_554 S
O1185 Gd1160 2.717 1_556 S
O1185 Gd1161 2.327 . S
O1185 C1170 1.257 . S
O1186 Gd1161 2.377 . S
O1186 C1171 1.240 . S
O1187 Gd1160 2.395 1_556 S
O1187 C1171 1.240 . S
O1188 Gd1161 2.448 . S
O1188 C1172 1.249 . S
O1189 Gd1161 2.506 . S
O1189 C1172 1.252 . S
O1190 Gd1161 2.435 . S
O1190 C1179 1.256 1_556 S
O1191 Gd1160 2.327 . S
O1191 Gd1161 2.717 1_554 S
O1191 C1179 1.257 . S
H1192 C1165 0.930 . S
H1193 C1166 0.931 . S
H1194 C1168 0.931 . S
H1195 C1169 0.931 . S
H1196 C1174 0.930 . S
H1197 C1175 0.931 . S
H1198 C1177 0.931 . S
H1199 C1178 0.931 . S
Gd1200 C1203 2.807 1_545 S
Gd1200 O1220 2.390 . S
Gd1200 O1222 2.427 1_545 S
Gd1200 O1223 2.506 . S
Gd1200 O1224 2.424 1_545 S
Gd1200 O1225 2.730 . S
Gd1200 O1227 2.400 . S
Gd1200 O1231 2.356 . S
Gd1201 C1212 2.818 . S
Gd1201 O1221 2.395 . S
Gd1201 O1225 2.327 . S
Gd1201 O1226 2.377 . S
Gd1201 O1228 2.448 . S
Gd1201 O1229 2.506 . S
Gd1201 O1230 2.435 . S
Gd1201 O1231 2.717 . S
C1202 O1220 1.240 . S
C1202 O1221 1.240 . S
C1203 Gd1200 2.807 1_565 S
C1203 C1204 1.510 . S
C1203 O1222 1.249 . S
C1203 O1223 1.252 1_565 S
C1204 C1203 1.510 . S
C1204 C1205 1.404 . S
C1204 C1206 1.352 . S
C1205 C1204 1.404 . S
C1205 C1209 1.389 . S
C1205 H1232 0.930 . S
C1206 C1204 1.352 . S
C1206 C1208 1.374 . S
C1206 H1233 0.931 1_565 S
C1207 C1208 1.359 . S
C1207 C1209 1.364 . S
C1208 C1206 1.374 . S
C1208 C1207 1.359 . S
C1208 H1234 0.931 . S
C1209 C1205 1.389 . S
C1209 C1207 1.364 . S
C1209 H1235 0.931 . S
C1210 O1224 1.264 . S
C1210 O1225 1.249 1_565 S
C1211 O1226 1.240 . S
C1211 O1227 1.240 . S
C1212 Gd1201 2.818 . S
C1212 C1213 1.510 . S
C1212 O1228 1.249 . S
C1212 O1229 1.252 . S
C1213 C1212 1.510 . S
C1213 C1214 1.404 . S
C1213 C1215 1.352 . S
C1214 C1213 1.404 . S
C1214 C1218 1.389 . S
C1214 H1236 0.930 . S
C1215 C1213 1.352 . S
C1215 C1217 1.374 . S
C1215 H1237 0.931 . S
C1216 C1217 1.359 . S
C1216 C1218 1.364 . S
C1217 C1215 1.374 . S
C1217 C1216 1.359 . S
C1217 H1238 0.931 . S
C1218 C1214 1.389 . S
C1218 C1216 1.364 . S
C1218 H1239 0.931 . S
C1219 O1230 1.256 . S
C1219 O1231 1.257 . S
O1220 Gd1200 2.390 . S
O1220 C1202 1.240 . S
O1221 Gd1201 2.395 . S
O1221 C1202 1.240 . S
O1222 Gd1200 2.427 1_565 S
O1222 C1203 1.249 . S
O1223 Gd1200 2.506 . S
O1223 C1203 1.252 1_545 S
O1224 Gd1200 2.424 1_565 S
O1224 C1210 1.264 . S
O1225 Gd1200 2.730 . S
O1225 Gd1201 2.327 . S
O1225 C1210 1.249 1_545 S
O1226 Gd1201 2.377 . S
O1226 C1211 1.240 . S
O1227 Gd1200 2.400 . S
O1227 C1211 1.240 . S
O1228 Gd1201 2.448 . S
O1228 C1212 1.249 . S
O1229 Gd1201 2.506 . S
O1229 C1212 1.252 . S
O1230 Gd1201 2.435 . S
O1230 C1219 1.256 . S
O1231 Gd1200 2.356 . S
O1231 Gd1201 2.717 . S
O1231 C1219 1.257 . S
H1232 C1205 0.930 . S
H1233 C1206 0.931 1_545 S
H1234 C1208 0.931 . S
H1235 C1209 0.931 . S
H1236 C1214 0.930 . S
H1237 C1215 0.931 . S
H1238 C1217 0.931 . S
H1239 C1218 0.931 . S
Gd1240 C1243 2.818 . S
Gd1240 O1260 2.377 . S
Gd1240 O1262 2.448 . S
Gd1240 O1263 2.506 . S
Gd1240 O1264 2.435 . S
Gd1240 O1265 2.717 . S
Gd1240 O1267 2.395 . S
Gd1240 O1271 2.327 . S
Gd1241 C1252 2.818 . S
Gd1241 O1261 2.395 . S
Gd1241 O1265 2.327 . S
Gd1241 O1266 2.377 . S
Gd1241 O1268 2.448 . S
Gd1241 O1269 2.506 . S
Gd1241 O1270 2.435 . S
Gd1241 O1271 2.717 . S
C1242 O1260 1.240 . S
C1242 O1261 1.240 . S
C1243 Gd1240 2.818 . S
C1243 C1244 1.510 . S
C1243 O1262 1.249 . S
C1243 O1263 1.252 . S
C1244 C1243 1.510 . S
C1244 C1245 1.404 . S
C1244 C1246 1.352 . S
C1245 C1244 1.404 . S
C1245 C1249 1.389 . S
C1245 H1272 0.930 . S
C1246 C1244 1.352 . S
C1246 C1248 1.374 . S
C1246 H1273 0.931 . S
C1247 C1248 1.359 . S
C1247 C1249 1.364 . S
C1248 C1246 1.374 . S
C1248 C1247 1.359 . S
C1248 H1274 0.931 . S
C1249 C1245 1.389 . S
C1249 C1247 1.364 . S
C1249 H1275 0.931 . S
C1250 O1264 1.256 . S
C1250 O1265 1.257 . S
C1251 O1266 1.240 . S
C1251 O1267 1.240 . S
C1252 Gd1241 2.818 . S
C1252 C1253 1.510 . S
C1252 O1268 1.249 . S
C1252 O1269 1.252 . S
C1253 C1252 1.510 . S
C1253 C1254 1.404 . S
C1253 C1255 1.352 . S
C1254 C1253 1.404 . S
C1254 C1258 1.389 . S
C1254 H1276 0.930 . S
C1255 C1253 1.352 . S
C1255 C1257 1.374 . S
C1255 H1277 0.931 . S
C1256 C1257 1.359 . S
C1256 C1258 1.364 . S
C1257 C1255 1.374 . S
C1257 C1256 1.359 . S
C1257 H1278 0.931 . S
C1258 C1254 1.389 . S
C1258 C1256 1.364 . S
C1258 H1279 0.931 . S
C1259 O1270 1.256 . S
C1259 O1271 1.257 . S
O1260 Gd1240 2.377 . S
O1260 C1242 1.240 . S
O1261 Gd1241 2.395 . S
O1261 C1242 1.240 . S
O1262 Gd1240 2.448 . S
O1262 C1243 1.249 . S
O1263 Gd1240 2.506 . S
O1263 C1243 1.252 . S
O1264 Gd1240 2.435 . S
O1264 C1250 1.256 . S
O1265 Gd1240 2.717 . S
O1265 Gd1241 2.327 . S
O1265 C1250 1.257 . S
O1266 Gd1241 2.377 . S
O1266 C1251 1.240 . S
O1267 Gd1240 2.395 . S
O1267 C1251 1.240 . S
O1268 Gd1241 2.448 . S
O1268 C1252 1.249 . S
O1269 Gd1241 2.506 . S
O1269 C1252 1.252 . S
O1270 Gd1241 2.435 . S
O1270 C1259 1.256 . S
O1271 Gd1240 2.327 . S
O1271 Gd1241 2.717 . S
O1271 C1259 1.257 . S
H1272 C1245 0.930 . S
H1273 C1246 0.931 . S
H1274 C1248 0.931 . S
H1275 C1249 0.931 . S
H1276 C1254 0.930 . S
H1277 C1255 0.931 . S
H1278 C1257 0.931 . S
H1279 C1258 0.931 . S
C1280 C1281 1.369 . S
C1280 C1282 1.419 . S
C1280 H1284 0.930 . S
C1281 C1280 1.369 . S
C1281 C1290 1.429 . S
C1282 C1280 1.419 . S
C1282 C1283 1.363 . S
C1282 H1285 0.929 . S
C1283 C1282 1.363 . S
C1283 C1289 1.428 . S
H1284 C1280 0.930 . S
H1285 C1282 0.929 . S
S1286 N1287 1.613 . S
S1286 N1288 1.610 . S
N1287 S1286 1.613 . S
N1287 C1290 1.350 . S
N1288 S1286 1.610 . S
N1288 C1289 1.351 . S
C1289 C1283 1.428 . S
C1289 N1288 1.351 . S
C1289 C1290 1.434 . S
C1290 C1281 1.429 . S
C1290 N1287 1.350 . S
C1290 C1289 1.434 . S
C1291 C1292 1.369 . S
C1291 C1293 1.419 . S
C1291 H1295 0.930 . S
C1292 C1291 1.369 . S
C1292 C1301 1.429 . S
C1293 C1291 1.419 . S
C1293 C1294 1.363 . S
C1293 H1296 0.929 . S
C1294 C1293 1.363 . S
C1294 C1300 1.428 . S
H1295 C1291 0.930 . S
H1296 C1293 0.929 . S
S1297 N1298 1.613 . S
S1297 N1299 1.610 . S
N1298 S1297 1.613 . S
N1298 C1301 1.350 . S
N1299 S1297 1.610 . S
N1299 C1300 1.351 . S
C1300 C1294 1.428 . S
C1300 N1299 1.351 . S
C1300 C1301 1.434 . S
C1301 C1292 1.429 . S
C1301 N1298 1.350 . S
C1301 C1300 1.434 . S
C1302 C1303 1.369 . S
C1302 C1304 1.419 . S
C1302 H1306 0.930 . S
C1303 C1302 1.369 . S
C1303 C1312 1.429 . S
C1304 C1302 1.419 . S
C1304 C1305 1.363 . S
C1304 H1307 0.929 . S
C1305 C1304 1.363 . S
C1305 C1311 1.428 . S
H1306 C1302 0.930 . S
H1307 C1304 0.929 . S
S1308 N1309 1.613 . S
S1308 N1310 1.610 . S
N1309 S1308 1.613 . S
N1309 C1312 1.350 . S
N1310 S1308 1.610 . S
N1310 C1311 1.351 . S
C1311 C1305 1.428 . S
C1311 N1310 1.351 . S
C1311 C1312 1.434 . S
C1312 C1303 1.429 . S
C1312 N1309 1.350 . S
C1312 C1311 1.434 . S
C1313 C1314 1.369 . S
C1313 C1315 1.419 . S
C1313 H1317 0.930 . S
C1314 C1313 1.369 . S
C1314 C1323 1.429 . S
C1315 C1313 1.419 . S
C1315 C1316 1.363 . S
C1315 H1318 0.929 . S
C1316 C1315 1.363 . S
C1316 C1322 1.428 . S
H1317 C1313 0.930 . S
H1318 C1315 0.929 . S
S1319 N1320 1.613 . S
S1319 N1321 1.610 . S
N1320 S1319 1.613 . S
N1320 C1323 1.350 . S
N1321 S1319 1.610 . S
N1321 C1322 1.351 . S
C1322 C1316 1.428 . S
C1322 N1321 1.351 . S
C1322 C1323 1.434 . S
C1323 C1314 1.429 . S
C1323 N1320 1.350 . S
C1323 C1322 1.434 . S
C1324 C1325 1.369 . S
C1324 C1326 1.419 . S
C1324 H1328 0.930 . S
C1325 C1324 1.369 . S
C1325 C1334 1.429 . S
C1326 C1324 1.419 . S
C1326 C1327 1.363 . S
C1326 H1329 0.929 . S
C1327 C1326 1.363 . S
C1327 C1333 1.428 . S
H1328 C1324 0.930 . S
H1329 C1326 0.929 . S
S1330 N1331 1.613 . S
S1330 N1332 1.610 . S
N1331 S1330 1.613 . S
N1331 C1334 1.350 . S
N1332 S1330 1.610 . S
N1332 C1333 1.351 . S
C1333 C1327 1.428 . S
C1333 N1332 1.351 . S
C1333 C1334 1.434 . S
C1334 C1325 1.429 . S
C1334 N1331 1.350 . S
C1334 C1333 1.434 . S
C1335 C1336 1.369 . S
C1335 C1337 1.419 . S
C1335 H1339 0.930 . S
C1336 C1335 1.369 . S
C1336 C1345 1.429 . S
C1337 C1335 1.419 . S
C1337 C1338 1.363 . S
C1337 H1340 0.929 . S
C1338 C1337 1.363 . S
C1338 C1344 1.428 . S
H1339 C1335 0.930 . S
H1340 C1337 0.929 . S
S1341 N1342 1.613 . S
S1341 N1343 1.610 . S
N1342 S1341 1.613 . S
N1342 C1345 1.350 . S
N1343 S1341 1.610 . S
N1343 C1344 1.351 . S
C1344 C1338 1.428 . S
C1344 N1343 1.351 . S
C1344 C1345 1.434 . S
C1345 C1336 1.429 . S
C1345 N1342 1.350 . S
C1345 C1344 1.434 . S
C1346 C1347 1.369 . S
C1346 C1348 1.419 . S
C1346 H1350 0.930 . S
C1347 C1346 1.369 . S
C1347 C1356 1.429 . S
C1348 C1346 1.419 . S
C1348 C1349 1.363 . S
C1348 H1351 0.929 . S
C1349 C1348 1.363 . S
C1349 C1355 1.428 . S
H1350 C1346 0.930 . S
H1351 C1348 0.929 . S
S1352 N1353 1.613 . S
S1352 N1354 1.610 . S
N1353 S1352 1.613 . S
N1353 C1356 1.350 . S
N1354 S1352 1.610 . S
N1354 C1355 1.351 . S
C1355 C1349 1.428 . S
C1355 N1354 1.351 . S
C1355 C1356 1.434 . S
C1356 C1347 1.429 . S
C1356 N1353 1.350 . S
C1356 C1355 1.434 . S
C1357 C1358 1.369 . S
C1357 C1359 1.419 . S
C1357 H1361 0.930 . S
C1358 C1357 1.369 . S
C1358 C1367 1.429 . S
C1359 C1357 1.419 . S
C1359 C1360 1.363 . S
C1359 H1362 0.929 . S
C1360 C1359 1.363 . S
C1360 C1366 1.428 . S
H1361 C1357 0.930 . S
H1362 C1359 0.929 . S
S1363 N1364 1.613 . S
S1363 N1365 1.610 . S
N1364 S1363 1.613 . S
N1364 C1367 1.350 . S
N1365 S1363 1.610 . S
N1365 C1366 1.351 . S
C1366 C1360 1.428 . S
C1366 N1365 1.351 . S
C1366 C1367 1.434 . S
C1367 C1358 1.429 . S
C1367 N1364 1.350 . S
C1367 C1366 1.434 . S
C1368 C1369 1.369 . S
C1368 C1370 1.419 . S
C1368 H1372 0.930 . S
C1369 C1368 1.369 . S
C1369 C1378 1.429 . S
C1370 C1368 1.419 . S
C1370 C1371 1.363 . S
C1370 H1373 0.929 . S
C1371 C1370 1.363 . S
C1371 C1377 1.428 . S
H1372 C1368 0.930 . S
H1373 C1370 0.929 . S
S1374 N1375 1.613 . S
S1374 N1376 1.610 1_545 S
N1375 S1374 1.613 . S
N1375 C1378 1.350 1_545 S
N1376 S1374 1.610 1_565 S
N1376 C1377 1.351 . S
C1377 C1371 1.428 . S
C1377 N1376 1.351 . S
C1377 C1378 1.434 . S
C1378 C1369 1.429 . S
C1378 N1375 1.350 1_565 S
C1378 C1377 1.434 . S
C1379 C1380 1.369 . S
C1379 C1381 1.419 1_556 S
C1379 H1383 0.930 . S
C1380 C1379 1.369 . S
C1380 C1389 1.429 . S
C1381 C1379 1.419 1_554 S
C1381 C1382 1.363 . S
C1381 H1384 0.929 . S
C1382 C1381 1.363 . S
C1382 C1388 1.428 . S
H1383 C1379 0.930 . S
H1384 C1381 0.929 . S
S1385 N1386 1.613 . S
S1385 N1387 1.610 1_556 S
N1386 S1385 1.613 . S
N1386 C1389 1.350 . S
N1387 S1385 1.610 1_554 S
N1387 C1388 1.351 . S
C1388 C1382 1.428 . S
C1388 N1387 1.351 . S
C1388 C1389 1.434 1_554 S
C1389 C1380 1.429 . S
C1389 N1386 1.350 . S
C1389 C1388 1.434 1_556 S
C1390 C1391 1.369 . S
C1390 C1392 1.419 . S
C1390 H1394 0.930 . S
C1391 C1390 1.369 . S
C1391 C1400 1.429 . S
C1392 C1390 1.419 . S
C1392 C1393 1.363 . S
C1392 H1395 0.929 . S
C1393 C1392 1.363 . S
C1393 C1399 1.428 . S
H1394 C1390 0.930 . S
H1395 C1392 0.929 . S
S1396 N1397 1.613 . S
S1396 N1398 1.610 . S
N1397 S1396 1.613 . S
N1397 C1400 1.350 . S
N1398 S1396 1.610 . S
N1398 C1399 1.351 . S
C1399 C1393 1.428 . S
C1399 N1398 1.351 . S
C1399 C1400 1.434 . S
C1400 C1391 1.429 . S
C1400 N1397 1.350 . S
C1400 C1399 1.434 . S
C1401 C1402 1.369 . S
C1401 C1403 1.419 . S
C1401 H1405 0.930 . S
C1402 C1401 1.369 . S
C1402 C1411 1.429 . S
C1403 C1401 1.419 . S
C1403 C1404 1.363 . S
C1403 H1406 0.929 . S
C1404 C1403 1.363 . S
C1404 C1410 1.428 . S
H1405 C1401 0.930 . S
H1406 C1403 0.929 . S
S1407 N1408 1.613 . S
S1407 N1409 1.610 . S
N1408 S1407 1.613 . S
N1408 C1411 1.350 . S
N1409 S1407 1.610 . S
N1409 C1410 1.351 . S
C1410 C1404 1.428 . S
C1410 N1409 1.351 . S
C1410 C1411 1.434 . S
C1411 C1402 1.429 . S
C1411 N1408 1.350 . S
C1411 C1410 1.434 . S
C1412 C1413 1.369 . S
C1412 C1414 1.419 . S
C1412 H1416 0.930 . S
C1413 C1412 1.369 . S
C1413 C1422 1.429 . S
C1414 C1412 1.419 . S
C1414 C1415 1.363 . S
C1414 H1417 0.929 . S
C1415 C1414 1.363 . S
C1415 C1421 1.428 . S
H1416 C1412 0.930 . S
H1417 C1414 0.929 . S
S1418 N1419 1.613 1_565 S
S1418 N1420 1.610 1_565 S
N1419 S1418 1.613 1_545 S
N1419 C1422 1.350 . S
N1420 S1418 1.610 1_545 S
N1420 C1421 1.351 . S
C1421 C1415 1.428 . S
C1421 N1420 1.351 . S
C1421 C1422 1.434 . S
C1422 C1413 1.429 . S
C1422 N1419 1.350 . S
C1422 C1421 1.434 . S
C1423 C1424 1.369 . S
C1423 C1425 1.419 . S
C1423 H1427 0.930 . S
C1424 C1423 1.369 . S
C1424 C1433 1.429 . S
C1425 C1423 1.419 . S
C1425 C1426 1.363 . S
C1425 H1428 0.929 . S
C1426 C1425 1.363 . S
C1426 C1432 1.428 . S
H1427 C1423 0.930 . S
H1428 C1425 0.929 . S
S1429 N1430 1.613 . S
S1429 N1431 1.610 . S
N1430 S1429 1.613 . S
N1430 C1433 1.350 . S
N1431 S1429 1.610 . S
N1431 C1432 1.351 . S
C1432 C1426 1.428 . S
C1432 N1431 1.351 . S
C1432 C1433 1.434 . S
C1433 C1424 1.429 . S
C1433 N1430 1.350 . S
C1433 C1432 1.434 . S
C1434 C1435 1.369 . S
C1434 C1436 1.419 . S
C1434 H1438 0.930 . S
C1435 C1434 1.369 . S
C1435 C1444 1.429 . S
C1436 C1434 1.419 . S
C1436 C1437 1.363 1_554 S
C1436 H1439 0.938 . S
C1437 C1436 1.363 1_556 S
C1437 C1443 1.428 1_556 S
H1438 C1434 0.930 . S
H1439 C1436 0.938 . S
S1440 N1441 1.613 . S
S1440 N1442 1.610 1_554 S
N1441 S1440 1.613 . S
N1441 C1444 1.350 . S
N1442 S1440 1.610 1_556 S
N1442 C1443 1.351 1_556 S
C1443 C1437 1.428 1_554 S
C1443 N1442 1.351 1_554 S
C1443 C1444 1.434 . S
C1444 C1435 1.429 . S
C1444 N1441 1.350 . S
C1444 C1443 1.434 . S
C1445 C1446 1.369 . S
C1445 C1447 1.419 . S
C1445 H1449 0.930 . S
C1446 C1445 1.369 . S
C1446 C1455 1.429 . S
C1447 C1445 1.419 . S
C1447 C1448 1.363 . S
C1447 H1450 0.929 . S
C1448 C1447 1.363 . S
C1448 C1454 1.428 . S
H1449 C1445 0.930 . S
H1450 C1447 0.929 . S
S1451 N1452 1.613 . S
S1451 N1453 1.610 . S
N1452 S1451 1.613 . S
N1452 C1455 1.350 . S
N1453 S1451 1.610 . S
N1453 C1454 1.351 . S
C1454 C1448 1.428 . S
C1454 N1453 1.351 . S
C1454 C1455 1.434 . S
C1455 C1446 1.429 . S
C1455 N1452 1.350 . S
C1455 C1454 1.434 . S
C1456 C1457 1.369 . S
C1456 C1458 1.419 . S
C1456 H1460 0.930 . S
C1457 C1456 1.369 . S
C1457 C1466 1.429 . S
C1458 C1456 1.419 . S
C1458 C1459 1.363 . S
C1458 H1461 0.929 . S
C1459 C1458 1.363 . S
C1459 C1465 1.428 . S
H1460 C1456 0.930 . S
H1461 C1458 0.929 . S
S1462 N1463 1.613 . S
S1462 N1464 1.610 . S
N1463 S1462 1.613 . S
N1463 C1466 1.350 . S
N1464 S1462 1.610 . S
N1464 C1465 1.351 . S
C1465 C1459 1.428 . S
C1465 N1464 1.351 . S
C1465 C1466 1.434 . S
C1466 C1457 1.429 . S
C1466 N1463 1.350 . S
C1466 C1465 1.434 . S
C1467 C1468 1.369 . S
C1467 C1469 1.419 . S
C1467 H1471 0.930 . S
C1468 C1467 1.369 . S
C1468 C1477 1.429 . S
C1469 C1467 1.419 . S
C1469 C1470 1.363 . S
C1469 H1472 0.929 . S
C1470 C1469 1.363 . S
C1470 C1476 1.428 . S
H1471 C1467 0.930 . S
H1472 C1469 0.929 . S
S1473 N1474 1.613 . S
S1473 N1475 1.610 . S
N1474 S1473 1.613 . S
N1474 C1477 1.350 . S
N1475 S1473 1.610 . S
N1475 C1476 1.351 . S
C1476 C1470 1.428 . S
C1476 N1475 1.351 . S
C1476 C1477 1.434 . S
C1477 C1468 1.429 . S
C1477 N1474 1.350 . S
C1477 C1476 1.434 . S
C1478 C1479 1.369 . S
C1478 C1480 1.419 . S
C1478 H1482 0.930 . S
C1479 C1478 1.369 . S
C1479 C1488 1.429 . S
C1480 C1478 1.419 . S
C1480 C1481 1.363 . S
C1480 H1483 0.929 . S
C1481 C1480 1.363 . S
C1481 C1487 1.428 . S
H1482 C1478 0.930 . S
H1483 C1480 0.929 . S
S1484 N1485 1.613 . S
S1484 N1486 1.610 . S
N1485 S1484 1.613 . S
N1485 C1488 1.350 . S
N1486 S1484 1.610 . S
N1486 C1487 1.351 . S
C1487 C1481 1.428 . S
C1487 N1486 1.351 . S
C1487 C1488 1.434 . S
C1488 C1479 1.429 . S
C1488 N1485 1.350 . S
C1488 C1487 1.434 . S
C1489 C1490 1.369 . S
C1489 C1491 1.419 . S
C1489 H1493 0.930 . S
C1490 C1489 1.369 . S
C1490 C1499 1.429 . S
C1491 C1489 1.419 . S
C1491 C1492 1.363 . S
C1491 H1494 0.929 . S
C1492 C1491 1.363 . S
C1492 C1498 1.428 . S
H1493 C1489 0.930 . S
H1494 C1491 0.929 . S
S1495 N1496 1.613 . S
S1495 N1497 1.610 . S
N1496 S1495 1.613 . S
N1496 C1499 1.350 . S
N1497 S1495 1.610 . S
N1497 C1498 1.351 . S
C1498 C1492 1.428 . S
C1498 N1497 1.351 . S
C1498 C1499 1.434 . S
C1499 C1490 1.429 . S
C1499 N1496 1.350 . S
C1499 C1498 1.434 . S
C1500 C1501 1.369 . S
C1500 C1502 1.419 . S
C1500 H1504 0.930 . S
C1501 C1500 1.369 . S
C1501 C1510 1.429 . S
C1502 C1500 1.419 . S
C1502 C1503 1.363 . S
C1502 H1505 0.929 . S
C1503 C1502 1.363 . S
C1503 C1509 1.428 . S
H1504 C1500 0.930 . S
H1505 C1502 0.929 . S
S1506 N1507 1.613 . S
S1506 N1508 1.610 . S
N1507 S1506 1.613 . S
N1507 C1510 1.350 . S
N1508 S1506 1.610 . S
N1508 C1509 1.351 . S
C1509 C1503 1.428 . S
C1509 N1508 1.351 . S
C1509 C1510 1.434 . S
C1510 C1501 1.429 . S
C1510 N1507 1.350 . S
C1510 C1509 1.434 . S
C1511 C1512 1.369 . S
C1511 C1513 1.419 . S
C1511 H1515 0.930 . S
C1512 C1511 1.369 . S
C1512 C1521 1.429 . S
C1513 C1511 1.419 . S
C1513 C1514 1.363 . S
C1513 H1516 0.929 . S
C1514 C1513 1.363 . S
C1514 C1520 1.428 . S
H1515 C1511 0.930 . S
H1516 C1513 0.929 . S
S1517 N1518 1.613 . S
S1517 N1519 1.610 . S
N1518 S1517 1.613 . S
N1518 C1521 1.350 . S
N1519 S1517 1.610 . S
N1519 C1520 1.351 . S
C1520 C1514 1.428 . S
C1520 N1519 1.351 . S
C1520 C1521 1.434 . S
C1521 C1512 1.429 . S
C1521 N1518 1.350 . S
C1521 C1520 1.434 . S
C1522 C1523 1.369 . S
C1522 C1524 1.419 . S
C1522 H1526 0.930 . S
C1523 C1522 1.369 . S
C1523 C1532 1.429 . S
C1524 C1522 1.419 . S
C1524 C1525 1.363 . S
C1524 H1527 0.929 . S
C1525 C1524 1.363 . S
C1525 C1531 1.428 . S
H1526 C1522 0.930 . S
H1527 C1524 0.929 . S
S1528 N1529 1.613 . S
S1528 N1530 1.610 . S
N1529 S1528 1.613 . S
N1529 C1532 1.350 . S
N1530 S1528 1.610 . S
N1530 C1531 1.351 . S
C1531 C1525 1.428 . S
C1531 N1530 1.351 . S
C1531 C1532 1.434 . S
C1532 C1523 1.429 . S
C1532 N1529 1.350 . S
C1532 C1531 1.434 . S
C1533 C1534 1.369 . S
C1533 C1535 1.419 . S
C1533 H1537 0.930 . S
C1534 C1533 1.369 . S
C1534 C1543 1.429 . S
C1535 C1533 1.419 . S
C1535 C1536 1.363 . S
C1535 H1538 0.929 . S
C1536 C1535 1.363 . S
C1536 C1542 1.428 . S
H1537 C1533 0.930 . S
H1538 C1535 0.929 . S
S1539 N1540 1.613 . S
S1539 N1541 1.610 . S
N1540 S1539 1.613 . S
N1540 C1543 1.350 . S
N1541 S1539 1.610 . S
N1541 C1542 1.351 . S
C1542 C1536 1.428 . S
C1542 N1541 1.351 . S
C1542 C1543 1.434 . S
C1543 C1534 1.429 . S
C1543 N1540 1.350 . S
C1543 C1542 1.434 . S
C1544 C1545 1.369 . S
C1544 C1546 1.419 . S
C1544 H1548 0.930 . S
C1545 C1544 1.369 . S
C1545 C1554 1.429 . S
C1546 C1544 1.419 . S
C1546 C1547 1.363 . S
C1546 H1549 0.929 . S
C1547 C1546 1.363 . S
C1547 C1553 1.428 . S
H1548 C1544 0.930 . S
H1549 C1546 0.929 . S
S1550 N1551 1.613 . S
S1550 N1552 1.610 . S
N1551 S1550 1.613 . S
N1551 C1554 1.350 . S
N1552 S1550 1.610 . S
N1552 C1553 1.351 . S
C1553 C1547 1.428 . S
C1553 N1552 1.351 . S
C1553 C1554 1.434 . S
C1554 C1545 1.429 . S
C1554 N1551 1.350 . S
C1554 C1553 1.434 . S
C1555 C1556 1.369 . S
C1555 C1557 1.419 . S
C1555 H1559 0.930 . S
C1556 C1555 1.369 . S
C1556 C1565 1.429 . S
C1557 C1555 1.419 . S
C1557 C1558 1.363 . S
C1557 H1560 0.929 . S
C1558 C1557 1.363 . S
C1558 C1564 1.428 . S
H1559 C1555 0.930 . S
H1560 C1557 0.929 . S
S1561 N1562 1.613 . S
S1561 N1563 1.610 . S
N1562 S1561 1.613 . S
N1562 C1565 1.350 . S
N1563 S1561 1.610 . S
N1563 C1564 1.351 . S
C1564 C1558 1.428 . S
C1564 N1563 1.351 . S
C1564 C1565 1.434 . S
C1565 C1556 1.429 . S
C1565 N1562 1.350 . S
C1565 C1564 1.434 . S
C1566 C1567 1.369 . S
C1566 C1568 1.419 . S
C1566 H1570 0.930 . S
C1567 C1566 1.369 . S
C1567 C1576 1.429 . S
C1568 C1566 1.419 . S
C1568 C1569 1.363 . S
C1568 H1571 0.929 . S
C1569 C1568 1.363 . S
C1569 C1575 1.428 . S
H1570 C1566 0.930 . S
H1571 C1568 0.929 . S
S1572 N1573 1.613 . S
S1572 N1574 1.610 . S
N1573 S1572 1.613 . S
N1573 C1576 1.350 . S
N1574 S1572 1.610 . S
N1574 C1575 1.351 . S
C1575 C1569 1.428 . S
C1575 N1574 1.351 . S
C1575 C1576 1.434 . S
C1576 C1567 1.429 . S
C1576 N1573 1.350 . S
C1576 C1575 1.434 . S
C1577 C1578 1.369 . S
C1577 C1579 1.419 . S
C1577 H1581 0.930 . S
C1578 C1577 1.369 . S
C1578 C1587 1.429 . S
C1579 C1577 1.419 . S
C1579 C1580 1.363 . S
C1579 H1582 0.929 . S
C1580 C1579 1.363 . S
C1580 C1586 1.428 . S
H1581 C1577 0.930 . S
H1582 C1579 0.929 . S
S1583 N1584 1.613 . S
S1583 N1585 1.610 . S
N1584 S1583 1.613 . S
N1584 C1587 1.350 . S
N1585 S1583 1.610 . S
N1585 C1586 1.351 . S
C1586 C1580 1.428 . S
C1586 N1585 1.351 . S
C1586 C1587 1.434 . S
C1587 C1578 1.429 . S
C1587 N1584 1.350 . S
C1587 C1586 1.434 . S
C1588 C1589 1.369 . S
C1588 C1590 1.419 . S
C1588 H1592 0.930 . S
C1589 C1588 1.369 . S
C1589 C1598 1.429 . S
C1590 C1588 1.419 . S
C1590 C1591 1.363 . S
C1590 H1593 0.929 . S
C1591 C1590 1.363 . S
C1591 C1597 1.428 . S
H1592 C1588 0.930 . S
H1593 C1590 0.929 . S
S1594 N1595 1.613 . S
S1594 N1596 1.610 . S
N1595 S1594 1.613 . S
N1595 C1598 1.350 . S
N1596 S1594 1.610 . S
N1596 C1597 1.351 . S
C1597 C1591 1.428 . S
C1597 N1596 1.351 . S
C1597 C1598 1.434 . S
C1598 C1589 1.429 . S
C1598 N1595 1.350 . S
C1598 C1597 1.434 . S
C1599 C1600 1.369 . S
C1599 C1601 1.419 . S
C1599 H1603 0.930 . S
C1600 C1599 1.369 . S
C1600 C1609 1.429 . S
C1601 C1599 1.419 . S
C1601 C1602 1.363 . S
C1601 H1604 0.929 . S
C1602 C1601 1.363 . S
C1602 C1608 1.428 . S
H1603 C1599 0.930 . S
H1604 C1601 0.929 . S
S1605 N1606 1.613 . S
S1605 N1607 1.610 . S
N1606 S1605 1.613 . S
N1606 C1609 1.350 . S
N1607 S1605 1.610 . S
N1607 C1608 1.351 . S
C1608 C1602 1.428 . S
C1608 N1607 1.351 . S
C1608 C1609 1.434 . S
C1609 C1600 1.429 . S
C1609 N1606 1.350 . S
C1609 C1608 1.434 . S
C1610 C1611 1.369 . S
C1610 C1612 1.419 . S
C1610 H1614 0.930 . S
C1611 C1610 1.369 . S
C1611 C1620 1.429 . S
C1612 C1610 1.419 . S
C1612 C1613 1.363 . S
C1612 H1615 0.929 . S
C1613 C1612 1.363 . S
C1613 C1619 1.428 . S
H1614 C1610 0.930 . S
H1615 C1612 0.929 . S
S1616 N1617 1.613 . S
S1616 N1618 1.610 . S
N1617 S1616 1.613 . S
N1617 C1620 1.350 . S
N1618 S1616 1.610 . S
N1618 C1619 1.351 . S
C1619 C1613 1.428 . S
C1619 N1618 1.351 . S
C1619 C1620 1.434 . S
C1620 C1611 1.429 . S
C1620 N1617 1.350 . S
C1620 C1619 1.434 . S
C1621 C1622 1.369 . S
C1621 C1623 1.419 1_556 S
C1621 H1625 0.930 . S
C1622 C1621 1.369 . S
C1622 C1631 1.424 1_556 S
C1623 C1621 1.419 1_554 S
C1623 C1624 1.363 . S
C1623 H1626 0.929 . S
C1624 C1623 1.363 . S
C1624 C1630 1.428 . S
H1625 C1621 0.930 . S
H1626 C1623 0.929 . S
S1627 N1628 1.613 1_554 S
S1627 N1629 1.610 . S
N1628 S1627 1.613 1_556 S
N1628 C1631 1.345 1_556 S
N1629 S1627 1.610 . S
N1629 C1630 1.351 . S
C1630 C1624 1.428 . S
C1630 N1629 1.351 . S
C1630 C1631 1.445 . S
C1631 C1622 1.424 1_554 S
C1631 N1628 1.345 1_554 S
C1631 C1630 1.445 . S
C1632 C1633 1.369 1_455 S
C1632 C1634 1.419 . S
C1632 H1636 0.930 . S
C1633 C1632 1.369 1_655 S
C1633 C1642 1.429 . S
C1634 C1632 1.419 . S
C1634 C1635 1.363 . S
C1634 H1637 0.929 . S
C1635 C1634 1.363 . S
C1635 C1641 1.428 1_455 S
H1636 C1632 0.930 . S
H1637 C1634 0.929 . S
S1638 N1639 1.613 . S
S1638 N1640 1.610 . S
N1639 S1638 1.613 . S
N1639 C1642 1.350 . S
N1640 S1638 1.610 . S
N1640 C1641 1.351 . S
C1641 C1635 1.428 1_655 S
C1641 N1640 1.351 . S
C1641 C1642 1.434 . S
C1642 C1633 1.429 . S
C1642 N1639 1.350 . S
C1642 C1641 1.434 . S
C1643 C1644 1.369 . S
C1643 C1645 1.419 . S
C1643 H1647 0.930 . S
C1644 C1643 1.369 . S
C1644 C1653 1.429 . S
C1645 C1643 1.419 . S
C1645 C1646 1.363 . S
C1645 H1648 0.929 . S
C1646 C1645 1.363 . S
C1646 C1652 1.428 . S
H1647 C1643 0.930 . S
H1648 C1645 0.929 . S
S1649 N1650 1.613 . S
S1649 N1651 1.610 . S
N1650 S1649 1.613 . S
N1650 C1653 1.350 . S
N1651 S1649 1.610 . S
N1651 C1652 1.351 . S
C1652 C1646 1.428 . S
C1652 N1651 1.351 . S
C1652 C1653 1.434 . S
C1653 C1644 1.429 . S
C1653 N1650 1.350 . S
C1653 C1652 1.434 . S
C1654 C1655 1.369 . S
C1654 C1656 1.419 . S
C1654 H1658 0.930 . S
C1655 C1654 1.369 . S
C1655 C1664 1.429 . S
C1656 C1654 1.419 . S
C1656 C1657 1.363 . S
C1656 H1659 0.929 . S
C1657 C1656 1.363 . S
C1657 C1663 1.428 . S
H1658 C1654 0.930 . S
H1659 C1656 0.929 . S
S1660 N1661 1.613 . S
S1660 N1662 1.610 . S
N1661 S1660 1.613 . S
N1661 C1664 1.350 . S
N1662 S1660 1.610 . S
N1662 C1663 1.351 . S
C1663 C1657 1.428 . S
C1663 N1662 1.351 . S
C1663 C1664 1.434 . S
C1664 C1655 1.429 . S
C1664 N1661 1.350 . S
C1664 C1663 1.434 . S
C1665 C1666 1.369 . S
C1665 C1667 1.419 . S
C1665 H1669 0.930 . S
C1666 C1665 1.369 . S
C1666 C1675 1.429 . S
C1667 C1665 1.419 . S
C1667 C1668 1.363 . S
C1667 H1670 0.929 . S
C1668 C1667 1.363 . S
C1668 C1674 1.428 . S
H1669 C1665 0.930 . S
H1670 C1667 0.929 . S
S1671 N1672 1.613 . S
S1671 N1673 1.610 . S
N1672 S1671 1.613 . S
N1672 C1675 1.350 . S
N1673 S1671 1.610 . S
N1673 C1674 1.351 . S
C1674 C1668 1.428 . S
C1674 N1673 1.351 . S
C1674 C1675 1.434 . S
C1675 C1666 1.429 . S
C1675 N1672 1.350 . S
C1675 C1674 1.434 . S
C1676 C1677 1.369 . S
C1676 C1678 1.419 1_655 S
C1676 H1680 0.930 . S
C1677 C1676 1.369 . S
C1677 C1686 1.429 . S
C1678 C1676 1.419 1_455 S
C1678 C1679 1.363 . S
C1678 H1681 0.929 . S
C1679 C1678 1.363 . S
C1679 C1685 1.428 . S
H1680 C1676 0.930 . S
H1681 C1678 0.929 . S
S1682 N1683 1.613 . S
S1682 N1684 1.610 1_655 S
N1683 S1682 1.613 . S
N1683 C1686 1.350 . S
N1684 S1682 1.610 1_455 S
N1684 C1685 1.351 . S
C1685 C1679 1.428 . S
C1685 N1684 1.351 . S
C1685 C1686 1.434 1_455 S
C1686 C1677 1.429 . S
C1686 N1683 1.350 . S
C1686 C1685 1.434 1_655 S
C1687 C1688 1.369 . S
C1687 C1689 1.419 . S
C1687 H1691 0.930 . S
C1688 C1687 1.369 . S
C1688 C1697 1.429 . S
C1689 C1687 1.419 . S
C1689 C1690 1.363 . S
C1689 H1692 0.929 . S
C1690 C1689 1.363 . S
C1690 C1696 1.428 . S
H1691 C1687 0.930 . S
H1692 C1689 0.929 . S
S1693 N1694 1.613 . S
S1693 N1695 1.610 . S
N1694 S1693 1.613 . S
N1694 C1697 1.350 . S
N1695 S1693 1.610 . S
N1695 C1696 1.351 . S
C1696 C1690 1.428 . S
C1696 N1695 1.351 . S
C1696 C1697 1.434 . S
C1697 C1688 1.429 . S
C1697 N1694 1.350 . S
C1697 C1696 1.434 . S
C1698 C1699 1.369 . S
C1698 C1700 1.419 . S
C1698 H1702 0.930 . S
C1699 C1698 1.369 . S
C1699 C1708 1.429 . S
C1700 C1698 1.419 . S
C1700 C1701 1.363 . S
C1700 H1703 0.929 . S
C1701 C1700 1.363 . S
C1701 C1707 1.428 . S
H1702 C1698 0.930 . S
H1703 C1700 0.929 . S
S1704 N1705 1.613 . S
S1704 N1706 1.610 . S
N1705 S1704 1.613 . S
N1705 C1708 1.350 . S
N1706 S1704 1.610 . S
N1706 C1707 1.351 . S
C1707 C1701 1.428 . S
C1707 N1706 1.351 . S
C1707 C1708 1.434 . S
C1708 C1699 1.429 . S
C1708 N1705 1.350 . S
C1708 C1707 1.434 . S
C1709 C1710 1.369 . S
C1709 C1711 1.419 . S
C1709 H1713 0.930 . S
C1710 C1709 1.369 . S
C1710 C1719 1.429 . S
C1711 C1709 1.419 . S
C1711 C1712 1.363 . S
C1711 H1714 0.929 . S
C1712 C1711 1.363 . S
C1712 C1718 1.428 . S
H1713 C1709 0.930 . S
H1714 C1711 0.929 . S
S1715 N1716 1.613 . S
S1715 N1717 1.610 . S
N1716 S1715 1.613 . S
N1716 C1719 1.350 . S
N1717 S1715 1.610 . S
N1717 C1718 1.351 . S
C1718 C1712 1.428 . S
C1718 N1717 1.351 . S
C1718 C1719 1.434 . S
C1719 C1710 1.429 . S
C1719 N1716 1.350 . S
C1719 C1718 1.434 . S
C1720 C1721 1.369 . S
C1720 C1722 1.419 . S
C1720 H1724 0.930 . S
C1721 C1720 1.369 . S
C1721 C1730 1.429 . S
C1722 C1720 1.419 . S
C1722 C1723 1.363 . S
C1722 H1725 0.929 . S
C1723 C1722 1.363 . S
C1723 C1729 1.428 . S
H1724 C1720 0.930 . S
H1725 C1722 0.929 . S
S1726 N1727 1.613 . S
S1726 N1728 1.610 . S
N1727 S1726 1.613 . S
N1727 C1730 1.350 . S
N1728 S1726 1.610 . S
N1728 C1729 1.351 . S
C1729 C1723 1.428 . S
C1729 N1728 1.351 . S
C1729 C1730 1.434 . S
C1730 C1721 1.429 . S
C1730 N1727 1.350 . S
C1730 C1729 1.434 . S
C1731 C1732 1.369 . S
C1731 C1733 1.419 . S
C1731 H1735 0.930 . S
C1732 C1731 1.369 . S
C1732 C1741 1.429 . S
C1733 C1731 1.419 . S
C1733 C1734 1.363 . S
C1733 H1736 0.929 . S
C1734 C1733 1.363 . S
C1734 C1740 1.428 . S
H1735 C1731 0.930 . S
H1736 C1733 0.929 . S
S1737 N1738 1.613 . S
S1737 N1739 1.610 . S
N1738 S1737 1.613 . S
N1738 C1741 1.350 . S
N1739 S1737 1.610 . S
N1739 C1740 1.351 . S
C1740 C1734 1.428 . S
C1740 N1739 1.351 . S
C1740 C1741 1.434 . S
C1741 C1732 1.429 . S
C1741 N1738 1.350 . S
C1741 C1740 1.434 . S
C1742 C1743 1.369 . S
C1742 C1744 1.419 . S
C1742 H1746 0.930 . S
C1743 C1742 1.369 . S
C1743 C1752 1.429 . S
C1744 C1742 1.419 . S
C1744 C1745 1.363 . S
C1744 H1747 0.929 . S
C1745 C1744 1.363 . S
C1745 C1751 1.428 . S
H1746 C1742 0.930 . S
H1747 C1744 0.929 . S
S1748 N1749 1.613 . S
S1748 N1750 1.610 . S
N1749 S1748 1.613 . S
N1749 C1752 1.350 . S
N1750 S1748 1.610 . S
N1750 C1751 1.351 . S
C1751 C1745 1.428 . S
C1751 N1750 1.351 . S
C1751 C1752 1.434 . S
C1752 C1743 1.429 . S
C1752 N1749 1.350 . S
C1752 C1751 1.434 . S
C1753 C1754 1.369 . S
C1753 C1755 1.419 . S
C1753 H1757 0.930 . S
C1754 C1753 1.369 . S
C1754 C1763 1.429 . S
C1755 C1753 1.419 . S
C1755 C1756 1.363 . S
C1755 H1758 0.929 . S
C1756 C1755 1.363 . S
C1756 C1762 1.428 . S
H1757 C1753 0.930 . S
H1758 C1755 0.929 . S
S1759 N1760 1.613 . S
S1759 N1761 1.610 . S
N1760 S1759 1.613 . S
N1760 C1763 1.350 . S
N1761 S1759 1.610 . S
N1761 C1762 1.351 . S
C1762 C1756 1.428 . S
C1762 N1761 1.351 . S
C1762 C1763 1.434 . S
C1763 C1754 1.429 . S
C1763 N1760 1.350 . S
C1763 C1762 1.434 . S
C1764 C1765 1.369 1_565 S
C1764 C1766 1.419 . S
C1764 H1768 0.930 . S
C1765 C1764 1.369 1_545 S
C1765 C1774 1.429 . S
C1766 C1764 1.419 . S
C1766 C1767 1.363 . S
C1766 H1769 0.929 . S
C1767 C1766 1.363 . S
C1767 C1773 1.428 1_565 S
H1768 C1764 0.930 . S
H1769 C1766 0.929 . S
S1770 N1771 1.613 . S
S1770 N1772 1.610 . S
N1771 S1770 1.613 . S
N1771 C1774 1.350 . S
N1772 S1770 1.610 . S
N1772 C1773 1.351 . S
C1773 C1767 1.428 1_545 S
C1773 N1772 1.351 . S
C1773 C1774 1.434 . S
C1774 C1765 1.429 . S
C1774 N1771 1.350 . S
C1774 C1773 1.434 . S
C1775 C1776 1.369 . S
C1775 C1777 1.419 1_565 S
C1775 H1779 0.930 . S
C1776 C1775 1.369 . S
C1776 C1785 1.429 1_455 S
C1777 C1775 1.419 1_545 S
C1777 C1778 1.363 1_455 S
C1777 H1780 0.929 . S
C1778 C1777 1.363 1_655 S
C1778 C1784 1.428 . S
H1779 C1775 0.930 . S
H1780 C1777 0.929 . S
S1781 N1782 1.613 . S
S1781 N1783 1.610 1_565 S
N1782 S1781 1.613 . S
N1782 C1785 1.350 . S
N1783 S1781 1.610 1_545 S
N1783 C1784 1.351 . S
C1784 C1778 1.428 . S
C1784 N1783 1.351 . S
C1784 C1785 1.434 1_545 S
C1785 C1776 1.429 1_655 S
C1785 N1782 1.350 . S
C1785 C1784 1.434 1_565 S
C1786 C1787 1.369 . S
C1786 C1788 1.419 . S
C1786 H1790 0.930 . S
C1787 C1786 1.369 . S
C1787 C1796 1.429 1_565 S
C1788 C1786 1.419 . S
C1788 C1789 1.363 1_565 S
C1788 H1791 0.929 . S
C1789 C1788 1.363 1_545 S
C1789 C1795 1.428 . S
H1790 C1786 0.930 . S
H1791 C1788 0.929 . S
S1792 N1793 1.613 . S
S1792 N1794 1.610 . S
N1793 S1792 1.613 . S
N1793 C1796 1.350 . S
N1794 S1792 1.610 . S
N1794 C1795 1.351 . S
C1795 C1789 1.428 . S
C1795 N1794 1.351 . S
C1795 C1796 1.434 . S
C1796 C1787 1.429 1_545 S
C1796 N1793 1.350 . S
C1796 C1795 1.434 . S
C1797 C1798 1.369 1_455 S
C1797 C1799 1.419 . S
C1797 H1801 0.930 . S
C1798 C1797 1.369 1_655 S
C1798 C1807 1.429 1_545 S
C1799 C1797 1.419 . S
C1799 C1800 1.363 1_545 S
C1799 H1802 0.929 . S
C1800 C1799 1.363 1_565 S
C1800 C1806 1.428 1_455 S
H1801 C1797 0.930 . S
H1802 C1799 0.929 . S
S1803 N1804 1.613 . S
S1803 N1805 1.610 . S
N1804 S1803 1.613 . S
N1804 C1807 1.350 . S
N1805 S1803 1.610 . S
N1805 C1806 1.351 . S
C1806 C1800 1.428 1_655 S
C1806 N1805 1.351 . S
C1806 C1807 1.434 . S
C1807 C1798 1.429 1_565 S
C1807 N1804 1.350 . S
C1807 C1806 1.434 . S
C1808 C1809 1.369 . S
C1808 C1810 1.419 . S
C1808 H1812 0.930 . S
C1809 C1808 1.369 . S
C1809 C1818 1.429 1_455 S
C1810 C1808 1.419 . S
C1810 C1811 1.363 1_455 S
C1810 H1813 0.929 . S
C1811 C1810 1.363 1_655 S
C1811 C1817 1.428 . S
H1812 C1808 0.930 . S
H1813 C1810 0.929 . S
S1814 N1815 1.613 . S
S1814 N1816 1.610 . S
N1815 S1814 1.613 . S
N1815 C1818 1.350 . S
N1816 S1814 1.610 . S
N1816 C1817 1.351 . S
C1817 C1811 1.428 . S
C1817 N1816 1.351 . S
C1817 C1818 1.434 . S
C1818 C1809 1.429 1_655 S
C1818 N1815 1.350 . S
C1818 C1817 1.434 . S
C1819 C1820 1.369 . S
C1819 C1821 1.419 . S
C1819 H1823 0.930 . S
C1820 C1819 1.369 . S
C1820 C1829 1.429 . S
C1821 C1819 1.419 . S
C1821 C1822 1.363 . S
C1821 H1824 0.929 . S
C1822 C1821 1.363 . S
C1822 C1828 1.428 . S
H1823 C1819 0.930 . S
H1824 C1821 0.929 . S
S1825 N1826 1.613 . S
S1825 N1827 1.610 . S
N1826 S1825 1.613 . S
N1826 C1829 1.350 . S
N1827 S1825 1.610 . S
N1827 C1828 1.351 . S
C1828 C1822 1.428 . S
C1828 N1827 1.351 . S
C1828 C1829 1.434 . S
C1829 C1820 1.429 . S
C1829 N1826 1.350 . S
C1829 C1828 1.434 . S
C1830 C1831 1.369 . S
C1830 C1832 1.419 . S
C1830 H1834 0.930 . S
C1831 C1830 1.369 . S
C1831 C1840 1.429 . S
C1832 C1830 1.419 . S
C1832 C1833 1.363 . S
C1832 H1835 0.929 . S
C1833 C1832 1.363 . S
C1833 C1839 1.428 . S
H1834 C1830 0.930 . S
H1835 C1832 0.929 . S
S1836 N1837 1.613 . S
S1836 N1838 1.610 . S
N1837 S1836 1.613 . S
N1837 C1840 1.350 . S
N1838 S1836 1.610 . S
N1838 C1839 1.351 . S
C1839 C1833 1.428 . S
C1839 N1838 1.351 . S
C1839 C1840 1.434 . S
C1840 C1831 1.429 . S
C1840 N1837 1.350 . S
C1840 C1839 1.434 . S
C1841 C1842 1.369 . S
C1841 C1843 1.419 . S
C1841 H1845 0.930 . S
C1842 C1841 1.369 . S
C1842 C1851 1.429 . S
C1843 C1841 1.419 . S
C1843 C1844 1.363 . S
C1843 H1846 0.929 . S
C1844 C1843 1.363 . S
C1844 C1850 1.428 . S
H1845 C1841 0.930 . S
H1846 C1843 0.929 . S
S1847 N1848 1.613 . S
S1847 N1849 1.610 . S
N1848 S1847 1.613 . S
N1848 C1851 1.350 . S
N1849 S1847 1.610 . S
N1849 C1850 1.351 . S
C1850 C1844 1.428 . S
C1850 N1849 1.351 . S
C1850 C1851 1.434 . S
C1851 C1842 1.429 . S
C1851 N1848 1.350 . S
C1851 C1850 1.434 . S
C1852 C1853 1.369 1_455 S
C1852 C1854 1.419 . S
C1852 H1856 0.930 . S
C1853 C1852 1.369 1_655 S
C1853 C1862 1.429 . S
C1854 C1852 1.419 . S
C1854 C1855 1.363 . S
C1854 H1857 0.929 . S
C1855 C1854 1.363 . S
C1855 C1861 1.428 . S
H1856 C1852 0.930 . S
H1857 C1854 0.929 . S
S1858 N1859 1.613 . S
S1858 N1860 1.610 1_655 S
N1859 S1858 1.613 . S
N1859 C1862 1.350 . S
N1860 S1858 1.610 1_455 S
N1860 C1861 1.351 . S
C1861 C1855 1.428 . S
C1861 N1860 1.351 . S
C1861 C1862 1.434 1_455 S
C1862 C1853 1.429 . S
C1862 N1859 1.350 . S
C1862 C1861 1.434 1_655 S
C1863 C1864 1.369 . S
C1863 C1865 1.419 . S
C1863 H1867 0.930 . S
C1864 C1863 1.369 . S
C1864 C1873 1.429 . S
C1865 C1863 1.419 . S
C1865 C1866 1.363 . S
C1865 H1868 0.929 . S
C1866 C1865 1.363 . S
C1866 C1872 1.428 . S
H1867 C1863 0.930 . S
H1868 C1865 0.929 . S
S1869 N1870 1.613 . S
S1869 N1871 1.610 . S
N1870 S1869 1.613 . S
N1870 C1873 1.350 . S
N1871 S1869 1.610 . S
N1871 C1872 1.351 . S
C1872 C1866 1.428 . S
C1872 N1871 1.351 . S
C1872 C1873 1.434 . S
C1873 C1864 1.429 . S
C1873 N1870 1.350 . S
C1873 C1872 1.434 . S
C1874 C1875 1.369 . S
C1874 C1876 1.419 . S
C1874 H1878 0.930 . S
C1875 C1874 1.369 . S
C1875 C1884 1.429 . S
C1876 C1874 1.419 . S
C1876 C1877 1.363 . S
C1876 H1879 0.929 . S
C1877 C1876 1.363 . S
C1877 C1883 1.428 . S
H1878 C1874 0.930 . S
H1879 C1876 0.929 . S
S1880 N1881 1.613 . S
S1880 N1882 1.610 . S
N1881 S1880 1.613 . S
N1881 C1884 1.350 . S
N1882 S1880 1.610 . S
N1882 C1883 1.351 . S
C1883 C1877 1.428 . S
C1883 N1882 1.351 . S
C1883 C1884 1.434 . S
C1884 C1875 1.429 . S
C1884 N1881 1.350 . S
C1884 C1883 1.434 . S
C1885 C1886 1.369 . S
C1885 C1887 1.419 . S
C1885 H1889 0.930 . S
C1886 C1885 1.369 . S
C1886 C1895 1.429 . S
C1887 C1885 1.419 . S
C1887 C1888 1.363 . S
C1887 H1890 0.929 . S
C1888 C1887 1.363 . S
C1888 C1894 1.428 . S
H1889 C1885 0.930 . S
H1890 C1887 0.929 . S
S1891 N1892 1.613 . S
S1891 N1893 1.610 . S
N1892 S1891 1.613 . S
N1892 C1895 1.350 . S
N1893 S1891 1.610 . S
N1893 C1894 1.351 . S
C1894 C1888 1.428 . S
C1894 N1893 1.351 . S
C1894 C1895 1.434 . S
C1895 C1886 1.429 . S
C1895 N1892 1.350 . S
C1895 C1894 1.434 . S
C1896 C1897 1.369 1_655 S
C1896 C1898 1.419 . S
C1896 H1900 0.930 . S
C1897 C1896 1.369 1_455 S
C1897 C1906 1.429 . S
C1898 C1896 1.419 . S
C1898 C1899 1.363 . S
C1898 H1901 0.929 . S
C1899 C1898 1.363 . S
C1899 C1905 1.428 1_655 S
H1900 C1896 0.930 . S
H1901 C1898 0.929 . S
S1902 N1903 1.613 . S
S1902 N1904 1.610 . S
N1903 S1902 1.613 . S
N1903 C1906 1.350 . S
N1904 S1902 1.610 . S
N1904 C1905 1.351 . S
C1905 C1899 1.428 1_455 S
C1905 N1904 1.351 . S
C1905 C1906 1.434 . S
C1906 C1897 1.429 . S
C1906 N1903 1.350 . S
C1906 C1905 1.434 . S
C1907 C1908 1.369 . S
C1907 C1909 1.419 . S
C1907 H1911 0.930 . S
C1908 C1907 1.369 . S
C1908 C1917 1.429 . S
C1909 C1907 1.419 . S
C1909 C1910 1.363 . S
C1909 H1912 0.929 . S
C1910 C1909 1.363 . S
C1910 C1916 1.428 . S
H1911 C1907 0.930 . S
H1912 C1909 0.929 . S
S1913 N1914 1.613 . S
S1913 N1915 1.610 . S
N1914 S1913 1.613 . S
N1914 C1917 1.350 . S
N1915 S1913 1.610 . S
N1915 C1916 1.351 . S
C1916 C1910 1.428 . S
C1916 N1915 1.351 . S
C1916 C1917 1.434 . S
C1917 C1908 1.429 . S
C1917 N1914 1.350 . S
C1917 C1916 1.434 . S
C1918 C1919 1.369 . S
C1918 C1920 1.419 . S
C1918 H1922 0.930 . S
C1919 C1918 1.369 . S
C1919 C1928 1.429 . S
C1920 C1918 1.419 . S
C1920 C1921 1.363 . S
C1920 H1923 0.929 . S
C1921 C1920 1.363 . S
C1921 C1927 1.428 . S
H1922 C1918 0.930 . S
H1923 C1920 0.929 . S
S1924 N1925 1.613 . S
S1924 N1926 1.610 . S
N1925 S1924 1.613 . S
N1925 C1928 1.350 . S
N1926 S1924 1.610 . S
N1926 C1927 1.351 . S
C1927 C1921 1.428 . S
C1927 N1926 1.351 . S
C1927 C1928 1.434 . S
C1928 C1919 1.429 . S
C1928 N1925 1.350 . S
C1928 C1927 1.434 . S
C1929 C1930 1.369 . S
C1929 C1931 1.419 . S
C1929 H1933 0.930 . S
C1930 C1929 1.369 . S
C1930 C1939 1.429 . S
C1931 C1929 1.419 . S
C1931 C1932 1.363 . S
C1931 H1934 0.929 . S
C1932 C1931 1.363 . S
C1932 C1938 1.428 . S
H1933 C1929 0.930 . S
H1934 C1931 0.929 . S
S1935 N1936 1.613 . S
S1935 N1937 1.610 . S
N1936 S1935 1.613 . S
N1936 C1939 1.350 . S
N1937 S1935 1.610 . S
N1937 C1938 1.351 . S
C1938 C1932 1.428 . S
C1938 N1937 1.351 . S
C1938 C1939 1.434 . S
C1939 C1930 1.429 . S
C1939 N1936 1.350 . S
C1939 C1938 1.434 . S
C1940 C1941 1.369 1_655 S
C1940 C1942 1.419 . S
C1940 H1944 0.930 . S
C1941 C1940 1.369 1_455 S
C1941 C1950 1.429 . S
C1942 C1940 1.419 . S
C1942 C1943 1.363 . S
C1942 H1945 0.929 . S
C1943 C1942 1.363 . S
C1943 C1949 1.428 . S
H1944 C1940 0.930 . S
H1945 C1942 0.929 . S
S1946 N1947 1.613 . S
S1946 N1948 1.610 . S
N1947 S1946 1.613 . S
N1947 C1950 1.350 . S
N1948 S1946 1.610 . S
N1948 C1949 1.351 1_455 S
C1949 C1943 1.428 . S
C1949 N1948 1.351 1_655 S
C1949 C1950 1.434 1_655 S
C1950 C1941 1.429 . S
C1950 N1947 1.350 . S
C1950 C1949 1.434 1_455 S
C1951 C1952 1.369 . S
C1951 C1953 1.419 . S
C1951 H1955 0.930 . S
C1952 C1951 1.369 . S
C1952 C1961 1.429 . S
C1953 C1951 1.419 . S
C1953 C1954 1.363 . S
C1953 H1956 0.929 . S
C1954 C1953 1.363 . S
C1954 C1960 1.428 . S
H1955 C1951 0.930 . S
H1956 C1953 0.929 . S
S1957 N1958 1.613 . S
S1957 N1959 1.610 . S
N1958 S1957 1.613 . S
N1958 C1961 1.350 . S
N1959 S1957 1.610 . S
N1959 C1960 1.351 . S
C1960 C1954 1.428 . S
C1960 N1959 1.351 . S
C1960 C1961 1.434 . S
C1961 C1952 1.429 . S
C1961 N1958 1.350 . S
C1961 C1960 1.434 . S
C1962 C1963 1.369 . S
C1962 C1964 1.419 . S
C1962 H1966 0.930 . S
C1963 C1962 1.369 . S
C1963 C1972 1.429 . S
C1964 C1962 1.419 . S
C1964 C1965 1.363 . S
C1964 H1967 0.929 . S
C1965 C1964 1.363 . S
C1965 C1971 1.428 . S
H1966 C1962 0.930 . S
H1967 C1964 0.929 . S
S1968 N1969 1.613 1_556 S
S1968 N1970 1.610 . S
N1969 S1968 1.613 1_554 S
N1969 C1972 1.350 1_554 S
N1970 S1968 1.610 . S
N1970 C1971 1.351 . S
C1971 C1965 1.428 . S
C1971 N1970 1.351 . S
C1971 C1972 1.434 . S
C1972 C1963 1.429 . S
C1972 N1969 1.350 1_556 S
C1972 C1971 1.434 . S
C1973 C1974 1.369 . S
C1973 C1975 1.419 . S
C1973 H1977 0.930 . S
C1974 C1973 1.369 . S
C1974 C1983 1.429 . S
C1975 C1973 1.419 . S
C1975 C1976 1.363 . S
C1975 H1978 0.929 . S
C1976 C1975 1.363 . S
C1976 C1982 1.428 . S
H1977 C1973 0.930 . S
H1978 C1975 0.929 . S
S1979 N1980 1.613 . S
S1979 N1981 1.610 . S
N1980 S1979 1.613 . S
N1980 C1983 1.350 . S
N1981 S1979 1.610 . S
N1981 C1982 1.351 . S
C1982 C1976 1.428 . S
C1982 N1981 1.351 . S
C1982 C1983 1.434 . S
C1983 C1974 1.429 . S
C1983 N1980 1.350 . S
C1983 C1982 1.434 . S
C1984 C1985 1.369 . S
C1984 C1986 1.419 . S
C1984 H1988 0.930 . S
C1985 C1984 1.369 . S
C1985 C1994 1.429 . S
C1986 C1984 1.419 . S
C1986 C1987 1.363 . S
C1986 H1989 0.929 . S
C1987 C1986 1.363 . S
C1987 C1993 1.428 . S
H1988 C1984 0.930 . S
H1989 C1986 0.929 . S
S1990 N1991 1.613 . S
S1990 N1992 1.610 . S
N1991 S1990 1.613 . S
N1991 C1994 1.350 . S
N1992 S1990 1.610 . S
N1992 C1993 1.351 . S
C1993 C1987 1.428 . S
C1993 N1992 1.351 . S
C1993 C1994 1.434 . S
C1994 C1985 1.429 . S
C1994 N1991 1.350 . S
C1994 C1993 1.434 . S
C1995 C1996 1.369 . S
C1995 C1997 1.419 . S
C1995 H1999 0.930 . S
C1996 C1995 1.369 . S
C1996 C2005 1.429 . S
C1997 C1995 1.419 . S
C1997 C1998 1.363 . S
C1997 H2000 0.929 . S
C1998 C1997 1.363 . S
C1998 C2004 1.428 . S
H1999 C1995 0.930 . S
H2000 C1997 0.929 . S
S2001 N2002 1.613 . S
S2001 N2003 1.610 . S
N2002 S2001 1.613 . S
N2002 C2005 1.350 . S
N2003 S2001 1.610 . S
N2003 C2004 1.351 . S
C2004 C1998 1.428 . S
C2004 N2003 1.351 . S
C2004 C2005 1.434 . S
C2005 C1996 1.429 . S
C2005 N2002 1.350 . S
C2005 C2004 1.434 . S
C2006 C2007 1.369 1_455 S
C2006 C2008 1.419 . S
C2006 H2010 0.930 1_556 S
C2007 C2006 1.369 1_655 S
C2007 C2016 1.429 . S
C2008 C2006 1.419 . S
C2008 C2009 1.363 . S
C2008 H2011 0.929 . S
C2009 C2008 1.363 . S
C2009 C2015 1.428 1_455 S
H2010 C2006 0.930 1_554 S
H2011 C2008 0.929 . S
S2012 N2013 1.613 . S
S2012 N2014 1.610 . S
N2013 S2012 1.613 . S
N2013 C2016 1.350 . S
N2014 S2012 1.610 . S
N2014 C2015 1.351 . S
C2015 C2009 1.428 1_655 S
C2015 N2014 1.351 . S
C2015 C2016 1.434 . S
C2016 C2007 1.429 . S
C2016 N2013 1.350 . S
C2016 C2015 1.434 . S
C2017 C2018 1.369 1_554 S
C2017 C2019 1.419 . S
C2017 H2021 0.930 . S
C2018 C2017 1.369 1_556 S
C2018 C2027 1.429 1_556 S
C2019 C2017 1.419 . S
C2019 C2020 1.363 . S
C2019 H2022 0.929 . S
C2020 C2019 1.363 . S
C2020 C2026 1.428 . S
H2021 C2017 0.930 . S
H2022 C2019 0.929 . S
S2023 N2024 1.613 1_554 S
S2023 N2025 1.610 . S
N2024 S2023 1.613 1_556 S
N2024 C2027 1.350 1_556 S
N2025 S2023 1.610 . S
N2025 C2026 1.351 . S
C2026 C2020 1.428 . S
C2026 N2025 1.351 . S
C2026 C2027 1.434 . S
C2027 C2018 1.429 1_554 S
C2027 N2024 1.350 1_554 S
C2027 C2026 1.434 . S
C2028 C2029 1.369 . S
C2028 C2030 1.419 . S
C2028 H2032 0.930 . S
C2029 C2028 1.369 . S
C2029 C2038 1.429 . S
C2030 C2028 1.419 . S
C2030 C2031 1.363 . S
C2030 H2033 0.929 . S
C2031 C2030 1.363 . S
C2031 C2037 1.428 . S
H2032 C2028 0.930 . S
H2033 C2030 0.929 . S
S2034 N2035 1.613 . S
S2034 N2036 1.610 . S
N2035 S2034 1.613 . S
N2035 C2038 1.350 . S
N2036 S2034 1.610 . S
N2036 C2037 1.351 . S
C2037 C2031 1.428 . S
C2037 N2036 1.351 . S
C2037 C2038 1.434 . S
C2038 C2029 1.429 . S
C2038 N2035 1.350 . S
C2038 C2037 1.434 . S
C2039 C2040 1.369 . S
C2039 C2041 1.419 . S
C2039 H2043 0.930 . S
C2040 C2039 1.369 . S
C2040 C2049 1.429 . S
C2041 C2039 1.419 . S
C2041 C2042 1.363 . S
C2041 H2044 0.929 . S
C2042 C2041 1.363 . S
C2042 C2048 1.428 . S
H2043 C2039 0.930 . S
H2044 C2041 0.929 . S
S2045 N2046 1.613 . S
S2045 N2047 1.610 . S
N2046 S2045 1.613 . S
N2046 C2049 1.350 . S
N2047 S2045 1.610 . S
N2047 C2048 1.351 . S
C2048 C2042 1.428 . S
C2048 N2047 1.351 . S
C2048 C2049 1.434 . S
C2049 C2040 1.429 . S
C2049 N2046 1.350 . S
C2049 C2048 1.434 . S
C2050 C2051 1.369 . S
C2050 C2052 1.419 . S
C2050 H2054 0.930 . S
C2051 C2050 1.369 . S
C2051 C2060 1.429 . S
C2052 C2050 1.419 . S
C2052 C2053 1.363 . S
C2052 H2055 0.929 . S
C2053 C2052 1.363 . S
C2053 C2059 1.428 . S
H2054 C2050 0.930 . S
H2055 C2052 0.929 . S
S2056 N2057 1.613 . S
S2056 N2058 1.610 1_455 S
N2057 S2056 1.613 . S
N2057 C2060 1.350 1_455 S
N2058 S2056 1.610 1_655 S
N2058 C2059 1.351 . S
C2059 C2053 1.428 . S
C2059 N2058 1.351 . S
C2059 C2060 1.434 . S
C2060 C2051 1.429 . S
C2060 N2057 1.350 1_655 S
C2060 C2059 1.434 . S
C2061 C2062 1.369 . S
C2061 C2063 1.419 . S
C2061 H2065 0.930 . S
C2062 C2061 1.369 . S
C2062 C2071 1.429 . S
C2063 C2061 1.419 . S
C2063 C2064 1.363 . S
C2063 H2066 0.929 . S
C2064 C2063 1.363 . S
C2064 C2070 1.428 . S
H2065 C2061 0.930 . S
H2066 C2063 0.929 . S
S2067 N2068 1.613 . S
S2067 N2069 1.610 . S
N2068 S2067 1.613 . S
N2068 C2071 1.350 . S
N2069 S2067 1.610 . S
N2069 C2070 1.351 . S
C2070 C2064 1.428 . S
C2070 N2069 1.351 . S
C2070 C2071 1.434 . S
C2071 C2062 1.429 . S
C2071 N2068 1.350 . S
C2071 C2070 1.434 . S
C2072 C2073 1.369 . S
C2072 C2074 1.419 . S
C2072 H2076 0.930 . S
C2073 C2072 1.369 . S
C2073 C2082 1.429 . S
C2074 C2072 1.419 . S
C2074 C2075 1.363 . S
C2074 H2077 0.929 . S
C2075 C2074 1.363 . S
C2075 C2081 1.428 . S
H2076 C2072 0.930 . S
H2077 C2074 0.929 . S
S2078 N2079 1.613 . S
S2078 N2080 1.610 . S
N2079 S2078 1.613 . S
N2079 C2082 1.350 . S
N2080 S2078 1.610 . S
N2080 C2081 1.351 . S
C2081 C2075 1.428 . S
C2081 N2080 1.351 . S
C2081 C2082 1.434 . S
C2082 C2073 1.429 . S
C2082 N2079 1.350 . S
C2082 C2081 1.434 . S
C2083 C2084 1.369 . S
C2083 C2085 1.419 . S
C2083 H2087 0.930 . S
C2084 C2083 1.369 . S
C2084 C2093 1.429 . S
C2085 C2083 1.419 . S
C2085 C2086 1.363 . S
C2085 H2088 0.929 . S
C2086 C2085 1.363 . S
C2086 C2092 1.428 . S
H2087 C2083 0.930 . S
H2088 C2085 0.929 . S
S2089 N2090 1.613 . S
S2089 N2091 1.610 . S
N2090 S2089 1.613 . S
N2090 C2093 1.350 . S
N2091 S2089 1.610 . S
N2091 C2092 1.351 . S
C2092 C2086 1.428 . S
C2092 N2091 1.351 . S
C2092 C2093 1.434 . S
C2093 C2084 1.429 . S
C2093 N2090 1.350 . S
C2093 C2092 1.434 . S
C2094 C2095 1.369 . S
C2094 C2096 1.419 1_455 S
C2094 H2098 0.930 . S
C2095 C2094 1.369 . S
C2095 C2104 1.429 1_455 S
C2096 C2094 1.419 1_655 S
C2096 C2097 1.363 . S
C2096 H2099 0.929 . S
C2097 C2096 1.363 . S
C2097 C2103 1.428 . S
H2098 C2094 0.930 . S
H2099 C2096 0.929 . S
S2100 N2101 1.613 . S
S2100 N2102 1.610 . S
N2101 S2100 1.613 . S
N2101 C2104 1.350 . S
N2102 S2100 1.610 . S
N2102 C2103 1.351 . S
C2103 C2097 1.428 . S
C2103 N2102 1.351 . S
C2103 C2104 1.434 . S
C2104 C2095 1.429 1_655 S
C2104 N2101 1.350 . S
C2104 C2103 1.434 . S
C2105 C2106 1.369 . S
C2105 C2107 1.419 . S
C2105 H2109 0.930 . S
C2106 C2105 1.369 . S
C2106 C2115 1.429 . S
C2107 C2105 1.419 . S
C2107 C2108 1.363 . S
C2107 H2110 0.929 . S
C2108 C2107 1.363 . S
C2108 C2114 1.428 . S
H2109 C2105 0.930 . S
H2110 C2107 0.929 . S
S2111 N2112 1.613 . S
S2111 N2113 1.610 . S
N2112 S2111 1.613 . S
N2112 C2115 1.350 . S
N2113 S2111 1.610 . S
N2113 C2114 1.351 . S
C2114 C2108 1.428 . S
C2114 N2113 1.351 . S
C2114 C2115 1.434 . S
C2115 C2106 1.429 . S
C2115 N2112 1.350 . S
C2115 C2114 1.434 . S
C2116 C2117 1.369 . S
C2116 C2118 1.419 . S
C2116 H2120 0.930 . S
C2117 C2116 1.369 . S
C2117 C2126 1.429 . S
C2118 C2116 1.419 . S
C2118 C2119 1.363 . S
C2118 H2121 0.929 . S
C2119 C2118 1.363 . S
C2119 C2125 1.428 . S
H2120 C2116 0.930 . S
H2121 C2118 0.929 . S
S2122 N2123 1.613 . S
S2122 N2124 1.610 . S
N2123 S2122 1.613 . S
N2123 C2126 1.350 . S
N2124 S2122 1.610 . S
N2124 C2125 1.351 . S
C2125 C2119 1.428 . S
C2125 N2124 1.351 . S
C2125 C2126 1.434 . S
C2126 C2117 1.429 . S
C2126 N2123 1.350 . S
C2126 C2125 1.434 . S
C2127 C2128 1.369 . S
C2127 C2129 1.419 . S
C2127 H2131 0.930 . S
C2128 C2127 1.369 . S
C2128 C2137 1.429 . S
C2129 C2127 1.419 . S
C2129 C2130 1.363 . S
C2129 H2132 0.929 . S
C2130 C2129 1.363 . S
C2130 C2136 1.428 . S
H2131 C2127 0.930 . S
H2132 C2129 0.929 . S
S2133 N2134 1.613 . S
S2133 N2135 1.610 . S
N2134 S2133 1.613 . S
N2134 C2137 1.350 . S
N2135 S2133 1.610 . S
N2135 C2136 1.351 . S
C2136 C2130 1.428 . S
C2136 N2135 1.351 . S
C2136 C2137 1.434 . S
C2137 C2128 1.429 . S
C2137 N2134 1.350 . S
C2137 C2136 1.434 . S
C2138 C2139 1.369 . S
C2138 C2140 1.419 . S
C2138 H2142 0.930 . S
C2139 C2138 1.369 . S
C2139 C2148 1.429 . S
C2140 C2138 1.419 . S
C2140 C2141 1.363 . S
C2140 H2143 0.929 . S
C2141 C2140 1.363 . S
C2141 C2147 1.428 . S
H2142 C2138 0.930 . S
H2143 C2140 0.929 . S
S2144 N2145 1.613 . S
S2144 N2146 1.598 1_455 S
N2145 S2144 1.613 . S
N2145 C2148 1.350 . S
N2146 S2144 1.598 1_655 S
N2146 C2147 1.331 1_655 S
C2147 C2141 1.428 . S
C2147 N2146 1.331 1_455 S
C2147 C2148 1.434 . S
C2148 C2139 1.429 . S
C2148 N2145 1.350 . S
C2148 C2147 1.434 . S
C2149 C2150 1.369 . S
C2149 C2151 1.419 1_556 S
C2149 H2153 0.930 . S
C2150 C2149 1.369 . S
C2150 C2159 1.429 1_556 S
C2151 C2149 1.419 1_554 S
C2151 C2152 1.363 . S
C2151 H2154 0.929 . S
C2152 C2151 1.363 . S
C2152 C2158 1.428 . S
H2153 C2149 0.930 . S
H2154 C2151 0.929 . S
S2155 N2156 1.613 . S
S2155 N2157 1.610 . S
N2156 S2155 1.613 . S
N2156 C2159 1.350 . S
N2157 S2155 1.610 . S
N2157 C2158 1.351 . S
C2158 C2152 1.428 . S
C2158 N2157 1.351 . S
C2158 C2159 1.434 . S
C2159 C2150 1.429 1_554 S
C2159 N2156 1.350 . S
C2159 C2158 1.434 . S
C2160 C2161 1.369 . S
C2160 C2162 1.419 . S
C2160 H2164 0.930 . S
C2161 C2160 1.369 . S
C2161 C2170 1.429 . S
C2162 C2160 1.419 . S
C2162 C2163 1.363 . S
C2162 H2165 0.929 . S
C2163 C2162 1.363 . S
C2163 C2169 1.428 . S
H2164 C2160 0.930 . S
H2165 C2162 0.929 . S
S2166 N2167 1.613 . S
S2166 N2168 1.610 . S
N2167 S2166 1.613 . S
N2167 C2170 1.350 . S
N2168 S2166 1.610 . S
N2168 C2169 1.351 . S
C2169 C2163 1.428 . S
C2169 N2168 1.351 . S
C2169 C2170 1.434 . S
C2170 C2161 1.429 . S
C2170 N2167 1.350 . S
C2170 C2169 1.434 . S
C2171 C2172 1.369 . S
C2171 C2173 1.419 1_556 S
C2171 H2175 0.930 . S
C2172 C2171 1.369 . S
C2172 C2181 1.429 . S
C2173 C2171 1.419 1_554 S
C2173 C2174 1.363 . S
C2173 H2176 0.929 . S
C2174 C2173 1.363 . S
C2174 C2180 1.428 . S
H2175 C2171 0.930 . S
H2176 C2173 0.929 . S
S2177 N2178 1.613 . S
S2177 N2179 1.610 1_556 S
N2178 S2177 1.613 . S
N2178 C2181 1.350 . S
N2179 S2177 1.610 1_554 S
N2179 C2180 1.351 . S
C2180 C2174 1.428 . S
C2180 N2179 1.351 . S
C2180 C2181 1.434 1_554 S
C2181 C2172 1.429 . S
C2181 N2178 1.350 . S
C2181 C2180 1.434 1_556 S
C2182 C2183 1.369 . S
C2182 C2184 1.419 . S
C2182 H2186 0.930 . S
C2183 C2182 1.369 . S
C2183 C2192 1.429 . S
C2184 C2182 1.419 . S
C2184 C2185 1.363 . S
C2184 H2187 0.929 . S
C2185 C2184 1.363 . S
C2185 C2191 1.428 . S
H2186 C2182 0.930 . S
H2187 C2184 0.929 . S
S2188 N2189 1.613 . S
S2188 N2190 1.610 . S
N2189 S2188 1.613 . S
N2189 C2192 1.350 . S
N2190 S2188 1.610 . S
N2190 C2191 1.351 . S
C2191 C2185 1.428 . S
C2191 N2190 1.351 . S
C2191 C2192 1.434 . S
C2192 C2183 1.429 . S
C2192 N2189 1.350 . S
C2192 C2191 1.434 . S
C2193 C2194 1.369 . S
C2193 C2195 1.419 . S
C2193 H2197 0.930 . S
C2194 C2193 1.369 . S
C2194 C2203 1.429 . S
C2195 C2193 1.419 . S
C2195 C2196 1.363 . S
C2195 H2198 0.929 . S
C2196 C2195 1.363 . S
C2196 C2202 1.428 . S
H2197 C2193 0.930 . S
H2198 C2195 0.929 . S
S2199 N2200 1.613 . S
S2199 N2201 1.610 . S
N2200 S2199 1.613 . S
N2200 C2203 1.350 . S
N2201 S2199 1.610 . S
N2201 C2202 1.351 . S
C2202 C2196 1.428 . S
C2202 N2201 1.351 . S
C2202 C2203 1.434 . S
C2203 C2194 1.429 . S
C2203 N2200 1.350 . S
C2203 C2202 1.434 . S
C2204 C2205 1.369 . S
C2204 C2206 1.419 . S
C2204 H2208 0.930 . S
C2205 C2204 1.369 . S
C2205 C2214 1.429 . S
C2206 C2204 1.419 . S
C2206 C2207 1.363 . S
C2206 H2209 0.929 . S
C2207 C2206 1.363 . S
C2207 C2213 1.428 . S
H2208 C2204 0.930 . S
H2209 C2206 0.929 . S
S2210 N2211 1.613 . S
S2210 N2212 1.610 . S
N2211 S2210 1.613 . S
N2211 C2214 1.350 . S
N2212 S2210 1.610 . S
N2212 C2213 1.351 . S
C2213 C2207 1.428 . S
C2213 N2212 1.351 . S
C2213 C2214 1.434 . S
C2214 C2205 1.429 . S
C2214 N2211 1.350 . S
C2214 C2213 1.434 . S
C2215 C2216 1.369 . S
C2215 C2217 1.419 . S
C2215 H2219 0.930 . S
C2216 C2215 1.369 . S
C2216 C2225 1.429 . S
C2217 C2215 1.419 . S
C2217 C2218 1.363 . S
C2217 H2220 0.929 . S
C2218 C2217 1.363 . S
C2218 C2224 1.428 . S
H2219 C2215 0.930 . S
H2220 C2217 0.929 . S
S2221 N2222 1.613 . S
S2221 N2223 1.610 . S
N2222 S2221 1.613 . S
N2222 C2225 1.350 . S
N2223 S2221 1.610 . S
N2223 C2224 1.351 . S
C2224 C2218 1.428 . S
C2224 N2223 1.351 . S
C2224 C2225 1.434 . S
C2225 C2216 1.429 . S
C2225 N2222 1.350 . S
C2225 C2224 1.434 . S
C2226 C2227 1.370 1_554 S
C2226 C2228 1.419 . S
C2226 H2230 0.930 1_554 S
C2227 C2226 1.370 1_556 S
C2227 C2236 1.430 1_556 S
C2228 C2226 1.419 . S
C2228 C2229 1.363 . S
C2228 H2231 0.929 . S
C2229 C2228 1.363 . S
C2229 C2235 1.428 . S
H2230 C2226 0.930 1_556 S
H2231 C2228 0.929 . S
S2232 N2233 1.613 . S
S2232 N2234 1.610 . S
N2233 S2232 1.613 . S
N2233 C2236 1.350 . S
N2234 S2232 1.610 . S
N2234 C2235 1.351 . S
C2235 C2229 1.428 . S
C2235 N2234 1.351 . S
C2235 C2236 1.434 . S
C2236 C2227 1.430 1_554 S
C2236 N2233 1.350 . S
C2236 C2235 1.434 . S
C2237 C2238 1.369 . S
C2237 C2239 1.419 . S
C2237 H2241 0.930 . S
C2238 C2237 1.369 . S
C2238 C2247 1.429 . S
C2239 C2237 1.419 . S
C2239 C2240 1.363 . S
C2239 H2242 0.929 . S
C2240 C2239 1.363 . S
C2240 C2246 1.428 . S
H2241 C2237 0.930 . S
H2242 C2239 0.929 . S
S2243 N2244 1.613 . S
S2243 N2245 1.610 . S
N2244 S2243 1.613 . S
N2244 C2247 1.350 . S
N2245 S2243 1.610 . S
N2245 C2246 1.351 . S
C2246 C2240 1.428 . S
C2246 N2245 1.351 . S
C2246 C2247 1.434 . S
C2247 C2238 1.429 . S
C2247 N2244 1.350 . S
C2247 C2246 1.434 . S
C2248 C2249 1.369 1_545 S
C2248 C2250 1.419 . S
C2248 H2252 0.930 . S
C2249 C2248 1.369 1_565 S
C2249 C2258 1.429 . S
C2250 C2248 1.419 . S
C2250 C2251 1.363 . S
C2250 H2253 0.929 . S
C2251 C2250 1.363 . S
C2251 C2257 1.428 1_545 S
H2252 C2248 0.930 . S
H2253 C2250 0.929 . S
S2254 N2255 1.613 . S
S2254 N2256 1.610 . S
N2255 S2254 1.613 . S
N2255 C2258 1.350 . S
N2256 S2254 1.610 . S
N2256 C2257 1.351 . S
C2257 C2251 1.428 1_565 S
C2257 N2256 1.351 . S
C2257 C2258 1.434 . S
C2258 C2249 1.429 . S
C2258 N2255 1.350 . S
C2258 C2257 1.434 . S
C2259 C2260 1.369 . S
C2259 C2261 1.419 . S
C2259 H2263 0.930 . S
C2260 C2259 1.369 . S
C2260 C2269 1.429 . S
C2261 C2259 1.419 . S
C2261 C2262 1.363 . S
C2261 H2264 0.929 . S
C2262 C2261 1.363 . S
C2262 C2268 1.428 . S
H2263 C2259 0.930 . S
H2264 C2261 0.929 . S
S2265 N2266 1.613 . S
S2265 N2267 1.610 . S
N2266 S2265 1.613 . S
N2266 C2269 1.350 . S
N2267 S2265 1.610 . S
N2267 C2268 1.351 . S
C2268 C2262 1.428 . S
C2268 N2267 1.351 . S
C2268 C2269 1.434 . S
C2269 C2260 1.429 . S
C2269 N2266 1.350 . S
C2269 C2268 1.434 . S
C2270 C2271 1.369 . S
C2270 C2272 1.419 . S
C2270 H2274 0.930 . S
C2271 C2270 1.369 . S
C2271 C2280 1.446 . S
C2272 C2270 1.419 . S
C2272 C2273 1.363 1_545 S
C2272 H2275 0.929 . S
C2273 C2272 1.363 1_565 S
C2273 C2279 1.428 . S
H2274 C2270 0.930 . S
H2275 C2272 0.929 . S
S2276 N2277 1.613 . S
S2276 N2278 1.610 . S
N2277 S2276 1.613 . S
N2277 C2280 1.339 1_565 S
N2278 S2276 1.610 . S
N2278 C2279 1.351 . S
C2279 C2273 1.428 . S
C2279 N2278 1.351 . S
C2279 C2280 1.426 1_565 S
C2280 C2271 1.446 . S
C2280 N2277 1.339 1_545 S
C2280 C2279 1.426 1_545 S
C2281 C2282 1.369 . S
C2281 C2283 1.419 . S
C2281 H2285 0.930 . S
C2282 C2281 1.369 . S
C2282 C2291 1.429 . S
C2283 C2281 1.419 . S
C2283 C2284 1.363 . S
C2283 H2286 0.929 . S
C2284 C2283 1.363 . S
C2284 C2290 1.428 . S
H2285 C2281 0.930 . S
H2286 C2283 0.929 . S
S2287 N2288 1.613 . S
S2287 N2289 1.610 . S
N2288 S2287 1.613 . S
N2288 C2291 1.350 . S
N2289 S2287 1.610 . S
N2289 C2290 1.351 . S
C2290 C2284 1.428 . S
C2290 N2289 1.351 . S
C2290 C2291 1.434 . S
C2291 C2282 1.429 . S
C2291 N2288 1.350 . S
C2291 C2290 1.434 . S
C2292 C2293 1.369 1_545 S
C2292 C2294 1.419 . S
C2292 H2296 0.930 . S
C2293 C2292 1.369 1_565 S
C2293 C2302 1.429 . S
C2294 C2292 1.419 . S
C2294 C2295 1.363 . S
C2294 H2297 0.929 . S
C2295 C2294 1.363 . S
C2295 C2301 1.428 1_545 S
H2296 C2292 0.930 . S
H2297 C2294 0.929 . S
S2298 N2299 1.613 . S
S2298 N2300 1.610 . S
N2299 S2298 1.613 . S
N2299 C2302 1.350 . S
N2300 S2298 1.610 . S
N2300 C2301 1.351 . S
C2301 C2295 1.428 1_565 S
C2301 N2300 1.351 . S
C2301 C2302 1.434 . S
C2302 C2293 1.429 . S
C2302 N2299 1.350 . S
C2302 C2301 1.434 . S
C2303 C2304 1.369 . S
C2303 C2305 1.419 . S
C2303 H2307 0.930 . S
C2304 C2303 1.369 . S
C2304 C2313 1.429 . S
C2305 C2303 1.419 . S
C2305 C2306 1.363 . S
C2305 H2308 0.929 . S
C2306 C2305 1.363 . S
C2306 C2312 1.428 . S
H2307 C2303 0.930 . S
H2308 C2305 0.929 . S
S2309 N2310 1.613 . S
S2309 N2311 1.610 . S
N2310 S2309 1.613 . S
N2310 C2313 1.350 . S
N2311 S2309 1.610 . S
N2311 C2312 1.351 . S
C2312 C2306 1.428 . S
C2312 N2311 1.351 . S
C2312 C2313 1.434 . S
C2313 C2304 1.429 . S
C2313 N2310 1.350 . S
C2313 C2312 1.434 . S
C2314 C2315 1.369 . S
C2314 C2316 1.419 . S
C2314 H2318 0.930 . S
C2315 C2314 1.369 . S
C2315 C2324 1.429 1_565 S
C2316 C2314 1.419 . S
C2316 C2317 1.363 1_565 S
C2316 H2319 0.929 . S
C2317 C2316 1.363 1_545 S
C2317 C2323 1.428 . S
H2318 C2314 0.930 . S
H2319 C2316 0.929 . S
S2320 N2321 1.613 . S
S2320 N2322 1.610 . S
N2321 S2320 1.613 . S
N2321 C2324 1.350 . S
N2322 S2320 1.610 . S
N2322 C2323 1.351 . S
C2323 C2317 1.428 . S
C2323 N2322 1.351 . S
C2323 C2324 1.434 . S
C2324 C2315 1.429 1_545 S
C2324 N2321 1.350 . S
C2324 C2323 1.434 . S
C2325 C2326 1.369 . S
C2325 C2327 1.419 . S
C2325 H2329 0.930 . S
C2326 C2325 1.369 . S
C2326 C2335 1.429 . S
C2327 C2325 1.419 . S
C2327 C2328 1.363 . S
C2327 H2330 0.929 . S
C2328 C2327 1.363 . S
C2328 C2334 1.428 . S
H2329 C2325 0.930 . S
H2330 C2327 0.929 . S
S2331 N2332 1.613 . S
S2331 N2333 1.610 . S
N2332 S2331 1.613 . S
N2332 C2335 1.350 . S
N2333 S2331 1.610 . S
N2333 C2334 1.351 . S
C2334 C2328 1.428 . S
C2334 N2333 1.351 . S
C2334 C2335 1.434 . S
C2335 C2326 1.429 . S
C2335 N2332 1.350 . S
C2335 C2334 1.434 . S
C1281 C2 0.368 . S
C1283 C176 0.327 . S
C1292 C216 0.399 . S
C1294 C42 0.402 . S
C1303 C82 0.357 . S
C1305 C256 0.442 . S
C1314 C296 0.435 . S
C1316 C136 0.489 . S
C1325 C331 0.367 . S
C1327 C487 0.335 . S
C1336 C371 0.399 . S
C1338 C527 0.396 . S
C1347 C567 0.440 . S
C1349 C411 0.361 . S
C1358 C447 0.513 . S
C1360 C607 0.409 . S
C1369 C816 0.325 . S
C1371 C642 0.370 . S
C1380 C682 0.415 . S
C1382 C856 0.408 . S
C1391 C722 0.359 . S
C1393 C896 0.449 . S
C1402 C776 0.510 . S
C1404 C936 0.417 . S
C1413 C971 0.378 . S
C1415 C1127 0.329 . S
C1424 C1167 0.404 . S
C1426 C1011 0.413 . S
C1435 C1051 0.358 . S
C1437 C1207 0.429 . S
C1446 C1247 0.429 . S
C1448 C1087 0.497 . S
C1457 C850 2.342 . S
C1459 C19 2.271 . S
C1468 C890 1.771 . S
C1470 C59 1.731 . S
C1479 C930 2.515 . S
C1481 C99 2.487 . S
C1490 C130 1.644 . S
C1492 C810 1.662 1_556 S
C1501 C170 1.662 . S
C1503 C770 1.645 . S
C1512 C659 2.268 . S
C1514 C210 2.342 . S
C1523 C250 1.779 1_556 S
C1525 C699 1.728 . S
C1534 C290 2.506 . S
C1536 C739 2.494 . S
C1545 C330 2.276 . S
C1547 C1179 2.336 . S
C1556 C1219 1.779 . S
C1558 C370 1.727 . S
C1567 C1259 2.510 . S
C1569 C410 2.492 . S
C1578 C459 1.636 . S
C1580 C1139 1.667 . S
C1589 C499 1.668 . S
C1591 C1099 1.645 . S
C1600 C539 2.334 . S
C1602 C970 2.277 . S
C1611 C579 1.772 . S
C1613 C1010 1.732 . S
C1622 C619 2.516 . S
C1624 C1050 2.487 . S
C1633 C339 1.536 . S
C1635 C10 1.540 . S
C1644 C50 1.466 . S
C1646 C1019 1.452 . S
C1655 C419 1.383 . S
C1657 C90 1.376 . S
C1666 C139 1.399 . S
C1668 C1090 1.405 . S
C1677 C490 1.364 . S
C1679 C179 1.366 . S
C1688 C1170 1.521 . S
C1690 C219 1.526 . S
C1699 C259 1.474 . S
C1701 C570 1.479 . S
C1710 C299 1.366 . S
C1712 C1250 1.353 . S
C1721 C690 1.454 . S
C1723 C379 1.460 . S
C1732 C779 1.395 . S
C1734 C450 1.409 . S
C1743 C530 1.519 . S
C1745 C859 1.528 . S
C1754 C939 1.368 . S
C1756 C610 1.352 . S
C1765 C979 1.532 . S
C1767 C650 1.543 . S
C1776 C1059 1.376 . S
C1778 C730 1.381 . S
C1787 C1130 1.368 . S
C1789 C819 1.363 . S
C1798 C899 1.472 . S
C1800 C1210 1.480 . S
C1809 C11 2.292 1_556 S
C1811 C482 2.373 . S
C1820 C1162 2.047 . S
C1822 C51 1.971 . S
C1831 C562 2.371 . S
C1833 C91 2.281 . S
C1842 C127 1.342 . S
C1844 C1242 1.418 . S
C1853 C336 0.945 . S
C1855 C167 0.923 . S
C1864 C1016 1.102 . S
C1866 C207 1.078 . S
C1875 C416 0.842 . S
C1877 C247 0.836 . S
C1886 C1082 1.713 . S
C1888 C287 1.627 . S
C1897 C171 2.374 . S
C1899 C322 2.290 . S
C1908 C851 2.047 . S
C1910 C362 1.969 . S
C1919 C251 2.370 . S
C1921 C402 2.283 . S
C1930 C456 1.344 . S
C1932 C931 1.418 . S
C1941 C7 0.954 . S
C1943 C496 0.923 . S
C1952 C687 1.097 . S
C1954 C536 1.080 . S
C1963 C576 0.822 1_556 S
C1965 C87 0.839 . S
C1974 C616 1.624 . S
C1976 C771 1.715 . S
C1985 C1122 2.371 . S
C1987 C651 2.293 . S
C1996 C522 2.044 . S
C1998 C691 1.974 . S
C2007 C731 2.282 1_556 S
C2009 C1202 2.368 . S
C2018 C602 1.418 . S
C2020 C767 1.337 . S
C2029 C807 0.921 . S
C2031 C976 0.953 . S
C2040 C847 1.081 . S
C2042 C376 1.096 . S
C2051 C1056 0.838 . S
C2053 C887 0.824 . S
C2062 C442 1.714 . S
C2064 C927 1.625 . S
C2073 C962 2.290 . S
C2075 C811 2.372 . S
C2084 C1002 1.974 . S
C2086 C211 2.045 . S
C2095 C1042 2.285 . S
C2097 C891 2.369 . S
C2106 C1096 1.335 . S
C2108 C291 1.422 . S
C2117 C647 0.950 . S
C2119 C1136 0.920 . S
C2128 C47 1.101 . S
C2130 C1176 1.079 . S
C2139 C1216 0.829 . S
C2141 C727 0.844 . S
C2150 C131 1.718 . S
C2152 C1256 1.623 . S
C2161 C162 2.306 . S
C2163 C16 2.237 . S
C2172 C202 2.200 . S
C2174 C56 2.176 . S
C2183 C96 2.201 . S
C2185 C242 2.256 . S
C2194 C282 3.075 . S
C2196 C122 3.095 . S
C2205 C491 2.305 . S
C2207 C327 2.233 . S
C2216 C367 2.180 . S
C2218 C531 2.203 . S
C2227 C407 2.197 . S
C2229 C571 2.254 . S
C2238 C611 3.076 . S
C2240 C451 3.094 . S
C2249 C656 2.237 . S
C2251 C802 2.305 . S
C2260 C842 2.202 . S
C2262 C696 2.176 . S
C2271 C736 2.199 . S
C2273 C882 2.255 . S
C2282 C762 3.094 . S
C2284 C922 3.078 1_554 S
C2293 C1131 2.306 . S
C2295 C967 2.236 1_554 S
C2304 C1171 2.200 . S
C2306 C1007 2.177 . S
C2315 C1047 2.201 . S
C2317 C1211 2.256 . S
C2326 C1251 3.078 . S
C2328 C1091 3.094 . S
