# Generated by pormake.
# Topology wjf, (4)-cn, num edge types: 1
# Building blocks:
#     Node 0, Type 0, BuildingBlock: ESEHIV_clean_sbu_0, # of connection points: 4
#     Node 1, Type 0, BuildingBlock: ESEHIV_clean_sbu_0, # of connection points: 4
#     Node 2, Type 0, BuildingBlock: ESEHIV_clean_sbu_0, # of connection points: 4
#     Node 3, Type 0, BuildingBlock: ESEHIV_clean_sbu_0, # of connection points: 4
#     Node 4, Type 0, BuildingBlock: ESEHIV_clean_sbu_0, # of connection points: 4
#     Node 5, Type 0, BuildingBlock: ESEHIV_clean_sbu_0, # of connection points: 4
#     Node 6, Type 0, BuildingBlock: ESEHIV_clean_sbu_0, # of connection points: 4
#     Node 7, Type 0, BuildingBlock: ESEHIV_clean_sbu_0, # of connection points: 4
#     Node 8, Type 0, BuildingBlock: ESEHIV_clean_sbu_0, # of connection points: 4
#     Node 9, Type 0, BuildingBlock: ESEHIV_clean_sbu_0, # of connection points: 4
#     Node 10, Type 0, BuildingBlock: ESEHIV_clean_sbu_0, # of connection points: 4
#     Node 11, Type 0, BuildingBlock: ESEHIV_clean_sbu_0, # of connection points: 4
#     Edge 12, Type (0, 0), None
#     Edge 13, Type (0, 0), None
#     Edge 14, Type (0, 0), None
#     Edge 15, Type (0, 0), None
#     Edge 16, Type (0, 0), None
#     Edge 17, Type (0, 0), None
#     Edge 18, Type (0, 0), None
#     Edge 19, Type (0, 0), None
#     Edge 20, Type (0, 0), None
#     Edge 21, Type (0, 0), None
#     Edge 22, Type (0, 0), None
#     Edge 23, Type (0, 0), None
#     Edge 24, Type (0, 0), None
#     Edge 25, Type (0, 0), None
#     Edge 26, Type (0, 0), None
#     Edge 27, Type (0, 0), None
#     Edge 28, Type (0, 0), None
#     Edge 29, Type (0, 0), None
#     Edge 30, Type (0, 0), None
#     Edge 31, Type (0, 0), None
#     Edge 32, Type (0, 0), None
#     Edge 33, Type (0, 0), None
#     Edge 34, Type (0, 0), None
#     Edge 35, Type (0, 0), None
# Relax obj value: 0.126
# Max RMSD: 0.267
# Mean RMSD: 0.267
data_MOF--net-wjf--node1-ESEHIV_clean_sbu_0--edge1-none
_symmetry_space_group_name_H-M    P1
_symmetry_Int_Tables_number       1
_symmetry_cell_setting            triclinic
loop_
_symmetry_equiv_pos_as_xyz
'x, y, z'
_cell_length_a     30.662012
_cell_length_b     30.587411
_cell_length_c     11.705235
_cell_angle_alpha  89.288307
_cell_angle_beta   90.355096
_cell_angle_gamma 119.92081
loop_
_atom_site_label
_atom_site_type_symbol
_atom_site_fract_x
_atom_site_fract_y
_atom_site_fract_z
_atom_type_partial_charge
Cu0 Cu 0.36543 0.40784 1.0677 0.0
N1 N 0.43561 0.4476 1.07103 0.0
N2 N 0.51409 0.50043 0.12752 0.0
C3 C 0.46473 0.48364 0.14609 0.0
C4 C 0.51626 0.47397 1.03898 0.0
C5 C 0.46777 0.44163 1.00375 0.0
O6 O 0.34431 0.36278 0.20188 0.0
C7 C 0.35541 0.34652 0.86965 0.0
O8 O 0.36934 0.32034 0.93463 0.0
H9 H 0.44996 0.49603 0.21432 0.0
H10 H 0.45674 0.4144 0.93612 0.0
N11 N 0.33549 0.44775 0.08197 0.0
N12 N 0.28412 0.47733 1.03742 0.0
C13 C 0.31373 0.4601 0.99672 0.0
C14 C 0.31909 0.45772 0.17944 0.0
C15 C 0.28685 0.47559 0.15211 0.0
C16 C 0.37122 0.34602 0.24647 0.0
O17 O 0.40963 0.3499 0.18882 0.0
H18 H 0.31534 0.45172 0.9078 0.0
H19 H 0.32654 0.44847 0.26415 0.0
O20 O 0.34753 0.37961 0.91443 0.0
H21 H 0.55012 0.47653 1.00495 0.0
H22 H 0.26458 0.48333 0.21117 0.0
Cu23 Cu 0.97728 0.35656 0.38937 0.0
N24 N 1.00844 0.42701 0.39397 0.0
N25 N 1.03582 0.50532 0.45451 0.0
C26 C 1.00226 0.45585 0.47111 0.0
C27 C 0.06441 0.50783 0.36524 0.0
C28 C 0.04716 0.45948 0.32742 0.0
O29 O 0.99984 0.33404 0.5231 0.0
C30 C 1.02929 0.34694 0.19165 0.0
O31 O 0.06908 0.36094 0.25657 0.0
H32 H 0.97502 0.44071 0.53972 0.0
H33 H 0.06318 0.44867 0.25893 0.0
N34 N 0.90765 0.32694 0.40482 0.0
N35 N 0.82695 0.27431 0.36452 0.0
C36 C 0.87348 0.30374 0.32141 0.0
C37 C 0.8816 0.31159 0.50352 0.0
C38 C 0.83166 0.27854 0.47886 0.0
C39 C 0.04329 0.36049 0.56717 0.0
O40 O 0.07829 0.39863 0.50851 0.0
H41 H 0.88326 0.30413 0.23256 0.0
H42 H 0.8985 0.3202 0.5876 0.0
O43 O 0.98825 0.33911 0.23621 0.0
H44 H 0.09655 0.54175 0.33285 0.0
H45 H 0.80195 0.25674 0.53968 0.0
Cu46 Cu 0.64266 0.96735 0.7288 0.0
N47 N 0.60539 1.00076 0.73114 0.0
N48 N 0.55437 0.02906 0.78534 0.0
C49 C 0.56979 0.99531 0.80619 0.0
C50 C 0.58129 0.05703 0.69528 0.0
C51 C 0.61248 0.03924 0.66148 0.0
O52 O 0.68963 0.99088 0.85751 0.0
C53 C 0.70298 1.01553 0.5273 0.0
O54 O 0.73006 0.05507 0.59121 0.0
H55 H 0.55649 0.96808 0.87565 0.0
H56 H 0.63957 0.05442 0.59275 0.0
N57 N 0.60117 0.89847 0.75821 0.0
N58 N 0.57562 0.81633 0.75468 0.0
C59 C 0.59734 0.86015 0.69503 0.0
C60 C 0.58124 0.87791 0.86081 0.0
C61 C 0.56583 0.82712 0.85922 0.0
C62 C 0.70635 0.03412 0.90186 0.0
O63 O 0.7022 0.06913 0.84488 0.0
H64 H 0.61464 0.86514 0.61197 0.0
H65 H 0.58206 0.89924 0.93463 0.0
O66 O 0.66903 0.9749 0.57355 0.0
H67 H 0.57973 0.08887 0.65911 0.0
H68 H 0.55171 0.80097 0.9308 0.0
Cu69 Cu 0.7041 0.62729 0.2529 0.0
N70 N 0.63381 0.58898 0.24825 0.0
N71 N 0.55528 0.53676 0.191 0.0
C72 C 0.60458 0.55309 0.17306 0.0
C73 C 0.55323 0.56336 0.27941 0.0
C74 C 0.60177 0.59534 0.3151 0.0
O75 O 0.7222 0.65437 0.4073 0.0
C76 C 0.70041 0.6908 0.07668 0.0
O77 O 0.66206 0.6872 0.13404 0.0
H78 H 0.61927 0.54028 0.10548 0.0
H79 H 0.61292 0.62243 0.38309 0.0
N80 N 0.73215 0.58582 0.23558 0.0
N81 N 0.78552 0.56177 0.17408 0.0
C82 C 0.76118 0.58711 0.14811 0.0
C83 C 0.73846 0.55871 0.319 0.0
C84 C 0.77194 0.54422 0.28159 0.0
C85 C 0.71499 0.68779 0.45278 0.0
O86 O 0.70175 0.71468 0.38831 0.0
H87 H 0.76822 0.61017 1.07206 0.0
H88 H 0.72311 0.55353 0.40427 0.0
O89 O 0.72679 0.67346 0.12118 0.0
H90 H 0.51941 0.56096 0.31338 0.0
H91 H 0.7876 0.52532 0.3315 0.0
Cu92 Cu 0.10128 0.69496 0.58789 0.0
N93 N 0.06941 0.62447 0.58176 0.0
N94 N 0.0418 0.54618 0.52085 0.0
C95 C 0.0752 0.59566 0.50384 0.0
C96 C 1.01377 0.54359 0.61135 0.0
C97 C 1.03115 0.59195 0.64932 0.0
O98 O 0.0908 0.7119 0.74236 0.0
C99 C 1.03549 0.69272 0.41216 0.0
O100 O 1.00033 0.65451 0.47036 0.0
H101 H 0.10217 0.61082 0.43472 0.0
H102 H 1.0157 0.60269 0.71913 0.0
N103 N 0.17075 0.72375 0.56998 0.0
N104 N 0.24743 0.77816 0.50457 0.0
C105 C 0.19787 0.75213 0.48019 0.0
C106 C 0.20447 0.73215 0.65336 0.0
C107 C 0.25196 0.76624 0.61344 0.0
C108 C 0.04977 0.70422 0.78697 0.0
O109 O 1.01018 0.69089 0.7218 0.0
H110 H 0.18131 0.75764 0.40332 0.0
H111 H 0.19473 0.71796 0.74003 0.0
O112 O 0.07894 0.7187 0.45628 0.0
H113 H 0.98213 0.50958 0.64501 0.0
H114 H 0.28649 0.78351 0.6625 0.0
Cu115 Cu 0.42858 0.095 0.90559 0.0
N116 N 0.4671 0.06293 0.90206 0.0
N117 N 0.51865 0.03528 0.84787 0.0
C118 C 0.50216 0.06811 0.82564 0.0
C119 C 0.49306 1.00833 0.94027 0.0
C120 C 0.46155 0.02569 0.97395 0.0
O121 O 0.40245 0.08625 1.06191 0.0
C122 C 0.36474 0.02757 0.7339 0.0
O123 O 0.36958 0.99294 0.79074 0.0
H124 H 0.51429 0.09442 0.75437 0.0
H125 H 0.43539 1.01111 1.04451 0.0
N126 N 0.46856 0.16418 0.87644 0.0
N127 N 0.49335 0.23681 0.78273 0.0
C128 C 0.47446 0.18664 0.77332 0.0
C129 C 0.4845 0.20159 0.95314 0.0
C130 C 0.49951 0.24656 0.8954 0.0
C131 C 0.36896 0.04521 0.10794 0.0
O132 O 0.34206 1.00581 1.04352 0.0
H133 H 0.46032 0.16605 0.69454 0.0
H134 H 0.48122 0.19592 1.04478 0.0
O135 O 0.38112 0.07077 0.77801 0.0
H136 H 0.49591 0.97757 0.97864 0.0
H137 H 0.51069 0.28277 0.9332 0.0
Cu138 Cu 0.64259 0.68788 0.75042 0.0
N139 N 0.60525 0.6172 0.74812 0.0
N140 N 0.55415 0.53789 0.69393 0.0
C141 C 0.56959 0.58708 0.67315 0.0
C142 C 0.58111 0.53682 0.78386 0.0
C143 C 0.61235 0.58579 0.81766 0.0
O144 O 0.68958 0.71124 0.62174 0.0
C145 C 0.70288 0.69997 0.95196 0.0
O146 O 0.72997 0.68752 0.88809 0.0
H147 H 0.55628 0.60103 0.60377 0.0
H148 H 0.63949 0.59767 0.88628 0.0
N149 N 0.60118 0.71534 0.7209 0.0
N150 N 0.57574 0.77202 0.72414 0.0
C151 C 0.59744 0.74994 0.78393 0.0
C152 C 0.58117 0.71588 0.61834 0.0
C153 C 0.56579 0.75128 0.61976 0.0
C154 C 0.7062 0.68462 0.57741 0.0
O155 O 0.70198 0.64543 0.63437 0.0
H156 H 0.61475 0.76228 0.86696 0.0
H157 H 0.58187 0.69523 0.54464 0.0
O158 O 0.66894 0.70668 0.90571 0.0
H159 H 0.57956 0.5034 0.81992 0.0
H160 H 0.55154 0.76319 0.54821 0.0
Cu161 Cu 0.97731 0.6335 0.08963 0.0
N162 N 1.00843 0.59418 0.08501 0.0
N163 N 1.03575 0.5432 1.02451 0.0
C164 C 1.00217 0.55909 1.008 0.0
C165 C 0.06443 0.56936 0.11359 0.0
C166 C 0.04722 0.60049 0.15139 0.0
O167 O 0.99989 0.67857 0.95587 0.0
C168 C 1.02936 0.69512 0.28734 0.0
O169 O 0.06914 0.72093 0.22243 0.0
H170 H 0.97486 0.54693 0.93953 0.0
H171 H 0.06332 0.62739 0.21973 0.0
N172 N 0.90766 0.59351 0.0742 0.0
N173 N 0.82697 0.56547 0.1143 0.0
C174 C 0.87349 0.58262 0.15753 0.0
C175 C 0.88162 0.58265 0.97546 0.0
C176 C 0.83166 0.56573 1.0 0.0
C177 C 0.04335 0.69557 0.91185 0.0
O178 O 0.07836 0.69245 0.97053 0.0
H179 H 0.88323 0.59205 0.24638 0.0
H180 H 0.89852 0.59077 0.89139 0.0
O181 O 0.98831 0.66191 0.24282 0.0
H182 H 0.0966 0.56761 0.14586 0.0
H183 H 0.80192 0.55761 0.93911 0.0
Cu184 Cu 0.36568 0.97047 0.41136 0.0
N185 N 0.43586 1.00082 0.40796 0.0
N186 N 0.51433 0.02639 0.35148 0.0
C187 C 0.46496 0.99385 0.33295 0.0
C188 C 0.51652 0.05507 0.43994 0.0
C189 C 0.46804 0.03897 0.47515 0.0
O190 O 0.34459 0.99445 0.27722 0.0
C191 C 0.35571 1.02179 0.60944 0.0
O192 O 0.36962 0.06192 0.5445 0.0
H193 H 0.45017 0.96665 0.26478 0.0
H194 H 0.45704 0.05522 0.54273 0.0
N195 N 0.33566 0.9006 0.3971 0.0
N196 N 0.28413 0.81969 0.44154 0.0
C197 C 0.31376 0.8665 0.48232 0.0
C198 C 0.31937 0.87423 0.2996 0.0
C199 C 0.28706 0.82413 0.32686 0.0
C200 C 0.3715 0.03812 0.23268 0.0
O201 O 0.40992 0.07264 0.2903 0.0
H202 H 0.31532 0.87648 0.57123 0.0
H203 H 0.32699 0.89093 0.21488 0.0
O204 O 0.34786 0.98084 0.56467 0.0
H205 H 0.5504 0.08637 0.47393 0.0
H206 H 0.26491 0.7941 0.26774 0.0
Cu207 Cu 0.4283 0.34621 0.57355 0.0
N208 N 0.46681 0.41679 0.57716 0.0
N209 N 0.51839 0.49598 0.6314 0.0
C210 C 0.50189 0.44665 0.65356 0.0
C211 C 0.49278 0.49737 0.53906 0.0
C212 C 0.46125 0.44851 0.50534 0.0
O213 O 0.40217 0.32885 0.41722 0.0
C214 C 0.36441 0.34975 0.74517 0.0
O215 O 0.3692 0.3892 0.68833 0.0
H216 H 0.51403 0.43245 0.72476 0.0
H217 H 0.43509 0.43695 0.43481 0.0
N218 N 0.4683 0.31703 0.60265 0.0
N219 N 0.49316 0.26922 0.69616 0.0
C220 C 0.47418 0.30042 0.70572 0.0
C221 C 0.4844 0.29573 0.52588 0.0
C222 C 0.49949 0.26581 0.58351 0.0
C223 C 0.36868 0.3364 0.3712 0.0
O224 O 0.34177 0.3489 0.43559 0.0
H225 H 0.46001 0.3068 0.78453 0.0
H226 H 0.48123 0.29825 0.43424 0.0
O227 O 0.38084 0.32296 0.70113 0.0
H228 H 0.49565 0.531 0.50075 0.0
H229 H 0.51088 0.24095 0.54565 0.0
Cu230 Cu 0.10116 0.41899 0.89114 0.0
N231 N 0.06924 0.45756 0.89733 0.0
N232 N 0.04166 0.50826 0.95825 0.0
C233 C 0.07511 0.49224 0.97509 0.0
C234 C 1.0135 0.48268 0.86802 0.0
C235 C 1.03085 0.45169 0.83004 0.0
O236 O 0.09071 0.3916 0.73666 0.0
C237 C 1.03539 0.3554 1.06682 0.0
O238 O 1.0002 0.35839 1.00863 0.0
H239 H 0.1022 0.50417 1.04399 0.0
H240 H 1.01531 0.42539 0.76043 0.0
N241 N 0.17062 0.4597 0.90909 0.0
N242 N 0.2473 0.48191 0.97431 0.0
C243 C 0.19775 0.45834 0.99875 0.0
C244 C 0.20433 0.48518 0.8258 0.0
C245 C 0.25185 0.4986 0.86564 0.0
C246 C 0.04971 0.35822 0.69203 0.0
O247 O 1.01011 0.3319 0.75715 0.0
H248 H 0.18121 0.4362 0.07554 0.0
H249 H 0.19459 0.48978 0.73925 0.0
O250 O 0.07885 0.3729 1.02271 0.0
H251 H 0.98178 0.48496 0.83457 0.0
H252 H 0.28639 0.51603 0.81666 0.0
Cu253 Cu 0.70431 0.0894 0.22626 0.0
N254 N 0.63402 0.05742 0.23086 0.0
N255 N 0.5555 0.03118 0.28805 0.0
C256 C 0.6048 0.06415 0.30596 0.0
C257 C 0.55343 1.00247 0.19976 0.0
C258 C 0.60196 1.01899 0.1641 0.0
O259 O 0.72244 0.08039 1.07193 0.0
C260 C 0.70058 1.02223 0.40256 0.0
O261 O 0.66226 0.98745 0.34517 0.0
H262 H 0.61951 0.09169 0.37344 0.0
H263 H 0.6131 1.003 0.09619 0.0
N264 N 0.73233 0.15891 0.24345 0.0
N265 N 0.78568 0.23638 0.30464 0.0
C266 C 0.76145 0.18673 0.33076 0.0
C267 C 0.73845 0.19228 0.16006 0.0
C268 C 0.7719 0.2403 0.19731 0.0
C269 C 0.71516 0.03973 1.02647 0.0
O270 O 0.70183 0.99957 0.09091 0.0
H271 H 0.76857 0.17077 0.40681 0.0
H272 H 0.72295 0.18207 0.07492 0.0
O273 O 0.72697 0.06595 0.3581 0.0
H274 H 0.5196 0.97104 0.16585 0.0
H275 H 0.78736 0.27486 0.14744 0.0
loop_
_geom_bond_atom_site_label_1
_geom_bond_atom_site_label_2
_geom_bond_distance
_geom_bond_site_symmetry_2
_ccdc_geom_bond_type
Cu0 N1 1.999 . S
Cu0 O6 1.974 . S
Cu0 N11 1.985 . S
Cu0 O20 1.959 1_554 S
N1 Cu0 1.999 . S
N1 C3 1.263 . S
N1 C5 1.389 . S
N2 C3 1.358 . S
N2 C4 1.400 . S
C3 N1 1.263 . S
C3 N2 1.358 . S
C3 H9 0.930 . S
C4 N2 1.400 . S
C4 C5 1.351 . S
C4 H21 0.927 1_554 S
C5 N1 1.389 . S
C5 C4 1.351 . S
C5 H10 0.930 1_554 S
O6 Cu0 1.974 . S
O6 C16 1.282 . S
C7 O8 1.261 . S
C7 O20 1.251 . S
O8 C7 1.261 . S
H9 C3 0.930 . S
H10 C5 0.930 1_556 S
N11 Cu0 1.985 . S
N11 C13 1.335 . S
N11 C14 1.390 . S
N12 C13 1.345 . S
N12 C15 1.336 . S
C13 N11 1.335 . S
C13 N12 1.345 . S
C13 H18 0.930 1_554 S
C14 N11 1.390 . S
C14 C15 1.346 . S
C14 H19 0.930 . S
C15 N12 1.336 . S
C15 C14 1.346 . S
C15 H22 0.929 . S
C16 O6 1.282 . S
C16 O17 1.216 . S
O17 C16 1.216 . S
H18 C13 0.930 1_556 S
H19 C14 0.930 . S
O20 Cu0 1.959 1_556 S
O20 C7 1.251 . S
H21 C4 0.927 1_556 S
H22 C15 0.929 . S
Cu23 N24 1.999 . S
Cu23 O29 1.974 . S
Cu23 N34 1.985 . S
Cu23 O43 1.959 . S
N24 Cu23 1.999 . S
N24 C26 1.263 1_655 S
N24 C28 1.389 . S
N25 C26 1.358 . S
N25 C27 1.400 . S
C26 N24 1.263 1_455 S
C26 N25 1.358 . S
C26 H32 0.930 . S
C27 N25 1.400 . S
C27 C28 1.351 1_455 S
C27 H44 0.930 . S
C28 N24 1.389 . S
C28 C27 1.351 1_655 S
C28 H33 0.930 . S
O29 Cu23 1.974 . S
O29 C39 1.282 . S
C30 O31 1.261 1_655 S
C30 O43 1.251 . S
O31 C30 1.261 1_455 S
H32 C26 0.930 . S
H33 C28 0.930 . S
N34 Cu23 1.985 . S
N34 C36 1.335 . S
N34 C37 1.390 . S
N35 C36 1.345 . S
N35 C38 1.336 . S
C36 N34 1.335 . S
C36 N35 1.345 . S
C36 H41 0.930 . S
C37 N34 1.390 . S
C37 C38 1.346 . S
C37 H42 0.930 . S
C38 N35 1.336 . S
C38 C37 1.346 . S
C38 H45 0.929 . S
C39 O29 1.282 . S
C39 O40 1.216 1_655 S
O40 C39 1.216 1_455 S
H41 C36 0.930 . S
H42 C37 0.930 . S
O43 Cu23 1.959 . S
O43 C30 1.251 . S
H44 C27 0.930 . S
H45 C38 0.929 . S
Cu46 N47 1.999 . S
Cu46 O52 1.974 . S
Cu46 N57 1.985 . S
Cu46 O66 1.959 . S
N47 Cu46 1.999 . S
N47 C49 1.263 1_565 S
N47 C51 1.389 . S
N48 C49 1.358 . S
N48 C50 1.400 . S
C49 N47 1.263 1_545 S
C49 N48 1.358 . S
C49 H55 0.930 . S
C50 N48 1.400 . S
C50 C51 1.351 1_545 S
C50 H67 0.930 . S
C51 N47 1.389 . S
C51 C50 1.351 1_565 S
C51 H56 0.930 . S
O52 Cu46 1.974 . S
O52 C62 1.282 . S
C53 O54 1.261 1_565 S
C53 O66 1.251 . S
O54 C53 1.261 1_545 S
H55 C49 0.930 . S
H56 C51 0.930 . S
N57 Cu46 1.985 . S
N57 C59 1.335 . S
N57 C60 1.390 . S
N58 C59 1.345 . S
N58 C61 1.336 . S
C59 N57 1.335 . S
C59 N58 1.345 . S
C59 H64 0.930 . S
C60 N57 1.390 . S
C60 C61 1.346 . S
C60 H65 0.930 . S
C61 N58 1.336 . S
C61 C60 1.346 . S
C61 H68 0.929 . S
C62 O52 1.282 . S
C62 O63 1.216 1_565 S
O63 C62 1.216 1_545 S
H64 C59 0.930 . S
H65 C60 0.930 . S
O66 Cu46 1.959 . S
O66 C53 1.251 . S
H67 C50 0.930 . S
H68 C61 0.929 . S
Cu69 N70 1.999 . S
Cu69 O75 1.974 . S
Cu69 N80 1.985 . S
Cu69 O89 1.959 1_554 S
N70 Cu69 1.999 . S
N70 C72 1.263 . S
N70 C74 1.389 . S
N71 C72 1.358 . S
N71 C73 1.400 . S
C72 N70 1.263 . S
C72 N71 1.358 . S
C72 H78 0.930 . S
C73 N71 1.400 . S
C73 C74 1.351 . S
C73 H90 0.927 1_554 S
C74 N70 1.389 . S
C74 C73 1.351 . S
C74 H79 0.930 1_554 S
O75 Cu69 1.974 . S
O75 C85 1.282 . S
C76 O77 1.261 . S
C76 O89 1.251 . S
O77 C76 1.261 . S
H78 C72 0.930 . S
H79 C74 0.930 1_556 S
N80 Cu69 1.985 . S
N80 C82 1.335 . S
N80 C83 1.390 . S
N81 C82 1.345 . S
N81 C84 1.336 . S
C82 N80 1.335 . S
C82 N81 1.345 . S
C82 H87 0.930 1_554 S
C83 N80 1.390 . S
C83 C84 1.346 . S
C83 H88 0.930 . S
C84 N81 1.336 . S
C84 C83 1.346 . S
C84 H91 0.929 . S
C85 O75 1.282 . S
C85 O86 1.216 . S
O86 C85 1.216 . S
H87 C82 0.930 1_556 S
H88 C83 0.930 . S
O89 Cu69 1.959 1_556 S
O89 C76 1.251 . S
H90 C73 0.927 1_556 S
H91 C84 0.929 . S
Cu92 N93 1.999 . S
Cu92 O98 1.974 . S
Cu92 N103 1.985 . S
Cu92 O112 1.959 . S
N93 Cu92 1.999 . S
N93 C95 1.263 1_455 S
N93 C97 1.389 . S
N94 C95 1.358 . S
N94 C96 1.400 . S
C95 N93 1.263 1_655 S
C95 N94 1.358 . S
C95 H101 0.930 . S
C96 N94 1.400 . S
C96 C97 1.351 1_655 S
C96 H113 0.930 . S
C97 N93 1.389 . S
C97 C96 1.351 1_455 S
C97 H102 0.930 . S
O98 Cu92 1.974 . S
O98 C108 1.282 . S
C99 O100 1.261 1_455 S
C99 O112 1.251 . S
O100 C99 1.261 1_655 S
H101 C95 0.930 . S
H102 C97 0.930 . S
N103 Cu92 1.985 . S
N103 C105 1.335 . S
N103 C106 1.390 . S
N104 C105 1.345 . S
N104 C107 1.336 . S
C105 N103 1.335 . S
C105 N104 1.345 . S
C105 H110 0.930 . S
C106 N103 1.390 . S
C106 C107 1.346 . S
C106 H111 0.930 . S
C107 N104 1.336 . S
C107 C106 1.346 . S
C107 H114 0.929 . S
C108 O98 1.282 . S
C108 O109 1.216 1_455 S
O109 C108 1.216 1_655 S
H110 C105 0.930 . S
H111 C106 0.930 . S
O112 Cu92 1.959 . S
O112 C99 1.251 . S
H113 C96 0.930 . S
H114 C107 0.929 . S
Cu115 N116 1.999 . S
Cu115 O121 1.974 . S
Cu115 N126 1.985 . S
Cu115 O135 1.959 . S
N116 Cu115 1.999 . S
N116 C118 1.263 1_545 S
N116 C120 1.389 . S
N117 C118 1.358 . S
N117 C119 1.400 . S
C118 N116 1.263 1_565 S
C118 N117 1.358 . S
C118 H124 0.930 . S
C119 N117 1.400 . S
C119 C120 1.351 1_565 S
C119 H136 0.930 . S
C120 N116 1.389 . S
C120 C119 1.351 1_545 S
C120 H125 0.930 . S
O121 Cu115 1.974 . S
O121 C131 1.282 . S
C122 O123 1.261 1_545 S
C122 O135 1.251 . S
O123 C122 1.261 1_565 S
H124 C118 0.930 . S
H125 C120 0.930 . S
N126 Cu115 1.985 . S
N126 C128 1.335 . S
N126 C129 1.390 . S
N127 C128 1.345 . S
N127 C130 1.336 . S
C128 N126 1.335 . S
C128 N127 1.345 . S
C128 H133 0.930 . S
C129 N126 1.390 . S
C129 C130 1.346 . S
C129 H134 0.930 . S
C130 N127 1.336 . S
C130 C129 1.346 . S
C130 H137 0.929 . S
C131 O121 1.282 . S
C131 O132 1.216 1_545 S
O132 C131 1.216 1_565 S
H133 C128 0.930 . S
H134 C129 0.930 . S
O135 Cu115 1.959 . S
O135 C122 1.251 . S
H136 C119 0.930 . S
H137 C130 0.929 . S
Cu138 N139 1.999 . S
Cu138 O144 1.974 . S
Cu138 N149 1.985 . S
Cu138 O158 1.959 . S
N139 Cu138 1.999 . S
N139 C141 1.263 . S
N139 C143 1.389 . S
N140 C141 1.358 . S
N140 C142 1.400 . S
C141 N139 1.263 . S
C141 N140 1.358 . S
C141 H147 0.930 . S
C142 N140 1.400 . S
C142 C143 1.351 . S
C142 H159 0.930 . S
C143 N139 1.389 . S
C143 C142 1.351 . S
C143 H148 0.930 . S
O144 Cu138 1.974 . S
O144 C154 1.282 . S
C145 O146 1.261 . S
C145 O158 1.251 . S
O146 C145 1.261 . S
H147 C141 0.930 . S
H148 C143 0.930 . S
N149 Cu138 1.985 . S
N149 C151 1.335 . S
N149 C152 1.390 . S
N150 C151 1.345 . S
N150 C153 1.336 . S
C151 N149 1.335 . S
C151 N150 1.345 . S
C151 H156 0.930 . S
C152 N149 1.390 . S
C152 C153 1.346 . S
C152 H157 0.930 . S
C153 N150 1.336 . S
C153 C152 1.346 . S
C153 H160 0.929 . S
C154 O144 1.282 . S
C154 O155 1.216 . S
O155 C154 1.216 . S
H156 C151 0.930 . S
H157 C152 0.930 . S
O158 Cu138 1.959 . S
O158 C145 1.251 . S
H159 C142 0.930 . S
H160 C153 0.929 . S
Cu161 N162 1.999 . S
Cu161 O167 1.974 . S
Cu161 N172 1.985 . S
Cu161 O181 1.959 1_556 S
N162 Cu161 1.999 . S
N162 C164 1.263 1_655 S
N162 C166 1.389 . S
N163 C164 1.358 . S
N163 C165 1.400 . S
C164 N162 1.263 1_455 S
C164 N163 1.358 . S
C164 H170 0.930 . S
C165 N163 1.400 . S
C165 C166 1.351 1_455 S
C165 H182 0.927 1_556 S
C166 N162 1.389 . S
C166 C165 1.351 1_655 S
C166 H171 0.930 1_556 S
O167 Cu161 1.974 . S
O167 C177 1.282 . S
C168 O169 1.261 1_655 S
C168 O181 1.251 . S
O169 C168 1.261 1_455 S
H170 C164 0.930 . S
H171 C166 0.930 1_554 S
N172 Cu161 1.985 . S
N172 C174 1.335 . S
N172 C175 1.390 . S
N173 C174 1.345 . S
N173 C176 1.336 . S
C174 N172 1.335 . S
C174 N173 1.345 . S
C174 H179 0.930 1_556 S
C175 N172 1.390 . S
C175 C176 1.346 . S
C175 H180 0.930 . S
C176 N173 1.336 . S
C176 C175 1.346 . S
C176 H183 0.929 . S
C177 O167 1.282 . S
C177 O178 1.216 1_655 S
O178 C177 1.216 1_455 S
H179 C174 0.930 1_554 S
H180 C175 0.930 . S
O181 Cu161 1.959 1_554 S
O181 C168 1.251 . S
H182 C165 0.927 1_554 S
H183 C176 0.929 . S
Cu184 N185 1.999 . S
Cu184 O190 1.974 . S
Cu184 N195 1.985 . S
Cu184 O204 1.959 . S
N185 Cu184 1.999 . S
N185 C187 1.263 1_565 S
N185 C189 1.389 . S
N186 C187 1.358 . S
N186 C188 1.400 . S
C187 N185 1.263 1_545 S
C187 N186 1.358 . S
C187 H193 0.930 . S
C188 N186 1.400 . S
C188 C189 1.351 1_545 S
C188 H205 0.930 . S
C189 N185 1.389 . S
C189 C188 1.351 1_565 S
C189 H194 0.930 . S
O190 Cu184 1.974 . S
O190 C200 1.282 . S
C191 O192 1.261 1_565 S
C191 O204 1.251 . S
O192 C191 1.261 1_545 S
H193 C187 0.930 . S
H194 C189 0.930 . S
N195 Cu184 1.985 . S
N195 C197 1.335 . S
N195 C198 1.390 . S
N196 C197 1.345 . S
N196 C199 1.336 . S
C197 N195 1.335 . S
C197 N196 1.345 . S
C197 H202 0.930 . S
C198 N195 1.390 . S
C198 C199 1.346 . S
C198 H203 0.930 . S
C199 N196 1.336 . S
C199 C198 1.346 . S
C199 H206 0.929 . S
C200 O190 1.282 . S
C200 O201 1.216 1_565 S
O201 C200 1.216 1_545 S
H202 C197 0.930 . S
H203 C198 0.930 . S
O204 Cu184 1.959 . S
O204 C191 1.251 . S
H205 C188 0.930 . S
H206 C199 0.929 . S
Cu207 N208 1.999 . S
Cu207 O213 1.974 . S
Cu207 N218 1.985 . S
Cu207 O227 1.959 . S
N208 Cu207 1.999 . S
N208 C210 1.263 . S
N208 C212 1.389 . S
N209 C210 1.358 . S
N209 C211 1.400 . S
C210 N208 1.263 . S
C210 N209 1.358 . S
C210 H216 0.930 . S
C211 N209 1.400 . S
C211 C212 1.351 . S
C211 H228 0.930 . S
C212 N208 1.389 . S
C212 C211 1.351 . S
C212 H217 0.930 . S
O213 Cu207 1.974 . S
O213 C223 1.282 . S
C214 O215 1.261 . S
C214 O227 1.251 . S
O215 C214 1.261 . S
H216 C210 0.930 . S
H217 C212 0.930 . S
N218 Cu207 1.985 . S
N218 C220 1.335 . S
N218 C221 1.390 . S
N219 C220 1.345 . S
N219 C222 1.336 . S
C220 N218 1.335 . S
C220 N219 1.345 . S
C220 H225 0.930 . S
C221 N218 1.390 . S
C221 C222 1.346 . S
C221 H226 0.930 . S
C222 N219 1.336 . S
C222 C221 1.346 . S
C222 H229 0.929 . S
C223 O213 1.282 . S
C223 O224 1.216 . S
O224 C223 1.216 . S
H225 C220 0.930 . S
H226 C221 0.930 . S
O227 Cu207 1.959 . S
O227 C214 1.251 . S
H228 C211 0.930 . S
H229 C222 0.929 . S
Cu230 N231 1.999 . S
Cu230 O236 1.974 . S
Cu230 N241 1.985 . S
Cu230 O250 1.959 1_556 S
N231 Cu230 1.999 . S
N231 C233 1.263 1_455 S
N231 C235 1.389 . S
N232 C233 1.358 . S
N232 C234 1.400 . S
C233 N231 1.263 1_655 S
C233 N232 1.358 . S
C233 H239 0.930 . S
C234 N232 1.400 . S
C234 C235 1.351 1_655 S
C234 H251 0.927 1_556 S
C235 N231 1.389 . S
C235 C234 1.351 1_455 S
C235 H240 0.930 1_556 S
O236 Cu230 1.974 . S
O236 C246 1.282 . S
C237 O238 1.261 1_455 S
C237 O250 1.251 . S
O238 C237 1.261 1_655 S
H239 C233 0.930 . S
H240 C235 0.930 1_554 S
N241 Cu230 1.985 . S
N241 C243 1.335 . S
N241 C244 1.390 . S
N242 C243 1.345 . S
N242 C245 1.336 . S
C243 N241 1.335 . S
C243 N242 1.345 . S
C243 H248 0.930 1_556 S
C244 N241 1.390 . S
C244 C245 1.346 . S
C244 H249 0.930 . S
C245 N242 1.336 . S
C245 C244 1.346 . S
C245 H252 0.929 . S
C246 O236 1.282 . S
C246 O247 1.216 1_455 S
O247 C246 1.216 1_655 S
H248 C243 0.930 1_554 S
H249 C244 0.930 . S
O250 Cu230 1.959 1_554 S
O250 C237 1.251 . S
H251 C234 0.927 1_554 S
H252 C245 0.929 . S
Cu253 N254 1.999 . S
Cu253 O259 1.974 . S
Cu253 N264 1.985 . S
Cu253 O273 1.959 . S
N254 Cu253 1.999 . S
N254 C256 1.263 1_545 S
N254 C258 1.389 . S
N255 C256 1.358 . S
N255 C257 1.400 . S
C256 N254 1.263 1_565 S
C256 N255 1.358 . S
C256 H262 0.930 . S
C257 N255 1.400 . S
C257 C258 1.351 1_565 S
C257 H274 0.930 . S
C258 N254 1.389 . S
C258 C257 1.351 1_545 S
C258 H263 0.930 . S
O259 Cu253 1.974 . S
O259 C269 1.282 . S
C260 O261 1.261 1_545 S
C260 O273 1.251 . S
O261 C260 1.261 1_565 S
H262 C256 0.930 . S
H263 C258 0.930 . S
N264 Cu253 1.985 . S
N264 C266 1.335 . S
N264 C267 1.390 . S
N265 C266 1.345 . S
N265 C268 1.336 . S
C266 N264 1.335 . S
C266 N265 1.345 . S
C266 H271 0.930 . S
C267 N264 1.390 . S
C267 C268 1.346 . S
C267 H272 0.930 . S
C268 N265 1.336 . S
C268 C267 1.346 . S
C268 H275 0.929 . S
C269 O259 1.282 . S
C269 O270 1.216 1_545 S
O270 C269 1.216 1_565 S
H271 C266 0.930 . S
H272 C267 0.930 . S
O273 Cu253 1.959 . S
O273 C260 1.251 . S
H274 C257 0.930 . S
H275 C268 0.929 . S
C16 C223 1.465 . S
C39 C246 1.465 1_655 S
C62 C269 1.465 1_566 S
C85 C154 1.465 . S
C177 C108 1.465 1_655 S
C200 C131 1.465 1_564 S
N242 N12 2.508 1_556 S
N35 N265 2.508 . S
N58 N150 2.508 . S
N81 N173 2.508 1_554 S
N104 N196 2.508 . S
N127 N219 2.508 . S
C214 C7 1.856 . S
C30 C237 1.855 1_655 S
C53 C260 1.855 1_565 S
C145 C76 1.856 . S
C99 C168 1.855 1_455 S
C191 C122 1.855 1_565 S
N2 N71 3.034 . S
N94 N25 3.035 1_655 S
N48 N117 3.034 1_545 S
N140 N209 3.034 . S
N163 N232 3.034 1_455 S
N255 N186 3.035 1_565 S
