# Generated by pormake.
# Topology wje, (4)-cn, num edge types: 1
# Building blocks:
#     Node 0, Type 0, BuildingBlock: TATPOV_clean_sbu_0, # of connection points: 4
#     Node 1, Type 0, BuildingBlock: TATPOV_clean_sbu_0, # of connection points: 4
#     Node 2, Type 0, BuildingBlock: TATPOV_clean_sbu_0, # of connection points: 4
#     Node 3, Type 0, BuildingBlock: TATPOV_clean_sbu_0, # of connection points: 4
#     Node 4, Type 0, BuildingBlock: TATPOV_clean_sbu_0, # of connection points: 4
#     Node 5, Type 0, BuildingBlock: TATPOV_clean_sbu_0, # of connection points: 4
#     Node 6, Type 0, BuildingBlock: TATPOV_clean_sbu_0, # of connection points: 4
#     Node 7, Type 0, BuildingBlock: TATPOV_clean_sbu_0, # of connection points: 4
#     Node 8, Type 0, BuildingBlock: TATPOV_clean_sbu_0, # of connection points: 4
#     Node 9, Type 0, BuildingBlock: TATPOV_clean_sbu_0, # of connection points: 4
#     Node 10, Type 0, BuildingBlock: TATPOV_clean_sbu_0, # of connection points: 4
#     Node 11, Type 0, BuildingBlock: TATPOV_clean_sbu_0, # of connection points: 4
#     Edge 12, Type (0, 0), BuildingBlock: XIVTED_clean_linker_0, # of connection points: 2
#     Edge 13, Type (0, 0), BuildingBlock: XIVTED_clean_linker_0, # of connection points: 2
#     Edge 14, Type (0, 0), BuildingBlock: XIVTED_clean_linker_0, # of connection points: 2
#     Edge 15, Type (0, 0), BuildingBlock: XIVTED_clean_linker_0, # of connection points: 2
#     Edge 16, Type (0, 0), BuildingBlock: XIVTED_clean_linker_0, # of connection points: 2
#     Edge 17, Type (0, 0), BuildingBlock: XIVTED_clean_linker_0, # of connection points: 2
#     Edge 18, Type (0, 0), BuildingBlock: XIVTED_clean_linker_0, # of connection points: 2
#     Edge 19, Type (0, 0), BuildingBlock: XIVTED_clean_linker_0, # of connection points: 2
#     Edge 20, Type (0, 0), BuildingBlock: XIVTED_clean_linker_0, # of connection points: 2
#     Edge 21, Type (0, 0), BuildingBlock: XIVTED_clean_linker_0, # of connection points: 2
#     Edge 22, Type (0, 0), BuildingBlock: XIVTED_clean_linker_0, # of connection points: 2
#     Edge 23, Type (0, 0), BuildingBlock: XIVTED_clean_linker_0, # of connection points: 2
#     Edge 24, Type (0, 0), BuildingBlock: XIVTED_clean_linker_0, # of connection points: 2
#     Edge 25, Type (0, 0), BuildingBlock: XIVTED_clean_linker_0, # of connection points: 2
#     Edge 26, Type (0, 0), BuildingBlock: XIVTED_clean_linker_0, # of connection points: 2
#     Edge 27, Type (0, 0), BuildingBlock: XIVTED_clean_linker_0, # of connection points: 2
#     Edge 28, Type (0, 0), BuildingBlock: XIVTED_clean_linker_0, # of connection points: 2
#     Edge 29, Type (0, 0), BuildingBlock: XIVTED_clean_linker_0, # of connection points: 2
#     Edge 30, Type (0, 0), BuildingBlock: XIVTED_clean_linker_0, # of connection points: 2
#     Edge 31, Type (0, 0), BuildingBlock: XIVTED_clean_linker_0, # of connection points: 2
#     Edge 32, Type (0, 0), BuildingBlock: XIVTED_clean_linker_0, # of connection points: 2
#     Edge 33, Type (0, 0), BuildingBlock: XIVTED_clean_linker_0, # of connection points: 2
#     Edge 34, Type (0, 0), BuildingBlock: XIVTED_clean_linker_0, # of connection points: 2
#     Edge 35, Type (0, 0), BuildingBlock: XIVTED_clean_linker_0, # of connection points: 2
# Relax obj value: 0.110
# Max RMSD: 0.100
# Mean RMSD: 0.100
data_MOF--net-wje--node1-TATPOV_clean_sbu_0--edge1-XIVTED_clean_linker_0
_symmetry_space_group_name_H-M    P1
_symmetry_Int_Tables_number       1
_symmetry_cell_setting            triclinic
loop_
_symmetry_equiv_pos_as_xyz
'x, y, z'
_cell_length_a     42.587505
_cell_length_b     42.569934
_cell_length_c     32.827812
_cell_angle_alpha  89.99994
_cell_angle_beta   89.997916
_cell_angle_gamma 120.00108
loop_
_atom_site_label
_atom_site_type_symbol
_atom_site_fract_x
_atom_site_fract_y
_atom_site_fract_z
_atom_type_partial_charge
Zn0 Zn 0.32329 0.94024 0.28004 0.0
Zn1 Zn 0.33669 0.00605 0.2723 0.0
O2 O 0.28074 0.97159 0.27452 0.0
O3 O 0.27055 0.91613 0.2662 0.0
O4 O 0.34157 0.0534 0.25194 0.0
O5 O 0.35937 0.94274 0.23961 0.0
O6 O 0.37295 0.99962 0.23506 0.0
C7 C 0.25857 0.93771 0.27072 0.0
C8 C 0.35055 0.98673 0.35403 0.0
O9 O 0.35371 0.01241 0.33121 0.0
O10 O 0.33835 0.95505 0.3395 0.0
C11 C 0.3292 0.052 0.21626 0.0
O12 O 0.31479 0.02106 0.19643 0.0
C13 C 0.37907 0.97415 0.22514 0.0
Zn14 Zn 0.38557 0.3204 0.61651 0.0
Zn15 Zn 0.33305 0.33441 0.60906 0.0
O16 O 0.31065 0.27839 0.61021 0.0
O17 O 0.35564 0.26768 0.60239 0.0
O18 O 0.29046 0.34058 0.59249 0.0
O19 O 0.41848 0.35699 0.57592 0.0
O20 O 0.37479 0.36991 0.57037 0.0
C21 C 0.32208 0.25598 0.60641 0.0
C22 C 0.368 0.34809 0.69058 0.0
O23 O 0.34556 0.35145 0.66788 0.0
O24 O 0.38697 0.33533 0.67607 0.0
C25 C 0.28195 0.33756 0.55492 0.0
O26 O 0.30132 0.33115 0.5286 0.0
C27 C 0.4065 0.37623 0.56076 0.0
Zn28 Zn 0.06672 0.38436 0.94439 0.0
Zn29 Zn 1.00149 0.33144 0.93645 0.0
O30 O 0.03666 0.3108 0.93957 0.0
O31 O 0.09184 0.35651 0.93108 0.0
O32 O 0.95452 0.2885 0.91601 0.0
O33 O 0.06387 0.41796 0.90428 0.0
O34 O 0.00744 0.37388 0.89901 0.0
C35 C 0.07064 0.32291 0.93605 0.0
C36 C 0.01991 0.36492 0.018 0.0
O37 O 0.99447 0.3421 0.99516 0.0
O38 O 0.05159 0.38456 0.00362 0.0
C39 C 0.95635 0.27634 0.88118 0.0
O40 O 0.98761 0.29195 0.86197 0.0
C41 C 0.03249 0.40582 0.88953 0.0
Zn42 Zn 0.68132 0.06546 0.28197 0.0
Zn43 Zn 0.6684 0.99915 0.27563 0.0
O44 O 0.72423 0.03342 0.27586 0.0
O45 O 0.73404 0.08879 0.26764 0.0
O46 O 0.66293 0.9507 0.25889 0.0
O47 O 0.64423 0.06079 0.24144 0.0
O48 O 0.63208 0.00432 0.23738 0.0
C49 C 0.74623 0.06731 0.27174 0.0
C50 C 0.65501 0.02095 0.3569 0.0
O51 O 0.65204 0.995 0.33472 0.0
O52 O 0.66689 0.05233 0.34171 0.0
C53 C 0.66678 0.94618 0.22126 0.0
O54 O 0.67353 0.97256 0.19567 0.0
C55 C 0.62516 0.02918 0.22715 0.0
Zn56 Zn 0.61715 0.67975 0.61039 0.0
Zn57 Zn 0.6712 0.66845 0.60183 0.0
O58 O 0.68993 0.72406 0.60327 0.0
O59 O 0.64346 0.73248 0.59597 0.0
O60 O 0.71446 0.66459 0.58103 0.0
O61 O 0.5838 0.64234 0.57106 0.0
O62 O 0.62841 0.63078 0.5655 0.0
C63 C 0.67724 0.74543 0.59977 0.0
C64 C 0.63887 0.65451 0.68414 0.0
O65 O 0.66167 0.65204 0.66111 0.0
O66 O 0.61843 0.66561 0.66975 0.0
C67 C 0.74672 0.69138 0.58199 0.0
O68 O 0.75284 0.72163 0.59959 0.0
C69 C 0.59622 0.62331 0.55642 0.0
Zn70 Zn 0.94045 0.61774 0.94691 0.0
Zn71 Zn 0.00611 0.67043 0.93861 0.0
O72 O 0.97147 0.69166 0.93981 0.0
O73 O 0.91609 0.64606 0.93226 0.0
O74 O 0.0533 0.71293 0.91797 0.0
O75 O 0.94353 0.5837 0.90755 0.0
O76 O 0.99997 0.62765 0.9017 0.0
C77 C 0.93755 0.67974 0.93614 0.0
C78 C 0.98671 0.63807 0.02095 0.0
O79 O 0.01239 0.66038 0.99796 0.0
O80 O 0.95511 0.61832 0.00644 0.0
C81 C 0.05163 0.72345 0.88213 0.0
O82 O 0.02062 0.70644 0.86249 0.0
C83 C 0.97481 0.59566 0.89261 0.0
Zn84 Zn 0.0695 0.68295 0.39761 0.0
Zn85 Zn 0.00325 0.66991 0.40541 0.0
O86 O 0.0389 0.72571 0.40544 0.0
O87 O 0.09423 0.73544 0.41309 0.0
O88 O 0.95529 0.66453 0.42539 0.0
O89 O 0.06555 0.64535 0.43668 0.0
O90 O 0.00897 0.63265 0.44169 0.0
C91 C 0.07278 0.74767 0.40954 0.0
C92 C 0.02365 0.65783 0.32308 0.0
O93 O 0.99781 0.65438 0.34584 0.0
O94 O 0.05512 0.66946 0.33788 0.0
C95 C 0.94879 0.69065 0.42392 0.0
O96 O 0.97235 0.72106 0.40613 0.0
C97 C 0.03406 0.62577 0.45099 0.0
Zn98 Zn 0.38585 0.0658 0.73039 0.0
Zn99 Zn 0.33376 0.99947 0.73872 0.0
O100 O 0.31121 0.03298 0.73753 0.0
O101 O 0.35618 0.08879 0.74472 0.0
O102 O 0.29233 0.95128 0.75857 0.0
O103 O 0.41991 0.06341 0.77033 0.0
O104 O 0.37656 0.00668 0.77612 0.0
C105 C 0.32259 0.06683 0.74107 0.0
C106 C 0.36681 0.0195 0.65657 0.0
O107 O 0.34464 0.99375 0.67956 0.0
O108 O 0.38606 0.05126 0.67094 0.0
C109 C 0.26043 0.93693 0.74402 0.0
O110 O 0.25412 0.95284 0.71334 0.0
C111 C 0.40829 0.03222 0.78542 0.0
Zn112 Zn 0.32565 0.38908 0.06532 0.0
Zn113 Zn 0.3392 0.33675 0.07481 0.0
O114 O 0.28322 0.3148 0.07286 0.0
O115 O 0.27283 0.36014 0.07908 0.0
O116 O 0.34514 0.295 0.09537 0.0
O117 O 0.36197 0.42335 0.10518 0.0
O118 O 0.37512 0.37989 0.11168 0.0
C119 C 0.26096 0.32649 0.0757 0.0
C120 C 0.35311 0.36909 0.99238 0.0
O121 O 0.35619 0.34689 0.01583 0.0
O122 O 0.34082 0.38872 0.00617 0.0
C123 C 0.32784 0.26332 0.08016 0.0
O124 O 0.30654 0.25762 0.04872 0.0
C125 C 0.38149 0.41177 0.12051 0.0
Zn126 Zn 0.93784 0.32089 0.39453 0.0
Zn127 Zn 0.00435 0.33466 0.40095 0.0
O128 O 0.97047 0.27869 0.40115 0.0
O129 O 0.91502 0.26846 0.40986 0.0
O130 O 0.05316 0.3407 0.41708 0.0
O131 O 0.94225 0.35816 0.43454 0.0
O132 O 0.99892 0.37106 0.43899 0.0
C133 C 0.93669 0.25652 0.40581 0.0
C134 C 0.98196 0.34697 0.31944 0.0
O135 O 0.00808 0.35059 0.34177 0.0
O136 O 0.95052 0.33471 0.33456 0.0
C137 C 0.05921 0.33876 0.45473 0.0
O138 O 0.03402 0.33362 0.48133 0.0
C139 C 0.97374 0.3776 0.44892 0.0
Zn140 Zn 0.61683 0.93783 0.73243 0.0
Zn141 Zn 0.66991 0.00337 0.74002 0.0
O142 O 0.69092 0.96849 0.73783 0.0
O143 O 0.64515 0.9132 0.74554 0.0
O144 O 0.71243 0.05101 0.7596 0.0
O145 O 0.58367 0.9409 0.77302 0.0
O146 O 0.62768 0.99743 0.77767 0.0
C147 C 0.67879 0.93448 0.74109 0.0
C148 C 0.63591 0.98406 0.6585 0.0
O149 O 0.65889 0.00958 0.68113 0.0
O150 O 0.61615 0.95249 0.67314 0.0
C151 C 0.74444 0.06364 0.74587 0.0
O152 O 0.75017 0.04627 0.71633 0.0
C153 C 0.5959 0.97236 0.78758 0.0
Zn154 Zn 0.68533 0.61989 0.06125 0.0
Zn155 Zn 0.67189 0.67288 0.06731 0.0
O156 O 0.72781 0.69472 0.06717 0.0
O157 O 0.73782 0.64939 0.07632 0.0
O158 O 0.66607 0.71572 0.08388 0.0
O159 O 0.6482 0.58721 0.10151 0.0
O160 O 0.63555 0.63119 0.1055 0.0
C161 C 0.74988 0.683 0.0719 0.0
C162 C 0.65929 0.63796 0.986 0.0
O163 O 0.65579 0.66063 0.00817 0.0
O164 O 0.67141 0.6187 1.00129 0.0
C165 C 0.66744 0.72288 0.12173 0.0
O166 O 0.67201 0.70212 0.14788 0.0
C167 C 0.62893 0.59951 0.11577 0.0
H168 H 0.35959 0.12186 0.24589 0.0
H169 H 0.29686 0.19314 0.05339 0.0
H170 H 0.30192 0.05561 0.14226 0.0
H171 H 0.36325 0.26353 0.15035 0.0
H172 H 0.29824 0.14247 0.08633 0.0
H173 H 0.36084 0.17405 0.21246 0.0
C174 C 0.34721 0.11826 0.21616 0.0
C175 C 0.33059 0.08423 0.19692 0.0
C176 C 0.31263 0.169 0.1004 0.0
C177 C 0.3319 0.1438 0.15851 0.0
C178 C 0.31186 0.19802 0.08155 0.0
C179 C 0.32994 0.23272 0.09908 0.0
C180 C 0.33147 0.17451 0.13728 0.0
C181 C 0.34894 0.23727 0.13567 0.0
C182 C 0.34798 0.14808 0.19706 0.0
C183 C 0.31504 0.08124 0.15835 0.0
N184 N 0.34909 0.2085 0.15362 0.0
N185 N 0.31602 0.11052 0.14055 0.0
H186 H 0.23213 0.34504 0.60101 0.0
H187 H 0.11488 0.34277 0.40829 0.0
H188 H 0.25923 0.33589 0.47653 0.0
H189 H 0.08166 0.33987 0.53311 0.0
H190 H 0.17004 0.3444 0.43258 0.0
H191 H 0.17897 0.34731 0.5766 0.0
C192 C 0.227 0.34363 0.56856 0.0
C193 C 0.25018 0.34015 0.54083 0.0
C194 C 0.15071 0.34348 0.45465 0.0
C195 C 0.1893 0.34274 0.51262 0.0
C196 C 0.11922 0.34262 0.44078 0.0
C197 C 0.09347 0.34106 0.46866 0.0
C198 C 0.15664 0.34292 0.49672 0.0
C199 C 0.10062 0.34092 0.51044 0.0
C200 C 0.19659 0.34487 0.55462 0.0
C201 C 0.24211 0.33846 0.49909 0.0
N202 N 0.13144 0.3418 0.52316 0.0
N203 N 0.21239 0.33973 0.4863 0.0
H204 H 0.81557 0.09924 0.72195 0.0
H205 H 0.88569 0.23964 0.90873 0.0
H206 H 0.74387 0.10219 0.81287 0.0
H207 H 0.95365 0.24226 0.80971 0.0
H208 H 0.83349 0.18861 0.87547 0.0
H209 H 0.86651 0.15112 0.75478 0.0
C210 C 0.81047 0.11086 0.74875 0.0
C211 C 0.7753 0.09623 0.76462 0.0
C212 C 0.85984 0.20043 0.86104 0.0
C213 C 0.83379 0.15578 0.8027 0.0
C214 C 0.88967 0.22951 0.88006 0.0
C215 C 0.92418 0.24532 0.86204 0.0
C216 C 0.86457 0.18693 0.82383 0.0
C217 C 0.92764 0.23105 0.82481 0.0
C218 C 0.83963 0.14055 0.76754 0.0
C219 C 0.77048 0.11255 0.79949 0.0
N220 N 0.89832 0.20273 0.80706 0.0
N221 N 0.79938 0.14134 0.81743 0.0
H222 H 0.66421 0.7418 0.20061 0.0
H223 H 0.6703 0.92739 0.14238 0.0
H224 H 0.66528 0.77633 0.07675 0.0
H225 H 0.65865 0.88768 0.26562 0.0
H226 H 0.66863 0.87244 0.11787 0.0
H227 H 0.66223 0.79497 0.2249 0.0
C228 C 0.66396 0.76052 0.17845 0.0
C229 C 0.66501 0.75456 0.13651 0.0
C230 C 0.66631 0.87564 0.15027 0.0
C231 C 0.66286 0.8158 0.16428 0.0
C232 C 0.66731 0.90709 0.16435 0.0
C233 C 0.6647 0.91229 0.20621 0.0
C234 C 0.66285 0.8491 0.17818 0.0
C235 C 0.66078 0.8849 0.23311 0.0
C236 C 0.66278 0.79091 0.1924 0.0
C237 C 0.6645 0.77978 0.10934 0.0
N238 N 0.66011 0.85459 0.21866 0.0
N239 N 0.66361 0.80934 0.12369 0.0
H240 H 0.89001 0.63068 0.45765 0.0
H241 H 0.81443 0.74773 0.56545 0.0
H242 H 0.93562 0.7459 0.44013 0.0
H243 H 0.74725 0.63212 0.54857 0.0
H244 H 0.86243 0.74638 0.52648 0.0
H245 H 0.84015 0.62947 0.4967 0.0
C246 C 0.88949 0.65566 0.46181 0.0
C247 C 0.9171 0.68845 0.44553 0.0
C248 C 0.83721 0.72126 0.53129 0.0
C249 C 0.86054 0.68729 0.49063 0.0
C250 C 0.80979 0.72196 0.55379 0.0
C251 C 0.77662 0.68999 0.56029 0.0
C252 C 0.83181 0.6883 0.51539 0.0
C253 C 0.77233 0.65744 0.54422 0.0
C254 C 0.86103 0.65492 0.48408 0.0
C255 C 0.91498 0.71996 0.45194 0.0
N256 N 0.79965 0.6574 0.52258 0.0
N257 N 0.88744 0.71862 0.47418 0.0
H258 H 0.19 0.89736 0.71823 0.0
H259 H 0.12163 0.76365 0.91106 0.0
H260 H 0.2618 0.90159 0.81358 0.0
H261 H 0.05435 0.75372 0.80797 0.0
H262 H 0.17325 0.81471 0.87703 0.0
H263 H 0.13995 0.84505 0.7516 0.0
C264 C 0.19532 0.88723 0.74612 0.0
C265 C 0.23023 0.90401 0.76308 0.0
C266 C 0.14718 0.80126 0.86188 0.0
C267 C 0.17276 0.84399 0.80179 0.0
C268 C 0.11769 0.77215 0.88133 0.0
C269 C 0.08353 0.75433 0.86242 0.0
C270 C 0.14244 0.81274 0.82334 0.0
C271 C 0.08009 0.76655 0.82382 0.0
C272 C 0.16667 0.85729 0.76521 0.0
C273 C 0.23537 0.88954 0.79933 0.0
N274 N 0.10906 0.79494 0.80569 0.0
N275 N 0.20695 0.86049 0.81755 0.0
H276 H 0.39521 0.92629 0.18821 0.0
H277 H 0.56994 0.9619 0.20482 0.0
H278 H 0.44023 0.04026 0.21351 0.0
H279 H 0.6022 0.07541 0.20075 0.0
H280 H 0.5087 0.94654 0.18684 0.0
H281 H 0.45525 0.93764 0.16958 0.0
C282 C 0.41775 0.95386 0.18932 0.0
C283 C 0.41281 0.98221 0.20351 0.0
C284 C 0.52908 0.9749 0.18852 0.0
C285 C 0.48239 0.99533 0.18419 0.0
C286 C 0.56438 0.98368 0.19891 0.0
C287 C 0.59115 0.01997 0.20526 0.0
C288 C 0.52044 0.00268 0.18448 0.0
C289 C 0.5823 0.047 0.19697 0.0
C290 C 0.45234 0.96032 0.17919 0.0
C291 C 0.44282 0.01746 0.20336 0.0
N292 N 0.54761 0.03778 0.18787 0.0
N293 N 0.47641 0.02287 0.19478 0.0
H294 H 0.60721 0.56697 0.53547 0.0
H295 H 0.39571 0.43177 0.53572 0.0
H296 H 0.52706 0.60067 0.53048 0.0
H297 H 0.47579 0.39787 0.53599 0.0
H298 H 0.44297 0.49283 0.51662 0.0
H299 H 0.56006 0.50523 0.51852 0.0
C300 C 0.57992 0.56165 0.52978 0.0
C301 C 0.57096 0.58892 0.53543 0.0
C302 C 0.4501 0.47185 0.52003 0.0
C303 C 0.51666 0.5181 0.51671 0.0
C304 C 0.42302 0.43687 0.53077 0.0
C305 C 0.43191 0.40982 0.53851 0.0
C306 C 0.48635 0.4799 0.51734 0.0
C307 C 0.46776 0.41803 0.53122 0.0
C308 C 0.55291 0.52628 0.52028 0.0
C309 C 0.53513 0.58038 0.52732 0.0
N310 N 0.49377 0.45248 0.5219 0.0
N311 N 0.5092 0.54562 0.51922 0.0
H312 H 0.0414 0.60655 0.86861 0.0
H313 H 0.96555 0.39487 0.86706 0.0
H314 H 0.92756 0.52607 0.86834 0.0
H315 H 0.07938 0.47531 0.86465 0.0
H316 H 0.9511 0.44211 0.85016 0.0
H317 H 0.05555 0.55943 0.84996 0.0
C318 C 0.0193 0.57918 0.86367 0.0
C319 C 0.98328 0.57015 0.87106 0.0
C320 C 0.97929 0.44932 0.85248 0.0
C321 C 0.99932 0.51588 0.85033 0.0
C322 C 0.98757 0.42225 0.86194 0.0
C323 C 0.02371 0.43124 0.86831 0.0
C324 C 0.00733 0.48565 0.84966 0.0
C325 C 0.05107 0.4672 0.8609 0.0
C326 C 0.02741 0.55219 0.85316 0.0
C327 C 0.9558 0.53421 0.86381 0.0
N328 N 0.0423 0.49318 0.85282 0.0
N329 N 0.96442 0.5083 0.85466 0.0
H330 H 0.08142 0.60472 0.47848 0.0
H331 H 0.92629 0.39824 0.47723 0.0
H332 H 0.96708 0.56822 0.47044 0.0
H333 H 0.04065 0.43482 0.46922 0.0
H334 H 0.9409 0.45965 0.49539 0.0
H335 H 0.06677 0.54312 0.49568 0.0
C336 C 0.05318 0.58394 0.48124 0.0
C337 C 0.02543 0.59154 0.47201 0.0
C338 C 0.96283 0.45412 0.49048 0.0
C339 C 0.00852 0.52072 0.49127 0.0
C340 C 0.95452 0.41898 0.48021 0.0
C341 C 0.9823 0.41149 0.47068 0.0
C342 C 0.99916 0.48209 0.49101 0.0
C343 C 0.01834 0.4394 0.47569 0.0
C344 C 0.04485 0.54869 0.49097 0.0
C345 C 0.98938 0.56357 0.47671 0.0
N346 N 0.02573 0.47363 0.48471 0.0
N347 N 0.98197 0.52924 0.48521 0.0
H348 H 0.52783 0.92523 0.81629 0.0
H349 H 0.4769 0.08043 0.81183 0.0
H350 H 0.60585 0.0395 0.80717 0.0
H351 H 0.39885 0.96588 0.80799 0.0
H352 H 0.52384 0.06621 0.8305 0.0
H353 H 0.48116 0.94017 0.83376 0.0
C354 C 0.5354 0.95352 0.81891 0.0
C355 C 0.57069 0.98115 0.80923 0.0
C356 C 0.49631 0.04418 0.8264 0.0
C357 C 0.5171 0.9984 0.82871 0.0
C358 C 0.46939 0.05226 0.81583 0.0
C359 C 0.43398 0.02427 0.80732 0.0
C360 C 0.48788 0.00784 0.82823 0.0
C361 C 0.42586 0.98835 0.81362 0.0
C362 C 0.50864 0.96202 0.82878 0.0
C363 C 0.57893 0.01728 0.81377 0.0
N364 N 0.45276 0.98115 0.82288 0.0
N365 N 0.55216 0.02485 0.82234 0.0
H366 H 0.40225 0.48073 0.146 0.0
H367 H 0.60841 0.53184 0.14548 0.0
H368 H 0.43869 0.40264 0.14243 0.0
H369 H 0.57195 0.60966 0.13578 0.0
H370 H 0.54719 0.48548 0.16479 0.0
H371 H 0.46378 0.52806 0.16277 0.0
C372 C 0.42298 0.47331 0.1497 0.0
C373 C 0.41541 0.43775 0.14177 0.0
C374 C 0.5527 0.51286 0.15925 0.0
C375 C 0.48615 0.49207 0.16047 0.0
C376 C 0.58774 0.53944 0.14831 0.0
C377 C 0.59518 0.57455 0.13798 0.0
C378 C 0.52479 0.52131 0.15962 0.0
C379 C 0.56738 0.58286 0.14284 0.0
C380 C 0.4582 0.50045 0.15916 0.0
C381 C 0.44332 0.42974 0.14765 0.0
N382 N 0.53324 0.55624 0.15249 0.0
N383 N 0.47762 0.45684 0.1558 0.0
H384 H 0.13213 0.80688 0.44147 0.0
H385 H 0.19813 0.87996 0.23846 0.0
H386 H 0.05033 0.77457 0.34835 0.0
H387 H 0.23405 0.95836 0.33575 0.0
H388 H 0.14178 0.84207 0.27599 0.0
H389 H 0.16889 0.86446 0.4056 0.0
C390 C 0.1213 0.81258 0.41438 0.0
C391 C 0.08827 0.78603 0.39777 0.0
C392 C 0.16138 0.86825 0.28836 0.0
C393 C 0.13071 0.85073 0.35577 0.0
C394 C 0.19343 0.88987 0.26689 0.0
C395 C 0.22065 0.92224 0.28407 0.0
C396 C 0.15742 0.87843 0.32788 0.0
C397 C 0.21356 0.93365 0.32138 0.0
C398 C 0.14226 0.84533 0.39387 0.0
C399 C 0.07562 0.79447 0.36223 0.0
N400 N 0.18318 0.9111 0.34284 0.0
N401 N 0.09748 0.82557 0.34151 0.0
H402 H 0.27513 0.23102 0.6699 0.0
H403 H 0.27543 0.04454 0.67778 0.0
H404 H 0.3196 0.19547 0.57433 0.0
H405 H 0.31998 0.12478 0.77313 0.0
H406 H 0.25702 0.08293 0.64106 0.0
H407 H 0.25695 0.17427 0.70663 0.0
C408 C 0.27932 0.21046 0.65558 0.0
C409 C 0.29907 0.21791 0.61913 0.0
C410 C 0.26936 0.09123 0.67088 0.0
C411 C 0.27804 0.15323 0.6607 0.0
C412 C 0.27959 0.06929 0.69206 0.0
C413 C 0.29943 0.08172 0.72844 0.0
C414 C 0.27813 0.12516 0.68689 0.0
C415 C 0.30481 0.11435 0.74514 0.0
C416 C 0.26922 0.17832 0.67676 0.0
C417 C 0.3045 0.1907 0.60238 0.0
N418 N 0.2946 0.13523 0.72396 0.0
N419 N 0.29443 0.15964 0.62357 0.0
H420 H 0.23647 0.2789 0.01278 0.0
H421 H 0.04917 0.27716 1.00067 0.0
H422 H 0.20033 0.32475 0.10619 0.0
H423 H 0.12985 0.32163 0.90579 0.0
H424 H 0.08818 0.26043 0.03883 0.0
H425 H 0.18007 0.26038 0.97517 0.0
C426 C 0.21585 0.28335 0.02645 0.0
C427 C 0.22302 0.30352 0.06255 0.0
C428 C 0.09648 0.2724 0.00884 0.0
C429 C 0.15873 0.28211 0.02001 0.0
C430 C 0.0742 0.28167 0.98686 0.0
C431 C 0.08648 0.30095 0.9501 0.0
C432 C 0.13065 0.28155 0.9933 0.0
C433 C 0.1195 0.30685 0.93403 0.0
C434 C 0.18392 0.27306 0.00476 0.0
C435 C 0.19576 0.30929 0.07844 0.0
N436 N 0.14071 0.29754 0.95598 0.0
N437 N 0.16489 0.29899 0.05681 0.0
H438 H 0.88014 0.19684 0.44088 0.0
H439 H 0.77337 0.04302 0.33106 0.0
H440 H 0.95594 0.2304 0.34114 0.0
H441 H 0.80528 0.12845 0.24243 0.0
H442 H 0.83003 0.08087 0.3682 0.0
H443 H 0.84183 0.13918 0.40587 0.0
C444 C 0.88948 0.19134 0.41251 0.0
C445 C 0.92123 0.21823 0.39393 0.0
C446 C 0.82512 0.09063 0.33978 0.0
C447 C 0.87703 0.15332 0.35303 0.0
C448 C 0.79306 0.06899 0.3183 0.0
C449 C 0.78453 0.0829 0.28387 0.0
C450 C 0.84893 0.12596 0.32613 0.0
C451 C 0.81077 0.11692 0.26903 0.0
C452 C 0.86764 0.15851 0.39249 0.0
C453 C 0.9318 0.21015 0.35664 0.0
N454 N 0.84168 0.13755 0.29057 0.0
N455 N 0.909 0.17896 0.33659 0.0
H456 H 0.67721 0.80463 0.5676 0.0
H457 H 0.72837 0.9587 0.67984 0.0
H458 H 0.72398 0.77178 0.66328 0.0
H459 H 0.67704 0.87296 0.7685 0.0
H460 H 0.74542 0.92059 0.64033 0.0
H461 H 0.69669 0.86188 0.60373 0.0
C462 C 0.69294 0.81018 0.59531 0.0
C463 C 0.69919 0.78365 0.61242 0.0
C464 C 0.73166 0.91081 0.66924 0.0
C465 C 0.7201 0.84806 0.65457 0.0
C466 C 0.72225 0.9326 0.69206 0.0
C467 C 0.70093 0.91871 0.72729 0.0
C468 C 0.72029 0.87537 0.68236 0.0
C469 C 0.69326 0.8845 0.74137 0.0
C470 C 0.70402 0.84277 0.61593 0.0
C471 C 0.71901 0.79178 0.6489 0.0
N472 N 0.70257 0.86375 0.71856 0.0
N473 N 0.72754 0.82271 0.66962 0.0
H474 H 0.80963 0.68598 0.10656 0.0
H475 H 0.96239 0.73146 0.99519 0.0
H476 H 0.77571 0.72788 0.0068 0.0
H477 H 0.87615 0.67754 0.9076 0.0
H478 H 0.92503 0.75072 0.03261 0.0
H479 H 0.86691 0.7047 0.07101 0.0
C480 C 0.81498 0.70062 0.07806 0.0
C481 C 0.78809 0.70557 0.05963 0.0
C482 C 0.91497 0.73585 0.00435 0.0
C483 C 0.85255 0.72553 0.01815 0.0
C484 C 0.93633 0.72516 0.98271 0.0
C485 C 0.92207 0.70251 0.9485 0.0
C486 C 0.87957 0.72438 0.99105 0.0
C487 C 0.88795 0.69472 0.93402 0.0
C488 C 0.8476 0.71125 0.05774 0.0
C489 C 0.79597 0.72393 0.02218 0.0
N490 N 0.86761 0.70528 0.9557 0.0
N491 N 0.82692 0.73196 1.00185 0.0
H492 H 0.3818 0.05106 0.39644 0.0
H493 H 0.33365 0.95512 0.6142 0.0
H494 H 0.33652 0.93568 0.41256 0.0
H495 H 0.40379 0.07047 0.59799 0.0
H496 H 0.33354 0.94724 0.5403 0.0
H497 H 0.38944 0.05887 0.47034 0.0
C498 C 0.37374 0.02742 0.41543 0.0
C499 C 0.35838 0.99267 0.39822 0.0
C500 C 0.3492 0.97423 0.55302 0.0
C501 C 0.36667 1.00135 0.48279 0.0
C502 C 0.34924 0.97873 0.5952 0.0
C503 C 0.36864 0.0135 0.61238 0.0
C504 C 0.36833 0.00475 0.52782 0.0
C505 C 0.38839 0.04313 0.58618 0.0
C506 C 0.37812 0.03189 0.45761 0.0
C507 C 0.34846 0.96301 0.42439 0.0
N508 N 0.38746 0.03812 0.54525 0.0
N509 N 0.35246 0.96799 0.46534 0.0
H510 H 0.38311 0.33422 0.95111 0.0
H511 H 0.33703 0.38172 0.73222 0.0
H512 H 0.34087 0.40669 0.93301 0.0
H513 H 0.40417 0.33326 0.74946 0.0
H514 H 0.33766 0.39072 0.80589 0.0
H515 H 0.39082 0.33304 0.87731 0.0
C516 C 0.37575 0.35011 0.93171 0.0
C517 C 0.36116 0.37043 0.94832 0.0
C518 C 0.35251 0.37841 0.79347 0.0
C519 C 0.36954 0.36891 0.8639 0.0
C520 C 0.35212 0.37323 0.75142 0.0
C521 C 0.37044 0.35658 0.7346 0.0
C522 C 0.37098 0.36646 0.81895 0.0
C523 C 0.38961 0.34619 0.76102 0.0
C524 C 0.38018 0.34945 0.88959 0.0
C525 C 0.35215 0.39055 0.92164 0.0
N526 N 0.3891 0.35098 0.80187 0.0
N527 N 0.35616 0.389 0.8808 0.0
H528 H 0.93009 0.33143 0.26144 0.0
H529 H 0.07032 0.40453 0.07605 0.0
H530 H 0.04585 0.37937 0.27638 0.0
H531 H 0.95568 0.33021 0.06062 0.0
H532 H 0.06108 0.40414 0.14935 0.0
H533 H 0.93867 0.33944 0.18786 0.0
C534 C 0.95738 0.34397 0.24933 0.0
C535 C 0.98732 0.35458 0.2752 0.0
C536 C 0.03793 0.38807 0.12992 0.0
C537 C 0.9972 0.36378 0.19087 0.0
C538 C 0.0431 0.38835 0.08798 0.0
C539 C 0.01373 0.36715 0.06205 0.0
C540 C 0.00309 0.36666 0.14621 0.0
C541 C 0.97913 0.34681 0.07943 0.0
C542 C 0.96218 0.34837 0.20727 0.0
C543 C 0.02199 0.37062 0.25765 0.0
N544 N 0.97478 0.34698 0.12047 0.0
N545 N 0.02596 0.37467 0.21655 0.0
H546 H 0.66933 0.07277 0.41458 0.0
H547 H 0.59661 0.93325 0.60064 0.0
H548 H 0.62323 0.95711 0.4002 0.0
H549 H 0.67045 0.04809 0.61552 0.0
H550 H 0.59724 0.94211 0.52721 0.0
H551 H 0.66097 0.06435 0.48811 0.0
C552 C 0.65712 0.04553 0.42679 0.0
C553 C 0.64714 0.01558 0.4011 0.0
C554 C 0.61314 0.96539 0.54656 0.0
C555 C 0.63752 0.00588 0.48541 0.0
C556 C 0.61272 0.96044 0.58856 0.0
C557 C 0.63372 0.98998 0.61438 0.0
C558 C 0.63448 1.00018 0.5301 0.0
C559 C 0.654 0.02452 0.59681 0.0
C560 C 0.65251 0.04082 0.46884 0.0
C561 C 0.63149 0.98098 0.41881 0.0
N562 N 0.65395 0.02866 0.55572 0.0
N563 N 0.62722 0.97709 0.4599 0.0
H564 H 0.67514 0.60165 0.92826 0.0
H565 H 0.5996 0.66562 0.74235 0.0
H566 H 0.62665 0.66907 0.94262 0.0
H567 H 0.67507 0.6267 0.72703 0.0
H568 H 0.60097 0.65796 0.81576 0.0
H569 H 0.66696 0.60175 0.85466 0.0
C570 C 0.66245 0.61622 0.91602 0.0
C571 C 0.6517 0.63555 0.94173 0.0
C572 C 0.6171 0.65093 0.79634 0.0
C573 C 0.64229 0.63567 0.85737 0.0
C574 C 0.61626 0.65515 0.75433 0.0
C575 C 0.63745 0.64698 0.72837 0.0
C576 C 0.63906 0.63818 0.81269 0.0
C577 C 0.65844 0.6335 0.74584 0.0
C578 C 0.65796 0.61636 0.87395 0.0
C579 C 0.63549 0.65395 0.92401 0.0
N580 N 0.65877 0.62959 0.78695 0.0
N581 N 0.63132 0.65359 0.88291 0.0
H582 H 0.07518 0.6723 0.26507 0.0
H583 H 0.93559 0.60052 0.07917 0.0
H584 H 0.95975 0.62735 0.27979 0.0
H585 H 0.05072 0.67251 0.06402 0.0
H586 H 0.94431 0.60197 0.15267 0.0
H587 H 0.06664 0.66437 0.19156 0.0
C588 C 0.04795 0.66047 0.25293 0.0
C589 C 0.0181 0.6506 0.27875 0.0
C590 C 0.96768 0.61731 0.13327 0.0
C591 C 0.00827 0.64148 0.19437 0.0
C592 C 0.96281 0.61641 0.09121 0.0
C593 C 0.9925 0.6366 0.06526 0.0
C594 C 1.00252 0.63829 0.14967 0.0
C595 C 0.02705 0.65665 0.08281 0.0
C596 C 0.04317 0.65611 0.21088 0.0
C597 C 0.98354 0.63547 0.2611 0.0
N598 N 0.03111 0.65704 0.12395 0.0
N599 N 0.97958 0.6314 0.21998 0.0
loop_
_geom_bond_atom_site_label_1
_geom_bond_atom_site_label_2
_geom_bond_distance
_geom_bond_site_symmetry_2
_ccdc_geom_bond_type
Zn0 O3 2.031 . S
Zn0 O5 2.049 . S
Zn0 O10 2.067 . S
Zn1 O2 1.962 1_545 S
Zn1 O4 1.986 . S
Zn1 O6 1.996 1_545 S
Zn1 O9 1.943 . S
O2 Zn1 1.962 1_565 S
O2 C7 1.254 . S
O3 Zn0 2.031 . S
O3 C7 1.269 . S
O4 Zn1 1.986 . S
O4 C11 1.262 . S
O5 Zn0 2.049 . S
O5 C13 1.260 . S
O6 Zn1 1.996 1_565 S
O6 C13 1.257 . S
C7 O2 1.254 . S
C7 O3 1.269 . S
C8 O9 1.249 . S
C8 O10 1.270 1_545 S
O9 Zn1 1.943 . S
O9 C8 1.249 . S
O10 Zn0 2.067 . S
O10 C8 1.270 1_565 S
C11 O4 1.262 . S
C11 O12 1.232 . S
O12 C11 1.232 . S
C13 O5 1.260 . S
C13 O6 1.257 . S
Zn14 O17 2.031 . S
Zn14 O19 2.049 . S
Zn14 O24 2.067 . S
Zn15 O16 1.962 . S
Zn15 O18 1.986 . S
Zn15 O20 1.996 . S
Zn15 O23 1.943 . S
O16 Zn15 1.962 . S
O16 C21 1.254 . S
O17 Zn14 2.031 . S
O17 C21 1.269 . S
O18 Zn15 1.986 . S
O18 C25 1.262 . S
O19 Zn14 2.049 . S
O19 C27 1.260 . S
O20 Zn15 1.996 . S
O20 C27 1.257 . S
C21 O16 1.254 . S
C21 O17 1.269 . S
C22 O23 1.249 . S
C22 O24 1.270 . S
O23 Zn15 1.943 . S
O23 C22 1.249 . S
O24 Zn14 2.067 . S
O24 C22 1.270 . S
C25 O18 1.262 . S
C25 O26 1.232 . S
O26 C25 1.232 . S
C27 O19 1.260 . S
C27 O20 1.257 . S
Zn28 O31 2.031 . S
Zn28 O33 2.049 . S
Zn28 O38 2.067 1_556 S
Zn29 O30 1.962 1_655 S
Zn29 O32 1.986 . S
Zn29 O34 1.996 1_655 S
Zn29 O37 1.943 1_556 S
O30 Zn29 1.962 1_455 S
O30 C35 1.254 . S
O31 Zn28 2.031 . S
O31 C35 1.269 . S
O32 Zn29 1.986 . S
O32 C39 1.262 . S
O33 Zn28 2.049 . S
O33 C41 1.260 . S
O34 Zn29 1.996 1_455 S
O34 C41 1.257 . S
C35 O30 1.254 . S
C35 O31 1.269 . S
C36 O37 1.249 . S
C36 O38 1.270 1_655 S
O37 Zn29 1.943 1_554 S
O37 C36 1.249 . S
O38 Zn28 2.067 1_554 S
O38 C36 1.270 1_455 S
C39 O32 1.262 . S
C39 O40 1.232 . S
O40 C39 1.232 . S
C41 O33 1.260 . S
C41 O34 1.257 . S
Zn42 O45 2.031 . S
Zn42 O47 2.049 . S
Zn42 O52 2.067 . S
Zn43 O44 1.962 1_565 S
Zn43 O46 1.986 . S
Zn43 O48 1.996 1_565 S
Zn43 O51 1.943 . S
O44 Zn43 1.962 1_545 S
O44 C49 1.254 . S
O45 Zn42 2.031 . S
O45 C49 1.269 . S
O46 Zn43 1.986 . S
O46 C53 1.262 . S
O47 Zn42 2.049 . S
O47 C55 1.260 . S
O48 Zn43 1.996 1_545 S
O48 C55 1.257 . S
C49 O44 1.254 . S
C49 O45 1.269 . S
C50 O51 1.249 . S
C50 O52 1.270 1_565 S
O51 Zn43 1.943 . S
O51 C50 1.249 . S
O52 Zn42 2.067 . S
O52 C50 1.270 1_545 S
C53 O46 1.262 . S
C53 O54 1.232 . S
O54 C53 1.232 . S
C55 O47 1.260 . S
C55 O48 1.257 . S
Zn56 O59 2.031 . S
Zn56 O61 2.049 . S
Zn56 O66 2.067 . S
Zn57 O58 1.962 . S
Zn57 O60 1.986 . S
Zn57 O62 1.996 . S
Zn57 O65 1.943 . S
O58 Zn57 1.962 . S
O58 C63 1.254 . S
O59 Zn56 2.031 . S
O59 C63 1.269 . S
O60 Zn57 1.986 . S
O60 C67 1.262 . S
O61 Zn56 2.049 . S
O61 C69 1.260 . S
O62 Zn57 1.996 . S
O62 C69 1.257 . S
C63 O58 1.254 . S
C63 O59 1.269 . S
C64 O65 1.249 . S
C64 O66 1.270 . S
O65 Zn57 1.943 . S
O65 C64 1.249 . S
O66 Zn56 2.067 . S
O66 C64 1.270 . S
C67 O60 1.262 . S
C67 O68 1.232 . S
O68 C67 1.232 . S
C69 O61 1.260 . S
C69 O62 1.257 . S
Zn70 O73 2.031 . S
Zn70 O75 2.049 . S
Zn70 O80 2.067 1_556 S
Zn71 O72 1.962 1_455 S
Zn71 O74 1.986 . S
Zn71 O76 1.996 1_455 S
Zn71 O79 1.943 1_556 S
O72 Zn71 1.962 1_655 S
O72 C77 1.254 . S
O73 Zn70 2.031 . S
O73 C77 1.269 . S
O74 Zn71 1.986 . S
O74 C81 1.262 . S
O75 Zn70 2.049 . S
O75 C83 1.260 . S
O76 Zn71 1.996 1_655 S
O76 C83 1.257 . S
C77 O72 1.254 . S
C77 O73 1.269 . S
C78 O79 1.249 . S
C78 O80 1.270 1_455 S
O79 Zn71 1.943 1_554 S
O79 C78 1.249 . S
O80 Zn70 2.067 1_554 S
O80 C78 1.270 1_655 S
C81 O74 1.262 . S
C81 O82 1.232 . S
O82 C81 1.232 . S
C83 O75 1.260 . S
C83 O76 1.257 . S
Zn84 O87 2.031 . S
Zn84 O89 2.049 . S
Zn84 O94 2.067 . S
Zn85 O86 1.962 1_655 S
Zn85 O88 1.986 . S
Zn85 O90 1.996 1_655 S
Zn85 O93 1.943 . S
O86 Zn85 1.962 1_455 S
O86 C91 1.254 . S
O87 Zn84 2.031 . S
O87 C91 1.269 . S
O88 Zn85 1.986 . S
O88 C95 1.262 . S
O89 Zn84 2.049 . S
O89 C97 1.260 . S
O90 Zn85 1.996 1_455 S
O90 C97 1.257 . S
C91 O86 1.254 . S
C91 O87 1.269 . S
C92 O93 1.249 . S
C92 O94 1.270 1_655 S
O93 Zn85 1.943 . S
O93 C92 1.249 . S
O94 Zn84 2.067 . S
O94 C92 1.270 1_455 S
C95 O88 1.262 . S
C95 O96 1.232 . S
O96 C95 1.232 . S
C97 O89 1.260 . S
C97 O90 1.257 . S
Zn98 O101 2.031 . S
Zn98 O103 2.049 . S
Zn98 O108 2.067 . S
Zn99 O100 1.962 1_565 S
Zn99 O102 1.986 . S
Zn99 O104 1.996 1_565 S
Zn99 O107 1.943 . S
O100 Zn99 1.962 1_545 S
O100 C105 1.254 . S
O101 Zn98 2.031 . S
O101 C105 1.269 . S
O102 Zn99 1.986 . S
O102 C109 1.262 . S
O103 Zn98 2.049 . S
O103 C111 1.260 . S
O104 Zn99 1.996 1_545 S
O104 C111 1.257 . S
C105 O100 1.254 . S
C105 O101 1.269 . S
C106 O107 1.249 . S
C106 O108 1.270 1_565 S
O107 Zn99 1.943 . S
O107 C106 1.249 . S
O108 Zn98 2.067 . S
O108 C106 1.270 1_545 S
C109 O102 1.262 . S
C109 O110 1.232 . S
O110 C109 1.232 . S
C111 O103 1.260 . S
C111 O104 1.257 . S
Zn112 O115 2.031 . S
Zn112 O117 2.049 . S
Zn112 O122 2.067 1_554 S
Zn113 O114 1.962 . S
Zn113 O116 1.986 . S
Zn113 O118 1.996 . S
Zn113 O121 1.943 1_554 S
O114 Zn113 1.962 . S
O114 C119 1.254 . S
O115 Zn112 2.031 . S
O115 C119 1.269 . S
O116 Zn113 1.986 . S
O116 C123 1.262 . S
O117 Zn112 2.049 . S
O117 C125 1.260 . S
O118 Zn113 1.996 . S
O118 C125 1.257 . S
C119 O114 1.254 . S
C119 O115 1.269 . S
C120 O121 1.249 . S
C120 O122 1.270 . S
O121 Zn113 1.943 1_556 S
O121 C120 1.249 . S
O122 Zn112 2.067 1_556 S
O122 C120 1.270 . S
C123 O116 1.262 . S
C123 O124 1.232 . S
O124 C123 1.232 . S
C125 O117 1.260 . S
C125 O118 1.257 . S
Zn126 O129 2.031 . S
Zn126 O131 2.049 . S
Zn126 O136 2.067 . S
Zn127 O128 1.962 1_455 S
Zn127 O130 1.986 . S
Zn127 O132 1.996 1_455 S
Zn127 O135 1.943 . S
O128 Zn127 1.962 1_655 S
O128 C133 1.254 . S
O129 Zn126 2.031 . S
O129 C133 1.269 . S
O130 Zn127 1.986 . S
O130 C137 1.262 . S
O131 Zn126 2.049 . S
O131 C139 1.260 . S
O132 Zn127 1.996 1_655 S
O132 C139 1.257 . S
C133 O128 1.254 . S
C133 O129 1.269 . S
C134 O135 1.249 . S
C134 O136 1.270 1_455 S
O135 Zn127 1.943 . S
O135 C134 1.249 . S
O136 Zn126 2.067 . S
O136 C134 1.270 1_655 S
C137 O130 1.262 . S
C137 O138 1.232 . S
O138 C137 1.232 . S
C139 O131 1.260 . S
C139 O132 1.257 . S
Zn140 O143 2.031 . S
Zn140 O145 2.049 . S
Zn140 O150 2.067 . S
Zn141 O142 1.962 1_545 S
Zn141 O144 1.986 . S
Zn141 O146 1.996 1_545 S
Zn141 O149 1.943 . S
O142 Zn141 1.962 1_565 S
O142 C147 1.254 . S
O143 Zn140 2.031 . S
O143 C147 1.269 . S
O144 Zn141 1.986 . S
O144 C151 1.262 . S
O145 Zn140 2.049 . S
O145 C153 1.260 . S
O146 Zn141 1.996 1_565 S
O146 C153 1.257 . S
C147 O142 1.254 . S
C147 O143 1.269 . S
C148 O149 1.249 . S
C148 O150 1.270 1_545 S
O149 Zn141 1.943 . S
O149 C148 1.249 . S
O150 Zn140 2.067 . S
O150 C148 1.270 1_565 S
C151 O144 1.262 . S
C151 O152 1.232 . S
O152 C151 1.232 . S
C153 O145 1.260 . S
C153 O146 1.257 . S
Zn154 O157 2.031 . S
Zn154 O159 2.049 . S
Zn154 O164 2.067 1_554 S
Zn155 O156 1.962 . S
Zn155 O158 1.986 . S
Zn155 O160 1.996 . S
Zn155 O163 1.943 1_554 S
O156 Zn155 1.962 . S
O156 C161 1.254 . S
O157 Zn154 2.031 . S
O157 C161 1.269 . S
O158 Zn155 1.986 . S
O158 C165 1.262 . S
O159 Zn154 2.049 . S
O159 C167 1.260 . S
O160 Zn155 1.996 . S
O160 C167 1.257 . S
C161 O156 1.254 . S
C161 O157 1.269 . S
C162 O163 1.249 . S
C162 O164 1.270 . S
O163 Zn155 1.943 1_556 S
O163 C162 1.249 . S
O164 Zn154 2.067 1_556 S
O164 C162 1.270 . S
C165 O158 1.262 . S
C165 O166 1.232 . S
O166 C165 1.232 . S
C167 O159 1.260 . S
C167 O160 1.257 . S
H168 C174 0.930 . S
H169 C178 0.930 . S
H170 C183 0.929 . S
H171 C181 0.929 . S
H172 C176 0.929 . S
H173 C182 0.929 . S
C174 H168 0.930 . S
C174 C175 1.367 . S
C174 C182 1.378 . S
C175 C174 1.367 . S
C175 C183 1.433 . S
C176 H172 0.929 . S
C176 C178 1.378 . S
C176 C180 1.350 . S
C177 C180 1.463 . S
C177 C182 1.350 . S
C177 N185 1.427 . S
C178 H169 0.930 . S
C178 C176 1.378 . S
C178 C179 1.367 . S
C179 C178 1.367 . S
C179 C181 1.433 . S
C180 C176 1.350 . S
C180 C177 1.463 . S
C180 N184 1.427 . S
C181 H171 0.929 . S
C181 C179 1.433 . S
C181 N184 1.384 . S
C182 H173 0.929 . S
C182 C174 1.378 . S
C182 C177 1.350 . S
C183 H170 0.929 . S
C183 C175 1.433 . S
C183 N185 1.384 . S
N184 C180 1.427 . S
N184 C181 1.384 . S
N185 C177 1.427 . S
N185 C183 1.384 . S
H186 C192 0.930 . S
H187 C196 0.930 . S
H188 C201 0.929 . S
H189 C199 0.929 . S
H190 C194 0.929 . S
H191 C200 0.929 . S
C192 H186 0.930 . S
C192 C193 1.367 . S
C192 C200 1.378 . S
C193 C192 1.367 . S
C193 C201 1.433 . S
C194 H190 0.929 . S
C194 C196 1.378 . S
C194 C198 1.350 . S
C195 C198 1.463 . S
C195 C200 1.350 . S
C195 N203 1.427 . S
C196 H187 0.930 . S
C196 C194 1.378 . S
C196 C197 1.367 . S
C197 C196 1.367 . S
C197 C199 1.433 . S
C198 C194 1.350 . S
C198 C195 1.463 . S
C198 N202 1.427 . S
C199 H189 0.929 . S
C199 C197 1.433 . S
C199 N202 1.384 . S
C200 H191 0.929 . S
C200 C192 1.378 . S
C200 C195 1.350 . S
C201 H188 0.929 . S
C201 C193 1.433 . S
C201 N203 1.384 . S
N202 C198 1.427 . S
N202 C199 1.384 . S
N203 C195 1.427 . S
N203 C201 1.384 . S
H204 C210 0.930 . S
H205 C214 0.930 . S
H206 C219 0.929 . S
H207 C217 0.929 . S
H208 C212 0.929 . S
H209 C218 0.929 . S
C210 H204 0.930 . S
C210 C211 1.367 . S
C210 C218 1.378 . S
C211 C210 1.367 . S
C211 C219 1.433 . S
C212 H208 0.929 . S
C212 C214 1.378 . S
C212 C216 1.350 . S
C213 C216 1.463 . S
C213 C218 1.350 . S
C213 N221 1.427 . S
C214 H205 0.930 . S
C214 C212 1.378 . S
C214 C215 1.367 . S
C215 C214 1.367 . S
C215 C217 1.433 . S
C216 C212 1.350 . S
C216 C213 1.463 . S
C216 N220 1.427 . S
C217 H207 0.929 . S
C217 C215 1.433 . S
C217 N220 1.384 . S
C218 H209 0.929 . S
C218 C210 1.378 . S
C218 C213 1.350 . S
C219 H206 0.929 . S
C219 C211 1.433 . S
C219 N221 1.384 . S
N220 C216 1.427 . S
N220 C217 1.384 . S
N221 C213 1.427 . S
N221 C219 1.384 . S
H222 C228 0.930 . S
H223 C232 0.930 . S
H224 C237 0.929 . S
H225 C235 0.929 . S
H226 C230 0.929 . S
H227 C236 0.929 . S
C228 H222 0.930 . S
C228 C229 1.367 . S
C228 C236 1.378 . S
C229 C228 1.367 . S
C229 C237 1.433 . S
C230 H226 0.929 . S
C230 C232 1.378 . S
C230 C234 1.350 . S
C231 C234 1.463 . S
C231 C236 1.350 . S
C231 N239 1.427 . S
C232 H223 0.930 . S
C232 C230 1.378 . S
C232 C233 1.367 . S
C233 C232 1.367 . S
C233 C235 1.433 . S
C234 C230 1.350 . S
C234 C231 1.463 . S
C234 N238 1.427 . S
C235 H225 0.929 . S
C235 C233 1.433 . S
C235 N238 1.384 . S
C236 H227 0.929 . S
C236 C228 1.378 . S
C236 C231 1.350 . S
C237 H224 0.929 . S
C237 C229 1.433 . S
C237 N239 1.384 . S
N238 C234 1.427 . S
N238 C235 1.384 . S
N239 C231 1.427 . S
N239 C237 1.384 . S
H240 C246 0.930 . S
H241 C250 0.930 . S
H242 C255 0.929 . S
H243 C253 0.929 . S
H244 C248 0.929 . S
H245 C254 0.929 . S
C246 H240 0.930 . S
C246 C247 1.367 . S
C246 C254 1.378 . S
C247 C246 1.367 . S
C247 C255 1.433 . S
C248 H244 0.929 . S
C248 C250 1.378 . S
C248 C252 1.350 . S
C249 C252 1.463 . S
C249 C254 1.350 . S
C249 N257 1.427 . S
C250 H241 0.930 . S
C250 C248 1.378 . S
C250 C251 1.367 . S
C251 C250 1.367 . S
C251 C253 1.433 . S
C252 C248 1.350 . S
C252 C249 1.463 . S
C252 N256 1.427 . S
C253 H243 0.929 . S
C253 C251 1.433 . S
C253 N256 1.384 . S
C254 H245 0.929 . S
C254 C246 1.378 . S
C254 C249 1.350 . S
C255 H242 0.929 . S
C255 C247 1.433 . S
C255 N257 1.384 . S
N256 C252 1.427 . S
N256 C253 1.384 . S
N257 C249 1.427 . S
N257 C255 1.384 . S
H258 C264 0.930 . S
H259 C268 0.930 . S
H260 C273 0.929 . S
H261 C271 0.929 . S
H262 C266 0.929 . S
H263 C272 0.929 . S
C264 H258 0.930 . S
C264 C265 1.367 . S
C264 C272 1.378 . S
C265 C264 1.367 . S
C265 C273 1.433 . S
C266 H262 0.929 . S
C266 C268 1.378 . S
C266 C270 1.350 . S
C267 C270 1.463 . S
C267 C272 1.350 . S
C267 N275 1.427 . S
C268 H259 0.930 . S
C268 C266 1.378 . S
C268 C269 1.367 . S
C269 C268 1.367 . S
C269 C271 1.433 . S
C270 C266 1.350 . S
C270 C267 1.463 . S
C270 N274 1.427 . S
C271 H261 0.929 . S
C271 C269 1.433 . S
C271 N274 1.384 . S
C272 H263 0.929 . S
C272 C264 1.378 . S
C272 C267 1.350 . S
C273 H260 0.929 . S
C273 C265 1.433 . S
C273 N275 1.384 . S
N274 C270 1.427 . S
N274 C271 1.384 . S
N275 C267 1.427 . S
N275 C273 1.384 . S
H276 C282 0.927 1_545 S
H277 C286 0.927 1_565 S
H278 C291 0.929 . S
H279 C289 0.929 . S
H280 C284 0.927 . S
H281 C290 0.925 . S
C282 H276 0.927 1_565 S
C282 C283 1.365 . S
C282 C290 1.390 1_565 S
C283 C282 1.365 . S
C283 C291 1.433 . S
C284 H280 0.927 . S
C284 C286 1.390 1_565 S
C284 C288 1.344 1_565 S
C285 C288 1.474 1_565 S
C285 C290 1.344 1_565 S
C285 N293 1.426 . S
C286 H277 0.927 1_545 S
C286 C284 1.390 1_545 S
C286 C287 1.363 . S
C287 C286 1.363 . S
C287 C289 1.433 . S
C288 C284 1.344 1_545 S
C288 C285 1.474 1_545 S
C288 N292 1.424 . S
C289 H279 0.929 . S
C289 C287 1.433 . S
C289 N292 1.384 . S
C290 H281 0.925 . S
C290 C282 1.390 1_545 S
C290 C285 1.344 1_545 S
C291 H278 0.929 . S
C291 C283 1.433 . S
C291 N293 1.384 . S
N292 C288 1.424 . S
N292 C289 1.384 . S
N293 C285 1.426 . S
N293 C291 1.384 . S
H294 C300 0.930 . S
H295 C304 0.930 . S
H296 C309 0.929 . S
H297 C307 0.929 . S
H298 C302 0.929 . S
H299 C308 0.929 . S
C300 H294 0.930 . S
C300 C301 1.367 . S
C300 C308 1.378 . S
C301 C300 1.367 . S
C301 C309 1.433 . S
C302 H298 0.929 . S
C302 C304 1.378 . S
C302 C306 1.350 . S
C303 C306 1.463 . S
C303 C308 1.350 . S
C303 N311 1.427 . S
C304 H295 0.930 . S
C304 C302 1.378 . S
C304 C305 1.367 . S
C305 C304 1.367 . S
C305 C307 1.433 . S
C306 C302 1.350 . S
C306 C303 1.463 . S
C306 N310 1.427 . S
C307 H297 0.929 . S
C307 C305 1.433 . S
C307 N310 1.384 . S
C308 H299 0.929 . S
C308 C300 1.378 . S
C308 C303 1.350 . S
C309 H296 0.929 . S
C309 C301 1.433 . S
C309 N311 1.384 . S
N310 C306 1.427 . S
N310 C307 1.384 . S
N311 C303 1.427 . S
N311 C309 1.384 . S
H312 C318 0.930 . S
H313 C322 0.930 . S
H314 C327 0.929 . S
H315 C325 0.929 . S
H316 C320 0.929 . S
H317 C326 0.929 . S
C318 H312 0.930 . S
C318 C319 1.367 1_455 S
C318 C326 1.378 . S
C319 C318 1.367 1_655 S
C319 C327 1.433 . S
C320 H316 0.929 . S
C320 C322 1.378 . S
C320 C324 1.360 . S
C321 C324 1.487 1_455 S
C321 C326 1.365 . S
C321 N329 1.398 1_455 S
C322 H313 0.930 . S
C322 C320 1.378 . S
C322 C323 1.367 1_655 S
C323 C322 1.367 1_455 S
C323 C325 1.433 . S
C324 C320 1.360 . S
C324 C321 1.487 1_655 S
C324 N328 1.406 1_655 S
C325 H315 0.929 . S
C325 C323 1.433 . S
C325 N328 1.384 . S
C326 H317 0.929 . S
C326 C318 1.378 . S
C326 C321 1.365 . S
C327 H314 0.929 . S
C327 C319 1.433 . S
C327 N329 1.384 . S
N328 C324 1.406 1_455 S
N328 C325 1.384 . S
N329 C321 1.398 1_655 S
N329 C327 1.384 . S
H330 C336 0.930 . S
H331 C340 0.930 . S
H332 C345 0.929 . S
H333 C343 0.929 . S
H334 C338 0.929 . S
H335 C344 0.929 . S
C336 H330 0.930 . S
C336 C337 1.367 . S
C336 C344 1.378 . S
C337 C336 1.367 . S
C337 C345 1.433 1_455 S
C338 H334 0.929 . S
C338 C340 1.378 . S
C338 C342 1.350 . S
C339 C342 1.463 1_455 S
C339 C344 1.350 . S
C339 N347 1.427 1_455 S
C340 H331 0.930 . S
C340 C338 1.378 . S
C340 C341 1.367 . S
C341 C340 1.367 . S
C341 C343 1.433 1_655 S
C342 C338 1.350 . S
C342 C339 1.463 1_655 S
C342 N346 1.427 1_655 S
C343 H333 0.929 . S
C343 C341 1.433 1_455 S
C343 N346 1.384 . S
C344 H335 0.929 . S
C344 C336 1.378 . S
C344 C339 1.350 . S
C345 H332 0.929 . S
C345 C337 1.433 1_655 S
C345 N347 1.384 . S
N346 C342 1.427 1_455 S
N346 C343 1.384 . S
N347 C339 1.427 1_655 S
N347 C345 1.384 . S
H348 C354 0.930 . S
H349 C358 0.930 . S
H350 C363 0.929 . S
H351 C361 0.929 . S
H352 C356 0.929 . S
H353 C362 0.929 . S
C354 H348 0.930 . S
C354 C355 1.367 . S
C354 C362 1.378 . S
C355 C354 1.367 . S
C355 C363 1.433 1_565 S
C356 H352 0.929 . S
C356 C358 1.378 . S
C356 C360 1.350 . S
C357 C360 1.444 1_565 S
C357 C362 1.373 . S
C357 N365 1.422 1_565 S
C358 H349 0.930 . S
C358 C356 1.378 . S
C358 C359 1.367 . S
C359 C358 1.367 . S
C359 C361 1.433 1_545 S
C360 C356 1.350 . S
C360 C357 1.444 1_545 S
C360 N364 1.427 1_545 S
C361 H351 0.929 . S
C361 C359 1.433 1_565 S
C361 N364 1.384 . S
C362 H353 0.929 . S
C362 C354 1.378 . S
C362 C357 1.373 . S
C363 H350 0.929 . S
C363 C355 1.433 1_545 S
C363 N365 1.384 . S
N364 C360 1.427 1_565 S
N364 C361 1.384 . S
N365 C357 1.422 1_545 S
N365 C363 1.384 . S
H366 C372 0.952 . S
H367 C376 0.930 . S
H368 C381 0.929 . S
H369 C379 0.936 . S
H370 C374 0.929 . S
H371 C380 0.951 . S
C372 H366 0.952 . S
C372 C373 1.367 . S
C372 C380 1.378 . S
C373 C372 1.367 . S
C373 C381 1.433 . S
C374 H370 0.929 . S
C374 C376 1.378 . S
C374 C378 1.350 . S
C375 C378 1.463 . S
C375 C380 1.350 . S
C375 N383 1.427 . S
C376 H367 0.930 . S
C376 C374 1.378 . S
C376 C377 1.367 . S
C377 C376 1.367 . S
C377 C379 1.433 . S
C378 C374 1.350 . S
C378 C375 1.463 . S
C378 N382 1.427 . S
C379 H369 0.936 . S
C379 C377 1.433 . S
C379 N382 1.384 . S
C380 H371 0.951 . S
C380 C372 1.378 . S
C380 C375 1.350 . S
C381 H368 0.929 . S
C381 C373 1.433 . S
C381 N383 1.384 . S
N382 C378 1.427 . S
N382 C379 1.384 . S
N383 C375 1.427 . S
N383 C381 1.384 . S
H384 C390 0.930 . S
H385 C394 0.930 . S
H386 C399 0.929 . S
H387 C397 0.929 . S
H388 C392 0.929 . S
H389 C398 0.929 . S
C390 H384 0.930 . S
C390 C391 1.367 . S
C390 C398 1.378 . S
C391 C390 1.367 . S
C391 C399 1.433 . S
C392 H388 0.929 . S
C392 C394 1.378 . S
C392 C396 1.350 . S
C393 C396 1.463 . S
C393 C398 1.350 . S
C393 N401 1.427 . S
C394 H385 0.930 . S
C394 C392 1.378 . S
C394 C395 1.367 . S
C395 C394 1.367 . S
C395 C397 1.433 . S
C396 C392 1.350 . S
C396 C393 1.463 . S
C396 N400 1.427 . S
C397 H387 0.929 . S
C397 C395 1.433 . S
C397 N400 1.384 . S
C398 H389 0.929 . S
C398 C390 1.378 . S
C398 C393 1.350 . S
C399 H386 0.929 . S
C399 C391 1.433 . S
C399 N401 1.384 . S
N400 C396 1.427 . S
N400 C397 1.384 . S
N401 C393 1.427 . S
N401 C399 1.384 . S
H402 C408 0.930 . S
H403 C412 0.930 . S
H404 C417 0.929 . S
H405 C415 0.929 . S
H406 C410 0.929 . S
H407 C416 0.929 . S
C408 H402 0.930 . S
C408 C409 1.367 . S
C408 C416 1.378 . S
C409 C408 1.367 . S
C409 C417 1.433 . S
C410 H406 0.929 . S
C410 C412 1.378 . S
C410 C414 1.350 . S
C411 C414 1.463 . S
C411 C416 1.350 . S
C411 N419 1.427 . S
C412 H403 0.930 . S
C412 C410 1.378 . S
C412 C413 1.367 . S
C413 C412 1.367 . S
C413 C415 1.433 . S
C414 C410 1.350 . S
C414 C411 1.463 . S
C414 N418 1.427 . S
C415 H405 0.929 . S
C415 C413 1.433 . S
C415 N418 1.384 . S
C416 H407 0.929 . S
C416 C408 1.378 . S
C416 C411 1.350 . S
C417 H404 0.929 . S
C417 C409 1.433 . S
C417 N419 1.384 . S
N418 C414 1.427 . S
N418 C415 1.384 . S
N419 C411 1.427 . S
N419 C417 1.384 . S
H420 C426 0.930 . S
H421 C430 0.930 . S
H422 C435 0.929 . S
H423 C433 0.929 . S
H424 C428 0.929 . S
H425 C434 0.929 . S
C426 H420 0.930 . S
C426 C427 1.367 1_556 S
C426 C434 1.378 . S
C427 C426 1.367 1_554 S
C427 C435 1.433 . S
C428 H424 0.929 . S
C428 C430 1.378 . S
C428 C432 1.350 1_554 S
C429 C432 1.463 1_554 S
C429 C434 1.350 1_554 S
C429 N437 1.427 . S
C430 H421 0.930 . S
C430 C428 1.378 . S
C430 C431 1.367 1_554 S
C431 C430 1.367 1_556 S
C431 C433 1.433 . S
C432 C428 1.350 1_556 S
C432 C429 1.463 1_556 S
C432 N436 1.427 . S
C433 H423 0.929 . S
C433 C431 1.433 . S
C433 N436 1.384 . S
C434 H425 0.929 . S
C434 C426 1.378 . S
C434 C429 1.350 1_556 S
C435 H422 0.929 . S
C435 C427 1.433 . S
C435 N437 1.384 . S
N436 C432 1.427 . S
N436 C433 1.384 . S
N437 C429 1.427 . S
N437 C435 1.384 . S
H438 C444 0.930 . S
H439 C448 0.930 . S
H440 C453 0.929 . S
H441 C451 0.929 . S
H442 C446 0.929 . S
H443 C452 0.929 . S
C444 H438 0.930 . S
C444 C445 1.367 . S
C444 C452 1.378 . S
C445 C444 1.367 . S
C445 C453 1.433 . S
C446 H442 0.929 . S
C446 C448 1.378 . S
C446 C450 1.350 . S
C447 C450 1.463 . S
C447 C452 1.350 . S
C447 N455 1.427 . S
C448 H439 0.930 . S
C448 C446 1.378 . S
C448 C449 1.367 . S
C449 C448 1.367 . S
C449 C451 1.433 . S
C450 C446 1.350 . S
C450 C447 1.463 . S
C450 N454 1.427 . S
C451 H441 0.929 . S
C451 C449 1.433 . S
C451 N454 1.384 . S
C452 H443 0.929 . S
C452 C444 1.378 . S
C452 C447 1.350 . S
C453 H440 0.929 . S
C453 C445 1.433 . S
C453 N455 1.384 . S
N454 C450 1.427 . S
N454 C451 1.384 . S
N455 C447 1.427 . S
N455 C453 1.384 . S
H456 C462 0.930 . S
H457 C466 0.930 . S
H458 C471 0.929 . S
H459 C469 0.929 . S
H460 C464 0.929 . S
H461 C470 0.929 . S
C462 H456 0.930 . S
C462 C463 1.367 . S
C462 C470 1.378 . S
C463 C462 1.367 . S
C463 C471 1.433 . S
C464 H460 0.929 . S
C464 C466 1.378 . S
C464 C468 1.350 . S
C465 C468 1.463 . S
C465 C470 1.350 . S
C465 N473 1.427 . S
C466 H457 0.930 . S
C466 C464 1.378 . S
C466 C467 1.367 . S
C467 C466 1.367 . S
C467 C469 1.433 . S
C468 C464 1.350 . S
C468 C465 1.463 . S
C468 N472 1.427 . S
C469 H459 0.929 . S
C469 C467 1.433 . S
C469 N472 1.384 . S
C470 H461 0.929 . S
C470 C462 1.378 . S
C470 C465 1.350 . S
C471 H458 0.929 . S
C471 C463 1.433 . S
C471 N473 1.384 . S
N472 C468 1.427 . S
N472 C469 1.384 . S
N473 C465 1.427 . S
N473 C471 1.384 . S
H474 C480 0.930 1_556 S
H475 C484 0.930 1_554 S
H476 C489 0.929 . S
H477 C487 0.929 . S
H478 C482 0.929 . S
H479 C488 0.929 . S
C480 H474 0.930 1_554 S
C480 C481 1.367 . S
C480 C488 1.378 1_554 S
C481 C480 1.367 . S
C481 C489 1.433 . S
C482 H478 0.929 . S
C482 C484 1.378 1_554 S
C482 C486 1.350 1_554 S
C483 C486 1.463 1_554 S
C483 C488 1.350 1_554 S
C483 N491 1.427 . S
C484 H475 0.930 1_556 S
C484 C482 1.378 1_556 S
C484 C485 1.367 . S
C485 C484 1.367 . S
C485 C487 1.433 . S
C486 C482 1.350 1_556 S
C486 C483 1.463 1_556 S
C486 N490 1.427 . S
C487 H477 0.929 . S
C487 C485 1.433 . S
C487 N490 1.384 . S
C488 H479 0.929 . S
C488 C480 1.378 1_556 S
C488 C483 1.350 1_556 S
C489 H476 0.929 . S
C489 C481 1.433 . S
C489 N491 1.384 . S
N490 C486 1.427 . S
N490 C487 1.384 . S
N491 C483 1.427 . S
N491 C489 1.384 . S
H492 C498 0.930 . S
H493 C502 0.930 . S
H494 C507 0.929 . S
H495 C505 0.929 . S
H496 C500 0.929 . S
H497 C506 0.929 . S
C498 H492 0.930 . S
C498 C499 1.367 . S
C498 C506 1.378 . S
C499 C498 1.367 . S
C499 C507 1.433 1_545 S
C500 H496 0.929 . S
C500 C502 1.378 . S
C500 C504 1.350 . S
C501 C504 1.463 1_545 S
C501 C506 1.350 . S
C501 N509 1.427 1_545 S
C502 H493 0.930 . S
C502 C500 1.378 . S
C502 C503 1.367 . S
C503 C502 1.367 . S
C503 C505 1.433 1_565 S
C504 C500 1.350 . S
C504 C501 1.463 1_565 S
C504 N508 1.427 1_565 S
C505 H495 0.929 . S
C505 C503 1.433 1_545 S
C505 N508 1.384 . S
C506 H497 0.929 . S
C506 C498 1.378 . S
C506 C501 1.350 . S
C507 H494 0.929 . S
C507 C499 1.433 1_565 S
C507 N509 1.384 . S
N508 C504 1.427 1_545 S
N508 C505 1.384 . S
N509 C501 1.427 1_565 S
N509 C507 1.384 . S
H510 C516 0.930 . S
H511 C520 0.930 . S
H512 C525 0.929 . S
H513 C523 0.929 . S
H514 C518 0.929 . S
H515 C524 0.929 . S
C516 H510 0.930 . S
C516 C517 1.367 . S
C516 C524 1.378 . S
C517 C516 1.367 . S
C517 C525 1.433 . S
C518 H514 0.929 . S
C518 C520 1.378 . S
C518 C522 1.350 . S
C519 C522 1.463 . S
C519 C524 1.350 . S
C519 N527 1.427 . S
C520 H511 0.930 . S
C520 C518 1.378 . S
C520 C521 1.367 . S
C521 C520 1.367 . S
C521 C523 1.433 . S
C522 C518 1.350 . S
C522 C519 1.463 . S
C522 N526 1.427 . S
C523 H513 0.929 . S
C523 C521 1.433 . S
C523 N526 1.384 . S
C524 H515 0.929 . S
C524 C516 1.378 . S
C524 C519 1.350 . S
C525 H512 0.929 . S
C525 C517 1.433 . S
C525 N527 1.384 . S
N526 C522 1.427 . S
N526 C523 1.384 . S
N527 C519 1.427 . S
N527 C525 1.384 . S
H528 C534 0.930 . S
H529 C538 0.930 . S
H530 C543 0.929 . S
H531 C541 0.929 . S
H532 C536 0.929 . S
H533 C542 0.929 . S
C534 H528 0.930 . S
C534 C535 1.367 1_655 S
C534 C542 1.378 . S
C535 C534 1.367 1_455 S
C535 C543 1.433 . S
C536 H532 0.929 . S
C536 C538 1.378 . S
C536 C540 1.350 1_455 S
C537 C540 1.463 1_455 S
C537 C542 1.350 1_455 S
C537 N545 1.427 . S
C538 H529 0.930 . S
C538 C536 1.378 . S
C538 C539 1.367 1_455 S
C539 C538 1.367 1_655 S
C539 C541 1.433 . S
C540 C536 1.350 1_655 S
C540 C537 1.463 1_655 S
C540 N544 1.427 . S
C541 H531 0.929 . S
C541 C539 1.433 . S
C541 N544 1.384 . S
C542 H533 0.929 . S
C542 C534 1.378 . S
C542 C537 1.350 1_655 S
C543 H530 0.929 . S
C543 C535 1.433 . S
C543 N545 1.384 . S
N544 C540 1.427 . S
N544 C541 1.384 . S
N545 C537 1.427 . S
N545 C543 1.384 . S
H546 C552 0.930 . S
H547 C556 0.930 . S
H548 C561 0.929 . S
H549 C559 0.929 . S
H550 C554 0.929 . S
H551 C560 0.929 . S
C552 H546 0.930 . S
C552 C553 1.367 1_545 S
C552 C560 1.378 . S
C553 C552 1.367 1_565 S
C553 C561 1.433 . S
C554 H550 0.929 . S
C554 C556 1.378 . S
C554 C558 1.321 1_565 S
C555 C558 1.462 1_565 S
C555 C560 1.350 1_565 S
C555 N563 1.427 . S
C556 H547 0.930 . S
C556 C554 1.378 . S
C556 C557 1.367 1_565 S
C557 C556 1.367 1_545 S
C557 C559 1.433 . S
C558 C554 1.321 1_545 S
C558 C555 1.462 1_545 S
C558 N562 1.460 . S
C559 H549 0.929 . S
C559 C557 1.433 . S
C559 N562 1.384 . S
C560 H551 0.929 . S
C560 C552 1.378 . S
C560 C555 1.350 1_545 S
C561 H548 0.929 . S
C561 C553 1.433 . S
C561 N563 1.384 . S
N562 C558 1.460 . S
N562 C559 1.384 . S
N563 C555 1.427 . S
N563 C561 1.384 . S
H564 C570 0.930 . S
H565 C574 0.930 . S
H566 C579 0.929 . S
H567 C577 0.929 . S
H568 C572 0.929 . S
H569 C578 0.929 . S
C570 H564 0.930 . S
C570 C571 1.367 . S
C570 C578 1.378 . S
C571 C570 1.367 . S
C571 C579 1.433 . S
C572 H568 0.929 . S
C572 C574 1.378 . S
C572 C576 1.350 . S
C573 C576 1.463 . S
C573 C578 1.350 . S
C573 N581 1.427 . S
C574 H565 0.930 . S
C574 C572 1.378 . S
C574 C575 1.367 . S
C575 C574 1.367 . S
C575 C577 1.433 . S
C576 C572 1.350 . S
C576 C573 1.463 . S
C576 N580 1.427 . S
C577 H567 0.929 . S
C577 C575 1.433 . S
C577 N580 1.384 . S
C578 H569 0.929 . S
C578 C570 1.378 . S
C578 C573 1.350 . S
C579 H566 0.929 . S
C579 C571 1.433 . S
C579 N581 1.384 . S
N580 C576 1.427 . S
N580 C577 1.384 . S
N581 C573 1.427 . S
N581 C579 1.384 . S
H582 C588 0.930 . S
H583 C592 0.930 . S
H584 C597 0.929 . S
H585 C595 0.929 . S
H586 C590 0.929 . S
H587 C596 0.929 . S
C588 H582 0.930 . S
C588 C589 1.367 1_455 S
C588 C596 1.378 . S
C589 C588 1.367 1_655 S
C589 C597 1.433 . S
C590 H586 0.929 . S
C590 C592 1.378 . S
C590 C594 1.350 1_655 S
C591 C594 1.463 1_655 S
C591 C596 1.350 1_655 S
C591 N599 1.427 . S
C592 H583 0.930 . S
C592 C590 1.378 . S
C592 C593 1.367 1_655 S
C593 C592 1.367 1_455 S
C593 C595 1.433 . S
C594 C590 1.350 1_455 S
C594 C591 1.463 1_455 S
C594 N598 1.427 . S
C595 H585 0.929 . S
C595 C593 1.433 . S
C595 N598 1.384 . S
C596 H587 0.929 . S
C596 C588 1.378 . S
C596 C591 1.350 1_455 S
C597 H584 0.929 . S
C597 C589 1.433 . S
C597 N599 1.384 . S
N598 C594 1.427 . S
N598 C595 1.384 . S
N599 C591 1.427 . S
N599 C597 1.384 . S
C175 C11 1.693 . S
C179 C123 1.686 . S
C193 C25 1.693 . S
C197 C137 1.687 . S
C211 C151 1.687 . S
C215 C39 1.687 . S
C229 C165 1.691 . S
C233 C53 1.687 . S
C247 C95 1.693 . S
C251 C67 1.686 . S
C265 C109 1.687 . S
C269 C81 1.687 . S
C283 C13 1.352 . S
C287 C55 1.338 . S
C301 C69 1.353 . S
C305 C27 1.339 . S
C319 C83 1.350 . S
C323 C41 1.344 . S
C337 C97 1.334 . S
C341 C139 1.339 . S
C355 C153 1.331 . S
C359 C111 1.337 . S
C373 C125 1.334 . S
C377 C167 1.349 . S
C391 C91 1.097 . S
C395 C7 1.102 . S
C409 C21 1.075 . S
C413 C105 1.080 . S
C427 C119 1.076 . S
C431 C35 1.080 . S
C445 C133 1.092 . S
C449 C49 1.102 . S
C463 C63 1.075 . S
C467 C147 1.081 . S
C481 C161 1.075 . S
C485 C77 1.083 . S
C499 C8 1.030 . S
C503 C106 1.019 . S
C517 C120 1.010 . S
C521 C22 1.029 . S
C535 C134 1.017 . S
C539 C36 1.008 . S
C553 C50 1.008 . S
C557 C148 1.016 . S
C571 C162 1.028 . S
C575 C64 1.010 . S
C589 C92 1.022 . S
C593 C78 1.007 . S
