# Generated by pormake.
# Topology una, (4)-cn, num edge types: 1
# Building blocks:
#     Node 0, Type 0, BuildingBlock: CEKHIL_clean_sbu_0, # of connection points: 4
#     Node 1, Type 0, BuildingBlock: CEKHIL_clean_sbu_0, # of connection points: 4
#     Node 2, Type 0, BuildingBlock: CEKHIL_clean_sbu_0, # of connection points: 4
#     Node 3, Type 0, BuildingBlock: CEKHIL_clean_sbu_0, # of connection points: 4
#     Node 4, Type 0, BuildingBlock: CEKHIL_clean_sbu_0, # of connection points: 4
#     Node 5, Type 0, BuildingBlock: CEKHIL_clean_sbu_0, # of connection points: 4
#     Node 6, Type 0, BuildingBlock: CEKHIL_clean_sbu_0, # of connection points: 4
#     Node 7, Type 0, BuildingBlock: CEKHIL_clean_sbu_0, # of connection points: 4
#     Node 8, Type 0, BuildingBlock: CEKHIL_clean_sbu_0, # of connection points: 4
#     Node 9, Type 0, BuildingBlock: CEKHIL_clean_sbu_0, # of connection points: 4
#     Node 10, Type 0, BuildingBlock: CEKHIL_clean_sbu_0, # of connection points: 4
#     Node 11, Type 0, BuildingBlock: CEKHIL_clean_sbu_0, # of connection points: 4
#     Edge 12, Type (0, 0), BuildingBlock: MIFKUJ_clean_linker_0, # of connection points: 2
#     Edge 13, Type (0, 0), BuildingBlock: MIFKUJ_clean_linker_0, # of connection points: 2
#     Edge 14, Type (0, 0), BuildingBlock: MIFKUJ_clean_linker_0, # of connection points: 2
#     Edge 15, Type (0, 0), BuildingBlock: MIFKUJ_clean_linker_0, # of connection points: 2
#     Edge 16, Type (0, 0), BuildingBlock: MIFKUJ_clean_linker_0, # of connection points: 2
#     Edge 17, Type (0, 0), BuildingBlock: MIFKUJ_clean_linker_0, # of connection points: 2
#     Edge 18, Type (0, 0), BuildingBlock: MIFKUJ_clean_linker_0, # of connection points: 2
#     Edge 19, Type (0, 0), BuildingBlock: MIFKUJ_clean_linker_0, # of connection points: 2
#     Edge 20, Type (0, 0), BuildingBlock: MIFKUJ_clean_linker_0, # of connection points: 2
#     Edge 21, Type (0, 0), BuildingBlock: MIFKUJ_clean_linker_0, # of connection points: 2
#     Edge 22, Type (0, 0), BuildingBlock: MIFKUJ_clean_linker_0, # of connection points: 2
#     Edge 23, Type (0, 0), BuildingBlock: MIFKUJ_clean_linker_0, # of connection points: 2
#     Edge 24, Type (0, 0), BuildingBlock: MIFKUJ_clean_linker_0, # of connection points: 2
#     Edge 25, Type (0, 0), BuildingBlock: MIFKUJ_clean_linker_0, # of connection points: 2
#     Edge 26, Type (0, 0), BuildingBlock: MIFKUJ_clean_linker_0, # of connection points: 2
#     Edge 27, Type (0, 0), BuildingBlock: MIFKUJ_clean_linker_0, # of connection points: 2
#     Edge 28, Type (0, 0), BuildingBlock: MIFKUJ_clean_linker_0, # of connection points: 2
#     Edge 29, Type (0, 0), BuildingBlock: MIFKUJ_clean_linker_0, # of connection points: 2
#     Edge 30, Type (0, 0), BuildingBlock: MIFKUJ_clean_linker_0, # of connection points: 2
#     Edge 31, Type (0, 0), BuildingBlock: MIFKUJ_clean_linker_0, # of connection points: 2
#     Edge 32, Type (0, 0), BuildingBlock: MIFKUJ_clean_linker_0, # of connection points: 2
#     Edge 33, Type (0, 0), BuildingBlock: MIFKUJ_clean_linker_0, # of connection points: 2
#     Edge 34, Type (0, 0), BuildingBlock: MIFKUJ_clean_linker_0, # of connection points: 2
#     Edge 35, Type (0, 0), BuildingBlock: MIFKUJ_clean_linker_0, # of connection points: 2
# Relax obj value: 0.022
# Max RMSD: 0.037
# Mean RMSD: 0.037
data_MOF--net-una--node1-CEKHIL_clean_sbu_0--edge1-MIFKUJ_clean_linker_0
_symmetry_space_group_name_H-M    P1
_symmetry_Int_Tables_number       1
_symmetry_cell_setting            triclinic
loop_
_symmetry_equiv_pos_as_xyz
'x, y, z'
_cell_length_a     74.744116
_cell_length_b     74.754956
_cell_length_c     28.522064
_cell_angle_alpha  90.011373
_cell_angle_beta   90.0023
_cell_angle_gamma 120.02975
loop_
_atom_site_label
_atom_site_type_symbol
_atom_site_fract_x
_atom_site_fract_y
_atom_site_fract_z
_atom_type_partial_charge
Co0 Co 0.13039 0.43696 0.02759 0.0
O1 O 0.11207 0.4368 0.98 0.0
O2 O 0.10156 0.41855 0.04529 0.0
C3 C 0.15107 0.43274 0.97654 0.0
O4 O 0.14565 0.43314 0.08374 0.0
Co5 Co 0.17663 0.47134 0.02612 0.0
O6 O 0.17972 0.45196 0.06803 0.0
C7 C 0.1448 0.48101 0.05928 0.0
C8 C 0.09682 0.42346 0.00516 0.0
C9 C 0.16469 0.43835 0.09204 0.0
O10 O 0.13089 0.46168 0.05823 0.0
O11 O 0.16334 0.48785 0.04482 0.0
O12 O 0.13425 0.41686 0.9917 0.0
O13 O 0.15402 0.45049 0.99002 0.0
Co14 Co 0.69612 0.13223 0.18824 0.0
O15 O 0.68186 0.11431 0.13651 0.0
O16 O 0.68582 0.10326 0.20528 0.0
C17 C 0.72329 0.15464 0.14409 0.0
O18 O 0.71147 0.14752 0.24865 0.0
Co19 Co 0.7042 0.17731 0.18293 0.0
O20 O 0.72166 0.18125 0.23841 0.0
C21 C 0.66222 0.14286 0.20218 0.0
C22 C 0.67907 0.09891 0.16225 0.0
C23 C 0.72143 0.16665 0.26208 0.0
O24 O 0.66945 0.13065 0.20973 0.0
O25 O 0.6733 0.16128 0.18651 0.0
O26 O 0.72261 0.13817 0.16091 0.0
O27 O 0.70708 0.15608 0.15166 0.0
Co28 Co 0.5647 0.69207 0.36171 0.0
O29 O 0.56735 0.67451 0.31624 0.0
O30 O 0.58425 0.68372 0.38355 0.0
C31 C 0.56819 0.71608 0.30864 0.0
O32 O 0.56582 0.71094 0.41637 0.0
Co33 Co 0.52758 0.6998 0.35159 0.0
O34 O 0.54269 0.72102 0.39981 0.0
C35 C 0.52065 0.6599 0.38894 0.0
C36 C 0.58069 0.67384 0.34388 0.0
C37 C 0.55712 0.72185 0.42522 0.0
O38 O 0.5403 0.66682 0.39077 0.0
O39 O 0.51277 0.67016 0.37136 0.0
O40 O 0.58441 0.71656 0.32642 0.0
O41 O 0.55074 0.70042 0.32067 0.0
Co42 Co 0.87113 0.56424 0.5243 0.0
O43 O 0.88873 0.56524 0.47417 0.0
O44 O 0.90029 0.58294 0.53981 0.0
C45 C 0.84937 0.56812 0.47612 0.0
O46 O 0.85638 0.56732 0.58259 0.0
Co47 Co 0.82542 0.52893 0.52507 0.0
O48 O 0.82227 0.54797 0.56797 0.0
C49 C 0.85832 0.52031 0.55456 0.0
C50 C 0.90438 0.5786 0.49825 0.0
C51 C 0.8373 0.56176 0.59169 0.0
O52 O 0.87185 0.53972 0.55253 0.0
O53 O 0.83945 0.51296 0.54217 0.0
O54 O 0.86609 0.58417 0.49117 0.0
O55 O 0.84708 0.55046 0.48813 0.0
Co56 Co 0.30979 0.87262 0.69526 0.0
O57 O 0.32436 0.89078 0.64397 0.0
O58 O 0.31891 0.90135 0.71202 0.0
C59 C 0.28361 0.84965 0.64964 0.0
O60 O 0.29376 0.85725 0.75504 0.0
Co61 Co 0.30294 0.82806 0.69322 0.0
O62 O 0.28401 0.8236 0.74582 0.0
C63 C 0.34359 0.86269 0.72144 0.0
C64 C 0.32621 0.9059 0.66948 0.0
C65 C 0.28372 0.83813 0.7685 0.0
O66 O 0.33655 0.87529 0.71972 0.0
O67 O 0.33299 0.84366 0.70959 0.0
O68 O 0.28357 0.86588 0.66571 0.0
O69 O 0.29999 0.84866 0.65883 0.0
Co70 Co 0.44001 0.30953 0.85965 0.0
O71 O 0.44 0.32724 0.81083 0.0
O72 O 0.42034 0.31883 0.87388 0.0
C73 C 0.43805 0.28526 0.80956 0.0
O74 O 0.43562 0.29049 0.91639 0.0
Co75 Co 0.47563 0.29971 0.86465 0.0
O76 O 0.45546 0.27619 0.90302 0.0
C77 C 0.48271 0.34032 0.89742 0.0
C78 C 0.42576 0.32849 0.8338 0.0
C79 C 0.44099 0.27681 0.92516 0.0
O80 O 0.46341 0.33438 0.89196 0.0
O81 O 0.49066 0.32917 0.88635 0.0
O82 O 0.42144 0.28528 0.8227 0.0
O83 O 0.45523 0.30051 0.8246 0.0
Co84 Co 0.56292 0.86868 0.89568 0.0
O85 O 0.56511 0.88577 0.94811 0.0
O86 O 0.58278 0.89779 0.8826 0.0
C87 C 0.56525 0.8449 0.94011 0.0
O88 O 0.56496 0.85461 0.83514 0.0
Co89 Co 0.5253 0.82418 0.89184 0.0
O90 O 0.54003 0.82101 0.83774 0.0
C91 C 0.51946 0.85968 0.87319 0.0
C92 C 0.57883 0.90152 0.92488 0.0
C93 C 0.55577 0.836 0.81842 0.0
O94 O 0.5392 0.8716 0.86984 0.0
O95 O 0.5111 0.8408 0.8863 0.0
O96 O 0.58184 0.86142 0.92629 0.0
O97 O 0.54808 0.84405 0.92943 0.0
Co98 Co 0.69454 0.56494 0.05986 0.0
O99 O 0.67666 0.56585 0.10716 0.0
O100 O 0.68434 0.58339 0.04086 0.0
C101 C 0.71954 0.56952 0.11088 0.0
O102 O 0.71352 0.56795 0.00387 0.0
Co103 Co 0.7055 0.52995 0.06433 0.0
O104 O 0.7279 0.54847 0.02125 0.0
C105 C 0.6637 0.52048 0.0346 0.0
C106 C 0.6748 0.57898 0.08112 0.0
C107 C 0.72702 0.5622 0.99648 0.0
O108 O 0.66992 0.53993 0.03103 0.0
O109 O 0.67514 0.51362 0.05066 0.0
O110 O 0.71873 0.58532 0.09471 0.0
O111 O 0.70453 0.55169 0.09849 0.0
Co112 Co 0.13461 0.69436 0.23184 0.0
O113 O 0.11761 0.6792 0.28418 0.0
O114 O 0.10526 0.68324 0.21733 0.0
C115 C 0.15689 0.72146 0.27646 0.0
O116 O 0.1485 0.71043 0.171 0.0
Co117 Co 0.18051 0.70489 0.23121 0.0
O118 O 0.18277 0.72232 0.17707 0.0
C119 C 0.14732 0.66246 0.2086 0.0
C120 C 0.10167 0.67607 0.26008 0.0
C121 C 0.16729 0.72122 0.15568 0.0
O122 O 0.13379 0.66836 0.2078 0.0
O123 O 0.16615 0.67434 0.22083 0.0
O124 O 0.13993 0.72024 0.26132 0.0
O125 O 0.15908 0.70584 0.26665 0.0
Co126 Co 0.43958 0.13221 0.39159 0.0
O127 O 0.43988 0.11484 0.44094 0.0
O128 O 0.42014 0.10307 0.37812 0.0
C129 C 0.43745 0.15465 0.44099 0.0
O130 O 0.43489 0.14644 0.33436 0.0
Co131 Co 0.47484 0.17782 0.38523 0.0
O132 O 0.45437 0.18067 0.34697 0.0
C133 C 0.48207 0.14451 0.35175 0.0
C134 C 0.42572 0.09912 0.41834 0.0
C135 C 0.44002 0.16538 0.325 0.0
O136 O 0.46302 0.13087 0.35928 0.0
O137 O 0.48986 0.16372 0.36142 0.0
O138 O 0.42092 0.1378 0.42837 0.0
O139 O 0.45468 0.15672 0.42592 0.0
Co140 Co 0.30779 0.43685 0.56109 0.0
O141 O 0.32413 0.4334 0.6084 0.0
O142 O 0.31652 0.41751 0.53979 0.0
C143 C 0.2831 0.43317 0.61216 0.0
O144 O 0.28984 0.43605 0.50501 0.0
Co145 Co 0.29945 0.47348 0.56853 0.0
O146 O 0.27665 0.45627 0.52488 0.0
C147 C 0.34016 0.48097 0.53499 0.0
C148 C 0.32519 0.42025 0.58083 0.0
C149 C 0.27694 0.44262 0.49865 0.0
O150 O 0.33351 0.46137 0.53404 0.0
O151 O 0.32936 0.48865 0.55051 0.0
O152 O 0.28265 0.41701 0.5941 0.0
O153 O 0.29894 0.45068 0.60115 0.0
Co154 Co 0.87273 0.30965 0.72549 0.0
O155 O 0.89217 0.32678 0.77271 0.0
O156 O 0.90105 0.31938 0.70464 0.0
C157 C 0.85225 0.28436 0.77618 0.0
O158 O 0.85609 0.29158 0.66896 0.0
Co159 Co 0.82719 0.29995 0.73411 0.0
O160 O 0.8224 0.28107 0.68116 0.0
C161 C 0.85982 0.3414 0.70346 0.0
C162 C 0.90671 0.32856 0.74521 0.0
C163 C 0.83677 0.28097 0.65732 0.0
O164 O 0.87283 0.33493 0.69902 0.0
O165 O 0.84171 0.33027 0.72073 0.0
O166 O 0.86843 0.28478 0.75828 0.0
O167 O 0.84991 0.29981 0.76549 0.0
H168 H 0.14812 0.43073 0.18081 0.0
H169 H 0.16352 0.42529 0.25177 0.0
H170 H 0.21007 0.42284 0.16724 0.0
H171 H 0.19494 0.42847 0.09674 0.0
H172 H 0.19765 0.39524 0.24314 0.0
H173 H 0.22121 0.46707 0.21255 0.0
H174 H 0.21654 0.49694 0.19719 0.0
H175 H 0.18549 0.48751 0.32927 0.0
H176 H 0.18973 0.45736 0.3451 0.0
H177 H 0.28092 0.42877 0.41129 0.0
H178 H 0.25846 0.42225 0.34274 0.0
H179 H 0.21726 0.43351 0.42738 0.0
H180 H 0.23965 0.44038 0.49494 0.0
H181 H 0.22567 0.45515 0.35146 0.0
H182 H 0.20431 0.38436 0.38492 0.0
H183 H 0.20904 0.35446 0.39934 0.0
H184 H 0.23595 0.36168 0.26271 0.0
H185 H 0.23163 0.39181 0.24771 0.0
C186 C 0.16122 0.42836 0.17732 0.0
C187 C 0.17035 0.43007 0.13325 0.0
C188 C 0.17011 0.4254 0.21788 0.0
C189 C 0.18813 0.42388 0.21492 0.0
C190 C 0.19622 0.42396 0.17052 0.0
C191 C 0.18756 0.42721 0.13023 0.0
C192 C 0.1999 0.42454 0.25779 0.0
C193 C 0.20386 0.40835 0.2668 0.0
C194 C 0.20793 0.44158 0.28887 0.0
C195 C 0.20556 0.45982 0.27974 0.0
C196 C 0.21324 0.47127 0.23815 0.0
C197 C 0.2107 0.48826 0.22938 0.0
C198 C 0.20066 0.49408 0.26216 0.0
C199 C 0.19322 0.48295 0.30387 0.0
C200 C 0.1957 0.46592 0.31277 0.0
C201 C 0.26686 0.42944 0.41536 0.0
C202 C 0.26219 0.43526 0.45852 0.0
C203 C 0.254 0.42572 0.37614 0.0
C204 C 0.23609 0.42745 0.37963 0.0
C205 C 0.23102 0.43227 0.42338 0.0
C206 C 0.24386 0.43615 0.46214 0.0
C207 C 0.22326 0.42565 0.33763 0.0
C208 C 0.21928 0.44183 0.32839 0.0
C209 C 0.21524 0.40858 0.30651 0.0
C210 C 0.21784 0.39047 0.31539 0.0
C211 C 0.21139 0.37967 0.35809 0.0
C212 C 0.21396 0.36267 0.36634 0.0
C213 C 0.22284 0.35621 0.33201 0.0
C214 C 0.2291 0.36671 0.2893 0.0
C215 C 0.22658 0.38375 0.28089 0.0
H216 H 0.22481 0.34303 0.33846 0.0
H217 H 0.19871 0.50723 0.25528 0.0
H218 H 0.84781 0.25333 0.62131 0.0
H219 H 0.83045 0.22876 0.55627 0.0
H220 H 0.79292 0.25663 0.53021 0.0
H221 H 0.80974 0.28057 0.59468 0.0
H222 H 0.76926 0.21607 0.5399 0.0
H223 H 0.83256 0.26263 0.4559 0.0
H224 H 0.87018 0.28038 0.44235 0.0
H225 H 0.86772 0.22185 0.43354 0.0
H226 H 0.8301 0.20375 0.44762 0.0
H227 H 0.72653 0.19788 0.31843 0.0
H228 H 0.74796 0.2115 0.38786 0.0
H229 H 0.7645 0.16403 0.37856 0.0
H230 H 0.74268 0.15006 0.30774 0.0
H231 H 0.79927 0.20578 0.39433 0.0
H232 H 0.73443 0.15957 0.46424 0.0
H233 H 0.69671 0.14258 0.47527 0.0
H234 H 0.70205 0.20092 0.51036 0.0
H235 H 0.73978 0.21832 0.49888 0.0
C236 C 0.8362 0.25445 0.60081 0.0
C237 C 0.83007 0.26881 0.61316 0.0
C238 C 0.82621 0.24035 0.56382 0.0
C239 C 0.81013 0.24063 0.53852 0.0
C240 C 0.805 0.25582 0.54942 0.0
C241 C 0.81474 0.26961 0.5862 0.0
C242 C 0.79747 0.22465 0.50257 0.0
C243 C 0.77589 0.21385 0.50812 0.0
C244 C 0.80601 0.22097 0.46183 0.0
C245 C 0.82859 0.23186 0.45344 0.0
C246 C 0.84008 0.25356 0.45151 0.0
C247 C 0.86139 0.26368 0.44364 0.0
C248 C 0.87135 0.25225 0.43727 0.0
C249 C 0.86 0.23068 0.4386 0.0
C250 C 0.83868 0.22048 0.44651 0.0
C251 C 0.73455 0.19013 0.33114 0.0
C252 C 0.73284 0.17282 0.30742 0.0
C253 C 0.74682 0.19797 0.37104 0.0
C254 C 0.75785 0.18882 0.38866 0.0
C255 C 0.75612 0.17135 0.36558 0.0
C256 C 0.74351 0.16326 0.32546 0.0
C257 C 0.77112 0.19809 0.43094 0.0
C258 C 0.79272 0.20759 0.4267 0.0
C259 C 0.76265 0.20068 0.47305 0.0
C260 C 0.73996 0.19026 0.48056 0.0
C261 C 0.72756 0.1688 0.47407 0.0
C262 C 0.70617 0.15909 0.48043 0.0
C263 C 0.69699 0.17066 0.49349 0.0
C264 C 0.70919 0.19197 0.5003 0.0
C265 C 0.73058 0.20176 0.49395 0.0
H266 H 0.68042 0.16312 0.49836 0.0
H267 H 0.88785 0.26011 0.43116 0.0
H268 H 0.59315 0.73951 0.4794 0.0
H269 H 0.60163 0.764 0.54521 0.0
H270 H 0.54175 0.75887 0.53193 0.0
H271 H 0.53343 0.73512 0.46736 0.0
H272 H 0.57024 0.79805 0.5372 0.0
H273 H 0.55437 0.73479 0.62058 0.0
H274 H 0.56004 0.70601 0.64164 0.0
H275 H 0.62172 0.74924 0.68681 0.0
H276 H 0.61647 0.7783 0.66547 0.0
H277 H 0.53179 0.8149 0.74502 0.0
H278 H 0.54093 0.80124 0.67717 0.0
H279 H 0.60414 0.83058 0.72463 0.0
H280 H 0.59498 0.84474 0.79299 0.0
H281 H 0.58541 0.78652 0.70006 0.0
H282 H 0.59703 0.8495 0.6311 0.0
H283 H 0.5892 0.87709 0.61281 0.0
H284 H 0.53379 0.83333 0.54143 0.0
H285 H 0.54112 0.80541 0.55986 0.0
C286 C 0.58182 0.74356 0.49085 0.0
C287 C 0.56271 0.73548 0.46745 0.0
C288 C 0.58666 0.75758 0.52844 0.0
C289 C 0.5724 0.76353 0.54341 0.0
C290 C 0.55321 0.75491 0.52082 0.0
C291 C 0.54846 0.74119 0.48364 0.0
C292 C 0.57685 0.77884 0.58191 0.0
C293 C 0.57365 0.79553 0.57275 0.0
C294 C 0.58199 0.77613 0.62819 0.0
C295 C 0.58513 0.75869 0.64082 0.0
C296 C 0.5692 0.73815 0.6346 0.0
C297 C 0.57232 0.72179 0.64667 0.0
C298 C 0.59126 0.72579 0.66537 0.0
C299 C 0.60708 0.74617 0.67218 0.0
C300 C 0.60404 0.76258 0.66012 0.0
C301 C 0.54775 0.81885 0.74053 0.0
C302 C 0.56272 0.83109 0.77399 0.0
C303 C 0.55295 0.81096 0.70178 0.0
C304 C 0.57323 0.81485 0.69568 0.0
C305 C 0.5884 0.8274 0.72859 0.0
C306 C 0.58323 0.83567 0.76726 0.0
C307 C 0.57782 0.80501 0.65543 0.0
C308 C 0.58266 0.7894 0.66424 0.0
C309 C 0.57399 0.80854 0.60874 0.0
C310 C 0.56961 0.82534 0.59702 0.0
C311 C 0.58312 0.84573 0.61172 0.0
C312 C 0.57877 0.86144 0.6013 0.0
C313 C 0.561 0.85697 0.576 0.0
C314 C 0.54756 0.83678 0.56099 0.0
C315 C 0.55182 0.82101 0.57134 0.0
H316 H 0.55765 0.86915 0.568 0.0
H317 H 0.59364 0.71311 0.67472 0.0
H318 H 0.85586 0.57302 0.67883 0.0
H319 H 0.84135 0.57989 0.74956 0.0
H320 H 0.79079 0.57545 0.66762 0.0
H321 H 0.80517 0.56876 0.59751 0.0
H322 H 0.80198 0.60494 0.73403 0.0
H323 H 0.78584 0.53384 0.72618 0.0
H324 H 0.7943 0.50596 0.72087 0.0
H325 H 0.82901 0.52681 0.84887 0.0
H326 H 0.82098 0.55501 0.85458 0.0
H327 H 0.72064 0.57158 0.90649 0.0
H328 H 0.74322 0.57787 0.83833 0.0
H329 H 0.78922 0.57733 0.92876 0.0
H330 H 0.76664 0.57057 0.99606 0.0
H331 H 0.78268 0.55261 0.85966 0.0
H332 H 0.79601 0.62219 0.87125 0.0
H333 H 0.78717 0.6498 0.87581 0.0
H334 H 0.75749 0.63191 0.74139 0.0
H335 H 0.76592 0.60399 0.73629 0.0
C336 C 0.84199 0.5741 0.67579 0.0
C337 C 0.8316 0.57021 0.63264 0.0
C338 C 0.83359 0.57785 0.71627 0.0
C339 C 0.81475 0.57788 0.71416 0.0
C340 C 0.80526 0.57547 0.6704 0.0
C341 C 0.8135 0.57157 0.63028 0.0
C342 C 0.8038 0.57852 0.75748 0.0
C343 C 0.79771 0.59347 0.76149 0.0
C344 C 0.79833 0.56371 0.79366 0.0
C345 C 0.80302 0.54667 0.7905 0.0
C346 C 0.7954 0.53257 0.75301 0.0
C347 C 0.8001 0.5167 0.74995 0.0
C348 C 0.81224 0.51466 0.78442 0.0
C349 C 0.81965 0.52844 0.82213 0.0
C350 C 0.81502 0.54437 0.8253 0.0
C351 C 0.7358 0.57338 0.91184 0.0
C352 C 0.74182 0.57053 0.95664 0.0
C353 C 0.74873 0.57693 0.87284 0.0
C354 C 0.76802 0.57802 0.87812 0.0
C355 C 0.77442 0.57637 0.92339 0.0
C356 C 0.7615 0.57262 0.96198 0.0
C357 C 0.78091 0.57917 0.83669 0.0
C358 C 0.7872 0.56435 0.83275 0.0
C359 C 0.78651 0.5941 0.80067 0.0
C360 C 0.78143 0.61087 0.80361 0.0
C361 C 0.78746 0.62403 0.84283 0.0
C362 C 0.78255 0.63976 0.84548 0.0
C363 C 0.77173 0.64257 0.80897 0.0
C364 C 0.76585 0.62969 0.76967 0.0
C365 C 0.77071 0.61393 0.76686 0.0
H366 H 0.76795 0.65476 0.81108 0.0
H367 H 0.81587 0.50237 0.78199 0.0
H368 H 0.28191 0.81043 0.83138 0.0
H369 H 0.25711 0.79388 0.89453 0.0
H370 H 0.23203 0.83382 0.86842 0.0
H371 H 0.25732 0.8508 0.80438 0.0
H372 H 0.23429 0.82415 0.96879 0.0
H373 H 0.20627 0.78923 0.82391 0.0
H374 H 0.20706 0.77377 0.74811 0.0
H375 H 0.21836 0.72975 0.81916 0.0
H376 H 0.21798 0.74515 0.89536 0.0
H377 H 0.15495 0.74814 0.12205 0.0
H378 H 0.1692 0.77087 0.05281 0.0
H379 H 0.20538 0.7422 0.01941 0.0
H380 H 0.19132 0.71982 0.08749 0.0
H381 H 0.19002 0.7488 0.94139 0.0
H382 H 0.22519 0.78807 0.0822 0.0
H383 H 0.22628 0.80392 0.15881 0.0
H384 H 0.202 0.83954 0.09588 0.0
H385 H 0.20054 0.82369 0.01897 0.0
C386 C 0.27142 0.81605 0.83957 0.0
C387 C 0.27149 0.83184 0.81263 0.0
C388 C 0.25719 0.8065 0.87568 0.0
C389 C 0.24241 0.81228 0.8857 0.0
C390 C 0.24325 0.82904 0.86115 0.0
C391 C 0.25774 0.83879 0.82476 0.0
C392 C 0.2254 0.79942 0.9192 0.0
C393 C 0.2242 0.80778 0.96238 0.0
C394 C 0.21229 0.77799 0.9111 0.0
C395 C 0.21216 0.76841 0.86537 0.0
C396 C 0.20903 0.77632 0.82337 0.0
C397 C 0.2094 0.76756 0.78032 0.0
C398 C 0.21277 0.7508 0.77882 0.0
C399 C 0.21573 0.74272 0.82038 0.0
C400 C 0.21541 0.75144 0.86352 0.0
C401 C 0.16551 0.7464 0.09905 0.0
C402 C 0.17198 0.73217 0.11001 0.0
C403 C 0.17383 0.75952 0.05984 0.0
C404 C 0.18859 0.75845 0.03099 0.0
C405 C 0.19407 0.74342 0.04084 0.0
C406 C 0.18599 0.73058 0.07986 0.0
C407 C 0.19944 0.77332 0.99184 0.0
C408 C 0.19957 0.76529 0.9474 0.0
C409 C 0.21154 0.79497 0.99895 0.0
C410 C 0.2125 0.80451 0.04505 0.0
C411 C 0.21994 0.79916 0.08481 0.0
C412 C 0.22065 0.80816 0.12825 0.0
C413 C 0.21414 0.82267 0.13224 0.0
C414 C 0.20698 0.82826 0.09276 0.0
C415 C 0.20621 0.81928 0.04925 0.0
H416 H 0.21471 0.82963 0.1659 0.0
H417 H 0.21307 0.74405 0.74546 0.0
H418 H 0.432 0.19687 0.32075 0.0
H419 H 0.4245 0.21099 0.25141 0.0
H420 H 0.42062 0.16099 0.1682 0.0
H421 H 0.42828 0.14672 0.23823 0.0
H422 H 0.44719 0.19832 0.13062 0.0
H423 H 0.37777 0.16603 0.18701 0.0
H424 H 0.35014 0.1569 0.24521 0.0
H425 H 0.36846 0.22095 0.26081 0.0
H426 H 0.39641 0.23051 0.20318 0.0
H427 H 0.42965 0.23636 0.92365 0.0
H428 H 0.422 0.21329 0.99051 0.0
H429 H 0.425 0.26044 0.08277 0.0
H430 H 0.43209 0.28351 0.01508 0.0
H431 H 0.39631 0.22212 0.11377 0.0
H432 H 0.46719 0.25496 0.06594 0.0
H433 H 0.49609 0.2655 0.01054 0.0
H434 H 0.47643 0.20183 0.98267 0.0
H435 H 0.44721 0.19091 0.03744 0.0
C436 C 0.42901 0.18853 0.28795 0.0
C437 C 0.43072 0.17064 0.28503 0.0
C438 C 0.42464 0.19662 0.24823 0.0
C439 C 0.4219 0.18708 0.20436 0.0
C440 C 0.42261 0.16862 0.20166 0.0
C441 C 0.4268 0.16035 0.24175 0.0
C442 C 0.42056 0.19771 0.16116 0.0
C443 C 0.43572 0.20306 0.12648 0.0
C444 C 0.40615 0.20469 0.15642 0.0
C445 C 0.38929 0.199 0.19097 0.0
C446 C 0.37602 0.17819 0.20309 0.0
C447 C 0.36027 0.17293 0.23595 0.0
C448 C 0.35757 0.18834 0.25676 0.0
C449 C 0.37058 0.20903 0.24467 0.0
C450 C 0.38635 0.21438 0.21186 0.0
C451 C 0.42811 0.24163 0.95803 0.0
C452 C 0.43153 0.26178 0.96414 0.0
C453 C 0.42389 0.22846 0.99634 0.0
C454 C 0.42348 0.23525 0.04202 0.0
C455 C 0.42536 0.25485 0.04795 0.0
C456 C 0.42932 0.26801 0.00925 0.0
C457 C 0.42288 0.22259 0.08328 0.0
C458 C 0.40753 0.21706 0.11767 0.0
C459 C 0.43728 0.21561 0.08819 0.0
C460 C 0.45489 0.22212 0.0554 0.0
C461 C 0.46894 0.24321 0.04773 0.0
C462 C 0.48539 0.24925 0.01648 0.0
C463 C 0.48806 0.23435 0.993 0.0
C464 C 0.47431 0.21336 1.00082 0.0
C465 C 0.45781 0.20723 0.03198 0.0
H466 H 0.5008 0.23905 0.96882 0.0
H467 H 0.34538 0.18424 0.28219 0.0
H468 H 0.17117 0.52202 0.07446 0.0
H469 H 0.1635 0.54753 0.1061 0.0
H470 H 0.09922 0.50114 0.11963 0.0
H471 H 0.10675 0.47506 0.08734 0.0
H472 H 0.10659 0.54015 0.08116 0.0
H473 H 0.12498 0.51531 0.21586 0.0
H474 H 0.14555 0.50419 0.26218 0.0
H475 H 0.19882 0.56474 0.24967 0.0
H476 H 0.17868 0.57616 0.20263 0.0
H477 H 0.1083 0.62795 0.20085 0.0
H478 H 0.09996 0.59244 0.18188 0.0
H479 H 0.16489 0.61362 0.16475 0.0
H480 H 0.17326 0.64852 0.18396 0.0
H481 H 0.1472 0.58034 0.2192 0.0
H482 H 0.13097 0.60217 0.07085 0.0
H483 H 0.11137 0.61358 0.02177 0.0
H484 H 0.05465 0.55907 0.05941 0.0
H485 H 0.07393 0.54746 0.10916 0.0
C486 C 0.15534 0.51705 0.084 0.0
C487 C 0.1396 0.49635 0.07851 0.0
C488 C 0.151 0.53174 0.10226 0.0
C489 C 0.13085 0.5262 0.11575 0.0
C490 C 0.1149 0.50569 0.10958 0.0
C491 C 0.11926 0.49082 0.09134 0.0
C492 C 0.12707 0.54219 0.13669 0.0
C493 C 0.11502 0.54865 0.11207 0.0
C494 C 0.13812 0.55331 0.1769 0.0
C495 C 0.15029 0.54658 0.20563 0.0
C496 C 0.14111 0.52623 0.22277 0.0
C497 C 0.1527 0.51987 0.24917 0.0
C498 C 0.17347 0.53375 0.25889 0.0
C499 C 0.18271 0.55402 0.24219 0.0
C500 C 0.1712 0.56045 0.21572 0.0
C501 C 0.12073 0.62499 0.19274 0.0
C502 C 0.14146 0.64108 0.19441 0.0
C503 C 0.11595 0.60471 0.18191 0.0
C504 C 0.13182 0.60033 0.17218 0.0
C505 C 0.15238 0.61651 0.17272 0.0
C506 C 0.15714 0.63655 0.18371 0.0
C507 C 0.12771 0.57906 0.16215 0.0
C508 C 0.13824 0.57153 0.1891 0.0
C509 C 0.11535 0.56709 0.12406 0.0
C510 C 0.10384 0.57409 0.09417 0.0
C511 C 0.1143 0.59271 0.06895 0.0
C512 C 0.10326 0.5992 0.04096 0.0
C513 C 0.08177 0.5871 0.03761 0.0
C514 C 0.07129 0.56845 0.06213 0.0
C515 C 0.08226 0.56191 0.09021 0.0
H516 H 0.07324 0.59214 0.01592 0.0
H517 H 0.1824 0.52882 0.27944 0.0
H518 H 0.6368 0.11423 0.26782 0.0
H519 H 0.6029 0.10827 0.29445 0.0
H520 H 0.60485 0.1506 0.18911 0.0
H521 H 0.63844 0.15678 0.16307 0.0
H522 H 0.59942 0.16116 0.27687 0.0
H523 H 0.57169 0.09763 0.18366 0.0
H524 H 0.56678 0.06322 0.1648 0.0
H525 H 0.54301 0.04188 0.30314 0.0
H526 H 0.5481 0.07622 0.32307 0.0
H527 H 0.5082 0.16209 0.27889 0.0
H528 H 0.53557 0.15558 0.25315 0.0
H529 H 0.51636 0.10717 0.35639 0.0
H530 H 0.48798 0.11291 0.38026 0.0
H531 H 0.53084 0.09732 0.28293 0.0
H532 H 0.55651 0.15693 0.37878 0.0
H533 H 0.56151 0.19041 0.40622 0.0
H534 H 0.59074 0.21863 0.27587 0.0
H535 H 0.58565 0.18524 0.24736 0.0
C536 C 0.62975 0.1219 0.2498 0.0
C537 C 0.64043 0.1362 0.2138 0.0
C538 C 0.61039 0.11847 0.26502 0.0
C539 C 0.60141 0.12911 0.24396 0.0
C540 C 0.61154 0.14236 0.20617 0.0
C541 C 0.63079 0.14589 0.19134 0.0
C542 C 0.58262 0.12843 0.26343 0.0
C543 C 0.58439 0.14721 0.27771 0.0
C544 C 0.56324 0.11006 0.26716 0.0
C545 C 0.56047 0.08956 0.25501 0.0
C546 C 0.56563 0.08566 0.21021 0.0
C547 C 0.56277 0.06616 0.1993 0.0
C548 C 0.5546 0.0504 0.23279 0.0
C549 C 0.54934 0.05411 0.27726 0.0
C550 C 0.55221 0.07358 0.28837 0.0
C551 C 0.50956 0.14976 0.29533 0.0
C552 C 0.49615 0.13809 0.33169 0.0
C553 C 0.52529 0.14613 0.28091 0.0
C554 C 0.52852 0.13136 0.30391 0.0
C555 C 0.51433 0.11878 0.33839 0.0
C556 C 0.49813 0.12204 0.35198 0.0
C557 C 0.54752 0.13027 0.29385 0.0
C558 C 0.54588 0.11124 0.28213 0.0
C559 C 0.56727 0.14833 0.29365 0.0
C560 C 0.57058 0.16853 0.31083 0.0
C561 C 0.56391 0.17025 0.35587 0.0
C562 C 0.56676 0.18921 0.37162 0.0
C563 C 0.57641 0.20662 0.34278 0.0
C564 C 0.58327 0.20512 0.29816 0.0
C565 C 0.58043 0.18619 0.28221 0.0
H566 H 0.57859 0.22129 0.35503 0.0
H567 H 0.55225 0.03527 0.22433 0.0
H568 H 0.37255 0.47422 0.51454 0.0
H569 H 0.40712 0.49976 0.48536 0.0
H570 H 0.38928 0.54641 0.48518 0.0
H571 H 0.35525 0.52146 0.51382 0.0
H572 H 0.40815 0.54553 0.40285 0.0
H573 H 0.41812 0.54384 0.57266 0.0
H574 H 0.41864 0.52641 0.64567 0.0
H575 H 0.46278 0.51241 0.58489 0.0
H576 H 0.46232 0.52956 0.51128 0.0
H577 H 0.48193 0.64663 0.42106 0.0
H578 H 0.45566 0.61171 0.44192 0.0
H579 H 0.49906 0.5905 0.4193 0.0
H580 H 0.52592 0.62599 0.39849 0.0
H581 H 0.47159 0.57188 0.49965 0.0
H582 H 0.46693 0.58067 0.33571 0.0
H583 H 0.46669 0.59906 0.26417 0.0
H584 H 0.41246 0.59932 0.31278 0.0
H585 H 0.41254 0.58122 0.38496 0.0
C586 C 0.37603 0.48992 0.50809 0.0
C587 C 0.36108 0.49575 0.51664 0.0
C588 C 0.39579 0.50448 0.4916 0.0
C589 C 0.40075 0.52499 0.4831 0.0
C590 C 0.38579 0.53068 0.49129 0.0
C591 C 0.36629 0.51633 0.50794 0.0
C592 C 0.42135 0.54099 0.46564 0.0
C593 C 0.42207 0.55118 0.42381 0.0
C594 C 0.43969 0.54792 0.4921 0.0
C595 C 0.43997 0.53771 0.53633 0.0
C596 C 0.4278 0.53688 0.57475 0.0
C597 C 0.42811 0.52709 0.61625 0.0
C598 C 0.44067 0.51824 0.61986 0.0
C599 C 0.45301 0.51922 0.58201 0.0
C600 C 0.45274 0.52898 0.54041 0.0
C601 C 0.48606 0.63465 0.42082 0.0
C602 C 0.50595 0.63905 0.40739 0.0
C603 C 0.47099 0.61466 0.43282 0.0
C604 C 0.47527 0.59843 0.4312 0.0
C605 C 0.49542 0.60282 0.42046 0.0
C606 C 0.51072 0.62306 0.40863 0.0
C607 C 0.458 0.57698 0.43817 0.0
C608 C 0.45789 0.5658 0.47781 0.0
C609 C 0.44014 0.56902 0.40962 0.0
C610 C 0.43978 0.5796 0.36583 0.0
C611 C 0.455 0.58472 0.33125 0.0
C612 C 0.45489 0.5951 0.29057 0.0
C613 C 0.43957 0.60035 0.28393 0.0
C614 C 0.4243 0.59521 0.31793 0.0
C615 C 0.42435 0.58485 0.3587 0.0
H616 H 0.43953 0.6084 0.25244 0.0
H617 H 0.4409 0.51067 0.65201 0.0
H618 H 0.83277 0.48047 0.58131 0.0
H619 H 0.84199 0.45567 0.61064 0.0
H620 H 0.90668 0.50099 0.5984 0.0
H621 H 0.89755 0.52634 0.5687 0.0
H622 H 0.89426 0.45926 0.56235 0.0
H623 H 0.89044 0.49199 0.70222 0.0
H624 H 0.87547 0.5069 0.75581 0.0
H625 H 0.82039 0.4477 0.76869 0.0
H626 H 0.83488 0.43249 0.7146 0.0
H627 H 0.89835 0.37415 0.67984 0.0
H628 H 0.9068 0.40949 0.65877 0.0
H629 H 0.84243 0.39151 0.67127 0.0
H630 H 0.83398 0.3568 0.6924 0.0
H631 H 0.86616 0.42685 0.71685 0.0
H632 H 0.86639 0.39692 0.56426 0.0
H633 H 0.87953 0.38152 0.50703 0.0
H634 H 0.94018 0.43488 0.5169 0.0
H635 H 0.92742 0.45049 0.57464 0.0
C636 C 0.849 0.48531 0.58466 0.0
C637 C 0.86442 0.50549 0.57268 0.0
C638 C 0.85424 0.47106 0.6016 0.0
C639 C 0.875 0.47653 0.60701 0.0
C640 C 0.89055 0.49651 0.59454 0.0
C641 C 0.88531 0.51097 0.57784 0.0
C642 C 0.87985 0.46101 0.62624 0.0
C643 C 0.88867 0.45249 0.59667 0.0
C644 C 0.87243 0.45214 0.67086 0.0
C645 C 0.86376 0.46111 0.70422 0.0
C646 C 0.8751 0.48217 0.71631 0.0
C647 C 0.86669 0.49067 0.74679 0.0
C648 C 0.84698 0.47826 0.76563 0.0
C649 C 0.83566 0.4573 0.75411 0.0
C650 C 0.84399 0.44871 0.72361 0.0
C651 C 0.88603 0.37777 0.67782 0.0
C652 C 0.8655 0.36261 0.68816 0.0
C653 C 0.89088 0.39795 0.66583 0.0
C654 C 0.87525 0.40319 0.66374 0.0
C655 C 0.8548 0.38795 0.67322 0.0
C656 C 0.84999 0.368 0.68523 0.0
C657 C 0.87955 0.42437 0.65202 0.0
C658 C 0.87243 0.43399 0.68318 0.0
C659 C 0.88842 0.43412 0.60883 0.0
C660 C 0.89603 0.42473 0.57418 0.0
C661 C 0.88256 0.40528 0.5545 0.0
C662 C 0.88993 0.39653 0.52192 0.0
C663 C 0.91069 0.40718 0.50847 0.0
C664 C 0.92411 0.42663 0.52745 0.0
C665 C 0.91682 0.43543 0.56008 0.0
H666 H 0.91637 0.40038 0.48323 0.0
H667 H 0.84049 0.48488 0.78917 0.0
H668 H 0.35593 0.84102 0.77489 0.0
H669 H 0.3908 0.85127 0.80138 0.0
H670 H 0.41416 0.91046 0.73408 0.0
H671 H 0.37879 0.90044 0.70838 0.0
H672 H 0.43418 0.88212 0.71463 0.0
H673 H 0.41952 0.91809 0.83298 0.0
H674 H 0.39809 0.92253 0.89238 0.0
H675 H 0.39431 0.87196 0.9718 0.0
H676 H 0.41544 0.86699 0.91246 0.0
H677 H 0.52749 0.89325 0.8181 0.0
H678 H 0.50266 0.90382 0.79287 0.0
H679 H 0.45499 0.85438 0.87455 0.0
H680 H 0.47942 0.84385 0.89968 0.0
H681 H 0.4531 0.88953 0.88313 0.0
H682 H 0.45944 0.84845 0.75896 0.0
H683 H 0.47848 0.84077 0.69912 0.0
H684 H 0.4961 0.8984 0.63057 0.0
H685 H 0.47737 0.90653 0.69047 0.0
C686 C 0.36843 0.8563 0.76599 0.0
C687 C 0.36468 0.86992 0.73949 0.0
C688 C 0.38833 0.86213 0.78123 0.0
C689 C 0.405 0.88158 0.76965 0.0
C690 C 0.40142 0.89539 0.74339 0.0
C691 C 0.38128 0.8897 0.72897 0.0
C692 C 0.42604 0.88663 0.78424 0.0
C693 C 0.43875 0.88448 0.75123 0.0
C694 C 0.43165 0.88918 0.83211 0.0
C695 C 0.41898 0.8921 0.86807 0.0
C696 C 0.41397 0.9078 0.86289 0.0
C697 C 0.40191 0.91043 0.8966 0.0
C698 C 0.39482 0.89752 0.93581 0.0
C699 C 0.39981 0.88196 0.94141 0.0
C700 C 0.41186 0.87924 0.90777 0.0
C701 C 0.51178 0.88483 0.83107 0.0
C702 C 0.5054 0.86758 0.86054 0.0
C703 C 0.4976 0.89084 0.81654 0.0
C704 C 0.47693 0.87982 0.83164 0.0
C705 C 0.47085 0.86317 0.86251 0.0
C706 C 0.48485 0.85706 0.87659 0.0
C707 C 0.46101 0.88447 0.81369 0.0
C708 C 0.4491 0.88813 0.84622 0.0
C709 C 0.45603 0.88309 0.76542 0.0
C710 C 0.46729 0.87824 0.72953 0.0
C711 C 0.46755 0.85957 0.73137 0.0
C712 C 0.47824 0.85511 0.69741 0.0
C713 C 0.48857 0.86913 0.66117 0.0
C714 C 0.48816 0.8876 0.65875 0.0
C715 C 0.47751 0.89214 0.69269 0.0
H716 H 0.49683 0.86565 0.63489 0.0
H717 H 0.38549 0.89958 0.96188 0.0
H718 H 0.51746 0.35203 0.94845 0.0
H719 H 0.54274 0.38668 0.97471 0.0
H720 H 0.50596 0.41068 0.91522 0.0
H721 H 0.48015 0.37563 0.88925 0.0
H722 H 0.54984 0.43257 0.88939 0.0
H723 H 0.50765 0.41194 0.02524 0.0
H724 H 0.48664 0.38855 0.08893 0.0
H725 H 0.53993 0.38779 0.1425 0.0
H726 H 0.56123 0.41092 0.07871 0.0
H727 H 0.63423 0.5267 0.99067 0.0
H728 H 0.59876 0.50027 0.96946 0.0
H729 H 0.60937 0.45295 0.02645 0.0
H730 H 0.64434 0.47882 0.04755 0.0
H731 H 0.57249 0.44821 0.05519 0.0
H732 H 0.61164 0.46148 0.90995 0.0
H733 H 0.633 0.4835 0.84479 0.0
H734 H 0.58549 0.49739 0.80865 0.0
H735 H 0.56395 0.47563 0.87405 0.0
C736 C 0.51459 0.36461 0.94133 0.0
C737 C 0.49683 0.36111 0.91677 0.0
C738 C 0.52903 0.3844 0.95648 0.0
C739 C 0.52619 0.40122 0.94702 0.0
C740 C 0.50838 0.39786 0.92294 0.0
C741 C 0.49363 0.37786 0.90842 0.0
C742 C 0.54257 0.42224 0.96095 0.0
C743 C 0.55448 0.43632 0.92576 0.0
C744 C 0.54871 0.42697 0.00832 0.0
C745 C 0.53603 0.41312 0.04701 0.0
C746 C 0.51487 0.40668 0.0504 0.0
C747 C 0.50291 0.39348 0.08656 0.0
C748 C 0.51194 0.38668 0.11972 0.0
C749 C 0.53296 0.39309 0.11681 0.0
C750 C 0.545 0.40627 0.08069 0.0
C751 C 0.62898 0.51065 0.99863 0.0
C752 C 0.64225 0.50495 0.0207 0.0
C753 C 0.60872 0.49559 0.98648 0.0
C754 C 0.60142 0.47463 0.99648 0.0
C755 C 0.6146 0.46901 0.01868 0.0
C756 C 0.63472 0.48391 0.03047 0.0
C757 C 0.58025 0.45813 0.9835 0.0
C758 C 0.56747 0.44485 0.01896 0.0
C759 C 0.57339 0.45412 0.9364 0.0
C760 C 0.58634 0.46719 0.89724 0.0
C761 C 0.60584 0.46939 0.88837 0.0
C762 C 0.61796 0.48179 0.85135 0.0
C763 C 0.61065 0.49191 0.82271 0.0
C764 C 0.59117 0.4896 0.83095 0.0
C765 C 0.579 0.47723 0.86798 0.0
H766 H 0.62004 0.50149 0.79405 0.0
H767 H 0.50265 0.37646 0.14768 0.0
H768 H 0.2835 0.46461 0.66081 0.0
H769 H 0.2597 0.46219 0.72218 0.0
H770 H 0.22353 0.39623 0.70125 0.0
H771 H 0.24776 0.39851 0.64045 0.0
H772 H 0.22031 0.45035 0.72375 0.0
H773 H 0.20277 0.37288 0.80645 0.0
H774 H 0.21883 0.35113 0.81446 0.0
H775 H 0.27913 0.40489 0.8033 0.0
H776 H 0.26344 0.42698 0.79584 0.0
H777 H 0.14536 0.39791 0.93188 0.0
H778 H 0.16665 0.39587 0.86909 0.0
H779 H 0.20957 0.46118 0.88307 0.0
H780 H 0.18823 0.46342 0.94504 0.0
H781 H 0.2068 0.40481 0.86161 0.0
H782 H 0.22514 0.48219 0.77613 0.0
H783 H 0.20987 0.50469 0.76982 0.0
H784 H 0.14919 0.45219 0.78838 0.0
H785 H 0.16407 0.42934 0.79415 0.0
C786 C 0.27042 0.44959 0.66905 0.0
C787 C 0.26755 0.43172 0.64609 0.0
C788 C 0.2568 0.44823 0.70411 0.0
C789 C 0.24 0.429 0.71681 0.0
C790 C 0.23663 0.41119 0.69267 0.0
C791 C 0.25039 0.41252 0.65777 0.0
C792 C 0.22632 0.42778 0.75582 0.0
C793 C 0.21751 0.44051 0.75405 0.0
C794 C 0.22227 0.4146 0.79489 0.0
C795 C 0.23191 0.40153 0.80004 0.0
C796 C 0.21945 0.38006 0.80586 0.0
C797 C 0.22849 0.36767 0.81028 0.0
C798 C 0.24998 0.37661 0.80922 0.0
C799 C 0.26249 0.39798 0.80393 0.0
C800 C 0.25353 0.41043 0.79955 0.0
C801 C 0.15946 0.41178 0.92187 0.0
C802 C 0.16503 0.43088 0.9429 0.0
C803 C 0.1716 0.41058 0.88608 0.0
C804 C 0.18944 0.42844 0.87085 0.0
C805 C 0.19561 0.44729 0.89364 0.0
C806 C 0.18344 0.44853 0.92915 0.0
C807 C 0.20118 0.42767 0.82981 0.0
C808 C 0.20952 0.41453 0.83113 0.0
C809 C 0.20494 0.44058 0.79039 0.0
C810 C 0.19576 0.4541 0.78594 0.0
C811 C 0.20853 0.47544 0.7786 0.0
C812 C 0.19994 0.48825 0.77517 0.0
C813 C 0.17858 0.47988 0.77882 0.0
C814 C 0.16574 0.45866 0.7857 0.0
C815 C 0.17425 0.44577 0.7891 0.0
H816 H 0.17197 0.48984 0.77623 0.0
H817 H 0.25694 0.367 0.81259 0.0
H818 H 0.75701 0.15276 0.11336 0.0
H819 H 0.78225 0.17491 0.05427 0.0
H820 H 0.75168 0.21076 0.04385 0.0
H821 H 0.72682 0.18907 0.10317 0.0
H822 H 0.77505 0.18002 0.96452 0.0
H823 H 0.78487 0.25973 0.01586 0.0
H824 H 0.78602 0.27882 0.08739 0.0
H825 H 0.8061 0.24344 0.16746 0.0
H826 H 0.80536 0.22434 0.09631 0.0
H827 H 0.81827 0.28121 0.81885 0.0
H828 H 0.79843 0.25821 0.88302 0.0
H829 H 0.83643 0.22985 0.87778 0.0
H830 H 0.85633 0.25279 0.81306 0.0
H831 H 0.81319 0.25664 0.96871 0.0
H832 H 0.80608 0.17895 0.91579 0.0
H833 H 0.80437 0.15955 0.84427 0.0
H834 H 0.77853 0.19079 0.76793 0.0
H835 H 0.77983 0.21014 0.8391 0.0
C836 C 0.75594 0.16561 0.09904 0.0
C837 C 0.73997 0.16921 0.11286 0.0
C838 C 0.77029 0.17816 0.06515 0.0
C839 C 0.76894 0.19456 0.04489 0.0
C840 C 0.75326 0.19843 0.05956 0.0
C841 C 0.739 0.18596 0.09339 0.0
C842 C 0.78305 0.20699 0.00647 0.0
C843 C 0.78375 0.19677 0.96579 0.0
C844 C 0.79408 0.22885 0.00783 0.0
C845 C 0.79491 0.2405 0.05074 0.0
C846 C 0.78965 0.2561 0.04866 0.0
C847 C 0.7902 0.26691 0.08916 0.0
C848 C 0.79608 0.26231 0.13196 0.0
C849 C 0.80149 0.24694 0.13431 0.0
C850 C 0.80098 0.2361 0.09391 0.0
C851 C 0.82226 0.26991 0.83091 0.0
C852 C 0.83889 0.26883 0.81107 0.0
C853 C 0.81096 0.25684 0.86772 0.0
C854 C 0.816 0.24239 0.88524 0.0
C855 C 0.8322 0.24081 0.86454 0.0
C856 C 0.84354 0.25391 0.82762 0.0
C857 C 0.80478 0.22968 0.92649 0.0
C858 C 0.80469 0.23988 0.96772 0.0
C859 C 0.79435 0.20784 0.9256 0.0
C860 C 0.79332 0.19618 0.88264 0.0
C861 C 0.8 0.18164 0.88375 0.0
C862 C 0.7991 0.17065 0.84328 0.0
C863 C 0.79142 0.174 0.80154 0.0
C864 C 0.78456 0.18828 0.80023 0.0
C865 C 0.78541 0.19929 0.84061 0.0
H866 H 0.79074 0.16549 0.77025 0.0
H867 H 0.79648 0.27068 0.16328 0.0
H868 H 0.60176 0.74261 0.25672 0.0
H869 H 0.60271 0.76457 0.19206 0.0
H870 H 0.53868 0.74565 0.21713 0.0
H871 H 0.53747 0.72306 0.28042 0.0
H872 H 0.54431 0.74309 0.12837 0.0
H873 H 0.5807 0.79531 0.24656 0.0
H874 H 0.608 0.81424 0.30533 0.0
H875 H 0.65451 0.83084 0.1994 0.0
H876 H 0.62749 0.81179 0.14011 0.0
H877 H 0.53395 0.81641 0.99395 0.0
H878 H 0.53595 0.79453 0.05452 0.0
H879 H 0.60001 0.81727 0.01998 0.0
H880 H 0.5983 0.84005 0.96055 0.0
H881 H 0.59615 0.81738 0.11016 0.0
H882 H 0.55957 0.76661 0.99106 0.0
H883 H 0.53218 0.74788 0.93237 0.0
H884 H 0.48597 0.72849 0.03996 0.0
H885 H 0.51306 0.74732 0.09921 0.0
C886 C 0.58798 0.74337 0.24877 0.0
C887 C 0.56953 0.73114 0.27347 0.0
C888 C 0.58855 0.75597 0.21189 0.0
C889 C 0.5708 0.7569 0.19986 0.0
C890 C 0.55254 0.74513 0.22558 0.0
C891 C 0.55188 0.73229 0.26187 0.0
C892 C 0.57082 0.76928 0.15911 0.0
C893 C 0.55551 0.75941 0.12471 0.0
C894 C 0.58585 0.79039 0.15339 0.0
C895 C 0.60208 0.80196 0.189 0.0
C896 C 0.59675 0.80288 0.23587 0.0
C897 C 0.61217 0.81366 0.26926 0.0
C898 C 0.63297 0.82369 0.25613 0.0
C899 C 0.63839 0.82304 0.20954 0.0
C900 C 0.62303 0.81227 0.17602 0.0
C901 C 0.54839 0.81655 0.99877 0.0
C902 C 0.56597 0.82989 0.97248 0.0
C903 C 0.5495 0.80394 0.03334 0.0
C904 C 0.56805 0.80398 0.04145 0.0
C905 C 0.58552 0.81695 0.01436 0.0
C906 C 0.58451 0.82987 0.98028 0.0
C907 C 0.56942 0.79126 0.07981 0.0
C908 C 0.58503 0.80104 0.11367 0.0
C909 C 0.55465 0.77005 0.08507 0.0
C910 C 0.53835 0.75848 0.04953 0.0
C911 C 0.54356 0.75843 1.00217 0.0
C912 C 0.52809 0.74779 0.9688 0.0
C913 C 0.50735 0.73703 0.98241 0.0
C914 C 0.50204 0.73683 0.02946 0.0
C915 C 0.51745 0.74746 0.06295 0.0
H916 H 0.4954 0.72882 0.95652 0.0
H917 H 0.64489 0.83201 0.28204 0.0
H918 H 0.81964 0.53739 0.42324 0.0
H919 H 0.79912 0.54075 0.36083 0.0
H920 H 0.82658 0.60581 0.39057 0.0
H921 H 0.8476 0.60268 0.45275 0.0
H922 H 0.78076 0.5819 0.37455 0.0
H923 H 0.84546 0.59764 0.30519 0.0
H924 H 0.87454 0.59192 0.28813 0.0
H925 H 0.83306 0.5343 0.22122 0.0
H926 H 0.80364 0.53951 0.23862 0.0
H927 H 0.74617 0.60381 0.16058 0.0
H928 H 0.76987 0.60612 0.22276 0.0
H929 H 0.75236 0.54241 0.19941 0.0
H930 H 0.72847 0.5399 0.13765 0.0
H931 H 0.79533 0.569 0.21197 0.0
H932 H 0.73069 0.55184 0.28501 0.0
H933 H 0.70098 0.55641 0.30326 0.0
H934 H 0.74178 0.61577 0.36396 0.0
H935 H 0.7718 0.61168 0.34537 0.0
C936 C 0.82115 0.55237 0.41694 0.0
C937 C 0.83529 0.56981 0.44259 0.0
C938 C 0.80947 0.55426 0.38123 0.0
C939 C 0.81154 0.57355 0.37102 0.0
C940 C 0.82487 0.59082 0.39803 0.0
C941 C 0.83685 0.58901 0.43336 0.0
C942 C 0.80039 0.57563 0.33061 0.0
C943 C 0.78416 0.5795 0.33889 0.0
C944 C 0.80467 0.57206 0.28436 0.0
C945 C 0.82231 0.56887 0.27366 0.0
C946 C 0.8425 0.58364 0.28727 0.0
C947 C 0.85905 0.58051 0.27745 0.0
C948 C 0.85564 0.56272 0.25372 0.0
C949 C 0.83567 0.54805 0.23966 0.0
C950 C 0.81905 0.5511 0.24947 0.0
C951 C 0.74758 0.59039 0.16832 0.0
C952 C 0.73543 0.57164 0.14455 0.0
C953 C 0.76104 0.59171 0.20389 0.0
C954 C 0.76267 0.57438 0.2158 0.0
C955 C 0.75125 0.55593 0.19067 0.0
C956 C 0.7376 0.55451 0.15555 0.0
C957 C 0.77557 0.57514 0.25586 0.0
C958 C 0.7921 0.57172 0.24753 0.0
C959 C 0.77151 0.57906 0.30206 0.0
C960 C 0.75351 0.58158 0.31322 0.0
C961 C 0.73335 0.56597 0.30179 0.0
C962 C 0.71645 0.56845 0.31229 0.0
C963 C 0.7195 0.5864 0.33459 0.0
C964 C 0.73945 0.60189 0.34656 0.0
C965 C 0.75642 0.5995 0.33606 0.0
H966 H 0.70639 0.58828 0.34274 0.0
H967 H 0.86848 0.56033 0.24612 0.0
H968 H 0.19193 0.72562 0.31562 0.0
H969 H 0.21197 0.74852 0.37977 0.0
H970 H 0.1734 0.77627 0.37763 0.0
H971 H 0.15318 0.75332 0.31307 0.0
H972 H 0.21571 0.80492 0.3918 0.0
H973 H 0.16294 0.74065 0.45547 0.0
H974 H 0.1427 0.70273 0.4629 0.0
H975 H 0.19752 0.70142 0.50193 0.0
H976 H 0.21816 0.73933 0.49401 0.0
H977 H 0.25027 0.85121 0.61547 0.0
H978 H 0.22667 0.82974 0.55333 0.0
H979 H 0.25774 0.79428 0.54688 0.0
H980 H 0.28118 0.81548 0.60928 0.0
H981 H 0.21648 0.76977 0.53885 0.0
H982 H 0.26959 0.83317 0.47018 0.0
H983 H 0.29052 0.87101 0.46136 0.0
H984 H 0.23578 0.87391 0.43082 0.0
H985 H 0.21447 0.8361 0.44015 0.0
C986 C 0.18788 0.7368 0.32825 0.0
C987 C 0.17085 0.73754 0.30969 0.0
C988 C 0.1993 0.74981 0.36502 0.0
C989 C 0.19388 0.76377 0.38394 0.0
C990 C 0.17771 0.76548 0.36361 0.0
C991 C 0.1662 0.75239 0.32678 0.0
C992 C 0.20445 0.77567 0.42656 0.0
C993 C 0.21562 0.79729 0.42423 0.0
C994 C 0.20453 0.76562 0.46855 0.0
C995 C 0.19213 0.74282 0.47375 0.0
C996 C 0.17071 0.73227 0.46529 0.0
C997 C 0.15916 0.71077 0.46964 0.0
C998 C 0.16883 0.69966 0.48279 0.0
C999 C 0.19006 0.71004 0.49171 0.0
C1000 C 0.20169 0.73153 0.48734 0.0
C1001 C 0.25186 0.83864 0.60129 0.0
C1002 C 0.26768 0.83512 0.6169 0.0
C1003 C 0.23845 0.82647 0.56564 0.0
C1004 C 0.24071 0.81067 0.54496 0.0
C1005 C 0.2558 0.80646 0.56223 0.0
C1006 C 0.2692 0.81861 0.59783 0.0
C1007 C 0.22802 0.79906 0.50399 0.0
C1008 C 0.21642 0.77745 0.50661 0.0
C1009 C 0.22763 0.80913 0.46225 0.0
C1010 C 0.24042 0.83185 0.45641 0.0
C1011 C 0.262 0.8419 0.46197 0.0
C1012 C 0.27393 0.86334 0.45681 0.0
C1013 C 0.26448 0.87486 0.44568 0.0
C1014 C 0.24307 0.86497 0.43954 0.0
C1015 C 0.23106 0.84354 0.44474 0.0
H1016 H 0.27375 0.89146 0.44169 0.0
H1017 H 0.15986 0.68302 0.48614 0.0
H1018 H 0.47083 0.28511 0.7682 0.0
H1019 H 0.46989 0.26248 0.70528 0.0
H1020 H 0.40326 0.22845 0.71173 0.0
H1021 H 0.40409 0.25141 0.7739 0.0
H1022 H 0.45598 0.22239 0.69715 0.0
H1023 H 0.38377 0.21351 0.60144 0.0
H1024 H 0.36489 0.23253 0.59214 0.0
H1025 H 0.42076 0.28983 0.61839 0.0
H1026 H 0.44002 0.2712 0.62702 0.0
H1027 H 0.40349 0.15225 0.48295 0.0
H1028 H 0.40295 0.17438 0.54553 0.0
H1029 H 0.4693 0.21226 0.53725 0.0
H1030 H 0.46999 0.1901 0.47508 0.0
H1031 H 0.41593 0.21572 0.55291 0.0
H1032 H 0.48829 0.22523 0.64826 0.0
H1033 H 0.50762 0.20666 0.65721 0.0
H1034 H 0.45222 0.14895 0.63095 0.0
H1035 H 0.4325 0.16713 0.62251 0.0
C1036 C 0.45598 0.2727 0.75648 0.0
C1037 C 0.43752 0.27014 0.77558 0.0
C1038 C 0.45547 0.25977 0.72057 0.0
C1039 C 0.4365 0.24403 0.70322 0.0
C1040 C 0.41806 0.2408 0.72389 0.0
C1041 C 0.41856 0.25384 0.75957 0.0
C1042 C 0.43609 0.23143 0.66266 0.0
C1043 C 0.44741 0.22113 0.66543 0.0
C1044 C 0.42459 0.22948 0.62157 0.0
C1045 C 0.41327 0.24092 0.61539 0.0
C1046 C 0.39203 0.23018 0.60499 0.0
C1047 C 0.38127 0.24089 0.59985 0.0
C1048 C 0.3916 0.26237 0.60482 0.0
C1049 C 0.41275 0.27319 0.61469 0.0
C1050 C 0.42359 0.26256 0.61973 0.0
C1051 C 0.41794 0.16543 0.49411 0.0
C1052 C 0.43681 0.16934 0.47451 0.0
C1053 C 0.41759 0.17807 0.52979 0.0
C1054 C 0.43611 0.19472 0.54651 0.0
C1055 C 0.45487 0.19925 0.52536 0.0
C1056 C 0.45523 0.18663 0.48975 0.0
C1057 C 0.4359 0.20682 0.58741 0.0
C1058 C 0.42446 0.21699 0.5847 0.0
C1059 C 0.44736 0.20874 0.62849 0.0
C1060 C 0.45898 0.19758 0.63429 0.0
C1061 C 0.48022 0.20857 0.6446 0.0
C1062 C 0.49125 0.19811 0.64955 0.0
C1063 C 0.48117 0.17665 0.6445 0.0
C1064 C 0.46002 0.16558 0.63468 0.0
C1065 C 0.44892 0.17596 0.62976 0.0
H1066 H 0.48974 0.16859 0.64829 0.0
H1067 H 0.38321 0.27061 0.60093 0.0
H1068 H 0.08151 0.43984 0.94308 0.0
H1069 H 0.04852 0.42219 0.90127 0.0
H1070 H 0.03151 0.3664 0.97851 0.0
H1071 H 0.06446 0.38425 0.02177 0.0
H1072 H 0.03362 0.37399 0.85494 0.0
H1073 H 1.00158 0.37058 0.00968 0.0
H1074 H 0.9998 0.38739 0.0826 0.0
H1075 H 0.99356 0.43252 1.00216 0.0
H1076 H 0.99562 0.41612 0.92877 0.0
H1077 H 0.933 0.31335 0.75261 0.0
H1078 H 0.96504 0.32827 0.79832 0.0
H1079 H 0.96079 0.38307 0.82263 0.0
H1080 H 0.92802 0.36737 0.78 0.0
H1081 H 0.96959 0.37427 0.89896 0.0
H1082 H 0.99904 0.37937 0.74677 0.0
H1083 H 0.00355 0.36719 0.66968 0.0
H1084 H 0.01783 0.3245 0.7372 0.0
H1085 H 0.01316 0.33626 0.81471 0.0
C1086 C 0.07058 0.42393 0.95193 0.0
C1087 C 0.07552 0.41346 0.98594 0.0
C1088 C 0.05178 0.41386 0.92785 0.0
C1089 C 0.03761 0.39301 0.93672 0.0
C1090 C 0.04222 0.38255 0.97138 0.0
C1091 C 0.06095 0.39278 0.99626 0.0
C1092 C 0.01853 0.3822 0.90787 0.0
C1093 C 0.01941 0.37361 0.86479 0.0
C1094 C 1.00042 0.38257 0.91986 0.0
C1095 C 0.99901 0.39229 0.96386 0.0
C1096 C 1.00006 0.38422 0.00759 0.0
C1097 C 0.99894 0.39363 0.04899 0.0
C1098 C 0.99664 0.41105 0.04702 0.0
C1099 C 0.99538 0.41905 0.00364 0.0
C1100 C 0.99651 0.4097 0.96216 0.0
C1101 C 0.93929 0.32881 0.76668 0.0
C1102 C 0.92828 0.33939 0.76218 0.0
C1103 C 0.95764 0.33738 0.79294 0.0
C1104 C 0.96568 0.357 0.81398 0.0
C1105 C 0.95503 0.36789 0.80732 0.0
C1106 C 0.93641 0.35906 0.78238 0.0
C1107 C 0.98433 0.36572 0.84525 0.0
C1108 C 0.98355 0.37421 0.88881 0.0
C1109 C 0.00272 0.36564 0.83306 0.0
C1110 C 0.00553 0.35854 0.78652 0.0
C1111 C 0.00299 0.36728 0.74516 0.0
C1112 C 0.0056 0.36047 0.7014 0.0
C1113 C 0.01091 0.34504 0.69854 0.0
C1114 C 0.01368 0.33643 0.73946 0.0
C1115 C 0.01107 0.34317 0.78331 0.0
H1116 H 0.01292 0.33979 0.66463 0.0
H1117 H 0.99577 0.41832 0.0791 0.0
H1118 H 0.60686 0.93947 0.88657 0.0
H1119 H 0.62467 0.97298 0.92722 0.0
H1120 H 0.5937 0.94331 0.05592 0.0
H1121 H 0.57556 0.91034 0.01561 0.0
H1122 H 0.59321 0.97707 0.04923 0.0
H1123 H 0.64622 0.9591 0.03172 0.0
H1124 H 0.66877 0.9494 0.98884 0.0
H1125 H 0.69412 0.00567 0.90945 0.0
H1126 H 0.67153 0.01558 0.95147 0.0
H1127 H 0.6591 0.06057 0.20557 0.0
H1128 H 0.64272 0.02649 0.16666 0.0
H1129 H 0.6625 0.05639 0.0322 0.0
H1130 H 0.67831 0.09005 0.07023 0.0
H1131 H 0.66931 0.02266 0.04346 0.0
H1132 H 0.61535 0.03973 0.06095 0.0
H1133 H 0.5929 0.04919 0.10502 0.0
H1134 H 0.56973 0.99381 0.187 0.0
H1135 H 0.5923 0.98416 0.14386 0.0
C1136 C 0.60384 0.94017 0.92346 0.0
C1137 C 0.58975 0.9222 0.9477 0.0
C1138 C 0.61412 0.95931 0.94683 0.0
C1139 C 0.61076 0.96075 0.99501 0.0
C1140 C 0.59659 0.94277 0.01887 0.0
C1141 C 0.58623 0.92383 0.99561 0.0
C1142 C 0.62167 0.98081 0.02103 0.0
C1143 C 0.60989 0.98683 0.04837 0.0
C1144 C 0.64343 0.99389 0.01968 0.0
C1145 C 0.65703 0.98797 0.99439 0.0
C1146 C 0.65649 0.96933 0.00487 0.0
C1147 C 0.6693 0.96381 0.98076 0.0
C1148 C 0.68282 0.97688 0.94635 0.0
C1149 C 0.68361 0.99554 0.93606 0.0
C1150 C 0.67082 1.00112 0.96003 0.0
C1151 C 0.65999 0.05979 0.1678 0.0
C1152 C 0.66986 0.078 0.14101 0.0
C1153 C 0.65064 0.04037 0.14559 0.0
C1154 C 0.65138 0.03891 0.09643 0.0
C1155 C 0.66176 0.05709 0.07005 0.0
C1156 C 0.67069 0.07635 0.09196 0.0
C1157 C 0.64082 0.01863 0.07171 0.0
C1158 C 0.65265 0.0127 0.04449 0.0
C1159 C 0.61915 0.00553 0.07345 0.0
C1160 C 0.60569 0.01136 0.09959 0.0
C1161 C 0.60563 0.02968 0.08872 0.0
C1162 C 0.59286 0.03505 0.11344 0.0
C1163 C 0.57995 0.02213 0.14883 0.0
C1164 C 0.57978 0.00381 0.15961 0.0
C1165 C 0.59255 0.99838 0.13504 0.0
H1166 H 0.57003 0.02627 0.16774 0.0
H1167 H 0.69273 0.97258 0.92773 0.0
H1168 H 0.64052 0.56184 0.13552 0.0
H1169 H 0.62528 0.5795 0.17775 0.0
H1170 H 0.66972 0.63728 0.11464 0.0
H1171 H 0.68468 0.61944 0.07082 0.0
H1172 H 0.66463 0.63342 0.2245 0.0
H1173 H 0.62801 0.62418 0.07847 0.0
H1174 H 0.60668 0.60365 0.01163 0.0
H1175 H 0.55823 0.56381 0.10602 0.0
H1176 H 0.57942 0.58393 0.17349 0.0
H1177 H 0.62186 0.69158 0.32608 0.0
H1178 H 0.63881 0.67664 0.27996 0.0
H1179 H 0.58182 0.61805 0.27762 0.0
H1180 H 0.56466 0.63357 0.32071 0.0
H1181 H 0.59498 0.62408 0.19666 0.0
H1182 H 0.6294 0.62957 0.34198 0.0
H1183 H 0.64975 0.64652 0.41292 0.0
H1184 H 0.70081 0.68887 0.32748 0.0
H1185 H 0.68066 0.67233 0.256 0.0
C1186 C 0.64674 0.57823 0.12975 0.0
C1187 C 0.66366 0.58924 0.09954 0.0
C1188 C 0.63808 0.5883 0.15408 0.0
C1189 C 0.64644 0.60971 0.14958 0.0
C1190 C 0.66306 0.62074 0.11862 0.0
C1191 C 0.67144 0.61052 0.09326 0.0
C1192 C 0.63817 0.6204 0.17894 0.0
C1193 C 0.64956 0.63176 0.21809 0.0
C1194 C 0.61819 0.61747 0.17158 0.0
C1195 C 0.60538 0.60545 0.13104 0.0
C1196 C 0.61289 0.61092 0.085 0.0
C1197 C 0.6008 0.59939 0.04699 0.0
C1198 C 0.58113 0.5824 0.05458 0.0
C1199 C 0.57348 0.57696 0.10019 0.0
C1200 C 0.58551 0.58843 0.13832 0.0
C1201 C 0.6132 0.67535 0.31689 0.0
C1202 C 0.59209 0.66358 0.32773 0.0
C1203 C 0.62288 0.66676 0.29038 0.0
C1204 C 0.61176 0.64602 0.27527 0.0
C1205 C 0.59084 0.63406 0.28832 0.0
C1206 C 0.58107 0.64283 0.31358 0.0
C1207 C 0.6213 0.63715 0.24324 0.0
C1208 C 0.61012 0.62599 0.20342 0.0
C1209 C 0.6413 0.63985 0.25075 0.0
C1210 C 0.65343 0.64985 0.29365 0.0
C1211 C 0.64491 0.6426 0.33833 0.0
C1212 C 0.65642 0.65211 0.37863 0.0
C1213 C 0.67654 0.6688 0.37471 0.0
C1214 C 0.68521 0.67597 0.33047 0.0
C1215 C 0.67376 0.66652 0.29005 0.0
H1216 H 0.68542 0.67614 0.40595 0.0
H1217 H 0.5718 0.57349 0.02511 0.0
H1218 H 0.09363 0.67062 0.35308 0.0
H1219 H 0.06052 0.65482 0.39283 0.0
H1220 H 0.02926 0.64245 0.25946 0.0
H1221 H 0.06293 0.65933 0.21905 0.0
H1222 H 0.01067 0.6542 0.31851 0.0
H1223 H 0.03145 0.60368 0.32723 0.0
H1224 H 0.0546 0.58975 0.34281 0.0
H1225 H 0.05705 0.60521 0.48856 0.0
H1226 H 0.03413 0.6195 0.47374 0.0
H1227 H 0.91353 0.57741 0.4068 0.0
H1228 H 0.94705 0.59483 0.36835 0.0
H1229 H 0.97653 0.62092 0.50057 0.0
H1230 H 0.94254 0.60358 0.53983 0.0
H1231 H 0.99555 0.602 0.44269 0.0
H1232 H 0.97278 0.6518 0.4297 0.0
H1233 H 0.94778 0.66304 0.41021 0.0
H1234 H 0.94695 0.64524 0.26672 0.0
H1235 H 0.97174 0.63362 0.28551 0.0
C1236 C 0.07976 0.66448 0.33192 0.0
C1237 C 0.08096 0.66604 0.28271 0.0
C1238 C 0.06072 0.65531 0.35487 0.0
C1239 C 0.04221 0.64687 0.32936 0.0
C1240 C 0.04329 0.64868 0.28008 0.0
C1241 C 0.06251 0.65826 0.25694 0.0
C1242 C 0.02193 0.63647 0.35465 0.0
C1243 C 0.00732 0.64259 0.34515 0.0
C1244 C 0.01747 0.62148 0.39015 0.0
C1245 C 0.03121 0.61283 0.39928 0.0
C1246 C 0.03704 0.60424 0.36255 0.0
C1247 C 0.0501 0.59626 0.37125 0.0
C1248 C 0.05733 0.59664 0.41663 0.0
C1249 C 0.05146 0.60495 0.45342 0.0
C1250 C 0.03841 0.61297 0.4449 0.0
C1251 C 0.92708 0.58679 0.42804 0.0
C1252 C 0.9253 0.58906 0.47658 0.0
C1253 C 0.94627 0.59683 0.40578 0.0
C1254 C 0.96429 0.6093 0.43141 0.0
C1255 C 0.96277 0.61139 0.48009 0.0
C1256 C 0.94337 0.60151 0.50247 0.0
C1257 C 0.98457 0.61991 0.40673 0.0
C1258 C 0.99907 0.61372 0.41618 0.0
C1259 C 0.98872 0.63448 0.37059 0.0
C1260 C 0.97399 0.64168 0.35912 0.0
C1261 C 0.96715 0.65014 0.39407 0.0
C1262 C 0.95304 0.6566 0.38313 0.0
C1263 C 0.94574 0.65481 0.33728 0.0
C1264 C 0.9526 0.64661 0.30223 0.0
C1265 C 0.9667 0.6401 0.313 0.0
H1266 H 0.93481 0.65982 0.32888 0.0
H1267 H 0.06744 0.59045 0.42329 0.0
H1268 H 0.38988 0.0637 0.39231 0.0
H1269 H 0.3723 0.03074 0.43513 0.0
H1270 H 0.42141 0.05491 0.5374 0.0
H1271 H 0.43901 0.08745 0.4948 0.0
H1272 H 0.41048 0.0164 0.51932 0.0
H1273 H 0.37512 0.05283 0.55873 0.0
H1274 H 0.35605 0.07128 0.54401 0.0
H1275 H 0.30729 0.01726 0.47765 0.0
H1276 H 0.32623 0.99856 0.49138 0.0
H1277 H 0.35481 0.94382 0.70574 0.0
H1278 H 0.37146 0.97717 0.66358 0.0
H1279 H 0.33286 0.94762 0.54334 0.0
H1280 H 0.31691 0.91443 0.58432 0.0
H1281 H 0.3381 0.98876 0.57219 0.0
H1282 H 0.37532 0.9532 0.53226 0.0
H1283 H 0.39459 0.93532 0.55118 0.0
H1284 H 0.44037 0.98919 0.62396 0.0
H1285 H 0.42115 0.00728 0.6061 0.0
C1286 C 0.39703 0.06184 0.42354 0.0
C1287 C 0.41581 0.07825 0.44016 0.0
C1288 C 0.3869 0.04306 0.44825 0.0
C1289 C 0.39535 0.04037 0.49004 0.0
C1290 C 0.41449 0.05651 0.50546 0.0
C1291 C 0.42454 0.07519 0.48099 0.0
C1292 C 0.38424 0.02107 0.51856 0.0
C1293 C 0.39473 0.01055 0.5312 0.0
C1294 C 0.36361 0.01319 0.53408 0.0
C1295 C 0.35221 0.02438 0.52557 0.0
C1296 C 0.36042 0.04494 0.5406 0.0
C1297 C 0.34962 0.05543 0.53251 0.0
C1298 C 0.3305 0.04547 0.50977 0.0
C1299 C 0.32212 0.02497 0.49517 0.0
C1300 C 0.33288 0.01442 0.50311 0.0
C1301 C 0.34973 0.94461 0.67062 0.0
C1302 C 0.33461 0.92662 0.64822 0.0
C1303 C 0.35926 0.96357 0.64653 0.0
C1304 C 0.35337 0.96484 0.60028 0.0
C1305 C 0.33759 0.94703 0.57894 0.0
C1306 C 0.32854 0.92809 0.60238 0.0
C1307 C 0.36439 0.9843 0.57273 0.0
C1308 C 0.35387 0.99476 0.56028 0.0
C1309 C 0.38504 0.99227 0.55783 0.0
C1310 C 0.39666 0.98148 0.56842 0.0
C1311 C 0.38937 0.96115 0.55275 0.0
C1312 C 0.40031 0.95099 0.56318 0.0
C1313 C 0.41865 0.96108 0.58892 0.0
C1314 C 0.42613 0.98138 0.60414 0.0
C1315 C 0.41522 0.99159 0.59387 0.0
H1316 H 0.42711 0.9532 0.59694 0.0
H1317 H 0.32215 0.05361 0.50358 0.0
H1318 H 0.30897 0.39266 0.6507 0.0
H1319 H 0.32474 0.3754 0.69218 0.0
H1320 H 0.37667 0.40306 0.59735 0.0
H1321 H 0.36028 0.41972 0.55445 0.0
H1322 H 0.36805 0.36499 0.61961 0.0
H1323 H 0.37779 0.42394 0.70846 0.0
H1324 H 0.36642 0.4458 0.74846 0.0
H1325 H 0.32851 0.39581 0.84148 0.0
H1326 H 0.33947 0.37356 0.80165 0.0
H1327 H 0.43971 0.35538 0.76083 0.0
H1328 H 0.42159 0.3697 0.71793 0.0
H1329 H 0.37007 0.33965 0.81319 0.0
H1330 H 0.38848 0.32546 0.8572 0.0
H1331 H 0.37749 0.37781 0.79102 0.0
H1332 H 0.36911 0.31929 0.70379 0.0
H1333 H 0.38047 0.29758 0.66303 0.0
H1334 H 0.416 0.34693 0.56655 0.0
H1335 H 0.40512 0.36906 0.60717 0.0
C1336 C 0.32352 0.39462 0.63806 0.0
C1337 C 0.33336 0.40732 0.59924 0.0
C1338 C 0.33265 0.38496 0.66211 0.0
C1339 C 0.3522 0.38833 0.64882 0.0
C1340 C 0.36164 0.40028 0.60852 0.0
C1341 C 0.35227 0.40972 0.58386 0.0
C1342 C 0.36304 0.38009 0.6782 0.0
C1343 C 0.37034 0.36803 0.65696 0.0
C1344 C 0.36564 0.38357 0.72731 0.0
C1345 C 0.35932 0.39704 0.75183 0.0
C1346 C 0.36696 0.41758 0.73731 0.0
C1347 C 0.36059 0.43004 0.75996 0.0
C1348 C 0.34672 0.42218 0.79742 0.0
C1349 C 0.33925 0.40187 0.81243 0.0
C1350 C 0.34555 0.38934 0.78988 0.0
C1351 C 0.42459 0.35194 0.77308 0.0
C1352 C 0.41548 0.33914 0.81234 0.0
C1353 C 0.41417 0.36005 0.74821 0.0
C1354 C 0.3942 0.35535 0.76144 0.0
C1355 C 0.38539 0.34336 0.80198 0.0
C1356 C 0.39594 0.3353 0.82723 0.0
C1357 C 0.38259 0.3628 0.73238 0.0
C1358 C 0.37515 0.37472 0.75369 0.0
C1359 C 0.37991 0.35922 0.68333 0.0
C1360 C 0.38643 0.34589 0.65879 0.0
C1361 C 0.37947 0.32557 0.6741 0.0
C1362 C 0.38581 0.31318 0.65099 0.0
C1363 C 0.39897 0.32088 0.61227 0.0
C1364 C 0.40581 0.34099 0.59657 0.0
C1365 C 0.39956 0.35345 0.6196 0.0
H1366 H 0.40383 0.31128 0.59434 0.0
H1367 H 0.34179 0.43184 0.81487 0.0
loop_
_geom_bond_atom_site_label_1
_geom_bond_atom_site_label_2
_geom_bond_distance
_geom_bond_site_symmetry_2
_ccdc_geom_bond_type
Co0 O1 2.216 1_554 S
Co0 O2 2.091 . S
Co0 O4 2.004 . S
Co0 O10 2.021 . S
Co0 O12 2.137 1_554 S
Co0 O13 2.244 1_554 S
O1 Co0 2.216 1_556 S
O1 C8 1.247 . S
O2 Co0 2.091 . S
O2 C8 1.261 1_554 S
C3 O12 1.247 . S
C3 O13 1.272 . S
O4 Co0 2.004 . S
O4 C9 1.259 . S
Co5 O6 2.061 . S
Co5 O11 2.052 . S
Co5 O13 2.135 1_554 S
O6 Co5 2.061 . S
O6 C9 1.235 . S
C7 O10 1.238 . S
C7 O11 1.241 . S
C8 O1 1.247 . S
C8 O2 1.261 1_556 S
C9 O4 1.259 . S
C9 O6 1.235 . S
O10 Co0 2.021 . S
O10 C7 1.238 . S
O11 Co5 2.052 . S
O11 C7 1.241 . S
O12 Co0 2.137 1_556 S
O12 C3 1.247 . S
O13 Co0 2.244 1_556 S
O13 C3 1.272 . S
O13 Co5 2.135 1_556 S
Co14 O15 2.216 . S
Co14 O16 2.091 . S
Co14 O18 2.004 . S
Co14 O24 2.021 . S
Co14 O26 2.137 . S
Co14 O27 2.244 . S
O15 Co14 2.216 . S
O15 C22 1.247 . S
O16 Co14 2.091 . S
O16 C22 1.261 . S
C17 O26 1.247 . S
C17 O27 1.272 . S
O18 Co14 2.004 . S
O18 C23 1.259 . S
Co19 O20 2.061 . S
Co19 O25 2.052 . S
Co19 O27 2.135 . S
O20 Co19 2.061 . S
O20 C23 1.235 . S
C21 O24 1.238 . S
C21 O25 1.241 . S
C22 O15 1.247 . S
C22 O16 1.261 . S
C23 O18 1.259 . S
C23 O20 1.235 . S
O24 Co14 2.021 . S
O24 C21 1.238 . S
O25 Co19 2.052 . S
O25 C21 1.241 . S
O26 Co14 2.137 . S
O26 C17 1.247 . S
O27 Co14 2.244 . S
O27 C17 1.272 . S
O27 Co19 2.135 . S
Co28 O29 2.216 . S
Co28 O30 2.091 . S
Co28 O32 2.004 . S
Co28 O38 2.021 . S
Co28 O40 2.137 . S
Co28 O41 2.244 . S
O29 Co28 2.216 . S
O29 C36 1.247 . S
O30 Co28 2.091 . S
O30 C36 1.261 . S
C31 O40 1.247 . S
C31 O41 1.272 . S
O32 Co28 2.004 . S
O32 C37 1.259 . S
Co33 O34 2.061 . S
Co33 O39 2.052 . S
Co33 O41 2.135 . S
O34 Co33 2.061 . S
O34 C37 1.235 . S
C35 O38 1.238 . S
C35 O39 1.241 . S
C36 O29 1.247 . S
C36 O30 1.261 . S
C37 O32 1.259 . S
C37 O34 1.235 . S
O38 Co28 2.021 . S
O38 C35 1.238 . S
O39 Co33 2.052 . S
O39 C35 1.241 . S
O40 Co28 2.137 . S
O40 C31 1.247 . S
O41 Co28 2.244 . S
O41 C31 1.272 . S
O41 Co33 2.135 . S
Co42 O43 2.216 . S
Co42 O44 2.091 . S
Co42 O46 2.004 . S
Co42 O52 2.021 . S
Co42 O54 2.137 . S
Co42 O55 2.244 . S
O43 Co42 2.216 . S
O43 C50 1.247 . S
O44 Co42 2.091 . S
O44 C50 1.261 . S
C45 O54 1.247 . S
C45 O55 1.272 . S
O46 Co42 2.004 . S
O46 C51 1.259 . S
Co47 O48 2.061 . S
Co47 O53 2.052 . S
Co47 O55 2.135 . S
O48 Co47 2.061 . S
O48 C51 1.235 . S
C49 O52 1.238 . S
C49 O53 1.241 . S
C50 O43 1.247 . S
C50 O44 1.261 . S
C51 O46 1.259 . S
C51 O48 1.235 . S
O52 Co42 2.021 . S
O52 C49 1.238 . S
O53 Co47 2.052 . S
O53 C49 1.241 . S
O54 Co42 2.137 . S
O54 C45 1.247 . S
O55 Co42 2.244 . S
O55 C45 1.272 . S
O55 Co47 2.135 . S
Co56 O57 2.216 . S
Co56 O58 2.091 . S
Co56 O60 2.004 . S
Co56 O66 2.021 . S
Co56 O68 2.137 . S
Co56 O69 2.244 . S
O57 Co56 2.216 . S
O57 C64 1.247 . S
O58 Co56 2.091 . S
O58 C64 1.261 . S
C59 O68 1.247 . S
C59 O69 1.272 . S
O60 Co56 2.004 . S
O60 C65 1.259 . S
Co61 O62 2.061 . S
Co61 O67 2.052 . S
Co61 O69 2.135 . S
O62 Co61 2.061 . S
O62 C65 1.235 . S
C63 O66 1.238 . S
C63 O67 1.241 . S
C64 O57 1.247 . S
C64 O58 1.261 . S
C65 O60 1.259 . S
C65 O62 1.235 . S
O66 Co56 2.021 . S
O66 C63 1.238 . S
O67 Co61 2.052 . S
O67 C63 1.241 . S
O68 Co56 2.137 . S
O68 C59 1.247 . S
O69 Co56 2.244 . S
O69 C59 1.272 . S
O69 Co61 2.135 . S
Co70 O71 2.216 . S
Co70 O72 2.091 . S
Co70 O74 2.004 . S
Co70 O80 2.021 . S
Co70 O82 2.137 . S
Co70 O83 2.244 . S
O71 Co70 2.216 . S
O71 C78 1.247 . S
O72 Co70 2.091 . S
O72 C78 1.261 . S
C73 O82 1.247 . S
C73 O83 1.272 . S
O74 Co70 2.004 . S
O74 C79 1.259 . S
Co75 O76 2.061 . S
Co75 O81 2.052 . S
Co75 O83 2.135 . S
O76 Co75 2.061 . S
O76 C79 1.235 . S
C77 O80 1.238 . S
C77 O81 1.241 . S
C78 O71 1.247 . S
C78 O72 1.261 . S
C79 O74 1.259 . S
C79 O76 1.235 . S
O80 Co70 2.021 . S
O80 C77 1.238 . S
O81 Co75 2.052 . S
O81 C77 1.241 . S
O82 Co70 2.137 . S
O82 C73 1.247 . S
O83 Co70 2.244 . S
O83 C73 1.272 . S
O83 Co75 2.135 . S
Co84 O85 2.216 . S
Co84 O86 2.091 . S
Co84 O88 2.004 . S
Co84 O94 2.021 . S
Co84 O96 2.137 . S
Co84 O97 2.244 . S
O85 Co84 2.216 . S
O85 C92 1.247 . S
O86 Co84 2.091 . S
O86 C92 1.261 . S
C87 O96 1.247 . S
C87 O97 1.272 . S
O88 Co84 2.004 . S
O88 C93 1.259 . S
Co89 O90 2.061 . S
Co89 O95 2.052 . S
Co89 O97 2.135 . S
O90 Co89 2.061 . S
O90 C93 1.235 . S
C91 O94 1.238 . S
C91 O95 1.241 . S
C92 O85 1.247 . S
C92 O86 1.261 . S
C93 O88 1.259 . S
C93 O90 1.235 . S
O94 Co84 2.021 . S
O94 C91 1.238 . S
O95 Co89 2.052 . S
O95 C91 1.241 . S
O96 Co84 2.137 . S
O96 C87 1.247 . S
O97 Co84 2.244 . S
O97 C87 1.272 . S
O97 Co89 2.135 . S
Co98 O99 2.216 . S
Co98 O100 2.091 . S
Co98 O102 2.004 1_554 S
Co98 O108 2.021 . S
Co98 O110 2.137 . S
Co98 O111 2.244 . S
O99 Co98 2.216 . S
O99 C106 1.247 . S
O100 Co98 2.091 . S
O100 C106 1.261 . S
C101 O110 1.247 . S
C101 O111 1.272 . S
O102 Co98 2.004 1_556 S
O102 C107 1.259 . S
Co103 O104 2.061 1_554 S
Co103 O109 2.052 . S
Co103 O111 2.135 . S
O104 Co103 2.061 1_556 S
O104 C107 1.235 . S
C105 O108 1.238 . S
C105 O109 1.241 . S
C106 O99 1.247 . S
C106 O100 1.261 . S
C107 O102 1.259 . S
C107 O104 1.235 . S
O108 Co98 2.021 . S
O108 C105 1.238 . S
O109 Co103 2.052 . S
O109 C105 1.241 . S
O110 Co98 2.137 . S
O110 C101 1.247 . S
O111 Co98 2.244 . S
O111 C101 1.272 . S
O111 Co103 2.135 . S
Co112 O113 2.216 . S
Co112 O114 2.091 . S
Co112 O116 2.004 . S
Co112 O122 2.021 . S
Co112 O124 2.137 . S
Co112 O125 2.244 . S
O113 Co112 2.216 . S
O113 C120 1.247 . S
O114 Co112 2.091 . S
O114 C120 1.261 . S
C115 O124 1.247 . S
C115 O125 1.272 . S
O116 Co112 2.004 . S
O116 C121 1.259 . S
Co117 O118 2.061 . S
Co117 O123 2.052 . S
Co117 O125 2.135 . S
O118 Co117 2.061 . S
O118 C121 1.235 . S
C119 O122 1.238 . S
C119 O123 1.241 . S
C120 O113 1.247 . S
C120 O114 1.261 . S
C121 O116 1.259 . S
C121 O118 1.235 . S
O122 Co112 2.021 . S
O122 C119 1.238 . S
O123 Co117 2.052 . S
O123 C119 1.241 . S
O124 Co112 2.137 . S
O124 C115 1.247 . S
O125 Co112 2.244 . S
O125 C115 1.272 . S
O125 Co117 2.135 . S
Co126 O127 2.216 . S
Co126 O128 2.091 . S
Co126 O130 2.004 . S
Co126 O136 2.021 . S
Co126 O138 2.137 . S
Co126 O139 2.244 . S
O127 Co126 2.216 . S
O127 C134 1.247 . S
O128 Co126 2.091 . S
O128 C134 1.261 . S
C129 O138 1.247 . S
C129 O139 1.272 . S
O130 Co126 2.004 . S
O130 C135 1.259 . S
Co131 O132 2.061 . S
Co131 O137 2.052 . S
Co131 O139 2.135 . S
O132 Co131 2.061 . S
O132 C135 1.235 . S
C133 O136 1.238 . S
C133 O137 1.241 . S
C134 O127 1.247 . S
C134 O128 1.261 . S
C135 O130 1.259 . S
C135 O132 1.235 . S
O136 Co126 2.021 . S
O136 C133 1.238 . S
O137 Co131 2.052 . S
O137 C133 1.241 . S
O138 Co126 2.137 . S
O138 C129 1.247 . S
O139 Co126 2.244 . S
O139 C129 1.272 . S
O139 Co131 2.135 . S
Co140 O141 2.216 . S
Co140 O142 2.091 . S
Co140 O144 2.004 . S
Co140 O150 2.021 . S
Co140 O152 2.137 . S
Co140 O153 2.244 . S
O141 Co140 2.216 . S
O141 C148 1.247 . S
O142 Co140 2.091 . S
O142 C148 1.261 . S
C143 O152 1.247 . S
C143 O153 1.272 . S
O144 Co140 2.004 . S
O144 C149 1.259 . S
Co145 O146 2.061 . S
Co145 O151 2.052 . S
Co145 O153 2.135 . S
O146 Co145 2.061 . S
O146 C149 1.235 . S
C147 O150 1.238 . S
C147 O151 1.241 . S
C148 O141 1.247 . S
C148 O142 1.261 . S
C149 O144 1.259 . S
C149 O146 1.235 . S
O150 Co140 2.021 . S
O150 C147 1.238 . S
O151 Co145 2.052 . S
O151 C147 1.241 . S
O152 Co140 2.137 . S
O152 C143 1.247 . S
O153 Co140 2.244 . S
O153 C143 1.272 . S
O153 Co145 2.135 . S
Co154 O155 2.216 . S
Co154 O156 2.091 . S
Co154 O158 2.004 . S
Co154 O164 2.021 . S
Co154 O166 2.137 . S
Co154 O167 2.244 . S
O155 Co154 2.216 . S
O155 C162 1.247 . S
O156 Co154 2.091 . S
O156 C162 1.261 . S
C157 O166 1.247 . S
C157 O167 1.272 . S
O158 Co154 2.004 . S
O158 C163 1.259 . S
Co159 O160 2.061 . S
Co159 O165 2.052 . S
Co159 O167 2.135 . S
O160 Co159 2.061 . S
O160 C163 1.235 . S
C161 O164 1.238 . S
C161 O165 1.241 . S
C162 O155 1.247 . S
C162 O156 1.261 . S
C163 O158 1.259 . S
C163 O160 1.235 . S
O164 Co154 2.021 . S
O164 C161 1.238 . S
O165 Co159 2.052 . S
O165 C161 1.241 . S
O166 Co154 2.137 . S
O166 C157 1.247 . S
O167 Co154 2.244 . S
O167 C157 1.272 . S
O167 Co159 2.135 . S
H168 C186 0.951 . S
H169 C188 0.951 . S
H170 C190 0.950 . S
H171 C191 0.950 . S
H172 C193 0.950 . S
H173 C196 0.950 . S
H174 C197 0.950 . S
H175 C199 0.950 . S
H176 C200 0.950 . S
H177 C201 0.951 . S
H178 C203 0.951 . S
H179 C205 0.950 . S
H180 C206 0.950 . S
H181 C208 0.950 . S
H182 C211 0.950 . S
H183 C212 0.950 . S
H184 C214 0.950 . S
H185 C215 0.950 . S
C186 H168 0.951 . S
C186 C187 1.366 . S
C186 C188 1.388 . S
C187 C186 1.366 . S
C187 C191 1.385 . S
C188 H169 0.951 . S
C188 C186 1.388 . S
C188 C189 1.366 . S
C189 C188 1.366 . S
C189 C190 1.414 . S
C189 C192 1.499 . S
C190 H170 0.950 . S
C190 C189 1.414 . S
C190 C191 1.374 . S
C191 H171 0.950 . S
C191 C187 1.385 . S
C191 C190 1.374 . S
C192 C189 1.499 . S
C192 C193 1.373 . S
C192 C194 1.389 . S
C193 H172 0.950 . S
C193 C192 1.373 . S
C193 C209 1.377 . S
C194 C192 1.389 . S
C194 C195 1.524 . S
C194 C208 1.377 . S
C195 C194 1.524 . S
C195 C196 1.397 . S
C195 C200 1.363 . S
C196 H173 0.950 . S
C196 C195 1.397 . S
C196 C197 1.334 . S
C197 H174 0.950 . S
C197 C196 1.334 . S
C197 C198 1.287 . S
C198 C197 1.287 . S
C198 C199 1.524 . S
C198 H217 0.913 . S
C199 H175 0.950 . S
C199 C198 1.524 . S
C199 C200 1.415 . S
C200 H176 0.950 . S
C200 C195 1.363 . S
C200 C199 1.415 . S
C201 H177 0.951 . S
C201 C202 1.366 . S
C201 C203 1.388 . S
C202 C201 1.366 . S
C202 C206 1.385 . S
C203 H178 0.951 . S
C203 C201 1.388 . S
C203 C204 1.366 . S
C204 C203 1.366 . S
C204 C205 1.414 . S
C204 C207 1.499 . S
C205 H179 0.950 . S
C205 C204 1.414 . S
C205 C206 1.374 . S
C206 H180 0.950 . S
C206 C202 1.385 . S
C206 C205 1.374 . S
C207 C204 1.499 . S
C207 C208 1.373 . S
C207 C209 1.389 . S
C208 H181 0.950 . S
C208 C194 1.377 . S
C208 C207 1.373 . S
C209 C193 1.377 . S
C209 C207 1.389 . S
C209 C210 1.524 . S
C210 C209 1.524 . S
C210 C211 1.397 . S
C210 C215 1.363 . S
C211 H182 0.950 . S
C211 C210 1.397 . S
C211 C212 1.334 . S
C212 H183 0.950 . S
C212 C211 1.334 . S
C212 C213 1.287 . S
C213 C212 1.287 . S
C213 C214 1.524 . S
C213 H216 0.999 . S
C214 H184 0.950 . S
C214 C213 1.524 . S
C214 C215 1.415 . S
C215 H185 0.950 . S
C215 C210 1.363 . S
C215 C214 1.415 . S
H216 C213 0.999 . S
H217 C198 0.913 . S
H218 C236 0.951 . S
H219 C238 0.951 . S
H220 C240 0.950 . S
H221 C241 0.950 . S
H222 C243 0.950 . S
H223 C246 0.950 . S
H224 C247 0.950 . S
H225 C249 0.950 . S
H226 C250 0.950 . S
H227 C251 0.951 . S
H228 C253 0.951 . S
H229 C255 0.950 . S
H230 C256 0.950 . S
H231 C258 0.950 . S
H232 C261 0.950 . S
H233 C262 0.950 . S
H234 C264 0.950 . S
H235 C265 0.950 . S
C236 H218 0.951 . S
C236 C237 1.366 . S
C236 C238 1.388 . S
C237 C236 1.366 . S
C237 C241 1.385 . S
C238 H219 0.951 . S
C238 C236 1.388 . S
C238 C239 1.366 . S
C239 C238 1.366 . S
C239 C240 1.414 . S
C239 C242 1.499 . S
C240 H220 0.950 . S
C240 C239 1.414 . S
C240 C241 1.374 . S
C241 H221 0.950 . S
C241 C237 1.385 . S
C241 C240 1.374 . S
C242 C239 1.499 . S
C242 C243 1.373 . S
C242 C244 1.389 . S
C243 H222 0.950 . S
C243 C242 1.373 . S
C243 C259 1.377 . S
C244 C242 1.389 . S
C244 C245 1.524 . S
C244 C258 1.377 . S
C245 C244 1.524 . S
C245 C246 1.397 . S
C245 C250 1.363 . S
C246 H223 0.950 . S
C246 C245 1.397 . S
C246 C247 1.334 . S
C247 H224 0.950 . S
C247 C246 1.334 . S
C247 C248 1.287 . S
C248 C247 1.287 . S
C248 C249 1.524 . S
C248 H267 0.913 . S
C249 H225 0.950 . S
C249 C248 1.524 . S
C249 C250 1.415 . S
C250 H226 0.950 . S
C250 C245 1.363 . S
C250 C249 1.415 . S
C251 H227 0.951 . S
C251 C252 1.366 . S
C251 C253 1.388 . S
C252 C251 1.366 . S
C252 C256 1.385 . S
C253 H228 0.951 . S
C253 C251 1.388 . S
C253 C254 1.366 . S
C254 C253 1.366 . S
C254 C255 1.414 . S
C254 C257 1.499 . S
C255 H229 0.950 . S
C255 C254 1.414 . S
C255 C256 1.374 . S
C256 H230 0.950 . S
C256 C252 1.385 . S
C256 C255 1.374 . S
C257 C254 1.499 . S
C257 C258 1.373 . S
C257 C259 1.389 . S
C258 H231 0.950 . S
C258 C244 1.377 . S
C258 C257 1.373 . S
C259 C243 1.377 . S
C259 C257 1.389 . S
C259 C260 1.524 . S
C260 C259 1.524 . S
C260 C261 1.397 . S
C260 C265 1.363 . S
C261 H232 0.950 . S
C261 C260 1.397 . S
C261 C262 1.334 . S
C262 H233 0.950 . S
C262 C261 1.334 . S
C262 C263 1.287 . S
C263 C262 1.287 . S
C263 C264 1.524 . S
C263 H266 0.999 . S
C264 H234 0.950 . S
C264 C263 1.524 . S
C264 C265 1.415 . S
C265 H235 0.950 . S
C265 C260 1.363 . S
C265 C264 1.415 . S
H266 C263 0.999 . S
H267 C248 0.913 . S
H268 C286 0.951 . S
H269 C288 0.951 . S
H270 C290 0.950 . S
H271 C291 0.950 . S
H272 C293 0.950 . S
H273 C296 0.950 . S
H274 C297 0.950 . S
H275 C299 0.950 . S
H276 C300 0.950 . S
H277 C301 0.951 . S
H278 C303 0.951 . S
H279 C305 0.950 . S
H280 C306 0.950 . S
H281 C308 0.950 . S
H282 C311 0.950 . S
H283 C312 0.950 . S
H284 C314 0.950 . S
H285 C315 0.950 . S
C286 H268 0.951 . S
C286 C287 1.366 . S
C286 C288 1.388 . S
C287 C286 1.366 . S
C287 C291 1.385 . S
C288 H269 0.951 . S
C288 C286 1.388 . S
C288 C289 1.366 . S
C289 C288 1.366 . S
C289 C290 1.414 . S
C289 C292 1.499 . S
C290 H270 0.950 . S
C290 C289 1.414 . S
C290 C291 1.374 . S
C291 H271 0.950 . S
C291 C287 1.385 . S
C291 C290 1.374 . S
C292 C289 1.499 . S
C292 C293 1.373 . S
C292 C294 1.389 . S
C293 H272 0.950 . S
C293 C292 1.373 . S
C293 C309 1.377 . S
C294 C292 1.389 . S
C294 C295 1.524 . S
C294 C308 1.377 . S
C295 C294 1.524 . S
C295 C296 1.397 . S
C295 C300 1.363 . S
C296 H273 0.950 . S
C296 C295 1.397 . S
C296 C297 1.334 . S
C297 H274 0.950 . S
C297 C296 1.334 . S
C297 C298 1.287 . S
C298 C297 1.287 . S
C298 C299 1.524 . S
C298 H317 0.913 . S
C299 H275 0.950 . S
C299 C298 1.524 . S
C299 C300 1.415 . S
C300 H276 0.950 . S
C300 C295 1.363 . S
C300 C299 1.415 . S
C301 H277 0.951 . S
C301 C302 1.366 . S
C301 C303 1.388 . S
C302 C301 1.366 . S
C302 C306 1.385 . S
C303 H278 0.951 . S
C303 C301 1.388 . S
C303 C304 1.366 . S
C304 C303 1.366 . S
C304 C305 1.414 . S
C304 C307 1.499 . S
C305 H279 0.950 . S
C305 C304 1.414 . S
C305 C306 1.374 . S
C306 H280 0.950 . S
C306 C302 1.385 . S
C306 C305 1.374 . S
C307 C304 1.499 . S
C307 C308 1.373 . S
C307 C309 1.389 . S
C308 H281 0.950 . S
C308 C294 1.377 . S
C308 C307 1.373 . S
C309 C293 1.377 . S
C309 C307 1.389 . S
C309 C310 1.524 . S
C310 C309 1.524 . S
C310 C311 1.397 . S
C310 C315 1.363 . S
C311 H282 0.950 . S
C311 C310 1.397 . S
C311 C312 1.334 . S
C312 H283 0.950 . S
C312 C311 1.334 . S
C312 C313 1.287 . S
C313 C312 1.287 . S
C313 C314 1.524 . S
C313 H316 0.999 . S
C314 H284 0.950 . S
C314 C313 1.524 . S
C314 C315 1.415 . S
C315 H285 0.950 . S
C315 C310 1.363 . S
C315 C314 1.415 . S
H316 C313 0.999 . S
H317 C298 0.913 . S
H318 C336 0.951 . S
H319 C338 0.951 . S
H320 C340 0.950 . S
H321 C341 0.950 . S
H322 C343 0.950 . S
H323 C346 0.950 . S
H324 C347 0.950 . S
H325 C349 0.950 . S
H326 C350 0.950 . S
H327 C351 0.951 . S
H328 C353 0.951 . S
H329 C355 0.950 . S
H330 C356 0.950 . S
H331 C358 0.950 . S
H332 C361 0.950 . S
H333 C362 0.950 . S
H334 C364 0.950 . S
H335 C365 0.950 . S
C336 H318 0.951 . S
C336 C337 1.366 . S
C336 C338 1.388 . S
C337 C336 1.366 . S
C337 C341 1.385 . S
C338 H319 0.951 . S
C338 C336 1.388 . S
C338 C339 1.366 . S
C339 C338 1.366 . S
C339 C340 1.414 . S
C339 C342 1.499 . S
C340 H320 0.950 . S
C340 C339 1.414 . S
C340 C341 1.374 . S
C341 H321 0.950 . S
C341 C337 1.385 . S
C341 C340 1.374 . S
C342 C339 1.499 . S
C342 C343 1.373 . S
C342 C344 1.389 . S
C343 H322 0.950 . S
C343 C342 1.373 . S
C343 C359 1.377 . S
C344 C342 1.389 . S
C344 C345 1.524 . S
C344 C358 1.377 . S
C345 C344 1.524 . S
C345 C346 1.397 . S
C345 C350 1.363 . S
C346 H323 0.950 . S
C346 C345 1.397 . S
C346 C347 1.334 . S
C347 H324 0.950 . S
C347 C346 1.334 . S
C347 C348 1.287 . S
C348 C347 1.287 . S
C348 C349 1.524 . S
C348 H367 0.913 . S
C349 H325 0.950 . S
C349 C348 1.524 . S
C349 C350 1.415 . S
C350 H326 0.950 . S
C350 C345 1.363 . S
C350 C349 1.415 . S
C351 H327 0.951 . S
C351 C352 1.366 . S
C351 C353 1.388 . S
C352 C351 1.366 . S
C352 C356 1.385 . S
C353 H328 0.951 . S
C353 C351 1.388 . S
C353 C354 1.366 . S
C354 C353 1.366 . S
C354 C355 1.414 . S
C354 C357 1.499 . S
C355 H329 0.950 . S
C355 C354 1.414 . S
C355 C356 1.374 . S
C356 H330 0.950 . S
C356 C352 1.385 . S
C356 C355 1.374 . S
C357 C354 1.499 . S
C357 C358 1.373 . S
C357 C359 1.389 . S
C358 H331 0.950 . S
C358 C344 1.377 . S
C358 C357 1.373 . S
C359 C343 1.377 . S
C359 C357 1.389 . S
C359 C360 1.524 . S
C360 C359 1.524 . S
C360 C361 1.397 . S
C360 C365 1.363 . S
C361 H332 0.950 . S
C361 C360 1.397 . S
C361 C362 1.334 . S
C362 H333 0.950 . S
C362 C361 1.334 . S
C362 C363 1.287 . S
C363 C362 1.287 . S
C363 C364 1.524 . S
C363 H366 0.999 . S
C364 H334 0.950 . S
C364 C363 1.524 . S
C364 C365 1.415 . S
C365 H335 0.950 . S
C365 C360 1.363 . S
C365 C364 1.415 . S
H366 C363 0.999 . S
H367 C348 0.913 . S
H368 C386 0.951 . S
H369 C388 0.951 . S
H370 C390 0.950 . S
H371 C391 0.950 . S
H372 C393 0.950 . S
H373 C396 0.950 . S
H374 C397 0.950 . S
H375 C399 0.950 . S
H376 C400 0.950 . S
H377 C401 0.951 . S
H378 C403 0.951 . S
H379 C405 0.950 . S
H380 C406 0.950 . S
H381 C408 0.950 . S
H382 C411 0.950 . S
H383 C412 0.950 . S
H384 C414 0.950 . S
H385 C415 0.950 . S
C386 H368 0.951 . S
C386 C387 1.366 . S
C386 C388 1.388 . S
C387 C386 1.366 . S
C387 C391 1.385 . S
C388 H369 0.951 . S
C388 C386 1.388 . S
C388 C389 1.366 . S
C389 C388 1.366 . S
C389 C390 1.414 . S
C389 C392 1.499 . S
C390 H370 0.950 . S
C390 C389 1.414 . S
C390 C391 1.374 . S
C391 H371 0.950 . S
C391 C387 1.385 . S
C391 C390 1.374 . S
C392 C389 1.499 . S
C392 C393 1.373 . S
C392 C394 1.389 . S
C393 H372 0.950 . S
C393 C392 1.373 . S
C393 C409 1.377 . S
C394 C392 1.389 . S
C394 C395 1.524 . S
C394 C408 1.377 . S
C395 C394 1.524 . S
C395 C396 1.397 . S
C395 C400 1.363 . S
C396 H373 0.950 . S
C396 C395 1.397 . S
C396 C397 1.334 . S
C397 H374 0.950 . S
C397 C396 1.334 . S
C397 C398 1.287 . S
C398 C397 1.287 . S
C398 C399 1.524 . S
C398 H417 0.913 . S
C399 H375 0.950 . S
C399 C398 1.524 . S
C399 C400 1.415 . S
C400 H376 0.950 . S
C400 C395 1.363 . S
C400 C399 1.415 . S
C401 H377 0.951 . S
C401 C402 1.366 . S
C401 C403 1.388 . S
C402 C401 1.366 . S
C402 C406 1.385 . S
C403 H378 0.951 . S
C403 C401 1.388 . S
C403 C404 1.366 . S
C404 C403 1.366 . S
C404 C405 1.414 . S
C404 C407 1.499 1_554 S
C405 H379 0.950 . S
C405 C404 1.414 . S
C405 C406 1.374 . S
C406 H380 0.950 . S
C406 C402 1.385 . S
C406 C405 1.374 . S
C407 C404 1.499 1_556 S
C407 C408 1.373 . S
C407 C409 1.389 . S
C408 H381 0.950 . S
C408 C394 1.377 . S
C408 C407 1.373 . S
C409 C393 1.377 . S
C409 C407 1.389 . S
C409 C410 1.524 1_556 S
C410 C409 1.524 1_554 S
C410 C411 1.397 . S
C410 C415 1.363 . S
C411 H382 0.950 . S
C411 C410 1.397 . S
C411 C412 1.334 . S
C412 H383 0.950 . S
C412 C411 1.334 . S
C412 C413 1.287 . S
C413 C412 1.287 . S
C413 C414 1.524 . S
C413 H416 0.999 . S
C414 H384 0.950 . S
C414 C413 1.524 . S
C414 C415 1.415 . S
C415 H385 0.950 . S
C415 C410 1.363 . S
C415 C414 1.415 . S
H416 C413 0.999 . S
H417 C398 0.913 . S
H418 C436 0.951 . S
H419 C438 0.951 . S
H420 C440 0.950 . S
H421 C441 0.950 . S
H422 C443 0.950 . S
H423 C446 0.950 . S
H424 C447 0.950 . S
H425 C449 0.950 . S
H426 C450 0.950 . S
H427 C451 0.951 . S
H428 C453 0.951 1_556 S
H429 C455 0.950 . S
H430 C456 0.950 . S
H431 C458 0.950 . S
H432 C461 0.950 . S
H433 C462 0.950 . S
H434 C464 0.949 . S
H435 C465 0.950 . S
C436 H418 0.951 . S
C436 C437 1.366 . S
C436 C438 1.388 . S
C437 C436 1.366 . S
C437 C441 1.385 . S
C438 H419 0.951 . S
C438 C436 1.388 . S
C438 C439 1.366 . S
C439 C438 1.366 . S
C439 C440 1.414 . S
C439 C442 1.499 . S
C440 H420 0.950 . S
C440 C439 1.414 . S
C440 C441 1.374 . S
C441 H421 0.950 . S
C441 C437 1.385 . S
C441 C440 1.374 . S
C442 C439 1.499 . S
C442 C443 1.373 . S
C442 C444 1.389 . S
C443 H422 0.950 . S
C443 C442 1.373 . S
C443 C459 1.377 . S
C444 C442 1.389 . S
C444 C445 1.524 . S
C444 C458 1.377 . S
C445 C444 1.524 . S
C445 C446 1.397 . S
C445 C450 1.363 . S
C446 H423 0.950 . S
C446 C445 1.397 . S
C446 C447 1.334 . S
C447 H424 0.950 . S
C447 C446 1.334 . S
C447 C448 1.287 . S
C448 C447 1.287 . S
C448 C449 1.524 . S
C448 H467 0.913 . S
C449 H425 0.950 . S
C449 C448 1.524 . S
C449 C450 1.415 . S
C450 H426 0.950 . S
C450 C445 1.363 . S
C450 C449 1.415 . S
C451 H427 0.951 . S
C451 C452 1.366 . S
C451 C453 1.388 1_556 S
C452 C451 1.366 . S
C452 C456 1.385 1_556 S
C453 H428 0.951 1_554 S
C453 C451 1.388 1_554 S
C453 C454 1.366 . S
C454 C453 1.366 . S
C454 C455 1.414 . S
C454 C457 1.499 . S
C455 H429 0.950 . S
C455 C454 1.414 . S
C455 C456 1.374 . S
C456 H430 0.950 . S
C456 C452 1.385 1_554 S
C456 C455 1.374 . S
C457 C454 1.499 . S
C457 C458 1.373 . S
C457 C459 1.389 . S
C458 H431 0.950 . S
C458 C444 1.377 . S
C458 C457 1.373 . S
C459 C443 1.377 . S
C459 C457 1.389 . S
C459 C460 1.524 . S
C460 C459 1.524 . S
C460 C461 1.397 . S
C460 C465 1.363 . S
C461 H432 0.950 . S
C461 C460 1.397 . S
C461 C462 1.334 . S
C462 H433 0.950 . S
C462 C461 1.334 . S
C462 C463 1.276 1_554 S
C463 C462 1.276 1_556 S
C463 C464 1.524 . S
C463 H466 1.013 . S
C464 H434 0.949 . S
C464 C463 1.524 . S
C464 C465 1.416 1_556 S
C465 H435 0.950 . S
C465 C460 1.363 . S
C465 C464 1.416 1_554 S
H466 C463 1.013 . S
H467 C448 0.913 . S
H468 C486 0.951 . S
H469 C488 0.951 . S
H470 C490 0.950 . S
H471 C491 0.950 . S
H472 C493 0.950 . S
H473 C496 0.950 . S
H474 C497 0.950 . S
H475 C499 0.950 . S
H476 C500 0.950 . S
H477 C501 0.951 . S
H478 C503 0.951 . S
H479 C505 0.950 . S
H480 C506 0.950 . S
H481 C508 0.950 . S
H482 C511 0.950 . S
H483 C512 0.950 . S
H484 C514 0.950 . S
H485 C515 0.950 . S
C486 H468 0.951 . S
C486 C487 1.366 . S
C486 C488 1.388 . S
C487 C486 1.366 . S
C487 C491 1.385 . S
C488 H469 0.951 . S
C488 C486 1.388 . S
C488 C489 1.366 . S
C489 C488 1.366 . S
C489 C490 1.414 . S
C489 C492 1.499 . S
C490 H470 0.950 . S
C490 C489 1.414 . S
C490 C491 1.374 . S
C491 H471 0.950 . S
C491 C487 1.385 . S
C491 C490 1.374 . S
C492 C489 1.499 . S
C492 C493 1.373 . S
C492 C494 1.389 . S
C493 H472 0.950 . S
C493 C492 1.373 . S
C493 C509 1.377 . S
C494 C492 1.389 . S
C494 C495 1.524 . S
C494 C508 1.377 . S
C495 C494 1.524 . S
C495 C496 1.397 . S
C495 C500 1.363 . S
C496 H473 0.950 . S
C496 C495 1.397 . S
C496 C497 1.334 . S
C497 H474 0.950 . S
C497 C496 1.334 . S
C497 C498 1.287 . S
C498 C497 1.287 . S
C498 C499 1.524 . S
C498 H517 0.913 . S
C499 H475 0.950 . S
C499 C498 1.524 . S
C499 C500 1.415 . S
C500 H476 0.950 . S
C500 C495 1.363 . S
C500 C499 1.415 . S
C501 H477 0.951 . S
C501 C502 1.366 . S
C501 C503 1.388 . S
C502 C501 1.366 . S
C502 C506 1.385 . S
C503 H478 0.951 . S
C503 C501 1.388 . S
C503 C504 1.366 . S
C504 C503 1.366 . S
C504 C505 1.414 . S
C504 C507 1.499 . S
C505 H479 0.950 . S
C505 C504 1.414 . S
C505 C506 1.374 . S
C506 H480 0.950 . S
C506 C502 1.385 . S
C506 C505 1.374 . S
C507 C504 1.499 . S
C507 C508 1.373 . S
C507 C509 1.389 . S
C508 H481 0.950 . S
C508 C494 1.377 . S
C508 C507 1.373 . S
C509 C493 1.377 . S
C509 C507 1.389 . S
C509 C510 1.524 . S
C510 C509 1.524 . S
C510 C511 1.397 . S
C510 C515 1.363 . S
C511 H482 0.950 . S
C511 C510 1.397 . S
C511 C512 1.334 . S
C512 H483 0.950 . S
C512 C511 1.334 . S
C512 C513 1.287 . S
C513 C512 1.287 . S
C513 C514 1.524 . S
C513 H516 0.999 . S
C514 H484 0.950 . S
C514 C513 1.524 . S
C514 C515 1.415 . S
C515 H485 0.950 . S
C515 C510 1.363 . S
C515 C514 1.415 . S
H516 C513 0.999 . S
H517 C498 0.913 . S
H518 C536 0.951 . S
H519 C538 0.951 . S
H520 C540 0.950 . S
H521 C541 0.950 . S
H522 C543 0.950 . S
H523 C546 0.950 . S
H524 C547 0.950 . S
H525 C549 0.950 . S
H526 C550 0.950 . S
H527 C551 0.951 . S
H528 C553 0.951 . S
H529 C555 0.950 . S
H530 C556 0.950 . S
H531 C558 0.950 . S
H532 C561 0.950 . S
H533 C562 0.950 . S
H534 C564 0.950 . S
H535 C565 0.950 . S
C536 H518 0.951 . S
C536 C537 1.366 . S
C536 C538 1.388 . S
C537 C536 1.366 . S
C537 C541 1.385 . S
C538 H519 0.951 . S
C538 C536 1.388 . S
C538 C539 1.366 . S
C539 C538 1.366 . S
C539 C540 1.414 . S
C539 C542 1.499 . S
C540 H520 0.950 . S
C540 C539 1.414 . S
C540 C541 1.374 . S
C541 H521 0.950 . S
C541 C537 1.385 . S
C541 C540 1.374 . S
C542 C539 1.499 . S
C542 C543 1.373 . S
C542 C544 1.389 . S
C543 H522 0.950 . S
C543 C542 1.373 . S
C543 C559 1.377 . S
C544 C542 1.389 . S
C544 C545 1.524 . S
C544 C558 1.377 . S
C545 C544 1.524 . S
C545 C546 1.397 . S
C545 C550 1.363 . S
C546 H523 0.950 . S
C546 C545 1.397 . S
C546 C547 1.334 . S
C547 H524 0.950 . S
C547 C546 1.334 . S
C547 C548 1.287 . S
C548 C547 1.287 . S
C548 C549 1.524 . S
C548 H567 0.913 . S
C549 H525 0.950 . S
C549 C548 1.524 . S
C549 C550 1.415 . S
C550 H526 0.950 . S
C550 C545 1.363 . S
C550 C549 1.415 . S
C551 H527 0.951 . S
C551 C552 1.366 . S
C551 C553 1.388 . S
C552 C551 1.366 . S
C552 C556 1.385 . S
C553 H528 0.951 . S
C553 C551 1.388 . S
C553 C554 1.366 . S
C554 C553 1.366 . S
C554 C555 1.414 . S
C554 C557 1.499 . S
C555 H529 0.950 . S
C555 C554 1.414 . S
C555 C556 1.374 . S
C556 H530 0.950 . S
C556 C552 1.385 . S
C556 C555 1.374 . S
C557 C554 1.499 . S
C557 C558 1.373 . S
C557 C559 1.389 . S
C558 H531 0.950 . S
C558 C544 1.377 . S
C558 C557 1.373 . S
C559 C543 1.377 . S
C559 C557 1.389 . S
C559 C560 1.524 . S
C560 C559 1.524 . S
C560 C561 1.397 . S
C560 C565 1.363 . S
C561 H532 0.950 . S
C561 C560 1.397 . S
C561 C562 1.334 . S
C562 H533 0.950 . S
C562 C561 1.334 . S
C562 C563 1.287 . S
C563 C562 1.287 . S
C563 C564 1.524 . S
C563 H566 0.999 . S
C564 H534 0.950 . S
C564 C563 1.524 . S
C564 C565 1.415 . S
C565 H535 0.950 . S
C565 C560 1.363 . S
C565 C564 1.415 . S
H566 C563 0.999 . S
H567 C548 0.913 . S
H568 C586 0.951 . S
H569 C588 0.951 . S
H570 C590 0.950 . S
H571 C591 0.950 . S
H572 C593 0.950 . S
H573 C596 0.950 . S
H574 C597 0.950 . S
H575 C599 0.950 . S
H576 C600 0.950 . S
H577 C601 0.951 . S
H578 C603 0.951 . S
H579 C605 0.950 . S
H580 C606 0.950 . S
H581 C608 0.950 . S
H582 C611 0.950 . S
H583 C612 0.950 . S
H584 C614 0.950 . S
H585 C615 0.950 . S
C586 H568 0.951 . S
C586 C587 1.366 . S
C586 C588 1.388 . S
C587 C586 1.366 . S
C587 C591 1.385 . S
C588 H569 0.951 . S
C588 C586 1.388 . S
C588 C589 1.366 . S
C589 C588 1.366 . S
C589 C590 1.414 . S
C589 C592 1.499 . S
C590 H570 0.950 . S
C590 C589 1.414 . S
C590 C591 1.374 . S
C591 H571 0.950 . S
C591 C587 1.385 . S
C591 C590 1.374 . S
C592 C589 1.499 . S
C592 C593 1.373 . S
C592 C594 1.389 . S
C593 H572 0.950 . S
C593 C592 1.373 . S
C593 C609 1.377 . S
C594 C592 1.389 . S
C594 C595 1.524 . S
C594 C608 1.377 . S
C595 C594 1.524 . S
C595 C596 1.397 . S
C595 C600 1.363 . S
C596 H573 0.950 . S
C596 C595 1.397 . S
C596 C597 1.334 . S
C597 H574 0.950 . S
C597 C596 1.334 . S
C597 C598 1.287 . S
C598 C597 1.287 . S
C598 C599 1.524 . S
C598 H617 0.913 . S
C599 H575 0.950 . S
C599 C598 1.524 . S
C599 C600 1.415 . S
C600 H576 0.950 . S
C600 C595 1.363 . S
C600 C599 1.415 . S
C601 H577 0.951 . S
C601 C602 1.366 . S
C601 C603 1.388 . S
C602 C601 1.366 . S
C602 C606 1.385 . S
C603 H578 0.951 . S
C603 C601 1.388 . S
C603 C604 1.366 . S
C604 C603 1.366 . S
C604 C605 1.414 . S
C604 C607 1.499 . S
C605 H579 0.950 . S
C605 C604 1.414 . S
C605 C606 1.374 . S
C606 H580 0.950 . S
C606 C602 1.385 . S
C606 C605 1.374 . S
C607 C604 1.499 . S
C607 C608 1.373 . S
C607 C609 1.389 . S
C608 H581 0.950 . S
C608 C594 1.377 . S
C608 C607 1.373 . S
C609 C593 1.377 . S
C609 C607 1.389 . S
C609 C610 1.524 . S
C610 C609 1.524 . S
C610 C611 1.397 . S
C610 C615 1.363 . S
C611 H582 0.950 . S
C611 C610 1.397 . S
C611 C612 1.334 . S
C612 H583 0.950 . S
C612 C611 1.334 . S
C612 C613 1.287 . S
C613 C612 1.287 . S
C613 C614 1.524 . S
C613 H616 0.999 . S
C614 H584 0.950 . S
C614 C613 1.524 . S
C614 C615 1.415 . S
C615 H585 0.950 . S
C615 C610 1.363 . S
C615 C614 1.415 . S
H616 C613 0.999 . S
H617 C598 0.913 . S
H618 C636 0.951 . S
H619 C638 0.951 . S
H620 C640 0.950 . S
H621 C641 0.950 . S
H622 C643 0.950 . S
H623 C646 0.950 . S
H624 C647 0.950 . S
H625 C649 0.950 . S
H626 C650 0.950 . S
H627 C651 0.951 . S
H628 C653 0.951 . S
H629 C655 0.950 . S
H630 C656 0.950 . S
H631 C658 0.950 . S
H632 C661 0.950 . S
H633 C662 0.950 . S
H634 C664 0.950 . S
H635 C665 0.950 . S
C636 H618 0.951 . S
C636 C637 1.366 . S
C636 C638 1.388 . S
C637 C636 1.366 . S
C637 C641 1.385 . S
C638 H619 0.951 . S
C638 C636 1.388 . S
C638 C639 1.366 . S
C639 C638 1.366 . S
C639 C640 1.414 . S
C639 C642 1.499 . S
C640 H620 0.950 . S
C640 C639 1.414 . S
C640 C641 1.374 . S
C641 H621 0.950 . S
C641 C637 1.385 . S
C641 C640 1.374 . S
C642 C639 1.499 . S
C642 C643 1.373 . S
C642 C644 1.389 . S
C643 H622 0.950 . S
C643 C642 1.373 . S
C643 C659 1.377 . S
C644 C642 1.389 . S
C644 C645 1.524 . S
C644 C658 1.377 . S
C645 C644 1.524 . S
C645 C646 1.397 . S
C645 C650 1.363 . S
C646 H623 0.950 . S
C646 C645 1.397 . S
C646 C647 1.334 . S
C647 H624 0.950 . S
C647 C646 1.334 . S
C647 C648 1.287 . S
C648 C647 1.287 . S
C648 C649 1.524 . S
C648 H667 0.913 . S
C649 H625 0.950 . S
C649 C648 1.524 . S
C649 C650 1.415 . S
C650 H626 0.950 . S
C650 C645 1.363 . S
C650 C649 1.415 . S
C651 H627 0.951 . S
C651 C652 1.366 . S
C651 C653 1.388 . S
C652 C651 1.366 . S
C652 C656 1.385 . S
C653 H628 0.951 . S
C653 C651 1.388 . S
C653 C654 1.366 . S
C654 C653 1.366 . S
C654 C655 1.414 . S
C654 C657 1.499 . S
C655 H629 0.950 . S
C655 C654 1.414 . S
C655 C656 1.374 . S
C656 H630 0.950 . S
C656 C652 1.385 . S
C656 C655 1.374 . S
C657 C654 1.499 . S
C657 C658 1.373 . S
C657 C659 1.389 . S
C658 H631 0.950 . S
C658 C644 1.377 . S
C658 C657 1.373 . S
C659 C643 1.377 . S
C659 C657 1.389 . S
C659 C660 1.524 . S
C660 C659 1.524 . S
C660 C661 1.397 . S
C660 C665 1.363 . S
C661 H632 0.950 . S
C661 C660 1.397 . S
C661 C662 1.334 . S
C662 H633 0.950 . S
C662 C661 1.334 . S
C662 C663 1.287 . S
C663 C662 1.287 . S
C663 C664 1.524 . S
C663 H666 0.999 . S
C664 H634 0.950 . S
C664 C663 1.524 . S
C664 C665 1.415 . S
C665 H635 0.950 . S
C665 C660 1.363 . S
C665 C664 1.415 . S
H666 C663 0.999 . S
H667 C648 0.913 . S
H668 C686 0.951 . S
H669 C688 0.951 . S
H670 C690 0.950 . S
H671 C691 0.950 . S
H672 C693 0.950 . S
H673 C696 0.950 . S
H674 C697 0.950 . S
H675 C699 0.950 . S
H676 C700 0.950 . S
H677 C701 0.951 . S
H678 C703 0.951 . S
H679 C705 0.950 . S
H680 C706 0.950 . S
H681 C708 0.950 . S
H682 C711 0.950 . S
H683 C712 0.950 . S
H684 C714 0.950 . S
H685 C715 0.950 . S
C686 H668 0.951 . S
C686 C687 1.366 . S
C686 C688 1.388 . S
C687 C686 1.366 . S
C687 C691 1.385 . S
C688 H669 0.951 . S
C688 C686 1.388 . S
C688 C689 1.366 . S
C689 C688 1.366 . S
C689 C690 1.414 . S
C689 C692 1.499 . S
C690 H670 0.950 . S
C690 C689 1.414 . S
C690 C691 1.374 . S
C691 H671 0.950 . S
C691 C687 1.385 . S
C691 C690 1.374 . S
C692 C689 1.499 . S
C692 C693 1.373 . S
C692 C694 1.389 . S
C693 H672 0.950 . S
C693 C692 1.373 . S
C693 C709 1.377 . S
C694 C692 1.389 . S
C694 C695 1.524 . S
C694 C708 1.377 . S
C695 C694 1.524 . S
C695 C696 1.397 . S
C695 C700 1.363 . S
C696 H673 0.950 . S
C696 C695 1.397 . S
C696 C697 1.334 . S
C697 H674 0.950 . S
C697 C696 1.334 . S
C697 C698 1.287 . S
C698 C697 1.287 . S
C698 C699 1.524 . S
C698 H717 0.913 . S
C699 H675 0.950 . S
C699 C698 1.524 . S
C699 C700 1.415 . S
C700 H676 0.950 . S
C700 C695 1.363 . S
C700 C699 1.415 . S
C701 H677 0.951 . S
C701 C702 1.366 . S
C701 C703 1.388 . S
C702 C701 1.366 . S
C702 C706 1.385 . S
C703 H678 0.951 . S
C703 C701 1.388 . S
C703 C704 1.366 . S
C704 C703 1.366 . S
C704 C705 1.414 . S
C704 C707 1.499 . S
C705 H679 0.950 . S
C705 C704 1.414 . S
C705 C706 1.374 . S
C706 H680 0.950 . S
C706 C702 1.385 . S
C706 C705 1.374 . S
C707 C704 1.499 . S
C707 C708 1.373 . S
C707 C709 1.389 . S
C708 H681 0.950 . S
C708 C694 1.377 . S
C708 C707 1.373 . S
C709 C693 1.377 . S
C709 C707 1.389 . S
C709 C710 1.524 . S
C710 C709 1.524 . S
C710 C711 1.397 . S
C710 C715 1.363 . S
C711 H682 0.950 . S
C711 C710 1.397 . S
C711 C712 1.334 . S
C712 H683 0.950 . S
C712 C711 1.334 . S
C712 C713 1.287 . S
C713 C712 1.287 . S
C713 C714 1.524 . S
C713 H716 0.999 . S
C714 H684 0.950 . S
C714 C713 1.524 . S
C714 C715 1.415 . S
C715 H685 0.950 . S
C715 C710 1.363 . S
C715 C714 1.415 . S
H716 C713 0.999 . S
H717 C698 0.913 . S
H718 C736 0.951 . S
H719 C738 0.951 . S
H720 C740 0.950 . S
H721 C741 0.950 . S
H722 C743 0.950 . S
H723 C746 0.950 . S
H724 C747 0.950 . S
H725 C749 0.950 . S
H726 C750 0.950 . S
H727 C751 0.951 . S
H728 C753 0.951 . S
H729 C755 0.950 . S
H730 C756 0.950 . S
H731 C758 0.950 . S
H732 C761 0.950 . S
H733 C762 0.950 . S
H734 C764 0.950 . S
H735 C765 0.950 . S
C736 H718 0.951 . S
C736 C737 1.366 . S
C736 C738 1.388 . S
C737 C736 1.366 . S
C737 C741 1.385 . S
C738 H719 0.951 . S
C738 C736 1.388 . S
C738 C739 1.366 . S
C739 C738 1.366 . S
C739 C740 1.414 . S
C739 C742 1.499 . S
C740 H720 0.950 . S
C740 C739 1.414 . S
C740 C741 1.374 . S
C741 H721 0.950 . S
C741 C737 1.385 . S
C741 C740 1.374 . S
C742 C739 1.499 . S
C742 C743 1.373 . S
C742 C744 1.389 . S
C743 H722 0.950 . S
C743 C742 1.373 . S
C743 C759 1.377 . S
C744 C742 1.389 . S
C744 C745 1.524 1_556 S
C744 C758 1.377 1_556 S
C745 C744 1.524 1_554 S
C745 C746 1.397 . S
C745 C750 1.363 . S
C746 H723 0.950 . S
C746 C745 1.397 . S
C746 C747 1.334 . S
C747 H724 0.950 . S
C747 C746 1.334 . S
C747 C748 1.287 . S
C748 C747 1.287 . S
C748 C749 1.524 . S
C748 H767 0.913 . S
C749 H725 0.950 . S
C749 C748 1.524 . S
C749 C750 1.415 . S
C750 H726 0.950 . S
C750 C745 1.363 . S
C750 C749 1.415 . S
C751 H727 0.951 . S
C751 C752 1.366 1_556 S
C751 C753 1.388 . S
C752 C751 1.366 1_554 S
C752 C756 1.385 . S
C753 H728 0.951 . S
C753 C751 1.388 . S
C753 C754 1.366 . S
C754 C753 1.366 . S
C754 C755 1.414 1_556 S
C754 C757 1.499 . S
C755 H729 0.950 . S
C755 C754 1.414 1_554 S
C755 C756 1.374 . S
C756 H730 0.950 . S
C756 C752 1.385 . S
C756 C755 1.374 . S
C757 C754 1.499 . S
C757 C758 1.373 1_556 S
C757 C759 1.389 . S
C758 H731 0.950 . S
C758 C744 1.377 1_554 S
C758 C757 1.373 1_554 S
C759 C743 1.377 . S
C759 C757 1.389 . S
C759 C760 1.524 . S
C760 C759 1.524 . S
C760 C761 1.397 . S
C760 C765 1.363 . S
C761 H732 0.950 . S
C761 C760 1.397 . S
C761 C762 1.334 . S
C762 H733 0.950 . S
C762 C761 1.334 . S
C762 C763 1.287 . S
C763 C762 1.287 . S
C763 C764 1.524 . S
C763 H766 0.999 . S
C764 H734 0.950 . S
C764 C763 1.524 . S
C764 C765 1.415 . S
C765 H735 0.950 . S
C765 C760 1.363 . S
C765 C764 1.415 . S
H766 C763 0.999 . S
H767 C748 0.913 . S
H768 C786 0.951 . S
H769 C788 0.951 . S
H770 C790 0.950 . S
H771 C791 0.950 . S
H772 C793 0.950 . S
H773 C796 0.950 . S
H774 C797 0.950 . S
H775 C799 0.950 . S
H776 C800 0.950 . S
H777 C801 0.951 . S
H778 C803 0.951 . S
H779 C805 0.950 . S
H780 C806 0.950 . S
H781 C808 0.950 . S
H782 C811 0.950 . S
H783 C812 0.950 . S
H784 C814 0.950 . S
H785 C815 0.950 . S
C786 H768 0.951 . S
C786 C787 1.366 . S
C786 C788 1.388 . S
C787 C786 1.366 . S
C787 C791 1.385 . S
C788 H769 0.951 . S
C788 C786 1.388 . S
C788 C789 1.366 . S
C789 C788 1.366 . S
C789 C790 1.414 . S
C789 C792 1.499 . S
C790 H770 0.950 . S
C790 C789 1.414 . S
C790 C791 1.374 . S
C791 H771 0.950 . S
C791 C787 1.385 . S
C791 C790 1.374 . S
C792 C789 1.499 . S
C792 C793 1.373 . S
C792 C794 1.389 . S
C793 H772 0.950 . S
C793 C792 1.373 . S
C793 C809 1.377 . S
C794 C792 1.389 . S
C794 C795 1.524 . S
C794 C808 1.377 . S
C795 C794 1.524 . S
C795 C796 1.397 . S
C795 C800 1.363 . S
C796 H773 0.950 . S
C796 C795 1.397 . S
C796 C797 1.334 . S
C797 H774 0.950 . S
C797 C796 1.334 . S
C797 C798 1.287 . S
C798 C797 1.287 . S
C798 C799 1.524 . S
C798 H817 0.913 . S
C799 H775 0.950 . S
C799 C798 1.524 . S
C799 C800 1.415 . S
C800 H776 0.950 . S
C800 C795 1.363 . S
C800 C799 1.415 . S
C801 H777 0.951 . S
C801 C802 1.366 . S
C801 C803 1.388 . S
C802 C801 1.366 . S
C802 C806 1.385 . S
C803 H778 0.951 . S
C803 C801 1.388 . S
C803 C804 1.366 . S
C804 C803 1.366 . S
C804 C805 1.414 . S
C804 C807 1.499 . S
C805 H779 0.950 . S
C805 C804 1.414 . S
C805 C806 1.374 . S
C806 H780 0.950 . S
C806 C802 1.385 . S
C806 C805 1.374 . S
C807 C804 1.499 . S
C807 C808 1.373 . S
C807 C809 1.389 . S
C808 H781 0.950 . S
C808 C794 1.377 . S
C808 C807 1.373 . S
C809 C793 1.377 . S
C809 C807 1.389 . S
C809 C810 1.524 . S
C810 C809 1.524 . S
C810 C811 1.397 . S
C810 C815 1.363 . S
C811 H782 0.950 . S
C811 C810 1.397 . S
C811 C812 1.334 . S
C812 H783 0.950 . S
C812 C811 1.334 . S
C812 C813 1.287 . S
C813 C812 1.287 . S
C813 C814 1.524 . S
C813 H816 0.999 . S
C814 H784 0.950 . S
C814 C813 1.524 . S
C814 C815 1.415 . S
C815 H785 0.950 . S
C815 C810 1.363 . S
C815 C814 1.415 . S
H816 C813 0.999 . S
H817 C798 0.913 . S
H818 C836 0.951 . S
H819 C838 0.951 . S
H820 C840 0.950 1_556 S
H821 C841 0.950 . S
H822 C843 0.950 . S
H823 C846 0.950 . S
H824 C847 0.950 . S
H825 C849 0.950 . S
H826 C850 0.950 . S
H827 C851 0.951 . S
H828 C853 0.951 . S
H829 C855 0.950 . S
H830 C856 0.950 . S
H831 C858 0.950 . S
H832 C861 0.950 . S
H833 C862 0.950 . S
H834 C864 0.950 . S
H835 C865 0.950 . S
C836 H818 0.951 . S
C836 C837 1.366 . S
C836 C838 1.388 . S
C837 C836 1.366 . S
C837 C841 1.385 . S
C838 H819 0.951 . S
C838 C836 1.388 . S
C838 C839 1.366 . S
C839 C838 1.366 . S
C839 C840 1.414 . S
C839 C842 1.499 1_554 S
C840 H820 0.950 1_554 S
C840 C839 1.414 . S
C840 C841 1.374 . S
C841 H821 0.950 . S
C841 C837 1.385 . S
C841 C840 1.374 . S
C842 C839 1.499 1_556 S
C842 C843 1.373 . S
C842 C844 1.389 . S
C843 H822 0.950 . S
C843 C842 1.373 . S
C843 C859 1.377 . S
C844 C842 1.389 . S
C844 C845 1.524 1_556 S
C844 C858 1.377 . S
C845 C844 1.524 1_554 S
C845 C846 1.397 . S
C845 C850 1.363 . S
C846 H823 0.950 . S
C846 C845 1.397 . S
C846 C847 1.334 . S
C847 H824 0.950 . S
C847 C846 1.334 . S
C847 C848 1.287 . S
C848 C847 1.287 . S
C848 C849 1.524 . S
C848 H867 0.913 . S
C849 H825 0.950 . S
C849 C848 1.524 . S
C849 C850 1.415 . S
C850 H826 0.950 . S
C850 C845 1.363 . S
C850 C849 1.415 . S
C851 H827 0.951 . S
C851 C852 1.366 . S
C851 C853 1.388 . S
C852 C851 1.366 . S
C852 C856 1.385 . S
C853 H828 0.951 . S
C853 C851 1.388 . S
C853 C854 1.366 . S
C854 C853 1.366 . S
C854 C855 1.414 . S
C854 C857 1.499 . S
C855 H829 0.950 . S
C855 C854 1.414 . S
C855 C856 1.374 . S
C856 H830 0.950 . S
C856 C852 1.385 . S
C856 C855 1.374 . S
C857 C854 1.499 . S
C857 C858 1.373 . S
C857 C859 1.389 . S
C858 H831 0.950 . S
C858 C844 1.377 . S
C858 C857 1.373 . S
C859 C843 1.377 . S
C859 C857 1.389 . S
C859 C860 1.524 . S
C860 C859 1.524 . S
C860 C861 1.397 . S
C860 C865 1.363 . S
C861 H832 0.950 . S
C861 C860 1.397 . S
C861 C862 1.334 . S
C862 H833 0.950 . S
C862 C861 1.334 . S
C862 C863 1.287 . S
C863 C862 1.287 . S
C863 C864 1.524 . S
C863 H866 0.999 . S
C864 H834 0.950 . S
C864 C863 1.524 . S
C864 C865 1.415 . S
C865 H835 0.950 . S
C865 C860 1.363 . S
C865 C864 1.415 . S
H866 C863 0.999 . S
H867 C848 0.913 . S
H868 C886 0.951 . S
H869 C888 0.951 . S
H870 C890 0.950 . S
H871 C891 0.950 . S
H872 C893 0.950 . S
H873 C896 0.950 . S
H874 C897 0.950 . S
H875 C899 0.950 . S
H876 C900 0.950 . S
H877 C901 0.951 . S
H878 C903 0.951 . S
H879 C905 0.950 . S
H880 C906 0.950 . S
H881 C908 0.950 . S
H882 C911 0.950 . S
H883 C912 0.950 1_556 S
H884 C914 0.950 . S
H885 C915 0.950 . S
C886 H868 0.951 . S
C886 C887 1.366 . S
C886 C888 1.388 . S
C887 C886 1.366 . S
C887 C891 1.385 . S
C888 H869 0.951 . S
C888 C886 1.388 . S
C888 C889 1.366 . S
C889 C888 1.366 . S
C889 C890 1.414 . S
C889 C892 1.499 . S
C890 H870 0.950 . S
C890 C889 1.414 . S
C890 C891 1.374 . S
C891 H871 0.950 . S
C891 C887 1.385 . S
C891 C890 1.374 . S
C892 C889 1.499 . S
C892 C893 1.373 . S
C892 C894 1.389 . S
C893 H872 0.950 . S
C893 C892 1.373 . S
C893 C909 1.377 . S
C894 C892 1.389 . S
C894 C895 1.524 . S
C894 C908 1.377 . S
C895 C894 1.524 . S
C895 C896 1.397 . S
C895 C900 1.363 . S
C896 H873 0.950 . S
C896 C895 1.397 . S
C896 C897 1.334 . S
C897 H874 0.950 . S
C897 C896 1.334 . S
C897 C898 1.287 . S
C898 C897 1.287 . S
C898 C899 1.524 . S
C898 H917 0.913 . S
C899 H875 0.950 . S
C899 C898 1.524 . S
C899 C900 1.415 . S
C900 H876 0.950 . S
C900 C895 1.363 . S
C900 C899 1.415 . S
C901 H877 0.951 . S
C901 C902 1.366 1_554 S
C901 C903 1.388 . S
C902 C901 1.366 1_556 S
C902 C906 1.385 . S
C903 H878 0.951 . S
C903 C901 1.388 . S
C903 C904 1.366 . S
C904 C903 1.366 . S
C904 C905 1.414 . S
C904 C907 1.499 . S
C905 H879 0.950 . S
C905 C904 1.414 . S
C905 C906 1.374 1_554 S
C906 H880 0.950 . S
C906 C902 1.385 . S
C906 C905 1.374 1_556 S
C907 C904 1.499 . S
C907 C908 1.373 . S
C907 C909 1.389 . S
C908 H881 0.950 . S
C908 C894 1.377 . S
C908 C907 1.373 . S
C909 C893 1.377 . S
C909 C907 1.389 . S
C909 C910 1.524 . S
C910 C909 1.524 . S
C910 C911 1.397 . S
C910 C915 1.363 . S
C911 H882 0.950 . S
C911 C910 1.397 . S
C911 C912 1.334 . S
C912 H883 0.950 1_554 S
C912 C911 1.334 . S
C912 C913 1.287 . S
C913 C912 1.287 . S
C913 C914 1.524 . S
C913 H916 0.999 . S
C914 H884 0.950 . S
C914 C913 1.524 . S
C914 C915 1.415 . S
C915 H885 0.950 . S
C915 C910 1.363 . S
C915 C914 1.415 . S
H916 C913 0.999 . S
H917 C898 0.913 . S
H918 C936 0.951 . S
H919 C938 0.951 . S
H920 C940 0.950 . S
H921 C941 0.950 . S
H922 C943 0.950 . S
H923 C946 0.950 . S
H924 C947 0.950 . S
H925 C949 0.950 . S
H926 C950 0.950 . S
H927 C951 0.951 . S
H928 C953 0.951 . S
H929 C955 0.950 . S
H930 C956 0.950 . S
H931 C958 0.950 . S
H932 C961 0.950 . S
H933 C962 0.950 . S
H934 C964 0.950 . S
H935 C965 0.950 . S
C936 H918 0.951 . S
C936 C937 1.366 . S
C936 C938 1.388 . S
C937 C936 1.366 . S
C937 C941 1.385 . S
C938 H919 0.951 . S
C938 C936 1.388 . S
C938 C939 1.366 . S
C939 C938 1.366 . S
C939 C940 1.414 . S
C939 C942 1.499 . S
C940 H920 0.950 . S
C940 C939 1.414 . S
C940 C941 1.374 . S
C941 H921 0.950 . S
C941 C937 1.385 . S
C941 C940 1.374 . S
C942 C939 1.499 . S
C942 C943 1.373 . S
C942 C944 1.389 . S
C943 H922 0.950 . S
C943 C942 1.373 . S
C943 C959 1.377 . S
C944 C942 1.389 . S
C944 C945 1.524 . S
C944 C958 1.377 . S
C945 C944 1.524 . S
C945 C946 1.397 . S
C945 C950 1.363 . S
C946 H923 0.950 . S
C946 C945 1.397 . S
C946 C947 1.334 . S
C947 H924 0.950 . S
C947 C946 1.334 . S
C947 C948 1.287 . S
C948 C947 1.287 . S
C948 C949 1.524 . S
C948 H967 0.913 . S
C949 H925 0.950 . S
C949 C948 1.524 . S
C949 C950 1.415 . S
C950 H926 0.950 . S
C950 C945 1.363 . S
C950 C949 1.415 . S
C951 H927 0.951 . S
C951 C952 1.366 . S
C951 C953 1.388 . S
C952 C951 1.366 . S
C952 C956 1.385 . S
C953 H928 0.951 . S
C953 C951 1.388 . S
C953 C954 1.366 . S
C954 C953 1.366 . S
C954 C955 1.414 . S
C954 C957 1.499 . S
C955 H929 0.950 . S
C955 C954 1.414 . S
C955 C956 1.374 . S
C956 H930 0.950 . S
C956 C952 1.385 . S
C956 C955 1.374 . S
C957 C954 1.499 . S
C957 C958 1.373 . S
C957 C959 1.389 . S
C958 H931 0.950 . S
C958 C944 1.377 . S
C958 C957 1.373 . S
C959 C943 1.377 . S
C959 C957 1.389 . S
C959 C960 1.524 . S
C960 C959 1.524 . S
C960 C961 1.397 . S
C960 C965 1.363 . S
C961 H932 0.950 . S
C961 C960 1.397 . S
C961 C962 1.334 . S
C962 H933 0.950 . S
C962 C961 1.334 . S
C962 C963 1.287 . S
C963 C962 1.287 . S
C963 C964 1.524 . S
C963 H966 0.999 . S
C964 H934 0.950 . S
C964 C963 1.524 . S
C964 C965 1.415 . S
C965 H935 0.950 . S
C965 C960 1.363 . S
C965 C964 1.415 . S
H966 C963 0.999 . S
H967 C948 0.913 . S
H968 C986 0.951 . S
H969 C988 0.951 . S
H970 C990 0.950 . S
H971 C991 0.950 . S
H972 C993 0.950 . S
H973 C996 0.950 . S
H974 C997 0.950 . S
H975 C999 0.950 . S
H976 C1000 0.950 . S
H977 C1001 0.951 . S
H978 C1003 0.951 . S
H979 C1005 0.950 . S
H980 C1006 0.950 . S
H981 C1008 0.950 . S
H982 C1011 0.950 . S
H983 C1012 0.950 . S
H984 C1014 0.950 . S
H985 C1015 0.950 . S
C986 H968 0.951 . S
C986 C987 1.366 . S
C986 C988 1.388 . S
C987 C986 1.366 . S
C987 C991 1.385 . S
C988 H969 0.951 . S
C988 C986 1.388 . S
C988 C989 1.366 . S
C989 C988 1.366 . S
C989 C990 1.414 . S
C989 C992 1.499 . S
C990 H970 0.950 . S
C990 C989 1.414 . S
C990 C991 1.374 . S
C991 H971 0.950 . S
C991 C987 1.385 . S
C991 C990 1.374 . S
C992 C989 1.499 . S
C992 C993 1.373 . S
C992 C994 1.389 . S
C993 H972 0.950 . S
C993 C992 1.373 . S
C993 C1009 1.377 . S
C994 C992 1.389 . S
C994 C995 1.524 . S
C994 C1008 1.377 . S
C995 C994 1.524 . S
C995 C996 1.397 . S
C995 C1000 1.363 . S
C996 H973 0.950 . S
C996 C995 1.397 . S
C996 C997 1.334 . S
C997 H974 0.950 . S
C997 C996 1.334 . S
C997 C998 1.287 . S
C998 C997 1.287 . S
C998 C999 1.524 . S
C998 H1017 0.913 . S
C999 H975 0.950 . S
C999 C998 1.524 . S
C999 C1000 1.415 . S
C1000 H976 0.950 . S
C1000 C995 1.363 . S
C1000 C999 1.415 . S
C1001 H977 0.951 . S
C1001 C1002 1.366 . S
C1001 C1003 1.388 . S
C1002 C1001 1.366 . S
C1002 C1006 1.385 . S
C1003 H978 0.951 . S
C1003 C1001 1.388 . S
C1003 C1004 1.366 . S
C1004 C1003 1.366 . S
C1004 C1005 1.414 . S
C1004 C1007 1.499 . S
C1005 H979 0.950 . S
C1005 C1004 1.414 . S
C1005 C1006 1.374 . S
C1006 H980 0.950 . S
C1006 C1002 1.385 . S
C1006 C1005 1.374 . S
C1007 C1004 1.499 . S
C1007 C1008 1.373 . S
C1007 C1009 1.389 . S
C1008 H981 0.950 . S
C1008 C994 1.377 . S
C1008 C1007 1.373 . S
C1009 C993 1.377 . S
C1009 C1007 1.389 . S
C1009 C1010 1.524 . S
C1010 C1009 1.524 . S
C1010 C1011 1.397 . S
C1010 C1015 1.363 . S
C1011 H982 0.950 . S
C1011 C1010 1.397 . S
C1011 C1012 1.334 . S
C1012 H983 0.950 . S
C1012 C1011 1.334 . S
C1012 C1013 1.287 . S
C1013 C1012 1.287 . S
C1013 C1014 1.524 . S
C1013 H1016 0.999 . S
C1014 H984 0.950 . S
C1014 C1013 1.524 . S
C1014 C1015 1.415 . S
C1015 H985 0.950 . S
C1015 C1010 1.363 . S
C1015 C1014 1.415 . S
H1016 C1013 0.999 . S
H1017 C998 0.913 . S
H1018 C1036 0.951 . S
H1019 C1038 0.951 . S
H1020 C1040 0.950 . S
H1021 C1041 0.950 . S
H1022 C1043 0.950 . S
H1023 C1046 0.950 . S
H1024 C1047 0.950 . S
H1025 C1049 0.950 . S
H1026 C1050 0.950 . S
H1027 C1051 0.951 . S
H1028 C1053 0.951 . S
H1029 C1055 0.950 . S
H1030 C1056 0.950 . S
H1031 C1058 0.950 . S
H1032 C1061 0.950 . S
H1033 C1062 0.950 . S
H1034 C1064 0.950 . S
H1035 C1065 0.950 . S
C1036 H1018 0.951 . S
C1036 C1037 1.366 . S
C1036 C1038 1.388 . S
C1037 C1036 1.366 . S
C1037 C1041 1.385 . S
C1038 H1019 0.951 . S
C1038 C1036 1.388 . S
C1038 C1039 1.366 . S
C1039 C1038 1.366 . S
C1039 C1040 1.414 . S
C1039 C1042 1.499 . S
C1040 H1020 0.950 . S
C1040 C1039 1.414 . S
C1040 C1041 1.374 . S
C1041 H1021 0.950 . S
C1041 C1037 1.385 . S
C1041 C1040 1.374 . S
C1042 C1039 1.499 . S
C1042 C1043 1.373 . S
C1042 C1044 1.389 . S
C1043 H1022 0.950 . S
C1043 C1042 1.373 . S
C1043 C1059 1.377 . S
C1044 C1042 1.389 . S
C1044 C1045 1.524 . S
C1044 C1058 1.377 . S
C1045 C1044 1.524 . S
C1045 C1046 1.397 . S
C1045 C1050 1.363 . S
C1046 H1023 0.950 . S
C1046 C1045 1.397 . S
C1046 C1047 1.334 . S
C1047 H1024 0.950 . S
C1047 C1046 1.334 . S
C1047 C1048 1.287 . S
C1048 C1047 1.287 . S
C1048 C1049 1.524 . S
C1048 H1067 0.913 . S
C1049 H1025 0.950 . S
C1049 C1048 1.524 . S
C1049 C1050 1.415 . S
C1050 H1026 0.950 . S
C1050 C1045 1.363 . S
C1050 C1049 1.415 . S
C1051 H1027 0.951 . S
C1051 C1052 1.366 . S
C1051 C1053 1.388 . S
C1052 C1051 1.366 . S
C1052 C1056 1.385 . S
C1053 H1028 0.951 . S
C1053 C1051 1.388 . S
C1053 C1054 1.366 . S
C1054 C1053 1.366 . S
C1054 C1055 1.414 . S
C1054 C1057 1.499 . S
C1055 H1029 0.950 . S
C1055 C1054 1.414 . S
C1055 C1056 1.374 . S
C1056 H1030 0.950 . S
C1056 C1052 1.385 . S
C1056 C1055 1.374 . S
C1057 C1054 1.499 . S
C1057 C1058 1.373 . S
C1057 C1059 1.389 . S
C1058 H1031 0.950 . S
C1058 C1044 1.377 . S
C1058 C1057 1.373 . S
C1059 C1043 1.377 . S
C1059 C1057 1.389 . S
C1059 C1060 1.524 . S
C1060 C1059 1.524 . S
C1060 C1061 1.397 . S
C1060 C1065 1.363 . S
C1061 H1032 0.950 . S
C1061 C1060 1.397 . S
C1061 C1062 1.334 . S
C1062 H1033 0.950 . S
C1062 C1061 1.334 . S
C1062 C1063 1.287 . S
C1063 C1062 1.287 . S
C1063 C1064 1.524 . S
C1063 H1066 0.999 . S
C1064 H1034 0.950 . S
C1064 C1063 1.524 . S
C1064 C1065 1.415 . S
C1065 H1035 0.950 . S
C1065 C1060 1.363 . S
C1065 C1064 1.415 . S
H1066 C1063 0.999 . S
H1067 C1048 0.913 . S
H1068 C1086 0.951 . S
H1069 C1088 0.951 . S
H1070 C1090 0.950 . S
H1071 C1091 0.950 . S
H1072 C1093 0.950 . S
H1073 C1096 0.949 . S
H1074 C1097 0.950 . S
H1075 C1099 0.950 . S
H1076 C1100 0.950 . S
H1077 C1101 0.951 . S
H1078 C1103 0.951 . S
H1079 C1105 0.950 . S
H1080 C1106 0.950 . S
H1081 C1108 0.950 . S
H1082 C1111 0.950 . S
H1083 C1112 0.950 . S
H1084 C1114 0.950 . S
H1085 C1115 0.950 . S
C1086 H1068 0.951 . S
C1086 C1087 1.366 . S
C1086 C1088 1.388 . S
C1087 C1086 1.366 . S
C1087 C1091 1.385 . S
C1088 H1069 0.951 . S
C1088 C1086 1.388 . S
C1088 C1089 1.366 . S
C1089 C1088 1.366 . S
C1089 C1090 1.414 . S
C1089 C1092 1.499 . S
C1090 H1070 0.950 . S
C1090 C1089 1.414 . S
C1090 C1091 1.374 . S
C1091 H1071 0.950 . S
C1091 C1087 1.385 . S
C1091 C1090 1.374 . S
C1092 C1089 1.499 . S
C1092 C1093 1.373 . S
C1092 C1094 1.389 . S
C1093 H1072 0.950 . S
C1093 C1092 1.373 . S
C1093 C1109 1.377 1_455 S
C1094 C1092 1.389 . S
C1094 C1095 1.524 . S
C1094 C1108 1.377 1_455 S
C1095 C1094 1.524 . S
C1095 C1096 1.397 . S
C1095 C1100 1.363 1_455 S
C1096 H1073 0.949 . S
C1096 C1095 1.397 . S
C1096 C1097 1.334 1_556 S
C1097 H1074 0.950 . S
C1097 C1096 1.334 1_554 S
C1097 C1098 1.287 1_455 S
C1098 C1097 1.287 1_655 S
C1098 C1099 1.524 1_554 S
C1098 H1117 0.913 . S
C1099 H1075 0.950 . S
C1099 C1098 1.524 1_556 S
C1099 C1100 1.415 . S
C1100 H1076 0.950 . S
C1100 C1095 1.363 1_655 S
C1100 C1099 1.415 . S
C1101 H1077 0.951 . S
C1101 C1102 1.366 . S
C1101 C1103 1.388 . S
C1102 C1101 1.366 . S
C1102 C1106 1.385 . S
C1103 H1078 0.951 . S
C1103 C1101 1.388 . S
C1103 C1104 1.366 . S
C1104 C1103 1.366 . S
C1104 C1105 1.414 . S
C1104 C1107 1.499 . S
C1105 H1079 0.950 . S
C1105 C1104 1.414 . S
C1105 C1106 1.374 . S
C1106 H1080 0.950 . S
C1106 C1102 1.385 . S
C1106 C1105 1.374 . S
C1107 C1104 1.499 . S
C1107 C1108 1.373 . S
C1107 C1109 1.389 . S
C1108 H1081 0.950 . S
C1108 C1094 1.377 1_655 S
C1108 C1107 1.373 . S
C1109 C1093 1.377 1_655 S
C1109 C1107 1.389 . S
C1109 C1110 1.524 . S
C1110 C1109 1.524 . S
C1110 C1111 1.397 . S
C1110 C1115 1.363 1_655 S
C1111 H1082 0.950 . S
C1111 C1110 1.397 . S
C1111 C1112 1.334 . S
C1112 H1083 0.950 . S
C1112 C1111 1.334 . S
C1112 C1113 1.287 1_655 S
C1113 C1112 1.287 1_455 S
C1113 C1114 1.524 . S
C1113 H1116 0.999 . S
C1114 H1084 0.950 . S
C1114 C1113 1.524 . S
C1114 C1115 1.415 . S
C1115 H1085 0.950 . S
C1115 C1110 1.363 1_455 S
C1115 C1114 1.415 . S
H1116 C1113 0.999 . S
H1117 C1098 0.913 . S
H1118 C1136 0.951 . S
H1119 C1138 0.951 . S
H1120 C1140 0.950 . S
H1121 C1141 0.950 1_554 S
H1122 C1143 0.950 . S
H1123 C1146 0.950 . S
H1124 C1147 0.950 . S
H1125 C1149 0.953 . S
H1126 C1150 0.950 . S
H1127 C1151 0.951 . S
H1128 C1153 0.951 . S
H1129 C1155 0.950 . S
H1130 C1156 0.950 . S
H1131 C1158 0.950 . S
H1132 C1161 0.950 . S
H1133 C1162 0.950 . S
H1134 C1164 0.954 . S
H1135 C1165 0.950 . S
C1136 H1118 0.951 . S
C1136 C1137 1.366 . S
C1136 C1138 1.388 . S
C1137 C1136 1.366 . S
C1137 C1141 1.385 . S
C1138 H1119 0.951 . S
C1138 C1136 1.388 . S
C1138 C1139 1.366 . S
C1139 C1138 1.366 . S
C1139 C1140 1.414 1_556 S
C1139 C1142 1.499 1_556 S
C1140 H1120 0.950 . S
C1140 C1139 1.414 1_554 S
C1140 C1141 1.374 1_554 S
C1141 H1121 0.950 1_556 S
C1141 C1137 1.385 . S
C1141 C1140 1.374 1_556 S
C1142 C1139 1.499 1_554 S
C1142 C1143 1.373 . S
C1142 C1144 1.389 . S
C1143 H1122 0.950 . S
C1143 C1142 1.373 . S
C1143 C1159 1.377 1_565 S
C1144 C1142 1.389 . S
C1144 C1145 1.524 1_554 S
C1144 C1158 1.377 1_565 S
C1145 C1144 1.524 1_556 S
C1145 C1146 1.397 1_556 S
C1145 C1150 1.363 1_565 S
C1146 H1123 0.950 . S
C1146 C1145 1.397 1_554 S
C1146 C1147 1.334 1_554 S
C1147 H1124 0.950 . S
C1147 C1146 1.334 1_556 S
C1147 C1148 1.287 . S
C1148 C1147 1.287 . S
C1148 C1149 1.512 1_565 S
C1148 H1167 0.913 . S
C1149 H1125 0.953 . S
C1149 C1148 1.512 1_545 S
C1149 C1150 1.423 . S
C1150 H1126 0.950 . S
C1150 C1145 1.363 1_545 S
C1150 C1149 1.423 . S
C1151 H1127 0.951 . S
C1151 C1152 1.366 . S
C1151 C1153 1.388 . S
C1152 C1151 1.366 . S
C1152 C1156 1.385 . S
C1153 H1128 0.951 . S
C1153 C1151 1.388 . S
C1153 C1154 1.366 . S
C1154 C1153 1.366 . S
C1154 C1155 1.414 . S
C1154 C1157 1.499 . S
C1155 H1129 0.950 . S
C1155 C1154 1.414 . S
C1155 C1156 1.374 . S
C1156 H1130 0.950 . S
C1156 C1152 1.385 . S
C1156 C1155 1.374 . S
C1157 C1154 1.499 . S
C1157 C1158 1.373 . S
C1157 C1159 1.389 . S
C1158 H1131 0.950 . S
C1158 C1144 1.377 1_545 S
C1158 C1157 1.373 . S
C1159 C1143 1.377 1_545 S
C1159 C1157 1.389 . S
C1159 C1160 1.524 . S
C1160 C1159 1.524 . S
C1160 C1161 1.397 . S
C1160 C1165 1.363 1_545 S
C1161 H1132 0.950 . S
C1161 C1160 1.397 . S
C1161 C1162 1.334 . S
C1162 H1133 0.950 . S
C1162 C1161 1.334 . S
C1162 C1163 1.287 . S
C1163 C1162 1.287 . S
C1163 C1164 1.511 1_545 S
C1163 H1166 0.999 . S
C1164 H1134 0.954 . S
C1164 C1163 1.511 1_565 S
C1164 C1165 1.423 . S
C1165 H1135 0.950 . S
C1165 C1160 1.363 1_565 S
C1165 C1164 1.423 . S
H1166 C1163 0.999 . S
H1167 C1148 0.913 . S
H1168 C1186 0.951 . S
H1169 C1188 0.951 . S
H1170 C1190 0.950 . S
H1171 C1191 0.950 . S
H1172 C1193 0.950 . S
H1173 C1196 0.950 . S
H1174 C1197 0.950 . S
H1175 C1199 0.950 . S
H1176 C1200 0.950 . S
H1177 C1201 0.951 . S
H1178 C1203 0.951 . S
H1179 C1205 0.950 . S
H1180 C1206 0.950 . S
H1181 C1208 0.950 . S
H1182 C1211 0.950 . S
H1183 C1212 0.950 . S
H1184 C1214 0.950 . S
H1185 C1215 0.950 . S
C1186 H1168 0.951 . S
C1186 C1187 1.366 . S
C1186 C1188 1.388 . S
C1187 C1186 1.366 . S
C1187 C1191 1.385 . S
C1188 H1169 0.951 . S
C1188 C1186 1.388 . S
C1188 C1189 1.366 . S
C1189 C1188 1.366 . S
C1189 C1190 1.414 . S
C1189 C1192 1.499 . S
C1190 H1170 0.950 . S
C1190 C1189 1.414 . S
C1190 C1191 1.374 . S
C1191 H1171 0.950 . S
C1191 C1187 1.385 . S
C1191 C1190 1.374 . S
C1192 C1189 1.499 . S
C1192 C1193 1.373 . S
C1192 C1194 1.389 . S
C1193 H1172 0.950 . S
C1193 C1192 1.373 . S
C1193 C1209 1.377 . S
C1194 C1192 1.389 . S
C1194 C1195 1.524 . S
C1194 C1208 1.377 . S
C1195 C1194 1.524 . S
C1195 C1196 1.397 . S
C1195 C1200 1.363 . S
C1196 H1173 0.950 . S
C1196 C1195 1.397 . S
C1196 C1197 1.334 . S
C1197 H1174 0.950 . S
C1197 C1196 1.334 . S
C1197 C1198 1.287 . S
C1198 C1197 1.287 . S
C1198 C1199 1.524 . S
C1198 H1217 0.913 . S
C1199 H1175 0.950 . S
C1199 C1198 1.524 . S
C1199 C1200 1.415 . S
C1200 H1176 0.950 . S
C1200 C1195 1.363 . S
C1200 C1199 1.415 . S
C1201 H1177 0.951 . S
C1201 C1202 1.366 . S
C1201 C1203 1.388 . S
C1202 C1201 1.366 . S
C1202 C1206 1.385 . S
C1203 H1178 0.951 . S
C1203 C1201 1.388 . S
C1203 C1204 1.366 . S
C1204 C1203 1.366 . S
C1204 C1205 1.414 . S
C1204 C1207 1.499 . S
C1205 H1179 0.950 . S
C1205 C1204 1.414 . S
C1205 C1206 1.374 . S
C1206 H1180 0.950 . S
C1206 C1202 1.385 . S
C1206 C1205 1.374 . S
C1207 C1204 1.499 . S
C1207 C1208 1.373 . S
C1207 C1209 1.389 . S
C1208 H1181 0.950 . S
C1208 C1194 1.377 . S
C1208 C1207 1.373 . S
C1209 C1193 1.377 . S
C1209 C1207 1.389 . S
C1209 C1210 1.524 . S
C1210 C1209 1.524 . S
C1210 C1211 1.397 . S
C1210 C1215 1.363 . S
C1211 H1182 0.950 . S
C1211 C1210 1.397 . S
C1211 C1212 1.334 . S
C1212 H1183 0.950 . S
C1212 C1211 1.334 . S
C1212 C1213 1.287 . S
C1213 C1212 1.287 . S
C1213 C1214 1.524 . S
C1213 H1216 0.999 . S
C1214 H1184 0.950 . S
C1214 C1213 1.524 . S
C1214 C1215 1.415 . S
C1215 H1185 0.950 . S
C1215 C1210 1.363 . S
C1215 C1214 1.415 . S
H1216 C1213 0.999 . S
H1217 C1198 0.913 . S
H1218 C1236 0.951 . S
H1219 C1238 0.951 . S
H1220 C1240 0.950 . S
H1221 C1241 0.950 . S
H1222 C1243 0.950 . S
H1223 C1246 0.950 . S
H1224 C1247 0.950 . S
H1225 C1249 0.950 . S
H1226 C1250 0.950 . S
H1227 C1251 0.951 . S
H1228 C1253 0.951 . S
H1229 C1255 0.950 . S
H1230 C1256 0.950 . S
H1231 C1258 0.950 . S
H1232 C1261 0.950 . S
H1233 C1262 0.950 . S
H1234 C1264 0.950 . S
H1235 C1265 0.950 . S
C1236 H1218 0.951 . S
C1236 C1237 1.366 . S
C1236 C1238 1.388 . S
C1237 C1236 1.366 . S
C1237 C1241 1.385 . S
C1238 H1219 0.951 . S
C1238 C1236 1.388 . S
C1238 C1239 1.366 . S
C1239 C1238 1.366 . S
C1239 C1240 1.414 . S
C1239 C1242 1.499 . S
C1240 H1220 0.950 . S
C1240 C1239 1.414 . S
C1240 C1241 1.374 . S
C1241 H1221 0.950 . S
C1241 C1237 1.385 . S
C1241 C1240 1.374 . S
C1242 C1239 1.499 . S
C1242 C1243 1.373 . S
C1242 C1244 1.389 . S
C1243 H1222 0.950 . S
C1243 C1242 1.373 . S
C1243 C1259 1.377 1_455 S
C1244 C1242 1.389 . S
C1244 C1245 1.524 . S
C1244 C1258 1.377 1_455 S
C1245 C1244 1.524 . S
C1245 C1246 1.397 . S
C1245 C1250 1.363 . S
C1246 H1223 0.950 . S
C1246 C1245 1.397 . S
C1246 C1247 1.334 . S
C1247 H1224 0.950 . S
C1247 C1246 1.334 . S
C1247 C1248 1.287 . S
C1248 C1247 1.287 . S
C1248 C1249 1.524 . S
C1248 H1267 0.913 . S
C1249 H1225 0.950 . S
C1249 C1248 1.524 . S
C1249 C1250 1.415 . S
C1250 H1226 0.950 . S
C1250 C1245 1.363 . S
C1250 C1249 1.415 . S
C1251 H1227 0.951 . S
C1251 C1252 1.366 . S
C1251 C1253 1.388 . S
C1252 C1251 1.366 . S
C1252 C1256 1.385 . S
C1253 H1228 0.951 . S
C1253 C1251 1.388 . S
C1253 C1254 1.366 . S
C1254 C1253 1.366 . S
C1254 C1255 1.414 . S
C1254 C1257 1.499 . S
C1255 H1229 0.950 . S
C1255 C1254 1.414 . S
C1255 C1256 1.374 . S
C1256 H1230 0.950 . S
C1256 C1252 1.385 . S
C1256 C1255 1.374 . S
C1257 C1254 1.499 . S
C1257 C1258 1.373 . S
C1257 C1259 1.389 . S
C1258 H1231 0.950 . S
C1258 C1244 1.377 1_655 S
C1258 C1257 1.373 . S
C1259 C1243 1.377 1_655 S
C1259 C1257 1.389 . S
C1259 C1260 1.524 . S
C1260 C1259 1.524 . S
C1260 C1261 1.397 . S
C1260 C1265 1.363 . S
C1261 H1232 0.950 . S
C1261 C1260 1.397 . S
C1261 C1262 1.334 . S
C1262 H1233 0.950 . S
C1262 C1261 1.334 . S
C1262 C1263 1.287 . S
C1263 C1262 1.287 . S
C1263 C1264 1.524 . S
C1263 H1266 0.999 . S
C1264 H1234 0.950 . S
C1264 C1263 1.524 . S
C1264 C1265 1.415 . S
C1265 H1235 0.950 . S
C1265 C1260 1.363 . S
C1265 C1264 1.415 . S
H1266 C1263 0.999 . S
H1267 C1248 0.913 . S
H1268 C1286 0.951 . S
H1269 C1288 0.951 . S
H1270 C1290 0.950 . S
H1271 C1291 0.950 . S
H1272 C1293 0.950 . S
H1273 C1296 0.950 . S
H1274 C1297 0.950 . S
H1275 C1299 0.950 . S
H1276 C1300 0.968 . S
H1277 C1301 0.951 . S
H1278 C1303 0.951 . S
H1279 C1305 0.950 . S
H1280 C1306 0.950 . S
H1281 C1308 0.950 . S
H1282 C1311 0.950 . S
H1283 C1312 0.950 . S
H1284 C1314 0.950 . S
H1285 C1315 0.968 . S
C1286 H1268 0.951 . S
C1286 C1287 1.366 . S
C1286 C1288 1.388 . S
C1287 C1286 1.366 . S
C1287 C1291 1.385 . S
C1288 H1269 0.951 . S
C1288 C1286 1.388 . S
C1288 C1289 1.366 . S
C1289 C1288 1.366 . S
C1289 C1290 1.414 . S
C1289 C1292 1.499 . S
C1290 H1270 0.950 . S
C1290 C1289 1.414 . S
C1290 C1291 1.374 . S
C1291 H1271 0.950 . S
C1291 C1287 1.385 . S
C1291 C1290 1.374 . S
C1292 C1289 1.499 . S
C1292 C1293 1.373 . S
C1292 C1294 1.389 . S
C1293 H1272 0.950 . S
C1293 C1292 1.373 . S
C1293 C1309 1.377 1_545 S
C1294 C1292 1.389 . S
C1294 C1295 1.524 . S
C1294 C1308 1.377 1_545 S
C1295 C1294 1.524 . S
C1295 C1296 1.397 . S
C1295 C1300 1.363 . S
C1296 H1273 0.950 . S
C1296 C1295 1.397 . S
C1296 C1297 1.334 . S
C1297 H1274 0.950 . S
C1297 C1296 1.334 . S
C1297 C1298 1.287 . S
C1298 C1297 1.287 . S
C1298 C1299 1.524 . S
C1298 H1317 0.913 . S
C1299 H1275 0.950 . S
C1299 C1298 1.524 . S
C1299 C1300 1.415 . S
C1300 H1276 0.968 . S
C1300 C1295 1.363 . S
C1300 C1299 1.415 . S
C1301 H1277 0.951 . S
C1301 C1302 1.366 . S
C1301 C1303 1.388 . S
C1302 C1301 1.366 . S
C1302 C1306 1.385 . S
C1303 H1278 0.951 . S
C1303 C1301 1.388 . S
C1303 C1304 1.366 . S
C1304 C1303 1.366 . S
C1304 C1305 1.414 . S
C1304 C1307 1.499 . S
C1305 H1279 0.950 . S
C1305 C1304 1.414 . S
C1305 C1306 1.374 . S
C1306 H1280 0.950 . S
C1306 C1302 1.385 . S
C1306 C1305 1.374 . S
C1307 C1304 1.499 . S
C1307 C1308 1.373 . S
C1307 C1309 1.389 . S
C1308 H1281 0.950 . S
C1308 C1294 1.377 1_565 S
C1308 C1307 1.373 . S
C1309 C1293 1.377 1_565 S
C1309 C1307 1.389 . S
C1309 C1310 1.524 . S
C1310 C1309 1.524 . S
C1310 C1311 1.397 . S
C1310 C1315 1.363 . S
C1311 H1282 0.950 . S
C1311 C1310 1.397 . S
C1311 C1312 1.334 . S
C1312 H1283 0.950 . S
C1312 C1311 1.334 . S
C1312 C1313 1.287 . S
C1313 C1312 1.287 . S
C1313 C1314 1.524 . S
C1313 H1316 0.999 . S
C1314 H1284 0.950 . S
C1314 C1313 1.524 . S
C1314 C1315 1.415 . S
C1315 H1285 0.968 . S
C1315 C1310 1.363 . S
C1315 C1314 1.415 . S
H1316 C1313 0.999 . S
H1317 C1298 0.913 . S
H1318 C1336 0.951 . S
H1319 C1338 0.951 . S
H1320 C1340 0.950 . S
H1321 C1341 0.950 . S
H1322 C1343 0.950 . S
H1323 C1346 0.950 . S
H1324 C1347 0.950 . S
H1325 C1349 0.950 . S
H1326 C1350 0.950 . S
H1327 C1351 0.951 . S
H1328 C1353 0.951 . S
H1329 C1355 0.950 . S
H1330 C1356 0.950 . S
H1331 C1358 0.950 . S
H1332 C1361 0.950 . S
H1333 C1362 0.950 . S
H1334 C1364 0.950 . S
H1335 C1365 0.950 . S
C1336 H1318 0.951 . S
C1336 C1337 1.366 . S
C1336 C1338 1.388 . S
C1337 C1336 1.366 . S
C1337 C1341 1.385 . S
C1338 H1319 0.951 . S
C1338 C1336 1.388 . S
C1338 C1339 1.366 . S
C1339 C1338 1.366 . S
C1339 C1340 1.414 . S
C1339 C1342 1.499 . S
C1340 H1320 0.950 . S
C1340 C1339 1.414 . S
C1340 C1341 1.374 . S
C1341 H1321 0.950 . S
C1341 C1337 1.385 . S
C1341 C1340 1.374 . S
C1342 C1339 1.499 . S
C1342 C1343 1.373 . S
C1342 C1344 1.389 . S
C1343 H1322 0.950 . S
C1343 C1342 1.373 . S
C1343 C1359 1.377 . S
C1344 C1342 1.389 . S
C1344 C1345 1.524 . S
C1344 C1358 1.377 . S
C1345 C1344 1.524 . S
C1345 C1346 1.397 . S
C1345 C1350 1.363 . S
C1346 H1323 0.950 . S
C1346 C1345 1.397 . S
C1346 C1347 1.334 . S
C1347 H1324 0.950 . S
C1347 C1346 1.334 . S
C1347 C1348 1.287 . S
C1348 C1347 1.287 . S
C1348 C1349 1.524 . S
C1348 H1367 0.913 . S
C1349 H1325 0.950 . S
C1349 C1348 1.524 . S
C1349 C1350 1.415 . S
C1350 H1326 0.950 . S
C1350 C1345 1.363 . S
C1350 C1349 1.415 . S
C1351 H1327 0.951 . S
C1351 C1352 1.366 . S
C1351 C1353 1.388 . S
C1352 C1351 1.366 . S
C1352 C1356 1.385 . S
C1353 H1328 0.951 . S
C1353 C1351 1.388 . S
C1353 C1354 1.366 . S
C1354 C1353 1.366 . S
C1354 C1355 1.414 . S
C1354 C1357 1.499 . S
C1355 H1329 0.950 . S
C1355 C1354 1.414 . S
C1355 C1356 1.374 . S
C1356 H1330 0.950 . S
C1356 C1352 1.385 . S
C1356 C1355 1.374 . S
C1357 C1354 1.499 . S
C1357 C1358 1.373 . S
C1357 C1359 1.389 . S
C1358 H1331 0.950 . S
C1358 C1344 1.377 . S
C1358 C1357 1.373 . S
C1359 C1343 1.377 . S
C1359 C1357 1.389 . S
C1359 C1360 1.524 . S
C1360 C1359 1.524 . S
C1360 C1361 1.397 . S
C1360 C1365 1.363 . S
C1361 H1332 0.950 . S
C1361 C1360 1.397 . S
C1361 C1362 1.334 . S
C1362 H1333 0.950 . S
C1362 C1361 1.334 . S
C1362 C1363 1.287 . S
C1363 C1362 1.287 . S
C1363 C1364 1.524 . S
C1363 H1366 0.999 . S
C1364 H1334 0.950 . S
C1364 C1363 1.524 . S
C1364 C1365 1.415 . S
C1365 H1335 0.950 . S
C1365 C1360 1.363 . S
C1365 C1364 1.415 . S
H1366 C1363 0.999 . S
H1367 C1348 0.913 . S
C187 C9 1.429 . S
C202 C149 1.428 . S
C237 C163 1.429 . S
C252 C23 1.429 . S
C287 C37 1.429 . S
C302 C93 1.429 . S
C337 C51 1.429 . S
C352 C107 1.429 . S
C387 C65 1.430 . S
C402 C121 1.429 . S
C437 C135 1.429 . S
C452 C79 1.429 . S
C487 C7 1.607 . S
C502 C119 1.606 . S
C537 C21 1.606 . S
C552 C133 1.607 . S
C587 C147 1.607 . S
C602 C35 1.607 . S
C637 C49 1.607 . S
C652 C161 1.607 . S
C687 C63 1.607 . S
C702 C91 1.607 . S
C737 C77 1.607 . S
C752 C105 1.607 . S
C787 C143 1.338 . S
C802 C3 1.338 . S
C837 C17 1.338 . S
C852 C157 1.338 . S
C887 C31 1.338 . S
C902 C87 1.338 . S
C937 C45 1.338 . S
C952 C101 1.338 . S
C987 C115 1.338 . S
C1002 C59 1.338 . S
C1037 C73 1.337 . S
C1052 C129 1.337 . S
C1087 C8 1.352 . S
C1102 C162 1.352 . S
C1137 C92 1.352 . S
C1152 C22 1.352 . S
C1187 C106 1.352 . S
C1202 C36 1.352 . S
C1237 C120 1.352 . S
C1252 C50 1.352 . S
C1287 C134 1.352 . S
C1302 C64 1.352 . S
C1337 C148 1.352 . S
C1352 C78 1.352 . S
