# Generated by pormake.
# Topology uop, (4)-cn, num edge types: 1
# Building blocks:
#     Node 0, Type 0, BuildingBlock: CEKHIL_clean_sbu_0, # of connection points: 4
#     Node 1, Type 0, BuildingBlock: CEKHIL_clean_sbu_0, # of connection points: 4
#     Node 2, Type 0, BuildingBlock: CEKHIL_clean_sbu_0, # of connection points: 4
#     Node 3, Type 0, BuildingBlock: CEKHIL_clean_sbu_0, # of connection points: 4
#     Node 4, Type 0, BuildingBlock: CEKHIL_clean_sbu_0, # of connection points: 4
#     Node 5, Type 0, BuildingBlock: CEKHIL_clean_sbu_0, # of connection points: 4
#     Node 6, Type 0, BuildingBlock: CEKHIL_clean_sbu_0, # of connection points: 4
#     Node 7, Type 0, BuildingBlock: CEKHIL_clean_sbu_0, # of connection points: 4
#     Node 8, Type 0, BuildingBlock: CEKHIL_clean_sbu_0, # of connection points: 4
#     Node 9, Type 0, BuildingBlock: CEKHIL_clean_sbu_0, # of connection points: 4
#     Node 10, Type 0, BuildingBlock: CEKHIL_clean_sbu_0, # of connection points: 4
#     Node 11, Type 0, BuildingBlock: CEKHIL_clean_sbu_0, # of connection points: 4
#     Edge 12, Type (0, 0), BuildingBlock: XUDNAN_clean_linker_2, # of connection points: 2
#     Edge 13, Type (0, 0), BuildingBlock: XUDNAN_clean_linker_2, # of connection points: 2
#     Edge 14, Type (0, 0), BuildingBlock: XUDNAN_clean_linker_2, # of connection points: 2
#     Edge 15, Type (0, 0), BuildingBlock: XUDNAN_clean_linker_2, # of connection points: 2
#     Edge 16, Type (0, 0), BuildingBlock: XUDNAN_clean_linker_2, # of connection points: 2
#     Edge 17, Type (0, 0), BuildingBlock: XUDNAN_clean_linker_2, # of connection points: 2
#     Edge 18, Type (0, 0), BuildingBlock: XUDNAN_clean_linker_2, # of connection points: 2
#     Edge 19, Type (0, 0), BuildingBlock: XUDNAN_clean_linker_2, # of connection points: 2
#     Edge 20, Type (0, 0), BuildingBlock: XUDNAN_clean_linker_2, # of connection points: 2
#     Edge 21, Type (0, 0), BuildingBlock: XUDNAN_clean_linker_2, # of connection points: 2
#     Edge 22, Type (0, 0), BuildingBlock: XUDNAN_clean_linker_2, # of connection points: 2
#     Edge 23, Type (0, 0), BuildingBlock: XUDNAN_clean_linker_2, # of connection points: 2
#     Edge 24, Type (0, 0), BuildingBlock: XUDNAN_clean_linker_2, # of connection points: 2
#     Edge 25, Type (0, 0), BuildingBlock: XUDNAN_clean_linker_2, # of connection points: 2
#     Edge 26, Type (0, 0), BuildingBlock: XUDNAN_clean_linker_2, # of connection points: 2
#     Edge 27, Type (0, 0), BuildingBlock: XUDNAN_clean_linker_2, # of connection points: 2
#     Edge 28, Type (0, 0), BuildingBlock: XUDNAN_clean_linker_2, # of connection points: 2
#     Edge 29, Type (0, 0), BuildingBlock: XUDNAN_clean_linker_2, # of connection points: 2
#     Edge 30, Type (0, 0), BuildingBlock: XUDNAN_clean_linker_2, # of connection points: 2
#     Edge 31, Type (0, 0), BuildingBlock: XUDNAN_clean_linker_2, # of connection points: 2
#     Edge 32, Type (0, 0), BuildingBlock: XUDNAN_clean_linker_2, # of connection points: 2
#     Edge 33, Type (0, 0), BuildingBlock: XUDNAN_clean_linker_2, # of connection points: 2
#     Edge 34, Type (0, 0), BuildingBlock: XUDNAN_clean_linker_2, # of connection points: 2
#     Edge 35, Type (0, 0), BuildingBlock: XUDNAN_clean_linker_2, # of connection points: 2
# Relax obj value: 0.152
# Max RMSD: 0.165
# Mean RMSD: 0.161
data_MOF--net-uop--node1-CEKHIL_clean_sbu_0--edge1-XUDNAN_clean_linker_2
_symmetry_space_group_name_H-M    P1
_symmetry_Int_Tables_number       1
_symmetry_cell_setting            triclinic
loop_
_symmetry_equiv_pos_as_xyz
'x, y, z'
_cell_length_a     32.800259
_cell_length_b     31.867775
_cell_length_c     44.28196
_cell_angle_alpha  90.06905
_cell_angle_beta   89.975193
_cell_angle_gamma 120.94161
loop_
_atom_site_label
_atom_site_type_symbol
_atom_site_fract_x
_atom_site_fract_y
_atom_site_fract_z
_atom_type_partial_charge
Co0 Co 0.23964 0.3996 0.2264 0.0
O1 O 0.17827 0.3609 0.24436 0.0
O2 O 0.19629 0.35132 0.19758 0.0
C3 C 0.28175 0.39712 0.2655 0.0
O4 O 0.30088 0.4323 0.20172 0.0
Co5 Co 0.30784 0.50016 0.25606 0.0
O6 O 0.35407 0.49941 0.22756 0.0
C7 C 0.22952 0.48929 0.21886 0.0
C8 C 0.16454 0.33768 0.21891 0.0
C9 C 0.34318 0.46931 0.20573 0.0
O10 O 0.22136 0.44695 0.21077 0.0
O11 O 0.25991 0.51507 0.2392 0.0
O12 O 0.26207 0.36102 0.24642 0.0
O13 O 0.27024 0.4301 0.26249 0.0
Co14 Co 0.83922 0.25719 0.52698 0.0
O15 O 0.90098 0.28091 0.54456 0.0
O16 O 0.84619 0.29572 0.56213 0.0
C17 C 0.82023 0.17958 0.52093 0.0
O18 O 0.7714 0.23754 0.51698 0.0
Co19 Co 0.81573 0.2212 0.4617 0.0
O20 O 0.74915 0.20161 0.47149 0.0
C21 C 0.88006 0.32539 0.47328 0.0
C22 C 0.88793 0.30087 0.56506 0.0
C23 C 0.7399 0.21473 0.49646 0.0
O24 O 0.86655 0.31692 0.50093 0.0
O25 O 0.86662 0.29133 0.45361 0.0
O26 O 0.81524 0.19531 0.54691 0.0
O27 O 0.8407 0.21213 0.49978 0.0
Co28 Co 0.6047 0.83059 0.88342 0.0
O29 O 0.64343 0.80374 0.89334 0.0
O30 O 0.64788 0.84107 0.85021 0.0
C31 C 0.61374 0.86869 0.9276 0.0
O32 O 0.57163 0.86558 0.86715 0.0
Co33 Co 0.51196 0.79451 0.91991 0.0
O34 O 0.51255 0.85021 0.8996 0.0
C35 C 0.51457 0.73094 0.87321 0.0
C36 C 0.66363 0.8192 0.86733 0.0
C37 C 0.53875 0.87293 0.87699 0.0
O38 O 0.5554 0.76646 0.86488 0.0
O39 O 0.49279 0.73309 0.89659 0.0
O40 O 0.64585 0.88895 0.90668 0.0
O41 O 0.58033 0.824 0.92258 0.0
Co42 Co 0.74596 0.59705 0.22408 0.0
O43 O 0.80715 0.63702 0.24209 0.0
O44 O 0.79026 0.64189 0.19424 0.0
C45 C 0.70331 0.60438 0.26089 0.0
O46 O 0.6853 0.56262 0.19891 0.0
Co47 Co 0.67641 0.50031 0.25669 0.0
O48 O 0.63153 0.49661 0.22537 0.0
C49 C 0.7534 0.50494 0.22111 0.0
C50 C 0.82162 0.65745 0.21592 0.0
C51 C 0.64333 0.52513 0.20268 0.0
O52 O 0.76347 0.54739 0.21185 0.0
O53 O 0.72227 0.48129 0.2415 0.0
O54 O 0.72375 0.6382 0.2405 0.0
O55 O 0.71451 0.57093 0.26088 0.0
Co56 Co 0.15385 0.74482 0.52403 0.0
O57 O 0.08943 0.71964 0.53645 0.0
O58 O 0.14154 0.70632 0.56013 0.0
C59 C 0.17219 0.82187 0.51637 0.0
O60 O 0.22322 0.76601 0.5185 0.0
Co61 Co 0.18326 0.7791 0.4589 0.0
O62 O 0.24834 0.7981 0.47225 0.0
C63 C 0.11988 0.67522 0.47081 0.0
C64 C 0.09893 0.69944 0.55862 0.0
C65 C 0.25597 0.78712 0.49845 0.0
O66 O 0.13208 0.68511 0.49859 0.0
O67 O 0.13317 0.70855 0.45069 0.0
O68 O 0.17349 0.80644 0.54325 0.0
O69 O 0.15506 0.78906 0.49512 0.0
Co70 Co 0.40321 0.16829 0.88333 0.0
O71 O 0.36106 0.19286 0.88866 0.0
O72 O 0.36879 0.1605 0.8463 0.0
C73 C 0.38542 0.12547 0.92623 0.0
O74 O 0.44153 0.13721 0.87025 0.0
Co75 Co 0.48707 0.20084 0.92813 0.0
O76 O 0.49683 0.15271 0.90581 0.0
C77 C 0.49166 0.27034 0.88315 0.0
C78 C 0.34863 0.18069 0.86074 0.0
C79 C 0.47507 0.13224 0.8814 0.0
O80 O 0.45493 0.23513 0.87012 0.0
O81 O 0.50783 0.26531 0.90831 0.0
O82 O 0.35824 0.10691 0.90267 0.0
O83 O 0.41876 0.17084 0.92413 0.0
Co84 Co 0.60426 0.75333 0.47426 0.0
O85 O 0.6381 0.73045 0.45058 0.0
O86 O 0.56705 0.71879 0.43928 0.0
C87 C 0.66483 0.8298 0.48216 0.0
O88 O 0.55908 0.77239 0.49235 0.0
Co89 Co 0.63032 0.78296 0.54129 0.0
O90 O 0.58507 0.80658 0.53805 0.0
C91 C 0.57905 0.67894 0.5248 0.0
C92 C 0.6018 0.712 0.43244 0.0
C93 C 0.55644 0.79465 0.51586 0.0
O94 O 0.57413 0.69079 0.49791 0.0
O95 O 0.60308 0.71043 0.54532 0.0
O96 O 0.6413 0.81844 0.45691 0.0
O97 O 0.65446 0.79368 0.50016 0.0
Co98 Co 0.8498 0.6124 0.77278 0.0
O99 O 0.82418 0.65395 0.76586 0.0
O100 O 0.85982 0.65245 0.808 0.0
C101 C 0.88701 0.62448 0.72841 0.0
O102 O 0.88249 0.57614 0.7872 0.0
Co103 Co 0.81629 0.52026 0.73239 0.0
O104 O 0.86648 0.51542 0.75438 0.0
C105 C 0.75077 0.52477 0.77518 0.0
C106 C 0.83791 0.67026 0.79308 0.0
C107 C 0.88826 0.5414 0.77743 0.0
O108 O 0.78629 0.56018 0.78901 0.0
O109 O 0.75462 0.50754 0.74995 0.0
O110 O 0.90732 0.65635 0.75003 0.0
O111 O 0.84366 0.59042 0.73324 0.0
Co112 Co 0.2185 0.83656 0.12678 0.0
O113 O 0.15283 0.81595 0.12251 0.0
O114 O 0.19106 0.83255 0.1662 0.0
C115 C 0.24734 0.89344 0.09067 0.0
O116 O 0.28728 0.86088 0.13858 0.0
Co117 Co 0.26511 0.81475 0.07258 0.0
O118 O 0.32361 0.85679 0.09636 0.0
C119 C 0.20277 0.73498 0.1129 0.0
C120 C 0.15158 0.81872 0.15165 0.0
C121 C 0.32473 0.8694 0.12388 0.0
O122 O 0.20163 0.7665 0.13043 0.0
O123 O 0.2224 0.74579 0.08685 0.0
O124 O 0.2376 0.90355 0.11716 0.0
O125 O 0.23247 0.84782 0.0856 0.0
Co126 Co 0.39063 0.24797 0.47174 0.0
O127 O 0.35637 0.27228 0.45029 0.0
O128 O 0.42706 0.28446 0.43691 0.0
C129 C 0.32985 0.17146 0.47879 0.0
O130 O 0.43575 0.22751 0.48814 0.0
Co131 Co 0.36521 0.21654 0.53856 0.0
O132 O 0.40969 0.19224 0.53358 0.0
C133 C 0.41716 0.3209 0.52352 0.0
C134 C 0.39229 0.29204 0.43195 0.0
C135 C 0.43808 0.20433 0.51124 0.0
O136 O 0.42195 0.30946 0.49649 0.0
O137 O 0.39269 0.28901 0.54371 0.0
O138 O 0.35276 0.1837 0.45329 0.0
O139 O 0.34089 0.2069 0.49755 0.0
Co140 Co 0.1598 0.38822 0.76681 0.0
O141 O 0.17957 0.34358 0.75513 0.0
O142 O 0.16296 0.35374 0.80212 0.0
C143 C 0.10607 0.36938 0.73021 0.0
O144 O 0.13549 0.42964 0.78598 0.0
Co145 Co 0.18206 0.47264 0.72215 0.0
O146 O 0.14109 0.48315 0.75039 0.0
C147 C 0.259 0.47811 0.75825 0.0
C148 C 0.17634 0.33159 0.78333 0.0
C149 C 0.12792 0.4632 0.77631 0.0
O150 O 0.22797 0.44129 0.77366 0.0
O151 O 0.2487 0.49348 0.73446 0.0
O152 O 0.09489 0.34224 0.75421 0.0
O153 O 0.15048 0.40239 0.72736 0.0
Co154 Co 0.76422 0.14944 0.13321 0.0
O155 O 0.83109 0.17637 0.1285 0.0
O156 O 0.79313 0.15536 0.17235 0.0
C157 C 0.74017 0.09356 0.09635 0.0
O158 O 0.69458 0.11824 0.14544 0.0
Co159 Co 0.71078 0.16404 0.08005 0.0
O160 O 0.65547 0.11077 0.10197 0.0
C161 C 0.76951 0.24639 0.12016 0.0
C162 C 0.83296 0.17281 0.15754 0.0
C163 C 0.65613 0.10073 0.12978 0.0
O164 O 0.77445 0.21712 0.13761 0.0
O165 O 0.74895 0.23366 0.09441 0.0
O166 O 0.75147 0.08459 0.12265 0.0
O167 O 0.75028 0.13805 0.09203 0.0
H168 H 0.20375 0.71197 0.17166 0.0
H169 H 0.16971 0.64875 0.08185 0.0
H170 H 0.15697 0.57077 0.10249 0.0
H171 H 0.275 0.6692 0.18941 0.0
H172 H 0.25998 0.65817 0.22891 0.0
H173 H 0.25344 0.7035 0.20916 0.0
H174 H 0.16473 0.66021 0.22474 0.0
H175 H 0.17108 0.61472 0.24486 0.0
H176 H 0.12587 0.59621 0.21628 0.0
H177 H 0.16002 0.50501 0.13122 0.0
H178 H 0.18522 0.46 0.16395 0.0
H179 H 0.22327 0.56913 0.23421 0.0
C180 C 0.19157 0.68104 0.15654 0.0
C181 C 0.18683 0.68596 0.12527 0.0
C182 C 0.17294 0.64542 0.10595 0.0
C183 C 0.1654 0.60098 0.11752 0.0
C184 C 0.17221 0.59794 0.14836 0.0
C185 C 0.18507 0.63702 0.1676 0.0
C186 C 0.19829 0.62774 0.19858 0.0
C187 C 0.24971 0.66695 0.20697 0.0
C188 C 0.16286 0.62451 0.22253 0.0
C189 C 0.19328 0.57842 0.19337 0.0
C190 C 0.17662 0.56106 0.16462 0.0
C191 C 0.17238 0.51787 0.15392 0.0
C192 C 0.18686 0.49258 0.17272 0.0
C193 C 0.20645 0.51121 0.20163 0.0
C194 C 0.20831 0.55391 0.21229 0.0
H195 H 0.67659 0.21759 0.45729 0.0
H196 H 0.6941 0.18682 0.5502 0.0
H197 H 0.6142 0.17165 0.56246 0.0
H198 H 0.6233 0.28555 0.47501 0.0
H199 H 0.5829 0.26472 0.44342 0.0
H200 H 0.63827 0.26605 0.44067 0.0
H201 H 0.59276 0.17391 0.42672 0.0
H202 H 0.53714 0.17234 0.42942 0.0
H203 H 0.54658 0.13051 0.45142 0.0
H204 H 0.53556 0.16487 0.56557 0.0
H205 H 0.46548 0.17342 0.56064 0.0
H206 H 0.50022 0.21338 0.4663 0.0
C207 C 0.66299 0.20656 0.47999 0.0
C208 C 0.69103 0.20281 0.50278 0.0
C209 C 0.67292 0.18973 0.53247 0.0
C210 C 0.62754 0.18075 0.53959 0.0
C211 C 0.60098 0.1855 0.51679 0.0
C212 C 0.61804 0.19844 0.48764 0.0
C213 C 0.58427 0.20601 0.46826 0.0
C214 C 0.60865 0.25871 0.45614 0.0
C215 C 0.56398 0.16845 0.44243 0.0
C216 C 0.54625 0.19647 0.49129 0.0
C217 C 0.55616 0.18366 0.51892 0.0
C218 C 0.52718 0.17454 0.54399 0.0
C219 C 0.4874 0.1795 0.54093 0.0
C220 C 0.4773 0.19422 0.51309 0.0
C221 C 0.50687 0.20204 0.48787 0.0
H222 H 0.43373 0.64323 0.88555 0.0
H223 H 0.53779 0.72154 0.81514 0.0
H224 H 0.48841 0.65595 0.77902 0.0
H225 H 0.39592 0.51548 0.85717 0.0
H226 H 0.33511 0.49319 0.86783 0.0
H227 H 0.383 0.54105 0.88954 0.0
H228 H 0.34695 0.59602 0.88178 0.0
H229 H 0.29931 0.54868 0.86 0.0
H230 H 0.33597 0.60873 0.84395 0.0
H231 H 0.42065 0.59276 0.74851 0.0
H232 H 0.34212 0.53301 0.72705 0.0
H233 H 0.28414 0.49252 0.81746 0.0
C234 C 0.44689 0.64588 0.86278 0.0
C235 C 0.48955 0.68766 0.8532 0.0
C236 C 0.50533 0.68986 0.82312 0.0
C237 C 0.47755 0.65268 0.80239 0.0
C238 C 0.43464 0.613 0.81225 0.0
C239 C 0.41986 0.60881 0.84192 0.0
C240 C 0.37028 0.56506 0.84611 0.0
C241 C 0.37115 0.5264 0.86636 0.0
C242 C 0.33615 0.58059 0.85868 0.0
C243 C 0.35828 0.54729 0.81382 0.0
C244 C 0.39607 0.57499 0.79465 0.0
C245 C 0.3913 0.56973 0.76335 0.0
C246 C 0.34659 0.53595 0.75135 0.0
C247 C 0.30745 0.50769 0.77064 0.0
C248 C 0.31387 0.51254 0.80224 0.0
H249 H 0.75286 0.42178 0.23791 0.0
H250 H 0.79953 0.53041 0.16668 0.0
H251 H 0.82 0.48037 0.13496 0.0
H252 H 0.84376 0.38475 0.22211 0.0
H253 H 0.80125 0.3218 0.23102 0.0
H254 H 0.79848 0.37029 0.2501 0.0
H255 H 0.7107 0.33211 0.23336 0.0
H256 H 0.71327 0.28395 0.21403 0.0
H257 H 0.69612 0.3215 0.19376 0.0
H258 H 0.81863 0.41113 0.10731 0.0
H259 H 0.80395 0.33152 0.08809 0.0
H260 H 0.76407 0.27062 0.17817 0.0
C261 C 0.76879 0.4358 0.21603 0.0
C262 C 0.7744 0.47993 0.2048 0.0
C263 C 0.79506 0.49684 0.17591 0.0
C264 C 0.80683 0.46864 0.15766 0.0
C265 C 0.79885 0.42423 0.16889 0.0
C266 C 0.78139 0.40846 0.1977 0.0
C267 C 0.7725 0.35762 0.20351 0.0
C268 C 0.80601 0.3587 0.22814 0.0
C269 C 0.72005 0.32172 0.21162 0.0
C270 C 0.785 0.34617 0.17291 0.0
C271 C 0.80044 0.38514 0.15327 0.0
C272 C 0.80812 0.38091 0.12271 0.0
C273 C 0.79946 0.33559 0.11195 0.0
C274 C 0.78381 0.29543 0.1318 0.0
C275 C 0.77752 0.30125 0.16272 0.0
H276 H 0.49452 0.78567 0.47109 0.0
H277 H 0.52808 0.82421 0.56571 0.0
H278 H 0.45764 0.83244 0.57055 0.0
H279 H 0.44896 0.86801 0.45596 0.0
H280 H 0.40319 0.82469 0.43098 0.0
H281 H 0.45852 0.82585 0.43433 0.0
H282 H 0.41232 0.73377 0.44824 0.0
H283 H 0.35694 0.73235 0.44509 0.0
H284 H 0.3715 0.71307 0.47962 0.0
H285 H 0.37872 0.82662 0.56674 0.0
H286 H 0.2997 0.81328 0.55333 0.0
H287 H 0.31976 0.78307 0.46074 0.0
C288 C 0.48752 0.79655 0.49274 0.0
C289 C 0.51684 0.80416 0.51803 0.0
C290 C 0.5063 0.81829 0.54596 0.0
C291 C 0.46632 0.82305 0.54896 0.0
C292 C 0.43764 0.81425 0.52375 0.0
C293 C 0.44807 0.80195 0.49607 0.0
C294 C 0.41047 0.79259 0.47282 0.0
C295 C 0.43156 0.83003 0.447 0.0
C296 C 0.3864 0.73982 0.46075 0.0
C297 C 0.37668 0.80038 0.49194 0.0
C298 C 0.39295 0.81276 0.52128 0.0
C299 C 0.36602 0.81789 0.54371 0.0
C300 C 0.32118 0.81003 0.53596 0.0
C301 C 0.30412 0.79778 0.50598 0.0
C302 C 0.33251 0.79351 0.48367 0.0
H303 H 0.57792 0.34974 0.89872 0.0
H304 H 0.46738 0.29682 0.83036 0.0
H305 H 0.51857 0.36875 0.79902 0.0
H306 H 0.62856 0.48637 0.8841 0.0
H307 H 0.68811 0.49912 0.89067 0.0
H308 H 0.63887 0.45044 0.91104 0.0
H309 H 0.66338 0.38953 0.89217 0.0
H310 H 0.71222 0.43763 0.87167 0.0
H311 H 0.66885 0.38304 0.85215 0.0
H312 H 0.58618 0.43317 0.77057 0.0
H313 H 0.6649 0.48803 0.74793 0.0
H314 H 0.73171 0.50256 0.83479 0.0
C315 C 0.56377 0.35415 0.87766 0.0
C316 C 0.5187 0.31749 0.86698 0.0
C317 C 0.50183 0.32428 0.83905 0.0
C318 C 0.53054 0.36527 0.82114 0.0
C319 C 0.57569 0.39955 0.83168 0.0
C320 C 0.59199 0.39491 0.85954 0.0
C321 C 0.64401 0.4332 0.86384 0.0
C322 C 0.65024 0.46944 0.8889 0.0
C323 C 0.67382 0.4094 0.87031 0.0
C324 C 0.6553 0.45754 0.83317 0.0
C325 C 0.6151 0.4383 0.81521 0.0
C326 C 0.61762 0.44975 0.78465 0.0
C327 C 0.66242 0.48063 0.77195 0.0
C328 C 0.70394 0.4998 0.78982 0.0
C329 C 0.7002 0.48947 0.82097 0.0
H330 H 0.61318 0.58795 0.19261 0.0
H331 H 0.58347 0.44244 0.17169 0.0
H332 H 0.50313 0.41929 0.15431 0.0
H333 H 0.51812 0.55384 0.22929 0.0
H334 H 0.50477 0.60003 0.21849 0.0
H335 H 0.56455 0.61298 0.21625 0.0
H336 H 0.56916 0.63456 0.15971 0.0
H337 H 0.50929 0.62299 0.16163 0.0
H338 H 0.52451 0.59176 0.13395 0.0
H339 H 0.42178 0.40438 0.15441 0.0
H340 H 0.34838 0.3986 0.17347 0.0
H341 H 0.42828 0.55264 0.1966 0.0
C342 C 0.5907 0.55245 0.1823 0.0
C343 C 0.60456 0.51736 0.18251 0.0
C344 C 0.57363 0.47008 0.1708 0.0
C345 C 0.52794 0.45671 0.1609 0.0
C346 C 0.51363 0.49096 0.16313 0.0
C347 C 0.54445 0.53828 0.1732 0.0
C348 C 0.51789 0.56443 0.18023 0.0
C349 C 0.52683 0.58383 0.21299 0.0
C350 C 0.53099 0.60588 0.15752 0.0
C351 C 0.46716 0.52305 0.17559 0.0
C352 C 0.46543 0.48166 0.16438 0.0
C353 C 0.4226 0.43696 0.16229 0.0
C354 C 0.38096 0.43394 0.17318 0.0
C355 C 0.38273 0.47517 0.18655 0.0
C356 C 0.42592 0.52064 0.18627 0.0
H357 H 0.077 0.59889 0.50996 0.0
H358 H 0.08677 0.63333 0.4144 0.0
H359 H 0.02698 0.54637 0.40355 0.0
H360 H 0.06158 0.47862 0.50268 0.0
H361 H 0.02061 0.45478 0.53393 0.0
H362 H 0.06626 0.51851 0.5331 0.0
H363 H 0.00202 0.54207 0.53903 0.0
H364 H 0.95594 0.47858 0.5393 0.0
H365 H 0.95402 0.51963 0.51213 0.0
H366 H 0.96375 0.4538 0.4042 0.0
H367 H 0.90369 0.36743 0.4164 0.0
H368 H 0.93611 0.39928 0.51166 0.0
C369 C 0.06737 0.58844 0.48659 0.0
C370 C 0.08701 0.62306 0.46299 0.0
C371 C 0.07247 0.60744 0.43286 0.0
C372 C 0.03852 0.55815 0.42651 0.0
C373 C 0.01946 0.52522 0.45055 0.0
C374 C 0.03361 0.54002 0.47997 0.0
C375 C 0.00689 0.49882 0.50215 0.0
C376 C 0.04086 0.48699 0.51893 0.0
C377 C 0.978 0.51048 0.52444 0.0
C378 C 0.97497 0.45827 0.48073 0.0
C379 C 0.98277 0.47364 0.45101 0.0
C380 C 0.95738 0.44155 0.42743 0.0
C381 C 0.92336 0.39264 0.43454 0.0
C382 C 0.91477 0.37671 0.46498 0.0
C383 C 0.94111 0.41027 0.48816 0.0
H384 H 0.42072 0.03366 0.87896 0.0
H385 H 0.55881 0.15586 0.85472 0.0
H386 H 0.58547 0.09856 0.84047 0.0
H387 H 0.46296 0.97265 0.91681 0.0
H388 H 0.4169 0.91159 0.90659 0.0
H389 H 0.40452 0.96028 0.90673 0.0
H390 H 0.37735 0.94184 0.85089 0.0
H391 H 0.38945 0.89267 0.85059 0.0
H392 H 0.41667 0.94074 0.82286 0.0
H393 H 0.60104 0.02941 0.83694 0.0
H394 H 0.60621 0.95628 0.84825 0.0
H395 H 0.45919 0.87968 0.87763 0.0
C396 C 0.4557 0.04793 0.86918 0.0
C397 C 0.48734 0.09874 0.86685 0.0
C398 C 0.53384 0.1168 0.85576 0.0
C399 C 0.54916 0.08453 0.84761 0.0
C400 C 0.51763 0.03438 0.85106 0.0
C401 C 0.47177 0.01617 0.8616 0.0
C402 C 0.44761 0.96194 0.8682 0.0
C403 C 0.43214 0.95103 0.90155 0.0
C404 C 0.40526 0.93257 0.84685 0.0
C405 C 0.48772 0.95298 0.86121 0.0
C406 C 0.52733 0.99475 0.85045 0.0
C407 C 0.56994 0.99622 0.84478 0.0
C408 C 0.57255 0.95446 0.85117 0.0
C409 C 0.53308 0.91227 0.86371 0.0
C410 C 0.48984 0.91127 0.86782 0.0
H411 H 0.54739 0.60379 0.48462 0.0
H412 H 0.55864 0.63489 0.58075 0.0
H413 H 0.51807 0.54606 0.5915 0.0
H414 H 0.43233 0.49588 0.48586 0.0
H415 H 0.44702 0.4658 0.45708 0.0
H416 H 0.47658 0.53145 0.45774 0.0
H417 H 0.55813 0.53659 0.45936 0.0
H418 H 0.52849 0.47084 0.45901 0.0
H419 H 0.56977 0.50515 0.48884 0.0
H420 H 0.47358 0.45265 0.59114 0.0
H421 H 0.43314 0.36397 0.57978 0.0
H422 H 0.45461 0.39719 0.48397 0.0
C423 C 0.54128 0.5921 0.50799 0.0
C424 C 0.55589 0.62624 0.53186 0.0
C425 C 0.54775 0.60932 0.5621 0.0
C426 C 0.52466 0.55899 0.56841 0.0
C427 C 0.51045 0.52633 0.54423 0.0
C428 C 0.51885 0.54239 0.51465 0.0
C429 C 0.50077 0.50036 0.49261 0.0
C430 C 0.46185 0.49825 0.47214 0.0
C431 C 0.54174 0.50343 0.47387 0.0
C432 C 0.48063 0.4579 0.51438 0.0
C433 C 0.48619 0.47335 0.54406 0.0
C434 C 0.46929 0.44018 0.56798 0.0
C435 C 0.4463 0.38993 0.56132 0.0
C436 C 0.44088 0.37358 0.53101 0.0
C437 C 0.4584 0.4083 0.5074 0.0
H438 H 0.89016 0.45682 0.77864 0.0
H439 H 0.96937 0.60866 0.80686 0.0
H440 H 0.03716 0.5993 0.82098 0.0
H441 H 0.94326 0.41023 0.83737 0.0
H442 H 0.94276 0.36745 0.81049 0.0
H443 H 0.89719 0.3831 0.80914 0.0
H444 H 0.91782 0.40883 0.75303 0.0
H445 H 0.96282 0.39291 0.75446 0.0
H446 H 0.97827 0.45361 0.74303 0.0
H447 H 0.10165 0.57937 0.81946 0.0
H448 H 0.15494 0.54905 0.80509 0.0
H449 H 0.033 0.40843 0.78223 0.0
C450 C 0.92116 0.4876 0.78881 0.0
C451 C 0.92451 0.53341 0.79174 0.0
C452 C 0.9658 0.57304 0.80479 0.0
C453 C 0.0045 0.56803 0.81288 0.0
C454 C 0.00082 0.5228 0.80854 0.0
C455 C 0.95969 0.48293 0.79743 0.0
C456 C 0.9663 0.43992 0.79177 0.0
C457 C 0.93555 0.39768 0.8135 0.0
C458 C 0.95571 0.42292 0.7586 0.0
C459 C 0.01858 0.4629 0.79915 0.0
C460 C 0.03777 0.51051 0.80931 0.0
C461 C 0.08676 0.54157 0.8128 0.0
C462 C 0.11682 0.5241 0.80473 0.0
C463 C 0.0977 0.47591 0.79375 0.0
C464 C 0.04807 0.44455 0.79199 0.0
H465 H 0.40529 0.87223 0.10625 0.0
H466 H 0.35188 0.93227 0.17263 0.0
H467 H 0.43449 0.9907 0.18898 0.0
H468 H 0.51312 0.89268 0.14972 0.0
H469 H 0.54756 0.90855 0.11543 0.0
H470 H 0.48467 0.86441 0.11448 0.0
H471 H 0.47368 0.91588 0.0735 0.0
H472 H 0.53619 0.95985 0.07444 0.0
H473 H 0.49414 0.97933 0.08098 0.0
H474 H 0.52379 0.05225 0.19121 0.0
H475 H 0.60847 0.1101 0.17801 0.0
H476 H 0.60042 0.00979 0.10913 0.0
C477 C 0.41073 0.8966 0.1249 0.0
C478 C 0.37217 0.89767 0.1382 0.0
C479 C 0.38089 0.93043 0.16234 0.0
C480 C 0.42772 0.96373 0.17176 0.0
C481 C 0.46518 0.96318 0.1571 0.0
C482 C 0.4569 0.92988 0.13436 0.0
C483 C 0.50246 0.94039 0.11918 0.0
C484 C 0.51254 0.89904 0.12508 0.0
C485 C 0.50153 0.94944 0.08504 0.0
C486 C 0.53755 0.9865 0.13565 0.0
C487 C 0.51596 -0.00138 0.15805 0.0
C488 C 0.54119 0.04242 0.17424 0.0
C489 C 0.58916 0.07499 0.16672 0.0
C490 C 0.61059 0.06365 0.14292 0.0
C491 C 0.58483 0.01851 0.12787 0.0
H492 H 0.31338 0.33401 0.27385 0.0
H493 H 0.31931 0.46226 0.31237 0.0
H494 H 0.36269 0.45723 0.35651 0.0
H495 H 0.28664 0.26831 0.3382 0.0
H496 H 0.32172 0.2406 0.33097 0.0
H497 H 0.3001 0.25999 0.29996 0.0
H498 H 0.38606 0.31415 0.27987 0.0
H499 H 0.40804 0.29473 0.31089 0.0
H500 H 0.43151 0.35899 0.30439 0.0
H501 H 0.38981 0.42872 0.40003 0.0
H502 H 0.40144 0.38031 0.43901 0.0
H503 H 0.38199 0.273 0.37177 0.0
C504 C 0.32497 0.36185 0.29118 0.0
C505 C 0.313 0.39847 0.28983 0.0
C506 C 0.32828 0.43397 0.31301 0.0
C507 C 0.3531 0.43152 0.33806 0.0
C508 C 0.36298 0.39388 0.33922 0.0
C509 C 0.34995 0.36004 0.31618 0.0
C510 C 0.3601 0.32014 0.32427 0.0
C511 C 0.31443 0.2693 0.32331 0.0
C512 C 0.39874 0.32215 0.30363 0.0
C513 C 0.3782 0.33512 0.3562 0.0
C514 C 0.38035 0.37825 0.36422 0.0
C515 C 0.38994 0.39596 0.39374 0.0
C516 C 0.39652 0.3684 0.41569 0.0
C517 C 0.39406 0.32421 0.40787 0.0
C518 C 0.38587 0.30784 0.37777 0.0
H519 H 0.98383 0.34086 0.57137 0.0
H520 H 0.85642 0.30918 0.6202 0.0
H521 H 0.90131 0.33174 0.66804 0.0
H522 H 0.02696 0.29287 0.62164 0.0
H523 H 0.08898 0.33911 0.61834 0.0
H524 H 0.04926 0.3279 0.58734 0.0
H525 H 0.07301 0.41904 0.58714 0.0
H526 H 0.1136 0.43083 0.61788 0.0
H527 H 0.06847 0.44679 0.62148 0.0
H528 H 0.95411 0.33904 0.71032 0.0
H529 H 0.0166 0.34633 0.74483 0.0
H530 H 0.11293 0.38275 0.66918 0.0
C531 C 0.96586 0.3401 0.59207 0.0
C532 C 0.91678 0.3232 0.59226 0.0
C533 C 0.89414 0.32238 0.61964 0.0
C534 C 0.91929 0.33499 0.6469 0.0
C535 C 0.96726 0.34964 0.64616 0.0
C536 C 0.99076 0.35376 0.6194 0.0
C537 C 0.04189 0.36822 0.62508 0.0
C538 C 0.05234 0.32972 0.61235 0.0
C539 C 0.07628 0.41926 0.61213 0.0
C540 C 0.04261 0.36879 0.65926 0.0
C541 C -0.0009 0.35782 0.67094 0.0
C542 C 0.98897 0.34969 0.70164 0.0
C543 C 0.02445 0.35352 0.721 0.0
C544 C 0.06961 0.36619 0.70959 0.0
C545 C 0.07899 0.37444 0.67843 0.0
H546 H 0.66076 0.96699 0.93606 0.0
H547 H 0.57592 0.82878 0.98258 0.0
H548 H 0.5929 0.87289 0.0313 0.0
H549 H 0.75085 0.02203 0.98698 0.0
H550 H 0.75965 0.08259 0.98431 0.0
H551 H 0.73514 0.04125 0.95285 0.0
H552 H 0.66125 0.05073 0.95268 0.0
H553 H 0.6859 0.09283 0.98394 0.0
H554 H 0.62724 0.0394 0.98685 0.0
H555 H 0.63076 0.93027 0.07483 0.0
H556 H 0.67953 0.99792 0.11012 0.0
H557 H 0.73521 0.09961 0.03512 0.0
C558 C 0.64488 0.94617 0.95646 0.0
C559 C 0.61732 0.89464 0.95581 0.0
C560 C 0.59698 0.86837 0.98276 0.0
C561 C 0.60645 0.8931 0.01046 0.0
C562 C 0.63525 0.94397 0.01048 0.0
C563 C 0.65323 0.97031 0.9841 0.0
C564 C 0.6853 0.02441 0.99037 0.0
C565 C 0.7357 0.04366 0.9779 0.0
C566 C 0.66361 0.05356 0.97771 0.0
C567 C 0.6848 0.02411 0.02449 0.0
C568 C 0.65548 0.97739 0.03566 0.0
C569 C 0.65294 0.96714 0.06639 0.0
C570 C 0.6811 0.00565 0.0862 0.0
C571 C 0.7108 0.05377 0.07519 0.0
C572 C 0.71214 0.06319 0.04404 0.0
H573 H 0.65003 0.66475 0.42259 0.0
H574 H 0.55202 0.70004 0.38052 0.0
H575 H 0.55799 0.66359 0.33258 0.0
H576 H 0.72675 0.69418 0.36386 0.0
H577 H 0.73788 0.64476 0.36859 0.0
H578 H 0.72017 0.66661 0.40045 0.0
H579 H 0.64895 0.57906 0.41011 0.0
H580 H 0.6666 0.55681 0.3782 0.0
H581 H 0.60726 0.54658 0.38011 0.0
H582 H 0.58683 0.63871 0.28768 0.0
H583 H 0.63208 0.62162 0.24992 0.0
H584 H 0.70564 0.59528 0.32173 0.0
C585 C 0.62907 0.66383 0.40343 0.0
C586 C 0.60078 0.68533 0.40503 0.0
C587 C 0.57375 0.68351 0.37966 0.0
C588 C 0.57685 0.66281 0.35242 0.0
C589 C 0.60608 0.64296 0.35131 0.0
C590 C 0.63098 0.64238 0.37633 0.0
C591 C 0.66232 0.62182 0.36875 0.0
C592 C 0.71486 0.65908 0.37582 0.0
C593 C 0.64525 0.57317 0.38527 0.0
C594 C 0.65358 0.61387 0.33512 0.0
C595 C 0.62062 0.62582 0.32554 0.0
C596 C 0.61145 0.62771 0.29498 0.0
C597 C 0.63731 0.61814 0.27373 0.0
C598 C 0.67123 0.60616 0.28319 0.0
C599 C 0.67853 0.60266 0.31417 0.0
H600 H 0.10909 0.71306 0.61923 0.0
H601 H 0.00778 0.6278 0.54917 0.0
H602 H 0.94337 0.59134 0.58714 0.0
H603 H 0.05079 0.62362 0.68334 0.0
H604 H 0.06397 0.67217 0.70967 0.0
H605 H 0.10357 0.68292 0.67851 0.0
H606 H 0.09572 0.75632 0.66173 0.0
H607 H 0.0556 0.74541 0.69245 0.0
H608 H 0.03754 0.74687 0.65421 0.0
H609 H 0.88934 0.57205 0.63074 0.0
H610 H 0.84787 0.57236 0.6771 0.0
H611 H 0.98325 0.67542 0.71839 0.0
C612 C 0.07362 0.68522 0.61229 0.0
C613 C 0.06306 0.67207 0.58168 0.0
C614 C 0.01618 0.63742 0.57277 0.0
C615 C 0.97959 0.61657 0.59413 0.0
C616 C 0.99063 0.63152 0.62411 0.0
C617 C 0.03648 0.66506 0.63326 0.0
C618 C 0.03762 0.68 0.66589 0.0
C619 C 0.06564 0.66369 0.68551 0.0
C620 C 0.0578 0.73542 0.66871 0.0
C621 C 0.98513 0.65103 0.67326 0.0
C622 C 0.95886 0.62244 0.64907 0.0
C623 C 0.90951 0.59383 0.64997 0.0
C624 C 0.88631 0.59444 0.67632 0.0
C625 C 0.91244 0.62414 0.70115 0.0
C626 C 0.96247 0.65256 0.69964 0.0
H627 H 0.2504 0.88907 0.02909 0.0
H628 H 0.31511 0.98596 0.10577 0.0
H629 H 0.36597 0.05383 0.07134 0.0
H630 H 0.35794 0.94576 0.97909 0.0
H631 H 0.3231 0.93823 0.94586 0.0
H632 H 0.29769 0.89496 0.97645 0.0
H633 H 0.22774 0.91077 0.97975 0.0
H634 H 0.25292 0.95398 0.94929 0.0
H635 H 0.24031 0.97246 0.98488 0.0
H636 H 0.40425 0.11253 0.02926 0.0
H637 H 0.42318 0.15993 0.98196 0.0
H638 H 0.33065 0.02637 0.93244 0.0
C639 C 0.27607 0.92437 0.03851 0.0
C640 C 0.2791 0.93256 0.06991 0.0
C641 C 0.31223 0.97925 0.08165 0.0
C642 C 0.34155 0.01783 0.06234 0.0
C643 C 0.33707 0.00905 0.03138 0.0
C644 C 0.30508 0.96356 0.01946 0.0
C645 C 0.30345 0.96544 0.98535 0.0
C646 C 0.32163 0.93425 0.97084 0.0
C647 C 0.25313 0.94976 0.97418 0.0
C648 C 0.33787 0.01942 0.98016 0.0
C649 C 0.35789 0.0436 0.00693 0.0
C650 C 0.38921 0.094 0.00808 0.0
C651 C 0.39968 0.12059 0.98116 0.0
C652 C 0.37809 0.09672 0.95373 0.0
C653 C 0.34754 0.04546 0.95318 0.0
H654 H 0.92013 0.21628 0.13096 0.0
H655 H 0.84961 0.16525 0.21757 0.0
H656 H 0.92761 0.19365 0.24182 0.0
H657 H 0.01304 0.1866 0.1428 0.0
H658 H 0.05746 0.24091 0.12361 0.0
H659 H 0.9959 0.21254 0.11276 0.0
H660 H -0.00129 0.29443 0.1216 0.0
H661 H 0.06024 0.32307 0.13224 0.0
H662 H 0.01813 0.32463 0.15768 0.0
H663 H 0.01322 0.23335 0.25689 0.0
H664 H 0.10022 0.28473 0.26247 0.0
H665 H 0.11469 0.30915 0.16572 0.0
C666 C 0.92089 0.21042 0.15499 0.0
C667 C 0.87882 0.18835 0.17243 0.0
C668 C 0.88144 0.18198 0.20383 0.0
C669 C 0.9255 0.19774 0.21771 0.0
C670 C 0.96633 0.21953 0.19979 0.0
C671 C 0.96437 0.22594 0.16912 0.0
C672 C 0.01354 0.25351 0.15525 0.0
C673 C 0.02037 0.22146 0.13225 0.0
C674 C 0.02321 0.30176 0.14086 0.0
C675 C 0.04374 0.26269 0.18306 0.0
C676 C 0.01576 0.24231 0.20846 0.0
C677 C 0.03545 0.24888 0.23714 0.0
C678 C 0.08487 0.27814 0.24006 0.0
C679 C 0.11404 0.30046 0.21446 0.0
C680 C 0.09328 0.29157 0.18553 0.0
H681 H 0.78169 0.11917 0.47164 0.0
H682 H 0.82944 0.12494 0.56367 0.0
H683 H 0.80215 0.0371 0.56154 0.0
H684 H 0.67569 0.0073 0.47982 0.0
H685 H 0.67529 0.98464 0.44244 0.0
H686 H 0.70511 0.04949 0.44916 0.0
H687 H 0.78319 0.05995 0.42743 0.0
H688 H 0.7535 0.99502 0.42053 0.0
H689 H 0.8069 0.02462 0.443 0.0
H690 H 0.76393 0.9485 0.55166 0.0
H691 H 0.71429 0.86283 0.5349 0.0
H692 H 0.68797 0.91246 0.44984 0.0
C693 C 0.78749 0.102 0.49092 0.0
C694 C 0.80808 0.12857 0.51768 0.0
C695 C 0.81385 0.10496 0.54294 0.0
C696 C 0.79869 0.05522 0.54191 0.0
C697 C 0.77748 0.02954 0.51551 0.0
C698 C 0.7717 0.0519 0.49045 0.0
C699 C 0.74337 0.01462 0.46614 0.0
C700 C 0.69713 0.01399 0.45899 0.0
C701 C 0.77355 0.02412 0.43758 0.0
C702 C 0.73333 0.96795 0.48179 0.0
C703 C 0.75399 0.97758 0.51005 0.0
C704 C 0.74797 0.9404 0.52942 0.0
C705 C 0.71964 0.89188 0.51974 0.0
C706 C 0.69741 0.88107 0.49109 0.0
C707 C 0.70486 0.91968 0.47178 0.0
H708 H 0.78358 0.70423 0.76881 0.0
H709 H 0.86286 0.71209 0.84922 0.0
H710 H 0.83473 0.76174 0.87444 0.0
H711 H 0.79919 0.82863 0.77565 0.0
H712 H 0.73966 0.80718 0.76244 0.0
H713 H 0.77162 0.77865 0.74911 0.0
H714 H 0.70261 0.69426 0.76681 0.0
H715 H 0.67058 0.72244 0.78023 0.0
H716 H 0.6833 0.68642 0.80559 0.0
H717 H 0.78979 0.7997 0.89315 0.0
H718 H 0.73137 0.82435 0.90426 0.0
H719 H 0.68188 0.79411 0.8116 0.0
C720 C 0.79604 0.71747 0.79146 0.0
C721 C 0.82569 0.70457 0.80703 0.0
C722 C 0.84042 0.72177 0.83682 0.0
C723 C 0.82473 0.75011 0.85128 0.0
C724 C 0.79465 0.76123 0.83554 0.0
C725 C 0.78067 0.74575 0.80621 0.0
C726 C 0.74475 0.75889 0.79533 0.0
C727 C 0.76503 0.79553 0.76907 0.0
C728 C 0.69753 0.71276 0.78649 0.0
C729 C 0.73933 0.78256 0.82353 0.0
C730 C 0.76893 0.78399 0.84631 0.0
C731 C 0.76726 0.7998 0.87533 0.0
C732 C 0.73391 0.81359 0.88144 0.0
C733 C 0.70281 0.81177 0.85863 0.0
C734 C 0.70628 0.79716 0.82913 0.0
H735 H 0.87063 0.68668 0.16234 0.0
H736 H 0.88743 0.70853 0.2593 0.0
H737 H 0.97426 0.75937 0.25307 0.0
H738 H 0.96575 0.67066 0.15164 0.0
H739 H 0.98468 0.70208 0.11596 0.0
H740 H 0.92348 0.67395 0.12725 0.0
H741 H 0.92705 0.75664 0.12096 0.0
H742 H 0.98826 0.78499 0.1093 0.0
H743 H 0.97232 0.81007 0.14051 0.0
H744 H 0.05944 0.79841 0.2372 0.0
H745 H 0.13665 0.82591 0.21208 0.0
H746 H 0.06423 0.77912 0.12571 0.0
C747 C 0.89253 0.70348 0.18211 0.0
C748 C 0.87238 0.69391 0.21124 0.0
C749 C 0.9022 0.71548 0.23672 0.0
C750 C 0.95157 0.74453 0.23343 0.0
C751 C 0.97059 0.75189 0.20451 0.0
C752 C 0.94201 0.73246 0.17923 0.0
C753 C 0.97162 0.74245 0.15101 0.0
C754 C 0.96073 0.69443 0.13558 0.0
C755 C 0.96438 0.77552 0.12916 0.0
C756 C 0.02105 0.76906 0.16452 0.0
C757 C 0.01982 0.77458 0.19537 0.0
C758 C 0.06099 0.79513 0.21296 0.0
C759 C 0.10461 0.81044 0.19857 0.0
C760 C 0.10645 0.80494 0.16699 0.0
C761 C 0.0641 0.78441 0.14987 0.0
H762 H 0.21565 0.88261 0.4678 0.0
H763 H 0.15599 0.87525 0.55643 0.0
H764 H 0.18259 0.96278 0.55365 0.0
H765 H 0.31928 0.99441 0.47952 0.0
H766 H 0.32418 0.01772 0.4418 0.0
H767 H 0.29382 0.95276 0.44811 0.0
H768 H 0.21847 0.94227 0.42193 0.0
H769 H 0.24875 0.0073 0.41536 0.0
H770 H 0.19277 0.97715 0.43515 0.0
H771 H 0.22262 0.05139 0.5445 0.0
H772 H 0.27463 0.13741 0.52919 0.0
H773 H 0.31057 0.08955 0.44682 0.0
C774 C 0.20707 0.89934 0.48609 0.0
C775 C 0.18348 0.87243 0.51217 0.0
C776 C 0.17399 0.89547 0.53622 0.0
C777 C 0.18872 0.94505 0.53481 0.0
C778 C 0.21312 0.97114 0.50924 0.0
C779 C 0.22224 0.94929 0.48523 0.0
C780 C 0.25338 0.98704 0.46189 0.0
C781 C 0.30044 0.98803 0.4576 0.0
C782 C 0.22674 0.97789 0.4318 0.0
C783 C 0.26131 0.03337 0.47701 0.0
C784 C 0.23718 0.02317 0.5041 0.0
C785 C 0.24116 0.05995 0.52311 0.0
C786 C 0.2709 0.10866 0.51429 0.0
C787 C 0.29637 0.12003 0.4868 0.0
C788 C 0.29103 0.08185 0.4678 0.0
H789 H 0.21168 0.32477 0.83833 0.0
H790 H 0.1734 0.25971 0.74904 0.0
H791 H 0.20662 0.20779 0.76109 0.0
H792 H 0.32171 0.33453 0.84078 0.0
H793 H 0.32036 0.32038 0.88029 0.0
H794 H 0.28694 0.34699 0.86681 0.0
H795 H 0.20974 0.27473 0.88932 0.0
H796 H 0.24307 0.24807 0.90316 0.0
H797 H 0.19217 0.21287 0.87915 0.0
H798 H 0.25262 0.17084 0.77992 0.0
H799 H 0.30627 0.14908 0.80543 0.0
H800 H 0.31509 0.23758 0.88256 0.0
C801 C 0.20897 0.29843 0.82176 0.0
C802 C 0.18968 0.29589 0.79286 0.0
C803 C 0.18796 0.26208 0.77136 0.0
C804 C 0.20662 0.23233 0.778 0.0
C805 C 0.2269 0.23677 0.80628 0.0
C806 C 0.2279 0.26863 0.82796 0.0
C807 C 0.25559 0.26931 0.85554 0.0
C808 C 0.29869 0.32086 0.86116 0.0
C809 C 0.22319 0.25008 0.88344 0.0
C810 C 0.27097 0.23398 0.84557 0.0
C811 C 0.25369 0.21531 0.81719 0.0
C812 C 0.26573 0.18451 0.80238 0.0
C813 C 0.29635 0.17252 0.81696 0.0
C814 C 0.31453 0.19132 0.84601 0.0
C815 C 0.30119 0.22204 0.86052 0.0
loop_
_geom_bond_atom_site_label_1
_geom_bond_atom_site_label_2
_geom_bond_distance
_geom_bond_site_symmetry_2
_ccdc_geom_bond_type
Co0 O1 2.216 . S
Co0 O2 2.091 . S
Co0 O4 2.004 . S
Co0 O10 2.021 . S
Co0 O12 2.137 . S
Co0 O13 2.244 . S
O1 Co0 2.216 . S
O1 C8 1.247 . S
O2 Co0 2.091 . S
O2 C8 1.261 . S
C3 O12 1.247 . S
C3 O13 1.272 . S
O4 Co0 2.004 . S
O4 C9 1.259 . S
Co5 O6 2.061 . S
Co5 O11 2.052 . S
Co5 O13 2.135 . S
O6 Co5 2.061 . S
O6 C9 1.235 . S
C7 O10 1.238 . S
C7 O11 1.241 . S
C8 O1 1.247 . S
C8 O2 1.261 . S
C9 O4 1.259 . S
C9 O6 1.235 . S
O10 Co0 2.021 . S
O10 C7 1.238 . S
O11 Co5 2.052 . S
O11 C7 1.241 . S
O12 Co0 2.137 . S
O12 C3 1.247 . S
O13 Co0 2.244 . S
O13 C3 1.272 . S
O13 Co5 2.135 . S
Co14 O15 2.216 . S
Co14 O16 2.091 . S
Co14 O18 2.004 . S
Co14 O24 2.021 . S
Co14 O26 2.137 . S
Co14 O27 2.244 . S
O15 Co14 2.216 . S
O15 C22 1.247 . S
O16 Co14 2.091 . S
O16 C22 1.261 . S
C17 O26 1.247 . S
C17 O27 1.272 . S
O18 Co14 2.004 . S
O18 C23 1.259 . S
Co19 O20 2.061 . S
Co19 O25 2.052 . S
Co19 O27 2.135 . S
O20 Co19 2.061 . S
O20 C23 1.235 . S
C21 O24 1.238 . S
C21 O25 1.241 . S
C22 O15 1.247 . S
C22 O16 1.261 . S
C23 O18 1.259 . S
C23 O20 1.235 . S
O24 Co14 2.021 . S
O24 C21 1.238 . S
O25 Co19 2.052 . S
O25 C21 1.241 . S
O26 Co14 2.137 . S
O26 C17 1.247 . S
O27 Co14 2.244 . S
O27 C17 1.272 . S
O27 Co19 2.135 . S
Co28 O29 2.216 . S
Co28 O30 2.091 . S
Co28 O32 2.004 . S
Co28 O38 2.021 . S
Co28 O40 2.137 . S
Co28 O41 2.244 . S
O29 Co28 2.216 . S
O29 C36 1.247 . S
O30 Co28 2.091 . S
O30 C36 1.261 . S
C31 O40 1.247 . S
C31 O41 1.272 . S
O32 Co28 2.004 . S
O32 C37 1.259 . S
Co33 O34 2.061 . S
Co33 O39 2.052 . S
Co33 O41 2.135 . S
O34 Co33 2.061 . S
O34 C37 1.235 . S
C35 O38 1.238 . S
C35 O39 1.241 . S
C36 O29 1.247 . S
C36 O30 1.261 . S
C37 O32 1.259 . S
C37 O34 1.235 . S
O38 Co28 2.021 . S
O38 C35 1.238 . S
O39 Co33 2.052 . S
O39 C35 1.241 . S
O40 Co28 2.137 . S
O40 C31 1.247 . S
O41 Co28 2.244 . S
O41 C31 1.272 . S
O41 Co33 2.135 . S
Co42 O43 2.216 . S
Co42 O44 2.091 . S
Co42 O46 2.004 . S
Co42 O52 2.021 . S
Co42 O54 2.137 . S
Co42 O55 2.244 . S
O43 Co42 2.216 . S
O43 C50 1.247 . S
O44 Co42 2.091 . S
O44 C50 1.261 . S
C45 O54 1.247 . S
C45 O55 1.272 . S
O46 Co42 2.004 . S
O46 C51 1.259 . S
Co47 O48 2.061 . S
Co47 O53 2.052 . S
Co47 O55 2.135 . S
O48 Co47 2.061 . S
O48 C51 1.235 . S
C49 O52 1.238 . S
C49 O53 1.241 . S
C50 O43 1.247 . S
C50 O44 1.261 . S
C51 O46 1.259 . S
C51 O48 1.235 . S
O52 Co42 2.021 . S
O52 C49 1.238 . S
O53 Co47 2.052 . S
O53 C49 1.241 . S
O54 Co42 2.137 . S
O54 C45 1.247 . S
O55 Co42 2.244 . S
O55 C45 1.272 . S
O55 Co47 2.135 . S
Co56 O57 2.216 . S
Co56 O58 2.091 . S
Co56 O60 2.004 . S
Co56 O66 2.021 . S
Co56 O68 2.137 . S
Co56 O69 2.244 . S
O57 Co56 2.216 . S
O57 C64 1.247 . S
O58 Co56 2.091 . S
O58 C64 1.261 . S
C59 O68 1.247 . S
C59 O69 1.272 . S
O60 Co56 2.004 . S
O60 C65 1.259 . S
Co61 O62 2.061 . S
Co61 O67 2.052 . S
Co61 O69 2.135 . S
O62 Co61 2.061 . S
O62 C65 1.235 . S
C63 O66 1.238 . S
C63 O67 1.241 . S
C64 O57 1.247 . S
C64 O58 1.261 . S
C65 O60 1.259 . S
C65 O62 1.235 . S
O66 Co56 2.021 . S
O66 C63 1.238 . S
O67 Co61 2.052 . S
O67 C63 1.241 . S
O68 Co56 2.137 . S
O68 C59 1.247 . S
O69 Co56 2.244 . S
O69 C59 1.272 . S
O69 Co61 2.135 . S
Co70 O71 2.216 . S
Co70 O72 2.091 . S
Co70 O74 2.004 . S
Co70 O80 2.021 . S
Co70 O82 2.137 . S
Co70 O83 2.244 . S
O71 Co70 2.216 . S
O71 C78 1.247 . S
O72 Co70 2.091 . S
O72 C78 1.261 . S
C73 O82 1.247 . S
C73 O83 1.272 . S
O74 Co70 2.004 . S
O74 C79 1.259 . S
Co75 O76 2.061 . S
Co75 O81 2.052 . S
Co75 O83 2.135 . S
O76 Co75 2.061 . S
O76 C79 1.235 . S
C77 O80 1.238 . S
C77 O81 1.241 . S
C78 O71 1.247 . S
C78 O72 1.261 . S
C79 O74 1.259 . S
C79 O76 1.235 . S
O80 Co70 2.021 . S
O80 C77 1.238 . S
O81 Co75 2.052 . S
O81 C77 1.241 . S
O82 Co70 2.137 . S
O82 C73 1.247 . S
O83 Co70 2.244 . S
O83 C73 1.272 . S
O83 Co75 2.135 . S
Co84 O85 2.216 . S
Co84 O86 2.091 . S
Co84 O88 2.004 . S
Co84 O94 2.021 . S
Co84 O96 2.137 . S
Co84 O97 2.244 . S
O85 Co84 2.216 . S
O85 C92 1.247 . S
O86 Co84 2.091 . S
O86 C92 1.261 . S
C87 O96 1.247 . S
C87 O97 1.272 . S
O88 Co84 2.004 . S
O88 C93 1.259 . S
Co89 O90 2.061 . S
Co89 O95 2.052 . S
Co89 O97 2.135 . S
O90 Co89 2.061 . S
O90 C93 1.235 . S
C91 O94 1.238 . S
C91 O95 1.241 . S
C92 O85 1.247 . S
C92 O86 1.261 . S
C93 O88 1.259 . S
C93 O90 1.235 . S
O94 Co84 2.021 . S
O94 C91 1.238 . S
O95 Co89 2.052 . S
O95 C91 1.241 . S
O96 Co84 2.137 . S
O96 C87 1.247 . S
O97 Co84 2.244 . S
O97 C87 1.272 . S
O97 Co89 2.135 . S
Co98 O99 2.216 . S
Co98 O100 2.091 . S
Co98 O102 2.004 . S
Co98 O108 2.021 . S
Co98 O110 2.137 . S
Co98 O111 2.244 . S
O99 Co98 2.216 . S
O99 C106 1.247 . S
O100 Co98 2.091 . S
O100 C106 1.261 . S
C101 O110 1.247 . S
C101 O111 1.272 . S
O102 Co98 2.004 . S
O102 C107 1.259 . S
Co103 O104 2.061 . S
Co103 O109 2.052 . S
Co103 O111 2.135 . S
O104 Co103 2.061 . S
O104 C107 1.235 . S
C105 O108 1.238 . S
C105 O109 1.241 . S
C106 O99 1.247 . S
C106 O100 1.261 . S
C107 O102 1.259 . S
C107 O104 1.235 . S
O108 Co98 2.021 . S
O108 C105 1.238 . S
O109 Co103 2.052 . S
O109 C105 1.241 . S
O110 Co98 2.137 . S
O110 C101 1.247 . S
O111 Co98 2.244 . S
O111 C101 1.272 . S
O111 Co103 2.135 . S
Co112 O113 2.216 . S
Co112 O114 2.091 . S
Co112 O116 2.004 . S
Co112 O122 2.021 . S
Co112 O124 2.137 . S
Co112 O125 2.244 . S
O113 Co112 2.216 . S
O113 C120 1.247 . S
O114 Co112 2.091 . S
O114 C120 1.261 . S
C115 O124 1.247 . S
C115 O125 1.272 . S
O116 Co112 2.004 . S
O116 C121 1.259 . S
Co117 O118 2.061 . S
Co117 O123 2.052 . S
Co117 O125 2.135 . S
O118 Co117 2.061 . S
O118 C121 1.235 . S
C119 O122 1.238 . S
C119 O123 1.241 . S
C120 O113 1.247 . S
C120 O114 1.261 . S
C121 O116 1.259 . S
C121 O118 1.235 . S
O122 Co112 2.021 . S
O122 C119 1.238 . S
O123 Co117 2.052 . S
O123 C119 1.241 . S
O124 Co112 2.137 . S
O124 C115 1.247 . S
O125 Co112 2.244 . S
O125 C115 1.272 . S
O125 Co117 2.135 . S
Co126 O127 2.216 . S
Co126 O128 2.091 . S
Co126 O130 2.004 . S
Co126 O136 2.021 . S
Co126 O138 2.137 . S
Co126 O139 2.244 . S
O127 Co126 2.216 . S
O127 C134 1.247 . S
O128 Co126 2.091 . S
O128 C134 1.261 . S
C129 O138 1.247 . S
C129 O139 1.272 . S
O130 Co126 2.004 . S
O130 C135 1.259 . S
Co131 O132 2.061 . S
Co131 O137 2.052 . S
Co131 O139 2.135 . S
O132 Co131 2.061 . S
O132 C135 1.235 . S
C133 O136 1.238 . S
C133 O137 1.241 . S
C134 O127 1.247 . S
C134 O128 1.261 . S
C135 O130 1.259 . S
C135 O132 1.235 . S
O136 Co126 2.021 . S
O136 C133 1.238 . S
O137 Co131 2.052 . S
O137 C133 1.241 . S
O138 Co126 2.137 . S
O138 C129 1.247 . S
O139 Co126 2.244 . S
O139 C129 1.272 . S
O139 Co131 2.135 . S
Co140 O141 2.216 . S
Co140 O142 2.091 . S
Co140 O144 2.004 . S
Co140 O150 2.021 . S
Co140 O152 2.137 . S
Co140 O153 2.244 . S
O141 Co140 2.216 . S
O141 C148 1.247 . S
O142 Co140 2.091 . S
O142 C148 1.261 . S
C143 O152 1.247 . S
C143 O153 1.272 . S
O144 Co140 2.004 . S
O144 C149 1.259 . S
Co145 O146 2.061 . S
Co145 O151 2.052 . S
Co145 O153 2.135 . S
O146 Co145 2.061 . S
O146 C149 1.235 . S
C147 O150 1.238 . S
C147 O151 1.241 . S
C148 O141 1.247 . S
C148 O142 1.261 . S
C149 O144 1.259 . S
C149 O146 1.235 . S
O150 Co140 2.021 . S
O150 C147 1.238 . S
O151 Co145 2.052 . S
O151 C147 1.241 . S
O152 Co140 2.137 . S
O152 C143 1.247 . S
O153 Co140 2.244 . S
O153 C143 1.272 . S
O153 Co145 2.135 . S
Co154 O155 2.216 . S
Co154 O156 2.091 . S
Co154 O158 2.004 . S
Co154 O164 2.021 . S
Co154 O166 2.137 . S
Co154 O167 2.244 . S
O155 Co154 2.216 . S
O155 C162 1.247 . S
O156 Co154 2.091 . S
O156 C162 1.261 . S
C157 O166 1.247 . S
C157 O167 1.272 . S
O158 Co154 2.004 . S
O158 C163 1.259 . S
Co159 O160 2.061 . S
Co159 O165 2.052 . S
Co159 O167 2.135 . S
O160 Co159 2.061 . S
O160 C163 1.235 . S
C161 O164 1.238 . S
C161 O165 1.241 . S
C162 O155 1.247 . S
C162 O156 1.261 . S
C163 O158 1.259 . S
C163 O160 1.235 . S
O164 Co154 2.021 . S
O164 C161 1.238 . S
O165 Co159 2.052 . S
O165 C161 1.241 . S
O166 Co154 2.137 . S
O166 C157 1.247 . S
O167 Co154 2.244 . S
O167 C157 1.272 . S
O167 Co159 2.135 . S
H168 C180 0.930 . S
H169 C182 0.930 . S
H170 C183 0.930 . S
H171 C187 0.959 . S
H172 C187 0.959 . S
H173 C187 0.961 . S
H174 C188 0.960 . S
H175 C188 0.961 . S
H176 C188 0.959 . S
H177 C191 0.929 . S
H178 C192 0.931 . S
H179 C194 0.930 . S
C180 H168 0.930 . S
C180 C181 1.399 . S
C180 C185 1.399 . S
C181 C180 1.399 . S
C181 C182 1.376 . S
C182 H169 0.930 . S
C182 C181 1.376 . S
C182 C183 1.388 . S
C183 H170 0.930 . S
C183 C182 1.388 . S
C183 C184 1.390 . S
C184 C183 1.390 . S
C184 C185 1.394 . S
C184 C190 1.465 . S
C185 C180 1.399 . S
C185 C184 1.394 . S
C185 C186 1.516 . S
C186 C185 1.516 . S
C186 C187 1.502 . S
C186 C188 1.561 . S
C186 C189 1.526 . S
C187 H171 0.959 . S
C187 H172 0.959 . S
C187 H173 0.961 . S
C187 C186 1.502 . S
C188 H174 0.960 . S
C188 H175 0.961 . S
C188 H176 0.959 . S
C188 C186 1.561 . S
C189 C186 1.526 . S
C189 C190 1.396 . S
C189 C194 1.390 . S
C190 C184 1.465 . S
C190 C189 1.396 . S
C190 C191 1.399 . S
C191 H177 0.929 . S
C191 C190 1.399 . S
C191 C192 1.385 . S
C192 H178 0.931 . S
C192 C191 1.385 . S
C192 C193 1.389 . S
C193 C192 1.389 . S
C193 C194 1.387 . S
C194 H179 0.930 . S
C194 C189 1.390 . S
C194 C193 1.387 . S
H195 C207 0.930 . S
H196 C209 0.930 . S
H197 C210 0.930 . S
H198 C214 0.959 . S
H199 C214 0.959 . S
H200 C214 0.961 . S
H201 C215 0.960 . S
H202 C215 0.961 . S
H203 C215 0.959 . S
H204 C218 0.929 . S
H205 C219 0.931 . S
H206 C221 0.930 . S
C207 H195 0.930 . S
C207 C208 1.399 . S
C207 C212 1.399 . S
C208 C207 1.399 . S
C208 C209 1.376 . S
C209 H196 0.930 . S
C209 C208 1.376 . S
C209 C210 1.388 . S
C210 H197 0.930 . S
C210 C209 1.388 . S
C210 C211 1.390 . S
C211 C210 1.390 . S
C211 C212 1.394 . S
C211 C217 1.465 . S
C212 C207 1.399 . S
C212 C211 1.394 . S
C212 C213 1.516 . S
C213 C212 1.516 . S
C213 C214 1.502 . S
C213 C215 1.561 . S
C213 C216 1.526 . S
C214 H198 0.959 . S
C214 H199 0.959 . S
C214 H200 0.961 . S
C214 C213 1.502 . S
C215 H201 0.960 . S
C215 H202 0.961 . S
C215 H203 0.959 . S
C215 C213 1.561 . S
C216 C213 1.526 . S
C216 C217 1.396 . S
C216 C221 1.390 . S
C217 C211 1.465 . S
C217 C216 1.396 . S
C217 C218 1.399 . S
C218 H204 0.929 . S
C218 C217 1.399 . S
C218 C219 1.385 . S
C219 H205 0.931 . S
C219 C218 1.385 . S
C219 C220 1.389 . S
C220 C219 1.389 . S
C220 C221 1.387 . S
C221 H206 0.930 . S
C221 C216 1.390 . S
C221 C220 1.387 . S
H222 C234 0.930 . S
H223 C236 0.930 . S
H224 C237 0.930 . S
H225 C241 0.959 . S
H226 C241 0.959 . S
H227 C241 0.961 . S
H228 C242 0.960 . S
H229 C242 0.961 . S
H230 C242 0.959 . S
H231 C245 0.929 . S
H232 C246 0.931 . S
H233 C248 0.930 . S
C234 H222 0.930 . S
C234 C235 1.399 . S
C234 C239 1.399 . S
C235 C234 1.399 . S
C235 C236 1.376 . S
C236 H223 0.930 . S
C236 C235 1.376 . S
C236 C237 1.388 . S
C237 H224 0.930 . S
C237 C236 1.388 . S
C237 C238 1.390 . S
C238 C237 1.390 . S
C238 C239 1.394 . S
C238 C244 1.465 . S
C239 C234 1.399 . S
C239 C238 1.394 . S
C239 C240 1.516 . S
C240 C239 1.516 . S
C240 C241 1.502 . S
C240 C242 1.561 . S
C240 C243 1.526 . S
C241 H225 0.959 . S
C241 H226 0.959 . S
C241 H227 0.961 . S
C241 C240 1.502 . S
C242 H228 0.960 . S
C242 H229 0.961 . S
C242 H230 0.959 . S
C242 C240 1.561 . S
C243 C240 1.526 . S
C243 C244 1.396 . S
C243 C248 1.390 . S
C244 C238 1.465 . S
C244 C243 1.396 . S
C244 C245 1.399 . S
C245 H231 0.929 . S
C245 C244 1.399 . S
C245 C246 1.385 . S
C246 H232 0.931 . S
C246 C245 1.385 . S
C246 C247 1.389 . S
C247 C246 1.389 . S
C247 C248 1.387 . S
C248 H233 0.930 . S
C248 C243 1.390 . S
C248 C247 1.387 . S
H249 C261 0.930 . S
H250 C263 0.930 . S
H251 C264 0.930 . S
H252 C268 0.959 . S
H253 C268 0.959 . S
H254 C268 0.961 . S
H255 C269 0.960 . S
H256 C269 0.961 . S
H257 C269 0.959 . S
H258 C272 0.929 . S
H259 C273 0.931 . S
H260 C275 0.930 . S
C261 H249 0.930 . S
C261 C262 1.399 . S
C261 C266 1.399 . S
C262 C261 1.399 . S
C262 C263 1.376 . S
C263 H250 0.930 . S
C263 C262 1.376 . S
C263 C264 1.388 . S
C264 H251 0.930 . S
C264 C263 1.388 . S
C264 C265 1.390 . S
C265 C264 1.390 . S
C265 C266 1.394 . S
C265 C271 1.465 . S
C266 C261 1.399 . S
C266 C265 1.394 . S
C266 C267 1.516 . S
C267 C266 1.516 . S
C267 C268 1.502 . S
C267 C269 1.561 . S
C267 C270 1.526 . S
C268 H252 0.959 . S
C268 H253 0.959 . S
C268 H254 0.961 . S
C268 C267 1.502 . S
C269 H255 0.960 . S
C269 H256 0.961 . S
C269 H257 0.959 . S
C269 C267 1.561 . S
C270 C267 1.526 . S
C270 C271 1.396 . S
C270 C275 1.390 . S
C271 C265 1.465 . S
C271 C270 1.396 . S
C271 C272 1.399 . S
C272 H258 0.929 . S
C272 C271 1.399 . S
C272 C273 1.385 . S
C273 H259 0.931 . S
C273 C272 1.385 . S
C273 C274 1.389 . S
C274 C273 1.389 . S
C274 C275 1.387 . S
C275 H260 0.930 . S
C275 C270 1.390 . S
C275 C274 1.387 . S
H276 C288 0.930 . S
H277 C290 0.930 . S
H278 C291 0.930 . S
H279 C295 0.959 . S
H280 C295 0.959 . S
H281 C295 0.961 . S
H282 C296 0.960 . S
H283 C296 0.961 . S
H284 C296 0.959 . S
H285 C299 0.929 . S
H286 C300 0.931 . S
H287 C302 0.930 . S
C288 H276 0.930 . S
C288 C289 1.399 . S
C288 C293 1.399 . S
C289 C288 1.399 . S
C289 C290 1.376 . S
C290 H277 0.930 . S
C290 C289 1.376 . S
C290 C291 1.388 . S
C291 H278 0.930 . S
C291 C290 1.388 . S
C291 C292 1.390 . S
C292 C291 1.390 . S
C292 C293 1.394 . S
C292 C298 1.465 . S
C293 C288 1.399 . S
C293 C292 1.394 . S
C293 C294 1.516 . S
C294 C293 1.516 . S
C294 C295 1.502 . S
C294 C296 1.561 . S
C294 C297 1.526 . S
C295 H279 0.959 . S
C295 H280 0.959 . S
C295 H281 0.961 . S
C295 C294 1.502 . S
C296 H282 0.960 . S
C296 H283 0.961 . S
C296 H284 0.959 . S
C296 C294 1.561 . S
C297 C294 1.526 . S
C297 C298 1.396 . S
C297 C302 1.390 . S
C298 C292 1.465 . S
C298 C297 1.396 . S
C298 C299 1.399 . S
C299 H285 0.929 . S
C299 C298 1.399 . S
C299 C300 1.385 . S
C300 H286 0.931 . S
C300 C299 1.385 . S
C300 C301 1.389 . S
C301 C300 1.389 . S
C301 C302 1.387 . S
C302 H287 0.930 . S
C302 C297 1.390 . S
C302 C301 1.387 . S
H303 C315 0.930 . S
H304 C317 0.930 . S
H305 C318 0.930 . S
H306 C322 0.959 . S
H307 C322 0.959 . S
H308 C322 0.961 . S
H309 C323 0.960 . S
H310 C323 0.961 . S
H311 C323 0.959 . S
H312 C326 0.929 . S
H313 C327 0.931 . S
H314 C329 0.930 . S
C315 H303 0.930 . S
C315 C316 1.399 . S
C315 C320 1.399 . S
C316 C315 1.399 . S
C316 C317 1.376 . S
C317 H304 0.930 . S
C317 C316 1.376 . S
C317 C318 1.388 . S
C318 H305 0.930 . S
C318 C317 1.388 . S
C318 C319 1.390 . S
C319 C318 1.390 . S
C319 C320 1.394 . S
C319 C325 1.465 . S
C320 C315 1.399 . S
C320 C319 1.394 . S
C320 C321 1.516 . S
C321 C320 1.516 . S
C321 C322 1.502 . S
C321 C323 1.561 . S
C321 C324 1.526 . S
C322 H306 0.959 . S
C322 H307 0.959 . S
C322 H308 0.961 . S
C322 C321 1.502 . S
C323 H309 0.960 . S
C323 H310 0.961 . S
C323 H311 0.959 . S
C323 C321 1.561 . S
C324 C321 1.526 . S
C324 C325 1.396 . S
C324 C329 1.390 . S
C325 C319 1.465 . S
C325 C324 1.396 . S
C325 C326 1.399 . S
C326 H312 0.929 . S
C326 C325 1.399 . S
C326 C327 1.385 . S
C327 H313 0.931 . S
C327 C326 1.385 . S
C327 C328 1.389 . S
C328 C327 1.389 . S
C328 C329 1.387 . S
C329 H314 0.930 . S
C329 C324 1.390 . S
C329 C328 1.387 . S
H330 C342 0.930 . S
H331 C344 0.930 . S
H332 C345 0.930 . S
H333 C349 0.959 . S
H334 C349 0.959 . S
H335 C349 0.961 . S
H336 C350 0.960 . S
H337 C350 0.961 . S
H338 C350 0.959 . S
H339 C353 0.929 . S
H340 C354 0.931 . S
H341 C356 0.930 . S
C342 H330 0.930 . S
C342 C343 1.399 . S
C342 C347 1.399 . S
C343 C342 1.399 . S
C343 C344 1.376 . S
C344 H331 0.930 . S
C344 C343 1.376 . S
C344 C345 1.388 . S
C345 H332 0.930 . S
C345 C344 1.388 . S
C345 C346 1.390 . S
C346 C345 1.390 . S
C346 C347 1.394 . S
C346 C352 1.465 . S
C347 C342 1.399 . S
C347 C346 1.394 . S
C347 C348 1.516 . S
C348 C347 1.516 . S
C348 C349 1.502 . S
C348 C350 1.561 . S
C348 C351 1.526 . S
C349 H333 0.959 . S
C349 H334 0.959 . S
C349 H335 0.961 . S
C349 C348 1.502 . S
C350 H336 0.960 . S
C350 H337 0.961 . S
C350 H338 0.959 . S
C350 C348 1.561 . S
C351 C348 1.526 . S
C351 C352 1.396 . S
C351 C356 1.390 . S
C352 C346 1.465 . S
C352 C351 1.396 . S
C352 C353 1.399 . S
C353 H339 0.929 . S
C353 C352 1.399 . S
C353 C354 1.385 . S
C354 H340 0.931 . S
C354 C353 1.385 . S
C354 C355 1.389 . S
C355 C354 1.389 . S
C355 C356 1.387 . S
C356 H341 0.930 . S
C356 C351 1.390 . S
C356 C355 1.387 . S
H357 C369 0.930 . S
H358 C371 0.930 . S
H359 C372 0.930 . S
H360 C376 0.959 . S
H361 C376 0.959 . S
H362 C376 0.961 . S
H363 C377 0.960 . S
H364 C377 0.961 . S
H365 C377 0.959 1_655 S
H366 C380 0.929 . S
H367 C381 0.931 . S
H368 C383 0.930 . S
C369 H357 0.930 . S
C369 C370 1.399 . S
C369 C374 1.399 . S
C370 C369 1.399 . S
C370 C371 1.376 . S
C371 H358 0.930 . S
C371 C370 1.376 . S
C371 C372 1.388 1_455 S
C372 H359 0.930 . S
C372 C371 1.388 1_655 S
C372 C373 1.390 . S
C373 C372 1.390 . S
C373 C374 1.394 1_655 S
C373 C379 1.465 . S
C374 C369 1.399 . S
C374 C373 1.394 1_455 S
C374 C375 1.516 . S
C375 C374 1.516 . S
C375 C376 1.502 . S
C375 C377 1.561 . S
C375 C378 1.526 1_455 S
C376 H360 0.959 . S
C376 H361 0.959 . S
C376 H362 0.961 . S
C376 C375 1.502 . S
C377 H363 0.960 . S
C377 H364 0.961 . S
C377 H365 0.959 1_455 S
C377 C375 1.561 . S
C378 C375 1.526 1_655 S
C378 C379 1.396 . S
C378 C383 1.390 . S
C379 C373 1.465 . S
C379 C378 1.396 . S
C379 C380 1.399 . S
C380 H366 0.929 . S
C380 C379 1.399 . S
C380 C381 1.385 . S
C381 H367 0.931 . S
C381 C380 1.385 . S
C381 C382 1.389 . S
C382 C381 1.389 . S
C382 C383 1.387 . S
C383 H368 0.930 . S
C383 C378 1.390 . S
C383 C382 1.387 . S
H384 C396 0.930 1_565 S
H385 C398 0.930 . S
H386 C399 0.930 . S
H387 C403 0.959 . S
H388 C403 0.959 . S
H389 C403 0.961 . S
H390 C404 0.960 . S
H391 C404 0.961 . S
H392 C404 0.959 . S
H393 C407 0.929 . S
H394 C408 0.931 . S
H395 C410 0.930 . S
C396 H384 0.930 1_545 S
C396 C397 1.399 . S
C396 C401 1.380 1_545 S
C397 C396 1.399 . S
C397 C398 1.376 . S
C398 H385 0.930 . S
C398 C397 1.376 . S
C398 C399 1.388 . S
C399 H386 0.930 . S
C399 C398 1.388 . S
C399 C400 1.390 . S
C400 C399 1.390 . S
C400 C401 1.387 1_545 S
C400 C406 1.465 . S
C401 C396 1.380 1_565 S
C401 C400 1.387 1_565 S
C401 C402 1.543 . S
C402 C401 1.543 . S
C402 C403 1.502 . S
C402 C404 1.561 . S
C402 C405 1.526 . S
C403 H387 0.959 . S
C403 H388 0.959 . S
C403 H389 0.961 . S
C403 C402 1.502 . S
C404 H390 0.960 . S
C404 H391 0.961 . S
C404 H392 0.959 . S
C404 C402 1.561 . S
C405 C402 1.526 . S
C405 C406 1.396 1_565 S
C405 C410 1.390 . S
C406 C400 1.465 . S
C406 C405 1.396 1_545 S
C406 C407 1.399 . S
C407 H393 0.929 . S
C407 C406 1.399 . S
C407 C408 1.385 . S
C408 H394 0.931 . S
C408 C407 1.385 . S
C408 C409 1.389 1_545 S
C409 C408 1.389 1_565 S
C409 C410 1.387 . S
C410 H395 0.930 . S
C410 C405 1.390 . S
C410 C409 1.387 . S
H411 C423 0.930 . S
H412 C425 0.930 . S
H413 C426 0.930 . S
H414 C430 0.959 . S
H415 C430 0.959 . S
H416 C430 0.961 . S
H417 C431 0.960 . S
H418 C431 0.961 . S
H419 C431 0.959 . S
H420 C434 0.929 . S
H421 C435 0.931 . S
H422 C437 0.930 . S
C423 H411 0.930 . S
C423 C424 1.399 . S
C423 C428 1.399 . S
C424 C423 1.399 . S
C424 C425 1.376 . S
C425 H412 0.930 . S
C425 C424 1.376 . S
C425 C426 1.388 . S
C426 H413 0.930 . S
C426 C425 1.388 . S
C426 C427 1.390 . S
C427 C426 1.390 . S
C427 C428 1.394 . S
C427 C433 1.465 . S
C428 C423 1.399 . S
C428 C427 1.394 . S
C428 C429 1.516 . S
C429 C428 1.516 . S
C429 C430 1.502 . S
C429 C431 1.561 . S
C429 C432 1.526 . S
C430 H414 0.959 . S
C430 H415 0.959 . S
C430 H416 0.961 . S
C430 C429 1.502 . S
C431 H417 0.960 . S
C431 H418 0.961 . S
C431 H419 0.959 . S
C431 C429 1.561 . S
C432 C429 1.526 . S
C432 C433 1.396 . S
C432 C437 1.390 . S
C433 C427 1.465 . S
C433 C432 1.396 . S
C433 C434 1.399 . S
C434 H420 0.929 . S
C434 C433 1.399 . S
C434 C435 1.385 . S
C435 H421 0.931 . S
C435 C434 1.385 . S
C435 C436 1.389 . S
C436 C435 1.389 . S
C436 C437 1.387 . S
C437 H422 0.930 . S
C437 C432 1.390 . S
C437 C436 1.387 . S
H438 C450 0.930 . S
H439 C452 0.930 . S
H440 C453 0.930 . S
H441 C457 0.959 . S
H442 C457 0.959 . S
H443 C457 0.961 . S
H444 C458 0.960 . S
H445 C458 0.961 . S
H446 C458 0.959 . S
H447 C461 0.929 . S
H448 C462 0.931 . S
H449 C464 0.930 . S
C450 H438 0.930 . S
C450 C451 1.399 . S
C450 C455 1.399 . S
C451 C450 1.399 . S
C451 C452 1.376 . S
C452 H439 0.930 . S
C452 C451 1.376 . S
C452 C453 1.388 . S
C453 H440 0.930 . S
C453 C452 1.388 . S
C453 C454 1.390 . S
C454 C453 1.390 . S
C454 C455 1.394 . S
C454 C460 1.465 1_655 S
C455 C450 1.399 . S
C455 C454 1.394 . S
C455 C456 1.516 . S
C456 C455 1.516 . S
C456 C457 1.502 1_655 S
C456 C458 1.561 . S
C456 C459 1.526 1_655 S
C457 H441 0.959 . S
C457 H442 0.959 . S
C457 H443 0.961 . S
C457 C456 1.502 1_455 S
C458 H444 0.960 . S
C458 H445 0.961 . S
C458 H446 0.959 . S
C458 C456 1.561 . S
C459 C456 1.526 1_455 S
C459 C460 1.396 . S
C459 C464 1.390 . S
C460 C454 1.465 1_455 S
C460 C459 1.396 . S
C460 C461 1.399 . S
C461 H447 0.929 . S
C461 C460 1.399 . S
C461 C462 1.385 . S
C462 H448 0.931 . S
C462 C461 1.385 . S
C462 C463 1.389 . S
C463 C462 1.389 . S
C463 C464 1.387 . S
C464 H449 0.930 . S
C464 C459 1.390 . S
C464 C463 1.387 . S
H465 C477 0.930 . S
H466 C479 0.930 . S
H467 C480 0.930 . S
H468 C484 0.959 . S
H469 C484 0.959 . S
H470 C484 0.961 . S
H471 C485 0.960 . S
H472 C485 0.961 . S
H473 C485 0.959 . S
H474 C488 0.929 . S
H475 C489 0.931 . S
H476 C491 0.930 . S
C477 H465 0.930 . S
C477 C478 1.399 . S
C477 C482 1.399 . S
C478 C477 1.399 . S
C478 C479 1.376 . S
C479 H466 0.930 . S
C479 C478 1.376 . S
C479 C480 1.388 1_565 S
C480 H467 0.930 . S
C480 C479 1.388 1_545 S
C480 C481 1.390 . S
C481 C480 1.390 . S
C481 C482 1.394 1_545 S
C481 C487 1.465 . S
C482 C477 1.399 . S
C482 C481 1.394 1_565 S
C482 C483 1.516 . S
C483 C482 1.516 . S
C483 C484 1.502 . S
C483 C485 1.561 1_565 S
C483 C486 1.526 1_565 S
C484 H468 0.959 . S
C484 H469 0.959 . S
C484 H470 0.961 . S
C484 C483 1.502 . S
C485 H471 0.960 . S
C485 H472 0.961 . S
C485 H473 0.959 . S
C485 C483 1.561 1_545 S
C486 C483 1.526 1_545 S
C486 C487 1.396 . S
C486 C491 1.390 . S
C487 C481 1.465 . S
C487 C486 1.396 . S
C487 C488 1.399 . S
C488 H474 0.929 . S
C488 C487 1.399 . S
C488 C489 1.385 . S
C489 H475 0.931 . S
C489 C488 1.385 . S
C489 C490 1.389 . S
C490 C489 1.389 . S
C490 C491 1.387 . S
C491 H476 0.930 . S
C491 C486 1.390 . S
C491 C490 1.387 . S
H492 C504 0.930 . S
H493 C506 0.930 . S
H494 C507 0.930 . S
H495 C511 0.959 . S
H496 C511 0.959 . S
H497 C511 0.961 . S
H498 C512 0.960 . S
H499 C512 0.961 . S
H500 C512 0.959 . S
H501 C515 0.929 . S
H502 C516 0.931 . S
H503 C518 0.930 . S
C504 H492 0.930 . S
C504 C505 1.399 . S
C504 C509 1.399 . S
C505 C504 1.399 . S
C505 C506 1.376 . S
C506 H493 0.930 . S
C506 C505 1.376 . S
C506 C507 1.388 . S
C507 H494 0.930 . S
C507 C506 1.388 . S
C507 C508 1.390 . S
C508 C507 1.390 . S
C508 C509 1.394 . S
C508 C514 1.465 . S
C509 C504 1.399 . S
C509 C508 1.394 . S
C509 C510 1.516 . S
C510 C509 1.516 . S
C510 C511 1.502 . S
C510 C512 1.561 . S
C510 C513 1.526 . S
C511 H495 0.959 . S
C511 H496 0.959 . S
C511 H497 0.961 . S
C511 C510 1.502 . S
C512 H498 0.960 . S
C512 H499 0.961 . S
C512 H500 0.959 . S
C512 C510 1.561 . S
C513 C510 1.526 . S
C513 C514 1.396 . S
C513 C518 1.390 . S
C514 C508 1.465 . S
C514 C513 1.396 . S
C514 C515 1.399 . S
C515 H501 0.929 . S
C515 C514 1.399 . S
C515 C516 1.385 . S
C516 H502 0.931 . S
C516 C515 1.385 . S
C516 C517 1.389 . S
C517 C516 1.389 . S
C517 C518 1.387 . S
C518 H503 0.930 . S
C518 C513 1.390 . S
C518 C517 1.387 . S
H519 C531 0.930 1_455 S
H520 C533 0.930 . S
H521 C534 0.930 . S
H522 C538 0.959 . S
H523 C538 0.959 . S
H524 C538 0.961 . S
H525 C539 0.960 . S
H526 C539 0.961 . S
H527 C539 0.959 . S
H528 C542 0.929 . S
H529 C543 0.924 1_655 S
H530 C545 0.930 . S
C531 H519 0.930 1_655 S
C531 C532 1.399 . S
C531 C536 1.399 1_655 S
C532 C531 1.399 . S
C532 C533 1.376 . S
C533 H520 0.930 . S
C533 C532 1.376 . S
C533 C534 1.388 . S
C534 H521 0.930 . S
C534 C533 1.388 . S
C534 C535 1.390 . S
C535 C534 1.390 . S
C535 C536 1.394 1_655 S
C535 C541 1.465 . S
C536 C531 1.399 1_455 S
C536 C535 1.394 1_455 S
C536 C537 1.516 . S
C537 C536 1.516 . S
C537 C538 1.502 . S
C537 C539 1.561 . S
C537 C540 1.526 . S
C538 H522 0.959 . S
C538 H523 0.959 . S
C538 H524 0.961 . S
C538 C537 1.502 . S
C539 H525 0.960 . S
C539 H526 0.961 . S
C539 H527 0.959 . S
C539 C537 1.561 . S
C540 C537 1.526 . S
C540 C541 1.396 1_455 S
C540 C545 1.390 . S
C541 C535 1.465 . S
C541 C540 1.396 1_655 S
C541 C542 1.399 . S
C542 H528 0.929 . S
C542 C541 1.399 . S
C542 C543 1.385 1_655 S
C543 H529 0.924 1_455 S
C543 C542 1.385 1_455 S
C543 C544 1.389 . S
C544 C543 1.389 . S
C544 C545 1.387 . S
C545 H530 0.930 . S
C545 C540 1.390 . S
C545 C544 1.387 . S
H546 C558 0.930 . S
H547 C560 0.930 . S
H548 C561 0.930 . S
H549 C565 0.959 . S
H550 C565 0.959 . S
H551 C565 0.961 . S
H552 C566 0.960 . S
H553 C566 0.961 1_554 S
H554 C566 0.959 1_564 S
H555 C569 0.929 . S
H556 C570 0.931 . S
H557 C572 0.930 . S
C558 H546 0.930 . S
C558 C559 1.399 . S
C558 C563 1.399 . S
C559 C558 1.399 . S
C559 C560 1.376 . S
C560 H547 0.930 . S
C560 C559 1.376 . S
C560 C561 1.388 . S
C561 H548 0.930 . S
C561 C560 1.388 . S
C561 C562 1.390 . S
C562 C561 1.390 . S
C562 C563 1.394 . S
C562 C568 1.465 1_556 S
C563 C558 1.399 . S
C563 C562 1.394 . S
C563 C564 1.516 1_565 S
C564 C563 1.516 1_545 S
C564 C565 1.502 . S
C564 C566 1.561 . S
C564 C567 1.526 1_556 S
C565 H549 0.959 . S
C565 H550 0.959 . S
C565 H551 0.961 . S
C565 C564 1.502 . S
C566 H552 0.960 . S
C566 H553 0.961 1_556 S
C566 H554 0.959 1_546 S
C566 C564 1.561 . S
C567 C564 1.526 1_554 S
C567 C568 1.396 1_545 S
C567 C572 1.390 . S
C568 C562 1.465 1_554 S
C568 C567 1.396 1_565 S
C568 C569 1.399 . S
C569 H555 0.929 . S
C569 C568 1.399 . S
C569 C570 1.385 1_565 S
C570 H556 0.931 . S
C570 C569 1.385 1_545 S
C570 C571 1.389 . S
C571 C570 1.389 . S
C571 C572 1.387 . S
C572 H557 0.930 . S
C572 C567 1.390 . S
C572 C571 1.387 . S
H573 C585 0.930 . S
H574 C587 0.930 . S
H575 C588 0.930 . S
H576 C592 0.959 . S
H577 C592 0.959 . S
H578 C592 0.961 . S
H579 C593 0.960 . S
H580 C593 0.961 . S
H581 C593 0.959 . S
H582 C596 0.929 . S
H583 C597 0.931 . S
H584 C599 0.930 . S
C585 H573 0.930 . S
C585 C586 1.399 . S
C585 C590 1.399 . S
C586 C585 1.399 . S
C586 C587 1.376 . S
C587 H574 0.930 . S
C587 C586 1.376 . S
C587 C588 1.388 . S
C588 H575 0.930 . S
C588 C587 1.388 . S
C588 C589 1.390 . S
C589 C588 1.390 . S
C589 C590 1.394 . S
C589 C595 1.465 . S
C590 C585 1.399 . S
C590 C589 1.394 . S
C590 C591 1.516 . S
C591 C590 1.516 . S
C591 C592 1.502 . S
C591 C593 1.561 . S
C591 C594 1.526 . S
C592 H576 0.959 . S
C592 H577 0.959 . S
C592 H578 0.961 . S
C592 C591 1.502 . S
C593 H579 0.960 . S
C593 H580 0.961 . S
C593 H581 0.959 . S
C593 C591 1.561 . S
C594 C591 1.526 . S
C594 C595 1.396 . S
C594 C599 1.390 . S
C595 C589 1.465 . S
C595 C594 1.396 . S
C595 C596 1.399 . S
C596 H582 0.929 . S
C596 C595 1.399 . S
C596 C597 1.385 . S
C597 H583 0.931 . S
C597 C596 1.385 . S
C597 C598 1.389 . S
C598 C597 1.389 . S
C598 C599 1.387 . S
C599 H584 0.930 . S
C599 C594 1.390 . S
C599 C598 1.387 . S
H600 C612 0.930 . S
H601 C614 0.930 1_655 S
H602 C615 0.930 . S
H603 C619 0.959 . S
H604 C619 0.959 . S
H605 C619 0.961 . S
H606 C620 0.960 . S
H607 C620 0.961 . S
H608 C620 0.959 . S
H609 C623 0.929 . S
H610 C624 0.931 . S
H611 C626 0.930 . S
C612 H600 0.930 . S
C612 C613 1.399 . S
C612 C617 1.399 . S
C613 C612 1.399 . S
C613 C614 1.376 . S
C614 H601 0.930 1_455 S
C614 C613 1.376 . S
C614 C615 1.388 1_455 S
C615 H602 0.930 . S
C615 C614 1.388 1_655 S
C615 C616 1.390 . S
C616 C615 1.390 . S
C616 C617 1.394 1_655 S
C616 C622 1.465 . S
C617 C612 1.399 . S
C617 C616 1.394 1_455 S
C617 C618 1.516 . S
C618 C617 1.516 . S
C618 C619 1.502 . S
C618 C620 1.561 . S
C618 C621 1.526 1_455 S
C619 H603 0.959 . S
C619 H604 0.959 . S
C619 H605 0.961 . S
C619 C618 1.502 . S
C620 H606 0.960 . S
C620 H607 0.961 . S
C620 H608 0.959 . S
C620 C618 1.561 . S
C621 C618 1.526 1_655 S
C621 C622 1.396 . S
C621 C626 1.390 . S
C622 C616 1.465 . S
C622 C621 1.396 . S
C622 C623 1.399 . S
C623 H609 0.929 . S
C623 C622 1.399 . S
C623 C624 1.385 . S
C624 H610 0.931 . S
C624 C623 1.385 . S
C624 C625 1.389 . S
C625 C624 1.389 . S
C625 C626 1.387 . S
C626 H611 0.930 . S
C626 C621 1.390 . S
C626 C625 1.387 . S
H627 C639 0.930 . S
H628 C641 0.930 . S
H629 C642 0.930 . S
H630 C646 0.959 . S
H631 C646 0.959 . S
H632 C646 0.961 . S
H633 C647 0.960 . S
H634 C647 0.961 . S
H635 C647 0.959 . S
H636 C650 0.929 . S
H637 C651 0.931 . S
H638 C653 0.930 1_565 S
C639 H627 0.930 . S
C639 C640 1.399 . S
C639 C644 1.399 . S
C640 C639 1.399 . S
C640 C641 1.376 . S
C641 H628 0.930 . S
C641 C640 1.376 . S
C641 C642 1.388 1_565 S
C642 H629 0.930 . S
C642 C641 1.388 1_545 S
C642 C643 1.390 . S
C643 C642 1.390 . S
C643 C644 1.394 1_545 S
C643 C649 1.465 1_554 S
C644 C639 1.399 . S
C644 C643 1.394 1_565 S
C644 C645 1.516 1_554 S
C645 C644 1.516 1_556 S
C645 C646 1.502 . S
C645 C647 1.561 . S
C645 C648 1.501 1_565 S
C646 H630 0.959 . S
C646 H631 0.959 . S
C646 H632 0.961 . S
C646 C645 1.502 . S
C647 H633 0.960 . S
C647 H634 0.961 . S
C647 H635 0.959 . S
C647 C645 1.561 . S
C648 C645 1.501 1_545 S
C648 C649 1.416 . S
C648 C653 1.396 . S
C649 C643 1.465 1_556 S
C649 C648 1.416 . S
C649 C650 1.399 . S
C650 H636 0.929 . S
C650 C649 1.399 . S
C650 C651 1.385 . S
C651 H637 0.931 . S
C651 C650 1.385 . S
C651 C652 1.389 . S
C652 C651 1.389 . S
C652 C653 1.387 . S
C653 H638 0.930 1_545 S
C653 C648 1.396 . S
C653 C652 1.387 . S
H654 C666 0.930 . S
H655 C668 0.930 . S
H656 C669 0.930 . S
H657 C673 0.959 . S
H658 C673 0.959 1_455 S
H659 C673 0.961 . S
H660 C674 0.960 . S
H661 C674 0.961 1_455 S
H662 C674 0.959 1_455 S
H663 C677 0.929 . S
H664 C678 0.931 . S
H665 C680 0.930 . S
C666 H654 0.930 . S
C666 C667 1.399 . S
C666 C671 1.399 . S
C667 C666 1.399 . S
C667 C668 1.376 . S
C668 H655 0.930 . S
C668 C667 1.376 . S
C668 C669 1.388 . S
C669 H656 0.930 . S
C669 C668 1.388 . S
C669 C670 1.390 . S
C670 C669 1.390 . S
C670 C671 1.394 . S
C670 C676 1.465 1_655 S
C671 C666 1.399 . S
C671 C670 1.394 . S
C671 C672 1.516 . S
C672 C671 1.516 . S
C672 C673 1.502 . S
C672 C674 1.561 . S
C672 C675 1.526 1_655 S
C673 H657 0.959 . S
C673 H658 0.959 1_655 S
C673 H659 0.961 . S
C673 C672 1.502 . S
C674 H660 0.960 . S
C674 H661 0.961 1_655 S
C674 H662 0.959 1_655 S
C674 C672 1.561 . S
C675 C672 1.526 1_455 S
C675 C676 1.396 . S
C675 C680 1.390 . S
C676 C670 1.465 1_455 S
C676 C675 1.396 . S
C676 C677 1.399 . S
C677 H663 0.929 . S
C677 C676 1.399 . S
C677 C678 1.385 . S
C678 H664 0.931 . S
C678 C677 1.385 . S
C678 C679 1.389 . S
C679 C678 1.389 . S
C679 C680 1.387 . S
C680 H665 0.930 . S
C680 C675 1.390 . S
C680 C679 1.387 . S
H681 C693 0.930 . S
H682 C695 0.930 . S
H683 C696 0.930 . S
H684 C700 0.959 . S
H685 C700 0.959 . S
H686 C700 0.961 1_545 S
H687 C701 0.960 1_545 S
H688 C701 0.961 . S
H689 C701 0.959 . S
H690 C704 0.929 . S
H691 C705 0.931 . S
H692 C707 0.930 . S
C693 H681 0.930 . S
C693 C694 1.399 . S
C693 C698 1.399 . S
C694 C693 1.399 . S
C694 C695 1.376 . S
C695 H682 0.930 . S
C695 C694 1.376 . S
C695 C696 1.388 . S
C696 H683 0.930 . S
C696 C695 1.388 . S
C696 C697 1.390 . S
C697 C696 1.390 . S
C697 C698 1.394 . S
C697 C703 1.465 1_545 S
C698 C693 1.399 . S
C698 C697 1.394 . S
C698 C699 1.516 1_545 S
C699 C698 1.516 1_565 S
C699 C700 1.502 . S
C699 C701 1.561 . S
C699 C702 1.526 . S
C700 H684 0.959 . S
C700 H685 0.959 . S
C700 H686 0.961 1_565 S
C700 C699 1.502 . S
C701 H687 0.960 1_565 S
C701 H688 0.961 . S
C701 H689 0.959 . S
C701 C699 1.561 . S
C702 C699 1.526 . S
C702 C703 1.396 . S
C702 C707 1.390 . S
C703 C697 1.465 1_565 S
C703 C702 1.396 . S
C703 C704 1.399 . S
C704 H690 0.929 . S
C704 C703 1.399 . S
C704 C705 1.385 . S
C705 H691 0.931 . S
C705 C704 1.385 . S
C705 C706 1.389 . S
C706 C705 1.389 . S
C706 C707 1.387 . S
C707 H692 0.930 . S
C707 C702 1.390 . S
C707 C706 1.387 . S
H708 C720 0.930 . S
H709 C722 0.930 . S
H710 C723 0.930 . S
H711 C727 0.959 . S
H712 C727 0.959 . S
H713 C727 0.961 . S
H714 C728 0.960 . S
H715 C728 0.961 . S
H716 C728 0.959 . S
H717 C731 0.929 . S
H718 C732 0.931 . S
H719 C734 0.930 . S
C720 H708 0.930 . S
C720 C721 1.399 . S
C720 C725 1.399 . S
C721 C720 1.399 . S
C721 C722 1.376 . S
C722 H709 0.930 . S
C722 C721 1.376 . S
C722 C723 1.388 . S
C723 H710 0.930 . S
C723 C722 1.388 . S
C723 C724 1.390 . S
C724 C723 1.390 . S
C724 C725 1.394 . S
C724 C730 1.465 . S
C725 C720 1.399 . S
C725 C724 1.394 . S
C725 C726 1.516 . S
C726 C725 1.516 . S
C726 C727 1.502 . S
C726 C728 1.561 . S
C726 C729 1.526 . S
C727 H711 0.959 . S
C727 H712 0.959 . S
C727 H713 0.961 . S
C727 C726 1.502 . S
C728 H714 0.960 . S
C728 H715 0.961 . S
C728 H716 0.959 . S
C728 C726 1.561 . S
C729 C726 1.526 . S
C729 C730 1.396 . S
C729 C734 1.390 . S
C730 C724 1.465 . S
C730 C729 1.396 . S
C730 C731 1.399 . S
C731 H717 0.929 . S
C731 C730 1.399 . S
C731 C732 1.385 . S
C732 H718 0.931 . S
C732 C731 1.385 . S
C732 C733 1.389 . S
C733 C732 1.389 . S
C733 C734 1.387 . S
C734 H719 0.930 . S
C734 C729 1.390 . S
C734 C733 1.387 . S
H735 C747 0.930 . S
H736 C749 0.930 . S
H737 C750 0.930 . S
H738 C754 0.959 . S
H739 C754 0.959 . S
H740 C754 0.961 1_655 S
H741 C755 0.960 1_655 S
H742 C755 0.961 . S
H743 C755 0.959 . S
H744 C758 0.929 . S
H745 C759 0.931 . S
H746 C761 0.930 . S
C747 H735 0.930 . S
C747 C748 1.399 . S
C747 C752 1.399 . S
C748 C747 1.399 . S
C748 C749 1.376 . S
C749 H736 0.930 . S
C749 C748 1.376 . S
C749 C750 1.388 . S
C750 H737 0.930 . S
C750 C749 1.388 . S
C750 C751 1.390 . S
C751 C750 1.390 . S
C751 C752 1.394 . S
C751 C757 1.465 1_655 S
C752 C747 1.399 . S
C752 C751 1.394 . S
C752 C753 1.516 1_655 S
C753 C752 1.516 1_455 S
C753 C754 1.502 . S
C753 C755 1.561 . S
C753 C756 1.526 . S
C754 H738 0.959 . S
C754 H739 0.959 . S
C754 H740 0.961 1_455 S
C754 C753 1.502 . S
C755 H741 0.960 1_455 S
C755 H742 0.961 . S
C755 H743 0.959 . S
C755 C753 1.561 . S
C756 C753 1.526 . S
C756 C757 1.396 . S
C756 C761 1.390 . S
C757 C751 1.465 1_455 S
C757 C756 1.396 . S
C757 C758 1.399 . S
C758 H744 0.929 . S
C758 C757 1.399 . S
C758 C759 1.385 . S
C759 H745 0.931 . S
C759 C758 1.385 . S
C759 C760 1.389 . S
C760 C759 1.389 . S
C760 C761 1.387 . S
C761 H746 0.930 . S
C761 C756 1.390 . S
C761 C760 1.387 . S
H762 C774 0.930 . S
H763 C776 0.930 . S
H764 C777 0.930 . S
H765 C781 0.959 . S
H766 C781 0.959 . S
H767 C781 0.961 1_565 S
H768 C782 0.960 1_565 S
H769 C782 0.961 . S
H770 C782 0.959 . S
H771 C785 0.929 . S
H772 C786 0.931 . S
H773 C788 0.930 . S
C774 H762 0.930 . S
C774 C775 1.399 . S
C774 C779 1.399 . S
C775 C774 1.399 . S
C775 C776 1.376 . S
C776 H763 0.930 . S
C776 C775 1.376 . S
C776 C777 1.388 . S
C777 H764 0.930 . S
C777 C776 1.388 . S
C777 C778 1.390 . S
C778 C777 1.390 . S
C778 C779 1.394 . S
C778 C784 1.465 1_565 S
C779 C774 1.399 . S
C779 C778 1.394 . S
C779 C780 1.516 1_565 S
C780 C779 1.516 1_545 S
C780 C781 1.502 . S
C780 C782 1.561 . S
C780 C783 1.526 . S
C781 H765 0.959 . S
C781 H766 0.959 . S
C781 H767 0.961 1_545 S
C781 C780 1.502 . S
C782 H768 0.960 1_545 S
C782 H769 0.961 . S
C782 H770 0.959 . S
C782 C780 1.561 . S
C783 C780 1.526 . S
C783 C784 1.396 . S
C783 C788 1.390 . S
C784 C778 1.465 1_545 S
C784 C783 1.396 . S
C784 C785 1.399 . S
C785 H771 0.929 . S
C785 C784 1.399 . S
C785 C786 1.385 . S
C786 H772 0.931 . S
C786 C785 1.385 . S
C786 C787 1.389 . S
C787 C786 1.389 . S
C787 C788 1.387 . S
C788 H773 0.930 . S
C788 C783 1.390 . S
C788 C787 1.387 . S
H789 C801 0.930 . S
H790 C803 0.930 . S
H791 C804 0.930 . S
H792 C808 0.959 . S
H793 C808 0.959 . S
H794 C808 0.961 . S
H795 C809 0.960 . S
H796 C809 0.961 . S
H797 C809 0.959 . S
H798 C812 0.929 . S
H799 C813 0.931 . S
H800 C815 0.930 . S
C801 H789 0.930 . S
C801 C802 1.399 . S
C801 C806 1.399 . S
C802 C801 1.399 . S
C802 C803 1.376 . S
C803 H790 0.930 . S
C803 C802 1.376 . S
C803 C804 1.388 . S
C804 H791 0.930 . S
C804 C803 1.388 . S
C804 C805 1.390 . S
C805 C804 1.390 . S
C805 C806 1.394 . S
C805 C811 1.465 . S
C806 C801 1.399 . S
C806 C805 1.394 . S
C806 C807 1.516 . S
C807 C806 1.516 . S
C807 C808 1.502 . S
C807 C809 1.561 . S
C807 C810 1.526 . S
C808 H792 0.959 . S
C808 H793 0.959 . S
C808 H794 0.961 . S
C808 C807 1.502 . S
C809 H795 0.960 . S
C809 H796 0.961 . S
C809 H797 0.959 . S
C809 C807 1.561 . S
C810 C807 1.526 . S
C810 C811 1.396 . S
C810 C815 1.390 . S
C811 C805 1.465 . S
C811 C810 1.396 . S
C811 C812 1.399 . S
C812 H798 0.929 . S
C812 C811 1.399 . S
C812 C813 1.385 . S
C813 H799 0.931 . S
C813 C812 1.385 . S
C813 C814 1.389 . S
C814 C813 1.389 . S
C814 C815 1.387 . S
C815 H800 0.930 . S
C815 C810 1.390 . S
C815 C814 1.387 . S
C181 C119 1.743 . S
C193 C7 1.764 . S
C208 C23 1.827 . S
C220 C135 1.816 . S
C235 C35 1.718 . S
C247 C147 1.709 . S
C262 C49 1.737 . S
C274 C161 1.702 . S
C289 C93 1.815 . S
C301 C65 1.822 . S
C316 C77 1.725 . S
C328 C105 1.709 . S
C343 C51 1.070 . S
C355 C9 1.074 . S
C370 C63 1.116 . S
C382 C21 1.045 . S
C397 C79 0.832 . S
C409 C37 0.909 . S
C424 C91 1.107 . S
C436 C133 1.059 . S
C451 C107 0.927 . S
C463 C149 0.948 . S
C478 C121 0.971 . S
C490 C163 0.925 . S
C505 C3 1.564 . S
C517 C134 1.560 . S
C532 C22 1.543 . S
C544 C143 1.554 . S
C559 C31 1.556 . S
C571 C157 1.547 . S
C586 C92 1.556 . S
C598 C45 1.561 . S
C613 C64 1.562 . S
C625 C101 1.565 . S
C640 C115 1.550 . S
C652 C73 1.557 . S
C667 C162 1.252 . S
C679 C8 1.190 . S
C694 C17 1.253 . S
C706 C87 1.321 . S
C721 C106 1.190 . S
C733 C36 1.207 . S
C748 C50 1.207 . S
C760 C120 1.253 . S
C775 C59 1.267 . S
C787 C129 1.323 . S
C802 C148 1.197 . S
C814 C78 1.253 . S
