# Generated by pormake.
# Topology vmf, (6)-cn, num edge types: 1
# Building blocks:
#     Node 0, Type 0, BuildingBlock: OJICUG_clean_sbu_0, # of connection points: 6
#     Node 1, Type 0, BuildingBlock: OJICUG_clean_sbu_0, # of connection points: 6
#     Node 2, Type 0, BuildingBlock: OJICUG_clean_sbu_0, # of connection points: 6
#     Node 3, Type 0, BuildingBlock: OJICUG_clean_sbu_0, # of connection points: 6
#     Node 4, Type 0, BuildingBlock: OJICUG_clean_sbu_0, # of connection points: 6
#     Node 5, Type 0, BuildingBlock: OJICUG_clean_sbu_0, # of connection points: 6
#     Node 6, Type 0, BuildingBlock: OJICUG_clean_sbu_0, # of connection points: 6
#     Node 7, Type 0, BuildingBlock: OJICUG_clean_sbu_0, # of connection points: 6
#     Edge 8, Type (0, 0), BuildingBlock: XUDNAN_clean_linker_2, # of connection points: 2
#     Edge 9, Type (0, 0), BuildingBlock: XUDNAN_clean_linker_2, # of connection points: 2
#     Edge 10, Type (0, 0), BuildingBlock: XUDNAN_clean_linker_2, # of connection points: 2
#     Edge 11, Type (0, 0), BuildingBlock: XUDNAN_clean_linker_2, # of connection points: 2
#     Edge 12, Type (0, 0), BuildingBlock: XUDNAN_clean_linker_2, # of connection points: 2
#     Edge 13, Type (0, 0), BuildingBlock: XUDNAN_clean_linker_2, # of connection points: 2
#     Edge 14, Type (0, 0), BuildingBlock: XUDNAN_clean_linker_2, # of connection points: 2
#     Edge 15, Type (0, 0), BuildingBlock: XUDNAN_clean_linker_2, # of connection points: 2
#     Edge 16, Type (0, 0), BuildingBlock: XUDNAN_clean_linker_2, # of connection points: 2
#     Edge 17, Type (0, 0), BuildingBlock: XUDNAN_clean_linker_2, # of connection points: 2
#     Edge 18, Type (0, 0), BuildingBlock: XUDNAN_clean_linker_2, # of connection points: 2
#     Edge 19, Type (0, 0), BuildingBlock: XUDNAN_clean_linker_2, # of connection points: 2
#     Edge 20, Type (0, 0), BuildingBlock: XUDNAN_clean_linker_2, # of connection points: 2
#     Edge 21, Type (0, 0), BuildingBlock: XUDNAN_clean_linker_2, # of connection points: 2
#     Edge 22, Type (0, 0), BuildingBlock: XUDNAN_clean_linker_2, # of connection points: 2
#     Edge 23, Type (0, 0), BuildingBlock: XUDNAN_clean_linker_2, # of connection points: 2
#     Edge 24, Type (0, 0), BuildingBlock: XUDNAN_clean_linker_2, # of connection points: 2
#     Edge 25, Type (0, 0), BuildingBlock: XUDNAN_clean_linker_2, # of connection points: 2
#     Edge 26, Type (0, 0), BuildingBlock: XUDNAN_clean_linker_2, # of connection points: 2
#     Edge 27, Type (0, 0), BuildingBlock: XUDNAN_clean_linker_2, # of connection points: 2
#     Edge 28, Type (0, 0), BuildingBlock: XUDNAN_clean_linker_2, # of connection points: 2
#     Edge 29, Type (0, 0), BuildingBlock: XUDNAN_clean_linker_2, # of connection points: 2
#     Edge 30, Type (0, 0), BuildingBlock: XUDNAN_clean_linker_2, # of connection points: 2
#     Edge 31, Type (0, 0), BuildingBlock: XUDNAN_clean_linker_2, # of connection points: 2
# Relax obj value: 0.306
# Max RMSD: 0.281
# Mean RMSD: 0.281
data_MOF--net-vmf--node1-OJICUG_clean_sbu_0--edge1-XUDNAN_clean_linker_2
_symmetry_space_group_name_H-M    P1
_symmetry_Int_Tables_number       1
_symmetry_cell_setting            triclinic
loop_
_symmetry_equiv_pos_as_xyz
'x, y, z'
_cell_length_a     29.26402
_cell_length_b     43.750731
_cell_length_c     28.605987
_cell_angle_alpha  89.979378
_cell_angle_beta   100.26022
_cell_angle_gamma 90.098356
loop_
_atom_site_label
_atom_site_type_symbol
_atom_site_fract_x
_atom_site_fract_y
_atom_site_fract_z
_atom_type_partial_charge
Sc0 Sc 0.19877 0.34362 0.18986 0.0
Sc1 Sc 0.19946 0.26897 0.23382 0.0
Sc2 Sc 0.11284 0.32127 0.25319 0.0
O3 O 0.1703 0.31115 0.22594 0.0
C4 C 0.16113 0.38568 0.26562 0.0
C5 C 0.28703 0.31565 0.25118 0.0
C6 C 0.17452 0.28181 0.33642 0.0
C7 C 0.22231 0.28387 0.1347 0.0
C8 C 0.09199 0.3467 0.14467 0.0
C9 C 0.09221 0.252 0.22227 0.0
O10 O 0.18222 0.3812 0.23131 0.0
O11 O 0.2683 0.28916 0.24962 0.0
O12 O 0.14248 0.30145 0.32259 0.0
O13 O 0.22253 0.31216 0.14345 0.0
O14 O 0.07866 0.34038 0.18405 0.0
O15 O 0.1336 0.24421 0.21965 0.0
O16 O 0.13457 0.34766 0.14055 0.0
O17 O 0.20636 0.26425 0.16034 0.0
O18 O 0.08106 0.27884 0.23218 0.0
O19 O 0.26472 0.33971 0.2361 0.0
O20 O 0.13659 0.36528 0.28046 0.0
O21 O 0.19758 0.26902 0.30823 0.0
Sc22 Sc 0.88332 0.32874 0.72324 0.0
Sc23 Sc 0.80462 0.27625 0.75418 0.0
Sc24 Sc 0.79464 0.35426 0.77894 0.0
O25 O 0.82665 0.31968 0.75151 0.0
C26 C 0.90129 0.36237 0.82298 0.0
C27 C 0.90946 0.26242 0.76572 0.0
C28 C 0.78748 0.30221 0.8535 0.0
C29 C 0.82925 0.28313 0.64922 0.0
C30 C 0.82601 0.39063 0.69757 0.0
C31 C 0.70923 0.31283 0.73048 0.0
O32 O 0.91686 0.34464 0.79383 0.0
O33 O 0.87287 0.25833 0.78298 0.0
O34 O 0.79176 0.33008 0.84293 0.0
O35 O 0.84935 0.30936 0.65493 0.0
O36 O 0.79269 0.38242 0.71751 0.0
O37 O 0.73381 0.28924 0.72654 0.0
O38 O 0.86287 0.37488 0.70078 0.0
O39 O 0.816 0.26842 0.68293 0.0
O40 O 0.72634 0.3377 0.74902 0.0
O41 O 0.91453 0.2852 0.73986 0.0
O42 O 0.86028 0.37335 0.81391 0.0
O43 O 0.7906 0.28039 0.82494 0.0
Sc44 Sc 0.88324 0.67197 0.73276 0.0
Sc45 Sc 0.80671 0.71783 0.77833 0.0
Sc46 Sc 0.81122 0.63968 0.80377 0.0
O47 O 0.83216 0.67633 0.77055 0.0
C48 C 0.83108 0.60759 0.7136 0.0
C49 C 0.81767 0.71546 0.66829 0.0
C50 C 0.71692 0.67663 0.76807 0.0
C51 C 0.90761 0.73714 0.77801 0.0
C52 C 0.91881 0.63989 0.83058 0.0
C53 C 0.80884 0.68939 0.88148 0.0
O54 O 0.86596 0.62486 0.71269 0.0
O55 O 0.80919 0.72879 0.70546 0.0
O56 O 0.73904 0.6535 0.78762 0.0
O57 O 0.90919 0.71754 0.74575 0.0
O58 O 0.88226 0.62345 0.82371 0.0
O59 O 0.80144 0.71076 0.85106 0.0
O60 O 0.92667 0.65917 0.79949 0.0
O61 O 0.87483 0.7375 0.80169 0.0
O62 O 0.81844 0.66226 0.87098 0.0
O63 O 0.83847 0.68959 0.66938 0.0
O64 O 0.80116 0.61357 0.73938 0.0
O65 O 0.73701 0.70083 0.75709 0.0
Sc66 Sc 0.18927 0.65318 0.20372 0.0
Sc67 Sc 0.191 0.72289 0.26491 0.0
Sc68 Sc 0.10463 0.66852 0.27405 0.0
O69 O 0.16158 0.68151 0.24764 0.0
C70 C 0.08079 0.65144 0.16225 0.0
C71 C 0.20667 0.71907 0.1604 0.0
C72 C 0.08537 0.73989 0.26159 0.0
C73 C 0.27944 0.67839 0.26753 0.0
C74 C 0.15438 0.60434 0.27239 0.0
C75 C 0.16952 0.6987 0.36397 0.0
O76 O 0.12304 0.64858 0.1576 0.0
O77 O 0.19472 0.73461 0.19355 0.0
O78 O 0.0739 0.7124 0.2667 0.0
O79 O 0.25746 0.656 0.24584 0.0
O80 O 0.12656 0.6223 0.28759 0.0
O81 O 0.1907 0.71507 0.33804 0.0
O82 O 0.1783 0.61228 0.2416 0.0
O83 O 0.26001 0.70363 0.27452 0.0
O84 O 0.13722 0.67989 0.34705 0.0
O85 O 0.20713 0.69002 0.16029 0.0
O86 O 0.06835 0.65815 0.20178 0.0
O87 O 0.12624 0.74793 0.25781 0.0
Sc88 Sc 0.68122 0.83569 0.1889 0.0
Sc89 Sc 0.68649 0.76991 0.25964 0.0
Sc90 Sc 0.60848 0.82847 0.27322 0.0
O91 O 0.65891 0.81136 0.2407 0.0
C92 C 0.66699 0.88842 0.2595 0.0
C93 C 0.77552 0.80844 0.24652 0.0
C94 C 0.67462 0.79852 0.35967 0.0
C95 C 0.68345 0.76885 0.14813 0.0
C96 C 0.57155 0.843 0.16375 0.0
C97 C 0.58315 0.757 0.26746 0.0
O98 O 0.69011 0.87598 0.23128 0.0
O99 O 0.75642 0.78796 0.26833 0.0
O100 O 0.65031 0.82182 0.3439 0.0
O101 O 0.67632 0.7973 0.14163 0.0
O102 O 0.56369 0.83363 0.20388 0.0
O103 O 0.61949 0.74802 0.25299 0.0
O104 O 0.61209 0.84833 0.15569 0.0
O105 O 0.68941 0.75645 0.18876 0.0
O106 O 0.57703 0.78461 0.27855 0.0
O107 O 0.75264 0.82589 0.21548 0.0
O108 O 0.63318 0.87527 0.27371 0.0
O109 O 0.68668 0.77813 0.33286 0.0
Sc110 Sc 0.37256 0.82232 0.73718 0.0
Sc111 Sc 0.31038 0.76969 0.79128 0.0
Sc112 Sc 0.31589 0.84586 0.8273 0.0
O113 O 0.33159 0.81239 0.78452 0.0
C114 C 0.4198 0.85199 0.83162 0.0
C115 C 0.40759 0.75511 0.76613 0.0
C116 C 0.33924 0.79229 0.89929 0.0
C117 C 0.29506 0.78146 0.67855 0.0
C118 C 0.30902 0.88184 0.73499 0.0
C119 C 0.22324 0.80661 0.81041 0.0
O120 O 0.4254 0.83402 0.79812 0.0
O121 O 0.37872 0.7503 0.79364 0.0
O122 O 0.34351 0.82045 0.88977 0.0
O123 O 0.31945 0.80594 0.67938 0.0
O124 O 0.28678 0.87203 0.76621 0.0
O125 O 0.24028 0.78489 0.78953 0.0
O126 O 0.34599 0.86896 0.72709 0.0
O127 O 0.29342 0.76513 0.71522 0.0
O128 O 0.24738 0.82865 0.83048 0.0
O129 O 0.40488 0.77832 0.73926 0.0
O130 O 0.38258 0.86722 0.828 0.0
O131 O 0.32475 0.77227 0.86769 0.0
Sc132 Sc 0.3713 0.15683 0.71926 0.0
Sc133 Sc 0.30684 0.21405 0.76046 0.0
Sc134 Sc 0.3099 0.14044 0.8094 0.0
O135 O 0.32785 0.17063 0.76208 0.0
C136 C 0.30726 0.09794 0.72421 0.0
C137 C 0.29427 0.19375 0.65043 0.0
C138 C 0.21788 0.17993 0.78425 0.0
C139 C 0.40547 0.22565 0.73481 0.0
C140 C 0.41485 0.13343 0.82063 0.0
C141 C 0.33465 0.19915 0.87161 0.0
O142 O 0.34443 0.11016 0.71548 0.0
O143 O 0.2895 0.21199 0.6841 0.0
O144 O 0.24064 0.15787 0.80574 0.0
O145 O 0.40529 0.19974 0.71521 0.0
O146 O 0.37726 0.11874 0.81905 0.0
O147 O 0.32317 0.21739 0.83669 0.0
O148 O 0.42129 0.14908 0.78474 0.0
O149 O 0.3744 0.23351 0.75817 0.0
O150 O 0.33429 0.1702 0.86771 0.0
O151 O 0.32065 0.17002 0.6562 0.0
O152 O 0.28384 0.10977 0.75283 0.0
O153 O 0.23647 0.20063 0.76264 0.0
Sc154 Sc 0.68115 0.15574 0.17121 0.0
Sc155 Sc 0.69155 0.22455 0.23541 0.0
Sc156 Sc 0.61538 0.16765 0.2589 0.0
O157 O 0.66353 0.18271 0.22254 0.0
C158 C 0.57325 0.14894 0.15319 0.0
C159 C 0.67204 0.22013 0.12227 0.0
C160 C 0.59094 0.2388 0.25251 0.0
C161 C 0.77796 0.18756 0.21274 0.0
C162 C 0.67374 0.10725 0.2479 0.0
C163 C 0.68872 0.19858 0.33974 0.0
O164 O 0.61207 0.13741 0.14921 0.0
O165 O 0.68493 0.23412 0.16134 0.0
O166 O 0.58569 0.21158 0.26568 0.0
O167 O 0.75253 0.16942 0.18489 0.0
O168 O 0.63823 0.12047 0.25849 0.0
O169 O 0.69917 0.21829 0.31062 0.0
O170 O 0.69872 0.11928 0.22084 0.0
O171 O 0.76139 0.2072 0.23804 0.0
O172 O 0.66236 0.17544 0.32693 0.0
O173 O 0.6653 0.19138 0.11927 0.0
O174 O 0.56758 0.16317 0.19074 0.0
O175 O 0.62547 0.24702 0.23416 0.0
H176 H 0.52261 0.23031 0.30405 0.0
H177 H 0.5756 0.29691 0.2146 0.0
H178 H 0.5082 0.3303 0.21932 0.0
H179 H 0.41117 0.23366 0.24932 0.0
H180 H 0.38602 0.22849 0.30192 0.0
H181 H 0.44285 0.21379 0.30016 0.0
H182 H 0.47609 0.24455 0.37622 0.0
H183 H 0.41904 0.2595 0.378 0.0
H184 H 0.46709 0.28527 0.37746 0.0
H185 H 0.429 0.35203 0.22358 0.0
H186 H 0.34473 0.35786 0.22118 0.0
H187 H 0.34438 0.27595 0.30645 0.0
C188 C 0.52084 0.25223 0.28621 0.0
C189 C 0.55436 0.26097 0.25881 0.0
C190 C 0.55044 0.2898 0.23598 0.0
C191 C 0.51241 0.30895 0.23871 0.0
C192 C 0.47918 0.29905 0.26495 0.0
C193 C 0.48335 0.27134 0.28846 0.0
C194 C 0.44048 0.26366 0.30878 0.0
C195 C 0.41887 0.23313 0.28881 0.0
C196 C 0.45134 0.26323 0.36336 0.0
C197 C 0.41015 0.29051 0.29069 0.0
C198 C 0.43342 0.31123 0.26676 0.0
C199 C 0.41081 0.33631 0.24307 0.0
C200 C 0.36291 0.3395 0.24206 0.0
C201 C 0.33813 0.31733 0.26376 0.0
C202 C 0.36256 0.29337 0.28999 0.0
H203 H 0.65845 0.26377 0.69046 0.0
H204 H 0.64402 0.3539 0.74959 0.0
H205 H 0.56128 0.3435 0.74982 0.0
H206 H 0.53838 0.25939 0.61722 0.0
H207 H 0.53446 0.2192 0.62983 0.0
H208 H 0.58995 0.23608 0.62619 0.0
H209 H 0.62294 0.21547 0.71039 0.0
H210 H 0.56754 0.19906 0.71475 0.0
H211 H 0.59479 0.2256 0.75937 0.0
H212 H 0.48379 0.3197 0.75682 0.0
H213 H 0.41673 0.28612 0.76257 0.0
H214 H 0.48287 0.21241 0.69797 0.0
C215 C 0.63765 0.28178 0.70195 0.0
C216 C 0.65796 0.30963 0.72003 0.0
C217 C 0.62938 0.3324 0.73528 0.0
C218 C 0.58225 0.32669 0.73568 0.0
C219 C 0.56399 0.29832 0.72001 0.0
C220 C 0.59064 0.27649 0.70248 0.0
C221 C 0.56414 0.24692 0.69153 0.0
C222 C 0.55625 0.24 0.63801 0.0
C223 C 0.58883 0.22022 0.72077 0.0
C224 C 0.51916 0.25508 0.70749 0.0
C225 C 0.51937 0.28486 0.72347 0.0
C226 C 0.48282 0.29654 0.74341 0.0
C227 C 0.44502 0.27727 0.74682 0.0
C228 C 0.44427 0.24668 0.73047 0.0
C229 C 0.48184 0.23577 0.71026 0.0
H230 H 0.4766 0.76115 0.71422 0.0
H231 H 0.42943 0.70214 0.81817 0.0
H232 H 0.49979 0.67028 0.8209 0.0
H233 H 0.53331 0.70189 0.65245 0.0
H234 H 0.5799 0.72744 0.64506 0.0
H235 H 0.52271 0.74239 0.64602 0.0
H236 H 0.55698 0.77902 0.7147 0.0
H237 H 0.61407 0.76428 0.71386 0.0
H238 H 0.59092 0.76346 0.76818 0.0
H239 H 0.57948 0.6482 0.81777 0.0
H240 H 0.66225 0.64031 0.81385 0.0
H241 H 0.65618 0.71515 0.71334 0.0
C242 C 0.48029 0.74119 0.73695 0.0
C243 C 0.44723 0.73409 0.76584 0.0
C244 C 0.45411 0.70796 0.7955 0.0
C245 C 0.49386 0.68967 0.79711 0.0
C246 C 0.52612 0.69776 0.76866 0.0
C247 C 0.51958 0.72296 0.73915 0.0
C248 C 0.56116 0.72891 0.71577 0.0
C249 C 0.5485 0.7249 0.66161 0.0
C250 C 0.582 0.76078 0.72896 0.0
C251 C 0.59309 0.70378 0.73801 0.0
C252 C 0.57203 0.68557 0.7676 0.0
C253 C 0.59602 0.66206 0.79421 0.0
C254 C 0.64304 0.65769 0.7916 0.0
C255 C 0.66572 0.67712 0.76321 0.0
C256 C 0.63983 0.69982 0.73514 0.0
H257 H 0.33766 0.71748 0.32353 0.0
H258 H 0.33689 0.6374 0.234 0.0
H259 H 0.42081 0.64393 0.23526 0.0
H260 H 0.4012 0.7611 0.26595 0.0
H261 H 0.43402 0.78078 0.31638 0.0
H262 H 0.37794 0.76532 0.3199 0.0
H263 H 0.41305 0.73351 0.39402 0.0
H264 H 0.46946 0.74939 0.39148 0.0
H265 H 0.4615 0.70853 0.39158 0.0
H266 H 0.49995 0.66585 0.2316 0.0
H267 H 0.5673 0.69959 0.22756 0.0
H268 H 0.51467 0.765 0.31883 0.0
C269 C 0.35546 0.70057 0.30577 0.0
C270 C 0.3307 0.67702 0.27864 0.0
C271 C 0.35518 0.65553 0.25541 0.0
C272 C 0.40293 0.65907 0.25586 0.0
C273 C 0.42573 0.68382 0.28041 0.0
C274 C 0.40288 0.70383 0.30582 0.0
C275 C 0.43307 0.73083 0.32395 0.0
C276 C 0.41019 0.76127 0.3054 0.0
C277 C 0.44499 0.73053 0.3785 0.0
C278 C 0.47528 0.72398 0.3022 0.0
C279 C 0.47109 0.69649 0.27807 0.0
C280 C 0.50413 0.68706 0.25139 0.0
C281 C 0.54212 0.70638 0.24907 0.0
C282 C 0.54607 0.73496 0.27265 0.0
C283 C 0.51266 0.74332 0.3003 0.0
H284 H 0.02234 0.73717 0.3187 0.0
H285 H 0.0662 0.79307 0.20967 0.0
H286 H 0.995 0.82456 0.20557 0.0
H287 H 0.9125 0.72953 0.26656 0.0
H288 H 0.88696 0.73035 0.31943 0.0
H289 H 0.9459 0.71809 0.32301 0.0
H290 H 0.97375 0.75935 0.3868 0.0
H291 H 0.91451 0.77161 0.38386 0.0
H292 H 0.9584 0.79881 0.37467 0.0
H293 H 0.9129 0.84245 0.20253 0.0
H294 H 0.82847 0.84518 0.19947 0.0
H295 H 0.83857 0.77595 0.30961 0.0
C296 C 0.01765 0.75668 0.29499 0.0
C297 C 0.04931 0.76281 0.26433 0.0
C298 C 0.04233 0.78831 0.23366 0.0
C299 C 0.00209 0.80624 0.23126 0.0
C300 C 0.97019 0.79851 0.26043 0.0
C301 C 0.97804 0.77451 0.29223 0.0
C302 C 0.93614 0.76773 0.31471 0.0
C303 C 0.91941 0.73448 0.30531 0.0
C304 C 0.94632 0.77481 0.36818 0.0
C305 C 0.90209 0.79028 0.28827 0.0
C306 C 0.92263 0.80845 0.25815 0.0
C307 C 0.89678 0.82883 0.22672 0.0
C308 C 0.84869 0.83008 0.22515 0.0
C309 C 0.82677 0.81063 0.25427 0.0
C310 C 0.85423 0.79126 0.2872 0.0
H311 H 0.96802 0.75085 0.71992 0.0
H312 H 0.93759 0.77072 0.85973 0.0
H313 H 0.01275 0.79828 0.87991 0.0
H314 H 0.07905 0.73003 0.75752 0.0
H315 H 0.10163 0.74522 0.70762 0.0
H316 H 0.04178 0.73397 0.70044 0.0
H317 H 0.01592 0.78808 0.66953 0.0
H318 H 0.07596 0.79944 0.67599 0.0
H319 H 0.03653 0.82115 0.70468 0.0
H320 H 0.09644 0.81715 0.88772 0.0
H321 H 0.17982 0.82382 0.88347 0.0
H322 H 0.1546 0.78719 0.74046 0.0
C323 C 0.97639 0.76169 0.75443 0.0
C324 C 0.947 0.75869 0.7883 0.0
C325 C 0.95942 0.77307 0.83308 0.0
C326 C 0.00203 0.7887 0.84479 0.0
C327 C 0.03127 0.78982 0.81113 0.0
C328 C 0.0186 0.7768 0.76669 0.0
C329 C 0.05784 0.77726 0.73884 0.0
C330 C 0.07082 0.74469 0.72537 0.0
C331 C 0.04584 0.79771 0.69465 0.0
C332 C 0.09552 0.79134 0.77521 0.0
C333 C 0.07947 0.79928 0.81625 0.0
C334 C 0.1091 0.81139 0.85552 0.0
C335 C 0.15628 0.81506 0.85284 0.0
C336 C 0.17326 0.80586 0.81168 0.0
C337 C 0.14234 0.79431 0.77233 0.0
H338 H 0.97072 0.25257 0.70756 0.0
H339 H 0.93613 0.22305 0.84177 0.0
H340 H 0.00864 0.19222 0.85717 0.0
H341 H 0.02921 0.1818 0.67862 0.0
H342 H 0.07159 0.20349 0.65384 0.0
H343 H 0.01353 0.21808 0.65045 0.0
H344 H 0.04718 0.26809 0.69166 0.0
H345 H 0.10511 0.25361 0.69555 0.0
H346 H 0.08518 0.26598 0.74857 0.0
H347 H 0.09037 0.16995 0.86102 0.0
H348 H 0.17223 0.15974 0.85433 0.0
H349 H 0.15147 0.20675 0.71877 0.0
C350 C 0.97777 0.23919 0.73992 0.0
C351 C 0.94803 0.24025 0.77366 0.0
C352 C 0.95841 0.22234 0.81536 0.0
C353 C -0.00054 0.20483 0.8243 0.0
C354 C 0.02898 0.20534 0.79082 0.0
C355 C 0.01817 0.22196 0.74927 0.0
C356 C 0.05702 0.22167 0.72094 0.0
C357 C 0.04193 0.20527 0.67314 0.0
C358 C 0.07465 0.25426 0.71382 0.0
C359 C 0.09254 0.20327 0.75382 0.0
C360 C 0.07566 0.1934 0.79349 0.0
C361 C 0.10358 0.17724 0.8298 0.0
C362 C 0.14996 0.17153 0.82568 0.0
C363 C 0.16799 0.18254 0.78602 0.0
C364 C 0.13857 0.1981 0.74946 0.0
H365 H 0.03485 0.24739 0.28458 0.0
H366 H 0.06423 0.20712 0.15489 0.0
H367 H 0.98931 0.17878 0.14513 0.0
H368 H 0.96613 0.18197 0.32377 0.0
H369 H 0.92714 0.20841 0.34475 0.0
H370 H 0.98727 0.21857 0.34731 0.0
H371 H 0.96169 0.26785 0.29958 0.0
H372 H 0.90173 0.25768 0.29599 0.0
H373 H 0.92435 0.26485 0.24237 0.0
H374 H 0.90577 0.16265 0.14311 0.0
H375 H 0.82267 0.15984 0.14787 0.0
H376 H 0.84778 0.21384 0.27721 0.0
C377 C 0.02625 0.23168 0.255 0.0
C378 C 0.05507 0.22913 0.22055 0.0
C379 C 0.04278 0.20886 0.18197 0.0
C380 C 0.00031 0.19285 0.17622 0.0
C381 C 0.97134 0.19732 0.20968 0.0
C382 C 0.98425 0.21603 0.24869 0.0
C383 C 0.94507 0.22068 0.27605 0.0
C384 C 0.95713 0.20655 0.32593 0.0
C385 C 0.93249 0.25477 0.27859 0.0
C386 C 0.90698 0.20296 0.24511 0.0
C387 C 0.92299 0.18898 0.2077 0.0
C388 C 0.89319 0.17304 0.17272 0.0
C389 C 0.84593 0.17167 0.17575 0.0
C390 C 0.82862 0.18666 0.21303 0.0
C391 C 0.85988 0.20205 0.24845 0.0
H392 H 0.98831 0.33964 0.86481 0.0
H393 H 0.87459 0.39602 0.8941 0.0
H394 H 0.91016 0.39778 0.97845 0.0
H395 H 0.0028 0.29558 0.96987 0.0
H396 H 0.06534 0.29457 0.97931 0.0
H397 H 0.03261 0.29867 0.92007 0.0
H398 H 0.07749 0.34835 0.90847 0.0
H399 H 0.11084 0.34415 0.96746 0.0
H400 H 0.07928 0.37899 0.95089 0.0
H401 H 0.95344 0.38898 0.06209 0.0
H402 H 0.00827 0.37672 0.13631 0.0
H403 H 0.0971 0.32974 0.05352 0.0
C404 C 0.97142 0.35296 0.88868 0.0
C405 C 0.92837 0.36767 0.87206 0.0
C406 C 0.90749 0.38454 0.90518 0.0
C407 C 0.92733 0.3856 0.95358 0.0
C408 C 0.96876 0.37011 0.96896 0.0
C409 C 0.99122 0.35471 0.9374 0.0
C410 C 0.03566 0.34013 0.96356 0.0
C411 C 0.03398 0.30517 0.95785 0.0
C412 C 0.07835 0.35372 0.94658 0.0
C413 C 0.03415 0.34944 0.01454 0.0
C414 C 0.99493 0.36639 0.01697 0.0
C415 C 0.98471 0.37615 0.06052 0.0
C416 C 0.01584 0.36893 0.10257 0.0
C417 C 0.05718 0.35261 0.1008 0.0
C418 C 0.06611 0.34269 0.05603 0.0
H419 H 0.07302 0.61013 0.08879 0.0
H420 H 0.01165 0.69251 0.13455 0.0
H421 H 0.96428 0.69826 0.05428 0.0
H422 H 0.08081 0.63266 0.97357 0.0
H423 H 0.06391 0.5966 0.94514 0.0
H424 H 0.09114 0.59754 0.00675 0.0
H425 H 0.02166 0.56824 0.03019 0.0
H426 H 0.9946 0.56662 0.9685 0.0
H427 H 0.96362 0.58274 0.01171 0.0
H428 H 0.93386 0.69953 0.96642 0.0
H429 H 0.90777 0.69027 0.88069 0.0
H430 H 0.97898 0.60309 0.89293 0.0
C431 C 0.04862 0.62889 0.08214 0.0
C432 C 0.04571 0.65083 0.11792 0.0
C433 C 0.01382 0.67523 0.10791 0.0
C434 C 0.98716 0.67882 0.06228 0.0
C435 C 0.99188 0.65735 0.02739 0.0
C436 C 0.02055 0.63225 0.03714 0.0
C437 C 0.0184 0.61226 0.99328 0.0
C438 C 0.06643 0.60962 0.97885 0.0
C439 C 0.99837 0.58059 1.00141 0.0
C440 C 0.98513 0.63053 0.95695 0.0
C441 C 0.97103 0.65675 0.97737 0.0
C442 C 0.94363 0.67868 0.95043 0.0
C443 C 0.92915 0.67328 0.90174 0.0
C444 C 0.9407 0.6458 0.88052 0.0
C445 C 0.96925 0.62414 0.90846 0.0
H446 H 0.53883 0.88846 0.10036 0.0
H447 H 0.5268 0.79182 0.12879 0.0
H448 H 0.48782 0.78356 0.04571 0.0
H449 H 0.42192 0.89315 0.01696 0.0
H450 H 0.44372 0.92142 0.98063 0.0
H451 H 0.46606 0.91981 0.0435 0.0
H452 H 0.54929 0.91516 0.02511 0.0
H453 H 0.52716 0.9156 0.96224 0.0
H454 H 0.56277 0.88424 0.98821 0.0
H455 H 0.46611 0.7845 0.95643 0.0
H456 H 0.44001 0.79617 0.8714 0.0
H457 H 0.45446 0.89312 0.90206 0.0
C458 C 0.52592 0.86587 0.08955 0.0
C459 C 0.53499 0.84082 0.12109 0.0
C460 C 0.51901 0.81138 0.10549 0.0
C461 C 0.49747 0.80642 0.05819 0.0
C462 C 0.49102 0.83133 0.02731 0.0
C463 C 0.50274 0.86071 0.04282 0.0
C464 C 0.4915 0.88346 1.00226 0.0
C465 C 0.45353 0.90578 0.01138 0.0
C466 C 0.5353 0.90062 0.994 0.0
C467 C 0.47364 0.86212 0.96121 0.0
C468 C 0.47463 0.83209 0.97635 0.0
C469 C 0.46401 0.80799 0.94439 0.0
C470 C 0.44993 0.81483 0.89603 0.0
C471 C 0.44511 0.84554 0.88021 0.0
C472 C 0.45765 0.86945 0.91326 0.0
H473 H 0.54058 0.10296 0.09025 0.0
H474 H 0.53125 0.2004 0.11363 0.0
H475 H 0.49197 0.2071 0.03019 0.0
H476 H 0.563 0.10467 0.97541 0.0
H477 H 0.52669 0.07278 0.95265 0.0
H478 H 0.55084 0.07487 0.01502 0.0
H479 H 0.46874 0.07093 0.03649 0.0
H480 H 0.44438 0.0679 0.97421 0.0
H481 H 0.4241 0.09715 0.00988 0.0
H482 H 0.4658 0.20392 0.94063 0.0
H483 H 0.436 0.19009 0.85694 0.0
H484 H 0.45186 0.09403 0.89321 0.0
C485 C 0.52865 0.12552 0.07821 0.0
C486 C 0.53833 0.15114 0.1087 0.0
C487 C 0.52317 0.1804 0.09135 0.0
C488 C 0.50143 0.18445 0.04375 0.0
C489 C 0.49397 0.1589 0.01412 0.0
C490 C 0.50543 0.12983 0.03116 0.0
C491 C 0.49271 0.10615 0.99204 0.0
C492 C 0.53589 0.08859 0.98329 0.0
C493 C 0.45525 0.08424 0.00386 0.0
C494 C 0.47367 0.12649 0.95 0.0
C495 C 0.47564 0.15691 0.96336 0.0
C496 C 0.46329 0.18014 0.9301 0.0
C497 C 0.44697 0.17207 0.88245 0.0
C498 C 0.44171 0.141 0.86846 0.0
C499 C 0.45556 0.11796 0.90282 0.0
H500 H 0.21421 0.56021 0.25319 0.0
H501 H 0.10051 0.57609 0.32912 0.0
H502 H 0.09942 0.52123 0.34865 0.0
H503 H 0.17156 0.49583 0.19767 0.0
H504 H 0.22624 0.47632 0.20085 0.0
H505 H 0.22478 0.51731 0.20173 0.0
H506 H 0.28344 0.51773 0.28122 0.0
H507 H 0.28518 0.47654 0.28052 0.0
H508 H 0.27073 0.49629 0.33121 0.0
H509 H 0.10153 0.46401 0.34765 0.0
H510 H 0.1063 0.40971 0.3253 0.0
H511 H 0.21918 0.43192 0.25108 0.0
C512 C 0.18987 0.55236 0.27501 0.0
C513 C 0.15742 0.57243 0.28949 0.0
C514 C 0.12586 0.56115 0.31768 0.0
C515 C 0.12511 0.53003 0.3292 0.0
C516 C 0.15661 0.51067 0.31292 0.0
C517 C 0.18875 0.5215 0.28685 0.0
C518 C 0.21508 0.49576 0.26868 0.0
C519 C 0.20899 0.49635 0.21403 0.0
C520 C 0.26667 0.49664 0.29181 0.0
C521 C 0.19074 0.46869 0.28603 0.0
C522 C 0.15788 0.47763 0.31245 0.0
C523 C 0.12788 0.45666 0.32797 0.0
C524 C 0.13078 0.42588 0.31503 0.0
C525 C 0.16302 0.41663 0.28633 0.0
C526 C 0.19428 0.43823 0.27321 0.0
H527 H 0.76462 0.56329 0.71205 0.0
H528 H 0.89327 0.58312 0.66239 0.0
H529 H 0.89718 0.52954 0.6368 0.0
H530 H 0.79834 0.49722 0.76494 0.0
H531 H 0.74368 0.4773 0.7503 0.0
H532 H 0.74454 0.51823 0.75344 0.0
H533 H 0.69865 0.52141 0.66728 0.0
H534 H 0.69743 0.48024 0.66392 0.0
H535 H 0.72045 0.50219 0.62005 0.0
H536 H 0.89612 0.4724 0.6328 0.0
H537 H 0.88966 0.41747 0.6502 0.0
H538 H 0.76105 0.43498 0.70111 0.0
C539 C 0.79276 0.55672 0.69419 0.0
C540 C 0.82861 0.57752 0.68929 0.0
C541 C 0.86521 0.56773 0.66641 0.0
C542 C 0.86766 0.53729 0.65157 0.0
C543 C 0.8329 0.51701 0.65913 0.0
C544 C 0.79572 0.52647 0.67928 0.0
C545 C 0.76631 0.49963 0.68951 0.0
C546 C 0.76309 0.49801 0.74267 0.0
C547 C 0.71784 0.50095 0.65831 0.0
C548 C 0.79441 0.47344 0.67492 0.0
C549 C 0.83211 0.48388 0.65644 0.0
C550 C 0.86606 0.46393 0.646 0.0
C551 C 0.86215 0.43272 0.65612 0.0
C552 C 0.82474 0.42179 0.67686 0.0
C553 C 0.78964 0.4424 0.68448 0.0
H554 H 0.6087 0.93426 0.27702 0.0
H555 H 0.75282 0.91396 0.27238 0.0
H556 H 0.77251 0.96853 0.28339 0.0
H557 H 0.60184 -0.00299 0.20741 0.0
H558 H 0.56455 0.01942 0.23778 0.0
H559 H 0.56312 0.97844 0.24102 0.0
H560 H 0.581 0.98099 0.33297 0.0
H561 H 0.58212 0.02215 0.33005 0.0
H562 H 0.6313 0.00174 0.36227 0.0
H563 H 0.77426 0.02457 0.27907 0.0
H564 H 0.75807 0.07907 0.26148 0.0
H565 H 0.61303 0.06414 0.26941 0.0
C566 C 0.64465 0.94126 0.2803 0.0
C567 C 0.67934 0.92003 0.27423 0.0
C568 C 0.7258 0.92998 0.27704 0.0
C569 C 0.73737 0.96087 0.28359 0.0
C570 C 0.7021 0.98151 0.28745 0.0
C571 C 0.65671 0.97218 0.28635 0.0
C572 C 0.62448 -0.00063 0.28475 0.0
C573 C 0.58628 -0.00151 0.24009 0.0
C574 C 0.6035 0.00116 0.33023 0.0
C575 C 0.65846 0.02526 0.2825 0.0
C576 C 0.70318 0.01444 0.28501 0.0
C577 C 0.73967 0.03348 0.27832 0.0
C578 C 0.7301 0.06432 0.26802 0.0
C579 C 0.68443 0.07577 0.26453 0.0
C580 C 0.64848 0.05611 0.27305 0.0
H581 H 0.36557 0.92473 0.70578 0.0
H582 H 0.22253 0.90711 0.71868 0.0
H583 H 0.20298 0.96092 0.69894 0.0
H584 H 0.37578 0.98991 0.76602 0.0
H585 H 0.41229 0.01014 0.73182 0.0
H586 H 0.41267 0.96915 0.73296 0.0
H587 H 0.39168 0.96761 0.6411 0.0
H588 H 0.39162 0.00882 0.63959 0.0
H589 H 0.34121 0.98783 0.61118 0.0
H590 H 0.20257 0.01715 0.69651 0.0
H591 H 0.22127 0.07167 0.71115 0.0
H592 H 0.36463 0.05381 0.69992 0.0
C593 C 0.32971 0.93191 0.70217 0.0
C594 C 0.29543 0.91179 0.71324 0.0
C595 C 0.24922 0.92219 0.71002 0.0
C596 C 0.23776 0.95267 0.69856 0.0
C597 C 0.27286 0.97241 0.69023 0.0
C598 C 0.31789 0.96241 0.69138 0.0
C599 C 0.35059 0.98902 0.68896 0.0
C600 C 0.3901 0.98957 0.73253 0.0
C601 C 0.3699 0.98827 0.64242 0.0
C602 C 0.31756 0.01556 0.68951 0.0
C603 C 0.27266 0.00547 0.689 0.0
C604 C 0.23726 0.02542 0.69552 0.0
C605 C 0.24825 0.05632 0.70409 0.0
C606 C 0.29429 0.06694 0.70622 0.0
C607 C 0.3289 0.04645 0.69718 0.0
H608 H 0.32172 0.1966 0.56259 0.0
H609 H 0.20436 0.21081 0.63359 0.0
H610 H 0.16073 0.23494 0.56138 0.0
H611 H 0.31363 0.26689 0.50279 0.0
H612 H 0.32884 0.25275 0.4484 0.0
H613 H 0.34964 0.23342 0.50365 0.0
H614 H 0.31295 0.18263 0.4685 0.0
H615 H 0.29288 0.20171 0.41281 0.0
H616 H 0.25221 0.1816 0.4422 0.0
H617 H 0.13241 0.26236 0.48433 0.0
H618 H 0.11827 0.28548 0.40399 0.0
H619 H 0.2534 0.25354 0.38251 0.0
C620 C 0.28627 0.20381 0.56221 0.0
C621 C 0.2662 0.20149 0.6035 0.0
C622 C 0.22023 0.21214 0.60218 0.0
C623 C 0.19521 0.22604 0.5614 0.0
C624 C 0.2165 0.2292 0.52191 0.0
C625 C 0.26068 0.21796 0.52156 0.0
C626 C 0.27599 0.22548 0.47489 0.0
C627 C 0.3196 0.24584 0.48294 0.0
C628 C 0.28396 0.1961 0.448 0.0
C629 C 0.23386 0.24289 0.44959 0.0
C630 C 0.2 0.24491 0.47736 0.0
C631 C 0.15851 0.26066 0.462 0.0
C632 C 0.15091 0.27399 0.41649 0.0
C633 C 0.18451 0.27134 0.38674 0.0
C634 C 0.22674 0.25587 0.40412 0.0
H635 H 0.78871 0.30562 0.56087 0.0
H636 H 0.84697 0.22399 0.63408 0.0
H637 H 0.8159 0.1928 0.56383 0.0
H638 H 0.68454 0.27245 0.50478 0.0
H639 H 0.68056 0.29258 0.44922 0.0
H640 H 0.71127 0.30951 0.50317 0.0
H641 H 0.78547 0.31499 0.4661 0.0
H642 H 0.75458 0.29885 0.41156 0.0
H643 H 0.80833 0.28193 0.44056 0.0
H644 H 0.77084 0.16933 0.48878 0.0
H645 H 0.72585 0.15704 0.40881 0.0
H646 H 0.69855 0.25361 0.38389 0.0
C647 C 0.79637 0.28141 0.5613 0.0
C648 C 0.82065 0.26727 0.60273 0.0
C649 C 0.82871 0.23529 0.6025 0.0
C650 C 0.81094 0.21732 0.5629 0.0
C651 C 0.78521 0.23158 0.52339 0.0
C652 C 0.7788 0.26298 0.52176 0.0
C653 C 0.74876 0.27233 0.47521 0.0
C654 C 0.70362 0.28762 0.48363 0.0
C655 C 0.77591 0.29326 0.44666 0.0
C656 C 0.73906 0.24138 0.45147 0.0
C657 C 0.75997 0.21808 0.47993 0.0
C658 C 0.75469 0.18744 0.46588 0.0
C659 C 0.72868 0.18057 0.42073 0.0
C660 C 0.70884 0.2043 0.39025 0.0
C661 C 0.71356 0.23496 0.40642 0.0
H662 H 0.68472 0.74392 0.4041 0.0
H663 H 0.7031 0.84122 0.43014 0.0
H664 H 0.74428 0.82998 0.51208 0.0
H665 H 0.66786 0.7222 0.52339 0.0
H666 H 0.69877 0.68673 0.52165 0.0
H667 H 0.66762 0.70313 0.46749 0.0
H668 H 0.74304 0.70173 0.43187 0.0
H669 H 0.77477 0.6861 0.48631 0.0
H670 H 0.79434 0.7209 0.46243 0.0
H671 H 0.78829 0.80748 0.58822 0.0
H672 H 0.82376 0.77643 0.65698 0.0
H673 H 0.77756 0.69344 0.57977 0.0
C674 C 0.69672 0.76297 0.4273 0.0
C675 C 0.69087 0.7935 0.41096 0.0
C676 C 0.70683 0.81775 0.44225 0.0
C677 C 0.7306 0.8115 0.48853 0.0
C678 C 0.73758 0.78097 0.50259 0.0
C679 C 0.72034 0.75714 0.47311 0.0
C680 C 0.73305 0.72634 0.49603 0.0
C681 C 0.68922 0.70856 0.50254 0.0
C682 C 0.76309 0.70768 0.46744 0.0
C683 C 0.7608 0.7364 0.54321 0.0
C684 C 0.76303 0.76801 0.54615 0.0
C685 C 0.78647 0.78279 0.58633 0.0
C686 C 0.80666 0.76491 0.62507 0.0
C687 C 0.80345 0.73253 0.62354 0.0
C688 C 0.78114 0.71807 0.58162 0.0
H689 H 0.31799 0.78051 0.58934 0.0
H690 H 0.20953 0.75587 0.66787 0.0
H691 H 0.16633 0.72972 0.59709 0.0
H692 H 0.24235 0.79314 0.47471 0.0
H693 H 0.28338 0.77684 0.4417 0.0
H694 H 0.30375 0.79523 0.49785 0.0
H695 H 0.34832 0.74585 0.52817 0.0
H696 H 0.3272 0.72715 0.47242 0.0
H697 H 0.31707 0.71023 0.52714 0.0
H698 H 0.13595 0.70452 0.51789 0.0
H699 H 0.11852 0.68623 0.43446 0.0
H700 H 0.24876 0.7254 0.41021 0.0
C701 C 0.28466 0.77022 0.59116 0.0
C702 C 0.2669 0.77035 0.63381 0.0
C703 C 0.22365 0.75602 0.63533 0.0
C704 C 0.19893 0.74102 0.59542 0.0
C705 C 0.21806 0.74032 0.55429 0.0
C706 C 0.25974 0.75475 0.55174 0.0
C707 C 0.27321 0.74992 0.50367 0.0
C708 C 0.27579 0.78061 0.47797 0.0
C709 C 0.31917 0.73223 0.50815 0.0
C710 C 0.23258 0.73075 0.47972 0.0
C711 C 0.20111 0.72533 0.50935 0.0
C712 C 0.16039 0.7086 0.49428 0.0
C713 C 0.15092 0.69804 0.44704 0.0
C714 C 0.18211 0.70437 0.41573 0.0
C715 C 0.22397 0.7202 0.43306 0.0
H716 H 0.23196 0.22564 0.09992 0.0
H717 H 0.27328 0.32037 0.0866 0.0
H718 H 0.32329 0.30518 0.03105 0.0
H719 H 0.34551 0.19066 0.08438 0.0
H720 H 0.31716 0.15969 0.04896 0.0
H721 H 0.29033 0.17651 0.09488 0.0
H722 H 0.21558 0.18784 0.03349 0.0
H723 H 0.24182 0.1703 0.98812 0.0
H724 H 0.22024 0.20887 0.98032 0.0
H725 H 0.36062 0.28259 0.97078 0.0
H726 H 0.3722 0.25451 0.89924 0.0
H727 H 0.30913 0.17402 0.94954 0.0
C728 C 0.25187 0.24308 0.08559 0.0
C729 C 0.24866 0.27411 0.09794 0.0
C730 C 0.27485 0.29635 0.07787 0.0
C731 C 0.30415 0.28797 0.04676 0.0
C732 C 0.30709 0.25725 0.03579 0.0
C733 C 0.28121 0.23513 0.05388 0.0
C734 C 0.28588 0.20448 0.03077 0.0
C735 C 0.31124 0.18148 0.06692 0.0
C736 C 0.23806 0.19218 0.00673 0.0
C737 C 0.31576 0.21349 0.99481 0.0
C738 C 0.32903 0.24382 0.99969 0.0
C739 C 0.35145 0.25863 0.96702 0.0
C740 C 0.35784 0.2426 0.92654 0.0
C741 C 0.34163 0.21226 0.91935 0.0
C742 C 0.32287 0.19699 0.95506 0.0
H743 H 0.68492 0.19832 0.03646 0.0
H744 H 0.66266 0.28174 0.11142 0.0
H745 H 0.68695 0.31219 0.04774 0.0
H746 H 0.78522 0.21894 0.00557 0.0
H747 H 0.77634 0.20229 0.94701 0.0
H748 H 0.74705 0.18653 0.99169 0.0
H749 H 0.66687 0.19401 0.93758 0.0
H750 H 0.69593 0.20861 0.8917 0.0
H751 H 0.65149 0.23099 0.91173 0.0
H752 H 0.72806 0.33259 0.98634 0.0
H753 H 0.76977 0.343 0.9206 0.0
H754 H 0.76554 0.24613 0.8858 0.0
C755 C 0.68302 0.223 0.03834 0.0
C756 C 0.67225 0.23774 0.07877 0.0
C757 C 0.67108 0.27007 0.08065 0.0
C758 C 0.68486 0.28755 0.04476 0.0
C759 C 0.69894 0.27225 0.00721 0.0
C760 C 0.69685 0.24077 1.00292 0.0
C761 C 0.71795 0.22991 0.96136 0.0
C762 C 0.75907 0.20814 0.97741 0.0
C763 C 0.68084 0.21501 0.92333 0.0
C764 C 0.73411 0.26008 0.94451 0.0
C765 C 0.72261 0.28419 0.97127 0.0
C766 C 0.73626 0.31404 0.96424 0.0
C767 C 0.76045 0.31962 0.92719 0.0
C768 C 0.77057 0.29539 0.89775 0.0
C769 C 0.75816 0.26518 0.90744 0.0
H770 H 0.78893 0.74455 0.91659 0.0
H771 H 0.80393 0.64819 0.95304 0.0
H772 H 0.76898 0.65763 0.02417 0.0
H773 H 0.81118 0.77439 0.03777 0.0
H774 H 0.76884 0.80432 0.02285 0.0
H775 H 0.79967 0.78987 0.97842 0.0
H776 H 0.72068 0.77842 0.92393 0.0
H777 H 0.6896 0.79172 0.9689 0.0
H778 H 0.67942 0.75369 0.94509 0.0
H779 H 0.72642 0.67705 0.08709 0.0
H780 H 0.69078 0.70651 0.14471 0.0
H781 H 0.70146 0.78927 0.06327 0.0
C782 C 0.78588 0.72544 0.93994 0.0
C783 C 0.79875 0.69559 0.92908 0.0
C784 C 0.79427 0.67129 0.96072 0.0
C785 C 0.77411 0.67636 1.00092 0.0
C786 C 0.75899 0.70578 0.0087 0.0
C787 C 0.76554 0.72999 0.97963 0.0
C788 C 0.74529 0.75926 0.9948 0.0
C789 C 0.78352 0.78337 0.00935 0.0
C790 C 0.70645 0.77147 0.95585 0.0
C791 C 0.72603 0.74773 0.03698 0.0
C792 C 0.73405 0.71683 0.04435 0.0
C793 C 0.72015 0.70129 0.08187 0.0
C794 C 0.69966 0.71818 0.11413 0.0
C795 C 0.69351 0.75021 0.10849 0.0
C796 C 0.70525 0.76482 0.06837 0.0
H797 H 0.23152 0.69574 0.07978 0.0
H798 H 0.23476 0.77887 0.16345 0.0
H799 H 0.28477 0.80327 0.11356 0.0
H800 H 0.35022 0.70011 0.05768 0.0
H801 H 0.33458 0.68635 0.99755 0.0
H802 H 0.30189 0.67424 0.04207 0.0
H803 H 0.22535 0.69377 0.99048 0.0
H804 H 0.25767 0.70473 0.94533 0.0
H805 H 0.22253 0.73258 0.96892 0.0
H806 H 0.33232 0.81917 0.05387 0.0
H807 H 0.35767 0.82943 0.97783 0.0
H808 H 0.32394 0.73584 0.93375 0.0
C809 C 0.24258 0.71911 0.08757 0.0
C810 C 0.22937 0.73529 0.12563 0.0
C811 C 0.24423 0.76598 0.13432 0.0
C812 C 0.27334 0.7799 0.10674 0.0
C813 C 0.28721 0.76285 0.07072 0.0
C814 C 0.27148 0.73339 0.0604 0.0
C815 C 0.28758 0.72111 0.0168 0.0
C816 C 0.32053 0.69384 0.0293 0.0
C817 C 0.24581 0.71258 0.97811 0.0
C818 C 0.31328 0.74876 1.00311 0.0
C819 C 0.31397 0.77226 0.03551 0.0
C820 C 0.33222 0.80094 0.02829 0.0
C821 C 0.34669 0.80651 0.98501 0.0
C822 C 0.34171 0.7836 0.94943 0.0
C823 C 0.32804 0.75384 0.96015 0.0
loop_
_geom_bond_atom_site_label_1
_geom_bond_atom_site_label_2
_geom_bond_distance
_geom_bond_site_symmetry_2
_ccdc_geom_bond_type
Sc0 O3 2.025 . S
Sc0 O10 2.105 . S
Sc0 O13 2.105 . S
Sc0 O16 2.105 . S
Sc0 O19 2.105 . S
Sc1 O3 2.025 . S
Sc1 O11 2.105 . S
Sc1 O15 2.105 . S
Sc1 O17 2.105 . S
Sc1 O21 2.105 . S
Sc2 O3 2.025 . S
Sc2 O12 2.105 . S
Sc2 O14 2.105 . S
Sc2 O18 2.105 . S
Sc2 O20 2.105 . S
O3 Sc0 2.025 . S
O3 Sc1 2.025 . S
O3 Sc2 2.025 . S
C4 O10 1.268 . S
C4 O20 1.268 . S
C5 O11 1.268 . S
C5 O19 1.268 . S
C6 O12 1.268 . S
C6 O21 1.268 . S
C7 O13 1.268 . S
C7 O17 1.268 . S
C8 O14 1.268 . S
C8 O16 1.268 . S
C9 O15 1.268 . S
C9 O18 1.268 . S
O10 Sc0 2.105 . S
O10 C4 1.268 . S
O11 Sc1 2.105 . S
O11 C5 1.268 . S
O12 Sc2 2.105 . S
O12 C6 1.268 . S
O13 Sc0 2.105 . S
O13 C7 1.268 . S
O14 Sc2 2.105 . S
O14 C8 1.268 . S
O15 Sc1 2.105 . S
O15 C9 1.268 . S
O16 Sc0 2.105 . S
O16 C8 1.268 . S
O17 Sc1 2.105 . S
O17 C7 1.268 . S
O18 Sc2 2.105 . S
O18 C9 1.268 . S
O19 Sc0 2.105 . S
O19 C5 1.268 . S
O20 Sc2 2.105 . S
O20 C4 1.268 . S
O21 Sc1 2.105 . S
O21 C6 1.268 . S
Sc22 O25 2.025 . S
Sc22 O32 2.105 . S
Sc22 O35 2.105 . S
Sc22 O38 2.105 . S
Sc22 O41 2.105 . S
Sc23 O25 2.025 . S
Sc23 O33 2.105 . S
Sc23 O37 2.105 . S
Sc23 O39 2.105 . S
Sc23 O43 2.105 . S
Sc24 O25 2.025 . S
Sc24 O34 2.105 . S
Sc24 O36 2.105 . S
Sc24 O40 2.105 . S
Sc24 O42 2.105 . S
O25 Sc22 2.025 . S
O25 Sc23 2.025 . S
O25 Sc24 2.025 . S
C26 O32 1.268 . S
C26 O42 1.268 . S
C27 O33 1.268 . S
C27 O41 1.268 . S
C28 O34 1.268 . S
C28 O43 1.268 . S
C29 O35 1.268 . S
C29 O39 1.268 . S
C30 O36 1.268 . S
C30 O38 1.268 . S
C31 O37 1.268 . S
C31 O40 1.268 . S
O32 Sc22 2.105 . S
O32 C26 1.268 . S
O33 Sc23 2.105 . S
O33 C27 1.268 . S
O34 Sc24 2.105 . S
O34 C28 1.268 . S
O35 Sc22 2.105 . S
O35 C29 1.268 . S
O36 Sc24 2.105 . S
O36 C30 1.268 . S
O37 Sc23 2.105 . S
O37 C31 1.268 . S
O38 Sc22 2.105 . S
O38 C30 1.268 . S
O39 Sc23 2.105 . S
O39 C29 1.268 . S
O40 Sc24 2.105 . S
O40 C31 1.268 . S
O41 Sc22 2.105 . S
O41 C27 1.268 . S
O42 Sc24 2.105 . S
O42 C26 1.268 . S
O43 Sc23 2.105 . S
O43 C28 1.268 . S
Sc44 O47 2.025 . S
Sc44 O54 2.105 . S
Sc44 O57 2.105 . S
Sc44 O60 2.105 . S
Sc44 O63 2.105 . S
Sc45 O47 2.025 . S
Sc45 O55 2.105 . S
Sc45 O59 2.105 . S
Sc45 O61 2.105 . S
Sc45 O65 2.105 . S
Sc46 O47 2.025 . S
Sc46 O56 2.105 . S
Sc46 O58 2.105 . S
Sc46 O62 2.105 . S
Sc46 O64 2.105 . S
O47 Sc44 2.025 . S
O47 Sc45 2.025 . S
O47 Sc46 2.025 . S
C48 O54 1.268 . S
C48 O64 1.268 . S
C49 O55 1.268 . S
C49 O63 1.268 . S
C50 O56 1.268 . S
C50 O65 1.268 . S
C51 O57 1.268 . S
C51 O61 1.268 . S
C52 O58 1.268 . S
C52 O60 1.268 . S
C53 O59 1.268 . S
C53 O62 1.268 . S
O54 Sc44 2.105 . S
O54 C48 1.268 . S
O55 Sc45 2.105 . S
O55 C49 1.268 . S
O56 Sc46 2.105 . S
O56 C50 1.268 . S
O57 Sc44 2.105 . S
O57 C51 1.268 . S
O58 Sc46 2.105 . S
O58 C52 1.268 . S
O59 Sc45 2.105 . S
O59 C53 1.268 . S
O60 Sc44 2.105 . S
O60 C52 1.268 . S
O61 Sc45 2.105 . S
O61 C51 1.268 . S
O62 Sc46 2.105 . S
O62 C53 1.268 . S
O63 Sc44 2.105 . S
O63 C49 1.268 . S
O64 Sc46 2.105 . S
O64 C48 1.268 . S
O65 Sc45 2.105 . S
O65 C50 1.268 . S
Sc66 O69 2.025 . S
Sc66 O76 2.105 . S
Sc66 O79 2.105 . S
Sc66 O82 2.105 . S
Sc66 O85 2.105 . S
Sc67 O69 2.025 . S
Sc67 O77 2.105 . S
Sc67 O81 2.105 . S
Sc67 O83 2.105 . S
Sc67 O87 2.105 . S
Sc68 O69 2.025 . S
Sc68 O78 2.105 . S
Sc68 O80 2.105 . S
Sc68 O84 2.105 . S
Sc68 O86 2.105 . S
O69 Sc66 2.025 . S
O69 Sc67 2.025 . S
O69 Sc68 2.025 . S
C70 O76 1.268 . S
C70 O86 1.268 . S
C71 O77 1.268 . S
C71 O85 1.268 . S
C72 O78 1.268 . S
C72 O87 1.268 . S
C73 O79 1.268 . S
C73 O83 1.268 . S
C74 O80 1.268 . S
C74 O82 1.268 . S
C75 O81 1.268 . S
C75 O84 1.268 . S
O76 Sc66 2.105 . S
O76 C70 1.268 . S
O77 Sc67 2.105 . S
O77 C71 1.268 . S
O78 Sc68 2.105 . S
O78 C72 1.268 . S
O79 Sc66 2.105 . S
O79 C73 1.268 . S
O80 Sc68 2.105 . S
O80 C74 1.268 . S
O81 Sc67 2.105 . S
O81 C75 1.268 . S
O82 Sc66 2.105 . S
O82 C74 1.268 . S
O83 Sc67 2.105 . S
O83 C73 1.268 . S
O84 Sc68 2.105 . S
O84 C75 1.268 . S
O85 Sc66 2.105 . S
O85 C71 1.268 . S
O86 Sc68 2.105 . S
O86 C70 1.268 . S
O87 Sc67 2.105 . S
O87 C72 1.268 . S
Sc88 O91 2.025 . S
Sc88 O98 2.105 . S
Sc88 O101 2.105 . S
Sc88 O104 2.105 . S
Sc88 O107 2.105 . S
Sc89 O91 2.025 . S
Sc89 O99 2.105 . S
Sc89 O103 2.105 . S
Sc89 O105 2.105 . S
Sc89 O109 2.105 . S
Sc90 O91 2.025 . S
Sc90 O100 2.105 . S
Sc90 O102 2.105 . S
Sc90 O106 2.105 . S
Sc90 O108 2.105 . S
O91 Sc88 2.025 . S
O91 Sc89 2.025 . S
O91 Sc90 2.025 . S
C92 O98 1.268 . S
C92 O108 1.268 . S
C93 O99 1.268 . S
C93 O107 1.268 . S
C94 O100 1.268 . S
C94 O109 1.268 . S
C95 O101 1.268 . S
C95 O105 1.268 . S
C96 O102 1.268 . S
C96 O104 1.268 . S
C97 O103 1.268 . S
C97 O106 1.268 . S
O98 Sc88 2.105 . S
O98 C92 1.268 . S
O99 Sc89 2.105 . S
O99 C93 1.268 . S
O100 Sc90 2.105 . S
O100 C94 1.268 . S
O101 Sc88 2.105 . S
O101 C95 1.268 . S
O102 Sc90 2.105 . S
O102 C96 1.268 . S
O103 Sc89 2.105 . S
O103 C97 1.268 . S
O104 Sc88 2.105 . S
O104 C96 1.268 . S
O105 Sc89 2.105 . S
O105 C95 1.268 . S
O106 Sc90 2.105 . S
O106 C97 1.268 . S
O107 Sc88 2.105 . S
O107 C93 1.268 . S
O108 Sc90 2.105 . S
O108 C92 1.268 . S
O109 Sc89 2.105 . S
O109 C94 1.268 . S
Sc110 O113 2.025 . S
Sc110 O120 2.105 . S
Sc110 O123 2.105 . S
Sc110 O126 2.105 . S
Sc110 O129 2.105 . S
Sc111 O113 2.025 . S
Sc111 O121 2.105 . S
Sc111 O125 2.105 . S
Sc111 O127 2.105 . S
Sc111 O131 2.105 . S
Sc112 O113 2.025 . S
Sc112 O122 2.105 . S
Sc112 O124 2.105 . S
Sc112 O128 2.105 . S
Sc112 O130 2.105 . S
O113 Sc110 2.025 . S
O113 Sc111 2.025 . S
O113 Sc112 2.025 . S
C114 O120 1.268 . S
C114 O130 1.268 . S
C115 O121 1.268 . S
C115 O129 1.268 . S
C116 O122 1.268 . S
C116 O131 1.268 . S
C117 O123 1.268 . S
C117 O127 1.268 . S
C118 O124 1.268 . S
C118 O126 1.268 . S
C119 O125 1.268 . S
C119 O128 1.268 . S
O120 Sc110 2.105 . S
O120 C114 1.268 . S
O121 Sc111 2.105 . S
O121 C115 1.268 . S
O122 Sc112 2.105 . S
O122 C116 1.268 . S
O123 Sc110 2.105 . S
O123 C117 1.268 . S
O124 Sc112 2.105 . S
O124 C118 1.268 . S
O125 Sc111 2.105 . S
O125 C119 1.268 . S
O126 Sc110 2.105 . S
O126 C118 1.268 . S
O127 Sc111 2.105 . S
O127 C117 1.268 . S
O128 Sc112 2.105 . S
O128 C119 1.268 . S
O129 Sc110 2.105 . S
O129 C115 1.268 . S
O130 Sc112 2.105 . S
O130 C114 1.268 . S
O131 Sc111 2.105 . S
O131 C116 1.268 . S
Sc132 O135 2.025 . S
Sc132 O142 2.105 . S
Sc132 O145 2.105 . S
Sc132 O148 2.105 . S
Sc132 O151 2.105 . S
Sc133 O135 2.025 . S
Sc133 O143 2.105 . S
Sc133 O147 2.105 . S
Sc133 O149 2.105 . S
Sc133 O153 2.105 . S
Sc134 O135 2.025 . S
Sc134 O144 2.105 . S
Sc134 O146 2.105 . S
Sc134 O150 2.105 . S
Sc134 O152 2.105 . S
O135 Sc132 2.025 . S
O135 Sc133 2.025 . S
O135 Sc134 2.025 . S
C136 O142 1.268 . S
C136 O152 1.268 . S
C137 O143 1.268 . S
C137 O151 1.268 . S
C138 O144 1.268 . S
C138 O153 1.268 . S
C139 O145 1.268 . S
C139 O149 1.268 . S
C140 O146 1.268 . S
C140 O148 1.268 . S
C141 O147 1.268 . S
C141 O150 1.268 . S
O142 Sc132 2.105 . S
O142 C136 1.268 . S
O143 Sc133 2.105 . S
O143 C137 1.268 . S
O144 Sc134 2.105 . S
O144 C138 1.268 . S
O145 Sc132 2.105 . S
O145 C139 1.268 . S
O146 Sc134 2.105 . S
O146 C140 1.268 . S
O147 Sc133 2.105 . S
O147 C141 1.268 . S
O148 Sc132 2.105 . S
O148 C140 1.268 . S
O149 Sc133 2.105 . S
O149 C139 1.268 . S
O150 Sc134 2.105 . S
O150 C141 1.268 . S
O151 Sc132 2.105 . S
O151 C137 1.268 . S
O152 Sc134 2.105 . S
O152 C136 1.268 . S
O153 Sc133 2.105 . S
O153 C138 1.268 . S
Sc154 O157 2.025 . S
Sc154 O164 2.105 . S
Sc154 O167 2.105 . S
Sc154 O170 2.105 . S
Sc154 O173 2.105 . S
Sc155 O157 2.025 . S
Sc155 O165 2.105 . S
Sc155 O169 2.105 . S
Sc155 O171 2.105 . S
Sc155 O175 2.105 . S
Sc156 O157 2.025 . S
Sc156 O166 2.105 . S
Sc156 O168 2.105 . S
Sc156 O172 2.105 . S
Sc156 O174 2.105 . S
O157 Sc154 2.025 . S
O157 Sc155 2.025 . S
O157 Sc156 2.025 . S
C158 O164 1.268 . S
C158 O174 1.268 . S
C159 O165 1.268 . S
C159 O173 1.268 . S
C160 O166 1.268 . S
C160 O175 1.268 . S
C161 O167 1.268 . S
C161 O171 1.268 . S
C162 O168 1.268 . S
C162 O170 1.268 . S
C163 O169 1.268 . S
C163 O172 1.268 . S
O164 Sc154 2.105 . S
O164 C158 1.268 . S
O165 Sc155 2.105 . S
O165 C159 1.268 . S
O166 Sc156 2.105 . S
O166 C160 1.268 . S
O167 Sc154 2.105 . S
O167 C161 1.268 . S
O168 Sc156 2.105 . S
O168 C162 1.268 . S
O169 Sc155 2.105 . S
O169 C163 1.268 . S
O170 Sc154 2.105 . S
O170 C162 1.268 . S
O171 Sc155 2.105 . S
O171 C161 1.268 . S
O172 Sc156 2.105 . S
O172 C163 1.268 . S
O173 Sc154 2.105 . S
O173 C159 1.268 . S
O174 Sc156 2.105 . S
O174 C158 1.268 . S
O175 Sc155 2.105 . S
O175 C160 1.268 . S
H176 C188 0.930 . S
H177 C190 0.930 . S
H178 C191 0.930 . S
H179 C195 0.959 . S
H180 C195 0.959 . S
H181 C195 0.961 . S
H182 C196 0.960 . S
H183 C196 0.961 . S
H184 C196 0.959 . S
H185 C199 0.929 . S
H186 C200 0.931 . S
H187 C202 0.930 . S
C188 H176 0.930 . S
C188 C189 1.399 . S
C188 C193 1.399 . S
C189 C188 1.399 . S
C189 C190 1.376 . S
C190 H177 0.930 . S
C190 C189 1.376 . S
C190 C191 1.388 . S
C191 H178 0.930 . S
C191 C190 1.388 . S
C191 C192 1.390 . S
C192 C191 1.390 . S
C192 C193 1.394 . S
C192 C198 1.465 . S
C193 C188 1.399 . S
C193 C192 1.394 . S
C193 C194 1.516 . S
C194 C193 1.516 . S
C194 C195 1.502 . S
C194 C196 1.561 . S
C194 C197 1.526 . S
C195 H179 0.959 . S
C195 H180 0.959 . S
C195 H181 0.961 . S
C195 C194 1.502 . S
C196 H182 0.960 . S
C196 H183 0.961 . S
C196 H184 0.959 . S
C196 C194 1.561 . S
C197 C194 1.526 . S
C197 C198 1.396 . S
C197 C202 1.390 . S
C198 C192 1.465 . S
C198 C197 1.396 . S
C198 C199 1.399 . S
C199 H185 0.929 . S
C199 C198 1.399 . S
C199 C200 1.385 . S
C200 H186 0.931 . S
C200 C199 1.385 . S
C200 C201 1.389 . S
C201 C200 1.389 . S
C201 C202 1.387 . S
C202 H187 0.930 . S
C202 C197 1.390 . S
C202 C201 1.387 . S
H203 C215 0.930 . S
H204 C217 0.930 . S
H205 C218 0.930 . S
H206 C222 0.959 . S
H207 C222 0.959 . S
H208 C222 0.961 . S
H209 C223 0.960 . S
H210 C223 0.961 . S
H211 C223 0.959 . S
H212 C226 0.929 . S
H213 C227 0.931 . S
H214 C229 0.930 . S
C215 H203 0.930 . S
C215 C216 1.399 . S
C215 C220 1.399 . S
C216 C215 1.399 . S
C216 C217 1.376 . S
C217 H204 0.930 . S
C217 C216 1.376 . S
C217 C218 1.388 . S
C218 H205 0.930 . S
C218 C217 1.388 . S
C218 C219 1.390 . S
C219 C218 1.390 . S
C219 C220 1.394 . S
C219 C225 1.465 . S
C220 C215 1.399 . S
C220 C219 1.394 . S
C220 C221 1.516 . S
C221 C220 1.516 . S
C221 C222 1.502 . S
C221 C223 1.561 . S
C221 C224 1.526 . S
C222 H206 0.959 . S
C222 H207 0.959 . S
C222 H208 0.961 . S
C222 C221 1.502 . S
C223 H209 0.960 . S
C223 H210 0.961 . S
C223 H211 0.959 . S
C223 C221 1.561 . S
C224 C221 1.526 . S
C224 C225 1.396 . S
C224 C229 1.390 . S
C225 C219 1.465 . S
C225 C224 1.396 . S
C225 C226 1.399 . S
C226 H212 0.929 . S
C226 C225 1.399 . S
C226 C227 1.385 . S
C227 H213 0.931 . S
C227 C226 1.385 . S
C227 C228 1.389 . S
C228 C227 1.389 . S
C228 C229 1.387 . S
C229 H214 0.930 . S
C229 C224 1.390 . S
C229 C228 1.387 . S
H230 C242 0.930 . S
H231 C244 0.930 . S
H232 C245 0.930 . S
H233 C249 0.959 . S
H234 C249 0.959 . S
H235 C249 0.961 . S
H236 C250 0.960 . S
H237 C250 0.961 . S
H238 C250 0.959 . S
H239 C253 0.929 . S
H240 C254 0.931 . S
H241 C256 0.930 . S
C242 H230 0.930 . S
C242 C243 1.399 . S
C242 C247 1.399 . S
C243 C242 1.399 . S
C243 C244 1.376 . S
C244 H231 0.930 . S
C244 C243 1.376 . S
C244 C245 1.388 . S
C245 H232 0.930 . S
C245 C244 1.388 . S
C245 C246 1.390 . S
C246 C245 1.390 . S
C246 C247 1.394 . S
C246 C252 1.465 . S
C247 C242 1.399 . S
C247 C246 1.394 . S
C247 C248 1.516 . S
C248 C247 1.516 . S
C248 C249 1.502 . S
C248 C250 1.561 . S
C248 C251 1.526 . S
C249 H233 0.959 . S
C249 H234 0.959 . S
C249 H235 0.961 . S
C249 C248 1.502 . S
C250 H236 0.960 . S
C250 H237 0.961 . S
C250 H238 0.959 . S
C250 C248 1.561 . S
C251 C248 1.526 . S
C251 C252 1.396 . S
C251 C256 1.390 . S
C252 C246 1.465 . S
C252 C251 1.396 . S
C252 C253 1.399 . S
C253 H239 0.929 . S
C253 C252 1.399 . S
C253 C254 1.385 . S
C254 H240 0.931 . S
C254 C253 1.385 . S
C254 C255 1.389 . S
C255 C254 1.389 . S
C255 C256 1.387 . S
C256 H241 0.930 . S
C256 C251 1.390 . S
C256 C255 1.387 . S
H257 C269 0.930 . S
H258 C271 0.930 . S
H259 C272 0.930 . S
H260 C276 0.959 . S
H261 C276 0.959 . S
H262 C276 0.961 . S
H263 C277 0.960 . S
H264 C277 0.961 . S
H265 C277 0.959 . S
H266 C280 0.929 . S
H267 C281 0.931 . S
H268 C283 0.930 . S
C269 H257 0.930 . S
C269 C270 1.399 . S
C269 C274 1.399 . S
C270 C269 1.399 . S
C270 C271 1.376 . S
C271 H258 0.930 . S
C271 C270 1.376 . S
C271 C272 1.388 . S
C272 H259 0.930 . S
C272 C271 1.388 . S
C272 C273 1.390 . S
C273 C272 1.390 . S
C273 C274 1.394 . S
C273 C279 1.465 . S
C274 C269 1.399 . S
C274 C273 1.394 . S
C274 C275 1.516 . S
C275 C274 1.516 . S
C275 C276 1.502 . S
C275 C277 1.561 . S
C275 C278 1.526 . S
C276 H260 0.959 . S
C276 H261 0.959 . S
C276 H262 0.961 . S
C276 C275 1.502 . S
C277 H263 0.960 . S
C277 H264 0.961 . S
C277 H265 0.959 . S
C277 C275 1.561 . S
C278 C275 1.526 . S
C278 C279 1.396 . S
C278 C283 1.390 . S
C279 C273 1.465 . S
C279 C278 1.396 . S
C279 C280 1.399 . S
C280 H266 0.929 . S
C280 C279 1.399 . S
C280 C281 1.385 . S
C281 H267 0.931 . S
C281 C280 1.385 . S
C281 C282 1.389 . S
C282 C281 1.389 . S
C282 C283 1.387 . S
C283 H268 0.930 . S
C283 C278 1.390 . S
C283 C282 1.387 . S
H284 C296 0.930 . S
H285 C298 0.930 . S
H286 C299 0.930 . S
H287 C303 0.959 . S
H288 C303 0.959 . S
H289 C303 0.961 . S
H290 C304 0.960 1_455 S
H291 C304 0.961 . S
H292 C304 0.959 . S
H293 C307 0.929 . S
H294 C308 0.931 . S
H295 C310 0.930 . S
C296 H284 0.930 . S
C296 C297 1.399 . S
C296 C301 1.399 . S
C297 C296 1.399 . S
C297 C298 1.376 . S
C298 H285 0.930 . S
C298 C297 1.376 . S
C298 C299 1.388 . S
C299 H286 0.930 . S
C299 C298 1.388 . S
C299 C300 1.390 . S
C300 C299 1.390 . S
C300 C301 1.394 . S
C300 C306 1.465 1_455 S
C301 C296 1.399 . S
C301 C300 1.394 . S
C301 C302 1.516 1_455 S
C302 C301 1.516 1_655 S
C302 C303 1.502 . S
C302 C304 1.561 . S
C302 C305 1.526 . S
C303 H287 0.959 . S
C303 H288 0.959 . S
C303 H289 0.961 . S
C303 C302 1.502 . S
C304 H290 0.960 1_655 S
C304 H291 0.961 . S
C304 H292 0.959 . S
C304 C302 1.561 . S
C305 C302 1.526 . S
C305 C306 1.396 . S
C305 C310 1.390 . S
C306 C300 1.465 1_655 S
C306 C305 1.396 . S
C306 C307 1.399 . S
C307 H293 0.929 . S
C307 C306 1.399 . S
C307 C308 1.385 . S
C308 H294 0.931 . S
C308 C307 1.385 . S
C308 C309 1.389 . S
C309 C308 1.389 . S
C309 C310 1.387 . S
C310 H295 0.930 . S
C310 C305 1.390 . S
C310 C309 1.387 . S
H311 C323 0.930 . S
H312 C325 0.930 . S
H313 C326 0.930 . S
H314 C330 0.959 . S
H315 C330 0.959 . S
H316 C330 0.961 . S
H317 C331 0.963 . S
H318 C331 0.961 . S
H319 C331 0.959 . S
H320 C334 0.929 . S
H321 C335 0.931 . S
H322 C337 0.930 . S
C323 H311 0.930 . S
C323 C324 1.399 . S
C323 C328 1.399 . S
C324 C323 1.399 . S
C324 C325 1.376 . S
C325 H312 0.930 . S
C325 C324 1.376 . S
C325 C326 1.388 . S
C326 H313 0.930 . S
C326 C325 1.388 . S
C326 C327 1.390 . S
C327 C326 1.390 . S
C327 C328 1.394 . S
C327 C333 1.465 1_655 S
C328 C323 1.399 . S
C328 C327 1.394 . S
C328 C329 1.516 1_655 S
C329 C328 1.516 1_455 S
C329 C330 1.502 . S
C329 C331 1.561 . S
C329 C332 1.526 . S
C330 H314 0.959 . S
C330 H315 0.959 . S
C330 H316 0.961 . S
C330 C329 1.502 . S
C331 H317 0.963 . S
C331 H318 0.961 . S
C331 H319 0.959 . S
C331 C329 1.561 . S
C332 C329 1.526 . S
C332 C333 1.396 . S
C332 C337 1.390 . S
C333 C327 1.465 1_455 S
C333 C332 1.396 . S
C333 C334 1.399 . S
C334 H320 0.929 . S
C334 C333 1.399 . S
C334 C335 1.385 . S
C335 H321 0.931 . S
C335 C334 1.385 . S
C335 C336 1.389 . S
C336 C335 1.389 . S
C336 C337 1.387 . S
C337 H322 0.930 . S
C337 C332 1.390 . S
C337 C336 1.387 . S
H338 C350 0.930 . S
H339 C352 0.930 . S
H340 C353 0.923 1_455 S
H341 C357 0.959 . S
H342 C357 0.959 1_455 S
H343 C357 0.961 . S
H344 C358 0.960 1_655 S
H345 C358 0.961 . S
H346 C358 0.959 . S
H347 C361 0.929 . S
H348 C362 0.931 . S
H349 C364 0.930 . S
C350 H338 0.930 . S
C350 C351 1.399 . S
C350 C355 1.399 . S
C351 C350 1.399 . S
C351 C352 1.376 . S
C352 H339 0.930 . S
C352 C351 1.376 . S
C352 C353 1.388 . S
C353 H340 0.923 1_655 S
C353 C352 1.388 . S
C353 C354 1.390 1_655 S
C354 C353 1.390 1_455 S
C354 C355 1.394 1_455 S
C354 C360 1.465 . S
C355 C350 1.399 . S
C355 C354 1.394 1_655 S
C355 C356 1.516 1_655 S
C356 C355 1.516 1_455 S
C356 C357 1.502 1_455 S
C356 C358 1.561 . S
C356 C359 1.526 . S
C357 H341 0.959 . S
C357 H342 0.959 1_655 S
C357 H343 0.961 . S
C357 C356 1.502 1_655 S
C358 H344 0.960 1_455 S
C358 H345 0.961 . S
C358 H346 0.959 . S
C358 C356 1.561 . S
C359 C356 1.526 . S
C359 C360 1.396 . S
C359 C364 1.390 . S
C360 C354 1.465 . S
C360 C359 1.396 . S
C360 C361 1.399 . S
C361 H347 0.929 . S
C361 C360 1.399 . S
C361 C362 1.385 . S
C362 H348 0.931 . S
C362 C361 1.385 . S
C362 C363 1.389 . S
C363 C362 1.389 . S
C363 C364 1.387 . S
C364 H349 0.930 . S
C364 C359 1.390 . S
C364 C363 1.387 . S
H365 C377 0.930 . S
H366 C379 0.930 . S
H367 C380 0.930 1_655 S
H368 C384 0.959 . S
H369 C384 0.959 1_655 S
H370 C384 0.961 . S
H371 C385 0.960 1_455 S
H372 C385 0.961 . S
H373 C385 0.959 . S
H374 C388 0.929 . S
H375 C389 0.931 . S
H376 C391 0.930 . S
C377 H365 0.930 . S
C377 C378 1.399 . S
C377 C382 1.399 . S
C378 C377 1.399 . S
C378 C379 1.376 . S
C379 H366 0.930 . S
C379 C378 1.376 . S
C379 C380 1.388 . S
C380 H367 0.930 1_455 S
C380 C379 1.388 . S
C380 C381 1.390 1_455 S
C381 C380 1.390 1_655 S
C381 C382 1.394 1_655 S
C381 C387 1.465 . S
C382 C377 1.399 . S
C382 C381 1.394 1_455 S
C382 C383 1.516 1_455 S
C383 C382 1.516 1_655 S
C383 C384 1.502 1_655 S
C383 C385 1.561 . S
C383 C386 1.526 . S
C384 H368 0.959 . S
C384 H369 0.959 1_455 S
C384 H370 0.961 . S
C384 C383 1.502 1_455 S
C385 H371 0.960 1_655 S
C385 H372 0.961 . S
C385 H373 0.959 . S
C385 C383 1.561 . S
C386 C383 1.526 . S
C386 C387 1.396 . S
C386 C391 1.390 . S
C387 C381 1.465 . S
C387 C386 1.396 . S
C387 C388 1.399 . S
C388 H374 0.929 . S
C388 C387 1.399 . S
C388 C389 1.385 . S
C389 H375 0.931 . S
C389 C388 1.385 . S
C389 C390 1.389 . S
C390 C389 1.389 . S
C390 C391 1.387 . S
C391 H376 0.930 . S
C391 C386 1.390 . S
C391 C390 1.387 . S
H392 C404 0.930 . S
H393 C406 0.930 . S
H394 C407 0.920 1_455 S
H395 C411 0.959 . S
H396 C411 0.959 . S
H397 C411 0.961 . S
H398 C412 0.960 1_655 S
H399 C412 0.961 1_554 S
H400 C412 0.959 . S
H401 C415 0.929 . S
H402 C416 0.931 . S
H403 C418 0.930 . S
C404 H392 0.930 . S
C404 C405 1.399 . S
C404 C409 1.399 . S
C405 C404 1.399 . S
C405 C406 1.376 . S
C406 H393 0.930 . S
C406 C405 1.376 . S
C406 C407 1.388 . S
C407 H394 0.920 1_655 S
C407 C406 1.388 . S
C407 C408 1.390 . S
C408 C407 1.390 . S
C408 C409 1.394 . S
C408 C414 1.465 1_656 S
C409 C404 1.399 . S
C409 C408 1.394 . S
C409 C410 1.516 1_556 S
C410 C409 1.516 1_554 S
C410 C411 1.502 . S
C410 C412 1.561 1_654 S
C410 C413 1.526 1_655 S
C411 H395 0.959 . S
C411 H396 0.959 . S
C411 H397 0.961 . S
C411 C410 1.502 . S
C412 H398 0.960 1_455 S
C412 H399 0.961 1_556 S
C412 H400 0.959 . S
C412 C410 1.561 1_456 S
C413 C410 1.526 1_455 S
C413 C414 1.396 . S
C413 C418 1.390 . S
C414 C408 1.465 1_454 S
C414 C413 1.396 . S
C414 C415 1.399 . S
C415 H401 0.929 . S
C415 C414 1.399 . S
C415 C416 1.385 . S
C416 H402 0.931 . S
C416 C415 1.385 . S
C416 C417 1.389 . S
C417 C416 1.389 . S
C417 C418 1.387 . S
C418 H403 0.930 . S
C418 C413 1.390 . S
C418 C417 1.387 . S
H419 C431 0.930 . S
H420 C433 0.930 . S
H421 C434 0.930 . S
H422 C438 0.959 . S
H423 C438 0.959 . S
H424 C438 0.961 . S
H425 C439 0.960 . S
H426 C439 0.961 1_556 S
H427 C439 0.959 . S
H428 C442 0.929 . S
H429 C443 0.931 . S
H430 C445 0.930 . S
C431 H419 0.930 . S
C431 C432 1.399 . S
C431 C436 1.399 . S
C432 C431 1.399 . S
C432 C433 1.376 . S
C433 H420 0.930 . S
C433 C432 1.376 . S
C433 C434 1.388 . S
C434 H421 0.930 . S
C434 C433 1.388 . S
C434 C435 1.390 . S
C435 C434 1.390 . S
C435 C436 1.394 . S
C435 C441 1.465 1_454 S
C436 C431 1.399 . S
C436 C435 1.394 . S
C436 C437 1.516 1_554 S
C437 C436 1.516 1_556 S
C437 C438 1.502 . S
C437 C439 1.561 1_456 S
C437 C440 1.526 1_455 S
C438 H422 0.959 . S
C438 H423 0.959 . S
C438 H424 0.961 . S
C438 C437 1.502 . S
C439 H425 0.960 . S
C439 H426 0.961 1_554 S
C439 H427 0.959 . S
C439 C437 1.561 1_654 S
C440 C437 1.526 1_655 S
C440 C441 1.396 . S
C440 C445 1.390 . S
C441 C435 1.465 1_656 S
C441 C440 1.396 . S
C441 C442 1.399 . S
C442 H428 0.929 . S
C442 C441 1.399 . S
C442 C443 1.385 . S
C443 H429 0.931 . S
C443 C442 1.385 . S
C443 C444 1.389 . S
C444 C443 1.389 . S
C444 C445 1.387 . S
C445 H430 0.930 . S
C445 C440 1.390 . S
C445 C444 1.387 . S
H446 C458 0.930 . S
H447 C460 0.930 . S
H448 C461 0.930 . S
H449 C465 0.959 . S
H450 C465 0.959 . S
H451 C465 0.961 . S
H452 C466 0.960 1_554 S
H453 C466 0.961 . S
H454 C466 0.959 . S
H455 C469 0.929 . S
H456 C470 0.931 . S
H457 C472 0.930 . S
C458 H446 0.930 . S
C458 C459 1.399 . S
C458 C463 1.399 . S
C459 C458 1.399 . S
C459 C460 1.376 . S
C460 H447 0.930 . S
C460 C459 1.376 . S
C460 C461 1.388 . S
C461 H448 0.930 . S
C461 C460 1.388 . S
C461 C462 1.390 . S
C462 C461 1.390 . S
C462 C463 1.394 . S
C462 C468 1.465 1_554 S
C463 C458 1.399 . S
C463 C462 1.394 . S
C463 C464 1.516 . S
C464 C463 1.516 . S
C464 C465 1.502 . S
C464 C466 1.561 1_554 S
C464 C467 1.526 1_554 S
C465 H449 0.959 . S
C465 H450 0.959 . S
C465 H451 0.961 . S
C465 C464 1.502 . S
C466 H452 0.960 1_556 S
C466 H453 0.961 . S
C466 H454 0.959 . S
C466 C464 1.561 1_556 S
C467 C464 1.526 1_556 S
C467 C468 1.396 . S
C467 C472 1.390 . S
C468 C462 1.465 1_556 S
C468 C467 1.396 . S
C468 C469 1.399 . S
C469 H455 0.929 . S
C469 C468 1.399 . S
C469 C470 1.385 . S
C470 H456 0.931 . S
C470 C469 1.385 . S
C470 C471 1.389 . S
C471 C470 1.389 . S
C471 C472 1.387 . S
C472 H457 0.930 . S
C472 C467 1.390 . S
C472 C471 1.387 . S
H473 C485 0.930 . S
H474 C487 0.930 . S
H475 C488 0.930 . S
H476 C492 0.959 . S
H477 C492 0.959 . S
H478 C492 0.961 . S
H479 C493 0.960 1_554 S
H480 C493 0.961 . S
H481 C493 0.959 1_554 S
H482 C496 0.929 1_554 S
H483 C497 0.931 . S
H484 C499 0.930 . S
C485 H473 0.930 . S
C485 C486 1.399 . S
C485 C490 1.399 . S
C486 C485 1.399 . S
C486 C487 1.376 . S
C487 H474 0.930 . S
C487 C486 1.376 . S
C487 C488 1.388 . S
C488 H475 0.930 . S
C488 C487 1.388 . S
C488 C489 1.390 . S
C489 C488 1.390 . S
C489 C490 1.394 . S
C489 C495 1.465 1_554 S
C490 C485 1.399 . S
C490 C489 1.394 . S
C490 C491 1.516 1_554 S
C491 C490 1.516 1_556 S
C491 C492 1.502 . S
C491 C493 1.561 . S
C491 C494 1.526 . S
C492 H476 0.959 . S
C492 H477 0.959 . S
C492 H478 0.961 . S
C492 C491 1.502 . S
C493 H479 0.960 1_556 S
C493 H480 0.961 . S
C493 H481 0.959 1_556 S
C493 C491 1.561 . S
C494 C491 1.526 . S
C494 C495 1.396 . S
C494 C499 1.390 . S
C495 C489 1.465 1_556 S
C495 C494 1.396 . S
C495 C496 1.399 . S
C496 H482 0.929 1_556 S
C496 C495 1.399 . S
C496 C497 1.385 . S
C497 H483 0.931 . S
C497 C496 1.385 . S
C497 C498 1.389 . S
C498 C497 1.389 . S
C498 C499 1.387 . S
C499 H484 0.930 . S
C499 C494 1.390 . S
C499 C498 1.387 . S
H500 C512 0.930 . S
H501 C514 0.930 . S
H502 C515 0.930 . S
H503 C519 0.959 . S
H504 C519 0.959 . S
H505 C519 0.961 . S
H506 C520 0.960 . S
H507 C520 0.961 . S
H508 C520 0.959 . S
H509 C523 0.929 . S
H510 C524 0.931 . S
H511 C526 0.930 . S
C512 H500 0.930 . S
C512 C513 1.399 . S
C512 C517 1.399 . S
C513 C512 1.399 . S
C513 C514 1.376 . S
C514 H501 0.930 . S
C514 C513 1.376 . S
C514 C515 1.388 . S
C515 H502 0.930 . S
C515 C514 1.388 . S
C515 C516 1.390 . S
C516 C515 1.390 . S
C516 C517 1.394 . S
C516 C522 1.465 . S
C517 C512 1.399 . S
C517 C516 1.394 . S
C517 C518 1.516 . S
C518 C517 1.516 . S
C518 C519 1.502 . S
C518 C520 1.561 . S
C518 C521 1.526 . S
C519 H503 0.959 . S
C519 H504 0.959 . S
C519 H505 0.961 . S
C519 C518 1.502 . S
C520 H506 0.960 . S
C520 H507 0.961 . S
C520 H508 0.959 . S
C520 C518 1.561 . S
C521 C518 1.526 . S
C521 C522 1.396 . S
C521 C526 1.390 . S
C522 C516 1.465 . S
C522 C521 1.396 . S
C522 C523 1.399 . S
C523 H509 0.929 . S
C523 C522 1.399 . S
C523 C524 1.385 . S
C524 H510 0.931 . S
C524 C523 1.385 . S
C524 C525 1.389 . S
C525 C524 1.389 . S
C525 C526 1.387 . S
C526 H511 0.930 . S
C526 C521 1.390 . S
C526 C525 1.387 . S
H527 C539 0.930 . S
H528 C541 0.930 . S
H529 C542 0.930 . S
H530 C546 0.959 . S
H531 C546 0.959 . S
H532 C546 0.961 . S
H533 C547 0.960 . S
H534 C547 0.961 . S
H535 C547 0.959 . S
H536 C550 0.929 . S
H537 C551 0.931 . S
H538 C553 0.930 . S
C539 H527 0.930 . S
C539 C540 1.399 . S
C539 C544 1.399 . S
C540 C539 1.399 . S
C540 C541 1.376 . S
C541 H528 0.930 . S
C541 C540 1.376 . S
C541 C542 1.388 . S
C542 H529 0.930 . S
C542 C541 1.388 . S
C542 C543 1.390 . S
C543 C542 1.390 . S
C543 C544 1.394 . S
C543 C549 1.465 . S
C544 C539 1.399 . S
C544 C543 1.394 . S
C544 C545 1.516 . S
C545 C544 1.516 . S
C545 C546 1.502 . S
C545 C547 1.561 . S
C545 C548 1.526 . S
C546 H530 0.959 . S
C546 H531 0.959 . S
C546 H532 0.961 . S
C546 C545 1.502 . S
C547 H533 0.960 . S
C547 H534 0.961 . S
C547 H535 0.959 . S
C547 C545 1.561 . S
C548 C545 1.526 . S
C548 C549 1.396 . S
C548 C553 1.390 . S
C549 C543 1.465 . S
C549 C548 1.396 . S
C549 C550 1.399 . S
C550 H536 0.929 . S
C550 C549 1.399 . S
C550 C551 1.385 . S
C551 H537 0.931 . S
C551 C550 1.385 . S
C551 C552 1.389 . S
C552 C551 1.389 . S
C552 C553 1.387 . S
C553 H538 0.930 . S
C553 C548 1.390 . S
C553 C552 1.387 . S
H554 C566 0.930 . S
H555 C568 0.930 . S
H556 C569 0.930 . S
H557 C573 0.962 . S
H558 C573 0.980 . S
H559 C573 0.938 1_565 S
H560 C574 0.956 1_565 S
H561 C574 0.964 . S
H562 C574 0.959 . S
H563 C577 0.929 . S
H564 C578 0.931 . S
H565 C580 0.930 . S
C566 H554 0.930 . S
C566 C567 1.399 . S
C566 C571 1.399 . S
C567 C566 1.399 . S
C567 C568 1.376 . S
C568 H555 0.930 . S
C568 C567 1.376 . S
C568 C569 1.388 . S
C569 H556 0.930 . S
C569 C568 1.388 . S
C569 C570 1.390 . S
C570 C569 1.390 . S
C570 C571 1.394 . S
C570 C576 1.465 1_565 S
C571 C566 1.399 . S
C571 C570 1.394 . S
C571 C572 1.516 1_565 S
C572 C571 1.516 1_545 S
C572 C573 1.502 . S
C572 C574 1.561 . S
C572 C575 1.526 . S
C573 H557 0.962 . S
C573 H558 0.980 . S
C573 H559 0.938 1_545 S
C573 C572 1.502 . S
C574 H560 0.956 1_545 S
C574 H561 0.964 . S
C574 H562 0.959 . S
C574 C572 1.561 . S
C575 C572 1.526 . S
C575 C576 1.396 . S
C575 C580 1.390 . S
C576 C570 1.465 1_545 S
C576 C575 1.396 . S
C576 C577 1.399 . S
C577 H563 0.929 . S
C577 C576 1.399 . S
C577 C578 1.385 . S
C578 H564 0.931 . S
C578 C577 1.385 . S
C578 C579 1.389 . S
C579 C578 1.389 . S
C579 C580 1.387 . S
C580 H565 0.930 . S
C580 C575 1.390 . S
C580 C579 1.387 . S
H581 C593 0.930 . S
H582 C595 0.930 . S
H583 C596 0.930 . S
H584 C600 0.962 . S
H585 C600 0.980 . S
H586 C600 0.938 1_565 S
H587 C601 0.956 1_565 S
H588 C601 0.964 . S
H589 C601 0.959 . S
H590 C604 0.929 . S
H591 C605 0.931 . S
H592 C607 0.930 . S
C593 H581 0.930 . S
C593 C594 1.399 . S
C593 C598 1.399 . S
C594 C593 1.399 . S
C594 C595 1.376 . S
C595 H582 0.930 . S
C595 C594 1.376 . S
C595 C596 1.388 . S
C596 H583 0.930 . S
C596 C595 1.388 . S
C596 C597 1.390 . S
C597 C596 1.390 . S
C597 C598 1.394 . S
C597 C603 1.465 1_565 S
C598 C593 1.399 . S
C598 C597 1.394 . S
C598 C599 1.516 1_565 S
C599 C598 1.516 1_545 S
C599 C600 1.502 . S
C599 C601 1.561 . S
C599 C602 1.526 . S
C600 H584 0.962 . S
C600 H585 0.980 . S
C600 H586 0.938 1_545 S
C600 C599 1.502 . S
C601 H587 0.956 1_545 S
C601 H588 0.964 . S
C601 H589 0.959 . S
C601 C599 1.561 . S
C602 C599 1.526 . S
C602 C603 1.396 . S
C602 C607 1.390 . S
C603 C597 1.465 1_545 S
C603 C602 1.396 . S
C603 C604 1.399 . S
C604 H590 0.929 . S
C604 C603 1.399 . S
C604 C605 1.385 . S
C605 H591 0.931 . S
C605 C604 1.385 . S
C605 C606 1.389 . S
C606 C605 1.389 . S
C606 C607 1.387 . S
C607 H592 0.930 . S
C607 C602 1.390 . S
C607 C606 1.387 . S
H608 C620 0.930 . S
H609 C622 0.930 . S
H610 C623 0.930 . S
H611 C627 0.959 . S
H612 C627 0.959 . S
H613 C627 0.961 . S
H614 C628 0.960 . S
H615 C628 0.961 . S
H616 C628 0.959 . S
H617 C631 0.929 . S
H618 C632 0.931 . S
H619 C634 0.930 . S
C620 H608 0.930 . S
C620 C621 1.399 . S
C620 C625 1.399 . S
C621 C620 1.399 . S
C621 C622 1.376 . S
C622 H609 0.930 . S
C622 C621 1.376 . S
C622 C623 1.388 . S
C623 H610 0.930 . S
C623 C622 1.388 . S
C623 C624 1.390 . S
C624 C623 1.390 . S
C624 C625 1.394 . S
C624 C630 1.465 . S
C625 C620 1.399 . S
C625 C624 1.394 . S
C625 C626 1.516 . S
C626 C625 1.516 . S
C626 C627 1.502 . S
C626 C628 1.561 . S
C626 C629 1.526 . S
C627 H611 0.959 . S
C627 H612 0.959 . S
C627 H613 0.961 . S
C627 C626 1.502 . S
C628 H614 0.960 . S
C628 H615 0.961 . S
C628 H616 0.959 . S
C628 C626 1.561 . S
C629 C626 1.526 . S
C629 C630 1.396 . S
C629 C634 1.390 . S
C630 C624 1.465 . S
C630 C629 1.396 . S
C630 C631 1.399 . S
C631 H617 0.929 . S
C631 C630 1.399 . S
C631 C632 1.385 . S
C632 H618 0.931 . S
C632 C631 1.385 . S
C632 C633 1.389 . S
C633 C632 1.389 . S
C633 C634 1.387 . S
C634 H619 0.930 . S
C634 C629 1.390 . S
C634 C633 1.387 . S
H635 C647 0.930 . S
H636 C649 0.930 . S
H637 C650 0.930 . S
H638 C654 0.959 . S
H639 C654 0.959 . S
H640 C654 0.961 . S
H641 C655 0.960 . S
H642 C655 0.961 . S
H643 C655 0.959 . S
H644 C658 0.929 . S
H645 C659 0.931 . S
H646 C661 0.930 . S
C647 H635 0.930 . S
C647 C648 1.399 . S
C647 C652 1.399 . S
C648 C647 1.399 . S
C648 C649 1.376 . S
C649 H636 0.930 . S
C649 C648 1.376 . S
C649 C650 1.388 . S
C650 H637 0.930 . S
C650 C649 1.388 . S
C650 C651 1.390 . S
C651 C650 1.390 . S
C651 C652 1.394 . S
C651 C657 1.465 . S
C652 C647 1.399 . S
C652 C651 1.394 . S
C652 C653 1.516 . S
C653 C652 1.516 . S
C653 C654 1.502 . S
C653 C655 1.561 . S
C653 C656 1.526 . S
C654 H638 0.959 . S
C654 H639 0.959 . S
C654 H640 0.961 . S
C654 C653 1.502 . S
C655 H641 0.960 . S
C655 H642 0.961 . S
C655 H643 0.959 . S
C655 C653 1.561 . S
C656 C653 1.526 . S
C656 C657 1.396 . S
C656 C661 1.390 . S
C657 C651 1.465 . S
C657 C656 1.396 . S
C657 C658 1.399 . S
C658 H644 0.929 . S
C658 C657 1.399 . S
C658 C659 1.385 . S
C659 H645 0.931 . S
C659 C658 1.385 . S
C659 C660 1.389 . S
C660 C659 1.389 . S
C660 C661 1.387 . S
C661 H646 0.930 . S
C661 C656 1.390 . S
C661 C660 1.387 . S
H662 C674 0.930 . S
H663 C676 0.930 . S
H664 C677 0.930 . S
H665 C681 0.959 . S
H666 C681 0.959 . S
H667 C681 0.961 . S
H668 C682 0.960 . S
H669 C682 0.961 . S
H670 C682 0.959 . S
H671 C685 0.929 . S
H672 C686 0.931 . S
H673 C688 0.930 . S
C674 H662 0.930 . S
C674 C675 1.399 . S
C674 C679 1.399 . S
C675 C674 1.399 . S
C675 C676 1.376 . S
C676 H663 0.930 . S
C676 C675 1.376 . S
C676 C677 1.388 . S
C677 H664 0.930 . S
C677 C676 1.388 . S
C677 C678 1.390 . S
C678 C677 1.390 . S
C678 C679 1.394 . S
C678 C684 1.465 . S
C679 C674 1.399 . S
C679 C678 1.394 . S
C679 C680 1.516 . S
C680 C679 1.516 . S
C680 C681 1.502 . S
C680 C682 1.561 . S
C680 C683 1.526 . S
C681 H665 0.959 . S
C681 H666 0.959 . S
C681 H667 0.961 . S
C681 C680 1.502 . S
C682 H668 0.960 . S
C682 H669 0.961 . S
C682 H670 0.959 . S
C682 C680 1.561 . S
C683 C680 1.526 . S
C683 C684 1.396 . S
C683 C688 1.390 . S
C684 C678 1.465 . S
C684 C683 1.396 . S
C684 C685 1.399 . S
C685 H671 0.929 . S
C685 C684 1.399 . S
C685 C686 1.385 . S
C686 H672 0.931 . S
C686 C685 1.385 . S
C686 C687 1.389 . S
C687 C686 1.389 . S
C687 C688 1.387 . S
C688 H673 0.930 . S
C688 C683 1.390 . S
C688 C687 1.387 . S
H689 C701 0.930 . S
H690 C703 0.930 . S
H691 C704 0.930 . S
H692 C708 0.959 . S
H693 C708 0.959 . S
H694 C708 0.961 . S
H695 C709 0.960 . S
H696 C709 0.961 . S
H697 C709 0.959 . S
H698 C712 0.929 . S
H699 C713 0.931 . S
H700 C715 0.930 . S
C701 H689 0.930 . S
C701 C702 1.399 . S
C701 C706 1.399 . S
C702 C701 1.399 . S
C702 C703 1.376 . S
C703 H690 0.930 . S
C703 C702 1.376 . S
C703 C704 1.388 . S
C704 H691 0.930 . S
C704 C703 1.388 . S
C704 C705 1.390 . S
C705 C704 1.390 . S
C705 C706 1.394 . S
C705 C711 1.465 . S
C706 C701 1.399 . S
C706 C705 1.394 . S
C706 C707 1.516 . S
C707 C706 1.516 . S
C707 C708 1.502 . S
C707 C709 1.561 . S
C707 C710 1.526 . S
C708 H692 0.959 . S
C708 H693 0.959 . S
C708 H694 0.961 . S
C708 C707 1.502 . S
C709 H695 0.960 . S
C709 H696 0.961 . S
C709 H697 0.959 . S
C709 C707 1.561 . S
C710 C707 1.526 . S
C710 C711 1.396 . S
C710 C715 1.390 . S
C711 C705 1.465 . S
C711 C710 1.396 . S
C711 C712 1.399 . S
C712 H698 0.929 . S
C712 C711 1.399 . S
C712 C713 1.385 . S
C713 H699 0.931 . S
C713 C712 1.385 . S
C713 C714 1.389 . S
C714 C713 1.389 . S
C714 C715 1.387 . S
C715 H700 0.930 . S
C715 C710 1.390 . S
C715 C714 1.387 . S
H716 C728 0.930 . S
H717 C730 0.930 . S
H718 C731 0.930 . S
H719 C735 0.959 . S
H720 C735 0.959 1_556 S
H721 C735 0.961 . S
H722 C736 0.960 1_554 S
H723 C736 0.961 . S
H724 C736 0.959 . S
H725 C739 0.929 . S
H726 C740 0.931 . S
H727 C742 0.930 . S
C728 H716 0.930 . S
C728 C729 1.399 . S
C728 C733 1.399 . S
C729 C728 1.399 . S
C729 C730 1.376 . S
C730 H717 0.930 . S
C730 C729 1.376 . S
C730 C731 1.388 . S
C731 H718 0.930 . S
C731 C730 1.388 . S
C731 C732 1.390 . S
C732 C731 1.390 . S
C732 C733 1.394 . S
C732 C738 1.465 1_554 S
C733 C728 1.399 . S
C733 C732 1.394 . S
C733 C734 1.516 . S
C734 C733 1.516 . S
C734 C735 1.502 . S
C734 C736 1.561 1_554 S
C734 C737 1.526 1_554 S
C735 H719 0.959 . S
C735 H720 0.959 1_554 S
C735 H721 0.961 . S
C735 C734 1.502 . S
C736 H722 0.960 1_556 S
C736 H723 0.961 . S
C736 H724 0.959 . S
C736 C734 1.561 1_556 S
C737 C734 1.526 1_556 S
C737 C738 1.396 . S
C737 C742 1.390 . S
C738 C732 1.465 1_556 S
C738 C737 1.396 . S
C738 C739 1.399 . S
C739 H725 0.929 . S
C739 C738 1.399 . S
C739 C740 1.385 . S
C740 H726 0.931 . S
C740 C739 1.385 . S
C740 C741 1.389 . S
C741 C740 1.389 . S
C741 C742 1.387 . S
C742 H727 0.930 . S
C742 C737 1.390 . S
C742 C741 1.387 . S
H743 C755 0.930 . S
H744 C757 0.930 . S
H745 C758 0.930 . S
H746 C762 0.959 . S
H747 C762 0.959 1_556 S
H748 C762 0.961 . S
H749 C763 0.960 1_554 S
H750 C763 0.961 . S
H751 C763 0.959 . S
H752 C766 0.929 . S
H753 C767 0.931 . S
H754 C769 0.930 . S
C755 H743 0.930 . S
C755 C756 1.399 . S
C755 C760 1.399 . S
C756 C755 1.399 . S
C756 C757 1.376 . S
C757 H744 0.930 . S
C757 C756 1.376 . S
C757 C758 1.388 . S
C758 H745 0.930 . S
C758 C757 1.388 . S
C758 C759 1.390 . S
C759 C758 1.390 . S
C759 C760 1.394 . S
C759 C765 1.465 1_554 S
C760 C755 1.399 . S
C760 C759 1.394 . S
C760 C761 1.516 1_554 S
C761 C760 1.516 1_556 S
C761 C762 1.502 1_556 S
C761 C763 1.561 . S
C761 C764 1.526 . S
C762 H746 0.959 . S
C762 H747 0.959 1_554 S
C762 H748 0.961 . S
C762 C761 1.502 1_554 S
C763 H749 0.960 1_556 S
C763 H750 0.961 . S
C763 H751 0.959 . S
C763 C761 1.561 . S
C764 C761 1.526 . S
C764 C765 1.396 . S
C764 C769 1.390 . S
C765 C759 1.465 1_556 S
C765 C764 1.396 . S
C765 C766 1.399 . S
C766 H752 0.929 . S
C766 C765 1.399 . S
C766 C767 1.385 . S
C767 H753 0.931 . S
C767 C766 1.385 . S
C767 C768 1.389 . S
C768 C767 1.389 . S
C768 C769 1.387 . S
C769 H754 0.930 . S
C769 C764 1.390 . S
C769 C768 1.387 . S
H770 C782 0.930 . S
H771 C784 0.930 . S
H772 C785 0.930 . S
H773 C789 0.959 . S
H774 C789 0.959 . S
H775 C789 0.961 1_556 S
H776 C790 0.960 . S
H777 C790 0.961 1_554 S
H778 C790 0.959 . S
H779 C793 0.929 . S
H780 C794 0.931 . S
H781 C796 0.930 . S
C782 H770 0.930 . S
C782 C783 1.399 . S
C782 C787 1.399 . S
C783 C782 1.399 . S
C783 C784 1.376 . S
C784 H771 0.930 . S
C784 C783 1.376 . S
C784 C785 1.388 . S
C785 H772 0.930 . S
C785 C784 1.388 . S
C785 C786 1.390 . S
C786 C785 1.390 . S
C786 C787 1.394 . S
C786 C792 1.465 1_556 S
C787 C782 1.399 . S
C787 C786 1.394 . S
C787 C788 1.516 1_556 S
C788 C787 1.516 1_554 S
C788 C789 1.502 . S
C788 C790 1.561 1_554 S
C788 C791 1.526 . S
C789 H773 0.959 . S
C789 H774 0.959 . S
C789 H775 0.961 1_554 S
C789 C788 1.502 . S
C790 H776 0.960 . S
C790 H777 0.961 1_556 S
C790 H778 0.959 . S
C790 C788 1.561 1_556 S
C791 C788 1.526 . S
C791 C792 1.396 . S
C791 C796 1.390 . S
C792 C786 1.465 1_554 S
C792 C791 1.396 . S
C792 C793 1.399 . S
C793 H779 0.929 . S
C793 C792 1.399 . S
C793 C794 1.385 . S
C794 H780 0.931 . S
C794 C793 1.385 . S
C794 C795 1.389 . S
C795 C794 1.389 . S
C795 C796 1.387 . S
C796 H781 0.930 . S
C796 C791 1.390 . S
C796 C795 1.387 . S
H797 C809 0.930 . S
H798 C811 0.930 . S
H799 C812 0.930 . S
H800 C816 0.959 . S
H801 C816 0.959 1_556 S
H802 C816 0.961 . S
H803 C817 0.960 1_554 S
H804 C817 0.961 . S
H805 C817 0.959 . S
H806 C820 0.929 . S
H807 C821 0.931 . S
H808 C823 0.930 . S
C809 H797 0.930 . S
C809 C810 1.399 . S
C809 C814 1.399 . S
C810 C809 1.399 . S
C810 C811 1.376 . S
C811 H798 0.930 . S
C811 C810 1.376 . S
C811 C812 1.388 . S
C812 H799 0.930 . S
C812 C811 1.388 . S
C812 C813 1.390 . S
C813 C812 1.390 . S
C813 C814 1.394 . S
C813 C819 1.465 1_554 S
C814 C809 1.399 . S
C814 C813 1.394 . S
C814 C815 1.516 1_554 S
C815 C814 1.516 1_556 S
C815 C816 1.502 1_556 S
C815 C817 1.561 . S
C815 C818 1.526 . S
C816 H800 0.959 . S
C816 H801 0.959 1_554 S
C816 H802 0.961 . S
C816 C815 1.502 1_554 S
C817 H803 0.960 1_556 S
C817 H804 0.961 . S
C817 H805 0.959 . S
C817 C815 1.561 . S
C818 C815 1.526 . S
C818 C819 1.396 . S
C818 C823 1.390 . S
C819 C813 1.465 1_556 S
C819 C818 1.396 . S
C819 C820 1.399 . S
C820 H806 0.929 . S
C820 C819 1.399 . S
C820 C821 1.385 . S
C821 H807 0.931 . S
C821 C820 1.385 . S
C821 C822 1.389 . S
C822 C821 1.389 . S
C822 C823 1.387 . S
C823 H808 0.930 . S
C823 C818 1.390 . S
C823 C822 1.387 . S
C189 C160 1.297 . S
C201 C5 1.178 . S
C216 C31 1.184 . S
C228 C139 1.272 . S
C243 C115 1.269 . S
C255 C50 1.177 . S
C270 C73 1.182 . S
C282 C97 1.256 . S
C297 C72 1.306 . S
C309 C93 1.244 . S
C324 C51 1.302 . S
C336 C119 1.255 . S
C351 C27 1.290 . S
C363 C138 1.188 . S
C378 C9 1.282 . S
C390 C161 1.181 . S
C405 C26 1.848 . S
C417 C8 1.847 . S
C432 C70 1.839 . S
C444 C52 1.837 . S
C459 C96 1.837 . S
C471 C114 1.838 . S
C486 C158 1.842 . S
C498 C140 1.838 . S
C513 C74 1.489 . S
C525 C4 1.485 . S
C540 C48 1.486 . S
C552 C30 1.478 . S
C567 C92 1.439 . S
C579 C162 1.426 . S
C594 C118 1.460 . S
C606 C136 1.447 . S
C621 C137 1.760 . S
C633 C6 1.788 . S
C648 C29 1.731 . S
C660 C163 1.808 . S
C675 C94 1.805 . S
C687 C49 1.727 . S
C702 C117 1.805 . S
C714 C75 1.727 . S
C729 C7 0.757 . S
C741 C141 0.864 . S
C756 C159 0.885 . S
C768 C28 0.715 . S
C783 C53 0.715 . S
C795 C95 0.884 . S
C810 C71 0.886 . S
C822 C116 0.716 . S
