# Generated by pormake.
# Topology umx, (4)-cn, num edge types: 1
# Building blocks:
#     Node 0, Type 0, BuildingBlock: ESEHIV_clean_sbu_0, # of connection points: 4
#     Node 1, Type 0, BuildingBlock: ESEHIV_clean_sbu_0, # of connection points: 4
#     Node 2, Type 0, BuildingBlock: ESEHIV_clean_sbu_0, # of connection points: 4
#     Node 3, Type 0, BuildingBlock: ESEHIV_clean_sbu_0, # of connection points: 4
#     Node 4, Type 0, BuildingBlock: ESEHIV_clean_sbu_0, # of connection points: 4
#     Node 5, Type 0, BuildingBlock: ESEHIV_clean_sbu_0, # of connection points: 4
#     Node 6, Type 0, BuildingBlock: ESEHIV_clean_sbu_0, # of connection points: 4
#     Node 7, Type 0, BuildingBlock: ESEHIV_clean_sbu_0, # of connection points: 4
#     Edge 8, Type (0, 0), BuildingBlock: AJUNOK_clean_linker_0, # of connection points: 2
#     Edge 9, Type (0, 0), BuildingBlock: AJUNOK_clean_linker_0, # of connection points: 2
#     Edge 10, Type (0, 0), BuildingBlock: AJUNOK_clean_linker_0, # of connection points: 2
#     Edge 11, Type (0, 0), BuildingBlock: AJUNOK_clean_linker_0, # of connection points: 2
#     Edge 12, Type (0, 0), BuildingBlock: AJUNOK_clean_linker_0, # of connection points: 2
#     Edge 13, Type (0, 0), BuildingBlock: AJUNOK_clean_linker_0, # of connection points: 2
#     Edge 14, Type (0, 0), BuildingBlock: AJUNOK_clean_linker_0, # of connection points: 2
#     Edge 15, Type (0, 0), BuildingBlock: AJUNOK_clean_linker_0, # of connection points: 2
#     Edge 16, Type (0, 0), BuildingBlock: AJUNOK_clean_linker_0, # of connection points: 2
#     Edge 17, Type (0, 0), BuildingBlock: AJUNOK_clean_linker_0, # of connection points: 2
#     Edge 18, Type (0, 0), BuildingBlock: AJUNOK_clean_linker_0, # of connection points: 2
#     Edge 19, Type (0, 0), BuildingBlock: AJUNOK_clean_linker_0, # of connection points: 2
#     Edge 20, Type (0, 0), BuildingBlock: AJUNOK_clean_linker_0, # of connection points: 2
#     Edge 21, Type (0, 0), BuildingBlock: AJUNOK_clean_linker_0, # of connection points: 2
#     Edge 22, Type (0, 0), BuildingBlock: AJUNOK_clean_linker_0, # of connection points: 2
#     Edge 23, Type (0, 0), BuildingBlock: AJUNOK_clean_linker_0, # of connection points: 2
# Relax obj value: 0.134
# Max RMSD: 0.188
# Mean RMSD: 0.174
data_MOF--net-umx--node1-ESEHIV_clean_sbu_0--edge1-AJUNOK_clean_linker_0
_symmetry_space_group_name_H-M    P1
_symmetry_Int_Tables_number       1
_symmetry_cell_setting            triclinic
loop_
_symmetry_equiv_pos_as_xyz
'x, y, z'
_cell_length_a     28.747872
_cell_length_b     35.133723
_cell_length_c     22.30198
_cell_angle_alpha  88.774027
_cell_angle_beta   90.437985
_cell_angle_gamma 89.354168
loop_
_atom_site_label
_atom_site_type_symbol
_atom_site_fract_x
_atom_site_fract_y
_atom_site_fract_z
_atom_type_partial_charge
Cu0 Cu 0.13045 0.38874 0.10769 0.0
N1 N 0.15653 0.43497 0.08527 0.0
N2 N 0.18646 0.47768 1.02164 0.0
C3 C 0.18309 0.44048 1.03664 0.0
C4 C 0.16097 0.4964 1.06232 0.0
C5 C 0.14272 0.46992 0.10188 0.0
O6 O 0.16871 0.35008 0.06787 0.0
C7 C 0.03757 0.41354 0.11875 0.0
O8 O 0.05147 0.41916 0.17403 0.0
H9 H 0.19527 0.41756 1.00887 0.0
H10 H 0.11778 0.47546 0.13677 0.0
N11 N 0.13711 0.38222 0.19049 0.0
N12 N 0.15997 0.39271 0.28463 0.0
C13 C 0.16087 0.4051 0.22692 0.0
C14 C 0.12028 0.35437 0.22615 0.0
C15 C 0.13482 0.36043 0.28408 0.0
C16 C 0.17703 0.31632 0.08778 0.0
O17 O 0.15117 0.30245 0.13101 0.0
H18 H 0.17772 0.43081 0.21141 0.0
H19 H 0.09881 0.33131 0.21119 0.0
O20 O 0.06496 0.3959 0.0836 0.0
H21 H 0.15318 0.52663 1.06065 0.0
H22 H 0.12778 0.34198 0.32223 0.0
Cu23 Cu 0.57972 0.19159 0.56706 0.0
N24 N 0.58515 0.13843 0.56801 0.0
N25 N 0.56388 0.07754 0.5791 0.0
C26 C 0.55145 0.11445 0.5857 0.0
C27 C 0.60701 0.07854 0.55553 0.0
C28 C 0.61994 0.11606 0.54855 0.0
O29 O 0.54758 0.20336 0.64457 0.0
C30 C 0.57388 0.19872 0.43957 0.0
O31 O 0.61677 0.18613 0.44689 0.0
H32 H 0.51774 0.12419 0.60061 0.0
H33 H 0.65195 0.12621 0.52914 0.0
N34 N 0.63897 0.21412 0.5694 0.0
N35 N 0.69613 0.25687 0.56212 0.0
C36 C 0.6501 0.25042 0.55479 0.0
C37 C 0.67934 0.19732 0.58685 0.0
C38 C 0.71455 0.22344 0.58197 0.0
C39 C 0.56858 0.19365 0.69398 0.0
O40 O 0.61014 0.17803 0.69027 0.0
H41 H 0.62505 0.27149 0.53845 0.0
H42 H 0.68296 0.16821 0.60295 0.0
O43 O 0.54993 0.20476 0.48714 0.0
H44 H 0.6276 0.05394 0.54346 0.0
H45 H 0.75084 0.21846 0.59325 0.0
Cu46 Cu 0.8672 0.60399 1.05369 0.0
N47 N 0.88042 0.61954 0.97575 0.0
N48 N 0.87098 0.62219 0.87662 0.0
C49 C 0.85385 0.60955 0.92921 0.0
C50 C 0.91048 0.6406 0.89049 0.0
C51 C 0.91601 0.63927 0.95222 0.0
O52 O 0.80287 0.61971 0.07041 0.0
C53 C 0.9119 0.53259 1.03248 0.0
O54 O 0.9295 0.55131 0.98658 0.0
H55 H 0.82375 0.5915 0.93388 0.0
H56 H 0.94455 0.65068 0.97783 0.0
N57 N 0.9028 0.62768 0.11144 0.0
N58 N 0.91135 0.62747 0.21113 0.0
C59 C 0.91429 0.60709 0.16086 0.0
C60 C 0.8953 0.66329 0.13054 0.0
C61 C 0.90023 0.66316 0.19213 0.0
C62 C 0.78875 0.65236 1.05073 0.0
O63 O 0.81638 0.67262 1.01636 0.0
H64 H 0.91417 0.57629 0.1616 0.0
H65 H 0.87897 0.6858 0.10381 0.0
O66 O 0.88098 0.54905 1.06408 0.0
H67 H 0.93414 0.65312 0.85833 0.0
H68 H 0.88897 0.68577 0.22109 0.0
Cu69 Cu 0.42639 0.83299 0.61887 0.0
N70 N 0.42375 0.88635 0.6158 0.0
N71 N 0.44818 0.94651 0.61145 0.0
C72 C 0.46086 0.9094 0.61249 0.0
C73 C 0.40134 0.94694 0.61346 0.0
C74 C 0.38633 0.90979 0.61577 0.0
O75 O 0.45632 0.81802 0.6979 0.0
C76 C 0.43158 0.82576 0.49286 0.0
O77 O 0.39085 0.84253 0.49869 0.0
H78 H 0.49649 0.89917 0.61101 0.0
H79 H 0.35059 0.90075 0.61624 0.0
N80 N 0.36648 0.81208 0.62016 0.0
N81 N 0.31008 0.7693 0.60939 0.0
C82 C 0.35443 0.77856 0.59647 0.0
C83 C 0.32839 0.82422 0.64932 0.0
C84 C 0.29366 0.79789 0.64286 0.0
C85 C 0.43706 0.83072 0.74557 0.0
O86 O 0.40138 0.85405 0.73868 0.0
H87 H 0.37848 0.76047 0.57274 0.0
H88 H 0.32624 0.84968 0.67546 0.0
O89 O 0.4551 0.81792 0.54102 0.0
H90 H 0.37955 0.97228 0.61169 0.0
H91 H 0.25934 0.7992 0.66239 0.0
Cu92 Cu 0.19524 0.55101 0.61287 0.0
N93 N 0.2195 0.52778 0.68198 0.0
N94 N 0.23072 0.5111 0.77822 0.0
C95 C 0.21054 0.53639 0.73925 0.0
C96 C 0.25291 0.48562 0.74371 0.0
C97 C 0.24612 0.49609 0.68453 0.0
O98 O 0.21113 0.60471 0.61347 0.0
C99 C 0.10425 0.54638 0.56375 0.0
O100 O 0.12323 0.56304 0.51679 0.0
H101 H 0.18836 0.55994 0.75186 0.0
H102 H 0.25787 0.48063 0.64595 0.0
N103 N 0.22173 0.52599 0.54844 0.0
N104 N 0.22805 0.48369 0.47556 0.0
C105 C 0.19975 0.50002 0.51568 0.0
C106 C 0.26585 0.52619 0.52871 0.0
C107 C 0.26974 0.50034 0.48313 0.0
C108 C 0.2244 0.62384 0.56769 0.0
O109 O 0.22408 0.60788 0.515 0.0
H110 H 0.16342 0.49358 0.52093 0.0
H111 H 0.29328 0.5435 0.54675 0.0
O112 O 0.1285 0.54152 0.61134 0.0
H113 H 0.27019 0.45977 0.75959 0.0
H114 H 0.30085 0.49402 0.45802 0.0
Cu115 Cu 0.48172 0.1906 0.06704 0.0
N116 N 0.46227 0.13994 0.07486 0.0
N117 N 0.47087 0.07655 0.08668 0.0
C118 C 0.48952 0.10922 1.0648 0.0
C119 C 0.42983 0.0874 0.1105 0.0
C120 C 0.42482 0.12636 0.10361 0.0
O121 O 0.51447 0.19569 0.98774 0.0
C122 C 0.49379 0.20086 0.19303 0.0
O123 O 0.44833 0.19803 0.18954 0.0
H124 H 0.52304 0.1113 1.04345 0.0
H125 H 0.3973 0.14371 0.12188 0.0
N126 N 0.4324 0.22648 1.06401 0.0
N127 N 0.36409 0.25812 1.05874 0.0
C128 C 0.38548 0.22343 1.06112 0.0
C129 C 0.44053 0.26407 1.06324 0.0
C130 C 0.39888 0.28353 1.05999 0.0
C131 C 0.48963 0.19564 0.93938 0.0
O132 O 0.44447 0.19188 0.94514 0.0
H133 H 0.36756 0.19658 1.05971 0.0
H134 H 0.47477 0.27647 1.06511 0.0
O135 O 0.51689 0.19971 0.14374 0.0
H136 H 0.40625 0.06883 0.13448 0.0
H137 H 0.39448 0.31418 1.05987 0.0
Cu138 Cu 0.83122 0.47113 0.54606 0.0
N139 N 0.80613 0.50728 0.59595 0.0
N140 N 0.80581 0.5522 0.66496 0.0
C141 C 0.82815 0.52147 0.64363 0.0
C142 C 0.76805 0.55751 0.62924 0.0
C143 C 0.76846 0.52972 0.58641 0.0
O144 O 0.79727 0.42359 0.5564 0.0
C145 C 0.92946 0.46641 0.52882 0.0
O146 O 0.91898 0.45537 0.47449 0.0
H147 H 0.86082 0.51017 0.66114 0.0
H148 H 0.74452 0.52729 0.54907 0.0
N149 N 0.82493 0.49147 0.46891 0.0
N150 N 0.83678 0.53061 0.3909 0.0
C151 C 0.85177 0.51909 0.44562 0.0
C152 C 0.79131 0.48569 0.4279 0.0
C153 C 0.79857 0.50997 0.37944 0.0
C154 C 0.80483 0.39373 0.52647 0.0
O155 O 0.83896 0.39358 0.48763 0.0
H156 H 0.88111 0.53115 0.46894 0.0
H157 H 0.76313 0.46581 0.43344 0.0
O158 O 0.89715 0.46929 0.56718 0.0
H159 H 0.7433 0.58084 0.63181 0.0
H160 H 0.77767 0.51223 0.3389 0.0
Cu161 Cu 0.51753 0.81175 0.12063 0.0
N162 N 0.54589 0.85947 0.11759 0.0
N163 N 0.54601 0.92338 0.11026 0.0
C164 C 0.52388 0.89099 0.09591 0.0
C165 C 0.58386 0.91139 0.14218 0.0
C166 C 0.5837 0.87206 0.14652 0.0
O167 O 0.48373 0.80866 1.04196 0.0
C168 C 0.5058 0.80993 0.24708 0.0
O169 O 0.55131 0.80792 0.24296 0.0
H170 H 0.49069 0.89008 0.07281 0.0
H171 H 0.60754 0.85421 0.1726 0.0
N172 N 0.5586 0.76959 0.127 0.0
N173 N 0.61718 0.72699 0.12136 0.0
C174 C 0.60282 0.76332 0.1089 0.0
C175 C 0.54483 0.73617 0.15099 0.0
C176 C 0.58048 0.71 0.14749 0.0
C177 C 0.50813 0.80777 0.9938 0.0
O178 O 0.55363 0.80697 0.99958 0.0
H179 H 0.62376 0.78465 0.08656 0.0
H180 H 0.51048 0.73099 0.16863 0.0
O181 O 0.48195 0.81134 0.19787 0.0
H182 H 0.6081 0.92955 0.16495 0.0
H183 H 0.57869 0.68027 0.16087 0.0
C184 C 0.21828 0.43592 0.32718 0.0
C185 C 0.1799 0.41178 0.33535 0.0
C186 C 0.23518 0.45809 0.37384 0.0
C187 C 0.21473 0.45675 0.43082 0.0
H188 H 0.23492 0.4384 0.28394 0.0
H189 H 0.26324 0.47756 0.36441 0.0
S190 S 0.11734 0.39476 0.47851 0.0
N191 N 0.12369 0.38643 0.40652 0.0
N192 N 0.15787 0.42574 0.4951 0.0
C193 C 0.17842 0.43085 0.44088 0.0
C194 C 0.16048 0.4089 0.39303 0.0
C195 C 0.57577 0.19136 0.80765 0.0
C196 C 0.54758 0.19756 0.75576 0.0
C197 C 0.55751 0.19188 0.86642 0.0
C198 C 0.50984 0.19827 0.87675 0.0
H199 H 0.61262 0.18552 0.80302 0.0
H200 H 0.58087 0.18625 0.90397 0.0
S201 S 0.42076 0.21804 0.75728 0.0
N202 N 0.46943 0.21183 0.71974 0.0
N203 N 0.43495 0.21274 0.82888 0.0
C204 C 0.48136 0.20543 0.8253 0.0
C205 C 0.50014 0.20514 0.76545 0.0
C206 C 0.83011 0.58718 0.32437 0.0
C207 C 0.85771 0.55867 0.35236 0.0
C208 C 0.84924 0.61261 0.28235 0.0
C209 C 0.89641 0.60988 0.26624 0.0
H210 H 0.79328 0.58903 0.33385 0.0
H211 H 0.82628 0.63271 0.25902 0.0
S212 S 0.98328 0.54073 0.32772 0.0
N213 N 0.93471 0.53008 0.36319 0.0
N214 N 0.97026 0.57723 0.28246 0.0
C215 C 0.9246 0.5824 0.29556 0.0
C216 C 0.90536 0.55693 0.33909 0.0
C217 C 0.51629 0.80424 0.8807 0.0
C218 C 0.48752 0.8101 0.93117 0.0
C219 C 0.49975 0.80934 0.82106 0.0
C220 C 0.45364 0.82103 0.80868 0.0
H221 H 0.55248 0.79618 0.88714 0.0
H222 H 0.52377 0.80532 0.78451 0.0
S223 S 0.36261 0.83752 0.92374 0.0
N224 N 0.40955 0.82616 0.96358 0.0
N225 N 0.37845 0.83591 0.85283 0.0
C226 C 0.42405 0.82576 0.8587 0.0
C227 C 0.44086 0.82026 0.91933 0.0
C228 C 0.86927 0.5798 0.7244 0.0
C229 C 0.8213 0.57508 0.71385 0.0
C230 C 0.88548 0.59775 0.77585 0.0
C231 C 0.85426 0.61143 0.81862 0.0
H232 H 0.89454 0.56859 0.69345 0.0
H233 H 0.92262 0.59893 0.78391 0.0
S234 S 0.72549 0.61022 0.80913 0.0
N235 N 0.74286 0.58824 0.74839 0.0
N236 N 0.77344 0.62279 0.84442 0.0
C237 C 0.80629 0.60914 0.80676 0.0
C238 C 0.78975 0.59081 0.75449 0.0
C239 C 0.51415 0.8091 0.3605 0.0
C240 C 0.4848 0.81159 0.30907 0.0
C241 C 0.49692 0.81237 0.41943 0.0
C242 C 0.44934 0.81855 0.43034 0.0
H243 H 0.5513 0.80505 0.35543 0.0
H244 H 0.52139 0.81104 0.45661 0.0
S245 S 0.3566 0.82439 0.31261 0.0
N246 N 0.40498 0.81861 0.27428 0.0
N247 N 0.37249 0.82471 0.3839 0.0
C248 C 0.41931 0.81999 0.37948 0.0
C249 C 0.43694 0.81654 0.31943 0.0
C250 C 0.1699 0.51215 0.9267 0.0
C251 C 0.20129 0.49191 0.96427 0.0
C252 C 0.18058 0.5199 0.86652 0.0
C253 C 0.2232 0.50789 0.84201 0.0
H254 H 0.13579 0.51997 0.943 0.0
H255 H 0.15418 0.53352 0.83839 0.0
S256 S 0.31994 0.45944 0.92565 0.0
N257 N 0.278 0.46336 0.97542 0.0
N258 N 0.29932 0.47924 0.86292 0.0
C259 C 0.25612 0.49 0.88066 0.0
C260 C 0.24484 0.48166 0.94162 0.0
C261 C 0.50608 0.20569 0.36529 0.0
C262 C 0.55429 0.20276 0.37631 0.0
C263 C 0.4875 0.20585 0.30629 0.0
C264 C 0.51597 0.20329 0.25478 0.0
H265 H 0.48226 0.20686 0.40261 0.0
H266 H 0.45003 0.20743 0.30129 0.0
S267 S 0.64492 0.1978 0.25783 0.0
N268 N 0.63048 0.19926 0.32926 0.0
N269 N 0.59547 0.19953 0.21971 0.0
C270 C 0.56429 0.20154 0.26502 0.0
C271 C 0.58333 0.20127 0.32513 0.0
C272 C 0.96557 0.47737 1.01352 0.0
C273 C 0.93502 0.49614 1.0527 0.0
C274 C 0.99589 0.44813 1.03401 0.0
C275 C 0.99729 0.43657 0.09479 0.0
H276 H 0.96793 0.48667 0.96702 0.0
H277 H 0.0206 0.43647 1.0027 0.0
S278 S 0.91953 0.47216 0.21421 0.0
N279 N 0.90419 0.49746 0.15389 0.0
N280 N 0.96128 0.44298 0.19254 0.0
C281 C 0.96431 0.4529 0.13346 0.0
C282 C 0.93313 0.48249 0.11243 0.0
C283 C 0.51325 0.97969 0.56232 0.0
C284 C 0.47814 0.97892 0.60576 0.0
C285 C 0.54132 0.01181 0.55425 0.0
C286 C 0.53573 0.04422 0.58985 0.0
H287 H 0.51814 0.95566 0.53334 0.0
H288 H 0.56686 0.01151 0.51887 0.0
S289 S 0.45237 0.05392 0.71527 0.0
N290 N 0.44127 0.01172 0.68761 0.0
N291 N 0.49493 0.07159 0.67428 0.0
C292 C 0.50172 0.04305 0.63505 0.0
C293 C 0.47274 0.01053 0.64255 0.0
C294 C 0.04613 0.51306 0.50021 0.0
C295 C 0.05947 0.52614 0.55695 0.0
C296 C 1.00529 0.49223 0.49233 0.0
C297 C 0.97549 0.48403 0.54066 0.0
H298 H 0.0677 0.51853 0.46141 0.0
H299 H 0.99661 0.48328 0.44749 0.0
S300 S 0.99491 0.51156 0.69883 0.0
N301 N 0.04025 0.52876 0.66267 0.0
N302 N 0.96292 0.49035 0.6479 0.0
C303 C 0.9887 0.49664 0.59791 0.0
C304 C 0.03074 0.51747 0.60602 0.0
C305 C 0.48018 0.96931 0.09693 0.0
C306 C 0.52846 0.9621 0.10151 0.0
C307 C 0.46206 1.00648 0.09092 0.0
C308 C 0.49115 0.03846 0.08946 0.0
H309 H 0.45578 0.94614 0.09939 0.0
H310 H 0.42469 1.01015 0.08764 0.0
S311 S 0.62039 0.03557 0.09845 0.0
N312 N 0.60525 0.9904 0.10151 0.0
N313 N 0.57124 0.06019 0.09341 0.0
C314 C 0.53961 0.03177 0.09342 0.0
C315 C 0.55816 0.99373 0.09886 0.0
C316 C 0.25365 0.31516 1.03408 0.0
C317 C 0.22159 0.29661 0.07183 0.0
C318 C 0.29921 0.30113 1.02746 0.0
C319 C 0.31494 0.26784 1.05802 0.0
H320 H 0.24432 0.3418 1.01151 0.0
H321 H 0.32293 0.31729 0.99964 0.0
S322 S 0.24377 0.2059 0.15694 0.0
N323 N 0.20792 0.2408 0.13581 0.0
N324 N 0.29368 0.21501 0.12375 0.0
C325 C 0.28254 0.24756 0.09271 0.0
C326 C 0.23594 0.26181 0.09953 0.0
C327 C 0.79173 0.32361 0.51588 0.0
C328 C 0.77553 0.35927 0.53519 0.0
C329 C 0.76541 0.2905 0.52436 0.0
C330 C 0.72138 0.29168 0.55143 0.0
H331 H 0.82541 0.32104 0.49481 0.0
H332 H 0.77956 0.26367 0.50939 0.0
S333 S 0.66233 0.3776 0.60924 0.0
N334 N 0.71199 0.39357 0.58241 0.0
N335 N 0.66261 0.33134 0.59752 0.0
C336 C 0.70432 0.3271 0.57013 0.0
C337 C 0.73138 0.36082 0.56233 0.0
C338 C 0.7232 0.69896 1.03342 0.0
C339 C 0.74364 0.66955 0.06911 0.0
C340 C 0.68249 0.71799 1.05112 0.0
C341 C 0.66052 0.70854 0.10543 0.0
H342 H 0.73876 0.70739 0.99116 0.0
H343 H 0.66768 0.73984 1.02157 0.0
S344 S 0.70224 0.63618 0.21804 0.0
N345 N 0.74002 0.63331 0.16289 0.0
N346 N 0.6641 0.66938 0.19676 0.0
C347 C 0.681 0.6796 0.1421 0.0
C348 C 0.72232 0.66002 0.1238 0.0
C349 C 0.26003 0.716 0.64088 0.0
C350 C 0.2869 0.73419 0.5966 0.0
C351 C 0.2392 0.68081 0.6306 0.0
C352 C 0.24393 0.66254 0.5753 0.0
H353 H 0.25618 0.72857 0.68449 0.0
H354 H 0.21973 0.66764 0.66672 0.0
S355 S 0.30791 0.70022 0.4429 0.0
N356 N 0.31512 0.73271 0.49445 0.0
N357 N 0.27595 0.66667 0.47449 0.0
C358 C 0.26956 0.68116 0.52988 0.0
C359 C 0.29113 0.71687 0.54072 0.0
loop_
_geom_bond_atom_site_label_1
_geom_bond_atom_site_label_2
_geom_bond_distance
_geom_bond_site_symmetry_2
_ccdc_geom_bond_type
Cu0 N1 1.999 1_554 S
Cu0 O6 1.974 . S
Cu0 N11 1.985 . S
Cu0 O20 1.959 . S
N1 Cu0 1.999 1_556 S
N1 C3 1.263 . S
N1 C5 1.389 . S
N2 C3 1.358 . S
N2 C4 1.400 . S
C3 N1 1.263 . S
C3 N2 1.358 . S
C3 H9 0.930 . S
C4 N2 1.400 . S
C4 C5 1.351 . S
C4 H21 0.930 . S
C5 N1 1.389 . S
C5 C4 1.351 . S
C5 H10 0.930 . S
O6 Cu0 1.974 . S
O6 C16 1.282 . S
C7 O8 1.261 . S
C7 O20 1.251 . S
O8 C7 1.261 . S
H9 C3 0.930 . S
H10 C5 0.930 . S
N11 Cu0 1.985 . S
N11 C13 1.335 . S
N11 C14 1.390 . S
N12 C13 1.345 . S
N12 C15 1.336 . S
C13 N11 1.335 . S
C13 N12 1.345 . S
C13 H18 0.930 . S
C14 N11 1.390 . S
C14 C15 1.346 . S
C14 H19 0.930 . S
C15 N12 1.336 . S
C15 C14 1.346 . S
C15 H22 0.929 . S
C16 O6 1.282 . S
C16 O17 1.216 . S
O17 C16 1.216 . S
H18 C13 0.930 . S
H19 C14 0.930 . S
O20 Cu0 1.959 . S
O20 C7 1.251 . S
H21 C4 0.930 . S
H22 C15 0.929 . S
Cu23 N24 1.999 . S
Cu23 O29 1.974 . S
Cu23 N34 1.985 . S
Cu23 O43 1.959 . S
N24 Cu23 1.999 . S
N24 C26 1.263 . S
N24 C28 1.389 . S
N25 C26 1.358 . S
N25 C27 1.400 . S
C26 N24 1.263 . S
C26 N25 1.358 . S
C26 H32 0.930 . S
C27 N25 1.400 . S
C27 C28 1.351 . S
C27 H44 0.930 . S
C28 N24 1.389 . S
C28 C27 1.351 . S
C28 H33 0.930 . S
O29 Cu23 1.974 . S
O29 C39 1.282 . S
C30 O31 1.261 . S
C30 O43 1.251 . S
O31 C30 1.261 . S
H32 C26 0.930 . S
H33 C28 0.930 . S
N34 Cu23 1.985 . S
N34 C36 1.335 . S
N34 C37 1.390 . S
N35 C36 1.345 . S
N35 C38 1.336 . S
C36 N34 1.335 . S
C36 N35 1.345 . S
C36 H41 0.930 . S
C37 N34 1.390 . S
C37 C38 1.346 . S
C37 H42 0.930 . S
C38 N35 1.336 . S
C38 C37 1.346 . S
C38 H45 0.929 . S
C39 O29 1.282 . S
C39 O40 1.216 . S
O40 C39 1.216 . S
H41 C36 0.930 . S
H42 C37 0.930 . S
O43 Cu23 1.959 . S
O43 C30 1.251 . S
H44 C27 0.930 . S
H45 C38 0.929 . S
Cu46 N47 1.999 1_554 S
Cu46 O52 1.974 . S
Cu46 N57 1.985 . S
Cu46 O66 1.959 . S
N47 Cu46 1.999 1_556 S
N47 C49 1.263 . S
N47 C51 1.389 . S
N48 C49 1.358 . S
N48 C50 1.400 . S
C49 N47 1.263 . S
C49 N48 1.358 . S
C49 H55 0.930 . S
C50 N48 1.400 . S
C50 C51 1.351 . S
C50 H67 0.930 . S
C51 N47 1.389 . S
C51 C50 1.351 . S
C51 H56 0.930 . S
O52 Cu46 1.974 . S
O52 C62 1.282 . S
C53 O54 1.261 . S
C53 O66 1.251 . S
O54 C53 1.261 . S
H55 C49 0.930 . S
H56 C51 0.930 . S
N57 Cu46 1.985 . S
N57 C59 1.335 . S
N57 C60 1.390 . S
N58 C59 1.345 . S
N58 C61 1.336 . S
C59 N57 1.335 . S
C59 N58 1.345 . S
C59 H64 0.930 . S
C60 N57 1.390 . S
C60 C61 1.346 . S
C60 H65 0.930 . S
C61 N58 1.336 . S
C61 C60 1.346 . S
C61 H68 0.929 . S
C62 O52 1.282 . S
C62 O63 1.216 . S
O63 C62 1.216 . S
H64 C59 0.930 . S
H65 C60 0.930 . S
O66 Cu46 1.959 . S
O66 C53 1.251 . S
H67 C50 0.930 . S
H68 C61 0.929 . S
Cu69 N70 1.999 . S
Cu69 O75 1.974 . S
Cu69 N80 1.985 . S
Cu69 O89 1.959 . S
N70 Cu69 1.999 . S
N70 C72 1.263 . S
N70 C74 1.389 . S
N71 C72 1.358 . S
N71 C73 1.400 . S
C72 N70 1.263 . S
C72 N71 1.358 . S
C72 H78 0.930 . S
C73 N71 1.400 . S
C73 C74 1.351 . S
C73 H90 0.930 . S
C74 N70 1.389 . S
C74 C73 1.351 . S
C74 H79 0.930 . S
O75 Cu69 1.974 . S
O75 C85 1.282 . S
C76 O77 1.261 . S
C76 O89 1.251 . S
O77 C76 1.261 . S
H78 C72 0.930 . S
H79 C74 0.930 . S
N80 Cu69 1.985 . S
N80 C82 1.335 . S
N80 C83 1.390 . S
N81 C82 1.345 . S
N81 C84 1.336 . S
C82 N80 1.335 . S
C82 N81 1.345 . S
C82 H87 0.930 . S
C83 N80 1.390 . S
C83 C84 1.346 . S
C83 H88 0.930 . S
C84 N81 1.336 . S
C84 C83 1.346 . S
C84 H91 0.929 . S
C85 O75 1.282 . S
C85 O86 1.216 . S
O86 C85 1.216 . S
H87 C82 0.930 . S
H88 C83 0.930 . S
O89 Cu69 1.959 . S
O89 C76 1.251 . S
H90 C73 0.930 . S
H91 C84 0.929 . S
Cu92 N93 1.999 . S
Cu92 O98 1.974 . S
Cu92 N103 1.985 . S
Cu92 O112 1.959 . S
N93 Cu92 1.999 . S
N93 C95 1.263 . S
N93 C97 1.389 . S
N94 C95 1.358 . S
N94 C96 1.400 . S
C95 N93 1.263 . S
C95 N94 1.358 . S
C95 H101 0.930 . S
C96 N94 1.400 . S
C96 C97 1.351 . S
C96 H113 0.930 . S
C97 N93 1.389 . S
C97 C96 1.351 . S
C97 H102 0.930 . S
O98 Cu92 1.974 . S
O98 C108 1.282 . S
C99 O100 1.261 . S
C99 O112 1.251 . S
O100 C99 1.261 . S
H101 C95 0.930 . S
H102 C97 0.930 . S
N103 Cu92 1.985 . S
N103 C105 1.335 . S
N103 C106 1.390 . S
N104 C105 1.345 . S
N104 C107 1.336 . S
C105 N103 1.335 . S
C105 N104 1.345 . S
C105 H110 0.930 . S
C106 N103 1.390 . S
C106 C107 1.346 . S
C106 H111 0.930 . S
C107 N104 1.336 . S
C107 C106 1.346 . S
C107 H114 0.929 . S
C108 O98 1.282 . S
C108 O109 1.216 . S
O109 C108 1.216 . S
H110 C105 0.930 . S
H111 C106 0.930 . S
O112 Cu92 1.959 . S
O112 C99 1.251 . S
H113 C96 0.930 . S
H114 C107 0.929 . S
Cu115 N116 1.999 . S
Cu115 O121 1.974 1_554 S
Cu115 N126 1.985 . S
Cu115 O135 1.959 . S
N116 Cu115 1.999 . S
N116 C118 1.263 1_554 S
N116 C120 1.389 . S
N117 C118 1.358 . S
N117 C119 1.400 1_556 S
C118 N116 1.263 1_556 S
C118 N117 1.358 . S
C118 H124 0.930 . S
C119 N117 1.400 1_554 S
C119 C120 1.351 . S
C119 H136 0.930 . S
C120 N116 1.389 . S
C120 C119 1.351 . S
C120 H125 0.930 . S
O121 Cu115 1.974 1_556 S
O121 C131 1.282 . S
C122 O123 1.261 . S
C122 O135 1.251 . S
O123 C122 1.261 . S
H124 C118 0.930 . S
H125 C120 0.930 . S
N126 Cu115 1.985 . S
N126 C128 1.335 . S
N126 C129 1.390 1_554 S
N127 C128 1.345 . S
N127 C130 1.336 1_554 S
C128 N126 1.335 . S
C128 N127 1.345 . S
C128 H133 0.930 . S
C129 N126 1.390 1_556 S
C129 C130 1.346 . S
C129 H134 0.930 . S
C130 N127 1.336 1_556 S
C130 C129 1.346 . S
C130 H137 0.929 . S
C131 O121 1.282 . S
C131 O132 1.216 . S
O132 C131 1.216 . S
H133 C128 0.930 . S
H134 C129 0.930 . S
O135 Cu115 1.959 . S
O135 C122 1.251 . S
H136 C119 0.930 . S
H137 C130 0.929 . S
Cu138 N139 1.999 . S
Cu138 O144 1.974 . S
Cu138 N149 1.985 . S
Cu138 O158 1.959 . S
N139 Cu138 1.999 . S
N139 C141 1.263 . S
N139 C143 1.389 . S
N140 C141 1.358 . S
N140 C142 1.400 . S
C141 N139 1.263 . S
C141 N140 1.358 . S
C141 H147 0.930 . S
C142 N140 1.400 . S
C142 C143 1.351 . S
C142 H159 0.930 . S
C143 N139 1.389 . S
C143 C142 1.351 . S
C143 H148 0.930 . S
O144 Cu138 1.974 . S
O144 C154 1.282 . S
C145 O146 1.261 . S
C145 O158 1.251 . S
O146 C145 1.261 . S
H147 C141 0.930 . S
H148 C143 0.930 . S
N149 Cu138 1.985 . S
N149 C151 1.335 . S
N149 C152 1.390 . S
N150 C151 1.345 . S
N150 C153 1.336 . S
C151 N149 1.335 . S
C151 N150 1.345 . S
C151 H156 0.930 . S
C152 N149 1.390 . S
C152 C153 1.346 . S
C152 H157 0.930 . S
C153 N150 1.336 . S
C153 C152 1.346 . S
C153 H160 0.929 . S
C154 O144 1.282 . S
C154 O155 1.216 . S
O155 C154 1.216 . S
H156 C151 0.930 . S
H157 C152 0.930 . S
O158 Cu138 1.959 . S
O158 C145 1.251 . S
H159 C142 0.930 . S
H160 C153 0.929 . S
Cu161 N162 1.999 . S
Cu161 O167 1.974 1_554 S
Cu161 N172 1.985 . S
Cu161 O181 1.959 . S
N162 Cu161 1.999 . S
N162 C164 1.263 1_554 S
N162 C166 1.389 . S
N163 C164 1.358 . S
N163 C165 1.400 1_556 S
C164 N162 1.263 1_556 S
C164 N163 1.358 . S
C164 H170 0.930 . S
C165 N163 1.400 1_554 S
C165 C166 1.351 . S
C165 H182 0.930 . S
C166 N162 1.389 . S
C166 C165 1.351 . S
C166 H171 0.930 . S
O167 Cu161 1.974 1_556 S
O167 C177 1.282 . S
C168 O169 1.261 . S
C168 O181 1.251 . S
O169 C168 1.261 . S
H170 C164 0.930 . S
H171 C166 0.930 . S
N172 Cu161 1.985 . S
N172 C174 1.335 . S
N172 C175 1.390 1_554 S
N173 C174 1.345 . S
N173 C176 1.336 1_554 S
C174 N172 1.335 . S
C174 N173 1.345 . S
C174 H179 0.930 . S
C175 N172 1.390 1_556 S
C175 C176 1.346 . S
C175 H180 0.930 . S
C176 N173 1.336 1_556 S
C176 C175 1.346 . S
C176 H183 0.929 . S
C177 O167 1.282 . S
C177 O178 1.216 . S
O178 C177 1.216 . S
H179 C174 0.930 . S
H180 C175 0.930 . S
O181 Cu161 1.959 . S
O181 C168 1.251 . S
H182 C165 0.930 . S
H183 C176 0.929 . S
C184 C185 1.369 . S
C184 C186 1.419 . S
C184 H188 0.930 . S
C185 C184 1.369 . S
C185 C194 1.429 . S
C186 C184 1.419 . S
C186 C187 1.363 . S
C186 H189 0.929 . S
C187 C186 1.363 . S
C187 C193 1.428 . S
H188 C184 0.930 . S
H189 C186 0.929 . S
S190 N191 1.613 . S
S190 N192 1.610 . S
N191 S190 1.613 . S
N191 C194 1.350 . S
N192 S190 1.610 . S
N192 C193 1.351 . S
C193 C187 1.428 . S
C193 N192 1.351 . S
C193 C194 1.434 . S
C194 C185 1.429 . S
C194 N191 1.350 . S
C194 C193 1.434 . S
C195 C196 1.369 . S
C195 C197 1.419 . S
C195 H199 0.930 . S
C196 C195 1.369 . S
C196 C205 1.429 . S
C197 C195 1.419 . S
C197 C198 1.363 . S
C197 H200 0.929 . S
C198 C197 1.363 . S
C198 C204 1.428 . S
H199 C195 0.930 . S
H200 C197 0.929 . S
S201 N202 1.613 . S
S201 N203 1.610 . S
N202 S201 1.613 . S
N202 C205 1.350 . S
N203 S201 1.610 . S
N203 C204 1.351 . S
C204 C198 1.428 . S
C204 N203 1.351 . S
C204 C205 1.434 . S
C205 C196 1.429 . S
C205 N202 1.350 . S
C205 C204 1.434 . S
C206 C207 1.369 . S
C206 C208 1.419 . S
C206 H210 0.930 . S
C207 C206 1.369 . S
C207 C216 1.429 . S
C208 C206 1.419 . S
C208 C209 1.363 . S
C208 H211 0.929 . S
C209 C208 1.363 . S
C209 C215 1.428 . S
H210 C206 0.930 . S
H211 C208 0.929 . S
S212 N213 1.613 . S
S212 N214 1.610 . S
N213 S212 1.613 . S
N213 C216 1.350 . S
N214 S212 1.610 . S
N214 C215 1.351 . S
C215 C209 1.428 . S
C215 N214 1.351 . S
C215 C216 1.434 . S
C216 C207 1.429 . S
C216 N213 1.350 . S
C216 C215 1.434 . S
C217 C218 1.369 . S
C217 C219 1.419 . S
C217 H221 0.930 . S
C218 C217 1.369 . S
C218 C227 1.429 . S
C219 C217 1.419 . S
C219 C220 1.363 . S
C219 H222 0.929 . S
C220 C219 1.363 . S
C220 C226 1.428 . S
H221 C217 0.930 . S
H222 C219 0.929 . S
S223 N224 1.613 . S
S223 N225 1.610 . S
N224 S223 1.613 . S
N224 C227 1.350 . S
N225 S223 1.610 . S
N225 C226 1.351 . S
C226 C220 1.428 . S
C226 N225 1.351 . S
C226 C227 1.434 . S
C227 C218 1.429 . S
C227 N224 1.350 . S
C227 C226 1.434 . S
C228 C229 1.369 . S
C228 C230 1.419 . S
C228 H232 0.930 . S
C229 C228 1.369 . S
C229 C238 1.429 . S
C230 C228 1.419 . S
C230 C231 1.363 . S
C230 H233 0.929 . S
C231 C230 1.363 . S
C231 C237 1.428 . S
H232 C228 0.930 . S
H233 C230 0.929 . S
S234 N235 1.613 . S
S234 N236 1.610 . S
N235 S234 1.613 . S
N235 C238 1.350 . S
N236 S234 1.610 . S
N236 C237 1.351 . S
C237 C231 1.428 . S
C237 N236 1.351 . S
C237 C238 1.434 . S
C238 C229 1.429 . S
C238 N235 1.350 . S
C238 C237 1.434 . S
C239 C240 1.369 . S
C239 C241 1.419 . S
C239 H243 0.930 . S
C240 C239 1.369 . S
C240 C249 1.429 . S
C241 C239 1.419 . S
C241 C242 1.363 . S
C241 H244 0.929 . S
C242 C241 1.363 . S
C242 C248 1.428 . S
H243 C239 0.930 . S
H244 C241 0.929 . S
S245 N246 1.613 . S
S245 N247 1.610 . S
N246 S245 1.613 . S
N246 C249 1.350 . S
N247 S245 1.610 . S
N247 C248 1.351 . S
C248 C242 1.428 . S
C248 N247 1.351 . S
C248 C249 1.434 . S
C249 C240 1.429 . S
C249 N246 1.350 . S
C249 C248 1.434 . S
C250 C251 1.369 . S
C250 C252 1.419 . S
C250 H254 0.930 . S
C251 C250 1.369 . S
C251 C260 1.429 . S
C252 C250 1.419 . S
C252 C253 1.363 . S
C252 H255 0.929 . S
C253 C252 1.363 . S
C253 C259 1.428 . S
H254 C250 0.930 . S
H255 C252 0.929 . S
S256 N257 1.613 . S
S256 N258 1.610 . S
N257 S256 1.613 . S
N257 C260 1.350 . S
N258 S256 1.610 . S
N258 C259 1.351 . S
C259 C253 1.428 . S
C259 N258 1.351 . S
C259 C260 1.434 . S
C260 C251 1.429 . S
C260 N257 1.350 . S
C260 C259 1.434 . S
C261 C262 1.369 . S
C261 C263 1.419 . S
C261 H265 0.930 . S
C262 C261 1.369 . S
C262 C271 1.429 . S
C263 C261 1.419 . S
C263 C264 1.363 . S
C263 H266 0.929 . S
C264 C263 1.363 . S
C264 C270 1.428 . S
H265 C261 0.930 . S
H266 C263 0.929 . S
S267 N268 1.613 . S
S267 N269 1.610 . S
N268 S267 1.613 . S
N268 C271 1.350 . S
N269 S267 1.610 . S
N269 C270 1.351 . S
C270 C264 1.428 . S
C270 N269 1.351 . S
C270 C271 1.434 . S
C271 C262 1.429 . S
C271 N268 1.350 . S
C271 C270 1.434 . S
C272 C273 1.369 . S
C272 C274 1.419 1_655 S
C272 H276 0.930 1_554 S
C273 C272 1.369 . S
C273 C282 1.429 . S
C274 C272 1.419 1_455 S
C274 C275 1.363 . S
C274 H277 0.929 1_554 S
C275 C274 1.363 . S
C275 C281 1.428 . S
H276 C272 0.930 1_556 S
H277 C274 0.929 1_556 S
S278 N279 1.613 . S
S278 N280 1.610 1_655 S
N279 S278 1.613 . S
N279 C282 1.350 . S
N280 S278 1.610 1_455 S
N280 C281 1.351 . S
C281 C275 1.428 . S
C281 N280 1.351 . S
C281 C282 1.434 1_455 S
C282 C273 1.429 . S
C282 N279 1.350 . S
C282 C281 1.434 1_655 S
C283 C284 1.369 . S
C283 C285 1.419 1_565 S
C283 H287 0.930 . S
C284 C283 1.369 . S
C284 C293 1.429 . S
C285 C283 1.419 1_545 S
C285 C286 1.363 . S
C285 H288 0.929 . S
C286 C285 1.363 . S
C286 C292 1.428 . S
H287 C283 0.930 . S
H288 C285 0.929 . S
S289 N290 1.613 . S
S289 N291 1.610 1_565 S
N290 S289 1.613 . S
N290 C293 1.350 . S
N291 S289 1.610 1_545 S
N291 C292 1.351 . S
C292 C286 1.428 . S
C292 N291 1.351 . S
C292 C293 1.434 1_545 S
C293 C284 1.429 . S
C293 N290 1.350 . S
C293 C292 1.434 1_565 S
C294 C295 1.369 . S
C294 C296 1.419 1_455 S
C294 H298 0.930 . S
C295 C294 1.369 . S
C295 C304 1.429 . S
C296 C294 1.419 1_655 S
C296 C297 1.363 . S
C296 H299 0.929 . S
C297 C296 1.363 . S
C297 C303 1.428 . S
H298 C294 0.930 . S
H299 C296 0.929 . S
S300 N301 1.613 . S
S300 N302 1.610 1_455 S
N301 S300 1.613 . S
N301 C304 1.350 . S
N302 S300 1.610 1_655 S
N302 C303 1.351 . S
C303 C297 1.428 . S
C303 N302 1.351 . S
C303 C304 1.434 1_655 S
C304 C295 1.429 . S
C304 N301 1.350 . S
C304 C303 1.434 1_455 S
C305 C306 1.369 . S
C305 C307 1.419 1_565 S
C305 H309 0.930 . S
C306 C305 1.369 . S
C306 C315 1.429 . S
C307 C305 1.419 1_545 S
C307 C308 1.363 . S
C307 H310 0.929 . S
C308 C307 1.363 . S
C308 C314 1.428 . S
H309 C305 0.930 . S
H310 C307 0.929 . S
S311 N312 1.613 . S
S311 N313 1.610 1_565 S
N312 S311 1.613 . S
N312 C315 1.350 1_554 S
N313 S311 1.610 1_545 S
N313 C314 1.351 1_554 S
C314 C308 1.428 . S
C314 N313 1.351 1_556 S
C314 C315 1.434 1_545 S
C315 C306 1.429 . S
C315 N312 1.350 1_556 S
C315 C314 1.434 1_565 S
C316 C317 1.369 . S
C316 C318 1.419 . S
C316 H320 0.930 1_554 S
C317 C316 1.369 . S
C317 C326 1.429 . S
C318 C316 1.419 . S
C318 C319 1.363 . S
C318 H321 0.929 . S
C319 C318 1.363 . S
C319 C325 1.428 . S
H320 C316 0.930 1_556 S
H321 C318 0.929 . S
S322 N323 1.613 . S
S322 N324 1.610 . S
N323 S322 1.613 . S
N323 C326 1.350 . S
N324 S322 1.610 . S
N324 C325 1.351 . S
C325 C319 1.428 . S
C325 N324 1.351 . S
C325 C326 1.434 . S
C326 C317 1.429 . S
C326 N323 1.350 . S
C326 C325 1.434 . S
C327 C328 1.369 . S
C327 C329 1.419 . S
C327 H331 0.930 . S
C328 C327 1.369 . S
C328 C337 1.429 . S
C329 C327 1.419 . S
C329 C330 1.363 . S
C329 H332 0.929 . S
C330 C329 1.363 . S
C330 C336 1.428 . S
H331 C327 0.930 . S
H332 C329 0.929 . S
S333 N334 1.613 . S
S333 N335 1.610 . S
N334 S333 1.613 . S
N334 C337 1.350 . S
N335 S333 1.610 . S
N335 C336 1.351 . S
C336 C330 1.428 . S
C336 N335 1.351 . S
C336 C337 1.434 . S
C337 C328 1.429 . S
C337 N334 1.350 . S
C337 C336 1.434 . S
C338 C339 1.369 . S
C338 C340 1.419 . S
C338 H342 0.930 . S
C339 C338 1.369 . S
C339 C348 1.429 1_554 S
C340 C338 1.419 . S
C340 C341 1.363 . S
C340 H343 0.929 . S
C341 C340 1.363 . S
C341 C347 1.428 . S
H342 C338 0.930 . S
H343 C340 0.929 . S
S344 N345 1.613 . S
S344 N346 1.610 . S
N345 S344 1.613 . S
N345 C348 1.350 . S
N346 S344 1.610 . S
N346 C347 1.351 1_556 S
C347 C341 1.428 . S
C347 N346 1.351 1_554 S
C347 C348 1.434 1_554 S
C348 C339 1.429 1_556 S
C348 N345 1.350 . S
C348 C347 1.434 1_556 S
C349 C350 1.369 . S
C349 C351 1.419 . S
C349 H353 0.930 . S
C350 C349 1.369 . S
C350 C359 1.429 . S
C351 C349 1.419 . S
C351 C352 1.363 . S
C351 H354 0.929 . S
C352 C351 1.363 . S
C352 C358 1.428 . S
H353 C349 0.930 . S
H354 C351 0.929 . S
S355 N356 1.613 . S
S355 N357 1.610 . S
N356 S355 1.613 . S
N356 C359 1.350 . S
N357 S355 1.610 . S
N357 C358 1.351 . S
C358 C352 1.428 . S
C358 N357 1.351 . S
C358 C359 1.434 . S
C359 C350 1.429 . S
C359 N356 1.350 . S
C359 C358 1.434 . S
C185 N12 0.553 . S
C187 N104 0.558 . S
C196 C39 1.909 . S
C198 C131 1.910 . S
C207 N150 0.561 . S
C209 N58 0.560 . S
C218 C177 1.908 . S
C220 C85 1.909 . S
C229 N140 1.222 . S
C231 N48 1.237 . S
C240 C168 2.585 . S
C242 C76 2.584 . S
C251 N2 1.239 . S
C253 N94 1.224 . S
C262 C30 2.583 . S
C264 C122 2.583 . S
C273 C53 1.843 . S
C275 C7 1.849 . S
C284 N71 1.743 . S
C286 N25 1.747 . S
C295 C99 1.842 . S
C297 C145 1.845 . S
C306 N163 1.737 . S
C308 N117 1.746 . S
C317 C16 1.767 . S
C319 N127 1.742 . S
C328 C154 1.776 . S
C330 N35 1.739 . S
C339 C62 1.776 . S
C341 N173 1.739 . S
C350 N81 1.740 . S
C352 C108 1.769 . S
