# Generated by pormake.
# Topology umk, (4)-cn, num edge types: 1
# Building blocks:
#     Node 0, Type 0, BuildingBlock: AZAVOO_clean_sbu_0, # of connection points: 4
#     Node 1, Type 0, BuildingBlock: AZAVOO_clean_sbu_0, # of connection points: 4
#     Node 2, Type 0, BuildingBlock: AZAVOO_clean_sbu_0, # of connection points: 4
#     Node 3, Type 0, BuildingBlock: AZAVOO_clean_sbu_0, # of connection points: 4
#     Node 4, Type 0, BuildingBlock: AZAVOO_clean_sbu_0, # of connection points: 4
#     Node 5, Type 0, BuildingBlock: AZAVOO_clean_sbu_0, # of connection points: 4
#     Node 6, Type 0, BuildingBlock: AZAVOO_clean_sbu_0, # of connection points: 4
#     Node 7, Type 0, BuildingBlock: AZAVOO_clean_sbu_0, # of connection points: 4
#     Node 8, Type 0, BuildingBlock: AZAVOO_clean_sbu_0, # of connection points: 4
#     Node 9, Type 0, BuildingBlock: AZAVOO_clean_sbu_0, # of connection points: 4
#     Node 10, Type 0, BuildingBlock: AZAVOO_clean_sbu_0, # of connection points: 4
#     Node 11, Type 0, BuildingBlock: AZAVOO_clean_sbu_0, # of connection points: 4
#     Node 12, Type 0, BuildingBlock: AZAVOO_clean_sbu_0, # of connection points: 4
#     Node 13, Type 0, BuildingBlock: AZAVOO_clean_sbu_0, # of connection points: 4
#     Node 14, Type 0, BuildingBlock: AZAVOO_clean_sbu_0, # of connection points: 4
#     Node 15, Type 0, BuildingBlock: AZAVOO_clean_sbu_0, # of connection points: 4
#     Node 16, Type 0, BuildingBlock: AZAVOO_clean_sbu_0, # of connection points: 4
#     Node 17, Type 0, BuildingBlock: AZAVOO_clean_sbu_0, # of connection points: 4
#     Node 18, Type 0, BuildingBlock: AZAVOO_clean_sbu_0, # of connection points: 4
#     Node 19, Type 0, BuildingBlock: AZAVOO_clean_sbu_0, # of connection points: 4
#     Node 20, Type 0, BuildingBlock: AZAVOO_clean_sbu_0, # of connection points: 4
#     Node 21, Type 0, BuildingBlock: AZAVOO_clean_sbu_0, # of connection points: 4
#     Node 22, Type 0, BuildingBlock: AZAVOO_clean_sbu_0, # of connection points: 4
#     Node 23, Type 0, BuildingBlock: AZAVOO_clean_sbu_0, # of connection points: 4
#     Edge 24, Type (0, 0), BuildingBlock: XIVTED_clean_linker_0, # of connection points: 2
#     Edge 25, Type (0, 0), BuildingBlock: XIVTED_clean_linker_0, # of connection points: 2
#     Edge 26, Type (0, 0), BuildingBlock: XIVTED_clean_linker_0, # of connection points: 2
#     Edge 27, Type (0, 0), BuildingBlock: XIVTED_clean_linker_0, # of connection points: 2
#     Edge 28, Type (0, 0), BuildingBlock: XIVTED_clean_linker_0, # of connection points: 2
#     Edge 29, Type (0, 0), BuildingBlock: XIVTED_clean_linker_0, # of connection points: 2
#     Edge 30, Type (0, 0), BuildingBlock: XIVTED_clean_linker_0, # of connection points: 2
#     Edge 31, Type (0, 0), BuildingBlock: XIVTED_clean_linker_0, # of connection points: 2
#     Edge 32, Type (0, 0), BuildingBlock: XIVTED_clean_linker_0, # of connection points: 2
#     Edge 33, Type (0, 0), BuildingBlock: XIVTED_clean_linker_0, # of connection points: 2
#     Edge 34, Type (0, 0), BuildingBlock: XIVTED_clean_linker_0, # of connection points: 2
#     Edge 35, Type (0, 0), BuildingBlock: XIVTED_clean_linker_0, # of connection points: 2
#     Edge 36, Type (0, 0), BuildingBlock: XIVTED_clean_linker_0, # of connection points: 2
#     Edge 37, Type (0, 0), BuildingBlock: XIVTED_clean_linker_0, # of connection points: 2
#     Edge 38, Type (0, 0), BuildingBlock: XIVTED_clean_linker_0, # of connection points: 2
#     Edge 39, Type (0, 0), BuildingBlock: XIVTED_clean_linker_0, # of connection points: 2
#     Edge 40, Type (0, 0), BuildingBlock: XIVTED_clean_linker_0, # of connection points: 2
#     Edge 41, Type (0, 0), BuildingBlock: XIVTED_clean_linker_0, # of connection points: 2
#     Edge 42, Type (0, 0), BuildingBlock: XIVTED_clean_linker_0, # of connection points: 2
#     Edge 43, Type (0, 0), BuildingBlock: XIVTED_clean_linker_0, # of connection points: 2
#     Edge 44, Type (0, 0), BuildingBlock: XIVTED_clean_linker_0, # of connection points: 2
#     Edge 45, Type (0, 0), BuildingBlock: XIVTED_clean_linker_0, # of connection points: 2
#     Edge 46, Type (0, 0), BuildingBlock: XIVTED_clean_linker_0, # of connection points: 2
#     Edge 47, Type (0, 0), BuildingBlock: XIVTED_clean_linker_0, # of connection points: 2
#     Edge 48, Type (0, 0), BuildingBlock: XIVTED_clean_linker_0, # of connection points: 2
#     Edge 49, Type (0, 0), BuildingBlock: XIVTED_clean_linker_0, # of connection points: 2
#     Edge 50, Type (0, 0), BuildingBlock: XIVTED_clean_linker_0, # of connection points: 2
#     Edge 51, Type (0, 0), BuildingBlock: XIVTED_clean_linker_0, # of connection points: 2
#     Edge 52, Type (0, 0), BuildingBlock: XIVTED_clean_linker_0, # of connection points: 2
#     Edge 53, Type (0, 0), BuildingBlock: XIVTED_clean_linker_0, # of connection points: 2
#     Edge 54, Type (0, 0), BuildingBlock: XIVTED_clean_linker_0, # of connection points: 2
#     Edge 55, Type (0, 0), BuildingBlock: XIVTED_clean_linker_0, # of connection points: 2
#     Edge 56, Type (0, 0), BuildingBlock: XIVTED_clean_linker_0, # of connection points: 2
#     Edge 57, Type (0, 0), BuildingBlock: XIVTED_clean_linker_0, # of connection points: 2
#     Edge 58, Type (0, 0), BuildingBlock: XIVTED_clean_linker_0, # of connection points: 2
#     Edge 59, Type (0, 0), BuildingBlock: XIVTED_clean_linker_0, # of connection points: 2
#     Edge 60, Type (0, 0), BuildingBlock: XIVTED_clean_linker_0, # of connection points: 2
#     Edge 61, Type (0, 0), BuildingBlock: XIVTED_clean_linker_0, # of connection points: 2
#     Edge 62, Type (0, 0), BuildingBlock: XIVTED_clean_linker_0, # of connection points: 2
#     Edge 63, Type (0, 0), BuildingBlock: XIVTED_clean_linker_0, # of connection points: 2
#     Edge 64, Type (0, 0), BuildingBlock: XIVTED_clean_linker_0, # of connection points: 2
#     Edge 65, Type (0, 0), BuildingBlock: XIVTED_clean_linker_0, # of connection points: 2
#     Edge 66, Type (0, 0), BuildingBlock: XIVTED_clean_linker_0, # of connection points: 2
#     Edge 67, Type (0, 0), BuildingBlock: XIVTED_clean_linker_0, # of connection points: 2
#     Edge 68, Type (0, 0), BuildingBlock: XIVTED_clean_linker_0, # of connection points: 2
#     Edge 69, Type (0, 0), BuildingBlock: XIVTED_clean_linker_0, # of connection points: 2
#     Edge 70, Type (0, 0), BuildingBlock: XIVTED_clean_linker_0, # of connection points: 2
#     Edge 71, Type (0, 0), BuildingBlock: XIVTED_clean_linker_0, # of connection points: 2
# Relax obj value: 0.146
# Max RMSD: 0.164
# Mean RMSD: 0.163
data_MOF--net-umk--node1-AZAVOO_clean_sbu_0--edge1-XIVTED_clean_linker_0
_symmetry_space_group_name_H-M    P1
_symmetry_Int_Tables_number       1
_symmetry_cell_setting            triclinic
loop_
_symmetry_equiv_pos_as_xyz
'x, y, z'
_cell_length_a     65.689264
_cell_length_b     65.573567
_cell_length_c     43.685048
_cell_angle_alpha  90.006742
_cell_angle_beta   90.05897
_cell_angle_gamma 120.1059
loop_
_atom_site_label
_atom_site_type_symbol
_atom_site_fract_x
_atom_site_fract_y
_atom_site_fract_z
_atom_type_partial_charge
Mg0 Mg 0.3313 0.46554 0.09341 0.0
O1 O 0.36096 0.49576 0.06585 0.0
O2 O 0.39483 0.50478 0.08918 0.0
Mg3 Mg 0.38729 0.48036 0.1297 0.0
C4 C 0.38335 0.50817 0.06816 0.0
C5 C 0.28529 0.46595 0.08478 0.0
O6 O 0.28352 0.45876 0.11324 0.0
O7 O 0.33529 0.49133 0.13102 0.0
O8 O 0.36929 0.4987 0.15231 0.0
O9 O 0.3344 0.43887 0.06503 0.0
O10 O 0.35422 0.45444 0.10774 0.0
C11 C 0.35156 0.50172 0.15086 0.0
C12 C 0.35013 0.4408 0.08455 0.0
O13 O 0.30374 0.47093 0.0697 0.0
Mg14 Mg 0.86387 0.35561 0.57854 0.0
O15 O 0.87382 0.38861 0.54908 0.0
O16 O 0.90518 0.41853 0.5717 0.0
Mg17 Mg 0.91376 0.40596 0.61571 0.0
C18 C 0.89004 0.41028 0.55013 0.0
C19 C 0.81319 0.3173 0.56822 0.0
O20 O 0.81672 0.31542 0.59745 0.0
O21 O 0.84631 0.36744 0.6139 0.0
O22 O 0.87804 0.39759 0.63549 0.0
O23 O 0.89041 0.34957 0.55368 0.0
O24 O 0.89767 0.37071 0.59578 0.0
C25 C 0.85575 0.38418 0.63339 0.0
C26 C 0.90531 0.36292 0.57434 0.0
O27 O 0.82958 0.33378 0.55281 0.0
Mg28 Mg 0.56253 0.88448 0.0826 0.0
O29 O 0.53217 0.88436 0.0564 0.0
O30 O 0.52233 0.90815 0.08081 0.0
Mg31 Mg 0.54673 0.92396 0.12181 0.0
C32 C 0.51933 0.89378 0.05924 0.0
C33 C 0.55816 0.85308 0.0267 0.0
O34 O 0.56286 0.87252 0.01221 0.0
O35 O 0.53655 0.86096 0.11922 0.0
O36 O 0.52823 0.88662 0.14165 0.0
O37 O 0.58922 0.91602 0.05618 0.0
O38 O 0.57317 0.91778 0.09973 0.0
C39 C 0.52552 0.86599 0.13909 0.0
C40 C 0.58706 0.92867 0.07729 0.0
O41 O 0.55679 0.8525 0.05571 0.0
Mg42 Mg 0.65564 0.51801 0.5694 0.0
O43 O 0.62212 0.48895 0.54677 0.0
O44 O 0.59115 0.48455 0.5735 0.0
Mg45 Mg 0.60487 0.51131 0.61235 0.0
C46 C 0.59999 0.47873 0.55151 0.0
C47 C 0.677 0.50471 0.51355 0.0
O48 O 0.66297 0.50958 0.49769 0.0
O49 O 0.65178 0.49305 0.60806 0.0
O50 O 0.62085 0.49038 0.63315 0.0
O51 O 0.65386 0.54566 0.54116 0.0
O52 O 0.63738 0.5336 0.58654 0.0
C53 C 0.63686 0.48493 0.62982 0.0
C54 C 0.64107 0.54673 0.56294 0.0
O55 O 0.6775 0.50647 0.54251 0.0
Mg56 Mg 0.11074 0.65569 0.07032 0.0
O57 O 0.10781 0.62243 0.04891 0.0
O58 O 0.07256 0.59185 0.06114 0.0
Mg59 Mg 0.05219 0.60594 0.0875 0.0
C60 C 0.09267 0.60044 0.04833 0.0
C61 C 0.16433 0.69283 0.07809 0.0
O62 O 0.15621 0.69963 0.10102 0.0
O63 O 0.11481 0.64381 0.11797 0.0
O64 O 0.07804 0.61505 0.12748 0.0
O65 O 0.09613 0.66257 0.02783 0.0
O66 O 0.07456 0.6407 0.06658 0.0
C67 C 0.09947 0.62816 0.13567 0.0
C68 C 0.07557 0.64869 0.03936 0.0
O69 O 0.15011 0.67511 0.06224 0.0
Mg70 Mg 0.44621 0.11237 0.60937 0.0
O71 O 0.47656 0.11508 0.58021 0.0
O72 O 0.48877 0.09204 0.60145 0.0
Mg73 Mg 0.46606 0.07424 0.64314 0.0
C74 C 0.49029 0.10657 0.58092 0.0
C75 C 0.44967 0.14615 0.55694 0.0
O76 O 0.44804 0.12869 0.54032 0.0
O77 O 0.47228 0.13548 0.64595 0.0
O78 O 0.4831 0.1108 0.66549 0.0
O79 O 0.42009 0.08138 0.58194 0.0
O80 O 0.43775 0.07889 0.62365 0.0
C81 C 0.4844 0.1309 0.6646 0.0
C82 C 0.42367 0.06844 0.60112 0.0
O83 O 0.44942 0.14461 0.58591 0.0
Mg84 Mg 0.5445 0.66873 0.8977 0.0
O85 O 0.51062 0.6403 0.92078 0.0
O86 O 0.49686 0.60735 0.89292 0.0
Mg87 Mg 0.52181 0.6143 0.85319 0.0
C88 C 0.49533 0.61874 0.91563 0.0
C89 C 0.55042 0.71703 0.91214 0.0
O90 O 0.55802 0.71967 0.88381 0.0
O91 O 0.52329 0.67308 0.85968 0.0
O92 O 0.51085 0.63972 0.83319 0.0
O93 O 0.5657 0.65728 0.92521 0.0
O94 O 0.55042 0.64287 0.87979 0.0
C95 C 0.51199 0.65955 0.83739 0.0
C96 C 0.56186 0.64235 0.90344 0.0
O97 O 0.54334 0.69736 0.9254 0.0
Mg98 Mg 0.87623 0.57488 0.41769 0.0
O99 O 0.8845 0.54505 0.42519 0.0
O100 O 0.92297 0.55951 0.41766 0.0
Mg101 Mg 0.93822 0.59716 0.4002 0.0
C102 C 0.90265 0.54268 0.42515 0.0
C103 C 0.82852 0.53315 0.4412 0.0
O104 O 0.84274 0.53148 0.4609 0.0
O105 O 0.87601 0.56993 0.36609 0.0
O106 O 0.9142 0.5829 0.35817 0.0
O107 O 0.88745 0.58571 0.46617 0.0
O108 O 0.91106 0.59991 0.42602 0.0
C109 C 0.89308 0.57398 0.34841 0.0
C110 C 0.90848 0.59835 0.45524 0.0
O111 O 0.83714 0.54871 0.42035 0.0
Mg112 Mg 0.32694 0.84013 0.91315 0.0
O113 O 0.36228 0.84521 0.93057 0.0
O114 O 0.39046 0.87014 0.8987 0.0
Mg115 Mg 0.37354 0.88078 0.86138 0.0
C116 C 0.38384 0.85699 0.92237 0.0
C117 C 0.3079 0.81156 0.97361 0.0
O118 O 0.32172 0.83263 0.98511 0.0
O119 O 0.32552 0.81621 0.87413 0.0
O120 O 0.35415 0.84269 0.84413 0.0
O121 O 0.33302 0.87122 0.94092 0.0
O122 O 0.34455 0.87333 0.89293 0.0
C123 C 0.33804 0.8216 0.84995 0.0
C124 C 0.34447 0.88403 0.91762 0.0
O125 O 0.3069 0.80879 0.94474 0.0
Mg126 Mg 0.43394 0.3041 0.39852 0.0
O127 O 0.46707 0.33555 0.41934 0.0
O128 O 0.47593 0.36731 0.39082 0.0
Mg129 Mg 0.44933 0.35637 0.35227 0.0
C130 C 0.47999 0.35749 0.41336 0.0
C131 C 0.44382 0.27959 0.4545 0.0
O132 O 0.44432 0.29683 0.47044 0.0
O133 O 0.45566 0.30163 0.35964 0.0
O134 O 0.4645 0.33426 0.33328 0.0
O135 O 0.4117 0.31334 0.42756 0.0
O136 O 0.4239 0.32703 0.38088 0.0
C137 C 0.46592 0.31574 0.33749 0.0
C138 C 0.41341 0.32738 0.40558 0.0
O139 O 0.44003 0.2784 0.42589 0.0
Mg140 Mg 0.11521 0.43716 0.90957 0.0
O141 O 0.11357 0.46892 0.92884 0.0
O142 O 0.0921 0.47715 0.89672 0.0
Mg143 Mg 0.08006 0.45084 0.8575 0.0
C144 C 0.10434 0.48126 0.92102 0.0
C145 C 0.14468 0.4457 0.97046 0.0
O146 O 0.12493 0.44079 0.98415 0.0
O147 O 0.14154 0.46013 0.87296 0.0
O148 O 0.11855 0.46766 0.8428 0.0
O149 O 0.08182 0.41317 0.9347 0.0
O150 O 0.08352 0.42567 0.88728 0.0
C151 C 0.13853 0.47006 0.84968 0.0
C152 C 0.07098 0.41434 0.91056 0.0
O153 O 0.14541 0.4452 0.94146 0.0
Mg154 Mg 0.66327 0.14058 0.40758 0.0
O155 O 0.63121 0.13991 0.42947 0.0
O156 O 0.59956 0.11689 0.40099 0.0
Mg157 Mg 0.61127 0.10278 0.36128 0.0
C158 C 0.60919 0.13029 0.42404 0.0
C159 C 0.68574 0.17457 0.46451 0.0
O160 O 0.66883 0.15686 0.47961 0.0
O161 O 0.66439 0.16468 0.36941 0.0
O162 O 0.63275 0.14019 0.34189 0.0
O163 O 0.65588 0.10876 0.43504 0.0
O164 O 0.64149 0.10746 0.38889 0.0
C165 C 0.65078 0.16048 0.34654 0.0
C166 C 0.64222 0.09635 0.41277 0.0
O167 O 0.68777 0.17266 0.4359 0.0
Mg168 Mg 0.65311 0.51489 0.8897 0.0
O169 O 0.62212 0.48456 0.91502 0.0
O170 O 0.58917 0.47637 0.88989 0.0
Mg171 Mg 0.5988 0.50139 0.84959 0.0
C172 C 0.59982 0.47253 0.91159 0.0
C173 C 0.68093 0.50951 0.94449 0.0
O174 O 0.66713 0.51467 0.96036 0.0
O175 O 0.65048 0.48988 0.85173 0.0
O176 O 0.61731 0.48306 0.82842 0.0
O177 O 0.64903 0.54116 0.91777 0.0
O178 O 0.63116 0.52677 0.87359 0.0
C179 C 0.6349 0.47988 0.83096 0.0
C180 C 0.63425 0.53983 0.89712 0.0
O181 O 0.67889 0.50791 0.91555 0.0
Mg182 Mg 0.10372 0.64824 0.42517 0.0
O183 O 0.10463 0.61687 0.44688 0.0
O184 O 0.07185 0.58402 0.43254 0.0
Mg185 Mg 0.04903 0.59451 0.40486 0.0
C186 C 0.09155 0.59446 0.4466 0.0
C187 C 0.15435 0.69164 0.42222 0.0
O188 O 0.14428 0.69757 0.40073 0.0
O189 O 0.11119 0.63863 0.37789 0.0
O190 O 0.07641 0.60721 0.36631 0.0
O191 O 0.08595 0.65209 0.46647 0.0
O192 O 0.06725 0.62941 0.42676 0.0
C193 C 0.0976 0.62242 0.35934 0.0
C194 C 0.06635 0.63678 0.45378 0.0
O195 O 0.14248 0.67187 0.43548 0.0
Mg196 Mg 0.45644 0.10421 0.922 0.0
O197 O 0.48865 0.10731 0.94734 0.0
O198 O 0.50055 0.08621 0.92018 0.0
Mg199 Mg 0.47594 0.06887 0.87991 0.0
C200 C 0.50283 0.09961 0.94268 0.0
C201 C 0.43895 0.13489 0.94762 0.0
O202 O 0.42092 0.1179 0.93299 0.0
O203 O 0.48033 0.1292 0.88506 0.0
O204 O 0.49049 0.10593 0.85991 0.0
O205 O 0.43222 0.07204 0.94875 0.0
O206 O 0.44848 0.07175 0.90464 0.0
C207 C 0.4914 0.1257 0.86362 0.0
C208 C 0.43541 0.06018 0.92746 0.0
O209 O 0.45814 0.13461 0.94849 0.0
Mg210 Mg 0.33932 0.46947 0.41034 0.0
O211 O 0.37174 0.49947 0.43464 0.0
O212 O 0.403 0.50612 0.40655 0.0
Mg213 Mg 0.39144 0.4803 0.36696 0.0
C214 C 0.39385 0.51088 0.42921 0.0
C215 C 0.29598 0.47319 0.42211 0.0
O216 O 0.29386 0.46656 0.39334 0.0
O217 O 0.34218 0.4949 0.37288 0.0
O218 O 0.37363 0.49973 0.34693 0.0
O219 O 0.34249 0.44221 0.4374 0.0
O220 O 0.3597 0.4564 0.39288 0.0
C221 C 0.35688 0.504 0.35103 0.0
C222 C 0.35631 0.44279 0.41587 0.0
O223 O 0.31415 0.47684 0.43695 0.0
Mg224 Mg 0.85955 0.35964 0.89509 0.0
O225 O 0.87053 0.39425 0.92145 0.0
O226 O 0.90277 0.42228 0.89803 0.0
Mg227 Mg 0.91075 0.40702 0.85616 0.0
C228 C 0.88742 0.41555 0.91928 0.0
C229 C 0.80842 0.32274 0.90706 0.0
O230 O 0.81125 0.3193 0.87811 0.0
O231 O 0.84306 0.37058 0.85718 0.0
O232 O 0.87555 0.39913 0.83486 0.0
O233 O 0.88474 0.35364 0.92298 0.0
O234 O 0.89352 0.37278 0.87901 0.0
C235 C 0.85316 0.38645 0.83674 0.0
C236 C 0.90028 0.3657 0.9023 0.0
O237 O 0.82517 0.34002 0.92103 0.0
Mg238 Mg 0.53284 0.87638 0.3986 0.0
O239 O 0.50008 0.87142 0.42407 0.0
O240 O 0.48711 0.89261 0.39939 0.0
Mg241 Mg 0.51193 0.91198 0.35993 0.0
C242 C 0.48535 0.87857 0.42079 0.0
C243 C 0.53586 0.83146 0.40821 0.0
O244 O 0.54211 0.83625 0.37937 0.0
O245 O 0.51017 0.85296 0.3596 0.0
O246 O 0.49935 0.87637 0.33626 0.0
O247 O 0.5559 0.90769 0.4277 0.0
O248 O 0.54013 0.90942 0.38379 0.0
C249 C 0.49936 0.85694 0.33826 0.0
C250 C 0.55253 0.92017 0.40751 0.0
O251 O 0.53063 0.84485 0.42311 0.0
Mg252 Mg 0.43807 0.31035 0.0807 0.0
O253 O 0.47109 0.34012 0.05793 0.0
O254 O 0.48367 0.3728 0.08602 0.0
Mg255 Mg 0.45892 0.36393 0.12643 0.0
C256 C 0.48561 0.36189 0.06304 0.0
C257 C 0.42307 0.26548 0.04177 0.0
O258 O 0.40227 0.26291 0.04751 0.0
O259 O 0.46035 0.30658 0.1177 0.0
O260 O 0.47222 0.33983 0.14425 0.0
O261 O 0.41578 0.32097 0.05416 0.0
O262 O 0.43074 0.33486 0.0999 0.0
C263 C 0.47198 0.32048 0.13953 0.0
C264 C 0.41914 0.33538 0.07643 0.0
O265 O 0.44133 0.28364 0.05165 0.0
Mg266 Mg 0.12044 0.43736 0.59055 0.0
O267 O 0.11882 0.46907 0.57098 0.0
O268 O 0.09495 0.47562 0.60069 0.0
Mg269 Mg 0.08155 0.44841 0.63885 0.0
C270 C 0.10859 0.48068 0.57767 0.0
C271 C 0.15365 0.45076 0.53307 0.0
O272 O 0.13515 0.44861 0.51853 0.0
O273 O 0.14436 0.45983 0.62947 0.0
O274 O 0.11924 0.46582 0.6572 0.0
O275 O 0.08889 0.41346 0.56216 0.0
O276 O 0.08739 0.42449 0.60953 0.0
C277 C 0.13977 0.46893 0.65232 0.0
C278 C 0.07644 0.41366 0.58501 0.0
O279 O 0.15249 0.44693 0.56167 0.0
Mg280 Mg 0.69402 0.14841 0.08799 0.0
O281 O 0.6575 0.13977 0.07087 0.0
O282 O 0.62993 0.11204 0.10085 0.0
Mg283 Mg 0.64901 0.10391 0.13813 0.0
C284 C 0.63598 0.12604 0.07804 0.0
C285 C 0.70573 0.1809 0.02995 0.0
O286 O 0.69047 0.16094 0.01688 0.0
O287 O 0.6916 0.17023 0.12697 0.0
O288 O 0.66333 0.14165 0.15532 0.0
O289 O 0.69123 0.11873 0.05936 0.0
O290 O 0.67931 0.11506 0.10736 0.0
C291 C 0.67787 0.16335 0.15 0.0
C292 C 0.68058 0.10521 0.08251 0.0
O293 O 0.71083 0.18101 0.05802 0.0
Mg294 Mg 0.56214 0.68475 0.57756 0.0
O295 O 0.52902 0.65188 0.55951 0.0
O296 O 0.52194 0.62123 0.58925 0.0
Mg297 Mg 0.54972 0.63458 0.62667 0.0
C298 C 0.51679 0.63008 0.56658 0.0
C299 C 0.55264 0.70726 0.51931 0.0
O300 O 0.55647 0.69202 0.50462 0.0
O301 O 0.54079 0.68779 0.61664 0.0
O302 O 0.53359 0.65617 0.64434 0.0
O303 O 0.58446 0.67526 0.54883 0.0
O304 O 0.57384 0.66348 0.59648 0.0
C305 C 0.53129 0.67409 0.6394 0.0
C306 C 0.58396 0.66251 0.57178 0.0
O307 O 0.55381 0.70816 0.54833 0.0
Mg308 Mg 0.88427 0.58704 0.05394 0.0
O309 O 0.89049 0.55628 0.04301 0.0
O310 O 0.92807 0.56757 0.05288 0.0
Mg311 Mg 0.94463 0.60394 0.07501 0.0
C312 C 0.90767 0.55235 0.04315 0.0
C313 C 0.83734 0.55012 0.0231 0.0
O314 O 0.85245 0.55016 0.00337 0.0
O315 O 0.88115 0.57774 0.10473 0.0
O316 O 0.91844 0.58765 0.11442 0.0
O317 O 0.89861 0.60158 0.00736 0.0
O318 O 0.91992 0.61091 0.04976 0.0
C319 C 0.8971 0.5792 0.12286 0.0
C320 C 0.91902 0.61223 0.02051 0.0
O321 O 0.84501 0.56303 0.0468 0.0
Mg322 Mg 0.3122 0.84776 0.59435 0.0
O323 O 0.3448 0.851 0.57049 0.0
O324 O 0.37651 0.87433 0.59873 0.0
Mg325 Mg 0.36424 0.88575 0.64062 0.0
C326 C 0.36695 0.86141 0.57527 0.0
C327 C 0.28881 0.82039 0.5342 0.0
O328 O 0.30252 0.84147 0.52272 0.0
O329 O 0.31288 0.82245 0.62981 0.0
O330 O 0.34503 0.84727 0.65642 0.0
O331 O 0.3178 0.88016 0.56997 0.0
O332 O 0.33296 0.88037 0.6152 0.0
C333 C 0.32766 0.82667 0.65128 0.0
C334 C 0.33141 0.89205 0.59251 0.0
O335 O 0.28889 0.8173 0.5629 0.0
H336 H 0.31091 0.49317 0.17924 0.0
H337 H 0.3897 0.54356 0.32211 0.0
H338 H 0.38592 0.54063 0.17941 0.0
H339 H 0.31521 0.49405 0.32476 0.0
H340 H 0.38504 0.55627 0.27147 0.0
H341 H 0.30886 0.50643 0.23094 0.0
C342 C 0.3268 0.50707 0.18971 0.0
C343 C 0.34875 0.51524 0.17571 0.0
C344 C 0.36952 0.54309 0.28336 0.0
C345 C 0.34663 0.53016 0.23467 0.0
C346 C 0.37222 0.53591 0.31232 0.0
C347 C 0.35292 0.51729 0.327 0.0
C348 C 0.34758 0.53077 0.26857 0.0
C349 C 0.33059 0.5082 0.31377 0.0
C350 C 0.32566 0.51457 0.21928 0.0
C351 C 0.36876 0.53336 0.18998 0.0
N352 N 0.32861 0.51444 0.28472 0.0
N353 N 0.36731 0.53983 0.21899 0.0
H354 H 0.81635 0.34857 0.66051 0.0
H355 H 0.86006 0.42585 0.80703 0.0
H356 H 0.86298 0.42384 0.66284 0.0
H357 H 0.81574 0.35026 0.8074 0.0
H358 H 0.84759 0.42684 0.75475 0.0
H359 H 0.80283 0.35041 0.71209 0.0
C360 C 0.82303 0.36561 0.67138 0.0
C361 C 0.84134 0.386 0.65792 0.0
C362 C 0.84001 0.41004 0.76644 0.0
C363 C 0.82634 0.38819 0.7169 0.0
C364 C 0.84707 0.40952 0.79637 0.0
C365 C 0.83937 0.3879 0.81111 0.0
C366 C 0.82586 0.38872 0.75085 0.0
C367 C 0.82233 0.36727 0.79655 0.0
C368 C 0.81543 0.36664 0.70093 0.0
C369 C 0.84929 0.40761 0.67286 0.0
N370 N 0.81672 0.36808 0.76677 0.0
N371 N 0.84215 0.40808 0.70183 0.0
H372 H 0.46225 0.84805 0.30152 0.0
H373 H 0.53394 0.83464 0.17 0.0
H374 H 0.51625 0.8298 0.31441 0.0
H375 H 0.48357 0.85807 0.1608 0.0
H376 H 0.51602 0.81635 0.21909 0.0
H377 H 0.45739 0.8342 0.24879 0.0
C378 C 0.47257 0.84041 0.29347 0.0
C379 C 0.49024 0.84082 0.31187 0.0
C380 C 0.50835 0.82477 0.20583 0.0
C381 C 0.48556 0.82594 0.2513 0.0
C382 C 0.51852 0.83511 0.17777 0.0
C383 C 0.51059 0.84843 0.16203 0.0
C384 C 0.4903 0.82798 0.21795 0.0
C385 C 0.49055 0.84847 0.17283 0.0
C386 C 0.46986 0.83257 0.26331 0.0
C387 C 0.50277 0.83027 0.30065 0.0
N388 N 0.48139 0.83886 0.20044 0.0
N389 N 0.50079 0.82401 0.27066 0.0
H390 H 0.60193 0.44004 0.80253 0.0
H391 H 0.6775 0.49136 0.65598 0.0
H392 H 0.67607 0.49106 0.80219 0.0
H393 H 0.60204 0.44751 0.6599 0.0
H394 H 0.68027 0.47759 0.70714 0.0
H395 H 0.6054 0.42828 0.75073 0.0
C396 C 0.61912 0.44821 0.79183 0.0
C397 C 0.6386 0.46701 0.80608 0.0
C398 C 0.66316 0.47032 0.69636 0.0
C399 C 0.64252 0.4545 0.74647 0.0
C400 C 0.6616 0.4781 0.66712 0.0
C401 C 0.63945 0.47105 0.65434 0.0
C402 C 0.64241 0.45551 0.7126 0.0
C403 C 0.6194 0.45382 0.66949 0.0
C404 C 0.62111 0.44157 0.76222 0.0
C405 C 0.66055 0.47676 0.79161 0.0
N406 N 0.62132 0.44699 0.69811 0.0
N407 N 0.6618 0.47097 0.76206 0.0
H408 H 0.13391 0.65865 0.32773 0.0
H409 H 0.13887 0.65928 0.1684 0.0
H410 H 0.07876 0.58612 0.31843 0.0
H411 H 0.07462 0.59223 0.17574 0.0
H412 H 0.14556 0.6578 0.22313 0.0
H413 H 0.14089 0.6602 0.27281 0.0
C414 C 0.12368 0.64286 0.31422 0.0
C415 C 0.10544 0.62235 0.32762 0.0
C416 C 0.12998 0.6434 0.21294 0.0
C417 C 0.11334 0.62384 0.26447 0.0
C418 C 0.12628 0.64414 0.18148 0.0
C419 C 0.10588 0.6261 0.16756 0.0
C420 C 0.11305 0.62448 0.23051 0.0
C421 C 0.09034 0.6068 0.18554 0.0
C422 C 0.12767 0.64372 0.28265 0.0
C423 C 0.09272 0.60245 0.30902 0.0
N424 N 0.09415 0.60664 0.21602 0.0
N425 N 0.09671 0.60381 0.27844 0.0
H426 H 0.47898 0.15708 0.84175 0.0
H427 H 0.5266 0.14051 0.68817 0.0
H428 H 0.52993 0.13459 0.8303 0.0
H429 H 0.4725 0.15898 0.69699 0.0
H430 H 0.5409 0.15641 0.73914 0.0
H431 H 0.48915 0.17517 0.79096 0.0
C432 C 0.49296 0.15675 0.82903 0.0
C433 C 0.50301 0.14357 0.83954 0.0
C434 C 0.52632 0.15766 0.7297 0.0
C435 C 0.51443 0.1638 0.78155 0.0
C436 C 0.51821 0.14862 0.70056 0.0
C437 C 0.49791 0.14777 0.68899 0.0
C438 C 0.51337 0.16491 0.74774 0.0
C439 C 0.48794 0.1589 0.70551 0.0
C440 C 0.49871 0.16701 0.79997 0.0
C441 C 0.52121 0.14392 0.82244 0.0
N442 N 0.49526 0.16629 0.73462 0.0
N443 N 0.52595 0.15334 0.79394 0.0
H444 H 0.54585 0.7155 0.66995 0.0
H445 H 0.47239 0.63467 0.80313 0.0
H446 H 0.48805 0.64431 0.66195 0.0
H447 H 0.53247 0.70425 0.81455 0.0
H448 H 0.46687 0.64527 0.75158 0.0
H449 H 0.53086 0.71865 0.72009 0.0
C450 C 0.52943 0.70092 0.67821 0.0
C451 C 0.51841 0.67941 0.66247 0.0
C452 C 0.48089 0.65853 0.76557 0.0
C453 C 0.50149 0.68262 0.71958 0.0
C454 C 0.48396 0.65247 0.79506 0.0
C455 C 0.50335 0.66837 0.81255 0.0
C456 C 0.49795 0.68026 0.75318 0.0
C457 C 0.51757 0.69132 0.8014 0.0
C458 C 0.52093 0.70264 0.70687 0.0
C459 C 0.49727 0.66101 0.67392 0.0
N460 N 0.51512 0.69636 0.77191 0.0
N461 N 0.48974 0.66285 0.7021 0.0
H462 H 0.85661 0.57011 0.31288 0.0
H463 H 0.91952 0.56363 0.15985 0.0
H464 H 0.92001 0.56582 0.30887 0.0
H465 H 0.86189 0.57752 0.15896 0.0
H466 H 0.91426 0.55648 0.21456 0.0
H467 H 0.85311 0.56563 0.25689 0.0
C468 C 0.86958 0.56792 0.30029 0.0
C469 C 0.88884 0.56872 0.31542 0.0
C470 C 0.90259 0.56092 0.2025 0.0
C471 C 0.88488 0.56348 0.25185 0.0
C472 C 0.90561 0.56502 0.17121 0.0
C473 C 0.8914 0.57162 0.155 0.0
C474 C 0.88545 0.56375 0.21796 0.0
C475 C 0.87333 0.57265 0.17075 0.0
C476 C 0.8676 0.56542 0.26842 0.0
C477 C 0.90511 0.56574 0.29811 0.0
N478 N 0.87108 0.56914 0.20159 0.0
N479 N 0.90282 0.56339 0.26732 0.0
H480 H 0.35916 0.81478 0.67223 0.0
H481 H 0.29428 0.7911 0.82757 0.0
H482 H 0.28724 0.79816 0.68253 0.0
H483 H 0.3677 0.81405 0.81489 0.0
H484 H 0.28653 0.77633 0.77487 0.0
H485 H 0.35697 0.79669 0.72181 0.0
C486 C 0.34261 0.8065 0.68455 0.0
C487 C 0.32351 0.80834 0.67379 0.0
C488 C 0.30419 0.78374 0.78397 0.0
C489 C 0.32122 0.78881 0.73116 0.0
C490 C 0.30857 0.79199 0.81415 0.0
C491 C 0.33175 0.80431 0.82512 0.0
C492 C 0.32319 0.78803 0.76493 0.0
C493 C 0.34965 0.80507 0.80691 0.0
C494 C 0.34136 0.79628 0.71294 0.0
C495 C 0.30242 0.79726 0.69034 0.0
N496 N 0.34509 0.79757 0.77746 0.0
N497 N 0.30205 0.78864 0.71879 0.0
H498 H 0.45107 0.27287 0.31071 0.0
H499 H 0.51408 0.34695 0.1679 0.0
H500 H 0.5073 0.3452 0.30965 0.0
H501 H 0.45357 0.277 0.16558 0.0
H502 H 0.52368 0.33903 0.21882 0.0
H503 H 0.46325 0.26729 0.25985 0.0
C504 C 0.46659 0.28728 0.30028 0.0
C505 C 0.47779 0.30973 0.31369 0.0
C506 C 0.50868 0.32508 0.20691 0.0
C507 C 0.49154 0.30366 0.25576 0.0
C508 C 0.50328 0.3296 0.17779 0.0
C509 C 0.48263 0.31284 0.16316 0.0
C510 C 0.49269 0.30408 0.22188 0.0
C511 C 0.46942 0.29053 0.17653 0.0
C512 C 0.47349 0.28414 0.27121 0.0
C513 C 0.49784 0.32779 0.2995 0.0
N514 N 0.47418 0.28704 0.20573 0.0
N515 N 0.50378 0.32452 0.27099 0.0
H516 H 0.16924 0.45561 0.67798 0.0
H517 H 0.15359 0.51287 0.8239 0.0
H518 H 0.14971 0.50922 0.68192 0.0
H519 H 0.16521 0.45381 0.82323 0.0
H520 H 0.17164 0.52436 0.77343 0.0
H521 H 0.18625 0.46705 0.72939 0.0
C522 C 0.16948 0.47048 0.68915 0.0
C523 C 0.1575 0.48108 0.67633 0.0
C524 C 0.17101 0.50931 0.78462 0.0
C525 C 0.17644 0.49395 0.73492 0.0
C526 C 0.16082 0.50286 0.81352 0.0
C527 C 0.15744 0.48208 0.82716 0.0
C528 C 0.17679 0.49421 0.76885 0.0
C529 C 0.16724 0.4698 0.81308 0.0
C530 C 0.17907 0.47694 0.71855 0.0
C531 C 0.1583 0.50026 0.69153 0.0
N532 N 0.17575 0.47555 0.78409 0.0
N533 N 0.16711 0.50576 0.72033 0.0
H534 H 0.69548 0.19341 0.3294 0.0
H535 H 0.64321 0.17207 0.16571 0.0
H536 H 0.62257 0.16657 0.30625 0.0
H537 H 0.71481 0.19181 0.18682 0.0
H538 H 0.64017 0.18788 0.21497 0.0
H539 H 0.70663 0.21014 0.27801 0.0
C540 C 0.68188 0.19186 0.31393 0.0
C541 C 0.65801 0.17785 0.32156 0.0
C542 C 0.65685 0.18951 0.20856 0.0
C543 C 0.67057 0.19657 0.26283 0.0
C544 C 0.65858 0.1806 0.18036 0.0
C545 C 0.67914 0.18038 0.1727 0.0
C546 C 0.67548 0.19724 0.22963 0.0
C547 C 0.69861 0.19156 0.19223 0.0
C548 C 0.68825 0.20132 0.2845 0.0
C549 C 0.64115 0.17662 0.30084 0.0
N550 N 0.69609 0.19891 0.22035 0.0
N551 N 0.6477 0.18533 0.27214 0.0
H552 H 0.18909 0.46223 0.94873 0.0
H553 H 0.24253 0.45441 0.10955 0.0
H554 H 0.14898 0.44246 0.03263 0.0
H555 H 0.28253 0.47817 0.02574 0.0
H556 H 0.20865 0.45199 0.08288 0.0
H557 H 0.22394 0.47006 0.97756 0.0
C558 C 0.18761 0.45957 0.97328 0.0
C559 C 0.16601 0.45147 0.98827 0.0
C560 C 0.2249 0.4579 0.07041 0.0
C561 C 0.20601 0.46041 0.02151 0.0
C562 C 0.24426 0.45929 0.08561 0.0
C563 C 0.26534 0.46631 0.06976 0.0
C564 C 0.22664 0.46349 0.03915 0.0
C565 C 0.2666 0.47252 0.03882 0.0
C566 C 0.20758 0.46411 0.98976 0.0
C567 C 0.16525 0.44859 0.02016 0.0
N568 N 0.24746 0.47081 0.0245 0.0
N569 N 0.18496 0.45289 0.03573 0.0
H570 H 0.68901 0.18425 0.52605 0.0
H571 H 0.80248 0.31257 0.50702 0.0
H572 H 0.72055 0.21525 0.43909 0.0
H573 H 0.77549 0.27927 0.59449 0.0
H574 H 0.76952 0.27895 0.48182 0.0
H575 H 0.71787 0.22064 0.55159 0.0
C576 C 0.70193 0.19872 0.51231 0.0
C577 C 0.70248 0.19662 0.48041 0.0
C578 C 0.77071 0.27908 0.50654 0.0
C579 C 0.73546 0.2383 0.50944 0.0
C580 C 0.78949 0.29832 0.52096 0.0
C581 C 0.79189 0.29862 0.55289 0.0
C582 C 0.75422 0.26 0.52418 0.0
C583 C 0.77446 0.2797 0.56979 0.0
C584 C 0.71839 0.21949 0.52691 0.0
C585 C 0.71956 0.21599 0.46376 0.0
N586 N 0.75646 0.26107 0.55521 0.0
N587 N 0.7354 0.23595 0.47848 0.0
H588 H 0.5461 0.8096 0.04944 0.0
H589 H 0.56209 0.76036 0.88926 0.0
H590 H 0.56372 0.8493 0.9652 0.0
H591 H 0.5385 0.71866 0.97182 0.0
H592 H 0.5626 0.79307 0.9166 0.0
H593 H 0.54293 0.776 0.02128 0.0
C594 C 0.54925 0.81124 0.02499 0.0
C595 C 0.5553 0.83234 0.00967 0.0
C596 C 0.55725 0.77674 0.92872 0.0
C597 C 0.55175 0.79392 0.97729 0.0
C598 C 0.55699 0.75806 0.91314 0.0
C599 C 0.55033 0.73676 0.92832 0.0
C600 C 0.55089 0.77417 0.95975 0.0
C601 C 0.54381 0.73477 0.95923 0.0
C602 C 0.54741 0.79203 0.00892 0.0
C603 C 0.55907 0.8334 0.97796 0.0
N604 N 0.54434 0.75328 0.97396 0.0
N605 N 0.55734 0.81449 0.96284 0.0
H606 H 0.68942 0.5107 0.45287 0.0
H607 H 0.80417 0.50275 0.48787 0.0
H608 H 0.7042 0.48864 0.53913 0.0
H609 H 0.79432 0.53399 0.40628 0.0
H610 H 0.763 0.4878 0.50119 0.0
H611 H 0.72299 0.50974 0.43023 0.0
C612 C 0.69946 0.50526 0.4669 0.0
C613 C 0.69438 0.50028 0.4981 0.0
C614 C 0.76976 0.49763 0.48013 0.0
C615 C 0.73273 0.4992 0.47244 0.0
C616 C 0.79327 0.50614 0.47248 0.0
C617 C 0.80285 0.52015 0.44633 0.0
C618 C 0.7558 0.50326 0.46156 0.0
C619 C 0.78778 0.52366 0.42701 0.0
C620 C 0.71864 0.50475 0.45398 0.0
C621 C 0.70782 0.49311 0.51513 0.0
N622 N 0.76509 0.51562 0.43527 0.0
N623 N 0.72656 0.49309 0.50219 0.0
H624 H 0.29832 0.8135 0.03426 0.0
H625 H 0.18637 0.68374 0.03147 0.0
H626 H 0.27928 0.76528 0.95813 0.0
H627 H 0.19846 0.73531 0.10122 0.0
H628 H 0.22496 0.71061 0.00995 0.0
H629 H 0.2665 0.78233 0.06424 0.0
C630 C 0.2877 0.79627 0.02399 0.0
C631 C 0.29122 0.79208 -0.00653 0.0
C632 C 0.2193 0.71597 0.03016 0.0
C633 C 0.2548 0.75643 0.02761 0.0
C634 C 0.19725 0.70061 0.04251 0.0
C635 C 0.18899 0.70745 0.06788 0.0
C636 C 0.23319 0.73838 0.04318 0.0
C637 C 0.20401 0.72941 0.08142 0.0
C638 C 0.26949 0.77851 0.04111 0.0
C639 C 0.27699 0.76939 0.98143 0.0
N640 N 0.22529 0.74424 0.06866 0.0
N641 N 0.25927 0.75249 -0.00156 0.0
H642 H 0.45301 0.18514 0.58473 0.0
H643 H 0.44563 0.24309 0.42725 0.0
H644 H 0.44938 0.15483 0.49571 0.0
H645 H 0.44906 0.27397 0.51579 0.0
H646 H 0.44903 0.21172 0.45207 0.0
H647 H 0.4536 0.21882 0.56002 0.0
C648 C 0.45241 0.18559 0.55997 0.0
C649 C 0.45099 0.16706 0.54224 0.0
C650 C 0.44912 0.22538 0.46611 0.0
C651 C 0.45164 0.20556 0.51386 0.0
C652 C 0.44716 0.24333 0.45195 0.0
C653 C 0.4469 0.26113 0.4695 0.0
C654 C 0.45078 0.22512 0.49811 0.0
C655 C 0.44909 0.26056 0.50139 0.0
C656 C 0.45275 0.20484 0.54589 0.0
C657 C 0.45037 0.16865 0.51029 0.0
N658 N 0.45083 0.24275 0.51471 0.0
N659 N 0.4506 0.18753 0.49713 0.0
H660 H 0.80152 0.54823 0.05738 0.0
H661 H 0.71052 0.49627 0.91904 0.0
H662 H 0.81526 0.52385 0.97228 0.0
H663 H 0.69639 0.52078 0.00375 0.0
H664 H 0.74632 0.50029 0.94153 0.0
H665 H 0.76067 0.53243 0.04157 0.0
C666 C 0.79589 0.5393 0.03552 0.0
C667 C 0.81194 0.53773 0.01587 0.0
C668 C 0.73528 0.50455 0.95536 0.0
C669 C 0.76523 0.51973 -0.00241 0.0
C670 C 0.71481 0.50226 0.94252 0.0
C671 C 0.70065 0.50859 0.95938 0.0
C672 C 0.74177 0.51342 0.98521 0.0
C673 C 0.70692 0.51594 0.98981 0.0
C674 C 0.77254 0.53029 0.02652 0.0
C675 C 0.80358 0.52575 0.98799 0.0
N676 N 0.72722 0.51847 0.00162 0.0
N677 N 0.78087 0.51747 0.97952 0.0
H678 H 0.17856 0.68604 0.46932 0.0
H679 H 0.27786 0.82228 0.47408 0.0
H680 H 0.18348 0.73701 0.40277 0.0
H681 H 0.26237 0.77374 0.54901 0.0
H682 H 0.24818 0.78987 0.44305 0.0
H683 H 0.21438 0.71659 0.49365 0.0
C684 C 0.18732 0.70359 0.45957 0.0
C685 C 0.1778 0.70906 0.43422 0.0
C686 C 0.25143 0.78632 0.46621 0.0
C687 C 0.21878 0.74416 0.46213 0.0
C688 C 0.26838 0.80478 0.48392 0.0
C689 C 0.27239 0.80075 0.5143 0.0
C690 C 0.23855 0.76366 0.47893 0.0
C691 C 0.25967 0.77771 0.52581 0.0
C692 C 0.20775 0.72105 0.47355 0.0
C693 C 0.19006 0.73207 0.42245 0.0
N694 N 0.24325 0.76007 0.50816 0.0
N695 N 0.20982 0.74886 0.4367 0.0
H696 H 0.47365 0.17481 0.97527 0.0
H697 H 0.38794 0.22453 0.01682 0.0
H698 H 0.39985 0.13926 0.9517 0.0
H699 H 0.46312 0.26359 0.03125 0.0
H700 H 0.39183 0.19279 -0.00649 0.0
H701 H 0.46997 0.20713 -0.00286 0.0
C702 C 0.45666 0.17377 0.97477 0.0
C703 C 0.43702 0.15431 0.96166 0.0
C704 C 0.40748 0.20835 0.00168 0.0
C705 C 0.4327 0.19121 0.98654 0.0
C706 C 0.40527 0.22649 0.01496 0.0
C707 C 0.42522 0.24671 0.02607 0.0
C708 C 0.42978 0.21041 -0.00037 0.0
C709 C 0.44725 0.2483 0.02303 0.0
C710 C 0.45459 0.19225 0.98716 0.0
C711 C 0.41546 0.15392 0.96155 0.0
N712 N 0.44892 0.23034 0.01022 0.0
N713 N 0.41387 0.17208 0.97384 0.0
H714 H 0.19613 0.46164 0.55762 0.0
H715 H 0.25552 0.46749 0.39636 0.0
H716 H 0.16142 0.45482 0.47107 0.0
H717 H 0.29184 0.48067 0.4829 0.0
H718 H 0.22169 0.46506 0.42288 0.0
H719 H 0.23196 0.47063 0.53033 0.0
C720 C 0.19605 0.46208 0.53283 0.0
C721 C 0.17567 0.45726 0.51657 0.0
C722 C 0.23713 0.46868 0.43604 0.0
C723 C 0.21674 0.46753 0.48514 0.0
C724 C 0.25646 0.47007 0.42092 0.0
C725 C 0.27645 0.47406 0.4375 0.0
C726 C 0.23773 0.47116 0.46799 0.0
C727 C 0.27675 0.47742 0.46924 0.0
C728 C 0.21657 0.4673 0.51726 0.0
C729 C 0.1767 0.45832 0.4845 0.0
N730 N 0.25758 0.47569 0.48349 0.0
N731 N 0.19687 0.46317 0.4698 0.0
H732 H 0.77105 0.28207 0.88501 0.0
H733 H 0.73483 0.22547 0.05138 0.0
H734 H 0.80038 0.32084 0.9688 0.0
H735 H 0.70304 0.1869 0.9682 0.0
H736 H 0.75575 0.2616 0.0216 0.0
H737 H 0.74245 0.24845 0.91502 0.0
C738 C 0.77125 0.28367 0.9097 0.0
C739 C 0.78839 0.30418 0.92444 0.0
C740 C 0.74408 0.24529 0.00984 0.0
C741 C 0.75587 0.26565 0.95893 0.0
C742 C 0.73217 0.2246 0.02683 0.0
C743 C 0.71738 0.20306 0.0122 0.0
C744 C 0.74135 0.24447 0.97791 0.0
C745 C 0.71442 0.20308 0.98039 0.0
C746 C 0.75494 0.26442 0.92683 0.0
C747 C 0.78766 0.3053 0.95647 0.0
N748 N 0.72649 0.22345 0.96425 0.0
N749 N 0.77189 0.28617 0.97265 0.0
H750 H 0.54529 0.79891 0.3828 0.0
H751 H 0.54028 0.738 0.54315 0.0
H752 H 0.52662 0.81828 0.46833 0.0
H753 H 0.5538 0.71442 0.45724 0.0
H754 H 0.53402 0.76667 0.5156 0.0
H755 H 0.54727 0.76705 0.40908 0.0
C756 C 0.54152 0.79642 0.40708 0.0
C757 C 0.53594 0.81139 0.42344 0.0
C758 C 0.53825 0.75518 0.50271 0.0
C759 C 0.53823 0.775 0.45364 0.0
C760 C 0.54188 0.7388 0.51844 0.0
C761 C 0.54774 0.72388 0.50248 0.0
C762 C 0.54062 0.7568 0.47074 0.0
C763 C 0.54939 0.72563 0.47047 0.0
C764 C 0.54263 0.7782 0.42205 0.0
C765 C 0.5311 0.80724 0.45482 0.0
N766 N 0.54599 0.74192 0.45564 0.0
N767 N 0.53248 0.78952 0.46891 0.0
H768 H 0.38202 0.43978 0.12357 0.0
H769 H 0.3961 0.34302 0.0291 0.0
H770 H 0.3469 0.41162 0.0373 0.0
H771 H 0.42252 0.36631 0.12058 0.0
H772 H 0.38112 0.37061 0.02859 0.0
H773 H 0.40073 0.41603 0.11933 0.0
C774 C 0.37842 0.42879 0.10351 0.0
C775 C 0.36284 0.42771 0.08076 0.0
C776 C 0.39036 0.36973 0.04864 0.0
C777 C 0.38402 0.40001 0.07598 0.0
C778 C 0.3989 0.35402 0.04896 0.0
C779 C 0.41069 0.35242 0.07488 0.0
C780 C 0.39369 0.38391 0.07441 0.0
C781 C 0.41379 0.36705 0.09997 0.0
C782 C 0.38905 0.41509 0.10118 0.0
C783 C 0.35876 0.41294 0.05542 0.0
N784 N 0.40533 0.38211 0.0991 0.0
N785 N 0.3692 0.39954 0.05377 0.0
H786 H 0.0461 0.40666 0.63127 0.0
H787 H 0.93036 0.35703 0.52779 0.0
H788 H 0.04824 0.39806 0.53357 0.0
H789 H 0.93713 0.3833 0.62006 0.0
H790 H 0.9721 0.36784 0.52927 0.0
H791 H 0.00444 0.39329 0.62761 0.0
C792 C 0.0378 0.40201 0.60896 0.0
C793 C 0.05077 0.40386 0.58262 0.0
C794 C 0.96434 0.37125 0.54907 0.0
C795 C 0.00274 0.38832 0.57823 0.0
C796 C 0.9406 0.36509 0.54826 0.0
C797 C 0.93033 0.36944 0.57376 0.0
C798 C 0.97762 0.38149 0.57571 0.0
C799 C 0.94431 0.37985 0.59972 0.0
C800 C 0.01394 0.39433 0.60688 0.0
C801 C 0.03888 0.39702 0.55442 0.0
N802 N 0.96714 0.38543 0.60002 0.0
N803 N 0.01546 0.38963 0.55291 0.0
H804 H 0.58984 0.95871 0.12209 0.0
H805 H 0.67226 0.07782 0.03096 0.0
H806 H 0.61441 0.958 0.03069 0.0
H807 H 0.66065 0.07331 0.12858 0.0
H808 H 0.64923 0.03454 0.02808 0.0
H809 H 0.61283 0.00142 0.12216 0.0
C810 C 0.59992 0.96755 0.10185 0.0
C811 C 0.60013 0.95472 0.0763 0.0
C812 C 0.65181 0.04312 0.05007 0.0
C813 C 0.62692 0.00394 0.0764 0.0
C814 C 0.66495 0.06777 0.05175 0.0
C815 C 0.6681 0.07922 0.08001 0.0
C816 C 0.64172 0.02999 0.07681 0.0
C817 C 0.65832 0.06535 0.10622 0.0
C818 C 0.61324 0.99201 0.10201 0.0
C819 C 0.61378 0.96724 0.05088 0.0
N820 N 0.6455 0.04156 0.10393 0.0
N821 N 0.62667 0.99123 0.05154 0.0
H822 H 0.64288 0.57519 0.51532 0.0
H823 H 0.5889 0.63743 0.6178 0.0
H824 H 0.61766 0.55523 0.60785 0.0
H825 H 0.59961 0.64985 0.52056 0.0
H826 H 0.60175 0.60873 0.61412 0.0
H827 H 0.62892 0.60368 0.51602 0.0
C828 C 0.63425 0.57664 0.53564 0.0
C829 C 0.63138 0.56276 0.56154 0.0
C830 C 0.60123 0.6176 0.59347 0.0
C831 C 0.6157 0.59533 0.5626 0.0
C832 C 0.59382 0.63401 0.59555 0.0
C833 C 0.59283 0.64584 0.56937 0.0
C834 C 0.60796 0.61297 0.565 0.0
C835 C 0.60001 0.64104 0.5413 0.0
C836 C 0.62632 0.59288 0.53602 0.0
C837 C 0.62015 0.56539 0.58727 0.0
N838 N 0.60728 0.62491 0.53982 0.0
N839 N 0.61286 0.5814 0.58717 0.0
H840 H 0.95628 0.65653 0.0178 0.0
H841 H 0.03577 0.60574 0.03505 0.0
H842 H 0.93177 0.58535 0.9879 0.0
H843 H 0.06628 0.67792 0.00552 0.0
H844 H -0.00228 0.59761 0.01463 0.0
H845 H -0.00317 0.666 0.00853 0.0
C846 C 0.95946 0.64324 0.00786 0.0
C847 C 0.94086 0.62023 0.00337 0.0
C848 C 0.01286 0.61509 0.01191 0.0
C849 C 0.98695 0.63044 -0.00551 0.0
C850 C 0.03447 0.61977 0.02386 0.0
C851 C 0.05393 0.64259 0.02236 0.0
C852 C 0.01061 0.63358 -0.00065 0.0
C853 C 0.05153 0.66011 0.00719 0.0
C854 C 0.98257 0.64857 0.00278 0.0
C855 C 0.94576 0.60337 0.99131 0.0
N856 N 0.03004 0.65542 -0.00302 0.0
N857 N 0.96846 0.60858 0.98822 0.0
H858 H 0.42552 0.03709 0.64034 0.0
H859 H 0.3355 0.92208 0.54592 0.0
H860 H 0.39477 0.04074 0.55459 0.0
H861 H 0.35969 0.92137 0.63762 0.0
H862 H 0.35929 0.96527 0.54603 0.0
H863 H 0.40428 0.99437 0.63663 0.0
C864 C 0.41448 0.02893 0.62052 0.0
C865 C 0.41196 0.04256 0.59772 0.0
C866 C 0.35942 0.95558 0.56603 0.0
C867 C 0.38719 0.99337 0.59352 0.0
C868 C 0.34586 0.93096 0.566 0.0
C869 C 0.34573 0.91806 0.59173 0.0
C870 C 0.37294 0.9673 0.59195 0.0
C871 C 0.35944 0.93048 0.61713 0.0
C872 C 0.40221 0.00445 0.6185 0.0
C873 C 0.39719 0.03089 0.57272 0.0
N874 N 0.37246 0.95434 0.61657 0.0
N875 N 0.38527 0.00692 0.57131 0.0
H876 H 0.58557 0.63569 0.95071 0.0
H877 H 0.60388 0.54167 0.85612 0.0
H878 H 0.55758 0.6103 0.86038 0.0
H879 H 0.63515 0.56755 0.94493 0.0
H880 H 0.58408 0.56441 0.85989 0.0
H881 H 0.60138 0.60883 0.95147 0.0
C882 C 0.58256 0.62434 0.93118 0.0
C883 C 0.5702 0.62524 0.90545 0.0
C884 C 0.59514 0.56506 0.8787 0.0
C885 C 0.58824 0.59461 0.90614 0.0
C886 C 0.6064 0.55194 0.87662 0.0
C887 C 0.62118 0.55263 0.90028 0.0
C888 C 0.59874 0.5792 0.90456 0.0
C889 C 0.62393 0.56653 0.92613 0.0
C890 C 0.5916 0.60904 0.93162 0.0
C891 C 0.56685 0.61017 0.88078 0.0
N892 N 0.6129 0.5794 0.92753 0.0
N893 N 0.57588 0.59558 0.88172 0.0
H894 H 0.94567 0.6423 0.46271 0.0
H895 H 0.02683 0.59328 0.4522 0.0
H896 H 0.91929 0.56971 0.48727 0.0
H897 H 0.05418 0.66333 0.48869 0.0
H898 H 0.9873 0.58362 0.46816 0.0
H899 H 0.98539 0.65124 0.47672 0.0
C900 C 0.94818 0.6285 0.47239 0.0
C901 C 0.92937 0.60534 0.47411 0.0
C902 C 0.00204 0.60091 0.47342 0.0
C903 C 0.97463 0.61502 0.48842 0.0
C904 C 0.02452 0.60648 0.46403 0.0
C905 C 0.04359 0.62923 0.46868 0.0
C906 C -0.0014 0.61849 0.48659 0.0
C907 C 0.03981 0.64561 0.48457 0.0
C908 C 0.97081 0.63354 0.48022 0.0
C909 C 0.93344 0.58785 0.486 0.0
N910 N 0.01758 0.64015 0.49221 0.0
N911 N 0.95582 0.59288 0.49179 0.0
H912 H 0.40912 0.03041 0.97395 0.0
H913 H 0.3686 0.91535 0.87199 0.0
H914 H 0.43526 0.03087 0.88316 0.0
H915 H 0.35203 0.91186 0.96814 0.0
H916 H 0.39229 0.95799 0.87591 0.0
H917 H 0.3876 0.98719 0.97283 0.0
C918 C 0.41052 0.02144 0.95393 0.0
C919 C 0.424 0.03426 0.92861 0.0
C920 C 0.38361 0.94794 0.89624 0.0
C921 C 0.39932 0.98501 0.92705 0.0
C922 C 0.37008 0.92352 0.89403 0.0
C923 C 0.3585 0.90997 0.91985 0.0
C924 C 0.38544 0.95901 0.92444 0.0
C925 C 0.36072 0.92165 0.94766 0.0
C926 C 0.39823 0.99681 0.9533 0.0
C927 C 0.42518 0.02177 0.90326 0.0
N928 N 0.37391 0.94556 0.94923 0.0
N929 N 0.41289 0.99788 0.90307 0.0
H930 H 0.38353 0.43866 0.37212 0.0
H931 H 0.39636 0.33772 0.45732 0.0
H932 H 0.35366 0.41256 0.46141 0.0
H933 H 0.41194 0.35621 0.36195 0.0
H934 H 0.38407 0.36734 0.46208 0.0
H935 H 0.3986 0.41164 0.37143 0.0
C936 C 0.38036 0.42744 0.39181 0.0
C937 C 0.36728 0.4279 0.41686 0.0
C938 C 0.39027 0.36489 0.4402 0.0
C939 C 0.38421 0.39641 0.41597 0.0
C940 C 0.39724 0.348 0.43743 0.0
C941 C 0.40541 0.34464 0.40925 0.0
C942 C 0.39161 0.37849 0.4146 0.0
C943 C 0.40615 0.3584 0.38424 0.0
C944 C 0.38885 0.41184 0.39129 0.0
C945 C 0.36362 0.41273 0.44159 0.0
N946 N 0.39941 0.3747 0.38755 0.0
N947 N 0.37196 0.39748 0.44047 0.0
H948 H 0.04385 0.40885 0.86094 0.0
H949 H 0.92292 0.36075 0.95246 0.0
H950 H 0.03966 0.39829 0.95878 0.0
H951 H 0.93408 0.38435 0.85854 0.0
H952 H 0.96441 0.37108 0.95551 0.0
H953 H 0.00225 0.39607 0.85977 0.0
C954 C 0.03416 0.40388 0.88227 0.0
C955 C 0.04533 0.40498 0.91007 0.0
C956 C 0.95769 0.37401 0.93432 0.0
C957 C -0.00264 0.39012 0.90889 0.0
C958 C 0.93407 0.36812 0.93255 0.0
C959 C 0.9251 0.37187 0.90527 0.0
C960 C 0.97222 0.38345 0.90852 0.0
C961 C 0.94025 0.38139 0.88015 0.0
C962 C 0.01033 0.39653 0.88158 0.0
C963 C 0.03171 0.3978 0.93687 0.0
N964 N 0.96298 0.38679 0.88239 0.0
N965 N 0.00837 0.39076 0.93567 0.0
H966 H 0.54971 0.95063 0.3676 0.0
H967 H 0.63751 0.06724 0.46095 0.0
H968 H 0.57945 0.94852 0.45491 0.0
H969 H 0.61332 0.06627 0.36875 0.0
H970 H 0.61354 0.02405 0.46218 0.0
H971 H 0.5695 0.9933 0.3711 0.0
C972 C 0.56019 0.9591 0.38773 0.0
C973 C 0.56292 0.94593 0.41098 0.0
C974 C 0.61341 0.03338 0.44181 0.0
C975 C 0.5861 0.9951 0.41492 0.0
C976 C 0.62706 0.058 0.44108 0.0
C977 C 0.62735 0.07043 0.41475 0.0
C978 C 0.59996 0.02121 0.41604 0.0
C979 C 0.61352 0.05756 0.38966 0.0
C980 C 0.57164 0.98357 0.38964 0.0
C981 C 0.57691 0.95801 0.43641 0.0
N982 N 0.60046 0.03373 0.39093 0.0
N983 N 0.58812 0.98197 0.43764 0.0
H984 H 0.4931 0.62981 0.97553 0.0
H985 H 0.37151 0.51142 0.00883 0.0
H986 H 0.45343 0.57831 0.90573 0.0
H987 H 0.42575 0.5479 0.07668 0.0
H988 H 0.39631 0.54136 0.97101 0.0
H989 H 0.46298 0.60531 0.01303 0.0
C990 C 0.47789 0.61356 0.96799 0.0
C991 C 0.47592 0.6059 0.93759 0.0
C992 C 0.40259 0.54286 -0.00571 0.0
C993 C 0.44149 0.57797 0.98022 0.0
C994 C 0.38847 0.52588 0.01584 0.0
C995 C 0.39677 0.52705 0.04575 0.0
C996 C 0.4249 0.56127 0.00298 0.0
C997 C 0.41886 0.54614 0.05371 0.0
C998 C 0.46079 0.59957 0.9894 0.0
C999 C 0.45581 0.58469 0.92906 0.0
N1000 N 0.43219 0.56248 0.03242 0.0
N1001 N 0.43941 0.57138 0.95032 0.0
H1002 H 0.85459 0.40725 0.5133 0.0
H1003 H 0.93812 0.53349 0.43744 0.0
H1004 H 0.92872 0.45107 0.53251 0.0
H1005 H 0.86244 0.50136 0.44023 0.0
H1006 H 0.93483 0.49887 0.46278 0.0
H1007 H 0.85726 0.43741 0.47742 0.0
C1008 C 0.87145 0.42304 0.50967 0.0
C1009 C 0.89141 0.42681 0.52613 0.0
C1010 C 0.91892 0.49931 0.45761 0.0
C1011 C 0.89459 0.46109 0.4852 0.0
C1012 C 0.92076 0.51905 0.443 0.0
C1013 C 0.90054 0.52051 0.43696 0.0
C1014 C 0.8967 0.48077 0.46621 0.0
C1015 C 0.87853 0.50113 0.44471 0.0
C1016 C 0.87293 0.44024 0.48934 0.0
C1017 C 0.91281 0.44758 0.52062 0.0
N1018 N 0.8772 0.48211 0.45914 0.0
N1019 N 0.91382 0.46392 0.50071 0.0
H1020 H 0.38176 0.84926 0.98406 0.0
H1021 H 0.5139 0.87622 0.00091 0.0
H1022 H 0.4278 0.86623 0.90609 0.0
H1023 H 0.47882 0.89438 0.07013 0.0
H1024 H 0.47965 0.86364 0.9672 0.0
H1025 H 0.41448 0.85601 0.01764 0.0
C1026 C 0.39861 0.85396 0.97397 0.0
C1027 C 0.40217 0.85739 0.94231 0.0
C1028 C 0.47955 0.87037 0.98981 0.0
C1029 C 0.43947 0.86506 0.98044 0.0
C1030 C 0.49902 0.87754 0.00899 0.0
C1031 C 0.49927 0.88659 0.0382 0.0
C1032 C 0.46007 0.87173 0.00028 0.0
C1033 C 0.47949 0.88783 0.04763 0.0
C1034 C 0.41727 0.85798 0.99313 0.0
C1035 C 0.42441 0.86363 0.93044 0.0
N1036 N 0.46064 0.88036 0.02878 0.0
N1037 N 0.44227 0.86731 0.94954 0.0
H1038 H 0.48436 0.35149 0.47455 0.0
H1039 H 0.60795 0.47024 0.49263 0.0
H1040 H 0.52039 0.39782 0.39864 0.0
H1041 H 0.55578 0.44272 0.56437 0.0
H1042 H 0.58039 0.43834 0.45893 0.0
H1043 H 0.51539 0.37954 0.50898 0.0
C1044 C 0.49898 0.36736 0.4651 0.0
C1045 C 0.49976 0.37252 0.43382 0.0
C1046 C 0.57511 0.43929 0.48213 0.0
C1047 C 0.53513 0.40434 0.47279 0.0
C1048 C 0.59078 0.45741 0.50134 0.0
C1049 C 0.584 0.45925 0.53119 0.0
C1050 C 0.55275 0.42268 0.4931 0.0
C1051 C 0.56157 0.44213 0.54136 0.0
C1052 C 0.51654 0.38336 0.48472 0.0
C1053 C 0.51902 0.39335 0.4227 0.0
N1054 N 0.54673 0.42451 0.52235 0.0
N1055 N 0.53597 0.40853 0.44219 0.0
H1056 H 0.10678 0.48304 0.98349 0.0
H1057 H 0.12054 0.61034 -0.00216 0.0
H1058 H 0.10767 0.52282 0.90432 0.0
H1059 H 0.07735 0.55412 0.06036 0.0
H1060 H 0.12699 0.58246 0.96776 0.0
H1061 H 0.10708 0.51354 0.01659 0.0
C1062 C 0.10742 0.49837 0.97314 0.0
C1063 C 0.10702 0.50043 0.94122 0.0
C1064 C 0.11631 0.57638 0.98825 0.0
C1065 C 0.10775 0.53522 0.97865 0.0
C1066 C 0.11269 0.59222 0.00543 0.0
C1067 C 0.09823 0.5844 0.03142 0.0
C1068 C 0.10588 0.55279 -0.00239 0.0
C1069 C 0.08841 0.56074 0.04025 0.0
C1070 C 0.10747 0.51561 0.99196 0.0
C1071 C 0.10774 0.52052 0.92886 0.0
N1072 N 0.09246 0.54573 0.0234 0.0
N1073 N 0.10813 0.53722 0.94763 0.0
H1074 H 0.49092 0.12257 0.52272 0.0
H1075 H 0.61844 0.1424 0.48445 0.0
H1076 H 0.53215 0.10776 0.58636 0.0
H1077 H 0.56494 0.12344 0.41519 0.0
H1078 H 0.59061 0.14057 0.52304 0.0
H1079 H 0.52167 0.13307 0.48392 0.0
C1080 C 0.5065 0.12172 0.52858 0.0
C1081 C 0.50891 0.11403 0.55762 0.0
C1082 C 0.58511 0.1371 0.49931 0.0
C1083 C 0.5441 0.12638 0.51383 0.0
C1084 C 0.601 0.13828 0.47726 0.0
C1085 C 0.59388 0.13279 0.44663 0.0
C1086 C 0.56211 0.13074 0.49058 0.0
C1087 C 0.57103 0.12751 0.43863 0.0
C1088 C 0.52396 0.12766 0.50649 0.0
C1089 C 0.52945 0.11328 0.5641 0.0
N1090 N 0.55588 0.12651 0.46053 0.0
N1091 N 0.54628 0.1194 0.54238 0.0
H1092 H 0.48789 0.35143 0.00294 0.0
H1093 H 0.61056 0.46868 0.97115 0.0
H1094 H 0.52688 0.40293 0.07303 0.0
H1095 H 0.55667 0.43381 0.9024 0.0
H1096 H 0.58473 0.43911 0.00862 0.0
H1097 H 0.5181 0.37617 0.96567 0.0
C1098 C 0.50294 0.36777 0.01057 0.0
C1099 C 0.50476 0.37531 0.04101 0.0
C1100 C 0.57873 0.43789 0.98523 0.0
C1101 C 0.5393 0.40346 -0.00131 0.0
C1102 C 0.59344 0.45465 0.96387 0.0
C1103 C 0.58558 0.45381 0.93378 0.0
C1104 C 0.55626 0.42002 0.97619 0.0
C1105 C 0.56325 0.43528 0.9255 0.0
C1106 C 0.52009 0.38188 0.9893 0.0
C1107 C 0.52465 0.39663 0.04967 0.0
N1108 N 0.54934 0.41912 0.94662 0.0
N1109 N 0.54114 0.41002 0.02857 0.0
H1110 H 0.11758 0.60627 0.49919 0.0
H1111 H 0.11492 0.48393 0.51568 0.0
H1112 H 0.08203 0.5498 0.43384 0.0
H1113 H 0.10848 0.52082 0.59351 0.0
H1114 H 0.11482 0.5138 0.48179 0.0
H1115 H 0.12621 0.58039 0.53048 0.0
C1116 C 0.11192 0.58857 0.49122 0.0
C1117 C 0.09889 0.58002 0.4641 0.0
C1118 C 0.11375 0.51542 0.50634 0.0
C1119 C 0.10901 0.55072 0.49931 0.0
C1120 C 0.11392 0.49853 0.52563 0.0
C1121 C 0.1115 0.49988 0.55734 0.0
C1122 C 0.11173 0.53399 0.519 0.0
C1123 C 0.11013 0.51906 0.56912 0.0
C1124 C 0.11677 0.57386 0.50909 0.0
C1125 C 0.09189 0.55693 0.45482 0.0
N1126 N 0.11028 0.53542 0.54993 0.0
N1127 N 0.09707 0.54304 0.4724 0.0
H1128 H 0.63931 0.14021 0.01852 0.0
H1129 H 0.50612 0.11055 0.00382 0.0
H1130 H 0.59032 0.11116 0.0937 0.0
H1131 H 0.54541 0.10484 0.92846 0.0
H1132 H 0.53958 0.12004 0.03791 0.0
H1133 H 0.60743 0.13681 0.98589 0.0
C1134 C 0.62192 0.13336 0.02825 0.0
C1135 C 0.61737 0.12573 0.05876 0.0
C1136 C 0.54081 0.11682 0.01385 0.0
C1137 C 0.58104 0.12204 0.02172 0.0
C1138 C 0.52184 0.11151 -0.00555 0.0
C1139 C 0.52299 0.10669 0.96342 0.0
C1140 C 0.56112 0.11783 0.00186 0.0
C1141 C 0.54372 0.10814 0.95234 0.0
C1142 C 0.60377 0.13135 0.00961 0.0
C1143 C 0.59449 0.11697 0.07017 0.0
N1144 N 0.562 0.11364 0.97153 0.0
N1145 N 0.57713 0.11536 0.05162 0.0
H1146 H 0.4791 0.58763 0.58268 0.0
H1147 H 0.4349 0.54994 0.41362 0.0
H1148 H 0.50778 0.6365 0.50723 0.0
H1149 H 0.38897 0.51633 0.4906 0.0
H1150 H 0.46282 0.58096 0.44761 0.0
H1151 H 0.44674 0.56026 0.54968 0.0
C1152 C 0.47852 0.59265 0.5592 0.0
C1153 C 0.49627 0.61427 0.54756 0.0
C1154 C 0.44653 0.56694 0.45703 0.0
C1155 C 0.45946 0.583 0.50977 0.0
C1156 C 0.43067 0.54917 0.43771 0.0
C1157 C 0.40972 0.53047 0.44943 0.0
C1158 C 0.44168 0.56576 0.48843 0.0
C1159 C 0.40496 0.53046 0.48072 0.0
C1160 C 0.45998 0.57709 0.54049 0.0
C1161 C 0.49451 0.61999 0.5171 0.0
N1162 N 0.42103 0.54768 0.49931 0.0
N1163 N 0.4766 0.60427 0.4991 0.0
H1164 H 0.85285 0.41557 0.95489 0.0
H1165 H 0.94136 0.54086 0.02983 0.0
H1166 H 0.92713 0.45618 0.93489 0.0
H1167 H 0.86629 0.51316 0.02555 0.0
H1168 H 0.93598 0.50568 0.00364 0.0
H1169 H 0.85722 0.44731 0.98914 0.0
C1170 C 0.87007 0.43101 0.95794 0.0
C1171 C 0.88961 0.43337 0.94181 0.0
C1172 C 0.92067 0.50723 0.0086 0.0
C1173 C 0.89472 0.46941 0.98094 0.0
C1174 C 0.9237 0.52729 0.02368 0.0
C1175 C 0.90427 0.53011 0.02971 0.0
C1176 C 0.89803 0.48972 -0.00042 0.0
C1177 C 0.8818 0.51184 0.02115 0.0
C1178 C 0.87252 0.44911 0.97734 0.0
C1179 C 0.91152 0.45374 0.94655 0.0
N1180 N 0.8793 0.49244 0.00639 0.0
N1181 N 0.91347 0.47094 0.96564 0.0
H1182 H 0.48349 0.86369 0.47984 0.0
H1183 H 0.35774 0.84983 0.51462 0.0
H1184 H 0.44334 0.87685 0.41243 0.0
H1185 H 0.41107 0.8681 0.58392 0.0
H1186 H 0.38498 0.84983 0.47632 0.0
H1187 H 0.45273 0.85533 0.5177 0.0
C1188 C 0.46808 0.86451 0.47291 0.0
C1189 C 0.46605 0.87122 0.44308 0.0
C1190 C 0.39058 0.85363 0.49998 0.0
C1191 C 0.43091 0.86153 0.48603 0.0
C1192 C 0.37506 0.85356 0.52183 0.0
C1193 C 0.38228 0.85924 0.5524 0.0
C1194 C 0.41328 0.85903 0.50891 0.0
C1195 C 0.40492 0.86393 0.56051 0.0
C1196 C 0.45063 0.85985 0.49452 0.0
C1197 C 0.44573 0.87204 0.43531 0.0
N1198 N 0.41964 0.86375 0.53887 0.0
N1199 N 0.42894 0.8673 0.45668 0.0
loop_
_geom_bond_atom_site_label_1
_geom_bond_atom_site_label_2
_geom_bond_distance
_geom_bond_site_symmetry_2
_ccdc_geom_bond_type
Mg0 O1 2.028 . S
Mg0 O7 1.986 . S
Mg0 O9 2.114 . S
Mg0 O10 2.251 . S
Mg0 O13 2.010 . S
O1 Mg0 2.028 . S
O1 C4 1.250 . S
O2 Mg3 2.028 . S
O2 C4 1.248 . S
Mg3 O2 2.028 . S
Mg3 O8 2.032 . S
Mg3 O10 2.079 . S
C4 O1 1.250 . S
C4 O2 1.248 . S
C5 O6 1.264 . S
C5 O13 1.249 . S
O6 C5 1.264 . S
O7 Mg0 1.986 . S
O7 C11 1.246 . S
O8 Mg3 2.032 . S
O8 C11 1.259 . S
O9 Mg0 2.114 . S
O9 C12 1.252 . S
O10 Mg0 2.251 . S
O10 Mg3 2.079 . S
O10 C12 1.273 . S
C11 O7 1.246 . S
C11 O8 1.259 . S
C12 O9 1.252 . S
C12 O10 1.273 . S
O13 Mg0 2.010 . S
O13 C5 1.249 . S
Mg14 O15 2.028 . S
Mg14 O21 1.986 . S
Mg14 O23 2.114 . S
Mg14 O24 2.251 . S
Mg14 O27 2.010 . S
O15 Mg14 2.028 . S
O15 C18 1.250 . S
O16 Mg17 2.028 . S
O16 C18 1.248 . S
Mg17 O16 2.028 . S
Mg17 O22 2.032 . S
Mg17 O24 2.079 . S
C18 O15 1.250 . S
C18 O16 1.248 . S
C19 O20 1.264 . S
C19 O27 1.249 . S
O20 C19 1.264 . S
O21 Mg14 1.986 . S
O21 C25 1.246 . S
O22 Mg17 2.032 . S
O22 C25 1.259 . S
O23 Mg14 2.114 . S
O23 C26 1.252 . S
O24 Mg14 2.251 . S
O24 Mg17 2.079 . S
O24 C26 1.273 . S
C25 O21 1.246 . S
C25 O22 1.259 . S
C26 O23 1.252 . S
C26 O24 1.273 . S
O27 Mg14 2.010 . S
O27 C19 1.249 . S
Mg28 O29 2.028 . S
Mg28 O35 1.986 . S
Mg28 O37 2.114 . S
Mg28 O38 2.251 . S
Mg28 O41 2.010 . S
O29 Mg28 2.028 . S
O29 C32 1.250 . S
O30 Mg31 2.028 . S
O30 C32 1.248 . S
Mg31 O30 2.028 . S
Mg31 O36 2.032 . S
Mg31 O38 2.079 . S
C32 O29 1.250 . S
C32 O30 1.248 . S
C33 O34 1.264 . S
C33 O41 1.249 . S
O34 C33 1.264 . S
O35 Mg28 1.986 . S
O35 C39 1.246 . S
O36 Mg31 2.032 . S
O36 C39 1.259 . S
O37 Mg28 2.114 . S
O37 C40 1.252 . S
O38 Mg28 2.251 . S
O38 Mg31 2.079 . S
O38 C40 1.273 . S
C39 O35 1.246 . S
C39 O36 1.259 . S
C40 O37 1.252 . S
C40 O38 1.273 . S
O41 Mg28 2.010 . S
O41 C33 1.249 . S
Mg42 O43 2.028 . S
Mg42 O49 1.986 . S
Mg42 O51 2.114 . S
Mg42 O52 2.251 . S
Mg42 O55 2.010 . S
O43 Mg42 2.028 . S
O43 C46 1.250 . S
O44 Mg45 2.028 . S
O44 C46 1.248 . S
Mg45 O44 2.028 . S
Mg45 O50 2.032 . S
Mg45 O52 2.079 . S
C46 O43 1.250 . S
C46 O44 1.248 . S
C47 O48 1.264 . S
C47 O55 1.249 . S
O48 C47 1.264 . S
O49 Mg42 1.986 . S
O49 C53 1.246 . S
O50 Mg45 2.032 . S
O50 C53 1.259 . S
O51 Mg42 2.114 . S
O51 C54 1.252 . S
O52 Mg42 2.251 . S
O52 Mg45 2.079 . S
O52 C54 1.273 . S
C53 O49 1.246 . S
C53 O50 1.259 . S
C54 O51 1.252 . S
C54 O52 1.273 . S
O55 Mg42 2.010 . S
O55 C47 1.249 . S
Mg56 O57 2.028 . S
Mg56 O63 1.986 . S
Mg56 O65 2.114 . S
Mg56 O66 2.251 . S
Mg56 O69 2.010 . S
O57 Mg56 2.028 . S
O57 C60 1.250 . S
O58 Mg59 2.028 . S
O58 C60 1.248 . S
Mg59 O58 2.028 . S
Mg59 O64 2.032 . S
Mg59 O66 2.079 . S
C60 O57 1.250 . S
C60 O58 1.248 . S
C61 O62 1.264 . S
C61 O69 1.249 . S
O62 C61 1.264 . S
O63 Mg56 1.986 . S
O63 C67 1.246 . S
O64 Mg59 2.032 . S
O64 C67 1.259 . S
O65 Mg56 2.114 . S
O65 C68 1.252 . S
O66 Mg56 2.251 . S
O66 Mg59 2.079 . S
O66 C68 1.273 . S
C67 O63 1.246 . S
C67 O64 1.259 . S
C68 O65 1.252 . S
C68 O66 1.273 . S
O69 Mg56 2.010 . S
O69 C61 1.249 . S
Mg70 O71 2.028 . S
Mg70 O77 1.986 . S
Mg70 O79 2.114 . S
Mg70 O80 2.251 . S
Mg70 O83 2.010 . S
O71 Mg70 2.028 . S
O71 C74 1.250 . S
O72 Mg73 2.028 . S
O72 C74 1.248 . S
Mg73 O72 2.028 . S
Mg73 O78 2.032 . S
Mg73 O80 2.079 . S
C74 O71 1.250 . S
C74 O72 1.248 . S
C75 O76 1.264 . S
C75 O83 1.249 . S
O76 C75 1.264 . S
O77 Mg70 1.986 . S
O77 C81 1.246 . S
O78 Mg73 2.032 . S
O78 C81 1.259 . S
O79 Mg70 2.114 . S
O79 C82 1.252 . S
O80 Mg70 2.251 . S
O80 Mg73 2.079 . S
O80 C82 1.273 . S
C81 O77 1.246 . S
C81 O78 1.259 . S
C82 O79 1.252 . S
C82 O80 1.273 . S
O83 Mg70 2.010 . S
O83 C75 1.249 . S
Mg84 O85 2.028 . S
Mg84 O91 1.986 . S
Mg84 O93 2.114 . S
Mg84 O94 2.251 . S
Mg84 O97 2.010 . S
O85 Mg84 2.028 . S
O85 C88 1.250 . S
O86 Mg87 2.028 . S
O86 C88 1.248 . S
Mg87 O86 2.028 . S
Mg87 O92 2.032 . S
Mg87 O94 2.079 . S
C88 O85 1.250 . S
C88 O86 1.248 . S
C89 O90 1.264 . S
C89 O97 1.249 . S
O90 C89 1.264 . S
O91 Mg84 1.986 . S
O91 C95 1.246 . S
O92 Mg87 2.032 . S
O92 C95 1.259 . S
O93 Mg84 2.114 . S
O93 C96 1.252 . S
O94 Mg84 2.251 . S
O94 Mg87 2.079 . S
O94 C96 1.273 . S
C95 O91 1.246 . S
C95 O92 1.259 . S
C96 O93 1.252 . S
C96 O94 1.273 . S
O97 Mg84 2.010 . S
O97 C89 1.249 . S
Mg98 O99 2.028 . S
Mg98 O105 1.986 . S
Mg98 O107 2.114 . S
Mg98 O108 2.251 . S
Mg98 O111 2.010 . S
O99 Mg98 2.028 . S
O99 C102 1.250 . S
O100 Mg101 2.028 . S
O100 C102 1.248 . S
Mg101 O100 2.028 . S
Mg101 O106 2.032 . S
Mg101 O108 2.079 . S
C102 O99 1.250 . S
C102 O100 1.248 . S
C103 O104 1.264 . S
C103 O111 1.249 . S
O104 C103 1.264 . S
O105 Mg98 1.986 . S
O105 C109 1.246 . S
O106 Mg101 2.032 . S
O106 C109 1.259 . S
O107 Mg98 2.114 . S
O107 C110 1.252 . S
O108 Mg98 2.251 . S
O108 Mg101 2.079 . S
O108 C110 1.273 . S
C109 O105 1.246 . S
C109 O106 1.259 . S
C110 O107 1.252 . S
C110 O108 1.273 . S
O111 Mg98 2.010 . S
O111 C103 1.249 . S
Mg112 O113 2.028 . S
Mg112 O119 1.986 . S
Mg112 O121 2.114 . S
Mg112 O122 2.251 . S
Mg112 O125 2.010 . S
O113 Mg112 2.028 . S
O113 C116 1.250 . S
O114 Mg115 2.028 . S
O114 C116 1.248 . S
Mg115 O114 2.028 . S
Mg115 O120 2.032 . S
Mg115 O122 2.079 . S
C116 O113 1.250 . S
C116 O114 1.248 . S
C117 O118 1.264 . S
C117 O125 1.249 . S
O118 C117 1.264 . S
O119 Mg112 1.986 . S
O119 C123 1.246 . S
O120 Mg115 2.032 . S
O120 C123 1.259 . S
O121 Mg112 2.114 . S
O121 C124 1.252 . S
O122 Mg112 2.251 . S
O122 Mg115 2.079 . S
O122 C124 1.273 . S
C123 O119 1.246 . S
C123 O120 1.259 . S
C124 O121 1.252 . S
C124 O122 1.273 . S
O125 Mg112 2.010 . S
O125 C117 1.249 . S
Mg126 O127 2.028 . S
Mg126 O133 1.986 . S
Mg126 O135 2.114 . S
Mg126 O136 2.251 . S
Mg126 O139 2.010 . S
O127 Mg126 2.028 . S
O127 C130 1.250 . S
O128 Mg129 2.028 . S
O128 C130 1.248 . S
Mg129 O128 2.028 . S
Mg129 O134 2.032 . S
Mg129 O136 2.079 . S
C130 O127 1.250 . S
C130 O128 1.248 . S
C131 O132 1.264 . S
C131 O139 1.249 . S
O132 C131 1.264 . S
O133 Mg126 1.986 . S
O133 C137 1.246 . S
O134 Mg129 2.032 . S
O134 C137 1.259 . S
O135 Mg126 2.114 . S
O135 C138 1.252 . S
O136 Mg126 2.251 . S
O136 Mg129 2.079 . S
O136 C138 1.273 . S
C137 O133 1.246 . S
C137 O134 1.259 . S
C138 O135 1.252 . S
C138 O136 1.273 . S
O139 Mg126 2.010 . S
O139 C131 1.249 . S
Mg140 O141 2.028 . S
Mg140 O147 1.986 . S
Mg140 O149 2.114 . S
Mg140 O150 2.251 . S
Mg140 O153 2.010 . S
O141 Mg140 2.028 . S
O141 C144 1.250 . S
O142 Mg143 2.028 . S
O142 C144 1.248 . S
Mg143 O142 2.028 . S
Mg143 O148 2.032 . S
Mg143 O150 2.079 . S
C144 O141 1.250 . S
C144 O142 1.248 . S
C145 O146 1.264 . S
C145 O153 1.249 . S
O146 C145 1.264 . S
O147 Mg140 1.986 . S
O147 C151 1.246 . S
O148 Mg143 2.032 . S
O148 C151 1.259 . S
O149 Mg140 2.114 . S
O149 C152 1.252 . S
O150 Mg140 2.251 . S
O150 Mg143 2.079 . S
O150 C152 1.273 . S
C151 O147 1.246 . S
C151 O148 1.259 . S
C152 O149 1.252 . S
C152 O150 1.273 . S
O153 Mg140 2.010 . S
O153 C145 1.249 . S
Mg154 O155 2.028 . S
Mg154 O161 1.986 . S
Mg154 O163 2.114 . S
Mg154 O164 2.251 . S
Mg154 O167 2.010 . S
O155 Mg154 2.028 . S
O155 C158 1.250 . S
O156 Mg157 2.028 . S
O156 C158 1.248 . S
Mg157 O156 2.028 . S
Mg157 O162 2.032 . S
Mg157 O164 2.079 . S
C158 O155 1.250 . S
C158 O156 1.248 . S
C159 O160 1.264 . S
C159 O167 1.249 . S
O160 C159 1.264 . S
O161 Mg154 1.986 . S
O161 C165 1.246 . S
O162 Mg157 2.032 . S
O162 C165 1.259 . S
O163 Mg154 2.114 . S
O163 C166 1.252 . S
O164 Mg154 2.251 . S
O164 Mg157 2.079 . S
O164 C166 1.273 . S
C165 O161 1.246 . S
C165 O162 1.259 . S
C166 O163 1.252 . S
C166 O164 1.273 . S
O167 Mg154 2.010 . S
O167 C159 1.249 . S
Mg168 O169 2.028 . S
Mg168 O175 1.986 . S
Mg168 O177 2.114 . S
Mg168 O178 2.251 . S
Mg168 O181 2.010 . S
O169 Mg168 2.028 . S
O169 C172 1.250 . S
O170 Mg171 2.028 . S
O170 C172 1.248 . S
Mg171 O170 2.028 . S
Mg171 O176 2.032 . S
Mg171 O178 2.079 . S
C172 O169 1.250 . S
C172 O170 1.248 . S
C173 O174 1.264 . S
C173 O181 1.249 . S
O174 C173 1.264 . S
O175 Mg168 1.986 . S
O175 C179 1.246 . S
O176 Mg171 2.032 . S
O176 C179 1.259 . S
O177 Mg168 2.114 . S
O177 C180 1.252 . S
O178 Mg168 2.251 . S
O178 Mg171 2.079 . S
O178 C180 1.273 . S
C179 O175 1.246 . S
C179 O176 1.259 . S
C180 O177 1.252 . S
C180 O178 1.273 . S
O181 Mg168 2.010 . S
O181 C173 1.249 . S
Mg182 O183 2.028 . S
Mg182 O189 1.986 . S
Mg182 O191 2.114 . S
Mg182 O192 2.251 . S
Mg182 O195 2.010 . S
O183 Mg182 2.028 . S
O183 C186 1.250 . S
O184 Mg185 2.028 . S
O184 C186 1.248 . S
Mg185 O184 2.028 . S
Mg185 O190 2.032 . S
Mg185 O192 2.079 . S
C186 O183 1.250 . S
C186 O184 1.248 . S
C187 O188 1.264 . S
C187 O195 1.249 . S
O188 C187 1.264 . S
O189 Mg182 1.986 . S
O189 C193 1.246 . S
O190 Mg185 2.032 . S
O190 C193 1.259 . S
O191 Mg182 2.114 . S
O191 C194 1.252 . S
O192 Mg182 2.251 . S
O192 Mg185 2.079 . S
O192 C194 1.273 . S
C193 O189 1.246 . S
C193 O190 1.259 . S
C194 O191 1.252 . S
C194 O192 1.273 . S
O195 Mg182 2.010 . S
O195 C187 1.249 . S
Mg196 O197 2.028 . S
Mg196 O203 1.986 . S
Mg196 O205 2.114 . S
Mg196 O206 2.251 . S
Mg196 O209 2.010 . S
O197 Mg196 2.028 . S
O197 C200 1.250 . S
O198 Mg199 2.028 . S
O198 C200 1.248 . S
Mg199 O198 2.028 . S
Mg199 O204 2.032 . S
Mg199 O206 2.079 . S
C200 O197 1.250 . S
C200 O198 1.248 . S
C201 O202 1.264 . S
C201 O209 1.249 . S
O202 C201 1.264 . S
O203 Mg196 1.986 . S
O203 C207 1.246 . S
O204 Mg199 2.032 . S
O204 C207 1.259 . S
O205 Mg196 2.114 . S
O205 C208 1.252 . S
O206 Mg196 2.251 . S
O206 Mg199 2.079 . S
O206 C208 1.273 . S
C207 O203 1.246 . S
C207 O204 1.259 . S
C208 O205 1.252 . S
C208 O206 1.273 . S
O209 Mg196 2.010 . S
O209 C201 1.249 . S
Mg210 O211 2.028 . S
Mg210 O217 1.986 . S
Mg210 O219 2.114 . S
Mg210 O220 2.251 . S
Mg210 O223 2.010 . S
O211 Mg210 2.028 . S
O211 C214 1.250 . S
O212 Mg213 2.028 . S
O212 C214 1.248 . S
Mg213 O212 2.028 . S
Mg213 O218 2.032 . S
Mg213 O220 2.079 . S
C214 O211 1.250 . S
C214 O212 1.248 . S
C215 O216 1.264 . S
C215 O223 1.249 . S
O216 C215 1.264 . S
O217 Mg210 1.986 . S
O217 C221 1.246 . S
O218 Mg213 2.032 . S
O218 C221 1.259 . S
O219 Mg210 2.114 . S
O219 C222 1.252 . S
O220 Mg210 2.251 . S
O220 Mg213 2.079 . S
O220 C222 1.273 . S
C221 O217 1.246 . S
C221 O218 1.259 . S
C222 O219 1.252 . S
C222 O220 1.273 . S
O223 Mg210 2.010 . S
O223 C215 1.249 . S
Mg224 O225 2.028 . S
Mg224 O231 1.986 . S
Mg224 O233 2.114 . S
Mg224 O234 2.251 . S
Mg224 O237 2.010 . S
O225 Mg224 2.028 . S
O225 C228 1.250 . S
O226 Mg227 2.028 . S
O226 C228 1.248 . S
Mg227 O226 2.028 . S
Mg227 O232 2.032 . S
Mg227 O234 2.079 . S
C228 O225 1.250 . S
C228 O226 1.248 . S
C229 O230 1.264 . S
C229 O237 1.249 . S
O230 C229 1.264 . S
O231 Mg224 1.986 . S
O231 C235 1.246 . S
O232 Mg227 2.032 . S
O232 C235 1.259 . S
O233 Mg224 2.114 . S
O233 C236 1.252 . S
O234 Mg224 2.251 . S
O234 Mg227 2.079 . S
O234 C236 1.273 . S
C235 O231 1.246 . S
C235 O232 1.259 . S
C236 O233 1.252 . S
C236 O234 1.273 . S
O237 Mg224 2.010 . S
O237 C229 1.249 . S
Mg238 O239 2.028 . S
Mg238 O245 1.986 . S
Mg238 O247 2.114 . S
Mg238 O248 2.251 . S
Mg238 O251 2.010 . S
O239 Mg238 2.028 . S
O239 C242 1.250 . S
O240 Mg241 2.028 . S
O240 C242 1.248 . S
Mg241 O240 2.028 . S
Mg241 O246 2.032 . S
Mg241 O248 2.079 . S
C242 O239 1.250 . S
C242 O240 1.248 . S
C243 O244 1.264 . S
C243 O251 1.249 . S
O244 C243 1.264 . S
O245 Mg238 1.986 . S
O245 C249 1.246 . S
O246 Mg241 2.032 . S
O246 C249 1.259 . S
O247 Mg238 2.114 . S
O247 C250 1.252 . S
O248 Mg238 2.251 . S
O248 Mg241 2.079 . S
O248 C250 1.273 . S
C249 O245 1.246 . S
C249 O246 1.259 . S
C250 O247 1.252 . S
C250 O248 1.273 . S
O251 Mg238 2.010 . S
O251 C243 1.249 . S
Mg252 O253 2.028 . S
Mg252 O259 1.986 . S
Mg252 O261 2.114 . S
Mg252 O262 2.251 . S
Mg252 O265 2.010 . S
O253 Mg252 2.028 . S
O253 C256 1.250 . S
O254 Mg255 2.028 . S
O254 C256 1.248 . S
Mg255 O254 2.028 . S
Mg255 O260 2.032 . S
Mg255 O262 2.079 . S
C256 O253 1.250 . S
C256 O254 1.248 . S
C257 O258 1.264 . S
C257 O265 1.249 . S
O258 C257 1.264 . S
O259 Mg252 1.986 . S
O259 C263 1.246 . S
O260 Mg255 2.032 . S
O260 C263 1.259 . S
O261 Mg252 2.114 . S
O261 C264 1.252 . S
O262 Mg252 2.251 . S
O262 Mg255 2.079 . S
O262 C264 1.273 . S
C263 O259 1.246 . S
C263 O260 1.259 . S
C264 O261 1.252 . S
C264 O262 1.273 . S
O265 Mg252 2.010 . S
O265 C257 1.249 . S
Mg266 O267 2.028 . S
Mg266 O273 1.986 . S
Mg266 O275 2.114 . S
Mg266 O276 2.251 . S
Mg266 O279 2.010 . S
O267 Mg266 2.028 . S
O267 C270 1.250 . S
O268 Mg269 2.028 . S
O268 C270 1.248 . S
Mg269 O268 2.028 . S
Mg269 O274 2.032 . S
Mg269 O276 2.079 . S
C270 O267 1.250 . S
C270 O268 1.248 . S
C271 O272 1.264 . S
C271 O279 1.249 . S
O272 C271 1.264 . S
O273 Mg266 1.986 . S
O273 C277 1.246 . S
O274 Mg269 2.032 . S
O274 C277 1.259 . S
O275 Mg266 2.114 . S
O275 C278 1.252 . S
O276 Mg266 2.251 . S
O276 Mg269 2.079 . S
O276 C278 1.273 . S
C277 O273 1.246 . S
C277 O274 1.259 . S
C278 O275 1.252 . S
C278 O276 1.273 . S
O279 Mg266 2.010 . S
O279 C271 1.249 . S
Mg280 O281 2.028 . S
Mg280 O287 1.986 . S
Mg280 O289 2.114 . S
Mg280 O290 2.251 . S
Mg280 O293 2.010 . S
O281 Mg280 2.028 . S
O281 C284 1.250 . S
O282 Mg283 2.028 . S
O282 C284 1.248 . S
Mg283 O282 2.028 . S
Mg283 O288 2.032 . S
Mg283 O290 2.079 . S
C284 O281 1.250 . S
C284 O282 1.248 . S
C285 O286 1.264 . S
C285 O293 1.249 . S
O286 C285 1.264 . S
O287 Mg280 1.986 . S
O287 C291 1.246 . S
O288 Mg283 2.032 . S
O288 C291 1.259 . S
O289 Mg280 2.114 . S
O289 C292 1.252 . S
O290 Mg280 2.251 . S
O290 Mg283 2.079 . S
O290 C292 1.273 . S
C291 O287 1.246 . S
C291 O288 1.259 . S
C292 O289 1.252 . S
C292 O290 1.273 . S
O293 Mg280 2.010 . S
O293 C285 1.249 . S
Mg294 O295 2.028 . S
Mg294 O301 1.986 . S
Mg294 O303 2.114 . S
Mg294 O304 2.251 . S
Mg294 O307 2.010 . S
O295 Mg294 2.028 . S
O295 C298 1.250 . S
O296 Mg297 2.028 . S
O296 C298 1.248 . S
Mg297 O296 2.028 . S
Mg297 O302 2.032 . S
Mg297 O304 2.079 . S
C298 O295 1.250 . S
C298 O296 1.248 . S
C299 O300 1.264 . S
C299 O307 1.249 . S
O300 C299 1.264 . S
O301 Mg294 1.986 . S
O301 C305 1.246 . S
O302 Mg297 2.032 . S
O302 C305 1.259 . S
O303 Mg294 2.114 . S
O303 C306 1.252 . S
O304 Mg294 2.251 . S
O304 Mg297 2.079 . S
O304 C306 1.273 . S
C305 O301 1.246 . S
C305 O302 1.259 . S
C306 O303 1.252 . S
C306 O304 1.273 . S
O307 Mg294 2.010 . S
O307 C299 1.249 . S
Mg308 O309 2.028 . S
Mg308 O315 1.986 . S
Mg308 O317 2.114 . S
Mg308 O318 2.251 . S
Mg308 O321 2.010 . S
O309 Mg308 2.028 . S
O309 C312 1.250 . S
O310 Mg311 2.028 . S
O310 C312 1.248 . S
Mg311 O310 2.028 . S
Mg311 O316 2.032 . S
Mg311 O318 2.079 . S
C312 O309 1.250 . S
C312 O310 1.248 . S
C313 O314 1.264 . S
C313 O321 1.249 . S
O314 C313 1.264 . S
O315 Mg308 1.986 . S
O315 C319 1.246 . S
O316 Mg311 2.032 . S
O316 C319 1.259 . S
O317 Mg308 2.114 . S
O317 C320 1.252 . S
O318 Mg308 2.251 . S
O318 Mg311 2.079 . S
O318 C320 1.273 . S
C319 O315 1.246 . S
C319 O316 1.259 . S
C320 O317 1.252 . S
C320 O318 1.273 . S
O321 Mg308 2.010 . S
O321 C313 1.249 . S
Mg322 O323 2.028 . S
Mg322 O329 1.986 . S
Mg322 O331 2.114 . S
Mg322 O332 2.251 . S
Mg322 O335 2.010 . S
O323 Mg322 2.028 . S
O323 C326 1.250 . S
O324 Mg325 2.028 . S
O324 C326 1.248 . S
Mg325 O324 2.028 . S
Mg325 O330 2.032 . S
Mg325 O332 2.079 . S
C326 O323 1.250 . S
C326 O324 1.248 . S
C327 O328 1.264 . S
C327 O335 1.249 . S
O328 C327 1.264 . S
O329 Mg322 1.986 . S
O329 C333 1.246 . S
O330 Mg325 2.032 . S
O330 C333 1.259 . S
O331 Mg322 2.114 . S
O331 C334 1.252 . S
O332 Mg322 2.251 . S
O332 Mg325 2.079 . S
O332 C334 1.273 . S
C333 O329 1.246 . S
C333 O330 1.259 . S
C334 O331 1.252 . S
C334 O332 1.273 . S
O335 Mg322 2.010 . S
O335 C327 1.249 . S
H336 C342 0.930 . S
H337 C346 0.930 . S
H338 C351 0.929 . S
H339 C349 0.929 . S
H340 C344 0.929 . S
H341 C350 0.929 . S
C342 H336 0.930 . S
C342 C343 1.367 . S
C342 C350 1.378 . S
C343 C342 1.367 . S
C343 C351 1.433 . S
C344 H340 0.929 . S
C344 C346 1.378 . S
C344 C348 1.350 . S
C345 C348 1.463 . S
C345 C350 1.350 . S
C345 N353 1.427 . S
C346 H337 0.930 . S
C346 C344 1.378 . S
C346 C347 1.367 . S
C347 C346 1.367 . S
C347 C349 1.433 . S
C348 C344 1.350 . S
C348 C345 1.463 . S
C348 N352 1.427 . S
C349 H339 0.929 . S
C349 C347 1.433 . S
C349 N352 1.384 . S
C350 H341 0.929 . S
C350 C342 1.378 . S
C350 C345 1.350 . S
C351 H338 0.929 . S
C351 C343 1.433 . S
C351 N353 1.384 . S
N352 C348 1.427 . S
N352 C349 1.384 . S
N353 C345 1.427 . S
N353 C351 1.384 . S
H354 C360 0.930 . S
H355 C364 0.930 . S
H356 C369 0.929 . S
H357 C367 0.929 . S
H358 C362 0.929 . S
H359 C368 0.929 . S
C360 H354 0.930 . S
C360 C361 1.367 . S
C360 C368 1.378 . S
C361 C360 1.367 . S
C361 C369 1.433 . S
C362 H358 0.929 . S
C362 C364 1.378 . S
C362 C366 1.350 . S
C363 C366 1.463 . S
C363 C368 1.350 . S
C363 N371 1.427 . S
C364 H355 0.930 . S
C364 C362 1.378 . S
C364 C365 1.367 . S
C365 C364 1.367 . S
C365 C367 1.433 . S
C366 C362 1.350 . S
C366 C363 1.463 . S
C366 N370 1.427 . S
C367 H357 0.929 . S
C367 C365 1.433 . S
C367 N370 1.384 . S
C368 H359 0.929 . S
C368 C360 1.378 . S
C368 C363 1.350 . S
C369 H356 0.929 . S
C369 C361 1.433 . S
C369 N371 1.384 . S
N370 C366 1.427 . S
N370 C367 1.384 . S
N371 C363 1.427 . S
N371 C369 1.384 . S
H372 C378 0.930 . S
H373 C382 0.930 . S
H374 C387 0.929 . S
H375 C385 0.929 . S
H376 C380 0.929 . S
H377 C386 0.929 . S
C378 H372 0.930 . S
C378 C379 1.367 . S
C378 C386 1.378 . S
C379 C378 1.367 . S
C379 C387 1.433 . S
C380 H376 0.929 . S
C380 C382 1.378 . S
C380 C384 1.350 . S
C381 C384 1.463 . S
C381 C386 1.350 . S
C381 N389 1.427 . S
C382 H373 0.930 . S
C382 C380 1.378 . S
C382 C383 1.367 . S
C383 C382 1.367 . S
C383 C385 1.433 . S
C384 C380 1.350 . S
C384 C381 1.463 . S
C384 N388 1.427 . S
C385 H375 0.929 . S
C385 C383 1.433 . S
C385 N388 1.384 . S
C386 H377 0.929 . S
C386 C378 1.378 . S
C386 C381 1.350 . S
C387 H374 0.929 . S
C387 C379 1.433 . S
C387 N389 1.384 . S
N388 C384 1.427 . S
N388 C385 1.384 . S
N389 C381 1.427 . S
N389 C387 1.384 . S
H390 C396 0.930 . S
H391 C400 0.930 . S
H392 C405 0.929 . S
H393 C403 0.929 . S
H394 C398 0.929 . S
H395 C404 0.929 . S
C396 H390 0.930 . S
C396 C397 1.367 . S
C396 C404 1.378 . S
C397 C396 1.367 . S
C397 C405 1.433 . S
C398 H394 0.929 . S
C398 C400 1.378 . S
C398 C402 1.350 . S
C399 C402 1.463 . S
C399 C404 1.350 . S
C399 N407 1.427 . S
C400 H391 0.930 . S
C400 C398 1.378 . S
C400 C401 1.367 . S
C401 C400 1.367 . S
C401 C403 1.433 . S
C402 C398 1.350 . S
C402 C399 1.463 . S
C402 N406 1.427 . S
C403 H393 0.929 . S
C403 C401 1.433 . S
C403 N406 1.384 . S
C404 H395 0.929 . S
C404 C396 1.378 . S
C404 C399 1.350 . S
C405 H392 0.929 . S
C405 C397 1.433 . S
C405 N407 1.384 . S
N406 C402 1.427 . S
N406 C403 1.384 . S
N407 C399 1.427 . S
N407 C405 1.384 . S
H408 C414 0.930 . S
H409 C418 0.930 . S
H410 C423 0.929 . S
H411 C421 0.929 . S
H412 C416 0.929 . S
H413 C422 0.929 . S
C414 H408 0.930 . S
C414 C415 1.367 . S
C414 C422 1.378 . S
C415 C414 1.367 . S
C415 C423 1.433 . S
C416 H412 0.929 . S
C416 C418 1.378 . S
C416 C420 1.350 . S
C417 C420 1.463 . S
C417 C422 1.350 . S
C417 N425 1.427 . S
C418 H409 0.930 . S
C418 C416 1.378 . S
C418 C419 1.367 . S
C419 C418 1.367 . S
C419 C421 1.433 . S
C420 C416 1.350 . S
C420 C417 1.463 . S
C420 N424 1.427 . S
C421 H411 0.929 . S
C421 C419 1.433 . S
C421 N424 1.384 . S
C422 H413 0.929 . S
C422 C414 1.378 . S
C422 C417 1.350 . S
C423 H410 0.929 . S
C423 C415 1.433 . S
C423 N425 1.384 . S
N424 C420 1.427 . S
N424 C421 1.384 . S
N425 C417 1.427 . S
N425 C423 1.384 . S
H426 C432 0.930 . S
H427 C436 0.930 . S
H428 C441 0.929 . S
H429 C439 0.929 . S
H430 C434 0.929 . S
H431 C440 0.929 . S
C432 H426 0.930 . S
C432 C433 1.367 . S
C432 C440 1.378 . S
C433 C432 1.367 . S
C433 C441 1.433 . S
C434 H430 0.929 . S
C434 C436 1.378 . S
C434 C438 1.350 . S
C435 C438 1.463 . S
C435 C440 1.350 . S
C435 N443 1.427 . S
C436 H427 0.930 . S
C436 C434 1.378 . S
C436 C437 1.367 . S
C437 C436 1.367 . S
C437 C439 1.433 . S
C438 C434 1.350 . S
C438 C435 1.463 . S
C438 N442 1.427 . S
C439 H429 0.929 . S
C439 C437 1.433 . S
C439 N442 1.384 . S
C440 H431 0.929 . S
C440 C432 1.378 . S
C440 C435 1.350 . S
C441 H428 0.929 . S
C441 C433 1.433 . S
C441 N443 1.384 . S
N442 C438 1.427 . S
N442 C439 1.384 . S
N443 C435 1.427 . S
N443 C441 1.384 . S
H444 C450 0.930 . S
H445 C454 0.930 . S
H446 C459 0.929 . S
H447 C457 0.929 . S
H448 C452 0.929 . S
H449 C458 0.929 . S
C450 H444 0.930 . S
C450 C451 1.367 . S
C450 C458 1.378 . S
C451 C450 1.367 . S
C451 C459 1.433 . S
C452 H448 0.929 . S
C452 C454 1.378 . S
C452 C456 1.350 . S
C453 C456 1.463 . S
C453 C458 1.350 . S
C453 N461 1.427 . S
C454 H445 0.930 . S
C454 C452 1.378 . S
C454 C455 1.367 . S
C455 C454 1.367 . S
C455 C457 1.433 . S
C456 C452 1.350 . S
C456 C453 1.463 . S
C456 N460 1.427 . S
C457 H447 0.929 . S
C457 C455 1.433 . S
C457 N460 1.384 . S
C458 H449 0.929 . S
C458 C450 1.378 . S
C458 C453 1.350 . S
C459 H446 0.929 . S
C459 C451 1.433 . S
C459 N461 1.384 . S
N460 C456 1.427 . S
N460 C457 1.384 . S
N461 C453 1.427 . S
N461 C459 1.384 . S
H462 C468 0.930 . S
H463 C472 0.930 . S
H464 C477 0.929 . S
H465 C475 0.929 . S
H466 C470 0.929 . S
H467 C476 0.929 . S
C468 H462 0.930 . S
C468 C469 1.367 . S
C468 C476 1.378 . S
C469 C468 1.367 . S
C469 C477 1.433 . S
C470 H466 0.929 . S
C470 C472 1.378 . S
C470 C474 1.350 . S
C471 C474 1.463 . S
C471 C476 1.350 . S
C471 N479 1.427 . S
C472 H463 0.930 . S
C472 C470 1.378 . S
C472 C473 1.367 . S
C473 C472 1.367 . S
C473 C475 1.433 . S
C474 C470 1.350 . S
C474 C471 1.463 . S
C474 N478 1.427 . S
C475 H465 0.929 . S
C475 C473 1.433 . S
C475 N478 1.384 . S
C476 H467 0.929 . S
C476 C468 1.378 . S
C476 C471 1.350 . S
C477 H464 0.929 . S
C477 C469 1.433 . S
C477 N479 1.384 . S
N478 C474 1.427 . S
N478 C475 1.384 . S
N479 C471 1.427 . S
N479 C477 1.384 . S
H480 C486 0.930 . S
H481 C490 0.930 . S
H482 C495 0.929 . S
H483 C493 0.929 . S
H484 C488 0.929 . S
H485 C494 0.929 . S
C486 H480 0.930 . S
C486 C487 1.367 . S
C486 C494 1.378 . S
C487 C486 1.367 . S
C487 C495 1.433 . S
C488 H484 0.929 . S
C488 C490 1.378 . S
C488 C492 1.350 . S
C489 C492 1.463 . S
C489 C494 1.350 . S
C489 N497 1.427 . S
C490 H481 0.930 . S
C490 C488 1.378 . S
C490 C491 1.367 . S
C491 C490 1.367 . S
C491 C493 1.433 . S
C492 C488 1.350 . S
C492 C489 1.463 . S
C492 N496 1.427 . S
C493 H483 0.929 . S
C493 C491 1.433 . S
C493 N496 1.384 . S
C494 H485 0.929 . S
C494 C486 1.378 . S
C494 C489 1.350 . S
C495 H482 0.929 . S
C495 C487 1.433 . S
C495 N497 1.384 . S
N496 C492 1.427 . S
N496 C493 1.384 . S
N497 C489 1.427 . S
N497 C495 1.384 . S
H498 C504 0.930 . S
H499 C508 0.930 . S
H500 C513 0.929 . S
H501 C511 0.929 . S
H502 C506 0.929 . S
H503 C512 0.929 . S
C504 H498 0.930 . S
C504 C505 1.367 . S
C504 C512 1.378 . S
C505 C504 1.367 . S
C505 C513 1.433 . S
C506 H502 0.929 . S
C506 C508 1.378 . S
C506 C510 1.350 . S
C507 C510 1.463 . S
C507 C512 1.350 . S
C507 N515 1.427 . S
C508 H499 0.930 . S
C508 C506 1.378 . S
C508 C509 1.367 . S
C509 C508 1.367 . S
C509 C511 1.433 . S
C510 C506 1.350 . S
C510 C507 1.463 . S
C510 N514 1.427 . S
C511 H501 0.929 . S
C511 C509 1.433 . S
C511 N514 1.384 . S
C512 H503 0.929 . S
C512 C504 1.378 . S
C512 C507 1.350 . S
C513 H500 0.929 . S
C513 C505 1.433 . S
C513 N515 1.384 . S
N514 C510 1.427 . S
N514 C511 1.384 . S
N515 C507 1.427 . S
N515 C513 1.384 . S
H516 C522 0.930 . S
H517 C526 0.930 . S
H518 C531 0.929 . S
H519 C529 0.929 . S
H520 C524 0.929 . S
H521 C530 0.929 . S
C522 H516 0.930 . S
C522 C523 1.367 . S
C522 C530 1.378 . S
C523 C522 1.367 . S
C523 C531 1.433 . S
C524 H520 0.929 . S
C524 C526 1.378 . S
C524 C528 1.350 . S
C525 C528 1.463 . S
C525 C530 1.350 . S
C525 N533 1.427 . S
C526 H517 0.930 . S
C526 C524 1.378 . S
C526 C527 1.367 . S
C527 C526 1.367 . S
C527 C529 1.433 . S
C528 C524 1.350 . S
C528 C525 1.463 . S
C528 N532 1.427 . S
C529 H519 0.929 . S
C529 C527 1.433 . S
C529 N532 1.384 . S
C530 H521 0.929 . S
C530 C522 1.378 . S
C530 C525 1.350 . S
C531 H518 0.929 . S
C531 C523 1.433 . S
C531 N533 1.384 . S
N532 C528 1.427 . S
N532 C529 1.384 . S
N533 C525 1.427 . S
N533 C531 1.384 . S
H534 C540 0.930 . S
H535 C544 0.930 . S
H536 C549 0.929 . S
H537 C547 0.929 . S
H538 C542 0.929 . S
H539 C548 0.929 . S
C540 H534 0.930 . S
C540 C541 1.367 . S
C540 C548 1.378 . S
C541 C540 1.367 . S
C541 C549 1.433 . S
C542 H538 0.929 . S
C542 C544 1.378 . S
C542 C546 1.350 . S
C543 C546 1.463 . S
C543 C548 1.350 . S
C543 N551 1.427 . S
C544 H535 0.930 . S
C544 C542 1.378 . S
C544 C545 1.367 . S
C545 C544 1.367 . S
C545 C547 1.433 . S
C546 C542 1.350 . S
C546 C543 1.463 . S
C546 N550 1.427 . S
C547 H537 0.929 . S
C547 C545 1.433 . S
C547 N550 1.384 . S
C548 H539 0.929 . S
C548 C540 1.378 . S
C548 C543 1.350 . S
C549 H536 0.929 . S
C549 C541 1.433 . S
C549 N551 1.384 . S
N550 C546 1.427 . S
N550 C547 1.384 . S
N551 C543 1.427 . S
N551 C549 1.384 . S
H552 C558 0.930 . S
H553 C562 0.930 . S
H554 C567 0.929 . S
H555 C565 0.929 . S
H556 C560 0.929 . S
H557 C566 0.929 . S
C558 H552 0.930 . S
C558 C559 1.367 . S
C558 C566 1.378 . S
C559 C558 1.367 . S
C559 C567 1.433 . S
C560 H556 0.929 . S
C560 C562 1.378 . S
C560 C564 1.350 . S
C561 C564 1.463 1_556 S
C561 C566 1.350 . S
C561 N569 1.423 1_556 S
C562 H553 0.930 . S
C562 C560 1.378 . S
C562 C563 1.367 . S
C563 C562 1.367 . S
C563 C565 1.433 . S
C564 C560 1.350 . S
C564 C561 1.463 1_554 S
C564 N568 1.423 1_554 S
C565 H555 0.929 . S
C565 C563 1.433 . S
C565 N568 1.377 1_554 S
C566 H557 0.929 . S
C566 C558 1.378 . S
C566 C561 1.350 . S
C567 H554 0.929 . S
C567 C559 1.433 . S
C567 N569 1.377 1_556 S
N568 C564 1.423 1_556 S
N568 C565 1.377 1_556 S
N569 C561 1.423 1_554 S
N569 C567 1.377 1_554 S
H570 C576 0.930 . S
H571 C580 0.930 . S
H572 C585 0.929 . S
H573 C583 0.929 . S
H574 C578 0.929 . S
H575 C584 0.929 . S
C576 H570 0.930 . S
C576 C577 1.367 . S
C576 C584 1.378 . S
C577 C576 1.367 . S
C577 C585 1.433 . S
C578 H574 0.929 . S
C578 C580 1.378 . S
C578 C582 1.350 . S
C579 C582 1.463 . S
C579 C584 1.350 . S
C579 N587 1.427 . S
C580 H571 0.930 . S
C580 C578 1.378 . S
C580 C581 1.367 . S
C581 C580 1.367 . S
C581 C583 1.433 . S
C582 C578 1.350 . S
C582 C579 1.463 . S
C582 N586 1.427 . S
C583 H573 0.929 . S
C583 C581 1.433 . S
C583 N586 1.384 . S
C584 H575 0.929 . S
C584 C576 1.378 . S
C584 C579 1.350 . S
C585 H572 0.929 . S
C585 C577 1.433 . S
C585 N587 1.384 . S
N586 C582 1.427 . S
N586 C583 1.384 . S
N587 C579 1.427 . S
N587 C585 1.384 . S
H588 C594 0.930 . S
H589 C598 0.930 . S
H590 C603 0.929 1_556 S
H591 C601 0.929 1_554 S
H592 C596 0.929 . S
H593 C602 0.929 . S
C594 H588 0.930 . S
C594 C595 1.367 . S
C594 C602 1.378 . S
C595 C594 1.367 . S
C595 C603 1.433 . S
C596 H592 0.929 . S
C596 C598 1.378 . S
C596 C600 1.350 . S
C597 C600 1.463 1_554 S
C597 C602 1.350 . S
C597 N605 1.427 1_554 S
C598 H589 0.930 . S
C598 C596 1.378 . S
C598 C599 1.367 . S
C599 C598 1.367 . S
C599 C601 1.433 . S
C600 C596 1.350 . S
C600 C597 1.463 1_556 S
C600 N604 1.427 1_556 S
C601 H591 0.929 1_556 S
C601 C599 1.433 . S
C601 N604 1.384 1_556 S
C602 H593 0.929 . S
C602 C594 1.378 . S
C602 C597 1.350 . S
C603 H590 0.929 1_554 S
C603 C595 1.433 . S
C603 N605 1.384 1_554 S
N604 C600 1.427 1_554 S
N604 C601 1.384 1_554 S
N605 C597 1.427 1_556 S
N605 C603 1.384 1_556 S
H606 C612 0.930 . S
H607 C616 0.930 . S
H608 C621 0.929 . S
H609 C619 0.929 . S
H610 C614 0.929 . S
H611 C620 0.929 . S
C612 H606 0.930 . S
C612 C613 1.367 . S
C612 C620 1.378 . S
C613 C612 1.367 . S
C613 C621 1.433 . S
C614 H610 0.929 . S
C614 C616 1.378 . S
C614 C618 1.350 . S
C615 C618 1.463 . S
C615 C620 1.350 . S
C615 N623 1.427 . S
C616 H607 0.930 . S
C616 C614 1.378 . S
C616 C617 1.367 . S
C617 C616 1.367 . S
C617 C619 1.433 . S
C618 C614 1.350 . S
C618 C615 1.463 . S
C618 N622 1.427 . S
C619 H609 0.929 . S
C619 C617 1.433 . S
C619 N622 1.384 . S
C620 H611 0.929 . S
C620 C612 1.378 . S
C620 C615 1.350 . S
C621 H608 0.929 . S
C621 C613 1.433 . S
C621 N623 1.384 . S
N622 C618 1.427 . S
N622 C619 1.384 . S
N623 C615 1.427 . S
N623 C621 1.384 . S
H624 C630 0.930 . S
H625 C634 0.930 . S
H626 C639 0.929 . S
H627 C637 0.929 . S
H628 C632 0.929 . S
H629 C638 0.929 . S
C630 H624 0.930 . S
C630 C631 1.367 . S
C630 C638 1.378 . S
C631 C630 1.367 . S
C631 C639 1.433 1_556 S
C632 H628 0.929 . S
C632 C634 1.378 . S
C632 C636 1.350 . S
C633 C636 1.463 1_556 S
C633 C638 1.350 . S
C633 N641 1.427 1_556 S
C634 H625 0.930 . S
C634 C632 1.378 . S
C634 C635 1.367 . S
C635 C634 1.367 . S
C635 C637 1.433 1_554 S
C636 C632 1.350 . S
C636 C633 1.463 1_554 S
C636 N640 1.427 1_554 S
C637 H627 0.929 . S
C637 C635 1.433 1_556 S
C637 N640 1.384 . S
C638 H629 0.929 . S
C638 C630 1.378 . S
C638 C633 1.350 . S
C639 H626 0.929 . S
C639 C631 1.433 1_554 S
C639 N641 1.384 . S
N640 C636 1.427 1_556 S
N640 C637 1.384 . S
N641 C633 1.427 1_554 S
N641 C639 1.384 . S
H642 C648 0.930 . S
H643 C652 0.930 . S
H644 C657 0.929 . S
H645 C655 0.929 . S
H646 C650 0.929 . S
H647 C656 0.929 . S
C648 H642 0.930 . S
C648 C649 1.367 . S
C648 C656 1.378 . S
C649 C648 1.367 . S
C649 C657 1.433 . S
C650 H646 0.929 . S
C650 C652 1.378 . S
C650 C654 1.350 . S
C651 C654 1.463 . S
C651 C656 1.350 . S
C651 N659 1.427 . S
C652 H643 0.930 . S
C652 C650 1.378 . S
C652 C653 1.367 . S
C653 C652 1.367 . S
C653 C655 1.433 . S
C654 C650 1.350 . S
C654 C651 1.463 . S
C654 N658 1.427 . S
C655 H645 0.929 . S
C655 C653 1.433 . S
C655 N658 1.384 . S
C656 H647 0.929 . S
C656 C648 1.378 . S
C656 C651 1.350 . S
C657 H644 0.929 . S
C657 C649 1.433 . S
C657 N659 1.384 . S
N658 C654 1.427 . S
N658 C655 1.384 . S
N659 C651 1.427 . S
N659 C657 1.384 . S
H660 C666 0.930 . S
H661 C670 0.930 . S
H662 C675 0.929 . S
H663 C673 0.929 . S
H664 C668 0.929 . S
H665 C674 0.929 . S
C666 H660 0.930 . S
C666 C667 1.367 . S
C666 C674 1.378 . S
C667 C666 1.367 . S
C667 C675 1.433 1_554 S
C668 H664 0.929 . S
C668 C670 1.378 . S
C668 C672 1.350 . S
C669 C672 1.463 1_554 S
C669 C674 1.350 . S
C669 N677 1.427 1_554 S
C670 H661 0.930 . S
C670 C668 1.378 . S
C670 C671 1.367 . S
C671 C670 1.367 . S
C671 C673 1.433 1_556 S
C672 C668 1.350 . S
C672 C669 1.463 1_556 S
C672 N676 1.427 1_556 S
C673 H663 0.929 . S
C673 C671 1.433 1_554 S
C673 N676 1.384 . S
C674 H665 0.929 . S
C674 C666 1.378 . S
C674 C669 1.350 . S
C675 H662 0.929 . S
C675 C667 1.433 1_556 S
C675 N677 1.384 . S
N676 C672 1.427 1_554 S
N676 C673 1.384 . S
N677 C669 1.427 1_556 S
N677 C675 1.384 . S
H678 C684 0.930 . S
H679 C688 0.930 . S
H680 C693 0.929 . S
H681 C691 0.929 . S
H682 C686 0.929 . S
H683 C692 0.929 . S
C684 H678 0.930 . S
C684 C685 1.367 . S
C684 C692 1.378 . S
C685 C684 1.367 . S
C685 C693 1.433 . S
C686 H682 0.929 . S
C686 C688 1.378 . S
C686 C690 1.350 . S
C687 C690 1.463 . S
C687 C692 1.350 . S
C687 N695 1.427 . S
C688 H679 0.930 . S
C688 C686 1.378 . S
C688 C689 1.367 . S
C689 C688 1.367 . S
C689 C691 1.433 . S
C690 C686 1.350 . S
C690 C687 1.463 . S
C690 N694 1.427 . S
C691 H681 0.929 . S
C691 C689 1.433 . S
C691 N694 1.384 . S
C692 H683 0.929 . S
C692 C684 1.378 . S
C692 C687 1.350 . S
C693 H680 0.929 . S
C693 C685 1.433 . S
C693 N695 1.384 . S
N694 C690 1.427 . S
N694 C691 1.384 . S
N695 C687 1.427 . S
N695 C693 1.384 . S
H696 C702 0.929 1_554 S
H697 C706 0.929 1_556 S
H698 C711 0.929 . S
H699 C709 0.929 . S
H700 C704 0.929 . S
H701 C710 0.929 . S
C702 H696 0.929 1_556 S
C702 C703 1.367 . S
C702 C710 1.378 1_556 S
C703 C702 1.367 . S
C703 C711 1.433 . S
C704 H700 0.929 . S
C704 C706 1.378 1_556 S
C704 C708 1.350 1_556 S
C705 C708 1.463 1_556 S
C705 C710 1.350 1_556 S
C705 N713 1.427 . S
C706 H697 0.929 1_554 S
C706 C704 1.378 1_554 S
C706 C707 1.367 . S
C707 C706 1.367 . S
C707 C709 1.433 . S
C708 C704 1.350 1_554 S
C708 C705 1.463 1_554 S
C708 N712 1.427 . S
C709 H699 0.929 . S
C709 C707 1.433 . S
C709 N712 1.384 . S
C710 H701 0.929 . S
C710 C702 1.378 1_554 S
C710 C705 1.350 1_554 S
C711 H698 0.929 . S
C711 C703 1.433 . S
C711 N713 1.384 . S
N712 C708 1.427 . S
N712 C709 1.384 . S
N713 C705 1.427 . S
N713 C711 1.384 . S
H714 C720 0.930 . S
H715 C724 0.930 . S
H716 C729 0.929 . S
H717 C727 0.929 . S
H718 C722 0.929 . S
H719 C728 0.929 . S
C720 H714 0.930 . S
C720 C721 1.367 . S
C720 C728 1.378 . S
C721 C720 1.367 . S
C721 C729 1.433 . S
C722 H718 0.929 . S
C722 C724 1.378 . S
C722 C726 1.350 . S
C723 C726 1.463 . S
C723 C728 1.350 . S
C723 N731 1.427 . S
C724 H715 0.930 . S
C724 C722 1.378 . S
C724 C725 1.367 . S
C725 C724 1.367 . S
C725 C727 1.433 . S
C726 C722 1.350 . S
C726 C723 1.463 . S
C726 N730 1.427 . S
C727 H717 0.929 . S
C727 C725 1.433 . S
C727 N730 1.384 . S
C728 H719 0.929 . S
C728 C720 1.378 . S
C728 C723 1.350 . S
C729 H716 0.929 . S
C729 C721 1.433 . S
C729 N731 1.384 . S
N730 C726 1.427 . S
N730 C727 1.384 . S
N731 C723 1.427 . S
N731 C729 1.384 . S
H732 C738 0.930 . S
H733 C742 0.930 . S
H734 C747 0.929 1_554 S
H735 C745 0.929 1_556 S
H736 C740 0.929 . S
H737 C746 0.929 . S
C738 H732 0.930 . S
C738 C739 1.367 . S
C738 C746 1.378 . S
C739 C738 1.367 . S
C739 C747 1.433 . S
C740 H736 0.929 . S
C740 C742 1.378 . S
C740 C744 1.350 . S
C741 C744 1.463 1_556 S
C741 C746 1.350 . S
C741 N749 1.427 1_556 S
C742 H733 0.930 . S
C742 C740 1.378 . S
C742 C743 1.367 . S
C743 C742 1.367 . S
C743 C745 1.433 . S
C744 C740 1.350 . S
C744 C741 1.463 1_554 S
C744 N748 1.427 1_554 S
C745 H735 0.929 1_554 S
C745 C743 1.433 . S
C745 N748 1.384 1_554 S
C746 H737 0.929 . S
C746 C738 1.378 . S
C746 C741 1.350 . S
C747 H734 0.929 1_556 S
C747 C739 1.433 . S
C747 N749 1.384 1_556 S
N748 C744 1.427 1_556 S
N748 C745 1.384 1_556 S
N749 C741 1.427 1_554 S
N749 C747 1.384 1_554 S
H750 C756 0.930 . S
H751 C760 0.930 . S
H752 C765 0.929 . S
H753 C763 0.929 . S
H754 C758 0.929 . S
H755 C764 0.929 . S
C756 H750 0.930 . S
C756 C757 1.367 . S
C756 C764 1.378 . S
C757 C756 1.367 . S
C757 C765 1.433 . S
C758 H754 0.929 . S
C758 C760 1.378 . S
C758 C762 1.350 . S
C759 C762 1.463 . S
C759 C764 1.350 . S
C759 N767 1.427 . S
C760 H751 0.930 . S
C760 C758 1.378 . S
C760 C761 1.367 . S
C761 C760 1.367 . S
C761 C763 1.433 . S
C762 C758 1.350 . S
C762 C759 1.463 . S
C762 N766 1.427 . S
C763 H753 0.929 . S
C763 C761 1.433 . S
C763 N766 1.384 . S
C764 H755 0.929 . S
C764 C756 1.378 . S
C764 C759 1.350 . S
C765 H752 0.929 . S
C765 C757 1.433 . S
C765 N767 1.384 . S
N766 C762 1.427 . S
N766 C763 1.384 . S
N767 C759 1.427 . S
N767 C765 1.384 . S
H768 C774 0.930 . S
H769 C778 0.930 . S
H770 C783 0.929 . S
H771 C781 0.929 . S
H772 C776 0.929 . S
H773 C782 0.929 . S
C774 H768 0.930 . S
C774 C775 1.367 . S
C774 C782 1.378 . S
C775 C774 1.367 . S
C775 C783 1.433 . S
C776 H772 0.929 . S
C776 C778 1.378 . S
C776 C780 1.350 . S
C777 C780 1.463 . S
C777 C782 1.350 . S
C777 N785 1.427 . S
C778 H769 0.930 . S
C778 C776 1.378 . S
C778 C779 1.367 . S
C779 C778 1.367 . S
C779 C781 1.433 . S
C780 C776 1.350 . S
C780 C777 1.463 . S
C780 N784 1.427 . S
C781 H771 0.929 . S
C781 C779 1.433 . S
C781 N784 1.384 . S
C782 H773 0.929 . S
C782 C774 1.378 . S
C782 C777 1.350 . S
C783 H770 0.929 . S
C783 C775 1.433 . S
C783 N785 1.384 . S
N784 C780 1.427 . S
N784 C781 1.384 . S
N785 C777 1.427 . S
N785 C783 1.384 . S
H786 C792 0.930 . S
H787 C796 0.930 . S
H788 C801 0.929 . S
H789 C799 0.929 . S
H790 C794 0.929 . S
H791 C800 0.929 . S
C792 H786 0.930 . S
C792 C793 1.367 . S
C792 C800 1.378 . S
C793 C792 1.367 . S
C793 C801 1.433 . S
C794 H790 0.929 . S
C794 C796 1.378 . S
C794 C798 1.350 . S
C795 C798 1.463 1_455 S
C795 C800 1.350 . S
C795 N803 1.427 . S
C796 H787 0.930 . S
C796 C794 1.378 . S
C796 C797 1.367 . S
C797 C796 1.367 . S
C797 C799 1.433 . S
C798 C794 1.350 . S
C798 C795 1.463 1_655 S
C798 N802 1.427 . S
C799 H789 0.929 . S
C799 C797 1.433 . S
C799 N802 1.384 . S
C800 H791 0.929 . S
C800 C792 1.378 . S
C800 C795 1.350 . S
C801 H788 0.929 . S
C801 C793 1.433 . S
C801 N803 1.384 . S
N802 C798 1.427 . S
N802 C799 1.384 . S
N803 C795 1.427 . S
N803 C801 1.384 . S
H804 C810 0.930 . S
H805 C814 0.930 . S
H806 C819 0.929 . S
H807 C817 0.929 . S
H808 C812 0.929 . S
H809 C818 0.929 . S
C810 H804 0.930 . S
C810 C811 1.367 . S
C810 C818 1.378 . S
C811 C810 1.367 . S
C811 C819 1.433 . S
C812 H808 0.929 . S
C812 C814 1.378 . S
C812 C816 1.350 . S
C813 C816 1.463 1_565 S
C813 C818 1.350 . S
C813 N821 1.427 . S
C814 H805 0.930 . S
C814 C812 1.378 . S
C814 C815 1.367 . S
C815 C814 1.367 . S
C815 C817 1.433 . S
C816 C812 1.350 . S
C816 C813 1.463 1_545 S
C816 N820 1.427 . S
C817 H807 0.929 . S
C817 C815 1.433 . S
C817 N820 1.384 . S
C818 H809 0.929 . S
C818 C810 1.378 . S
C818 C813 1.350 . S
C819 H806 0.929 . S
C819 C811 1.433 . S
C819 N821 1.384 . S
N820 C816 1.427 . S
N820 C817 1.384 . S
N821 C813 1.427 . S
N821 C819 1.384 . S
H822 C828 0.930 . S
H823 C832 0.930 . S
H824 C837 0.929 . S
H825 C835 0.929 . S
H826 C830 0.929 . S
H827 C836 0.929 . S
C828 H822 0.930 . S
C828 C829 1.367 . S
C828 C836 1.378 . S
C829 C828 1.367 . S
C829 C837 1.433 . S
C830 H826 0.929 . S
C830 C832 1.378 . S
C830 C834 1.350 . S
C831 C834 1.463 . S
C831 C836 1.350 . S
C831 N839 1.427 . S
C832 H823 0.930 . S
C832 C830 1.378 . S
C832 C833 1.367 . S
C833 C832 1.367 . S
C833 C835 1.433 . S
C834 C830 1.350 . S
C834 C831 1.463 . S
C834 N838 1.427 . S
C835 H825 0.929 . S
C835 C833 1.433 . S
C835 N838 1.384 . S
C836 H827 0.929 . S
C836 C828 1.378 . S
C836 C831 1.350 . S
C837 H824 0.929 . S
C837 C829 1.433 . S
C837 N839 1.384 . S
N838 C834 1.427 . S
N838 C835 1.384 . S
N839 C831 1.427 . S
N839 C837 1.384 . S
H840 C846 0.930 . S
H841 C850 0.930 . S
H842 C855 0.929 . S
H843 C853 0.929 . S
H844 C848 0.929 . S
H845 C854 0.929 . S
C846 H840 0.930 . S
C846 C847 1.367 . S
C846 C854 1.378 . S
C847 C846 1.367 . S
C847 C855 1.433 . S
C848 H844 0.929 . S
C848 C850 1.378 . S
C848 C852 1.350 . S
C849 C852 1.463 1_655 S
C849 C854 1.350 . S
C849 N857 1.427 . S
C850 H841 0.930 . S
C850 C848 1.378 . S
C850 C851 1.367 . S
C851 C850 1.367 . S
C851 C853 1.433 . S
C852 C848 1.350 . S
C852 C849 1.463 1_455 S
C852 N856 1.427 . S
C853 H843 0.929 . S
C853 C851 1.433 . S
C853 N856 1.384 . S
C854 H845 0.929 . S
C854 C846 1.378 . S
C854 C849 1.350 . S
C855 H842 0.929 . S
C855 C847 1.433 . S
C855 N857 1.384 . S
N856 C852 1.427 . S
N856 C853 1.384 . S
N857 C849 1.427 . S
N857 C855 1.384 . S
H858 C864 0.930 . S
H859 C868 0.930 . S
H860 C873 0.929 . S
H861 C871 0.929 . S
H862 C866 0.929 . S
H863 C872 0.929 . S
C864 H858 0.930 . S
C864 C865 1.367 . S
C864 C872 1.378 . S
C865 C864 1.367 . S
C865 C873 1.433 . S
C866 H862 0.929 . S
C866 C868 1.378 . S
C866 C870 1.350 . S
C867 C870 1.463 1_545 S
C867 C872 1.350 . S
C867 N875 1.427 . S
C868 H859 0.930 . S
C868 C866 1.378 . S
C868 C869 1.367 . S
C869 C868 1.367 . S
C869 C871 1.433 . S
C870 C866 1.350 . S
C870 C867 1.463 1_565 S
C870 N874 1.427 . S
C871 H861 0.929 . S
C871 C869 1.433 . S
C871 N874 1.384 . S
C872 H863 0.929 . S
C872 C864 1.378 . S
C872 C867 1.350 . S
C873 H860 0.929 . S
C873 C865 1.433 . S
C873 N875 1.384 . S
N874 C870 1.427 . S
N874 C871 1.384 . S
N875 C867 1.427 . S
N875 C873 1.384 . S
H876 C882 0.930 . S
H877 C886 0.930 . S
H878 C891 0.929 . S
H879 C889 0.929 . S
H880 C884 0.929 . S
H881 C890 0.929 . S
C882 H876 0.930 . S
C882 C883 1.367 . S
C882 C890 1.378 . S
C883 C882 1.367 . S
C883 C891 1.433 . S
C884 H880 0.929 . S
C884 C886 1.378 . S
C884 C888 1.350 . S
C885 C888 1.463 . S
C885 C890 1.350 . S
C885 N893 1.427 . S
C886 H877 0.930 . S
C886 C884 1.378 . S
C886 C887 1.367 . S
C887 C886 1.367 . S
C887 C889 1.433 . S
C888 C884 1.350 . S
C888 C885 1.463 . S
C888 N892 1.427 . S
C889 H879 0.929 . S
C889 C887 1.433 . S
C889 N892 1.384 . S
C890 H881 0.929 . S
C890 C882 1.378 . S
C890 C885 1.350 . S
C891 H878 0.929 . S
C891 C883 1.433 . S
C891 N893 1.384 . S
N892 C888 1.427 . S
N892 C889 1.384 . S
N893 C885 1.427 . S
N893 C891 1.384 . S
H894 C900 0.930 . S
H895 C904 0.930 . S
H896 C909 0.929 . S
H897 C907 0.929 . S
H898 C902 0.929 . S
H899 C908 0.929 . S
C900 H894 0.930 . S
C900 C901 1.367 . S
C900 C908 1.378 . S
C901 C900 1.367 . S
C901 C909 1.433 . S
C902 H898 0.929 . S
C902 C904 1.378 . S
C902 C906 1.350 . S
C903 C906 1.463 1_655 S
C903 C908 1.350 . S
C903 N911 1.427 . S
C904 H895 0.930 . S
C904 C902 1.378 . S
C904 C905 1.367 . S
C905 C904 1.367 . S
C905 C907 1.433 . S
C906 C902 1.350 . S
C906 C903 1.463 1_455 S
C906 N910 1.427 . S
C907 H897 0.929 . S
C907 C905 1.433 . S
C907 N910 1.384 . S
C908 H899 0.929 . S
C908 C900 1.378 . S
C908 C903 1.350 . S
C909 H896 0.929 . S
C909 C901 1.433 . S
C909 N911 1.384 . S
N910 C906 1.427 . S
N910 C907 1.384 . S
N911 C903 1.427 . S
N911 C909 1.384 . S
H912 C918 0.930 . S
H913 C922 0.930 . S
H914 C927 0.929 . S
H915 C925 0.929 . S
H916 C920 0.929 . S
H917 C926 0.929 . S
C918 H912 0.930 . S
C918 C919 1.367 . S
C918 C926 1.378 . S
C919 C918 1.367 . S
C919 C927 1.433 . S
C920 H916 0.929 . S
C920 C922 1.378 . S
C920 C924 1.350 . S
C921 C924 1.463 1_545 S
C921 C926 1.350 . S
C921 N929 1.427 . S
C922 H913 0.930 . S
C922 C920 1.378 . S
C922 C923 1.367 . S
C923 C922 1.367 . S
C923 C925 1.433 . S
C924 C920 1.350 . S
C924 C921 1.463 1_565 S
C924 N928 1.427 . S
C925 H915 0.929 . S
C925 C923 1.433 . S
C925 N928 1.384 . S
C926 H917 0.929 . S
C926 C918 1.378 . S
C926 C921 1.350 . S
C927 H914 0.929 . S
C927 C919 1.433 . S
C927 N929 1.384 . S
N928 C924 1.427 . S
N928 C925 1.384 . S
N929 C921 1.427 . S
N929 C927 1.384 . S
H930 C936 0.930 . S
H931 C940 0.930 . S
H932 C945 0.929 . S
H933 C943 0.929 . S
H934 C938 0.929 . S
H935 C944 0.929 . S
C936 H930 0.930 . S
C936 C937 1.367 . S
C936 C944 1.378 . S
C937 C936 1.367 . S
C937 C945 1.433 . S
C938 H934 0.929 . S
C938 C940 1.378 . S
C938 C942 1.350 . S
C939 C942 1.463 . S
C939 C944 1.350 . S
C939 N947 1.427 . S
C940 H931 0.930 . S
C940 C938 1.378 . S
C940 C941 1.367 . S
C941 C940 1.367 . S
C941 C943 1.433 . S
C942 C938 1.350 . S
C942 C939 1.463 . S
C942 N946 1.427 . S
C943 H933 0.929 . S
C943 C941 1.433 . S
C943 N946 1.384 . S
C944 H935 0.929 . S
C944 C936 1.378 . S
C944 C939 1.350 . S
C945 H932 0.929 . S
C945 C937 1.433 . S
C945 N947 1.384 . S
N946 C942 1.427 . S
N946 C943 1.384 . S
N947 C939 1.427 . S
N947 C945 1.384 . S
H948 C954 0.930 . S
H949 C958 0.930 . S
H950 C963 0.929 . S
H951 C961 0.929 . S
H952 C956 0.929 . S
H953 C962 0.929 . S
C954 H948 0.930 . S
C954 C955 1.367 . S
C954 C962 1.378 . S
C955 C954 1.367 . S
C955 C963 1.433 . S
C956 H952 0.929 . S
C956 C958 1.378 . S
C956 C960 1.350 . S
C957 C960 1.463 1_455 S
C957 C962 1.350 . S
C957 N965 1.427 . S
C958 H949 0.930 . S
C958 C956 1.378 . S
C958 C959 1.367 . S
C959 C958 1.367 . S
C959 C961 1.433 . S
C960 C956 1.350 . S
C960 C957 1.463 1_655 S
C960 N964 1.427 . S
C961 H951 0.929 . S
C961 C959 1.433 . S
C961 N964 1.384 . S
C962 H953 0.929 . S
C962 C954 1.378 . S
C962 C957 1.350 . S
C963 H950 0.929 . S
C963 C955 1.433 . S
C963 N965 1.384 . S
N964 C960 1.427 . S
N964 C961 1.384 . S
N965 C957 1.427 . S
N965 C963 1.384 . S
H966 C972 0.930 . S
H967 C976 0.930 . S
H968 C981 0.929 . S
H969 C979 0.929 . S
H970 C974 0.929 . S
H971 C980 0.929 . S
C972 H966 0.930 . S
C972 C973 1.367 . S
C972 C980 1.378 . S
C973 C972 1.367 . S
C973 C981 1.433 . S
C974 H970 0.929 . S
C974 C976 1.378 . S
C974 C978 1.350 . S
C975 C978 1.463 1_565 S
C975 C980 1.350 . S
C975 N983 1.427 . S
C976 H967 0.930 . S
C976 C974 1.378 . S
C976 C977 1.367 . S
C977 C976 1.367 . S
C977 C979 1.433 . S
C978 C974 1.350 . S
C978 C975 1.463 1_545 S
C978 N982 1.427 . S
C979 H969 0.929 . S
C979 C977 1.433 . S
C979 N982 1.384 . S
C980 H971 0.929 . S
C980 C972 1.378 . S
C980 C975 1.350 . S
C981 H968 0.929 . S
C981 C973 1.433 . S
C981 N983 1.384 . S
N982 C978 1.427 . S
N982 C979 1.384 . S
N983 C975 1.427 . S
N983 C981 1.384 . S
H984 C990 0.930 1_554 S
H985 C994 0.930 1_556 S
H986 C999 0.929 . S
H987 C997 0.929 . S
H988 C992 0.929 . S
H989 C998 0.929 . S
C990 H984 0.930 1_556 S
C990 C991 1.367 . S
C990 C998 1.378 1_556 S
C991 C990 1.367 . S
C991 C999 1.433 . S
C992 H988 0.929 . S
C992 C994 1.378 1_556 S
C992 C996 1.350 1_556 S
C993 C996 1.463 1_556 S
C993 C998 1.350 1_556 S
C993 N1001 1.427 . S
C994 H985 0.930 1_554 S
C994 C992 1.378 1_554 S
C994 C995 1.367 . S
C995 C994 1.367 . S
C995 C997 1.433 . S
C996 C992 1.350 1_554 S
C996 C993 1.463 1_554 S
C996 N1000 1.427 . S
C997 H987 0.929 . S
C997 C995 1.433 . S
C997 N1000 1.384 . S
C998 H989 0.929 . S
C998 C990 1.378 1_554 S
C998 C993 1.350 1_554 S
C999 H986 0.929 . S
C999 C991 1.433 . S
C999 N1001 1.384 . S
N1000 C996 1.427 . S
N1000 C997 1.384 . S
N1001 C993 1.427 . S
N1001 C999 1.384 . S
H1002 C1008 0.930 . S
H1003 C1012 0.930 . S
H1004 C1017 0.929 . S
H1005 C1015 0.929 . S
H1006 C1010 0.929 . S
H1007 C1016 0.929 . S
C1008 H1002 0.930 . S
C1008 C1009 1.367 . S
C1008 C1016 1.378 . S
C1009 C1008 1.367 . S
C1009 C1017 1.433 . S
C1010 H1006 0.929 . S
C1010 C1012 1.378 . S
C1010 C1014 1.350 . S
C1011 C1014 1.463 . S
C1011 C1016 1.350 . S
C1011 N1019 1.427 . S
C1012 H1003 0.930 . S
C1012 C1010 1.378 . S
C1012 C1013 1.367 . S
C1013 C1012 1.367 . S
C1013 C1015 1.433 . S
C1014 C1010 1.350 . S
C1014 C1011 1.463 . S
C1014 N1018 1.427 . S
C1015 H1005 0.929 . S
C1015 C1013 1.433 . S
C1015 N1018 1.384 . S
C1016 H1007 0.929 . S
C1016 C1008 1.378 . S
C1016 C1011 1.350 . S
C1017 H1004 0.929 . S
C1017 C1009 1.433 . S
C1017 N1019 1.384 . S
N1018 C1014 1.427 . S
N1018 C1015 1.384 . S
N1019 C1011 1.427 . S
N1019 C1017 1.384 . S
H1020 C1026 0.930 1_554 S
H1021 C1030 0.930 1_556 S
H1022 C1035 0.929 . S
H1023 C1033 0.929 . S
H1024 C1028 0.929 . S
H1025 C1034 0.929 . S
C1026 H1020 0.930 1_556 S
C1026 C1027 1.367 . S
C1026 C1034 1.378 1_556 S
C1027 C1026 1.367 . S
C1027 C1035 1.433 . S
C1028 H1024 0.929 . S
C1028 C1030 1.378 1_556 S
C1028 C1032 1.350 1_556 S
C1029 C1032 1.463 1_556 S
C1029 C1034 1.350 1_556 S
C1029 N1037 1.427 . S
C1030 H1021 0.930 1_554 S
C1030 C1028 1.378 1_554 S
C1030 C1031 1.367 . S
C1031 C1030 1.367 . S
C1031 C1033 1.433 . S
C1032 C1028 1.350 1_554 S
C1032 C1029 1.463 1_554 S
C1032 N1036 1.427 . S
C1033 H1023 0.929 . S
C1033 C1031 1.433 . S
C1033 N1036 1.384 . S
C1034 H1025 0.929 . S
C1034 C1026 1.378 1_554 S
C1034 C1029 1.350 1_554 S
C1035 H1022 0.929 . S
C1035 C1027 1.433 . S
C1035 N1037 1.384 . S
N1036 C1032 1.427 . S
N1036 C1033 1.384 . S
N1037 C1029 1.427 . S
N1037 C1035 1.384 . S
H1038 C1044 0.930 . S
H1039 C1048 0.930 . S
H1040 C1053 0.929 . S
H1041 C1051 0.929 . S
H1042 C1046 0.929 . S
H1043 C1052 0.929 . S
C1044 H1038 0.930 . S
C1044 C1045 1.367 . S
C1044 C1052 1.378 . S
C1045 C1044 1.367 . S
C1045 C1053 1.433 . S
C1046 H1042 0.929 . S
C1046 C1048 1.378 . S
C1046 C1050 1.350 . S
C1047 C1050 1.463 . S
C1047 C1052 1.350 . S
C1047 N1055 1.427 . S
C1048 H1039 0.930 . S
C1048 C1046 1.378 . S
C1048 C1049 1.367 . S
C1049 C1048 1.367 . S
C1049 C1051 1.433 . S
C1050 C1046 1.350 . S
C1050 C1047 1.463 . S
C1050 N1054 1.427 . S
C1051 H1041 0.929 . S
C1051 C1049 1.433 . S
C1051 N1054 1.384 . S
C1052 H1043 0.929 . S
C1052 C1044 1.378 . S
C1052 C1047 1.350 . S
C1053 H1040 0.929 . S
C1053 C1045 1.433 . S
C1053 N1055 1.384 . S
N1054 C1050 1.427 . S
N1054 C1051 1.384 . S
N1055 C1047 1.427 . S
N1055 C1053 1.384 . S
H1056 C1062 0.942 . S
H1057 C1066 0.942 . S
H1058 C1071 0.929 . S
H1059 C1069 0.929 . S
H1060 C1064 0.929 . S
H1061 C1070 0.929 . S
C1062 H1056 0.942 . S
C1062 C1063 1.367 . S
C1062 C1070 1.378 1_556 S
C1063 C1062 1.367 . S
C1063 C1071 1.433 . S
C1064 H1060 0.929 . S
C1064 C1066 1.378 1_556 S
C1064 C1068 1.350 1_556 S
C1065 C1068 1.463 1_556 S
C1065 C1070 1.350 1_556 S
C1065 N1073 1.427 . S
C1066 H1057 0.942 . S
C1066 C1064 1.378 1_554 S
C1066 C1067 1.367 . S
C1067 C1066 1.367 . S
C1067 C1069 1.433 . S
C1068 C1064 1.350 1_554 S
C1068 C1065 1.463 1_554 S
C1068 N1072 1.427 . S
C1069 H1059 0.929 . S
C1069 C1067 1.433 . S
C1069 N1072 1.384 . S
C1070 H1061 0.929 . S
C1070 C1062 1.378 1_554 S
C1070 C1065 1.350 1_554 S
C1071 H1058 0.929 . S
C1071 C1063 1.433 . S
C1071 N1073 1.384 . S
N1072 C1068 1.427 . S
N1072 C1069 1.384 . S
N1073 C1065 1.427 . S
N1073 C1071 1.384 . S
H1074 C1080 0.930 . S
H1075 C1084 0.930 . S
H1076 C1089 0.929 . S
H1077 C1087 0.929 . S
H1078 C1082 0.929 . S
H1079 C1088 0.929 . S
C1080 H1074 0.930 . S
C1080 C1081 1.367 . S
C1080 C1088 1.378 . S
C1081 C1080 1.367 . S
C1081 C1089 1.433 . S
C1082 H1078 0.929 . S
C1082 C1084 1.378 . S
C1082 C1086 1.350 . S
C1083 C1086 1.463 . S
C1083 C1088 1.350 . S
C1083 N1091 1.427 . S
C1084 H1075 0.930 . S
C1084 C1082 1.378 . S
C1084 C1085 1.367 . S
C1085 C1084 1.367 . S
C1085 C1087 1.433 . S
C1086 C1082 1.350 . S
C1086 C1083 1.463 . S
C1086 N1090 1.427 . S
C1087 H1077 0.929 . S
C1087 C1085 1.433 . S
C1087 N1090 1.384 . S
C1088 H1079 0.929 . S
C1088 C1080 1.378 . S
C1088 C1083 1.350 . S
C1089 H1076 0.929 . S
C1089 C1081 1.433 . S
C1089 N1091 1.384 . S
N1090 C1086 1.427 . S
N1090 C1087 1.384 . S
N1091 C1083 1.427 . S
N1091 C1089 1.384 . S
H1092 C1098 0.930 . S
H1093 C1102 0.930 . S
H1094 C1107 0.929 . S
H1095 C1105 0.929 . S
H1096 C1100 0.914 1_554 S
H1097 C1106 0.914 1_556 S
C1098 H1092 0.930 . S
C1098 C1099 1.367 . S
C1098 C1106 1.388 . S
C1099 C1098 1.367 . S
C1099 C1107 1.433 . S
C1100 H1096 0.914 1_556 S
C1100 C1102 1.388 . S
C1100 C1104 1.355 . S
C1101 C1104 1.463 1_554 S
C1101 C1106 1.355 . S
C1101 N1109 1.427 . S
C1102 H1093 0.930 . S
C1102 C1100 1.388 . S
C1102 C1103 1.367 . S
C1103 C1102 1.367 . S
C1103 C1105 1.433 . S
C1104 C1100 1.355 . S
C1104 C1101 1.463 1_556 S
C1104 N1108 1.427 . S
C1105 H1095 0.929 . S
C1105 C1103 1.433 . S
C1105 N1108 1.384 . S
C1106 H1097 0.914 1_554 S
C1106 C1098 1.388 . S
C1106 C1101 1.355 . S
C1107 H1094 0.929 . S
C1107 C1099 1.433 . S
C1107 N1109 1.384 . S
N1108 C1104 1.427 . S
N1108 C1105 1.384 . S
N1109 C1101 1.427 . S
N1109 C1107 1.384 . S
H1110 C1116 0.930 . S
H1111 C1120 0.930 . S
H1112 C1125 0.929 . S
H1113 C1123 0.929 . S
H1114 C1118 0.929 . S
H1115 C1124 0.929 . S
C1116 H1110 0.930 . S
C1116 C1117 1.367 . S
C1116 C1124 1.378 . S
C1117 C1116 1.367 . S
C1117 C1125 1.433 . S
C1118 H1114 0.929 . S
C1118 C1120 1.378 . S
C1118 C1122 1.350 . S
C1119 C1122 1.463 . S
C1119 C1124 1.350 . S
C1119 N1127 1.427 . S
C1120 H1111 0.930 . S
C1120 C1118 1.378 . S
C1120 C1121 1.367 . S
C1121 C1120 1.367 . S
C1121 C1123 1.433 . S
C1122 C1118 1.350 . S
C1122 C1119 1.463 . S
C1122 N1126 1.427 . S
C1123 H1113 0.929 . S
C1123 C1121 1.433 . S
C1123 N1126 1.384 . S
C1124 H1115 0.929 . S
C1124 C1116 1.378 . S
C1124 C1119 1.350 . S
C1125 H1112 0.929 . S
C1125 C1117 1.433 . S
C1125 N1127 1.384 . S
N1126 C1122 1.427 . S
N1126 C1123 1.384 . S
N1127 C1119 1.427 . S
N1127 C1125 1.384 . S
H1128 C1134 0.930 . S
H1129 C1138 0.930 . S
H1130 C1143 0.929 . S
H1131 C1141 0.929 . S
H1132 C1136 0.929 . S
H1133 C1142 0.929 . S
C1134 H1128 0.930 . S
C1134 C1135 1.367 . S
C1134 C1142 1.378 . S
C1135 C1134 1.367 . S
C1135 C1143 1.433 . S
C1136 H1132 0.929 . S
C1136 C1138 1.378 . S
C1136 C1140 1.350 . S
C1137 C1140 1.463 1_554 S
C1137 C1142 1.350 . S
C1137 N1145 1.427 . S
C1138 H1129 0.930 . S
C1138 C1136 1.378 . S
C1138 C1139 1.367 . S
C1139 C1138 1.367 . S
C1139 C1141 1.433 . S
C1140 C1136 1.350 . S
C1140 C1137 1.463 1_556 S
C1140 N1144 1.427 . S
C1141 H1131 0.929 . S
C1141 C1139 1.433 . S
C1141 N1144 1.384 . S
C1142 H1133 0.929 . S
C1142 C1134 1.378 . S
C1142 C1137 1.350 . S
C1143 H1130 0.929 . S
C1143 C1135 1.433 . S
C1143 N1145 1.384 . S
N1144 C1140 1.427 . S
N1144 C1141 1.384 . S
N1145 C1137 1.427 . S
N1145 C1143 1.384 . S
H1146 C1152 0.930 . S
H1147 C1156 0.930 . S
H1148 C1161 0.929 . S
H1149 C1159 0.929 . S
H1150 C1154 0.929 . S
H1151 C1160 0.929 . S
C1152 H1146 0.930 . S
C1152 C1153 1.367 . S
C1152 C1160 1.378 . S
C1153 C1152 1.367 . S
C1153 C1161 1.433 . S
C1154 H1150 0.929 . S
C1154 C1156 1.378 . S
C1154 C1158 1.350 . S
C1155 C1158 1.463 . S
C1155 C1160 1.350 . S
C1155 N1163 1.427 . S
C1156 H1147 0.930 . S
C1156 C1154 1.378 . S
C1156 C1157 1.367 . S
C1157 C1156 1.367 . S
C1157 C1159 1.433 . S
C1158 C1154 1.350 . S
C1158 C1155 1.463 . S
C1158 N1162 1.427 . S
C1159 H1149 0.929 . S
C1159 C1157 1.433 . S
C1159 N1162 1.384 . S
C1160 H1151 0.929 . S
C1160 C1152 1.378 . S
C1160 C1155 1.350 . S
C1161 H1148 0.929 . S
C1161 C1153 1.433 . S
C1161 N1163 1.384 . S
N1162 C1158 1.427 . S
N1162 C1159 1.384 . S
N1163 C1155 1.427 . S
N1163 C1161 1.384 . S
H1164 C1170 0.930 . S
H1165 C1174 0.930 . S
H1166 C1179 0.929 1_554 S
H1167 C1177 0.929 1_556 S
H1168 C1172 0.929 . S
H1169 C1178 0.929 . S
C1170 H1164 0.930 . S
C1170 C1171 1.367 . S
C1170 C1178 1.378 . S
C1171 C1170 1.367 . S
C1171 C1179 1.433 . S
C1172 H1168 0.929 . S
C1172 C1174 1.378 . S
C1172 C1176 1.350 . S
C1173 C1176 1.463 1_556 S
C1173 C1178 1.350 . S
C1173 N1181 1.427 1_556 S
C1174 H1165 0.930 . S
C1174 C1172 1.378 . S
C1174 C1175 1.367 . S
C1175 C1174 1.367 . S
C1175 C1177 1.433 . S
C1176 C1172 1.350 . S
C1176 C1173 1.463 1_554 S
C1176 N1180 1.427 1_554 S
C1177 H1167 0.929 1_554 S
C1177 C1175 1.433 . S
C1177 N1180 1.384 1_554 S
C1178 H1169 0.929 . S
C1178 C1170 1.378 . S
C1178 C1173 1.350 . S
C1179 H1166 0.929 1_556 S
C1179 C1171 1.433 . S
C1179 N1181 1.384 1_556 S
N1180 C1176 1.427 1_556 S
N1180 C1177 1.384 1_556 S
N1181 C1173 1.427 1_554 S
N1181 C1179 1.384 1_554 S
H1182 C1188 0.930 . S
H1183 C1192 0.930 . S
H1184 C1197 0.929 . S
H1185 C1195 0.929 . S
H1186 C1190 0.929 . S
H1187 C1196 0.929 . S
C1188 H1182 0.930 . S
C1188 C1189 1.367 . S
C1188 C1196 1.378 . S
C1189 C1188 1.367 . S
C1189 C1197 1.433 . S
C1190 H1186 0.929 . S
C1190 C1192 1.378 . S
C1190 C1194 1.350 . S
C1191 C1194 1.463 . S
C1191 C1196 1.350 . S
C1191 N1199 1.427 . S
C1192 H1183 0.930 . S
C1192 C1190 1.378 . S
C1192 C1193 1.367 . S
C1193 C1192 1.367 . S
C1193 C1195 1.433 . S
C1194 C1190 1.350 . S
C1194 C1191 1.463 . S
C1194 N1198 1.427 . S
C1195 H1185 0.929 . S
C1195 C1193 1.433 . S
C1195 N1198 1.384 . S
C1196 H1187 0.929 . S
C1196 C1188 1.378 . S
C1196 C1191 1.350 . S
C1197 H1184 0.929 . S
C1197 C1189 1.433 . S
C1197 N1199 1.384 . S
N1198 C1194 1.427 . S
N1198 C1195 1.384 . S
N1199 C1191 1.427 . S
N1199 C1197 1.384 . S
C343 C11 1.451 . S
C347 C221 1.454 . S
C361 C25 1.459 . S
C365 C235 1.447 . S
C379 C249 1.455 . S
C383 C39 1.450 . S
C397 C179 1.448 . S
C401 C53 1.457 . S
C415 C193 1.448 . S
C419 C67 1.458 . S
C433 C207 1.449 . S
C437 C81 1.456 . S
C451 C305 1.449 . S
C455 C95 1.456 . S
C469 C109 1.453 . S
C473 C319 1.452 . S
C487 C333 1.455 . S
C491 C123 1.450 . S
C505 C137 1.455 . S
C509 C263 1.450 . S
C523 C277 1.455 . S
C527 C151 1.450 . S
C541 C165 1.459 . S
C545 C291 1.447 . S
C559 C145 0.976 . S
C563 C5 0.947 . S
C577 C159 0.958 . S
C581 C19 0.985 . S
C595 C33 0.970 . S
C599 C89 0.947 . S
C613 C47 0.975 . S
C617 C103 0.979 . S
C631 C117 0.953 . S
C635 C61 0.957 . S
C649 C75 0.958 . S
C653 C131 0.952 . S
C667 C313 0.951 . S
C671 C173 0.959 . S
C685 C187 0.985 . S
C689 C327 0.956 . S
C703 C201 0.985 . S
C707 C257 0.959 . S
C721 C271 0.984 . S
C725 C215 0.953 . S
C739 C229 0.947 . S
C743 C285 0.973 . S
C757 C243 0.949 . S
C761 C299 0.962 . S
C775 C12 1.166 . S
C779 C264 1.176 . S
C793 C278 1.166 . S
C797 C26 1.175 . S
C811 C40 1.170 . S
C815 C292 1.171 . S
C829 C54 1.174 . S
C833 C306 1.167 . S
C847 C320 1.169 . S
C851 C68 1.172 . S
C865 C82 1.169 . S
C869 C334 1.172 . S
C883 C96 1.175 . S
C887 C180 1.166 . S
C901 C110 1.170 . S
C905 C194 1.171 . S
C919 C208 1.175 . S
C923 C124 1.166 . S
C937 C222 1.170 . S
C941 C138 1.170 . S
C955 C152 1.172 . S
C959 C236 1.170 . S
C973 C250 1.168 . S
C977 C166 1.174 . S
C991 C88 1.515 . S
C995 C4 1.509 . S
C1009 C18 1.507 . S
C1013 C102 1.507 . S
C1027 C116 1.515 . S
C1031 C32 1.510 . S
C1045 C130 1.513 . S
C1049 C46 1.512 . S
C1063 C144 1.508 . S
C1067 C60 1.516 . S
C1081 C74 1.514 . S
C1085 C158 1.512 . S
C1099 C256 1.506 . S
C1103 C172 1.516 . S
C1117 C186 1.509 . S
C1121 C270 1.515 . S
C1135 C284 1.516 . S
C1139 C200 1.504 . S
C1153 C298 1.507 . S
C1157 C214 1.507 . S
C1171 C228 1.505 . S
C1175 C312 1.508 . S
C1189 C242 1.505 . S
C1193 C326 1.516 . S
