# Generated by pormake.
# Topology sxb, (6)-cn, num edge types: 1
# Building blocks:
#     Node 0, Type 0, BuildingBlock: KUMBUR_clean_sbu_1, # of connection points: 6
#     Node 1, Type 0, BuildingBlock: KUMBUR_clean_sbu_1, # of connection points: 6
#     Node 2, Type 0, BuildingBlock: KUMBUR_clean_sbu_1, # of connection points: 6
#     Node 3, Type 0, BuildingBlock: KUMBUR_clean_sbu_1, # of connection points: 6
#     Edge 4, Type (0, 0), BuildingBlock: AJUNOK_clean_linker_0, # of connection points: 2
#     Edge 5, Type (0, 0), BuildingBlock: AJUNOK_clean_linker_0, # of connection points: 2
#     Edge 6, Type (0, 0), BuildingBlock: AJUNOK_clean_linker_0, # of connection points: 2
#     Edge 7, Type (0, 0), BuildingBlock: AJUNOK_clean_linker_0, # of connection points: 2
#     Edge 8, Type (0, 0), BuildingBlock: AJUNOK_clean_linker_0, # of connection points: 2
#     Edge 9, Type (0, 0), BuildingBlock: AJUNOK_clean_linker_0, # of connection points: 2
#     Edge 10, Type (0, 0), BuildingBlock: AJUNOK_clean_linker_0, # of connection points: 2
#     Edge 11, Type (0, 0), BuildingBlock: AJUNOK_clean_linker_0, # of connection points: 2
#     Edge 12, Type (0, 0), BuildingBlock: AJUNOK_clean_linker_0, # of connection points: 2
#     Edge 13, Type (0, 0), BuildingBlock: AJUNOK_clean_linker_0, # of connection points: 2
#     Edge 14, Type (0, 0), BuildingBlock: AJUNOK_clean_linker_0, # of connection points: 2
#     Edge 15, Type (0, 0), BuildingBlock: AJUNOK_clean_linker_0, # of connection points: 2
# Relax obj value: 0.021
# Max RMSD: 0.073
# Mean RMSD: 0.073
data_MOF--net-sxb--node1-KUMBUR_clean_sbu_1--edge1-AJUNOK_clean_linker_0
_symmetry_space_group_name_H-M    P1
_symmetry_Int_Tables_number       1
_symmetry_cell_setting            triclinic
loop_
_symmetry_equiv_pos_as_xyz
'x, y, z'
_cell_length_a     11.212704
_cell_length_b     40.407197
_cell_length_c     21.237249
_cell_angle_alpha  113.10943
_cell_angle_beta   90.236106
_cell_angle_gamma 89.677718
loop_
_atom_site_label
_atom_site_type_symbol
_atom_site_fract_x
_atom_site_fract_y
_atom_site_fract_z
_atom_type_partial_charge
Tb0 Tb 1.03592 0.95745 0.94986 0.0
C1 C 0.22825 0.10129 0.16716 0.0
N2 N 0.11456 0.08876 0.16094 0.0
C3 C 0.10239 0.10698 0.28281 0.0
C4 C 0.28469 0.11621 0.23157 0.0
C5 C 0.04988 0.09245 0.21783 0.0
C6 C 0.22059 0.11864 0.28969 0.0
C7 C 0.40753 0.11049 0.11225 0.0
C8 C 0.2887 0.09894 0.10841 0.0
C9 C 0.46498 0.12455 0.17627 0.0
C10 C 0.40339 0.12781 0.23578 0.0
Tb11 Tb 0.04389 0.06413 0.05123 0.0
N12 N 0.23319 0.08272 0.04669 0.0
C13 C 0.46558 0.10642 0.05126 0.0
C14 C 0.28567 0.08131 0.98785 0.0
C15 C 0.40369 0.09252 0.98908 0.0
H16 H 0.95727 0.08459 0.2135 0.0
H17 H 0.44733 0.09002 0.94206 0.0
H18 H 0.11982 0.93634 0.78713 0.0
H19 H 0.63424 0.93189 0.06127 0.0
H20 H 0.23774 0.07054 0.93994 0.0
H21 H 0.55794 0.11378 0.0513 0.0
H22 H 0.84413 0.95088 0.06206 0.0
H23 H 0.05146 0.10933 0.32758 0.0
H24 H 0.5578 0.13218 0.18045 0.0
H25 H 0.4491 0.13875 0.28468 0.0
H26 H 1.02351 0.91176 0.67348 0.0
H27 H 0.26102 0.12981 0.34011 0.0
H28 H 0.52056 0.9091 0.95291 0.0
N29 N 0.96308 0.93276 0.84057 0.0
C30 C 0.8487 0.92081 0.83507 0.0
C31 C 0.97311 0.91445 0.71861 0.0
C32 C 0.79053 0.90646 0.7711 0.0
C33 C 1.02692 0.92881 0.78329 0.0
C34 C 0.85411 0.90352 0.71252 0.0
N35 N 0.84657 0.93897 0.9554 0.0
C36 C 0.79513 0.94039 0.01449 0.0
C37 C 0.66974 0.91239 0.89113 0.0
C38 C 0.78926 0.92327 0.89413 0.0
C39 C 0.61319 0.91616 0.95237 0.0
C40 C 0.67685 0.92948 0.01402 0.0
H41 H 0.81255 0.89258 0.66239 0.0
H42 H 0.62369 0.88547 0.71932 0.0
H43 H 0.51696 0.89213 0.82432 0.0
O44 O 0.08225 0.92222 0.9986 0.0
O45 O 0.86703 0.98932 0.95436 0.0
O46 O 0.86217 0.04261 0.05096 0.0
O47 O 0.08964 0.90468 0.88931 0.0
O48 O 0.0712 0.98156 0.06038 0.0
O49 O 0.96061 0.03366 0.1043 0.0
O50 O 0.99455 0.09944 1.00283 0.0
O51 O 0.21405 0.0326 0.04577 0.0
O52 O 0.21878 0.97861 0.95042 0.0
O53 O 0.9928 0.11715 0.11202 0.0
O54 O 1.01034 0.03999 0.94032 0.0
O55 O 0.12039 0.98768 0.89714 0.0
C56 C 0.80689 0.01592 1.00163 0.0
C57 C 0.21033 0.872 0.93766 0.0
C58 C 0.29772 0.82183 0.9608 0.0
C59 C 0.39418 0.82124 0.91844 0.0
C60 C 0.308 0.87049 0.89545 0.0
C61 C 0.3986 0.84511 0.88577 0.0
C62 C 0.20568 0.84751 0.97039 0.0
C63 C 1.00841 1.00518 0.10975 0.0
C64 C 0.10634 0.89555 0.94093 0.0
C65 C 0.67069 0.89594 0.76784 0.0
C66 C 0.61014 0.89932 0.82773 0.0
C67 C 0.27401 1.0053 0.99986 0.0
C68 C 0.87477 0.15161 0.06655 0.0
C69 C 0.79946 0.20724 0.05821 0.0
C70 C 0.69692 0.2049 0.09382 0.0
C71 C 0.77158 0.15051 0.1028 0.0
C72 C 0.88796 0.18004 0.04376 0.0
C73 C 0.68373 0.17706 0.11621 0.0
C74 C 0.07324 0.01611 0.89127 0.0
C75 C 0.97553 0.12649 0.06075 0.0
H76 H 0.46509 0.80156 0.90902 0.0
H77 H 0.31308 0.88843 0.86875 0.0
H78 H 0.47237 0.84346 0.85208 0.0
H79 H 0.12979 0.8481 1.00226 0.0
H80 H 0.62643 0.22481 0.10462 0.0
H81 H 0.75995 0.12951 0.12191 0.0
H82 H 0.96869 0.18178 0.01736 0.0
H83 H 0.60484 0.17648 0.14468 0.0
Tb84 Tb 1.02242 0.06687 0.54 0.0
C85 C 0.2185 0.91819 0.34793 0.0
N86 N 0.10299 0.92944 0.35285 0.0
C87 C 0.08738 0.9053 0.23026 0.0
C88 C 0.27474 0.90156 0.2839 0.0
C89 C 1.0356 0.9219 0.29509 0.0
C90 C 0.20787 0.89554 0.22461 0.0
C91 C 0.40046 0.91268 0.40558 0.0
C92 C 0.28035 0.92315 0.40763 0.0
C93 C 0.45857 0.89748 0.342 0.0
C94 C 0.39558 0.89161 0.28129 0.0
Tb95 Tb 1.03467 0.95955 0.46231 0.0
N96 N 0.22406 0.94068 0.46849 0.0
C97 C 0.45848 0.91876 0.46777 0.0
C98 C 0.27571 0.94328 0.52842 0.0
C99 C 0.39493 0.93313 0.52924 0.0
H100 H 0.94185 0.9288 0.29882 0.0
H101 H 0.4381 0.93679 0.57719 0.0
H102 H 1.00846 0.09163 0.70929 0.0
H103 H 0.71986 0.08517 0.35698 0.0
H104 H 0.22526 0.954 0.57523 0.0
H105 H 0.55178 0.91246 0.46917 0.0
H106 H 0.9111 0.06985 0.39571 0.0
H107 H 1.03435 0.90009 0.18467 0.0
H108 H 0.552 0.89023 0.33905 0.0
H109 H 0.44112 0.87938 0.23262 0.0
H110 H 0.86485 0.12331 0.80111 0.0
H111 H 0.24778 0.88286 0.17434 0.0
H112 H 0.55747 0.11165 0.44048 0.0
N113 N 0.89631 0.09355 0.62964 0.0
C114 C 0.79215 0.10583 0.61337 0.0
C115 C 0.84306 0.11833 0.74847 0.0
C116 C 0.70821 0.12434 0.66433 0.0
C117 C 0.92341 0.09981 0.69612 0.0
C118 C 0.73506 0.13068 0.73257 0.0
N119 N 0.85141 0.08067 0.49674 0.0
C120 C 0.83802 0.07801 0.43105 0.0
C121 C 0.65933 0.10982 0.52595 0.0
C122 C 0.76812 0.09862 0.54478 0.0
C123 C 0.64002 0.10348 0.45704 0.0
C124 C 0.73091 0.08819 0.40962 0.0
H125 H 0.67269 0.1448 0.77323 0.0
H126 H 0.53225 0.1482 0.68382 0.0
H127 H 0.48977 0.13563 0.56231 0.0
O128 O 0.08601 0.10382 0.49891 0.0
O129 O 0.86109 0.03592 0.54931 0.0
O130 O 0.8531 0.98126 0.45693 0.0
O131 O 0.06383 0.11934 0.60704 0.0
O132 O 0.06719 0.03635 0.43151 0.0
O133 O 0.95277 0.98542 0.40049 0.0
O134 O 0.98019 0.93079 0.52227 0.0
O135 O 0.20661 0.98907 0.46546 0.0
O136 O 0.20659 0.04789 0.54622 0.0
O137 O 0.98612 0.90536 0.41273 0.0
O138 O 1.00801 0.98975 0.57274 0.0
O139 O 0.10357 0.04472 0.60904 0.0
C140 C 0.79851 1.00946 0.50364 0.0
C141 C 0.19121 0.15653 0.57428 0.0
C142 C 0.27238 0.21028 0.56284 0.0
C143 C 0.34916 0.21511 0.61819 0.0
C144 C 0.26905 0.1622 0.62954 0.0
C145 C 0.34663 0.19146 0.65144 0.0
C146 C 0.19381 0.18061 0.5408 0.0
C147 C 1.00977 1.0094 0.38516 0.0
C148 C 0.09354 0.12994 0.55905 0.0
C149 C 0.59889 0.13487 0.64541 0.0
C150 C 0.57433 0.12747 0.57641 0.0
C151 C 0.26382 0.0187 0.50489 0.0
C152 C 0.8624 0.87752 0.46794 0.0
C153 C 0.77969 0.82904 0.497 0.0
C154 C 0.68267 0.82676 0.45351 0.0
C155 C 0.76415 0.87451 0.42495 0.0
C156 C 0.87023 0.85446 0.50368 0.0
C157 C 0.67559 0.84909 0.41759 0.0
C158 C 0.07006 0.01576 0.61831 0.0
C159 C 0.96416 0.90098 0.46893 0.0
H160 H 0.40887 0.23792 0.63722 0.0
H161 H 0.26762 0.14465 0.65717 0.0
H162 H 0.40378 0.19629 0.69528 0.0
H163 H 0.13248 0.17681 0.49896 0.0
H164 H 0.61352 0.80691 0.44572 0.0
H165 H 0.75713 0.89129 0.39589 0.0
H166 H 0.94733 0.85588 0.53559 0.0
H167 H 0.60129 0.8463 0.38331 0.0
Tb168 Tb 0.56549 0.46841 0.97249 0.0
C169 C 0.76219 0.60953 0.19332 0.0
N170 N 0.64643 0.59875 0.18721 0.0
C171 C 0.63351 0.61843 0.30924 0.0
C172 C 0.82049 0.62287 0.25722 0.0
C173 C 0.58054 0.60399 0.24429 0.0
C174 C 0.75467 0.62699 0.31563 0.0
C175 C 0.94158 0.61835 0.13833 0.0
C176 C 0.82152 0.608 0.13521 0.0
C177 C 1.00251 0.6294 0.20119 0.0
C178 C 0.94172 0.63214 0.26068 0.0
Tb179 Tb 0.5729 0.57528 0.07772 0.0
N180 N 0.76211 0.59447 0.0745 0.0
C181 C 0.99639 0.61653 0.07779 0.0
C182 C 0.81056 0.59603 0.0172 0.0
C183 C 0.92955 0.60631 0.01736 0.0
H184 H 0.48649 0.59795 0.23976 0.0
H185 H 0.96977 0.6061 0.97096 0.0
H186 H 0.65965 0.44573 0.81105 0.0
H187 H 0.16055 0.44009 0.07659 0.0
H188 H 0.75681 0.58899 0.97196 0.0
H189 H 0.08932 0.62327 0.07711 0.0
H190 H 0.37221 0.45838 0.07975 0.0
H191 H 0.58083 0.62352 0.3545 0.0
H192 H 0.09621 0.63603 0.2046 0.0
H193 H 0.98903 0.64162 0.30911 0.0
H194 H 0.56953 0.42048 0.69565 0.0
H195 H 0.79549 0.63775 0.36597 0.0
H196 H 0.04968 0.41919 0.96729 0.0
N197 N 0.49851 0.44325 0.86193 0.0
C198 C 0.38357 0.43165 0.85461 0.0
C199 C 0.516 0.42383 0.74003 0.0
C200 C 0.32877 0.41702 0.78971 0.0
C201 C 0.56642 0.43843 0.8056 0.0
C202 C 0.39625 0.41356 0.7321 0.0
N203 N 0.37601 0.44929 0.9746 0.0
C204 C 0.32326 0.44929 0.03229 0.0
C205 C 0.20151 0.42293 0.90775 0.0
C206 C 0.32095 0.43407 0.91259 0.0
C207 C 0.14247 0.42624 0.96803 0.0
C208 C 0.20448 0.43855 0.03023 0.0
H209 H 0.35741 0.40245 0.68126 0.0
H210 H 0.16435 0.39563 0.73521 0.0
H211 H 0.05205 0.40205 0.83853 0.0
O212 O 0.6195 0.43438 0.02284 0.0
O213 O 0.39508 0.49999 0.97997 0.0
O214 O 0.39008 0.55379 0.076 0.0
O215 O 0.61388 0.41498 0.91345 0.0
O216 O 0.59953 0.49337 0.08326 0.0
O217 O 0.48811 0.54496 0.13046 0.0
O218 O 0.52141 0.6106 0.02997 0.0
O219 O 0.74238 0.54299 0.06882 0.0
O220 O 0.74671 0.49008 0.97121 0.0
O221 O 0.52279 0.62826 0.13921 0.0
O222 O 0.53905 0.55198 0.96678 0.0
O223 O 0.64524 0.49899 0.91879 0.0
C224 C 0.33525 0.52722 0.02605 0.0
C225 C 0.73867 0.38209 0.95881 0.0
C226 C 0.8204 0.32783 0.96994 0.0
C227 C 0.91739 0.32891 0.92922 0.0
C228 C 0.83702 0.3822 0.91824 0.0
C229 C 0.92518 0.35568 0.90354 0.0
C230 C 0.73098 0.3548 0.98488 0.0
C231 C 0.53054 0.51495 0.132 0.0
C232 C 0.63608 0.40671 0.96551 0.0
C233 C 0.20881 0.40633 0.7845 0.0
C234 C 0.14507 0.40961 0.84341 0.0
C235 C 0.80218 0.51679 0.02049 0.0
C236 C 0.39475 0.66063 0.09403 0.0
C237 C 0.29936 0.71038 0.07294 0.0
C238 C 0.20753 0.71082 0.11799 0.0
C239 C 0.30097 0.66172 0.13844 0.0
C240 C 0.39374 0.68526 0.06157 0.0
C241 C 0.2089 0.6869 0.15063 0.0
C242 C 0.59901 0.52825 0.91585 0.0
C243 C 0.50068 0.63733 0.08807 0.0
H244 H 0.98762 0.30885 0.91697 0.0
H245 H 0.84433 0.40232 0.89656 0.0
H246 H 0.99986 0.35551 0.87144 0.0
H247 H 0.65328 0.3537 0.01416 0.0
H248 H 0.13591 0.73041 0.1295 0.0
H249 H 0.30028 0.64369 0.16504 0.0
H250 H 0.46704 0.68526 0.02845 0.0
H251 H 0.13854 0.68829 0.18623 0.0
Tb252 Tb 0.53106 0.57369 0.55047 0.0
C253 C 0.79533 0.43618 0.42502 0.0
N254 N 0.68709 0.44514 0.40669 0.0
C255 C 0.7535 0.42515 0.29012 0.0
C256 C 0.88933 0.42381 0.37753 0.0
C257 C 0.66272 0.43697 0.33905 0.0
C258 C 0.86817 0.41942 0.30976 0.0
C259 C 0.91849 0.42722 0.51151 0.0
C260 C 0.81037 0.43786 0.49109 0.0
C261 C 1.01434 0.41678 0.4655 0.0
C262 C 1.00008 0.41534 0.39878 0.0
Tb263 Tb 0.55147 0.46737 0.49453 0.0
N264 N 0.71899 0.45097 0.53608 0.0
C265 C 0.92683 0.42765 0.57769 0.0
C266 C 0.72441 0.45022 0.59975 0.0
C267 C 0.82871 0.43874 0.62167 0.0
H268 H 0.57319 0.43892 0.32195 0.0
H269 H 0.83375 0.43876 0.6726 0.0
H270 H 0.41151 0.59693 0.70451 0.0
H271 H 0.37191 0.59239 0.32516 0.0
H272 H 0.64851 0.45869 0.63357 0.0
H273 H 1.00826 0.4194 0.59519 0.0
H274 H 0.52492 0.58265 0.40027 0.0
H275 H 0.73441 0.41987 0.23704 0.0
H276 H 0.09931 0.40961 0.4811 0.0
H277 H 0.07425 0.40693 0.36348 0.0
H278 H 0.2126 0.61531 0.75763 0.0
H279 H 0.93802 0.40997 0.27163 0.0
H280 H 0.1636 0.60525 0.36429 0.0
N281 N 0.35456 0.59392 0.60673 0.0
C282 C 0.26603 0.60124 0.57002 0.0
C283 C 0.22634 0.61115 0.70464 0.0
C284 C 0.15113 0.61111 0.5976 0.0
C285 C 0.33868 0.60078 0.67456 0.0
C286 C 0.13152 0.6156 0.66559 0.0
N287 N 0.40166 0.58596 0.4782 0.0
C288 C 0.43334 0.58682 0.41689 0.0
C289 C 0.20028 0.60301 0.46269 0.0
C290 C 0.28992 0.59638 0.50308 0.0
C291 C 0.22988 0.60054 0.39717 0.0
C292 C 0.34756 0.59321 0.37484 0.0
H293 H 0.04415 0.62289 0.68862 0.0
H294 H 0.96961 0.62124 0.57472 0.0
H295 H 1.01355 0.61617 0.45819 0.0
O296 O 0.55893 0.62449 0.54613 0.0
O297 O 0.37259 0.54156 0.55942 0.0
O298 O 0.37185 0.48579 0.47283 0.0
O299 O 0.61053 0.615 0.63474 0.0
O300 O 0.5976 0.54042 0.44815 0.0
O301 O 0.49197 0.48761 0.41778 0.0
O302 O 0.45317 0.43613 0.53643 0.0
O303 O 0.71098 0.50206 0.54336 0.0
O304 O 0.71287 0.55012 0.51176 0.0
O305 O 0.53626 0.41182 0.43811 0.0
O306 O 0.4945 0.49956 0.59975 0.0
O307 O 0.5867 0.55512 0.63012 0.0
C308 C 0.3129 0.51531 0.5118 0.0
C309 C 0.70975 0.66316 0.61675 0.0
C310 C 0.7974 0.71611 0.60467 0.0
C311 C 0.89329 0.71448 0.64608 0.0
C312 C 0.80499 0.66312 0.65996 0.0
C313 C 0.89635 0.6884 0.67388 0.0
C314 C 0.70598 0.69013 0.58985 0.0
C315 C 0.54336 0.5126 0.40233 0.0
C316 C 0.60722 0.6383 0.6064 0.0
C317 C 0.05976 0.61546 0.55603 0.0
C318 C 0.08452 0.61196 0.48909 0.0
C319 C 0.7717 0.52439 0.52364 0.0
C320 C 0.3773 0.37947 0.459 0.0
C321 C 0.28505 0.32432 0.45789 0.0
C322 C 0.21389 0.32294 0.40228 0.0
C323 C 0.30555 0.37743 0.40338 0.0
C324 C 0.36672 0.35286 0.48606 0.0
C325 C 0.22444 0.34924 0.37526 0.0
C326 C 0.54336 0.52884 0.64528 0.0
C327 C 0.47363 0.40624 0.48415 0.0
H328 H 0.96447 0.73406 0.6585 0.0
H329 H 0.80935 0.64352 0.68303 0.0
H330 H 0.96969 0.68791 0.70681 0.0
H331 H 0.63126 0.69121 0.55814 0.0
H332 H 0.15236 0.30095 0.3784 0.0
H333 H 0.31375 0.39723 0.381 0.0
H334 H 0.42381 0.35399 0.52819 0.0
H335 H 0.17054 0.34744 0.33165 0.0
C336 C 0.39793 0.75995 0.0486 0.0
C337 C 0.29834 0.73778 0.04184 0.0
C338 C 0.39553 0.78763 0.02408 0.0
C339 C 0.29351 0.79433 0.99166 0.0
H340 H 0.47769 0.75631 0.07417 0.0
H341 H 0.47445 0.80401 0.03063 0.0
S342 S 1.01219 0.74222 0.95676 0.0
N343 N 0.09645 0.72341 0.99766 0.0
N344 N 0.0924 0.77516 0.95136 0.0
C345 C 0.19371 0.77214 0.98407 0.0
C346 C 0.19611 0.74396 0.00905 0.0
C347 C 0.8348 0.26176 0.94761 0.0
C348 C 0.81311 0.29756 0.99385 0.0
C349 C 0.83421 0.23287 0.96897 0.0
C350 C 0.81167 0.23849 0.0375 0.0
H351 H 0.85128 0.25594 0.89408 0.0
H352 H 0.84859 0.20584 0.93119 0.0
S353 S 0.75998 0.3271 0.18025 0.0
N354 N 0.77539 0.33695 0.11224 0.0
N355 N 0.77407 0.28294 0.15243 0.0
C356 C 0.79208 0.2742 0.08452 0.0
C357 C 0.79254 0.30357 0.06273 0.0
C358 C 0.38044 0.24979 0.51543 0.0
C359 C 0.27179 0.23765 0.53169 0.0
C360 C 0.38387 0.27782 0.49202 0.0
C361 C 0.27878 0.29491 0.48372 0.0
H362 H 0.46387 0.23761 0.52119 0.0
H363 H 0.46963 0.28601 0.47984 0.0
S364 S 0.97168 0.27468 0.52225 0.0
N365 N 0.05664 0.24585 0.53978 0.0
N366 N 0.06305 0.2983 0.49542 0.0
C367 C 0.16946 0.28299 0.49949 0.0
C368 C 0.16596 0.25444 0.52344 0.0
C369 C 0.8884 0.78045 0.52098 0.0
C370 C 0.78776 0.8029 0.53083 0.0
C371 C 0.89077 0.75247 0.54484 0.0
C372 C 0.79239 0.74573 0.57921 0.0
H373 H 0.96436 0.78376 0.49267 0.0
H374 H 0.9694 0.7355 0.53514 0.0
S375 S 0.51383 0.79978 0.62588 0.0
N376 N 0.59174 0.81851 0.58283 0.0
N377 N 0.59614 0.76604 0.62726 0.0
C378 C 0.69308 0.76881 0.59148 0.0
C379 C 0.69087 0.79734 0.56751 0.0
C380 C 0.47792 0.99526 0.93999 0.0
C381 C 0.41038 1.0068 1.0011 0.0
C382 C 0.60427 0.9989 0.94032 0.0
C383 C 0.67083 1.01394 1.0018 0.0
H384 H 0.43268 0.98371 0.89113 0.0
H385 H 0.6503 0.98974 0.89168 0.0
S386 S 0.54165 0.04312 0.17609 0.0
N387 N 0.42419 0.03078 0.12506 0.0
N388 N 0.6581 0.03742 0.12558 0.0
C389 C 0.60478 0.02466 0.06311 0.0
C390 C 0.47639 0.02101 0.06279 0.0
C391 C 0.46629 0.99919 0.44451 0.0
C392 C 0.40041 0.01778 0.50509 0.0
C393 C 0.59311 0.99628 0.44443 0.0
C394 C 0.66191 1.01151 0.50505 0.0
H395 H 0.41932 0.98677 0.3963 0.0
H396 H 0.63771 0.98215 0.39603 0.0
S397 S 0.53368 0.05895 0.67887 0.0
N398 N 0.41621 0.05032 0.62791 0.0
N399 N 0.65003 0.04267 0.62853 0.0
C400 C 0.5967 0.02924 0.56609 0.0
C401 C 0.46807 0.03299 0.56589 0.0
C402 C 1.00408 0.53178 0.08288 0.0
C403 C 0.93836 0.51866 0.02087 0.0
C404 C 0.13053 0.53535 0.0844 0.0
C405 C 0.19897 0.52579 0.02393 0.0
H406 H 0.95725 0.53939 0.13106 0.0
H407 H 0.17522 0.54515 0.13359 0.0
S408 S 0.07109 0.4944 0.84836 0.0
N409 N 0.95336 0.49874 0.89752 0.0
N410 N 0.18764 0.50539 0.90026 0.0
C411 C 0.13405 0.51339 0.96175 0.0
C412 C 1.0055 0.50974 0.96023 0.0
C413 C 0.10421 0.51998 0.46103 0.0
C414 C 0.17481 0.51591 0.51326 0.0
C415 C 0.97658 0.52356 0.46525 0.0
C416 C 0.91032 0.52243 0.52124 0.0
H417 H 0.14812 0.52137 0.41696 0.0
H418 H 0.92918 0.52677 0.42347 0.0
S419 S 0.05063 0.51181 0.67162 0.0
N420 N 0.16581 0.51147 0.6233 0.0
N421 N 0.93082 0.51638 0.63006 0.0
C422 C 0.98041 0.51785 0.57313 0.0
C423 C 0.11009 0.51513 0.56952 0.0
C424 C 0.90272 1.00605 0.27955 0.0
C425 C 1.01049 1.00592 0.31352 0.0
C426 C 0.90258 1.00576 0.21325 0.0
C427 C 1.00987 1.00351 0.17782 0.0
H428 H 0.81837 1.00773 0.30536 0.0
H429 H 0.81819 1.00717 0.18947 0.0
S430 S 0.31427 0.9977 0.24161 0.0
N431 N 0.22602 1.00137 0.30609 0.0
N432 N 0.22576 0.99824 0.17958 0.0
C433 C 0.11764 1.00129 0.20996 0.0
C434 C 0.11794 1.00311 0.27838 0.0
C435 C 0.96901 0.02356 0.79352 0.0
C436 C 0.07521 0.01784 0.82329 0.0
C437 C 0.96819 0.0226 0.72671 0.0
C438 C 0.07412 0.01714 0.68866 0.0
H439 H 0.88559 0.02769 0.8212 0.0
H440 H 0.8843 0.0263 0.70473 0.0
S441 S 0.37503 1.00122 0.74432 0.0
N442 N 0.28784 1.006 0.8098 0.0
N443 N 0.28759 1.0063 0.68592 0.0
C444 C 0.18093 1.01213 0.7185 0.0
C445 C 0.18111 1.01195 0.7855 0.0
C446 C 0.64437 0.5144 0.29935 0.0
C447 C 0.53958 0.50967 0.33092 0.0
C448 C 0.64111 0.51478 0.23362 0.0
C449 C 0.53234 0.51198 0.1988 0.0
H450 H 0.72918 0.51792 0.3258 0.0
H451 H 0.72355 0.51857 0.21086 0.0
S452 S 0.23287 0.50109 0.26094 0.0
N453 N 0.32489 0.50155 0.32225 0.0
N454 N 0.31738 0.50583 0.20151 0.0
C455 C 0.42698 0.50779 0.23019 0.0
C456 C 0.43104 0.50556 0.29554 0.0
C457 C 0.46598 0.51755 0.74513 0.0
C458 C 0.55609 0.53107 0.71597 0.0
C459 C 0.47968 0.51753 0.81079 0.0
C460 C 0.58609 0.52936 0.8478 0.0
H461 H 0.38414 0.50716 0.71722 0.0
H462 H 0.40786 0.50739 0.83209 0.0
S463 S 0.8484 0.56713 0.79443 0.0
N464 N 0.7522 0.55847 0.73092 0.0
N465 N 0.78362 0.55392 0.85015 0.0
C466 C 0.67726 0.54232 0.81883 0.0
C467 C 0.66075 0.54432 0.75386 0.0
loop_
_geom_bond_atom_site_label_1
_geom_bond_atom_site_label_2
_geom_bond_distance
_geom_bond_site_symmetry_2
_ccdc_geom_bond_type
Tb0 N29 2.617 . S
Tb0 N35 2.572 . S
Tb0 O44 2.465 1_655 S
Tb0 O45 2.387 . S
Tb0 O47 2.428 1_655 S
Tb0 O48 2.308 1_556 S
Tb0 O52 2.349 1_655 S
Tb0 O55 2.393 1_655 S
Tb0 C64 2.802 1_655 S
C1 N2 1.379 . S
C1 C4 1.416 . S
C1 C8 1.424 . S
N2 C1 1.379 . S
N2 C5 1.334 . S
N2 Tb11 2.617 . S
C3 C5 1.390 . S
C3 C6 1.339 . S
C3 H23 0.930 . S
C4 C1 1.416 . S
C4 C6 1.416 . S
C4 C10 1.448 . S
C5 N2 1.334 . S
C5 C3 1.390 . S
C5 H16 0.930 . S
C6 C3 1.339 . S
C6 C4 1.416 . S
C6 H27 0.930 . S
C7 C8 1.413 . S
C7 C9 1.427 . S
C7 C13 1.415 . S
C8 C1 1.424 . S
C8 C7 1.413 . S
C8 N12 1.361 . S
C9 C7 1.427 . S
C9 C10 1.328 . S
C9 H24 0.929 . S
C10 C4 1.448 . S
C10 C9 1.328 . S
C10 H25 0.930 . S
Tb11 N2 2.617 . S
Tb11 N12 2.572 . S
Tb11 O46 2.349 1_455 S
Tb11 O49 2.393 1_455 S
Tb11 O50 2.465 1_455 S
Tb11 O51 2.387 . S
Tb11 O53 2.428 1_455 S
Tb11 O54 2.308 1_554 S
Tb11 C75 2.802 1_455 S
N12 C8 1.361 . S
N12 Tb11 2.572 . S
N12 C14 1.340 1_554 S
C13 C7 1.415 . S
C13 C15 1.333 1_554 S
C13 H21 0.931 1_554 S
C14 N12 1.340 1_556 S
C14 C15 1.407 . S
C14 H20 0.930 . S
C15 C13 1.333 1_556 S
C15 C14 1.407 . S
C15 H17 0.929 . S
H16 C5 0.930 . S
H17 C15 0.929 . S
H18 C33 0.930 . S
H19 C40 0.929 . S
H20 C14 0.930 . S
H21 C13 0.931 1_556 S
H22 C36 0.930 . S
H23 C3 0.930 . S
H24 C9 0.929 . S
H25 C10 0.930 . S
H26 C31 0.930 . S
H27 C6 0.930 . S
H28 C39 0.938 . S
N29 Tb0 2.617 . S
N29 C30 1.379 . S
N29 C33 1.334 . S
C30 N29 1.379 . S
C30 C32 1.416 . S
C30 C38 1.424 . S
C31 H26 0.930 . S
C31 C33 1.390 . S
C31 C34 1.339 . S
C32 C30 1.416 . S
C32 C34 1.416 . S
C32 C65 1.448 . S
C33 H18 0.930 . S
C33 N29 1.334 . S
C33 C31 1.390 . S
C34 C31 1.339 . S
C34 C32 1.416 . S
C34 H41 0.930 . S
N35 Tb0 2.572 . S
N35 C36 1.340 1_556 S
N35 C38 1.361 . S
C36 H22 0.930 . S
C36 N35 1.340 1_554 S
C36 C40 1.407 . S
C37 C38 1.413 . S
C37 C39 1.399 1_556 S
C37 C66 1.427 . S
C38 C30 1.424 . S
C38 N35 1.361 . S
C38 C37 1.413 . S
C39 H28 0.938 . S
C39 C37 1.399 1_554 S
C39 C40 1.342 . S
C40 H19 0.929 . S
C40 C36 1.407 . S
C40 C39 1.342 . S
H41 C34 0.930 . S
H42 C65 0.930 . S
H43 C66 0.929 . S
O44 Tb0 2.465 1_455 S
O44 C64 1.264 . S
O45 Tb0 2.387 . S
O45 C56 1.264 1_565 S
O46 Tb11 2.349 1_655 S
O46 C56 1.243 1_554 S
O47 Tb0 2.428 1_455 S
O47 C64 1.256 . S
O48 Tb0 2.308 1_554 S
O48 C63 1.266 1_565 S
O49 Tb11 2.393 1_655 S
O49 C63 1.248 . S
O50 Tb11 2.465 1_655 S
O50 C75 1.264 . S
O51 Tb11 2.387 . S
O51 C67 1.264 1_545 S
O52 Tb0 2.349 1_455 S
O52 C67 1.243 1_556 S
O53 Tb11 2.428 1_655 S
O53 C75 1.256 . S
O54 Tb11 2.308 1_556 S
O54 C74 1.266 1_545 S
O55 Tb0 2.393 1_455 S
O55 C74 1.248 . S
C56 O45 1.264 1_545 S
C56 O46 1.243 1_556 S
C57 C60 1.399 . S
C57 C62 1.383 . S
C57 C64 1.496 . S
C58 C59 1.399 . S
C58 C62 1.389 . S
C59 C58 1.399 . S
C59 C61 1.380 . S
C59 H76 0.929 . S
C60 C57 1.399 . S
C60 C61 1.392 . S
C60 H77 0.929 . S
C61 C59 1.380 . S
C61 C60 1.392 . S
C61 H78 0.929 . S
C62 C57 1.383 . S
C62 C58 1.389 . S
C62 H79 0.931 1_556 S
C63 O48 1.266 1_545 S
C63 O49 1.248 . S
C64 Tb0 2.802 1_455 S
C64 O44 1.264 . S
C64 O47 1.256 . S
C64 C57 1.496 . S
C65 C32 1.448 . S
C65 H42 0.930 . S
C65 C66 1.328 . S
C66 C37 1.427 . S
C66 H43 0.929 . S
C66 C65 1.328 . S
C67 O51 1.264 1_565 S
C67 O52 1.243 1_554 S
C68 C71 1.399 . S
C68 C72 1.383 . S
C68 C75 1.496 . S
C69 C70 1.399 . S
C69 C72 1.389 . S
C70 C69 1.399 . S
C70 C73 1.380 . S
C70 H80 0.929 . S
C71 C68 1.399 . S
C71 C73 1.392 . S
C71 H81 0.929 . S
C72 C68 1.383 . S
C72 C69 1.389 . S
C72 H82 0.931 1_554 S
C73 C70 1.380 . S
C73 C71 1.392 . S
C73 H83 0.929 . S
C74 O54 1.266 1_565 S
C74 O55 1.248 . S
C75 Tb11 2.802 1_655 S
C75 O50 1.264 . S
C75 O53 1.256 . S
C75 C68 1.496 . S
H76 C59 0.929 . S
H77 C60 0.929 . S
H78 C61 0.929 . S
H79 C62 0.931 1_554 S
H80 C70 0.929 . S
H81 C71 0.929 . S
H82 C72 0.931 1_556 S
H83 C73 0.929 . S
Tb84 N113 2.617 . S
Tb84 N119 2.572 . S
Tb84 O128 2.465 1_655 S
Tb84 O129 2.387 . S
Tb84 O131 2.428 1_655 S
Tb84 O132 2.308 . S
Tb84 O136 2.349 1_655 S
Tb84 O139 2.393 1_655 S
Tb84 C148 2.802 1_655 S
C85 N86 1.379 . S
C85 C88 1.416 . S
C85 C92 1.424 . S
N86 C85 1.379 . S
N86 C89 1.334 . S
N86 Tb95 2.617 . S
C87 C89 1.390 . S
C87 C90 1.339 . S
C87 H107 0.930 . S
C88 C85 1.416 . S
C88 C90 1.416 . S
C88 C94 1.448 . S
C89 N86 1.334 . S
C89 C87 1.390 . S
C89 H100 0.930 . S
C90 C87 1.339 . S
C90 C88 1.416 . S
C90 H111 0.930 . S
C91 C92 1.413 . S
C91 C93 1.427 . S
C91 C97 1.416 . S
C92 C85 1.424 . S
C92 C91 1.413 . S
C92 N96 1.361 . S
C93 C91 1.427 . S
C93 C94 1.328 . S
C93 H108 0.929 . S
C94 C88 1.448 . S
C94 C93 1.328 . S
C94 H109 0.930 . S
Tb95 N86 2.617 . S
Tb95 N96 2.572 . S
Tb95 O130 2.349 1_455 S
Tb95 O133 2.393 1_455 S
Tb95 O134 2.465 1_455 S
Tb95 O135 2.387 . S
Tb95 O137 2.428 1_455 S
Tb95 O138 2.308 . S
Tb95 C159 2.802 1_455 S
N96 C92 1.361 . S
N96 Tb95 2.572 . S
N96 C98 1.340 . S
C97 C91 1.416 . S
C97 C99 1.332 . S
C97 H105 0.931 . S
C98 N96 1.340 . S
C98 C99 1.407 . S
C98 H104 0.930 . S
C99 C97 1.332 . S
C99 C98 1.407 . S
C99 H101 0.929 . S
H100 C89 0.930 . S
H101 C99 0.929 . S
H102 C117 0.930 . S
H103 C124 0.929 . S
H104 C98 0.930 . S
H105 C97 0.931 . S
H106 C120 0.930 . S
H107 C87 0.930 . S
H108 C93 0.929 . S
H109 C94 0.930 . S
H110 C115 0.930 . S
H111 C90 0.930 . S
H112 C123 0.931 . S
N113 Tb84 2.617 . S
N113 C114 1.379 . S
N113 C117 1.334 . S
C114 N113 1.379 . S
C114 C116 1.416 . S
C114 C122 1.424 . S
C115 H110 0.930 . S
C115 C117 1.390 . S
C115 C118 1.339 . S
C116 C114 1.416 . S
C116 C118 1.416 . S
C116 C149 1.448 . S
C117 H102 0.930 . S
C117 N113 1.334 . S
C117 C115 1.390 . S
C118 C115 1.339 . S
C118 C116 1.416 . S
C118 H125 0.930 . S
N119 Tb84 2.572 . S
N119 C120 1.340 . S
N119 C122 1.361 . S
C120 H106 0.930 . S
C120 N119 1.340 . S
C120 C124 1.407 . S
C121 C122 1.413 . S
C121 C123 1.416 . S
C121 C150 1.427 . S
C122 C114 1.424 . S
C122 N119 1.361 . S
C122 C121 1.413 . S
C123 H112 0.931 . S
C123 C121 1.416 . S
C123 C124 1.332 . S
C124 H103 0.929 . S
C124 C120 1.407 . S
C124 C123 1.332 . S
H125 C118 0.930 . S
H126 C149 0.930 . S
H127 C150 0.929 . S
O128 Tb84 2.465 1_455 S
O128 C148 1.264 . S
O129 Tb84 2.387 . S
O129 C140 1.264 1_545 S
O130 Tb95 2.349 1_655 S
O130 C140 1.243 . S
O131 Tb84 2.428 1_455 S
O131 C148 1.256 . S
O132 Tb84 2.308 . S
O132 C147 1.266 1_545 S
O133 Tb95 2.393 1_655 S
O133 C147 1.248 . S
O134 Tb95 2.465 1_655 S
O134 C159 1.264 . S
O135 Tb95 2.387 . S
O135 C151 1.264 1_565 S
O136 Tb84 2.349 1_455 S
O136 C151 1.243 . S
O137 Tb95 2.428 1_655 S
O137 C159 1.256 . S
O138 Tb95 2.308 . S
O138 C158 1.266 1_565 S
O139 Tb84 2.393 1_455 S
O139 C158 1.248 . S
C140 O129 1.264 1_565 S
C140 O130 1.243 . S
C141 C144 1.399 . S
C141 C146 1.383 . S
C141 C148 1.496 . S
C142 C143 1.399 . S
C142 C146 1.389 . S
C143 C142 1.399 . S
C143 C145 1.380 . S
C143 H160 0.929 . S
C144 C141 1.399 . S
C144 C145 1.392 . S
C144 H161 0.929 . S
C145 C143 1.380 . S
C145 C144 1.392 . S
C145 H162 0.929 . S
C146 C141 1.383 . S
C146 C142 1.389 . S
C146 H163 0.931 . S
C147 O132 1.266 1_565 S
C147 O133 1.248 . S
C148 Tb84 2.802 1_455 S
C148 O128 1.264 . S
C148 O131 1.256 . S
C148 C141 1.496 . S
C149 C116 1.448 . S
C149 H126 0.930 . S
C149 C150 1.328 . S
C150 C121 1.427 . S
C150 H127 0.929 . S
C150 C149 1.328 . S
C151 O135 1.264 1_545 S
C151 O136 1.243 . S
C152 C155 1.399 . S
C152 C156 1.383 . S
C152 C159 1.496 . S
C153 C154 1.399 . S
C153 C156 1.389 . S
C154 C153 1.399 . S
C154 C157 1.380 . S
C154 H164 0.929 . S
C155 C152 1.399 . S
C155 C157 1.392 . S
C155 H165 0.929 . S
C156 C152 1.383 . S
C156 C153 1.389 . S
C156 H166 0.931 . S
C157 C154 1.380 . S
C157 C155 1.392 . S
C157 H167 0.929 . S
C158 O138 1.266 1_545 S
C158 O139 1.248 . S
C159 Tb95 2.802 1_655 S
C159 O134 1.264 . S
C159 O137 1.256 . S
C159 C152 1.496 . S
H160 C143 0.929 . S
H161 C144 0.929 . S
H162 C145 0.929 . S
H163 C146 0.931 . S
H164 C154 0.929 . S
H165 C155 0.929 . S
H166 C156 0.931 . S
H167 C157 0.929 . S
Tb168 N197 2.617 . S
Tb168 N203 2.572 . S
Tb168 O212 2.465 . S
Tb168 O213 2.387 . S
Tb168 O215 2.428 . S
Tb168 O216 2.308 1_556 S
Tb168 O220 2.349 . S
Tb168 O223 2.393 . S
Tb168 C232 2.802 . S
C169 N170 1.379 . S
C169 C172 1.416 . S
C169 C176 1.424 . S
N170 C169 1.379 . S
N170 C173 1.334 . S
N170 Tb179 2.617 . S
C171 C173 1.390 . S
C171 C174 1.339 . S
C171 H191 0.930 . S
C172 C169 1.416 . S
C172 C174 1.416 . S
C172 C178 1.448 . S
C173 N170 1.334 . S
C173 C171 1.390 . S
C173 H184 0.930 . S
C174 C171 1.339 . S
C174 C172 1.416 . S
C174 H195 0.930 . S
C175 C176 1.413 . S
C175 C177 1.427 . S
C175 C181 1.416 . S
C176 C169 1.424 . S
C176 C175 1.413 . S
C176 N180 1.361 . S
C177 C175 1.427 . S
C177 C178 1.328 . S
C177 H192 0.929 . S
C178 C172 1.448 . S
C178 C177 1.328 . S
C178 H193 0.930 . S
Tb179 N170 2.617 . S
Tb179 N180 2.572 . S
Tb179 O214 2.349 . S
Tb179 O217 2.393 . S
Tb179 O218 2.465 . S
Tb179 O219 2.387 . S
Tb179 O221 2.428 . S
Tb179 O222 2.308 1_554 S
Tb179 C243 2.802 . S
N180 C176 1.361 . S
N180 Tb179 2.572 . S
N180 C182 1.340 1_554 S
C181 C175 1.416 . S
C181 C183 1.332 1_554 S
C181 H189 0.931 1_554 S
C182 N180 1.340 1_556 S
C182 C183 1.407 . S
C182 H188 0.930 . S
C183 C181 1.332 1_556 S
C183 C182 1.407 . S
C183 H185 0.929 . S
H184 C173 0.930 . S
H185 C183 0.929 . S
H186 C201 0.930 . S
H187 C208 0.929 . S
H188 C182 0.930 . S
H189 C181 0.931 1_556 S
H190 C204 0.930 . S
H191 C171 0.930 . S
H192 C177 0.929 . S
H193 C178 0.930 . S
H194 C199 0.930 . S
H195 C174 0.930 . S
H196 C207 0.938 . S
N197 Tb168 2.617 . S
N197 C198 1.379 . S
N197 C201 1.334 . S
C198 N197 1.379 . S
C198 C200 1.416 . S
C198 C206 1.424 . S
C199 H194 0.930 . S
C199 C201 1.390 . S
C199 C202 1.339 . S
C200 C198 1.416 . S
C200 C202 1.416 . S
C200 C233 1.448 . S
C201 H186 0.930 . S
C201 N197 1.334 . S
C201 C199 1.390 . S
C202 C199 1.339 . S
C202 C200 1.416 . S
C202 H209 0.930 . S
N203 Tb168 2.572 . S
N203 C204 1.340 1_556 S
N203 C206 1.361 . S
C204 H190 0.930 . S
C204 N203 1.340 1_554 S
C204 C208 1.407 . S
C205 C206 1.413 . S
C205 C207 1.399 1_556 S
C205 C234 1.427 . S
C206 C198 1.424 . S
C206 N203 1.361 . S
C206 C205 1.413 . S
C207 H196 0.938 . S
C207 C205 1.399 1_554 S
C207 C208 1.342 . S
C208 H187 0.929 . S
C208 C204 1.407 . S
C208 C207 1.342 . S
H209 C202 0.930 . S
H210 C233 0.930 . S
H211 C234 0.929 . S
O212 Tb168 2.465 . S
O212 C232 1.264 . S
O213 Tb168 2.387 . S
O213 C224 1.264 . S
O214 Tb179 2.349 . S
O214 C224 1.243 1_554 S
O215 Tb168 2.428 . S
O215 C232 1.256 . S
O216 Tb168 2.308 1_554 S
O216 C231 1.266 . S
O217 Tb179 2.393 . S
O217 C231 1.248 . S
O218 Tb179 2.465 . S
O218 C243 1.264 . S
O219 Tb179 2.387 . S
O219 C235 1.264 . S
O220 Tb168 2.349 . S
O220 C235 1.243 1_556 S
O221 Tb179 2.428 . S
O221 C243 1.256 . S
O222 Tb179 2.308 1_556 S
O222 C242 1.266 . S
O223 Tb168 2.393 . S
O223 C242 1.248 . S
C224 O213 1.264 . S
C224 O214 1.243 1_556 S
C225 C228 1.399 . S
C225 C230 1.383 . S
C225 C232 1.496 . S
C226 C227 1.399 . S
C226 C230 1.389 . S
C227 C226 1.399 . S
C227 C229 1.380 . S
C227 H244 0.929 . S
C228 C225 1.399 . S
C228 C229 1.392 . S
C228 H245 0.929 . S
C229 C227 1.380 . S
C229 C228 1.392 . S
C229 H246 0.929 . S
C230 C225 1.383 . S
C230 C226 1.389 . S
C230 H247 0.931 1_556 S
C231 O216 1.266 . S
C231 O217 1.248 . S
C232 Tb168 2.802 . S
C232 O212 1.264 . S
C232 O215 1.256 . S
C232 C225 1.496 . S
C233 C200 1.448 . S
C233 H210 0.930 . S
C233 C234 1.328 . S
C234 C205 1.427 . S
C234 H211 0.929 . S
C234 C233 1.328 . S
C235 O219 1.264 . S
C235 O220 1.243 1_554 S
C236 C239 1.399 . S
C236 C240 1.383 . S
C236 C243 1.496 . S
C237 C238 1.399 . S
C237 C240 1.389 . S
C238 C237 1.399 . S
C238 C241 1.380 . S
C238 H248 0.929 . S
C239 C236 1.399 . S
C239 C241 1.392 . S
C239 H249 0.929 . S
C240 C236 1.383 . S
C240 C237 1.389 . S
C240 H250 0.931 1_554 S
C241 C238 1.380 . S
C241 C239 1.392 . S
C241 H251 0.929 . S
C242 O222 1.266 . S
C242 O223 1.248 . S
C243 Tb179 2.802 . S
C243 O218 1.264 . S
C243 O221 1.256 . S
C243 C236 1.496 . S
H244 C227 0.929 . S
H245 C228 0.929 . S
H246 C229 0.929 . S
H247 C230 0.931 1_554 S
H248 C238 0.929 . S
H249 C239 0.929 . S
H250 C240 0.931 1_556 S
H251 C241 0.929 . S
Tb252 N281 2.617 . S
Tb252 N287 2.572 . S
Tb252 O296 2.465 . S
Tb252 O297 2.387 . S
Tb252 O299 2.428 . S
Tb252 O300 2.308 . S
Tb252 O304 2.349 . S
Tb252 O307 2.393 . S
Tb252 C316 2.802 . S
C253 N254 1.379 . S
C253 C256 1.416 . S
C253 C260 1.424 . S
N254 C253 1.379 . S
N254 C257 1.334 . S
N254 Tb263 2.617 . S
C255 C257 1.390 . S
C255 C258 1.339 . S
C255 H275 0.930 . S
C256 C253 1.416 . S
C256 C258 1.416 . S
C256 C262 1.448 . S
C257 N254 1.334 . S
C257 C255 1.390 . S
C257 H268 0.930 . S
C258 C255 1.339 . S
C258 C256 1.416 . S
C258 H279 0.930 . S
C259 C260 1.413 . S
C259 C261 1.427 . S
C259 C265 1.416 . S
C260 C253 1.424 . S
C260 C259 1.413 . S
C260 N264 1.361 . S
C261 C259 1.427 . S
C261 C262 1.328 . S
C261 H276 0.929 . S
C262 C256 1.448 . S
C262 C261 1.328 . S
C262 H277 0.930 . S
Tb263 N254 2.617 . S
Tb263 N264 2.572 . S
Tb263 O298 2.349 . S
Tb263 O301 2.393 . S
Tb263 O302 2.465 . S
Tb263 O303 2.387 . S
Tb263 O305 2.428 . S
Tb263 O306 2.308 . S
Tb263 C327 2.802 . S
N264 C260 1.361 . S
N264 Tb263 2.572 . S
N264 C266 1.340 . S
C265 C259 1.416 . S
C265 C267 1.332 . S
C265 H273 0.931 . S
C266 N264 1.340 . S
C266 C267 1.407 . S
C266 H272 0.930 . S
C267 C265 1.332 . S
C267 C266 1.407 . S
C267 H269 0.929 . S
H268 C257 0.930 . S
H269 C267 0.929 . S
H270 C285 0.930 . S
H271 C292 0.929 . S
H272 C266 0.930 . S
H273 C265 0.931 . S
H274 C288 0.930 . S
H275 C255 0.930 . S
H276 C261 0.929 . S
H277 C262 0.930 . S
H278 C283 0.930 . S
H279 C258 0.930 . S
H280 C291 0.931 . S
N281 Tb252 2.617 . S
N281 C282 1.379 . S
N281 C285 1.334 . S
C282 N281 1.379 . S
C282 C284 1.416 . S
C282 C290 1.424 . S
C283 H278 0.930 . S
C283 C285 1.390 . S
C283 C286 1.339 . S
C284 C282 1.416 . S
C284 C286 1.416 . S
C284 C317 1.448 . S
C285 H270 0.930 . S
C285 N281 1.334 . S
C285 C283 1.390 . S
C286 C283 1.339 . S
C286 C284 1.416 . S
C286 H293 0.930 . S
N287 Tb252 2.572 . S
N287 C288 1.340 . S
N287 C290 1.361 . S
C288 H274 0.930 . S
C288 N287 1.340 . S
C288 C292 1.407 . S
C289 C290 1.413 . S
C289 C291 1.416 . S
C289 C318 1.427 . S
C290 C282 1.424 . S
C290 N287 1.361 . S
C290 C289 1.413 . S
C291 H280 0.931 . S
C291 C289 1.416 . S
C291 C292 1.332 . S
C292 H271 0.929 . S
C292 C288 1.407 . S
C292 C291 1.332 . S
H293 C286 0.930 . S
H294 C317 0.930 . S
H295 C318 0.929 . S
O296 Tb252 2.465 . S
O296 C316 1.264 . S
O297 Tb252 2.387 . S
O297 C308 1.264 . S
O298 Tb263 2.349 . S
O298 C308 1.243 . S
O299 Tb252 2.428 . S
O299 C316 1.256 . S
O300 Tb252 2.308 . S
O300 C315 1.266 . S
O301 Tb263 2.393 . S
O301 C315 1.248 . S
O302 Tb263 2.465 . S
O302 C327 1.264 . S
O303 Tb263 2.387 . S
O303 C319 1.264 . S
O304 Tb252 2.349 . S
O304 C319 1.243 . S
O305 Tb263 2.428 . S
O305 C327 1.256 . S
O306 Tb263 2.308 . S
O306 C326 1.266 . S
O307 Tb252 2.393 . S
O307 C326 1.248 . S
C308 O297 1.264 . S
C308 O298 1.243 . S
C309 C312 1.399 . S
C309 C314 1.383 . S
C309 C316 1.496 . S
C310 C311 1.399 . S
C310 C314 1.389 . S
C311 C310 1.399 . S
C311 C313 1.380 . S
C311 H328 0.929 . S
C312 C309 1.399 . S
C312 C313 1.392 . S
C312 H329 0.929 . S
C313 C311 1.380 . S
C313 C312 1.392 . S
C313 H330 0.929 . S
C314 C309 1.383 . S
C314 C310 1.389 . S
C314 H331 0.931 . S
C315 O300 1.266 . S
C315 O301 1.248 . S
C316 Tb252 2.802 . S
C316 O296 1.264 . S
C316 O299 1.256 . S
C316 C309 1.496 . S
C317 C284 1.448 . S
C317 H294 0.930 . S
C317 C318 1.328 . S
C318 C289 1.427 . S
C318 H295 0.929 . S
C318 C317 1.328 . S
C319 O303 1.264 . S
C319 O304 1.243 . S
C320 C323 1.399 . S
C320 C324 1.383 . S
C320 C327 1.496 . S
C321 C322 1.399 . S
C321 C324 1.389 . S
C322 C321 1.399 . S
C322 C325 1.380 . S
C322 H332 0.929 . S
C323 C320 1.399 . S
C323 C325 1.392 . S
C323 H333 0.929 . S
C324 C320 1.383 . S
C324 C321 1.389 . S
C324 H334 0.931 . S
C325 C322 1.380 . S
C325 C323 1.392 . S
C325 H335 0.929 . S
C326 O306 1.266 . S
C326 O307 1.248 . S
C327 Tb263 2.802 . S
C327 O302 1.264 . S
C327 O305 1.256 . S
C327 C320 1.496 . S
H328 C311 0.929 . S
H329 C312 0.929 . S
H330 C313 0.929 . S
H331 C314 0.931 . S
H332 C322 0.929 . S
H333 C323 0.929 . S
H334 C324 0.931 . S
H335 C325 0.929 . S
C336 C337 1.369 1_554 S
C336 C338 1.419 . S
C336 H340 0.930 . S
C337 C336 1.369 1_556 S
C337 C346 1.429 . S
C338 C336 1.419 . S
C338 C339 1.363 . S
C338 H341 0.929 . S
C339 C338 1.363 . S
C339 C345 1.428 1_554 S
H340 C336 0.930 . S
H341 C338 0.929 . S
S342 N343 1.613 . S
S342 N344 1.610 . S
N343 S342 1.613 . S
N343 C346 1.350 . S
N344 S342 1.610 . S
N344 C345 1.351 . S
C345 C339 1.428 1_556 S
C345 N344 1.351 . S
C345 C346 1.434 . S
C346 C337 1.429 . S
C346 N343 1.350 . S
C346 C345 1.434 . S
C347 C348 1.369 1_556 S
C347 C349 1.419 . S
C347 H351 0.930 . S
C348 C347 1.369 1_554 S
C348 C357 1.429 . S
C349 C347 1.419 . S
C349 C350 1.363 . S
C349 H352 0.929 . S
C350 C349 1.363 . S
C350 C356 1.428 1_556 S
H351 C347 0.930 . S
H352 C349 0.929 . S
S353 N354 1.613 . S
S353 N355 1.610 . S
N354 S353 1.613 . S
N354 C357 1.350 . S
N355 S353 1.610 . S
N355 C356 1.351 . S
C356 C350 1.428 1_554 S
C356 N355 1.351 . S
C356 C357 1.434 . S
C357 C348 1.429 . S
C357 N354 1.350 . S
C357 C356 1.434 . S
C358 C359 1.369 . S
C358 C360 1.419 . S
C358 H362 0.930 . S
C359 C358 1.369 . S
C359 C368 1.429 . S
C360 C358 1.419 . S
C360 C361 1.363 . S
C360 H363 0.929 . S
C361 C360 1.363 . S
C361 C367 1.428 . S
H362 C358 0.930 . S
H363 C360 0.929 . S
S364 N365 1.613 1_655 S
S364 N366 1.610 1_655 S
N365 S364 1.613 1_455 S
N365 C368 1.350 . S
N366 S364 1.610 1_455 S
N366 C367 1.351 . S
C367 C361 1.428 . S
C367 N366 1.351 . S
C367 C368 1.434 . S
C368 C359 1.429 . S
C368 N365 1.350 . S
C368 C367 1.434 . S
C369 C370 1.369 . S
C369 C371 1.419 . S
C369 H373 0.930 . S
C370 C369 1.369 . S
C370 C379 1.429 . S
C371 C369 1.419 . S
C371 C372 1.363 . S
C371 H374 0.929 . S
C372 C371 1.363 . S
C372 C378 1.428 . S
H373 C369 0.930 . S
H374 C371 0.929 . S
S375 N376 1.613 . S
S375 N377 1.610 . S
N376 S375 1.613 . S
N376 C379 1.350 . S
N377 S375 1.610 . S
N377 C378 1.351 . S
C378 C372 1.428 . S
C378 N377 1.351 . S
C378 C379 1.434 . S
C379 C370 1.429 . S
C379 N376 1.350 . S
C379 C378 1.434 . S
C380 C381 1.363 1_556 S
C380 C382 1.419 1_565 S
C380 H384 0.930 . S
C381 C380 1.363 1_554 S
C381 C390 1.435 1_565 S
C382 C380 1.419 1_545 S
C382 C383 1.364 1_556 S
C382 H385 0.928 1_545 S
C383 C382 1.364 1_554 S
C383 C389 1.428 . S
H384 C380 0.930 . S
H385 C382 0.928 1_565 S
S386 N387 1.613 . S
S386 N388 1.610 . S
N387 S386 1.613 . S
N387 C390 1.350 . S
N388 S386 1.610 . S
N388 C389 1.351 . S
C389 C383 1.428 . S
C389 N388 1.351 . S
C389 C390 1.434 . S
C390 C381 1.435 1_545 S
C390 N387 1.350 . S
C390 C389 1.434 . S
C391 C392 1.369 1_565 S
C391 C393 1.419 . S
C391 H395 0.930 . S
C392 C391 1.369 1_545 S
C392 C401 1.429 . S
C393 C391 1.419 . S
C393 C394 1.363 . S
C393 H396 0.929 . S
C394 C393 1.363 . S
C394 C400 1.428 1_565 S
H395 C391 0.930 . S
H396 C393 0.929 . S
S397 N398 1.613 . S
S397 N399 1.610 . S
N398 S397 1.613 . S
N398 C401 1.350 . S
N399 S397 1.610 . S
N399 C400 1.351 . S
C400 C394 1.428 1_545 S
C400 N399 1.351 . S
C400 C401 1.434 . S
C401 C392 1.429 . S
C401 N398 1.350 . S
C401 C400 1.434 . S
C402 C403 1.370 1_554 S
C402 C404 1.419 1_655 S
C402 H406 0.930 . S
C403 C402 1.370 1_556 S
C403 C412 1.428 . S
C404 C402 1.419 1_455 S
C404 C405 1.363 . S
C404 H407 0.929 . S
C405 C404 1.363 . S
C405 C411 1.428 1_554 S
H406 C402 0.930 . S
H407 C404 0.929 . S
S408 N409 1.613 1_455 S
S408 N410 1.610 . S
N409 S408 1.613 1_655 S
N409 C412 1.350 . S
N410 S408 1.610 . S
N410 C411 1.351 . S
C411 C405 1.428 1_556 S
C411 N410 1.351 . S
C411 C412 1.434 1_455 S
C412 C403 1.428 . S
C412 N409 1.350 . S
C412 C411 1.434 1_655 S
C413 C414 1.369 . S
C413 C415 1.419 1_455 S
C413 H417 0.930 . S
C414 C413 1.369 . S
C414 C423 1.429 . S
C415 C413 1.419 1_655 S
C415 C416 1.363 . S
C415 H418 0.929 . S
C416 C415 1.363 . S
C416 C422 1.428 . S
H417 C413 0.930 . S
H418 C415 0.929 . S
S419 N420 1.613 1_655 S
S419 N421 1.610 . S
N420 S419 1.613 1_455 S
N420 C423 1.350 . S
N421 S419 1.610 . S
N421 C422 1.351 . S
C422 C416 1.428 . S
C422 N421 1.351 . S
C422 C423 1.434 1_655 S
C423 C414 1.429 . S
C423 N420 1.350 . S
C423 C422 1.434 1_455 S
C424 C425 1.369 1_565 S
C424 C426 1.419 . S
C424 H428 0.930 . S
C425 C424 1.369 1_545 S
C425 C434 1.429 1_655 S
C426 C424 1.419 . S
C426 C427 1.363 1_565 S
C426 H429 0.929 . S
C427 C426 1.363 1_545 S
C427 C433 1.428 1_655 S
H428 C424 0.930 . S
H429 C426 0.929 . S
S430 N431 1.613 . S
S430 N432 1.610 . S
N431 S430 1.613 . S
N431 C434 1.350 . S
N432 S430 1.610 . S
N432 C433 1.351 . S
C433 C427 1.428 1_455 S
C433 N432 1.351 . S
C433 C434 1.434 . S
C434 C425 1.429 1_455 S
C434 N431 1.350 . S
C434 C433 1.434 . S
C435 C436 1.369 1_665 S
C435 C437 1.419 . S
C435 H439 0.930 . S
C436 C435 1.369 1_445 S
C436 C445 1.429 . S
C437 C435 1.419 . S
C437 C438 1.363 1_665 S
C437 H440 0.929 . S
C438 C437 1.363 1_445 S
C438 C444 1.428 . S
H439 C435 0.930 . S
H440 C437 0.929 . S
S441 N442 1.613 . S
S441 N443 1.610 . S
N442 S441 1.613 . S
N442 C445 1.350 . S
N443 S441 1.610 . S
N443 C444 1.351 . S
C444 C438 1.428 . S
C444 N443 1.351 . S
C444 C445 1.434 . S
C445 C436 1.429 . S
C445 N442 1.350 . S
C445 C444 1.434 . S
C446 C447 1.369 . S
C446 C448 1.419 . S
C446 H450 0.930 . S
C447 C446 1.369 . S
C447 C456 1.429 . S
C448 C446 1.419 . S
C448 C449 1.363 . S
C448 H451 0.929 . S
C449 C448 1.363 . S
C449 C455 1.428 . S
H450 C446 0.930 . S
H451 C448 0.929 . S
S452 N453 1.613 . S
S452 N454 1.610 . S
N453 S452 1.613 . S
N453 C456 1.350 . S
N454 S452 1.610 . S
N454 C455 1.351 . S
C455 C449 1.428 . S
C455 N454 1.351 . S
C455 C456 1.434 . S
C456 C447 1.429 . S
C456 N453 1.350 . S
C456 C455 1.434 . S
C457 C458 1.369 . S
C457 C459 1.419 . S
C457 H461 0.930 . S
C458 C457 1.369 . S
C458 C467 1.429 . S
C459 C457 1.419 . S
C459 C460 1.363 . S
C459 H462 0.929 . S
C460 C459 1.363 . S
C460 C466 1.428 . S
H461 C457 0.930 . S
H462 C459 0.929 . S
S463 N464 1.613 . S
S463 N465 1.610 . S
N464 S463 1.613 . S
N464 C467 1.350 . S
N465 S463 1.610 . S
N465 C466 1.351 . S
C466 C460 1.428 . S
C466 N465 1.351 . S
C466 C467 1.434 . S
C467 C458 1.429 . S
C467 N464 1.350 . S
C467 C466 1.434 . S
C337 C237 1.479 1_556 S
C339 C58 1.466 1_554 S
C348 C226 1.479 1_554 S
C350 C69 1.466 1_556 S
C359 C142 1.470 . S
C361 C321 1.474 . S
C370 C153 1.479 . S
C372 C310 1.466 . S
C381 C67 2.000 . S
C383 C56 2.001 1_554 S
C392 C151 2.002 . S
C394 C140 2.000 . S
C403 C235 2.001 1_556 S
C405 C224 2.000 1_554 S
C414 C308 2.001 . S
C416 C319 2.000 . S
C425 C147 1.482 1_545 S
C427 C63 1.478 . S
C436 C74 1.480 1_545 S
C438 C158 1.476 . S
C447 C315 1.476 . S
C449 C231 1.481 . S
C458 C326 1.475 . S
C460 C242 1.479 . S
