# Generated by pormake.
# Topology ure, (4)-cn, num edge types: 1
# Building blocks:
#     Node 0, Type 0, BuildingBlock: GALJAG_clean_sbu_0, # of connection points: 4
#     Node 1, Type 0, BuildingBlock: GALJAG_clean_sbu_0, # of connection points: 4
#     Node 2, Type 0, BuildingBlock: GALJAG_clean_sbu_0, # of connection points: 4
#     Node 3, Type 0, BuildingBlock: GALJAG_clean_sbu_0, # of connection points: 4
#     Node 4, Type 0, BuildingBlock: GALJAG_clean_sbu_0, # of connection points: 4
#     Node 5, Type 0, BuildingBlock: GALJAG_clean_sbu_0, # of connection points: 4
#     Node 6, Type 0, BuildingBlock: GALJAG_clean_sbu_0, # of connection points: 4
#     Node 7, Type 0, BuildingBlock: GALJAG_clean_sbu_0, # of connection points: 4
#     Node 8, Type 0, BuildingBlock: GALJAG_clean_sbu_0, # of connection points: 4
#     Node 9, Type 0, BuildingBlock: GALJAG_clean_sbu_0, # of connection points: 4
#     Node 10, Type 0, BuildingBlock: GALJAG_clean_sbu_0, # of connection points: 4
#     Node 11, Type 0, BuildingBlock: GALJAG_clean_sbu_0, # of connection points: 4
#     Node 12, Type 0, BuildingBlock: GALJAG_clean_sbu_0, # of connection points: 4
#     Node 13, Type 0, BuildingBlock: GALJAG_clean_sbu_0, # of connection points: 4
#     Node 14, Type 0, BuildingBlock: GALJAG_clean_sbu_0, # of connection points: 4
#     Node 15, Type 0, BuildingBlock: GALJAG_clean_sbu_0, # of connection points: 4
#     Edge 16, Type (0, 0), BuildingBlock: CIFDUS_clean_linker_0, # of connection points: 2
#     Edge 17, Type (0, 0), BuildingBlock: CIFDUS_clean_linker_0, # of connection points: 2
#     Edge 18, Type (0, 0), BuildingBlock: CIFDUS_clean_linker_0, # of connection points: 2
#     Edge 19, Type (0, 0), BuildingBlock: CIFDUS_clean_linker_0, # of connection points: 2
#     Edge 20, Type (0, 0), BuildingBlock: CIFDUS_clean_linker_0, # of connection points: 2
#     Edge 21, Type (0, 0), BuildingBlock: CIFDUS_clean_linker_0, # of connection points: 2
#     Edge 22, Type (0, 0), BuildingBlock: CIFDUS_clean_linker_0, # of connection points: 2
#     Edge 23, Type (0, 0), BuildingBlock: CIFDUS_clean_linker_0, # of connection points: 2
#     Edge 24, Type (0, 0), BuildingBlock: CIFDUS_clean_linker_0, # of connection points: 2
#     Edge 25, Type (0, 0), BuildingBlock: CIFDUS_clean_linker_0, # of connection points: 2
#     Edge 26, Type (0, 0), BuildingBlock: CIFDUS_clean_linker_0, # of connection points: 2
#     Edge 27, Type (0, 0), BuildingBlock: CIFDUS_clean_linker_0, # of connection points: 2
#     Edge 28, Type (0, 0), BuildingBlock: CIFDUS_clean_linker_0, # of connection points: 2
#     Edge 29, Type (0, 0), BuildingBlock: CIFDUS_clean_linker_0, # of connection points: 2
#     Edge 30, Type (0, 0), BuildingBlock: CIFDUS_clean_linker_0, # of connection points: 2
#     Edge 31, Type (0, 0), BuildingBlock: CIFDUS_clean_linker_0, # of connection points: 2
#     Edge 32, Type (0, 0), BuildingBlock: CIFDUS_clean_linker_0, # of connection points: 2
#     Edge 33, Type (0, 0), BuildingBlock: CIFDUS_clean_linker_0, # of connection points: 2
#     Edge 34, Type (0, 0), BuildingBlock: CIFDUS_clean_linker_0, # of connection points: 2
#     Edge 35, Type (0, 0), BuildingBlock: CIFDUS_clean_linker_0, # of connection points: 2
#     Edge 36, Type (0, 0), BuildingBlock: CIFDUS_clean_linker_0, # of connection points: 2
#     Edge 37, Type (0, 0), BuildingBlock: CIFDUS_clean_linker_0, # of connection points: 2
#     Edge 38, Type (0, 0), BuildingBlock: CIFDUS_clean_linker_0, # of connection points: 2
#     Edge 39, Type (0, 0), BuildingBlock: CIFDUS_clean_linker_0, # of connection points: 2
#     Edge 40, Type (0, 0), BuildingBlock: CIFDUS_clean_linker_0, # of connection points: 2
#     Edge 41, Type (0, 0), BuildingBlock: CIFDUS_clean_linker_0, # of connection points: 2
#     Edge 42, Type (0, 0), BuildingBlock: CIFDUS_clean_linker_0, # of connection points: 2
#     Edge 43, Type (0, 0), BuildingBlock: CIFDUS_clean_linker_0, # of connection points: 2
#     Edge 44, Type (0, 0), BuildingBlock: CIFDUS_clean_linker_0, # of connection points: 2
#     Edge 45, Type (0, 0), BuildingBlock: CIFDUS_clean_linker_0, # of connection points: 2
#     Edge 46, Type (0, 0), BuildingBlock: CIFDUS_clean_linker_0, # of connection points: 2
#     Edge 47, Type (0, 0), BuildingBlock: CIFDUS_clean_linker_0, # of connection points: 2
# Relax obj value: 0.290
# Max RMSD: 0.221
# Mean RMSD: 0.173
data_MOF--net-ure--node1-GALJAG_clean_sbu_0--edge1-CIFDUS_clean_linker_0
_symmetry_space_group_name_H-M    P1
_symmetry_Int_Tables_number       1
_symmetry_cell_setting            triclinic
loop_
_symmetry_equiv_pos_as_xyz
'x, y, z'
_cell_length_a     24.298463
_cell_length_b     28.460051
_cell_length_c     28.418663
_cell_angle_alpha  100.33261
_cell_angle_beta   96.166818
_cell_angle_gamma 96.103619
loop_
_atom_site_label
_atom_site_type_symbol
_atom_site_fract_x
_atom_site_fract_y
_atom_site_fract_z
_atom_type_partial_charge
In0 In 0.30248 0.29695 0.29204 0.0
O1 O 0.24759 0.22598 0.25848 0.0
O2 O 0.25937 0.27854 0.21465 0.0
C3 C 0.29735 0.28382 0.38339 0.0
C4 C 0.40307 0.28189 0.26558 0.0
C5 C 0.28294 0.38915 0.29802 0.0
O6 O 0.25511 0.29115 0.35708 0.0
O7 O 0.3407 0.28158 0.36306 0.0
O8 O 0.32877 0.37763 0.31463 0.0
O9 O 0.24659 0.35408 0.27839 0.0
C10 C 0.23811 0.23689 0.21746 0.0
O11 O 0.38794 0.32332 0.27351 0.0
O12 O 0.36722 0.24824 0.27024 0.0
In13 In -0.00229 0.02218 0.4944 0.0
O14 O 0.0531 0.02807 0.56613 0.0
O15 O 0.97202 0.98895 0.55719 0.0
C16 C 0.99535 0.11794 0.50486 0.0
C17 C 0.07274 0.97801 0.44472 0.0
C18 C 0.89346 0.99453 0.44854 0.0
O19 O 0.98427 0.09471 0.53723 0.0
O20 O 0.009 0.09312 0.46752 0.0
O21 O 0.92616 0.02761 0.43838 0.0
O22 O 0.91406 0.97386 0.4808 0.0
C23 C 0.01728 0.00411 0.58445 0.0
O24 O 0.02293 0.95946 0.44265 0.0
O25 O 0.08468 0.01894 0.47154 0.0
In26 In 0.34291 0.76765 0.80265 0.0
O27 O 0.25012 0.73863 0.79024 0.0
O28 O 0.27315 0.81461 0.80624 0.0
C29 C 0.38708 0.68581 0.77596 0.0
C30 C 0.37995 0.81965 0.73953 0.0
C31 C 0.35853 0.77949 0.89909 0.0
O32 O 0.33947 0.69266 0.75789 0.0
O33 O 0.41329 0.72073 0.80681 0.0
O34 O 0.37509 0.81303 0.87803 0.0
O35 O 0.33576 0.74105 0.87154 0.0
C36 C 0.23435 0.77993 0.79704 0.0
O37 O 0.40174 0.82822 0.78327 0.0
O38 O 0.34159 0.78466 0.72837 0.0
In39 In 0.49633 0.00625 0.02588 0.0
O40 O 0.45007 0.02484 0.95823 0.0
O41 O 0.47273 0.07968 0.02147 0.0
C42 C 0.49872 0.9115 0.01959 0.0
C43 C 0.60253 0.02772 0.01173 0.0
C44 C 0.44191 0.01638 0.10308 0.0
O45 O 0.47007 0.92735 0.98717 0.0
O46 O 0.52558 0.94317 0.05336 0.0
O47 O 0.48863 0.04068 0.10267 0.0
O48 O 0.4217 0.98819 0.06392 0.0
C49 C 0.45169 0.06879 0.97778 0.0
O50 O 0.58808 0.03359 0.05367 0.0
O51 O 0.5635 0.01186 0.97782 0.0
In52 In 0.3354 0.7506 0.26488 0.0
O53 O 0.2883 0.67537 0.25693 0.0
O54 O 0.34294 0.70378 0.32176 0.0
C55 C 0.33973 0.75013 0.17006 0.0
C56 C 0.25905 0.80432 0.3003 0.0
C57 C 0.44545 0.77278 0.29321 0.0
O58 O 0.33304 0.71234 0.18712 0.0
O59 O 0.34224 0.78859 0.20055 0.0
O60 O 0.41258 0.80433 0.29776 0.0
O61 O 0.4225 0.73065 0.27517 0.0
C62 C 0.31026 0.66844 0.29703 0.0
O63 O 0.30996 0.81226 0.31737 0.0
O64 O 0.2466 0.7693 0.26532 0.0
In65 In 0.46652 0.98401 0.44401 0.0
O66 O 0.46398 0.97924 0.52311 0.0
O67 O 0.40373 0.93276 0.47145 0.0
C68 C 0.48345 0.08111 0.46762 0.0
C69 C 0.56633 0.95752 0.42416 0.0
C70 C 0.40515 0.96367 0.35653 0.0
O71 O 0.44001 0.05787 0.44223 0.0
O72 O 0.51728 0.05541 0.48391 0.0
O73 O 0.44016 0.93706 0.36921 0.0
O74 O 0.39814 0.99795 0.38927 0.0
C75 C 0.42394 0.9458 0.51519 0.0
O76 O 0.54766 0.99396 0.41246 0.0
O77 O 0.53396 0.93321 0.44526 0.0
In78 In 0.37932 0.32697 0.76208 0.0
O79 O 0.42438 0.26071 0.76614 0.0
O80 O 0.40644 0.3012 0.83146 0.0
C81 C 0.36643 0.29905 0.66577 0.0
C82 C 0.27286 0.32259 0.78141 0.0
C83 C 0.43278 0.41808 0.77634 0.0
O84 O 0.41237 0.29922 0.69157 0.0
O85 O 0.3272 0.31201 0.6888 0.0
O86 O 0.4229 0.39778 0.81106 0.0
O87 O 0.41921 0.39145 0.73557 0.0
C88 C 0.42472 0.26409 0.81098 0.0
O89 O 0.30411 0.36209 0.78751 0.0
O90 O 0.29544 0.28606 0.76585 0.0
In91 In 0.00604 0.96116 0.94775 0.0
O92 O 0.92888 0.99933 0.94008 0.0
O93 O 0.94851 0.97452 0.00538 0.0
C94 C 0.00516 0.95984 0.8524 0.0
C95 C 0.08588 0.02138 0.01011 0.0
C96 C -1e-05 0.86681 0.951 0.0
O97 O 0.96382 0.94381 0.87063 0.0
O98 O 0.04803 0.97671 0.88237 0.0
O99 O 0.04242 0.88926 0.93913 0.0
O100 O 0.96194 0.89205 0.96147 0.0
C101 C 0.91566 0.99515 0.98101 0.0
O102 O 0.07961 0.97643 0.00796 0.0
O103 O 0.05414 0.03551 0.97889 0.0
In104 In 0.8332 0.25277 0.74107 0.0
O105 O 0.81716 0.31586 0.79742 0.0
O106 O 0.74693 0.27344 0.75293 0.0
C107 C 0.94471 0.26024 0.76025 0.0
C108 C 0.80769 0.16738 0.76735 0.0
C109 C 0.82975 0.26912 0.65005 0.0
O110 O 0.91741 0.29212 0.77961 0.0
O111 O 0.91574 0.22514 0.7318 0.0
O112 O 0.81655 0.22807 0.65948 0.0
O113 O 0.8421 0.30247 0.68653 0.0
C114 C 0.76482 0.30882 0.78668 0.0
O115 O 0.78855 0.1756 0.7269 0.0
O116 O 0.83707 0.20291 0.79507 0.0
In117 In 0.98859 0.49107 0.94126 0.0
O118 O 0.06821 0.46624 0.91457 0.0
O119 O 0.06701 0.48664 0.99014 0.0
C120 C 0.92777 0.46366 0.85361 0.0
C121 C 0.94092 0.45231 0.00928 0.0
C122 C 0.00712 0.58682 0.9459 0.0
O123 O 0.96294 0.43876 0.86935 0.0
O124 O 0.92035 0.50007 0.88352 0.0
O125 O 0.96545 0.56694 0.96126 0.0
O126 O 0.03986 0.55851 0.92918 0.0
C127 C 0.09448 0.47208 0.95643 0.0
O128 O 0.95398 0.49704 0.01321 0.0
O129 O 0.94887 0.42736 0.96975 0.0
In130 In 0.87327 0.80405 0.26053 0.0
O131 O 0.93274 0.74671 0.26062 0.0
O132 O 0.92237 0.78884 0.32752 0.0
C133 C 0.8543 0.78642 0.16338 0.0
C134 C 0.76874 0.78505 0.28145 0.0
C135 C 0.89717 0.89958 0.28962 0.0
O136 O 0.88863 0.821 0.18728 0.0
O137 O 0.83149 0.75933 0.18818 0.0
O138 O 0.86578 0.87336 0.30971 0.0
O139 O 0.92217 0.87686 0.25768 0.0
C140 C 0.94279 0.75357 0.3059 0.0
O141 O 0.78778 0.82499 0.2727 0.0
O142 O 0.80207 0.7539 0.27875 0.0
In143 In 0.00702 0.49121 0.51768 0.0
O144 O 0.09869 0.50164 0.55107 0.0
O145 O 0.07984 0.50112 0.47603 0.0
C146 C 0.95152 0.50285 0.59431 0.0
C147 C 0.97466 0.5607 0.47304 0.0
C148 C 0.99317 0.39497 0.49643 0.0
O149 O -1e-05 0.52438 0.595 0.0
O150 O 0.93027 0.47642 0.55454 0.0
O151 O 0.97136 0.4191 0.46762 0.0
O152 O 0.02113 0.41941 0.53448 0.0
C153 C 0.11676 0.50425 0.51144 0.0
O154 O 0.96844 0.51707 0.45153 0.0
O155 O 0.99388 0.56822 0.51714 0.0
In156 In 0.53268 0.53908 0.0025 0.0
O157 O 0.55286 0.47522 0.94976 0.0
O158 O 0.6195 0.5304 0.97987 0.0
C159 C 0.42337 0.50783 0.97596 0.0
C160 C 0.55841 0.51967 0.0913 0.0
C161 C 0.528 0.63217 0.99443 0.0
O162 O 0.45718 0.51036 0.94555 0.0
O163 O 0.44477 0.52119 0.01935 0.0
O164 O 0.52782 0.61798 0.03392 0.0
O165 O 0.53299 0.59986 0.95916 0.0
C166 C 0.60383 0.49041 0.95184 0.0
O167 O 0.58454 0.55458 0.07762 0.0
O168 O 0.5215 0.49417 0.05976 0.0
In169 In 0.80027 0.79994 0.79527 0.0
O170 O 0.8882 0.8154 0.77602 0.0
O171 O 0.87198 0.75806 0.81326 0.0
C172 C 0.78738 0.88842 0.77755 0.0
C173 C 0.73632 0.73307 0.72559 0.0
C174 C 0.78324 0.80379 0.88833 0.0
O175 O 0.8267 0.88014 0.80637 0.0
O176 O 0.75415 0.8516 0.75653 0.0
O177 O 0.7851 0.76458 0.86008 0.0
O178 O 0.7857 0.84001 0.86868 0.0
C179 C 0.90713 0.7827 0.79509 0.0
O180 O 0.71711 0.75417 0.76219 0.0
O181 O 0.78713 0.74639 0.72387 0.0
In182 In 0.83187 0.25349 0.274 0.0
O183 O 0.74011 0.23335 0.24487 0.0
O184 O 0.76744 0.30573 0.28094 0.0
C185 C 0.87062 0.16854 0.26008 0.0
C186 C 0.87574 0.29538 0.20688 0.0
C187 C 0.84077 0.25795 0.36956 0.0
O188 O 0.82016 0.17354 0.24825 0.0
O189 O 0.90304 0.20724 0.27661 0.0
O190 O 0.86959 0.28908 0.35229 0.0
O191 O 0.80826 0.22699 0.33908 0.0
C192 C 0.72723 0.27481 0.25972 0.0
O193 O 0.88322 0.31604 0.25092 0.0
O194 O 0.84828 0.25396 0.19792 0.0
In195 In 0.5271 0.45089 0.44526 0.0
O196 O 0.54422 0.52011 0.50104 0.0
O197 O 0.61438 0.48465 0.48492 0.0
C198 C 0.53035 0.35509 0.43836 0.0
C199 C 0.42748 0.46128 0.47568 0.0
C200 C 0.5313 0.46672 0.35464 0.0
O201 O 0.55209 0.38508 0.47575 0.0
O202 O 0.51023 0.37374 0.40459 0.0
O203 O 0.48675 0.45579 0.3713 0.0
O204 O 0.57513 0.47119 0.38427 0.0
C205 C 0.59601 0.51972 0.5097 0.0
O206 O 0.4465 0.48378 0.44525 0.0
O207 O 0.45906 0.43348 0.49132 0.0
H208 H 0.22366 0.13937 0.20371 0.0
H209 H 0.18616 0.25805 0.13566 0.0
H210 H 0.1382 0.20172 0.06416 0.0
H211 H 0.10535 0.11875 0.02172 0.0
H212 H 0.14578 0.99991 0.08854 0.0
H213 H 0.19513 0.0562 0.15936 0.0
C214 C 0.20464 0.1528 0.1733 0.0
C215 C 0.20769 0.2027 0.17509 0.0
C216 C 0.17829 0.1202 0.13191 0.0
C217 C 0.18396 0.21974 0.13515 0.0
C218 C 0.15671 0.18757 0.09425 0.0
C219 C 0.12549 0.10517 0.05156 0.0
C220 C 0.1218 0.05524 0.04991 0.0
C221 C 0.15358 0.13773 0.09225 0.0
C222 C 0.14816 0.03819 0.08883 0.0
C223 C 0.17606 0.07036 0.1295 0.0
H224 H 0.05324 0.89655 0.37628 0.0
H225 H 0.18531 0.00356 0.45645 0.0
H226 H 0.25485 0.95964 0.41788 0.0
H227 H 0.27814 0.88937 0.36357 0.0
H228 H 0.14595 0.78318 0.28225 0.0
H229 H 0.07625 0.82837 0.31899 0.0
C230 C 0.09724 0.91031 0.38515 0.0
C231 C 0.11425 0.95297 0.41934 0.0
C232 C 0.13686 0.88501 0.36275 0.0
C233 C 0.17128 0.97071 0.43023 0.0
C234 C 0.21103 0.9456 0.4083 0.0
C235 C 0.23406 0.87623 0.35385 0.0
C236 C 0.2171 0.83291 0.32062 0.0
C237 C 0.19431 0.90248 0.37488 0.0
C238 C 0.15992 0.81647 0.30785 0.0
C239 C 0.1201 0.84221 0.32888 0.0
H240 H 0.47109 0.96014 0.60865 0.0
H241 H 0.33703 0.87486 0.50692 0.0
H242 H 0.31204 0.82856 0.56771 0.0
H243 H 0.33003 0.81059 0.64837 0.0
H244 H 0.46395 0.89489 0.75081 0.0
H245 H 0.4876 0.94329 0.69086 0.0
C246 C 0.43607 0.93172 0.59997 0.0
C247 C 0.4059 0.92092 0.55335 0.0
C248 C 0.42235 0.90485 0.63496 0.0
C249 C 0.36083 0.88388 0.54252 0.0
C250 C 0.34666 0.85729 0.5772 0.0
C251 C 0.36451 0.83951 0.65767 0.0
C252 C 0.39548 0.84898 0.70386 0.0
C253 C 0.37752 0.86712 0.62327 0.0
C254 C 0.43969 0.88679 0.71541 0.0
C255 C 0.45309 0.91448 0.6812 0.0
H256 H 0.46039 0.07087 0.88359 0.0
H257 H 0.41511 0.15277 0.01343 0.0
H258 H 0.40563 0.2215 0.97398 0.0
H259 H 0.41271 0.2591 0.90357 0.0
H260 H 0.46019 0.17874 0.77382 0.0
H261 H 0.46767 0.10904 0.8125 0.0
C262 C 0.44737 0.10348 0.90277 0.0
C263 C 0.43766 0.10666 0.95104 0.0
C264 C 0.44375 0.14346 0.88029 0.0
C265 C 0.42224 0.14945 0.97605 0.0
C266 C 0.41728 0.18886 0.95367 0.0
C267 C 0.42531 0.22654 0.88389 0.0
C268 C 0.43625 0.22422 0.83603 0.0
C269 C 0.42873 0.18651 0.90607 0.0
C270 C 0.45201 0.18158 0.81088 0.0
C271 C 0.45582 0.14158 0.83283 0.0
H272 H 0.79424 0.39109 0.85391 0.0
H273 H 0.65127 0.29435 0.77652 0.0
H274 H 0.58896 0.34258 0.82037 0.0
H275 H 0.57517 0.41097 0.88182 0.0
H276 H 0.71749 0.50856 0.95889 0.0
H277 H 0.78011 0.46128 0.91392 0.0
C278 C 0.74944 0.38062 0.84665 0.0
C279 C 0.72737 0.33907 0.81225 0.0
C280 C 0.71383 0.40858 0.87194 0.0
C281 C 0.66926 0.32613 0.8029 0.0
C282 C 0.63361 0.35364 0.82799 0.0
C283 C 0.6199 0.42191 0.88879 0.0
C284 C 0.64176 0.46298 0.92381 0.0
C285 C 0.65546 0.39471 0.86278 0.0
C286 C 0.69972 0.47701 0.93213 0.0
C287 C 0.7355 0.44997 0.90649 0.0
H288 H 0.92571 0.35752 0.01283 0.0
H289 H 0.9224 0.49864 0.0979 0.0
H290 H 0.90588 0.46298 0.1681 0.0
H291 H 0.89287 0.39123 0.20548 0.0
H292 H 0.89474 0.25051 0.11909 0.0
H293 H 0.91248 0.28648 0.04959 0.0
C294 C 0.92083 0.38045 0.04659 0.0
C295 C 0.925 0.43057 0.0501 0.0
C296 C 0.91204 0.3598 0.08684 0.0
C297 C 0.91903 0.45986 0.09421 0.0
C298 C 0.90997 0.43954 0.13446 0.0
C299 C 0.89803 0.36867 0.1716 0.0
C300 C 0.89302 0.31842 0.16741 0.0
C301 C 0.90688 0.38955 0.13133 0.0
C302 C 0.89868 0.28936 0.12314 0.0
C303 C 0.9085 0.30984 0.08333 0.0
H304 H 0.98122 0.56248 0.37862 0.0
H305 H 0.954 0.6499 0.51255 0.0
H306 H 0.94944 0.71956 0.47377 0.0
H307 H 0.95005 0.75477 0.40155 0.0
H308 H 0.97688 0.66811 0.26703 0.0
H309 H 0.98702 0.59943 0.30672 0.0
C310 C 0.97362 0.59669 0.39902 0.0
C311 C 0.96691 0.60101 0.44805 0.0
C312 C 0.97233 0.63689 0.37674 0.0
C313 C 0.9586 0.64571 0.47457 0.0
C314 C 0.95643 0.68559 0.45255 0.0
C315 C 0.95923 0.72116 0.38106 0.0
C316 C 0.96255 0.71648 0.33142 0.0
C317 C 0.96324 0.68158 0.40371 0.0
C318 C 0.97437 0.67267 0.30538 0.0
C319 C 0.97946 0.63322 0.32791 0.0
H320 H 0.56038 0.58268 0.57919 0.0
H321 H 0.71015 0.54027 0.52436 0.0
H322 H 0.76687 0.60336 0.58598 0.0
H323 H 0.77342 0.6708 0.65529 0.0
H324 H 0.62324 0.71006 0.71178 0.0
H325 H 0.56698 0.64783 0.64956 0.0
C326 C 0.60546 0.58729 0.58061 0.0
C327 C 0.63107 0.5571 0.54704 0.0
C328 C 0.6376 0.62304 0.6164 0.0
C329 C 0.68951 0.5631 0.54975 0.0
C330 C 0.72187 0.59919 0.58492 0.0
C331 C 0.72835 0.6658 0.65386 0.0
C332 C 0.70246 0.69524 0.6879 0.0
C333 C 0.69633 0.62944 0.61837 0.0
C334 C 0.64413 0.68797 0.68597 0.0
C335 C 0.61196 0.65242 0.65039 0.0
H336 H 0.38277 0.26498 0.44318 0.0
H337 H 0.21424 0.30031 0.43963 0.0
H338 H 0.2199 0.30562 0.52698 0.0
H339 H 0.27475 0.30451 0.60457 0.0
H340 H 0.44404 0.27078 0.6077 0.0
H341 H 0.43579 0.26013 0.51993 0.0
C342 C 0.34705 0.27333 0.4614 0.0
C343 C 0.29817 0.28224 0.43506 0.0
C344 C 0.35083 0.27673 0.51145 0.0
C345 C 0.25223 0.29309 0.45915 0.0
C346 C 0.25554 0.29631 0.50907 0.0
C347 C 0.30969 0.29435 0.586 0.0
C348 C 0.35999 0.28853 0.61256 0.0
C349 C 0.30491 0.28881 0.53562 0.0
C350 C 0.40491 0.2755 0.58806 0.0
C351 C 0.4003 0.2695 0.5379 0.0
H352 H 0.08413 0.99954 0.80455 0.0
H353 H 0.91836 0.92169 0.78342 0.0
H354 H 0.90834 0.92664 0.6984 0.0
H355 H 0.94487 0.95607 0.63068 0.0
H356 H 0.10984 0.0354 0.6509 0.0
H357 H 0.12221 0.02669 0.73537 0.0
C358 C 0.04606 0.9834 0.78118 0.0
C359 C 0.00188 0.96053 0.80033 0.0
C360 C 0.04042 0.98674 0.73214 0.0
C361 C 0.95279 0.93974 0.76965 0.0
C362 C 0.94703 0.94253 0.72096 0.0
C363 C 0.98369 0.9712 0.65347 0.0
C364 C 0.02628 0.99645 0.63464 0.0
C365 C 0.99029 0.96643 0.70195 0.0
C366 C 0.07637 0.01582 0.6646 0.0
C367 C 0.08344 0.01091 0.71291 0.0
H368 H 0.36023 0.70762 0.94825 0.0
H369 H 0.36419 0.86171 0.96755 0.0
H370 H 0.36017 0.86674 0.05427 0.0
H371 H 0.35028 0.82601 0.12348 0.0
H372 H 0.34473 0.67138 0.10181 0.0
H373 H 0.35466 0.66782 0.01693 0.0
C374 C 0.36038 0.74235 0.9715 0.0
C375 C 0.36224 0.78422 0.9518 0.0
C376 C 0.35737 0.74474 0.02071 0.0
C377 C 0.36296 0.82904 0.98217 0.0
C378 C 0.36026 0.83183 0.03156 0.0
C379 C 0.35125 0.79161 0.10014 0.0
C380 C 0.3461 0.74897 0.11879 0.0
C381 C 0.3566 0.78975 0.05109 0.0
C382 C 0.34793 0.70466 0.08824 0.0
C383 C 0.35374 0.70256 0.03971 0.0
H384 H 0.39718 0.04183 0.31736 0.0
H385 H 0.38016 0.88692 0.28139 0.0
H386 H 0.37916 0.89023 0.19574 0.0
H387 H 0.39986 0.93773 0.13387 0.0
H388 H 0.43354 0.09241 0.17362 0.0
H389 H 0.41058 0.08919 0.25488 0.0
C390 C 0.39124 0.00876 0.29053 0.0
C391 C 0.38849 0.96411 0.30532 0.0
C392 C 0.39459 0.01122 0.2421 0.0
C393 C 0.3822 0.92155 0.27055 0.0
C394 C 0.382 0.92354 0.22172 0.0
C395 C 0.4005 0.97068 0.16007 0.0
C396 C 0.41784 0.01529 0.14815 0.0
C397 C 0.39069 0.96822 0.20741 0.0
C398 C 0.42005 0.05781 0.18233 0.0
C399 C 0.40713 0.0559 0.22869 0.0
H400 H 0.49396 0.34857 0.27696 0.0
H401 H 0.43894 0.19619 0.23297 0.0
H402 H 0.53448 0.1811 0.22319 0.0
H403 H 0.63412 0.21058 0.2324 0.0
H404 H 0.69013 0.36239 0.28061 0.0
H405 H 0.5935 0.37856 0.28292 0.0
C406 C 0.50285 0.31222 0.26444 0.0
C407 C 0.45968 0.27358 0.25546 0.0
C408 C 0.55797 0.30373 0.25991 0.0
C409 C 0.47166 0.2265 0.24006 0.0
C410 C 0.52622 0.21784 0.23453 0.0
C411 C 0.62512 0.24726 0.24281 0.0
C412 C 0.66901 0.28522 0.25638 0.0
C413 C 0.56977 0.25609 0.2451 0.0
C414 C 0.65689 0.33256 0.2701 0.0
C415 C 0.60174 0.34182 0.27152 0.0
H416 H 0.98805 0.34054 0.56358 0.0
H417 H 0.98525 0.33171 0.41035 0.0
H418 H 0.98581 0.2441 0.39912 0.0
H419 H 0.99132 0.17093 0.43418 0.0
H420 H 0.98933 0.18098 0.58738 0.0
H421 H 0.98586 0.26752 0.59744 0.0
C422 C 0.98742 0.31933 0.5277 0.0
C423 C 0.98718 0.34214 0.48784 0.0
C424 C 0.98718 0.26948 0.5217 0.0
C425 C 0.9854 0.31457 0.44144 0.0
C426 C 0.98612 0.2647 0.43515 0.0
C427 C 0.99037 0.1922 0.46973 0.0
C428 C 0.99167 0.16992 0.51014 0.0
C429 C 0.98775 0.2419 0.47518 0.0
C430 C 0.98899 0.19749 0.55585 0.0
C431 C 0.98708 0.24692 0.56165 0.0
H432 H 0.99437 0.84484 0.78362 0.0
H433 H 0.95145 0.70232 0.81156 0.0
H434 H 0.0491 0.68815 0.81325 0.0
H435 H 0.14676 0.71652 0.80674 0.0
H436 H 0.19 0.86086 0.78356 0.0
H437 H 0.09211 0.8743 0.78029 0.0
C438 C 0.00647 0.81066 0.7899 0.0
C439 C 0.96596 0.77443 0.79677 0.0
C440 C 0.06267 0.80321 0.79183 0.0
C441 C 0.98207 0.7306 0.80582 0.0
C442 C 0.0378 0.72249 0.80679 0.0
C443 C 0.13458 0.75077 0.80073 0.0
C444 C 0.1752 0.78749 0.79494 0.0
C445 C 0.07844 0.75852 0.79975 0.0
C446 C 0.15927 0.83204 0.78801 0.0
C447 C 0.10339 0.83974 0.7861 0.0
H448 H 0.51993 0.70632 0.06624 0.0
H449 H 0.5181 0.66965 0.91208 0.0
H450 H 0.50454 0.75235 0.90507 0.0
H451 H 0.49706 0.83654 0.94387 0.0
H452 H 0.50279 0.87185 0.09854 0.0
H453 H 0.51056 0.78836 0.10426 0.0
C454 C 0.51681 0.71642 0.0311 0.0
C455 C 0.5206 0.68211 0.98983 0.0
C456 C 0.50981 0.76393 0.02748 0.0
C457 C 0.51585 0.69563 0.94448 0.0
C458 C 0.50807 0.74287 0.94045 0.0
C459 C 0.4998 0.82565 0.97863 0.0
C460 C 0.49962 0.86008 0.02074 0.0
C461 C 0.50557 0.77754 0.98182 0.0
C462 C 0.50338 0.84588 0.0657 0.0
C463 C 0.5078 0.79821 0.06904 0.0
H464 H 0.69867 0.85045 0.30573 0.0
H465 H 0.71014 0.69784 0.28032 0.0
H466 H 0.61106 0.68109 0.28768 0.0
H467 H 0.52007 0.70937 0.29255 0.0
H468 H 0.50739 0.86174 0.3163 0.0
H469 H 0.60871 0.87925 0.31931 0.0
C470 C 0.67948 0.81357 0.30221 0.0
C471 C 0.71108 0.7753 0.29162 0.0
C472 C 0.62257 0.80427 0.30615 0.0
C473 C 0.68632 0.72777 0.28809 0.0
C474 C 0.62976 0.7182 0.2922 0.0
C475 C 0.53955 0.74646 0.29902 0.0
C476 C 0.5065 0.7842 0.30336 0.0
C477 C 0.5973 0.75609 0.2999 0.0
C478 C 0.53215 0.8321 0.31248 0.0
C479 C 0.58993 0.84209 0.31398 0.0
H480 H 0.44948 0.13296 0.40251 0.0
H481 H 0.55033 0.14567 0.53962 0.0
H482 H 0.57609 0.23203 0.54228 0.0
H483 H 0.56845 0.30408 0.50541 0.0
H484 H 0.47174 0.28807 0.36556 0.0
H485 H 0.44683 0.20267 0.36362 0.0
C486 C 0.47671 0.15476 0.4332 0.0
C487 C 0.4972 0.13345 0.47127 0.0
C488 C 0.49278 0.20358 0.43354 0.0
C489 C 0.53364 0.16164 0.51019 0.0
C490 C 0.54856 0.21083 0.51154 0.0
C491 C 0.54254 0.28168 0.47434 0.0
C492 C 0.52186 0.30246 0.43578 0.0
C493 C 0.52845 0.2322 0.47331 0.0
C494 C 0.48836 0.27302 0.39566 0.0
C495 C 0.47376 0.22415 0.39461 0.0
H496 H 0.19924 0.24211 0.76134 0.0
H497 H 0.21297 0.39512 0.81505 0.0
H498 H 0.11198 0.38884 0.81767 0.0
H499 H 0.0189 0.34021 0.79799 0.0
H500 H 0.0072 0.18798 0.73996 0.0
H501 H 0.10846 0.19355 0.74577 0.0
C502 C 0.18029 0.27407 0.77406 0.0
C503 C 0.21328 0.31903 0.78771 0.0
C504 C 0.12253 0.27031 0.7743 0.0
C505 C 0.18822 0.36012 0.80421 0.0
C506 C 0.13055 0.35654 0.80556 0.0
C507 C 0.03874 0.30827 0.78724 0.0
C508 C 0.00588 0.26382 0.76836 0.0
C509 C 0.09713 0.31191 0.78971 0.0
C510 C 0.03177 0.22265 0.75427 0.0
C511 C 0.08961 0.22577 0.75758 0.0
H512 H 0.07146 0.80208 0.92423 0.0
H513 H 0.91553 0.81577 0.98194 0.0
H514 H 0.90447 0.73062 0.98606 0.0
H515 H 0.93854 0.65244 0.97354 0.0
H516 H 0.09419 0.63733 0.91576 0.0
H517 H 0.10616 0.72292 0.9119 0.0
C518 C 0.03523 0.78638 0.93787 0.0
C519 C 0.99444 0.81515 0.95293 0.0
C520 C 0.02911 0.73726 0.94032 0.0
C521 C 0.94743 0.79433 0.9701 0.0
C522 C 0.94106 0.74569 0.97257 0.0
C523 C 0.97521 0.66791 0.96031 0.0
C524 C 0.01547 0.63875 0.94519 0.0
C525 C 0.98161 0.71686 0.95787 0.0
C526 C 0.06265 0.65919 0.92784 0.0
C527 C 0.06951 0.70808 0.92554 0.0
H528 H 0.34632 0.46884 0.35129 0.0
H529 H 0.20009 0.4227 0.24601 0.0
H530 H 0.19219 0.50635 0.23977 0.0
H531 H 0.23247 0.59167 0.25838 0.0
H532 H 0.37761 0.63771 0.36486 0.0
H533 H 0.38019 0.55512 0.37667 0.0
C534 C 0.31234 0.4772 0.32743 0.0
C535 C 0.27426 0.43976 0.29868 0.0
C536 C 0.30798 0.52529 0.32414 0.0
C537 C 0.23006 0.45098 0.26833 0.0
C538 C 0.2256 0.49876 0.26466 0.0
C539 C 0.26394 0.58368 0.28484 0.0
C540 C 0.30505 0.62055 0.31038 0.0
C541 C 0.26509 0.53608 0.29154 0.0
C542 C 0.34542 0.6099 0.3448 0.0
C543 C 0.34709 0.56263 0.35144 0.0
H544 H 0.74638 0.08517 0.71485 0.0
H545 H 0.85935 0.14011 0.84582 0.0
H546 H 0.86255 0.05865 0.86048 0.0
H547 H 0.83729 0.97164 0.83427 0.0
H548 H 0.72268 0.91558 0.70469 0.0
H549 H 0.71576 0.99764 0.69145 0.0
C550 C 0.771 0.0793 0.74695 0.0
C551 C 0.80274 0.11865 0.77907 0.0
C552 C 0.77263 0.03217 0.75526 0.0
C553 C 0.83441 0.11051 0.82055 0.0
C554 C 0.83646 0.06388 0.82892 0.0
C555 C 0.81066 0.97737 0.80317 0.0
C556 C 0.78097 0.9377 0.77019 0.0
C557 C 0.80649 0.02444 0.79614 0.0
C558 C 0.74609 0.94564 0.73044 0.0
C559 C 0.74216 0.9925 0.72288 0.0
H560 H 0.34768 0.49195 0.03574 0.0
H561 H 0.36418 0.48932 0.88566 0.0
H562 H 0.26271 0.47218 0.86515 0.0
H563 H 0.16905 0.46532 0.89142 0.0
H564 H 0.15427 0.47128 0.04235 0.0
H565 H 0.25546 0.47862 0.06086 0.0
C566 C 0.32911 0.48714 0.99845 0.0
C567 C 0.36309 0.4925 0.96235 0.0
C568 C 0.27107 0.47771 0.98709 0.0
C569 C 0.33868 0.48564 0.91412 0.0
C570 C 0.28071 0.47581 0.90239 0.0
C571 C 0.18805 0.46737 0.92818 0.0
C572 C 0.15446 0.46827 0.96557 0.0
C573 C 0.24643 0.4728 0.93877 0.0
C574 C 0.1794 0.47092 0.01305 0.0
C575 C 0.23722 0.47527 0.0237 0.0
H576 H 0.8053 0.09399 0.2767 0.0
H577 H 0.97348 0.13743 0.25228 0.0
H578 H -0.00126 0.05754 0.26092 0.0
H579 H 0.97075 0.97414 0.2742 0.0
H580 H 0.80348 0.93762 0.30627 0.0
H581 H 0.77988 0.01571 0.29498 0.0
C582 C 0.8474 0.08585 0.27273 0.0
C583 C 0.88718 0.12079 0.26281 0.0
C584 C 0.86181 0.04119 0.27954 0.0
C585 C 0.94204 0.11053 0.25932 0.0
C586 C 0.95644 0.06507 0.26447 0.0
C587 C 0.92971 0.98397 0.27981 0.0
C588 C 0.88914 0.95034 0.29144 0.0
C589 C 0.91654 0.03003 0.27473 0.0
C590 C 0.83582 0.96309 0.29811 0.0
C591 C 0.82199 0.00763 0.29129 0.0
H592 H 0.82995 0.02207 0.92793 0.0
H593 H 0.88382 0.99854 0.07053 0.0
H594 H 0.79271 0.01309 0.09496 0.0
H595 H 0.69493 0.02461 0.07308 0.0
H596 H 0.64014 0.04238 0.92856 0.0
H597 H 0.73471 0.03888 0.9077 0.0
C598 C 0.82206 0.021 0.96458 0.0
C599 C 0.8633 0.00926 0.99737 0.0
C600 C 0.76935 0.02825 0.97793 0.0
C601 C 0.85248 0.00745 0.04463 0.0
C602 C 0.80043 0.0157 0.05859 0.0
C603 C 0.70412 0.02875 0.03741 0.0
C604 C 0.66094 0.03365 0.00236 0.0
C605 C 0.75815 0.02507 0.0252 0.0
C606 C 0.67292 0.0384 0.95604 0.0
C607 C 0.72684 0.03626 0.94405 0.0
H608 H 0.44429 0.64179 0.83874 0.0
H609 H 0.37244 0.62374 0.6902 0.0
H610 H 0.39146 0.54008 0.67522 0.0
H611 H 0.41535 0.46991 0.70706 0.0
H612 H 0.47713 0.4842 0.85746 0.0
H613 H 0.47606 0.57176 0.86927 0.0
C614 C 0.43422 0.61971 0.8029 0.0
C615 C 0.40719 0.63856 0.7655 0.0
C616 C 0.44288 0.571 0.79522 0.0
C617 C 0.39319 0.6097 0.7194 0.0
C618 C 0.40395 0.56195 0.71091 0.0
C619 C 0.43 0.49227 0.74221 0.0
C620 C 0.44561 0.47078 0.78164 0.0
C621 C 0.42693 0.54184 0.74893 0.0
C622 C 0.46423 0.50014 0.82692 0.0
C623 C 0.46351 0.55003 0.83359 0.0
H624 H 0.19613 0.46264 0.55743 0.0
H625 H 0.16835 0.54928 0.44933 0.0
H626 H 0.26365 0.54536 0.43041 0.0
H627 H 0.35241 0.51383 0.44153 0.0
H628 H 0.37902 0.42142 0.54445 0.0
H629 H 0.28639 0.43072 0.56854 0.0
C630 C 0.21156 0.48135 0.53046 0.0
C631 C 0.176 0.50667 0.50511 0.0
C632 C 0.26568 0.47737 0.51853 0.0
C633 C 0.19548 0.52985 0.46937 0.0
C634 C 0.24972 0.52746 0.45844 0.0
C635 C 0.33807 0.49587 0.46935 0.0
C636 C 0.37236 0.46714 0.49125 0.0
C637 C 0.28477 0.50069 0.48224 0.0
C638 C 0.35325 0.44387 0.52716 0.0
C639 C 0.30039 0.44922 0.54096 0.0
H640 H 0.7755 0.73187 0.93962 0.0
H641 H 0.80555 0.88655 0.95553 0.0
H642 H 0.83179 0.89457 0.04205 0.0
H643 H 0.85199 0.85744 0.11243 0.0
H644 H 0.81725 0.7035 0.09835 0.0
H645 H 0.78752 0.6952 0.01172 0.0
C646 C 0.78677 0.76732 0.96222 0.0
C647 C 0.78875 0.80845 0.9412 0.0
C648 C 0.80187 0.77174 0.01207 0.0
C649 C 0.80341 0.85426 0.97084 0.0
C650 C 0.8189 0.85892 0.02031 0.0
C651 C 0.83818 0.82209 0.09024 0.0
C652 C 0.83778 0.78101 0.11118 0.0
C653 C 0.81954 0.81785 0.04107 0.0
C654 C 0.81841 0.7355 0.08261 0.0
C655 C 0.80117 0.73081 0.03327 0.0
H656 H 0.61264 0.5125 0.31288 0.0
H657 H 0.44846 0.43075 0.28198 0.0
H658 H 0.44476 0.43685 0.19747 0.0
H659 H 0.48594 0.46743 0.13281 0.0
H660 H 0.64615 0.55528 0.16262 0.0
H661 H 0.65381 0.54485 0.24692 0.0
C662 C 0.57627 0.496 0.28748 0.0
C663 C 0.53096 0.47117 0.30363 0.0
C664 C 0.57367 0.50077 0.23879 0.0
C665 C 0.48381 0.45024 0.27052 0.0
C666 C 0.48165 0.45358 0.22211 0.0
C667 C 0.52287 0.48392 0.15759 0.0
C668 C 0.56564 0.51172 0.14149 0.0
C669 C 0.52607 0.479 0.20594 0.0
C670 C 0.61276 0.53354 0.17421 0.0
C671 C 0.61707 0.52764 0.22237 0.0
H672 H 0.85232 0.33094 0.44884 0.0
H673 H 0.83825 0.17658 0.40441 0.0
H674 H 0.83405 0.16647 0.48724 0.0
H675 H 0.82907 0.2006 0.57122 0.0
H676 H 0.84285 0.35453 0.61817 0.0
H677 H 0.85228 0.36588 0.53572 0.0
C678 C 0.8489 0.29531 0.45767 0.0
C679 C 0.84531 0.25455 0.42083 0.0
C680 C 0.84541 0.28962 0.50557 0.0
C681 C 0.84065 0.20843 0.43234 0.0
C682 C 0.83808 0.20257 0.4796 0.0
C683 C 0.83371 0.23665 0.56339 0.0
C684 C 0.8344 0.2766 0.60046 0.0
C685 C 0.83924 0.24278 0.51628 0.0
C686 C 0.84172 0.32315 0.59001 0.0
C687 C 0.84707 0.32964 0.54291 0.0
H688 H 0.92566 0.42451 0.63099 0.0
H689 H 0.92686 0.57842 0.658 0.0
H690 H 0.90457 0.57719 0.73994 0.0
H691 H 0.90177 0.53433 0.80708 0.0
H692 H 0.91829 0.38302 0.78389 0.0
H693 H 0.9162 0.3806 0.69719 0.0
C694 C 0.9192 0.45741 0.65455 0.0
C695 C 0.92702 0.50142 0.63895 0.0
C696 C 0.91013 0.45666 0.70233 0.0
C697 C 0.92044 0.54424 0.66964 0.0
C698 C 0.90799 0.54347 0.71637 0.0
C699 C 0.90271 0.50043 0.78278 0.0
C700 C 0.9099 0.4587 0.80157 0.0
C701 C 0.905 0.50015 0.73366 0.0
C702 C 0.91228 0.41528 0.76995 0.0
C703 C 0.91139 0.41404 0.72052 0.0
H704 H 0.81614 0.92113 0.45764 0.0
H705 H 0.8367 0.05035 0.39827 0.0
H706 H 0.73609 0.04521 0.37816 0.0
H707 H 0.64277 0.01065 0.3871 0.0
H708 H 0.62025 0.88501 0.45166 0.0
H709 H 0.72099 0.88115 0.45876 0.0
C710 C 0.7985 0.94756 0.43947 0.0
C711 C 0.83369 0.98609 0.42953 0.0
C712 C 0.74029 0.94508 0.42905 0.0
C713 C 0.81048 0.02023 0.40615 0.0
C714 C 0.75291 0.01747 0.39481 0.0
C715 C 0.65973 0.98189 0.40199 0.0
C716 C 0.62443 0.94872 0.41968 0.0
C717 C 0.71747 0.98098 0.40747 0.0
C718 C 0.64683 0.91132 0.43832 0.0
C719 C 0.70439 0.90926 0.44258 0.0
loop_
_geom_bond_atom_site_label_1
_geom_bond_atom_site_label_2
_geom_bond_distance
_geom_bond_site_symmetry_2
_ccdc_geom_bond_type
In0 O1 2.294 . S
In0 O2 2.326 . S
In0 O6 2.266 . S
In0 O7 2.326 . S
In0 O8 2.266 . S
In0 O9 2.326 . S
In0 O11 2.294 . S
In0 O12 2.326 . S
O1 In0 2.294 . S
O1 C10 1.240 . S
O2 In0 2.326 . S
O2 C10 1.252 . S
C3 O6 1.252 . S
C3 O7 1.260 . S
C4 O11 1.240 . S
C4 O12 1.252 . S
C5 O8 1.252 . S
C5 O9 1.260 . S
O6 In0 2.266 . S
O6 C3 1.252 . S
O7 In0 2.326 . S
O7 C3 1.260 . S
O8 In0 2.266 . S
O8 C5 1.252 . S
O9 In0 2.326 . S
O9 C5 1.260 . S
C10 O1 1.240 . S
C10 O2 1.252 . S
O11 In0 2.294 . S
O11 C4 1.240 . S
O12 In0 2.326 . S
O12 C4 1.252 . S
In13 O14 2.294 1_665 S
In13 O15 2.324 . S
In13 O19 2.269 1_665 S
In13 O20 2.328 1_565 S
In13 O21 2.266 . S
In13 O22 2.327 1_565 S
In13 O24 2.292 1_655 S
In13 O25 2.325 1_655 S
O14 In13 2.294 1_445 S
O14 C23 1.240 1_545 S
O15 In13 2.324 . S
O15 C23 1.252 1_655 S
C16 O19 1.252 1_655 S
C16 O20 1.261 . S
C17 O24 1.240 . S
C17 O25 1.252 . S
C18 O21 1.245 1_545 S
C18 O22 1.266 . S
O19 In13 2.269 1_445 S
O19 C16 1.252 1_455 S
O20 In13 2.328 1_545 S
O20 C16 1.261 . S
O21 In13 2.266 . S
O21 C18 1.245 1_565 S
O22 In13 2.327 1_545 S
O22 C18 1.266 . S
C23 O14 1.240 1_565 S
C23 O15 1.252 1_455 S
O24 In13 2.292 1_455 S
O24 C17 1.240 . S
O25 In13 2.325 1_455 S
O25 C17 1.252 . S
In26 O27 2.294 . S
In26 O28 2.326 . S
In26 O32 2.266 . S
In26 O33 2.326 . S
In26 O34 2.266 . S
In26 O35 2.326 . S
In26 O37 2.294 . S
In26 O38 2.326 . S
O27 In26 2.294 . S
O27 C36 1.240 . S
O28 In26 2.326 . S
O28 C36 1.252 . S
C29 O32 1.252 . S
C29 O33 1.260 . S
C30 O37 1.240 . S
C30 O38 1.252 . S
C31 O34 1.252 . S
C31 O35 1.260 . S
O32 In26 2.266 . S
O32 C29 1.252 . S
O33 In26 2.326 . S
O33 C29 1.260 . S
O34 In26 2.266 . S
O34 C31 1.252 . S
O35 In26 2.326 . S
O35 C31 1.260 . S
C36 O27 1.240 . S
C36 O28 1.252 . S
O37 In26 2.294 . S
O37 C30 1.240 . S
O38 In26 2.326 . S
O38 C30 1.252 . S
In39 O40 2.294 1_554 S
In39 O41 2.326 1_564 S
In39 O45 2.266 1_554 S
In39 O46 2.326 . S
In39 O47 2.266 . S
In39 O48 2.326 . S
In39 O50 2.299 . S
In39 O51 2.326 1_554 S
O40 In39 2.294 1_556 S
O40 C49 1.240 1_565 S
O41 In39 2.326 1_546 S
O41 C49 1.252 . S
C42 O45 1.252 1_554 S
C42 O46 1.260 . S
C43 O50 1.244 1_556 S
C43 O51 1.252 . S
C44 O47 1.252 . S
C44 O48 1.260 . S
O45 In39 2.266 1_556 S
O45 C42 1.252 1_556 S
O46 In39 2.326 . S
O46 C42 1.260 . S
O47 In39 2.266 . S
O47 C44 1.252 . S
O48 In39 2.326 . S
O48 C44 1.260 . S
C49 O40 1.240 1_545 S
C49 O41 1.252 . S
O50 In39 2.299 . S
O50 C43 1.244 1_554 S
O51 In39 2.326 1_556 S
O51 C43 1.252 . S
In52 O53 2.294 . S
In52 O54 2.326 . S
In52 O58 2.266 . S
In52 O59 2.326 . S
In52 O60 2.266 . S
In52 O61 2.326 . S
In52 O63 2.294 . S
In52 O64 2.326 . S
O53 In52 2.294 . S
O53 C62 1.240 . S
O54 In52 2.326 . S
O54 C62 1.252 . S
C55 O58 1.252 . S
C55 O59 1.260 . S
C56 O63 1.240 . S
C56 O64 1.252 . S
C57 O60 1.252 . S
C57 O61 1.260 . S
O58 In52 2.266 . S
O58 C55 1.252 . S
O59 In52 2.326 . S
O59 C55 1.260 . S
O60 In52 2.266 . S
O60 C57 1.252 . S
O61 In52 2.326 . S
O61 C57 1.260 . S
C62 O53 1.240 . S
C62 O54 1.252 . S
O63 In52 2.294 . S
O63 C56 1.240 . S
O64 In52 2.326 . S
O64 C56 1.252 . S
In65 O66 2.294 1_545 S
In65 O67 2.326 1_545 S
In65 O71 2.266 . S
In65 O72 2.326 . S
In65 O73 2.266 1_545 S
In65 O74 2.326 . S
In65 O76 2.294 1_545 S
In65 O77 2.326 . S
O66 In65 2.294 1_565 S
O66 C75 1.240 . S
O67 In65 2.326 1_565 S
O67 C75 1.252 . S
C68 O71 1.252 . S
C68 O72 1.260 . S
C69 O76 1.240 1_545 S
C69 O77 1.252 . S
C70 O73 1.252 . S
C70 O74 1.260 1_565 S
O71 In65 2.266 . S
O71 C68 1.252 . S
O72 In65 2.326 . S
O72 C68 1.260 . S
O73 In65 2.266 1_565 S
O73 C70 1.252 . S
O74 In65 2.326 . S
O74 C70 1.260 1_545 S
C75 O66 1.240 . S
C75 O67 1.252 . S
O76 In65 2.294 1_565 S
O76 C69 1.240 1_565 S
O77 In65 2.326 . S
O77 C69 1.252 . S
In78 O79 2.294 . S
In78 O80 2.326 . S
In78 O84 2.266 . S
In78 O85 2.326 . S
In78 O86 2.266 . S
In78 O87 2.326 . S
In78 O89 2.294 . S
In78 O90 2.326 . S
O79 In78 2.294 . S
O79 C88 1.240 . S
O80 In78 2.326 . S
O80 C88 1.252 . S
C81 O84 1.252 . S
C81 O85 1.260 . S
C82 O89 1.240 . S
C82 O90 1.252 . S
C83 O86 1.252 . S
C83 O87 1.260 . S
O84 In78 2.266 . S
O84 C81 1.252 . S
O85 In78 2.326 . S
O85 C81 1.260 . S
O86 In78 2.266 . S
O86 C83 1.252 . S
O87 In78 2.326 . S
O87 C83 1.260 . S
C88 O79 1.240 . S
C88 O80 1.252 . S
O89 In78 2.294 . S
O89 C82 1.240 . S
O90 In78 2.326 . S
O90 C82 1.252 . S
In91 O92 2.295 . S
In91 O93 2.327 . S
In91 O97 2.266 . S
In91 O98 2.325 1_655 S
In91 O99 2.266 1_655 S
In91 O100 2.326 . S
In91 O102 2.293 1_665 S
In91 O103 2.326 1_665 S
O92 In91 2.295 . S
O92 C101 1.240 . S
O93 In91 2.327 . S
O93 C101 1.252 . S
C94 O97 1.252 1_455 S
C94 O98 1.260 . S
C95 O102 1.240 . S
C95 O103 1.252 . S
C96 O99 1.252 . S
C96 O100 1.260 1_455 S
O97 In91 2.266 . S
O97 C94 1.252 1_655 S
O98 In91 2.325 1_455 S
O98 C94 1.260 . S
O99 In91 2.266 1_455 S
O99 C96 1.252 . S
O100 In91 2.326 . S
O100 C96 1.260 1_655 S
C101 O92 1.240 . S
C101 O93 1.252 . S
O102 In91 2.293 1_445 S
O102 C95 1.240 . S
O103 In91 2.326 1_445 S
O103 C95 1.252 . S
In104 O105 2.294 . S
In104 O106 2.326 . S
In104 O110 2.266 . S
In104 O111 2.326 . S
In104 O112 2.266 . S
In104 O113 2.326 . S
In104 O115 2.294 . S
In104 O116 2.326 . S
O105 In104 2.294 . S
O105 C114 1.240 . S
O106 In104 2.326 . S
O106 C114 1.252 . S
C107 O110 1.252 . S
C107 O111 1.260 . S
C108 O115 1.240 . S
C108 O116 1.252 . S
C109 O112 1.252 . S
C109 O113 1.260 . S
O110 In104 2.266 . S
O110 C107 1.252 . S
O111 In104 2.326 . S
O111 C107 1.260 . S
O112 In104 2.266 . S
O112 C109 1.252 . S
O113 In104 2.326 . S
O113 C109 1.260 . S
C114 O105 1.240 . S
C114 O106 1.252 . S
O115 In104 2.294 . S
O115 C108 1.240 . S
O116 In104 2.326 . S
O116 C108 1.252 . S
In117 O118 2.296 . S
In117 O119 2.327 1_556 S
In117 O123 2.266 . S
In117 O124 2.324 1_455 S
In117 O125 2.265 1_455 S
In117 O126 2.326 . S
In117 O128 2.293 1_456 S
In117 O129 2.326 1_455 S
O118 In117 2.296 . S
O118 C127 1.240 . S
O119 In117 2.327 1_554 S
O119 C127 1.252 1_554 S
C120 O123 1.252 1_655 S
C120 O124 1.260 . S
C121 O128 1.240 1_556 S
C121 O129 1.252 . S
C122 O125 1.252 . S
C122 O126 1.260 1_655 S
O123 In117 2.266 . S
O123 C120 1.252 1_455 S
O124 In117 2.324 1_655 S
O124 C120 1.260 . S
O125 In117 2.265 1_655 S
O125 C122 1.252 . S
O126 In117 2.326 . S
O126 C122 1.260 1_455 S
C127 O118 1.240 . S
C127 O119 1.252 1_556 S
O128 In117 2.293 1_654 S
O128 C121 1.240 1_554 S
O129 In117 2.326 1_655 S
O129 C121 1.252 . S
In130 O131 2.294 . S
In130 O132 2.326 . S
In130 O136 2.266 . S
In130 O137 2.326 . S
In130 O138 2.266 . S
In130 O139 2.326 . S
In130 O141 2.294 . S
In130 O142 2.326 . S
O131 In130 2.294 . S
O131 C140 1.240 . S
O132 In130 2.326 . S
O132 C140 1.252 . S
C133 O136 1.252 . S
C133 O137 1.260 . S
C134 O141 1.240 . S
C134 O142 1.252 . S
C135 O138 1.252 . S
C135 O139 1.260 . S
O136 In130 2.266 . S
O136 C133 1.252 . S
O137 In130 2.326 . S
O137 C133 1.260 . S
O138 In130 2.266 . S
O138 C135 1.252 . S
O139 In130 2.326 . S
O139 C135 1.260 . S
C140 O131 1.240 . S
C140 O132 1.252 . S
O141 In130 2.294 . S
O141 C134 1.240 . S
O142 In130 2.326 . S
O142 C134 1.252 . S
In143 O144 2.294 . S
In143 O145 2.326 . S
In143 O149 2.266 . S
In143 O150 2.326 1_455 S
In143 O151 2.266 1_455 S
In143 O152 2.326 . S
In143 O154 2.294 1_455 S
In143 O155 2.326 . S
O144 In143 2.294 . S
O144 C153 1.240 . S
O145 In143 2.326 . S
O145 C153 1.252 . S
C146 O149 1.252 1_655 S
C146 O150 1.260 . S
C147 O154 1.240 . S
C147 O155 1.252 1_655 S
C148 O151 1.252 . S
C148 O152 1.260 1_655 S
O149 In143 2.266 . S
O149 C146 1.252 1_455 S
O150 In143 2.326 1_655 S
O150 C146 1.260 . S
O151 In143 2.266 1_655 S
O151 C148 1.252 . S
O152 In143 2.326 . S
O152 C148 1.260 1_455 S
C153 O144 1.240 . S
C153 O145 1.252 . S
O154 In143 2.294 1_655 S
O154 C147 1.240 . S
O155 In143 2.326 . S
O155 C147 1.252 1_455 S
In156 O157 2.294 1_554 S
In156 O158 2.326 . S
In156 O162 2.266 1_554 S
In156 O163 2.326 . S
In156 O164 2.266 . S
In156 O165 2.326 1_554 S
In156 O167 2.294 . S
In156 O168 2.326 . S
O157 In156 2.294 1_556 S
O157 C166 1.240 . S
O158 In156 2.326 . S
O158 C166 1.252 1_554 S
C159 O162 1.252 1_554 S
C159 O163 1.260 . S
C160 O167 1.240 . S
C160 O168 1.252 . S
C161 O164 1.252 . S
C161 O165 1.260 1_554 S
O162 In156 2.266 1_556 S
O162 C159 1.252 1_556 S
O163 In156 2.326 . S
O163 C159 1.260 . S
O164 In156 2.266 . S
O164 C161 1.252 . S
O165 In156 2.326 1_556 S
O165 C161 1.260 1_556 S
C166 O157 1.240 . S
C166 O158 1.252 1_556 S
O167 In156 2.294 . S
O167 C160 1.240 . S
O168 In156 2.326 . S
O168 C160 1.252 . S
In169 O170 2.294 . S
In169 O171 2.326 . S
In169 O175 2.266 . S
In169 O176 2.326 . S
In169 O177 2.266 . S
In169 O178 2.326 . S
In169 O180 2.294 . S
In169 O181 2.326 . S
O170 In169 2.294 . S
O170 C179 1.240 . S
O171 In169 2.326 . S
O171 C179 1.252 . S
C172 O175 1.252 . S
C172 O176 1.260 . S
C173 O180 1.240 . S
C173 O181 1.252 . S
C174 O177 1.252 . S
C174 O178 1.260 . S
O175 In169 2.266 . S
O175 C172 1.252 . S
O176 In169 2.326 . S
O176 C172 1.260 . S
O177 In169 2.266 . S
O177 C174 1.252 . S
O178 In169 2.326 . S
O178 C174 1.260 . S
C179 O170 1.240 . S
C179 O171 1.252 . S
O180 In169 2.294 . S
O180 C173 1.240 . S
O181 In169 2.326 . S
O181 C173 1.252 . S
In182 O183 2.294 . S
In182 O184 2.326 . S
In182 O188 2.266 . S
In182 O189 2.326 . S
In182 O190 2.266 . S
In182 O191 2.326 . S
In182 O193 2.294 . S
In182 O194 2.326 . S
O183 In182 2.294 . S
O183 C192 1.240 . S
O184 In182 2.326 . S
O184 C192 1.252 . S
C185 O188 1.252 . S
C185 O189 1.260 . S
C186 O193 1.240 . S
C186 O194 1.252 . S
C187 O190 1.252 . S
C187 O191 1.260 . S
O188 In182 2.266 . S
O188 C185 1.252 . S
O189 In182 2.326 . S
O189 C185 1.260 . S
O190 In182 2.266 . S
O190 C187 1.252 . S
O191 In182 2.326 . S
O191 C187 1.260 . S
C192 O183 1.240 . S
C192 O184 1.252 . S
O193 In182 2.294 . S
O193 C186 1.240 . S
O194 In182 2.326 . S
O194 C186 1.252 . S
In195 O196 2.294 . S
In195 O197 2.326 . S
In195 O201 2.266 . S
In195 O202 2.326 . S
In195 O203 2.266 . S
In195 O204 2.326 . S
In195 O206 2.294 . S
In195 O207 2.326 . S
O196 In195 2.294 . S
O196 C205 1.240 . S
O197 In195 2.326 . S
O197 C205 1.252 . S
C198 O201 1.252 . S
C198 O202 1.260 . S
C199 O206 1.240 . S
C199 O207 1.252 . S
C200 O203 1.252 . S
C200 O204 1.260 . S
O201 In195 2.266 . S
O201 C198 1.252 . S
O202 In195 2.326 . S
O202 C198 1.260 . S
O203 In195 2.266 . S
O203 C200 1.252 . S
O204 In195 2.326 . S
O204 C200 1.260 . S
C205 O196 1.240 . S
C205 O197 1.252 . S
O206 In195 2.294 . S
O206 C199 1.240 . S
O207 In195 2.326 . S
O207 C199 1.252 . S
H208 C214 0.930 . S
H209 C217 0.930 . S
H210 C218 0.930 . S
H211 C219 0.930 . S
H212 C222 0.930 . S
H213 C223 0.930 . S
C214 H208 0.930 . S
C214 C215 1.355 . S
C214 C216 1.415 . S
C215 C214 1.355 . S
C215 C217 1.419 . S
C216 C214 1.415 . S
C216 C221 1.425 . S
C216 C223 1.409 . S
C217 H209 0.930 . S
C217 C215 1.419 . S
C217 C218 1.362 . S
C218 H210 0.930 . S
C218 C217 1.362 . S
C218 C221 1.409 . S
C219 H211 0.930 . S
C219 C220 1.355 . S
C219 C221 1.415 . S
C220 C219 1.355 . S
C220 C222 1.419 . S
C221 C216 1.425 . S
C221 C218 1.409 . S
C221 C219 1.415 . S
C222 H212 0.930 . S
C222 C220 1.419 . S
C222 C223 1.362 . S
C223 H213 0.930 . S
C223 C216 1.409 . S
C223 C222 1.362 . S
H224 C230 0.930 . S
H225 C233 0.930 . S
H226 C234 0.930 . S
H227 C235 0.930 . S
H228 C238 0.930 . S
H229 C239 0.930 . S
C230 H224 0.930 . S
C230 C231 1.355 . S
C230 C232 1.415 . S
C231 C230 1.355 . S
C231 C233 1.419 . S
C232 C230 1.415 . S
C232 C237 1.425 . S
C232 C239 1.409 . S
C233 H225 0.930 . S
C233 C231 1.419 . S
C233 C234 1.362 . S
C234 H226 0.930 . S
C234 C233 1.362 . S
C234 C237 1.409 . S
C235 H227 0.930 . S
C235 C236 1.355 . S
C235 C237 1.415 . S
C236 C235 1.355 . S
C236 C238 1.419 . S
C237 C232 1.425 . S
C237 C234 1.409 . S
C237 C235 1.415 . S
C238 H228 0.930 . S
C238 C236 1.419 . S
C238 C239 1.362 . S
C239 H229 0.930 . S
C239 C232 1.409 . S
C239 C238 1.362 . S
H240 C246 0.930 . S
H241 C249 0.930 . S
H242 C250 0.930 . S
H243 C251 0.930 . S
H244 C254 0.930 . S
H245 C255 0.930 . S
C246 H240 0.930 . S
C246 C247 1.355 . S
C246 C248 1.415 . S
C247 C246 1.355 . S
C247 C249 1.419 . S
C248 C246 1.415 . S
C248 C253 1.425 . S
C248 C255 1.409 . S
C249 H241 0.930 . S
C249 C247 1.419 . S
C249 C250 1.362 . S
C250 H242 0.930 . S
C250 C249 1.362 . S
C250 C253 1.409 . S
C251 H243 0.930 . S
C251 C252 1.355 . S
C251 C253 1.415 . S
C252 C251 1.355 . S
C252 C254 1.419 . S
C253 C248 1.425 . S
C253 C250 1.409 . S
C253 C251 1.415 . S
C254 H244 0.930 . S
C254 C252 1.419 . S
C254 C255 1.362 . S
C255 H245 0.930 . S
C255 C248 1.409 . S
C255 C254 1.362 . S
H256 C262 0.930 . S
H257 C265 0.930 . S
H258 C266 0.930 . S
H259 C267 0.930 . S
H260 C270 0.930 . S
H261 C271 0.930 . S
C262 H256 0.930 . S
C262 C263 1.355 . S
C262 C264 1.415 . S
C263 C262 1.355 . S
C263 C265 1.419 . S
C264 C262 1.415 . S
C264 C269 1.425 . S
C264 C271 1.409 . S
C265 H257 0.930 . S
C265 C263 1.419 . S
C265 C266 1.362 . S
C266 H258 0.930 . S
C266 C265 1.362 . S
C266 C269 1.409 . S
C267 H259 0.930 . S
C267 C268 1.355 . S
C267 C269 1.415 . S
C268 C267 1.355 . S
C268 C270 1.419 . S
C269 C264 1.425 . S
C269 C266 1.409 . S
C269 C267 1.415 . S
C270 H260 0.930 . S
C270 C268 1.419 . S
C270 C271 1.362 . S
C271 H261 0.930 . S
C271 C264 1.409 . S
C271 C270 1.362 . S
H272 C278 0.930 . S
H273 C281 0.930 . S
H274 C282 0.930 . S
H275 C283 0.930 . S
H276 C286 0.930 1_554 S
H277 C287 0.930 . S
C278 H272 0.930 . S
C278 C279 1.355 . S
C278 C280 1.415 . S
C279 C278 1.355 . S
C279 C281 1.419 . S
C280 C278 1.415 . S
C280 C285 1.425 . S
C280 C287 1.409 . S
C281 H273 0.930 . S
C281 C279 1.419 . S
C281 C282 1.362 . S
C282 H274 0.930 . S
C282 C281 1.362 . S
C282 C285 1.409 . S
C283 H275 0.930 . S
C283 C284 1.355 . S
C283 C285 1.415 . S
C284 C283 1.355 . S
C284 C286 1.419 . S
C285 C280 1.425 . S
C285 C282 1.409 . S
C285 C283 1.415 . S
C286 H276 0.930 1_556 S
C286 C284 1.419 . S
C286 C287 1.362 . S
C287 H277 0.930 . S
C287 C280 1.409 . S
C287 C286 1.362 . S
H288 C294 0.930 . S
H289 C297 0.930 . S
H290 C298 0.930 . S
H291 C299 0.930 . S
H292 C302 0.930 . S
H293 C303 0.930 . S
C294 H288 0.930 . S
C294 C295 1.355 . S
C294 C296 1.415 . S
C295 C294 1.355 . S
C295 C297 1.419 . S
C296 C294 1.415 . S
C296 C301 1.425 . S
C296 C303 1.409 . S
C297 H289 0.930 . S
C297 C295 1.419 . S
C297 C298 1.362 . S
C298 H290 0.930 . S
C298 C297 1.362 . S
C298 C301 1.409 . S
C299 H291 0.930 . S
C299 C300 1.355 . S
C299 C301 1.415 . S
C300 C299 1.355 . S
C300 C302 1.419 . S
C301 C296 1.425 . S
C301 C298 1.409 . S
C301 C299 1.415 . S
C302 H292 0.930 . S
C302 C300 1.419 . S
C302 C303 1.362 . S
C303 H293 0.930 . S
C303 C296 1.409 . S
C303 C302 1.362 . S
H304 C310 0.930 . S
H305 C313 0.930 . S
H306 C314 0.930 . S
H307 C315 0.930 . S
H308 C318 0.930 . S
H309 C319 0.930 . S
C310 H304 0.930 . S
C310 C311 1.355 . S
C310 C312 1.415 . S
C311 C310 1.355 . S
C311 C313 1.419 . S
C312 C310 1.415 . S
C312 C317 1.425 . S
C312 C319 1.409 . S
C313 H305 0.930 . S
C313 C311 1.419 . S
C313 C314 1.362 . S
C314 H306 0.930 . S
C314 C313 1.362 . S
C314 C317 1.409 . S
C315 H307 0.930 . S
C315 C316 1.355 . S
C315 C317 1.415 . S
C316 C315 1.355 . S
C316 C318 1.419 . S
C317 C312 1.425 . S
C317 C314 1.409 . S
C317 C315 1.415 . S
C318 H308 0.930 . S
C318 C316 1.419 . S
C318 C319 1.362 . S
C319 H309 0.930 . S
C319 C312 1.409 . S
C319 C318 1.362 . S
H320 C326 0.930 . S
H321 C329 0.930 . S
H322 C330 0.930 . S
H323 C331 0.930 . S
H324 C334 0.930 . S
H325 C335 0.930 . S
C326 H320 0.930 . S
C326 C327 1.355 . S
C326 C328 1.415 . S
C327 C326 1.355 . S
C327 C329 1.419 . S
C328 C326 1.415 . S
C328 C333 1.425 . S
C328 C335 1.409 . S
C329 H321 0.930 . S
C329 C327 1.419 . S
C329 C330 1.362 . S
C330 H322 0.930 . S
C330 C329 1.362 . S
C330 C333 1.409 . S
C331 H323 0.930 . S
C331 C332 1.355 . S
C331 C333 1.415 . S
C332 C331 1.355 . S
C332 C334 1.419 . S
C333 C328 1.425 . S
C333 C330 1.409 . S
C333 C331 1.415 . S
C334 H324 0.930 . S
C334 C332 1.419 . S
C334 C335 1.362 . S
C335 H325 0.930 . S
C335 C328 1.409 . S
C335 C334 1.362 . S
H336 C342 0.930 . S
H337 C345 0.930 . S
H338 C346 0.930 . S
H339 C347 0.930 . S
H340 C350 0.930 . S
H341 C351 0.930 . S
C342 H336 0.930 . S
C342 C343 1.355 . S
C342 C344 1.415 . S
C343 C342 1.355 . S
C343 C345 1.419 . S
C344 C342 1.415 . S
C344 C349 1.425 . S
C344 C351 1.409 . S
C345 H337 0.930 . S
C345 C343 1.419 . S
C345 C346 1.362 . S
C346 H338 0.930 . S
C346 C345 1.362 . S
C346 C349 1.409 . S
C347 H339 0.930 . S
C347 C348 1.355 . S
C347 C349 1.415 . S
C348 C347 1.355 . S
C348 C350 1.419 . S
C349 C344 1.425 . S
C349 C346 1.409 . S
C349 C347 1.415 . S
C350 H340 0.930 . S
C350 C348 1.419 . S
C350 C351 1.362 . S
C351 H341 0.930 . S
C351 C344 1.409 . S
C351 C350 1.362 . S
H352 C358 0.930 1_545 S
H353 C361 0.930 . S
H354 C362 0.930 . S
H355 C363 0.930 . S
H356 C366 0.930 . S
H357 C367 0.930 1_545 S
C358 H352 0.930 1_565 S
C358 C359 1.355 . S
C358 C360 1.415 . S
C359 C358 1.355 . S
C359 C361 1.419 1_455 S
C360 C358 1.415 . S
C360 C365 1.423 1_455 S
C360 C367 1.409 . S
C361 H353 0.930 . S
C361 C359 1.419 1_655 S
C361 C362 1.362 . S
C362 H354 0.930 . S
C362 C361 1.362 . S
C362 C365 1.411 . S
C363 H355 0.930 . S
C363 C364 1.355 1_655 S
C363 C365 1.415 . S
C364 C363 1.355 1_455 S
C364 C366 1.419 . S
C365 C360 1.423 1_655 S
C365 C362 1.411 . S
C365 C363 1.415 . S
C366 H356 0.930 . S
C366 C364 1.419 . S
C366 C367 1.362 . S
C367 H357 0.930 1_565 S
C367 C360 1.409 . S
C367 C366 1.362 . S
H368 C374 0.930 . S
H369 C377 0.930 . S
H370 C378 0.930 . S
H371 C379 0.930 . S
H372 C382 0.930 . S
H373 C383 0.930 . S
C374 H368 0.930 . S
C374 C375 1.355 . S
C374 C376 1.415 1_556 S
C375 C374 1.355 . S
C375 C377 1.419 . S
C376 C374 1.415 1_554 S
C376 C381 1.425 . S
C376 C383 1.409 . S
C377 H369 0.930 . S
C377 C375 1.419 . S
C377 C378 1.362 1_556 S
C378 H370 0.930 . S
C378 C377 1.362 1_554 S
C378 C381 1.409 . S
C379 H371 0.930 . S
C379 C380 1.355 . S
C379 C381 1.415 . S
C380 C379 1.355 . S
C380 C382 1.419 . S
C381 C376 1.425 . S
C381 C378 1.409 . S
C381 C379 1.415 . S
C382 H372 0.930 . S
C382 C380 1.419 . S
C382 C383 1.362 . S
C383 H373 0.930 . S
C383 C376 1.409 . S
C383 C382 1.362 . S
H384 C390 0.930 . S
H385 C393 0.930 . S
H386 C394 0.930 . S
H387 C395 0.930 . S
H388 C398 0.930 . S
H389 C399 0.930 . S
C390 H384 0.930 . S
C390 C391 1.355 1_545 S
C390 C392 1.415 . S
C391 C390 1.355 1_565 S
C391 C393 1.419 . S
C392 C390 1.415 . S
C392 C397 1.425 1_545 S
C392 C399 1.409 . S
C393 H385 0.930 . S
C393 C391 1.419 . S
C393 C394 1.362 . S
C394 H386 0.930 . S
C394 C393 1.362 . S
C394 C397 1.409 . S
C395 H387 0.930 . S
C395 C396 1.355 . S
C395 C397 1.415 . S
C396 C395 1.355 . S
C396 C398 1.419 1_565 S
C397 C392 1.425 1_565 S
C397 C394 1.409 . S
C397 C395 1.415 . S
C398 H388 0.930 . S
C398 C396 1.419 1_545 S
C398 C399 1.362 . S
C399 H389 0.930 . S
C399 C392 1.409 . S
C399 C398 1.362 . S
H400 C406 0.930 . S
H401 C409 0.930 . S
H402 C410 0.930 . S
H403 C411 0.930 . S
H404 C414 0.930 . S
H405 C415 0.930 . S
C406 H400 0.930 . S
C406 C407 1.355 . S
C406 C408 1.415 . S
C407 C406 1.355 . S
C407 C409 1.419 . S
C408 C406 1.415 . S
C408 C413 1.425 . S
C408 C415 1.409 . S
C409 H401 0.930 . S
C409 C407 1.419 . S
C409 C410 1.362 . S
C410 H402 0.930 . S
C410 C409 1.362 . S
C410 C413 1.409 . S
C411 H403 0.930 . S
C411 C412 1.355 . S
C411 C413 1.415 . S
C412 C411 1.355 . S
C412 C414 1.419 . S
C413 C408 1.425 . S
C413 C410 1.409 . S
C413 C411 1.415 . S
C414 H404 0.930 . S
C414 C412 1.419 . S
C414 C415 1.362 . S
C415 H405 0.930 . S
C415 C408 1.409 . S
C415 C414 1.362 . S
H416 C422 0.930 . S
H417 C425 0.930 . S
H418 C426 0.930 . S
H419 C427 0.930 . S
H420 C430 0.930 . S
H421 C431 0.930 . S
C422 H416 0.930 . S
C422 C423 1.355 . S
C422 C424 1.415 . S
C423 C422 1.355 . S
C423 C425 1.419 . S
C424 C422 1.415 . S
C424 C429 1.425 . S
C424 C431 1.409 . S
C425 H417 0.930 . S
C425 C423 1.419 . S
C425 C426 1.362 . S
C426 H418 0.930 . S
C426 C425 1.362 . S
C426 C429 1.409 . S
C427 H419 0.930 . S
C427 C428 1.355 . S
C427 C429 1.415 . S
C428 C427 1.355 . S
C428 C430 1.419 1_655 S
C429 C424 1.425 . S
C429 C426 1.409 . S
C429 C427 1.415 . S
C430 H420 0.930 . S
C430 C428 1.419 1_455 S
C430 C431 1.362 1_455 S
C431 H421 0.930 . S
C431 C424 1.409 . S
C431 C430 1.362 1_655 S
H432 C438 0.930 1_655 S
H433 C441 0.930 . S
H434 C442 0.930 . S
H435 C443 0.930 . S
H436 C446 0.930 . S
H437 C447 0.930 . S
C438 H432 0.930 1_455 S
C438 C439 1.355 1_455 S
C438 C440 1.415 . S
C439 C438 1.355 1_655 S
C439 C441 1.419 . S
C440 C438 1.415 . S
C440 C445 1.425 . S
C440 C447 1.409 . S
C441 H433 0.930 . S
C441 C439 1.419 . S
C441 C442 1.362 1_655 S
C442 H434 0.930 . S
C442 C441 1.362 1_455 S
C442 C445 1.409 . S
C443 H435 0.930 . S
C443 C444 1.355 . S
C443 C445 1.415 . S
C444 C443 1.355 . S
C444 C446 1.419 . S
C445 C440 1.425 . S
C445 C442 1.409 . S
C445 C443 1.415 . S
C446 H436 0.930 . S
C446 C444 1.419 . S
C446 C447 1.362 . S
C447 H437 0.930 . S
C447 C440 1.409 . S
C447 C446 1.362 . S
H448 C454 0.930 . S
H449 C457 0.930 . S
H450 C458 0.930 . S
H451 C459 0.930 . S
H452 C462 0.930 . S
H453 C463 0.930 . S
C454 H448 0.930 . S
C454 C455 1.355 1_554 S
C454 C456 1.415 . S
C455 C454 1.355 1_556 S
C455 C457 1.419 . S
C456 C454 1.415 . S
C456 C461 1.425 1_554 S
C456 C463 1.409 . S
C457 H449 0.930 . S
C457 C455 1.419 . S
C457 C458 1.362 . S
C458 H450 0.930 . S
C458 C457 1.362 . S
C458 C461 1.409 . S
C459 H451 0.930 . S
C459 C460 1.355 1_556 S
C459 C461 1.415 . S
C460 C459 1.355 1_554 S
C460 C462 1.419 . S
C461 C456 1.425 1_556 S
C461 C458 1.409 . S
C461 C459 1.415 . S
C462 H452 0.930 . S
C462 C460 1.419 . S
C462 C463 1.362 . S
C463 H453 0.930 . S
C463 C456 1.409 . S
C463 C462 1.362 . S
H464 C470 0.930 . S
H465 C473 0.930 . S
H466 C474 0.930 . S
H467 C475 0.930 . S
H468 C478 0.930 . S
H469 C479 0.930 . S
C470 H464 0.930 . S
C470 C471 1.355 . S
C470 C472 1.415 . S
C471 C470 1.355 . S
C471 C473 1.419 . S
C472 C470 1.415 . S
C472 C477 1.425 . S
C472 C479 1.409 . S
C473 H465 0.930 . S
C473 C471 1.419 . S
C473 C474 1.362 . S
C474 H466 0.930 . S
C474 C473 1.362 . S
C474 C477 1.409 . S
C475 H467 0.930 . S
C475 C476 1.355 . S
C475 C477 1.415 . S
C476 C475 1.355 . S
C476 C478 1.419 . S
C477 C472 1.425 . S
C477 C474 1.409 . S
C477 C475 1.415 . S
C478 H468 0.930 . S
C478 C476 1.419 . S
C478 C479 1.362 . S
C479 H469 0.930 . S
C479 C472 1.409 . S
C479 C478 1.362 . S
H480 C486 0.930 . S
H481 C489 0.930 . S
H482 C490 0.930 . S
H483 C491 0.930 . S
H484 C494 0.930 . S
H485 C495 0.930 . S
C486 H480 0.930 . S
C486 C487 1.355 . S
C486 C488 1.415 . S
C487 C486 1.355 . S
C487 C489 1.419 . S
C488 C486 1.415 . S
C488 C493 1.425 . S
C488 C495 1.409 . S
C489 H481 0.930 . S
C489 C487 1.419 . S
C489 C490 1.362 . S
C490 H482 0.930 . S
C490 C489 1.362 . S
C490 C493 1.409 . S
C491 H483 0.930 . S
C491 C492 1.355 . S
C491 C493 1.415 . S
C492 C491 1.355 . S
C492 C494 1.419 . S
C493 C488 1.425 . S
C493 C490 1.409 . S
C493 C491 1.415 . S
C494 H484 0.930 . S
C494 C492 1.419 . S
C494 C495 1.362 . S
C495 H485 0.930 . S
C495 C488 1.409 . S
C495 C494 1.362 . S
H496 C502 0.930 . S
H497 C505 0.930 . S
H498 C506 0.930 . S
H499 C507 0.930 . S
H500 C510 0.930 1_655 S
H501 C511 0.930 . S
C502 H496 0.930 . S
C502 C503 1.355 . S
C502 C504 1.415 . S
C503 C502 1.355 . S
C503 C505 1.419 . S
C504 C502 1.415 . S
C504 C509 1.425 . S
C504 C511 1.409 . S
C505 H497 0.930 . S
C505 C503 1.419 . S
C505 C506 1.362 . S
C506 H498 0.930 . S
C506 C505 1.362 . S
C506 C509 1.409 . S
C507 H499 0.930 . S
C507 C508 1.355 . S
C507 C509 1.415 . S
C508 C507 1.355 . S
C508 C510 1.419 . S
C509 C504 1.425 . S
C509 C506 1.409 . S
C509 C507 1.415 . S
C510 H500 0.930 1_455 S
C510 C508 1.419 . S
C510 C511 1.362 . S
C511 H501 0.930 . S
C511 C504 1.409 . S
C511 C510 1.362 . S
H512 C518 0.930 . S
H513 C521 0.930 . S
H514 C522 0.930 . S
H515 C523 0.930 . S
H516 C526 0.930 . S
H517 C527 0.930 . S
C518 H512 0.930 . S
C518 C519 1.355 . S
C518 C520 1.415 . S
C519 C518 1.355 . S
C519 C521 1.419 1_455 S
C520 C518 1.415 . S
C520 C525 1.425 1_455 S
C520 C527 1.409 . S
C521 H513 0.930 . S
C521 C519 1.419 1_655 S
C521 C522 1.362 . S
C522 H514 0.930 . S
C522 C521 1.362 . S
C522 C525 1.409 . S
C523 H515 0.930 . S
C523 C524 1.355 . S
C523 C525 1.415 . S
C524 C523 1.355 . S
C524 C526 1.419 1_655 S
C525 C520 1.425 1_655 S
C525 C522 1.409 . S
C525 C523 1.415 . S
C526 H516 0.930 . S
C526 C524 1.419 1_455 S
C526 C527 1.362 . S
C527 H517 0.930 . S
C527 C520 1.409 . S
C527 C526 1.362 . S
H528 C534 0.930 . S
H529 C537 0.930 . S
H530 C538 0.930 . S
H531 C539 0.930 . S
H532 C542 0.930 . S
H533 C543 0.930 . S
C534 H528 0.930 . S
C534 C535 1.355 . S
C534 C536 1.415 . S
C535 C534 1.355 . S
C535 C537 1.419 . S
C536 C534 1.415 . S
C536 C541 1.425 . S
C536 C543 1.409 . S
C537 H529 0.930 . S
C537 C535 1.419 . S
C537 C538 1.362 . S
C538 H530 0.930 . S
C538 C537 1.362 . S
C538 C541 1.409 . S
C539 H531 0.930 . S
C539 C540 1.355 . S
C539 C541 1.415 . S
C540 C539 1.355 . S
C540 C542 1.419 . S
C541 C536 1.425 . S
C541 C538 1.409 . S
C541 C539 1.415 . S
C542 H532 0.930 . S
C542 C540 1.419 . S
C542 C543 1.362 . S
C543 H533 0.930 . S
C543 C536 1.409 . S
C543 C542 1.362 . S
H544 C550 0.930 . S
H545 C553 0.930 . S
H546 C554 0.930 . S
H547 C555 0.930 . S
H548 C558 0.930 . S
H549 C559 0.930 . S
C550 H544 0.930 . S
C550 C551 1.355 . S
C550 C552 1.415 . S
C551 C550 1.355 . S
C551 C553 1.419 . S
C552 C550 1.415 . S
C552 C557 1.425 . S
C552 C559 1.409 . S
C553 H545 0.930 . S
C553 C551 1.419 . S
C553 C554 1.362 . S
C554 H546 0.930 . S
C554 C553 1.362 . S
C554 C557 1.409 . S
C555 H547 0.930 . S
C555 C556 1.355 . S
C555 C557 1.415 1_565 S
C556 C555 1.355 . S
C556 C558 1.419 . S
C557 C552 1.425 . S
C557 C554 1.409 . S
C557 C555 1.415 1_545 S
C558 H548 0.930 . S
C558 C556 1.419 . S
C558 C559 1.362 1_565 S
C559 H549 0.930 . S
C559 C552 1.409 . S
C559 C558 1.362 1_545 S
H560 C566 0.930 . S
H561 C569 0.930 . S
H562 C570 0.930 . S
H563 C571 0.930 . S
H564 C574 0.930 . S
H565 C575 0.930 . S
C566 H560 0.930 . S
C566 C567 1.355 . S
C566 C568 1.415 . S
C567 C566 1.355 . S
C567 C569 1.419 1_554 S
C568 C566 1.415 . S
C568 C573 1.425 1_554 S
C568 C575 1.409 . S
C569 H561 0.930 . S
C569 C567 1.419 1_556 S
C569 C570 1.362 . S
C570 H562 0.930 . S
C570 C569 1.362 . S
C570 C573 1.409 . S
C571 H563 0.930 . S
C571 C572 1.355 1_556 S
C571 C573 1.415 . S
C572 C571 1.355 1_554 S
C572 C574 1.419 . S
C573 C568 1.425 1_556 S
C573 C570 1.409 . S
C573 C571 1.415 . S
C574 H564 0.930 . S
C574 C572 1.419 . S
C574 C575 1.362 . S
C575 H565 0.930 . S
C575 C568 1.409 . S
C575 C574 1.362 . S
H576 C582 0.930 . S
H577 C585 0.930 . S
H578 C586 0.930 1_455 S
H579 C587 0.944 . S
H580 C590 0.930 . S
H581 C591 0.930 . S
C582 H576 0.930 . S
C582 C583 1.355 . S
C582 C584 1.415 . S
C583 C582 1.355 . S
C583 C585 1.419 . S
C584 C582 1.415 . S
C584 C589 1.425 . S
C584 C591 1.409 1_545 S
C585 H577 0.930 . S
C585 C583 1.419 . S
C585 C586 1.362 . S
C586 H578 0.930 1_655 S
C586 C585 1.362 . S
C586 C589 1.409 . S
C587 H579 0.944 . S
C587 C588 1.355 . S
C587 C589 1.415 1_565 S
C588 C587 1.355 . S
C588 C590 1.419 . S
C589 C584 1.425 . S
C589 C586 1.409 . S
C589 C587 1.415 1_545 S
C590 H580 0.930 . S
C590 C588 1.419 . S
C590 C591 1.362 . S
C591 H581 0.930 . S
C591 C584 1.409 1_565 S
C591 C590 1.362 . S
H592 C598 0.930 . S
H593 C601 0.921 1_554 S
H594 C602 0.924 1_554 S
H595 C603 0.930 . S
H596 C606 0.930 . S
H597 C607 0.930 . S
C598 H592 0.930 . S
C598 C599 1.355 1_545 S
C598 C600 1.415 . S
C599 C598 1.355 1_565 S
C599 C601 1.432 . S
C600 C598 1.415 . S
C600 C605 1.425 1_545 S
C600 C607 1.409 . S
C601 H593 0.921 1_556 S
C601 C599 1.432 . S
C601 C602 1.360 . S
C602 H594 0.924 1_556 S
C602 C601 1.360 . S
C602 C605 1.414 . S
C603 H595 0.930 . S
C603 C604 1.355 . S
C603 C605 1.415 . S
C604 C603 1.355 . S
C604 C606 1.419 1_565 S
C605 C600 1.425 1_565 S
C605 C602 1.414 . S
C605 C603 1.415 . S
C606 H596 0.930 . S
C606 C604 1.419 1_545 S
C606 C607 1.362 . S
C607 H597 0.930 . S
C607 C600 1.409 . S
C607 C606 1.362 . S
H608 C614 0.930 . S
H609 C617 0.930 . S
H610 C618 0.930 . S
H611 C619 0.930 . S
H612 C622 0.930 . S
H613 C623 0.930 . S
C614 H608 0.930 . S
C614 C615 1.355 . S
C614 C616 1.415 . S
C615 C614 1.355 . S
C615 C617 1.419 . S
C616 C614 1.415 . S
C616 C621 1.425 . S
C616 C623 1.409 . S
C617 H609 0.930 . S
C617 C615 1.419 . S
C617 C618 1.362 . S
C618 H610 0.930 . S
C618 C617 1.362 . S
C618 C621 1.409 . S
C619 H611 0.930 . S
C619 C620 1.355 . S
C619 C621 1.415 . S
C620 C619 1.355 . S
C620 C622 1.419 . S
C621 C616 1.425 . S
C621 C618 1.409 . S
C621 C619 1.415 . S
C622 H612 0.930 . S
C622 C620 1.419 . S
C622 C623 1.362 . S
C623 H613 0.930 . S
C623 C616 1.409 . S
C623 C622 1.362 . S
H624 C630 0.930 . S
H625 C633 0.930 . S
H626 C634 0.930 . S
H627 C635 0.930 . S
H628 C638 0.930 . S
H629 C639 0.930 . S
C630 H624 0.930 . S
C630 C631 1.355 . S
C630 C632 1.415 . S
C631 C630 1.355 . S
C631 C633 1.419 . S
C632 C630 1.415 . S
C632 C637 1.425 . S
C632 C639 1.409 . S
C633 H625 0.930 . S
C633 C631 1.419 . S
C633 C634 1.362 . S
C634 H626 0.930 . S
C634 C633 1.362 . S
C634 C637 1.409 . S
C635 H627 0.930 . S
C635 C636 1.355 . S
C635 C637 1.415 . S
C636 C635 1.355 . S
C636 C638 1.419 . S
C637 C632 1.425 . S
C637 C634 1.409 . S
C637 C635 1.415 . S
C638 H628 0.930 . S
C638 C636 1.419 . S
C638 C639 1.362 . S
C639 H629 0.930 . S
C639 C632 1.409 . S
C639 C638 1.362 . S
H640 C646 0.930 . S
H641 C649 0.930 . S
H642 C650 0.930 . S
H643 C651 0.930 . S
H644 C654 0.930 . S
H645 C655 0.930 . S
C646 H640 0.930 . S
C646 C647 1.355 . S
C646 C648 1.415 1_556 S
C647 C646 1.355 . S
C647 C649 1.419 . S
C648 C646 1.415 1_554 S
C648 C653 1.425 . S
C648 C655 1.409 . S
C649 H641 0.930 . S
C649 C647 1.419 . S
C649 C650 1.362 . S
C650 H642 0.930 . S
C650 C649 1.362 . S
C650 C653 1.409 1_556 S
C651 H643 0.930 . S
C651 C652 1.355 . S
C651 C653 1.415 . S
C652 C651 1.355 . S
C652 C654 1.419 . S
C653 C648 1.425 . S
C653 C650 1.409 1_554 S
C653 C651 1.415 . S
C654 H644 0.930 . S
C654 C652 1.419 . S
C654 C655 1.362 . S
C655 H645 0.930 . S
C655 C648 1.409 . S
C655 C654 1.362 . S
H656 C662 0.930 . S
H657 C665 0.930 . S
H658 C666 0.930 . S
H659 C667 0.930 . S
H660 C670 0.930 . S
H661 C671 0.930 . S
C662 H656 0.930 . S
C662 C663 1.355 . S
C662 C664 1.415 . S
C663 C662 1.355 . S
C663 C665 1.419 . S
C664 C662 1.415 . S
C664 C669 1.425 . S
C664 C671 1.409 . S
C665 H657 0.930 . S
C665 C663 1.419 . S
C665 C666 1.362 . S
C666 H658 0.930 . S
C666 C665 1.362 . S
C666 C669 1.409 . S
C667 H659 0.930 . S
C667 C668 1.355 . S
C667 C669 1.415 . S
C668 C667 1.355 . S
C668 C670 1.419 . S
C669 C664 1.425 . S
C669 C666 1.409 . S
C669 C667 1.415 . S
C670 H660 0.930 . S
C670 C668 1.419 . S
C670 C671 1.362 . S
C671 H661 0.930 . S
C671 C664 1.409 . S
C671 C670 1.362 . S
H672 C678 0.930 . S
H673 C681 0.930 . S
H674 C682 0.930 . S
H675 C683 0.930 . S
H676 C686 0.930 . S
H677 C687 0.930 . S
C678 H672 0.930 . S
C678 C679 1.355 . S
C678 C680 1.415 . S
C679 C678 1.355 . S
C679 C681 1.419 . S
C680 C678 1.415 . S
C680 C685 1.425 . S
C680 C687 1.409 . S
C681 H673 0.930 . S
C681 C679 1.419 . S
C681 C682 1.362 . S
C682 H674 0.930 . S
C682 C681 1.362 . S
C682 C685 1.409 . S
C683 H675 0.930 . S
C683 C684 1.355 . S
C683 C685 1.415 . S
C684 C683 1.355 . S
C684 C686 1.419 . S
C685 C680 1.425 . S
C685 C682 1.409 . S
C685 C683 1.415 . S
C686 H676 0.930 . S
C686 C684 1.419 . S
C686 C687 1.362 . S
C687 H677 0.930 . S
C687 C680 1.409 . S
C687 C686 1.362 . S
H688 C694 0.930 . S
H689 C697 0.930 . S
H690 C698 0.930 . S
H691 C699 0.930 . S
H692 C702 0.930 . S
H693 C703 0.930 . S
C694 H688 0.930 . S
C694 C695 1.355 . S
C694 C696 1.415 . S
C695 C694 1.355 . S
C695 C697 1.419 . S
C696 C694 1.415 . S
C696 C701 1.425 . S
C696 C703 1.409 . S
C697 H689 0.930 . S
C697 C695 1.419 . S
C697 C698 1.362 . S
C698 H690 0.930 . S
C698 C697 1.362 . S
C698 C701 1.409 . S
C699 H691 0.930 . S
C699 C700 1.355 . S
C699 C701 1.415 . S
C700 C699 1.355 . S
C700 C702 1.419 . S
C701 C696 1.425 . S
C701 C698 1.409 . S
C701 C699 1.415 . S
C702 H692 0.930 . S
C702 C700 1.419 . S
C702 C703 1.362 . S
C703 H693 0.930 . S
C703 C696 1.409 . S
C703 C702 1.362 . S
H704 C710 0.930 . S
H705 C713 0.930 . S
H706 C714 0.930 . S
H707 C715 0.930 . S
H708 C718 0.930 . S
H709 C719 0.930 . S
C710 H704 0.930 . S
C710 C711 1.355 1_545 S
C710 C712 1.415 . S
C711 C710 1.355 1_565 S
C711 C713 1.419 . S
C712 C710 1.415 . S
C712 C717 1.425 1_545 S
C712 C719 1.409 . S
C713 H705 0.930 . S
C713 C711 1.419 . S
C713 C714 1.362 . S
C714 H706 0.930 . S
C714 C713 1.362 . S
C714 C717 1.409 . S
C715 H707 0.930 . S
C715 C716 1.355 1_565 S
C715 C717 1.415 . S
C716 C715 1.355 1_545 S
C716 C718 1.419 . S
C717 C712 1.425 1_565 S
C717 C714 1.409 . S
C717 C715 1.415 . S
C718 H708 0.930 . S
C718 C716 1.419 . S
C718 C719 1.362 . S
C719 H709 0.930 . S
C719 C712 1.409 . S
C719 C718 1.362 . S
C215 C10 1.887 . S
C220 C95 1.871 1_554 S
C231 C17 1.879 . S
C236 C56 1.881 . S
C247 C75 1.883 . S
C252 C30 1.909 . S
C263 C49 1.899 . S
C268 C88 1.873 . S
C279 C114 1.851 . S
C284 C166 1.852 . S
C295 C121 1.896 1_554 S
C300 C186 1.927 . S
C311 C147 1.910 . S
C316 C140 1.869 . S
C327 C205 1.797 . S
C332 C173 1.781 . S
C343 C3 1.362 . S
C348 C81 1.381 . S
C359 C94 0.889 . S
C364 C23 0.926 . S
C375 C31 1.689 . S
C380 C55 1.683 . S
C391 C70 1.186 . S
C396 C44 1.178 . S
C407 C4 1.647 . S
C412 C192 1.647 . S
C423 C148 1.694 . S
C428 C16 1.682 . S
C439 C179 1.551 . S
C444 C36 1.564 . S
C455 C161 1.681 1_556 S
C460 C42 1.657 . S
C471 C134 1.262 . S
C476 C57 1.273 . S
C487 C68 1.337 . S
C492 C198 1.321 . S
C503 C82 1.148 . S
C508 C107 1.187 1_455 S
C519 C96 1.323 . S
C524 C122 1.331 . S
C535 C5 1.005 . S
C540 C62 0.995 . S
C551 C108 1.025 . S
C556 C172 1.013 . S
C567 C159 1.102 . S
C572 C127 1.077 1_554 S
C583 C185 1.179 . S
C588 C135 1.065 . S
C599 C101 1.427 . S
C604 C43 1.434 . S
C615 C29 1.223 . S
C620 C83 1.221 . S
C631 C153 1.576 . S
C636 C199 1.564 . S
C647 C174 1.327 . S
C652 C133 1.336 . S
C663 C200 0.870 . S
C668 C160 0.924 . S
C679 C187 1.720 . S
C684 C109 1.720 . S
C695 C146 1.192 . S
C700 C120 1.115 . S
C711 C18 1.253 1_565 S
C716 C69 1.235 . S
