# Generated by pormake.
# Topology wip, (6)-cn, num edge types: 1
# Building blocks:
#     Node 0, Type 0, BuildingBlock: PAMTOO_clean_sbu_0, # of connection points: 6
#     Node 1, Type 0, BuildingBlock: PAMTOO_clean_sbu_0, # of connection points: 6
#     Node 2, Type 0, BuildingBlock: PAMTOO_clean_sbu_0, # of connection points: 6
#     Node 3, Type 0, BuildingBlock: PAMTOO_clean_sbu_0, # of connection points: 6
#     Node 4, Type 0, BuildingBlock: PAMTOO_clean_sbu_0, # of connection points: 6
#     Node 5, Type 0, BuildingBlock: PAMTOO_clean_sbu_0, # of connection points: 6
#     Node 6, Type 0, BuildingBlock: PAMTOO_clean_sbu_0, # of connection points: 6
#     Node 7, Type 0, BuildingBlock: PAMTOO_clean_sbu_0, # of connection points: 6
#     Node 8, Type 0, BuildingBlock: PAMTOO_clean_sbu_0, # of connection points: 6
#     Node 9, Type 0, BuildingBlock: PAMTOO_clean_sbu_0, # of connection points: 6
#     Node 10, Type 0, BuildingBlock: PAMTOO_clean_sbu_0, # of connection points: 6
#     Node 11, Type 0, BuildingBlock: PAMTOO_clean_sbu_0, # of connection points: 6
#     Node 12, Type 0, BuildingBlock: PAMTOO_clean_sbu_0, # of connection points: 6
#     Node 13, Type 0, BuildingBlock: PAMTOO_clean_sbu_0, # of connection points: 6
#     Node 14, Type 0, BuildingBlock: PAMTOO_clean_sbu_0, # of connection points: 6
#     Node 15, Type 0, BuildingBlock: PAMTOO_clean_sbu_0, # of connection points: 6
#     Node 16, Type 0, BuildingBlock: PAMTOO_clean_sbu_0, # of connection points: 6
#     Node 17, Type 0, BuildingBlock: PAMTOO_clean_sbu_0, # of connection points: 6
#     Node 18, Type 0, BuildingBlock: PAMTOO_clean_sbu_0, # of connection points: 6
#     Node 19, Type 0, BuildingBlock: PAMTOO_clean_sbu_0, # of connection points: 6
#     Node 20, Type 0, BuildingBlock: PAMTOO_clean_sbu_0, # of connection points: 6
#     Node 21, Type 0, BuildingBlock: PAMTOO_clean_sbu_0, # of connection points: 6
#     Node 22, Type 0, BuildingBlock: PAMTOO_clean_sbu_0, # of connection points: 6
#     Node 23, Type 0, BuildingBlock: PAMTOO_clean_sbu_0, # of connection points: 6
#     Node 24, Type 0, BuildingBlock: PAMTOO_clean_sbu_0, # of connection points: 6
#     Node 25, Type 0, BuildingBlock: PAMTOO_clean_sbu_0, # of connection points: 6
#     Node 26, Type 0, BuildingBlock: PAMTOO_clean_sbu_0, # of connection points: 6
#     Node 27, Type 0, BuildingBlock: PAMTOO_clean_sbu_0, # of connection points: 6
#     Node 28, Type 0, BuildingBlock: PAMTOO_clean_sbu_0, # of connection points: 6
#     Node 29, Type 0, BuildingBlock: PAMTOO_clean_sbu_0, # of connection points: 6
#     Node 30, Type 0, BuildingBlock: PAMTOO_clean_sbu_0, # of connection points: 6
#     Node 31, Type 0, BuildingBlock: PAMTOO_clean_sbu_0, # of connection points: 6
#     Edge 32, Type (0, 0), BuildingBlock: OJICUG_clean_linker_0, # of connection points: 2
#     Edge 33, Type (0, 0), BuildingBlock: OJICUG_clean_linker_0, # of connection points: 2
#     Edge 34, Type (0, 0), BuildingBlock: OJICUG_clean_linker_0, # of connection points: 2
#     Edge 35, Type (0, 0), BuildingBlock: OJICUG_clean_linker_0, # of connection points: 2
#     Edge 36, Type (0, 0), BuildingBlock: OJICUG_clean_linker_0, # of connection points: 2
#     Edge 37, Type (0, 0), BuildingBlock: OJICUG_clean_linker_0, # of connection points: 2
#     Edge 38, Type (0, 0), BuildingBlock: OJICUG_clean_linker_0, # of connection points: 2
#     Edge 39, Type (0, 0), BuildingBlock: OJICUG_clean_linker_0, # of connection points: 2
#     Edge 40, Type (0, 0), BuildingBlock: OJICUG_clean_linker_0, # of connection points: 2
#     Edge 41, Type (0, 0), BuildingBlock: OJICUG_clean_linker_0, # of connection points: 2
#     Edge 42, Type (0, 0), BuildingBlock: OJICUG_clean_linker_0, # of connection points: 2
#     Edge 43, Type (0, 0), BuildingBlock: OJICUG_clean_linker_0, # of connection points: 2
#     Edge 44, Type (0, 0), BuildingBlock: OJICUG_clean_linker_0, # of connection points: 2
#     Edge 45, Type (0, 0), BuildingBlock: OJICUG_clean_linker_0, # of connection points: 2
#     Edge 46, Type (0, 0), BuildingBlock: OJICUG_clean_linker_0, # of connection points: 2
#     Edge 47, Type (0, 0), BuildingBlock: OJICUG_clean_linker_0, # of connection points: 2
#     Edge 48, Type (0, 0), BuildingBlock: OJICUG_clean_linker_0, # of connection points: 2
#     Edge 49, Type (0, 0), BuildingBlock: OJICUG_clean_linker_0, # of connection points: 2
#     Edge 50, Type (0, 0), BuildingBlock: OJICUG_clean_linker_0, # of connection points: 2
#     Edge 51, Type (0, 0), BuildingBlock: OJICUG_clean_linker_0, # of connection points: 2
#     Edge 52, Type (0, 0), BuildingBlock: OJICUG_clean_linker_0, # of connection points: 2
#     Edge 53, Type (0, 0), BuildingBlock: OJICUG_clean_linker_0, # of connection points: 2
#     Edge 54, Type (0, 0), BuildingBlock: OJICUG_clean_linker_0, # of connection points: 2
#     Edge 55, Type (0, 0), BuildingBlock: OJICUG_clean_linker_0, # of connection points: 2
#     Edge 56, Type (0, 0), BuildingBlock: OJICUG_clean_linker_0, # of connection points: 2
#     Edge 57, Type (0, 0), BuildingBlock: OJICUG_clean_linker_0, # of connection points: 2
#     Edge 58, Type (0, 0), BuildingBlock: OJICUG_clean_linker_0, # of connection points: 2
#     Edge 59, Type (0, 0), BuildingBlock: OJICUG_clean_linker_0, # of connection points: 2
#     Edge 60, Type (0, 0), BuildingBlock: OJICUG_clean_linker_0, # of connection points: 2
#     Edge 61, Type (0, 0), BuildingBlock: OJICUG_clean_linker_0, # of connection points: 2
#     Edge 62, Type (0, 0), BuildingBlock: OJICUG_clean_linker_0, # of connection points: 2
#     Edge 63, Type (0, 0), BuildingBlock: OJICUG_clean_linker_0, # of connection points: 2
#     Edge 64, Type (0, 0), BuildingBlock: OJICUG_clean_linker_0, # of connection points: 2
#     Edge 65, Type (0, 0), BuildingBlock: OJICUG_clean_linker_0, # of connection points: 2
#     Edge 66, Type (0, 0), BuildingBlock: OJICUG_clean_linker_0, # of connection points: 2
#     Edge 67, Type (0, 0), BuildingBlock: OJICUG_clean_linker_0, # of connection points: 2
#     Edge 68, Type (0, 0), BuildingBlock: OJICUG_clean_linker_0, # of connection points: 2
#     Edge 69, Type (0, 0), BuildingBlock: OJICUG_clean_linker_0, # of connection points: 2
#     Edge 70, Type (0, 0), BuildingBlock: OJICUG_clean_linker_0, # of connection points: 2
#     Edge 71, Type (0, 0), BuildingBlock: OJICUG_clean_linker_0, # of connection points: 2
#     Edge 72, Type (0, 0), BuildingBlock: OJICUG_clean_linker_0, # of connection points: 2
#     Edge 73, Type (0, 0), BuildingBlock: OJICUG_clean_linker_0, # of connection points: 2
#     Edge 74, Type (0, 0), BuildingBlock: OJICUG_clean_linker_0, # of connection points: 2
#     Edge 75, Type (0, 0), BuildingBlock: OJICUG_clean_linker_0, # of connection points: 2
#     Edge 76, Type (0, 0), BuildingBlock: OJICUG_clean_linker_0, # of connection points: 2
#     Edge 77, Type (0, 0), BuildingBlock: OJICUG_clean_linker_0, # of connection points: 2
#     Edge 78, Type (0, 0), BuildingBlock: OJICUG_clean_linker_0, # of connection points: 2
#     Edge 79, Type (0, 0), BuildingBlock: OJICUG_clean_linker_0, # of connection points: 2
#     Edge 80, Type (0, 0), BuildingBlock: OJICUG_clean_linker_0, # of connection points: 2
#     Edge 81, Type (0, 0), BuildingBlock: OJICUG_clean_linker_0, # of connection points: 2
#     Edge 82, Type (0, 0), BuildingBlock: OJICUG_clean_linker_0, # of connection points: 2
#     Edge 83, Type (0, 0), BuildingBlock: OJICUG_clean_linker_0, # of connection points: 2
#     Edge 84, Type (0, 0), BuildingBlock: OJICUG_clean_linker_0, # of connection points: 2
#     Edge 85, Type (0, 0), BuildingBlock: OJICUG_clean_linker_0, # of connection points: 2
#     Edge 86, Type (0, 0), BuildingBlock: OJICUG_clean_linker_0, # of connection points: 2
#     Edge 87, Type (0, 0), BuildingBlock: OJICUG_clean_linker_0, # of connection points: 2
#     Edge 88, Type (0, 0), BuildingBlock: OJICUG_clean_linker_0, # of connection points: 2
#     Edge 89, Type (0, 0), BuildingBlock: OJICUG_clean_linker_0, # of connection points: 2
#     Edge 90, Type (0, 0), BuildingBlock: OJICUG_clean_linker_0, # of connection points: 2
#     Edge 91, Type (0, 0), BuildingBlock: OJICUG_clean_linker_0, # of connection points: 2
#     Edge 92, Type (0, 0), BuildingBlock: OJICUG_clean_linker_0, # of connection points: 2
#     Edge 93, Type (0, 0), BuildingBlock: OJICUG_clean_linker_0, # of connection points: 2
#     Edge 94, Type (0, 0), BuildingBlock: OJICUG_clean_linker_0, # of connection points: 2
#     Edge 95, Type (0, 0), BuildingBlock: OJICUG_clean_linker_0, # of connection points: 2
#     Edge 96, Type (0, 0), BuildingBlock: OJICUG_clean_linker_0, # of connection points: 2
#     Edge 97, Type (0, 0), BuildingBlock: OJICUG_clean_linker_0, # of connection points: 2
#     Edge 98, Type (0, 0), BuildingBlock: OJICUG_clean_linker_0, # of connection points: 2
#     Edge 99, Type (0, 0), BuildingBlock: OJICUG_clean_linker_0, # of connection points: 2
#     Edge 100, Type (0, 0), BuildingBlock: OJICUG_clean_linker_0, # of connection points: 2
#     Edge 101, Type (0, 0), BuildingBlock: OJICUG_clean_linker_0, # of connection points: 2
#     Edge 102, Type (0, 0), BuildingBlock: OJICUG_clean_linker_0, # of connection points: 2
#     Edge 103, Type (0, 0), BuildingBlock: OJICUG_clean_linker_0, # of connection points: 2
#     Edge 104, Type (0, 0), BuildingBlock: OJICUG_clean_linker_0, # of connection points: 2
#     Edge 105, Type (0, 0), BuildingBlock: OJICUG_clean_linker_0, # of connection points: 2
#     Edge 106, Type (0, 0), BuildingBlock: OJICUG_clean_linker_0, # of connection points: 2
#     Edge 107, Type (0, 0), BuildingBlock: OJICUG_clean_linker_0, # of connection points: 2
#     Edge 108, Type (0, 0), BuildingBlock: OJICUG_clean_linker_0, # of connection points: 2
#     Edge 109, Type (0, 0), BuildingBlock: OJICUG_clean_linker_0, # of connection points: 2
#     Edge 110, Type (0, 0), BuildingBlock: OJICUG_clean_linker_0, # of connection points: 2
#     Edge 111, Type (0, 0), BuildingBlock: OJICUG_clean_linker_0, # of connection points: 2
#     Edge 112, Type (0, 0), BuildingBlock: OJICUG_clean_linker_0, # of connection points: 2
#     Edge 113, Type (0, 0), BuildingBlock: OJICUG_clean_linker_0, # of connection points: 2
#     Edge 114, Type (0, 0), BuildingBlock: OJICUG_clean_linker_0, # of connection points: 2
#     Edge 115, Type (0, 0), BuildingBlock: OJICUG_clean_linker_0, # of connection points: 2
#     Edge 116, Type (0, 0), BuildingBlock: OJICUG_clean_linker_0, # of connection points: 2
#     Edge 117, Type (0, 0), BuildingBlock: OJICUG_clean_linker_0, # of connection points: 2
#     Edge 118, Type (0, 0), BuildingBlock: OJICUG_clean_linker_0, # of connection points: 2
#     Edge 119, Type (0, 0), BuildingBlock: OJICUG_clean_linker_0, # of connection points: 2
#     Edge 120, Type (0, 0), BuildingBlock: OJICUG_clean_linker_0, # of connection points: 2
#     Edge 121, Type (0, 0), BuildingBlock: OJICUG_clean_linker_0, # of connection points: 2
#     Edge 122, Type (0, 0), BuildingBlock: OJICUG_clean_linker_0, # of connection points: 2
#     Edge 123, Type (0, 0), BuildingBlock: OJICUG_clean_linker_0, # of connection points: 2
#     Edge 124, Type (0, 0), BuildingBlock: OJICUG_clean_linker_0, # of connection points: 2
#     Edge 125, Type (0, 0), BuildingBlock: OJICUG_clean_linker_0, # of connection points: 2
#     Edge 126, Type (0, 0), BuildingBlock: OJICUG_clean_linker_0, # of connection points: 2
#     Edge 127, Type (0, 0), BuildingBlock: OJICUG_clean_linker_0, # of connection points: 2
# Relax obj value: 0.554
# Max RMSD: 0.305
# Mean RMSD: 0.238
data_MOF--net-wip--node1-PAMTOO_clean_sbu_0--edge1-OJICUG_clean_linker_0
_symmetry_space_group_name_H-M    P1
_symmetry_Int_Tables_number       1
_symmetry_cell_setting            triclinic
loop_
_symmetry_equiv_pos_as_xyz
'x, y, z'
_cell_length_a     48.438913
_cell_length_b     46.562922
_cell_length_c     26.355754
_cell_angle_alpha  95.112224
_cell_angle_beta   84.492549
_cell_angle_gamma 91.146994
loop_
_atom_site_label
_atom_site_type_symbol
_atom_site_fract_x
_atom_site_fract_y
_atom_site_fract_z
_atom_type_partial_charge
Dy0 Dy 0.0782 0.45332 0.31377 0.0
Dy1 Dy 0.0531 0.39462 0.26262 0.0
C2 C 0.10111 0.3958 0.33784 0.0
O3 O 0.07877 0.46135 0.23146 0.0
O4 O 0.07764 0.4151 0.19536 0.0
O5 O 0.11596 0.47865 0.31276 0.0
O6 O 0.07838 0.49451 0.3572 0.0
O7 O 0.0272 0.42921 0.23895 0.0
O8 O 0.03481 0.46349 0.30425 0.0
O9 O 0.02557 0.40369 0.33612 0.0
O10 O 0.05488 0.43342 0.38165 0.0
O11 O 0.02025 0.36443 0.24658 0.0
O12 O 0.06314 0.35334 0.22158 0.0
C13 C 0.08114 0.44311 0.19063 0.0
O14 O 0.10884 0.41878 0.31534 0.0
O15 O 0.07796 0.38309 0.32622 0.0
C16 C 0.12022 0.50727 0.38885 0.0
C17 C 0.12462 0.52885 0.48882 0.0
C18 C 0.1292 0.54728 0.44941 0.0
C19 C 0.12664 0.53645 0.39918 0.0
C20 C 0.12149 0.48807 0.42647 0.0
C21 C 0.1239 0.49888 0.47667 0.0
C22 C 0.10487 0.49878 0.34541 0.0
C23 C 0.02149 0.4541 0.26508 0.0
C24 C 0.03248 0.41652 0.37993 0.0
C25 C 0.02892 0.33706 0.16817 0.0
C26 C 0.01212 0.32005 0.07084 0.0
C27 C 0.01495 0.34944 0.0872 0.0
C28 C 0.02338 0.35787 0.13538 0.0
C29 C 0.02641 0.30769 0.15203 0.0
C30 C 0.01818 0.29919 0.10342 0.0
C31 C 0.037 0.34616 0.21926 0.0
H32 H 0.13048 0.5704 0.45814 0.0
H33 H 0.12607 0.55135 0.36997 0.0
H34 H 0.11665 0.4654 0.41854 0.0
H35 H 0.12071 0.48416 0.50635 0.0
H36 H 0.01101 0.36595 0.0624 0.0
H37 H 0.0255 0.38065 0.14715 0.0
H38 H 0.03071 0.29141 0.17703 0.0
H39 H 0.01623 0.27643 0.09152 0.0
Dy40 Dy 0.77617 0.86114 0.45269 0.0
Dy41 Dy 0.82526 0.82495 0.38694 0.0
C42 C 0.83755 0.87178 0.48872 0.0
O43 O 0.77269 0.87137 0.37093 0.0
O44 O 0.78933 0.82839 0.33897 0.0
O45 O 0.75594 0.90222 0.46831 0.0
O46 O 0.73893 0.86503 0.50492 0.0
O47 O 0.79452 0.79077 0.4041 0.0
O48 O 0.75628 0.8184 0.43354 0.0
O49 O 0.82659 0.80479 0.45892 0.0
O50 O 0.79296 0.83259 0.50857 0.0
O51 O 0.85009 0.78896 0.35219 0.0
O52 O 0.85237 0.8294 0.31708 0.0
C53 C 0.77433 0.8507 0.3338 0.0
O54 O 0.81317 0.88283 0.48485 0.0
O55 O 0.84762 0.85157 0.45239 0.0
C56 C 0.73929 0.90907 0.55547 0.0
C57 C 0.74655 0.92849 0.65744 0.0
C58 C 0.76596 0.93595 0.61761 0.0
C59 C 0.76246 0.92615 0.56712 0.0
C60 C 0.71861 0.90386 0.59459 0.0
C61 C 0.72221 0.91346 0.64527 0.0
C62 C 0.73882 0.89305 0.50489 0.0
C63 C 0.76847 0.79328 0.42256 0.0
C64 C 0.81191 0.81196 0.50274 0.0
C65 C 0.8507 0.78548 0.26103 0.0
C66 C 0.83781 0.7531 0.1674 0.0
C67 C 0.81689 0.76125 0.20698 0.0
C68 C 0.82324 0.77698 0.25289 0.0
C69 C 0.87163 0.77746 0.22189 0.0
C70 C 0.86535 0.76155 0.17608 0.0
C71 C 0.85754 0.80162 0.31063 0.0
H72 H 0.78469 0.9479 0.62574 0.0
H73 H 0.77872 0.9306 0.53765 0.0
H74 H 0.70063 0.89065 0.58641 0.0
H75 H 0.70696 0.90709 0.67509 0.0
H76 H 0.79539 0.75579 0.2025 0.0
H77 H 0.80655 0.78236 0.28227 0.0
H78 H 0.89302 0.78327 0.22689 0.0
H79 H 0.88239 0.75549 0.14778 0.0
Dy80 Dy 0.38089 0.5019 0.71707 0.0
Dy81 Dy 0.4278 0.54763 0.66781 0.0
C82 C 0.37725 0.56857 0.74797 0.0
O83 O 0.38363 0.49178 0.6305 0.0
O84 O 0.39813 0.53633 0.60742 0.0
O85 O 0.33812 0.48769 0.71781 0.0
O86 O 0.36558 0.46875 0.7653 0.0
O87 O 0.43646 0.50146 0.6434 0.0
O88 O 0.41988 0.47742 0.7098 0.0
O89 O 0.44293 0.5402 0.7433 0.0
O90 O 0.40383 0.52072 0.78555 0.0
O91 O 0.47113 0.55712 0.64953 0.0
O92 O 0.43976 0.58393 0.62435 0.0
C93 C 0.3881 0.51028 0.59525 0.0
O94 O 0.36422 0.54663 0.72597 0.0
O95 O 0.40329 0.57377 0.73239 0.0
C96 C 0.32051 0.4788 0.80164 0.0
C97 C 0.29619 0.49597 0.90057 0.0
C98 C 0.29905 0.5156 0.86299 0.0
C99 C 0.31105 0.5071 0.81392 0.0
C100 C 0.31531 0.45843 0.83754 0.0
C101 C 0.30315 0.46692 0.88669 0.0
C102 C 0.33994 0.47201 0.75596 0.0
C103 C 0.44062 0.48337 0.67695 0.0
C104 C 0.42926 0.53227 0.78564 0.0
C105 C 0.48027 0.57317 0.56805 0.0
C106 C 0.50916 0.56096 0.47044 0.0
C107 C 0.52288 0.57417 0.51124 0.0
C108 C 0.50854 0.58019 0.55963 0.0
C109 C 0.46655 0.55985 0.52753 0.0
C110 C 0.48082 0.55383 0.47922 0.0
C111 C 0.46606 0.57709 0.62013 0.0
H112 H 0.29375 0.53798 0.87268 0.0
H113 H 0.31466 0.52317 0.78675 0.0
H114 H 0.32253 0.4365 0.82884 0.0
H115 H 0.30152 0.45129 0.91494 0.0
H116 H 0.54461 0.58017 0.50563 0.0
H117 H 0.5196 0.59006 0.59066 0.0
H118 H 0.44487 0.55375 0.53339 0.0
H119 H 0.46973 0.54324 0.44887 0.0
Dy120 Dy 0.70381 0.13747 0.93413 0.0
Dy121 Dy 0.65844 0.17751 0.89487 0.0
C122 C 0.642 0.1341 0.99098 0.0
O123 O 0.70665 0.12589 0.84807 0.0
O124 O 0.69432 0.1702 0.83368 0.0
O125 O 0.7181 0.09411 0.93689 0.0
O126 O 0.74177 0.13042 0.9678 0.0
O127 O 0.69175 0.2091 0.90964 0.0
O128 O 0.72713 0.17841 0.92113 0.0
O129 O 0.65838 0.1987 0.97301 0.0
O130 O 0.68987 0.16881 1.00322 0.0
O131 O 0.63667 0.21525 0.87823 0.0
O132 O 0.63157 0.17472 0.83278 0.0
C133 C 0.70713 0.14635 0.81697 0.0
O134 O 0.66556 0.12087 0.97739 0.0
O135 O 0.63373 0.15384 0.96139 0.0
C136 C 0.73535 0.0903 1.01518 0.0
C137 C 0.72761 0.06627 0.10953 0.0
C138 C 0.71113 0.0892 0.09962 0.0
C139 C 0.71506 0.10115 0.05308 0.0
C140 C 0.7518 0.06722 1.02433 0.0
C141 C 0.74813 0.0554 0.07165 0.0
C142 C 0.73766 0.10256 0.96576 0.0
C143 C 0.71718 0.20444 0.91967 0.0
C144 C 0.67253 0.19094 1.00972 0.0
C145 C 0.63679 0.21799 0.78801 0.0
C146 C 0.65257 0.2489 0.69907 0.0
C147 C 0.67263 0.23799 0.72774 0.0
C148 C 0.66488 0.22302 0.7714 0.0
C149 C 0.6167 0.22869 0.75969 0.0
C150 C 0.62439 0.24388 0.71623 0.0
C151 C 0.62852 0.20284 0.83567 0.0
H152 H 0.69576 0.09863 0.12859 0.0
H153 H 0.70229 0.11906 0.04676 0.0
H154 H 0.76743 0.05851 0.99518 0.0
H155 H 0.76131 0.03796 0.07878 0.0
H156 H 0.69452 0.24071 0.71634 0.0
H157 H 0.68103 0.21554 0.79244 0.0
H158 H 0.59488 0.22561 0.77153 0.0
H159 H 0.60799 0.25215 0.69669 0.0
Dy160 Dy 0.07445 0.57603 0.8016 0.0
Dy161 Dy 0.03036 0.61696 0.75072 0.0
C162 C 0.01624 0.55144 0.76292 0.0
O163 O 0.07555 0.55729 0.72123 0.0
O164 O 0.04958 0.58939 0.68269 0.0
O165 O 0.08699 0.53362 0.8182 0.0
O166 O 0.10556 0.57146 0.85515 0.0
O167 O 0.07242 0.63659 0.73041 0.0
O168 O 0.10121 0.59929 0.73772 0.0
O169 O 0.01196 0.60909 0.82995 0.0
O170 O 0.05196 0.60439 0.86564 0.0
O171 O 0.01701 0.66113 0.75152 0.0
O172 O 0.9953 0.62622 0.7112 0.0
C173 C 0.0659 0.56669 0.68072 0.0
O174 O 0.03409 0.55142 0.79783 0.0
O175 O 0.01256 0.57377 0.73766 0.0
C176 C 0.09935 0.52873 0.90288 0.0
C177 C 0.09312 0.49901 0.9952 0.0
C178 C 0.0827 0.52716 0.9938 0.0
C179 C 0.08571 0.54171 0.94856 0.0
C180 C 0.10953 0.50064 0.90396 0.0
C181 C 0.10646 0.48605 0.94906 0.0
C182 C 0.10271 0.54331 0.85351 0.0
C183 C 0.09469 0.62176 0.71269 0.0
C184 C 0.02481 0.60622 0.87058 0.0
C185 C -0.00143 0.67003 0.67482 0.0
C186 C 0.99232 0.69171 0.58056 0.0
C187 C 0.01444 0.67334 0.58555 0.0
C188 C 0.01749 0.66255 0.63232 0.0
C189 C 0.97783 0.69006 0.67127 0.0
C190 C 0.97477 0.70096 0.62444 0.0
C191 C -0.00186 0.65406 0.72022 0.0
H192 H 0.07182 0.53802 1.0277 0.0
H193 H 0.07723 0.5631 0.94933 0.0
H194 H 0.12004 0.48984 0.86959 0.0
H195 H 0.1151 0.46471 0.94784 0.0
H196 H 0.02812 0.66542 0.55256 0.0
H197 H 0.03344 0.64684 0.63445 0.0
H198 H 0.96308 0.69603 0.70389 0.0
H199 H 0.95777 0.71538 0.62195 0.0
Dy200 Dy 0.71594 0.84167 1.03538 0.0
Dy201 Dy 0.66126 0.80976 0.088 0.0
C202 C 0.65466 0.86153 1.01484 0.0
O203 O 0.71231 0.85881 0.11882 0.0
O204 O 0.69263 0.81818 0.14683 0.0
O205 O 0.74127 0.88002 1.03365 0.0
O206 O 0.75534 0.84071 0.98911 0.0
O207 O 0.69001 0.77475 0.05891 0.0
O208 O 0.72883 0.80187 0.06639 0.0
O209 O 0.65811 0.79525 1.00499 0.0
O210 O 0.6998 0.81298 0.96863 0.0
O211 O 0.63228 0.77466 0.09962 0.0
O212 O 0.63117 0.81225 0.15455 0.0
C213 C 0.70799 0.84138 0.15527 0.0
O214 O 0.68164 0.86332 1.00483 0.0
O215 O 0.64285 0.84615 0.05108 0.0
C216 C 0.76493 0.88494 0.95241 0.0
C217 C 0.76821 0.91251 0.86127 0.0
C218 C 0.75631 0.92667 0.90712 0.0
C219 C 0.75475 0.91306 0.95235 0.0
C220 C 0.77878 0.87176 0.90743 0.0
C221 C 0.78033 0.88537 0.86222 0.0
C222 C 0.75915 0.86854 0.99771 0.0
C223 C 0.71698 0.77716 0.05379 0.0
C224 C 0.67642 0.79765 0.96491 0.0
C225 C 0.63061 0.76661 0.18604 0.0
C226 C 0.64552 0.73412 0.26433 0.0
C227 C 0.66488 0.73949 0.2231 0.0
C228 C 0.65753 0.75563 0.18456 0.0
C229 C 0.61099 0.761 0.22661 0.0
C230 C 0.61839 0.74484 0.26555 0.0
C231 C 0.6243 0.78504 0.14621 0.0
H232 H 0.74721 0.94776 0.90759 0.0
H233 H 0.74445 0.92412 0.98667 0.0
H234 H 0.78716 0.8503 0.90655 0.0
H235 H 0.78946 0.87377 0.8274 0.0
H236 H 0.68602 0.73204 0.22144 0.0
H237 H 0.67314 0.76001 0.15391 0.0
H238 H 0.59019 0.76941 0.22857 0.0
H239 H 0.60296 0.74089 0.29677 0.0
Dy240 Dy 0.38545 0.47317 0.26207 0.0
Dy241 Dy 0.42405 0.42121 0.28996 0.0
C242 C 0.38092 0.41056 0.19569 0.0
O243 O 0.37399 0.46832 0.34663 0.0
O244 O 0.41625 0.45345 0.35855 0.0
O245 O 0.34414 0.49032 0.27099 0.0
O246 O 0.37773 0.51418 0.23336 0.0
O247 O 0.45302 0.45768 0.28492 0.0
O248 O 0.42556 0.49639 0.27451 0.0
O249 O 0.44465 0.42852 0.21353 0.0
O250 O 0.41384 0.46157 0.18971 0.0
O251 O 0.46134 0.39761 0.29767 0.0
O252 O 0.42453 0.39117 0.34903 0.0
C253 C 0.39306 0.46542 0.37765 0.0
O254 O 0.37022 0.43597 0.21152 0.0
O255 O 0.39912 0.39899 0.22356 0.0
C256 C 0.33443 0.51386 0.20002 0.0
C257 C 0.30651 0.51666 0.11176 0.0
C258 C 0.31357 0.48996 0.12748 0.0
C259 C 0.32717 0.48863 0.17122 0.0
C260 C 0.32693 0.54067 0.18552 0.0
C261 C 0.31297 0.54209 0.1416 0.0
C262 C 0.35094 0.51174 0.24339 0.0
C263 C 0.44978 0.48491 0.27866 0.0
C264 C 0.43602 0.44495 0.18011 0.0
C265 C 0.46809 0.39863 0.38725 0.0
C266 C 0.49892 0.41723 0.47374 0.0
C267 C 0.49789 0.43427 0.43218 0.0
C268 C 0.48275 0.42521 0.39005 0.0
C269 C 0.46909 0.38154 0.42851 0.0
C270 C 0.48415 0.39061 0.47079 0.0
C271 C 0.4517 0.38915 0.34208 0.0
H272 H 0.30975 0.47 0.10475 0.0
H273 H 0.33217 0.46774 0.18243 0.0
H274 H 0.33239 0.56042 0.20741 0.0
H275 H 0.30789 0.563 0.13027 0.0
H276 H 0.50838 0.45502 0.43247 0.0
H277 H 0.48243 0.43925 0.35955 0.0
H278 H 0.45819 0.361 0.42812 0.0
H279 H 0.48442 0.3764 0.50105 0.0
Dy280 Dy 0.76561 0.1466 0.49652 0.0
Dy281 Dy 0.82111 0.17658 0.53891 0.0
C282 C 0.82537 0.126 0.44381 0.0
O283 O 0.76676 0.13102 0.57534 0.0
O284 O 0.78966 0.17015 0.60701 0.0
O285 O 0.7375 0.11033 0.49767 0.0
O286 O 0.72811 0.14723 0.4579 0.0
O287 O 0.79417 0.21313 0.53191 0.0
O288 O 0.75356 0.18801 0.54061 0.0
O289 O 0.82438 0.19248 0.46063 0.0
O290 O 0.78345 0.1737 0.43164 0.0
O291 O 0.84947 0.2114 0.55741 0.0
O292 O 0.85421 0.1695 0.58577 0.0
C293 C 0.77258 0.14841 0.61488 0.0
O294 O 0.79865 0.12095 0.4508 0.0
O295 O 0.83842 0.14323 0.47653 0.0
C296 C 0.71794 0.10094 0.41956 0.0
C297 C 0.71544 0.06978 0.32366 0.0
C298 C 0.73429 0.06196 0.35708 0.0
C299 C 0.73571 0.07753 0.40447 0.0
C300 C 0.69756 0.10721 0.38809 0.0
C301 C 0.69633 0.0918 0.34045 0.0
C302 C 0.72214 0.12035 0.46543 0.0
C303 C 0.76716 0.21207 0.53302 0.0
C304 C 0.8067 0.18935 0.42523 0.0
C305 C 0.85669 0.21138 0.6437 0.0
C306 C 0.84084 0.24369 0.7375 0.0
C307 C 0.85992 0.25517 0.70071 0.0
C308 C 0.86774 0.23915 0.65418 0.0
C309 C 0.8383 0.19961 0.68115 0.0
C310 C 0.83045 0.21557 0.72739 0.0
C311 C 0.8601 0.19717 0.59116 0.0
H312 H 0.74885 0.04475 0.3454 0.0
H313 H 0.75159 0.072 0.4281 0.0
H314 H 0.6836 0.12507 0.39912 0.0
H315 H 0.68171 0.09858 0.31539 0.0
H316 H 0.86862 0.27661 0.7077 0.0
H317 H 0.8816 0.24885 0.6256 0.0
H318 H 0.82901 0.17847 0.67403 0.0
H319 H 0.81548 0.20617 0.75456 0.0
Dy320 Dy 0.93736 0.60256 0.17721 0.0
Dy321 Dy 0.91089 0.54447 0.12616 0.0
C322 C 0.96707 0.54211 0.17629 0.0
O323 O 0.96496 0.59296 0.10382 0.0
O324 O 0.93518 0.56367 0.05841 0.0
O325 O 0.97037 0.63135 0.1997 0.0
O326 O 0.92739 0.64525 0.21129 0.0
O327 O 0.88144 0.58013 0.12506 0.0
O328 O 0.91365 0.61421 0.11225 0.0
O329 O 0.90902 0.53669 0.20873 0.0
O330 O 0.9115 0.58309 0.24399 0.0
O331 O 0.87221 0.5208 0.12493 0.0
O332 O 0.90991 0.50296 0.08392 0.0
C333 C 0.9579 0.58014 0.06005 0.0
O334 O 0.96204 0.56729 0.20187 0.0
O335 O 0.95372 0.53293 0.13706 0.0
C336 C 0.95712 0.66244 0.27261 0.0
C337 C 0.96591 0.68286 0.37342 0.0
C338 C 0.94952 0.65806 0.36374 0.0
C339 C 0.94523 0.6479 0.31377 0.0
C340 C 0.97328 0.68731 0.28188 0.0
C341 C 0.97775 0.69744 0.33204 0.0
C342 C 0.95309 0.65131 0.22011 0.0
C343 C 0.88999 0.60246 0.1014 0.0
C344 C 0.90691 0.55525 0.24914 0.0
C345 C 0.86871 0.49208 0.04873 0.0
C346 C 0.86592 0.47119 0.94792 0.0
C347 C 0.86736 0.50107 0.96053 0.0
C348 C 0.86897 0.51152 1.01114 0.0
C349 C 0.86174 0.46311 1.03751 0.0
C350 C 0.86005 0.45263 0.98683 0.0
C351 C 0.88311 0.49998 0.09358 0.0
H352 H 0.94065 0.64597 0.39474 0.0
H353 H 0.9329 0.6285 0.30722 0.0
H354 H 0.98263 0.6987 0.25034 0.0
H355 H 0.99048 0.71656 0.33848 0.0
H356 H 0.87162 0.51587 0.9312 0.0
H357 H 0.87438 0.53399 1.01968 0.0
H358 H 0.86119 0.44803 0.06664 0.0
H359 H 0.85823 0.42958 0.97764 0.0
Dy360 Dy 0.16482 0.17216 0.04874 0.0
Dy361 Dy 0.21278 0.13308 0.9856 0.0
C362 C 0.22387 0.20052 1.01641 0.0
O363 O 0.16696 0.19284 0.97656 0.0
O364 O 0.19979 0.16319 0.92854 0.0
O365 O 0.14148 0.20958 0.08176 0.0
O366 O 0.13662 0.16952 0.11783 0.0
O367 O 0.17572 0.11592 0.94707 0.0
O368 O 0.14183 0.1474 0.98199 0.0
O369 O 0.21335 0.12253 0.06796 0.0
O370 O 0.19954 0.16664 0.09867 0.0
O371 O 0.22919 0.09015 0.97129 0.0
O372 O 0.25148 0.12589 0.93833 0.0
C373 C 0.18219 0.18508 0.93355 0.0
O374 O 0.19789 0.20439 1.03444 0.0
O375 O 0.23474 0.17479 1.0044 0.0
C376 C 0.13993 0.21355 0.17312 0.0
C377 C 0.1533 0.24551 0.2669 0.0
C378 C 0.17415 0.23651 0.22772 0.0
C379 C 0.16757 0.22097 0.18176 0.0
C380 C 0.11906 0.22243 0.21185 0.0
C381 C 0.12558 0.23813 0.25773 0.0
C382 C 0.13288 0.19756 0.12348 0.0
C383 C 0.15177 0.12814 0.94376 0.0
C384 C 0.2129 0.14335 0.10474 0.0
C385 C 0.25077 0.08185 0.888 0.0
C386 C 0.25286 0.05954 0.78492 0.0
C387 C 0.22726 0.06475 0.81388 0.0
C388 C 0.2263 0.07535 0.86499 0.0
C389 C 0.27638 0.07522 0.86059 0.0
C390 C 0.27742 0.06376 0.80952 0.0
C391 C 0.24931 0.09791 0.93858 0.0
H392 H 0.19577 0.24113 0.2326 0.0
H393 H 0.18425 0.21487 0.15274 0.0
H394 H 0.09754 0.21746 0.20649 0.0
H395 H 0.10861 0.24486 0.28572 0.0
H396 H 0.20788 0.06236 0.79659 0.0
H397 H 0.20635 0.07928 0.88624 0.0
H398 H 0.29552 0.07983 0.87804 0.0
H399 H 0.29751 0.05944 0.78877 0.0
Dy400 Dy 0.56627 0.44041 0.7749 0.0
Dy401 Dy 0.6058 0.49041 0.72189 0.0
C402 C 0.54445 0.50136 0.76103 0.0
O403 O 0.54896 0.44232 0.69906 0.0
O404 O 0.58256 0.46915 0.65511 0.0
O405 O 0.52498 0.4254 0.79734 0.0
O406 O 0.56066 0.40406 0.82067 0.0
O407 O 0.62748 0.4481 0.71158 0.0
O408 O 0.59157 0.41635 0.70918 0.0
O409 O 0.60199 0.50259 0.80829 0.0
O410 O 0.5964 0.4569 0.83234 0.0
O411 O 0.64599 0.51118 0.72391 0.0
O412 O 0.61826 0.52242 0.66933 0.0
C413 C 0.55951 0.45284 0.65631 0.0
O414 O 0.55034 0.48475 0.79589 0.0
O415 O 0.56466 0.5104 0.72989 0.0
C416 C 0.52109 0.41153 0.88045 0.0
C417 C 0.49374 0.42561 0.97853 0.0
C418 C 0.48045 0.4084 0.94133 0.0
C419 C 0.49405 0.4014 0.8927 0.0
C420 C 0.53448 0.42862 0.91757 0.0
C421 C 0.52099 0.43544 0.96629 0.0
C422 C 0.53371 0.40744 0.82736 0.0
C423 C 0.61631 0.42457 0.69089 0.0
C424 C 0.60172 0.48451 0.84431 0.0
C425 C 0.66551 0.51905 0.64066 0.0
C426 C 0.6973 0.50317 0.54789 0.0
C427 C 0.69563 0.48492 0.58766 0.0
C428 C 0.67995 0.49288 0.63385 0.0
C429 C 0.66932 0.53843 0.60285 0.0
C430 C 0.68522 0.53062 0.55683 0.0
C431 C 0.64349 0.52422 0.68282 0.0
H432 H 0.45956 0.40027 0.9499 0.0
H433 H 0.48323 0.38862 0.86425 0.0
H434 H 0.5551 0.43729 0.90854 0.0
H435 H 0.53163 0.44898 0.994 0.0
H436 H 0.7051 0.46387 0.58187 0.0
H437 H 0.67775 0.47786 0.66303 0.0
H438 H 0.65846 0.55876 0.60745 0.0
H439 H 0.68602 0.54506 0.52666 0.0
Dy440 Dy 0.33218 0.8164 0.54274 0.0
Dy441 Dy 0.28729 0.85749 0.50455 0.0
C442 C 0.27279 0.79082 0.51917 0.0
O443 O 0.33132 0.79543 0.46455 0.0
O444 O 0.30024 0.82606 0.43502 0.0
O445 O 0.35332 0.77805 0.55833 0.0
O446 O 0.35942 0.81823 0.60421 0.0
O447 O 0.32566 0.87322 0.46033 0.0
O448 O 0.3571 0.83978 0.47616 0.0
O449 O 0.28496 0.86884 0.59067 0.0
O450 O 0.29687 0.82434 0.60493 0.0
O451 O 0.27365 0.90116 0.50277 0.0
O452 O 0.24929 0.86542 0.47171 0.0
C453 C 0.31713 0.80355 0.42816 0.0
O454 O 0.29821 0.78559 0.5285 0.0
O455 O 0.26328 0.81706 0.51819 0.0
C456 C 0.35338 0.77481 0.64835 0.0
C457 C 0.3372 0.74386 0.73704 0.0
C458 C 0.31729 0.75447 0.70773 0.0
C459 C 0.32523 0.76949 0.6642 0.0
C460 C 0.37332 0.76438 0.67731 0.0
C461 C 0.36544 0.74917 0.72066 0.0
C462 C 0.36186 0.79003 0.60088 0.0
C463 C 0.34904 0.85963 0.44661 0.0
C464 C 0.28431 0.84834 0.62173 0.0
C465 C 0.25545 0.90607 0.42566 0.0
C466 C 0.26146 0.93075 0.33187 0.0
C467 C 0.27898 0.90849 0.34094 0.0
C468 C 0.27585 0.89617 0.3872 0.0
C469 C 0.23805 0.92855 0.4174 0.0
C470 C 0.24086 0.94069 0.37036 0.0
C471 C 0.25366 0.89325 0.47451 0.0
H472 H 0.29537 0.75149 0.71855 0.0
H473 H 0.30921 0.77679 0.64265 0.0
H474 H 0.39517 0.7677 0.66607 0.0
H475 H 0.38172 0.74113 0.74074 0.0
H476 H 0.29447 0.8998 0.31147 0.0
H477 H 0.28923 0.8786 0.39278 0.0
H478 H 0.22227 0.93648 0.44697 0.0
H479 H 0.2269 0.95759 0.36386 0.0
Dy480 Dy 0.95914 0.3798 0.6883 0.0
Dy481 Dy 0.91499 0.42044 0.63633 0.0
C482 C 0.89459 0.37528 0.72621 0.0
O483 O 0.97767 0.38777 0.60932 0.0
O484 O 0.9378 0.39189 0.57297 0.0
O485 O 0.9742 0.33616 0.68515 0.0
O486 O 0.99347 0.37095 0.73022 0.0
O487 O 0.95521 0.4453 0.63951 0.0
O488 O 0.97724 0.42302 0.69918 0.0
O489 O 0.91435 0.43982 0.71623 0.0
O490 O 0.94002 0.40784 0.75569 0.0
O491 O 0.90215 0.46245 0.6193 0.0
O492 O 0.88381 0.42452 0.58215 0.0
C493 C 0.96496 0.3903 0.56844 0.0
O494 O 0.91698 0.36036 0.70937 0.0
O495 O 0.88828 0.39764 0.70073 0.0
C496 C 0.99227 0.32589 0.76185 0.0
C497 C 0.99319 0.30642 0.85948 0.0
C498 C 0.9678 0.30989 0.83905 0.0
C499 C 0.9674 0.31969 0.79062 0.0
C500 C 0.01758 0.31989 0.77994 0.0
C501 C 0.01808 0.31014 0.8284 0.0
C502 C 0.99223 0.34323 0.71819 0.0
C503 C 0.9734 0.44528 0.67381 0.0
C504 C 0.92401 0.43074 0.75699 0.0
C505 C 0.89033 0.46708 0.53369 0.0
C506 C 0.8939 0.49824 0.44289 0.0
C507 C 0.91386 0.50221 0.47871 0.0
C508 C 0.91215 0.48695 0.52307 0.0
C509 C 0.87042 0.46305 0.49803 0.0
C510 C 0.87219 0.47819 0.45355 0.0
C511 C 0.88683 0.45264 0.58339 0.0
H512 H 0.94828 0.30682 0.86178 0.0
H513 H 0.94779 0.32423 0.77692 0.0
H514 H 0.037 0.32473 0.75821 0.0
H515 H 0.038 0.30796 0.84305 0.0
H516 H 0.93115 0.51696 0.47228 0.0
H517 H 0.92792 0.491 0.54938 0.0
H518 H 0.85307 0.44842 0.50495 0.0
H519 H 0.85605 0.4745 0.42795 0.0
Dy520 Dy 0.328 0.17783 0.34872 0.0
Dy521 Dy 0.27546 0.1432 0.40263 0.0
C522 C 0.27146 0.2087 0.38879 0.0
O523 O 0.33213 0.19196 0.4313 0.0
O524 O 0.292 0.17184 0.46917 0.0
O525 O 0.35566 0.21391 0.33694 0.0
O526 O 0.35759 0.17643 0.28156 0.0
O527 O 0.31131 0.12156 0.42774 0.0
O528 O 0.34885 0.14262 0.38447 0.0
O529 O 0.27586 0.12947 0.31784 0.0
O530 O 0.29544 0.17072 0.29198 0.0
O531 O 0.25119 0.10398 0.40094 0.0
O532 O 0.23892 0.13984 0.45617 0.0
C533 C 0.31478 0.18824 0.47212 0.0
O534 O 0.29837 0.21145 0.38037 0.0
O535 O 0.25896 0.18378 0.38025 0.0
C536 C 0.35852 0.22226 0.25055 0.0
C537 C 0.34561 0.2557 0.17218 0.0
C538 C 0.32541 0.2501 0.212 0.0
C539 C 0.33177 0.23345 0.25064 0.0
C540 C 0.37893 0.22813 0.21145 0.0
C541 C 0.37253 0.24474 0.17247 0.0
C542 C 0.36418 0.20369 0.29052 0.0
C543 C 0.33807 0.12563 0.41896 0.0
C544 C 0.2796 0.14797 0.28299 0.0
C545 C 0.2364 0.09329 0.48451 0.0
C546 C 0.24208 0.06535 0.57297 0.0
C547 C 0.26315 0.06356 0.53254 0.0
C548 C 0.26031 0.07734 0.48864 0.0
C549 C 0.21449 0.09341 0.52329 0.0
C550 C 0.21725 0.07937 0.56726 0.0
C551 C 0.23595 0.11231 0.443 0.0
H552 H 0.30443 0.2578 0.21243 0.0
H553 H 0.31561 0.22892 0.28031 0.0
H554 H 0.39963 0.21961 0.2107 0.0
H555 H 0.38858 0.24887 0.14237 0.0
H556 H 0.28244 0.05282 0.53609 0.0
H557 H 0.27746 0.07673 0.45907 0.0
H558 H 0.19593 0.10561 0.52081 0.0
H559 H 0.20082 0.0813 0.59827 0.0
Dy560 Dy 0.56973 0.56296 0.14996 0.0
Dy561 Dy 0.6155 0.51682 0.18237 0.0
C562 C 0.55437 0.49942 0.17056 0.0
O563 O 0.55505 0.5563 0.23114 0.0
O564 O 0.58991 0.52891 0.25755 0.0
O565 O 0.526 0.56865 0.14346 0.0
O566 O 0.55609 0.59588 0.10421 0.0
O567 O 0.63 0.56112 0.21287 0.0
O568 O 0.59099 0.58877 0.21642 0.0
O569 O 0.61136 0.50793 0.0969 0.0
O570 O 0.60089 0.55326 0.08074 0.0
O571 O 0.65916 0.50689 0.17489 0.0
O572 O 0.62925 0.47799 0.21083 0.0
C573 C 0.56636 0.5434 0.26667 0.0
O574 O 0.55825 0.51668 0.13397 0.0
O575 O 0.57574 0.49319 0.19394 0.0
C576 C 0.51598 0.57915 0.06056 0.0
C577 C 0.48685 0.5614 0.97239 0.0
C578 C 0.47352 0.57708 1.01595 0.0
C579 C 0.48783 0.58577 0.05915 0.0
C580 C 0.52935 0.56326 1.01749 0.0
C581 C 0.51511 0.55468 0.97414 0.0
C582 C 0.53019 0.58678 0.10851 0.0
C583 C 0.6145 0.58243 0.23596 0.0
C584 C 0.60783 0.52665 0.06347 0.0
C585 C 0.67177 0.48433 0.2456 0.0
C586 C 0.69747 0.48253 0.3365 0.0
C587 C 0.6856 0.50814 0.32481 0.0
C588 C 0.6728 0.50902 0.27991 0.0
C589 C 0.68421 0.45885 0.25629 0.0
C590 C 0.69687 0.45788 0.30174 0.0
C591 C 0.65542 0.48454 0.20159 0.0
H592 H 0.452 0.58306 1.01654 0.0
H593 H 0.47672 0.59759 0.09185 0.0
H594 H 0.55079 0.55715 1.01755 0.0
H595 H 0.52627 0.54227 0.94221 0.0
H596 H 0.68489 0.52715 0.35177 0.0
H597 H 0.6629 0.52874 0.27281 0.0
H598 H 0.68326 0.43949 0.23045 0.0
H599 H 0.70544 0.43778 0.31044 0.0
Dy600 Dy 0.1695 0.82158 0.90058 0.0
Dy601 Dy 0.22469 0.85198 0.94249 0.0
C602 C 0.22397 0.78624 0.90776 0.0
O603 O 0.166 0.8065 0.97937 0.0
O604 O 0.20712 0.82497 1.00787 0.0
O605 O 0.13899 0.78793 0.88897 0.0
O606 O 0.13983 0.82529 0.84507 0.0
O607 O 0.19133 0.87581 0.9903 0.0
O608 O 0.15161 0.85727 0.95802 0.0
O609 O 0.22329 0.86636 0.86281 0.0
O610 O 0.20176 0.82604 0.83284 0.0
O611 O 0.25103 0.88966 0.94197 0.0
O612 O 0.26261 0.85289 0.9801 0.0
C613 C 0.18373 0.80956 1.01465 0.0
O614 O 0.19692 0.78563 0.90925 0.0
O615 O 0.23811 0.81016 0.90176 0.0
C616 C 0.13641 0.77938 0.80071 0.0
C617 C 0.1491 0.74622 0.70678 0.0
C618 C 0.16751 0.7474 0.74484 0.0
C619 C 0.16132 0.76395 0.79115 0.0
C620 C 0.11763 0.77778 0.76333 0.0
C621 C 0.12393 0.76132 0.71664 0.0
C622 C 0.13155 0.79851 0.84822 0.0
C623 C 0.16433 0.87293 0.99341 0.0
C624 C 0.21839 0.848 0.82398 0.0
C625 C 0.27037 0.89931 1.02018 0.0
C626 C 0.27152 0.92924 0.11749 0.0
C627 C 0.25144 0.93571 0.08537 0.0
C628 C 0.25072 0.92075 1.03729 0.0
C629 C 0.29176 0.89447 0.0504 0.0
C630 C 0.29233 0.90927 0.09874 0.0
C631 C 0.26709 0.88016 0.97361 0.0
H632 H 0.1872 0.7364 0.73811 0.0
H633 H 0.17638 0.76519 0.81912 0.0
H634 H 0.09843 0.78966 0.76982 0.0
H635 H 0.10927 0.76063 0.68799 0.0
H636 H 0.23546 0.9513 0.09849 0.0
H637 H 0.23398 0.92509 1.01467 0.0
H638 H 0.30712 0.87811 1.03784 0.0
H639 H 0.30794 0.90349 0.12269 0.0
Dy640 Dy 0.57881 0.95128 0.81399 0.0
Dy641 Dy 0.55352 0.89289 0.76289 0.0
C642 C 0.60073 0.89353 0.84043 0.0
O643 O 0.58026 0.95887 0.73125 0.0
O644 O 0.5792 0.9125 0.69597 0.0
O645 O 0.61643 0.97681 0.81187 0.0
O646 O 0.57912 0.99243 0.85755 0.0
O647 O 0.5284 0.92784 0.73815 0.0
O648 O 0.53555 0.96173 0.80417 0.0
O649 O 0.52566 0.90189 0.83617 0.0
O650 O 0.55473 0.93191 0.88179 0.0
O651 O 0.52073 0.86376 0.74064 0.0
O652 O 0.56385 0.85041 0.72815 0.0
C653 C 0.58302 0.94042 0.69075 0.0
O654 O 0.60908 0.91682 0.8194 0.0
O655 O 0.57753 0.88132 0.8277 0.0
C656 C 0.62131 0.00535 0.88774 0.0
C657 C 0.62659 0.02688 0.98738 0.0
C658 C 0.63084 0.04534 0.94795 0.0
C659 C 0.62776 0.03455 0.89789 0.0
C660 C 0.62313 0.98611 0.92511 0.0
C661 C 0.62592 0.99691 0.97519 0.0
C662 C 0.60551 0.99684 0.84491 0.0
C663 C 0.52267 0.95272 0.76429 0.0
C664 C 0.53235 0.91495 0.88 0.0
C665 C 0.5339 0.83308 0.66719 0.0
C666 C 0.52433 0.81312 0.56652 0.0
C667 C 0.54098 0.83774 0.57609 0.0
C668 C 0.54565 0.84767 0.626 0.0
C669 C 0.5175 0.80837 0.65802 0.0
C670 C 0.51265 0.79847 0.60794 0.0
C671 C 0.53815 0.84408 0.71969 0.0
H672 H 0.6322 0.06848 0.95669 0.0
H673 H 0.62682 0.04946 0.86881 0.0
H674 H 0.61845 0.96338 0.9172 0.0
H675 H 0.62305 0.98216 1.00486 0.0
H676 H 0.54975 0.84987 0.54508 0.0
H677 H 0.55814 0.86697 0.63247 0.0
H678 H 0.50823 0.79695 0.68958 0.0
H679 H 0.49973 0.77947 0.60158 0.0
Dy680 Dy 0.28372 0.36572 0.94998 0.0
Dy681 Dy 0.3308 0.3268 0.88425 0.0
C682 C 0.34573 0.3733 0.98487 0.0
O683 O 0.28053 0.37552 0.86773 0.0
O684 O 0.29487 0.33156 0.83664 0.0
O685 O 0.26726 0.40846 0.96821 0.0
O686 O 0.2453 0.37175 0.99832 0.0
O687 O 0.2989 0.29398 0.90214 0.0
O688 O 0.26227 0.32332 0.93453 0.0
O689 O 0.33133 0.30719 0.95715 0.0
O690 O 0.299 0.33667 1.00673 0.0
O691 O 0.35421 0.28963 0.85035 0.0
O692 O 0.35799 0.32966 0.81401 0.0
C693 C 0.28089 0.35457 0.83112 0.0
O694 O 0.32152 0.38513 0.98291 0.0
O695 O 0.35463 0.35272 0.94825 0.0
C696 C 0.24587 0.41459 0.05173 0.0
C697 C 0.24245 0.43769 0.15423 0.0
C698 C 0.26763 0.42678 0.12983 0.0
C699 C 0.2693 0.41533 0.0791 0.0
C700 C 0.22094 0.42643 0.07501 0.0
C701 C 0.2192 0.4379 0.12612 0.0
C702 C 0.24726 0.39979 1.00023 0.0
C703 C 0.2733 0.29766 0.92247 0.0
C704 C 0.317 0.31512 1.00105 0.0
C705 C 0.35498 0.28545 0.75921 0.0
C706 C 0.34132 0.25285 0.66638 0.0
C707 C 0.32054 0.26246 0.70522 0.0
C708 C 0.32726 0.27832 0.75075 0.0
C709 C 0.37578 0.27594 0.72083 0.0
C710 C 0.36912 0.25991 0.6754 0.0
C711 C 0.36221 0.3017 0.80841 0.0
H712 H 0.28575 0.42566 0.15066 0.0
H713 H 0.28867 0.4061 0.06187 0.0
H714 H 0.20268 0.42598 0.05423 0.0
H715 H 0.19954 0.4461 0.14411 0.0
H716 H 0.29888 0.25808 0.7004 0.0
H717 H 0.31065 0.2849 0.77959 0.0
H718 H 0.39735 0.28066 0.72615 0.0
H719 H 0.38603 0.25268 0.64766 0.0
Dy720 Dy 0.88872 0.03133 0.20444 0.0
Dy721 Dy 0.92611 0.08335 0.15162 0.0
C722 C 0.87449 0.09542 0.23518 0.0
O723 O 0.88498 0.01816 0.12095 0.0
O724 O 0.90988 0.05509 0.08537 0.0
O725 O 0.84934 0.00901 0.21176 0.0
O726 O 0.88186 -0.0012 0.25805 0.0
O727 O 0.95562 0.04847 0.15426 0.0
O728 O 0.92647 0.00967 0.16736 0.0
O729 O 0.94297 0.08493 0.22837 0.0
O730 O 0.91589 0.04985 0.26698 0.0
O731 O 0.96421 0.10589 0.13068 0.0
O732 O 0.92581 0.11862 0.10327 0.0
C733 C 0.89543 0.03078 0.08058 0.0
O734 O 0.86463 0.07184 0.21271 0.0
O735 O 0.89868 0.10522 0.21729 0.0
C736 C 0.83618 -0.00128 0.29653 0.0
C737 C 0.80728 0.00933 0.39375 0.0
C738 C 0.80687 0.02954 0.35751 0.0
C739 C 0.82109 0.02422 0.30912 0.0
C740 C 0.83495 0.97758 0.33124 0.0
C741 C 0.8205 0.98277 0.37949 0.0
C742 C 0.85572 0.99558 0.25033 0.0
C743 C 0.95128 0.02138 0.16242 0.0
C744 C 0.93596 0.06984 0.26792 0.0
C745 C 0.96663 0.11495 1.04472 0.0
C746 C -0.00359 0.09658 0.95006 0.0
C747 C 0.00924 0.11416 0.98743 0.0
C748 C 0.99448 0.12325 1.03427 0.0
C749 C 0.95363 0.09788 1.007 0.0
C750 C 0.96831 0.08887 0.96022 0.0
C751 C 0.953 0.11988 0.09739 0.0
H752 H 0.79674 0.05 0.3676 0.0
H753 H 0.82146 0.0406 0.28249 0.0
H754 H 0.84647 0.95778 0.32214 0.0
H755 H 0.82152 0.9669 0.40689 0.0
H756 H 0.03073 0.12081 0.98052 0.0
H757 H 0.00509 0.136 0.06304 0.0
H758 H 0.93235 0.09062 1.0142 0.0
H759 H 0.95785 0.07512 0.93254 0.0
Dy760 Dy 0.20044 0.63102 0.42819 0.0
Dy761 Dy 0.1574 0.67535 0.39412 0.0
C762 C 0.13963 0.6335 0.49176 0.0
O763 O 0.20051 0.62129 0.34197 0.0
O764 O 0.1915 0.66682 0.33006 0.0
O765 O 0.21113 0.58611 0.42192 0.0
O766 O 0.23773 0.618 0.45862 0.0
O767 O 0.19387 0.7033 0.40455 0.0
O768 O 0.22704 0.67001 0.41616 0.0
O769 O 0.16156 0.69599 0.47153 0.0
O770 O 0.1908 0.66264 0.49901 0.0
O771 O 0.13773 0.71498 0.38083 0.0
O772 O 0.1292 0.67552 0.33451 0.0
C773 C 0.20252 0.6423 0.31196 0.0
O774 O 0.16246 0.61889 0.47786 0.0
O775 O 0.13204 0.65336 0.4618 0.0
C776 C 0.23094 0.57384 0.49471 0.0
C777 C 0.22897 0.55385 0.59262 0.0
C778 C 0.20434 0.5584 0.5703 0.0
C779 C 0.20538 0.56792 0.52157 0.0
C780 C 0.25548 0.56665 0.51424 0.0
C781 C 0.2545 0.55618 0.56246 0.0
C782 C 0.23185 0.5906 0.45001 0.0
C783 C 0.21905 0.6967 0.4135 0.0
C784 C 0.17568 0.6865 0.50685 0.0
C785 C 0.13669 0.71902 0.29117 0.0
C786 C 0.15299 0.74916 0.20168 0.0
C787 C 0.17284 0.73951 0.23212 0.0
C788 C 0.16484 0.72481 0.27601 0.0
C789 C 0.11682 0.72857 0.26114 0.0
C790 C 0.12477 0.74338 0.21738 0.0
C791 C 0.12812 0.70385 0.33862 0.0
H792 H 0.18418 0.55685 0.59149 0.0
H793 H 0.18618 0.57232 0.50614 0.0
H794 H 0.27542 0.57048 0.49343 0.0
H795 H 0.27389 0.55159 0.57717 0.0
H796 H 0.19475 0.74293 0.22179 0.0
H797 H 0.18079 0.71804 0.29828 0.0
H798 H 0.09497 0.72479 0.27175 0.0
H799 H 0.10854 0.75069 0.19629 0.0
Dy800 Dy 0.57675 0.07417 0.30048 0.0
Dy801 Dy 0.53286 0.11519 0.24904 0.0
C802 C 0.51839 0.04978 0.26205 0.0
O803 O 0.57788 0.05526 0.22016 0.0
O804 O 0.55201 0.08738 0.1814 0.0
O805 O 0.58891 0.03193 0.31779 0.0
O806 O 0.60778 0.06958 0.35476 0.0
O807 O 0.57508 0.13464 0.22941 0.0
O808 O 0.60366 0.09712 0.23614 0.0
O809 O 0.51426 0.10757 0.32821 0.0
O810 O 0.55423 0.10291 0.36401 0.0
O811 O 0.51971 0.1594 0.24911 0.0
O812 O 0.49791 0.12442 0.2092 0.0
C813 C 0.56822 0.06462 0.17959 0.0
O814 O 0.5363 0.04972 0.29684 0.0
O815 O 0.5149 0.07203 0.23646 0.0
C816 C 0.60042 0.02719 0.40379 0.0
C817 C 0.59638 0.99673 0.49565 0.0
C818 C 0.57861 0.99005 0.45663 0.0
C819 C 0.58056 0.00493 0.41178 0.0
C820 C 0.61819 0.03388 0.44261 0.0
C821 C 0.61618 0.01909 0.48754 0.0
C822 C 0.60425 0.04152 0.35383 0.0
C823 C 0.5972 0.11968 0.21123 0.0
C824 C 0.52707 0.10475 0.36889 0.0
C825 C 0.50103 0.16813 0.17246 0.0
C826 C 0.49406 0.1894 0.07813 0.0
C827 C 0.51632 0.17114 0.08285 0.0
C828 C 0.51974 0.16056 0.12967 0.0
C829 C 0.4802 0.18808 0.16912 0.0
C830 C 0.47678 0.19878 0.12228 0.0
C831 C 0.50079 0.15226 0.21795 0.0
H832 H 0.56282 0.97343 0.46086 0.0
H833 H 0.56652 -0.00129 0.38304 0.0
H834 H 0.63407 0.0504 0.43791 0.0
H835 H 0.63069 0.02493 0.51559 0.0
H836 H 0.52982 0.16315 0.04966 0.0
H837 H 0.5358 0.14494 0.13164 0.0
H838 H 0.46562 0.19413 0.20197 0.0
H839 H 0.45971 0.21314 0.12002 0.0
Dy840 Dy 0.21773 0.35426 0.53371 0.0
Dy841 Dy 0.16584 0.31892 0.58624 0.0
C842 C 0.15502 0.3709 0.51649 0.0
O843 O 0.21686 0.36767 0.61871 0.0
O844 O 0.19832 0.32581 0.64337 0.0
O845 O 0.24098 0.39411 0.53695 0.0
O846 O 0.25443 0.3589 0.48112 0.0
O847 O 0.19586 0.28572 0.55442 0.0
O848 O 0.2351 0.31371 0.5544 0.0
O849 O 0.16194 0.30489 0.50348 0.0
O850 O 0.20182 0.32575 0.46627 0.0
O851 O 0.13826 0.28266 0.5971 0.0
O852 O 0.13631 0.31975 0.6534 0.0
C853 C 0.21367 0.34886 0.65307 0.0
O854 O 0.18174 0.37501 0.50728 0.0
O855 O 0.14451 0.35414 0.55153 0.0
C856 C 0.2557 0.40568 0.45396 0.0
C857 C 0.24949 0.43388 0.36603 0.0
C858 C 0.22829 0.43492 0.4062 0.0
C859 C 0.2314 0.42101 0.44987 0.0
C860 C 0.27766 0.40626 0.41546 0.0
C861 C 0.27464 0.4204 0.37178 0.0
C862 C 0.25658 0.38644 0.49499 0.0
C863 C 0.22276 0.28867 0.54618 0.0
C864 C 0.17927 0.30903 0.46282 0.0
C865 C 0.13632 0.27375 0.68317 0.0
C866 C 0.15149 0.24198 0.76192 0.0
C867 C 0.17021 0.24555 0.71891 0.0
C868 C 0.16275 0.26141 0.68008 0.0
C869 C 0.11728 0.26971 0.72539 0.0
C870 C 0.12481 0.2539 0.76457 0.0
C871 C 0.13 0.29246 0.64389 0.0
H872 H 0.2088 0.44528 0.40272 0.0
H873 H 0.21421 0.42109 0.47931 0.0
H874 H 0.2965 0.39451 0.41791 0.0
H875 H 0.2912 0.41901 0.34101 0.0
H876 H 0.191 0.23703 0.71617 0.0
H877 H 0.17795 0.26464 0.64811 0.0
H878 H 0.09689 0.27924 0.72856 0.0
H879 H 0.1099 0.25129 0.79724 0.0
Dy880 Dy 0.88323 0.97049 0.76045 0.0
Dy881 Dy 0.91647 0.91731 0.79483 0.0
C882 C 0.87248 0.9079 0.70108 0.0
O883 O 0.8709 0.96964 0.8456 0.0
O884 O 0.91252 0.95362 0.85828 0.0
O885 O 0.84399 0.99188 0.763 0.0
O886 O 0.8814 0.01191 0.72999 0.0
O887 O 0.95004 0.94878 0.7803 0.0
O888 O 0.92427 0.98962 0.77761 0.0
O889 O 0.93723 0.91821 0.71671 0.0
O890 O 0.91117 0.95433 0.68902 0.0
O891 O 0.95054 0.89039 0.80836 0.0
O892 O 0.91189 0.88884 0.85664 0.0
C893 C 0.89025 0.96773 0.87643 0.0
O894 O 0.86322 0.93393 0.71615 0.0
O895 O 0.89046 0.89592 0.72889 0.0
C896 C 0.84052 0.01644 0.69079 0.0
C897 C 0.81293 0.02137 0.60326 0.0
C898 C 0.8296 0.99742 0.60666 0.0
C899 C 0.84352 0.99519 0.64976 0.0
C900 C 0.82381 0.04041 0.68797 0.0
C901 C 0.8103 0.04308 0.64392 0.0
C902 C 0.85437 0.0126 0.73657 0.0
C903 C 0.94816 0.9763 0.77476 0.0
C904 C 0.93102 0.93461 0.68124 0.0
C905 C 0.95442 0.89039 0.89842 0.0
C906 C 0.98599 0.90402 0.98561 0.0
C907 C 0.9809 0.92497 0.95201 0.0
C908 C 0.96549 0.91829 0.90938 0.0
C909 C 0.95935 0.86942 0.9317 0.0
C910 C 0.9748 0.87606 0.97434 0.0
C911 C 0.93853 0.88314 0.85201 0.0
H912 H 0.83259 0.9808 0.57517 0.0
H913 H 0.85691 0.97699 0.65103 0.0
H914 H 0.82138 0.05702 0.71951 0.0
H915 H 0.79791 0.06194 0.64152 0.0
H916 H 0.98853 0.94685 0.95887 0.0
H917 H 0.96229 0.93509 0.88474 0.0
H918 H 0.95141 0.84768 0.92453 0.0
H919 H 0.97832 0.85891 0.99802 0.0
Dy920 Dy 0.26249 0.64011 0.99176 0.0
Dy921 Dy 0.31921 0.66725 1.03514 0.0
C922 C 0.32239 0.61502 0.94428 0.0
O923 O 0.26277 0.62437 0.07065 0.0
O924 O 0.28672 0.66276 0.10249 0.0
O925 O 0.23353 0.60449 0.99098 0.0
O926 O 0.22545 0.64215 0.95218 0.0
O927 O 0.29339 0.70455 1.02622 0.0
O928 O 0.25164 0.68161 1.03618 0.0
O929 O 0.32406 0.68176 0.95565 0.0
O930 O 0.28145 0.66741 0.92814 0.0
O931 O 0.35065 0.69986 0.0475 0.0
O932 O 0.34861 0.66219 0.09057 0.0
C933 C 0.26883 0.64165 0.11021 0.0
O934 O 0.29534 0.61491 0.94497 0.0
O935 O 0.33545 0.62968 0.98032 0.0
C936 C 0.21657 0.59652 0.91057 0.0
C937 C 0.21741 0.56824 0.81185 0.0
C938 C 0.23836 0.56335 0.84301 0.0
C939 C 0.23798 0.57732 0.89194 0.0
C940 C 0.19452 0.59988 0.88088 0.0
C941 C 0.19487 0.58568 0.83172 0.0
C942 C 0.21908 0.61516 0.95797 0.0
C943 C 0.26634 0.70499 1.0287 0.0
C944 C 0.30591 0.68085 0.92106 0.0
C945 C 0.35342 0.70762 0.13565 0.0
C946 C 0.34256 0.74183 0.22903 0.0
C947 C 0.32223 0.73789 0.19448 0.0
C948 C 0.32757 0.7209 0.14842 0.0
C949 C 0.374 0.7118 0.1695 0.0
C950 C 0.36861 0.72879 0.21592 0.0
C951 C 0.3578 0.68869 0.08789 0.0
H952 H 0.25584 0.55 0.82816 0.0
H953 H 0.25523 0.57422 0.91407 0.0
H954 H 0.17786 0.61461 0.89459 0.0
H955 H 0.1786 0.58995 0.808 0.0
H956 H 0.30185 0.7472 0.20372 0.0
H957 H 0.31128 0.71776 0.123 0.0
H958 H 0.39402 0.70169 0.16037 0.0
H959 H 0.38477 0.73162 0.24169 0.0
Dy960 Dy 0.43825 0.10066 0.67516 0.0
Dy961 Dy 0.41418 0.04162 0.62421 0.0
C962 C 0.47039 0.04162 0.67399 0.0
O963 O 0.46626 0.09209 0.60189 0.0
O964 O 0.43784 0.06124 0.55633 0.0
O965 O 0.47045 0.13049 0.69767 0.0
O966 O 0.42708 0.14298 0.70967 0.0
O967 O 0.38335 0.07555 0.61913 0.0
O968 O 0.41425 0.11149 0.60987 0.0
O969 O 0.41308 0.03421 0.70692 0.0
O970 O 0.41249 0.08072 0.74168 0.0
O971 O 0.37713 0.01523 0.62705 0.0
O972 O 0.41444 0.00053 0.58032 0.0
C973 C 0.45987 0.07869 0.5581 0.0
O974 O 0.46406 0.06634 0.70022 0.0
O975 O 0.45771 0.03232 0.63403 0.0
C976 C 0.45659 0.16098 0.77097 0.0
C977 C 0.46598 0.18095 0.87174 0.0
C978 C 0.4494 0.1563 0.86207 0.0
C979 C 0.44482 0.14635 0.81213 0.0
C980 C 0.47287 0.18577 0.78025 0.0
C981 C 0.47763 0.19568 0.83038 0.0
C982 C 0.45264 0.14983 0.71842 0.0
C983 C 0.39129 0.09869 0.59726 0.0
C984 C 0.40945 0.05275 0.74717 0.0
C985 C 0.37218 0.98703 0.55094 0.0
C986 C 0.36563 0.96565 0.45169 0.0
C987 C 0.36174 0.94717 0.49115 0.0
C988 C 0.36548 0.95788 0.54099 0.0
C989 C 0.37005 0.00631 0.51376 0.0
C990 C 0.36655 0.99561 0.46392 0.0
C991 C 0.3882 0.99555 0.59345 0.0
H992 H 0.44065 0.14411 0.89303 0.0
H993 H 0.43243 0.12699 0.80558 0.0
H994 H 0.48216 0.19721 0.74874 0.0
H995 H 0.49049 0.21471 0.83679 0.0
H996 H 0.3602 0.92405 0.4824 0.0
H997 H 0.36664 0.94294 0.56995 0.0
H998 H 0.37502 0.02897 0.52148 0.0
H999 H 0.36917 0.01039 0.43427 0.0
Dy1000 Dy 0.66435 0.66199 0.5493 0.0
Dy1001 Dy 0.71457 0.62724 0.48415 0.0
C1002 C 0.72065 0.69501 0.51565 0.0
O1003 O 0.66289 0.6822 0.47728 0.0
O1004 O 0.69809 0.65617 0.42826 0.0
O1005 O 0.63891 0.69747 0.58443 0.0
O1006 O 0.63746 0.65697 0.61919 0.0
O1007 O 0.67862 0.60692 0.44632 0.0
O1008 O 0.6423 0.6345 0.48429 0.0
O1009 O 0.71602 0.61563 0.56577 0.0
O1010 O 0.7003 0.65885 0.59728 0.0
O1011 O 0.735 0.58635 0.46763 0.0
O1012 O 0.75342 0.62446 0.43619 0.0
C1013 C 0.67834 0.67603 0.43388 0.0
O1014 O 0.69432 0.69698 0.53248 0.0
O1015 O 0.73341 0.67014 0.50593 0.0
C1016 C 0.63857 0.70078 0.67559 0.0
C1017 C 0.65142 0.73296 0.76951 0.0
C1018 C 0.67239 0.72442 0.73027 0.0
C1019 C 0.66606 0.70884 0.68422 0.0
C1020 C 0.61757 0.70918 0.71436 0.0
C1021 C 0.62381 0.72502 0.76029 0.0
C1022 C 0.63181 0.68463 0.62592 0.0
C1023 C 0.65331 0.6164 0.44517 0.0
C1024 C 0.71472 0.63623 0.603 0.0
C1025 C 0.75649 0.58108 0.38398 0.0
C1026 C 0.7597 0.55924 0.28058 0.0
C1027 C 0.73388 0.56326 0.30927 0.0
C1028 C 0.73238 0.57357 0.36051 0.0
C1029 C 0.78242 0.57604 0.35664 0.0
C1030 C 0.78405 0.56486 0.30532 0.0
C1031 C 0.75404 0.59641 0.43517 0.0
H1032 H 0.69394 0.72945 0.73509 0.0
H1033 H 0.68283 0.70323 0.65513 0.0
H1034 H 0.59614 0.70374 0.70899 0.0
H1035 H 0.60672 0.7314 0.78823 0.0
H1036 H 0.71464 0.55999 0.2917 0.0
H1037 H 0.71229 0.57629 0.38172 0.0
H1038 H 0.80131 0.58157 0.3744 0.0
H1039 H 0.80432 0.56169 0.28459 0.0
Dy1040 Dy 0.06041 0.91721 0.28305 0.0
Dy1041 Dy 0.09679 0.96962 0.23027 0.0
C1042 C 0.0342 0.97857 0.27275 0.0
O1043 O 0.04278 0.91568 0.20694 0.0
O1044 O 0.06968 0.95068 0.1678 0.0
O1045 O 0.0229 0.89381 0.30455 0.0
O1046 O 0.06184 0.88182 0.33086 0.0
O1047 O 0.12162 0.92961 0.22118 0.0
O1048 O 0.08787 0.89585 0.21679 0.0
O1049 O 0.10111 0.98265 0.31369 0.0
O1050 O 0.07622 0.94583 0.3495 0.0
O1051 O 0.13549 0.99318 0.22356 0.0
O1052 O 0.1031 0.00188 0.17596 0.0
C1053 C 0.04959 0.93068 0.16718 0.0
O1054 O 0.03017 0.95144 0.28081 0.0
O1055 O 0.05889 0.99059 0.26833 0.0
C1056 C 0.02137 0.8845 0.39029 0.0
C1057 C 0.99192 0.90244 0.48545 0.0
C1058 C 0.979 0.88488 0.44818 0.0
C1059 C 0.9936 0.87599 0.40109 0.0
C1060 C 0.03449 0.90147 0.42799 0.0
C1061 C 0.01996 0.91026 0.47504 0.0
C1062 C 0.03469 0.87998 0.33735 0.0
C1063 C 0.112 0.90584 0.19895 0.0
C1064 C 0.09075 0.97011 0.35421 0.0
C1065 C 0.14905 0.0031 0.13895 0.0
C1066 C 0.17978 0.99348 1.04332 0.0
C1067 C 0.17859 0.97239 0.07823 0.0
C1068 C 0.16343 0.97722 0.12581 0.0
C1069 C 0.15179 0.025 0.10569 0.0
C1070 C 0.16719 0.02029 0.0582 0.0
C1071 C 0.12904 0.00607 0.18445 0.0
H1072 H 0.95755 0.87815 0.45529 0.0
H1073 H 0.98291 0.86331 0.37236 0.0
H1074 H 0.0557 0.90887 0.42055 0.0
H1075 H 0.03048 0.92398 0.50267 0.0
H1076 H 0.18822 0.9517 0.06756 0.0
H1077 H 0.16183 0.96027 0.15141 0.0
H1078 H 0.14084 0.04511 0.11527 0.0
H1079 H 0.16746 0.03682 1.0317 0.0
Dy1080 Dy 0.83121 0.32164 1.04358 0.0
Dy1081 Dy 0.78831 0.36577 1.0071 0.0
C1082 C 0.76952 0.3002 1.02379 0.0
O1083 O 0.82661 0.29992 0.9671 0.0
O1084 O 0.79868 0.33372 0.93729 0.0
O1085 O 0.85103 0.28223 0.05765 0.0
O1086 O 0.85957 0.32203 0.103 0.0
O1087 O 0.8273 0.37908 0.96173 0.0
O1088 O 0.85635 0.34288 0.97519 0.0
O1089 O 0.78587 0.37541 0.09369 0.0
O1090 O 0.79733 0.33063 0.10766 0.0
O1091 O 0.77707 0.41049 1.01192 0.0
O1092 O 0.7521 0.37811 0.97244 0.0
C1093 C 0.81306 0.30939 0.931 0.0
O1094 O 0.79444 0.29384 1.03465 0.0
O1095 O 0.76174 0.3267 1.01876 0.0
C1096 C 0.85247 0.27888 0.14736 0.0
C1097 C 0.83667 0.24927 0.23758 0.0
C1098 C 0.81663 0.25869 0.20731 0.0
C1099 C 0.82439 0.27314 0.16306 0.0
C1100 C 0.87254 0.26958 0.17724 0.0
C1101 C 0.86482 0.25503 0.22139 0.0
C1102 C 0.86078 0.29373 0.09949 0.0
C1103 C 0.84937 0.36355 0.94648 0.0
C1104 C 0.78498 0.35471 0.12437 0.0
C1105 C 0.75995 0.42215 0.93559 0.0
C1106 C 0.7674 0.44342 0.8385 0.0
C1107 C 0.78873 0.44632 0.87123 0.0
C1108 C 0.78509 0.43567 0.91927 0.0
C1109 C 0.73784 0.42163 0.90498 0.0
C1110 C 0.74152 0.43214 0.8568 0.0
C1111 C 0.75772 0.40558 0.98089 0.0
H1112 H 0.79476 0.25528 0.21805 0.0
H1113 H 0.8083 0.27975 0.14093 0.0
H1114 H 0.89434 0.27334 0.16621 0.0
H1115 H 0.88117 0.24789 0.24238 0.0
H1116 H 0.80877 0.45524 0.85853 0.0
H1117 H 0.80251 0.43661 0.94225 0.0
H1118 H 0.71828 0.41141 0.91691 0.0
H1119 H 0.72471 0.42926 0.83246 0.0
Dy1120 Dy 0.45874 0.87823 0.18864 0.0
Dy1121 Dy 0.41494 0.91946 0.13762 0.0
C1122 C 0.39432 0.87382 0.22654 0.0
O1123 O 0.47743 0.88604 0.10962 0.0
O1124 O 0.43754 0.89099 0.07374 0.0
O1125 O 0.47165 0.83394 0.18843 0.0
O1126 O 0.49374 0.86877 0.22815 0.0
O1127 O 0.45539 0.94386 0.14168 0.0
O1128 O 0.47671 0.92136 0.20192 0.0
O1129 O 0.41364 0.93808 0.21818 0.0
O1130 O 0.43968 0.90591 0.25648 0.0
O1131 O 0.40285 0.96177 0.12057 0.0
O1132 O 0.38388 0.9242 0.08351 0.0
C1133 C 0.4647 0.88907 0.06894 0.0
O1134 O 0.41648 0.85887 0.20857 0.0
O1135 O 0.38793 0.89639 0.20162 0.0
C1136 C 0.49019 0.82516 0.26515 0.0
C1137 C 0.49676 0.80409 0.3598 0.0
C1138 C 0.47461 0.82241 0.3547 0.0
C1139 C 0.47139 0.83289 0.30772 0.0
C1140 C 0.51091 0.80514 0.26885 0.0
C1141 C 0.51412 0.79454 0.31587 0.0
C1142 C 0.49064 0.84095 0.21953 0.0
C1143 C 0.47323 0.94371 0.17658 0.0
C1144 C 0.42339 0.92862 0.25859 0.0
C1145 C 0.39131 0.96663 1.03464 0.0
C1146 C 0.39542 0.99694 0.94265 0.0
C1147 C 0.41265 0.00422 0.98231 0.0
C1148 C 0.41066 0.9894 1.02723 0.0
C1149 C 0.37404 0.95937 0.99521 0.0
C1150 C 0.3761 0.9741 0.95021 0.0
C1151 C 0.38747 0.95226 0.08454 0.0
H1152 H 0.46105 0.83053 0.38772 0.0
H1153 H 0.45542 0.84857 0.30546 0.0
H1154 H 0.52556 0.79897 0.23618 0.0
H1155 H 0.53111 0.78013 0.31843 0.0
H1156 H 0.42807 0.02123 0.97854 0.0
H1157 H 0.42428 0.99607 0.05647 0.0
H1158 H 0.35853 0.94245 0.99944 0.0
H1159 H 0.362 0.9678 0.92163 0.0
Dy1160 Dy 0.8277 0.67753 0.84897 0.0
Dy1161 Dy 0.77544 0.64189 0.90168 0.0
C1162 C 0.77002 0.7067 0.88612 0.0
O1163 O 0.83084 0.69196 0.93175 0.0
O1164 O 0.79073 0.67131 0.96855 0.0
O1165 O 0.85481 0.71417 0.83852 0.0
O1166 O 0.85794 0.67685 0.78284 0.0
O1167 O 0.81147 0.62109 0.92768 0.0
O1168 O 0.8489 0.64298 0.88558 0.0
O1169 O 0.7775 0.62701 0.81721 0.0
O1170 O 0.7962 0.66848 0.79053 0.0
O1171 O 0.75134 0.60256 0.89884 0.0
O1172 O 0.73899 0.63784 0.95523 0.0
C1173 C 0.8132 0.68812 0.9721 0.0
O1174 O 0.79688 0.71044 0.87901 0.0
O1175 O 0.75871 0.68138 0.87561 0.0
C1176 C 0.85788 0.72267 0.75238 0.0
C1177 C 0.84403 0.75543 0.67399 0.0
C1178 C 0.82403 0.74943 0.71383 0.0
C1179 C 0.83085 0.7331 0.75247 0.0
C1180 C 0.87813 0.72897 0.71329 0.0
C1181 C 0.87124 0.74526 0.67423 0.0
C1182 C 0.86387 0.70424 0.79222 0.0
C1183 C 0.83817 0.62585 0.91984 0.0
C1184 C 0.78114 0.64511 0.78168 0.0
C1185 C 0.73788 0.59102 0.98237 0.0
C1186 C 0.74619 0.56339 0.06996 0.0
C1187 C 0.76635 0.56171 1.02808 0.0
C1188 C 0.76217 0.57528 0.98454 0.0
C1189 C 0.71685 0.59099 1.02274 0.0
C1190 C 0.72091 0.57708 0.06627 0.0
C1191 C 0.73641 0.61032 0.94152 0.0
H1192 H 0.80283 0.7565 0.7142 0.0
H1193 H 0.81481 0.72817 0.78207 0.0
H1194 H 0.89903 0.72098 0.71255 0.0
H1195 H 0.8871 0.7497 0.64399 0.0
H1196 H 0.78595 0.55126 1.03019 0.0
H1197 H 0.77868 0.57477 0.95374 0.0
H1198 H 0.69803 0.60306 1.02184 0.0
H1199 H 0.7052 0.57889 0.09851 0.0
Dy1200 Dy 0.07054 0.0836 0.64011 0.0
Dy1201 Dy 0.10759 0.03344 0.67457 0.0
C1202 C 0.04253 0.02282 0.66253 0.0
O1203 O 0.05014 0.08149 0.7182 0.0
O1204 O 0.07915 0.04811 0.74637 0.0
O1205 O 0.03531 0.10929 0.62811 0.0
O1206 O 0.07343 0.11212 0.57832 0.0
O1207 O 0.12607 0.07164 0.7174 0.0
O1208 O 0.09533 0.1068 0.70571 0.0
O1209 O 0.11716 0.03256 0.58815 0.0
O1210 O 0.07474 0.04725 0.57686 0.0
O1211 O 0.14856 0.01561 0.67 0.0
O1212 O 0.11357 0.99298 0.70622 0.0
C1213 C 0.05777 0.06606 0.75395 0.0
O1214 O 0.03925 0.04969 0.65343 0.0
O1215 O 0.06705 0.01121 0.66336 0.0
C1216 C 0.03019 0.10953 0.53779 0.0
C1217 C -0.00082 0.0956 0.44985 0.0
C1218 C 0.988 0.09069 0.49992 0.0
C1219 C 0.00313 0.0975 0.54284 0.0
C1220 C 0.04145 0.11439 0.4879 0.0
C1221 C 0.02634 0.10755 0.44492 0.0
C1222 C 0.04654 0.11665 0.58391 0.0
C1223 C 0.11487 0.09679 0.73241 0.0
C1224 C 0.09708 0.03335 0.55841 0.0
C1225 C 0.1561 0.99147 0.74146 0.0
C1226 C 0.18215 0.98522 0.83055 0.0
C1227 C 0.17189 0.01211 0.82126 0.0
C1228 C 0.15896 0.01518 0.77721 0.0
C1229 C 0.16715 0.96481 0.74936 0.0
C1230 C 0.18006 0.96165 0.79381 0.0
C1231 C 0.1405 0.99443 0.69734 0.0
H1232 H 0.96721 0.08199 0.50639 0.0
H1233 H 0.99342 0.09332 0.58025 0.0
H1234 H 0.06215 0.12347 0.48194 0.0
H1235 H 0.03629 0.11138 0.40755 0.0
H1236 H 0.17244 0.03051 0.84941 0.0
H1237 H 0.15044 0.0359 0.77187 0.0
H1238 H 0.16508 0.9463 0.72196 0.0
H1239 H 0.18763 0.94066 0.80024 0.0
Dy1240 Dy 0.66965 0.32645 0.40151 0.0
Dy1241 Dy 0.72724 0.35219 0.44427 0.0
C1242 C 0.72222 0.28811 0.40492 0.0
O1243 O 0.6649 0.31205 0.48119 0.0
O1244 O 0.70816 0.32476 0.50741 0.0
O1245 O 0.6378 0.2942 0.38975 0.0
O1246 O 0.63984 0.33196 0.347 0.0
O1247 O 0.69489 0.37778 0.49162 0.0
O1248 O 0.65439 0.36436 0.4563 0.0
O1249 O 0.72689 0.36941 0.36663 0.0
O1250 O 0.70146 0.33233 0.33355 0.0
O1251 O 0.75579 0.38804 0.451 0.0
O1252 O 0.76542 0.34729 0.4788 0.0
C1253 C 0.68337 0.31211 0.51507 0.0
O1254 O 0.69516 0.28862 0.40896 0.0
O1255 O 0.73649 0.31153 0.39598 0.0
C1256 C 0.63489 0.28665 0.30175 0.0
C1257 C 0.64576 0.25234 0.20857 0.0
C1258 C 0.66634 0.25697 0.24249 0.0
C1259 C 0.66098 0.274 0.28844 0.0
C1260 C 0.61407 0.28183 0.26853 0.0
C1261 C 0.61947 0.26478 0.22216 0.0
C1262 C 0.63055 0.3055 0.34957 0.0
C1263 C 0.6679 0.37879 0.49194 0.0
C1264 C 0.71978 0.3532 0.32654 0.0
C1265 C 0.77428 0.39004 0.52906 0.0
C1266 C 0.7766 0.42239 0.62372 0.0
C1267 C 0.7525 0.40676 0.61266 0.0
C1268 C 0.75143 0.39064 0.56595 0.0
C1269 C 0.79837 0.40577 0.53936 0.0
C1270 C 0.79965 0.4217 0.58678 0.0
C1271 C 0.77144 0.37479 0.47885 0.0
H1272 H 0.68689 0.24815 0.23283 0.0
H1273 H 0.67745 0.27765 0.31337 0.0
H1274 H 0.59386 0.29146 0.27812 0.0
H1275 H 0.60315 0.26142 0.19683 0.0
H1276 H 0.73468 0.40622 0.64077 0.0
H1277 H 0.73267 0.37858 0.55859 0.0
H1278 H 0.81606 0.40575 0.51089 0.0
H1279 H 0.81854 0.43342 0.59462 0.0
C1280 C 0.08902 0.55919 0.54037 0.0
C1281 C 0.11145 0.54026 0.53874 0.0
H1282 H 0.05639 0.5818 0.58643 0.0
C1283 C 0.11752 0.52865 0.58344 0.0
H1284 H 0.08327 0.56772 0.50599 0.0
C1285 C 0.10144 0.53587 0.62914 0.0
C1286 C 0.07925 0.5552 0.63102 0.0
H1287 H 0.13444 0.51371 0.58285 0.0
H1288 H 0.10699 0.52684 0.6632 0.0
C1289 C 0.07311 0.56666 0.58614 0.0
C1290 C 0.786 0.92057 0.77151 0.0
C1291 C 0.76479 0.92383 0.81162 0.0
H1292 H 0.79654 0.91892 0.69117 0.0
C1293 C 0.73876 0.93378 0.80175 0.0
H1294 H 0.80635 0.91329 0.77813 0.0
C1295 C 0.73332 0.93775 0.75181 0.0
C1296 C 0.75378 0.93171 0.71099 0.0
H1297 H 0.72193 0.93639 0.83189 0.0
H1298 H 0.71266 0.94385 0.7448 0.0
C1299 C 0.78048 0.92426 0.72167 0.0
C1300 C 0.27592 0.49007 0.99027 0.0
C1301 C 0.29137 0.50657 0.95533 0.0
H1302 H 0.26752 0.48135 0.0686 0.0
C1303 C 0.30644 0.53075 0.97405 0.0
H1304 H 0.26363 0.47173 0.97694 0.0
C1305 C 0.30888 0.53609 1.02633 0.0
C1306 C 0.29624 0.51738 0.06073 0.0
H1307 H 0.31867 0.5439 0.94817 0.0
H1308 H 0.32293 0.55306 1.03893 0.0
C1309 C 0.27817 0.49559 1.04265 0.0
C1310 C 0.74547 0.05852 0.24233 0.0
C1311 C 0.71882 0.05899 0.2689 0.0
H1312 H 0.76914 0.06008 0.16984 0.0
C1313 C 0.69556 0.0545 0.2411 0.0
H1314 H 0.76384 0.062 0.26261 0.0
C1315 C 0.69868 0.05337 0.18782 0.0
C1316 C 0.72508 0.05677 0.16172 0.0
H1317 H 0.67484 0.05415 0.26062 0.0
H1318 H 0.68028 0.05236 0.16731 0.0
C1319 C 0.74857 0.05738 0.18904 0.0
C1320 C 0.90111 0.43999 0.89724 0.0
C1321 C 0.87933 0.45966 0.89833 0.0
H1322 H 0.93299 0.41598 0.85175 0.0
C1323 C 0.874 0.47154 0.85344 0.0
H1324 H 0.90632 0.4313 0.93185 0.0
C1325 C 0.88995 0.46355 0.80792 0.0
C1326 C 0.91124 0.44321 0.80647 0.0
H1327 H 0.85768 0.48713 0.85369 0.0
H1328 H 0.88489 0.4727 0.77364 0.0
C1329 C 0.9169 0.43179 0.85168 0.0
C1330 C 0.23151 0.03981 0.70535 0.0
C1331 C 0.25366 0.05416 0.72834 0.0
H1332 H 0.21016 0.03241 0.63761 0.0
C1333 C 0.27429 0.0676 0.69709 0.0
H1334 H 0.21573 0.02842 0.72786 0.0
C1335 C 0.27149 0.06902 0.6453 0.0
C1336 C 0.24784 0.05742 0.62382 0.0
H1337 H 0.29149 0.07916 0.71309 0.0
H1338 H 0.28674 0.0813 0.6231 0.0
C1339 C 0.22837 0.04186 0.65367 0.0
C1340 C 0.69325 0.46168 0.42062 0.0
C1341 C 0.70641 0.4812 0.38829 0.0
H1342 H 0.68045 0.45338 0.49787 0.0
C1343 C 0.72284 0.50357 0.40922 0.0
H1344 H 0.6805 0.4442 0.40542 0.0
C1345 C 0.72254 0.50911 0.46218 0.0
C1346 C 0.70621 0.49194 0.49473 0.0
H1347 H 0.73391 0.51818 0.38468 0.0
H1348 H 0.73318 0.52811 0.47764 0.0
C1349 C 0.69322 0.46698 0.47362 0.0
C1350 C 0.28891 0.94535 0.2532 0.0
C1351 C 0.26296 0.94039 0.27985 0.0
H1352 H 0.31198 0.94658 0.18001 0.0
C1353 C 0.23919 0.93851 0.25323 0.0
H1354 H 0.30749 0.94728 0.27319 0.0
C1355 C 0.24176 0.93782 0.19999 0.0
C1356 C 0.26815 0.93913 0.17271 0.0
H1357 H 0.21897 0.93456 0.2729 0.0
H1358 H 0.22332 0.93337 0.18027 0.0
C1359 C 0.29148 0.94479 0.19997 0.0
C1360 C 0.57522 0.06452 0.08508 0.0
C1361 C 0.58149 0.05307 0.12989 0.0
H1362 H 0.58519 0.06565 1.00494 0.0
C1363 C 0.6037 0.03377 0.12787 0.0
H1364 H 0.55845 0.07962 0.08547 0.0
C1365 C 0.61968 0.02657 0.08204 0.0
C1366 C 0.61351 0.03822 1.03742 0.0
H1367 H 0.60933 0.02477 0.16189 0.0
H1368 H 0.63661 0.01163 0.0813 0.0
C1369 C 0.59105 0.05711 1.03924 0.0
C1370 C 0.21834 0.4324 0.24087 0.0
C1371 C 0.24001 0.44465 0.21032 0.0
H1372 H 0.20443 0.41958 0.31496 0.0
C1373 C 0.26195 0.45871 0.23394 0.0
H1374 H 0.20119 0.4213 0.2238 0.0
C1375 C 0.26411 0.45734 0.28601 0.0
C1376 C 0.24396 0.44235 0.31541 0.0
H1377 H 0.27842 0.46895 0.21142 0.0
H1378 H 0.28233 0.46642 0.30258 0.0
C1379 C 0.22027 0.43134 0.29312 0.0
C1380 C 0.80961 0.04325 0.47176 0.0
C1381 C 0.79888 0.0176 0.44839 0.0
H1382 H 0.82212 0.06481 0.54123 0.0
C1383 C 0.78561 -0.00257 0.47922 0.0
H1384 H 0.81997 0.05919 0.44889 0.0
C1385 C 0.78668 0.00086 0.53205 0.0
C1386 C 0.80123 0.02427 0.55446 0.0
H1387 H 0.77674 0.97775 0.46216 0.0
H1388 H 0.77871 0.98383 0.55481 0.0
C1389 C 0.81082 0.04655 0.52468 0.0
C1390 C 0.20438 0.54084 0.67675 0.0
C1391 C 0.22809 0.55166 0.64885 0.0
H1392 H 0.18205 0.53815 0.75072 0.0
C1393 C 0.24939 0.56455 0.67613 0.0
H1394 H 0.18784 0.53003 0.65744 0.0
C1395 C 0.24636 0.56818 0.72927 0.0
C1396 C 0.22178 0.55955 0.75658 0.0
H1397 H 0.26773 0.57378 0.65682 0.0
H1398 H 0.26257 0.57952 0.74887 0.0
C1399 C 0.20105 0.54524 0.73017 0.0
C1400 C 0.4009 0.93549 0.39906 0.0
C1401 C 0.37838 0.95435 0.40138 0.0
H1402 H 0.43345 0.91325 0.35229 0.0
C1403 C 0.372 0.96613 0.357 0.0
H1404 H 0.40693 0.92685 0.43314 0.0
C1405 C 0.38788 0.95915 0.31096 0.0
C1406 C 0.41017 0.93993 0.30848 0.0
H1407 H 0.35503 0.98106 0.35812 0.0
H1408 H 0.3821 0.96826 0.27714 0.0
C1409 C 0.41662 0.9283 0.35302 0.0
C1410 C 0.77656 0.56904 0.14074 0.0
C1411 C 0.75335 0.5558 0.12009 0.0
H1412 H 0.79669 0.5808 0.20801 0.0
C1413 C 0.73532 0.53897 0.1503 0.0
H1414 H 0.7907 0.58224 0.11806 0.0
C1415 C 0.73927 0.5373 0.20172 0.0
C1416 C 0.76063 0.55337 0.22411 0.0
H1417 H 0.7175 0.52828 0.1348 0.0
H1418 H 0.72452 0.52493 0.22464 0.0
C1419 C 0.78008 0.56802 0.19239 0.0
C1420 C 0.17776 0.9616 0.96297 0.0
C1421 C 0.18923 0.98601 0.98892 0.0
H1422 H 0.16662 0.94213 0.8912 0.0
C1423 C 0.20481 0.00588 0.96069 0.0
H1424 H 0.16568 0.94588 0.98387 0.0
C1425 C 0.2058 0.00335 0.90744 0.0
C1426 C 0.19065 0.98144 0.88195 0.0
H1427 H 0.2143 0.02456 0.97988 0.0
H1428 H 0.21627 0.01994 0.88651 0.0
C1429 C 0.17836 0.95939 0.90975 0.0
C1430 C 0.75517 0.45125 0.70153 0.0
C1431 C 0.77814 0.43634 0.67598 0.0
H1432 H 0.73401 0.46613 0.77384 0.0
C1433 C 0.80024 0.43002 0.70367 0.0
H1434 H 0.73808 0.45687 0.68076 0.0
C1435 C 0.79784 0.43518 0.75681 0.0
C1436 C 0.77338 0.44682 0.78309 0.0
H1437 H 0.81817 0.41848 0.68499 0.0
H1438 H 0.81399 0.42738 0.77742 0.0
C1439 C 0.75281 0.45648 0.75473 0.0
C1440 C 0.14849 0.40175 0.44553 0.0
C1441 C 0.13775 0.38059 0.47729 0.0
H1442 H 0.14638 0.42222 0.37657 0.0
C1443 C 0.11427 0.36462 0.46308 0.0
H1444 H 0.16661 0.4144 0.45479 0.0
C1445 C 0.10255 0.3691 0.4175 0.0
C1446 C 0.11414 0.38951 0.38484 0.0
H1447 H 0.10578 0.34768 0.48576 0.0
H1448 H 0.08459 0.35635 0.40762 0.0
C1449 C 0.13704 0.40599 0.40003 0.0
C1450 C 0.84636 0.91218 0.62182 0.0
C1451 C 0.86428 0.89565 0.64704 0.0
H1452 H 0.82592 0.91926 0.55563 0.0
C1453 C 0.87552 0.87103 0.61648 0.0
H1454 H 0.83698 0.9314 0.64148 0.0
C1455 C 0.86845 0.86347 0.56465 0.0
C1456 C 0.85034 0.88053 0.54026 0.0
H1457 H 0.88982 0.85753 0.63241 0.0
H1458 H 0.87676 0.84386 0.5442 0.0
C1459 C 0.83989 0.90513 0.57088 0.0
C1460 C 0.36678 0.6032 0.88589 0.0
C1461 C 0.33769 0.60193 0.89569 0.0
H1462 H 0.40226 0.59415 0.83123 0.0
C1463 C 0.32224 0.59136 0.85501 0.0
H1464 H 0.37943 0.6117 0.9156 0.0
C1465 C 0.33513 0.5821 0.80684 0.0
C1466 C 0.36405 0.58287 0.79708 0.0
H1467 H 0.2998 0.59061 0.85975 0.0
H1468 H 0.32228 0.5741 0.77708 0.0
C1469 C 0.37982 0.59369 0.83714 0.0
C1470 C 0.60893 0.1486 0.0742 0.0
C1471 C 0.62848 0.12963 1.0461 0.0
H1472 H 0.58472 0.16112 0.14582 0.0
C1473 C 0.63863 0.10823 0.0749 0.0
H1474 H 0.6008 0.16597 0.05553 0.0
C1475 C 0.62982 0.10577 0.1278 0.0
C1476 C 0.61006 0.12448 0.15579 0.0
H1477 H 0.65377 0.09298 0.05638 0.0
H1478 H 0.63824 0.08858 0.14652 0.0
C1479 C 0.59996 0.14601 0.12717 0.0
C1480 C 0.09745 0.64731 0.62772 0.0
C1481 C 0.10767 0.6263 0.65732 0.0
H1482 H 0.09821 0.66618 0.55499 0.0
C1483 C 0.1277 0.6076 0.63034 0.0
H1484 H 0.08203 0.66243 0.64568 0.0
C1485 C 0.13658 0.60948 0.57743 0.0
C1486 C 0.12626 0.63016 0.54742 0.0
H1487 H 0.13624 0.59081 0.64985 0.0
H1488 H 0.15188 0.59428 0.55994 0.0
C1489 C 0.10651 0.64928 0.57457 0.0
C1490 C 0.6381 0.89989 0.90068 0.0
C1491 C 0.61389 0.88549 0.88623 0.0
H1492 H 0.66916 0.90458 0.95341 0.0
C1493 C 0.60132 0.86538 0.9185 0.0
H1494 H 0.64819 0.91586 0.87751 0.0
C1495 C 0.61323 0.85918 0.96299 0.0
C1496 C 0.638 0.87293 0.97631 0.0
H1497 H 0.58236 0.85426 0.90925 0.0
H1498 H 0.60375 0.84262 0.98552 0.0
C1499 C 0.64995 0.8937 0.94485 0.0
C1500 C 0.37923 0.37055 0.11605 0.0
C1501 C 0.37425 0.39875 0.14047 0.0
H1502 H 0.37507 0.34018 0.04904 0.0
C1503 C 0.36317 0.41813 0.1091 0.0
H1504 H 0.38801 0.35455 0.13698 0.0
C1505 C 0.35608 0.41008 0.05879 0.0
C1506 C 0.36004 0.382 1.03458 0.0
H1507 H 0.35996 0.44038 0.12321 0.0
H1508 H 0.34674 0.42621 1.03887 0.0
C1509 C 0.37213 0.36234 0.06452 0.0
C1510 C 0.86734 0.12288 0.37719 0.0
C1511 C 0.83924 0.11665 0.39165 0.0
H1512 H 0.90046 0.12168 0.3164 0.0
C1513 C 0.8228 0.10539 0.3529 0.0
H1514 H 0.88055 0.13226 0.40532 0.0
C1515 C 0.83399 0.1 0.30205 0.0
C1516 C 0.86206 0.1056 0.28771 0.0
H1517 H 0.80084 0.10129 0.36139 0.0
H1518 H 0.82054 0.09128 0.27376 0.0
C1519 C 0.87861 0.11736 0.32588 0.0
C1520 C 0.88979 0.62811 1.02035 0.0
C1521 C 0.87757 0.60832 0.05361 0.0
H1522 H 0.8875 0.64875 0.95099 0.0
C1523 C 0.85458 0.592 1.03842 0.0
H1524 H 0.90783 0.64071 1.03028 0.0
C1525 C 0.84371 0.59575 0.9922 0.0
C1526 C 0.855 0.6164 0.95988 0.0
H1527 H 0.84476 0.57625 0.06237 0.0
H1528 H 0.82557 0.58318 0.98286 0.0
C1529 C 0.87856 0.63221 0.97416 0.0
C1530 C 0.15081 0.10717 0.79695 0.0
C1531 C 0.12347 0.11086 0.78456 0.0
H1532 H 0.18046 0.11075 0.85201 0.0
C1533 C 0.1046 0.12189 0.82645 0.0
H1534 H 0.16635 0.09869 0.7674 0.0
C1535 C 0.11277 0.12793 0.87784 0.0
C1536 C 0.1402 0.12296 0.89 0.0
H1537 H 0.08309 0.12463 0.82015 0.0
H1538 H 0.09735 0.13573 0.90811 0.0
C1539 C 0.15885 0.11337 0.84717 0.0
C1540 C 0.66875 0.40831 0.57604 0.0
C1541 C 0.65305 0.39293 0.53993 0.0
H1542 H 0.67016 0.42835 0.65193 0.0
C1543 C 0.62491 0.38724 0.55481 0.0
H1544 H 0.69056 0.41288 0.56682 0.0
C1545 C 0.61305 0.39653 0.60446 0.0
C1546 C 0.62911 0.41154 0.64045 0.0
H1547 H 0.61225 0.37499 0.52869 0.0
H1548 H 0.59124 0.39224 0.61442 0.0
C1549 C 0.65708 0.41718 0.62535 0.0
C1550 C 0.38217 0.84493 0.36355 0.0
C1551 C 0.36262 0.86397 0.39148 0.0
H1552 H 0.40652 0.83233 0.29211 0.0
C1553 C 0.35259 0.88537 0.36254 0.0
H1554 H 0.39022 0.82757 0.38234 0.0
C1555 C 0.3615 0.88777 0.30967 0.0
C1556 C 0.38128 0.86902 0.28187 0.0
H1557 H 0.33749 0.90069 0.38093 0.0
H1558 H 0.35316 0.90495 0.29084 0.0
C1559 C 0.39127 0.84748 0.31061 0.0
C1560 C 0.88872 0.34786 0.80901 0.0
C1561 C 0.88101 0.37084 0.78119 0.0
H1562 H 0.88627 0.32756 0.88041 0.0
C1563 C 0.86322 0.39134 0.80972 0.0
H1564 H 0.90167 0.33095 0.78948 0.0
C1565 C 0.8542 0.38934 0.86259 0.0
C1566 C 0.86257 0.36687 0.89092 0.0
H1567 H 0.85682 0.40965 0.79148 0.0
H1568 H 0.84045 0.40585 0.88147 0.0
C1569 C 0.87992 0.34596 0.86218 0.0
C1570 C 0.3787 0.13106 0.47279 0.0
C1571 C 0.35514 0.11543 0.45804 0.0
H1572 H 0.4083 0.13859 0.52858 0.0
C1573 C 0.34417 0.09406 0.48916 0.0
H1574 H 0.38738 0.14813 0.45061 0.0
C1575 C 0.35548 0.0893 0.53456 0.0
C1576 C 0.37846 0.10547 0.55031 0.0
H1577 H 0.32598 0.08165 0.47949 0.0
H1578 H 0.34595 0.07297 0.55757 0.0
C1579 C 0.39027 0.12607 0.51828 0.0
C1580 C 0.60384 0.60416 0.33204 0.0
C1581 C 0.62289 0.59577 0.28869 0.0
H1582 H 0.59714 0.61674 0.41419 0.0
C1583 C 0.65096 0.59568 0.29874 0.0
H1584 H 0.5819 0.60433 0.32735 0.0
C1585 C 0.65958 0.6029 0.34825 0.0
C1586 C 0.64095 0.60985 0.3925 0.0
H1587 H 0.66671 0.58963 0.26784 0.0
H1588 H 0.6816 0.60338 0.35133 0.0
C1589 C 0.61264 0.61108 0.3827 0.0
C1590 C 0.12117 0.87681 0.05759 0.0
C1591 C 0.14939 0.88308 1.04433 0.0
H1592 H 0.08721 0.87853 0.11695 0.0
C1593 C 0.16508 0.89513 0.08368 0.0
H1594 H 0.1085 0.86687 1.02903 0.0
C1595 C 0.15319 0.90091 0.13393 0.0
C1596 C 0.12505 0.89518 0.14712 0.0
H1597 H 0.18704 0.89962 0.07622 0.0
H1598 H 0.16615 0.91013 0.16265 0.0
C1599 C 0.10912 0.88289 0.10835 0.0
C1600 C 0.99093 0.49511 0.16848 0.0
C1601 C 0.9829 0.52066 0.19819 0.0
H1602 H 0.0087 0.45342 0.16688 0.0
C1603 C 0.98609 0.52336 0.25069 0.0
H1604 H 0.98843 0.4924 0.12791 0.0
C1605 C -0.00289 0.50082 0.27316 0.0
C1606 C 0.00525 0.4753 0.24342 0.0
H1607 H 0.97938 0.54252 0.27472 0.0
H1608 H -0.00035 0.50354 0.31371 0.0
C1609 C 0.00196 0.47256 0.19094 0.0
C1610 C 0.76904 0.74126 0.43691 0.0
C1611 C 0.7548 0.76755 0.44236 0.0
H1612 H 0.77014 0.69811 0.45771 0.0
C1613 C 0.73005 0.77018 0.47468 0.0
H1614 H 0.78839 0.73858 0.41284 0.0
C1615 C 0.71988 0.74708 0.50127 0.0
C1616 C 0.73417 0.72082 0.49588 0.0
H1617 H 0.71884 0.79028 0.48052 0.0
H1618 H 0.7005 0.74969 0.5253 0.0
C1619 C 0.75891 0.7182 0.46357 0.0
C1620 C 0.51436 0.50439 0.69049 0.0
C1621 C 0.51737 0.49748 0.74053 0.0
H1622 H 0.48866 0.50246 0.62904 0.0
C1623 C 0.49587 0.48269 0.76707 0.0
H1624 H 0.53077 0.51519 0.66832 0.0
C1625 C 0.47163 0.4754 0.74435 0.0
C1626 C 0.46836 0.48315 0.6949 0.0
H1627 H 0.49771 0.47685 0.80547 0.0
H1628 H 0.45497 0.46503 0.76663 0.0
C1629 C 0.4904 0.49664 0.6675 0.0
C1630 C 0.72311 0.25732 0.93894 0.0
C1631 C 0.73207 0.22916 0.94294 0.0
H1632 H 0.72707 0.30206 0.96331 0.0
C1633 C 0.75129 0.22453 0.97782 0.0
H1634 H 0.70784 0.26143 0.91307 0.0
C1635 C 0.76148 0.24761 1.0079 0.0
C1636 C 0.75307 0.27589 1.0031 0.0
H1637 H 0.7579 0.203 0.98311 0.0
H1638 H 0.77669 0.24335 1.03378 0.0
C1639 C 0.73351 0.2805 0.96876 0.0
C1640 C 0.97461 0.49883 0.68374 0.0
C1641 C 0.9861 0.47256 0.69251 0.0
H1642 H 0.97421 0.54441 0.70133 0.0
C1643 C 0.0066 0.47235 0.72687 0.0
H1644 H 0.95834 0.49963 0.65842 0.0
C1645 C 0.01527 0.4979 0.75236 0.0
C1646 C 0.00373 0.52417 0.74369 0.0
H1647 H 0.01569 0.45234 0.73478 0.0
H1648 H 0.03152 0.49711 0.77771 0.0
C1649 C 0.9833 0.5244 0.70921 0.0
C1650 C 0.76966 0.74985 0.94835 0.0
C1651 C 0.75512 0.72673 0.92473 0.0
H1652 H 0.76979 0.78269 1.00996 0.0
C1653 C 0.7285 0.71942 0.94584 0.0
H1654 H 0.79041 0.75583 0.93348 0.0
C1655 C 0.71692 0.7345 0.99036 0.0
C1656 C 0.73156 0.75748 1.01417 0.0
H1657 H 0.71692 0.70147 0.92897 0.0
H1658 H 0.69619 0.72854 1.00536 0.0
C1659 C 0.75813 0.76485 0.99296 0.0
C1660 C 0.47749 0.50851 0.21067 0.0
C1661 C 0.47554 0.49897 0.26 0.0
H1662 H 0.50386 0.5146 0.14219 0.0
C1663 C 0.49976 0.49134 0.28039 0.0
H1664 H 0.45897 0.51356 0.19336 0.0
C1665 C 0.5249 0.49007 0.25024 0.0
C1666 C 0.52684 0.49815 0.19985 0.0
H1667 H 0.49873 0.48353 0.31806 0.0
H1668 H 0.54284 0.48275 0.26679 0.0
C1669 C 0.503 0.5081 0.18076 0.0
C1670 C 0.72767 0.22849 0.48994 0.0
C1671 C 0.75447 0.23335 0.50501 0.0
H1672 H 0.69695 0.24093 0.44378 0.0
C1673 C 0.77118 0.2552 0.48401 0.0
H1674 H 0.71445 0.21151 0.50474 0.0
C1675 C 0.76151 0.27144 0.4479 0.0
C1676 C 0.73467 0.26669 0.43298 0.0
H1677 H 0.79213 0.25927 0.49419 0.0
H1678 H 0.77482 0.28829 0.43293 0.0
C1679 C 0.71792 0.24488 0.45401 0.0
C1680 C 0.23701 0.27634 0.98154 0.0
C1681 C 0.25917 0.27245 0.94332 0.0
H1682 H 0.20949 0.25689 1.03697 0.0
C1683 C 0.27107 0.24502 0.93246 0.0
H1684 H 0.22783 0.29733 0.9918 0.0
C1685 C 0.26099 0.22195 0.95921 0.0
C1686 C 0.23867 0.22578 0.99712 0.0
H1687 H 0.28848 0.24139 0.90373 0.0
H1688 H 0.27009 0.20093 0.94881 0.0
C1689 C 0.22695 0.25328 1.00832 0.0
C1690 C 0.22747 0.74908 0.43104 0.0
C1691 C 0.23575 0.72063 0.43466 0.0
H1692 H 0.23154 0.79345 0.45715 0.0
C1693 C 0.25544 0.7154 0.46836 0.0
H1694 H 0.21214 0.75378 0.40569 0.0
C1695 C 0.26617 0.73815 0.49869 0.0
C1696 C 0.25742 0.76651 0.49577 0.0
H1697 H 0.26175 0.69366 0.47292 0.0
H1698 H 0.28155 0.73357 0.52402 0.0
C1699 C 0.23801 0.77175 0.46159 0.0
C1700 C 0.23274 0.22334 0.45357 0.0
C1701 C 0.25754 0.23048 0.42525 0.0
H1702 H 0.20324 0.23531 0.51667 0.0
C1703 C 0.27188 0.25595 0.43978 0.0
H1704 H 0.22151 0.20354 0.44406 0.0
C1705 C 0.26179 0.27381 0.4822 0.0
C1706 C 0.23693 0.26673 0.51039 0.0
H1707 H 0.2913 0.26181 0.41909 0.0
H1708 H 0.27299 0.29363 0.49167 0.0
C1709 C 0.22266 0.24118 0.49601 0.0
C1710 C 0.22867 0.7223 0.9824 0.0
C1711 C 0.25441 0.7273 1.00202 0.0
H1712 H 0.19975 0.73586 0.93386 0.0
C1713 C 0.2711 0.75059 0.98664 0.0
H1714 H 0.21557 0.70418 0.99261 0.0
C1715 C 0.26229 0.76845 0.95204 0.0
C1716 C 0.23645 0.76355 0.93272 0.0
H1717 H 0.29128 0.75471 1.00049 0.0
H1718 H 0.27531 0.78667 0.94199 0.0
C1719 C 0.21993 0.74004 0.94765 0.0
C1720 C 0.49503 0.99509 0.66635 0.0
C1721 C 0.48619 0.0203 0.69632 0.0
H1722 H 0.51269 0.95336 0.66481 0.0
C1723 C 0.48814 0.02244 0.74924 0.0
H1724 H 0.49352 0.99282 0.62543 0.0
C1725 C 0.49856 -0.0004 0.77189 0.0
C1726 C 0.50726 0.97434 0.74193 0.0
H1727 H 0.48081 0.04132 0.77343 0.0
H1728 H 0.50009 0.00185 0.8128 0.0
C1729 C 0.5054 0.97225 0.689 0.0
C1730 C 0.98572 0.97873 0.25094 0.0
C1731 C 0.01202 0.992 0.24976 0.0
H1732 H 0.94634 0.97619 0.22131 0.0
C1733 C 0.01884 0.01323 0.21591 0.0
H1734 H 0.98005 0.96193 0.27604 0.0
C1735 C -0.00013 0.02072 0.18331 0.0
C1736 C 0.9735 0.00759 0.18469 0.0
H1737 H 0.03921 0.02333 0.21301 0.0
H1738 H 0.00555 0.03753 0.15821 0.0
C1739 C 0.96672 0.98626 0.21837 0.0
C1740 C 0.50622 0.97057 0.23056 0.0
C1741 C 0.48628 0.97085 0.19512 0.0
H1742 H 0.53138 0.99533 0.28101 0.0
C1743 C 0.47593 0.99726 0.18421 0.0
H1744 H 0.51443 0.95047 0.24014 0.0
C1745 C 0.48526 0.0229 0.20847 0.0
C1746 C 0.50524 0.02262 0.24383 0.0
H1747 H 0.46013 -0.00184 0.15797 0.0
H1748 H 0.47704 0.04299 0.19887 0.0
C1749 C 0.51556 0.99621 0.2548 0.0
C1750 C -0.00124 0.97667 0.74865 0.0
C1751 C 0.97287 0.99003 0.75061 0.0
H1752 H 0.04102 0.97564 0.7171 0.0
C1753 C 0.96971 0.01258 0.71987 0.0
H1754 H 0.00163 0.95883 0.77128 0.0
C1755 C 0.99195 0.02149 0.68754 0.0
C1756 C 0.01797 0.00841 0.68597 0.0
H1757 H 0.94983 0.02274 0.7193 0.0
H1758 H 0.98889 0.03924 0.6648 0.0
C1759 C 0.02111 0.98574 0.71654 0.0
C1760 C 0.01933 0.29183 0.98531 0.0
C1761 C 0.00372 0.31169 1.01909 0.0
H1762 H 0.02784 0.27398 0.90769 0.0
C1763 C 0.98178 0.32599 1.00144 0.0
H1764 H 0.03635 0.28049 0.99809 0.0
C1765 C 0.97696 0.32237 0.95002 0.0
C1766 C 0.99404 0.30437 0.91512 0.0
H1767 H 0.9692 0.34112 1.02698 0.0
H1768 H 0.96114 0.33535 0.93713 0.0
C1769 C 0.01456 0.28824 0.93362 0.0
C1770 C 0.80247 0.70094 0.06884 0.0
C1771 C 0.819 0.70432 1.02264 0.0
H1772 H 0.79534 0.71269 0.14979 0.0
C1773 C 0.8415 0.72401 1.02485 0.0
H1774 H 0.78495 0.68613 0.06923 0.0
C1775 C 0.84734 0.7396 0.07101 0.0
C1776 C 0.83107 0.7362 0.11753 0.0
H1777 H 0.85475 0.7277 0.99051 0.0
H1778 H 0.86455 0.75477 0.06974 0.0
C1779 C 0.80841 0.71651 0.11535 0.0
C1780 C 0.56494 0.54005 0.36197 0.0
C1781 C 0.55189 0.54653 0.31905 0.0
H1782 H 0.5617 0.53956 0.44373 0.0
C1783 C 0.52468 0.55716 0.32646 0.0
H1784 H 0.58592 0.53196 0.3576 0.0
C1785 C 0.51092 0.56147 0.37537 0.0
C1786 C 0.52398 0.55546 0.41845 0.0
H1787 H 0.51385 0.56226 0.29436 0.0
H1788 H 0.49015 0.57012 0.37947 0.0
C1789 C 0.55115 0.54463 0.41127 0.0
C1790 C 0.64381 0.26467 0.61118 0.0
C1791 C 0.66084 0.26524 0.65189 0.0
H1792 H 0.63719 0.27845 0.53781 0.0
C1793 C 0.68576 0.28165 0.6466 0.0
H1794 H 0.62481 0.25204 0.61217 0.0
C1795 C 0.69317 0.29675 0.6028 0.0
C1796 C 0.67589 0.29627 0.56257 0.0
H1797 H 0.69956 0.28328 0.67669 0.0
H1798 H 0.71243 0.30899 0.60071 0.0
C1799 C 0.6511 0.27987 0.56776 0.0
C1800 C 0.96372 0.58499 0.96439 0.0
C1801 C 0.97529 0.58621 1.01149 0.0
H1802 H 0.96975 0.59095 0.88429 0.0
C1803 C 0.00345 0.59475 1.0121 0.0
H1804 H 0.94215 0.57886 0.96221 0.0
C1805 C 0.01956 0.60144 0.96697 0.0
C1806 C 0.00786 0.60059 0.91995 0.0
H1807 H 0.01318 0.596 0.04756 0.0
H1808 H 0.04118 0.60741 0.96901 0.0
C1809 C 0.97962 0.5923 0.91961 0.0
C1810 C 0.65481 0.71589 0.39856 0.0
C1811 C 0.67162 0.69129 0.3898 0.0
H1812 H 0.63355 0.74852 0.36615 0.0
C1813 C 0.68008 0.68087 0.33918 0.0
H1814 H 0.64811 0.72475 0.43707 0.0
C1815 C 0.67144 0.69455 0.29823 0.0
C1816 C 0.65422 0.71889 0.30724 0.0
H1817 H 0.69281 0.66185 0.33119 0.0
H1818 H 0.6779 0.68585 0.25952 0.0
C1819 C 0.64621 0.72946 0.35787 0.0
C1820 C 0.55418 0.45238 0.55935 0.0
C1821 C 0.5444 0.44483 0.60868 0.0
H1822 H 0.54822 0.4498 0.47893 0.0
C1823 C 0.51934 0.42869 0.61265 0.0
H1824 H 0.57326 0.46472 0.55406 0.0
C1825 C 0.50493 0.4201 0.56963 0.0
C1826 C 0.51471 0.42719 0.52009 0.0
H1827 H 0.51054 0.42252 0.64949 0.0
H1828 H 0.48572 0.40807 0.57565 0.0
C1829 C 0.5396 0.4438 0.51598 0.0
C1830 C 0.82146 0.26291 0.87877 0.0
C1831 C 0.8164 0.29259 0.88075 0.0
H1832 H 0.83362 0.22449 0.83253 0.0
C1833 C 0.81811 0.3061 0.835 0.0
H1834 H 0.82024 0.25192 0.9135 0.0
C1835 C 0.82594 0.29028 0.78822 0.0
C1836 C 0.83183 0.26068 0.78652 0.0
H1837 H 0.81462 0.32905 0.83559 0.0
H1838 H 0.82754 0.30124 0.75348 0.0
C1839 C 0.82906 0.24715 0.8323 0.0
C1840 C 0.0058 0.70034 0.48864 0.0
C1841 C 0.98501 0.69686 0.52876 0.0
H1842 H 0.01601 0.69861 0.40758 0.0
C1843 C 0.95729 0.69357 0.5174 0.0
H1844 H 0.0273 0.70334 0.49627 0.0
C1845 C 0.95083 0.69116 0.46679 0.0
C1846 C 0.97194 0.69191 0.42651 0.0
H1847 H 0.94073 0.69063 0.5472 0.0
H1848 H 0.92947 0.68711 0.45906 0.0
C1849 C -0.00068 0.69787 0.4379 0.0
C1850 C 0.18981 0.29625 0.36598 0.0
C1851 C 0.17302 0.29333 0.41207 0.0
H1852 H 0.19692 0.2844 0.28503 0.0
C1853 C 0.14985 0.27452 0.40955 0.0
H1854 H 0.20783 0.3104 0.3658 0.0
C1855 C 0.14369 0.25928 0.36324 0.0
C1856 C 0.1603 0.26214 0.31689 0.0
H1857 H 0.13632 0.27124 0.44375 0.0
H1858 H 0.12595 0.24477 0.36428 0.0
C1859 C 0.18357 0.281 0.31935 0.0
C1860 C 0.43769 0.44709 0.08524 0.0
C1861 C 0.45128 0.44312 0.12876 0.0
H1862 H 0.44049 0.44439 1.00325 0.0
C1863 C 0.4793 0.43513 0.12265 0.0
H1864 H 0.4161 0.45324 0.08888 0.0
C1865 C 0.49325 0.43024 0.07391 0.0
C1866 C 0.47937 0.4329 1.03021 0.0
H1867 H 0.49037 0.43221 0.15562 0.0
H1868 H 0.51464 0.4234 0.07042 0.0
C1869 C 0.45156 0.44178 1.03632 0.0
C1870 C 0.30409 0.71068 0.78881 0.0
C1871 C 0.32875 0.72756 0.78418 0.0
H1872 H 0.27753 0.68297 0.8342 0.0
C1873 C 0.34536 0.72867 0.82554 0.0
H1874 H 0.29063 0.70866 0.75819 0.0
C1875 C 0.33794 0.71353 0.86895 0.0
C1876 C 0.31344 0.69662 0.87351 0.0
H1877 H 0.36412 0.74169 0.82505 0.0
H1878 H 0.35155 0.71538 0.8994 0.0
C1879 C 0.29657 0.6956 0.83261 0.0
C1880 C 0.02623 0.41209 0.47568 0.0
C1881 C 0.01497 0.41036 0.42826 0.0
H1882 H 0.01978 0.40652 0.55587 0.0
C1883 C 0.98698 0.40133 0.4271 0.0
H1884 H 0.04767 0.41864 0.47827 0.0
C1885 C 0.97069 0.39464 0.47201 0.0
C1886 C 0.98208 0.39599 0.51934 0.0
H1887 H 0.97749 0.39969 0.39136 0.0
H1888 H 0.94919 0.3883 0.46956 0.0
C1889 C 0.01017 0.40478 0.52026 0.0
C1890 C 0.33926 0.2748 1.0375 0.0
C1891 C 0.32297 0.29979 1.04555 0.0
H1892 H 0.35904 0.24149 0.07084 0.0
C1893 C 0.314 0.31028 0.09593 0.0
H1894 H 0.3464 0.26588 0.99923 0.0
C1895 C 0.32146 0.29615 0.13731 0.0
C1896 C 0.33809 0.27138 0.12896 0.0
H1897 H 0.30165 0.3296 0.10343 0.0
H1898 H 0.31454 0.30481 0.17584 0.0
C1899 C 0.34675 0.26085 0.0786 0.0
C1900 C 0.44329 0.54471 0.92825 0.0
C1901 C 0.47173 0.55279 0.9251 0.0
H1902 H 0.40764 0.53155 0.88796 0.0
C1903 C 0.48567 0.5531 0.8757 0.0
H1904 H 0.43165 0.54387 0.96527 0.0
C1905 C 0.47185 0.54615 0.83155 0.0
C1906 C 0.44348 0.53814 0.83442 0.0
H1907 H 0.50731 0.55949 0.87083 0.0
H1908 H 0.48364 0.54732 0.79474 0.0
C1909 C 0.42945 0.53735 0.88371 0.0
C1910 C 0.15338 0.74426 0.61146 0.0
C1911 C 0.15697 0.73082 0.65586 0.0
H1912 H 0.15736 0.7412 0.52996 0.0
C1913 C 0.16879 0.7032 0.65106 0.0
H1914 H 0.14497 0.76577 0.61392 0.0
C1915 C 0.17607 0.68898 0.60259 0.0
C1916 C 0.17175 0.70225 0.55824 0.0
H1917 H 0.17178 0.69234 0.68475 0.0
H1918 H 0.18417 0.66732 0.59991 0.0
C1919 C 0.16075 0.73021 0.56333 0.0
C1920 C 0.5321 0.8025 0.42247 0.0
C1921 C 0.50429 0.79927 0.41161 0.0
H1922 H 0.56028 0.80888 0.48022 0.0
C1923 C 0.48367 0.796 0.45211 0.0
H1924 H 0.54853 0.8053 0.39237 0.0
C1925 C 0.49043 0.7985 0.50269 0.0
C1926 C 0.51793 0.80428 0.51355 0.0
H1927 H 0.46211 0.79307 0.44489 0.0
H1928 H 0.47389 0.79785 0.5333 0.0
C1929 C 0.53884 0.80494 0.4729 0.0
C1930 C 0.30437 0.20175 0.56867 0.0
C1931 C 0.32122 0.20416 0.52249 0.0
H1932 H 0.29735 0.21429 0.64939 0.0
C1933 C 0.34457 0.22274 0.52448 0.0
H1934 H 0.2862 0.1878 0.56922 0.0
C1935 C 0.35086 0.23826 0.57042 0.0
C1936 C 0.33419 0.23591 0.61686 0.0
H1937 H 0.35813 0.22562 0.49015 0.0
H1938 H 0.36873 0.25259 0.56901 0.0
C1939 C 0.31074 0.21728 0.61493 0.0
C1940 C -0.00064 0.08732 0.85463 0.0
C1941 C 0.01198 0.08668 0.90028 0.0
H1942 H 0.00383 0.08085 0.77305 0.0
C1943 C 0.03948 0.07687 0.89768 0.0
H1944 H 0.97832 0.09486 0.85511 0.0
C1945 C 0.05417 0.06856 0.85026 0.0
C1946 C 0.04175 0.07043 0.80468 0.0
H1947 H 0.04968 0.07578 0.93226 0.0
H1948 H 0.07553 0.06187 0.84917 0.0
C1949 C 0.01406 0.0794 0.80752 0.0
C1950 C 0.19285 0.7972 0.10483 0.0
C1951 C 0.17661 0.79434 0.06295 0.0
H1952 H 0.19832 0.78605 0.18077 0.0
C1953 C 0.15288 0.77627 0.06735 0.0
H1954 H 0.21125 0.8108 0.10341 0.0
C1955 C 0.14554 0.76182 0.11152 0.0
C1956 C 0.16147 0.76476 0.15383 0.0
H1957 H 0.13976 0.77302 1.03625 0.0
H1958 H 0.12737 0.7479 0.11193 0.0
C1959 C 0.18542 0.78272 0.1494 0.0
C1960 C 0.52148 0.10079 0.46557 0.0
C1961 C 0.51005 0.09914 0.41821 0.0
H1962 H 0.51477 0.09606 0.54639 0.0
C1963 C 0.48202 0.09015 0.41752 0.0
H1964 H 0.54294 0.10731 0.46787 0.0
C1965 C 0.46606 0.08289 0.46226 0.0
C1966 C 0.47734 0.08491 0.50969 0.0
H1967 H 0.47237 0.08818 0.38194 0.0
H1968 H 0.44466 0.07614 0.45978 0.0
C1969 C 0.50527 0.09419 0.51067 0.0
C1970 C 0.17561 0.20171 0.79709 0.0
C1971 C 0.16045 0.22747 0.80526 0.0
H1972 H 0.19474 0.16802 0.83142 0.0
C1973 C 0.15448 0.23999 0.85537 0.0
H1974 H 0.18053 0.19163 0.75873 0.0
C1975 C 0.16272 0.2267 0.89658 0.0
C1976 C 0.17705 0.20045 0.8888 0.0
H1977 H 0.14349 0.26019 0.86278 0.0
H1978 H 0.15744 0.23689 0.93477 0.0
C1979 C 0.18386 0.18829 0.83858 0.0
C1980 C 0.03952 0.93844 0.07514 0.0
C1981 C 0.03372 0.92423 0.12017 0.0
H1982 H 0.0299 0.94336 0.9983 0.0
C1983 C 0.012 0.90349 0.12015 0.0
H1984 H 0.05595 0.95452 0.07303 0.0
C1985 C -0.00317 0.89715 0.07726 0.0
C1986 C 0.00256 0.91118 1.03199 0.0
H1987 H 0.00645 0.89203 0.15371 0.0
H1988 H 0.98017 0.88138 0.08019 0.0
C1989 C 0.02427 0.93208 1.03202 0.0
C1990 C 0.33692 0.76157 0.37196 0.0
C1991 C 0.32224 0.78761 0.37705 0.0
H1992 H 0.35472 0.72688 0.32166 0.0
C1993 C 0.31423 0.79865 0.33286 0.0
H1994 H 0.34332 0.75228 0.40515 0.0
C1995 C 0.32099 0.78399 0.2846 0.0
C1996 C 0.33595 0.75809 0.27971 0.0
H1997 H 0.3032 0.81882 0.33541 0.0
H1998 H 0.31483 0.7931 0.25106 0.0
C1999 C 0.34372 0.74705 0.32398 0.0
C2000 C 0.49999 0.1955 0.9354 0.0
C2001 C 0.47247 0.18968 0.92471 0.0
H2002 H 0.52846 0.2008 0.99296 0.0
C2003 C 0.45166 0.18884 0.96548 0.0
H2004 H 0.51646 0.1963 0.9047 0.0
C2005 C 0.45852 0.19112 1.01584 0.0
C2006 C 0.48637 0.19437 1.02649 0.0
H2007 H 0.4302 0.18487 0.95831 0.0
H2008 H 0.44217 0.18817 1.04601 0.0
C2009 C 0.50688 0.19784 0.9859 0.0
C2010 C 0.68144 0.76864 0.82204 0.0
C2011 C 0.65817 0.74979 0.81948 0.0
H2012 H 0.70551 0.79822 0.86842 0.0
C2013 C 0.64135 0.74717 0.86571 0.0
H2014 H 0.69496 0.77192 0.78787 0.0
C2015 C 0.64726 0.7627 0.91192 0.0
C2016 C 0.67041 0.78151 0.91444 0.0
H2017 H 0.62362 0.73265 0.86676 0.0
H2018 H 0.63359 0.75964 0.94604 0.0
C2019 C 0.68748 0.78409 0.86857 0.0
C2020 C 0.94894 0.92233 0.53775 0.0
C2021 C 0.9764 0.91244 0.53522 0.0
H2022 H 0.91302 0.93778 0.58618 0.0
C2023 C 0.98906 0.91192 0.58088 0.0
H2024 H 0.93871 0.9233 0.50317 0.0
C2025 C 0.97446 0.92023 0.62793 0.0
C2026 C 0.94689 0.9295 0.63062 0.0
H2027 H 0.01006 0.90428 0.58042 0.0
H2028 H 0.98467 0.91894 0.66248 0.0
C2029 C 0.93435 0.93099 0.58508 0.0
C2030 C 0.80462 0.21575 0.29041 0.0
C2031 C 0.82844 0.23385 0.28569 0.0
H2032 H 0.77907 0.18767 0.33678 0.0
C2033 C 0.84446 0.23707 0.32786 0.0
H2034 H 0.79167 0.21219 0.25914 0.0
C2035 C 0.8373 0.22275 0.37226 0.0
C2036 C 0.81368 0.20454 0.37692 0.0
H2037 H 0.86255 0.2511 0.32715 0.0
H2038 H 0.85044 0.22618 0.40329 0.0
C2039 C 0.79738 0.2014 0.33515 0.0
C2040 C 0.52602 0.91056 0.97583 0.0
C2041 C 0.51477 0.90887 0.92839 0.0
H2042 H 0.51959 0.90503 0.05606 0.0
C2043 C 0.48673 0.89996 0.92735 0.0
H2044 H 0.54749 0.91701 0.97838 0.0
C2045 C 0.47041 0.89339 0.97235 0.0
C2046 C 0.48182 0.89469 1.0197 0.0
H2047 H 0.47723 0.89835 0.89163 0.0
H2048 H 0.44889 0.88715 0.96997 0.0
C2049 C 0.50995 0.90333 1.02048 0.0
C2050 C 0.83582 0.77283 0.53921 0.0
C2051 C 0.81884 0.79729 0.54723 0.0
H2052 H 0.85705 0.74063 0.5728 0.0
C2053 C 0.81023 0.80814 0.59756 0.0
H2054 H 0.84272 0.76372 0.50095 0.0
C2055 C 0.81866 0.79481 0.63898 0.0
C2056 C 0.8359 0.77052 0.63068 0.0
H2057 H 0.79742 0.82714 0.60496 0.0
H2058 H 0.81196 0.80367 0.67749 0.0
C2059 C 0.84429 0.75966 0.58039 0.0
C2060 C 0.96288 0.0659 0.40103 0.0
C2061 C 0.98264 0.08874 0.40344 0.0
H2062 H 0.93297 0.04195 0.35783 0.0
C2063 C 0.9863 0.10517 0.36069 0.0
H2064 H 0.95937 0.05227 0.43226 0.0
C2065 C 0.9712 0.09902 0.31769 0.0
C2066 C 0.95156 0.07621 0.31519 0.0
H2067 H 0.00065 0.12327 0.36047 0.0
H2068 H 0.97499 0.11246 0.28621 0.0
C2069 C 0.94765 0.05979 0.35786 0.0
C2070 C 0.6513 0.23224 0.06582 0.0
C2071 C 0.66682 0.20674 0.06079 0.0
H2072 H 0.63256 0.26644 0.11605 0.0
C2073 C 0.67519 0.19604 0.10501 0.0
H2074 H 0.64457 0.24122 1.0326 0.0
C2075 C 0.66806 0.21058 0.1532 0.0
C2076 C 0.6524 0.23601 0.15802 0.0
H2077 H 0.68683 0.17626 0.10251 0.0
H2078 H 0.67458 0.20178 0.18676 0.0
C2079 C 0.64415 0.24664 0.11377 0.0
C2080 C 0.09213 0.49962 0.09233 0.0
C2081 C 0.09068 0.48376 1.04456 0.0
H2082 H 0.09086 0.49973 0.1736 0.0
C2083 C 0.08709 0.45344 1.04511 0.0
H2084 H 0.09543 0.52274 0.09447 0.0
C2085 C 0.08454 0.43982 0.0916 0.0
C2086 C 0.0857 0.45598 0.13928 0.0
H2087 H 0.08564 0.44017 1.00958 0.0
H2088 H 0.0812 0.41671 0.09017 0.0
C2089 C 0.08973 0.48612 0.13832 0.0
C2090 C 0.73044 0.82049 0.22676 0.0
C2091 C 0.72393 0.84494 0.20244 0.0
H2092 H 0.75142 0.80314 0.28517 0.0
C2093 C 0.73382 0.87195 0.22274 0.0
H2094 H 0.72356 0.79926 0.21253 0.0
C2095 C 0.7494 0.87431 0.26607 0.0
C2096 C 0.75645 0.84961 0.28934 0.0
H2097 H 0.72941 0.89132 0.20527 0.0
H2098 H 0.75655 0.89538 0.28049 0.0
C2099 C 0.74666 0.82273 0.26863 0.0
C2100 C 0.36376 0.49255 0.51554 0.0
C2101 C 0.3882 0.49966 0.53937 0.0
H2102 H 0.34572 0.47695 0.44601 0.0
C2103 C 0.41367 0.49575 0.5093 0.0
H2104 H 0.34375 0.49512 0.53748 0.0
C2105 C 0.41485 0.48482 0.45755 0.0
C2106 C 0.39056 0.47783 0.43314 0.0
H2107 H 0.43292 0.50061 0.52624 0.0
H2108 H 0.43507 0.48194 0.43646 0.0
C2109 C 0.3649 0.48217 0.46296 0.0
C2110 C 0.74454 0.12063 0.68381 0.0
C2111 C 0.75699 0.14644 0.66752 0.0
H2112 H 0.71996 0.09978 0.74353 0.0
C2113 C 0.75343 0.1714 0.70186 0.0
H2114 H 0.74668 0.10088 0.65883 0.0
C2115 C 0.7375 0.17092 0.74952 0.0
C2116 C 0.72501 0.14529 0.76609 0.0
H2117 H 0.76239 0.19178 0.69134 0.0
H2118 H 0.73502 0.19093 0.77374 0.0
C2119 C 0.72921 0.11996 0.73264 0.0
C2120 C 0.88764 0.50066 0.34818 0.0
C2121 C 0.89596 0.51421 0.39434 0.0
H2122 H 0.88411 0.50269 0.26821 0.0
C2123 C 0.90656 0.54279 0.3928 0.0
H2124 H 0.87975 0.47872 0.34661 0.0
C2125 C 0.90903 0.55691 0.34687 0.0
C2126 C 0.90123 0.54287 0.30064 0.0
H2127 H 0.91301 0.55437 0.42721 0.0
H2128 H 0.91784 0.57848 0.34731 0.0
C2129 C 0.89029 0.51458 0.3026 0.0
C2130 C 0.24074 0.16961 0.17169 0.0
C2131 C 0.23045 0.14327 0.14962 0.0
H2132 H 0.26436 0.19158 0.2286 0.0
C2133 C 0.23705 0.11794 0.17153 0.0
H2134 H 0.2364 0.18966 0.15626 0.0
C2135 C 0.25275 0.11916 0.21469 0.0
C2136 C 0.26321 0.14563 0.23627 0.0
H2137 H 0.22958 0.09723 0.15604 0.0
H2138 H 0.25688 0.09931 0.23094 0.0
C2139 C 0.25705 0.17072 0.21342 0.0
C2140 C 0.60476 0.52542 0.91626 0.0
C2141 C 0.60526 0.49562 0.89977 0.0
H2142 H 0.60509 0.55855 0.9791 0.0
C2143 C 0.60776 0.47653 0.93779 0.0
H2144 H 0.60264 0.54105 0.88888 0.0
C2145 C 0.60947 0.48667 0.98977 0.0
C2146 C 0.60845 0.5164 1.00654 0.0
H2147 H 0.60811 0.45349 0.92753 0.0
H2148 H 0.61095 0.47092 1.01721 0.0
C2149 C 0.60617 0.53557 0.96848 0.0
C2150 C 0.24589 0.87521 0.75359 0.0
C2151 C 0.2344 0.84935 0.77151 0.0
H2152 H 0.26973 0.8957 0.69256 0.0
C2153 C 0.23918 0.82387 0.73892 0.0
H2154 H 0.24281 0.89535 0.77719 0.0
C2155 C 0.25522 0.82397 0.69129 0.0
C2156 C 0.26665 0.84967 0.67297 0.0
H2157 H 0.23102 0.80344 0.75079 0.0
H2158 H 0.25853 0.80361 0.66842 0.0
C2159 C 0.26135 0.87544 0.70479 0.0
C2160 C 0.58336 0.93782 0.59214 0.0
C2161 C 0.58845 0.95297 0.63922 0.0
H2162 H 0.58178 0.93914 0.51079 0.0
C2163 C 0.59669 0.98222 0.63775 0.0
H2164 H 0.57671 0.91546 0.59115 0.0
C2165 C 0.59944 0.9959 0.59189 0.0
C2166 C 0.59399 0.98113 0.54476 0.0
H2167 H 0.60071 0.99504 0.67267 0.0
H2168 H 0.60517 0.01853 0.59391 0.0
C2169 C 0.58599 0.95167 0.54585 0.0
C2170 C 0.23652 0.32647 0.7229 0.0
C2171 C 0.23004 0.35142 0.69994 0.0
H2172 H 0.25755 0.30789 0.78005 0.0
C2173 C 0.24027 0.37803 0.72144 0.0
H2174 H 0.22941 0.3055 0.70783 0.0
C2175 C 0.25607 0.37952 0.76452 0.0
C2176 C 0.26302 0.35433 0.78653 0.0
H2177 H 0.23593 0.3978 0.70514 0.0
H2178 H 0.2634 0.40034 0.77983 0.0
C2179 C 0.25293 0.32785 0.7646 0.0
C2180 C 0.86911 -0.00062 1.01533 0.0
C2181 C 0.89272 0.01605 1.02743 0.0
H2182 H 0.84914 0.97209 0.95839 0.0
C2183 C 0.91468 0.01734 0.98845 0.0
H2184 H 0.85175 -0.00232 1.04407 0.0
C2185 C 0.91354 0.00188 0.94004 0.0
C2186 C 0.88997 0.98534 0.92774 0.0
H2187 H 0.93333 0.02958 0.99593 0.0
H2188 H 0.93131 0.00289 0.91193 0.0
C2189 C 0.86754 0.98473 0.96599 0.0
C2190 C 0.23282 0.66599 0.24326 0.0
C2191 C 0.22007 0.64066 0.26066 0.0
H2192 H 0.25822 0.68597 0.18461 0.0
C2193 C 0.22418 0.61498 0.22811 0.0
H2194 H 0.23047 0.68626 0.26676 0.0
C2195 C 0.23979 0.61499 0.17944 0.0
C2196 C 0.25262 0.64046 0.16246 0.0
H2197 H 0.21479 0.59501 0.23968 0.0
H2198 H 0.24196 0.59496 0.15522 0.0
C2199 C 0.24901 0.66582 0.19578 0.0
C2200 C 0.39335 0.99731 0.84613 0.0
C2201 C 0.39793 0.0124 0.89342 0.0
H2202 H 0.39291 -0.0022 0.76512 0.0
C2203 C 0.40523 0.04205 0.89238 0.0
H2204 H 0.38818 0.97454 0.84409 0.0
C2205 C 0.40802 0.05577 0.84596 0.0
C2206 C 0.40382 0.04029 0.79873 0.0
H2207 H 0.40875 0.05483 0.92758 0.0
H2208 H 0.41411 0.0783 0.847 0.0
C2209 C 0.39626 0.01086 0.80015 0.0
C2210 C 0.75521 0.61466 0.71399 0.0
C2211 C 0.76519 0.64162 0.73443 0.0
H2212 H 0.73237 0.59135 0.6562 0.0
C2213 C 0.75874 0.6661 0.71016 0.0
H2214 H 0.75955 0.59524 0.7314 0.0
C2215 C 0.74253 0.66396 0.66824 0.0
C2216 C 0.73264 0.63714 0.64743 0.0
H2217 H 0.76567 0.68731 0.72443 0.0
H2218 H 0.73786 0.6836 0.65179 0.0
C2219 C 0.7396 0.61239 0.67066 0.0
C2220 C 0.07244 0.98292 0.44732 0.0
C2221 C 0.09381 0.98485 0.40739 0.0
H2222 H 0.05651 0.99685 0.52453 0.0
C2223 C 0.11718 0.00217 0.41863 0.0
H2224 H 0.05398 0.97016 0.44063 0.0
C2225 C 0.11907 0.01686 0.46789 0.0
C2226 C 0.09718 0.01562 0.5071 0.0
H2227 H 0.13411 0.00439 0.38922 0.0
H2228 H 0.13725 0.03002 0.4747 0.0
C2229 C 0.07387 -0.00162 0.49571 0.0
C2230 C 0.74851 0.38067 0.25812 0.0
C2231 C 0.73545 0.35507 0.27402 0.0
H2232 H 0.77348 0.40126 0.19857 0.0
C2233 C 0.73842 0.33019 0.2394 0.0
H2234 H 0.74687 0.40033 0.2834 0.0
C2235 C 0.75432 0.33054 0.19174 0.0
C2236 C 0.76735 0.35598 0.17547 0.0
H2237 H 0.72901 0.30996 0.24973 0.0
H2238 H 0.75631 0.31059 0.16723 0.0
C2239 C 0.7638 0.38124 0.20925 0.0
loop_
_geom_bond_atom_site_label_1
_geom_bond_atom_site_label_2
_geom_bond_distance
_geom_bond_site_symmetry_2
_ccdc_geom_bond_type
Dy0 O3 2.307 . S
Dy0 O5 2.395 . S
Dy0 O6 2.379 . S
Dy0 O8 2.339 . S
Dy0 O10 2.298 . S
Dy0 O14 2.275 . S
Dy0 C22 2.738 . S
Dy1 O4 2.298 . S
Dy1 O7 2.275 . S
Dy1 O9 2.307 . S
Dy1 O11 2.395 . S
Dy1 O12 2.379 . S
Dy1 O15 2.339 . S
Dy1 C31 2.738 . S
C2 O14 1.254 . S
C2 O15 1.257 . S
O3 Dy0 2.307 . S
O3 C13 1.266 . S
O4 Dy1 2.298 . S
O4 C13 1.236 . S
O5 Dy0 2.395 . S
O5 C22 1.255 . S
O6 Dy0 2.379 . S
O6 C22 1.249 . S
O7 Dy1 2.275 . S
O7 C23 1.254 . S
O8 Dy0 2.339 . S
O8 C23 1.257 . S
O9 Dy1 2.307 . S
O9 C24 1.266 . S
O10 Dy0 2.298 . S
O10 C24 1.236 . S
O11 Dy1 2.395 . S
O11 C31 1.255 . S
O12 Dy1 2.379 . S
O12 C31 1.249 . S
C13 O3 1.266 . S
C13 O4 1.236 . S
O14 Dy0 2.275 . S
O14 C2 1.254 . S
O15 Dy1 2.339 . S
O15 C2 1.257 . S
C16 C19 1.344 . S
C16 C20 1.328 . S
C16 C22 1.516 . S
C17 C18 1.304 . S
C17 C21 1.323 . S
C18 C17 1.304 . S
C18 C19 1.371 . S
C18 H32 0.930 . S
C19 C16 1.344 . S
C19 C18 1.371 . S
C19 H33 0.931 . S
C20 C16 1.328 . S
C20 C21 1.433 . S
C20 H34 0.931 . S
C21 C17 1.323 . S
C21 C20 1.433 . S
C21 H35 0.933 . S
C22 Dy0 2.738 . S
C22 O5 1.255 . S
C22 O6 1.249 . S
C22 C16 1.516 . S
C23 O7 1.254 . S
C23 O8 1.257 . S
C24 O9 1.266 . S
C24 O10 1.236 . S
C25 C28 1.344 . S
C25 C29 1.328 . S
C25 C31 1.516 . S
C26 C27 1.304 1_556 S
C26 C30 1.323 1_556 S
C27 C26 1.304 1_554 S
C27 C28 1.371 . S
C27 H36 0.930 1_554 S
C28 C25 1.344 . S
C28 C27 1.371 . S
C28 H37 0.931 . S
C29 C25 1.328 . S
C29 C30 1.433 . S
C29 H38 0.931 . S
C30 C26 1.323 1_554 S
C30 C29 1.433 . S
C30 H39 0.933 . S
C31 Dy1 2.738 . S
C31 O11 1.255 . S
C31 O12 1.249 . S
C31 C25 1.516 . S
H32 C18 0.930 . S
H33 C19 0.931 . S
H34 C20 0.931 . S
H35 C21 0.933 . S
H36 C27 0.930 1_556 S
H37 C28 0.931 . S
H38 C29 0.931 . S
H39 C30 0.933 . S
Dy40 O43 2.307 . S
Dy40 O45 2.395 . S
Dy40 O46 2.379 . S
Dy40 O48 2.339 . S
Dy40 O50 2.298 . S
Dy40 O54 2.275 . S
Dy40 C62 2.738 . S
Dy41 O44 2.298 . S
Dy41 O47 2.275 . S
Dy41 O49 2.307 . S
Dy41 O51 2.395 . S
Dy41 O52 2.379 . S
Dy41 O55 2.339 . S
Dy41 C71 2.738 . S
C42 O54 1.254 . S
C42 O55 1.257 . S
O43 Dy40 2.307 . S
O43 C53 1.266 . S
O44 Dy41 2.298 . S
O44 C53 1.236 . S
O45 Dy40 2.395 . S
O45 C62 1.255 . S
O46 Dy40 2.379 . S
O46 C62 1.249 . S
O47 Dy41 2.275 . S
O47 C63 1.254 . S
O48 Dy40 2.339 . S
O48 C63 1.257 . S
O49 Dy41 2.307 . S
O49 C64 1.266 . S
O50 Dy40 2.298 . S
O50 C64 1.236 . S
O51 Dy41 2.395 . S
O51 C71 1.255 . S
O52 Dy41 2.379 . S
O52 C71 1.249 . S
C53 O43 1.266 . S
C53 O44 1.236 . S
O54 Dy40 2.275 . S
O54 C42 1.254 . S
O55 Dy41 2.339 . S
O55 C42 1.257 . S
C56 C59 1.344 . S
C56 C60 1.328 . S
C56 C62 1.516 . S
C57 C58 1.304 . S
C57 C61 1.323 . S
C58 C57 1.304 . S
C58 C59 1.371 . S
C58 H72 0.930 . S
C59 C56 1.344 . S
C59 C58 1.371 . S
C59 H73 0.931 . S
C60 C56 1.328 . S
C60 C61 1.433 . S
C60 H74 0.931 . S
C61 C57 1.323 . S
C61 C60 1.433 . S
C61 H75 0.933 . S
C62 Dy40 2.738 . S
C62 O45 1.255 . S
C62 O46 1.249 . S
C62 C56 1.516 . S
C63 O47 1.254 . S
C63 O48 1.257 . S
C64 O49 1.266 . S
C64 O50 1.236 . S
C65 C68 1.344 . S
C65 C69 1.328 . S
C65 C71 1.516 . S
C66 C67 1.304 . S
C66 C70 1.323 . S
C67 C66 1.304 . S
C67 C68 1.371 . S
C67 H76 0.930 . S
C68 C65 1.344 . S
C68 C67 1.371 . S
C68 H77 0.931 . S
C69 C65 1.328 . S
C69 C70 1.433 . S
C69 H78 0.931 . S
C70 C66 1.323 . S
C70 C69 1.433 . S
C70 H79 0.933 . S
C71 Dy41 2.738 . S
C71 O51 1.255 . S
C71 O52 1.249 . S
C71 C65 1.516 . S
H72 C58 0.930 . S
H73 C59 0.931 . S
H74 C60 0.931 . S
H75 C61 0.933 . S
H76 C67 0.930 . S
H77 C68 0.931 . S
H78 C69 0.931 . S
H79 C70 0.933 . S
Dy80 O83 2.307 . S
Dy80 O85 2.395 . S
Dy80 O86 2.379 . S
Dy80 O88 2.339 . S
Dy80 O90 2.298 . S
Dy80 O94 2.275 . S
Dy80 C102 2.738 . S
Dy81 O84 2.298 . S
Dy81 O87 2.275 . S
Dy81 O89 2.307 . S
Dy81 O91 2.395 . S
Dy81 O92 2.379 . S
Dy81 O95 2.339 . S
Dy81 C111 2.738 . S
C82 O94 1.254 . S
C82 O95 1.257 . S
O83 Dy80 2.307 . S
O83 C93 1.266 . S
O84 Dy81 2.298 . S
O84 C93 1.236 . S
O85 Dy80 2.395 . S
O85 C102 1.255 . S
O86 Dy80 2.379 . S
O86 C102 1.249 . S
O87 Dy81 2.275 . S
O87 C103 1.254 . S
O88 Dy80 2.339 . S
O88 C103 1.257 . S
O89 Dy81 2.307 . S
O89 C104 1.266 . S
O90 Dy80 2.298 . S
O90 C104 1.236 . S
O91 Dy81 2.395 . S
O91 C111 1.255 . S
O92 Dy81 2.379 . S
O92 C111 1.249 . S
C93 O83 1.266 . S
C93 O84 1.236 . S
O94 Dy80 2.275 . S
O94 C82 1.254 . S
O95 Dy81 2.339 . S
O95 C82 1.257 . S
C96 C99 1.344 . S
C96 C100 1.328 . S
C96 C102 1.516 . S
C97 C98 1.304 . S
C97 C101 1.323 . S
C98 C97 1.304 . S
C98 C99 1.371 . S
C98 H112 0.930 . S
C99 C96 1.344 . S
C99 C98 1.371 . S
C99 H113 0.931 . S
C100 C96 1.328 . S
C100 C101 1.433 . S
C100 H114 0.931 . S
C101 C97 1.323 . S
C101 C100 1.433 . S
C101 H115 0.933 . S
C102 Dy80 2.738 . S
C102 O85 1.255 . S
C102 O86 1.249 . S
C102 C96 1.516 . S
C103 O87 1.254 . S
C103 O88 1.257 . S
C104 O89 1.266 . S
C104 O90 1.236 . S
C105 C108 1.344 . S
C105 C109 1.328 . S
C105 C111 1.516 . S
C106 C107 1.304 . S
C106 C110 1.323 . S
C107 C106 1.304 . S
C107 C108 1.371 . S
C107 H116 0.930 . S
C108 C105 1.344 . S
C108 C107 1.371 . S
C108 H117 0.931 . S
C109 C105 1.328 . S
C109 C110 1.433 . S
C109 H118 0.931 . S
C110 C106 1.323 . S
C110 C109 1.433 . S
C110 H119 0.933 . S
C111 Dy81 2.738 . S
C111 O91 1.255 . S
C111 O92 1.249 . S
C111 C105 1.516 . S
H112 C98 0.930 . S
H113 C99 0.931 . S
H114 C100 0.931 . S
H115 C101 0.933 . S
H116 C107 0.930 . S
H117 C108 0.931 . S
H118 C109 0.931 . S
H119 C110 0.933 . S
Dy120 O123 2.307 . S
Dy120 O125 2.395 . S
Dy120 O126 2.379 . S
Dy120 O128 2.339 . S
Dy120 O130 2.298 . S
Dy120 O134 2.275 . S
Dy120 C142 2.738 . S
Dy121 O124 2.298 . S
Dy121 O127 2.275 . S
Dy121 O129 2.307 . S
Dy121 O131 2.395 . S
Dy121 O132 2.379 . S
Dy121 O135 2.339 . S
Dy121 C151 2.738 . S
C122 O134 1.254 . S
C122 O135 1.257 . S
O123 Dy120 2.307 . S
O123 C133 1.266 . S
O124 Dy121 2.298 . S
O124 C133 1.236 . S
O125 Dy120 2.395 . S
O125 C142 1.255 . S
O126 Dy120 2.379 . S
O126 C142 1.249 . S
O127 Dy121 2.275 . S
O127 C143 1.254 . S
O128 Dy120 2.339 . S
O128 C143 1.257 . S
O129 Dy121 2.307 . S
O129 C144 1.266 . S
O130 Dy120 2.298 . S
O130 C144 1.236 . S
O131 Dy121 2.395 . S
O131 C151 1.255 . S
O132 Dy121 2.379 . S
O132 C151 1.249 . S
C133 O123 1.266 . S
C133 O124 1.236 . S
O134 Dy120 2.275 . S
O134 C122 1.254 . S
O135 Dy121 2.339 . S
O135 C122 1.257 . S
C136 C139 1.344 . S
C136 C140 1.328 . S
C136 C142 1.516 1_554 S
C137 C138 1.304 . S
C137 C141 1.323 . S
C138 C137 1.304 . S
C138 C139 1.371 . S
C138 H152 0.930 . S
C139 C136 1.344 . S
C139 C138 1.371 . S
C139 H153 0.931 . S
C140 C136 1.328 . S
C140 C141 1.433 . S
C140 H154 0.931 . S
C141 C137 1.323 . S
C141 C140 1.433 . S
C141 H155 0.933 . S
C142 Dy120 2.738 . S
C142 O125 1.255 . S
C142 O126 1.249 . S
C142 C136 1.516 1_556 S
C143 O127 1.254 . S
C143 O128 1.257 . S
C144 O129 1.266 . S
C144 O130 1.236 . S
C145 C148 1.344 . S
C145 C149 1.328 . S
C145 C151 1.516 . S
C146 C147 1.304 . S
C146 C150 1.323 . S
C147 C146 1.304 . S
C147 C148 1.371 . S
C147 H156 0.930 . S
C148 C145 1.344 . S
C148 C147 1.371 . S
C148 H157 0.931 . S
C149 C145 1.328 . S
C149 C150 1.433 . S
C149 H158 0.931 . S
C150 C146 1.323 . S
C150 C149 1.433 . S
C150 H159 0.933 . S
C151 Dy121 2.738 . S
C151 O131 1.255 . S
C151 O132 1.249 . S
C151 C145 1.516 . S
H152 C138 0.930 . S
H153 C139 0.931 . S
H154 C140 0.931 . S
H155 C141 0.933 . S
H156 C147 0.930 . S
H157 C148 0.931 . S
H158 C149 0.931 . S
H159 C150 0.933 . S
Dy160 O163 2.307 . S
Dy160 O165 2.395 . S
Dy160 O166 2.379 . S
Dy160 O168 2.339 . S
Dy160 O170 2.298 . S
Dy160 O174 2.275 . S
Dy160 C182 2.738 . S
Dy161 O164 2.298 . S
Dy161 O167 2.275 . S
Dy161 O169 2.307 . S
Dy161 O171 2.395 . S
Dy161 O172 2.379 . S
Dy161 O175 2.339 . S
Dy161 C191 2.738 . S
C162 O174 1.254 . S
C162 O175 1.257 . S
O163 Dy160 2.307 . S
O163 C173 1.266 . S
O164 Dy161 2.298 . S
O164 C173 1.236 . S
O165 Dy160 2.395 . S
O165 C182 1.255 . S
O166 Dy160 2.379 . S
O166 C182 1.249 . S
O167 Dy161 2.275 . S
O167 C183 1.254 . S
O168 Dy160 2.339 . S
O168 C183 1.257 . S
O169 Dy161 2.307 . S
O169 C184 1.266 . S
O170 Dy160 2.298 . S
O170 C184 1.236 . S
O171 Dy161 2.395 . S
O171 C191 1.255 . S
O172 Dy161 2.379 . S
O172 C191 1.249 . S
C173 O163 1.266 . S
C173 O164 1.236 . S
O174 Dy160 2.275 . S
O174 C162 1.254 . S
O175 Dy161 2.339 . S
O175 C162 1.257 . S
C176 C179 1.344 . S
C176 C180 1.328 . S
C176 C182 1.516 . S
C177 C178 1.304 . S
C177 C181 1.323 . S
C178 C177 1.304 . S
C178 C179 1.371 . S
C178 H192 0.930 . S
C179 C176 1.344 . S
C179 C178 1.371 . S
C179 H193 0.931 . S
C180 C176 1.328 . S
C180 C181 1.433 . S
C180 H194 0.931 . S
C181 C177 1.323 . S
C181 C180 1.433 . S
C181 H195 0.933 . S
C182 Dy160 2.738 . S
C182 O165 1.255 . S
C182 O166 1.249 . S
C182 C176 1.516 . S
C183 O167 1.254 . S
C183 O168 1.257 . S
C184 O169 1.266 . S
C184 O170 1.236 . S
C185 C188 1.344 . S
C185 C189 1.328 1_455 S
C185 C191 1.516 . S
C186 C187 1.304 1_655 S
C186 C190 1.323 . S
C187 C186 1.304 1_455 S
C187 C188 1.371 . S
C187 H196 0.930 . S
C188 C185 1.344 . S
C188 C187 1.371 . S
C188 H197 0.931 . S
C189 C185 1.328 1_655 S
C189 C190 1.433 . S
C189 H198 0.931 . S
C190 C186 1.323 . S
C190 C189 1.433 . S
C190 H199 0.933 . S
C191 Dy161 2.738 . S
C191 O171 1.255 . S
C191 O172 1.249 . S
C191 C185 1.516 . S
H192 C178 0.930 . S
H193 C179 0.931 . S
H194 C180 0.931 . S
H195 C181 0.933 . S
H196 C187 0.930 . S
H197 C188 0.931 . S
H198 C189 0.931 . S
H199 C190 0.933 . S
Dy200 O203 2.307 1_556 S
Dy200 O205 2.395 . S
Dy200 O206 2.379 . S
Dy200 O208 2.339 . S
Dy200 O210 2.298 . S
Dy200 O214 2.275 . S
Dy200 C222 2.738 . S
Dy201 O204 2.298 . S
Dy201 O207 2.275 . S
Dy201 O209 2.307 1_554 S
Dy201 O211 2.395 . S
Dy201 O212 2.379 . S
Dy201 O215 2.339 . S
Dy201 C231 2.738 . S
C202 O214 1.254 1_554 S
C202 O215 1.256 . S
O203 Dy200 2.307 1_554 S
O203 C213 1.266 . S
O204 Dy201 2.298 . S
O204 C213 1.236 . S
O205 Dy200 2.395 . S
O205 C222 1.255 . S
O206 Dy200 2.379 . S
O206 C222 1.249 . S
O207 Dy201 2.275 . S
O207 C223 1.254 1_554 S
O208 Dy200 2.339 . S
O208 C223 1.257 . S
O209 Dy201 2.307 1_556 S
O209 C224 1.266 . S
O210 Dy200 2.298 . S
O210 C224 1.236 . S
O211 Dy201 2.395 . S
O211 C231 1.255 . S
O212 Dy201 2.379 . S
O212 C231 1.249 . S
C213 O203 1.266 . S
C213 O204 1.236 . S
O214 Dy200 2.275 . S
O214 C202 1.254 1_556 S
O215 Dy201 2.339 . S
O215 C202 1.256 . S
C216 C219 1.344 . S
C216 C220 1.328 . S
C216 C222 1.516 . S
C217 C218 1.304 . S
C217 C221 1.323 . S
C218 C217 1.304 . S
C218 C219 1.371 . S
C218 H232 0.930 . S
C219 C216 1.344 . S
C219 C218 1.371 . S
C219 H233 0.931 . S
C220 C216 1.328 . S
C220 C221 1.433 . S
C220 H234 0.931 . S
C221 C217 1.323 . S
C221 C220 1.433 . S
C221 H235 0.933 . S
C222 Dy200 2.738 . S
C222 O205 1.255 . S
C222 O206 1.249 . S
C222 C216 1.516 . S
C223 O207 1.254 1_556 S
C223 O208 1.257 . S
C224 O209 1.266 . S
C224 O210 1.236 . S
C225 C228 1.344 . S
C225 C229 1.328 . S
C225 C231 1.516 . S
C226 C227 1.304 . S
C226 C230 1.323 . S
C227 C226 1.304 . S
C227 C228 1.371 . S
C227 H236 0.930 . S
C228 C225 1.344 . S
C228 C227 1.371 . S
C228 H237 0.931 . S
C229 C225 1.328 . S
C229 C230 1.433 . S
C229 H238 0.931 . S
C230 C226 1.323 . S
C230 C229 1.433 . S
C230 H239 0.933 . S
C231 Dy201 2.738 . S
C231 O211 1.255 . S
C231 O212 1.249 . S
C231 C225 1.516 . S
H232 C218 0.930 . S
H233 C219 0.931 . S
H234 C220 0.931 . S
H235 C221 0.933 . S
H236 C227 0.930 . S
H237 C228 0.931 . S
H238 C229 0.931 . S
H239 C230 0.933 . S
Dy240 O243 2.307 . S
Dy240 O245 2.395 . S
Dy240 O246 2.379 . S
Dy240 O248 2.339 . S
Dy240 O250 2.298 . S
Dy240 O254 2.275 . S
Dy240 C262 2.738 . S
Dy241 O244 2.298 . S
Dy241 O247 2.275 . S
Dy241 O249 2.307 . S
Dy241 O251 2.395 . S
Dy241 O252 2.379 . S
Dy241 O255 2.339 . S
Dy241 C271 2.738 . S
C242 O254 1.254 . S
C242 O255 1.257 . S
O243 Dy240 2.307 . S
O243 C253 1.266 . S
O244 Dy241 2.298 . S
O244 C253 1.236 . S
O245 Dy240 2.395 . S
O245 C262 1.255 . S
O246 Dy240 2.379 . S
O246 C262 1.249 . S
O247 Dy241 2.275 . S
O247 C263 1.254 . S
O248 Dy240 2.339 . S
O248 C263 1.257 . S
O249 Dy241 2.307 . S
O249 C264 1.266 . S
O250 Dy240 2.298 . S
O250 C264 1.236 . S
O251 Dy241 2.395 . S
O251 C271 1.255 . S
O252 Dy241 2.379 . S
O252 C271 1.249 . S
C253 O243 1.266 . S
C253 O244 1.236 . S
O254 Dy240 2.275 . S
O254 C242 1.254 . S
O255 Dy241 2.339 . S
O255 C242 1.257 . S
C256 C259 1.344 . S
C256 C260 1.328 . S
C256 C262 1.516 . S
C257 C258 1.304 . S
C257 C261 1.323 . S
C258 C257 1.304 . S
C258 C259 1.371 1_556 S
C258 H272 0.930 . S
C259 C256 1.344 . S
C259 C258 1.371 1_554 S
C259 H273 0.931 . S
C260 C256 1.328 . S
C260 C261 1.433 1_554 S
C260 H274 0.931 . S
C261 C257 1.323 . S
C261 C260 1.433 1_556 S
C261 H275 0.933 . S
C262 Dy240 2.738 . S
C262 O245 1.255 . S
C262 O246 1.249 . S
C262 C256 1.516 . S
C263 O247 1.254 . S
C263 O248 1.257 . S
C264 O249 1.266 . S
C264 O250 1.236 . S
C265 C268 1.344 . S
C265 C269 1.328 . S
C265 C271 1.516 . S
C266 C267 1.304 . S
C266 C270 1.323 . S
C267 C266 1.304 . S
C267 C268 1.371 . S
C267 H276 0.930 . S
C268 C265 1.344 . S
C268 C267 1.371 . S
C268 H277 0.931 . S
C269 C265 1.328 . S
C269 C270 1.433 . S
C269 H278 0.931 . S
C270 C266 1.323 . S
C270 C269 1.433 . S
C270 H279 0.933 . S
C271 Dy241 2.738 . S
C271 O251 1.255 . S
C271 O252 1.249 . S
C271 C265 1.516 . S
H272 C258 0.930 . S
H273 C259 0.931 . S
H274 C260 0.931 . S
H275 C261 0.933 . S
H276 C267 0.930 . S
H277 C268 0.931 . S
H278 C269 0.931 . S
H279 C270 0.933 . S
Dy280 O283 2.307 . S
Dy280 O285 2.395 . S
Dy280 O286 2.379 . S
Dy280 O288 2.339 . S
Dy280 O290 2.298 . S
Dy280 O294 2.275 . S
Dy280 C302 2.738 . S
Dy281 O284 2.298 . S
Dy281 O287 2.275 . S
Dy281 O289 2.307 . S
Dy281 O291 2.395 . S
Dy281 O292 2.379 . S
Dy281 O295 2.339 . S
Dy281 C311 2.738 . S
C282 O294 1.254 . S
C282 O295 1.257 . S
O283 Dy280 2.307 . S
O283 C293 1.266 . S
O284 Dy281 2.298 . S
O284 C293 1.236 . S
O285 Dy280 2.395 . S
O285 C302 1.255 . S
O286 Dy280 2.379 . S
O286 C302 1.249 . S
O287 Dy281 2.275 . S
O287 C303 1.254 . S
O288 Dy280 2.339 . S
O288 C303 1.257 . S
O289 Dy281 2.307 . S
O289 C304 1.266 . S
O290 Dy280 2.298 . S
O290 C304 1.236 . S
O291 Dy281 2.395 . S
O291 C311 1.255 . S
O292 Dy281 2.379 . S
O292 C311 1.249 . S
C293 O283 1.266 . S
C293 O284 1.236 . S
O294 Dy280 2.275 . S
O294 C282 1.254 . S
O295 Dy281 2.339 . S
O295 C282 1.257 . S
C296 C299 1.344 . S
C296 C300 1.328 . S
C296 C302 1.516 . S
C297 C298 1.304 . S
C297 C301 1.323 . S
C298 C297 1.304 . S
C298 C299 1.371 . S
C298 H312 0.930 . S
C299 C296 1.344 . S
C299 C298 1.371 . S
C299 H313 0.931 . S
C300 C296 1.328 . S
C300 C301 1.433 . S
C300 H314 0.931 . S
C301 C297 1.323 . S
C301 C300 1.433 . S
C301 H315 0.933 . S
C302 Dy280 2.738 . S
C302 O285 1.255 . S
C302 O286 1.249 . S
C302 C296 1.516 . S
C303 O287 1.254 . S
C303 O288 1.257 . S
C304 O289 1.266 . S
C304 O290 1.236 . S
C305 C308 1.344 . S
C305 C309 1.328 . S
C305 C311 1.516 . S
C306 C307 1.304 . S
C306 C310 1.323 . S
C307 C306 1.304 . S
C307 C308 1.371 . S
C307 H316 0.930 . S
C308 C305 1.344 . S
C308 C307 1.371 . S
C308 H317 0.931 . S
C309 C305 1.328 . S
C309 C310 1.433 . S
C309 H318 0.931 . S
C310 C306 1.323 . S
C310 C309 1.433 . S
C310 H319 0.933 . S
C311 Dy281 2.738 . S
C311 O291 1.255 . S
C311 O292 1.249 . S
C311 C305 1.516 . S
H312 C298 0.930 . S
H313 C299 0.931 . S
H314 C300 0.931 . S
H315 C301 0.933 . S
H316 C307 0.930 . S
H317 C308 0.931 . S
H318 C309 0.931 . S
H319 C310 0.933 . S
Dy320 O323 2.307 . S
Dy320 O325 2.395 . S
Dy320 O326 2.379 . S
Dy320 O328 2.339 . S
Dy320 O330 2.298 . S
Dy320 O334 2.275 . S
Dy320 C342 2.738 . S
Dy321 O324 2.298 1_554 S
Dy321 O327 2.275 . S
Dy321 O329 2.307 . S
Dy321 O331 2.395 1_554 S
Dy321 O332 2.379 1_554 S
Dy321 O335 2.339 . S
Dy321 C351 2.738 1_554 S
C322 O334 1.254 . S
C322 O335 1.257 . S
O323 Dy320 2.307 . S
O323 C333 1.266 1_554 S
O324 Dy321 2.298 1_556 S
O324 C333 1.236 . S
O325 Dy320 2.395 . S
O325 C342 1.255 . S
O326 Dy320 2.379 . S
O326 C342 1.249 . S
O327 Dy321 2.275 . S
O327 C343 1.254 . S
O328 Dy320 2.339 . S
O328 C343 1.257 . S
O329 Dy321 2.307 . S
O329 C344 1.266 . S
O330 Dy320 2.298 . S
O330 C344 1.236 . S
O331 Dy321 2.395 1_556 S
O331 C351 1.255 . S
O332 Dy321 2.379 1_556 S
O332 C351 1.249 . S
C333 O323 1.266 1_556 S
C333 O324 1.236 . S
O334 Dy320 2.275 . S
O334 C322 1.254 . S
O335 Dy321 2.339 . S
O335 C322 1.257 . S
C336 C339 1.344 . S
C336 C340 1.328 . S
C336 C342 1.516 . S
C337 C338 1.304 . S
C337 C341 1.323 . S
C338 C337 1.304 . S
C338 C339 1.371 . S
C338 H352 0.930 . S
C339 C336 1.344 . S
C339 C338 1.371 . S
C339 H353 0.931 . S
C340 C336 1.328 . S
C340 C341 1.433 . S
C340 H354 0.931 . S
C341 C337 1.323 . S
C341 C340 1.433 . S
C341 H355 0.933 . S
C342 Dy320 2.738 . S
C342 O325 1.255 . S
C342 O326 1.249 . S
C342 C336 1.516 . S
C343 O327 1.254 . S
C343 O328 1.257 . S
C344 O329 1.266 . S
C344 O330 1.236 . S
C345 C348 1.344 . S
C345 C349 1.328 . S
C345 C351 1.516 . S
C346 C347 1.304 . S
C346 C350 1.323 . S
C347 C346 1.304 . S
C347 C348 1.371 . S
C347 H356 0.930 . S
C348 C345 1.344 . S
C348 C347 1.371 . S
C348 H357 0.931 . S
C349 C345 1.328 . S
C349 C350 1.433 . S
C349 H358 0.931 . S
C350 C346 1.323 . S
C350 C349 1.433 . S
C350 H359 0.933 . S
C351 Dy321 2.738 1_556 S
C351 O331 1.255 . S
C351 O332 1.249 . S
C351 C345 1.516 . S
H352 C338 0.930 . S
H353 C339 0.931 . S
H354 C340 0.931 . S
H355 C341 0.933 . S
H356 C347 0.930 . S
H357 C348 0.931 . S
H358 C349 0.931 . S
H359 C350 0.933 . S
Dy360 O363 2.307 1_554 S
Dy360 O365 2.395 . S
Dy360 O366 2.379 . S
Dy360 O368 2.339 1_554 S
Dy360 O370 2.298 . S
Dy360 O374 2.275 1_554 S
Dy360 C382 2.738 . S
Dy361 O364 2.298 . S
Dy361 O367 2.275 . S
Dy361 O369 2.307 . S
Dy361 O371 2.395 . S
Dy361 O372 2.379 . S
Dy361 O375 2.339 . S
Dy361 C391 2.738 . S
C362 O374 1.254 . S
C362 O375 1.257 . S
O363 Dy360 2.307 1_556 S
O363 C373 1.266 . S
O364 Dy361 2.298 . S
O364 C373 1.236 . S
O365 Dy360 2.395 . S
O365 C382 1.255 . S
O366 Dy360 2.379 . S
O366 C382 1.249 . S
O367 Dy361 2.275 . S
O367 C383 1.254 . S
O368 Dy360 2.339 1_556 S
O368 C383 1.257 . S
O369 Dy361 2.307 . S
O369 C384 1.266 1_556 S
O370 Dy360 2.298 . S
O370 C384 1.236 . S
O371 Dy361 2.395 . S
O371 C391 1.255 . S
O372 Dy361 2.379 . S
O372 C391 1.249 . S
C373 O363 1.266 . S
C373 O364 1.236 . S
O374 Dy360 2.275 1_556 S
O374 C362 1.254 . S
O375 Dy361 2.339 . S
O375 C362 1.257 . S
C376 C379 1.344 . S
C376 C380 1.328 . S
C376 C382 1.516 . S
C377 C378 1.304 . S
C377 C381 1.323 . S
C378 C377 1.304 . S
C378 C379 1.371 . S
C378 H392 0.930 . S
C379 C376 1.344 . S
C379 C378 1.371 . S
C379 H393 0.931 . S
C380 C376 1.328 . S
C380 C381 1.433 . S
C380 H394 0.931 . S
C381 C377 1.323 . S
C381 C380 1.433 . S
C381 H395 0.933 . S
C382 Dy360 2.738 . S
C382 O365 1.255 . S
C382 O366 1.249 . S
C382 C376 1.516 . S
C383 O367 1.254 . S
C383 O368 1.257 . S
C384 O369 1.266 1_554 S
C384 O370 1.236 . S
C385 C388 1.344 . S
C385 C389 1.328 . S
C385 C391 1.516 . S
C386 C387 1.304 . S
C386 C390 1.323 . S
C387 C386 1.304 . S
C387 C388 1.371 . S
C387 H396 0.930 . S
C388 C385 1.344 . S
C388 C387 1.371 . S
C388 H397 0.931 . S
C389 C385 1.328 . S
C389 C390 1.433 . S
C389 H398 0.931 . S
C390 C386 1.323 . S
C390 C389 1.433 . S
C390 H399 0.933 . S
C391 Dy361 2.738 . S
C391 O371 1.255 . S
C391 O372 1.249 . S
C391 C385 1.516 . S
H392 C378 0.930 . S
H393 C379 0.931 . S
H394 C380 0.931 . S
H395 C381 0.933 . S
H396 C387 0.930 . S
H397 C388 0.931 . S
H398 C389 0.931 . S
H399 C390 0.933 . S
Dy400 O403 2.307 . S
Dy400 O405 2.395 . S
Dy400 O406 2.379 . S
Dy400 O408 2.339 . S
Dy400 O410 2.298 . S
Dy400 O414 2.275 . S
Dy400 C422 2.738 . S
Dy401 O404 2.298 . S
Dy401 O407 2.275 . S
Dy401 O409 2.307 . S
Dy401 O411 2.395 . S
Dy401 O412 2.379 . S
Dy401 O415 2.339 . S
Dy401 C431 2.738 . S
C402 O414 1.254 . S
C402 O415 1.257 . S
O403 Dy400 2.307 . S
O403 C413 1.266 . S
O404 Dy401 2.298 . S
O404 C413 1.236 . S
O405 Dy400 2.395 . S
O405 C422 1.255 . S
O406 Dy400 2.379 . S
O406 C422 1.249 . S
O407 Dy401 2.275 . S
O407 C423 1.254 . S
O408 Dy400 2.339 . S
O408 C423 1.257 . S
O409 Dy401 2.307 . S
O409 C424 1.266 . S
O410 Dy400 2.298 . S
O410 C424 1.236 . S
O411 Dy401 2.395 . S
O411 C431 1.255 . S
O412 Dy401 2.379 . S
O412 C431 1.249 . S
C413 O403 1.266 . S
C413 O404 1.236 . S
O414 Dy400 2.275 . S
O414 C402 1.254 . S
O415 Dy401 2.339 . S
O415 C402 1.257 . S
C416 C419 1.344 . S
C416 C420 1.328 . S
C416 C422 1.516 . S
C417 C418 1.304 . S
C417 C421 1.323 . S
C418 C417 1.304 . S
C418 C419 1.371 . S
C418 H432 0.930 . S
C419 C416 1.344 . S
C419 C418 1.371 . S
C419 H433 0.931 . S
C420 C416 1.328 . S
C420 C421 1.433 . S
C420 H434 0.931 . S
C421 C417 1.323 . S
C421 C420 1.433 . S
C421 H435 0.933 . S
C422 Dy400 2.738 . S
C422 O405 1.255 . S
C422 O406 1.249 . S
C422 C416 1.516 . S
C423 O407 1.254 . S
C423 O408 1.257 . S
C424 O409 1.266 . S
C424 O410 1.236 . S
C425 C428 1.344 . S
C425 C429 1.328 . S
C425 C431 1.516 . S
C426 C427 1.304 . S
C426 C430 1.323 . S
C427 C426 1.304 . S
C427 C428 1.371 . S
C427 H436 0.930 . S
C428 C425 1.344 . S
C428 C427 1.371 . S
C428 H437 0.931 . S
C429 C425 1.328 . S
C429 C430 1.433 . S
C429 H438 0.931 . S
C430 C426 1.323 . S
C430 C429 1.433 . S
C430 H439 0.933 . S
C431 Dy401 2.738 . S
C431 O411 1.255 . S
C431 O412 1.249 . S
C431 C425 1.516 . S
H432 C418 0.930 . S
H433 C419 0.931 . S
H434 C420 0.931 . S
H435 C421 0.933 . S
H436 C427 0.930 . S
H437 C428 0.931 . S
H438 C429 0.931 . S
H439 C430 0.933 . S
Dy440 O443 2.307 . S
Dy440 O445 2.395 . S
Dy440 O446 2.379 . S
Dy440 O448 2.339 . S
Dy440 O450 2.298 . S
Dy440 O454 2.275 . S
Dy440 C462 2.738 . S
Dy441 O444 2.298 . S
Dy441 O447 2.275 . S
Dy441 O449 2.307 . S
Dy441 O451 2.395 . S
Dy441 O452 2.379 . S
Dy441 O455 2.339 . S
Dy441 C471 2.738 . S
C442 O454 1.254 . S
C442 O455 1.257 . S
O443 Dy440 2.307 . S
O443 C453 1.266 . S
O444 Dy441 2.298 . S
O444 C453 1.236 . S
O445 Dy440 2.395 . S
O445 C462 1.255 . S
O446 Dy440 2.379 . S
O446 C462 1.249 . S
O447 Dy441 2.275 . S
O447 C463 1.254 . S
O448 Dy440 2.339 . S
O448 C463 1.257 . S
O449 Dy441 2.307 . S
O449 C464 1.266 . S
O450 Dy440 2.298 . S
O450 C464 1.236 . S
O451 Dy441 2.395 . S
O451 C471 1.255 . S
O452 Dy441 2.379 . S
O452 C471 1.249 . S
C453 O443 1.266 . S
C453 O444 1.236 . S
O454 Dy440 2.275 . S
O454 C442 1.254 . S
O455 Dy441 2.339 . S
O455 C442 1.257 . S
C456 C459 1.344 . S
C456 C460 1.328 . S
C456 C462 1.516 . S
C457 C458 1.304 . S
C457 C461 1.323 . S
C458 C457 1.304 . S
C458 C459 1.371 . S
C458 H472 0.930 . S
C459 C456 1.344 . S
C459 C458 1.371 . S
C459 H473 0.931 . S
C460 C456 1.328 . S
C460 C461 1.433 . S
C460 H474 0.931 . S
C461 C457 1.323 . S
C461 C460 1.433 . S
C461 H475 0.933 . S
C462 Dy440 2.738 . S
C462 O445 1.255 . S
C462 O446 1.249 . S
C462 C456 1.516 . S
C463 O447 1.254 . S
C463 O448 1.257 . S
C464 O449 1.266 . S
C464 O450 1.236 . S
C465 C468 1.344 . S
C465 C469 1.328 . S
C465 C471 1.516 . S
C466 C467 1.304 . S
C466 C470 1.323 . S
C467 C466 1.304 . S
C467 C468 1.371 . S
C467 H476 0.930 . S
C468 C465 1.344 . S
C468 C467 1.371 . S
C468 H477 0.931 . S
C469 C465 1.328 . S
C469 C470 1.433 . S
C469 H478 0.931 . S
C470 C466 1.323 . S
C470 C469 1.433 . S
C470 H479 0.933 . S
C471 Dy441 2.738 . S
C471 O451 1.255 . S
C471 O452 1.249 . S
C471 C465 1.516 . S
H472 C458 0.930 . S
H473 C459 0.931 . S
H474 C460 0.931 . S
H475 C461 0.933 . S
H476 C467 0.930 . S
H477 C468 0.931 . S
H478 C469 0.931 . S
H479 C470 0.933 . S
Dy480 O483 2.307 . S
Dy480 O485 2.395 . S
Dy480 O486 2.379 . S
Dy480 O488 2.339 . S
Dy480 O490 2.298 . S
Dy480 O494 2.275 . S
Dy480 C502 2.738 . S
Dy481 O484 2.298 . S
Dy481 O487 2.275 . S
Dy481 O489 2.307 . S
Dy481 O491 2.395 . S
Dy481 O492 2.379 . S
Dy481 O495 2.339 . S
Dy481 C511 2.738 . S
C482 O494 1.254 . S
C482 O495 1.257 . S
O483 Dy480 2.307 . S
O483 C493 1.266 . S
O484 Dy481 2.298 . S
O484 C493 1.236 . S
O485 Dy480 2.395 . S
O485 C502 1.255 . S
O486 Dy480 2.379 . S
O486 C502 1.249 . S
O487 Dy481 2.275 . S
O487 C503 1.254 . S
O488 Dy480 2.339 . S
O488 C503 1.257 . S
O489 Dy481 2.307 . S
O489 C504 1.266 . S
O490 Dy480 2.298 . S
O490 C504 1.236 . S
O491 Dy481 2.395 . S
O491 C511 1.255 . S
O492 Dy481 2.379 . S
O492 C511 1.249 . S
C493 O483 1.266 . S
C493 O484 1.236 . S
O494 Dy480 2.275 . S
O494 C482 1.254 . S
O495 Dy481 2.339 . S
O495 C482 1.257 . S
C496 C499 1.344 . S
C496 C500 1.328 1_655 S
C496 C502 1.516 . S
C497 C498 1.304 1_455 S
C497 C501 1.323 . S
C498 C497 1.304 1_655 S
C498 C499 1.371 . S
C498 H512 0.930 . S
C499 C496 1.344 . S
C499 C498 1.371 . S
C499 H513 0.931 . S
C500 C496 1.328 1_455 S
C500 C501 1.433 . S
C500 H514 0.931 . S
C501 C497 1.323 . S
C501 C500 1.433 . S
C501 H515 0.933 . S
C502 Dy480 2.738 . S
C502 O485 1.255 . S
C502 O486 1.249 . S
C502 C496 1.516 . S
C503 O487 1.254 . S
C503 O488 1.257 . S
C504 O489 1.266 . S
C504 O490 1.236 . S
C505 C508 1.344 . S
C505 C509 1.328 . S
C505 C511 1.516 . S
C506 C507 1.304 . S
C506 C510 1.323 . S
C507 C506 1.304 . S
C507 C508 1.371 . S
C507 H516 0.930 . S
C508 C505 1.344 . S
C508 C507 1.371 . S
C508 H517 0.931 . S
C509 C505 1.328 . S
C509 C510 1.433 . S
C509 H518 0.931 . S
C510 C506 1.323 . S
C510 C509 1.433 . S
C510 H519 0.933 . S
C511 Dy481 2.738 . S
C511 O491 1.255 . S
C511 O492 1.249 . S
C511 C505 1.516 . S
H512 C498 0.930 . S
H513 C499 0.931 . S
H514 C500 0.931 . S
H515 C501 0.933 . S
H516 C507 0.930 . S
H517 C508 0.931 . S
H518 C509 0.931 . S
H519 C510 0.933 . S
Dy520 O523 2.307 . S
Dy520 O525 2.395 . S
Dy520 O526 2.379 . S
Dy520 O528 2.339 . S
Dy520 O530 2.298 . S
Dy520 O534 2.275 . S
Dy520 C542 2.738 . S
Dy521 O524 2.298 . S
Dy521 O527 2.275 . S
Dy521 O529 2.307 . S
Dy521 O531 2.395 . S
Dy521 O532 2.379 . S
Dy521 O535 2.339 . S
Dy521 C551 2.738 . S
C522 O534 1.254 . S
C522 O535 1.257 . S
O523 Dy520 2.307 . S
O523 C533 1.266 . S
O524 Dy521 2.298 . S
O524 C533 1.236 . S
O525 Dy520 2.395 . S
O525 C542 1.255 . S
O526 Dy520 2.379 . S
O526 C542 1.249 . S
O527 Dy521 2.275 . S
O527 C543 1.254 . S
O528 Dy520 2.339 . S
O528 C543 1.257 . S
O529 Dy521 2.307 . S
O529 C544 1.266 . S
O530 Dy520 2.298 . S
O530 C544 1.236 . S
O531 Dy521 2.395 . S
O531 C551 1.255 . S
O532 Dy521 2.379 . S
O532 C551 1.249 . S
C533 O523 1.266 . S
C533 O524 1.236 . S
O534 Dy520 2.275 . S
O534 C522 1.254 . S
O535 Dy521 2.339 . S
O535 C522 1.257 . S
C536 C539 1.344 . S
C536 C540 1.328 . S
C536 C542 1.516 . S
C537 C538 1.304 . S
C537 C541 1.323 . S
C538 C537 1.304 . S
C538 C539 1.371 . S
C538 H552 0.930 . S
C539 C536 1.344 . S
C539 C538 1.371 . S
C539 H553 0.931 . S
C540 C536 1.328 . S
C540 C541 1.433 . S
C540 H554 0.931 . S
C541 C537 1.323 . S
C541 C540 1.433 . S
C541 H555 0.933 . S
C542 Dy520 2.738 . S
C542 O525 1.255 . S
C542 O526 1.249 . S
C542 C536 1.516 . S
C543 O527 1.254 . S
C543 O528 1.257 . S
C544 O529 1.266 . S
C544 O530 1.236 . S
C545 C548 1.344 . S
C545 C549 1.328 . S
C545 C551 1.516 . S
C546 C547 1.304 . S
C546 C550 1.323 . S
C547 C546 1.304 . S
C547 C548 1.371 . S
C547 H556 0.930 . S
C548 C545 1.344 . S
C548 C547 1.371 . S
C548 H557 0.931 . S
C549 C545 1.328 . S
C549 C550 1.433 . S
C549 H558 0.931 . S
C550 C546 1.323 . S
C550 C549 1.433 . S
C550 H559 0.933 . S
C551 Dy521 2.738 . S
C551 O531 1.255 . S
C551 O532 1.249 . S
C551 C545 1.516 . S
H552 C538 0.930 . S
H553 C539 0.931 . S
H554 C540 0.931 . S
H555 C541 0.933 . S
H556 C547 0.930 . S
H557 C548 0.931 . S
H558 C549 0.931 . S
H559 C550 0.933 . S
Dy560 O563 2.307 . S
Dy560 O565 2.395 . S
Dy560 O566 2.379 . S
Dy560 O568 2.339 . S
Dy560 O570 2.298 . S
Dy560 O574 2.275 . S
Dy560 C582 2.738 . S
Dy561 O564 2.298 . S
Dy561 O567 2.275 . S
Dy561 O569 2.307 . S
Dy561 O571 2.395 . S
Dy561 O572 2.379 . S
Dy561 O575 2.339 . S
Dy561 C591 2.738 . S
C562 O574 1.254 . S
C562 O575 1.257 . S
O563 Dy560 2.307 . S
O563 C573 1.266 . S
O564 Dy561 2.298 . S
O564 C573 1.236 . S
O565 Dy560 2.395 . S
O565 C582 1.255 . S
O566 Dy560 2.379 . S
O566 C582 1.249 . S
O567 Dy561 2.275 . S
O567 C583 1.254 . S
O568 Dy560 2.339 . S
O568 C583 1.257 . S
O569 Dy561 2.307 . S
O569 C584 1.266 . S
O570 Dy560 2.298 . S
O570 C584 1.236 . S
O571 Dy561 2.395 . S
O571 C591 1.255 . S
O572 Dy561 2.379 . S
O572 C591 1.249 . S
C573 O563 1.266 . S
C573 O564 1.236 . S
O574 Dy560 2.275 . S
O574 C562 1.254 . S
O575 Dy561 2.339 . S
O575 C562 1.257 . S
C576 C579 1.344 . S
C576 C580 1.328 . S
C576 C582 1.516 1_556 S
C577 C578 1.304 . S
C577 C581 1.323 . S
C578 C577 1.304 . S
C578 C579 1.371 . S
C578 H592 0.930 . S
C579 C576 1.344 . S
C579 C578 1.371 . S
C579 H593 0.931 . S
C580 C576 1.328 . S
C580 C581 1.433 . S
C580 H594 0.931 . S
C581 C577 1.323 . S
C581 C580 1.433 . S
C581 H595 0.933 . S
C582 Dy560 2.738 . S
C582 O565 1.255 . S
C582 O566 1.249 . S
C582 C576 1.516 1_554 S
C583 O567 1.254 . S
C583 O568 1.257 . S
C584 O569 1.266 . S
C584 O570 1.236 . S
C585 C588 1.344 . S
C585 C589 1.328 . S
C585 C591 1.516 . S
C586 C587 1.304 . S
C586 C590 1.323 . S
C587 C586 1.304 . S
C587 C588 1.371 . S
C587 H596 0.930 . S
C588 C585 1.344 . S
C588 C587 1.371 . S
C588 H597 0.931 . S
C589 C585 1.328 . S
C589 C590 1.433 . S
C589 H598 0.931 . S
C590 C586 1.323 . S
C590 C589 1.433 . S
C590 H599 0.933 . S
C591 Dy561 2.738 . S
C591 O571 1.255 . S
C591 O572 1.249 . S
C591 C585 1.516 . S
H592 C578 0.930 . S
H593 C579 0.931 . S
H594 C580 0.931 . S
H595 C581 0.933 . S
H596 C587 0.930 . S
H597 C588 0.931 . S
H598 C589 0.931 . S
H599 C590 0.933 . S
Dy600 O603 2.307 . S
Dy600 O605 2.395 . S
Dy600 O606 2.379 . S
Dy600 O608 2.339 . S
Dy600 O610 2.298 . S
Dy600 O614 2.275 . S
Dy600 C622 2.738 . S
Dy601 O604 2.298 . S
Dy601 O607 2.275 . S
Dy601 O609 2.307 . S
Dy601 O611 2.395 1_556 S
Dy601 O612 2.379 . S
Dy601 O615 2.339 . S
Dy601 C631 2.738 1_556 S
C602 O614 1.254 . S
C602 O615 1.257 . S
O603 Dy600 2.307 . S
O603 C613 1.266 . S
O604 Dy601 2.298 . S
O604 C613 1.236 . S
O605 Dy600 2.395 . S
O605 C622 1.255 . S
O606 Dy600 2.379 . S
O606 C622 1.249 . S
O607 Dy601 2.275 . S
O607 C623 1.254 . S
O608 Dy600 2.339 . S
O608 C623 1.257 . S
O609 Dy601 2.307 . S
O609 C624 1.266 . S
O610 Dy600 2.298 . S
O610 C624 1.236 . S
O611 Dy601 2.395 1_554 S
O611 C631 1.255 . S
O612 Dy601 2.379 . S
O612 C631 1.249 1_556 S
C613 O603 1.266 . S
C613 O604 1.236 . S
O614 Dy600 2.275 . S
O614 C602 1.254 . S
O615 Dy601 2.339 . S
O615 C602 1.257 . S
C616 C619 1.344 . S
C616 C620 1.328 . S
C616 C622 1.516 . S
C617 C618 1.304 . S
C617 C621 1.323 . S
C618 C617 1.304 . S
C618 C619 1.371 . S
C618 H632 0.930 . S
C619 C616 1.344 . S
C619 C618 1.371 . S
C619 H633 0.931 . S
C620 C616 1.328 . S
C620 C621 1.433 . S
C620 H634 0.931 . S
C621 C617 1.323 . S
C621 C620 1.433 . S
C621 H635 0.933 . S
C622 Dy600 2.738 . S
C622 O605 1.255 . S
C622 O606 1.249 . S
C622 C616 1.516 . S
C623 O607 1.254 . S
C623 O608 1.257 . S
C624 O609 1.266 . S
C624 O610 1.236 . S
C625 C628 1.344 . S
C625 C629 1.328 . S
C625 C631 1.516 . S
C626 C627 1.304 . S
C626 C630 1.323 . S
C627 C626 1.304 . S
C627 C628 1.371 . S
C627 H636 0.930 . S
C628 C625 1.344 . S
C628 C627 1.371 . S
C628 H637 0.931 . S
C629 C625 1.328 . S
C629 C630 1.433 . S
C629 H638 0.931 . S
C630 C626 1.323 . S
C630 C629 1.433 . S
C630 H639 0.933 . S
C631 Dy601 2.738 1_554 S
C631 O611 1.255 . S
C631 O612 1.249 1_554 S
C631 C625 1.516 . S
H632 C618 0.930 . S
H633 C619 0.931 . S
H634 C620 0.931 . S
H635 C621 0.933 . S
H636 C627 0.930 . S
H637 C628 0.931 . S
H638 C629 0.931 . S
H639 C630 0.933 . S
Dy640 O643 2.307 . S
Dy640 O645 2.395 . S
Dy640 O646 2.379 1_565 S
Dy640 O648 2.339 1_565 S
Dy640 O650 2.298 . S
Dy640 O654 2.275 . S
Dy640 C662 2.738 1_565 S
Dy641 O644 2.298 . S
Dy641 O647 2.275 . S
Dy641 O649 2.307 . S
Dy641 O651 2.395 . S
Dy641 O652 2.379 . S
Dy641 O655 2.339 . S
Dy641 C671 2.738 . S
C642 O654 1.254 . S
C642 O655 1.257 . S
O643 Dy640 2.307 . S
O643 C653 1.266 . S
O644 Dy641 2.298 . S
O644 C653 1.236 . S
O645 Dy640 2.395 . S
O645 C662 1.255 1_565 S
O646 Dy640 2.379 1_545 S
O646 C662 1.249 . S
O647 Dy641 2.275 . S
O647 C663 1.254 . S
O648 Dy640 2.339 1_545 S
O648 C663 1.257 1_545 S
O649 Dy641 2.307 . S
O649 C664 1.266 . S
O650 Dy640 2.298 . S
O650 C664 1.236 . S
O651 Dy641 2.395 . S
O651 C671 1.255 . S
O652 Dy641 2.379 . S
O652 C671 1.249 . S
C653 O643 1.266 . S
C653 O644 1.236 . S
O654 Dy640 2.275 . S
O654 C642 1.254 . S
O655 Dy641 2.339 . S
O655 C642 1.257 . S
C656 C659 1.344 . S
C656 C660 1.328 . S
C656 C662 1.516 . S
C657 C658 1.304 . S
C657 C661 1.323 . S
C658 C657 1.304 . S
C658 C659 1.371 1_554 S
C658 H672 0.930 . S
C659 C656 1.344 . S
C659 C658 1.371 1_556 S
C659 H673 0.931 1_545 S
C660 C656 1.328 . S
C660 C661 1.433 1_556 S
C660 H674 0.931 . S
C661 C657 1.323 . S
C661 C660 1.433 1_554 S
C661 H675 0.933 . S
C662 Dy640 2.738 1_545 S
C662 O645 1.255 1_545 S
C662 O646 1.249 . S
C662 C656 1.516 . S
C663 O647 1.254 . S
C663 O648 1.257 1_565 S
C664 O649 1.266 . S
C664 O650 1.236 . S
C665 C668 1.344 . S
C665 C669 1.328 . S
C665 C671 1.516 . S
C666 C667 1.304 . S
C666 C670 1.323 . S
C667 C666 1.304 . S
C667 C668 1.371 . S
C667 H676 0.930 . S
C668 C665 1.344 . S
C668 C667 1.371 . S
C668 H677 0.931 . S
C669 C665 1.328 . S
C669 C670 1.433 . S
C669 H678 0.931 . S
C670 C666 1.323 . S
C670 C669 1.433 . S
C670 H679 0.933 . S
C671 Dy641 2.738 . S
C671 O651 1.255 . S
C671 O652 1.249 . S
C671 C665 1.516 . S
H672 C658 0.930 . S
H673 C659 0.931 1_565 S
H674 C660 0.931 . S
H675 C661 0.933 . S
H676 C667 0.930 . S
H677 C668 0.931 . S
H678 C669 0.931 . S
H679 C670 0.933 . S
Dy680 O683 2.307 . S
Dy680 O685 2.382 1_556 S
Dy680 O686 2.379 . S
Dy680 O688 2.339 . S
Dy680 O690 2.298 . S
Dy680 O694 2.275 . S
Dy680 C702 2.738 1_556 S
Dy681 O684 2.298 . S
Dy681 O687 2.275 . S
Dy681 O689 2.307 . S
Dy681 O691 2.395 . S
Dy681 O692 2.379 . S
Dy681 O695 2.339 . S
Dy681 C711 2.738 . S
C682 O694 1.254 . S
C682 O695 1.257 . S
O683 Dy680 2.307 . S
O683 C693 1.266 . S
O684 Dy681 2.298 . S
O684 C693 1.236 . S
O685 Dy680 2.382 1_554 S
O685 C702 1.261 . S
O686 Dy680 2.379 . S
O686 C702 1.249 1_556 S
O687 Dy681 2.275 . S
O687 C703 1.254 . S
O688 Dy680 2.339 . S
O688 C703 1.257 . S
O689 Dy681 2.307 . S
O689 C704 1.266 . S
O690 Dy680 2.298 . S
O690 C704 1.236 . S
O691 Dy681 2.395 . S
O691 C711 1.255 . S
O692 Dy681 2.379 . S
O692 C711 1.249 . S
C693 O683 1.266 . S
C693 O684 1.236 . S
O694 Dy680 2.275 . S
O694 C682 1.254 . S
O695 Dy681 2.339 . S
O695 C682 1.257 . S
C696 C699 1.344 . S
C696 C700 1.328 . S
C696 C702 1.516 . S
C697 C698 1.304 . S
C697 C701 1.323 . S
C698 C697 1.304 . S
C698 C699 1.371 . S
C698 H712 0.930 . S
C699 C696 1.344 . S
C699 C698 1.371 . S
C699 H713 0.931 . S
C700 C696 1.328 . S
C700 C701 1.433 . S
C700 H714 0.931 . S
C701 C697 1.323 . S
C701 C700 1.433 . S
C701 H715 0.933 . S
C702 Dy680 2.738 1_554 S
C702 O685 1.261 . S
C702 O686 1.249 1_554 S
C702 C696 1.516 . S
C703 O687 1.254 . S
C703 O688 1.257 . S
C704 O689 1.266 . S
C704 O690 1.236 . S
C705 C708 1.344 . S
C705 C709 1.328 . S
C705 C711 1.516 . S
C706 C707 1.304 . S
C706 C710 1.323 . S
C707 C706 1.304 . S
C707 C708 1.371 . S
C707 H716 0.930 . S
C708 C705 1.344 . S
C708 C707 1.371 . S
C708 H717 0.931 . S
C709 C705 1.328 . S
C709 C710 1.433 . S
C709 H718 0.931 . S
C710 C706 1.323 . S
C710 C709 1.433 . S
C710 H719 0.933 . S
C711 Dy681 2.738 . S
C711 O691 1.255 . S
C711 O692 1.249 . S
C711 C705 1.516 . S
H712 C698 0.930 . S
H713 C699 0.931 . S
H714 C700 0.931 . S
H715 C701 0.933 . S
H716 C707 0.930 . S
H717 C708 0.931 . S
H718 C709 0.931 . S
H719 C710 0.933 . S
Dy720 O723 2.307 . S
Dy720 O725 2.395 . S
Dy720 O726 2.379 . S
Dy720 O728 2.339 . S
Dy720 O730 2.298 . S
Dy720 O734 2.275 . S
Dy720 C742 2.738 . S
Dy721 O724 2.298 . S
Dy721 O727 2.275 . S
Dy721 O729 2.307 . S
Dy721 O731 2.395 . S
Dy721 O732 2.379 . S
Dy721 O735 2.339 . S
Dy721 C751 2.738 . S
C722 O734 1.254 . S
C722 O735 1.257 . S
O723 Dy720 2.307 . S
O723 C733 1.266 . S
O724 Dy721 2.298 . S
O724 C733 1.236 . S
O725 Dy720 2.395 . S
O725 C742 1.255 . S
O726 Dy720 2.379 . S
O726 C742 1.249 . S
O727 Dy721 2.275 . S
O727 C743 1.254 . S
O728 Dy720 2.339 . S
O728 C743 1.257 . S
O729 Dy721 2.307 . S
O729 C744 1.266 . S
O730 Dy720 2.298 . S
O730 C744 1.236 . S
O731 Dy721 2.395 . S
O731 C751 1.255 . S
O732 Dy721 2.379 . S
O732 C751 1.249 . S
C733 O723 1.266 . S
C733 O724 1.236 . S
O734 Dy720 2.275 . S
O734 C722 1.254 . S
O735 Dy721 2.339 . S
O735 C722 1.257 . S
C736 C739 1.344 . S
C736 C740 1.328 . S
C736 C742 1.516 . S
C737 C738 1.304 . S
C737 C741 1.323 1_545 S
C738 C737 1.304 . S
C738 C739 1.371 . S
C738 H752 0.930 . S
C739 C736 1.344 . S
C739 C738 1.371 . S
C739 H753 0.931 . S
C740 C736 1.328 . S
C740 C741 1.433 1_545 S
C740 H754 0.931 1_545 S
C741 C737 1.323 1_565 S
C741 C740 1.433 1_565 S
C741 H755 0.933 . S
C742 Dy720 2.738 . S
C742 O725 1.255 . S
C742 O726 1.249 . S
C742 C736 1.516 . S
C743 O727 1.254 . S
C743 O728 1.257 . S
C744 O729 1.266 . S
C744 O730 1.236 . S
C745 C748 1.344 . S
C745 C749 1.328 . S
C745 C751 1.516 1_556 S
C746 C747 1.304 . S
C746 C750 1.323 . S
C747 C746 1.304 . S
C747 C748 1.371 . S
C747 H756 0.930 1_655 S
C748 C745 1.344 . S
C748 C747 1.371 . S
C748 H757 0.931 . S
C749 C745 1.328 . S
C749 C750 1.433 . S
C749 H758 0.931 . S
C750 C746 1.323 . S
C750 C749 1.433 . S
C750 H759 0.933 . S
C751 Dy721 2.738 . S
C751 O731 1.255 . S
C751 O732 1.249 . S
C751 C745 1.516 1_554 S
H752 C738 0.930 . S
H753 C739 0.931 . S
H754 C740 0.931 1_565 S
H755 C741 0.933 . S
H756 C747 0.930 1_455 S
H757 C748 0.931 . S
H758 C749 0.931 . S
H759 C750 0.933 . S
Dy760 O763 2.307 . S
Dy760 O765 2.395 . S
Dy760 O766 2.379 . S
Dy760 O768 2.339 . S
Dy760 O770 2.298 . S
Dy760 O774 2.275 . S
Dy760 C782 2.738 . S
Dy761 O764 2.298 . S
Dy761 O767 2.275 . S
Dy761 O769 2.307 . S
Dy761 O771 2.395 . S
Dy761 O772 2.379 . S
Dy761 O775 2.339 . S
Dy761 C791 2.738 . S
C762 O774 1.254 . S
C762 O775 1.257 . S
O763 Dy760 2.307 . S
O763 C773 1.266 . S
O764 Dy761 2.298 . S
O764 C773 1.236 . S
O765 Dy760 2.395 . S
O765 C782 1.255 . S
O766 Dy760 2.379 . S
O766 C782 1.249 . S
O767 Dy761 2.275 . S
O767 C783 1.254 . S
O768 Dy760 2.339 . S
O768 C783 1.257 . S
O769 Dy761 2.307 . S
O769 C784 1.266 . S
O770 Dy760 2.298 . S
O770 C784 1.236 . S
O771 Dy761 2.395 . S
O771 C791 1.255 . S
O772 Dy761 2.379 . S
O772 C791 1.249 . S
C773 O763 1.266 . S
C773 O764 1.236 . S
O774 Dy760 2.275 . S
O774 C762 1.254 . S
O775 Dy761 2.339 . S
O775 C762 1.257 . S
C776 C779 1.344 . S
C776 C780 1.328 . S
C776 C782 1.516 . S
C777 C778 1.304 . S
C777 C781 1.323 . S
C778 C777 1.304 . S
C778 C779 1.371 . S
C778 H792 0.930 . S
C779 C776 1.344 . S
C779 C778 1.371 . S
C779 H793 0.931 . S
C780 C776 1.328 . S
C780 C781 1.433 . S
C780 H794 0.931 . S
C781 C777 1.323 . S
C781 C780 1.433 . S
C781 H795 0.933 . S
C782 Dy760 2.738 . S
C782 O765 1.255 . S
C782 O766 1.249 . S
C782 C776 1.516 . S
C783 O767 1.254 . S
C783 O768 1.257 . S
C784 O769 1.266 . S
C784 O770 1.236 . S
C785 C788 1.344 . S
C785 C789 1.328 . S
C785 C791 1.516 . S
C786 C787 1.304 . S
C786 C790 1.323 . S
C787 C786 1.304 . S
C787 C788 1.371 . S
C787 H796 0.930 . S
C788 C785 1.344 . S
C788 C787 1.371 . S
C788 H797 0.931 . S
C789 C785 1.328 . S
C789 C790 1.433 . S
C789 H798 0.931 . S
C790 C786 1.323 . S
C790 C789 1.433 . S
C790 H799 0.933 . S
C791 Dy761 2.738 . S
C791 O771 1.255 . S
C791 O772 1.249 . S
C791 C785 1.516 . S
H792 C778 0.930 . S
H793 C779 0.931 . S
H794 C780 0.931 . S
H795 C781 0.933 . S
H796 C787 0.930 . S
H797 C788 0.931 . S
H798 C789 0.931 . S
H799 C790 0.933 . S
Dy800 O803 2.307 . S
Dy800 O805 2.395 . S
Dy800 O806 2.379 . S
Dy800 O808 2.339 . S
Dy800 O810 2.298 . S
Dy800 O814 2.275 . S
Dy800 C822 2.738 . S
Dy801 O804 2.298 . S
Dy801 O807 2.275 . S
Dy801 O809 2.307 . S
Dy801 O811 2.395 . S
Dy801 O812 2.379 . S
Dy801 O815 2.339 . S
Dy801 C831 2.738 . S
C802 O814 1.254 . S
C802 O815 1.257 . S
O803 Dy800 2.307 . S
O803 C813 1.266 . S
O804 Dy801 2.298 . S
O804 C813 1.236 . S
O805 Dy800 2.395 . S
O805 C822 1.255 . S
O806 Dy800 2.379 . S
O806 C822 1.249 . S
O807 Dy801 2.275 . S
O807 C823 1.254 . S
O808 Dy800 2.339 . S
O808 C823 1.257 . S
O809 Dy801 2.307 . S
O809 C824 1.266 . S
O810 Dy800 2.298 . S
O810 C824 1.236 . S
O811 Dy801 2.395 . S
O811 C831 1.255 . S
O812 Dy801 2.379 . S
O812 C831 1.249 . S
C813 O803 1.266 . S
C813 O804 1.236 . S
O814 Dy800 2.275 . S
O814 C802 1.254 . S
O815 Dy801 2.339 . S
O815 C802 1.257 . S
C816 C819 1.344 . S
C816 C820 1.328 . S
C816 C822 1.516 . S
C817 C818 1.304 . S
C817 C821 1.323 . S
C818 C817 1.304 . S
C818 C819 1.371 . S
C818 H832 0.930 . S
C819 C816 1.344 . S
C819 C818 1.371 . S
C819 H833 0.931 . S
C820 C816 1.328 . S
C820 C821 1.433 . S
C820 H834 0.931 . S
C821 C817 1.323 . S
C821 C820 1.433 . S
C821 H835 0.933 . S
C822 Dy800 2.738 . S
C822 O805 1.255 . S
C822 O806 1.249 . S
C822 C816 1.516 . S
C823 O807 1.254 . S
C823 O808 1.257 . S
C824 O809 1.266 . S
C824 O810 1.236 . S
C825 C828 1.344 . S
C825 C829 1.328 . S
C825 C831 1.516 . S
C826 C827 1.304 . S
C826 C830 1.323 . S
C827 C826 1.304 . S
C827 C828 1.371 1_556 S
C827 H836 0.930 . S
C828 C825 1.344 . S
C828 C827 1.371 1_554 S
C828 H837 0.931 . S
C829 C825 1.328 . S
C829 C830 1.433 1_554 S
C829 H838 0.931 . S
C830 C826 1.323 . S
C830 C829 1.433 1_556 S
C830 H839 0.933 . S
C831 Dy801 2.738 . S
C831 O811 1.255 . S
C831 O812 1.249 . S
C831 C825 1.516 . S
H832 C818 0.930 . S
H833 C819 0.931 . S
H834 C820 0.931 . S
H835 C821 0.933 . S
H836 C827 0.930 . S
H837 C828 0.931 . S
H838 C829 0.931 . S
H839 C830 0.933 . S
Dy840 O843 2.307 . S
Dy840 O845 2.395 . S
Dy840 O846 2.379 . S
Dy840 O848 2.339 . S
Dy840 O850 2.298 . S
Dy840 O854 2.275 . S
Dy840 C862 2.738 . S
Dy841 O844 2.298 . S
Dy841 O847 2.275 . S
Dy841 O849 2.307 . S
Dy841 O851 2.395 . S
Dy841 O852 2.379 . S
Dy841 O855 2.339 . S
Dy841 C871 2.738 . S
C842 O854 1.254 . S
C842 O855 1.257 . S
O843 Dy840 2.307 . S
O843 C853 1.266 . S
O844 Dy841 2.298 . S
O844 C853 1.236 . S
O845 Dy840 2.395 . S
O845 C862 1.255 . S
O846 Dy840 2.379 . S
O846 C862 1.249 . S
O847 Dy841 2.275 . S
O847 C863 1.254 . S
O848 Dy840 2.339 . S
O848 C863 1.257 . S
O849 Dy841 2.307 . S
O849 C864 1.266 . S
O850 Dy840 2.298 . S
O850 C864 1.236 . S
O851 Dy841 2.395 . S
O851 C871 1.255 . S
O852 Dy841 2.379 . S
O852 C871 1.249 . S
C853 O843 1.266 . S
C853 O844 1.236 . S
O854 Dy840 2.275 . S
O854 C842 1.254 . S
O855 Dy841 2.339 . S
O855 C842 1.257 . S
C856 C859 1.344 . S
C856 C860 1.328 . S
C856 C862 1.516 . S
C857 C858 1.304 . S
C857 C861 1.323 . S
C858 C857 1.304 . S
C858 C859 1.371 . S
C858 H872 0.930 . S
C859 C856 1.344 . S
C859 C858 1.371 . S
C859 H873 0.931 . S
C860 C856 1.328 . S
C860 C861 1.433 . S
C860 H874 0.931 . S
C861 C857 1.323 . S
C861 C860 1.433 . S
C861 H875 0.933 . S
C862 Dy840 2.738 . S
C862 O845 1.255 . S
C862 O846 1.249 . S
C862 C856 1.516 . S
C863 O847 1.254 . S
C863 O848 1.257 . S
C864 O849 1.266 . S
C864 O850 1.236 . S
C865 C868 1.344 . S
C865 C869 1.328 . S
C865 C871 1.516 . S
C866 C867 1.304 . S
C866 C870 1.323 . S
C867 C866 1.304 . S
C867 C868 1.371 . S
C867 H876 0.930 . S
C868 C865 1.344 . S
C868 C867 1.371 . S
C868 H877 0.931 . S
C869 C865 1.328 . S
C869 C870 1.433 . S
C869 H878 0.931 . S
C870 C866 1.323 . S
C870 C869 1.433 . S
C870 H879 0.933 . S
C871 Dy841 2.738 . S
C871 O851 1.255 . S
C871 O852 1.249 . S
C871 C865 1.516 . S
H872 C858 0.930 . S
H873 C859 0.931 . S
H874 C860 0.931 . S
H875 C861 0.933 . S
H876 C867 0.930 . S
H877 C868 0.931 . S
H878 C869 0.931 . S
H879 C870 0.933 . S
Dy880 O883 2.307 . S
Dy880 O885 2.395 . S
Dy880 O886 2.379 . S
Dy880 O888 2.339 . S
Dy880 O890 2.298 . S
Dy880 O894 2.275 . S
Dy880 C902 2.738 . S
Dy881 O884 2.298 . S
Dy881 O887 2.275 . S
Dy881 O889 2.307 . S
Dy881 O891 2.395 . S
Dy881 O892 2.379 . S
Dy881 O895 2.339 . S
Dy881 C911 2.738 . S
C882 O894 1.254 . S
C882 O895 1.257 . S
O883 Dy880 2.307 . S
O883 C893 1.266 . S
O884 Dy881 2.298 . S
O884 C893 1.236 . S
O885 Dy880 2.395 . S
O885 C902 1.255 . S
O886 Dy880 2.379 . S
O886 C902 1.249 . S
O887 Dy881 2.275 . S
O887 C903 1.254 . S
O888 Dy880 2.339 . S
O888 C903 1.257 . S
O889 Dy881 2.307 . S
O889 C904 1.266 . S
O890 Dy880 2.298 . S
O890 C904 1.236 . S
O891 Dy881 2.395 . S
O891 C911 1.255 . S
O892 Dy881 2.379 . S
O892 C911 1.249 . S
C893 O883 1.266 . S
C893 O884 1.236 . S
O894 Dy880 2.275 . S
O894 C882 1.254 . S
O895 Dy881 2.339 . S
O895 C882 1.257 . S
C896 C899 1.344 . S
C896 C900 1.325 1_565 S
C896 C902 1.516 . S
C897 C898 1.304 . S
C897 C901 1.323 1_565 S
C898 C897 1.304 . S
C898 C899 1.371 . S
C898 H912 0.930 . S
C899 C896 1.344 . S
C899 C898 1.371 . S
C899 H913 0.931 . S
C900 C896 1.325 1_545 S
C900 C901 1.434 . S
C900 H914 0.933 . S
C901 C897 1.323 1_545 S
C901 C900 1.434 . S
C901 H915 0.933 . S
C902 Dy880 2.738 . S
C902 O885 1.255 . S
C902 O886 1.249 . S
C902 C896 1.516 . S
C903 O887 1.254 . S
C903 O888 1.257 . S
C904 O889 1.266 . S
C904 O890 1.236 . S
C905 C908 1.344 . S
C905 C909 1.328 . S
C905 C911 1.516 . S
C906 C907 1.304 . S
C906 C910 1.323 . S
C907 C906 1.304 . S
C907 C908 1.371 . S
C907 H916 0.930 . S
C908 C905 1.344 . S
C908 C907 1.371 . S
C908 H917 0.931 . S
C909 C905 1.328 . S
C909 C910 1.433 . S
C909 H918 0.931 . S
C910 C906 1.323 . S
C910 C909 1.433 . S
C910 H919 0.933 . S
C911 Dy881 2.738 . S
C911 O891 1.255 . S
C911 O892 1.249 . S
C911 C905 1.516 . S
H912 C898 0.930 . S
H913 C899 0.931 . S
H914 C900 0.933 . S
H915 C901 0.933 . S
H916 C907 0.930 . S
H917 C908 0.931 . S
H918 C909 0.931 . S
H919 C910 0.933 . S
Dy920 O923 2.307 . S
Dy920 O925 2.395 . S
Dy920 O926 2.379 . S
Dy920 O928 2.339 . S
Dy920 O930 2.298 . S
Dy920 O934 2.275 . S
Dy920 C942 2.738 . S
Dy921 O924 2.298 1_556 S
Dy921 O927 2.275 . S
Dy921 O929 2.307 . S
Dy921 O931 2.395 1_556 S
Dy921 O932 2.379 1_556 S
Dy921 O935 2.339 . S
Dy921 C951 2.738 1_556 S
C922 O934 1.254 . S
C922 O935 1.257 . S
O923 Dy920 2.307 . S
O923 C933 1.266 1_556 S
O924 Dy921 2.298 1_554 S
O924 C933 1.236 . S
O925 Dy920 2.395 . S
O925 C942 1.255 . S
O926 Dy920 2.379 . S
O926 C942 1.249 . S
O927 Dy921 2.275 . S
O927 C943 1.254 . S
O928 Dy920 2.339 . S
O928 C943 1.257 . S
O929 Dy921 2.307 . S
O929 C944 1.266 . S
O930 Dy920 2.298 . S
O930 C944 1.236 . S
O931 Dy921 2.395 1_554 S
O931 C951 1.255 . S
O932 Dy921 2.379 1_554 S
O932 C951 1.249 . S
C933 O923 1.266 1_554 S
C933 O924 1.236 . S
O934 Dy920 2.275 . S
O934 C922 1.254 . S
O935 Dy921 2.339 . S
O935 C922 1.257 . S
C936 C939 1.344 . S
C936 C940 1.328 . S
C936 C942 1.516 . S
C937 C938 1.304 . S
C937 C941 1.323 . S
C938 C937 1.304 . S
C938 C939 1.371 . S
C938 H952 0.930 . S
C939 C936 1.344 . S
C939 C938 1.371 . S
C939 H953 0.931 . S
C940 C936 1.328 . S
C940 C941 1.433 . S
C940 H954 0.931 . S
C941 C937 1.323 . S
C941 C940 1.433 . S
C941 H955 0.933 . S
C942 Dy920 2.738 . S
C942 O925 1.255 . S
C942 O926 1.249 . S
C942 C936 1.516 . S
C943 O927 1.254 . S
C943 O928 1.257 . S
C944 O929 1.266 . S
C944 O930 1.236 . S
C945 C948 1.344 . S
C945 C949 1.328 . S
C945 C951 1.516 . S
C946 C947 1.304 . S
C946 C950 1.323 . S
C947 C946 1.304 . S
C947 C948 1.371 . S
C947 H956 0.930 . S
C948 C945 1.344 . S
C948 C947 1.371 . S
C948 H957 0.931 . S
C949 C945 1.328 . S
C949 C950 1.433 . S
C949 H958 0.931 . S
C950 C946 1.323 . S
C950 C949 1.433 . S
C950 H959 0.933 . S
C951 Dy921 2.738 1_554 S
C951 O931 1.255 . S
C951 O932 1.249 . S
C951 C945 1.516 . S
H952 C938 0.930 . S
H953 C939 0.931 . S
H954 C940 0.931 . S
H955 C941 0.933 . S
H956 C947 0.930 . S
H957 C948 0.931 . S
H958 C949 0.931 . S
H959 C950 0.933 . S
Dy960 O963 2.307 . S
Dy960 O965 2.395 . S
Dy960 O966 2.379 . S
Dy960 O968 2.339 . S
Dy960 O970 2.298 . S
Dy960 O974 2.275 . S
Dy960 C982 2.738 . S
Dy961 O964 2.298 . S
Dy961 O967 2.275 . S
Dy961 O969 2.307 . S
Dy961 O971 2.395 . S
Dy961 O972 2.379 1_545 S
Dy961 O975 2.339 1_545 S
Dy961 C991 2.738 1_545 S
C962 O974 1.254 . S
C962 O975 1.257 1_545 S
O963 Dy960 2.307 . S
O963 C973 1.266 . S
O964 Dy961 2.298 . S
O964 C973 1.236 . S
O965 Dy960 2.395 . S
O965 C982 1.255 . S
O966 Dy960 2.379 . S
O966 C982 1.249 . S
O967 Dy961 2.275 . S
O967 C983 1.254 . S
O968 Dy960 2.339 . S
O968 C983 1.257 . S
O969 Dy961 2.307 . S
O969 C984 1.266 . S
O970 Dy960 2.298 . S
O970 C984 1.236 . S
O971 Dy961 2.395 . S
O971 C991 1.255 1_545 S
O972 Dy961 2.379 1_565 S
O972 C991 1.249 . S
C973 O963 1.266 . S
C973 O964 1.236 . S
O974 Dy960 2.275 . S
O974 C962 1.254 . S
O975 Dy961 2.339 1_565 S
O975 C962 1.257 1_565 S
C976 C979 1.344 . S
C976 C980 1.328 . S
C976 C982 1.516 . S
C977 C978 1.304 . S
C977 C981 1.323 . S
C978 C977 1.304 . S
C978 C979 1.371 . S
C978 H992 0.930 . S
C979 C976 1.344 . S
C979 C978 1.371 . S
C979 H993 0.931 . S
C980 C976 1.328 . S
C980 C981 1.433 . S
C980 H994 0.931 . S
C981 C977 1.323 . S
C981 C980 1.433 . S
C981 H995 0.933 . S
C982 Dy960 2.738 . S
C982 O965 1.255 . S
C982 O966 1.249 . S
C982 C976 1.516 . S
C983 O967 1.254 . S
C983 O968 1.257 . S
C984 O969 1.266 . S
C984 O970 1.236 . S
C985 C988 1.344 . S
C985 C989 1.328 . S
C985 C991 1.516 . S
C986 C987 1.304 . S
C986 C990 1.323 . S
C987 C986 1.304 . S
C987 C988 1.371 . S
C987 H996 0.930 . S
C988 C985 1.344 . S
C988 C987 1.371 . S
C988 H997 0.931 1_565 S
C989 C985 1.328 . S
C989 C990 1.433 . S
C989 H998 0.931 . S
C990 C986 1.323 . S
C990 C989 1.433 . S
C990 H999 0.933 . S
C991 Dy961 2.738 1_565 S
C991 O971 1.255 1_565 S
C991 O972 1.249 . S
C991 C985 1.516 . S
H992 C978 0.930 . S
H993 C979 0.931 . S
H994 C980 0.931 . S
H995 C981 0.933 . S
H996 C987 0.930 . S
H997 C988 0.931 1_545 S
H998 C989 0.931 . S
H999 C990 0.933 . S
Dy1000 O1003 2.307 . S
Dy1000 O1005 2.395 . S
Dy1000 O1006 2.379 . S
Dy1000 O1008 2.339 . S
Dy1000 O1010 2.298 . S
Dy1000 O1014 2.275 . S
Dy1000 C1022 2.738 . S
Dy1001 O1004 2.298 . S
Dy1001 O1007 2.275 . S
Dy1001 O1009 2.307 . S
Dy1001 O1011 2.395 . S
Dy1001 O1012 2.379 . S
Dy1001 O1015 2.339 . S
Dy1001 C1031 2.738 . S
C1002 O1014 1.254 . S
C1002 O1015 1.257 . S
O1003 Dy1000 2.307 . S
O1003 C1013 1.266 . S
O1004 Dy1001 2.298 . S
O1004 C1013 1.236 . S
O1005 Dy1000 2.395 . S
O1005 C1022 1.255 . S
O1006 Dy1000 2.379 . S
O1006 C1022 1.249 . S
O1007 Dy1001 2.275 . S
O1007 C1023 1.254 . S
O1008 Dy1000 2.339 . S
O1008 C1023 1.257 . S
O1009 Dy1001 2.307 . S
O1009 C1024 1.266 . S
O1010 Dy1000 2.298 . S
O1010 C1024 1.236 . S
O1011 Dy1001 2.395 . S
O1011 C1031 1.255 . S
O1012 Dy1001 2.379 . S
O1012 C1031 1.249 . S
C1013 O1003 1.266 . S
C1013 O1004 1.236 . S
O1014 Dy1000 2.275 . S
O1014 C1002 1.254 . S
O1015 Dy1001 2.339 . S
O1015 C1002 1.257 . S
C1016 C1019 1.344 . S
C1016 C1020 1.328 . S
C1016 C1022 1.516 . S
C1017 C1018 1.304 . S
C1017 C1021 1.323 . S
C1018 C1017 1.304 . S
C1018 C1019 1.371 . S
C1018 H1032 0.930 . S
C1019 C1016 1.344 . S
C1019 C1018 1.371 . S
C1019 H1033 0.931 . S
C1020 C1016 1.328 . S
C1020 C1021 1.433 . S
C1020 H1034 0.931 . S
C1021 C1017 1.323 . S
C1021 C1020 1.433 . S
C1021 H1035 0.933 . S
C1022 Dy1000 2.738 . S
C1022 O1005 1.255 . S
C1022 O1006 1.249 . S
C1022 C1016 1.516 . S
C1023 O1007 1.254 . S
C1023 O1008 1.257 . S
C1024 O1009 1.266 . S
C1024 O1010 1.236 . S
C1025 C1028 1.344 . S
C1025 C1029 1.328 . S
C1025 C1031 1.516 . S
C1026 C1027 1.304 . S
C1026 C1030 1.323 . S
C1027 C1026 1.304 . S
C1027 C1028 1.371 . S
C1027 H1036 0.930 . S
C1028 C1025 1.344 . S
C1028 C1027 1.371 . S
C1028 H1037 0.931 . S
C1029 C1025 1.328 . S
C1029 C1030 1.433 . S
C1029 H1038 0.931 . S
C1030 C1026 1.323 . S
C1030 C1029 1.433 . S
C1030 H1039 0.933 . S
C1031 Dy1001 2.738 . S
C1031 O1011 1.255 . S
C1031 O1012 1.249 . S
C1031 C1025 1.516 . S
H1032 C1018 0.930 . S
H1033 C1019 0.931 . S
H1034 C1020 0.931 . S
H1035 C1021 0.933 . S
H1036 C1027 0.930 . S
H1037 C1028 0.931 . S
H1038 C1029 0.931 . S
H1039 C1030 0.933 . S
Dy1040 O1043 2.307 . S
Dy1040 O1045 2.395 . S
Dy1040 O1046 2.379 . S
Dy1040 O1048 2.339 . S
Dy1040 O1050 2.298 . S
Dy1040 O1054 2.275 . S
Dy1040 C1062 2.738 . S
Dy1041 O1044 2.298 . S
Dy1041 O1047 2.275 . S
Dy1041 O1049 2.307 . S
Dy1041 O1051 2.395 . S
Dy1041 O1052 2.379 . S
Dy1041 O1055 2.339 . S
Dy1041 C1071 2.738 . S
C1042 O1054 1.254 . S
C1042 O1055 1.257 . S
O1043 Dy1040 2.307 . S
O1043 C1053 1.266 . S
O1044 Dy1041 2.298 . S
O1044 C1053 1.236 . S
O1045 Dy1040 2.395 . S
O1045 C1062 1.255 . S
O1046 Dy1040 2.379 . S
O1046 C1062 1.249 . S
O1047 Dy1041 2.275 . S
O1047 C1063 1.254 . S
O1048 Dy1040 2.339 . S
O1048 C1063 1.257 . S
O1049 Dy1041 2.307 . S
O1049 C1064 1.266 . S
O1050 Dy1040 2.298 . S
O1050 C1064 1.236 . S
O1051 Dy1041 2.395 . S
O1051 C1071 1.255 . S
O1052 Dy1041 2.379 . S
O1052 C1071 1.249 . S
C1053 O1043 1.266 . S
C1053 O1044 1.236 . S
O1054 Dy1040 2.275 . S
O1054 C1042 1.254 . S
O1055 Dy1041 2.339 . S
O1055 C1042 1.257 . S
C1056 C1059 1.344 . S
C1056 C1060 1.328 . S
C1056 C1062 1.516 . S
C1057 C1058 1.304 . S
C1057 C1061 1.323 . S
C1058 C1057 1.304 . S
C1058 C1059 1.371 . S
C1058 H1072 0.930 1_455 S
C1059 C1056 1.344 . S
C1059 C1058 1.371 . S
C1059 H1073 0.931 . S
C1060 C1056 1.328 . S
C1060 C1061 1.433 . S
C1060 H1074 0.931 . S
C1061 C1057 1.323 . S
C1061 C1060 1.433 . S
C1061 H1075 0.933 . S
C1062 Dy1040 2.738 . S
C1062 O1045 1.255 . S
C1062 O1046 1.249 . S
C1062 C1056 1.516 . S
C1063 O1047 1.254 . S
C1063 O1048 1.257 . S
C1064 O1049 1.266 . S
C1064 O1050 1.236 . S
C1065 C1068 1.344 1_554 S
C1065 C1069 1.328 . S
C1065 C1071 1.516 . S
C1066 C1067 1.304 . S
C1066 C1070 1.323 1_565 S
C1067 C1066 1.304 . S
C1067 C1068 1.371 . S
C1067 H1076 0.930 . S
C1068 C1065 1.344 1_556 S
C1068 C1067 1.371 . S
C1068 H1077 0.935 . S
C1069 C1065 1.328 . S
C1069 C1070 1.433 1_564 S
C1069 H1078 0.931 1_565 S
C1070 C1066 1.323 1_545 S
C1070 C1069 1.433 1_546 S
C1070 H1079 0.933 . S
C1071 Dy1041 2.738 . S
C1071 O1051 1.255 . S
C1071 O1052 1.249 . S
C1071 C1065 1.516 . S
H1072 C1058 0.930 1_655 S
H1073 C1059 0.931 . S
H1074 C1060 0.931 . S
H1075 C1061 0.933 . S
H1076 C1067 0.930 . S
H1077 C1068 0.935 . S
H1078 C1069 0.931 1_545 S
H1079 C1070 0.933 . S
Dy1080 O1083 2.307 . S
Dy1080 O1085 2.395 1_556 S
Dy1080 O1086 2.379 1_556 S
Dy1080 O1088 2.339 . S
Dy1080 O1090 2.298 1_556 S
Dy1080 O1094 2.275 . S
Dy1080 C1102 2.738 1_556 S
Dy1081 O1084 2.298 . S
Dy1081 O1087 2.275 . S
Dy1081 O1089 2.307 1_556 S
Dy1081 O1091 2.395 . S
Dy1081 O1092 2.379 . S
Dy1081 O1095 2.339 . S
Dy1081 C1111 2.738 . S
C1082 O1094 1.254 . S
C1082 O1095 1.257 . S
O1083 Dy1080 2.307 . S
O1083 C1093 1.266 . S
O1084 Dy1081 2.298 . S
O1084 C1093 1.236 . S
O1085 Dy1080 2.395 1_554 S
O1085 C1102 1.255 . S
O1086 Dy1080 2.379 1_554 S
O1086 C1102 1.249 . S
O1087 Dy1081 2.275 . S
O1087 C1103 1.254 . S
O1088 Dy1080 2.339 . S
O1088 C1103 1.257 . S
O1089 Dy1081 2.307 1_554 S
O1089 C1104 1.266 . S
O1090 Dy1080 2.298 1_554 S
O1090 C1104 1.236 . S
O1091 Dy1081 2.395 . S
O1091 C1111 1.255 . S
O1092 Dy1081 2.379 . S
O1092 C1111 1.249 . S
C1093 O1083 1.266 . S
C1093 O1084 1.236 . S
O1094 Dy1080 2.275 . S
O1094 C1082 1.254 . S
O1095 Dy1081 2.339 . S
O1095 C1082 1.257 . S
C1096 C1099 1.344 . S
C1096 C1100 1.328 . S
C1096 C1102 1.516 . S
C1097 C1098 1.304 . S
C1097 C1101 1.323 . S
C1098 C1097 1.304 . S
C1098 C1099 1.371 . S
C1098 H1112 0.930 . S
C1099 C1096 1.344 . S
C1099 C1098 1.371 . S
C1099 H1113 0.931 . S
C1100 C1096 1.328 . S
C1100 C1101 1.433 . S
C1100 H1114 0.931 . S
C1101 C1097 1.323 . S
C1101 C1100 1.433 . S
C1101 H1115 0.933 . S
C1102 Dy1080 2.738 1_554 S
C1102 O1085 1.255 . S
C1102 O1086 1.249 . S
C1102 C1096 1.516 . S
C1103 O1087 1.254 . S
C1103 O1088 1.257 . S
C1104 O1089 1.266 . S
C1104 O1090 1.236 . S
C1105 C1108 1.344 . S
C1105 C1109 1.328 . S
C1105 C1111 1.516 . S
C1106 C1107 1.304 . S
C1106 C1110 1.323 . S
C1107 C1106 1.304 . S
C1107 C1108 1.371 . S
C1107 H1116 0.930 . S
C1108 C1105 1.344 . S
C1108 C1107 1.371 . S
C1108 H1117 0.931 . S
C1109 C1105 1.328 . S
C1109 C1110 1.433 . S
C1109 H1118 0.931 . S
C1110 C1106 1.323 . S
C1110 C1109 1.433 . S
C1110 H1119 0.933 . S
C1111 Dy1081 2.738 . S
C1111 O1091 1.255 . S
C1111 O1092 1.249 . S
C1111 C1105 1.516 . S
H1112 C1098 0.930 . S
H1113 C1099 0.931 . S
H1114 C1100 0.931 . S
H1115 C1101 0.933 . S
H1116 C1107 0.930 . S
H1117 C1108 0.931 . S
H1118 C1109 0.931 . S
H1119 C1110 0.933 . S
Dy1120 O1123 2.307 . S
Dy1120 O1125 2.395 . S
Dy1120 O1126 2.379 . S
Dy1120 O1128 2.339 . S
Dy1120 O1130 2.298 . S
Dy1120 O1134 2.275 . S
Dy1120 C1142 2.738 . S
Dy1121 O1124 2.298 . S
Dy1121 O1127 2.275 . S
Dy1121 O1129 2.307 . S
Dy1121 O1131 2.395 . S
Dy1121 O1132 2.379 . S
Dy1121 O1135 2.339 . S
Dy1121 C1151 2.738 . S
C1122 O1134 1.254 . S
C1122 O1135 1.257 . S
O1123 Dy1120 2.307 . S
O1123 C1133 1.266 . S
O1124 Dy1121 2.298 . S
O1124 C1133 1.236 . S
O1125 Dy1120 2.395 . S
O1125 C1142 1.255 . S
O1126 Dy1120 2.379 . S
O1126 C1142 1.249 . S
O1127 Dy1121 2.275 . S
O1127 C1143 1.254 . S
O1128 Dy1120 2.339 . S
O1128 C1143 1.257 . S
O1129 Dy1121 2.307 . S
O1129 C1144 1.266 . S
O1130 Dy1120 2.298 . S
O1130 C1144 1.236 . S
O1131 Dy1121 2.395 . S
O1131 C1151 1.255 . S
O1132 Dy1121 2.379 . S
O1132 C1151 1.249 . S
C1133 O1123 1.266 . S
C1133 O1124 1.236 . S
O1134 Dy1120 2.275 . S
O1134 C1122 1.254 . S
O1135 Dy1121 2.339 . S
O1135 C1122 1.257 . S
C1136 C1139 1.344 . S
C1136 C1140 1.328 . S
C1136 C1142 1.516 . S
C1137 C1138 1.304 . S
C1137 C1141 1.323 . S
C1138 C1137 1.304 . S
C1138 C1139 1.371 . S
C1138 H1152 0.930 . S
C1139 C1136 1.344 . S
C1139 C1138 1.371 . S
C1139 H1153 0.931 . S
C1140 C1136 1.328 . S
C1140 C1141 1.433 . S
C1140 H1154 0.931 . S
C1141 C1137 1.323 . S
C1141 C1140 1.433 . S
C1141 H1155 0.933 . S
C1142 Dy1120 2.738 . S
C1142 O1125 1.255 . S
C1142 O1126 1.249 . S
C1142 C1136 1.516 . S
C1143 O1127 1.254 . S
C1143 O1128 1.257 . S
C1144 O1129 1.266 . S
C1144 O1130 1.236 . S
C1145 C1148 1.344 . S
C1145 C1149 1.328 . S
C1145 C1151 1.516 1_556 S
C1146 C1147 1.304 . S
C1146 C1150 1.323 . S
C1147 C1146 1.304 . S
C1147 C1148 1.371 . S
C1147 H1156 0.930 . S
C1148 C1145 1.344 . S
C1148 C1147 1.371 . S
C1148 H1157 0.931 . S
C1149 C1145 1.328 . S
C1149 C1150 1.433 . S
C1149 H1158 0.931 . S
C1150 C1146 1.323 . S
C1150 C1149 1.433 . S
C1150 H1159 0.933 . S
C1151 Dy1121 2.738 . S
C1151 O1131 1.255 . S
C1151 O1132 1.249 . S
C1151 C1145 1.516 1_554 S
H1152 C1138 0.930 . S
H1153 C1139 0.931 . S
H1154 C1140 0.931 . S
H1155 C1141 0.933 . S
H1156 C1147 0.930 . S
H1157 C1148 0.931 . S
H1158 C1149 0.931 . S
H1159 C1150 0.933 . S
Dy1160 O1163 2.307 . S
Dy1160 O1165 2.395 . S
Dy1160 O1166 2.379 . S
Dy1160 O1168 2.339 . S
Dy1160 O1170 2.298 . S
Dy1160 O1174 2.275 . S
Dy1160 C1182 2.738 . S
Dy1161 O1164 2.298 . S
Dy1161 O1167 2.275 . S
Dy1161 O1169 2.307 . S
Dy1161 O1171 2.395 . S
Dy1161 O1172 2.379 . S
Dy1161 O1175 2.339 . S
Dy1161 C1191 2.738 . S
C1162 O1174 1.254 . S
C1162 O1175 1.257 . S
O1163 Dy1160 2.307 . S
O1163 C1173 1.266 . S
O1164 Dy1161 2.298 . S
O1164 C1173 1.236 . S
O1165 Dy1160 2.395 . S
O1165 C1182 1.255 . S
O1166 Dy1160 2.379 . S
O1166 C1182 1.249 . S
O1167 Dy1161 2.275 . S
O1167 C1183 1.254 . S
O1168 Dy1160 2.339 . S
O1168 C1183 1.257 . S
O1169 Dy1161 2.307 . S
O1169 C1184 1.266 . S
O1170 Dy1160 2.298 . S
O1170 C1184 1.236 . S
O1171 Dy1161 2.395 . S
O1171 C1191 1.255 . S
O1172 Dy1161 2.379 . S
O1172 C1191 1.249 . S
C1173 O1163 1.266 . S
C1173 O1164 1.236 . S
O1174 Dy1160 2.275 . S
O1174 C1162 1.254 . S
O1175 Dy1161 2.339 . S
O1175 C1162 1.257 . S
C1176 C1179 1.344 . S
C1176 C1180 1.328 . S
C1176 C1182 1.516 . S
C1177 C1178 1.304 . S
C1177 C1181 1.323 . S
C1178 C1177 1.304 . S
C1178 C1179 1.371 . S
C1178 H1192 0.930 . S
C1179 C1176 1.344 . S
C1179 C1178 1.371 . S
C1179 H1193 0.931 . S
C1180 C1176 1.328 . S
C1180 C1181 1.433 . S
C1180 H1194 0.931 . S
C1181 C1177 1.323 . S
C1181 C1180 1.433 . S
C1181 H1195 0.933 . S
C1182 Dy1160 2.738 . S
C1182 O1165 1.255 . S
C1182 O1166 1.249 . S
C1182 C1176 1.516 . S
C1183 O1167 1.254 . S
C1183 O1168 1.257 . S
C1184 O1169 1.266 . S
C1184 O1170 1.236 . S
C1185 C1188 1.344 . S
C1185 C1189 1.328 . S
C1185 C1191 1.516 1_554 S
C1186 C1187 1.304 . S
C1186 C1190 1.323 . S
C1187 C1186 1.304 . S
C1187 C1188 1.371 . S
C1187 H1196 0.930 . S
C1188 C1185 1.344 . S
C1188 C1187 1.371 . S
C1188 H1197 0.931 . S
C1189 C1185 1.328 . S
C1189 C1190 1.433 . S
C1189 H1198 0.931 . S
C1190 C1186 1.323 . S
C1190 C1189 1.433 . S
C1190 H1199 0.933 . S
C1191 Dy1161 2.738 . S
C1191 O1171 1.255 . S
C1191 O1172 1.249 . S
C1191 C1185 1.516 1_556 S
H1192 C1178 0.930 . S
H1193 C1179 0.931 . S
H1194 C1180 0.931 . S
H1195 C1181 0.933 . S
H1196 C1187 0.930 . S
H1197 C1188 0.931 . S
H1198 C1189 0.931 . S
H1199 C1190 0.933 . S
Dy1200 O1203 2.307 . S
Dy1200 O1205 2.395 . S
Dy1200 O1206 2.379 . S
Dy1200 O1208 2.339 . S
Dy1200 O1210 2.298 . S
Dy1200 O1214 2.275 . S
Dy1200 C1222 2.738 . S
Dy1201 O1204 2.298 . S
Dy1201 O1207 2.275 . S
Dy1201 O1209 2.307 . S
Dy1201 O1211 2.395 . S
Dy1201 O1212 2.379 . S
Dy1201 O1215 2.339 . S
Dy1201 C1231 2.738 . S
C1202 O1214 1.254 . S
C1202 O1215 1.257 . S
O1203 Dy1200 2.307 . S
O1203 C1213 1.266 . S
O1204 Dy1201 2.298 . S
O1204 C1213 1.236 . S
O1205 Dy1200 2.395 . S
O1205 C1222 1.255 . S
O1206 Dy1200 2.379 . S
O1206 C1222 1.249 . S
O1207 Dy1201 2.275 . S
O1207 C1223 1.254 . S
O1208 Dy1200 2.339 . S
O1208 C1223 1.257 . S
O1209 Dy1201 2.307 . S
O1209 C1224 1.266 . S
O1210 Dy1200 2.298 . S
O1210 C1224 1.236 . S
O1211 Dy1201 2.395 . S
O1211 C1231 1.255 . S
O1212 Dy1201 2.379 . S
O1212 C1231 1.249 . S
C1213 O1203 1.266 . S
C1213 O1204 1.236 . S
O1214 Dy1200 2.275 . S
O1214 C1202 1.254 . S
O1215 Dy1201 2.339 . S
O1215 C1202 1.257 . S
C1216 C1219 1.344 . S
C1216 C1220 1.328 . S
C1216 C1222 1.516 . S
C1217 C1218 1.304 . S
C1217 C1221 1.323 . S
C1218 C1217 1.304 . S
C1218 C1219 1.371 . S
C1218 H1232 0.930 . S
C1219 C1216 1.344 . S
C1219 C1218 1.371 . S
C1219 H1233 0.931 . S
C1220 C1216 1.328 . S
C1220 C1221 1.433 . S
C1220 H1234 0.931 . S
C1221 C1217 1.323 . S
C1221 C1220 1.433 . S
C1221 H1235 0.933 . S
C1222 Dy1200 2.738 . S
C1222 O1205 1.255 . S
C1222 O1206 1.249 . S
C1222 C1216 1.516 . S
C1223 O1207 1.254 . S
C1223 O1208 1.257 . S
C1224 O1209 1.266 . S
C1224 O1210 1.236 . S
C1225 C1228 1.344 . S
C1225 C1229 1.325 1_545 S
C1225 C1231 1.516 . S
C1226 C1227 1.304 . S
C1226 C1230 1.323 1_545 S
C1227 C1226 1.304 . S
C1227 C1228 1.371 . S
C1227 H1236 0.930 . S
C1228 C1225 1.344 . S
C1228 C1227 1.371 . S
C1228 H1237 0.931 . S
C1229 C1225 1.325 1_565 S
C1229 C1230 1.434 . S
C1229 H1238 0.933 . S
C1230 C1226 1.323 1_565 S
C1230 C1229 1.434 . S
C1230 H1239 0.933 . S
C1231 Dy1201 2.738 . S
C1231 O1211 1.255 . S
C1231 O1212 1.249 . S
C1231 C1225 1.516 . S
H1232 C1218 0.930 . S
H1233 C1219 0.931 . S
H1234 C1220 0.931 . S
H1235 C1221 0.933 . S
H1236 C1227 0.930 . S
H1237 C1228 0.931 . S
H1238 C1229 0.933 . S
H1239 C1230 0.933 . S
Dy1240 O1243 2.307 . S
Dy1240 O1245 2.395 . S
Dy1240 O1246 2.379 . S
Dy1240 O1248 2.339 . S
Dy1240 O1250 2.298 . S
Dy1240 O1254 2.275 . S
Dy1240 C1262 2.738 . S
Dy1241 O1244 2.298 . S
Dy1241 O1247 2.275 . S
Dy1241 O1249 2.307 . S
Dy1241 O1251 2.395 . S
Dy1241 O1252 2.379 . S
Dy1241 O1255 2.339 . S
Dy1241 C1271 2.738 . S
C1242 O1254 1.254 . S
C1242 O1255 1.257 . S
O1243 Dy1240 2.307 . S
O1243 C1253 1.266 . S
O1244 Dy1241 2.298 . S
O1244 C1253 1.236 . S
O1245 Dy1240 2.395 . S
O1245 C1262 1.255 . S
O1246 Dy1240 2.379 . S
O1246 C1262 1.249 . S
O1247 Dy1241 2.275 . S
O1247 C1263 1.254 . S
O1248 Dy1240 2.339 . S
O1248 C1263 1.257 . S
O1249 Dy1241 2.307 . S
O1249 C1264 1.266 . S
O1250 Dy1240 2.298 . S
O1250 C1264 1.236 . S
O1251 Dy1241 2.395 . S
O1251 C1271 1.255 . S
O1252 Dy1241 2.379 . S
O1252 C1271 1.249 . S
C1253 O1243 1.266 . S
C1253 O1244 1.236 . S
O1254 Dy1240 2.275 . S
O1254 C1242 1.254 . S
O1255 Dy1241 2.339 . S
O1255 C1242 1.257 . S
C1256 C1259 1.344 . S
C1256 C1260 1.328 . S
C1256 C1262 1.516 . S
C1257 C1258 1.304 . S
C1257 C1261 1.323 . S
C1258 C1257 1.304 . S
C1258 C1259 1.371 . S
C1258 H1272 0.930 . S
C1259 C1256 1.344 . S
C1259 C1258 1.371 . S
C1259 H1273 0.931 . S
C1260 C1256 1.328 . S
C1260 C1261 1.433 . S
C1260 H1274 0.931 . S
C1261 C1257 1.323 . S
C1261 C1260 1.433 . S
C1261 H1275 0.933 . S
C1262 Dy1240 2.738 . S
C1262 O1245 1.255 . S
C1262 O1246 1.249 . S
C1262 C1256 1.516 . S
C1263 O1247 1.254 . S
C1263 O1248 1.257 . S
C1264 O1249 1.266 . S
C1264 O1250 1.236 . S
C1265 C1268 1.344 . S
C1265 C1269 1.328 . S
C1265 C1271 1.516 . S
C1266 C1267 1.304 . S
C1266 C1270 1.323 . S
C1267 C1266 1.304 . S
C1267 C1268 1.371 . S
C1267 H1276 0.930 . S
C1268 C1265 1.344 . S
C1268 C1267 1.371 . S
C1268 H1277 0.931 . S
C1269 C1265 1.328 . S
C1269 C1270 1.433 . S
C1269 H1278 0.931 . S
C1270 C1266 1.323 . S
C1270 C1269 1.433 . S
C1270 H1279 0.933 . S
C1271 Dy1241 2.738 . S
C1271 O1251 1.255 . S
C1271 O1252 1.249 . S
C1271 C1265 1.516 . S
H1272 C1258 0.930 . S
H1273 C1259 0.931 . S
H1274 C1260 0.931 . S
H1275 C1261 0.933 . S
H1276 C1267 0.930 . S
H1277 C1268 0.931 . S
H1278 C1269 0.931 . S
H1279 C1270 0.933 . S
C1280 C1281 1.387 . S
C1280 H1284 0.950 . S
C1280 C1289 1.390 . S
C1281 C1280 1.387 . S
C1281 C1283 1.387 . S
H1282 C1289 0.950 . S
C1283 C1281 1.387 . S
C1283 C1285 1.390 . S
C1283 H1287 0.950 . S
H1284 C1280 0.950 . S
C1285 C1283 1.390 . S
C1285 C1286 1.387 . S
C1285 H1288 0.950 . S
C1286 C1285 1.387 . S
C1286 C1289 1.387 . S
H1287 C1283 0.950 . S
H1288 C1285 0.950 . S
C1289 C1280 1.390 . S
C1289 H1282 0.950 . S
C1289 C1286 1.387 . S
C1290 C1291 1.387 . S
C1290 H1294 0.950 . S
C1290 C1299 1.390 . S
C1291 C1290 1.387 . S
C1291 C1293 1.387 . S
H1292 C1299 0.950 . S
C1293 C1291 1.387 . S
C1293 C1295 1.390 . S
C1293 H1297 0.950 . S
H1294 C1290 0.950 . S
C1295 C1293 1.390 . S
C1295 C1296 1.387 . S
C1295 H1298 0.950 . S
C1296 C1295 1.387 . S
C1296 C1299 1.387 . S
H1297 C1293 0.950 . S
H1298 C1295 0.950 . S
C1299 C1290 1.390 . S
C1299 H1292 0.950 . S
C1299 C1296 1.387 . S
C1300 C1301 1.387 . S
C1300 H1304 0.950 . S
C1300 C1309 1.390 . S
C1301 C1300 1.387 . S
C1301 C1303 1.387 . S
H1302 C1309 0.950 . S
C1303 C1301 1.387 . S
C1303 C1305 1.390 . S
C1303 H1307 0.950 . S
H1304 C1300 0.950 . S
C1305 C1303 1.390 . S
C1305 C1306 1.387 . S
C1305 H1308 0.950 . S
C1306 C1305 1.387 . S
C1306 C1309 1.387 . S
H1307 C1303 0.950 . S
H1308 C1305 0.950 . S
C1309 C1300 1.390 . S
C1309 H1302 0.950 . S
C1309 C1306 1.387 . S
C1310 C1311 1.387 . S
C1310 H1314 0.950 . S
C1310 C1319 1.390 . S
C1311 C1310 1.387 . S
C1311 C1313 1.387 . S
H1312 C1319 0.950 . S
C1313 C1311 1.387 . S
C1313 C1315 1.390 . S
C1313 H1317 0.950 . S
H1314 C1310 0.950 . S
C1315 C1313 1.390 . S
C1315 C1316 1.387 . S
C1315 H1318 0.950 . S
C1316 C1315 1.387 . S
C1316 C1319 1.387 . S
H1317 C1313 0.950 . S
H1318 C1315 0.950 . S
C1319 C1310 1.390 . S
C1319 H1312 0.950 . S
C1319 C1316 1.387 . S
C1320 C1321 1.387 . S
C1320 H1324 0.950 . S
C1320 C1329 1.390 . S
C1321 C1320 1.387 . S
C1321 C1323 1.387 . S
H1322 C1329 0.950 . S
C1323 C1321 1.387 . S
C1323 C1325 1.390 . S
C1323 H1327 0.950 . S
H1324 C1320 0.950 . S
C1325 C1323 1.390 . S
C1325 C1326 1.387 . S
C1325 H1328 0.950 . S
C1326 C1325 1.387 . S
C1326 C1329 1.387 . S
H1327 C1323 0.950 . S
H1328 C1325 0.950 . S
C1329 C1320 1.390 . S
C1329 H1322 0.950 . S
C1329 C1326 1.387 . S
C1330 C1331 1.387 . S
C1330 H1334 0.950 . S
C1330 C1339 1.390 . S
C1331 C1330 1.387 . S
C1331 C1333 1.387 . S
H1332 C1339 0.950 . S
C1333 C1331 1.387 . S
C1333 C1335 1.390 . S
C1333 H1337 0.950 . S
H1334 C1330 0.950 . S
C1335 C1333 1.390 . S
C1335 C1336 1.387 . S
C1335 H1338 0.950 . S
C1336 C1335 1.387 . S
C1336 C1339 1.387 . S
H1337 C1333 0.950 . S
H1338 C1335 0.950 . S
C1339 C1330 1.390 . S
C1339 H1332 0.950 . S
C1339 C1336 1.387 . S
C1340 C1341 1.387 . S
C1340 H1344 0.950 . S
C1340 C1349 1.390 . S
C1341 C1340 1.387 . S
C1341 C1343 1.387 . S
H1342 C1349 0.950 . S
C1343 C1341 1.387 . S
C1343 C1345 1.390 . S
C1343 H1347 0.950 . S
H1344 C1340 0.950 . S
C1345 C1343 1.390 . S
C1345 C1346 1.387 . S
C1345 H1348 0.950 . S
C1346 C1345 1.387 . S
C1346 C1349 1.387 . S
H1347 C1343 0.950 . S
H1348 C1345 0.950 . S
C1349 C1340 1.390 . S
C1349 H1342 0.950 . S
C1349 C1346 1.387 . S
C1350 C1351 1.387 . S
C1350 H1354 0.950 . S
C1350 C1359 1.390 . S
C1351 C1350 1.387 . S
C1351 C1353 1.387 . S
H1352 C1359 0.950 . S
C1353 C1351 1.387 . S
C1353 C1355 1.390 . S
C1353 H1357 0.950 . S
H1354 C1350 0.950 . S
C1355 C1353 1.390 . S
C1355 C1356 1.387 . S
C1355 H1358 0.950 . S
C1356 C1355 1.387 . S
C1356 C1359 1.387 . S
H1357 C1353 0.950 . S
H1358 C1355 0.950 . S
C1359 C1350 1.390 . S
C1359 H1352 0.950 . S
C1359 C1356 1.387 . S
C1360 C1361 1.387 . S
C1360 H1364 0.950 . S
C1360 C1369 1.390 . S
C1361 C1360 1.387 . S
C1361 C1363 1.387 . S
H1362 C1369 0.950 . S
C1363 C1361 1.387 . S
C1363 C1365 1.390 . S
C1363 H1367 0.950 . S
H1364 C1360 0.950 . S
C1365 C1363 1.390 . S
C1365 C1366 1.387 . S
C1365 H1368 0.950 . S
C1366 C1365 1.387 . S
C1366 C1369 1.387 . S
H1367 C1363 0.950 . S
H1368 C1365 0.950 . S
C1369 C1360 1.390 . S
C1369 H1362 0.950 . S
C1369 C1366 1.387 . S
C1370 C1371 1.387 . S
C1370 H1374 0.950 . S
C1370 C1379 1.390 . S
C1371 C1370 1.387 . S
C1371 C1373 1.387 . S
H1372 C1379 0.950 . S
C1373 C1371 1.387 . S
C1373 C1375 1.390 . S
C1373 H1377 0.950 . S
H1374 C1370 0.950 . S
C1375 C1373 1.390 . S
C1375 C1376 1.387 . S
C1375 H1378 0.950 . S
C1376 C1375 1.387 . S
C1376 C1379 1.387 . S
H1377 C1373 0.950 . S
H1378 C1375 0.950 . S
C1379 C1370 1.390 . S
C1379 H1372 0.950 . S
C1379 C1376 1.387 . S
C1380 C1381 1.387 . S
C1380 H1384 0.950 . S
C1380 C1389 1.390 1_545 S
C1381 C1380 1.387 . S
C1381 C1383 1.387 . S
H1382 C1389 0.950 . S
C1383 C1381 1.387 . S
C1383 C1385 1.390 1_545 S
C1383 H1387 0.950 . S
H1384 C1380 0.950 . S
C1385 C1383 1.390 1_565 S
C1385 C1386 1.387 . S
C1385 H1388 0.950 . S
C1386 C1385 1.387 . S
C1386 C1389 1.387 . S
H1387 C1383 0.950 . S
H1388 C1385 0.950 . S
C1389 C1380 1.390 1_565 S
C1389 H1382 0.950 . S
C1389 C1386 1.387 . S
C1390 C1391 1.387 . S
C1390 H1394 0.950 . S
C1390 C1399 1.390 . S
C1391 C1390 1.387 . S
C1391 C1393 1.387 . S
H1392 C1399 0.950 . S
C1393 C1391 1.387 . S
C1393 C1395 1.390 . S
C1393 H1397 0.950 . S
H1394 C1390 0.950 . S
C1395 C1393 1.390 . S
C1395 C1396 1.387 . S
C1395 H1398 0.950 . S
C1396 C1395 1.387 . S
C1396 C1399 1.387 . S
H1397 C1393 0.950 . S
H1398 C1395 0.950 . S
C1399 C1390 1.390 . S
C1399 H1392 0.950 . S
C1399 C1396 1.387 . S
C1400 C1401 1.387 . S
C1400 H1404 0.950 . S
C1400 C1409 1.390 . S
C1401 C1400 1.387 . S
C1401 C1403 1.387 . S
H1402 C1409 0.950 . S
C1403 C1401 1.387 . S
C1403 C1405 1.390 . S
C1403 H1407 0.950 . S
H1404 C1400 0.950 . S
C1405 C1403 1.390 . S
C1405 C1406 1.387 . S
C1405 H1408 0.950 . S
C1406 C1405 1.387 . S
C1406 C1409 1.387 . S
H1407 C1403 0.950 . S
H1408 C1405 0.950 . S
C1409 C1400 1.390 . S
C1409 H1402 0.950 . S
C1409 C1406 1.387 . S
C1410 C1411 1.387 . S
C1410 H1414 0.950 . S
C1410 C1419 1.390 . S
C1411 C1410 1.387 . S
C1411 C1413 1.387 . S
H1412 C1419 0.950 . S
C1413 C1411 1.387 . S
C1413 C1415 1.390 . S
C1413 H1417 0.950 . S
H1414 C1410 0.950 . S
C1415 C1413 1.390 . S
C1415 C1416 1.387 . S
C1415 H1418 0.950 . S
C1416 C1415 1.387 . S
C1416 C1419 1.387 . S
H1417 C1413 0.950 . S
H1418 C1415 0.950 . S
C1419 C1410 1.390 . S
C1419 H1412 0.950 . S
C1419 C1416 1.387 . S
C1420 C1421 1.387 . S
C1420 H1424 0.950 . S
C1420 C1429 1.390 1_565 S
C1421 C1420 1.387 . S
C1421 C1423 1.387 . S
H1422 C1429 0.950 . S
C1423 C1421 1.387 . S
C1423 C1425 1.390 1_565 S
C1423 H1427 0.950 . S
H1424 C1420 0.950 . S
C1425 C1423 1.390 1_545 S
C1425 C1426 1.387 . S
C1425 H1428 0.950 . S
C1426 C1425 1.387 . S
C1426 C1429 1.387 . S
H1427 C1423 0.950 . S
H1428 C1425 0.950 . S
C1429 C1420 1.390 1_545 S
C1429 H1422 0.950 . S
C1429 C1426 1.387 . S
C1430 C1431 1.387 . S
C1430 H1434 0.950 . S
C1430 C1439 1.390 . S
C1431 C1430 1.387 . S
C1431 C1433 1.387 . S
H1432 C1439 0.950 . S
C1433 C1431 1.387 . S
C1433 C1435 1.390 . S
C1433 H1437 0.950 . S
H1434 C1430 0.950 . S
C1435 C1433 1.390 . S
C1435 C1436 1.387 . S
C1435 H1438 0.950 . S
C1436 C1435 1.387 . S
C1436 C1439 1.387 . S
H1437 C1433 0.950 . S
H1438 C1435 0.950 . S
C1439 C1430 1.390 . S
C1439 H1432 0.950 . S
C1439 C1436 1.387 . S
C1440 C1441 1.387 . S
C1440 H1444 0.950 . S
C1440 C1449 1.390 . S
C1441 C1440 1.387 . S
C1441 C1443 1.387 . S
H1442 C1449 0.950 . S
C1443 C1441 1.387 . S
C1443 C1445 1.390 . S
C1443 H1447 0.950 . S
H1444 C1440 0.950 . S
C1445 C1443 1.390 . S
C1445 C1446 1.387 . S
C1445 H1448 0.950 . S
C1446 C1445 1.387 . S
C1446 C1449 1.387 . S
H1447 C1443 0.950 . S
H1448 C1445 0.950 . S
C1449 C1440 1.390 . S
C1449 H1442 0.950 . S
C1449 C1446 1.387 . S
C1450 C1451 1.387 . S
C1450 H1454 0.950 . S
C1450 C1459 1.390 . S
C1451 C1450 1.387 . S
C1451 C1453 1.387 . S
H1452 C1459 0.950 . S
C1453 C1451 1.387 . S
C1453 C1455 1.390 . S
C1453 H1457 0.950 . S
H1454 C1450 0.950 . S
C1455 C1453 1.390 . S
C1455 C1456 1.387 . S
C1455 H1458 0.950 . S
C1456 C1455 1.387 . S
C1456 C1459 1.387 . S
H1457 C1453 0.950 . S
H1458 C1455 0.950 . S
C1459 C1450 1.390 . S
C1459 H1452 0.950 . S
C1459 C1456 1.387 . S
C1460 C1461 1.387 . S
C1460 H1464 0.950 . S
C1460 C1469 1.390 . S
C1461 C1460 1.387 . S
C1461 C1463 1.387 . S
H1462 C1469 0.950 . S
C1463 C1461 1.387 . S
C1463 C1465 1.390 . S
C1463 H1467 0.950 . S
H1464 C1460 0.950 . S
C1465 C1463 1.390 . S
C1465 C1466 1.387 . S
C1465 H1468 0.950 . S
C1466 C1465 1.387 . S
C1466 C1469 1.387 . S
H1467 C1463 0.950 . S
H1468 C1465 0.950 . S
C1469 C1460 1.390 . S
C1469 H1462 0.950 . S
C1469 C1466 1.387 . S
C1470 C1471 1.387 . S
C1470 H1474 0.950 . S
C1470 C1479 1.390 . S
C1471 C1470 1.387 . S
C1471 C1473 1.387 . S
H1472 C1479 0.950 . S
C1473 C1471 1.387 . S
C1473 C1475 1.390 . S
C1473 H1477 0.950 . S
H1474 C1470 0.950 . S
C1475 C1473 1.390 . S
C1475 C1476 1.387 . S
C1475 H1478 0.950 . S
C1476 C1475 1.387 . S
C1476 C1479 1.387 . S
H1477 C1473 0.950 . S
H1478 C1475 0.950 . S
C1479 C1470 1.390 . S
C1479 H1472 0.950 . S
C1479 C1476 1.387 . S
C1480 C1481 1.387 . S
C1480 H1484 0.950 . S
C1480 C1489 1.390 . S
C1481 C1480 1.387 . S
C1481 C1483 1.387 . S
H1482 C1489 0.950 . S
C1483 C1481 1.387 . S
C1483 C1485 1.390 . S
C1483 H1487 0.950 . S
H1484 C1480 0.950 . S
C1485 C1483 1.390 . S
C1485 C1486 1.387 . S
C1485 H1488 0.950 . S
C1486 C1485 1.387 . S
C1486 C1489 1.387 . S
H1487 C1483 0.950 . S
H1488 C1485 0.950 . S
C1489 C1480 1.390 . S
C1489 H1482 0.950 . S
C1489 C1486 1.387 . S
C1490 C1491 1.387 . S
C1490 H1494 0.950 . S
C1490 C1499 1.390 . S
C1491 C1490 1.387 . S
C1491 C1493 1.387 . S
H1492 C1499 0.950 . S
C1493 C1491 1.387 . S
C1493 C1495 1.390 . S
C1493 H1497 0.950 . S
H1494 C1490 0.950 . S
C1495 C1493 1.390 . S
C1495 C1496 1.387 . S
C1495 H1498 0.950 . S
C1496 C1495 1.387 . S
C1496 C1499 1.387 . S
H1497 C1493 0.950 . S
H1498 C1495 0.950 . S
C1499 C1490 1.390 . S
C1499 H1492 0.950 . S
C1499 C1496 1.387 . S
C1500 C1501 1.387 . S
C1500 H1504 0.950 . S
C1500 C1509 1.390 . S
C1501 C1500 1.387 . S
C1501 C1503 1.387 . S
H1502 C1509 0.950 . S
C1503 C1501 1.387 . S
C1503 C1505 1.390 . S
C1503 H1507 0.950 . S
H1504 C1500 0.950 . S
C1505 C1503 1.390 . S
C1505 C1506 1.387 1_554 S
C1505 H1508 0.950 . S
C1506 C1505 1.387 1_556 S
C1506 C1509 1.387 1_556 S
H1507 C1503 0.950 . S
H1508 C1505 0.950 . S
C1509 C1500 1.390 . S
C1509 H1502 0.950 . S
C1509 C1506 1.387 1_554 S
C1510 C1511 1.387 . S
C1510 H1514 0.950 . S
C1510 C1519 1.390 . S
C1511 C1510 1.387 . S
C1511 C1513 1.387 . S
H1512 C1519 0.950 . S
C1513 C1511 1.387 . S
C1513 C1515 1.390 . S
C1513 H1517 0.950 . S
H1514 C1510 0.950 . S
C1515 C1513 1.390 . S
C1515 C1516 1.387 . S
C1515 H1518 0.950 . S
C1516 C1515 1.387 . S
C1516 C1519 1.387 . S
H1517 C1513 0.950 . S
H1518 C1515 0.950 . S
C1519 C1510 1.390 . S
C1519 H1512 0.950 . S
C1519 C1516 1.387 . S
C1520 C1521 1.387 . S
C1520 H1524 0.950 . S
C1520 C1529 1.390 . S
C1521 C1520 1.387 . S
C1521 C1523 1.387 . S
H1522 C1529 0.950 . S
C1523 C1521 1.387 . S
C1523 C1525 1.390 . S
C1523 H1527 0.950 . S
H1524 C1520 0.950 . S
C1525 C1523 1.390 . S
C1525 C1526 1.387 . S
C1525 H1528 0.950 . S
C1526 C1525 1.387 . S
C1526 C1529 1.387 . S
H1527 C1523 0.950 . S
H1528 C1525 0.950 . S
C1529 C1520 1.390 . S
C1529 H1522 0.950 . S
C1529 C1526 1.387 . S
C1530 C1531 1.387 . S
C1530 H1534 0.950 . S
C1530 C1539 1.390 . S
C1531 C1530 1.387 . S
C1531 C1533 1.387 . S
H1532 C1539 0.950 . S
C1533 C1531 1.387 . S
C1533 C1535 1.390 . S
C1533 H1537 0.950 . S
H1534 C1530 0.950 . S
C1535 C1533 1.390 . S
C1535 C1536 1.387 . S
C1535 H1538 0.950 . S
C1536 C1535 1.387 . S
C1536 C1539 1.387 . S
H1537 C1533 0.950 . S
H1538 C1535 0.950 . S
C1539 C1530 1.390 . S
C1539 H1532 0.950 . S
C1539 C1536 1.387 . S
C1540 C1541 1.387 . S
C1540 H1544 0.950 . S
C1540 C1549 1.390 . S
C1541 C1540 1.387 . S
C1541 C1543 1.387 . S
H1542 C1549 0.950 . S
C1543 C1541 1.387 . S
C1543 C1545 1.390 . S
C1543 H1547 0.950 . S
H1544 C1540 0.950 . S
C1545 C1543 1.390 . S
C1545 C1546 1.387 . S
C1545 H1548 0.950 . S
C1546 C1545 1.387 . S
C1546 C1549 1.387 . S
H1547 C1543 0.950 . S
H1548 C1545 0.950 . S
C1549 C1540 1.390 . S
C1549 H1542 0.950 . S
C1549 C1546 1.387 . S
C1550 C1551 1.387 . S
C1550 H1554 0.950 . S
C1550 C1559 1.390 . S
C1551 C1550 1.387 . S
C1551 C1553 1.387 . S
H1552 C1559 0.950 . S
C1553 C1551 1.387 . S
C1553 C1555 1.390 . S
C1553 H1557 0.950 . S
H1554 C1550 0.950 . S
C1555 C1553 1.390 . S
C1555 C1556 1.387 . S
C1555 H1558 0.950 . S
C1556 C1555 1.387 . S
C1556 C1559 1.387 . S
H1557 C1553 0.950 . S
H1558 C1555 0.950 . S
C1559 C1550 1.390 . S
C1559 H1552 0.950 . S
C1559 C1556 1.387 . S
C1560 C1561 1.387 . S
C1560 H1564 0.950 . S
C1560 C1569 1.390 . S
C1561 C1560 1.387 . S
C1561 C1563 1.387 . S
H1562 C1569 0.950 . S
C1563 C1561 1.387 . S
C1563 C1565 1.390 . S
C1563 H1567 0.950 . S
H1564 C1560 0.950 . S
C1565 C1563 1.390 . S
C1565 C1566 1.387 . S
C1565 H1568 0.950 . S
C1566 C1565 1.387 . S
C1566 C1569 1.387 . S
H1567 C1563 0.950 . S
H1568 C1565 0.950 . S
C1569 C1560 1.390 . S
C1569 H1562 0.950 . S
C1569 C1566 1.387 . S
C1570 C1571 1.387 . S
C1570 H1574 0.950 . S
C1570 C1579 1.390 . S
C1571 C1570 1.387 . S
C1571 C1573 1.387 . S
H1572 C1579 0.950 . S
C1573 C1571 1.387 . S
C1573 C1575 1.390 . S
C1573 H1577 0.950 . S
H1574 C1570 0.950 . S
C1575 C1573 1.390 . S
C1575 C1576 1.387 . S
C1575 H1578 0.950 . S
C1576 C1575 1.387 . S
C1576 C1579 1.387 . S
H1577 C1573 0.950 . S
H1578 C1575 0.950 . S
C1579 C1570 1.390 . S
C1579 H1572 0.950 . S
C1579 C1576 1.387 . S
C1580 C1581 1.387 . S
C1580 H1584 0.950 . S
C1580 C1589 1.390 . S
C1581 C1580 1.387 . S
C1581 C1583 1.387 . S
H1582 C1589 0.950 . S
C1583 C1581 1.387 . S
C1583 C1585 1.390 . S
C1583 H1587 0.950 . S
H1584 C1580 0.950 . S
C1585 C1583 1.390 . S
C1585 C1586 1.387 . S
C1585 H1588 0.950 . S
C1586 C1585 1.387 . S
C1586 C1589 1.387 . S
H1587 C1583 0.950 . S
H1588 C1585 0.950 . S
C1589 C1580 1.390 . S
C1589 H1582 0.950 . S
C1589 C1586 1.387 . S
C1590 C1591 1.387 1_554 S
C1590 H1594 0.950 . S
C1590 C1599 1.390 . S
C1591 C1590 1.387 1_556 S
C1591 C1593 1.387 1_556 S
H1592 C1599 0.950 . S
C1593 C1591 1.387 1_554 S
C1593 C1595 1.390 . S
C1593 H1597 0.950 1_554 S
H1594 C1590 0.950 . S
C1595 C1593 1.390 . S
C1595 C1596 1.387 . S
C1595 H1598 0.950 . S
C1596 C1595 1.387 . S
C1596 C1599 1.387 . S
H1597 C1593 0.950 1_556 S
H1598 C1595 0.950 . S
C1599 C1590 1.390 . S
C1599 H1592 0.950 . S
C1599 C1596 1.387 . S
C1600 C1601 1.387 . S
C1600 H1604 0.950 . S
C1600 C1609 1.390 1_655 S
C1601 C1600 1.387 . S
C1601 C1603 1.387 . S
H1602 C1609 0.950 . S
C1603 C1601 1.387 . S
C1603 C1605 1.390 1_655 S
C1603 H1607 0.950 . S
H1604 C1600 0.950 . S
C1605 C1603 1.390 1_455 S
C1605 C1606 1.387 . S
C1605 H1608 0.950 . S
C1606 C1605 1.387 . S
C1606 C1609 1.387 . S
H1607 C1603 0.950 . S
H1608 C1605 0.950 . S
C1609 C1600 1.390 1_455 S
C1609 H1602 0.950 . S
C1609 C1606 1.387 . S
C1610 C1611 1.387 . S
C1610 H1614 0.950 . S
C1610 C1619 1.390 . S
C1611 C1610 1.387 . S
C1611 C1613 1.387 . S
H1612 C1619 0.950 . S
C1613 C1611 1.387 . S
C1613 C1615 1.390 . S
C1613 H1617 0.950 . S
H1614 C1610 0.950 . S
C1615 C1613 1.390 . S
C1615 C1616 1.387 . S
C1615 H1618 0.950 . S
C1616 C1615 1.387 . S
C1616 C1619 1.387 . S
H1617 C1613 0.950 . S
H1618 C1615 0.950 . S
C1619 C1610 1.390 . S
C1619 H1612 0.950 . S
C1619 C1616 1.387 . S
C1620 C1621 1.387 . S
C1620 H1624 0.950 . S
C1620 C1629 1.390 . S
C1621 C1620 1.387 . S
C1621 C1623 1.387 . S
H1622 C1629 0.950 . S
C1623 C1621 1.387 . S
C1623 C1625 1.390 . S
C1623 H1627 0.950 . S
H1624 C1620 0.950 . S
C1625 C1623 1.390 . S
C1625 C1626 1.387 . S
C1625 H1628 0.950 . S
C1626 C1625 1.387 . S
C1626 C1629 1.387 . S
H1627 C1623 0.950 . S
H1628 C1625 0.950 . S
C1629 C1620 1.390 . S
C1629 H1622 0.950 . S
C1629 C1626 1.387 . S
C1630 C1631 1.387 . S
C1630 H1634 0.950 . S
C1630 C1639 1.390 . S
C1631 C1630 1.387 . S
C1631 C1633 1.387 . S
H1632 C1639 0.950 . S
C1633 C1631 1.387 . S
C1633 C1635 1.390 . S
C1633 H1637 0.950 . S
H1634 C1630 0.950 . S
C1635 C1633 1.390 . S
C1635 C1636 1.387 . S
C1635 H1638 0.950 . S
C1636 C1635 1.387 . S
C1636 C1639 1.387 . S
H1637 C1633 0.950 . S
H1638 C1635 0.950 . S
C1639 C1630 1.390 . S
C1639 H1632 0.950 . S
C1639 C1636 1.387 . S
C1640 C1641 1.387 1_455 S
C1640 H1644 0.950 . S
C1640 C1649 1.390 . S
C1641 C1640 1.387 1_655 S
C1641 C1643 1.387 . S
H1642 C1649 0.950 . S
C1643 C1641 1.387 . S
C1643 C1645 1.390 . S
C1643 H1647 0.950 . S
H1644 C1640 0.950 . S
C1645 C1643 1.390 . S
C1645 C1646 1.387 1_655 S
C1645 H1648 0.950 . S
C1646 C1645 1.387 1_455 S
C1646 C1649 1.387 . S
H1647 C1643 0.950 . S
H1648 C1645 0.950 . S
C1649 C1640 1.390 . S
C1649 H1642 0.950 . S
C1649 C1646 1.387 . S
C1650 C1651 1.387 . S
C1650 H1654 0.950 . S
C1650 C1659 1.390 . S
C1651 C1650 1.387 . S
C1651 C1653 1.387 . S
H1652 C1659 0.950 . S
C1653 C1651 1.387 . S
C1653 C1655 1.390 . S
C1653 H1657 0.950 . S
H1654 C1650 0.950 . S
C1655 C1653 1.390 . S
C1655 C1656 1.387 . S
C1655 H1658 0.950 . S
C1656 C1655 1.387 . S
C1656 C1659 1.387 . S
H1657 C1653 0.950 . S
H1658 C1655 0.950 . S
C1659 C1650 1.390 . S
C1659 H1652 0.950 . S
C1659 C1656 1.387 . S
C1660 C1661 1.387 . S
C1660 H1664 0.950 . S
C1660 C1669 1.390 . S
C1661 C1660 1.387 . S
C1661 C1663 1.387 . S
H1662 C1669 0.950 . S
C1663 C1661 1.387 . S
C1663 C1665 1.390 . S
C1663 H1667 0.950 . S
H1664 C1660 0.950 . S
C1665 C1663 1.390 . S
C1665 C1666 1.387 . S
C1665 H1668 0.950 . S
C1666 C1665 1.387 . S
C1666 C1669 1.387 . S
H1667 C1663 0.950 . S
H1668 C1665 0.950 . S
C1669 C1660 1.390 . S
C1669 H1662 0.950 . S
C1669 C1666 1.387 . S
C1670 C1671 1.387 . S
C1670 H1674 0.950 . S
C1670 C1679 1.390 . S
C1671 C1670 1.387 . S
C1671 C1673 1.387 . S
H1672 C1679 0.950 . S
C1673 C1671 1.387 . S
C1673 C1675 1.390 . S
C1673 H1677 0.950 . S
H1674 C1670 0.950 . S
C1675 C1673 1.390 . S
C1675 C1676 1.387 . S
C1675 H1678 0.950 . S
C1676 C1675 1.387 . S
C1676 C1679 1.387 . S
H1677 C1673 0.950 . S
H1678 C1675 0.950 . S
C1679 C1670 1.390 . S
C1679 H1672 0.950 . S
C1679 C1676 1.387 . S
C1680 C1681 1.387 . S
C1680 H1684 0.950 . S
C1680 C1689 1.390 . S
C1681 C1680 1.387 . S
C1681 C1683 1.387 . S
H1682 C1689 0.950 . S
C1683 C1681 1.387 . S
C1683 C1685 1.390 . S
C1683 H1687 0.950 . S
H1684 C1680 0.950 . S
C1685 C1683 1.390 . S
C1685 C1686 1.387 . S
C1685 H1688 0.950 . S
C1686 C1685 1.387 . S
C1686 C1689 1.387 . S
H1687 C1683 0.950 . S
H1688 C1685 0.950 . S
C1689 C1680 1.390 . S
C1689 H1682 0.950 . S
C1689 C1686 1.387 . S
C1690 C1691 1.387 . S
C1690 H1694 0.950 . S
C1690 C1699 1.390 . S
C1691 C1690 1.387 . S
C1691 C1693 1.387 . S
H1692 C1699 0.950 . S
C1693 C1691 1.387 . S
C1693 C1695 1.390 . S
C1693 H1697 0.950 . S
H1694 C1690 0.950 . S
C1695 C1693 1.390 . S
C1695 C1696 1.387 . S
C1695 H1698 0.950 . S
C1696 C1695 1.387 . S
C1696 C1699 1.387 . S
H1697 C1693 0.950 . S
H1698 C1695 0.950 . S
C1699 C1690 1.390 . S
C1699 H1692 0.950 . S
C1699 C1696 1.387 . S
C1700 C1701 1.387 . S
C1700 H1704 0.950 . S
C1700 C1709 1.390 . S
C1701 C1700 1.387 . S
C1701 C1703 1.387 . S
H1702 C1709 0.950 . S
C1703 C1701 1.387 . S
C1703 C1705 1.390 . S
C1703 H1707 0.950 . S
H1704 C1700 0.950 . S
C1705 C1703 1.390 . S
C1705 C1706 1.387 . S
C1705 H1708 0.950 . S
C1706 C1705 1.387 . S
C1706 C1709 1.387 . S
H1707 C1703 0.950 . S
H1708 C1705 0.950 . S
C1709 C1700 1.390 . S
C1709 H1702 0.950 . S
C1709 C1706 1.387 . S
C1710 C1711 1.387 . S
C1710 H1714 0.950 . S
C1710 C1719 1.390 . S
C1711 C1710 1.387 . S
C1711 C1713 1.387 . S
H1712 C1719 0.950 . S
C1713 C1711 1.387 . S
C1713 C1715 1.390 . S
C1713 H1717 0.944 1_556 S
H1714 C1710 0.950 . S
C1715 C1713 1.390 . S
C1715 C1716 1.387 . S
C1715 H1718 0.950 . S
C1716 C1715 1.387 . S
C1716 C1719 1.387 . S
H1717 C1713 0.944 1_554 S
H1718 C1715 0.950 . S
C1719 C1710 1.390 . S
C1719 H1712 0.950 . S
C1719 C1716 1.387 . S
C1720 C1721 1.387 1_565 S
C1720 H1724 0.950 . S
C1720 C1729 1.390 . S
C1721 C1720 1.387 1_545 S
C1721 C1723 1.387 . S
H1722 C1729 0.950 . S
C1723 C1721 1.387 . S
C1723 C1725 1.390 . S
C1723 H1727 0.950 . S
H1724 C1720 0.950 . S
C1725 C1723 1.390 . S
C1725 C1726 1.387 1_545 S
C1725 H1728 0.950 . S
C1726 C1725 1.387 1_565 S
C1726 C1729 1.387 . S
H1727 C1723 0.950 . S
H1728 C1725 0.950 . S
C1729 C1720 1.390 . S
C1729 H1722 0.950 . S
C1729 C1726 1.387 . S
C1730 C1731 1.387 1_655 S
C1730 H1734 0.950 . S
C1730 C1739 1.394 . S
C1731 C1730 1.387 1_455 S
C1731 C1733 1.384 1_565 S
H1732 C1739 0.950 . S
C1733 C1731 1.384 1_545 S
C1733 C1735 1.394 . S
C1733 H1737 0.950 . S
H1734 C1730 0.950 . S
C1735 C1733 1.394 . S
C1735 C1736 1.387 1_455 S
C1735 H1738 0.950 . S
C1736 C1735 1.387 1_655 S
C1736 C1739 1.384 1_545 S
H1737 C1733 0.950 . S
H1738 C1735 0.950 . S
C1739 C1730 1.394 . S
C1739 H1732 0.950 . S
C1739 C1736 1.384 1_565 S
C1740 C1741 1.387 . S
C1740 H1744 0.950 . S
C1740 C1749 1.390 1_565 S
C1741 C1740 1.387 . S
C1741 C1743 1.387 . S
H1742 C1749 0.950 . S
C1743 C1741 1.387 . S
C1743 C1745 1.390 1_565 S
C1743 H1747 0.950 . S
H1744 C1740 0.950 . S
C1745 C1743 1.390 1_545 S
C1745 C1746 1.387 . S
C1745 H1748 0.950 . S
C1746 C1745 1.387 . S
C1746 C1749 1.387 . S
H1747 C1743 0.950 . S
H1748 C1745 0.950 . S
C1749 C1740 1.390 1_545 S
C1749 H1742 0.950 . S
C1749 C1746 1.387 . S
C1750 C1751 1.387 1_455 S
C1750 H1754 0.950 . S
C1750 C1759 1.390 . S
C1751 C1750 1.387 1_655 S
C1751 C1753 1.387 1_565 S
H1752 C1759 0.950 . S
C1753 C1751 1.387 1_545 S
C1753 C1755 1.390 . S
C1753 H1757 0.950 . S
H1754 C1750 0.950 . S
C1755 C1753 1.390 . S
C1755 C1756 1.387 1_655 S
C1755 H1758 0.950 . S
C1756 C1755 1.387 1_455 S
C1756 C1759 1.387 1_545 S
H1757 C1753 0.950 . S
H1758 C1755 0.950 . S
C1759 C1750 1.390 . S
C1759 H1752 0.950 . S
C1759 C1756 1.387 1_565 S
C1760 C1761 1.387 . S
C1760 H1764 0.950 . S
C1760 C1769 1.390 . S
C1761 C1760 1.387 . S
C1761 C1763 1.387 . S
H1762 C1769 0.950 . S
C1763 C1761 1.387 . S
C1763 C1765 1.390 . S
C1763 H1767 0.961 . S
H1764 C1760 0.950 . S
C1765 C1763 1.390 . S
C1765 C1766 1.387 . S
C1765 H1768 0.950 . S
C1766 C1765 1.387 . S
C1766 C1769 1.387 . S
H1767 C1763 0.961 . S
H1768 C1765 0.950 . S
C1769 C1760 1.390 . S
C1769 H1762 0.950 . S
C1769 C1766 1.387 . S
C1770 C1771 1.387 1_554 S
C1770 H1774 0.950 . S
C1770 C1779 1.390 . S
C1771 C1770 1.387 1_556 S
C1771 C1773 1.387 . S
H1772 C1779 0.950 . S
C1773 C1771 1.387 . S
C1773 C1775 1.390 . S
C1773 H1777 0.950 . S
H1774 C1770 0.950 . S
C1775 C1773 1.390 . S
C1775 C1776 1.387 1_556 S
C1775 H1778 0.950 . S
C1776 C1775 1.387 1_554 S
C1776 C1779 1.387 . S
H1777 C1773 0.950 . S
H1778 C1775 0.950 . S
C1779 C1770 1.390 . S
C1779 H1772 0.950 . S
C1779 C1776 1.387 . S
C1780 C1781 1.387 . S
C1780 H1784 0.950 . S
C1780 C1789 1.390 . S
C1781 C1780 1.387 . S
C1781 C1783 1.387 . S
H1782 C1789 0.950 . S
C1783 C1781 1.387 . S
C1783 C1785 1.390 . S
C1783 H1787 0.950 . S
H1784 C1780 0.950 . S
C1785 C1783 1.390 . S
C1785 C1786 1.387 . S
C1785 H1788 0.950 . S
C1786 C1785 1.387 . S
C1786 C1789 1.387 . S
H1787 C1783 0.950 . S
H1788 C1785 0.950 . S
C1789 C1780 1.390 . S
C1789 H1782 0.950 . S
C1789 C1786 1.387 . S
C1790 C1791 1.387 . S
C1790 H1794 0.950 . S
C1790 C1799 1.390 . S
C1791 C1790 1.387 . S
C1791 C1793 1.387 . S
H1792 C1799 0.950 . S
C1793 C1791 1.387 . S
C1793 C1795 1.390 . S
C1793 H1797 0.950 . S
H1794 C1790 0.950 . S
C1795 C1793 1.390 . S
C1795 C1796 1.387 . S
C1795 H1798 0.950 . S
C1796 C1795 1.387 . S
C1796 C1799 1.387 . S
H1797 C1793 0.950 . S
H1798 C1795 0.950 . S
C1799 C1790 1.390 . S
C1799 H1792 0.950 . S
C1799 C1796 1.387 . S
C1800 C1801 1.387 . S
C1800 H1804 0.950 . S
C1800 C1809 1.395 . S
C1801 C1800 1.387 . S
C1801 C1803 1.387 . S
H1802 C1809 0.949 1_455 S
C1803 C1801 1.387 . S
C1803 C1805 1.390 1_655 S
C1803 H1807 0.950 . S
H1804 C1800 0.950 . S
C1805 C1803 1.390 1_455 S
C1805 C1806 1.387 . S
C1805 H1808 0.950 . S
C1806 C1805 1.387 . S
C1806 C1809 1.384 1_455 S
H1807 C1803 0.950 . S
H1808 C1805 0.950 . S
C1809 C1800 1.395 . S
C1809 H1802 0.949 1_655 S
C1809 C1806 1.384 1_655 S
C1810 C1811 1.387 . S
C1810 H1814 0.950 . S
C1810 C1819 1.390 . S
C1811 C1810 1.387 . S
C1811 C1813 1.387 . S
H1812 C1819 0.950 . S
C1813 C1811 1.387 . S
C1813 C1815 1.390 . S
C1813 H1817 0.950 . S
H1814 C1810 0.950 . S
C1815 C1813 1.390 . S
C1815 C1816 1.387 . S
C1815 H1818 0.950 . S
C1816 C1815 1.387 . S
C1816 C1819 1.387 . S
H1817 C1813 0.950 . S
H1818 C1815 0.950 . S
C1819 C1810 1.390 . S
C1819 H1812 0.950 . S
C1819 C1816 1.387 . S
C1820 C1821 1.387 . S
C1820 H1824 0.950 . S
C1820 C1829 1.390 . S
C1821 C1820 1.387 . S
C1821 C1823 1.387 . S
H1822 C1829 0.950 . S
C1823 C1821 1.387 . S
C1823 C1825 1.390 . S
C1823 H1827 0.950 . S
H1824 C1820 0.950 . S
C1825 C1823 1.390 . S
C1825 C1826 1.387 . S
C1825 H1828 0.950 . S
C1826 C1825 1.387 . S
C1826 C1829 1.387 . S
H1827 C1823 0.950 . S
H1828 C1825 0.950 . S
C1829 C1820 1.390 . S
C1829 H1822 0.950 . S
C1829 C1826 1.387 . S
C1830 C1831 1.387 . S
C1830 H1834 0.950 . S
C1830 C1839 1.390 . S
C1831 C1830 1.387 . S
C1831 C1833 1.387 . S
H1832 C1839 0.950 . S
C1833 C1831 1.387 . S
C1833 C1835 1.390 . S
C1833 H1837 0.950 . S
H1834 C1830 0.950 . S
C1835 C1833 1.390 . S
C1835 C1836 1.387 . S
C1835 H1838 0.950 . S
C1836 C1835 1.387 . S
C1836 C1839 1.387 . S
H1837 C1833 0.950 . S
H1838 C1835 0.950 . S
C1839 C1830 1.390 . S
C1839 H1832 0.950 . S
C1839 C1836 1.387 . S
C1840 C1841 1.387 . S
C1840 H1844 0.950 . S
C1840 C1849 1.390 . S
C1841 C1840 1.387 . S
C1841 C1843 1.387 . S
H1842 C1849 0.950 . S
C1843 C1841 1.387 . S
C1843 C1845 1.390 . S
C1843 H1847 0.950 . S
H1844 C1840 0.950 . S
C1845 C1843 1.390 . S
C1845 C1846 1.387 . S
C1845 H1848 0.950 . S
C1846 C1845 1.387 . S
C1846 C1849 1.387 . S
H1847 C1843 0.950 . S
H1848 C1845 0.950 . S
C1849 C1840 1.390 . S
C1849 H1842 0.950 . S
C1849 C1846 1.387 . S
C1850 C1851 1.387 . S
C1850 H1854 0.950 . S
C1850 C1859 1.390 . S
C1851 C1850 1.387 . S
C1851 C1853 1.387 . S
H1852 C1859 0.950 . S
C1853 C1851 1.387 . S
C1853 C1855 1.390 . S
C1853 H1857 0.950 . S
H1854 C1850 0.950 . S
C1855 C1853 1.390 . S
C1855 C1856 1.387 . S
C1855 H1858 0.950 . S
C1856 C1855 1.387 . S
C1856 C1859 1.387 . S
H1857 C1853 0.950 . S
H1858 C1855 0.950 . S
C1859 C1850 1.390 . S
C1859 H1852 0.950 . S
C1859 C1856 1.387 . S
C1860 C1861 1.387 . S
C1860 H1864 0.950 . S
C1860 C1869 1.390 . S
C1861 C1860 1.387 . S
C1861 C1863 1.387 . S
H1862 C1869 0.950 1_556 S
C1863 C1861 1.387 . S
C1863 C1865 1.390 . S
C1863 H1867 0.950 . S
H1864 C1860 0.950 . S
C1865 C1863 1.390 . S
C1865 C1866 1.387 . S
C1865 H1868 0.950 . S
C1866 C1865 1.387 . S
C1866 C1869 1.387 . S
H1867 C1863 0.950 . S
H1868 C1865 0.950 . S
C1869 C1860 1.390 . S
C1869 H1862 0.950 1_554 S
C1869 C1866 1.387 . S
C1870 C1871 1.387 . S
C1870 H1874 0.950 . S
C1870 C1879 1.390 . S
C1871 C1870 1.387 . S
C1871 C1873 1.387 . S
H1872 C1879 0.950 . S
C1873 C1871 1.387 . S
C1873 C1875 1.390 . S
C1873 H1877 0.950 . S
H1874 C1870 0.950 . S
C1875 C1873 1.390 . S
C1875 C1876 1.387 . S
C1875 H1878 0.950 . S
C1876 C1875 1.387 . S
C1876 C1879 1.387 . S
H1877 C1873 0.950 . S
H1878 C1875 0.950 . S
C1879 C1870 1.390 . S
C1879 H1872 0.950 . S
C1879 C1876 1.387 . S
C1880 C1881 1.387 . S
C1880 H1884 0.950 . S
C1880 C1889 1.390 1_455 S
C1881 C1880 1.387 . S
C1881 C1883 1.387 . S
H1882 C1889 0.950 . S
C1883 C1881 1.387 . S
C1883 C1885 1.390 . S
C1883 H1887 0.950 . S
H1884 C1880 0.950 . S
C1885 C1883 1.390 . S
C1885 C1886 1.387 1_455 S
C1885 H1888 0.950 . S
C1886 C1885 1.387 1_655 S
C1886 C1889 1.387 . S
H1887 C1883 0.950 . S
H1888 C1885 0.950 . S
C1889 C1880 1.390 1_655 S
C1889 H1882 0.950 . S
C1889 C1886 1.387 . S
C1890 C1891 1.387 . S
C1890 H1894 0.950 . S
C1890 C1899 1.390 . S
C1891 C1890 1.387 . S
C1891 C1893 1.387 1_556 S
H1892 C1899 0.950 . S
C1893 C1891 1.387 1_554 S
C1893 C1895 1.390 . S
C1893 H1897 0.950 . S
H1894 C1890 0.950 . S
C1895 C1893 1.390 . S
C1895 C1896 1.387 . S
C1895 H1898 0.950 . S
C1896 C1895 1.387 . S
C1896 C1899 1.387 1_554 S
H1897 C1893 0.950 . S
H1898 C1895 0.950 . S
C1899 C1890 1.390 . S
C1899 H1892 0.950 . S
C1899 C1896 1.387 1_556 S
C1900 C1901 1.387 . S
C1900 H1904 0.950 . S
C1900 C1909 1.390 . S
C1901 C1900 1.387 . S
C1901 C1903 1.387 . S
H1902 C1909 0.950 . S
C1903 C1901 1.387 . S
C1903 C1905 1.390 . S
C1903 H1907 0.950 . S
H1904 C1900 0.950 . S
C1905 C1903 1.390 . S
C1905 C1906 1.387 . S
C1905 H1908 0.950 . S
C1906 C1905 1.387 . S
C1906 C1909 1.387 . S
H1907 C1903 0.950 . S
H1908 C1905 0.950 . S
C1909 C1900 1.390 . S
C1909 H1902 0.950 . S
C1909 C1906 1.387 . S
C1910 C1911 1.387 . S
C1910 H1914 0.950 . S
C1910 C1919 1.390 . S
C1911 C1910 1.387 . S
C1911 C1913 1.387 . S
H1912 C1919 0.950 . S
C1913 C1911 1.387 . S
C1913 C1915 1.390 . S
C1913 H1917 0.950 . S
H1914 C1910 0.950 . S
C1915 C1913 1.390 . S
C1915 C1916 1.387 . S
C1915 H1918 0.950 . S
C1916 C1915 1.387 . S
C1916 C1919 1.387 . S
H1917 C1913 0.950 . S
H1918 C1915 0.950 . S
C1919 C1910 1.390 . S
C1919 H1912 0.950 . S
C1919 C1916 1.387 . S
C1920 C1921 1.387 . S
C1920 H1924 0.950 . S
C1920 C1929 1.390 . S
C1921 C1920 1.387 . S
C1921 C1923 1.387 . S
H1922 C1929 0.950 . S
C1923 C1921 1.387 . S
C1923 C1925 1.390 . S
C1923 H1927 0.950 . S
H1924 C1920 0.950 . S
C1925 C1923 1.390 . S
C1925 C1926 1.387 . S
C1925 H1928 0.950 . S
C1926 C1925 1.387 . S
C1926 C1929 1.387 . S
H1927 C1923 0.950 . S
H1928 C1925 0.950 . S
C1929 C1920 1.390 . S
C1929 H1922 0.950 . S
C1929 C1926 1.387 . S
C1930 C1931 1.387 . S
C1930 H1934 0.950 . S
C1930 C1939 1.390 . S
C1931 C1930 1.387 . S
C1931 C1933 1.387 . S
H1932 C1939 0.950 . S
C1933 C1931 1.387 . S
C1933 C1935 1.390 . S
C1933 H1937 0.950 . S
H1934 C1930 0.950 . S
C1935 C1933 1.390 . S
C1935 C1936 1.387 . S
C1935 H1938 0.950 . S
C1936 C1935 1.387 . S
C1936 C1939 1.387 . S
H1937 C1933 0.950 . S
H1938 C1935 0.950 . S
C1939 C1930 1.390 . S
C1939 H1932 0.950 . S
C1939 C1936 1.387 . S
C1940 C1941 1.387 . S
C1940 H1944 0.950 . S
C1940 C1949 1.390 . S
C1941 C1940 1.387 . S
C1941 C1943 1.387 . S
H1942 C1949 0.950 . S
C1943 C1941 1.387 . S
C1943 C1945 1.390 . S
C1943 H1947 0.950 1_455 S
H1944 C1940 0.950 . S
C1945 C1943 1.390 . S
C1945 C1946 1.387 . S
C1945 H1948 0.950 . S
C1946 C1945 1.387 . S
C1946 C1949 1.387 . S
H1947 C1943 0.950 1_655 S
H1948 C1945 0.950 . S
C1949 C1940 1.390 . S
C1949 H1942 0.950 . S
C1949 C1946 1.387 . S
C1950 C1951 1.387 . S
C1950 H1954 0.950 . S
C1950 C1959 1.390 . S
C1951 C1950 1.387 . S
C1951 C1953 1.387 . S
H1952 C1959 0.950 . S
C1953 C1951 1.387 . S
C1953 C1955 1.390 . S
C1953 H1957 0.950 1_554 S
H1954 C1950 0.950 . S
C1955 C1953 1.390 . S
C1955 C1956 1.387 . S
C1955 H1958 0.950 . S
C1956 C1955 1.387 . S
C1956 C1959 1.387 . S
H1957 C1953 0.950 1_556 S
H1958 C1955 0.950 . S
C1959 C1950 1.390 . S
C1959 H1952 0.950 . S
C1959 C1956 1.387 . S
C1960 C1961 1.387 . S
C1960 H1964 0.950 . S
C1960 C1969 1.390 . S
C1961 C1960 1.387 . S
C1961 C1963 1.387 . S
H1962 C1969 0.950 . S
C1963 C1961 1.387 . S
C1963 C1965 1.390 . S
C1963 H1967 0.950 . S
H1964 C1960 0.950 . S
C1965 C1963 1.390 . S
C1965 C1966 1.387 . S
C1965 H1968 0.950 . S
C1966 C1965 1.387 . S
C1966 C1969 1.387 . S
H1967 C1963 0.950 . S
H1968 C1965 0.950 . S
C1969 C1960 1.390 . S
C1969 H1962 0.950 . S
C1969 C1966 1.387 . S
C1970 C1971 1.387 . S
C1970 H1974 0.950 . S
C1970 C1979 1.390 . S
C1971 C1970 1.387 . S
C1971 C1973 1.387 . S
H1972 C1979 0.950 . S
C1973 C1971 1.387 . S
C1973 C1975 1.390 . S
C1973 H1977 0.950 . S
H1974 C1970 0.950 . S
C1975 C1973 1.390 . S
C1975 C1976 1.387 . S
C1975 H1978 0.950 . S
C1976 C1975 1.387 . S
C1976 C1979 1.387 . S
H1977 C1973 0.950 . S
H1978 C1975 0.950 . S
C1979 C1970 1.390 . S
C1979 H1972 0.950 . S
C1979 C1976 1.387 . S
C1980 C1981 1.387 . S
C1980 H1984 0.950 . S
C1980 C1989 1.390 . S
C1981 C1980 1.387 . S
C1981 C1983 1.387 . S
H1982 C1989 0.960 1_556 S
C1983 C1981 1.387 . S
C1983 C1985 1.390 . S
C1983 H1987 0.950 . S
H1984 C1980 0.950 . S
C1985 C1983 1.390 . S
C1985 C1986 1.387 1_455 S
C1985 H1988 0.950 1_455 S
C1986 C1985 1.387 1_655 S
C1986 C1989 1.387 1_655 S
H1987 C1983 0.950 . S
H1988 C1985 0.950 1_655 S
C1989 C1980 1.390 . S
C1989 H1982 0.960 1_554 S
C1989 C1986 1.387 1_455 S
C1990 C1991 1.387 . S
C1990 H1994 0.950 . S
C1990 C1999 1.390 . S
C1991 C1990 1.387 . S
C1991 C1993 1.387 . S
H1992 C1999 0.950 . S
C1993 C1991 1.387 . S
C1993 C1995 1.390 . S
C1993 H1997 0.950 . S
H1994 C1990 0.950 . S
C1995 C1993 1.390 . S
C1995 C1996 1.387 . S
C1995 H1998 0.950 . S
C1996 C1995 1.387 . S
C1996 C1999 1.387 . S
H1997 C1993 0.950 . S
H1998 C1995 0.950 . S
C1999 C1990 1.390 . S
C1999 H1992 0.950 . S
C1999 C1996 1.387 . S
C2000 C2001 1.387 . S
C2000 H2004 0.950 . S
C2000 C2009 1.390 . S
C2001 C2000 1.387 . S
C2001 C2003 1.387 . S
H2002 C2009 0.950 . S
C2003 C2001 1.387 . S
C2003 C2005 1.390 . S
C2003 H2007 0.950 . S
H2004 C2000 0.950 . S
C2005 C2003 1.390 . S
C2005 C2006 1.387 . S
C2005 H2008 0.950 . S
C2006 C2005 1.387 . S
C2006 C2009 1.387 . S
H2007 C2003 0.950 . S
H2008 C2005 0.950 . S
C2009 C2000 1.390 . S
C2009 H2002 0.950 . S
C2009 C2006 1.387 . S
C2010 C2011 1.387 . S
C2010 H2014 0.950 . S
C2010 C2019 1.390 . S
C2011 C2010 1.387 . S
C2011 C2013 1.387 . S
H2012 C2019 0.950 . S
C2013 C2011 1.387 . S
C2013 C2015 1.390 . S
C2013 H2017 0.950 . S
H2014 C2010 0.950 . S
C2015 C2013 1.390 . S
C2015 C2016 1.387 . S
C2015 H2018 0.950 . S
C2016 C2015 1.387 . S
C2016 C2019 1.387 . S
H2017 C2013 0.950 . S
H2018 C2015 0.950 . S
C2019 C2010 1.390 . S
C2019 H2012 0.950 . S
C2019 C2016 1.387 . S
C2020 C2021 1.387 1_455 S
C2020 H2024 0.950 . S
C2020 C2029 1.390 1_455 S
C2021 C2020 1.387 1_655 S
C2021 C2023 1.387 . S
H2022 C2029 0.950 . S
C2023 C2021 1.387 . S
C2023 C2025 1.390 . S
C2023 H2027 0.950 . S
H2024 C2020 0.950 . S
C2025 C2023 1.390 . S
C2025 C2026 1.387 . S
C2025 H2028 0.950 . S
C2026 C2025 1.387 . S
C2026 C2029 1.387 . S
H2027 C2023 0.950 . S
H2028 C2025 0.950 . S
C2029 C2020 1.390 1_655 S
C2029 H2022 0.950 . S
C2029 C2026 1.387 . S
C2030 C2031 1.387 . S
C2030 H2034 0.950 . S
C2030 C2039 1.390 . S
C2031 C2030 1.387 . S
C2031 C2033 1.387 . S
H2032 C2039 0.950 . S
C2033 C2031 1.387 . S
C2033 C2035 1.390 . S
C2033 H2037 0.950 . S
H2034 C2030 0.950 . S
C2035 C2033 1.390 . S
C2035 C2036 1.387 . S
C2035 H2038 0.950 . S
C2036 C2035 1.387 . S
C2036 C2039 1.387 . S
H2037 C2033 0.950 . S
H2038 C2035 0.950 . S
C2039 C2030 1.390 . S
C2039 H2032 0.950 . S
C2039 C2036 1.387 . S
C2040 C2041 1.387 . S
C2040 H2044 0.950 . S
C2040 C2049 1.390 . S
C2041 C2040 1.387 . S
C2041 C2043 1.387 . S
H2042 C2049 0.950 1_554 S
C2043 C2041 1.387 . S
C2043 C2045 1.390 . S
C2043 H2047 0.950 . S
H2044 C2040 0.950 . S
C2045 C2043 1.390 . S
C2045 C2046 1.387 . S
C2045 H2048 0.950 . S
C2046 C2045 1.387 . S
C2046 C2049 1.387 . S
H2047 C2043 0.950 . S
H2048 C2045 0.950 . S
C2049 C2040 1.390 . S
C2049 H2042 0.950 1_556 S
C2049 C2046 1.387 . S
C2050 C2051 1.387 . S
C2050 H2054 0.950 . S
C2050 C2059 1.390 . S
C2051 C2050 1.387 . S
C2051 C2053 1.387 . S
H2052 C2059 0.950 . S
C2053 C2051 1.387 . S
C2053 C2055 1.390 . S
C2053 H2057 0.950 . S
H2054 C2050 0.950 . S
C2055 C2053 1.390 . S
C2055 C2056 1.387 . S
C2055 H2058 0.950 . S
C2056 C2055 1.387 . S
C2056 C2059 1.387 . S
H2057 C2053 0.950 . S
H2058 C2055 0.950 . S
C2059 C2050 1.390 . S
C2059 H2052 0.950 . S
C2059 C2056 1.387 . S
C2060 C2061 1.387 1_655 S
C2060 H2064 0.950 1_655 S
C2060 C2069 1.390 . S
C2061 C2060 1.387 1_455 S
C2061 C2063 1.387 1_455 S
H2062 C2069 0.950 . S
C2063 C2061 1.387 1_655 S
C2063 C2065 1.390 . S
C2063 H2067 0.950 . S
H2064 C2060 0.950 1_455 S
C2065 C2063 1.390 . S
C2065 C2066 1.387 . S
C2065 H2068 0.950 . S
C2066 C2065 1.387 . S
C2066 C2069 1.387 . S
H2067 C2063 0.950 . S
H2068 C2065 0.950 . S
C2069 C2060 1.390 . S
C2069 H2062 0.950 . S
C2069 C2066 1.387 . S
C2070 C2071 1.387 . S
C2070 H2074 0.950 1_554 S
C2070 C2079 1.390 . S
C2071 C2070 1.387 . S
C2071 C2073 1.387 . S
H2072 C2079 0.950 . S
C2073 C2071 1.387 . S
C2073 C2075 1.390 . S
C2073 H2077 0.950 . S
H2074 C2070 0.950 1_556 S
C2075 C2073 1.390 . S
C2075 C2076 1.387 . S
C2075 H2078 0.950 . S
C2076 C2075 1.387 . S
C2076 C2079 1.387 . S
H2077 C2073 0.950 . S
H2078 C2075 0.950 . S
C2079 C2070 1.390 . S
C2079 H2072 0.950 . S
C2079 C2076 1.387 . S
C2080 C2081 1.387 . S
C2080 H2084 0.950 . S
C2080 C2089 1.390 . S
C2081 C2080 1.387 . S
C2081 C2083 1.387 . S
H2082 C2089 0.950 . S
C2083 C2081 1.387 . S
C2083 C2085 1.390 . S
C2083 H2087 0.950 . S
H2084 C2080 0.950 . S
C2085 C2083 1.390 . S
C2085 C2086 1.387 . S
C2085 H2088 0.950 . S
C2086 C2085 1.387 . S
C2086 C2089 1.387 . S
H2087 C2083 0.950 . S
H2088 C2085 0.950 . S
C2089 C2080 1.390 . S
C2089 H2082 0.950 . S
C2089 C2086 1.387 . S
C2090 C2091 1.387 . S
C2090 H2094 0.950 . S
C2090 C2099 1.390 . S
C2091 C2090 1.387 . S
C2091 C2093 1.387 . S
H2092 C2099 0.950 . S
C2093 C2091 1.387 . S
C2093 C2095 1.390 . S
C2093 H2097 0.950 . S
H2094 C2090 0.950 . S
C2095 C2093 1.390 . S
C2095 C2096 1.387 . S
C2095 H2098 0.950 . S
C2096 C2095 1.387 . S
C2096 C2099 1.387 . S
H2097 C2093 0.950 . S
H2098 C2095 0.950 . S
C2099 C2090 1.390 . S
C2099 H2092 0.950 . S
C2099 C2096 1.387 . S
C2100 C2101 1.387 . S
C2100 H2104 0.950 . S
C2100 C2109 1.390 . S
C2101 C2100 1.387 . S
C2101 C2103 1.387 . S
H2102 C2109 0.950 . S
C2103 C2101 1.387 . S
C2103 C2105 1.390 . S
C2103 H2107 0.950 . S
H2104 C2100 0.950 . S
C2105 C2103 1.390 . S
C2105 C2106 1.387 . S
C2105 H2108 0.950 . S
C2106 C2105 1.387 . S
C2106 C2109 1.387 . S
H2107 C2103 0.950 . S
H2108 C2105 0.950 . S
C2109 C2100 1.390 . S
C2109 H2102 0.950 . S
C2109 C2106 1.387 . S
C2110 C2111 1.387 . S
C2110 H2114 0.950 . S
C2110 C2119 1.390 . S
C2111 C2110 1.387 . S
C2111 C2113 1.387 . S
H2112 C2119 0.950 . S
C2113 C2111 1.387 . S
C2113 C2115 1.390 . S
C2113 H2117 0.950 . S
H2114 C2110 0.950 . S
C2115 C2113 1.390 . S
C2115 C2116 1.387 . S
C2115 H2118 0.950 . S
C2116 C2115 1.387 . S
C2116 C2119 1.387 . S
H2117 C2113 0.950 . S
H2118 C2115 0.950 . S
C2119 C2110 1.390 . S
C2119 H2112 0.950 . S
C2119 C2116 1.387 . S
C2120 C2121 1.387 . S
C2120 H2124 0.950 . S
C2120 C2129 1.390 . S
C2121 C2120 1.387 . S
C2121 C2123 1.387 . S
H2122 C2129 0.950 . S
C2123 C2121 1.387 . S
C2123 C2125 1.390 . S
C2123 H2127 0.950 . S
H2124 C2120 0.950 . S
C2125 C2123 1.390 . S
C2125 C2126 1.387 . S
C2125 H2128 0.950 . S
C2126 C2125 1.387 . S
C2126 C2129 1.387 . S
H2127 C2123 0.950 . S
H2128 C2125 0.950 . S
C2129 C2120 1.390 . S
C2129 H2122 0.950 . S
C2129 C2126 1.387 . S
C2130 C2131 1.387 . S
C2130 H2134 0.950 . S
C2130 C2139 1.390 . S
C2131 C2130 1.387 . S
C2131 C2133 1.387 . S
H2132 C2139 0.950 . S
C2133 C2131 1.387 . S
C2133 C2135 1.390 . S
C2133 H2137 0.950 . S
H2134 C2130 0.950 . S
C2135 C2133 1.390 . S
C2135 C2136 1.387 . S
C2135 H2138 0.950 . S
C2136 C2135 1.387 . S
C2136 C2139 1.387 . S
H2137 C2133 0.950 . S
H2138 C2135 0.950 . S
C2139 C2130 1.390 . S
C2139 H2132 0.950 . S
C2139 C2136 1.387 . S
C2140 C2141 1.387 . S
C2140 H2144 0.950 . S
C2140 C2149 1.390 . S
C2141 C2140 1.387 . S
C2141 C2143 1.387 . S
H2142 C2149 0.950 . S
C2143 C2141 1.387 . S
C2143 C2145 1.390 . S
C2143 H2147 0.950 . S
H2144 C2140 0.950 . S
C2145 C2143 1.390 . S
C2145 C2146 1.387 . S
C2145 H2148 0.950 . S
C2146 C2145 1.387 . S
C2146 C2149 1.387 . S
H2147 C2143 0.950 . S
H2148 C2145 0.950 . S
C2149 C2140 1.390 . S
C2149 H2142 0.950 . S
C2149 C2146 1.387 . S
C2150 C2151 1.387 . S
C2150 H2154 0.950 . S
C2150 C2159 1.390 . S
C2151 C2150 1.387 . S
C2151 C2153 1.387 . S
H2152 C2159 0.950 . S
C2153 C2151 1.387 . S
C2153 C2155 1.390 . S
C2153 H2157 0.950 . S
H2154 C2150 0.950 . S
C2155 C2153 1.390 . S
C2155 C2156 1.387 . S
C2155 H2158 0.950 . S
C2156 C2155 1.387 . S
C2156 C2159 1.387 . S
H2157 C2153 0.950 . S
H2158 C2155 0.950 . S
C2159 C2150 1.390 . S
C2159 H2152 0.950 . S
C2159 C2156 1.387 . S
C2160 C2161 1.387 . S
C2160 H2164 0.950 . S
C2160 C2169 1.390 1_565 S
C2161 C2160 1.387 . S
C2161 C2163 1.387 1_565 S
H2162 C2169 0.950 . S
C2163 C2161 1.387 1_545 S
C2163 C2165 1.390 . S
C2163 H2167 0.950 . S
H2164 C2160 0.950 . S
C2165 C2163 1.390 . S
C2165 C2166 1.387 . S
C2165 H2168 0.950 . S
C2166 C2165 1.387 . S
C2166 C2169 1.387 . S
H2167 C2163 0.950 . S
H2168 C2165 0.950 . S
C2169 C2160 1.390 1_545 S
C2169 H2162 0.950 . S
C2169 C2166 1.387 . S
C2170 C2171 1.387 . S
C2170 H2174 0.950 . S
C2170 C2179 1.390 . S
C2171 C2170 1.387 . S
C2171 C2173 1.387 . S
H2172 C2179 0.950 . S
C2173 C2171 1.387 . S
C2173 C2175 1.390 . S
C2173 H2177 0.950 . S
H2174 C2170 0.950 . S
C2175 C2173 1.390 . S
C2175 C2176 1.387 . S
C2175 H2178 0.950 . S
C2176 C2175 1.387 . S
C2176 C2179 1.387 . S
H2177 C2173 0.950 . S
H2178 C2175 0.950 . S
C2179 C2170 1.390 . S
C2179 H2172 0.950 . S
C2179 C2176 1.387 . S
C2180 C2181 1.387 . S
C2180 H2184 0.950 . S
C2180 C2189 1.408 . S
C2181 C2180 1.387 . S
C2181 C2183 1.371 1_545 S
H2182 C2189 0.953 . S
C2183 C2181 1.371 1_565 S
C2183 C2185 1.405 . S
C2183 H2187 0.952 . S
H2184 C2180 0.950 . S
C2185 C2183 1.405 . S
C2185 C2186 1.387 . S
C2185 H2188 0.950 . S
C2186 C2185 1.387 . S
C2186 C2189 1.368 1_565 S
H2187 C2183 0.952 . S
H2188 C2185 0.950 . S
C2189 C2180 1.408 . S
C2189 H2182 0.953 . S
C2189 C2186 1.368 1_545 S
C2190 C2191 1.387 . S
C2190 H2194 0.950 . S
C2190 C2199 1.390 . S
C2191 C2190 1.387 . S
C2191 C2193 1.387 . S
H2192 C2199 0.950 . S
C2193 C2191 1.387 . S
C2193 C2195 1.390 . S
C2193 H2197 0.950 . S
H2194 C2190 0.950 . S
C2195 C2193 1.390 . S
C2195 C2196 1.387 . S
C2195 H2198 0.950 . S
C2196 C2195 1.387 . S
C2196 C2199 1.387 . S
H2197 C2193 0.950 . S
H2198 C2195 0.950 . S
C2199 C2190 1.390 . S
C2199 H2192 0.950 . S
C2199 C2196 1.387 . S
C2200 C2201 1.387 . S
C2200 H2204 0.950 . S
C2200 C2209 1.390 . S
C2201 C2200 1.387 . S
C2201 C2203 1.387 . S
H2202 C2209 0.950 . S
C2203 C2201 1.387 . S
C2203 C2205 1.390 1_565 S
C2203 H2207 0.950 . S
H2204 C2200 0.950 . S
C2205 C2203 1.390 1_545 S
C2205 C2206 1.387 . S
C2205 H2208 0.950 . S
C2206 C2205 1.387 . S
C2206 C2209 1.387 1_545 S
H2207 C2203 0.950 . S
H2208 C2205 0.950 . S
C2209 C2200 1.390 . S
C2209 H2202 0.950 . S
C2209 C2206 1.387 1_565 S
C2210 C2211 1.387 . S
C2210 H2214 0.950 . S
C2210 C2219 1.390 . S
C2211 C2210 1.387 . S
C2211 C2213 1.387 . S
H2212 C2219 0.950 . S
C2213 C2211 1.387 . S
C2213 C2215 1.390 . S
C2213 H2217 0.950 . S
H2214 C2210 0.950 . S
C2215 C2213 1.390 . S
C2215 C2216 1.387 . S
C2215 H2218 0.950 . S
C2216 C2215 1.387 . S
C2216 C2219 1.387 . S
H2217 C2213 0.950 . S
H2218 C2215 0.950 . S
C2219 C2210 1.390 . S
C2219 H2212 0.950 . S
C2219 C2216 1.387 . S
C2220 C2221 1.387 . S
C2220 H2224 0.950 . S
C2220 C2229 1.390 1_565 S
C2221 C2220 1.387 . S
C2221 C2223 1.387 . S
H2222 C2229 0.950 . S
C2223 C2221 1.387 . S
C2223 C2225 1.390 1_565 S
C2223 H2227 0.950 . S
H2224 C2220 0.950 . S
C2225 C2223 1.390 1_545 S
C2225 C2226 1.387 . S
C2225 H2228 0.950 . S
C2226 C2225 1.387 . S
C2226 C2229 1.387 . S
H2227 C2223 0.950 . S
H2228 C2225 0.950 . S
C2229 C2220 1.390 1_545 S
C2229 H2222 0.950 . S
C2229 C2226 1.387 . S
C2230 C2231 1.387 . S
C2230 H2234 0.950 . S
C2230 C2239 1.390 . S
C2231 C2230 1.387 . S
C2231 C2233 1.387 . S
H2232 C2239 0.950 . S
C2233 C2231 1.387 . S
C2233 C2235 1.390 . S
C2233 H2237 0.950 . S
H2234 C2230 0.950 . S
C2235 C2233 1.390 . S
C2235 C2236 1.387 . S
C2235 H2238 0.950 . S
C2236 C2235 1.387 . S
C2236 C2239 1.387 . S
H2237 C2233 0.950 . S
H2238 C2235 0.950 . S
C2239 C2230 1.390 . S
C2239 H2232 0.950 . S
C2239 C2236 1.387 . S
C1281 C17 0.475 . S
C1286 C173 0.153 . S
C1291 C217 0.677 . S
C1296 C57 0.443 . S
C1301 C97 0.561 . S
C1306 C257 0.463 . S
C1311 C297 0.523 . S
C1316 C137 0.542 . S
C1321 C346 0.475 . S
C1326 C504 0.152 . S
C1331 C386 0.440 . S
C1336 C546 0.673 . S
C1341 C586 0.461 . S
C1346 C426 0.562 . S
C1351 C466 0.542 . S
C1356 C626 0.522 . S
C1361 C813 0.152 . S
C1366 C657 0.475 . S
C1371 C697 0.439 . S
C1376 C857 0.670 . S
C1381 C737 0.555 . S
C1386 C897 0.455 . S
C1391 C777 0.550 . S
C1396 C937 0.532 . S
C1401 C986 0.466 . S
C1406 C1144 0.156 . S
C1411 C1186 0.675 . S
C1416 C1026 0.449 . S
C1421 C1066 0.559 . S
C1426 C1226 0.463 . S
C1431 C1266 0.523 . S
C1436 C1106 0.542 . S
C1441 C842 2.176 . S
C1446 C2 2.174 . S
C1451 C882 3.098 . S
C1456 C42 3.097 . S
C1461 C922 2.406 . S
C1466 C82 2.419 . S
C1471 C122 3.118 1_554 S
C1476 C823 3.108 . S
C1481 C183 3.108 . S
C1486 C762 3.119 . S
C1491 C642 2.174 . S
C1496 C202 2.178 1_556 S
C1501 C242 3.096 . S
C1506 C682 3.096 . S
C1511 C282 2.407 . S
C1516 C722 2.421 . S
C1521 C343 2.172 1_556 S
C1526 C1183 2.176 . S
C1531 C1223 3.095 . S
C1536 C383 3.096 . S
C1541 C1263 2.407 . S
C1546 C423 2.421 . S
C1551 C463 3.120 . S
C1556 C1122 3.110 . S
C1561 C482 3.109 . S
C1566 C1103 3.119 . S
C1571 C543 2.177 . S
C1576 C983 2.174 . S
C1581 C583 3.097 . S
C1586 C1023 3.097 . S
C1591 C623 2.408 . S
C1596 C1063 2.421 . S
C1601 C322 1.731 . S
C1606 C23 1.731 . S
C1611 C63 1.716 . S
C1616 C1002 1.716 . S
C1621 C402 1.651 . S
C1626 C103 1.651 . S
C1631 C143 1.735 . S
C1636 C1082 1.735 . S
C1641 C503 1.732 . S
C1646 C162 1.732 . S
C1651 C1162 1.776 . S
C1656 C223 1.776 . S
C1661 C263 1.723 . S
C1666 C562 1.723 . S
C1671 C303 1.657 . S
C1676 C1242 1.657 . S
C1681 C703 1.712 . S
C1686 C362 1.712 . S
C1691 C783 1.736 . S
C1696 C442 1.736 . S
C1701 C522 1.779 . S
C1706 C863 1.779 . S
C1711 C943 1.658 . S
C1716 C602 1.658 . S
C1721 C962 1.731 . S
C1726 C663 1.731 . S
C1731 C1042 1.646 . S
C1736 C743 1.646 . S
C1741 C1143 1.731 . S
C1746 C802 1.731 . S
C1751 C903 1.727 . S
C1756 C1202 1.727 . S
C1761 C26 0.787 . S
C1766 C497 0.800 . S
C1771 C1173 1.873 . S
C1776 C66 1.683 . S
C1781 C573 1.519 . S
C1786 C106 1.347 . S
C1791 C146 1.597 . S
C1796 C1253 1.782 . S
C1801 C333 2.400 . S
C1806 C184 2.276 . S
C1811 C1013 1.554 . S
C1816 C226 1.376 . S
C1821 C413 1.872 . S
C1826 C266 1.662 . S
C1831 C1093 1.477 . S
C1836 C306 1.316 . S
C1841 C186 0.798 . S
C1846 C337 0.784 . S
C1851 C864 1.874 . S
C1856 C377 1.684 . S
C1861 C264 1.521 . S
C1866 C417 1.350 1_554 S
C1871 C457 1.597 . S
C1876 C944 1.781 . S
C1881 C24 2.401 . S
C1886 C493 2.276 . S
C1891 C704 1.555 . S
C1896 C537 1.381 . S
C1901 C577 1.664 . S
C1906 C104 1.873 . S
C1911 C617 1.316 . S
C1916 C784 1.477 . S
C1921 C1137 0.798 . S
C1926 C666 0.784 . S
C1931 C533 1.874 . S
C1936 C706 1.684 . S
C1941 C746 1.351 1_455 S
C1946 C1213 1.521 . S
C1951 C613 1.781 1_554 S
C1956 C786 1.600 . S
C1961 C824 2.275 . S
C1966 C973 2.400 . S
C1971 C866 1.380 . S
C1976 C373 1.554 . S
C1981 C1053 1.871 . S
C1986 C906 1.664 1_554 S
C1991 C453 1.477 . S
C1996 C946 1.311 . S
C2001 C977 0.784 . S
C2006 C826 0.798 . S
C2011 C1017 1.681 . S
C2016 C224 1.874 . S
C2021 C1057 1.352 1_655 S
C2026 C904 1.521 . S
C2031 C1097 1.600 . S
C2036 C304 1.782 . S
C2041 C664 2.400 . S
C2046 C1133 2.274 1_556 S
C2051 C64 1.555 . S
C2056 C1177 1.381 . S
C2061 C1217 1.664 . S
C2066 C744 1.872 . S
C2071 C144 1.477 1_554 S
C2076 C1257 1.316 . S
C2081 C177 2.320 1_554 S
C2086 C13 2.443 . S
C2091 C213 3.285 . S
C2096 C53 3.267 . S
C2101 C93 3.261 . S
C2106 C253 3.239 . S
C2111 C293 3.269 . S
C2116 C133 3.242 . S
C2121 C506 2.319 . S
C2126 C344 2.443 . S
C2131 C384 3.266 . S
C2136 C544 3.285 . S
C2141 C424 3.261 . S
C2146 C584 3.239 1_556 S
C2151 C624 3.269 . S
C2156 C464 3.242 . S
C2161 C653 2.444 . S
C2166 C817 2.319 . S
C2171 C853 3.286 . S
C2176 C693 3.267 . S
C2181 C733 3.261 1_556 S
C2186 C893 3.239 . S
C2191 C773 3.242 . S
C2196 C933 3.269 . S
C2201 C1146 2.319 . S
C2206 C984 2.443 . S
C2211 C1184 3.285 . S
C2216 C1024 3.267 . S
C2221 C1064 3.261 . S
C2226 C1224 3.239 . S
C2231 C1264 3.269 . S
C2236 C1104 3.243 . S
