# Generated by pormake.
# Topology unc, (4)-cn, num edge types: 1
# Building blocks:
#     Node 0, Type 0, BuildingBlock: ICAMEG_clean_sbu_1, # of connection points: 4
#     Node 1, Type 0, BuildingBlock: ICAMEG_clean_sbu_1, # of connection points: 4
#     Node 2, Type 0, BuildingBlock: ICAMEG_clean_sbu_1, # of connection points: 4
#     Node 3, Type 0, BuildingBlock: ICAMEG_clean_sbu_1, # of connection points: 4
#     Edge 4, Type (0, 0), BuildingBlock: AJUNOK_clean_linker_0, # of connection points: 2
#     Edge 5, Type (0, 0), BuildingBlock: AJUNOK_clean_linker_0, # of connection points: 2
#     Edge 6, Type (0, 0), BuildingBlock: AJUNOK_clean_linker_0, # of connection points: 2
#     Edge 7, Type (0, 0), BuildingBlock: AJUNOK_clean_linker_0, # of connection points: 2
#     Edge 8, Type (0, 0), BuildingBlock: AJUNOK_clean_linker_0, # of connection points: 2
#     Edge 9, Type (0, 0), BuildingBlock: AJUNOK_clean_linker_0, # of connection points: 2
#     Edge 10, Type (0, 0), BuildingBlock: AJUNOK_clean_linker_0, # of connection points: 2
#     Edge 11, Type (0, 0), BuildingBlock: AJUNOK_clean_linker_0, # of connection points: 2
# Relax obj value: 0.026
# Max RMSD: 0.081
# Mean RMSD: 0.081
data_MOF--net-unc--node1-ICAMEG_clean_sbu_1--edge1-AJUNOK_clean_linker_0
_symmetry_space_group_name_H-M    P1
_symmetry_Int_Tables_number       1
_symmetry_cell_setting            triclinic
loop_
_symmetry_equiv_pos_as_xyz
'x, y, z'
_cell_length_a     24.711987
_cell_length_b     24.702413
_cell_length_c     16.405572
_cell_angle_alpha  89.857498
_cell_angle_beta   89.782048
_cell_angle_gamma 90.193947
loop_
_atom_site_label
_atom_site_type_symbol
_atom_site_fract_x
_atom_site_fract_y
_atom_site_fract_z
_atom_type_partial_charge
Co0 Co 0.07812 0.65655 0.99374 0.0
Co1 Co 0.9412 0.65608 0.02693 0.0
O2 O 0.00962 0.69497 1.00926 0.0
C3 C 0.14851 0.71749 0.10892 0.0
O4 O 0.15509 0.67267 0.15085 0.0
C5 C 0.9129 0.75578 0.92773 0.0
O6 O 0.96408 0.76757 0.91625 0.0
O7 O 0.95301 0.61526 0.92337 0.0
O8 O 0.04104 0.59546 0.93544 0.0
H9 H 0.82412 0.48948 0.03371 0.0
H10 H 0.06995 0.77089 0.9393 0.0
O11 O 0.11657 0.71838 0.04826 0.0
H12 H 0.12234 0.66894 0.69366 0.0
H13 H 0.27725 0.64018 0.92891 0.0
H14 H 0.11227 0.54279 0.01559 0.0
H15 H 0.11048 0.62246 0.82541 0.0
H16 H 0.19056 0.6883 0.94265 0.0
O17 O 0.89915 0.71288 0.96592 0.0
H18 H 0.90942 0.54057 0.01793 0.0
H19 H 0.82738 0.68776 0.06767 0.0
H20 H 0.19801 0.49287 1.00212 0.0
H21 H 0.08253 0.81942 0.80921 0.0
H22 H 0.28138 0.54163 0.95865 0.0
H23 H 0.10862 0.76836 0.68495 0.0
O24 O 0.06701 0.61863 0.10042 0.0
H25 H 0.94567 0.82206 0.20469 0.0
H26 H 0.90189 0.62759 0.19434 0.0
H27 H 0.88989 0.67704 0.32306 0.0
H28 H 0.91149 0.77522 0.32881 0.0
H29 H 0.95802 0.77082 0.0778 0.0
H30 H 0.7411 0.63834 0.08288 0.0
H31 H 0.73913 0.53842 0.06627 0.0
O32 O 0.97896 0.5982 0.09123 0.0
C33 C 0.99491 0.58868 0.90181 0.0
C34 C 0.82448 0.53299 0.04137 0.0
C35 C 0.77788 0.61653 0.06882 0.0
N36 N 0.87352 0.61705 0.04228 0.0
C37 C 0.8727 0.56212 0.03276 0.0
C38 C 0.82685 0.64433 0.05981 0.0
C39 C 0.7768 0.56048 0.05953 0.0
C40 C 0.08116 0.74827 0.88558 0.0
N41 N 0.08823 0.6935 0.88983 0.0
C42 C 0.08827 0.77604 0.81202 0.0
C43 C 0.10289 0.74738 0.74235 0.0
C44 C 0.11046 0.69161 0.74715 0.0
C45 C 0.10303 0.66528 0.82181 0.0
C46 C 0.24126 0.61848 0.94811 0.0
C47 C 0.14832 0.56433 0.99657 0.0
C48 C 0.19208 0.64564 0.95634 0.0
N49 N 0.14639 0.61859 0.98047 0.0
C50 C 0.19678 0.53582 0.98906 0.0
C51 C 0.24353 0.5632 0.96472 0.0
C52 C 0.02527 0.59249 0.12453 0.0
C53 C 0.93592 0.77933 0.20292 0.0
C54 C 0.91192 0.67003 0.19627 0.0
C55 C 0.90476 0.69797 0.26939 0.0
C56 C 0.91683 0.75303 0.27256 0.0
N57 N 0.93034 0.69606 0.12789 0.0
C58 C 0.94258 0.75003 0.13088 0.0
Co59 Co 0.37243 0.94939 0.28776 0.0
Co60 Co 0.3722 0.08643 0.25478 0.0
O61 O 0.33368 0.01771 0.27216 0.0
C62 C 0.31114 0.88243 0.16761 0.0
O63 O 0.35454 0.87996 0.12145 0.0
C64 C 0.27184 0.11439 0.35309 0.0
O65 O 0.25965 0.06317 0.36346 0.0
O66 O 0.41287 0.07489 0.35846 0.0
O67 O 0.43298 0.98687 0.34655 0.0
H68 H 0.53798 0.20468 0.24887 0.0
H69 H 0.25776 0.95636 0.34115 0.0
O70 O 0.31122 0.91023 0.23283 0.0
H71 H 0.35923 0.90605 0.58793 0.0
H72 H 0.38881 0.75022 0.35097 0.0
H73 H 0.4865 0.91571 0.26719 0.0
H74 H 0.40606 0.91763 0.45634 0.0
H75 H 0.34065 0.837 0.33748 0.0
O76 O 0.31507 0.12815 0.31574 0.0
H77 H 0.48744 0.11901 0.26435 0.0
H78 H 0.3399 0.20005 0.21403 0.0
H79 H 0.53645 0.82995 0.28056 0.0
H80 H 0.20891 0.94413 0.47114 0.0
H81 H 0.48753 0.74634 0.32256 0.0
H82 H 0.25973 0.91913 0.59596 0.0
O83 O 0.41089 0.96084 0.18163 0.0
H84 H 0.20696 0.08047 0.07592 0.0
H85 H 0.40094 0.12588 0.08759 0.0
H86 H 0.35192 0.13734 0.95854 0.0
H87 H 0.25398 0.11491 0.95211 0.0
H88 H 0.25776 0.06871 0.20316 0.0
H89 H 0.38876 0.28669 0.19911 0.0
H90 H 0.48857 0.28935 0.21616 0.0
O91 O 0.43047 0.0491 0.1906 0.0
C92 C 0.43956 0.03309 0.38009 0.0
C93 C 0.49451 0.20401 0.24103 0.0
C94 C 0.41076 0.25006 0.21323 0.0
N95 N 0.41081 0.15439 0.2397 0.0
C96 C 0.46569 0.15558 0.24946 0.0
C97 C 0.38329 0.20088 0.22208 0.0
C98 C 0.46676 0.25152 0.22278 0.0
C99 C 0.28025 0.94553 0.3951 0.0
N100 N 0.33509 0.93902 0.39132 0.0
C101 C 0.25231 0.93864 0.4686 0.0
C102 C 0.28084 0.92466 0.5386 0.0
C103 C 0.33666 0.91747 0.53419 0.0
C104 C 0.36317 0.92472 0.45962 0.0
C105 C 0.41057 0.78633 0.33241 0.0
C106 C 0.46492 0.87955 0.28563 0.0
C107 C 0.38341 0.83552 0.32428 0.0
N108 N 0.41058 0.88132 0.30104 0.0
C109 C 0.49343 0.83108 0.29305 0.0
C110 C 0.46596 0.78419 0.31656 0.0
C111 C 0.43666 1.00277 0.15747 0.0
C112 C 0.24957 0.09062 0.078 0.0
C113 C 0.35859 0.11556 0.08542 0.0
C114 C 0.3309 0.12238 0.01208 0.0
C115 C 0.27598 0.10984 1.00853 0.0
N116 N 0.33245 0.09702 0.15364 0.0
C117 C 0.27862 0.0843 0.15026 0.0
Co118 Co 0.94299 0.37339 0.49649 0.0
Co119 Co 0.08124 0.37442 0.52723 0.0
O120 O 0.01235 0.33522 0.51123 0.0
C121 C 0.91592 0.27543 0.601 0.0
O122 O 0.96719 0.2657 0.61454 0.0
C123 C 0.10929 0.27909 0.41931 0.0
O124 O 0.05814 0.26961 0.404 0.0
O125 O 0.06899 0.41684 0.42512 0.0
O126 O 0.97985 0.43204 0.43204 0.0
H127 H 0.1974 0.54156 0.53556 0.0
H128 H 0.95177 0.25752 0.44798 0.0
O129 O 0.90175 0.31617 0.55856 0.0
H130 H 0.89386 0.35372 0.19998 0.0
H131 H 0.7427 0.38831 0.44396 0.0
H132 H 0.91026 0.48839 0.50735 0.0
H133 H 0.908 0.40321 0.32817 0.0
H134 H 0.8294 0.34016 0.45749 0.0
O135 O 0.12314 0.31917 0.46327 0.0
H136 H 0.11232 0.49019 0.52029 0.0
H137 H 0.19542 0.34282 0.56467 0.0
H138 H 0.82449 0.53822 0.49344 0.0
H139 H 0.9368 0.20612 0.32181 0.0
H140 H 0.73987 0.48811 0.46167 0.0
H141 H 0.90796 0.25424 0.19625 0.0
O142 O 0.9546 0.41399 0.60006 0.0
H143 H 0.08844 0.20373 0.69529 0.0
H144 H 0.11808 0.40086 0.69592 0.0
H145 H 0.13279 0.34893 0.82202 0.0
H146 H 0.11826 0.24938 0.82222 0.0
H147 H 0.07284 0.2576 0.57137 0.0
H148 H 0.28145 0.39254 0.57942 0.0
H149 H 0.2828 0.49267 0.56519 0.0
O150 O 0.04363 0.43096 0.5942 0.0
C151 C 0.02648 0.44118 0.40106 0.0
C152 C 0.19732 0.49795 0.54214 0.0
C153 C 0.2445 0.41432 0.56664 0.0
N154 N 0.14878 0.41359 0.54191 0.0
C155 C 0.14923 0.46866 0.5338 0.0
C156 C 0.19566 0.38637 0.55793 0.0
C157 C 0.24522 0.47049 0.55867 0.0
C158 C 0.93869 0.27884 0.39417 0.0
N159 N 0.93124 0.3336 0.39575 0.0
C160 C 0.93053 0.24946 0.32259 0.0
C161 C 0.91446 0.27648 0.25214 0.0
C162 C 0.90667 0.33227 0.25415 0.0
C163 C 0.91525 0.36026 0.32685 0.0
C164 C 0.7793 0.41062 0.45769 0.0
C165 C 0.8737 0.46634 0.49292 0.0
C166 C 0.82853 0.38355 0.46569 0.0
N167 N 0.87496 0.41146 0.48295 0.0
C168 C 0.82521 0.49476 0.48535 0.0
C169 C 0.77775 0.46661 0.46762 0.0
C170 C 0.99678 0.43859 0.62522 0.0
C171 C 0.09478 0.2471 0.69612 0.0
C172 C 0.11039 0.35797 0.69587 0.0
C173 C 0.11941 0.32856 0.76731 0.0
C174 C 0.11141 0.27273 0.76732 0.0
N175 N 0.09369 0.33272 0.62629 0.0
C176 C 0.08619 0.2779 0.62584 0.0
Co177 Co 0.65514 0.08556 0.78466 0.0
Co178 Co 0.65411 0.94721 0.75359 0.0
O179 O 0.69327 0.01615 0.76959 0.0
C180 C 0.75254 0.11254 0.67893 0.0
O181 O 0.76178 0.06126 0.66448 0.0
C182 C 0.7492 0.91914 0.86159 0.0
O183 O 0.75888 0.97031 0.87671 0.0
O184 O 0.61165 0.95951 0.85571 0.0
O185 O 0.59666 0.04873 0.84947 0.0
H186 H 0.48699 0.83107 0.74511 0.0
H187 H 0.77108 0.07688 0.83209 0.0
O188 O 0.71221 0.12677 0.72228 0.0
H189 H 0.67562 0.13459 0.08114 0.0
H190 H 0.64042 0.28592 0.83775 0.0
H191 H 0.54016 0.11835 0.77466 0.0
H192 H 0.62576 0.12044 0.95335 0.0
H193 H 0.68849 0.19917 0.82367 0.0
O194 O 0.70919 0.90533 0.81758 0.0
H195 H 0.53835 0.91617 0.76044 0.0
H196 H 0.68569 0.83293 0.71624 0.0
H197 H 0.49042 0.20418 0.78912 0.0
H198 H 0.82283 0.09185 0.95786 0.0
H199 H 0.54063 0.2888 0.82074 0.0
H200 H 0.77509 0.12059 0.08394 0.0
O201 O 0.61427 0.07396 0.68136 0.0
H202 H 0.82493 0.93974 0.58571 0.0
H203 H 0.62785 0.91024 0.58486 0.0
H204 H 0.67992 0.8953 0.45885 0.0
H205 H 0.77944 0.90976 0.45876 0.0
H206 H 0.77091 0.95558 0.70953 0.0
H207 H 0.63598 0.74687 0.70144 0.0
H208 H 0.53586 0.74559 0.71555 0.0
O209 O 0.59769 0.98481 0.6867 0.0
C210 C 0.58748 1.00204 0.88018 0.0
C211 C 0.53059 0.83113 0.73858 0.0
C212 C 0.61421 0.78386 0.71419 0.0
N213 N 0.61494 0.87965 0.73888 0.0
C214 C 0.55988 0.87923 0.74694 0.0
C215 C 0.64216 0.83272 0.72291 0.0
C216 C 0.55804 0.78317 0.72209 0.0
C217 C 0.74992 0.08991 0.88615 0.0
N218 N 0.69517 0.09731 0.88509 0.0
C219 C 0.7795 0.09808 0.95749 0.0
C220 C 0.75269 0.11409 0.02822 0.0
C221 C 0.6969 0.12182 0.02674 0.0
C222 C 0.66871 0.11325 0.95427 0.0
C223 C 0.61807 0.24932 0.82408 0.0
C224 C 0.56226 0.15492 0.78901 0.0
C225 C 0.64509 0.20006 0.81578 0.0
N226 N 0.61714 0.15363 0.7986 0.0
C227 C 0.53389 0.20343 0.79691 0.0
C228 C 0.56209 0.2509 0.81455 0.0
C229 C 0.58982 0.03171 0.65605 0.0
C230 C 0.78157 0.93342 0.58483 0.0
C231 C 0.67072 0.9179 0.58496 0.0
C232 C 0.70022 0.90875 0.51357 0.0
C233 C 0.75604 0.9167 0.51362 0.0
N234 N 0.69588 0.93468 0.65456 0.0
C235 C 0.75069 0.94214 0.65506 0.0
C236 C 0.98067 0.53466 0.23065 0.0
C237 C 0.02887 0.55414 0.19505 0.0
C238 C 0.98095 0.5002 0.29816 0.0
C239 C 0.02946 0.48077 0.33194 0.0
H240 H 0.94168 0.54601 0.20659 0.0
H241 H 0.94214 0.48856 0.32334 0.0
S242 S 0.16779 0.51797 0.26138 0.0
N243 N 0.12728 0.55171 0.19974 0.0
N244 N 0.12784 0.48398 0.32433 0.0
C245 C 0.0784 0.49924 0.2968 0.0
C246 C 0.0781 0.53624 0.22894 0.0
C247 C 0.5008 0.98787 0.47986 0.0
C248 C 0.47901 0.03625 0.44885 0.0
C249 C 0.53457 0.98737 0.5477 0.0
C250 C 0.55155 0.03542 0.58585 0.0
H251 H 0.49151 0.94926 0.4523 0.0
H252 H 0.54738 0.94831 0.5699 0.0
S253 S 0.5092 0.17422 0.52659 0.0
N254 N 0.47735 0.13442 0.46159 0.0
N255 N 0.54463 0.13372 0.58614 0.0
C256 C 0.53157 0.08467 0.55443 0.0
C257 C 0.49486 0.08505 0.48659 0.0
C258 C 0.04038 0.52764 0.80171 0.0
C259 C 0.99194 0.54918 0.833 0.0
C260 C 0.04099 0.49395 0.73366 0.0
C261 C 0.993 0.47678 0.69562 0.0
H262 H 0.07894 0.53709 0.8292 0.0
H263 H 0.08007 0.48137 0.71121 0.0
S264 S 0.8541 0.51831 0.75575 0.0
N265 N 0.89379 0.55031 0.8207 0.0
N266 N 0.8947 0.48317 0.69585 0.0
C267 C 0.9437 0.49647 0.72738 0.0
C268 C 0.94321 0.5331 0.7954 0.0
C269 C 0.4944 0.04762 0.05146 0.0
C270 C 0.47504 0.99933 0.08693 0.0
C271 C 0.52871 0.04746 0.98373 0.0
C272 C 0.54806 0.99898 0.94955 0.0
H273 H 0.48302 0.08658 0.07576 0.0
H274 H 0.5403 0.08633 0.95868 0.0
S275 S 0.51117 0.86047 0.01968 0.0
N276 N 0.47758 0.90089 0.08178 0.0
N277 N 0.54495 0.90055 0.95667 0.0
C278 C 0.52973 0.94996 0.98457 0.0
C279 C 0.49293 0.95014 0.05271 0.0
C280 C 0.24246 0.81541 0.21688 0.0
C281 C 0.26528 0.84537 0.15211 0.0
C282 C 0.20376 0.77487 0.2027 0.0
C283 C 0.18477 0.76438 0.12367 0.0
H284 H 0.25612 0.8217 0.27872 0.0
H285 H 0.18906 0.75115 0.25388 0.0
S286 S 0.22678 0.83674 0.93465 0.0
N287 N 0.26393 0.86435 1.00708 0.0
N288 N 0.18847 0.79097 0.98058 0.0
C289 C 0.20475 0.79665 0.05907 0.0
C290 C 0.24572 0.83641 0.07324 0.0
C291 C 0.17601 0.14346 0.37752 0.0
C292 C 0.23139 0.15678 0.37271 0.0
C293 C 0.13656 0.18348 0.38956 0.0
C294 C 0.151 0.23832 0.39824 0.0
H295 H 0.16281 0.10187 0.37067 0.0
H296 H 0.09455 0.17111 0.3938 0.0
S297 S 0.29043 0.29471 0.39048 0.0
N298 N 0.29853 0.22896 0.37787 0.0
N299 N 0.2246 0.30393 0.40015 0.0
C300 C 0.20622 0.2522 0.3935 0.0
C301 C 0.24631 0.21155 0.38086 0.0
C302 C 0.84808 0.14023 0.64707 0.0
C303 C 0.7932 0.15423 0.65586 0.0
C304 C 0.88783 0.17985 0.63197 0.0
C305 C 0.8741 0.23487 0.62396 0.0
H306 H 0.86066 0.09847 0.65339 0.0
H307 H 0.92948 0.16706 0.62506 0.0
S308 S 0.73601 0.29272 0.64095 0.0
N309 N 0.7272 0.22707 0.65482 0.0
N310 N 0.80162 0.30125 0.62646 0.0
C311 C 0.81931 0.24934 0.63231 0.0
C312 C 0.77898 0.20914 0.64823 0.0
C313 C 0.84463 0.89139 0.89091 0.0
C314 C 0.7897 0.87728 0.88286 0.0
C315 C 0.88439 0.85171 0.90293 0.0
C316 C 0.8707 0.79642 0.90836 0.0
H317 H 0.85727 0.93332 0.88614 0.0
H318 H 0.92609 0.86466 0.90923 0.0
S319 S 0.73238 0.73823 0.89251 0.0
N320 N 0.72359 0.8041 0.88227 0.0
N321 N 0.79808 0.72973 0.90462 0.0
C322 C 0.81583 0.78183 0.90094 0.0
C323 C 0.77544 0.82216 0.88828 0.0
loop_
_geom_bond_atom_site_label_1
_geom_bond_atom_site_label_2
_geom_bond_distance
_geom_bond_site_symmetry_2
_ccdc_geom_bond_type
Co0 O2 2.143 1_556 S
Co0 O8 2.074 . S
Co0 O11 2.093 1_556 S
Co0 O24 2.097 1_556 S
Co0 N41 2.151 . S
Co0 N49 2.214 . S
Co1 O2 2.160 1_655 S
Co1 O7 2.058 1_554 S
Co1 O17 2.057 1_554 S
Co1 O32 2.037 . S
Co1 N36 2.145 . S
Co1 N57 2.257 . S
O2 Co0 2.143 1_554 S
O2 Co1 2.160 1_455 S
C3 O4 1.278 . S
C3 O11 1.224 . S
O4 C3 1.278 . S
C5 O6 1.245 . S
C5 O17 1.232 . S
O6 C5 1.245 . S
O7 Co1 2.058 1_556 S
O7 C33 1.269 . S
O8 Co0 2.074 . S
O8 C33 1.257 1_455 S
H9 C34 0.930 . S
H10 C40 0.930 . S
O11 Co0 2.093 1_554 S
O11 C3 1.224 . S
H12 C44 0.929 . S
H13 C46 0.930 . S
H14 C47 0.930 . S
H15 C45 0.929 . S
H16 C48 0.928 . S
O17 Co1 2.057 1_556 S
O17 C5 1.232 . S
H18 C37 0.929 . S
H19 C38 0.929 . S
H20 C50 0.931 . S
H21 C42 0.929 . S
H22 C51 0.930 . S
H23 C43 0.931 . S
O24 Co0 2.097 1_554 S
O24 C52 1.214 . S
H25 C53 0.929 . S
H26 C54 0.929 . S
H27 C55 0.930 . S
H28 C56 0.929 . S
H29 C58 0.930 . S
H30 C35 0.930 . S
H31 C39 0.930 . S
O32 Co1 2.037 . S
O32 C52 1.234 1_655 S
C33 O7 1.269 . S
C33 O8 1.257 1_655 S
C34 H9 0.930 . S
C34 C37 1.388 . S
C34 C39 1.418 . S
C35 H30 0.930 . S
C35 C38 1.404 . S
C35 C39 1.353 . S
N36 Co1 2.145 . S
N36 C37 1.397 . S
N36 C38 1.334 . S
C37 H18 0.929 . S
C37 C34 1.388 . S
C37 N36 1.397 . S
C38 H19 0.929 . S
C38 C35 1.404 . S
C38 N36 1.334 . S
C39 H31 0.930 . S
C39 C34 1.418 . S
C39 C35 1.353 . S
C40 H10 0.930 . S
C40 N41 1.330 . S
C40 C42 1.446 . S
N41 Co0 2.151 . S
N41 C40 1.330 . S
N41 C45 1.418 . S
C42 H21 0.929 . S
C42 C40 1.446 . S
C42 C43 1.332 . S
C43 H23 0.931 . S
C43 C42 1.332 . S
C43 C44 1.267 . S
C44 H12 0.929 . S
C44 C43 1.267 . S
C44 C45 1.251 . S
C45 H15 0.929 . S
C45 N41 1.418 . S
C45 C44 1.251 . S
C46 H13 0.930 . S
C46 C48 1.406 . S
C46 C51 1.261 . S
C47 H14 0.930 . S
C47 N49 1.325 1_554 S
C47 C50 1.357 . S
C48 H16 0.928 . S
C48 C46 1.406 . S
C48 N49 1.261 . S
N49 Co0 2.214 . S
N49 C47 1.325 1_556 S
N49 C48 1.261 . S
C50 H20 0.931 . S
C50 C47 1.357 . S
C50 C51 1.312 1_554 S
C51 H22 0.930 . S
C51 C46 1.261 . S
C51 C50 1.312 1_556 S
C52 O24 1.214 . S
C52 O32 1.234 1_455 S
C53 H25 0.929 . S
C53 C56 1.391 . S
C53 C58 1.391 . S
C54 H26 0.929 . S
C54 C55 1.390 . S
C54 N57 1.391 . S
C55 H27 0.930 . S
C55 C54 1.390 . S
C55 C56 1.392 . S
C56 H28 0.929 . S
C56 C53 1.391 . S
C56 C55 1.392 . S
N57 Co1 2.257 . S
N57 C54 1.391 . S
N57 C58 1.388 . S
C58 H29 0.930 . S
C58 C53 1.391 . S
C58 N57 1.388 . S
Co59 O61 2.143 1_565 S
Co59 O67 2.074 . S
Co59 O70 2.093 . S
Co59 O83 2.097 . S
Co59 N100 2.151 . S
Co59 N108 2.214 . S
Co60 O61 2.160 . S
Co60 O66 2.058 . S
Co60 O76 2.057 . S
Co60 O91 2.037 . S
Co60 N95 2.145 . S
Co60 N116 2.257 . S
O61 Co59 2.143 1_545 S
O61 Co60 2.160 . S
C62 O63 1.278 . S
C62 O70 1.224 . S
O63 C62 1.278 . S
C64 O65 1.245 . S
C64 O76 1.232 . S
O65 C64 1.245 . S
O66 Co60 2.058 . S
O66 C92 1.269 . S
O67 Co59 2.074 . S
O67 C92 1.257 1_565 S
H68 C93 0.930 . S
H69 C99 0.930 . S
O70 Co59 2.093 . S
O70 C62 1.224 . S
H71 C103 0.929 . S
H72 C105 0.930 . S
H73 C106 0.930 . S
H74 C104 0.929 . S
H75 C107 0.928 . S
O76 Co60 2.057 . S
O76 C64 1.232 . S
H77 C96 0.929 . S
H78 C97 0.929 . S
H79 C109 0.931 . S
H80 C101 0.929 . S
H81 C110 0.930 . S
H82 C102 0.931 . S
O83 Co59 2.097 . S
O83 C111 1.214 . S
H84 C112 0.929 . S
H85 C113 0.929 . S
H86 C114 0.930 . S
H87 C115 0.929 . S
H88 C117 0.930 . S
H89 C94 0.930 . S
H90 C98 0.930 . S
O91 Co60 2.037 . S
O91 C111 1.234 1_545 S
C92 O66 1.269 . S
C92 O67 1.257 1_545 S
C93 H68 0.930 . S
C93 C96 1.388 . S
C93 C98 1.418 . S
C94 H89 0.930 . S
C94 C97 1.404 . S
C94 C98 1.353 . S
N95 Co60 2.145 . S
N95 C96 1.397 . S
N95 C97 1.334 . S
C96 H77 0.929 . S
C96 C93 1.388 . S
C96 N95 1.397 . S
C97 H78 0.929 . S
C97 C94 1.404 . S
C97 N95 1.334 . S
C98 H90 0.930 . S
C98 C93 1.418 . S
C98 C94 1.353 . S
C99 H69 0.930 . S
C99 N100 1.330 . S
C99 C101 1.446 . S
N100 Co59 2.151 . S
N100 C99 1.330 . S
N100 C104 1.418 . S
C101 H80 0.929 . S
C101 C99 1.446 . S
C101 C102 1.332 . S
C102 H82 0.931 . S
C102 C101 1.332 . S
C102 C103 1.267 . S
C103 H71 0.929 . S
C103 C102 1.267 . S
C103 C104 1.251 . S
C104 H74 0.929 . S
C104 N100 1.418 . S
C104 C103 1.251 . S
C105 H72 0.930 . S
C105 C107 1.406 . S
C105 C110 1.261 . S
C106 H73 0.930 . S
C106 N108 1.325 . S
C106 C109 1.357 . S
C107 H75 0.928 . S
C107 C105 1.406 . S
C107 N108 1.261 . S
N108 Co59 2.214 . S
N108 C106 1.325 . S
N108 C107 1.261 . S
C109 H79 0.931 . S
C109 C106 1.357 . S
C109 C110 1.312 . S
C110 H81 0.930 . S
C110 C105 1.261 . S
C110 C109 1.312 . S
C111 O83 1.214 . S
C111 O91 1.234 1_565 S
C112 H84 0.929 . S
C112 C115 1.391 1_554 S
C112 C117 1.391 . S
C113 H85 0.929 . S
C113 C114 1.390 1_554 S
C113 N116 1.391 . S
C114 H86 0.930 . S
C114 C113 1.390 1_556 S
C114 C115 1.392 . S
C115 H87 0.929 . S
C115 C112 1.391 1_556 S
C115 C114 1.392 . S
N116 Co60 2.257 . S
N116 C113 1.391 . S
N116 C117 1.388 . S
C117 H88 0.930 . S
C117 C112 1.391 . S
C117 N116 1.388 . S
Co118 O120 2.143 1_655 S
Co118 O126 2.074 . S
Co118 O129 2.093 . S
Co118 O142 2.097 . S
Co118 N159 2.151 . S
Co118 N167 2.214 . S
Co119 O120 2.160 . S
Co119 O125 2.058 . S
Co119 O135 2.057 . S
Co119 O150 2.037 . S
Co119 N154 2.145 . S
Co119 N175 2.257 . S
O120 Co118 2.143 1_455 S
O120 Co119 2.160 . S
C121 O122 1.278 . S
C121 O129 1.224 . S
O122 C121 1.278 . S
C123 O124 1.245 . S
C123 O135 1.232 . S
O124 C123 1.245 . S
O125 Co119 2.058 . S
O125 C151 1.269 . S
O126 Co118 2.074 . S
O126 C151 1.257 1_655 S
H127 C152 0.930 . S
H128 C158 0.930 . S
O129 Co118 2.093 . S
O129 C121 1.224 . S
H130 C162 0.929 . S
H131 C164 0.930 . S
H132 C165 0.930 . S
H133 C163 0.929 . S
H134 C166 0.928 . S
O135 Co119 2.057 . S
O135 C123 1.232 . S
H136 C155 0.929 . S
H137 C156 0.929 . S
H138 C168 0.931 . S
H139 C160 0.929 . S
H140 C169 0.930 . S
H141 C161 0.931 . S
O142 Co118 2.097 . S
O142 C170 1.214 . S
H143 C171 0.929 . S
H144 C172 0.929 . S
H145 C173 0.930 . S
H146 C174 0.929 . S
H147 C176 0.930 . S
H148 C153 0.930 . S
H149 C157 0.930 . S
O150 Co119 2.037 . S
O150 C170 1.234 1_455 S
C151 O125 1.269 . S
C151 O126 1.257 1_455 S
C152 H127 0.930 . S
C152 C155 1.388 . S
C152 C157 1.418 . S
C153 H148 0.930 . S
C153 C156 1.404 . S
C153 C157 1.353 . S
N154 Co119 2.145 . S
N154 C155 1.397 . S
N154 C156 1.334 . S
C155 H136 0.929 . S
C155 C152 1.388 . S
C155 N154 1.397 . S
C156 H137 0.929 . S
C156 C153 1.404 . S
C156 N154 1.334 . S
C157 H149 0.930 . S
C157 C152 1.418 . S
C157 C153 1.353 . S
C158 H128 0.930 . S
C158 N159 1.330 . S
C158 C160 1.446 . S
N159 Co118 2.151 . S
N159 C158 1.330 . S
N159 C163 1.418 . S
C160 H139 0.929 . S
C160 C158 1.446 . S
C160 C161 1.332 . S
C161 H141 0.931 . S
C161 C160 1.332 . S
C161 C162 1.267 . S
C162 H130 0.929 . S
C162 C161 1.267 . S
C162 C163 1.251 . S
C163 H133 0.929 . S
C163 N159 1.418 . S
C163 C162 1.251 . S
C164 H131 0.930 . S
C164 C166 1.406 . S
C164 C169 1.261 . S
C165 H132 0.930 . S
C165 N167 1.325 . S
C165 C168 1.357 . S
C166 H134 0.928 . S
C166 C164 1.406 . S
C166 N167 1.261 . S
N167 Co118 2.214 . S
N167 C165 1.325 . S
N167 C166 1.261 . S
C168 H138 0.931 . S
C168 C165 1.357 . S
C168 C169 1.312 . S
C169 H140 0.930 . S
C169 C164 1.261 . S
C169 C168 1.312 . S
C170 O142 1.214 . S
C170 O150 1.234 1_655 S
C171 H143 0.929 . S
C171 C174 1.391 . S
C171 C176 1.391 . S
C172 H144 0.929 . S
C172 C173 1.390 . S
C172 N175 1.391 . S
C173 H145 0.930 . S
C173 C172 1.390 . S
C173 C174 1.392 . S
C174 H146 0.929 . S
C174 C171 1.391 . S
C174 C173 1.392 . S
N175 Co119 2.257 . S
N175 C172 1.391 . S
N175 C176 1.388 . S
C176 H147 0.930 . S
C176 C171 1.391 . S
C176 N175 1.388 . S
Co177 O179 2.143 . S
Co177 O185 2.074 . S
Co177 O188 2.093 . S
Co177 O201 2.097 . S
Co177 N218 2.151 . S
Co177 N226 2.214 . S
Co178 O179 2.160 1_565 S
Co178 O184 2.058 . S
Co178 O194 2.057 . S
Co178 O209 2.037 . S
Co178 N213 2.145 . S
Co178 N234 2.257 . S
O179 Co177 2.143 . S
O179 Co178 2.160 1_545 S
C180 O181 1.278 . S
C180 O188 1.224 . S
O181 C180 1.278 . S
C182 O183 1.245 . S
C182 O194 1.232 . S
O183 C182 1.245 . S
O184 Co178 2.058 . S
O184 C210 1.269 . S
O185 Co177 2.074 . S
O185 C210 1.257 1_545 S
H186 C211 0.930 . S
H187 C217 0.930 . S
O188 Co177 2.093 . S
O188 C180 1.224 . S
H189 C221 0.929 1_554 S
H190 C223 0.930 . S
H191 C224 0.930 . S
H192 C222 0.929 . S
H193 C225 0.928 . S
O194 Co178 2.057 . S
O194 C182 1.232 . S
H195 C214 0.929 . S
H196 C215 0.929 . S
H197 C227 0.931 . S
H198 C219 0.929 . S
H199 C228 0.930 . S
H200 C220 0.931 1_554 S
O201 Co177 2.097 . S
O201 C229 1.214 . S
H202 C230 0.929 . S
H203 C231 0.929 . S
H204 C232 0.930 . S
H205 C233 0.929 . S
H206 C235 0.930 . S
H207 C212 0.930 . S
H208 C216 0.930 . S
O209 Co178 2.037 . S
O209 C229 1.234 1_565 S
C210 O184 1.269 . S
C210 O185 1.257 1_565 S
C211 H186 0.930 . S
C211 C214 1.388 . S
C211 C216 1.418 . S
C212 H207 0.930 . S
C212 C215 1.404 . S
C212 C216 1.353 . S
N213 Co178 2.145 . S
N213 C214 1.397 . S
N213 C215 1.334 . S
C214 H195 0.929 . S
C214 C211 1.388 . S
C214 N213 1.397 . S
C215 H196 0.929 . S
C215 C212 1.404 . S
C215 N213 1.334 . S
C216 H208 0.930 . S
C216 C211 1.418 . S
C216 C212 1.353 . S
C217 H187 0.930 . S
C217 N218 1.330 . S
C217 C219 1.446 . S
N218 Co177 2.151 . S
N218 C217 1.330 . S
N218 C222 1.418 . S
C219 H198 0.929 . S
C219 C217 1.446 . S
C219 C220 1.332 . S
C220 H200 0.931 1_556 S
C220 C219 1.332 . S
C220 C221 1.267 . S
C221 H189 0.929 1_556 S
C221 C220 1.267 . S
C221 C222 1.251 . S
C222 H192 0.929 . S
C222 N218 1.418 . S
C222 C221 1.251 . S
C223 H190 0.930 . S
C223 C225 1.406 . S
C223 C228 1.261 . S
C224 H191 0.930 . S
C224 N226 1.325 . S
C224 C227 1.357 . S
C225 H193 0.928 . S
C225 C223 1.406 . S
C225 N226 1.261 . S
N226 Co177 2.214 . S
N226 C224 1.325 . S
N226 C225 1.261 . S
C227 H197 0.931 . S
C227 C224 1.357 . S
C227 C228 1.312 . S
C228 H199 0.930 . S
C228 C223 1.261 . S
C228 C227 1.312 . S
C229 O201 1.214 . S
C229 O209 1.234 1_545 S
C230 H202 0.929 . S
C230 C233 1.391 . S
C230 C235 1.391 . S
C231 H203 0.929 . S
C231 C232 1.390 . S
C231 N234 1.391 . S
C232 H204 0.930 . S
C232 C231 1.390 . S
C232 C233 1.392 . S
C233 H205 0.929 . S
C233 C230 1.391 . S
C233 C232 1.392 . S
N234 Co178 2.257 . S
N234 C231 1.391 . S
N234 C235 1.388 . S
C235 H206 0.930 . S
C235 C230 1.391 . S
C235 N234 1.388 . S
C236 C237 1.369 1_655 S
C236 C238 1.419 . S
C236 H240 0.930 . S
C237 C236 1.369 1_455 S
C237 C246 1.429 . S
C238 C236 1.419 . S
C238 C239 1.363 1_655 S
C238 H241 0.929 . S
C239 C238 1.363 1_455 S
C239 C245 1.428 . S
H240 C236 0.930 . S
H241 C238 0.929 . S
S242 N243 1.613 . S
S242 N244 1.610 . S
N243 S242 1.613 . S
N243 C246 1.350 . S
N244 S242 1.610 . S
N244 C245 1.351 . S
C245 C239 1.428 . S
C245 N244 1.351 . S
C245 C246 1.434 . S
C246 C237 1.429 . S
C246 N243 1.350 . S
C246 C245 1.434 . S
C247 C248 1.369 1_565 S
C247 C249 1.419 . S
C247 H251 0.930 . S
C248 C247 1.369 1_545 S
C248 C257 1.429 . S
C249 C247 1.419 . S
C249 C250 1.363 1_565 S
C249 H252 0.929 . S
C250 C249 1.363 1_545 S
C250 C256 1.428 . S
H251 C247 0.930 . S
H252 C249 0.929 . S
S253 N254 1.613 . S
S253 N255 1.610 . S
N254 S253 1.613 . S
N254 C257 1.350 . S
N255 S253 1.610 . S
N255 C256 1.351 . S
C256 C250 1.428 . S
C256 N255 1.351 . S
C256 C257 1.434 . S
C257 C248 1.429 . S
C257 N254 1.350 . S
C257 C256 1.434 . S
C258 C259 1.369 1_455 S
C258 C260 1.419 . S
C258 H262 0.930 . S
C259 C258 1.369 1_655 S
C259 C268 1.429 . S
C260 C258 1.419 . S
C260 C261 1.363 1_455 S
C260 H263 0.929 . S
C261 C260 1.363 1_655 S
C261 C267 1.428 . S
H262 C258 0.930 . S
H263 C260 0.929 . S
S264 N265 1.613 . S
S264 N266 1.610 . S
N265 S264 1.613 . S
N265 C268 1.350 . S
N266 S264 1.610 . S
N266 C267 1.351 . S
C267 C261 1.428 . S
C267 N266 1.351 . S
C267 C268 1.434 . S
C268 C259 1.429 . S
C268 N265 1.350 . S
C268 C267 1.434 . S
C269 C270 1.369 1_545 S
C269 C271 1.419 . S
C269 H273 0.930 . S
C270 C269 1.369 1_565 S
C270 C279 1.429 . S
C271 C269 1.419 . S
C271 C272 1.363 1_544 S
C271 H274 0.929 . S
C272 C271 1.363 1_566 S
C272 C278 1.428 . S
H273 C269 0.930 . S
H274 C271 0.929 . S
S275 N276 1.613 . S
S275 N277 1.610 . S
N276 S275 1.613 . S
N276 C279 1.350 1_556 S
N277 S275 1.610 . S
N277 C278 1.351 . S
C278 C272 1.428 . S
C278 N277 1.351 . S
C278 C279 1.434 1_556 S
C279 C270 1.429 . S
C279 N276 1.350 1_554 S
C279 C278 1.434 1_554 S
C280 C281 1.369 . S
C280 C282 1.419 . S
C280 H284 0.930 . S
C281 C280 1.369 . S
C281 C290 1.429 . S
C282 C280 1.419 . S
C282 C283 1.363 . S
C282 H285 0.929 . S
C283 C282 1.363 . S
C283 C289 1.428 . S
H284 C280 0.930 . S
H285 C282 0.929 . S
S286 N287 1.613 . S
S286 N288 1.610 . S
N287 S286 1.613 . S
N287 C290 1.350 1_556 S
N288 S286 1.610 . S
N288 C289 1.351 1_556 S
C289 C283 1.428 . S
C289 N288 1.351 1_554 S
C289 C290 1.434 . S
C290 C281 1.429 . S
C290 N287 1.350 1_554 S
C290 C289 1.434 . S
C291 C292 1.369 . S
C291 C293 1.419 . S
C291 H295 0.930 . S
C292 C291 1.369 . S
C292 C301 1.429 . S
C293 C291 1.419 . S
C293 C294 1.363 . S
C293 H296 0.929 . S
C294 C293 1.363 . S
C294 C300 1.428 . S
H295 C291 0.930 . S
H296 C293 0.929 . S
S297 N298 1.613 . S
S297 N299 1.610 . S
N298 S297 1.613 . S
N298 C301 1.350 . S
N299 S297 1.610 . S
N299 C300 1.351 . S
C300 C294 1.428 . S
C300 N299 1.351 . S
C300 C301 1.434 . S
C301 C292 1.429 . S
C301 N298 1.350 . S
C301 C300 1.434 . S
C302 C303 1.369 . S
C302 C304 1.419 . S
C302 H306 0.930 . S
C303 C302 1.369 . S
C303 C312 1.429 . S
C304 C302 1.419 . S
C304 C305 1.363 . S
C304 H307 0.929 . S
C305 C304 1.363 . S
C305 C311 1.428 . S
H306 C302 0.930 . S
H307 C304 0.929 . S
S308 N309 1.613 . S
S308 N310 1.610 . S
N309 S308 1.613 . S
N309 C312 1.350 . S
N310 S308 1.610 . S
N310 C311 1.351 . S
C311 C305 1.428 . S
C311 N310 1.351 . S
C311 C312 1.434 . S
C312 C303 1.429 . S
C312 N309 1.350 . S
C312 C311 1.434 . S
C313 C314 1.369 . S
C313 C315 1.419 . S
C313 H317 0.930 . S
C314 C313 1.369 . S
C314 C323 1.429 . S
C315 C313 1.419 . S
C315 C316 1.363 . S
C315 H318 0.929 . S
C316 C315 1.363 . S
C316 C322 1.428 . S
H317 C313 0.930 . S
H318 C315 0.929 . S
S319 N320 1.613 . S
S319 N321 1.610 . S
N320 S319 1.613 . S
N320 C323 1.350 . S
N321 S319 1.610 . S
N321 C322 1.351 . S
C322 C316 1.428 . S
C322 N321 1.351 . S
C322 C323 1.434 . S
C323 C314 1.429 . S
C323 N320 1.350 . S
C323 C322 1.434 . S
C237 C52 1.635 . S
C239 C151 1.640 . S
C248 C92 1.640 . S
C250 C229 1.635 . S
C259 C33 1.641 . S
C261 C170 1.633 . S
C270 C111 1.634 . S
C272 C210 1.641 . S
C281 C62 1.514 . S
C283 C3 1.513 . S
C292 C64 1.514 . S
C294 C123 1.513 . S
C303 C180 1.512 . S
C305 C121 1.513 . S
C314 C182 1.514 . S
C316 C5 1.513 . S
