# Generated by pormake.
# Topology wht, (6)-cn, num edge types: 1
# Building blocks:
#     Node 0, Type 0, BuildingBlock: VOLQOD_clean_sbu_1, # of connection points: 6
#     Node 1, Type 0, BuildingBlock: VOLQOD_clean_sbu_1, # of connection points: 6
#     Node 2, Type 0, BuildingBlock: VOLQOD_clean_sbu_1, # of connection points: 6
#     Node 3, Type 0, BuildingBlock: VOLQOD_clean_sbu_1, # of connection points: 6
#     Node 4, Type 0, BuildingBlock: VOLQOD_clean_sbu_1, # of connection points: 6
#     Node 5, Type 0, BuildingBlock: VOLQOD_clean_sbu_1, # of connection points: 6
#     Node 6, Type 0, BuildingBlock: VOLQOD_clean_sbu_1, # of connection points: 6
#     Node 7, Type 0, BuildingBlock: VOLQOD_clean_sbu_1, # of connection points: 6
#     Edge 8, Type (0, 0), BuildingBlock: KIFKEQ_clean_linker_1, # of connection points: 2
#     Edge 9, Type (0, 0), BuildingBlock: KIFKEQ_clean_linker_1, # of connection points: 2
#     Edge 10, Type (0, 0), BuildingBlock: KIFKEQ_clean_linker_1, # of connection points: 2
#     Edge 11, Type (0, 0), BuildingBlock: KIFKEQ_clean_linker_1, # of connection points: 2
#     Edge 12, Type (0, 0), BuildingBlock: KIFKEQ_clean_linker_1, # of connection points: 2
#     Edge 13, Type (0, 0), BuildingBlock: KIFKEQ_clean_linker_1, # of connection points: 2
#     Edge 14, Type (0, 0), BuildingBlock: KIFKEQ_clean_linker_1, # of connection points: 2
#     Edge 15, Type (0, 0), BuildingBlock: KIFKEQ_clean_linker_1, # of connection points: 2
#     Edge 16, Type (0, 0), BuildingBlock: KIFKEQ_clean_linker_1, # of connection points: 2
#     Edge 17, Type (0, 0), BuildingBlock: KIFKEQ_clean_linker_1, # of connection points: 2
#     Edge 18, Type (0, 0), BuildingBlock: KIFKEQ_clean_linker_1, # of connection points: 2
#     Edge 19, Type (0, 0), BuildingBlock: KIFKEQ_clean_linker_1, # of connection points: 2
#     Edge 20, Type (0, 0), BuildingBlock: KIFKEQ_clean_linker_1, # of connection points: 2
#     Edge 21, Type (0, 0), BuildingBlock: KIFKEQ_clean_linker_1, # of connection points: 2
#     Edge 22, Type (0, 0), BuildingBlock: KIFKEQ_clean_linker_1, # of connection points: 2
#     Edge 23, Type (0, 0), BuildingBlock: KIFKEQ_clean_linker_1, # of connection points: 2
#     Edge 24, Type (0, 0), BuildingBlock: KIFKEQ_clean_linker_1, # of connection points: 2
#     Edge 25, Type (0, 0), BuildingBlock: KIFKEQ_clean_linker_1, # of connection points: 2
#     Edge 26, Type (0, 0), BuildingBlock: KIFKEQ_clean_linker_1, # of connection points: 2
#     Edge 27, Type (0, 0), BuildingBlock: KIFKEQ_clean_linker_1, # of connection points: 2
#     Edge 28, Type (0, 0), BuildingBlock: KIFKEQ_clean_linker_1, # of connection points: 2
#     Edge 29, Type (0, 0), BuildingBlock: KIFKEQ_clean_linker_1, # of connection points: 2
#     Edge 30, Type (0, 0), BuildingBlock: KIFKEQ_clean_linker_1, # of connection points: 2
#     Edge 31, Type (0, 0), BuildingBlock: KIFKEQ_clean_linker_1, # of connection points: 2
# Relax obj value: 0.362
# Max RMSD: 0.253
# Mean RMSD: 0.253
data_MOF--net-wht--node1-VOLQOD_clean_sbu_1--edge1-KIFKEQ_clean_linker_1
_symmetry_space_group_name_H-M    P1
_symmetry_Int_Tables_number       1
_symmetry_cell_setting            triclinic
loop_
_symmetry_equiv_pos_as_xyz
'x, y, z'
_cell_length_a     28.172752
_cell_length_b     28.011301
_cell_length_c     50.004533
_cell_angle_alpha  90.434828
_cell_angle_beta   89.931043
_cell_angle_gamma 89.997141
loop_
_atom_site_label
_atom_site_type_symbol
_atom_site_fract_x
_atom_site_fract_y
_atom_site_fract_z
_atom_type_partial_charge
O0 O 0.13025 0.28743 0.18527 0.0
Zn1 Zn 0.13315 0.26918 0.14591 0.0
O2 O 0.06803 0.26763 0.13276 0.0
Zn3 Zn 0.04722 0.20429 0.12291 0.0
Zn4 Zn 0.02399 0.29163 0.15914 0.0
Zn5 Zn 0.06378 0.30575 0.10147 0.0
O6 O 0.02739 0.19889 0.08442 0.0
O7 O 0.06294 0.26382 0.06896 0.0
O8 O 0.16531 0.20295 0.13997 0.0
O9 O 0.10296 0.16204 0.12515 0.0
O10 O -0.00042 0.17671 0.14861 0.0
O11 O 0.99245 0.23731 0.17706 0.0
O12 O 0.97177 0.33136 0.14223 0.0
O13 O 0.16943 0.32462 0.12838 0.0
O14 O 0.00295 0.34079 0.10174 0.0
O15 O 0.11667 0.35281 0.09955 0.0
C16 C 0.10005 0.31212 0.19858 0.0
C17 C 0.04304 0.22353 0.065 0.0
C18 C 0.98414 0.19426 0.1705 0.0
C19 C 0.14655 0.16396 0.13151 0.0
C20 C 0.96994 0.34796 0.11861 0.0
C21 C 0.15676 0.35563 0.11113 0.0
O22 O 0.05944 0.32291 0.18907 0.0
O23 O 0.25775 0.61403 0.33029 0.0
Zn24 Zn 0.23342 0.63862 0.36519 0.0
O25 O 0.23878 0.58909 0.39107 0.0
Zn26 Zn 0.17753 0.56495 0.40019 0.0
Zn27 Zn 0.27856 0.53964 0.37613 0.0
Zn28 Zn 0.26822 0.61342 0.42269 0.0
O29 O 0.1732 0.56034 0.44038 0.0
O30 O 0.22048 0.62071 0.45228 0.0
O31 O 0.16488 0.66051 0.36079 0.0
O32 O 0.1267 0.61017 0.38752 0.0
O33 O 0.16612 0.50247 0.38051 0.0
O34 O 0.23686 0.48761 0.36239 0.0
O35 O 0.32158 0.51141 0.40393 0.0
O36 O 0.28062 0.69111 0.37404 0.0
O37 O 0.31201 0.56415 0.43677 0.0
O38 O 0.30802 0.67111 0.41407 0.0
C39 C 0.29681 0.59201 0.32651 0.0
C40 C 0.18927 0.58934 0.45803 0.0
C41 C 0.19336 0.477 0.36581 0.0
C42 C 0.12657 0.64521 0.37141 0.0
C43 C 0.33004 0.52575 0.42767 0.0
C44 C 0.3095 0.69748 0.3934 0.0
O45 O 0.31469 0.56573 0.34462 0.0
O46 O 0.86234 0.71074 0.69362 0.0
Zn47 Zn 0.8509 0.72597 0.65464 0.0
O48 O 0.91247 0.73332 0.63761 0.0
Zn49 Zn 0.92721 0.80046 0.63267 0.0
Zn50 Zn 0.96112 0.70298 0.65901 0.0
Zn51 Zn 0.91036 0.70209 0.60359 0.0
O52 O 0.93552 0.81667 0.59354 0.0
O53 O 0.91237 0.74885 0.57418 0.0
O54 O 0.81273 0.78844 0.65169 0.0
O55 O 0.87181 0.83969 0.64442 0.0
O56 O 0.98339 0.82096 0.65487 0.0
O57 O 0.00362 0.75278 0.67414 0.0
O58 O 0.00261 0.65671 0.63804 0.0
O59 O 0.8163 0.66798 0.63845 0.0
O60 O 0.96593 0.66018 0.59888 0.0
O61 O 0.85522 0.65857 0.60017 0.0
C62 C 0.89498 0.68567 0.7043 0.0
C63 C 0.92534 0.79224 0.57272 0.0
C64 C 0.00911 0.79741 0.67103 0.0
C65 C 0.82841 0.83111 0.64949 0.0
C66 C -0.00115 0.64422 0.61361 0.0
C67 C 0.82243 0.64626 0.61614 0.0
O68 O 0.93212 0.67338 0.69139 0.0
O69 O 0.78105 0.36047 0.94201 0.0
Zn70 Zn 0.76384 0.35203 0.90265 0.0
O71 O 0.75566 0.4154 0.88815 0.0
Zn72 Zn 0.68994 0.43188 0.88394 0.0
Zn73 Zn 0.78644 0.46068 0.91131 0.0
Zn74 Zn 0.78433 0.41954 0.85397 0.0
O75 O 0.67439 0.44949 0.84611 0.0
O76 O 0.73519 0.41423 0.82546 0.0
O77 O 0.70141 0.31367 0.89803 0.0
O78 O 0.65184 0.37314 0.88838 0.0
O79 O 0.66881 0.48099 0.91119 0.0
O80 O 0.73699 0.49484 0.93217 0.0
O81 O 0.82291 0.51148 0.89119 0.0
O82 O 0.82147 0.32089 0.88393 0.0
O83 O 0.81342 0.4832 0.84989 0.0
O84 O 0.83559 0.37094 0.8505 0.0
C85 C 0.81021 0.3906 0.95209 0.0
C86 C 0.69393 0.43285 0.82502 0.0
C87 C 0.6925 0.5009 0.92989 0.0
C88 C 0.65974 0.32924 0.89274 0.0
C89 C 0.82799 0.51518 0.86601 0.0
C90 C 0.84651 0.33409 0.8639 0.0
O91 O 0.82423 0.4269 0.93902 0.0
O92 O 0.63824 0.20196 0.54117 0.0
Zn93 Zn 0.64611 0.22327 0.57949 0.0
O94 O 0.58306 0.23573 0.59387 0.0
Zn95 Zn 0.57338 0.30324 0.59874 0.0
Zn96 Zn 0.5334 0.21196 0.57002 0.0
Zn97 Zn 0.57871 0.20619 0.62845 0.0
O98 O 0.56185 0.32123 0.63678 0.0
O99 O 0.58176 0.255 0.65817 0.0
O100 O 0.68822 0.28362 0.58167 0.0
O101 O 0.63185 0.33768 0.58938 0.0
O102 O 0.52345 0.32982 0.57522 0.0
O103 O 0.49823 0.26617 0.55293 0.0
O104 O 0.48415 0.1735 0.5904 0.0
O105 O 0.67564 0.1661 0.59823 0.0
O106 O 0.51609 0.17467 0.63116 0.0
O107 O 0.62812 0.15521 0.63314 0.0
C108 C 0.60434 0.18154 0.52858 0.0
C109 C 0.57075 0.29914 0.65831 0.0
C110 C 0.49761 0.31095 0.55725 0.0
C111 C 0.67466 0.32697 0.58433 0.0
C112 C 0.48292 0.16317 0.61518 0.0
C113 C 0.66392 0.14297 0.61913 0.0
O114 O 0.56295 0.1775 0.53873 0.0
O115 O 0.28189 0.13371 0.78865 0.0
Zn116 Zn 0.26157 0.14412 0.82728 0.0
O117 O 0.25419 0.08138 0.84231 0.0
Zn118 Zn 0.18921 0.06311 0.84699 0.0
Zn119 Zn 0.28693 0.03461 0.82111 0.0
Zn120 Zn 0.28115 0.08097 0.87654 0.0
O121 O 0.17089 0.05716 0.88598 0.0
O122 O 0.23179 0.09681 0.90341 0.0
O123 O 0.19701 0.18002 0.82926 0.0
O124 O 0.14975 0.11735 0.83546 0.0
O125 O 0.17135 0.00678 0.82382 0.0
O126 O 0.23866 0.99669 0.80125 0.0
O127 O 0.32297 0.98669 0.84377 0.0
O128 O 0.31814 0.17771 0.8459 0.0
O129 O 0.3036 0.01574 0.88387 0.0
O130 O 0.33546 0.12627 0.87812 0.0
C131 C 0.31123 0.10316 0.77909 0.0
C132 C 0.18988 0.08014 0.90531 0.0
C133 C 0.19506 0.98716 0.805 0.0
C134 C 0.15544 0.16158 0.83093 0.0
C135 C 0.32117 0.98308 0.86914 0.0
C136 C 0.3451 0.16375 0.86494 0.0
O137 O 0.32435 0.06678 0.79241 0.0
O138 O 0.3684 0.77982 0.03873 0.0
Zn139 Zn 0.35847 0.76695 0.07817 0.0
O140 O 0.42066 0.76772 0.09532 0.0
Zn141 Zn 0.44089 0.70389 0.10443 0.0
Zn142 Zn 0.46768 0.79636 0.07205 0.0
Zn143 Zn 0.41681 0.80461 0.12758 0.0
O144 O 0.45367 0.69683 0.14371 0.0
O145 O 0.4199 0.76282 0.15965 0.0
O146 O 0.32613 0.70119 0.08297 0.0
O147 O 0.38777 0.65901 0.09729 0.0
O148 O 0.49591 0.68154 0.0821 0.0
O149 O 0.51184 0.74636 0.05855 0.0
O150 O 0.50745 0.8471 0.0905 0.0
O151 O 0.31847 0.82317 0.09248 0.0
O152 O 0.47096 0.84914 0.12984 0.0
O153 O 0.35963 0.84604 0.12816 0.0
C154 C 0.39971 0.80489 0.02679 0.0
C155 C 0.4388 0.72207 0.16327 0.0
C156 C 0.51946 0.70282 0.06403 0.0
C157 C 0.34466 0.66142 0.08993 0.0
C158 C 0.50334 0.86359 0.11418 0.0
C159 C 0.32442 0.85105 0.11258 0.0
O160 O 0.43676 0.81986 0.03881 0.0
O161 O 0.76059 0.86466 0.39258 0.0
Zn162 Zn 0.73525 0.84731 0.35636 0.0
O163 O 0.74088 0.90287 0.33383 0.0
Zn164 Zn 0.67954 0.9278 0.3247 0.0
Zn165 Zn 0.77752 0.95217 0.35152 0.0
Zn166 Zn 0.7729 0.88473 0.30146 0.0
O167 O 0.67603 0.93705 0.28475 0.0
O168 O 0.72801 0.88254 0.27044 0.0
O169 O 0.66587 0.82504 0.35914 0.0
O170 O 0.62928 0.88137 0.33578 0.0
O171 O 0.66498 0.98824 0.34555 0.0
O172 O 0.73435 0.00316 0.36493 0.0
O173 O 0.82346 0.98368 0.32639 0.0
O174 O 0.78201 0.79561 0.34441 0.0
O175 O 0.81904 0.93497 0.29131 0.0
O176 O 0.81138 0.82572 0.30695 0.0
C177 C 0.79429 0.8926 0.39946 0.0
C178 C 0.69495 0.91253 0.26592 0.0
C179 C 0.69098 0.01339 0.36099 0.0
C180 C 0.62791 0.84342 0.34965 0.0
C181 C 0.83565 0.97198 0.30272 0.0
C182 C 0.81182 0.79421 0.32516 0.0
O183 O 0.80936 0.92529 0.384 0.0
H184 H 0.94131 0.10783 0.16174 0.0
H185 H 0.9761 0.20987 0.22394 0.0
H186 H 0.90825 0.05449 0.19527 0.0
H187 H 0.9457 0.15585 0.25747 0.0
H188 H 0.84147 0.06861 0.30736 0.0
H189 H 0.8766 0.12323 0.27535 0.0
H190 H 0.93112 0.00309 0.22988 0.0
H191 H 0.89365 0.94867 0.26121 0.0
C192 C 0.94189 0.11879 0.18256 0.0
C193 C 0.96096 0.16307 0.19018 0.0
C194 C 0.92349 0.08805 0.20184 0.0
C195 C 0.92467 0.10065 0.22917 0.0
C196 C 0.94347 0.14521 0.23664 0.0
C197 C 0.961 0.17621 0.21737 0.0
C198 C 0.86176 0.05402 0.29079 0.0
C199 C 0.86475 0.00454 0.28665 0.0
C200 C 0.88189 0.08528 0.27238 0.0
C201 C 0.90615 0.06759 0.24975 0.0
C202 C 0.9115 0.01797 0.24661 0.0
C203 C 0.89061 0.98677 0.26473 0.0
H204 H 0.37622 0.44164 0.41649 0.0
H205 H 0.34498 0.54102 0.48078 0.0
H206 H 0.41608 0.38936 0.44824 0.0
H207 H 0.38309 0.48837 0.51233 0.0
H208 H 0.49785 0.40815 0.55655 0.0
H209 H 0.45976 0.45998 0.52447 0.0
H210 H 0.39683 0.33719 0.48545 0.0
H211 H 0.4364 0.28481 0.51719 0.0
C212 C 0.37801 0.45242 0.43731 0.0
C213 C 0.35758 0.49554 0.44607 0.0
C214 C 0.40038 0.42228 0.45552 0.0
C215 C 0.40253 0.43467 0.4828 0.0
C216 C 0.38264 0.47808 0.49141 0.0
C217 C 0.36065 0.50824 0.47326 0.0
C218 C 0.47558 0.39209 0.54131 0.0
C219 C 0.47015 0.34231 0.53944 0.0
C220 C 0.45366 0.42188 0.52291 0.0
C221 C 0.42542 0.40268 0.50236 0.0
C222 C 0.41907 0.35297 0.5008 0.0
C223 C 0.4413 0.32303 0.51915 0.0
H224 H 0.0464 0.76488 0.71755 0.0
H225 H 0.04563 0.88746 0.66543 0.0
H226 H 0.09353 0.80934 0.75005 0.0
H227 H 0.09386 0.93157 0.69805 0.0
H228 H 0.22287 0.96715 0.75412 0.0
H229 H 0.18067 0.91983 0.72058 0.0
H230 H 0.07083 0.88906 0.77816 0.0
H231 H 0.1125 0.9373 0.81181 0.0
C232 C 0.05695 0.80103 0.7128 0.0
C233 C 0.04226 0.82279 0.68892 0.0
C234 C 0.08359 0.82644 0.73152 0.0
C235 C 0.0968 0.87369 0.72648 0.0
C236 C 0.08394 0.895 0.70222 0.0
C237 C 0.05644 0.86985 0.68365 0.0
C238 C 0.18992 0.94998 0.75974 0.0
C239 C 0.17092 0.95576 0.7856 0.0
C240 C 0.16576 0.92327 0.74049 0.0
C241 C 0.12274 0.90114 0.74693 0.0
C242 C 0.10418 0.90583 0.7729 0.0
C243 C 0.12788 0.93338 0.79205 0.0
H244 H 0.55489 0.72947 0.01577 0.0
H245 H 0.55533 0.61322 0.07228 0.0
H246 H 0.59767 0.67985 0.98367 0.0
H247 H 0.59907 0.56389 0.03998 0.0
H248 H 0.72179 0.51873 0.98065 0.0
H249 H 0.68277 0.56821 0.01452 0.0
H250 H 0.57009 0.59942 0.95891 0.0
H251 H 0.60868 0.54918 0.92494 0.0
C252 C 0.56484 0.69365 0.02156 0.0
C253 C 0.55156 0.67513 0.04655 0.0
C254 C 0.58893 0.66524 0.00306 0.0
C255 C 0.60091 0.61815 0.00937 0.0
C256 C 0.58994 0.60022 0.03477 0.0
C257 C 0.56505 0.6284 0.05319 0.0
C258 C 0.68869 0.53618 0.97562 0.0
C259 C 0.66827 0.53042 0.95014 0.0
C260 C 0.66638 0.56416 -0.00496 0.0
C261 C 0.62378 0.58751 -0.01087 0.0
C262 C 0.60323 0.58185 0.96372 0.0
C263 C 0.62509 0.55307 0.94441 0.0
H264 H 0.03848 0.32919 0.23949 0.0
H265 H 0.18765 0.32952 0.21962 0.0
H266 H 0.0569 0.35668 0.28459 0.0
H267 H 0.20618 0.35969 0.26412 0.0
H268 H 0.23716 0.39672 0.34724 0.0
H269 H 0.21136 0.34675 0.30991 0.0
H270 H 0.07993 0.42639 0.30623 0.0
H271 H 0.10475 0.47402 0.34446 0.0
C272 C 0.07525 0.33551 0.24477 0.0
C273 C 0.11166 0.32775 0.22602 0.0
C274 C 0.08584 0.35135 0.27062 0.0
C275 C 0.13303 0.36075 0.27813 0.0
C276 C 0.16948 0.35198 0.25939 0.0
C277 C 0.15892 0.33517 0.23371 0.0
C278 C 0.2021 0.40232 0.33893 0.0
C279 C 0.17308 0.4394 0.34854 0.0
C280 C 0.18753 0.37416 0.31731 0.0
C281 C 0.1441 0.3833 0.30446 0.0
C282 C 0.11349 0.41794 0.31558 0.0
C283 C 0.12768 0.44539 0.33758 0.0
H284 H 0.98446 0.57566 0.57655 0.0
H285 H 0.09503 0.64925 0.61994 0.0
H286 H 0.04137 0.55009 0.54315 0.0
H287 H 0.15318 0.62261 0.58656 0.0
H288 H 0.19628 0.65639 0.49775 0.0
H289 H 0.16062 0.65394 0.54199 0.0
H290 H 0.10943 0.51106 0.5259 0.0
H291 H 0.14354 0.51438 0.48117 0.0
C292 C 0.02156 0.58449 0.57951 0.0
C293 C 0.03539 0.61502 0.60043 0.0
C294 C 0.05438 0.56968 0.56039 0.0
C295 C 0.10173 0.58528 0.56181 0.0
C296 C 0.1167 0.61092 0.58464 0.0
C297 C 0.08363 0.62566 0.60392 0.0
C298 C 0.17784 0.62427 0.50376 0.0
C299 C 0.1716 0.58611 0.48575 0.0
C300 C 0.15794 0.62254 0.52931 0.0
C301 C 0.13185 0.58236 0.53748 0.0
C302 C 0.12859 0.54286 0.52007 0.0
C303 C 0.14792 0.54486 0.4944 0.0
H304 H 0.91918 0.54088 0.85574 0.0
H305 H 0.77365 0.58549 0.84743 0.0
H306 H 0.94275 0.59681 0.8208 0.0
H307 H 0.79589 0.63912 0.81176 0.0
H308 H 0.84043 0.72684 0.74343 0.0
H309 H 0.83301 0.70211 0.78993 0.0
H310 H 0.93173 0.58666 0.77474 0.0
H311 H 0.94079 0.61291 0.729 0.0
C312 C 0.8927 0.5643 0.84721 0.0
C313 C 0.84482 0.55948 0.85415 0.0
C314 C 0.90587 0.59567 0.82689 0.0
C315 C 0.87104 0.62147 0.81283 0.0
C316 C 0.82386 0.6202 0.82205 0.0
C317 C 0.81095 0.58946 0.84257 0.0
C318 C 0.86071 0.69638 0.75019 0.0
C319 C 0.89063 0.67134 0.73251 0.0
C320 C 0.85662 0.68228 0.77684 0.0
C321 C 0.88168 0.6423 0.78622 0.0
C322 C 0.91264 0.61825 0.76859 0.0
C323 C 0.91732 0.63284 0.74214 0.0
H324 H 0.89143 0.29711 0.10824 0.0
H325 H 0.95188 0.43777 0.10163 0.0
H326 H 0.84169 0.31198 0.06959 0.0
H327 H 0.89949 0.45464 0.06412 0.0
H328 H 0.88988 0.42721 0.97452 0.0
H329 H 0.91337 0.4257 0.02099 0.0
H330 H 0.78624 0.3465 0.04051 0.0
H331 H 0.76387 0.34628 -0.00675 0.0
C332 C 0.89149 0.33252 0.09964 0.0
C333 C 0.92551 0.36624 0.10765 0.0
C334 C 0.8632 0.34102 0.07725 0.0
C335 C 0.86805 0.38384 0.06297 0.0
C336 C 0.89637 0.42048 0.07396 0.0
C337 C 0.9256 0.4114 0.09585 0.0
C338 C 0.86698 0.40935 0.98871 0.0
C339 C 0.8253 0.38651 0.98022 0.0
C340 C 0.87998 0.40918 0.01555 0.0
C341 C 0.85122 0.38687 0.03481 0.0
C342 C 0.80933 0.36395 0.02629 0.0
C343 C 0.79665 0.36353 -0.0008 0.0
H344 H 0.68975 0.1613 0.50568 0.0
H345 H 0.53903 0.16013 0.48982 0.0
H346 H 0.70492 0.12961 0.46126 0.0
H347 H 0.55427 0.13023 0.44465 0.0
H348 H 0.60343 0.01234 0.38389 0.0
H349 H 0.57853 0.0597 0.42245 0.0
H350 H 0.70546 0.14563 0.41539 0.0
H351 H 0.73139 0.09623 0.37783 0.0
C352 C 0.65986 0.15484 0.49253 0.0
C353 C 0.61321 0.1629 0.50132 0.0
C354 C 0.66854 0.13715 0.46687 0.0
C355 C 0.63084 0.12776 0.44914 0.0
C356 C 0.58413 0.13658 0.45782 0.0
C357 C 0.57539 0.15371 0.4837 0.0
C358 C 0.6252 0.04231 0.39012 0.0
C359 C 0.66957 0.05036 0.37821 0.0
C360 C 0.61099 0.06952 0.41227 0.0
C361 C 0.64063 0.10573 0.42254 0.0
C362 C 0.68257 0.11694 0.40863 0.0
C363 C 0.69719 0.0891 0.3869 0.0
H364 H 0.26913 0.15063 0.73783 0.0
H365 H 0.39177 0.06556 0.75771 0.0
H366 H 0.29649 0.15538 0.6916 0.0
H367 H 0.42046 0.07223 0.71223 0.0
H368 H 0.46655 0.07242 0.63102 0.0
H369 H 0.41304 0.05089 0.66742 0.0
H370 H 0.35485 0.19388 0.66675 0.0
H371 H 0.40598 0.21354 0.62931 0.0
C372 C 0.30219 0.13339 0.73235 0.0
C373 C 0.32856 0.10807 0.7514 0.0
C374 C 0.31782 0.13594 0.70584 0.0
C375 C 0.36057 0.1139 0.69795 0.0
C376 C 0.38668 0.08851 0.71717 0.0
C377 C 0.37065 0.08527 0.74346 0.0
C378 C 0.4402 0.09805 0.63772 0.0
C379 C 0.4398 0.14436 0.62741 0.0
C380 C 0.41026 0.08624 0.65894 0.0
C381 C 0.38079 0.12118 0.67076 0.0
C382 C 0.37686 0.1659 0.6583 0.0
C383 C 0.40602 0.17725 0.63669 0.0
H384 H 0.4527 0.86644 -0.00287 0.0
H385 H 0.33276 0.77054 -0.0081 0.0
H386 H 0.4377 0.8931 0.95196 0.0
H387 H 0.31868 0.79621 0.94609 0.0
H388 H 0.26351 0.92822 0.89794 0.0
H389 H 0.28689 0.87006 0.93098 0.0
H390 H 0.43259 0.88067 0.90421 0.0
H391 H 0.40847 0.94032 0.87111 0.0
C392 C 0.4236 0.85036 0.98616 0.0
C393 C 0.39314 0.81728 -0.00163 0.0
C394 C 0.41544 0.86517 0.96002 0.0
C395 C 0.37681 0.84699 0.94541 0.0
C396 C 0.34833 0.81141 0.95698 0.0
C397 C 0.35625 0.79687 0.98325 0.0
C398 C 0.30025 0.91671 0.89851 0.0
C399 C 0.33438 0.93865 0.88234 0.0
C400 C 0.31371 0.88313 0.91734 0.0
C401 C 0.36178 0.87117 0.92053 0.0
C402 C 0.39537 0.88977 0.90245 0.0
C403 C 0.38168 0.92346 0.8834 0.0
H404 H 0.4897 0.93367 0.15063 0.0
H405 H 0.59895 0.86245 0.1048 0.0
H406 H 0.54811 0.96063 0.18262 0.0
H407 H 0.65866 0.89093 0.1366 0.0
H408 H 0.70454 0.85091 0.22383 0.0
H409 H 0.66922 0.85763 0.1798 0.0
H410 H 0.61534 0.99764 0.20077 0.0
H411 H 0.64888 0.98965 0.24541 0.0
C412 C 0.52676 0.92575 0.14677 0.0
C413 C 0.5398 0.89495 0.12578 0.0
C414 C 0.56052 0.94144 0.16509 0.0
C415 C 0.60802 0.92659 0.1627 0.0
C416 C 0.62207 0.90175 0.1394 0.0
C417 C 0.58804 0.88593 0.12099 0.0
C418 C 0.68562 0.88334 0.21892 0.0
C419 C 0.6782 0.9191 0.23827 0.0
C420 C 0.66593 0.88761 0.19347 0.0
C421 C 0.63895 0.92807 0.18673 0.0
C422 C 0.63503 0.96558 0.20546 0.0
C423 C 0.65402 0.96091 0.23108 0.0
H424 H 0.09551 0.06111 0.91511 0.0
H425 H 0.21953 0.12953 0.94912 0.0
H426 H 0.04687 0.09433 0.95163 0.0
H427 H 0.17096 0.16274 0.98474 0.0
H428 H 0.06882 0.26667 0.01858 0.0
H429 H 0.09607 0.22669 0.97799 0.0
H430 H 0.05229 0.09084 0.00966 0.0
H431 H 0.02502 0.13054 0.05064 0.0
C432 C 0.11249 0.08254 0.93047 0.0
C433 C 0.16132 0.09311 0.92906 0.0
C434 C 0.08463 0.10159 0.95118 0.0
C435 C 0.10529 0.13175 0.9704 0.0
C436 C 0.15427 0.14027 0.96973 0.0
C437 C 0.18204 0.12098 0.94939 0.0
C438 C 0.06363 0.22847 0.01668 0.0
C439 C 0.04591 0.20162 0.0381 0.0
C440 C 0.07916 0.2057 -0.00656 0.0
C441 C 0.07683 0.15584 -0.00886 0.0
C442 C 0.05434 0.12939 0.01116 0.0
C443 C 0.03888 0.15219 0.03457 0.0
H444 H 0.42036 0.76802 0.21028 0.0
H445 H 0.45145 0.62839 0.17708 0.0
H446 H 0.39467 0.73107 0.25174 0.0
H447 H 0.42556 0.59166 0.21888 0.0
H448 H 0.38766 0.56404 0.31327 0.0
H449 H 0.43549 0.59352 0.27567 0.0
H450 H 0.31544 0.67485 0.24794 0.0
H451 H 0.2677 0.64549 0.2846 0.0
C452 C 0.42303 0.72959 0.21207 0.0
C453 C 0.43667 0.70102 0.19019 0.0
C454 C 0.40845 0.70855 0.23581 0.0
C455 C 0.40747 0.65869 0.23807 0.0
C456 C 0.42608 0.63023 0.21742 0.0
C457 C 0.44072 0.65132 0.19354 0.0
C458 C 0.37135 0.58757 0.29886 0.0
C459 C 0.32405 0.60286 0.30209 0.0
C460 C 0.39876 0.60449 0.27754 0.0
C461 C 0.37919 0.63719 0.25955 0.0
C462 C 0.33145 0.65046 0.26203 0.0
C463 C 0.3041 0.63334 0.28296 0.0
H464 H 0.78271 0.81668 0.43227 0.0
H465 H 0.86088 0.94889 0.42467 0.0
H466 H 0.82585 0.79879 0.47286 0.0
H467 H 0.90424 0.93052 0.46592 0.0
H468 H 0.93915 0.74953 0.52469 0.0
H469 H 0.91478 0.78002 0.48138 0.0
H470 H 0.88099 0.91617 0.51767 0.0
H471 H 0.90593 0.8857 0.56133 0.0
C472 C 0.80891 0.84213 0.43931 0.0
C473 C 0.81852 0.88412 0.42514 0.0
C474 C 0.8339 0.83162 0.46245 0.0
C475 C 0.86886 0.86293 0.47212 0.0
C476 C 0.87762 0.90576 0.45863 0.0
C477 C 0.85285 0.91614 0.43512 0.0
C478 C 0.92782 0.7864 0.52332 0.0
C479 C 0.92345 0.81501 0.54635 0.0
C480 C 0.91387 0.80377 0.49859 0.0
C481 C 0.8951 0.84996 0.49647 0.0
C482 C 0.89532 0.88037 0.51893 0.0
C483 C 0.90958 0.86296 0.54382 0.0
H484 H 0.58374 0.39498 0.66377 0.0
H485 H 0.56621 0.26566 0.70943 0.0
H486 H 0.60376 0.43859 0.70467 0.0
H487 H 0.58528 0.3099 0.75039 0.0
H488 H 0.59994 0.41285 0.82092 0.0
H489 H 0.55778 0.38786 0.78032 0.0
H490 H 0.68301 0.41727 0.73343 0.0
H491 H 0.72559 0.44081 0.774 0.0
C492 C 0.58278 0.37617 0.68261 0.0
C493 C 0.57394 0.32677 0.68343 0.0
C494 C 0.59424 0.40119 0.70593 0.0
C495 C 0.59595 0.37744 0.73046 0.0
C496 C 0.58369 0.32893 0.73163 0.0
C497 C 0.57315 0.30363 0.70823 0.0
C498 C 0.61788 0.41534 0.80181 0.0
C499 C 0.66592 0.4286 0.80042 0.0
C500 C 0.59388 0.40087 0.77872 0.0
C501 C 0.61732 0.40081 0.75396 0.0
C502 C 0.66419 0.41752 0.75234 0.0
C503 C 0.68853 0.4308 0.77547 0.0
H504 H 0.23946 0.14477 0.14647 0.0
H505 H 0.11598 0.08027 0.10976 0.0
H506 H 0.28176 0.06847 0.14184 0.0
H507 H 0.15725 0.00515 0.10585 0.0
H508 H 0.25989 0.88949 0.07763 0.0
H509 H 0.21954 0.9663 0.08161 0.0
H510 H 0.28112 0.98763 0.15986 0.0
H511 H 0.32205 0.91146 0.15573 0.0
C512 C 0.22137 0.11459 0.13745 0.0
C513 C 0.17427 0.11893 0.12859 0.0
C514 C 0.24543 0.07077 0.13494 0.0
C515 C 0.2229 0.03056 0.12341 0.0
C516 C 0.17606 0.03531 0.11442 0.0
C517 C 0.15221 0.07867 0.11692 0.0
C518 C 0.26424 0.91018 0.09585 0.0
C519 C 0.29415 0.89407 0.11635 0.0
C520 C 0.24124 0.95439 0.09812 0.0
C521 C 0.24742 0.98349 0.12099 0.0
C522 C 0.27632 0.96674 0.14176 0.0
C523 C 0.29933 0.92266 0.13948 0.0
H524 H 0.33395 0.74699 0.34841 0.0
H525 H 0.3818 0.71696 0.42863 0.0
H526 H 0.41043 0.78247 0.3382 0.0
H527 H 0.45815 0.7537 0.41855 0.0
H528 H 0.54118 0.87624 0.33385 0.0
H529 H 0.46325 0.84715 0.34625 0.0
H530 H 0.52803 0.73476 0.39229 0.0
H531 H 0.60669 0.76489 0.38044 0.0
C532 C 0.36024 0.74911 0.36415 0.0
C533 C 0.3515 0.72886 0.38935 0.0
C534 C 0.40435 0.76946 0.35826 0.0
C535 C 0.4409 0.77039 0.37743 0.0
C536 C 0.43126 0.75261 0.4031 0.0
C537 C 0.38715 0.73212 0.409 0.0
C538 C 0.53908 0.84517 0.34655 0.0
C539 C 0.58052 0.82289 0.35607 0.0
C540 C 0.49413 0.82838 0.35362 0.0
C541 C 0.4891 0.78863 0.37034 0.0
C542 C 0.53049 0.76597 0.37972 0.0
C543 C 0.57566 0.78291 0.37269 0.0
H544 H 0.67209 0.10097 0.66811 0.0
H545 H 0.7105 0.08247 0.58502 0.0
H546 H 0.70696 0.02296 0.67826 0.0
H547 H 0.74403 0.00401 0.59515 0.0
H548 H 0.74682 0.84458 0.62122 0.0
H549 H 0.70522 0.92089 0.61498 0.0
H550 H 0.79749 0.98774 0.67297 0.0
H551 H 0.83995 0.91215 0.67849 0.0
C552 C 0.68816 0.08037 0.65206 0.0
C553 C 0.6889 0.09803 0.6258 0.0
C554 C 0.70787 0.03574 0.65788 0.0
C555 C 0.72751 0.00736 0.63741 0.0
C556 C 0.72852 0.02503 0.6112 0.0
C557 C 0.70988 0.07013 0.60549 0.0
C558 C 0.75718 0.87528 0.63316 0.0
C559 C 0.79617 0.87255 0.65052 0.0
C560 C 0.73383 0.91893 0.62938 0.0
C561 C 0.74845 0.96009 0.64341 0.0
C562 C 0.78549 0.9565 0.66201 0.0
C563 C 0.80956 0.9133 0.66524 0.0
H564 H 0.41792 0.13232 0.89619 0.0
H565 H 0.37663 0.25043 0.84626 0.0
H566 H 0.49563 0.16776 0.90257 0.0
H567 H 0.454 0.28727 0.85367 0.0
H568 H 0.60908 0.32019 0.84764 0.0
H569 H 0.53366 0.27943 0.84142 0.0
H570 H 0.54065 0.22862 0.92281 0.0
H571 H 0.61781 0.26801 0.92834 0.0
C572 C 0.42508 0.16636 0.88689 0.0
C573 C 0.39082 0.18844 0.8706 0.0
C574 C 0.46986 0.18684 0.89068 0.0
C575 C 0.48166 0.23032 0.87852 0.0
C576 C 0.44684 0.25316 0.86287 0.0
C577 C 0.40214 0.23232 0.8588 0.0
C578 C 0.59492 0.29924 0.86396 0.0
C579 C 0.61936 0.29665 0.88835 0.0
C580 C 0.55123 0.27653 0.86058 0.0
C581 C 0.53019 0.25138 0.88175 0.0
C582 C 0.55571 0.24732 0.90595 0.0
C583 C 0.60003 0.26963 0.90917 0.0
H584 H 0.77842 0.58501 0.65089 0.0
H585 H 0.81053 0.60488 0.56721 0.0
H586 H 0.74926 0.50448 0.64083 0.0
H587 H 0.782 0.52467 0.5573 0.0
H588 H 0.6723 0.40029 0.55003 0.0
H589 H 0.7077 0.47882 0.55702 0.0
H590 H 0.78314 0.42547 0.62577 0.0
H591 H 0.74732 0.34648 0.61855 0.0
C592 C 0.77841 0.5726 0.63032 0.0
C593 C 0.79661 0.60145 0.60985 0.0
C594 C 0.76253 0.52619 0.62462 0.0
C595 C 0.76407 0.50793 0.59832 0.0
C596 C 0.78039 0.53759 0.57775 0.0
C597 C 0.79658 0.58366 0.58345 0.0
C598 C 0.69804 0.40493 0.56593 0.0
C599 C 0.708 0.36725 0.58339 0.0
C600 C 0.71796 0.44999 0.57012 0.0
C601 C 0.7477 0.45856 0.59218 0.0
C602 C 0.7598 0.42007 0.60882 0.0
C603 C 0.7402 0.37468 0.60439 0.0
H604 H 0.14502 0.25901 0.83901 0.0
H605 H 0.06576 0.13008 0.82231 0.0
H606 H 0.06986 0.30214 0.8459 0.0
H607 H 0.99189 0.17261 0.82952 0.0
H608 H 0.8781 0.24687 0.88152 0.0
H609 H 0.95388 0.20814 0.8712 0.0
H610 H 0.99317 0.32667 0.82119 0.0
H611 H 0.91762 0.36528 0.83122 0.0
C612 C 0.1118 0.24014 0.8363 0.0
C613 C 0.11155 0.191 0.83039 0.0
C614 C 0.06882 0.26469 0.84039 0.0
C615 C 0.02507 0.24038 0.83881 0.0
C616 C 0.02499 0.19202 0.83151 0.0
C617 C 0.06751 0.16777 0.82722 0.0
C618 C 0.90273 0.26454 0.86822 0.0
C619 C 0.89145 0.30897 0.85706 0.0
C620 C 0.94611 0.24239 0.86228 0.0
C621 C 0.97945 0.26447 0.84538 0.0
C622 C 0.96839 0.309 0.83441 0.0
C623 C 0.92481 0.33082 0.84002 0.0
H624 H 0.24761 0.6492 0.08484 0.0
H625 H 0.37828 0.57119 0.09637 0.0
H626 H 0.20296 0.5745 0.08903 0.0
H627 H 0.3342 0.49739 0.1 0.0
H628 H 0.23824 0.38391 0.13699 0.0
H629 H 0.2824 0.45795 0.13089 0.0
H630 H 0.18726 0.49817 0.06724 0.0
H631 H 0.14265 0.42477 0.07362 0.0
C632 C 0.26683 0.61623 0.08799 0.0
C633 C 0.31651 0.61647 0.09046 0.0
C634 C 0.24131 0.57336 0.09033 0.0
C635 C 0.26497 0.52986 0.09514 0.0
C636 C 0.31466 0.53018 0.09691 0.0
C637 C 0.33999 0.57273 0.09464 0.0
C638 C 0.22703 0.40826 0.12151 0.0
C639 C 0.18686 0.39818 0.10582 0.0
C640 C 0.25237 0.4508 0.11797 0.0
C641 C 0.23828 0.48428 0.09862 0.0
C642 C 0.19867 0.47371 0.08262 0.0
C643 C 0.17334 0.43127 0.08615 0.0
H644 H 0.89535 0.80249 0.29818 0.0
H645 H 0.82522 0.71608 0.35748 0.0
H646 H 0.97013 0.76553 0.30865 0.0
H647 H 0.90008 0.6758 0.36669 0.0
H648 H 0.04733 0.65626 0.40218 0.0
H649 H 0.97013 0.68669 0.38876 0.0
H650 H 0.02303 0.70535 0.30816 0.0
H651 H 0.101 0.67861 0.32247 0.0
C652 C 0.8955 0.77424 0.31285 0.0
C653 C 0.85406 0.76259 0.32711 0.0
C654 C 0.93884 0.75269 0.31888 0.0
C655 C 0.94205 0.71779 0.33891 0.0
C656 C 0.89976 0.70356 0.35177 0.0
C657 C 0.85644 0.72608 0.34617 0.0
C658 C 0.04238 0.66749 0.38168 0.0
C659 C 0.08032 0.66577 0.36348 0.0
C660 C -0.00221 0.68431 0.37378 0.0
C661 C 0.98951 0.69855 0.3472 0.0
C662 C 0.02771 0.69601 0.32895 0.0
C663 C 0.07264 0.68053 0.33709 0.0
loop_
_geom_bond_atom_site_label_1
_geom_bond_atom_site_label_2
_geom_bond_distance
_geom_bond_site_symmetry_2
_ccdc_geom_bond_type
O0 Zn1 1.953 . S
O0 C16 1.225 . S
Zn1 O0 1.953 . S
Zn1 O2 1.949 . S
Zn1 O8 1.919 . S
Zn1 O13 1.924 . S
O2 Zn1 1.949 . S
O2 Zn3 1.923 . S
O2 Zn4 1.950 . S
O2 Zn5 1.945 . S
Zn3 O2 1.923 . S
Zn3 O6 1.933 . S
Zn3 O9 1.941 . S
Zn3 O10 1.972 . S
Zn4 O2 1.950 . S
Zn4 O11 1.938 1_455 S
Zn4 O12 1.906 1_455 S
Zn4 O22 1.953 . S
Zn5 O2 1.945 . S
Zn5 O7 1.932 . S
Zn5 O14 1.977 . S
Zn5 O15 1.910 . S
O6 Zn3 1.933 . S
O6 C17 1.226 . S
O7 Zn5 1.932 . S
O7 C17 1.307 . S
O8 Zn1 1.919 . S
O8 C19 1.253 . S
O9 Zn3 1.941 . S
O9 C19 1.283 . S
O10 Zn3 1.972 . S
O10 C18 1.300 1_455 S
O11 Zn4 1.938 1_655 S
O11 C18 1.247 . S
O12 Zn4 1.906 1_655 S
O12 C20 1.304 . S
O13 Zn1 1.924 . S
O13 C21 1.311 . S
O14 Zn5 1.977 . S
O14 C20 1.272 1_455 S
O15 Zn5 1.910 . S
O15 C21 1.231 . S
C16 O0 1.225 . S
C16 O22 1.298 . S
C17 O6 1.226 . S
C17 O7 1.307 . S
C18 O10 1.300 1_655 S
C18 O11 1.247 . S
C19 O8 1.253 . S
C19 O9 1.283 . S
C20 O12 1.304 . S
C20 O14 1.272 1_655 S
C21 O13 1.311 . S
C21 O15 1.231 . S
O22 Zn4 1.953 . S
O22 C16 1.298 . S
O23 Zn24 1.953 . S
O23 C39 1.225 . S
Zn24 O23 1.953 . S
Zn24 O25 1.949 . S
Zn24 O31 1.919 . S
Zn24 O36 1.924 . S
O25 Zn24 1.949 . S
O25 Zn26 1.923 . S
O25 Zn27 1.950 . S
O25 Zn28 1.945 . S
Zn26 O25 1.923 . S
Zn26 O29 1.933 . S
Zn26 O32 1.941 . S
Zn26 O33 1.965 . S
Zn27 O25 1.950 . S
Zn27 O34 1.938 . S
Zn27 O35 1.906 . S
Zn27 O45 1.953 . S
Zn28 O25 1.945 . S
Zn28 O30 1.932 . S
Zn28 O37 1.977 . S
Zn28 O38 1.910 . S
O29 Zn26 1.933 . S
O29 C40 1.226 . S
O30 Zn28 1.932 . S
O30 C40 1.307 . S
O31 Zn24 1.919 . S
O31 C42 1.253 . S
O32 Zn26 1.941 . S
O32 C42 1.283 . S
O33 Zn26 1.965 . S
O33 C41 1.303 . S
O34 Zn27 1.938 . S
O34 C41 1.247 . S
O35 Zn27 1.906 . S
O35 C43 1.304 . S
O36 Zn24 1.924 . S
O36 C44 1.311 . S
O37 Zn28 1.977 . S
O37 C43 1.272 . S
O38 Zn28 1.910 . S
O38 C44 1.231 . S
C39 O23 1.225 . S
C39 O45 1.298 . S
C40 O29 1.226 . S
C40 O30 1.307 . S
C41 O33 1.303 . S
C41 O34 1.247 . S
C42 O31 1.253 . S
C42 O32 1.283 . S
C43 O35 1.304 . S
C43 O37 1.272 . S
C44 O36 1.311 . S
C44 O38 1.231 . S
O45 Zn27 1.953 . S
O45 C39 1.298 . S
O46 Zn47 1.953 . S
O46 C62 1.225 . S
Zn47 O46 1.953 . S
Zn47 O48 1.949 . S
Zn47 O54 1.919 . S
Zn47 O59 1.924 . S
O48 Zn47 1.949 . S
O48 Zn49 1.923 . S
O48 Zn50 1.950 . S
O48 Zn51 1.945 . S
Zn49 O48 1.923 . S
Zn49 O52 1.933 . S
Zn49 O55 1.941 . S
Zn49 O56 1.985 . S
Zn50 O48 1.950 . S
Zn50 O57 1.938 1_655 S
Zn50 O58 1.906 1_655 S
Zn50 O68 1.953 . S
Zn51 O48 1.945 . S
Zn51 O53 1.932 . S
Zn51 O60 1.977 . S
Zn51 O61 1.910 . S
O52 Zn49 1.933 . S
O52 C63 1.226 . S
O53 Zn51 1.932 . S
O53 C63 1.307 . S
O54 Zn47 1.919 . S
O54 C65 1.253 . S
O55 Zn49 1.941 . S
O55 C65 1.283 . S
O56 Zn49 1.985 . S
O56 C64 1.292 1_655 S
O57 Zn50 1.938 1_455 S
O57 C64 1.247 . S
O58 Zn50 1.906 1_455 S
O58 C66 1.304 . S
O59 Zn47 1.924 . S
O59 C67 1.311 . S
O60 Zn51 1.977 . S
O60 C66 1.272 1_655 S
O61 Zn51 1.910 . S
O61 C67 1.231 . S
C62 O46 1.225 . S
C62 O68 1.298 . S
C63 O52 1.226 . S
C63 O53 1.307 . S
C64 O56 1.292 1_455 S
C64 O57 1.247 . S
C65 O54 1.253 . S
C65 O55 1.283 . S
C66 O58 1.304 . S
C66 O60 1.272 1_455 S
C67 O59 1.311 . S
C67 O61 1.231 . S
O68 Zn50 1.953 . S
O68 C62 1.298 . S
O69 Zn70 1.953 . S
O69 C85 1.225 . S
Zn70 O69 1.953 . S
Zn70 O71 1.949 . S
Zn70 O77 1.919 . S
Zn70 O82 1.924 . S
O71 Zn70 1.949 . S
O71 Zn72 1.923 . S
O71 Zn73 1.950 . S
O71 Zn74 1.945 . S
Zn72 O71 1.923 . S
Zn72 O75 1.933 . S
Zn72 O78 1.941 . S
Zn72 O79 1.965 . S
Zn73 O71 1.950 . S
Zn73 O80 1.938 . S
Zn73 O81 1.906 . S
Zn73 O91 1.953 . S
Zn74 O71 1.945 . S
Zn74 O76 1.932 . S
Zn74 O83 1.977 . S
Zn74 O84 1.910 . S
O75 Zn72 1.933 . S
O75 C86 1.226 . S
O76 Zn74 1.932 . S
O76 C86 1.307 . S
O77 Zn70 1.919 . S
O77 C88 1.253 . S
O78 Zn72 1.941 . S
O78 C88 1.283 . S
O79 Zn72 1.965 . S
O79 C87 1.303 . S
O80 Zn73 1.938 . S
O80 C87 1.247 . S
O81 Zn73 1.906 . S
O81 C89 1.304 . S
O82 Zn70 1.924 . S
O82 C90 1.311 . S
O83 Zn74 1.977 . S
O83 C89 1.272 . S
O84 Zn74 1.910 . S
O84 C90 1.231 . S
C85 O69 1.225 . S
C85 O91 1.298 . S
C86 O75 1.226 . S
C86 O76 1.307 . S
C87 O79 1.303 . S
C87 O80 1.247 . S
C88 O77 1.253 . S
C88 O78 1.283 . S
C89 O81 1.304 . S
C89 O83 1.272 . S
C90 O82 1.311 . S
C90 O84 1.231 . S
O91 Zn73 1.953 . S
O91 C85 1.298 . S
O92 Zn93 1.953 . S
O92 C108 1.225 . S
Zn93 O92 1.953 . S
Zn93 O94 1.949 . S
Zn93 O100 1.919 . S
Zn93 O105 1.924 . S
O94 Zn93 1.949 . S
O94 Zn95 1.923 . S
O94 Zn96 1.950 . S
O94 Zn97 1.945 . S
Zn95 O94 1.923 . S
Zn95 O98 1.933 . S
Zn95 O101 1.941 . S
Zn95 O102 1.965 . S
Zn96 O94 1.950 . S
Zn96 O103 1.938 . S
Zn96 O104 1.906 . S
Zn96 O114 1.953 . S
Zn97 O94 1.945 . S
Zn97 O99 1.932 . S
Zn97 O106 1.977 . S
Zn97 O107 1.910 . S
O98 Zn95 1.933 . S
O98 C109 1.226 . S
O99 Zn97 1.932 . S
O99 C109 1.307 . S
O100 Zn93 1.919 . S
O100 C111 1.253 . S
O101 Zn95 1.941 . S
O101 C111 1.283 . S
O102 Zn95 1.965 . S
O102 C110 1.303 . S
O103 Zn96 1.938 . S
O103 C110 1.247 . S
O104 Zn96 1.906 . S
O104 C112 1.304 . S
O105 Zn93 1.924 . S
O105 C113 1.311 . S
O106 Zn97 1.977 . S
O106 C112 1.272 . S
O107 Zn97 1.910 . S
O107 C113 1.231 . S
C108 O92 1.225 . S
C108 O114 1.298 . S
C109 O98 1.226 . S
C109 O99 1.307 . S
C110 O102 1.303 . S
C110 O103 1.247 . S
C111 O100 1.253 . S
C111 O101 1.283 . S
C112 O104 1.304 . S
C112 O106 1.272 . S
C113 O105 1.311 . S
C113 O107 1.231 . S
O114 Zn96 1.953 . S
O114 C108 1.298 . S
O115 Zn116 1.953 . S
O115 C131 1.225 . S
Zn116 O115 1.953 . S
Zn116 O117 1.949 . S
Zn116 O123 1.919 . S
Zn116 O128 1.924 . S
O117 Zn116 1.949 . S
O117 Zn118 1.923 . S
O117 Zn119 1.950 . S
O117 Zn120 1.945 . S
Zn118 O117 1.923 . S
Zn118 O121 1.933 . S
Zn118 O124 1.941 . S
Zn118 O125 1.970 . S
Zn119 O117 1.950 . S
Zn119 O126 1.938 1_545 S
Zn119 O127 1.906 1_545 S
Zn119 O137 1.953 . S
Zn120 O117 1.945 . S
Zn120 O122 1.932 . S
Zn120 O129 1.977 . S
Zn120 O130 1.910 . S
O121 Zn118 1.933 . S
O121 C132 1.226 . S
O122 Zn120 1.932 . S
O122 C132 1.307 . S
O123 Zn116 1.919 . S
O123 C134 1.253 . S
O124 Zn118 1.941 . S
O124 C134 1.283 . S
O125 Zn118 1.970 . S
O125 C133 1.301 1_545 S
O126 Zn119 1.938 1_565 S
O126 C133 1.247 . S
O127 Zn119 1.906 1_565 S
O127 C135 1.304 . S
O128 Zn116 1.924 . S
O128 C136 1.311 . S
O129 Zn120 1.977 . S
O129 C135 1.272 1_545 S
O130 Zn120 1.910 . S
O130 C136 1.231 . S
C131 O115 1.225 . S
C131 O137 1.298 . S
C132 O121 1.226 . S
C132 O122 1.307 . S
C133 O125 1.301 1_565 S
C133 O126 1.247 . S
C134 O123 1.253 . S
C134 O124 1.283 . S
C135 O127 1.304 . S
C135 O129 1.272 1_565 S
C136 O128 1.311 . S
C136 O130 1.231 . S
O137 Zn119 1.953 . S
O137 C131 1.298 . S
O138 Zn139 1.953 . S
O138 C154 1.225 . S
Zn139 O138 1.953 . S
Zn139 O140 1.949 . S
Zn139 O146 1.919 . S
Zn139 O151 1.924 . S
O140 Zn139 1.949 . S
O140 Zn141 1.923 . S
O140 Zn142 1.950 . S
O140 Zn143 1.945 . S
Zn141 O140 1.923 . S
Zn141 O144 1.933 . S
Zn141 O147 1.941 . S
Zn141 O148 1.965 . S
Zn142 O140 1.950 . S
Zn142 O149 1.938 . S
Zn142 O150 1.906 . S
Zn142 O160 1.953 . S
Zn143 O140 1.945 . S
Zn143 O145 1.932 . S
Zn143 O152 1.977 . S
Zn143 O153 1.910 . S
O144 Zn141 1.933 . S
O144 C155 1.226 . S
O145 Zn143 1.932 . S
O145 C155 1.307 . S
O146 Zn139 1.919 . S
O146 C157 1.253 . S
O147 Zn141 1.941 . S
O147 C157 1.283 . S
O148 Zn141 1.965 . S
O148 C156 1.303 . S
O149 Zn142 1.938 . S
O149 C156 1.247 . S
O150 Zn142 1.906 . S
O150 C158 1.304 . S
O151 Zn139 1.924 . S
O151 C159 1.311 . S
O152 Zn143 1.977 . S
O152 C158 1.272 . S
O153 Zn143 1.910 . S
O153 C159 1.231 . S
C154 O138 1.225 . S
C154 O160 1.298 . S
C155 O144 1.226 . S
C155 O145 1.307 . S
C156 O148 1.303 . S
C156 O149 1.247 . S
C157 O146 1.253 . S
C157 O147 1.283 . S
C158 O150 1.304 . S
C158 O152 1.272 . S
C159 O151 1.311 . S
C159 O153 1.231 . S
O160 Zn142 1.953 . S
O160 C154 1.298 . S
O161 Zn162 1.953 . S
O161 C177 1.225 . S
Zn162 O161 1.953 . S
Zn162 O163 1.949 . S
Zn162 O169 1.919 . S
Zn162 O174 1.924 . S
O163 Zn162 1.949 . S
O163 Zn164 1.923 . S
O163 Zn165 1.950 . S
O163 Zn166 1.945 . S
Zn164 O163 1.923 . S
Zn164 O167 1.933 . S
Zn164 O170 1.941 . S
Zn164 O171 1.965 1_565 S
Zn165 O163 1.950 . S
Zn165 O172 1.938 1_565 S
Zn165 O173 1.906 1_565 S
Zn165 O183 1.953 . S
Zn166 O163 1.945 . S
Zn166 O168 1.932 . S
Zn166 O175 1.977 . S
Zn166 O176 1.910 . S
O167 Zn164 1.933 . S
O167 C178 1.226 . S
O168 Zn166 1.932 . S
O168 C178 1.307 . S
O169 Zn162 1.919 . S
O169 C180 1.253 . S
O170 Zn164 1.941 . S
O170 C180 1.283 . S
O171 Zn164 1.965 1_545 S
O171 C179 1.303 . S
O172 Zn165 1.938 1_545 S
O172 C179 1.247 . S
O173 Zn165 1.906 1_545 S
O173 C181 1.304 . S
O174 Zn162 1.924 . S
O174 C182 1.311 . S
O175 Zn166 1.977 . S
O175 C181 1.272 1_565 S
O176 Zn166 1.910 . S
O176 C182 1.231 . S
C177 O161 1.225 . S
C177 O183 1.298 . S
C178 O167 1.226 . S
C178 O168 1.307 . S
C179 O171 1.303 . S
C179 O172 1.247 . S
C180 O169 1.253 . S
C180 O170 1.283 . S
C181 O173 1.304 . S
C181 O175 1.272 1_545 S
C182 O174 1.311 . S
C182 O176 1.231 . S
O183 Zn165 1.953 . S
O183 C177 1.298 . S
H184 C192 0.950 1_455 S
H185 C197 0.950 . S
H186 C194 0.950 . S
H187 C196 0.950 . S
H188 C198 0.950 . S
H189 C200 0.950 . S
H190 C202 0.950 . S
H191 C203 0.950 . S
C192 H184 0.950 1_655 S
C192 C193 1.386 . S
C192 C194 1.391 . S
C193 C192 1.386 . S
C193 C197 1.393 . S
C194 H186 0.950 . S
C194 C192 1.391 . S
C194 C195 1.400 . S
C195 C194 1.400 . S
C195 C196 1.398 . S
C195 C201 1.491 . S
C196 H187 0.950 . S
C196 C195 1.398 . S
C196 C197 1.391 . S
C197 H185 0.950 . S
C197 C193 1.393 . S
C197 C196 1.391 . S
C198 H188 0.950 . S
C198 C199 1.386 . S
C198 C200 1.391 . S
C199 C198 1.386 . S
C199 C203 1.393 . S
C200 H189 0.950 . S
C200 C198 1.391 . S
C200 C201 1.400 . S
C201 C195 1.491 . S
C201 C200 1.400 . S
C201 C202 1.398 . S
C202 H190 0.950 . S
C202 C201 1.398 . S
C202 C203 1.391 . S
C203 H191 0.950 . S
C203 C199 1.393 . S
C203 C202 1.391 . S
H204 C212 0.950 . S
H205 C217 0.950 . S
H206 C214 0.950 . S
H207 C216 0.950 . S
H208 C218 0.950 . S
H209 C220 0.950 . S
H210 C222 0.950 . S
H211 C223 0.950 . S
C212 H204 0.950 . S
C212 C213 1.386 . S
C212 C214 1.391 . S
C213 C212 1.386 . S
C213 C217 1.393 . S
C214 H206 0.950 . S
C214 C212 1.391 . S
C214 C215 1.400 . S
C215 C214 1.400 . S
C215 C216 1.398 . S
C215 C221 1.491 . S
C216 H207 0.950 . S
C216 C215 1.398 . S
C216 C217 1.391 . S
C217 H205 0.950 . S
C217 C213 1.393 . S
C217 C216 1.391 . S
C218 H208 0.950 . S
C218 C219 1.386 . S
C218 C220 1.391 . S
C219 C218 1.386 . S
C219 C223 1.393 . S
C220 H209 0.950 . S
C220 C218 1.391 . S
C220 C221 1.400 . S
C221 C215 1.491 . S
C221 C220 1.400 . S
C221 C222 1.398 . S
C222 H210 0.950 . S
C222 C221 1.398 . S
C222 C223 1.391 . S
C223 H211 0.950 . S
C223 C219 1.393 . S
C223 C222 1.391 . S
H224 C232 0.950 . S
H225 C237 0.950 . S
H226 C234 0.950 . S
H227 C236 0.950 . S
H228 C238 0.950 1_545 S
H229 C240 0.950 . S
H230 C242 0.950 . S
H231 C243 0.950 . S
C232 H224 0.950 . S
C232 C233 1.386 . S
C232 C234 1.391 . S
C233 C232 1.386 . S
C233 C237 1.393 . S
C234 H226 0.950 . S
C234 C232 1.391 . S
C234 C235 1.400 . S
C235 C234 1.400 . S
C235 C236 1.398 . S
C235 C241 1.491 . S
C236 H227 0.950 . S
C236 C235 1.398 . S
C236 C237 1.391 . S
C237 H225 0.950 . S
C237 C233 1.393 . S
C237 C236 1.391 . S
C238 H228 0.950 1_565 S
C238 C239 1.386 . S
C238 C240 1.391 . S
C239 C238 1.386 . S
C239 C243 1.393 . S
C240 H229 0.950 . S
C240 C238 1.391 . S
C240 C241 1.400 . S
C241 C235 1.491 . S
C241 C240 1.400 . S
C241 C242 1.398 . S
C242 H230 0.950 . S
C242 C241 1.398 . S
C242 C243 1.391 . S
C243 H231 0.950 . S
C243 C239 1.393 . S
C243 C242 1.391 . S
H244 C252 0.950 . S
H245 C257 0.950 . S
H246 C254 0.950 . S
H247 C256 0.950 . S
H248 C258 0.950 . S
H249 C260 0.950 . S
H250 C262 0.950 . S
H251 C263 0.950 . S
C252 H244 0.950 . S
C252 C253 1.386 . S
C252 C254 1.391 . S
C253 C252 1.386 . S
C253 C257 1.393 . S
C254 H246 0.950 . S
C254 C252 1.391 . S
C254 C255 1.400 . S
C255 C254 1.400 . S
C255 C256 1.398 . S
C255 C261 1.491 1_554 S
C256 H247 0.950 . S
C256 C255 1.398 . S
C256 C257 1.391 . S
C257 H245 0.950 . S
C257 C253 1.393 . S
C257 C256 1.391 . S
C258 H248 0.950 . S
C258 C259 1.386 . S
C258 C260 1.391 . S
C259 C258 1.386 . S
C259 C263 1.393 . S
C260 H249 0.950 . S
C260 C258 1.391 . S
C260 C261 1.400 . S
C261 C255 1.491 1_556 S
C261 C260 1.400 . S
C261 C262 1.398 . S
C262 H250 0.950 . S
C262 C261 1.398 . S
C262 C263 1.391 . S
C263 H251 0.950 . S
C263 C259 1.393 . S
C263 C262 1.391 . S
H264 C272 0.950 . S
H265 C277 0.950 . S
H266 C274 0.950 . S
H267 C276 0.950 . S
H268 C278 0.950 . S
H269 C280 0.950 . S
H270 C282 0.950 . S
H271 C283 0.950 . S
C272 H264 0.950 . S
C272 C273 1.386 . S
C272 C274 1.391 . S
C273 C272 1.386 . S
C273 C277 1.393 . S
C274 H266 0.950 . S
C274 C272 1.391 . S
C274 C275 1.400 . S
C275 C274 1.400 . S
C275 C276 1.398 . S
C275 C281 1.491 . S
C276 H267 0.950 . S
C276 C275 1.398 . S
C276 C277 1.391 . S
C277 H265 0.950 . S
C277 C273 1.393 . S
C277 C276 1.391 . S
C278 H268 0.950 . S
C278 C279 1.386 . S
C278 C280 1.391 . S
C279 C278 1.386 . S
C279 C283 1.393 . S
C280 H269 0.950 . S
C280 C278 1.391 . S
C280 C281 1.400 . S
C281 C275 1.491 . S
C281 C280 1.400 . S
C281 C282 1.398 . S
C282 H270 0.950 . S
C282 C281 1.398 . S
C282 C283 1.391 . S
C283 H271 0.950 . S
C283 C279 1.393 . S
C283 C282 1.391 . S
H284 C292 0.950 . S
H285 C297 0.950 . S
H286 C294 0.950 . S
H287 C296 0.950 . S
H288 C298 0.950 . S
H289 C300 0.950 . S
H290 C302 0.950 . S
H291 C303 0.950 . S
C292 H284 0.950 . S
C292 C293 1.386 . S
C292 C294 1.391 . S
C293 C292 1.386 . S
C293 C297 1.393 . S
C294 H286 0.950 . S
C294 C292 1.391 . S
C294 C295 1.400 . S
C295 C294 1.400 . S
C295 C296 1.398 . S
C295 C301 1.491 . S
C296 H287 0.950 . S
C296 C295 1.398 . S
C296 C297 1.391 . S
C297 H285 0.950 . S
C297 C293 1.393 . S
C297 C296 1.391 . S
C298 H288 0.950 . S
C298 C299 1.386 . S
C298 C300 1.391 . S
C299 C298 1.386 . S
C299 C303 1.393 . S
C300 H289 0.950 . S
C300 C298 1.391 . S
C300 C301 1.400 . S
C301 C295 1.491 . S
C301 C300 1.400 . S
C301 C302 1.398 . S
C302 H290 0.950 . S
C302 C301 1.398 . S
C302 C303 1.391 . S
C303 H291 0.950 . S
C303 C299 1.393 . S
C303 C302 1.391 . S
H304 C312 0.950 . S
H305 C317 0.950 . S
H306 C314 0.950 . S
H307 C316 0.950 . S
H308 C318 0.950 . S
H309 C320 0.950 . S
H310 C322 0.950 . S
H311 C323 0.950 . S
C312 H304 0.950 . S
C312 C313 1.386 . S
C312 C314 1.391 . S
C313 C312 1.386 . S
C313 C317 1.393 . S
C314 H306 0.950 . S
C314 C312 1.391 . S
C314 C315 1.400 . S
C315 C314 1.400 . S
C315 C316 1.398 . S
C315 C321 1.491 . S
C316 H307 0.950 . S
C316 C315 1.398 . S
C316 C317 1.391 . S
C317 H305 0.950 . S
C317 C313 1.393 . S
C317 C316 1.391 . S
C318 H308 0.950 . S
C318 C319 1.386 . S
C318 C320 1.391 . S
C319 C318 1.386 . S
C319 C323 1.393 . S
C320 H309 0.950 . S
C320 C318 1.391 . S
C320 C321 1.400 . S
C321 C315 1.491 . S
C321 C320 1.400 . S
C321 C322 1.398 . S
C322 H310 0.950 . S
C322 C321 1.398 . S
C322 C323 1.391 . S
C323 H311 0.950 . S
C323 C319 1.393 . S
C323 C322 1.391 . S
H324 C332 0.950 . S
H325 C337 0.950 . S
H326 C334 0.950 . S
H327 C336 0.950 . S
H328 C338 0.950 . S
H329 C340 0.950 . S
H330 C342 0.950 . S
H331 C343 0.950 . S
C332 H324 0.950 . S
C332 C333 1.386 . S
C332 C334 1.391 . S
C333 C332 1.386 . S
C333 C337 1.393 . S
C334 H326 0.950 . S
C334 C332 1.391 . S
C334 C335 1.400 . S
C335 C334 1.400 . S
C335 C336 1.398 . S
C335 C341 1.491 . S
C336 H327 0.950 . S
C336 C335 1.398 . S
C336 C337 1.391 . S
C337 H325 0.950 . S
C337 C333 1.393 . S
C337 C336 1.391 . S
C338 H328 0.950 . S
C338 C339 1.386 . S
C338 C340 1.391 1_556 S
C339 C338 1.386 . S
C339 C343 1.393 . S
C340 H329 0.950 . S
C340 C338 1.391 1_554 S
C340 C341 1.400 . S
C341 C335 1.491 . S
C341 C340 1.400 . S
C341 C342 1.398 . S
C342 H330 0.950 . S
C342 C341 1.398 . S
C342 C343 1.391 1_554 S
C343 H331 0.950 . S
C343 C339 1.393 . S
C343 C342 1.391 1_556 S
H344 C352 0.950 . S
H345 C357 0.950 . S
H346 C354 0.950 . S
H347 C356 0.950 . S
H348 C358 0.950 1_565 S
H349 C360 0.950 . S
H350 C362 0.950 . S
H351 C363 0.950 . S
C352 H344 0.950 . S
C352 C353 1.386 . S
C352 C354 1.391 . S
C353 C352 1.386 . S
C353 C357 1.393 . S
C354 H346 0.950 . S
C354 C352 1.391 . S
C354 C355 1.400 . S
C355 C354 1.400 . S
C355 C356 1.398 . S
C355 C361 1.491 . S
C356 H347 0.950 . S
C356 C355 1.398 . S
C356 C357 1.391 . S
C357 H345 0.950 . S
C357 C353 1.393 . S
C357 C356 1.391 . S
C358 H348 0.950 1_545 S
C358 C359 1.386 . S
C358 C360 1.391 . S
C359 C358 1.386 . S
C359 C363 1.393 . S
C360 H349 0.950 . S
C360 C358 1.391 . S
C360 C361 1.400 . S
C361 C355 1.491 . S
C361 C360 1.400 . S
C361 C362 1.398 . S
C362 H350 0.950 . S
C362 C361 1.398 . S
C362 C363 1.391 . S
C363 H351 0.950 . S
C363 C359 1.393 . S
C363 C362 1.391 . S
H364 C372 0.950 . S
H365 C377 0.950 . S
H366 C374 0.950 . S
H367 C376 0.950 . S
H368 C378 0.950 . S
H369 C380 0.950 . S
H370 C382 0.950 . S
H371 C383 0.950 . S
C372 H364 0.950 . S
C372 C373 1.386 . S
C372 C374 1.391 . S
C373 C372 1.386 . S
C373 C377 1.393 . S
C374 H366 0.950 . S
C374 C372 1.391 . S
C374 C375 1.400 . S
C375 C374 1.400 . S
C375 C376 1.398 . S
C375 C381 1.491 . S
C376 H367 0.950 . S
C376 C375 1.398 . S
C376 C377 1.391 . S
C377 H365 0.950 . S
C377 C373 1.393 . S
C377 C376 1.391 . S
C378 H368 0.950 . S
C378 C379 1.386 . S
C378 C380 1.391 . S
C379 C378 1.386 . S
C379 C383 1.393 . S
C380 H369 0.950 . S
C380 C378 1.391 . S
C380 C381 1.400 . S
C381 C375 1.491 . S
C381 C380 1.400 . S
C381 C382 1.398 . S
C382 H370 0.950 . S
C382 C381 1.398 . S
C382 C383 1.391 . S
C383 H371 0.950 . S
C383 C379 1.393 . S
C383 C382 1.391 . S
H384 C392 0.950 . S
H385 C397 0.950 . S
H386 C394 0.950 . S
H387 C396 0.950 . S
H388 C398 0.950 . S
H389 C400 0.950 . S
H390 C402 0.950 . S
H391 C403 0.950 . S
C392 H384 0.950 . S
C392 C393 1.386 . S
C392 C394 1.391 1_554 S
C393 C392 1.386 . S
C393 C397 1.393 . S
C394 H386 0.950 . S
C394 C392 1.391 1_556 S
C394 C395 1.400 . S
C395 C394 1.400 . S
C395 C396 1.398 . S
C395 C401 1.491 . S
C396 H387 0.950 . S
C396 C395 1.398 . S
C396 C397 1.391 1_556 S
C397 H385 0.950 . S
C397 C393 1.393 . S
C397 C396 1.391 1_554 S
C398 H388 0.950 . S
C398 C399 1.386 . S
C398 C400 1.391 . S
C399 C398 1.386 . S
C399 C403 1.393 . S
C400 H389 0.950 . S
C400 C398 1.391 . S
C400 C401 1.400 . S
C401 C395 1.491 . S
C401 C400 1.400 . S
C401 C402 1.398 . S
C402 H390 0.950 . S
C402 C401 1.398 . S
C402 C403 1.391 . S
C403 H391 0.950 . S
C403 C399 1.393 . S
C403 C402 1.391 . S
H404 C412 0.950 . S
H405 C417 0.950 . S
H406 C414 0.950 . S
H407 C416 0.950 . S
H408 C418 0.950 . S
H409 C420 0.950 . S
H410 C422 0.950 . S
H411 C423 0.950 . S
C412 H404 0.950 . S
C412 C413 1.386 . S
C412 C414 1.391 . S
C413 C412 1.386 . S
C413 C417 1.393 . S
C414 H406 0.950 . S
C414 C412 1.391 . S
C414 C415 1.400 . S
C415 C414 1.400 . S
C415 C416 1.398 . S
C415 C421 1.491 . S
C416 H407 0.950 . S
C416 C415 1.398 . S
C416 C417 1.391 . S
C417 H405 0.950 . S
C417 C413 1.393 . S
C417 C416 1.391 . S
C418 H408 0.950 . S
C418 C419 1.386 . S
C418 C420 1.391 . S
C419 C418 1.386 . S
C419 C423 1.393 . S
C420 H409 0.950 . S
C420 C418 1.391 . S
C420 C421 1.400 . S
C421 C415 1.491 . S
C421 C420 1.400 . S
C421 C422 1.398 . S
C422 H410 0.950 . S
C422 C421 1.398 . S
C422 C423 1.391 . S
C423 H411 0.950 . S
C423 C419 1.393 . S
C423 C422 1.391 . S
H424 C432 0.950 . S
H425 C437 0.950 . S
H426 C434 0.950 . S
H427 C436 0.950 . S
H428 C438 0.950 . S
H429 C440 0.950 . S
H430 C442 0.950 . S
H431 C443 0.950 . S
C432 H424 0.950 . S
C432 C433 1.386 . S
C432 C434 1.391 . S
C433 C432 1.386 . S
C433 C437 1.393 . S
C434 H426 0.950 . S
C434 C432 1.391 . S
C434 C435 1.400 . S
C435 C434 1.400 . S
C435 C436 1.398 . S
C435 C441 1.491 1_556 S
C436 H427 0.950 . S
C436 C435 1.398 . S
C436 C437 1.391 . S
C437 H425 0.950 . S
C437 C433 1.393 . S
C437 C436 1.391 . S
C438 H428 0.950 . S
C438 C439 1.386 . S
C438 C440 1.391 . S
C439 C438 1.386 . S
C439 C443 1.393 . S
C440 H429 0.950 . S
C440 C438 1.391 . S
C440 C441 1.400 . S
C441 C435 1.491 1_554 S
C441 C440 1.400 . S
C441 C442 1.398 . S
C442 H430 0.950 . S
C442 C441 1.398 . S
C442 C443 1.391 . S
C443 H431 0.950 . S
C443 C439 1.393 . S
C443 C442 1.391 . S
H444 C452 0.950 . S
H445 C457 0.950 . S
H446 C454 0.950 . S
H447 C456 0.950 . S
H448 C458 0.950 . S
H449 C460 0.950 . S
H450 C462 0.950 . S
H451 C463 0.950 . S
C452 H444 0.950 . S
C452 C453 1.386 . S
C452 C454 1.391 . S
C453 C452 1.386 . S
C453 C457 1.393 . S
C454 H446 0.950 . S
C454 C452 1.391 . S
C454 C455 1.400 . S
C455 C454 1.400 . S
C455 C456 1.398 . S
C455 C461 1.491 . S
C456 H447 0.950 . S
C456 C455 1.398 . S
C456 C457 1.391 . S
C457 H445 0.950 . S
C457 C453 1.393 . S
C457 C456 1.391 . S
C458 H448 0.950 . S
C458 C459 1.386 . S
C458 C460 1.391 . S
C459 C458 1.386 . S
C459 C463 1.393 . S
C460 H449 0.950 . S
C460 C458 1.391 . S
C460 C461 1.400 . S
C461 C455 1.491 . S
C461 C460 1.400 . S
C461 C462 1.398 . S
C462 H450 0.950 . S
C462 C461 1.398 . S
C462 C463 1.391 . S
C463 H451 0.950 . S
C463 C459 1.393 . S
C463 C462 1.391 . S
H464 C472 0.950 . S
H465 C477 0.950 . S
H466 C474 0.950 . S
H467 C476 0.950 . S
H468 C478 0.950 . S
H469 C480 0.950 . S
H470 C482 0.950 . S
H471 C483 0.950 . S
C472 H464 0.950 . S
C472 C473 1.386 . S
C472 C474 1.391 . S
C473 C472 1.386 . S
C473 C477 1.393 . S
C474 H466 0.950 . S
C474 C472 1.391 . S
C474 C475 1.400 . S
C475 C474 1.400 . S
C475 C476 1.398 . S
C475 C481 1.491 . S
C476 H467 0.950 . S
C476 C475 1.398 . S
C476 C477 1.391 . S
C477 H465 0.950 . S
C477 C473 1.393 . S
C477 C476 1.391 . S
C478 H468 0.950 . S
C478 C479 1.386 . S
C478 C480 1.391 . S
C479 C478 1.386 . S
C479 C483 1.393 . S
C480 H469 0.950 . S
C480 C478 1.391 . S
C480 C481 1.400 . S
C481 C475 1.491 . S
C481 C480 1.400 . S
C481 C482 1.398 . S
C482 H470 0.950 . S
C482 C481 1.398 . S
C482 C483 1.391 . S
C483 H471 0.950 . S
C483 C479 1.393 . S
C483 C482 1.391 . S
H484 C492 0.950 . S
H485 C497 0.950 . S
H486 C494 0.950 . S
H487 C496 0.950 . S
H488 C498 0.950 . S
H489 C500 0.950 . S
H490 C502 0.950 . S
H491 C503 0.950 . S
C492 H484 0.950 . S
C492 C493 1.386 . S
C492 C494 1.391 . S
C493 C492 1.386 . S
C493 C497 1.393 . S
C494 H486 0.950 . S
C494 C492 1.391 . S
C494 C495 1.400 . S
C495 C494 1.400 . S
C495 C496 1.398 . S
C495 C501 1.491 . S
C496 H487 0.950 . S
C496 C495 1.398 . S
C496 C497 1.391 . S
C497 H485 0.950 . S
C497 C493 1.393 . S
C497 C496 1.391 . S
C498 H488 0.950 . S
C498 C499 1.386 . S
C498 C500 1.391 . S
C499 C498 1.386 . S
C499 C503 1.393 . S
C500 H489 0.950 . S
C500 C498 1.391 . S
C500 C501 1.400 . S
C501 C495 1.491 . S
C501 C500 1.400 . S
C501 C502 1.398 . S
C502 H490 0.950 . S
C502 C501 1.398 . S
C502 C503 1.391 . S
C503 H491 0.950 . S
C503 C499 1.393 . S
C503 C502 1.391 . S
H504 C512 0.950 . S
H505 C517 0.950 . S
H506 C514 0.950 . S
H507 C516 0.950 . S
H508 C518 0.950 . S
H509 C520 0.950 . S
H510 C522 0.950 . S
H511 C523 0.950 . S
C512 H504 0.950 . S
C512 C513 1.386 . S
C512 C514 1.391 . S
C513 C512 1.386 . S
C513 C517 1.393 . S
C514 H506 0.950 . S
C514 C512 1.391 . S
C514 C515 1.400 . S
C515 C514 1.400 . S
C515 C516 1.398 . S
C515 C521 1.491 1_545 S
C516 H507 0.950 . S
C516 C515 1.398 . S
C516 C517 1.391 . S
C517 H505 0.950 . S
C517 C513 1.393 . S
C517 C516 1.391 . S
C518 H508 0.950 . S
C518 C519 1.386 . S
C518 C520 1.391 . S
C519 C518 1.386 . S
C519 C523 1.393 . S
C520 H509 0.950 . S
C520 C518 1.391 . S
C520 C521 1.400 . S
C521 C515 1.491 1_565 S
C521 C520 1.400 . S
C521 C522 1.398 . S
C522 H510 0.950 . S
C522 C521 1.398 . S
C522 C523 1.391 . S
C523 H511 0.950 . S
C523 C519 1.393 . S
C523 C522 1.391 . S
H524 C532 0.950 . S
H525 C537 0.950 . S
H526 C534 0.950 . S
H527 C536 0.950 . S
H528 C538 0.950 . S
H529 C540 0.950 . S
H530 C542 0.950 . S
H531 C543 0.950 . S
C532 H524 0.950 . S
C532 C533 1.386 . S
C532 C534 1.391 . S
C533 C532 1.386 . S
C533 C537 1.393 . S
C534 H526 0.950 . S
C534 C532 1.391 . S
C534 C535 1.400 . S
C535 C534 1.400 . S
C535 C536 1.398 . S
C535 C541 1.491 . S
C536 H527 0.950 . S
C536 C535 1.398 . S
C536 C537 1.391 . S
C537 H525 0.950 . S
C537 C533 1.393 . S
C537 C536 1.391 . S
C538 H528 0.950 . S
C538 C539 1.386 . S
C538 C540 1.391 . S
C539 C538 1.386 . S
C539 C543 1.393 . S
C540 H529 0.950 . S
C540 C538 1.391 . S
C540 C541 1.400 . S
C541 C535 1.491 . S
C541 C540 1.400 . S
C541 C542 1.398 . S
C542 H530 0.950 . S
C542 C541 1.398 . S
C542 C543 1.391 . S
C543 H531 0.950 . S
C543 C539 1.393 . S
C543 C542 1.391 . S
H544 C552 0.950 . S
H545 C557 0.950 . S
H546 C554 0.950 . S
H547 C556 0.950 1_565 S
H548 C558 0.950 . S
H549 C560 0.950 . S
H550 C562 0.950 1_545 S
H551 C563 0.950 . S
C552 H544 0.950 . S
C552 C553 1.386 . S
C552 C554 1.391 . S
C553 C552 1.386 . S
C553 C557 1.393 . S
C554 H546 0.950 . S
C554 C552 1.391 . S
C554 C555 1.400 . S
C555 C554 1.400 . S
C555 C556 1.398 . S
C555 C561 1.491 1_545 S
C556 H547 0.950 1_545 S
C556 C555 1.398 . S
C556 C557 1.391 . S
C557 H545 0.950 . S
C557 C553 1.393 . S
C557 C556 1.391 . S
C558 H548 0.950 . S
C558 C559 1.386 . S
C558 C560 1.391 . S
C559 C558 1.386 . S
C559 C563 1.393 . S
C560 H549 0.950 . S
C560 C558 1.391 . S
C560 C561 1.400 . S
C561 C555 1.491 1_565 S
C561 C560 1.400 . S
C561 C562 1.398 . S
C562 H550 0.950 1_565 S
C562 C561 1.398 . S
C562 C563 1.391 . S
C563 H551 0.950 . S
C563 C559 1.393 . S
C563 C562 1.391 . S
H564 C572 0.950 . S
H565 C577 0.950 . S
H566 C574 0.950 . S
H567 C576 0.950 . S
H568 C578 0.950 . S
H569 C580 0.950 . S
H570 C582 0.950 . S
H571 C583 0.950 . S
C572 H564 0.950 . S
C572 C573 1.386 . S
C572 C574 1.391 . S
C573 C572 1.386 . S
C573 C577 1.393 . S
C574 H566 0.950 . S
C574 C572 1.391 . S
C574 C575 1.400 . S
C575 C574 1.400 . S
C575 C576 1.398 . S
C575 C581 1.491 . S
C576 H567 0.950 . S
C576 C575 1.398 . S
C576 C577 1.391 . S
C577 H565 0.950 . S
C577 C573 1.393 . S
C577 C576 1.391 . S
C578 H568 0.950 . S
C578 C579 1.386 . S
C578 C580 1.391 . S
C579 C578 1.386 . S
C579 C583 1.393 . S
C580 H569 0.950 . S
C580 C578 1.391 . S
C580 C581 1.400 . S
C581 C575 1.491 . S
C581 C580 1.400 . S
C581 C582 1.398 . S
C582 H570 0.950 . S
C582 C581 1.398 . S
C582 C583 1.391 . S
C583 H571 0.950 . S
C583 C579 1.393 . S
C583 C582 1.391 . S
H584 C592 0.950 . S
H585 C597 0.950 . S
H586 C594 0.950 . S
H587 C596 0.950 . S
H588 C598 0.950 . S
H589 C600 0.950 . S
H590 C602 0.950 . S
H591 C603 0.950 . S
C592 H584 0.950 . S
C592 C593 1.386 . S
C592 C594 1.391 . S
C593 C592 1.386 . S
C593 C597 1.393 . S
C594 H586 0.950 . S
C594 C592 1.391 . S
C594 C595 1.400 . S
C595 C594 1.400 . S
C595 C596 1.398 . S
C595 C601 1.491 . S
C596 H587 0.950 . S
C596 C595 1.398 . S
C596 C597 1.391 . S
C597 H585 0.950 . S
C597 C593 1.393 . S
C597 C596 1.391 . S
C598 H588 0.950 . S
C598 C599 1.386 . S
C598 C600 1.391 . S
C599 C598 1.386 . S
C599 C603 1.393 . S
C600 H589 0.950 . S
C600 C598 1.391 . S
C600 C601 1.400 . S
C601 C595 1.491 . S
C601 C600 1.400 . S
C601 C602 1.398 . S
C602 H590 0.950 . S
C602 C601 1.398 . S
C602 C603 1.391 . S
C603 H591 0.950 . S
C603 C599 1.393 . S
C603 C602 1.391 . S
H604 C612 0.950 . S
H605 C617 0.950 . S
H606 C614 0.950 . S
H607 C616 0.950 1_655 S
H608 C618 0.950 . S
H609 C620 0.950 . S
H610 C622 0.950 1_455 S
H611 C623 0.950 . S
C612 H604 0.950 . S
C612 C613 1.386 . S
C612 C614 1.391 . S
C613 C612 1.386 . S
C613 C617 1.393 . S
C614 H606 0.950 . S
C614 C612 1.391 . S
C614 C615 1.400 . S
C615 C614 1.400 . S
C615 C616 1.398 . S
C615 C621 1.491 1_455 S
C616 H607 0.950 1_455 S
C616 C615 1.398 . S
C616 C617 1.391 . S
C617 H605 0.950 . S
C617 C613 1.393 . S
C617 C616 1.391 . S
C618 H608 0.950 . S
C618 C619 1.386 . S
C618 C620 1.391 . S
C619 C618 1.386 . S
C619 C623 1.393 . S
C620 H609 0.950 . S
C620 C618 1.391 . S
C620 C621 1.400 . S
C621 C615 1.491 1_655 S
C621 C620 1.400 . S
C621 C622 1.398 . S
C622 H610 0.950 1_655 S
C622 C621 1.398 . S
C622 C623 1.391 . S
C623 H611 0.950 . S
C623 C619 1.393 . S
C623 C622 1.391 . S
H624 C632 0.950 . S
H625 C637 0.950 . S
H626 C634 0.950 . S
H627 C636 0.950 . S
H628 C638 0.950 . S
H629 C640 0.950 . S
H630 C642 0.950 . S
H631 C643 0.950 . S
C632 H624 0.950 . S
C632 C633 1.386 . S
C632 C634 1.391 . S
C633 C632 1.386 . S
C633 C637 1.393 . S
C634 H626 0.950 . S
C634 C632 1.391 . S
C634 C635 1.400 . S
C635 C634 1.400 . S
C635 C636 1.398 . S
C635 C641 1.491 . S
C636 H627 0.950 . S
C636 C635 1.398 . S
C636 C637 1.391 . S
C637 H625 0.950 . S
C637 C633 1.393 . S
C637 C636 1.391 . S
C638 H628 0.950 . S
C638 C639 1.386 . S
C638 C640 1.391 . S
C639 C638 1.386 . S
C639 C643 1.393 . S
C640 H629 0.950 . S
C640 C638 1.391 . S
C640 C641 1.400 . S
C641 C635 1.491 . S
C641 C640 1.400 . S
C641 C642 1.398 . S
C642 H630 0.950 . S
C642 C641 1.398 . S
C642 C643 1.391 . S
C643 H631 0.950 . S
C643 C639 1.393 . S
C643 C642 1.391 . S
H644 C652 0.950 . S
H645 C657 0.950 . S
H646 C654 0.950 . S
H647 C656 0.950 . S
H648 C658 0.950 . S
H649 C660 0.950 . S
H650 C662 0.950 . S
H651 C663 0.950 . S
C652 H644 0.950 . S
C652 C653 1.386 . S
C652 C654 1.391 . S
C653 C652 1.386 . S
C653 C657 1.393 . S
C654 H646 0.950 . S
C654 C652 1.391 . S
C654 C655 1.400 . S
C655 C654 1.400 . S
C655 C656 1.398 . S
C655 C661 1.491 1_655 S
C656 H647 0.950 . S
C656 C655 1.398 . S
C656 C657 1.391 . S
C657 H645 0.950 . S
C657 C653 1.393 . S
C657 C656 1.391 . S
C658 H648 0.950 . S
C658 C659 1.386 . S
C658 C660 1.391 . S
C659 C658 1.386 . S
C659 C663 1.393 . S
C660 H649 0.950 . S
C660 C658 1.391 . S
C660 C661 1.400 . S
C661 C655 1.491 1_455 S
C661 C660 1.400 . S
C661 C662 1.398 . S
C662 H650 0.950 . S
C662 C661 1.398 . S
C662 C663 1.391 . S
C663 H651 0.950 . S
C663 C659 1.393 . S
C663 C662 1.391 . S
C193 C18 1.171 . S
C199 C181 1.146 . S
C213 C43 1.151 . S
C219 C110 1.172 . S
C233 C64 1.198 . S
C239 C133 1.203 . S
C253 C156 1.199 . S
C259 C87 1.203 . S
C273 C16 1.284 . S
C279 C41 1.295 . S
C293 C66 1.200 . S
C299 C40 1.225 . S
C313 C89 1.248 . S
C319 C62 1.259 . S
C333 C20 1.255 . S
C339 C85 1.235 . S
C353 C108 1.259 . S
C359 C179 1.304 . S
C373 C131 1.236 . S
C379 C112 1.256 . S
C393 C154 1.261 . S
C399 C135 1.249 . S
C413 C158 1.200 . S
C419 C178 1.223 . S
C433 C132 0.871 . S
C439 C17 0.869 . S
C453 C155 0.900 . S
C459 C39 0.880 . S
C473 C177 0.877 . S
C479 C63 0.907 . S
C493 C109 0.873 . S
C499 C86 0.851 . S
C513 C19 1.882 . S
C519 C159 1.908 . S
C533 C44 1.880 . S
C539 C180 1.850 . S
C553 C113 1.837 . S
C559 C65 1.819 . S
C573 C136 1.881 . S
C579 C88 1.855 . S
C593 C67 1.907 . S
C599 C111 1.893 . S
C613 C134 1.863 . S
C619 C90 1.883 . S
C633 C157 1.818 . S
C639 C21 1.843 . S
C653 C182 1.881 . S
C659 C42 1.850 . S
