# Generated by pormake.
# Topology sxi, (6)-cn, num edge types: 1
# Building blocks:
#     Node 0, Type 0, BuildingBlock: OJICUG_clean_sbu_0, # of connection points: 6
#     Node 1, Type 0, BuildingBlock: OJICUG_clean_sbu_0, # of connection points: 6
#     Node 2, Type 0, BuildingBlock: OJICUG_clean_sbu_0, # of connection points: 6
#     Node 3, Type 0, BuildingBlock: OJICUG_clean_sbu_0, # of connection points: 6
#     Node 4, Type 0, BuildingBlock: OJICUG_clean_sbu_0, # of connection points: 6
#     Node 5, Type 0, BuildingBlock: OJICUG_clean_sbu_0, # of connection points: 6
#     Node 6, Type 0, BuildingBlock: OJICUG_clean_sbu_0, # of connection points: 6
#     Node 7, Type 0, BuildingBlock: OJICUG_clean_sbu_0, # of connection points: 6
#     Node 8, Type 0, BuildingBlock: OJICUG_clean_sbu_0, # of connection points: 6
#     Node 9, Type 0, BuildingBlock: OJICUG_clean_sbu_0, # of connection points: 6
#     Node 10, Type 0, BuildingBlock: OJICUG_clean_sbu_0, # of connection points: 6
#     Node 11, Type 0, BuildingBlock: OJICUG_clean_sbu_0, # of connection points: 6
#     Node 12, Type 0, BuildingBlock: OJICUG_clean_sbu_0, # of connection points: 6
#     Node 13, Type 0, BuildingBlock: OJICUG_clean_sbu_0, # of connection points: 6
#     Node 14, Type 0, BuildingBlock: OJICUG_clean_sbu_0, # of connection points: 6
#     Node 15, Type 0, BuildingBlock: OJICUG_clean_sbu_0, # of connection points: 6
#     Node 16, Type 0, BuildingBlock: OJICUG_clean_sbu_0, # of connection points: 6
#     Node 17, Type 0, BuildingBlock: OJICUG_clean_sbu_0, # of connection points: 6
#     Node 18, Type 0, BuildingBlock: OJICUG_clean_sbu_0, # of connection points: 6
#     Node 19, Type 0, BuildingBlock: OJICUG_clean_sbu_0, # of connection points: 6
#     Node 20, Type 0, BuildingBlock: OJICUG_clean_sbu_0, # of connection points: 6
#     Node 21, Type 0, BuildingBlock: OJICUG_clean_sbu_0, # of connection points: 6
#     Node 22, Type 0, BuildingBlock: OJICUG_clean_sbu_0, # of connection points: 6
#     Node 23, Type 0, BuildingBlock: OJICUG_clean_sbu_0, # of connection points: 6
#     Edge 24, Type (0, 0), None
#     Edge 25, Type (0, 0), None
#     Edge 26, Type (0, 0), None
#     Edge 27, Type (0, 0), None
#     Edge 28, Type (0, 0), None
#     Edge 29, Type (0, 0), None
#     Edge 30, Type (0, 0), None
#     Edge 31, Type (0, 0), None
#     Edge 32, Type (0, 0), None
#     Edge 33, Type (0, 0), None
#     Edge 34, Type (0, 0), None
#     Edge 35, Type (0, 0), None
#     Edge 36, Type (0, 0), None
#     Edge 37, Type (0, 0), None
#     Edge 38, Type (0, 0), None
#     Edge 39, Type (0, 0), None
#     Edge 40, Type (0, 0), None
#     Edge 41, Type (0, 0), None
#     Edge 42, Type (0, 0), None
#     Edge 43, Type (0, 0), None
#     Edge 44, Type (0, 0), None
#     Edge 45, Type (0, 0), None
#     Edge 46, Type (0, 0), None
#     Edge 47, Type (0, 0), None
#     Edge 48, Type (0, 0), None
#     Edge 49, Type (0, 0), None
#     Edge 50, Type (0, 0), None
#     Edge 51, Type (0, 0), None
#     Edge 52, Type (0, 0), None
#     Edge 53, Type (0, 0), None
#     Edge 54, Type (0, 0), None
#     Edge 55, Type (0, 0), None
#     Edge 56, Type (0, 0), None
#     Edge 57, Type (0, 0), None
#     Edge 58, Type (0, 0), None
#     Edge 59, Type (0, 0), None
#     Edge 60, Type (0, 0), None
#     Edge 61, Type (0, 0), None
#     Edge 62, Type (0, 0), None
#     Edge 63, Type (0, 0), None
#     Edge 64, Type (0, 0), None
#     Edge 65, Type (0, 0), None
#     Edge 66, Type (0, 0), None
#     Edge 67, Type (0, 0), None
#     Edge 68, Type (0, 0), None
#     Edge 69, Type (0, 0), None
#     Edge 70, Type (0, 0), None
#     Edge 71, Type (0, 0), None
#     Edge 72, Type (0, 0), None
#     Edge 73, Type (0, 0), None
#     Edge 74, Type (0, 0), None
#     Edge 75, Type (0, 0), None
#     Edge 76, Type (0, 0), None
#     Edge 77, Type (0, 0), None
#     Edge 78, Type (0, 0), None
#     Edge 79, Type (0, 0), None
#     Edge 80, Type (0, 0), None
#     Edge 81, Type (0, 0), None
#     Edge 82, Type (0, 0), None
#     Edge 83, Type (0, 0), None
#     Edge 84, Type (0, 0), None
#     Edge 85, Type (0, 0), None
#     Edge 86, Type (0, 0), None
#     Edge 87, Type (0, 0), None
#     Edge 88, Type (0, 0), None
#     Edge 89, Type (0, 0), None
#     Edge 90, Type (0, 0), None
#     Edge 91, Type (0, 0), None
#     Edge 92, Type (0, 0), None
#     Edge 93, Type (0, 0), None
#     Edge 94, Type (0, 0), None
#     Edge 95, Type (0, 0), None
# Relax obj value: 0.447
# Max RMSD: 0.271
# Mean RMSD: 0.271
data_MOF--net-sxi--node1-OJICUG_clean_sbu_0--edge1-none
_symmetry_space_group_name_H-M    P1
_symmetry_Int_Tables_number       1
_symmetry_cell_setting            triclinic
loop_
_symmetry_equiv_pos_as_xyz
'x, y, z'
_cell_length_a     23.882252
_cell_length_b     23.881349
_cell_length_c     23.877206
_cell_angle_alpha  90.000816
_cell_angle_beta   89.9992
_cell_angle_gamma 89.999833
loop_
_atom_site_label
_atom_site_type_symbol
_atom_site_fract_x
_atom_site_fract_y
_atom_site_fract_z
_atom_type_partial_charge
Sc0 Sc 0.98135 0.2679 0.42556 0.0
Sc1 Sc 0.08418 0.31766 0.34458 0.0
Sc2 Sc -0.00537 0.41395 0.40215 0.0
O3 O 0.01961 0.33418 0.39098 0.0
C4 C 0.89377 0.34762 0.38409 0.0
C5 C -0.00053 0.21999 0.3109 0.0
C6 C 0.03617 0.42976 0.27696 0.0
C7 C 0.09628 0.22991 0.44772 0.0
C8 C 0.96616 0.35374 0.52104 0.0
C9 C 0.10787 0.42042 0.42521 0.0
O10 O 0.91582 0.29952 0.3777 0.0
O11 O 0.02543 0.26232 0.28904 0.0
O12 O -0.00435 0.44129 0.311 0.0
O13 O 0.05075 0.24223 0.47147 0.0
O14 O -0.00483 0.39136 0.4941 0.0
O15 O 0.13028 0.37418 0.40771 0.0
O16 O 0.95001 0.30995 0.49673 0.0
O17 O 0.10999 0.2474 0.39878 0.0
O18 O 0.07303 0.44297 0.39501 0.0
O19 O 0.00841 0.21149 0.36192 0.0
O20 O 0.91522 0.39022 0.40482 0.0
O21 O 0.06891 0.38848 0.28782 0.0
Sc22 Sc 0.96437 0.73135 0.67554 0.0
Sc23 Sc 0.91461 0.83424 0.59464 0.0
Sc24 Sc 0.81833 0.74471 0.65227 0.0
O25 O 0.8981 0.76967 0.64103 0.0
C26 C 0.88457 0.64386 0.634 0.0
C27 C 0.01224 0.74954 0.56088 0.0
C28 C 0.80248 0.78624 0.52707 0.0
C29 C 0.00237 0.84626 0.69777 0.0
C30 C 0.87862 0.7162 0.77109 0.0
C31 C 0.81191 0.85796 0.67533 0.0
O32 O 0.93268 0.66588 0.62761 0.0
O33 O 0.96991 0.77551 0.53905 0.0
O34 O 0.79096 0.74573 0.56113 0.0
O35 O 0.99008 0.8007 0.72149 0.0
O36 O 0.84101 0.74526 0.7442 0.0
O37 O 0.85814 0.88036 0.65779 0.0
O38 O 0.92234 0.69997 0.74671 0.0
O39 O 0.98488 0.86001 0.64884 0.0
O40 O 0.78933 0.82312 0.64516 0.0
O41 O 0.02076 0.75845 0.6119 0.0
O42 O 0.84206 0.6653 0.65492 0.0
O43 O 0.84375 0.81897 0.53791 0.0
Sc44 Sc 0.501 0.71437 0.92546 0.0
Sc45 Sc 0.3981 0.66466 0.84457 0.0
Sc46 Sc 0.48766 0.56832 0.90204 0.0
O47 O 0.4627 0.64811 0.8909 0.0
C48 C 0.58851 0.63463 0.88388 0.0
C49 C 0.48281 0.76231 0.81085 0.0
C50 C 0.44602 0.55256 0.77687 0.0
C51 C 0.38611 0.75239 0.94773 0.0
C52 C 0.51618 0.62855 0.02092 0.0
C53 C 0.37451 0.56196 0.92529 0.0
O54 O 0.56644 0.68272 0.87748 0.0
O55 O 0.45683 0.71998 0.78898 0.0
O56 O 0.48656 0.54102 0.81088 0.0
O57 O 0.43166 0.74006 0.97144 0.0
O58 O 0.48716 0.59093 -0.00601 0.0
O59 O 0.35206 0.60817 0.90778 0.0
O60 O 0.5324 0.6723 -0.00342 0.0
O61 O 0.37237 0.73492 0.89879 0.0
O62 O 0.40924 0.53935 0.89501 0.0
O63 O 0.47388 0.7708 0.86187 0.0
O64 O 0.56707 0.59202 0.90463 0.0
O65 O 0.41329 0.59382 0.78778 0.0
Sc66 Sc 0.51789 0.25089 0.17556 0.0
Sc67 Sc 0.56768 0.14804 0.09462 0.0
Sc68 Sc 0.66394 0.23761 0.15224 0.0
O69 O 0.58418 0.21262 0.14102 0.0
C70 C 0.59762 0.33846 0.13409 0.0
C71 C 0.47004 0.23274 0.06089 0.0
C72 C 0.67979 0.19607 0.02704 0.0
C73 C 0.47991 0.13596 0.19775 0.0
C74 C 0.60367 0.26609 0.27108 0.0
C75 C 0.67039 0.12436 0.17532 0.0
O76 O 0.54953 0.31639 0.12767 0.0
O77 O 0.51238 0.20679 0.03906 0.0
O78 O 0.69131 0.23659 0.06109 0.0
O79 O 0.49221 0.18151 0.22148 0.0
O80 O 0.6413 0.23705 0.24417 0.0
O81 O 0.62417 0.10195 0.15778 0.0
O82 O 0.55991 0.28226 0.24673 0.0
O83 O 0.49742 0.12224 0.14881 0.0
O84 O 0.69297 0.1592 0.14514 0.0
O85 O 0.46151 0.2238 0.11191 0.0
O86 O 0.6402 0.31702 0.15488 0.0
O87 O 0.63854 0.16333 0.03789 0.0
Sc88 Sc 0.4946 0.06835 0.58044 0.0
Sc89 Sc 0.58428 0.16461 0.63785 0.0
Sc90 Sc 0.48138 0.2144 0.55698 0.0
O91 O 0.51964 0.14811 0.59154 0.0
C92 C 0.46607 0.12855 0.46154 0.0
C93 C 0.60776 0.06185 0.55719 0.0
C94 C 0.59628 0.2523 0.53466 0.0
C95 C 0.53631 0.05258 0.70558 0.0
C96 C 0.3938 0.13478 0.59859 0.0
C97 C 0.49965 0.26232 0.67157 0.0
O98 O 0.49505 0.0909 0.48848 0.0
O99 O 0.63025 0.10805 0.57467 0.0
O100 O 0.55073 0.23999 0.51096 0.0
O101 O 0.49574 0.04106 0.67161 0.0
O102 O 0.4159 0.18285 0.60497 0.0
O103 O 0.52559 0.21998 0.69343 0.0
O104 O 0.41521 0.09213 0.5779 0.0
O105 O 0.56906 0.09382 0.69465 0.0
O106 O 0.50858 0.2708 0.62055 0.0
O107 O 0.57299 0.03931 0.58746 0.0
O108 O 0.44992 0.17233 0.48586 0.0
O109 O 0.61004 0.23484 0.5836 0.0
Sc110 Sc 0.16392 0.24469 0.83025 0.0
Sc111 Sc 0.06773 0.33437 0.88779 0.0
Sc112 Sc 0.01787 0.23151 0.80688 0.0
O113 O 0.08418 0.26976 0.84142 0.0
C114 C 0.10367 0.21619 0.71139 0.0
C115 C 0.1705 0.35795 0.80716 0.0
C116 C 0.98 0.34646 0.78464 0.0
C117 C 0.17978 0.28631 0.95542 0.0
C118 C 0.09748 0.14389 0.84839 0.0
C119 C 0.97003 0.24975 0.92152 0.0
O120 O 0.14132 0.2452 0.7383 0.0
O121 O 0.12429 0.38041 0.82467 0.0
O122 O -0.00772 0.3009 0.76092 0.0
O123 O 0.19127 0.24575 0.9214 0.0
O124 O 0.04941 0.16598 0.85479 0.0
O125 O 0.01239 0.27567 0.94335 0.0
O126 O 0.1401 0.1653 0.82765 0.0
O127 O 0.13854 0.31906 0.94454 0.0
O128 O 0.9615 0.25869 0.8705 0.0
O129 O 0.19302 0.32307 0.83733 0.0
O130 O 0.05989 0.20007 0.73572 0.0
O131 O -0.00251 0.36019 0.83358 0.0
Sc132 Sc 0.98768 0.91396 0.08047 0.0
Sc133 Sc 0.89797 0.81772 0.13785 0.0
Sc134 Sc 0.00082 0.76789 0.05694 0.0
O135 O 0.9626 0.8342 0.09154 0.0
C136 C 0.01618 0.85378 0.96154 0.0
C137 C 0.87452 0.92049 0.0572 0.0
C138 C 0.8859 0.73002 0.03468 0.0
C139 C 0.94596 0.92973 0.20561 0.0
C140 C 0.08848 0.84743 0.09848 0.0
C141 C 0.98259 0.72 0.17154 0.0
O142 O 0.98723 0.89143 0.9885 0.0
O143 O 0.85201 0.87429 0.07468 0.0
O144 O 0.93144 0.74234 0.01095 0.0
O145 O 0.98655 0.94124 0.17164 0.0
O146 O 0.06634 0.79939 0.10489 0.0
O147 O 0.95667 0.76235 0.19341 0.0
O148 O 0.06707 0.89015 0.07793 0.0
O149 O 0.91321 0.8885 0.19466 0.0
O150 O 0.97363 0.7115 0.12053 0.0
O151 O 0.9093 0.94303 0.08747 0.0
O152 O 0.03228 0.80995 0.98582 0.0
O153 O 0.87217 0.74749 0.08363 0.0
Sc154 Sc 0.31832 0.73764 0.33037 0.0
Sc155 Sc 0.41455 0.64795 0.3878 0.0
Sc156 Sc 0.46437 0.75087 0.30698 0.0
O157 O 0.39807 0.71259 0.3415 0.0
C158 C 0.37859 0.76618 0.21151 0.0
C159 C 0.31184 0.62447 0.30708 0.0
C160 C 0.50227 0.63596 0.28464 0.0
C161 C 0.30251 0.69594 0.45551 0.0
C162 C 0.38474 0.83843 0.3486 0.0
C163 C 0.51224 0.73256 0.42158 0.0
O164 O 0.34094 0.73718 0.23842 0.0
O165 O 0.35802 0.60198 0.3246 0.0
O166 O 0.48998 0.68154 0.26095 0.0
O167 O 0.291 0.73652 0.42152 0.0
O168 O 0.4328 0.81631 0.35501 0.0
O169 O 0.46988 0.70663 0.44341 0.0
O170 O 0.34212 0.81704 0.32785 0.0
O171 O 0.34373 0.66318 0.44459 0.0
O172 O 0.52075 0.72363 0.37056 0.0
O173 O 0.28927 0.65925 0.33734 0.0
O174 O 0.42234 0.78236 0.23587 0.0
O175 O 0.48478 0.6222 0.33357 0.0
Sc176 Sc 0.40199 -0.00539 0.41378 0.0
Sc177 Sc 0.34458 0.08435 0.31762 0.0
Sc178 Sc 0.42541 0.98147 0.26772 0.0
O179 O 0.39088 0.01973 0.33405 0.0
C180 C 0.52081 0.96617 0.35362 0.0
C181 C 0.42509 0.10779 0.42055 0.0
C182 C 0.44774 0.0964 0.22988 0.0
C183 C 0.27684 0.03622 0.4296 0.0
C184 C 0.3834 0.89403 0.34735 0.0
C185 C 0.31084 -0.00022 0.21983 0.0
O186 O 0.4939 -0.00475 0.3912 0.0
O187 O 0.40772 0.13026 0.37428 0.0
O188 O 0.47144 0.05082 0.24216 0.0
O189 O 0.31082 -0.00438 0.44106 0.0
O190 O 0.37734 0.91602 0.29918 0.0
O191 O 0.28901 0.0257 0.26221 0.0
O192 O 0.4047 0.91528 0.38978 0.0
O193 O 0.28778 0.06902 0.38841 0.0
O194 O 0.36185 0.00874 0.21132 0.0
O195 O 0.39487 0.07293 0.44301 0.0
O196 O 0.49648 0.94995 0.30985 0.0
O197 O 0.39884 0.11017 0.24741 0.0
Sc198 Sc 0.25077 0.17538 0.5177 0.0
Sc199 Sc 0.14787 0.09457 0.56759 0.0
Sc200 Sc 0.2376 0.15198 0.66377 0.0
O201 O 0.2125 0.14086 0.58402 0.0
C202 C 0.3382 0.13341 0.59733 0.0
C203 C 0.23246 0.06081 0.46984 0.0
C204 C 0.19598 0.02684 0.67959 0.0
C205 C 0.13585 0.19773 0.47984 0.0
C206 C 0.26607 0.27079 0.60359 0.0
C207 C 0.12443 0.17515 0.67046 0.0
O208 O 0.31621 0.12732 0.54917 0.0
O209 O 0.20652 0.03897 0.5122 0.0
O210 O 0.23658 0.06082 0.69105 0.0
O211 O 0.18142 0.22142 0.49214 0.0
O212 O 0.23698 0.24388 0.64117 0.0
O213 O 0.10197 0.15775 0.6242 0.0
O214 O 0.28229 0.24646 0.55983 0.0
O215 O 0.12207 0.14882 0.49736 0.0
O216 O 0.15926 0.14492 0.69297 0.0
O217 O 0.22351 0.11181 0.46131 0.0
O218 O 0.31693 0.15466 0.63978 0.0
O219 O 0.16317 0.03778 0.6384 0.0
Sc220 Sc 0.05688 0.00076 0.7677 0.0
Sc221 Sc 0.13771 0.8979 0.81763 0.0
Sc222 Sc 0.08037 0.98772 0.91378 0.0
O223 O 0.09142 0.96254 0.83405 0.0
C224 C 0.09888 0.08829 0.84721 0.0
C225 C 0.17142 0.98244 0.71982 0.0
C226 C 0.20549 0.94601 0.92959 0.0
C227 C 0.03453 0.88582 0.72993 0.0
C228 C 0.96152 0.01616 0.85363 0.0
C229 C 0.05717 0.87453 0.92057 0.0
O230 O 0.10496 0.06623 0.79908 0.0
O231 O 0.19327 0.95653 0.7622 0.0
O232 O 0.17154 0.98664 0.94104 0.0
O233 O 0.01083 0.93139 0.74222 0.0
O234 O 0.98845 0.98714 0.89124 0.0
O235 O 0.07455 0.85203 0.87431 0.0
O236 O 0.98582 0.03232 0.80983 0.0
O237 O 0.08344 0.87206 0.74744 0.0
O238 O 0.08739 0.9094 0.94304 0.0
O239 O 0.12042 0.97345 0.71131 0.0
O240 O 0.07775 0.06705 0.88973 0.0
O241 O 0.19452 0.91321 0.88841 0.0
Sc242 Sc 0.23159 0.80683 0.01765 0.0
Sc243 Sc 0.33443 0.88769 0.06761 0.0
Sc244 Sc 0.24464 0.83026 0.16373 0.0
O245 O 0.2698 0.84137 0.084 0.0
C246 C 0.14407 0.84877 0.09721 0.0
C247 C 0.24988 0.92143 0.96982 0.0
C248 C 0.28626 0.9554 0.17958 0.0
C249 C 0.34655 0.78454 0.97989 0.0
C250 C 0.21622 0.71142 0.10355 0.0
C251 C 0.35783 0.80715 0.17052 0.0
O252 O 0.16607 0.85484 0.04905 0.0
O253 O 0.27579 0.94326 0.01219 0.0
O254 O 0.24566 0.92143 0.19104 0.0
O255 O 0.30098 0.76083 -0.00784 0.0
O256 O 0.24526 0.73834 0.14115 0.0
O257 O 0.38032 0.82455 0.12427 0.0
O258 O 0.20007 0.73573 0.05975 0.0
O259 O 0.3603 0.83346 -0.0026 0.0
O260 O 0.32295 0.83736 0.19298 0.0
O261 O 0.25885 0.87042 0.96128 0.0
O262 O 0.16533 0.82757 0.13968 0.0
O263 O 0.31908 0.94448 0.13839 0.0
Sc264 Sc 0.92526 0.50088 0.71473 0.0
Sc265 Sc 0.84454 0.39793 0.66485 0.0
Sc266 Sc 0.90187 0.4877 0.56868 0.0
O267 O 0.89079 0.46257 0.64841 0.0
C268 C 0.88311 0.58825 0.63513 0.0
C269 C 0.81079 0.48245 0.76266 0.0
C270 C 0.77676 0.44602 0.55288 0.0
C271 C 0.94778 0.38599 0.75253 0.0
C272 C 0.02065 0.51619 0.62887 0.0
C273 C 0.92513 0.37453 0.56197 0.0
O274 O 0.87702 0.56621 0.68327 0.0
O275 O 0.78895 0.45657 0.72027 0.0
O276 O 0.81071 0.48663 0.5414 0.0
O277 O 0.97142 0.4316 0.74025 0.0
O278 O -0.00624 0.48709 0.5913 0.0
O279 O 0.90772 0.35205 0.60822 0.0
O280 O -0.00373 0.53251 0.67257 0.0
O281 O 0.89887 0.37217 0.73504 0.0
O282 O 0.8949 0.40936 0.53945 0.0
O283 O 0.86179 0.47347 0.77115 0.0
O284 O 0.90445 0.56704 0.5927 0.0
O285 O 0.78771 0.41322 0.59407 0.0
Sc286 Sc 0.74466 0.65202 0.81872 0.0
Sc287 Sc 0.83438 0.59459 0.91488 0.0
Sc288 Sc 0.73145 0.67534 0.96478 0.0
O289 O 0.76976 0.64087 0.89845 0.0
C290 C 0.71618 0.77078 0.87896 0.0
C291 C 0.85783 0.67519 0.81203 0.0
C292 C 0.84636 0.69781 0.00257 0.0
C293 C 0.78626 0.52688 0.80288 0.0
C294 C 0.64411 0.63323 0.88511 0.0
C295 C 0.74985 0.56081 0.01267 0.0
O296 O 0.74531 0.74391 0.84138 0.0
O297 O 0.8803 0.65776 0.85827 0.0
O298 O 0.80075 0.72145 0.99032 0.0
O299 O 0.74567 0.56086 0.79141 0.0
O300 O 0.66609 0.62716 0.93328 0.0
O301 O 0.77575 0.53899 0.97028 0.0
O302 O 0.66534 0.65467 0.84274 0.0
O303 O 0.81907 0.53779 0.84408 0.0
O304 O 0.75881 0.61182 0.02117 0.0
O305 O 0.82299 0.64497 0.78951 0.0
O306 O 0.69986 0.74638 0.92265 0.0
O307 O 0.86016 0.64889 0.98508 0.0
Sc308 Sc 0.58032 0.49457 0.06872 0.0
Sc309 Sc 0.63768 0.5844 0.16483 0.0
Sc310 Sc 0.55691 0.4815 0.21478 0.0
O311 O 0.59141 0.51976 0.14843 0.0
C312 C 0.46151 0.46613 0.12892 0.0
C313 C 0.55713 0.60776 0.06191 0.0
C314 C 0.53445 0.59644 0.25249 0.0
C315 C 0.70544 0.53625 0.05289 0.0
C316 C 0.59904 0.39406 0.13525 0.0
C317 C 0.67141 0.49992 0.26269 0.0
O318 O 0.48842 0.49519 0.09132 0.0
O319 O 0.57454 0.63027 0.10815 0.0
O320 O 0.5108 0.55083 0.24024 0.0
O321 O 0.67149 0.49563 0.04142 0.0
O322 O 0.6051 0.4161 0.18339 0.0
O323 O 0.69325 0.52577 0.22028 0.0
O324 O 0.57772 0.41526 0.0928 0.0
O325 O 0.6945 0.56907 0.09407 0.0
O326 O 0.62041 0.50891 0.27118 0.0
O327 O 0.58733 0.57288 0.03943 0.0
O328 O 0.48588 0.44988 0.17266 0.0
O329 O 0.58337 0.61022 0.235 0.0
Sc330 Sc 0.73762 0.33037 0.31873 0.0
Sc331 Sc 0.64782 0.38773 0.41487 0.0
Sc332 Sc 0.75074 0.30697 0.4648 0.0
O333 O 0.71247 0.34146 0.39845 0.0
C334 C 0.76611 0.21157 0.37894 0.0
C335 C 0.62445 0.30711 0.312 0.0
C336 C 0.63582 0.2845 0.50252 0.0
C337 C 0.69594 0.45548 0.30289 0.0
C338 C 0.83817 0.34907 0.38525 0.0
C339 C 0.73233 0.42148 0.51267 0.0
O340 O 0.73704 0.23847 0.34134 0.0
O341 O 0.60196 0.32455 0.35823 0.0
O342 O 0.68142 0.26085 0.49026 0.0
O343 O 0.73655 0.42153 0.29143 0.0
O344 O 0.81612 0.35516 0.43339 0.0
O345 O 0.70644 0.44332 0.47029 0.0
O346 O 0.81695 0.3278 0.34279 0.0
O347 O 0.66312 0.44454 0.34408 0.0
O348 O 0.72333 0.37048 0.52119 0.0
O349 O 0.6593 0.33732 0.28948 0.0
O350 O 0.78237 0.23595 0.42267 0.0
O351 O 0.62203 0.33342 0.48505 0.0
Sc352 Sc 0.26791 0.42559 0.98149 0.0
Sc353 Sc 0.31773 0.34469 0.08438 0.0
Sc354 Sc 0.41395 0.40224 -0.00527 0.0
O355 O 0.33421 0.39107 0.01978 0.0
C356 C 0.34763 0.38393 0.89394 0.0
C357 C 0.22006 0.31095 -0.00029 0.0
C358 C 0.42978 0.27707 0.03628 0.0
C359 C 0.22994 0.4478 0.09644 0.0
C360 C 0.35369 0.52108 0.96635 0.0
C361 C 0.42056 0.4252 0.10805 0.0
O362 O 0.29952 0.37765 0.91599 0.0
O363 O 0.26239 0.28913 0.02569 0.0
O364 O 0.44128 0.3111 -0.00427 0.0
O365 O 0.24222 0.47152 0.05087 0.0
O366 O 0.39136 0.49418 -0.00467 0.0
O367 O 0.3743 0.40778 0.13045 0.0
O368 O 0.30995 0.49675 0.95009 0.0
O369 O 0.24749 0.3989 0.1102 0.0
O370 O 0.44306 0.39507 0.07311 0.0
O371 O 0.21153 0.36197 0.00862 0.0
O372 O 0.39014 0.40493 0.91533 0.0
O373 O 0.38854 0.28794 0.06906 0.0
Sc374 Sc 0.914 0.08027 0.98779 0.0
Sc375 Sc 0.81777 0.13771 0.89808 0.0
Sc376 Sc 0.76795 0.0569 0.00101 0.0
O377 O 0.83426 0.09139 0.96271 0.0
C378 C 0.85373 0.96145 0.01621 0.0
C379 C 0.92061 0.05715 0.8745 0.0
C380 C 0.73005 0.03454 0.88609 0.0
C381 C 0.92979 0.2054 0.94613 0.0
C382 C 0.84758 0.09858 0.08857 0.0
C383 C 0.72007 0.17146 0.98271 0.0
O384 O 0.89142 0.98835 0.98726 0.0
O385 O 0.87435 0.07459 0.85208 0.0
O386 O 0.74232 0.01086 0.93168 0.0
O387 O 0.9413 0.17142 0.98671 0.0
O388 O 0.79952 0.10495 0.06643 0.0
O389 O 0.76241 0.19329 0.95676 0.0
O390 O 0.89016 0.07771 0.06721 0.0
O391 O 0.88857 0.1945 0.91336 0.0
O392 O 0.71155 0.12045 0.97378 0.0
O393 O 0.94313 0.0873 0.9094 0.0
O394 O 0.81001 0.9858 0.0325 0.0
O395 O 0.74756 0.08345 0.8723 0.0
Sc396 Sc 0.17544 0.51788 0.25094 0.0
Sc397 Sc 0.09462 0.56772 0.14801 0.0
Sc398 Sc 0.15212 0.66394 0.23768 0.0
O399 O 0.14095 0.58419 0.21263 0.0
C400 C 0.13376 0.59759 0.33846 0.0
C401 C 0.06084 0.47003 0.23266 0.0
C402 C 0.02697 0.67976 0.19611 0.0
C403 C 0.19775 0.47993 0.13601 0.0
C404 C 0.27092 0.60365 0.26607 0.0
C405 C 0.17521 0.67052 0.1244 0.0
O406 O 0.12743 0.5495 0.31638 0.0
O407 O 0.03902 0.51237 0.20668 0.0
O408 O 0.06098 0.69126 0.23666 0.0
O409 O 0.22143 0.49221 0.1816 0.0
O410 O 0.24403 0.64132 0.23709 0.0
O411 O 0.15777 0.62426 0.10199 0.0
O412 O 0.24656 0.55994 0.28238 0.0
O413 O 0.14886 0.49748 0.12221 0.0
O414 O 0.14505 0.69306 0.15929 0.0
O415 O 0.11185 0.4615 0.22376 0.0
O416 O 0.15475 0.64011 0.31709 0.0
O417 O 0.03786 0.63854 0.16331 0.0
Sc418 Sc 0.71433 0.92542 0.50103 0.0
Sc419 Sc 0.66451 0.84459 0.39811 0.0
Sc420 Sc 0.56828 0.90207 0.4878 0.0
O421 O 0.64802 0.89093 0.46273 0.0
C422 C 0.63468 0.88372 0.58857 0.0
C423 C 0.76221 0.81085 0.48274 0.0
C424 C 0.55247 0.77693 0.44618 0.0
C425 C 0.75223 0.94777 0.38611 0.0
C426 C 0.62857 0.02089 0.5162 0.0
C427 C 0.5617 0.92519 0.37451 0.0
O428 O 0.68274 0.87736 0.56643 0.0
O429 O 0.71987 0.78902 0.4568 0.0
O430 O 0.54095 0.81093 0.48674 0.0
O431 O 0.73996 0.97145 0.4317 0.0
O432 O 0.59088 -0.00601 0.48724 0.0
O433 O 0.60795 0.90772 0.35209 0.0
O434 O 0.67227 -0.00347 0.53251 0.0
O435 O 0.73472 0.89885 0.37233 0.0
O436 O 0.53915 0.89505 0.40941 0.0
O437 O 0.77073 0.86186 0.47381 0.0
O438 O 0.59211 0.90464 0.56722 0.0
O439 O 0.5937 0.78781 0.41341 0.0
Sc440 Sc 0.33017 0.3185 0.7378 0.0
Sc441 Sc 0.38763 0.41456 0.64797 0.0
Sc442 Sc 0.30692 0.46455 0.7509 0.0
O443 O 0.34132 0.39818 0.7126 0.0
C444 C 0.21145 0.37882 0.76621 0.0
C445 C 0.30704 0.3117 0.62449 0.0
C446 C 0.28441 0.50225 0.63597 0.0
C447 C 0.45529 0.30258 0.69615 0.0
C448 C 0.34906 0.385 0.83832 0.0
C449 C 0.42142 0.51237 0.73246 0.0
O450 O 0.23829 0.34116 0.73718 0.0
O451 O 0.32452 0.35793 0.60204 0.0
O452 O 0.26078 0.49005 0.68161 0.0
O453 O 0.42131 0.29114 0.73674 0.0
O454 O 0.35517 0.4331 0.81623 0.0
O455 O 0.44323 0.46995 0.7066 0.0
O456 O 0.32762 0.34259 0.81715 0.0
O457 O 0.4444 0.34378 0.66332 0.0
O458 O 0.37044 0.52091 0.72347 0.0
O459 O 0.33712 0.28919 0.65946 0.0
O460 O 0.23587 0.42248 0.78258 0.0
O461 O 0.33332 0.48474 0.62216 0.0
Sc462 Sc 0.06844 0.58009 0.49462 0.0
Sc463 Sc 0.16451 0.63759 0.58442 0.0
Sc464 Sc 0.21448 0.55682 0.4815 0.0
O465 O 0.14812 0.59124 0.5198 0.0
C466 C 0.12874 0.46133 0.4662 0.0
C467 C 0.06162 0.55708 0.60795 0.0
C468 C 0.25223 0.53439 0.59644 0.0
C469 C 0.05253 0.70523 0.53625 0.0
C470 C 0.13489 0.59896 0.39409 0.0
C471 C 0.26229 0.67135 0.4999 0.0
O472 O 0.09108 0.48819 0.49523 0.0
O473 O 0.10786 0.57453 0.6304 0.0
O474 O 0.24001 0.51073 0.55082 0.0
O475 O 0.04108 0.67124 0.49566 0.0
O476 O 0.18302 0.60502 0.41614 0.0
O477 O 0.2199 0.69317 0.52577 0.0
O478 O 0.09251 0.57748 0.41527 0.0
O479 O 0.09374 0.69436 0.56906 0.0
O480 O 0.27083 0.62036 0.50889 0.0
O481 O 0.03915 0.58714 0.57294 0.0
O482 O 0.17241 0.48574 0.44987 0.0
O483 O 0.23469 0.58329 0.61024 0.0
Sc484 Sc 0.67552 0.96459 0.73158 0.0
Sc485 Sc 0.59474 0.9146 0.83449 0.0
Sc486 Sc 0.65231 0.81854 0.74472 0.0
O487 O 0.64111 0.89823 0.76989 0.0
C488 C 0.6334 0.88493 0.6442 0.0
C489 C 0.56095 0.01237 0.74996 0.0
C490 C 0.52714 0.8026 0.78626 0.0
C491 C 0.69789 0.00237 0.84654 0.0
C492 C 0.77104 0.87886 0.71635 0.0
C493 C 0.67528 0.81174 0.85805 0.0
O494 O 0.62738 0.9331 0.66619 0.0
O495 O 0.53915 0.96998 0.77585 0.0
O496 O 0.56116 0.79116 0.74569 0.0
O497 O 0.72156 0.99016 0.80092 0.0
O498 O 0.74419 0.84122 0.74541 0.0
O499 O 0.65782 0.85798 0.88048 0.0
O500 O 0.74662 0.92253 0.7 0.0
O501 O 0.649 0.98481 0.86034 0.0
O502 O 0.64521 0.78926 0.82305 0.0
O503 O 0.61194 0.02093 0.75892 0.0
O504 O 0.65499 0.84262 0.66539 0.0
O505 O 0.538 0.8438 0.81909 0.0
Sc506 Sc 0.80676 0.01772 0.2316 0.0
Sc507 Sc 0.88753 0.06771 0.33452 0.0
Sc508 Sc 0.83 0.16377 0.24474 0.0
O509 O 0.84118 0.08408 0.2699 0.0
C510 C 0.84886 0.09736 0.1442 0.0
C511 C 0.92133 0.96994 0.24998 0.0
C512 C 0.95515 0.1797 0.28631 0.0
C513 C 0.78438 0.97993 0.34655 0.0
C514 C 0.71126 0.10347 0.21634 0.0
C515 C 0.80702 0.1706 0.35806 0.0
O516 O 0.85489 0.0492 0.16619 0.0
O517 O 0.94313 0.01233 0.27588 0.0
O518 O 0.92114 0.19114 0.24572 0.0
O519 O 0.76071 -0.00784 0.30094 0.0
O520 O 0.73811 0.14112 0.2454 0.0
O521 O 0.82445 0.12435 0.3805 0.0
O522 O 0.73566 0.05979 0.20002 0.0
O523 O 0.83327 -0.00249 0.36036 0.0
O524 O 0.8371 0.19306 0.32306 0.0
O525 O 0.87033 0.96139 0.25894 0.0
O526 O 0.82732 0.1397 0.1654 0.0
O527 O 0.94428 0.1385 0.31914 0.0
loop_
_geom_bond_atom_site_label_1
_geom_bond_atom_site_label_2
_geom_bond_distance
_geom_bond_site_symmetry_2
_ccdc_geom_bond_type
Sc0 O3 2.025 1_655 S
Sc0 O10 2.105 . S
Sc0 O13 2.105 1_655 S
Sc0 O16 2.105 . S
Sc0 O19 2.105 . S
Sc1 O3 2.025 . S
Sc1 O11 2.105 . S
Sc1 O15 2.105 . S
Sc1 O17 2.105 . S
Sc1 O21 2.105 . S
Sc2 O3 2.025 . S
Sc2 O12 2.105 . S
Sc2 O14 2.105 1_455 S
Sc2 O18 2.105 . S
Sc2 O20 2.105 1_455 S
O3 Sc0 2.025 1_455 S
O3 Sc1 2.025 . S
O3 Sc2 2.025 . S
C4 O10 1.268 . S
C4 O20 1.268 . S
C5 O11 1.268 . S
C5 O19 1.268 1_455 S
C6 O12 1.268 . S
C6 O21 1.268 . S
C7 O13 1.268 . S
C7 O17 1.268 . S
C8 O14 1.268 . S
C8 O16 1.268 . S
C9 O15 1.268 . S
C9 O18 1.268 . S
O10 Sc0 2.105 . S
O10 C4 1.268 . S
O11 Sc1 2.105 . S
O11 C5 1.268 . S
O12 Sc2 2.105 . S
O12 C6 1.268 . S
O13 Sc0 2.105 1_455 S
O13 C7 1.268 . S
O14 Sc2 2.105 1_655 S
O14 C8 1.268 . S
O15 Sc1 2.105 . S
O15 C9 1.268 . S
O16 Sc0 2.105 . S
O16 C8 1.268 . S
O17 Sc1 2.105 . S
O17 C7 1.268 . S
O18 Sc2 2.105 . S
O18 C9 1.268 . S
O19 Sc0 2.105 . S
O19 C5 1.268 1_655 S
O20 Sc2 2.105 1_655 S
O20 C4 1.268 . S
O21 Sc1 2.105 . S
O21 C6 1.268 . S
Sc22 O25 2.025 . S
Sc22 O32 2.105 . S
Sc22 O35 2.105 1_655 S
Sc22 O38 2.105 . S
Sc22 O41 2.105 1_655 S
Sc23 O25 2.025 . S
Sc23 O33 2.105 . S
Sc23 O37 2.105 . S
Sc23 O39 2.105 . S
Sc23 O43 2.105 . S
Sc24 O25 2.025 . S
Sc24 O34 2.105 . S
Sc24 O36 2.105 . S
Sc24 O40 2.105 . S
Sc24 O42 2.105 . S
O25 Sc22 2.025 . S
O25 Sc23 2.025 . S
O25 Sc24 2.025 . S
C26 O32 1.268 . S
C26 O42 1.268 . S
C27 O33 1.268 1_455 S
C27 O41 1.268 . S
C28 O34 1.268 . S
C28 O43 1.268 . S
C29 O35 1.268 1_655 S
C29 O39 1.268 . S
C30 O36 1.268 . S
C30 O38 1.268 . S
C31 O37 1.268 . S
C31 O40 1.268 . S
O32 Sc22 2.105 . S
O32 C26 1.268 . S
O33 Sc23 2.105 . S
O33 C27 1.268 1_655 S
O34 Sc24 2.105 . S
O34 C28 1.268 . S
O35 Sc22 2.105 1_455 S
O35 C29 1.268 1_455 S
O36 Sc24 2.105 . S
O36 C30 1.268 . S
O37 Sc23 2.105 . S
O37 C31 1.268 . S
O38 Sc22 2.105 . S
O38 C30 1.268 . S
O39 Sc23 2.105 . S
O39 C29 1.268 . S
O40 Sc24 2.105 . S
O40 C31 1.268 . S
O41 Sc22 2.105 1_455 S
O41 C27 1.268 . S
O42 Sc24 2.105 . S
O42 C26 1.268 . S
O43 Sc23 2.105 . S
O43 C28 1.268 . S
Sc44 O47 2.025 . S
Sc44 O54 2.105 . S
Sc44 O57 2.105 . S
Sc44 O60 2.105 1_556 S
Sc44 O63 2.105 . S
Sc45 O47 2.025 . S
Sc45 O55 2.105 . S
Sc45 O59 2.105 . S
Sc45 O61 2.105 . S
Sc45 O65 2.105 . S
Sc46 O47 2.025 . S
Sc46 O56 2.105 . S
Sc46 O58 2.105 . S
Sc46 O62 2.105 . S
Sc46 O64 2.105 . S
O47 Sc44 2.025 . S
O47 Sc45 2.025 . S
O47 Sc46 2.025 . S
C48 O54 1.268 . S
C48 O64 1.268 . S
C49 O55 1.268 . S
C49 O63 1.268 . S
C50 O56 1.268 . S
C50 O65 1.268 . S
C51 O57 1.268 . S
C51 O61 1.268 . S
C52 O58 1.268 1_554 S
C52 O60 1.268 . S
C53 O59 1.268 . S
C53 O62 1.268 . S
O54 Sc44 2.105 . S
O54 C48 1.268 . S
O55 Sc45 2.105 . S
O55 C49 1.268 . S
O56 Sc46 2.105 . S
O56 C50 1.268 . S
O57 Sc44 2.105 . S
O57 C51 1.268 . S
O58 Sc46 2.105 . S
O58 C52 1.268 1_556 S
O59 Sc45 2.105 . S
O59 C53 1.268 . S
O60 Sc44 2.105 1_554 S
O60 C52 1.268 . S
O61 Sc45 2.105 . S
O61 C51 1.268 . S
O62 Sc46 2.105 . S
O62 C53 1.268 . S
O63 Sc44 2.105 . S
O63 C49 1.268 . S
O64 Sc46 2.105 . S
O64 C48 1.268 . S
O65 Sc45 2.105 . S
O65 C50 1.268 . S
Sc66 O69 2.025 . S
Sc66 O76 2.105 . S
Sc66 O79 2.105 . S
Sc66 O82 2.105 . S
Sc66 O85 2.105 . S
Sc67 O69 2.025 . S
Sc67 O77 2.105 . S
Sc67 O81 2.105 . S
Sc67 O83 2.105 . S
Sc67 O87 2.105 . S
Sc68 O69 2.025 . S
Sc68 O78 2.105 . S
Sc68 O80 2.105 . S
Sc68 O84 2.105 . S
Sc68 O86 2.105 . S
O69 Sc66 2.025 . S
O69 Sc67 2.025 . S
O69 Sc68 2.025 . S
C70 O76 1.268 . S
C70 O86 1.268 . S
C71 O77 1.268 . S
C71 O85 1.268 . S
C72 O78 1.268 . S
C72 O87 1.268 . S
C73 O79 1.268 . S
C73 O83 1.268 . S
C74 O80 1.268 . S
C74 O82 1.268 . S
C75 O81 1.268 . S
C75 O84 1.268 . S
O76 Sc66 2.105 . S
O76 C70 1.268 . S
O77 Sc67 2.105 . S
O77 C71 1.268 . S
O78 Sc68 2.105 . S
O78 C72 1.268 . S
O79 Sc66 2.105 . S
O79 C73 1.268 . S
O80 Sc68 2.105 . S
O80 C74 1.268 . S
O81 Sc67 2.105 . S
O81 C75 1.268 . S
O82 Sc66 2.105 . S
O82 C74 1.268 . S
O83 Sc67 2.105 . S
O83 C73 1.268 . S
O84 Sc68 2.105 . S
O84 C75 1.268 . S
O85 Sc66 2.105 . S
O85 C71 1.268 . S
O86 Sc68 2.105 . S
O86 C70 1.268 . S
O87 Sc67 2.105 . S
O87 C72 1.268 . S
Sc88 O91 2.025 . S
Sc88 O98 2.105 . S
Sc88 O101 2.105 . S
Sc88 O104 2.105 . S
Sc88 O107 2.105 . S
Sc89 O91 2.025 . S
Sc89 O99 2.105 . S
Sc89 O103 2.105 . S
Sc89 O105 2.105 . S
Sc89 O109 2.105 . S
Sc90 O91 2.025 . S
Sc90 O100 2.105 . S
Sc90 O102 2.105 . S
Sc90 O106 2.105 . S
Sc90 O108 2.105 . S
O91 Sc88 2.025 . S
O91 Sc89 2.025 . S
O91 Sc90 2.025 . S
C92 O98 1.268 . S
C92 O108 1.268 . S
C93 O99 1.268 . S
C93 O107 1.268 . S
C94 O100 1.268 . S
C94 O109 1.268 . S
C95 O101 1.268 . S
C95 O105 1.268 . S
C96 O102 1.268 . S
C96 O104 1.268 . S
C97 O103 1.268 . S
C97 O106 1.268 . S
O98 Sc88 2.105 . S
O98 C92 1.268 . S
O99 Sc89 2.105 . S
O99 C93 1.268 . S
O100 Sc90 2.105 . S
O100 C94 1.268 . S
O101 Sc88 2.105 . S
O101 C95 1.268 . S
O102 Sc90 2.105 . S
O102 C96 1.268 . S
O103 Sc89 2.105 . S
O103 C97 1.268 . S
O104 Sc88 2.105 . S
O104 C96 1.268 . S
O105 Sc89 2.105 . S
O105 C95 1.268 . S
O106 Sc90 2.105 . S
O106 C97 1.268 . S
O107 Sc88 2.105 . S
O107 C93 1.268 . S
O108 Sc90 2.105 . S
O108 C92 1.268 . S
O109 Sc89 2.105 . S
O109 C94 1.268 . S
Sc110 O113 2.025 . S
Sc110 O120 2.105 . S
Sc110 O123 2.105 . S
Sc110 O126 2.105 . S
Sc110 O129 2.105 . S
Sc111 O113 2.025 . S
Sc111 O121 2.105 . S
Sc111 O125 2.105 . S
Sc111 O127 2.105 . S
Sc111 O131 2.105 . S
Sc112 O113 2.025 . S
Sc112 O122 2.105 1_455 S
Sc112 O124 2.105 . S
Sc112 O128 2.105 1_455 S
Sc112 O130 2.105 . S
O113 Sc110 2.025 . S
O113 Sc111 2.025 . S
O113 Sc112 2.025 . S
C114 O120 1.268 . S
C114 O130 1.268 . S
C115 O121 1.268 . S
C115 O129 1.268 . S
C116 O122 1.268 1_455 S
C116 O131 1.268 . S
C117 O123 1.268 . S
C117 O127 1.268 . S
C118 O124 1.268 . S
C118 O126 1.268 . S
C119 O125 1.268 1_655 S
C119 O128 1.268 . S
O120 Sc110 2.105 . S
O120 C114 1.268 . S
O121 Sc111 2.105 . S
O121 C115 1.268 . S
O122 Sc112 2.105 1_655 S
O122 C116 1.268 1_655 S
O123 Sc110 2.105 . S
O123 C117 1.268 . S
O124 Sc112 2.105 . S
O124 C118 1.268 . S
O125 Sc111 2.105 . S
O125 C119 1.268 1_455 S
O126 Sc110 2.105 . S
O126 C118 1.268 . S
O127 Sc111 2.105 . S
O127 C117 1.268 . S
O128 Sc112 2.105 1_655 S
O128 C119 1.268 . S
O129 Sc110 2.105 . S
O129 C115 1.268 . S
O130 Sc112 2.105 . S
O130 C114 1.268 . S
O131 Sc111 2.105 . S
O131 C116 1.268 . S
Sc132 O135 2.025 . S
Sc132 O142 2.105 1_655 S
Sc132 O145 2.105 . S
Sc132 O148 2.105 1_655 S
Sc132 O151 2.105 . S
Sc133 O135 2.025 . S
Sc133 O143 2.105 . S
Sc133 O147 2.105 . S
Sc133 O149 2.105 . S
Sc133 O153 2.105 . S
Sc134 O135 2.025 1_455 S
Sc134 O144 2.105 1_455 S
Sc134 O146 2.105 . S
Sc134 O150 2.105 . S
Sc134 O152 2.105 1_554 S
O135 Sc132 2.025 . S
O135 Sc133 2.025 . S
O135 Sc134 2.025 1_655 S
C136 O142 1.268 1_556 S
C136 O152 1.268 . S
C137 O143 1.268 . S
C137 O151 1.268 . S
C138 O144 1.268 . S
C138 O153 1.268 . S
C139 O145 1.268 . S
C139 O149 1.268 . S
C140 O146 1.268 . S
C140 O148 1.268 . S
C141 O147 1.268 . S
C141 O150 1.268 1_655 S
O142 Sc132 2.105 1_455 S
O142 C136 1.268 1_554 S
O143 Sc133 2.105 . S
O143 C137 1.268 . S
O144 Sc134 2.105 1_655 S
O144 C138 1.268 . S
O145 Sc132 2.105 . S
O145 C139 1.268 . S
O146 Sc134 2.105 . S
O146 C140 1.268 . S
O147 Sc133 2.105 . S
O147 C141 1.268 . S
O148 Sc132 2.105 1_455 S
O148 C140 1.268 . S
O149 Sc133 2.105 . S
O149 C139 1.268 . S
O150 Sc134 2.105 . S
O150 C141 1.268 1_455 S
O151 Sc132 2.105 . S
O151 C137 1.268 . S
O152 Sc134 2.105 1_556 S
O152 C136 1.268 . S
O153 Sc133 2.105 . S
O153 C138 1.268 . S
Sc154 O157 2.025 . S
Sc154 O164 2.105 . S
Sc154 O167 2.105 . S
Sc154 O170 2.105 . S
Sc154 O173 2.105 . S
Sc155 O157 2.025 . S
Sc155 O165 2.105 . S
Sc155 O169 2.105 . S
Sc155 O171 2.105 . S
Sc155 O175 2.105 . S
Sc156 O157 2.025 . S
Sc156 O166 2.105 . S
Sc156 O168 2.105 . S
Sc156 O172 2.105 . S
Sc156 O174 2.105 . S
O157 Sc154 2.025 . S
O157 Sc155 2.025 . S
O157 Sc156 2.025 . S
C158 O164 1.268 . S
C158 O174 1.268 . S
C159 O165 1.268 . S
C159 O173 1.268 . S
C160 O166 1.268 . S
C160 O175 1.268 . S
C161 O167 1.268 . S
C161 O171 1.268 . S
C162 O168 1.268 . S
C162 O170 1.268 . S
C163 O169 1.268 . S
C163 O172 1.268 . S
O164 Sc154 2.105 . S
O164 C158 1.268 . S
O165 Sc155 2.105 . S
O165 C159 1.268 . S
O166 Sc156 2.105 . S
O166 C160 1.268 . S
O167 Sc154 2.105 . S
O167 C161 1.268 . S
O168 Sc156 2.105 . S
O168 C162 1.268 . S
O169 Sc155 2.105 . S
O169 C163 1.268 . S
O170 Sc154 2.105 . S
O170 C162 1.268 . S
O171 Sc155 2.105 . S
O171 C161 1.268 . S
O172 Sc156 2.105 . S
O172 C163 1.268 . S
O173 Sc154 2.105 . S
O173 C159 1.268 . S
O174 Sc156 2.105 . S
O174 C158 1.268 . S
O175 Sc155 2.105 . S
O175 C160 1.268 . S
Sc176 O179 2.025 . S
Sc176 O186 2.105 1_545 S
Sc176 O189 2.105 . S
Sc176 O192 2.105 1_545 S
Sc176 O195 2.105 . S
Sc177 O179 2.025 . S
Sc177 O187 2.105 . S
Sc177 O191 2.105 . S
Sc177 O193 2.105 . S
Sc177 O197 2.105 . S
Sc178 O179 2.025 1_565 S
Sc178 O188 2.105 1_565 S
Sc178 O190 2.105 . S
Sc178 O194 2.105 . S
Sc178 O196 2.105 . S
O179 Sc176 2.025 . S
O179 Sc177 2.025 . S
O179 Sc178 2.025 1_545 S
C180 O186 1.268 . S
C180 O196 1.268 . S
C181 O187 1.268 . S
C181 O195 1.268 . S
C182 O188 1.268 . S
C182 O197 1.268 . S
C183 O189 1.268 . S
C183 O193 1.268 . S
C184 O190 1.268 . S
C184 O192 1.268 . S
C185 O191 1.268 . S
C185 O194 1.268 1_545 S
O186 Sc176 2.105 1_565 S
O186 C180 1.268 . S
O187 Sc177 2.105 . S
O187 C181 1.268 . S
O188 Sc178 2.105 1_545 S
O188 C182 1.268 . S
O189 Sc176 2.105 . S
O189 C183 1.268 . S
O190 Sc178 2.105 . S
O190 C184 1.268 . S
O191 Sc177 2.105 . S
O191 C185 1.268 . S
O192 Sc176 2.105 1_565 S
O192 C184 1.268 . S
O193 Sc177 2.105 . S
O193 C183 1.268 . S
O194 Sc178 2.105 . S
O194 C185 1.268 1_565 S
O195 Sc176 2.105 . S
O195 C181 1.268 . S
O196 Sc178 2.105 . S
O196 C180 1.268 . S
O197 Sc177 2.105 . S
O197 C182 1.268 . S
Sc198 O201 2.025 . S
Sc198 O208 2.105 . S
Sc198 O211 2.105 . S
Sc198 O214 2.105 . S
Sc198 O217 2.105 . S
Sc199 O201 2.025 . S
Sc199 O209 2.105 . S
Sc199 O213 2.105 . S
Sc199 O215 2.105 . S
Sc199 O219 2.105 . S
Sc200 O201 2.025 . S
Sc200 O210 2.105 . S
Sc200 O212 2.105 . S
Sc200 O216 2.105 . S
Sc200 O218 2.105 . S
O201 Sc198 2.025 . S
O201 Sc199 2.025 . S
O201 Sc200 2.025 . S
C202 O208 1.268 . S
C202 O218 1.268 . S
C203 O209 1.268 . S
C203 O217 1.268 . S
C204 O210 1.268 . S
C204 O219 1.268 . S
C205 O211 1.268 . S
C205 O215 1.268 . S
C206 O212 1.268 . S
C206 O214 1.268 . S
C207 O213 1.268 . S
C207 O216 1.268 . S
O208 Sc198 2.105 . S
O208 C202 1.268 . S
O209 Sc199 2.105 . S
O209 C203 1.268 . S
O210 Sc200 2.105 . S
O210 C204 1.268 . S
O211 Sc198 2.105 . S
O211 C205 1.268 . S
O212 Sc200 2.105 . S
O212 C206 1.268 . S
O213 Sc199 2.105 . S
O213 C207 1.268 . S
O214 Sc198 2.105 . S
O214 C206 1.268 . S
O215 Sc199 2.105 . S
O215 C205 1.268 . S
O216 Sc200 2.105 . S
O216 C207 1.268 . S
O217 Sc198 2.105 . S
O217 C203 1.268 . S
O218 Sc200 2.105 . S
O218 C202 1.268 . S
O219 Sc199 2.105 . S
O219 C204 1.268 . S
Sc220 O223 2.025 1_545 S
Sc220 O230 2.105 . S
Sc220 O233 2.105 1_545 S
Sc220 O236 2.105 1_455 S
Sc220 O239 2.105 . S
Sc221 O223 2.025 . S
Sc221 O231 2.105 . S
Sc221 O235 2.105 . S
Sc221 O237 2.105 . S
Sc221 O241 2.105 . S
Sc222 O223 2.025 . S
Sc222 O232 2.105 . S
Sc222 O234 2.105 1_565 S
Sc222 O238 2.105 . S
Sc222 O240 2.105 1_565 S
O223 Sc220 2.025 1_565 S
O223 Sc221 2.025 . S
O223 Sc222 2.025 . S
C224 O230 1.268 . S
C224 O240 1.268 . S
C225 O231 1.268 . S
C225 O239 1.268 1_565 S
C226 O232 1.268 . S
C226 O241 1.268 . S
C227 O233 1.268 . S
C227 O237 1.268 . S
C228 O234 1.268 1_655 S
C228 O236 1.268 . S
C229 O235 1.268 . S
C229 O238 1.268 . S
O230 Sc220 2.105 . S
O230 C224 1.268 . S
O231 Sc221 2.105 . S
O231 C225 1.268 . S
O232 Sc222 2.105 . S
O232 C226 1.268 . S
O233 Sc220 2.105 1_565 S
O233 C227 1.268 . S
O234 Sc222 2.105 1_545 S
O234 C228 1.268 1_455 S
O235 Sc221 2.105 . S
O235 C229 1.268 . S
O236 Sc220 2.105 1_655 S
O236 C228 1.268 . S
O237 Sc221 2.105 . S
O237 C227 1.268 . S
O238 Sc222 2.105 . S
O238 C229 1.268 . S
O239 Sc220 2.105 . S
O239 C225 1.268 1_545 S
O240 Sc222 2.105 1_545 S
O240 C224 1.268 . S
O241 Sc221 2.105 . S
O241 C226 1.268 . S
Sc242 O245 2.025 . S
Sc242 O252 2.105 . S
Sc242 O255 2.105 1_554 S
Sc242 O258 2.105 . S
Sc242 O261 2.105 1_554 S
Sc243 O245 2.025 . S
Sc243 O253 2.105 . S
Sc243 O257 2.105 . S
Sc243 O259 2.105 . S
Sc243 O263 2.105 . S
Sc244 O245 2.025 . S
Sc244 O254 2.105 . S
Sc244 O256 2.105 . S
Sc244 O260 2.105 . S
Sc244 O262 2.105 . S
O245 Sc242 2.025 . S
O245 Sc243 2.025 . S
O245 Sc244 2.025 . S
C246 O252 1.268 . S
C246 O262 1.268 . S
C247 O253 1.268 1_556 S
C247 O261 1.268 . S
C248 O254 1.268 . S
C248 O263 1.268 . S
C249 O255 1.268 1_554 S
C249 O259 1.268 . S
C250 O256 1.268 . S
C250 O258 1.268 . S
C251 O257 1.268 . S
C251 O260 1.268 . S
O252 Sc242 2.105 . S
O252 C246 1.268 . S
O253 Sc243 2.105 . S
O253 C247 1.268 1_554 S
O254 Sc244 2.105 . S
O254 C248 1.268 . S
O255 Sc242 2.105 1_556 S
O255 C249 1.268 1_556 S
O256 Sc244 2.105 . S
O256 C250 1.268 . S
O257 Sc243 2.105 . S
O257 C251 1.268 . S
O258 Sc242 2.105 . S
O258 C250 1.268 . S
O259 Sc243 2.105 . S
O259 C249 1.268 . S
O260 Sc244 2.105 . S
O260 C251 1.268 . S
O261 Sc242 2.105 1_556 S
O261 C247 1.268 . S
O262 Sc244 2.105 . S
O262 C246 1.268 . S
O263 Sc243 2.105 . S
O263 C248 1.268 . S
Sc264 O267 2.025 . S
Sc264 O274 2.105 . S
Sc264 O277 2.105 . S
Sc264 O280 2.105 1_655 S
Sc264 O283 2.105 . S
Sc265 O267 2.025 . S
Sc265 O275 2.105 . S
Sc265 O279 2.105 . S
Sc265 O281 2.105 . S
Sc265 O285 2.105 . S
Sc266 O267 2.025 . S
Sc266 O276 2.105 . S
Sc266 O278 2.105 . S
Sc266 O282 2.105 . S
Sc266 O284 2.105 . S
O267 Sc264 2.025 . S
O267 Sc265 2.025 . S
O267 Sc266 2.025 . S
C268 O274 1.268 . S
C268 O284 1.268 . S
C269 O275 1.268 . S
C269 O283 1.268 . S
C270 O276 1.268 . S
C270 O285 1.268 . S
C271 O277 1.268 . S
C271 O281 1.268 . S
C272 O278 1.268 1_455 S
C272 O280 1.268 . S
C273 O279 1.268 . S
C273 O282 1.268 . S
O274 Sc264 2.105 . S
O274 C268 1.268 . S
O275 Sc265 2.105 . S
O275 C269 1.268 . S
O276 Sc266 2.105 . S
O276 C270 1.268 . S
O277 Sc264 2.105 . S
O277 C271 1.268 . S
O278 Sc266 2.105 . S
O278 C272 1.268 1_655 S
O279 Sc265 2.105 . S
O279 C273 1.268 . S
O280 Sc264 2.105 1_455 S
O280 C272 1.268 . S
O281 Sc265 2.105 . S
O281 C271 1.268 . S
O282 Sc266 2.105 . S
O282 C273 1.268 . S
O283 Sc264 2.105 . S
O283 C269 1.268 . S
O284 Sc266 2.105 . S
O284 C268 1.268 . S
O285 Sc265 2.105 . S
O285 C270 1.268 . S
Sc286 O289 2.025 . S
Sc286 O296 2.105 . S
Sc286 O299 2.105 . S
Sc286 O302 2.105 . S
Sc286 O305 2.105 . S
Sc287 O289 2.025 . S
Sc287 O297 2.105 . S
Sc287 O301 2.105 . S
Sc287 O303 2.105 . S
Sc287 O307 2.105 . S
Sc288 O289 2.025 . S
Sc288 O298 2.105 1_556 S
Sc288 O300 2.105 . S
Sc288 O304 2.105 1_556 S
Sc288 O306 2.105 . S
O289 Sc286 2.025 . S
O289 Sc287 2.025 . S
O289 Sc288 2.025 . S
C290 O296 1.268 . S
C290 O306 1.268 . S
C291 O297 1.268 . S
C291 O305 1.268 . S
C292 O298 1.268 1_556 S
C292 O307 1.268 . S
C293 O299 1.268 . S
C293 O303 1.268 . S
C294 O300 1.268 . S
C294 O302 1.268 . S
C295 O301 1.268 1_554 S
C295 O304 1.268 . S
O296 Sc286 2.105 . S
O296 C290 1.268 . S
O297 Sc287 2.105 . S
O297 C291 1.268 . S
O298 Sc288 2.105 1_554 S
O298 C292 1.268 1_554 S
O299 Sc286 2.105 . S
O299 C293 1.268 . S
O300 Sc288 2.105 . S
O300 C294 1.268 . S
O301 Sc287 2.105 . S
O301 C295 1.268 1_556 S
O302 Sc286 2.105 . S
O302 C294 1.268 . S
O303 Sc287 2.105 . S
O303 C293 1.268 . S
O304 Sc288 2.105 1_554 S
O304 C295 1.268 . S
O305 Sc286 2.105 . S
O305 C291 1.268 . S
O306 Sc288 2.105 . S
O306 C290 1.268 . S
O307 Sc287 2.105 . S
O307 C292 1.268 . S
Sc308 O311 2.025 . S
Sc308 O318 2.105 . S
Sc308 O321 2.105 . S
Sc308 O324 2.105 . S
Sc308 O327 2.105 . S
Sc309 O311 2.025 . S
Sc309 O319 2.105 . S
Sc309 O323 2.105 . S
Sc309 O325 2.105 . S
Sc309 O329 2.105 . S
Sc310 O311 2.025 . S
Sc310 O320 2.105 . S
Sc310 O322 2.105 . S
Sc310 O326 2.105 . S
Sc310 O328 2.105 . S
O311 Sc308 2.025 . S
O311 Sc309 2.025 . S
O311 Sc310 2.025 . S
C312 O318 1.268 . S
C312 O328 1.268 . S
C313 O319 1.268 . S
C313 O327 1.268 . S
C314 O320 1.268 . S
C314 O329 1.268 . S
C315 O321 1.268 . S
C315 O325 1.268 . S
C316 O322 1.268 . S
C316 O324 1.268 . S
C317 O323 1.268 . S
C317 O326 1.268 . S
O318 Sc308 2.105 . S
O318 C312 1.268 . S
O319 Sc309 2.105 . S
O319 C313 1.268 . S
O320 Sc310 2.105 . S
O320 C314 1.268 . S
O321 Sc308 2.105 . S
O321 C315 1.268 . S
O322 Sc310 2.105 . S
O322 C316 1.268 . S
O323 Sc309 2.105 . S
O323 C317 1.268 . S
O324 Sc308 2.105 . S
O324 C316 1.268 . S
O325 Sc309 2.105 . S
O325 C315 1.268 . S
O326 Sc310 2.105 . S
O326 C317 1.268 . S
O327 Sc308 2.105 . S
O327 C313 1.268 . S
O328 Sc310 2.105 . S
O328 C312 1.268 . S
O329 Sc309 2.105 . S
O329 C314 1.268 . S
Sc330 O333 2.025 . S
Sc330 O340 2.105 . S
Sc330 O343 2.105 . S
Sc330 O346 2.105 . S
Sc330 O349 2.105 . S
Sc331 O333 2.025 . S
Sc331 O341 2.105 . S
Sc331 O345 2.105 . S
Sc331 O347 2.105 . S
Sc331 O351 2.105 . S
Sc332 O333 2.025 . S
Sc332 O342 2.105 . S
Sc332 O344 2.105 . S
Sc332 O348 2.105 . S
Sc332 O350 2.105 . S
O333 Sc330 2.025 . S
O333 Sc331 2.025 . S
O333 Sc332 2.025 . S
C334 O340 1.268 . S
C334 O350 1.268 . S
C335 O341 1.268 . S
C335 O349 1.268 . S
C336 O342 1.268 . S
C336 O351 1.268 . S
C337 O343 1.268 . S
C337 O347 1.268 . S
C338 O344 1.268 . S
C338 O346 1.268 . S
C339 O345 1.268 . S
C339 O348 1.268 . S
O340 Sc330 2.105 . S
O340 C334 1.268 . S
O341 Sc331 2.105 . S
O341 C335 1.268 . S
O342 Sc332 2.105 . S
O342 C336 1.268 . S
O343 Sc330 2.105 . S
O343 C337 1.268 . S
O344 Sc332 2.105 . S
O344 C338 1.268 . S
O345 Sc331 2.105 . S
O345 C339 1.268 . S
O346 Sc330 2.105 . S
O346 C338 1.268 . S
O347 Sc331 2.105 . S
O347 C337 1.268 . S
O348 Sc332 2.105 . S
O348 C339 1.268 . S
O349 Sc330 2.105 . S
O349 C335 1.268 . S
O350 Sc332 2.105 . S
O350 C334 1.268 . S
O351 Sc331 2.105 . S
O351 C336 1.268 . S
Sc352 O355 2.025 1_556 S
Sc352 O362 2.105 . S
Sc352 O365 2.105 1_556 S
Sc352 O368 2.105 . S
Sc352 O371 2.105 . S
Sc353 O355 2.025 . S
Sc353 O363 2.105 . S
Sc353 O367 2.105 . S
Sc353 O369 2.105 . S
Sc353 O373 2.105 . S
Sc354 O355 2.025 . S
Sc354 O364 2.105 . S
Sc354 O366 2.105 1_554 S
Sc354 O370 2.105 . S
Sc354 O372 2.105 1_554 S
O355 Sc352 2.025 1_554 S
O355 Sc353 2.025 . S
O355 Sc354 2.025 . S
C356 O362 1.268 . S
C356 O372 1.268 . S
C357 O363 1.268 . S
C357 O371 1.268 1_554 S
C358 O364 1.268 . S
C358 O373 1.268 . S
C359 O365 1.268 . S
C359 O369 1.268 . S
C360 O366 1.268 . S
C360 O368 1.268 . S
C361 O367 1.268 . S
C361 O370 1.268 . S
O362 Sc352 2.105 . S
O362 C356 1.268 . S
O363 Sc353 2.105 . S
O363 C357 1.268 . S
O364 Sc354 2.105 . S
O364 C358 1.268 . S
O365 Sc352 2.105 1_554 S
O365 C359 1.268 . S
O366 Sc354 2.105 1_556 S
O366 C360 1.268 . S
O367 Sc353 2.105 . S
O367 C361 1.268 . S
O368 Sc352 2.105 . S
O368 C360 1.268 . S
O369 Sc353 2.105 . S
O369 C359 1.268 . S
O370 Sc354 2.105 . S
O370 C361 1.268 . S
O371 Sc352 2.105 . S
O371 C357 1.268 1_556 S
O372 Sc354 2.105 1_556 S
O372 C356 1.268 . S
O373 Sc353 2.105 . S
O373 C358 1.268 . S
Sc374 O377 2.025 . S
Sc374 O384 2.105 1_556 S
Sc374 O387 2.105 . S
Sc374 O390 2.105 1_556 S
Sc374 O393 2.105 . S
Sc375 O377 2.025 . S
Sc375 O385 2.105 . S
Sc375 O389 2.105 . S
Sc375 O391 2.105 . S
Sc375 O395 2.105 . S
Sc376 O377 2.025 1_554 S
Sc376 O386 2.105 1_554 S
Sc376 O388 2.105 . S
Sc376 O392 2.105 . S
Sc376 O394 2.105 1_545 S
O377 Sc374 2.025 . S
O377 Sc375 2.025 . S
O377 Sc376 2.025 1_556 S
C378 O384 1.268 1_565 S
C378 O394 1.268 . S
C379 O385 1.268 . S
C379 O393 1.268 . S
C380 O386 1.268 . S
C380 O395 1.268 . S
C381 O387 1.268 . S
C381 O391 1.268 . S
C382 O388 1.268 . S
C382 O390 1.268 . S
C383 O389 1.268 . S
C383 O392 1.268 1_556 S
O384 Sc374 2.105 1_554 S
O384 C378 1.268 1_545 S
O385 Sc375 2.105 . S
O385 C379 1.268 . S
O386 Sc376 2.105 1_556 S
O386 C380 1.268 . S
O387 Sc374 2.105 . S
O387 C381 1.268 . S
O388 Sc376 2.105 . S
O388 C382 1.268 . S
O389 Sc375 2.105 . S
O389 C383 1.268 . S
O390 Sc374 2.105 1_554 S
O390 C382 1.268 . S
O391 Sc375 2.105 . S
O391 C381 1.268 . S
O392 Sc376 2.105 . S
O392 C383 1.268 1_554 S
O393 Sc374 2.105 . S
O393 C379 1.268 . S
O394 Sc376 2.105 1_565 S
O394 C378 1.268 . S
O395 Sc375 2.105 . S
O395 C380 1.268 . S
Sc396 O399 2.025 . S
Sc396 O406 2.105 . S
Sc396 O409 2.105 . S
Sc396 O412 2.105 . S
Sc396 O415 2.105 . S
Sc397 O399 2.025 . S
Sc397 O407 2.105 . S
Sc397 O411 2.105 . S
Sc397 O413 2.105 . S
Sc397 O417 2.105 . S
Sc398 O399 2.025 . S
Sc398 O408 2.105 . S
Sc398 O410 2.105 . S
Sc398 O414 2.105 . S
Sc398 O416 2.105 . S
O399 Sc396 2.025 . S
O399 Sc397 2.025 . S
O399 Sc398 2.025 . S
C400 O406 1.268 . S
C400 O416 1.268 . S
C401 O407 1.268 . S
C401 O415 1.268 . S
C402 O408 1.268 . S
C402 O417 1.268 . S
C403 O409 1.268 . S
C403 O413 1.268 . S
C404 O410 1.268 . S
C404 O412 1.268 . S
C405 O411 1.268 . S
C405 O414 1.268 . S
O406 Sc396 2.105 . S
O406 C400 1.268 . S
O407 Sc397 2.105 . S
O407 C401 1.268 . S
O408 Sc398 2.105 . S
O408 C402 1.268 . S
O409 Sc396 2.105 . S
O409 C403 1.268 . S
O410 Sc398 2.105 . S
O410 C404 1.268 . S
O411 Sc397 2.105 . S
O411 C405 1.268 . S
O412 Sc396 2.105 . S
O412 C404 1.268 . S
O413 Sc397 2.105 . S
O413 C403 1.268 . S
O414 Sc398 2.105 . S
O414 C405 1.268 . S
O415 Sc396 2.105 . S
O415 C401 1.268 . S
O416 Sc398 2.105 . S
O416 C400 1.268 . S
O417 Sc397 2.105 . S
O417 C402 1.268 . S
Sc418 O421 2.025 . S
Sc418 O428 2.105 . S
Sc418 O431 2.105 . S
Sc418 O434 2.105 1_565 S
Sc418 O437 2.105 . S
Sc419 O421 2.025 . S
Sc419 O429 2.105 . S
Sc419 O433 2.105 . S
Sc419 O435 2.105 . S
Sc419 O439 2.105 . S
Sc420 O421 2.025 . S
Sc420 O430 2.105 . S
Sc420 O432 2.105 . S
Sc420 O436 2.105 . S
Sc420 O438 2.105 . S
O421 Sc418 2.025 . S
O421 Sc419 2.025 . S
O421 Sc420 2.025 . S
C422 O428 1.268 . S
C422 O438 1.268 . S
C423 O429 1.268 . S
C423 O437 1.268 . S
C424 O430 1.268 . S
C424 O439 1.268 . S
C425 O431 1.268 . S
C425 O435 1.268 . S
C426 O432 1.268 1_545 S
C426 O434 1.268 . S
C427 O433 1.268 . S
C427 O436 1.268 . S
O428 Sc418 2.105 . S
O428 C422 1.268 . S
O429 Sc419 2.105 . S
O429 C423 1.268 . S
O430 Sc420 2.105 . S
O430 C424 1.268 . S
O431 Sc418 2.105 . S
O431 C425 1.268 . S
O432 Sc420 2.105 . S
O432 C426 1.268 1_565 S
O433 Sc419 2.105 . S
O433 C427 1.268 . S
O434 Sc418 2.105 1_545 S
O434 C426 1.268 . S
O435 Sc419 2.105 . S
O435 C425 1.268 . S
O436 Sc420 2.105 . S
O436 C427 1.268 . S
O437 Sc418 2.105 . S
O437 C423 1.268 . S
O438 Sc420 2.105 . S
O438 C422 1.268 . S
O439 Sc419 2.105 . S
O439 C424 1.268 . S
Sc440 O443 2.025 . S
Sc440 O450 2.105 . S
Sc440 O453 2.105 . S
Sc440 O456 2.105 . S
Sc440 O459 2.105 . S
Sc441 O443 2.025 . S
Sc441 O451 2.105 . S
Sc441 O455 2.105 . S
Sc441 O457 2.105 . S
Sc441 O461 2.105 . S
Sc442 O443 2.025 . S
Sc442 O452 2.105 . S
Sc442 O454 2.105 . S
Sc442 O458 2.105 . S
Sc442 O460 2.105 . S
O443 Sc440 2.025 . S
O443 Sc441 2.025 . S
O443 Sc442 2.025 . S
C444 O450 1.268 . S
C444 O460 1.268 . S
C445 O451 1.268 . S
C445 O459 1.268 . S
C446 O452 1.268 . S
C446 O461 1.268 . S
C447 O453 1.268 . S
C447 O457 1.268 . S
C448 O454 1.268 . S
C448 O456 1.268 . S
C449 O455 1.268 . S
C449 O458 1.268 . S
O450 Sc440 2.105 . S
O450 C444 1.268 . S
O451 Sc441 2.105 . S
O451 C445 1.268 . S
O452 Sc442 2.105 . S
O452 C446 1.268 . S
O453 Sc440 2.105 . S
O453 C447 1.268 . S
O454 Sc442 2.105 . S
O454 C448 1.268 . S
O455 Sc441 2.105 . S
O455 C449 1.268 . S
O456 Sc440 2.105 . S
O456 C448 1.268 . S
O457 Sc441 2.105 . S
O457 C447 1.268 . S
O458 Sc442 2.105 . S
O458 C449 1.268 . S
O459 Sc440 2.105 . S
O459 C445 1.268 . S
O460 Sc442 2.105 . S
O460 C444 1.268 . S
O461 Sc441 2.105 . S
O461 C446 1.268 . S
Sc462 O465 2.025 . S
Sc462 O472 2.105 . S
Sc462 O475 2.105 . S
Sc462 O478 2.105 . S
Sc462 O481 2.105 . S
Sc463 O465 2.025 . S
Sc463 O473 2.105 . S
Sc463 O477 2.105 . S
Sc463 O479 2.105 . S
Sc463 O483 2.105 . S
Sc464 O465 2.025 . S
Sc464 O474 2.105 . S
Sc464 O476 2.105 . S
Sc464 O480 2.105 . S
Sc464 O482 2.105 . S
O465 Sc462 2.025 . S
O465 Sc463 2.025 . S
O465 Sc464 2.025 . S
C466 O472 1.268 . S
C466 O482 1.268 . S
C467 O473 1.268 . S
C467 O481 1.268 . S
C468 O474 1.268 . S
C468 O483 1.268 . S
C469 O475 1.268 . S
C469 O479 1.268 . S
C470 O476 1.268 . S
C470 O478 1.268 . S
C471 O477 1.268 . S
C471 O480 1.268 . S
O472 Sc462 2.105 . S
O472 C466 1.268 . S
O473 Sc463 2.105 . S
O473 C467 1.268 . S
O474 Sc464 2.105 . S
O474 C468 1.268 . S
O475 Sc462 2.105 . S
O475 C469 1.268 . S
O476 Sc464 2.105 . S
O476 C470 1.268 . S
O477 Sc463 2.105 . S
O477 C471 1.268 . S
O478 Sc462 2.105 . S
O478 C470 1.268 . S
O479 Sc463 2.105 . S
O479 C469 1.268 . S
O480 Sc464 2.105 . S
O480 C471 1.268 . S
O481 Sc462 2.105 . S
O481 C467 1.268 . S
O482 Sc464 2.105 . S
O482 C466 1.268 . S
O483 Sc463 2.105 . S
O483 C468 1.268 . S
Sc484 O487 2.025 . S
Sc484 O494 2.105 . S
Sc484 O497 2.105 1_565 S
Sc484 O500 2.105 . S
Sc484 O503 2.105 1_565 S
Sc485 O487 2.025 . S
Sc485 O495 2.105 . S
Sc485 O499 2.105 . S
Sc485 O501 2.105 . S
Sc485 O505 2.105 . S
Sc486 O487 2.025 . S
Sc486 O496 2.105 . S
Sc486 O498 2.105 . S
Sc486 O502 2.105 . S
Sc486 O504 2.105 . S
O487 Sc484 2.025 . S
O487 Sc485 2.025 . S
O487 Sc486 2.025 . S
C488 O494 1.268 . S
C488 O504 1.268 . S
C489 O495 1.268 1_545 S
C489 O503 1.268 . S
C490 O496 1.268 . S
C490 O505 1.268 . S
C491 O497 1.268 1_565 S
C491 O501 1.268 . S
C492 O498 1.268 . S
C492 O500 1.268 . S
C493 O499 1.268 . S
C493 O502 1.268 . S
O494 Sc484 2.105 . S
O494 C488 1.268 . S
O495 Sc485 2.105 . S
O495 C489 1.268 1_565 S
O496 Sc486 2.105 . S
O496 C490 1.268 . S
O497 Sc484 2.105 1_545 S
O497 C491 1.268 1_545 S
O498 Sc486 2.105 . S
O498 C492 1.268 . S
O499 Sc485 2.105 . S
O499 C493 1.268 . S
O500 Sc484 2.105 . S
O500 C492 1.268 . S
O501 Sc485 2.105 . S
O501 C491 1.268 . S
O502 Sc486 2.105 . S
O502 C493 1.268 . S
O503 Sc484 2.105 1_545 S
O503 C489 1.268 . S
O504 Sc486 2.105 . S
O504 C488 1.268 . S
O505 Sc485 2.105 . S
O505 C490 1.268 . S
Sc506 O509 2.025 . S
Sc506 O516 2.105 . S
Sc506 O519 2.105 1_545 S
Sc506 O522 2.105 . S
Sc506 O525 2.105 1_545 S
Sc507 O509 2.025 . S
Sc507 O517 2.105 . S
Sc507 O521 2.105 . S
Sc507 O523 2.105 . S
Sc507 O527 2.105 . S
Sc508 O509 2.025 . S
Sc508 O518 2.105 . S
Sc508 O520 2.105 . S
Sc508 O524 2.105 . S
Sc508 O526 2.105 . S
O509 Sc506 2.025 . S
O509 Sc507 2.025 . S
O509 Sc508 2.025 . S
C510 O516 1.268 . S
C510 O526 1.268 . S
C511 O517 1.268 1_565 S
C511 O525 1.268 . S
C512 O518 1.268 . S
C512 O527 1.268 . S
C513 O519 1.268 1_545 S
C513 O523 1.268 . S
C514 O520 1.268 . S
C514 O522 1.268 . S
C515 O521 1.268 . S
C515 O524 1.268 . S
O516 Sc506 2.105 . S
O516 C510 1.268 . S
O517 Sc507 2.105 . S
O517 C511 1.268 1_545 S
O518 Sc508 2.105 . S
O518 C512 1.268 . S
O519 Sc506 2.105 1_565 S
O519 C513 1.268 1_565 S
O520 Sc508 2.105 . S
O520 C514 1.268 . S
O521 Sc507 2.105 . S
O521 C515 1.268 . S
O522 Sc506 2.105 . S
O522 C514 1.268 . S
O523 Sc507 2.105 . S
O523 C513 1.268 . S
O524 Sc508 2.105 . S
O524 C515 1.268 . S
O525 Sc506 2.105 1_565 S
O525 C511 1.268 . S
O526 Sc508 2.105 . S
O526 C510 1.268 . S
O527 Sc507 2.105 . S
O527 C512 1.268 . S
C4 C338 1.170 . S
C268 C26 1.170 . S
C294 C48 1.170 . S
C70 C316 1.170 . S
C96 C202 1.170 . S
C118 C224 1.170 . S
C140 C246 1.170 . S
C162 C184 1.170 . S
C356 C448 1.170 . S
C382 C510 1.170 . S
C400 C470 1.170 . S
C422 C488 1.170 . S
C466 C9 1.524 . S
C31 C492 1.524 . S
C53 C360 1.524 . S
C75 C514 1.524 . S
C426 C93 1.524 . S
C444 C115 1.524 . S
C137 C378 1.524 . S
C159 C404 1.524 . S
C181 C92 1.524 . S
C207 C114 1.524 . S
C229 C136 1.524 . S
C251 C158 1.524 . S
C8 C273 1.524 . S
C291 C30 1.524 . S
C313 C52 1.524 . S
C335 C74 1.524 . S
C312 C361 1.524 . S
C228 C379 1.524 . S
C405 C250 1.524 . S
C180 C427 1.524 . S
C445 C206 1.524 . S
C272 C467 1.524 . S
C290 C493 1.524 . S
C334 C515 1.524 . S
C401 C6 1.925 . S
C28 C423 1.925 . S
C449 C50 1.925 . S
C72 C383 1.925 1_554 S
C489 C95 1.925 . S
C357 C117 1.925 1_554 S
C511 C139 1.925 . S
C471 C161 1.925 . S
C203 C183 1.925 . S
C225 C204 1.925 1_565 S
C226 C247 1.925 . S
C248 C185 1.925 1_565 S
C339 C270 1.925 . S
C269 C293 1.925 . S
C315 C295 1.925 . S
C337 C317 1.925 . S
C71 C358 1.925 . S
C119 C381 1.925 . S
C141 C402 1.925 1_655 S
C163 C424 1.925 . S
C97 C447 1.925 . S
C27 C469 1.925 . S
C49 C490 1.925 . S
C512 C5 1.925 1_655 S
C7 C205 1.482 . S
C227 C29 1.482 1_455 S
C51 C249 1.482 1_556 S
C73 C182 1.482 . S
C94 C336 1.482 . S
C271 C116 1.482 1_655 S
C138 C292 1.482 1_554 S
C160 C314 1.482 . S
C359 C403 1.482 . S
C380 C491 1.482 1_545 S
C513 C425 1.482 1_545 S
C446 C468 1.482 . S
