# Generated by pormake.
# Topology atn, (4)-cn, num edge types: 1
# Building blocks:
#     Node 0, Type 0, BuildingBlock: UXUYUI_clean_sbu_0, # of connection points: 4
#     Node 1, Type 0, BuildingBlock: UXUYUI_clean_sbu_0, # of connection points: 4
#     Node 2, Type 0, BuildingBlock: UXUYUI_clean_sbu_0, # of connection points: 4
#     Node 3, Type 0, BuildingBlock: UXUYUI_clean_sbu_0, # of connection points: 4
#     Node 4, Type 0, BuildingBlock: UXUYUI_clean_sbu_0, # of connection points: 4
#     Node 5, Type 0, BuildingBlock: UXUYUI_clean_sbu_0, # of connection points: 4
#     Node 6, Type 0, BuildingBlock: UXUYUI_clean_sbu_0, # of connection points: 4
#     Node 7, Type 0, BuildingBlock: UXUYUI_clean_sbu_0, # of connection points: 4
#     Node 8, Type 0, BuildingBlock: UXUYUI_clean_sbu_0, # of connection points: 4
#     Node 9, Type 0, BuildingBlock: UXUYUI_clean_sbu_0, # of connection points: 4
#     Node 10, Type 0, BuildingBlock: UXUYUI_clean_sbu_0, # of connection points: 4
#     Node 11, Type 0, BuildingBlock: UXUYUI_clean_sbu_0, # of connection points: 4
#     Node 12, Type 0, BuildingBlock: UXUYUI_clean_sbu_0, # of connection points: 4
#     Node 13, Type 0, BuildingBlock: UXUYUI_clean_sbu_0, # of connection points: 4
#     Node 14, Type 0, BuildingBlock: UXUYUI_clean_sbu_0, # of connection points: 4
#     Node 15, Type 0, BuildingBlock: UXUYUI_clean_sbu_0, # of connection points: 4
#     Edge 16, Type (0, 0), BuildingBlock: EZIPEK_clean_linker_0, # of connection points: 2
#     Edge 17, Type (0, 0), BuildingBlock: EZIPEK_clean_linker_0, # of connection points: 2
#     Edge 18, Type (0, 0), BuildingBlock: EZIPEK_clean_linker_0, # of connection points: 2
#     Edge 19, Type (0, 0), BuildingBlock: EZIPEK_clean_linker_0, # of connection points: 2
#     Edge 20, Type (0, 0), BuildingBlock: EZIPEK_clean_linker_0, # of connection points: 2
#     Edge 21, Type (0, 0), BuildingBlock: EZIPEK_clean_linker_0, # of connection points: 2
#     Edge 22, Type (0, 0), BuildingBlock: EZIPEK_clean_linker_0, # of connection points: 2
#     Edge 23, Type (0, 0), BuildingBlock: EZIPEK_clean_linker_0, # of connection points: 2
#     Edge 24, Type (0, 0), BuildingBlock: EZIPEK_clean_linker_0, # of connection points: 2
#     Edge 25, Type (0, 0), BuildingBlock: EZIPEK_clean_linker_0, # of connection points: 2
#     Edge 26, Type (0, 0), BuildingBlock: EZIPEK_clean_linker_0, # of connection points: 2
#     Edge 27, Type (0, 0), BuildingBlock: EZIPEK_clean_linker_0, # of connection points: 2
#     Edge 28, Type (0, 0), BuildingBlock: EZIPEK_clean_linker_0, # of connection points: 2
#     Edge 29, Type (0, 0), BuildingBlock: EZIPEK_clean_linker_0, # of connection points: 2
#     Edge 30, Type (0, 0), BuildingBlock: EZIPEK_clean_linker_0, # of connection points: 2
#     Edge 31, Type (0, 0), BuildingBlock: EZIPEK_clean_linker_0, # of connection points: 2
#     Edge 32, Type (0, 0), BuildingBlock: EZIPEK_clean_linker_0, # of connection points: 2
#     Edge 33, Type (0, 0), BuildingBlock: EZIPEK_clean_linker_0, # of connection points: 2
#     Edge 34, Type (0, 0), BuildingBlock: EZIPEK_clean_linker_0, # of connection points: 2
#     Edge 35, Type (0, 0), BuildingBlock: EZIPEK_clean_linker_0, # of connection points: 2
#     Edge 36, Type (0, 0), BuildingBlock: EZIPEK_clean_linker_0, # of connection points: 2
#     Edge 37, Type (0, 0), BuildingBlock: EZIPEK_clean_linker_0, # of connection points: 2
#     Edge 38, Type (0, 0), BuildingBlock: EZIPEK_clean_linker_0, # of connection points: 2
#     Edge 39, Type (0, 0), BuildingBlock: EZIPEK_clean_linker_0, # of connection points: 2
#     Edge 40, Type (0, 0), BuildingBlock: EZIPEK_clean_linker_0, # of connection points: 2
#     Edge 41, Type (0, 0), BuildingBlock: EZIPEK_clean_linker_0, # of connection points: 2
#     Edge 42, Type (0, 0), BuildingBlock: EZIPEK_clean_linker_0, # of connection points: 2
#     Edge 43, Type (0, 0), BuildingBlock: EZIPEK_clean_linker_0, # of connection points: 2
#     Edge 44, Type (0, 0), BuildingBlock: EZIPEK_clean_linker_0, # of connection points: 2
#     Edge 45, Type (0, 0), BuildingBlock: EZIPEK_clean_linker_0, # of connection points: 2
#     Edge 46, Type (0, 0), BuildingBlock: EZIPEK_clean_linker_0, # of connection points: 2
#     Edge 47, Type (0, 0), BuildingBlock: EZIPEK_clean_linker_0, # of connection points: 2
# Relax obj value: 0.164
# Max RMSD: 0.140
# Mean RMSD: 0.140
data_MOF--net-atn--node1-UXUYUI_clean_sbu_0--edge1-EZIPEK_clean_linker_0
_symmetry_space_group_name_H-M    P1
_symmetry_Int_Tables_number       1
_symmetry_cell_setting            triclinic
loop_
_symmetry_equiv_pos_as_xyz
'x, y, z'
_cell_length_a     74.800686
_cell_length_b     74.795647
_cell_length_c     30.689612
_cell_angle_alpha  90.005266
_cell_angle_beta   89.992497
_cell_angle_gamma 89.993313
loop_
_atom_site_label
_atom_site_type_symbol
_atom_site_fract_x
_atom_site_fract_y
_atom_site_fract_z
_atom_type_partial_charge
Li0 Li 0.21603 0.40039 0.00248 0.0
Li1 Li 0.20276 0.37521 0.04192 0.0
Li2 Li 0.23152 0.37169 0.00431 0.0
Li3 Li 0.20402 0.3742 0.96218 0.0
C4 C 0.24106 0.39575 0.06869 0.0
N5 N 0.27203 0.41204 0.09751 0.0
C6 C 0.24507 0.39615 0.11313 0.0
C7 C 0.25279 0.40364 0.03887 0.0
C8 C 0.2608 0.40445 0.12707 0.0
C9 C 0.26838 0.4118 0.0541 0.0
C10 C 0.17395 0.39643 0.00683 0.0
C11 C 0.14225 0.39133 0.99936 0.0
N12 N 0.13897 0.40674 0.0215 0.0
C13 C 0.17025 0.41235 0.02894 0.0
C14 C 0.15983 0.38594 0.9914 0.0
C15 C 0.15249 0.41727 0.03627 0.0
C16 C 0.22094 0.43466 0.96483 0.0
N17 N 0.21814 0.42574 0.00282 0.0
C18 C 0.21666 0.45323 0.0424 0.0
C19 C 0.21619 0.43457 0.04127 0.0
C20 C 0.21932 0.46277 0.00361 0.0
C21 C 0.22167 0.45333 0.96451 0.0
H22 H 0.22235 0.42727 0.93475 0.0
H23 H 0.21393 0.42709 0.07094 0.0
C24 C 0.19447 0.35178 0.10991 0.0
N25 N 0.1903 0.36815 0.09348 0.0
C26 C 0.18659 0.34581 0.14846 0.0
C27 C 0.17055 0.37381 0.15323 0.0
C28 C 0.17872 0.37924 0.11445 0.0
C29 C 0.17455 0.35693 0.17048 0.0
H30 H 0.2041 0.34343 0.09332 0.0
H31 H 0.17607 0.3924 0.10167 0.0
C32 C 0.23525 0.38042 0.9159 0.0
N33 N 0.25133 0.36665 0.84207 0.0
C34 C 0.2373 0.36195 0.91101 0.0
C35 C 0.24139 0.39188 0.88322 0.0
C36 C 0.24547 0.35525 0.87349 0.0
C37 C 0.24947 0.38466 0.84612 0.0
C38 C 0.2009 0.34006 1.00042 0.0
C39 C 0.20912 0.32394 0.98895 0.0
C40 C 0.1825 0.34047 0.00804 0.0
C41 C 0.19871 0.30853 0.98475 0.0
C42 C 0.17255 0.32477 0.00358 0.0
N43 N 0.18079 0.30927 0.99207 0.0
C44 C 0.25319 0.34349 0.02973 0.0
C45 C 0.26877 0.36487 0.98706 0.0
C46 C 0.26798 0.33216 0.02959 0.0
N47 N 0.25371 0.35929 0.00791 0.0
C48 C 0.28396 0.35396 0.98627 0.0
C49 C 0.28343 0.33726 0.00703 0.0
H50 H 0.24102 0.33943 0.04601 0.0
H51 H 0.26878 0.37747 0.96975 0.0
C52 C 0.1814 0.37893 0.889 0.0
N53 N 0.19207 0.36694 0.90991 0.0
C54 C 0.17294 0.37425 0.84997 0.0
C55 C 0.18672 0.34507 0.85461 0.0
C56 C 0.19487 0.35029 0.89343 0.0
C57 C 0.17568 0.35715 0.83249 0.0
H58 H 0.17957 0.39216 0.90252 0.0
H59 H 0.20368 0.3411 0.90989 0.0
O60 O 0.22569 0.38768 0.0547 0.0
O61 O 0.19127 0.39155 0.99882 0.0
O62 O 0.22727 0.38734 0.95233 0.0
O63 O 0.21093 0.35527 0.00443 0.0
H64 H 0.23611 0.39011 0.1366 0.0
H65 H 0.24992 0.4035 0.00436 0.0
H66 H 0.26408 0.40486 0.16139 0.0
H67 H 0.27757 0.41796 0.0314 0.0
H68 H 0.1312 0.3833 0.98775 0.0
H69 H 0.18098 0.42074 0.0407 0.0
H70 H 0.16238 0.37386 0.97309 0.0
H71 H 0.14945 0.42948 0.05367 0.0
H72 H 0.21478 0.46017 0.07304 0.0
H73 H 0.22372 0.46036 0.93407 0.0
H74 H 0.19003 0.33277 0.16132 0.0
H75 H 0.16141 0.38273 0.16989 0.0
H76 H 0.23268 0.35285 0.93593 0.0
H77 H 0.23994 0.40621 0.88648 0.0
H78 H 0.24715 0.34098 0.86937 0.0
H79 H 0.25428 0.39338 0.82056 0.0
H80 H 0.22337 0.32339 0.98291 0.0
H81 H 0.176 0.35271 0.01782 0.0
H82 H 0.20487 0.296 0.97564 0.0
H83 H 0.15829 0.32491 0.00941 0.0
H84 H 0.26723 0.31931 0.04582 0.0
H85 H 0.29573 0.35816 0.96845 0.0
H86 H 0.1645 0.38386 0.83342 0.0
H87 H 0.18914 0.33181 0.84169 0.0
Li88 Li 0.6023 0.21511 0.99923 0.0
Li89 Li 0.62722 0.20248 0.0364 0.0
Li90 Li 0.63069 0.23026 0.99653 0.0
Li91 Li 0.62791 0.20103 0.95662 0.0
C92 C 0.6024 0.23374 0.07144 0.0
N93 N 0.5745 0.24938 0.11656 0.0
C94 C 0.59595 0.22589 0.1097 0.0
C95 C 0.5947 0.24959 0.0563 0.0
C96 C 0.58184 0.23401 0.13203 0.0
C97 C 0.58059 0.25727 0.07949 0.0
C98 C 0.60828 0.17294 0.01321 0.0
C99 C 0.61293 0.14109 0.00817 0.0
N100 N 0.60402 0.13887 0.04644 0.0
C101 C 0.5991 0.17034 0.05238 0.0
C102 C 0.61522 0.15821 0.99081 0.0
C103 C 0.59714 0.15301 0.0687 0.0
C104 C 0.56849 0.22524 0.96422 0.0
N105 N 0.57679 0.21765 0.99906 0.0
C106 C 0.54865 0.21221 0.03361 0.0
C107 C 0.56726 0.21107 0.03323 0.0
C108 C 0.53974 0.21973 0.99788 0.0
C109 C 0.54982 0.22635 0.96285 0.0
H110 H 0.57634 0.23014 0.93716 0.0
H111 H 0.57405 0.20479 0.06013 0.0
C112 C 0.63738 0.20098 0.12428 0.0
N113 N 0.63548 0.19055 0.08826 0.0
C114 C 0.64357 0.19368 0.16329 0.0
C115 C 0.6463 0.16505 0.12733 0.0
C116 C 0.64017 0.17295 0.08888 0.0
C117 C 0.64795 0.1755 0.16499 0.0
H118 H 0.63429 0.21508 0.12256 0.0
H119 H 0.63944 0.16508 0.05947 0.0
C120 C 0.618 0.23806 0.91848 0.0
N121 N 0.62539 0.26654 0.86405 0.0
C122 C 0.63031 0.23612 0.88451 0.0
C123 C 0.6093 0.25441 0.92443 0.0
C124 C 0.63389 0.2507 0.85741 0.0
C125 C 0.61327 0.26867 0.89668 0.0
C126 C 0.66164 0.20499 0.01964 0.0
C127 C 0.66871 0.21728 0.04931 0.0
C128 C 0.66931 0.18802 0.01588 0.0
C129 C 0.68336 0.21236 0.07484 0.0
C130 C 0.68395 0.18361 0.04202 0.0
N131 N 0.69062 0.19577 0.07069 0.0
C132 C 0.64061 0.26555 0.02346 0.0
C133 C 0.65731 0.2531 0.96516 0.0
C134 C 0.65165 0.28063 0.02406 0.0
N135 N 0.64366 0.25217 0.99436 0.0
C136 C 0.66862 0.26793 0.96451 0.0
C137 C 0.66594 0.28175 0.99461 0.0
H138 H 0.63004 0.26425 0.04722 0.0
H139 H 0.65975 0.24203 0.94328 0.0
C140 C 0.62234 0.18253 0.87714 0.0
N141 N 0.63497 0.18855 0.90546 0.0
C142 C 0.62745 0.17463 0.83773 0.0
C143 C 0.6584 0.17908 0.8578 0.0
C144 C 0.65272 0.18695 0.89665 0.0
C145 C 0.64567 0.17299 0.8278 0.0
H146 H 0.60833 0.18419 0.88483 0.0
H147 H 0.66245 0.19221 0.91931 0.0
O148 O 0.61609 0.22589 0.04878 0.0
O149 O 0.6103 0.18975 0.99647 0.0
O150 O 0.61461 0.22406 0.94595 0.0
O151 O 0.64701 0.2094 0.99522 0.0
H152 H 0.6015 0.21347 0.12161 0.0
H153 H 0.59949 0.25583 0.02678 0.0
H154 H 0.57664 0.22801 0.1615 0.0
H155 H 0.57445 0.26948 0.06798 0.0
H156 H 0.61826 0.12958 0.99125 0.0
H157 H 0.59391 0.18158 0.07048 0.0
H158 H 0.62234 0.15999 0.96043 0.0
H159 H 0.5902 0.15082 0.09917 0.0
H160 H 0.54124 0.20688 0.06101 0.0
H161 H 0.5433 0.23211 0.93464 0.0
H162 H 0.64502 0.2021 0.19177 0.0
H163 H 0.64992 0.15103 0.1276 0.0
H164 H 0.63718 0.22359 0.8794 0.0
H165 H 0.59961 0.25609 0.95022 0.0
H166 H 0.64347 0.24942 0.83119 0.0
H167 H 0.60671 0.28144 0.90108 0.0
H168 H 0.66281 0.23041 0.05295 0.0
H169 H 0.66383 0.17826 0.99351 0.0
H170 H 0.68893 0.2217 0.09806 0.0
H171 H 0.68996 0.17049 0.03966 0.0
H172 H 0.64944 0.29103 0.04802 0.0
H173 H 0.67969 0.26837 0.94179 0.0
H174 H 0.61734 0.17011 0.81497 0.0
H175 H 0.67256 0.17809 0.85074 0.0
Li176 Li 0.80172 0.62604 0.04569 0.0
Li177 Li 0.78904 0.60212 0.00402 0.0
Li178 Li 0.80272 0.62735 0.96693 0.0
Li179 Li 0.77452 0.63092 0.00444 0.0
C180 C 0.82433 0.59717 0.02772 0.0
N181 N 0.84368 0.57151 0.07208 0.0
C182 C 0.81871 0.59137 0.06879 0.0
C183 C 0.83978 0.58993 0.0092 0.0
C184 C 0.82868 0.57839 0.0907 0.0
C185 C 0.84938 0.57696 0.03215 0.0
C186 C 0.76199 0.607 0.06513 0.0
C187 C 0.73448 0.59263 0.04374 0.0
N188 N 0.72948 0.59173 0.08629 0.0
C189 C 0.75658 0.60592 0.10863 0.0
C190 C 0.75086 0.60029 0.03237 0.0
C191 C 0.7401 0.59816 0.11868 0.0
C192 C 0.80277 0.63784 0.1319 0.0
N193 N 0.81347 0.6328 0.09827 0.0
C194 C 0.83967 0.63927 0.14004 0.0
C195 C 0.83161 0.63326 0.10164 0.0
C196 C 0.82889 0.64466 0.17502 0.0
C197 C 0.81026 0.64379 0.17095 0.0
H198 H 0.7884 0.63747 0.12809 0.0
H199 H 0.83981 0.6292 0.07435 0.0
C200 C 0.78862 0.56839 0.96305 0.0
N201 N 0.78615 0.57679 0.00189 0.0
C202 C 0.78785 0.54975 0.96056 0.0
C203 C 0.7818 0.54879 0.03796 0.0
C204 C 0.78274 0.56743 0.03899 0.0
C205 C 0.78452 0.53982 0.99845 0.0
H206 H 0.79151 0.57619 0.9342 0.0
H207 H 0.7811 0.57439 0.0696 0.0
C208 C 0.80859 0.65948 0.01277 0.0
N209 N 0.83463 0.68527 0.02401 0.0
C210 C 0.8038 0.67694 0.02397 0.0
C211 C 0.82663 0.65513 0.00728 0.0
C212 C 0.81716 0.68979 0.0295 0.0
C213 C 0.83959 0.66836 0.01309 0.0
C214 C 0.77297 0.62254 0.91533 0.0
C215 C 0.77208 0.64108 0.9098 0.0
C216 C 0.76745 0.61127 0.88163 0.0
C217 C 0.76564 0.64802 0.87058 0.0
C218 C 0.76109 0.61873 0.84288 0.0
N219 N 0.76033 0.6368 0.8382 0.0
C220 C 0.8232 0.62146 0.89088 0.0
C221 C 0.81521 0.65178 0.90263 0.0
C222 C 0.83106 0.62583 0.85091 0.0
N223 N 0.81543 0.63439 0.91565 0.0
C224 C 0.82303 0.65675 0.8632 0.0
C225 C 0.8309 0.64366 0.8368 0.0
H226 H 0.82288 0.6077 0.90171 0.0
H227 H 0.80853 0.66175 0.9222 0.0
C228 C 0.75216 0.65824 0.03225 0.0
N229 N 0.75257 0.64385 0.00523 0.0
C230 C 0.7374 0.66962 0.03253 0.0
C231 C 0.72343 0.65087 0.97806 0.0
C232 C 0.73845 0.63974 0.97907 0.0
C233 C 0.72299 0.66612 0.00461 0.0
H234 H 0.76354 0.66107 0.05287 0.0
H235 H 0.73905 0.62813 0.95813 0.0
O236 O 0.81469 0.60967 0.00518 0.0
O237 O 0.7781 0.61461 0.05504 0.0
O238 O 0.79565 0.6467 0.00801 0.0
O239 O 0.77964 0.61536 0.95298 0.0
H240 H 0.80675 0.59675 0.08359 0.0
H241 H 0.84426 0.59424 0.97735 0.0
H242 H 0.82446 0.57376 0.12248 0.0
H243 H 0.86136 0.57122 0.01819 0.0
H244 H 0.72574 0.58739 0.01872 0.0
H245 H 0.76505 0.61103 0.13438 0.0
H246 H 0.75479 0.60091 0.99853 0.0
H247 H 0.73575 0.59724 0.15222 0.0
H248 H 0.85411 0.63987 0.14235 0.0
H249 H 0.80164 0.64797 0.19742 0.0
H250 H 0.79008 0.54311 0.92966 0.0
H251 H 0.77932 0.54143 0.06774 0.0
H252 H 0.7899 0.68052 0.0284 0.0
H253 H 0.83062 0.64168 0.99874 0.0
H254 H 0.81364 0.70336 0.03821 0.0
H255 H 0.8536 0.66517 0.009 0.0
H256 H 0.77635 0.65003 0.93541 0.0
H257 H 0.76815 0.59689 0.88534 0.0
H258 H 0.7649 0.66234 0.86585 0.0
H259 H 0.75679 0.61016 0.8165 0.0
H260 H 0.83693 0.61544 0.83091 0.0
H261 H 0.82256 0.67058 0.85281 0.0
H262 H 0.73741 0.68132 0.05335 0.0
H263 H 0.71249 0.64787 0.95613 0.0
Li264 Li 0.37423 0.80126 0.04127 0.0
Li265 Li 0.39974 0.78946 0.0034 0.0
Li266 Li 0.37416 0.80136 0.96357 0.0
Li267 Li 0.37077 0.77354 0.00298 0.0
C268 C 0.38715 0.83234 0.00103 0.0
N269 N 0.37957 0.86847 0.9975 0.0
C270 C 0.4008 0.84467 0.99315 0.0
C271 C 0.36964 0.83838 0.00714 0.0
C272 C 0.3967 0.86288 0.99147 0.0
C273 C 0.36608 0.85669 0.00523 0.0
C274 C 0.39089 0.78014 0.09606 0.0
C275 C 0.38465 0.77388 0.17164 0.0
N276 N 0.39816 0.78502 0.18354 0.0
C277 C 0.40472 0.79152 0.10904 0.0
C278 C 0.38078 0.77122 0.12757 0.0
C279 C 0.40819 0.79381 0.15342 0.0
C280 C 0.35075 0.80796 0.11044 0.0
N281 N 0.36659 0.81325 0.09298 0.0
C282 C 0.37124 0.83389 0.1514 0.0
C283 C 0.37684 0.826 0.11243 0.0
C284 C 0.35499 0.82858 0.17009 0.0
C285 C 0.34463 0.81553 0.14923 0.0
H286 H 0.34301 0.79766 0.09445 0.0
H287 H 0.38946 0.82983 0.09802 0.0
C288 C 0.43433 0.79761 0.97425 0.0
N289 N 0.42505 0.78699 0.00221 0.0
C290 C 0.45296 0.79666 0.97252 0.0
C291 C 0.45214 0.77378 0.0282 0.0
C292 C 0.4335 0.77509 0.02865 0.0
C293 C 0.46202 0.78472 0.99998 0.0
H294 H 0.42721 0.8069 0.95352 0.0
H295 H 0.42577 0.76672 0.05035 0.0
C296 C 0.33944 0.78986 0.97929 0.0
N297 N 0.30928 0.78052 0.93249 0.0
C298 C 0.34109 0.78143 0.9388 0.0
C299 C 0.32244 0.79351 0.99596 0.0
C300 C 0.32569 0.77684 0.91564 0.0
C301 C 0.30736 0.78868 0.97182 0.0
C302 C 0.39608 0.76362 0.93949 0.0
C303 C 0.39987 0.76087 0.89541 0.0
C304 C 0.40169 0.75102 0.97027 0.0
C305 C 0.40924 0.74555 0.88282 0.0
C306 C 0.41104 0.73589 0.95638 0.0
N307 N 0.41459 0.73349 0.91331 0.0
C308 C 0.37716 0.81147 0.87538 0.0
C309 C 0.35192 0.82374 0.91144 0.0
C310 C 0.37167 0.81895 0.83585 0.0
N311 N 0.36715 0.81379 0.91195 0.0
C312 C 0.34598 0.8315 0.87268 0.0
C313 C 0.35579 0.8289 0.8343 0.0
H314 H 0.38919 0.80349 0.87678 0.0
H315 H 0.34411 0.82527 0.94084 0.0
C316 C 0.34725 0.74858 0.03836 0.0
N317 N 0.35787 0.7515 0.00312 0.0
C318 C 0.33531 0.73425 0.03883 0.0
C319 C 0.34549 0.72606 0.96674 0.0
C320 C 0.35725 0.74057 0.96767 0.0
C321 C 0.33421 0.723 0.00243 0.0
H322 H 0.34746 0.75791 0.06525 0.0
H323 H 0.36523 0.74354 0.93925 0.0
O324 O 0.39105 0.81448 0.00266 0.0
O325 O 0.38702 0.7781 0.05276 0.0
O326 O 0.35428 0.79425 0.00313 0.0
O327 O 0.38707 0.77868 0.95218 0.0
H328 H 0.41442 0.84019 0.98836 0.0
H329 H 0.35889 0.82907 0.01333 0.0
H330 H 0.40714 0.87257 0.98538 0.0
H331 H 0.35259 0.86155 0.0099 0.0
H332 H 0.37689 0.76712 0.19639 0.0
H333 H 0.41249 0.79879 0.08513 0.0
H334 H 0.37003 0.76237 0.11818 0.0
H335 H 0.41879 0.80266 0.16391 0.0
H336 H 0.37951 0.84392 0.16697 0.0
H337 H 0.33205 0.81115 0.16309 0.0
H338 H 0.46026 0.80526 0.95039 0.0
H339 H 0.45879 0.76444 0.04976 0.0
H340 H 0.3541 0.77841 0.92534 0.0
H341 H 0.32093 0.79997 0.02731 0.0
H342 H 0.32679 0.77032 0.88429 0.0
H343 H 0.29413 0.79141 0.98437 0.0
H344 H 0.39561 0.77047 0.87115 0.0
H345 H 0.39883 0.75282 0.00449 0.0
H346 H 0.41226 0.74326 0.84881 0.0
H347 H 0.41546 0.72605 0.97985 0.0
H348 H 0.37948 0.8167 0.80665 0.0
H349 H 0.33363 0.83908 0.87236 0.0
H350 H 0.32654 0.73234 0.06654 0.0
H351 H 0.34469 0.71774 0.93792 0.0
Li352 Li 0.19965 0.62688 0.04171 0.0
Li353 Li 0.22883 0.63184 0.99865 0.0
Li354 Li 0.20003 0.62696 0.96169 0.0
Li355 Li 0.21354 0.60313 0.99985 0.0
C356 C 0.19753 0.66058 0.98357 0.0
N357 N 0.17851 0.68753 0.94316 0.0
C358 C 0.20575 0.67127 0.95205 0.0
C359 C 0.17967 0.66362 0.99468 0.0
C360 C 0.19589 0.68481 0.93193 0.0
C361 C 0.17027 0.67732 0.97385 0.0
C362 C 0.23136 0.60238 0.07257 0.0
C363 C 0.25573 0.58189 0.08479 0.0
N364 N 0.24559 0.57295 0.11442 0.0
C365 C 0.22123 0.5931 0.10345 0.0
C366 C 0.2488 0.59685 0.0634 0.0
C367 C 0.22865 0.57821 0.12415 0.0
C368 C 0.17688 0.62204 0.11523 0.0
N369 N 0.18756 0.63376 0.09351 0.0
C370 C 0.18281 0.6561 0.14797 0.0
C371 C 0.1906 0.65053 0.10892 0.0
C372 C 0.17197 0.64422 0.17135 0.0
C373 C 0.16893 0.62702 0.15469 0.0
H374 H 0.17477 0.60876 0.10221 0.0
H375 H 0.19924 0.65951 0.09103 0.0
C376 C 0.25553 0.65299 0.95963 0.0
N377 N 0.2501 0.64561 0.99789 0.0
C378 C 0.27004 0.66473 0.95884 0.0
C379 C 0.27329 0.66074 0.0367 0.0
C380 C 0.25872 0.64905 0.03598 0.0
C381 C 0.27886 0.66889 0.99786 0.0
H382 H 0.24829 0.6501 0.92995 0.0
H383 H 0.25396 0.64309 0.06593 0.0
C384 C 0.17678 0.59898 0.97855 0.0
N385 N 0.15459 0.57652 0.93187 0.0
C386 C 0.18304 0.59052 0.94096 0.0
C387 C 0.15924 0.59605 0.99243 0.0
C388 C 0.17163 0.5792 0.91781 0.0
C389 C 0.14822 0.58465 0.96836 0.0
C390 C 0.23565 0.6078 0.92332 0.0
C391 C 0.23036 0.60006 0.88391 0.0
C392 C 0.25364 0.60723 0.93561 0.0
C393 C 0.2431 0.59153 0.8579 0.0
C394 C 0.26598 0.5986 0.90867 0.0
N395 N 0.26049 0.59098 0.87073 0.0
C396 C 0.19762 0.63804 0.87504 0.0
C397 C 0.16932 0.63567 0.90954 0.0
C398 C 0.18961 0.64384 0.83652 0.0
N399 N 0.18745 0.6341 0.91048 0.0
C400 C 0.16074 0.64153 0.87164 0.0
C401 C 0.171 0.64568 0.83473 0.0
H402 H 0.21201 0.63689 0.87693 0.0
H403 H 0.16158 0.6326 0.93835 0.0
C404 C 0.20388 0.5682 0.02426 0.0
N405 N 0.21652 0.57742 0.00158 0.0
C406 C 0.20442 0.54955 0.02621 0.0
C407 C 0.23116 0.55009 0.9821 0.0
C408 C 0.23019 0.56874 0.98131 0.0
C409 C 0.21807 0.54034 0.00447 0.0
H410 H 0.1933 0.57535 0.04076 0.0
H411 H 0.24037 0.57614 0.96442 0.0
O412 O 0.20676 0.64689 0.00262 0.0
O413 O 0.22408 0.61656 0.05078 0.0
O414 O 0.18769 0.61014 0.0018 0.0
O415 O 0.22339 0.61649 0.94881 0.0
H416 H 0.21953 0.66899 0.9429 0.0
H417 H 0.17307 0.65534 0.01872 0.0
H418 H 0.20203 0.69312 0.90728 0.0
H419 H 0.15641 0.67978 0.98195 0.0
H420 H 0.26917 0.57738 0.07777 0.0
H421 H 0.2077 0.5972 0.11084 0.0
H422 H 0.25685 0.60396 0.03984 0.0
H423 H 0.22091 0.5708 0.14782 0.0
H424 H 0.18541 0.66944 0.16019 0.0
H425 H 0.16063 0.61757 0.17218 0.0
H426 H 0.27404 0.67091 0.92843 0.0
H427 H 0.27982 0.6638 0.0673 0.0
H428 H 0.19658 0.59258 0.92997 0.0
H429 H 0.1542 0.60254 0.02149 0.0
H430 H 0.17632 0.57252 0.88871 0.0
H431 H 0.1346 0.58225 0.9787 0.0
H432 H 0.21658 0.60069 0.87332 0.0
H433 H 0.25804 0.61322 0.96575 0.0
H434 H 0.23917 0.58542 0.82742 0.0
H435 H 0.27992 0.59796 0.91794 0.0
H436 H 0.19783 0.64707 0.80856 0.0
H437 H 0.14633 0.64294 0.87114 0.0
H438 H 0.19418 0.54237 0.04399 0.0
H439 H 0.24194 0.54333 0.96526 0.0
Li440 Li 0.37139 0.22969 0.99779 0.0
Li441 Li 0.37404 0.20046 0.03773 0.0
Li442 Li 0.3996 0.21437 0.99484 0.0
Li443 Li 0.37457 0.20187 0.95794 0.0
C444 C 0.38404 0.23746 0.07558 0.0
N445 N 0.37648 0.26606 0.12953 0.0
C446 C 0.37197 0.23547 0.11001 0.0
C447 C 0.39242 0.25393 0.0689 0.0
C448 C 0.3683 0.2501 0.13687 0.0
C449 C 0.38837 0.26825 0.09642 0.0
C450 C 0.34017 0.20489 0.97495 0.0
C451 C 0.31729 0.18408 0.9528 0.0
N452 N 0.31098 0.19635 0.92392 0.0
C453 C 0.33347 0.2173 0.94506 0.0
C454 C 0.33203 0.18815 0.97893 0.0
C455 C 0.3187 0.21272 0.91955 0.0
C456 C 0.36199 0.2653 0.97196 0.0
N457 N 0.35863 0.25173 1.00032 0.0
C458 C 0.33402 0.26775 0.03099 0.0
C459 C 0.34498 0.25268 0.0295 0.0
C460 C 0.33705 0.2818 0.00176 0.0
C461 C 0.3513 0.28063 0.97222 0.0
H462 H 0.37259 0.26401 0.94826 0.0
H463 H 0.34234 0.24149 0.05086 0.0
C464 C 0.37975 0.18207 0.11719 0.0
N465 N 0.36705 0.18803 0.08898 0.0
C466 C 0.37474 0.17422 0.15671 0.0
C467 C 0.34373 0.17858 0.13696 0.0
C468 C 0.34933 0.18643 0.098 0.0
C469 C 0.35654 0.17254 0.16685 0.0
H470 H 0.39375 0.18376 0.10932 0.0
H471 H 0.33954 0.19165 0.07545 0.0
C472 C 0.39977 0.23255 0.92255 0.0
N473 N 0.42826 0.2471 0.87742 0.0
C474 C 0.40626 0.22416 0.88501 0.0
C475 C 0.40775 0.24838 0.93698 0.0
C476 C 0.42067 0.23173 0.86265 0.0
C477 C 0.42216 0.25549 0.9138 0.0
C478 C 0.39317 0.17218 0.98095 0.0
C479 C 0.40203 0.16942 0.94142 0.0
C480 C 0.38617 0.15758 0.00369 0.0
C481 C 0.40363 0.15205 0.9251 0.0
C482 C 0.38809 0.14042 0.98632 0.0
N483 N 0.39669 0.13803 0.9477 0.0
C484 C 0.43337 0.22518 0.02883 0.0
C485 C 0.43471 0.20962 0.96164 0.0
C486 C 0.45203 0.22646 0.03005 0.0
N487 N 0.42513 0.21684 0.99494 0.0
C488 C 0.45331 0.21087 0.96112 0.0
C489 C 0.46216 0.21921 0.99585 0.0
H490 H 0.42549 0.2306 0.05524 0.0
H491 H 0.42795 0.20278 0.93549 0.0
C492 C 0.36439 0.20011 0.86992 0.0
N493 N 0.36604 0.18988 0.90635 0.0
C494 C 0.35801 0.1927 0.8312 0.0
C495 C 0.35456 0.1644 0.86829 0.0
C496 C 0.36089 0.17241 0.90642 0.0
C497 C 0.35317 0.17463 0.83021 0.0
H498 H 0.36783 0.21414 0.87108 0.0
H499 H 0.36144 0.16472 0.93614 0.0
O500 O 0.38748 0.22341 0.04826 0.0
O501 O 0.35492 0.20895 0.99934 0.0
O502 O 0.38583 0.22522 0.94528 0.0
O503 O 0.3915 0.18904 0.99769 0.0
H504 H 0.36533 0.22285 0.11569 0.0
H505 H 0.4019 0.25567 0.04266 0.0
H506 H 0.3589 0.24878 0.16347 0.0
H507 H 0.39467 0.2811 0.09144 0.0
H508 H 0.31092 0.17114 0.95532 0.0
H509 H 0.33973 0.23024 0.94123 0.0
H510 H 0.33723 0.1783 0.00143 0.0
H511 H 0.31341 0.22216 0.89616 0.0
H512 H 0.32297 0.26824 0.05379 0.0
H513 H 0.35378 0.29123 0.94895 0.0
H514 H 0.3849 0.16975 0.17938 0.0
H515 H 0.3296 0.17758 0.1442 0.0
H516 H 0.40051 0.21174 0.87369 0.0
H517 H 0.40298 0.25501 0.966 0.0
H518 H 0.42589 0.22531 0.83374 0.0
H519 H 0.42851 0.26768 0.92479 0.0
H520 H 0.40725 0.18057 0.92303 0.0
H521 H 0.37929 0.15948 0.03435 0.0
H522 H 0.41032 0.14973 0.89436 0.0
H523 H 0.38271 0.12899 0.00351 0.0
H524 H 0.45851 0.23286 0.05749 0.0
H525 H 0.46076 0.20505 0.93438 0.0
H526 H 0.35679 0.20096 0.80237 0.0
H527 H 0.3506 0.15048 0.86856 0.0
Li528 Li 0.79981 0.37404 0.03961 0.0
Li529 Li 0.77277 0.37115 1.00065 0.0
Li530 Li 0.80073 0.37289 0.9599 0.0
Li531 Li 0.78763 0.40007 0.0009 0.0
C532 C 0.79194 0.33853 0.02268 0.0
N533 N 0.78983 0.30677 0.06827 0.0
C534 C 0.78068 0.3371 0.05881 0.0
C535 C 0.80209 0.3238 0.00957 0.0
C536 C 0.7798 0.32094 0.08147 0.0
C537 C 0.80085 0.30785 0.0331 0.0
C538 C 0.76286 0.39112 0.07549 0.0
C539 C 0.73703 0.40949 0.09016 0.0
N540 N 0.73327 0.39928 0.12566 0.0
C541 C 0.75888 0.38097 0.1125 0.0
C542 C 0.75197 0.40563 0.06451 0.0
C543 C 0.7438 0.38524 0.13727 0.0
C544 C 0.80832 0.37594 0.12894 0.0
N545 N 0.81213 0.36704 0.09143 0.0
C546 C 0.83172 0.34718 0.12948 0.0
C547 C 0.82379 0.35307 0.09086 0.0
C548 C 0.82762 0.35585 0.16871 0.0
C549 C 0.81598 0.37053 0.16828 0.0
H550 H 0.79912 0.38709 0.12837 0.0
H551 H 0.82673 0.34635 0.06052 0.0
C552 C 0.75138 0.34236 0.97684 0.0
N553 N 0.75039 0.35834 0.99795 0.0
C554 C 0.73667 0.33095 0.97556 0.0
C555 C 0.71967 0.35298 0.01558 0.0
C556 C 0.73479 0.36399 0.01621 0.0
C557 C 0.72073 0.33615 0.99573 0.0
H558 H 0.76376 0.33832 0.96156 0.0
H559 H 0.73402 0.37688 0.0317 0.0
C560 C 0.82881 0.39096 0.02034 0.0
N561 N 0.86043 0.39064 0.0668 0.0
C562 C 0.83164 0.40337 0.05366 0.0
C563 C 0.84207 0.37843 0.01048 0.0
C564 C 0.84771 0.40297 0.07684 0.0
C565 C 0.85797 0.37849 0.03435 0.0
C566 C 0.76211 0.38547 0.9282 0.0
C567 C 0.75933 0.37197 0.89746 0.0
C568 C 0.74821 0.39724 0.93834 0.0
C569 C 0.74255 0.37027 0.87789 0.0
C570 C 0.73163 0.39512 0.91803 0.0
N571 N 0.72916 0.38177 0.88854 0.0
C572 C 0.80687 0.35011 0.88924 0.0
C573 C 0.82707 0.37452 0.89309 0.0
C574 C 0.81473 0.34421 0.85059 0.0
N575 N 0.81299 0.36511 0.90927 0.0
C576 C 0.83554 0.36891 0.85483 0.0
C577 C 0.82919 0.3537 0.83293 0.0
H578 H 0.79573 0.34285 0.90311 0.0
H579 H 0.83163 0.38642 0.90976 0.0
C580 C 0.78839 0.43465 0.03766 0.0
N581 N 0.78585 0.4254 1.00002 0.0
C582 C 0.78783 0.45332 0.0376 0.0
C583 C 0.78184 0.45256 0.96014 0.0
C584 C 0.78257 0.4339 0.96167 0.0
C585 C 0.7846 0.4624 0.99843 0.0
H586 H 0.79095 0.4275 0.06766 0.0
H587 H 0.78068 0.42617 0.93223 0.0
O588 O 0.79317 0.35429 1.00025 0.0
O589 O 0.77773 0.38729 0.0512 0.0
O590 O 0.81291 0.39069 0.99841 0.0
O591 O 0.77822 0.38691 0.94899 0.0
H592 H 0.77267 0.34834 0.06908 0.0
H593 H 0.81088 0.32472 0.98163 0.0
H594 H 0.77114 0.31965 0.10952 0.0
H595 H 0.80866 0.29634 0.02342 0.0
H596 H 0.72843 0.42061 0.08185 0.0
H597 H 0.76738 0.37 0.12227 0.0
H598 H 0.75493 0.4138 0.03642 0.0
H599 H 0.74051 0.37745 0.16586 0.0
H600 H 0.8407 0.33583 0.12893 0.0
H601 H 0.81261 0.37746 0.19816 0.0
H602 H 0.7378 0.31805 0.95975 0.0
H603 H 0.70744 0.35735 0.0312 0.0
H604 H 0.82145 0.41306 0.06188 0.0
H605 H 0.83999 0.3686 0.98511 0.0
H606 H 0.85004 0.41241 0.10292 0.0
H607 H 0.86831 0.36881 0.02727 0.0
H608 H 0.76993 0.36274 0.88924 0.0
H609 H 0.75017 0.40784 0.96178 0.0
H610 H 0.74016 0.35977 0.85436 0.0
H611 H 0.72072 0.40406 0.92578 0.0
H612 H 0.80958 0.33238 0.83453 0.0
H613 H 0.84673 0.37645 0.84206 0.0
H614 H 0.79002 0.46061 0.06762 0.0
H615 H 0.77935 0.45927 0.92945 0.0
Li616 Li 0.62807 0.79922 0.03841 0.0
Li617 Li 0.63127 0.77063 1.00045 0.0
Li618 Li 0.62788 0.79976 0.95942 0.0
Li619 Li 0.6021 0.78642 0.9968 0.0
C620 C 0.6626 0.79787 0.01834 0.0
N621 N 0.69249 0.81058 0.06134 0.0
C622 C 0.67386 0.78607 0.04058 0.0
C623 C 0.66674 0.81608 0.0173 0.0
C624 C 0.68887 0.79276 0.06225 0.0
C625 C 0.68184 0.82227 0.03946 0.0
C626 C 0.60947 0.76179 0.07193 0.0
C627 C 0.59232 0.73456 0.07724 0.0
N628 N 0.59878 0.73191 0.11815 0.0
C629 C 0.61574 0.75892 0.11427 0.0
C630 C 0.5975 0.74961 0.05346 0.0
C631 C 0.61027 0.74369 0.137 0.0
C632 C 0.63024 0.82832 0.09883 0.0
N633 N 0.63525 0.81117 0.0905 0.0
C634 C 0.65144 0.80974 0.15756 0.0
C635 C 0.64556 0.80181 0.119 0.0
C636 C 0.64651 0.82739 0.16689 0.0
C637 C 0.63578 0.83677 0.13721 0.0
H638 H 0.62193 0.83541 0.07578 0.0
H639 H 0.64928 0.78818 0.11163 0.0
C640 C 0.64853 0.741 0.96229 0.0
N641 N 0.64382 0.74845 0.00107 0.0
C642 C 0.65992 0.72621 0.96116 0.0
C643 C 0.66128 0.72692 0.03987 0.0
C644 C 0.64972 0.74158 0.03951 0.0
C645 C 0.66673 0.71932 1.00029 0.0
H646 H 0.64403 0.747 0.93217 0.0
H647 H 0.64631 0.74811 0.06977 0.0
C648 C 0.60671 0.8274 0.97919 0.0
N649 N 0.599 0.85887 0.93588 0.0
C650 C 0.59035 0.82947 0.95776 0.0
C651 C 0.61901 0.84146 0.97919 0.0
C652 C 0.58673 0.84545 0.93593 0.0
C653 C 0.61491 0.85722 0.95691 0.0
C654 C 0.60743 0.76494 0.92075 0.0
C655 C 0.60184 0.77098 0.87986 0.0
C656 C 0.60422 0.7472 0.93277 0.0
C657 C 0.59268 0.75931 0.85219 0.0
C658 C 0.59504 0.73594 0.90419 0.0
N659 N 0.58947 0.74219 0.86485 0.0
C660 C 0.65319 0.81345 0.89999 0.0
C661 C 0.62308 0.81793 0.87843 0.0
C662 C 0.65932 0.82111 0.86127 0.0
N663 N 0.63535 0.81197 0.90778 0.0
C664 C 0.62862 0.82569 0.83927 0.0
C665 C 0.64693 0.82719 0.83039 0.0
H666 H 0.66267 0.80832 0.9234 0.0
H667 H 0.60898 0.8163 0.88494 0.0
C668 C 0.56797 0.78323 0.03516 0.0
N669 N 0.57661 0.78395 0.99617 0.0
C670 C 0.54932 0.78249 0.03671 0.0
C671 C 0.54872 0.78346 0.95799 0.0
C672 C 0.56739 0.78406 0.95794 0.0
C673 C 0.53954 0.78276 0.99775 0.0
H674 H 0.57559 0.78351 0.06511 0.0
H675 H 0.57446 0.78524 0.92746 0.0
O676 O 0.64759 0.79163 0.99784 0.0
O677 O 0.61473 0.77665 0.04921 0.0
O678 O 0.61059 0.81175 1.0003 0.0
O679 O 0.61653 0.77618 0.94812 0.0
H680 H 0.671 0.77193 0.04142 0.0
H681 H 0.65837 0.82535 0.99969 0.0
H682 H 0.69761 0.78379 0.07986 0.0
H683 H 0.6851 0.83636 0.03923 0.0
H684 H 0.58309 0.72502 0.06324 0.0
H685 H 0.6248 0.76831 0.1294 0.0
H686 H 0.59206 0.75186 0.02135 0.0
H687 H 0.61513 0.74126 0.16966 0.0
H688 H 0.65971 0.80219 0.17994 0.0
H689 H 0.63177 0.85043 0.14371 0.0
H690 H 0.66405 0.7207 0.93009 0.0
H691 H 0.66649 0.72201 0.07055 0.0
H692 H 0.58059 0.81884 0.95776 0.0
H693 H 0.6316 0.84023 0.99615 0.0
H694 H 0.57417 0.84718 0.91898 0.0
H695 H 0.62438 0.86816 0.95639 0.0
H696 H 0.6044 0.78456 0.86968 0.0
H697 H 0.60898 0.74207 0.96356 0.0
H698 H 0.58814 0.76387 0.82062 0.0
H699 H 0.59242 0.72221 0.91318 0.0
H700 H 0.67355 0.822 0.85508 0.0
H701 H 0.61877 0.83017 0.81582 0.0
H702 H 0.54257 0.78208 0.06792 0.0
H703 H 0.5415 0.78389 0.92741 0.0
Li704 Li 0.71358 0.90051 0.4998 0.0
Li705 Li 0.70124 0.87633 0.53917 0.0
Li706 Li 0.72899 0.87256 0.49961 0.0
Li707 Li 0.6999 0.87459 0.45915 0.0
C708 C 0.73052 0.90305 0.57106 0.0
N709 N 0.74208 0.93429 0.61013 0.0
C710 C 0.71974 0.91174 0.6017 0.0
C711 C 0.74718 0.91029 0.56029 0.0
C712 C 0.72583 0.9275 0.62111 0.0
C713 C 0.75277 0.9261 0.58037 0.0
C714 C 0.67107 0.89227 0.51444 0.0
C715 C 0.64011 0.88348 0.509 0.0
N716 N 0.63666 0.89192 0.54735 0.0
C717 C 0.66718 0.90093 0.55371 0.0
C718 C 0.65741 0.88351 0.49182 0.0
C719 C 0.64972 0.90056 0.56985 0.0
C720 C 0.72963 0.93365 0.47434 0.0
N721 N 0.7161 0.92604 0.49747 0.0
C722 C 0.70555 0.95481 0.51972 0.0
C723 C 0.70408 0.93622 0.51964 0.0
C724 C 0.71942 0.96295 0.49639 0.0
C725 C 0.73157 0.95225 0.47341 0.0
H726 H 0.73893 0.92531 0.45673 0.0
H727 H 0.69342 0.92989 0.53756 0.0
C728 C 0.69863 0.86955 0.62942 0.0
N729 N 0.68939 0.86822 0.59138 0.0
C730 C 0.69124 0.86325 0.66826 0.0
C731 C 0.66511 0.85379 0.62811 0.0
C732 C 0.673 0.86028 0.59 0.0
C733 C 0.67431 0.85529 0.66771 0.0
H734 H 0.71192 0.87519 0.62953 0.0
H735 H 0.66617 0.85872 0.55924 0.0
C736 C 0.73704 0.88347 0.42126 0.0
N737 N 0.76579 0.87402 0.36953 0.0
C738 C 0.73455 0.87232 0.3852 0.0
C739 C 0.75414 0.88994 0.43074 0.0
C740 C 0.74925 0.86769 0.35948 0.0
C741 C 0.76851 0.88495 0.40431 0.0
C742 C 0.70529 0.8414 0.52471 0.0
C743 C 0.71748 0.83676 0.55733 0.0
C744 C 0.68987 0.83113 0.51878 0.0
C745 C 0.71404 0.82188 0.5835 0.0
C746 C 0.68692 0.81634 0.54563 0.0
N747 N 0.69896 0.81206 0.57715 0.0
C748 C 0.7646 0.86285 0.52576 0.0
C749 C 0.75121 0.84511 0.4706 0.0
C750 C 0.77968 0.85179 0.52608 0.0
N751 N 0.75078 0.8593 0.4983 0.0
C752 C 0.76595 0.83369 0.46998 0.0
C753 C 0.78026 0.83689 0.49834 0.0
H754 H 0.76373 0.87391 0.54826 0.0
H755 H 0.73987 0.84244 0.44973 0.0
C756 C 0.68102 0.87926 0.38015 0.0
N757 N 0.68774 0.86686 0.40814 0.0
C758 C 0.6734 0.8739 0.34065 0.0
C759 C 0.67961 0.84315 0.35985 0.0
C760 C 0.68716 0.84909 0.39885 0.0
C761 C 0.67279 0.85566 0.33022 0.0
H762 H 0.68191 0.89331 0.38821 0.0
H763 H 0.69301 0.83957 0.4212 0.0
O764 O 0.7246 0.88783 0.55089 0.0
O765 O 0.68807 0.8925 0.49793 0.0
O766 O 0.72287 0.88781 0.4475 0.0
O767 O 0.70821 0.85619 0.4995 0.0
H768 H 0.7067 0.90654 0.60998 0.0
H769 H 0.75559 0.90397 0.53619 0.0
H770 H 0.71759 0.93439 0.64471 0.0
H771 H 0.76558 0.9319 0.57212 0.0
H772 H 0.62943 0.87671 0.49189 0.0
H773 H 0.67758 0.90753 0.57208 0.0
H774 H 0.66011 0.87673 0.46143 0.0
H775 H 0.64658 0.90707 0.60039 0.0
H776 H 0.69595 0.96278 0.53765 0.0
H777 H 0.74238 0.95823 0.45499 0.0
H778 H 0.69875 0.86433 0.69833 0.0
H779 H 0.6521 0.84746 0.62669 0.0
H780 H 0.72145 0.86719 0.37721 0.0
H781 H 0.75637 0.89844 0.45868 0.0
H782 H 0.74751 0.85901 0.3316 0.0
H783 H 0.78183 0.88972 0.41156 0.0
H784 H 0.72935 0.84472 0.56281 0.0
H785 H 0.68016 0.8347 0.49415 0.0
H786 H 0.72332 0.81818 0.60899 0.0
H787 H 0.675 0.80832 0.54156 0.0
H788 H 0.7905 0.85447 0.54859 0.0
H789 H 0.76599 0.82222 0.44844 0.0
H790 H 0.6683 0.88384 0.31819 0.0
H791 H 0.67942 0.82899 0.35239 0.0
Li792 Li 0.10069 0.71427 0.50278 0.0
Li793 Li 0.12592 0.70027 0.54127 0.0
Li794 Li 0.13033 0.72926 0.50004 0.0
Li795 Li 0.12655 0.70072 0.46226 0.0
C796 C 0.10679 0.73562 0.57992 0.0
N797 N 0.09035 0.75884 0.63743 0.0
C798 C 0.10148 0.72967 0.62111 0.0
C799 C 0.10405 0.75348 0.56835 0.0
C800 C 0.09309 0.74158 0.64961 0.0
C801 C 0.09564 0.76499 0.59776 0.0
C802 C 0.1038 0.6733 0.52074 0.0
C803 C 0.11059 0.64325 0.54397 0.0
N804 N 0.09429 0.64219 0.56341 0.0
C805 C 0.08704 0.67185 0.54059 0.0
C806 C 0.11561 0.65883 0.52204 0.0
C807 C 0.0825 0.65603 0.56211 0.0
C808 C 0.06675 0.71696 0.4635 0.0
N809 N 0.07529 0.71744 0.50262 0.0
C810 C 0.0474 0.72043 0.54008 0.0
C811 C 0.06602 0.71911 0.54057 0.0
C812 C 0.03831 0.71986 0.5002 0.0
C813 C 0.04812 0.71821 0.4615 0.0
H814 H 0.07441 0.71535 0.43386 0.0
H815 H 0.073 0.71891 0.5713 0.0
C816 C 0.15046 0.6867 0.60266 0.0
N817 N 0.13272 0.68799 0.5934 0.0
C818 C 0.15613 0.6791 0.64186 0.0
C819 C 0.1252 0.67405 0.66117 0.0
C820 C 0.12012 0.68185 0.62169 0.0
C821 C 0.14339 0.67281 0.6716 0.0
H822 H 0.1602 0.69196 0.58003 0.0
H823 H 0.1061 0.6834 0.61414 0.0
C824 C 0.10867 0.7385 0.42811 0.0
N825 N 0.09801 0.76838 0.38193 0.0
C826 C 0.11475 0.74122 0.38555 0.0
C827 C 0.09694 0.75083 0.44687 0.0
C828 C 0.10928 0.75646 0.36283 0.0
C829 C 0.09176 0.76588 0.42309 0.0
C830 C 0.16096 0.70121 0.48331 0.0
C831 C 0.17247 0.71268 0.46082 0.0
C832 C 0.16472 0.68293 0.4849 0.0
C833 C 0.18738 0.70559 0.43951 0.0
C834 C 0.17974 0.67634 0.4631 0.0
N835 N 0.19065 0.68771 0.441 0.0
C836 C 0.14843 0.75825 0.53867 0.0
C837 C 0.14897 0.75835 0.46139 0.0
C838 C 0.15979 0.77307 0.54 0.0
N839 N 0.14335 0.75118 0.49976 0.0
C840 C 0.16042 0.7731 0.46121 0.0
C841 C 0.16612 0.78041 0.5009 0.0
H842 H 0.14413 0.75202 0.56869 0.0
H843 H 0.14526 0.75213 0.43097 0.0
C844 C 0.12844 0.67143 0.4022 0.0
N845 N 0.13369 0.68852 0.41044 0.0
C846 C 0.1339 0.66285 0.36392 0.0
C847 C 0.15004 0.68959 0.34356 0.0
C848 C 0.14418 0.69768 0.38195 0.0
C849 C 0.14487 0.67201 0.33432 0.0
H850 H 0.11998 0.6645 0.42523 0.0
H851 H 0.14805 0.71128 0.38919 0.0
O852 O 0.11514 0.72413 0.55175 0.0
O853 O 0.10854 0.68875 0.49983 0.0
O854 O 0.11391 0.72362 0.45077 0.0
O855 O 0.14604 0.70784 0.50347 0.0
H856 H 0.10367 0.71596 0.63089 0.0
H857 H 0.10858 0.75852 0.53726 0.0
H858 H 0.08879 0.7371 0.68145 0.0
H859 H 0.0934 0.77883 0.58914 0.0
H860 H 0.11966 0.632 0.54549 0.0
H861 H 0.07766 0.68284 0.53961 0.0
H862 H 0.12852 0.65963 0.50641 0.0
H863 H 0.06962 0.65477 0.57782 0.0
H864 H 0.04012 0.72151 0.57049 0.0
H865 H 0.04141 0.71762 0.43027 0.0
H866 H 0.17027 0.67839 0.64926 0.0
H867 H 0.11508 0.66942 0.68376 0.0
H868 H 0.12365 0.73172 0.37024 0.0
H869 H 0.09169 0.74871 0.47923 0.0
H870 H 0.11398 0.75879 0.32998 0.0
H871 H 0.0827 0.77554 0.4373 0.0
H872 H 0.16985 0.72688 0.45948 0.0
H873 H 0.1561 0.67391 0.50264 0.0
H874 H 0.19632 0.7143 0.42171 0.0
H875 H 0.18272 0.66219 0.46375 0.0
H876 H 0.16412 0.77835 0.57113 0.0
H877 H 0.16528 0.77837 0.43054 0.0
H878 H 0.12968 0.64925 0.35746 0.0
H879 H 0.15847 0.69698 0.3212 0.0
Li880 Li 0.30013 0.12808 0.53657 0.0
Li881 Li 0.28699 0.10247 0.49893 0.0
Li882 Li 0.30025 0.12715 0.45796 0.0
Li883 Li 0.27194 0.1309 0.49714 0.0
C884 C 0.32676 0.10677 0.52343 0.0
N885 N 0.35511 0.10023 0.57888 0.0
C886 C 0.32685 0.09146 0.54955 0.0
C887 C 0.34111 0.11871 0.52535 0.0
C888 C 0.34132 0.08839 0.57735 0.0
C889 C 0.3553 0.11519 0.55368 0.0
C890 C 0.26265 0.11971 0.57369 0.0
C891 C 0.23115 0.11679 0.58895 0.0
N892 N 0.23269 0.12926 0.62099 0.0
C893 C 0.26393 0.13248 0.60683 0.0
C894 C 0.24614 0.11176 0.56474 0.0
C895 C 0.24863 0.13711 0.63038 0.0
C896 C 0.31902 0.15219 0.59163 0.0
N897 N 0.31211 0.13542 0.58847 0.0
C898 C 0.31962 0.12929 0.66272 0.0
C899 C 0.31235 0.12395 0.62288 0.0
C900 C 0.32664 0.14657 0.66686 0.0
C901 C 0.32651 0.15805 0.63079 0.0
H902 H 0.31832 0.16116 0.56415 0.0
H903 H 0.30647 0.11081 0.61961 0.0
C904 C 0.29543 0.06754 0.47256 0.0
N905 N 0.2847 0.07704 0.49984 0.0
C906 C 0.29482 0.04889 0.47236 0.0
C907 C 0.27226 0.05008 0.52876 0.0
C908 C 0.27326 0.06875 0.52774 0.0
C909 C 0.28319 0.04002 0.50087 0.0
H910 H 0.3046 0.0745 0.45121 0.0
H911 H 0.26508 0.0766 0.54955 0.0
C912 C 0.29776 0.16148 0.47184 0.0
N913 N 0.30798 0.18945 0.41852 0.0
C914 C 0.28503 0.17052 0.44679 0.0
C915 C 0.3157 0.16669 0.46975 0.0
C916 C 0.29046 0.18463 0.42007 0.0
C917 C 0.32059 0.18085 0.44259 0.0
C918 C 0.2717 0.10097 0.42278 0.0
C919 C 0.28248 0.09494 0.38859 0.0
C920 C 0.25596 0.09182 0.43296 0.0
C921 C 0.27736 0.07972 0.36531 0.0
C922 C 0.25134 0.07662 0.409 0.0
N923 N 0.26204 0.07094 0.37596 0.0
C924 C 0.33033 0.13161 0.40086 0.0
C925 C 0.30222 0.14106 0.37345 0.0
C926 C 0.33881 0.13723 0.3626 0.0
N927 N 0.31238 0.13376 0.40562 0.0
C928 C 0.31014 0.14695 0.33489 0.0
C929 C 0.32863 0.14511 0.32938 0.0
H930 H 0.33807 0.12565 0.42681 0.0
H931 H 0.28795 0.14247 0.37806 0.0
C932 C 0.24973 0.15876 0.52279 0.0
N933 N 0.24998 0.14382 0.49753 0.0
C934 C 0.23483 0.16993 0.52292 0.0
C935 C 0.22047 0.14999 0.47166 0.0
C936 C 0.23574 0.13918 0.47241 0.0
C937 C 0.22011 0.16566 0.49678 0.0
H938 H 0.26135 0.16221 0.54201 0.0
H939 H 0.23639 0.12734 0.45226 0.0
O940 O 0.31248 0.1103 0.49694 0.0
O941 O 0.27735 0.11537 0.54937 0.0
O942 O 0.29279 0.14735 0.49748 0.0
O943 O 0.27674 0.11554 0.44676 0.0
H944 H 0.31579 0.08216 0.54879 0.0
H945 H 0.34116 0.13072 0.50572 0.0
H946 H 0.34154 0.07664 0.59789 0.0
H947 H 0.36643 0.12438 0.55578 0.0
H948 H 0.21826 0.11085 0.58214 0.0
H949 H 0.27653 0.13893 0.61393 0.0
H950 H 0.24486 0.10201 0.5389 0.0
H951 H 0.24942 0.14703 0.65597 0.0
H952 H 0.31947 0.12021 0.69021 0.0
H953 H 0.33173 0.17152 0.6333 0.0
H954 H 0.30348 0.04145 0.45064 0.0
H955 H 0.26324 0.04355 0.55132 0.0
H956 H 0.27114 0.16654 0.44742 0.0
H957 H 0.32579 0.15966 0.48829 0.0
H958 H 0.28076 0.19169 0.40039 0.0
H959 H 0.33444 0.18494 0.44045 0.0
H960 H 0.29477 0.10178 0.38046 0.0
H961 H 0.24754 0.09623 0.45953 0.0
H962 H 0.28561 0.07484 0.33892 0.0
H963 H 0.23928 0.06931 0.41678 0.0
H964 H 0.35313 0.13564 0.35908 0.0
H965 H 0.30197 0.15295 0.3097 0.0
H966 H 0.23493 0.18202 0.54239 0.0
H967 H 0.20929 0.14648 0.45093 0.0
Li968 Li 0.87505 0.3002 0.53895 0.0
Li969 Li 0.90121 0.28797 0.50034 0.0
Li970 Li 0.8745 0.30119 0.45997 0.0
Li971 Li 0.87236 0.27316 0.49894 0.0
C972 C 0.89391 0.32882 0.52062 0.0
N973 N 0.89727 0.36021 0.56722 0.0
C974 C 0.90921 0.33194 0.54561 0.0
C975 C 0.88039 0.34169 0.51896 0.0
C976 C 0.91064 0.3479 0.569 0.0
C977 C 0.88231 0.35746 0.5429 0.0
C978 C 0.88426 0.26356 0.57664 0.0
C979 C 0.88777 0.23245 0.59548 0.0
N980 N 0.87574 0.23453 0.62833 0.0
C981 C 0.87202 0.26542 0.61079 0.0
C982 C 0.89231 0.24698 0.56912 0.0
C983 C 0.86787 0.25057 0.6365 0.0
C984 C 0.85087 0.31757 0.59559 0.0
N985 N 0.8682 0.31252 0.59065 0.0
C986 C 0.87531 0.32286 0.6623 0.0
C987 C 0.88043 0.31505 0.62286 0.0
C988 C 0.85737 0.32767 0.66871 0.0
C989 C 0.8451 0.32515 0.63472 0.0
H990 H 0.84146 0.31537 0.56945 0.0
H991 H 0.89408 0.31067 0.61819 0.0
C992 C 0.93589 0.29459 0.46885 0.0
N993 N 0.92649 0.2861 0.50061 0.0
C994 C 0.95455 0.29391 0.4687 0.0
C995 C 0.95344 0.2756 0.53365 0.0
C996 C 0.9348 0.27672 0.5327 0.0
C997 C 0.96344 0.28435 0.50146 0.0
H998 H 0.92886 0.302 0.44389 0.0
H999 H 0.92695 0.27019 0.55764 0.0
C1000 C 0.84037 0.28922 0.47571 0.0
N1001 N 0.81058 0.27994 0.42735 0.0
C1002 C 0.84232 0.28076 0.43534 0.0
C1003 C 0.82322 0.29285 0.49154 0.0
C1004 C 0.82712 0.27622 0.41135 0.0
C1005 C 0.80834 0.28807 0.46661 0.0
C1006 C 0.8943 0.26459 0.4248 0.0
C1007 C 0.88811 0.26178 0.38235 0.0
C1008 C 0.90701 0.25298 0.44249 0.0
C1009 C 0.89462 0.24726 0.3585 0.0
C1010 C 0.91321 0.23863 0.41757 0.0
N1011 N 0.90692 0.23608 0.37646 0.0
C1012 C 0.87717 0.31162 0.37211 0.0
C1013 C 0.85243 0.32418 0.40965 0.0
C1014 C 0.87144 0.31922 0.33296 0.0
N1015 N 0.86749 0.31398 0.40918 0.0
C1016 C 0.8462 0.33201 0.3712 0.0
C1017 C 0.85565 0.3293 0.3323 0.0
H1018 H 0.8891 0.30345 0.37279 0.0
H1019 H 0.845 0.3258 0.43962 0.0
C1020 C 0.84572 0.25066 0.5288 0.0
N1021 N 0.85938 0.25094 0.49952 0.0
C1022 C 0.83387 0.23631 0.53014 0.0
C1023 C 0.85023 0.22258 0.47106 0.0
C1024 C 0.86195 0.23714 0.47123 0.0
C1025 C 0.83589 0.22224 0.50045 0.0
H1026 H 0.84367 0.26195 0.55024 0.0
H1027 H 0.87266 0.23758 0.44784 0.0
O1028 O 0.89204 0.3131 0.49844 0.0
O1029 O 0.88828 0.27788 0.55063 0.0
O1030 O 0.85505 0.29349 0.50033 0.0
O1031 O 0.88816 0.27883 0.44847 0.0
H1032 H 0.91977 0.32205 0.54724 0.0
H1033 H 0.86844 0.3394 0.49985 0.0
H1034 H 0.92236 0.35048 0.58868 0.0
H1035 H 0.8719 0.36749 0.54224 0.0
H1036 H 0.8938 0.21951 0.58981 0.0
H1037 H 0.8656 0.2781 0.6171 0.0
H1038 H 0.90186 0.24528 0.54305 0.0
H1039 H 0.85833 0.2518 0.66283 0.0
H1040 H 0.88508 0.32465 0.68797 0.0
H1041 H 0.83117 0.32875 0.63872 0.0
H1042 H 0.96199 0.30083 0.44353 0.0
H1043 H 0.96001 0.26818 0.55938 0.0
H1044 H 0.85539 0.27767 0.42265 0.0
H1045 H 0.82139 0.29919 0.5229 0.0
H1046 H 0.82847 0.26971 0.38006 0.0
H1047 H 0.795 0.2908 0.47852 0.0
H1048 H 0.87835 0.27067 0.36796 0.0
H1049 H 0.91201 0.25497 0.4751 0.0
H1050 H 0.8899 0.24489 0.32569 0.0
H1051 H 0.92301 0.22952 0.43094 0.0
H1052 H 0.87896 0.31691 0.30333 0.0
H1053 H 0.83394 0.33971 0.37153 0.0
H1054 H 0.82282 0.23648 0.55299 0.0
H1055 H 0.85204 0.21193 0.44754 0.0
Li1056 Li 0.73045 0.13132 0.49678 0.0
Li1057 Li 0.70094 0.12718 0.5355 0.0
Li1058 Li 0.71428 0.10283 0.49559 0.0
Li1059 Li 0.70114 0.12688 0.45714 0.0
C1060 C 0.73251 0.10262 0.56942 0.0
N1061 N 0.74823 0.07446 0.61315 0.0
C1062 C 0.72226 0.09183 0.59692 0.0
C1063 C 0.75076 0.09923 0.56441 0.0
C1064 C 0.73046 0.0776 0.61864 0.0
C1065 C 0.75847 0.08491 0.5868 0.0
C1066 C 0.70351 0.16175 0.51847 0.0
C1067 C 0.68047 0.18059 0.5489 0.0
N1068 N 0.69325 0.19111 0.56722 0.0
C1069 C 0.71641 0.17284 0.53734 0.0
C1070 C 0.68539 0.16574 0.52403 0.0
C1071 C 0.71095 0.18759 0.56194 0.0
C1072 C 0.75775 0.15163 0.45872 0.0
N1073 N 0.75217 0.14437 0.49698 0.0
C1074 C 0.77532 0.1595 0.53596 0.0
C1075 C 0.76073 0.14782 0.53515 0.0
C1076 C 0.78109 0.16747 0.49705 0.0
C1077 C 0.77242 0.16315 0.45793 0.0
H1078 H 0.75048 0.14883 0.42903 0.0
H1079 H 0.75575 0.14212 0.56518 0.0
C1080 C 0.67183 0.12976 0.59634 0.0
N1081 N 0.68921 0.13399 0.58828 0.0
C1082 C 0.66363 0.13544 0.63492 0.0
C1083 C 0.69147 0.14931 0.65642 0.0
C1084 C 0.69914 0.14333 0.61762 0.0
C1085 C 0.67352 0.14541 0.66519 0.0
H1086 H 0.66434 0.12204 0.57288 0.0
H1087 H 0.713 0.14629 0.61056 0.0
C1088 C 0.73526 0.10339 0.4248 0.0
N1089 N 0.75599 0.07802 0.38299 0.0
C1090 C 0.72718 0.0897 0.40081 0.0
C1091 C 0.75391 0.10415 0.42747 0.0
C1092 C 0.73788 0.07699 0.37998 0.0
C1093 C 0.76414 0.09122 0.40606 0.0
C1094 C 0.67398 0.10777 0.47119 0.0
C1095 C 0.67347 0.09415 0.43999 0.0
C1096 C 0.65961 0.11964 0.47457 0.0
C1097 C 0.65862 0.09268 0.41261 0.0
C1098 C 0.64502 0.11776 0.4465 0.0
N1099 N 0.64484 0.10443 0.41636 0.0
C1100 C 0.70274 0.06722 0.50597 0.0
C1101 C 0.73389 0.06939 0.49288 0.0
C1102 C 0.70376 0.04859 0.50648 0.0
N1103 N 0.71758 0.07723 0.4981 0.0
C1104 C 0.73552 0.05078 0.4931 0.0
C1105 C 0.72026 0.04025 0.49943 0.0
H1106 H 0.69004 0.07371 0.51158 0.0
H1107 H 0.74563 0.07753 0.48814 0.0
C1108 C 0.68112 0.15086 0.40409 0.0
N1109 N 0.68918 0.13455 0.40502 0.0
C1110 C 0.67353 0.15726 0.36553 0.0
C1111 C 0.68253 0.12995 0.3296 0.0
C1112 C 0.68993 0.12408 0.36882 0.0
C1113 C 0.6744 0.14679 0.32776 0.0
H1114 H 0.68093 0.15908 0.43296 0.0
H1115 H 0.69651 0.11128 0.37015 0.0
O1116 O 0.72464 0.11627 0.54693 0.0
O1117 O 0.7086 0.147 0.49507 0.0
O1118 O 0.72504 0.11606 0.44525 0.0
O1119 O 0.68865 0.10975 0.49745 0.0
H1120 H 0.7081 0.09429 0.60099 0.0
H1121 H 0.75883 0.1074 0.54295 0.0
H1122 H 0.72268 0.06902 0.63976 0.0
H1123 H 0.77255 0.08203 0.58301 0.0
H1124 H 0.66649 0.18371 0.55377 0.0
H1125 H 0.73048 0.17012 0.53319 0.0
H1126 H 0.67521 0.1573 0.50991 0.0
H1127 H 0.7208 0.19622 0.57687 0.0
H1128 H 0.78168 0.1627 0.56668 0.0
H1129 H 0.77654 0.16919 0.42745 0.0
H1130 H 0.64974 0.13218 0.64103 0.0
H1131 H 0.69942 0.15695 0.67932 0.0
H1132 H 0.71281 0.08858 0.39909 0.0
H1133 H 0.76045 0.11448 0.44619 0.0
H1134 H 0.73178 0.06625 0.36165 0.0
H1135 H 0.77858 0.09165 0.40796 0.0
H1136 H 0.68451 0.08494 0.43648 0.0
H1137 H 0.65977 0.13032 0.49823 0.0
H1138 H 0.65811 0.08226 0.38821 0.0
H1139 H 0.63388 0.12693 0.4486 0.0
H1140 H 0.69178 0.04076 0.51192 0.0
H1141 H 0.74847 0.04466 0.48797 0.0
H1142 H 0.66742 0.17039 0.36488 0.0
H1143 H 0.68343 0.12162 0.30081 0.0
Li1144 Li 0.86874 0.72911 0.50619 0.0
Li1145 Li 0.87291 0.70222 0.54582 0.0
Li1146 Li 0.89871 0.71609 0.50482 0.0
Li1147 Li 0.87261 0.70131 0.46733 0.0
C1148 C 0.8863 0.74198 0.5753 0.0
N1149 N 0.88827 0.77531 0.61401 0.0
C1150 C 0.87178 0.74867 0.59899 0.0
C1151 C 0.90183 0.75227 0.57141 0.0
C1152 C 0.87303 0.76555 0.61824 0.0
C1153 C 0.90257 0.76907 0.59123 0.0
C1154 C 0.83943 0.70076 0.53051 0.0
C1155 C 0.82185 0.67526 0.55243 0.0
N1156 N 0.81325 0.6856 0.58225 0.0
C1157 C 0.8304 0.71114 0.56136 0.0
C1158 C 0.8351 0.68268 0.52593 0.0
C1159 C 0.8172 0.70323 0.58719 0.0
C1160 C 0.83769 0.74931 0.49361 0.0
N1161 N 0.85541 0.75118 0.50252 0.0
C1162 C 0.85216 0.783 0.50647 0.0
C1163 C 0.86287 0.76767 0.5076 0.0
C1164 C 0.83375 0.78124 0.49923 0.0
C1165 C 0.82654 0.76422 0.4921 0.0
H1166 H 0.83215 0.73619 0.48797 0.0
H1167 H 0.87707 0.76896 0.51302 0.0
C1168 C 0.86897 0.6713 0.60031 0.0
N1169 N 0.86711 0.68938 0.59817 0.0
C1170 C 0.86396 0.66204 0.638 0.0
C1171 C 0.85541 0.69018 0.67066 0.0
C1172 C 0.86072 0.69888 0.63261 0.0
C1173 C 0.85693 0.67157 0.67342 0.0
H1174 H 0.8742 0.66405 0.57268 0.0
H1175 H 0.85943 0.71319 0.63028 0.0
C1176 C 0.88066 0.73873 0.42919 0.0
N1177 N 0.87173 0.76832 0.37999 0.0
C1178 C 0.86551 0.73839 0.40254 0.0
C1179 C 0.89133 0.75405 0.43068 0.0
C1180 C 0.86121 0.75351 0.37797 0.0
C1181 C 0.88658 0.76889 0.40555 0.0
C1182 C 0.89595 0.67556 0.48463 0.0
C1183 C 0.91289 0.67485 0.46542 0.0
C1184 C 0.88425 0.66112 0.47981 0.0
C1185 C 0.91777 0.65976 0.44135 0.0
C1186 C 0.8896 0.6463 0.45538 0.0
N1187 N 0.90611 0.64593 0.43681 0.0
C1188 C 0.93337 0.71422 0.53933 0.0
C1189 C 0.93218 0.7251 0.46674 0.0
C1190 C 0.95202 0.71498 0.53901 0.0
N1191 N 0.92391 0.71919 0.5035 0.0
C1192 C 0.95083 0.7261 0.46503 0.0
C1193 C 0.96088 0.72086 0.50141 0.0
H1194 H 0.92639 0.70939 0.56788 0.0
H1195 H 0.92431 0.72864 0.43848 0.0
C1196 C 0.84832 0.68578 0.4078 0.0
N1197 N 0.86596 0.68893 0.4154 0.0
C1198 C 0.84285 0.67796 0.3687 0.0
C1199 C 0.87378 0.67674 0.3459 0.0
C1200 C 0.87865 0.68475 0.38529 0.0
C1201 C 0.85568 0.67343 0.33733 0.0
H1202 H 0.83845 0.68977 0.43159 0.0
H1203 H 0.89251 0.68792 0.39156 0.0
O1204 O 0.88545 0.7254 0.5565 0.0
O1205 O 0.85273 0.70815 0.50569 0.0
O1206 O 0.88476 0.72427 0.45451 0.0
O1207 O 0.89085 0.69032 0.50789 0.0
H1208 H 0.8595 0.74116 0.60156 0.0
H1209 H 0.91319 0.74739 0.55318 0.0
H1210 H 0.86184 0.77094 0.63629 0.0
H1211 H 0.91449 0.77717 0.5884 0.0
H1212 H 0.81844 0.66126 0.54938 0.0
H1213 H 0.83371 0.72509 0.56586 0.0
H1214 H 0.84201 0.6744 0.50247 0.0
H1215 H 0.81019 0.71108 0.61135 0.0
H1216 H 0.8581 0.79603 0.51172 0.0
H1217 H 0.81238 0.7625 0.48601 0.0
H1218 H 0.86532 0.64764 0.63938 0.0
H1219 H 0.85008 0.69788 0.6976 0.0
H1220 H 0.85706 0.72666 0.40129 0.0
H1221 H 0.90298 0.75458 0.45156 0.0
H1222 H 0.84946 0.7535 0.3574 0.0
H1223 H 0.89463 0.78089 0.40658 0.0
H1224 H 0.92216 0.68584 0.46884 0.0
H1225 H 0.87108 0.66145 0.49424 0.0
H1226 H 0.93081 0.65907 0.4262 0.0
H1227 H 0.88062 0.63511 0.45108 0.0
H1228 H 0.95949 0.71077 0.56746 0.0
H1229 H 0.95736 0.73057 0.43548 0.0
H1230 H 0.82876 0.67571 0.36267 0.0
H1231 H 0.88394 0.67354 0.32198 0.0
Li1232 Li 0.27146 0.87152 0.50347 0.0
Li1233 Li 0.29981 0.874 0.54206 0.0
Li1234 Li 0.28728 0.90011 0.50274 0.0
Li1235 Li 0.29979 0.8745 0.46188 0.0
C1236 C 0.26618 0.8863 0.58873 0.0
N1237 N 0.24346 0.88431 0.65962 0.0
C1238 C 0.26705 0.87171 0.6171 0.0
C1239 C 0.25389 0.9 0.59678 0.0
C1240 C 0.25542 0.87091 0.65266 0.0
C1241 C 0.24248 0.89871 0.63268 0.0
C1242 C 0.29243 0.83778 0.51475 0.0
C1243 C 0.30501 0.80809 0.51203 0.0
N1244 N 0.2929 0.80259 0.54225 0.0
C1245 C 0.28004 0.83178 0.54555 0.0
C1246 C 0.30494 0.8258 0.49757 0.0
C1247 C 0.28051 0.81396 0.55909 0.0
C1248 C 0.24876 0.84577 0.47064 0.0
N1249 N 0.24923 0.85891 0.50122 0.0
C1250 C 0.22081 0.84975 0.52912 0.0
C1251 C 0.23543 0.86139 0.52952 0.0
C1252 C 0.22043 0.83564 0.49907 0.0
C1253 C 0.2344 0.8339 0.46895 0.0
H1254 H 0.25993 0.8441 0.44862 0.0
H1255 H 0.23593 0.872 0.55323 0.0
C1256 C 0.31142 0.87731 0.62899 0.0
N1257 N 0.31273 0.8668 0.59295 0.0
C1258 C 0.31917 0.87192 0.66828 0.0
C1259 C 0.33028 0.84544 0.6321 0.0
C1260 C 0.32227 0.85131 0.59357 0.0
C1261 C 0.32847 0.85568 0.67009 0.0
H1262 H 0.30391 0.88966 0.62749 0.0
H1263 H 0.32347 0.84335 0.56441 0.0
C1264 C 0.26165 0.89569 0.43741 0.0
N1265 N 0.23155 0.91329 0.40778 0.0
C1266 C 0.25935 0.8988 0.39287 0.0
C1267 C 0.24866 0.90151 0.46687 0.0
C1268 C 0.24403 0.90773 0.37853 0.0
C1269 C 0.23353 0.91038 0.45126 0.0
C1270 C 0.33053 0.88801 0.50414 0.0
C1271 C 0.34233 0.90202 0.51304 0.0
C1272 C 0.33719 0.87077 0.49749 0.0
C1273 C 0.36066 0.89853 0.51509 0.0
C1274 C 0.3556 0.86782 0.49981 0.0
N1275 N 0.36686 0.88164 0.50849 0.0
C1276 C 0.28358 0.93426 0.54132 0.0
C1277 C 0.28574 0.9344 0.46419 0.0
C1278 C 0.28257 0.95292 0.5421 0.0
N1279 N 0.2851 0.92545 0.50274 0.0
C1280 C 0.28486 0.95306 0.46347 0.0
C1281 C 0.28333 0.96247 0.50282 0.0
H1282 H 0.28339 0.9268 0.5715 0.0
H1283 H 0.28715 0.92704 0.43405 0.0
C1284 C 0.30642 0.85133 0.39218 0.0
N1285 N 0.31149 0.8672 0.40988 0.0
C1286 C 0.31418 0.84534 0.35348 0.0
C1287 C 0.33215 0.87223 0.35168 0.0
C1288 C 0.32406 0.8777 0.39055 0.0
C1289 C 0.32714 0.85589 0.33287 0.0
H1290 H 0.29623 0.8434 0.40803 0.0
H1291 H 0.3277 0.89034 0.40518 0.0
O1292 O 0.27749 0.88741 0.55375 0.0
O1293 O 0.29213 0.85515 0.50062 0.0
O1294 O 0.27666 0.88713 0.45192 0.0
O1295 O 0.31254 0.89123 0.50236 0.0
H1296 H 0.27669 0.86116 0.61205 0.0
H1297 H 0.25308 0.91147 0.5754 0.0
H1298 H 0.25594 0.85967 0.6748 0.0
H1299 H 0.23284 0.90917 0.63913 0.0
H1300 H 0.31468 0.79872 0.49919 0.0
H1301 H 0.27 0.84068 0.5585 0.0
H1302 H 0.31457 0.83015 0.47351 0.0
H1303 H 0.27097 0.80916 0.58287 0.0
H1304 H 0.21018 0.85139 0.55275 0.0
H1305 H 0.23446 0.82309 0.44545 0.0
H1306 H 0.31759 0.88011 0.69714 0.0
H1307 H 0.33748 0.83287 0.63255 0.0
H1308 H 0.26933 0.89439 0.36967 0.0
H1309 H 0.25024 0.89921 0.50137 0.0
H1310 H 0.24208 0.91025 0.34415 0.0
H1311 H 0.22337 0.91497 0.47373 0.0
H1312 H 0.33736 0.91544 0.51834 0.0
H1313 H 0.32825 0.85978 0.49067 0.0
H1314 H 0.36996 0.90924 0.52195 0.0
H1315 H 0.36093 0.85453 0.49475 0.0
H1316 H 0.28149 0.95985 0.57298 0.0
H1317 H 0.28556 0.9601 0.43268 0.0
H1318 H 0.31003 0.8327 0.33953 0.0
H1319 H 0.3421 0.88065 0.33631 0.0
Li1320 Li 0.12943 0.3009 0.54251 0.0
Li1321 Li 0.1316 0.27252 0.50286 0.0
Li1322 Li 0.12828 0.30138 0.46157 0.0
Li1323 Li 0.10323 0.28794 0.50119 0.0
C1324 C 0.16416 0.30184 0.50429 0.0
N1325 N 0.19675 0.31901 0.51184 0.0
C1326 C 0.17917 0.29253 0.5192 0.0
C1327 C 0.16585 0.31981 0.49246 0.0
C1328 C 0.19549 0.30146 0.52305 0.0
C1329 C 0.1824 0.32827 0.49668 0.0
C1330 C 0.11739 0.26344 0.57871 0.0
C1331 C 0.11081 0.23239 0.59249 0.0
N1332 N 0.12121 0.23299 0.6288 0.0
C1333 C 0.12786 0.26381 0.61642 0.0
C1334 C 0.10864 0.24767 0.56686 0.0
C1335 C 0.12968 0.24825 0.64123 0.0
C1336 C 0.12611 0.3255 0.61277 0.0
N1337 N 0.13698 0.31313 0.59389 0.0
C1338 C 0.15869 0.31685 0.6503 0.0
C1339 C 0.15295 0.30863 0.61198 0.0
C1340 C 0.14779 0.32969 0.67026 0.0
C1341 C 0.13134 0.3341 0.65117 0.0
H1342 H 0.11331 0.32859 0.59817 0.0
H1343 H 0.16107 0.29835 0.59721 0.0
C1344 C 0.14191 0.23853 0.46949 0.0
N1345 N 0.14397 0.25025 0.50303 0.0
C1346 C 0.15257 0.22319 0.46715 0.0
C1347 C 0.16688 0.23208 0.53444 0.0
C1348 C 0.15599 0.24722 0.53544 0.0
C1349 C 0.16541 0.22009 0.49958 0.0
H1350 H 0.13245 0.2414 0.44381 0.0
H1351 H 0.15756 0.2569 0.56131 0.0
C1352 C 0.10904 0.33103 0.49726 0.0
N1353 N 0.10327 0.36717 0.48452 0.0
C1354 C 0.09306 0.337 0.47868 0.0
C1355 C 0.12192 0.34349 0.51017 0.0
C1356 C 0.09044 0.35531 0.47226 0.0
C1357 C 0.1188 0.36168 0.50325 0.0
C1358 C 0.10389 0.2714 0.42348 0.0
C1359 C 0.09956 0.28074 0.38547 0.0
C1360 C 0.09493 0.25551 0.43335 0.0
C1361 C 0.08607 0.27418 0.35834 0.0
C1362 C 0.0815 0.24941 0.40545 0.0
N1363 N 0.07737 0.2588 0.36886 0.0
C1364 C 0.15133 0.30838 0.39199 0.0
C1365 C 0.12511 0.32622 0.3905 0.0
C1366 C 0.15739 0.31617 0.35341 0.0
N1367 N 0.13551 0.31358 0.40986 0.0
C1368 C 0.13065 0.33434 0.35176 0.0
C1369 C 0.14694 0.32925 0.33296 0.0
H1370 H 0.15917 0.29807 0.40762 0.0
H1371 H 0.11237 0.32974 0.4045 0.0
C1372 C 0.06943 0.278 0.53565 0.0
N1373 N 0.07781 0.28559 0.50093 0.0
C1374 C 0.05077 0.27693 0.5368 0.0
C1375 C 0.04975 0.29134 0.4663 0.0
C1376 C 0.06838 0.29222 0.46663 0.0
C1377 C 0.04082 0.28373 0.50184 0.0
H1378 H 0.07721 0.27303 0.56274 0.0
H1379 H 0.07533 0.29845 0.43977 0.0
O1380 O 0.14807 0.29325 0.5003 0.0
O1381 O 0.11569 0.27845 0.55359 0.0
O1382 O 0.11177 0.31312 0.50395 0.0
O1383 O 0.11691 0.27773 0.4507 0.0
H1384 H 0.17823 0.27856 0.52794 0.0
H1385 H 0.15459 0.32708 0.47947 0.0
H1386 H 0.20717 0.29444 0.53485 0.0
H1387 H 0.18385 0.34218 0.48768 0.0
H1388 H 0.10422 0.22005 0.58352 0.0
H1389 H 0.1346 0.27593 0.6263 0.0
H1390 H 0.10031 0.24722 0.53813 0.0
H1391 H 0.13784 0.24831 0.67033 0.0
H1392 H 0.17138 0.31308 0.6646 0.0
H1393 H 0.12262 0.34391 0.6661 0.0
H1394 H 0.15127 0.21419 0.43969 0.0
H1395 H 0.17678 0.23006 0.55972 0.0
H1396 H 0.08282 0.32763 0.46904 0.0
H1397 H 0.1341 0.33922 0.52593 0.0
H1398 H 0.07819 0.36009 0.45758 0.0
H1399 H 0.12869 0.37144 0.51299 0.0
H1400 H 0.10643 0.29298 0.37713 0.0
H1401 H 0.09827 0.24801 0.46229 0.0
H1402 H 0.08249 0.28133 0.32897 0.0
H1403 H 0.07436 0.23721 0.41288 0.0
H1404 H 0.16998 0.31193 0.33939 0.0
H1405 H 0.12226 0.34431 0.33638 0.0
H1406 H 0.04416 0.27107 0.56477 0.0
H1407 H 0.04236 0.29679 0.43902 0.0
C1408 C 0.23198 0.5112 0.02761 0.0
C1409 C 0.21845 0.52046 0.00433 0.0
C1410 C 0.20456 0.49192 0.98434 0.0
C1411 C 0.21909 0.48266 0.00378 0.0
N1412 N 0.24821 0.48344 0.03749 0.0
N1413 N 0.19376 0.51974 0.95372 0.0
C1414 C 0.23326 0.49229 0.02366 0.0
C1415 C 0.20526 0.51085 0.98074 0.0
N1416 N 0.24323 0.5204 0.05463 0.0
N1417 N 0.18981 0.4827 0.97071 0.0
H1418 H 0.19393 0.53359 0.94981 0.0
H1419 H 0.18515 0.51327 0.93219 0.0
H1420 H 0.18866 0.46884 0.97325 0.0
H1421 H 0.17805 0.48891 0.96064 0.0
H1422 H 0.2521 0.51419 0.07594 0.0
H1423 H 0.2426 0.53424 0.05866 0.0
H1424 H 0.25975 0.48993 0.04799 0.0
H1425 H 0.2497 0.46962 0.03485 0.0
C1426 C 0.49164 0.20327 1.00058 0.0
C1427 C 0.48204 0.21958 0.99704 0.0
C1428 C 0.5103 0.23622 0.99798 0.0
C1429 C 0.51985 0.21982 0.99656 0.0
N1430 N 0.51946 0.18777 0.98694 0.0
N1431 N 0.48225 0.25142 0.98428 0.0
C1432 C 0.51047 0.20334 0.99511 0.0
C1433 C 0.49137 0.23604 0.99348 0.0
N1434 N 0.48286 0.18779 0.01072 0.0
N1435 N 0.51922 0.25189 0.00517 0.0
H1436 H 0.46841 0.2518 0.98016 0.0
H1437 H 0.48855 0.26345 0.97682 0.0
H1438 H 0.53305 0.25254 0.00921 0.0
H1439 H 0.51276 0.26399 0.01106 0.0
H1440 H 0.48944 0.1759 0.0181 0.0
H1441 H 0.4691 0.18723 0.01612 0.0
H1442 H 0.51303 0.17565 0.98112 0.0
H1443 H 0.53322 0.18728 0.98159 0.0
C1444 C 0.76803 0.49162 0.99867 0.0
C1445 C 0.78452 0.48225 0.9974 0.0
C1446 C 0.80098 0.5106 0.99893 0.0
C1447 C 0.78451 0.51998 0.99722 0.0
N1448 N 0.75246 0.51985 0.98923 0.0
N1449 N 0.81659 0.48242 0.98959 0.0
C1450 C 0.76804 0.5106 0.9953 0.0
C1451 C 0.80098 0.49164 0.9956 0.0
N1452 N 0.75242 0.4824 0.00439 0.0
N1453 N 0.81658 0.5198 0.00511 0.0
H1454 H 0.81715 0.46851 0.98765 0.0
H1455 H 0.8288 0.48855 0.98313 0.0
H1456 H 0.81717 0.53372 0.00697 0.0
H1457 H 0.82878 0.51367 0.01166 0.0
H1458 H 0.74017 0.4885 0.01046 0.0
H1459 H 0.75189 0.46848 0.00625 0.0
H1460 H 0.74023 0.51376 0.98282 0.0
H1461 H 0.75196 0.53377 0.98729 0.0
C1462 C 0.51067 0.79882 0.01263 0.0
C1463 C 0.51967 0.78312 0.99864 0.0
C1464 C 0.49086 0.76898 0.98207 0.0
C1465 C 0.48189 0.78403 0.99989 0.0
N1466 N 0.48317 0.81183 0.03967 0.0
N1467 N 0.51851 0.75217 0.97685 0.0
C1468 C 0.49178 0.79856 0.01733 0.0
C1469 C 0.50981 0.76787 0.98526 0.0
N1470 N 0.52011 0.81418 0.01994 0.0
N1471 N 0.48134 0.75605 0.9608 0.0
H1472 H 0.53237 0.75085 0.97889 0.0
H1473 H 0.51193 0.7401 0.97152 0.0
H1474 H 0.46746 0.75643 0.95766 0.0
H1475 H 0.48728 0.74577 0.94308 0.0
H1476 H 0.51409 0.82653 0.02552 0.0
H1477 H 0.53396 0.81499 0.01653 0.0
H1478 H 0.48985 0.82173 0.05712 0.0
H1479 H 0.46935 0.81205 0.04416 0.0
C1480 C 0.72762 0.01071 0.53418 0.0
C1481 C 0.72135 0.02045 0.49757 0.0
C1482 C 0.7139 0.9925 0.45999 0.0
C1483 C 0.72093 0.98274 0.49573 0.0
N1484 N 0.73733 0.98213 0.56328 0.0
N1485 N 0.71175 0.02099 0.42259 0.0
C1486 C 0.72868 0.99174 0.53179 0.0
C1487 C 0.71546 0.01143 0.45951 0.0
N1488 N 0.73194 0.01956 0.57172 0.0
N1489 N 0.70515 0.9837 0.42726 0.0
H1490 H 0.71268 0.03489 0.42109 0.0
H1491 H 0.70923 0.01511 0.39246 0.0
H1492 H 0.70401 0.96981 0.42603 0.0
H1493 H 0.69789 0.99016 0.40297 0.0
H1494 H 0.73467 0.01316 0.60108 0.0
H1495 H 0.73158 0.03346 0.57446 0.0
H1496 H 0.74486 0.98793 0.58805 0.0
H1497 H 0.73822 0.96821 0.56265 0.0
C1498 C 0.99035 0.7369 0.50663 0.0
C1499 C 0.98072 0.7208 0.49966 0.0
C1500 C 0.00882 0.704 0.4951 0.0
C1501 C 0.01846 0.72026 0.49921 0.0
N1502 N 0.01879 0.75244 0.50236 0.0
N1503 N 0.98044 0.68957 0.48015 0.0
C1504 C 0.00933 0.73681 0.5031 0.0
C1505 C 0.98987 0.70449 0.49182 0.0
N1506 N 0.98136 0.75213 0.51792 0.0
N1507 N 0.01777 0.68805 0.49578 0.0
H1508 H 0.96652 0.68936 0.47787 0.0
H1509 H 0.9864 0.67781 0.4693 0.0
H1510 H 0.03166 0.68713 0.49756 0.0
H1511 H 0.01142 0.67569 0.49797 0.0
H1512 H 0.98766 0.7638 0.52821 0.0
H1513 H 0.96746 0.75276 0.52008 0.0
H1514 H 0.01287 0.76501 0.50034 0.0
H1515 H 0.03271 0.75285 0.50038 0.0
C1516 C 0.26835 0.01062 0.48395 0.0
C1517 C 0.28292 0.02015 0.50233 0.0
C1518 C 0.29831 0.99191 0.51787 0.0
C1519 C 0.28309 0.98236 0.50295 0.0
N1520 N 0.25244 0.98245 0.47861 0.0
N1521 N 0.31027 0.02005 0.54396 0.0
C1522 C 0.26775 0.99167 0.4879 0.0
C1523 C 0.29748 0.01084 0.52139 0.0
N1524 N 0.25539 0.01963 0.46146 0.0
N1525 N 0.31379 0.98295 0.52714 0.0
H1526 H 0.31011 0.03393 0.54737 0.0
H1527 H 0.32013 0.01386 0.56255 0.0
H1528 H 0.31499 0.9691 0.52473 0.0
H1529 H 0.32588 0.98934 0.53349 0.0
H1530 H 0.2455 0.01329 0.44325 0.0
H1531 H 0.25535 0.0335 0.45797 0.0
H1532 H 0.24026 0.98862 0.47198 0.0
H1533 H 0.2515 0.96857 0.48116 0.0
C1534 C 0.0117 0.29798 0.52269 0.0
C1535 C 0.02099 0.28353 0.50301 0.0
C1536 C 0.99256 0.26993 0.48083 0.0
C1537 C 0.98327 0.28387 0.50256 0.0
N1538 N 0.9835 0.30981 0.54919 0.0
N1539 N 0.02076 0.25464 0.46832 0.0
C1540 C 0.99271 0.29751 0.52499 0.0
C1541 C 0.01154 0.26916 0.48349 0.0
N1542 N 0.02104 0.31238 0.53806 0.0
N1543 N 0.98321 0.2577 0.45676 0.0
H1544 H 0.03468 0.25384 0.46885 0.0
H1545 H 0.01469 0.24287 0.45798 0.0
H1546 H 0.96928 0.25755 0.45512 0.0
H1547 H 0.98918 0.2484 0.43614 0.0
H1548 H 0.01508 0.32426 0.54811 0.0
H1549 H 0.03498 0.31299 0.5381 0.0
H1550 H 0.98957 0.31885 0.57029 0.0
H1551 H 0.96957 0.3102 0.55065 0.0
C1552 C 0.29796 0.31152 0.96893 0.0
C1553 C 0.29845 0.32442 0.00281 0.0
C1554 C 0.32611 0.31116 0.03116 0.0
C1555 C 0.32445 0.29712 1.00033 0.0
N1556 N 0.30809 0.28271 0.94238 0.0
N1557 N 0.31203 0.33627 0.06783 0.0
C1558 C 0.31026 0.29704 0.96962 0.0
C1559 C 0.31234 0.32425 0.03427 0.0
N1560 N 0.28582 0.31325 0.93586 0.0
N1561 N 0.341 0.31206 0.05692 0.0
H1562 H 0.3025 0.34641 0.07019 0.0
H1563 H 0.32052 0.33564 0.09464 0.0
H1564 H 0.3512 0.30256 0.05571 0.0
H1565 H 0.34395 0.32286 0.07707 0.0
H1566 H 0.286 0.30546 0.90775 0.0
H1567 H 0.27634 0.32347 0.93474 0.0
H1568 H 0.29685 0.28079 0.92297 0.0
H1569 H 0.31699 0.27198 0.94129 0.0
C1570 C 0.69189 0.32393 0.96595 0.0
C1571 C 0.70557 0.32339 0.99793 0.0
C1572 C 0.69307 0.29576 0.02824 0.0
C1573 C 0.67899 0.29664 0.99729 0.0
N1574 N 0.66307 0.31276 0.94153 0.0
N1575 N 0.71759 0.31099 0.06425 0.0
C1576 C 0.67781 0.31113 0.9676 0.0
C1577 C 0.70564 0.30997 0.03061 0.0
N1578 N 0.69272 0.33631 0.93323 0.0
N1579 N 0.69484 0.28098 0.05415 0.0
H1580 H 0.7272 0.32106 0.06669 0.0
H1581 H 0.71712 0.30277 0.09159 0.0
H1582 H 0.68575 0.27041 0.05398 0.0
H1583 H 0.70597 0.27853 0.07359 0.0
H1584 H 0.68436 0.3362 0.90612 0.0
H1585 H 0.70257 0.34617 0.93174 0.0
H1586 H 0.66047 0.32391 0.92228 0.0
H1587 H 0.65266 0.30348 0.94163 0.0
C1588 C 0.69106 0.67517 0.01916 0.0
C1589 C 0.70809 0.67919 0.00127 0.0
C1590 C 0.69825 0.70971 0.98504 0.0
C1591 C 0.68081 0.7053 0.99974 0.0
N1592 N 0.65965 0.68309 0.02377 0.0
N1593 N 0.72673 0.69883 0.95853 0.0
C1594 C 0.67691 0.68778 0.01475 0.0
C1595 C 0.71133 0.69604 0.98156 0.0
N1596 N 0.68859 0.6596 0.04171 0.0
N1597 N 0.7026 0.72709 0.97622 0.0
H1598 H 0.73657 0.68907 0.95482 0.0
H1599 H 0.72896 0.71018 0.93963 0.0
H1600 H 0.69354 0.73762 0.97901 0.0
H1601 H 0.71563 0.73133 0.97007 0.0
H1602 H 0.67709 0.6568 0.05957 0.0
H1603 H 0.69861 0.65003 0.04543 0.0
H1604 H 0.65568 0.67003 0.03051 0.0
H1605 H 0.64898 0.692 0.02086 0.0
C1606 C 0.2885 0.70098 0.99534 0.0
C1607 C 0.29318 0.68264 0.99847 0.0
C1608 C 0.32478 0.69075 0.00679 0.0
C1609 C 0.3202 0.70897 1.00031 0.0
N1610 N 0.29833 0.73124 0.98047 0.0
N1611 N 0.31577 0.65968 1.00052 0.0
C1612 C 0.30222 0.71404 0.99228 0.0
C1613 C 0.31135 0.6774 0.00233 0.0
N1614 N 0.27091 0.70598 0.99681 0.0
N1615 N 0.34185 0.6863 0.01845 0.0
H1616 H 0.30626 0.64955 0.9976 0.0
H1617 H 0.32888 0.65506 0.99846 0.0
H1618 H 0.35206 0.69571 0.02148 0.0
H1619 H 0.34561 0.67352 0.02829 0.0
H1620 H 0.26675 0.71922 0.99964 0.0
H1621 H 0.26043 0.69684 0.99897 0.0
H1622 H 0.28579 0.73529 0.96952 0.0
H1623 H 0.30801 0.74123 0.97792 0.0
C1624 C 0.82014 0.80851 0.46441 0.0
C1625 C 0.82167 0.79696 0.5009 0.0
C1626 C 0.79635 0.81185 0.53622 0.0
C1627 C 0.79527 0.82392 0.50062 0.0
N1628 N 0.8081 0.83615 0.43505 0.0
N1629 N 0.81414 0.79004 0.57536 0.0
C1630 C 0.80781 0.823 0.46598 0.0
C1631 C 0.81068 0.79943 0.53807 0.0
N1632 N 0.82995 0.8052 0.42769 0.0
N1633 N 0.78318 0.81163 0.56716 0.0
H1634 H 0.82455 0.7808 0.57785 0.0
H1635 H 0.80779 0.79257 0.60493 0.0
H1636 H 0.77237 0.82043 0.56702 0.0
H1637 H 0.78214 0.80178 0.59099 0.0
H1638 H 0.82797 0.81186 0.39829 0.0
H1639 H 0.83932 0.79491 0.42565 0.0
H1640 H 0.81801 0.83724 0.41138 0.0
H1641 H 0.79923 0.84692 0.4353 0.0
C1642 C 0.21037 0.80461 0.51753 0.0
C1643 C 0.20617 0.82184 0.50108 0.0
C1644 C 0.17509 0.81251 0.48943 0.0
C1645 C 0.1798 0.79481 0.5015 0.0
N1646 N 0.20259 0.77321 0.51979 0.0
N1647 N 0.18532 0.84177 0.46605 0.0
C1648 C 0.19763 0.79063 0.51364 0.0
C1649 C 0.18871 0.82571 0.48565 0.0
N1650 N 0.22636 0.80173 0.538 0.0
N1651 N 0.15753 0.81678 0.48271 0.0
H1652 H 0.19494 0.85178 0.46297 0.0
H1653 H 0.17343 0.84466 0.44988 0.0
H1654 H 0.14724 0.80743 0.48507 0.0
H1655 H 0.15301 0.82982 0.47833 0.0
H1656 H 0.22938 0.79001 0.55475 0.0
H1657 H 0.23602 0.81167 0.54179 0.0
H1658 H 0.21582 0.7692 0.52386 0.0
H1659 H 0.19372 0.76252 0.51694 0.0
C1660 C 0.20618 0.19309 0.46492 0.0
C1661 C 0.20492 0.17836 0.49388 0.0
C1662 C 0.17607 0.18944 0.52073 0.0
C1663 C 0.17838 0.20515 0.49547 0.0
N1664 N 0.19635 0.22306 0.44688 0.0
N1665 N 0.18962 0.16275 0.55151 0.0
C1666 C 0.19357 0.20723 0.46816 0.0
C1667 C 0.19005 0.17652 0.52222 0.0
N1668 N 0.21936 0.19343 0.43404 0.0
N1669 N 0.16039 0.1868 0.54269 0.0
H1670 H 0.19935 0.15276 0.55251 0.0
H1671 H 0.18025 0.16173 0.57647 0.0
H1672 H 0.14999 0.1961 0.5425 0.0
H1673 H 0.15707 0.17489 0.55827 0.0
H1674 H 0.21988 0.20277 0.40892 0.0
H1675 H 0.22905 0.18346 0.43124 0.0
H1676 H 0.20819 0.22622 0.43077 0.0
H1677 H 0.18734 0.23369 0.44787 0.0
C1678 C 0.80466 0.21222 0.48395 0.0
C1679 C 0.82217 0.20791 0.49827 0.0
C1680 C 0.81328 0.17655 0.50713 0.0
C1681 C 0.79533 0.18133 0.4976 0.0
N1682 N 0.77329 0.20443 0.48568 0.0
N1683 N 0.84262 0.18664 0.53002 0.0
C1684 C 0.79083 0.19938 0.48842 0.0
C1685 C 0.82637 0.19023 0.51163 0.0
N1686 N 0.80134 0.2284 0.46485 0.0
N1687 N 0.81792 0.15894 0.51059 0.0
H1688 H 0.85252 0.19633 0.534 0.0
H1689 H 0.84574 0.17447 0.54463 0.0
H1690 H 0.80871 0.14856 0.50723 0.0
H1691 H 0.8311 0.15456 0.51297 0.0
H1692 H 0.78926 0.23153 0.44977 0.0
H1693 H 0.81119 0.23809 0.4602 0.0
H1694 H 0.76924 0.21773 0.48364 0.0
H1695 H 0.76269 0.19554 0.48977 0.0
C1696 C 0.16626 0.3509 0.29213 0.0
C1697 C 0.15303 0.33733 0.29138 0.0
C1698 C 0.15197 0.33879 0.21158 0.0
C1699 C 0.16653 0.35093 0.21222 0.0
N1700 N 0.18897 0.36725 0.25222 0.0
N1701 N 0.13446 0.31681 0.25104 0.0
C1702 C 0.17403 0.35672 0.25229 0.0
C1703 C 0.14612 0.3309 0.25125 0.0
N1704 N 0.17113 0.35846 0.33094 0.0
N1705 N 0.14354 0.33508 0.17308 0.0
H1706 H 0.12964 0.31086 0.27946 0.0
H1707 H 0.13053 0.31015 0.22285 0.0
H1708 H 0.1476 0.3405 0.14336 0.0
H1709 H 0.13169 0.32784 0.17093 0.0
H1710 H 0.17927 0.3697 0.3334 0.0
H1711 H 0.16583 0.35439 0.36079 0.0
H1712 H 0.19631 0.37022 0.28012 0.0
H1713 H 0.19487 0.37204 0.22372 0.0
C1714 C 0.64916 0.15232 0.27558 0.0
C1715 C 0.6676 0.15382 0.28571 0.0
C1716 C 0.67336 0.16779 0.21476 0.0
C1717 C 0.65474 0.16758 0.20609 0.0
N1718 N 0.62454 0.16146 0.22906 0.0
N1719 N 0.69707 0.16475 0.2682 0.0
C1720 C 0.64251 0.16032 0.23674 0.0
C1721 C 0.67967 0.16201 0.25612 0.0
N1722 N 0.63812 0.14285 0.30261 0.0
N1723 N 0.68502 0.17324 0.18308 0.0
H1724 H 0.70227 0.16042 0.29792 0.0
H1725 H 0.70606 0.17242 0.25033 0.0
H1726 H 0.68085 0.17805 0.15284 0.0
H1727 H 0.69883 0.17183 0.18535 0.0
H1728 H 0.62497 0.13958 0.29496 0.0
H1729 H 0.64249 0.1371 0.3317 0.0
H1730 H 0.61483 0.15833 0.25211 0.0
H1731 H 0.61922 0.16668 0.20032 0.0
C1732 C 0.84735 0.64717 0.29054 0.0
C1733 C 0.84998 0.66588 0.2948 0.0
C1734 C 0.83918 0.67064 0.22018 0.0
C1735 C 0.83699 0.65188 0.21553 0.0
N1736 N 0.84115 0.62198 0.24286 0.0
N1737 N 0.85095 0.69532 0.26287 0.0
C1738 C 0.84176 0.64004 0.24974 0.0
C1739 C 0.84667 0.67759 0.25928 0.0
N1740 N 0.84977 0.63632 0.32594 0.0
N1741 N 0.83362 0.68181 0.18756 0.0
H1742 H 0.85586 0.70101 0.29149 0.0
H1743 H 0.85079 0.70424 0.23687 0.0
H1744 H 0.82882 0.6772 0.15769 0.0
H1745 H 0.83278 0.69563 0.19069 0.0
H1746 H 0.84615 0.6229 0.32677 0.0
H1747 H 0.85455 0.64099 0.35579 0.0
H1748 H 0.84619 0.61256 0.26457 0.0
H1749 H 0.83663 0.61631 0.21382 0.0
C1750 C 0.32832 0.85637 0.25109 0.0
C1751 C 0.33519 0.84985 0.29116 0.0
C1752 C 0.35508 0.82933 0.2519 0.0
C1753 C 0.34881 0.83645 0.21185 0.0
N1754 N 0.33189 0.85865 0.17266 0.0
N1755 N 0.35702 0.8325 0.33049 0.0
C1756 C 0.33615 0.85058 0.21127 0.0
C1757 C 0.34917 0.83703 0.29178 0.0
N1758 N 0.3139 0.86761 0.25109 0.0
N1759 N 0.36621 0.81483 0.25175 0.0
H1760 H 0.35288 0.83774 0.36034 0.0
H1761 H 0.36849 0.8247 0.33285 0.0
H1762 H 0.37113 0.80908 0.22319 0.0
H1763 H 0.36964 0.80769 0.27965 0.0
H1764 H 0.30694 0.87121 0.22307 0.0
H1765 H 0.30802 0.87243 0.2796 0.0
H1766 H 0.32425 0.87025 0.17042 0.0
H1767 H 0.33718 0.85457 0.14281 0.0
C1768 C 0.15239 0.64703 0.71932 0.0
C1769 C 0.14917 0.66562 0.71445 0.0
C1770 C 0.15977 0.67109 0.78894 0.0
C1771 C 0.16244 0.65244 0.79431 0.0
N1772 N 0.15883 0.62229 0.76818 0.0
N1773 N 0.14684 0.69506 0.74591 0.0
C1774 C 0.15797 0.64028 0.76052 0.0
C1775 C 0.15195 0.67757 0.74974 0.0
N1776 N 0.15062 0.63594 0.68414 0.0
N1777 N 0.16525 0.68265 0.82082 0.0
H1778 H 0.14145 0.70037 0.71736 0.0
H1779 H 0.14666 0.70404 0.77182 0.0
H1780 H 0.17047 0.67837 0.85055 0.0
H1781 H 0.1657 0.69646 0.81696 0.0
H1782 H 0.15469 0.62264 0.68395 0.0
H1783 H 0.14603 0.64034 0.65388 0.0
H1784 H 0.15403 0.61266 0.74667 0.0
H1785 H 0.16317 0.61692 0.79772 0.0
C1786 C 0.35171 0.15103 0.72013 0.0
C1787 C 0.33335 0.15301 0.70958 0.0
C1788 C 0.32769 0.1672 0.78035 0.0
C1789 C 0.34628 0.16658 0.78933 0.0
N1790 N 0.37638 0.15946 0.7673 0.0
N1791 N 0.30397 0.16422 0.72687 0.0
C1792 C 0.35841 0.15886 0.75912 0.0
C1793 C 0.32134 0.16139 0.73902 0.0
N1794 N 0.36262 0.14137 0.69318 0.0
N1795 N 0.31609 0.17306 0.81175 0.0
H1796 H 0.29867 0.15963 0.69748 0.0
H1797 H 0.29503 0.17207 0.74445 0.0
H1798 H 0.32031 0.17787 0.84195 0.0
H1799 H 0.30226 0.17204 0.80932 0.0
H1800 H 0.37565 0.13775 0.70104 0.0
H1801 H 0.35823 0.13584 0.66385 0.0
H1802 H 0.38611 0.15597 0.74461 0.0
H1803 H 0.38172 0.16453 0.79618 0.0
C1804 C 0.83599 0.35822 0.75318 0.0
C1805 C 0.83752 0.34764 0.79143 0.0
C1806 C 0.85133 0.3236 0.74883 0.0
C1807 C 0.85122 0.33479 0.71144 0.0
N1808 N 0.84705 0.36412 0.68037 0.0
N1809 N 0.85035 0.32203 0.82759 0.0
C1810 C 0.84464 0.35254 0.71433 0.0
C1811 C 0.84634 0.33085 0.78984 0.0
N1812 N 0.82559 0.37325 0.75328 0.0
N1813 N 0.85537 0.30585 0.74495 0.0
H1814 H 0.8472 0.32708 0.85833 0.0
H1815 H 0.85834 0.31063 0.82858 0.0
H1816 H 0.85869 0.29985 0.71536 0.0
H1817 H 0.85379 0.29673 0.77031 0.0
H1818 H 0.82247 0.38038 0.72513 0.0
H1819 H 0.81871 0.37771 0.78076 0.0
H1820 H 0.84414 0.37771 0.68235 0.0
H1821 H 0.85357 0.3605 0.65164 0.0
C1822 C 0.65333 0.85314 0.78069 0.0
C1823 C 0.65321 0.83441 0.78797 0.0
C1824 C 0.66743 0.8294 0.71698 0.0
C1825 C 0.66652 0.84803 0.70855 0.0
N1826 N 0.65607 0.87739 0.72853 0.0
N1827 N 0.65704 0.80444 0.76056 0.0
C1828 C 0.65871 0.85985 0.73932 0.0
C1829 C 0.65936 0.82245 0.75534 0.0
N1830 N 0.64886 0.86454 0.8138 0.0
N1831 N 0.67654 0.81844 0.68905 0.0
H1832 H 0.65125 0.79883 0.7883 0.0
H1833 H 0.65945 0.79514 0.736 0.0
H1834 H 0.68246 0.823 0.66035 0.0
H1835 H 0.67945 0.80512 0.69585 0.0
H1836 H 0.65058 0.87833 0.81221 0.0
H1837 H 0.64464 0.8601 0.84435 0.0
H1838 H 0.64874 0.88627 0.74758 0.0
H1839 H 0.65998 0.88277 0.69864 0.0
C1840 C 0.83311 0.65594 0.71641 0.0
C1841 C 0.85096 0.66225 0.71358 0.0
C1842 C 0.85649 0.6532 0.7893 0.0
C1843 C 0.83814 0.64869 0.79347 0.0
N1844 N 0.80861 0.64621 0.76265 0.0
N1845 N 0.87966 0.66773 0.7466 0.0
C1846 C 0.82636 0.65004 0.75733 0.0
C1847 C 0.86271 0.66097 0.74976 0.0
N1848 N 0.82269 0.65548 0.67979 0.0
N1849 N 0.86793 0.6499 0.82313 0.0
H1850 H 0.88492 0.67277 0.7176 0.0
H1851 H 0.88826 0.66924 0.77297 0.0
H1852 H 0.8637 0.64469 0.85292 0.0
H1853 H 0.88175 0.65112 0.82096 0.0
H1854 H 0.8102 0.64938 0.67833 0.0
H1855 H 0.82705 0.66012 0.64957 0.0
H1856 H 0.79885 0.64894 0.73943 0.0
H1857 H 0.80334 0.64107 0.79152 0.0
C1858 C 0.32644 0.8349 0.73404 0.0
C1859 C 0.33555 0.84893 0.71221 0.0
C1860 C 0.35711 0.85087 0.77227 0.0
C1861 C 0.34893 0.8358 0.7921 0.0
N1862 N 0.3278 0.81147 0.78845 0.0
N1863 N 0.36097 0.86861 0.70674 0.0
C1864 C 0.33414 0.82725 0.77202 0.0
C1865 C 0.3513 0.85648 0.73028 0.0
N1866 N 0.31013 0.82928 0.71925 0.0
N1867 N 0.37005 0.86013 0.79417 0.0
H1868 H 0.35704 0.8731 0.67601 0.0
H1869 H 0.37356 0.87316 0.716 0.0
H1870 H 0.37469 0.85637 0.82489 0.0
H1871 H 0.37518 0.87233 0.7836 0.0
H1872 H 0.30194 0.82052 0.73648 0.0
H1873 H 0.30402 0.83454 0.69151 0.0
H1874 H 0.31836 0.8036 0.77253 0.0
H1875 H 0.33308 0.80539 0.8162 0.0
C1876 C 0.16706 0.35149 0.71082 0.0
C1877 C 0.15359 0.33815 0.71168 0.0
C1878 C 0.15229 0.34009 0.79139 0.0
C1879 C 0.16725 0.35174 0.79073 0.0
N1880 N 0.1902 0.36729 0.75058 0.0
N1881 N 0.13451 0.31822 0.7524 0.0
C1882 C 0.17494 0.35723 0.75061 0.0
C1883 C 0.1464 0.33211 0.75188 0.0
N1884 N 0.17208 0.35888 0.67195 0.0
N1885 N 0.14358 0.33691 0.82978 0.0
H1886 H 0.12972 0.31213 0.72414 0.0
H1887 H 0.13038 0.31183 0.7808 0.0
H1888 H 0.14761 0.34249 0.85935 0.0
H1889 H 0.1315 0.33004 0.83182 0.0
H1890 H 0.18048 0.36994 0.66942 0.0
H1891 H 0.16663 0.35492 0.64218 0.0
H1892 H 0.19763 0.36996 0.72263 0.0
H1893 H 0.19624 0.37197 0.77902 0.0
C1894 C 0.65335 0.17712 0.7488 0.0
C1895 C 0.65154 0.16557 0.78524 0.0
C1896 C 0.664 0.14067 0.74292 0.0
C1897 C 0.66511 0.15204 0.70598 0.0
N1898 N 0.65822 0.18002 0.6709 0.0
N1899 N 0.6523 0.13592 0.81584 0.0
C1900 C 0.65898 0.16997 0.70809 0.0
C1901 C 0.656 0.14718 0.7819 0.0
N1902 N 0.6502 0.19503 0.75353 0.0
N1903 N 0.67118 0.12387 0.74112 0.0
H1904 H 0.64676 0.14032 0.84514 0.0
H1905 H 0.65342 0.12207 0.81395 0.0
H1906 H 0.67679 0.11851 0.71287 0.0
H1907 H 0.67268 0.11562 0.7682 0.0
H1908 H 0.65328 0.2045 0.72985 0.0
H1909 H 0.64554 0.20069 0.78246 0.0
H1910 H 0.65214 0.19252 0.66916 0.0
H1911 H 0.66244 0.17527 0.64064 0.0
C1912 C 0.83449 0.32682 0.26921 0.0
C1913 C 0.8485 0.33621 0.2904 0.0
C1914 C 0.84984 0.35765 0.22996 0.0
C1915 C 0.8349 0.34908 0.21056 0.0
N1916 N 0.81123 0.32724 0.21417 0.0
N1917 N 0.86805 0.36175 0.29467 0.0
C1918 C 0.82673 0.33413 0.23087 0.0
C1919 C 0.8558 0.35197 0.27178 0.0
N1920 N 0.82899 0.31063 0.28502 0.0
N1921 N 0.85859 0.37088 0.20783 0.0
H1922 H 0.87286 0.35786 0.32514 0.0
H1923 H 0.87247 0.37436 0.28515 0.0
H1924 H 0.85444 0.37553 0.1774 0.0
H1925 H 0.8707 0.37635 0.21793 0.0
H1926 H 0.82029 0.30217 0.2684 0.0
H1927 H 0.8342 0.3049 0.3133 0.0
H1928 H 0.80351 0.31769 0.23014 0.0
H1929 H 0.80526 0.33205 0.18577 0.0
C1930 C 0.64146 0.83592 0.24512 0.0
C1931 C 0.65271 0.83592 0.20787 0.0
C1932 C 0.67713 0.84892 0.25078 0.0
C1933 C 0.66564 0.84961 0.28756 0.0
N1934 N 0.63624 0.84663 0.31874 0.0
N1935 N 0.68003 0.84493 0.17256 0.0
C1936 C 0.64758 0.84398 0.28438 0.0
C1937 C 0.6702 0.8432 0.20992 0.0
N1938 N 0.62517 0.82764 0.24331 0.0
N1939 N 0.69482 0.8532 0.25532 0.0
H1940 H 0.67546 0.84065 0.14219 0.0
H1941 H 0.6921 0.85183 0.17088 0.0
H1942 H 0.70028 0.8579 0.28442 0.0
H1943 H 0.70437 0.851 0.23124 0.0
H1944 H 0.61719 0.82532 0.27051 0.0
H1945 H 0.62006 0.82196 0.21487 0.0
H1946 H 0.62249 0.84461 0.31707 0.0
H1947 H 0.64037 0.85218 0.34825 0.0
C1948 C 0.16734 0.65379 0.29293 0.0
C1949 C 0.15095 0.66336 0.29335 0.0
C1950 C 0.14706 0.65781 0.21505 0.0
C1951 C 0.16424 0.64978 0.21385 0.0
N1952 N 0.19139 0.64084 0.25012 0.0
N1953 N 0.12557 0.67566 0.25543 0.0
C1954 C 0.17452 0.64787 0.25247 0.0
C1955 C 0.14084 0.66559 0.25459 0.0
N1956 N 0.17588 0.65023 0.33139 0.0
N1957 N 0.13664 0.65778 0.17842 0.0
H1958 H 0.12025 0.68098 0.28406 0.0
H1959 H 0.11866 0.67964 0.22767 0.0
H1960 H 0.14098 0.65265 0.14864 0.0
H1961 H 0.12329 0.66167 0.17801 0.0
H1962 H 0.18685 0.64176 0.33414 0.0
H1963 H 0.17124 0.65479 0.36146 0.0
H1964 H 0.20046 0.64098 0.27581 0.0
H1965 H 0.1968 0.63566 0.22143 0.0
C1966 C 0.33909 0.14011 0.25253 0.0
C1967 C 0.33723 0.15171 0.28884 0.0
C1968 C 0.34837 0.17691 0.24545 0.0
C1969 C 0.35077 0.16518 0.20953 0.0
N1970 N 0.35123 0.13535 0.18001 0.0
N1971 N 0.34259 0.18024 0.3229 0.0
C1972 C 0.347 0.14667 0.21347 0.0
C1973 C 0.34266 0.16986 0.2862 0.0
N1974 N 0.33277 0.12298 0.25505 0.0
N1975 N 0.35104 0.19487 0.24013 0.0
H1976 H 0.33816 0.1756 0.35307 0.0
H1977 H 0.34813 0.19298 0.32445 0.0
H1978 H 0.35581 0.20047 0.21124 0.0
H1979 H 0.34751 0.20442 0.26325 0.0
H1980 H 0.33177 0.11443 0.2284 0.0
H1981 H 0.32745 0.11755 0.28355 0.0
H1982 H 0.35061 0.12148 0.18231 0.0
H1983 H 0.35666 0.13978 0.15062 0.0
loop_
_geom_bond_atom_site_label_1
_geom_bond_atom_site_label_2
_geom_bond_distance
_geom_bond_site_symmetry_2
_ccdc_geom_bond_type
Li0 N17 1.990 . S
Li0 O60 1.956 . S
Li0 O61 1.970 1_554 S
Li0 O62 1.961 1_554 S
Li1 N25 1.990 . S
Li1 O60 1.970 . S
Li1 O61 1.956 1_554 S
Li1 O63 1.961 . S
Li2 N47 1.990 . S
Li2 O60 1.961 1_556 S
Li2 O62 1.956 . S
Li2 O63 1.970 1_556 S
Li3 N53 1.990 . S
Li3 O61 1.961 . S
Li3 O62 1.970 . S
Li3 O63 1.956 1_556 S
C4 C6 1.348 . S
C4 C7 1.356 . S
C4 O60 1.325 . S
N5 C8 1.314 . S
N5 C9 1.279 . S
C6 C4 1.348 . S
C6 C8 1.353 . S
C6 H64 0.929 . S
C7 C4 1.356 . S
C7 C9 1.358 . S
C7 H65 0.930 . S
C8 N5 1.314 . S
C8 C6 1.353 . S
C8 H66 0.930 . S
C9 N5 1.279 . S
C9 C7 1.358 . S
C9 H67 0.930 . S
C10 C13 1.348 1_556 S
C10 C14 1.356 . S
C10 O61 1.325 . S
C11 N12 1.279 1_556 S
C11 C14 1.358 . S
C11 H68 0.930 . S
N12 C11 1.279 1_554 S
N12 C15 1.314 . S
C13 C10 1.348 1_554 S
C13 C15 1.353 . S
C13 H69 0.929 . S
C14 C10 1.356 . S
C14 C11 1.358 . S
C14 H70 0.930 . S
C15 N12 1.314 . S
C15 C13 1.353 . S
C15 H71 0.930 . S
C16 N17 1.314 1_556 S
C16 C21 1.353 . S
C16 H22 0.930 . S
N17 Li0 1.990 . S
N17 C16 1.314 1_554 S
N17 C19 1.279 . S
C18 C19 1.358 . S
C18 C20 1.359 . S
C18 H72 0.930 . S
C19 N17 1.279 . S
C19 C18 1.358 . S
C19 H23 0.930 . S
C20 C18 1.359 . S
C20 C21 1.345 1_554 S
C21 C16 1.353 . S
C21 C20 1.345 1_556 S
C21 H73 0.929 . S
H22 C16 0.930 . S
H23 C19 0.930 . S
C24 N25 1.314 . S
C24 C26 1.353 . S
C24 H30 0.930 . S
N25 Li1 1.990 . S
N25 C24 1.314 . S
N25 C28 1.279 . S
C26 C24 1.353 . S
C26 C29 1.348 . S
C26 H74 0.929 . S
C27 C28 1.358 . S
C27 C29 1.356 . S
C27 H75 0.930 . S
C28 N25 1.279 . S
C28 C27 1.358 . S
C28 H31 0.930 . S
C29 C26 1.348 . S
C29 C27 1.356 . S
H30 C24 0.930 . S
H31 C28 0.930 . S
C32 C34 1.348 . S
C32 C35 1.356 . S
C32 O62 1.325 . S
N33 C36 1.314 . S
N33 C37 1.279 . S
C34 C32 1.348 . S
C34 C36 1.353 . S
C34 H76 0.929 . S
C35 C32 1.356 . S
C35 C37 1.358 . S
C35 H77 0.930 . S
C36 N33 1.314 . S
C36 C34 1.353 . S
C36 H78 0.930 . S
C37 N33 1.279 . S
C37 C35 1.358 . S
C37 H79 0.930 . S
C38 C39 1.347 1_554 S
C38 C40 1.357 . S
C38 O63 1.325 . S
C39 C38 1.347 1_556 S
C39 C41 1.353 . S
C39 H80 0.929 . S
C40 C38 1.357 . S
C40 C42 1.358 . S
C40 H81 0.930 . S
C41 C39 1.353 . S
C41 N43 1.314 . S
C41 H82 0.930 . S
C42 C40 1.358 . S
C42 N43 1.279 1_554 S
C42 H83 0.930 . S
N43 C41 1.314 . S
N43 C42 1.279 1_556 S
C44 C46 1.353 . S
C44 N47 1.314 1_554 S
C44 H50 0.930 . S
C45 N47 1.279 . S
C45 C48 1.358 . S
C45 H51 0.930 . S
C46 C44 1.353 . S
C46 C49 1.345 . S
C46 H84 0.929 . S
N47 Li2 1.990 . S
N47 C44 1.314 1_556 S
N47 C45 1.279 . S
C48 C45 1.358 . S
C48 C49 1.359 1_556 S
C48 H85 0.930 . S
C49 C46 1.345 . S
C49 C48 1.359 1_554 S
H50 C44 0.930 . S
H51 C45 0.930 . S
C52 N53 1.314 . S
C52 C54 1.353 . S
C52 H58 0.930 . S
N53 Li3 1.990 . S
N53 C52 1.314 . S
N53 C56 1.279 . S
C54 C52 1.353 . S
C54 C57 1.348 . S
C54 H86 0.929 . S
C55 C56 1.358 . S
C55 C57 1.356 . S
C55 H87 0.930 . S
C56 N53 1.279 . S
C56 C55 1.358 . S
C56 H59 0.930 . S
C57 C54 1.348 . S
C57 C55 1.356 . S
H58 C52 0.930 . S
H59 C56 0.930 . S
O60 Li0 1.956 . S
O60 Li1 1.970 . S
O60 Li2 1.961 1_554 S
O60 C4 1.325 . S
O61 Li0 1.970 1_556 S
O61 Li1 1.956 1_556 S
O61 Li3 1.961 . S
O61 C10 1.325 . S
O62 Li0 1.961 1_556 S
O62 Li2 1.956 . S
O62 Li3 1.970 . S
O62 C32 1.325 . S
O63 Li1 1.961 . S
O63 Li2 1.970 1_554 S
O63 Li3 1.956 1_554 S
O63 C38 1.325 . S
H64 C6 0.929 . S
H65 C7 0.930 . S
H66 C8 0.930 . S
H67 C9 0.930 . S
H68 C11 0.930 . S
H69 C13 0.929 . S
H70 C14 0.930 . S
H71 C15 0.930 . S
H72 C18 0.930 . S
H73 C21 0.929 . S
H74 C26 0.929 . S
H75 C27 0.930 . S
H76 C34 0.929 . S
H77 C35 0.930 . S
H78 C36 0.930 . S
H79 C37 0.930 . S
H80 C39 0.929 . S
H81 C40 0.930 . S
H82 C41 0.930 . S
H83 C42 0.930 . S
H84 C46 0.929 . S
H85 C48 0.930 . S
H86 C54 0.929 . S
H87 C55 0.930 . S
Li88 N105 1.990 . S
Li88 O148 1.956 . S
Li88 O149 1.970 1_554 S
Li88 O150 1.961 1_554 S
Li89 N113 1.990 . S
Li89 O148 1.970 . S
Li89 O149 1.956 1_554 S
Li89 O151 1.961 . S
Li90 N135 1.990 . S
Li90 O148 1.961 1_556 S
Li90 O150 1.956 . S
Li90 O151 1.970 1_556 S
Li91 N141 1.990 . S
Li91 O149 1.961 . S
Li91 O150 1.970 . S
Li91 O151 1.956 1_556 S
C92 C94 1.348 . S
C92 C95 1.356 . S
C92 O148 1.325 . S
N93 C96 1.314 . S
N93 C97 1.279 . S
C94 C92 1.348 . S
C94 C96 1.353 . S
C94 H152 0.929 . S
C95 C92 1.356 . S
C95 C97 1.358 . S
C95 H153 0.930 . S
C96 N93 1.314 . S
C96 C94 1.353 . S
C96 H154 0.930 . S
C97 N93 1.279 . S
C97 C95 1.358 . S
C97 H155 0.930 . S
C98 C101 1.348 1_556 S
C98 C102 1.356 . S
C98 O149 1.325 . S
C99 N100 1.279 1_556 S
C99 C102 1.358 . S
C99 H156 0.930 . S
N100 C99 1.279 1_554 S
N100 C103 1.314 . S
C101 C98 1.348 1_554 S
C101 C103 1.353 . S
C101 H157 0.929 . S
C102 C98 1.356 . S
C102 C99 1.358 . S
C102 H158 0.930 . S
C103 N100 1.314 . S
C103 C101 1.353 . S
C103 H159 0.930 . S
C104 N105 1.314 1_556 S
C104 C109 1.353 . S
C104 H110 0.930 . S
N105 Li88 1.990 . S
N105 C104 1.314 1_554 S
N105 C107 1.279 . S
C106 C107 1.358 . S
C106 C108 1.359 . S
C106 H160 0.930 . S
C107 N105 1.279 . S
C107 C106 1.358 . S
C107 H111 0.930 . S
C108 C106 1.359 . S
C108 C109 1.345 1_554 S
C109 C104 1.353 . S
C109 C108 1.345 1_556 S
C109 H161 0.929 . S
H110 C104 0.930 . S
H111 C107 0.930 . S
C112 N113 1.314 . S
C112 C114 1.353 . S
C112 H118 0.930 . S
N113 Li89 1.990 . S
N113 C112 1.314 . S
N113 C116 1.279 . S
C114 C112 1.353 . S
C114 C117 1.348 . S
C114 H162 0.929 . S
C115 C116 1.358 . S
C115 C117 1.356 . S
C115 H163 0.930 . S
C116 N113 1.279 . S
C116 C115 1.358 . S
C116 H119 0.930 . S
C117 C114 1.348 . S
C117 C115 1.356 . S
H118 C112 0.930 . S
H119 C116 0.930 . S
C120 C122 1.348 . S
C120 C123 1.356 . S
C120 O150 1.325 . S
N121 C124 1.314 . S
N121 C125 1.279 . S
C122 C120 1.348 . S
C122 C124 1.353 . S
C122 H164 0.929 . S
C123 C120 1.356 . S
C123 C125 1.358 . S
C123 H165 0.930 . S
C124 N121 1.314 . S
C124 C122 1.353 . S
C124 H166 0.930 . S
C125 N121 1.279 . S
C125 C123 1.358 . S
C125 H167 0.930 . S
C126 C127 1.347 1_554 S
C126 C128 1.357 . S
C126 O151 1.325 . S
C127 C126 1.347 1_556 S
C127 C129 1.353 . S
C127 H168 0.929 . S
C128 C126 1.357 . S
C128 C130 1.358 . S
C128 H169 0.930 . S
C129 C127 1.353 . S
C129 N131 1.314 . S
C129 H170 0.930 . S
C130 C128 1.358 . S
C130 N131 1.279 1_554 S
C130 H171 0.930 . S
N131 C129 1.314 . S
N131 C130 1.279 1_556 S
C132 C134 1.353 . S
C132 N135 1.314 1_554 S
C132 H138 0.930 . S
C133 N135 1.279 . S
C133 C136 1.358 . S
C133 H139 0.930 . S
C134 C132 1.353 . S
C134 C137 1.345 . S
C134 H172 0.929 . S
N135 Li90 1.990 . S
N135 C132 1.314 1_556 S
N135 C133 1.279 . S
C136 C133 1.358 . S
C136 C137 1.359 1_556 S
C136 H173 0.930 . S
C137 C134 1.345 . S
C137 C136 1.359 1_554 S
H138 C132 0.930 . S
H139 C133 0.930 . S
C140 N141 1.314 . S
C140 C142 1.353 . S
C140 H146 0.930 . S
N141 Li91 1.990 . S
N141 C140 1.314 . S
N141 C144 1.279 . S
C142 C140 1.353 . S
C142 C145 1.348 . S
C142 H174 0.929 . S
C143 C144 1.358 . S
C143 C145 1.356 . S
C143 H175 0.930 . S
C144 N141 1.279 . S
C144 C143 1.358 . S
C144 H147 0.930 . S
C145 C142 1.348 . S
C145 C143 1.356 . S
H146 C140 0.930 . S
H147 C144 0.930 . S
O148 Li88 1.956 . S
O148 Li89 1.970 . S
O148 Li90 1.961 1_554 S
O148 C92 1.325 . S
O149 Li88 1.970 1_556 S
O149 Li89 1.956 1_556 S
O149 Li91 1.961 . S
O149 C98 1.325 . S
O150 Li88 1.961 1_556 S
O150 Li90 1.956 . S
O150 Li91 1.970 . S
O150 C120 1.325 . S
O151 Li89 1.961 . S
O151 Li90 1.970 1_554 S
O151 Li91 1.956 1_554 S
O151 C126 1.325 . S
H152 C94 0.929 . S
H153 C95 0.930 . S
H154 C96 0.930 . S
H155 C97 0.930 . S
H156 C99 0.930 . S
H157 C101 0.929 . S
H158 C102 0.930 . S
H159 C103 0.930 . S
H160 C106 0.930 . S
H161 C109 0.929 . S
H162 C114 0.929 . S
H163 C115 0.930 . S
H164 C122 0.929 . S
H165 C123 0.930 . S
H166 C124 0.930 . S
H167 C125 0.930 . S
H168 C127 0.929 . S
H169 C128 0.930 . S
H170 C129 0.930 . S
H171 C130 0.930 . S
H172 C134 0.929 . S
H173 C136 0.930 . S
H174 C142 0.929 . S
H175 C143 0.930 . S
Li176 N193 1.990 . S
Li176 O236 1.956 1_554 S
Li176 O237 1.970 . S
Li176 O238 1.961 . S
Li177 N201 1.990 . S
Li177 O236 1.970 1_554 S
Li177 O237 1.956 . S
Li177 O239 1.961 1_554 S
Li178 N223 1.990 . S
Li178 O236 1.961 . S
Li178 O238 1.956 1_556 S
Li178 O239 1.970 . S
Li179 N229 1.990 . S
Li179 O237 1.961 1_556 S
Li179 O238 1.970 1_556 S
Li179 O239 1.956 . S
C180 C182 1.348 1_556 S
C180 C183 1.356 . S
C180 O236 1.325 . S
N181 C184 1.314 . S
N181 C185 1.279 1_554 S
C182 C180 1.348 1_554 S
C182 C184 1.353 . S
C182 H240 0.929 . S
C183 C180 1.356 . S
C183 C185 1.358 . S
C183 H241 0.930 . S
C184 N181 1.314 . S
C184 C182 1.353 . S
C184 H242 0.930 . S
C185 N181 1.279 1_556 S
C185 C183 1.358 . S
C185 H243 0.930 . S
C186 C189 1.348 . S
C186 C190 1.356 . S
C186 O237 1.325 . S
C187 N188 1.279 . S
C187 C190 1.358 . S
C187 H244 0.930 . S
N188 C187 1.279 . S
N188 C191 1.314 . S
C189 C186 1.348 . S
C189 C191 1.353 . S
C189 H245 0.929 . S
C190 C186 1.356 . S
C190 C187 1.358 . S
C190 H246 0.930 . S
C191 N188 1.314 . S
C191 C189 1.353 . S
C191 H247 0.930 . S
C192 N193 1.314 . S
C192 C197 1.353 . S
C192 H198 0.930 . S
N193 Li176 1.990 . S
N193 C192 1.314 . S
N193 C195 1.279 . S
C194 C195 1.358 . S
C194 C196 1.356 . S
C194 H248 0.930 . S
C195 N193 1.279 . S
C195 C194 1.358 . S
C195 H199 0.930 . S
C196 C194 1.356 . S
C196 C197 1.348 . S
C197 C192 1.353 . S
C197 C196 1.348 . S
C197 H249 0.929 . S
H198 C192 0.930 . S
H199 C195 0.930 . S
C200 N201 1.314 1_556 S
C200 C202 1.353 . S
C200 H206 0.930 . S
N201 Li177 1.990 . S
N201 C200 1.314 1_554 S
N201 C204 1.279 . S
C202 C200 1.353 . S
C202 C205 1.345 1_556 S
C202 H250 0.929 . S
C203 C204 1.358 . S
C203 C205 1.359 . S
C203 H251 0.930 . S
C204 N201 1.279 . S
C204 C203 1.358 . S
C204 H207 0.930 . S
C205 C202 1.345 1_554 S
C205 C203 1.359 . S
H206 C200 0.930 . S
H207 C204 0.930 . S
C208 C210 1.347 1_554 S
C208 C211 1.357 . S
C208 O238 1.325 . S
N209 C212 1.314 . S
N209 C213 1.279 1_556 S
C210 C208 1.347 1_556 S
C210 C212 1.353 . S
C210 H252 0.929 . S
C211 C208 1.357 . S
C211 C213 1.358 . S
C211 H253 0.930 . S
C212 N209 1.314 . S
C212 C210 1.353 . S
C212 H254 0.930 . S
C213 N209 1.279 1_554 S
C213 C211 1.358 . S
C213 H255 0.930 . S
C214 C215 1.348 . S
C214 C216 1.356 . S
C214 O239 1.325 . S
C215 C214 1.348 . S
C215 C217 1.353 . S
C215 H256 0.929 . S
C216 C214 1.356 . S
C216 C218 1.358 . S
C216 H257 0.930 . S
C217 C215 1.353 . S
C217 N219 1.314 . S
C217 H258 0.930 . S
C218 C216 1.358 . S
C218 N219 1.279 . S
C218 H259 0.930 . S
N219 C217 1.314 . S
N219 C218 1.279 . S
C220 C222 1.353 . S
C220 N223 1.314 . S
C220 H226 0.930 . S
C221 N223 1.279 . S
C221 C224 1.358 . S
C221 H227 0.930 . S
C222 C220 1.353 . S
C222 C225 1.348 . S
C222 H260 0.929 . S
N223 Li178 1.990 . S
N223 C220 1.314 . S
N223 C221 1.279 . S
C224 C221 1.358 . S
C224 C225 1.356 . S
C224 H261 0.930 . S
C225 C222 1.348 . S
C225 C224 1.356 . S
H226 C220 0.930 . S
H227 C221 0.930 . S
C228 N229 1.314 1_554 S
C228 C230 1.353 . S
C228 H234 0.930 . S
N229 Li179 1.990 . S
N229 C228 1.314 1_556 S
N229 C232 1.279 . S
C230 C228 1.353 . S
C230 C233 1.345 . S
C230 H262 0.929 . S
C231 C232 1.358 . S
C231 C233 1.359 1_556 S
C231 H263 0.930 . S
C232 N229 1.279 . S
C232 C231 1.358 . S
C232 H235 0.930 . S
C233 C230 1.345 . S
C233 C231 1.359 1_554 S
H234 C228 0.930 . S
H235 C232 0.930 . S
O236 Li176 1.956 1_556 S
O236 Li177 1.970 1_556 S
O236 Li178 1.961 . S
O236 C180 1.325 . S
O237 Li176 1.970 . S
O237 Li177 1.956 . S
O237 Li179 1.961 1_554 S
O237 C186 1.325 . S
O238 Li176 1.961 . S
O238 Li178 1.956 1_554 S
O238 Li179 1.970 1_554 S
O238 C208 1.325 . S
O239 Li177 1.961 1_556 S
O239 Li178 1.970 . S
O239 Li179 1.956 . S
O239 C214 1.325 . S
H240 C182 0.929 . S
H241 C183 0.930 . S
H242 C184 0.930 . S
H243 C185 0.930 . S
H244 C187 0.930 . S
H245 C189 0.929 . S
H246 C190 0.930 . S
H247 C191 0.930 . S
H248 C194 0.930 . S
H249 C197 0.929 . S
H250 C202 0.929 . S
H251 C203 0.930 . S
H252 C210 0.929 . S
H253 C211 0.930 . S
H254 C212 0.930 . S
H255 C213 0.930 . S
H256 C215 0.929 . S
H257 C216 0.930 . S
H258 C217 0.930 . S
H259 C218 0.930 . S
H260 C222 0.929 . S
H261 C224 0.930 . S
H262 C230 0.929 . S
H263 C231 0.930 . S
Li264 N281 1.990 . S
Li264 O324 1.956 1_554 S
Li264 O325 1.970 . S
Li264 O326 1.961 . S
Li265 N289 1.990 . S
Li265 O324 1.970 1_554 S
Li265 O325 1.956 . S
Li265 O327 1.961 1_554 S
Li266 N311 1.990 . S
Li266 O324 1.961 . S
Li266 O326 1.956 1_556 S
Li266 O327 1.970 . S
Li267 N317 1.990 . S
Li267 O325 1.961 1_556 S
Li267 O326 1.970 1_556 S
Li267 O327 1.956 . S
C268 C270 1.348 1_556 S
C268 C271 1.356 . S
C268 O324 1.325 . S
N269 C272 1.314 . S
N269 C273 1.279 1_554 S
C270 C268 1.348 1_554 S
C270 C272 1.353 . S
C270 H328 0.929 . S
C271 C268 1.356 . S
C271 C273 1.358 . S
C271 H329 0.930 . S
C272 N269 1.314 . S
C272 C270 1.353 . S
C272 H330 0.930 . S
C273 N269 1.279 1_556 S
C273 C271 1.358 . S
C273 H331 0.930 . S
C274 C277 1.348 . S
C274 C278 1.356 . S
C274 O325 1.325 . S
C275 N276 1.279 . S
C275 C278 1.358 . S
C275 H332 0.930 . S
N276 C275 1.279 . S
N276 C279 1.314 . S
C277 C274 1.348 . S
C277 C279 1.353 . S
C277 H333 0.929 . S
C278 C274 1.356 . S
C278 C275 1.358 . S
C278 H334 0.930 . S
C279 N276 1.314 . S
C279 C277 1.353 . S
C279 H335 0.930 . S
C280 N281 1.314 . S
C280 C285 1.353 . S
C280 H286 0.930 . S
N281 Li264 1.990 . S
N281 C280 1.314 . S
N281 C283 1.279 . S
C282 C283 1.358 . S
C282 C284 1.356 . S
C282 H336 0.930 . S
C283 N281 1.279 . S
C283 C282 1.358 . S
C283 H287 0.930 . S
C284 C282 1.356 . S
C284 C285 1.348 . S
C285 C280 1.353 . S
C285 C284 1.348 . S
C285 H337 0.929 . S
H286 C280 0.930 . S
H287 C283 0.930 . S
C288 N289 1.314 1_556 S
C288 C290 1.353 . S
C288 H294 0.930 . S
N289 Li265 1.990 . S
N289 C288 1.314 1_554 S
N289 C292 1.279 . S
C290 C288 1.353 . S
C290 C293 1.345 1_556 S
C290 H338 0.929 . S
C291 C292 1.358 . S
C291 C293 1.359 . S
C291 H339 0.930 . S
C292 N289 1.279 . S
C292 C291 1.358 . S
C292 H295 0.930 . S
C293 C290 1.345 1_554 S
C293 C291 1.359 . S
H294 C288 0.930 . S
H295 C292 0.930 . S
C296 C298 1.347 1_554 S
C296 C299 1.357 . S
C296 O326 1.325 . S
N297 C300 1.314 . S
N297 C301 1.279 1_556 S
C298 C296 1.347 1_556 S
C298 C300 1.353 . S
C298 H340 0.929 . S
C299 C296 1.357 . S
C299 C301 1.358 . S
C299 H341 0.930 . S
C300 N297 1.314 . S
C300 C298 1.353 . S
C300 H342 0.930 . S
C301 N297 1.279 1_554 S
C301 C299 1.358 . S
C301 H343 0.930 . S
C302 C303 1.348 . S
C302 C304 1.356 . S
C302 O327 1.325 . S
C303 C302 1.348 . S
C303 C305 1.353 . S
C303 H344 0.929 . S
C304 C302 1.356 . S
C304 C306 1.358 . S
C304 H345 0.930 . S
C305 C303 1.353 . S
C305 N307 1.314 . S
C305 H346 0.930 . S
C306 C304 1.358 . S
C306 N307 1.279 . S
C306 H347 0.930 . S
N307 C305 1.314 . S
N307 C306 1.279 . S
C308 C310 1.353 . S
C308 N311 1.314 . S
C308 H314 0.930 . S
C309 N311 1.279 . S
C309 C312 1.358 . S
C309 H315 0.930 . S
C310 C308 1.353 . S
C310 C313 1.348 . S
C310 H348 0.929 . S
N311 Li266 1.990 . S
N311 C308 1.314 . S
N311 C309 1.279 . S
C312 C309 1.358 . S
C312 C313 1.356 . S
C312 H349 0.930 . S
C313 C310 1.348 . S
C313 C312 1.356 . S
H314 C308 0.930 . S
H315 C309 0.930 . S
C316 N317 1.314 1_554 S
C316 C318 1.353 . S
C316 H322 0.930 . S
N317 Li267 1.990 . S
N317 C316 1.314 1_556 S
N317 C320 1.279 . S
C318 C316 1.353 . S
C318 C321 1.345 . S
C318 H350 0.929 . S
C319 C320 1.358 . S
C319 C321 1.359 1_556 S
C319 H351 0.930 . S
C320 N317 1.279 . S
C320 C319 1.358 . S
C320 H323 0.930 . S
C321 C318 1.345 . S
C321 C319 1.359 1_554 S
H322 C316 0.930 . S
H323 C320 0.930 . S
O324 Li264 1.956 1_556 S
O324 Li265 1.970 1_556 S
O324 Li266 1.961 . S
O324 C268 1.325 . S
O325 Li264 1.970 . S
O325 Li265 1.956 . S
O325 Li267 1.961 1_554 S
O325 C274 1.325 . S
O326 Li264 1.961 . S
O326 Li266 1.956 1_554 S
O326 Li267 1.970 1_554 S
O326 C296 1.325 . S
O327 Li265 1.961 1_556 S
O327 Li266 1.970 . S
O327 Li267 1.956 . S
O327 C302 1.325 . S
H328 C270 0.929 . S
H329 C271 0.930 . S
H330 C272 0.930 . S
H331 C273 0.930 . S
H332 C275 0.930 . S
H333 C277 0.929 . S
H334 C278 0.930 . S
H335 C279 0.930 . S
H336 C282 0.930 . S
H337 C285 0.929 . S
H338 C290 0.929 . S
H339 C291 0.930 . S
H340 C298 0.929 . S
H341 C299 0.930 . S
H342 C300 0.930 . S
H343 C301 0.930 . S
H344 C303 0.929 . S
H345 C304 0.930 . S
H346 C305 0.930 . S
H347 C306 0.930 . S
H348 C310 0.929 . S
H349 C312 0.930 . S
H350 C318 0.929 . S
H351 C319 0.930 . S
Li352 N369 1.990 . S
Li352 O412 1.956 1_554 S
Li352 O413 1.970 . S
Li352 O414 1.961 . S
Li353 N377 1.990 . S
Li353 O412 1.970 1_554 S
Li353 O413 1.956 . S
Li353 O415 1.961 1_554 S
Li354 N399 1.990 . S
Li354 O412 1.961 . S
Li354 O414 1.956 1_556 S
Li354 O415 1.970 . S
Li355 N405 1.990 . S
Li355 O413 1.961 1_556 S
Li355 O414 1.970 1_556 S
Li355 O415 1.956 . S
C356 C358 1.348 1_556 S
C356 C359 1.356 . S
C356 O412 1.325 . S
N357 C360 1.314 . S
N357 C361 1.279 1_554 S
C358 C356 1.348 1_554 S
C358 C360 1.353 . S
C358 H416 0.929 . S
C359 C356 1.356 . S
C359 C361 1.358 . S
C359 H417 0.930 . S
C360 N357 1.314 . S
C360 C358 1.353 . S
C360 H418 0.930 . S
C361 N357 1.279 1_556 S
C361 C359 1.358 . S
C361 H419 0.930 . S
C362 C365 1.348 . S
C362 C366 1.356 . S
C362 O413 1.325 . S
C363 N364 1.279 . S
C363 C366 1.358 . S
C363 H420 0.930 . S
N364 C363 1.279 . S
N364 C367 1.314 . S
C365 C362 1.348 . S
C365 C367 1.353 . S
C365 H421 0.929 . S
C366 C362 1.356 . S
C366 C363 1.358 . S
C366 H422 0.930 . S
C367 N364 1.314 . S
C367 C365 1.353 . S
C367 H423 0.930 . S
C368 N369 1.314 . S
C368 C373 1.353 . S
C368 H374 0.930 . S
N369 Li352 1.990 . S
N369 C368 1.314 . S
N369 C371 1.279 . S
C370 C371 1.358 . S
C370 C372 1.356 . S
C370 H424 0.930 . S
C371 N369 1.279 . S
C371 C370 1.358 . S
C371 H375 0.930 . S
C372 C370 1.356 . S
C372 C373 1.348 . S
C373 C368 1.353 . S
C373 C372 1.348 . S
C373 H425 0.929 . S
H374 C368 0.930 . S
H375 C371 0.930 . S
C376 N377 1.314 1_556 S
C376 C378 1.353 . S
C376 H382 0.930 . S
N377 Li353 1.990 . S
N377 C376 1.314 1_554 S
N377 C380 1.279 . S
C378 C376 1.353 . S
C378 C381 1.345 1_556 S
C378 H426 0.929 . S
C379 C380 1.358 . S
C379 C381 1.359 . S
C379 H427 0.930 . S
C380 N377 1.279 . S
C380 C379 1.358 . S
C380 H383 0.930 . S
C381 C378 1.345 1_554 S
C381 C379 1.359 . S
H382 C376 0.930 . S
H383 C380 0.930 . S
C384 C386 1.346 1_554 S
C384 C387 1.357 . S
C384 O414 1.325 . S
N385 C388 1.314 . S
N385 C389 1.279 1_556 S
C386 C384 1.346 1_556 S
C386 C388 1.353 . S
C386 H428 0.929 . S
C387 C384 1.357 . S
C387 C389 1.358 . S
C387 H429 0.930 . S
C388 N385 1.314 . S
C388 C386 1.353 . S
C388 H430 0.930 . S
C389 N385 1.279 1_554 S
C389 C387 1.358 . S
C389 H431 0.930 . S
C390 C391 1.348 . S
C390 C392 1.356 . S
C390 O415 1.325 . S
C391 C390 1.348 . S
C391 C393 1.353 . S
C391 H432 0.929 . S
C392 C390 1.356 . S
C392 C394 1.358 . S
C392 H433 0.930 . S
C393 C391 1.353 . S
C393 N395 1.314 . S
C393 H434 0.930 . S
C394 C392 1.358 . S
C394 N395 1.279 . S
C394 H435 0.930 . S
N395 C393 1.314 . S
N395 C394 1.279 . S
C396 C398 1.353 . S
C396 N399 1.314 . S
C396 H402 0.930 . S
C397 N399 1.279 . S
C397 C400 1.358 . S
C397 H403 0.930 . S
C398 C396 1.353 . S
C398 C401 1.348 . S
C398 H436 0.929 . S
N399 Li354 1.990 . S
N399 C396 1.314 . S
N399 C397 1.279 . S
C400 C397 1.358 . S
C400 C401 1.356 . S
C400 H437 0.930 . S
C401 C398 1.348 . S
C401 C400 1.356 . S
H402 C396 0.930 . S
H403 C397 0.930 . S
C404 N405 1.314 1_554 S
C404 C406 1.353 . S
C404 H410 0.930 . S
N405 Li355 1.990 . S
N405 C404 1.314 1_556 S
N405 C408 1.279 . S
C406 C404 1.353 . S
C406 C409 1.350 1_554 S
C406 H438 0.929 . S
C407 C408 1.358 . S
C407 C409 1.354 . S
C407 H439 0.930 . S
C408 N405 1.279 . S
C408 C407 1.358 . S
C408 H411 0.930 . S
C409 C406 1.350 1_556 S
C409 C407 1.354 . S
H410 C404 0.930 . S
H411 C408 0.930 . S
O412 Li352 1.956 1_556 S
O412 Li353 1.970 1_556 S
O412 Li354 1.961 . S
O412 C356 1.325 . S
O413 Li352 1.970 . S
O413 Li353 1.956 . S
O413 Li355 1.961 1_554 S
O413 C362 1.325 . S
O414 Li352 1.961 . S
O414 Li354 1.956 1_554 S
O414 Li355 1.970 1_554 S
O414 C384 1.325 . S
O415 Li353 1.961 1_556 S
O415 Li354 1.970 . S
O415 Li355 1.956 . S
O415 C390 1.325 . S
H416 C358 0.929 . S
H417 C359 0.930 . S
H418 C360 0.930 . S
H419 C361 0.930 . S
H420 C363 0.930 . S
H421 C365 0.929 . S
H422 C366 0.930 . S
H423 C367 0.930 . S
H424 C370 0.930 . S
H425 C373 0.929 . S
H426 C378 0.929 . S
H427 C379 0.930 . S
H428 C386 0.929 . S
H429 C387 0.930 . S
H430 C388 0.930 . S
H431 C389 0.930 . S
H432 C391 0.929 . S
H433 C392 0.930 . S
H434 C393 0.930 . S
H435 C394 0.930 . S
H436 C398 0.929 . S
H437 C400 0.930 . S
H438 C406 0.929 . S
H439 C407 0.930 . S
Li440 N457 1.990 . S
Li440 O500 1.956 . S
Li440 O501 1.970 1_554 S
Li440 O502 1.961 1_554 S
Li441 N465 1.990 . S
Li441 O500 1.970 . S
Li441 O501 1.956 1_554 S
Li441 O503 1.961 . S
Li442 N487 1.990 . S
Li442 O500 1.961 1_556 S
Li442 O502 1.956 . S
Li442 O503 1.970 1_556 S
Li443 N493 1.990 . S
Li443 O501 1.961 . S
Li443 O502 1.970 . S
Li443 O503 1.956 1_556 S
C444 C446 1.348 . S
C444 C447 1.356 . S
C444 O500 1.325 . S
N445 C448 1.314 . S
N445 C449 1.279 . S
C446 C444 1.348 . S
C446 C448 1.353 . S
C446 H504 0.929 . S
C447 C444 1.356 . S
C447 C449 1.358 . S
C447 H505 0.930 . S
C448 N445 1.314 . S
C448 C446 1.353 . S
C448 H506 0.930 . S
C449 N445 1.279 . S
C449 C447 1.358 . S
C449 H507 0.930 . S
C450 C453 1.348 1_556 S
C450 C454 1.356 . S
C450 O501 1.325 . S
C451 N452 1.279 1_556 S
C451 C454 1.358 . S
C451 H508 0.930 . S
N452 C451 1.279 1_554 S
N452 C455 1.314 . S
C453 C450 1.348 1_554 S
C453 C455 1.353 . S
C453 H509 0.929 . S
C454 C450 1.356 . S
C454 C451 1.358 . S
C454 H510 0.930 . S
C455 N452 1.314 . S
C455 C453 1.353 . S
C455 H511 0.930 . S
C456 N457 1.314 1_556 S
C456 C461 1.353 . S
C456 H462 0.930 . S
N457 Li440 1.990 . S
N457 C456 1.314 1_554 S
N457 C459 1.279 . S
C458 C459 1.358 . S
C458 C460 1.359 . S
C458 H512 0.930 . S
C459 N457 1.279 . S
C459 C458 1.358 . S
C459 H463 0.930 . S
C460 C458 1.359 . S
C460 C461 1.345 1_554 S
C461 C456 1.353 . S
C461 C460 1.345 1_556 S
C461 H513 0.929 . S
H462 C456 0.930 . S
H463 C459 0.930 . S
C464 N465 1.314 . S
C464 C466 1.353 . S
C464 H470 0.930 . S
N465 Li441 1.990 . S
N465 C464 1.314 . S
N465 C468 1.279 . S
C466 C464 1.353 . S
C466 C469 1.348 . S
C466 H514 0.929 . S
C467 C468 1.358 . S
C467 C469 1.356 . S
C467 H515 0.930 . S
C468 N465 1.279 . S
C468 C467 1.358 . S
C468 H471 0.930 . S
C469 C466 1.348 . S
C469 C467 1.356 . S
H470 C464 0.930 . S
H471 C468 0.930 . S
C472 C474 1.348 . S
C472 C475 1.356 . S
C472 O502 1.325 . S
N473 C476 1.314 . S
N473 C477 1.279 . S
C474 C472 1.348 . S
C474 C476 1.353 . S
C474 H516 0.929 . S
C475 C472 1.356 . S
C475 C477 1.358 . S
C475 H517 0.930 . S
C476 N473 1.314 . S
C476 C474 1.353 . S
C476 H518 0.930 . S
C477 N473 1.279 . S
C477 C475 1.358 . S
C477 H519 0.930 . S
C478 C479 1.346 1_554 S
C478 C480 1.357 . S
C478 O503 1.325 . S
C479 C478 1.346 1_556 S
C479 C481 1.353 . S
C479 H520 0.929 . S
C480 C478 1.357 . S
C480 C482 1.358 . S
C480 H521 0.930 . S
C481 C479 1.353 . S
C481 N483 1.314 . S
C481 H522 0.930 . S
C482 C480 1.358 . S
C482 N483 1.279 1_554 S
C482 H523 0.930 . S
N483 C481 1.314 . S
N483 C482 1.279 1_556 S
C484 C486 1.353 . S
C484 N487 1.314 1_554 S
C484 H490 0.930 . S
C485 N487 1.279 . S
C485 C488 1.358 . S
C485 H491 0.930 . S
C486 C484 1.353 . S
C486 C489 1.350 1_554 S
C486 H524 0.929 . S
N487 Li442 1.990 . S
N487 C484 1.314 1_556 S
N487 C485 1.279 . S
C488 C485 1.358 . S
C488 C489 1.354 . S
C488 H525 0.930 . S
C489 C486 1.350 1_556 S
C489 C488 1.354 . S
H490 C484 0.930 . S
H491 C485 0.930 . S
C492 N493 1.314 . S
C492 C494 1.353 . S
C492 H498 0.930 . S
N493 Li443 1.990 . S
N493 C492 1.314 . S
N493 C496 1.279 . S
C494 C492 1.353 . S
C494 C497 1.348 . S
C494 H526 0.929 . S
C495 C496 1.358 . S
C495 C497 1.356 . S
C495 H527 0.930 . S
C496 N493 1.279 . S
C496 C495 1.358 . S
C496 H499 0.930 . S
C497 C494 1.348 . S
C497 C495 1.356 . S
H498 C492 0.930 . S
H499 C496 0.930 . S
O500 Li440 1.956 . S
O500 Li441 1.970 . S
O500 Li442 1.961 1_554 S
O500 C444 1.325 . S
O501 Li440 1.970 1_556 S
O501 Li441 1.956 1_556 S
O501 Li443 1.961 . S
O501 C450 1.325 . S
O502 Li440 1.961 1_556 S
O502 Li442 1.956 . S
O502 Li443 1.970 . S
O502 C472 1.325 . S
O503 Li441 1.961 . S
O503 Li442 1.970 1_554 S
O503 Li443 1.956 1_554 S
O503 C478 1.325 . S
H504 C446 0.929 . S
H505 C447 0.930 . S
H506 C448 0.930 . S
H507 C449 0.930 . S
H508 C451 0.930 . S
H509 C453 0.929 . S
H510 C454 0.930 . S
H511 C455 0.930 . S
H512 C458 0.930 . S
H513 C461 0.929 . S
H514 C466 0.929 . S
H515 C467 0.930 . S
H516 C474 0.929 . S
H517 C475 0.930 . S
H518 C476 0.930 . S
H519 C477 0.930 . S
H520 C479 0.929 . S
H521 C480 0.930 . S
H522 C481 0.930 . S
H523 C482 0.930 . S
H524 C486 0.929 . S
H525 C488 0.930 . S
H526 C494 0.929 . S
H527 C495 0.930 . S
Li528 N545 1.990 . S
Li528 O588 1.956 1_554 S
Li528 O589 1.970 . S
Li528 O590 1.961 . S
Li529 N553 1.990 . S
Li529 O588 1.970 1_554 S
Li529 O589 1.956 . S
Li529 O591 1.961 1_554 S
Li530 N575 1.990 . S
Li530 O588 1.961 . S
Li530 O590 1.956 1_556 S
Li530 O591 1.970 . S
Li531 N581 1.990 . S
Li531 O589 1.961 1_556 S
Li531 O590 1.970 1_556 S
Li531 O591 1.956 . S
C532 C534 1.348 1_556 S
C532 C535 1.356 . S
C532 O588 1.325 . S
N533 C536 1.314 . S
N533 C537 1.279 1_554 S
C534 C532 1.348 1_554 S
C534 C536 1.353 . S
C534 H592 0.929 . S
C535 C532 1.356 . S
C535 C537 1.358 . S
C535 H593 0.930 . S
C536 N533 1.314 . S
C536 C534 1.353 . S
C536 H594 0.930 . S
C537 N533 1.279 1_556 S
C537 C535 1.358 . S
C537 H595 0.930 . S
C538 C541 1.348 . S
C538 C542 1.356 . S
C538 O589 1.325 . S
C539 N540 1.279 . S
C539 C542 1.358 . S
C539 H596 0.930 . S
N540 C539 1.279 . S
N540 C543 1.314 . S
C541 C538 1.348 . S
C541 C543 1.353 . S
C541 H597 0.929 . S
C542 C538 1.356 . S
C542 C539 1.358 . S
C542 H598 0.930 . S
C543 N540 1.314 . S
C543 C541 1.353 . S
C543 H599 0.930 . S
C544 N545 1.314 . S
C544 C549 1.353 . S
C544 H550 0.930 . S
N545 Li528 1.990 . S
N545 C544 1.314 . S
N545 C547 1.279 . S
C546 C547 1.358 . S
C546 C548 1.356 . S
C546 H600 0.930 . S
C547 N545 1.279 . S
C547 C546 1.358 . S
C547 H551 0.930 . S
C548 C546 1.356 . S
C548 C549 1.348 . S
C549 C544 1.353 . S
C549 C548 1.348 . S
C549 H601 0.929 . S
H550 C544 0.930 . S
H551 C547 0.930 . S
C552 N553 1.314 1_556 S
C552 C554 1.353 . S
C552 H558 0.930 . S
N553 Li529 1.990 . S
N553 C552 1.314 1_554 S
N553 C556 1.279 . S
C554 C552 1.353 . S
C554 C557 1.345 1_556 S
C554 H602 0.929 . S
C555 C556 1.358 . S
C555 C557 1.359 . S
C555 H603 0.930 . S
C556 N553 1.279 . S
C556 C555 1.358 . S
C556 H559 0.930 . S
C557 C554 1.345 1_554 S
C557 C555 1.359 . S
H558 C552 0.930 . S
H559 C556 0.930 . S
C560 C562 1.346 1_554 S
C560 C563 1.357 . S
C560 O590 1.325 . S
N561 C564 1.314 . S
N561 C565 1.279 1_556 S
C562 C560 1.346 1_556 S
C562 C564 1.353 . S
C562 H604 0.929 . S
C563 C560 1.357 . S
C563 C565 1.358 . S
C563 H605 0.930 . S
C564 N561 1.314 . S
C564 C562 1.353 . S
C564 H606 0.930 . S
C565 N561 1.279 1_554 S
C565 C563 1.358 . S
C565 H607 0.930 . S
C566 C567 1.348 . S
C566 C568 1.356 . S
C566 O591 1.325 . S
C567 C566 1.348 . S
C567 C569 1.353 . S
C567 H608 0.929 . S
C568 C566 1.356 . S
C568 C570 1.358 . S
C568 H609 0.930 . S
C569 C567 1.353 . S
C569 N571 1.314 . S
C569 H610 0.930 . S
C570 C568 1.358 . S
C570 N571 1.279 . S
C570 H611 0.930 . S
N571 C569 1.314 . S
N571 C570 1.279 . S
C572 C574 1.353 . S
C572 N575 1.314 . S
C572 H578 0.930 . S
C573 N575 1.279 . S
C573 C576 1.358 . S
C573 H579 0.930 . S
C574 C572 1.353 . S
C574 C577 1.348 . S
C574 H612 0.929 . S
N575 Li530 1.990 . S
N575 C572 1.314 . S
N575 C573 1.279 . S
C576 C573 1.358 . S
C576 C577 1.356 . S
C576 H613 0.930 . S
C577 C574 1.348 . S
C577 C576 1.356 . S
H578 C572 0.930 . S
H579 C573 0.930 . S
C580 N581 1.314 1_554 S
C580 C582 1.353 . S
C580 H586 0.930 . S
N581 Li531 1.990 . S
N581 C580 1.314 1_556 S
N581 C584 1.279 . S
C582 C580 1.353 . S
C582 C585 1.350 1_554 S
C582 H614 0.929 . S
C583 C584 1.358 . S
C583 C585 1.354 . S
C583 H615 0.930 . S
C584 N581 1.279 . S
C584 C583 1.358 . S
C584 H587 0.930 . S
C585 C582 1.350 1_556 S
C585 C583 1.354 . S
H586 C580 0.930 . S
H587 C584 0.930 . S
O588 Li528 1.956 1_556 S
O588 Li529 1.970 1_556 S
O588 Li530 1.961 . S
O588 C532 1.325 . S
O589 Li528 1.970 . S
O589 Li529 1.956 . S
O589 Li531 1.961 1_554 S
O589 C538 1.325 . S
O590 Li528 1.961 . S
O590 Li530 1.956 1_554 S
O590 Li531 1.970 1_554 S
O590 C560 1.325 . S
O591 Li529 1.961 1_556 S
O591 Li530 1.970 . S
O591 Li531 1.956 . S
O591 C566 1.325 . S
H592 C534 0.929 . S
H593 C535 0.930 . S
H594 C536 0.930 . S
H595 C537 0.930 . S
H596 C539 0.930 . S
H597 C541 0.929 . S
H598 C542 0.930 . S
H599 C543 0.930 . S
H600 C546 0.930 . S
H601 C549 0.929 . S
H602 C554 0.929 . S
H603 C555 0.930 . S
H604 C562 0.929 . S
H605 C563 0.930 . S
H606 C564 0.930 . S
H607 C565 0.930 . S
H608 C567 0.929 . S
H609 C568 0.930 . S
H610 C569 0.930 . S
H611 C570 0.930 . S
H612 C574 0.929 . S
H613 C576 0.930 . S
H614 C582 0.929 . S
H615 C583 0.930 . S
Li616 N633 1.990 . S
Li616 O676 1.956 1_554 S
Li616 O677 1.970 . S
Li616 O678 1.961 . S
Li617 N641 1.990 . S
Li617 O676 1.970 1_554 S
Li617 O677 1.956 . S
Li617 O679 1.961 1_554 S
Li618 N663 1.990 . S
Li618 O676 1.961 . S
Li618 O678 1.956 1_556 S
Li618 O679 1.970 . S
Li619 N669 1.990 . S
Li619 O677 1.961 1_556 S
Li619 O678 1.970 1_556 S
Li619 O679 1.956 . S
C620 C622 1.348 1_556 S
C620 C623 1.356 . S
C620 O676 1.325 . S
N621 C624 1.314 . S
N621 C625 1.279 1_554 S
C622 C620 1.348 1_554 S
C622 C624 1.353 . S
C622 H680 0.929 . S
C623 C620 1.356 . S
C623 C625 1.358 . S
C623 H681 0.930 . S
C624 N621 1.314 . S
C624 C622 1.353 . S
C624 H682 0.930 . S
C625 N621 1.279 1_556 S
C625 C623 1.358 . S
C625 H683 0.930 . S
C626 C629 1.348 . S
C626 C630 1.356 . S
C626 O677 1.325 . S
C627 N628 1.279 . S
C627 C630 1.358 . S
C627 H684 0.930 . S
N628 C627 1.279 . S
N628 C631 1.314 . S
C629 C626 1.348 . S
C629 C631 1.353 . S
C629 H685 0.929 . S
C630 C626 1.356 . S
C630 C627 1.358 . S
C630 H686 0.930 . S
C631 N628 1.314 . S
C631 C629 1.353 . S
C631 H687 0.930 . S
C632 N633 1.314 . S
C632 C637 1.353 . S
C632 H638 0.930 . S
N633 Li616 1.990 . S
N633 C632 1.314 . S
N633 C635 1.279 . S
C634 C635 1.358 . S
C634 C636 1.356 . S
C634 H688 0.930 . S
C635 N633 1.279 . S
C635 C634 1.358 . S
C635 H639 0.930 . S
C636 C634 1.356 . S
C636 C637 1.348 . S
C637 C632 1.353 . S
C637 C636 1.348 . S
C637 H689 0.929 . S
H638 C632 0.930 . S
H639 C635 0.930 . S
C640 N641 1.314 1_556 S
C640 C642 1.353 . S
C640 H646 0.930 . S
N641 Li617 1.990 . S
N641 C640 1.314 1_554 S
N641 C644 1.279 . S
C642 C640 1.353 . S
C642 C645 1.345 1_556 S
C642 H690 0.929 . S
C643 C644 1.358 . S
C643 C645 1.359 . S
C643 H691 0.930 . S
C644 N641 1.279 . S
C644 C643 1.358 . S
C644 H647 0.930 . S
C645 C642 1.345 1_554 S
C645 C643 1.359 . S
H646 C640 0.930 . S
H647 C644 0.930 . S
C648 C650 1.346 1_554 S
C648 C651 1.357 . S
C648 O678 1.325 . S
N649 C652 1.314 . S
N649 C653 1.279 1_556 S
C650 C648 1.346 1_556 S
C650 C652 1.353 . S
C650 H692 0.929 . S
C651 C648 1.357 . S
C651 C653 1.358 . S
C651 H693 0.930 . S
C652 N649 1.314 . S
C652 C650 1.353 . S
C652 H694 0.930 . S
C653 N649 1.279 1_554 S
C653 C651 1.358 . S
C653 H695 0.930 . S
C654 C655 1.348 . S
C654 C656 1.356 . S
C654 O679 1.325 . S
C655 C654 1.348 . S
C655 C657 1.353 . S
C655 H696 0.929 . S
C656 C654 1.356 . S
C656 C658 1.358 . S
C656 H697 0.930 . S
C657 C655 1.353 . S
C657 N659 1.314 . S
C657 H698 0.930 . S
C658 C656 1.358 . S
C658 N659 1.279 . S
C658 H699 0.930 . S
N659 C657 1.314 . S
N659 C658 1.279 . S
C660 C662 1.353 . S
C660 N663 1.314 . S
C660 H666 0.930 . S
C661 N663 1.279 . S
C661 C664 1.358 . S
C661 H667 0.930 . S
C662 C660 1.353 . S
C662 C665 1.348 . S
C662 H700 0.929 . S
N663 Li618 1.990 . S
N663 C660 1.314 . S
N663 C661 1.279 . S
C664 C661 1.358 . S
C664 C665 1.356 . S
C664 H701 0.930 . S
C665 C662 1.348 . S
C665 C664 1.356 . S
H666 C660 0.930 . S
H667 C661 0.930 . S
C668 N669 1.314 1_554 S
C668 C670 1.353 . S
C668 H674 0.930 . S
N669 Li619 1.990 . S
N669 C668 1.314 1_556 S
N669 C672 1.279 . S
C670 C668 1.353 . S
C670 C673 1.350 1_554 S
C670 H702 0.929 . S
C671 C672 1.358 . S
C671 C673 1.354 . S
C671 H703 0.930 . S
C672 N669 1.279 . S
C672 C671 1.358 . S
C672 H675 0.930 . S
C673 C670 1.350 1_556 S
C673 C671 1.354 . S
H674 C668 0.930 . S
H675 C672 0.930 . S
O676 Li616 1.956 1_556 S
O676 Li617 1.970 1_556 S
O676 Li618 1.961 . S
O676 C620 1.325 . S
O677 Li616 1.970 . S
O677 Li617 1.956 . S
O677 Li619 1.961 1_554 S
O677 C626 1.325 . S
O678 Li616 1.961 . S
O678 Li618 1.956 1_554 S
O678 Li619 1.970 1_554 S
O678 C648 1.325 . S
O679 Li617 1.961 1_556 S
O679 Li618 1.970 . S
O679 Li619 1.956 . S
O679 C654 1.325 . S
H680 C622 0.929 . S
H681 C623 0.930 . S
H682 C624 0.930 . S
H683 C625 0.930 . S
H684 C627 0.930 . S
H685 C629 0.929 . S
H686 C630 0.930 . S
H687 C631 0.930 . S
H688 C634 0.930 . S
H689 C637 0.929 . S
H690 C642 0.929 . S
H691 C643 0.930 . S
H692 C650 0.929 . S
H693 C651 0.930 . S
H694 C652 0.930 . S
H695 C653 0.930 . S
H696 C655 0.929 . S
H697 C656 0.930 . S
H698 C657 0.930 . S
H699 C658 0.930 . S
H700 C662 0.929 . S
H701 C664 0.930 . S
H702 C670 0.929 . S
H703 C671 0.930 . S
Li704 N721 1.990 . S
Li704 O764 1.956 . S
Li704 O765 1.970 . S
Li704 O766 1.961 . S
Li705 N729 1.990 . S
Li705 O764 1.970 . S
Li705 O765 1.956 . S
Li705 O767 1.961 . S
Li706 N751 1.990 . S
Li706 O764 1.961 . S
Li706 O766 1.956 . S
Li706 O767 1.970 . S
Li707 N757 1.990 . S
Li707 O765 1.961 . S
Li707 O766 1.970 . S
Li707 O767 1.956 . S
C708 C710 1.348 . S
C708 C711 1.356 . S
C708 O764 1.325 . S
N709 C712 1.314 . S
N709 C713 1.279 . S
C710 C708 1.348 . S
C710 C712 1.353 . S
C710 H768 0.929 . S
C711 C708 1.356 . S
C711 C713 1.358 . S
C711 H769 0.930 . S
C712 N709 1.314 . S
C712 C710 1.353 . S
C712 H770 0.930 . S
C713 N709 1.279 . S
C713 C711 1.358 . S
C713 H771 0.930 . S
C714 C717 1.348 . S
C714 C718 1.356 . S
C714 O765 1.325 . S
C715 N716 1.279 . S
C715 C718 1.358 . S
C715 H772 0.930 . S
N716 C715 1.279 . S
N716 C719 1.314 . S
C717 C714 1.348 . S
C717 C719 1.353 . S
C717 H773 0.929 . S
C718 C714 1.356 . S
C718 C715 1.358 . S
C718 H774 0.930 . S
C719 N716 1.314 . S
C719 C717 1.353 . S
C719 H775 0.930 . S
C720 N721 1.314 . S
C720 C725 1.353 . S
C720 H726 0.930 . S
N721 Li704 1.990 . S
N721 C720 1.314 . S
N721 C723 1.279 . S
C722 C723 1.358 . S
C722 C724 1.356 . S
C722 H776 0.930 . S
C723 N721 1.279 . S
C723 C722 1.358 . S
C723 H727 0.930 . S
C724 C722 1.356 . S
C724 C725 1.348 . S
C725 C720 1.353 . S
C725 C724 1.348 . S
C725 H777 0.929 . S
H726 C720 0.930 . S
H727 C723 0.930 . S
C728 N729 1.314 . S
C728 C730 1.353 . S
C728 H734 0.930 . S
N729 Li705 1.990 . S
N729 C728 1.314 . S
N729 C732 1.279 . S
C730 C728 1.353 . S
C730 C733 1.348 . S
C730 H778 0.929 . S
C731 C732 1.358 . S
C731 C733 1.356 . S
C731 H779 0.930 . S
C732 N729 1.279 . S
C732 C731 1.358 . S
C732 H735 0.930 . S
C733 C730 1.348 . S
C733 C731 1.356 . S
H734 C728 0.930 . S
H735 C732 0.930 . S
C736 C738 1.348 . S
C736 C739 1.356 . S
C736 O766 1.325 . S
N737 C740 1.314 . S
N737 C741 1.279 . S
C738 C736 1.348 . S
C738 C740 1.353 . S
C738 H780 0.929 . S
C739 C736 1.356 . S
C739 C741 1.358 . S
C739 H781 0.930 . S
C740 N737 1.314 . S
C740 C738 1.353 . S
C740 H782 0.930 . S
C741 N737 1.279 . S
C741 C739 1.358 . S
C741 H783 0.930 . S
C742 C743 1.348 . S
C742 C744 1.356 . S
C742 O767 1.325 . S
C743 C742 1.348 . S
C743 C745 1.353 . S
C743 H784 0.929 . S
C744 C742 1.356 . S
C744 C746 1.358 . S
C744 H785 0.930 . S
C745 C743 1.353 . S
C745 N747 1.314 . S
C745 H786 0.930 . S
C746 C744 1.358 . S
C746 N747 1.279 . S
C746 H787 0.930 . S
N747 C745 1.314 . S
N747 C746 1.279 . S
C748 C750 1.353 . S
C748 N751 1.314 . S
C748 H754 0.930 . S
C749 N751 1.279 . S
C749 C752 1.358 . S
C749 H755 0.930 . S
C750 C748 1.353 . S
C750 C753 1.348 . S
C750 H788 0.929 . S
N751 Li706 1.990 . S
N751 C748 1.314 . S
N751 C749 1.279 . S
C752 C749 1.358 . S
C752 C753 1.356 . S
C752 H789 0.930 . S
C753 C750 1.348 . S
C753 C752 1.356 . S
H754 C748 0.930 . S
H755 C749 0.930 . S
C756 N757 1.314 . S
C756 C758 1.353 . S
C756 H762 0.930 . S
N757 Li707 1.990 . S
N757 C756 1.314 . S
N757 C760 1.279 . S
C758 C756 1.353 . S
C758 C761 1.348 . S
C758 H790 0.929 . S
C759 C760 1.358 . S
C759 C761 1.356 . S
C759 H791 0.930 . S
C760 N757 1.279 . S
C760 C759 1.358 . S
C760 H763 0.930 . S
C761 C758 1.348 . S
C761 C759 1.356 . S
H762 C756 0.930 . S
H763 C760 0.930 . S
O764 Li704 1.956 . S
O764 Li705 1.970 . S
O764 Li706 1.961 . S
O764 C708 1.325 . S
O765 Li704 1.970 . S
O765 Li705 1.956 . S
O765 Li707 1.961 . S
O765 C714 1.325 . S
O766 Li704 1.961 . S
O766 Li706 1.956 . S
O766 Li707 1.970 . S
O766 C736 1.325 . S
O767 Li705 1.961 . S
O767 Li706 1.970 . S
O767 Li707 1.956 . S
O767 C742 1.325 . S
H768 C710 0.929 . S
H769 C711 0.930 . S
H770 C712 0.930 . S
H771 C713 0.930 . S
H772 C715 0.930 . S
H773 C717 0.929 . S
H774 C718 0.930 . S
H775 C719 0.930 . S
H776 C722 0.930 . S
H777 C725 0.929 . S
H778 C730 0.929 . S
H779 C731 0.930 . S
H780 C738 0.929 . S
H781 C739 0.930 . S
H782 C740 0.930 . S
H783 C741 0.930 . S
H784 C743 0.929 . S
H785 C744 0.930 . S
H786 C745 0.930 . S
H787 C746 0.930 . S
H788 C750 0.929 . S
H789 C752 0.930 . S
H790 C758 0.929 . S
H791 C759 0.930 . S
Li792 N809 1.990 . S
Li792 O852 1.956 . S
Li792 O853 1.970 . S
Li792 O854 1.961 . S
Li793 N817 1.990 . S
Li793 O852 1.970 . S
Li793 O853 1.956 . S
Li793 O855 1.961 . S
Li794 N839 1.990 . S
Li794 O852 1.961 . S
Li794 O854 1.956 . S
Li794 O855 1.970 . S
Li795 N845 1.990 . S
Li795 O853 1.961 . S
Li795 O854 1.970 . S
Li795 O855 1.956 . S
C796 C798 1.348 . S
C796 C799 1.356 . S
C796 O852 1.325 . S
N797 C800 1.314 . S
N797 C801 1.279 . S
C798 C796 1.348 . S
C798 C800 1.353 . S
C798 H856 0.929 . S
C799 C796 1.356 . S
C799 C801 1.358 . S
C799 H857 0.930 . S
C800 N797 1.314 . S
C800 C798 1.353 . S
C800 H858 0.930 . S
C801 N797 1.279 . S
C801 C799 1.358 . S
C801 H859 0.930 . S
C802 C805 1.348 . S
C802 C806 1.356 . S
C802 O853 1.325 . S
C803 N804 1.279 . S
C803 C806 1.358 . S
C803 H860 0.930 . S
N804 C803 1.279 . S
N804 C807 1.314 . S
C805 C802 1.348 . S
C805 C807 1.353 . S
C805 H861 0.929 . S
C806 C802 1.356 . S
C806 C803 1.358 . S
C806 H862 0.930 . S
C807 N804 1.314 . S
C807 C805 1.353 . S
C807 H863 0.930 . S
C808 N809 1.314 . S
C808 C813 1.353 . S
C808 H814 0.930 . S
N809 Li792 1.990 . S
N809 C808 1.314 . S
N809 C811 1.279 . S
C810 C811 1.358 . S
C810 C812 1.356 . S
C810 H864 0.930 . S
C811 N809 1.279 . S
C811 C810 1.358 . S
C811 H815 0.930 . S
C812 C810 1.356 . S
C812 C813 1.348 . S
C813 C808 1.353 . S
C813 C812 1.348 . S
C813 H865 0.929 . S
H814 C808 0.930 . S
H815 C811 0.930 . S
C816 N817 1.314 . S
C816 C818 1.353 . S
C816 H822 0.930 . S
N817 Li793 1.990 . S
N817 C816 1.314 . S
N817 C820 1.279 . S
C818 C816 1.353 . S
C818 C821 1.348 . S
C818 H866 0.929 . S
C819 C820 1.358 . S
C819 C821 1.356 . S
C819 H867 0.930 . S
C820 N817 1.279 . S
C820 C819 1.358 . S
C820 H823 0.930 . S
C821 C818 1.348 . S
C821 C819 1.356 . S
H822 C816 0.930 . S
H823 C820 0.930 . S
C824 C826 1.348 . S
C824 C827 1.356 . S
C824 O854 1.325 . S
N825 C828 1.314 . S
N825 C829 1.279 . S
C826 C824 1.348 . S
C826 C828 1.353 . S
C826 H868 0.929 . S
C827 C824 1.356 . S
C827 C829 1.358 . S
C827 H869 0.930 . S
C828 N825 1.314 . S
C828 C826 1.353 . S
C828 H870 0.930 . S
C829 N825 1.279 . S
C829 C827 1.358 . S
C829 H871 0.930 . S
C830 C831 1.348 . S
C830 C832 1.356 . S
C830 O855 1.325 . S
C831 C830 1.348 . S
C831 C833 1.353 . S
C831 H872 0.929 . S
C832 C830 1.356 . S
C832 C834 1.358 . S
C832 H873 0.930 . S
C833 C831 1.353 . S
C833 N835 1.314 . S
C833 H874 0.930 . S
C834 C832 1.358 . S
C834 N835 1.279 . S
C834 H875 0.930 . S
N835 C833 1.314 . S
N835 C834 1.279 . S
C836 C838 1.353 . S
C836 N839 1.314 . S
C836 H842 0.930 . S
C837 N839 1.279 . S
C837 C840 1.358 . S
C837 H843 0.930 . S
C838 C836 1.353 . S
C838 C841 1.348 . S
C838 H876 0.929 . S
N839 Li794 1.990 . S
N839 C836 1.314 . S
N839 C837 1.279 . S
C840 C837 1.358 . S
C840 C841 1.356 . S
C840 H877 0.930 . S
C841 C838 1.348 . S
C841 C840 1.356 . S
H842 C836 0.930 . S
H843 C837 0.930 . S
C844 N845 1.314 . S
C844 C846 1.353 . S
C844 H850 0.930 . S
N845 Li795 1.990 . S
N845 C844 1.314 . S
N845 C848 1.279 . S
C846 C844 1.353 . S
C846 C849 1.348 . S
C846 H878 0.929 . S
C847 C848 1.358 . S
C847 C849 1.356 . S
C847 H879 0.930 . S
C848 N845 1.279 . S
C848 C847 1.358 . S
C848 H851 0.930 . S
C849 C846 1.348 . S
C849 C847 1.356 . S
H850 C844 0.930 . S
H851 C848 0.930 . S
O852 Li792 1.956 . S
O852 Li793 1.970 . S
O852 Li794 1.961 . S
O852 C796 1.325 . S
O853 Li792 1.970 . S
O853 Li793 1.956 . S
O853 Li795 1.961 . S
O853 C802 1.325 . S
O854 Li792 1.961 . S
O854 Li794 1.956 . S
O854 Li795 1.970 . S
O854 C824 1.325 . S
O855 Li793 1.961 . S
O855 Li794 1.970 . S
O855 Li795 1.956 . S
O855 C830 1.325 . S
H856 C798 0.929 . S
H857 C799 0.930 . S
H858 C800 0.930 . S
H859 C801 0.930 . S
H860 C803 0.930 . S
H861 C805 0.929 . S
H862 C806 0.930 . S
H863 C807 0.930 . S
H864 C810 0.930 . S
H865 C813 0.929 . S
H866 C818 0.929 . S
H867 C819 0.930 . S
H868 C826 0.929 . S
H869 C827 0.930 . S
H870 C828 0.930 . S
H871 C829 0.930 . S
H872 C831 0.929 . S
H873 C832 0.930 . S
H874 C833 0.930 . S
H875 C834 0.930 . S
H876 C838 0.929 . S
H877 C840 0.930 . S
H878 C846 0.929 . S
H879 C847 0.930 . S
Li880 N897 1.990 . S
Li880 O940 1.956 . S
Li880 O941 1.970 . S
Li880 O942 1.961 . S
Li881 N905 1.990 . S
Li881 O940 1.970 . S
Li881 O941 1.956 . S
Li881 O943 1.961 . S
Li882 N927 1.990 . S
Li882 O940 1.961 . S
Li882 O942 1.956 . S
Li882 O943 1.970 . S
Li883 N933 1.990 . S
Li883 O941 1.961 . S
Li883 O942 1.970 . S
Li883 O943 1.956 . S
C884 C886 1.348 . S
C884 C887 1.356 . S
C884 O940 1.325 . S
N885 C888 1.314 . S
N885 C889 1.279 . S
C886 C884 1.348 . S
C886 C888 1.353 . S
C886 H944 0.929 . S
C887 C884 1.356 . S
C887 C889 1.358 . S
C887 H945 0.930 . S
C888 N885 1.314 . S
C888 C886 1.353 . S
C888 H946 0.930 . S
C889 N885 1.279 . S
C889 C887 1.358 . S
C889 H947 0.930 . S
C890 C893 1.348 . S
C890 C894 1.356 . S
C890 O941 1.325 . S
C891 N892 1.279 . S
C891 C894 1.358 . S
C891 H948 0.930 . S
N892 C891 1.279 . S
N892 C895 1.314 . S
C893 C890 1.348 . S
C893 C895 1.353 . S
C893 H949 0.929 . S
C894 C890 1.356 . S
C894 C891 1.358 . S
C894 H950 0.930 . S
C895 N892 1.314 . S
C895 C893 1.353 . S
C895 H951 0.930 . S
C896 N897 1.314 . S
C896 C901 1.353 . S
C896 H902 0.930 . S
N897 Li880 1.990 . S
N897 C896 1.314 . S
N897 C899 1.279 . S
C898 C899 1.358 . S
C898 C900 1.356 . S
C898 H952 0.930 . S
C899 N897 1.279 . S
C899 C898 1.358 . S
C899 H903 0.930 . S
C900 C898 1.356 . S
C900 C901 1.348 . S
C901 C896 1.353 . S
C901 C900 1.348 . S
C901 H953 0.929 . S
H902 C896 0.930 . S
H903 C899 0.930 . S
C904 N905 1.314 . S
C904 C906 1.353 . S
C904 H910 0.930 . S
N905 Li881 1.990 . S
N905 C904 1.314 . S
N905 C908 1.279 . S
C906 C904 1.353 . S
C906 C909 1.348 . S
C906 H954 0.929 . S
C907 C908 1.358 . S
C907 C909 1.356 . S
C907 H955 0.930 . S
C908 N905 1.279 . S
C908 C907 1.358 . S
C908 H911 0.930 . S
C909 C906 1.348 . S
C909 C907 1.356 . S
H910 C904 0.930 . S
H911 C908 0.930 . S
C912 C914 1.348 . S
C912 C915 1.356 . S
C912 O942 1.325 . S
N913 C916 1.314 . S
N913 C917 1.279 . S
C914 C912 1.348 . S
C914 C916 1.353 . S
C914 H956 0.929 . S
C915 C912 1.356 . S
C915 C917 1.358 . S
C915 H957 0.930 . S
C916 N913 1.314 . S
C916 C914 1.353 . S
C916 H958 0.930 . S
C917 N913 1.279 . S
C917 C915 1.358 . S
C917 H959 0.930 . S
C918 C919 1.348 . S
C918 C920 1.356 . S
C918 O943 1.325 . S
C919 C918 1.348 . S
C919 C921 1.353 . S
C919 H960 0.929 . S
C920 C918 1.356 . S
C920 C922 1.358 . S
C920 H961 0.930 . S
C921 C919 1.353 . S
C921 N923 1.314 . S
C921 H962 0.930 . S
C922 C920 1.358 . S
C922 N923 1.279 . S
C922 H963 0.930 . S
N923 C921 1.314 . S
N923 C922 1.279 . S
C924 C926 1.353 . S
C924 N927 1.314 . S
C924 H930 0.930 . S
C925 N927 1.279 . S
C925 C928 1.358 . S
C925 H931 0.930 . S
C926 C924 1.353 . S
C926 C929 1.348 . S
C926 H964 0.929 . S
N927 Li882 1.990 . S
N927 C924 1.314 . S
N927 C925 1.279 . S
C928 C925 1.358 . S
C928 C929 1.356 . S
C928 H965 0.930 . S
C929 C926 1.348 . S
C929 C928 1.356 . S
H930 C924 0.930 . S
H931 C925 0.930 . S
C932 N933 1.314 . S
C932 C934 1.353 . S
C932 H938 0.930 . S
N933 Li883 1.990 . S
N933 C932 1.314 . S
N933 C936 1.279 . S
C934 C932 1.353 . S
C934 C937 1.348 . S
C934 H966 0.929 . S
C935 C936 1.358 . S
C935 C937 1.356 . S
C935 H967 0.930 . S
C936 N933 1.279 . S
C936 C935 1.358 . S
C936 H939 0.930 . S
C937 C934 1.348 . S
C937 C935 1.356 . S
H938 C932 0.930 . S
H939 C936 0.930 . S
O940 Li880 1.956 . S
O940 Li881 1.970 . S
O940 Li882 1.961 . S
O940 C884 1.325 . S
O941 Li880 1.970 . S
O941 Li881 1.956 . S
O941 Li883 1.961 . S
O941 C890 1.325 . S
O942 Li880 1.961 . S
O942 Li882 1.956 . S
O942 Li883 1.970 . S
O942 C912 1.325 . S
O943 Li881 1.961 . S
O943 Li882 1.970 . S
O943 Li883 1.956 . S
O943 C918 1.325 . S
H944 C886 0.929 . S
H945 C887 0.930 . S
H946 C888 0.930 . S
H947 C889 0.930 . S
H948 C891 0.930 . S
H949 C893 0.929 . S
H950 C894 0.930 . S
H951 C895 0.930 . S
H952 C898 0.930 . S
H953 C901 0.929 . S
H954 C906 0.929 . S
H955 C907 0.930 . S
H956 C914 0.929 . S
H957 C915 0.930 . S
H958 C916 0.930 . S
H959 C917 0.930 . S
H960 C919 0.929 . S
H961 C920 0.930 . S
H962 C921 0.930 . S
H963 C922 0.930 . S
H964 C926 0.929 . S
H965 C928 0.930 . S
H966 C934 0.929 . S
H967 C935 0.930 . S
Li968 N985 1.990 . S
Li968 O1028 1.956 . S
Li968 O1029 1.970 . S
Li968 O1030 1.961 . S
Li969 N993 1.990 . S
Li969 O1028 1.970 . S
Li969 O1029 1.956 . S
Li969 O1031 1.961 . S
Li970 N1015 1.990 . S
Li970 O1028 1.961 . S
Li970 O1030 1.956 . S
Li970 O1031 1.970 . S
Li971 N1021 1.990 . S
Li971 O1029 1.961 . S
Li971 O1030 1.970 . S
Li971 O1031 1.956 . S
C972 C974 1.348 . S
C972 C975 1.356 . S
C972 O1028 1.325 . S
N973 C976 1.314 . S
N973 C977 1.279 . S
C974 C972 1.348 . S
C974 C976 1.353 . S
C974 H1032 0.929 . S
C975 C972 1.356 . S
C975 C977 1.358 . S
C975 H1033 0.930 . S
C976 N973 1.314 . S
C976 C974 1.353 . S
C976 H1034 0.930 . S
C977 N973 1.279 . S
C977 C975 1.358 . S
C977 H1035 0.930 . S
C978 C981 1.348 . S
C978 C982 1.356 . S
C978 O1029 1.325 . S
C979 N980 1.279 . S
C979 C982 1.358 . S
C979 H1036 0.930 . S
N980 C979 1.279 . S
N980 C983 1.314 . S
C981 C978 1.348 . S
C981 C983 1.353 . S
C981 H1037 0.929 . S
C982 C978 1.356 . S
C982 C979 1.358 . S
C982 H1038 0.930 . S
C983 N980 1.314 . S
C983 C981 1.353 . S
C983 H1039 0.930 . S
C984 N985 1.314 . S
C984 C989 1.353 . S
C984 H990 0.930 . S
N985 Li968 1.990 . S
N985 C984 1.314 . S
N985 C987 1.279 . S
C986 C987 1.358 . S
C986 C988 1.356 . S
C986 H1040 0.930 . S
C987 N985 1.279 . S
C987 C986 1.358 . S
C987 H991 0.930 . S
C988 C986 1.356 . S
C988 C989 1.348 . S
C989 C984 1.353 . S
C989 C988 1.348 . S
C989 H1041 0.929 . S
H990 C984 0.930 . S
H991 C987 0.930 . S
C992 N993 1.314 . S
C992 C994 1.353 . S
C992 H998 0.930 . S
N993 Li969 1.990 . S
N993 C992 1.314 . S
N993 C996 1.279 . S
C994 C992 1.353 . S
C994 C997 1.348 . S
C994 H1042 0.929 . S
C995 C996 1.358 . S
C995 C997 1.356 . S
C995 H1043 0.930 . S
C996 N993 1.279 . S
C996 C995 1.358 . S
C996 H999 0.930 . S
C997 C994 1.348 . S
C997 C995 1.356 . S
H998 C992 0.930 . S
H999 C996 0.930 . S
C1000 C1002 1.348 . S
C1000 C1003 1.356 . S
C1000 O1030 1.325 . S
N1001 C1004 1.314 . S
N1001 C1005 1.279 . S
C1002 C1000 1.348 . S
C1002 C1004 1.353 . S
C1002 H1044 0.929 . S
C1003 C1000 1.356 . S
C1003 C1005 1.358 . S
C1003 H1045 0.930 . S
C1004 N1001 1.314 . S
C1004 C1002 1.353 . S
C1004 H1046 0.930 . S
C1005 N1001 1.279 . S
C1005 C1003 1.358 . S
C1005 H1047 0.930 . S
C1006 C1007 1.348 . S
C1006 C1008 1.356 . S
C1006 O1031 1.325 . S
C1007 C1006 1.348 . S
C1007 C1009 1.353 . S
C1007 H1048 0.929 . S
C1008 C1006 1.356 . S
C1008 C1010 1.358 . S
C1008 H1049 0.930 . S
C1009 C1007 1.353 . S
C1009 N1011 1.314 . S
C1009 H1050 0.930 . S
C1010 C1008 1.358 . S
C1010 N1011 1.279 . S
C1010 H1051 0.930 . S
N1011 C1009 1.314 . S
N1011 C1010 1.279 . S
C1012 C1014 1.353 . S
C1012 N1015 1.314 . S
C1012 H1018 0.930 . S
C1013 N1015 1.279 . S
C1013 C1016 1.358 . S
C1013 H1019 0.930 . S
C1014 C1012 1.353 . S
C1014 C1017 1.348 . S
C1014 H1052 0.929 . S
N1015 Li970 1.990 . S
N1015 C1012 1.314 . S
N1015 C1013 1.279 . S
C1016 C1013 1.358 . S
C1016 C1017 1.356 . S
C1016 H1053 0.930 . S
C1017 C1014 1.348 . S
C1017 C1016 1.356 . S
H1018 C1012 0.930 . S
H1019 C1013 0.930 . S
C1020 N1021 1.314 . S
C1020 C1022 1.353 . S
C1020 H1026 0.930 . S
N1021 Li971 1.990 . S
N1021 C1020 1.314 . S
N1021 C1024 1.279 . S
C1022 C1020 1.353 . S
C1022 C1025 1.348 . S
C1022 H1054 0.929 . S
C1023 C1024 1.358 . S
C1023 C1025 1.356 . S
C1023 H1055 0.930 . S
C1024 N1021 1.279 . S
C1024 C1023 1.358 . S
C1024 H1027 0.930 . S
C1025 C1022 1.348 . S
C1025 C1023 1.356 . S
H1026 C1020 0.930 . S
H1027 C1024 0.930 . S
O1028 Li968 1.956 . S
O1028 Li969 1.970 . S
O1028 Li970 1.961 . S
O1028 C972 1.325 . S
O1029 Li968 1.970 . S
O1029 Li969 1.956 . S
O1029 Li971 1.961 . S
O1029 C978 1.325 . S
O1030 Li968 1.961 . S
O1030 Li970 1.956 . S
O1030 Li971 1.970 . S
O1030 C1000 1.325 . S
O1031 Li969 1.961 . S
O1031 Li970 1.970 . S
O1031 Li971 1.956 . S
O1031 C1006 1.325 . S
H1032 C974 0.929 . S
H1033 C975 0.930 . S
H1034 C976 0.930 . S
H1035 C977 0.930 . S
H1036 C979 0.930 . S
H1037 C981 0.929 . S
H1038 C982 0.930 . S
H1039 C983 0.930 . S
H1040 C986 0.930 . S
H1041 C989 0.929 . S
H1042 C994 0.929 . S
H1043 C995 0.930 . S
H1044 C1002 0.929 . S
H1045 C1003 0.930 . S
H1046 C1004 0.930 . S
H1047 C1005 0.930 . S
H1048 C1007 0.929 . S
H1049 C1008 0.930 . S
H1050 C1009 0.930 . S
H1051 C1010 0.930 . S
H1052 C1014 0.929 . S
H1053 C1016 0.930 . S
H1054 C1022 0.929 . S
H1055 C1023 0.930 . S
Li1056 N1073 1.990 . S
Li1056 O1116 1.956 . S
Li1056 O1117 1.970 . S
Li1056 O1118 1.961 . S
Li1057 N1081 1.990 . S
Li1057 O1116 1.970 . S
Li1057 O1117 1.956 . S
Li1057 O1119 1.961 . S
Li1058 N1103 1.990 . S
Li1058 O1116 1.961 . S
Li1058 O1118 1.956 . S
Li1058 O1119 1.970 . S
Li1059 N1109 1.990 . S
Li1059 O1117 1.961 . S
Li1059 O1118 1.970 . S
Li1059 O1119 1.956 . S
C1060 C1062 1.348 . S
C1060 C1063 1.356 . S
C1060 O1116 1.325 . S
N1061 C1064 1.314 . S
N1061 C1065 1.279 . S
C1062 C1060 1.348 . S
C1062 C1064 1.353 . S
C1062 H1120 0.929 . S
C1063 C1060 1.356 . S
C1063 C1065 1.358 . S
C1063 H1121 0.930 . S
C1064 N1061 1.314 . S
C1064 C1062 1.353 . S
C1064 H1122 0.930 . S
C1065 N1061 1.279 . S
C1065 C1063 1.358 . S
C1065 H1123 0.930 . S
C1066 C1069 1.348 . S
C1066 C1070 1.356 . S
C1066 O1117 1.325 . S
C1067 N1068 1.279 . S
C1067 C1070 1.358 . S
C1067 H1124 0.930 . S
N1068 C1067 1.279 . S
N1068 C1071 1.314 . S
C1069 C1066 1.348 . S
C1069 C1071 1.353 . S
C1069 H1125 0.929 . S
C1070 C1066 1.356 . S
C1070 C1067 1.358 . S
C1070 H1126 0.930 . S
C1071 N1068 1.314 . S
C1071 C1069 1.353 . S
C1071 H1127 0.930 . S
C1072 N1073 1.314 . S
C1072 C1077 1.353 . S
C1072 H1078 0.930 . S
N1073 Li1056 1.990 . S
N1073 C1072 1.314 . S
N1073 C1075 1.279 . S
C1074 C1075 1.358 . S
C1074 C1076 1.356 . S
C1074 H1128 0.930 . S
C1075 N1073 1.279 . S
C1075 C1074 1.358 . S
C1075 H1079 0.930 . S
C1076 C1074 1.356 . S
C1076 C1077 1.348 . S
C1077 C1072 1.353 . S
C1077 C1076 1.348 . S
C1077 H1129 0.929 . S
H1078 C1072 0.930 . S
H1079 C1075 0.930 . S
C1080 N1081 1.314 . S
C1080 C1082 1.353 . S
C1080 H1086 0.930 . S
N1081 Li1057 1.990 . S
N1081 C1080 1.314 . S
N1081 C1084 1.279 . S
C1082 C1080 1.353 . S
C1082 C1085 1.348 . S
C1082 H1130 0.929 . S
C1083 C1084 1.358 . S
C1083 C1085 1.356 . S
C1083 H1131 0.930 . S
C1084 N1081 1.279 . S
C1084 C1083 1.358 . S
C1084 H1087 0.930 . S
C1085 C1082 1.348 . S
C1085 C1083 1.356 . S
H1086 C1080 0.930 . S
H1087 C1084 0.930 . S
C1088 C1090 1.348 . S
C1088 C1091 1.356 . S
C1088 O1118 1.325 . S
N1089 C1092 1.314 . S
N1089 C1093 1.279 . S
C1090 C1088 1.348 . S
C1090 C1092 1.353 . S
C1090 H1132 0.929 . S
C1091 C1088 1.356 . S
C1091 C1093 1.358 . S
C1091 H1133 0.930 . S
C1092 N1089 1.314 . S
C1092 C1090 1.353 . S
C1092 H1134 0.930 . S
C1093 N1089 1.279 . S
C1093 C1091 1.358 . S
C1093 H1135 0.930 . S
C1094 C1095 1.348 . S
C1094 C1096 1.356 . S
C1094 O1119 1.325 . S
C1095 C1094 1.348 . S
C1095 C1097 1.353 . S
C1095 H1136 0.929 . S
C1096 C1094 1.356 . S
C1096 C1098 1.358 . S
C1096 H1137 0.930 . S
C1097 C1095 1.353 . S
C1097 N1099 1.314 . S
C1097 H1138 0.930 . S
C1098 C1096 1.358 . S
C1098 N1099 1.279 . S
C1098 H1139 0.930 . S
N1099 C1097 1.314 . S
N1099 C1098 1.279 . S
C1100 C1102 1.353 . S
C1100 N1103 1.314 . S
C1100 H1106 0.930 . S
C1101 N1103 1.279 . S
C1101 C1104 1.358 . S
C1101 H1107 0.930 . S
C1102 C1100 1.353 . S
C1102 C1105 1.348 . S
C1102 H1140 0.929 . S
N1103 Li1058 1.990 . S
N1103 C1100 1.314 . S
N1103 C1101 1.279 . S
C1104 C1101 1.358 . S
C1104 C1105 1.356 . S
C1104 H1141 0.930 . S
C1105 C1102 1.348 . S
C1105 C1104 1.356 . S
H1106 C1100 0.930 . S
H1107 C1101 0.930 . S
C1108 N1109 1.314 . S
C1108 C1110 1.353 . S
C1108 H1114 0.930 . S
N1109 Li1059 1.990 . S
N1109 C1108 1.314 . S
N1109 C1112 1.279 . S
C1110 C1108 1.353 . S
C1110 C1113 1.348 . S
C1110 H1142 0.929 . S
C1111 C1112 1.358 . S
C1111 C1113 1.356 . S
C1111 H1143 0.930 . S
C1112 N1109 1.279 . S
C1112 C1111 1.358 . S
C1112 H1115 0.930 . S
C1113 C1110 1.348 . S
C1113 C1111 1.356 . S
H1114 C1108 0.930 . S
H1115 C1112 0.930 . S
O1116 Li1056 1.956 . S
O1116 Li1057 1.970 . S
O1116 Li1058 1.961 . S
O1116 C1060 1.325 . S
O1117 Li1056 1.970 . S
O1117 Li1057 1.956 . S
O1117 Li1059 1.961 . S
O1117 C1066 1.325 . S
O1118 Li1056 1.961 . S
O1118 Li1058 1.956 . S
O1118 Li1059 1.970 . S
O1118 C1088 1.325 . S
O1119 Li1057 1.961 . S
O1119 Li1058 1.970 . S
O1119 Li1059 1.956 . S
O1119 C1094 1.325 . S
H1120 C1062 0.929 . S
H1121 C1063 0.930 . S
H1122 C1064 0.930 . S
H1123 C1065 0.930 . S
H1124 C1067 0.930 . S
H1125 C1069 0.929 . S
H1126 C1070 0.930 . S
H1127 C1071 0.930 . S
H1128 C1074 0.930 . S
H1129 C1077 0.929 . S
H1130 C1082 0.929 . S
H1131 C1083 0.930 . S
H1132 C1090 0.929 . S
H1133 C1091 0.930 . S
H1134 C1092 0.930 . S
H1135 C1093 0.930 . S
H1136 C1095 0.929 . S
H1137 C1096 0.930 . S
H1138 C1097 0.930 . S
H1139 C1098 0.930 . S
H1140 C1102 0.929 . S
H1141 C1104 0.930 . S
H1142 C1110 0.929 . S
H1143 C1111 0.930 . S
Li1144 N1161 1.990 . S
Li1144 O1204 1.956 . S
Li1144 O1205 1.970 . S
Li1144 O1206 1.961 . S
Li1145 N1169 1.990 . S
Li1145 O1204 1.970 . S
Li1145 O1205 1.956 . S
Li1145 O1207 1.961 . S
Li1146 N1191 1.990 . S
Li1146 O1204 1.961 . S
Li1146 O1206 1.956 . S
Li1146 O1207 1.970 . S
Li1147 N1197 1.990 . S
Li1147 O1205 1.961 . S
Li1147 O1206 1.970 . S
Li1147 O1207 1.956 . S
C1148 C1150 1.348 . S
C1148 C1151 1.356 . S
C1148 O1204 1.325 . S
N1149 C1152 1.314 . S
N1149 C1153 1.279 . S
C1150 C1148 1.348 . S
C1150 C1152 1.353 . S
C1150 H1208 0.929 . S
C1151 C1148 1.356 . S
C1151 C1153 1.358 . S
C1151 H1209 0.930 . S
C1152 N1149 1.314 . S
C1152 C1150 1.353 . S
C1152 H1210 0.930 . S
C1153 N1149 1.279 . S
C1153 C1151 1.358 . S
C1153 H1211 0.930 . S
C1154 C1157 1.348 . S
C1154 C1158 1.356 . S
C1154 O1205 1.325 . S
C1155 N1156 1.279 . S
C1155 C1158 1.358 . S
C1155 H1212 0.930 . S
N1156 C1155 1.279 . S
N1156 C1159 1.314 . S
C1157 C1154 1.348 . S
C1157 C1159 1.353 . S
C1157 H1213 0.929 . S
C1158 C1154 1.356 . S
C1158 C1155 1.358 . S
C1158 H1214 0.930 . S
C1159 N1156 1.314 . S
C1159 C1157 1.353 . S
C1159 H1215 0.930 . S
C1160 N1161 1.314 . S
C1160 C1165 1.353 . S
C1160 H1166 0.930 . S
N1161 Li1144 1.990 . S
N1161 C1160 1.314 . S
N1161 C1163 1.279 . S
C1162 C1163 1.358 . S
C1162 C1164 1.356 . S
C1162 H1216 0.930 . S
C1163 N1161 1.279 . S
C1163 C1162 1.358 . S
C1163 H1167 0.930 . S
C1164 C1162 1.356 . S
C1164 C1165 1.348 . S
C1165 C1160 1.353 . S
C1165 C1164 1.348 . S
C1165 H1217 0.929 . S
H1166 C1160 0.930 . S
H1167 C1163 0.930 . S
C1168 N1169 1.314 . S
C1168 C1170 1.353 . S
C1168 H1174 0.930 . S
N1169 Li1145 1.990 . S
N1169 C1168 1.314 . S
N1169 C1172 1.279 . S
C1170 C1168 1.353 . S
C1170 C1173 1.348 . S
C1170 H1218 0.929 . S
C1171 C1172 1.358 . S
C1171 C1173 1.356 . S
C1171 H1219 0.930 . S
C1172 N1169 1.279 . S
C1172 C1171 1.358 . S
C1172 H1175 0.930 . S
C1173 C1170 1.348 . S
C1173 C1171 1.356 . S
H1174 C1168 0.930 . S
H1175 C1172 0.930 . S
C1176 C1178 1.348 . S
C1176 C1179 1.356 . S
C1176 O1206 1.325 . S
N1177 C1180 1.314 . S
N1177 C1181 1.279 . S
C1178 C1176 1.348 . S
C1178 C1180 1.353 . S
C1178 H1220 0.929 . S
C1179 C1176 1.356 . S
C1179 C1181 1.358 . S
C1179 H1221 0.930 . S
C1180 N1177 1.314 . S
C1180 C1178 1.353 . S
C1180 H1222 0.930 . S
C1181 N1177 1.279 . S
C1181 C1179 1.358 . S
C1181 H1223 0.930 . S
C1182 C1183 1.348 . S
C1182 C1184 1.356 . S
C1182 O1207 1.325 . S
C1183 C1182 1.348 . S
C1183 C1185 1.353 . S
C1183 H1224 0.929 . S
C1184 C1182 1.356 . S
C1184 C1186 1.358 . S
C1184 H1225 0.930 . S
C1185 C1183 1.353 . S
C1185 N1187 1.314 . S
C1185 H1226 0.930 . S
C1186 C1184 1.358 . S
C1186 N1187 1.279 . S
C1186 H1227 0.930 . S
N1187 C1185 1.314 . S
N1187 C1186 1.279 . S
C1188 C1190 1.353 . S
C1188 N1191 1.314 . S
C1188 H1194 0.930 . S
C1189 N1191 1.279 . S
C1189 C1192 1.358 . S
C1189 H1195 0.930 . S
C1190 C1188 1.353 . S
C1190 C1193 1.348 . S
C1190 H1228 0.929 . S
N1191 Li1146 1.990 . S
N1191 C1188 1.314 . S
N1191 C1189 1.279 . S
C1192 C1189 1.358 . S
C1192 C1193 1.356 . S
C1192 H1229 0.930 . S
C1193 C1190 1.348 . S
C1193 C1192 1.356 . S
H1194 C1188 0.930 . S
H1195 C1189 0.930 . S
C1196 N1197 1.314 . S
C1196 C1198 1.353 . S
C1196 H1202 0.930 . S
N1197 Li1147 1.990 . S
N1197 C1196 1.314 . S
N1197 C1200 1.279 . S
C1198 C1196 1.353 . S
C1198 C1201 1.348 . S
C1198 H1230 0.929 . S
C1199 C1200 1.358 . S
C1199 C1201 1.356 . S
C1199 H1231 0.930 . S
C1200 N1197 1.279 . S
C1200 C1199 1.358 . S
C1200 H1203 0.930 . S
C1201 C1198 1.348 . S
C1201 C1199 1.356 . S
H1202 C1196 0.930 . S
H1203 C1200 0.930 . S
O1204 Li1144 1.956 . S
O1204 Li1145 1.970 . S
O1204 Li1146 1.961 . S
O1204 C1148 1.325 . S
O1205 Li1144 1.970 . S
O1205 Li1145 1.956 . S
O1205 Li1147 1.961 . S
O1205 C1154 1.325 . S
O1206 Li1144 1.961 . S
O1206 Li1146 1.956 . S
O1206 Li1147 1.970 . S
O1206 C1176 1.325 . S
O1207 Li1145 1.961 . S
O1207 Li1146 1.970 . S
O1207 Li1147 1.956 . S
O1207 C1182 1.325 . S
H1208 C1150 0.929 . S
H1209 C1151 0.930 . S
H1210 C1152 0.930 . S
H1211 C1153 0.930 . S
H1212 C1155 0.930 . S
H1213 C1157 0.929 . S
H1214 C1158 0.930 . S
H1215 C1159 0.930 . S
H1216 C1162 0.930 . S
H1217 C1165 0.929 . S
H1218 C1170 0.929 . S
H1219 C1171 0.930 . S
H1220 C1178 0.929 . S
H1221 C1179 0.930 . S
H1222 C1180 0.930 . S
H1223 C1181 0.930 . S
H1224 C1183 0.929 . S
H1225 C1184 0.930 . S
H1226 C1185 0.930 . S
H1227 C1186 0.930 . S
H1228 C1190 0.929 . S
H1229 C1192 0.930 . S
H1230 C1198 0.929 . S
H1231 C1199 0.930 . S
Li1232 N1249 1.990 . S
Li1232 O1292 1.956 . S
Li1232 O1293 1.970 . S
Li1232 O1294 1.961 . S
Li1233 N1257 1.990 . S
Li1233 O1292 1.970 . S
Li1233 O1293 1.956 . S
Li1233 O1295 1.961 . S
Li1234 N1279 1.990 . S
Li1234 O1292 1.961 . S
Li1234 O1294 1.956 . S
Li1234 O1295 1.970 . S
Li1235 N1285 1.990 . S
Li1235 O1293 1.961 . S
Li1235 O1294 1.970 . S
Li1235 O1295 1.956 . S
C1236 C1238 1.348 . S
C1236 C1239 1.356 . S
C1236 O1292 1.325 . S
N1237 C1240 1.314 . S
N1237 C1241 1.279 . S
C1238 C1236 1.348 . S
C1238 C1240 1.353 . S
C1238 H1296 0.929 . S
C1239 C1236 1.356 . S
C1239 C1241 1.358 . S
C1239 H1297 0.930 . S
C1240 N1237 1.314 . S
C1240 C1238 1.353 . S
C1240 H1298 0.930 . S
C1241 N1237 1.279 . S
C1241 C1239 1.358 . S
C1241 H1299 0.930 . S
C1242 C1245 1.348 . S
C1242 C1246 1.356 . S
C1242 O1293 1.325 . S
C1243 N1244 1.279 . S
C1243 C1246 1.358 . S
C1243 H1300 0.930 . S
N1244 C1243 1.279 . S
N1244 C1247 1.314 . S
C1245 C1242 1.348 . S
C1245 C1247 1.353 . S
C1245 H1301 0.929 . S
C1246 C1242 1.356 . S
C1246 C1243 1.358 . S
C1246 H1302 0.930 . S
C1247 N1244 1.314 . S
C1247 C1245 1.353 . S
C1247 H1303 0.930 . S
C1248 N1249 1.314 . S
C1248 C1253 1.353 . S
C1248 H1254 0.930 . S
N1249 Li1232 1.990 . S
N1249 C1248 1.314 . S
N1249 C1251 1.279 . S
C1250 C1251 1.358 . S
C1250 C1252 1.356 . S
C1250 H1304 0.930 . S
C1251 N1249 1.279 . S
C1251 C1250 1.358 . S
C1251 H1255 0.930 . S
C1252 C1250 1.356 . S
C1252 C1253 1.348 . S
C1253 C1248 1.353 . S
C1253 C1252 1.348 . S
C1253 H1305 0.929 . S
H1254 C1248 0.930 . S
H1255 C1251 0.930 . S
C1256 N1257 1.314 . S
C1256 C1258 1.353 . S
C1256 H1262 0.930 . S
N1257 Li1233 1.990 . S
N1257 C1256 1.314 . S
N1257 C1260 1.279 . S
C1258 C1256 1.353 . S
C1258 C1261 1.348 . S
C1258 H1306 0.929 . S
C1259 C1260 1.358 . S
C1259 C1261 1.356 . S
C1259 H1307 0.930 . S
C1260 N1257 1.279 . S
C1260 C1259 1.358 . S
C1260 H1263 0.930 . S
C1261 C1258 1.348 . S
C1261 C1259 1.356 . S
H1262 C1256 0.930 . S
H1263 C1260 0.930 . S
C1264 C1266 1.348 . S
C1264 C1267 1.356 . S
C1264 O1294 1.325 . S
N1265 C1268 1.314 . S
N1265 C1269 1.279 . S
C1266 C1264 1.348 . S
C1266 C1268 1.353 . S
C1266 H1308 0.929 . S
C1267 C1264 1.356 . S
C1267 C1269 1.358 . S
C1267 H1309 0.930 . S
C1268 N1265 1.314 . S
C1268 C1266 1.353 . S
C1268 H1310 0.930 . S
C1269 N1265 1.279 . S
C1269 C1267 1.358 . S
C1269 H1311 0.930 . S
C1270 C1271 1.348 . S
C1270 C1272 1.356 . S
C1270 O1295 1.325 . S
C1271 C1270 1.348 . S
C1271 C1273 1.353 . S
C1271 H1312 0.929 . S
C1272 C1270 1.356 . S
C1272 C1274 1.358 . S
C1272 H1313 0.930 . S
C1273 C1271 1.353 . S
C1273 N1275 1.314 . S
C1273 H1314 0.930 . S
C1274 C1272 1.358 . S
C1274 N1275 1.279 . S
C1274 H1315 0.930 . S
N1275 C1273 1.314 . S
N1275 C1274 1.279 . S
C1276 C1278 1.353 . S
C1276 N1279 1.314 . S
C1276 H1282 0.930 . S
C1277 N1279 1.279 . S
C1277 C1280 1.358 . S
C1277 H1283 0.930 . S
C1278 C1276 1.353 . S
C1278 C1281 1.348 . S
C1278 H1316 0.929 . S
N1279 Li1234 1.990 . S
N1279 C1276 1.314 . S
N1279 C1277 1.279 . S
C1280 C1277 1.358 . S
C1280 C1281 1.356 . S
C1280 H1317 0.930 . S
C1281 C1278 1.348 . S
C1281 C1280 1.356 . S
H1282 C1276 0.930 . S
H1283 C1277 0.930 . S
C1284 N1285 1.314 . S
C1284 C1286 1.353 . S
C1284 H1290 0.930 . S
N1285 Li1235 1.990 . S
N1285 C1284 1.314 . S
N1285 C1288 1.279 . S
C1286 C1284 1.353 . S
C1286 C1289 1.348 . S
C1286 H1318 0.929 . S
C1287 C1288 1.358 . S
C1287 C1289 1.356 . S
C1287 H1319 0.930 . S
C1288 N1285 1.279 . S
C1288 C1287 1.358 . S
C1288 H1291 0.930 . S
C1289 C1286 1.348 . S
C1289 C1287 1.356 . S
H1290 C1284 0.930 . S
H1291 C1288 0.930 . S
O1292 Li1232 1.956 . S
O1292 Li1233 1.970 . S
O1292 Li1234 1.961 . S
O1292 C1236 1.325 . S
O1293 Li1232 1.970 . S
O1293 Li1233 1.956 . S
O1293 Li1235 1.961 . S
O1293 C1242 1.325 . S
O1294 Li1232 1.961 . S
O1294 Li1234 1.956 . S
O1294 Li1235 1.970 . S
O1294 C1264 1.325 . S
O1295 Li1233 1.961 . S
O1295 Li1234 1.970 . S
O1295 Li1235 1.956 . S
O1295 C1270 1.325 . S
H1296 C1238 0.929 . S
H1297 C1239 0.930 . S
H1298 C1240 0.930 . S
H1299 C1241 0.930 . S
H1300 C1243 0.930 . S
H1301 C1245 0.929 . S
H1302 C1246 0.930 . S
H1303 C1247 0.930 . S
H1304 C1250 0.930 . S
H1305 C1253 0.929 . S
H1306 C1258 0.929 . S
H1307 C1259 0.930 . S
H1308 C1266 0.929 . S
H1309 C1267 0.930 . S
H1310 C1268 0.930 . S
H1311 C1269 0.930 . S
H1312 C1271 0.929 . S
H1313 C1272 0.930 . S
H1314 C1273 0.930 . S
H1315 C1274 0.930 . S
H1316 C1278 0.929 . S
H1317 C1280 0.930 . S
H1318 C1286 0.929 . S
H1319 C1287 0.930 . S
Li1320 N1337 1.990 . S
Li1320 O1380 1.956 . S
Li1320 O1381 1.970 . S
Li1320 O1382 1.961 . S
Li1321 N1345 1.990 . S
Li1321 O1380 1.970 . S
Li1321 O1381 1.956 . S
Li1321 O1383 1.961 . S
Li1322 N1367 1.990 . S
Li1322 O1380 1.961 . S
Li1322 O1382 1.956 . S
Li1322 O1383 1.970 . S
Li1323 N1373 1.990 . S
Li1323 O1381 1.961 . S
Li1323 O1382 1.970 . S
Li1323 O1383 1.956 . S
C1324 C1326 1.348 . S
C1324 C1327 1.356 . S
C1324 O1380 1.325 . S
N1325 C1328 1.314 . S
N1325 C1329 1.279 . S
C1326 C1324 1.348 . S
C1326 C1328 1.353 . S
C1326 H1384 0.929 . S
C1327 C1324 1.356 . S
C1327 C1329 1.358 . S
C1327 H1385 0.930 . S
C1328 N1325 1.314 . S
C1328 C1326 1.353 . S
C1328 H1386 0.930 . S
C1329 N1325 1.279 . S
C1329 C1327 1.358 . S
C1329 H1387 0.930 . S
C1330 C1333 1.348 . S
C1330 C1334 1.356 . S
C1330 O1381 1.325 . S
C1331 N1332 1.279 . S
C1331 C1334 1.358 . S
C1331 H1388 0.930 . S
N1332 C1331 1.279 . S
N1332 C1335 1.314 . S
C1333 C1330 1.348 . S
C1333 C1335 1.353 . S
C1333 H1389 0.929 . S
C1334 C1330 1.356 . S
C1334 C1331 1.358 . S
C1334 H1390 0.930 . S
C1335 N1332 1.314 . S
C1335 C1333 1.353 . S
C1335 H1391 0.930 . S
C1336 N1337 1.314 . S
C1336 C1341 1.353 . S
C1336 H1342 0.930 . S
N1337 Li1320 1.990 . S
N1337 C1336 1.314 . S
N1337 C1339 1.279 . S
C1338 C1339 1.358 . S
C1338 C1340 1.356 . S
C1338 H1392 0.930 . S
C1339 N1337 1.279 . S
C1339 C1338 1.358 . S
C1339 H1343 0.930 . S
C1340 C1338 1.356 . S
C1340 C1341 1.348 . S
C1341 C1336 1.353 . S
C1341 C1340 1.348 . S
C1341 H1393 0.929 . S
H1342 C1336 0.930 . S
H1343 C1339 0.930 . S
C1344 N1345 1.314 . S
C1344 C1346 1.353 . S
C1344 H1350 0.930 . S
N1345 Li1321 1.990 . S
N1345 C1344 1.314 . S
N1345 C1348 1.279 . S
C1346 C1344 1.353 . S
C1346 C1349 1.348 . S
C1346 H1394 0.929 . S
C1347 C1348 1.358 . S
C1347 C1349 1.356 . S
C1347 H1395 0.930 . S
C1348 N1345 1.279 . S
C1348 C1347 1.358 . S
C1348 H1351 0.930 . S
C1349 C1346 1.348 . S
C1349 C1347 1.356 . S
H1350 C1344 0.930 . S
H1351 C1348 0.930 . S
C1352 C1354 1.348 . S
C1352 C1355 1.356 . S
C1352 O1382 1.325 . S
N1353 C1356 1.314 . S
N1353 C1357 1.279 . S
C1354 C1352 1.348 . S
C1354 C1356 1.353 . S
C1354 H1396 0.929 . S
C1355 C1352 1.356 . S
C1355 C1357 1.358 . S
C1355 H1397 0.930 . S
C1356 N1353 1.314 . S
C1356 C1354 1.353 . S
C1356 H1398 0.930 . S
C1357 N1353 1.279 . S
C1357 C1355 1.358 . S
C1357 H1399 0.930 . S
C1358 C1359 1.348 . S
C1358 C1360 1.356 . S
C1358 O1383 1.325 . S
C1359 C1358 1.348 . S
C1359 C1361 1.353 . S
C1359 H1400 0.929 . S
C1360 C1358 1.356 . S
C1360 C1362 1.358 . S
C1360 H1401 0.930 . S
C1361 C1359 1.353 . S
C1361 N1363 1.314 . S
C1361 H1402 0.930 . S
C1362 C1360 1.358 . S
C1362 N1363 1.279 . S
C1362 H1403 0.930 . S
N1363 C1361 1.314 . S
N1363 C1362 1.279 . S
C1364 C1366 1.353 . S
C1364 N1367 1.314 . S
C1364 H1370 0.930 . S
C1365 N1367 1.279 . S
C1365 C1368 1.358 . S
C1365 H1371 0.930 . S
C1366 C1364 1.353 . S
C1366 C1369 1.348 . S
C1366 H1404 0.929 . S
N1367 Li1322 1.990 . S
N1367 C1364 1.314 . S
N1367 C1365 1.279 . S
C1368 C1365 1.358 . S
C1368 C1369 1.356 . S
C1368 H1405 0.930 . S
C1369 C1366 1.348 . S
C1369 C1368 1.356 . S
H1370 C1364 0.930 . S
H1371 C1365 0.930 . S
C1372 N1373 1.314 . S
C1372 C1374 1.353 . S
C1372 H1378 0.930 . S
N1373 Li1323 1.990 . S
N1373 C1372 1.314 . S
N1373 C1376 1.279 . S
C1374 C1372 1.353 . S
C1374 C1377 1.348 . S
C1374 H1406 0.929 . S
C1375 C1376 1.358 . S
C1375 C1377 1.356 . S
C1375 H1407 0.930 . S
C1376 N1373 1.279 . S
C1376 C1375 1.358 . S
C1376 H1379 0.930 . S
C1377 C1374 1.348 . S
C1377 C1375 1.356 . S
H1378 C1372 0.930 . S
H1379 C1376 0.930 . S
O1380 Li1320 1.956 . S
O1380 Li1321 1.970 . S
O1380 Li1322 1.961 . S
O1380 C1324 1.325 . S
O1381 Li1320 1.970 . S
O1381 Li1321 1.956 . S
O1381 Li1323 1.961 . S
O1381 C1330 1.325 . S
O1382 Li1320 1.961 . S
O1382 Li1322 1.956 . S
O1382 Li1323 1.970 . S
O1382 C1352 1.325 . S
O1383 Li1321 1.961 . S
O1383 Li1322 1.970 . S
O1383 Li1323 1.956 . S
O1383 C1358 1.325 . S
H1384 C1326 0.929 . S
H1385 C1327 0.930 . S
H1386 C1328 0.930 . S
H1387 C1329 0.930 . S
H1388 C1331 0.930 . S
H1389 C1333 0.929 . S
H1390 C1334 0.930 . S
H1391 C1335 0.930 . S
H1392 C1338 0.930 . S
H1393 C1341 0.929 . S
H1394 C1346 0.929 . S
H1395 C1347 0.930 . S
H1396 C1354 0.929 . S
H1397 C1355 0.930 . S
H1398 C1356 0.930 . S
H1399 C1357 0.930 . S
H1400 C1359 0.929 . S
H1401 C1360 0.930 . S
H1402 C1361 0.930 . S
H1403 C1362 0.930 . S
H1404 C1366 0.929 . S
H1405 C1368 0.930 . S
H1406 C1374 0.929 . S
H1407 C1375 0.930 . S
C1408 C1409 1.367 . S
C1408 C1414 1.379 . S
C1408 N1416 1.356 . S
C1409 C1408 1.367 . S
C1409 C1415 1.359 1_554 S
C1410 C1411 1.363 . S
C1410 C1415 1.379 . S
C1410 N1417 1.356 . S
C1411 C1410 1.363 . S
C1411 C1414 1.363 1_556 S
N1412 C1414 1.356 . S
N1412 H1424 0.984 . S
N1412 H1425 0.985 . S
N1413 C1415 1.356 . S
N1413 H1418 0.984 . S
N1413 H1419 0.985 . S
C1414 C1408 1.379 . S
C1414 C1411 1.363 1_554 S
C1414 N1412 1.356 . S
C1415 C1409 1.359 1_556 S
C1415 C1410 1.379 . S
C1415 N1413 1.356 . S
N1416 C1408 1.356 . S
N1416 H1422 0.984 . S
N1416 H1423 0.984 . S
N1417 C1410 1.356 . S
N1417 H1420 0.984 . S
N1417 H1421 0.985 . S
H1418 N1413 0.984 . S
H1419 N1413 0.985 . S
H1420 N1417 0.984 . S
H1421 N1417 0.985 . S
H1422 N1416 0.984 . S
H1423 N1416 0.984 . S
H1424 N1412 0.984 . S
H1425 N1412 0.985 . S
C1426 C1427 1.366 . S
C1426 C1432 1.379 . S
C1426 N1434 1.356 . S
C1427 C1426 1.366 . S
C1427 C1433 1.360 1_554 S
C1428 C1429 1.363 . S
C1428 C1433 1.379 . S
C1428 N1435 1.356 . S
C1429 C1428 1.363 . S
C1429 C1432 1.363 1_556 S
N1430 C1432 1.356 . S
N1430 H1442 0.984 . S
N1430 H1443 0.985 . S
N1431 C1433 1.356 . S
N1431 H1436 0.984 . S
N1431 H1437 0.985 . S
C1432 C1426 1.379 . S
C1432 C1429 1.363 1_554 S
C1432 N1430 1.356 . S
C1433 C1427 1.360 1_556 S
C1433 C1428 1.379 . S
C1433 N1431 1.356 . S
N1434 C1426 1.356 . S
N1434 H1440 0.984 . S
N1434 H1441 0.984 . S
N1435 C1428 1.356 . S
N1435 H1438 0.984 . S
N1435 H1439 0.985 . S
H1436 N1431 0.984 . S
H1437 N1431 0.985 . S
H1438 N1435 0.984 . S
H1439 N1435 0.985 . S
H1440 N1434 0.984 . S
H1441 N1434 0.984 . S
H1442 N1430 0.984 . S
H1443 N1430 0.985 . S
C1444 C1445 1.367 . S
C1444 C1450 1.379 . S
C1444 N1452 1.356 . S
C1445 C1444 1.367 . S
C1445 C1451 1.359 1_554 S
C1446 C1447 1.363 . S
C1446 C1451 1.379 . S
C1446 N1453 1.356 . S
C1447 C1446 1.363 . S
C1447 C1450 1.363 1_556 S
N1448 C1450 1.356 . S
N1448 H1460 0.984 . S
N1448 H1461 0.985 . S
N1449 C1451 1.356 . S
N1449 H1454 0.984 . S
N1449 H1455 0.985 . S
C1450 C1444 1.379 . S
C1450 C1447 1.363 1_554 S
C1450 N1448 1.356 . S
C1451 C1445 1.359 1_556 S
C1451 C1446 1.379 . S
C1451 N1449 1.356 . S
N1452 C1444 1.356 . S
N1452 H1458 0.984 . S
N1452 H1459 0.984 . S
N1453 C1446 1.356 . S
N1453 H1456 0.984 . S
N1453 H1457 0.985 . S
H1454 N1449 0.984 . S
H1455 N1449 0.985 . S
H1456 N1453 0.984 . S
H1457 N1453 0.985 . S
H1458 N1452 0.984 . S
H1459 N1452 0.984 . S
H1460 N1448 0.984 . S
H1461 N1448 0.985 . S
C1462 C1463 1.366 . S
C1462 C1468 1.379 . S
C1462 N1470 1.356 . S
C1463 C1462 1.366 . S
C1463 C1469 1.360 1_554 S
C1464 C1465 1.363 . S
C1464 C1469 1.379 . S
C1464 N1471 1.356 . S
C1465 C1464 1.363 . S
C1465 C1468 1.363 1_556 S
N1466 C1468 1.356 . S
N1466 H1478 0.984 . S
N1466 H1479 0.985 . S
N1467 C1469 1.356 . S
N1467 H1472 0.984 . S
N1467 H1473 0.985 . S
C1468 C1462 1.379 . S
C1468 C1465 1.363 1_554 S
C1468 N1466 1.356 . S
C1469 C1463 1.360 1_556 S
C1469 C1464 1.379 . S
C1469 N1467 1.356 . S
N1470 C1462 1.356 . S
N1470 H1476 0.984 . S
N1470 H1477 0.984 . S
N1471 C1464 1.356 . S
N1471 H1474 0.984 . S
N1471 H1475 0.985 . S
H1472 N1467 0.984 . S
H1473 N1467 0.985 . S
H1474 N1471 0.984 . S
H1475 N1471 0.985 . S
H1476 N1470 0.984 . S
H1477 N1470 0.984 . S
H1478 N1466 0.984 . S
H1479 N1466 0.985 . S
C1480 C1481 1.363 . S
C1480 C1486 1.379 1_545 S
C1480 N1488 1.356 . S
C1481 C1480 1.363 . S
C1481 C1487 1.363 . S
C1482 C1483 1.363 . S
C1482 C1487 1.379 1_565 S
C1482 N1489 1.356 . S
C1483 C1482 1.363 . S
C1483 C1486 1.363 . S
N1484 C1486 1.356 . S
N1484 H1496 0.984 . S
N1484 H1497 0.985 . S
N1485 C1487 1.356 . S
N1485 H1490 0.984 . S
N1485 H1491 0.985 . S
C1486 C1480 1.379 1_565 S
C1486 C1483 1.363 . S
C1486 N1484 1.356 . S
C1487 C1481 1.363 . S
C1487 C1482 1.379 1_545 S
C1487 N1485 1.356 . S
N1488 C1480 1.356 . S
N1488 H1494 0.984 . S
N1488 H1495 0.984 . S
N1489 C1482 1.356 . S
N1489 H1492 0.984 . S
N1489 H1493 0.985 . S
H1490 N1485 0.984 . S
H1491 N1485 0.985 . S
H1492 N1489 0.984 . S
H1493 N1489 0.985 . S
H1494 N1488 0.984 . S
H1495 N1488 0.984 . S
H1496 N1484 0.984 . S
H1497 N1484 0.985 . S
C1498 C1499 1.363 . S
C1498 C1504 1.379 1_655 S
C1498 N1506 1.356 . S
C1499 C1498 1.363 . S
C1499 C1505 1.363 . S
C1500 C1501 1.363 . S
C1500 C1505 1.379 1_455 S
C1500 N1507 1.356 . S
C1501 C1500 1.363 . S
C1501 C1504 1.363 . S
N1502 C1504 1.356 . S
N1502 H1514 0.984 . S
N1502 H1515 0.985 . S
N1503 C1505 1.356 . S
N1503 H1508 0.984 . S
N1503 H1509 0.985 . S
C1504 C1498 1.379 1_455 S
C1504 C1501 1.363 . S
C1504 N1502 1.356 . S
C1505 C1499 1.363 . S
C1505 C1500 1.379 1_655 S
C1505 N1503 1.356 . S
N1506 C1498 1.356 . S
N1506 H1512 0.984 . S
N1506 H1513 0.984 . S
N1507 C1500 1.356 . S
N1507 H1510 0.984 . S
N1507 H1511 0.985 . S
H1508 N1503 0.984 . S
H1509 N1503 0.985 . S
H1510 N1507 0.984 . S
H1511 N1507 0.985 . S
H1512 N1506 0.984 . S
H1513 N1506 0.984 . S
H1514 N1502 0.984 . S
H1515 N1502 0.985 . S
C1516 C1517 1.363 . S
C1516 C1522 1.379 1_545 S
C1516 N1524 1.356 . S
C1517 C1516 1.363 . S
C1517 C1523 1.363 . S
C1518 C1519 1.363 . S
C1518 C1523 1.379 1_565 S
C1518 N1525 1.356 . S
C1519 C1518 1.363 . S
C1519 C1522 1.363 . S
N1520 C1522 1.356 . S
N1520 H1532 0.984 . S
N1520 H1533 0.985 . S
N1521 C1523 1.356 . S
N1521 H1526 0.984 . S
N1521 H1527 0.985 . S
C1522 C1516 1.379 1_565 S
C1522 C1519 1.363 . S
C1522 N1520 1.356 . S
C1523 C1517 1.363 . S
C1523 C1518 1.379 1_545 S
C1523 N1521 1.356 . S
N1524 C1516 1.356 . S
N1524 H1530 0.984 . S
N1524 H1531 0.984 . S
N1525 C1518 1.356 . S
N1525 H1528 0.984 . S
N1525 H1529 0.985 . S
H1526 N1521 0.984 . S
H1527 N1521 0.985 . S
H1528 N1525 0.984 . S
H1529 N1525 0.985 . S
H1530 N1524 0.984 . S
H1531 N1524 0.984 . S
H1532 N1520 0.984 . S
H1533 N1520 0.985 . S
C1534 C1535 1.363 . S
C1534 C1540 1.379 1_455 S
C1534 N1542 1.356 . S
C1535 C1534 1.363 . S
C1535 C1541 1.363 . S
C1536 C1537 1.363 . S
C1536 C1541 1.379 1_655 S
C1536 N1543 1.356 . S
C1537 C1536 1.363 . S
C1537 C1540 1.363 . S
N1538 C1540 1.356 . S
N1538 H1550 0.984 . S
N1538 H1551 0.985 . S
N1539 C1541 1.356 . S
N1539 H1544 0.984 . S
N1539 H1545 0.985 . S
C1540 C1534 1.379 1_655 S
C1540 C1537 1.363 . S
C1540 N1538 1.356 . S
C1541 C1535 1.363 . S
C1541 C1536 1.379 1_455 S
C1541 N1539 1.356 . S
N1542 C1534 1.356 . S
N1542 H1548 0.984 . S
N1542 H1549 0.984 . S
N1543 C1536 1.356 . S
N1543 H1546 0.984 . S
N1543 H1547 0.985 . S
H1544 N1539 0.984 . S
H1545 N1539 0.985 . S
H1546 N1543 0.984 . S
H1547 N1543 0.985 . S
H1548 N1542 0.984 . S
H1549 N1542 0.984 . S
H1550 N1538 0.984 . S
H1551 N1538 0.985 . S
C1552 C1553 1.359 1_556 S
C1552 C1558 1.379 . S
C1552 N1560 1.356 . S
C1553 C1552 1.359 1_554 S
C1553 C1559 1.367 . S
C1554 C1555 1.364 1_554 S
C1554 C1559 1.379 . S
C1554 N1561 1.356 . S
C1555 C1554 1.364 1_556 S
C1555 C1558 1.362 . S
N1556 C1558 1.356 . S
N1556 H1568 0.984 . S
N1556 H1569 0.985 . S
N1557 C1559 1.356 . S
N1557 H1562 0.984 . S
N1557 H1563 0.985 . S
C1558 C1552 1.379 . S
C1558 C1555 1.362 . S
C1558 N1556 1.356 . S
C1559 C1553 1.367 . S
C1559 C1554 1.379 . S
C1559 N1557 1.356 . S
N1560 C1552 1.356 . S
N1560 H1566 0.984 . S
N1560 H1567 0.984 . S
N1561 C1554 1.356 . S
N1561 H1564 0.984 . S
N1561 H1565 0.985 . S
H1562 N1557 0.984 . S
H1563 N1557 0.985 . S
H1564 N1561 0.984 . S
H1565 N1561 0.985 . S
H1566 N1560 0.984 . S
H1567 N1560 0.984 . S
H1568 N1556 0.984 . S
H1569 N1556 0.985 . S
C1570 C1571 1.362 . S
C1570 C1576 1.379 . S
C1570 N1578 1.356 . S
C1571 C1570 1.362 . S
C1571 C1577 1.364 1_556 S
C1572 C1573 1.367 . S
C1572 C1577 1.379 . S
C1572 N1579 1.356 . S
C1573 C1572 1.367 . S
C1573 C1576 1.359 1_554 S
N1574 C1576 1.356 . S
N1574 H1586 0.984 . S
N1574 H1587 0.985 . S
N1575 C1577 1.356 . S
N1575 H1580 0.984 . S
N1575 H1581 0.985 . S
C1576 C1570 1.379 . S
C1576 C1573 1.359 1_556 S
C1576 N1574 1.356 . S
C1577 C1571 1.364 1_554 S
C1577 C1572 1.379 . S
C1577 N1575 1.356 . S
N1578 C1570 1.356 . S
N1578 H1584 0.984 . S
N1578 H1585 0.984 . S
N1579 C1572 1.356 . S
N1579 H1582 0.984 . S
N1579 H1583 0.985 . S
H1580 N1575 0.984 . S
H1581 N1575 0.985 . S
H1582 N1579 0.984 . S
H1583 N1579 0.985 . S
H1584 N1578 0.984 . S
H1585 N1578 0.984 . S
H1586 N1574 0.984 . S
H1587 N1574 0.985 . S
C1588 C1589 1.367 . S
C1588 C1594 1.379 . S
C1588 N1596 1.356 . S
C1589 C1588 1.367 . S
C1589 C1595 1.359 1_554 S
C1590 C1591 1.362 . S
C1590 C1595 1.379 . S
C1590 N1597 1.356 . S
C1591 C1590 1.362 . S
C1591 C1594 1.364 1_556 S
N1592 C1594 1.356 . S
N1592 H1604 0.984 . S
N1592 H1605 0.985 . S
N1593 C1595 1.356 . S
N1593 H1598 0.984 . S
N1593 H1599 0.985 . S
C1594 C1588 1.379 . S
C1594 C1591 1.364 1_554 S
C1594 N1592 1.356 . S
C1595 C1589 1.359 1_556 S
C1595 C1590 1.379 . S
C1595 N1593 1.356 . S
N1596 C1588 1.356 . S
N1596 H1602 0.984 . S
N1596 H1603 0.984 . S
N1597 C1590 1.356 . S
N1597 H1600 0.984 . S
N1597 H1601 0.985 . S
H1598 N1593 0.984 . S
H1599 N1593 0.985 . S
H1600 N1597 0.984 . S
H1601 N1597 0.985 . S
H1602 N1596 0.984 . S
H1603 N1596 0.984 . S
H1604 N1592 0.984 . S
H1605 N1592 0.985 . S
C1606 C1607 1.364 1_554 S
C1606 C1612 1.379 . S
C1606 N1614 1.356 . S
C1607 C1606 1.364 1_556 S
C1607 C1613 1.362 . S
C1608 C1609 1.359 1_556 S
C1608 C1613 1.379 . S
C1608 N1615 1.356 . S
C1609 C1608 1.359 1_554 S
C1609 C1612 1.367 . S
N1610 C1612 1.356 . S
N1610 H1622 0.984 . S
N1610 H1623 0.985 . S
N1611 C1613 1.356 . S
N1611 H1616 0.984 . S
N1611 H1617 0.985 . S
C1612 C1606 1.379 . S
C1612 C1609 1.367 . S
C1612 N1610 1.356 . S
C1613 C1607 1.362 . S
C1613 C1608 1.379 . S
C1613 N1611 1.356 . S
N1614 C1606 1.356 . S
N1614 H1620 0.984 . S
N1614 H1621 0.984 . S
N1615 C1608 1.356 . S
N1615 H1618 0.984 . S
N1615 H1619 0.985 . S
H1616 N1611 0.984 . S
H1617 N1611 0.985 . S
H1618 N1615 0.984 . S
H1619 N1615 0.985 . S
H1620 N1614 0.984 . S
H1621 N1614 0.984 . S
H1622 N1610 0.984 . S
H1623 N1610 0.985 . S
C1624 C1625 1.363 . S
C1624 C1630 1.379 . S
C1624 N1632 1.356 . S
C1625 C1624 1.363 . S
C1625 C1631 1.363 . S
C1626 C1627 1.363 . S
C1626 C1631 1.379 . S
C1626 N1633 1.356 . S
C1627 C1626 1.363 . S
C1627 C1630 1.363 . S
N1628 C1630 1.356 . S
N1628 H1640 0.984 . S
N1628 H1641 0.985 . S
N1629 C1631 1.356 . S
N1629 H1634 0.984 . S
N1629 H1635 0.985 . S
C1630 C1624 1.379 . S
C1630 C1627 1.363 . S
C1630 N1628 1.356 . S
C1631 C1625 1.363 . S
C1631 C1626 1.379 . S
C1631 N1629 1.356 . S
N1632 C1624 1.356 . S
N1632 H1638 0.984 . S
N1632 H1639 0.984 . S
N1633 C1626 1.356 . S
N1633 H1636 0.984 . S
N1633 H1637 0.985 . S
H1634 N1629 0.984 . S
H1635 N1629 0.985 . S
H1636 N1633 0.984 . S
H1637 N1633 0.985 . S
H1638 N1632 0.984 . S
H1639 N1632 0.984 . S
H1640 N1628 0.984 . S
H1641 N1628 0.985 . S
C1642 C1643 1.363 . S
C1642 C1648 1.379 . S
C1642 N1650 1.356 . S
C1643 C1642 1.363 . S
C1643 C1649 1.363 . S
C1644 C1645 1.363 . S
C1644 C1649 1.379 . S
C1644 N1651 1.356 . S
C1645 C1644 1.363 . S
C1645 C1648 1.363 . S
N1646 C1648 1.356 . S
N1646 H1658 0.984 . S
N1646 H1659 0.985 . S
N1647 C1649 1.356 . S
N1647 H1652 0.984 . S
N1647 H1653 0.985 . S
C1648 C1642 1.379 . S
C1648 C1645 1.363 . S
C1648 N1646 1.356 . S
C1649 C1643 1.363 . S
C1649 C1644 1.379 . S
C1649 N1647 1.356 . S
N1650 C1642 1.356 . S
N1650 H1656 0.984 . S
N1650 H1657 0.984 . S
N1651 C1644 1.356 . S
N1651 H1654 0.984 . S
N1651 H1655 0.985 . S
H1652 N1647 0.984 . S
H1653 N1647 0.985 . S
H1654 N1651 0.984 . S
H1655 N1651 0.985 . S
H1656 N1650 0.984 . S
H1657 N1650 0.984 . S
H1658 N1646 0.984 . S
H1659 N1646 0.985 . S
C1660 C1661 1.363 . S
C1660 C1666 1.379 . S
C1660 N1668 1.356 . S
C1661 C1660 1.363 . S
C1661 C1667 1.363 . S
C1662 C1663 1.363 . S
C1662 C1667 1.379 . S
C1662 N1669 1.356 . S
C1663 C1662 1.363 . S
C1663 C1666 1.363 . S
N1664 C1666 1.356 . S
N1664 H1676 0.984 . S
N1664 H1677 0.985 . S
N1665 C1667 1.356 . S
N1665 H1670 0.984 . S
N1665 H1671 0.985 . S
C1666 C1660 1.379 . S
C1666 C1663 1.363 . S
C1666 N1664 1.356 . S
C1667 C1661 1.363 . S
C1667 C1662 1.379 . S
C1667 N1665 1.356 . S
N1668 C1660 1.356 . S
N1668 H1674 0.984 . S
N1668 H1675 0.984 . S
N1669 C1662 1.356 . S
N1669 H1672 0.984 . S
N1669 H1673 0.985 . S
H1670 N1665 0.984 . S
H1671 N1665 0.985 . S
H1672 N1669 0.984 . S
H1673 N1669 0.985 . S
H1674 N1668 0.984 . S
H1675 N1668 0.984 . S
H1676 N1664 0.984 . S
H1677 N1664 0.985 . S
C1678 C1679 1.363 . S
C1678 C1684 1.379 . S
C1678 N1686 1.356 . S
C1679 C1678 1.363 . S
C1679 C1685 1.363 . S
C1680 C1681 1.363 . S
C1680 C1685 1.379 . S
C1680 N1687 1.356 . S
C1681 C1680 1.363 . S
C1681 C1684 1.363 . S
N1682 C1684 1.356 . S
N1682 H1694 0.984 . S
N1682 H1695 0.985 . S
N1683 C1685 1.356 . S
N1683 H1688 0.984 . S
N1683 H1689 0.985 . S
C1684 C1678 1.379 . S
C1684 C1681 1.363 . S
C1684 N1682 1.356 . S
C1685 C1679 1.363 . S
C1685 C1680 1.379 . S
C1685 N1683 1.356 . S
N1686 C1678 1.356 . S
N1686 H1692 0.984 . S
N1686 H1693 0.984 . S
N1687 C1680 1.356 . S
N1687 H1690 0.984 . S
N1687 H1691 0.985 . S
H1688 N1683 0.984 . S
H1689 N1683 0.985 . S
H1690 N1687 0.984 . S
H1691 N1687 0.985 . S
H1692 N1686 0.984 . S
H1693 N1686 0.984 . S
H1694 N1682 0.984 . S
H1695 N1682 0.985 . S
C1696 C1697 1.363 . S
C1696 C1702 1.379 . S
C1696 N1704 1.356 . S
C1697 C1696 1.363 . S
C1697 C1703 1.363 . S
C1698 C1699 1.363 . S
C1698 C1703 1.379 . S
C1698 N1705 1.356 . S
C1699 C1698 1.363 . S
C1699 C1702 1.363 . S
N1700 C1702 1.356 . S
N1700 H1712 0.984 . S
N1700 H1713 0.985 . S
N1701 C1703 1.356 . S
N1701 H1706 0.984 . S
N1701 H1707 0.985 . S
C1702 C1696 1.379 . S
C1702 C1699 1.363 . S
C1702 N1700 1.356 . S
C1703 C1697 1.363 . S
C1703 C1698 1.379 . S
C1703 N1701 1.356 . S
N1704 C1696 1.356 . S
N1704 H1710 0.984 . S
N1704 H1711 0.984 . S
N1705 C1698 1.356 . S
N1705 H1708 0.984 . S
N1705 H1709 0.985 . S
H1706 N1701 0.984 . S
H1707 N1701 0.985 . S
H1708 N1705 0.984 . S
H1709 N1705 0.985 . S
H1710 N1704 0.984 . S
H1711 N1704 0.984 . S
H1712 N1700 0.984 . S
H1713 N1700 0.985 . S
C1714 C1715 1.363 . S
C1714 C1720 1.379 . S
C1714 N1722 1.356 . S
C1715 C1714 1.363 . S
C1715 C1721 1.363 . S
C1716 C1717 1.363 . S
C1716 C1721 1.379 . S
C1716 N1723 1.356 . S
C1717 C1716 1.363 . S
C1717 C1720 1.363 . S
N1718 C1720 1.356 . S
N1718 H1730 0.984 . S
N1718 H1731 0.985 . S
N1719 C1721 1.356 . S
N1719 H1724 0.984 . S
N1719 H1725 0.985 . S
C1720 C1714 1.379 . S
C1720 C1717 1.363 . S
C1720 N1718 1.356 . S
C1721 C1715 1.363 . S
C1721 C1716 1.379 . S
C1721 N1719 1.356 . S
N1722 C1714 1.356 . S
N1722 H1728 0.984 . S
N1722 H1729 0.984 . S
N1723 C1716 1.356 . S
N1723 H1726 0.984 . S
N1723 H1727 0.985 . S
H1724 N1719 0.984 . S
H1725 N1719 0.985 . S
H1726 N1723 0.984 . S
H1727 N1723 0.985 . S
H1728 N1722 0.984 . S
H1729 N1722 0.984 . S
H1730 N1718 0.984 . S
H1731 N1718 0.985 . S
C1732 C1733 1.363 . S
C1732 C1738 1.379 . S
C1732 N1740 1.356 . S
C1733 C1732 1.363 . S
C1733 C1739 1.363 . S
C1734 C1735 1.363 . S
C1734 C1739 1.379 . S
C1734 N1741 1.356 . S
C1735 C1734 1.363 . S
C1735 C1738 1.363 . S
N1736 C1738 1.356 . S
N1736 H1748 0.984 . S
N1736 H1749 0.985 . S
N1737 C1739 1.356 . S
N1737 H1742 0.984 . S
N1737 H1743 0.985 . S
C1738 C1732 1.379 . S
C1738 C1735 1.363 . S
C1738 N1736 1.356 . S
C1739 C1733 1.363 . S
C1739 C1734 1.379 . S
C1739 N1737 1.356 . S
N1740 C1732 1.356 . S
N1740 H1746 0.984 . S
N1740 H1747 0.984 . S
N1741 C1734 1.356 . S
N1741 H1744 0.984 . S
N1741 H1745 0.985 . S
H1742 N1737 0.984 . S
H1743 N1737 0.985 . S
H1744 N1741 0.984 . S
H1745 N1741 0.985 . S
H1746 N1740 0.984 . S
H1747 N1740 0.984 . S
H1748 N1736 0.984 . S
H1749 N1736 0.985 . S
C1750 C1751 1.363 . S
C1750 C1756 1.379 . S
C1750 N1758 1.356 . S
C1751 C1750 1.363 . S
C1751 C1757 1.363 . S
C1752 C1753 1.363 . S
C1752 C1757 1.379 . S
C1752 N1759 1.356 . S
C1753 C1752 1.363 . S
C1753 C1756 1.363 . S
N1754 C1756 1.356 . S
N1754 H1766 0.984 . S
N1754 H1767 0.985 . S
N1755 C1757 1.356 . S
N1755 H1760 0.984 . S
N1755 H1761 0.985 . S
C1756 C1750 1.379 . S
C1756 C1753 1.363 . S
C1756 N1754 1.356 . S
C1757 C1751 1.363 . S
C1757 C1752 1.379 . S
C1757 N1755 1.356 . S
N1758 C1750 1.356 . S
N1758 H1764 0.984 . S
N1758 H1765 0.984 . S
N1759 C1752 1.356 . S
N1759 H1762 0.984 . S
N1759 H1763 0.985 . S
H1760 N1755 0.984 . S
H1761 N1755 0.985 . S
H1762 N1759 0.984 . S
H1763 N1759 0.985 . S
H1764 N1758 0.984 . S
H1765 N1758 0.984 . S
H1766 N1754 0.984 . S
H1767 N1754 0.985 . S
C1768 C1769 1.363 . S
C1768 C1774 1.379 . S
C1768 N1776 1.356 . S
C1769 C1768 1.363 . S
C1769 C1775 1.363 . S
C1770 C1771 1.363 . S
C1770 C1775 1.379 . S
C1770 N1777 1.356 . S
C1771 C1770 1.363 . S
C1771 C1774 1.363 . S
N1772 C1774 1.356 . S
N1772 H1784 0.984 . S
N1772 H1785 0.985 . S
N1773 C1775 1.356 . S
N1773 H1778 0.984 . S
N1773 H1779 0.985 . S
C1774 C1768 1.379 . S
C1774 C1771 1.363 . S
C1774 N1772 1.356 . S
C1775 C1769 1.363 . S
C1775 C1770 1.379 . S
C1775 N1773 1.356 . S
N1776 C1768 1.356 . S
N1776 H1782 0.984 . S
N1776 H1783 0.984 . S
N1777 C1770 1.356 . S
N1777 H1780 0.984 . S
N1777 H1781 0.985 . S
H1778 N1773 0.984 . S
H1779 N1773 0.985 . S
H1780 N1777 0.984 . S
H1781 N1777 0.985 . S
H1782 N1776 0.984 . S
H1783 N1776 0.984 . S
H1784 N1772 0.984 . S
H1785 N1772 0.985 . S
C1786 C1787 1.363 . S
C1786 C1792 1.379 . S
C1786 N1794 1.356 . S
C1787 C1786 1.363 . S
C1787 C1793 1.363 . S
C1788 C1789 1.363 . S
C1788 C1793 1.379 . S
C1788 N1795 1.356 . S
C1789 C1788 1.363 . S
C1789 C1792 1.363 . S
N1790 C1792 1.356 . S
N1790 H1802 0.984 . S
N1790 H1803 0.985 . S
N1791 C1793 1.356 . S
N1791 H1796 0.984 . S
N1791 H1797 0.985 . S
C1792 C1786 1.379 . S
C1792 C1789 1.363 . S
C1792 N1790 1.356 . S
C1793 C1787 1.363 . S
C1793 C1788 1.379 . S
C1793 N1791 1.356 . S
N1794 C1786 1.356 . S
N1794 H1800 0.984 . S
N1794 H1801 0.984 . S
N1795 C1788 1.356 . S
N1795 H1798 0.984 . S
N1795 H1799 0.985 . S
H1796 N1791 0.984 . S
H1797 N1791 0.985 . S
H1798 N1795 0.984 . S
H1799 N1795 0.985 . S
H1800 N1794 0.984 . S
H1801 N1794 0.984 . S
H1802 N1790 0.984 . S
H1803 N1790 0.985 . S
C1804 C1805 1.363 . S
C1804 C1810 1.379 . S
C1804 N1812 1.356 . S
C1805 C1804 1.363 . S
C1805 C1811 1.363 . S
C1806 C1807 1.363 . S
C1806 C1811 1.379 . S
C1806 N1813 1.356 . S
C1807 C1806 1.363 . S
C1807 C1810 1.363 . S
N1808 C1810 1.356 . S
N1808 H1820 0.984 . S
N1808 H1821 0.985 . S
N1809 C1811 1.356 . S
N1809 H1814 0.984 . S
N1809 H1815 0.985 . S
C1810 C1804 1.379 . S
C1810 C1807 1.363 . S
C1810 N1808 1.356 . S
C1811 C1805 1.363 . S
C1811 C1806 1.379 . S
C1811 N1809 1.356 . S
N1812 C1804 1.356 . S
N1812 H1818 0.984 . S
N1812 H1819 0.984 . S
N1813 C1806 1.356 . S
N1813 H1816 0.984 . S
N1813 H1817 0.985 . S
H1814 N1809 0.984 . S
H1815 N1809 0.985 . S
H1816 N1813 0.984 . S
H1817 N1813 0.985 . S
H1818 N1812 0.984 . S
H1819 N1812 0.984 . S
H1820 N1808 0.984 . S
H1821 N1808 0.985 . S
C1822 C1823 1.363 . S
C1822 C1828 1.379 . S
C1822 N1830 1.356 . S
C1823 C1822 1.363 . S
C1823 C1829 1.363 . S
C1824 C1825 1.363 . S
C1824 C1829 1.379 . S
C1824 N1831 1.356 . S
C1825 C1824 1.363 . S
C1825 C1828 1.363 . S
N1826 C1828 1.356 . S
N1826 H1838 0.984 . S
N1826 H1839 0.985 . S
N1827 C1829 1.356 . S
N1827 H1832 0.984 . S
N1827 H1833 0.985 . S
C1828 C1822 1.379 . S
C1828 C1825 1.363 . S
C1828 N1826 1.356 . S
C1829 C1823 1.363 . S
C1829 C1824 1.379 . S
C1829 N1827 1.356 . S
N1830 C1822 1.356 . S
N1830 H1836 0.984 . S
N1830 H1837 0.984 . S
N1831 C1824 1.356 . S
N1831 H1834 0.984 . S
N1831 H1835 0.985 . S
H1832 N1827 0.984 . S
H1833 N1827 0.985 . S
H1834 N1831 0.984 . S
H1835 N1831 0.985 . S
H1836 N1830 0.984 . S
H1837 N1830 0.984 . S
H1838 N1826 0.984 . S
H1839 N1826 0.985 . S
C1840 C1841 1.363 . S
C1840 C1846 1.379 . S
C1840 N1848 1.356 . S
C1841 C1840 1.363 . S
C1841 C1847 1.363 . S
C1842 C1843 1.363 . S
C1842 C1847 1.379 . S
C1842 N1849 1.356 . S
C1843 C1842 1.363 . S
C1843 C1846 1.363 . S
N1844 C1846 1.356 . S
N1844 H1856 0.984 . S
N1844 H1857 0.985 . S
N1845 C1847 1.356 . S
N1845 H1850 0.984 . S
N1845 H1851 0.985 . S
C1846 C1840 1.379 . S
C1846 C1843 1.363 . S
C1846 N1844 1.356 . S
C1847 C1841 1.363 . S
C1847 C1842 1.379 . S
C1847 N1845 1.356 . S
N1848 C1840 1.356 . S
N1848 H1854 0.984 . S
N1848 H1855 0.984 . S
N1849 C1842 1.356 . S
N1849 H1852 0.984 . S
N1849 H1853 0.985 . S
H1850 N1845 0.984 . S
H1851 N1845 0.985 . S
H1852 N1849 0.984 . S
H1853 N1849 0.985 . S
H1854 N1848 0.984 . S
H1855 N1848 0.984 . S
H1856 N1844 0.984 . S
H1857 N1844 0.985 . S
C1858 C1859 1.363 . S
C1858 C1864 1.379 . S
C1858 N1866 1.356 . S
C1859 C1858 1.363 . S
C1859 C1865 1.363 . S
C1860 C1861 1.363 . S
C1860 C1865 1.379 . S
C1860 N1867 1.356 . S
C1861 C1860 1.363 . S
C1861 C1864 1.363 . S
N1862 C1864 1.356 . S
N1862 H1874 0.984 . S
N1862 H1875 0.985 . S
N1863 C1865 1.356 . S
N1863 H1868 0.984 . S
N1863 H1869 0.985 . S
C1864 C1858 1.379 . S
C1864 C1861 1.363 . S
C1864 N1862 1.356 . S
C1865 C1859 1.363 . S
C1865 C1860 1.379 . S
C1865 N1863 1.356 . S
N1866 C1858 1.356 . S
N1866 H1872 0.984 . S
N1866 H1873 0.984 . S
N1867 C1860 1.356 . S
N1867 H1870 0.984 . S
N1867 H1871 0.985 . S
H1868 N1863 0.984 . S
H1869 N1863 0.985 . S
H1870 N1867 0.984 . S
H1871 N1867 0.985 . S
H1872 N1866 0.984 . S
H1873 N1866 0.984 . S
H1874 N1862 0.984 . S
H1875 N1862 0.985 . S
C1876 C1877 1.363 . S
C1876 C1882 1.379 . S
C1876 N1884 1.356 . S
C1877 C1876 1.363 . S
C1877 C1883 1.363 . S
C1878 C1879 1.363 . S
C1878 C1883 1.379 . S
C1878 N1885 1.356 . S
C1879 C1878 1.363 . S
C1879 C1882 1.363 . S
N1880 C1882 1.356 . S
N1880 H1892 0.984 . S
N1880 H1893 0.985 . S
N1881 C1883 1.356 . S
N1881 H1886 0.984 . S
N1881 H1887 0.985 . S
C1882 C1876 1.379 . S
C1882 C1879 1.363 . S
C1882 N1880 1.356 . S
C1883 C1877 1.363 . S
C1883 C1878 1.379 . S
C1883 N1881 1.356 . S
N1884 C1876 1.356 . S
N1884 H1890 0.984 . S
N1884 H1891 0.984 . S
N1885 C1878 1.356 . S
N1885 H1888 0.984 . S
N1885 H1889 0.985 . S
H1886 N1881 0.984 . S
H1887 N1881 0.985 . S
H1888 N1885 0.984 . S
H1889 N1885 0.985 . S
H1890 N1884 0.984 . S
H1891 N1884 0.984 . S
H1892 N1880 0.984 . S
H1893 N1880 0.985 . S
C1894 C1895 1.363 . S
C1894 C1900 1.379 . S
C1894 N1902 1.356 . S
C1895 C1894 1.363 . S
C1895 C1901 1.363 . S
C1896 C1897 1.363 . S
C1896 C1901 1.379 . S
C1896 N1903 1.356 . S
C1897 C1896 1.363 . S
C1897 C1900 1.363 . S
N1898 C1900 1.356 . S
N1898 H1910 0.984 . S
N1898 H1911 0.985 . S
N1899 C1901 1.356 . S
N1899 H1904 0.984 . S
N1899 H1905 0.985 . S
C1900 C1894 1.379 . S
C1900 C1897 1.363 . S
C1900 N1898 1.356 . S
C1901 C1895 1.363 . S
C1901 C1896 1.379 . S
C1901 N1899 1.356 . S
N1902 C1894 1.356 . S
N1902 H1908 0.984 . S
N1902 H1909 0.984 . S
N1903 C1896 1.356 . S
N1903 H1906 0.984 . S
N1903 H1907 0.985 . S
H1904 N1899 0.984 . S
H1905 N1899 0.985 . S
H1906 N1903 0.984 . S
H1907 N1903 0.985 . S
H1908 N1902 0.984 . S
H1909 N1902 0.984 . S
H1910 N1898 0.984 . S
H1911 N1898 0.985 . S
C1912 C1913 1.363 . S
C1912 C1918 1.379 . S
C1912 N1920 1.356 . S
C1913 C1912 1.363 . S
C1913 C1919 1.363 . S
C1914 C1915 1.363 . S
C1914 C1919 1.379 . S
C1914 N1921 1.356 . S
C1915 C1914 1.363 . S
C1915 C1918 1.363 . S
N1916 C1918 1.356 . S
N1916 H1928 0.984 . S
N1916 H1929 0.985 . S
N1917 C1919 1.356 . S
N1917 H1922 0.984 . S
N1917 H1923 0.985 . S
C1918 C1912 1.379 . S
C1918 C1915 1.363 . S
C1918 N1916 1.356 . S
C1919 C1913 1.363 . S
C1919 C1914 1.379 . S
C1919 N1917 1.356 . S
N1920 C1912 1.356 . S
N1920 H1926 0.984 . S
N1920 H1927 0.984 . S
N1921 C1914 1.356 . S
N1921 H1924 0.984 . S
N1921 H1925 0.985 . S
H1922 N1917 0.984 . S
H1923 N1917 0.985 . S
H1924 N1921 0.984 . S
H1925 N1921 0.985 . S
H1926 N1920 0.984 . S
H1927 N1920 0.984 . S
H1928 N1916 0.984 . S
H1929 N1916 0.985 . S
C1930 C1931 1.363 . S
C1930 C1936 1.379 . S
C1930 N1938 1.356 . S
C1931 C1930 1.363 . S
C1931 C1937 1.363 . S
C1932 C1933 1.363 . S
C1932 C1937 1.379 . S
C1932 N1939 1.356 . S
C1933 C1932 1.363 . S
C1933 C1936 1.363 . S
N1934 C1936 1.356 . S
N1934 H1946 0.984 . S
N1934 H1947 0.985 . S
N1935 C1937 1.356 . S
N1935 H1940 0.984 . S
N1935 H1941 0.985 . S
C1936 C1930 1.379 . S
C1936 C1933 1.363 . S
C1936 N1934 1.356 . S
C1937 C1931 1.363 . S
C1937 C1932 1.379 . S
C1937 N1935 1.356 . S
N1938 C1930 1.356 . S
N1938 H1944 0.984 . S
N1938 H1945 0.984 . S
N1939 C1932 1.356 . S
N1939 H1942 0.984 . S
N1939 H1943 0.985 . S
H1940 N1935 0.984 . S
H1941 N1935 0.985 . S
H1942 N1939 0.984 . S
H1943 N1939 0.985 . S
H1944 N1938 0.984 . S
H1945 N1938 0.984 . S
H1946 N1934 0.984 . S
H1947 N1934 0.985 . S
C1948 C1949 1.363 . S
C1948 C1954 1.379 . S
C1948 N1956 1.356 . S
C1949 C1948 1.363 . S
C1949 C1955 1.363 . S
C1950 C1951 1.363 . S
C1950 C1955 1.379 . S
C1950 N1957 1.356 . S
C1951 C1950 1.363 . S
C1951 C1954 1.363 . S
N1952 C1954 1.356 . S
N1952 H1964 0.984 . S
N1952 H1965 0.985 . S
N1953 C1955 1.356 . S
N1953 H1958 0.984 . S
N1953 H1959 0.985 . S
C1954 C1948 1.379 . S
C1954 C1951 1.363 . S
C1954 N1952 1.356 . S
C1955 C1949 1.363 . S
C1955 C1950 1.379 . S
C1955 N1953 1.356 . S
N1956 C1948 1.356 . S
N1956 H1962 0.984 . S
N1956 H1963 0.984 . S
N1957 C1950 1.356 . S
N1957 H1960 0.984 . S
N1957 H1961 0.985 . S
H1958 N1953 0.984 . S
H1959 N1953 0.985 . S
H1960 N1957 0.984 . S
H1961 N1957 0.985 . S
H1962 N1956 0.984 . S
H1963 N1956 0.984 . S
H1964 N1952 0.984 . S
H1965 N1952 0.985 . S
C1966 C1967 1.363 . S
C1966 C1972 1.379 . S
C1966 N1974 1.356 . S
C1967 C1966 1.363 . S
C1967 C1973 1.363 . S
C1968 C1969 1.363 . S
C1968 C1973 1.379 . S
C1968 N1975 1.356 . S
C1969 C1968 1.363 . S
C1969 C1972 1.363 . S
N1970 C1972 1.356 . S
N1970 H1982 0.984 . S
N1970 H1983 0.985 . S
N1971 C1973 1.356 . S
N1971 H1976 0.984 . S
N1971 H1977 0.985 . S
C1972 C1966 1.379 . S
C1972 C1969 1.363 . S
C1972 N1970 1.356 . S
C1973 C1967 1.363 . S
C1973 C1968 1.379 . S
C1973 N1971 1.356 . S
N1974 C1966 1.356 . S
N1974 H1980 0.984 . S
N1974 H1981 0.984 . S
N1975 C1968 1.356 . S
N1975 H1978 0.984 . S
N1975 H1979 0.985 . S
H1976 N1971 0.984 . S
H1977 N1971 0.985 . S
H1978 N1975 0.984 . S
H1979 N1975 0.985 . S
H1980 N1974 0.984 . S
H1981 N1974 0.984 . S
H1982 N1970 0.984 . S
H1983 N1970 0.985 . S
C1409 C409 0.980 1_554 S
C1411 C20 0.980 1_556 S
C1427 C489 0.980 1_554 S
C1429 C108 0.980 1_556 S
C1445 C585 0.980 1_554 S
C1447 C205 0.980 1_556 S
C1463 C673 0.980 1_554 S
C1465 C293 0.980 1_556 S
C1481 C1105 0.980 . S
C1483 C724 0.980 . S
C1499 C1193 0.980 . S
C1501 C812 0.980 . S
C1517 C909 0.980 . S
C1519 C1281 0.980 . S
C1535 C1377 0.980 . S
C1537 C997 0.980 . S
C1553 C49 1.344 . S
C1555 C460 1.344 1_556 S
C1571 C557 1.344 1_556 S
C1573 C137 1.344 . S
C1589 C233 1.344 . S
C1591 C645 1.344 1_556 S
C1607 C381 1.344 1_556 S
C1609 C321 1.344 . S
C1625 C1164 1.344 . S
C1627 C753 1.344 . S
C1643 C1252 1.344 . S
C1645 C841 1.344 . S
C1661 C937 1.344 . S
C1663 C1349 1.344 . S
C1679 C1025 1.344 . S
C1681 C1076 1.344 . S
C1697 C1369 1.543 . S
C1699 C29 1.541 . S
C1715 C1113 1.543 . S
C1717 C117 1.541 . S
C1733 C1201 1.543 . S
C1735 C196 1.541 . S
C1751 C1289 1.543 . S
C1753 C284 1.541 . S
C1769 C821 1.543 . S
C1771 C401 1.546 . S
C1787 C900 1.543 . S
C1789 C497 1.546 . S
C1805 C577 1.543 . S
C1807 C988 1.546 . S
C1823 C665 1.543 . S
C1825 C733 1.546 . S
C1841 C1173 1.544 . S
C1843 C225 1.547 . S
C1859 C1261 1.544 . S
C1861 C313 1.547 . S
C1877 C1340 1.544 . S
C1879 C57 1.547 . S
C1895 C145 1.544 . S
C1897 C1085 1.547 . S
C1913 C1017 1.544 . S
C1915 C548 1.542 . S
C1931 C636 1.544 . S
C1933 C761 1.542 . S
C1949 C849 1.544 . S
C1951 C372 1.542 . S
C1967 C929 1.544 . S
C1969 C469 1.542 . S
