# Generated by pormake.
# Topology gis, (4)-cn, num edge types: 1
# Building blocks:
#     Node 0, Type 0, BuildingBlock: CEKHIL_clean_sbu_0, # of connection points: 4
#     Node 1, Type 0, BuildingBlock: CEKHIL_clean_sbu_0, # of connection points: 4
#     Node 2, Type 0, BuildingBlock: CEKHIL_clean_sbu_0, # of connection points: 4
#     Node 3, Type 0, BuildingBlock: CEKHIL_clean_sbu_0, # of connection points: 4
#     Node 4, Type 0, BuildingBlock: CEKHIL_clean_sbu_0, # of connection points: 4
#     Node 5, Type 0, BuildingBlock: CEKHIL_clean_sbu_0, # of connection points: 4
#     Node 6, Type 0, BuildingBlock: CEKHIL_clean_sbu_0, # of connection points: 4
#     Node 7, Type 0, BuildingBlock: CEKHIL_clean_sbu_0, # of connection points: 4
#     Node 8, Type 0, BuildingBlock: CEKHIL_clean_sbu_0, # of connection points: 4
#     Node 9, Type 0, BuildingBlock: CEKHIL_clean_sbu_0, # of connection points: 4
#     Node 10, Type 0, BuildingBlock: CEKHIL_clean_sbu_0, # of connection points: 4
#     Node 11, Type 0, BuildingBlock: CEKHIL_clean_sbu_0, # of connection points: 4
#     Node 12, Type 0, BuildingBlock: CEKHIL_clean_sbu_0, # of connection points: 4
#     Node 13, Type 0, BuildingBlock: CEKHIL_clean_sbu_0, # of connection points: 4
#     Node 14, Type 0, BuildingBlock: CEKHIL_clean_sbu_0, # of connection points: 4
#     Node 15, Type 0, BuildingBlock: CEKHIL_clean_sbu_0, # of connection points: 4
#     Edge 16, Type (0, 0), BuildingBlock: TEMPAE_clean_linker_10, # of connection points: 2
#     Edge 17, Type (0, 0), BuildingBlock: TEMPAE_clean_linker_10, # of connection points: 2
#     Edge 18, Type (0, 0), BuildingBlock: TEMPAE_clean_linker_10, # of connection points: 2
#     Edge 19, Type (0, 0), BuildingBlock: TEMPAE_clean_linker_10, # of connection points: 2
#     Edge 20, Type (0, 0), BuildingBlock: TEMPAE_clean_linker_10, # of connection points: 2
#     Edge 21, Type (0, 0), BuildingBlock: TEMPAE_clean_linker_10, # of connection points: 2
#     Edge 22, Type (0, 0), BuildingBlock: TEMPAE_clean_linker_10, # of connection points: 2
#     Edge 23, Type (0, 0), BuildingBlock: TEMPAE_clean_linker_10, # of connection points: 2
#     Edge 24, Type (0, 0), BuildingBlock: TEMPAE_clean_linker_10, # of connection points: 2
#     Edge 25, Type (0, 0), BuildingBlock: TEMPAE_clean_linker_10, # of connection points: 2
#     Edge 26, Type (0, 0), BuildingBlock: TEMPAE_clean_linker_10, # of connection points: 2
#     Edge 27, Type (0, 0), BuildingBlock: TEMPAE_clean_linker_10, # of connection points: 2
#     Edge 28, Type (0, 0), BuildingBlock: TEMPAE_clean_linker_10, # of connection points: 2
#     Edge 29, Type (0, 0), BuildingBlock: TEMPAE_clean_linker_10, # of connection points: 2
#     Edge 30, Type (0, 0), BuildingBlock: TEMPAE_clean_linker_10, # of connection points: 2
#     Edge 31, Type (0, 0), BuildingBlock: TEMPAE_clean_linker_10, # of connection points: 2
#     Edge 32, Type (0, 0), BuildingBlock: TEMPAE_clean_linker_10, # of connection points: 2
#     Edge 33, Type (0, 0), BuildingBlock: TEMPAE_clean_linker_10, # of connection points: 2
#     Edge 34, Type (0, 0), BuildingBlock: TEMPAE_clean_linker_10, # of connection points: 2
#     Edge 35, Type (0, 0), BuildingBlock: TEMPAE_clean_linker_10, # of connection points: 2
#     Edge 36, Type (0, 0), BuildingBlock: TEMPAE_clean_linker_10, # of connection points: 2
#     Edge 37, Type (0, 0), BuildingBlock: TEMPAE_clean_linker_10, # of connection points: 2
#     Edge 38, Type (0, 0), BuildingBlock: TEMPAE_clean_linker_10, # of connection points: 2
#     Edge 39, Type (0, 0), BuildingBlock: TEMPAE_clean_linker_10, # of connection points: 2
#     Edge 40, Type (0, 0), BuildingBlock: TEMPAE_clean_linker_10, # of connection points: 2
#     Edge 41, Type (0, 0), BuildingBlock: TEMPAE_clean_linker_10, # of connection points: 2
#     Edge 42, Type (0, 0), BuildingBlock: TEMPAE_clean_linker_10, # of connection points: 2
#     Edge 43, Type (0, 0), BuildingBlock: TEMPAE_clean_linker_10, # of connection points: 2
#     Edge 44, Type (0, 0), BuildingBlock: TEMPAE_clean_linker_10, # of connection points: 2
#     Edge 45, Type (0, 0), BuildingBlock: TEMPAE_clean_linker_10, # of connection points: 2
#     Edge 46, Type (0, 0), BuildingBlock: TEMPAE_clean_linker_10, # of connection points: 2
#     Edge 47, Type (0, 0), BuildingBlock: TEMPAE_clean_linker_10, # of connection points: 2
# Relax obj value: 0.063
# Max RMSD: 0.132
# Mean RMSD: 0.126
data_MOF--net-gis--node1-CEKHIL_clean_sbu_0--edge1-TEMPAE_clean_linker_10
_symmetry_space_group_name_H-M    P1
_symmetry_Int_Tables_number       1
_symmetry_cell_setting            triclinic
loop_
_symmetry_equiv_pos_as_xyz
'x, y, z'
_cell_length_a     55.313494
_cell_length_b     51.8513
_cell_length_c     35.506734
_cell_angle_alpha  90.409509
_cell_angle_beta   90.402185
_cell_angle_gamma 90.044272
loop_
_atom_site_label
_atom_site_type_symbol
_atom_site_fract_x
_atom_site_fract_y
_atom_site_fract_z
_atom_type_partial_charge
Co0 Co 0.14369 0.59914 0.13911 0.0
O1 O 0.17775 0.60502 0.1449 0.0
O2 O 0.15222 0.59955 0.19214 0.0
C3 C 0.1463 0.56874 0.0939 0.0
O4 O 0.10741 0.59222 0.14285 0.0
Co5 Co 0.11993 0.61288 0.06195 0.0
O6 O 0.09182 0.59482 0.0842 0.0
C7 C 0.13532 0.65416 0.11368 0.0
C8 C 0.17424 0.60362 0.18086 0.0
C9 C 0.08978 0.58965 0.11913 0.0
O10 O 0.13798 0.63748 0.13998 0.0
O11 O 0.13075 0.64808 0.07935 0.0
O12 O 0.14924 0.56259 0.12902 0.0
O13 O 0.14466 0.59311 0.08721 0.0
Co14 Co 0.64027 0.8865 0.36818 0.0
O15 O 0.6749 0.8843 0.36651 0.0
O16 O 0.65066 0.88469 0.3164 0.0
C17 C 0.63827 0.9191 0.40997 0.0
O18 O 0.60387 0.8893 0.35914 0.0
Co19 Co 0.6137 0.87408 0.44265 0.0
O20 O 0.58464 0.88533 0.41455 0.0
C21 C 0.63218 0.8315 0.39597 0.0
C22 C 0.6725 0.8838 0.33016 0.0
C23 C 0.58454 0.8893 0.37918 0.0
O24 O 0.6383 0.84777 0.37061 0.0
O25 O 0.62322 0.83808 0.42775 0.0
O26 O 0.64196 0.92367 0.37458 0.0
O27 O 0.63847 0.89508 0.41961 0.0
Co28 Co 0.36176 0.39823 0.64654 0.0
O29 O 0.32722 0.39593 0.64991 0.0
O30 O 0.35269 0.39212 0.69824 0.0
C31 C 0.36271 0.43354 0.61041 0.0
O32 O 0.3984 0.40033 0.65329 0.0
Co33 Co 0.38595 0.39172 0.568 0.0
O34 O 0.4151 0.40391 0.59585 0.0
C35 C 0.36508 0.34683 0.60601 0.0
C36 C 0.33055 0.39227 0.68562 0.0
C37 C 0.41665 0.40426 0.6317 0.0
O38 O 0.36356 0.36004 0.63665 0.0
O39 O 0.37116 0.35658 0.57442 0.0
O40 O 0.35994 0.43589 0.64657 0.0
O41 O 0.36226 0.41031 0.59722 0.0
Co42 Co 0.85967 0.096 0.85644 0.0
O43 O 0.82521 0.09429 0.85237 0.0
O44 O 0.8501 0.09815 0.80393 0.0
C45 C 0.86352 0.06355 0.89743 0.0
O46 O 0.89637 0.09717 0.85112 0.0
Co47 Co 0.88129 0.11085 0.93513 0.0
O48 O 0.9123 0.1044 0.90898 0.0
C49 C 0.85723 0.14988 0.88936 0.0
C50 C 0.82806 0.09628 0.81635 0.0
C51 C 0.91453 0.10003 0.87374 0.0
O52 O 0.85815 0.13465 0.86076 0.0
O53 O 0.8629 0.14311 0.92283 0.0
O54 O 0.86118 0.05851 0.86168 0.0
O55 O 0.86079 0.08735 0.90715 0.0
Co56 Co 0.14097 0.3927 0.86147 0.0
O57 O 0.1753 0.38783 0.86456 0.0
O58 O 0.15395 0.38688 0.81159 0.0
C59 C 0.14015 0.4275 0.89954 0.0
O60 O 0.10524 0.3978 0.84769 0.0
Co61 Co 0.10936 0.38809 0.93297 0.0
O62 O 0.08607 0.40755 0.90157 0.0
C63 C 0.12666 0.34089 0.89477 0.0
C64 C 0.17496 0.38538 0.82821 0.0
C65 C 0.08671 0.40631 0.86576 0.0
O66 O 0.13594 0.35457 0.86848 0.0
O67 O 0.11615 0.35053 0.92364 0.0
O68 O 0.14542 0.42997 0.86417 0.0
O69 O 0.13752 0.40415 0.9113 0.0
Co70 Co 0.85797 0.89968 0.14337 0.0
O71 O 0.8235 0.89534 0.14278 0.0
O72 O 0.84628 0.89765 0.19444 0.0
C73 C 0.8593 0.93154 0.10098 0.0
O74 O 0.89394 0.90449 0.15442 0.0
Co75 Co 0.8873 0.88871 0.0703 0.0
O76 O 0.91356 0.9063 0.09907 0.0
C77 C 0.86611 0.84587 0.1131 0.0
C78 C 0.82492 0.89503 0.17925 0.0
C79 C 0.91299 0.90881 0.13479 0.0
O80 O 0.862 0.8612 0.14091 0.0
O81 O 0.87388 0.8535 0.08114 0.0
O82 O 0.85447 0.93681 0.13597 0.0
O83 O 0.86073 0.90739 0.09241 0.0
Co84 Co 0.35949 0.60475 0.3746 0.0
O85 O 0.32486 0.60726 0.37432 0.0
O86 O 0.34755 0.60481 0.3232 0.0
C87 C 0.36202 0.57394 0.41853 0.0
O88 O 0.39575 0.60134 0.36444 0.0
Co89 Co 0.38778 0.61983 0.44743 0.0
O90 O 0.4161 0.60727 0.41905 0.0
C91 C 0.36801 0.66058 0.39909 0.0
C92 C 0.3261 0.6066 0.33789 0.0
C93 C 0.41552 0.60205 0.38392 0.0
O94 O 0.36176 0.64344 0.37459 0.0
O95 O 0.37736 0.65514 0.43113 0.0
O96 O 0.35762 0.56788 0.3836 0.0
O97 O 0.36237 0.59832 0.42636 0.0
Co98 Co 0.63889 0.10013 0.63363 0.0
O99 O 0.6734 0.10178 0.63126 0.0
O100 O 0.6522 0.10476 0.6839 0.0
C101 C 0.63531 0.06563 0.59542 0.0
O102 O 0.6029 0.09783 0.64606 0.0
Co103 Co 0.60913 0.10899 0.56051 0.0
O104 O 0.58371 0.09184 0.59054 0.0
C105 C 0.63021 0.15347 0.60047 0.0
C106 C 0.67322 0.10405 0.66759 0.0
C107 C 0.58407 0.09164 0.62642 0.0
O108 O 0.63666 0.13859 0.62746 0.0
O109 O 0.62032 0.14546 0.56986 0.0
O110 O 0.64041 0.06269 0.63087 0.0
O111 O 0.63483 0.08915 0.58357 0.0
Co112 Co 0.85951 0.39411 0.86339 0.0
O113 O 0.82503 0.39533 0.8594 0.0
O114 O 0.84963 0.39073 0.81093 0.0
C115 C 0.86275 0.42791 0.9028 0.0
O116 O 0.89627 0.39305 0.85744 0.0
Co117 Co 0.88275 0.3836 0.94186 0.0
O118 O 0.91312 0.39177 0.91537 0.0
C119 C 0.86032 0.34095 0.89896 0.0
C120 C 0.82758 0.39262 0.82337 0.0
C121 C 0.91482 0.39327 0.87965 0.0
O122 O 0.85793 0.35557 0.87002 0.0
O123 O 0.86788 0.34914 0.93102 0.0
O124 O 0.86123 0.43172 0.86674 0.0
O125 O 0.86023 0.40447 0.9138 0.0
Co126 Co 0.35616 0.10116 0.62821 0.0
O127 O 0.32173 0.10261 0.63353 0.0
O128 O 0.34803 0.10581 0.68085 0.0
C129 C 0.35682 0.06648 0.58998 0.0
O130 O 0.39304 0.09995 0.63282 0.0
Co131 Co 0.37816 0.10896 0.54853 0.0
O132 O 0.40852 0.09904 0.57429 0.0
C133 C 0.36179 0.15409 0.59234 0.0
C134 C 0.32563 0.10561 0.6693 0.0
C135 C 0.411 0.09823 0.60999 0.0
O136 O 0.35691 0.13966 0.62059 0.0
O137 O 0.36917 0.14547 0.56058 0.0
O138 O 0.3556 0.06351 0.6262 0.0
O139 O 0.35523 0.08986 0.57809 0.0
Co140 Co 0.63432 0.58816 0.3452 0.0
O141 O 0.63405 0.55235 0.35896 0.0
O142 O 0.62651 0.58512 0.39782 0.0
C143 C 0.66934 0.58792 0.31387 0.0
O144 O 0.63387 0.62732 0.34205 0.0
Co145 Co 0.63045 0.60453 0.26226 0.0
O146 O 0.63714 0.63976 0.2818 0.0
C147 C 0.5865 0.58786 0.30089 0.0
C148 C 0.62859 0.56041 0.39252 0.0
C149 C 0.6363 0.64485 0.31691 0.0
O150 O 0.599 0.58585 0.33138 0.0
O151 O 0.59575 0.59405 0.26928 0.0
O152 O 0.66915 0.58983 0.35032 0.0
O153 O 0.64871 0.58334 0.29758 0.0
Co154 Co 0.13556 0.89793 0.14625 0.0
O155 O 0.13845 0.93282 0.12963 0.0
O156 O 0.12765 0.89979 0.09312 0.0
C157 C 0.17064 0.89746 0.178 0.0
O158 O 0.13201 0.8593 0.15314 0.0
Co159 Co 0.13168 0.88532 0.23057 0.0
O160 O 0.14085 0.85004 0.21338 0.0
C161 C 0.0886 0.90394 0.19021 0.0
C162 C 0.13258 0.92426 0.09642 0.0
C163 C 0.1371 0.84317 0.17932 0.0
O164 O 0.10066 0.90332 0.15941 0.0
O165 O 0.09802 0.89928 0.22251 0.0
O166 O 0.17022 0.89333 0.14193 0.0
O167 O 0.15036 0.90392 0.19339 0.0
Co168 Co 0.86088 0.59939 0.14119 0.0
O169 O 0.82627 0.60138 0.14076 0.0
O170 O 0.84889 0.60026 0.19245 0.0
C171 C 0.86331 0.56786 0.09771 0.0
O172 O 0.8972 0.59664 0.15197 0.0
Co173 Co 0.88922 0.61171 0.06776 0.0
O174 O 0.91691 0.59782 0.09657 0.0
C175 C 0.87022 0.65417 0.11495 0.0
C176 C 0.82743 0.60136 0.1772 0.0
C177 C 0.91655 0.59478 0.13212 0.0
O178 O 0.86283 0.6382 0.13992 0.0
O179 O 0.87993 0.64739 0.08381 0.0
O180 O 0.85967 0.56216 0.13278 0.0
O181 O 0.86336 0.59206 0.08974 0.0
Co182 Co 0.14267 0.09499 0.86114 0.0
O183 O 0.17704 0.09987 0.85968 0.0
O184 O 0.1528 0.10012 0.80963 0.0
C185 C 0.1429 0.06043 0.89911 0.0
O186 O 0.10637 0.09007 0.85272 0.0
Co187 Co 0.11674 0.10166 0.93833 0.0
O188 O 0.08967 0.08526 0.90998 0.0
C189 C 0.13407 0.14732 0.89793 0.0
C190 C 0.17458 0.10203 0.82352 0.0
C191 C 0.08839 0.08446 0.8741 0.0
O192 O 0.1381 0.13328 0.86862 0.0
O193 O 0.12778 0.13806 0.92974 0.0
O194 O 0.14675 0.05755 0.8633 0.0
O195 O 0.14184 0.08398 0.91102 0.0
Co196 Co 0.63883 0.39819 0.63976 0.0
O197 O 0.63581 0.43412 0.62762 0.0
O198 O 0.62963 0.40168 0.58753 0.0
C199 C 0.67443 0.40091 0.67005 0.0
O200 O 0.64073 0.35911 0.64169 0.0
Co201 Co 0.6385 0.38062 0.72285 0.0
O202 O 0.64728 0.34638 0.70125 0.0
C203 C 0.59304 0.3964 0.68688 0.0
C204 C 0.63025 0.42642 0.59379 0.0
C205 C 0.64517 0.34151 0.66612 0.0
O206 O 0.60392 0.39711 0.65506 0.0
O207 O 0.60392 0.39263 0.71829 0.0
O208 O 0.67372 0.39959 0.63356 0.0
O209 O 0.65387 0.40327 0.68686 0.0
Co210 Co 0.36551 0.90152 0.34578 0.0
O211 O 0.36674 0.93711 0.36137 0.0
O212 O 0.37382 0.90352 0.39843 0.0
C213 C 0.33013 0.90302 0.31468 0.0
O214 O 0.36498 0.86251 0.341 0.0
Co215 Co 0.3678 0.88554 0.262 0.0
O216 O 0.3612 0.85022 0.2804 0.0
C217 C 0.41241 0.90178 0.30064 0.0
C218 C 0.37202 0.92834 0.3946 0.0
C219 C 0.36215 0.84511 0.3154 0.0
O220 O 0.4006 0.90312 0.33163 0.0
O221 O 0.40251 0.8963 0.26889 0.0
O222 O 0.33078 0.90096 0.35109 0.0
O223 O 0.35074 0.90698 0.29847 0.0
C224 C 0.15525 0.79942 0.18583 0.0
C225 C 0.13773 0.81551 0.16975 0.0
C226 C 0.15614 0.77308 0.17652 0.0
C227 C 0.13855 0.76255 0.15162 0.0
C228 C 0.12065 0.77874 0.13568 0.0
C229 C 0.12073 0.80515 0.14445 0.0
C230 C 0.17597 0.75658 0.19307 0.0
C231 C 0.10117 0.76811 0.1099 0.0
C232 C 0.14881 0.69902 0.10037 0.0
C233 C 0.13682 0.68169 0.12384 0.0
C234 C 0.15024 0.72532 0.10975 0.0
C235 C 0.13857 0.73452 0.14259 0.0
C236 C 0.12629 0.71704 0.16622 0.0
C237 C 0.12595 0.69071 0.1569 0.0
C238 C 0.16421 0.74324 0.08457 0.0
C239 C 0.11298 0.72623 0.2008 0.0
H240 H 0.16855 0.80757 0.2051 0.0
H241 H 0.10709 0.81763 0.13224 0.0
H242 H 0.16804 0.74141 0.21106 0.0
H243 H 0.18599 0.74667 0.17019 0.0
H244 H 0.189 0.76803 0.21031 0.0
H245 H 0.08818 0.78319 0.10073 0.0
H246 H 0.10942 0.75929 0.08452 0.0
H247 H 0.09102 0.75268 0.12447 0.0
H248 H 0.15741 0.69191 0.07499 0.0
H249 H 0.11653 0.67725 0.17487 0.0
H250 H 0.17783 0.75414 0.10139 0.0
H251 H 0.15179 0.75754 0.07177 0.0
H252 H 0.17363 0.73273 0.06158 0.0
H253 H 0.12567 0.73604 0.22053 0.0
H254 H 0.10404 0.71017 0.21589 0.0
H255 H 0.09902 0.74054 0.19264 0.0
C256 C 0.44908 0.92109 0.33057 0.0
C257 C 0.4389 0.90505 0.30276 0.0
C258 C 0.47408 0.92132 0.33721 0.0
C259 C 0.48916 0.9046 0.3162 0.0
C260 C 0.47916 0.88961 0.28642 0.0
C261 C 0.45409 0.89023 0.27978 0.0
C262 C 0.48408 0.93807 0.36862 0.0
C263 C 0.49454 0.87126 0.26375 0.0
C264 C 0.55733 0.90978 0.33104 0.0
C265 C 0.56077 0.89245 0.36069 0.0
C266 C 0.53412 0.91381 0.31562 0.0
C267 C 0.51423 0.89965 0.32966 0.0
C268 C 0.51796 0.88134 0.3585 0.0
C269 C 0.54109 0.87822 0.37393 0.0
C270 C 0.53072 0.93383 0.28542 0.0
C271 C 0.49739 0.86538 0.37374 0.0
H272 H 0.43737 0.93284 0.34804 0.0
H273 H 0.44625 0.87777 0.2583 0.0
H274 H 0.48881 0.92584 0.3931 0.0
H275 H 0.50084 0.94795 0.35956 0.0
H276 H 0.47084 0.95285 0.378 0.0
H277 H 0.48494 0.86411 0.23813 0.0
H278 H 0.51164 0.88062 0.25517 0.0
H279 H 0.49937 0.85442 0.2814 0.0
H280 H 0.57257 0.92083 0.3209 0.0
H281 H 0.54381 0.86452 0.3965 0.0
H282 H 0.51971 0.94999 0.29664 0.0
H283 H 0.52071 0.92554 0.26102 0.0
H284 H 0.54822 0.94169 0.27544 0.0
H285 H 0.4842 0.87812 0.38812 0.0
H286 H 0.50369 0.85064 0.39413 0.0
H287 H 0.48768 0.85544 0.35035 0.0
C288 C 0.35001 0.30595 0.57698 0.0
C289 C 0.36077 0.31882 0.60758 0.0
C290 C 0.34736 0.27906 0.57698 0.0
C291 C 0.35648 0.26473 0.60775 0.0
C292 C 0.36671 0.27774 0.63924 0.0
C293 C 0.36839 0.30473 0.63901 0.0
C294 C 0.33566 0.26593 0.54341 0.0
C295 C 0.37724 0.2631 0.67211 0.0
C296 C 0.34092 0.19356 0.61643 0.0
C297 C 0.36023 0.18223 0.59714 0.0
C298 C 0.33925 0.22052 0.61995 0.0
C299 C 0.35779 0.23619 0.60499 0.0
C300 C 0.37767 0.22465 0.58649 0.0
C301 C 0.37842 0.19782 0.58224 0.0
C302 C 0.31745 0.23222 0.63883 0.0
C303 C 0.39819 0.24062 0.57117 0.0
H304 H 0.34381 0.31692 0.55289 0.0
H305 H 0.37679 0.31472 0.66264 0.0
H306 H 0.34957 0.25534 0.52711 0.0
H307 H 0.3221 0.25161 0.55279 0.0
H308 H 0.32665 0.2799 0.52436 0.0
H309 H 0.38266 0.2761 0.69571 0.0
H310 H 0.36406 0.24882 0.68271 0.0
H311 H 0.39342 0.25224 0.66269 0.0
H312 H 0.32684 0.18139 0.62782 0.0
H313 H 0.39352 0.18894 0.56777 0.0
H314 H 0.30764 0.24471 0.61859 0.0
H315 H 0.32318 0.24464 0.66284 0.0
H316 H 0.30476 0.21733 0.64932 0.0
H317 H 0.39141 0.25328 0.54837 0.0
H318 H 0.41302 0.22851 0.55973 0.0
H319 H 0.40574 0.2533 0.59367 0.0
C320 C 0.04793 0.06403 0.87707 0.0
C321 C 0.06421 0.07964 0.85756 0.0
C322 C 0.02312 0.0648 0.86908 0.0
C323 C 0.01439 0.08179 0.84107 0.0
C324 C 0.03105 0.09518 0.81818 0.0
C325 C 0.05592 0.09393 0.8267 0.0
C326 C 0.00612 0.04973 0.89372 0.0
C327 C 0.02254 0.11292 0.78736 0.0
C328 C 0.94584 0.08025 0.83141 0.0
C329 C 0.93945 0.09828 0.85922 0.0
C330 C 0.97033 0.07576 0.82281 0.0
C331 C 0.98856 0.08978 0.84238 0.0
C332 C 0.98191 0.1095 0.8681 0.0
C333 C 0.9575 0.11338 0.87629 0.0
C334 C 0.97661 0.05487 0.7948 0.0
C335 C 0.00065 0.12531 0.8892 0.0
H336 H 0.05439 0.05256 0.9005 0.0
H337 H 0.06849 0.10591 0.81136 0.0
H338 H 0.99729 0.06308 0.91396 0.0
H339 H 0.99169 0.04046 0.87654 0.0
H340 H 0.01571 0.03459 0.91 0.0
H341 H 0.03705 0.11656 0.76657 0.0
H342 H 0.00653 0.10481 0.77245 0.0
H343 H 0.01717 0.13169 0.79994 0.0
H344 H 0.93188 0.06861 0.81805 0.0
H345 H 0.95255 0.1277 0.89726 0.0
H346 H 0.98099 0.03689 0.81015 0.0
H347 H 0.99268 0.06022 0.77804 0.0
H348 H 0.96126 0.05073 0.77532 0.0
H349 H 0.01068 0.11275 0.90909 0.0
H350 H 0.99244 0.14139 0.90551 0.0
H351 H 0.01395 0.13351 0.86936 0.0
C352 C 0.14916 0.30096 0.877 0.0
C353 C 0.12837 0.31257 0.89175 0.0
C354 C 0.15155 0.274 0.87606 0.0
C355 C 0.13236 0.25841 0.8891 0.0
C356 C 0.11098 0.27011 0.90274 0.0
C357 C 0.10941 0.29708 0.90448 0.0
C358 C 0.17486 0.26225 0.8623 0.0
C359 C 0.08984 0.25414 0.91587 0.0
C360 C 0.12883 0.18769 0.86084 0.0
C361 C 0.13562 0.17562 0.89449 0.0
C362 C 0.12804 0.2147 0.85839 0.0
C363 C 0.13487 0.22988 0.89003 0.0
C364 C 0.14282 0.21773 0.92349 0.0
C365 C 0.14274 0.19073 0.9255 0.0
C366 C 0.11891 0.22693 0.82256 0.0
C367 C 0.15089 0.23325 0.95747 0.0
H368 H 0.16389 0.31299 0.86737 0.0
H369 H 0.09322 0.30608 0.91551 0.0
H370 H 0.18358 0.25131 0.88546 0.0
H371 H 0.17119 0.24837 0.83906 0.0
H372 H 0.18779 0.27703 0.8522 0.0
H373 H 0.07388 0.26619 0.92296 0.0
H374 H 0.08449 0.24002 0.89369 0.0
H375 H 0.09512 0.24302 0.94118 0.0
H376 H 0.12316 0.17601 0.83691 0.0
H377 H 0.14822 0.18141 0.95142 0.0
H378 H 0.13217 0.2412 0.81213 0.0
H379 H 0.10188 0.23751 0.82833 0.0
H380 H 0.11538 0.21247 0.79994 0.0
H381 H 0.16466 0.24769 0.94923 0.0
H382 H 0.15863 0.22091 0.97998 0.0
H383 H 0.1353 0.24399 0.96923 0.0
C384 C 0.94507 0.89595 0.18004 0.0
C385 C 0.93616 0.91379 0.15404 0.0
C386 C 0.96944 0.89656 0.19141 0.0
C387 C 0.98489 0.91598 0.17721 0.0
C388 C 0.97522 0.93551 0.15384 0.0
C389 C 0.95105 0.93384 0.14184 0.0
C390 C 0.9791 0.87495 0.21547 0.0
C391 C 0.99085 0.95702 0.13911 0.0
C392 C 0.04928 0.92055 0.21583 0.0
C393 C 0.06221 0.90791 0.18733 0.0
C394 C 0.02407 0.9238 0.21281 0.0
C395 C 0.01157 0.91335 0.18124 0.0
C396 C 0.0246 0.90022 0.15278 0.0
C397 C 0.04975 0.89804 0.15591 0.0
C398 C 0.01086 0.93861 0.24306 0.0
C399 C 0.01197 0.88816 0.11911 0.0
H400 H 0.93354 0.88025 0.18901 0.0
H401 H 0.94404 0.94763 0.1217 0.0
H402 H 0.99007 0.86177 0.19773 0.0
H403 H 0.99108 0.88255 0.23812 0.0
H404 H 0.96435 0.86359 0.22846 0.0
H405 H 0.97983 0.97306 0.12753 0.0
H406 H 0.00282 0.96475 0.16172 0.0
H407 H 0.00257 0.94947 0.11633 0.0
H408 H 0.05893 0.92825 0.2401 0.0
H409 H 0.05965 0.88792 0.13408 0.0
H410 H 0.997 0.92616 0.25617 0.0
H411 H 0.00123 0.95523 0.23039 0.0
H412 H 0.02327 0.9459 0.26547 0.0
H413 H 0.9977 0.87467 0.12861 0.0
H414 H 0.02463 0.87741 0.1006 0.0
H415 H 0.00301 0.90332 0.10215 0.0
C416 C 0.38167 0.70636 0.40212 0.0
C417 C 0.36507 0.68793 0.38896 0.0
C418 C 0.38022 0.73207 0.39035 0.0
C419 C 0.3613 0.73959 0.3657 0.0
C420 C 0.34395 0.72123 0.35344 0.0
C421 C 0.34626 0.69548 0.36478 0.0
C422 C 0.39937 0.75099 0.40333 0.0
C423 C 0.32314 0.7287 0.32804 0.0
C424 C 0.34929 0.81151 0.36089 0.0
C425 C 0.36072 0.81798 0.32717 0.0
C426 C 0.34855 0.78586 0.37314 0.0
C427 C 0.36025 0.76648 0.35173 0.0
C428 C 0.37174 0.77294 0.31754 0.0
C429 C 0.3715 0.7986 0.30536 0.0
C430 C 0.33547 0.77955 0.40911 0.0
C431 C 0.38492 0.7529 0.29443 0.0
H432 H 0.39634 0.70048 0.42055 0.0
H433 H 0.33329 0.68125 0.35484 0.0
H434 H 0.40905 0.75874 0.37858 0.0
H435 H 0.39089 0.76757 0.41803 0.0
H436 H 0.4128 0.74206 0.42264 0.0
H437 H 0.31022 0.71255 0.32339 0.0
H438 H 0.31322 0.7453 0.34036 0.0
H439 H 0.3301 0.73489 0.30032 0.0
H440 H 0.34075 0.82651 0.37756 0.0
H441 H 0.38051 0.80368 0.27942 0.0
H442 H 0.34855 0.77254 0.43052 0.0
H443 H 0.32221 0.76383 0.40394 0.0
H444 H 0.3258 0.79651 0.42092 0.0
H445 H 0.39962 0.74422 0.31156 0.0
H446 H 0.3929 0.76111 0.26851 0.0
H447 H 0.3724 0.7371 0.28619 0.0
C448 C 0.55033 0.10534 0.66801 0.0
C449 C 0.56082 0.08654 0.64484 0.0
C450 C 0.52521 0.10542 0.67409 0.0
C451 C 0.51062 0.0862 0.65664 0.0
C452 C 0.5218 0.06516 0.63805 0.0
C453 C 0.54678 0.06577 0.63194 0.0
C454 C 0.51408 0.12785 0.6949 0.0
C455 C 0.50708 0.04383 0.62001 0.0
C456 C 0.44158 0.08497 0.65931 0.0
C457 C 0.43603 0.09678 0.62488 0.0
C458 C 0.46582 0.08216 0.67124 0.0
C459 C 0.4847 0.0916 0.64827 0.0
C460 C 0.47894 0.10469 0.6145 0.0
C461 C 0.4548 0.10697 0.60324 0.0
C462 C 0.47114 0.06811 0.70739 0.0
C463 C 0.49834 0.11549 0.58926 0.0
H464 H 0.56123 0.12142 0.67799 0.0
H465 H 0.55503 0.05111 0.61428 0.0
H466 H 0.50763 0.14229 0.67422 0.0
H467 H 0.49829 0.12154 0.71159 0.0
H468 H 0.5274 0.1374 0.71398 0.0
H469 H 0.51837 0.02669 0.61344 0.0
H470 H 0.4921 0.03788 0.63864 0.0
H471 H 0.49899 0.0509 0.59332 0.0
H472 H 0.42711 0.07714 0.6762 0.0
H473 H 0.45061 0.11662 0.577 0.0
H474 H 0.48676 0.07682 0.7226 0.0
H475 H 0.47583 0.04779 0.70074 0.0
H476 H 0.45524 0.06806 0.72632 0.0
H477 H 0.51053 0.12846 0.60558 0.0
H478 H 0.4907 0.1265 0.56523 0.0
H479 H 0.50949 0.09953 0.57776 0.0
C480 C 0.86878 0.19153 0.8616 0.0
C481 C 0.85244 0.17722 0.88283 0.0
C482 C 0.86714 0.21846 0.86034 0.0
C483 C 0.84822 0.23107 0.87985 0.0
C484 C 0.83047 0.21636 0.89863 0.0
C485 C 0.83312 0.18951 0.90065 0.0
C486 C 0.88682 0.23345 0.84092 0.0
C487 C 0.80956 0.22907 0.91854 0.0
C488 C 0.86458 0.29591 0.92186 0.0
C489 C 0.8555 0.31301 0.8948 0.0
C490 C 0.86186 0.26926 0.91752 0.0
C491 C 0.84936 0.25938 0.88565 0.0
C492 C 0.83931 0.27648 0.85889 0.0
C493 C 0.84272 0.30317 0.86358 0.0
C494 C 0.87312 0.25165 0.94652 0.0
C495 C 0.82538 0.26657 0.82506 0.0
H496 H 0.88378 0.18179 0.84809 0.0
H497 H 0.82045 0.17818 0.91683 0.0
H498 H 0.87891 0.24821 0.82207 0.0
H499 H 0.89796 0.24375 0.86237 0.0
H500 H 0.89888 0.22076 0.82412 0.0
H501 H 0.79513 0.21498 0.92543 0.0
H502 H 0.81606 0.23807 0.94517 0.0
H503 H 0.80166 0.24458 0.90095 0.0
H504 H 0.87454 0.3033 0.94602 0.0
H505 H 0.83547 0.31629 0.84272 0.0
H506 H 0.88665 0.23892 0.93287 0.0
H507 H 0.85909 0.23906 0.95891 0.0
H508 H 0.8822 0.26249 0.96971 0.0
H509 H 0.8378 0.25627 0.80573 0.0
H510 H 0.81645 0.28238 0.80925 0.0
H511 H 0.81141 0.25253 0.83392 0.0
C512 C 0.62808 0.69148 0.30584 0.0
C513 C 0.63741 0.67212 0.32911 0.0
C514 C 0.62802 0.71735 0.3176 0.0
C515 C 0.63817 0.72409 0.35305 0.0
C516 C 0.64824 0.7047 0.37623 0.0
C517 C 0.64742 0.67885 0.36421 0.0
C518 C 0.61659 0.73739 0.29247 0.0
C519 C 0.65983 0.71125 0.41372 0.0
C520 C 0.65409 0.79491 0.3656 0.0
C521 C 0.63464 0.8038 0.38715 0.0
C522 C 0.65601 0.76876 0.35555 0.0
C523 C 0.63756 0.75137 0.3662 0.0
C524 C 0.61793 0.76029 0.38811 0.0
C525 C 0.61692 0.78636 0.39885 0.0
C526 C 0.67758 0.75983 0.33317 0.0
C527 C 0.59755 0.74252 0.39909 0.0
H528 H 0.62017 0.68629 0.2788 0.0
H529 H 0.65486 0.66392 0.38208 0.0
H530 H 0.60164 0.74716 0.30758 0.0
H531 H 0.63005 0.75239 0.28525 0.0
H532 H 0.60928 0.72891 0.26591 0.0
H533 H 0.6681 0.69413 0.42733 0.0
H534 H 0.67403 0.72613 0.40995 0.0
H535 H 0.64614 0.71949 0.43302 0.0
H536 H 0.66788 0.80841 0.35677 0.0
H537 H 0.60174 0.79331 0.41519 0.0
H538 H 0.67165 0.75328 0.30477 0.0
H539 H 0.68627 0.74313 0.34717 0.0
H540 H 0.69128 0.77532 0.32983 0.0
H541 H 0.58865 0.73462 0.37337 0.0
H542 H 0.5837 0.75246 0.41642 0.0
H543 H 0.60472 0.72592 0.4152 0.0
C544 C 0.84658 0.69262 0.13581 0.0
C545 C 0.86814 0.68195 0.12244 0.0
C546 C 0.84379 0.71951 0.13849 0.0
C547 C 0.86331 0.73576 0.12853 0.0
C548 C 0.88558 0.72485 0.11724 0.0
C549 C 0.88759 0.69807 0.11379 0.0
C550 C 0.81965 0.73049 0.1499 0.0
C551 C 0.90703 0.74147 0.10734 0.0
C552 C 0.85589 0.80232 0.08781 0.0
C553 C 0.86252 0.81799 0.11847 0.0
C554 C 0.85431 0.77552 0.09157 0.0
C555 C 0.86017 0.76411 0.12657 0.0
C556 C 0.8659 0.77991 0.15806 0.0
C557 C 0.86673 0.80678 0.15372 0.0
C558 C 0.84753 0.75934 0.05755 0.0
C559 C 0.87266 0.76842 0.19562 0.0
H560 H 0.83154 0.68002 0.14233 0.0
H561 H 0.90436 0.68966 0.10388 0.0
H562 H 0.82201 0.74566 0.17179 0.0
H563 H 0.81095 0.73968 0.12515 0.0
H564 H 0.80728 0.71542 0.16077 0.0
H565 H 0.9237 0.72992 0.10295 0.0
H566 H 0.90309 0.75224 0.08112 0.0
H567 H 0.91056 0.75588 0.12998 0.0
H568 H 0.85223 0.81103 0.06069 0.0
H569 H 0.87185 0.81891 0.17747 0.0
H570 H 0.83365 0.74484 0.06507 0.0
H571 H 0.86366 0.74869 0.04747 0.0
H572 H 0.84046 0.77124 0.03403 0.0
H573 H 0.85943 0.75343 0.20381 0.0
H574 H 0.87368 0.78325 0.21831 0.0
H575 H 0.89057 0.75891 0.19337 0.0
C576 C 0.65588 0.29515 0.67668 0.0
C577 C 0.64616 0.31427 0.65327 0.0
C578 C 0.65492 0.26901 0.66621 0.0
C579 C 0.64369 0.26179 0.63175 0.0
C580 C 0.63456 0.28104 0.60746 0.0
C581 C 0.63605 0.30706 0.61839 0.0
C582 C 0.6652 0.24906 0.69262 0.0
C583 C 0.62227 0.27409 0.57064 0.0
C584 C 0.65374 0.194 0.59323 0.0
C585 C 0.63317 0.18131 0.60633 0.0
C586 C 0.65743 0.22032 0.6011 0.0
C587 C 0.64001 0.23405 0.62236 0.0
C588 C 0.61903 0.22119 0.63517 0.0
C589 C 0.61595 0.19487 0.62716 0.0
C590 C 0.68009 0.23331 0.5873 0.0
C591 C 0.59996 0.23517 0.65768 0.0
H592 H 0.66395 0.30058 0.7035 0.0
H593 H 0.62843 0.32167 0.60015 0.0
H594 H 0.65035 0.23703 0.70388 0.0
H595 H 0.67764 0.23598 0.67726 0.0
H596 H 0.67516 0.25794 0.7167 0.0
H597 H 0.61756 0.29139 0.55383 0.0
H598 H 0.6341 0.26142 0.55351 0.0
H599 H 0.60544 0.26317 0.5763 0.0
H600 H 0.66711 0.18321 0.57743 0.0
H601 H 0.60015 0.18477 0.63741 0.0
H602 H 0.69078 0.24071 0.61164 0.0
H603 H 0.67533 0.25012 0.5696 0.0
H604 H 0.69164 0.22002 0.57061 0.0
H605 H 0.60794 0.24259 0.68439 0.0
H606 H 0.58439 0.22254 0.66454 0.0
H607 H 0.59318 0.25203 0.64173 0.0
C608 C 0.05397 0.39208 0.82176 0.0
C609 C 0.06356 0.41092 0.84608 0.0
C610 C 0.02889 0.39082 0.8149 0.0
C611 C 0.01341 0.40882 0.83281 0.0
C612 C 0.0236 0.43013 0.85241 0.0
C613 C 0.04858 0.43079 0.85911 0.0
C614 C 0.01883 0.36832 0.79268 0.0
C615 C 0.0079 0.45026 0.87098 0.0
C616 C 0.9444 0.40742 0.83004 0.0
C617 C 0.93954 0.39477 0.86398 0.0
C618 C 0.9684 0.4111 0.81801 0.0
C619 C 0.98779 0.40182 0.84047 0.0
C620 C 0.98274 0.38767 0.87349 0.0
C621 C 0.95879 0.38442 0.88479 0.0
C622 C 0.9729 0.42604 0.78246 0.0
C623 C 0.00271 0.37699 0.89816 0.0
H624 H 0.06555 0.37673 0.81151 0.0
H625 H 0.0561 0.44557 0.87754 0.0
H626 H 0.01326 0.35295 0.8124 0.0
H627 H 0.00265 0.37411 0.77614 0.0
H628 H 0.03253 0.36013 0.77325 0.0
H629 H 0.01839 0.46778 0.87886 0.0
H630 H 0.99279 0.45591 0.8521 0.0
H631 H 0.99996 0.44213 0.89697 0.0
H632 H 0.92957 0.41537 0.81373 0.0
H633 H 0.95515 0.37414 0.91062 0.0
H634 H 0.98907 0.41878 0.76742 0.0
H635 H 0.97615 0.44659 0.78983 0.0
H636 H 0.95705 0.42512 0.76311 0.0
H637 H 0.01513 0.36487 0.88121 0.0
H638 H 0.99564 0.36513 0.92159 0.0
H639 H 0.01347 0.39308 0.91048 0.0
C640 C 0.55019 0.56838 0.33078 0.0
C641 C 0.55999 0.58479 0.30365 0.0
C642 C 0.52531 0.5683 0.33815 0.0
C643 C 0.50995 0.5856 0.31868 0.0
C644 C 0.51953 0.60108 0.28962 0.0
C645 C 0.54445 0.60027 0.28215 0.0
C646 C 0.51578 0.55103 0.36872 0.0
C647 C 0.50392 0.62013 0.26865 0.0
C648 C 0.44182 0.5814 0.33451 0.0
C649 C 0.43907 0.59837 0.36509 0.0
C650 C 0.46476 0.5771 0.3186 0.0
C651 C 0.48515 0.59058 0.33313 0.0
C652 C 0.48216 0.60844 0.36306 0.0
C653 C 0.45929 0.61188 0.37885 0.0
C654 C 0.46734 0.55761 0.28714 0.0
C655 C 0.50325 0.62368 0.37895 0.0
H656 H 0.56213 0.55616 0.34716 0.0
H657 H 0.55197 0.61308 0.26125 0.0
H658 H 0.51167 0.56279 0.39411 0.0
H659 H 0.49874 0.54153 0.35949 0.0
H660 H 0.52905 0.53593 0.37677 0.0
H661 H 0.5131 0.62778 0.24334 0.0
H662 H 0.48656 0.61115 0.25984 0.0
H663 H 0.49958 0.63657 0.2876 0.0
H664 H 0.42622 0.5709 0.32387 0.0
H665 H 0.45719 0.62535 0.40211 0.0
H666 H 0.47858 0.54123 0.29695 0.0
H667 H 0.47677 0.56633 0.26287 0.0
H668 H 0.44958 0.54999 0.27736 0.0
H669 H 0.51652 0.6104 0.39207 0.0
H670 H 0.49756 0.63802 0.40053 0.0
H671 H 0.51267 0.63402 0.35606 0.0
C672 C 0.55429 0.41643 0.70816 0.0
C673 C 0.5665 0.3981 0.68631 0.0
C674 C 0.52908 0.41939 0.70473 0.0
C675 C 0.51594 0.40307 0.67974 0.0
C676 C 0.52824 0.38367 0.65915 0.0
C677 C 0.55342 0.38174 0.66221 0.0
C678 C 0.5167 0.44069 0.72638 0.0
C679 C 0.5149 0.36541 0.63295 0.0
C680 C 0.44774 0.39449 0.68119 0.0
C681 C 0.44101 0.40765 0.64841 0.0
C682 C 0.47202 0.39398 0.69323 0.0
C683 C 0.48974 0.40735 0.67233 0.0
C684 C 0.48262 0.4223 0.64096 0.0
C685 C 0.4584 0.42205 0.62917 0.0
C686 C 0.47892 0.37759 0.72656 0.0
C687 C 0.50083 0.43728 0.61833 0.0
H688 H 0.56456 0.42913 0.72665 0.0
H689 H 0.56297 0.36742 0.64561 0.0
H690 H 0.51 0.45548 0.70642 0.0
H691 H 0.50077 0.43308 0.74152 0.0
H692 H 0.52903 0.45019 0.74706 0.0
H693 H 0.52678 0.34986 0.62197 0.0
H694 H 0.49945 0.35642 0.64771 0.0
H695 H 0.50744 0.37625 0.60869 0.0
H696 H 0.43435 0.38327 0.69606 0.0
H697 H 0.45317 0.43254 0.60407 0.0
H698 H 0.49148 0.38816 0.74565 0.0
H699 H 0.48848 0.36007 0.71648 0.0
H700 H 0.46286 0.37145 0.74287 0.0
H701 H 0.5129 0.44863 0.63725 0.0
H702 H 0.492 0.45061 0.59811 0.0
H703 H 0.51233 0.42366 0.60219 0.0
C704 C 0.0475 0.57547 0.10614 0.0
C705 C 0.06528 0.58269 0.13256 0.0
C706 C 0.02311 0.57404 0.11604 0.0
C707 C 0.0162 0.57961 0.15356 0.0
C708 C 0.03426 0.58429 0.18128 0.0
C709 C 0.05866 0.58594 0.17041 0.0
C710 C 0.00458 0.56876 0.08544 0.0
C711 C 0.02776 0.58937 0.22183 0.0
C712 C 0.95612 0.61313 0.14881 0.0
C713 C 0.94024 0.5922 0.15058 0.0
C714 C 0.98102 0.60976 0.15411 0.0
C715 C 0.99019 0.58475 0.16127 0.0
C716 C 0.97386 0.56412 0.16742 0.0
C717 C 0.94893 0.56803 0.16154 0.0
C718 C 0.99761 0.63241 0.1475 0.0
C719 C 0.98282 0.53741 0.17655 0.0
H720 H 0.05248 0.57227 0.07699 0.0
H721 H 0.07229 0.59121 0.19117 0.0
H722 H 0.99204 0.55324 0.09412 0.0
H723 H 0.99363 0.58637 0.08051 0.0
H724 H 0.01304 0.56296 0.05838 0.0
H725 H 0.04323 0.58528 0.24099 0.0
H726 H 0.02281 0.60997 0.22538 0.0
H727 H 0.01203 0.57755 0.23042 0.0
H728 H 0.94926 0.63178 0.14013 0.0
H729 H 0.93657 0.55181 0.16265 0.0
H730 H 0.00691 0.6298 0.12013 0.0
H731 H 0.0117 0.63359 0.16979 0.0
H732 H 0.98763 0.65099 0.14683 0.0
H733 H 0.98813 0.52741 0.15016 0.0
H734 H 0.96855 0.52575 0.19025 0.0
H735 H 0.99895 0.53825 0.1953 0.0
C736 C 0.15689 0.52572 0.06776 0.0
C737 C 0.14443 0.54904 0.06401 0.0
C738 C 0.15558 0.50674 0.03952 0.0
C739 C 0.14069 0.51086 0.00753 0.0
C740 C 0.12766 0.53422 0.00399 0.0
C741 C 0.1301 0.55331 0.03199 0.0
C742 C 0.17034 0.48242 0.04376 0.0
C743 C 0.11091 0.53888 0.97098 0.0
C744 C 0.15395 0.471 0.92013 0.0
C745 C 0.1387 0.44978 0.92525 0.0
C746 C 0.15459 0.49126 0.9465 0.0
C747 C 0.1389 0.49063 0.97784 0.0
C748 C 0.12256 0.46983 0.98198 0.0
C749 C 0.12304 0.44932 0.95603 0.0
C750 C 0.17282 0.51267 0.94179 0.0
C751 C 0.10493 0.46895 0.01423 0.0
H752 H 0.1681 0.52255 0.09247 0.0
H753 H 0.12033 0.57131 0.02926 0.0
H754 H 0.1582 0.46543 0.04518 0.0
H755 H 0.18208 0.4797 0.01883 0.0
H756 H 0.1819 0.48279 0.06946 0.0
H757 H 0.1013 0.55762 0.97329 0.0
H758 H 0.12127 0.53863 0.94436 0.0
H759 H 0.09731 0.52317 0.969 0.0
H760 H 0.1662 0.47117 0.89642 0.0
H761 H 0.11115 0.43294 0.95981 0.0
H762 H 0.18566 0.51269 0.96595 0.0
H763 H 0.16364 0.53167 0.94173 0.0
H764 H 0.18328 0.51063 0.91534 0.0
H765 H 0.1149 0.4662 0.04112 0.0
H766 H 0.09161 0.45304 0.01092 0.0
H767 H 0.09501 0.48749 0.01647 0.0
C768 C 0.71346 0.8673 0.31536 0.0
C769 C 0.6939 0.88316 0.30595 0.0
C770 C 0.73477 0.86775 0.29421 0.0
C771 C 0.73683 0.88529 0.26403 0.0
C772 C 0.71702 0.90133 0.25442 0.0
C773 C 0.69555 0.89968 0.27511 0.0
C774 C 0.75511 0.84962 0.30436 0.0
C775 C 0.7188 0.92083 0.22317 0.0
C776 C 0.80033 0.90512 0.23602 0.0
C777 C 0.80304 0.89171 0.20199 0.0
C778 C 0.77871 0.90343 0.25637 0.0
C779 C 0.75986 0.88719 0.24294 0.0
C780 C 0.76294 0.87293 0.20918 0.0
C781 C 0.78435 0.87577 0.18871 0.0
C782 C 0.7758 0.91951 0.29166 0.0
C783 C 0.74365 0.8547 0.19468 0.0
H784 H 0.71201 0.85446 0.33922 0.0
H785 H 0.68043 0.91215 0.26828 0.0
H786 H 0.76085 0.83855 0.27909 0.0
H787 H 0.771 0.8608 0.31448 0.0
H788 H 0.74987 0.8358 0.32664 0.0
H789 H 0.70184 0.93204 0.21955 0.0
H790 H 0.73383 0.93446 0.22928 0.0
H791 H 0.72298 0.91101 0.19615 0.0
H792 H 0.81476 0.91762 0.24601 0.0
H793 H 0.7866 0.86526 0.16246 0.0
H794 H 0.77256 0.90686 0.31616 0.0
H795 H 0.75979 0.93227 0.28875 0.0
H796 H 0.79193 0.93165 0.29775 0.0
H797 H 0.73882 0.84068 0.21688 0.0
H798 H 0.74951 0.84385 0.16924 0.0
H799 H 0.72702 0.86561 0.18755 0.0
C800 C 0.35046 0.47734 0.59012 0.0
C801 C 0.36551 0.45589 0.58572 0.0
C802 C 0.35103 0.49758 0.56414 0.0
C803 C 0.36784 0.49672 0.53422 0.0
C804 C 0.38408 0.47574 0.53114 0.0
C805 C 0.38226 0.4552 0.5564 0.0
C806 C 0.33279 0.51911 0.56748 0.0
C807 C 0.40289 0.47461 0.50056 0.0
C808 C 0.35227 0.53059 0.44315 0.0
C809 C 0.36434 0.55415 0.44775 0.0
C810 C 0.35306 0.51188 0.47135 0.0
C811 C 0.36699 0.51653 0.50431 0.0
C812 C 0.37982 0.54003 0.5086 0.0
C813 C 0.37797 0.55883 0.48046 0.0
C814 C 0.33862 0.48734 0.46614 0.0
C815 C 0.39556 0.5452 0.54272 0.0
H816 H 0.33737 0.47763 0.61271 0.0
H817 H 0.39394 0.4386 0.55316 0.0
H818 H 0.34204 0.53809 0.56808 0.0
H819 H 0.32066 0.51887 0.54243 0.0
H820 H 0.32155 0.5174 0.59315 0.0
H821 H 0.41626 0.45897 0.50537 0.0
H822 H 0.39397 0.47118 0.4729 0.0
H823 H 0.41268 0.49325 0.49885 0.0
H824 H 0.34157 0.5271 0.41791 0.0
H825 H 0.38745 0.57702 0.48377 0.0
H826 H 0.32607 0.48486 0.4901 0.0
H827 H 0.35089 0.47044 0.46585 0.0
H828 H 0.32792 0.48724 0.43955 0.0
H829 H 0.38438 0.54548 0.56851 0.0
H830 H 0.40534 0.56387 0.54081 0.0
H831 H 0.40901 0.52948 0.54601 0.0
C832 C 0.69889 0.11794 0.72243 0.0
C833 C 0.69615 0.10395 0.68884 0.0
C834 C 0.7211 0.11795 0.74194 0.0
C835 C 0.74053 0.10286 0.72811 0.0
C836 C 0.73764 0.08851 0.69436 0.0
C837 C 0.71561 0.08959 0.67482 0.0
C838 C 0.72378 0.13404 0.77732 0.0
C839 C 0.75757 0.07143 0.67943 0.0
C840 C 0.80503 0.11446 0.76204 0.0
C841 C 0.80676 0.09676 0.79147 0.0
C842 C 0.78338 0.11703 0.74145 0.0
C843 C 0.76347 0.10088 0.74987 0.0
C844 C 0.76556 0.08234 0.77876 0.0
C845 C 0.78706 0.08085 0.79966 0.0
C846 C 0.78155 0.13745 0.71148 0.0
C847 C 0.74509 0.06412 0.7877 0.0
H848 H 0.68386 0.12919 0.73301 0.0
H849 H 0.71337 0.07857 0.64895 0.0
H850 H 0.72668 0.12132 0.80191 0.0
H851 H 0.73988 0.14673 0.77523 0.0
H852 H 0.70763 0.14621 0.78269 0.0
H853 H 0.75236 0.06152 0.65274 0.0
H854 H 0.7741 0.08297 0.67441 0.0
H855 H 0.76227 0.0566 0.70064 0.0
H856 H 0.82022 0.12702 0.75623 0.0
H857 H 0.78851 0.06715 0.8225 0.0
H858 H 0.76655 0.15089 0.71821 0.0
H859 H 0.77728 0.12844 0.68381 0.0
H860 H 0.79852 0.14875 0.70886 0.0
H861 H 0.72916 0.07519 0.79751 0.0
H862 H 0.75012 0.04999 0.80978 0.0
H863 H 0.7395 0.05337 0.76193 0.0
C864 C 0.84752 0.45114 0.95843 0.0
C865 C 0.86481 0.44903 0.93009 0.0
C866 C 0.84884 0.47101 0.9852 0.0
C867 C 0.86854 0.48843 0.98438 0.0
C868 C 0.88645 0.48591 0.95624 0.0
C869 C 0.88408 0.46643 0.92878 0.0
C870 C 0.82894 0.47358 0.01392 0.0
C871 C 0.90815 0.50356 0.95546 0.0
C872 C 0.85802 0.55292 0.0318 0.0
C873 C 0.86645 0.54812 0.06834 0.0
C874 C 0.85912 0.53381 0.00384 0.0
C875 C 0.86974 0.50971 0.01241 0.0
C876 C 0.87947 0.50529 0.04881 0.0
C877 C 0.87726 0.52444 0.07668 0.0
C878 C 0.84782 0.53895 0.96577 0.0
C879 C 0.89166 0.48014 0.05853 0.0
H880 H 0.83263 0.43752 0.9591 0.0
H881 H 0.89756 0.46435 0.90694 0.0
H882 H 0.83647 0.47139 0.04274 0.0
H883 H 0.82075 0.49308 0.0123 0.0
H884 H 0.81444 0.45899 0.00969 0.0
H885 H 0.92109 0.49811 0.93297 0.0
H886 H 0.90227 0.52374 0.95083 0.0
H887 H 0.91771 0.50308 0.98304 0.0
H888 H 0.84958 0.57128 0.02552 0.0
H889 H 0.88406 0.52097 0.10491 0.0
H890 H 0.83244 0.52552 0.96098 0.0
H891 H 0.86108 0.53536 0.94307 0.0
H892 H 0.84106 0.55904 0.96328 0.0
H893 H 0.87804 0.46445 0.05925 0.0
H894 H 0.90096 0.48103 0.08634 0.0
H895 H 0.90507 0.47492 0.03666 0.0
C896 C 0.19845 0.09184 0.76608 0.0
C897 C 0.19597 0.1057 0.79977 0.0
C898 C 0.22013 0.0928 0.74575 0.0
C899 C 0.23931 0.10876 0.75881 0.0
C900 C 0.23637 0.12368 0.792 0.0
C901 C 0.2149 0.12154 0.81252 0.0
C902 C 0.22281 0.07608 0.71104 0.0
C903 C 0.25597 0.1417 0.80601 0.0
C904 C 0.30314 0.09299 0.72684 0.0
C905 C 0.30511 0.10854 0.69501 0.0
C906 C 0.28181 0.09297 0.74813 0.0
C907 C 0.26252 0.10958 0.73794 0.0
C908 C 0.2651 0.12634 0.70693 0.0
C909 C 0.2862 0.1252 0.68534 0.0
C910 C 0.27949 0.07434 0.7804 0.0
C911 C 0.24538 0.14504 0.69604 0.0
H912 H 0.18387 0.07935 0.75659 0.0
H913 H 0.21285 0.13231 0.83859 0.0
H914 H 0.22662 0.08822 0.68619 0.0
H915 H 0.23839 0.06283 0.7147 0.0
H916 H 0.20636 0.06441 0.70504 0.0
H917 H 0.2501 0.15338 0.83064 0.0
H918 H 0.2722 0.13048 0.81425 0.0
H919 H 0.26146 0.15496 0.78319 0.0
H920 H 0.31774 0.07989 0.73386 0.0
H921 H 0.28788 0.13726 0.66065 0.0
H922 H 0.26432 0.06082 0.77467 0.0
H923 H 0.27522 0.08489 0.80678 0.0
H924 H 0.29625 0.06295 0.78496 0.0
H925 H 0.22931 0.13428 0.68566 0.0
H926 H 0.25125 0.15851 0.67368 0.0
H927 H 0.23968 0.15649 0.72097 0.0
C928 C 0.64292 0.54168 0.45249 0.0
C929 C 0.62579 0.54216 0.42344 0.0
C930 C 0.64199 0.52266 0.48033 0.0
C931 C 0.62295 0.50434 0.47956 0.0
C932 C 0.60497 0.50556 0.45101 0.0
C933 C 0.60691 0.52421 0.42272 0.0
C934 C 0.66184 0.52161 0.50969 0.0
C935 C 0.58393 0.48701 0.45008 0.0
C936 C 0.63502 0.44039 0.52743 0.0
C937 C 0.62608 0.44517 0.56356 0.0
C938 C 0.63381 0.4594 0.49956 0.0
C939 C 0.62256 0.48332 0.50777 0.0
C940 C 0.61229 0.48762 0.54368 0.0
C941 C 0.61465 0.46866 0.57146 0.0
C942 C 0.64562 0.45437 0.462 0.0
C943 C 0.59933 0.51244 0.55302 0.0
H944 H 0.6576 0.55557 0.45255 0.0
H945 H 0.59367 0.52482 0.40005 0.0
H946 H 0.65408 0.52327 0.5383 0.0
H947 H 0.67123 0.50273 0.50799 0.0
H948 H 0.67541 0.5372 0.50615 0.0
H949 H 0.5703 0.4922 0.42829 0.0
H950 H 0.5905 0.46721 0.44412 0.0
H951 H 0.57497 0.48664 0.47795 0.0
H952 H 0.64406 0.42226 0.52155 0.0
H953 H 0.60758 0.47221 0.59943 0.0
H954 H 0.6604 0.46851 0.45767 0.0
H955 H 0.63235 0.457 0.4388 0.0
H956 H 0.65326 0.43461 0.4599 0.0
H957 H 0.61246 0.5286 0.55411 0.0
H958 H 0.58995 0.51152 0.58054 0.0
H959 H 0.58584 0.51697 0.53075 0.0
C960 C 0.30601 0.90483 0.25479 0.0
C961 C 0.30711 0.90055 0.29367 0.0
C962 C 0.28386 0.90346 0.23526 0.0
C963 C 0.26247 0.89748 0.25515 0.0
C964 C 0.26363 0.89256 0.29423 0.0
C965 C 0.28592 0.89425 0.31303 0.0
C966 C 0.28324 0.90897 0.19358 0.0
C967 C 0.24127 0.88586 0.31633 0.0
C968 C 0.20162 0.91933 0.21734 0.0
C969 C 0.19338 0.89695 0.19925 0.0
C970 C 0.22439 0.91992 0.23494 0.0
C971 C 0.23869 0.89727 0.2355 0.0
C972 C 0.23003 0.87438 0.21802 0.0
C973 C 0.20758 0.87466 0.19936 0.0
C974 C 0.23328 0.94485 0.25242 0.0
C975 C 0.24438 0.84965 0.21919 0.0
H976 H 0.32236 0.90965 0.23974 0.0
H977 H 0.28667 0.89077 0.34308 0.0
H978 H 0.27511 0.89245 0.17801 0.0
H979 H 0.27168 0.92604 0.18812 0.0
H980 H 0.30153 0.9127 0.1821 0.0
H981 H 0.24548 0.88122 0.34616 0.0
H982 H 0.22844 0.90229 0.31584 0.0
H983 H 0.23192 0.86909 0.30319 0.0
H984 H 0.1906 0.93661 0.21659 0.0
H985 H 0.20098 0.85741 0.18521 0.0
H986 H 0.25084 0.95036 0.23988 0.0
H987 H 0.23638 0.94227 0.28306 0.0
H988 H 0.22029 0.96094 0.24835 0.0
H989 H 0.26201 0.85237 0.20508 0.0
H990 H 0.23469 0.83336 0.20527 0.0
H991 H 0.24827 0.84435 0.24885 0.0
C992 C 0.64846 0.02231 0.5743 0.0
C993 C 0.63299 0.04342 0.56979 0.0
C994 C 0.64794 0.00164 0.54869 0.0
C995 C 0.63079 0.00165 0.51891 0.0
C996 C 0.61432 0.02243 0.51535 0.0
C997 C 0.61604 0.04345 0.54038 0.0
C998 C 0.66643 0.98038 0.55257 0.0
C999 C 0.59517 0.02263 0.48486 0.0
C1000 C 0.64668 0.96396 0.4308 0.0
C1001 C 0.6354 0.94025 0.43738 0.0
C1002 C 0.64518 0.98415 0.45706 0.0
C1003 C 0.63134 0.98081 0.49005 0.0
C1004 C 0.61916 0.95718 0.49617 0.0
C1005 C 0.62172 0.93693 0.47001 0.0
C1006 C 0.65905 0.00875 0.45005 0.0
C1007 C 0.60356 0.95327 0.53038 0.0
H1008 H 0.6617 0.02249 0.59697 0.0
H1009 H 0.604 0.05978 0.53716 0.0
H1010 H 0.6573 0.96143 0.55502 0.0
H1011 H 0.67781 0.97958 0.52697 0.0
H1012 H 0.67841 0.98321 0.57751 0.0
H1013 H 0.58199 0.03855 0.48882 0.0
H1014 H 0.60378 0.02489 0.45697 0.0
H1015 H 0.58524 0.00402 0.48435 0.0
H1016 H 0.65736 0.96644 0.40559 0.0
H1017 H 0.61278 0.91864 0.47481 0.0
H1018 H 0.67211 0.01224 0.47341 0.0
H1019 H 0.64653 0.02543 0.44936 0.0
H1020 H 0.66915 0.00812 0.42312 0.0
H1021 H 0.61494 0.95363 0.55621 0.0
H1022 H 0.5936 0.93466 0.52924 0.0
H1023 H 0.5903 0.96923 0.53292 0.0
C1024 C 0.29855 0.36491 0.71311 0.0
C1025 C 0.30975 0.389 0.71037 0.0
C1026 C 0.27677 0.36217 0.73278 0.0
C1027 C 0.26592 0.38419 0.74938 0.0
C1028 C 0.2775 0.40851 0.74701 0.0
C1029 C 0.29936 0.4106 0.72748 0.0
C1030 C 0.26511 0.3359 0.73504 0.0
C1031 C 0.26646 0.43245 0.76418 0.0
C1032 C 0.19834 0.3857 0.76802 0.0
C1033 C 0.19778 0.38248 0.80715 0.0
C1034 C 0.2204 0.3856 0.74862 0.0
C1035 C 0.24231 0.382 0.76886 0.0
C1036 C 0.24171 0.3777 0.80812 0.0
C1037 C 0.21947 0.37808 0.8268 0.0
C1038 C 0.22035 0.3903 0.70671 0.0
C1039 C 0.26463 0.37353 0.83063 0.0
H1040 H 0.30661 0.34835 0.69923 0.0
H1041 H 0.308 0.42926 0.7246 0.0
H1042 H 0.26162 0.33092 0.76485 0.0
H1043 H 0.24739 0.33614 0.72024 0.0
H1044 H 0.2765 0.32056 0.72229 0.0
H1045 H 0.278 0.44977 0.76042 0.0
H1046 H 0.24854 0.43616 0.75107 0.0
H1047 H 0.26349 0.42961 0.79474 0.0
H1048 H 0.18164 0.38914 0.75272 0.0
H1049 H 0.21915 0.3754 0.85704 0.0
H1050 H 0.23031 0.37471 0.69195 0.0
H1051 H 0.22982 0.40868 0.70072 0.0
H1052 H 0.20175 0.39137 0.6948 0.0
H1053 H 0.27547 0.35778 0.81787 0.0
H1054 H 0.26093 0.36864 0.86045 0.0
H1055 H 0.27586 0.39126 0.83011 0.0
C1056 C 0.85174 0.02136 0.92367 0.0
C1057 C 0.86639 0.0433 0.92561 0.0
C1058 C 0.85197 0.00333 0.95286 0.0
C1059 C 0.86801 0.00692 0.98374 0.0
C1060 C 0.88378 0.02843 0.98471 0.0
C1061 C 0.88235 0.04678 0.95595 0.0
C1062 C 0.83435 0.98106 0.95141 0.0
C1063 C 0.90186 0.03226 0.0163 0.0
C1064 C 0.85091 0.97523 0.07566 0.0
C1065 C 0.8631 0.95169 0.07274 0.0
C1066 C 0.8526 0.99363 0.04703 0.0
C1067 C 0.86754 0.98859 0.01558 0.0
C1068 C 0.88088 0.96537 0.01356 0.0
C1069 C 0.87811 0.94694 0.04185 0.0
C1070 C 0.83761 0.0179 0.04965 0.0
C1071 C 0.89769 0.95977 0.98118 0.0
H1072 H 0.83922 0.019 0.90025 0.0
H1073 H 0.89372 0.06381 0.95711 0.0
H1074 H 0.84423 0.96248 0.95248 0.0
H1075 H 0.82237 0.98185 0.97634 0.0
H1076 H 0.82292 0.98123 0.92556 0.0
H1077 H 0.91446 0.04847 0.01077 0.0
H1078 H 0.89226 0.0363 0.043 0.0
H1079 H 0.91258 0.01441 0.02049 0.0
H1080 H 0.83921 0.97879 0.09952 0.0
H1081 H 0.88771 0.9288 0.03976 0.0
H1082 H 0.82474 0.01864 0.02556 0.0
H1083 H 0.84937 0.03516 0.04787 0.0
H1084 H 0.82719 0.01903 0.07625 0.0
H1085 H 0.88704 0.95691 0.9549 0.0
H1086 H 0.90878 0.94224 0.98605 0.0
H1087 H 0.90997 0.97638 0.97662 0.0
C1088 C 0.21228 0.62514 0.2008 0.0
C1089 C 0.19478 0.60616 0.20709 0.0
C1090 C 0.23329 0.6265 0.22302 0.0
C1091 C 0.23731 0.60774 0.25113 0.0
C1092 C 0.21952 0.58862 0.25778 0.0
C1093 C 0.19818 0.58836 0.23605 0.0
C1094 C 0.25135 0.64777 0.21601 0.0
C1095 C 0.22345 0.56788 0.2868 0.0
C1096 C 0.30273 0.59555 0.27947 0.0
C1097 C 0.3039 0.60773 0.31474 0.0
C1098 C 0.28103 0.5951 0.25864 0.0
C1099 C 0.26034 0.60784 0.27301 0.0
C1100 C 0.26171 0.62081 0.30815 0.0
C1101 C 0.28338 0.62026 0.32885 0.0
C1102 C 0.28012 0.5806 0.22163 0.0
C1103 C 0.24032 0.63533 0.32383 0.0
H1104 H 0.2095 0.63892 0.17834 0.0
H1105 H 0.18472 0.57349 0.24042 0.0
H1106 H 0.2557 0.65803 0.24274 0.0
H1107 H 0.26844 0.63942 0.20526 0.0
H1108 H 0.24456 0.66203 0.19526 0.0
H1109 H 0.20782 0.55448 0.28863 0.0
H1110 H 0.23982 0.55655 0.27962 0.0
H1111 H 0.22664 0.57668 0.31495 0.0
H1112 H 0.31855 0.58569 0.26872 0.0
H1113 H 0.28436 0.62987 0.35604 0.0
H1114 H 0.27546 0.59396 0.19844 0.0
H1115 H 0.26574 0.56567 0.22247 0.0
H1116 H 0.29757 0.57109 0.21495 0.0
H1117 H 0.23398 0.64987 0.30321 0.0
H1118 H 0.2447 0.64532 0.35081 0.0
H1119 H 0.2251 0.62186 0.32865 0.0
C1120 C 0.37536 0.02403 0.57398 0.0
C1121 C 0.36059 0.0448 0.56387 0.0
C1122 C 0.37969 0.0038 0.54838 0.0
C1123 C 0.36818 0.00406 0.51263 0.0
C1124 C 0.35286 0.02485 0.50275 0.0
C1125 C 0.34965 0.04524 0.52827 0.0
C1126 C 0.39684 0.98244 0.55928 0.0
C1127 C 0.33965 0.02546 0.46538 0.0
C1128 C 0.38914 0.967 0.42665 0.0
C1129 C 0.3736 0.94575 0.42714 0.0
C1130 C 0.38888 0.98522 0.45604 0.0
C1131 C 0.37181 0.98263 0.48535 0.0
C1132 C 0.35647 0.96075 0.48625 0.0
C1133 C 0.35792 0.94225 0.45738 0.0
C1134 C 0.40619 0.00771 0.45495 0.0
C1135 C 0.33743 0.95777 0.51619 0.0
H1136 H 0.38403 0.02396 0.60146 0.0
H1137 H 0.33815 0.06135 0.52067 0.0
H1138 H 0.38726 0.96365 0.55893 0.0
H1139 H 0.41165 0.98107 0.53842 0.0
H1140 H 0.40489 0.98553 0.58771 0.0
H1141 H 0.32738 0.04234 0.46299 0.0
H1142 H 0.35282 0.02621 0.44202 0.0
H1143 H 0.32882 0.00759 0.46155 0.0
H1144 H 0.40132 0.96945 0.40314 0.0
H1145 H 0.34577 0.92582 0.45726 0.0
H1146 H 0.41474 0.01079 0.483 0.0
H1147 H 0.39618 0.02556 0.44779 0.0
H1148 H 0.42063 0.00479 0.43375 0.0
H1149 H 0.3456 0.95968 0.54466 0.0
H1150 H 0.32799 0.93888 0.51416 0.0
H1151 H 0.32382 0.97335 0.51327 0.0
C1152 C 0.78401 0.61268 0.1838 0.0
C1153 C 0.80502 0.60198 0.19952 0.0
C1154 C 0.76191 0.61175 0.2028 0.0
C1155 C 0.76063 0.59919 0.23797 0.0
C1156 C 0.78189 0.58869 0.25431 0.0
C1157 C 0.80396 0.59051 0.23506 0.0
C1158 C 0.73985 0.62386 0.18493 0.0
C1159 C 0.78115 0.57476 0.29147 0.0
C1160 C 0.70729 0.61199 0.30225 0.0
C1161 C 0.69187 0.59148 0.29285 0.0
C1162 C 0.72954 0.61505 0.28408 0.0
C1163 C 0.7369 0.5965 0.25705 0.0
C1164 C 0.72137 0.5756 0.24773 0.0
C1165 C 0.69876 0.57363 0.26527 0.0
C1166 C 0.74509 0.63816 0.29368 0.0
C1167 C 0.72885 0.55504 0.21983 0.0
H1168 H 0.78484 0.62176 0.15642 0.0
H1169 H 0.82016 0.58207 0.24709 0.0
H1170 H 0.72638 0.60871 0.17781 0.0
H1171 H 0.73118 0.63739 0.20507 0.0
H1172 H 0.74427 0.63452 0.15883 0.0
H1173 H 0.7993 0.568 0.30062 0.0
H1174 H 0.77373 0.58758 0.31367 0.0
H1175 H 0.76892 0.55783 0.28907 0.0
H1176 H 0.70177 0.62582 0.32358 0.0
H1177 H 0.68685 0.55761 0.25849 0.0
H1178 H 0.7492 0.64909 0.26773 0.0
H1179 H 0.76258 0.63174 0.30582 0.0
H1180 H 0.73624 0.65137 0.31412 0.0
H1181 H 0.73182 0.56374 0.1918 0.0
H1182 H 0.71512 0.53951 0.21686 0.0
H1183 H 0.74624 0.5463 0.22889 0.0
C1184 C 0.15055 0.96128 0.06331 0.0
C1185 C 0.1332 0.94162 0.0639 0.0
C1186 C 0.15146 0.97874 0.03353 0.0
C1187 C 0.13406 0.97701 0.00423 0.0
C1188 C 0.11655 0.95703 0.00449 0.0
C1189 C 0.11659 0.93921 0.03417 0.0
C1190 C 0.17084 -0.00069 0.03382 0.0
C1191 C 0.09731 0.95509 0.97426 0.0
C1192 C 0.12522 0.04142 0.95691 0.0
C1193 C 0.13894 0.03835 0.9242 0.0
C1194 C 0.12205 0.02092 0.98188 0.0
C1195 C 0.13369 0.99711 0.97465 0.0
C1196 C 0.14716 0.99373 0.9412 0.0
C1197 C 0.14929 0.01434 0.916 0.0
C1198 C 0.10698 0.02507 0.01671 0.0
C1199 C 0.16041 0.96889 0.93307 0.0
H1200 H 0.16359 0.9629 0.08616 0.0
H1201 H 0.10313 0.92401 0.03486 0.0
H1202 H 0.18058 -0.00073 0.0066 0.0
H1203 H 0.16245 0.01859 0.03729 0.0
H1204 H 0.18421 0.99657 0.05694 0.0
H1205 H 0.08569 0.93778 0.97762 0.0
H1206 H 0.0857 0.97252 0.97521 0.0
H1207 H 0.1057 0.95439 0.946 0.0
H1208 H 0.117 0.05989 0.96316 0.0
H1209 H 0.15995 0.012 0.89069 0.0
H1210 H 0.11892 0.02576 0.04193 0.0
H1211 H 0.0942 0.0088 0.02042 0.0
H1212 H 0.09652 0.04333 0.01553 0.0
H1213 H 0.17523 0.96643 0.95398 0.0
H1214 H 0.16834 0.96856 0.90441 0.0
H1215 H 0.14811 0.95213 0.93587 0.0
C1216 C 0.70796 0.37486 0.69649 0.0
C1217 C 0.69732 0.39897 0.69077 0.0
C1218 C 0.73002 0.37273 0.71601 0.0
C1219 C 0.74175 0.39535 0.72937 0.0
C1220 C 0.73121 0.41982 0.72271 0.0
C1221 C 0.70894 0.4213 0.70366 0.0
C1222 C 0.74046 0.3463 0.72309 0.0
C1223 C 0.74325 0.44437 0.73622 0.0
C1224 C 0.78296 0.39125 0.81469 0.0
C1225 C 0.80602 0.39204 0.79848 0.0
C1226 C 0.762 0.39184 0.79241 0.0
C1227 C 0.76405 0.39338 0.75283 0.0
C1228 C 0.78725 0.39376 0.73611 0.0
C1229 C 0.80803 0.393 0.75919 0.0
C1230 C 0.73763 0.39121 0.81137 0.0
C1231 C 0.79008 0.3955 0.69397 0.0
H1232 H 0.69886 0.35767 0.68608 0.0
H1233 H 0.70064 0.43992 0.69866 0.0
H1234 H 0.75921 0.34522 0.7123 0.0
H1235 H 0.74135 0.34271 0.75384 0.0
H1236 H 0.72956 0.33074 0.70958 0.0
H1237 H 0.73349 0.46187 0.72659 0.0
H1238 H 0.74406 0.44467 0.76745 0.0
H1239 H 0.76212 0.44522 0.72592 0.0
H1240 H 0.78121 0.39034 0.84504 0.0
H1241 H 0.8258 0.39363 0.74654 0.0
H1242 H 0.72661 0.37505 0.7999 0.0
H1243 H 0.72766 0.40931 0.80545 0.0
H1244 H 0.73918 0.38899 0.84239 0.0
H1245 H 0.78015 0.37949 0.67986 0.0
H1246 H 0.80932 0.39473 0.68528 0.0
H1247 H 0.78206 0.41379 0.68376 0.0
loop_
_geom_bond_atom_site_label_1
_geom_bond_atom_site_label_2
_geom_bond_distance
_geom_bond_site_symmetry_2
_ccdc_geom_bond_type
Co0 O1 2.216 . S
Co0 O2 2.091 . S
Co0 O4 2.004 . S
Co0 O10 2.021 . S
Co0 O12 2.137 . S
Co0 O13 2.244 . S
O1 Co0 2.216 . S
O1 C8 1.247 . S
O2 Co0 2.091 . S
O2 C8 1.261 . S
C3 O12 1.247 . S
C3 O13 1.272 . S
O4 Co0 2.004 . S
O4 C9 1.259 . S
Co5 O6 2.061 . S
Co5 O11 2.052 . S
Co5 O13 2.135 . S
O6 Co5 2.061 . S
O6 C9 1.235 . S
C7 O10 1.238 . S
C7 O11 1.241 . S
C8 O1 1.247 . S
C8 O2 1.261 . S
C9 O4 1.259 . S
C9 O6 1.235 . S
O10 Co0 2.021 . S
O10 C7 1.238 . S
O11 Co5 2.052 . S
O11 C7 1.241 . S
O12 Co0 2.137 . S
O12 C3 1.247 . S
O13 Co0 2.244 . S
O13 C3 1.272 . S
O13 Co5 2.135 . S
Co14 O15 2.216 . S
Co14 O16 2.091 . S
Co14 O18 2.004 . S
Co14 O24 2.021 . S
Co14 O26 2.137 . S
Co14 O27 2.244 . S
O15 Co14 2.216 . S
O15 C22 1.247 . S
O16 Co14 2.091 . S
O16 C22 1.261 . S
C17 O26 1.247 . S
C17 O27 1.272 . S
O18 Co14 2.004 . S
O18 C23 1.259 . S
Co19 O20 2.061 . S
Co19 O25 2.052 . S
Co19 O27 2.135 . S
O20 Co19 2.061 . S
O20 C23 1.235 . S
C21 O24 1.238 . S
C21 O25 1.241 . S
C22 O15 1.247 . S
C22 O16 1.261 . S
C23 O18 1.259 . S
C23 O20 1.235 . S
O24 Co14 2.021 . S
O24 C21 1.238 . S
O25 Co19 2.052 . S
O25 C21 1.241 . S
O26 Co14 2.137 . S
O26 C17 1.247 . S
O27 Co14 2.244 . S
O27 C17 1.272 . S
O27 Co19 2.135 . S
Co28 O29 2.216 . S
Co28 O30 2.091 . S
Co28 O32 2.004 . S
Co28 O38 2.021 . S
Co28 O40 2.137 . S
Co28 O41 2.244 . S
O29 Co28 2.216 . S
O29 C36 1.247 . S
O30 Co28 2.091 . S
O30 C36 1.261 . S
C31 O40 1.247 . S
C31 O41 1.272 . S
O32 Co28 2.004 . S
O32 C37 1.259 . S
Co33 O34 2.061 . S
Co33 O39 2.052 . S
Co33 O41 2.135 . S
O34 Co33 2.061 . S
O34 C37 1.235 . S
C35 O38 1.238 . S
C35 O39 1.241 . S
C36 O29 1.247 . S
C36 O30 1.261 . S
C37 O32 1.259 . S
C37 O34 1.235 . S
O38 Co28 2.021 . S
O38 C35 1.238 . S
O39 Co33 2.052 . S
O39 C35 1.241 . S
O40 Co28 2.137 . S
O40 C31 1.247 . S
O41 Co28 2.244 . S
O41 C31 1.272 . S
O41 Co33 2.135 . S
Co42 O43 2.216 . S
Co42 O44 2.091 . S
Co42 O46 2.004 . S
Co42 O52 2.021 . S
Co42 O54 2.137 . S
Co42 O55 2.244 . S
O43 Co42 2.216 . S
O43 C50 1.247 . S
O44 Co42 2.091 . S
O44 C50 1.261 . S
C45 O54 1.247 . S
C45 O55 1.272 . S
O46 Co42 2.004 . S
O46 C51 1.259 . S
Co47 O48 2.061 . S
Co47 O53 2.052 . S
Co47 O55 2.135 . S
O48 Co47 2.061 . S
O48 C51 1.235 . S
C49 O52 1.238 . S
C49 O53 1.241 . S
C50 O43 1.247 . S
C50 O44 1.261 . S
C51 O46 1.259 . S
C51 O48 1.235 . S
O52 Co42 2.021 . S
O52 C49 1.238 . S
O53 Co47 2.052 . S
O53 C49 1.241 . S
O54 Co42 2.137 . S
O54 C45 1.247 . S
O55 Co42 2.244 . S
O55 C45 1.272 . S
O55 Co47 2.135 . S
Co56 O57 2.216 . S
Co56 O58 2.091 . S
Co56 O60 2.004 . S
Co56 O66 2.021 . S
Co56 O68 2.137 . S
Co56 O69 2.244 . S
O57 Co56 2.216 . S
O57 C64 1.247 . S
O58 Co56 2.091 . S
O58 C64 1.261 . S
C59 O68 1.247 . S
C59 O69 1.272 . S
O60 Co56 2.004 . S
O60 C65 1.259 . S
Co61 O62 2.061 . S
Co61 O67 2.052 . S
Co61 O69 2.135 . S
O62 Co61 2.061 . S
O62 C65 1.235 . S
C63 O66 1.238 . S
C63 O67 1.241 . S
C64 O57 1.247 . S
C64 O58 1.261 . S
C65 O60 1.259 . S
C65 O62 1.235 . S
O66 Co56 2.021 . S
O66 C63 1.238 . S
O67 Co61 2.052 . S
O67 C63 1.241 . S
O68 Co56 2.137 . S
O68 C59 1.247 . S
O69 Co56 2.244 . S
O69 C59 1.272 . S
O69 Co61 2.135 . S
Co70 O71 2.216 . S
Co70 O72 2.091 . S
Co70 O74 2.004 . S
Co70 O80 2.021 . S
Co70 O82 2.137 . S
Co70 O83 2.244 . S
O71 Co70 2.216 . S
O71 C78 1.247 . S
O72 Co70 2.091 . S
O72 C78 1.261 . S
C73 O82 1.247 . S
C73 O83 1.272 . S
O74 Co70 2.004 . S
O74 C79 1.259 . S
Co75 O76 2.061 . S
Co75 O81 2.052 . S
Co75 O83 2.135 . S
O76 Co75 2.061 . S
O76 C79 1.235 . S
C77 O80 1.238 . S
C77 O81 1.241 . S
C78 O71 1.247 . S
C78 O72 1.261 . S
C79 O74 1.259 . S
C79 O76 1.235 . S
O80 Co70 2.021 . S
O80 C77 1.238 . S
O81 Co75 2.052 . S
O81 C77 1.241 . S
O82 Co70 2.137 . S
O82 C73 1.247 . S
O83 Co70 2.244 . S
O83 C73 1.272 . S
O83 Co75 2.135 . S
Co84 O85 2.216 . S
Co84 O86 2.091 . S
Co84 O88 2.004 . S
Co84 O94 2.021 . S
Co84 O96 2.137 . S
Co84 O97 2.244 . S
O85 Co84 2.216 . S
O85 C92 1.247 . S
O86 Co84 2.091 . S
O86 C92 1.261 . S
C87 O96 1.247 . S
C87 O97 1.272 . S
O88 Co84 2.004 . S
O88 C93 1.259 . S
Co89 O90 2.061 . S
Co89 O95 2.052 . S
Co89 O97 2.135 . S
O90 Co89 2.061 . S
O90 C93 1.235 . S
C91 O94 1.238 . S
C91 O95 1.241 . S
C92 O85 1.247 . S
C92 O86 1.261 . S
C93 O88 1.259 . S
C93 O90 1.235 . S
O94 Co84 2.021 . S
O94 C91 1.238 . S
O95 Co89 2.052 . S
O95 C91 1.241 . S
O96 Co84 2.137 . S
O96 C87 1.247 . S
O97 Co84 2.244 . S
O97 C87 1.272 . S
O97 Co89 2.135 . S
Co98 O99 2.216 . S
Co98 O100 2.091 . S
Co98 O102 2.004 . S
Co98 O108 2.021 . S
Co98 O110 2.137 . S
Co98 O111 2.244 . S
O99 Co98 2.216 . S
O99 C106 1.247 . S
O100 Co98 2.091 . S
O100 C106 1.261 . S
C101 O110 1.247 . S
C101 O111 1.272 . S
O102 Co98 2.004 . S
O102 C107 1.259 . S
Co103 O104 2.061 . S
Co103 O109 2.052 . S
Co103 O111 2.135 . S
O104 Co103 2.061 . S
O104 C107 1.235 . S
C105 O108 1.238 . S
C105 O109 1.241 . S
C106 O99 1.247 . S
C106 O100 1.261 . S
C107 O102 1.259 . S
C107 O104 1.235 . S
O108 Co98 2.021 . S
O108 C105 1.238 . S
O109 Co103 2.052 . S
O109 C105 1.241 . S
O110 Co98 2.137 . S
O110 C101 1.247 . S
O111 Co98 2.244 . S
O111 C101 1.272 . S
O111 Co103 2.135 . S
Co112 O113 2.216 . S
Co112 O114 2.091 . S
Co112 O116 2.004 . S
Co112 O122 2.021 . S
Co112 O124 2.137 . S
Co112 O125 2.244 . S
O113 Co112 2.216 . S
O113 C120 1.247 . S
O114 Co112 2.091 . S
O114 C120 1.261 . S
C115 O124 1.247 . S
C115 O125 1.272 . S
O116 Co112 2.004 . S
O116 C121 1.259 . S
Co117 O118 2.061 . S
Co117 O123 2.052 . S
Co117 O125 2.135 . S
O118 Co117 2.061 . S
O118 C121 1.235 . S
C119 O122 1.238 . S
C119 O123 1.241 . S
C120 O113 1.247 . S
C120 O114 1.261 . S
C121 O116 1.259 . S
C121 O118 1.235 . S
O122 Co112 2.021 . S
O122 C119 1.238 . S
O123 Co117 2.052 . S
O123 C119 1.241 . S
O124 Co112 2.137 . S
O124 C115 1.247 . S
O125 Co112 2.244 . S
O125 C115 1.272 . S
O125 Co117 2.135 . S
Co126 O127 2.216 . S
Co126 O128 2.091 . S
Co126 O130 2.004 . S
Co126 O136 2.021 . S
Co126 O138 2.137 . S
Co126 O139 2.244 . S
O127 Co126 2.216 . S
O127 C134 1.247 . S
O128 Co126 2.091 . S
O128 C134 1.261 . S
C129 O138 1.247 . S
C129 O139 1.272 . S
O130 Co126 2.004 . S
O130 C135 1.259 . S
Co131 O132 2.061 . S
Co131 O137 2.052 . S
Co131 O139 2.135 . S
O132 Co131 2.061 . S
O132 C135 1.235 . S
C133 O136 1.238 . S
C133 O137 1.241 . S
C134 O127 1.247 . S
C134 O128 1.261 . S
C135 O130 1.259 . S
C135 O132 1.235 . S
O136 Co126 2.021 . S
O136 C133 1.238 . S
O137 Co131 2.052 . S
O137 C133 1.241 . S
O138 Co126 2.137 . S
O138 C129 1.247 . S
O139 Co126 2.244 . S
O139 C129 1.272 . S
O139 Co131 2.135 . S
Co140 O141 2.216 . S
Co140 O142 2.091 . S
Co140 O144 2.004 . S
Co140 O150 2.021 . S
Co140 O152 2.137 . S
Co140 O153 2.244 . S
O141 Co140 2.216 . S
O141 C148 1.247 . S
O142 Co140 2.091 . S
O142 C148 1.261 . S
C143 O152 1.247 . S
C143 O153 1.272 . S
O144 Co140 2.004 . S
O144 C149 1.259 . S
Co145 O146 2.061 . S
Co145 O151 2.052 . S
Co145 O153 2.135 . S
O146 Co145 2.061 . S
O146 C149 1.235 . S
C147 O150 1.238 . S
C147 O151 1.241 . S
C148 O141 1.247 . S
C148 O142 1.261 . S
C149 O144 1.259 . S
C149 O146 1.235 . S
O150 Co140 2.021 . S
O150 C147 1.238 . S
O151 Co145 2.052 . S
O151 C147 1.241 . S
O152 Co140 2.137 . S
O152 C143 1.247 . S
O153 Co140 2.244 . S
O153 C143 1.272 . S
O153 Co145 2.135 . S
Co154 O155 2.216 . S
Co154 O156 2.091 . S
Co154 O158 2.004 . S
Co154 O164 2.021 . S
Co154 O166 2.137 . S
Co154 O167 2.244 . S
O155 Co154 2.216 . S
O155 C162 1.247 . S
O156 Co154 2.091 . S
O156 C162 1.261 . S
C157 O166 1.247 . S
C157 O167 1.272 . S
O158 Co154 2.004 . S
O158 C163 1.259 . S
Co159 O160 2.061 . S
Co159 O165 2.052 . S
Co159 O167 2.135 . S
O160 Co159 2.061 . S
O160 C163 1.235 . S
C161 O164 1.238 . S
C161 O165 1.241 . S
C162 O155 1.247 . S
C162 O156 1.261 . S
C163 O158 1.259 . S
C163 O160 1.235 . S
O164 Co154 2.021 . S
O164 C161 1.238 . S
O165 Co159 2.052 . S
O165 C161 1.241 . S
O166 Co154 2.137 . S
O166 C157 1.247 . S
O167 Co154 2.244 . S
O167 C157 1.272 . S
O167 Co159 2.135 . S
Co168 O169 2.216 . S
Co168 O170 2.091 . S
Co168 O172 2.004 . S
Co168 O178 2.021 . S
Co168 O180 2.137 . S
Co168 O181 2.244 . S
O169 Co168 2.216 . S
O169 C176 1.247 . S
O170 Co168 2.091 . S
O170 C176 1.261 . S
C171 O180 1.247 . S
C171 O181 1.272 . S
O172 Co168 2.004 . S
O172 C177 1.259 . S
Co173 O174 2.061 . S
Co173 O179 2.052 . S
Co173 O181 2.135 . S
O174 Co173 2.061 . S
O174 C177 1.235 . S
C175 O178 1.238 . S
C175 O179 1.241 . S
C176 O169 1.247 . S
C176 O170 1.261 . S
C177 O172 1.259 . S
C177 O174 1.235 . S
O178 Co168 2.021 . S
O178 C175 1.238 . S
O179 Co173 2.052 . S
O179 C175 1.241 . S
O180 Co168 2.137 . S
O180 C171 1.247 . S
O181 Co168 2.244 . S
O181 C171 1.272 . S
O181 Co173 2.135 . S
Co182 O183 2.216 . S
Co182 O184 2.091 . S
Co182 O186 2.004 . S
Co182 O192 2.021 . S
Co182 O194 2.137 . S
Co182 O195 2.244 . S
O183 Co182 2.216 . S
O183 C190 1.247 . S
O184 Co182 2.091 . S
O184 C190 1.261 . S
C185 O194 1.247 . S
C185 O195 1.272 . S
O186 Co182 2.004 . S
O186 C191 1.259 . S
Co187 O188 2.061 . S
Co187 O193 2.052 . S
Co187 O195 2.135 . S
O188 Co187 2.061 . S
O188 C191 1.235 . S
C189 O192 1.238 . S
C189 O193 1.241 . S
C190 O183 1.247 . S
C190 O184 1.261 . S
C191 O186 1.259 . S
C191 O188 1.235 . S
O192 Co182 2.021 . S
O192 C189 1.238 . S
O193 Co187 2.052 . S
O193 C189 1.241 . S
O194 Co182 2.137 . S
O194 C185 1.247 . S
O195 Co182 2.244 . S
O195 C185 1.272 . S
O195 Co187 2.135 . S
Co196 O197 2.216 . S
Co196 O198 2.091 . S
Co196 O200 2.004 . S
Co196 O206 2.021 . S
Co196 O208 2.137 . S
Co196 O209 2.244 . S
O197 Co196 2.216 . S
O197 C204 1.247 . S
O198 Co196 2.091 . S
O198 C204 1.261 . S
C199 O208 1.247 . S
C199 O209 1.272 . S
O200 Co196 2.004 . S
O200 C205 1.259 . S
Co201 O202 2.061 . S
Co201 O207 2.052 . S
Co201 O209 2.135 . S
O202 Co201 2.061 . S
O202 C205 1.235 . S
C203 O206 1.238 . S
C203 O207 1.241 . S
C204 O197 1.247 . S
C204 O198 1.261 . S
C205 O200 1.259 . S
C205 O202 1.235 . S
O206 Co196 2.021 . S
O206 C203 1.238 . S
O207 Co201 2.052 . S
O207 C203 1.241 . S
O208 Co196 2.137 . S
O208 C199 1.247 . S
O209 Co196 2.244 . S
O209 C199 1.272 . S
O209 Co201 2.135 . S
Co210 O211 2.216 . S
Co210 O212 2.091 . S
Co210 O214 2.004 . S
Co210 O220 2.021 . S
Co210 O222 2.137 . S
Co210 O223 2.244 . S
O211 Co210 2.216 . S
O211 C218 1.247 . S
O212 Co210 2.091 . S
O212 C218 1.261 . S
C213 O222 1.247 . S
C213 O223 1.272 . S
O214 Co210 2.004 . S
O214 C219 1.259 . S
Co215 O216 2.061 . S
Co215 O221 2.052 . S
Co215 O223 2.135 . S
O216 Co215 2.061 . S
O216 C219 1.235 . S
C217 O220 1.238 . S
C217 O221 1.241 . S
C218 O211 1.247 . S
C218 O212 1.261 . S
C219 O214 1.259 . S
C219 O216 1.235 . S
O220 Co210 2.021 . S
O220 C217 1.238 . S
O221 Co215 2.052 . S
O221 C217 1.241 . S
O222 Co210 2.137 . S
O222 C213 1.247 . S
O223 Co210 2.244 . S
O223 C213 1.272 . S
O223 Co215 2.135 . S
C224 C225 1.391 . S
C224 C226 1.394 . S
C224 H240 0.931 . S
C225 C224 1.391 . S
C225 C229 1.376 . S
C226 C224 1.394 . S
C226 C227 1.369 . S
C226 C230 1.531 . S
C227 C226 1.369 . S
C227 C228 1.410 . S
C227 C235 1.503 . S
C228 C227 1.410 . S
C228 C229 1.392 . S
C228 C231 1.511 . S
C229 C225 1.376 . S
C229 C228 1.392 . S
C229 H241 0.929 . S
C230 C226 1.531 . S
C230 H242 0.960 . S
C230 H243 0.962 . S
C230 H244 0.960 . S
C231 C228 1.511 . S
C231 H245 0.961 . S
C231 H246 0.961 . S
C231 H247 0.961 . S
C232 C233 1.370 . S
C232 C234 1.363 . S
C232 H248 0.931 . S
C233 C232 1.370 . S
C233 C237 1.408 . S
C234 C232 1.363 . S
C234 C235 1.370 . S
C234 C238 1.524 . S
C235 C227 1.503 . S
C235 C234 1.370 . S
C235 C236 1.403 . S
C236 C235 1.403 . S
C236 C237 1.404 . S
C236 C239 1.539 . S
C237 C233 1.408 . S
C237 C236 1.404 . S
C237 H249 0.930 . S
C238 C234 1.524 . S
C238 H250 0.956 . S
C238 H251 0.961 . S
C238 H252 0.961 . S
C239 C236 1.539 . S
C239 H253 0.958 . S
C239 H254 0.961 . S
C239 H255 0.960 . S
H240 C224 0.931 . S
H241 C229 0.929 . S
H242 C230 0.960 . S
H243 C230 0.962 . S
H244 C230 0.960 . S
H245 C231 0.961 . S
H246 C231 0.961 . S
H247 C231 0.961 . S
H248 C232 0.931 . S
H249 C237 0.930 . S
H250 C238 0.956 . S
H251 C238 0.961 . S
H252 C238 0.961 . S
H253 C239 0.958 . S
H254 C239 0.961 . S
H255 C239 0.960 . S
C256 C257 1.391 . S
C256 C258 1.394 . S
C256 H272 0.931 . S
C257 C256 1.391 . S
C257 C261 1.376 . S
C258 C256 1.394 . S
C258 C259 1.369 . S
C258 C262 1.531 . S
C259 C258 1.369 . S
C259 C260 1.410 . S
C259 C267 1.503 . S
C260 C259 1.410 . S
C260 C261 1.392 . S
C260 C263 1.511 . S
C261 C257 1.376 . S
C261 C260 1.392 . S
C261 H273 0.929 . S
C262 C258 1.531 . S
C262 H274 0.960 . S
C262 H275 0.962 . S
C262 H276 0.960 . S
C263 C260 1.511 . S
C263 H277 0.961 . S
C263 H278 0.961 . S
C263 H279 0.961 . S
C264 C265 1.370 . S
C264 C266 1.363 . S
C264 H280 0.931 . S
C265 C264 1.370 . S
C265 C269 1.408 . S
C266 C264 1.363 . S
C266 C267 1.370 . S
C266 C270 1.524 . S
C267 C259 1.503 . S
C267 C266 1.370 . S
C267 C268 1.403 . S
C268 C267 1.403 . S
C268 C269 1.404 . S
C268 C271 1.539 . S
C269 C265 1.408 . S
C269 C268 1.404 . S
C269 H281 0.930 . S
C270 C266 1.524 . S
C270 H282 0.956 . S
C270 H283 0.961 . S
C270 H284 0.961 . S
C271 C268 1.539 . S
C271 H285 0.958 . S
C271 H286 0.961 . S
C271 H287 0.960 . S
H272 C256 0.931 . S
H273 C261 0.929 . S
H274 C262 0.960 . S
H275 C262 0.962 . S
H276 C262 0.960 . S
H277 C263 0.961 . S
H278 C263 0.961 . S
H279 C263 0.961 . S
H280 C264 0.931 . S
H281 C269 0.930 . S
H282 C270 0.956 . S
H283 C270 0.961 . S
H284 C270 0.961 . S
H285 C271 0.958 . S
H286 C271 0.961 . S
H287 C271 0.960 . S
C288 C289 1.391 . S
C288 C290 1.394 . S
C288 H304 0.931 . S
C289 C288 1.391 . S
C289 C293 1.376 . S
C290 C288 1.394 . S
C290 C291 1.369 . S
C290 C294 1.531 . S
C291 C290 1.369 . S
C291 C292 1.410 . S
C291 C299 1.503 . S
C292 C291 1.410 . S
C292 C293 1.392 . S
C292 C295 1.511 . S
C293 C289 1.376 . S
C293 C292 1.392 . S
C293 H305 0.929 . S
C294 C290 1.531 . S
C294 H306 0.960 . S
C294 H307 0.962 . S
C294 H308 0.960 . S
C295 C292 1.511 . S
C295 H309 0.961 . S
C295 H310 0.961 . S
C295 H311 0.961 . S
C296 C297 1.370 . S
C296 C298 1.363 . S
C296 H312 0.931 . S
C297 C296 1.370 . S
C297 C301 1.408 . S
C298 C296 1.363 . S
C298 C299 1.370 . S
C298 C302 1.524 . S
C299 C291 1.503 . S
C299 C298 1.370 . S
C299 C300 1.403 . S
C300 C299 1.403 . S
C300 C301 1.404 . S
C300 C303 1.539 . S
C301 C297 1.408 . S
C301 C300 1.404 . S
C301 H313 0.930 . S
C302 C298 1.524 . S
C302 H314 0.956 . S
C302 H315 0.961 . S
C302 H316 0.961 . S
C303 C300 1.539 . S
C303 H317 0.958 . S
C303 H318 0.961 . S
C303 H319 0.960 . S
H304 C288 0.931 . S
H305 C293 0.929 . S
H306 C294 0.960 . S
H307 C294 0.962 . S
H308 C294 0.960 . S
H309 C295 0.961 . S
H310 C295 0.961 . S
H311 C295 0.961 . S
H312 C296 0.931 . S
H313 C301 0.930 . S
H314 C302 0.956 . S
H315 C302 0.961 . S
H316 C302 0.961 . S
H317 C303 0.958 . S
H318 C303 0.961 . S
H319 C303 0.960 . S
C320 C321 1.391 . S
C320 C322 1.394 . S
C320 H336 0.931 . S
C321 C320 1.391 . S
C321 C325 1.376 . S
C322 C320 1.394 . S
C322 C323 1.369 . S
C322 C326 1.531 . S
C323 C322 1.369 . S
C323 C324 1.410 . S
C323 C331 1.503 1_455 S
C324 C323 1.410 . S
C324 C325 1.392 . S
C324 C327 1.511 . S
C325 C321 1.376 . S
C325 C324 1.392 . S
C325 H337 0.929 . S
C326 C322 1.531 . S
C326 H338 0.942 1_455 S
C326 H339 0.962 . S
C326 H340 0.960 . S
C327 C324 1.511 . S
C327 H341 0.961 . S
C327 H342 0.961 1_455 S
C327 H343 0.961 . S
C328 C329 1.370 . S
C328 C330 1.363 . S
C328 H344 0.931 . S
C329 C328 1.370 . S
C329 C333 1.408 . S
C330 C328 1.363 . S
C330 C331 1.370 . S
C330 C334 1.524 . S
C331 C323 1.503 1_655 S
C331 C330 1.370 . S
C331 C332 1.403 . S
C332 C331 1.403 . S
C332 C333 1.404 . S
C332 C335 1.539 . S
C333 C329 1.408 . S
C333 C332 1.404 . S
C333 H345 0.930 . S
C334 C330 1.524 . S
C334 H346 0.946 1_655 S
C334 H347 0.961 1_655 S
C334 H348 0.961 . S
C335 C332 1.539 . S
C335 H349 0.958 . S
C335 H350 0.961 . S
C335 H351 0.961 . S
H336 C320 0.931 . S
H337 C325 0.929 . S
H338 C326 0.942 1_655 S
H339 C326 0.962 . S
H340 C326 0.960 . S
H341 C327 0.961 . S
H342 C327 0.961 1_655 S
H343 C327 0.961 . S
H344 C328 0.931 . S
H345 C333 0.930 . S
H346 C334 0.946 1_455 S
H347 C334 0.961 1_455 S
H348 C334 0.961 . S
H349 C335 0.958 . S
H350 C335 0.961 . S
H351 C335 0.961 . S
C352 C353 1.391 . S
C352 C354 1.394 . S
C352 H368 0.931 . S
C353 C352 1.391 . S
C353 C357 1.376 . S
C354 C352 1.394 . S
C354 C355 1.369 . S
C354 C358 1.531 . S
C355 C354 1.369 . S
C355 C356 1.410 . S
C355 C363 1.503 . S
C356 C355 1.410 . S
C356 C357 1.392 . S
C356 C359 1.511 . S
C357 C353 1.376 . S
C357 C356 1.392 . S
C357 H369 0.929 . S
C358 C354 1.531 . S
C358 H370 0.960 . S
C358 H371 0.962 . S
C358 H372 0.960 . S
C359 C356 1.511 . S
C359 H373 0.961 . S
C359 H374 0.961 . S
C359 H375 0.961 . S
C360 C361 1.370 . S
C360 C362 1.363 . S
C360 H376 0.931 . S
C361 C360 1.370 . S
C361 C365 1.408 . S
C362 C360 1.363 . S
C362 C363 1.370 . S
C362 C366 1.524 . S
C363 C355 1.503 . S
C363 C362 1.370 . S
C363 C364 1.403 . S
C364 C363 1.403 . S
C364 C365 1.404 . S
C364 C367 1.539 . S
C365 C361 1.408 . S
C365 C364 1.404 . S
C365 H377 0.930 . S
C366 C362 1.524 . S
C366 H378 0.956 . S
C366 H379 0.961 . S
C366 H380 0.961 . S
C367 C364 1.539 . S
C367 H381 0.958 . S
C367 H382 0.961 . S
C367 H383 0.960 . S
H368 C352 0.931 . S
H369 C357 0.929 . S
H370 C358 0.960 . S
H371 C358 0.962 . S
H372 C358 0.960 . S
H373 C359 0.961 . S
H374 C359 0.961 . S
H375 C359 0.961 . S
H376 C360 0.931 . S
H377 C365 0.930 . S
H378 C366 0.956 . S
H379 C366 0.961 . S
H380 C366 0.961 . S
H381 C367 0.958 . S
H382 C367 0.961 . S
H383 C367 0.960 . S
C384 C385 1.391 . S
C384 C386 1.394 . S
C384 H400 0.931 . S
C385 C384 1.391 . S
C385 C389 1.376 . S
C386 C384 1.394 . S
C386 C387 1.369 . S
C386 C390 1.531 . S
C387 C386 1.369 . S
C387 C388 1.410 . S
C387 C395 1.503 1_655 S
C388 C387 1.410 . S
C388 C389 1.392 . S
C388 C391 1.511 . S
C389 C385 1.376 . S
C389 C388 1.392 . S
C389 H401 0.929 . S
C390 C386 1.531 . S
C390 H402 0.960 1_655 S
C390 H403 0.962 . S
C390 H404 0.960 . S
C391 C388 1.511 . S
C391 H405 0.961 . S
C391 H406 0.961 1_655 S
C391 H407 0.961 . S
C392 C393 1.370 . S
C392 C394 1.363 . S
C392 H408 0.931 . S
C393 C392 1.370 . S
C393 C397 1.408 . S
C394 C392 1.363 . S
C394 C395 1.370 . S
C394 C398 1.524 . S
C395 C387 1.503 1_455 S
C395 C394 1.370 . S
C395 C396 1.403 . S
C396 C395 1.403 . S
C396 C397 1.404 . S
C396 C399 1.539 . S
C397 C393 1.408 . S
C397 C396 1.404 . S
C397 H409 0.930 . S
C398 C394 1.524 . S
C398 H410 0.956 . S
C398 H411 0.961 . S
C398 H412 0.961 . S
C399 C396 1.539 . S
C399 H413 0.958 . S
C399 H414 0.961 . S
C399 H415 0.960 . S
H400 C384 0.931 . S
H401 C389 0.929 . S
H402 C390 0.960 1_455 S
H403 C390 0.962 . S
H404 C390 0.960 . S
H405 C391 0.961 . S
H406 C391 0.961 1_455 S
H407 C391 0.961 . S
H408 C392 0.931 . S
H409 C397 0.930 . S
H410 C398 0.956 . S
H411 C398 0.961 . S
H412 C398 0.961 . S
H413 C399 0.958 . S
H414 C399 0.961 . S
H415 C399 0.960 . S
C416 C417 1.391 . S
C416 C418 1.394 . S
C416 H432 0.931 . S
C417 C416 1.391 . S
C417 C421 1.376 . S
C418 C416 1.394 . S
C418 C419 1.369 . S
C418 C422 1.531 . S
C419 C418 1.369 . S
C419 C420 1.410 . S
C419 C427 1.503 . S
C420 C419 1.410 . S
C420 C421 1.392 . S
C420 C423 1.511 . S
C421 C417 1.376 . S
C421 C420 1.392 . S
C421 H433 0.929 . S
C422 C418 1.531 . S
C422 H434 0.960 . S
C422 H435 0.962 . S
C422 H436 0.960 . S
C423 C420 1.511 . S
C423 H437 0.961 . S
C423 H438 0.961 . S
C423 H439 0.961 . S
C424 C425 1.370 . S
C424 C426 1.363 . S
C424 H440 0.931 . S
C425 C424 1.370 . S
C425 C429 1.408 . S
C426 C424 1.363 . S
C426 C427 1.370 . S
C426 C430 1.524 . S
C427 C419 1.503 . S
C427 C426 1.370 . S
C427 C428 1.403 . S
C428 C427 1.403 . S
C428 C429 1.404 . S
C428 C431 1.539 . S
C429 C425 1.408 . S
C429 C428 1.404 . S
C429 H441 0.930 . S
C430 C426 1.524 . S
C430 H442 0.956 . S
C430 H443 0.961 . S
C430 H444 0.961 . S
C431 C428 1.539 . S
C431 H445 0.958 . S
C431 H446 0.961 . S
C431 H447 0.960 . S
H432 C416 0.931 . S
H433 C421 0.929 . S
H434 C422 0.960 . S
H435 C422 0.962 . S
H436 C422 0.960 . S
H437 C423 0.961 . S
H438 C423 0.961 . S
H439 C423 0.961 . S
H440 C424 0.931 . S
H441 C429 0.930 . S
H442 C430 0.956 . S
H443 C430 0.961 . S
H444 C430 0.961 . S
H445 C431 0.958 . S
H446 C431 0.961 . S
H447 C431 0.960 . S
C448 C449 1.391 . S
C448 C450 1.394 . S
C448 H464 0.931 . S
C449 C448 1.391 . S
C449 C453 1.376 . S
C450 C448 1.394 . S
C450 C451 1.369 . S
C450 C454 1.531 . S
C451 C450 1.369 . S
C451 C452 1.410 . S
C451 C459 1.503 . S
C452 C451 1.410 . S
C452 C453 1.392 . S
C452 C455 1.511 . S
C453 C449 1.376 . S
C453 C452 1.392 . S
C453 H465 0.929 . S
C454 C450 1.531 . S
C454 H466 0.960 . S
C454 H467 0.962 . S
C454 H468 0.960 . S
C455 C452 1.511 . S
C455 H469 0.961 . S
C455 H470 0.961 . S
C455 H471 0.961 . S
C456 C457 1.370 . S
C456 C458 1.363 . S
C456 H472 0.931 . S
C457 C456 1.370 . S
C457 C461 1.408 . S
C458 C456 1.363 . S
C458 C459 1.370 . S
C458 C462 1.524 . S
C459 C451 1.503 . S
C459 C458 1.370 . S
C459 C460 1.403 . S
C460 C459 1.403 . S
C460 C461 1.404 . S
C460 C463 1.539 . S
C461 C457 1.408 . S
C461 C460 1.404 . S
C461 H473 0.930 . S
C462 C458 1.524 . S
C462 H474 0.956 . S
C462 H475 0.961 . S
C462 H476 0.961 . S
C463 C460 1.539 . S
C463 H477 0.958 . S
C463 H478 0.961 . S
C463 H479 0.960 . S
H464 C448 0.931 . S
H465 C453 0.929 . S
H466 C454 0.960 . S
H467 C454 0.962 . S
H468 C454 0.960 . S
H469 C455 0.961 . S
H470 C455 0.961 . S
H471 C455 0.961 . S
H472 C456 0.931 . S
H473 C461 0.930 . S
H474 C462 0.956 . S
H475 C462 0.961 . S
H476 C462 0.961 . S
H477 C463 0.958 . S
H478 C463 0.961 . S
H479 C463 0.960 . S
C480 C481 1.391 . S
C480 C482 1.394 . S
C480 H496 0.931 . S
C481 C480 1.391 . S
C481 C485 1.376 . S
C482 C480 1.394 . S
C482 C483 1.369 . S
C482 C486 1.531 . S
C483 C482 1.369 . S
C483 C484 1.410 . S
C483 C491 1.503 . S
C484 C483 1.410 . S
C484 C485 1.392 . S
C484 C487 1.511 . S
C485 C481 1.376 . S
C485 C484 1.392 . S
C485 H497 0.929 . S
C486 C482 1.531 . S
C486 H498 0.960 . S
C486 H499 0.962 . S
C486 H500 0.960 . S
C487 C484 1.511 . S
C487 H501 0.961 . S
C487 H502 0.961 . S
C487 H503 0.961 . S
C488 C489 1.370 . S
C488 C490 1.363 . S
C488 H504 0.931 . S
C489 C488 1.370 . S
C489 C493 1.408 . S
C490 C488 1.363 . S
C490 C491 1.370 . S
C490 C494 1.524 . S
C491 C483 1.503 . S
C491 C490 1.370 . S
C491 C492 1.403 . S
C492 C491 1.403 . S
C492 C493 1.404 . S
C492 C495 1.539 . S
C493 C489 1.408 . S
C493 C492 1.404 . S
C493 H505 0.930 . S
C494 C490 1.524 . S
C494 H506 0.956 . S
C494 H507 0.961 . S
C494 H508 0.961 . S
C495 C492 1.539 . S
C495 H509 0.958 . S
C495 H510 0.961 . S
C495 H511 0.960 . S
H496 C480 0.931 . S
H497 C485 0.929 . S
H498 C486 0.960 . S
H499 C486 0.962 . S
H500 C486 0.960 . S
H501 C487 0.961 . S
H502 C487 0.961 . S
H503 C487 0.961 . S
H504 C488 0.931 . S
H505 C493 0.930 . S
H506 C494 0.956 . S
H507 C494 0.961 . S
H508 C494 0.961 . S
H509 C495 0.958 . S
H510 C495 0.961 . S
H511 C495 0.960 . S
C512 C513 1.391 . S
C512 C514 1.394 . S
C512 H528 0.931 . S
C513 C512 1.391 . S
C513 C517 1.376 . S
C514 C512 1.394 . S
C514 C515 1.369 . S
C514 C518 1.531 . S
C515 C514 1.369 . S
C515 C516 1.410 . S
C515 C523 1.503 . S
C516 C515 1.410 . S
C516 C517 1.392 . S
C516 C519 1.511 . S
C517 C513 1.376 . S
C517 C516 1.392 . S
C517 H529 0.929 . S
C518 C514 1.531 . S
C518 H530 0.960 . S
C518 H531 0.962 . S
C518 H532 0.960 . S
C519 C516 1.511 . S
C519 H533 0.961 . S
C519 H534 0.961 . S
C519 H535 0.961 . S
C520 C521 1.370 . S
C520 C522 1.363 . S
C520 H536 0.931 . S
C521 C520 1.370 . S
C521 C525 1.408 . S
C522 C520 1.363 . S
C522 C523 1.370 . S
C522 C526 1.524 . S
C523 C515 1.503 . S
C523 C522 1.370 . S
C523 C524 1.403 . S
C524 C523 1.403 . S
C524 C525 1.404 . S
C524 C527 1.539 . S
C525 C521 1.408 . S
C525 C524 1.404 . S
C525 H537 0.930 . S
C526 C522 1.524 . S
C526 H538 0.956 . S
C526 H539 0.961 . S
C526 H540 0.961 . S
C527 C524 1.539 . S
C527 H541 0.958 . S
C527 H542 0.961 . S
C527 H543 0.960 . S
H528 C512 0.931 . S
H529 C517 0.929 . S
H530 C518 0.960 . S
H531 C518 0.962 . S
H532 C518 0.960 . S
H533 C519 0.961 . S
H534 C519 0.961 . S
H535 C519 0.961 . S
H536 C520 0.931 . S
H537 C525 0.930 . S
H538 C526 0.956 . S
H539 C526 0.961 . S
H540 C526 0.961 . S
H541 C527 0.958 . S
H542 C527 0.961 . S
H543 C527 0.960 . S
C544 C545 1.391 . S
C544 C546 1.394 . S
C544 H560 0.931 . S
C545 C544 1.391 . S
C545 C549 1.376 . S
C546 C544 1.394 . S
C546 C547 1.369 . S
C546 C550 1.531 . S
C547 C546 1.369 . S
C547 C548 1.410 . S
C547 C555 1.503 . S
C548 C547 1.410 . S
C548 C549 1.392 . S
C548 C551 1.511 . S
C549 C545 1.376 . S
C549 C548 1.392 . S
C549 H561 0.929 . S
C550 C546 1.531 . S
C550 H562 0.960 . S
C550 H563 0.962 . S
C550 H564 0.960 . S
C551 C548 1.511 . S
C551 H565 0.961 . S
C551 H566 0.961 . S
C551 H567 0.961 . S
C552 C553 1.370 . S
C552 C554 1.363 . S
C552 H568 0.931 . S
C553 C552 1.370 . S
C553 C557 1.408 . S
C554 C552 1.363 . S
C554 C555 1.370 . S
C554 C558 1.524 . S
C555 C547 1.503 . S
C555 C554 1.370 . S
C555 C556 1.403 . S
C556 C555 1.403 . S
C556 C557 1.404 . S
C556 C559 1.539 . S
C557 C553 1.408 . S
C557 C556 1.404 . S
C557 H569 0.930 . S
C558 C554 1.524 . S
C558 H570 0.956 . S
C558 H571 0.961 . S
C558 H572 0.961 . S
C559 C556 1.539 . S
C559 H573 0.958 . S
C559 H574 0.961 . S
C559 H575 0.960 . S
H560 C544 0.931 . S
H561 C549 0.929 . S
H562 C550 0.960 . S
H563 C550 0.962 . S
H564 C550 0.960 . S
H565 C551 0.961 . S
H566 C551 0.961 . S
H567 C551 0.961 . S
H568 C552 0.931 . S
H569 C557 0.930 . S
H570 C558 0.956 . S
H571 C558 0.961 . S
H572 C558 0.961 . S
H573 C559 0.958 . S
H574 C559 0.961 . S
H575 C559 0.960 . S
C576 C577 1.391 . S
C576 C578 1.394 . S
C576 H592 0.931 . S
C577 C576 1.391 . S
C577 C581 1.376 . S
C578 C576 1.394 . S
C578 C579 1.369 . S
C578 C582 1.531 . S
C579 C578 1.369 . S
C579 C580 1.410 . S
C579 C587 1.503 . S
C580 C579 1.410 . S
C580 C581 1.392 . S
C580 C583 1.511 . S
C581 C577 1.376 . S
C581 C580 1.392 . S
C581 H593 0.929 . S
C582 C578 1.531 . S
C582 H594 0.960 . S
C582 H595 0.962 . S
C582 H596 0.960 . S
C583 C580 1.511 . S
C583 H597 0.961 . S
C583 H598 0.961 . S
C583 H599 0.961 . S
C584 C585 1.370 . S
C584 C586 1.363 . S
C584 H600 0.931 . S
C585 C584 1.370 . S
C585 C589 1.408 . S
C586 C584 1.363 . S
C586 C587 1.370 . S
C586 C590 1.524 . S
C587 C579 1.503 . S
C587 C586 1.370 . S
C587 C588 1.403 . S
C588 C587 1.403 . S
C588 C589 1.404 . S
C588 C591 1.539 . S
C589 C585 1.408 . S
C589 C588 1.404 . S
C589 H601 0.930 . S
C590 C586 1.524 . S
C590 H602 0.956 . S
C590 H603 0.961 . S
C590 H604 0.961 . S
C591 C588 1.539 . S
C591 H605 0.958 . S
C591 H606 0.961 . S
C591 H607 0.960 . S
H592 C576 0.931 . S
H593 C581 0.929 . S
H594 C582 0.960 . S
H595 C582 0.962 . S
H596 C582 0.960 . S
H597 C583 0.961 . S
H598 C583 0.961 . S
H599 C583 0.961 . S
H600 C584 0.931 . S
H601 C589 0.930 . S
H602 C590 0.956 . S
H603 C590 0.961 . S
H604 C590 0.961 . S
H605 C591 0.958 . S
H606 C591 0.961 . S
H607 C591 0.960 . S
C608 C609 1.391 . S
C608 C610 1.394 . S
C608 H624 0.931 . S
C609 C608 1.391 . S
C609 C613 1.376 . S
C610 C608 1.394 . S
C610 C611 1.369 . S
C610 C614 1.531 . S
C611 C610 1.369 . S
C611 C612 1.410 . S
C611 C619 1.503 1_455 S
C612 C611 1.410 . S
C612 C613 1.392 . S
C612 C615 1.511 . S
C613 C609 1.376 . S
C613 C612 1.392 . S
C613 H625 0.929 . S
C614 C610 1.531 . S
C614 H626 0.960 1_455 S
C614 H627 0.962 . S
C614 H628 0.960 . S
C615 C612 1.511 . S
C615 H629 0.961 . S
C615 H630 0.961 1_455 S
C615 H631 0.961 . S
C616 C617 1.370 . S
C616 C618 1.363 . S
C616 H632 0.931 . S
C617 C616 1.370 . S
C617 C621 1.408 . S
C618 C616 1.363 . S
C618 C619 1.370 . S
C618 C622 1.524 . S
C619 C611 1.503 1_655 S
C619 C618 1.370 . S
C619 C620 1.403 . S
C620 C619 1.403 . S
C620 C621 1.404 . S
C620 C623 1.539 . S
C621 C617 1.408 . S
C621 C620 1.404 . S
C621 H633 0.930 . S
C622 C618 1.524 . S
C622 H634 0.956 . S
C622 H635 0.961 . S
C622 H636 0.961 . S
C623 C620 1.539 . S
C623 H637 0.958 . S
C623 H638 0.961 . S
C623 H639 0.960 . S
H624 C608 0.931 . S
H625 C613 0.929 . S
H626 C614 0.960 1_655 S
H627 C614 0.962 . S
H628 C614 0.960 . S
H629 C615 0.961 . S
H630 C615 0.961 1_655 S
H631 C615 0.961 . S
H632 C616 0.931 . S
H633 C621 0.930 . S
H634 C622 0.956 . S
H635 C622 0.961 . S
H636 C622 0.961 . S
H637 C623 0.958 . S
H638 C623 0.961 . S
H639 C623 0.960 . S
C640 C641 1.391 . S
C640 C642 1.394 . S
C640 H656 0.931 . S
C641 C640 1.391 . S
C641 C645 1.376 . S
C642 C640 1.394 . S
C642 C643 1.369 . S
C642 C646 1.531 . S
C643 C642 1.369 . S
C643 C644 1.410 . S
C643 C651 1.503 . S
C644 C643 1.410 . S
C644 C645 1.392 . S
C644 C647 1.511 . S
C645 C641 1.376 . S
C645 C644 1.392 . S
C645 H657 0.929 . S
C646 C642 1.531 . S
C646 H658 0.960 . S
C646 H659 0.962 . S
C646 H660 0.960 . S
C647 C644 1.511 . S
C647 H661 0.961 . S
C647 H662 0.961 . S
C647 H663 0.961 . S
C648 C649 1.370 . S
C648 C650 1.363 . S
C648 H664 0.931 . S
C649 C648 1.370 . S
C649 C653 1.408 . S
C650 C648 1.363 . S
C650 C651 1.370 . S
C650 C654 1.524 . S
C651 C643 1.503 . S
C651 C650 1.370 . S
C651 C652 1.403 . S
C652 C651 1.403 . S
C652 C653 1.404 . S
C652 C655 1.539 . S
C653 C649 1.408 . S
C653 C652 1.404 . S
C653 H665 0.930 . S
C654 C650 1.524 . S
C654 H666 0.956 . S
C654 H667 0.961 . S
C654 H668 0.961 . S
C655 C652 1.539 . S
C655 H669 0.958 . S
C655 H670 0.961 . S
C655 H671 0.960 . S
H656 C640 0.931 . S
H657 C645 0.929 . S
H658 C646 0.960 . S
H659 C646 0.962 . S
H660 C646 0.960 . S
H661 C647 0.961 . S
H662 C647 0.961 . S
H663 C647 0.961 . S
H664 C648 0.931 . S
H665 C653 0.930 . S
H666 C654 0.956 . S
H667 C654 0.961 . S
H668 C654 0.961 . S
H669 C655 0.958 . S
H670 C655 0.961 . S
H671 C655 0.960 . S
C672 C673 1.391 . S
C672 C674 1.394 . S
C672 H688 0.931 . S
C673 C672 1.391 . S
C673 C677 1.376 . S
C674 C672 1.394 . S
C674 C675 1.369 . S
C674 C678 1.531 . S
C675 C674 1.369 . S
C675 C676 1.410 . S
C675 C683 1.503 . S
C676 C675 1.410 . S
C676 C677 1.392 . S
C676 C679 1.511 . S
C677 C673 1.376 . S
C677 C676 1.392 . S
C677 H689 0.929 . S
C678 C674 1.531 . S
C678 H690 0.960 . S
C678 H691 0.962 . S
C678 H692 0.960 . S
C679 C676 1.511 . S
C679 H693 0.961 . S
C679 H694 0.961 . S
C679 H695 0.961 . S
C680 C681 1.370 . S
C680 C682 1.363 . S
C680 H696 0.931 . S
C681 C680 1.370 . S
C681 C685 1.408 . S
C682 C680 1.363 . S
C682 C683 1.370 . S
C682 C686 1.524 . S
C683 C675 1.503 . S
C683 C682 1.370 . S
C683 C684 1.403 . S
C684 C683 1.403 . S
C684 C685 1.404 . S
C684 C687 1.539 . S
C685 C681 1.408 . S
C685 C684 1.404 . S
C685 H697 0.930 . S
C686 C682 1.524 . S
C686 H698 0.956 . S
C686 H699 0.961 . S
C686 H700 0.961 . S
C687 C684 1.539 . S
C687 H701 0.958 . S
C687 H702 0.961 . S
C687 H703 0.960 . S
H688 C672 0.931 . S
H689 C677 0.929 . S
H690 C678 0.960 . S
H691 C678 0.962 . S
H692 C678 0.960 . S
H693 C679 0.961 . S
H694 C679 0.961 . S
H695 C679 0.961 . S
H696 C680 0.931 . S
H697 C685 0.930 . S
H698 C686 0.956 . S
H699 C686 0.961 . S
H700 C686 0.961 . S
H701 C687 0.958 . S
H702 C687 0.961 . S
H703 C687 0.960 . S
C704 C705 1.391 . S
C704 C706 1.394 . S
C704 H720 0.931 . S
C705 C704 1.391 . S
C705 C709 1.376 . S
C706 C704 1.394 . S
C706 C707 1.369 . S
C706 C710 1.531 . S
C707 C706 1.369 . S
C707 C708 1.410 . S
C707 C715 1.503 1_455 S
C708 C707 1.410 . S
C708 C709 1.392 . S
C708 C711 1.511 . S
C709 C705 1.376 . S
C709 C708 1.392 . S
C709 H721 0.929 . S
C710 C706 1.531 . S
C710 H722 0.960 1_455 S
C710 H723 0.962 . S
C710 H724 0.960 . S
C711 C708 1.511 . S
C711 H725 0.961 . S
C711 H726 0.961 1_455 S
C711 H727 0.961 . S
C712 C713 1.370 . S
C712 C714 1.363 . S
C712 H728 0.931 . S
C713 C712 1.370 . S
C713 C717 1.408 . S
C714 C712 1.363 . S
C714 C715 1.370 . S
C714 C718 1.524 . S
C715 C707 1.503 1_655 S
C715 C714 1.370 . S
C715 C716 1.403 . S
C716 C715 1.403 . S
C716 C717 1.404 . S
C716 C719 1.539 . S
C717 C713 1.408 . S
C717 C716 1.404 . S
C717 H729 0.930 . S
C718 C714 1.524 . S
C718 H730 0.956 . S
C718 H731 0.955 1_655 S
C718 H732 0.961 . S
C719 C716 1.539 . S
C719 H733 0.958 . S
C719 H734 0.961 . S
C719 H735 0.960 . S
H720 C704 0.931 . S
H721 C709 0.929 . S
H722 C710 0.960 1_655 S
H723 C710 0.962 . S
H724 C710 0.960 . S
H725 C711 0.961 . S
H726 C711 0.961 1_655 S
H727 C711 0.961 . S
H728 C712 0.931 . S
H729 C717 0.930 . S
H730 C718 0.956 . S
H731 C718 0.955 1_455 S
H732 C718 0.961 . S
H733 C719 0.958 . S
H734 C719 0.961 . S
H735 C719 0.960 . S
C736 C737 1.391 . S
C736 C738 1.394 . S
C736 H752 0.931 . S
C737 C736 1.391 . S
C737 C741 1.376 . S
C738 C736 1.394 . S
C738 C739 1.369 . S
C738 C742 1.531 . S
C739 C738 1.369 . S
C739 C740 1.410 . S
C739 C747 1.503 1_554 S
C740 C739 1.410 . S
C740 C741 1.392 . S
C740 C743 1.511 1_554 S
C741 C737 1.376 . S
C741 C740 1.392 . S
C741 H753 0.929 . S
C742 C738 1.531 . S
C742 H754 0.960 . S
C742 H755 0.962 . S
C742 H756 0.960 . S
C743 C740 1.511 1_556 S
C743 H757 0.961 . S
C743 H758 0.961 . S
C743 H759 0.961 . S
C744 C745 1.370 . S
C744 C746 1.363 . S
C744 H760 0.931 . S
C745 C744 1.370 . S
C745 C749 1.408 . S
C746 C744 1.363 . S
C746 C747 1.370 . S
C746 C750 1.524 . S
C747 C739 1.503 1_556 S
C747 C746 1.370 . S
C747 C748 1.403 . S
C748 C747 1.403 . S
C748 C749 1.404 . S
C748 C751 1.539 1_556 S
C749 C745 1.408 . S
C749 C748 1.404 . S
C749 H761 0.930 . S
C750 C746 1.524 . S
C750 H762 0.956 . S
C750 H763 0.961 . S
C750 H764 0.961 . S
C751 C748 1.539 1_554 S
C751 H765 0.958 . S
C751 H766 0.970 . S
C751 H767 0.960 . S
H752 C736 0.931 . S
H753 C741 0.929 . S
H754 C742 0.960 . S
H755 C742 0.962 . S
H756 C742 0.960 . S
H757 C743 0.961 . S
H758 C743 0.961 . S
H759 C743 0.961 . S
H760 C744 0.931 . S
H761 C749 0.930 . S
H762 C750 0.956 . S
H763 C750 0.961 . S
H764 C750 0.961 . S
H765 C751 0.958 . S
H766 C751 0.970 . S
H767 C751 0.960 . S
C768 C769 1.391 . S
C768 C770 1.394 . S
C768 H784 0.931 . S
C769 C768 1.391 . S
C769 C773 1.376 . S
C770 C768 1.394 . S
C770 C771 1.369 . S
C770 C774 1.531 . S
C771 C770 1.369 . S
C771 C772 1.410 . S
C771 C779 1.503 . S
C772 C771 1.410 . S
C772 C773 1.392 . S
C772 C775 1.511 . S
C773 C769 1.376 . S
C773 C772 1.392 . S
C773 H785 0.929 . S
C774 C770 1.531 . S
C774 H786 0.960 . S
C774 H787 0.962 . S
C774 H788 0.960 . S
C775 C772 1.511 . S
C775 H789 0.961 . S
C775 H790 0.961 . S
C775 H791 0.961 . S
C776 C777 1.370 . S
C776 C778 1.363 . S
C776 H792 0.931 . S
C777 C776 1.370 . S
C777 C781 1.408 . S
C778 C776 1.363 . S
C778 C779 1.370 . S
C778 C782 1.524 . S
C779 C771 1.503 . S
C779 C778 1.370 . S
C779 C780 1.403 . S
C780 C779 1.403 . S
C780 C781 1.404 . S
C780 C783 1.539 . S
C781 C777 1.408 . S
C781 C780 1.404 . S
C781 H793 0.930 . S
C782 C778 1.524 . S
C782 H794 0.956 . S
C782 H795 0.961 . S
C782 H796 0.961 . S
C783 C780 1.539 . S
C783 H797 0.958 . S
C783 H798 0.961 . S
C783 H799 0.960 . S
H784 C768 0.931 . S
H785 C773 0.929 . S
H786 C774 0.960 . S
H787 C774 0.962 . S
H788 C774 0.960 . S
H789 C775 0.961 . S
H790 C775 0.961 . S
H791 C775 0.961 . S
H792 C776 0.931 . S
H793 C781 0.930 . S
H794 C782 0.956 . S
H795 C782 0.961 . S
H796 C782 0.961 . S
H797 C783 0.958 . S
H798 C783 0.961 . S
H799 C783 0.960 . S
C800 C801 1.391 . S
C800 C802 1.394 . S
C800 H816 0.931 . S
C801 C800 1.391 . S
C801 C805 1.376 . S
C802 C800 1.394 . S
C802 C803 1.369 . S
C802 C806 1.531 . S
C803 C802 1.369 . S
C803 C804 1.410 . S
C803 C811 1.503 . S
C804 C803 1.410 . S
C804 C805 1.392 . S
C804 C807 1.511 . S
C805 C801 1.376 . S
C805 C804 1.392 . S
C805 H817 0.929 . S
C806 C802 1.531 . S
C806 H818 0.960 . S
C806 H819 0.962 . S
C806 H820 0.960 . S
C807 C804 1.511 . S
C807 H821 0.961 . S
C807 H822 0.961 . S
C807 H823 0.961 . S
C808 C809 1.370 . S
C808 C810 1.363 . S
C808 H824 0.931 . S
C809 C808 1.370 . S
C809 C813 1.408 . S
C810 C808 1.363 . S
C810 C811 1.370 . S
C810 C814 1.524 . S
C811 C803 1.503 . S
C811 C810 1.370 . S
C811 C812 1.403 . S
C812 C811 1.403 . S
C812 C813 1.404 . S
C812 C815 1.539 . S
C813 C809 1.408 . S
C813 C812 1.404 . S
C813 H825 0.930 . S
C814 C810 1.524 . S
C814 H826 0.956 . S
C814 H827 0.961 . S
C814 H828 0.961 . S
C815 C812 1.539 . S
C815 H829 0.958 . S
C815 H830 0.961 . S
C815 H831 0.960 . S
H816 C800 0.931 . S
H817 C805 0.929 . S
H818 C806 0.960 . S
H819 C806 0.962 . S
H820 C806 0.960 . S
H821 C807 0.961 . S
H822 C807 0.961 . S
H823 C807 0.961 . S
H824 C808 0.931 . S
H825 C813 0.930 . S
H826 C814 0.956 . S
H827 C814 0.961 . S
H828 C814 0.961 . S
H829 C815 0.958 . S
H830 C815 0.961 . S
H831 C815 0.960 . S
C832 C833 1.391 . S
C832 C834 1.394 . S
C832 H848 0.931 . S
C833 C832 1.391 . S
C833 C837 1.376 . S
C834 C832 1.394 . S
C834 C835 1.369 . S
C834 C838 1.531 . S
C835 C834 1.369 . S
C835 C836 1.410 . S
C835 C843 1.503 . S
C836 C835 1.410 . S
C836 C837 1.392 . S
C836 C839 1.511 . S
C837 C833 1.376 . S
C837 C836 1.392 . S
C837 H849 0.929 . S
C838 C834 1.531 . S
C838 H850 0.960 . S
C838 H851 0.962 . S
C838 H852 0.960 . S
C839 C836 1.511 . S
C839 H853 0.961 . S
C839 H854 0.961 . S
C839 H855 0.961 . S
C840 C841 1.370 . S
C840 C842 1.363 . S
C840 H856 0.931 . S
C841 C840 1.370 . S
C841 C845 1.408 . S
C842 C840 1.363 . S
C842 C843 1.370 . S
C842 C846 1.524 . S
C843 C835 1.503 . S
C843 C842 1.370 . S
C843 C844 1.403 . S
C844 C843 1.403 . S
C844 C845 1.404 . S
C844 C847 1.539 . S
C845 C841 1.408 . S
C845 C844 1.404 . S
C845 H857 0.930 . S
C846 C842 1.524 . S
C846 H858 0.956 . S
C846 H859 0.961 . S
C846 H860 0.961 . S
C847 C844 1.539 . S
C847 H861 0.958 . S
C847 H862 0.961 . S
C847 H863 0.960 . S
H848 C832 0.931 . S
H849 C837 0.929 . S
H850 C838 0.960 . S
H851 C838 0.962 . S
H852 C838 0.960 . S
H853 C839 0.961 . S
H854 C839 0.961 . S
H855 C839 0.961 . S
H856 C840 0.931 . S
H857 C845 0.930 . S
H858 C846 0.956 . S
H859 C846 0.961 . S
H860 C846 0.961 . S
H861 C847 0.958 . S
H862 C847 0.961 . S
H863 C847 0.960 . S
C864 C865 1.391 . S
C864 C866 1.394 . S
C864 H880 0.931 . S
C865 C864 1.391 . S
C865 C869 1.376 . S
C866 C864 1.394 . S
C866 C867 1.369 . S
C866 C870 1.531 1_556 S
C867 C866 1.369 . S
C867 C868 1.410 . S
C867 C875 1.503 1_556 S
C868 C867 1.410 . S
C868 C869 1.392 . S
C868 C871 1.511 . S
C869 C865 1.376 . S
C869 C868 1.392 . S
C869 H881 0.929 . S
C870 C866 1.531 1_554 S
C870 H882 0.960 . S
C870 H883 0.962 . S
C870 H884 0.960 . S
C871 C868 1.511 . S
C871 H885 0.961 . S
C871 H886 0.961 . S
C871 H887 0.961 . S
C872 C873 1.370 . S
C872 C874 1.363 . S
C872 H888 0.931 . S
C873 C872 1.370 . S
C873 C877 1.408 . S
C874 C872 1.363 . S
C874 C875 1.370 . S
C874 C878 1.524 1_554 S
C875 C867 1.503 1_554 S
C875 C874 1.370 . S
C875 C876 1.403 . S
C876 C875 1.403 . S
C876 C877 1.404 . S
C876 C879 1.539 . S
C877 C873 1.408 . S
C877 C876 1.404 . S
C877 H889 0.930 . S
C878 C874 1.524 1_556 S
C878 H890 0.956 . S
C878 H891 0.961 . S
C878 H892 0.961 . S
C879 C876 1.539 . S
C879 H893 0.958 . S
C879 H894 0.961 . S
C879 H895 0.960 . S
H880 C864 0.931 . S
H881 C869 0.929 . S
H882 C870 0.960 . S
H883 C870 0.962 . S
H884 C870 0.960 . S
H885 C871 0.961 . S
H886 C871 0.961 . S
H887 C871 0.961 . S
H888 C872 0.931 . S
H889 C877 0.930 . S
H890 C878 0.956 . S
H891 C878 0.961 . S
H892 C878 0.961 . S
H893 C879 0.958 . S
H894 C879 0.961 . S
H895 C879 0.960 . S
C896 C897 1.391 . S
C896 C898 1.394 . S
C896 H912 0.931 . S
C897 C896 1.391 . S
C897 C901 1.376 . S
C898 C896 1.394 . S
C898 C899 1.369 . S
C898 C902 1.531 . S
C899 C898 1.369 . S
C899 C900 1.410 . S
C899 C907 1.503 . S
C900 C899 1.410 . S
C900 C901 1.392 . S
C900 C903 1.511 . S
C901 C897 1.376 . S
C901 C900 1.392 . S
C901 H913 0.929 . S
C902 C898 1.531 . S
C902 H914 0.960 . S
C902 H915 0.962 . S
C902 H916 0.960 . S
C903 C900 1.511 . S
C903 H917 0.961 . S
C903 H918 0.961 . S
C903 H919 0.961 . S
C904 C905 1.370 . S
C904 C906 1.363 . S
C904 H920 0.931 . S
C905 C904 1.370 . S
C905 C909 1.408 . S
C906 C904 1.363 . S
C906 C907 1.370 . S
C906 C910 1.524 . S
C907 C899 1.503 . S
C907 C906 1.370 . S
C907 C908 1.403 . S
C908 C907 1.403 . S
C908 C909 1.404 . S
C908 C911 1.539 . S
C909 C905 1.408 . S
C909 C908 1.404 . S
C909 H921 0.930 . S
C910 C906 1.524 . S
C910 H922 0.956 . S
C910 H923 0.961 . S
C910 H924 0.961 . S
C911 C908 1.539 . S
C911 H925 0.958 . S
C911 H926 0.961 . S
C911 H927 0.960 . S
H912 C896 0.931 . S
H913 C901 0.929 . S
H914 C902 0.960 . S
H915 C902 0.962 . S
H916 C902 0.960 . S
H917 C903 0.961 . S
H918 C903 0.961 . S
H919 C903 0.961 . S
H920 C904 0.931 . S
H921 C909 0.930 . S
H922 C910 0.956 . S
H923 C910 0.961 . S
H924 C910 0.961 . S
H925 C911 0.958 . S
H926 C911 0.961 . S
H927 C911 0.960 . S
C928 C929 1.391 . S
C928 C930 1.394 . S
C928 H944 0.931 . S
C929 C928 1.391 . S
C929 C933 1.376 . S
C930 C928 1.394 . S
C930 C931 1.369 . S
C930 C934 1.531 . S
C931 C930 1.369 . S
C931 C932 1.410 . S
C931 C939 1.503 . S
C932 C931 1.410 . S
C932 C933 1.392 . S
C932 C935 1.511 . S
C933 C929 1.376 . S
C933 C932 1.392 . S
C933 H945 0.929 . S
C934 C930 1.531 . S
C934 H946 0.960 . S
C934 H947 0.962 . S
C934 H948 0.960 . S
C935 C932 1.511 . S
C935 H949 0.961 . S
C935 H950 0.961 . S
C935 H951 0.961 . S
C936 C937 1.370 . S
C936 C938 1.363 . S
C936 H952 0.931 . S
C937 C936 1.370 . S
C937 C941 1.408 . S
C938 C936 1.363 . S
C938 C939 1.370 . S
C938 C942 1.524 . S
C939 C931 1.503 . S
C939 C938 1.370 . S
C939 C940 1.403 . S
C940 C939 1.403 . S
C940 C941 1.404 . S
C940 C943 1.539 . S
C941 C937 1.408 . S
C941 C940 1.404 . S
C941 H953 0.930 . S
C942 C938 1.524 . S
C942 H954 0.956 . S
C942 H955 0.961 . S
C942 H956 0.961 . S
C943 C940 1.539 . S
C943 H957 0.958 . S
C943 H958 0.961 . S
C943 H959 0.960 . S
H944 C928 0.931 . S
H945 C933 0.929 . S
H946 C934 0.960 . S
H947 C934 0.962 . S
H948 C934 0.960 . S
H949 C935 0.961 . S
H950 C935 0.961 . S
H951 C935 0.961 . S
H952 C936 0.931 . S
H953 C941 0.930 . S
H954 C942 0.956 . S
H955 C942 0.961 . S
H956 C942 0.961 . S
H957 C943 0.958 . S
H958 C943 0.961 . S
H959 C943 0.960 . S
C960 C961 1.391 . S
C960 C962 1.394 . S
C960 H976 0.931 . S
C961 C960 1.391 . S
C961 C965 1.376 . S
C962 C960 1.394 . S
C962 C963 1.369 . S
C962 C966 1.531 . S
C963 C962 1.369 . S
C963 C964 1.410 . S
C963 C971 1.503 . S
C964 C963 1.410 . S
C964 C965 1.392 . S
C964 C967 1.511 . S
C965 C961 1.376 . S
C965 C964 1.392 . S
C965 H977 0.929 . S
C966 C962 1.531 . S
C966 H978 0.960 . S
C966 H979 0.962 . S
C966 H980 0.960 . S
C967 C964 1.511 . S
C967 H981 0.961 . S
C967 H982 0.961 . S
C967 H983 0.961 . S
C968 C969 1.370 . S
C968 C970 1.363 . S
C968 H984 0.931 . S
C969 C968 1.370 . S
C969 C973 1.408 . S
C970 C968 1.363 . S
C970 C971 1.370 . S
C970 C974 1.524 . S
C971 C963 1.503 . S
C971 C970 1.370 . S
C971 C972 1.403 . S
C972 C971 1.403 . S
C972 C973 1.404 . S
C972 C975 1.539 . S
C973 C969 1.408 . S
C973 C972 1.404 . S
C973 H985 0.930 . S
C974 C970 1.524 . S
C974 H986 0.956 . S
C974 H987 0.961 . S
C974 H988 0.961 . S
C975 C972 1.539 . S
C975 H989 0.958 . S
C975 H990 0.961 . S
C975 H991 0.960 . S
H976 C960 0.931 . S
H977 C965 0.929 . S
H978 C966 0.960 . S
H979 C966 0.962 . S
H980 C966 0.960 . S
H981 C967 0.961 . S
H982 C967 0.961 . S
H983 C967 0.961 . S
H984 C968 0.931 . S
H985 C973 0.930 . S
H986 C974 0.956 . S
H987 C974 0.961 . S
H988 C974 0.961 . S
H989 C975 0.958 . S
H990 C975 0.961 . S
H991 C975 0.960 . S
C992 C993 1.391 . S
C992 C994 1.394 . S
C992 H1008 0.931 . S
C993 C992 1.391 . S
C993 C997 1.376 . S
C994 C992 1.394 . S
C994 C995 1.369 . S
C994 C998 1.531 1_545 S
C995 C994 1.369 . S
C995 C996 1.410 . S
C995 C1003 1.503 1_545 S
C996 C995 1.410 . S
C996 C997 1.392 . S
C996 C999 1.511 . S
C997 C993 1.376 . S
C997 C996 1.392 . S
C997 H1009 0.929 . S
C998 C994 1.531 1_565 S
C998 H1010 0.960 . S
C998 H1011 0.962 1_565 S
C998 H1012 0.960 . S
C999 C996 1.511 . S
C999 H1013 0.961 . S
C999 H1014 0.961 . S
C999 H1015 0.961 . S
C1000 C1001 1.370 . S
C1000 C1002 1.363 . S
C1000 H1016 0.931 . S
C1001 C1000 1.370 . S
C1001 C1005 1.408 . S
C1002 C1000 1.363 . S
C1002 C1003 1.370 . S
C1002 C1006 1.524 1_565 S
C1003 C995 1.503 1_565 S
C1003 C1002 1.370 . S
C1003 C1004 1.403 . S
C1004 C1003 1.403 . S
C1004 C1005 1.404 . S
C1004 C1007 1.539 . S
C1005 C1001 1.408 . S
C1005 C1004 1.404 . S
C1005 H1017 0.930 . S
C1006 C1002 1.524 1_545 S
C1006 H1018 0.956 . S
C1006 H1019 0.961 . S
C1006 H1020 0.961 . S
C1007 C1004 1.539 . S
C1007 H1021 0.958 . S
C1007 H1022 0.961 . S
C1007 H1023 0.960 . S
H1008 C992 0.931 . S
H1009 C997 0.929 . S
H1010 C998 0.960 . S
H1011 C998 0.962 1_545 S
H1012 C998 0.960 . S
H1013 C999 0.961 . S
H1014 C999 0.961 . S
H1015 C999 0.961 . S
H1016 C1000 0.931 . S
H1017 C1005 0.930 . S
H1018 C1006 0.956 . S
H1019 C1006 0.961 . S
H1020 C1006 0.961 . S
H1021 C1007 0.958 . S
H1022 C1007 0.961 . S
H1023 C1007 0.960 . S
C1024 C1025 1.391 . S
C1024 C1026 1.394 . S
C1024 H1040 0.931 . S
C1025 C1024 1.391 . S
C1025 C1029 1.376 . S
C1026 C1024 1.394 . S
C1026 C1027 1.369 . S
C1026 C1030 1.531 . S
C1027 C1026 1.369 . S
C1027 C1028 1.410 . S
C1027 C1035 1.503 . S
C1028 C1027 1.410 . S
C1028 C1029 1.392 . S
C1028 C1031 1.511 . S
C1029 C1025 1.376 . S
C1029 C1028 1.392 . S
C1029 H1041 0.929 . S
C1030 C1026 1.531 . S
C1030 H1042 0.960 . S
C1030 H1043 0.962 . S
C1030 H1044 0.960 . S
C1031 C1028 1.511 . S
C1031 H1045 0.961 . S
C1031 H1046 0.961 . S
C1031 H1047 0.961 . S
C1032 C1033 1.370 . S
C1032 C1034 1.363 . S
C1032 H1048 0.931 . S
C1033 C1032 1.370 . S
C1033 C1037 1.408 . S
C1034 C1032 1.363 . S
C1034 C1035 1.370 . S
C1034 C1038 1.524 . S
C1035 C1027 1.503 . S
C1035 C1034 1.370 . S
C1035 C1036 1.403 . S
C1036 C1035 1.403 . S
C1036 C1037 1.404 . S
C1036 C1039 1.539 . S
C1037 C1033 1.408 . S
C1037 C1036 1.404 . S
C1037 H1049 0.930 . S
C1038 C1034 1.524 . S
C1038 H1050 0.956 . S
C1038 H1051 0.961 . S
C1038 H1052 0.961 . S
C1039 C1036 1.539 . S
C1039 H1053 0.958 . S
C1039 H1054 0.961 . S
C1039 H1055 0.960 . S
H1040 C1024 0.931 . S
H1041 C1029 0.929 . S
H1042 C1030 0.960 . S
H1043 C1030 0.962 . S
H1044 C1030 0.960 . S
H1045 C1031 0.961 . S
H1046 C1031 0.961 . S
H1047 C1031 0.961 . S
H1048 C1032 0.931 . S
H1049 C1037 0.930 . S
H1050 C1038 0.956 . S
H1051 C1038 0.961 . S
H1052 C1038 0.961 . S
H1053 C1039 0.958 . S
H1054 C1039 0.961 . S
H1055 C1039 0.960 . S
C1056 C1057 1.391 . S
C1056 C1058 1.394 . S
C1056 H1072 0.931 . S
C1057 C1056 1.391 . S
C1057 C1061 1.376 . S
C1058 C1056 1.394 . S
C1058 C1059 1.369 . S
C1058 C1062 1.531 1_545 S
C1059 C1058 1.369 . S
C1059 C1060 1.410 . S
C1059 C1067 1.503 1_546 S
C1060 C1059 1.410 . S
C1060 C1061 1.392 . S
C1060 C1063 1.512 . S
C1061 C1057 1.376 . S
C1061 C1060 1.392 . S
C1061 H1073 0.929 . S
C1062 C1058 1.531 1_565 S
C1062 H1074 0.960 . S
C1062 H1075 0.962 1_565 S
C1062 H1076 0.960 . S
C1063 C1060 1.512 . S
C1063 H1077 0.960 1_556 S
C1063 H1078 0.959 1_556 S
C1063 H1079 0.962 . S
C1064 C1065 1.370 . S
C1064 C1066 1.363 . S
C1064 H1080 0.931 . S
C1065 C1064 1.370 . S
C1065 C1069 1.408 . S
C1066 C1064 1.363 . S
C1066 C1067 1.370 . S
C1066 C1070 1.524 1_565 S
C1067 C1059 1.503 1_564 S
C1067 C1066 1.370 . S
C1067 C1068 1.403 . S
C1068 C1067 1.403 . S
C1068 C1069 1.404 . S
C1068 C1071 1.539 1_554 S
C1069 C1065 1.408 . S
C1069 C1068 1.404 . S
C1069 H1081 0.930 . S
C1070 C1066 1.524 1_545 S
C1070 H1082 0.956 . S
C1070 H1083 0.961 . S
C1070 H1084 0.961 . S
C1071 C1068 1.539 1_556 S
C1071 H1085 0.958 . S
C1071 H1086 0.961 . S
C1071 H1087 0.960 . S
H1072 C1056 0.931 . S
H1073 C1061 0.929 . S
H1074 C1062 0.960 . S
H1075 C1062 0.962 1_545 S
H1076 C1062 0.960 . S
H1077 C1063 0.960 1_554 S
H1078 C1063 0.959 1_554 S
H1079 C1063 0.962 . S
H1080 C1064 0.931 . S
H1081 C1069 0.930 . S
H1082 C1070 0.956 . S
H1083 C1070 0.961 . S
H1084 C1070 0.961 . S
H1085 C1071 0.958 . S
H1086 C1071 0.961 . S
H1087 C1071 0.960 . S
C1088 C1089 1.391 . S
C1088 C1090 1.394 . S
C1088 H1104 0.931 . S
C1089 C1088 1.391 . S
C1089 C1093 1.376 . S
C1090 C1088 1.394 . S
C1090 C1091 1.369 . S
C1090 C1094 1.531 . S
C1091 C1090 1.369 . S
C1091 C1092 1.410 . S
C1091 C1099 1.503 . S
C1092 C1091 1.410 . S
C1092 C1093 1.392 . S
C1092 C1095 1.511 . S
C1093 C1089 1.376 . S
C1093 C1092 1.392 . S
C1093 H1105 0.929 . S
C1094 C1090 1.531 . S
C1094 H1106 0.960 . S
C1094 H1107 0.962 . S
C1094 H1108 0.960 . S
C1095 C1092 1.511 . S
C1095 H1109 0.961 . S
C1095 H1110 0.961 . S
C1095 H1111 0.961 . S
C1096 C1097 1.370 . S
C1096 C1098 1.363 . S
C1096 H1112 0.931 . S
C1097 C1096 1.370 . S
C1097 C1101 1.408 . S
C1098 C1096 1.363 . S
C1098 C1099 1.370 . S
C1098 C1102 1.524 . S
C1099 C1091 1.503 . S
C1099 C1098 1.370 . S
C1099 C1100 1.403 . S
C1100 C1099 1.403 . S
C1100 C1101 1.404 . S
C1100 C1103 1.539 . S
C1101 C1097 1.408 . S
C1101 C1100 1.404 . S
C1101 H1113 0.930 . S
C1102 C1098 1.524 . S
C1102 H1114 0.956 . S
C1102 H1115 0.961 . S
C1102 H1116 0.961 . S
C1103 C1100 1.539 . S
C1103 H1117 0.958 . S
C1103 H1118 0.961 . S
C1103 H1119 0.960 . S
H1104 C1088 0.931 . S
H1105 C1093 0.929 . S
H1106 C1094 0.960 . S
H1107 C1094 0.962 . S
H1108 C1094 0.960 . S
H1109 C1095 0.961 . S
H1110 C1095 0.961 . S
H1111 C1095 0.961 . S
H1112 C1096 0.931 . S
H1113 C1101 0.930 . S
H1114 C1102 0.956 . S
H1115 C1102 0.961 . S
H1116 C1102 0.961 . S
H1117 C1103 0.958 . S
H1118 C1103 0.961 . S
H1119 C1103 0.960 . S
C1120 C1121 1.391 . S
C1120 C1122 1.394 . S
C1120 H1136 0.931 . S
C1121 C1120 1.391 . S
C1121 C1125 1.376 . S
C1122 C1120 1.394 . S
C1122 C1123 1.369 . S
C1122 C1126 1.531 1_545 S
C1123 C1122 1.369 . S
C1123 C1124 1.410 . S
C1123 C1131 1.503 1_545 S
C1124 C1123 1.410 . S
C1124 C1125 1.392 . S
C1124 C1127 1.511 . S
C1125 C1121 1.376 . S
C1125 C1124 1.392 . S
C1125 H1137 0.929 . S
C1126 C1122 1.531 1_565 S
C1126 H1138 0.960 . S
C1126 H1139 0.962 . S
C1126 H1140 0.960 . S
C1127 C1124 1.511 . S
C1127 H1141 0.961 . S
C1127 H1142 0.961 . S
C1127 H1143 0.961 . S
C1128 C1129 1.370 . S
C1128 C1130 1.363 . S
C1128 H1144 0.931 . S
C1129 C1128 1.370 . S
C1129 C1133 1.408 . S
C1130 C1128 1.363 . S
C1130 C1131 1.370 . S
C1130 C1134 1.524 1_565 S
C1131 C1123 1.503 1_565 S
C1131 C1130 1.370 . S
C1131 C1132 1.403 . S
C1132 C1131 1.403 . S
C1132 C1133 1.404 . S
C1132 C1135 1.539 . S
C1133 C1129 1.408 . S
C1133 C1132 1.404 . S
C1133 H1145 0.930 . S
C1134 C1130 1.524 1_545 S
C1134 H1146 0.956 . S
C1134 H1147 0.961 . S
C1134 H1148 0.961 . S
C1135 C1132 1.539 . S
C1135 H1149 0.958 . S
C1135 H1150 0.961 . S
C1135 H1151 0.960 . S
H1136 C1120 0.931 . S
H1137 C1125 0.929 . S
H1138 C1126 0.960 . S
H1139 C1126 0.962 . S
H1140 C1126 0.960 . S
H1141 C1127 0.961 . S
H1142 C1127 0.961 . S
H1143 C1127 0.961 . S
H1144 C1128 0.931 . S
H1145 C1133 0.930 . S
H1146 C1134 0.956 . S
H1147 C1134 0.961 . S
H1148 C1134 0.961 . S
H1149 C1135 0.958 . S
H1150 C1135 0.961 . S
H1151 C1135 0.960 . S
C1152 C1153 1.391 . S
C1152 C1154 1.394 . S
C1152 H1168 0.931 . S
C1153 C1152 1.391 . S
C1153 C1157 1.376 . S
C1154 C1152 1.394 . S
C1154 C1155 1.369 . S
C1154 C1158 1.531 . S
C1155 C1154 1.369 . S
C1155 C1156 1.410 . S
C1155 C1163 1.503 . S
C1156 C1155 1.410 . S
C1156 C1157 1.392 . S
C1156 C1159 1.511 . S
C1157 C1153 1.376 . S
C1157 C1156 1.392 . S
C1157 H1169 0.929 . S
C1158 C1154 1.531 . S
C1158 H1170 0.960 . S
C1158 H1171 0.962 . S
C1158 H1172 0.960 . S
C1159 C1156 1.511 . S
C1159 H1173 0.961 . S
C1159 H1174 0.961 . S
C1159 H1175 0.961 . S
C1160 C1161 1.370 . S
C1160 C1162 1.363 . S
C1160 H1176 0.931 . S
C1161 C1160 1.370 . S
C1161 C1165 1.408 . S
C1162 C1160 1.363 . S
C1162 C1163 1.370 . S
C1162 C1166 1.524 . S
C1163 C1155 1.503 . S
C1163 C1162 1.370 . S
C1163 C1164 1.403 . S
C1164 C1163 1.403 . S
C1164 C1165 1.404 . S
C1164 C1167 1.539 . S
C1165 C1161 1.408 . S
C1165 C1164 1.404 . S
C1165 H1177 0.930 . S
C1166 C1162 1.524 . S
C1166 H1178 0.956 . S
C1166 H1179 0.961 . S
C1166 H1180 0.961 . S
C1167 C1164 1.539 . S
C1167 H1181 0.958 . S
C1167 H1182 0.961 . S
C1167 H1183 0.960 . S
H1168 C1152 0.931 . S
H1169 C1157 0.929 . S
H1170 C1158 0.960 . S
H1171 C1158 0.962 . S
H1172 C1158 0.960 . S
H1173 C1159 0.961 . S
H1174 C1159 0.961 . S
H1175 C1159 0.961 . S
H1176 C1160 0.931 . S
H1177 C1165 0.930 . S
H1178 C1166 0.956 . S
H1179 C1166 0.961 . S
H1180 C1166 0.961 . S
H1181 C1167 0.958 . S
H1182 C1167 0.961 . S
H1183 C1167 0.960 . S
C1184 C1185 1.391 . S
C1184 C1186 1.394 . S
C1184 H1200 0.931 . S
C1185 C1184 1.391 . S
C1185 C1189 1.376 . S
C1186 C1184 1.394 . S
C1186 C1187 1.369 . S
C1186 C1190 1.531 1_565 S
C1187 C1186 1.369 . S
C1187 C1188 1.410 . S
C1187 C1195 1.503 1_564 S
C1188 C1187 1.410 . S
C1188 C1189 1.392 . S
C1188 C1191 1.511 1_554 S
C1189 C1185 1.376 . S
C1189 C1188 1.392 . S
C1189 H1201 0.929 . S
C1190 C1186 1.531 1_545 S
C1190 H1202 0.960 . S
C1190 H1203 0.962 . S
C1190 H1204 0.960 . S
C1191 C1188 1.511 1_556 S
C1191 H1205 0.961 . S
C1191 H1206 0.961 . S
C1191 H1207 0.961 . S
C1192 C1193 1.370 . S
C1192 C1194 1.363 . S
C1192 H1208 0.931 . S
C1193 C1192 1.370 . S
C1193 C1197 1.408 . S
C1194 C1192 1.363 . S
C1194 C1195 1.370 . S
C1194 C1198 1.524 1_556 S
C1195 C1187 1.503 1_546 S
C1195 C1194 1.370 . S
C1195 C1196 1.403 . S
C1196 C1195 1.403 . S
C1196 C1197 1.404 . S
C1196 C1199 1.539 1_545 S
C1197 C1193 1.408 . S
C1197 C1196 1.404 . S
C1197 H1209 0.930 . S
C1198 C1194 1.524 1_554 S
C1198 H1210 0.956 . S
C1198 H1211 0.961 . S
C1198 H1212 0.961 . S
C1199 C1196 1.539 1_565 S
C1199 H1213 0.958 . S
C1199 H1214 0.961 . S
C1199 H1215 0.960 . S
H1200 C1184 0.931 . S
H1201 C1189 0.929 . S
H1202 C1190 0.960 . S
H1203 C1190 0.962 . S
H1204 C1190 0.960 . S
H1205 C1191 0.961 . S
H1206 C1191 0.961 . S
H1207 C1191 0.961 . S
H1208 C1192 0.931 . S
H1209 C1197 0.930 . S
H1210 C1198 0.956 . S
H1211 C1198 0.961 . S
H1212 C1198 0.961 . S
H1213 C1199 0.958 . S
H1214 C1199 0.961 . S
H1215 C1199 0.960 . S
C1216 C1217 1.391 . S
C1216 C1218 1.394 . S
C1216 H1232 0.931 . S
C1217 C1216 1.391 . S
C1217 C1221 1.376 . S
C1218 C1216 1.394 . S
C1218 C1219 1.369 . S
C1218 C1222 1.531 . S
C1219 C1218 1.369 . S
C1219 C1220 1.410 . S
C1219 C1227 1.503 . S
C1220 C1219 1.410 . S
C1220 C1221 1.392 . S
C1220 C1223 1.511 . S
C1221 C1217 1.376 . S
C1221 C1220 1.392 . S
C1221 H1233 0.929 . S
C1222 C1218 1.531 . S
C1222 H1234 0.960 . S
C1222 H1235 0.962 . S
C1222 H1236 0.960 . S
C1223 C1220 1.511 . S
C1223 H1237 0.961 . S
C1223 H1238 0.961 . S
C1223 H1239 0.961 . S
C1224 C1225 1.370 . S
C1224 C1226 1.363 . S
C1224 H1240 0.931 . S
C1225 C1224 1.370 . S
C1225 C1229 1.408 . S
C1226 C1224 1.363 . S
C1226 C1227 1.370 . S
C1226 C1230 1.524 . S
C1227 C1219 1.503 . S
C1227 C1226 1.370 . S
C1227 C1228 1.403 . S
C1228 C1227 1.403 . S
C1228 C1229 1.404 . S
C1228 C1231 1.539 . S
C1229 C1225 1.408 . S
C1229 C1228 1.404 . S
C1229 H1241 0.930 . S
C1230 C1226 1.524 . S
C1230 H1242 0.956 . S
C1230 H1243 0.961 . S
C1230 H1244 0.961 . S
C1231 C1228 1.539 . S
C1231 H1245 0.958 . S
C1231 H1246 0.961 . S
C1231 H1247 0.960 . S
H1232 C1216 0.931 . S
H1233 C1221 0.929 . S
H1234 C1222 0.960 . S
H1235 C1222 0.962 . S
H1236 C1222 0.960 . S
H1237 C1223 0.961 . S
H1238 C1223 0.961 . S
H1239 C1223 0.961 . S
H1240 C1224 0.931 . S
H1241 C1229 0.930 . S
H1242 C1230 0.956 . S
H1243 C1230 0.961 . S
H1244 C1230 0.961 . S
H1245 C1231 0.958 . S
H1246 C1231 0.961 . S
H1247 C1231 0.960 . S
C225 C163 1.377 . S
C233 C7 1.400 . S
C257 C217 1.364 . S
C265 C23 1.337 . S
C289 C35 1.376 . S
C297 C133 1.393 . S
C321 C191 1.240 . S
C329 C51 1.258 . S
C353 C63 1.376 . S
C361 C189 1.387 . S
C385 C79 1.335 . S
C393 C161 1.387 . S
C417 C91 1.409 . S
C425 C219 1.405 . S
C449 C107 1.212 . S
C457 C135 1.241 . S
C481 C49 1.446 . S
C489 C119 1.440 . S
C513 C149 1.363 . S
C521 C21 1.362 . S
C545 C175 1.455 . S
C553 C77 1.458 . S
C577 C205 1.333 . S
C585 C105 1.344 . S
C609 C65 1.286 . S
C617 C121 1.313 . S
C641 C147 1.315 . S
C649 C93 1.284 . S
C673 C203 1.335 . S
C681 C37 1.294 . S
C705 C9 1.318 . S
C713 C177 1.321 . S
C737 C3 1.304 . S
C745 C59 1.315 . S
C769 C22 1.293 . S
C777 C78 1.286 . S
C801 C31 1.412 . S
C809 C87 1.430 . S
C833 C106 1.236 . S
C841 C50 1.228 . S
C865 C115 1.370 . S
C873 C171 1.357 . S
C897 C190 1.213 . S
C905 C134 1.210 . S
C929 C148 1.257 . S
C937 C204 1.262 . S
C961 C213 1.321 . S
C969 C157 1.338 . S
C993 C101 1.353 . S
C1001 C17 1.369 . S
C1025 C36 1.317 . S
C1033 C64 1.308 . S
C1057 C45 1.361 . S
C1065 C73 1.382 . S
C1089 C8 1.213 . S
C1097 C92 1.200 . S
C1121 C129 1.296 . S
C1129 C218 1.308 . S
C1153 C176 1.294 . S
C1161 C143 1.280 . S
C1185 C162 1.325 . S
C1193 C185 1.315 . S
C1217 C199 1.234 . S
C1225 C120 1.276 . S
