# Generated by pormake.
# Topology umr, (4)-cn, num edge types: 1
# Building blocks:
#     Node 0, Type 0, BuildingBlock: GALJAG_clean_sbu_0, # of connection points: 4
#     Node 1, Type 0, BuildingBlock: GALJAG_clean_sbu_0, # of connection points: 4
#     Node 2, Type 0, BuildingBlock: GALJAG_clean_sbu_0, # of connection points: 4
#     Node 3, Type 0, BuildingBlock: GALJAG_clean_sbu_0, # of connection points: 4
#     Node 4, Type 0, BuildingBlock: GALJAG_clean_sbu_0, # of connection points: 4
#     Node 5, Type 0, BuildingBlock: GALJAG_clean_sbu_0, # of connection points: 4
#     Node 6, Type 0, BuildingBlock: GALJAG_clean_sbu_0, # of connection points: 4
#     Node 7, Type 0, BuildingBlock: GALJAG_clean_sbu_0, # of connection points: 4
#     Node 8, Type 0, BuildingBlock: GALJAG_clean_sbu_0, # of connection points: 4
#     Node 9, Type 0, BuildingBlock: GALJAG_clean_sbu_0, # of connection points: 4
#     Node 10, Type 0, BuildingBlock: GALJAG_clean_sbu_0, # of connection points: 4
#     Node 11, Type 0, BuildingBlock: GALJAG_clean_sbu_0, # of connection points: 4
#     Node 12, Type 0, BuildingBlock: GALJAG_clean_sbu_0, # of connection points: 4
#     Node 13, Type 0, BuildingBlock: GALJAG_clean_sbu_0, # of connection points: 4
#     Node 14, Type 0, BuildingBlock: GALJAG_clean_sbu_0, # of connection points: 4
#     Node 15, Type 0, BuildingBlock: GALJAG_clean_sbu_0, # of connection points: 4
#     Node 16, Type 0, BuildingBlock: GALJAG_clean_sbu_0, # of connection points: 4
#     Node 17, Type 0, BuildingBlock: GALJAG_clean_sbu_0, # of connection points: 4
#     Node 18, Type 0, BuildingBlock: GALJAG_clean_sbu_0, # of connection points: 4
#     Node 19, Type 0, BuildingBlock: GALJAG_clean_sbu_0, # of connection points: 4
#     Node 20, Type 0, BuildingBlock: GALJAG_clean_sbu_0, # of connection points: 4
#     Node 21, Type 0, BuildingBlock: GALJAG_clean_sbu_0, # of connection points: 4
#     Node 22, Type 0, BuildingBlock: GALJAG_clean_sbu_0, # of connection points: 4
#     Node 23, Type 0, BuildingBlock: GALJAG_clean_sbu_0, # of connection points: 4
#     Node 24, Type 0, BuildingBlock: GALJAG_clean_sbu_0, # of connection points: 4
#     Node 25, Type 0, BuildingBlock: GALJAG_clean_sbu_0, # of connection points: 4
#     Node 26, Type 0, BuildingBlock: GALJAG_clean_sbu_0, # of connection points: 4
#     Node 27, Type 0, BuildingBlock: GALJAG_clean_sbu_0, # of connection points: 4
#     Node 28, Type 0, BuildingBlock: GALJAG_clean_sbu_0, # of connection points: 4
#     Node 29, Type 0, BuildingBlock: GALJAG_clean_sbu_0, # of connection points: 4
#     Node 30, Type 0, BuildingBlock: GALJAG_clean_sbu_0, # of connection points: 4
#     Node 31, Type 0, BuildingBlock: GALJAG_clean_sbu_0, # of connection points: 4
#     Edge 32, Type (0, 0), BuildingBlock: EZIPEK_clean_linker_0, # of connection points: 2
#     Edge 33, Type (0, 0), BuildingBlock: EZIPEK_clean_linker_0, # of connection points: 2
#     Edge 34, Type (0, 0), BuildingBlock: EZIPEK_clean_linker_0, # of connection points: 2
#     Edge 35, Type (0, 0), BuildingBlock: EZIPEK_clean_linker_0, # of connection points: 2
#     Edge 36, Type (0, 0), BuildingBlock: EZIPEK_clean_linker_0, # of connection points: 2
#     Edge 37, Type (0, 0), BuildingBlock: EZIPEK_clean_linker_0, # of connection points: 2
#     Edge 38, Type (0, 0), BuildingBlock: EZIPEK_clean_linker_0, # of connection points: 2
#     Edge 39, Type (0, 0), BuildingBlock: EZIPEK_clean_linker_0, # of connection points: 2
#     Edge 40, Type (0, 0), BuildingBlock: EZIPEK_clean_linker_0, # of connection points: 2
#     Edge 41, Type (0, 0), BuildingBlock: EZIPEK_clean_linker_0, # of connection points: 2
#     Edge 42, Type (0, 0), BuildingBlock: EZIPEK_clean_linker_0, # of connection points: 2
#     Edge 43, Type (0, 0), BuildingBlock: EZIPEK_clean_linker_0, # of connection points: 2
#     Edge 44, Type (0, 0), BuildingBlock: EZIPEK_clean_linker_0, # of connection points: 2
#     Edge 45, Type (0, 0), BuildingBlock: EZIPEK_clean_linker_0, # of connection points: 2
#     Edge 46, Type (0, 0), BuildingBlock: EZIPEK_clean_linker_0, # of connection points: 2
#     Edge 47, Type (0, 0), BuildingBlock: EZIPEK_clean_linker_0, # of connection points: 2
#     Edge 48, Type (0, 0), BuildingBlock: EZIPEK_clean_linker_0, # of connection points: 2
#     Edge 49, Type (0, 0), BuildingBlock: EZIPEK_clean_linker_0, # of connection points: 2
#     Edge 50, Type (0, 0), BuildingBlock: EZIPEK_clean_linker_0, # of connection points: 2
#     Edge 51, Type (0, 0), BuildingBlock: EZIPEK_clean_linker_0, # of connection points: 2
#     Edge 52, Type (0, 0), BuildingBlock: EZIPEK_clean_linker_0, # of connection points: 2
#     Edge 53, Type (0, 0), BuildingBlock: EZIPEK_clean_linker_0, # of connection points: 2
#     Edge 54, Type (0, 0), BuildingBlock: EZIPEK_clean_linker_0, # of connection points: 2
#     Edge 55, Type (0, 0), BuildingBlock: EZIPEK_clean_linker_0, # of connection points: 2
#     Edge 56, Type (0, 0), BuildingBlock: EZIPEK_clean_linker_0, # of connection points: 2
#     Edge 57, Type (0, 0), BuildingBlock: EZIPEK_clean_linker_0, # of connection points: 2
#     Edge 58, Type (0, 0), BuildingBlock: EZIPEK_clean_linker_0, # of connection points: 2
#     Edge 59, Type (0, 0), BuildingBlock: EZIPEK_clean_linker_0, # of connection points: 2
#     Edge 60, Type (0, 0), BuildingBlock: EZIPEK_clean_linker_0, # of connection points: 2
#     Edge 61, Type (0, 0), BuildingBlock: EZIPEK_clean_linker_0, # of connection points: 2
#     Edge 62, Type (0, 0), BuildingBlock: EZIPEK_clean_linker_0, # of connection points: 2
#     Edge 63, Type (0, 0), BuildingBlock: EZIPEK_clean_linker_0, # of connection points: 2
#     Edge 64, Type (0, 0), BuildingBlock: EZIPEK_clean_linker_0, # of connection points: 2
#     Edge 65, Type (0, 0), BuildingBlock: EZIPEK_clean_linker_0, # of connection points: 2
#     Edge 66, Type (0, 0), BuildingBlock: EZIPEK_clean_linker_0, # of connection points: 2
#     Edge 67, Type (0, 0), BuildingBlock: EZIPEK_clean_linker_0, # of connection points: 2
#     Edge 68, Type (0, 0), BuildingBlock: EZIPEK_clean_linker_0, # of connection points: 2
#     Edge 69, Type (0, 0), BuildingBlock: EZIPEK_clean_linker_0, # of connection points: 2
#     Edge 70, Type (0, 0), BuildingBlock: EZIPEK_clean_linker_0, # of connection points: 2
#     Edge 71, Type (0, 0), BuildingBlock: EZIPEK_clean_linker_0, # of connection points: 2
#     Edge 72, Type (0, 0), BuildingBlock: EZIPEK_clean_linker_0, # of connection points: 2
#     Edge 73, Type (0, 0), BuildingBlock: EZIPEK_clean_linker_0, # of connection points: 2
#     Edge 74, Type (0, 0), BuildingBlock: EZIPEK_clean_linker_0, # of connection points: 2
#     Edge 75, Type (0, 0), BuildingBlock: EZIPEK_clean_linker_0, # of connection points: 2
#     Edge 76, Type (0, 0), BuildingBlock: EZIPEK_clean_linker_0, # of connection points: 2
#     Edge 77, Type (0, 0), BuildingBlock: EZIPEK_clean_linker_0, # of connection points: 2
#     Edge 78, Type (0, 0), BuildingBlock: EZIPEK_clean_linker_0, # of connection points: 2
#     Edge 79, Type (0, 0), BuildingBlock: EZIPEK_clean_linker_0, # of connection points: 2
#     Edge 80, Type (0, 0), BuildingBlock: EZIPEK_clean_linker_0, # of connection points: 2
#     Edge 81, Type (0, 0), BuildingBlock: EZIPEK_clean_linker_0, # of connection points: 2
#     Edge 82, Type (0, 0), BuildingBlock: EZIPEK_clean_linker_0, # of connection points: 2
#     Edge 83, Type (0, 0), BuildingBlock: EZIPEK_clean_linker_0, # of connection points: 2
#     Edge 84, Type (0, 0), BuildingBlock: EZIPEK_clean_linker_0, # of connection points: 2
#     Edge 85, Type (0, 0), BuildingBlock: EZIPEK_clean_linker_0, # of connection points: 2
#     Edge 86, Type (0, 0), BuildingBlock: EZIPEK_clean_linker_0, # of connection points: 2
#     Edge 87, Type (0, 0), BuildingBlock: EZIPEK_clean_linker_0, # of connection points: 2
#     Edge 88, Type (0, 0), BuildingBlock: EZIPEK_clean_linker_0, # of connection points: 2
#     Edge 89, Type (0, 0), BuildingBlock: EZIPEK_clean_linker_0, # of connection points: 2
#     Edge 90, Type (0, 0), BuildingBlock: EZIPEK_clean_linker_0, # of connection points: 2
#     Edge 91, Type (0, 0), BuildingBlock: EZIPEK_clean_linker_0, # of connection points: 2
#     Edge 92, Type (0, 0), BuildingBlock: EZIPEK_clean_linker_0, # of connection points: 2
#     Edge 93, Type (0, 0), BuildingBlock: EZIPEK_clean_linker_0, # of connection points: 2
#     Edge 94, Type (0, 0), BuildingBlock: EZIPEK_clean_linker_0, # of connection points: 2
#     Edge 95, Type (0, 0), BuildingBlock: EZIPEK_clean_linker_0, # of connection points: 2
# Relax obj value: 0.027
# Max RMSD: 0.060
# Mean RMSD: 0.060
data_MOF--net-umr--node1-GALJAG_clean_sbu_0--edge1-EZIPEK_clean_linker_0
_symmetry_space_group_name_H-M    P1
_symmetry_Int_Tables_number       1
_symmetry_cell_setting            triclinic
loop_
_symmetry_equiv_pos_as_xyz
'x, y, z'
_cell_length_a     59.322074
_cell_length_b     59.267941
_cell_length_c     20.628981
_cell_angle_alpha  90.028146
_cell_angle_beta   89.995124
_cell_angle_gamma 89.938114
loop_
_atom_site_label
_atom_site_type_symbol
_atom_site_fract_x
_atom_site_fract_y
_atom_site_fract_z
_atom_type_partial_charge
In0 In 0.15381 0.27555 0.04805 0.0
O1 O 0.14286 0.24632 0.11357 0.0
O2 O 0.16379 0.27213 0.1532 0.0
C3 C 0.14778 0.25946 0.92745 0.0
C4 C 0.1207 0.30439 0.07673 0.0
C5 C 0.19701 0.28637 0.02932 0.0
O6 O 0.15053 0.24654 0.97552 0.0
O7 O 0.14701 0.28021 0.9406 0.0
O8 O 0.18158 0.30105 0.02729 0.0
O9 O 0.19078 0.26656 0.04256 0.0
C10 C 0.15287 0.25423 0.16271 0.0
O11 O 0.14119 0.31003 0.07808 0.0
O12 O 0.11676 0.2844 0.05901 0.0
In13 In 0.95908 0.90558 0.30806 0.0
O14 O 0.92323 0.89573 0.33265 0.0
O15 O 0.94786 0.86959 0.32469 0.0
C16 C 0.95033 0.94912 0.28763 0.0
C17 C 0.97959 0.90338 0.42372 0.0
C18 C 0.97624 0.89817 0.18932 0.0
O19 O 0.93511 0.93432 0.2839 0.0
O20 O 0.96967 0.94212 0.3033 0.0
O21 O 0.9887 0.90085 0.23836 0.0
O22 O 0.9554 0.89784 0.20082 0.0
C23 C 0.92779 0.87501 0.33769 0.0
O24 O 0.98647 0.89203 0.37572 0.0
O25 O 0.96316 0.91631 0.41266 0.0
In26 In 0.33632 0.71392 0.54982 0.0
O27 O 0.34833 0.68024 0.58748 0.0
O28 O 0.37314 0.70357 0.5538 0.0
C29 C 0.29441 0.70001 0.52571 0.0
C30 C 0.33797 0.73539 0.66472 0.0
C31 C 0.34186 0.73198 0.43139 0.0
O32 O 0.31087 0.68648 0.52541 0.0
O33 O 0.29897 0.72022 0.53981 0.0
O34 O 0.33771 0.74403 0.48056 0.0
O35 O 0.34442 0.71124 0.44262 0.0
C36 C 0.36892 0.68479 0.57985 0.0
O37 O 0.35029 0.74116 0.6176 0.0
O38 O 0.3241 0.71987 0.65272 0.0
In39 In 0.53355 0.08257 0.80028 0.0
O40 O 0.56918 0.09429 0.81961 0.0
O41 O 0.54292 0.11904 0.81924 0.0
C42 C 0.54435 0.03912 0.78351 0.0
C43 C 0.51278 0.08492 0.91644 0.0
C44 C 0.51748 0.09016 0.67972 0.0
O45 O 0.55919 0.05425 0.78793 0.0
O46 O 0.52425 0.04579 0.78953 0.0
O47 O 0.50473 0.08547 0.72683 0.0
O48 O 0.53805 0.09212 0.69401 0.0
C49 C 0.56354 0.11463 0.82752 0.0
O50 O 0.50429 0.09365 0.86612 0.0
O51 O 0.53087 0.07426 0.90724 0.0
In52 In 0.15867 0.70882 0.44534 0.0
O53 O 0.14643 0.73757 0.37967 0.0
O54 O 0.16882 0.71303 0.34016 0.0
C55 C 0.15156 0.72428 0.56646 0.0
C56 C 0.126 0.67976 0.41662 0.0
C57 C 0.20186 0.69742 0.46265 0.0
O58 O 0.15627 0.73729 0.51988 0.0
O59 O 0.14942 0.70378 0.55136 0.0
O60 O 0.18659 0.68271 0.45713 0.0
O61 O 0.19542 0.71765 0.45769 0.0
C62 C 0.15684 0.73024 0.33051 0.0
O63 O 0.14638 0.67379 0.42067 0.0
O64 O 0.12192 0.70017 0.42941 0.0
In65 In 0.52728 0.90455 0.69679 0.0
O66 O 0.49811 0.89647 0.62795 0.0
O67 O 0.52561 0.91602 0.59231 0.0
C68 C 0.50952 0.89904 0.81579 0.0
C69 C 0.55392 0.86998 0.66461 0.0
C70 C 0.54124 0.94647 0.7203 0.0
O71 O 0.49735 0.90252 0.76652 0.0
O72 O 0.53026 0.89675 0.80432 0.0
O73 O 0.55473 0.92998 0.72099 0.0
O74 O 0.52108 0.94194 0.70594 0.0
C75 C 0.5072 0.90631 0.58024 0.0
O76 O 0.5612 0.88989 0.66988 0.0
O77 O 0.53345 0.86722 0.67919 0.0
In78 In 0.33573 0.28581 0.95896 0.0
O79 O 0.34216 0.32196 0.9283 0.0
O80 O 0.37056 0.3008 0.94757 0.0
C81 C 0.2912 0.2911 0.97283 0.0
C82 C 0.34318 0.26311 0.84779 0.0
C83 C 0.34356 0.27232 0.08177 0.0
O84 O 0.30459 0.30761 0.97386 0.0
O85 O 0.30009 0.27208 0.96267 0.0
O86 O 0.34117 0.25846 0.03577 0.0
O87 O 0.34294 0.2928 0.0656 0.0
C88 C 0.36331 0.31972 0.9287 0.0
O89 O 0.35296 0.25778 0.89999 0.0
O90 O 0.32929 0.27913 0.85221 0.0
In91 In 0.96314 0.0861 0.20739 0.0
O92 O 0.99059 0.10338 0.14667 0.0
O93 O 0.97181 0.07659 0.10391 0.0
C94 C 0.97819 0.0935 0.32885 0.0
C95 C 0.9303 0.11404 0.17153 0.0
C96 C 0.95318 0.04275 0.22695 0.0
O97 O 0.99139 0.08884 0.28265 0.0
O98 O 0.95777 0.09556 0.31323 0.0
O99 O 0.93856 0.0581 0.23214 0.0
O100 O 0.97263 0.0491 0.21007 0.0
C101 C 0.98654 0.09167 0.09681 0.0
O102 O 0.92841 0.09292 0.16698 0.0
O103 O 0.94832 0.12111 0.19688 0.0
In104 In 0.83677 0.71234 0.95924 0.0
O105 O 0.84929 0.67718 0.93631 0.0
O106 O 0.87316 0.70422 0.93676 0.0
C107 C 0.79316 0.70138 0.96925 0.0
C108 C 0.83965 0.73549 0.84757 0.0
C109 C 0.843 0.72606 0.0828 0.0
O110 O 0.80835 0.68648 0.96577 0.0
O111 O 0.79996 0.7215 0.96621 0.0
O112 O 0.83668 0.73927 0.03836 0.0
O113 O 0.84758 0.70633 0.06416 0.0
C114 C 0.86931 0.68358 0.92641 0.0
O115 O 0.84856 0.74274 0.89922 0.0
O116 O 0.82895 0.71726 0.85291 0.0
In117 In 0.02922 0.08752 0.70996 0.0
O118 O 5e-05 0.10004 0.64561 0.0
O119 O 0.02506 0.07846 0.60463 0.0
C120 C 0.01676 0.0977 0.83228 0.0
C121 C 0.06173 0.11551 0.67349 0.0
C122 C 0.03571 0.04364 0.73313 0.0
O123 O 0.00274 0.09116 0.79017 0.0
O124 O 0.0364 0.10104 0.81122 0.0
O125 O 0.05175 0.0576 0.73425 0.0
O126 O 0.01665 0.05167 0.71891 0.0
C127 C 0.00755 0.09009 0.59565 0.0
O128 O 0.06517 0.09462 0.68059 0.0
O129 O 0.04211 0.12245 0.68682 0.0
In130 In 0.65336 0.27785 0.46235 0.0
O131 O 0.63885 0.24938 0.39947 0.0
O132 O 0.6627 0.27208 0.35775 0.0
C133 C 0.64508 0.26751 0.58669 0.0
C134 C 0.62271 0.30836 0.42804 0.0
C135 C 0.69755 0.28302 0.48075 0.0
O136 O 0.64775 0.25239 0.54389 0.0
O137 O 0.64516 0.2875 0.56582 0.0
O138 O 0.68425 0.29972 0.47968 0.0
O139 O 0.68862 0.26399 0.47117 0.0
C140 C 0.64952 0.25569 0.34945 0.0
O141 O 0.64363 0.31208 0.42287 0.0
O142 O 0.61736 0.2898 0.45374 0.0
In143 In 0.4581 0.91139 0.19663 0.0
O144 O 0.48725 0.90042 0.13065 0.0
O145 O 0.45971 0.91843 0.08899 0.0
C146 C 0.47541 0.90476 0.31563 0.0
C147 C 0.42824 0.87901 0.17175 0.0
C148 C 0.44771 0.95483 0.21478 0.0
O149 O 0.48779 0.90849 0.26698 0.0
O150 O 0.45464 0.90333 0.30381 0.0
O151 O 0.43326 0.9394 0.2212 0.0
O152 O 0.46706 0.94849 0.19713 0.0
C153 C 0.47815 0.9083 0.08001 0.0
O154 O 0.42282 0.89959 0.17301 0.0
O155 O 0.44852 0.87459 0.18511 0.0
In156 In 0.83706 0.27718 0.54333 0.0
O157 O 0.85641 0.25329 0.61131 0.0
O158 O 0.82553 0.26758 0.64371 0.0
C159 C 0.84376 0.26241 0.42183 0.0
C160 C 0.8654 0.3105 0.57294 0.0
C161 C 0.79288 0.28349 0.5293 0.0
O162 O 0.84291 0.24899 0.46939 0.0
O163 O 0.8421 0.28302 0.43581 0.0
O164 O 0.80655 0.29986 0.52878 0.0
O165 O 0.80145 0.26423 0.53845 0.0
C166 C 0.84251 0.25573 0.65722 0.0
O167 O 0.84432 0.31271 0.5784 0.0
O168 O 0.87211 0.29196 0.54996 0.0
In169 In 0.46323 0.09015 0.29979 0.0
O170 O 0.42988 0.10523 0.33067 0.0
O171 O 0.456 0.12784 0.30183 0.0
C172 C 0.44967 0.04783 0.27924 0.0
C173 C 0.48325 0.09041 0.41687 0.0
C174 C 0.48127 0.09393 0.18067 0.0
O175 O 0.43626 0.0643 0.27395 0.0
O176 O 0.46946 0.05263 0.29681 0.0
O177 O 0.49341 0.09113 0.23047 0.0
O178 O 0.46047 0.09606 0.19147 0.0
C179 C 0.43633 0.12537 0.32394 0.0
O180 O 0.49214 0.09987 0.36822 0.0
O181 O 0.46495 0.08035 0.40585 0.0
In182 In 0.65478 0.70658 0.03954 0.0
O183 O 0.63926 0.73473 0.10216 0.0
O184 O 0.6644 0.71348 0.1437 0.0
C185 C 0.64543 0.72065 0.91833 0.0
C186 C 0.62697 0.67375 0.0756 0.0
C187 C 0.69847 0.69914 0.01642 0.0
O188 O 0.65158 0.73408 0.96251 0.0
O189 O 0.64246 0.70057 0.93649 0.0
O190 O 0.68404 0.68356 0.01226 0.0
O191 O 0.69095 0.71818 0.03313 0.0
C192 C 0.65052 0.72932 0.15188 0.0
O193 O 0.64811 0.67137 0.07749 0.0
O194 O 0.61986 0.6923 0.05357 0.0
In195 In 0.02708 0.9056 0.8082 0.0
O196 O 0.06213 0.89254 0.82957 0.0
O197 O 0.03524 0.86867 0.82381 0.0
C198 C 0.03579 0.94949 0.79396 0.0
C199 C 0.00692 0.90394 0.92445 0.0
C200 C 0.01206 0.89897 0.68682 0.0
O201 O 0.05136 0.93494 0.79481 0.0
O202 O 0.01611 0.94198 0.80265 0.0
O203 O -0.00113 0.89905 0.73493 0.0
O204 O 0.03265 0.90132 0.70015 0.0
C205 C 0.0558 0.8723 0.83525 0.0
O206 O -0.00256 0.89622 0.87415 0.0
O207 O 0.02574 0.91324 0.91518 0.0
In208 In 0.64851 0.77469 0.53933 0.0
O209 O 0.63667 0.74564 0.60475 0.0
O210 O 0.65738 0.77136 0.64549 0.0
C211 C 0.64379 0.76088 0.41588 0.0
C212 C 0.61492 0.80354 0.56382 0.0
C213 C 0.69252 0.78304 0.52772 0.0
O214 O 0.64263 0.74722 0.46292 0.0
O215 O 0.64656 0.78128 0.43123 0.0
O216 O 0.67815 0.79881 0.52949 0.0
O217 O 0.68471 0.76331 0.53348 0.0
C218 C 0.64624 0.75357 0.65464 0.0
O219 O 0.63539 0.80904 0.56902 0.0
O220 O 0.61134 0.78391 0.54263 0.0
In221 In 0.4644 0.40584 0.7903 0.0
O222 O 0.49257 0.38917 0.85054 0.0
O223 O 0.47231 0.4147 0.89416 0.0
C224 C 0.47766 0.39621 0.66836 0.0
C225 C 0.42972 0.38068 0.82862 0.0
C226 C 0.45807 0.4499 0.76962 0.0
O227 O 0.49117 0.40343 0.7108 0.0
O228 O 0.45804 0.39217 0.6886 0.0
O229 O 0.44235 0.43575 0.76302 0.0
O230 O 0.47679 0.44191 0.78735 0.0
C231 C 0.48786 0.40042 0.90091 0.0
O232 O 0.42839 0.40189 0.82472 0.0
O233 O 0.44828 0.37207 0.81165 0.0
In234 In 0.83749 0.21054 0.04218 0.0
O235 O 0.84828 0.23992 0.10744 0.0
O236 O 0.82908 0.2131 0.1486 0.0
C237 C 0.84738 0.22447 0.92174 0.0
C238 C 0.86645 0.1775 0.06967 0.0
C239 C 0.79316 0.20799 0.02304 0.0
O240 O 0.852 0.23617 0.97126 0.0
O241 O 0.83906 0.20534 0.93346 0.0
O242 O 0.80533 0.19058 0.02825 0.0
O243 O 0.80324 0.22665 0.02865 0.0
C244 C 0.83943 0.23138 0.1575 0.0
O245 O 0.84552 0.17408 0.06608 0.0
O246 O 0.87287 0.19726 0.05695 0.0
In247 In 0.03311 0.5817 0.29939 0.0
O248 O 0.0038 0.59161 0.36628 0.0
O249 O 0.03153 0.57357 0.40659 0.0
C250 C 0.01704 0.58918 0.17904 0.0
C251 C 0.06162 0.61518 0.32476 0.0
C252 C 0.04446 0.53837 0.2822 0.0
O253 O 0.00427 0.58432 0.22601 0.0
O254 O 0.03757 0.59131 0.19345 0.0
O255 O 0.05915 0.55363 0.28781 0.0
O256 O 0.02428 0.54485 0.28746 0.0
C257 C 0.01301 0.58344 0.41635 0.0
O258 O 0.0683 0.59522 0.31525 0.0
O259 O 0.0407 0.61849 0.31907 0.0
In260 In 0.65335 0.21362 0.96028 0.0
O261 O 0.64629 0.17722 0.93443 0.0
O262 O 0.61849 0.20028 0.93972 0.0
C263 C 0.69786 0.20832 0.97375 0.0
C264 C 0.64763 0.23728 0.85045 0.0
C265 C 0.64488 0.22477 0.08465 0.0
O266 O 0.68498 0.19183 0.9624 0.0
O267 O 0.68838 0.22734 0.97687 0.0
O268 O 0.65021 0.23918 0.04224 0.0
O269 O 0.64231 0.20501 0.06336 0.0
C270 C 0.62538 0.18056 0.92759 0.0
O271 O 0.63699 0.24222 0.9016 0.0
O272 O 0.66141 0.22124 0.8555 0.0
In273 In 0.02841 0.40363 0.19224 0.0
O274 O -0.00094 0.39553 0.12372 0.0
O275 O 0.02765 0.41271 0.08552 0.0
C276 C 0.0098 0.39825 0.31035 0.0
C277 C 0.05609 0.36918 0.16735 0.0
C278 C 0.04189 0.44592 0.21505 0.0
O279 O -0.002 0.40188 0.26047 0.0
O280 O 0.0306 0.39591 0.30005 0.0
O281 O 0.05544 0.42952 0.21691 0.0
O282 O 0.02189 0.44115 0.19965 0.0
C283 C 0.00871 0.40386 0.0746 0.0
O284 O 0.06284 0.38932 0.16961 0.0
O285 O 0.03548 0.36614 0.17976 0.0
In286 In 0.83208 0.77975 0.46122 0.0
O287 O 0.84656 0.75176 0.3965 0.0
O288 O 0.82313 0.7751 0.35561 0.0
C289 C 0.84006 0.76767 0.58457 0.0
C290 C 0.8632 0.81035 0.4314 0.0
C291 C 0.78784 0.78501 0.47983 0.0
O292 O 0.83734 0.75317 0.5401 0.0
O293 O 0.84011 0.78792 0.5659 0.0
O294 O 0.80123 0.80161 0.48097 0.0
O295 O 0.79669 0.76611 0.4677 0.0
C296 C 0.83617 0.7586 0.34655 0.0
O297 O 0.84235 0.81447 0.42611 0.0
O298 O 0.86823 0.7913 0.45453 0.0
In299 In 0.46202 0.59015 0.71988 0.0
O300 O 0.49254 0.60108 0.65919 0.0
O301 O 0.46545 0.58374 0.61259 0.0
C302 C 0.473 0.59771 0.8446 0.0
C303 C 0.4318 0.62151 0.68815 0.0
C304 C 0.4566 0.54554 0.72848 0.0
O305 O 0.48742 0.59897 0.7996 0.0
O306 O 0.45315 0.59356 0.82646 0.0
O307 O 0.44003 0.5588 0.72286 0.0
O308 O 0.47579 0.55472 0.72847 0.0
C309 C 0.48419 0.59349 0.6071 0.0
O310 O 0.42652 0.60101 0.69479 0.0
O311 O 0.45197 0.6264 0.70156 0.0
In312 In 0.34211 0.21983 0.46117 0.0
O313 O 0.3518 0.25013 0.39749 0.0
O314 O 0.3325 0.22336 0.35608 0.0
C315 C 0.35081 0.23194 0.58467 0.0
C316 C 0.3738 0.19084 0.42312 0.0
C317 C 0.29848 0.21105 0.48122 0.0
O318 O 0.3458 0.24626 0.54155 0.0
O319 O 0.35328 0.21205 0.56429 0.0
O320 O 0.31317 0.19561 0.48106 0.0
O321 O 0.3057 0.23066 0.46987 0.0
C322 C 0.34249 0.24188 0.3475 0.0
O323 O 0.35351 0.18495 0.43115 0.0
O324 O 0.37829 0.21112 0.43686 0.0
In325 In 0.52675 0.58802 0.21967 0.0
O326 O 0.49942 0.60567 0.15863 0.0
O327 O 0.51801 0.57847 0.11699 0.0
C328 C 0.51428 0.59716 0.34229 0.0
C329 C 0.56111 0.61351 0.18148 0.0
C330 C 0.53249 0.54396 0.24042 0.0
O331 O 0.50019 0.59144 0.2994 0.0
O332 O 0.53413 0.59997 0.32221 0.0
O333 O 0.54859 0.55779 0.24493 0.0
O334 O 0.51369 0.55228 0.22464 0.0
C335 C 0.50334 0.59359 0.10927 0.0
O336 O 0.56196 0.59224 0.17953 0.0
O337 O 0.54328 0.62195 0.20451 0.0
In338 In 0.15378 0.77831 0.94589 0.0
O339 O 0.14313 0.74923 0.87906 0.0
O340 O 0.16243 0.77623 0.8393 0.0
C341 C 0.14983 0.76251 0.06736 0.0
C342 C 0.11946 0.80645 0.92462 0.0
C343 C 0.19711 0.78885 0.96052 0.0
O344 O 0.14956 0.74947 0.01877 0.0
O345 O 0.15124 0.78324 0.05456 0.0
O346 O 0.18191 0.80381 0.96094 0.0
O347 O 0.1905 0.76892 0.95032 0.0
C348 C 0.15218 0.75795 0.8295 0.0
O349 O 0.13975 0.81229 0.91743 0.0
O350 O 0.11642 0.78672 0.94574 0.0
In351 In 0.9584 0.40889 0.69186 0.0
O352 O 0.98669 0.3973 0.62378 0.0
O353 O 0.9599 0.41712 0.58489 0.0
C354 C 0.97602 0.40175 0.8104 0.0
C355 C 0.92761 0.3775 0.66542 0.0
C356 C 0.94907 0.45238 0.71165 0.0
O357 O 0.98831 0.40486 0.76117 0.0
O358 O 0.95517 0.40102 0.79926 0.0
O359 O 0.93432 0.43725 0.71847 0.0
O360 O 0.9682 0.44572 0.69301 0.0
C361 C 0.9778 0.40625 0.57428 0.0
O362 O 0.92277 0.39821 0.66822 0.0
O363 O 0.94775 0.37247 0.67906 0.0
In364 In 0.33398 0.78262 0.04952 0.0
O365 O 0.34376 0.81824 0.07615 0.0
O366 O 0.36992 0.79339 0.06721 0.0
C367 C 0.29055 0.79083 0.02521 0.0
C368 C 0.33598 0.76255 0.16602 0.0
C369 C 0.34292 0.76754 0.92906 0.0
O370 O 0.30514 0.80632 0.02295 0.0
O371 O 0.29775 0.77161 0.04125 0.0
O372 O 0.33571 0.7547 0.97335 0.0
O373 O 0.3475 0.78731 0.9472 0.0
C374 C 0.36449 0.8135 0.08043 0.0
O375 O 0.34554 0.75403 0.11684 0.0
O376 O 0.32486 0.78029 0.15536 0.0
In377 In 0.96345 0.58795 0.79921 0.0
O378 O 0.92963 0.60101 0.83238 0.0
O379 O 0.95399 0.62514 0.801 0.0
C380 C 0.95104 0.54539 0.77788 0.0
C381 C 0.98359 0.58905 0.91582 0.0
C382 C 0.98172 0.5923 0.68065 0.0
O383 O 0.93736 0.56157 0.77123 0.0
O384 O 0.97052 0.55058 0.79721 0.0
O385 O 0.99378 0.58955 0.73062 0.0
O386 O 0.96088 0.59419 0.69107 0.0
C387 C 0.93474 0.62148 0.82478 0.0
O388 O 0.99178 0.59931 0.86747 0.0
O389 O 0.966 0.57783 0.90467 0.0
In390 In 0.15932 0.20793 0.54796 0.0
O391 O 0.1465 0.23683 0.61236 0.0
O392 O 0.16677 0.21101 0.65478 0.0
C393 C 0.15177 0.22165 0.42588 0.0
C394 C 0.12882 0.17626 0.57461 0.0
C395 C 0.20385 0.20366 0.53414 0.0
O396 O 0.15005 0.23498 0.47351 0.0
O397 O 0.15653 0.20152 0.43995 0.0
O398 O 0.19096 0.1867 0.53407 0.0
O399 O 0.19437 0.22249 0.54309 0.0
C400 C 0.15539 0.22873 0.66305 0.0
O401 O 0.14971 0.17225 0.57593 0.0
O402 O 0.12327 0.19585 0.55685 0.0
In403 In 0.52976 0.40364 0.28991 0.0
O404 O 0.49923 0.3932 0.35132 0.0
O405 O 0.52729 0.40889 0.398 0.0
C406 C 0.51878 0.39605 0.16512 0.0
C407 C 0.56061 0.37274 0.31976 0.0
C408 C 0.53425 0.44832 0.28239 0.0
O409 O 0.50458 0.39378 0.21038 0.0
O410 O 0.5384 0.40124 0.18299 0.0
O411 O 0.55109 0.43539 0.28732 0.0
O412 O 0.51524 0.43879 0.28281 0.0
C413 C 0.50817 0.39989 0.40364 0.0
O414 O 0.56569 0.39319 0.31101 0.0
O415 O 0.54029 0.36766 0.30907 0.0
C416 C 0.25965 0.29611 0.05138 0.0
C417 C 0.26696 0.29352 0.98631 0.0
C418 C 0.22782 0.29232 0.94916 0.0
C419 C 0.22071 0.29155 0.01473 0.0
N420 N 0.22922 0.29165 0.12892 0.0
N421 N 0.25871 0.28829 0.87291 0.0
C422 C 0.23644 0.29333 0.06613 0.0
C423 C 0.25123 0.29152 0.93495 0.0
N424 N 0.27487 0.30127 0.0989 0.0
N425 N 0.21217 0.29395 0.9007 0.0
H426 H 0.27574 0.28875 0.86036 0.0
H427 H 0.24821 0.28394 0.83445 0.0
H428 H 0.19486 0.29438 0.90953 0.0
H429 H 0.21625 0.29662 0.85225 0.0
H430 H 0.27032 0.30552 0.1461 0.0
H431 H 0.29209 0.30301 0.09016 0.0
H432 H 0.24004 0.28995 0.16833 0.0
H433 H 0.2122 0.2907 0.14151 0.0
C434 C 0.94818 0.9797 0.20516 0.0
C435 C 0.9464 0.97288 0.27083 0.0
C436 C 0.94521 0.01214 0.30687 0.0
C437 C 0.94821 0.01898 0.24148 0.0
N438 N 0.94778 0.0105 0.12738 0.0
N439 N 0.93829 0.98141 0.38235 0.0
C440 C 0.9482 0.00308 0.19018 0.0
C441 C 0.94329 0.98878 0.32118 0.0
N442 N 0.95051 0.96376 0.15763 0.0
N443 N 0.94526 0.02791 0.35533 0.0
H444 H 0.93687 0.96433 0.39392 0.0
H445 H 0.93383 0.992 0.4205 0.0
H446 H 0.94575 0.04522 0.34659 0.0
H447 H 0.94591 0.02401 0.40445 0.0
H448 H 0.95454 0.96738 0.10968 0.0
H449 H 0.9492 0.9465 0.16667 0.0
H450 H 0.94594 1e-05 0.08732 0.0
H451 H 0.94761 0.02759 0.11519 0.0
C452 C 0.24178 0.69819 0.42524 0.0
C453 C 0.2258 0.69181 0.47292 0.0
C454 C 0.25585 0.68591 0.55228 0.0
C455 C 0.27161 0.69337 0.50553 0.0
N456 N 0.28115 0.69979 0.3937 0.0
N457 N 0.2178 0.67308 0.57418 0.0
C458 C 0.26506 0.69724 0.44054 0.0
C459 C 0.23292 0.68336 0.53393 0.0
N460 N 0.2346 0.7057 0.36607 0.0
N461 N 0.26268 0.68224 0.61468 0.0
H462 H 0.20093 0.67079 0.56187 0.0
H463 H 0.22232 0.66498 0.61701 0.0
H464 H 0.27955 0.68311 0.62879 0.0
H465 H 0.25161 0.67946 0.65301 0.0
H466 H 0.24515 0.71335 0.33226 0.0
H467 H 0.21775 0.70507 0.35169 0.0
H468 H 0.27757 0.70084 0.34439 0.0
H469 H 0.29836 0.69889 0.40382 0.0
C470 C 0.5434 -0.00082 0.8208 0.0
C471 C 0.54968 0.01512 0.7729 0.0
C472 C 0.5552 0.98502 0.69337 0.0
C473 C 0.54785 0.96928 0.74035 0.0
N474 N 0.54121 0.95977 0.85213 0.0
N475 N 0.56793 0.02307 0.67085 0.0
C476 C 0.54404 0.97587 0.80539 0.0
C477 C 0.55783 0.00797 0.71157 0.0
N478 N 0.53633 0.00645 0.88036 0.0
N479 N 0.55863 0.97815 0.63085 0.0
H480 H 0.57023 0.03998 0.68282 0.0
H481 H 0.57586 0.0185 0.62779 0.0
H482 H 0.55768 0.96126 0.61676 0.0
H483 H 0.56127 0.9892 0.5924 0.0
H484 H 0.52875 -0.00397 0.91461 0.0
H485 H 0.53736 0.0233 0.89478 0.0
H486 H 0.54011 0.9633 0.90145 0.0
H487 H 0.54182 0.94254 0.84194 0.0
C488 C 0.73079 0.70729 0.94292 0.0
C489 C 0.72229 0.69599 0.99838 0.0
C490 C 0.76041 0.68442 0.02937 0.0
C491 C 0.76892 0.69614 0.97455 0.0
N492 N 0.76233 0.71282 0.86988 0.0
N493 N 0.72777 0.66986 0.08656 0.0
C494 C 0.75409 0.70574 0.92836 0.0
C495 C 0.7367 0.68308 0.03873 0.0
N496 N 0.71669 0.71992 0.90498 0.0
N497 N 0.77493 0.67587 0.07459 0.0
H498 H 0.71057 0.6693 0.0969 0.0
H499 H 0.73712 0.65817 0.11295 0.0
H500 H 0.79235 0.67578 0.06867 0.0
H501 H 0.76988 0.66992 0.11976 0.0
H502 H 0.7223 0.73078 0.86879 0.0
H503 H 0.69929 0.72053 0.91183 0.0
H504 H 0.75218 0.71806 0.83156 0.0
H505 H 0.7793 0.71129 0.85724 0.0
C506 C 0.03167 0.98931 0.82894 0.0
C507 C 0.03984 0.9737 0.78265 0.0
C508 C 0.04997 0.00476 0.70996 0.0
C509 C 0.03852 0.01986 0.75191 0.0
N510 N 0.01689 0.02666 0.84933 0.0
N511 N 0.05556 0.96593 0.67687 0.0
C512 C 0.02896 0.0122 0.81099 0.0
C513 C 0.04904 0.98122 0.72289 0.0
N514 N 0.02719 0.98226 0.89071 0.0
N515 N 0.0614 0.01286 0.65733 0.0
H516 H 0.0554 0.94855 0.68434 0.0
H517 H 0.05964 0.97031 0.62944 0.0
H518 H 0.06147 0.02987 0.64442 0.0
H519 H 0.07212 0.00301 0.62907 0.0
H520 H 0.02312 0.99318 0.92852 0.0
H521 H 0.02999 0.96569 0.90578 0.0
H522 H 0.0074 0.02142 0.88903 0.0
H523 H 0.01502 0.04378 0.8391 0.0
C524 C 0.73629 0.29603 0.45052 0.0
C525 C 0.72176 0.28523 0.49544 0.0
C526 C 0.75359 0.27821 0.56814 0.0
C527 C 0.76843 0.28629 0.51971 0.0
N528 N 0.77456 0.30043 0.41139 0.0
N529 N 0.71662 0.26368 0.59391 0.0
C530 C 0.75999 0.29484 0.46021 0.0
C531 C 0.73041 0.27564 0.55342 0.0
N532 N 0.72751 0.30706 0.39805 0.0
N533 N 0.7616 0.27368 0.62896 0.0
H534 H 0.69935 0.26193 0.58645 0.0
H535 H 0.72255 0.25409 0.63263 0.0
H536 H 0.77846 0.27591 0.64183 0.0
H537 H 0.75125 0.26996 0.66829 0.0
H538 H 0.73703 0.31742 0.36788 0.0
H539 H 0.71037 0.30712 0.38692 0.0
H540 H 0.76941 0.3041 0.36431 0.0
H541 H 0.79204 0.29968 0.41618 0.0
C542 C 0.4411 0.98529 0.29632 0.0
C543 C 0.44298 0.97858 0.23045 0.0
C544 C 0.44436 0.01797 0.19553 0.0
C545 C 0.4435 0.02462 0.26155 0.0
N546 N 0.43573 0.01594 0.3731 0.0
N547 N 0.44124 0.98759 0.11687 0.0
C548 C 0.44007 0.00864 0.31145 0.0
C549 C 0.44291 0.99469 0.17979 0.0
N550 N 0.44158 0.9694 0.34438 0.0
N551 N 0.44756 0.03386 0.14837 0.0
H552 H 0.44011 0.97057 0.10423 0.0
H553 H 0.43918 -0.00161 0.07758 0.0
H554 H 0.44764 0.05113 0.15798 0.0
H555 H 0.45116 0.03006 0.10023 0.0
H556 H 0.44313 0.97322 0.39341 0.0
H557 H 0.44167 0.9521 0.33523 0.0
H558 H 0.43107 0.00534 0.41098 0.0
H559 H 0.43492 0.03304 0.38515 0.0
C560 C 0.72532 0.79748 0.46276 0.0
C561 C 0.71692 0.78696 0.51969 0.0
C562 C 0.75509 0.77601 0.55149 0.0
C563 C 0.76365 0.78707 0.49559 0.0
N564 N 0.75773 0.81161 0.40377 0.0
N565 N 0.72381 0.77162 0.62593 0.0
C566 C 0.74903 0.79907 0.45343 0.0
C567 C 0.73184 0.77785 0.5664 0.0
N568 N 0.71073 0.8046 0.41564 0.0
N569 N 0.76904 0.76334 0.58976 0.0
H570 H 0.7069 0.77329 0.63899 0.0
H571 H 0.73415 0.76701 0.66452 0.0
H572 H 0.78638 0.76221 0.58261 0.0
H573 H 0.76324 0.75269 0.62626 0.0
H574 H 0.71585 0.8097 0.36967 0.0
H575 H 0.69327 0.80385 0.42036 0.0
H576 H 0.74817 0.8228 0.37621 0.0
H577 H 0.77487 0.81206 0.39265 0.0
C578 C 0.46697 0.48339 0.70117 0.0
C579 C 0.45522 0.47401 0.75467 0.0
C580 C 0.44227 0.51152 0.7878 0.0
C581 C 0.45401 0.52088 0.7342 0.0
N582 N 0.47279 0.51586 0.63162 0.0
N583 N 0.42842 0.47795 0.84194 0.0
C584 C 0.465 0.50683 0.68841 0.0
C585 C 0.44167 0.4877 0.79546 0.0
N586 N 0.48019 0.4699 0.66297 0.0
N587 N 0.43288 0.52537 0.83352 0.0
H588 H 0.42851 0.4607 0.8517 0.0
H589 H 0.41617 0.48669 0.86798 0.0
H590 H 0.4325 0.54288 0.82946 0.0
H591 H 0.42675 0.51971 0.87789 0.0
H592 H 0.49138 0.47607 0.6284 0.0
H593 H 0.48088 0.4524 0.66784 0.0
H594 H 0.47903 0.50629 0.59331 0.0
H595 H 0.4711 0.53292 0.62008 0.0
C596 C 0.73719 0.21666 0.93823 0.0
C597 C 0.7224 0.20588 0.98252 0.0
C598 C 0.75408 0.1966 0.05379 0.0
C599 C 0.76892 0.20668 0.00845 0.0
N600 N 0.77569 0.22233 0.90229 0.0
N601 N 0.71674 0.1821 0.0762 0.0
C602 C 0.76079 0.21564 0.94915 0.0
C603 C 0.73086 0.1946 0.03813 0.0
N604 N 0.72864 0.22795 0.88585 0.0
N605 N 0.76197 0.19013 0.11329 0.0
H606 H 0.69948 0.18081 0.06787 0.0
H607 H 0.72233 0.17152 0.11313 0.0
H608 H 0.77885 0.19152 0.12683 0.0
H609 H 0.75158 0.18513 0.15133 0.0
H610 H 0.73816 0.23865 0.8567 0.0
H611 H 0.71164 0.22746 0.87295 0.0
H612 H 0.77096 0.22682 0.85546 0.0
H613 H 0.79314 0.22161 0.90822 0.0
C614 C 0.05524 0.48484 0.18938 0.0
C615 C 0.04817 0.46878 0.23581 0.0
C616 C 0.04392 0.49822 0.31783 0.0
C617 C 0.05001 0.51446 0.2706 0.0
N618 N 0.06805 0.523 0.16872 0.0
N619 N 0.04218 0.45864 0.3475 0.0
C620 C 0.05798 0.50768 0.20874 0.0
C621 C 0.04465 0.47499 0.30132 0.0
N622 N 0.0584 0.4784 0.12638 0.0
N623 N 0.03692 0.50511 0.37781 0.0
H624 H 0.04281 0.44146 0.3366 0.0
H625 H 0.04138 0.46194 0.39701 0.0
H626 H 0.03786 0.52189 0.39293 0.0
H627 H 0.02946 0.49444 0.41166 0.0
H628 H 0.06085 0.48973 0.08849 0.0
H629 H 0.05735 0.46162 0.11136 0.0
H630 H 0.07583 0.5187 0.1252 0.0
H631 H 0.07052 0.5398 0.18181 0.0
C632 C 0.26083 0.19459 0.4536 0.0
C633 C 0.27464 0.20687 0.49727 0.0
C634 C 0.24284 0.21136 0.57163 0.0
C635 C 0.2284 0.20204 0.52408 0.0
N636 N 0.22288 0.18644 0.41705 0.0
N637 N 0.27861 0.22903 0.59511 0.0
C638 C 0.23719 0.19376 0.46461 0.0
C639 C 0.26561 0.21584 0.55558 0.0
N640 N 0.27023 0.18408 0.40111 0.0
N641 N 0.23488 0.21521 0.63287 0.0
H642 H 0.2956 0.23226 0.58647 0.0
H643 H 0.27216 0.23812 0.63416 0.0
H644 H 0.21843 0.21124 0.64667 0.0
H645 H 0.24508 0.21999 0.67157 0.0
H646 H 0.26149 0.17277 0.3718 0.0
H647 H 0.28725 0.18544 0.38913 0.0
H648 H 0.22801 0.18294 0.36985 0.0
H649 H 0.20548 0.18539 0.42305 0.0
C650 C 0.52567 0.48704 0.32186 0.0
C651 C 0.5364 0.47295 0.27572 0.0
C652 C 0.54822 0.50601 0.21316 0.0
C653 C 0.53508 0.51979 0.25484 0.0
N654 N 0.51036 0.5239 0.34721 0.0
N655 N 0.5563 0.46828 0.17439 0.0
C656 C 0.52355 0.51045 0.30882 0.0
C657 C 0.54757 0.48222 0.22098 0.0
N658 N 0.51826 0.4781 0.37917 0.0
N659 N 0.56108 0.51563 0.16557 0.0
H660 H 0.55643 0.45075 0.17822 0.0
H661 H 0.56199 0.4739 0.12949 0.0
H662 H 0.56089 0.53285 0.1553 0.0
H663 H 0.57309 0.5068 0.1389 0.0
H664 H 0.51232 0.48776 0.41772 0.0
H665 H 0.51997 0.46105 0.39081 0.0
H666 H 0.49935 0.5177 0.3822 0.0
H667 H 0.50942 0.54137 0.34193 0.0
C668 C 0.26001 0.78471 0.94432 0.0
C669 C 0.2671 0.79409 0.00422 0.0
C670 C 0.22809 0.80292 0.03288 0.0
C671 C 0.22107 0.7938 0.97245 0.0
N672 N 0.23032 0.78179 0.86413 0.0
N673 N 0.25909 0.81635 0.09923 0.0
C674 C 0.23707 0.78653 0.92604 0.0
C675 C 0.25152 0.80479 0.0462 0.0
N676 N 0.27505 0.77344 0.90584 0.0
N677 N 0.21251 0.80828 0.07928 0.0
H678 H 0.27612 0.81735 0.11155 0.0
H679 H 0.24875 0.82644 0.12799 0.0
H680 H 0.19518 0.80712 0.07192 0.0
H681 H 0.21671 0.81228 0.12691 0.0
H682 H 0.27036 0.76397 0.86551 0.0
H683 H 0.29217 0.77225 0.91655 0.0
H684 H 0.24147 0.77846 0.82632 0.0
H685 H 0.21361 0.78344 0.84898 0.0
C686 C 0.94404 0.49233 0.67804 0.0
C687 C 0.9449 0.47611 0.72832 0.0
C688 C 0.94295 0.5059 0.81024 0.0
C689 C 0.94543 0.52205 0.7603 0.0
N690 N 0.94837 0.53154 0.64691 0.0
N691 N 0.94563 0.46663 0.8421 0.0
C692 C 0.94561 0.51557 0.69408 0.0
C693 C 0.94409 0.48262 0.79449 0.0
N694 N 0.9415 0.4854 0.61521 0.0
N695 N 0.93932 0.51296 0.8725 0.0
H696 H 0.94583 0.44936 0.83257 0.0
H697 H 0.94802 0.47039 0.8909 0.0
H698 H 0.9384 0.52999 0.88513 0.0
H699 H 0.93531 0.50215 0.91054 0.0
H700 H 0.93871 0.49633 0.57656 0.0
H701 H 0.94035 0.46841 0.60223 0.0
H702 H 0.95153 0.52778 0.59847 0.0
H703 H 0.94868 0.5488 0.65668 0.0
C704 C 0.17074 0.24732 0.83232 0.0
C705 C 0.1492 0.25146 0.85977 0.0
C706 C 0.13119 0.24112 0.75705 0.0
C707 C 0.15285 0.23878 0.72833 0.0
N708 N 0.19293 0.24498 0.73409 0.0
N709 N 0.10909 0.25593 0.84657 0.0
C710 C 0.17255 0.2434 0.76474 0.0
C711 C 0.12946 0.2496 0.82146 0.0
N712 N 0.18948 0.24683 0.87086 0.0
N713 N 0.11242 0.23407 0.72444 0.0
H714 H 0.10711 0.26132 0.89441 0.0
H715 H 0.0945 0.25733 0.81879 0.0
H716 H 0.11293 0.22747 0.67762 0.0
H717 H 0.09653 0.23302 0.74569 0.0
H718 H 0.20523 0.24151 0.85458 0.0
H719 H 0.18901 0.24999 0.92052 0.0
H720 H 0.2076 0.25045 0.75696 0.0
H721 H 0.19468 0.24321 0.68402 0.0
C722 C -0.00412 0.92189 0.02886 0.0
C723 C -0.00272 0.90214 0.99042 0.0
C724 C 0.98368 0.87956 0.08208 0.0
C725 C 0.98488 0.89896 0.1222 0.0
N726 N -0.0042 0.93797 0.13644 0.0
N727 N -0.00375 0.86145 0.98314 0.0
C728 C 0.99223 0.91991 0.09649 0.0
C729 C 0.99204 0.88073 0.01749 0.0
N730 N -0.00309 0.94265 1.0001 0.0
N731 N 0.97464 0.86002 0.10571 0.0
H732 H 0.00279 0.86145 0.93625 0.0
H733 H 0.99511 0.84535 0.0031 0.0
H734 H 0.96952 0.85818 0.15381 0.0
H735 H 0.97091 0.84615 0.07662 0.0
H736 H 0.99379 0.95768 0.0247 0.0
H737 H -0.0017 0.94469 0.95004 0.0
H738 H 0.00356 0.95279 0.12108 0.0
H739 H 0.99259 0.93768 0.18606 0.0
C740 C 0.3607 0.74167 0.32606 0.0
C741 C 0.34086 0.74071 0.36431 0.0
C742 C 0.31798 0.7499 0.26908 0.0
C743 C 0.33792 0.75324 0.23243 0.0
N744 N 0.37852 0.75654 0.22948 0.0
N745 N 0.30086 0.74757 0.37522 0.0
C746 C 0.35941 0.75013 0.2616 0.0
C747 C 0.31958 0.74605 0.3368 0.0
N748 N 0.38079 0.73459 0.35134 0.0
N749 N 0.29751 0.74935 0.2386 0.0
H750 H 0.301 0.74415 0.42473 0.0
H751 H 0.28548 0.75387 0.3589 0.0
H752 H 0.29571 0.75127 0.18859 0.0
H753 H 0.28262 0.74462 0.26164 0.0
H754 H 0.39528 0.73238 0.32349 0.0
H755 H 0.38264 0.72953 0.39949 0.0
H756 H 0.39437 0.757 0.25112 0.0
H757 H 0.37839 0.76338 0.18296 0.0
C758 C 0.51926 0.07692 0.56401 0.0
C759 C 0.5093 0.09111 0.61173 0.0
C760 C 0.48154 0.10407 0.53198 0.0
C761 C 0.49289 0.09156 0.48301 0.0
N762 N 0.52449 0.06866 0.44991 0.0
N763 N 0.48374 0.12137 0.63833 0.0
C764 C 0.51251 0.07898 0.49816 0.0
C765 C 0.49118 0.10558 0.59497 0.0
N766 N 0.53398 0.06032 0.58215 0.0
N767 N 0.46136 0.11423 0.51875 0.0
H768 H 0.49069 0.12327 0.68446 0.0
H769 H 0.47221 0.13398 0.62653 0.0
H770 H 0.45394 0.11403 0.47298 0.0
H771 H 0.45113 0.12141 0.55423 0.0
H772 H 0.53996 0.04796 0.55062 0.0
H773 H 0.53835 0.0573 0.63026 0.0
H774 H 0.5403 0.06143 0.45721 0.0
H775 H 0.51946 0.06877 0.40147 0.0
C776 C 0.13799 0.7598 0.71511 0.0
C777 C 0.15042 0.74819 0.76369 0.0
C778 C 0.16462 0.72179 0.68212 0.0
C779 C 0.15062 0.73213 0.63469 0.0
N780 N 0.12057 0.75803 0.60895 0.0
N781 N 0.17278 0.7161 0.79605 0.0
C782 C 0.13633 0.75033 0.65198 0.0
C783 C 0.16265 0.72838 0.74811 0.0
N784 N 0.1281 0.78009 0.72881 0.0
N785 N 0.181 0.70688 0.66359 0.0
H786 H 0.17273 0.72099 0.84461 0.0
H787 H 0.17975 0.70018 0.78835 0.0
H788 H 0.18398 0.70263 0.61538 0.0
H789 H 0.19324 0.70059 0.69498 0.0
H790 H 0.12104 0.79051 0.69358 0.0
H791 H 0.12838 0.7874 0.77474 0.0
H792 H 0.10809 0.76966 0.62115 0.0
H793 H 0.11853 0.75119 0.56273 0.0
C794 C 0.49259 0.88386 0.98869 0.0
C795 C 0.48776 0.90566 0.01407 0.0
C796 C 0.49435 0.9224 0.90712 0.0
C797 C 0.50091 0.90091 0.88298 0.0
N798 N 0.50949 0.86173 0.9024 0.0
N799 N 0.48908 0.94608 0.00163 0.0
C800 C 0.50114 0.88182 0.92444 0.0
C801 C 0.48999 0.92504 0.97437 0.0
N802 N 0.48781 0.86502 0.02435 0.0
N803 N 0.49224 0.94036 0.866 0.0
H804 H 0.48674 0.94871 0.05118 0.0
H805 H 0.49303 0.96081 0.97658 0.0
H806 H 0.49633 0.93969 0.81698 0.0
H807 H 0.48493 0.95564 0.87957 0.0
H808 H 0.48845 0.84872 0.00555 0.0
H809 H 0.48133 0.86559 0.07125 0.0
H810 H 0.51267 0.84798 0.93249 0.0
H811 H 0.51461 0.8592 0.85455 0.0
C812 C 0.36401 0.26536 0.18652 0.0
C813 C 0.34365 0.26533 0.15058 0.0
C814 C 0.32254 0.25543 0.24857 0.0
C815 C 0.34313 0.2525 0.28246 0.0
N816 N 0.38387 0.25157 0.28123 0.0
N817 N 0.30371 0.25772 0.14473 0.0
C818 C 0.36403 0.25686 0.25111 0.0
C819 C 0.32295 0.25959 0.18083 0.0
N820 N 0.38333 0.27344 0.15892 0.0
N821 N 0.30258 0.25501 0.28172 0.0
H822 H 0.30313 0.26107 0.09517 0.0
H823 H 0.28869 0.25117 0.16279 0.0
H824 H 0.3017 0.25272 0.33181 0.0
H825 H 0.28715 0.25926 0.26096 0.0
H826 H 0.39812 0.27623 0.18489 0.0
H827 H 0.38409 0.27895 0.11092 0.0
H828 H 0.39944 0.25193 0.25795 0.0
H829 H 0.38472 0.24502 0.32802 0.0
C830 C 0.9939 0.11279 0.49943 0.0
C831 C -0.00283 0.09158 0.53033 0.0
C832 C 0.99001 0.07209 0.42758 0.0
C833 C 0.98533 0.09313 0.39761 0.0
N834 N 0.97891 0.13316 0.40684 0.0
N835 N 0.99249 0.0512 0.52814 0.0
C836 C 0.9859 0.11337 0.43429 0.0
C837 C 0.99352 0.07127 0.49557 0.0
N838 N -0.00032 0.1323 0.53058 0.0
N839 N 0.99136 0.05285 0.39119 0.0
H840 H 0.99408 0.05007 0.57842 0.0
H841 H 0.98762 0.03609 0.50652 0.0
H842 H 0.98819 0.05241 0.34153 0.0
H843 H -0.00275 0.03755 0.40936 0.0
H844 H 0.00023 0.14795 0.50772 0.0
H845 H 0.00572 0.13276 0.57796 0.0
H846 H 0.97647 0.14796 0.4332 0.0
H847 H 0.97405 0.13443 0.35837 0.0
C848 C 0.85345 0.75385 0.1692 0.0
C849 C 0.84347 0.73299 0.15208 0.0
C850 C 0.8329 0.72694 0.26606 0.0
C851 C 0.83991 0.74921 0.2808 0.0
N852 N 0.85389 0.78532 0.24354 0.0
N853 N 0.81991 0.70139 0.18276 0.0
C854 C 0.8493 0.76311 0.23155 0.0
C855 C 0.83241 0.71978 0.20021 0.0
N856 N 0.8676 0.76447 0.12675 0.0
N857 N 0.82611 0.71278 0.31454 0.0
H858 H 0.81805 0.69602 0.13508 0.0
H859 H 0.80945 0.69274 0.21478 0.0
H860 H 0.82487 0.71775 0.36288 0.0
H861 H 0.82333 0.6956 0.30746 0.0
H862 H 0.87714 0.77858 0.13912 0.0
H863 H 0.87175 0.75775 0.08154 0.0
H864 H 0.85826 0.79674 0.20728 0.0
H865 H 0.85174 0.79288 0.28869 0.0
C866 C 0.98868 0.11322 0.99275 0.0
C867 C -0.00282 0.09578 0.03307 0.0
C868 C 0.02188 0.0828 0.94541 0.0
C869 C 0.0113 0.0984 0.90251 0.0
N870 N 0.98441 0.12818 0.88376 0.0
N871 N 0.02072 0.06316 0.04861 0.0
C872 C 0.99468 0.11362 0.92586 0.0
C873 C 0.01363 0.08048 0.00979 0.0
N874 N 0.97494 0.12944 0.01866 0.0
N875 N 0.03976 0.07007 0.92481 0.0
H876 H 0.01602 0.06169 0.09718 0.0
H877 H 0.03022 0.04955 0.03207 0.0
H878 H 0.04551 0.06974 0.87718 0.0
H879 H 0.04988 0.06063 0.95585 0.0
H880 H 0.96974 0.1438 0.99381 0.0
H881 H 0.96998 0.12945 0.06716 0.0
H882 H 0.97028 0.13778 0.89541 0.0
H883 H 0.98942 0.12997 0.83556 0.0
C884 C 0.65849 0.27244 0.70185 0.0
C885 C 0.64332 0.26228 0.65684 0.0
C886 C 0.62832 0.23805 0.74288 0.0
C887 C 0.64348 0.24818 0.78733 0.0
N888 N 0.66889 0.27823 0.81456 0.0
N889 N 0.61009 0.23987 0.63775 0.0
C890 C 0.65715 0.26653 0.7685 0.0
C891 C 0.62711 0.24637 0.67836 0.0
N892 N 0.67513 0.28661 0.6807 0.0
N893 N 0.61552 0.22008 0.76204 0.0
H894 H 0.60834 0.24615 0.59078 0.0
H895 H 0.59653 0.22997 0.65234 0.0
H896 H 0.61492 0.21452 0.80997 0.0
H897 H 0.60637 0.21003 0.73011 0.0
H898 H 0.68832 0.29213 0.70994 0.0
H899 H 0.67708 0.29154 0.63265 0.0
H900 H 0.67736 0.29327 0.80527 0.0
H901 H 0.66841 0.27401 0.86366 0.0
C902 C 0.48553 0.88437 0.41804 0.0
C903 C 0.48405 0.90484 0.38279 0.0
C904 C 0.49423 0.92624 0.48016 0.0
C905 C 0.49786 0.90568 0.51371 0.0
N906 N 0.50115 0.86503 0.51118 0.0
N907 N 0.48982 0.94511 0.3768 0.0
C908 C 0.49451 0.88465 0.48196 0.0
C909 C 0.48934 0.92573 0.41276 0.0
N910 N 0.47833 0.86468 0.39049 0.0
N911 N 0.4945 0.94622 0.5134 0.0
H912 H 0.48561 0.94565 0.32777 0.0
H913 H 0.49598 0.96039 0.39424 0.0
H914 H 0.49747 0.9472 0.56317 0.0
H915 H 0.48964 0.96157 0.49321 0.0
H916 H 0.47651 0.8497 0.41634 0.0
H917 H 0.47269 0.86364 0.34267 0.0
H918 H 0.50146 0.84951 0.48753 0.0
H919 H 0.50833 0.86444 0.55725 0.0
C920 C 0.86233 0.24424 0.25323 0.0
C921 C 0.84101 0.24155 0.22275 0.0
C922 C 0.82182 0.25079 0.32443 0.0
C923 C 0.84307 0.25468 0.35392 0.0
N924 N 0.88332 0.25891 0.34509 0.0
N925 N 0.80073 0.24681 0.22447 0.0
C926 C 0.86328 0.25262 0.31783 0.0
C927 C 0.82081 0.24613 0.25703 0.0
N928 N 0.88157 0.2377 0.22186 0.0
N929 N 0.80262 0.25116 0.36112 0.0
H930 H 0.79944 0.244 0.17467 0.0
H931 H 0.78569 0.25229 0.24522 0.0
H932 H 0.80258 0.25496 0.41043 0.0
H933 H 0.78693 0.24601 0.34404 0.0
H934 H 0.89725 0.2367 0.24434 0.0
H935 H 0.88171 0.2316 0.17448 0.0
H936 H 0.89829 0.26025 0.31905 0.0
H937 H 0.88467 0.26437 0.39305 0.0
C938 C 0.49047 0.11136 0.07298 0.0
C939 C 0.49007 0.0921 0.11371 0.0
C940 C 0.50027 0.06805 0.0215 0.0
C941 C 0.50312 0.08753 0.98244 0.0
N942 N 0.50445 0.12822 0.97396 0.0
N943 N 0.49747 0.05239 0.12954 0.0
C944 C 0.49901 0.10936 0.00871 0.0
C945 C 0.49596 0.07054 0.08887 0.0
N946 N 0.48267 0.13159 0.09567 0.0
N947 N 0.50057 0.04712 0.99349 0.0
H948 H 0.49355 0.05316 0.17873 0.0
H949 H 0.50416 0.03688 0.11553 0.0
H950 H 0.5027 0.04468 0.94379 0.0
H951 H 0.4963 0.03239 0.01807 0.0
H952 H 0.47993 0.14555 0.06604 0.0
H953 H 0.47754 0.13404 0.14354 0.0
H954 H 0.50437 0.14442 0.99357 0.0
H955 H 0.51097 0.12772 0.92712 0.0
C956 C 0.65557 0.71557 0.80041 0.0
C957 C 0.64363 0.72761 0.84938 0.0
C958 C 0.63317 0.75652 0.77004 0.0
C959 C 0.64385 0.74376 0.72033 0.0
N960 N 0.6618 0.70927 0.68565 0.0
N961 N 0.61658 0.75637 0.87738 0.0
C962 C 0.65372 0.72255 0.73463 0.0
C963 C 0.63112 0.74718 0.83317 0.0
N964 N 0.67003 0.6985 0.81688 0.0
N965 N 0.62529 0.77776 0.75744 0.0
H966 H 0.61411 0.74956 0.92346 0.0
H967 H 0.60527 0.76924 0.86622 0.0
H968 H 0.62561 0.78504 0.71153 0.0
H969 H 0.61984 0.78881 0.79346 0.0
H970 H 0.68116 0.69105 0.78421 0.0
H971 H 0.67269 0.69311 0.86428 0.0
H972 H 0.6667 0.69255 0.69237 0.0
H973 H 0.66203 0.7143 0.63725 0.0
C974 C 0.98689 0.88111 0.52507 0.0
C975 C 0.98943 0.90142 0.48922 0.0
C976 C 0.00479 0.92036 0.58485 0.0
C977 C 0.00391 0.89964 0.61923 0.0
N978 N -0.00267 0.85957 0.6206 0.0
N979 N 0.00437 0.93908 0.48045 0.0
C980 C -0.00411 0.87976 0.5889 0.0
C981 C -0.00056 0.92068 0.51783 0.0
N982 N 0.97495 0.86353 0.49938 0.0
N983 N 0.00981 0.93992 0.61693 0.0
H984 H 0.00083 0.93983 0.43095 0.0
H985 H 0.01382 0.95273 0.49694 0.0
H986 H 0.01341 0.94045 0.66635 0.0
H987 H 0.00843 0.95586 0.59613 0.0
H988 H 0.97032 0.84931 0.52584 0.0
H989 H 0.96809 0.86383 0.45286 0.0
H990 H 0.99407 0.8441 0.59856 0.0
H991 H 0.00344 0.85811 0.66785 0.0
C992 C 0.66589 0.75424 0.31454 0.0
C993 C 0.6449 0.75342 0.34748 0.0
C994 C 0.62684 0.73785 0.25034 0.0
C995 C 0.64759 0.73995 0.21635 0.0
N996 N 0.68544 0.75451 0.21139 0.0
N997 N 0.60467 0.74817 0.34487 0.0
C998 C 0.66669 0.74948 0.24714 0.0
C999 C 0.62512 0.74634 0.31478 0.0
N1000 N 0.68524 0.75861 0.34829 0.0
N1001 N 0.60914 0.72672 0.22247 0.0
H1002 H 0.60292 0.75391 0.39245 0.0
H1003 H 0.58936 0.74568 0.32127 0.0
H1004 H 0.60955 0.7204 0.17534 0.0
H1005 H 0.59459 0.72224 0.24762 0.0
H1006 H 0.70131 0.75707 0.32847 0.0
H1007 H 0.68542 0.76179 0.39797 0.0
H1008 H 0.69908 0.76356 0.22958 0.0
H1009 H 0.68643 0.75161 0.16156 0.0
C1010 C 0.47296 0.41043 0.55452 0.0
C1011 C 0.48363 0.39531 0.59862 0.0
C1012 C 0.50695 0.38021 0.51039 0.0
C1013 C 0.49781 0.39673 0.4681 0.0
N1014 N 0.4737 0.42871 0.4491 0.0
N1015 N 0.51118 0.3664 0.62061 0.0
C1016 C 0.481 0.41195 0.48966 0.0
C1017 C 0.50073 0.38032 0.57706 0.0
N1018 N 0.45537 0.42361 0.57479 0.0
N1019 N 0.52124 0.36414 0.48615 0.0
H1020 H 0.50605 0.36494 0.66879 0.0
H1021 H 0.52556 0.35702 0.61021 0.0
H1022 H 0.52603 0.3636 0.43752 0.0
H1023 H 0.52704 0.35034 0.51246 0.0
H1024 H 0.44508 0.43275 0.54348 0.0
H1025 H 0.4501 0.42469 0.62284 0.0
H1026 H 0.46373 0.44222 0.46385 0.0
H1027 H 0.47876 0.42993 0.40078 0.0
C1028 C 0.85379 0.22572 0.73854 0.0
C1029 C 0.84677 0.2481 0.72458 0.0
C1030 C 0.84011 0.25497 0.83983 0.0
C1031 C 0.84892 0.23331 0.85469 0.0
N1032 N 0.86938 0.20033 0.81901 0.0
N1033 N 0.84094 0.28606 0.76477 0.0
C1034 C 0.85743 0.21936 0.80425 0.0
C1035 C 0.84241 0.26338 0.7761 0.0
N1036 N 0.85587 0.2102 0.68993 0.0
N1037 N 0.82811 0.26699 0.88468 0.0
H1038 H 0.84355 0.29324 0.71926 0.0
H1039 H 0.83982 0.2979 0.80204 0.0
H1040 H 0.8243 0.26102 0.93085 0.0
H1041 H 0.81957 0.28185 0.87321 0.0
H1042 H 0.85864 0.1931 0.69852 0.0
H1043 H 0.85277 0.21394 0.64139 0.0
H1044 H 0.87769 0.19067 0.78419 0.0
H1045 H 0.87303 0.19558 0.86657 0.0
C1046 C 0.9907 0.60428 0.09395 0.0
C1047 C 0.00899 0.59008 0.11099 0.0
C1048 C 0.01294 0.57839 0.99731 0.0
C1049 C 0.99313 0.59058 0.98187 0.0
N1050 N 0.96099 0.61248 0.01694 0.0
N1051 N 0.03427 0.55975 0.08156 0.0
C1052 C 0.98134 0.60274 0.03065 0.0
C1053 C 0.01941 0.5762 0.06331 0.0
N1054 N 0.9828 0.61983 0.13736 0.0
N1055 N 0.02537 0.56855 0.94918 0.0
H1056 H 0.03835 0.55657 0.12977 0.0
H1057 H 0.04063 0.54763 0.04986 0.0
H1058 H 0.02064 0.56893 0.9005 0.0
H1059 H 0.04127 0.56156 0.95691 0.0
H1060 H 0.97108 0.63224 0.12541 0.0
H1061 H 0.98953 0.62175 0.18375 0.0
H1062 H 0.95049 0.61941 0.05219 0.0
H1063 H 0.95374 0.61213 0.97094 0.0
C1064 C 0.63597 0.26007 0.23505 0.0
C1065 C 0.64563 0.24623 0.28399 0.0
C1066 C 0.65438 0.21745 0.20264 0.0
C1067 C 0.64322 0.23065 0.15456 0.0
N1068 N 0.61764 0.26116 0.13039 0.0
N1069 N 0.65991 0.20992 0.31709 0.0
C1070 C 0.63223 0.25094 0.17247 0.0
C1071 C 0.65321 0.22419 0.26878 0.0
N1072 N 0.63088 0.28215 0.24742 0.0
N1073 N 0.66766 0.19959 0.18518 0.0
H1074 H 0.66036 0.21463 0.36578 0.0
H1075 H 0.66325 0.19287 0.30937 0.0
H1076 H 0.67013 0.19451 0.13749 0.0
H1077 H 0.67815 0.19113 0.21757 0.0
H1078 H 0.62619 0.29352 0.21134 0.0
H1079 H 0.63298 0.28965 0.29265 0.0
H1080 H 0.60755 0.27484 0.14334 0.0
H1081 H 0.6137 0.25438 0.08511 0.0
C1082 C 0.99029 0.42353 0.46975 0.0
C1083 C 0.98703 0.40388 0.50782 0.0
C1084 C -0.0003 0.38034 0.41679 0.0
C1085 C 0.0007 0.39982 0.37702 0.0
N1086 N 0.99353 0.43966 0.36252 0.0
N1087 N 0.98442 0.36324 0.51394 0.0
C1088 C 0.99483 0.42131 0.40247 0.0
C1089 C 0.99072 0.38215 0.48059 0.0
N1090 N 0.99017 0.44433 0.49856 0.0
N1091 N 0.00728 0.3601 0.39361 0.0
H1092 H 0.97716 0.36375 0.55993 0.0
H1093 H 0.98443 0.34715 0.4937 0.0
H1094 H 0.01278 0.35786 0.34599 0.0
H1095 H 0.00948 0.34591 0.42273 0.0
H1096 H 0.99486 0.45908 0.47471 0.0
H1097 H 0.98769 0.44663 0.54819 0.0
H1098 H 0.98685 0.45512 0.37703 0.0
H1099 H -0.00244 0.43913 0.31342 0.0
C1100 C 0.8289 0.76496 0.76685 0.0
C1101 C 0.84264 0.74638 0.78378 0.0
C1102 C 0.85812 0.7452 0.67355 0.0
C1103 C 0.84195 0.7615 0.6541 0.0
N1104 N 0.81038 0.78576 0.68124 0.0
N1105 N 0.87023 0.71825 0.75483 0.0
C1106 C 0.82713 0.77137 0.70061 0.0
C1107 C 0.85729 0.73638 0.73758 0.0
N1108 N 0.81744 0.77638 0.81412 0.0
N1109 N 0.87484 0.73889 0.63163 0.0
H1110 H 0.87144 0.71251 0.80248 0.0
H1111 H 0.87895 0.70827 0.72167 0.0
H1112 H 0.8764 0.74556 0.58507 0.0
H1113 H 0.88842 0.72873 0.64479 0.0
H1114 H 0.80909 0.79159 0.80616 0.0
H1115 H 0.81793 0.7717 0.86284 0.0
H1116 H 0.7974 0.79112 0.71151 0.0
H1117 H 0.80812 0.79102 0.63358 0.0
C1118 C 0.48068 0.57809 0.01841 0.0
C1119 C 0.49225 0.59669 0.04567 0.0
C1120 C 0.48814 0.61747 0.94339 0.0
C1121 C 0.47931 0.59774 0.91403 0.0
N1122 N 0.47083 0.55795 0.92058 0.0
N1123 N 0.50929 0.6334 0.03299 0.0
C1124 C 0.47637 0.57771 0.95082 0.0
C1125 C 0.49642 0.61635 0.00814 0.0
N1126 N 0.47361 0.56087 0.05747 0.0
N1127 N 0.48822 0.63735 0.90982 0.0
H1128 H 0.51542 0.63339 0.08034 0.0
H1129 H 0.51523 0.64683 0.00533 0.0
H1130 H 0.48243 0.63866 0.86221 0.0
H1131 H 0.49226 0.65281 0.93075 0.0
H1132 H 0.46318 0.54788 0.0415 0.0
H1133 H 0.47629 0.56081 0.10749 0.0
H1134 H 0.47073 0.54237 0.9439 0.0
H1135 H 0.46857 0.55666 0.87063 0.0
C1136 C 0.33715 0.2262 0.69935 0.0
C1137 C 0.35152 0.23768 0.6548 0.0
C1138 C 0.36297 0.26396 0.74063 0.0
C1139 C 0.34847 0.25261 0.78452 0.0
N1140 N 0.32613 0.22016 0.81147 0.0
N1141 N 0.3819 0.2638 0.6362 0.0
C1142 C 0.33707 0.23274 0.76572 0.0
C1143 C 0.36556 0.25552 0.67643 0.0
N1144 N 0.32245 0.21008 0.67783 0.0
N1145 N 0.37399 0.28302 0.76029 0.0
H1146 H 0.38458 0.25757 0.58951 0.0
H1147 H 0.3941 0.27536 0.65065 0.0
H1148 H 0.37387 0.28857 0.80828 0.0
H1149 H 0.38249 0.29381 0.72892 0.0
H1150 H 0.30965 0.2033 0.7063 0.0
H1151 H 0.32158 0.2046 0.62997 0.0
H1152 H 0.31953 0.20419 0.80251 0.0
H1153 H 0.32541 0.22482 0.86022 0.0
C1154 C 0.4865 0.61394 0.5018 0.0
C1155 C 0.49468 0.59658 0.54289 0.0
C1156 C 0.51836 0.5819 0.45519 0.0
C1157 C 0.50849 0.59792 0.41214 0.0
N1158 N 0.48286 0.62874 0.39248 0.0
N1159 N 0.51676 0.56303 0.55963 0.0
C1160 C 0.49249 0.61386 0.43497 0.0
C1161 C 0.5104 0.58045 0.52009 0.0
N1162 N 0.47326 0.63066 0.52729 0.0
N1163 N 0.53515 0.56787 0.43398 0.0
H1164 H 0.5119 0.56192 0.60814 0.0
H1165 H 0.52574 0.54897 0.54384 0.0
H1166 H 0.54031 0.56682 0.38584 0.0
H1167 H 0.54491 0.55794 0.46467 0.0
H1168 H 0.46821 0.64495 0.50191 0.0
H1169 H 0.46862 0.63113 0.57604 0.0
H1170 H 0.46918 0.639 0.40378 0.0
H1171 H 0.48795 0.6302 0.34426 0.0
C1172 C 0.17383 0.7485 0.23307 0.0
C1173 C 0.15444 0.74007 0.26499 0.0
C1174 C 0.13152 0.74772 0.16832 0.0
C1175 C 0.1513 0.7542 0.13474 0.0
N1176 N 0.19178 0.75787 0.13106 0.0
N1177 N 0.1155 0.72825 0.26075 0.0
C1178 C 0.17262 0.75382 0.16602 0.0
C1179 C 0.13339 0.73887 0.23222 0.0
N1180 N 0.19323 0.75201 0.26744 0.0
N1181 N 0.11093 0.75044 0.1396 0.0
H1182 H 0.11611 0.72153 0.3074 0.0
H1183 H 0.10059 0.7245 0.23645 0.0
H1184 H 0.10903 0.75633 0.09224 0.0
H1185 H 0.09572 0.74847 0.16412 0.0
H1186 H 0.20727 0.76028 0.24874 0.0
H1187 H 0.19465 0.74847 0.31682 0.0
H1188 H 0.20799 0.75553 0.14922 0.0
H1189 H 0.19157 0.76179 0.08183 0.0
C1190 C 0.99235 0.42252 0.90499 0.0
C1191 C 0.98491 0.40186 0.87744 0.0
C1192 C 0.99315 0.38218 0.97935 0.0
C1193 C -0.00097 0.40314 0.0083 0.0
N1194 N -0.00041 0.44378 0.00315 0.0
N1195 N 0.97496 0.36269 0.89007 0.0
C1196 C -0.00258 0.42346 0.97226 0.0
C1197 C 0.98421 0.38191 0.91529 0.0
N1198 N 0.99455 0.44129 0.86699 0.0
N1199 N -0.00277 0.36241 0.01147 0.0
H1200 H 0.96942 0.36148 0.84219 0.0
H1201 H 0.97143 0.34842 0.91769 0.0
H1202 H 0.00385 0.36169 0.05819 0.0
H1203 H -0.00417 0.34659 0.98991 0.0
H1204 H 0.0024 0.45604 0.88253 0.0
H1205 H 0.98996 0.44177 0.81826 0.0
H1206 H -0.00377 0.45923 0.98114 0.0
H1207 H 0.00252 0.44521 0.05285 0.0
C1208 C 0.35317 0.73923 0.84361 0.0
C1209 C 0.34377 0.76049 0.85993 0.0
C1210 C 0.33454 0.76693 0.74515 0.0
C1211 C 0.34095 0.74445 0.731 0.0
N1212 N 0.35406 0.70803 0.76808 0.0
N1213 N 0.32183 0.79314 0.827 0.0
C1214 C 0.34955 0.73023 0.78064 0.0
C1215 C 0.3337 0.77414 0.81087 0.0
N1216 N 0.36641 0.72806 0.88739 0.0
N1217 N 0.32887 0.78132 0.696 0.0
H1218 H 0.31972 0.79889 0.87426 0.0
H1219 H 0.31198 0.80208 0.79401 0.0
H1220 H 0.32807 0.77635 0.64755 0.0
H1221 H 0.32668 0.79861 0.7027 0.0
H1222 H 0.37559 0.71361 0.876 0.0
H1223 H 0.37021 0.73458 0.93308 0.0
H1224 H 0.35781 0.69632 0.80415 0.0
H1225 H 0.35258 0.70083 0.72218 0.0
C1226 C -0.00324 0.56899 0.58922 0.0
C1227 C 0.99066 0.59052 0.61388 0.0
C1228 C -0.00056 0.60777 0.50882 0.0
C1229 C 0.00368 0.58596 0.48267 0.0
N1230 N 0.00179 0.54553 0.49404 0.0
N1231 N 0.98304 0.62997 0.59574 0.0
C1232 C 0.00114 0.56648 0.52188 0.0
C1233 C 0.99094 0.60977 0.5731 0.0
N1234 N -0.00163 0.55088 0.63001 0.0
N1235 N 0.00471 0.62663 0.47382 0.0
H1236 H 0.97793 0.6324 0.64363 0.0
H1237 H 0.98022 0.6439 0.56608 0.0
H1238 H 0.01121 0.62608 0.42694 0.0
H1239 H 0.00451 0.64285 0.49321 0.0
H1240 H 0.0052 0.53542 0.6162 0.0
H1241 H 0.99439 0.55165 0.67915 0.0
H1242 H -0.00227 0.53075 0.51866 0.0
H1243 H 0.0041 0.54307 0.44441 0.0
C1244 C 0.17235 0.23722 0.25781 0.0
C1245 C 0.15191 0.24377 0.22766 0.0
C1246 C 0.13089 0.23382 0.32606 0.0
C1247 C 0.15159 0.22953 0.35801 0.0
N1248 N 0.19226 0.23037 0.35834 0.0
N1249 N 0.11197 0.25132 0.2348 0.0
C1250 C 0.17241 0.23206 0.32495 0.0
C1251 C 0.13117 0.24274 0.26201 0.0
N1252 N 0.19161 0.23534 0.22171 0.0
N1253 N 0.11102 0.22896 0.35652 0.0
H1254 H 0.1114 0.25791 0.18798 0.0
H1255 H 0.09696 0.25348 0.26022 0.0
H1256 H 0.11027 0.22288 0.40394 0.0
H1257 H 0.09543 0.22936 0.33336 0.0
H1258 H 0.20654 0.22844 0.23937 0.0
H1259 H 0.19211 0.23868 0.17207 0.0
H1260 H 0.20789 0.23441 0.33856 0.0
H1261 H 0.19301 0.22684 0.40778 0.0
C1262 C 0.5063 0.37599 0.06377 0.0
C1263 C 0.5123 0.39627 0.09585 0.0
C1264 C 0.50843 0.41717 0.99408 0.0
C1265 C 0.49939 0.39767 0.96417 0.0
N1266 N 0.48814 0.35858 0.97106 0.0
N1267 N 0.51588 0.43685 0.09444 0.0
C1268 C 0.49813 0.37697 0.99882 0.0
C1269 C 0.51267 0.41704 0.0617 0.0
N1270 N 0.50883 0.35581 0.09499 0.0
N1271 N 0.51337 0.43572 0.95734 0.0
H1272 H 0.51833 0.43761 0.14442 0.0
H1273 H 0.51396 0.45268 0.07324 0.0
H1274 H 0.51094 0.43614 0.90724 0.0
H1275 H 0.52203 0.44968 0.97516 0.0
H1276 H 0.50705 0.34024 0.07217 0.0
H1277 H 0.51447 0.35461 0.14279 0.0
H1278 H 0.48418 0.34395 0.99654 0.0
H1279 H 0.48241 0.35838 0.92334 0.0
C1280 C 0.08713 0.32885 0.056 0.0
C1281 C 0.10282 0.31951 0.10037 0.0
C1282 C 0.08605 0.34081 0.1901 0.0
C1283 C 0.07094 0.35083 0.14542 0.0
N1284 N 0.05715 0.356 0.03649 0.0
N1285 N 0.1148 0.3125 0.21026 0.0
C1286 C 0.07126 0.34505 0.07857 0.0
C1287 C 0.10164 0.32437 0.16768 0.0
N1288 N 0.08746 0.32208 0.99254 0.0
N1289 N 0.08591 0.34765 0.25349 0.0
H1290 H 0.12635 0.30024 0.1956 0.0
H1291 H 0.11324 0.31342 0.2604 0.0
H1292 H 0.07401 0.35891 0.27205 0.0
H1293 H 0.09813 0.34315 0.28726 0.0
H1294 H 0.07534 0.32646 0.9584 0.0
H1295 H 0.0995 0.31098 0.97395 0.0
H1296 H 0.05765 0.35432 0.98637 0.0
H1297 H 0.04524 0.36784 0.0515 0.0
C1298 C 0.88268 0.84756 0.44142 0.0
C1299 C 0.88054 0.82644 0.40977 0.0
C1300 C 0.90787 0.83807 0.32764 0.0
C1301 C 0.91133 0.85845 0.362 0.0
N1302 N 0.90642 0.88002 0.46057 0.0
N1303 N 0.89507 0.79946 0.332 0.0
C1304 C 0.89989 0.8626 0.42132 0.0
C1305 C 0.89444 0.82096 0.35595 0.0
N1306 N 0.86854 0.85313 0.49128 0.0
N1307 N 0.91645 0.83544 0.26655 0.0
H1308 H 0.88528 0.78633 0.35015 0.0
H1309 H 0.90674 0.79417 0.29744 0.0
H1310 H 0.92577 0.8479 0.24303 0.0
H1311 H 0.91237 0.82188 0.23663 0.0
H1312 H 0.86754 0.86934 0.51064 0.0
H1313 H 0.85685 0.84193 0.51094 0.0
H1314 H 0.90022 0.88238 0.50732 0.0
H1315 H 0.91978 0.89077 0.44958 0.0
C1316 C 0.39893 0.67551 0.66015 0.0
C1317 C 0.38667 0.66961 0.60356 0.0
C1318 C 0.40657 0.6336 0.59771 0.0
C1319 C 0.41631 0.63811 0.65927 0.0
N1320 N 0.41952 0.66193 0.75369 0.0
N1321 N 0.37716 0.64258 0.52053 0.0
C1322 C 0.41204 0.65877 0.69163 0.0
C1323 C 0.38994 0.64847 0.57305 0.0
N1324 N 0.39808 0.69704 0.68384 0.0
N1325 N 0.41408 0.61587 0.56111 0.0
H1326 H 0.36585 0.65363 0.49828 0.0
H1327 H 0.37683 0.62632 0.5014 0.0
H1328 H 0.4269 0.60503 0.57601 0.0
H1329 H 0.40927 0.61325 0.51315 0.0
H1330 H 0.4085 0.70283 0.7209 0.0
H1331 H 0.38828 0.70973 0.66318 0.0
H1332 H 0.41478 0.67563 0.78228 0.0
H1333 H 0.42877 0.64983 0.77902 0.0
C1334 C 0.59266 0.15481 0.94313 0.0
C1335 C 0.61014 0.16303 0.90272 0.0
C1336 C 0.59702 0.13952 0.81244 0.0
C1337 C 0.57946 0.13146 0.85276 0.0
N1338 N 0.56247 0.1278 0.95852 0.0
N1339 N 0.62794 0.16583 0.79777 0.0
C1340 C 0.57765 0.13826 0.91859 0.0
C1341 C 0.61223 0.15591 0.83718 0.0
N1342 N 0.59032 0.16309 0.00474 0.0
N1343 N 0.59927 0.13116 0.7509 0.0
H1344 H 0.63945 0.17785 0.81397 0.0
H1345 H 0.62887 0.16339 0.74794 0.0
H1346 H 0.58771 0.12005 0.73014 0.0
H1347 H 0.61306 0.13421 0.72105 0.0
H1348 H 0.57635 0.16015 0.03402 0.0
H1349 H 0.60197 0.17396 0.02614 0.0
H1350 H 0.56169 0.13016 0.00842 0.0
H1351 H 0.5515 0.11524 0.94269 0.0
C1352 C 0.09177 0.64328 0.30246 0.0
C1353 C 0.077 0.6329 0.34725 0.0
C1354 C 0.09221 0.65574 0.43587 0.0
C1355 C 0.10851 0.66442 0.39241 0.0
N1356 N 0.12474 0.6667 0.28525 0.0
N1357 N 0.06406 0.62706 0.4569 0.0
C1358 C 0.10855 0.65828 0.32584 0.0
C1359 C 0.07729 0.63867 0.41402 0.0
N1360 N 0.08924 0.63925 0.23755 0.0
N1361 N 0.09103 0.66385 0.49789 0.0
H1362 H 0.05285 0.61446 0.44272 0.0
H1363 H 0.06524 0.62868 0.50701 0.0
H1364 H 0.10237 0.67563 0.51647 0.0
H1365 H 0.07795 0.66012 0.52976 0.0
H1366 H 0.09788 0.64794 0.20151 0.0
H1367 H 0.07715 0.6282 0.21908 0.0
H1368 H 0.1274 0.66095 0.23822 0.0
H1369 H 0.13638 0.67891 0.29945 0.0
C1370 C 0.58354 0.81379 0.63937 0.0
C1371 C 0.59665 0.81892 0.58369 0.0
C1372 C 0.5777 0.85538 0.57413 0.0
C1373 C 0.56771 0.85186 0.63583 0.0
N1374 N 0.56276 0.82871 0.73093 0.0
N1375 N 0.60691 0.84466 0.49812 0.0
C1376 C 0.57081 0.83122 0.66923 0.0
C1377 C 0.59395 0.83977 0.55108 0.0
N1378 N 0.5832 0.79237 0.66388 0.0
N1379 N 0.57084 0.87303 0.53617 0.0
H1380 H 0.61772 0.83295 0.47658 0.0
H1381 H 0.60777 0.86068 0.47751 0.0
H1382 H 0.5582 0.88427 0.55003 0.0
H1383 H 0.57592 0.87515 0.48824 0.0
H1384 H 0.57215 0.78725 0.70023 0.0
H1385 H 0.59253 0.77912 0.64437 0.0
H1386 H 0.56679 0.81503 0.76042 0.0
H1387 H 0.55368 0.84123 0.75504 0.0
C1388 C 0.39269 0.36131 0.81702 0.0
C1389 C 0.41144 0.36699 0.85608 0.0
C1390 C 0.39588 0.34545 0.94681 0.0
C1391 C 0.37866 0.33744 0.90518 0.0
N1392 N 0.36151 0.3358 0.79883 0.0
N1393 N 0.43171 0.36475 0.95719 0.0
C1394 C 0.37705 0.34506 0.83998 0.0
C1395 C 0.41326 0.35917 0.92083 0.0
N1396 N 0.38987 0.37144 0.75801 0.0
N1397 N 0.39507 0.34061 0.01162 0.0
H1398 H 0.44391 0.37617 0.94153 0.0
H1399 H 0.43556 0.35733 0.00156 0.0
H1400 H 0.38224 0.33101 0.03244 0.0
H1401 H 0.40587 0.34766 0.04583 0.0
H1402 H 0.37526 0.36998 0.73039 0.0
H1403 H 0.40147 0.38281 0.73866 0.0
H1404 H 0.36139 0.3386 0.74902 0.0
H1405 H 0.3497 0.3238 0.8131 0.0
C1406 C 0.88794 0.1616 0.16245 0.0
C1407 C 0.88195 0.16055 0.09592 0.0
C1408 C 0.90804 0.12926 0.07857 0.0
C1409 C 0.91311 0.12949 0.1459 0.0
N1410 N 0.90525 0.14276 0.25406 0.0
N1411 N 0.88311 0.14173 0.99249 0.0
C1412 C 0.90237 0.14484 0.18851 0.0
C1413 C 0.89097 0.14379 0.05454 0.0
N1414 N 0.88 0.17877 0.2005 0.0
N1415 N 0.92033 0.11605 0.03717 0.0
H1416 H 0.87111 0.15262 0.97274 0.0
H1417 H 0.88719 0.12828 0.96216 0.0
H1418 H 0.93312 0.10523 0.05255 0.0
H1419 H 0.91921 0.11711 0.98691 0.0
H1420 H 0.88597 0.18214 0.24695 0.0
H1421 H 0.8683 0.19062 0.18428 0.0
H1422 H 0.89603 0.15189 0.28809 0.0
H1423 H 0.91549 0.13044 0.27499 0.0
C1424 C 0.88202 0.65725 0.83901 0.0
C1425 C 0.88654 0.66854 0.89835 0.0
C1426 C 0.92496 0.65354 0.89841 0.0
C1427 C 0.91927 0.63965 0.84479 0.0
N1428 N 0.89231 0.62731 0.76476 0.0
N1429 N 0.91108 0.67519 0.98962 0.0
C1430 C 0.89774 0.6412 0.81536 0.0
C1431 C 0.90776 0.66628 0.92919 0.0
N1432 N 0.86329 0.66267 0.80352 0.0
N1433 N 0.94669 0.65455 0.92022 0.0
H1434 H 0.89869 0.68412 0.0147 0.0
H1435 H 0.92532 0.67189 0.0176 0.0
H1436 H 0.95979 0.64508 0.90045 0.0
H1437 H 0.95216 0.66622 0.95455 0.0
H1438 H 0.86044 0.65681 0.75665 0.0
H1439 H 0.85158 0.67479 0.81795 0.0
H1440 H 0.87597 0.6255 0.74708 0.0
H1441 H 0.90399 0.61671 0.74227 0.0
C1442 C 0.11245 0.15401 0.66566 0.0
C1443 C 0.1121 0.16008 0.59908 0.0
C1444 C 0.07783 0.13792 0.58237 0.0
C1445 C 0.07917 0.13063 0.6478 0.0
N1446 N 0.09904 0.12879 0.7496 0.0
N1447 N 0.09674 0.15585 0.49166 0.0
C1448 C 0.09695 0.1377 0.68873 0.0
C1449 C 0.09535 0.15157 0.55671 0.0
N1450 N 0.12671 0.16479 0.70759 0.0
N1451 N 0.05978 0.13185 0.54498 0.0
H1452 H 0.10944 0.16573 0.47127 0.0
H1453 H 0.08643 0.14828 0.45713 0.0
H1454 H 0.04736 0.12071 0.56075 0.0
H1455 H 0.05637 0.13877 0.49967 0.0
H1456 H 0.12594 0.16298 0.75773 0.0
H1457 H 0.13811 0.17716 0.69305 0.0
H1458 H 0.11314 0.13124 0.77883 0.0
H1459 H 0.08738 0.11757 0.7694 0.0
C1460 C 0.57907 0.33489 0.31835 0.0
C1461 C 0.57657 0.35635 0.34759 0.0
C1462 C 0.60453 0.34637 0.43002 0.0
C1463 C 0.60574 0.32435 0.40348 0.0
N1464 N 0.58984 0.29594 0.33235 0.0
N1465 N 0.58228 0.3803 0.44124 0.0
C1466 C 0.59158 0.31801 0.35098 0.0
C1467 C 0.58808 0.3616 0.40609 0.0
N1468 N 0.57042 0.33093 0.25795 0.0
N1469 N 0.61881 0.35266 0.47882 0.0
H1470 H 0.56948 0.39138 0.42761 0.0
H1471 H 0.58846 0.38359 0.48754 0.0
H1472 H 0.62977 0.34146 0.50182 0.0
H1473 H 0.62061 0.36932 0.4941 0.0
H1474 H 0.57387 0.31636 0.23145 0.0
H1475 H 0.56176 0.34314 0.23138 0.0
H1476 H 0.57789 0.2903 0.29911 0.0
H1477 H 0.59897 0.28288 0.35352 0.0
C1478 C 0.39762 0.8384 0.0605 0.0
C1479 C 0.38111 0.82995 0.1038 0.0
C1480 C 0.396 0.85312 0.19229 0.0
C1481 C 0.41249 0.8616 0.14914 0.0
N1482 N 0.42862 0.86443 0.04214 0.0
N1483 N 0.36663 0.82556 0.21238 0.0
C1484 C 0.41337 0.85464 0.08327 0.0
C1485 C 0.38075 0.83638 0.1701 0.0
N1486 N 0.39822 0.83071 0.99792 0.0
N1487 N 0.39464 0.86153 0.25397 0.0
H1488 H 0.35531 0.81308 0.19805 0.0
H1489 H 0.36718 0.82758 0.26244 0.0
H1490 H 0.40618 0.8731 0.27268 0.0
H1491 H 0.38142 0.85815 0.28564 0.0
H1492 H 0.41087 0.83442 0.96478 0.0
H1493 H 0.38621 0.8197 0.97888 0.0
H1494 H 0.42938 0.86161 0.99249 0.0
H1495 H 0.4403 0.87645 0.0572 0.0
C1496 C 0.90131 0.36315 0.58036 0.0
C1497 C 0.91137 0.36054 0.6424 0.0
C1498 C 0.89297 0.32396 0.65552 0.0
C1499 C 0.88121 0.32769 0.59656 0.0
N1500 N 0.87156 0.35187 0.50676 0.0
N1501 N 0.91404 0.34061 0.74401 0.0
C1502 C 0.88447 0.34769 0.56035 0.0
C1503 C 0.90652 0.34149 0.68138 0.0
N1504 N 0.90879 0.37954 0.53894 0.0
N1505 N 0.89136 0.30363 0.68652 0.0
H1506 H 0.92369 0.35335 0.76508 0.0
H1507 H 0.90904 0.3283 0.77701 0.0
H1508 H 0.8811 0.29054 0.67031 0.0
H1509 H 0.90148 0.29908 0.72564 0.0
H1510 H 0.90376 0.38067 0.49069 0.0
H1511 H 0.92172 0.39073 0.55048 0.0
H1512 H 0.87137 0.36736 0.4829 0.0
H1513 H 0.85979 0.34041 0.48873 0.0
C1514 C 0.38633 0.1651 0.33417 0.0
C1515 C 0.39074 0.17549 0.39488 0.0
C1516 C 0.42791 0.15762 0.3983 0.0
C1517 C 0.42193 0.14449 0.34337 0.0
N1518 N 0.39531 0.13488 0.25942 0.0
N1519 N 0.41443 0.17964 0.48926 0.0
C1520 C 0.40106 0.14797 0.31144 0.0
C1521 C 0.41129 0.17144 0.42793 0.0
N1522 N 0.36872 0.17238 0.29681 0.0
N1523 N 0.44935 0.15688 0.42246 0.0
H1524 H 0.40245 0.18939 0.51348 0.0
H1525 H 0.42797 0.17505 0.51858 0.0
H1526 H 0.46197 0.14662 0.40343 0.0
H1527 H 0.45519 0.16789 0.45805 0.0
H1528 H 0.36603 0.16702 0.24936 0.0
H1529 H 0.35803 0.18551 0.31059 0.0
H1530 H 0.37919 0.13461 0.23945 0.0
H1531 H 0.40639 0.12339 0.23805 0.0
C1532 C 0.60856 0.65584 0.171 0.0
C1533 C 0.61154 0.65691 0.10281 0.0
C1534 C 0.58144 0.62941 0.0863 0.0
C1535 C 0.5791 0.62765 0.15457 0.0
N1536 N 0.59228 0.63594 0.26242 0.0
N1537 N 0.60397 0.6426 0.99577 0.0
C1538 C 0.59322 0.63993 0.19716 0.0
C1539 C 0.59891 0.64304 0.06045 0.0
N1540 N 0.61981 0.6706 0.21044 0.0
N1541 N 0.56637 0.61884 0.04634 0.0
H1542 H 0.61658 0.65259 0.97531 0.0
H1543 H 0.59701 0.63114 0.96322 0.0
H1544 H 0.55353 0.6084 0.0634 0.0
H1545 H 0.5655 0.6216 0.99658 0.0
H1546 H 0.61631 0.67261 0.25955 0.0
H1547 H 0.63175 0.68203 0.19332 0.0
H1548 H 0.60371 0.64258 0.29557 0.0
H1549 H 0.58105 0.62448 0.28317 0.0
C1550 C 0.07368 0.83418 0.82587 0.0
C1551 C 0.07081 0.8546 0.86065 0.0
C1552 C 0.0985 0.84244 0.9413 0.0
C1553 C 0.10081 0.82172 0.90767 0.0
N1554 N 0.08656 0.79546 0.82785 0.0
N1555 N 0.07551 0.87549 0.96039 0.0
C1556 C 0.08699 0.81674 0.85334 0.0
C1557 C 0.08182 0.85803 0.92096 0.0
N1558 N 0.06478 0.83191 0.76506 0.0
N1559 N 0.11225 0.84722 0.99271 0.0
H1560 H 0.06265 0.88678 0.94864 0.0
H1561 H 0.08134 0.87747 0.00766 0.0
H1562 H 0.12339 0.83548 0.01259 0.0
H1563 H 0.11338 0.86318 0.01362 0.0
H1564 H 0.06848 0.81842 0.73449 0.0
H1565 H 0.05532 0.84451 0.74253 0.0
H1566 H 0.07508 0.7904 0.79255 0.0
H1567 H 0.09629 0.78221 0.84569 0.0
loop_
_geom_bond_atom_site_label_1
_geom_bond_atom_site_label_2
_geom_bond_distance
_geom_bond_site_symmetry_2
_ccdc_geom_bond_type
In0 O1 2.294 . S
In0 O2 2.326 . S
In0 O6 2.266 1_554 S
In0 O7 2.326 1_554 S
In0 O8 2.266 . S
In0 O9 2.326 . S
In0 O11 2.294 . S
In0 O12 2.326 . S
O1 In0 2.294 . S
O1 C10 1.240 . S
O2 In0 2.326 . S
O2 C10 1.252 . S
C3 O6 1.252 . S
C3 O7 1.260 . S
C4 O11 1.240 . S
C4 O12 1.252 . S
C5 O8 1.252 . S
C5 O9 1.260 . S
O6 In0 2.266 1_556 S
O6 C3 1.252 . S
O7 In0 2.326 1_556 S
O7 C3 1.260 . S
O8 In0 2.266 . S
O8 C5 1.252 . S
O9 In0 2.326 . S
O9 C5 1.260 . S
C10 O1 1.240 . S
C10 O2 1.252 . S
O11 In0 2.294 . S
O11 C4 1.240 . S
O12 In0 2.326 . S
O12 C4 1.252 . S
In13 O14 2.294 . S
In13 O15 2.326 . S
In13 O19 2.266 . S
In13 O20 2.326 . S
In13 O21 2.279 . S
In13 O22 2.326 . S
In13 O24 2.294 . S
In13 O25 2.326 . S
O14 In13 2.294 . S
O14 C23 1.240 . S
O15 In13 2.326 . S
O15 C23 1.252 . S
C16 O19 1.252 . S
C16 O20 1.260 . S
C17 O24 1.240 . S
C17 O25 1.252 . S
C18 O21 1.262 . S
C18 O22 1.260 . S
O19 In13 2.266 . S
O19 C16 1.252 . S
O20 In13 2.326 . S
O20 C16 1.260 . S
O21 In13 2.279 . S
O21 C18 1.262 . S
O22 In13 2.326 . S
O22 C18 1.260 . S
C23 O14 1.240 . S
C23 O15 1.252 . S
O24 In13 2.294 . S
O24 C17 1.240 . S
O25 In13 2.326 . S
O25 C17 1.252 . S
In26 O27 2.294 . S
In26 O28 2.326 . S
In26 O32 2.266 . S
In26 O33 2.326 . S
In26 O34 2.266 . S
In26 O35 2.326 . S
In26 O37 2.294 . S
In26 O38 2.326 . S
O27 In26 2.294 . S
O27 C36 1.240 . S
O28 In26 2.326 . S
O28 C36 1.252 . S
C29 O32 1.252 . S
C29 O33 1.260 . S
C30 O37 1.240 . S
C30 O38 1.252 . S
C31 O34 1.252 . S
C31 O35 1.260 . S
O32 In26 2.266 . S
O32 C29 1.252 . S
O33 In26 2.326 . S
O33 C29 1.260 . S
O34 In26 2.266 . S
O34 C31 1.252 . S
O35 In26 2.326 . S
O35 C31 1.260 . S
C36 O27 1.240 . S
C36 O28 1.252 . S
O37 In26 2.294 . S
O37 C30 1.240 . S
O38 In26 2.326 . S
O38 C30 1.252 . S
In39 O40 2.294 . S
In39 O41 2.326 . S
In39 O45 2.266 . S
In39 O46 2.326 . S
In39 O47 2.266 . S
In39 O48 2.326 . S
In39 O50 2.294 . S
In39 O51 2.326 . S
O40 In39 2.294 . S
O40 C49 1.240 . S
O41 In39 2.326 . S
O41 C49 1.252 . S
C42 O45 1.252 . S
C42 O46 1.260 . S
C43 O50 1.240 . S
C43 O51 1.252 . S
C44 O47 1.252 . S
C44 O48 1.260 . S
O45 In39 2.266 . S
O45 C42 1.252 . S
O46 In39 2.326 . S
O46 C42 1.260 . S
O47 In39 2.266 . S
O47 C44 1.252 . S
O48 In39 2.326 . S
O48 C44 1.260 . S
C49 O40 1.240 . S
C49 O41 1.252 . S
O50 In39 2.294 . S
O50 C43 1.240 . S
O51 In39 2.326 . S
O51 C43 1.252 . S
In52 O53 2.294 . S
In52 O54 2.326 . S
In52 O58 2.266 . S
In52 O59 2.326 . S
In52 O60 2.266 . S
In52 O61 2.326 . S
In52 O63 2.294 . S
In52 O64 2.326 . S
O53 In52 2.294 . S
O53 C62 1.240 . S
O54 In52 2.326 . S
O54 C62 1.252 . S
C55 O58 1.252 . S
C55 O59 1.260 . S
C56 O63 1.240 . S
C56 O64 1.252 . S
C57 O60 1.252 . S
C57 O61 1.260 . S
O58 In52 2.266 . S
O58 C55 1.252 . S
O59 In52 2.326 . S
O59 C55 1.260 . S
O60 In52 2.266 . S
O60 C57 1.252 . S
O61 In52 2.326 . S
O61 C57 1.260 . S
C62 O53 1.240 . S
C62 O54 1.252 . S
O63 In52 2.294 . S
O63 C56 1.240 . S
O64 In52 2.326 . S
O64 C56 1.252 . S
In65 O66 2.294 . S
In65 O67 2.326 . S
In65 O71 2.266 . S
In65 O72 2.326 . S
In65 O73 2.266 . S
In65 O74 2.326 . S
In65 O76 2.294 . S
In65 O77 2.326 . S
O66 In65 2.294 . S
O66 C75 1.240 . S
O67 In65 2.326 . S
O67 C75 1.252 . S
C68 O71 1.252 . S
C68 O72 1.260 . S
C69 O76 1.240 . S
C69 O77 1.252 . S
C70 O73 1.252 . S
C70 O74 1.260 . S
O71 In65 2.266 . S
O71 C68 1.252 . S
O72 In65 2.326 . S
O72 C68 1.260 . S
O73 In65 2.266 . S
O73 C70 1.252 . S
O74 In65 2.326 . S
O74 C70 1.260 . S
C75 O66 1.240 . S
C75 O67 1.252 . S
O76 In65 2.294 . S
O76 C69 1.240 . S
O77 In65 2.326 . S
O77 C69 1.252 . S
In78 O79 2.294 . S
In78 O80 2.326 . S
In78 O84 2.266 . S
In78 O85 2.326 . S
In78 O86 2.266 1_556 S
In78 O87 2.326 1_556 S
In78 O89 2.294 . S
In78 O90 2.326 . S
O79 In78 2.294 . S
O79 C88 1.240 . S
O80 In78 2.326 . S
O80 C88 1.252 . S
C81 O84 1.252 . S
C81 O85 1.260 . S
C82 O89 1.240 . S
C82 O90 1.252 . S
C83 O86 1.252 . S
C83 O87 1.260 . S
O84 In78 2.266 . S
O84 C81 1.252 . S
O85 In78 2.326 . S
O85 C81 1.260 . S
O86 In78 2.266 1_554 S
O86 C83 1.252 . S
O87 In78 2.326 1_554 S
O87 C83 1.260 . S
C88 O79 1.240 . S
C88 O80 1.252 . S
O89 In78 2.294 . S
O89 C82 1.240 . S
O90 In78 2.326 . S
O90 C82 1.252 . S
In91 O92 2.294 . S
In91 O93 2.326 . S
In91 O97 2.279 . S
In91 O98 2.326 . S
In91 O99 2.266 . S
In91 O100 2.326 . S
In91 O102 2.294 . S
In91 O103 2.326 . S
O92 In91 2.294 . S
O92 C101 1.240 . S
O93 In91 2.326 . S
O93 C101 1.252 . S
C94 O97 1.262 . S
C94 O98 1.260 . S
C95 O102 1.240 . S
C95 O103 1.252 . S
C96 O99 1.252 . S
C96 O100 1.260 . S
O97 In91 2.279 . S
O97 C94 1.262 . S
O98 In91 2.326 . S
O98 C94 1.260 . S
O99 In91 2.266 . S
O99 C96 1.252 . S
O100 In91 2.326 . S
O100 C96 1.260 . S
C101 O92 1.240 . S
C101 O93 1.252 . S
O102 In91 2.294 . S
O102 C95 1.240 . S
O103 In91 2.326 . S
O103 C95 1.252 . S
In104 O105 2.294 . S
In104 O106 2.326 . S
In104 O110 2.266 . S
In104 O111 2.326 . S
In104 O112 2.266 1_556 S
In104 O113 2.326 1_556 S
In104 O115 2.294 . S
In104 O116 2.326 . S
O105 In104 2.294 . S
O105 C114 1.240 . S
O106 In104 2.326 . S
O106 C114 1.252 . S
C107 O110 1.252 . S
C107 O111 1.260 . S
C108 O115 1.240 . S
C108 O116 1.252 . S
C109 O112 1.252 . S
C109 O113 1.260 . S
O110 In104 2.266 . S
O110 C107 1.252 . S
O111 In104 2.326 . S
O111 C107 1.260 . S
O112 In104 2.266 1_554 S
O112 C109 1.252 . S
O113 In104 2.326 1_554 S
O113 C109 1.260 . S
C114 O105 1.240 . S
C114 O106 1.252 . S
O115 In104 2.294 . S
O115 C108 1.240 . S
O116 In104 2.326 . S
O116 C108 1.252 . S
In117 O118 2.294 . S
In117 O119 2.326 . S
In117 O123 2.279 . S
In117 O124 2.326 . S
In117 O125 2.266 . S
In117 O126 2.326 . S
In117 O128 2.294 . S
In117 O129 2.326 . S
O118 In117 2.294 . S
O118 C127 1.240 . S
O119 In117 2.326 . S
O119 C127 1.252 . S
C120 O123 1.262 . S
C120 O124 1.260 . S
C121 O128 1.240 . S
C121 O129 1.252 . S
C122 O125 1.252 . S
C122 O126 1.260 . S
O123 In117 2.279 . S
O123 C120 1.262 . S
O124 In117 2.326 . S
O124 C120 1.260 . S
O125 In117 2.266 . S
O125 C122 1.252 . S
O126 In117 2.326 . S
O126 C122 1.260 . S
C127 O118 1.240 . S
C127 O119 1.252 . S
O128 In117 2.294 . S
O128 C121 1.240 . S
O129 In117 2.326 . S
O129 C121 1.252 . S
In130 O131 2.294 . S
In130 O132 2.326 . S
In130 O136 2.266 . S
In130 O137 2.326 . S
In130 O138 2.266 . S
In130 O139 2.326 . S
In130 O141 2.294 . S
In130 O142 2.326 . S
O131 In130 2.294 . S
O131 C140 1.240 . S
O132 In130 2.326 . S
O132 C140 1.252 . S
C133 O136 1.252 . S
C133 O137 1.260 . S
C134 O141 1.240 . S
C134 O142 1.252 . S
C135 O138 1.252 . S
C135 O139 1.260 . S
O136 In130 2.266 . S
O136 C133 1.252 . S
O137 In130 2.326 . S
O137 C133 1.260 . S
O138 In130 2.266 . S
O138 C135 1.252 . S
O139 In130 2.326 . S
O139 C135 1.260 . S
C140 O131 1.240 . S
C140 O132 1.252 . S
O141 In130 2.294 . S
O141 C134 1.240 . S
O142 In130 2.326 . S
O142 C134 1.252 . S
In143 O144 2.294 . S
In143 O145 2.326 . S
In143 O149 2.266 . S
In143 O150 2.326 . S
In143 O151 2.266 . S
In143 O152 2.326 . S
In143 O154 2.294 . S
In143 O155 2.326 . S
O144 In143 2.294 . S
O144 C153 1.240 . S
O145 In143 2.326 . S
O145 C153 1.252 . S
C146 O149 1.252 . S
C146 O150 1.260 . S
C147 O154 1.240 . S
C147 O155 1.252 . S
C148 O151 1.252 . S
C148 O152 1.260 . S
O149 In143 2.266 . S
O149 C146 1.252 . S
O150 In143 2.326 . S
O150 C146 1.260 . S
O151 In143 2.266 . S
O151 C148 1.252 . S
O152 In143 2.326 . S
O152 C148 1.260 . S
C153 O144 1.240 . S
C153 O145 1.252 . S
O154 In143 2.294 . S
O154 C147 1.240 . S
O155 In143 2.326 . S
O155 C147 1.252 . S
In156 O157 2.294 . S
In156 O158 2.326 . S
In156 O162 2.266 . S
In156 O163 2.326 . S
In156 O164 2.266 . S
In156 O165 2.326 . S
In156 O167 2.294 . S
In156 O168 2.326 . S
O157 In156 2.294 . S
O157 C166 1.240 . S
O158 In156 2.326 . S
O158 C166 1.252 . S
C159 O162 1.252 . S
C159 O163 1.260 . S
C160 O167 1.240 . S
C160 O168 1.252 . S
C161 O164 1.252 . S
C161 O165 1.260 . S
O162 In156 2.266 . S
O162 C159 1.252 . S
O163 In156 2.326 . S
O163 C159 1.260 . S
O164 In156 2.266 . S
O164 C161 1.252 . S
O165 In156 2.326 . S
O165 C161 1.260 . S
C166 O157 1.240 . S
C166 O158 1.252 . S
O167 In156 2.294 . S
O167 C160 1.240 . S
O168 In156 2.326 . S
O168 C160 1.252 . S
In169 O170 2.294 . S
In169 O171 2.326 . S
In169 O175 2.266 . S
In169 O176 2.326 . S
In169 O177 2.266 . S
In169 O178 2.326 . S
In169 O180 2.294 . S
In169 O181 2.326 . S
O170 In169 2.294 . S
O170 C179 1.240 . S
O171 In169 2.326 . S
O171 C179 1.252 . S
C172 O175 1.252 . S
C172 O176 1.260 . S
C173 O180 1.240 . S
C173 O181 1.252 . S
C174 O177 1.252 . S
C174 O178 1.260 . S
O175 In169 2.266 . S
O175 C172 1.252 . S
O176 In169 2.326 . S
O176 C172 1.260 . S
O177 In169 2.266 . S
O177 C174 1.252 . S
O178 In169 2.326 . S
O178 C174 1.260 . S
C179 O170 1.240 . S
C179 O171 1.252 . S
O180 In169 2.294 . S
O180 C173 1.240 . S
O181 In169 2.326 . S
O181 C173 1.252 . S
In182 O183 2.294 . S
In182 O184 2.326 . S
In182 O188 2.266 1_554 S
In182 O189 2.326 1_554 S
In182 O190 2.266 . S
In182 O191 2.326 . S
In182 O193 2.294 . S
In182 O194 2.326 . S
O183 In182 2.294 . S
O183 C192 1.240 . S
O184 In182 2.326 . S
O184 C192 1.252 . S
C185 O188 1.252 . S
C185 O189 1.260 . S
C186 O193 1.240 . S
C186 O194 1.252 . S
C187 O190 1.252 . S
C187 O191 1.260 . S
O188 In182 2.266 1_556 S
O188 C185 1.252 . S
O189 In182 2.326 1_556 S
O189 C185 1.260 . S
O190 In182 2.266 . S
O190 C187 1.252 . S
O191 In182 2.326 . S
O191 C187 1.260 . S
C192 O183 1.240 . S
C192 O184 1.252 . S
O193 In182 2.294 . S
O193 C186 1.240 . S
O194 In182 2.326 . S
O194 C186 1.252 . S
In195 O196 2.294 . S
In195 O197 2.326 . S
In195 O201 2.266 . S
In195 O202 2.326 . S
In195 O203 2.279 . S
In195 O204 2.326 . S
In195 O206 2.294 . S
In195 O207 2.326 . S
O196 In195 2.294 . S
O196 C205 1.240 . S
O197 In195 2.326 . S
O197 C205 1.252 . S
C198 O201 1.252 . S
C198 O202 1.260 . S
C199 O206 1.240 . S
C199 O207 1.252 . S
C200 O203 1.262 . S
C200 O204 1.260 . S
O201 In195 2.266 . S
O201 C198 1.252 . S
O202 In195 2.326 . S
O202 C198 1.260 . S
O203 In195 2.279 . S
O203 C200 1.262 . S
O204 In195 2.326 . S
O204 C200 1.260 . S
C205 O196 1.240 . S
C205 O197 1.252 . S
O206 In195 2.294 . S
O206 C199 1.240 . S
O207 In195 2.326 . S
O207 C199 1.252 . S
In208 O209 2.294 . S
In208 O210 2.326 . S
In208 O214 2.266 . S
In208 O215 2.326 . S
In208 O216 2.266 . S
In208 O217 2.326 . S
In208 O219 2.294 . S
In208 O220 2.326 . S
O209 In208 2.294 . S
O209 C218 1.240 . S
O210 In208 2.326 . S
O210 C218 1.252 . S
C211 O214 1.252 . S
C211 O215 1.260 . S
C212 O219 1.240 . S
C212 O220 1.252 . S
C213 O216 1.252 . S
C213 O217 1.260 . S
O214 In208 2.266 . S
O214 C211 1.252 . S
O215 In208 2.326 . S
O215 C211 1.260 . S
O216 In208 2.266 . S
O216 C213 1.252 . S
O217 In208 2.326 . S
O217 C213 1.260 . S
C218 O209 1.240 . S
C218 O210 1.252 . S
O219 In208 2.294 . S
O219 C212 1.240 . S
O220 In208 2.326 . S
O220 C212 1.252 . S
In221 O222 2.294 . S
In221 O223 2.326 . S
In221 O227 2.266 . S
In221 O228 2.326 . S
In221 O229 2.266 . S
In221 O230 2.326 . S
In221 O232 2.294 . S
In221 O233 2.326 . S
O222 In221 2.294 . S
O222 C231 1.240 . S
O223 In221 2.326 . S
O223 C231 1.252 . S
C224 O227 1.252 . S
C224 O228 1.260 . S
C225 O232 1.240 . S
C225 O233 1.252 . S
C226 O229 1.252 . S
C226 O230 1.260 . S
O227 In221 2.266 . S
O227 C224 1.252 . S
O228 In221 2.326 . S
O228 C224 1.260 . S
O229 In221 2.266 . S
O229 C226 1.252 . S
O230 In221 2.326 . S
O230 C226 1.260 . S
C231 O222 1.240 . S
C231 O223 1.252 . S
O232 In221 2.294 . S
O232 C225 1.240 . S
O233 In221 2.326 . S
O233 C225 1.252 . S
In234 O235 2.294 . S
In234 O236 2.326 . S
In234 O240 2.266 1_554 S
In234 O241 2.326 1_554 S
In234 O242 2.266 . S
In234 O243 2.326 . S
In234 O245 2.294 . S
In234 O246 2.326 . S
O235 In234 2.294 . S
O235 C244 1.240 . S
O236 In234 2.326 . S
O236 C244 1.252 . S
C237 O240 1.252 . S
C237 O241 1.260 . S
C238 O245 1.240 . S
C238 O246 1.252 . S
C239 O242 1.252 . S
C239 O243 1.260 . S
O240 In234 2.266 1_556 S
O240 C237 1.252 . S
O241 In234 2.326 1_556 S
O241 C237 1.260 . S
O242 In234 2.266 . S
O242 C239 1.252 . S
O243 In234 2.326 . S
O243 C239 1.260 . S
C244 O235 1.240 . S
C244 O236 1.252 . S
O245 In234 2.294 . S
O245 C238 1.240 . S
O246 In234 2.326 . S
O246 C238 1.252 . S
In247 O248 2.294 . S
In247 O249 2.326 . S
In247 O253 2.279 . S
In247 O254 2.326 . S
In247 O255 2.266 . S
In247 O256 2.326 . S
In247 O258 2.294 . S
In247 O259 2.326 . S
O248 In247 2.294 . S
O248 C257 1.240 . S
O249 In247 2.326 . S
O249 C257 1.252 . S
C250 O253 1.262 . S
C250 O254 1.260 . S
C251 O258 1.240 . S
C251 O259 1.252 . S
C252 O255 1.252 . S
C252 O256 1.260 . S
O253 In247 2.279 . S
O253 C250 1.262 . S
O254 In247 2.326 . S
O254 C250 1.260 . S
O255 In247 2.266 . S
O255 C252 1.252 . S
O256 In247 2.326 . S
O256 C252 1.260 . S
C257 O248 1.240 . S
C257 O249 1.252 . S
O258 In247 2.294 . S
O258 C251 1.240 . S
O259 In247 2.326 . S
O259 C251 1.252 . S
In260 O261 2.294 . S
In260 O262 2.326 . S
In260 O266 2.266 . S
In260 O267 2.326 . S
In260 O268 2.266 1_556 S
In260 O269 2.326 1_556 S
In260 O271 2.294 . S
In260 O272 2.326 . S
O261 In260 2.294 . S
O261 C270 1.240 . S
O262 In260 2.326 . S
O262 C270 1.252 . S
C263 O266 1.252 . S
C263 O267 1.260 . S
C264 O271 1.240 . S
C264 O272 1.252 . S
C265 O268 1.252 . S
C265 O269 1.260 . S
O266 In260 2.266 . S
O266 C263 1.252 . S
O267 In260 2.326 . S
O267 C263 1.260 . S
O268 In260 2.266 1_554 S
O268 C265 1.252 . S
O269 In260 2.326 1_554 S
O269 C265 1.260 . S
C270 O261 1.240 . S
C270 O262 1.252 . S
O271 In260 2.294 . S
O271 C264 1.240 . S
O272 In260 2.326 . S
O272 C264 1.252 . S
In273 O274 2.294 . S
In273 O275 2.326 . S
In273 O279 2.279 . S
In273 O280 2.326 . S
In273 O281 2.266 . S
In273 O282 2.326 . S
In273 O284 2.294 . S
In273 O285 2.326 . S
O274 In273 2.294 . S
O274 C283 1.240 . S
O275 In273 2.326 . S
O275 C283 1.252 . S
C276 O279 1.262 . S
C276 O280 1.260 . S
C277 O284 1.240 . S
C277 O285 1.252 . S
C278 O281 1.252 . S
C278 O282 1.260 . S
O279 In273 2.279 . S
O279 C276 1.262 . S
O280 In273 2.326 . S
O280 C276 1.260 . S
O281 In273 2.266 . S
O281 C278 1.252 . S
O282 In273 2.326 . S
O282 C278 1.260 . S
C283 O274 1.240 . S
C283 O275 1.252 . S
O284 In273 2.294 . S
O284 C277 1.240 . S
O285 In273 2.326 . S
O285 C277 1.252 . S
In286 O287 2.294 . S
In286 O288 2.326 . S
In286 O292 2.266 . S
In286 O293 2.326 . S
In286 O294 2.266 . S
In286 O295 2.326 . S
In286 O297 2.294 . S
In286 O298 2.326 . S
O287 In286 2.294 . S
O287 C296 1.240 . S
O288 In286 2.326 . S
O288 C296 1.252 . S
C289 O292 1.252 . S
C289 O293 1.260 . S
C290 O297 1.240 . S
C290 O298 1.252 . S
C291 O294 1.252 . S
C291 O295 1.260 . S
O292 In286 2.266 . S
O292 C289 1.252 . S
O293 In286 2.326 . S
O293 C289 1.260 . S
O294 In286 2.266 . S
O294 C291 1.252 . S
O295 In286 2.326 . S
O295 C291 1.260 . S
C296 O287 1.240 . S
C296 O288 1.252 . S
O297 In286 2.294 . S
O297 C290 1.240 . S
O298 In286 2.326 . S
O298 C290 1.252 . S
In299 O300 2.294 . S
In299 O301 2.326 . S
In299 O305 2.266 . S
In299 O306 2.326 . S
In299 O307 2.266 . S
In299 O308 2.326 . S
In299 O310 2.294 . S
In299 O311 2.326 . S
O300 In299 2.294 . S
O300 C309 1.240 . S
O301 In299 2.326 . S
O301 C309 1.252 . S
C302 O305 1.252 . S
C302 O306 1.260 . S
C303 O310 1.240 . S
C303 O311 1.252 . S
C304 O307 1.252 . S
C304 O308 1.260 . S
O305 In299 2.266 . S
O305 C302 1.252 . S
O306 In299 2.326 . S
O306 C302 1.260 . S
O307 In299 2.266 . S
O307 C304 1.252 . S
O308 In299 2.326 . S
O308 C304 1.260 . S
C309 O300 1.240 . S
C309 O301 1.252 . S
O310 In299 2.294 . S
O310 C303 1.240 . S
O311 In299 2.326 . S
O311 C303 1.252 . S
In312 O313 2.294 . S
In312 O314 2.326 . S
In312 O318 2.266 . S
In312 O319 2.326 . S
In312 O320 2.266 . S
In312 O321 2.326 . S
In312 O323 2.294 . S
In312 O324 2.326 . S
O313 In312 2.294 . S
O313 C322 1.240 . S
O314 In312 2.326 . S
O314 C322 1.252 . S
C315 O318 1.252 . S
C315 O319 1.260 . S
C316 O323 1.240 . S
C316 O324 1.252 . S
C317 O320 1.252 . S
C317 O321 1.260 . S
O318 In312 2.266 . S
O318 C315 1.252 . S
O319 In312 2.326 . S
O319 C315 1.260 . S
O320 In312 2.266 . S
O320 C317 1.252 . S
O321 In312 2.326 . S
O321 C317 1.260 . S
C322 O313 1.240 . S
C322 O314 1.252 . S
O323 In312 2.294 . S
O323 C316 1.240 . S
O324 In312 2.326 . S
O324 C316 1.252 . S
In325 O326 2.294 . S
In325 O327 2.326 . S
In325 O331 2.266 . S
In325 O332 2.326 . S
In325 O333 2.266 . S
In325 O334 2.326 . S
In325 O336 2.294 . S
In325 O337 2.326 . S
O326 In325 2.294 . S
O326 C335 1.240 . S
O327 In325 2.326 . S
O327 C335 1.252 . S
C328 O331 1.252 . S
C328 O332 1.260 . S
C329 O336 1.240 . S
C329 O337 1.252 . S
C330 O333 1.252 . S
C330 O334 1.260 . S
O331 In325 2.266 . S
O331 C328 1.252 . S
O332 In325 2.326 . S
O332 C328 1.260 . S
O333 In325 2.266 . S
O333 C330 1.252 . S
O334 In325 2.326 . S
O334 C330 1.260 . S
C335 O326 1.240 . S
C335 O327 1.252 . S
O336 In325 2.294 . S
O336 C329 1.240 . S
O337 In325 2.326 . S
O337 C329 1.252 . S
In338 O339 2.294 . S
In338 O340 2.326 . S
In338 O344 2.266 1_556 S
In338 O345 2.326 1_556 S
In338 O346 2.266 . S
In338 O347 2.326 . S
In338 O349 2.294 . S
In338 O350 2.326 . S
O339 In338 2.294 . S
O339 C348 1.240 . S
O340 In338 2.326 . S
O340 C348 1.252 . S
C341 O344 1.252 . S
C341 O345 1.260 . S
C342 O349 1.240 . S
C342 O350 1.252 . S
C343 O346 1.252 . S
C343 O347 1.260 . S
O344 In338 2.266 1_554 S
O344 C341 1.252 . S
O345 In338 2.326 1_554 S
O345 C341 1.260 . S
O346 In338 2.266 . S
O346 C343 1.252 . S
O347 In338 2.326 . S
O347 C343 1.260 . S
C348 O339 1.240 . S
C348 O340 1.252 . S
O349 In338 2.294 . S
O349 C342 1.240 . S
O350 In338 2.326 . S
O350 C342 1.252 . S
In351 O352 2.294 . S
In351 O353 2.326 . S
In351 O357 2.279 . S
In351 O358 2.326 . S
In351 O359 2.266 . S
In351 O360 2.326 . S
In351 O362 2.294 . S
In351 O363 2.326 . S
O352 In351 2.294 . S
O352 C361 1.240 . S
O353 In351 2.326 . S
O353 C361 1.252 . S
C354 O357 1.262 . S
C354 O358 1.260 . S
C355 O362 1.240 . S
C355 O363 1.252 . S
C356 O359 1.252 . S
C356 O360 1.260 . S
O357 In351 2.279 . S
O357 C354 1.262 . S
O358 In351 2.326 . S
O358 C354 1.260 . S
O359 In351 2.266 . S
O359 C356 1.252 . S
O360 In351 2.326 . S
O360 C356 1.260 . S
C361 O352 1.240 . S
C361 O353 1.252 . S
O362 In351 2.294 . S
O362 C355 1.240 . S
O363 In351 2.326 . S
O363 C355 1.252 . S
In364 O365 2.294 . S
In364 O366 2.326 . S
In364 O370 2.266 . S
In364 O371 2.326 . S
In364 O372 2.266 1_554 S
In364 O373 2.326 1_554 S
In364 O375 2.294 . S
In364 O376 2.326 . S
O365 In364 2.294 . S
O365 C374 1.240 . S
O366 In364 2.326 . S
O366 C374 1.252 . S
C367 O370 1.252 . S
C367 O371 1.260 . S
C368 O375 1.240 . S
C368 O376 1.252 . S
C369 O372 1.252 . S
C369 O373 1.260 . S
O370 In364 2.266 . S
O370 C367 1.252 . S
O371 In364 2.326 . S
O371 C367 1.260 . S
O372 In364 2.266 1_556 S
O372 C369 1.252 . S
O373 In364 2.326 1_556 S
O373 C369 1.260 . S
C374 O365 1.240 . S
C374 O366 1.252 . S
O375 In364 2.294 . S
O375 C368 1.240 . S
O376 In364 2.326 . S
O376 C368 1.252 . S
In377 O378 2.294 . S
In377 O379 2.326 . S
In377 O383 2.266 . S
In377 O384 2.326 . S
In377 O385 2.279 . S
In377 O386 2.326 . S
In377 O388 2.294 . S
In377 O389 2.326 . S
O378 In377 2.294 . S
O378 C387 1.240 . S
O379 In377 2.326 . S
O379 C387 1.252 . S
C380 O383 1.252 . S
C380 O384 1.260 . S
C381 O388 1.240 . S
C381 O389 1.252 . S
C382 O385 1.262 . S
C382 O386 1.260 . S
O383 In377 2.266 . S
O383 C380 1.252 . S
O384 In377 2.326 . S
O384 C380 1.260 . S
O385 In377 2.279 . S
O385 C382 1.262 . S
O386 In377 2.326 . S
O386 C382 1.260 . S
C387 O378 1.240 . S
C387 O379 1.252 . S
O388 In377 2.294 . S
O388 C381 1.240 . S
O389 In377 2.326 . S
O389 C381 1.252 . S
In390 O391 2.294 . S
In390 O392 2.326 . S
In390 O396 2.266 . S
In390 O397 2.326 . S
In390 O398 2.266 . S
In390 O399 2.326 . S
In390 O401 2.294 . S
In390 O402 2.326 . S
O391 In390 2.294 . S
O391 C400 1.240 . S
O392 In390 2.326 . S
O392 C400 1.252 . S
C393 O396 1.252 . S
C393 O397 1.260 . S
C394 O401 1.240 . S
C394 O402 1.252 . S
C395 O398 1.252 . S
C395 O399 1.260 . S
O396 In390 2.266 . S
O396 C393 1.252 . S
O397 In390 2.326 . S
O397 C393 1.260 . S
O398 In390 2.266 . S
O398 C395 1.252 . S
O399 In390 2.326 . S
O399 C395 1.260 . S
C400 O391 1.240 . S
C400 O392 1.252 . S
O401 In390 2.294 . S
O401 C394 1.240 . S
O402 In390 2.326 . S
O402 C394 1.252 . S
In403 O404 2.294 . S
In403 O405 2.326 . S
In403 O409 2.266 . S
In403 O410 2.326 . S
In403 O411 2.266 . S
In403 O412 2.326 . S
In403 O414 2.294 . S
In403 O415 2.326 . S
O404 In403 2.294 . S
O404 C413 1.240 . S
O405 In403 2.326 . S
O405 C413 1.252 . S
C406 O409 1.252 . S
C406 O410 1.260 . S
C407 O414 1.240 . S
C407 O415 1.252 . S
C408 O411 1.252 . S
C408 O412 1.260 . S
O409 In403 2.266 . S
O409 C406 1.252 . S
O410 In403 2.326 . S
O410 C406 1.260 . S
O411 In403 2.266 . S
O411 C408 1.252 . S
O412 In403 2.326 . S
O412 C408 1.260 . S
C413 O404 1.240 . S
C413 O405 1.252 . S
O414 In403 2.294 . S
O414 C407 1.240 . S
O415 In403 2.326 . S
O415 C407 1.252 . S
C416 C417 1.363 1_554 S
C416 C422 1.379 . S
C416 N424 1.356 . S
C417 C416 1.363 1_556 S
C417 C423 1.363 . S
C418 C419 1.363 1_556 S
C418 C423 1.379 . S
C418 N425 1.356 . S
C419 C418 1.363 1_554 S
C419 C422 1.363 . S
N420 C422 1.356 . S
N420 H432 0.984 . S
N420 H433 0.985 . S
N421 C423 1.356 . S
N421 H426 0.984 . S
N421 H427 0.985 . S
C422 C416 1.379 . S
C422 C419 1.363 . S
C422 N420 1.356 . S
C423 C417 1.363 . S
C423 C418 1.379 . S
C423 N421 1.356 . S
N424 C416 1.356 . S
N424 H430 0.984 . S
N424 H431 0.984 . S
N425 C418 1.356 . S
N425 H428 0.984 . S
N425 H429 0.985 . S
H426 N421 0.984 . S
H427 N421 0.985 . S
H428 N425 0.984 . S
H429 N425 0.985 . S
H430 N424 0.984 . S
H431 N424 0.984 . S
H432 N420 0.984 . S
H433 N420 0.985 . S
C434 C435 1.363 . S
C434 C440 1.379 1_565 S
C434 N442 1.356 1_655 S
C435 C434 1.363 . S
C435 C441 1.363 . S
C436 C437 1.363 . S
C436 C441 1.379 1_545 S
C436 N443 1.356 . S
C437 C436 1.363 . S
C437 C440 1.363 . S
N438 C440 1.356 1_455 S
N438 H450 0.984 . S
N438 H451 0.985 1_455 S
N439 C441 1.356 . S
N439 H444 0.984 . S
N439 H445 0.985 . S
C440 C434 1.379 1_545 S
C440 C437 1.363 . S
C440 N438 1.356 1_655 S
C441 C435 1.363 . S
C441 C436 1.379 1_565 S
C441 N439 1.356 . S
N442 C434 1.356 1_455 S
N442 H448 0.984 . S
N442 H449 0.984 1_455 S
N443 C436 1.356 . S
N443 H446 0.984 . S
N443 H447 0.985 . S
H444 N439 0.984 . S
H445 N439 0.985 . S
H446 N443 0.984 . S
H447 N443 0.985 . S
H448 N442 0.984 . S
H449 N442 0.984 1_655 S
H450 N438 0.984 . S
H451 N438 0.985 1_655 S
C452 C453 1.363 . S
C452 C458 1.379 . S
C452 N460 1.356 . S
C453 C452 1.363 . S
C453 C459 1.363 . S
C454 C455 1.363 . S
C454 C459 1.379 . S
C454 N461 1.356 . S
C455 C454 1.363 . S
C455 C458 1.363 . S
N456 C458 1.356 . S
N456 H468 0.984 . S
N456 H469 0.985 . S
N457 C459 1.356 . S
N457 H462 0.984 . S
N457 H463 0.985 . S
C458 C452 1.379 . S
C458 C455 1.363 . S
C458 N456 1.356 . S
C459 C453 1.363 . S
C459 C454 1.379 . S
C459 N457 1.356 . S
N460 C452 1.356 . S
N460 H466 0.984 . S
N460 H467 0.984 . S
N461 C454 1.356 . S
N461 H464 0.984 . S
N461 H465 0.985 . S
H462 N457 0.984 . S
H463 N457 0.985 . S
H464 N461 0.984 . S
H465 N461 0.985 . S
H466 N460 0.984 . S
H467 N460 0.984 . S
H468 N456 0.984 . S
H469 N456 0.985 . S
C470 C471 1.363 . S
C470 C476 1.379 1_545 S
C470 N478 1.356 . S
C471 C470 1.363 . S
C471 C477 1.363 . S
C472 C473 1.363 . S
C472 C477 1.379 1_565 S
C472 N479 1.356 . S
C473 C472 1.363 . S
C473 C476 1.363 . S
N474 C476 1.356 . S
N474 H486 0.984 . S
N474 H487 0.985 . S
N475 C477 1.356 . S
N475 H480 0.984 . S
N475 H481 0.985 . S
C476 C470 1.379 1_565 S
C476 C473 1.363 . S
C476 N474 1.356 . S
C477 C471 1.363 . S
C477 C472 1.379 1_545 S
C477 N475 1.356 . S
N478 C470 1.356 . S
N478 H484 0.984 . S
N478 H485 0.984 . S
N479 C472 1.356 . S
N479 H482 0.984 . S
N479 H483 0.985 . S
H480 N475 0.984 . S
H481 N475 0.985 . S
H482 N479 0.984 . S
H483 N479 0.985 . S
H484 N478 0.984 . S
H485 N478 0.984 . S
H486 N474 0.984 . S
H487 N474 0.985 . S
C488 C489 1.363 1_556 S
C488 C494 1.379 . S
C488 N496 1.356 . S
C489 C488 1.363 1_554 S
C489 C495 1.363 . S
C490 C491 1.363 1_554 S
C490 C495 1.379 . S
C490 N497 1.356 . S
C491 C490 1.363 1_556 S
C491 C494 1.363 . S
N492 C494 1.356 . S
N492 H504 0.984 . S
N492 H505 0.985 . S
N493 C495 1.356 . S
N493 H498 0.984 . S
N493 H499 0.985 . S
C494 C488 1.379 . S
C494 C491 1.363 . S
C494 N492 1.356 . S
C495 C489 1.363 . S
C495 C490 1.379 . S
C495 N493 1.356 . S
N496 C488 1.356 . S
N496 H502 0.984 . S
N496 H503 0.984 . S
N497 C490 1.356 . S
N497 H500 0.984 . S
N497 H501 0.985 . S
H498 N493 0.984 . S
H499 N493 0.985 . S
H500 N497 0.984 . S
H501 N497 0.985 . S
H502 N496 0.984 . S
H503 N496 0.984 . S
H504 N492 0.984 . S
H505 N492 0.985 . S
C506 C507 1.363 . S
C506 C512 1.379 1_565 S
C506 N514 1.354 1_455 S
C507 C506 1.363 . S
C507 C513 1.363 . S
C508 C509 1.363 . S
C508 C513 1.379 1_545 S
C508 N515 1.356 . S
C509 C508 1.363 . S
C509 C512 1.363 . S
N510 C512 1.354 1_655 S
N510 H522 0.987 . S
N510 H523 0.984 1_655 S
N511 C513 1.356 . S
N511 H516 0.984 . S
N511 H517 0.985 . S
C512 C506 1.379 1_545 S
C512 C509 1.363 . S
C512 N510 1.354 1_455 S
C513 C507 1.363 . S
C513 C508 1.379 1_565 S
C513 N511 1.356 . S
N514 C506 1.354 1_655 S
N514 H520 0.987 . S
N514 H521 0.984 1_655 S
N515 C508 1.356 . S
N515 H518 0.984 . S
N515 H519 0.985 . S
H516 N511 0.984 . S
H517 N511 0.985 . S
H518 N515 0.984 . S
H519 N515 0.985 . S
H520 N514 0.987 . S
H521 N514 0.984 1_455 S
H522 N510 0.987 . S
H523 N510 0.984 1_455 S
C524 C525 1.363 . S
C524 C530 1.379 . S
C524 N532 1.356 . S
C525 C524 1.363 . S
C525 C531 1.363 . S
C526 C527 1.363 . S
C526 C531 1.379 . S
C526 N533 1.356 . S
C527 C526 1.363 . S
C527 C530 1.363 . S
N528 C530 1.356 . S
N528 H540 0.984 . S
N528 H541 0.985 . S
N529 C531 1.356 . S
N529 H534 0.984 . S
N529 H535 0.985 . S
C530 C524 1.379 . S
C530 C527 1.363 . S
C530 N528 1.356 . S
C531 C525 1.363 . S
C531 C526 1.379 . S
C531 N529 1.356 . S
N532 C524 1.356 . S
N532 H538 0.984 . S
N532 H539 0.984 . S
N533 C526 1.356 . S
N533 H536 0.984 . S
N533 H537 0.985 . S
H534 N529 0.984 . S
H535 N529 0.985 . S
H536 N533 0.984 . S
H537 N533 0.985 . S
H538 N532 0.984 . S
H539 N532 0.984 . S
H540 N528 0.984 . S
H541 N528 0.985 . S
C542 C543 1.363 . S
C542 C548 1.379 1_565 S
C542 N550 1.356 . S
C543 C542 1.363 . S
C543 C549 1.363 . S
C544 C545 1.363 . S
C544 C549 1.379 1_545 S
C544 N551 1.356 . S
C545 C544 1.363 . S
C545 C548 1.363 . S
N546 C548 1.356 . S
N546 H558 0.984 . S
N546 H559 0.985 . S
N547 C549 1.356 . S
N547 H552 0.984 . S
N547 H553 0.985 . S
C548 C542 1.379 1_545 S
C548 C545 1.363 . S
C548 N546 1.356 . S
C549 C543 1.363 . S
C549 C544 1.379 1_565 S
C549 N547 1.356 . S
N550 C542 1.356 . S
N550 H556 0.984 . S
N550 H557 0.984 . S
N551 C544 1.356 . S
N551 H554 0.984 . S
N551 H555 0.985 . S
H552 N547 0.984 . S
H553 N547 0.985 . S
H554 N551 0.984 . S
H555 N551 0.985 . S
H556 N550 0.984 . S
H557 N550 0.984 . S
H558 N546 0.984 . S
H559 N546 0.985 . S
C560 C561 1.363 . S
C560 C566 1.379 . S
C560 N568 1.356 . S
C561 C560 1.363 . S
C561 C567 1.363 . S
C562 C563 1.363 . S
C562 C567 1.379 . S
C562 N569 1.356 . S
C563 C562 1.363 . S
C563 C566 1.363 . S
N564 C566 1.356 . S
N564 H576 0.984 . S
N564 H577 0.985 . S
N565 C567 1.356 . S
N565 H570 0.984 . S
N565 H571 0.985 . S
C566 C560 1.379 . S
C566 C563 1.363 . S
C566 N564 1.356 . S
C567 C561 1.363 . S
C567 C562 1.379 . S
C567 N565 1.356 . S
N568 C560 1.356 . S
N568 H574 0.984 . S
N568 H575 0.984 . S
N569 C562 1.356 . S
N569 H572 0.984 . S
N569 H573 0.985 . S
H570 N565 0.984 . S
H571 N565 0.985 . S
H572 N569 0.984 . S
H573 N569 0.985 . S
H574 N568 0.984 . S
H575 N568 0.984 . S
H576 N564 0.984 . S
H577 N564 0.985 . S
C578 C579 1.363 . S
C578 C584 1.379 . S
C578 N586 1.356 . S
C579 C578 1.363 . S
C579 C585 1.363 . S
C580 C581 1.363 . S
C580 C585 1.379 . S
C580 N587 1.356 . S
C581 C580 1.363 . S
C581 C584 1.363 . S
N582 C584 1.356 . S
N582 H594 0.984 . S
N582 H595 0.985 . S
N583 C585 1.356 . S
N583 H588 0.984 . S
N583 H589 0.985 . S
C584 C578 1.379 . S
C584 C581 1.363 . S
C584 N582 1.356 . S
C585 C579 1.363 . S
C585 C580 1.379 . S
C585 N583 1.356 . S
N586 C578 1.356 . S
N586 H592 0.984 . S
N586 H593 0.984 . S
N587 C580 1.356 . S
N587 H590 0.984 . S
N587 H591 0.985 . S
H588 N583 0.984 . S
H589 N583 0.985 . S
H590 N587 0.984 . S
H591 N587 0.985 . S
H592 N586 0.984 . S
H593 N586 0.984 . S
H594 N582 0.984 . S
H595 N582 0.985 . S
C596 C597 1.363 . S
C596 C602 1.379 . S
C596 N604 1.356 . S
C597 C596 1.363 . S
C597 C603 1.363 1_556 S
C598 C599 1.363 . S
C598 C603 1.379 . S
C598 N605 1.356 . S
C599 C598 1.363 . S
C599 C602 1.363 1_554 S
N600 C602 1.356 . S
N600 H612 0.984 . S
N600 H613 0.985 . S
N601 C603 1.356 . S
N601 H606 0.984 . S
N601 H607 0.985 . S
C602 C596 1.379 . S
C602 C599 1.363 1_556 S
C602 N600 1.356 . S
C603 C597 1.363 1_554 S
C603 C598 1.379 . S
C603 N601 1.356 . S
N604 C596 1.356 . S
N604 H610 0.984 . S
N604 H611 0.984 . S
N605 C598 1.356 . S
N605 H608 0.984 . S
N605 H609 0.985 . S
H606 N601 0.984 . S
H607 N601 0.985 . S
H608 N605 0.984 . S
H609 N605 0.985 . S
H610 N604 0.984 . S
H611 N604 0.984 . S
H612 N600 0.984 . S
H613 N600 0.985 . S
C614 C615 1.363 . S
C614 C620 1.379 . S
C614 N622 1.356 . S
C615 C614 1.363 . S
C615 C621 1.363 . S
C616 C617 1.363 . S
C616 C621 1.379 . S
C616 N623 1.356 . S
C617 C616 1.363 . S
C617 C620 1.363 . S
N618 C620 1.356 . S
N618 H630 0.984 . S
N618 H631 0.985 . S
N619 C621 1.356 . S
N619 H624 0.984 . S
N619 H625 0.985 . S
C620 C614 1.379 . S
C620 C617 1.363 . S
C620 N618 1.356 . S
C621 C615 1.363 . S
C621 C616 1.379 . S
C621 N619 1.356 . S
N622 C614 1.356 . S
N622 H628 0.984 . S
N622 H629 0.984 . S
N623 C616 1.356 . S
N623 H626 0.984 . S
N623 H627 0.985 . S
H624 N619 0.984 . S
H625 N619 0.985 . S
H626 N623 0.984 . S
H627 N623 0.985 . S
H628 N622 0.984 . S
H629 N622 0.984 . S
H630 N618 0.984 . S
H631 N618 0.985 . S
C632 C633 1.363 . S
C632 C638 1.379 . S
C632 N640 1.356 . S
C633 C632 1.363 . S
C633 C639 1.363 . S
C634 C635 1.363 . S
C634 C639 1.379 . S
C634 N641 1.356 . S
C635 C634 1.363 . S
C635 C638 1.363 . S
N636 C638 1.356 . S
N636 H648 0.984 . S
N636 H649 0.985 . S
N637 C639 1.356 . S
N637 H642 0.984 . S
N637 H643 0.985 . S
C638 C632 1.379 . S
C638 C635 1.363 . S
C638 N636 1.356 . S
C639 C633 1.363 . S
C639 C634 1.379 . S
C639 N637 1.356 . S
N640 C632 1.356 . S
N640 H646 0.984 . S
N640 H647 0.984 . S
N641 C634 1.356 . S
N641 H644 0.984 . S
N641 H645 0.985 . S
H642 N637 0.984 . S
H643 N637 0.985 . S
H644 N641 0.984 . S
H645 N641 0.985 . S
H646 N640 0.984 . S
H647 N640 0.984 . S
H648 N636 0.984 . S
H649 N636 0.985 . S
C650 C651 1.363 . S
C650 C656 1.379 . S
C650 N658 1.356 . S
C651 C650 1.363 . S
C651 C657 1.363 . S
C652 C653 1.363 . S
C652 C657 1.379 . S
C652 N659 1.356 . S
C653 C652 1.363 . S
C653 C656 1.363 . S
N654 C656 1.356 . S
N654 H666 0.984 . S
N654 H667 0.985 . S
N655 C657 1.356 . S
N655 H660 0.984 . S
N655 H661 0.985 . S
C656 C650 1.379 . S
C656 C653 1.363 . S
C656 N654 1.356 . S
C657 C651 1.363 . S
C657 C652 1.379 . S
C657 N655 1.356 . S
N658 C650 1.356 . S
N658 H664 0.984 . S
N658 H665 0.984 . S
N659 C652 1.356 . S
N659 H662 0.984 . S
N659 H663 0.985 . S
H660 N655 0.984 . S
H661 N655 0.985 . S
H662 N659 0.984 . S
H663 N659 0.985 . S
H664 N658 0.984 . S
H665 N658 0.984 . S
H666 N654 0.984 . S
H667 N654 0.985 . S
C668 C669 1.363 1_556 S
C668 C674 1.379 . S
C668 N676 1.356 . S
C669 C668 1.363 1_554 S
C669 C675 1.363 . S
C670 C671 1.363 1_554 S
C670 C675 1.379 . S
C670 N677 1.356 . S
C671 C670 1.363 1_556 S
C671 C674 1.363 . S
N672 C674 1.356 . S
N672 H684 0.984 . S
N672 H685 0.985 . S
N673 C675 1.356 . S
N673 H678 0.984 . S
N673 H679 0.985 . S
C674 C668 1.379 . S
C674 C671 1.363 . S
C674 N672 1.356 . S
C675 C669 1.363 . S
C675 C670 1.379 . S
C675 N673 1.356 . S
N676 C668 1.356 . S
N676 H682 0.984 . S
N676 H683 0.984 . S
N677 C670 1.356 . S
N677 H680 0.984 . S
N677 H681 0.985 . S
H678 N673 0.984 . S
H679 N673 0.985 . S
H680 N677 0.984 . S
H681 N677 0.985 . S
H682 N676 0.984 . S
H683 N676 0.984 . S
H684 N672 0.984 . S
H685 N672 0.985 . S
C686 C687 1.363 . S
C686 C692 1.379 . S
C686 N694 1.356 . S
C687 C686 1.363 . S
C687 C693 1.363 . S
C688 C689 1.363 . S
C688 C693 1.379 . S
C688 N695 1.356 . S
C689 C688 1.363 . S
C689 C692 1.363 . S
N690 C692 1.356 . S
N690 H702 0.984 . S
N690 H703 0.985 . S
N691 C693 1.356 . S
N691 H696 0.984 . S
N691 H697 0.985 . S
C692 C686 1.379 . S
C692 C689 1.363 . S
C692 N690 1.356 . S
C693 C687 1.363 . S
C693 C688 1.379 . S
C693 N691 1.356 . S
N694 C686 1.356 . S
N694 H700 0.984 . S
N694 H701 0.984 . S
N695 C688 1.356 . S
N695 H698 0.984 . S
N695 H699 0.985 . S
H696 N691 0.984 . S
H697 N691 0.985 . S
H698 N695 0.984 . S
H699 N695 0.985 . S
H700 N694 0.984 . S
H701 N694 0.984 . S
H702 N690 0.984 . S
H703 N690 0.985 . S
C704 C705 1.363 . S
C704 C710 1.379 . S
C704 N712 1.356 . S
C705 C704 1.363 . S
C705 C711 1.363 . S
C706 C707 1.363 . S
C706 C711 1.379 . S
C706 N713 1.356 . S
C707 C706 1.363 . S
C707 C710 1.363 . S
N708 C710 1.356 . S
N708 H720 0.984 . S
N708 H721 0.985 . S
N709 C711 1.356 . S
N709 H714 0.984 . S
N709 H715 0.985 . S
C710 C704 1.379 . S
C710 C707 1.363 . S
C710 N708 1.356 . S
C711 C705 1.363 . S
C711 C706 1.379 . S
C711 N709 1.356 . S
N712 C704 1.356 . S
N712 H718 0.984 . S
N712 H719 0.984 . S
N713 C706 1.356 . S
N713 H716 0.984 . S
N713 H717 0.985 . S
H714 N709 0.984 . S
H715 N709 0.985 . S
H716 N713 0.984 . S
H717 N713 0.985 . S
H718 N712 0.984 . S
H719 N712 0.984 . S
H720 N708 0.984 . S
H721 N708 0.985 . S
C722 C723 1.363 1_554 S
C722 C728 1.379 . S
C722 N730 1.356 . S
C723 C722 1.363 1_556 S
C723 C729 1.363 1_456 S
C724 C725 1.363 . S
C724 C729 1.379 . S
C724 N731 1.356 . S
C725 C724 1.363 . S
C725 C728 1.363 1_655 S
N726 C728 1.356 . S
N726 H738 0.984 . S
N726 H739 0.985 . S
N727 C729 1.356 1_556 S
N727 H732 0.984 . S
N727 H733 0.985 . S
C728 C722 1.379 . S
C728 C725 1.363 1_455 S
C728 N726 1.356 . S
C729 C723 1.363 1_654 S
C729 C724 1.379 . S
C729 N727 1.356 1_554 S
N730 C722 1.356 . S
N730 H736 0.984 . S
N730 H737 0.985 1_554 S
N731 C724 1.356 . S
N731 H734 0.984 . S
N731 H735 0.985 . S
H732 N727 0.984 . S
H733 N727 0.985 . S
H734 N731 0.984 . S
H735 N731 0.985 . S
H736 N730 0.984 . S
H737 N730 0.985 1_556 S
H738 N726 0.984 . S
H739 N726 0.985 . S
C740 C741 1.363 . S
C740 C746 1.379 . S
C740 N748 1.356 . S
C741 C740 1.363 . S
C741 C747 1.363 . S
C742 C743 1.363 . S
C742 C747 1.379 . S
C742 N749 1.356 . S
C743 C742 1.363 . S
C743 C746 1.363 . S
N744 C746 1.356 . S
N744 H756 0.984 . S
N744 H757 0.985 . S
N745 C747 1.356 . S
N745 H750 0.984 . S
N745 H751 0.985 . S
C746 C740 1.379 . S
C746 C743 1.363 . S
C746 N744 1.356 . S
C747 C741 1.363 . S
C747 C742 1.379 . S
C747 N745 1.356 . S
N748 C740 1.356 . S
N748 H754 0.984 . S
N748 H755 0.984 . S
N749 C742 1.356 . S
N749 H752 0.984 . S
N749 H753 0.985 . S
H750 N745 0.984 . S
H751 N745 0.985 . S
H752 N749 0.984 . S
H753 N749 0.985 . S
H754 N748 0.984 . S
H755 N748 0.984 . S
H756 N744 0.984 . S
H757 N744 0.985 . S
C758 C759 1.363 . S
C758 C764 1.379 . S
C758 N766 1.356 . S
C759 C758 1.363 . S
C759 C765 1.363 . S
C760 C761 1.363 . S
C760 C765 1.379 . S
C760 N767 1.356 . S
C761 C760 1.363 . S
C761 C764 1.363 . S
N762 C764 1.356 . S
N762 H774 0.984 . S
N762 H775 0.985 . S
N763 C765 1.356 . S
N763 H768 0.984 . S
N763 H769 0.985 . S
C764 C758 1.379 . S
C764 C761 1.363 . S
C764 N762 1.356 . S
C765 C759 1.363 . S
C765 C760 1.379 . S
C765 N763 1.356 . S
N766 C758 1.356 . S
N766 H772 0.984 . S
N766 H773 0.984 . S
N767 C760 1.356 . S
N767 H770 0.984 . S
N767 H771 0.985 . S
H768 N763 0.984 . S
H769 N763 0.985 . S
H770 N767 0.984 . S
H771 N767 0.985 . S
H772 N766 0.984 . S
H773 N766 0.984 . S
H774 N762 0.984 . S
H775 N762 0.985 . S
C776 C777 1.363 . S
C776 C782 1.379 . S
C776 N784 1.356 . S
C777 C776 1.363 . S
C777 C783 1.363 . S
C778 C779 1.363 . S
C778 C783 1.379 . S
C778 N785 1.356 . S
C779 C778 1.363 . S
C779 C782 1.363 . S
N780 C782 1.356 . S
N780 H792 0.984 . S
N780 H793 0.985 . S
N781 C783 1.356 . S
N781 H786 0.984 . S
N781 H787 0.985 . S
C782 C776 1.379 . S
C782 C779 1.363 . S
C782 N780 1.356 . S
C783 C777 1.363 . S
C783 C778 1.379 . S
C783 N781 1.356 . S
N784 C776 1.356 . S
N784 H790 0.984 . S
N784 H791 0.984 . S
N785 C778 1.356 . S
N785 H788 0.984 . S
N785 H789 0.985 . S
H786 N781 0.984 . S
H787 N781 0.985 . S
H788 N785 0.984 . S
H789 N785 0.985 . S
H790 N784 0.984 . S
H791 N784 0.984 . S
H792 N780 0.984 . S
H793 N780 0.985 . S
C794 C795 1.363 1_556 S
C794 C800 1.379 . S
C794 N802 1.356 1_556 S
C795 C794 1.363 1_554 S
C795 C801 1.363 1_554 S
C796 C797 1.363 . S
C796 C801 1.379 . S
C796 N803 1.356 . S
C797 C796 1.363 . S
C797 C800 1.363 . S
N798 C800 1.356 . S
N798 H810 0.984 . S
N798 H811 0.985 . S
N799 C801 1.356 1_554 S
N799 H804 0.984 . S
N799 H805 0.985 1_554 S
C800 C794 1.379 . S
C800 C797 1.363 . S
C800 N798 1.356 . S
C801 C795 1.363 1_556 S
C801 C796 1.379 . S
C801 N799 1.356 1_556 S
N802 C794 1.356 1_554 S
N802 H808 0.984 . S
N802 H809 0.984 . S
N803 C796 1.356 . S
N803 H806 0.984 . S
N803 H807 0.985 . S
H804 N799 0.984 . S
H805 N799 0.985 1_556 S
H806 N803 0.984 . S
H807 N803 0.985 . S
H808 N802 0.984 . S
H809 N802 0.984 . S
H810 N798 0.984 . S
H811 N798 0.985 . S
C812 C813 1.363 . S
C812 C818 1.379 . S
C812 N820 1.356 . S
C813 C812 1.363 . S
C813 C819 1.363 . S
C814 C815 1.363 . S
C814 C819 1.379 . S
C814 N821 1.356 . S
C815 C814 1.363 . S
C815 C818 1.363 . S
N816 C818 1.356 . S
N816 H828 0.984 . S
N816 H829 0.985 . S
N817 C819 1.356 . S
N817 H822 0.984 . S
N817 H823 0.985 . S
C818 C812 1.379 . S
C818 C815 1.363 . S
C818 N816 1.356 . S
C819 C813 1.363 . S
C819 C814 1.379 . S
C819 N817 1.356 . S
N820 C812 1.356 . S
N820 H826 0.984 . S
N820 H827 0.984 . S
N821 C814 1.356 . S
N821 H824 0.984 . S
N821 H825 0.985 . S
H822 N817 0.984 . S
H823 N817 0.985 . S
H824 N821 0.984 . S
H825 N821 0.985 . S
H826 N820 0.984 . S
H827 N820 0.984 . S
H828 N816 0.984 . S
H829 N816 0.985 . S
C830 C831 1.363 1_655 S
C830 C836 1.379 . S
C830 N838 1.356 . S
C831 C830 1.363 1_455 S
C831 C837 1.363 . S
C832 C833 1.363 1_455 S
C832 C837 1.379 . S
C832 N839 1.356 . S
C833 C832 1.363 1_655 S
C833 C836 1.363 . S
N834 C836 1.356 . S
N834 H846 0.984 . S
N834 H847 0.985 . S
N835 C837 1.356 . S
N835 H840 0.984 . S
N835 H841 0.985 . S
C836 C830 1.379 . S
C836 C833 1.363 . S
C836 N834 1.356 . S
C837 C831 1.363 . S
C837 C832 1.379 . S
C837 N835 1.356 . S
N838 C830 1.356 . S
N838 H844 0.984 . S
N838 H845 0.984 . S
N839 C832 1.356 . S
N839 H842 0.984 . S
N839 H843 0.985 . S
H840 N835 0.984 . S
H841 N835 0.985 . S
H842 N839 0.984 . S
H843 N839 0.985 . S
H844 N838 0.984 . S
H845 N838 0.984 . S
H846 N834 0.984 . S
H847 N834 0.985 . S
C848 C849 1.363 . S
C848 C854 1.379 . S
C848 N856 1.356 . S
C849 C848 1.363 . S
C849 C855 1.363 . S
C850 C851 1.363 . S
C850 C855 1.379 . S
C850 N857 1.356 . S
C851 C850 1.363 . S
C851 C854 1.363 . S
N852 C854 1.356 . S
N852 H864 0.984 . S
N852 H865 0.985 . S
N853 C855 1.356 . S
N853 H858 0.984 . S
N853 H859 0.985 . S
C854 C848 1.379 . S
C854 C851 1.363 . S
C854 N852 1.356 . S
C855 C849 1.363 . S
C855 C850 1.379 . S
C855 N853 1.356 . S
N856 C848 1.356 . S
N856 H862 0.984 . S
N856 H863 0.984 . S
N857 C850 1.356 . S
N857 H860 0.984 . S
N857 H861 0.985 . S
H858 N853 0.984 . S
H859 N853 0.985 . S
H860 N857 0.984 . S
H861 N857 0.985 . S
H862 N856 0.984 . S
H863 N856 0.984 . S
H864 N852 0.984 . S
H865 N852 0.985 . S
C866 C867 1.363 1_556 S
C866 C872 1.384 . S
C866 N874 1.356 1_556 S
C867 C866 1.363 1_554 S
C867 C873 1.352 1_654 S
C868 C869 1.363 . S
C868 C873 1.390 . S
C868 N875 1.356 . S
C869 C868 1.363 . S
C869 C872 1.357 1_455 S
N870 C872 1.354 1_455 S
N870 H882 0.977 1_455 S
N870 H883 0.996 . S
N871 C873 1.354 1_654 S
N871 H876 0.990 . S
N871 H877 0.981 1_655 S
C872 C866 1.384 . S
C872 C869 1.357 1_655 S
C872 N870 1.354 1_655 S
C873 C867 1.352 1_456 S
C873 C868 1.390 . S
C873 N871 1.354 1_456 S
N874 C866 1.356 1_554 S
N874 H880 0.984 . S
N874 H881 0.984 . S
N875 C868 1.356 . S
N875 H878 0.984 . S
N875 H879 0.985 . S
H876 N871 0.990 . S
H877 N871 0.981 1_455 S
H878 N875 0.984 . S
H879 N875 0.985 . S
H880 N874 0.984 . S
H881 N874 0.984 . S
H882 N870 0.977 1_655 S
H883 N870 0.996 . S
C884 C885 1.363 . S
C884 C890 1.379 . S
C884 N892 1.356 . S
C885 C884 1.363 . S
C885 C891 1.363 . S
C886 C887 1.363 . S
C886 C891 1.379 . S
C886 N893 1.356 . S
C887 C886 1.363 . S
C887 C890 1.363 . S
N888 C890 1.356 . S
N888 H900 0.984 . S
N888 H901 0.985 . S
N889 C891 1.356 . S
N889 H894 0.984 . S
N889 H895 0.985 . S
C890 C884 1.379 . S
C890 C887 1.363 . S
C890 N888 1.356 . S
C891 C885 1.363 . S
C891 C886 1.379 . S
C891 N889 1.356 . S
N892 C884 1.356 . S
N892 H898 0.984 . S
N892 H899 0.984 . S
N893 C886 1.356 . S
N893 H896 0.984 . S
N893 H897 0.985 . S
H894 N889 0.984 . S
H895 N889 0.985 . S
H896 N893 0.984 . S
H897 N893 0.985 . S
H898 N892 0.984 . S
H899 N892 0.984 . S
H900 N888 0.984 . S
H901 N888 0.985 . S
C902 C903 1.363 . S
C902 C908 1.379 . S
C902 N910 1.356 . S
C903 C902 1.363 . S
C903 C909 1.363 . S
C904 C905 1.363 . S
C904 C909 1.379 . S
C904 N911 1.356 . S
C905 C904 1.363 . S
C905 C908 1.363 . S
N906 C908 1.356 . S
N906 H918 0.984 . S
N906 H919 0.985 . S
N907 C909 1.356 . S
N907 H912 0.984 . S
N907 H913 0.985 . S
C908 C902 1.379 . S
C908 C905 1.363 . S
C908 N906 1.356 . S
C909 C903 1.363 . S
C909 C904 1.379 . S
C909 N907 1.356 . S
N910 C902 1.356 . S
N910 H916 0.984 . S
N910 H917 0.984 . S
N911 C904 1.356 . S
N911 H914 0.984 . S
N911 H915 0.985 . S
H912 N907 0.984 . S
H913 N907 0.985 . S
H914 N911 0.984 . S
H915 N911 0.985 . S
H916 N910 0.984 . S
H917 N910 0.984 . S
H918 N906 0.984 . S
H919 N906 0.985 . S
C920 C921 1.363 . S
C920 C926 1.379 . S
C920 N928 1.356 . S
C921 C920 1.363 . S
C921 C927 1.363 . S
C922 C923 1.363 . S
C922 C927 1.379 . S
C922 N929 1.356 . S
C923 C922 1.363 . S
C923 C926 1.363 . S
N924 C926 1.356 . S
N924 H936 0.984 . S
N924 H937 0.985 . S
N925 C927 1.356 . S
N925 H930 0.984 . S
N925 H931 0.985 . S
C926 C920 1.379 . S
C926 C923 1.363 . S
C926 N924 1.356 . S
C927 C921 1.363 . S
C927 C922 1.379 . S
C927 N925 1.356 . S
N928 C920 1.356 . S
N928 H934 0.984 . S
N928 H935 0.984 . S
N929 C922 1.356 . S
N929 H932 0.984 . S
N929 H933 0.985 . S
H930 N925 0.984 . S
H931 N925 0.985 . S
H932 N929 0.984 . S
H933 N929 0.985 . S
H934 N928 0.984 . S
H935 N928 0.984 . S
H936 N924 0.984 . S
H937 N924 0.985 . S
C938 C939 1.363 . S
C938 C944 1.379 . S
C938 N946 1.356 . S
C939 C938 1.363 . S
C939 C945 1.363 . S
C940 C941 1.363 1_554 S
C940 C945 1.379 . S
C940 N947 1.361 . S
C941 C940 1.363 1_556 S
C941 C944 1.363 1_556 S
N942 C944 1.356 1_556 S
N942 H954 0.984 . S
N942 H955 0.985 . S
N943 C945 1.356 . S
N943 H948 0.984 . S
N943 H949 0.985 . S
C944 C938 1.379 . S
C944 C941 1.363 1_554 S
C944 N942 1.356 1_554 S
C945 C939 1.363 . S
C945 C940 1.379 . S
C945 N943 1.356 . S
N946 C938 1.356 . S
N946 H952 0.984 . S
N946 H953 0.984 . S
N947 C940 1.361 . S
N947 H950 0.976 1_554 S
N947 H951 0.988 . S
H948 N943 0.984 . S
H949 N943 0.985 . S
H950 N947 0.976 1_556 S
H951 N947 0.988 . S
H952 N946 0.984 . S
H953 N946 0.984 . S
H954 N942 0.984 . S
H955 N942 0.985 . S
C956 C957 1.363 . S
C956 C962 1.379 . S
C956 N964 1.356 . S
C957 C956 1.363 . S
C957 C963 1.363 . S
C958 C959 1.363 . S
C958 C963 1.379 . S
C958 N965 1.356 . S
C959 C958 1.363 . S
C959 C962 1.363 . S
N960 C962 1.356 . S
N960 H972 0.984 . S
N960 H973 0.985 . S
N961 C963 1.356 . S
N961 H966 0.984 . S
N961 H967 0.985 . S
C962 C956 1.379 . S
C962 C959 1.363 . S
C962 N960 1.356 . S
C963 C957 1.363 . S
C963 C958 1.379 . S
C963 N961 1.356 . S
N964 C956 1.356 . S
N964 H970 0.984 . S
N964 H971 0.984 . S
N965 C958 1.356 . S
N965 H968 0.984 . S
N965 H969 0.985 . S
H966 N961 0.984 . S
H967 N961 0.985 . S
H968 N965 0.984 . S
H969 N965 0.985 . S
H970 N964 0.984 . S
H971 N964 0.984 . S
H972 N960 0.984 . S
H973 N960 0.985 . S
C974 C975 1.363 . S
C974 C980 1.379 . S
C974 N982 1.356 . S
C975 C974 1.363 . S
C975 C981 1.363 1_655 S
C976 C977 1.363 . S
C976 C981 1.379 . S
C976 N983 1.356 . S
C977 C976 1.363 . S
C977 C980 1.363 1_455 S
N978 C980 1.356 . S
N978 H990 0.984 . S
N978 H991 0.985 . S
N979 C981 1.356 . S
N979 H984 0.984 . S
N979 H985 0.985 . S
C980 C974 1.379 . S
C980 C977 1.363 1_655 S
C980 N978 1.356 . S
C981 C975 1.363 1_455 S
C981 C976 1.379 . S
C981 N979 1.356 . S
N982 C974 1.356 . S
N982 H988 0.984 . S
N982 H989 0.984 . S
N983 C976 1.356 . S
N983 H986 0.984 . S
N983 H987 0.985 . S
H984 N979 0.984 . S
H985 N979 0.985 . S
H986 N983 0.984 . S
H987 N983 0.985 . S
H988 N982 0.984 . S
H989 N982 0.984 . S
H990 N978 0.984 . S
H991 N978 0.985 . S
C992 C993 1.363 . S
C992 C998 1.379 . S
C992 N1000 1.356 . S
C993 C992 1.363 . S
C993 C999 1.363 . S
C994 C995 1.363 . S
C994 C999 1.379 . S
C994 N1001 1.356 . S
C995 C994 1.363 . S
C995 C998 1.363 . S
N996 C998 1.356 . S
N996 H1008 0.984 . S
N996 H1009 0.985 . S
N997 C999 1.356 . S
N997 H1002 0.984 . S
N997 H1003 0.985 . S
C998 C992 1.379 . S
C998 C995 1.363 . S
C998 N996 1.356 . S
C999 C993 1.363 . S
C999 C994 1.379 . S
C999 N997 1.356 . S
N1000 C992 1.356 . S
N1000 H1006 0.984 . S
N1000 H1007 0.984 . S
N1001 C994 1.356 . S
N1001 H1004 0.984 . S
N1001 H1005 0.985 . S
H1002 N997 0.984 . S
H1003 N997 0.985 . S
H1004 N1001 0.984 . S
H1005 N1001 0.985 . S
H1006 N1000 0.984 . S
H1007 N1000 0.984 . S
H1008 N996 0.984 . S
H1009 N996 0.985 . S
C1010 C1011 1.363 . S
C1010 C1016 1.379 . S
C1010 N1018 1.356 . S
C1011 C1010 1.363 . S
C1011 C1017 1.363 . S
C1012 C1013 1.363 . S
C1012 C1017 1.379 . S
C1012 N1019 1.356 . S
C1013 C1012 1.363 . S
C1013 C1016 1.363 . S
N1014 C1016 1.356 . S
N1014 H1026 0.984 . S
N1014 H1027 0.985 . S
N1015 C1017 1.356 . S
N1015 H1020 0.984 . S
N1015 H1021 0.985 . S
C1016 C1010 1.379 . S
C1016 C1013 1.363 . S
C1016 N1014 1.356 . S
C1017 C1011 1.363 . S
C1017 C1012 1.379 . S
C1017 N1015 1.356 . S
N1018 C1010 1.356 . S
N1018 H1024 0.984 . S
N1018 H1025 0.984 . S
N1019 C1012 1.356 . S
N1019 H1022 0.984 . S
N1019 H1023 0.985 . S
H1020 N1015 0.984 . S
H1021 N1015 0.985 . S
H1022 N1019 0.984 . S
H1023 N1019 0.985 . S
H1024 N1018 0.984 . S
H1025 N1018 0.984 . S
H1026 N1014 0.984 . S
H1027 N1014 0.985 . S
C1028 C1029 1.363 . S
C1028 C1034 1.379 . S
C1028 N1036 1.356 . S
C1029 C1028 1.363 . S
C1029 C1035 1.363 . S
C1030 C1031 1.363 . S
C1030 C1035 1.379 . S
C1030 N1037 1.356 . S
C1031 C1030 1.363 . S
C1031 C1034 1.363 . S
N1032 C1034 1.356 . S
N1032 H1044 0.984 . S
N1032 H1045 0.985 . S
N1033 C1035 1.356 . S
N1033 H1038 0.984 . S
N1033 H1039 0.985 . S
C1034 C1028 1.379 . S
C1034 C1031 1.363 . S
C1034 N1032 1.356 . S
C1035 C1029 1.363 . S
C1035 C1030 1.379 . S
C1035 N1033 1.356 . S
N1036 C1028 1.356 . S
N1036 H1042 0.984 . S
N1036 H1043 0.984 . S
N1037 C1030 1.356 . S
N1037 H1040 0.984 . S
N1037 H1041 0.985 . S
H1038 N1033 0.984 . S
H1039 N1033 0.985 . S
H1040 N1037 0.984 . S
H1041 N1037 0.985 . S
H1042 N1036 0.984 . S
H1043 N1036 0.984 . S
H1044 N1032 0.984 . S
H1045 N1032 0.985 . S
C1046 C1047 1.363 1_655 S
C1046 C1052 1.379 . S
C1046 N1054 1.356 . S
C1047 C1046 1.363 1_455 S
C1047 C1053 1.363 . S
C1048 C1049 1.363 1_454 S
C1048 C1053 1.379 . S
C1048 N1055 1.356 1_554 S
C1049 C1048 1.363 1_656 S
C1049 C1052 1.363 1_556 S
N1050 C1052 1.356 1_556 S
N1050 H1062 0.984 1_556 S
N1050 H1063 0.985 . S
N1051 C1053 1.356 . S
N1051 H1056 0.984 . S
N1051 H1057 0.985 . S
C1052 C1046 1.379 . S
C1052 C1049 1.363 1_554 S
C1052 N1050 1.356 1_554 S
C1053 C1047 1.363 . S
C1053 C1048 1.379 . S
C1053 N1051 1.356 . S
N1054 C1046 1.356 . S
N1054 H1060 0.984 . S
N1054 H1061 0.984 . S
N1055 C1048 1.356 1_556 S
N1055 H1058 0.984 . S
N1055 H1059 0.985 . S
H1056 N1051 0.984 . S
H1057 N1051 0.985 . S
H1058 N1055 0.984 . S
H1059 N1055 0.985 . S
H1060 N1054 0.984 . S
H1061 N1054 0.984 . S
H1062 N1050 0.984 1_554 S
H1063 N1050 0.985 . S
C1064 C1065 1.363 . S
C1064 C1070 1.379 . S
C1064 N1072 1.356 . S
C1065 C1064 1.363 . S
C1065 C1071 1.363 . S
C1066 C1067 1.363 . S
C1066 C1071 1.379 . S
C1066 N1073 1.356 . S
C1067 C1066 1.363 . S
C1067 C1070 1.363 . S
N1068 C1070 1.356 . S
N1068 H1080 0.984 . S
N1068 H1081 0.985 . S
N1069 C1071 1.356 . S
N1069 H1074 0.984 . S
N1069 H1075 0.985 . S
C1070 C1064 1.379 . S
C1070 C1067 1.363 . S
C1070 N1068 1.356 . S
C1071 C1065 1.363 . S
C1071 C1066 1.379 . S
C1071 N1069 1.356 . S
N1072 C1064 1.356 . S
N1072 H1078 0.984 . S
N1072 H1079 0.984 . S
N1073 C1066 1.356 . S
N1073 H1076 0.984 . S
N1073 H1077 0.985 . S
H1074 N1069 0.984 . S
H1075 N1069 0.985 . S
H1076 N1073 0.984 . S
H1077 N1073 0.985 . S
H1078 N1072 0.984 . S
H1079 N1072 0.984 . S
H1080 N1068 0.984 . S
H1081 N1068 0.985 . S
C1082 C1083 1.363 . S
C1082 C1088 1.379 . S
C1082 N1090 1.356 . S
C1083 C1082 1.363 . S
C1083 C1089 1.363 1_655 S
C1084 C1085 1.363 . S
C1084 C1089 1.379 . S
C1084 N1091 1.356 . S
C1085 C1084 1.363 . S
C1085 C1088 1.363 1_455 S
N1086 C1088 1.356 . S
N1086 H1098 0.984 . S
N1086 H1099 0.985 . S
N1087 C1089 1.356 . S
N1087 H1092 0.984 . S
N1087 H1093 0.985 . S
C1088 C1082 1.379 . S
C1088 C1085 1.363 1_655 S
C1088 N1086 1.356 . S
C1089 C1083 1.363 1_455 S
C1089 C1084 1.379 . S
C1089 N1087 1.356 . S
N1090 C1082 1.356 . S
N1090 H1096 0.984 . S
N1090 H1097 0.984 . S
N1091 C1084 1.356 . S
N1091 H1094 0.984 . S
N1091 H1095 0.985 . S
H1092 N1087 0.984 . S
H1093 N1087 0.985 . S
H1094 N1091 0.984 . S
H1095 N1091 0.985 . S
H1096 N1090 0.984 . S
H1097 N1090 0.984 . S
H1098 N1086 0.984 . S
H1099 N1086 0.985 . S
C1100 C1101 1.363 . S
C1100 C1106 1.379 . S
C1100 N1108 1.356 . S
C1101 C1100 1.363 . S
C1101 C1107 1.363 . S
C1102 C1103 1.363 . S
C1102 C1107 1.379 . S
C1102 N1109 1.356 . S
C1103 C1102 1.363 . S
C1103 C1106 1.363 . S
N1104 C1106 1.356 . S
N1104 H1116 0.984 . S
N1104 H1117 0.985 . S
N1105 C1107 1.356 . S
N1105 H1110 0.984 . S
N1105 H1111 0.985 . S
C1106 C1100 1.379 . S
C1106 C1103 1.363 . S
C1106 N1104 1.356 . S
C1107 C1101 1.363 . S
C1107 C1102 1.379 . S
C1107 N1105 1.356 . S
N1108 C1100 1.356 . S
N1108 H1114 0.984 . S
N1108 H1115 0.984 . S
N1109 C1102 1.356 . S
N1109 H1112 0.984 . S
N1109 H1113 0.985 . S
H1110 N1105 0.984 . S
H1111 N1105 0.985 . S
H1112 N1109 0.984 . S
H1113 N1109 0.985 . S
H1114 N1108 0.984 . S
H1115 N1108 0.984 . S
H1116 N1104 0.984 . S
H1117 N1104 0.985 . S
C1118 C1119 1.363 1_556 S
C1118 C1124 1.379 . S
C1118 N1126 1.356 . S
C1119 C1118 1.363 1_554 S
C1119 C1125 1.363 1_554 S
C1120 C1121 1.363 . S
C1120 C1125 1.379 . S
C1120 N1127 1.356 . S
C1121 C1120 1.363 . S
C1121 C1124 1.363 . S
N1122 C1124 1.356 . S
N1122 H1134 0.984 . S
N1122 H1135 0.985 . S
N1123 C1125 1.356 1_554 S
N1123 H1128 0.984 . S
N1123 H1129 0.985 . S
C1124 C1118 1.379 . S
C1124 C1121 1.363 . S
C1124 N1122 1.356 . S
C1125 C1119 1.363 1_556 S
C1125 C1120 1.379 . S
C1125 N1123 1.356 1_556 S
N1126 C1118 1.356 . S
N1126 H1132 0.984 . S
N1126 H1133 0.984 1_556 S
N1127 C1120 1.356 . S
N1127 H1130 0.984 . S
N1127 H1131 0.985 . S
H1128 N1123 0.984 . S
H1129 N1123 0.985 . S
H1130 N1127 0.984 . S
H1131 N1127 0.985 . S
H1132 N1126 0.984 . S
H1133 N1126 0.984 1_554 S
H1134 N1122 0.984 . S
H1135 N1122 0.985 . S
C1136 C1137 1.363 . S
C1136 C1142 1.379 . S
C1136 N1144 1.356 . S
C1137 C1136 1.363 . S
C1137 C1143 1.363 . S
C1138 C1139 1.363 . S
C1138 C1143 1.379 . S
C1138 N1145 1.356 . S
C1139 C1138 1.363 . S
C1139 C1142 1.363 . S
N1140 C1142 1.356 . S
N1140 H1152 0.984 . S
N1140 H1153 0.985 . S
N1141 C1143 1.356 . S
N1141 H1146 0.984 . S
N1141 H1147 0.985 . S
C1142 C1136 1.379 . S
C1142 C1139 1.363 . S
C1142 N1140 1.356 . S
C1143 C1137 1.363 . S
C1143 C1138 1.379 . S
C1143 N1141 1.356 . S
N1144 C1136 1.356 . S
N1144 H1150 0.984 . S
N1144 H1151 0.984 . S
N1145 C1138 1.356 . S
N1145 H1148 0.984 . S
N1145 H1149 0.985 . S
H1146 N1141 0.984 . S
H1147 N1141 0.985 . S
H1148 N1145 0.984 . S
H1149 N1145 0.985 . S
H1150 N1144 0.984 . S
H1151 N1144 0.984 . S
H1152 N1140 0.984 . S
H1153 N1140 0.985 . S
C1154 C1155 1.363 . S
C1154 C1160 1.379 . S
C1154 N1162 1.356 . S
C1155 C1154 1.363 . S
C1155 C1161 1.363 . S
C1156 C1157 1.363 . S
C1156 C1161 1.379 . S
C1156 N1163 1.356 . S
C1157 C1156 1.363 . S
C1157 C1160 1.363 . S
N1158 C1160 1.356 . S
N1158 H1170 0.984 . S
N1158 H1171 0.985 . S
N1159 C1161 1.356 . S
N1159 H1164 0.984 . S
N1159 H1165 0.985 . S
C1160 C1154 1.379 . S
C1160 C1157 1.363 . S
C1160 N1158 1.356 . S
C1161 C1155 1.363 . S
C1161 C1156 1.379 . S
C1161 N1159 1.356 . S
N1162 C1154 1.356 . S
N1162 H1168 0.984 . S
N1162 H1169 0.984 . S
N1163 C1156 1.356 . S
N1163 H1166 0.984 . S
N1163 H1167 0.985 . S
H1164 N1159 0.984 . S
H1165 N1159 0.985 . S
H1166 N1163 0.984 . S
H1167 N1163 0.985 . S
H1168 N1162 0.984 . S
H1169 N1162 0.984 . S
H1170 N1158 0.984 . S
H1171 N1158 0.985 . S
C1172 C1173 1.363 . S
C1172 C1178 1.379 . S
C1172 N1180 1.356 . S
C1173 C1172 1.363 . S
C1173 C1179 1.363 . S
C1174 C1175 1.363 . S
C1174 C1179 1.379 . S
C1174 N1181 1.356 . S
C1175 C1174 1.363 . S
C1175 C1178 1.363 . S
N1176 C1178 1.356 . S
N1176 H1188 0.984 . S
N1176 H1189 0.985 . S
N1177 C1179 1.356 . S
N1177 H1182 0.984 . S
N1177 H1183 0.985 . S
C1178 C1172 1.379 . S
C1178 C1175 1.363 . S
C1178 N1176 1.356 . S
C1179 C1173 1.363 . S
C1179 C1174 1.379 . S
C1179 N1177 1.356 . S
N1180 C1172 1.356 . S
N1180 H1186 0.984 . S
N1180 H1187 0.984 . S
N1181 C1174 1.356 . S
N1181 H1184 0.984 . S
N1181 H1185 0.985 . S
H1182 N1177 0.984 . S
H1183 N1177 0.985 . S
H1184 N1181 0.984 . S
H1185 N1181 0.985 . S
H1186 N1180 0.984 . S
H1187 N1180 0.984 . S
H1188 N1176 0.984 . S
H1189 N1176 0.985 . S
C1190 C1191 1.363 1_455 S
C1190 C1196 1.379 . S
C1190 N1198 1.356 . S
C1191 C1190 1.363 1_655 S
C1191 C1197 1.363 . S
C1192 C1193 1.363 1_656 S
C1192 C1197 1.379 . S
C1192 N1199 1.356 1_556 S
C1193 C1192 1.363 1_454 S
C1193 C1196 1.363 1_554 S
N1194 C1196 1.349 1_554 S
N1194 H1206 0.980 1_554 S
N1194 H1207 0.996 . S
N1195 C1197 1.356 . S
N1195 H1200 0.984 . S
N1195 H1201 0.985 . S
C1196 C1190 1.379 . S
C1196 C1193 1.363 1_556 S
C1196 N1194 1.349 1_556 S
C1197 C1191 1.363 . S
C1197 C1192 1.379 . S
C1197 N1195 1.356 . S
N1198 C1190 1.356 . S
N1198 H1204 0.984 . S
N1198 H1205 0.984 . S
N1199 C1192 1.356 1_554 S
N1199 H1202 0.984 . S
N1199 H1203 0.985 . S
H1200 N1195 0.984 . S
H1201 N1195 0.985 . S
H1202 N1199 0.984 . S
H1203 N1199 0.985 . S
H1204 N1198 0.984 . S
H1205 N1198 0.984 . S
H1206 N1194 0.980 1_556 S
H1207 N1194 0.996 . S
C1208 C1209 1.363 . S
C1208 C1214 1.379 . S
C1208 N1216 1.356 . S
C1209 C1208 1.363 . S
C1209 C1215 1.363 . S
C1210 C1211 1.363 . S
C1210 C1215 1.379 . S
C1210 N1217 1.356 . S
C1211 C1210 1.363 . S
C1211 C1214 1.363 . S
N1212 C1214 1.356 . S
N1212 H1224 0.984 . S
N1212 H1225 0.985 . S
N1213 C1215 1.356 . S
N1213 H1218 0.984 . S
N1213 H1219 0.985 . S
C1214 C1208 1.379 . S
C1214 C1211 1.363 . S
C1214 N1212 1.356 . S
C1215 C1209 1.363 . S
C1215 C1210 1.379 . S
C1215 N1213 1.356 . S
N1216 C1208 1.356 . S
N1216 H1222 0.984 . S
N1216 H1223 0.984 . S
N1217 C1210 1.356 . S
N1217 H1220 0.984 . S
N1217 H1221 0.985 . S
H1218 N1213 0.984 . S
H1219 N1213 0.985 . S
H1220 N1217 0.984 . S
H1221 N1217 0.985 . S
H1222 N1216 0.984 . S
H1223 N1216 0.984 . S
H1224 N1212 0.984 . S
H1225 N1212 0.985 . S
C1226 C1227 1.363 1_455 S
C1226 C1232 1.379 . S
C1226 N1234 1.356 . S
C1227 C1226 1.363 1_655 S
C1227 C1233 1.363 . S
C1228 C1229 1.363 1_655 S
C1228 C1233 1.379 . S
C1228 N1235 1.356 . S
C1229 C1228 1.363 1_455 S
C1229 C1232 1.363 . S
N1230 C1232 1.356 . S
N1230 H1242 0.984 . S
N1230 H1243 0.985 . S
N1231 C1233 1.356 . S
N1231 H1236 0.984 . S
N1231 H1237 0.985 . S
C1232 C1226 1.379 . S
C1232 C1229 1.363 . S
C1232 N1230 1.356 . S
C1233 C1227 1.363 . S
C1233 C1228 1.379 . S
C1233 N1231 1.356 . S
N1234 C1226 1.356 . S
N1234 H1240 0.984 . S
N1234 H1241 0.984 . S
N1235 C1228 1.356 . S
N1235 H1238 0.984 . S
N1235 H1239 0.985 . S
H1236 N1231 0.984 . S
H1237 N1231 0.985 . S
H1238 N1235 0.984 . S
H1239 N1235 0.985 . S
H1240 N1234 0.984 . S
H1241 N1234 0.984 . S
H1242 N1230 0.984 . S
H1243 N1230 0.985 . S
C1244 C1245 1.363 . S
C1244 C1250 1.379 . S
C1244 N1252 1.356 . S
C1245 C1244 1.363 . S
C1245 C1251 1.363 . S
C1246 C1247 1.363 . S
C1246 C1251 1.379 . S
C1246 N1253 1.356 . S
C1247 C1246 1.363 . S
C1247 C1250 1.363 . S
N1248 C1250 1.356 . S
N1248 H1260 0.984 . S
N1248 H1261 0.985 . S
N1249 C1251 1.356 . S
N1249 H1254 0.984 . S
N1249 H1255 0.985 . S
C1250 C1244 1.379 . S
C1250 C1247 1.363 . S
C1250 N1248 1.356 . S
C1251 C1245 1.363 . S
C1251 C1246 1.379 . S
C1251 N1249 1.356 . S
N1252 C1244 1.356 . S
N1252 H1258 0.984 . S
N1252 H1259 0.984 . S
N1253 C1246 1.356 . S
N1253 H1256 0.984 . S
N1253 H1257 0.985 . S
H1254 N1249 0.984 . S
H1255 N1249 0.985 . S
H1256 N1253 0.984 . S
H1257 N1253 0.985 . S
H1258 N1252 0.984 . S
H1259 N1252 0.984 . S
H1260 N1248 0.984 . S
H1261 N1248 0.985 . S
C1262 C1263 1.363 . S
C1262 C1268 1.379 . S
C1262 N1270 1.356 . S
C1263 C1262 1.363 . S
C1263 C1269 1.363 . S
C1264 C1265 1.363 1_554 S
C1264 C1269 1.379 . S
C1264 N1271 1.358 . S
C1265 C1264 1.363 1_556 S
C1265 C1268 1.363 1_556 S
N1266 C1268 1.356 1_556 S
N1266 H1278 0.984 . S
N1266 H1279 0.985 . S
N1267 C1269 1.356 . S
N1267 H1272 0.984 . S
N1267 H1273 0.985 . S
C1268 C1262 1.379 . S
C1268 C1265 1.363 1_554 S
C1268 N1266 1.356 1_554 S
C1269 C1263 1.363 . S
C1269 C1264 1.379 . S
C1269 N1267 1.356 . S
N1270 C1262 1.356 . S
N1270 H1276 0.984 . S
N1270 H1277 0.984 . S
N1271 C1264 1.358 . S
N1271 H1274 0.982 1_554 S
N1271 H1275 0.985 . S
H1272 N1267 0.984 . S
H1273 N1267 0.985 . S
H1274 N1271 0.982 1_556 S
H1275 N1271 0.985 . S
H1276 N1270 0.984 . S
H1277 N1270 0.984 . S
H1278 N1266 0.984 . S
H1279 N1266 0.985 . S
C1280 C1281 1.363 . S
C1280 C1286 1.379 . S
C1280 N1288 1.356 . S
C1281 C1280 1.363 . S
C1281 C1287 1.363 . S
C1282 C1283 1.363 . S
C1282 C1287 1.379 . S
C1282 N1289 1.356 . S
C1283 C1282 1.363 . S
C1283 C1286 1.363 . S
N1284 C1286 1.356 . S
N1284 H1296 0.984 . S
N1284 H1297 0.985 . S
N1285 C1287 1.356 . S
N1285 H1290 0.984 . S
N1285 H1291 0.985 . S
C1286 C1280 1.379 . S
C1286 C1283 1.363 . S
C1286 N1284 1.356 . S
C1287 C1281 1.363 . S
C1287 C1282 1.379 . S
C1287 N1285 1.356 . S
N1288 C1280 1.356 . S
N1288 H1294 0.984 1_554 S
N1288 H1295 0.984 . S
N1289 C1282 1.356 . S
N1289 H1292 0.984 . S
N1289 H1293 0.985 . S
H1290 N1285 0.984 . S
H1291 N1285 0.985 . S
H1292 N1289 0.984 . S
H1293 N1289 0.985 . S
H1294 N1288 0.984 1_556 S
H1295 N1288 0.984 . S
H1296 N1284 0.984 . S
H1297 N1284 0.985 . S
C1298 C1299 1.363 . S
C1298 C1304 1.379 . S
C1298 N1306 1.356 . S
C1299 C1298 1.363 . S
C1299 C1305 1.363 . S
C1300 C1301 1.363 . S
C1300 C1305 1.379 . S
C1300 N1307 1.356 . S
C1301 C1300 1.363 . S
C1301 C1304 1.363 . S
N1302 C1304 1.356 . S
N1302 H1314 0.984 . S
N1302 H1315 0.985 . S
N1303 C1305 1.356 . S
N1303 H1308 0.984 . S
N1303 H1309 0.985 . S
C1304 C1298 1.379 . S
C1304 C1301 1.363 . S
C1304 N1302 1.356 . S
C1305 C1299 1.363 . S
C1305 C1300 1.379 . S
C1305 N1303 1.356 . S
N1306 C1298 1.356 . S
N1306 H1312 0.984 . S
N1306 H1313 0.984 . S
N1307 C1300 1.356 . S
N1307 H1310 0.984 . S
N1307 H1311 0.985 . S
H1308 N1303 0.984 . S
H1309 N1303 0.985 . S
H1310 N1307 0.984 . S
H1311 N1307 0.985 . S
H1312 N1306 0.984 . S
H1313 N1306 0.984 . S
H1314 N1302 0.984 . S
H1315 N1302 0.985 . S
C1316 C1317 1.363 . S
C1316 C1322 1.379 . S
C1316 N1324 1.356 . S
C1317 C1316 1.363 . S
C1317 C1323 1.363 . S
C1318 C1319 1.363 . S
C1318 C1323 1.379 . S
C1318 N1325 1.356 . S
C1319 C1318 1.363 . S
C1319 C1322 1.363 . S
N1320 C1322 1.356 . S
N1320 H1332 0.984 . S
N1320 H1333 0.985 . S
N1321 C1323 1.356 . S
N1321 H1326 0.984 . S
N1321 H1327 0.985 . S
C1322 C1316 1.379 . S
C1322 C1319 1.363 . S
C1322 N1320 1.356 . S
C1323 C1317 1.363 . S
C1323 C1318 1.379 . S
C1323 N1321 1.356 . S
N1324 C1316 1.356 . S
N1324 H1330 0.984 . S
N1324 H1331 0.984 . S
N1325 C1318 1.356 . S
N1325 H1328 0.984 . S
N1325 H1329 0.985 . S
H1326 N1321 0.984 . S
H1327 N1321 0.985 . S
H1328 N1325 0.984 . S
H1329 N1325 0.985 . S
H1330 N1324 0.984 . S
H1331 N1324 0.984 . S
H1332 N1320 0.984 . S
H1333 N1320 0.985 . S
C1334 C1335 1.363 . S
C1334 C1340 1.379 . S
C1334 N1342 1.356 . S
C1335 C1334 1.363 . S
C1335 C1341 1.363 . S
C1336 C1337 1.363 . S
C1336 C1341 1.379 . S
C1336 N1343 1.356 . S
C1337 C1336 1.363 . S
C1337 C1340 1.363 . S
N1338 C1340 1.356 . S
N1338 H1350 0.984 . S
N1338 H1351 0.985 . S
N1339 C1341 1.356 . S
N1339 H1344 0.984 . S
N1339 H1345 0.985 . S
C1340 C1334 1.379 . S
C1340 C1337 1.363 . S
C1340 N1338 1.356 . S
C1341 C1335 1.363 . S
C1341 C1336 1.379 . S
C1341 N1339 1.356 . S
N1342 C1334 1.356 . S
N1342 H1348 0.984 . S
N1342 H1349 0.984 . S
N1343 C1336 1.356 . S
N1343 H1346 0.984 . S
N1343 H1347 0.985 . S
H1344 N1339 0.984 . S
H1345 N1339 0.985 . S
H1346 N1343 0.984 . S
H1347 N1343 0.985 . S
H1348 N1342 0.984 . S
H1349 N1342 0.984 . S
H1350 N1338 0.984 . S
H1351 N1338 0.985 . S
C1352 C1353 1.363 . S
C1352 C1358 1.379 . S
C1352 N1360 1.356 . S
C1353 C1352 1.363 . S
C1353 C1359 1.363 . S
C1354 C1355 1.363 . S
C1354 C1359 1.379 . S
C1354 N1361 1.356 . S
C1355 C1354 1.363 . S
C1355 C1358 1.363 . S
N1356 C1358 1.356 . S
N1356 H1368 0.984 . S
N1356 H1369 0.985 . S
N1357 C1359 1.356 . S
N1357 H1362 0.984 . S
N1357 H1363 0.985 . S
C1358 C1352 1.379 . S
C1358 C1355 1.363 . S
C1358 N1356 1.356 . S
C1359 C1353 1.363 . S
C1359 C1354 1.379 . S
C1359 N1357 1.356 . S
N1360 C1352 1.356 . S
N1360 H1366 0.984 . S
N1360 H1367 0.984 . S
N1361 C1354 1.356 . S
N1361 H1364 0.984 . S
N1361 H1365 0.985 . S
H1362 N1357 0.984 . S
H1363 N1357 0.985 . S
H1364 N1361 0.984 . S
H1365 N1361 0.985 . S
H1366 N1360 0.984 . S
H1367 N1360 0.984 . S
H1368 N1356 0.984 . S
H1369 N1356 0.985 . S
C1370 C1371 1.363 . S
C1370 C1376 1.379 . S
C1370 N1378 1.356 . S
C1371 C1370 1.363 . S
C1371 C1377 1.363 . S
C1372 C1373 1.363 . S
C1372 C1377 1.379 . S
C1372 N1379 1.356 . S
C1373 C1372 1.363 . S
C1373 C1376 1.363 . S
N1374 C1376 1.356 . S
N1374 H1386 0.984 . S
N1374 H1387 0.985 . S
N1375 C1377 1.356 . S
N1375 H1380 0.984 . S
N1375 H1381 0.985 . S
C1376 C1370 1.379 . S
C1376 C1373 1.363 . S
C1376 N1374 1.356 . S
C1377 C1371 1.363 . S
C1377 C1372 1.379 . S
C1377 N1375 1.356 . S
N1378 C1370 1.356 . S
N1378 H1384 0.984 . S
N1378 H1385 0.984 . S
N1379 C1372 1.356 . S
N1379 H1382 0.984 . S
N1379 H1383 0.985 . S
H1380 N1375 0.984 . S
H1381 N1375 0.985 . S
H1382 N1379 0.984 . S
H1383 N1379 0.985 . S
H1384 N1378 0.984 . S
H1385 N1378 0.984 . S
H1386 N1374 0.984 . S
H1387 N1374 0.985 . S
C1388 C1389 1.363 . S
C1388 C1394 1.379 . S
C1388 N1396 1.356 . S
C1389 C1388 1.363 . S
C1389 C1395 1.363 . S
C1390 C1391 1.363 . S
C1390 C1395 1.379 . S
C1390 N1397 1.356 . S
C1391 C1390 1.363 . S
C1391 C1394 1.363 . S
N1392 C1394 1.356 . S
N1392 H1404 0.984 . S
N1392 H1405 0.985 . S
N1393 C1395 1.356 . S
N1393 H1398 0.984 . S
N1393 H1399 0.985 . S
C1394 C1388 1.379 . S
C1394 C1391 1.363 . S
C1394 N1392 1.356 . S
C1395 C1389 1.363 . S
C1395 C1390 1.379 . S
C1395 N1393 1.356 . S
N1396 C1388 1.356 . S
N1396 H1402 0.984 . S
N1396 H1403 0.984 . S
N1397 C1390 1.356 . S
N1397 H1400 0.984 . S
N1397 H1401 0.985 1_556 S
H1398 N1393 0.984 . S
H1399 N1393 0.985 . S
H1400 N1397 0.984 . S
H1401 N1397 0.985 1_554 S
H1402 N1396 0.984 . S
H1403 N1396 0.984 . S
H1404 N1392 0.984 . S
H1405 N1392 0.985 . S
C1406 C1407 1.363 . S
C1406 C1412 1.379 . S
C1406 N1414 1.356 . S
C1407 C1406 1.363 . S
C1407 C1413 1.363 . S
C1408 C1409 1.363 . S
C1408 C1413 1.379 . S
C1408 N1415 1.356 . S
C1409 C1408 1.363 . S
C1409 C1412 1.363 . S
N1410 C1412 1.356 . S
N1410 H1422 0.984 . S
N1410 H1423 0.985 . S
N1411 C1413 1.356 . S
N1411 H1416 0.984 . S
N1411 H1417 0.985 . S
C1412 C1406 1.379 . S
C1412 C1409 1.363 . S
C1412 N1410 1.356 . S
C1413 C1407 1.363 . S
C1413 C1408 1.379 . S
C1413 N1411 1.356 . S
N1414 C1406 1.356 . S
N1414 H1420 0.984 . S
N1414 H1421 0.984 . S
N1415 C1408 1.356 . S
N1415 H1418 0.984 . S
N1415 H1419 0.985 . S
H1416 N1411 0.984 . S
H1417 N1411 0.985 . S
H1418 N1415 0.984 . S
H1419 N1415 0.985 . S
H1420 N1414 0.984 . S
H1421 N1414 0.984 . S
H1422 N1410 0.984 . S
H1423 N1410 0.985 . S
C1424 C1425 1.363 . S
C1424 C1430 1.379 . S
C1424 N1432 1.356 . S
C1425 C1424 1.363 . S
C1425 C1431 1.363 . S
C1426 C1427 1.363 . S
C1426 C1431 1.379 . S
C1426 N1433 1.356 . S
C1427 C1426 1.363 . S
C1427 C1430 1.363 . S
N1428 C1430 1.356 . S
N1428 H1440 0.984 . S
N1428 H1441 0.985 . S
N1429 C1431 1.356 . S
N1429 H1434 0.984 . S
N1429 H1435 0.985 1_556 S
C1430 C1424 1.379 . S
C1430 C1427 1.363 . S
C1430 N1428 1.356 . S
C1431 C1425 1.363 . S
C1431 C1426 1.379 . S
C1431 N1429 1.356 . S
N1432 C1424 1.356 . S
N1432 H1438 0.984 . S
N1432 H1439 0.984 . S
N1433 C1426 1.356 . S
N1433 H1436 0.984 . S
N1433 H1437 0.985 . S
H1434 N1429 0.984 . S
H1435 N1429 0.985 1_554 S
H1436 N1433 0.984 . S
H1437 N1433 0.985 . S
H1438 N1432 0.984 . S
H1439 N1432 0.984 . S
H1440 N1428 0.984 . S
H1441 N1428 0.985 . S
C1442 C1443 1.363 . S
C1442 C1448 1.379 . S
C1442 N1450 1.356 . S
C1443 C1442 1.363 . S
C1443 C1449 1.363 . S
C1444 C1445 1.363 . S
C1444 C1449 1.379 . S
C1444 N1451 1.356 . S
C1445 C1444 1.363 . S
C1445 C1448 1.363 . S
N1446 C1448 1.356 . S
N1446 H1458 0.984 . S
N1446 H1459 0.985 . S
N1447 C1449 1.356 . S
N1447 H1452 0.984 . S
N1447 H1453 0.985 . S
C1448 C1442 1.379 . S
C1448 C1445 1.363 . S
C1448 N1446 1.356 . S
C1449 C1443 1.363 . S
C1449 C1444 1.379 . S
C1449 N1447 1.356 . S
N1450 C1442 1.356 . S
N1450 H1456 0.984 . S
N1450 H1457 0.984 . S
N1451 C1444 1.356 . S
N1451 H1454 0.984 . S
N1451 H1455 0.985 . S
H1452 N1447 0.984 . S
H1453 N1447 0.985 . S
H1454 N1451 0.984 . S
H1455 N1451 0.985 . S
H1456 N1450 0.984 . S
H1457 N1450 0.984 . S
H1458 N1446 0.984 . S
H1459 N1446 0.985 . S
C1460 C1461 1.363 . S
C1460 C1466 1.379 . S
C1460 N1468 1.356 . S
C1461 C1460 1.363 . S
C1461 C1467 1.363 . S
C1462 C1463 1.363 . S
C1462 C1467 1.379 . S
C1462 N1469 1.356 . S
C1463 C1462 1.363 . S
C1463 C1466 1.363 . S
N1464 C1466 1.356 . S
N1464 H1476 0.984 . S
N1464 H1477 0.985 . S
N1465 C1467 1.356 . S
N1465 H1470 0.984 . S
N1465 H1471 0.985 . S
C1466 C1460 1.379 . S
C1466 C1463 1.363 . S
C1466 N1464 1.356 . S
C1467 C1461 1.363 . S
C1467 C1462 1.379 . S
C1467 N1465 1.356 . S
N1468 C1460 1.356 . S
N1468 H1474 0.984 . S
N1468 H1475 0.984 . S
N1469 C1462 1.356 . S
N1469 H1472 0.984 . S
N1469 H1473 0.985 . S
H1470 N1465 0.984 . S
H1471 N1465 0.985 . S
H1472 N1469 0.984 . S
H1473 N1469 0.985 . S
H1474 N1468 0.984 . S
H1475 N1468 0.984 . S
H1476 N1464 0.984 . S
H1477 N1464 0.985 . S
C1478 C1479 1.363 . S
C1478 C1484 1.379 . S
C1478 N1486 1.356 . S
C1479 C1478 1.363 . S
C1479 C1485 1.363 . S
C1480 C1481 1.363 . S
C1480 C1485 1.379 . S
C1480 N1487 1.356 . S
C1481 C1480 1.363 . S
C1481 C1484 1.363 . S
N1482 C1484 1.356 . S
N1482 H1494 0.984 . S
N1482 H1495 0.985 . S
N1483 C1485 1.356 . S
N1483 H1488 0.984 . S
N1483 H1489 0.985 . S
C1484 C1478 1.379 . S
C1484 C1481 1.363 . S
C1484 N1482 1.356 . S
C1485 C1479 1.363 . S
C1485 C1480 1.379 . S
C1485 N1483 1.356 . S
N1486 C1478 1.356 . S
N1486 H1492 0.984 . S
N1486 H1493 0.984 . S
N1487 C1480 1.356 . S
N1487 H1490 0.984 . S
N1487 H1491 0.985 . S
H1488 N1483 0.984 . S
H1489 N1483 0.985 . S
H1490 N1487 0.984 . S
H1491 N1487 0.985 . S
H1492 N1486 0.984 . S
H1493 N1486 0.984 . S
H1494 N1482 0.984 . S
H1495 N1482 0.985 . S
C1496 C1497 1.363 . S
C1496 C1502 1.379 . S
C1496 N1504 1.356 . S
C1497 C1496 1.363 . S
C1497 C1503 1.363 . S
C1498 C1499 1.363 . S
C1498 C1503 1.379 . S
C1498 N1505 1.356 . S
C1499 C1498 1.363 . S
C1499 C1502 1.363 . S
N1500 C1502 1.356 . S
N1500 H1512 0.984 . S
N1500 H1513 0.985 . S
N1501 C1503 1.356 . S
N1501 H1506 0.984 . S
N1501 H1507 0.985 . S
C1502 C1496 1.379 . S
C1502 C1499 1.363 . S
C1502 N1500 1.356 . S
C1503 C1497 1.363 . S
C1503 C1498 1.379 . S
C1503 N1501 1.356 . S
N1504 C1496 1.356 . S
N1504 H1510 0.984 . S
N1504 H1511 0.984 . S
N1505 C1498 1.356 . S
N1505 H1508 0.984 . S
N1505 H1509 0.985 . S
H1506 N1501 0.984 . S
H1507 N1501 0.985 . S
H1508 N1505 0.984 . S
H1509 N1505 0.985 . S
H1510 N1504 0.984 . S
H1511 N1504 0.984 . S
H1512 N1500 0.984 . S
H1513 N1500 0.985 . S
C1514 C1515 1.363 . S
C1514 C1520 1.379 . S
C1514 N1522 1.356 . S
C1515 C1514 1.363 . S
C1515 C1521 1.363 . S
C1516 C1517 1.363 . S
C1516 C1521 1.379 . S
C1516 N1523 1.356 . S
C1517 C1516 1.363 . S
C1517 C1520 1.363 . S
N1518 C1520 1.356 . S
N1518 H1530 0.984 . S
N1518 H1531 0.985 . S
N1519 C1521 1.356 . S
N1519 H1524 0.984 . S
N1519 H1525 0.985 . S
C1520 C1514 1.379 . S
C1520 C1517 1.363 . S
C1520 N1518 1.356 . S
C1521 C1515 1.363 . S
C1521 C1516 1.379 . S
C1521 N1519 1.356 . S
N1522 C1514 1.356 . S
N1522 H1528 0.984 . S
N1522 H1529 0.984 . S
N1523 C1516 1.356 . S
N1523 H1526 0.984 . S
N1523 H1527 0.985 . S
H1524 N1519 0.984 . S
H1525 N1519 0.985 . S
H1526 N1523 0.984 . S
H1527 N1523 0.985 . S
H1528 N1522 0.984 . S
H1529 N1522 0.984 . S
H1530 N1518 0.984 . S
H1531 N1518 0.985 . S
C1532 C1533 1.363 . S
C1532 C1538 1.379 . S
C1532 N1540 1.356 . S
C1533 C1532 1.363 . S
C1533 C1539 1.363 . S
C1534 C1535 1.363 . S
C1534 C1539 1.379 . S
C1534 N1541 1.356 . S
C1535 C1534 1.363 . S
C1535 C1538 1.363 . S
N1536 C1538 1.356 . S
N1536 H1548 0.984 . S
N1536 H1549 0.985 . S
N1537 C1539 1.356 . S
N1537 H1542 0.984 . S
N1537 H1543 0.985 1_554 S
C1538 C1532 1.379 . S
C1538 C1535 1.363 . S
C1538 N1536 1.356 . S
C1539 C1533 1.363 . S
C1539 C1534 1.379 . S
C1539 N1537 1.356 . S
N1540 C1532 1.356 . S
N1540 H1546 0.984 . S
N1540 H1547 0.984 . S
N1541 C1534 1.356 . S
N1541 H1544 0.984 . S
N1541 H1545 0.985 . S
H1542 N1537 0.984 . S
H1543 N1537 0.985 1_556 S
H1544 N1541 0.984 . S
H1545 N1541 0.985 . S
H1546 N1540 0.984 . S
H1547 N1540 0.984 . S
H1548 N1536 0.984 . S
H1549 N1536 0.985 . S
C1550 C1551 1.363 . S
C1550 C1556 1.379 . S
C1550 N1558 1.356 . S
C1551 C1550 1.363 . S
C1551 C1557 1.363 . S
C1552 C1553 1.363 . S
C1552 C1557 1.379 . S
C1552 N1559 1.356 . S
C1553 C1552 1.363 . S
C1553 C1556 1.363 . S
N1554 C1556 1.356 . S
N1554 H1566 0.984 . S
N1554 H1567 0.985 . S
N1555 C1557 1.356 . S
N1555 H1560 0.984 . S
N1555 H1561 0.985 . S
C1556 C1550 1.379 . S
C1556 C1553 1.363 . S
C1556 N1554 1.356 . S
C1557 C1551 1.363 . S
C1557 C1552 1.379 . S
C1557 N1555 1.356 . S
N1558 C1550 1.356 . S
N1558 H1564 0.984 . S
N1558 H1565 0.984 . S
N1559 C1552 1.356 . S
N1559 H1562 0.984 . S
N1559 H1563 0.985 . S
H1560 N1555 0.984 . S
H1561 N1555 0.985 . S
H1562 N1559 0.984 . S
H1563 N1559 0.985 . S
H1564 N1558 0.984 . S
H1565 N1558 0.984 . S
H1566 N1554 0.984 . S
H1567 N1554 0.985 . S
C417 C81 1.504 . S
C419 C5 1.504 . S
C435 C16 1.504 . S
C437 C96 1.504 . S
C453 C57 1.504 . S
C455 C29 1.504 . S
C471 C42 1.504 . S
C473 C70 1.504 . S
C489 C187 1.504 . S
C491 C107 1.504 . S
C507 C198 1.504 . S
C509 C122 1.504 . S
C525 C135 1.504 . S
C527 C161 1.504 . S
C543 C148 1.504 . S
C545 C172 1.504 . S
C561 C213 1.504 . S
C563 C291 1.504 . S
C579 C226 1.504 . S
C581 C304 1.504 . S
C597 C263 1.504 . S
C599 C239 1.504 . S
C615 C278 1.504 . S
C617 C252 1.504 . S
C633 C317 1.504 . S
C635 C395 1.504 . S
C651 C408 1.504 . S
C653 C330 1.504 . S
C669 C367 1.504 . S
C671 C343 1.504 . S
C687 C356 1.504 . S
C689 C380 1.504 . S
C705 C3 1.399 . S
C707 C400 1.407 . S
C723 C199 1.407 . S
C725 C18 1.399 . S
C741 C31 1.399 . S
C743 C368 1.407 . S
C759 C44 1.399 . S
C761 C173 1.407 . S
C777 C348 1.407 . S
C779 C55 1.399 . S
C795 C153 1.407 . S
C797 C68 1.399 . S
C813 C83 1.399 . S
C815 C322 1.407 . S
C831 C127 1.407 . S
C833 C94 1.399 . S
C849 C109 1.399 . S
C851 C296 1.407 . S
C867 C101 1.407 . S
C869 C120 1.399 . S
C885 C133 1.399 . S
C887 C264 1.407 . S
C903 C146 1.399 . S
C905 C75 1.407 . S
C921 C244 1.407 . S
C923 C159 1.399 . S
C939 C174 1.399 . S
C941 C43 1.407 . S
C957 C185 1.399 . S
C959 C218 1.407 . S
C975 C17 1.407 . S
C977 C200 1.399 . S
C993 C211 1.399 . S
C995 C192 1.407 . S
C1011 C224 1.399 . S
C1013 C413 1.407 . S
C1029 C166 1.407 . S
C1031 C237 1.399 . S
C1047 C250 1.399 . S
C1049 C381 1.407 . S
C1065 C140 1.407 . S
C1067 C265 1.399 . S
C1083 C361 1.407 . S
C1085 C276 1.399 . S
C1101 C108 1.407 . S
C1103 C289 1.399 . S
C1119 C335 1.407 . S
C1121 C302 1.399 . S
C1137 C315 1.399 . S
C1139 C82 1.407 . S
C1155 C309 1.407 . S
C1157 C328 1.399 . S
C1173 C62 1.407 . S
C1175 C341 1.399 . S
C1191 C354 1.399 . S
C1193 C283 1.407 . S
C1209 C369 1.399 . S
C1211 C30 1.407 . S
C1227 C382 1.399 . S
C1229 C257 1.407 . S
C1245 C10 1.407 . S
C1247 C393 1.399 . S
C1263 C406 1.399 . S
C1265 C231 1.407 . S
C1281 C4 1.466 . S
C1283 C277 1.466 . S
C1299 C290 1.466 . S
C1301 C23 1.466 . S
C1317 C36 1.466 . S
C1319 C303 1.466 . S
C1335 C270 1.466 . S
C1337 C49 1.466 . S
C1353 C251 1.466 . S
C1355 C56 1.466 . S
C1371 C212 1.466 . S
C1373 C69 1.466 . S
C1389 C225 1.466 . S
C1391 C88 1.466 . S
C1407 C238 1.466 . S
C1409 C95 1.466 . S
C1425 C114 1.466 . S
C1427 C387 1.466 . S
C1443 C394 1.466 . S
C1445 C121 1.466 . S
C1461 C407 1.466 . S
C1463 C134 1.466 . S
C1479 C374 1.466 . S
C1481 C147 1.466 . S
C1497 C355 1.466 . S
C1499 C160 1.466 . S
C1515 C316 1.466 . S
C1517 C179 1.466 . S
C1533 C186 1.466 . S
C1535 C329 1.466 . S
C1551 C205 1.466 . S
C1553 C342 1.466 . S
