# Generated by pormake.
# Topology qtz-f, (3)-cn, num edge types: 1
# Building blocks:
#     Node 0, Type 0, BuildingBlock: OLANEW_clean_sbu_2, # of connection points: 3
#     Node 1, Type 0, BuildingBlock: OLANEW_clean_sbu_2, # of connection points: 3
#     Node 2, Type 0, BuildingBlock: OLANEW_clean_sbu_2, # of connection points: 3
#     Node 3, Type 0, BuildingBlock: OLANEW_clean_sbu_2, # of connection points: 3
#     Node 4, Type 0, BuildingBlock: OLANEW_clean_sbu_2, # of connection points: 3
#     Node 5, Type 0, BuildingBlock: OLANEW_clean_sbu_2, # of connection points: 3
#     Node 6, Type 0, BuildingBlock: OLANEW_clean_sbu_2, # of connection points: 3
#     Node 7, Type 0, BuildingBlock: OLANEW_clean_sbu_2, # of connection points: 3
#     Node 8, Type 0, BuildingBlock: OLANEW_clean_sbu_2, # of connection points: 3
#     Node 9, Type 0, BuildingBlock: OLANEW_clean_sbu_2, # of connection points: 3
#     Node 10, Type 0, BuildingBlock: OLANEW_clean_sbu_2, # of connection points: 3
#     Node 11, Type 0, BuildingBlock: OLANEW_clean_sbu_2, # of connection points: 3
#     Edge 12, Type (0, 0), BuildingBlock: KIFKEQ_clean_linker_1, # of connection points: 2
#     Edge 13, Type (0, 0), BuildingBlock: KIFKEQ_clean_linker_1, # of connection points: 2
#     Edge 14, Type (0, 0), BuildingBlock: KIFKEQ_clean_linker_1, # of connection points: 2
#     Edge 15, Type (0, 0), BuildingBlock: KIFKEQ_clean_linker_1, # of connection points: 2
#     Edge 16, Type (0, 0), BuildingBlock: KIFKEQ_clean_linker_1, # of connection points: 2
#     Edge 17, Type (0, 0), BuildingBlock: KIFKEQ_clean_linker_1, # of connection points: 2
#     Edge 18, Type (0, 0), BuildingBlock: KIFKEQ_clean_linker_1, # of connection points: 2
#     Edge 19, Type (0, 0), BuildingBlock: KIFKEQ_clean_linker_1, # of connection points: 2
#     Edge 20, Type (0, 0), BuildingBlock: KIFKEQ_clean_linker_1, # of connection points: 2
#     Edge 21, Type (0, 0), BuildingBlock: KIFKEQ_clean_linker_1, # of connection points: 2
#     Edge 22, Type (0, 0), BuildingBlock: KIFKEQ_clean_linker_1, # of connection points: 2
#     Edge 23, Type (0, 0), BuildingBlock: KIFKEQ_clean_linker_1, # of connection points: 2
#     Edge 24, Type (0, 0), BuildingBlock: KIFKEQ_clean_linker_1, # of connection points: 2
#     Edge 25, Type (0, 0), BuildingBlock: KIFKEQ_clean_linker_1, # of connection points: 2
#     Edge 26, Type (0, 0), BuildingBlock: KIFKEQ_clean_linker_1, # of connection points: 2
#     Edge 27, Type (0, 0), BuildingBlock: KIFKEQ_clean_linker_1, # of connection points: 2
#     Edge 28, Type (0, 0), BuildingBlock: KIFKEQ_clean_linker_1, # of connection points: 2
#     Edge 29, Type (0, 0), BuildingBlock: KIFKEQ_clean_linker_1, # of connection points: 2
# Relax obj value: 0.008
# Max RMSD: 0.022
# Mean RMSD: 0.022
data_MOF--net-qtz-f--node1-OLANEW_clean_sbu_2--edge1-KIFKEQ_clean_linker_1
_symmetry_space_group_name_H-M    P1
_symmetry_Int_Tables_number       1
_symmetry_cell_setting            triclinic
loop_
_symmetry_equiv_pos_as_xyz
'x, y, z'
_cell_length_a     75.266688
_cell_length_b     75.276673
_cell_length_c     24.855092
_cell_angle_alpha  90.001169
_cell_angle_beta   89.999922
_cell_angle_gamma 119.9815
loop_
_atom_site_label
_atom_site_type_symbol
_atom_site_fract_x
_atom_site_fract_y
_atom_site_fract_z
_atom_type_partial_charge
O0 O 0.14088 0.49766 0.11991 0.0
Cd1 Cd 0.13204 0.46221 0.10232 0.0
O2 O 0.13018 0.49182 0.20381 0.0
Cd3 Cd 0.11583 0.45858 0.19554 0.0
O4 O 0.0874 0.42929 0.18695 0.0
C5 C 0.07718 0.4265 0.14397 0.0
O6 O 0.08502 0.44047 0.10594 0.0
C7 C 0.1386 0.50428 0.165 0.0
C8 C 0.16662 0.46006 0.07227 0.0
O9 O 0.15588 0.46302 0.0372 0.0
O10 O 0.16092 0.45798 0.12158 0.0
O11 O 0.64424 0.14034 0.44265 0.0
Cd12 Cd 0.67036 0.13057 0.42818 0.0
O13 O 0.63945 0.13126 0.52786 0.0
Cd14 Cd 0.65794 0.11635 0.5236 0.0
O15 O 0.65819 0.08746 0.52269 0.0
C16 C 0.65114 0.07622 0.48114 0.0
O17 O 0.64577 0.08328 0.43957 0.0
C18 C 0.63552 0.13908 0.48744 0.0
C19 C 0.70768 0.16465 0.39954 0.0
O20 O 0.69417 0.15412 0.36389 0.0
O21 O 0.70362 0.15895 0.44876 0.0
O22 O 0.50229 0.64172 0.74778 0.0
Cd23 Cd 0.53741 0.66707 0.72255 0.0
O24 O 0.51054 0.63892 0.83098 0.0
Cd25 Cd 0.54361 0.65685 0.81742 0.0
O26 O 0.57286 0.65724 0.81762 0.0
C27 C 0.57805 0.65264 0.86182 0.0
O28 O 0.56652 0.64954 0.90444 0.0
C29 C 0.49698 0.63417 0.79472 0.0
C30 C 0.54023 0.70421 0.69369 0.0
O31 O 0.53544 0.68993 0.65898 0.0
O32 O 0.54381 0.70098 0.74206 0.0
O33 O 0.85479 0.50274 0.13014 0.0
Cd34 Cd 0.8629 0.53816 0.11574 0.0
O35 O 0.86723 0.50903 0.21239 0.0
Cd36 Cd 0.88227 0.54233 0.20419 0.0
O37 O 0.91204 0.57041 0.19891 0.0
C38 C 0.91913 0.57946 0.15429 0.0
O39 O 0.9075 0.57275 0.11119 0.0
C40 C 0.85798 0.49637 0.17448 0.0
C41 C 0.83189 0.53969 0.058 0.0
O42 O 0.84736 0.54056 0.0339 0.0
O43 O 0.83115 0.53821 0.10942 0.0
O44 O 0.3538 0.86079 0.46351 0.0
Cd45 Cd 0.32599 0.86863 0.45773 0.0
O46 O 0.36113 0.8718 0.54696 0.0
Cd47 Cd 0.34237 0.88646 0.54584 0.0
O48 O 0.3424 0.91547 0.54283 0.0
C49 C 0.34873 0.9259 0.49975 0.0
O50 O 0.35317 0.91794 0.4584 0.0
C51 C 0.36407 0.86332 0.5063 0.0
C52 C 0.29016 0.83494 0.41933 0.0
O53 O 0.30257 0.84905 0.38729 0.0
O54 O 0.29464 0.83685 0.46953 0.0
O55 O 0.49569 0.35374 0.80666 0.0
Cd56 Cd 0.46008 0.32601 0.80018 0.0
O57 O 0.49285 0.35865 0.89272 0.0
Cd58 Cd 0.45935 0.34111 0.89142 0.0
O59 O 0.43164 0.34363 0.89021 0.0
C60 C 0.42102 0.34037 0.84776 0.0
O61 O 0.42584 0.33364 0.80453 0.0
C62 C 0.50389 0.36263 0.85077 0.0
C63 C 0.4579 0.29088 0.75615 0.0
O64 O 0.46056 0.29451 0.80676 0.0
O65 O 0.45611 0.3038 0.72637 0.0
O66 O 0.50385 0.86068 0.55061 0.0
Cd67 Cd 0.53961 0.86959 0.56282 0.0
O68 O 0.50778 0.87026 0.46581 0.0
Cd69 Cd 0.54116 0.8846 0.46836 0.0
O70 O 0.57043 0.91334 0.46817 0.0
C71 C 0.57504 0.92458 0.50981 0.0
O72 O 0.56295 0.9176 0.55203 0.0
C73 C 0.49624 0.86239 0.50656 0.0
C74 C 0.54204 0.83505 0.59151 0.0
O75 O 0.53981 0.84605 0.62727 0.0
O76 O 0.5433 0.8405 0.54215 0.0
O77 O 0.65164 0.49823 0.8064 0.0
Cd78 Cd 0.68115 0.53252 0.79324 0.0
O79 O 0.63762 0.50904 0.86618 0.0
Cd80 Cd 0.65787 0.54179 0.85196 0.0
O81 O 0.65681 0.56988 0.83746 0.0
C82 C 0.6602 0.58261 0.87513 0.0
O83 O 0.66634 0.5797 0.92212 0.0
C84 C 0.63755 0.49441 0.84039 0.0
C85 C 0.71511 0.5364 0.84892 0.0
O86 O 0.70299 0.54165 0.87074 0.0
O87 O 0.71128 0.52953 0.80061 0.0
O88 O 0.1393 0.64552 0.22918 0.0
Cd89 Cd 0.13104 0.67293 0.23892 0.0
O90 O 0.12658 0.6381 0.14728 0.0
Cd91 Cd 0.11159 0.65651 0.15214 0.0
O92 O 0.0827 0.65681 0.15428 0.0
C93 C 0.07067 0.6485 0.11464 0.0
O94 O 0.07693 0.64183 0.07409 0.0
C95 C 0.13601 0.63532 0.18592 0.0
C96 C 0.16464 0.70876 0.27773 0.0
O97 O 0.15087 0.69593 0.30985 0.0
O98 O 0.16245 0.70469 0.22729 0.0
O99 O 0.49638 0.14307 0.54101 0.0
Cd100 Cd 0.46079 0.13519 0.54962 0.0
O101 O 0.49183 0.13182 0.45765 0.0
Cd102 Cd 0.45846 0.11737 0.46089 0.0
O103 O 0.42935 0.08851 0.46496 0.0
C104 C 0.42551 0.07807 0.50794 0.0
O105 O 0.43824 0.08593 0.54868 0.0
C106 C 0.50366 0.14038 0.49756 0.0
C107 C 0.45863 0.16809 0.59405 0.0
O108 O 0.4572 0.15352 0.62381 0.0
O109 O 0.46097 0.16703 0.5433 0.0
O110 O 0.35881 0.4987 0.90774 0.0
Cd111 Cd 0.33358 0.46374 0.93452 0.0
O112 O 0.36238 0.48977 0.82595 0.0
Cd113 Cd 0.34475 0.45686 0.84203 0.0
O114 O 0.34483 0.42796 0.84909 0.0
C115 C 0.3517 0.42286 0.8088 0.0
O116 O 0.35676 0.43429 0.76529 0.0
C117 C 0.36669 0.50364 0.86103 0.0
C118 C 0.29668 0.46115 0.96494 0.0
O119 O 0.31115 0.46597 0.99907 0.0
O120 O 0.29961 0.45743 0.91642 0.0
O121 O 0.85996 0.35796 0.25006 0.0
Cd122 Cd 0.87064 0.3328 0.26931 0.0
O123 O 0.87064 0.36277 0.16615 0.0
Cd124 Cd 0.88674 0.34557 0.17558 0.0
O125 O 0.91635 0.34692 0.18194 0.0
C126 C 0.92505 0.345 0.14031 0.0
O127 O 0.91519 0.34042 0.09422 0.0
C128 C 0.86172 0.36639 0.20453 0.0
C129 C 0.83696 0.29523 0.29829 0.0
O130 O 0.84685 0.30918 0.33351 0.0
O131 O 0.84312 0.29897 0.24935 0.0
H132 H 0.28769 0.47253 0.06094 0.0
H133 H 0.26175 0.44757 0.90517 0.0
H134 H 0.25613 0.47186 0.0865 0.0
H135 H 0.22991 0.44625 0.93132 0.0
H136 H 0.18512 0.46847 0.97367 0.0
H137 H 0.21629 0.46835 0.94813 0.0
H138 H 0.22102 0.44928 0.10899 0.0
H139 H 0.1902 0.45006 0.13494 0.0
C140 C 0.27517 0.46673 0.0323 0.0
C141 C 0.27725 0.46015 0.98097 0.0
C142 C 0.25701 0.46622 0.04708 0.0
C143 C 0.24042 0.45899 0.01101 0.0
C144 C 0.24246 0.45222 0.95983 0.0
C145 C 0.26068 0.45285 0.94493 0.0
C146 C 0.19279 0.46422 0.00356 0.0
C147 C 0.18521 0.45933 0.05637 0.0
C148 C 0.21061 0.46402 0.98883 0.0
C149 C 0.22121 0.45881 0.02647 0.0
C150 C 0.21346 0.45369 0.07917 0.0
C151 C 0.1957 0.45402 0.09399 0.0
H152 H 0.71825 0.18382 0.30189 0.0
H153 H 0.74128 0.18721 0.463 0.0
H154 H 0.74979 0.21495 0.27788 0.0
H155 H 0.77317 0.21796 0.43851 0.0
H156 H 0.8169 0.28504 0.39474 0.0
H157 H 0.7861 0.2532 0.4188 0.0
H158 H 0.78537 0.22873 0.26092 0.0
H159 H 0.81577 0.2609 0.23629 0.0
C160 C 0.73015 0.19109 0.33203 0.0
C161 C 0.72723 0.18308 0.3844 0.0
C162 C 0.74832 0.2089 0.31817 0.0
C163 C 0.76408 0.21903 0.35623 0.0
C164 C 0.76125 0.21079 0.40841 0.0
C165 C 0.743 0.19307 0.42239 0.0
C166 C 0.8102 0.27284 0.36521 0.0
C167 C 0.81874 0.27553 0.31354 0.0
C168 C 0.79259 0.2545 0.37912 0.0
C169 C 0.78319 0.23834 0.34183 0.0
C170 C 0.79196 0.24095 0.29038 0.0
C171 C 0.80948 0.25936 0.27634 0.0
H172 H 0.55126 0.81128 0.52724 0.0
H173 H 0.53444 0.81664 0.69011 0.0
H174 H 0.55194 0.78031 0.55194 0.0
H175 H 0.5344 0.78529 0.71444 0.0
H176 H 0.55447 0.73906 0.75415 0.0
H177 H 0.55606 0.77113 0.72924 0.0
H178 H 0.5294 0.74533 0.57453 0.0
H179 H 0.52851 0.71357 0.59879 0.0
C180 C 0.54763 0.8058 0.56828 0.0
C181 C 0.54279 0.81642 0.6067 0.0
C182 C 0.54789 0.78795 0.5824 0.0
C183 C 0.54316 0.78021 0.63518 0.0
C184 C 0.53843 0.79094 0.67364 0.0
C185 C 0.53833 0.80887 0.65961 0.0
C186 C 0.54901 0.74027 0.71475 0.0
C187 C 0.54137 0.72377 0.67845 0.0
C188 C 0.54981 0.75863 0.70056 0.0
C189 C 0.54282 0.76086 0.64987 0.0
C190 C 0.53523 0.74432 0.61355 0.0
C191 C 0.53459 0.72603 0.6276 0.0
H192 H 0.72927 0.55341 0.94804 0.0
H193 H 0.74092 0.52263 0.81769 0.0
H194 H 0.75802 0.55526 0.99797 0.0
H195 H 0.76924 0.52389 0.86821 0.0
H196 H 0.83077 0.54641 0.95028 0.0
H197 H 0.80321 0.54675 0.89965 0.0
H198 H 0.76754 0.53364 0.04553 0.0
H199 H 0.79535 0.53395 0.09634 0.0
C200 C 0.73793 0.54698 0.9301 0.0
C201 C 0.73281 0.53787 0.87889 0.0
C202 C 0.75435 0.54793 0.95887 0.0
C203 C 0.76596 0.53968 0.93724 0.0
C204 C 0.76087 0.53068 0.88583 0.0
C205 C 0.74453 0.52984 0.85695 0.0
C206 C 0.81706 0.54366 0.97156 0.0
C207 C 0.81525 0.54014 0.02733 0.0
C208 C 0.8012 0.54374 0.94247 0.0
C209 C 0.78309 0.54017 0.96841 0.0
C210 C 0.78136 0.53675 0.02431 0.0
C211 C 0.79728 0.5368 0.05343 0.0
H212 H 0.19959 0.73498 0.22332 0.0
H213 H 0.17041 0.72512 0.37868 0.0
H214 H 0.22966 0.76543 0.25775 0.0
H215 H 0.20012 0.75607 0.41266 0.0
H216 H 0.26491 0.79942 0.47288 0.0
H217 H 0.23463 0.76917 0.43852 0.0
H218 H 0.24215 0.79961 0.28572 0.0
H219 H 0.27295 0.82952 0.31955 0.0
C220 C 0.19952 0.73945 0.26472 0.0
C221 C 0.18265 0.72761 0.29831 0.0
C222 C 0.21673 0.75701 0.28442 0.0
C223 C 0.21739 0.76329 0.33807 0.0
C224 C 0.20035 0.75153 0.37144 0.0
C225 C 0.18324 0.73384 0.35187 0.0
C226 C 0.26007 0.79965 0.43197 0.0
C227 C 0.27136 0.81684 0.39889 0.0
C228 C 0.24261 0.78234 0.41231 0.0
C229 C 0.23586 0.78187 0.35925 0.0
C230 C 0.24705 0.79923 0.32644 0.0
C231 C 0.26466 0.81645 0.34594 0.0
H232 H 0.44638 0.27564 0.65441 0.0
H233 H 0.46791 0.26455 0.80486 0.0
H234 H 0.44554 0.24551 0.6156 0.0
H235 H 0.46788 0.23491 0.76556 0.0
H236 H 0.4476 0.17188 0.69633 0.0
H237 H 0.44637 0.20094 0.73524 0.0
H238 H 0.4674 0.23357 0.58446 0.0
H239 H 0.46781 0.20417 0.5451 0.0
C240 C 0.45104 0.26682 0.67911 0.0
C241 C 0.4572 0.27247 0.73271 0.0
C242 C 0.45069 0.2496 0.65676 0.0
C243 C 0.4567 0.23774 0.68731 0.0
C244 C 0.46282 0.24343 0.74103 0.0
C245 C 0.46296 0.26052 0.76352 0.0
C246 C 0.4519 0.18524 0.67149 0.0
C247 C 0.45779 0.18571 0.61764 0.0
C248 C 0.45132 0.20198 0.69388 0.0
C249 C 0.45684 0.21969 0.66312 0.0
C250 C 0.46271 0.2201 0.60918 0.0
C251 C 0.46308 0.20327 0.58664 0.0
H252 H 0.13096 0.61083 0.09949 0.0
H253 H 0.15356 0.62285 0.26296 0.0
H254 H 0.13597 0.5814 0.09589 0.0
H255 H 0.15901 0.59351 0.25888 0.0
H256 H 0.13285 0.5227 0.25288 0.0
H257 H 0.1365 0.55662 0.25772 0.0
H258 H 0.16014 0.56915 0.09534 0.0
H259 H 0.15604 0.53496 0.08998 0.0
C260 C 0.13734 0.60742 0.1344 0.0
C261 C 0.14164 0.6191 0.18172 0.0
C262 C 0.14037 0.59059 0.13218 0.0
C263 C 0.1478 0.58501 0.1772 0.0
C264 C 0.15299 0.59723 0.22375 0.0
C265 C 0.14996 0.61411 0.22597 0.0
C266 C 0.13913 0.53278 0.21845 0.0
C267 C 0.14389 0.52598 0.17078 0.0
C268 C 0.14135 0.55232 0.22136 0.0
C269 C 0.14842 0.56556 0.17671 0.0
C270 C 0.1543 0.55919 0.13011 0.0
C271 C 0.15205 0.53962 0.12716 0.0
H272 H 0.52336 0.1348 0.41259 0.0
H273 H 0.53315 0.15743 0.57598 0.0
H274 H 0.55744 0.13883 0.41135 0.0
H275 H 0.56761 0.16198 0.57421 0.0
H276 H 0.61098 0.13445 0.57361 0.0
H277 H 0.58124 0.13905 0.57557 0.0
H278 H 0.59387 0.16173 0.41225 0.0
H279 H 0.62337 0.15659 0.40976 0.0
C280 C 0.53293 0.14102 0.44796 0.0
C281 C 0.52541 0.14557 0.4946 0.0
C282 C 0.55258 0.14348 0.4471 0.0
C283 C 0.56526 0.15062 0.49281 0.0
C284 C 0.55812 0.15613 0.5386 0.0
C285 C 0.53841 0.15363 0.5395 0.0
C286 C 0.60762 0.14072 0.53834 0.0
C287 C 0.61942 0.14489 0.49128 0.0
C288 C 0.5906 0.14349 0.53959 0.0
C289 C 0.58502 0.15058 0.49388 0.0
C290 C 0.59752 0.15587 0.44783 0.0
C291 C 0.6145 0.15303 0.44651 0.0
H292 H 0.46423 0.61855 0.72552 0.0
H293 H 0.48085 0.61391 0.88924 0.0
H294 H 0.42998 0.58938 0.74086 0.0
H295 H 0.4469 0.58458 0.90407 0.0
H296 H 0.38133 0.53703 0.92784 0.0
H297 H 0.41038 0.57128 0.91178 0.0
H298 H 0.41694 0.55301 0.75157 0.0
H299 H 0.38772 0.51904 0.76706 0.0
C300 C 0.46052 0.61149 0.76497 0.0
C301 C 0.47538 0.61843 0.80596 0.0
C302 C 0.44091 0.5947 0.77366 0.0
C303 C 0.43574 0.5845 0.82351 0.0
C304 C 0.45025 0.59217 0.86533 0.0
C305 C 0.46982 0.60894 0.85668 0.0
C306 C 0.38874 0.54043 0.88885 0.0
C307 C 0.38233 0.52519 0.84896 0.0
C308 C 0.40547 0.56004 0.87976 0.0
C309 C 0.41614 0.56485 0.8306 0.0
C310 C 0.40898 0.54994 0.78973 0.0
C311 C 0.39228 0.53036 0.79877 0.0
H312 H 0.86595 0.38942 0.11527 0.0
H313 H 0.84308 0.37872 0.27848 0.0
H314 H 0.86039 0.41849 0.10856 0.0
H315 H 0.83704 0.40758 0.27124 0.0
H316 H 0.8635 0.47814 0.26296 0.0
H317 H 0.85973 0.44423 0.26899 0.0
H318 H 0.83659 0.43126 0.10613 0.0
H319 H 0.84082 0.46552 0.09959 0.0
C320 C 0.85933 0.39299 0.14937 0.0
C321 C 0.85524 0.38189 0.19767 0.0
C322 C 0.856 0.40962 0.14539 0.0
C323 C 0.84845 0.41552 0.18956 0.0
C324 C 0.84322 0.40367 0.23679 0.0
C325 C 0.84658 0.38705 0.24083 0.0
C326 C 0.85732 0.46799 0.22863 0.0
C327 C 0.85271 0.47467 0.18055 0.0
C328 C 0.85501 0.44843 0.23224 0.0
C329 C 0.84799 0.43504 0.1879 0.0
C330 C 0.84234 0.44132 0.14074 0.0
C331 C 0.84466 0.46092 0.13711 0.0
H332 H 0.4761 0.86782 0.42223 0.0
H333 H 0.46705 0.8451 0.58544 0.0
H334 H 0.44203 0.86389 0.42256 0.0
H335 H 0.43266 0.84064 0.58522 0.0
H336 H 0.3899 0.8685 0.58957 0.0
H337 H 0.41969 0.86404 0.58836 0.0
H338 H 0.40539 0.84132 0.42527 0.0
H339 H 0.37574 0.8463 0.42598 0.0
C340 C 0.46669 0.86158 0.45784 0.0
C341 C 0.47444 0.85703 0.50406 0.0
C342 C 0.44705 0.8592 0.4579 0.0
C343 C 0.43464 0.85212 0.50411 0.0
C344 C 0.44196 0.84648 0.5493 0.0
C345 C 0.46164 0.84894 0.54931 0.0
C346 C 0.39291 0.8623 0.55363 0.0
C347 C 0.38053 0.85798 0.50766 0.0
C348 C 0.40996 0.85959 0.55307 0.0
C349 C 0.41504 0.85242 0.50659 0.0
C350 C 0.4021 0.84718 0.46144 0.0
C351 C 0.38503 0.84992 0.46196 0.0
H352 H 0.63059 0.45945 0.78759 0.0
H353 H 0.60514 0.48139 0.90914 0.0
H354 H 0.60026 0.42533 0.79381 0.0
H355 H 0.57483 0.44764 0.91436 0.0
H356 H 0.52681 0.38271 0.93912 0.0
H357 H 0.56119 0.41253 0.94076 0.0
H358 H 0.56456 0.40978 0.76765 0.0
H359 H 0.53041 0.37962 0.76613 0.0
C360 C 0.61864 0.45697 0.81596 0.0
C361 C 0.62025 0.4732 0.84761 0.0
C362 C 0.60121 0.43745 0.8193 0.0
C363 C 0.58506 0.43374 0.85442 0.0
C364 C 0.58707 0.44982 0.88741 0.0
C365 C 0.60443 0.46927 0.88411 0.0
C366 C 0.535 0.38826 0.90147 0.0
C367 C 0.52575 0.37892 0.85242 0.0
C368 C 0.55468 0.40544 0.90239 0.0
C369 C 0.56554 0.41375 0.85429 0.0
C370 C 0.55672 0.40372 0.80552 0.0
C371 C 0.53707 0.38647 0.80461 0.0
H372 H 0.05047 0.41831 0.06094 0.0
H373 H 0.05502 0.39658 0.21843 0.0
H374 H 0.01383 0.39429 0.06008 0.0
H375 H 0.01826 0.37205 0.21696 0.0
H376 H 0.95115 0.3599 0.22625 0.0
H377 H 0.98826 0.37547 0.22528 0.0
H378 H 0.9861 0.35945 0.0575 0.0
H379 H 0.94891 0.34432 0.05809 0.0
C380 C 0.04373 0.40809 0.09494 0.0
C381 C 0.05564 0.40958 0.14008 0.0
C382 C 0.02268 0.39417 0.09429 0.0
C383 C 0.01302 0.38132 0.13868 0.0
C384 C 0.02516 0.38197 0.1825 0.0
C385 C 0.04625 0.39595 0.18321 0.0
C386 C 0.95852 0.35937 0.18934 0.0
C387 C 0.94707 0.35115 0.14202 0.0
C388 C 0.97985 0.36821 0.18887 0.0
C389 C 0.99023 0.36894 0.14112 0.0
C390 C 0.97863 0.3595 0.09469 0.0
C391 C 0.95729 0.35073 0.09511 0.0
H392 H 0.65722 0.05566 0.56366 0.0
H393 H 0.63292 0.04741 0.40233 0.0
H394 H 0.64369 0.01877 0.57089 0.0
H395 H 0.61899 0.01064 0.41005 0.0
H396 H 0.60103 0.94502 0.42606 0.0
H397 H 0.6245 0.98187 0.41844 0.0
H398 H 0.60942 0.99016 0.58082 0.0
H399 H 0.58646 0.95342 0.58889 0.0
C400 C 0.64925 0.04603 0.52946 0.0
C401 C 0.64591 0.05446 0.48268 0.0
C402 C 0.6414 0.02487 0.53373 0.0
C403 C 0.63003 0.01168 0.49133 0.0
C404 C 0.62782 0.0203 0.44336 0.0
C405 C 0.63569 0.04143 0.43906 0.0
C406 C 0.60304 0.95467 0.46049 0.0
C407 C 0.59166 0.9463 0.50784 0.0
C408 C 0.61641 0.97581 0.45601 0.0
C409 C 0.61867 0.98903 0.49876 0.0
C410 C 0.60823 0.98046 0.54722 0.0
C411 C 0.59492 0.95935 0.55173 0.0
H412 H 0.60369 0.6551 0.78 0.0
H413 H 0.59058 0.63936 0.94813 0.0
H414 H 0.62834 0.64301 0.78114 0.0
H415 H 0.61462 0.62677 0.94888 0.0
H416 H 0.66452 0.61186 0.94772 0.0
H417 H 0.64918 0.63371 0.94317 0.0
H418 H 0.62546 0.60987 0.78491 0.0
H419 H 0.64129 0.58859 0.78877 0.0
C420 C 0.60623 0.64929 0.81734 0.0
C421 C 0.59499 0.64799 0.86382 0.0
C422 C 0.62028 0.64224 0.81792 0.0
C423 C 0.62336 0.63372 0.86495 0.0
C424 C 0.61287 0.63344 0.91207 0.0
C425 C 0.59892 0.64054 0.91154 0.0
C426 C 0.65637 0.61159 0.91153 0.0
C427 C 0.65389 0.59826 0.86893 0.0
C428 C 0.64747 0.62403 0.90904 0.0
C429 C 0.63581 0.62335 0.86402 0.0
C430 C 0.63445 0.61096 0.82006 0.0
C431 C 0.64344 0.59862 0.82242 0.0
H432 H 0.94854 0.59258 0.23253 0.0
H433 H 0.93969 0.60141 0.06497 0.0
H434 H 0.98542 0.61349 0.22108 0.0
H435 H 0.9767 0.62294 0.05385 0.0
H436 H 0.04058 0.62804 0.04025 0.0
H437 H 0.00416 0.6157 0.0497 0.0
H438 H 0.0152 0.6461 0.20373 0.0
H439 H 0.05176 0.65799 0.19492 0.0
C440 C 0.95443 0.59938 0.19349 0.0
C441 C 0.94116 0.59505 0.14945 0.0
C442 C 0.97564 0.61152 0.18699 0.0
C443 C 0.9841 0.61974 0.13635 0.0
C444 C 0.97073 0.61651 0.09315 0.0
C445 C 0.9495 0.60426 0.09959 0.0
C446 C 0.03532 0.63237 0.07584 0.0
C447 C 0.04907 0.64378 0.11715 0.0
C448 C 0.01439 0.6254 0.08109 0.0
C449 C 0.00666 0.62976 0.12769 0.0
C450 C 0.02058 0.64216 0.16772 0.0
C451 C 0.04156 0.64908 0.16254 0.0
H452 H 0.39816 0.05595 0.4281 0.0
H453 H 0.41562 0.05081 0.59048 0.0
H454 H 0.37465 0.01899 0.42586 0.0
H455 H 0.39262 0.01395 0.58774 0.0
H456 H 0.34441 0.9482 0.58072 0.0
H457 H 0.35824 0.98523 0.58331 0.0
H458 H 0.3799 0.99002 0.42 0.0
H459 H 0.36566 0.95311 0.41695 0.0
C460 C 0.39679 0.047 0.46357 0.0
C461 C 0.40897 0.05631 0.50923 0.0
C462 C 0.3834 0.02579 0.46217 0.0
C463 C 0.38191 0.01343 0.50636 0.0
C464 C 0.3932 0.02296 0.55313 0.0
C465 C 0.40653 0.04414 0.55457 0.0
C466 C 0.35178 0.95712 0.54503 0.0
C467 C 0.35417 0.94772 0.49886 0.0
C468 C 0.35981 0.97836 0.54662 0.0
C469 C 0.3704 0.99066 0.50211 0.0
C470 C 0.37168 0.98106 0.45489 0.0
C471 C 0.36362 0.95985 0.45326 0.0
H472 H 0.41134 0.35984 0.92543 0.0
H473 H 0.39608 0.33652 0.76306 0.0
H474 H 0.39048 0.37595 0.91552 0.0
H475 H 0.37462 0.35215 0.75367 0.0
H476 H 0.36939 0.4106 0.73264 0.0
H477 H 0.38197 0.38675 0.74329 0.0
H478 H 0.35742 0.37293 0.90475 0.0
H479 H 0.3453 0.39738 0.89457 0.0
C480 C 0.40316 0.35775 0.88798 0.0
C481 C 0.40564 0.34714 0.84475 0.0
C482 C 0.39105 0.3669 0.8824 0.0
C483 C 0.38101 0.36556 0.83356 0.0
C484 C 0.38246 0.35384 0.79148 0.0
C485 C 0.39467 0.34477 0.79697 0.0
C486 C 0.3664 0.40229 0.77021 0.0
C487 C 0.35657 0.40611 0.813 0.0
C488 C 0.3735 0.38844 0.77619 0.0
C489 C 0.37085 0.37798 0.82505 0.0
C490 C 0.36003 0.38098 0.8669 0.0
C491 C 0.35298 0.39491 0.86096 0.0
loop_
_geom_bond_atom_site_label_1
_geom_bond_atom_site_label_2
_geom_bond_distance
_geom_bond_site_symmetry_2
_ccdc_geom_bond_type
O0 Cd1 2.300 . S
O0 C7 1.275 . S
Cd1 O0 2.300 . S
Cd1 O9 2.381 . S
Cd1 O10 2.378 . S
O2 Cd3 2.385 . S
O2 C7 1.255 . S
Cd3 O2 2.385 . S
Cd3 O4 2.317 . S
O4 Cd3 2.317 . S
O4 C5 1.232 . S
C5 O4 1.232 . S
C5 O6 1.218 . S
O6 C5 1.218 . S
C7 O0 1.275 . S
C7 O2 1.255 . S
C8 O9 1.258 . S
C8 O10 1.256 . S
O9 Cd1 2.381 . S
O9 C8 1.258 . S
O10 Cd1 2.378 . S
O10 C8 1.256 . S
O11 Cd12 2.300 . S
O11 C18 1.275 . S
Cd12 O11 2.300 . S
Cd12 O20 2.381 . S
Cd12 O21 2.378 . S
O13 Cd14 2.385 . S
O13 C18 1.255 . S
Cd14 O13 2.385 . S
Cd14 O15 2.317 . S
O15 Cd14 2.317 . S
O15 C16 1.232 . S
C16 O15 1.232 . S
C16 O17 1.218 . S
O17 C16 1.218 . S
C18 O11 1.275 . S
C18 O13 1.255 . S
C19 O20 1.258 . S
C19 O21 1.256 . S
O20 Cd12 2.381 . S
O20 C19 1.258 . S
O21 Cd12 2.378 . S
O21 C19 1.256 . S
O22 Cd23 2.300 . S
O22 C29 1.275 . S
Cd23 O22 2.300 . S
Cd23 O31 2.381 . S
Cd23 O32 2.378 . S
O24 Cd25 2.385 . S
O24 C29 1.255 . S
Cd25 O24 2.385 . S
Cd25 O26 2.317 . S
O26 Cd25 2.317 . S
O26 C27 1.232 . S
C27 O26 1.232 . S
C27 O28 1.218 . S
O28 C27 1.218 . S
C29 O22 1.275 . S
C29 O24 1.255 . S
C30 O31 1.258 . S
C30 O32 1.256 . S
O31 Cd23 2.381 . S
O31 C30 1.258 . S
O32 Cd23 2.378 . S
O32 C30 1.256 . S
O33 Cd34 2.300 . S
O33 C40 1.275 . S
Cd34 O33 2.300 . S
Cd34 O42 2.381 . S
Cd34 O43 2.378 . S
O35 Cd36 2.385 . S
O35 C40 1.255 . S
Cd36 O35 2.385 . S
Cd36 O37 2.317 . S
O37 Cd36 2.317 . S
O37 C38 1.232 . S
C38 O37 1.232 . S
C38 O39 1.218 . S
O39 C38 1.218 . S
C40 O33 1.275 . S
C40 O35 1.255 . S
C41 O42 1.258 . S
C41 O43 1.256 . S
O42 Cd34 2.381 . S
O42 C41 1.258 . S
O43 Cd34 2.378 . S
O43 C41 1.256 . S
O44 Cd45 2.300 . S
O44 C51 1.275 . S
Cd45 O44 2.300 . S
Cd45 O53 2.381 . S
Cd45 O54 2.378 . S
O46 Cd47 2.385 . S
O46 C51 1.255 . S
Cd47 O46 2.385 . S
Cd47 O48 2.317 . S
O48 Cd47 2.317 . S
O48 C49 1.232 . S
C49 O48 1.232 . S
C49 O50 1.218 . S
O50 C49 1.218 . S
C51 O44 1.275 . S
C51 O46 1.255 . S
C52 O53 1.258 . S
C52 O54 1.256 . S
O53 Cd45 2.381 . S
O53 C52 1.258 . S
O54 Cd45 2.378 . S
O54 C52 1.256 . S
O55 Cd56 2.300 . S
O55 C62 1.275 . S
Cd56 O55 2.300 . S
Cd56 O64 2.381 . S
Cd56 O65 2.378 . S
O57 Cd58 2.385 . S
O57 C62 1.255 . S
Cd58 O57 2.385 . S
Cd58 O59 2.317 . S
O59 Cd58 2.317 . S
O59 C60 1.232 . S
C60 O59 1.232 . S
C60 O61 1.218 . S
O61 C60 1.218 . S
C62 O55 1.275 . S
C62 O57 1.255 . S
C63 O64 1.258 . S
C63 O65 1.256 . S
O64 Cd56 2.381 . S
O64 C63 1.258 . S
O65 Cd56 2.378 . S
O65 C63 1.256 . S
O66 Cd67 2.300 . S
O66 C73 1.275 . S
Cd67 O66 2.300 . S
Cd67 O75 2.381 . S
Cd67 O76 2.378 . S
O68 Cd69 2.385 . S
O68 C73 1.255 . S
Cd69 O68 2.385 . S
Cd69 O70 2.317 . S
O70 Cd69 2.317 . S
O70 C71 1.232 . S
C71 O70 1.232 . S
C71 O72 1.218 . S
O72 C71 1.218 . S
C73 O66 1.275 . S
C73 O68 1.255 . S
C74 O75 1.258 . S
C74 O76 1.256 . S
O75 Cd67 2.381 . S
O75 C74 1.258 . S
O76 Cd67 2.378 . S
O76 C74 1.256 . S
O77 Cd78 2.300 . S
O77 C84 1.275 . S
Cd78 O77 2.300 . S
Cd78 O86 2.381 . S
Cd78 O87 2.378 . S
O79 Cd80 2.385 . S
O79 C84 1.255 . S
Cd80 O79 2.385 . S
Cd80 O81 2.317 . S
O81 Cd80 2.317 . S
O81 C82 1.232 . S
C82 O81 1.232 . S
C82 O83 1.218 . S
O83 C82 1.218 . S
C84 O77 1.275 . S
C84 O79 1.255 . S
C85 O86 1.258 . S
C85 O87 1.256 . S
O86 Cd78 2.381 . S
O86 C85 1.258 . S
O87 Cd78 2.378 . S
O87 C85 1.256 . S
O88 Cd89 2.300 . S
O88 C95 1.275 . S
Cd89 O88 2.300 . S
Cd89 O97 2.381 . S
Cd89 O98 2.378 . S
O90 Cd91 2.385 . S
O90 C95 1.255 . S
Cd91 O90 2.385 . S
Cd91 O92 2.317 . S
O92 Cd91 2.317 . S
O92 C93 1.232 . S
C93 O92 1.232 . S
C93 O94 1.218 . S
O94 C93 1.218 . S
C95 O88 1.275 . S
C95 O90 1.255 . S
C96 O97 1.258 . S
C96 O98 1.256 . S
O97 Cd89 2.381 . S
O97 C96 1.258 . S
O98 Cd89 2.378 . S
O98 C96 1.256 . S
O99 Cd100 2.300 . S
O99 C106 1.275 . S
Cd100 O99 2.300 . S
Cd100 O108 2.381 . S
Cd100 O109 2.378 . S
O101 Cd102 2.385 . S
O101 C106 1.255 . S
Cd102 O101 2.385 . S
Cd102 O103 2.317 . S
O103 Cd102 2.317 . S
O103 C104 1.232 . S
C104 O103 1.232 . S
C104 O105 1.218 . S
O105 C104 1.218 . S
C106 O99 1.275 . S
C106 O101 1.255 . S
C107 O108 1.258 . S
C107 O109 1.256 . S
O108 Cd100 2.381 . S
O108 C107 1.258 . S
O109 Cd100 2.378 . S
O109 C107 1.256 . S
O110 Cd111 2.300 . S
O110 C117 1.275 . S
Cd111 O110 2.300 . S
Cd111 O119 2.381 . S
Cd111 O120 2.378 . S
O112 Cd113 2.385 . S
O112 C117 1.255 . S
Cd113 O112 2.385 . S
Cd113 O114 2.317 . S
O114 Cd113 2.317 . S
O114 C115 1.232 . S
C115 O114 1.232 . S
C115 O116 1.218 . S
O116 C115 1.218 . S
C117 O110 1.275 . S
C117 O112 1.255 . S
C118 O119 1.258 . S
C118 O120 1.256 . S
O119 Cd111 2.381 . S
O119 C118 1.258 . S
O120 Cd111 2.378 . S
O120 C118 1.256 . S
O121 Cd122 2.300 . S
O121 C128 1.275 . S
Cd122 O121 2.300 . S
Cd122 O130 2.381 . S
Cd122 O131 2.378 . S
O123 Cd124 2.385 . S
O123 C128 1.255 . S
Cd124 O123 2.385 . S
Cd124 O125 2.317 . S
O125 Cd124 2.317 . S
O125 C126 1.232 . S
C126 O125 1.232 . S
C126 O127 1.218 . S
O127 C126 1.218 . S
C128 O121 1.275 . S
C128 O123 1.255 . S
C129 O130 1.258 . S
C129 O131 1.256 . S
O130 Cd122 2.381 . S
O130 C129 1.258 . S
O131 Cd122 2.378 . S
O131 C129 1.256 . S
H132 C140 0.950 . S
H133 C145 0.950 . S
H134 C142 0.950 . S
H135 C144 0.950 . S
H136 C146 0.950 . S
H137 C148 0.950 . S
H138 C150 0.950 . S
H139 C151 0.950 . S
C140 H132 0.950 . S
C140 C141 1.386 . S
C140 C142 1.391 1_556 S
C141 C140 1.386 . S
C141 C145 1.393 . S
C142 H134 0.950 . S
C142 C140 1.391 1_554 S
C142 C143 1.400 1_554 S
C143 C142 1.400 1_556 S
C143 C144 1.398 . S
C143 C149 1.491 1_556 S
C144 H135 0.950 . S
C144 C143 1.398 . S
C144 C145 1.391 . S
C145 H133 0.950 . S
C145 C141 1.393 . S
C145 C144 1.391 . S
C146 H136 0.950 . S
C146 C147 1.386 . S
C146 C148 1.391 1_554 S
C147 C146 1.386 . S
C147 C151 1.393 . S
C148 H137 0.950 . S
C148 C146 1.391 1_556 S
C148 C149 1.400 1_556 S
C149 C143 1.491 1_554 S
C149 C148 1.400 1_554 S
C149 C150 1.398 . S
C150 H138 0.950 . S
C150 C149 1.398 . S
C150 C151 1.391 . S
C151 H139 0.950 . S
C151 C147 1.393 . S
C151 C150 1.391 . S
H152 C160 0.950 . S
H153 C165 0.950 . S
H154 C162 0.950 . S
H155 C164 0.950 . S
H156 C166 0.950 . S
H157 C168 0.950 . S
H158 C170 0.950 . S
H159 C171 0.950 . S
C160 H152 0.950 . S
C160 C161 1.386 . S
C160 C162 1.391 . S
C161 C160 1.386 . S
C161 C165 1.393 . S
C162 H154 0.950 . S
C162 C160 1.391 . S
C162 C163 1.400 . S
C163 C162 1.400 . S
C163 C164 1.398 . S
C163 C169 1.491 . S
C164 H155 0.950 . S
C164 C163 1.398 . S
C164 C165 1.391 . S
C165 H153 0.950 . S
C165 C161 1.393 . S
C165 C164 1.391 . S
C166 H156 0.950 . S
C166 C167 1.386 . S
C166 C168 1.391 . S
C167 C166 1.386 . S
C167 C171 1.393 . S
C168 H157 0.950 . S
C168 C166 1.391 . S
C168 C169 1.400 . S
C169 C163 1.491 . S
C169 C168 1.400 . S
C169 C170 1.398 . S
C170 H158 0.950 . S
C170 C169 1.398 . S
C170 C171 1.391 . S
C171 H159 0.950 . S
C171 C167 1.393 . S
C171 C170 1.391 . S
H172 C180 0.950 . S
H173 C185 0.950 . S
H174 C182 0.950 . S
H175 C184 0.950 . S
H176 C186 0.950 . S
H177 C188 0.950 . S
H178 C190 0.950 . S
H179 C191 0.950 . S
C180 H172 0.950 . S
C180 C181 1.386 . S
C180 C182 1.391 . S
C181 C180 1.386 . S
C181 C185 1.393 . S
C182 H174 0.950 . S
C182 C180 1.391 . S
C182 C183 1.400 . S
C183 C182 1.400 . S
C183 C184 1.398 . S
C183 C189 1.491 . S
C184 H175 0.950 . S
C184 C183 1.398 . S
C184 C185 1.391 . S
C185 H173 0.950 . S
C185 C181 1.393 . S
C185 C184 1.391 . S
C186 H176 0.950 . S
C186 C187 1.386 . S
C186 C188 1.391 . S
C187 C186 1.386 . S
C187 C191 1.393 . S
C188 H177 0.950 . S
C188 C186 1.391 . S
C188 C189 1.400 . S
C189 C183 1.491 . S
C189 C188 1.400 . S
C189 C190 1.398 . S
C190 H178 0.950 . S
C190 C189 1.398 . S
C190 C191 1.391 . S
C191 H179 0.950 . S
C191 C187 1.393 . S
C191 C190 1.391 . S
H192 C200 0.950 . S
H193 C205 0.950 . S
H194 C202 0.950 1_554 S
H195 C204 0.950 . S
H196 C206 0.950 . S
H197 C208 0.950 1_556 S
H198 C210 0.950 . S
H199 C211 0.950 . S
C200 H192 0.950 . S
C200 C201 1.386 . S
C200 C202 1.391 . S
C201 C200 1.386 . S
C201 C205 1.393 . S
C202 H194 0.950 1_556 S
C202 C200 1.391 . S
C202 C203 1.400 . S
C203 C202 1.400 . S
C203 C204 1.398 . S
C203 C209 1.491 1_556 S
C204 H195 0.950 . S
C204 C203 1.398 . S
C204 C205 1.391 . S
C205 H193 0.950 . S
C205 C201 1.393 . S
C205 C204 1.391 . S
C206 H196 0.950 . S
C206 C207 1.386 . S
C206 C208 1.391 . S
C207 C206 1.386 . S
C207 C211 1.393 . S
C208 H197 0.950 1_554 S
C208 C206 1.391 . S
C208 C209 1.400 . S
C209 C203 1.491 1_554 S
C209 C208 1.400 . S
C209 C210 1.398 . S
C210 H198 0.950 . S
C210 C209 1.398 . S
C210 C211 1.391 . S
C211 H199 0.950 . S
C211 C207 1.393 . S
C211 C210 1.391 . S
H212 C220 0.950 . S
H213 C225 0.950 . S
H214 C222 0.950 . S
H215 C224 0.950 . S
H216 C226 0.950 . S
H217 C228 0.950 . S
H218 C230 0.950 . S
H219 C231 0.950 . S
C220 H212 0.950 . S
C220 C221 1.386 . S
C220 C222 1.391 . S
C221 C220 1.386 . S
C221 C225 1.393 . S
C222 H214 0.950 . S
C222 C220 1.391 . S
C222 C223 1.400 . S
C223 C222 1.400 . S
C223 C224 1.398 . S
C223 C229 1.491 . S
C224 H215 0.950 . S
C224 C223 1.398 . S
C224 C225 1.391 . S
C225 H213 0.950 . S
C225 C221 1.393 . S
C225 C224 1.391 . S
C226 H216 0.950 . S
C226 C227 1.386 . S
C226 C228 1.391 . S
C227 C226 1.386 . S
C227 C231 1.393 . S
C228 H217 0.950 . S
C228 C226 1.391 . S
C228 C229 1.400 . S
C229 C223 1.491 . S
C229 C228 1.400 . S
C229 C230 1.398 . S
C230 H218 0.950 . S
C230 C229 1.398 . S
C230 C231 1.391 . S
C231 H219 0.950 . S
C231 C227 1.393 . S
C231 C230 1.391 . S
H232 C240 0.950 . S
H233 C245 0.950 . S
H234 C242 0.950 . S
H235 C244 0.950 . S
H236 C246 0.950 . S
H237 C248 0.950 . S
H238 C250 0.950 . S
H239 C251 0.950 . S
C240 H232 0.950 . S
C240 C241 1.386 . S
C240 C242 1.391 . S
C241 C240 1.386 . S
C241 C245 1.393 . S
C242 H234 0.950 . S
C242 C240 1.391 . S
C242 C243 1.400 . S
C243 C242 1.400 . S
C243 C244 1.398 . S
C243 C249 1.491 . S
C244 H235 0.950 . S
C244 C243 1.398 . S
C244 C245 1.391 . S
C245 H233 0.950 . S
C245 C241 1.393 . S
C245 C244 1.391 . S
C246 H236 0.950 . S
C246 C247 1.386 . S
C246 C248 1.391 . S
C247 C246 1.386 . S
C247 C251 1.393 . S
C248 H237 0.950 . S
C248 C246 1.391 . S
C248 C249 1.400 . S
C249 C243 1.491 . S
C249 C248 1.400 . S
C249 C250 1.398 . S
C250 H238 0.950 . S
C250 C249 1.398 . S
C250 C251 1.391 . S
C251 H239 0.950 . S
C251 C247 1.393 . S
C251 C250 1.391 . S
H252 C260 0.950 . S
H253 C265 0.950 . S
H254 C262 0.950 . S
H255 C264 0.950 . S
H256 C266 0.950 . S
H257 C268 0.950 . S
H258 C270 0.950 . S
H259 C271 0.950 . S
C260 H252 0.950 . S
C260 C261 1.386 . S
C260 C262 1.391 . S
C261 C260 1.386 . S
C261 C265 1.393 . S
C262 H254 0.950 . S
C262 C260 1.391 . S
C262 C263 1.400 . S
C263 C262 1.400 . S
C263 C264 1.398 . S
C263 C269 1.491 . S
C264 H255 0.950 . S
C264 C263 1.398 . S
C264 C265 1.391 . S
C265 H253 0.950 . S
C265 C261 1.393 . S
C265 C264 1.391 . S
C266 H256 0.950 . S
C266 C267 1.386 . S
C266 C268 1.391 . S
C267 C266 1.386 . S
C267 C271 1.393 . S
C268 H257 0.950 . S
C268 C266 1.391 . S
C268 C269 1.400 . S
C269 C263 1.491 . S
C269 C268 1.400 . S
C269 C270 1.398 . S
C270 H258 0.950 . S
C270 C269 1.398 . S
C270 C271 1.391 . S
C271 H259 0.950 . S
C271 C267 1.393 . S
C271 C270 1.391 . S
H272 C280 0.950 . S
H273 C285 0.950 . S
H274 C282 0.950 . S
H275 C284 0.950 . S
H276 C286 0.950 . S
H277 C288 0.950 . S
H278 C290 0.950 . S
H279 C291 0.950 . S
C280 H272 0.950 . S
C280 C281 1.386 . S
C280 C282 1.391 . S
C281 C280 1.386 . S
C281 C285 1.393 . S
C282 H274 0.950 . S
C282 C280 1.391 . S
C282 C283 1.400 . S
C283 C282 1.400 . S
C283 C284 1.398 . S
C283 C289 1.491 . S
C284 H275 0.950 . S
C284 C283 1.398 . S
C284 C285 1.391 . S
C285 H273 0.950 . S
C285 C281 1.393 . S
C285 C284 1.391 . S
C286 H276 0.950 . S
C286 C287 1.386 . S
C286 C288 1.391 . S
C287 C286 1.386 . S
C287 C291 1.393 . S
C288 H277 0.950 . S
C288 C286 1.391 . S
C288 C289 1.400 . S
C289 C283 1.491 . S
C289 C288 1.400 . S
C289 C290 1.398 . S
C290 H278 0.950 . S
C290 C289 1.398 . S
C290 C291 1.391 . S
C291 H279 0.950 . S
C291 C287 1.393 . S
C291 C290 1.391 . S
H292 C300 0.950 . S
H293 C305 0.950 . S
H294 C302 0.950 . S
H295 C304 0.950 . S
H296 C306 0.950 . S
H297 C308 0.950 . S
H298 C310 0.950 . S
H299 C311 0.950 . S
C300 H292 0.950 . S
C300 C301 1.386 . S
C300 C302 1.391 . S
C301 C300 1.386 . S
C301 C305 1.393 . S
C302 H294 0.950 . S
C302 C300 1.391 . S
C302 C303 1.400 . S
C303 C302 1.400 . S
C303 C304 1.398 . S
C303 C309 1.491 . S
C304 H295 0.950 . S
C304 C303 1.398 . S
C304 C305 1.391 . S
C305 H293 0.950 . S
C305 C301 1.393 . S
C305 C304 1.391 . S
C306 H296 0.950 . S
C306 C307 1.386 . S
C306 C308 1.391 . S
C307 C306 1.386 . S
C307 C311 1.393 . S
C308 H297 0.950 . S
C308 C306 1.391 . S
C308 C309 1.400 . S
C309 C303 1.491 . S
C309 C308 1.400 . S
C309 C310 1.398 . S
C310 H298 0.950 . S
C310 C309 1.398 . S
C310 C311 1.391 . S
C311 H299 0.950 . S
C311 C307 1.393 . S
C311 C310 1.391 . S
H312 C320 0.950 . S
H313 C325 0.950 . S
H314 C322 0.950 . S
H315 C324 0.950 . S
H316 C326 0.950 . S
H317 C328 0.950 . S
H318 C330 0.950 . S
H319 C331 0.950 . S
C320 H312 0.950 . S
C320 C321 1.386 . S
C320 C322 1.391 . S
C321 C320 1.386 . S
C321 C325 1.393 . S
C322 H314 0.950 . S
C322 C320 1.391 . S
C322 C323 1.400 . S
C323 C322 1.400 . S
C323 C324 1.398 . S
C323 C329 1.491 . S
C324 H315 0.950 . S
C324 C323 1.398 . S
C324 C325 1.391 . S
C325 H313 0.950 . S
C325 C321 1.393 . S
C325 C324 1.391 . S
C326 H316 0.950 . S
C326 C327 1.386 . S
C326 C328 1.391 . S
C327 C326 1.386 . S
C327 C331 1.393 . S
C328 H317 0.950 . S
C328 C326 1.391 . S
C328 C329 1.400 . S
C329 C323 1.491 . S
C329 C328 1.400 . S
C329 C330 1.398 . S
C330 H318 0.950 . S
C330 C329 1.398 . S
C330 C331 1.391 . S
C331 H319 0.950 . S
C331 C327 1.393 . S
C331 C330 1.391 . S
H332 C340 0.950 . S
H333 C345 0.950 . S
H334 C342 0.950 . S
H335 C344 0.950 . S
H336 C346 0.950 . S
H337 C348 0.950 . S
H338 C350 0.950 . S
H339 C351 0.950 . S
C340 H332 0.950 . S
C340 C341 1.386 . S
C340 C342 1.391 . S
C341 C340 1.386 . S
C341 C345 1.393 . S
C342 H334 0.950 . S
C342 C340 1.391 . S
C342 C343 1.400 . S
C343 C342 1.400 . S
C343 C344 1.398 . S
C343 C349 1.491 . S
C344 H335 0.950 . S
C344 C343 1.398 . S
C344 C345 1.391 . S
C345 H333 0.950 . S
C345 C341 1.393 . S
C345 C344 1.391 . S
C346 H336 0.950 . S
C346 C347 1.386 . S
C346 C348 1.391 . S
C347 C346 1.386 . S
C347 C351 1.393 . S
C348 H337 0.950 . S
C348 C346 1.391 . S
C348 C349 1.400 . S
C349 C343 1.491 . S
C349 C348 1.400 . S
C349 C350 1.398 . S
C350 H338 0.950 . S
C350 C349 1.398 . S
C350 C351 1.391 . S
C351 H339 0.950 . S
C351 C347 1.393 . S
C351 C350 1.391 . S
H352 C360 0.950 . S
H353 C365 0.950 . S
H354 C362 0.950 . S
H355 C364 0.950 . S
H356 C366 0.950 . S
H357 C368 0.950 . S
H358 C370 0.950 . S
H359 C371 0.950 . S
C360 H352 0.950 . S
C360 C361 1.386 . S
C360 C362 1.391 . S
C361 C360 1.386 . S
C361 C365 1.393 . S
C362 H354 0.950 . S
C362 C360 1.391 . S
C362 C363 1.400 . S
C363 C362 1.400 . S
C363 C364 1.398 . S
C363 C369 1.491 . S
C364 H355 0.950 . S
C364 C363 1.398 . S
C364 C365 1.391 . S
C365 H353 0.950 . S
C365 C361 1.393 . S
C365 C364 1.391 . S
C366 H356 0.950 . S
C366 C367 1.386 . S
C366 C368 1.391 . S
C367 C366 1.386 . S
C367 C371 1.393 . S
C368 H357 0.950 . S
C368 C366 1.391 . S
C368 C369 1.400 . S
C369 C363 1.491 . S
C369 C368 1.400 . S
C369 C370 1.398 . S
C370 H358 0.950 . S
C370 C369 1.398 . S
C370 C371 1.391 . S
C371 H359 0.950 . S
C371 C367 1.393 . S
C371 C370 1.391 . S
H372 C380 0.950 . S
H373 C385 0.950 . S
H374 C382 0.950 . S
H375 C384 0.950 . S
H376 C386 0.950 . S
H377 C388 0.950 . S
H378 C390 0.950 . S
H379 C391 0.950 . S
C380 H372 0.950 . S
C380 C381 1.386 . S
C380 C382 1.391 . S
C381 C380 1.386 . S
C381 C385 1.393 . S
C382 H374 0.950 . S
C382 C380 1.391 . S
C382 C383 1.400 . S
C383 C382 1.400 . S
C383 C384 1.398 . S
C383 C389 1.491 1_455 S
C384 H375 0.950 . S
C384 C383 1.398 . S
C384 C385 1.391 . S
C385 H373 0.950 . S
C385 C381 1.393 . S
C385 C384 1.391 . S
C386 H376 0.950 . S
C386 C387 1.386 . S
C386 C388 1.391 . S
C387 C386 1.386 . S
C387 C391 1.393 . S
C388 H377 0.950 . S
C388 C386 1.391 . S
C388 C389 1.400 . S
C389 C383 1.491 1_655 S
C389 C388 1.400 . S
C389 C390 1.398 . S
C390 H378 0.950 . S
C390 C389 1.398 . S
C390 C391 1.391 . S
C391 H379 0.950 . S
C391 C387 1.393 . S
C391 C390 1.391 . S
H392 C400 0.950 . S
H393 C405 0.950 . S
H394 C402 0.950 . S
H395 C404 0.950 . S
H396 C406 0.950 . S
H397 C408 0.950 . S
H398 C410 0.950 . S
H399 C411 0.950 . S
C400 H392 0.950 . S
C400 C401 1.386 . S
C400 C402 1.391 . S
C401 C400 1.386 . S
C401 C405 1.393 . S
C402 H394 0.950 . S
C402 C400 1.391 . S
C402 C403 1.400 . S
C403 C402 1.400 . S
C403 C404 1.398 . S
C403 C409 1.491 1_545 S
C404 H395 0.950 . S
C404 C403 1.398 . S
C404 C405 1.391 . S
C405 H393 0.950 . S
C405 C401 1.393 . S
C405 C404 1.391 . S
C406 H396 0.950 . S
C406 C407 1.386 . S
C406 C408 1.391 . S
C407 C406 1.386 . S
C407 C411 1.393 . S
C408 H397 0.950 . S
C408 C406 1.391 . S
C408 C409 1.400 . S
C409 C403 1.491 1_565 S
C409 C408 1.400 . S
C409 C410 1.398 . S
C410 H398 0.950 . S
C410 C409 1.398 . S
C410 C411 1.391 . S
C411 H399 0.950 . S
C411 C407 1.393 . S
C411 C410 1.391 . S
H412 C420 0.950 . S
H413 C425 0.950 . S
H414 C422 0.950 . S
H415 C424 0.950 . S
H416 C426 0.950 . S
H417 C428 0.950 . S
H418 C430 0.950 . S
H419 C431 0.950 . S
C420 H412 0.950 . S
C420 C421 1.386 . S
C420 C422 1.391 . S
C421 C420 1.386 . S
C421 C425 1.393 . S
C422 H414 0.950 . S
C422 C420 1.391 . S
C422 C423 1.400 . S
C423 C422 1.400 . S
C423 C424 1.398 . S
C423 C429 1.491 . S
C424 H415 0.950 . S
C424 C423 1.398 . S
C424 C425 1.391 . S
C425 H413 0.950 . S
C425 C421 1.393 . S
C425 C424 1.391 . S
C426 H416 0.950 . S
C426 C427 1.386 . S
C426 C428 1.391 . S
C427 C426 1.386 . S
C427 C431 1.393 . S
C428 H417 0.950 . S
C428 C426 1.391 . S
C428 C429 1.400 . S
C429 C423 1.491 . S
C429 C428 1.400 . S
C429 C430 1.398 . S
C430 H418 0.950 . S
C430 C429 1.398 . S
C430 C431 1.391 . S
C431 H419 0.950 . S
C431 C427 1.393 . S
C431 C430 1.391 . S
H432 C440 0.950 . S
H433 C445 0.950 . S
H434 C442 0.950 . S
H435 C444 0.950 . S
H436 C446 0.950 . S
H437 C448 0.950 . S
H438 C450 0.950 . S
H439 C451 0.950 . S
C440 H432 0.950 . S
C440 C441 1.386 . S
C440 C442 1.391 . S
C441 C440 1.386 . S
C441 C445 1.393 . S
C442 H434 0.950 . S
C442 C440 1.391 . S
C442 C443 1.400 . S
C443 C442 1.400 . S
C443 C444 1.398 . S
C443 C449 1.491 1_655 S
C444 H435 0.950 . S
C444 C443 1.398 . S
C444 C445 1.391 . S
C445 H433 0.950 . S
C445 C441 1.393 . S
C445 C444 1.391 . S
C446 H436 0.950 . S
C446 C447 1.386 . S
C446 C448 1.391 . S
C447 C446 1.386 . S
C447 C451 1.393 . S
C448 H437 0.950 . S
C448 C446 1.391 . S
C448 C449 1.400 . S
C449 C443 1.491 1_455 S
C449 C448 1.400 . S
C449 C450 1.398 . S
C450 H438 0.950 . S
C450 C449 1.398 . S
C450 C451 1.391 . S
C451 H439 0.950 . S
C451 C447 1.393 . S
C451 C450 1.391 . S
H452 C460 0.950 . S
H453 C465 0.950 . S
H454 C462 0.950 . S
H455 C464 0.950 . S
H456 C466 0.950 . S
H457 C468 0.950 . S
H458 C470 0.950 . S
H459 C471 0.950 . S
C460 H452 0.950 . S
C460 C461 1.386 . S
C460 C462 1.391 . S
C461 C460 1.386 . S
C461 C465 1.393 . S
C462 H454 0.950 . S
C462 C460 1.391 . S
C462 C463 1.400 . S
C463 C462 1.400 . S
C463 C464 1.398 . S
C463 C469 1.491 1_545 S
C464 H455 0.950 . S
C464 C463 1.398 . S
C464 C465 1.391 . S
C465 H453 0.950 . S
C465 C461 1.393 . S
C465 C464 1.391 . S
C466 H456 0.950 . S
C466 C467 1.386 . S
C466 C468 1.391 . S
C467 C466 1.386 . S
C467 C471 1.393 . S
C468 H457 0.950 . S
C468 C466 1.391 . S
C468 C469 1.400 . S
C469 C463 1.491 1_565 S
C469 C468 1.400 . S
C469 C470 1.398 . S
C470 H458 0.950 . S
C470 C469 1.398 . S
C470 C471 1.391 . S
C471 H459 0.950 . S
C471 C467 1.393 . S
C471 C470 1.391 . S
H472 C480 0.950 . S
H473 C485 0.950 . S
H474 C482 0.950 . S
H475 C484 0.950 . S
H476 C486 0.950 . S
H477 C488 0.950 . S
H478 C490 0.950 . S
H479 C491 0.950 . S
C480 H472 0.950 . S
C480 C481 1.386 . S
C480 C482 1.391 . S
C481 C480 1.386 . S
C481 C485 1.393 . S
C482 H474 0.950 . S
C482 C480 1.391 . S
C482 C483 1.400 . S
C483 C482 1.400 . S
C483 C484 1.398 . S
C483 C489 1.491 . S
C484 H475 0.950 . S
C484 C483 1.398 . S
C484 C485 1.391 . S
C485 H473 0.950 . S
C485 C481 1.393 . S
C485 C484 1.391 . S
C486 H476 0.950 . S
C486 C487 1.386 . S
C486 C488 1.391 . S
C487 C486 1.386 . S
C487 C491 1.393 . S
C488 H477 0.950 . S
C488 C486 1.391 . S
C488 C489 1.400 . S
C489 C483 1.491 . S
C489 C488 1.400 . S
C489 C490 1.398 . S
C490 H478 0.950 . S
C490 C489 1.398 . S
C490 C491 1.391 . S
C491 H479 0.950 . S
C491 C487 1.393 . S
C491 C490 1.391 . S
C141 C118 1.598 . S
C147 C8 1.603 . S
C161 C19 1.597 . S
C167 C129 1.602 . S
C181 C74 1.604 . S
C187 C30 1.600 . S
C201 C85 1.602 . S
C207 C41 1.605 . S
C221 C96 1.600 . S
C227 C52 1.597 . S
C241 C63 1.599 . S
C247 C107 1.600 . S
C261 C95 1.601 . S
C267 C7 1.614 . S
C281 C106 1.600 . S
C287 C18 1.614 . S
C301 C29 1.613 . S
C307 C117 1.601 . S
C321 C128 1.600 . S
C327 C40 1.614 . S
C341 C73 1.603 . S
C347 C51 1.612 . S
C361 C84 1.605 . S
C367 C62 1.610 . S
C381 C5 1.445 . S
C387 C126 1.437 . S
C401 C16 1.434 . S
C407 C71 1.443 . S
C421 C27 1.418 . S
C427 C82 1.418 . S
C441 C38 1.420 . S
C447 C93 1.426 . S
C461 C104 1.434 . S
C467 C49 1.442 . S
C481 C60 1.420 . S
C487 C115 1.426 . S
