# Generated by pormake.
# Topology vbm, (6)-cn, num edge types: 1
# Building blocks:
#     Node 0, Type 0, BuildingBlock: JUFBIX_clean_sbu_0, # of connection points: 6
#     Node 1, Type 0, BuildingBlock: JUFBIX_clean_sbu_0, # of connection points: 6
#     Node 2, Type 0, BuildingBlock: JUFBIX_clean_sbu_0, # of connection points: 6
#     Node 3, Type 0, BuildingBlock: JUFBIX_clean_sbu_0, # of connection points: 6
#     Node 4, Type 0, BuildingBlock: JUFBIX_clean_sbu_0, # of connection points: 6
#     Node 5, Type 0, BuildingBlock: JUFBIX_clean_sbu_0, # of connection points: 6
#     Node 6, Type 0, BuildingBlock: JUFBIX_clean_sbu_0, # of connection points: 6
#     Node 7, Type 0, BuildingBlock: JUFBIX_clean_sbu_0, # of connection points: 6
#     Node 8, Type 0, BuildingBlock: JUFBIX_clean_sbu_0, # of connection points: 6
#     Node 9, Type 0, BuildingBlock: JUFBIX_clean_sbu_0, # of connection points: 6
#     Node 10, Type 0, BuildingBlock: JUFBIX_clean_sbu_0, # of connection points: 6
#     Node 11, Type 0, BuildingBlock: JUFBIX_clean_sbu_0, # of connection points: 6
#     Node 12, Type 0, BuildingBlock: JUFBIX_clean_sbu_0, # of connection points: 6
#     Node 13, Type 0, BuildingBlock: JUFBIX_clean_sbu_0, # of connection points: 6
#     Node 14, Type 0, BuildingBlock: JUFBIX_clean_sbu_0, # of connection points: 6
#     Node 15, Type 0, BuildingBlock: JUFBIX_clean_sbu_0, # of connection points: 6
#     Edge 16, Type (0, 0), None
#     Edge 17, Type (0, 0), None
#     Edge 18, Type (0, 0), None
#     Edge 19, Type (0, 0), None
#     Edge 20, Type (0, 0), None
#     Edge 21, Type (0, 0), None
#     Edge 22, Type (0, 0), None
#     Edge 23, Type (0, 0), None
#     Edge 24, Type (0, 0), None
#     Edge 25, Type (0, 0), None
#     Edge 26, Type (0, 0), None
#     Edge 27, Type (0, 0), None
#     Edge 28, Type (0, 0), None
#     Edge 29, Type (0, 0), None
#     Edge 30, Type (0, 0), None
#     Edge 31, Type (0, 0), None
#     Edge 32, Type (0, 0), None
#     Edge 33, Type (0, 0), None
#     Edge 34, Type (0, 0), None
#     Edge 35, Type (0, 0), None
#     Edge 36, Type (0, 0), None
#     Edge 37, Type (0, 0), None
#     Edge 38, Type (0, 0), None
#     Edge 39, Type (0, 0), None
#     Edge 40, Type (0, 0), None
#     Edge 41, Type (0, 0), None
#     Edge 42, Type (0, 0), None
#     Edge 43, Type (0, 0), None
#     Edge 44, Type (0, 0), None
#     Edge 45, Type (0, 0), None
#     Edge 46, Type (0, 0), None
#     Edge 47, Type (0, 0), None
#     Edge 48, Type (0, 0), None
#     Edge 49, Type (0, 0), None
#     Edge 50, Type (0, 0), None
#     Edge 51, Type (0, 0), None
#     Edge 52, Type (0, 0), None
#     Edge 53, Type (0, 0), None
#     Edge 54, Type (0, 0), None
#     Edge 55, Type (0, 0), None
#     Edge 56, Type (0, 0), None
#     Edge 57, Type (0, 0), None
#     Edge 58, Type (0, 0), None
#     Edge 59, Type (0, 0), None
#     Edge 60, Type (0, 0), None
#     Edge 61, Type (0, 0), None
#     Edge 62, Type (0, 0), None
#     Edge 63, Type (0, 0), None
# Relax obj value: 0.009
# Max RMSD: 0.058
# Mean RMSD: 0.058
data_MOF--net-vbm--node1-JUFBIX_clean_sbu_0--edge1-none
_symmetry_space_group_name_H-M    P1
_symmetry_Int_Tables_number       1
_symmetry_cell_setting            triclinic
loop_
_symmetry_equiv_pos_as_xyz
'x, y, z'
_cell_length_a     45.801342
_cell_length_b     6.5273144
_cell_length_c     26.004863
_cell_angle_alpha  89.998128
_cell_angle_beta   90.000142
_cell_angle_gamma 89.999719
loop_
_atom_site_label
_atom_site_type_symbol
_atom_site_fract_x
_atom_site_fract_y
_atom_site_fract_z
_atom_type_partial_charge
Co0 Co 0.19506 0.07234 0.13846 0.0
C1 C 0.16745 0.0337 0.23433 0.0
Co2 Co 0.14643 0.07124 0.13655 0.0
C3 C 0.2539 0.22528 0.12884 0.0
C4 C 0.25275 0.94374 0.1711 0.0
N5 N 0.23564 0.07486 0.14446 0.0
N6 N 0.28146 0.19441 0.14531 0.0
C7 C 0.28103 0.01684 0.17165 0.0
H8 H 0.24692 0.35807 0.10724 0.0
H9 H 0.24496 0.80805 0.19065 0.0
C10 C 0.17406 0.08692 0.04007 0.0
N11 N 0.10577 0.09132 0.13024 0.0
C12 C 0.08345 0.97459 0.14759 0.0
C13 C 0.09249 0.24948 0.10584 0.0
N14 N 0.05725 0.05962 0.13649 0.0
C15 C 0.0628 0.23045 0.10975 0.0
C16 C 0.17104 0.46087 0.13923 0.0
O17 O 0.1978 0.08258 0.06544 0.0
O18 O 0.14978 0.08473 0.06375 0.0
O19 O 0.14739 0.36205 0.14004 0.0
O20 O 0.19502 0.36488 0.1405 0.0
O21 O 0.14367 0.05067 0.20935 0.0
H22 H 0.10366 0.36949 0.08497 0.0
H23 H 0.08626 0.82876 0.16678 0.0
O24 O 0.19175 0.05535 0.21119 0.0
O25 O 0.1945 0.78187 0.13641 0.0
O26 O 0.14623 0.77909 0.13366 0.0
C27 C 0.17052 0.68369 0.13608 0.0
H28 H 0.29946 0.94806 0.19112 0.0
H29 H 0.04652 0.32476 0.09111 0.0
Co30 Co 0.89233 0.94549 0.13841 0.0
C31 C 0.91986 0.98417 0.23433 0.0
Co32 Co 0.94097 0.94663 0.13661 0.0
C33 C 0.83347 0.79237 0.12885 0.0
C34 C 0.83462 0.07467 0.17078 0.0
N35 N 0.85173 0.94305 0.14431 0.0
N36 N 0.8059 0.82359 0.14526 0.0
C37 C 0.80633 1.00162 0.17139 0.0
H38 H 0.84045 0.65916 0.10742 0.0
H39 H 0.84241 0.21067 0.1902 0.0
C40 C 0.91344 0.93094 0.04007 0.0
N41 N 0.98165 0.92659 0.13043 0.0
C42 C 1.00392 0.04446 0.14745 0.0
C43 C 0.99498 0.76764 0.10643 0.0
N44 N 1.03015 0.95953 0.13649 0.0
C45 C 1.02467 0.78734 0.11027 0.0
C46 C 0.91635 0.55698 0.13924 0.0
O47 O 0.88968 0.93527 0.06536 0.0
O48 O 0.93771 0.9331 0.06383 0.0
O49 O 0.93999 0.65582 0.14011 0.0
O50 O 0.89236 0.65296 0.14045 0.0
O51 O 0.94365 0.96721 0.2094 0.0
H52 H 0.98387 0.6466 0.08586 0.0
H53 H 1.00108 0.19098 0.16629 0.0
O54 O 0.89557 0.9625 0.21116 0.0
O55 O 0.8929 0.23596 0.13635 0.0
O56 O 0.94117 0.23879 0.13371 0.0
C57 C 0.91687 0.33416 0.13608 0.0
H58 H 0.7879 0.07076 0.19079 0.0
H59 H 1.04099 0.6924 0.09194 0.0
Co60 Co 0.19506 0.94551 0.38527 0.0
C61 C 0.16745 0.98415 0.28941 0.0
Co62 Co 0.14643 0.94662 0.38718 0.0
C63 C 0.2539 0.79257 0.39489 0.0
C64 C 0.25275 0.07412 0.35264 0.0
N65 N 0.23564 0.94299 0.37927 0.0
N66 N 0.28146 0.82345 0.37843 0.0
C67 C 0.28103 1.00101 0.35209 0.0
H68 H 0.24692 0.65979 0.41649 0.0
H69 H 0.24496 0.20981 0.33308 0.0
C70 C 0.17406 0.93094 0.48367 0.0
N71 N 0.10577 0.92654 0.3935 0.0
C72 C 0.08346 0.04327 0.37614 0.0
C73 C 0.09249 0.76838 0.4179 0.0
N74 N 0.05725 0.95825 0.38724 0.0
C75 C 0.0628 0.78742 0.41398 0.0
C76 C 0.17104 0.55698 0.38451 0.0
O77 O 0.1978 0.93527 0.4583 0.0
O78 O 0.14978 0.93313 0.45998 0.0
O79 O 0.14739 0.6558 0.3837 0.0
O80 O 0.19502 0.65298 0.38323 0.0
O81 O 0.14367 0.96719 0.31438 0.0
H82 H 0.10366 0.64837 0.43877 0.0
H83 H 0.08626 0.1891 0.35695 0.0
O84 O 0.19175 0.9625 0.31254 0.0
O85 O 0.1945 0.23598 0.38733 0.0
O86 O 0.14623 0.23877 0.39007 0.0
C87 C 0.17052 0.33416 0.38766 0.0
H88 H 0.29946 0.0698 0.33262 0.0
H89 H 0.04652 0.69311 0.43262 0.0
Co90 Co 0.89233 0.07239 0.38532 0.0
C91 C 0.91986 0.03372 0.2894 0.0
Co92 Co 0.94097 0.07126 0.38712 0.0
C93 C 0.83347 0.22552 0.39488 0.0
C94 C 0.83462 0.94321 0.35296 0.0
N95 N 0.85174 0.07483 0.37943 0.0
N96 N 0.80591 0.1943 0.37846 0.0
C97 C 0.80633 0.01626 0.35234 0.0
H98 H 0.84045 0.35874 0.41631 0.0
H99 H 0.84241 0.8072 0.33354 0.0
C100 C 0.91345 0.08695 0.48367 0.0
N101 N 0.98165 0.0913 0.3933 0.0
C102 C 1.00392 0.97341 0.37628 0.0
C103 C 0.99498 0.25025 0.4173 0.0
N104 N 1.03015 0.05834 0.38725 0.0
C105 C 1.02467 0.23054 0.41346 0.0
C106 C 0.91635 0.46091 0.3845 0.0
O107 O 0.88968 0.08262 0.45838 0.0
O108 O 0.93771 0.08479 0.45991 0.0
O109 O 0.93999 0.36206 0.38362 0.0
O110 O 0.89236 0.36493 0.38328 0.0
O111 O 0.94365 0.05068 0.31434 0.0
H112 H 0.98387 0.37129 0.43787 0.0
H113 H 1.00108 0.82689 0.35745 0.0
O114 O 0.89557 0.05539 0.31257 0.0
O115 O 0.8929 0.78193 0.38738 0.0
O116 O 0.94117 0.77909 0.39002 0.0
C117 C 0.91687 0.68373 0.38765 0.0
H118 H 0.78791 0.94711 0.33294 0.0
H119 H 1.04099 0.32547 0.43179 0.0
Co120 Co 0.94112 0.94663 0.88718 0.0
C121 C 0.91348 0.93096 0.98366 0.0
Co122 Co 0.89249 0.94553 0.88527 0.0
C123 C 1.00409 0.04328 0.87614 0.0
C124 C 0.99505 0.76839 0.9179 0.0
N125 N 0.98178 0.92655 0.8935 0.0
N126 N 1.0303 0.95825 0.88724 0.0
C127 C 1.02475 0.78743 0.91399 0.0
H128 H 1.00129 0.18911 0.85695 0.0
H129 H 0.98388 0.64839 0.93877 0.0
C130 C 0.92009 0.98417 0.78941 0.0
N131 N 0.85191 0.94301 0.87927 0.0
C132 C 0.83365 0.79259 0.89489 0.0
C133 C 0.8348 0.07414 0.85264 0.0
N134 N 0.80609 0.82346 0.87842 0.0
C135 C 0.80651 1.00103 0.85209 0.0
C136 C 0.91702 0.33418 0.88765 0.0
O137 O 0.94387 0.96721 0.81438 0.0
O138 O 0.89579 0.96252 0.81254 0.0
O139 O 0.89305 0.236 0.88732 0.0
O140 O 0.94131 0.23878 0.89007 0.0
O141 O 0.88975 0.93529 0.9583 0.0
H142 H 0.84259 0.20983 0.83308 0.0
H143 H 0.84063 0.6598 0.91649 0.0
O144 O 0.93777 0.93315 0.95998 0.0
O145 O 0.94015 0.65582 0.8837 0.0
O146 O 0.89252 0.653 0.88323 0.0
C147 C 0.91651 0.557 0.88451 0.0
H148 H 1.04103 0.69312 0.93262 0.0
H149 H 0.78809 0.06982 0.83261 0.0
Co150 Co 0.14657 0.07125 0.88712 0.0
C151 C 0.1741 0.08693 0.98367 0.0
Co152 Co 0.19521 0.07238 0.88532 0.0
C153 C 0.08362 0.97341 0.87628 0.0
C154 C 0.09256 0.25024 0.9173 0.0
N155 N 0.10589 0.09129 0.8933 0.0
N156 N 0.05739 0.05834 0.88725 0.0
C157 C 0.06287 0.23054 0.91346 0.0
H158 H 0.08647 0.82688 0.85745 0.0
H159 H 0.10368 0.37127 0.93787 0.0
C160 C 0.16768 0.0337 0.7894 0.0
N161 N 0.23581 0.07482 0.87943 0.0
C162 C 0.25408 0.2255 0.89488 0.0
C163 C 0.25293 0.9432 0.85296 0.0
N164 N 0.28164 0.19428 0.87847 0.0
C165 C 0.28121 0.01624 0.85234 0.0
C166 C 0.17067 0.68371 0.88765 0.0
O167 O 0.14389 0.05066 0.81434 0.0
O168 O 0.19197 0.05537 0.81257 0.0
O169 O 0.19465 0.78191 0.88738 0.0
O170 O 0.14638 0.77908 0.89002 0.0
O171 O 0.19786 0.0826 0.95838 0.0
H172 H 0.24514 0.80719 0.83354 0.0
H173 H 0.24709 0.35871 0.91632 0.0
O174 O 0.14984 0.08477 0.95991 0.0
O175 O 0.14756 0.36205 0.88362 0.0
O176 O 0.19518 0.36491 0.88328 0.0
C177 C 0.1712 0.46089 0.8845 0.0
H178 H 0.04656 0.32547 0.9318 0.0
H179 H 0.29964 0.94711 0.83295 0.0
Co180 Co 0.94112 0.07125 0.63655 0.0
C181 C 0.91348 0.08693 0.54007 0.0
Co182 Co 0.89249 0.07236 0.63846 0.0
C183 C 1.00409 0.9746 0.64759 0.0
C184 C 0.99505 0.2495 0.60584 0.0
N185 N 0.98178 0.09133 0.63024 0.0
N186 N 1.0303 0.05962 0.63649 0.0
C187 C 1.02475 0.23045 0.60975 0.0
H188 H 1.00129 0.82876 0.66678 0.0
H189 H 0.98389 0.3695 0.58497 0.0
C190 C 0.92009 0.03372 0.73433 0.0
N191 N 0.85191 0.07488 0.64446 0.0
C192 C 0.83365 0.2253 0.62884 0.0
C193 C 0.8348 0.94376 0.6711 0.0
N194 N 0.80609 0.19442 0.64531 0.0
C195 C 0.80651 0.01686 0.67164 0.0
C196 C 0.91702 0.68371 0.63608 0.0
O197 O 0.94387 0.05068 0.70935 0.0
O198 O 0.8958 0.05537 0.71119 0.0
O199 O 0.89305 0.78189 0.63641 0.0
O200 O 0.94131 0.77911 0.63366 0.0
O201 O 0.88975 0.0826 0.56544 0.0
H202 H 0.84259 0.80807 0.69065 0.0
H203 H 0.84063 0.35808 0.60724 0.0
O204 O 0.93777 0.08474 0.56375 0.0
O205 O 0.94015 0.36207 0.64004 0.0
O206 O 0.89253 0.3649 0.6405 0.0
C207 C 0.91651 0.46089 0.63923 0.0
H208 H 1.04103 0.32476 0.59112 0.0
H209 H 0.78809 0.94807 0.69112 0.0
Co210 Co 0.14657 0.94661 0.63661 0.0
C211 C 0.1741 0.93092 0.54007 0.0
Co212 Co 0.19521 0.94547 0.63841 0.0
C213 C 0.08362 0.04445 0.64745 0.0
C214 C 0.09256 0.76763 0.60644 0.0
N215 N 0.10589 0.92657 0.63043 0.0
N216 N 0.05739 0.95953 0.63649 0.0
C217 C 0.06287 0.78733 0.61027 0.0
H218 H 0.08647 0.19098 0.66629 0.0
H219 H 0.10368 0.64659 0.58586 0.0
C220 C 0.16768 0.98415 0.73433 0.0
N221 N 0.23581 0.94303 0.64431 0.0
C222 C 0.25408 0.79235 0.62885 0.0
C223 C 0.25292 0.07465 0.67078 0.0
N224 N 0.28164 0.82357 0.64527 0.0
C225 C 0.28121 1.00161 0.67139 0.0
C226 C 0.17067 0.33414 0.63608 0.0
O227 O 0.14389 0.96719 0.7094 0.0
O228 O 0.19197 0.96248 0.71116 0.0
O229 O 0.19465 0.23594 0.63635 0.0
O230 O 0.14638 0.23878 0.63371 0.0
O231 O 0.19786 0.93525 0.56536 0.0
H232 H 0.24514 0.21066 0.69019 0.0
H233 H 0.2471 0.65914 0.60742 0.0
O234 O 0.14984 0.93308 0.56383 0.0
O235 O 0.14756 0.65581 0.64011 0.0
O236 O 0.19518 0.65294 0.64045 0.0
C237 C 0.1712 0.55696 0.63924 0.0
H238 H 0.04656 0.6924 0.59194 0.0
H239 H 0.29964 0.07075 0.69079 0.0
Co240 Co 0.69509 0.57338 0.1373 0.0
C241 C 0.67035 0.53427 0.23433 0.0
Co242 Co 0.6464 0.57174 0.13732 0.0
C243 C 0.75394 0.72577 0.1525 0.0
C244 C 0.75356 0.43719 0.11329 0.0
N245 N 0.73588 0.57404 0.13677 0.0
N246 N 0.7819 0.68981 0.13898 0.0
C247 C 0.78192 0.50786 0.11462 0.0
H248 H 0.7466 0.8638 0.1715 0.0
H249 H 0.74618 0.29933 0.09422 0.0
C250 C 0.6712 0.58694 0.03995 0.0
N251 N 0.60556 0.59339 0.13533 0.0
C252 C 0.58364 0.47571 0.15377 0.0
C253 C 0.59174 0.75305 0.11254 0.0
N254 N 0.55717 0.56114 0.14474 0.0
C255 C 0.56218 0.73367 0.11839 0.0
C256 C 0.67113 0.96158 0.13878 0.0
O257 O 0.69515 0.58184 0.06448 0.0
O258 O 0.64719 0.58583 0.06437 0.0
O259 O 0.64759 0.8622 0.14095 0.0
O260 O 0.69519 0.86615 0.13847 0.0
O261 O 0.64626 0.55052 0.21015 0.0
H262 H 0.60237 0.87347 0.09098 0.0
H263 H 0.58685 0.32789 0.17177 0.0
O264 O 0.69445 0.55761 0.21046 0.0
O265 O 0.69429 0.2831 0.13596 0.0
O266 O 0.64602 0.27934 0.1343 0.0
C267 C 0.67038 0.18442 0.13602 0.0
H268 H 0.80073 0.43426 0.09758 0.0
H269 H 0.54553 0.82761 0.1007 0.0
Co270 Co 0.39225 0.44443 0.13727 0.0
C271 C 0.41684 0.4836 0.23435 0.0
Co272 Co 0.44094 0.44613 0.13745 0.0
C273 C 0.3334 0.29249 0.1525 0.0
C274 C 0.33381 0.58004 0.11281 0.0
N275 N 0.35147 0.4438 0.13656 0.0
N276 N 0.30545 0.32807 0.13885 0.0
C277 C 0.30546 0.50938 0.11419 0.0
H278 H 0.34074 0.155 0.17176 0.0
H279 H 0.34121 0.71742 0.09354 0.0
C280 C 0.41631 0.43088 0.04001 0.0
N281 N 0.48182 0.42451 0.13578 0.0
C282 C 0.50368 0.54517 0.15326 0.0
C283 C 0.49577 0.26232 0.11434 0.0
N284 N 0.53019 0.45928 0.14496 0.0
C285 C 0.52531 0.28306 0.12015 0.0
C286 C 0.41618 0.05625 0.13884 0.0
O287 O 0.39233 0.43606 0.06445 0.0
O288 O 0.4403 0.43183 0.06451 0.0
O289 O 0.43971 0.1557 0.14112 0.0
O290 O 0.39212 0.15165 0.13842 0.0
O291 O 0.44095 0.46747 0.21022 0.0
H292 H 0.48527 0.13896 0.09365 0.0
H293 H 0.50039 0.69517 0.17004 0.0
O294 O 0.39276 0.46013 0.21043 0.0
O295 O 0.39305 0.73468 0.13595 0.0
O296 O 0.44132 0.73857 0.1344 0.0
C297 C 0.41695 0.83342 0.13606 0.0
H298 H 0.28665 0.58253 0.09699 0.0
H299 H 0.54203 0.18699 0.10343 0.0
Co300 Co 0.69509 0.44451 0.38641 0.0
C301 C 0.67035 0.48362 0.28939 0.0
Co302 Co 0.6464 0.44615 0.38639 0.0
C303 C 0.75394 0.29212 0.37122 0.0
C304 C 0.75356 0.58071 0.41043 0.0
N305 N 0.73588 0.44385 0.38694 0.0
N306 N 0.78191 0.32808 0.38475 0.0
C307 C 0.78192 0.51004 0.4091 0.0
H308 H 0.7466 0.15408 0.35223 0.0
H309 H 0.74618 0.71857 0.4295 0.0
C310 C 0.6712 0.43095 0.48377 0.0
N311 N 0.60556 0.4245 0.38839 0.0
C312 C 0.58364 0.54219 0.36995 0.0
C313 C 0.59174 0.26483 0.41117 0.0
N314 N 0.55717 0.45676 0.37898 0.0
C315 C 0.56218 0.2842 0.40533 0.0
C316 C 0.67113 0.0563 0.38493 0.0
O317 O 0.69515 0.43605 0.45923 0.0
O318 O 0.64719 0.43206 0.45935 0.0
O319 O 0.64759 0.15569 0.38277 0.0
O320 O 0.69519 0.15174 0.38525 0.0
O321 O 0.64626 0.46737 0.31357 0.0
H322 H 0.60237 0.14439 0.43273 0.0
H323 H 0.58685 0.69003 0.35196 0.0
O324 O 0.69445 0.46027 0.31326 0.0
O325 O 0.69429 0.73479 0.38776 0.0
O326 O 0.64602 0.73855 0.38942 0.0
C327 C 0.67038 0.83347 0.3877 0.0
H328 H 0.80073 0.58364 0.42614 0.0
H329 H 0.54553 0.19025 0.42302 0.0
Co330 Co 0.39225 0.57344 0.38647 0.0
C331 C 0.41684 0.53427 0.28939 0.0
Co332 Co 0.44095 0.57174 0.38629 0.0
C333 C 0.3334 0.72538 0.37124 0.0
C334 C 0.33381 0.43783 0.41093 0.0
N335 N 0.35147 0.57407 0.38718 0.0
N336 N 0.30545 0.68979 0.38488 0.0
C337 C 0.30546 0.50848 0.40955 0.0
H338 H 0.34074 0.86286 0.35198 0.0
H339 H 0.34121 0.30045 0.4302 0.0
C340 C 0.41632 0.58699 0.48373 0.0
N341 N 0.48182 0.59335 0.38796 0.0
C342 C 0.50368 0.47272 0.37046 0.0
C343 C 0.49577 0.75553 0.40941 0.0
N344 N 0.53019 0.55861 0.37877 0.0
C345 C 0.52531 0.7348 0.4036 0.0
C346 C 0.41618 0.96161 0.3849 0.0
O347 O 0.39233 0.58181 0.45929 0.0
O348 O 0.4403 0.58604 0.45923 0.0
O349 O 0.43971 0.86217 0.38262 0.0
O350 O 0.39212 0.86622 0.38532 0.0
O351 O 0.44096 0.5504 0.31351 0.0
H352 H 0.48527 0.87887 0.43011 0.0
H353 H 0.50039 0.32274 0.35368 0.0
O354 O 0.39276 0.55773 0.31331 0.0
O355 O 0.39305 0.28319 0.38779 0.0
O356 O 0.44132 0.2793 0.38934 0.0
C357 C 0.41695 0.18444 0.38768 0.0
H358 H 0.28665 0.43533 0.42674 0.0
H359 H 0.54203 0.83086 0.42032 0.0
Co360 Co 0.44114 0.44613 0.8864 0.0
C361 C 0.41635 0.43093 0.98378 0.0
Co362 Co 0.39245 0.4445 0.88643 0.0
C363 C 0.50391 0.54218 0.86996 0.0
C364 C 0.4958 0.26481 0.91118 0.0
N365 N 0.48198 0.42449 0.8884 0.0
N366 N 0.53037 0.45675 0.87899 0.0
C367 C 0.52537 0.2842 0.90533 0.0
H368 H 0.50069 0.69001 0.85196 0.0
H369 H 0.48517 0.14438 0.93274 0.0
C370 C 0.41719 0.4836 0.7894 0.0
N371 N 0.35166 0.44383 0.88696 0.0
C372 C 0.3336 0.29211 0.87123 0.0
C373 C 0.33398 0.58068 0.91044 0.0
N374 N 0.30564 0.32807 0.88475 0.0
C375 C 0.30563 0.51001 0.90911 0.0
C376 C 0.41716 0.83346 0.88771 0.0
O377 O 0.44128 0.46735 0.81358 0.0
O378 O 0.39309 0.46026 0.81327 0.0
O379 O 0.39326 0.73478 0.88777 0.0
O380 O 0.44152 0.73853 0.88943 0.0
O381 O 0.3924 0.43604 0.95925 0.0
H382 H 0.34136 0.71854 0.92951 0.0
H383 H 0.34094 0.15407 0.85223 0.0
O384 O 0.44035 0.43204 0.95936 0.0
O385 O 0.43996 0.15567 0.88278 0.0
O386 O 0.39236 0.15173 0.88526 0.0
C387 C 0.41641 0.05629 0.88494 0.0
H388 H 0.54201 0.19025 0.92302 0.0
H389 H 0.28681 0.58361 0.92616 0.0
Co390 Co 0.6466 0.57175 0.88628 0.0
C391 C 0.67123 0.58699 0.98372 0.0
Co392 Co 0.6953 0.57345 0.88645 0.0
C393 C 0.58386 0.47271 0.87046 0.0
C394 C 0.59178 0.75554 0.9094 0.0
N395 N 0.60572 0.59336 0.88796 0.0
N396 N 0.55735 0.5586 0.87877 0.0
C397 C 0.56223 0.73481 0.90359 0.0
H398 H 0.58716 0.32273 0.85368 0.0
H399 H 0.60228 0.87889 0.93009 0.0
C400 C 0.6707 0.53427 0.78938 0.0
N401 N 0.73607 0.57408 0.88717 0.0
C402 C 0.75414 0.72539 0.87123 0.0
C403 C 0.75373 0.43783 0.91092 0.0
N404 N 0.78209 0.6898 0.88488 0.0
C405 C 0.78209 0.50848 0.90954 0.0
C406 C 0.6706 0.18445 0.88767 0.0
O407 O 0.64659 0.55041 0.8135 0.0
O408 O 0.69478 0.55774 0.8133 0.0
O409 O 0.69449 0.2832 0.88778 0.0
O410 O 0.64623 0.2793 0.88933 0.0
O411 O 0.69521 0.58182 0.95928 0.0
H412 H 0.74634 0.30044 0.93019 0.0
H413 H 0.74681 0.86288 0.85197 0.0
O414 O 0.64725 0.58604 0.95922 0.0
O415 O 0.64784 0.86218 0.88261 0.0
O416 O 0.69542 0.86622 0.88531 0.0
C417 C 0.67137 0.96162 0.88489 0.0
H418 H 0.54552 0.83086 0.92031 0.0
H419 H 0.8009 0.43534 0.92673 0.0
Co420 Co 0.44114 0.57172 0.63734 0.0
C421 C 0.41635 0.58693 0.53996 0.0
Co422 Co 0.39246 0.57337 0.63731 0.0
C423 C 0.50391 0.47566 0.65377 0.0
C424 C 0.49581 0.75308 0.61257 0.0
N425 N 0.48198 0.59338 0.63534 0.0
N426 N 0.53038 0.5611 0.64475 0.0
C427 C 0.52537 0.73369 0.61842 0.0
H428 H 0.50069 0.3278 0.67175 0.0
H429 H 0.48517 0.87354 0.59102 0.0
C430 C 0.41719 0.53426 0.73434 0.0
N431 N 0.35167 0.57403 0.63678 0.0
C432 C 0.3336 0.72575 0.65251 0.0
C433 C 0.33398 0.43718 0.61329 0.0
N434 N 0.30564 0.68979 0.63898 0.0
C435 C 0.30563 0.50785 0.61462 0.0
C436 C 0.41716 0.18441 0.63603 0.0
O437 O 0.44128 0.5505 0.71016 0.0
O438 O 0.39309 0.5576 0.71047 0.0
O439 O 0.39326 0.28309 0.63597 0.0
O440 O 0.44152 0.27933 0.63431 0.0
O441 O 0.3924 0.58183 0.56449 0.0
H442 H 0.34136 0.29932 0.59423 0.0
H443 H 0.34094 0.86379 0.67151 0.0
O444 O 0.44036 0.58583 0.56438 0.0
O445 O 0.43996 0.86219 0.64096 0.0
O446 O 0.39236 0.86614 0.63848 0.0
C447 C 0.41641 0.96157 0.63879 0.0
H448 H 0.54201 0.82766 0.60074 0.0
H449 H 0.28681 0.43425 0.59758 0.0
Co450 Co 0.6466 0.44614 0.63744 0.0
C451 C 0.67123 0.43089 0.54 0.0
Co452 Co 0.6953 0.44444 0.63726 0.0
C453 C 0.58386 0.54513 0.65327 0.0
C454 C 0.59178 0.26238 0.61429 0.0
N455 N 0.60572 0.42453 0.63576 0.0
N456 N 0.55735 0.45925 0.64495 0.0
C457 C 0.56224 0.28309 0.62011 0.0
H458 H 0.58716 0.69508 0.67007 0.0
H459 H 0.60228 0.13907 0.59359 0.0
C460 C 0.6707 0.48361 0.73434 0.0
N461 N 0.73607 0.4438 0.63655 0.0
C462 C 0.75414 0.2925 0.65249 0.0
C463 C 0.75373 0.58005 0.6128 0.0
N464 N 0.78209 0.32808 0.63885 0.0
C465 C 0.78209 0.5094 0.61419 0.0
C466 C 0.6706 0.83343 0.63605 0.0
O467 O 0.64659 0.46747 0.71021 0.0
O468 O 0.69478 0.46014 0.71042 0.0
O469 O 0.6945 0.73469 0.63594 0.0
O470 O 0.64623 0.73858 0.63439 0.0
O471 O 0.69522 0.43607 0.56444 0.0
H472 H 0.74634 0.71744 0.59354 0.0
H473 H 0.74681 0.15501 0.67175 0.0
O474 O 0.64725 0.43184 0.5645 0.0
O475 O 0.64784 0.15571 0.64111 0.0
O476 O 0.69542 0.15166 0.63841 0.0
C477 C 0.67137 0.05626 0.63883 0.0
H478 H 0.54552 0.18707 0.60338 0.0
H479 H 0.8009 0.58255 0.59699 0.0
loop_
_geom_bond_atom_site_label_1
_geom_bond_atom_site_label_2
_geom_bond_distance
_geom_bond_site_symmetry_2
_ccdc_geom_bond_type
Co0 N5 2.057 . S
Co0 O17 2.021 . S
Co0 O20 2.062 . S
Co0 O24 2.117 . S
Co0 O25 2.020 1_545 S
C1 O21 1.259 . S
C1 O24 1.258 . S
Co2 N11 2.057 . S
Co2 O18 2.117 . S
Co2 O19 2.020 . S
Co2 O21 2.021 . S
Co2 O26 2.062 1_545 S
C3 N5 1.316 . S
C3 N6 1.347 . S
C3 H8 0.931 . S
C4 N5 1.375 . S
C4 C7 1.350 . S
C4 H9 0.930 . S
N5 Co0 2.057 . S
N5 C3 1.316 . S
N5 C4 1.375 . S
N6 C3 1.347 . S
N6 C7 1.373 . S
C7 C4 1.350 . S
C7 N6 1.373 . S
C7 H28 0.931 . S
H8 C3 0.931 . S
H9 C4 0.930 . S
C10 O17 1.259 . S
C10 O18 1.258 . S
N11 Co2 2.057 . S
N11 C12 1.316 . S
N11 C13 1.375 . S
C12 N11 1.316 . S
C12 N14 1.346 1_545 S
C12 H23 0.931 . S
C13 N11 1.375 . S
C13 C15 1.350 . S
C13 H22 0.930 . S
N14 C12 1.346 1_565 S
N14 C15 1.372 1_565 S
C15 C13 1.350 . S
C15 N14 1.372 1_545 S
C15 H29 0.931 . S
C16 O19 1.256 . S
C16 O20 1.255 . S
O17 Co0 2.021 . S
O17 C10 1.259 . S
O18 Co2 2.117 . S
O18 C10 1.258 . S
O19 Co2 2.020 . S
O19 C16 1.256 . S
O20 Co0 2.062 . S
O20 C16 1.255 . S
O21 C1 1.259 . S
O21 Co2 2.021 . S
H22 C13 0.930 . S
H23 C12 0.931 . S
O24 Co0 2.117 . S
O24 C1 1.258 . S
O25 Co0 2.020 1_565 S
O25 C27 1.256 . S
O26 Co2 2.062 1_565 S
O26 C27 1.255 . S
C27 O25 1.256 . S
C27 O26 1.255 . S
H28 C7 0.931 . S
H29 C15 0.931 . S
Co30 N35 2.057 . S
Co30 O47 2.021 . S
Co30 O50 2.062 . S
Co30 O54 2.117 . S
Co30 O55 2.020 1_565 S
C31 O51 1.259 . S
C31 O54 1.258 . S
Co32 N41 2.057 . S
Co32 O48 2.117 . S
Co32 O49 2.020 . S
Co32 O51 2.021 . S
Co32 O56 2.062 1_565 S
C33 N35 1.316 . S
C33 N36 1.347 . S
C33 H38 0.931 . S
C34 N35 1.375 . S
C34 C37 1.350 . S
C34 H39 0.930 . S
N35 Co30 2.057 . S
N35 C33 1.316 . S
N35 C34 1.375 . S
N36 C33 1.347 . S
N36 C37 1.373 . S
C37 C34 1.350 . S
C37 N36 1.373 . S
C37 H58 0.931 . S
H38 C33 0.931 . S
H39 C34 0.930 . S
C40 O47 1.259 . S
C40 O48 1.258 . S
N41 Co32 2.057 . S
N41 C42 1.316 . S
N41 C43 1.375 . S
C42 N41 1.316 . S
C42 N44 1.346 1_565 S
C42 H53 0.931 . S
C43 N41 1.375 . S
C43 C45 1.350 . S
C43 H52 0.930 . S
N44 C42 1.346 1_545 S
N44 C45 1.372 1_545 S
C45 C43 1.350 . S
C45 N44 1.372 1_565 S
C45 H59 0.931 . S
C46 O49 1.256 . S
C46 O50 1.255 . S
O47 Co30 2.021 . S
O47 C40 1.259 . S
O48 Co32 2.117 . S
O48 C40 1.258 . S
O49 Co32 2.020 . S
O49 C46 1.256 . S
O50 Co30 2.062 . S
O50 C46 1.255 . S
O51 C31 1.259 . S
O51 Co32 2.021 . S
H52 C43 0.930 . S
H53 C42 0.931 . S
O54 Co30 2.117 . S
O54 C31 1.258 . S
O55 Co30 2.020 1_545 S
O55 C57 1.256 . S
O56 Co32 2.062 1_545 S
O56 C57 1.255 . S
C57 O55 1.256 . S
C57 O56 1.255 . S
H58 C37 0.931 . S
H59 C45 0.931 . S
Co60 N65 2.057 . S
Co60 O77 2.021 . S
Co60 O80 2.062 . S
Co60 O84 2.117 . S
Co60 O85 2.020 1_565 S
C61 O81 1.259 . S
C61 O84 1.258 . S
Co62 N71 2.057 . S
Co62 O78 2.117 . S
Co62 O79 2.020 . S
Co62 O81 2.021 . S
Co62 O86 2.062 1_565 S
C63 N65 1.316 . S
C63 N66 1.347 . S
C63 H68 0.931 . S
C64 N65 1.375 . S
C64 C67 1.350 . S
C64 H69 0.930 . S
N65 Co60 2.057 . S
N65 C63 1.316 . S
N65 C64 1.375 . S
N66 C63 1.347 . S
N66 C67 1.373 . S
C67 C64 1.350 . S
C67 N66 1.373 . S
C67 H88 0.931 . S
H68 C63 0.931 . S
H69 C64 0.930 . S
C70 O77 1.259 . S
C70 O78 1.258 . S
N71 Co62 2.057 . S
N71 C72 1.316 . S
N71 C73 1.375 . S
C72 N71 1.316 . S
C72 N74 1.346 1_565 S
C72 H83 0.931 . S
C73 N71 1.375 . S
C73 C75 1.350 . S
C73 H82 0.930 . S
N74 C72 1.346 1_545 S
N74 C75 1.372 1_545 S
C75 C73 1.350 . S
C75 N74 1.372 1_565 S
C75 H89 0.931 . S
C76 O79 1.256 . S
C76 O80 1.255 . S
O77 Co60 2.021 . S
O77 C70 1.259 . S
O78 Co62 2.117 . S
O78 C70 1.258 . S
O79 Co62 2.020 . S
O79 C76 1.256 . S
O80 Co60 2.062 . S
O80 C76 1.255 . S
O81 C61 1.259 . S
O81 Co62 2.021 . S
H82 C73 0.930 . S
H83 C72 0.931 . S
O84 Co60 2.117 . S
O84 C61 1.258 . S
O85 Co60 2.020 1_545 S
O85 C87 1.256 . S
O86 Co62 2.062 1_545 S
O86 C87 1.255 . S
C87 O85 1.256 . S
C87 O86 1.255 . S
H88 C67 0.931 . S
H89 C75 0.931 . S
Co90 N95 2.057 . S
Co90 O107 2.021 . S
Co90 O110 2.062 . S
Co90 O114 2.117 . S
Co90 O115 2.020 1_545 S
C91 O111 1.259 . S
C91 O114 1.258 . S
Co92 N101 2.057 . S
Co92 O108 2.117 . S
Co92 O109 2.020 . S
Co92 O111 2.021 . S
Co92 O116 2.062 1_545 S
C93 N95 1.316 . S
C93 N96 1.347 . S
C93 H98 0.931 . S
C94 N95 1.375 . S
C94 C97 1.350 . S
C94 H99 0.930 . S
N95 Co90 2.057 . S
N95 C93 1.316 . S
N95 C94 1.375 . S
N96 C93 1.347 . S
N96 C97 1.373 . S
C97 C94 1.350 . S
C97 N96 1.373 . S
C97 H118 0.931 . S
H98 C93 0.931 . S
H99 C94 0.930 . S
C100 O107 1.259 . S
C100 O108 1.258 . S
N101 Co92 2.057 . S
N101 C102 1.316 . S
N101 C103 1.375 . S
C102 N101 1.316 . S
C102 N104 1.346 1_545 S
C102 H113 0.931 . S
C103 N101 1.375 . S
C103 C105 1.350 . S
C103 H112 0.930 . S
N104 C102 1.346 1_565 S
N104 C105 1.372 1_565 S
C105 C103 1.350 . S
C105 N104 1.372 1_545 S
C105 H119 0.931 . S
C106 O109 1.256 . S
C106 O110 1.255 . S
O107 Co90 2.021 . S
O107 C100 1.259 . S
O108 Co92 2.117 . S
O108 C100 1.258 . S
O109 Co92 2.020 . S
O109 C106 1.256 . S
O110 Co90 2.062 . S
O110 C106 1.255 . S
O111 C91 1.259 . S
O111 Co92 2.021 . S
H112 C103 0.930 . S
H113 C102 0.931 . S
O114 Co90 2.117 . S
O114 C91 1.258 . S
O115 Co90 2.020 1_565 S
O115 C117 1.256 . S
O116 Co92 2.062 1_565 S
O116 C117 1.255 . S
C117 O115 1.256 . S
C117 O116 1.255 . S
H118 C97 0.931 . S
H119 C105 0.931 . S
Co120 N125 2.057 . S
Co120 O137 2.021 . S
Co120 O140 2.062 1_565 S
Co120 O144 2.117 . S
Co120 O145 2.020 . S
C121 O141 1.259 . S
C121 O144 1.258 . S
Co122 N131 2.057 . S
Co122 O138 2.117 . S
Co122 O139 2.020 1_565 S
Co122 O141 2.021 . S
Co122 O146 2.062 . S
C123 N125 1.316 . S
C123 N126 1.346 1_565 S
C123 H128 0.931 . S
C124 N125 1.375 . S
C124 C127 1.350 . S
C124 H129 0.930 . S
N125 Co120 2.057 . S
N125 C123 1.316 . S
N125 C124 1.375 . S
N126 C123 1.346 1_545 S
N126 C127 1.372 1_545 S
C127 C124 1.350 . S
C127 N126 1.372 1_565 S
C127 H148 0.931 . S
H128 C123 0.931 . S
H129 C124 0.930 . S
C130 O137 1.259 . S
C130 O138 1.258 . S
N131 Co122 2.057 . S
N131 C132 1.316 . S
N131 C133 1.375 . S
C132 N131 1.316 . S
C132 N134 1.347 . S
C132 H143 0.931 . S
C133 N131 1.375 . S
C133 C135 1.350 . S
C133 H142 0.930 . S
N134 C132 1.347 . S
N134 C135 1.373 . S
C135 C133 1.350 . S
C135 N134 1.373 . S
C135 H149 0.931 . S
C136 O139 1.256 . S
C136 O140 1.255 . S
O137 Co120 2.021 . S
O137 C130 1.259 . S
O138 Co122 2.117 . S
O138 C130 1.258 . S
O139 Co122 2.020 1_545 S
O139 C136 1.256 . S
O140 Co120 2.062 1_545 S
O140 C136 1.255 . S
O141 C121 1.259 . S
O141 Co122 2.021 . S
H142 C133 0.930 . S
H143 C132 0.931 . S
O144 Co120 2.117 . S
O144 C121 1.258 . S
O145 Co120 2.020 . S
O145 C147 1.256 . S
O146 Co122 2.062 . S
O146 C147 1.255 . S
C147 O145 1.256 . S
C147 O146 1.255 . S
H148 C127 0.931 . S
H149 C135 0.931 . S
Co150 N155 2.057 . S
Co150 O167 2.021 . S
Co150 O170 2.062 1_545 S
Co150 O174 2.117 . S
Co150 O175 2.020 . S
C151 O171 1.259 . S
C151 O174 1.258 . S
Co152 N161 2.057 . S
Co152 O168 2.117 . S
Co152 O169 2.020 1_545 S
Co152 O171 2.021 . S
Co152 O176 2.062 . S
C153 N155 1.316 . S
C153 N156 1.346 1_545 S
C153 H158 0.931 . S
C154 N155 1.375 . S
C154 C157 1.350 . S
C154 H159 0.930 . S
N155 Co150 2.057 . S
N155 C153 1.316 . S
N155 C154 1.375 . S
N156 C153 1.346 1_565 S
N156 C157 1.372 1_565 S
C157 C154 1.350 . S
C157 N156 1.372 1_545 S
C157 H178 0.931 . S
H158 C153 0.931 . S
H159 C154 0.930 . S
C160 O167 1.259 . S
C160 O168 1.258 . S
N161 Co152 2.057 . S
N161 C162 1.316 . S
N161 C163 1.375 . S
C162 N161 1.316 . S
C162 N164 1.347 . S
C162 H173 0.931 . S
C163 N161 1.375 . S
C163 C165 1.350 . S
C163 H172 0.930 . S
N164 C162 1.347 . S
N164 C165 1.373 . S
C165 C163 1.350 . S
C165 N164 1.373 . S
C165 H179 0.931 . S
C166 O169 1.256 . S
C166 O170 1.255 . S
O167 Co150 2.021 . S
O167 C160 1.259 . S
O168 Co152 2.117 . S
O168 C160 1.258 . S
O169 Co152 2.020 1_565 S
O169 C166 1.256 . S
O170 Co150 2.062 1_565 S
O170 C166 1.255 . S
O171 C151 1.259 . S
O171 Co152 2.021 . S
H172 C163 0.930 . S
H173 C162 0.931 . S
O174 Co150 2.117 . S
O174 C151 1.258 . S
O175 Co150 2.020 . S
O175 C177 1.256 . S
O176 Co152 2.062 . S
O176 C177 1.255 . S
C177 O175 1.256 . S
C177 O176 1.255 . S
H178 C157 0.931 . S
H179 C165 0.931 . S
Co180 N185 2.057 . S
Co180 O197 2.021 . S
Co180 O200 2.062 1_545 S
Co180 O204 2.117 . S
Co180 O205 2.020 . S
C181 O201 1.259 . S
C181 O204 1.258 . S
Co182 N191 2.057 . S
Co182 O198 2.117 . S
Co182 O199 2.020 1_545 S
Co182 O201 2.021 . S
Co182 O206 2.062 . S
C183 N185 1.316 . S
C183 N186 1.346 1_545 S
C183 H188 0.931 . S
C184 N185 1.375 . S
C184 C187 1.350 . S
C184 H189 0.930 . S
N185 Co180 2.057 . S
N185 C183 1.316 . S
N185 C184 1.375 . S
N186 C183 1.346 1_565 S
N186 C187 1.372 1_565 S
C187 C184 1.350 . S
C187 N186 1.372 1_545 S
C187 H208 0.931 . S
H188 C183 0.931 . S
H189 C184 0.930 . S
C190 O197 1.259 . S
C190 O198 1.258 . S
N191 Co182 2.057 . S
N191 C192 1.316 . S
N191 C193 1.375 . S
C192 N191 1.316 . S
C192 N194 1.347 . S
C192 H203 0.931 . S
C193 N191 1.375 . S
C193 C195 1.350 . S
C193 H202 0.930 . S
N194 C192 1.347 . S
N194 C195 1.373 . S
C195 C193 1.350 . S
C195 N194 1.373 . S
C195 H209 0.931 . S
C196 O199 1.256 . S
C196 O200 1.255 . S
O197 Co180 2.021 . S
O197 C190 1.259 . S
O198 Co182 2.117 . S
O198 C190 1.258 . S
O199 Co182 2.020 1_565 S
O199 C196 1.256 . S
O200 Co180 2.062 1_565 S
O200 C196 1.255 . S
O201 C181 1.259 . S
O201 Co182 2.021 . S
H202 C193 0.930 . S
H203 C192 0.931 . S
O204 Co180 2.117 . S
O204 C181 1.258 . S
O205 Co180 2.020 . S
O205 C207 1.256 . S
O206 Co182 2.062 . S
O206 C207 1.255 . S
C207 O205 1.256 . S
C207 O206 1.255 . S
H208 C187 0.931 . S
H209 C195 0.931 . S
Co210 N215 2.057 . S
Co210 O227 2.021 . S
Co210 O230 2.062 1_565 S
Co210 O234 2.117 . S
Co210 O235 2.020 . S
C211 O231 1.259 . S
C211 O234 1.258 . S
Co212 N221 2.057 . S
Co212 O228 2.117 . S
Co212 O229 2.020 1_565 S
Co212 O231 2.021 . S
Co212 O236 2.062 . S
C213 N215 1.316 . S
C213 N216 1.346 1_565 S
C213 H218 0.931 . S
C214 N215 1.375 . S
C214 C217 1.350 . S
C214 H219 0.930 . S
N215 Co210 2.057 . S
N215 C213 1.316 . S
N215 C214 1.375 . S
N216 C213 1.346 1_545 S
N216 C217 1.372 1_545 S
C217 C214 1.350 . S
C217 N216 1.372 1_565 S
C217 H238 0.931 . S
H218 C213 0.931 . S
H219 C214 0.930 . S
C220 O227 1.259 . S
C220 O228 1.258 . S
N221 Co212 2.057 . S
N221 C222 1.316 . S
N221 C223 1.375 . S
C222 N221 1.316 . S
C222 N224 1.347 . S
C222 H233 0.931 . S
C223 N221 1.375 . S
C223 C225 1.350 . S
C223 H232 0.930 . S
N224 C222 1.347 . S
N224 C225 1.373 . S
C225 C223 1.350 . S
C225 N224 1.373 . S
C225 H239 0.931 . S
C226 O229 1.256 . S
C226 O230 1.255 . S
O227 Co210 2.021 . S
O227 C220 1.259 . S
O228 Co212 2.117 . S
O228 C220 1.258 . S
O229 Co212 2.020 1_545 S
O229 C226 1.256 . S
O230 Co210 2.062 1_545 S
O230 C226 1.255 . S
O231 C211 1.259 . S
O231 Co212 2.021 . S
H232 C223 0.930 . S
H233 C222 0.931 . S
O234 Co210 2.117 . S
O234 C211 1.258 . S
O235 Co210 2.020 . S
O235 C237 1.256 . S
O236 Co212 2.062 . S
O236 C237 1.255 . S
C237 O235 1.256 . S
C237 O236 1.255 . S
H238 C217 0.931 . S
H239 C225 0.931 . S
Co240 N245 2.057 . S
Co240 O257 2.021 . S
Co240 O260 2.062 . S
Co240 O264 2.117 . S
Co240 O265 2.020 . S
C241 O261 1.259 . S
C241 O264 1.258 . S
Co242 N251 2.057 . S
Co242 O258 2.117 . S
Co242 O259 2.020 . S
Co242 O261 2.021 . S
Co242 O266 2.062 . S
C243 N245 1.316 . S
C243 N246 1.347 . S
C243 H248 0.931 . S
C244 N245 1.375 . S
C244 C247 1.350 . S
C244 H249 0.930 . S
N245 Co240 2.057 . S
N245 C243 1.316 . S
N245 C244 1.375 . S
N246 C243 1.347 . S
N246 C247 1.373 . S
C247 C244 1.350 . S
C247 N246 1.373 . S
C247 H268 0.931 . S
H248 C243 0.931 . S
H249 C244 0.930 . S
C250 O257 1.259 . S
C250 O258 1.258 . S
N251 Co242 2.057 . S
N251 C252 1.316 . S
N251 C253 1.375 . S
C252 N251 1.316 . S
C252 N254 1.347 . S
C252 H263 0.931 . S
C253 N251 1.375 . S
C253 C255 1.350 . S
C253 H262 0.930 . S
N254 C252 1.347 . S
N254 C255 1.373 . S
C255 C253 1.350 . S
C255 N254 1.373 . S
C255 H269 0.931 . S
C256 O259 1.256 . S
C256 O260 1.255 . S
O257 Co240 2.021 . S
O257 C250 1.259 . S
O258 Co242 2.117 . S
O258 C250 1.258 . S
O259 Co242 2.020 . S
O259 C256 1.256 . S
O260 Co240 2.062 . S
O260 C256 1.255 . S
O261 C241 1.259 . S
O261 Co242 2.021 . S
H262 C253 0.930 . S
H263 C252 0.931 . S
O264 Co240 2.117 . S
O264 C241 1.258 . S
O265 Co240 2.020 . S
O265 C267 1.256 . S
O266 Co242 2.062 . S
O266 C267 1.255 . S
C267 O265 1.256 . S
C267 O266 1.255 . S
H268 C247 0.931 . S
H269 C255 0.931 . S
Co270 N275 2.057 . S
Co270 O287 2.021 . S
Co270 O290 2.062 . S
Co270 O294 2.117 . S
Co270 O295 2.020 . S
C271 O291 1.259 . S
C271 O294 1.258 . S
Co272 N281 2.057 . S
Co272 O288 2.117 . S
Co272 O289 2.020 . S
Co272 O291 2.021 . S
Co272 O296 2.062 . S
C273 N275 1.316 . S
C273 N276 1.347 . S
C273 H278 0.931 . S
C274 N275 1.375 . S
C274 C277 1.350 . S
C274 H279 0.930 . S
N275 Co270 2.057 . S
N275 C273 1.316 . S
N275 C274 1.375 . S
N276 C273 1.347 . S
N276 C277 1.373 . S
C277 C274 1.350 . S
C277 N276 1.373 . S
C277 H298 0.931 . S
H278 C273 0.931 . S
H279 C274 0.930 . S
C280 O287 1.259 . S
C280 O288 1.258 . S
N281 Co272 2.057 . S
N281 C282 1.316 . S
N281 C283 1.375 . S
C282 N281 1.316 . S
C282 N284 1.347 . S
C282 H293 0.931 . S
C283 N281 1.375 . S
C283 C285 1.350 . S
C283 H292 0.930 . S
N284 C282 1.347 . S
N284 C285 1.373 . S
C285 C283 1.350 . S
C285 N284 1.373 . S
C285 H299 0.931 . S
C286 O289 1.256 . S
C286 O290 1.255 . S
O287 Co270 2.021 . S
O287 C280 1.259 . S
O288 Co272 2.117 . S
O288 C280 1.258 . S
O289 Co272 2.020 . S
O289 C286 1.256 . S
O290 Co270 2.062 . S
O290 C286 1.255 . S
O291 C271 1.259 . S
O291 Co272 2.021 . S
H292 C283 0.930 . S
H293 C282 0.931 . S
O294 Co270 2.117 . S
O294 C271 1.258 . S
O295 Co270 2.020 . S
O295 C297 1.256 . S
O296 Co272 2.062 . S
O296 C297 1.255 . S
C297 O295 1.256 . S
C297 O296 1.255 . S
H298 C277 0.931 . S
H299 C285 0.931 . S
Co300 N305 2.057 . S
Co300 O317 2.021 . S
Co300 O320 2.062 . S
Co300 O324 2.117 . S
Co300 O325 2.020 . S
C301 O321 1.259 . S
C301 O324 1.258 . S
Co302 N311 2.057 . S
Co302 O318 2.117 . S
Co302 O319 2.020 . S
Co302 O321 2.021 . S
Co302 O326 2.062 . S
C303 N305 1.316 . S
C303 N306 1.347 . S
C303 H308 0.931 . S
C304 N305 1.375 . S
C304 C307 1.350 . S
C304 H309 0.930 . S
N305 Co300 2.057 . S
N305 C303 1.316 . S
N305 C304 1.375 . S
N306 C303 1.347 . S
N306 C307 1.373 . S
C307 C304 1.350 . S
C307 N306 1.373 . S
C307 H328 0.931 . S
H308 C303 0.931 . S
H309 C304 0.930 . S
C310 O317 1.259 . S
C310 O318 1.258 . S
N311 Co302 2.057 . S
N311 C312 1.316 . S
N311 C313 1.375 . S
C312 N311 1.316 . S
C312 N314 1.347 . S
C312 H323 0.931 . S
C313 N311 1.375 . S
C313 C315 1.350 . S
C313 H322 0.930 . S
N314 C312 1.347 . S
N314 C315 1.373 . S
C315 C313 1.350 . S
C315 N314 1.373 . S
C315 H329 0.931 . S
C316 O319 1.256 . S
C316 O320 1.255 . S
O317 Co300 2.021 . S
O317 C310 1.259 . S
O318 Co302 2.117 . S
O318 C310 1.258 . S
O319 Co302 2.020 . S
O319 C316 1.256 . S
O320 Co300 2.062 . S
O320 C316 1.255 . S
O321 C301 1.259 . S
O321 Co302 2.021 . S
H322 C313 0.930 . S
H323 C312 0.931 . S
O324 Co300 2.117 . S
O324 C301 1.258 . S
O325 Co300 2.020 . S
O325 C327 1.256 . S
O326 Co302 2.062 . S
O326 C327 1.255 . S
C327 O325 1.256 . S
C327 O326 1.255 . S
H328 C307 0.931 . S
H329 C315 0.931 . S
Co330 N335 2.057 . S
Co330 O347 2.021 . S
Co330 O350 2.062 . S
Co330 O354 2.117 . S
Co330 O355 2.020 . S
C331 O351 1.259 . S
C331 O354 1.258 . S
Co332 N341 2.057 . S
Co332 O348 2.117 . S
Co332 O349 2.020 . S
Co332 O351 2.021 . S
Co332 O356 2.062 . S
C333 N335 1.316 . S
C333 N336 1.347 . S
C333 H338 0.931 . S
C334 N335 1.375 . S
C334 C337 1.350 . S
C334 H339 0.930 . S
N335 Co330 2.057 . S
N335 C333 1.316 . S
N335 C334 1.375 . S
N336 C333 1.347 . S
N336 C337 1.373 . S
C337 C334 1.350 . S
C337 N336 1.373 . S
C337 H358 0.931 . S
H338 C333 0.931 . S
H339 C334 0.930 . S
C340 O347 1.259 . S
C340 O348 1.258 . S
N341 Co332 2.057 . S
N341 C342 1.316 . S
N341 C343 1.375 . S
C342 N341 1.316 . S
C342 N344 1.347 . S
C342 H353 0.931 . S
C343 N341 1.375 . S
C343 C345 1.350 . S
C343 H352 0.930 . S
N344 C342 1.347 . S
N344 C345 1.373 . S
C345 C343 1.350 . S
C345 N344 1.373 . S
C345 H359 0.931 . S
C346 O349 1.256 . S
C346 O350 1.255 . S
O347 Co330 2.021 . S
O347 C340 1.259 . S
O348 Co332 2.117 . S
O348 C340 1.258 . S
O349 Co332 2.020 . S
O349 C346 1.256 . S
O350 Co330 2.062 . S
O350 C346 1.255 . S
O351 C331 1.259 . S
O351 Co332 2.021 . S
H352 C343 0.930 . S
H353 C342 0.931 . S
O354 Co330 2.117 . S
O354 C331 1.258 . S
O355 Co330 2.020 . S
O355 C357 1.256 . S
O356 Co332 2.062 . S
O356 C357 1.255 . S
C357 O355 1.256 . S
C357 O356 1.255 . S
H358 C337 0.931 . S
H359 C345 0.931 . S
Co360 N365 2.057 . S
Co360 O377 2.021 . S
Co360 O380 2.062 . S
Co360 O384 2.117 . S
Co360 O385 2.020 . S
C361 O381 1.259 . S
C361 O384 1.258 . S
Co362 N371 2.057 . S
Co362 O378 2.117 . S
Co362 O379 2.020 . S
Co362 O381 2.021 . S
Co362 O386 2.062 . S
C363 N365 1.316 . S
C363 N366 1.347 . S
C363 H368 0.931 . S
C364 N365 1.375 . S
C364 C367 1.350 . S
C364 H369 0.930 . S
N365 Co360 2.057 . S
N365 C363 1.316 . S
N365 C364 1.375 . S
N366 C363 1.347 . S
N366 C367 1.373 . S
C367 C364 1.350 . S
C367 N366 1.373 . S
C367 H388 0.931 . S
H368 C363 0.931 . S
H369 C364 0.930 . S
C370 O377 1.259 . S
C370 O378 1.258 . S
N371 Co362 2.057 . S
N371 C372 1.316 . S
N371 C373 1.375 . S
C372 N371 1.316 . S
C372 N374 1.347 . S
C372 H383 0.931 . S
C373 N371 1.375 . S
C373 C375 1.350 . S
C373 H382 0.930 . S
N374 C372 1.347 . S
N374 C375 1.373 . S
C375 C373 1.350 . S
C375 N374 1.373 . S
C375 H389 0.931 . S
C376 O379 1.256 . S
C376 O380 1.255 . S
O377 Co360 2.021 . S
O377 C370 1.259 . S
O378 Co362 2.117 . S
O378 C370 1.258 . S
O379 Co362 2.020 . S
O379 C376 1.256 . S
O380 Co360 2.062 . S
O380 C376 1.255 . S
O381 C361 1.259 . S
O381 Co362 2.021 . S
H382 C373 0.930 . S
H383 C372 0.931 . S
O384 Co360 2.117 . S
O384 C361 1.258 . S
O385 Co360 2.020 . S
O385 C387 1.256 . S
O386 Co362 2.062 . S
O386 C387 1.255 . S
C387 O385 1.256 . S
C387 O386 1.255 . S
H388 C367 0.931 . S
H389 C375 0.931 . S
Co390 N395 2.057 . S
Co390 O407 2.021 . S
Co390 O410 2.062 . S
Co390 O414 2.117 . S
Co390 O415 2.020 . S
C391 O411 1.259 . S
C391 O414 1.258 . S
Co392 N401 2.057 . S
Co392 O408 2.117 . S
Co392 O409 2.020 . S
Co392 O411 2.021 . S
Co392 O416 2.062 . S
C393 N395 1.316 . S
C393 N396 1.347 . S
C393 H398 0.931 . S
C394 N395 1.375 . S
C394 C397 1.350 . S
C394 H399 0.930 . S
N395 Co390 2.057 . S
N395 C393 1.316 . S
N395 C394 1.375 . S
N396 C393 1.347 . S
N396 C397 1.373 . S
C397 C394 1.350 . S
C397 N396 1.373 . S
C397 H418 0.931 . S
H398 C393 0.931 . S
H399 C394 0.930 . S
C400 O407 1.259 . S
C400 O408 1.258 . S
N401 Co392 2.057 . S
N401 C402 1.316 . S
N401 C403 1.375 . S
C402 N401 1.316 . S
C402 N404 1.347 . S
C402 H413 0.931 . S
C403 N401 1.375 . S
C403 C405 1.350 . S
C403 H412 0.930 . S
N404 C402 1.347 . S
N404 C405 1.373 . S
C405 C403 1.350 . S
C405 N404 1.373 . S
C405 H419 0.931 . S
C406 O409 1.256 . S
C406 O410 1.255 . S
O407 Co390 2.021 . S
O407 C400 1.259 . S
O408 Co392 2.117 . S
O408 C400 1.258 . S
O409 Co392 2.020 . S
O409 C406 1.256 . S
O410 Co390 2.062 . S
O410 C406 1.255 . S
O411 C391 1.259 . S
O411 Co392 2.021 . S
H412 C403 0.930 . S
H413 C402 0.931 . S
O414 Co390 2.117 . S
O414 C391 1.258 . S
O415 Co390 2.020 . S
O415 C417 1.256 . S
O416 Co392 2.062 . S
O416 C417 1.255 . S
C417 O415 1.256 . S
C417 O416 1.255 . S
H418 C397 0.931 . S
H419 C405 0.931 . S
Co420 N425 2.057 . S
Co420 O437 2.021 . S
Co420 O440 2.062 . S
Co420 O444 2.117 . S
Co420 O445 2.020 . S
C421 O441 1.259 . S
C421 O444 1.258 . S
Co422 N431 2.057 . S
Co422 O438 2.117 . S
Co422 O439 2.020 . S
Co422 O441 2.021 . S
Co422 O446 2.062 . S
C423 N425 1.316 . S
C423 N426 1.347 . S
C423 H428 0.931 . S
C424 N425 1.375 . S
C424 C427 1.350 . S
C424 H429 0.930 . S
N425 Co420 2.057 . S
N425 C423 1.316 . S
N425 C424 1.375 . S
N426 C423 1.347 . S
N426 C427 1.373 . S
C427 C424 1.350 . S
C427 N426 1.373 . S
C427 H448 0.931 . S
H428 C423 0.931 . S
H429 C424 0.930 . S
C430 O437 1.259 . S
C430 O438 1.258 . S
N431 Co422 2.057 . S
N431 C432 1.316 . S
N431 C433 1.375 . S
C432 N431 1.316 . S
C432 N434 1.347 . S
C432 H443 0.931 . S
C433 N431 1.375 . S
C433 C435 1.350 . S
C433 H442 0.930 . S
N434 C432 1.347 . S
N434 C435 1.373 . S
C435 C433 1.350 . S
C435 N434 1.373 . S
C435 H449 0.931 . S
C436 O439 1.256 . S
C436 O440 1.255 . S
O437 Co420 2.021 . S
O437 C430 1.259 . S
O438 Co422 2.117 . S
O438 C430 1.258 . S
O439 Co422 2.020 . S
O439 C436 1.256 . S
O440 Co420 2.062 . S
O440 C436 1.255 . S
O441 C421 1.259 . S
O441 Co422 2.021 . S
H442 C433 0.930 . S
H443 C432 0.931 . S
O444 Co420 2.117 . S
O444 C421 1.258 . S
O445 Co420 2.020 . S
O445 C447 1.256 . S
O446 Co422 2.062 . S
O446 C447 1.255 . S
C447 O445 1.256 . S
C447 O446 1.255 . S
H448 C427 0.931 . S
H449 C435 0.931 . S
Co450 N455 2.057 . S
Co450 O467 2.021 . S
Co450 O470 2.062 . S
Co450 O474 2.117 . S
Co450 O475 2.020 . S
C451 O471 1.259 . S
C451 O474 1.258 . S
Co452 N461 2.057 . S
Co452 O468 2.117 . S
Co452 O469 2.020 . S
Co452 O471 2.021 . S
Co452 O476 2.062 . S
C453 N455 1.316 . S
C453 N456 1.347 . S
C453 H458 0.931 . S
C454 N455 1.375 . S
C454 C457 1.350 . S
C454 H459 0.930 . S
N455 Co450 2.057 . S
N455 C453 1.316 . S
N455 C454 1.375 . S
N456 C453 1.347 . S
N456 C457 1.373 . S
C457 C454 1.350 . S
C457 N456 1.373 . S
C457 H478 0.931 . S
H458 C453 0.931 . S
H459 C454 0.930 . S
C460 O467 1.259 . S
C460 O468 1.258 . S
N461 Co452 2.057 . S
N461 C462 1.316 . S
N461 C463 1.375 . S
C462 N461 1.316 . S
C462 N464 1.347 . S
C462 H473 0.931 . S
C463 N461 1.375 . S
C463 C465 1.350 . S
C463 H472 0.930 . S
N464 C462 1.347 . S
N464 C465 1.373 . S
C465 C463 1.350 . S
C465 N464 1.373 . S
C465 H479 0.931 . S
C466 O469 1.256 . S
C466 O470 1.255 . S
O467 Co450 2.021 . S
O467 C460 1.259 . S
O468 Co452 2.117 . S
O468 C460 1.258 . S
O469 Co452 2.020 . S
O469 C466 1.256 . S
O470 Co450 2.062 . S
O470 C466 1.255 . S
O471 C451 1.259 . S
O471 Co452 2.021 . S
H472 C463 0.930 . S
H473 C462 0.931 . S
O474 Co450 2.117 . S
O474 C451 1.258 . S
O475 Co450 2.020 . S
O475 C477 1.256 . S
O476 Co452 2.062 . S
O476 C477 1.255 . S
C477 O475 1.256 . S
C477 O476 1.255 . S
H478 C457 0.931 . S
H479 C465 0.931 . S
N6 N276 1.493 . S
N36 N246 1.493 . S
N336 N66 1.493 . S
N96 N306 1.493 . S
N404 N134 1.493 . S
N374 N164 1.493 . S
N464 N194 1.493 . S
N224 N434 1.493 . S
C61 C1 1.689 1_565 S
C91 C31 1.689 1_545 S
C190 C130 1.689 1_545 S
C160 C220 1.689 1_545 S
C301 C241 1.690 . S
C331 C271 1.690 . S
C370 C430 1.690 . S
C400 C460 1.690 . S
C151 C10 1.516 1_556 S
C121 C40 1.516 1_556 S
C70 C211 1.516 . S
C181 C100 1.516 . S
C250 C391 1.516 1_554 S
C361 C280 1.516 1_556 S
C310 C451 1.516 . S
C421 C340 1.516 . S
N44 N14 1.361 1_645 S
N104 N74 1.361 1_665 S
N156 N126 1.361 1_465 S
N186 N216 1.361 1_665 S
N284 N254 1.361 . S
N344 N314 1.361 . S
N366 N396 1.361 . S
N426 N456 1.361 . S
C27 C16 1.475 . S
C57 C46 1.475 . S
C87 C76 1.475 . S
C106 C117 1.475 . S
C136 C147 1.475 . S
C177 C166 1.475 . S
C196 C207 1.475 . S
C226 C237 1.475 . S
C256 C267 1.475 1_565 S
C297 C286 1.475 1_565 S
C316 C327 1.475 1_545 S
C346 C357 1.475 1_565 S
C376 C387 1.475 1_565 S
C406 C417 1.475 1_545 S
C447 C436 1.475 1_565 S
C466 C477 1.475 1_565 S
