# Generated by pormake.
# Topology whr, (6)-cn, num edge types: 1
# Building blocks:
#     Node 0, Type 0, BuildingBlock: VOLQOD_clean_sbu_1, # of connection points: 6
#     Node 1, Type 0, BuildingBlock: VOLQOD_clean_sbu_1, # of connection points: 6
#     Node 2, Type 0, BuildingBlock: VOLQOD_clean_sbu_1, # of connection points: 6
#     Node 3, Type 0, BuildingBlock: VOLQOD_clean_sbu_1, # of connection points: 6
#     Node 4, Type 0, BuildingBlock: VOLQOD_clean_sbu_1, # of connection points: 6
#     Node 5, Type 0, BuildingBlock: VOLQOD_clean_sbu_1, # of connection points: 6
#     Node 6, Type 0, BuildingBlock: VOLQOD_clean_sbu_1, # of connection points: 6
#     Node 7, Type 0, BuildingBlock: VOLQOD_clean_sbu_1, # of connection points: 6
#     Node 8, Type 0, BuildingBlock: VOLQOD_clean_sbu_1, # of connection points: 6
#     Node 9, Type 0, BuildingBlock: VOLQOD_clean_sbu_1, # of connection points: 6
#     Node 10, Type 0, BuildingBlock: VOLQOD_clean_sbu_1, # of connection points: 6
#     Node 11, Type 0, BuildingBlock: VOLQOD_clean_sbu_1, # of connection points: 6
#     Node 12, Type 0, BuildingBlock: VOLQOD_clean_sbu_1, # of connection points: 6
#     Node 13, Type 0, BuildingBlock: VOLQOD_clean_sbu_1, # of connection points: 6
#     Node 14, Type 0, BuildingBlock: VOLQOD_clean_sbu_1, # of connection points: 6
#     Node 15, Type 0, BuildingBlock: VOLQOD_clean_sbu_1, # of connection points: 6
#     Edge 16, Type (0, 0), BuildingBlock: TEMPAE_clean_linker_10, # of connection points: 2
#     Edge 17, Type (0, 0), BuildingBlock: TEMPAE_clean_linker_10, # of connection points: 2
#     Edge 18, Type (0, 0), BuildingBlock: TEMPAE_clean_linker_10, # of connection points: 2
#     Edge 19, Type (0, 0), BuildingBlock: TEMPAE_clean_linker_10, # of connection points: 2
#     Edge 20, Type (0, 0), BuildingBlock: TEMPAE_clean_linker_10, # of connection points: 2
#     Edge 21, Type (0, 0), BuildingBlock: TEMPAE_clean_linker_10, # of connection points: 2
#     Edge 22, Type (0, 0), BuildingBlock: TEMPAE_clean_linker_10, # of connection points: 2
#     Edge 23, Type (0, 0), BuildingBlock: TEMPAE_clean_linker_10, # of connection points: 2
#     Edge 24, Type (0, 0), BuildingBlock: TEMPAE_clean_linker_10, # of connection points: 2
#     Edge 25, Type (0, 0), BuildingBlock: TEMPAE_clean_linker_10, # of connection points: 2
#     Edge 26, Type (0, 0), BuildingBlock: TEMPAE_clean_linker_10, # of connection points: 2
#     Edge 27, Type (0, 0), BuildingBlock: TEMPAE_clean_linker_10, # of connection points: 2
#     Edge 28, Type (0, 0), BuildingBlock: TEMPAE_clean_linker_10, # of connection points: 2
#     Edge 29, Type (0, 0), BuildingBlock: TEMPAE_clean_linker_10, # of connection points: 2
#     Edge 30, Type (0, 0), BuildingBlock: TEMPAE_clean_linker_10, # of connection points: 2
#     Edge 31, Type (0, 0), BuildingBlock: TEMPAE_clean_linker_10, # of connection points: 2
#     Edge 32, Type (0, 0), BuildingBlock: TEMPAE_clean_linker_10, # of connection points: 2
#     Edge 33, Type (0, 0), BuildingBlock: TEMPAE_clean_linker_10, # of connection points: 2
#     Edge 34, Type (0, 0), BuildingBlock: TEMPAE_clean_linker_10, # of connection points: 2
#     Edge 35, Type (0, 0), BuildingBlock: TEMPAE_clean_linker_10, # of connection points: 2
#     Edge 36, Type (0, 0), BuildingBlock: TEMPAE_clean_linker_10, # of connection points: 2
#     Edge 37, Type (0, 0), BuildingBlock: TEMPAE_clean_linker_10, # of connection points: 2
#     Edge 38, Type (0, 0), BuildingBlock: TEMPAE_clean_linker_10, # of connection points: 2
#     Edge 39, Type (0, 0), BuildingBlock: TEMPAE_clean_linker_10, # of connection points: 2
#     Edge 40, Type (0, 0), BuildingBlock: TEMPAE_clean_linker_10, # of connection points: 2
#     Edge 41, Type (0, 0), BuildingBlock: TEMPAE_clean_linker_10, # of connection points: 2
#     Edge 42, Type (0, 0), BuildingBlock: TEMPAE_clean_linker_10, # of connection points: 2
#     Edge 43, Type (0, 0), BuildingBlock: TEMPAE_clean_linker_10, # of connection points: 2
#     Edge 44, Type (0, 0), BuildingBlock: TEMPAE_clean_linker_10, # of connection points: 2
#     Edge 45, Type (0, 0), BuildingBlock: TEMPAE_clean_linker_10, # of connection points: 2
#     Edge 46, Type (0, 0), BuildingBlock: TEMPAE_clean_linker_10, # of connection points: 2
#     Edge 47, Type (0, 0), BuildingBlock: TEMPAE_clean_linker_10, # of connection points: 2
#     Edge 48, Type (0, 0), BuildingBlock: TEMPAE_clean_linker_10, # of connection points: 2
#     Edge 49, Type (0, 0), BuildingBlock: TEMPAE_clean_linker_10, # of connection points: 2
#     Edge 50, Type (0, 0), BuildingBlock: TEMPAE_clean_linker_10, # of connection points: 2
#     Edge 51, Type (0, 0), BuildingBlock: TEMPAE_clean_linker_10, # of connection points: 2
#     Edge 52, Type (0, 0), BuildingBlock: TEMPAE_clean_linker_10, # of connection points: 2
#     Edge 53, Type (0, 0), BuildingBlock: TEMPAE_clean_linker_10, # of connection points: 2
#     Edge 54, Type (0, 0), BuildingBlock: TEMPAE_clean_linker_10, # of connection points: 2
#     Edge 55, Type (0, 0), BuildingBlock: TEMPAE_clean_linker_10, # of connection points: 2
#     Edge 56, Type (0, 0), BuildingBlock: TEMPAE_clean_linker_10, # of connection points: 2
#     Edge 57, Type (0, 0), BuildingBlock: TEMPAE_clean_linker_10, # of connection points: 2
#     Edge 58, Type (0, 0), BuildingBlock: TEMPAE_clean_linker_10, # of connection points: 2
#     Edge 59, Type (0, 0), BuildingBlock: TEMPAE_clean_linker_10, # of connection points: 2
#     Edge 60, Type (0, 0), BuildingBlock: TEMPAE_clean_linker_10, # of connection points: 2
#     Edge 61, Type (0, 0), BuildingBlock: TEMPAE_clean_linker_10, # of connection points: 2
#     Edge 62, Type (0, 0), BuildingBlock: TEMPAE_clean_linker_10, # of connection points: 2
#     Edge 63, Type (0, 0), BuildingBlock: TEMPAE_clean_linker_10, # of connection points: 2
# Relax obj value: 0.383
# Max RMSD: 0.249
# Mean RMSD: 0.247
data_MOF--net-whr--node1-VOLQOD_clean_sbu_1--edge1-TEMPAE_clean_linker_10
_symmetry_space_group_name_H-M    P1
_symmetry_Int_Tables_number       1
_symmetry_cell_setting            triclinic
loop_
_symmetry_equiv_pos_as_xyz
'x, y, z'
_cell_length_a     51.732786
_cell_length_b     51.764442
_cell_length_c     29.477102
_cell_angle_alpha  89.956204
_cell_angle_beta   90.041713
_cell_angle_gamma 90.017786
loop_
_atom_site_label
_atom_site_type_symbol
_atom_site_fract_x
_atom_site_fract_y
_atom_site_fract_z
_atom_type_partial_charge
O0 O 0.17849 0.05303 0.13654 0.0
Zn1 Zn 0.18516 0.03822 0.07551 0.0
O2 O 0.2209 0.0425 0.05807 0.0
Zn3 Zn 0.23715 0.00857 0.0521 0.0
Zn4 Zn 0.23869 0.06218 0.10429 0.0
Zn5 Zn 0.22223 0.06177 0.0017 0.0
O6 O 0.25576 0.00627 0.99119 0.0
O7 O 0.23716 0.03899 0.95386 0.0
O8 O 0.17416 0.0013 0.07355 0.0
O9 O 0.20957 0.98065 0.05153 0.0
O10 O 0.25984 0.00093 0.10754 0.0
O11 O 0.2612 0.03935 0.14085 0.0
O12 O 0.25985 0.09085 0.0783 0.0
O13 O 0.16175 0.05831 0.03471 0.0
O14 O 0.24569 0.09254 0.00721 0.0
O15 O 0.18727 0.07538 0.98239 0.0
C16 C 0.19075 0.0698 0.15957 0.0
C17 C 0.25149 0.01899 0.95478 0.0
C18 C 0.26741 0.01562 0.13974 0.0
C19 C 0.18568 0.9806 0.06215 0.0
C20 C 0.25972 0.10124 0.03921 0.0
C21 C 0.16495 0.07235 -0.00024 0.0
O22 O 0.21349 0.0769 0.14889 0.0
O23 O 0.0577 0.8046 0.86003 0.0
Zn24 Zn 0.04033 0.80336 0.92101 0.0
O25 O 0.04207 0.76957 0.94803 0.0
Zn26 Zn 0.00823 0.75374 0.95053 0.0
Zn27 Zn 0.06476 0.75019 0.91026 0.0
Zn28 Zn 0.05668 0.77119 0.00786 0.0
O29 O 0.00183 0.73856 0.014 0.0
O30 O 0.02893 0.76379 0.05292 0.0
O31 O 0.00377 0.81576 0.91746 0.0
O32 O 0.98149 0.78183 0.9422 0.0
O33 O 0.00403 0.729 0.89679 0.0
O34 O 0.04373 0.72906 0.86778 0.0
O35 O 0.08728 0.72727 0.94684 0.0
O36 O 0.06081 0.82813 0.95895 0.0
O37 O 0.08329 0.74321 0.01631 0.0
O38 O 0.07352 0.80579 0.01929 0.0
C39 C 0.07926 0.79386 0.85129 0.0
C40 C 0.01 0.74803 0.05148 0.0
C41 C 0.02016 0.72206 0.86624 0.0
C42 C 0.98242 0.80514 0.92818 0.0
C43 C 0.09309 0.72703 0.98875 0.0
C44 C 0.07327 0.82659 0.99612 0.0
O45 O 0.08685 0.77406 0.87317 0.0
O46 O 0.81357 0.93872 0.13182 0.0
Zn47 Zn 0.80856 0.95226 0.06855 0.0
O48 O 0.77363 0.94767 0.04676 0.0
Zn49 Zn 0.75621 0.98093 0.04118 0.0
Zn50 Zn 0.75664 0.92567 0.08998 0.0
Zn51 Zn 0.77383 0.93069 0.98874 0.0
O52 O 0.73854 0.98438 0.97889 0.0
O53 O 0.76156 0.95495 0.94139 0.0
O54 O 0.81893 0.9892 0.06558 0.0
O55 O 0.7832 0.00939 0.04328 0.0
O56 O 0.73261 0.98606 0.09611 0.0
O57 O 0.73307 0.94706 0.12797 0.0
O58 O 0.73738 0.89708 0.06017 0.0
O59 O 0.83303 0.9319 0.02983 0.0
O60 O 0.74916 0.90086 0.98795 0.0
O61 O 0.8091 0.91702 0.97307 0.0
C62 C 0.80278 0.91897 0.14912 0.0
C63 C 0.74587 0.9739 0.94176 0.0
C64 C 0.7257 0.97053 0.12763 0.0
C65 C 0.80707 0.00974 0.0542 0.0
C66 C 0.73647 0.88961 0.01915 0.0
C67 C 0.83076 0.91895 0.99334 0.0
O68 O 0.78211 0.90957 0.13262 0.0
O69 O 0.9418 0.18343 0.84848 0.0
Zn70 Zn 0.95495 0.18602 0.91241 0.0
O71 O 0.95103 0.2206 0.93664 0.0
Zn72 Zn 0.98477 0.23634 0.94757 0.0
Zn73 Zn 0.93181 0.24057 0.89299 0.0
Zn74 Zn 0.9315 0.21946 0.99233 0.0
O75 O 0.9865 0.25174 0.01173 0.0
O76 O 0.95394 0.23021 0.0439 0.0
O77 O 0.99186 0.17448 0.91553 0.0
O78 O 0.01223 0.20843 0.94475 0.0
O79 O 0.99325 0.26165 0.89633 0.0
O80 O 0.95552 0.26414 0.86047 0.0
O81 O 0.90391 0.26129 0.92172 0.0
O82 O 0.93322 0.16091 0.94803 0.0
O83 O 0.90159 0.24409 0.99061 0.0
O84 O 0.91694 0.1843 0.00415 0.0
C85 C 0.92415 0.19644 0.82884 0.0
C86 C 0.97382 0.24463 0.04684 0.0
C87 C 0.97916 0.27047 0.86424 0.0
C88 C 0.01237 0.18522 0.93022 0.0
C89 C 0.89348 0.25982 0.96064 0.0
C90 C 0.91911 0.16293 0.98324 0.0
O91 O 0.91615 0.21775 0.84517 0.0
O92 O 0.73431 0.02383 0.47555 0.0
Zn93 Zn 0.74291 0.04425 0.53308 0.0
O94 O 0.77993 0.05162 0.53587 0.0
Zn95 Zn 0.79354 0.04216 0.59424 0.0
Zn96 Zn 0.79807 0.03222 0.49097 0.0
Zn97 Zn 0.78703 0.08777 0.52388 0.0
O98 O 0.81607 0.07001 0.61995 0.0
O99 O 0.80835 0.10316 0.57401 0.0
O100 O 0.72944 0.02932 0.59339 0.0
O101 O 0.76399 0.03784 0.6361 0.0
O102 O 0.81318 0.00839 0.59218 0.0
O103 O 0.81374 0.00058 0.5182 0.0
O104 O 0.82663 0.05385 0.46398 0.0
O105 O 0.72406 0.0778 0.52564 0.0
O106 O 0.80904 0.09281 0.46871 0.0
O107 O 0.75435 0.10789 0.51772 0.0
C108 C 0.74872 0.01787 0.44191 0.0
C109 C 0.81927 0.09356 0.60885 0.0
C110 C 0.819 0.99395 0.55875 0.0
C111 C 0.74033 0.03158 0.63215 0.0
C112 C 0.82672 0.07785 0.45435 0.0
C113 C 0.7307 0.10124 0.51962 0.0
O114 O 0.77312 0.02125 0.44313 0.0
O115 O 0.06893 0.16485 0.39565 0.0
Zn116 Zn 0.04522 0.17587 0.44502 0.0
O117 O 0.05013 0.21176 0.4597 0.0
Zn118 Zn 0.01715 0.22996 0.45647 0.0
Zn119 Zn 0.07366 0.22658 0.41663 0.0
Zn120 Zn 0.06605 0.21421 0.51886 0.0
O121 O 0.0119 0.25047 0.51508 0.0
O122 O 0.04132 0.23188 0.56031 0.0
O123 O 0.00849 0.16802 0.42927 0.0
O124 O 0.98808 0.20372 0.45144 0.0
O125 O 0.01486 0.25135 0.39753 0.0
O126 O 0.05411 0.24513 0.36929 0.0
O127 O 0.09799 0.25104 0.44624 0.0
O128 O 0.05635 0.15305 0.49597 0.0
O129 O 0.09716 0.23749 0.51768 0.0
O130 O 0.07696 0.17925 0.54315 0.0
C131 C 0.0886 0.17556 0.37795 0.0
C132 C 0.0223 0.24709 0.55402 0.0
C133 C 0.03136 0.25412 0.36557 0.0
C134 C 0.98777 0.18053 0.43681 0.0
C135 C 0.10634 0.25197 0.48676 0.0
C136 C 0.07055 0.15657 0.53065 0.0
O137 O 0.094 0.19918 0.38501 0.0
O138 O 0.17863 0.92587 0.64174 0.0
Zn139 Zn 0.18267 0.94462 0.58242 0.0
O140 O 0.21725 0.9419 0.55836 0.0
Zn141 Zn 0.23325 0.97583 0.55502 0.0
Zn142 Zn 0.23598 0.92023 0.5994 0.0
Zn143 Zn 0.21721 0.9251 0.49982 0.0
O144 O 0.25052 0.9804 0.49309 0.0
O145 O 0.2303 0.94978 0.45301 0.0
O146 O 0.17177 0.98158 0.58865 0.0
O147 O 0.20544 0.00331 0.56124 0.0
O148 O 0.25751 0.98088 0.60919 0.0
O149 O 0.25642 0.94204 0.64133 0.0
O150 O 0.25986 0.89678 0.567 0.0
O151 O 0.15805 0.92639 0.54068 0.0
O152 O 0.24235 0.89539 0.49831 0.0
O153 O 0.18188 0.91151 0.48379 0.0
C154 C 0.19024 0.90536 0.65404 0.0
C155 C 0.24514 0.96937 0.45545 0.0
C156 C 0.26389 0.96545 0.64118 0.0
C157 C 0.1825 0.00273 0.57711 0.0
C158 C 0.259 0.88764 0.52706 0.0
C159 C 0.16019 0.91369 0.50387 0.0
O160 O 0.21162 0.89865 0.63637 0.0
O161 O 0.92546 0.82659 0.39314 0.0
Zn162 Zn 0.9453 0.81527 0.44823 0.0
O163 O 0.93895 0.77964 0.46335 0.0
Zn164 Zn 0.97057 0.75946 0.45713 0.0
Zn165 Zn 0.91238 0.7677 0.42294 0.0
Zn166 Zn 0.92611 0.77685 0.52435 0.0
O167 O 0.97704 0.7382 0.51492 0.0
O168 O 0.95353 0.76166 0.56328 0.0
O169 O 0.98271 0.82204 0.43909 0.0
O170 O 0.00125 0.78391 0.45102 0.0
O171 O 0.96896 0.73876 0.39802 0.0
O172 O 0.92915 0.74729 0.37365 0.0
O173 O 0.88631 0.74586 0.45487 0.0
O174 O 0.93264 0.83801 0.49835 0.0
O175 O 0.89633 0.75195 0.5274 0.0
O176 O 0.9149 0.81151 0.54881 0.0
C177 C 0.90343 0.81872 0.37986 0.0
C178 C 0.97055 0.74451 0.55529 0.0
C179 C 0.95125 0.73695 0.36786 0.0
C180 C 0.00281 0.80803 0.44246 0.0
C181 C 0.88248 0.74152 0.49678 0.0
C182 C 0.92012 0.83423 0.53492 0.0
O183 O 0.89403 0.79734 0.3933 0.0
O184 O 0.67188 0.54634 0.63044 0.0
Zn185 Zn 0.68205 0.53335 0.56987 0.0
O186 O 0.71862 0.5376 0.55887 0.0
Zn187 Zn 0.73482 0.50341 0.5534 0.0
Zn188 Zn 0.73328 0.55724 0.60891 0.0
Zn189 Zn 0.72323 0.55747 0.50357 0.0
O190 O 0.75298 0.50018 0.49224 0.0
O191 O 0.73816 0.53494 0.45559 0.0
O192 O 0.67113 0.4967 0.5666 0.0
O193 O 0.70751 0.475 0.55474 0.0
O194 O 0.75871 0.49705 0.60744 0.0
O195 O 0.75795 0.53506 0.64264 0.0
O196 O 0.75233 0.58877 0.58802 0.0
O197 O 0.66114 0.55438 0.52681 0.0
O198 O 0.74853 0.58628 0.51307 0.0
O199 O 0.68965 0.57349 0.48185 0.0
C200 C 0.6829 0.56079 0.65932 0.0
C201 C 0.75074 0.51383 0.45635 0.0
C202 C 0.76595 0.5119 0.63963 0.0
C203 C 0.68311 0.47555 0.56078 0.0
C204 C 0.75751 0.59708 0.54847 0.0
C205 C 0.66641 0.56996 0.49478 0.0
O206 O 0.70628 0.56788 0.65434 0.0
O207 O 0.54761 0.31608 0.36269 0.0
Zn208 Zn 0.53037 0.30825 0.42125 0.0
O209 O 0.53424 0.27234 0.43772 0.0
Zn210 Zn 0.50034 0.25583 0.44175 0.0
Zn211 Zn 0.55533 0.2555 0.39246 0.0
Zn212 Zn 0.55198 0.27035 0.49533 0.0
O213 O 0.49623 0.23811 0.50326 0.0
O214 O 0.52748 0.25792 0.54238 0.0
O215 O 0.49332 0.31885 0.41843 0.0
O216 O 0.47219 0.2831 0.43767 0.0
O217 O 0.49486 0.2318 0.38771 0.0
O218 O 0.53346 0.23267 0.35458 0.0
O219 O 0.58299 0.23401 0.42041 0.0
O220 O 0.54951 0.33114 0.46434 0.0
O221 O 0.58068 0.24445 0.49319 0.0
O222 O 0.56776 0.30439 0.51353 0.0
C223 C 0.56538 0.30445 0.34111 0.0
C224 C 0.50761 0.24347 0.54057 0.0
C225 C 0.51017 0.22489 0.35599 0.0
C226 C 0.47233 0.30695 0.42674 0.0
C227 C 0.59087 0.23164 0.46104 0.0
C228 C 0.5645 0.32706 0.4978 0.0
O229 O 0.57183 0.28136 0.35072 0.0
O230 O 0.31564 0.44442 0.62945 0.0
Zn231 Zn 0.30634 0.45831 0.56868 0.0
O232 O 0.26983 0.45457 0.55579 0.0
Zn233 Zn 0.25456 0.489 0.54677 0.0
Zn234 Zn 0.25349 0.43715 0.60663 0.0
Zn235 Zn 0.26574 0.43282 0.50244 0.0
O236 O 0.23522 0.49 0.48635 0.0
O237 O 0.24654 0.45248 0.45497 0.0
O238 O 0.31822 0.49477 0.56298 0.0
O239 O 0.2829 0.51621 0.54268 0.0
O240 O 0.23169 0.49856 0.60118 0.0
O241 O 0.23082 0.46151 0.63938 0.0
O242 O 0.23219 0.40683 0.58762 0.0
O243 O 0.3274 0.43708 0.52625 0.0
O244 O 0.24435 0.40163 0.51606 0.0
O245 O 0.29974 0.41935 0.47812 0.0
C246 C 0.30367 0.42988 0.65712 0.0
C247 C 0.23479 0.47409 0.45321 0.0
C248 C 0.224 0.48495 0.63477 0.0
C249 C 0.30708 0.51561 0.55119 0.0
C250 C 0.23166 0.39427 0.55062 0.0
C251 C 0.32273 0.42254 0.49251 0.0
O252 O 0.2799 0.42438 0.65153 0.0
O253 O 0.44892 0.68454 0.33915 0.0
Zn254 Zn 0.46065 0.68754 0.40361 0.0
O255 O 0.45665 0.72247 0.42618 0.0
Zn256 Zn 0.49043 0.73827 0.43708 0.0
Zn257 Zn 0.43784 0.74207 0.38138 0.0
Zn258 Zn 0.43655 0.7219 0.48133 0.0
O259 O 0.4918 0.75391 0.50095 0.0
O260 O 0.45872 0.73308 0.53299 0.0
O261 O 0.49743 0.67595 0.40818 0.0
O262 O 0.518 0.71042 0.43503 0.0
O263 O 0.4991 0.76358 0.38584 0.0
O264 O 0.46137 0.76625 0.35009 0.0
O265 O 0.40898 0.76223 0.40801 0.0
O266 O 0.43798 0.66282 0.43866 0.0
O267 O 0.4067 0.74664 0.47801 0.0
O268 O 0.42152 0.68687 0.49374 0.0
C269 C 0.43204 0.69757 0.31765 0.0
C270 C 0.47877 0.74728 0.53593 0.0
C271 C 0.48496 0.77266 0.35405 0.0
C272 C 0.51802 0.68695 0.42183 0.0
C273 C 0.39841 0.76151 0.44686 0.0
C274 C 0.42352 0.66531 0.47335 0.0
O275 O 0.4237 0.71903 0.33275 0.0
O276 O 0.23501 0.52591 0.98329 0.0
Zn277 Zn 0.24592 0.5416 0.04403 0.0
O278 O 0.28255 0.55049 0.04133 0.0
Zn279 Zn 0.30034 0.53916 0.09486 0.0
Zn280 Zn 0.29968 0.53561 0.98975 0.0
Zn281 Zn 0.28629 0.58731 0.03457 0.0
O282 O 0.32193 0.56737 0.12213 0.0
O283 O 0.3125 0.60083 0.07792 0.0
O284 O 0.2378 0.52052 0.10123 0.0
O285 O 0.27455 0.52676 0.13919 0.0
O286 O 0.32315 0.50884 0.08214 0.0
O287 O 0.3205 0.50427 0.00752 0.0
O288 O 0.32358 0.56223 0.96141 0.0
O289 O 0.22476 0.57389 0.05117 0.0
O290 O 0.30013 0.59718 0.97405 0.0
O291 O 0.25322 0.60575 0.04544 0.0
C292 C 0.24805 0.52173 0.94718 0.0
C293 C 0.325 0.59088 0.11066 0.0
C294 C 0.32876 0.49667 0.04602 0.0
C295 C 0.25135 0.51865 0.1374 0.0
C296 C 0.31936 0.58626 0.95534 0.0
C297 C 0.23022 0.59786 0.05149 0.0
O298 O 0.27244 0.52517 0.9456 0.0
O299 O 0.5586 0.65941 0.89482 0.0
Zn300 Zn 0.54016 0.67587 0.94715 0.0
O301 O 0.54784 0.71237 0.95127 0.0
Zn302 Zn 0.51624 0.73307 0.94555 0.0
Zn303 Zn 0.57204 0.72159 0.9042 0.0
Zn304 Zn 0.56467 0.71813 0.00886 0.0
O305 O 0.51121 0.7545 0.00355 0.0
O306 O 0.54058 0.73664 0.04968 0.0
O307 O 0.50225 0.66953 0.94302 0.0
O308 O 0.48531 0.70907 0.93963 0.0
O309 O 0.51655 0.75439 0.88673 0.0
O310 O 0.55424 0.74251 0.85751 0.0
O311 O 0.6017 0.74247 0.92735 0.0
O312 O 0.55445 0.65632 -0.00056 0.0
O313 O 0.59453 0.74208 0.00158 0.0
O314 O 0.5779 0.68491 0.03716 0.0
C315 C 0.57748 0.66728 0.87087 0.0
C316 C 0.52167 0.75184 0.04263 0.0
C317 C 0.53302 0.75476 0.85444 0.0
C318 C 0.48291 0.68456 0.93959 0.0
C319 C 0.60746 0.74951 0.96736 0.0
C320 C 0.57084 0.66167 0.03015 0.0
O321 O 0.58558 0.69043 0.87297 0.0
O322 O 0.66762 0.42937 0.11589 0.0
Zn323 Zn 0.679 0.45097 0.06399 0.0
O324 O 0.71535 0.44594 0.05167 0.0
Zn325 Zn 0.73284 0.47951 0.05058 0.0
Zn326 Zn 0.73007 0.42433 0.09868 0.0
Zn327 Zn 0.71874 0.42773 0.99451 0.0
O328 O 0.75183 0.48404 0.99046 0.0
O329 O 0.73682 0.45059 0.95035 0.0
O330 O 0.67046 0.48805 0.07589 0.0
O331 O 0.70656 0.50847 0.05601 0.0
O332 O 0.75617 0.48348 0.10626 0.0
O333 O 0.75132 0.44545 0.14031 0.0
O334 O 0.75287 0.39707 0.07308 0.0
O335 O 0.65688 0.43735 0.01369 0.0
O336 O 0.74133 0.39647 0.00061 0.0
O337 O 0.68427 0.41594 0.96986 0.0
C338 C 0.67842 0.41172 0.13908 0.0
C339 C 0.75015 0.47118 0.9536 0.0
C340 C 0.7607 0.46814 0.13929 0.0
C341 C 0.68308 0.50879 0.06913 0.0
C342 C 0.75437 0.38743 0.03357 0.0
C343 C 0.66127 0.42214 0.98068 0.0
O344 O 0.70241 0.40683 0.13528 0.0
O345 O 0.42828 0.32873 0.88619 0.0
Zn346 Zn 0.4519 0.31548 0.93417 0.0
O347 O 0.44559 0.27943 0.94629 0.0
Zn348 Zn 0.4786 0.26093 0.94497 0.0
Zn349 Zn 0.42234 0.26601 0.90078 0.0
Zn350 Zn 0.4282 0.27661 0.00433 0.0
O351 O 0.48344 0.24141 0.00453 0.0
O352 O 0.45143 0.25767 0.04673 0.0
O353 O 0.48859 0.32266 0.91806 0.0
O354 O 0.50845 0.28642 0.9385 0.0
O355 O 0.48032 0.23757 0.889 0.0
O356 O 0.44182 0.24435 0.85754 0.0
O357 O 0.39522 0.24355 0.92803 0.0
O358 O 0.44301 0.33735 0.98743 0.0
O359 O 0.396 0.25493 0.00053 0.0
O360 O 0.4188 0.31158 0.02993 0.0
C361 C 0.40987 0.31867 0.86376 0.0
C362 C 0.4714 0.24355 0.04216 0.0
C363 C 0.46404 0.23387 0.85703 0.0
C364 C 0.50918 0.30978 0.92464 0.0
C365 C 0.38624 0.24205 0.96804 0.0
C366 C 0.42778 0.33388 0.02069 0.0
O367 O 0.4048 0.29465 0.86636 0.0
C368 C 0.15026 0.08486 0.19577 0.0
C369 C 0.17726 0.08294 0.19683 0.0
C370 C 0.13705 0.0995 0.22808 0.0
C371 C 0.15119 0.11197 0.26281 0.0
C372 C 0.17835 0.10914 0.26534 0.0
C373 C 0.19117 0.09487 0.23181 0.0
C374 C 0.10807 0.10241 0.22397 0.0
C375 C 0.19386 0.12163 0.30278 0.0
C376 C 0.11861 0.1707 0.31277 0.0
C377 C 0.10594 0.15983 0.35007 0.0
C378 C 0.13409 0.15541 0.28462 0.0
C379 C 0.13742 0.1289 0.29504 0.0
C380 C 0.1257 0.11818 0.33406 0.0
C381 C 0.10972 0.13374 0.36081 0.0
C382 C 0.14593 0.16732 0.24271 0.0
C383 C 0.12944 0.09016 0.34684 0.0
H384 H 0.13949 0.0758 0.16852 0.0
H385 H 0.21205 0.09317 0.2328 0.0
H386 H 0.09851 0.09595 0.25568 0.0
H387 H 0.10307 0.12307 0.21898 0.0
H388 H 0.09999 0.09115 0.1952 0.0
H389 H 0.21446 0.11556 0.30225 0.0
H390 H 0.19302 0.14295 0.29927 0.0
H391 H 0.1855 0.11668 0.33634 0.0
H392 H 0.11563 0.19093 0.30468 0.0
H393 H 0.10023 0.12551 0.39027 0.0
H394 H 0.13769 0.15806 0.21198 0.0
H395 H 0.16708 0.16389 0.24217 0.0
H396 H 0.1424 0.18846 0.24063 0.0
H397 H 0.11942 0.07765 0.32186 0.0
H398 H 0.1217 0.08576 0.38115 0.0
H399 H 0.15025 0.08503 0.34601 0.0
C400 C 0.12334 0.80855 0.83061 0.0
C401 C 0.09705 0.80669 0.81967 0.0
C402 C 0.14008 0.8237 0.80436 0.0
C403 C 0.13037 0.83651 0.76551 0.0
C404 C 0.10407 0.83359 0.75306 0.0
C405 C 0.08757 0.81906 0.78086 0.0
C406 C 0.1678 0.82697 0.8194 0.0
C407 C 0.09324 0.8463 0.71101 0.0
C408 C 0.16217 0.8974 0.72113 0.0
C409 C 0.17708 0.88766 0.68545 0.0
C410 C 0.14765 0.88077 0.74868 0.0
C411 C 0.14736 0.85396 0.73904 0.0
C412 C 0.16262 0.84403 0.70327 0.0
C413 C 0.17767 0.86101 0.67732 0.0
C414 C 0.13225 0.89193 0.78752 0.0
C415 C 0.1622 0.81568 0.69121 0.0
H416 H 0.13054 0.79924 0.86107 0.0
H417 H 0.06722 0.8175 0.77247 0.0
H418 H 0.18119 0.8219 0.79144 0.0
H419 H 0.17139 0.84752 0.82815 0.0
H420 H 0.17255 0.81486 0.8494 0.0
H421 H 0.0731 0.84008 0.70383 0.0
H422 H 0.09343 0.86759 0.71521 0.0
H423 H 0.10545 0.84168 0.68116 0.0
H424 H 0.16182 0.91804 0.72736 0.0
H425 H 0.18895 0.85358 0.64922 0.0
H426 H 0.1367 0.88141 0.81941 0.0
H427 H 0.11129 0.88952 0.78083 0.0
H428 H 0.13628 0.9128 0.79274 0.0
H429 H 0.16732 0.80379 0.72119 0.0
H430 H 0.17576 0.81098 0.66319 0.0
H431 H 0.14238 0.81003 0.68073 0.0
C432 C 0.90042 0.84693 0.31191 0.0
C433 C 0.88833 0.83483 0.34865 0.0
C434 C 0.88601 0.86148 0.28079 0.0
C435 C 0.85912 0.86469 0.28779 0.0
C436 C 0.84705 0.8533 0.32595 0.0
C437 C 0.86176 0.83803 0.35553 0.0
C438 C 0.89938 0.87267 0.23969 0.0
C439 C 0.8186 0.85706 0.33529 0.0
C440 C 0.82762 0.91903 0.22151 0.0
C441 C 0.81574 0.9053 0.18633 0.0
C442 C 0.84105 0.90597 0.25594 0.0
C443 C 0.84341 0.87875 0.25378 0.0
C444 C 0.83138 0.86486 0.2182 0.0
C445 C 0.81726 0.87833 0.1853 0.0
C446 C 0.85285 0.92126 0.29432 0.0
C447 C 0.83411 0.8359 0.21404 0.0
H448 H 0.921 0.84428 0.30672 0.0
H449 H 0.85258 0.82887 0.38444 0.0
H450 H 0.89061 0.86465 0.20834 0.0
H451 H 0.89669 0.89391 0.23863 0.0
H452 H 0.92043 0.86843 0.23939 0.0
H453 H 0.81272 0.84879 0.36852 0.0
H454 H 0.81376 0.87795 0.33494 0.0
H455 H 0.80699 0.8477 0.30826 0.0
H456 H 0.82622 0.93993 0.22223 0.0
H457 H 0.80825 0.86782 0.15767 0.0
H458 H 0.87422 0.91986 0.29287 0.0
H459 H 0.84666 0.91314 0.32744 0.0
H460 H 0.84734 0.942 0.29304 0.0
H461 H 0.85486 0.83068 0.21128 0.0
H462 H 0.82376 0.82811 0.18399 0.0
H463 H 0.82645 0.82629 0.24486 0.0
C464 C 0.83967 0.10418 0.68304 0.0
C465 C 0.83593 0.11013 0.63715 0.0
C466 C 0.85502 0.11992 0.71072 0.0
C467 C 0.86733 0.14185 0.69177 0.0
C468 C 0.86398 0.14776 0.64525 0.0
C469 C 0.84812 0.13189 0.6185 0.0
C470 C 0.85778 0.11325 0.7604 0.0
C471 C 0.87735 0.17058 0.62363 0.0
C472 C 0.88574 0.19264 0.77814 0.0
C473 C 0.91108 0.18525 0.78888 0.0
C474 C 0.8716 0.17942 0.74487 0.0
C475 C 0.8833 0.15869 0.72131 0.0
C476 C 0.90948 0.15239 0.7297 0.0
C477 C 0.92301 0.16559 0.76377 0.0
C478 C 0.84366 0.1866 0.73699 0.0
C479 C 0.92279 0.13082 0.70437 0.0
H480 H 0.83016 0.08744 0.69758 0.0
H481 H 0.84553 0.13632 0.58283 0.0
H482 H 0.87842 0.10991 0.76879 0.0
H483 H 0.85101 0.12963 0.78154 0.0
H484 H 0.84661 0.09573 0.76989 0.0
H485 H 0.87074 0.17395 0.58826 0.0
H486 H 0.87392 0.18839 0.64366 0.0
H487 H 0.89852 0.16717 0.62321 0.0
H488 H 0.87642 0.20783 0.79742 0.0
H489 H 0.94274 0.16006 0.77155 0.0
H490 H 0.83101 0.17062 0.74875 0.0
H491 H 0.8399 0.18939 0.70026 0.0
H492 H 0.8381 0.20451 0.75529 0.0
H493 H 0.91467 0.11197 0.71528 0.0
H494 H 0.94397 0.1306 0.7106 0.0
H495 H 0.91932 0.13267 0.66737 0.0
C496 C 0.59445 0.62318 0.85549 0.0
C497 C 0.59138 0.64894 0.84187 0.0
C498 C 0.60964 0.60613 0.82998 0.0
C499 C 0.62134 0.61503 0.78951 0.0
C500 C 0.61777 0.6409 0.77519 0.0
C501 C 0.60307 0.65765 0.80192 0.0
C502 C 0.61356 0.57882 0.84666 0.0
C503 C 0.62952 0.65091 0.73166 0.0
C504 C 0.67915 0.58417 0.73322 0.0
C505 C 0.66733 0.57137 0.69684 0.0
C506 C 0.66423 0.59704 0.76582 0.0
C507 C 0.637 0.5974 0.76124 0.0
C508 C 0.62493 0.58331 0.72606 0.0
C509 C 0.64026 0.57027 0.69447 0.0
C510 C 0.67767 0.61141 0.80364 0.0
C511 C 0.59594 0.58349 0.71983 0.0
H512 H 0.58568 0.61662 0.88686 0.0
H513 H 0.6006 0.67759 0.79147 0.0
H514 H 0.60338 0.57508 0.87918 0.0
H515 H 0.60649 0.56487 0.82094 0.0
H516 H 0.63449 0.57502 0.85157 0.0
H517 H 0.62429 0.67137 0.72489 0.0
H518 H 0.65089 0.64941 0.73327 0.0
H519 H 0.62294 0.63898 0.70259 0.0
H520 H 0.70006 0.58475 0.73555 0.0
H521 H 0.63096 0.56034 0.66651 0.0
H522 H 0.66814 0.60744 0.83662 0.0
H523 H 0.67631 0.6325 0.79737 0.0
H524 H 0.69843 0.60612 0.80632 0.0
H525 H 0.58605 0.57892 0.75222 0.0
H526 H 0.58948 0.56945 0.69367 0.0
H527 H 0.58961 0.60309 0.70933 0.0
C528 C 0.5826 0.34614 0.31279 0.0
C529 C 0.58075 0.31925 0.30813 0.0
C530 C 0.59891 0.36058 0.28479 0.0
C531 C 0.61325 0.34787 0.25065 0.0
C532 C 0.61097 0.32081 0.2449 0.0
C533 C 0.59492 0.30671 0.2742 0.0
C534 C 0.60118 0.38937 0.29236 0.0
C535 C 0.62557 0.3068 0.20804 0.0
C536 C 0.63618 0.3912 0.15582 0.0
C537 C 0.6621 0.39521 0.16781 0.0
C538 C 0.6203 0.37503 0.18163 0.0
C539 C 0.63048 0.36312 0.22093 0.0
C540 C 0.65667 0.36701 0.23318 0.0
C541 C 0.67233 0.38282 0.20603 0.0
C542 C 0.5926 0.37089 0.16706 0.0
C543 C 0.66795 0.35498 0.27546 0.0
H544 H 0.57194 0.35586 0.33944 0.0
H545 H 0.59345 0.28592 0.27058 0.0
H546 H 0.62161 0.39458 0.29932 0.0
H547 H 0.59522 0.39993 0.26132 0.0
H548 H 0.5891 0.39615 0.32114 0.0
H549 H 0.62094 0.28585 0.20711 0.0
H550 H 0.62092 0.31536 0.17449 0.0
H551 H 0.64667 0.30908 0.21336 0.0
H552 H 0.62837 0.40042 0.12573 0.0
H553 H 0.6924 0.38592 0.21517 0.0
H554 H 0.57933 0.37916 0.19279 0.0
H555 H 0.58833 0.34993 0.16471 0.0
H556 H 0.58831 0.38 0.13375 0.0
H557 H 0.65744 0.36213 0.30576 0.0
H558 H 0.68883 0.35945 0.2796 0.0
H559 H 0.66551 0.3337 0.27451 0.0
C560 C 0.39051 0.36175 0.84823 0.0
C561 C 0.39325 0.33567 0.83628 0.0
C562 C 0.37471 0.3783 0.82288 0.0
C563 C 0.36176 0.36859 0.78423 0.0
C564 C 0.36426 0.34221 0.77224 0.0
C565 C 0.37979 0.32595 0.79879 0.0
C566 C 0.37201 0.40617 0.83725 0.0
C567 C 0.35108 0.33133 0.73069 0.0
C568 C 0.30602 0.40445 0.72926 0.0
C569 C 0.31858 0.41674 0.69305 0.0
C570 C 0.31999 0.38945 0.76045 0.0
C571 C 0.34697 0.38633 0.75456 0.0
C572 C 0.35982 0.39933 0.71889 0.0
C573 C 0.3455 0.41458 0.68885 0.0
C574 C 0.30581 0.37632 0.79882 0.0
C575 C 0.38854 0.39626 0.71129 0.0
H576 H 0.40054 0.36919 0.87779 0.0
H577 H 0.38189 0.30578 0.7896 0.0
H578 H 0.37872 0.41914 0.80969 0.0
H579 H 0.35137 0.41072 0.84357 0.0
H580 H 0.38324 0.41057 0.86844 0.0
H581 H 0.35449 0.31026 0.72673 0.0
H582 H 0.32995 0.33477 0.73253 0.0
H583 H 0.3583 0.34135 0.6999 0.0
H584 H 0.28524 0.4062 0.73277 0.0
H585 H 0.35533 0.4239 0.66079 0.0
H586 H 0.31552 0.38041 0.83162 0.0
H587 H 0.30622 0.35509 0.79381 0.0
H588 H 0.28533 0.38262 0.80113 0.0
H589 H 0.39935 0.4017 0.74236 0.0
H590 H 0.39567 0.40825 0.68264 0.0
H591 H 0.39306 0.37572 0.70399 0.0
C592 C 0.34816 0.60242 0.18166 0.0
C593 C 0.34342 0.60711 0.13569 0.0
C594 C 0.36454 0.61863 0.20651 0.0
C595 C 0.37686 0.63959 0.18443 0.0
C596 C 0.37289 0.64385 0.13755 0.0
C597 C 0.35595 0.62765 0.11375 0.0
C598 C 0.36803 0.61375 0.2567 0.0
C599 C 0.38643 0.66547 0.11265 0.0
C600 C 0.39468 0.69321 0.26507 0.0
C601 C 0.41984 0.686 0.27734 0.0
C602 C 0.38089 0.6791 0.2326 0.0
C603 C 0.3928 0.65767 0.21142 0.0
C604 C 0.41896 0.65176 0.2207 0.0
C605 C 0.43213 0.66587 0.25402 0.0
C606 C 0.35296 0.68591 0.22362 0.0
C607 C 0.43249 0.62951 0.19768 0.0
H608 H 0.33842 0.58655 0.19855 0.0
H609 H 0.3526 0.63096 0.07788 0.0
H610 H 0.38879 0.61092 0.26465 0.0
H611 H 0.36133 0.6308 0.27624 0.0
H612 H 0.35716 0.5965 0.26854 0.0
H613 H 0.38007 0.66703 0.07675 0.0
H614 H 0.38283 0.68421 0.12974 0.0
H615 H 0.40761 0.66211 0.11324 0.0
H616 H 0.38513 0.70883 0.28292 0.0
H617 H 0.45175 0.66052 0.26295 0.0
H618 H 0.3403 0.67045 0.23733 0.0
H619 H 0.34925 0.68719 0.18662 0.0
H620 H 0.34735 0.70452 0.23957 0.0
H621 H 0.42514 0.61101 0.21164 0.0
H622 H 0.45375 0.63018 0.20291 0.0
H623 H 0.42843 0.62955 0.16072 0.0
C624 C 0.1807 0.93444 0.03784 0.0
C625 C 0.17048 0.95639 0.05916 0.0
C626 C 0.16548 0.91231 0.03105 0.0
C627 C 0.1395 0.91212 0.04618 0.0
C628 C 0.12945 0.93377 0.0695 0.0
C629 C 0.14503 0.95564 0.07561 0.0
C630 C 0.17683 0.88958 0.00595 0.0
C631 C 0.10189 0.93424 0.08636 0.0
C632 C 0.09167 0.87048 0.98196 0.0
C633 C 0.08923 0.84892 0.01056 0.0
C634 C 0.10801 0.89108 0.99322 0.0
C635 C 0.12217 0.89027 0.03427 0.0
C636 C 0.11957 0.8688 0.0637 0.0
C637 C 0.10316 0.84832 0.05144 0.0
C638 C 0.11031 0.91362 0.96084 0.0
C639 C 0.13428 0.86739 0.10787 0.0
H640 H 0.20035 0.93481 0.02509 0.0
H641 H 0.13701 0.97241 0.09253 0.0
H642 H 0.17365 0.87148 0.02533 0.0
H643 H 0.16696 0.88734 0.97275 0.0
H644 H 0.19789 0.89189 -0.00024 0.0
H645 H 0.09774 0.95159 0.10728 0.0
H646 H 0.08843 0.9341 0.05702 0.0
H647 H 0.09775 0.91674 0.10686 0.0
H648 H 0.08113 0.87114 0.95019 0.0
H649 H 0.10144 0.83174 0.07372 0.0
H650 H 0.13069 0.91587 0.94984 0.0
H651 H 0.10465 0.93177 0.97819 0.0
H652 H 0.09802 0.91123 0.93021 0.0
H653 H 0.15537 0.868 0.10114 0.0
H654 H 0.12983 0.84954 0.1273 0.0
H655 H 0.12958 0.88437 0.12928 0.0
C656 C 0.85184 0.89027 0.93563 0.0
C657 C 0.8533 0.90423 0.97637 0.0
C658 C 0.8723 0.87433 0.92167 0.0
C659 C 0.89456 0.87217 0.94932 0.0
C660 C 0.89648 0.88683 0.98968 0.0
C661 C 0.8759 0.90276 0.00259 0.0
C662 C 0.86978 0.85922 0.8781 0.0
C663 C 0.91992 0.88501 0.02015 0.0
C664 C 0.93622 0.8121 0.94982 0.0
C665 C 0.95858 0.82093 0.92782 0.0
C666 C 0.91468 0.82824 0.95514 0.0
C667 C 0.91545 0.85371 0.93766 0.0
C668 C 0.9373 0.8622 0.913 0.0
C669 C 0.95868 0.84574 0.90854 0.0
C670 C 0.89171 0.81852 0.98176 0.0
C671 C 0.93866 0.88911 0.89335 0.0
H672 H 0.83451 0.89138 0.91504 0.0
H673 H 0.87726 0.91346 0.03409 0.0
H674 H 0.88704 0.86228 0.85643 0.0
H675 H 0.86873 0.83827 0.88584 0.0
H676 H 0.85226 0.86474 0.85855 0.0
H677 H 0.91876 0.89837 0.04956 0.0
H678 H 0.92189 0.86498 0.03318 0.0
H679 H 0.9377 0.8895 0.0007 0.0
H680 H 0.93593 0.79295 0.96471 0.0
H681 H 0.97576 0.85263 0.89103 0.0
H682 H 0.87356 0.82191 0.9626 0.0
H683 H 0.89022 0.82934 0.01413 0.0
H684 H 0.89321 0.79759 0.98969 0.0
H685 H 0.92074 0.89364 0.87423 0.0
H686 H 0.95551 0.8916 0.87039 0.0
H687 H 0.94028 0.90339 0.92126 0.0
C688 C 0.90243 0.11809 0.97173 0.0
C689 C 0.90351 0.14053 0.99828 0.0
C690 C 0.8862 0.09749 0.98362 0.0
C691 C 0.87082 0.09931 0.02318 0.0
C692 C 0.8722 0.12164 0.05068 0.0
C693 C 0.8885 0.14203 0.03786 0.0
C694 C 0.88523 0.07393 0.95344 0.0
C695 C 0.85621 0.12411 0.09331 0.0
C696 C 0.81236 0.05514 0.02634 0.0
C697 C 0.82205 0.034 0.05078 0.0
C698 C 0.82777 0.07699 0.01834 0.0
C699 C 0.85333 0.07772 0.03553 0.0
C700 C 0.86275 0.057 0.06209 0.0
C701 C 0.84702 0.03536 0.06928 0.0
C702 C 0.81711 0.09876 0.98982 0.0
C703 C 0.88981 0.05723 0.08138 0.0
H704 H 0.91387 0.11676 0.94103 0.0
H705 H 0.88923 0.15928 0.05864 0.0
H706 H 0.89045 0.05644 0.97317 0.0
H707 H 0.86527 0.07108 0.94055 0.0
H708 H 0.89852 0.07551 0.92398 0.0
H709 H 0.86001 0.14249 0.11159 0.0
H710 H 0.83535 0.1232 0.08471 0.0
H711 H 0.86034 0.10775 0.11654 0.0
H712 H 0.7931 0.05422 0.01192 0.0
H713 H 0.85457 0.01922 0.08862 0.0
H714 H 0.82804 0.10003 0.95751 0.0
H715 H 0.81955 0.11748 0.00762 0.0
H716 H 0.7963 0.09607 0.98175 0.0
H717 H 0.90407 0.05649 0.05331 0.0
H718 H 0.89341 0.04061 0.1044 0.0
H719 H 0.89332 0.07539 0.10037 0.0
C720 C 0.03818 0.14601 0.90997 0.0
C721 C 0.03648 0.16984 0.93251 0.0
C722 C 0.0599 0.13006 0.9152 0.0
C723 C 0.08026 0.13799 0.94405 0.0
C724 C 0.07917 0.16246 0.9654 0.0
C725 C 0.05734 0.17817 0.95917 0.0
C726 C 0.06052 0.10425 0.8914 0.0
C727 C 0.10045 0.17152 0.99668 0.0
C728 C 0.11899 0.08667 0.00545 0.0
C729 C 0.14263 0.08727 0.98211 0.0
C730 C 0.09845 0.10275 0.99279 0.0
C731 C 0.10145 0.11972 0.95552 0.0
C732 C 0.12484 0.11976 0.93061 0.0
C733 C 0.14523 0.10359 0.94433 0.0
C734 C 0.07383 0.10218 0.02034 0.0
C735 C 0.12856 0.13737 0.8903 0.0
H736 H 0.02228 0.13954 0.88887 0.0
H737 H 0.05622 0.19654 0.97666 0.0
H738 H 0.07926 0.10155 0.87374 0.0
H739 H 0.05869 0.08851 0.91676 0.0
H740 H 0.04463 0.10222 0.86627 0.0
H741 H 0.09764 0.19182 0.00781 0.0
H742 H 0.10108 0.15898 0.02721 0.0
H743 H 0.11949 0.16994 0.97965 0.0
H744 H 0.1167 0.07416 0.03468 0.0
H745 H 0.16338 0.10416 0.92602 0.0
H746 H 0.05705 0.09812 0.99803 0.0
H747 H 0.07054 0.12136 0.03612 0.0
H748 H 0.07438 0.08738 0.04764 0.0
H749 H 0.11245 0.13488 0.86581 0.0
H750 H 0.14712 0.13369 0.87252 0.0
H751 H 0.12826 0.1578 0.90163 0.0
C752 C 0.8338 0.95097 0.5314 0.0
C753 C 0.83263 0.96921 0.56644 0.0
C754 C 0.84819 0.92827 0.53613 0.0
C755 C 0.86197 0.92371 0.57689 0.0
C756 C 0.86008 0.94149 0.61318 0.0
C757 C 0.84533 0.96409 0.60757 0.0
C758 C 0.84942 0.90964 0.4967 0.0
C759 C 0.8745 0.93725 0.65708 0.0
C760 C 0.88503 0.8546 0.58076 0.0
C761 C 0.90855 0.85689 0.55751 0.0
C762 C 0.87045 0.87662 0.59158 0.0
C763 C 0.87984 0.90132 0.57912 0.0
C764 C 0.90491 0.90379 0.56044 0.0
C765 C 0.91892 0.8815 0.54963 0.0
C766 C 0.84392 0.87323 0.61199 0.0
C767 C 0.91588 0.9298 0.54747 0.0
H768 H 0.82374 0.9546 0.49975 0.0
H769 H 0.84447 0.9781 0.63484 0.0
H770 H 0.86944 0.90889 0.48324 0.0
H771 H 0.84425 0.88987 0.50806 0.0
H772 H 0.83624 0.91524 0.46858 0.0
H773 H 0.8678 0.95052 0.68425 0.0
H774 H 0.87224 0.91704 0.66894 0.0
H775 H 0.89543 0.94063 0.65147 0.0
H776 H 0.87698 0.8356 0.58717 0.0
H777 H 0.93735 0.88335 0.5324 0.0
H778 H 0.82915 0.87509 0.58487 0.0
H779 H 0.83996 0.88837 0.63765 0.0
H780 H 0.84167 0.85394 0.6281 0.0
H781 H 0.90599 0.93691 0.51645 0.0
H782 H 0.93696 0.92879 0.54046 0.0
H783 H 0.9125 0.94415 0.57475 0.0
C784 C 0.84879 0.11341 0.41245 0.0
C785 C 0.85027 0.08983 0.4357 0.0
C786 C 0.87105 0.12825 0.40466 0.0
C787 C 0.89508 0.11965 0.42198 0.0
C788 C 0.89689 0.09508 0.44289 0.0
C789 C 0.87448 0.08025 0.44882 0.0
C790 C 0.86854 0.15387 0.38058 0.0
C791 C 0.92205 0.08541 0.46264 0.0
C792 C 0.95956 0.15044 0.39342 0.0
C793 C 0.96295 0.16717 0.4303 0.0
C794 C 0.93685 0.13585 0.3888 0.0
C795 C 0.91767 0.13733 0.42289 0.0
C796 C 0.92086 0.1546 0.45981 0.0
C797 C 0.94333 0.16969 0.46259 0.0
C798 C 0.9337 0.1184 0.34817 0.0
C799 C 0.90115 0.15626 0.4975 0.0
H800 H 0.83006 0.12079 0.40217 0.0
H801 H 0.87565 0.06216 0.46728 0.0
H802 H 0.86987 0.16978 0.40566 0.0
H803 H 0.8845 0.15651 0.35586 0.0
H804 H 0.8498 0.15562 0.36242 0.0
H805 H 0.92062 0.06511 0.47468 0.0
H806 H 0.93776 0.08664 0.43718 0.0
H807 H 0.92768 0.09779 0.49175 0.0
H808 H 0.97474 0.1487 0.36827 0.0
H809 H 0.94613 0.1825 0.49127 0.0
H810 H 0.9144 0.12126 0.33248 0.0
H811 H 0.9349 0.09791 0.35902 0.0
H812 H 0.94879 0.1219 0.32208 0.0
H813 H 0.88188 0.1612 0.48348 0.0
H814 H 0.90642 0.17092 0.5234 0.0
H815 H 0.89935 0.1372 0.51452 0.0
C816 C 0.10278 0.13658 0.58401 0.0
C817 C 0.08337 0.1337 0.55107 0.0
C818 C 0.1188 0.11571 0.59597 0.0
C819 C 0.1155 0.09161 0.57404 0.0
C820 C 0.09483 0.08815 0.54319 0.0
C821 C 0.07888 0.10913 0.53247 0.0
C822 C 0.1402 0.11991 0.62998 0.0
C823 C 0.09065 0.06278 0.5189 0.0
C824 C 0.17252 0.04758 0.55107 0.0
C825 C 0.16733 0.02687 0.58031 0.0
C826 C 0.15634 0.06932 0.55004 0.0
C827 C 0.13484 0.07061 0.57972 0.0
C828 C 0.13047 0.05047 0.61126 0.0
C829 C 0.14659 0.02867 0.61079 0.0
C830 C 0.16143 0.09023 0.51539 0.0
C831 C 0.10812 0.05142 0.64414 0.0
H832 H 0.10632 0.15541 0.59883 0.0
H833 H 0.06382 0.10655 0.50729 0.0
H834 H 0.14114 0.1036 0.65438 0.0
H835 H 0.15903 0.12073 0.61204 0.0
H836 H 0.13765 0.13819 0.64918 0.0
H837 H 0.07264 0.06274 0.49835 0.0
H838 H 0.10723 0.05895 0.49599 0.0
H839 H 0.08969 0.04664 0.54359 0.0
H840 H 0.18849 0.04624 0.5274 0.0
H841 H 0.1427 0.01284 0.63389 0.0
H842 H 0.16211 0.10942 0.53205 0.0
H843 H 0.14541 0.09069 0.49033 0.0
H844 H 0.17987 0.08715 0.49687 0.0
H845 H 0.10721 0.07055 0.66101 0.0
H846 H 0.10957 0.03617 0.67057 0.0
H847 H 0.0897 0.04871 0.62545 0.0
C848 C 0.13908 0.88425 0.44717 0.0
C849 C 0.13751 0.89912 0.4869 0.0
C850 C 0.11844 0.86838 0.43358 0.0
C851 C 0.09586 0.86725 0.46057 0.0
C852 C 0.09394 0.88265 0.50007 0.0
C853 C 0.1147 0.89846 0.5126 0.0
C854 C 0.12098 0.85245 0.39095 0.0
C855 C 0.07015 0.882 0.52979 0.0
C856 C 0.03039 0.84519 0.41917 0.0
C857 C 0.02828 0.82088 0.43993 0.0
C858 C 0.0531 0.85978 0.42278 0.0
C859 C 0.07408 0.84994 0.44824 0.0
C860 C 0.07271 0.82469 0.46672 0.0
C861 C 0.04982 0.81035 0.46209 0.0
C862 C 0.05395 0.88644 0.40197 0.0
C863 C 0.0947 0.81358 0.4942 0.0
H864 H 0.15661 0.88463 0.42707 0.0
H865 H 0.11324 0.90981 0.54338 0.0
H866 H 0.12057 0.8316 0.39967 0.0
H867 H 0.1044 0.85618 0.36799 0.0
H868 H 0.13919 0.85662 0.37237 0.0
H869 H 0.07169 0.89529 0.55925 0.0
H870 H 0.05283 0.88743 0.50972 0.0
H871 H 0.06698 0.86211 0.54271 0.0
H872 H 0.01391 0.85327 0.40139 0.0
H873 H 0.04829 0.79157 0.47817 0.0
H874 H 0.07245 0.88952 0.38374 0.0
H875 H 0.05278 0.90117 0.42922 0.0
H876 H 0.03771 0.88971 0.37795 0.0
H877 H 0.11332 0.81612 0.47612 0.0
H878 H 0.09189 0.79271 0.50154 0.0
H879 H 0.09621 0.82407 0.52691 0.0
C880 C 0.64383 0.45059 0.58212 0.0
C881 C 0.66783 0.45144 0.56004 0.0
C882 C 0.62751 0.42914 0.57784 0.0
C883 C 0.6352 0.40821 0.55019 0.0
C884 C 0.65995 0.40838 0.52957 0.0
C885 C 0.67612 0.42997 0.53507 0.0
C886 C 0.60148 0.42951 0.60101 0.0
C887 C 0.66871 0.38648 0.4995 0.0
C888 C 0.59713 0.34535 0.55214 0.0
C889 C 0.58081 0.34858 0.5145 0.0
C890 C 0.61475 0.36474 0.56474 0.0
C891 C 0.61623 0.38768 0.53872 0.0
C892 C 0.59946 0.39126 0.50131 0.0
C893 C 0.58185 0.37178 0.4899 0.0
C894 C 0.63207 0.3605 0.6053 0.0
C895 C 0.60051 0.41543 0.47256 0.0
H896 H 0.63751 0.467 0.60206 0.0
H897 H 0.69466 0.43057 0.51798 0.0
H898 H 0.58601 0.43171 0.5752 0.0
H899 H 0.59799 0.41101 0.61902 0.0
H900 H 0.59979 0.44561 0.62572 0.0
H901 H 0.68935 0.38835 0.48962 0.0
H902 H 0.66594 0.36767 0.51687 0.0
H903 H 0.65678 0.38615 0.4682 0.0
H904 H 0.59647 0.32749 0.57133 0.0
H905 H 0.56946 0.37447 0.4606 0.0
H906 H 0.63005 0.37676 0.62954 0.0
H907 H 0.65256 0.36004 0.59427 0.0
H908 H 0.62763 0.34216 0.62329 0.0
H909 H 0.59673 0.43267 0.49386 0.0
H910 H 0.58622 0.4151 0.44441 0.0
H911 H 0.62012 0.4177 0.45784 0.0
C912 C 0.34028 0.39029 0.43663 0.0
C913 C 0.34419 0.40695 0.47357 0.0
C914 C 0.35988 0.37334 0.42232 0.0
C915 C 0.38371 0.37283 0.44596 0.0
C916 C 0.38801 0.39014 0.48232 0.0
C917 C 0.36833 0.40708 0.49538 0.0
C918 C 0.35486 0.3555 0.38282 0.0
C919 C 0.41311 0.39014 0.50861 0.0
C920 C 0.42675 0.31377 0.45222 0.0
C921 C 0.4479 0.32175 0.42605 0.0
C922 C 0.40491 0.32963 0.45693 0.0
C923 C 0.4041 0.35376 0.43427 0.0
C924 C 0.42458 0.361 0.40516 0.0
C925 C 0.44637 0.34502 0.40175 0.0
C926 C 0.38355 0.32135 0.48866 0.0
C927 C 0.4242 0.38632 0.3797 0.0
H928 H 0.32173 0.39009 0.4195 0.0
H929 H 0.37163 0.41983 0.52396 0.0
H930 H 0.37084 0.35681 0.35784 0.0
H931 H 0.35413 0.33522 0.39496 0.0
H932 H 0.33635 0.35998 0.36536 0.0
H933 H 0.41346 0.40506 0.53568 0.0
H934 H 0.41617 0.37095 0.52454 0.0
H935 H 0.4296 0.39367 0.48539 0.0
H936 H 0.42783 0.2958 0.47103 0.0
H937 H 0.46252 0.3511 0.38089 0.0
H938 H 0.36443 0.32353 0.47206 0.0
H939 H 0.38361 0.33397 0.51909 0.0
H940 H 0.38579 0.30099 0.49994 0.0
H941 H 0.40516 0.38935 0.36319 0.0
H942 H 0.43955 0.38726 0.3534 0.0
H943 H 0.42723 0.40247 0.40386 0.0
C944 C 0.31374 0.56033 0.52041 0.0
C945 C 0.32311 0.53908 0.54497 0.0
C946 C 0.32979 0.58152 0.5107 0.0
C947 C 0.3557 0.58152 0.52628 0.0
C948 C 0.36495 0.56059 0.55252 0.0
C949 C 0.34859 0.53961 0.5614 0.0
C950 C 0.31929 0.6035 0.48249 0.0
C951 C 0.39237 0.56001 0.57015 0.0
C952 C 0.40523 0.62104 0.46136 0.0
C953 C 0.40729 0.64328 0.48832 0.0
C954 C 0.38847 0.60085 0.47332 0.0
C955 C 0.37354 0.60282 0.51341 0.0
C956 C 0.37585 0.62497 0.54123 0.0
C957 C 0.39263 0.64497 0.52828 0.0
C958 C 0.38648 0.57754 0.44272 0.0
C959 C 0.36042 0.62762 0.58445 0.0
H960 H 0.29412 0.56006 0.50751 0.0
H961 H 0.35595 0.52338 0.58074 0.0
H962 H 0.32218 0.62214 0.50035 0.0
H963 H 0.33 0.60465 0.44995 0.0
H964 H 0.29838 0.60118 0.4749 0.0
H965 H 0.39607 0.54307 0.59239 0.0
H966 H 0.40608 0.55932 0.54125 0.0
H967 H 0.39661 0.57788 0.58954 0.0
H968 H 0.41634 0.61959 0.43031 0.0
H969 H 0.39409 0.66205 0.54938 0.0
H970 H 0.36628 0.57522 0.43075 0.0
H971 H 0.39161 0.5598 0.46185 0.0
H972 H 0.39935 0.57903 0.41267 0.0
H973 H 0.33945 0.62707 0.57664 0.0
H974 H 0.36475 0.64589 0.60269 0.0
H975 H 0.36458 0.61115 0.60742 0.0
C976 C 0.5624 0.67918 0.4528 0.0
C977 C 0.54212 0.67162 0.42416 0.0
C978 C 0.58403 0.66322 0.45918 0.0
C979 C 0.58554 0.63936 0.43583 0.0
C980 C 0.56589 0.6324 0.40476 0.0
C981 C 0.5443 0.64852 0.39958 0.0
C982 C 0.60448 0.67118 0.49298 0.0
C983 C 0.56701 0.60733 0.37869 0.0
C984 C 0.64967 0.60343 0.44024 0.0
C985 C 0.64525 0.58607 0.47602 0.0
C986 C 0.63019 0.6205 0.42578 0.0
C987 C 0.60594 0.62039 0.44804 0.0
C988 C 0.6012 0.60248 0.48333 0.0
C989 C 0.6208 0.58546 0.49661 0.0
C990 C 0.63572 0.63905 0.38747 0.0
C991 C 0.57565 0.60182 0.50817 0.0
H992 H 0.56085 0.69701 0.47186 0.0
H993 H 0.52886 0.64273 0.37688 0.0
H994 H 0.60388 0.65801 0.52269 0.0
H995 H 0.624 0.66954 0.47774 0.0
H996 H 0.6017 0.69129 0.50514 0.0
H997 H 0.55208 0.60639 0.35163 0.0
H998 H 0.58633 0.60476 0.36303 0.0
H999 H 0.56392 0.5909 0.40227 0.0
H1000 H 0.66847 0.604 0.42407 0.0
H1001 H 0.61712 0.57219 0.52433 0.0
H1002 H 0.63547 0.65917 0.40041 0.0
H1003 H 0.62047 0.6376 0.36111 0.0
H1004 H 0.6548 0.63538 0.37143 0.0
H1005 H 0.57211 0.62073 0.52477 0.0
H1006 H 0.57498 0.58648 0.53451 0.0
H1007 H 0.55961 0.59851 0.48385 0.0
C1008 C 0.39152 0.35642 0.05981 0.0
C1009 C 0.41673 0.35707 0.04241 0.0
C1010 C 0.37786 0.37939 0.06774 0.0
C1011 C 0.38988 0.4034 0.05852 0.0
C1012 C 0.41622 0.40413 0.04572 0.0
C1013 C 0.42932 0.38092 0.03769 0.0
C1014 C 0.34983 0.37783 0.08171 0.0
C1015 C 0.42989 0.42936 0.03643 0.0
C1016 C 0.34804 0.45709 0.0112 0.0
C1017 C 0.34467 0.47297 0.04922 0.0
C1018 C 0.36254 0.43429 0.01404 0.0
C1019 C 0.37412 0.42729 0.05586 0.0
C1020 C 0.37093 0.44325 0.09433 0.0
C1021 C 0.35616 0.46588 0.0906 0.0
C1022 C 0.36545 0.41767 0.97221 0.0
C1023 C 0.3832 0.43647 0.1393 0.0
H1024 H 0.38167 0.33805 0.06358 0.0
H1025 H 0.44894 0.38151 0.0248 0.0
H1026 H 0.34544 0.39222 0.10846 0.0
H1027 H 0.33741 0.38233 0.05204 0.0
H1028 H 0.34461 0.3583 0.0944 0.0
H1029 H 0.45117 0.42683 0.03398 0.0
H1030 H 0.42283 0.43751 0.00387 0.0
H1031 H 0.42566 0.44367 0.0634 0.0
H1032 H 0.33916 0.46235 0.97918 0.0
H1033 H 0.35371 0.47806 0.12018 0.0
H1034 H 0.35834 0.39783 0.97919 0.0
H1035 H 0.38617 0.4161 0.96291 0.0
H1036 H 0.35468 0.42553 0.94265 0.0
H1037 H 0.37644 0.4172 0.15072 0.0
H1038 H 0.37866 0.45084 0.1661 0.0
H1039 H 0.4045 0.4353 0.13546 0.0
C1040 C 0.362 0.59205 0.91634 0.0
C1041 C 0.33998 0.60292 0.93638 0.0
C1042 C 0.38431 0.60697 0.90918 0.0
C1043 C 0.38468 0.63311 0.92332 0.0
C1044 C 0.36185 0.6447 0.93997 0.0
C1045 C 0.33966 0.62955 0.94566 0.0
C1046 C 0.4081 0.59417 0.88992 0.0
C1047 C 0.36152 0.67237 0.95622 0.0
C1048 C 0.44851 0.65661 0.97073 0.0
C1049 C 0.45716 0.67295 0.93618 0.0
C1050 C 0.42465 0.644 0.96724 0.0
C1051 C 0.40964 0.64709 0.92735 0.0
C1052 C 0.41841 0.66357 0.8922 0.0
C1053 C 0.44201 0.67669 0.89738 0.0
C1054 C 0.41562 0.62725 0.00616 0.0
C1055 C 0.40322 0.6668 0.84883 0.0
H1056 H 0.36233 0.57158 0.9086 0.0
H1057 H 0.32273 0.63825 0.96097 0.0
H1058 H 0.41774 0.60702 0.86497 0.0
H1059 H 0.42209 0.59035 0.91767 0.0
H1060 H 0.40344 0.57552 0.87317 0.0
H1061 H 0.34157 0.6794 0.96272 0.0
H1062 H 0.37271 0.67384 0.98825 0.0
H1063 H 0.37083 0.68533 0.93112 0.0
H1064 H 0.46043 0.65381 0.00062 0.0
H1065 H 0.44907 0.68915 0.87051 0.0
H1066 H 0.41494 0.60676 0.99521 0.0
H1067 H 0.39578 0.63279 0.01655 0.0
H1068 H 0.42852 0.62873 0.03621 0.0
H1069 H 0.40132 0.64784 0.8316 0.0
H1070 H 0.41253 0.68065 0.82511 0.0
H1071 H 0.38339 0.67368 0.85639 0.0
C1072 C 0.57987 0.61459 0.03678 0.0
C1073 C 0.5851 0.6399 0.05128 0.0
C1074 C 0.59668 0.59424 0.04691 0.0
C1075 C 0.61894 0.59906 0.07346 0.0
C1076 C 0.62313 0.62399 0.09181 0.0
C1077 C 0.60627 0.64426 0.08009 0.0
C1078 C 0.59155 0.568 0.02625 0.0
C1079 C 0.64616 0.62961 0.12164 0.0
C1080 C 0.65091 0.53652 0.10883 0.0
C1081 C 0.66958 0.53364 0.07476 0.0
C1082 C 0.63574 0.55893 0.11142 0.0
C1083 C 0.6387 0.57838 0.07808 0.0
C1084 C 0.65839 0.57606 0.04489 0.0
C1085 C 0.6739 0.55384 0.04411 0.0
C1086 C 0.61562 0.56111 0.14827 0.0
C1087 C 0.6618 0.5961 0.00812 0.0
H1088 H 0.56345 0.61085 0.01488 0.0
H1089 H 0.61039 0.66368 0.09178 0.0
H1090 H 0.60717 0.5632 0.00188 0.0
H1091 H 0.59156 0.55287 0.05288 0.0
H1092 H 0.57276 0.56721 0.00801 0.0
H1093 H 0.64406 0.64827 0.13985 0.0
H1094 H 0.64899 0.61395 0.14689 0.0
H1095 H 0.66386 0.63058 0.10048 0.0
H1096 H 0.64785 0.52101 0.13298 0.0
H1097 H 0.68832 0.55156 0.01773 0.0
H1098 H 0.59618 0.55747 0.13372 0.0
H1099 H 0.61549 0.58086 0.16286 0.0
H1100 H 0.61897 0.54695 0.17601 0.0
H1101 H 0.64461 0.59602 0.98556 0.0
H1102 H 0.67925 0.59246 0.98711 0.0
H1103 H 0.66333 0.61568 0.02311 0.0
C1104 C 0.5552 0.31646 0.94757 0.0
C1105 C 0.53417 0.3234 0.92019 0.0
C1106 C 0.57719 0.3323 0.95015 0.0
C1107 C 0.5783 0.35529 0.92404 0.0
C1108 C 0.55805 0.36117 0.89349 0.0
C1109 C 0.53608 0.3453 0.8923 0.0
C1110 C 0.5983 0.32547 0.98347 0.0
C1111 C 0.55877 0.38512 0.86426 0.0
C1112 C 0.61455 0.41025 0.97985 0.0
C1113 C 0.63913 0.40821 0.96004 0.0
C1114 C 0.59443 0.39362 0.96735 0.0
C1115 C 0.59875 0.37476 0.93346 0.0
C1116 C 0.62291 0.37373 0.91101 0.0
C1117 C 0.64293 0.39035 0.92483 0.0
C1118 C 0.56897 0.39533 0.99232 0.0
C1119 C 0.62799 0.35431 0.87392 0.0
H1120 H 0.55379 0.29959 0.96924 0.0
H1121 H 0.51997 0.35055 0.87062 0.0
H1122 H 0.61752 0.32665 0.96698 0.0
H1123 H 0.5982 0.33956 0.01184 0.0
H1124 H 0.59581 0.30577 0.99779 0.0
H1125 H 0.54385 0.38462 0.83715 0.0
H1126 H 0.55528 0.40239 0.88566 0.0
H1127 H 0.57806 0.38745 0.84832 0.0
H1128 H 0.61131 0.42397 0.00703 0.0
H1129 H 0.6618 0.38869 0.90915 0.0
H1130 H 0.56556 0.37716 0.01143 0.0
H1131 H 0.55281 0.3976 0.96791 0.0
H1132 H 0.56843 0.41172 0.0166 0.0
H1133 H 0.62927 0.33467 0.88885 0.0
H1134 H 0.6463 0.35839 0.8556 0.0
H1135 H 0.61185 0.35415 0.84912 0.0
C1136 C 0.28486 0.9578 0.71601 0.0
C1137 C 0.27599 0.9754 0.68323 0.0
C1138 C 0.28789 0.96524 0.76138 0.0
C1139 C 0.28214 0.99094 0.77403 0.0
C1140 C 0.27695 0.00959 0.74 0.0
C1141 C 0.27386 0.00157 0.69479 0.0
C1142 C 0.29392 0.94481 0.79639 0.0
C1143 C 0.27157 0.03739 0.75199 0.0
C1144 C 0.24235 -0.00027 0.8804 0.0
C1145 C 0.26063 0.00906 0.91115 0.0
C1146 C 0.2494 0.99322 0.8361 0.0
C1147 C 0.27538 0.99662 0.82199 0.0
C1148 C 0.29412 0.00558 0.85337 0.0
C1149 C 0.28648 0.01168 0.89792 0.0
C1150 C 0.22882 0.98329 0.80411 0.0
C1151 C 0.32187 0.00976 0.83949 0.0
H1152 H 0.28721 0.93761 0.70711 0.0
H1153 H 0.2674 0.0154 0.66958 0.0
H1154 H 0.30701 0.95245 0.823 0.0
H1155 H 0.27571 0.93872 0.81319 0.0
H1156 H 0.30296 0.92748 0.78083 0.0
H1157 H 0.27321 0.05024 0.72192 0.0
H1158 H 0.25164 0.03903 0.76559 0.0
H1159 H 0.28507 0.04425 0.77863 0.0
H1160 H 0.22233 -0.00199 0.89092 0.0
H1161 H 0.30043 0.0194 0.92181 0.0
H1162 H 0.23475 0.96441 0.78968 0.0
H1163 H 0.22635 -0.00304 0.77543 0.0
H1164 H 0.20982 0.98081 0.8211 0.0
H1165 H 0.32908 0.99334 0.81893 0.0
H1166 H 0.33474 0.01234 0.86933 0.0
H1167 H 0.32315 0.02736 0.81811 0.0
C1168 C 0.93849 0.72724 0.28786 0.0
C1169 C 0.95751 0.72687 0.32195 0.0
C1170 C 0.94514 0.72514 0.2419 0.0
C1171 C 0.97141 0.7222 0.22971 0.0
C1172 C 0.99023 0.71857 0.26409 0.0
C1173 C 0.98309 0.72108 0.30989 0.0
C1174 C 0.9244 0.72902 0.20649 0.0
C1175 C 0.01835 0.71463 0.25249 0.0
C1176 C 0.99017 0.71576 0.10488 0.0
C1177 C -0.00237 0.74118 0.09497 0.0
C1178 C 0.98145 0.70906 0.14864 0.0
C1179 C 0.97973 0.72839 0.18257 0.0
C1180 C 0.98626 0.75426 0.17184 0.0
C1181 C 0.99537 0.76023 0.12842 0.0
C1182 C 0.97507 0.68124 0.15899 0.0
C1183 C 0.9841 0.77567 0.20649 0.0
H1184 H 0.91854 0.7312 0.29669 0.0
H1185 H -0.0021 0.72035 0.33588 0.0
H1186 H 0.92571 0.74899 0.19295 0.0
H1187 H 0.92704 0.71557 0.17761 0.0
H1188 H 0.90472 0.72621 0.22074 0.0
H1189 H 0.02953 0.7072 0.28193 0.0
H1190 H 0.02045 0.70095 0.22377 0.0
H1191 H 0.02692 0.73334 0.24189 0.0
H1192 H 0.99221 0.70098 0.07911 0.0
H1193 H 0.00098 0.77993 0.12064 0.0
H1194 H 0.95625 0.67974 0.1768 0.0
H1195 H 0.99002 0.67317 0.18198 0.0
H1196 H 0.97434 0.66921 0.12782 0.0
H1197 H 0.96419 0.77637 0.22045 0.0
H1198 H 0.9888 0.79492 0.19197 0.0
H1199 H -0.00255 0.77188 0.23519 0.0
C1200 C 0.71303 0.99543 0.89089 0.0
C1201 C 0.73739 0.98411 0.89732 0.0
C1202 C 0.70517 0.00385 0.8475 0.0
C1203 C 0.72248 0.00165 0.8104 0.0
C1204 C 0.74712 0.99033 0.81712 0.0
C1205 C 0.75408 0.98152 0.8602 0.0
C1206 C 0.67859 0.01535 0.8418 0.0
C1207 C 0.76657 0.98802 0.779 0.0
C1208 C 0.71396 0.00374 0.68384 0.0
C1209 C 0.72612 0.02732 0.67475 0.0
C1210 C 0.70888 0.99633 0.72895 0.0
C1211 C 0.71652 0.0128 0.76502 0.0
C1212 C 0.7253 0.03806 0.75521 0.0
C1213 C 0.73004 0.04498 0.7101 0.0
C1214 C 0.6983 0.9697 0.73815 0.0
C1215 C 0.73328 0.05647 0.79236 0.0
H1216 H 0.69998 -0.00275 0.91947 0.0
H1217 H 0.77301 0.97295 0.86503 0.0
H1218 H 0.67982 0.03664 0.84538 0.0
H1219 H 0.6704 0.01101 0.80784 0.0
H1220 H 0.66508 0.00809 0.86818 0.0
H1221 H 0.7849 0.97881 0.79013 0.0
H1222 H 0.75836 0.97638 0.7509 0.0
H1223 H 0.77117 0.00745 0.76526 0.0
H1224 H 0.71077 0.99015 0.65643 0.0
H1225 H 0.73911 0.06342 0.7028 0.0
H1226 H 0.68512 0.96994 0.76786 0.0
H1227 H 0.7145 0.9564 0.74605 0.0
H1228 H 0.68774 0.96196 0.70827 0.0
H1229 H 0.7356 0.07653 0.77952 0.0
H1230 H 0.75204 0.05009 0.80685 0.0
H1231 H 0.71888 0.05652 0.82016 0.0
C1232 C 0.98232 0.23262 0.12663 0.0
C1233 C 0.98281 0.25156 0.09273 0.0
C1234 C 0.98993 0.23824 0.17109 0.0
C1235 C -0.00256 0.26375 0.18244 0.0
C1236 C -0.00259 0.2832 0.14853 0.0
C1237 C 0.99054 0.27674 0.10366 0.0
C1238 C 0.99039 0.21666 0.20567 0.0
C1239 C 0.00446 0.31075 0.15971 0.0
C1240 C -0.00243 0.26996 0.31043 0.0
C1241 C 0.02341 0.26389 0.32019 0.0
C1242 C 0.9892 0.27294 0.26524 0.0
C1243 C 0.00695 0.26905 0.22923 0.0
C1244 C 0.03342 0.26531 0.23913 0.0
C1245 C 0.04136 0.26324 0.2844 0.0
C1246 C 0.96099 0.27808 0.25604 0.0
C1247 C 0.05301 0.26049 0.20207 0.0
H1248 H 0.97636 0.21313 0.11808 0.0
H1249 H 0.99053 0.29146 0.07748 0.0
H1250 H 0.01012 0.21463 0.22003 0.0
H1251 H 0.97716 0.22123 0.23413 0.0
H1252 H 0.98452 0.1978 0.19094 0.0
H1253 H 0.00095 0.32403 0.13073 0.0
H1254 H 0.99311 0.31753 0.18935 0.0
H1255 H 0.02517 0.31194 0.16919 0.0
H1256 H 0.98358 0.27091 0.33774 0.0
H1257 H 0.0615 0.25902 0.29136 0.0
H1258 H 0.9512 0.2597 0.24718 0.0
H1259 H 0.95862 0.29149 0.22694 0.0
H1260 H 0.95116 0.2864 0.28618 0.0
H1261 H 0.04972 0.241 0.18745 0.0
H1262 H 0.07318 0.26138 0.21492 0.0
H1263 H 0.05085 0.2747 0.1742 0.0
C1264 C 0.70365 0.96329 0.20172 0.0
C1265 C 0.71416 0.98065 0.17005 0.0
C1266 C 0.70183 0.96986 0.24778 0.0
C1267 C 0.71085 0.99428 0.26235 0.0
C1268 C 0.71786 0.0131 0.22964 0.0
C1269 C 0.71934 0.00608 0.18367 0.0
C1270 C 0.69336 0.94951 0.28129 0.0
C1271 C 0.72703 0.03959 0.24364 0.0
C1272 C 0.71165 0.01462 0.38681 0.0
C1273 C 0.73724 0.00866 0.39877 0.0
C1274 C 0.70225 0.00933 0.34291 0.0
C1275 C 0.71888 -0.00214 0.31049 0.0
C1276 C 0.74426 0.9906 0.32332 0.0
C1277 C 0.75307 0.99609 0.36715 0.0
C1278 C 0.67502 0.01716 0.33078 0.0
C1279 C 0.7626 0.9779 0.2902 0.0
H1280 H 0.69908 0.94374 0.19127 0.0
H1281 H 0.72721 0.01972 0.15942 0.0
H1282 H 0.7107 0.94034 0.29657 0.0
H1283 H 0.6819 0.95817 0.3092 0.0
H1284 H 0.68167 0.93419 0.26469 0.0
H1285 H 0.7272 0.05328 0.2146 0.0
H1286 H 0.71458 0.04758 0.27083 0.0
H1287 H 0.74698 0.03813 0.25728 0.0
H1288 H 0.69934 0.02445 0.41101 0.0
H1289 H 0.77276 0.99114 0.37629 0.0
H1290 H 0.66562 0.00242 0.309 0.0
H1291 H 0.67555 0.03552 0.31138 0.0
H1292 H 0.66298 0.0202 0.3615 0.0
H1293 H 0.7538 0.96006 0.27619 0.0
H1294 H 0.78139 0.97273 0.30607 0.0
H1295 H 0.76642 0.99113 0.26133 0.0
C1296 C 0.99634 0.24701 0.62389 0.0
C1297 C 0.01233 0.26052 0.59404 0.0
C1298 C 0.99208 0.2561 0.668 0.0
C1299 C 0.0043 0.27923 0.68249 0.0
C1300 C 0.01912 0.29383 0.65128 0.0
C1301 C 0.02319 0.28411 0.60734 0.0
C1302 C 0.97593 0.23995 0.7 0.0
C1303 C 0.03213 0.31873 0.66494 0.0
C1304 C 0.97547 0.29738 0.7948 0.0
C1305 C 0.99105 0.28266 0.82404 0.0
C1306 C 0.9814 0.29946 0.74853 0.0
C1307 C 0.00322 0.28627 0.73137 0.0
C1308 C 0.02102 0.2748 0.76195 0.0
C1309 C 0.01479 0.27331 0.80823 0.0
C1310 C 0.96257 0.31289 0.71737 0.0
C1311 C 0.04485 0.261 0.74515 0.0
H1312 H 0.98841 0.22853 0.61356 0.0
H1313 H 0.03603 0.2942 0.58427 0.0
H1314 H 0.98826 0.2325 0.72792 0.0
H1315 H 0.96051 0.25191 0.71552 0.0
H1316 H 0.96673 0.22325 0.68269 0.0
H1317 H 0.03669 0.33087 0.6349 0.0
H1318 H 0.01989 0.33003 0.68859 0.0
H1319 H 0.05054 0.31425 0.68259 0.0
H1320 H 0.95726 0.30502 0.80712 0.0
H1321 H 0.02699 0.26204 0.83069 0.0
H1322 H 0.94964 0.29832 0.70163 0.0
H1323 H 0.97285 0.32313 0.68965 0.0
H1324 H 0.95038 0.32697 0.7361 0.0
H1325 H 0.03909 0.24239 0.72938 0.0
H1326 H 0.05864 0.25683 0.77313 0.0
H1327 H 0.05487 0.27262 0.7189 0.0
C1328 C 0.2402 0.99238 0.38263 0.0
C1329 C 0.25613 0.97901 0.41283 0.0
C1330 C 0.24831 -0.00257 0.33815 0.0
C1331 C 0.2728 0.98842 0.3234 0.0
C1332 C 0.28938 0.9757 0.35449 0.0
C1333 C 0.28077 0.97108 0.39902 0.0
C1334 C 0.23013 0.01142 0.30637 0.0
C1335 C 0.31555 0.96578 0.34019 0.0
C1336 C 0.27035 0.97995 0.19637 0.0
C1337 C 0.2781 0.0046 0.18213 0.0
C1338 C 0.27113 0.97317 0.24253 0.0
C1339 C 0.28001 0.99144 0.27479 0.0
C1340 C 0.29121 0.01483 0.25969 0.0
C1341 C 0.29015 0.02113 0.21344 0.0
C1342 C 0.25958 0.94773 0.25716 0.0
C1343 C 0.30146 0.0346 0.29273 0.0
H1344 H 0.22099 -0.00192 0.39342 0.0
H1345 H 0.29278 0.96021 0.42239 0.0
H1346 H 0.23998 0.02835 0.29103 0.0
H1347 H 0.22435 -0.00163 0.27829 0.0
H1348 H 0.21237 0.01825 0.32382 0.0
H1349 H 0.32775 0.96054 0.36984 0.0
H1350 H 0.31302 0.94832 0.31885 0.0
H1351 H 0.32594 0.98037 0.31949 0.0
H1352 H 0.26113 0.967 0.1724 0.0
H1353 H 0.29657 0.04008 0.20249 0.0
H1354 H 0.23999 0.95114 0.27128 0.0
H1355 H 0.27144 0.93866 0.28418 0.0
H1356 H 0.25782 0.93401 0.22835 0.0
H1357 H 0.28499 0.04504 0.30836 0.0
H1358 H 0.3141 0.049 0.2757 0.0
H1359 H 0.31251 0.0252 0.32046 0.0
C1360 C 0.98557 0.71503 0.80842 0.0
C1361 C 0.01092 0.71049 0.82321 0.0
C1362 C 0.9792 0.71313 0.76221 0.0
C1363 C -0.00138 0.70644 0.73042 0.0
C1364 C 0.02306 0.69812 0.74615 0.0
C1365 C 0.02895 0.70028 0.79245 0.0
C1366 C 0.95263 0.72147 0.74693 0.0
C1367 C 0.04405 0.69003 0.71363 0.0
C1368 C 0.97829 0.70671 0.60608 0.0
C1369 C 0.98296 0.73259 0.59489 0.0
C1370 C 0.98444 0.69724 0.64958 0.0
C1371 C 0.99542 0.71418 0.68209 0.0
C1372 C 0.00172 0.73986 0.66948 0.0
C1373 C 0.9952 0.74876 0.62616 0.0
C1374 C 0.97754 0.66975 0.66146 0.0
C1375 C 0.0139 0.75853 0.70264 0.0
H1376 H 0.9714 0.72263 0.83198 0.0
H1377 H 0.04846 0.69614 0.80381 0.0
H1378 H 0.95375 0.7413 0.7327 0.0
H1379 H 0.94527 0.70854 0.71986 0.0
H1380 H 0.93859 0.72158 0.77543 0.0
H1381 H 0.05941 0.67874 0.73102 0.0
H1382 H 0.03603 0.67831 0.68544 0.0
H1383 H 0.05306 0.70752 0.69862 0.0
H1384 H 0.96835 0.6944 0.58198 0.0
H1385 H -0.00146 0.76884 0.61735 0.0
H1386 H 0.95874 0.66955 0.67957 0.0
H1387 H 0.9922 0.66099 0.68424 0.0
H1388 H 0.9756 0.65759 0.63061 0.0
H1389 H 0.00028 0.76241 0.73089 0.0
H1390 H 0.01903 0.77724 0.68649 0.0
H1391 H 0.03168 0.75005 0.71752 0.0
C1392 C 0.78494 0.51021 0.39733 0.0
C1393 C 0.76016 0.50396 0.4129 0.0
C1394 C 0.79213 0.50498 0.35225 0.0
C1395 C 0.77383 0.49377 0.32237 0.0
C1396 C 0.74907 0.48666 0.33881 0.0
C1397 C 0.74257 0.49189 0.38394 0.0
C1398 C 0.81876 0.51254 0.33621 0.0
C1399 C 0.72895 0.47458 0.30825 0.0
C1400 C 0.76848 0.50293 0.19602 0.0
C1401 C 0.77301 0.47761 0.18131 0.0
C1402 C 0.77153 0.5095 0.24193 0.0
C1403 C 0.77952 0.49033 0.27332 0.0
C1404 C 0.78758 0.46589 0.25732 0.0
C1405 C 0.78409 0.45976 0.21143 0.0
C1406 C 0.76314 0.53595 0.25755 0.0
C1407 C 0.79695 0.44517 0.28939 0.0
H1408 H 0.79829 0.52002 0.41987 0.0
H1409 H 0.72328 0.48752 0.39619 0.0
H1410 H 0.82713 0.49738 0.31406 0.0
H1411 H 0.81744 0.53055 0.31593 0.0
H1412 H 0.83213 0.51605 0.36508 0.0
H1413 H 0.71091 0.46962 0.32675 0.0
H1414 H 0.72401 0.48812 0.28035 0.0
H1415 H 0.7367 0.45672 0.29257 0.0
H1416 H 0.76001 0.51683 0.17283 0.0
H1417 H 0.78804 0.44025 0.19994 0.0
H1418 H 0.77672 0.5437 0.28329 0.0
H1419 H 0.7438 0.53451 0.27362 0.0
H1420 H 0.76188 0.54984 0.22888 0.0
H1421 H 0.80981 0.45342 0.31581 0.0
H1422 H 0.80751 0.42964 0.27116 0.0
H1423 H 0.78011 0.43635 0.30682 0.0
C1424 C 0.49957 0.20841 0.59677 0.0
C1425 C 0.49713 0.2343 0.58377 0.0
C1426 C 0.49437 0.20081 0.6417 0.0
C1427 C 0.48655 0.21967 0.6737 0.0
C1428 C 0.48289 0.24563 0.65969 0.0
C1429 C 0.48848 0.25263 0.61498 0.0
C1430 C 0.49864 0.17304 0.6553 0.0
C1431 C 0.47409 0.26633 0.69238 0.0
C1432 C 0.45258 0.2119 0.7849 0.0
C1433 C 0.47182 0.2208 0.81466 0.0
C1434 C 0.4579 0.20803 0.73884 0.0
C1435 C 0.48302 0.21323 0.72241 0.0
C1436 C 0.50329 0.21845 0.75347 0.0
C1437 C 0.49743 0.2222 0.79952 0.0
C1438 C 0.43587 0.20177 0.7071 0.0
C1439 C 0.53053 0.22333 0.73736 0.0
H1440 H 0.5068 0.19442 0.57253 0.0
H1441 H 0.48691 0.27268 0.60463 0.0
H1442 H 0.51749 0.17138 0.67304 0.0
H1443 H 0.48343 0.16631 0.67905 0.0
H1444 H 0.499 0.16004 0.62533 0.0
H1445 H 0.471 0.28524 0.67536 0.0
H1446 H 0.45575 0.26048 0.70895 0.0
H1447 H 0.48878 0.26894 0.71944 0.0
H1448 H 0.43281 0.21018 0.79676 0.0
H1449 H 0.51244 0.22877 0.82246 0.0
H1450 H 0.44222 0.18846 0.67982 0.0
H1451 H 0.42902 0.21985 0.69077 0.0
H1452 H 0.41934 0.1929 0.72541 0.0
H1453 H 0.53602 0.20933 0.71059 0.0
H1454 H 0.5447 0.22204 0.7656 0.0
H1455 H 0.53172 0.243 0.72247 0.0
C1456 C 0.21442 0.51135 0.19145 0.0
C1457 C 0.24045 0.50788 0.17967 0.0
C1458 C 0.20572 0.50549 0.23559 0.0
C1459 C 0.22357 0.49615 0.26823 0.0
C1460 C 0.24945 0.49113 0.25532 0.0
C1461 C 0.25746 0.49695 0.21128 0.0
C1462 C 0.17788 0.51062 0.24771 0.0
C1463 C 0.26918 0.48083 0.28865 0.0
C1464 C 0.22511 0.50716 0.39402 0.0
C1465 C 0.22325 0.48161 0.40932 0.0
C1466 C 0.22191 0.513 0.34782 0.0
C1467 C 0.21644 0.49283 0.31674 0.0
C1468 C 0.21079 0.46781 0.33327 0.0
C1469 C 0.21459 0.4624 0.37939 0.0
C1470 C 0.22767 0.54005 0.33167 0.0
C1471 C 0.20383 0.44602 0.30157 0.0
H1472 H 0.20123 0.51989 0.1671 0.0
H1473 H 0.27752 0.49387 0.20205 0.0
H1474 H 0.17038 0.49589 0.27169 0.0
H1475 H 0.17642 0.52974 0.26446 0.0
H1476 H 0.16537 0.51094 0.21705 0.0
H1477 H 0.28836 0.47757 0.27274 0.0
H1478 H 0.27166 0.49469 0.31704 0.0
H1479 H 0.26243 0.46229 0.30331 0.0
H1480 H 0.23158 0.52211 0.41715 0.0
H1481 H 0.21255 0.44269 0.3914 0.0
H1482 H 0.21371 0.54607 0.30514 0.0
H1483 H 0.24729 0.54054 0.31644 0.0
H1484 H 0.22706 0.55425 0.3599 0.0
H1485 H 0.1909 0.45287 0.27403 0.0
H1486 H 0.1942 0.42991 0.3199 0.0
H1487 H 0.22169 0.43839 0.28564 0.0
C1488 C 0.48678 0.7357 0.616 0.0
C1489 C 0.48762 0.75442 0.58176 0.0
C1490 C 0.49434 0.74151 0.66038 0.0
C1491 C 0.50215 0.767 0.67129 0.0
C1492 C 0.50246 0.78624 0.63702 0.0
C1493 C 0.49568 0.77956 0.59222 0.0
C1494 C 0.49435 0.72015 0.6954 0.0
C1495 C 0.50993 0.81376 0.64757 0.0
C1496 C 0.50086 0.77303 0.79891 0.0
C1497 C 0.52631 0.76587 0.80948 0.0
C1498 C 0.49321 0.77665 0.75352 0.0
C1499 C 0.51131 0.77246 0.71818 0.0
C1500 C 0.53756 0.76809 0.72905 0.0
C1501 C 0.54478 0.76521 0.77455 0.0
C1502 C 0.46525 0.78251 0.74328 0.0
C1503 C 0.55753 0.76325 0.69267 0.0
H1504 H 0.48061 0.71623 0.60778 0.0
H1505 H 0.496 0.79409 0.56572 0.0
H1506 H 0.51397 0.71799 0.71018 0.0
H1507 H 0.48099 0.72505 0.7235 0.0
H1508 H 0.48837 0.70125 0.68094 0.0
H1509 H 0.50441 0.82718 0.61977 0.0
H1510 H 0.50064 0.8203 0.67949 0.0
H1511 H 0.53114 0.81503 0.65247 0.0
H1512 H 0.4865 0.77404 0.82562 0.0
H1513 H 0.56467 0.7603 0.78232 0.0
H1514 H 0.45516 0.7644 0.73366 0.0
H1515 H 0.46359 0.79614 0.71434 0.0
H1516 H 0.45521 0.79087 0.77316 0.0
H1517 H 0.55427 0.74385 0.67771 0.0
H1518 H 0.57755 0.76395 0.70631 0.0
H1519 H 0.55581 0.7776 0.66492 0.0
C1520 C 0.24844 0.50065 0.87181 0.0
C1521 C 0.23491 0.51492 0.90435 0.0
C1522 C 0.23898 0.49797 0.82762 0.0
C1523 C 0.21541 0.51009 0.81538 0.0
C1524 C 0.20085 0.52331 0.84878 0.0
C1525 C 0.21078 0.52553 0.89311 0.0
C1526 C 0.25495 0.48311 0.7935 0.0
C1527 C 0.17563 0.53641 0.83734 0.0
C1528 C 0.22051 0.521 0.69005 0.0
C1529 C 0.21161 0.49703 0.67455 0.0
C1530 C 0.21854 0.52751 0.7362 0.0
C1531 C 0.20737 0.50961 0.7669 0.0
C1532 C 0.19446 0.48759 0.74982 0.0
C1533 C 0.19681 0.4815 0.70368 0.0
C1534 C 0.23173 0.55169 0.7529 0.0
C1535 C 0.18146 0.4685 0.78105 0.0
H1536 H 0.267 0.49227 0.88056 0.0
H1537 H 0.20039 0.53681 0.91813 0.0
H1538 H 0.2431 0.46775 0.7775 0.0
H1539 H 0.26156 0.49629 0.76616 0.0
H1540 H 0.27223 0.47396 0.80911 0.0
H1541 H 0.16364 0.53948 0.86812 0.0
H1542 H 0.17972 0.55557 0.82207 0.0
H1543 H 0.16431 0.52506 0.81234 0.0
H1544 H 0.23177 0.5332 0.66759 0.0
H1545 H 0.18944 0.46315 0.69151 0.0
H1546 H 0.25088 0.54655 0.76732 0.0
H1547 H 0.22024 0.56099 0.78012 0.0
H1548 H 0.23477 0.56583 0.72503 0.0
H1549 H 0.19634 0.45576 0.79644 0.0
H1550 H 0.16745 0.45615 0.76244 0.0
H1551 H 0.17123 0.47853 0.80901 0.0
C1552 C 0.52459 0.78863 0.09597 0.0
C1553 C 0.51199 0.76603 0.08205 0.0
C1554 C 0.52152 0.79808 0.14033 0.0
C1555 C 0.50606 0.78409 0.17143 0.0
C1556 C 0.49194 0.7622 0.1563 0.0
C1557 C 0.49511 0.75346 0.11167 0.0
C1558 C 0.5364 0.8218 0.15456 0.0
C1559 C 0.47513 0.7467 0.18821 0.0
C1560 C 0.51929 0.77475 0.29581 0.0
C1561 C 0.49666 0.78524 0.31414 0.0
C1562 C 0.52436 0.77676 0.24915 0.0
C1563 C 0.50661 0.79003 0.22082 0.0
C1564 C 0.48619 0.80423 0.24059 0.0
C1565 C 0.4813 0.80149 0.28715 0.0
C1566 C 0.54669 0.76171 0.22955 0.0
C1567 C 0.46759 0.81964 0.21191 0.0
H1568 H 0.5381 0.79797 0.0731 0.0
H1569 H 0.48588 0.73567 0.10092 0.0
H1570 H 0.52542 0.83339 0.17965 0.0
H1571 H 0.55484 0.81581 0.17064 0.0
H1572 H 0.54111 0.8342 0.12492 0.0
H1573 H 0.46439 0.7311 0.17044 0.0
H1574 H 0.48731 0.73776 0.21496 0.0
H1575 H 0.46095 0.75946 0.2053 0.0
H1576 H 0.53125 0.76222 0.31654 0.0
H1577 H 0.46392 0.80992 0.30143 0.0
H1578 H 0.55702 0.77329 0.20363 0.0
H1579 H 0.5392 0.74407 0.21263 0.0
H1580 H 0.56071 0.75572 0.25612 0.0
H1581 H 0.47786 0.82969 0.18396 0.0
H1582 H 0.457 0.83415 0.23251 0.0
H1583 H 0.45321 0.80639 0.19645 0.0
C1584 C 0.78558 0.47006 0.89697 0.0
C1585 C 0.76229 0.48078 0.91207 0.0
C1586 C 0.79424 0.47434 0.85241 0.0
C1587 C 0.77868 0.48894 0.82229 0.0
C1588 C 0.75577 0.50087 0.83846 0.0
C1589 C 0.74793 0.49669 0.88333 0.0
C1590 C 0.81911 0.46192 0.83707 0.0
C1591 C 0.73852 0.51659 0.80756 0.0
C1592 C 0.79325 0.51762 0.70818 0.0
C1593 C 0.77871 0.50118 0.68023 0.0
C1594 C 0.79653 0.5121 0.75441 0.0
C1595 C 0.78446 0.48998 0.77293 0.0
C1596 C 0.77289 0.47161 0.7436 0.0
C1597 C 0.7704 0.47733 0.69726 0.0
C1598 C 0.81018 0.53149 0.78417 0.0
C1599 C 0.76007 0.44757 0.76189 0.0
H1600 H 0.7964 0.4574 0.91932 0.0
H1601 H 0.72969 0.50452 0.89514 0.0
H1602 H 0.8147 0.44333 0.82007 0.0
H1603 H 0.82953 0.47435 0.81243 0.0
H1604 H 0.83208 0.45782 0.86625 0.0
H1605 H 0.72189 0.52523 0.82591 0.0
H1606 H 0.74972 0.53239 0.79144 0.0
H1607 H 0.7309 0.50412 0.78 0.0
H1608 H 0.80003 0.53595 0.69486 0.0
H1609 H 0.7592 0.46455 0.67574 0.0
H1610 H 0.82138 0.52165 0.81126 0.0
H1611 H 0.79565 0.54408 0.80079 0.0
H1612 H 0.82344 0.54396 0.76417 0.0
H1613 H 0.77267 0.43787 0.7871 0.0
H1614 H 0.75533 0.4336 0.73452 0.0
H1615 H 0.74186 0.453 0.77937 0.0
C1616 C 0.47621 0.22066 0.2971 0.0
C1617 C 0.50003 0.21254 0.31458 0.0
C1618 C 0.47089 0.21837 0.25059 0.0
C1619 C 0.48966 0.20726 0.22153 0.0
C1620 C 0.51179 0.19537 0.24039 0.0
C1621 C 0.51689 0.1984 0.2868 0.0
C1622 C 0.44681 0.23097 0.23192 0.0
C1623 C 0.53163 0.18223 0.21088 0.0
C1624 C 0.47089 0.20717 0.09695 0.0
C1625 C 0.48121 0.23088 0.08303 0.0
C1626 C 0.47496 0.19806 0.14131 0.0
C1627 C 0.48903 0.21351 0.17233 0.0
C1628 C 0.5007 0.2368 0.15727 0.0
C1629 C 0.49664 0.24516 0.11266 0.0
C1630 C 0.46277 0.17285 0.15553 0.0
C1631 C 0.51593 0.25391 0.18911 0.0
H1632 H 0.46309 0.23152 0.3185 0.0
H1633 H 0.53518 0.19174 0.30048 0.0
H1634 H 0.45213 0.2494 0.21506 0.0
H1635 H 0.43753 0.21845 0.20614 0.0
H1636 H 0.43252 0.23525 0.25901 0.0
H1637 H 0.54407 0.16895 0.23093 0.0
H1638 H 0.52218 0.17116 0.18323 0.0
H1639 H 0.54421 0.19705 0.19499 0.0
H1640 H 0.45855 0.19643 0.07394 0.0
H1641 H 0.50417 0.26371 0.10175 0.0
H1642 H 0.44392 0.17679 0.17204 0.0
H1643 H 0.4751 0.16238 0.18027 0.0
H1644 H 0.45917 0.16013 0.12584 0.0
H1645 H 0.50309 0.26112 0.21648 0.0
H1646 H 0.52457 0.2708 0.17148 0.0
H1647 H 0.5317 0.24275 0.20541 0.0
C1648 C 0.34833 0.22747 0.01374 0.0
C1649 C 0.36536 0.22351 0.97748 0.0
C1650 C 0.32934 0.20909 0.02428 0.0
C1651 C 0.32801 0.18597 0.99876 0.0
C1652 C 0.34504 0.18201 0.96189 0.0
C1653 C 0.36329 0.20103 0.9513 0.0
C1654 C 0.31096 0.2142 0.06301 0.0
C1655 C 0.3446 0.15732 0.9346 0.0
C1656 C 0.30013 0.12596 0.0534 0.0
C1657 C 0.27651 0.12363 0.03056 0.0
C1658 C 0.31698 0.14643 0.04379 0.0
C1659 C 0.30959 0.16533 0.01157 0.0
C1660 C 0.28529 0.1636 0.9897 0.0
C1661 C 0.26917 0.14249 0.99897 0.0
C1662 C 0.34304 0.14731 0.06691 0.0
C1663 C 0.27652 0.18381 0.95609 0.0
H1664 H 0.34985 0.24496 0.0338 0.0
H1665 H 0.37663 0.19783 0.9235 0.0
H1666 H 0.29069 0.21168 0.05153 0.0
H1667 H 0.31439 0.20006 0.09065 0.0
H1668 H 0.31322 0.23399 0.07706 0.0
H1669 H 0.35911 0.15737 0.90683 0.0
H1670 H 0.34857 0.1406 0.95716 0.0
H1671 H 0.32518 0.1543 0.91955 0.0
H1672 H 0.30584 0.11129 0.07768 0.0
H1673 H 0.25072 0.14081 0.98172 0.0
H1674 H 0.34556 0.16596 0.08484 0.0
H1675 H 0.3586 0.14596 0.04112 0.0
H1676 H 0.34559 0.13136 0.09175 0.0
H1677 H 0.27831 0.20337 0.97115 0.0
H1678 H 0.25618 0.18083 0.94515 0.0
H1679 H 0.28908 0.18331 0.92563 0.0
C1680 C 0.21487 0.64349 0.05275 0.0
C1681 C 0.20925 0.61704 0.05569 0.0
C1682 C 0.19506 0.66178 0.04961 0.0
C1683 C 0.16906 0.65336 0.04964 0.0
C1684 C 0.1632 0.62695 0.05643 0.0
C1685 C 0.18342 0.60903 0.05928 0.0
C1686 C 0.20204 0.68983 0.0425 0.0
C1687 C 0.13564 0.61736 0.05721 0.0
C1688 C 0.1171 0.70498 0.05168 0.0
C1689 C 0.11182 0.70768 0.00521 0.0
C1690 C 0.1353 0.68689 0.06706 0.0
C1691 C 0.14853 0.67141 0.03511 0.0
C1692 C 0.143 0.67381 0.98829 0.0
C1693 C 0.12467 0.69185 0.97396 0.0
C1694 C 0.14064 0.68457 0.11725 0.0
C1695 C 0.15683 0.65766 0.95313 0.0
H1696 H 0.23478 0.64991 0.05065 0.0
H1697 H 0.17891 0.58865 0.06226 0.0
H1698 H 0.19799 0.6953 0.00678 0.0
H1699 H 0.19014 0.70248 0.06451 0.0
H1700 H 0.22279 0.69367 0.04961 0.0
H1701 H 0.13425 0.59732 0.07051 0.0
H1702 H 0.12333 0.63015 0.07827 0.0
H1703 H 0.1277 0.61762 0.02224 0.0
H1704 H 0.1071 0.71705 0.07604 0.0
H1705 H 0.12071 0.69376 0.938 0.0
H1706 H 0.16086 0.69043 0.12444 0.0
H1707 H 0.13856 0.66419 0.12832 0.0
H1708 H 0.12748 0.6968 0.13784 0.0
H1709 H 0.1779 0.66164 0.95441 0.0
H1710 H 0.14985 0.66158 0.91815 0.0
H1711 H 0.15409 0.63682 0.96049 0.0
C1712 C 0.7207 0.84546 0.03543 0.0
C1713 C 0.72028 0.8674 0.00773 0.0
C1714 C 0.70438 0.82453 0.02643 0.0
C1715 C 0.68662 0.82622 0.99004 0.0
C1716 C 0.68649 0.84822 0.96146 0.0
C1717 C 0.70376 0.86845 0.97022 0.0
C1718 C 0.70563 0.80097 0.05662 0.0
C1719 C 0.66722 0.851 0.92325 0.0
C1720 C 0.65099 0.76686 0.94843 0.0
C1721 C 0.62825 0.76833 0.97398 0.0
C1722 C 0.67057 0.7853 0.95401 0.0
C1723 C 0.66666 0.80605 0.98447 0.0
C1724 C 0.64353 0.80771 0.00989 0.0
C1725 C 0.62476 0.78849 0.00491 0.0
C1726 C 0.69543 0.78253 0.92765 0.0
C1727 C 0.63837 0.82999 0.04171 0.0
H1728 H 0.73381 0.8447 0.06412 0.0
H1729 H 0.70353 0.8856 0.94907 0.0
H1730 H 0.68787 0.79978 0.07757 0.0
H1731 H 0.70656 0.78314 0.03579 0.0
H1732 H 0.72261 0.80142 0.07969 0.0
H1733 H 0.67054 0.86877 0.90289 0.0
H1734 H 0.66816 0.83404 0.90036 0.0
H1735 H 0.64736 0.85172 0.93739 0.0
H1736 H 0.65356 0.7511 0.92465 0.0
H1737 H 0.60694 0.78969 0.02416 0.0
H1738 H 0.71211 0.78217 0.95134 0.0
H1739 H 0.69811 0.7994 0.90493 0.0
H1740 H 0.69578 0.76467 0.90679 0.0
H1741 H 0.65301 0.83026 0.06919 0.0
H1742 H 0.61888 0.8289 0.05739 0.0
H1743 H 0.64001 0.84857 0.02309 0.0
C1744 C 0.7689 0.34925 0.98894 0.0
C1745 C 0.77272 0.36629 0.02522 0.0
C1746 C 0.78715 0.33007 0.97911 0.0
C1747 C 0.80994 0.32849 0.0055 0.0
C1748 C 0.81366 0.34537 0.04266 0.0
C1749 C 0.7948 0.3639 0.05242 0.0
C1750 C 0.78233 0.31193 0.93991 0.0
C1751 C 0.83803 0.34457 0.07092 0.0
C1752 C 0.85288 0.26935 0.00276 0.0
C1753 C 0.87171 0.27697 0.97134 0.0
C1754 C 0.83211 0.28564 0.01324 0.0
C1755 C 0.83069 0.3103 0.99268 0.0
C1756 C 0.84968 0.31807 0.96093 0.0
C1757 C 0.86981 0.30112 0.9502 0.0
C1758 C 0.81179 0.27655 0.04636 0.0
C1759 C 0.84906 0.34449 0.93912 0.0
H1760 H 0.75168 0.35097 0.96816 0.0
H1761 H 0.79785 0.3772 0.08032 0.0
H1762 H 0.7966 0.31566 0.91261 0.0
H1763 H 0.78492 0.2916 0.95097 0.0
H1764 H 0.7626 0.31416 0.92553 0.0
H1765 H 0.83753 0.35855 0.09948 0.0
H1766 H 0.84102 0.32492 0.08494 0.0
H1767 H 0.85498 0.34909 0.04925 0.0
H1768 H 0.85423 0.25052 0.01873 0.0
H1769 H 0.88448 0.30706 0.92608 0.0
H1770 H 0.79231 0.27815 0.03083 0.0
H1771 H 0.81191 0.28905 0.07691 0.0
H1772 H 0.81491 0.25623 0.05721 0.0
H1773 H 0.83065 0.3472 0.92042 0.0
H1774 H 0.86535 0.34749 0.91516 0.0
H1775 H 0.84996 0.35964 0.96569 0.0
C1776 C 0.68427 0.11407 0.51513 0.0
C1777 C 0.71046 0.12107 0.51396 0.0
C1778 C 0.66487 0.13249 0.50824 0.0
C1779 C 0.67188 0.15848 0.50002 0.0
C1780 C 0.6982 0.16581 0.49962 0.0
C1781 C 0.71722 0.14698 0.50661 0.0
C1782 C 0.63691 0.12406 0.5089 0.0
C1783 C 0.70628 0.19342 0.49097 0.0
C1784 C 0.62378 0.19951 0.43584 0.0
C1785 C 0.61206 0.21342 0.47108 0.0
C1786 C 0.64349 0.18174 0.44482 0.0
C1787 C 0.65163 0.17781 0.4901 0.0
C1788 C 0.64011 0.19192 0.52581 0.0
C1789 C 0.62043 0.20961 0.51587 0.0
C1790 C 0.65542 0.16698 0.40591 0.0
C1791 C 0.6484 0.18812 0.57451 0.0
H1792 H 0.67886 0.09411 0.52093 0.0
H1793 H 0.73741 0.15257 0.5058 0.0
H1794 H 0.62591 0.13563 0.53399 0.0
H1795 H 0.62801 0.12755 0.47519 0.0
H1796 H 0.63471 0.10327 0.51746 0.0
H1797 H 0.72754 0.1961 0.49358 0.0
H1798 H 0.69998 0.19944 0.45656 0.0
H1799 H 0.69673 0.2065 0.51559 0.0
H1800 H 0.61747 0.20238 0.40113 0.0
H1801 H 0.61148 0.22029 0.54329 0.0
H1802 H 0.65228 0.14595 0.41072 0.0
H1803 H 0.67661 0.17025 0.40514 0.0
H1804 H 0.64721 0.1727 0.37255 0.0
H1805 H 0.64493 0.16781 0.58491 0.0
H1806 H 0.63787 0.20106 0.5982 0.0
H1807 H 0.66944 0.1918 0.57797 0.0
C1808 C 0.14286 0.26714 0.53528 0.0
C1809 C 0.12618 0.27119 0.49848 0.0
C1810 C 0.1615 0.28567 0.54688 0.0
C1811 C 0.16287 0.30892 0.52175 0.0
C1812 C 0.1459 0.31316 0.48483 0.0
C1813 C 0.12795 0.29406 0.47328 0.0
C1814 C 0.17977 0.28034 0.58573 0.0
C1815 C 0.14646 0.33799 0.45783 0.0
C1816 C 0.19237 0.36933 0.57184 0.0
C1817 C 0.21535 0.37113 0.54698 0.0
C1818 C 0.17538 0.34861 0.56512 0.0
C1819 C 0.18199 0.32904 0.53369 0.0
C1820 C 0.20589 0.33004 0.51049 0.0
C1821 C 0.22217 0.35132 0.51695 0.0
C1822 C 0.14977 0.34843 0.5897 0.0
C1823 C 0.21382 0.30914 0.47759 0.0
H1824 H 0.14154 0.24936 0.55461 0.0
H1825 H 0.11486 0.29732 0.44511 0.0
H1826 H 0.20006 0.28154 0.57373 0.0
H1827 H 0.17736 0.2952 0.61249 0.0
H1828 H 0.17657 0.26099 0.60106 0.0
H1829 H 0.13137 0.3385 0.43101 0.0
H1830 H 0.14354 0.35473 0.48075 0.0
H1831 H 0.16562 0.34042 0.44152 0.0
H1832 H 0.1871 0.38473 0.59496 0.0
H1833 H 0.24014 0.35258 0.49818 0.0
H1834 H 0.14672 0.32962 0.60692 0.0
H1835 H 0.13384 0.35089 0.56482 0.0
H1836 H 0.14839 0.36409 0.61532 0.0
H1837 H 0.21129 0.28979 0.49319 0.0
H1838 H 0.23425 0.31124 0.46657 0.0
H1839 H 0.20128 0.30991 0.44708 0.0
C1840 C 0.37343 0.80157 0.4313 0.0
C1841 C 0.37636 0.77864 0.45606 0.0
C1842 C 0.35328 0.81872 0.441 0.0
C1843 C 0.33542 0.81243 0.47559 0.0
C1844 C 0.33772 0.78885 0.49956 0.0
C1845 C 0.35842 0.77233 0.48986 0.0
C1846 C 0.35171 0.84399 0.41544 0.0
C1847 C 0.31865 0.78135 0.53604 0.0
C1848 C 0.30213 0.86735 0.53611 0.0
C1849 C 0.27823 0.86818 0.51377 0.0
C1850 C 0.32096 0.84934 0.52375 0.0
C1851 C 0.31547 0.83139 0.4889 0.0
C1852 C 0.29126 0.83187 0.46657 0.0
C1853 C 0.27296 0.85055 0.47895 0.0
C1854 C 0.34682 0.84973 0.54761 0.0
C1855 C 0.28468 0.81263 0.42986 0.0
H1856 H 0.38737 0.80651 0.40525 0.0
H1857 H 0.36052 0.75443 0.50864 0.0
H1858 H 0.33231 0.84628 0.39992 0.0
H1859 H 0.35448 0.86031 0.43934 0.0
H1860 H 0.36651 0.84543 0.38827 0.0
H1861 H 0.32187 0.76137 0.54862 0.0
H1862 H 0.32034 0.79484 0.56511 0.0
H1863 H 0.2986 0.78286 0.52294 0.0
H1864 H 0.30632 0.88115 0.56278 0.0
H1865 H 0.25439 0.8511 0.46188 0.0
H1866 H 0.36254 0.85258 0.5225 0.0
H1867 H 0.35032 0.83093 0.5646 0.0
H1868 H 0.34809 0.8653 0.57345 0.0
H1869 H 0.29834 0.81468 0.40111 0.0
H1870 H 0.26468 0.81514 0.41686 0.0
H1871 H 0.28677 0.79267 0.44312 0.0
C1872 C 0.86762 0.70441 0.54331 0.0
C1873 C 0.86247 0.72285 0.50976 0.0
C1874 C 0.84995 0.68452 0.55221 0.0
C1875 C 0.8263 0.68375 0.52802 0.0
C1876 C 0.82045 0.70326 0.49593 0.0
C1877 C 0.83889 0.72233 0.48651 0.0
C1878 C 0.85719 0.6636 0.58562 0.0
C1879 C 0.79506 0.70354 0.47062 0.0
C1880 C 0.79326 0.61949 0.50864 0.0
C1881 C 0.77488 0.61932 0.54341 0.0
C1882 C 0.81049 0.64017 0.50391 0.0
C1883 C 0.80856 0.66153 0.53369 0.0
C1884 C 0.78967 0.66164 0.56841 0.0
C1885 C 0.77331 0.64022 0.5734 0.0
C1886 C 0.83091 0.63902 0.46735 0.0
C1887 C 0.78652 0.68448 0.59973 0.0
H1888 H 0.88604 0.70478 0.5609 0.0
H1889 H 0.83495 0.7368 0.46079 0.0
H1890 H 0.84187 0.66131 0.6116 0.0
H1891 H 0.85892 0.64487 0.56757 0.0
H1892 H 0.87579 0.66769 0.60306 0.0
H1893 H 0.79233 0.72163 0.45088 0.0
H1894 H 0.79426 0.68697 0.44682 0.0
H1895 H 0.7787 0.70139 0.49466 0.0
H1896 H 0.79455 0.60313 0.48579 0.0
H1897 H 0.7589 0.64004 0.60009 0.0
H1898 H 0.85037 0.64167 0.48254 0.0
H1899 H 0.82795 0.65494 0.44269 0.0
H1900 H 0.83063 0.62041 0.44862 0.0
H1901 H 0.80463 0.68782 0.61899 0.0
H1902 H 0.77045 0.68174 0.62424 0.0
H1903 H 0.78271 0.70219 0.57955 0.0
loop_
_geom_bond_atom_site_label_1
_geom_bond_atom_site_label_2
_geom_bond_distance
_geom_bond_site_symmetry_2
_ccdc_geom_bond_type
O0 Zn1 1.953 . S
O0 C16 1.225 . S
Zn1 O0 1.953 . S
Zn1 O2 1.949 . S
Zn1 O8 1.919 . S
Zn1 O13 1.924 . S
O2 Zn1 1.949 . S
O2 Zn3 1.923 . S
O2 Zn4 1.950 . S
O2 Zn5 1.938 1_554 S
Zn3 O2 1.923 . S
Zn3 O6 1.933 1_554 S
Zn3 O9 1.961 . S
Zn3 O10 1.965 . S
Zn4 O2 1.950 . S
Zn4 O11 1.938 . S
Zn4 O12 1.906 . S
Zn4 O22 1.953 . S
Zn5 O2 1.938 1_556 S
Zn5 O7 1.937 . S
Zn5 O14 1.976 1_556 S
Zn5 O15 1.913 . S
O6 Zn3 1.933 1_556 S
O6 C17 1.226 . S
O7 Zn5 1.937 . S
O7 C17 1.307 . S
O8 Zn1 1.919 . S
O8 C19 1.253 . S
O9 Zn3 1.961 . S
O9 C19 1.287 . S
O10 Zn3 1.965 . S
O10 C18 1.303 . S
O11 Zn4 1.938 . S
O11 C18 1.247 . S
O12 Zn4 1.906 . S
O12 C20 1.304 . S
O13 Zn1 1.924 . S
O13 C21 1.329 . S
O14 Zn5 1.976 1_554 S
O14 C20 1.272 . S
O15 Zn5 1.913 . S
O15 C21 1.219 1_556 S
C16 O0 1.225 . S
C16 O22 1.298 . S
C17 O6 1.226 . S
C17 O7 1.307 . S
C18 O10 1.303 . S
C18 O11 1.247 . S
C19 O8 1.253 . S
C19 O9 1.287 . S
C20 O12 1.304 . S
C20 O14 1.272 . S
C21 O13 1.329 . S
C21 O15 1.219 1_554 S
O22 Zn4 1.953 . S
O22 C16 1.298 . S
O23 Zn24 1.953 . S
O23 C39 1.225 . S
Zn24 O23 1.953 . S
Zn24 O25 1.949 . S
Zn24 O31 1.919 . S
Zn24 O36 1.924 . S
O25 Zn24 1.949 . S
O25 Zn26 1.923 . S
O25 Zn27 1.950 . S
O25 Zn28 1.942 . S
Zn26 O25 1.923 . S
Zn26 O29 1.933 1_556 S
Zn26 O32 1.969 . S
Zn26 O33 1.965 . S
Zn27 O25 1.950 . S
Zn27 O34 1.938 . S
Zn27 O35 1.906 . S
Zn27 O45 1.953 . S
Zn28 O25 1.942 . S
Zn28 O30 1.934 1_556 S
Zn28 O37 1.976 . S
Zn28 O38 1.911 1_556 S
O29 Zn26 1.933 1_554 S
O29 C40 1.226 . S
O30 Zn28 1.934 1_554 S
O30 C40 1.307 . S
O31 Zn24 1.919 . S
O31 C42 1.253 . S
O32 Zn26 1.969 . S
O32 C42 1.289 . S
O33 Zn26 1.965 . S
O33 C41 1.303 . S
O34 Zn27 1.938 . S
O34 C41 1.247 . S
O35 Zn27 1.906 . S
O35 C43 1.304 . S
O36 Zn24 1.924 . S
O36 C44 1.311 . S
O37 Zn28 1.976 . S
O37 C43 1.272 . S
O38 Zn28 1.911 1_554 S
O38 C44 1.231 1_554 S
C39 O23 1.225 . S
C39 O45 1.298 . S
C40 O29 1.226 . S
C40 O30 1.307 . S
C41 O33 1.303 . S
C41 O34 1.247 . S
C42 O31 1.253 . S
C42 O32 1.289 . S
C43 O35 1.304 . S
C43 O37 1.272 . S
C44 O36 1.311 . S
C44 O38 1.231 1_556 S
O45 Zn27 1.953 . S
O45 C39 1.298 . S
O46 Zn47 1.953 . S
O46 C62 1.225 . S
Zn47 O46 1.953 . S
Zn47 O48 1.949 . S
Zn47 O54 1.919 . S
Zn47 O59 1.924 . S
O48 Zn47 1.949 . S
O48 Zn49 1.923 . S
O48 Zn50 1.950 . S
O48 Zn51 1.944 . S
Zn49 O48 1.923 . S
Zn49 O52 1.933 1_554 S
Zn49 O55 1.968 . S
Zn49 O56 1.965 . S
Zn50 O48 1.950 . S
Zn50 O57 1.938 . S
Zn50 O58 1.906 . S
Zn50 O68 1.953 . S
Zn51 O48 1.944 . S
Zn51 O53 1.933 1_554 S
Zn51 O60 1.976 . S
Zn51 O61 1.911 1_554 S
O52 Zn49 1.933 1_556 S
O52 C63 1.226 . S
O53 Zn51 1.933 1_556 S
O53 C63 1.307 . S
O54 Zn47 1.919 . S
O54 C65 1.253 . S
O55 Zn49 1.968 . S
O55 C65 1.289 . S
O56 Zn49 1.965 . S
O56 C64 1.303 . S
O57 Zn50 1.938 . S
O57 C64 1.247 . S
O58 Zn50 1.906 . S
O58 C66 1.304 . S
O59 Zn47 1.924 . S
O59 C67 1.311 . S
O60 Zn51 1.976 . S
O60 C66 1.272 . S
O61 Zn51 1.911 1_556 S
O61 C67 1.231 1_556 S
C62 O46 1.225 . S
C62 O68 1.298 . S
C63 O52 1.226 . S
C63 O53 1.307 . S
C64 O56 1.303 . S
C64 O57 1.247 . S
C65 O54 1.253 . S
C65 O55 1.289 . S
C66 O58 1.304 . S
C66 O60 1.272 . S
C67 O59 1.311 . S
C67 O61 1.231 1_554 S
O68 Zn50 1.953 . S
O68 C62 1.298 . S
O69 Zn70 1.953 . S
O69 C85 1.225 . S
Zn70 O69 1.953 . S
Zn70 O71 1.949 . S
Zn70 O77 1.919 . S
Zn70 O82 1.924 . S
O71 Zn70 1.949 . S
O71 Zn72 1.923 . S
O71 Zn73 1.950 . S
O71 Zn74 1.928 1_556 S
Zn72 O71 1.923 . S
Zn72 O75 1.933 1_556 S
Zn72 O78 1.971 . S
Zn72 O79 1.965 . S
Zn73 O71 1.950 . S
Zn73 O80 1.938 . S
Zn73 O81 1.906 . S
Zn73 O91 1.953 . S
Zn74 O71 1.928 1_554 S
Zn74 O76 1.945 . S
Zn74 O83 1.974 1_554 S
Zn74 O84 1.916 . S
O75 Zn72 1.933 1_554 S
O75 C86 1.226 . S
O76 Zn74 1.945 . S
O76 C86 1.307 . S
O77 Zn70 1.919 . S
O77 C88 1.253 . S
O78 Zn72 1.971 . S
O78 C88 1.290 . S
O79 Zn72 1.965 . S
O79 C87 1.303 . S
O80 Zn73 1.938 . S
O80 C87 1.247 . S
O81 Zn73 1.906 . S
O81 C89 1.304 . S
O82 Zn70 1.924 . S
O82 C90 1.319 . S
O83 Zn74 1.974 1_556 S
O83 C89 1.272 . S
O84 Zn74 1.916 . S
O84 C90 1.226 1_554 S
C85 O69 1.225 . S
C85 O91 1.298 . S
C86 O75 1.226 . S
C86 O76 1.307 . S
C87 O79 1.303 . S
C87 O80 1.247 . S
C88 O77 1.253 . S
C88 O78 1.290 . S
C89 O81 1.304 . S
C89 O83 1.272 . S
C90 O82 1.319 . S
C90 O84 1.226 1_556 S
O91 Zn73 1.953 . S
O91 C85 1.298 . S
O92 Zn93 1.953 . S
O92 C108 1.225 . S
Zn93 O92 1.953 . S
Zn93 O94 1.949 . S
Zn93 O100 1.919 . S
Zn93 O105 1.924 . S
O94 Zn93 1.949 . S
O94 Zn95 1.923 . S
O94 Zn96 1.950 . S
O94 Zn97 1.945 . S
Zn95 O94 1.923 . S
Zn95 O98 1.933 . S
Zn95 O101 1.941 . S
Zn95 O102 1.965 . S
Zn96 O94 1.950 . S
Zn96 O103 1.938 . S
Zn96 O104 1.906 . S
Zn96 O114 1.953 . S
Zn97 O94 1.945 . S
Zn97 O99 1.932 . S
Zn97 O106 1.977 . S
Zn97 O107 1.910 . S
O98 Zn95 1.933 . S
O98 C109 1.226 . S
O99 Zn97 1.932 . S
O99 C109 1.307 . S
O100 Zn93 1.919 . S
O100 C111 1.253 . S
O101 Zn95 1.941 . S
O101 C111 1.283 . S
O102 Zn95 1.965 . S
O102 C110 1.303 . S
O103 Zn96 1.938 . S
O103 C110 1.247 . S
O104 Zn96 1.906 . S
O104 C112 1.304 . S
O105 Zn93 1.924 . S
O105 C113 1.311 . S
O106 Zn97 1.977 . S
O106 C112 1.272 . S
O107 Zn97 1.910 . S
O107 C113 1.231 . S
C108 O92 1.225 . S
C108 O114 1.298 . S
C109 O98 1.226 . S
C109 O99 1.307 . S
C110 O102 1.303 . S
C110 O103 1.247 . S
C111 O100 1.253 . S
C111 O101 1.283 . S
C112 O104 1.304 . S
C112 O106 1.272 . S
C113 O105 1.311 . S
C113 O107 1.231 . S
O114 Zn96 1.953 . S
O114 C108 1.298 . S
O115 Zn116 1.953 . S
O115 C131 1.225 . S
Zn116 O115 1.953 . S
Zn116 O117 1.949 . S
Zn116 O123 1.919 . S
Zn116 O128 1.924 . S
O117 Zn116 1.949 . S
O117 Zn118 1.923 . S
O117 Zn119 1.950 . S
O117 Zn120 1.945 . S
Zn118 O117 1.923 . S
Zn118 O121 1.933 . S
Zn118 O124 1.961 . S
Zn118 O125 1.965 . S
Zn119 O117 1.950 . S
Zn119 O126 1.938 . S
Zn119 O127 1.906 . S
Zn119 O137 1.953 . S
Zn120 O117 1.945 . S
Zn120 O122 1.932 . S
Zn120 O129 1.977 . S
Zn120 O130 1.910 . S
O121 Zn118 1.933 . S
O121 C132 1.226 . S
O122 Zn120 1.932 . S
O122 C132 1.307 . S
O123 Zn116 1.919 . S
O123 C134 1.253 . S
O124 Zn118 1.961 . S
O124 C134 1.287 . S
O125 Zn118 1.965 . S
O125 C133 1.303 . S
O126 Zn119 1.938 . S
O126 C133 1.247 . S
O127 Zn119 1.906 . S
O127 C135 1.304 . S
O128 Zn116 1.924 . S
O128 C136 1.311 . S
O129 Zn120 1.977 . S
O129 C135 1.272 . S
O130 Zn120 1.910 . S
O130 C136 1.231 . S
C131 O115 1.225 . S
C131 O137 1.298 . S
C132 O121 1.226 . S
C132 O122 1.307 . S
C133 O125 1.303 . S
C133 O126 1.247 . S
C134 O123 1.253 . S
C134 O124 1.287 . S
C135 O127 1.304 . S
C135 O129 1.272 . S
C136 O128 1.311 . S
C136 O130 1.231 . S
O137 Zn119 1.953 . S
O137 C131 1.298 . S
O138 Zn139 1.953 . S
O138 C154 1.225 . S
Zn139 O138 1.953 . S
Zn139 O140 1.949 . S
Zn139 O146 1.919 . S
Zn139 O151 1.924 . S
O140 Zn139 1.949 . S
O140 Zn141 1.923 . S
O140 Zn142 1.950 . S
O140 Zn143 1.945 . S
Zn141 O140 1.923 . S
Zn141 O144 1.933 . S
Zn141 O147 1.956 . S
Zn141 O148 1.965 . S
Zn142 O140 1.950 . S
Zn142 O149 1.938 . S
Zn142 O150 1.906 . S
Zn142 O160 1.953 . S
Zn143 O140 1.945 . S
Zn143 O145 1.932 . S
Zn143 O152 1.977 . S
Zn143 O153 1.910 . S
O144 Zn141 1.933 . S
O144 C155 1.226 . S
O145 Zn143 1.932 . S
O145 C155 1.307 . S
O146 Zn139 1.919 . S
O146 C157 1.253 . S
O147 Zn141 1.956 . S
O147 C157 1.286 . S
O148 Zn141 1.965 . S
O148 C156 1.303 . S
O149 Zn142 1.938 . S
O149 C156 1.247 . S
O150 Zn142 1.906 . S
O150 C158 1.304 . S
O151 Zn139 1.924 . S
O151 C159 1.311 . S
O152 Zn143 1.977 . S
O152 C158 1.272 . S
O153 Zn143 1.910 . S
O153 C159 1.231 . S
C154 O138 1.225 . S
C154 O160 1.298 . S
C155 O144 1.226 . S
C155 O145 1.307 . S
C156 O148 1.303 . S
C156 O149 1.247 . S
C157 O146 1.253 . S
C157 O147 1.286 . S
C158 O150 1.304 . S
C158 O152 1.272 . S
C159 O151 1.311 . S
C159 O153 1.231 . S
O160 Zn142 1.953 . S
O160 C154 1.298 . S
O161 Zn162 1.953 . S
O161 C177 1.225 . S
Zn162 O161 1.953 . S
Zn162 O163 1.949 . S
Zn162 O169 1.919 . S
Zn162 O174 1.924 . S
O163 Zn162 1.949 . S
O163 Zn164 1.923 . S
O163 Zn165 1.950 . S
O163 Zn166 1.945 . S
Zn164 O163 1.923 . S
Zn164 O167 1.933 . S
Zn164 O170 1.951 . S
Zn164 O171 1.965 . S
Zn165 O163 1.950 . S
Zn165 O172 1.938 . S
Zn165 O173 1.906 . S
Zn165 O183 1.953 . S
Zn166 O163 1.945 . S
Zn166 O168 1.932 . S
Zn166 O175 1.977 . S
Zn166 O176 1.910 . S
O167 Zn164 1.933 . S
O167 C178 1.226 . S
O168 Zn166 1.932 . S
O168 C178 1.307 . S
O169 Zn162 1.919 . S
O169 C180 1.253 . S
O170 Zn164 1.951 . S
O170 C180 1.285 . S
O171 Zn164 1.965 . S
O171 C179 1.303 . S
O172 Zn165 1.938 . S
O172 C179 1.247 . S
O173 Zn165 1.906 . S
O173 C181 1.304 . S
O174 Zn162 1.924 . S
O174 C182 1.311 . S
O175 Zn166 1.977 . S
O175 C181 1.272 . S
O176 Zn166 1.910 . S
O176 C182 1.231 . S
C177 O161 1.225 . S
C177 O183 1.298 . S
C178 O167 1.226 . S
C178 O168 1.307 . S
C179 O171 1.303 . S
C179 O172 1.247 . S
C180 O169 1.253 . S
C180 O170 1.285 . S
C181 O173 1.304 . S
C181 O175 1.272 . S
C182 O174 1.311 . S
C182 O176 1.231 . S
O183 Zn165 1.953 . S
O183 C177 1.298 . S
O184 Zn185 1.953 . S
O184 C200 1.225 . S
Zn185 O184 1.953 . S
Zn185 O186 1.949 . S
Zn185 O192 1.919 . S
Zn185 O197 1.924 . S
O186 Zn185 1.949 . S
O186 Zn187 1.923 . S
O186 Zn188 1.950 . S
O186 Zn189 1.945 . S
Zn187 O186 1.923 . S
Zn187 O190 1.933 . S
Zn187 O193 1.941 . S
Zn187 O194 1.965 . S
Zn188 O186 1.950 . S
Zn188 O195 1.938 . S
Zn188 O196 1.906 . S
Zn188 O206 1.953 . S
Zn189 O186 1.945 . S
Zn189 O191 1.932 . S
Zn189 O198 1.977 . S
Zn189 O199 1.910 . S
O190 Zn187 1.933 . S
O190 C201 1.226 . S
O191 Zn189 1.932 . S
O191 C201 1.307 . S
O192 Zn185 1.919 . S
O192 C203 1.253 . S
O193 Zn187 1.941 . S
O193 C203 1.283 . S
O194 Zn187 1.965 . S
O194 C202 1.303 . S
O195 Zn188 1.938 . S
O195 C202 1.247 . S
O196 Zn188 1.906 . S
O196 C204 1.304 . S
O197 Zn185 1.924 . S
O197 C205 1.311 . S
O198 Zn189 1.977 . S
O198 C204 1.272 . S
O199 Zn189 1.910 . S
O199 C205 1.231 . S
C200 O184 1.225 . S
C200 O206 1.298 . S
C201 O190 1.226 . S
C201 O191 1.307 . S
C202 O194 1.303 . S
C202 O195 1.247 . S
C203 O192 1.253 . S
C203 O193 1.283 . S
C204 O196 1.304 . S
C204 O198 1.272 . S
C205 O197 1.311 . S
C205 O199 1.231 . S
O206 Zn188 1.953 . S
O206 C200 1.298 . S
O207 Zn208 1.953 . S
O207 C223 1.225 . S
Zn208 O207 1.953 . S
Zn208 O209 1.949 . S
Zn208 O215 1.919 . S
Zn208 O220 1.924 . S
O209 Zn208 1.949 . S
O209 Zn210 1.923 . S
O209 Zn211 1.950 . S
O209 Zn212 1.945 . S
Zn210 O209 1.923 . S
Zn210 O213 1.933 . S
Zn210 O216 1.941 . S
Zn210 O217 1.965 . S
Zn211 O209 1.950 . S
Zn211 O218 1.938 . S
Zn211 O219 1.906 . S
Zn211 O229 1.953 . S
Zn212 O209 1.945 . S
Zn212 O214 1.932 . S
Zn212 O221 1.977 . S
Zn212 O222 1.910 . S
O213 Zn210 1.933 . S
O213 C224 1.226 . S
O214 Zn212 1.932 . S
O214 C224 1.307 . S
O215 Zn208 1.919 . S
O215 C226 1.253 . S
O216 Zn210 1.941 . S
O216 C226 1.283 . S
O217 Zn210 1.965 . S
O217 C225 1.303 . S
O218 Zn211 1.938 . S
O218 C225 1.247 . S
O219 Zn211 1.906 . S
O219 C227 1.304 . S
O220 Zn208 1.924 . S
O220 C228 1.311 . S
O221 Zn212 1.977 . S
O221 C227 1.272 . S
O222 Zn212 1.910 . S
O222 C228 1.231 . S
C223 O207 1.225 . S
C223 O229 1.298 . S
C224 O213 1.226 . S
C224 O214 1.307 . S
C225 O217 1.303 . S
C225 O218 1.247 . S
C226 O215 1.253 . S
C226 O216 1.283 . S
C227 O219 1.304 . S
C227 O221 1.272 . S
C228 O220 1.311 . S
C228 O222 1.231 . S
O229 Zn211 1.953 . S
O229 C223 1.298 . S
O230 Zn231 1.953 . S
O230 C246 1.225 . S
Zn231 O230 1.953 . S
Zn231 O232 1.949 . S
Zn231 O238 1.919 . S
Zn231 O243 1.924 . S
O232 Zn231 1.949 . S
O232 Zn233 1.923 . S
O232 Zn234 1.950 . S
O232 Zn235 1.945 . S
Zn233 O232 1.923 . S
Zn233 O236 1.933 . S
Zn233 O239 1.941 . S
Zn233 O240 1.965 . S
Zn234 O232 1.950 . S
Zn234 O241 1.938 . S
Zn234 O242 1.906 . S
Zn234 O252 1.953 . S
Zn235 O232 1.945 . S
Zn235 O237 1.932 . S
Zn235 O244 1.977 . S
Zn235 O245 1.910 . S
O236 Zn233 1.933 . S
O236 C247 1.226 . S
O237 Zn235 1.932 . S
O237 C247 1.307 . S
O238 Zn231 1.919 . S
O238 C249 1.253 . S
O239 Zn233 1.941 . S
O239 C249 1.283 . S
O240 Zn233 1.965 . S
O240 C248 1.303 . S
O241 Zn234 1.938 . S
O241 C248 1.247 . S
O242 Zn234 1.906 . S
O242 C250 1.304 . S
O243 Zn231 1.924 . S
O243 C251 1.311 . S
O244 Zn235 1.977 . S
O244 C250 1.272 . S
O245 Zn235 1.910 . S
O245 C251 1.231 . S
C246 O230 1.225 . S
C246 O252 1.298 . S
C247 O236 1.226 . S
C247 O237 1.307 . S
C248 O240 1.303 . S
C248 O241 1.247 . S
C249 O238 1.253 . S
C249 O239 1.283 . S
C250 O242 1.304 . S
C250 O244 1.272 . S
C251 O243 1.311 . S
C251 O245 1.231 . S
O252 Zn234 1.953 . S
O252 C246 1.298 . S
O253 Zn254 1.953 . S
O253 C269 1.225 . S
Zn254 O253 1.953 . S
Zn254 O255 1.949 . S
Zn254 O261 1.919 . S
Zn254 O266 1.924 . S
O255 Zn254 1.949 . S
O255 Zn256 1.923 . S
O255 Zn257 1.950 . S
O255 Zn258 1.945 . S
Zn256 O255 1.923 . S
Zn256 O259 1.933 . S
Zn256 O262 1.941 . S
Zn256 O263 1.965 . S
Zn257 O255 1.950 . S
Zn257 O264 1.938 . S
Zn257 O265 1.906 . S
Zn257 O275 1.953 . S
Zn258 O255 1.945 . S
Zn258 O260 1.932 . S
Zn258 O267 1.977 . S
Zn258 O268 1.910 . S
O259 Zn256 1.933 . S
O259 C270 1.226 . S
O260 Zn258 1.932 . S
O260 C270 1.307 . S
O261 Zn254 1.919 . S
O261 C272 1.253 . S
O262 Zn256 1.941 . S
O262 C272 1.283 . S
O263 Zn256 1.965 . S
O263 C271 1.303 . S
O264 Zn257 1.938 . S
O264 C271 1.247 . S
O265 Zn257 1.906 . S
O265 C273 1.304 . S
O266 Zn254 1.924 . S
O266 C274 1.311 . S
O267 Zn258 1.977 . S
O267 C273 1.272 . S
O268 Zn258 1.910 . S
O268 C274 1.231 . S
C269 O253 1.225 . S
C269 O275 1.298 . S
C270 O259 1.226 . S
C270 O260 1.307 . S
C271 O263 1.303 . S
C271 O264 1.247 . S
C272 O261 1.253 . S
C272 O262 1.283 . S
C273 O265 1.304 . S
C273 O267 1.272 . S
C274 O266 1.311 . S
C274 O268 1.231 . S
O275 Zn257 1.953 . S
O275 C269 1.298 . S
O276 Zn277 1.953 1_556 S
O276 C292 1.225 . S
Zn277 O276 1.953 1_554 S
Zn277 O278 1.949 . S
Zn277 O284 1.919 . S
Zn277 O289 1.924 . S
O278 Zn277 1.949 . S
O278 Zn279 1.923 . S
O278 Zn280 1.950 . S
O278 Zn281 1.945 . S
Zn279 O278 1.923 . S
Zn279 O282 1.933 . S
Zn279 O285 1.941 . S
Zn279 O286 1.965 . S
Zn280 O278 1.950 . S
Zn280 O287 1.938 . S
Zn280 O288 1.906 1_554 S
Zn280 O298 1.953 1_554 S
Zn281 O278 1.945 . S
Zn281 O283 1.932 . S
Zn281 O290 1.977 . S
Zn281 O291 1.910 . S
O282 Zn279 1.933 . S
O282 C293 1.226 . S
O283 Zn281 1.932 . S
O283 C293 1.307 . S
O284 Zn277 1.919 . S
O284 C295 1.253 . S
O285 Zn279 1.941 . S
O285 C295 1.283 . S
O286 Zn279 1.965 . S
O286 C294 1.303 . S
O287 Zn280 1.938 . S
O287 C294 1.247 . S
O288 Zn280 1.906 1_556 S
O288 C296 1.295 1_556 S
O289 Zn277 1.924 . S
O289 C297 1.311 . S
O290 Zn281 1.977 . S
O290 C296 1.286 . S
O291 Zn281 1.910 . S
O291 C297 1.231 . S
C292 O276 1.225 . S
C292 O298 1.298 . S
C293 O282 1.226 . S
C293 O283 1.307 . S
C294 O286 1.303 . S
C294 O287 1.247 . S
C295 O284 1.253 . S
C295 O285 1.283 . S
C296 O288 1.295 1_554 S
C296 O290 1.286 . S
C297 O289 1.311 . S
C297 O291 1.231 . S
O298 Zn280 1.953 1_556 S
O298 C292 1.298 . S
O299 Zn300 1.953 . S
O299 C315 1.225 . S
Zn300 O299 1.953 . S
Zn300 O301 1.949 . S
Zn300 O307 1.919 . S
Zn300 O312 1.924 . S
O301 Zn300 1.949 . S
O301 Zn302 1.923 . S
O301 Zn303 1.950 . S
O301 Zn304 1.935 1_556 S
Zn302 O301 1.923 . S
Zn302 O305 1.933 1_556 S
Zn302 O308 1.941 . S
Zn302 O309 1.965 . S
Zn303 O301 1.950 . S
Zn303 O310 1.938 . S
Zn303 O311 1.906 . S
Zn303 O321 1.953 . S
Zn304 O301 1.935 1_554 S
Zn304 O306 1.939 . S
Zn304 O313 1.975 1_554 S
Zn304 O314 1.913 . S
O305 Zn302 1.933 1_554 S
O305 C316 1.226 . S
O306 Zn304 1.939 . S
O306 C316 1.307 . S
O307 Zn300 1.919 . S
O307 C318 1.253 . S
O308 Zn302 1.941 . S
O308 C318 1.283 . S
O309 Zn302 1.965 . S
O309 C317 1.303 . S
O310 Zn303 1.938 . S
O310 C317 1.247 . S
O311 Zn303 1.906 . S
O311 C319 1.304 . S
O312 Zn300 1.924 . S
O312 C320 1.326 . S
O313 Zn304 1.975 1_556 S
O313 C319 1.272 . S
O314 Zn304 1.913 . S
O314 C320 1.221 1_554 S
C315 O299 1.225 . S
C315 O321 1.298 . S
C316 O305 1.226 . S
C316 O306 1.307 . S
C317 O309 1.303 . S
C317 O310 1.247 . S
C318 O307 1.253 . S
C318 O308 1.283 . S
C319 O311 1.304 . S
C319 O313 1.272 . S
C320 O312 1.326 . S
C320 O314 1.221 1_556 S
O321 Zn303 1.953 . S
O321 C315 1.298 . S
O322 Zn323 1.953 . S
O322 C338 1.225 . S
Zn323 O322 1.953 . S
Zn323 O324 1.949 . S
Zn323 O330 1.919 . S
Zn323 O335 1.924 . S
O324 Zn323 1.949 . S
O324 Zn325 1.923 . S
O324 Zn326 1.950 . S
O324 Zn327 1.936 1_554 S
Zn325 O324 1.923 . S
Zn325 O328 1.933 1_554 S
Zn325 O331 1.941 . S
Zn325 O332 1.965 . S
Zn326 O324 1.950 . S
Zn326 O333 1.938 . S
Zn326 O334 1.906 . S
Zn326 O344 1.953 . S
Zn327 O324 1.936 1_556 S
Zn327 O329 1.939 . S
Zn327 O336 1.975 1_556 S
Zn327 O337 1.913 . S
O328 Zn325 1.933 1_556 S
O328 C339 1.226 . S
O329 Zn327 1.939 . S
O329 C339 1.307 . S
O330 Zn323 1.919 . S
O330 C341 1.253 . S
O331 Zn325 1.941 . S
O331 C341 1.283 . S
O332 Zn325 1.965 . S
O332 C340 1.303 . S
O333 Zn326 1.938 . S
O333 C340 1.247 . S
O334 Zn326 1.906 . S
O334 C342 1.304 . S
O335 Zn323 1.924 . S
O335 C343 1.326 . S
O336 Zn327 1.975 1_554 S
O336 C342 1.272 . S
O337 Zn327 1.913 . S
O337 C343 1.221 1_556 S
C338 O322 1.225 . S
C338 O344 1.298 . S
C339 O328 1.226 . S
C339 O329 1.307 . S
C340 O332 1.303 . S
C340 O333 1.247 . S
C341 O330 1.253 . S
C341 O331 1.283 . S
C342 O334 1.304 . S
C342 O336 1.272 . S
C343 O335 1.326 . S
C343 O337 1.221 1_554 S
O344 Zn326 1.953 . S
O344 C338 1.298 . S
O345 Zn346 1.953 . S
O345 C361 1.225 . S
Zn346 O345 1.953 . S
Zn346 O347 1.949 . S
Zn346 O353 1.919 . S
Zn346 O358 1.924 . S
O347 Zn346 1.949 . S
O347 Zn348 1.923 . S
O347 Zn349 1.950 . S
O347 Zn350 1.950 . S
Zn348 O347 1.923 . S
Zn348 O351 1.933 1_556 S
Zn348 O354 1.941 . S
Zn348 O355 1.965 . S
Zn349 O347 1.950 . S
Zn349 O356 1.938 . S
Zn349 O357 1.906 . S
Zn349 O367 1.953 . S
Zn350 O347 1.950 . S
Zn350 O352 1.928 1_556 S
Zn350 O359 1.977 . S
Zn350 O360 1.908 1_556 S
O351 Zn348 1.933 1_554 S
O351 C362 1.226 . S
O352 Zn350 1.928 1_554 S
O352 C362 1.307 . S
O353 Zn346 1.919 . S
O353 C364 1.253 . S
O354 Zn348 1.941 . S
O354 C364 1.283 . S
O355 Zn348 1.965 . S
O355 C363 1.303 . S
O356 Zn349 1.938 . S
O356 C363 1.247 . S
O357 Zn349 1.906 . S
O357 C365 1.304 . S
O358 Zn346 1.924 . S
O358 C366 1.311 . S
O359 Zn350 1.977 . S
O359 C365 1.272 . S
O360 Zn350 1.908 1_554 S
O360 C366 1.231 1_554 S
C361 O345 1.225 . S
C361 O367 1.298 . S
C362 O351 1.226 . S
C362 O352 1.307 . S
C363 O355 1.303 . S
C363 O356 1.247 . S
C364 O353 1.253 . S
C364 O354 1.283 . S
C365 O357 1.304 . S
C365 O359 1.272 . S
C366 O358 1.311 . S
C366 O360 1.231 1_556 S
O367 Zn349 1.953 . S
O367 C361 1.298 . S
C368 C369 1.391 . S
C368 C370 1.394 . S
C368 H384 0.931 . S
C369 C368 1.391 . S
C369 C373 1.376 . S
C370 C368 1.394 . S
C370 C371 1.369 . S
C370 C374 1.531 . S
C371 C370 1.369 . S
C371 C372 1.410 . S
C371 C379 1.503 . S
C372 C371 1.410 . S
C372 C373 1.392 . S
C372 C375 1.511 . S
C373 C369 1.376 . S
C373 C372 1.392 . S
C373 H385 0.929 . S
C374 C370 1.531 . S
C374 H386 0.960 . S
C374 H387 0.962 . S
C374 H388 0.960 . S
C375 C372 1.511 . S
C375 H389 0.961 . S
C375 H390 0.961 . S
C375 H391 0.961 . S
C376 C377 1.370 . S
C376 C378 1.363 . S
C376 H392 0.931 . S
C377 C376 1.370 . S
C377 C381 1.408 . S
C378 C376 1.363 . S
C378 C379 1.370 . S
C378 C382 1.524 . S
C379 C371 1.503 . S
C379 C378 1.370 . S
C379 C380 1.403 . S
C380 C379 1.403 . S
C380 C381 1.404 . S
C380 C383 1.539 . S
C381 C377 1.408 . S
C381 C380 1.404 . S
C381 H393 0.930 . S
C382 C378 1.524 . S
C382 H394 0.956 . S
C382 H395 0.961 . S
C382 H396 0.961 . S
C383 C380 1.539 . S
C383 H397 0.958 . S
C383 H398 0.961 . S
C383 H399 0.960 . S
H384 C368 0.931 . S
H385 C373 0.929 . S
H386 C374 0.960 . S
H387 C374 0.962 . S
H388 C374 0.960 . S
H389 C375 0.961 . S
H390 C375 0.961 . S
H391 C375 0.961 . S
H392 C376 0.931 . S
H393 C381 0.930 . S
H394 C382 0.956 . S
H395 C382 0.961 . S
H396 C382 0.961 . S
H397 C383 0.958 . S
H398 C383 0.961 . S
H399 C383 0.960 . S
C400 C401 1.391 . S
C400 C402 1.394 . S
C400 H416 0.931 . S
C401 C400 1.391 . S
C401 C405 1.376 . S
C402 C400 1.394 . S
C402 C403 1.369 . S
C402 C406 1.531 . S
C403 C402 1.369 . S
C403 C404 1.410 . S
C403 C411 1.503 . S
C404 C403 1.410 . S
C404 C405 1.392 . S
C404 C407 1.511 . S
C405 C401 1.376 . S
C405 C404 1.392 . S
C405 H417 0.929 . S
C406 C402 1.531 . S
C406 H418 0.960 . S
C406 H419 0.962 . S
C406 H420 0.960 . S
C407 C404 1.511 . S
C407 H421 0.961 . S
C407 H422 0.961 . S
C407 H423 0.961 . S
C408 C409 1.370 . S
C408 C410 1.363 . S
C408 H424 0.931 . S
C409 C408 1.370 . S
C409 C413 1.408 . S
C410 C408 1.363 . S
C410 C411 1.370 . S
C410 C414 1.524 . S
C411 C403 1.503 . S
C411 C410 1.370 . S
C411 C412 1.403 . S
C412 C411 1.403 . S
C412 C413 1.404 . S
C412 C415 1.539 . S
C413 C409 1.408 . S
C413 C412 1.404 . S
C413 H425 0.930 . S
C414 C410 1.524 . S
C414 H426 0.956 . S
C414 H427 0.961 . S
C414 H428 0.961 . S
C415 C412 1.539 . S
C415 H429 0.958 . S
C415 H430 0.961 . S
C415 H431 0.960 . S
H416 C400 0.931 . S
H417 C405 0.929 . S
H418 C406 0.960 . S
H419 C406 0.962 . S
H420 C406 0.960 . S
H421 C407 0.961 . S
H422 C407 0.961 . S
H423 C407 0.961 . S
H424 C408 0.931 . S
H425 C413 0.930 . S
H426 C414 0.956 . S
H427 C414 0.961 . S
H428 C414 0.961 . S
H429 C415 0.958 . S
H430 C415 0.961 . S
H431 C415 0.960 . S
C432 C433 1.391 . S
C432 C434 1.394 . S
C432 H448 0.931 . S
C433 C432 1.391 . S
C433 C437 1.376 . S
C434 C432 1.394 . S
C434 C435 1.369 . S
C434 C438 1.531 . S
C435 C434 1.369 . S
C435 C436 1.410 . S
C435 C443 1.503 . S
C436 C435 1.410 . S
C436 C437 1.392 . S
C436 C439 1.511 . S
C437 C433 1.376 . S
C437 C436 1.392 . S
C437 H449 0.929 . S
C438 C434 1.531 . S
C438 H450 0.960 . S
C438 H451 0.962 . S
C438 H452 0.960 . S
C439 C436 1.511 . S
C439 H453 0.961 . S
C439 H454 0.961 . S
C439 H455 0.961 . S
C440 C441 1.370 . S
C440 C442 1.363 . S
C440 H456 0.931 . S
C441 C440 1.370 . S
C441 C445 1.408 . S
C442 C440 1.363 . S
C442 C443 1.370 . S
C442 C446 1.524 . S
C443 C435 1.503 . S
C443 C442 1.370 . S
C443 C444 1.403 . S
C444 C443 1.403 . S
C444 C445 1.404 . S
C444 C447 1.539 . S
C445 C441 1.408 . S
C445 C444 1.404 . S
C445 H457 0.930 . S
C446 C442 1.524 . S
C446 H458 0.956 . S
C446 H459 0.961 . S
C446 H460 0.961 . S
C447 C444 1.539 . S
C447 H461 0.958 . S
C447 H462 0.961 . S
C447 H463 0.960 . S
H448 C432 0.931 . S
H449 C437 0.929 . S
H450 C438 0.960 . S
H451 C438 0.962 . S
H452 C438 0.960 . S
H453 C439 0.961 . S
H454 C439 0.961 . S
H455 C439 0.961 . S
H456 C440 0.931 . S
H457 C445 0.930 . S
H458 C446 0.956 . S
H459 C446 0.961 . S
H460 C446 0.961 . S
H461 C447 0.958 . S
H462 C447 0.961 . S
H463 C447 0.960 . S
C464 C465 1.391 . S
C464 C466 1.394 . S
C464 H480 0.931 . S
C465 C464 1.391 . S
C465 C469 1.376 . S
C466 C464 1.394 . S
C466 C467 1.369 . S
C466 C470 1.531 . S
C467 C466 1.369 . S
C467 C468 1.410 . S
C467 C475 1.503 . S
C468 C467 1.410 . S
C468 C469 1.392 . S
C468 C471 1.511 . S
C469 C465 1.376 . S
C469 C468 1.392 . S
C469 H481 0.929 . S
C470 C466 1.531 . S
C470 H482 0.960 . S
C470 H483 0.962 . S
C470 H484 0.960 . S
C471 C468 1.511 . S
C471 H485 0.961 . S
C471 H486 0.961 . S
C471 H487 0.961 . S
C472 C473 1.370 . S
C472 C474 1.363 . S
C472 H488 0.931 . S
C473 C472 1.370 . S
C473 C477 1.408 . S
C474 C472 1.363 . S
C474 C475 1.370 . S
C474 C478 1.524 . S
C475 C467 1.503 . S
C475 C474 1.370 . S
C475 C476 1.403 . S
C476 C475 1.403 . S
C476 C477 1.404 . S
C476 C479 1.539 . S
C477 C473 1.408 . S
C477 C476 1.404 . S
C477 H489 0.930 . S
C478 C474 1.524 . S
C478 H490 0.956 . S
C478 H491 0.961 . S
C478 H492 0.961 . S
C479 C476 1.539 . S
C479 H493 0.958 . S
C479 H494 0.961 . S
C479 H495 0.960 . S
H480 C464 0.931 . S
H481 C469 0.929 . S
H482 C470 0.960 . S
H483 C470 0.962 . S
H484 C470 0.960 . S
H485 C471 0.961 . S
H486 C471 0.961 . S
H487 C471 0.961 . S
H488 C472 0.931 . S
H489 C477 0.930 . S
H490 C478 0.956 . S
H491 C478 0.961 . S
H492 C478 0.961 . S
H493 C479 0.958 . S
H494 C479 0.961 . S
H495 C479 0.960 . S
C496 C497 1.391 . S
C496 C498 1.394 . S
C496 H512 0.931 . S
C497 C496 1.391 . S
C497 C501 1.376 . S
C498 C496 1.394 . S
C498 C499 1.369 . S
C498 C502 1.531 . S
C499 C498 1.369 . S
C499 C500 1.410 . S
C499 C507 1.503 . S
C500 C499 1.410 . S
C500 C501 1.392 . S
C500 C503 1.511 . S
C501 C497 1.376 . S
C501 C500 1.392 . S
C501 H513 0.929 . S
C502 C498 1.531 . S
C502 H514 0.960 . S
C502 H515 0.962 . S
C502 H516 0.960 . S
C503 C500 1.511 . S
C503 H517 0.961 . S
C503 H518 0.961 . S
C503 H519 0.961 . S
C504 C505 1.370 . S
C504 C506 1.363 . S
C504 H520 0.931 . S
C505 C504 1.370 . S
C505 C509 1.408 . S
C506 C504 1.363 . S
C506 C507 1.370 . S
C506 C510 1.524 . S
C507 C499 1.503 . S
C507 C506 1.370 . S
C507 C508 1.403 . S
C508 C507 1.403 . S
C508 C509 1.404 . S
C508 C511 1.539 . S
C509 C505 1.408 . S
C509 C508 1.404 . S
C509 H521 0.930 . S
C510 C506 1.524 . S
C510 H522 0.956 . S
C510 H523 0.961 . S
C510 H524 0.961 . S
C511 C508 1.539 . S
C511 H525 0.958 . S
C511 H526 0.961 . S
C511 H527 0.960 . S
H512 C496 0.931 . S
H513 C501 0.929 . S
H514 C502 0.960 . S
H515 C502 0.962 . S
H516 C502 0.960 . S
H517 C503 0.961 . S
H518 C503 0.961 . S
H519 C503 0.961 . S
H520 C504 0.931 . S
H521 C509 0.930 . S
H522 C510 0.956 . S
H523 C510 0.961 . S
H524 C510 0.961 . S
H525 C511 0.958 . S
H526 C511 0.961 . S
H527 C511 0.960 . S
C528 C529 1.391 . S
C528 C530 1.394 . S
C528 H544 0.931 . S
C529 C528 1.391 . S
C529 C533 1.376 . S
C530 C528 1.394 . S
C530 C531 1.369 . S
C530 C534 1.531 . S
C531 C530 1.369 . S
C531 C532 1.410 . S
C531 C539 1.503 . S
C532 C531 1.410 . S
C532 C533 1.392 . S
C532 C535 1.511 . S
C533 C529 1.376 . S
C533 C532 1.392 . S
C533 H545 0.929 . S
C534 C530 1.531 . S
C534 H546 0.960 . S
C534 H547 0.962 . S
C534 H548 0.960 . S
C535 C532 1.511 . S
C535 H549 0.961 . S
C535 H550 0.961 . S
C535 H551 0.961 . S
C536 C537 1.370 . S
C536 C538 1.363 . S
C536 H552 0.931 . S
C537 C536 1.370 . S
C537 C541 1.408 . S
C538 C536 1.363 . S
C538 C539 1.370 . S
C538 C542 1.524 . S
C539 C531 1.503 . S
C539 C538 1.370 . S
C539 C540 1.403 . S
C540 C539 1.403 . S
C540 C541 1.404 . S
C540 C543 1.539 . S
C541 C537 1.408 . S
C541 C540 1.404 . S
C541 H553 0.930 . S
C542 C538 1.524 . S
C542 H554 0.956 . S
C542 H555 0.961 . S
C542 H556 0.961 . S
C543 C540 1.539 . S
C543 H557 0.958 . S
C543 H558 0.961 . S
C543 H559 0.960 . S
H544 C528 0.931 . S
H545 C533 0.929 . S
H546 C534 0.960 . S
H547 C534 0.962 . S
H548 C534 0.960 . S
H549 C535 0.961 . S
H550 C535 0.961 . S
H551 C535 0.961 . S
H552 C536 0.931 . S
H553 C541 0.930 . S
H554 C542 0.956 . S
H555 C542 0.961 . S
H556 C542 0.961 . S
H557 C543 0.958 . S
H558 C543 0.961 . S
H559 C543 0.960 . S
C560 C561 1.391 . S
C560 C562 1.394 . S
C560 H576 0.931 . S
C561 C560 1.391 . S
C561 C565 1.376 . S
C562 C560 1.394 . S
C562 C563 1.369 . S
C562 C566 1.531 . S
C563 C562 1.369 . S
C563 C564 1.410 . S
C563 C571 1.503 . S
C564 C563 1.410 . S
C564 C565 1.392 . S
C564 C567 1.511 . S
C565 C561 1.376 . S
C565 C564 1.392 . S
C565 H577 0.929 . S
C566 C562 1.531 . S
C566 H578 0.960 . S
C566 H579 0.962 . S
C566 H580 0.960 . S
C567 C564 1.511 . S
C567 H581 0.961 . S
C567 H582 0.961 . S
C567 H583 0.961 . S
C568 C569 1.370 . S
C568 C570 1.363 . S
C568 H584 0.931 . S
C569 C568 1.370 . S
C569 C573 1.408 . S
C570 C568 1.363 . S
C570 C571 1.370 . S
C570 C574 1.524 . S
C571 C563 1.503 . S
C571 C570 1.370 . S
C571 C572 1.403 . S
C572 C571 1.403 . S
C572 C573 1.404 . S
C572 C575 1.539 . S
C573 C569 1.408 . S
C573 C572 1.404 . S
C573 H585 0.930 . S
C574 C570 1.524 . S
C574 H586 0.956 . S
C574 H587 0.961 . S
C574 H588 0.961 . S
C575 C572 1.539 . S
C575 H589 0.958 . S
C575 H590 0.961 . S
C575 H591 0.960 . S
H576 C560 0.931 . S
H577 C565 0.929 . S
H578 C566 0.960 . S
H579 C566 0.962 . S
H580 C566 0.960 . S
H581 C567 0.961 . S
H582 C567 0.961 . S
H583 C567 0.961 . S
H584 C568 0.931 . S
H585 C573 0.930 . S
H586 C574 0.956 . S
H587 C574 0.961 . S
H588 C574 0.961 . S
H589 C575 0.958 . S
H590 C575 0.961 . S
H591 C575 0.960 . S
C592 C593 1.391 . S
C592 C594 1.394 . S
C592 H608 0.931 . S
C593 C592 1.391 . S
C593 C597 1.376 . S
C594 C592 1.394 . S
C594 C595 1.369 . S
C594 C598 1.531 . S
C595 C594 1.369 . S
C595 C596 1.410 . S
C595 C603 1.503 . S
C596 C595 1.410 . S
C596 C597 1.392 . S
C596 C599 1.511 . S
C597 C593 1.376 . S
C597 C596 1.392 . S
C597 H609 0.929 . S
C598 C594 1.531 . S
C598 H610 0.960 . S
C598 H611 0.962 . S
C598 H612 0.960 . S
C599 C596 1.511 . S
C599 H613 0.961 . S
C599 H614 0.961 . S
C599 H615 0.961 . S
C600 C601 1.370 . S
C600 C602 1.363 . S
C600 H616 0.931 . S
C601 C600 1.370 . S
C601 C605 1.408 . S
C602 C600 1.363 . S
C602 C603 1.370 . S
C602 C606 1.524 . S
C603 C595 1.503 . S
C603 C602 1.370 . S
C603 C604 1.403 . S
C604 C603 1.403 . S
C604 C605 1.404 . S
C604 C607 1.539 . S
C605 C601 1.408 . S
C605 C604 1.404 . S
C605 H617 0.930 . S
C606 C602 1.524 . S
C606 H618 0.956 . S
C606 H619 0.961 . S
C606 H620 0.961 . S
C607 C604 1.539 . S
C607 H621 0.958 . S
C607 H622 0.961 . S
C607 H623 0.960 . S
H608 C592 0.931 . S
H609 C597 0.929 . S
H610 C598 0.960 . S
H611 C598 0.962 . S
H612 C598 0.960 . S
H613 C599 0.961 . S
H614 C599 0.961 . S
H615 C599 0.961 . S
H616 C600 0.931 . S
H617 C605 0.930 . S
H618 C606 0.956 . S
H619 C606 0.961 . S
H620 C606 0.961 . S
H621 C607 0.958 . S
H622 C607 0.961 . S
H623 C607 0.960 . S
C624 C625 1.391 . S
C624 C626 1.394 . S
C624 H640 0.931 . S
C625 C624 1.391 . S
C625 C629 1.376 . S
C626 C624 1.394 . S
C626 C627 1.369 . S
C626 C630 1.531 . S
C627 C626 1.369 . S
C627 C628 1.410 . S
C627 C635 1.503 . S
C628 C627 1.410 . S
C628 C629 1.392 . S
C628 C631 1.511 1_554 S
C629 C625 1.376 . S
C629 C628 1.392 . S
C629 H641 0.929 1_554 S
C630 C626 1.531 . S
C630 H642 0.960 . S
C630 H643 0.962 . S
C630 H644 0.960 . S
C631 C628 1.511 1_556 S
C631 H645 0.961 . S
C631 H646 0.961 . S
C631 H647 0.961 . S
C632 C633 1.370 1_556 S
C632 C634 1.363 . S
C632 H648 0.931 . S
C633 C632 1.370 1_554 S
C633 C637 1.408 . S
C634 C632 1.363 . S
C634 C635 1.370 1_556 S
C634 C638 1.524 . S
C635 C627 1.503 . S
C635 C634 1.370 1_554 S
C635 C636 1.403 . S
C636 C635 1.403 . S
C636 C637 1.404 . S
C636 C639 1.539 . S
C637 C633 1.408 . S
C637 C636 1.404 . S
C637 H649 0.930 . S
C638 C634 1.524 . S
C638 H650 0.956 . S
C638 H651 0.961 . S
C638 H652 0.961 . S
C639 C636 1.539 . S
C639 H653 0.958 . S
C639 H654 0.961 . S
C639 H655 0.960 . S
H640 C624 0.931 . S
H641 C629 0.929 1_556 S
H642 C630 0.960 . S
H643 C630 0.962 . S
H644 C630 0.960 . S
H645 C631 0.961 . S
H646 C631 0.961 . S
H647 C631 0.961 . S
H648 C632 0.931 . S
H649 C637 0.930 . S
H650 C638 0.956 . S
H651 C638 0.961 . S
H652 C638 0.961 . S
H653 C639 0.958 . S
H654 C639 0.961 . S
H655 C639 0.960 . S
C656 C657 1.391 . S
C656 C658 1.394 . S
C656 H672 0.931 . S
C657 C656 1.391 . S
C657 C661 1.376 1_556 S
C658 C656 1.394 . S
C658 C659 1.369 . S
C658 C662 1.531 . S
C659 C658 1.369 . S
C659 C660 1.410 . S
C659 C667 1.503 . S
C660 C659 1.410 . S
C660 C661 1.392 1_556 S
C660 C663 1.511 1_556 S
C661 C657 1.376 1_554 S
C661 C660 1.392 1_554 S
C661 H673 0.929 . S
C662 C658 1.531 . S
C662 H674 0.960 . S
C662 H675 0.962 . S
C662 H676 0.960 . S
C663 C660 1.511 1_554 S
C663 H677 0.961 . S
C663 H678 0.961 . S
C663 H679 0.961 1_554 S
C664 C665 1.370 . S
C664 C666 1.363 . S
C664 H680 0.931 1_556 S
C665 C664 1.370 . S
C665 C669 1.408 . S
C666 C664 1.363 . S
C666 C667 1.370 . S
C666 C670 1.524 1_556 S
C667 C659 1.503 . S
C667 C666 1.370 . S
C667 C668 1.403 . S
C668 C667 1.403 . S
C668 C669 1.404 . S
C668 C671 1.539 . S
C669 C665 1.408 . S
C669 C668 1.404 . S
C669 H681 0.930 . S
C670 C666 1.524 1_554 S
C670 H682 0.956 . S
C670 H683 0.961 . S
C670 H684 0.961 . S
C671 C668 1.539 . S
C671 H685 0.958 . S
C671 H686 0.961 . S
C671 H687 0.960 . S
H672 C656 0.931 . S
H673 C661 0.929 . S
H674 C662 0.960 . S
H675 C662 0.962 . S
H676 C662 0.960 . S
H677 C663 0.961 . S
H678 C663 0.961 . S
H679 C663 0.961 1_556 S
H680 C664 0.931 1_554 S
H681 C669 0.930 . S
H682 C670 0.956 . S
H683 C670 0.961 . S
H684 C670 0.961 . S
H685 C671 0.958 . S
H686 C671 0.961 . S
H687 C671 0.960 . S
C688 C689 1.391 1_556 S
C688 C690 1.394 . S
C688 H704 0.931 . S
C689 C688 1.391 1_554 S
C689 C693 1.376 . S
C690 C688 1.394 . S
C690 C691 1.369 1_556 S
C690 C694 1.531 . S
C691 C690 1.369 1_554 S
C691 C692 1.410 . S
C691 C699 1.503 . S
C692 C691 1.410 . S
C692 C693 1.392 . S
C692 C695 1.511 . S
C693 C689 1.376 . S
C693 C692 1.392 . S
C693 H705 0.929 . S
C694 C690 1.531 . S
C694 H706 0.960 . S
C694 H707 0.962 . S
C694 H708 0.960 . S
C695 C692 1.511 . S
C695 H709 0.961 . S
C695 H710 0.961 . S
C695 H711 0.961 . S
C696 C697 1.370 . S
C696 C698 1.363 . S
C696 H712 0.931 . S
C697 C696 1.370 . S
C697 C701 1.408 . S
C698 C696 1.363 . S
C698 C699 1.370 . S
C698 C702 1.524 . S
C699 C691 1.503 . S
C699 C698 1.370 . S
C699 C700 1.403 1_554 S
C700 C699 1.403 1_556 S
C700 C701 1.404 1_556 S
C700 C703 1.539 . S
C701 C697 1.408 . S
C701 C700 1.404 1_554 S
C701 H713 0.930 1_554 S
C702 C698 1.524 . S
C702 H714 0.956 . S
C702 H715 0.961 . S
C702 H716 0.961 . S
C703 C700 1.539 . S
C703 H717 0.958 . S
C703 H718 0.961 . S
C703 H719 0.960 . S
H704 C688 0.931 . S
H705 C693 0.929 . S
H706 C694 0.960 . S
H707 C694 0.962 . S
H708 C694 0.960 . S
H709 C695 0.961 . S
H710 C695 0.961 . S
H711 C695 0.961 . S
H712 C696 0.931 . S
H713 C701 0.930 1_556 S
H714 C702 0.956 . S
H715 C702 0.961 . S
H716 C702 0.961 . S
H717 C703 0.958 . S
H718 C703 0.961 . S
H719 C703 0.960 . S
C720 C721 1.391 . S
C720 C722 1.394 . S
C720 H736 0.931 . S
C721 C720 1.391 . S
C721 C725 1.376 . S
C722 C720 1.394 . S
C722 C723 1.369 . S
C722 C726 1.531 . S
C723 C722 1.369 . S
C723 C724 1.410 . S
C723 C731 1.503 . S
C724 C723 1.410 . S
C724 C725 1.392 . S
C724 C727 1.511 1_556 S
C725 C721 1.376 . S
C725 C724 1.392 . S
C725 H737 0.929 1_556 S
C726 C722 1.531 . S
C726 H738 0.960 . S
C726 H739 0.962 . S
C726 H740 0.960 . S
C727 C724 1.511 1_554 S
C727 H741 0.961 . S
C727 H742 0.961 . S
C727 H743 0.961 . S
C728 C729 1.370 1_554 S
C728 C730 1.363 . S
C728 H744 0.931 . S
C729 C728 1.370 1_556 S
C729 C733 1.408 . S
C730 C728 1.363 . S
C730 C731 1.370 1_554 S
C730 C734 1.524 . S
C731 C723 1.503 . S
C731 C730 1.370 1_556 S
C731 C732 1.403 . S
C732 C731 1.403 . S
C732 C733 1.404 . S
C732 C735 1.539 . S
C733 C729 1.408 . S
C733 C732 1.404 . S
C733 H745 0.930 . S
C734 C730 1.524 . S
C734 H746 0.956 . S
C734 H747 0.961 . S
C734 H748 0.961 . S
C735 C732 1.539 . S
C735 H749 0.958 . S
C735 H750 0.961 . S
C735 H751 0.960 . S
H736 C720 0.931 . S
H737 C725 0.929 1_554 S
H738 C726 0.960 . S
H739 C726 0.962 . S
H740 C726 0.960 . S
H741 C727 0.961 . S
H742 C727 0.961 . S
H743 C727 0.961 . S
H744 C728 0.931 . S
H745 C733 0.930 . S
H746 C734 0.956 . S
H747 C734 0.961 . S
H748 C734 0.961 . S
H749 C735 0.958 . S
H750 C735 0.961 . S
H751 C735 0.960 . S
C752 C753 1.391 . S
C752 C754 1.394 . S
C752 H768 0.931 . S
C753 C752 1.391 . S
C753 C757 1.376 . S
C754 C752 1.394 . S
C754 C755 1.369 . S
C754 C758 1.531 . S
C755 C754 1.369 . S
C755 C756 1.410 . S
C755 C763 1.503 . S
C756 C755 1.410 . S
C756 C757 1.392 . S
C756 C759 1.511 . S
C757 C753 1.376 . S
C757 C756 1.392 . S
C757 H769 0.929 . S
C758 C754 1.531 . S
C758 H770 0.960 . S
C758 H771 0.962 . S
C758 H772 0.960 . S
C759 C756 1.511 . S
C759 H773 0.961 . S
C759 H774 0.961 . S
C759 H775 0.961 . S
C760 C761 1.370 . S
C760 C762 1.363 . S
C760 H776 0.931 . S
C761 C760 1.370 . S
C761 C765 1.408 . S
C762 C760 1.363 . S
C762 C763 1.370 . S
C762 C766 1.524 . S
C763 C755 1.503 . S
C763 C762 1.370 . S
C763 C764 1.403 . S
C764 C763 1.403 . S
C764 C765 1.404 . S
C764 C767 1.539 . S
C765 C761 1.408 . S
C765 C764 1.404 . S
C765 H777 0.930 . S
C766 C762 1.524 . S
C766 H778 0.956 . S
C766 H779 0.961 . S
C766 H780 0.961 . S
C767 C764 1.539 . S
C767 H781 0.958 . S
C767 H782 0.961 . S
C767 H783 0.960 . S
H768 C752 0.931 . S
H769 C757 0.929 . S
H770 C758 0.960 . S
H771 C758 0.962 . S
H772 C758 0.960 . S
H773 C759 0.961 . S
H774 C759 0.961 . S
H775 C759 0.961 . S
H776 C760 0.931 . S
H777 C765 0.930 . S
H778 C766 0.956 . S
H779 C766 0.961 . S
H780 C766 0.961 . S
H781 C767 0.958 . S
H782 C767 0.961 . S
H783 C767 0.960 . S
C784 C785 1.391 . S
C784 C786 1.394 . S
C784 H800 0.931 . S
C785 C784 1.391 . S
C785 C789 1.376 . S
C786 C784 1.394 . S
C786 C787 1.369 . S
C786 C790 1.531 . S
C787 C786 1.369 . S
C787 C788 1.410 . S
C787 C795 1.503 . S
C788 C787 1.410 . S
C788 C789 1.392 . S
C788 C791 1.511 . S
C789 C785 1.376 . S
C789 C788 1.392 . S
C789 H801 0.929 . S
C790 C786 1.531 . S
C790 H802 0.960 . S
C790 H803 0.962 . S
C790 H804 0.960 . S
C791 C788 1.511 . S
C791 H805 0.961 . S
C791 H806 0.961 . S
C791 H807 0.961 . S
C792 C793 1.370 . S
C792 C794 1.363 . S
C792 H808 0.931 . S
C793 C792 1.370 . S
C793 C797 1.408 . S
C794 C792 1.363 . S
C794 C795 1.370 . S
C794 C798 1.524 . S
C795 C787 1.503 . S
C795 C794 1.370 . S
C795 C796 1.403 . S
C796 C795 1.403 . S
C796 C797 1.404 . S
C796 C799 1.539 . S
C797 C793 1.408 . S
C797 C796 1.404 . S
C797 H809 0.930 . S
C798 C794 1.524 . S
C798 H810 0.956 . S
C798 H811 0.961 . S
C798 H812 0.961 . S
C799 C796 1.539 . S
C799 H813 0.958 . S
C799 H814 0.961 . S
C799 H815 0.960 . S
H800 C784 0.931 . S
H801 C789 0.929 . S
H802 C790 0.960 . S
H803 C790 0.962 . S
H804 C790 0.960 . S
H805 C791 0.961 . S
H806 C791 0.961 . S
H807 C791 0.961 . S
H808 C792 0.931 . S
H809 C797 0.930 . S
H810 C798 0.956 . S
H811 C798 0.961 . S
H812 C798 0.961 . S
H813 C799 0.958 . S
H814 C799 0.961 . S
H815 C799 0.960 . S
C816 C817 1.391 . S
C816 C818 1.394 . S
C816 H832 0.931 . S
C817 C816 1.391 . S
C817 C821 1.376 . S
C818 C816 1.394 . S
C818 C819 1.369 . S
C818 C822 1.531 . S
C819 C818 1.369 . S
C819 C820 1.410 . S
C819 C827 1.503 . S
C820 C819 1.410 . S
C820 C821 1.392 . S
C820 C823 1.511 . S
C821 C817 1.376 . S
C821 C820 1.392 . S
C821 H833 0.929 . S
C822 C818 1.531 . S
C822 H834 0.960 . S
C822 H835 0.962 . S
C822 H836 0.960 . S
C823 C820 1.511 . S
C823 H837 0.961 . S
C823 H838 0.961 . S
C823 H839 0.961 . S
C824 C825 1.370 . S
C824 C826 1.363 . S
C824 H840 0.931 . S
C825 C824 1.370 . S
C825 C829 1.408 . S
C826 C824 1.363 . S
C826 C827 1.370 . S
C826 C830 1.524 . S
C827 C819 1.503 . S
C827 C826 1.370 . S
C827 C828 1.403 . S
C828 C827 1.403 . S
C828 C829 1.404 . S
C828 C831 1.539 . S
C829 C825 1.408 . S
C829 C828 1.404 . S
C829 H841 0.930 . S
C830 C826 1.524 . S
C830 H842 0.956 . S
C830 H843 0.961 . S
C830 H844 0.961 . S
C831 C828 1.539 . S
C831 H845 0.958 . S
C831 H846 0.961 . S
C831 H847 0.960 . S
H832 C816 0.931 . S
H833 C821 0.929 . S
H834 C822 0.960 . S
H835 C822 0.962 . S
H836 C822 0.960 . S
H837 C823 0.961 . S
H838 C823 0.961 . S
H839 C823 0.961 . S
H840 C824 0.931 . S
H841 C829 0.930 . S
H842 C830 0.956 . S
H843 C830 0.961 . S
H844 C830 0.961 . S
H845 C831 0.958 . S
H846 C831 0.961 . S
H847 C831 0.960 . S
C848 C849 1.391 . S
C848 C850 1.394 . S
C848 H864 0.931 . S
C849 C848 1.391 . S
C849 C853 1.376 . S
C850 C848 1.394 . S
C850 C851 1.369 . S
C850 C854 1.531 . S
C851 C850 1.369 . S
C851 C852 1.410 . S
C851 C859 1.503 . S
C852 C851 1.410 . S
C852 C853 1.392 . S
C852 C855 1.511 . S
C853 C849 1.376 . S
C853 C852 1.392 . S
C853 H865 0.929 . S
C854 C850 1.531 . S
C854 H866 0.960 . S
C854 H867 0.962 . S
C854 H868 0.960 . S
C855 C852 1.511 . S
C855 H869 0.961 . S
C855 H870 0.961 . S
C855 H871 0.961 . S
C856 C857 1.370 . S
C856 C858 1.363 . S
C856 H872 0.931 . S
C857 C856 1.370 . S
C857 C861 1.408 . S
C858 C856 1.363 . S
C858 C859 1.370 . S
C858 C862 1.524 . S
C859 C851 1.503 . S
C859 C858 1.370 . S
C859 C860 1.403 . S
C860 C859 1.403 . S
C860 C861 1.404 . S
C860 C863 1.539 . S
C861 C857 1.408 . S
C861 C860 1.404 . S
C861 H873 0.930 . S
C862 C858 1.524 . S
C862 H874 0.956 . S
C862 H875 0.961 . S
C862 H876 0.961 . S
C863 C860 1.539 . S
C863 H877 0.958 . S
C863 H878 0.961 . S
C863 H879 0.960 . S
H864 C848 0.931 . S
H865 C853 0.929 . S
H866 C854 0.960 . S
H867 C854 0.962 . S
H868 C854 0.960 . S
H869 C855 0.961 . S
H870 C855 0.961 . S
H871 C855 0.961 . S
H872 C856 0.931 . S
H873 C861 0.930 . S
H874 C862 0.956 . S
H875 C862 0.961 . S
H876 C862 0.961 . S
H877 C863 0.958 . S
H878 C863 0.961 . S
H879 C863 0.960 . S
C880 C881 1.391 . S
C880 C882 1.394 . S
C880 H896 0.931 . S
C881 C880 1.391 . S
C881 C885 1.376 . S
C882 C880 1.394 . S
C882 C883 1.369 . S
C882 C886 1.531 . S
C883 C882 1.369 . S
C883 C884 1.410 . S
C883 C891 1.503 . S
C884 C883 1.410 . S
C884 C885 1.392 . S
C884 C887 1.511 . S
C885 C881 1.376 . S
C885 C884 1.392 . S
C885 H897 0.929 . S
C886 C882 1.531 . S
C886 H898 0.960 . S
C886 H899 0.962 . S
C886 H900 0.960 . S
C887 C884 1.511 . S
C887 H901 0.961 . S
C887 H902 0.961 . S
C887 H903 0.961 . S
C888 C889 1.370 . S
C888 C890 1.363 . S
C888 H904 0.931 . S
C889 C888 1.370 . S
C889 C893 1.408 . S
C890 C888 1.363 . S
C890 C891 1.370 . S
C890 C894 1.524 . S
C891 C883 1.503 . S
C891 C890 1.370 . S
C891 C892 1.403 . S
C892 C891 1.403 . S
C892 C893 1.404 . S
C892 C895 1.539 . S
C893 C889 1.408 . S
C893 C892 1.404 . S
C893 H905 0.930 . S
C894 C890 1.524 . S
C894 H906 0.956 . S
C894 H907 0.961 . S
C894 H908 0.961 . S
C895 C892 1.539 . S
C895 H909 0.958 . S
C895 H910 0.961 . S
C895 H911 0.960 . S
H896 C880 0.931 . S
H897 C885 0.929 . S
H898 C886 0.960 . S
H899 C886 0.962 . S
H900 C886 0.960 . S
H901 C887 0.961 . S
H902 C887 0.961 . S
H903 C887 0.961 . S
H904 C888 0.931 . S
H905 C893 0.930 . S
H906 C894 0.956 . S
H907 C894 0.961 . S
H908 C894 0.961 . S
H909 C895 0.958 . S
H910 C895 0.961 . S
H911 C895 0.960 . S
C912 C913 1.391 . S
C912 C914 1.394 . S
C912 H928 0.931 . S
C913 C912 1.391 . S
C913 C917 1.376 . S
C914 C912 1.394 . S
C914 C915 1.369 . S
C914 C918 1.531 . S
C915 C914 1.369 . S
C915 C916 1.410 . S
C915 C923 1.503 . S
C916 C915 1.410 . S
C916 C917 1.392 . S
C916 C919 1.511 . S
C917 C913 1.376 . S
C917 C916 1.392 . S
C917 H929 0.929 . S
C918 C914 1.531 . S
C918 H930 0.960 . S
C918 H931 0.962 . S
C918 H932 0.960 . S
C919 C916 1.511 . S
C919 H933 0.961 . S
C919 H934 0.961 . S
C919 H935 0.961 . S
C920 C921 1.370 . S
C920 C922 1.363 . S
C920 H936 0.931 . S
C921 C920 1.370 . S
C921 C925 1.408 . S
C922 C920 1.363 . S
C922 C923 1.370 . S
C922 C926 1.524 . S
C923 C915 1.503 . S
C923 C922 1.370 . S
C923 C924 1.403 . S
C924 C923 1.403 . S
C924 C925 1.404 . S
C924 C927 1.539 . S
C925 C921 1.408 . S
C925 C924 1.404 . S
C925 H937 0.930 . S
C926 C922 1.524 . S
C926 H938 0.956 . S
C926 H939 0.961 . S
C926 H940 0.961 . S
C927 C924 1.539 . S
C927 H941 0.958 . S
C927 H942 0.961 . S
C927 H943 0.960 . S
H928 C912 0.931 . S
H929 C917 0.929 . S
H930 C918 0.960 . S
H931 C918 0.962 . S
H932 C918 0.960 . S
H933 C919 0.961 . S
H934 C919 0.961 . S
H935 C919 0.961 . S
H936 C920 0.931 . S
H937 C925 0.930 . S
H938 C926 0.956 . S
H939 C926 0.961 . S
H940 C926 0.961 . S
H941 C927 0.958 . S
H942 C927 0.961 . S
H943 C927 0.960 . S
C944 C945 1.391 . S
C944 C946 1.394 . S
C944 H960 0.931 . S
C945 C944 1.391 . S
C945 C949 1.376 . S
C946 C944 1.394 . S
C946 C947 1.369 . S
C946 C950 1.531 . S
C947 C946 1.369 . S
C947 C948 1.410 . S
C947 C955 1.503 . S
C948 C947 1.410 . S
C948 C949 1.392 . S
C948 C951 1.511 . S
C949 C945 1.376 . S
C949 C948 1.392 . S
C949 H961 0.929 . S
C950 C946 1.531 . S
C950 H962 0.960 . S
C950 H963 0.962 . S
C950 H964 0.960 . S
C951 C948 1.511 . S
C951 H965 0.961 . S
C951 H966 0.961 . S
C951 H967 0.961 . S
C952 C953 1.370 . S
C952 C954 1.363 . S
C952 H968 0.931 . S
C953 C952 1.370 . S
C953 C957 1.408 . S
C954 C952 1.363 . S
C954 C955 1.370 . S
C954 C958 1.524 . S
C955 C947 1.503 . S
C955 C954 1.370 . S
C955 C956 1.403 . S
C956 C955 1.403 . S
C956 C957 1.404 . S
C956 C959 1.539 . S
C957 C953 1.408 . S
C957 C956 1.404 . S
C957 H969 0.930 . S
C958 C954 1.524 . S
C958 H970 0.956 . S
C958 H971 0.961 . S
C958 H972 0.961 . S
C959 C956 1.539 . S
C959 H973 0.958 . S
C959 H974 0.961 . S
C959 H975 0.960 . S
H960 C944 0.931 . S
H961 C949 0.929 . S
H962 C950 0.960 . S
H963 C950 0.962 . S
H964 C950 0.960 . S
H965 C951 0.961 . S
H966 C951 0.961 . S
H967 C951 0.961 . S
H968 C952 0.931 . S
H969 C957 0.930 . S
H970 C958 0.956 . S
H971 C958 0.961 . S
H972 C958 0.961 . S
H973 C959 0.958 . S
H974 C959 0.961 . S
H975 C959 0.960 . S
C976 C977 1.391 . S
C976 C978 1.394 . S
C976 H992 0.931 . S
C977 C976 1.391 . S
C977 C981 1.376 . S
C978 C976 1.394 . S
C978 C979 1.369 . S
C978 C982 1.531 . S
C979 C978 1.369 . S
C979 C980 1.410 . S
C979 C987 1.503 . S
C980 C979 1.410 . S
C980 C981 1.392 . S
C980 C983 1.511 . S
C981 C977 1.376 . S
C981 C980 1.392 . S
C981 H993 0.929 . S
C982 C978 1.531 . S
C982 H994 0.960 . S
C982 H995 0.962 . S
C982 H996 0.960 . S
C983 C980 1.511 . S
C983 H997 0.961 . S
C983 H998 0.961 . S
C983 H999 0.961 . S
C984 C985 1.370 . S
C984 C986 1.363 . S
C984 H1000 0.931 . S
C985 C984 1.370 . S
C985 C989 1.408 . S
C986 C984 1.363 . S
C986 C987 1.370 . S
C986 C990 1.524 . S
C987 C979 1.503 . S
C987 C986 1.370 . S
C987 C988 1.403 . S
C988 C987 1.403 . S
C988 C989 1.404 . S
C988 C991 1.539 . S
C989 C985 1.408 . S
C989 C988 1.404 . S
C989 H1001 0.930 . S
C990 C986 1.524 . S
C990 H1002 0.956 . S
C990 H1003 0.961 . S
C990 H1004 0.961 . S
C991 C988 1.539 . S
C991 H1005 0.958 . S
C991 H1006 0.961 . S
C991 H1007 0.960 . S
H992 C976 0.931 . S
H993 C981 0.929 . S
H994 C982 0.960 . S
H995 C982 0.962 . S
H996 C982 0.960 . S
H997 C983 0.961 . S
H998 C983 0.961 . S
H999 C983 0.961 . S
H1000 C984 0.931 . S
H1001 C989 0.930 . S
H1002 C990 0.956 . S
H1003 C990 0.961 . S
H1004 C990 0.961 . S
H1005 C991 0.958 . S
H1006 C991 0.961 . S
H1007 C991 0.960 . S
C1008 C1009 1.391 . S
C1008 C1010 1.394 . S
C1008 H1024 0.931 . S
C1009 C1008 1.391 . S
C1009 C1013 1.376 1_554 S
C1010 C1008 1.394 . S
C1010 C1011 1.369 . S
C1010 C1014 1.531 . S
C1011 C1010 1.369 . S
C1011 C1012 1.410 . S
C1011 C1019 1.503 . S
C1012 C1011 1.410 . S
C1012 C1013 1.392 1_554 S
C1012 C1015 1.511 1_554 S
C1013 C1009 1.376 1_556 S
C1013 C1012 1.392 1_556 S
C1013 H1025 0.929 . S
C1014 C1010 1.531 . S
C1014 H1026 0.960 . S
C1014 H1027 0.962 . S
C1014 H1028 0.960 . S
C1015 C1012 1.511 1_556 S
C1015 H1029 0.961 . S
C1015 H1030 0.961 . S
C1015 H1031 0.961 1_556 S
C1016 C1017 1.370 . S
C1016 C1018 1.363 . S
C1016 H1032 0.931 1_554 S
C1017 C1016 1.370 . S
C1017 C1021 1.408 . S
C1018 C1016 1.363 . S
C1018 C1019 1.370 . S
C1018 C1022 1.524 1_554 S
C1019 C1011 1.503 . S
C1019 C1018 1.370 . S
C1019 C1020 1.403 . S
C1020 C1019 1.403 . S
C1020 C1021 1.404 . S
C1020 C1023 1.539 . S
C1021 C1017 1.408 . S
C1021 C1020 1.404 . S
C1021 H1033 0.930 . S
C1022 C1018 1.524 1_556 S
C1022 H1034 0.956 . S
C1022 H1035 0.961 . S
C1022 H1036 0.961 . S
C1023 C1020 1.539 . S
C1023 H1037 0.958 . S
C1023 H1038 0.961 . S
C1023 H1039 0.960 . S
H1024 C1008 0.931 . S
H1025 C1013 0.929 . S
H1026 C1014 0.960 . S
H1027 C1014 0.962 . S
H1028 C1014 0.960 . S
H1029 C1015 0.961 . S
H1030 C1015 0.961 . S
H1031 C1015 0.961 1_554 S
H1032 C1016 0.931 1_556 S
H1033 C1021 0.930 . S
H1034 C1022 0.956 . S
H1035 C1022 0.961 . S
H1036 C1022 0.961 . S
H1037 C1023 0.958 . S
H1038 C1023 0.961 . S
H1039 C1023 0.960 . S
C1040 C1041 1.391 . S
C1040 C1042 1.394 . S
C1040 H1056 0.931 . S
C1041 C1040 1.391 . S
C1041 C1045 1.376 . S
C1042 C1040 1.394 . S
C1042 C1043 1.369 . S
C1042 C1046 1.531 . S
C1043 C1042 1.369 . S
C1043 C1044 1.410 . S
C1043 C1051 1.503 . S
C1044 C1043 1.410 . S
C1044 C1045 1.392 . S
C1044 C1047 1.511 . S
C1045 C1041 1.376 . S
C1045 C1044 1.392 . S
C1045 H1057 0.929 1_556 S
C1046 C1042 1.531 . S
C1046 H1058 0.960 . S
C1046 H1059 0.962 . S
C1046 H1060 0.960 . S
C1047 C1044 1.511 . S
C1047 H1061 0.961 1_556 S
C1047 H1062 0.968 . S
C1047 H1063 0.961 . S
C1048 C1049 1.370 . S
C1048 C1050 1.363 . S
C1048 H1064 0.931 1_556 S
C1049 C1048 1.370 . S
C1049 C1053 1.408 . S
C1050 C1048 1.363 . S
C1050 C1051 1.370 . S
C1050 C1054 1.524 1_556 S
C1051 C1043 1.503 . S
C1051 C1050 1.370 . S
C1051 C1052 1.403 . S
C1052 C1051 1.403 . S
C1052 C1053 1.404 . S
C1052 C1055 1.539 . S
C1053 C1049 1.408 . S
C1053 C1052 1.404 . S
C1053 H1065 0.930 . S
C1054 C1050 1.524 1_554 S
C1054 H1066 0.956 . S
C1054 H1067 0.961 . S
C1054 H1068 0.961 . S
C1055 C1052 1.539 . S
C1055 H1069 0.958 . S
C1055 H1070 0.961 . S
C1055 H1071 0.960 . S
H1056 C1040 0.931 . S
H1057 C1045 0.929 1_554 S
H1058 C1046 0.960 . S
H1059 C1046 0.962 . S
H1060 C1046 0.960 . S
H1061 C1047 0.961 1_554 S
H1062 C1047 0.968 . S
H1063 C1047 0.961 . S
H1064 C1048 0.931 1_554 S
H1065 C1053 0.930 . S
H1066 C1054 0.956 . S
H1067 C1054 0.961 . S
H1068 C1054 0.961 . S
H1069 C1055 0.958 . S
H1070 C1055 0.961 . S
H1071 C1055 0.960 . S
C1072 C1073 1.391 . S
C1072 C1074 1.394 . S
C1072 H1088 0.931 . S
C1073 C1072 1.391 . S
C1073 C1077 1.376 1_554 S
C1074 C1072 1.394 . S
C1074 C1075 1.369 . S
C1074 C1078 1.531 . S
C1075 C1074 1.369 . S
C1075 C1076 1.410 1_554 S
C1075 C1083 1.503 . S
C1076 C1075 1.410 1_556 S
C1076 C1077 1.392 . S
C1076 C1079 1.511 . S
C1077 C1073 1.376 1_556 S
C1077 C1076 1.392 . S
C1077 H1089 0.929 . S
C1078 C1074 1.531 . S
C1078 H1090 0.960 . S
C1078 H1091 0.962 . S
C1078 H1092 0.960 . S
C1079 C1076 1.511 . S
C1079 H1093 0.961 . S
C1079 H1094 0.976 . S
C1079 H1095 0.961 . S
C1080 C1081 1.370 . S
C1080 C1082 1.363 . S
C1080 H1096 0.931 . S
C1081 C1080 1.370 . S
C1081 C1085 1.391 1_554 S
C1082 C1080 1.363 . S
C1082 C1083 1.370 . S
C1082 C1086 1.524 . S
C1083 C1075 1.503 . S
C1083 C1082 1.370 . S
C1083 C1084 1.403 1_554 S
C1084 C1083 1.403 1_556 S
C1084 C1085 1.408 . S
C1084 C1087 1.539 . S
C1085 C1081 1.391 1_556 S
C1085 C1084 1.408 . S
C1085 H1097 0.943 . S
C1086 C1082 1.524 . S
C1086 H1098 0.956 . S
C1086 H1099 0.961 . S
C1086 H1100 0.961 . S
C1087 C1084 1.539 . S
C1087 H1101 0.958 . S
C1087 H1102 0.961 . S
C1087 H1103 0.960 . S
H1088 C1072 0.931 . S
H1089 C1077 0.929 . S
H1090 C1078 0.960 . S
H1091 C1078 0.962 . S
H1092 C1078 0.960 . S
H1093 C1079 0.961 . S
H1094 C1079 0.976 . S
H1095 C1079 0.961 . S
H1096 C1080 0.931 . S
H1097 C1085 0.943 . S
H1098 C1086 0.956 . S
H1099 C1086 0.961 . S
H1100 C1086 0.961 . S
H1101 C1087 0.958 . S
H1102 C1087 0.961 . S
H1103 C1087 0.960 . S
C1104 C1105 1.391 . S
C1104 C1106 1.394 . S
C1104 H1120 0.931 1_556 S
C1105 C1104 1.391 . S
C1105 C1109 1.376 . S
C1106 C1104 1.394 . S
C1106 C1107 1.369 . S
C1106 C1110 1.531 1_556 S
C1107 C1106 1.369 . S
C1107 C1108 1.410 . S
C1107 C1115 1.503 . S
C1108 C1107 1.410 . S
C1108 C1109 1.392 . S
C1108 C1111 1.511 . S
C1109 C1105 1.376 . S
C1109 C1108 1.392 . S
C1109 H1121 0.929 . S
C1110 C1106 1.531 1_554 S
C1110 H1122 0.960 . S
C1110 H1123 0.962 . S
C1110 H1124 0.960 . S
C1111 C1108 1.511 . S
C1111 H1125 0.961 . S
C1111 H1126 0.961 . S
C1111 H1127 0.961 . S
C1112 C1113 1.370 1_554 S
C1112 C1114 1.363 . S
C1112 H1128 0.931 . S
C1113 C1112 1.370 1_556 S
C1113 C1117 1.408 . S
C1114 C1112 1.363 . S
C1114 C1115 1.370 1_554 S
C1114 C1118 1.524 . S
C1115 C1107 1.503 . S
C1115 C1114 1.370 1_556 S
C1115 C1116 1.403 . S
C1116 C1115 1.403 . S
C1116 C1117 1.404 . S
C1116 C1119 1.539 . S
C1117 C1113 1.408 . S
C1117 C1116 1.404 . S
C1117 H1129 0.930 . S
C1118 C1114 1.524 . S
C1118 H1130 0.956 . S
C1118 H1131 0.961 . S
C1118 H1132 0.961 . S
C1119 C1116 1.539 . S
C1119 H1133 0.958 . S
C1119 H1134 0.961 . S
C1119 H1135 0.960 . S
H1120 C1104 0.931 1_554 S
H1121 C1109 0.929 . S
H1122 C1110 0.960 . S
H1123 C1110 0.962 . S
H1124 C1110 0.960 . S
H1125 C1111 0.961 . S
H1126 C1111 0.961 . S
H1127 C1111 0.961 . S
H1128 C1112 0.931 . S
H1129 C1117 0.930 . S
H1130 C1118 0.956 . S
H1131 C1118 0.961 . S
H1132 C1118 0.961 . S
H1133 C1119 0.958 . S
H1134 C1119 0.961 . S
H1135 C1119 0.960 . S
C1136 C1137 1.391 . S
C1136 C1138 1.394 . S
C1136 H1152 0.931 . S
C1137 C1136 1.391 . S
C1137 C1141 1.376 . S
C1138 C1136 1.394 . S
C1138 C1139 1.369 . S
C1138 C1142 1.531 . S
C1139 C1138 1.369 . S
C1139 C1140 1.410 . S
C1139 C1147 1.503 1_565 S
C1140 C1139 1.410 . S
C1140 C1141 1.392 . S
C1140 C1143 1.511 1_565 S
C1141 C1137 1.376 . S
C1141 C1140 1.392 . S
C1141 H1153 0.929 . S
C1142 C1138 1.531 . S
C1142 H1154 0.960 . S
C1142 H1155 0.962 . S
C1142 H1156 0.960 . S
C1143 C1140 1.511 1_545 S
C1143 H1157 0.961 . S
C1143 H1158 0.961 . S
C1143 H1159 0.990 . S
C1144 C1145 1.370 . S
C1144 C1146 1.363 . S
C1144 H1160 0.931 . S
C1145 C1144 1.370 . S
C1145 C1149 1.408 1_545 S
C1146 C1144 1.363 . S
C1146 C1147 1.370 . S
C1146 C1150 1.524 . S
C1147 C1139 1.503 1_545 S
C1147 C1146 1.370 . S
C1147 C1148 1.403 1_545 S
C1148 C1147 1.403 1_565 S
C1148 C1149 1.404 . S
C1148 C1151 1.539 . S
C1149 C1145 1.408 1_565 S
C1149 C1148 1.404 . S
C1149 H1161 0.930 . S
C1150 C1146 1.524 . S
C1150 H1162 0.956 . S
C1150 H1163 0.961 . S
C1150 H1164 0.961 . S
C1151 C1148 1.539 . S
C1151 H1165 0.958 . S
C1151 H1166 0.961 . S
C1151 H1167 0.960 . S
H1152 C1136 0.931 . S
H1153 C1141 0.929 . S
H1154 C1142 0.960 . S
H1155 C1142 0.962 . S
H1156 C1142 0.960 . S
H1157 C1143 0.961 . S
H1158 C1143 0.961 . S
H1159 C1143 0.990 . S
H1160 C1144 0.931 . S
H1161 C1149 0.930 . S
H1162 C1150 0.956 . S
H1163 C1150 0.961 . S
H1164 C1150 0.961 . S
H1165 C1151 0.958 . S
H1166 C1151 0.961 . S
H1167 C1151 0.960 . S
C1168 C1169 1.391 . S
C1168 C1170 1.394 . S
C1168 H1184 0.931 . S
C1169 C1168 1.391 . S
C1169 C1173 1.376 1_655 S
C1170 C1168 1.394 . S
C1170 C1171 1.373 . S
C1170 C1174 1.531 . S
C1171 C1170 1.373 . S
C1171 C1172 1.407 1_655 S
C1171 C1179 1.502 1_655 S
C1172 C1171 1.407 1_455 S
C1172 C1173 1.392 . S
C1172 C1175 1.511 . S
C1173 C1169 1.376 1_455 S
C1173 C1172 1.392 . S
C1173 H1185 0.929 . S
C1174 C1170 1.531 . S
C1174 H1186 0.960 . S
C1174 H1187 0.962 . S
C1174 H1188 0.960 . S
C1175 C1172 1.511 . S
C1175 H1189 0.961 . S
C1175 H1190 0.961 . S
C1175 H1191 0.961 . S
C1176 C1177 1.370 . S
C1176 C1178 1.363 1_455 S
C1176 H1192 0.931 1_455 S
C1177 C1176 1.370 . S
C1177 C1181 1.408 . S
C1178 C1176 1.363 1_655 S
C1178 C1179 1.370 1_655 S
C1178 C1182 1.524 . S
C1179 C1171 1.502 1_455 S
C1179 C1178 1.370 1_455 S
C1179 C1180 1.403 . S
C1180 C1179 1.403 . S
C1180 C1181 1.404 . S
C1180 C1183 1.539 . S
C1181 C1177 1.408 . S
C1181 C1180 1.404 . S
C1181 H1193 0.930 . S
C1182 C1178 1.524 . S
C1182 H1194 0.956 . S
C1182 H1195 0.961 . S
C1182 H1196 0.961 . S
C1183 C1180 1.539 . S
C1183 H1197 0.958 . S
C1183 H1198 0.961 . S
C1183 H1199 0.960 . S
H1184 C1168 0.931 . S
H1185 C1173 0.929 . S
H1186 C1174 0.960 . S
H1187 C1174 0.962 . S
H1188 C1174 0.960 . S
H1189 C1175 0.961 . S
H1190 C1175 0.961 . S
H1191 C1175 0.961 . S
H1192 C1176 0.931 1_655 S
H1193 C1181 0.930 . S
H1194 C1182 0.956 . S
H1195 C1182 0.961 . S
H1196 C1182 0.961 . S
H1197 C1183 0.958 . S
H1198 C1183 0.961 . S
H1199 C1183 0.960 . S
C1200 C1201 1.391 1_545 S
C1200 C1202 1.394 . S
C1200 H1216 0.931 . S
C1201 C1200 1.391 1_565 S
C1201 C1205 1.376 . S
C1202 C1200 1.394 . S
C1202 C1203 1.351 1_545 S
C1202 C1206 1.531 . S
C1203 C1202 1.351 1_565 S
C1203 C1204 1.443 . S
C1203 C1211 1.494 1_565 S
C1204 C1203 1.443 . S
C1204 C1205 1.392 . S
C1204 C1207 1.511 . S
C1205 C1201 1.376 . S
C1205 C1204 1.392 . S
C1205 H1217 0.929 . S
C1206 C1202 1.531 . S
C1206 H1218 0.960 . S
C1206 H1219 0.962 . S
C1206 H1220 0.960 . S
C1207 C1204 1.511 . S
C1207 H1221 0.961 . S
C1207 H1222 0.961 . S
C1207 H1223 0.961 . S
C1208 C1209 1.370 1_565 S
C1208 C1210 1.363 . S
C1208 H1224 0.931 . S
C1209 C1208 1.370 1_545 S
C1209 C1213 1.408 . S
C1210 C1208 1.363 . S
C1210 C1211 1.370 1_565 S
C1210 C1214 1.524 . S
C1211 C1203 1.494 1_545 S
C1211 C1210 1.370 1_545 S
C1211 C1212 1.403 . S
C1212 C1211 1.403 . S
C1212 C1213 1.404 . S
C1212 C1215 1.539 . S
C1213 C1209 1.408 . S
C1213 C1212 1.404 . S
C1213 H1225 0.930 . S
C1214 C1210 1.524 . S
C1214 H1226 0.956 . S
C1214 H1227 0.961 . S
C1214 H1228 0.961 . S
C1215 C1212 1.539 . S
C1215 H1229 0.958 . S
C1215 H1230 0.961 . S
C1215 H1231 0.960 . S
H1216 C1200 0.931 . S
H1217 C1205 0.929 . S
H1218 C1206 0.960 . S
H1219 C1206 0.962 . S
H1220 C1206 0.960 . S
H1221 C1207 0.961 . S
H1222 C1207 0.961 . S
H1223 C1207 0.961 . S
H1224 C1208 0.931 . S
H1225 C1213 0.930 . S
H1226 C1214 0.956 . S
H1227 C1214 0.961 . S
H1228 C1214 0.961 . S
H1229 C1215 0.958 . S
H1230 C1215 0.961 . S
H1231 C1215 0.960 . S
C1232 C1233 1.391 . S
C1232 C1234 1.394 . S
C1232 H1248 0.931 . S
C1233 C1232 1.391 . S
C1233 C1237 1.376 1_655 S
C1234 C1232 1.394 . S
C1234 C1235 1.369 . S
C1234 C1238 1.531 . S
C1235 C1234 1.369 . S
C1235 C1236 1.410 1_655 S
C1235 C1243 1.503 1_655 S
C1236 C1235 1.410 1_455 S
C1236 C1237 1.392 . S
C1236 C1239 1.511 . S
C1237 C1233 1.376 1_455 S
C1237 C1236 1.392 . S
C1237 H1249 0.929 . S
C1238 C1234 1.531 . S
C1238 H1250 0.960 . S
C1238 H1251 0.962 . S
C1238 H1252 0.960 . S
C1239 C1236 1.511 . S
C1239 H1253 0.961 . S
C1239 H1254 0.961 . S
C1239 H1255 0.961 . S
C1240 C1241 1.370 . S
C1240 C1242 1.356 1_455 S
C1240 H1256 0.931 . S
C1241 C1240 1.370 . S
C1241 C1245 1.408 . S
C1242 C1240 1.356 1_655 S
C1242 C1243 1.365 1_655 S
C1242 C1246 1.537 . S
C1243 C1235 1.503 1_455 S
C1243 C1242 1.365 1_455 S
C1243 C1244 1.403 . S
C1244 C1243 1.403 . S
C1244 C1245 1.404 . S
C1244 C1247 1.539 . S
C1245 C1241 1.408 . S
C1245 C1244 1.404 . S
C1245 H1257 0.930 . S
C1246 C1242 1.537 . S
C1246 H1258 0.956 . S
C1246 H1259 0.961 . S
C1246 H1260 0.961 . S
C1247 C1244 1.539 . S
C1247 H1261 0.958 . S
C1247 H1262 0.961 . S
C1247 H1263 0.960 . S
H1248 C1232 0.931 . S
H1249 C1237 0.929 . S
H1250 C1238 0.960 . S
H1251 C1238 0.962 . S
H1252 C1238 0.960 . S
H1253 C1239 0.961 . S
H1254 C1239 0.961 . S
H1255 C1239 0.961 . S
H1256 C1240 0.931 . S
H1257 C1245 0.930 . S
H1258 C1246 0.956 . S
H1259 C1246 0.961 . S
H1260 C1246 0.961 . S
H1261 C1247 0.958 . S
H1262 C1247 0.961 . S
H1263 C1247 0.960 . S
C1264 C1265 1.391 . S
C1264 C1266 1.394 . S
C1264 H1280 0.931 . S
C1265 C1264 1.391 . S
C1265 C1269 1.376 1_565 S
C1266 C1264 1.394 . S
C1266 C1267 1.369 . S
C1266 C1270 1.531 . S
C1267 C1266 1.369 . S
C1267 C1268 1.410 1_565 S
C1267 C1275 1.503 1_565 S
C1268 C1267 1.410 1_545 S
C1268 C1269 1.392 . S
C1268 C1271 1.511 . S
C1269 C1265 1.376 1_545 S
C1269 C1268 1.392 . S
C1269 H1281 0.929 . S
C1270 C1266 1.531 . S
C1270 H1282 0.960 . S
C1270 H1283 0.962 . S
C1270 H1284 0.960 . S
C1271 C1268 1.511 . S
C1271 H1285 0.961 . S
C1271 H1286 0.961 . S
C1271 H1287 0.961 . S
C1272 C1273 1.370 . S
C1272 C1274 1.363 . S
C1272 H1288 0.931 . S
C1273 C1272 1.370 . S
C1273 C1277 1.408 . S
C1274 C1272 1.363 . S
C1274 C1275 1.370 . S
C1274 C1278 1.524 . S
C1275 C1267 1.503 1_545 S
C1275 C1274 1.370 . S
C1275 C1276 1.403 1_545 S
C1276 C1275 1.403 1_565 S
C1276 C1277 1.404 1_565 S
C1276 C1279 1.539 . S
C1277 C1273 1.408 . S
C1277 C1276 1.404 1_545 S
C1277 H1289 0.930 1_545 S
C1278 C1274 1.524 . S
C1278 H1290 0.956 . S
C1278 H1291 0.961 . S
C1278 H1292 0.961 . S
C1279 C1276 1.539 . S
C1279 H1293 0.958 . S
C1279 H1294 0.961 . S
C1279 H1295 0.960 . S
H1280 C1264 0.931 . S
H1281 C1269 0.929 . S
H1282 C1270 0.960 . S
H1283 C1270 0.962 . S
H1284 C1270 0.960 . S
H1285 C1271 0.961 . S
H1286 C1271 0.961 . S
H1287 C1271 0.961 . S
H1288 C1272 0.931 . S
H1289 C1277 0.930 1_565 S
H1290 C1278 0.956 . S
H1291 C1278 0.961 . S
H1292 C1278 0.961 . S
H1293 C1279 0.958 . S
H1294 C1279 0.961 . S
H1295 C1279 0.960 . S
C1296 C1297 1.391 . S
C1296 C1298 1.394 1_455 S
C1296 H1312 0.931 1_455 S
C1297 C1296 1.391 . S
C1297 C1301 1.376 . S
C1298 C1296 1.394 1_655 S
C1298 C1299 1.369 1_655 S
C1298 C1302 1.531 . S
C1299 C1298 1.369 1_455 S
C1299 C1300 1.410 . S
C1299 C1307 1.496 1_455 S
C1300 C1299 1.410 . S
C1300 C1301 1.392 . S
C1300 C1303 1.511 . S
C1301 C1297 1.376 . S
C1301 C1300 1.392 . S
C1301 H1313 0.929 . S
C1302 C1298 1.531 . S
C1302 H1314 0.960 . S
C1302 H1315 0.962 . S
C1302 H1316 0.960 . S
C1303 C1300 1.511 . S
C1303 H1317 0.961 . S
C1303 H1318 0.961 . S
C1303 H1319 0.961 . S
C1304 C1305 1.370 . S
C1304 C1306 1.363 . S
C1304 H1320 0.931 . S
C1305 C1304 1.370 . S
C1305 C1309 1.408 1_655 S
C1306 C1304 1.363 . S
C1306 C1307 1.388 . S
C1306 C1310 1.524 . S
C1307 C1299 1.496 1_655 S
C1307 C1306 1.388 . S
C1307 C1308 1.393 1_655 S
C1308 C1307 1.393 1_455 S
C1308 C1309 1.404 . S
C1308 C1311 1.539 . S
C1309 C1305 1.408 1_455 S
C1309 C1308 1.404 . S
C1309 H1321 0.930 . S
C1310 C1306 1.524 . S
C1310 H1322 0.956 . S
C1310 H1323 0.961 . S
C1310 H1324 0.961 . S
C1311 C1308 1.539 . S
C1311 H1325 0.958 . S
C1311 H1326 0.961 . S
C1311 H1327 0.960 . S
H1312 C1296 0.931 1_655 S
H1313 C1301 0.929 . S
H1314 C1302 0.960 . S
H1315 C1302 0.962 . S
H1316 C1302 0.960 . S
H1317 C1303 0.961 . S
H1318 C1303 0.961 . S
H1319 C1303 0.961 . S
H1320 C1304 0.931 . S
H1321 C1309 0.930 . S
H1322 C1310 0.956 . S
H1323 C1310 0.961 . S
H1324 C1310 0.961 . S
H1325 C1311 0.958 . S
H1326 C1311 0.961 . S
H1327 C1311 0.960 . S
C1328 C1329 1.408 . S
C1328 C1330 1.385 1_565 S
C1328 H1344 0.923 1_565 S
C1329 C1328 1.408 . S
C1329 C1333 1.376 . S
C1330 C1328 1.385 1_545 S
C1330 C1331 1.370 . S
C1330 C1334 1.531 . S
C1331 C1330 1.370 . S
C1331 C1332 1.407 1_545 S
C1331 C1339 1.504 . S
C1332 C1331 1.407 1_565 S
C1332 C1333 1.392 . S
C1332 C1335 1.511 . S
C1333 C1329 1.376 . S
C1333 C1332 1.392 . S
C1333 H1345 0.929 . S
C1334 C1330 1.531 . S
C1334 H1346 0.960 . S
C1334 H1347 0.962 . S
C1334 H1348 0.960 . S
C1335 C1332 1.511 . S
C1335 H1349 0.961 . S
C1335 H1350 0.961 . S
C1335 H1351 0.961 . S
C1336 C1337 1.370 1_565 S
C1336 C1338 1.363 . S
C1336 H1352 0.931 . S
C1337 C1336 1.370 1_545 S
C1337 C1341 1.408 . S
C1338 C1336 1.363 . S
C1338 C1339 1.370 1_565 S
C1338 C1342 1.524 . S
C1339 C1331 1.504 . S
C1339 C1338 1.370 1_545 S
C1339 C1340 1.403 . S
C1340 C1339 1.403 . S
C1340 C1341 1.404 . S
C1340 C1343 1.539 . S
C1341 C1337 1.408 . S
C1341 C1340 1.404 . S
C1341 H1353 0.930 . S
C1342 C1338 1.524 . S
C1342 H1354 0.956 . S
C1342 H1355 0.961 . S
C1342 H1356 0.961 . S
C1343 C1340 1.539 . S
C1343 H1357 0.958 . S
C1343 H1358 0.961 . S
C1343 H1359 0.960 . S
H1344 C1328 0.923 1_545 S
H1345 C1333 0.929 . S
H1346 C1334 0.960 . S
H1347 C1334 0.962 . S
H1348 C1334 0.960 . S
H1349 C1335 0.961 . S
H1350 C1335 0.961 . S
H1351 C1335 0.961 . S
H1352 C1336 0.931 . S
H1353 C1341 0.930 . S
H1354 C1342 0.956 . S
H1355 C1342 0.961 . S
H1356 C1342 0.961 . S
H1357 C1343 0.958 . S
H1358 C1343 0.961 . S
H1359 C1343 0.960 . S
C1360 C1361 1.391 1_655 S
C1360 C1362 1.394 . S
C1360 H1376 0.931 . S
C1361 C1360 1.391 1_455 S
C1361 C1365 1.376 . S
C1362 C1360 1.394 . S
C1362 C1363 1.369 1_655 S
C1362 C1366 1.531 . S
C1363 C1362 1.369 1_455 S
C1363 C1364 1.410 . S
C1363 C1371 1.503 1_455 S
C1364 C1363 1.410 . S
C1364 C1365 1.392 . S
C1364 C1367 1.511 . S
C1365 C1361 1.376 . S
C1365 C1364 1.392 . S
C1365 H1377 0.929 . S
C1366 C1362 1.531 . S
C1366 H1378 0.960 . S
C1366 H1379 0.962 . S
C1366 H1380 0.960 . S
C1367 C1364 1.511 . S
C1367 H1381 0.961 . S
C1367 H1382 0.961 . S
C1367 H1383 0.961 . S
C1368 C1369 1.370 . S
C1368 C1370 1.363 . S
C1368 H1384 0.931 . S
C1369 C1368 1.370 . S
C1369 C1373 1.408 . S
C1370 C1368 1.363 . S
C1370 C1371 1.370 . S
C1370 C1374 1.524 . S
C1371 C1363 1.503 1_655 S
C1371 C1370 1.370 . S
C1371 C1372 1.406 . S
C1372 C1371 1.406 . S
C1372 C1373 1.414 . S
C1372 C1375 1.524 1_655 S
C1373 C1369 1.408 . S
C1373 C1372 1.414 . S
C1373 H1385 0.930 . S
C1374 C1370 1.524 . S
C1374 H1386 0.956 . S
C1374 H1387 0.976 . S
C1374 H1388 0.961 . S
C1375 C1372 1.524 1_455 S
C1375 H1389 0.945 1_455 S
C1375 H1390 0.961 . S
C1375 H1391 0.960 . S
H1376 C1360 0.931 . S
H1377 C1365 0.929 . S
H1378 C1366 0.960 . S
H1379 C1366 0.962 . S
H1380 C1366 0.960 . S
H1381 C1367 0.961 . S
H1382 C1367 0.961 . S
H1383 C1367 0.961 . S
H1384 C1368 0.931 . S
H1385 C1373 0.930 . S
H1386 C1374 0.956 . S
H1387 C1374 0.976 . S
H1388 C1374 0.961 . S
H1389 C1375 0.945 1_655 S
H1390 C1375 0.961 . S
H1391 C1375 0.960 . S
C1392 C1393 1.391 . S
C1392 C1394 1.394 . S
C1392 H1408 0.931 . S
C1393 C1392 1.391 . S
C1393 C1397 1.376 . S
C1394 C1392 1.394 . S
C1394 C1395 1.369 . S
C1394 C1398 1.531 . S
C1395 C1394 1.369 . S
C1395 C1396 1.410 . S
C1395 C1403 1.503 . S
C1396 C1395 1.410 . S
C1396 C1397 1.392 . S
C1396 C1399 1.511 . S
C1397 C1393 1.376 . S
C1397 C1396 1.392 . S
C1397 H1409 0.929 . S
C1398 C1394 1.531 . S
C1398 H1410 0.960 . S
C1398 H1411 0.962 . S
C1398 H1412 0.960 . S
C1399 C1396 1.511 . S
C1399 H1413 0.961 . S
C1399 H1414 0.961 . S
C1399 H1415 0.961 . S
C1400 C1401 1.370 . S
C1400 C1402 1.363 . S
C1400 H1416 0.931 . S
C1401 C1400 1.370 . S
C1401 C1405 1.408 . S
C1402 C1400 1.363 . S
C1402 C1403 1.370 . S
C1402 C1406 1.524 . S
C1403 C1395 1.503 . S
C1403 C1402 1.370 . S
C1403 C1404 1.403 . S
C1404 C1403 1.403 . S
C1404 C1405 1.404 . S
C1404 C1407 1.539 . S
C1405 C1401 1.408 . S
C1405 C1404 1.404 . S
C1405 H1417 0.930 . S
C1406 C1402 1.524 . S
C1406 H1418 0.956 . S
C1406 H1419 0.961 . S
C1406 H1420 0.961 . S
C1407 C1404 1.539 . S
C1407 H1421 0.958 . S
C1407 H1422 0.961 . S
C1407 H1423 0.960 . S
H1408 C1392 0.931 . S
H1409 C1397 0.929 . S
H1410 C1398 0.960 . S
H1411 C1398 0.962 . S
H1412 C1398 0.960 . S
H1413 C1399 0.961 . S
H1414 C1399 0.961 . S
H1415 C1399 0.961 . S
H1416 C1400 0.931 . S
H1417 C1405 0.930 . S
H1418 C1406 0.956 . S
H1419 C1406 0.961 . S
H1420 C1406 0.961 . S
H1421 C1407 0.958 . S
H1422 C1407 0.961 . S
H1423 C1407 0.960 . S
C1424 C1425 1.391 . S
C1424 C1426 1.394 . S
C1424 H1440 0.931 . S
C1425 C1424 1.391 . S
C1425 C1429 1.376 . S
C1426 C1424 1.394 . S
C1426 C1427 1.369 . S
C1426 C1430 1.531 . S
C1427 C1426 1.369 . S
C1427 C1428 1.410 . S
C1427 C1435 1.503 . S
C1428 C1427 1.410 . S
C1428 C1429 1.392 . S
C1428 C1431 1.511 . S
C1429 C1425 1.376 . S
C1429 C1428 1.392 . S
C1429 H1441 0.929 . S
C1430 C1426 1.531 . S
C1430 H1442 0.960 . S
C1430 H1443 0.962 . S
C1430 H1444 0.960 . S
C1431 C1428 1.511 . S
C1431 H1445 0.961 . S
C1431 H1446 0.961 . S
C1431 H1447 0.961 . S
C1432 C1433 1.370 . S
C1432 C1434 1.363 . S
C1432 H1448 0.931 . S
C1433 C1432 1.370 . S
C1433 C1437 1.408 . S
C1434 C1432 1.363 . S
C1434 C1435 1.370 . S
C1434 C1438 1.524 . S
C1435 C1427 1.503 . S
C1435 C1434 1.370 . S
C1435 C1436 1.403 . S
C1436 C1435 1.403 . S
C1436 C1437 1.404 . S
C1436 C1439 1.539 . S
C1437 C1433 1.408 . S
C1437 C1436 1.404 . S
C1437 H1449 0.930 . S
C1438 C1434 1.524 . S
C1438 H1450 0.956 . S
C1438 H1451 0.961 . S
C1438 H1452 0.961 . S
C1439 C1436 1.539 . S
C1439 H1453 0.958 . S
C1439 H1454 0.961 . S
C1439 H1455 0.960 . S
H1440 C1424 0.931 . S
H1441 C1429 0.929 . S
H1442 C1430 0.960 . S
H1443 C1430 0.962 . S
H1444 C1430 0.960 . S
H1445 C1431 0.961 . S
H1446 C1431 0.961 . S
H1447 C1431 0.961 . S
H1448 C1432 0.931 . S
H1449 C1437 0.930 . S
H1450 C1438 0.956 . S
H1451 C1438 0.961 . S
H1452 C1438 0.961 . S
H1453 C1439 0.958 . S
H1454 C1439 0.961 . S
H1455 C1439 0.960 . S
C1456 C1457 1.391 . S
C1456 C1458 1.394 . S
C1456 H1472 0.931 . S
C1457 C1456 1.391 . S
C1457 C1461 1.376 . S
C1458 C1456 1.394 . S
C1458 C1459 1.369 . S
C1458 C1462 1.531 . S
C1459 C1458 1.369 . S
C1459 C1460 1.410 . S
C1459 C1467 1.503 . S
C1460 C1459 1.410 . S
C1460 C1461 1.392 . S
C1460 C1463 1.511 . S
C1461 C1457 1.376 . S
C1461 C1460 1.392 . S
C1461 H1473 0.929 . S
C1462 C1458 1.531 . S
C1462 H1474 0.960 . S
C1462 H1475 0.962 . S
C1462 H1476 0.960 . S
C1463 C1460 1.511 . S
C1463 H1477 0.961 . S
C1463 H1478 0.961 . S
C1463 H1479 0.961 . S
C1464 C1465 1.370 . S
C1464 C1466 1.363 . S
C1464 H1480 0.931 . S
C1465 C1464 1.370 . S
C1465 C1469 1.408 . S
C1466 C1464 1.363 . S
C1466 C1467 1.370 . S
C1466 C1470 1.524 . S
C1467 C1459 1.503 . S
C1467 C1466 1.370 . S
C1467 C1468 1.403 . S
C1468 C1467 1.403 . S
C1468 C1469 1.404 . S
C1468 C1471 1.539 . S
C1469 C1465 1.408 . S
C1469 C1468 1.404 . S
C1469 H1481 0.930 . S
C1470 C1466 1.524 . S
C1470 H1482 0.956 . S
C1470 H1483 0.961 . S
C1470 H1484 0.961 . S
C1471 C1468 1.539 . S
C1471 H1485 0.958 . S
C1471 H1486 0.961 . S
C1471 H1487 0.960 . S
H1472 C1456 0.931 . S
H1473 C1461 0.929 . S
H1474 C1462 0.960 . S
H1475 C1462 0.962 . S
H1476 C1462 0.960 . S
H1477 C1463 0.961 . S
H1478 C1463 0.961 . S
H1479 C1463 0.961 . S
H1480 C1464 0.931 . S
H1481 C1469 0.930 . S
H1482 C1470 0.956 . S
H1483 C1470 0.961 . S
H1484 C1470 0.961 . S
H1485 C1471 0.958 . S
H1486 C1471 0.961 . S
H1487 C1471 0.960 . S
C1488 C1489 1.391 . S
C1488 C1490 1.394 . S
C1488 H1504 0.931 . S
C1489 C1488 1.391 . S
C1489 C1493 1.376 . S
C1490 C1488 1.394 . S
C1490 C1491 1.369 . S
C1490 C1494 1.531 . S
C1491 C1490 1.369 . S
C1491 C1492 1.410 . S
C1491 C1499 1.503 . S
C1492 C1491 1.410 . S
C1492 C1493 1.392 . S
C1492 C1495 1.511 . S
C1493 C1489 1.376 . S
C1493 C1492 1.392 . S
C1493 H1505 0.929 . S
C1494 C1490 1.531 . S
C1494 H1506 0.960 . S
C1494 H1507 0.962 . S
C1494 H1508 0.960 . S
C1495 C1492 1.511 . S
C1495 H1509 0.961 . S
C1495 H1510 0.961 . S
C1495 H1511 0.961 . S
C1496 C1497 1.370 . S
C1496 C1498 1.363 . S
C1496 H1512 0.931 . S
C1497 C1496 1.370 . S
C1497 C1501 1.408 . S
C1498 C1496 1.363 . S
C1498 C1499 1.370 . S
C1498 C1502 1.524 . S
C1499 C1491 1.503 . S
C1499 C1498 1.370 . S
C1499 C1500 1.403 . S
C1500 C1499 1.403 . S
C1500 C1501 1.404 . S
C1500 C1503 1.539 . S
C1501 C1497 1.408 . S
C1501 C1500 1.404 . S
C1501 H1513 0.930 . S
C1502 C1498 1.524 . S
C1502 H1514 0.956 . S
C1502 H1515 0.961 . S
C1502 H1516 0.961 . S
C1503 C1500 1.539 . S
C1503 H1517 0.958 . S
C1503 H1518 0.961 . S
C1503 H1519 0.960 . S
H1504 C1488 0.931 . S
H1505 C1493 0.929 . S
H1506 C1494 0.960 . S
H1507 C1494 0.962 . S
H1508 C1494 0.960 . S
H1509 C1495 0.961 . S
H1510 C1495 0.961 . S
H1511 C1495 0.961 . S
H1512 C1496 0.931 . S
H1513 C1501 0.930 . S
H1514 C1502 0.956 . S
H1515 C1502 0.961 . S
H1516 C1502 0.961 . S
H1517 C1503 0.958 . S
H1518 C1503 0.961 . S
H1519 C1503 0.960 . S
C1520 C1521 1.391 . S
C1520 C1522 1.394 . S
C1520 H1536 0.931 . S
C1521 C1520 1.391 . S
C1521 C1525 1.376 . S
C1522 C1520 1.394 . S
C1522 C1523 1.369 . S
C1522 C1526 1.531 . S
C1523 C1522 1.369 . S
C1523 C1524 1.410 . S
C1523 C1531 1.503 . S
C1524 C1523 1.410 . S
C1524 C1525 1.392 . S
C1524 C1527 1.511 . S
C1525 C1521 1.376 . S
C1525 C1524 1.392 . S
C1525 H1537 0.929 . S
C1526 C1522 1.531 . S
C1526 H1538 0.960 . S
C1526 H1539 0.962 . S
C1526 H1540 0.960 . S
C1527 C1524 1.511 . S
C1527 H1541 0.961 . S
C1527 H1542 0.961 . S
C1527 H1543 0.961 . S
C1528 C1529 1.370 . S
C1528 C1530 1.363 . S
C1528 H1544 0.931 . S
C1529 C1528 1.370 . S
C1529 C1533 1.408 . S
C1530 C1528 1.363 . S
C1530 C1531 1.370 . S
C1530 C1534 1.524 . S
C1531 C1523 1.503 . S
C1531 C1530 1.370 . S
C1531 C1532 1.403 . S
C1532 C1531 1.403 . S
C1532 C1533 1.404 . S
C1532 C1535 1.539 . S
C1533 C1529 1.408 . S
C1533 C1532 1.404 . S
C1533 H1545 0.930 . S
C1534 C1530 1.524 . S
C1534 H1546 0.956 . S
C1534 H1547 0.961 . S
C1534 H1548 0.961 . S
C1535 C1532 1.539 . S
C1535 H1549 0.958 . S
C1535 H1550 0.961 . S
C1535 H1551 0.960 . S
H1536 C1520 0.931 . S
H1537 C1525 0.929 . S
H1538 C1526 0.960 . S
H1539 C1526 0.962 . S
H1540 C1526 0.960 . S
H1541 C1527 0.961 . S
H1542 C1527 0.961 . S
H1543 C1527 0.961 . S
H1544 C1528 0.931 . S
H1545 C1533 0.930 . S
H1546 C1534 0.956 . S
H1547 C1534 0.961 . S
H1548 C1534 0.961 . S
H1549 C1535 0.958 . S
H1550 C1535 0.961 . S
H1551 C1535 0.960 . S
C1552 C1553 1.391 . S
C1552 C1554 1.394 . S
C1552 H1568 0.931 . S
C1553 C1552 1.391 . S
C1553 C1557 1.376 . S
C1554 C1552 1.394 . S
C1554 C1555 1.369 . S
C1554 C1558 1.531 . S
C1555 C1554 1.369 . S
C1555 C1556 1.410 . S
C1555 C1563 1.503 . S
C1556 C1555 1.410 . S
C1556 C1557 1.392 . S
C1556 C1559 1.511 . S
C1557 C1553 1.376 . S
C1557 C1556 1.392 . S
C1557 H1569 0.929 . S
C1558 C1554 1.531 . S
C1558 H1570 0.960 . S
C1558 H1571 0.962 . S
C1558 H1572 0.960 . S
C1559 C1556 1.511 . S
C1559 H1573 0.961 . S
C1559 H1574 0.961 . S
C1559 H1575 0.961 . S
C1560 C1561 1.370 . S
C1560 C1562 1.363 . S
C1560 H1576 0.931 . S
C1561 C1560 1.370 . S
C1561 C1565 1.408 . S
C1562 C1560 1.363 . S
C1562 C1563 1.370 . S
C1562 C1566 1.524 . S
C1563 C1555 1.503 . S
C1563 C1562 1.370 . S
C1563 C1564 1.403 . S
C1564 C1563 1.403 . S
C1564 C1565 1.404 . S
C1564 C1567 1.539 . S
C1565 C1561 1.408 . S
C1565 C1564 1.404 . S
C1565 H1577 0.930 . S
C1566 C1562 1.524 . S
C1566 H1578 0.956 . S
C1566 H1579 0.961 . S
C1566 H1580 0.961 . S
C1567 C1564 1.539 . S
C1567 H1581 0.958 . S
C1567 H1582 0.961 . S
C1567 H1583 0.960 . S
H1568 C1552 0.931 . S
H1569 C1557 0.929 . S
H1570 C1558 0.960 . S
H1571 C1558 0.962 . S
H1572 C1558 0.960 . S
H1573 C1559 0.961 . S
H1574 C1559 0.961 . S
H1575 C1559 0.961 . S
H1576 C1560 0.931 . S
H1577 C1565 0.930 . S
H1578 C1566 0.956 . S
H1579 C1566 0.961 . S
H1580 C1566 0.961 . S
H1581 C1567 0.958 . S
H1582 C1567 0.961 . S
H1583 C1567 0.960 . S
C1584 C1585 1.391 . S
C1584 C1586 1.394 . S
C1584 H1600 0.931 . S
C1585 C1584 1.391 . S
C1585 C1589 1.376 . S
C1586 C1584 1.394 . S
C1586 C1587 1.369 . S
C1586 C1590 1.531 . S
C1587 C1586 1.369 . S
C1587 C1588 1.410 . S
C1587 C1595 1.503 . S
C1588 C1587 1.410 . S
C1588 C1589 1.392 . S
C1588 C1591 1.511 . S
C1589 C1585 1.376 . S
C1589 C1588 1.392 . S
C1589 H1601 0.929 . S
C1590 C1586 1.531 . S
C1590 H1602 0.960 . S
C1590 H1603 0.962 . S
C1590 H1604 0.960 . S
C1591 C1588 1.511 . S
C1591 H1605 0.961 . S
C1591 H1606 0.961 . S
C1591 H1607 0.961 . S
C1592 C1593 1.370 . S
C1592 C1594 1.363 . S
C1592 H1608 0.931 . S
C1593 C1592 1.370 . S
C1593 C1597 1.408 . S
C1594 C1592 1.363 . S
C1594 C1595 1.370 . S
C1594 C1598 1.524 . S
C1595 C1587 1.503 . S
C1595 C1594 1.370 . S
C1595 C1596 1.403 . S
C1596 C1595 1.403 . S
C1596 C1597 1.404 . S
C1596 C1599 1.539 . S
C1597 C1593 1.408 . S
C1597 C1596 1.404 . S
C1597 H1609 0.930 . S
C1598 C1594 1.524 . S
C1598 H1610 0.956 . S
C1598 H1611 0.961 . S
C1598 H1612 0.961 . S
C1599 C1596 1.539 . S
C1599 H1613 0.958 . S
C1599 H1614 0.961 . S
C1599 H1615 0.960 . S
H1600 C1584 0.931 . S
H1601 C1589 0.929 . S
H1602 C1590 0.960 . S
H1603 C1590 0.962 . S
H1604 C1590 0.960 . S
H1605 C1591 0.961 . S
H1606 C1591 0.961 . S
H1607 C1591 0.961 . S
H1608 C1592 0.931 . S
H1609 C1597 0.930 . S
H1610 C1598 0.956 . S
H1611 C1598 0.961 . S
H1612 C1598 0.961 . S
H1613 C1599 0.958 . S
H1614 C1599 0.961 . S
H1615 C1599 0.960 . S
C1616 C1617 1.391 . S
C1616 C1618 1.394 . S
C1616 H1632 0.931 . S
C1617 C1616 1.391 . S
C1617 C1621 1.376 . S
C1618 C1616 1.394 . S
C1618 C1619 1.369 . S
C1618 C1622 1.531 . S
C1619 C1618 1.369 . S
C1619 C1620 1.410 . S
C1619 C1627 1.503 . S
C1620 C1619 1.410 . S
C1620 C1621 1.392 . S
C1620 C1623 1.511 . S
C1621 C1617 1.376 . S
C1621 C1620 1.392 . S
C1621 H1633 0.929 . S
C1622 C1618 1.531 . S
C1622 H1634 0.960 . S
C1622 H1635 0.962 . S
C1622 H1636 0.960 . S
C1623 C1620 1.511 . S
C1623 H1637 0.961 . S
C1623 H1638 0.961 . S
C1623 H1639 0.961 . S
C1624 C1625 1.370 . S
C1624 C1626 1.363 . S
C1624 H1640 0.931 . S
C1625 C1624 1.370 . S
C1625 C1629 1.408 . S
C1626 C1624 1.363 . S
C1626 C1627 1.370 . S
C1626 C1630 1.524 . S
C1627 C1619 1.503 . S
C1627 C1626 1.370 . S
C1627 C1628 1.403 . S
C1628 C1627 1.403 . S
C1628 C1629 1.404 . S
C1628 C1631 1.539 . S
C1629 C1625 1.408 . S
C1629 C1628 1.404 . S
C1629 H1641 0.930 . S
C1630 C1626 1.524 . S
C1630 H1642 0.956 . S
C1630 H1643 0.961 . S
C1630 H1644 0.961 . S
C1631 C1628 1.539 . S
C1631 H1645 0.958 . S
C1631 H1646 0.961 . S
C1631 H1647 0.960 . S
H1632 C1616 0.931 . S
H1633 C1621 0.929 . S
H1634 C1622 0.960 . S
H1635 C1622 0.962 . S
H1636 C1622 0.960 . S
H1637 C1623 0.961 . S
H1638 C1623 0.961 . S
H1639 C1623 0.961 . S
H1640 C1624 0.931 . S
H1641 C1629 0.930 . S
H1642 C1630 0.956 . S
H1643 C1630 0.961 . S
H1644 C1630 0.961 . S
H1645 C1631 0.958 . S
H1646 C1631 0.961 . S
H1647 C1631 0.960 . S
C1648 C1649 1.391 1_554 S
C1648 C1650 1.394 . S
C1648 H1664 0.931 . S
C1649 C1648 1.391 1_556 S
C1649 C1653 1.376 . S
C1650 C1648 1.394 . S
C1650 C1651 1.369 1_554 S
C1650 C1654 1.531 . S
C1651 C1650 1.369 1_556 S
C1651 C1652 1.410 . S
C1651 C1659 1.503 1_556 S
C1652 C1651 1.410 . S
C1652 C1653 1.392 . S
C1652 C1655 1.511 . S
C1653 C1649 1.376 . S
C1653 C1652 1.392 . S
C1653 H1665 0.929 . S
C1654 C1650 1.531 . S
C1654 H1666 0.960 . S
C1654 H1667 0.962 . S
C1654 H1668 0.960 . S
C1655 C1652 1.511 . S
C1655 H1669 0.961 . S
C1655 H1670 0.961 . S
C1655 H1671 0.961 . S
C1656 C1657 1.370 . S
C1656 C1658 1.363 . S
C1656 H1672 0.931 . S
C1657 C1656 1.370 . S
C1657 C1661 1.408 1_554 S
C1658 C1656 1.363 . S
C1658 C1659 1.370 . S
C1658 C1662 1.524 . S
C1659 C1651 1.503 1_554 S
C1659 C1658 1.370 . S
C1659 C1660 1.403 1_554 S
C1660 C1659 1.403 1_556 S
C1660 C1661 1.404 . S
C1660 C1663 1.539 . S
C1661 C1657 1.408 1_556 S
C1661 C1660 1.404 . S
C1661 H1673 0.930 . S
C1662 C1658 1.524 . S
C1662 H1674 0.956 . S
C1662 H1675 0.961 . S
C1662 H1676 0.961 . S
C1663 C1660 1.539 . S
C1663 H1677 0.958 . S
C1663 H1678 0.961 . S
C1663 H1679 0.960 . S
H1664 C1648 0.931 . S
H1665 C1653 0.929 . S
H1666 C1654 0.960 . S
H1667 C1654 0.962 . S
H1668 C1654 0.960 . S
H1669 C1655 0.961 . S
H1670 C1655 0.961 . S
H1671 C1655 0.961 . S
H1672 C1656 0.931 . S
H1673 C1661 0.930 . S
H1674 C1662 0.956 . S
H1675 C1662 0.961 . S
H1676 C1662 0.961 . S
H1677 C1663 0.958 . S
H1678 C1663 0.961 . S
H1679 C1663 0.960 . S
C1680 C1681 1.391 1_556 S
C1680 C1682 1.394 . S
C1680 H1696 0.931 . S
C1681 C1680 1.391 1_554 S
C1681 C1685 1.376 . S
C1682 C1680 1.394 . S
C1682 C1683 1.360 1_556 S
C1682 C1686 1.531 . S
C1683 C1682 1.360 1_554 S
C1683 C1684 1.422 . S
C1683 C1691 1.500 1_554 S
C1684 C1683 1.422 . S
C1684 C1685 1.392 . S
C1684 C1687 1.511 . S
C1685 C1681 1.376 . S
C1685 C1684 1.392 . S
C1685 H1697 0.929 . S
C1686 C1682 1.531 . S
C1686 H1698 0.960 . S
C1686 H1699 0.962 . S
C1686 H1700 0.960 . S
C1687 C1684 1.511 . S
C1687 H1701 0.961 . S
C1687 H1702 0.961 . S
C1687 H1703 0.961 . S
C1688 C1689 1.370 . S
C1688 C1690 1.363 1_556 S
C1688 H1704 0.931 . S
C1689 C1688 1.370 . S
C1689 C1693 1.408 . S
C1690 C1688 1.363 1_554 S
C1690 C1691 1.370 1_554 S
C1690 C1694 1.524 . S
C1691 C1683 1.500 1_556 S
C1691 C1690 1.370 1_556 S
C1691 C1692 1.403 . S
C1692 C1691 1.403 . S
C1692 C1693 1.404 . S
C1692 C1695 1.539 . S
C1693 C1689 1.408 . S
C1693 C1692 1.404 . S
C1693 H1705 0.930 . S
C1694 C1690 1.524 . S
C1694 H1706 0.956 . S
C1694 H1707 0.961 . S
C1694 H1708 0.961 . S
C1695 C1692 1.539 . S
C1695 H1709 0.958 . S
C1695 H1710 0.961 . S
C1695 H1711 0.960 . S
H1696 C1680 0.931 . S
H1697 C1685 0.929 . S
H1698 C1686 0.960 . S
H1699 C1686 0.962 . S
H1700 C1686 0.960 . S
H1701 C1687 0.961 . S
H1702 C1687 0.961 . S
H1703 C1687 0.961 . S
H1704 C1688 0.931 . S
H1705 C1693 0.930 . S
H1706 C1694 0.956 . S
H1707 C1694 0.961 . S
H1708 C1694 0.961 . S
H1709 C1695 0.958 . S
H1710 C1695 0.961 . S
H1711 C1695 0.960 . S
C1712 C1713 1.391 . S
C1712 C1714 1.394 . S
C1712 H1728 0.931 . S
C1713 C1712 1.391 . S
C1713 C1717 1.376 . S
C1714 C1712 1.394 . S
C1714 C1715 1.369 . S
C1714 C1718 1.531 . S
C1715 C1714 1.369 . S
C1715 C1716 1.410 . S
C1715 C1723 1.509 . S
C1716 C1715 1.410 . S
C1716 C1717 1.392 . S
C1716 C1719 1.511 1_554 S
C1717 C1713 1.376 . S
C1717 C1716 1.392 . S
C1717 H1729 0.929 . S
C1718 C1714 1.531 . S
C1718 H1730 0.960 . S
C1718 H1731 0.962 . S
C1718 H1732 0.960 . S
C1719 C1716 1.511 1_556 S
C1719 H1733 0.961 . S
C1719 H1734 0.961 . S
C1719 H1735 0.959 . S
C1720 C1721 1.370 . S
C1720 C1722 1.363 . S
C1720 H1736 0.931 . S
C1721 C1720 1.370 . S
C1721 C1725 1.408 1_556 S
C1722 C1720 1.363 . S
C1722 C1723 1.354 1_556 S
C1722 C1726 1.524 . S
C1723 C1715 1.509 . S
C1723 C1722 1.354 1_554 S
C1723 C1724 1.414 . S
C1724 C1723 1.414 . S
C1724 C1725 1.404 . S
C1724 C1727 1.539 . S
C1725 C1721 1.408 1_554 S
C1725 C1724 1.404 . S
C1725 H1737 0.930 . S
C1726 C1722 1.524 . S
C1726 H1738 0.956 . S
C1726 H1739 0.961 . S
C1726 H1740 0.961 . S
C1727 C1724 1.539 . S
C1727 H1741 0.958 . S
C1727 H1742 0.961 . S
C1727 H1743 0.960 . S
H1728 C1712 0.931 . S
H1729 C1717 0.929 . S
H1730 C1718 0.960 . S
H1731 C1718 0.962 . S
H1732 C1718 0.960 . S
H1733 C1719 0.961 . S
H1734 C1719 0.961 . S
H1735 C1719 0.959 . S
H1736 C1720 0.931 . S
H1737 C1725 0.930 . S
H1738 C1726 0.956 . S
H1739 C1726 0.961 . S
H1740 C1726 0.961 . S
H1741 C1727 0.958 . S
H1742 C1727 0.961 . S
H1743 C1727 0.960 . S
C1744 C1745 1.391 1_556 S
C1744 C1746 1.394 . S
C1744 H1760 0.931 . S
C1745 C1744 1.391 1_554 S
C1745 C1749 1.376 . S
C1746 C1744 1.394 . S
C1746 C1747 1.369 . S
C1746 C1750 1.531 . S
C1747 C1746 1.369 . S
C1747 C1748 1.410 1_556 S
C1747 C1755 1.503 . S
C1748 C1747 1.410 1_554 S
C1748 C1749 1.392 . S
C1748 C1751 1.511 . S
C1749 C1745 1.376 . S
C1749 C1748 1.392 . S
C1749 H1761 0.929 . S
C1750 C1746 1.531 . S
C1750 H1762 0.960 . S
C1750 H1763 0.962 . S
C1750 H1764 0.960 . S
C1751 C1748 1.511 . S
C1751 H1765 0.961 . S
C1751 H1766 0.961 . S
C1751 H1767 0.961 . S
C1752 C1753 1.370 1_554 S
C1752 C1754 1.363 . S
C1752 H1768 0.931 . S
C1753 C1752 1.370 1_556 S
C1753 C1757 1.408 . S
C1754 C1752 1.363 . S
C1754 C1755 1.370 1_554 S
C1754 C1758 1.524 . S
C1755 C1747 1.503 . S
C1755 C1754 1.370 1_556 S
C1755 C1756 1.403 . S
C1756 C1755 1.403 . S
C1756 C1757 1.404 . S
C1756 C1759 1.539 . S
C1757 C1753 1.408 . S
C1757 C1756 1.404 . S
C1757 H1769 0.930 . S
C1758 C1754 1.524 . S
C1758 H1770 0.956 . S
C1758 H1771 0.961 . S
C1758 H1772 0.961 . S
C1759 C1756 1.539 . S
C1759 H1773 0.958 . S
C1759 H1774 0.961 . S
C1759 H1775 0.960 . S
H1760 C1744 0.931 . S
H1761 C1749 0.929 . S
H1762 C1750 0.960 . S
H1763 C1750 0.962 . S
H1764 C1750 0.960 . S
H1765 C1751 0.961 . S
H1766 C1751 0.961 . S
H1767 C1751 0.961 . S
H1768 C1752 0.931 . S
H1769 C1757 0.930 . S
H1770 C1758 0.956 . S
H1771 C1758 0.961 . S
H1772 C1758 0.961 . S
H1773 C1759 0.958 . S
H1774 C1759 0.961 . S
H1775 C1759 0.960 . S
C1776 C1777 1.391 . S
C1776 C1778 1.394 . S
C1776 H1792 0.931 . S
C1777 C1776 1.391 . S
C1777 C1781 1.376 . S
C1778 C1776 1.394 . S
C1778 C1779 1.369 . S
C1778 C1782 1.531 . S
C1779 C1778 1.369 . S
C1779 C1780 1.410 . S
C1779 C1787 1.503 . S
C1780 C1779 1.410 . S
C1780 C1781 1.392 . S
C1780 C1783 1.511 . S
C1781 C1777 1.376 . S
C1781 C1780 1.392 . S
C1781 H1793 0.929 . S
C1782 C1778 1.531 . S
C1782 H1794 0.960 . S
C1782 H1795 0.962 . S
C1782 H1796 0.960 . S
C1783 C1780 1.511 . S
C1783 H1797 0.961 . S
C1783 H1798 0.961 . S
C1783 H1799 0.961 . S
C1784 C1785 1.370 . S
C1784 C1786 1.363 . S
C1784 H1800 0.931 . S
C1785 C1784 1.370 . S
C1785 C1789 1.408 . S
C1786 C1784 1.363 . S
C1786 C1787 1.370 . S
C1786 C1790 1.524 . S
C1787 C1779 1.503 . S
C1787 C1786 1.370 . S
C1787 C1788 1.403 . S
C1788 C1787 1.403 . S
C1788 C1789 1.404 . S
C1788 C1791 1.539 . S
C1789 C1785 1.408 . S
C1789 C1788 1.404 . S
C1789 H1801 0.930 . S
C1790 C1786 1.524 . S
C1790 H1802 0.956 . S
C1790 H1803 0.961 . S
C1790 H1804 0.961 . S
C1791 C1788 1.539 . S
C1791 H1805 0.958 . S
C1791 H1806 0.961 . S
C1791 H1807 0.960 . S
H1792 C1776 0.931 . S
H1793 C1781 0.929 . S
H1794 C1782 0.960 . S
H1795 C1782 0.962 . S
H1796 C1782 0.960 . S
H1797 C1783 0.961 . S
H1798 C1783 0.961 . S
H1799 C1783 0.961 . S
H1800 C1784 0.931 . S
H1801 C1789 0.930 . S
H1802 C1790 0.956 . S
H1803 C1790 0.961 . S
H1804 C1790 0.961 . S
H1805 C1791 0.958 . S
H1806 C1791 0.961 . S
H1807 C1791 0.960 . S
C1808 C1809 1.391 . S
C1808 C1810 1.394 . S
C1808 H1824 0.931 . S
C1809 C1808 1.391 . S
C1809 C1813 1.376 . S
C1810 C1808 1.394 . S
C1810 C1811 1.369 . S
C1810 C1814 1.531 . S
C1811 C1810 1.369 . S
C1811 C1812 1.410 . S
C1811 C1819 1.503 . S
C1812 C1811 1.410 . S
C1812 C1813 1.392 . S
C1812 C1815 1.511 . S
C1813 C1809 1.376 . S
C1813 C1812 1.392 . S
C1813 H1825 0.929 . S
C1814 C1810 1.531 . S
C1814 H1826 0.960 . S
C1814 H1827 0.962 . S
C1814 H1828 0.960 . S
C1815 C1812 1.511 . S
C1815 H1829 0.961 . S
C1815 H1830 0.961 . S
C1815 H1831 0.961 . S
C1816 C1817 1.370 . S
C1816 C1818 1.363 . S
C1816 H1832 0.931 . S
C1817 C1816 1.370 . S
C1817 C1821 1.408 . S
C1818 C1816 1.363 . S
C1818 C1819 1.370 . S
C1818 C1822 1.524 . S
C1819 C1811 1.503 . S
C1819 C1818 1.370 . S
C1819 C1820 1.403 . S
C1820 C1819 1.403 . S
C1820 C1821 1.404 . S
C1820 C1823 1.539 . S
C1821 C1817 1.408 . S
C1821 C1820 1.404 . S
C1821 H1833 0.930 . S
C1822 C1818 1.524 . S
C1822 H1834 0.956 . S
C1822 H1835 0.961 . S
C1822 H1836 0.961 . S
C1823 C1820 1.539 . S
C1823 H1837 0.958 . S
C1823 H1838 0.961 . S
C1823 H1839 0.960 . S
H1824 C1808 0.931 . S
H1825 C1813 0.929 . S
H1826 C1814 0.960 . S
H1827 C1814 0.962 . S
H1828 C1814 0.960 . S
H1829 C1815 0.961 . S
H1830 C1815 0.961 . S
H1831 C1815 0.961 . S
H1832 C1816 0.931 . S
H1833 C1821 0.930 . S
H1834 C1822 0.956 . S
H1835 C1822 0.961 . S
H1836 C1822 0.961 . S
H1837 C1823 0.958 . S
H1838 C1823 0.961 . S
H1839 C1823 0.960 . S
C1840 C1841 1.391 . S
C1840 C1842 1.394 . S
C1840 H1856 0.931 . S
C1841 C1840 1.391 . S
C1841 C1845 1.376 . S
C1842 C1840 1.394 . S
C1842 C1843 1.369 . S
C1842 C1846 1.531 . S
C1843 C1842 1.369 . S
C1843 C1844 1.410 . S
C1843 C1851 1.503 . S
C1844 C1843 1.410 . S
C1844 C1845 1.392 . S
C1844 C1847 1.511 . S
C1845 C1841 1.376 . S
C1845 C1844 1.392 . S
C1845 H1857 0.929 . S
C1846 C1842 1.531 . S
C1846 H1858 0.960 . S
C1846 H1859 0.962 . S
C1846 H1860 0.960 . S
C1847 C1844 1.511 . S
C1847 H1861 0.961 . S
C1847 H1862 0.961 . S
C1847 H1863 0.961 . S
C1848 C1849 1.370 . S
C1848 C1850 1.363 . S
C1848 H1864 0.931 . S
C1849 C1848 1.370 . S
C1849 C1853 1.408 . S
C1850 C1848 1.363 . S
C1850 C1851 1.370 . S
C1850 C1854 1.524 . S
C1851 C1843 1.503 . S
C1851 C1850 1.370 . S
C1851 C1852 1.403 . S
C1852 C1851 1.403 . S
C1852 C1853 1.404 . S
C1852 C1855 1.539 . S
C1853 C1849 1.408 . S
C1853 C1852 1.404 . S
C1853 H1865 0.930 . S
C1854 C1850 1.524 . S
C1854 H1866 0.956 . S
C1854 H1867 0.961 . S
C1854 H1868 0.961 . S
C1855 C1852 1.539 . S
C1855 H1869 0.958 . S
C1855 H1870 0.961 . S
C1855 H1871 0.960 . S
H1856 C1840 0.931 . S
H1857 C1845 0.929 . S
H1858 C1846 0.960 . S
H1859 C1846 0.962 . S
H1860 C1846 0.960 . S
H1861 C1847 0.961 . S
H1862 C1847 0.961 . S
H1863 C1847 0.961 . S
H1864 C1848 0.931 . S
H1865 C1853 0.930 . S
H1866 C1854 0.956 . S
H1867 C1854 0.961 . S
H1868 C1854 0.961 . S
H1869 C1855 0.958 . S
H1870 C1855 0.961 . S
H1871 C1855 0.960 . S
C1872 C1873 1.391 . S
C1872 C1874 1.394 . S
C1872 H1888 0.931 . S
C1873 C1872 1.391 . S
C1873 C1877 1.376 . S
C1874 C1872 1.394 . S
C1874 C1875 1.369 . S
C1874 C1878 1.531 . S
C1875 C1874 1.369 . S
C1875 C1876 1.410 . S
C1875 C1883 1.503 . S
C1876 C1875 1.410 . S
C1876 C1877 1.392 . S
C1876 C1879 1.511 . S
C1877 C1873 1.376 . S
C1877 C1876 1.392 . S
C1877 H1889 0.929 . S
C1878 C1874 1.531 . S
C1878 H1890 0.960 . S
C1878 H1891 0.962 . S
C1878 H1892 0.960 . S
C1879 C1876 1.511 . S
C1879 H1893 0.961 . S
C1879 H1894 0.961 . S
C1879 H1895 0.961 . S
C1880 C1881 1.370 . S
C1880 C1882 1.363 . S
C1880 H1896 0.931 . S
C1881 C1880 1.370 . S
C1881 C1885 1.408 . S
C1882 C1880 1.363 . S
C1882 C1883 1.370 . S
C1882 C1886 1.524 . S
C1883 C1875 1.503 . S
C1883 C1882 1.370 . S
C1883 C1884 1.403 . S
C1884 C1883 1.403 . S
C1884 C1885 1.404 . S
C1884 C1887 1.539 . S
C1885 C1881 1.408 . S
C1885 C1884 1.404 . S
C1885 H1897 0.930 . S
C1886 C1882 1.524 . S
C1886 H1898 0.956 . S
C1886 H1899 0.961 . S
C1886 H1900 0.961 . S
C1887 C1884 1.539 . S
C1887 H1901 0.958 . S
C1887 H1902 0.961 . S
C1887 H1903 0.960 . S
H1888 C1872 0.931 . S
H1889 C1877 0.929 . S
H1890 C1878 0.960 . S
H1891 C1878 0.962 . S
H1892 C1878 0.960 . S
H1893 C1879 0.961 . S
H1894 C1879 0.961 . S
H1895 C1879 0.961 . S
H1896 C1880 0.931 . S
H1897 C1885 0.930 . S
H1898 C1886 0.956 . S
H1899 C1886 0.961 . S
H1900 C1886 0.961 . S
H1901 C1887 0.958 . S
H1902 C1887 0.961 . S
H1903 C1887 0.960 . S
C369 C16 1.097 . S
C377 C131 1.078 . S
C401 C39 1.112 . S
C409 C154 1.072 . S
C433 C177 1.098 . S
C441 C62 1.076 . S
C465 C109 1.069 . S
C473 C85 1.076 . S
C497 C315 1.079 . S
C505 C200 1.085 . S
C529 C223 1.062 . S
C537 C338 1.093 . S
C561 C361 1.105 . S
C569 C246 1.068 . S
C593 C293 1.074 . S
C601 C269 1.074 . S
C625 C19 1.555 1_565 S
C633 C44 1.527 1_554 S
C657 C67 1.519 1_556 S
C665 C42 1.561 1_655 S
C689 C90 1.524 1_554 S
C697 C65 1.581 1_545 S
C721 C88 1.541 1_455 S
C729 C21 1.542 1_556 S
C753 C110 1.557 1_565 S
C761 C182 1.519 . S
C785 C112 1.542 . S
C793 C134 1.535 1_655 S
C817 C136 1.497 . S
C825 C157 1.559 1_545 S
C849 C159 1.545 . S
C857 C180 1.552 1_455 S
C881 C203 1.573 . S
C889 C228 1.526 . S
C913 C251 1.546 . S
C921 C226 1.555 . S
C945 C249 1.557 . S
C953 C274 1.559 . S
C977 C272 1.568 . S
C985 C205 1.537 . S
C1009 C366 1.513 1_554 S
C1017 C294 1.568 . S
C1041 C296 1.543 1_556 S
C1049 C318 1.524 . S
C1073 C320 1.507 1_554 S
C1081 C341 1.559 . S
C1105 C364 1.538 . S
C1113 C343 1.537 1_556 S
C1137 C156 1.442 . S
C1145 C17 1.466 . S
C1169 C179 1.444 . S
C1177 C40 1.445 . S
C1201 C63 1.463 . S
C1209 C111 1.436 . S
C1233 C86 1.439 . S
C1241 C133 1.445 . S
C1265 C64 1.478 . S
C1273 C108 1.494 . S
C1297 C132 1.440 . S
C1305 C87 1.463 . S
C1329 C155 1.471 . S
C1337 C18 1.451 . S
C1361 C41 1.437 . S
C1369 C178 1.457 . S
C1393 C201 1.448 . S
C1401 C340 1.446 . S
C1425 C224 1.460 . S
C1433 C363 1.459 . S
C1457 C295 1.434 . S
C1465 C247 1.466 . S
C1489 C270 1.444 . S
C1497 C317 1.445 . S
C1521 C292 1.516 . S
C1529 C248 1.501 . S
C1553 C316 1.480 . S
C1561 C271 1.459 . S
C1585 C339 1.451 . S
C1593 C202 1.462 . S
C1617 C225 1.437 . S
C1625 C362 1.457 . S
C1649 C365 1.246 . S
C1657 C20 1.258 . S
C1681 C297 1.289 . S
C1689 C43 1.283 . S
C1713 C66 1.262 . S
C1721 C319 1.259 . S
C1745 C342 1.246 . S
C1753 C89 1.246 . S
C1777 C113 1.261 . S
C1785 C227 1.270 . S
C1809 C135 1.230 . S
C1817 C250 1.245 . S
C1841 C273 1.219 . S
C1849 C158 1.230 . S
C1873 C181 1.248 . S
C1881 C204 1.259 . S
