# Generated by pormake.
# Topology atn, (4)-cn, num edge types: 1
# Building blocks:
#     Node 0, Type 0, BuildingBlock: ICAMEG_clean_sbu_1, # of connection points: 4
#     Node 1, Type 0, BuildingBlock: ICAMEG_clean_sbu_1, # of connection points: 4
#     Node 2, Type 0, BuildingBlock: ICAMEG_clean_sbu_1, # of connection points: 4
#     Node 3, Type 0, BuildingBlock: ICAMEG_clean_sbu_1, # of connection points: 4
#     Node 4, Type 0, BuildingBlock: ICAMEG_clean_sbu_1, # of connection points: 4
#     Node 5, Type 0, BuildingBlock: ICAMEG_clean_sbu_1, # of connection points: 4
#     Node 6, Type 0, BuildingBlock: ICAMEG_clean_sbu_1, # of connection points: 4
#     Node 7, Type 0, BuildingBlock: ICAMEG_clean_sbu_1, # of connection points: 4
#     Node 8, Type 0, BuildingBlock: ICAMEG_clean_sbu_1, # of connection points: 4
#     Node 9, Type 0, BuildingBlock: ICAMEG_clean_sbu_1, # of connection points: 4
#     Node 10, Type 0, BuildingBlock: ICAMEG_clean_sbu_1, # of connection points: 4
#     Node 11, Type 0, BuildingBlock: ICAMEG_clean_sbu_1, # of connection points: 4
#     Node 12, Type 0, BuildingBlock: ICAMEG_clean_sbu_1, # of connection points: 4
#     Node 13, Type 0, BuildingBlock: ICAMEG_clean_sbu_1, # of connection points: 4
#     Node 14, Type 0, BuildingBlock: ICAMEG_clean_sbu_1, # of connection points: 4
#     Node 15, Type 0, BuildingBlock: ICAMEG_clean_sbu_1, # of connection points: 4
#     Edge 16, Type (0, 0), BuildingBlock: KIFKEQ_clean_linker_1, # of connection points: 2
#     Edge 17, Type (0, 0), BuildingBlock: KIFKEQ_clean_linker_1, # of connection points: 2
#     Edge 18, Type (0, 0), BuildingBlock: KIFKEQ_clean_linker_1, # of connection points: 2
#     Edge 19, Type (0, 0), BuildingBlock: KIFKEQ_clean_linker_1, # of connection points: 2
#     Edge 20, Type (0, 0), BuildingBlock: KIFKEQ_clean_linker_1, # of connection points: 2
#     Edge 21, Type (0, 0), BuildingBlock: KIFKEQ_clean_linker_1, # of connection points: 2
#     Edge 22, Type (0, 0), BuildingBlock: KIFKEQ_clean_linker_1, # of connection points: 2
#     Edge 23, Type (0, 0), BuildingBlock: KIFKEQ_clean_linker_1, # of connection points: 2
#     Edge 24, Type (0, 0), BuildingBlock: KIFKEQ_clean_linker_1, # of connection points: 2
#     Edge 25, Type (0, 0), BuildingBlock: KIFKEQ_clean_linker_1, # of connection points: 2
#     Edge 26, Type (0, 0), BuildingBlock: KIFKEQ_clean_linker_1, # of connection points: 2
#     Edge 27, Type (0, 0), BuildingBlock: KIFKEQ_clean_linker_1, # of connection points: 2
#     Edge 28, Type (0, 0), BuildingBlock: KIFKEQ_clean_linker_1, # of connection points: 2
#     Edge 29, Type (0, 0), BuildingBlock: KIFKEQ_clean_linker_1, # of connection points: 2
#     Edge 30, Type (0, 0), BuildingBlock: KIFKEQ_clean_linker_1, # of connection points: 2
#     Edge 31, Type (0, 0), BuildingBlock: KIFKEQ_clean_linker_1, # of connection points: 2
#     Edge 32, Type (0, 0), BuildingBlock: KIFKEQ_clean_linker_1, # of connection points: 2
#     Edge 33, Type (0, 0), BuildingBlock: KIFKEQ_clean_linker_1, # of connection points: 2
#     Edge 34, Type (0, 0), BuildingBlock: KIFKEQ_clean_linker_1, # of connection points: 2
#     Edge 35, Type (0, 0), BuildingBlock: KIFKEQ_clean_linker_1, # of connection points: 2
#     Edge 36, Type (0, 0), BuildingBlock: KIFKEQ_clean_linker_1, # of connection points: 2
#     Edge 37, Type (0, 0), BuildingBlock: KIFKEQ_clean_linker_1, # of connection points: 2
#     Edge 38, Type (0, 0), BuildingBlock: KIFKEQ_clean_linker_1, # of connection points: 2
#     Edge 39, Type (0, 0), BuildingBlock: KIFKEQ_clean_linker_1, # of connection points: 2
#     Edge 40, Type (0, 0), BuildingBlock: KIFKEQ_clean_linker_1, # of connection points: 2
#     Edge 41, Type (0, 0), BuildingBlock: KIFKEQ_clean_linker_1, # of connection points: 2
#     Edge 42, Type (0, 0), BuildingBlock: KIFKEQ_clean_linker_1, # of connection points: 2
#     Edge 43, Type (0, 0), BuildingBlock: KIFKEQ_clean_linker_1, # of connection points: 2
#     Edge 44, Type (0, 0), BuildingBlock: KIFKEQ_clean_linker_1, # of connection points: 2
#     Edge 45, Type (0, 0), BuildingBlock: KIFKEQ_clean_linker_1, # of connection points: 2
#     Edge 46, Type (0, 0), BuildingBlock: KIFKEQ_clean_linker_1, # of connection points: 2
#     Edge 47, Type (0, 0), BuildingBlock: KIFKEQ_clean_linker_1, # of connection points: 2
# Relax obj value: 0.024
# Max RMSD: 0.061
# Mean RMSD: 0.061
data_MOF--net-atn--node1-ICAMEG_clean_sbu_1--edge1-KIFKEQ_clean_linker_1
_symmetry_space_group_name_H-M    P1
_symmetry_Int_Tables_number       1
_symmetry_cell_setting            triclinic
loop_
_symmetry_equiv_pos_as_xyz
'x, y, z'
_cell_length_a     62.371842
_cell_length_b     62.363336
_cell_length_c     30.583333
_cell_angle_alpha  90.001505
_cell_angle_beta   90.00548
_cell_angle_gamma 89.971037
loop_
_atom_site_label
_atom_site_type_symbol
_atom_site_fract_x
_atom_site_fract_y
_atom_site_fract_z
_atom_type_partial_charge
Co0 Co 0.18413 0.35725 0.00527 0.0
Co1 Co 0.22426 0.39016 0.04183 0.0
O2 O 0.20056 0.38391 1.00168 0.0
C3 C 0.19576 0.35889 0.91174 0.0
O4 O 0.21548 0.36339 0.92363 0.0
C5 C 0.19804 0.43042 0.03956 0.0
O6 O 0.18063 0.41867 0.04208 0.0
O7 O 0.20506 0.38542 0.0932 0.0
O8 O 0.18643 0.3568 0.07044 0.0
H9 H 0.27073 0.37754 0.17352 0.0
H10 H 0.16586 0.39371 0.95572 0.0
O11 O 0.18114 0.3567 0.94036 0.0
H12 H 0.11335 0.37832 0.07207 0.0
H13 H 0.12468 0.30664 0.96339 0.0
H14 H 0.18893 0.31677 0.05507 0.0
H15 H 0.14626 0.35667 0.06516 0.0
H16 H 0.14498 0.34055 0.9607 0.0
O17 O 0.21644 0.42153 0.04069 0.0
H18 H 0.24148 0.36953 0.12173 0.0
H19 H 0.25669 0.42521 0.04806 0.0
H20 H 0.169 0.28267 0.05908 0.0
H21 H 0.133 0.41561 0.96109 0.0
H22 H 0.13662 0.27745 0.013 0.0
H23 H 0.10652 0.408 0.01972 0.0
O24 O 0.21099 0.34038 1.00013 0.0
H25 H 0.24321 0.41986 0.89407 0.0
H26 H 0.26812 0.37517 0.01702 0.0
H27 H 0.29144 0.38002 0.95271 0.0
H28 H 0.27904 0.40255 0.89067 0.0
H29 H 0.22029 0.4144 0.9588 0.0
H30 H 0.28599 0.43392 0.09924 0.0
H31 H 0.29321 0.40995 0.16241 0.0
O32 O 0.23341 0.35905 0.04304 0.0
C33 C 0.19263 0.36955 0.10047 0.0
C34 C 0.26777 0.38808 0.14605 0.0
C35 C 0.27632 0.41974 0.10439 0.0
N36 N 0.24748 0.3968 0.08177 0.0
C37 C 0.25127 0.38359 0.11656 0.0
C38 C 0.25968 0.41475 0.07559 0.0
C39 C 0.28037 0.40628 0.13982 0.0
C40 C 0.1543 0.39017 0.98102 0.0
N41 N 0.15797 0.37393 0.01004 0.0
C42 C 0.13577 0.40268 0.98403 0.0
C43 C 0.12094 0.39843 0.01698 0.0
C44 C 0.12477 0.3818 0.0464 0.0
C45 C 0.14349 0.36965 0.04243 0.0
C46 C 0.13874 0.30874 0.9837 0.0
C47 C 0.17478 0.31466 0.03512 0.0
C48 C 0.15032 0.32789 0.98225 0.0
N49 N 0.16803 0.33069 0.00797 0.0
C50 C 0.1636 0.2953 0.03744 0.0
C51 C 0.14544 0.29237 0.01155 0.0
C52 C 0.22868 0.34243 0.02053 0.0
C53 C 0.24882 0.41007 0.92095 0.0
C54 C 0.26256 0.38494 0.99011 0.0
C55 C 0.27586 0.38767 0.95382 0.0
C56 C 0.2689 0.40032 0.91904 0.0
N57 N 0.24288 0.39457 0.99178 0.0
C58 C 0.23594 0.40699 0.95778 0.0
Co59 Co 0.66369 0.18265 0.00442 0.0
Co60 Co 0.62968 0.2228 0.03936 0.0
O61 O 0.6368 0.19889 1.00009 0.0
C62 C 0.66183 0.19534 0.91153 0.0
O63 O 0.65444 0.21409 0.92381 0.0
C64 C 0.58983 0.19557 0.03654 0.0
O65 O 0.60173 0.17822 0.03556 0.0
O66 O 0.63537 0.20446 0.09184 0.0
O67 O 0.66284 0.18399 0.06944 0.0
H68 H 0.64137 0.27133 0.16822 0.0
H69 H 0.62852 0.16488 0.95046 0.0
O70 O 0.66573 0.18077 0.93947 0.0
H71 H 0.64178 0.11081 0.06497 0.0
H72 H 0.71555 0.12423 0.96255 0.0
H73 H 0.70316 0.18686 0.0577 0.0
H74 H 0.66325 0.14397 0.06206 0.0
H75 H 0.68156 0.14437 0.95853 0.0
O76 O 0.59858 0.21398 0.0397 0.0
H77 H 0.65012 0.24174 0.11774 0.0
H78 H 0.59347 0.25409 0.04485 0.0
H79 H 0.73732 0.16709 0.06304 0.0
H80 H 0.60685 0.1318 0.95181 0.0
H81 H 0.74368 0.13552 0.01522 0.0
H82 H 0.61338 0.10453 0.0095 0.0
O83 O 0.68065 0.20953 1.00236 0.0
H84 H 0.59795 0.23868 0.89178 0.0
H85 H 0.64242 0.26699 0.01186 0.0
H86 H 0.63603 0.2893 0.94665 0.0
H87 H 0.61358 0.2752 0.88605 0.0
H88 H 0.60504 0.21678 0.95729 0.0
H89 H 0.58402 0.28368 0.09475 0.0
H90 H 0.60811 0.29253 0.15686 0.0
O91 O 0.66032 0.23311 0.03911 0.0
C92 C 0.65058 0.19123 0.09931 0.0
C93 C 0.63078 0.26767 0.14121 0.0
C94 C 0.59858 0.27458 0.10001 0.0
N95 N 0.6224 0.24627 0.07826 0.0
C96 C 0.63567 0.25096 0.11247 0.0
C97 C 0.60398 0.25776 0.07194 0.0
C98 C 0.6121 0.27954 0.13484 0.0
C99 C 0.6316 0.15297 0.97536 0.0
N100 N 0.64714 0.15634 0.00608 0.0
C101 C 0.61921 0.13432 0.97609 0.0
C102 C 0.62286 0.11905 0.00852 0.0
C103 C 0.63878 0.12258 0.03969 0.0
C104 C 0.65082 0.14143 0.03798 0.0
C105 C 0.71294 0.13792 0.98366 0.0
C106 C 0.70575 0.17305 0.03701 0.0
C107 C 0.69374 0.1494 0.9815 0.0
N108 N 0.69029 0.16664 0.0082 0.0
C109 C 0.72515 0.16196 0.04008 0.0
C110 C 0.72872 0.14426 0.01322 0.0
C111 C 0.67785 0.22773 0.0204 0.0
C112 C 0.60772 0.24503 0.918 0.0
C113 C 0.63281 0.26065 0.98551 0.0
C114 C 0.62915 0.27341 0.94873 0.0
C115 C 0.61653 0.2655 0.91477 0.0
N116 N 0.62414 0.24057 0.98844 0.0
C117 C 0.61171 0.23273 0.9553 0.0
Co118 Co 0.83643 0.66242 1.00235 0.0
Co119 Co 0.79589 0.62925 0.03894 0.0
O120 O 0.81956 0.63595 0.99875 0.0
C121 C 0.82271 0.66115 0.90958 0.0
O122 O 0.80402 0.6537 0.92206 0.0
C123 C 0.823 0.58942 0.03708 0.0
O124 O 0.84027 0.60143 0.03803 0.0
O125 O 0.8145 0.63486 0.0909 0.0
O126 O 0.83617 0.66127 0.0677 0.0
H127 H 0.74826 0.64162 0.16898 0.0
H128 H 0.85196 0.62642 0.94797 0.0
O129 O 0.83748 0.66472 0.93728 0.0
H130 H 0.9093 0.63926 0.05583 0.0
H131 H 0.89493 0.71352 0.9573 0.0
H132 H 0.834 0.70152 0.05706 0.0
H133 H 0.87673 0.66168 0.05533 0.0
H134 H 0.87417 0.67991 0.95393 0.0
O135 O 0.80449 0.59807 0.03898 0.0
H136 H 0.77756 0.65005 0.11764 0.0
H137 H 0.76438 0.59336 0.04553 0.0
H138 H 0.85446 0.73529 0.06183 0.0
H139 H 0.8844 0.60376 0.9468 0.0
H140 H 0.88517 0.74145 0.01167 0.0
H141 H 0.9133 0.61006 1.00117 0.0
O142 O 0.80977 0.67991 1.00175 0.0
H143 H 0.77814 0.59728 0.89245 0.0
H144 H 0.75195 0.64318 0.01241 0.0
H145 H 0.72897 0.63701 0.94806 0.0
H146 H 0.742 0.61386 0.88755 0.0
H147 H 0.80073 0.6041 0.95712 0.0
H148 H 0.73505 0.58423 0.09628 0.0
H149 H 0.72677 0.60848 0.15846 0.0
O150 O 0.78603 0.65997 0.03906 0.0
C151 C 0.82845 0.64946 0.0979 0.0
C152 C 0.75167 0.63094 0.14196 0.0
C153 C 0.74428 0.59872 0.10119 0.0
N154 N 0.77262 0.62227 0.07852 0.0
C155 C 0.76821 0.63566 0.11273 0.0
C156 C 0.76095 0.60394 0.07263 0.0
C157 C 0.73964 0.61234 0.13606 0.0
C158 C 0.86455 0.62935 0.97151 0.0
N159 N 0.86239 0.64526 1.00191 0.0
C160 C 0.88284 0.61643 0.97078 0.0
C161 C 0.89904 0.61995 1.00134 0.0
C162 C 0.89678 0.6363 0.03207 0.0
C163 C 0.87824 0.64886 0.03185 0.0
C164 C 0.88162 0.711 0.9794 0.0
C165 C 0.84744 0.70403 0.03536 0.0
C166 C 0.86978 0.69202 0.9776 0.0
N167 N 0.85301 0.68869 0.00556 0.0
C168 C 0.85892 0.7232 0.03811 0.0
C169 C 0.87613 0.72666 0.00993 0.0
C170 C 0.79158 0.67732 0.01995 0.0
C171 C 0.77225 0.60734 0.91867 0.0
C172 C 0.75781 0.63318 0.98613 0.0
C173 C 0.74468 0.62969 0.94982 0.0
C174 C 0.752 0.61668 0.9159 0.0
N175 N 0.77766 0.62394 0.98864 0.0
C176 C 0.78493 0.61117 0.95549 0.0
Co177 Co 0.3561 0.83755 0.00353 0.0
Co178 Co 0.38993 0.79734 0.03836 0.0
O179 O 0.38285 0.82119 0.99909 0.0
C180 C 0.35634 0.82442 0.91087 0.0
O181 O 0.36126 0.80497 0.92386 0.0
C182 C 0.42987 0.82441 0.03545 0.0
O183 O 0.41802 0.84181 0.03527 0.0
O184 O 0.38445 0.81578 0.09084 0.0
O185 O 0.35687 0.83614 0.06852 0.0
H186 H 0.37843 0.74901 0.16761 0.0
H187 H 0.39144 0.85519 0.94976 0.0
O188 O 0.35437 0.8395 0.93856 0.0
H189 H 0.37835 0.90921 0.06445 0.0
H190 H 0.30472 0.89638 0.96165 0.0
H191 H 0.31651 0.83353 0.05652 0.0
H192 H 0.35672 0.87617 0.06133 0.0
H193 H 0.33858 0.87603 0.95781 0.0
O194 O 0.42107 0.80601 0.03818 0.0
H195 H 0.36965 0.77858 0.11708 0.0
H196 H 0.42601 0.76591 0.04354 0.0
H197 H 0.28247 0.85352 0.06168 0.0
H198 H 0.41327 0.88816 0.95133 0.0
H199 H 0.27641 0.8852 0.01401 0.0
H200 H 0.40682 0.91541 0.0091 0.0
O201 O 0.33895 0.81073 1.0016 0.0
H202 H 0.42021 0.7816 0.8895 0.0
H203 H 0.37724 0.75303 0.01154 0.0
H204 H 0.383 0.73077 0.946 0.0
H205 H 0.40468 0.74502 0.88438 0.0
H206 H 0.41382 0.80342 0.95545 0.0
H207 H 0.4355 0.73634 0.09348 0.0
H208 H 0.41157 0.72767 0.15594 0.0
O209 O 0.35926 0.78719 0.03853 0.0
C210 C 0.36918 0.82896 0.09835 0.0
C211 C 0.38896 0.7526 0.14045 0.0
C212 C 0.421 0.74551 0.09888 0.0
N213 N 0.39723 0.77388 0.07728 0.0
C214 C 0.38404 0.76929 0.11168 0.0
C215 C 0.41558 0.76231 0.07079 0.0
C216 C 0.40757 0.74064 0.13391 0.0
C217 C 0.3884 0.86708 0.97472 0.0
N218 N 0.37281 0.86376 0.00536 0.0
C219 C 0.40087 0.88567 0.97556 0.0
C220 C 0.39727 0.90093 0.00804 0.0
C221 C 0.38132 0.89745 0.03913 0.0
C222 C 0.36918 0.87866 0.03731 0.0
C223 C 0.30719 0.88264 0.98267 0.0
C224 C 0.31404 0.84738 0.03587 0.0
C225 C 0.32632 0.87103 0.9806 0.0
N226 N 0.32959 0.85373 0.0072 0.0
C227 C 0.29471 0.8586 0.03885 0.0
C228 C 0.29131 0.87636 0.01206 0.0
C229 C 0.34172 0.79257 0.01984 0.0
C230 C 0.41077 0.7752 0.91615 0.0
C231 C 0.38656 0.75941 0.9848 0.0
C232 C 0.38984 0.74669 0.94781 0.0
C233 C 0.40202 0.75469 0.91328 0.0
N234 N 0.39518 0.77952 0.98739 0.0
C235 C 0.40716 0.78745 0.95367 0.0
Co236 Co 0.18272 0.66355 1.00288 0.0
Co237 Co 0.22305 0.62989 0.96812 0.0
O238 O 0.19918 0.63687 0.00739 0.0
C239 C 0.19563 0.66326 0.09569 0.0
O240 O 0.21515 0.65844 0.0829 0.0
C241 C 0.19622 0.58983 0.97126 0.0
O242 O 0.17877 0.6016 0.97146 0.0
O243 O 0.20455 0.63522 0.91568 0.0
O244 O 0.18423 0.66285 0.93789 0.0
H245 H 0.27125 0.6416 0.83875 0.0
H246 H 0.1651 0.62811 0.05642 0.0
O247 O 0.18063 0.66522 0.06784 0.0
H248 H 0.11126 0.64108 0.94133 0.0
H249 H 0.12361 0.71467 0.04445 0.0
H250 H 0.18669 0.70322 0.95008 0.0
H251 H 0.14421 0.66283 0.94478 0.0
H252 H 0.14409 0.68088 0.04835 0.0
O253 O 0.21457 0.59871 0.96842 0.0
H254 H 0.24166 0.65024 0.88931 0.0
H255 H 0.25469 0.59398 0.96297 0.0
H256 H 0.16658 0.73719 0.94487 0.0
H257 H 0.13222 0.60617 0.05454 0.0
H258 H 0.13478 0.74308 0.99229 0.0
H259 H 0.10506 0.61255 0.99656 0.0
O260 O 0.20947 0.68079 0.00508 0.0
H261 H 0.23905 0.59981 0.11704 0.0
H262 H 0.2673 0.64286 0.9948 0.0
H263 H 0.28963 0.63727 0.0603 0.0
H264 H 0.27554 0.61555 0.12201 0.0
H265 H 0.21716 0.60604 0.05112 0.0
H266 H 0.28428 0.58464 0.91301 0.0
H267 H 0.29279 0.60858 0.85047 0.0
O268 O 0.23303 0.66064 0.96783 0.0
C269 C 0.19138 0.65049 0.90811 0.0
C270 C 0.26773 0.63107 0.86595 0.0
C271 C 0.27503 0.59908 0.90759 0.0
N272 N 0.24653 0.62271 0.92918 0.0
C273 C 0.25104 0.6359 0.89474 0.0
C274 C 0.25821 0.60443 0.93569 0.0
C275 C 0.2798 0.61253 0.87252 0.0
C276 C 0.15325 0.63113 0.03139 0.0
N277 N 0.15657 0.64674 1.0008 0.0
C278 C 0.13471 0.61859 0.03036 0.0
C279 C 0.1195 0.62215 0.99777 0.0
C280 C 0.12298 0.63814 0.96673 0.0
C281 C 0.14172 0.65034 0.96875 0.0
C282 C 0.1374 0.71228 0.02354 0.0
C283 C 0.17279 0.70561 0.97062 0.0
C284 C 0.14908 0.69319 0.02565 0.0
N285 N 0.16645 0.69001 0.99918 0.0
C286 C 0.1615 0.7249 0.96761 0.0
C287 C 0.14368 0.72821 0.99426 0.0
C288 C 0.22762 0.67812 0.98671 0.0
C289 C 0.24538 0.60927 0.09034 0.0
C290 C 0.26099 0.63353 0.02159 0.0
C291 C 0.27374 0.63034 0.05855 0.0
C292 C 0.26584 0.61814 0.09314 0.0
N293 N 0.24093 0.6248 0.01907 0.0
C294 C 0.23309 0.61279 0.05284 0.0
Co295 Co 0.35699 0.18326 0.00349 0.0
Co296 Co 0.39007 0.22321 0.96682 0.0
O297 O 0.38373 0.19954 0.00703 0.0
C298 C 0.35868 0.19491 0.097 0.0
O299 O 0.36331 0.2146 0.08507 0.0
C300 C 0.43032 0.19689 0.96932 0.0
O301 O 0.41857 0.17947 0.96709 0.0
O302 O 0.38525 0.20399 0.91549 0.0
O303 O 0.35652 0.18556 0.93832 0.0
H304 H 0.37764 0.26964 0.83501 0.0
H305 H 0.39335 0.16477 0.053 0.0
O306 O 0.35644 0.18028 0.06841 0.0
H307 H 0.37759 0.11233 0.9367 0.0
H308 H 0.30606 0.1241 0.04546 0.0
H309 H 0.31652 0.18829 0.95374 0.0
H310 H 0.35616 0.14538 0.9436 0.0
H311 H 0.34007 0.14421 0.0481 0.0
O312 O 0.42142 0.2153 0.96796 0.0
H313 H 0.36952 0.24045 0.88687 0.0
H314 H 0.42523 0.25553 0.96056 0.0
H315 H 0.28231 0.16855 0.94978 0.0
H316 H 0.41502 0.13177 0.04763 0.0
H317 H 0.27691 0.1362 0.99588 0.0
H318 H 0.40723 0.10532 0.98903 0.0
O319 O 0.34027 0.21022 0.00866 0.0
H320 H 0.41985 0.2421 0.11458 0.0
H321 H 0.37527 0.26715 0.99156 0.0
H322 H 0.3802 0.29047 0.05585 0.0
H323 H 0.40267 0.278 0.11791 0.0
H324 H 0.4143 0.21917 0.04987 0.0
H325 H 0.43405 0.28477 0.90932 0.0
H326 H 0.41012 0.29203 0.8461 0.0
O327 O 0.35902 0.23249 0.96559 0.0
C328 C 0.36929 0.19167 0.90825 0.0
C329 C 0.38816 0.26667 0.8625 0.0
C330 C 0.41984 0.27514 0.90417 0.0
N331 N 0.3968 0.24638 0.92684 0.0
C332 C 0.38362 0.2502 0.89203 0.0
C333 C 0.41479 0.25853 0.93301 0.0
C334 C 0.4064 0.27921 0.86872 0.0
C335 C 0.38973 0.15323 0.0277 0.0
N336 N 0.3735 0.157 0.9987 0.0
C337 C 0.40212 0.13462 0.0247 0.0
C338 C 0.39776 0.1198 0.99176 0.0
C339 C 0.38115 0.12374 0.96235 0.0
C340 C 0.36912 0.14254 0.96632 0.0
C341 C 0.30823 0.13814 0.02514 0.0
C342 C 0.31433 0.17415 0.9737 0.0
C343 C 0.32744 0.14962 0.02656 0.0
N344 N 0.33033 0.1673 1.00083 0.0
C345 C 0.29491 0.16307 0.97141 0.0
C346 C 0.29189 0.14494 0.99731 0.0
C347 C 0.34239 0.22788 0.98819 0.0
C348 C 0.41008 0.24774 0.08768 0.0
C349 C 0.38501 0.26155 0.01848 0.0
C350 C 0.38779 0.27486 0.05476 0.0
C351 C 0.40041 0.26787 0.08956 0.0
N352 N 0.39457 0.24183 0.01685 0.0
C353 C 0.40695 0.23486 0.05086 0.0
Co354 Co 0.83765 0.35624 1.00337 0.0
Co355 Co 0.79689 0.39019 0.96924 0.0
O356 O 0.82086 0.3828 0.00821 0.0
C357 C 0.82299 0.35631 0.09555 0.0
O358 O 0.80457 0.36425 0.0826 0.0
C359 C 0.82464 0.42977 0.97148 0.0
O360 O 0.84188 0.41774 0.97356 0.0
O361 O 0.8146 0.38384 0.9161 0.0
O362 O 0.83797 0.35867 0.93836 0.0
H363 H 0.74711 0.37852 0.84235 0.0
H364 H 0.85277 0.39099 0.06158 0.0
O365 O 0.83797 0.35275 0.06831 0.0
H366 H 0.91095 0.38036 0.95459 0.0
H367 H 0.8957 0.30428 0.04698 0.0
H368 H 0.83588 0.31822 0.94542 0.0
H369 H 0.87832 0.3581 0.95183 0.0
H370 H 0.87484 0.3378 0.05209 0.0
O371 O 0.80619 0.42115 0.96788 0.0
H372 H 0.77692 0.36955 0.89212 0.0
H373 H 0.7662 0.4269 0.9638 0.0
H374 H 0.85645 0.28457 0.9389 0.0
H375 H 0.88526 0.41343 0.06602 0.0
H376 H 0.8866 0.27743 0.98995 0.0
H377 H 0.91459 0.40825 0.01211 0.0
O378 O 0.81106 0.33858 1.00118 0.0
H379 H 0.78268 0.42276 0.11679 0.0
H380 H 0.75274 0.3783 0.99833 0.0
H381 H 0.73102 0.38534 0.06411 0.0
H382 H 0.74595 0.40778 0.1239 0.0
H383 H 0.80395 0.41506 0.05072 0.0
H384 H 0.73639 0.43657 0.9146 0.0
H385 H 0.72662 0.41225 0.85345 0.0
O386 O 0.78622 0.35985 0.97057 0.0
C387 C 0.82934 0.37006 0.90856 0.0
C388 C 0.75118 0.38922 0.86893 0.0
C389 C 0.74519 0.42182 0.90944 0.0
N390 N 0.77324 0.39764 0.93092 0.0
C391 C 0.76802 0.38421 0.89727 0.0
C392 C 0.76213 0.41629 0.93711 0.0
C393 C 0.73971 0.40816 0.87515 0.0
C394 C 0.86554 0.38853 0.03824 0.0
N395 N 0.8636 0.37333 0.00631 0.0
C396 C 0.88387 0.40133 0.04081 0.0
C397 C 0.9003 0.39844 0.01051 0.0
C398 C 0.89825 0.38282 0.97818 0.0
C399 C 0.87968 0.37035 0.97658 0.0
C400 C 0.88263 0.30723 0.02448 0.0
C401 C 0.84908 0.31529 0.96754 0.0
C402 C 0.87074 0.32616 0.02727 0.0
N403 N 0.85427 0.33003 0.99882 0.0
C404 C 0.86062 0.29618 0.96379 0.0
C405 C 0.87752 0.29217 0.99247 0.0
C406 C 0.79232 0.34181 0.98591 0.0
C407 C 0.77597 0.41301 0.09092 0.0
C408 C 0.75942 0.38794 0.0243 0.0
C409 C 0.747 0.39195 0.06141 0.0
C410 C 0.75538 0.40456 0.09492 0.0
N411 N 0.7796 0.39628 0.02058 0.0
C412 C 0.78791 0.40868 0.0533 0.0
Co413 Co 0.6632 0.83591 0.00342 0.0
Co414 Co 0.62948 0.79639 0.96681 0.0
O415 O 0.63608 0.82012 0.00687 0.0
C416 C 0.65954 0.8251 0.09716 0.0
O417 O 0.65214 0.8062 0.086 0.0
C418 C 0.58947 0.82318 0.96919 0.0
O419 O 0.60135 0.84053 0.96801 0.0
O420 O 0.63469 0.81541 0.91541 0.0
O421 O 0.66366 0.83345 0.93826 0.0
H422 H 0.64164 0.74952 0.83554 0.0
H423 H 0.62719 0.85525 0.05257 0.0
O424 O 0.664 0.83905 0.06827 0.0
H425 H 0.64415 0.90711 0.9359 0.0
H426 H 0.71543 0.89401 0.04508 0.0
H427 H 0.70354 0.82993 0.95375 0.0
H428 H 0.66487 0.87363 0.94316 0.0
H429 H 0.68097 0.87467 0.04783 0.0
O430 O 0.59823 0.80472 0.96733 0.0
H431 H 0.65002 0.77869 0.88726 0.0
H432 H 0.5939 0.76452 0.9604 0.0
H433 H 0.73819 0.84889 0.9497 0.0
H434 H 0.60622 0.88869 0.04684 0.0
H435 H 0.7443 0.88118 0.99561 0.0
H436 H 0.61461 0.91485 0.98806 0.0
O437 O 0.67933 0.8087 0.00925 0.0
H438 H 0.59806 0.77784 0.11333 0.0
H439 H 0.64381 0.75242 0.99248 0.0
H440 H 0.638 0.72916 0.05654 0.0
H441 H 0.61491 0.74181 0.1175 0.0
H442 H 0.60456 0.80073 0.04897 0.0
H443 H 0.58482 0.73531 0.90929 0.0
H444 H 0.60883 0.7276 0.84641 0.0
O445 O 0.66044 0.78664 0.96604 0.0
C446 C 0.65083 0.82749 0.90818 0.0
C447 C 0.63109 0.75269 0.86288 0.0
C448 C 0.59918 0.74473 0.90424 0.0
N449 N 0.62255 0.77321 0.92696 0.0
C450 C 0.63578 0.76915 0.89233 0.0
C451 C 0.60438 0.76132 0.93301 0.0
C452 C 0.61266 0.74041 0.86898 0.0
C453 C 0.63106 0.86666 0.02718 0.0
N454 N 0.64723 0.86249 0.99828 0.0
C455 C 0.61908 0.88552 0.02398 0.0
C456 C 0.62377 0.90018 0.99094 0.0
C457 C 0.64033 0.89583 0.96163 0.0
C458 C 0.65195 0.87679 0.9658 0.0
C459 C 0.71294 0.87999 0.02482 0.0
C460 C 0.70604 0.84406 0.97359 0.0
C461 C 0.69347 0.86896 0.02628 0.0
N462 N 0.69018 0.85131 1.00064 0.0
C463 C 0.7257 0.85469 0.97126 0.0
C464 C 0.72913 0.87279 0.99706 0.0
C465 C 0.67705 0.79106 0.98884 0.0
C466 C 0.6081 0.77212 0.08693 0.0
C467 C 0.63386 0.75812 0.01898 0.0
C468 C 0.63056 0.74483 0.05511 0.0
C469 C 0.61759 0.75193 0.08928 0.0
N470 N 0.6245 0.77792 0.0169 0.0
C471 C 0.61175 0.78497 0.05027 0.0
Co472 Co 0.68385 0.85688 0.50444 0.0
Co473 Co 0.72398 0.88994 0.54087 0.0
O474 O 0.70013 0.8837 0.50093 0.0
C475 C 0.6948 0.86023 0.41074 0.0
O476 O 0.71384 0.86727 0.42196 0.0
C477 C 0.6976 0.93016 0.53918 0.0
O478 O 0.68021 0.91837 0.5412 0.0
O479 O 0.70501 0.88495 0.59244 0.0
O480 O 0.68627 0.85643 0.56959 0.0
H481 H 0.77097 0.87704 0.67167 0.0
H482 H 0.66526 0.89322 0.45513 0.0
O483 O 0.68074 0.85608 0.43958 0.0
H484 H 0.61303 0.87743 0.57178 0.0
H485 H 0.62477 0.80575 0.4629 0.0
H486 H 0.68903 0.81646 0.55427 0.0
H487 H 0.64607 0.85599 0.5646 0.0
H488 H 0.64479 0.83982 0.46001 0.0
O489 O 0.71602 0.92129 0.54043 0.0
H490 H 0.74158 0.86909 0.62018 0.0
H491 H 0.75629 0.92513 0.5472 0.0
H492 H 0.66938 0.7822 0.55845 0.0
H493 H 0.63228 0.91492 0.46079 0.0
H494 H 0.637 0.77668 0.51253 0.0
H495 H 0.60594 0.90711 0.51957 0.0
O496 O 0.71076 0.84024 0.49876 0.0
H497 H 0.74271 0.9212 0.39428 0.0
H498 H 0.7677 0.87503 0.51487 0.0
H499 H 0.79092 0.88055 0.45065 0.0
H500 H 0.7785 0.90384 0.38983 0.0
H501 H 0.71985 0.91498 0.4588 0.0
H502 H 0.78573 0.93377 0.59807 0.0
H503 H 0.79328 0.90958 0.66075 0.0
O504 O 0.73331 0.85885 0.54147 0.0
C505 C 0.69258 0.86908 0.59968 0.0
C506 C 0.76788 0.88767 0.64441 0.0
C507 C 0.77614 0.91952 0.60314 0.0
N508 N 0.74732 0.89655 0.58058 0.0
C509 C 0.75129 0.88322 0.6151 0.0
C510 C 0.75941 0.91457 0.5745 0.0
C511 C 0.78038 0.90594 0.63829 0.0
C512 C 0.65376 0.8896 0.4805 0.0
N513 N 0.65758 0.87336 0.50944 0.0
C514 C 0.63516 0.90199 0.48367 0.0
C515 C 0.62041 0.89763 0.51671 0.0
C516 C 0.62439 0.88099 0.54605 0.0
C517 C 0.64318 0.86896 0.54192 0.0
C518 C 0.63882 0.80799 0.48316 0.0
C519 C 0.67487 0.81423 0.53441 0.0
C520 C 0.65024 0.82723 0.48163 0.0
N521 N 0.66794 0.8302 0.50728 0.0
C522 C 0.66385 0.79478 0.53682 0.0
C523 C 0.64569 0.79168 0.51101 0.0
C524 C 0.7285 0.84226 0.5189 0.0
C525 C 0.74833 0.91107 0.42063 0.0
C526 C 0.76209 0.88507 0.48843 0.0
C527 C 0.77536 0.8882 0.45221 0.0
C528 C 0.76839 0.90129 0.41812 0.0
N529 N 0.74243 0.89471 0.49067 0.0
C530 C 0.7355 0.90757 0.45737 0.0
Co531 Co 0.16277 0.68228 0.50407 0.0
Co532 Co 0.12902 0.72255 0.53889 0.0
O533 O 0.13605 0.69868 0.49964 0.0
C534 C 0.16247 0.69534 0.41137 0.0
O535 O 0.15759 0.71481 0.42433 0.0
C536 C 0.0891 0.6955 0.53621 0.0
O537 O 0.10096 0.67811 0.53635 0.0
O538 O 0.13451 0.70412 0.59139 0.0
O539 O 0.16205 0.68373 0.56905 0.0
H540 H 0.14067 0.77091 0.66805 0.0
H541 H 0.12734 0.66468 0.45047 0.0
O542 O 0.16444 0.68027 0.4391 0.0
H543 H 0.1404 0.61071 0.56529 0.0
H544 H 0.21399 0.6233 0.46223 0.0
H545 H 0.20241 0.68626 0.55693 0.0
H546 H 0.16212 0.64369 0.56197 0.0
H547 H 0.18017 0.64373 0.45841 0.0
O548 O 0.09788 0.71391 0.53874 0.0
H549 H 0.14938 0.74131 0.61754 0.0
H550 H 0.09298 0.75402 0.54412 0.0
H551 H 0.23641 0.66619 0.56207 0.0
H552 H 0.10542 0.63177 0.45224 0.0
H553 H 0.24237 0.63446 0.51448 0.0
H554 H 0.11185 0.60455 0.51008 0.0
O555 O 0.17996 0.70907 0.50202 0.0
H556 H 0.09869 0.7383 0.39008 0.0
H557 H 0.14176 0.76683 0.51202 0.0
H558 H 0.136 0.78909 0.44648 0.0
H559 H 0.11427 0.77486 0.38492 0.0
H560 H 0.10509 0.71649 0.45603 0.0
H561 H 0.08356 0.78363 0.59404 0.0
H562 H 0.10755 0.79229 0.65643 0.0
O563 O 0.15972 0.73266 0.53899 0.0
C564 C 0.14977 0.69093 0.5989 0.0
C565 C 0.13012 0.76733 0.64092 0.0
C566 C 0.09805 0.77444 0.59942 0.0
N567 N 0.12178 0.74603 0.5778 0.0
C568 C 0.135 0.75062 0.61216 0.0
C569 C 0.10344 0.75762 0.57134 0.0
C570 C 0.11152 0.7793 0.6344 0.0
C571 C 0.13038 0.6528 0.47545 0.0
N572 N 0.146 0.6561 0.50602 0.0
C573 C 0.11785 0.63424 0.47641 0.0
C574 C 0.12144 0.619 0.50892 0.0
C575 C 0.13744 0.62246 0.53994 0.0
C576 C 0.14963 0.64121 0.538 0.0
C577 C 0.21157 0.63707 0.48322 0.0
C578 C 0.20483 0.67238 0.53632 0.0
C579 C 0.19246 0.64872 0.48115 0.0
N580 N 0.18925 0.66605 0.50771 0.0
C581 C 0.22414 0.66112 0.53929 0.0
C582 C 0.22748 0.64334 0.51255 0.0
C583 C 0.17723 0.72725 0.52023 0.0
C584 C 0.10815 0.7447 0.41671 0.0
C585 C 0.13243 0.76046 0.4853 0.0
C586 C 0.12914 0.77318 0.44831 0.0
C587 C 0.11693 0.76519 0.41381 0.0
N588 N 0.12378 0.74037 0.48792 0.0
C589 C 0.11177 0.73245 0.45423 0.0
Co590 Co 0.33547 0.16258 0.50471 0.0
Co591 Co 0.29542 0.12962 0.54133 0.0
O592 O 0.31909 0.1359 0.50111 0.0
C593 C 0.32386 0.16092 0.41114 0.0
O594 O 0.30414 0.15638 0.42299 0.0
C595 C 0.3216 0.08931 0.53876 0.0
O596 O 0.33904 0.10103 0.54105 0.0
O597 O 0.31467 0.13434 0.59264 0.0
O598 O 0.33316 0.16304 0.56988 0.0
H599 H 0.24907 0.14216 0.67321 0.0
H600 H 0.35383 0.12616 0.45517 0.0
O601 O 0.33847 0.16313 0.43979 0.0
H602 H 0.4063 0.14169 0.57154 0.0
H603 H 0.39482 0.21331 0.46283 0.0
H604 H 0.33058 0.20306 0.55447 0.0
H605 H 0.37334 0.16325 0.56463 0.0
H606 H 0.37459 0.17936 0.46016 0.0
O607 O 0.30322 0.09825 0.54011 0.0
H608 H 0.27827 0.15021 0.62134 0.0
H609 H 0.26297 0.09457 0.54757 0.0
H610 H 0.35044 0.23721 0.55847 0.0
H611 H 0.38674 0.10435 0.46055 0.0
H612 H 0.38281 0.24249 0.5124 0.0
H613 H 0.41321 0.11202 0.51919 0.0
O614 O 0.30858 0.1794 0.49953 0.0
H615 H 0.27635 0.09999 0.39355 0.0
H616 H 0.25153 0.14461 0.51668 0.0
H617 H 0.22816 0.13979 0.45243 0.0
H618 H 0.24052 0.1173 0.39031 0.0
H619 H 0.29933 0.10543 0.45823 0.0
H620 H 0.23373 0.08583 0.59882 0.0
H621 H 0.22657 0.10977 0.66209 0.0
O622 O 0.28626 0.16072 0.54264 0.0
C623 C 0.32704 0.15026 0.59991 0.0
C624 C 0.252 0.13164 0.6457 0.0
C625 C 0.2434 0.10001 0.60398 0.0
N626 N 0.27223 0.12296 0.58133 0.0
C627 C 0.26847 0.13614 0.61616 0.0
C628 C 0.26002 0.10501 0.57513 0.0
C629 C 0.23939 0.11345 0.63946 0.0
C630 C 0.36538 0.12972 0.48048 0.0
N631 N 0.36167 0.14596 0.5095 0.0
C632 C 0.38394 0.11727 0.48349 0.0
C633 C 0.39876 0.12156 0.51645 0.0
C634 C 0.39488 0.13818 0.54587 0.0
C635 C 0.37614 0.15028 0.5419 0.0
C636 C 0.38076 0.21118 0.48313 0.0
C637 C 0.34473 0.2052 0.53453 0.0
C638 C 0.36922 0.19201 0.48169 0.0
N639 N 0.35152 0.18918 0.5074 0.0
C640 C 0.35587 0.22459 0.53684 0.0
C641 C 0.37402 0.22755 0.51096 0.0
C642 C 0.29093 0.17734 0.52005 0.0
C643 C 0.27076 0.10977 0.42047 0.0
C644 C 0.25707 0.13486 0.48973 0.0
C645 C 0.24374 0.13215 0.45347 0.0
C646 C 0.25067 0.11951 0.41864 0.0
N647 N 0.27676 0.12523 0.49132 0.0
C648 C 0.28367 0.11283 0.45727 0.0
Co649 Co 0.85618 0.33787 0.50342 0.0
Co650 Co 0.8902 0.29713 0.53745 0.0
O651 O 0.88276 0.32112 0.49855 0.0
C652 C 0.85623 0.32316 0.41126 0.0
O653 O 0.86424 0.30477 0.42421 0.0
C654 C 0.92972 0.32496 0.53522 0.0
O655 O 0.91767 0.34217 0.53271 0.0
O656 O 0.88377 0.31477 0.59065 0.0
O657 O 0.85867 0.33824 0.56842 0.0
H658 H 0.87857 0.24716 0.66404 0.0
H659 H 0.89084 0.35301 0.44502 0.0
O660 O 0.85263 0.33814 0.43849 0.0
H661 H 0.88023 0.41126 0.55189 0.0
H662 H 0.80412 0.39584 0.45984 0.0
H663 H 0.81822 0.3361 0.56153 0.0
H664 H 0.85803 0.37858 0.55485 0.0
H665 H 0.83764 0.375 0.45465 0.0
O666 O 0.92113 0.30651 0.539 0.0
H667 H 0.86956 0.27701 0.6144 0.0
H668 H 0.927 0.26654 0.54288 0.0
H669 H 0.78456 0.35664 0.56812 0.0
H670 H 0.91321 0.38554 0.44037 0.0
H671 H 0.77734 0.38674 0.51701 0.0
H672 H 0.90804 0.41491 0.49423 0.0
O673 O 0.83855 0.31126 0.50574 0.0
H674 H 0.92291 0.28317 0.38993 0.0
H675 H 0.87846 0.25297 0.50811 0.0
H676 H 0.8856 0.23134 0.44225 0.0
H677 H 0.90804 0.2464 0.38261 0.0
H678 H 0.9151 0.30436 0.45608 0.0
H679 H 0.93671 0.2367 0.59195 0.0
H680 H 0.91237 0.22678 0.65296 0.0
O681 O 0.85991 0.28638 0.53597 0.0
C682 C 0.87003 0.32955 0.5982 0.0
C683 C 0.88929 0.2513 0.63752 0.0
C684 C 0.92193 0.24545 0.5971 0.0
N685 N 0.89769 0.27346 0.57569 0.0
C686 C 0.88425 0.26815 0.60926 0.0
C687 C 0.91638 0.26241 0.5695 0.0
C688 C 0.90826 0.23988 0.63131 0.0
C689 C 0.88838 0.3658 0.46834 0.0
N690 N 0.87323 0.36385 0.50035 0.0
C691 C 0.90115 0.38414 0.46564 0.0
C692 C 0.89826 0.4006 0.49591 0.0
C693 C 0.88269 0.39854 0.52832 0.0
C694 C 0.87025 0.37994 0.53004 0.0
C695 C 0.8071 0.38279 0.48236 0.0
C696 C 0.81525 0.34928 0.53938 0.0
C697 C 0.82604 0.3709 0.47954 0.0
N698 N 0.82996 0.35447 0.50802 0.0
C699 C 0.79614 0.3608 0.54317 0.0
C700 C 0.79209 0.37768 0.51445 0.0
C701 C 0.84183 0.29249 0.52084 0.0
C702 C 0.91316 0.2764 0.41575 0.0
C703 C 0.8881 0.2597 0.48221 0.0
C704 C 0.89217 0.24734 0.44505 0.0
C705 C 0.90478 0.25579 0.41162 0.0
N706 N 0.89638 0.27991 0.48605 0.0
C707 C 0.90877 0.28829 0.45341 0.0
Co708 Co 0.68285 0.16364 0.5037 0.0
Co709 Co 0.72298 0.12965 0.46871 0.0
O710 O 0.69911 0.13676 0.50807 0.0
C711 C 0.69554 0.16183 0.5966 0.0
O712 O 0.7143 0.15447 0.58433 0.0
C713 C 0.69588 0.08971 0.47197 0.0
O714 O 0.6785 0.10156 0.47302 0.0
O715 O 0.70455 0.13522 0.41632 0.0
O716 O 0.68418 0.16277 0.43868 0.0
H717 H 0.77128 0.14128 0.33948 0.0
H718 H 0.66509 0.12848 0.55771 0.0
O719 O 0.68097 0.1657 0.56865 0.0
H720 H 0.61102 0.14169 0.44318 0.0
H721 H 0.62442 0.2155 0.54552 0.0
H722 H 0.68704 0.20311 0.45038 0.0
H723 H 0.64417 0.16317 0.44606 0.0
H724 H 0.64456 0.18151 0.54957 0.0
O725 O 0.71425 0.09851 0.46862 0.0
H726 H 0.74174 0.15002 0.39008 0.0
H727 H 0.75437 0.09352 0.46327 0.0
H728 H 0.66726 0.23727 0.44503 0.0
H729 H 0.63202 0.1068 0.55639 0.0
H730 H 0.6357 0.24363 0.49283 0.0
H731 H 0.60474 0.11331 0.4987 0.0
O732 O 0.70971 0.18062 0.50574 0.0
H733 H 0.73918 0.09819 0.6164 0.0
H734 H 0.76716 0.14257 0.49587 0.0
H735 H 0.78959 0.13635 0.56099 0.0
H736 H 0.77565 0.11395 0.62181 0.0
H737 H 0.71716 0.10512 0.55097 0.0
H738 H 0.78391 0.08408 0.41326 0.0
H739 H 0.79259 0.1081 0.35094 0.0
O740 O 0.73321 0.16033 0.4687 0.0
C741 C 0.69136 0.15047 0.40883 0.0
C742 C 0.76769 0.13072 0.36658 0.0
C743 C 0.77476 0.0986 0.40795 0.0
N744 N 0.74641 0.12237 0.42972 0.0
C745 C 0.75101 0.13561 0.39539 0.0
C746 C 0.75796 0.104 0.43609 0.0
C747 C 0.77963 0.11208 0.373 0.0
C748 C 0.65319 0.13155 0.5328 0.0
N749 N 0.65655 0.14708 0.50206 0.0
C750 C 0.63454 0.11916 0.53209 0.0
C751 C 0.61926 0.12279 0.49966 0.0
C752 C 0.62279 0.1387 0.46847 0.0
C753 C 0.64164 0.15075 0.47016 0.0
C754 C 0.6381 0.21289 0.52442 0.0
C755 C 0.67323 0.2057 0.47106 0.0
C756 C 0.64958 0.19369 0.52659 0.0
N757 N 0.66682 0.19024 0.49989 0.0
C758 C 0.66213 0.2251 0.46799 0.0
C759 C 0.64444 0.22867 0.49485 0.0
C760 C 0.72786 0.17785 0.48749 0.0
C761 C 0.74546 0.10794 0.59007 0.0
C762 C 0.76089 0.13298 0.52232 0.0
C763 C 0.77372 0.12942 0.55904 0.0
C764 C 0.7659 0.11682 0.59313 0.0
N765 N 0.74084 0.12424 0.51955 0.0
C766 C 0.73309 0.11184 0.55283 0.0
Co767 Co 0.85681 0.6824 0.50275 0.0
Co768 Co 0.88973 0.72345 0.46719 0.0
O769 O 0.88308 0.69955 0.50686 0.0
C770 C 0.85751 0.69619 0.59548 0.0
O771 O 0.86485 0.71493 0.58307 0.0
C772 C 0.92963 0.69649 0.46879 0.0
O773 O 0.91769 0.67917 0.46794 0.0
O774 O 0.88418 0.70514 0.41474 0.0
O775 O 0.85835 0.68265 0.43744 0.0
H776 H 0.87715 0.77194 0.33852 0.0
H777 H 0.89274 0.66737 0.55789 0.0
O778 O 0.85417 0.68137 0.56777 0.0
H779 H 0.88099 0.60968 0.45029 0.0
H780 H 0.80613 0.62334 0.54673 0.0
H781 H 0.81803 0.68433 0.44702 0.0
H782 H 0.85819 0.64199 0.45018 0.0
H783 H 0.83944 0.64453 0.55094 0.0
O784 O 0.92093 0.71497 0.46693 0.0
H785 H 0.86884 0.74225 0.38902 0.0
H786 H 0.92552 0.75511 0.4614 0.0
H787 H 0.78457 0.66342 0.44139 0.0
H788 H 0.91576 0.6352 0.5597 0.0
H789 H 0.77845 0.63269 0.49151 0.0
H790 H 0.91002 0.60612 0.50545 0.0
O791 O 0.83898 0.70887 0.5029 0.0
H792 H 0.92153 0.74039 0.61423 0.0
H793 H 0.87564 0.76719 0.49482 0.0
H794 H 0.88166 0.78977 0.55981 0.0
H795 H 0.90481 0.77643 0.62005 0.0
H796 H 0.91485 0.7182 0.54894 0.0
H797 H 0.93453 0.78483 0.4115 0.0
H798 H 0.91021 0.79346 0.34961 0.0
O799 O 0.85899 0.73319 0.4673 0.0
C800 C 0.86997 0.69082 0.40745 0.0
C801 C 0.88785 0.76836 0.36541 0.0
C802 C 0.92007 0.77558 0.40633 0.0
N803 N 0.89663 0.747 0.42821 0.0
C804 C 0.88321 0.7516 0.39417 0.0
C805 C 0.91491 0.75869 0.43441 0.0
C806 C 0.90641 0.78042 0.37163 0.0
C807 C 0.89006 0.65471 0.53438 0.0
N808 N 0.87425 0.65663 0.50369 0.0
C809 C 0.90318 0.63656 0.53548 0.0
C810 C 0.89997 0.62027 0.50499 0.0
C811 C 0.88372 0.62228 0.47398 0.0
C812 C 0.87094 0.64068 0.47384 0.0
C813 C 0.80863 0.63666 0.52464 0.0
C814 C 0.81554 0.67087 0.46872 0.0
C815 C 0.82744 0.64875 0.52692 0.0
N816 N 0.83075 0.66553 0.49897 0.0
C817 C 0.79654 0.65914 0.46548 0.0
C818 C 0.79311 0.64191 0.49364 0.0
C819 C 0.84155 0.72727 0.48553 0.0
C820 C 0.91147 0.74641 0.58813 0.0
C821 C 0.88564 0.7612 0.52097 0.0
C822 C 0.88905 0.7741 0.55764 0.0
C823 C 0.90205 0.76662 0.59141 0.0
N824 N 0.89496 0.74141 0.51796 0.0
C825 C 0.90772 0.73396 0.55095 0.0
Co826 Co 0.33623 0.85622 0.50237 0.0
Co827 Co 0.29588 0.88987 0.46761 0.0
O828 O 0.31974 0.88289 0.50689 0.0
C829 C 0.32323 0.85644 0.59513 0.0
O830 O 0.30372 0.86125 0.58227 0.0
C831 C 0.32277 0.92988 0.47058 0.0
O832 O 0.34018 0.91807 0.47056 0.0
O833 O 0.31437 0.88453 0.41516 0.0
O834 O 0.33477 0.85697 0.43738 0.0
H835 H 0.24766 0.87818 0.33824 0.0
H836 H 0.35374 0.89166 0.55606 0.0
O837 O 0.33826 0.85451 0.56733 0.0
H838 H 0.40771 0.87883 0.44117 0.0
H839 H 0.39537 0.80514 0.54401 0.0
H840 H 0.33235 0.81659 0.44942 0.0
H841 H 0.37479 0.85703 0.44443 0.0
H842 H 0.37484 0.83891 0.54794 0.0
O843 O 0.30438 0.92105 0.46791 0.0
H844 H 0.27725 0.86952 0.38881 0.0
H845 H 0.26427 0.92581 0.46243 0.0
H846 H 0.35252 0.78265 0.44417 0.0
H847 H 0.38659 0.91366 0.55435 0.0
H848 H 0.38428 0.77676 0.4917 0.0
H849 H 0.41381 0.90736 0.49647 0.0
O850 O 0.30949 0.83895 0.50441 0.0
H851 H 0.2799 0.91997 0.61652 0.0
H852 H 0.25162 0.87693 0.49427 0.0
H853 H 0.2293 0.88254 0.55977 0.0
H854 H 0.2434 0.90425 0.62148 0.0
H855 H 0.30178 0.91372 0.5506 0.0
H856 H 0.23468 0.93517 0.41245 0.0
H857 H 0.22615 0.91122 0.34993 0.0
O858 O 0.28588 0.85913 0.46734 0.0
C859 C 0.32759 0.86931 0.40759 0.0
C860 C 0.25119 0.88872 0.36543 0.0
C861 C 0.24392 0.92072 0.40704 0.0
N862 N 0.2724 0.89707 0.42866 0.0
C863 C 0.26788 0.88387 0.39422 0.0
C864 C 0.26074 0.91536 0.43516 0.0
C865 C 0.23914 0.90727 0.37198 0.0
C866 C 0.36562 0.88867 0.53107 0.0
N867 N 0.36236 0.87307 0.50044 0.0
C868 C 0.38414 0.90125 0.53014 0.0
C869 C 0.39939 0.89773 0.49761 0.0
C870 C 0.39597 0.88174 0.46653 0.0
C871 C 0.37724 0.8695 0.46844 0.0
C872 C 0.38159 0.80754 0.52305 0.0
C873 C 0.34624 0.8142 0.47001 0.0
C874 C 0.36988 0.82661 0.52517 0.0
N875 N 0.35253 0.82979 0.49865 0.0
C876 C 0.35756 0.79493 0.46698 0.0
C877 C 0.37536 0.79163 0.49369 0.0
C878 C 0.29133 0.84163 0.48612 0.0
C879 C 0.27356 0.91051 0.58982 0.0
C880 C 0.25794 0.88626 0.52106 0.0
C881 C 0.24518 0.88946 0.55802 0.0
C882 C 0.2531 0.90166 0.59261 0.0
N883 N 0.278 0.89498 0.51855 0.0
C884 C 0.28585 0.90699 0.55232 0.0
Co885 Co 0.16275 0.3366 0.50404 0.0
Co886 Co 0.12951 0.29679 0.46742 0.0
O887 O 0.13595 0.32043 0.5076 0.0
C888 C 0.16102 0.32496 0.59754 0.0
O889 O 0.15633 0.30529 0.5856 0.0
C890 C 0.08935 0.32326 0.46974 0.0
O891 O 0.10116 0.34063 0.46729 0.0
O892 O 0.13439 0.31597 0.41608 0.0
O893 O 0.1632 0.3343 0.43888 0.0
H894 H 0.14171 0.25029 0.33562 0.0
H895 H 0.12645 0.35522 0.55353 0.0
O896 O 0.16333 0.33958 0.56896 0.0
H897 H 0.14243 0.40762 0.43728 0.0
H898 H 0.21393 0.39555 0.54602 0.0
H899 H 0.20319 0.33143 0.45427 0.0
H900 H 0.16373 0.37449 0.44418 0.0
H901 H 0.17983 0.37559 0.54865 0.0
O902 O 0.09819 0.30482 0.46859 0.0
H903 H 0.14996 0.27945 0.38745 0.0
H904 H 0.09423 0.26459 0.46123 0.0
H905 H 0.23748 0.35102 0.45031 0.0
H906 H 0.1049 0.3883 0.54816 0.0
H907 H 0.24302 0.38334 0.49644 0.0
H908 H 0.11279 0.41473 0.48959 0.0
O909 O 0.17937 0.30959 0.5092 0.0
H910 H 0.09969 0.27803 0.6152 0.0
H911 H 0.14415 0.2528 0.49219 0.0
H912 H 0.13915 0.22951 0.55649 0.0
H913 H 0.11674 0.24207 0.61856 0.0
H914 H 0.10531 0.30092 0.55047 0.0
H915 H 0.08527 0.23538 0.41001 0.0
H916 H 0.10915 0.22802 0.34676 0.0
O917 O 0.16053 0.28739 0.46615 0.0
C918 C 0.15039 0.32824 0.40883 0.0
C919 C 0.13121 0.2533 0.36312 0.0
C920 C 0.09952 0.24495 0.40484 0.0
N921 N 0.12267 0.27363 0.42746 0.0
C922 C 0.13583 0.26975 0.39263 0.0
C923 C 0.10464 0.26155 0.43367 0.0
C924 C 0.11293 0.24083 0.36937 0.0
C925 C 0.13011 0.36675 0.52824 0.0
N926 N 0.14633 0.36293 0.49926 0.0
C927 C 0.1178 0.38541 0.52524 0.0
C928 C 0.12221 0.40021 0.49232 0.0
C929 C 0.13882 0.39622 0.46293 0.0
C930 C 0.15078 0.37738 0.46689 0.0
C931 C 0.2117 0.38153 0.5257 0.0
C932 C 0.20544 0.34555 0.47424 0.0
C933 C 0.19244 0.37013 0.52711 0.0
N934 N 0.18947 0.35246 0.50137 0.0
C935 C 0.22491 0.35655 0.47195 0.0
C936 C 0.22801 0.37466 0.49786 0.0
C937 C 0.17719 0.29194 0.48871 0.0
C938 C 0.10944 0.27235 0.5883 0.0
C939 C 0.13444 0.25843 0.51911 0.0
C940 C 0.13162 0.24514 0.5554 0.0
C941 C 0.11903 0.25219 0.5902 0.0
N942 N 0.12495 0.27819 0.51746 0.0
C943 C 0.1126 0.28521 0.55147 0.0
H944 H 0.16246 0.56606 1.00285 0.0
H945 H 0.22753 0.56015 0.95629 0.0
H946 H 0.16214 0.52788 0.02081 0.0
H947 H 0.227 0.52203 0.97243 0.0
H948 H 0.22986 0.46022 0.04775 0.0
H949 H 0.2284 0.49829 0.03129 0.0
H950 H 0.1617 0.49206 0.99506 0.0
H951 H 0.16302 0.45394 0.01337 0.0
C952 C 0.17658 0.55655 0.99579 0.0
C953 C 0.19506 0.56624 0.97833 0.0
C954 C 0.1764 0.53459 0.00601 0.0
C955 C 0.19464 0.5217 0.99867 0.0
C956 C 0.21282 0.53138 0.97979 0.0
C957 C 0.21308 0.5533 0.97008 0.0
C958 C 0.21482 0.46697 0.03654 0.0
C959 C 0.19657 0.45395 0.03186 0.0
C960 C 0.21402 0.48886 0.02664 0.0
C961 C 0.19501 0.49842 0.01113 0.0
C962 C 0.1766 0.48544 0.00724 0.0
C963 C 0.17736 0.46351 0.01764 0.0
H964 H 0.45396 0.1619 0.99534 0.0
H965 H 0.46004 0.22878 0.96109 0.0
H966 H 0.4921 0.16067 0.01346 0.0
H967 H 0.49812 0.22741 0.97742 0.0
H968 H 0.56001 0.22668 0.05225 0.0
H969 H 0.52187 0.22599 0.0364 0.0
H970 H 0.52792 0.16127 0.98732 0.0
H971 H 0.56615 0.16174 0.00492 0.0
C972 C 0.46348 0.17626 0.99107 0.0
C973 C 0.45386 0.19546 0.97693 0.0
C974 C 0.48543 0.17556 1.00136 0.0
C975 C 0.49835 0.194 0.99748 0.0
C976 C 0.48873 0.213 0.98206 0.0
C977 C 0.46683 0.21375 0.97224 0.0
C978 C 0.55321 0.21222 0.03837 0.0
C979 C 0.56622 0.19429 0.02979 0.0
C980 C 0.53127 0.21188 0.02883 0.0
C981 C 0.52165 0.1937 0.00983 0.0
C982 C 0.5346 0.17553 1.00221 0.0
C983 C 0.55658 0.1758 0.01223 0.0
H984 H 0.79372 0.45967 0.95497 0.0
H985 H 0.85852 0.45347 1.00299 0.0
H986 H 0.79443 0.49783 0.97061 0.0
H987 H 0.85904 0.49177 0.02019 0.0
H988 H 0.85812 0.56595 0.01089 0.0
H989 H 0.85954 0.52773 0.9932 0.0
H990 H 0.79301 0.52135 0.03041 0.0
H991 H 0.79145 0.55944 0.04651 0.0
C992 C 0.80816 0.46645 0.96891 0.0
C993 C 0.82603 0.45341 0.97782 0.0
C994 C 0.80852 0.48841 0.97831 0.0
C995 C 0.82667 0.49802 0.99743 0.0
C996 C 0.8448 0.48507 0.00525 0.0
C997 C 0.84451 0.46305 0.99545 0.0
C998 C 0.84385 0.55632 0.01556 0.0
C999 C 0.82464 0.56585 0.02994 0.0
C1000 C 0.84467 0.53435 0.00548 0.0
C1001 C 0.82632 0.52132 0.00976 0.0
C1002 C 0.80734 0.53083 0.02548 0.0
C1003 C 0.80648 0.55275 0.03516 0.0
H1004 H 0.55959 0.79161 0.95875 0.0
H1005 H 0.56592 0.85802 0.99645 0.0
H1006 H 0.52147 0.79297 0.97469 0.0
H1007 H 0.52772 0.85923 0.01415 0.0
H1008 H 0.45959 0.79304 0.04956 0.0
H1009 H 0.49773 0.79378 0.03376 0.0
H1010 H 0.49188 0.85905 0.9877 0.0
H1011 H 0.45364 0.85849 0.00524 0.0
C1012 C 0.55284 0.80654 0.97056 0.0
C1013 C 0.56589 0.82469 0.97638 0.0
C1014 C 0.53092 0.80728 0.98015 0.0
C1015 C 0.52135 0.82613 0.99644 0.0
C1016 C 0.53435 0.84446 1.00138 0.0
C1017 C 0.55632 0.84376 0.99132 0.0
C1018 C 0.46643 0.80762 0.03633 0.0
C1019 C 0.45347 0.82568 0.02859 0.0
C1020 C 0.48836 0.808 0.02683 0.0
C1021 C 0.49805 0.82636 0.0087 0.0
C1022 C 0.48515 0.84465 1.0019 0.0
C1023 C 0.46316 0.84433 0.01188 0.0
H1024 H 0.66216 0.06596 0.50381 0.0
H1025 H 0.72708 0.05996 0.45639 0.0
H1026 H 0.6618 0.02774 0.52152 0.0
H1027 H 0.72651 0.02182 0.47235 0.0
H1028 H 0.72944 0.95994 0.54749 0.0
H1029 H 0.728 0.99804 0.53126 0.0
H1030 H 0.66125 0.99193 0.4954 0.0
H1031 H 0.66255 0.95378 0.51341 0.0
C1032 C 0.67624 0.05643 0.4965 0.0
C1033 C 0.69468 0.0661 0.47887 0.0
C1034 C 0.67603 0.03444 0.50659 0.0
C1035 C 0.69422 0.02153 0.49897 0.0
C1036 C 0.71237 0.0312 0.47992 0.0
C1037 C 0.71264 0.05313 0.47031 0.0
C1038 C 0.71439 0.96672 0.53642 0.0
C1039 C 0.69612 0.95372 0.53173 0.0
C1040 C 0.7136 0.98863 0.52665 0.0
C1041 C 0.69458 0.99823 0.51131 0.0
C1042 C 0.67615 0.98528 0.50744 0.0
C1043 C 0.6769 0.96333 0.51768 0.0
H1044 H 0.95959 0.72789 0.45744 0.0
H1045 H 0.95309 0.66174 0.49689 0.0
H1046 H 0.99769 0.72657 0.47365 0.0
H1047 H 0.99127 0.66058 0.51482 0.0
H1048 H 0.0654 0.66124 0.50652 0.0
H1049 H 0.0272 0.66059 0.48861 0.0
H1050 H 0.02124 0.7261 0.53313 0.0
H1051 H 0.05934 0.72694 0.54932 0.0
C1052 C 0.9663 0.71303 0.46967 0.0
C1053 C 0.95321 0.69494 0.47592 0.0
C1054 C 0.98821 0.71231 0.47941 0.0
C1055 C 0.99771 0.69356 0.49629 0.0
C1056 C 0.98468 0.67527 0.5016 0.0
C1057 C 0.96272 0.67594 0.4914 0.0
C1058 C 0.05586 0.67544 0.51275 0.0
C1059 C 0.06551 0.69418 0.52914 0.0
C1060 C 0.03389 0.67507 0.50255 0.0
C1061 C 0.02099 0.69338 0.5088 0.0
C1062 C 0.03062 0.71185 0.52662 0.0
C1063 C 0.05253 0.71228 0.53636 0.0
H1064 H 0.28975 0.05959 0.54751 0.0
H1065 H 0.35646 0.0657 0.51208 0.0
H1066 H 0.29104 0.02151 0.53108 0.0
H1067 H 0.35762 0.02757 0.4938 0.0
H1068 H 0.3567 0.95357 0.50167 0.0
H1069 H 0.35718 0.99176 0.5196 0.0
H1070 H 0.29216 0.99776 0.47222 0.0
H1071 H 0.29146 0.95964 0.45611 0.0
C1072 C 0.30472 0.05281 0.53607 0.0
C1073 C 0.32299 0.06577 0.53109 0.0
C1074 C 0.30543 0.03091 0.52619 0.0
C1075 C 0.32436 0.02129 0.5104 0.0
C1076 C 0.34278 0.03423 0.50621 0.0
C1077 C 0.34212 0.05616 0.51659 0.0
C1078 C 0.34257 0.96311 0.49482 0.0
C1079 C 0.32401 0.95347 0.47766 0.0
C1080 C 0.34285 0.98508 0.50502 0.0
C1081 C 0.32462 0.99801 0.49796 0.0
C1082 C 0.30634 0.98837 0.47937 0.0
C1083 C 0.30599 0.96645 0.46968 0.0
H1084 H 0.0657 0.35854 0.49414 0.0
H1085 H 0.05963 0.2913 0.46291 0.0
H1086 H 0.02752 0.35997 0.51199 0.0
H1087 H 0.02155 0.29284 0.47907 0.0
H1088 H 0.95335 0.35852 0.50222 0.0
H1089 H 0.99166 0.35894 0.48523 0.0
H1090 H 0.99786 0.295 0.53828 0.0
H1091 H 0.95967 0.29435 0.55363 0.0
C1092 C 0.05617 0.34413 0.49049 0.0
C1093 C 0.06581 0.32478 0.47727 0.0
C1094 C 0.03421 0.34495 0.50064 0.0
C1095 C 0.0213 0.32647 0.49755 0.0
C1096 C 0.03094 0.3073 0.48306 0.0
C1097 C 0.05284 0.30645 0.47335 0.0
C1098 C 0.96297 0.34464 0.51058 0.0
C1099 C 0.95336 0.32636 0.52907 0.0
C1100 C 0.98499 0.34488 0.50089 0.0
C1101 C 0.99799 0.32689 0.50975 0.0
C1102 C 0.9884 0.30895 0.52976 0.0
C1103 C 0.96644 0.30864 0.539 0.0
H1104 H 0.261 0.33221 0.07766 0.0
H1105 H 0.23307 0.31351 0.95415 0.0
H1106 H 0.28815 0.304 0.06962 0.0
H1107 H 0.26057 0.2858 0.94575 0.0
H1108 H 0.33231 0.26019 0.93096 0.0
H1109 H 0.30431 0.28755 0.93902 0.0
H1110 H 0.28609 0.26024 0.06311 0.0
H1111 H 0.31358 0.23253 0.05469 0.0
C1112 C 0.26064 0.32209 0.04888 0.0
C1113 C 0.24479 0.325 0.0167 0.0
C1114 C 0.27614 0.30596 0.04434 0.0
C1115 C 0.27644 0.2928 0.00703 0.0
C1116 C 0.26072 0.29579 0.97473 0.0
C1117 C 0.24492 0.31155 0.97974 0.0
C1118 C 0.32223 0.25994 0.95979 0.0
C1119 C 0.32507 0.2441 0.99202 0.0
C1120 C 0.30622 0.27556 0.96435 0.0
C1121 C 0.29311 0.27599 1.00173 0.0
C1122 C 0.29604 0.26029 0.03408 0.0
C1123 C 0.31168 0.24437 0.02906 0.0
H1124 H 0.79838 0.30037 0.01428 0.0
H1125 H 0.74972 0.34307 0.96355 0.0
H1126 H 0.77131 0.27243 0.02374 0.0
H1127 H 0.72282 0.31524 0.97351 0.0
H1128 H 0.6774 0.26984 0.0469 0.0
H1129 H 0.70539 0.29668 0.03736 0.0
H1130 H 0.7466 0.24899 0.97906 0.0
H1131 H 0.71855 0.22205 0.98808 0.0
C1132 C 0.78198 0.30382 0.00493 0.0
C1133 C 0.77629 0.32414 0.98849 0.0
C1134 C 0.76648 0.28776 0.01031 0.0
C1135 C 0.74488 0.2917 0.99984 0.0
C1136 C 0.73926 0.31182 0.98261 0.0
C1137 C 0.75476 0.32777 0.97673 0.0
C1138 C 0.69238 0.26499 0.03201 0.0
C1139 C 0.69553 0.24375 0.01782 0.0
C1140 C 0.70842 0.28044 0.02642 0.0
C1141 C 0.72815 0.27501 0.00709 0.0
C1142 C 0.7316 0.25366 0.99418 0.0
C1143 C 0.71546 0.23824 0.99926 0.0
H1144 H 0.75833 0.68616 0.07562 0.0
H1145 H 0.78823 0.70772 0.95606 0.0
H1146 H 0.73091 0.7141 0.06784 0.0
H1147 H 0.7604 0.73517 0.94778 0.0
H1148 H 0.68756 0.75911 0.93097 0.0
H1149 H 0.71592 0.73204 0.9387 0.0
H1150 H 0.73317 0.75858 0.06405 0.0
H1151 H 0.70538 0.78601 0.05596 0.0
C1152 C 0.75908 0.69688 0.04779 0.0
C1153 C 0.77555 0.69484 0.01664 0.0
C1154 C 0.74341 0.71283 0.04337 0.0
C1155 C 0.74355 0.72669 0.00714 0.0
C1156 C 0.75991 0.72462 0.9759 0.0
C1157 C 0.7759 0.70903 0.98087 0.0
C1158 C 0.69749 0.75923 0.96004 0.0
C1159 C 0.69432 0.77479 0.99271 0.0
C1160 C 0.71371 0.7438 0.96438 0.0
C1161 C 0.72667 0.74327 1.00198 0.0
C1162 C 0.72335 0.75864 0.03482 0.0
C1163 C 0.70753 0.77438 0.03001 0.0
H1164 H 0.26975 0.67756 0.96059 0.0
H1165 H 0.22188 0.71896 0.01838 0.0
H1166 H 0.29664 0.70549 0.97023 0.0
H1167 H 0.24886 0.74704 0.02716 0.0
H1168 H 0.30077 0.79823 0.98872 0.0
H1169 H 0.27278 0.77117 0.97997 0.0
H1170 H 0.31465 0.72339 0.03589 0.0
H1171 H 0.34251 0.75036 0.0455 0.0
C1172 C 0.26489 0.69258 0.97527 0.0
C1173 C 0.24361 0.69581 0.9892 0.0
C1174 C 0.28036 0.70859 0.98088 0.0
C1175 C 0.27491 0.72839 0.99983 0.0
C1176 C 0.25354 0.73195 0.01241 0.0
C1177 C 0.2381 0.71581 0.00743 0.0
C1178 C 0.30401 0.782 0.99945 0.0
C1179 C 0.32409 0.77651 0.01738 0.0
C1180 C 0.28792 0.76651 0.9945 0.0
C1181 C 0.2916 0.74511 0.0068 0.0
C1182 C 0.31147 0.73969 0.02545 0.0
C1183 C 0.32743 0.75521 0.03105 0.0
H1184 H 0.83279 0.76088 0.43076 0.0
H1185 H 0.81083 0.72995 0.54894 0.0
H1186 H 0.80485 0.78826 0.43916 0.0
H1187 H 0.78339 0.75776 0.55787 0.0
H1188 H 0.76048 0.83124 0.57635 0.0
H1189 H 0.78719 0.80257 0.56806 0.0
H1190 H 0.76001 0.78581 0.44301 0.0
H1191 H 0.73292 0.81389 0.45168 0.0
C1192 C 0.82197 0.75988 0.45839 0.0
C1193 C 0.82391 0.74315 0.48899 0.0
C1194 C 0.80602 0.77554 0.46317 0.0
C1195 C 0.79208 0.77511 0.49923 0.0
C1196 C 0.79402 0.75846 0.52988 0.0
C1197 C 0.8096 0.74249 0.52454 0.0
C1198 C 0.76012 0.82134 0.54725 0.0
C1199 C 0.7445 0.82474 0.51481 0.0
C1200 C 0.77535 0.80494 0.54259 0.0
C1201 C 0.7756 0.79205 0.50489 0.0
C1202 C 0.76015 0.79557 0.47232 0.0
C1203 C 0.7446 0.81156 0.47746 0.0
H1204 H 0.24915 0.8422 0.46027 0.0
H1205 H 0.29711 0.80077 0.51766 0.0
H1206 H 0.22227 0.81428 0.47012 0.0
H1207 H 0.27014 0.77271 0.52665 0.0
H1208 H 0.21811 0.72154 0.48878 0.0
H1209 H 0.2461 0.74858 0.47973 0.0
H1210 H 0.20439 0.79641 0.53595 0.0
H1211 H 0.17653 0.76946 0.54586 0.0
C1212 C 0.25403 0.82717 0.4749 0.0
C1213 C 0.27533 0.82394 0.48867 0.0
C1214 C 0.23856 0.81117 0.48064 0.0
C1215 C 0.24404 0.79137 0.49954 0.0
C1216 C 0.26544 0.7878 0.51194 0.0
C1217 C 0.28088 0.80393 0.50683 0.0
C1218 C 0.2149 0.73778 0.49952 0.0
C1219 C 0.19487 0.74329 0.51762 0.0
C1220 C 0.23099 0.75325 0.49439 0.0
C1221 C 0.22736 0.77466 0.50669 0.0
C1222 C 0.20754 0.78011 0.52552 0.0
C1223 C 0.19158 0.7646 0.53128 0.0
H1224 H 0.25871 0.18754 0.57744 0.0
H1225 H 0.28638 0.20625 0.4537 0.0
H1226 H 0.23154 0.21573 0.56964 0.0
H1227 H 0.25885 0.23395 0.44554 0.0
H1228 H 0.18712 0.25963 0.43136 0.0
H1229 H 0.21511 0.23224 0.43916 0.0
H1230 H 0.23357 0.25947 0.5632 0.0
H1231 H 0.20608 0.2872 0.55504 0.0
C1232 C 0.25901 0.19766 0.54865 0.0
C1233 C 0.2748 0.19476 0.51634 0.0
C1234 C 0.24349 0.21378 0.54425 0.0
C1235 C 0.24311 0.22695 0.50695 0.0
C1236 C 0.25876 0.22396 0.47452 0.0
C1237 C 0.27457 0.2082 0.47938 0.0
C1238 C 0.19725 0.25986 0.46013 0.0
C1239 C 0.19448 0.27568 0.49242 0.0
C1240 C 0.21326 0.24422 0.46454 0.0
C1241 C 0.22643 0.24376 0.50182 0.0
C1242 C 0.22357 0.25944 0.53424 0.0
C1243 C 0.20793 0.27538 0.52937 0.0
H1244 H 0.80032 0.29852 0.4929 0.0
H1245 H 0.84322 0.24986 0.54291 0.0
H1246 H 0.77239 0.27142 0.48365 0.0
H1247 H 0.81541 0.22294 0.53316 0.0
H1248 H 0.76986 0.17748 0.46035 0.0
H1249 H 0.79668 0.20553 0.46951 0.0
H1250 H 0.74913 0.24663 0.52858 0.0
H1251 H 0.72222 0.21854 0.51994 0.0
C1252 C 0.80382 0.28212 0.50213 0.0
C1253 C 0.82419 0.27644 0.51831 0.0
C1254 C 0.78777 0.2666 0.49687 0.0
C1255 C 0.79177 0.24499 0.50721 0.0
C1256 C 0.81194 0.23938 0.52416 0.0
C1257 C 0.82788 0.2549 0.52992 0.0
C1258 C 0.76504 0.19245 0.47533 0.0
C1259 C 0.74385 0.19555 0.48985 0.0
C1260 C 0.78047 0.20853 0.4807 0.0
C1261 C 0.77508 0.22824 0.50014 0.0
C1262 C 0.75377 0.23165 0.51337 0.0
C1263 C 0.73837 0.21548 0.5085 0.0
H1264 H 0.18542 0.35059 0.38077 0.0
H1265 H 0.12633 0.32249 0.33414 0.0
H1266 H 0.19439 0.36153 0.30714 0.0
H1267 H 0.13501 0.33427 0.26006 0.0
H1268 H 0.16995 0.33475 0.12864 0.0
H1269 H 0.15878 0.32602 0.20226 0.0
H1270 H 0.18648 0.38525 0.24906 0.0
H1271 H 0.19848 0.39368 0.17502 0.0
C1272 C 0.17416 0.34691 0.35487 0.0
C1273 C 0.15514 0.33551 0.36356 0.0
C1274 C 0.17927 0.35341 0.31248 0.0
C1275 C 0.16546 0.34888 0.27741 0.0
C1276 C 0.14622 0.33779 0.28612 0.0
C1277 C 0.14116 0.33111 0.32866 0.0
C1278 C 0.17368 0.34602 0.15447 0.0
C1279 C 0.18526 0.36493 0.14573 0.0
C1280 C 0.16705 0.34106 0.19686 0.0
C1281 C 0.17163 0.3549 0.23185 0.0
C1282 C 0.18291 0.37402 0.22307 0.0
C1283 C 0.18972 0.37894 0.18055 0.0
H1284 H 0.66855 0.18502 0.37993 0.0
H1285 H 0.69763 0.12614 0.33461 0.0
H1286 H 0.6577 0.19358 0.30613 0.0
H1287 H 0.68581 0.13432 0.2603 0.0
H1288 H 0.68508 0.16832 0.12818 0.0
H1289 H 0.69364 0.15747 0.20198 0.0
H1290 H 0.6345 0.1858 0.24787 0.0
H1291 H 0.62632 0.19761 0.17356 0.0
C1292 C 0.67244 0.1737 0.35428 0.0
C1293 C 0.68412 0.15488 0.36339 0.0
C1294 C 0.66598 0.17857 0.31175 0.0
C1295 C 0.67077 0.16469 0.27694 0.0
C1296 C 0.6821 0.14561 0.2861 0.0
C1297 C 0.6888 0.14083 0.32878 0.0
C1298 C 0.67379 0.17226 0.15384 0.0
C1299 C 0.655 0.184 0.14475 0.0
C1300 C 0.67866 0.1658 0.19637 0.0
C1301 C 0.66481 0.17065 0.2312 0.0
C1302 C 0.64577 0.18204 0.22206 0.0
C1303 C 0.64098 0.18874 0.17938 0.0
H1304 H 0.85054 0.65384 0.38041 0.0
H1305 H 0.87952 0.71181 0.33092 0.0
H1306 H 0.84211 0.64264 0.3067 0.0
H1307 H 0.86965 0.70143 0.2569 0.0
H1308 H 0.86424 0.67127 0.12416 0.0
H1309 H 0.87566 0.67974 0.19771 0.0
H1310 H 0.81938 0.64791 0.24887 0.0
H1311 H 0.80886 0.63805 0.17495 0.0
C1312 C 0.85514 0.66425 0.35377 0.0
C1313 C 0.8659 0.68368 0.3618 0.0
C1314 C 0.84999 0.65793 0.31121 0.0
C1315 C 0.85494 0.6711 0.27526 0.0
C1316 C 0.86586 0.69054 0.28333 0.0
C1317 C 0.87146 0.69662 0.32597 0.0
C1318 C 0.85445 0.66574 0.15105 0.0
C1319 C 0.8357 0.65376 0.14341 0.0
C1320 C 0.86088 0.6709 0.19353 0.0
C1321 C 0.84848 0.66473 0.22983 0.0
C1322 C 0.8297 0.65267 0.22214 0.0
C1323 C 0.82353 0.64707 0.17956 0.0
H1324 H 0.32151 0.89378 0.33347 0.0
H1325 H 0.35043 0.8348 0.37868 0.0
H1326 H 0.33359 0.88575 0.25926 0.0
H1327 H 0.36155 0.82639 0.30499 0.0
H1328 H 0.39331 0.82252 0.17283 0.0
H1329 H 0.38495 0.83428 0.24711 0.0
H1330 H 0.32594 0.86268 0.2007 0.0
H1331 H 0.33467 0.8519 0.12698 0.0
C1332 C 0.33035 0.8791 0.32764 0.0
C1333 C 0.33491 0.86498 0.36219 0.0
C1334 C 0.33721 0.8744 0.28502 0.0
C1335 C 0.34859 0.85535 0.27587 0.0
C1336 C 0.35325 0.84139 0.31062 0.0
C1337 C 0.34662 0.84617 0.35308 0.0
C1338 C 0.37864 0.8314 0.17853 0.0
C1339 C 0.36471 0.83618 0.14378 0.0
C1340 C 0.37376 0.83808 0.22119 0.0
C1341 C 0.3547 0.84947 0.23017 0.0
C1342 C 0.34094 0.85436 0.19522 0.0
C1343 C 0.34591 0.84793 0.15273 0.0
H1344 H 0.12572 0.69749 0.67345 0.0
H1345 H 0.18421 0.66787 0.62747 0.0
H1346 H 0.13409 0.68573 0.74772 0.0
H1347 H 0.19295 0.65707 0.70117 0.0
H1348 H 0.16871 0.68511 0.87918 0.0
H1349 H 0.15759 0.69355 0.80551 0.0
H1350 H 0.18524 0.63405 0.75979 0.0
H1351 H 0.19732 0.62598 0.83399 0.0
C1352 C 0.14036 0.68856 0.67911 0.0
C1353 C 0.15425 0.68371 0.64433 0.0
C1354 C 0.14525 0.68188 0.72176 0.0
C1355 C 0.16427 0.67042 0.73071 0.0
C1356 C 0.17799 0.66546 0.69573 0.0
C1357 C 0.17301 0.6719 0.65324 0.0
C1358 C 0.17245 0.67371 0.85359 0.0
C1359 C 0.18407 0.65485 0.8627 0.0
C1360 C 0.16582 0.67851 0.81114 0.0
C1361 C 0.17039 0.66452 0.77639 0.0
C1362 C 0.18169 0.64542 0.78554 0.0
C1363 C 0.18855 0.6407 0.82815 0.0
H1364 H 0.32135 0.12607 0.67444 0.0
H1365 H 0.34957 0.18515 0.62809 0.0
H1366 H 0.33337 0.13452 0.74847 0.0
H1367 H 0.36075 0.1939 0.70169 0.0
H1368 H 0.39327 0.19757 0.8335 0.0
H1369 H 0.38459 0.18576 0.75943 0.0
H1370 H 0.3254 0.15817 0.80662 0.0
H1371 H 0.33437 0.16913 0.88025 0.0
C1372 C 0.33004 0.14085 0.67997 0.0
C1373 C 0.33442 0.15489 0.64516 0.0
C1374 C 0.33686 0.14578 0.72249 0.0
C1375 C 0.34806 0.16495 0.73127 0.0
C1376 C 0.35255 0.17883 0.69629 0.0
C1377 C 0.34591 0.17385 0.65391 0.0
C1378 C 0.37848 0.18887 0.82805 0.0
C1379 C 0.36455 0.18438 0.86298 0.0
C1380 C 0.37342 0.18217 0.78551 0.0
C1381 C 0.35424 0.17099 0.77683 0.0
C1382 C 0.34048 0.16637 0.81194 0.0
C1383 C 0.34559 0.17288 0.85433 0.0
H1384 H 0.866 0.3501 0.88129 0.0
H1385 H 0.80871 0.38058 0.832 0.0
H1386 H 0.87712 0.34174 0.80743 0.0
H1387 H 0.81917 0.37105 0.75774 0.0
H1388 H 0.85041 0.36638 0.6256 0.0
H1389 H 0.84201 0.37743 0.69949 0.0
H1390 H 0.87063 0.3191 0.74894 0.0
H1391 H 0.88021 0.30868 0.67467 0.0
C1392 C 0.85573 0.35507 0.85467 0.0
C1393 C 0.83648 0.36618 0.86282 0.0
C1394 C 0.86202 0.34999 0.81206 0.0
C1395 C 0.84906 0.35548 0.77614 0.0
C1396 C 0.82985 0.36681 0.78426 0.0
C1397 C 0.82374 0.37223 0.82699 0.0
C1398 C 0.85522 0.356 0.65218 0.0
C1399 C 0.86615 0.33666 0.64397 0.0
C1400 C 0.85012 0.36226 0.6948 0.0
C1401 C 0.8554 0.34917 0.73066 0.0
C1402 C 0.86655 0.32987 0.72248 0.0
C1403 C 0.87201 0.3238 0.67974 0.0
H1404 H 0.68615 0.84932 0.87994 0.0
H1405 H 0.62658 0.82213 0.83367 0.0
H1406 H 0.69509 0.86029 0.80627 0.0
H1407 H 0.63524 0.83392 0.75961 0.0
H1408 H 0.66974 0.83436 0.62776 0.0
H1409 H 0.65879 0.82549 0.70145 0.0
H1410 H 0.68719 0.88433 0.74858 0.0
H1411 H 0.69896 0.8929 0.67445 0.0
C1412 C 0.67479 0.84585 0.85412 0.0
C1413 C 0.65563 0.8347 0.8629 0.0
C1414 C 0.67989 0.85236 0.81172 0.0
C1415 C 0.66592 0.84809 0.77676 0.0
C1416 C 0.64656 0.83723 0.78557 0.0
C1417 C 0.64152 0.83054 0.82811 0.0
C1418 C 0.67367 0.84552 0.65368 0.0
C1419 C 0.68537 0.86436 0.64499 0.0
C1420 C 0.66717 0.84047 0.69611 0.0
C1421 C 0.67201 0.85417 0.7312 0.0
C1422 C 0.68342 0.87321 0.7225 0.0
C1423 C 0.69009 0.87821 0.67993 0.0
H1424 H 0.82292 0.67472 0.62562 0.0
H1425 H 0.87939 0.7086 0.66837 0.0
H1426 H 0.81323 0.66745 0.70104 0.0
H1427 H 0.87101 0.69973 0.74406 0.0
H1428 H 0.84358 0.69606 0.8793 0.0
H1429 H 0.85075 0.70577 0.80387 0.0
H1430 H 0.81951 0.64737 0.76105 0.0
H1431 H 0.81073 0.63894 0.83677 0.0
C1432 C 0.83339 0.68038 0.65145 0.0
C1433 C 0.85186 0.69223 0.64146 0.0
C1434 C 0.828 0.67601 0.69481 0.0
C1435 C 0.84135 0.68276 0.72931 0.0
C1436 C 0.85996 0.69461 0.71889 0.0
C1437 C 0.86495 0.6996 0.67546 0.0
C1438 C 0.83813 0.68545 0.85352 0.0
C1439 C 0.8266 0.66679 0.86358 0.0
C1440 C 0.84244 0.69086 0.81015 0.0
C1441 C 0.83596 0.67735 0.7757 0.0
C1442 C 0.82442 0.65854 0.78618 0.0
C1443 C 0.81949 0.65353 0.82963 0.0
H1444 H 0.35977 0.83937 0.62935 0.0
H1445 H 0.29716 0.86318 0.66597 0.0
H1446 H 0.36748 0.83121 0.70551 0.0
H1447 H 0.30499 0.85489 0.74254 0.0
H1448 H 0.33895 0.86077 0.87644 0.0
H1449 H 0.3305 0.86821 0.80029 0.0
H1450 H 0.3545 0.80578 0.76369 0.0
H1451 H 0.36308 0.79823 0.84024 0.0
C1452 C 0.34764 0.84291 0.65365 0.0
C1453 C 0.32784 0.85198 0.64162 0.0
C1454 C 0.35203 0.83805 0.69724 0.0
C1455 C 0.33681 0.84233 0.72985 0.0
C1456 C 0.31705 0.85154 0.718 0.0
C1457 C 0.31256 0.85623 0.67422 0.0
C1458 C 0.3425 0.8486 0.85223 0.0
C1459 C 0.35174 0.8289 0.86437 0.0
C1460 C 0.33748 0.85284 0.80866 0.0
C1461 C 0.34176 0.83755 0.77617 0.0
C1462 C 0.35115 0.81789 0.78813 0.0
C1463 C 0.356 0.81355 0.8319 0.0
H1464 H 0.17791 0.36191 0.6303 0.0
H1465 H 0.15412 0.2997 0.66951 0.0
H1466 H 0.1864 0.37023 0.70606 0.0
H1467 H 0.1627 0.30815 0.74565 0.0
H1468 H 0.15857 0.34251 0.87904 0.0
H1469 H 0.15007 0.33424 0.80328 0.0
H1470 H 0.21239 0.3572 0.76354 0.0
H1471 H 0.22104 0.36557 0.8397 0.0
C1472 C 0.1744 0.35002 0.65509 0.0
C1473 C 0.16531 0.33012 0.64388 0.0
C1474 C 0.17944 0.35476 0.69844 0.0
C1475 C 0.1753 0.33981 0.73163 0.0
C1476 C 0.16595 0.32002 0.72065 0.0
C1477 C 0.16109 0.31516 0.67711 0.0
C1478 C 0.17049 0.3459 0.85423 0.0
C1479 C 0.19051 0.35473 0.8654 0.0
C1480 C 0.16563 0.34099 0.81087 0.0
C1481 C 0.18059 0.34498 0.77763 0.0
C1482 C 0.20052 0.35407 0.78858 0.0
C1483 C 0.20548 0.3588 0.83213 0.0
H1484 H 0.69624 0.17399 0.88029 0.0
H1485 H 0.63905 0.20732 0.83958 0.0
H1486 H 0.70537 0.16684 0.80454 0.0
H1487 H 0.64688 0.19856 0.76359 0.0
H1488 H 0.67414 0.19621 0.62787 0.0
H1489 H 0.66693 0.20529 0.70363 0.0
H1490 H 0.6987 0.14681 0.74451 0.0
H1491 H 0.70752 0.13903 0.66852 0.0
C1492 C 0.68548 0.17952 0.85485 0.0
C1493 C 0.66699 0.19122 0.86545 0.0
C1494 C 0.69055 0.17523 0.81131 0.0
C1495 C 0.67685 0.18191 0.77734 0.0
C1496 C 0.65818 0.19352 0.78838 0.0
C1497 C 0.65351 0.19844 0.83197 0.0
C1498 C 0.67967 0.18544 0.6533 0.0
C1499 C 0.69139 0.16697 0.64268 0.0
C1500 C 0.67535 0.19049 0.69683 0.0
C1501 C 0.68202 0.17677 0.73079 0.0
C1502 C 0.69367 0.15812 0.71973 0.0
C1503 C 0.69861 0.15348 0.67615 0.0
H1504 H 0.87847 0.31039 0.33912 0.0
H1505 H 0.82142 0.34394 0.37986 0.0
H1506 H 0.87032 0.3186 0.26305 0.0
H1507 H 0.81197 0.35056 0.30403 0.0
H1508 H 0.81015 0.37851 0.1677 0.0
H1509 H 0.81838 0.37038 0.24377 0.0
H1510 H 0.85053 0.31213 0.20277 0.0
H1511 H 0.84389 0.32157 0.12695 0.0
C1512 C 0.86394 0.31916 0.33152 0.0
C1513 C 0.85062 0.32664 0.36508 0.0
C1514 C 0.85908 0.32377 0.28785 0.0
C1515 C 0.84039 0.33536 0.27673 0.0
C1516 C 0.8268 0.34219 0.31078 0.0
C1517 C 0.83206 0.3382 0.35439 0.0
C1518 C 0.81897 0.36401 0.1753 0.0
C1519 C 0.82649 0.35072 0.14173 0.0
C1520 C 0.82359 0.35916 0.21897 0.0
C1521 C 0.83523 0.3405 0.23008 0.0
C1522 C 0.84211 0.32694 0.19602 0.0
C1523 C 0.8381 0.33219 0.15241 0.0
H1524 H 0.63641 0.81438 0.16953 0.0
H1525 H 0.69391 0.84677 0.1276 0.0
H1526 H 0.64424 0.82393 0.24515 0.0
H1527 H 0.70299 0.8547 0.203 0.0
H1528 H 0.70622 0.88295 0.33826 0.0
H1529 H 0.69667 0.87517 0.26261 0.0
H1530 H 0.66441 0.81726 0.30503 0.0
H1531 H 0.67238 0.82633 0.38042 0.0
C1532 C 0.65091 0.82326 0.17679 0.0
C1533 C 0.6645 0.82995 0.14305 0.0
C1534 C 0.65557 0.82863 0.22016 0.0
C1535 C 0.67435 0.84015 0.23077 0.0
C1536 C 0.6881 0.84638 0.19654 0.0
C1537 C 0.68304 0.84165 0.15321 0.0
C1538 C 0.69701 0.86865 0.33105 0.0
C1539 C 0.68992 0.85529 0.36486 0.0
C1540 C 0.69164 0.86401 0.28767 0.0
C1541 C 0.6797 0.84548 0.27713 0.0
C1542 C 0.67306 0.83196 0.31142 0.0
C1543 C 0.67782 0.83701 0.35476 0.0
H1544 H 0.15579 0.72152 0.3407 0.0
H1545 H 0.17971 0.65891 0.37698 0.0
H1546 H 0.16435 0.71393 0.26417 0.0
H1547 H 0.18814 0.65142 0.30085 0.0
H1548 H 0.22161 0.65641 0.16663 0.0
H1549 H 0.21374 0.66468 0.24318 0.0
H1550 H 0.15134 0.68852 0.20595 0.0
H1551 H 0.15909 0.68037 0.12981 0.0
C1552 C 0.16282 0.70617 0.33238 0.0
C1553 C 0.16703 0.69083 0.36488 0.0
C1554 C 0.16766 0.7018 0.28863 0.0
C1555 C 0.17698 0.68211 0.27669 0.0
C1556 C 0.18121 0.66682 0.30919 0.0
C1557 C 0.17621 0.67108 0.35276 0.0
C1558 C 0.20623 0.66339 0.17483 0.0
C1559 C 0.19099 0.66769 0.14218 0.0
C1560 C 0.2017 0.66807 0.2186 0.0
C1561 C 0.18196 0.67732 0.23038 0.0
C1562 C 0.16677 0.68164 0.19773 0.0
C1563 C 0.17119 0.6768 0.15415 0.0
H1564 H 0.29866 0.15414 0.33901 0.0
H1565 H 0.36102 0.17741 0.37854 0.0
H1566 H 0.30734 0.16251 0.26287 0.0
H1567 H 0.36955 0.18569 0.3028 0.0
H1568 H 0.36546 0.2202 0.16898 0.0
H1569 H 0.35686 0.21173 0.24511 0.0
H1570 H 0.33342 0.14955 0.20548 0.0
H1571 H 0.34193 0.15789 0.12974 0.0
C1572 C 0.3142 0.16095 0.33148 0.0
C1573 C 0.32913 0.16509 0.3648 0.0
C1574 C 0.31918 0.16569 0.28795 0.0
C1575 C 0.33909 0.17484 0.27706 0.0
C1576 C 0.35401 0.17889 0.31034 0.0
C1577 C 0.34914 0.17398 0.35369 0.0
C1578 C 0.35854 0.20472 0.17657 0.0
C1579 C 0.3544 0.18974 0.14334 0.0
C1580 C 0.35368 0.19985 0.2201 0.0
C1581 C 0.34439 0.18002 0.23107 0.0
C1582 C 0.34033 0.16505 0.19787 0.0
C1583 C 0.34538 0.1698 0.15453 0.0
loop_
_geom_bond_atom_site_label_1
_geom_bond_atom_site_label_2
_geom_bond_distance
_geom_bond_site_symmetry_2
_ccdc_geom_bond_type
Co0 O2 2.143 . S
Co0 O8 2.074 1_556 S
Co0 O11 2.093 . S
Co0 O24 2.097 . S
Co0 N41 2.151 . S
Co0 N49 2.214 . S
Co1 O2 2.160 1_554 S
Co1 O7 2.058 . S
Co1 O17 2.057 . S
Co1 O32 2.037 . S
Co1 N36 2.145 . S
Co1 N57 2.257 1_554 S
O2 Co0 2.143 . S
O2 Co1 2.160 1_556 S
C3 O4 1.278 . S
C3 O11 1.224 . S
O4 C3 1.278 . S
C5 O6 1.245 1_554 S
C5 O17 1.232 . S
O6 C5 1.245 1_556 S
O7 Co1 2.058 . S
O7 C33 1.269 . S
O8 Co0 2.074 1_554 S
O8 C33 1.257 . S
H9 C34 0.930 . S
H10 C40 0.930 . S
O11 Co0 2.093 . S
O11 C3 1.224 . S
H12 C44 0.929 . S
H13 C46 0.930 . S
H14 C47 0.930 . S
H15 C45 0.929 . S
H16 C48 0.928 . S
O17 Co1 2.057 . S
O17 C5 1.232 . S
H18 C37 0.929 . S
H19 C38 0.929 . S
H20 C50 0.931 . S
H21 C42 0.929 . S
H22 C51 0.930 . S
H23 C43 0.931 . S
O24 Co0 2.097 . S
O24 C52 1.214 1_556 S
H25 C53 0.929 . S
H26 C54 0.929 . S
H27 C55 0.930 . S
H28 C56 0.929 . S
H29 C58 0.930 . S
H30 C35 0.930 . S
H31 C39 0.930 . S
O32 Co1 2.037 . S
O32 C52 1.234 . S
C33 O7 1.269 . S
C33 O8 1.257 . S
C34 H9 0.930 . S
C34 C37 1.388 . S
C34 C39 1.418 . S
C35 H30 0.930 . S
C35 C38 1.404 . S
C35 C39 1.353 . S
N36 Co1 2.145 . S
N36 C37 1.397 . S
N36 C38 1.334 . S
C37 H18 0.929 . S
C37 C34 1.388 . S
C37 N36 1.397 . S
C38 H19 0.929 . S
C38 C35 1.404 . S
C38 N36 1.334 . S
C39 H31 0.930 . S
C39 C34 1.418 . S
C39 C35 1.353 . S
C40 H10 0.930 . S
C40 N41 1.330 . S
C40 C42 1.446 . S
N41 Co0 2.151 . S
N41 C40 1.330 . S
N41 C45 1.418 1_556 S
C42 H21 0.929 . S
C42 C40 1.446 . S
C42 C43 1.332 . S
C43 H23 0.931 . S
C43 C42 1.332 . S
C43 C44 1.267 1_556 S
C44 H12 0.929 . S
C44 C43 1.267 1_554 S
C44 C45 1.251 . S
C45 H15 0.929 . S
C45 N41 1.418 1_554 S
C45 C44 1.251 . S
C46 H13 0.930 . S
C46 C48 1.406 . S
C46 C51 1.261 1_556 S
C47 H14 0.930 . S
C47 N49 1.325 1_554 S
C47 C50 1.357 . S
C48 H16 0.928 . S
C48 C46 1.406 . S
C48 N49 1.261 . S
N49 Co0 2.214 . S
N49 C47 1.325 1_556 S
N49 C48 1.261 . S
C50 H20 0.931 . S
C50 C47 1.357 . S
C50 C51 1.312 . S
C51 H22 0.930 . S
C51 C46 1.261 1_554 S
C51 C50 1.312 . S
C52 O24 1.214 1_554 S
C52 O32 1.234 . S
C53 H25 0.929 . S
C53 C56 1.391 . S
C53 C58 1.391 . S
C54 H26 0.929 . S
C54 C55 1.390 . S
C54 N57 1.391 . S
C55 H27 0.930 . S
C55 C54 1.390 . S
C55 C56 1.392 . S
C56 H28 0.929 . S
C56 C53 1.391 . S
C56 C55 1.392 . S
N57 Co1 2.257 1_556 S
N57 C54 1.391 . S
N57 C58 1.388 . S
C58 H29 0.930 . S
C58 C53 1.391 . S
C58 N57 1.388 . S
Co59 O61 2.143 . S
Co59 O67 2.074 1_556 S
Co59 O70 2.093 . S
Co59 O83 2.097 . S
Co59 N100 2.151 . S
Co59 N108 2.214 . S
Co60 O61 2.160 1_554 S
Co60 O66 2.058 . S
Co60 O76 2.057 . S
Co60 O91 2.037 . S
Co60 N95 2.145 . S
Co60 N116 2.257 1_554 S
O61 Co59 2.143 . S
O61 Co60 2.160 1_556 S
C62 O63 1.278 . S
C62 O70 1.224 . S
O63 C62 1.278 . S
C64 O65 1.245 1_554 S
C64 O76 1.232 . S
O65 C64 1.245 1_556 S
O66 Co60 2.058 . S
O66 C92 1.269 . S
O67 Co59 2.074 1_554 S
O67 C92 1.257 . S
H68 C93 0.930 . S
H69 C99 0.930 . S
O70 Co59 2.093 . S
O70 C62 1.224 . S
H71 C103 0.929 . S
H72 C105 0.930 . S
H73 C106 0.930 . S
H74 C104 0.929 . S
H75 C107 0.928 . S
O76 Co60 2.057 . S
O76 C64 1.232 . S
H77 C96 0.929 . S
H78 C97 0.929 . S
H79 C109 0.931 . S
H80 C101 0.929 . S
H81 C110 0.930 . S
H82 C102 0.931 . S
O83 Co59 2.097 . S
O83 C111 1.214 1_556 S
H84 C112 0.929 . S
H85 C113 0.929 . S
H86 C114 0.930 . S
H87 C115 0.929 . S
H88 C117 0.930 . S
H89 C94 0.930 . S
H90 C98 0.930 . S
O91 Co60 2.037 . S
O91 C111 1.234 . S
C92 O66 1.269 . S
C92 O67 1.257 . S
C93 H68 0.930 . S
C93 C96 1.388 . S
C93 C98 1.418 . S
C94 H89 0.930 . S
C94 C97 1.404 . S
C94 C98 1.353 . S
N95 Co60 2.145 . S
N95 C96 1.397 . S
N95 C97 1.334 . S
C96 H77 0.929 . S
C96 C93 1.388 . S
C96 N95 1.397 . S
C97 H78 0.929 . S
C97 C94 1.404 . S
C97 N95 1.334 . S
C98 H90 0.930 . S
C98 C93 1.418 . S
C98 C94 1.353 . S
C99 H69 0.930 . S
C99 N100 1.330 . S
C99 C101 1.446 . S
N100 Co59 2.151 . S
N100 C99 1.330 . S
N100 C104 1.418 1_556 S
C101 H80 0.929 . S
C101 C99 1.446 . S
C101 C102 1.332 . S
C102 H82 0.931 . S
C102 C101 1.332 . S
C102 C103 1.267 1_556 S
C103 H71 0.929 . S
C103 C102 1.267 1_554 S
C103 C104 1.251 . S
C104 H74 0.929 . S
C104 N100 1.418 1_554 S
C104 C103 1.251 . S
C105 H72 0.930 . S
C105 C107 1.406 . S
C105 C110 1.261 1_556 S
C106 H73 0.930 . S
C106 N108 1.325 1_554 S
C106 C109 1.357 . S
C107 H75 0.928 . S
C107 C105 1.406 . S
C107 N108 1.261 . S
N108 Co59 2.214 . S
N108 C106 1.325 1_556 S
N108 C107 1.261 . S
C109 H79 0.931 . S
C109 C106 1.357 . S
C109 C110 1.312 . S
C110 H81 0.930 . S
C110 C105 1.261 1_554 S
C110 C109 1.312 . S
C111 O83 1.214 1_554 S
C111 O91 1.234 . S
C112 H84 0.929 . S
C112 C115 1.391 . S
C112 C117 1.391 . S
C113 H85 0.929 . S
C113 C114 1.390 . S
C113 N116 1.391 . S
C114 H86 0.930 . S
C114 C113 1.390 . S
C114 C115 1.392 . S
C115 H87 0.929 . S
C115 C112 1.391 . S
C115 C114 1.392 . S
N116 Co60 2.257 1_556 S
N116 C113 1.391 . S
N116 C117 1.388 . S
C117 H88 0.930 . S
C117 C112 1.391 . S
C117 N116 1.388 . S
Co118 O120 2.143 . S
Co118 O126 2.074 1_556 S
Co118 O129 2.093 . S
Co118 O142 2.097 . S
Co118 N159 2.151 . S
Co118 N167 2.214 . S
Co119 O120 2.160 1_554 S
Co119 O125 2.058 . S
Co119 O135 2.057 . S
Co119 O150 2.037 . S
Co119 N154 2.145 . S
Co119 N175 2.257 1_554 S
O120 Co118 2.143 . S
O120 Co119 2.160 1_556 S
C121 O122 1.278 . S
C121 O129 1.224 . S
O122 C121 1.278 . S
C123 O124 1.245 1_554 S
C123 O135 1.232 . S
O124 C123 1.245 1_556 S
O125 Co119 2.058 . S
O125 C151 1.269 . S
O126 Co118 2.074 1_554 S
O126 C151 1.257 . S
H127 C152 0.930 . S
H128 C158 0.930 . S
O129 Co118 2.093 . S
O129 C121 1.224 . S
H130 C162 0.929 . S
H131 C164 0.930 . S
H132 C165 0.930 . S
H133 C163 0.929 . S
H134 C166 0.928 . S
O135 Co119 2.057 . S
O135 C123 1.232 . S
H136 C155 0.929 . S
H137 C156 0.929 . S
H138 C168 0.931 . S
H139 C160 0.929 . S
H140 C169 0.930 . S
H141 C161 0.931 . S
O142 Co118 2.097 . S
O142 C170 1.214 1_556 S
H143 C171 0.929 . S
H144 C172 0.929 . S
H145 C173 0.930 . S
H146 C174 0.929 . S
H147 C176 0.930 . S
H148 C153 0.930 . S
H149 C157 0.930 . S
O150 Co119 2.037 . S
O150 C170 1.234 . S
C151 O125 1.269 . S
C151 O126 1.257 . S
C152 H127 0.930 . S
C152 C155 1.388 . S
C152 C157 1.418 . S
C153 H148 0.930 . S
C153 C156 1.404 . S
C153 C157 1.353 . S
N154 Co119 2.145 . S
N154 C155 1.397 . S
N154 C156 1.334 . S
C155 H136 0.929 . S
C155 C152 1.388 . S
C155 N154 1.397 . S
C156 H137 0.929 . S
C156 C153 1.404 . S
C156 N154 1.334 . S
C157 H149 0.930 . S
C157 C152 1.418 . S
C157 C153 1.353 . S
C158 H128 0.930 . S
C158 N159 1.330 . S
C158 C160 1.446 . S
N159 Co118 2.151 . S
N159 C158 1.330 . S
N159 C163 1.418 1_556 S
C160 H139 0.929 . S
C160 C158 1.446 . S
C160 C161 1.332 . S
C161 H141 0.931 . S
C161 C160 1.332 . S
C161 C162 1.267 1_556 S
C162 H130 0.929 . S
C162 C161 1.267 1_554 S
C162 C163 1.251 . S
C163 H133 0.929 . S
C163 N159 1.418 1_554 S
C163 C162 1.251 . S
C164 H131 0.930 . S
C164 C166 1.406 . S
C164 C169 1.261 1_556 S
C165 H132 0.930 . S
C165 N167 1.325 1_554 S
C165 C168 1.357 . S
C166 H134 0.928 . S
C166 C164 1.406 . S
C166 N167 1.261 . S
N167 Co118 2.214 . S
N167 C165 1.325 1_556 S
N167 C166 1.261 . S
C168 H138 0.931 . S
C168 C165 1.357 . S
C168 C169 1.312 . S
C169 H140 0.930 . S
C169 C164 1.261 1_554 S
C169 C168 1.312 . S
C170 O142 1.214 1_554 S
C170 O150 1.234 . S
C171 H143 0.929 . S
C171 C174 1.391 . S
C171 C176 1.391 . S
C172 H144 0.929 . S
C172 C173 1.390 . S
C172 N175 1.391 . S
C173 H145 0.930 . S
C173 C172 1.390 . S
C173 C174 1.392 . S
C174 H146 0.929 . S
C174 C171 1.391 . S
C174 C173 1.392 . S
N175 Co119 2.257 1_556 S
N175 C172 1.391 . S
N175 C176 1.388 . S
C176 H147 0.930 . S
C176 C171 1.391 . S
C176 N175 1.388 . S
Co177 O179 2.143 . S
Co177 O185 2.074 1_556 S
Co177 O188 2.093 . S
Co177 O201 2.097 . S
Co177 N218 2.151 . S
Co177 N226 2.214 . S
Co178 O179 2.160 1_554 S
Co178 O184 2.058 . S
Co178 O194 2.057 . S
Co178 O209 2.037 . S
Co178 N213 2.145 . S
Co178 N234 2.257 1_554 S
O179 Co177 2.143 . S
O179 Co178 2.160 1_556 S
C180 O181 1.278 . S
C180 O188 1.224 . S
O181 C180 1.278 . S
C182 O183 1.245 1_554 S
C182 O194 1.232 . S
O183 C182 1.245 1_556 S
O184 Co178 2.058 . S
O184 C210 1.269 . S
O185 Co177 2.074 1_554 S
O185 C210 1.257 . S
H186 C211 0.930 . S
H187 C217 0.930 . S
O188 Co177 2.093 . S
O188 C180 1.224 . S
H189 C221 0.929 . S
H190 C223 0.930 . S
H191 C224 0.930 . S
H192 C222 0.929 . S
H193 C225 0.928 . S
O194 Co178 2.057 . S
O194 C182 1.232 . S
H195 C214 0.929 . S
H196 C215 0.929 . S
H197 C227 0.931 . S
H198 C219 0.929 . S
H199 C228 0.930 . S
H200 C220 0.931 . S
O201 Co177 2.097 . S
O201 C229 1.214 1_556 S
H202 C230 0.929 . S
H203 C231 0.929 . S
H204 C232 0.930 . S
H205 C233 0.929 . S
H206 C235 0.930 . S
H207 C212 0.930 . S
H208 C216 0.930 . S
O209 Co178 2.037 . S
O209 C229 1.234 . S
C210 O184 1.269 . S
C210 O185 1.257 . S
C211 H186 0.930 . S
C211 C214 1.388 . S
C211 C216 1.418 . S
C212 H207 0.930 . S
C212 C215 1.404 . S
C212 C216 1.353 . S
N213 Co178 2.145 . S
N213 C214 1.397 . S
N213 C215 1.334 . S
C214 H195 0.929 . S
C214 C211 1.388 . S
C214 N213 1.397 . S
C215 H196 0.929 . S
C215 C212 1.404 . S
C215 N213 1.334 . S
C216 H208 0.930 . S
C216 C211 1.418 . S
C216 C212 1.353 . S
C217 H187 0.930 . S
C217 N218 1.330 . S
C217 C219 1.446 . S
N218 Co177 2.151 . S
N218 C217 1.330 . S
N218 C222 1.418 1_556 S
C219 H198 0.929 . S
C219 C217 1.446 . S
C219 C220 1.332 . S
C220 H200 0.931 . S
C220 C219 1.332 . S
C220 C221 1.267 1_556 S
C221 H189 0.929 . S
C221 C220 1.267 1_554 S
C221 C222 1.251 . S
C222 H192 0.929 . S
C222 N218 1.418 1_554 S
C222 C221 1.251 . S
C223 H190 0.930 . S
C223 C225 1.406 . S
C223 C228 1.261 1_556 S
C224 H191 0.930 . S
C224 N226 1.325 1_554 S
C224 C227 1.357 . S
C225 H193 0.928 . S
C225 C223 1.406 . S
C225 N226 1.261 . S
N226 Co177 2.214 . S
N226 C224 1.325 1_556 S
N226 C225 1.261 . S
C227 H197 0.931 . S
C227 C224 1.357 . S
C227 C228 1.312 . S
C228 H199 0.930 . S
C228 C223 1.261 1_554 S
C228 C227 1.312 . S
C229 O201 1.214 1_554 S
C229 O209 1.234 . S
C230 H202 0.929 . S
C230 C233 1.391 . S
C230 C235 1.391 . S
C231 H203 0.929 . S
C231 C232 1.390 . S
C231 N234 1.391 . S
C232 H204 0.930 . S
C232 C231 1.390 . S
C232 C233 1.392 . S
C233 H205 0.929 . S
C233 C230 1.391 . S
C233 C232 1.392 . S
N234 Co178 2.257 1_556 S
N234 C231 1.391 . S
N234 C235 1.388 . S
C235 H206 0.930 . S
C235 C230 1.391 . S
C235 N234 1.388 . S
Co236 O238 2.143 . S
Co236 O244 2.074 1_554 S
Co236 O247 2.093 . S
Co236 O260 2.097 . S
Co236 N277 2.151 . S
Co236 N285 2.214 . S
Co237 O238 2.160 1_556 S
Co237 O243 2.058 . S
Co237 O253 2.057 . S
Co237 O268 2.037 . S
Co237 N272 2.145 . S
Co237 N293 2.257 1_556 S
O238 Co236 2.143 . S
O238 Co237 2.160 1_554 S
C239 O240 1.278 . S
C239 O247 1.224 . S
O240 C239 1.278 . S
C241 O242 1.245 1_556 S
C241 O253 1.232 . S
O242 C241 1.245 1_554 S
O243 Co237 2.058 . S
O243 C269 1.269 . S
O244 Co236 2.074 1_556 S
O244 C269 1.257 . S
H245 C270 0.930 . S
H246 C276 0.930 . S
O247 Co236 2.093 . S
O247 C239 1.224 . S
H248 C280 0.929 . S
H249 C282 0.930 . S
H250 C283 0.930 . S
H251 C281 0.929 . S
H252 C284 0.928 . S
O253 Co237 2.057 . S
O253 C241 1.232 . S
H254 C273 0.929 . S
H255 C274 0.929 . S
H256 C286 0.931 . S
H257 C278 0.929 . S
H258 C287 0.930 . S
H259 C279 0.931 . S
O260 Co236 2.097 . S
O260 C288 1.214 1_554 S
H261 C289 0.929 . S
H262 C290 0.929 . S
H263 C291 0.930 . S
H264 C292 0.929 . S
H265 C294 0.930 . S
H266 C271 0.930 . S
H267 C275 0.930 . S
O268 Co237 2.037 . S
O268 C288 1.234 . S
C269 O243 1.269 . S
C269 O244 1.257 . S
C270 H245 0.930 . S
C270 C273 1.388 . S
C270 C275 1.418 . S
C271 H266 0.930 . S
C271 C274 1.404 . S
C271 C275 1.353 . S
N272 Co237 2.145 . S
N272 C273 1.397 . S
N272 C274 1.334 . S
C273 H254 0.929 . S
C273 C270 1.388 . S
C273 N272 1.397 . S
C274 H255 0.929 . S
C274 C271 1.404 . S
C274 N272 1.334 . S
C275 H267 0.930 . S
C275 C270 1.418 . S
C275 C271 1.353 . S
C276 H246 0.930 . S
C276 N277 1.330 . S
C276 C278 1.446 . S
N277 Co236 2.151 . S
N277 C276 1.330 . S
N277 C281 1.418 1_554 S
C278 H257 0.929 . S
C278 C276 1.446 . S
C278 C279 1.332 . S
C279 H259 0.931 . S
C279 C278 1.332 . S
C279 C280 1.267 1_554 S
C280 H248 0.929 . S
C280 C279 1.267 1_556 S
C280 C281 1.251 . S
C281 H251 0.929 . S
C281 N277 1.418 1_556 S
C281 C280 1.251 . S
C282 H249 0.930 . S
C282 C284 1.406 . S
C282 C287 1.261 1_554 S
C283 H250 0.930 . S
C283 N285 1.325 1_556 S
C283 C286 1.357 . S
C284 H252 0.928 . S
C284 C282 1.406 . S
C284 N285 1.261 . S
N285 Co236 2.214 . S
N285 C283 1.325 1_554 S
N285 C284 1.261 . S
C286 H256 0.931 . S
C286 C283 1.357 . S
C286 C287 1.312 . S
C287 H258 0.930 . S
C287 C282 1.261 1_556 S
C287 C286 1.312 . S
C288 O260 1.214 1_556 S
C288 O268 1.234 . S
C289 H261 0.929 . S
C289 C292 1.391 . S
C289 C294 1.391 . S
C290 H262 0.929 . S
C290 C291 1.390 . S
C290 N293 1.391 . S
C291 H263 0.930 . S
C291 C290 1.390 . S
C291 C292 1.392 . S
C292 H264 0.929 . S
C292 C289 1.391 . S
C292 C291 1.392 . S
N293 Co237 2.257 1_554 S
N293 C290 1.391 . S
N293 C294 1.388 . S
C294 H265 0.930 . S
C294 C289 1.391 . S
C294 N293 1.388 . S
Co295 O297 2.143 . S
Co295 O303 2.074 1_554 S
Co295 O306 2.093 . S
Co295 O319 2.097 . S
Co295 N336 2.151 . S
Co295 N344 2.214 . S
Co296 O297 2.160 1_556 S
Co296 O302 2.058 . S
Co296 O312 2.057 . S
Co296 O327 2.037 . S
Co296 N331 2.145 . S
Co296 N352 2.257 1_556 S
O297 Co295 2.143 . S
O297 Co296 2.160 1_554 S
C298 O299 1.278 . S
C298 O306 1.224 . S
O299 C298 1.278 . S
C300 O301 1.245 1_556 S
C300 O312 1.232 . S
O301 C300 1.245 1_554 S
O302 Co296 2.058 . S
O302 C328 1.269 . S
O303 Co295 2.074 1_556 S
O303 C328 1.257 . S
H304 C329 0.930 . S
H305 C335 0.930 . S
O306 Co295 2.093 . S
O306 C298 1.224 . S
H307 C339 0.929 . S
H308 C341 0.930 . S
H309 C342 0.930 . S
H310 C340 0.929 . S
H311 C343 0.928 . S
O312 Co296 2.057 . S
O312 C300 1.232 . S
H313 C332 0.929 . S
H314 C333 0.929 . S
H315 C345 0.931 . S
H316 C337 0.929 . S
H317 C346 0.930 . S
H318 C338 0.931 . S
O319 Co295 2.097 . S
O319 C347 1.214 1_554 S
H320 C348 0.929 . S
H321 C349 0.929 . S
H322 C350 0.930 . S
H323 C351 0.929 . S
H324 C353 0.930 . S
H325 C330 0.930 . S
H326 C334 0.930 . S
O327 Co296 2.037 . S
O327 C347 1.234 . S
C328 O302 1.269 . S
C328 O303 1.257 . S
C329 H304 0.930 . S
C329 C332 1.388 . S
C329 C334 1.418 . S
C330 H325 0.930 . S
C330 C333 1.404 . S
C330 C334 1.353 . S
N331 Co296 2.145 . S
N331 C332 1.397 . S
N331 C333 1.334 . S
C332 H313 0.929 . S
C332 C329 1.388 . S
C332 N331 1.397 . S
C333 H314 0.929 . S
C333 C330 1.404 . S
C333 N331 1.334 . S
C334 H326 0.930 . S
C334 C329 1.418 . S
C334 C330 1.353 . S
C335 H305 0.930 . S
C335 N336 1.330 . S
C335 C337 1.446 . S
N336 Co295 2.151 . S
N336 C335 1.330 . S
N336 C340 1.418 1_554 S
C337 H316 0.929 . S
C337 C335 1.446 . S
C337 C338 1.332 . S
C338 H318 0.931 . S
C338 C337 1.332 . S
C338 C339 1.267 1_554 S
C339 H307 0.929 . S
C339 C338 1.267 1_556 S
C339 C340 1.251 . S
C340 H310 0.929 . S
C340 N336 1.418 1_556 S
C340 C339 1.251 . S
C341 H308 0.930 . S
C341 C343 1.406 . S
C341 C346 1.261 1_554 S
C342 H309 0.930 . S
C342 N344 1.325 1_556 S
C342 C345 1.357 . S
C343 H311 0.928 . S
C343 C341 1.406 . S
C343 N344 1.261 . S
N344 Co295 2.214 . S
N344 C342 1.325 1_554 S
N344 C343 1.261 . S
C345 H315 0.931 . S
C345 C342 1.357 . S
C345 C346 1.312 . S
C346 H317 0.930 . S
C346 C341 1.261 1_556 S
C346 C345 1.312 . S
C347 O319 1.214 1_556 S
C347 O327 1.234 . S
C348 H320 0.929 . S
C348 C351 1.391 . S
C348 C353 1.391 . S
C349 H321 0.929 . S
C349 C350 1.390 . S
C349 N352 1.391 . S
C350 H322 0.930 . S
C350 C349 1.390 . S
C350 C351 1.392 . S
C351 H323 0.929 . S
C351 C348 1.391 . S
C351 C350 1.392 . S
N352 Co296 2.257 1_554 S
N352 C349 1.391 . S
N352 C353 1.388 . S
C353 H324 0.930 . S
C353 C348 1.391 . S
C353 N352 1.388 . S
Co354 O356 2.143 . S
Co354 O362 2.074 1_554 S
Co354 O365 2.093 . S
Co354 O378 2.097 . S
Co354 N395 2.151 . S
Co354 N403 2.214 . S
Co355 O356 2.160 1_556 S
Co355 O361 2.058 . S
Co355 O371 2.057 . S
Co355 O386 2.037 . S
Co355 N390 2.145 . S
Co355 N411 2.257 1_556 S
O356 Co354 2.143 . S
O356 Co355 2.160 1_554 S
C357 O358 1.278 . S
C357 O365 1.224 . S
O358 C357 1.278 . S
C359 O360 1.245 1_556 S
C359 O371 1.232 . S
O360 C359 1.245 1_554 S
O361 Co355 2.058 . S
O361 C387 1.269 . S
O362 Co354 2.074 1_556 S
O362 C387 1.257 . S
H363 C388 0.930 . S
H364 C394 0.930 . S
O365 Co354 2.093 . S
O365 C357 1.224 . S
H366 C398 0.929 . S
H367 C400 0.930 . S
H368 C401 0.930 . S
H369 C399 0.929 . S
H370 C402 0.928 . S
O371 Co355 2.057 . S
O371 C359 1.232 . S
H372 C391 0.929 . S
H373 C392 0.929 . S
H374 C404 0.931 . S
H375 C396 0.929 . S
H376 C405 0.930 . S
H377 C397 0.931 . S
O378 Co354 2.097 . S
O378 C406 1.214 1_554 S
H379 C407 0.929 . S
H380 C408 0.929 . S
H381 C409 0.930 . S
H382 C410 0.929 . S
H383 C412 0.930 . S
H384 C389 0.930 . S
H385 C393 0.930 . S
O386 Co355 2.037 . S
O386 C406 1.234 . S
C387 O361 1.269 . S
C387 O362 1.257 . S
C388 H363 0.930 . S
C388 C391 1.388 . S
C388 C393 1.418 . S
C389 H384 0.930 . S
C389 C392 1.404 . S
C389 C393 1.353 . S
N390 Co355 2.145 . S
N390 C391 1.397 . S
N390 C392 1.334 . S
C391 H372 0.929 . S
C391 C388 1.388 . S
C391 N390 1.397 . S
C392 H373 0.929 . S
C392 C389 1.404 . S
C392 N390 1.334 . S
C393 H385 0.930 . S
C393 C388 1.418 . S
C393 C389 1.353 . S
C394 H364 0.930 . S
C394 N395 1.330 . S
C394 C396 1.446 . S
N395 Co354 2.151 . S
N395 C394 1.330 . S
N395 C399 1.418 1_554 S
C396 H375 0.929 . S
C396 C394 1.446 . S
C396 C397 1.332 . S
C397 H377 0.931 . S
C397 C396 1.332 . S
C397 C398 1.267 1_554 S
C398 H366 0.929 . S
C398 C397 1.267 1_556 S
C398 C399 1.251 . S
C399 H369 0.929 . S
C399 N395 1.418 1_556 S
C399 C398 1.251 . S
C400 H367 0.930 . S
C400 C402 1.406 . S
C400 C405 1.261 1_554 S
C401 H368 0.930 . S
C401 N403 1.325 1_556 S
C401 C404 1.357 . S
C402 H370 0.928 . S
C402 C400 1.406 . S
C402 N403 1.261 . S
N403 Co354 2.214 . S
N403 C401 1.325 1_554 S
N403 C402 1.261 . S
C404 H374 0.931 . S
C404 C401 1.357 . S
C404 C405 1.312 . S
C405 H376 0.930 . S
C405 C400 1.261 1_556 S
C405 C404 1.312 . S
C406 O378 1.214 1_556 S
C406 O386 1.234 . S
C407 H379 0.929 . S
C407 C410 1.391 . S
C407 C412 1.391 . S
C408 H380 0.929 . S
C408 C409 1.390 . S
C408 N411 1.391 . S
C409 H381 0.930 . S
C409 C408 1.390 . S
C409 C410 1.392 . S
C410 H382 0.929 . S
C410 C407 1.391 . S
C410 C409 1.392 . S
N411 Co355 2.257 1_554 S
N411 C408 1.391 . S
N411 C412 1.388 . S
C412 H383 0.930 . S
C412 C407 1.391 . S
C412 N411 1.388 . S
Co413 O415 2.143 . S
Co413 O421 2.074 1_554 S
Co413 O424 2.093 . S
Co413 O437 2.097 . S
Co413 N454 2.151 . S
Co413 N462 2.214 . S
Co414 O415 2.160 1_556 S
Co414 O420 2.058 . S
Co414 O430 2.057 . S
Co414 O445 2.037 . S
Co414 N449 2.145 . S
Co414 N470 2.257 1_556 S
O415 Co413 2.143 . S
O415 Co414 2.160 1_554 S
C416 O417 1.278 . S
C416 O424 1.224 . S
O417 C416 1.278 . S
C418 O419 1.245 1_556 S
C418 O430 1.232 . S
O419 C418 1.245 1_554 S
O420 Co414 2.058 . S
O420 C446 1.269 . S
O421 Co413 2.074 1_556 S
O421 C446 1.257 . S
H422 C447 0.930 . S
H423 C453 0.930 . S
O424 Co413 2.093 . S
O424 C416 1.224 . S
H425 C457 0.929 . S
H426 C459 0.930 . S
H427 C460 0.930 . S
H428 C458 0.929 . S
H429 C461 0.928 . S
O430 Co414 2.057 . S
O430 C418 1.232 . S
H431 C450 0.929 . S
H432 C451 0.929 . S
H433 C463 0.931 . S
H434 C455 0.929 . S
H435 C464 0.930 . S
H436 C456 0.931 . S
O437 Co413 2.097 . S
O437 C465 1.214 1_554 S
H438 C466 0.929 . S
H439 C467 0.929 . S
H440 C468 0.930 . S
H441 C469 0.929 . S
H442 C471 0.930 . S
H443 C448 0.930 . S
H444 C452 0.930 . S
O445 Co414 2.037 . S
O445 C465 1.234 . S
C446 O420 1.269 . S
C446 O421 1.257 . S
C447 H422 0.930 . S
C447 C450 1.388 . S
C447 C452 1.418 . S
C448 H443 0.930 . S
C448 C451 1.404 . S
C448 C452 1.353 . S
N449 Co414 2.145 . S
N449 C450 1.397 . S
N449 C451 1.334 . S
C450 H431 0.929 . S
C450 C447 1.388 . S
C450 N449 1.397 . S
C451 H432 0.929 . S
C451 C448 1.404 . S
C451 N449 1.334 . S
C452 H444 0.930 . S
C452 C447 1.418 . S
C452 C448 1.353 . S
C453 H423 0.930 . S
C453 N454 1.330 . S
C453 C455 1.446 . S
N454 Co413 2.151 . S
N454 C453 1.330 . S
N454 C458 1.418 1_554 S
C455 H434 0.929 . S
C455 C453 1.446 . S
C455 C456 1.332 . S
C456 H436 0.931 . S
C456 C455 1.332 . S
C456 C457 1.267 1_554 S
C457 H425 0.929 . S
C457 C456 1.267 1_556 S
C457 C458 1.251 . S
C458 H428 0.929 . S
C458 N454 1.418 1_556 S
C458 C457 1.251 . S
C459 H426 0.930 . S
C459 C461 1.406 . S
C459 C464 1.261 1_554 S
C460 H427 0.930 . S
C460 N462 1.325 1_556 S
C460 C463 1.357 . S
C461 H429 0.928 . S
C461 C459 1.406 . S
C461 N462 1.261 . S
N462 Co413 2.214 . S
N462 C460 1.325 1_554 S
N462 C461 1.261 . S
C463 H433 0.931 . S
C463 C460 1.357 . S
C463 C464 1.312 . S
C464 H435 0.930 . S
C464 C459 1.261 1_556 S
C464 C463 1.312 . S
C465 O437 1.214 1_556 S
C465 O445 1.234 . S
C466 H438 0.929 . S
C466 C469 1.391 . S
C466 C471 1.391 . S
C467 H439 0.929 . S
C467 C468 1.390 . S
C467 N470 1.391 . S
C468 H440 0.930 . S
C468 C467 1.390 . S
C468 C469 1.392 . S
C469 H441 0.929 . S
C469 C466 1.391 . S
C469 C468 1.392 . S
N470 Co414 2.257 1_554 S
N470 C467 1.391 . S
N470 C471 1.388 . S
C471 H442 0.930 . S
C471 C466 1.391 . S
C471 N470 1.388 . S
Co472 O474 2.143 . S
Co472 O480 2.074 . S
Co472 O483 2.093 . S
Co472 O496 2.097 . S
Co472 N513 2.151 . S
Co472 N521 2.214 . S
Co473 O474 2.160 . S
Co473 O479 2.058 . S
Co473 O489 2.057 . S
Co473 O504 2.037 . S
Co473 N508 2.145 . S
Co473 N529 2.257 . S
O474 Co472 2.143 . S
O474 Co473 2.160 . S
C475 O476 1.278 . S
C475 O483 1.224 . S
O476 C475 1.278 . S
C477 O478 1.245 . S
C477 O489 1.232 . S
O478 C477 1.245 . S
O479 Co473 2.058 . S
O479 C505 1.269 . S
O480 Co472 2.074 . S
O480 C505 1.257 . S
H481 C506 0.930 . S
H482 C512 0.930 . S
O483 Co472 2.093 . S
O483 C475 1.224 . S
H484 C516 0.929 . S
H485 C518 0.930 . S
H486 C519 0.930 . S
H487 C517 0.929 . S
H488 C520 0.928 . S
O489 Co473 2.057 . S
O489 C477 1.232 . S
H490 C509 0.929 . S
H491 C510 0.929 . S
H492 C522 0.931 . S
H493 C514 0.929 . S
H494 C523 0.930 . S
H495 C515 0.931 . S
O496 Co472 2.097 . S
O496 C524 1.214 . S
H497 C525 0.929 . S
H498 C526 0.929 . S
H499 C527 0.930 . S
H500 C528 0.929 . S
H501 C530 0.930 . S
H502 C507 0.930 . S
H503 C511 0.930 . S
O504 Co473 2.037 . S
O504 C524 1.234 . S
C505 O479 1.269 . S
C505 O480 1.257 . S
C506 H481 0.930 . S
C506 C509 1.388 . S
C506 C511 1.418 . S
C507 H502 0.930 . S
C507 C510 1.404 . S
C507 C511 1.353 . S
N508 Co473 2.145 . S
N508 C509 1.397 . S
N508 C510 1.334 . S
C509 H490 0.929 . S
C509 C506 1.388 . S
C509 N508 1.397 . S
C510 H491 0.929 . S
C510 C507 1.404 . S
C510 N508 1.334 . S
C511 H503 0.930 . S
C511 C506 1.418 . S
C511 C507 1.353 . S
C512 H482 0.930 . S
C512 N513 1.330 . S
C512 C514 1.446 . S
N513 Co472 2.151 . S
N513 C512 1.330 . S
N513 C517 1.418 . S
C514 H493 0.929 . S
C514 C512 1.446 . S
C514 C515 1.332 . S
C515 H495 0.931 . S
C515 C514 1.332 . S
C515 C516 1.267 . S
C516 H484 0.929 . S
C516 C515 1.267 . S
C516 C517 1.251 . S
C517 H487 0.929 . S
C517 N513 1.418 . S
C517 C516 1.251 . S
C518 H485 0.930 . S
C518 C520 1.406 . S
C518 C523 1.261 . S
C519 H486 0.930 . S
C519 N521 1.325 . S
C519 C522 1.357 . S
C520 H488 0.928 . S
C520 C518 1.406 . S
C520 N521 1.261 . S
N521 Co472 2.214 . S
N521 C519 1.325 . S
N521 C520 1.261 . S
C522 H492 0.931 . S
C522 C519 1.357 . S
C522 C523 1.312 . S
C523 H494 0.930 . S
C523 C518 1.261 . S
C523 C522 1.312 . S
C524 O496 1.214 . S
C524 O504 1.234 . S
C525 H497 0.929 . S
C525 C528 1.391 . S
C525 C530 1.391 . S
C526 H498 0.929 . S
C526 C527 1.390 . S
C526 N529 1.391 . S
C527 H499 0.930 . S
C527 C526 1.390 . S
C527 C528 1.392 . S
C528 H500 0.929 . S
C528 C525 1.391 . S
C528 C527 1.392 . S
N529 Co473 2.257 . S
N529 C526 1.391 . S
N529 C530 1.388 . S
C530 H501 0.930 . S
C530 C525 1.391 . S
C530 N529 1.388 . S
Co531 O533 2.143 . S
Co531 O539 2.074 . S
Co531 O542 2.093 . S
Co531 O555 2.097 . S
Co531 N572 2.151 . S
Co531 N580 2.214 . S
Co532 O533 2.160 . S
Co532 O538 2.058 . S
Co532 O548 2.057 . S
Co532 O563 2.037 . S
Co532 N567 2.145 . S
Co532 N588 2.257 . S
O533 Co531 2.143 . S
O533 Co532 2.160 . S
C534 O535 1.278 . S
C534 O542 1.224 . S
O535 C534 1.278 . S
C536 O537 1.245 . S
C536 O548 1.232 . S
O537 C536 1.245 . S
O538 Co532 2.058 . S
O538 C564 1.269 . S
O539 Co531 2.074 . S
O539 C564 1.257 . S
H540 C565 0.930 . S
H541 C571 0.930 . S
O542 Co531 2.093 . S
O542 C534 1.224 . S
H543 C575 0.929 . S
H544 C577 0.930 . S
H545 C578 0.930 . S
H546 C576 0.929 . S
H547 C579 0.928 . S
O548 Co532 2.057 . S
O548 C536 1.232 . S
H549 C568 0.929 . S
H550 C569 0.929 . S
H551 C581 0.931 . S
H552 C573 0.929 . S
H553 C582 0.930 . S
H554 C574 0.931 . S
O555 Co531 2.097 . S
O555 C583 1.214 . S
H556 C584 0.929 . S
H557 C585 0.929 . S
H558 C586 0.930 . S
H559 C587 0.929 . S
H560 C589 0.930 . S
H561 C566 0.930 . S
H562 C570 0.930 . S
O563 Co532 2.037 . S
O563 C583 1.234 . S
C564 O538 1.269 . S
C564 O539 1.257 . S
C565 H540 0.930 . S
C565 C568 1.388 . S
C565 C570 1.418 . S
C566 H561 0.930 . S
C566 C569 1.404 . S
C566 C570 1.353 . S
N567 Co532 2.145 . S
N567 C568 1.397 . S
N567 C569 1.334 . S
C568 H549 0.929 . S
C568 C565 1.388 . S
C568 N567 1.397 . S
C569 H550 0.929 . S
C569 C566 1.404 . S
C569 N567 1.334 . S
C570 H562 0.930 . S
C570 C565 1.418 . S
C570 C566 1.353 . S
C571 H541 0.930 . S
C571 N572 1.330 . S
C571 C573 1.446 . S
N572 Co531 2.151 . S
N572 C571 1.330 . S
N572 C576 1.418 . S
C573 H552 0.929 . S
C573 C571 1.446 . S
C573 C574 1.332 . S
C574 H554 0.931 . S
C574 C573 1.332 . S
C574 C575 1.267 . S
C575 H543 0.929 . S
C575 C574 1.267 . S
C575 C576 1.251 . S
C576 H546 0.929 . S
C576 N572 1.418 . S
C576 C575 1.251 . S
C577 H544 0.930 . S
C577 C579 1.406 . S
C577 C582 1.261 . S
C578 H545 0.930 . S
C578 N580 1.325 . S
C578 C581 1.357 . S
C579 H547 0.928 . S
C579 C577 1.406 . S
C579 N580 1.261 . S
N580 Co531 2.214 . S
N580 C578 1.325 . S
N580 C579 1.261 . S
C581 H551 0.931 . S
C581 C578 1.357 . S
C581 C582 1.312 . S
C582 H553 0.930 . S
C582 C577 1.261 . S
C582 C581 1.312 . S
C583 O555 1.214 . S
C583 O563 1.234 . S
C584 H556 0.929 . S
C584 C587 1.391 . S
C584 C589 1.391 . S
C585 H557 0.929 . S
C585 C586 1.390 . S
C585 N588 1.391 . S
C586 H558 0.930 . S
C586 C585 1.390 . S
C586 C587 1.392 . S
C587 H559 0.929 . S
C587 C584 1.391 . S
C587 C586 1.392 . S
N588 Co532 2.257 . S
N588 C585 1.391 . S
N588 C589 1.388 . S
C589 H560 0.930 . S
C589 C584 1.391 . S
C589 N588 1.388 . S
Co590 O592 2.143 . S
Co590 O598 2.074 . S
Co590 O601 2.093 . S
Co590 O614 2.097 . S
Co590 N631 2.151 . S
Co590 N639 2.214 . S
Co591 O592 2.160 . S
Co591 O597 2.058 . S
Co591 O607 2.057 . S
Co591 O622 2.037 . S
Co591 N626 2.145 . S
Co591 N647 2.257 . S
O592 Co590 2.143 . S
O592 Co591 2.160 . S
C593 O594 1.278 . S
C593 O601 1.224 . S
O594 C593 1.278 . S
C595 O596 1.245 . S
C595 O607 1.232 . S
O596 C595 1.245 . S
O597 Co591 2.058 . S
O597 C623 1.269 . S
O598 Co590 2.074 . S
O598 C623 1.257 . S
H599 C624 0.930 . S
H600 C630 0.930 . S
O601 Co590 2.093 . S
O601 C593 1.224 . S
H602 C634 0.929 . S
H603 C636 0.930 . S
H604 C637 0.930 . S
H605 C635 0.929 . S
H606 C638 0.928 . S
O607 Co591 2.057 . S
O607 C595 1.232 . S
H608 C627 0.929 . S
H609 C628 0.929 . S
H610 C640 0.931 . S
H611 C632 0.929 . S
H612 C641 0.930 . S
H613 C633 0.931 . S
O614 Co590 2.097 . S
O614 C642 1.214 . S
H615 C643 0.929 . S
H616 C644 0.929 . S
H617 C645 0.930 . S
H618 C646 0.929 . S
H619 C648 0.930 . S
H620 C625 0.930 . S
H621 C629 0.930 . S
O622 Co591 2.037 . S
O622 C642 1.234 . S
C623 O597 1.269 . S
C623 O598 1.257 . S
C624 H599 0.930 . S
C624 C627 1.388 . S
C624 C629 1.418 . S
C625 H620 0.930 . S
C625 C628 1.404 . S
C625 C629 1.353 . S
N626 Co591 2.145 . S
N626 C627 1.397 . S
N626 C628 1.334 . S
C627 H608 0.929 . S
C627 C624 1.388 . S
C627 N626 1.397 . S
C628 H609 0.929 . S
C628 C625 1.404 . S
C628 N626 1.334 . S
C629 H621 0.930 . S
C629 C624 1.418 . S
C629 C625 1.353 . S
C630 H600 0.930 . S
C630 N631 1.330 . S
C630 C632 1.446 . S
N631 Co590 2.151 . S
N631 C630 1.330 . S
N631 C635 1.418 . S
C632 H611 0.929 . S
C632 C630 1.446 . S
C632 C633 1.332 . S
C633 H613 0.931 . S
C633 C632 1.332 . S
C633 C634 1.267 . S
C634 H602 0.929 . S
C634 C633 1.267 . S
C634 C635 1.251 . S
C635 H605 0.929 . S
C635 N631 1.418 . S
C635 C634 1.251 . S
C636 H603 0.930 . S
C636 C638 1.406 . S
C636 C641 1.261 . S
C637 H604 0.930 . S
C637 N639 1.325 . S
C637 C640 1.357 . S
C638 H606 0.928 . S
C638 C636 1.406 . S
C638 N639 1.261 . S
N639 Co590 2.214 . S
N639 C637 1.325 . S
N639 C638 1.261 . S
C640 H610 0.931 . S
C640 C637 1.357 . S
C640 C641 1.312 . S
C641 H612 0.930 . S
C641 C636 1.261 . S
C641 C640 1.312 . S
C642 O614 1.214 . S
C642 O622 1.234 . S
C643 H615 0.929 . S
C643 C646 1.391 . S
C643 C648 1.391 . S
C644 H616 0.929 . S
C644 C645 1.390 . S
C644 N647 1.391 . S
C645 H617 0.930 . S
C645 C644 1.390 . S
C645 C646 1.392 . S
C646 H618 0.929 . S
C646 C643 1.391 . S
C646 C645 1.392 . S
N647 Co591 2.257 . S
N647 C644 1.391 . S
N647 C648 1.388 . S
C648 H619 0.930 . S
C648 C643 1.391 . S
C648 N647 1.388 . S
Co649 O651 2.143 . S
Co649 O657 2.074 . S
Co649 O660 2.093 . S
Co649 O673 2.097 . S
Co649 N690 2.151 . S
Co649 N698 2.214 . S
Co650 O651 2.160 . S
Co650 O656 2.058 . S
Co650 O666 2.057 . S
Co650 O681 2.037 . S
Co650 N685 2.145 . S
Co650 N706 2.257 . S
O651 Co649 2.143 . S
O651 Co650 2.160 . S
C652 O653 1.278 . S
C652 O660 1.224 . S
O653 C652 1.278 . S
C654 O655 1.245 . S
C654 O666 1.232 . S
O655 C654 1.245 . S
O656 Co650 2.058 . S
O656 C682 1.269 . S
O657 Co649 2.074 . S
O657 C682 1.257 . S
H658 C683 0.930 . S
H659 C689 0.930 . S
O660 Co649 2.093 . S
O660 C652 1.224 . S
H661 C693 0.929 . S
H662 C695 0.930 . S
H663 C696 0.930 . S
H664 C694 0.929 . S
H665 C697 0.928 . S
O666 Co650 2.057 . S
O666 C654 1.232 . S
H667 C686 0.929 . S
H668 C687 0.929 . S
H669 C699 0.931 . S
H670 C691 0.929 . S
H671 C700 0.930 . S
H672 C692 0.931 . S
O673 Co649 2.097 . S
O673 C701 1.214 . S
H674 C702 0.929 . S
H675 C703 0.929 . S
H676 C704 0.930 . S
H677 C705 0.929 . S
H678 C707 0.930 . S
H679 C684 0.930 . S
H680 C688 0.930 . S
O681 Co650 2.037 . S
O681 C701 1.234 . S
C682 O656 1.269 . S
C682 O657 1.257 . S
C683 H658 0.930 . S
C683 C686 1.388 . S
C683 C688 1.418 . S
C684 H679 0.930 . S
C684 C687 1.404 . S
C684 C688 1.353 . S
N685 Co650 2.145 . S
N685 C686 1.397 . S
N685 C687 1.334 . S
C686 H667 0.929 . S
C686 C683 1.388 . S
C686 N685 1.397 . S
C687 H668 0.929 . S
C687 C684 1.404 . S
C687 N685 1.334 . S
C688 H680 0.930 . S
C688 C683 1.418 . S
C688 C684 1.353 . S
C689 H659 0.930 . S
C689 N690 1.330 . S
C689 C691 1.446 . S
N690 Co649 2.151 . S
N690 C689 1.330 . S
N690 C694 1.418 . S
C691 H670 0.929 . S
C691 C689 1.446 . S
C691 C692 1.332 . S
C692 H672 0.931 . S
C692 C691 1.332 . S
C692 C693 1.267 . S
C693 H661 0.929 . S
C693 C692 1.267 . S
C693 C694 1.251 . S
C694 H664 0.929 . S
C694 N690 1.418 . S
C694 C693 1.251 . S
C695 H662 0.930 . S
C695 C697 1.406 . S
C695 C700 1.261 . S
C696 H663 0.930 . S
C696 N698 1.325 . S
C696 C699 1.357 . S
C697 H665 0.928 . S
C697 C695 1.406 . S
C697 N698 1.261 . S
N698 Co649 2.214 . S
N698 C696 1.325 . S
N698 C697 1.261 . S
C699 H669 0.931 . S
C699 C696 1.357 . S
C699 C700 1.312 . S
C700 H671 0.930 . S
C700 C695 1.261 . S
C700 C699 1.312 . S
C701 O673 1.214 . S
C701 O681 1.234 . S
C702 H674 0.929 . S
C702 C705 1.391 . S
C702 C707 1.391 . S
C703 H675 0.929 . S
C703 C704 1.390 . S
C703 N706 1.391 . S
C704 H676 0.930 . S
C704 C703 1.390 . S
C704 C705 1.392 . S
C705 H677 0.929 . S
C705 C702 1.391 . S
C705 C704 1.392 . S
N706 Co650 2.257 . S
N706 C703 1.391 . S
N706 C707 1.388 . S
C707 H678 0.930 . S
C707 C702 1.391 . S
C707 N706 1.388 . S
Co708 O710 2.143 . S
Co708 O716 2.074 . S
Co708 O719 2.093 . S
Co708 O732 2.097 . S
Co708 N749 2.151 . S
Co708 N757 2.214 . S
Co709 O710 2.160 . S
Co709 O715 2.058 . S
Co709 O725 2.057 . S
Co709 O740 2.037 . S
Co709 N744 2.145 . S
Co709 N765 2.257 . S
O710 Co708 2.143 . S
O710 Co709 2.160 . S
C711 O712 1.278 . S
C711 O719 1.224 . S
O712 C711 1.278 . S
C713 O714 1.245 . S
C713 O725 1.232 . S
O714 C713 1.245 . S
O715 Co709 2.058 . S
O715 C741 1.269 . S
O716 Co708 2.074 . S
O716 C741 1.257 . S
H717 C742 0.930 . S
H718 C748 0.930 . S
O719 Co708 2.093 . S
O719 C711 1.224 . S
H720 C752 0.929 . S
H721 C754 0.930 . S
H722 C755 0.930 . S
H723 C753 0.929 . S
H724 C756 0.928 . S
O725 Co709 2.057 . S
O725 C713 1.232 . S
H726 C745 0.929 . S
H727 C746 0.929 . S
H728 C758 0.931 . S
H729 C750 0.929 . S
H730 C759 0.930 . S
H731 C751 0.931 . S
O732 Co708 2.097 . S
O732 C760 1.214 . S
H733 C761 0.929 . S
H734 C762 0.929 . S
H735 C763 0.930 . S
H736 C764 0.929 . S
H737 C766 0.930 . S
H738 C743 0.930 . S
H739 C747 0.930 . S
O740 Co709 2.037 . S
O740 C760 1.234 . S
C741 O715 1.269 . S
C741 O716 1.257 . S
C742 H717 0.930 . S
C742 C745 1.388 . S
C742 C747 1.418 . S
C743 H738 0.930 . S
C743 C746 1.404 . S
C743 C747 1.353 . S
N744 Co709 2.145 . S
N744 C745 1.397 . S
N744 C746 1.334 . S
C745 H726 0.929 . S
C745 C742 1.388 . S
C745 N744 1.397 . S
C746 H727 0.929 . S
C746 C743 1.404 . S
C746 N744 1.334 . S
C747 H739 0.930 . S
C747 C742 1.418 . S
C747 C743 1.353 . S
C748 H718 0.930 . S
C748 N749 1.330 . S
C748 C750 1.446 . S
N749 Co708 2.151 . S
N749 C748 1.330 . S
N749 C753 1.418 . S
C750 H729 0.929 . S
C750 C748 1.446 . S
C750 C751 1.332 . S
C751 H731 0.931 . S
C751 C750 1.332 . S
C751 C752 1.267 . S
C752 H720 0.929 . S
C752 C751 1.267 . S
C752 C753 1.251 . S
C753 H723 0.929 . S
C753 N749 1.418 . S
C753 C752 1.251 . S
C754 H721 0.930 . S
C754 C756 1.406 . S
C754 C759 1.261 . S
C755 H722 0.930 . S
C755 N757 1.325 . S
C755 C758 1.357 . S
C756 H724 0.928 . S
C756 C754 1.406 . S
C756 N757 1.261 . S
N757 Co708 2.214 . S
N757 C755 1.325 . S
N757 C756 1.261 . S
C758 H728 0.931 . S
C758 C755 1.357 . S
C758 C759 1.312 . S
C759 H730 0.930 . S
C759 C754 1.261 . S
C759 C758 1.312 . S
C760 O732 1.214 . S
C760 O740 1.234 . S
C761 H733 0.929 . S
C761 C764 1.391 . S
C761 C766 1.391 . S
C762 H734 0.929 . S
C762 C763 1.390 . S
C762 N765 1.391 . S
C763 H735 0.930 . S
C763 C762 1.390 . S
C763 C764 1.392 . S
C764 H736 0.929 . S
C764 C761 1.391 . S
C764 C763 1.392 . S
N765 Co709 2.257 . S
N765 C762 1.391 . S
N765 C766 1.388 . S
C766 H737 0.930 . S
C766 C761 1.391 . S
C766 N765 1.388 . S
Co767 O769 2.143 . S
Co767 O775 2.074 . S
Co767 O778 2.093 . S
Co767 O791 2.097 . S
Co767 N808 2.151 . S
Co767 N816 2.214 . S
Co768 O769 2.160 . S
Co768 O774 2.058 . S
Co768 O784 2.057 . S
Co768 O799 2.037 . S
Co768 N803 2.145 . S
Co768 N824 2.257 . S
O769 Co767 2.143 . S
O769 Co768 2.160 . S
C770 O771 1.278 . S
C770 O778 1.224 . S
O771 C770 1.278 . S
C772 O773 1.245 . S
C772 O784 1.232 . S
O773 C772 1.245 . S
O774 Co768 2.058 . S
O774 C800 1.269 . S
O775 Co767 2.074 . S
O775 C800 1.257 . S
H776 C801 0.930 . S
H777 C807 0.930 . S
O778 Co767 2.093 . S
O778 C770 1.224 . S
H779 C811 0.929 . S
H780 C813 0.930 . S
H781 C814 0.930 . S
H782 C812 0.929 . S
H783 C815 0.928 . S
O784 Co768 2.057 . S
O784 C772 1.232 . S
H785 C804 0.929 . S
H786 C805 0.929 . S
H787 C817 0.931 . S
H788 C809 0.929 . S
H789 C818 0.930 . S
H790 C810 0.931 . S
O791 Co767 2.097 . S
O791 C819 1.214 . S
H792 C820 0.929 . S
H793 C821 0.929 . S
H794 C822 0.930 . S
H795 C823 0.929 . S
H796 C825 0.930 . S
H797 C802 0.930 . S
H798 C806 0.930 . S
O799 Co768 2.037 . S
O799 C819 1.234 . S
C800 O774 1.269 . S
C800 O775 1.257 . S
C801 H776 0.930 . S
C801 C804 1.388 . S
C801 C806 1.418 . S
C802 H797 0.930 . S
C802 C805 1.404 . S
C802 C806 1.353 . S
N803 Co768 2.145 . S
N803 C804 1.397 . S
N803 C805 1.334 . S
C804 H785 0.929 . S
C804 C801 1.388 . S
C804 N803 1.397 . S
C805 H786 0.929 . S
C805 C802 1.404 . S
C805 N803 1.334 . S
C806 H798 0.930 . S
C806 C801 1.418 . S
C806 C802 1.353 . S
C807 H777 0.930 . S
C807 N808 1.330 . S
C807 C809 1.446 . S
N808 Co767 2.151 . S
N808 C807 1.330 . S
N808 C812 1.418 . S
C809 H788 0.929 . S
C809 C807 1.446 . S
C809 C810 1.332 . S
C810 H790 0.931 . S
C810 C809 1.332 . S
C810 C811 1.267 . S
C811 H779 0.929 . S
C811 C810 1.267 . S
C811 C812 1.251 . S
C812 H782 0.929 . S
C812 N808 1.418 . S
C812 C811 1.251 . S
C813 H780 0.930 . S
C813 C815 1.406 . S
C813 C818 1.261 . S
C814 H781 0.930 . S
C814 N816 1.325 . S
C814 C817 1.357 . S
C815 H783 0.928 . S
C815 C813 1.406 . S
C815 N816 1.261 . S
N816 Co767 2.214 . S
N816 C814 1.325 . S
N816 C815 1.261 . S
C817 H787 0.931 . S
C817 C814 1.357 . S
C817 C818 1.312 . S
C818 H789 0.930 . S
C818 C813 1.261 . S
C818 C817 1.312 . S
C819 O791 1.214 . S
C819 O799 1.234 . S
C820 H792 0.929 . S
C820 C823 1.391 . S
C820 C825 1.391 . S
C821 H793 0.929 . S
C821 C822 1.390 . S
C821 N824 1.391 . S
C822 H794 0.930 . S
C822 C821 1.390 . S
C822 C823 1.392 . S
C823 H795 0.929 . S
C823 C820 1.391 . S
C823 C822 1.392 . S
N824 Co768 2.257 . S
N824 C821 1.391 . S
N824 C825 1.388 . S
C825 H796 0.930 . S
C825 C820 1.391 . S
C825 N824 1.388 . S
Co826 O828 2.143 . S
Co826 O834 2.074 . S
Co826 O837 2.093 . S
Co826 O850 2.097 . S
Co826 N867 2.151 . S
Co826 N875 2.214 . S
Co827 O828 2.160 . S
Co827 O833 2.058 . S
Co827 O843 2.057 . S
Co827 O858 2.037 . S
Co827 N862 2.145 . S
Co827 N883 2.257 . S
O828 Co826 2.143 . S
O828 Co827 2.160 . S
C829 O830 1.278 . S
C829 O837 1.224 . S
O830 C829 1.278 . S
C831 O832 1.245 . S
C831 O843 1.232 . S
O832 C831 1.245 . S
O833 Co827 2.058 . S
O833 C859 1.269 . S
O834 Co826 2.074 . S
O834 C859 1.257 . S
H835 C860 0.930 . S
H836 C866 0.930 . S
O837 Co826 2.093 . S
O837 C829 1.224 . S
H838 C870 0.929 . S
H839 C872 0.930 . S
H840 C873 0.930 . S
H841 C871 0.929 . S
H842 C874 0.928 . S
O843 Co827 2.057 . S
O843 C831 1.232 . S
H844 C863 0.929 . S
H845 C864 0.929 . S
H846 C876 0.931 . S
H847 C868 0.929 . S
H848 C877 0.930 . S
H849 C869 0.931 . S
O850 Co826 2.097 . S
O850 C878 1.214 . S
H851 C879 0.929 . S
H852 C880 0.929 . S
H853 C881 0.930 . S
H854 C882 0.929 . S
H855 C884 0.930 . S
H856 C861 0.930 . S
H857 C865 0.930 . S
O858 Co827 2.037 . S
O858 C878 1.234 . S
C859 O833 1.269 . S
C859 O834 1.257 . S
C860 H835 0.930 . S
C860 C863 1.388 . S
C860 C865 1.418 . S
C861 H856 0.930 . S
C861 C864 1.404 . S
C861 C865 1.353 . S
N862 Co827 2.145 . S
N862 C863 1.397 . S
N862 C864 1.334 . S
C863 H844 0.929 . S
C863 C860 1.388 . S
C863 N862 1.397 . S
C864 H845 0.929 . S
C864 C861 1.404 . S
C864 N862 1.334 . S
C865 H857 0.930 . S
C865 C860 1.418 . S
C865 C861 1.353 . S
C866 H836 0.930 . S
C866 N867 1.330 . S
C866 C868 1.446 . S
N867 Co826 2.151 . S
N867 C866 1.330 . S
N867 C871 1.418 . S
C868 H847 0.929 . S
C868 C866 1.446 . S
C868 C869 1.332 . S
C869 H849 0.931 . S
C869 C868 1.332 . S
C869 C870 1.267 . S
C870 H838 0.929 . S
C870 C869 1.267 . S
C870 C871 1.251 . S
C871 H841 0.929 . S
C871 N867 1.418 . S
C871 C870 1.251 . S
C872 H839 0.930 . S
C872 C874 1.406 . S
C872 C877 1.261 . S
C873 H840 0.930 . S
C873 N875 1.325 . S
C873 C876 1.357 . S
C874 H842 0.928 . S
C874 C872 1.406 . S
C874 N875 1.261 . S
N875 Co826 2.214 . S
N875 C873 1.325 . S
N875 C874 1.261 . S
C876 H846 0.931 . S
C876 C873 1.357 . S
C876 C877 1.312 . S
C877 H848 0.930 . S
C877 C872 1.261 . S
C877 C876 1.312 . S
C878 O850 1.214 . S
C878 O858 1.234 . S
C879 H851 0.929 . S
C879 C882 1.391 . S
C879 C884 1.391 . S
C880 H852 0.929 . S
C880 C881 1.390 . S
C880 N883 1.391 . S
C881 H853 0.930 . S
C881 C880 1.390 . S
C881 C882 1.392 . S
C882 H854 0.929 . S
C882 C879 1.391 . S
C882 C881 1.392 . S
N883 Co827 2.257 . S
N883 C880 1.391 . S
N883 C884 1.388 . S
C884 H855 0.930 . S
C884 C879 1.391 . S
C884 N883 1.388 . S
Co885 O887 2.143 . S
Co885 O893 2.074 . S
Co885 O896 2.093 . S
Co885 O909 2.097 . S
Co885 N926 2.151 . S
Co885 N934 2.214 . S
Co886 O887 2.160 . S
Co886 O892 2.058 . S
Co886 O902 2.057 . S
Co886 O917 2.037 . S
Co886 N921 2.145 . S
Co886 N942 2.257 . S
O887 Co885 2.143 . S
O887 Co886 2.160 . S
C888 O889 1.278 . S
C888 O896 1.224 . S
O889 C888 1.278 . S
C890 O891 1.245 . S
C890 O902 1.232 . S
O891 C890 1.245 . S
O892 Co886 2.058 . S
O892 C918 1.269 . S
O893 Co885 2.074 . S
O893 C918 1.257 . S
H894 C919 0.930 . S
H895 C925 0.930 . S
O896 Co885 2.093 . S
O896 C888 1.224 . S
H897 C929 0.929 . S
H898 C931 0.930 . S
H899 C932 0.930 . S
H900 C930 0.929 . S
H901 C933 0.928 . S
O902 Co886 2.057 . S
O902 C890 1.232 . S
H903 C922 0.929 . S
H904 C923 0.929 . S
H905 C935 0.931 . S
H906 C927 0.929 . S
H907 C936 0.930 . S
H908 C928 0.931 . S
O909 Co885 2.097 . S
O909 C937 1.214 . S
H910 C938 0.929 . S
H911 C939 0.929 . S
H912 C940 0.930 . S
H913 C941 0.929 . S
H914 C943 0.930 . S
H915 C920 0.930 . S
H916 C924 0.930 . S
O917 Co886 2.037 . S
O917 C937 1.234 . S
C918 O892 1.269 . S
C918 O893 1.257 . S
C919 H894 0.930 . S
C919 C922 1.388 . S
C919 C924 1.418 . S
C920 H915 0.930 . S
C920 C923 1.404 . S
C920 C924 1.353 . S
N921 Co886 2.145 . S
N921 C922 1.397 . S
N921 C923 1.334 . S
C922 H903 0.929 . S
C922 C919 1.388 . S
C922 N921 1.397 . S
C923 H904 0.929 . S
C923 C920 1.404 . S
C923 N921 1.334 . S
C924 H916 0.930 . S
C924 C919 1.418 . S
C924 C920 1.353 . S
C925 H895 0.930 . S
C925 N926 1.330 . S
C925 C927 1.446 . S
N926 Co885 2.151 . S
N926 C925 1.330 . S
N926 C930 1.418 . S
C927 H906 0.929 . S
C927 C925 1.446 . S
C927 C928 1.332 . S
C928 H908 0.931 . S
C928 C927 1.332 . S
C928 C929 1.267 . S
C929 H897 0.929 . S
C929 C928 1.267 . S
C929 C930 1.251 . S
C930 H900 0.929 . S
C930 N926 1.418 . S
C930 C929 1.251 . S
C931 H898 0.930 . S
C931 C933 1.406 . S
C931 C936 1.261 . S
C932 H899 0.930 . S
C932 N934 1.325 . S
C932 C935 1.357 . S
C933 H901 0.928 . S
C933 C931 1.406 . S
C933 N934 1.261 . S
N934 Co885 2.214 . S
N934 C932 1.325 . S
N934 C933 1.261 . S
C935 H905 0.931 . S
C935 C932 1.357 . S
C935 C936 1.312 . S
C936 H907 0.930 . S
C936 C931 1.261 . S
C936 C935 1.312 . S
C937 O909 1.214 . S
C937 O917 1.234 . S
C938 H910 0.929 . S
C938 C941 1.391 . S
C938 C943 1.391 . S
C939 H911 0.929 . S
C939 C940 1.390 . S
C939 N942 1.391 . S
C940 H912 0.930 . S
C940 C939 1.390 . S
C940 C941 1.392 . S
C941 H913 0.929 . S
C941 C938 1.391 . S
C941 C940 1.392 . S
N942 Co886 2.257 . S
N942 C939 1.391 . S
N942 C943 1.388 . S
C943 H914 0.930 . S
C943 C938 1.391 . S
C943 N942 1.388 . S
H944 C952 0.949 1_554 S
H945 C957 0.950 . S
H946 C954 0.950 . S
H947 C956 0.950 . S
H948 C958 0.948 1_556 S
H949 C960 0.950 . S
H950 C962 0.950 . S
H951 C963 0.950 . S
C952 H944 0.949 1_556 S
C952 C953 1.386 . S
C952 C954 1.391 1_556 S
C953 C952 1.386 . S
C953 C957 1.393 . S
C954 H946 0.950 . S
C954 C952 1.391 1_554 S
C954 C955 1.400 1_554 S
C955 C954 1.400 1_556 S
C955 C956 1.398 . S
C955 C961 1.491 1_556 S
C956 H947 0.950 . S
C956 C955 1.398 . S
C956 C957 1.391 . S
C957 H945 0.950 . S
C957 C953 1.393 . S
C957 C956 1.391 . S
C958 H948 0.948 1_554 S
C958 C959 1.389 . S
C958 C960 1.390 1_554 S
C959 C958 1.389 . S
C959 C963 1.393 . S
C960 H949 0.950 . S
C960 C958 1.390 1_556 S
C960 C961 1.400 1_556 S
C961 C955 1.491 1_554 S
C961 C960 1.400 1_554 S
C961 C962 1.398 . S
C962 H950 0.950 . S
C962 C961 1.398 . S
C962 C963 1.391 . S
C963 H951 0.950 . S
C963 C959 1.393 . S
C963 C962 1.391 . S
H964 C972 0.950 . S
H965 C977 0.950 . S
H966 C974 0.950 . S
H967 C976 0.950 . S
H968 C978 0.950 . S
H969 C980 0.950 . S
H970 C982 0.950 . S
H971 C983 0.950 . S
C972 H964 0.950 . S
C972 C973 1.386 1_554 S
C972 C974 1.391 . S
C973 C972 1.386 1_556 S
C973 C977 1.393 . S
C974 H966 0.950 . S
C974 C972 1.391 . S
C974 C975 1.400 1_554 S
C975 C974 1.400 1_556 S
C975 C976 1.398 . S
C975 C981 1.491 1_556 S
C976 H967 0.950 . S
C976 C975 1.398 . S
C976 C977 1.391 . S
C977 H965 0.950 . S
C977 C973 1.393 . S
C977 C976 1.391 . S
C978 H968 0.950 . S
C978 C979 1.386 1_556 S
C978 C980 1.391 . S
C979 C978 1.386 1_554 S
C979 C983 1.393 . S
C980 H969 0.950 . S
C980 C978 1.391 . S
C980 C981 1.400 1_556 S
C981 C975 1.491 1_554 S
C981 C980 1.400 1_554 S
C981 C982 1.398 . S
C982 H970 0.950 . S
C982 C981 1.398 . S
C982 C983 1.391 . S
C983 H971 0.950 . S
C983 C979 1.393 . S
C983 C982 1.391 . S
H984 C992 0.950 . S
H985 C997 0.950 . S
H986 C994 0.950 . S
H987 C996 0.950 . S
H988 C998 0.950 . S
H989 C1000 0.950 . S
H990 C1002 0.950 . S
H991 C1003 0.950 . S
C992 H984 0.950 . S
C992 C993 1.386 . S
C992 C994 1.391 . S
C993 C992 1.386 . S
C993 C997 1.393 1_556 S
C994 H986 0.950 . S
C994 C992 1.391 . S
C994 C995 1.403 . S
C995 C994 1.403 . S
C995 C996 1.395 1_556 S
C995 C1001 1.490 1_556 S
C996 H987 0.950 . S
C996 C995 1.395 1_554 S
C996 C997 1.391 . S
C997 H985 0.950 . S
C997 C993 1.393 1_554 S
C997 C996 1.391 . S
C998 H988 0.950 . S
C998 C999 1.386 . S
C998 C1000 1.391 . S
C999 C998 1.386 . S
C999 C1003 1.393 1_554 S
C1000 H989 0.950 . S
C1000 C998 1.391 . S
C1000 C1001 1.411 . S
C1001 C995 1.490 1_554 S
C1001 C1000 1.411 . S
C1001 C1002 1.389 1_554 S
C1002 H990 0.950 . S
C1002 C1001 1.389 1_556 S
C1002 C1003 1.391 . S
C1003 H991 0.950 . S
C1003 C999 1.393 1_556 S
C1003 C1002 1.391 . S
H1004 C1012 0.950 . S
H1005 C1017 0.950 . S
H1006 C1014 0.950 . S
H1007 C1016 0.950 . S
H1008 C1018 0.950 . S
H1009 C1020 0.950 . S
H1010 C1022 0.950 . S
H1011 C1023 0.950 . S
C1012 H1004 0.950 . S
C1012 C1013 1.386 . S
C1012 C1014 1.391 . S
C1013 C1012 1.386 . S
C1013 C1017 1.393 1_556 S
C1014 H1006 0.950 . S
C1014 C1012 1.391 . S
C1014 C1015 1.419 . S
C1015 C1014 1.419 . S
C1015 C1016 1.380 1_556 S
C1015 C1021 1.490 1_556 S
C1016 H1007 0.950 . S
C1016 C1015 1.380 1_554 S
C1016 C1017 1.391 . S
C1017 H1005 0.950 . S
C1017 C1013 1.393 1_554 S
C1017 C1016 1.391 . S
C1018 H1008 0.950 . S
C1018 C1019 1.386 . S
C1018 C1020 1.391 . S
C1019 C1018 1.386 . S
C1019 C1023 1.393 1_554 S
C1020 H1009 0.950 . S
C1020 C1018 1.391 . S
C1020 C1021 1.400 . S
C1021 C1015 1.490 1_554 S
C1021 C1020 1.400 . S
C1021 C1022 1.398 1_554 S
C1022 H1010 0.950 . S
C1022 C1021 1.398 1_556 S
C1022 C1023 1.391 . S
C1023 H1011 0.950 . S
C1023 C1019 1.393 1_556 S
C1023 C1022 1.391 . S
H1024 C1032 0.950 . S
H1025 C1037 0.950 . S
H1026 C1034 0.950 . S
H1027 C1036 0.950 . S
H1028 C1038 0.950 . S
H1029 C1040 0.950 . S
H1030 C1042 0.950 . S
H1031 C1043 0.950 . S
C1032 H1024 0.950 . S
C1032 C1033 1.386 . S
C1032 C1034 1.391 . S
C1033 C1032 1.386 . S
C1033 C1037 1.393 . S
C1034 H1026 0.950 . S
C1034 C1032 1.391 . S
C1034 C1035 1.400 . S
C1035 C1034 1.400 . S
C1035 C1036 1.398 . S
C1035 C1041 1.491 1_545 S
C1036 H1027 0.950 . S
C1036 C1035 1.398 . S
C1036 C1037 1.391 . S
C1037 H1025 0.950 . S
C1037 C1033 1.393 . S
C1037 C1036 1.391 . S
C1038 H1028 0.950 . S
C1038 C1039 1.386 . S
C1038 C1040 1.391 . S
C1039 C1038 1.386 . S
C1039 C1043 1.393 . S
C1040 H1029 0.950 . S
C1040 C1038 1.391 . S
C1040 C1041 1.400 . S
C1041 C1035 1.491 1_565 S
C1041 C1040 1.400 . S
C1041 C1042 1.398 . S
C1042 H1030 0.950 . S
C1042 C1041 1.398 . S
C1042 C1043 1.391 . S
C1043 H1031 0.950 . S
C1043 C1039 1.393 . S
C1043 C1042 1.391 . S
H1044 C1052 0.950 . S
H1045 C1057 0.950 . S
H1046 C1054 0.950 . S
H1047 C1056 0.950 . S
H1048 C1058 0.950 . S
H1049 C1060 0.950 . S
H1050 C1062 0.950 . S
H1051 C1063 0.950 . S
C1052 H1044 0.950 . S
C1052 C1053 1.386 . S
C1052 C1054 1.391 . S
C1053 C1052 1.386 . S
C1053 C1057 1.393 . S
C1054 H1046 0.950 . S
C1054 C1052 1.391 . S
C1054 C1055 1.400 . S
C1055 C1054 1.400 . S
C1055 C1056 1.398 . S
C1055 C1061 1.491 1_655 S
C1056 H1047 0.950 . S
C1056 C1055 1.398 . S
C1056 C1057 1.391 . S
C1057 H1045 0.950 . S
C1057 C1053 1.393 . S
C1057 C1056 1.391 . S
C1058 H1048 0.950 . S
C1058 C1059 1.386 . S
C1058 C1060 1.391 . S
C1059 C1058 1.386 . S
C1059 C1063 1.393 . S
C1060 H1049 0.950 . S
C1060 C1058 1.391 . S
C1060 C1061 1.400 . S
C1061 C1055 1.491 1_455 S
C1061 C1060 1.400 . S
C1061 C1062 1.398 . S
C1062 H1050 0.950 . S
C1062 C1061 1.398 . S
C1062 C1063 1.391 . S
C1063 H1051 0.950 . S
C1063 C1059 1.393 . S
C1063 C1062 1.391 . S
H1064 C1072 0.950 . S
H1065 C1077 0.950 . S
H1066 C1074 0.950 . S
H1067 C1076 0.950 . S
H1068 C1078 0.950 . S
H1069 C1080 0.950 . S
H1070 C1082 0.950 . S
H1071 C1083 0.950 . S
C1072 H1064 0.950 . S
C1072 C1073 1.386 . S
C1072 C1074 1.391 . S
C1073 C1072 1.386 . S
C1073 C1077 1.393 . S
C1074 H1066 0.950 . S
C1074 C1072 1.391 . S
C1074 C1075 1.400 . S
C1075 C1074 1.400 . S
C1075 C1076 1.398 . S
C1075 C1081 1.491 1_545 S
C1076 H1067 0.950 . S
C1076 C1075 1.398 . S
C1076 C1077 1.391 . S
C1077 H1065 0.950 . S
C1077 C1073 1.393 . S
C1077 C1076 1.391 . S
C1078 H1068 0.950 . S
C1078 C1079 1.386 . S
C1078 C1080 1.391 . S
C1079 C1078 1.386 . S
C1079 C1083 1.393 . S
C1080 H1069 0.950 . S
C1080 C1078 1.391 . S
C1080 C1081 1.400 . S
C1081 C1075 1.491 1_565 S
C1081 C1080 1.400 . S
C1081 C1082 1.398 . S
C1082 H1070 0.950 . S
C1082 C1081 1.398 . S
C1082 C1083 1.391 . S
C1083 H1071 0.950 . S
C1083 C1079 1.393 . S
C1083 C1082 1.391 . S
H1084 C1092 0.950 . S
H1085 C1097 0.950 . S
H1086 C1094 0.950 . S
H1087 C1096 0.950 . S
H1088 C1098 0.950 . S
H1089 C1100 0.950 . S
H1090 C1102 0.950 . S
H1091 C1103 0.950 . S
C1092 H1084 0.950 . S
C1092 C1093 1.386 . S
C1092 C1094 1.391 . S
C1093 C1092 1.386 . S
C1093 C1097 1.393 . S
C1094 H1086 0.950 . S
C1094 C1092 1.391 . S
C1094 C1095 1.400 . S
C1095 C1094 1.400 . S
C1095 C1096 1.398 . S
C1095 C1101 1.491 1_455 S
C1096 H1087 0.950 . S
C1096 C1095 1.398 . S
C1096 C1097 1.391 . S
C1097 H1085 0.950 . S
C1097 C1093 1.393 . S
C1097 C1096 1.391 . S
C1098 H1088 0.950 . S
C1098 C1099 1.386 . S
C1098 C1100 1.391 . S
C1099 C1098 1.386 . S
C1099 C1103 1.393 . S
C1100 H1089 0.950 . S
C1100 C1098 1.391 . S
C1100 C1101 1.400 . S
C1101 C1095 1.491 1_655 S
C1101 C1100 1.400 . S
C1101 C1102 1.398 . S
C1102 H1090 0.950 . S
C1102 C1101 1.398 . S
C1102 C1103 1.391 . S
C1103 H1091 0.950 . S
C1103 C1099 1.393 . S
C1103 C1102 1.391 . S
H1104 C1112 0.950 . S
H1105 C1117 0.950 . S
H1106 C1114 0.950 . S
H1107 C1116 0.950 . S
H1108 C1118 0.950 . S
H1109 C1120 0.950 . S
H1110 C1122 0.950 . S
H1111 C1123 0.950 . S
C1112 H1104 0.950 . S
C1112 C1113 1.386 . S
C1112 C1114 1.391 . S
C1113 C1112 1.386 . S
C1113 C1117 1.393 1_554 S
C1114 H1106 0.950 . S
C1114 C1112 1.391 . S
C1114 C1115 1.400 . S
C1115 C1114 1.400 . S
C1115 C1116 1.398 1_554 S
C1115 C1121 1.490 1_554 S
C1116 H1107 0.950 . S
C1116 C1115 1.398 1_556 S
C1116 C1117 1.391 . S
C1117 H1105 0.950 . S
C1117 C1113 1.393 1_556 S
C1117 C1116 1.391 . S
C1118 H1108 0.950 . S
C1118 C1119 1.386 . S
C1118 C1120 1.391 . S
C1119 C1118 1.386 . S
C1119 C1123 1.393 1_556 S
C1120 H1109 0.950 . S
C1120 C1118 1.391 . S
C1120 C1121 1.416 . S
C1121 C1115 1.490 1_556 S
C1121 C1120 1.416 . S
C1121 C1122 1.384 1_556 S
C1122 H1110 0.950 . S
C1122 C1121 1.384 1_554 S
C1122 C1123 1.391 . S
C1123 H1111 0.950 . S
C1123 C1119 1.393 1_554 S
C1123 C1122 1.391 . S
H1124 C1132 0.950 . S
H1125 C1137 0.950 . S
H1126 C1134 0.950 . S
H1127 C1136 0.950 . S
H1128 C1138 0.950 . S
H1129 C1140 0.950 . S
H1130 C1142 0.950 . S
H1131 C1143 0.950 . S
C1132 H1124 0.950 . S
C1132 C1133 1.386 . S
C1132 C1134 1.391 . S
C1133 C1132 1.386 . S
C1133 C1137 1.393 1_556 S
C1134 H1126 0.950 . S
C1134 C1132 1.391 . S
C1134 C1135 1.408 . S
C1135 C1134 1.408 . S
C1135 C1136 1.392 1_556 S
C1135 C1141 1.490 1_556 S
C1136 H1127 0.950 . S
C1136 C1135 1.392 1_554 S
C1136 C1137 1.391 . S
C1137 H1125 0.950 . S
C1137 C1133 1.393 1_554 S
C1137 C1136 1.391 . S
C1138 H1128 0.950 . S
C1138 C1139 1.386 . S
C1138 C1140 1.391 . S
C1139 C1138 1.386 . S
C1139 C1143 1.393 1_554 S
C1140 H1129 0.950 . S
C1140 C1138 1.391 . S
C1140 C1141 1.400 . S
C1141 C1135 1.490 1_554 S
C1141 C1140 1.400 . S
C1141 C1142 1.398 1_554 S
C1142 H1130 0.950 . S
C1142 C1141 1.398 1_556 S
C1142 C1143 1.391 . S
C1143 H1131 0.950 . S
C1143 C1139 1.393 1_556 S
C1143 C1142 1.391 . S
H1144 C1152 0.950 . S
H1145 C1157 0.950 . S
H1146 C1154 0.950 . S
H1147 C1156 0.950 . S
H1148 C1158 0.950 . S
H1149 C1160 0.950 . S
H1150 C1162 0.950 . S
H1151 C1163 0.950 . S
C1152 H1144 0.950 . S
C1152 C1153 1.386 . S
C1152 C1154 1.391 . S
C1153 C1152 1.386 . S
C1153 C1157 1.393 1_554 S
C1154 H1146 0.950 . S
C1154 C1152 1.391 . S
C1154 C1155 1.400 . S
C1155 C1154 1.400 . S
C1155 C1156 1.398 1_554 S
C1155 C1161 1.491 1_554 S
C1156 H1147 0.950 . S
C1156 C1155 1.398 1_556 S
C1156 C1157 1.391 . S
C1157 H1145 0.950 . S
C1157 C1153 1.393 1_556 S
C1157 C1156 1.391 . S
C1158 H1148 0.950 . S
C1158 C1159 1.386 . S
C1158 C1160 1.391 . S
C1159 C1158 1.386 . S
C1159 C1163 1.393 1_556 S
C1160 H1149 0.950 . S
C1160 C1158 1.391 . S
C1160 C1161 1.400 . S
C1161 C1155 1.491 1_556 S
C1161 C1160 1.400 . S
C1161 C1162 1.398 1_556 S
C1162 H1150 0.950 . S
C1162 C1161 1.398 1_554 S
C1162 C1163 1.391 . S
C1163 H1151 0.950 . S
C1163 C1159 1.393 1_554 S
C1163 C1162 1.391 . S
H1164 C1172 0.950 . S
H1165 C1177 0.950 . S
H1166 C1174 0.950 . S
H1167 C1176 0.950 . S
H1168 C1178 0.950 . S
H1169 C1180 0.950 . S
H1170 C1182 0.950 . S
H1171 C1183 0.950 . S
C1172 H1164 0.950 . S
C1172 C1173 1.386 . S
C1172 C1174 1.391 . S
C1173 C1172 1.386 . S
C1173 C1177 1.393 1_556 S
C1174 H1166 0.950 . S
C1174 C1172 1.391 . S
C1174 C1175 1.400 . S
C1175 C1174 1.400 . S
C1175 C1176 1.398 1_556 S
C1175 C1181 1.491 1_556 S
C1176 H1167 0.950 . S
C1176 C1175 1.398 1_554 S
C1176 C1177 1.391 . S
C1177 H1165 0.950 . S
C1177 C1173 1.393 1_554 S
C1177 C1176 1.391 . S
C1178 H1168 0.950 . S
C1178 C1179 1.386 . S
C1178 C1180 1.391 . S
C1179 C1178 1.386 . S
C1179 C1183 1.393 1_554 S
C1180 H1169 0.950 . S
C1180 C1178 1.391 . S
C1180 C1181 1.400 . S
C1181 C1175 1.491 1_554 S
C1181 C1180 1.400 . S
C1181 C1182 1.398 1_554 S
C1182 H1170 0.950 . S
C1182 C1181 1.398 1_556 S
C1182 C1183 1.391 . S
C1183 H1171 0.950 . S
C1183 C1179 1.393 1_556 S
C1183 C1182 1.391 . S
H1184 C1192 0.950 . S
H1185 C1197 0.950 . S
H1186 C1194 0.950 . S
H1187 C1196 0.950 . S
H1188 C1198 0.950 . S
H1189 C1200 0.950 . S
H1190 C1202 0.950 . S
H1191 C1203 0.950 . S
C1192 H1184 0.950 . S
C1192 C1193 1.386 . S
C1192 C1194 1.391 . S
C1193 C1192 1.386 . S
C1193 C1197 1.393 . S
C1194 H1186 0.950 . S
C1194 C1192 1.391 . S
C1194 C1195 1.400 . S
C1195 C1194 1.400 . S
C1195 C1196 1.398 . S
C1195 C1201 1.491 . S
C1196 H1187 0.950 . S
C1196 C1195 1.398 . S
C1196 C1197 1.391 . S
C1197 H1185 0.950 . S
C1197 C1193 1.393 . S
C1197 C1196 1.391 . S
C1198 H1188 0.950 . S
C1198 C1199 1.386 . S
C1198 C1200 1.391 . S
C1199 C1198 1.386 . S
C1199 C1203 1.393 . S
C1200 H1189 0.950 . S
C1200 C1198 1.391 . S
C1200 C1201 1.400 . S
C1201 C1195 1.491 . S
C1201 C1200 1.400 . S
C1201 C1202 1.398 . S
C1202 H1190 0.950 . S
C1202 C1201 1.398 . S
C1202 C1203 1.391 . S
C1203 H1191 0.950 . S
C1203 C1199 1.393 . S
C1203 C1202 1.391 . S
H1204 C1212 0.950 . S
H1205 C1217 0.950 . S
H1206 C1214 0.950 . S
H1207 C1216 0.950 . S
H1208 C1218 0.950 . S
H1209 C1220 0.950 . S
H1210 C1222 0.950 . S
H1211 C1223 0.950 . S
C1212 H1204 0.950 . S
C1212 C1213 1.386 . S
C1212 C1214 1.391 . S
C1213 C1212 1.386 . S
C1213 C1217 1.393 . S
C1214 H1206 0.950 . S
C1214 C1212 1.391 . S
C1214 C1215 1.400 . S
C1215 C1214 1.400 . S
C1215 C1216 1.398 . S
C1215 C1221 1.491 . S
C1216 H1207 0.950 . S
C1216 C1215 1.398 . S
C1216 C1217 1.391 . S
C1217 H1205 0.950 . S
C1217 C1213 1.393 . S
C1217 C1216 1.391 . S
C1218 H1208 0.950 . S
C1218 C1219 1.386 . S
C1218 C1220 1.391 . S
C1219 C1218 1.386 . S
C1219 C1223 1.393 . S
C1220 H1209 0.950 . S
C1220 C1218 1.391 . S
C1220 C1221 1.400 . S
C1221 C1215 1.491 . S
C1221 C1220 1.400 . S
C1221 C1222 1.398 . S
C1222 H1210 0.950 . S
C1222 C1221 1.398 . S
C1222 C1223 1.391 . S
C1223 H1211 0.950 . S
C1223 C1219 1.393 . S
C1223 C1222 1.391 . S
H1224 C1232 0.950 . S
H1225 C1237 0.950 . S
H1226 C1234 0.950 . S
H1227 C1236 0.950 . S
H1228 C1238 0.950 . S
H1229 C1240 0.950 . S
H1230 C1242 0.950 . S
H1231 C1243 0.950 . S
C1232 H1224 0.950 . S
C1232 C1233 1.386 . S
C1232 C1234 1.391 . S
C1233 C1232 1.386 . S
C1233 C1237 1.393 . S
C1234 H1226 0.950 . S
C1234 C1232 1.391 . S
C1234 C1235 1.400 . S
C1235 C1234 1.400 . S
C1235 C1236 1.398 . S
C1235 C1241 1.491 . S
C1236 H1227 0.950 . S
C1236 C1235 1.398 . S
C1236 C1237 1.391 . S
C1237 H1225 0.950 . S
C1237 C1233 1.393 . S
C1237 C1236 1.391 . S
C1238 H1228 0.950 . S
C1238 C1239 1.386 . S
C1238 C1240 1.391 . S
C1239 C1238 1.386 . S
C1239 C1243 1.393 . S
C1240 H1229 0.950 . S
C1240 C1238 1.391 . S
C1240 C1241 1.400 . S
C1241 C1235 1.491 . S
C1241 C1240 1.400 . S
C1241 C1242 1.398 . S
C1242 H1230 0.950 . S
C1242 C1241 1.398 . S
C1242 C1243 1.391 . S
C1243 H1231 0.950 . S
C1243 C1239 1.393 . S
C1243 C1242 1.391 . S
H1244 C1252 0.950 . S
H1245 C1257 0.950 . S
H1246 C1254 0.950 . S
H1247 C1256 0.950 . S
H1248 C1258 0.950 . S
H1249 C1260 0.950 . S
H1250 C1262 0.950 . S
H1251 C1263 0.950 . S
C1252 H1244 0.950 . S
C1252 C1253 1.386 . S
C1252 C1254 1.391 . S
C1253 C1252 1.386 . S
C1253 C1257 1.393 . S
C1254 H1246 0.950 . S
C1254 C1252 1.391 . S
C1254 C1255 1.400 . S
C1255 C1254 1.400 . S
C1255 C1256 1.398 . S
C1255 C1261 1.491 . S
C1256 H1247 0.950 . S
C1256 C1255 1.398 . S
C1256 C1257 1.391 . S
C1257 H1245 0.950 . S
C1257 C1253 1.393 . S
C1257 C1256 1.391 . S
C1258 H1248 0.950 . S
C1258 C1259 1.386 . S
C1258 C1260 1.391 . S
C1259 C1258 1.386 . S
C1259 C1263 1.393 . S
C1260 H1249 0.950 . S
C1260 C1258 1.391 . S
C1260 C1261 1.400 . S
C1261 C1255 1.491 . S
C1261 C1260 1.400 . S
C1261 C1262 1.398 . S
C1262 H1250 0.950 . S
C1262 C1261 1.398 . S
C1262 C1263 1.391 . S
C1263 H1251 0.950 . S
C1263 C1259 1.393 . S
C1263 C1262 1.391 . S
H1264 C1272 0.950 . S
H1265 C1277 0.950 . S
H1266 C1274 0.950 . S
H1267 C1276 0.950 . S
H1268 C1278 0.950 . S
H1269 C1280 0.950 . S
H1270 C1282 0.950 . S
H1271 C1283 0.950 . S
C1272 H1264 0.950 . S
C1272 C1273 1.386 . S
C1272 C1274 1.391 . S
C1273 C1272 1.386 . S
C1273 C1277 1.393 . S
C1274 H1266 0.950 . S
C1274 C1272 1.391 . S
C1274 C1275 1.400 . S
C1275 C1274 1.400 . S
C1275 C1276 1.398 . S
C1275 C1281 1.491 . S
C1276 H1267 0.950 . S
C1276 C1275 1.398 . S
C1276 C1277 1.391 . S
C1277 H1265 0.950 . S
C1277 C1273 1.393 . S
C1277 C1276 1.391 . S
C1278 H1268 0.950 . S
C1278 C1279 1.386 . S
C1278 C1280 1.391 . S
C1279 C1278 1.386 . S
C1279 C1283 1.393 . S
C1280 H1269 0.950 . S
C1280 C1278 1.391 . S
C1280 C1281 1.400 . S
C1281 C1275 1.491 . S
C1281 C1280 1.400 . S
C1281 C1282 1.398 . S
C1282 H1270 0.950 . S
C1282 C1281 1.398 . S
C1282 C1283 1.391 . S
C1283 H1271 0.950 . S
C1283 C1279 1.393 . S
C1283 C1282 1.391 . S
H1284 C1292 0.950 . S
H1285 C1297 0.950 . S
H1286 C1294 0.950 . S
H1287 C1296 0.950 . S
H1288 C1298 0.950 . S
H1289 C1300 0.950 . S
H1290 C1302 0.950 . S
H1291 C1303 0.950 . S
C1292 H1284 0.950 . S
C1292 C1293 1.386 . S
C1292 C1294 1.391 . S
C1293 C1292 1.386 . S
C1293 C1297 1.393 . S
C1294 H1286 0.950 . S
C1294 C1292 1.391 . S
C1294 C1295 1.400 . S
C1295 C1294 1.400 . S
C1295 C1296 1.398 . S
C1295 C1301 1.491 . S
C1296 H1287 0.950 . S
C1296 C1295 1.398 . S
C1296 C1297 1.391 . S
C1297 H1285 0.950 . S
C1297 C1293 1.393 . S
C1297 C1296 1.391 . S
C1298 H1288 0.950 . S
C1298 C1299 1.386 . S
C1298 C1300 1.391 . S
C1299 C1298 1.386 . S
C1299 C1303 1.393 . S
C1300 H1289 0.950 . S
C1300 C1298 1.391 . S
C1300 C1301 1.400 . S
C1301 C1295 1.491 . S
C1301 C1300 1.400 . S
C1301 C1302 1.398 . S
C1302 H1290 0.950 . S
C1302 C1301 1.398 . S
C1302 C1303 1.391 . S
C1303 H1291 0.950 . S
C1303 C1299 1.393 . S
C1303 C1302 1.391 . S
H1304 C1312 0.950 . S
H1305 C1317 0.950 . S
H1306 C1314 0.950 . S
H1307 C1316 0.950 . S
H1308 C1318 0.950 . S
H1309 C1320 0.950 . S
H1310 C1322 0.950 . S
H1311 C1323 0.950 . S
C1312 H1304 0.950 . S
C1312 C1313 1.386 . S
C1312 C1314 1.391 . S
C1313 C1312 1.386 . S
C1313 C1317 1.393 . S
C1314 H1306 0.950 . S
C1314 C1312 1.391 . S
C1314 C1315 1.400 . S
C1315 C1314 1.400 . S
C1315 C1316 1.398 . S
C1315 C1321 1.491 . S
C1316 H1307 0.950 . S
C1316 C1315 1.398 . S
C1316 C1317 1.391 . S
C1317 H1305 0.950 . S
C1317 C1313 1.393 . S
C1317 C1316 1.391 . S
C1318 H1308 0.950 . S
C1318 C1319 1.386 . S
C1318 C1320 1.391 . S
C1319 C1318 1.386 . S
C1319 C1323 1.393 . S
C1320 H1309 0.950 . S
C1320 C1318 1.391 . S
C1320 C1321 1.400 . S
C1321 C1315 1.491 . S
C1321 C1320 1.400 . S
C1321 C1322 1.398 . S
C1322 H1310 0.950 . S
C1322 C1321 1.398 . S
C1322 C1323 1.391 . S
C1323 H1311 0.950 . S
C1323 C1319 1.393 . S
C1323 C1322 1.391 . S
H1324 C1332 0.950 . S
H1325 C1337 0.950 . S
H1326 C1334 0.950 . S
H1327 C1336 0.950 . S
H1328 C1338 0.950 . S
H1329 C1340 0.950 . S
H1330 C1342 0.950 . S
H1331 C1343 0.950 . S
C1332 H1324 0.950 . S
C1332 C1333 1.386 . S
C1332 C1334 1.391 . S
C1333 C1332 1.386 . S
C1333 C1337 1.393 . S
C1334 H1326 0.950 . S
C1334 C1332 1.391 . S
C1334 C1335 1.400 . S
C1335 C1334 1.400 . S
C1335 C1336 1.398 . S
C1335 C1341 1.491 . S
C1336 H1327 0.950 . S
C1336 C1335 1.398 . S
C1336 C1337 1.391 . S
C1337 H1325 0.950 . S
C1337 C1333 1.393 . S
C1337 C1336 1.391 . S
C1338 H1328 0.950 . S
C1338 C1339 1.386 . S
C1338 C1340 1.391 . S
C1339 C1338 1.386 . S
C1339 C1343 1.393 . S
C1340 H1329 0.950 . S
C1340 C1338 1.391 . S
C1340 C1341 1.400 . S
C1341 C1335 1.491 . S
C1341 C1340 1.400 . S
C1341 C1342 1.398 . S
C1342 H1330 0.950 . S
C1342 C1341 1.398 . S
C1342 C1343 1.391 . S
C1343 H1331 0.950 . S
C1343 C1339 1.393 . S
C1343 C1342 1.391 . S
H1344 C1352 0.950 . S
H1345 C1357 0.950 . S
H1346 C1354 0.950 . S
H1347 C1356 0.950 . S
H1348 C1358 0.950 . S
H1349 C1360 0.950 . S
H1350 C1362 0.950 . S
H1351 C1363 0.950 . S
C1352 H1344 0.950 . S
C1352 C1353 1.386 . S
C1352 C1354 1.391 . S
C1353 C1352 1.386 . S
C1353 C1357 1.393 . S
C1354 H1346 0.950 . S
C1354 C1352 1.391 . S
C1354 C1355 1.400 . S
C1355 C1354 1.400 . S
C1355 C1356 1.398 . S
C1355 C1361 1.491 . S
C1356 H1347 0.950 . S
C1356 C1355 1.398 . S
C1356 C1357 1.391 . S
C1357 H1345 0.950 . S
C1357 C1353 1.393 . S
C1357 C1356 1.391 . S
C1358 H1348 0.950 . S
C1358 C1359 1.386 . S
C1358 C1360 1.391 . S
C1359 C1358 1.386 . S
C1359 C1363 1.393 . S
C1360 H1349 0.950 . S
C1360 C1358 1.391 . S
C1360 C1361 1.400 . S
C1361 C1355 1.491 . S
C1361 C1360 1.400 . S
C1361 C1362 1.398 . S
C1362 H1350 0.950 . S
C1362 C1361 1.398 . S
C1362 C1363 1.391 . S
C1363 H1351 0.950 . S
C1363 C1359 1.393 . S
C1363 C1362 1.391 . S
H1364 C1372 0.950 . S
H1365 C1377 0.950 . S
H1366 C1374 0.950 . S
H1367 C1376 0.950 . S
H1368 C1378 0.950 . S
H1369 C1380 0.950 . S
H1370 C1382 0.950 . S
H1371 C1383 0.950 . S
C1372 H1364 0.950 . S
C1372 C1373 1.386 . S
C1372 C1374 1.391 . S
C1373 C1372 1.386 . S
C1373 C1377 1.393 . S
C1374 H1366 0.950 . S
C1374 C1372 1.391 . S
C1374 C1375 1.400 . S
C1375 C1374 1.400 . S
C1375 C1376 1.398 . S
C1375 C1381 1.491 . S
C1376 H1367 0.950 . S
C1376 C1375 1.398 . S
C1376 C1377 1.391 . S
C1377 H1365 0.950 . S
C1377 C1373 1.393 . S
C1377 C1376 1.391 . S
C1378 H1368 0.950 . S
C1378 C1379 1.386 . S
C1378 C1380 1.391 . S
C1379 C1378 1.386 . S
C1379 C1383 1.393 . S
C1380 H1369 0.950 . S
C1380 C1378 1.391 . S
C1380 C1381 1.400 . S
C1381 C1375 1.491 . S
C1381 C1380 1.400 . S
C1381 C1382 1.398 . S
C1382 H1370 0.950 . S
C1382 C1381 1.398 . S
C1382 C1383 1.391 . S
C1383 H1371 0.950 . S
C1383 C1379 1.393 . S
C1383 C1382 1.391 . S
H1384 C1392 0.950 . S
H1385 C1397 0.950 . S
H1386 C1394 0.950 . S
H1387 C1396 0.950 . S
H1388 C1398 0.950 . S
H1389 C1400 0.950 . S
H1390 C1402 0.950 . S
H1391 C1403 0.950 . S
C1392 H1384 0.950 . S
C1392 C1393 1.386 . S
C1392 C1394 1.391 . S
C1393 C1392 1.386 . S
C1393 C1397 1.393 . S
C1394 H1386 0.950 . S
C1394 C1392 1.391 . S
C1394 C1395 1.400 . S
C1395 C1394 1.400 . S
C1395 C1396 1.398 . S
C1395 C1401 1.491 . S
C1396 H1387 0.950 . S
C1396 C1395 1.398 . S
C1396 C1397 1.391 . S
C1397 H1385 0.950 . S
C1397 C1393 1.393 . S
C1397 C1396 1.391 . S
C1398 H1388 0.950 . S
C1398 C1399 1.386 . S
C1398 C1400 1.391 . S
C1399 C1398 1.386 . S
C1399 C1403 1.393 . S
C1400 H1389 0.950 . S
C1400 C1398 1.391 . S
C1400 C1401 1.400 . S
C1401 C1395 1.491 . S
C1401 C1400 1.400 . S
C1401 C1402 1.398 . S
C1402 H1390 0.950 . S
C1402 C1401 1.398 . S
C1402 C1403 1.391 . S
C1403 H1391 0.950 . S
C1403 C1399 1.393 . S
C1403 C1402 1.391 . S
H1404 C1412 0.950 . S
H1405 C1417 0.950 . S
H1406 C1414 0.950 . S
H1407 C1416 0.950 . S
H1408 C1418 0.950 . S
H1409 C1420 0.950 . S
H1410 C1422 0.950 . S
H1411 C1423 0.950 . S
C1412 H1404 0.950 . S
C1412 C1413 1.386 . S
C1412 C1414 1.391 . S
C1413 C1412 1.386 . S
C1413 C1417 1.393 . S
C1414 H1406 0.950 . S
C1414 C1412 1.391 . S
C1414 C1415 1.400 . S
C1415 C1414 1.400 . S
C1415 C1416 1.398 . S
C1415 C1421 1.491 . S
C1416 H1407 0.950 . S
C1416 C1415 1.398 . S
C1416 C1417 1.391 . S
C1417 H1405 0.950 . S
C1417 C1413 1.393 . S
C1417 C1416 1.391 . S
C1418 H1408 0.950 . S
C1418 C1419 1.386 . S
C1418 C1420 1.391 . S
C1419 C1418 1.386 . S
C1419 C1423 1.393 . S
C1420 H1409 0.950 . S
C1420 C1418 1.391 . S
C1420 C1421 1.400 . S
C1421 C1415 1.491 . S
C1421 C1420 1.400 . S
C1421 C1422 1.398 . S
C1422 H1410 0.950 . S
C1422 C1421 1.398 . S
C1422 C1423 1.391 . S
C1423 H1411 0.950 . S
C1423 C1419 1.393 . S
C1423 C1422 1.391 . S
H1424 C1432 0.950 . S
H1425 C1437 0.950 . S
H1426 C1434 0.950 . S
H1427 C1436 0.950 . S
H1428 C1438 0.950 . S
H1429 C1440 0.950 . S
H1430 C1442 0.950 . S
H1431 C1443 0.950 . S
C1432 H1424 0.950 . S
C1432 C1433 1.386 . S
C1432 C1434 1.391 . S
C1433 C1432 1.386 . S
C1433 C1437 1.393 . S
C1434 H1426 0.950 . S
C1434 C1432 1.391 . S
C1434 C1435 1.400 . S
C1435 C1434 1.400 . S
C1435 C1436 1.398 . S
C1435 C1441 1.491 . S
C1436 H1427 0.950 . S
C1436 C1435 1.398 . S
C1436 C1437 1.391 . S
C1437 H1425 0.950 . S
C1437 C1433 1.393 . S
C1437 C1436 1.391 . S
C1438 H1428 0.950 . S
C1438 C1439 1.386 . S
C1438 C1440 1.391 . S
C1439 C1438 1.386 . S
C1439 C1443 1.393 . S
C1440 H1429 0.950 . S
C1440 C1438 1.391 . S
C1440 C1441 1.400 . S
C1441 C1435 1.491 . S
C1441 C1440 1.400 . S
C1441 C1442 1.398 . S
C1442 H1430 0.950 . S
C1442 C1441 1.398 . S
C1442 C1443 1.391 . S
C1443 H1431 0.950 . S
C1443 C1439 1.393 . S
C1443 C1442 1.391 . S
H1444 C1452 0.950 . S
H1445 C1457 0.950 . S
H1446 C1454 0.950 . S
H1447 C1456 0.950 . S
H1448 C1458 0.950 . S
H1449 C1460 0.950 . S
H1450 C1462 0.950 . S
H1451 C1463 0.950 . S
C1452 H1444 0.950 . S
C1452 C1453 1.386 . S
C1452 C1454 1.391 . S
C1453 C1452 1.386 . S
C1453 C1457 1.393 . S
C1454 H1446 0.950 . S
C1454 C1452 1.391 . S
C1454 C1455 1.400 . S
C1455 C1454 1.400 . S
C1455 C1456 1.398 . S
C1455 C1461 1.491 . S
C1456 H1447 0.950 . S
C1456 C1455 1.398 . S
C1456 C1457 1.391 . S
C1457 H1445 0.950 . S
C1457 C1453 1.393 . S
C1457 C1456 1.391 . S
C1458 H1448 0.950 . S
C1458 C1459 1.386 . S
C1458 C1460 1.391 . S
C1459 C1458 1.386 . S
C1459 C1463 1.393 . S
C1460 H1449 0.950 . S
C1460 C1458 1.391 . S
C1460 C1461 1.400 . S
C1461 C1455 1.491 . S
C1461 C1460 1.400 . S
C1461 C1462 1.398 . S
C1462 H1450 0.950 . S
C1462 C1461 1.398 . S
C1462 C1463 1.391 . S
C1463 H1451 0.950 . S
C1463 C1459 1.393 . S
C1463 C1462 1.391 . S
H1464 C1472 0.950 . S
H1465 C1477 0.950 . S
H1466 C1474 0.950 . S
H1467 C1476 0.950 . S
H1468 C1478 0.950 . S
H1469 C1480 0.950 . S
H1470 C1482 0.950 . S
H1471 C1483 0.950 . S
C1472 H1464 0.950 . S
C1472 C1473 1.386 . S
C1472 C1474 1.391 . S
C1473 C1472 1.386 . S
C1473 C1477 1.393 . S
C1474 H1466 0.950 . S
C1474 C1472 1.391 . S
C1474 C1475 1.400 . S
C1475 C1474 1.400 . S
C1475 C1476 1.398 . S
C1475 C1481 1.491 . S
C1476 H1467 0.950 . S
C1476 C1475 1.398 . S
C1476 C1477 1.391 . S
C1477 H1465 0.950 . S
C1477 C1473 1.393 . S
C1477 C1476 1.391 . S
C1478 H1468 0.950 . S
C1478 C1479 1.386 . S
C1478 C1480 1.391 . S
C1479 C1478 1.386 . S
C1479 C1483 1.393 . S
C1480 H1469 0.950 . S
C1480 C1478 1.391 . S
C1480 C1481 1.400 . S
C1481 C1475 1.491 . S
C1481 C1480 1.400 . S
C1481 C1482 1.398 . S
C1482 H1470 0.950 . S
C1482 C1481 1.398 . S
C1482 C1483 1.391 . S
C1483 H1471 0.950 . S
C1483 C1479 1.393 . S
C1483 C1482 1.391 . S
H1484 C1492 0.950 . S
H1485 C1497 0.950 . S
H1486 C1494 0.950 . S
H1487 C1496 0.950 . S
H1488 C1498 0.950 . S
H1489 C1500 0.950 . S
H1490 C1502 0.950 . S
H1491 C1503 0.950 . S
C1492 H1484 0.950 . S
C1492 C1493 1.386 . S
C1492 C1494 1.391 . S
C1493 C1492 1.386 . S
C1493 C1497 1.393 . S
C1494 H1486 0.950 . S
C1494 C1492 1.391 . S
C1494 C1495 1.400 . S
C1495 C1494 1.400 . S
C1495 C1496 1.398 . S
C1495 C1501 1.491 . S
C1496 H1487 0.950 . S
C1496 C1495 1.398 . S
C1496 C1497 1.391 . S
C1497 H1485 0.950 . S
C1497 C1493 1.393 . S
C1497 C1496 1.391 . S
C1498 H1488 0.950 . S
C1498 C1499 1.386 . S
C1498 C1500 1.391 . S
C1499 C1498 1.386 . S
C1499 C1503 1.393 . S
C1500 H1489 0.950 . S
C1500 C1498 1.391 . S
C1500 C1501 1.400 . S
C1501 C1495 1.491 . S
C1501 C1500 1.400 . S
C1501 C1502 1.398 . S
C1502 H1490 0.950 . S
C1502 C1501 1.398 . S
C1502 C1503 1.391 . S
C1503 H1491 0.950 . S
C1503 C1499 1.393 . S
C1503 C1502 1.391 . S
H1504 C1512 0.950 . S
H1505 C1517 0.950 . S
H1506 C1514 0.950 . S
H1507 C1516 0.950 . S
H1508 C1518 0.950 . S
H1509 C1520 0.950 . S
H1510 C1522 0.950 . S
H1511 C1523 0.950 . S
C1512 H1504 0.950 . S
C1512 C1513 1.386 . S
C1512 C1514 1.391 . S
C1513 C1512 1.386 . S
C1513 C1517 1.393 . S
C1514 H1506 0.950 . S
C1514 C1512 1.391 . S
C1514 C1515 1.400 . S
C1515 C1514 1.400 . S
C1515 C1516 1.398 . S
C1515 C1521 1.491 . S
C1516 H1507 0.950 . S
C1516 C1515 1.398 . S
C1516 C1517 1.391 . S
C1517 H1505 0.950 . S
C1517 C1513 1.393 . S
C1517 C1516 1.391 . S
C1518 H1508 0.950 . S
C1518 C1519 1.386 . S
C1518 C1520 1.391 . S
C1519 C1518 1.386 . S
C1519 C1523 1.393 . S
C1520 H1509 0.950 . S
C1520 C1518 1.391 . S
C1520 C1521 1.400 . S
C1521 C1515 1.491 . S
C1521 C1520 1.400 . S
C1521 C1522 1.398 . S
C1522 H1510 0.950 . S
C1522 C1521 1.398 . S
C1522 C1523 1.391 . S
C1523 H1511 0.950 . S
C1523 C1519 1.393 . S
C1523 C1522 1.391 . S
H1524 C1532 0.950 . S
H1525 C1537 0.950 . S
H1526 C1534 0.950 . S
H1527 C1536 0.950 . S
H1528 C1538 0.950 . S
H1529 C1540 0.950 . S
H1530 C1542 0.950 . S
H1531 C1543 0.950 . S
C1532 H1524 0.950 . S
C1532 C1533 1.386 . S
C1532 C1534 1.391 . S
C1533 C1532 1.386 . S
C1533 C1537 1.393 . S
C1534 H1526 0.950 . S
C1534 C1532 1.391 . S
C1534 C1535 1.400 . S
C1535 C1534 1.400 . S
C1535 C1536 1.398 . S
C1535 C1541 1.491 . S
C1536 H1527 0.950 . S
C1536 C1535 1.398 . S
C1536 C1537 1.391 . S
C1537 H1525 0.950 . S
C1537 C1533 1.393 . S
C1537 C1536 1.391 . S
C1538 H1528 0.950 . S
C1538 C1539 1.386 . S
C1538 C1540 1.391 . S
C1539 C1538 1.386 . S
C1539 C1543 1.393 . S
C1540 H1529 0.950 . S
C1540 C1538 1.391 . S
C1540 C1541 1.400 . S
C1541 C1535 1.491 . S
C1541 C1540 1.400 . S
C1541 C1542 1.398 . S
C1542 H1530 0.950 . S
C1542 C1541 1.398 . S
C1542 C1543 1.391 . S
C1543 H1531 0.950 . S
C1543 C1539 1.393 . S
C1543 C1542 1.391 . S
H1544 C1552 0.950 . S
H1545 C1557 0.950 . S
H1546 C1554 0.950 . S
H1547 C1556 0.950 . S
H1548 C1558 0.950 . S
H1549 C1560 0.950 . S
H1550 C1562 0.950 . S
H1551 C1563 0.950 . S
C1552 H1544 0.950 . S
C1552 C1553 1.386 . S
C1552 C1554 1.391 . S
C1553 C1552 1.386 . S
C1553 C1557 1.393 . S
C1554 H1546 0.950 . S
C1554 C1552 1.391 . S
C1554 C1555 1.400 . S
C1555 C1554 1.400 . S
C1555 C1556 1.398 . S
C1555 C1561 1.491 . S
C1556 H1547 0.950 . S
C1556 C1555 1.398 . S
C1556 C1557 1.391 . S
C1557 H1545 0.950 . S
C1557 C1553 1.393 . S
C1557 C1556 1.391 . S
C1558 H1548 0.950 . S
C1558 C1559 1.386 . S
C1558 C1560 1.391 . S
C1559 C1558 1.386 . S
C1559 C1563 1.393 . S
C1560 H1549 0.950 . S
C1560 C1558 1.391 . S
C1560 C1561 1.400 . S
C1561 C1555 1.491 . S
C1561 C1560 1.400 . S
C1561 C1562 1.398 . S
C1562 H1550 0.950 . S
C1562 C1561 1.398 . S
C1562 C1563 1.391 . S
C1563 H1551 0.950 . S
C1563 C1559 1.393 . S
C1563 C1562 1.391 . S
H1564 C1572 0.950 . S
H1565 C1577 0.950 . S
H1566 C1574 0.950 . S
H1567 C1576 0.950 . S
H1568 C1578 0.950 . S
H1569 C1580 0.950 . S
H1570 C1582 0.950 . S
H1571 C1583 0.950 . S
C1572 H1564 0.950 . S
C1572 C1573 1.386 . S
C1572 C1574 1.391 . S
C1573 C1572 1.386 . S
C1573 C1577 1.393 . S
C1574 H1566 0.950 . S
C1574 C1572 1.391 . S
C1574 C1575 1.400 . S
C1575 C1574 1.400 . S
C1575 C1576 1.398 . S
C1575 C1581 1.491 . S
C1576 H1567 0.950 . S
C1576 C1575 1.398 . S
C1576 C1577 1.391 . S
C1577 H1565 0.950 . S
C1577 C1573 1.393 . S
C1577 C1576 1.391 . S
C1578 H1568 0.950 . S
C1578 C1579 1.386 . S
C1578 C1580 1.391 . S
C1579 C1578 1.386 . S
C1579 C1583 1.393 . S
C1580 H1569 0.950 . S
C1580 C1578 1.391 . S
C1580 C1581 1.400 . S
C1581 C1575 1.491 . S
C1581 C1580 1.400 . S
C1581 C1582 1.398 . S
C1582 H1570 0.950 . S
C1582 C1581 1.398 . S
C1582 C1583 1.391 . S
C1583 H1571 0.950 . S
C1583 C1579 1.393 . S
C1583 C1582 1.391 . S
C953 C241 1.565 . S
C959 C5 1.565 . S
C973 C300 1.566 . S
C979 C64 1.565 . S
C993 C359 1.564 . S
C999 C123 1.564 . S
C1013 C418 1.564 . S
C1019 C182 1.565 . S
C1033 C713 1.565 . S
C1039 C477 1.566 . S
C1053 C772 1.564 . S
C1059 C536 1.565 . S
C1073 C595 1.565 . S
C1079 C831 1.564 . S
C1093 C890 1.566 . S
C1099 C654 1.565 . S
C1113 C52 1.601 . S
C1119 C347 1.600 . S
C1133 C406 1.600 . S
C1139 C111 1.599 . S
C1153 C170 1.608 . S
C1159 C465 1.607 . S
C1173 C288 1.608 . S
C1179 C229 1.607 . S
C1193 C819 1.607 . S
C1199 C524 1.606 . S
C1213 C878 1.609 . S
C1219 C583 1.609 . S
C1233 C642 1.604 . S
C1239 C937 1.602 . S
C1253 C701 1.599 . S
C1259 C760 1.599 . S
C1273 C918 1.774 . S
C1279 C33 1.777 . S
C1293 C741 1.776 . S
C1299 C92 1.778 . S
C1313 C800 1.777 . S
C1319 C151 1.778 . S
C1333 C859 1.778 . S
C1339 C210 1.775 . S
C1353 C564 1.778 . S
C1359 C269 1.778 . S
C1373 C623 1.778 . S
C1379 C328 1.775 . S
C1393 C387 1.774 . S
C1399 C682 1.775 . S
C1413 C446 1.774 . S
C1419 C505 1.777 . S
C1433 C770 1.117 . S
C1439 C121 1.106 . S
C1453 C829 1.122 . S
C1459 C180 1.105 . S
C1473 C888 1.123 . S
C1479 C3 1.103 . S
C1493 C62 1.119 . S
C1499 C711 1.104 . S
C1513 C652 1.104 . S
C1519 C357 1.120 . S
C1533 C416 1.105 . S
C1539 C475 1.118 . S
C1553 C534 1.108 . S
C1559 C239 1.119 . S
C1573 C593 1.109 . S
C1579 C298 1.119 . S
