# Generated by pormake.
# Topology wkh, (6)-cn, num edge types: 1
# Building blocks:
#     Node 0, Type 0, BuildingBlock: VOLQOD_clean_sbu_1, # of connection points: 6
#     Node 1, Type 0, BuildingBlock: VOLQOD_clean_sbu_1, # of connection points: 6
#     Node 2, Type 0, BuildingBlock: VOLQOD_clean_sbu_1, # of connection points: 6
#     Node 3, Type 0, BuildingBlock: VOLQOD_clean_sbu_1, # of connection points: 6
#     Node 4, Type 0, BuildingBlock: VOLQOD_clean_sbu_1, # of connection points: 6
#     Node 5, Type 0, BuildingBlock: VOLQOD_clean_sbu_1, # of connection points: 6
#     Node 6, Type 0, BuildingBlock: VOLQOD_clean_sbu_1, # of connection points: 6
#     Node 7, Type 0, BuildingBlock: VOLQOD_clean_sbu_1, # of connection points: 6
#     Node 8, Type 0, BuildingBlock: VOLQOD_clean_sbu_1, # of connection points: 6
#     Node 9, Type 0, BuildingBlock: VOLQOD_clean_sbu_1, # of connection points: 6
#     Node 10, Type 0, BuildingBlock: VOLQOD_clean_sbu_1, # of connection points: 6
#     Node 11, Type 0, BuildingBlock: VOLQOD_clean_sbu_1, # of connection points: 6
#     Edge 12, Type (0, 0), BuildingBlock: TEMPAE_clean_linker_10, # of connection points: 2
#     Edge 13, Type (0, 0), BuildingBlock: TEMPAE_clean_linker_10, # of connection points: 2
#     Edge 14, Type (0, 0), BuildingBlock: TEMPAE_clean_linker_10, # of connection points: 2
#     Edge 15, Type (0, 0), BuildingBlock: TEMPAE_clean_linker_10, # of connection points: 2
#     Edge 16, Type (0, 0), BuildingBlock: TEMPAE_clean_linker_10, # of connection points: 2
#     Edge 17, Type (0, 0), BuildingBlock: TEMPAE_clean_linker_10, # of connection points: 2
#     Edge 18, Type (0, 0), BuildingBlock: TEMPAE_clean_linker_10, # of connection points: 2
#     Edge 19, Type (0, 0), BuildingBlock: TEMPAE_clean_linker_10, # of connection points: 2
#     Edge 20, Type (0, 0), BuildingBlock: TEMPAE_clean_linker_10, # of connection points: 2
#     Edge 21, Type (0, 0), BuildingBlock: TEMPAE_clean_linker_10, # of connection points: 2
#     Edge 22, Type (0, 0), BuildingBlock: TEMPAE_clean_linker_10, # of connection points: 2
#     Edge 23, Type (0, 0), BuildingBlock: TEMPAE_clean_linker_10, # of connection points: 2
#     Edge 24, Type (0, 0), BuildingBlock: TEMPAE_clean_linker_10, # of connection points: 2
#     Edge 25, Type (0, 0), BuildingBlock: TEMPAE_clean_linker_10, # of connection points: 2
#     Edge 26, Type (0, 0), BuildingBlock: TEMPAE_clean_linker_10, # of connection points: 2
#     Edge 27, Type (0, 0), BuildingBlock: TEMPAE_clean_linker_10, # of connection points: 2
#     Edge 28, Type (0, 0), BuildingBlock: TEMPAE_clean_linker_10, # of connection points: 2
#     Edge 29, Type (0, 0), BuildingBlock: TEMPAE_clean_linker_10, # of connection points: 2
#     Edge 30, Type (0, 0), BuildingBlock: TEMPAE_clean_linker_10, # of connection points: 2
#     Edge 31, Type (0, 0), BuildingBlock: TEMPAE_clean_linker_10, # of connection points: 2
#     Edge 32, Type (0, 0), BuildingBlock: TEMPAE_clean_linker_10, # of connection points: 2
#     Edge 33, Type (0, 0), BuildingBlock: TEMPAE_clean_linker_10, # of connection points: 2
#     Edge 34, Type (0, 0), BuildingBlock: TEMPAE_clean_linker_10, # of connection points: 2
#     Edge 35, Type (0, 0), BuildingBlock: TEMPAE_clean_linker_10, # of connection points: 2
#     Edge 36, Type (0, 0), BuildingBlock: TEMPAE_clean_linker_10, # of connection points: 2
#     Edge 37, Type (0, 0), BuildingBlock: TEMPAE_clean_linker_10, # of connection points: 2
#     Edge 38, Type (0, 0), BuildingBlock: TEMPAE_clean_linker_10, # of connection points: 2
#     Edge 39, Type (0, 0), BuildingBlock: TEMPAE_clean_linker_10, # of connection points: 2
#     Edge 40, Type (0, 0), BuildingBlock: TEMPAE_clean_linker_10, # of connection points: 2
#     Edge 41, Type (0, 0), BuildingBlock: TEMPAE_clean_linker_10, # of connection points: 2
#     Edge 42, Type (0, 0), BuildingBlock: TEMPAE_clean_linker_10, # of connection points: 2
#     Edge 43, Type (0, 0), BuildingBlock: TEMPAE_clean_linker_10, # of connection points: 2
#     Edge 44, Type (0, 0), BuildingBlock: TEMPAE_clean_linker_10, # of connection points: 2
#     Edge 45, Type (0, 0), BuildingBlock: TEMPAE_clean_linker_10, # of connection points: 2
#     Edge 46, Type (0, 0), BuildingBlock: TEMPAE_clean_linker_10, # of connection points: 2
#     Edge 47, Type (0, 0), BuildingBlock: TEMPAE_clean_linker_10, # of connection points: 2
# Relax obj value: 0.363
# Max RMSD: 0.262
# Mean RMSD: 0.262
data_MOF--net-wkh--node1-VOLQOD_clean_sbu_1--edge1-TEMPAE_clean_linker_10
_symmetry_space_group_name_H-M    P1
_symmetry_Int_Tables_number       1
_symmetry_cell_setting            triclinic
loop_
_symmetry_equiv_pos_as_xyz
'x, y, z'
_cell_length_a     27.76751
_cell_length_b     27.772649
_cell_length_c     89.312146
_cell_angle_alpha  89.965804
_cell_angle_beta   90.007745
_cell_angle_gamma 119.97442
loop_
_atom_site_label
_atom_site_type_symbol
_atom_site_fract_x
_atom_site_fract_y
_atom_site_fract_z
_atom_type_partial_charge
O0 O 0.13224 0.33009 0.04378 0.0
Zn1 Zn 0.14191 0.30777 0.02314 0.0
O2 O 0.21872 0.32794 0.01971 0.0
Zn3 Zn 0.22009 0.26233 0.01333 0.0
Zn4 Zn 0.26063 0.3543 0.0383 0.0
Zn5 Zn 0.25142 0.38447 0.00396 0.0
O6 O 0.26434 0.27544 0.99473 0.0
O7 O 0.27273 0.35418 0.986 0.0
O8 O 0.08745 0.22635 0.01954 0.0
O9 O 0.14398 0.20294 0.00826 0.0
O10 O 0.24769 0.23174 0.02944 0.0
O11 O 0.27713 0.29704 0.04695 0.0
O12 O 0.33501 0.42132 0.03394 0.0
O13 O 0.12047 0.34791 0.00865 0.0
O14 O 0.32589 0.44638 0.01093 0.0
O15 O 0.19738 0.4102 0.99693 0.0
C16 C 0.16522 0.35432 0.05466 0.0
C17 C 0.27915 0.31207 0.98452 0.0
C18 C 0.26948 0.25058 0.04217 0.0
C19 C 0.09547 0.19215 0.012 0.0
C20 C 0.3551 0.45321 0.02261 0.0
C21 C 0.14515 0.38752 -0.00064 0.0
O22 O 0.2164 0.36793 0.05412 0.0
O23 O 0.80997 0.13308 0.20768 0.0
Zn24 Zn 0.83917 0.15068 0.18677 0.0
O25 O 0.88103 0.22917 0.18395 0.0
Zn26 Zn 0.95589 0.25145 0.17823 0.0
Zn27 Zn 0.88264 0.26527 0.20255 0.0
Zn28 Zn 0.85035 0.25128 0.16778 0.0
O29 O 0.98162 0.30297 0.16058 0.0
O30 O 0.89948 0.26857 0.14939 0.0
O31 O 0.88359 0.11407 0.18197 0.0
O32 O 0.95972 0.18443 0.17211 0.0
O33 O 0.00761 0.28241 0.19565 0.0
O34 O 0.9543 0.28675 0.2135 0.0
O35 O 0.88282 0.33581 0.1976 0.0
O36 O 0.77366 0.11819 0.17324 0.0
O37 O 0.85767 0.32497 0.17359 0.0
O38 O 0.77167 0.18953 0.1625 0.0
C39 C 0.80158 0.16044 0.21778 0.0
C40 C 0.95248 0.29637 0.14894 0.0
C41 C 0.00043 0.29218 0.20913 0.0
C42 C 0.92975 0.13301 0.17515 0.0
C43 C 0.87356 0.35434 0.1855 0.0
C44 C 0.75015 0.13736 0.16485 0.0
O45 O 0.82123 0.21282 0.21659 0.0
O46 O 0.66872 0.79698 0.37304 0.0
Zn47 Zn 0.68499 0.82852 0.35234 0.0
O48 O 0.66199 0.88333 0.35042 0.0
Zn49 Zn 0.7265 0.95442 0.34585 0.0
Zn50 Zn 0.63007 0.88951 0.36927 0.0
Zn51 Zn 0.60728 0.86184 0.33438 0.0
O52 O 0.71585 0.98626 0.32693 0.0
O53 O 0.64096 0.91476 0.31687 0.0
O54 O 0.76583 0.85817 0.34765 0.0
O55 O 0.79282 0.94616 0.34253 0.0
O56 O 0.74785 0.0079 0.36288 0.0
O57 O 0.68472 0.95922 0.38021 0.0
O58 O 0.56413 0.89933 0.36508 0.0
O59 O 0.64264 0.76644 0.3382 0.0
O60 O 0.54621 0.8761 0.34108 0.0
O61 O 0.57956 0.78179 0.32725 0.0
C62 C 0.63808 0.79633 0.38374 0.0
C63 C 0.68203 0.96424 0.31608 0.0
C64 C 0.72862 0.003 0.37607 0.0
C65 C 0.8032 0.90666 0.34375 0.0
C66 C 0.5362 0.89368 0.35323 0.0
C67 C 0.60179 0.75163 0.32935 0.0
O68 O 0.61446 0.8257 0.38332 0.0
O69 O 0.87121 0.66848 0.53892 0.0
Zn70 Zn 0.85573 0.68588 0.51844 0.0
O71 O 0.77825 0.66346 0.51632 0.0
Zn72 Zn 0.7734 0.72803 0.51082 0.0
Zn73 Zn 0.74123 0.63509 0.53545 0.0
Zn74 Zn 0.74353 0.60719 0.5007 0.0
O75 O 0.72572 0.71429 0.49286 0.0
O76 O 0.72106 0.63835 0.48318 0.0
O77 O 0.90766 0.76644 0.51393 0.0
O78 O 0.84775 0.78988 0.50499 0.0
O79 O 0.74842 0.75637 0.52805 0.0
O80 O 0.72891 0.69282 0.5457 0.0
O81 O 0.66511 0.56979 0.53172 0.0
O82 O 0.87486 0.64443 0.50391 0.0
O83 O 0.66949 0.54603 0.5082 0.0
O84 O 0.79637 0.58081 0.49308 0.0
C85 C 0.84124 0.63961 0.54984 0.0
C86 C 0.71218 0.67911 0.48231 0.0
C87 C 0.73297 0.73833 0.5413 0.0
C88 C 0.89731 0.80099 0.50745 0.0
C89 C 0.64243 0.53904 0.52033 0.0
C90 C 0.84895 0.60397 0.49495 0.0
O91 O 0.78851 0.61875 0.54971 0.0
O92 O 0.19221 0.87098 0.70652 0.0
Zn93 Zn 0.16388 0.85523 0.68552 0.0
O94 O 0.10964 0.77752 0.68301 0.0
Zn95 Zn 0.04045 0.77209 0.67684 0.0
Zn96 Zn 0.09904 0.73998 0.70218 0.0
Zn97 Zn 0.13353 0.74364 0.66764 0.0
O98 O 0.00994 0.72633 0.65851 0.0
O99 O 0.08191 0.72109 0.64959 0.0
O100 O 0.13539 0.90663 0.68014 0.0
O101 O 0.05212 0.84634 0.67129 0.0
O102 O 0.984 0.74377 0.6933 0.0
O103 O 0.02586 0.72313 0.71131 0.0
O104 O 0.0928 0.66572 0.69883 0.0
O105 O 0.22717 0.87516 0.67186 0.0
O106 O 0.12112 0.66988 0.67533 0.0
O107 O 0.21348 0.79759 0.66069 0.0
C108 C 0.18889 0.84109 0.71772 0.0
C109 C 0.03261 0.71283 0.64823 0.0
C110 C 0.98444 0.72629 0.70644 0.0
C111 C 0.09045 0.89599 0.67364 0.0
C112 C 0.10185 0.64323 0.68756 0.0
C113 C 0.24284 0.84993 0.66298 0.0
O114 O 0.15816 0.78827 0.71738 0.0
O115 O 0.32686 0.20265 0.87442 0.0
Zn116 Zn 0.3091 0.17094 0.8538 0.0
O117 O 0.33013 0.11469 0.8516 0.0
Zn118 Zn 0.26408 0.04448 0.84706 0.0
Zn119 Zn 0.36175 0.10715 0.8704 0.0
Zn120 Zn 0.38442 0.13565 0.83537 0.0
O121 O 0.27063 0.01482 0.82724 0.0
O122 O 0.34958 0.08302 0.81783 0.0
O123 O 0.2284 0.1432 0.84987 0.0
O124 O 0.19765 0.05372 0.84577 0.0
O125 O 0.2453 0.98832 0.86324 0.0
O126 O 0.30773 0.03572 0.88082 0.0
O127 O 0.42829 0.09885 0.86608 0.0
O128 O 0.35051 0.23199 0.83942 0.0
O129 O 0.44534 0.12077 0.84197 0.0
O130 O 0.41233 0.21576 0.82807 0.0
C131 C 0.35546 0.20082 0.88532 0.0
C132 C 0.30565 0.03566 0.8166 0.0
C133 C 0.26468 0.99179 0.87634 0.0
C134 C 0.18921 0.09445 0.84703 0.0
C135 C 0.45586 0.10399 0.85419 0.0
C136 C 0.39043 0.24616 0.83029 0.0
O137 O 0.37674 0.16935 0.88499 0.0
O138 O 0.66621 0.87416 0.78781 0.0
Zn139 Zn 0.68573 0.86043 0.80826 0.0
O140 O 0.66529 0.78332 0.81038 0.0
Zn141 Zn 0.73178 0.77937 0.81448 0.0
Zn142 Zn 0.63245 0.74414 0.79167 0.0
Zn143 Zn 0.61228 0.74985 0.82687 0.0
O144 O 0.72645 0.74221 0.83412 0.0
O145 O 0.64851 0.73208 0.84409 0.0
O146 O 0.7666 0.91362 0.81184 0.0
O147 O 0.79788 0.85519 0.8158 0.0
O148 O 0.75024 0.7433 0.79788 0.0
O149 O 0.68638 0.72796 0.7807 0.0
O150 O 0.56691 0.66892 0.79625 0.0
O151 O 0.6451 0.87982 0.82298 0.0
O152 O 0.55116 0.674 0.82045 0.0
O153 O 0.58444 0.8017 0.83451 0.0
C154 C 0.63657 0.84361 0.77707 0.0
C155 C 0.69228 0.72816 0.84497 0.0
C156 C 0.73013 0.72772 0.78484 0.0
C157 C 0.80604 0.90425 0.81455 0.0
C158 C 0.54013 0.64654 0.80825 0.0
C159 C 0.60588 0.85394 0.83229 0.0
O160 O 0.61542 0.79088 0.77742 0.0
O161 O 0.80878 0.67657 0.95465 0.0
Zn162 Zn 0.83483 0.68695 0.97586 0.0
O163 O 0.88764 0.66177 0.97839 0.0
Zn164 Zn 0.95763 0.72449 0.98429 0.0
Zn165 Zn 0.8972 0.63292 0.95942 0.0
Zn166 Zn 0.86326 0.60544 0.99408 0.0
O167 O 0.98937 0.70742 0.00206 0.0
O168 O 0.9149 0.63554 0.01207 0.0
O169 O 0.86425 0.76637 0.98205 0.0
O170 O 0.94741 0.78745 0.99055 0.0
O171 O 0.01235 0.75244 0.96747 0.0
O172 O 0.97012 0.68829 0.9499 0.0
O173 O 0.90318 0.56457 0.9633 0.0
O174 O 0.76983 0.64307 0.98902 0.0
O175 O 0.8754 0.5435 0.98695 0.0
O176 O 0.78328 0.58 0.00076 0.0
C177 C 0.81021 0.64819 0.94363 0.0
C178 C 0.96576 0.67378 0.01284 0.0
C179 C 0.01141 0.73357 0.95444 0.0
C180 C 0.90944 0.79966 0.98861 0.0
C181 C 0.89434 0.53447 0.9749 0.0
C182 C 0.75374 0.6025 -0.00196 0.0
O183 O 0.83795 0.62285 0.94427 0.0
O184 O 0.13209 0.80943 0.12078 0.0
Zn185 Zn 0.15005 0.83947 0.14158 0.0
O186 O 0.22854 0.88117 0.14432 0.0
Zn187 Zn 0.2507 0.95587 0.15003 0.0
Zn188 Zn 0.26433 0.88281 0.12567 0.0
Zn189 Zn 0.25094 0.8504 0.16039 0.0
O190 O 0.30319 0.98176 0.16745 0.0
O191 O 0.26924 0.89979 0.17872 0.0
O192 O 0.11354 0.884 0.14635 0.0
O193 O 0.18382 0.95949 0.15645 0.0
O194 O 0.28059 0.00731 0.13252 0.0
O195 O 0.28462 0.95411 0.11459 0.0
O196 O 0.33544 0.88401 0.13056 0.0
O197 O 0.11769 0.77431 0.15523 0.0
O198 O 0.32439 0.85741 0.15445 0.0
O199 O 0.18905 0.7719 0.1658 0.0
C200 C 0.15938 0.80025 0.11083 0.0
C201 C 0.29724 0.95279 0.17908 0.0
C202 C 0.28985 0.00012 0.11899 0.0
C203 C 0.13243 0.9298 0.15334 0.0
C204 C 0.35393 0.87417 0.14257 0.0
C205 C 0.13684 0.75067 0.16357 0.0
O206 O 0.21181 0.82011 0.11197 0.0
O207 O 0.33305 0.1291 0.28432 0.0
Zn208 Zn 0.30638 0.13466 0.30474 0.0
O209 O 0.3196 0.20931 0.30837 0.0
Zn210 Zn 0.24973 0.20455 0.31406 0.0
Zn211 Zn 0.34686 0.25359 0.29009 0.0
Zn212 Zn 0.37452 0.24372 0.32451 0.0
O213 O 0.25543 0.23928 0.33411 0.0
O214 O 0.33942 0.2601 0.34216 0.0
O215 O 0.22601 0.07544 0.30701 0.0
O216 O 0.18954 0.12559 0.3154 0.0
O217 O 0.22336 0.23909 0.29875 0.0
O218 O 0.28968 0.27011 0.28148 0.0
O219 O 0.4124 0.32858 0.2948 0.0
O220 O 0.34695 0.11554 0.31963 0.0
O221 O 0.43447 0.32045 0.31821 0.0
O222 O 0.40432 0.19319 0.33185 0.0
C223 C 0.35475 0.16283 0.27343 0.0
C224 C 0.29306 0.25824 0.34413 0.0
C225 C 0.24335 0.26279 0.28627 0.0
C226 C 0.18512 0.07925 0.31191 0.0
C227 C 0.44225 0.34947 0.30643 0.0
C228 C 0.38488 0.14147 0.32927 0.0
O229 O 0.36342 0.21243 0.27403 0.0
O230 O 0.19253 0.32183 0.45447 0.0
Zn231 Zn 0.16509 0.30994 0.47555 0.0
O232 O 0.11009 0.33247 0.47809 0.0
Zn233 Zn 0.04137 0.26821 0.48428 0.0
Zn234 Zn 0.09876 0.35893 0.45894 0.0
Zn235 Zn 0.13343 0.3902 0.49344 0.0
O236 O 0.01001 0.28348 0.50245 0.0
O237 O 0.08148 0.36088 0.51143 0.0
O238 O 0.13783 0.23053 0.4812 0.0
O239 O 0.05445 0.20675 0.49014 0.0
O240 O 0.9851 0.23875 0.46774 0.0
O241 O 0.02568 0.30224 0.44991 0.0
O242 O 0.09238 0.4269 0.4622 0.0
O243 O 0.22863 0.35432 0.48904 0.0
O244 O 0.12074 0.4513 0.48568 0.0
O245 O 0.21349 0.41688 0.50044 0.0
C246 C 0.18832 0.34766 0.44323 0.0
C247 C 0.03224 0.31972 0.51273 0.0
C248 C 0.985 0.25694 0.45468 0.0
C249 C 0.09331 0.19612 0.48783 0.0
C250 C 0.10146 0.45856 0.47344 0.0
C251 C 0.24367 0.39488 0.498 0.0
O252 O 0.15728 0.36941 0.44362 0.0
O253 O 0.86982 0.20269 0.62199 0.0
Zn254 Zn 0.85383 0.17013 0.64251 0.0
O255 O 0.7762 0.11571 0.64461 0.0
Zn256 Zn 0.77062 0.04597 0.65009 0.0
Zn257 Zn 0.73951 0.10756 0.62546 0.0
Zn258 Zn 0.74171 0.13752 0.66024 0.0
O259 O 0.72205 0.01182 0.66788 0.0
O260 O 0.71846 0.08349 0.67771 0.0
O261 O 0.90512 0.14082 0.6472 0.0
O262 O 0.84452 0.05781 0.65617 0.0
O263 O 0.74625 0.99318 0.63275 0.0
O264 O 0.72711 0.03761 0.61513 0.0
O265 O 0.66355 0.09722 0.62917 0.0
O266 O 0.87327 0.23099 0.65696 0.0
O267 O 0.66802 0.12549 0.65268 0.0
O268 O 0.79506 0.21656 0.66789 0.0
C269 C 0.84004 0.20219 0.61109 0.0
C270 C 0.70878 0.03355 0.67847 0.0
C271 C 0.73112 0.99607 0.61949 0.0
C272 C 0.89425 0.09592 0.65376 0.0
C273 C 0.64098 0.10556 0.64055 0.0
C274 C 0.84762 0.24577 0.66595 0.0
O275 O 0.78721 0.17117 0.61125 0.0
C276 C 0.66083 0.52677 0.00685 0.0
C277 C 0.6999 0.58334 0.00556 0.0
C278 C 0.60618 0.50951 0.01153 0.0
C279 C 0.5911 0.54992 0.01528 0.0
C280 C 0.63181 0.60693 0.01506 0.0
C281 C 0.6855 0.62294 0.01002 0.0
C282 C 0.56373 0.4483 0.01152 0.0
C283 C 0.61795 0.65123 0.01933 0.0
C284 C 0.44123 0.50908 0.00756 0.0
C285 C 0.41634 0.48959 0.0216 0.0
C286 C 0.49834 0.53013 0.00547 0.0
C287 C 0.53174 0.53298 0.01779 0.0
C288 C 0.50785 0.51778 0.03224 0.0
C289 C 0.45032 0.4959 0.03397 0.0
C290 C 0.52222 0.54607 0.98987 0.0
C291 C 0.54245 0.52186 0.04573 0.0
H292 H 0.67198 0.49625 0.00334 0.0
H293 H 0.71605 0.66681 0.00917 0.0
H294 H 0.54132 0.43602 0.02237 0.0
H295 H 0.53241 0.43953 0.00265 0.0
H296 H 0.58292 0.42209 0.00948 0.0
H297 H 0.65583 0.69264 0.02064 0.0
H298 H 0.59148 0.65442 0.01053 0.0
H299 H 0.59407 0.64018 0.02995 0.0
H300 H 0.41558 0.50447 -0.00209 0.0
H301 H 0.43161 0.48124 0.04489 0.0
H302 H 0.53801 0.51829 0.98621 0.0
H303 H 0.5579 0.58918 0.98978 0.0
H304 H 0.49103 0.54315 0.98158 0.0
H305 H 0.55501 0.48978 0.04496 0.0
H306 H 0.51936 0.51559 0.05637 0.0
H307 H 0.58106 0.56298 0.04607 0.0
C308 C 0.04182 0.685 0.17296 0.0
C309 C 0.09635 0.69656 0.17018 0.0
C310 C 0.00012 0.63179 0.17726 0.0
C311 C 0.01303 0.58879 0.17855 0.0
C312 C 0.06862 0.60079 0.17646 0.0
C313 C 0.10987 0.65484 0.17243 0.0
C314 C 0.94175 0.62105 0.17972 0.0
C315 C 0.0839 0.55583 0.17767 0.0
C316 C 0.91839 0.44942 0.19685 0.0
C317 C 0.89555 0.41507 0.18425 0.0
C318 C 0.95428 0.50691 0.19526 0.0
C319 C 0.96784 0.53038 0.18074 0.0
C320 C 0.94104 0.49683 0.16811 0.0
C321 C 0.90478 0.43968 0.17003 0.0
C322 C 0.98074 0.54166 0.20904 0.0
C323 C 0.95404 0.52036 0.15242 0.0
H324 H 0.03136 0.71745 0.17142 0.0
H325 H 0.15191 0.66364 0.17025 0.0
H326 H 0.91464 0.5954 0.17041 0.0
H327 H 0.92418 0.59741 0.19024 0.0
H328 H 0.94017 0.6602 0.18026 0.0
H329 H 0.1294 0.57256 0.17662 0.0
H330 H 0.06974 0.53395 0.18856 0.0
H331 H 0.06252 0.52455 0.16872 0.0
H332 H 0.91115 0.431 0.20791 0.0
H333 H 0.88723 0.41376 0.16021 0.0
H334 H 0.98024 0.58131 0.20846 0.0
H335 H 0.02485 0.55221 0.20968 0.0
H336 H 0.95939 0.5194 0.21946 0.0
H337 H 0.94978 0.55791 0.15164 0.0
H338 H 0.92648 0.4898 0.14392 0.0
H339 H 0.99777 0.53313 0.14963 0.0
C340 C 0.36627 0.05521 0.34232 0.0
C341 C 0.40509 0.10888 0.33744 0.0
C342 C 0.3832 0.01825 0.34739 0.0
C343 C 0.44035 0.03492 0.34723 0.0
C344 C 0.48004 0.09032 0.34319 0.0
C345 C 0.46188 0.12699 0.33846 0.0
C346 C 0.3396 0.96018 0.35195 0.0
C347 C 0.54137 0.10957 0.3428 0.0
C348 C 0.49573 0.94764 0.36508 0.0
C349 C 0.50084 0.91988 0.35255 0.0
C350 C 0.47419 0.98376 0.36368 0.0
C351 C 0.45787 0.99269 0.34941 0.0
C352 C 0.4597 0.96222 0.33693 0.0
C353 C 0.48063 0.92589 0.33868 0.0
C354 C 0.47149 0.01436 0.37732 0.0
C355 C 0.44236 0.97022 0.32151 0.0
H356 H 0.32224 0.04137 0.34161 0.0
H357 H 0.4918 0.16834 0.33458 0.0
H358 H 0.33537 0.9304 0.34307 0.0
H359 H 0.35202 0.94759 0.36239 0.0
H360 H 0.29833 0.95661 0.35372 0.0
H361 H 0.56708 0.15506 0.34086 0.0
H362 H 0.55457 0.09911 0.35345 0.0
H363 H 0.54977 0.08765 0.33367 0.0
H364 H 0.51104 0.94331 0.37587 0.0
H365 H 0.48415 0.90469 0.32891 0.0
H366 H 0.43038 0.01177 0.37807 0.0
H367 H 0.50339 0.05899 0.37641 0.0
H368 H 0.47895 0.99769 0.38784 0.0
H369 H 0.39909 0.96237 0.32176 0.0
H370 H 0.44491 0.94227 0.31305 0.0
H371 H 0.4695 0.01388 0.31784 0.0
C372 C 0.31071 0.37507 0.5109 0.0
C373 C 0.29715 0.41454 0.50574 0.0
C374 C 0.36457 0.3909 0.51574 0.0
C375 C 0.40623 0.44752 0.51507 0.0
C376 C 0.39196 0.48802 0.51074 0.0
C377 C 0.33717 0.47101 0.50623 0.0
C378 C 0.37759 0.34656 0.52062 0.0
C379 C 0.43537 0.54882 0.50983 0.0
C380 C 0.54899 0.50105 0.53252 0.0
C381 C 0.5809 0.50412 0.51995 0.0
C382 C 0.49154 0.48069 0.53128 0.0
C383 C 0.46555 0.46345 0.51713 0.0
C384 C 0.49674 0.46294 0.50465 0.0
C385 C 0.55384 0.48276 0.50624 0.0
C386 C 0.45936 0.48042 0.54492 0.0
C387 C 0.4705 0.44448 0.48937 0.0
H388 H 0.27945 0.33131 0.51063 0.0
H389 H 0.32667 0.5014 0.50216 0.0
H390 H 0.40213 0.34052 0.51177 0.0
H391 H 0.4031 0.35939 0.53096 0.0
H392 H 0.33929 0.30608 0.52269 0.0
H393 H 0.41677 0.57546 0.50764 0.0
H394 H 0.45956 0.56262 0.52039 0.0
H395 H 0.46502 0.55523 0.50067 0.0
H396 H 0.56932 0.5172 0.54318 0.0
H397 H 0.57783 0.48473 0.49646 0.0
H398 H 0.42012 0.44008 0.54595 0.0
H399 H 0.44797 0.51327 0.54378 0.0
H400 H 0.48377 0.48812 0.55539 0.0
H401 H 0.43412 0.40185 0.48997 0.0
H402 H 0.50008 0.44489 0.48093 0.0
H403 H 0.45521 0.47238 0.48544 0.0
C404 C 0.93429 0.31126 0.67915 0.0
C405 C 0.8815 0.29851 0.67398 0.0
C406 C 0.97291 0.36494 0.68395 0.0
C407 C 0.95874 0.40719 0.68326 0.0
C408 C 0.9041 0.39366 0.67902 0.0
C409 C 0.86577 0.33908 0.67453 0.0
C410 C 0.03009 0.37718 0.68874 0.0
C411 C 0.8875 0.43769 0.67813 0.0
C412 C 0.04885 0.55047 0.70019 0.0
C413 C 0.07674 0.58186 0.68746 0.0
C414 C 0.01207 0.49293 0.69919 0.0
C415 C 0.00274 0.46632 0.68513 0.0
C416 C 0.03391 0.49692 0.67251 0.0
C417 C 0.07087 0.55417 0.67386 0.0
C418 C 0.98077 0.46141 0.71298 0.0
C419 C 0.0256 0.46996 0.65732 0.0
H420 H 0.94625 0.27958 0.67882 0.0
H421 H 0.82508 0.32923 0.67044 0.0
H422 H 0.06049 0.40068 0.67976 0.0
H423 H 0.04361 0.40337 0.69896 0.0
H424 H 0.0315 0.33855 0.69098 0.0
H425 H 0.84226 0.41963 0.67605 0.0
H426 H 0.89852 0.46212 0.68865 0.0
H427 H 0.91069 0.46699 0.6689 0.0
H428 H 0.05327 0.57128 0.71079 0.0
H429 H 0.09224 0.57777 0.66396 0.0
H430 H 0.98102 0.42171 0.71398 0.0
H431 H 0.93674 0.45096 0.71208 0.0
H432 H -0.00142 0.48598 0.72337 0.0
H433 H 0.03126 0.43323 0.65804 0.0
H434 H 0.05487 0.49897 0.64879 0.0
H435 H 0.98247 0.4551 0.65342 0.0
C436 C 0.52923 0.86923 0.84136 0.0
C437 C 0.58597 0.88712 0.84029 0.0
C438 C 0.51134 0.90642 0.84577 0.0
C439 C 0.55127 0.9622 0.84938 0.0
C440 C 0.60837 0.97876 0.84952 0.0
C441 C 0.62502 0.94118 0.84484 0.0
C442 C 0.45003 0.88723 0.84547 0.0
C443 C 0.65222 0.0373 0.8536 0.0
C444 C 0.51061 0.07029 0.83987 0.0
C445 C 0.49133 0.07793 0.8537 0.0
C446 C 0.53145 0.03377 0.83843 0.0
C447 C 0.53395 0.0047 0.85117 0.0
C448 C 0.51857 0.01531 0.86536 0.0
C449 C 0.49727 0.05168 0.86646 0.0
C450 C 0.54795 0.02404 0.8231 0.0
C451 C 0.5219 0.98615 0.87926 0.0
H452 H 0.49912 0.82757 0.83775 0.0
H453 H 0.66901 0.95487 0.84411 0.0
H454 H 0.43735 0.899 0.856 0.0
H455 H 0.44124 0.90808 0.83613 0.0
H456 H 0.42417 0.84154 0.84394 0.0
H457 H 0.69356 0.04103 0.85538 0.0
H458 H 0.65607 0.06607 0.84445 0.0
H459 H 0.64031 0.0511 0.8639 0.0
H460 H 0.5064 0.0903 0.82993 0.0
H461 H 0.48271 0.05731 0.87722 0.0
H462 H 0.52042 0.98007 0.81977 0.0
H463 H 0.59113 0.03162 0.82332 0.0
H464 H 0.54521 0.05124 0.81442 0.0
H465 H 0.48991 0.94145 0.8787 0.0
H466 H 0.51501 0.00396 0.88963 0.0
H467 H 0.56302 0.98874 0.88 0.0
C468 C 0.48617 0.55838 0.82275 0.0
C469 C 0.50502 0.58502 0.80887 0.0
C470 C 0.4655 0.50109 0.82427 0.0
C471 C 0.46274 0.46931 0.81157 0.0
C472 C 0.47779 0.49503 0.79734 0.0
C473 C 0.4989 0.55263 0.79615 0.0
C474 C 0.44935 0.47514 0.83965 0.0
C475 C 0.4742 0.4623 0.78348 0.0
C476 C 0.46721 0.33834 0.82138 0.0
C477 C 0.41045 0.29962 0.82246 0.0
C478 C 0.48517 0.39348 0.817 0.0
C479 C 0.44531 0.4095 0.81343 0.0
C480 C 0.38817 0.36914 0.81334 0.0
C481 C 0.37145 0.31486 0.81799 0.0
C482 C 0.54652 0.43544 0.81724 0.0
C483 C 0.34437 0.38403 0.80932 0.0
H484 H 0.49052 0.58276 0.83266 0.0
H485 H 0.51315 0.57261 0.78535 0.0
H486 H 0.40615 0.43962 0.83952 0.0
H487 H 0.47691 0.45867 0.84296 0.0
H488 H 0.45234 0.50524 0.84831 0.0
H489 H 0.48118 0.4869 0.77308 0.0
H490 H 0.50599 0.4493 0.78407 0.0
H491 H 0.43296 0.42396 0.78278 0.0
H492 H 0.49729 0.32663 0.82492 0.0
H493 H 0.32744 0.28466 0.81871 0.0
H494 H 0.55548 0.46516 0.82656 0.0
H495 H 0.55913 0.45978 0.80669 0.0
H496 H 0.57231 0.41549 0.81877 0.0
H497 H 0.34095 0.40925 0.81844 0.0
H498 H 0.30289 0.34655 0.80765 0.0
H499 H 0.35608 0.40949 0.79897 0.0
C500 C 0.92458 0.47764 0.98957 0.0
C501 C 0.91915 0.4979 0.97564 0.0
C502 C 0.96086 0.45673 0.99148 0.0
C503 C 0.99163 0.45476 0.97909 0.0
C504 C 0.98277 0.47053 0.96473 0.0
C505 C 0.94688 0.49226 0.96318 0.0
C506 C 0.96886 0.4401 0.00699 0.0
C507 C 0.01348 0.46737 0.95117 0.0
C508 C 0.12754 0.46254 0.99017 0.0
C509 C 0.11068 0.40609 0.99144 0.0
C510 C 0.08983 0.47927 0.98538 0.0
C511 C 0.03467 0.43848 0.98149 0.0
C512 C 0.01915 0.38165 0.98161 0.0
C513 C 0.05712 0.36613 0.98677 0.0
C514 C 0.10782 0.54031 0.9855 0.0
C515 C 0.96141 0.33694 0.97718 0.0
H516 H 0.90337 0.48152 -0.00072 0.0
H517 H 0.94286 0.50749 0.95234 0.0
H518 H 0.96189 0.39715 0.00689 0.0
H519 H 0.0123 0.468 0.01071 0.0
H520 H 0.94032 0.44224 0.01534 0.0
H521 H 0.99612 0.47336 0.94058 0.0
H522 H 0.05787 0.5001 0.95191 0.0
H523 H 0.01189 0.42667 0.95073 0.0
H524 H 0.16884 0.49335 0.99386 0.0
H525 H 0.04427 0.32237 0.98763 0.0
H526 H 0.085 0.54847 0.99442 0.0
H527 H 0.09741 0.55262 0.97469 0.0
H528 H 0.15314 0.56692 0.98755 0.0
H529 H 0.93141 0.33254 0.98602 0.0
H530 H 0.95877 0.296 0.97562 0.0
H531 H 0.94833 0.34834 0.96664 0.0
C532 C 0.43915 0.90521 0.15806 0.0
C533 C 0.4147 0.89639 0.14383 0.0
C534 C 0.49626 0.94152 0.16005 0.0
C535 C 0.52996 0.96877 0.14746 0.0
C536 C 0.50665 0.95566 0.13292 0.0
C537 C 0.44919 0.91974 0.13127 0.0
C538 C 0.51958 0.95409 0.17575 0.0
C539 C 0.54158 0.98257 0.11919 0.0
C540 C 0.65434 0.11054 0.15602 0.0
C541 C 0.69603 0.09697 0.15824 0.0
C542 C 0.60032 0.06941 0.15193 0.0
C543 C 0.58835 0.01389 0.14973 0.0
C544 C 0.63133 0.00094 0.151 0.0
C545 C 0.6845 0.0425 0.15538 0.0
C546 C 0.55537 0.08472 0.15076 0.0
C547 C 0.62064 0.94267 0.14842 0.0
H548 H 0.41313 0.88729 0.16786 0.0
H549 H 0.43088 0.91284 0.12021 0.0
H550 H 0.55711 0.94978 0.17652 0.0
H551 H 0.53234 0.99774 0.17862 0.0
H552 H 0.4889 0.92632 0.18421 0.0
H553 H 0.51945 0.96155 0.10872 0.0
H554 H 0.55211 0.02669 0.11864 0.0
H555 H 0.58124 0.98208 0.11974 0.0
H556 H 0.66313 0.15253 0.15826 0.0
H557 H 0.71693 0.03202 0.1569 0.0
H558 H 0.52393 0.06303 0.15967 0.0
H559 H 0.53367 0.07093 0.13984 0.0
H560 H 0.57207 0.13017 0.15191 0.0
H561 H 0.59479 0.91525 0.15766 0.0
H562 H 0.65981 0.9411 0.14789 0.0
H563 H 0.59722 0.92547 0.13785 0.0
C564 C 0.49712 0.43635 0.32134 0.0
C565 C 0.47794 0.41085 0.30735 0.0
C566 C 0.5192 0.49376 0.32315 0.0
C567 C 0.52316 0.52682 0.31061 0.0
C568 C 0.50751 0.50209 0.29628 0.0
C569 C 0.48482 0.44435 0.29482 0.0
C570 C 0.53566 0.51855 0.33864 0.0
C571 C 0.51238 0.53617 0.28259 0.0
C572 C 0.52341 0.65999 0.32071 0.0
C573 C 0.5805 0.69744 0.32182 0.0
C574 C 0.50387 0.60457 0.31634 0.0
C575 C 0.54248 0.58695 0.31275 0.0
C576 C 0.60003 0.62598 0.31275 0.0
C577 C 0.61832 0.68055 0.31744 0.0
C578 C 0.44214 0.56405 0.31654 0.0
C579 C 0.64252 0.60938 0.30867 0.0
H580 H 0.49197 0.41107 0.33112 0.0
H581 H 0.4703 0.4252 0.28395 0.0
H582 H 0.57939 0.55305 0.33864 0.0
H583 H 0.50923 0.53622 0.34204 0.0
H584 H 0.53132 0.48743 0.34714 0.0
H585 H 0.50431 0.51196 0.27208 0.0
H586 H 0.48201 0.55096 0.28337 0.0
H587 H 0.55443 0.57347 0.28195 0.0
H588 H 0.49421 0.67296 0.32417 0.0
H589 H 0.66259 0.70975 0.31817 0.0
H590 H 0.4323 0.53353 0.32571 0.0
H591 H 0.42889 0.54041 0.30589 0.0
H592 H 0.41751 0.58513 0.31827 0.0
H593 H 0.64448 0.58279 0.31765 0.0
H594 H 0.68471 0.64605 0.3072 0.0
H595 H 0.63045 0.58471 0.29818 0.0
C596 C 0.07096 0.51725 0.48704 0.0
C597 C 0.07654 0.49501 0.47348 0.0
C598 C 0.03425 0.53789 0.48835 0.0
C599 C 0.00306 0.53724 0.47573 0.0
C600 C 0.01212 0.51952 0.4617 0.0
C601 C 0.04865 0.49843 0.46074 0.0
C602 C 0.02622 0.557 0.50351 0.0
C603 C 0.98079 0.51966 0.4479 0.0
C604 C 0.86653 0.52842 0.4864 0.0
C605 C 0.88251 0.58477 0.48689 0.0
C606 C 0.90461 0.51184 0.48189 0.0
C607 C 0.95924 0.55267 0.47758 0.0
C608 C 0.97363 0.60912 0.47682 0.0
C609 C 0.93526 0.62453 0.48164 0.0
C610 C 0.88779 0.45118 0.48286 0.0
C611 C 0.03081 0.65376 0.47194 0.0
H612 H 0.09236 0.5151 0.49695 0.0
H613 H 0.05287 0.48173 0.45017 0.0
H614 H 0.03211 0.59946 0.50271 0.0
H615 H 0.9831 0.52902 0.50746 0.0
H616 H 0.05549 0.55726 0.51203 0.0
H617 H -0.00152 0.51262 0.43752 0.0
H618 H 0.93673 0.48624 0.44884 0.0
H619 H 0.98118 0.55966 0.44685 0.0
H620 H 0.82586 0.49781 0.49055 0.0
H621 H 0.94739 0.6682 0.48192 0.0
H622 H 0.91098 0.44509 0.49209 0.0
H623 H 0.89862 0.4375 0.47235 0.0
H624 H 0.84255 0.42422 0.48497 0.0
H625 H 0.06128 0.66077 0.4809 0.0
H626 H 0.03232 0.69381 0.46962 0.0
H627 H 0.04413 0.64075 0.46174 0.0
C628 C 0.54755 0.05058 0.62835 0.0
C629 C 0.57947 0.07925 0.64092 0.0
C630 C 0.49011 0.01349 0.6296 0.0
C631 C 0.46417 0.00458 0.64376 0.0
C632 C 0.49535 0.03623 0.65624 0.0
C633 C 0.55243 0.07352 0.65464 0.0
C634 C 0.45792 0.98166 0.61595 0.0
C635 C 0.46916 0.02828 0.67154 0.0
C636 C 0.30929 0.93709 0.65011 0.0
C637 C 0.29622 0.88416 0.65523 0.0
C638 C 0.363 0.97545 0.64525 0.0
C639 C 0.405 0.9609 0.64585 0.0
C640 C 0.39122 0.90624 0.65013 0.0
C641 C 0.33658 0.86814 0.65466 0.0
C642 C 0.3755 0.03267 0.64042 0.0
C643 C 0.43501 0.8893 0.65096 0.0
H644 H 0.56785 0.05481 0.61767 0.0
H645 H 0.57644 0.09545 0.66443 0.0
H646 H 0.44693 0.93753 0.61702 0.0
H647 H 0.41847 0.98243 0.615 0.0
H648 H 0.48219 -0.00132 0.60547 0.0
H649 H 0.49868 0.05756 0.67997 0.0
H650 H 0.43257 0.03421 0.67097 0.0
H651 H 0.45423 0.98517 0.67547 0.0
H652 H 0.27776 0.94926 0.65043 0.0
H653 H 0.32645 0.82732 0.6587 0.0
H654 H 0.40098 0.04563 0.63006 0.0
H655 H 0.39988 0.06324 0.64927 0.0
H656 H 0.33698 0.03452 0.63839 0.0
H657 H 0.45905 0.89983 0.64037 0.0
H658 H 0.41678 0.84411 0.65315 0.0
H659 H 0.46472 0.91268 0.66009 0.0
C660 C 0.33685 0.34813 0.96123 0.0
C661 C 0.30126 0.30328 0.97038 0.0
C662 C 0.35593 0.33913 0.94751 0.0
C663 C 0.33743 0.28401 0.9427 0.0
C664 C 0.30247 0.23876 0.95209 0.0
C665 C 0.28544 0.24902 0.96588 0.0
C666 C 0.39459 0.38842 0.938 0.0
C667 C 0.28071 0.17927 0.94725 0.0
C668 C 0.31724 0.24613 0.9017 0.0
C669 C 0.35762 0.23067 0.89926 0.0
C670 C 0.3121 0.26627 0.91561 0.0
C671 C 0.34924 0.27263 0.92728 0.0
C672 C 0.39284 0.26125 0.92457 0.0
C673 C 0.39602 0.2395 0.91062 0.0
C674 C 0.26423 0.2767 0.9181 0.0
C675 C 0.43439 0.26942 0.93661 0.0
H676 H 0.34975 0.39018 0.96478 0.0
H677 H 0.25778 0.21421 0.97291 0.0
H678 H 0.42965 0.38366 0.93385 0.0
H679 H 0.3719 0.39085 0.92808 0.0
H680 H 0.41165 0.42817 0.94427 0.0
H681 H 0.25526 0.14895 0.95608 0.0
H682 H 0.25472 0.17044 0.93707 0.0
H683 H 0.3157 0.17251 0.94435 0.0
H684 H 0.28729 0.23941 0.893 0.0
H685 H 0.42771 0.22823 0.90875 0.0
H686 H 0.27937 0.31864 0.9229 0.0
H687 H 0.23468 0.24604 0.92627 0.0
H688 H 0.24127 0.27324 0.9076 0.0
H689 H 0.44885 0.3096 0.94245 0.0
H690 H 0.47104 0.26844 0.93199 0.0
H691 H 0.41435 0.23591 0.94508 0.0
C692 C 0.96332 0.27854 0.12229 0.0
C693 C 0.98125 0.31508 0.13447 0.0
C694 C 0.99531 0.29162 0.1092 0.0
C695 C 0.04529 0.34341 0.10809 0.0
C696 C 0.06154 0.38199 0.12002 0.0
C697 C 0.02992 0.36681 0.13324 0.0
C698 C 0.97725 0.24865 0.09691 0.0
C699 C 0.11318 0.4385 0.11901 0.0
C700 C 0.15428 0.34458 0.08228 0.0
C701 C 0.14154 0.361 0.06873 0.0
C702 C 0.12436 0.34037 0.09535 0.0
C703 C 0.08221 0.35496 0.09491 0.0
C704 C 0.0722 0.37561 0.08147 0.0
C705 C 0.10116 0.37718 0.06843 0.0
C706 C 0.13529 0.3167 0.10933 0.0
C707 C 0.02932 0.3938 0.08071 0.0
H708 H 0.92599 0.23827 0.12336 0.0
H709 H 0.04354 0.39508 0.14269 0.0
H710 H 0.97328 0.26632 0.08616 0.0
H711 H 0.00927 0.23632 0.09532 0.0
H712 H 0.93691 0.21079 0.09944 0.0
H713 H 0.11542 0.46641 0.12823 0.0
H714 H 0.15062 0.43398 0.1196 0.0
H715 H 0.11451 0.45851 0.10814 0.0
H716 H 0.18508 0.33145 0.08243 0.0
H717 H 0.09155 0.39008 0.05792 0.0
H718 H 0.09773 0.27662 0.1122 0.0
H719 H 0.14398 0.34517 0.11893 0.0
H720 H 0.1709 0.30938 0.10797 0.0
H721 H 0.98703 0.35686 0.08119 0.0
H722 H 0.03288 0.41693 0.07023 0.0
H723 H 0.03365 0.42059 0.09042 0.0
C724 C 0.76363 0.07731 0.23438 0.0
C725 C 0.77255 0.13094 0.23165 0.0
C726 C 0.74275 0.05077 0.24811 0.0
C727 C 0.72934 0.07801 0.25934 0.0
C728 C 0.73486 0.13064 0.25637 0.0
C729 C 0.75701 0.15685 0.24258 0.0
C730 C 0.73822 0.99496 0.25089 0.0
C731 C 0.71957 0.16021 0.26797 0.0
C732 C 0.64943 0.9841 0.29191 0.0
C733 C 0.69255 0.99628 0.30207 0.0
C734 C 0.6601 0.0129 0.27828 0.0
C735 C 0.71534 0.05359 0.27461 0.0
C736 C 0.75869 0.067 0.28501 0.0
C737 C 0.74664 0.03861 0.29868 0.0
C738 C 0.61264 -0.00143 0.26761 0.0
C739 C 0.81835 0.10936 0.28141 0.0
H740 H 0.77534 0.05678 0.22601 0.0
H741 H 0.76322 0.19803 0.24051 0.0
H742 H 0.76789 -0.00094 0.25981 0.0
H743 H 0.69589 0.96447 0.25486 0.0
H744 H 0.74737 0.97802 0.2407 0.0
H745 H 0.71842 0.19657 0.26319 0.0
H746 H 0.67839 0.13133 0.27295 0.0
H747 H 0.75051 0.17503 0.27718 0.0
H748 H 0.60742 0.9519 0.2946 0.0
H749 H 0.78015 0.04812 0.30648 0.0
H750 H 0.61622 0.97613 0.25779 0.0
H751 H 0.61434 0.03697 0.26338 0.0
H752 H 0.57153 0.97192 0.27296 0.0
H753 H 0.83278 0.09469 0.27177 0.0
H754 H 0.8467 0.11689 0.29101 0.0
H755 H 0.82172 0.14943 0.27812 0.0
C756 C 0.59665 0.75603 0.40887 0.0
C757 C 0.63554 0.76567 0.39757 0.0
C758 C 0.59934 0.73348 0.42274 0.0
C759 C 0.64283 0.72193 0.42544 0.0
C760 C 0.68038 0.72897 0.41381 0.0
C761 C 0.67583 0.75006 0.39999 0.0
C762 C 0.55739 0.72466 0.43472 0.0
C763 C 0.72803 0.71819 0.41629 0.0
C764 C 0.70538 0.74317 0.46414 0.0
C765 C 0.6896 0.68866 0.46838 0.0
C766 C 0.68871 0.75428 0.45039 0.0
C767 C 0.65404 0.7096 0.44082 0.0
C768 C 0.63537 0.65419 0.44541 0.0
C769 C 0.65422 0.64437 0.45905 0.0
C770 C 0.71071 0.81407 0.4458 0.0
C771 C 0.59691 0.60549 0.43571 0.0
H772 H 0.56499 0.76735 0.40703 0.0
H773 H 0.70608 0.75725 0.39133 0.0
H774 H 0.54267 0.68413 0.4404 0.0
H775 H 0.57718 0.75766 0.44333 0.0
H776 H 0.52093 0.72598 0.43009 0.0
H777 H 0.75135 0.72225 0.40581 0.0
H778 H 0.75733 0.74826 0.4246 0.0
H779 H 0.71259 0.67592 0.42091 0.0
H780 H 0.73295 0.77754 0.47129 0.0
H781 H 0.64142 0.60213 0.46241 0.0
H782 H 0.67588 0.82105 0.44286 0.0
H783 H 0.73714 0.82347 0.43567 0.0
H784 H 0.73581 0.84383 0.45476 0.0
H785 H 0.56221 0.61071 0.43149 0.0
H786 H 0.57935 0.56542 0.44186 0.0
H787 H 0.61997 0.60333 0.42584 0.0
C788 C 0.92639 0.67397 0.56548 0.0
C789 C 0.86951 0.63613 0.56353 0.0
C790 C 0.95272 0.67831 0.57918 0.0
C791 C 0.92181 0.64296 0.59115 0.0
C792 C 0.86561 0.60146 0.58888 0.0
C793 C 0.83979 0.59902 0.57513 0.0
C794 C 0.01239 0.72392 0.58118 0.0
C795 C 0.83192 0.56174 0.60123 0.0
C796 C 0.00922 0.65385 0.62514 0.0
C797 C 0.002 0.69128 0.63406 0.0
C798 C 0.9807 0.63485 0.61147 0.0
C799 C 0.94602 0.65549 0.60645 0.0
C800 C 0.93823 0.69276 0.61555 0.0
C801 C 0.96565 0.7095 0.62932 0.0
C802 C 0.98852 0.59368 0.60228 0.0
C803 C 0.90282 0.717 0.61047 0.0
H804 H 0.94986 0.70277 0.55658 0.0
H805 H 0.79603 0.56916 0.57364 0.0
H806 H 0.01397 0.7557 0.58901 0.0
H807 H 0.03755 0.70713 0.58615 0.0
H808 H 0.03191 0.74472 0.57044 0.0
H809 H 0.79304 0.5258 0.59691 0.0
H810 H 0.85658 0.54602 0.60709 0.0
H811 H 0.82053 0.5838 0.60962 0.0
H812 H 0.03685 0.63926 0.62889 0.0
H813 H 0.96025 0.73871 0.63616 0.0
H814 H 0.01365 0.61455 0.5922 0.0
H815 H 0.94774 0.55948 0.59837 0.0
H816 H 0.00996 0.57557 0.6087 0.0
H817 H 0.92019 0.74111 0.6 0.0
H818 H 0.90051 0.74487 0.619 0.0
H819 H 0.86 0.68325 0.60797 0.0
C820 C 0.23863 0.96905 0.79805 0.0
C821 C 0.29384 0.00456 0.8024 0.0
C822 C 0.2261 0.94087 0.78434 0.0
C823 C 0.26991 0.94717 0.77492 0.0
C824 C 0.32581 0.98126 0.77952 0.0
C825 C 0.33716 0.01032 0.79314 0.0
C826 C 0.16596 0.90603 0.77969 0.0
C827 C 0.37352 0.98776 0.76996 0.0
C828 C 0.22252 0.83987 0.74378 0.0
C829 C 0.2166 0.86932 0.73184 0.0
C830 C 0.24318 0.86567 0.7577 0.0
C831 C 0.25676 0.92165 0.75977 0.0
C832 C 0.25279 0.95204 0.74759 0.0
C833 C 0.23341 0.92573 0.73375 0.0
C834 C 0.24843 0.83247 0.77033 0.0
C835 C 0.26581 0.01147 0.74939 0.0
H836 H 0.20505 0.9647 0.80517 0.0
H837 H 0.3799 0.03723 0.79658 0.0
H838 H 0.15857 0.92333 0.7693 0.0
H839 H 0.15606 0.86295 0.77718 0.0
H840 H 0.13685 0.9045 0.78846 0.0
H841 H 0.41407 0.0108 0.77586 0.0
H842 H 0.3668 0.94637 0.76661 0.0
H843 H 0.37575 0.01055 0.75955 0.0
H844 H 0.21006 0.79643 0.74235 0.0
H845 H 0.22889 0.94888 0.72462 0.0
H846 H 0.21593 0.82342 0.77886 0.0
H847 H 0.28937 0.85671 0.77593 0.0
H848 H 0.24373 0.79241 0.76638 0.0
H849 H 0.23598 0.01302 0.75737 0.0
H850 H 0.26333 0.03015 0.73862 0.0
H851 H 0.30806 0.03744 0.75411 0.0
C852 C 0.662 0.67244 0.86866 0.0
C853 C 0.7048 0.70831 0.85899 0.0
C854 C 0.67398 0.65466 0.88217 0.0
C855 C 0.73009 0.67457 0.88627 0.0
C856 C 0.77335 0.71008 0.87642 0.0
C857 C 0.76012 0.72593 0.86282 0.0
C858 C 0.62673 0.61563 0.89221 0.0
C859 C 0.83376 0.73331 0.88051 0.0
C860 C 0.7698 0.69164 0.92725 0.0
C861 C 0.78363 0.64992 0.9294 0.0
C862 C 0.7508 0.69895 0.91339 0.0
C863 C 0.74417 0.66287 0.9014 0.0
C864 C 0.75515 0.61876 0.90368 0.0
C865 C 0.77547 0.61319 0.91762 0.0
C866 C 0.74057 0.74715 0.91137 0.0
C867 C 0.74712 0.5786 0.89126 0.0
H868 H 0.61913 0.65815 0.86563 0.0
H869 H 0.79334 0.7538 0.8554 0.0
H870 H 0.63226 0.58035 0.89571 0.0
H871 H 0.6266 0.63782 0.90252 0.0
H872 H 0.58566 0.5989 0.88665 0.0
H873 H 0.8623 0.75877 0.87137 0.0
H874 H 0.84368 0.75966 0.89066 0.0
H875 H 0.84197 0.6991 0.88322 0.0
H876 H 0.77613 0.72043 0.93624 0.0
H877 H 0.78567 0.58063 0.91923 0.0
H878 H 0.69797 0.73222 0.90706 0.0
H879 H 0.77006 0.77657 0.90297 0.0
H880 H 0.74572 0.77015 0.92197 0.0
H881 H 0.70569 0.56265 0.886 0.0
H882 H 0.75085 0.54279 0.89533 0.0
H883 H 0.7788 0.60037 0.88243 0.0
C884 C 0.04418 0.73503 0.02962 0.0
C885 C 0.9974 0.68283 0.02687 0.0
C886 C 0.07187 0.74712 0.04337 0.0
C887 C 0.05311 0.70562 0.05458 0.0
C888 C 0.00809 0.65171 0.05157 0.0
C889 C 0.98018 0.64111 0.03778 0.0
C890 C 0.11904 0.80548 0.04621 0.0
C891 C 0.98802 0.60601 0.06312 0.0
C892 C 0.15276 0.74714 0.08741 0.0
C893 C 0.12962 0.76958 0.0972 0.0
C894 C 0.12617 0.72226 0.07387 0.0
C895 C 0.07632 0.72136 0.06992 0.0
C896 C 0.05181 0.74203 0.08004 0.0
C897 C 0.07842 0.76527 0.09361 0.0
C898 C 0.15256 0.69907 0.06352 0.0
C899 C -0.00074 0.7429 0.07616 0.0
H900 H 0.05778 0.76755 0.02125 0.0
H901 H 0.9445 0.60047 0.03563 0.0
H902 H 0.10677 0.82526 0.05507 0.0
H903 H 0.15631 0.80457 0.05026 0.0
H904 H 0.1306 0.83193 0.03602 0.0
H905 H 0.95924 0.56461 0.05822 0.0
H906 H 0.0237 0.60475 0.06831 0.0
H907 H 0.9658 0.61427 0.07218 0.0
H908 H 0.19196 0.74973 0.09022 0.0
H909 H 0.06021 0.78251 0.1011 0.0
H910 H 0.17135 0.72729 0.05381 0.0
H911 H 0.12076 0.65798 0.0591 0.0
H912 H 0.18561 0.69448 0.06922 0.0
H913 H 0.00718 0.77087 0.06645 0.0
H914 H 0.98394 0.75756 0.08562 0.0
H915 H 0.9659 0.70082 0.07286 0.0
C916 C 0.28221 0.9629 0.20601 0.0
C917 C 0.31712 0.98176 0.19349 0.0
C918 C 0.29598 0.99492 0.2191 0.0
C919 C 0.34689 0.04596 0.21982 0.0
C920 C 0.38409 0.06316 0.20754 0.0
C921 C 0.36816 0.03139 0.19436 0.0
C922 C 0.25449 0.97572 0.23179 0.0
C923 C 0.43972 0.11602 0.20813 0.0
C924 C 0.34484 0.15261 0.24583 0.0
C925 C 0.36313 0.14107 0.25924 0.0
C926 C 0.34133 0.12332 0.23271 0.0
C927 C 0.3585 0.08308 0.23294 0.0
C928 C 0.38133 0.07468 0.24619 0.0
C929 C 0.3822 0.10293 0.25931 0.0
C930 C 0.31539 0.13252 0.21893 0.0
C931 C 0.40229 0.03396 0.24672 0.0
H932 H 0.24247 0.92476 0.20523 0.0
H933 H 0.39525 0.04571 0.18466 0.0
H934 H 0.27411 0.97306 0.24233 0.0
H935 H 0.24058 0.00643 0.2336 0.0
H936 H 0.21736 0.9345 0.22956 0.0
H937 H 0.46715 0.11877 0.19871 0.0
H938 H 0.43355 0.15246 0.20754 0.0
H939 H 0.46115 0.11876 0.21885 0.0
H940 H 0.32948 0.18166 0.24585 0.0
H941 H 0.39657 0.09424 0.26971 0.0
H942 H 0.27581 0.09398 0.21632 0.0
H943 H 0.34315 0.1419 0.20912 0.0
H944 H 0.30652 0.16706 0.22039 0.0
H945 H 0.36655 0.99088 0.24665 0.0
H946 H 0.42735 0.0394 0.25693 0.0
H947 H 0.42804 0.03878 0.23671 0.0
C948 C 0.22794 0.25628 0.36362 0.0
C949 C 0.28247 0.27844 0.35835 0.0
C950 C 0.21706 0.2736 0.37731 0.0
C951 C 0.26172 0.31513 0.38574 0.0
C952 C 0.31673 0.33912 0.38021 0.0
C953 C 0.32656 0.31988 0.36665 0.0
C954 C 0.15792 0.2461 0.38299 0.0
C955 C 0.36518 0.38446 0.3887 0.0
C956 C 0.21596 0.37771 0.41655 0.0
C957 C 0.21486 0.3462 0.42897 0.0
C958 C 0.23437 0.3705 0.40251 0.0
C959 C 0.25081 0.33005 0.40084 0.0
C960 C 0.25211 0.29998 0.41346 0.0
C961 C 0.23472 0.30885 0.42738 0.0
C962 C 0.23393 0.40442 0.38936 0.0
C963 C 0.2686 0.25588 0.41212 0.0
H964 H 0.19379 0.22413 0.35724 0.0
H965 H 0.36872 0.33764 0.36248 0.0
H966 H 0.15468 0.22459 0.39373 0.0
H967 H 0.14571 0.27783 0.38521 0.0
H968 H 0.12786 0.21526 0.37493 0.0
H969 H 0.40448 0.40248 0.38218 0.0
H970 H 0.35654 0.41823 0.39164 0.0
H971 H 0.37123 0.36757 0.39934 0.0
H972 H 0.20114 0.40698 0.41771 0.0
H973 H 0.23409 0.28425 0.43689 0.0
H974 H 0.19996 0.37738 0.38157 0.0
H975 H 0.27358 0.42171 0.38305 0.0
H976 H 0.22755 0.43918 0.39289 0.0
H977 H 0.23803 0.2214 0.40498 0.0
H978 H 0.27046 0.23848 0.42317 0.0
H979 H 0.30977 0.27313 0.40663 0.0
C980 C 0.00952 0.35533 0.53595 0.0
C981 C 0.00115 0.31072 0.52683 0.0
C982 C 0.98094 0.34588 0.54961 0.0
C983 C 0.94489 0.29058 0.55441 0.0
C984 C 0.93573 0.24558 0.54509 0.0
C985 C 0.96336 0.25627 0.53134 0.0
C986 C 0.99029 0.39487 0.55904 0.0
C987 C 0.89876 0.18591 0.54992 0.0
C988 C 0.92495 0.25075 0.59527 0.0
C989 C 0.86853 0.23358 0.59738 0.0
C990 C 0.95126 0.27252 0.58156 0.0
C991 C 0.92086 0.2787 0.56974 0.0
C992 C 0.86524 0.26578 0.57216 0.0
C993 C 0.83936 0.24253 0.58592 0.0
C994 C 0.01026 0.28462 0.57938 0.0
C995 C 0.83217 0.27369 0.55998 0.0
H996 H 0.03825 0.3975 0.53239 0.0
H997 H 0.95698 0.22164 0.52436 0.0
H998 H 0.95002 0.38931 0.56309 0.0
H999 H 0.01532 0.39787 0.56904 0.0
H1000 H 0.01253 0.43466 0.55276 0.0
H1001 H 0.89519 0.1558 0.54119 0.0
H1002 H 0.91567 0.17767 0.56026 0.0
H1003 H 0.85647 0.1782 0.55257 0.0
H1004 H 0.94797 0.24414 0.60406 0.0
H1005 H 0.79598 0.23006 0.58754 0.0
H1006 H 0.03648 0.32672 0.5746 0.0
H1007 H 0.01059 0.25439 0.57132 0.0
H1008 H 0.02948 0.2818 0.59001 0.0
H1009 H 0.85772 0.31416 0.55424 0.0
H1010 H 0.79395 0.27189 0.56444 0.0
H1011 H 0.8197 0.2405 0.55146 0.0
C1012 C 0.59407 0.84129 0.75201 0.0
C1013 C 0.63302 0.87113 0.76324 0.0
C1014 C 0.59609 0.86612 0.73812 0.0
C1015 C 0.63908 0.92128 0.7353 0.0
C1016 C 0.67668 0.95232 0.74686 0.0
C1017 C 0.67267 0.92713 0.76073 0.0
C1018 C 0.55398 0.83247 0.72623 0.0
C1019 C 0.7239 0.01085 0.74427 0.0
C1020 C 0.70159 0.96242 0.6966 0.0
C1021 C 0.68583 0.00117 0.69236 0.0
C1022 C 0.68479 0.93455 0.71033 0.0
C1023 C 0.64993 0.94442 0.71987 0.0
C1024 C 0.63112 0.98104 0.71526 0.0
C1025 C 0.65019 0.00989 0.70164 0.0
C1026 C 0.707 0.89695 0.71496 0.0
C1027 C 0.59237 0.99108 0.7249 0.0
H1028 H 0.56291 0.79821 0.75394 0.0
H1029 H 0.703 0.95061 0.76932 0.0
H1030 H 0.53908 0.85797 0.72046 0.0
H1031 H 0.57367 0.8189 0.71768 0.0
H1032 H 0.51766 0.79489 0.73099 0.0
H1033 H 0.74747 0.03042 0.75468 0.0
H1034 H 0.7531 0.0102 0.73589 0.0
H1035 H 0.70797 0.03732 0.73968 0.0
H1036 H 0.72934 0.95576 0.68947 0.0
H1037 H 0.63738 0.03932 0.69827 0.0
H1038 H 0.67228 0.85513 0.71791 0.0
H1039 H 0.73341 0.9141 0.72507 0.0
H1040 H 0.73218 0.89232 0.70601 0.0
H1041 H 0.5581 0.95116 0.72927 0.0
H1042 H 0.57421 0.01283 0.71866 0.0
H1043 H 0.61541 0.01694 0.73468 0.0
C1044 C 0.32747 0.0483 0.09445 0.0
C1045 C 0.29922 0.04332 0.10787 0.0
C1046 C 0.33096 0.08551 0.08324 0.0
C1047 C 0.30374 0.11663 0.08535 0.0
C1048 C 0.2763 0.11258 0.09904 0.0
C1049 C 0.27519 0.07668 0.11022 0.0
C1050 C 0.36233 0.0903 0.06901 0.0
C1051 C 0.24546 0.14388 0.10161 0.0
C1052 C 0.32722 0.2408 0.06208 0.0
C1053 C 0.28251 0.21608 0.05206 0.0
C1054 C 0.33706 0.20838 0.07236 0.0
C1055 C 0.29998 0.15031 0.07295 0.0
C1056 C 0.2556 0.12507 0.06257 0.0
C1057 C 0.248 0.15823 0.05207 0.0
C1058 C 0.38597 0.23648 0.08288 0.0
C1059 C 0.21417 0.06353 0.06311 0.0
H1060 H 0.34632 0.02274 0.09265 0.0
H1061 H 0.25278 0.07254 0.12052 0.0
H1062 H 0.33261 0.07116 0.05961 0.0
H1063 H 0.39042 0.13466 0.06612 0.0
H1064 H 0.38736 0.06931 0.06994 0.0
H1065 H 0.22697 0.13676 0.11299 0.0
H1066 H 0.27385 0.18912 0.10009 0.0
H1067 H 0.21161 0.13064 0.09325 0.0
H1068 H 0.35427 0.28555 0.06196 0.0
H1069 H 0.2132 0.13915 0.04437 0.0
H1070 H 0.40895 0.21333 0.08326 0.0
H1071 H 0.37098 0.2366 0.09438 0.0
H1072 H 0.41519 0.28015 0.07954 0.0
H1073 H 0.2359 0.03925 0.06246 0.0
H1074 H 0.18334 0.0501 0.05386 0.0
H1075 H 0.19148 0.05309 0.07393 0.0
C1076 C 0.04719 0.32885 0.23387 0.0
C1077 C 0.04355 0.30185 0.22031 0.0
C1078 C 0.08347 0.33156 0.24524 0.0
C1079 C 0.11505 0.30482 0.24314 0.0
C1080 C 0.11268 0.27901 0.22928 0.0
C1081 C 0.07765 0.27866 0.21796 0.0
C1082 C 0.08652 0.36125 0.25966 0.0
C1083 C 0.14456 0.24877 0.2267 0.0
C1084 C 0.23616 0.32441 0.26711 0.0
C1085 C 0.21013 0.27812 0.2766 0.0
C1086 C 0.20506 0.33614 0.25686 0.0
C1087 C 0.14705 0.29938 0.25571 0.0
C1088 C 0.12043 0.25352 0.2656 0.0
C1089 C 0.15226 0.24402 0.27611 0.0
C1090 C 0.23453 0.38659 0.2469 0.0
C1091 C 0.05891 0.21244 0.26447 0.0
H1092 H 0.02106 0.34707 0.23568 0.0
H1093 H 0.0746 0.25724 0.20755 0.0
H1094 H 0.06546 0.33038 0.26871 0.0
H1095 H 0.13046 0.38837 0.26309 0.0
H1096 H 0.06631 0.38698 0.25865 0.0
H1097 H 0.13906 0.23189 0.21516 0.0
H1098 H 0.18955 0.27703 0.2287 0.0
H1099 H 0.13031 0.21378 0.23474 0.0
H1100 H 0.28092 0.35113 0.26762 0.0
H1101 H 0.13219 0.20801 0.28339 0.0
H1102 H 0.21128 0.40947 0.2465 0.0
H1103 H 0.23652 0.37337 0.23531 0.0
H1104 H 0.27762 0.41539 0.25076 0.0
H1105 H 0.03472 0.23426 0.26514 0.0
H1106 H 0.04425 0.18041 0.27343 0.0
H1107 H 0.0497 0.19117 0.25345 0.0
C1108 C 0.81938 0.07664 0.38598 0.0
C1109 C 0.76132 0.04649 0.38719 0.0
C1110 C 0.85212 0.11328 0.3973 0.0
C1111 C 0.82602 0.12125 0.40991 0.0
C1112 C 0.76726 0.0932 0.41081 0.0
C1113 C 0.73552 0.05527 0.39954 0.0
C1114 C 0.91468 0.14131 0.39608 0.0
C1115 C 0.73804 0.10216 0.42385 0.0
C1116 C 0.91309 0.16442 0.44521 0.0
C1117 C 0.9391 0.22245 0.44436 0.0
C1118 C 0.87466 0.1308 0.43431 0.0
C1119 C 0.86071 0.15589 0.42256 0.0
C1120 C 0.8842 0.21435 0.4222 0.0
C1121 C 0.92398 0.24709 0.43298 0.0
C1122 C 0.85166 0.06872 0.43487 0.0
C1123 C 0.86888 0.24241 0.41014 0.0
H1124 H 0.83947 0.06953 0.37651 0.0
H1125 H 0.69057 0.03222 0.40043 0.0
H1126 H 0.93343 0.18705 0.39687 0.0
H1127 H 0.93132 0.12801 0.40553 0.0
H1128 H 0.92835 0.13131 0.38542 0.0
H1129 H 0.69255 0.08265 0.42195 0.0
H1130 H 0.74491 0.08409 0.43415 0.0
H1131 H 0.75542 0.14727 0.42589 0.0
H1132 H 0.92506 0.14534 0.45395 0.0
H1133 H 0.94375 0.29201 0.4324 0.0
H1134 H 0.86618 0.05552 0.42494 0.0
H1135 H 0.8056 0.04641 0.43447 0.0
H1136 H 0.86477 0.0556 0.44512 0.0
H1137 H 0.88682 0.2397 0.39929 0.0
H1138 H 0.8845 0.28696 0.41268 0.0
H1139 H 0.82307 0.2211 0.40874 0.0
C1140 C 0.75477 0.83119 0.55088 0.0
C1141 C 0.72391 0.77316 0.55212 0.0
C1142 C 0.75128 0.86533 0.56186 0.0
C1143 C 0.71474 0.84079 0.57414 0.0
C1144 C 0.68142 0.78222 0.57507 0.0
C1145 C 0.68711 0.74899 0.56416 0.0
C1146 C 0.78859 0.92757 0.56067 0.0
C1147 C 0.64076 0.75466 0.58775 0.0
C1148 C 0.75353 0.92548 0.60988 0.0
C1149 C 0.72257 0.95256 0.6086 0.0
C1150 C 0.75059 0.88823 0.59886 0.0
C1151 C 0.71451 0.87654 0.58648 0.0
C1152 C 0.68113 0.90174 0.5855 0.0
C1153 C 0.68627 0.94027 0.59646 0.0
C1154 C 0.78796 0.86336 0.60012 0.0
C1155 C 0.64095 0.88895 0.57272 0.0
H1156 H 0.78363 0.84996 0.54165 0.0
H1157 H 0.6629 0.70409 0.56506 0.0
H1158 H 0.76347 0.94849 0.56094 0.0
H1159 H 0.81723 0.943 0.5704 0.0
H1160 H 0.8138 0.94005 0.55024 0.0
H1161 H 0.61373 0.70924 0.58596 0.0
H1162 H 0.66372 0.76118 0.59841 0.0
H1163 H 0.61408 0.77366 0.58905 0.0
H1164 H 0.78202 0.9353 0.61919 0.0
H1165 H 0.66201 0.96092 0.59552 0.0
H1166 H 0.81686 0.87671 0.59043 0.0
H1167 H 0.76292 0.81735 0.5998 0.0
H1168 H 0.8129 0.87596 0.61059 0.0
H1169 H 0.66431 0.90559 0.56212 0.0
H1170 H 0.61384 0.90731 0.57444 0.0
H1171 H 0.61433 0.84332 0.57133 0.0
C1172 C 0.91099 0.74517 0.7156 0.0
C1173 C 0.93823 0.71434 0.7167 0.0
C1174 C 0.87235 0.74023 0.72645 0.0
C1175 C 0.85944 0.70222 0.73841 0.0
C1176 C 0.88398 0.66818 0.73899 0.0
C1177 C 0.92398 0.6754 0.72826 0.0
C1178 C 0.84823 0.77835 0.72563 0.0
C1179 C 0.86972 0.62582 0.75128 0.0
C1180 C 0.82018 0.74367 0.77473 0.0
C1181 C 0.76204 0.71553 0.77379 0.0
C1182 C 0.85226 0.73859 0.76343 0.0
C1183 C 0.82544 0.70304 0.75113 0.0
C1184 C 0.76663 0.67201 0.75054 0.0
C1185 C 0.73551 0.67944 0.76177 0.0
C1186 C 0.91487 0.77355 0.7643 0.0
C1187 C 0.73669 0.63223 0.73785 0.0
H1188 H 0.92223 0.77555 0.70671 0.0
H1189 H 0.94465 0.65111 0.72902 0.0
H1190 H 0.80223 0.75401 0.72625 0.0
H1191 H 0.86296 0.80711 0.73535 0.0
H1192 H 0.8603 0.80347 0.71519 0.0
H1193 H 0.8854 0.59688 0.74881 0.0
H1194 H 0.88842 0.64737 0.76198 0.0
H1195 H 0.82404 0.60127 0.75294 0.0
H1196 H 0.84081 0.77203 0.78395 0.0
H1197 H 0.69051 0.65737 0.76109 0.0
H1198 H 0.93069 0.80235 0.7546 0.0
H1199 H 0.93386 0.74671 0.76373 0.0
H1200 H 0.92913 0.79849 0.77475 0.0
H1201 H 0.74202 0.65591 0.72739 0.0
H1202 H 0.69148 0.6058 0.7401 0.0
H1203 H 0.75467 0.60496 0.73588 0.0
C1204 C 0.07091 0.74269 0.93239 0.0
C1205 C 0.05678 0.76758 0.94392 0.0
C1206 C 0.11051 0.77529 0.92155 0.0
C1207 C 0.1347 0.83383 0.92198 0.0
C1208 C 0.1217 0.85911 0.93387 0.0
C1209 C 0.08354 0.82565 0.94484 0.0
C1210 C 0.12492 0.74706 0.90934 0.0
C1211 C 0.14544 0.9213 0.93454 0.0
C1212 C 0.259 0.93637 0.89905 0.0
C1213 C 0.2327 0.94637 0.88704 0.0
C1214 C 0.2277 0.89687 0.91007 0.0
C1215 C 0.16892 0.86857 0.90929 0.0
C1216 C 0.14236 0.87746 0.89693 0.0
C1217 C 0.17466 0.91562 0.88584 0.0
C1218 C 0.25743 0.88689 0.9228 0.0
C1219 C 0.07975 0.84924 0.89586 0.0
H1220 H 0.0506 0.69775 0.93178 0.0
H1221 H 0.07238 0.84494 0.9537 0.0
H1222 H 0.10626 0.74968 0.89861 0.0
H1223 H 0.17062 0.76825 0.9077 0.0
H1224 H 0.10936 0.70251 0.91189 0.0
H1225 H 0.13269 0.93447 0.94484 0.0
H1226 H 0.19148 0.94309 0.93412 0.0
H1227 H 0.13117 0.93507 0.92466 0.0
H1228 H 0.30395 0.95984 0.89992 0.0
H1229 H 0.1542 0.92361 0.87661 0.0
H1230 H 0.23932 0.84166 0.92481 0.0
H1231 H 0.25213 0.9054 0.93323 0.0
H1232 H 0.30264 0.90551 0.92057 0.0
H1233 H 0.06112 0.80349 0.89656 0.0
H1234 H 0.06571 0.85944 0.88528 0.0
H1235 H 0.06333 0.86226 0.90541 0.0
C1236 C 0.05305 0.11344 0.99437 0.0
C1237 C 0.04873 0.13782 0.00763 0.0
C1238 C 0.01631 0.0575 0.99132 0.0
C1239 C 0.97454 0.02518 0.00189 0.0
C1240 C 0.96619 0.05104 0.01451 0.0
C1241 C 0.00364 0.10756 0.01726 0.0
C1242 C 0.02623 0.03186 0.97759 0.0
C1243 C 0.92121 0.01809 0.02582 0.0
C1244 C 0.88736 0.87691 0.98858 0.0
C1245 C 0.91933 0.8542 0.99388 0.0
C1246 C 0.90171 0.9317 0.99218 0.0
C1247 C 0.949 0.964 0.0012 0.0
C1248 C 0.97843 0.93957 0.00756 0.0
C1249 C 0.96324 0.88502 0.0038 0.0
C1250 C 0.8687 0.95604 0.98545 0.0
C1251 C 0.02888 0.97238 0.01737 0.0
H1252 H 0.08728 0.13741 0.98675 0.0
H1253 H 4e-05 0.12672 0.02745 0.0
H1254 H 0.0443 0.00579 0.98101 0.0
H1255 H 0.98655 0.00458 0.97172 0.0
H1256 H 0.05529 0.06383 0.96958 0.0
H1257 H 0.91115 0.04541 0.03261 0.0
H1258 H 0.8828 0.98593 0.02025 0.0
H1259 H 0.93562 0.99653 0.03352 0.0
H1260 H 0.85284 0.85294 0.98107 0.0
H1261 H 0.98725 0.8672 0.00824 0.0
H1262 H 0.89033 0.98023 0.9753 0.0
H1263 H 0.86507 0.98474 0.9934 0.0
H1264 H 0.82634 0.92305 0.98213 0.0
H1265 H 0.06341 0.00453 0.01055 0.0
H1266 H 0.04341 0.94563 0.02264 0.0
H1267 H 0.01961 0.99408 0.02636 0.0
C1268 C 0.11031 0.99097 0.1686 0.0
C1269 C 0.09466 0.95039 0.15746 0.0
C1270 C 0.07743 0.01472 0.17179 0.0
C1271 C 0.02821 0.99792 0.16347 0.0
C1272 C 0.01099 0.95542 0.15261 0.0
C1273 C 0.04437 0.93178 0.14979 0.0
C1274 C 0.09662 0.05946 0.18362 0.0
C1275 C 0.95893 0.93697 0.14346 0.0
C1276 C 0.93144 0.04484 0.17879 0.0
C1277 C 0.95042 0.09522 0.17114 0.0
C1278 C 0.95504 0.01137 0.17604 0.0
C1279 C -0.00214 0.0286 0.16527 0.0
C1280 C 0.01512 0.07798 0.15698 0.0
C1281 C 0.9914 0.11094 0.16009 0.0
C1282 C 0.93612 0.95914 0.18516 0.0
C1283 C 0.06023 0.0972 0.14524 0.0
H1284 H 0.14882 0.00487 0.17469 0.0
H1285 H 0.03222 0.90039 0.14116 0.0
H1286 H 0.10836 0.09992 0.17826 0.0
H1287 H 0.06243 0.05008 0.19161 0.0
H1288 H 0.133 0.06399 0.19 0.0
H1289 H 0.94847 0.89976 0.13655 0.0
H1290 H 0.92314 0.92742 0.15085 0.0
H1291 H 0.96478 0.9712 0.1359 0.0
H1292 H 0.89977 0.03266 0.18735 0.0
H1293 H 0.0056 0.14954 0.15402 0.0
H1294 H 0.97013 0.96466 0.19275 0.0
H1295 H 0.92648 0.92341 0.17774 0.0
H1296 H 0.89882 0.94881 0.19203 0.0
H1297 H 0.10044 0.10845 0.15067 0.0
H1298 H 0.06528 0.1339 0.13891 0.0
H1299 H 0.05081 0.06318 0.1372 0.0
C1300 C 0.12023 0.00123 0.32786 0.0
C1301 C 0.13118 0.02946 0.31421 0.0
C1302 C 0.06529 0.96679 0.33264 0.0
C1303 C 0.02111 0.96116 0.3235 0.0
C1304 C 0.03235 0.98424 0.3089 0.0
C1305 C 0.0876 0.01891 0.3045 0.0
C1306 C 0.05503 0.94249 0.34821 0.0
C1307 C 0.98638 0.97831 0.29869 0.0
C1308 C 0.869 0.87606 0.33464 0.0
C1309 C 0.85969 0.91797 0.34017 0.0
C1310 C 0.92202 0.88872 0.32961 0.0
C1311 C 0.96629 0.94431 0.33032 0.0
C1312 C 0.9575 0.98602 0.33668 0.0
C1313 C 0.90426 0.97234 0.34143 0.0
C1314 C 0.92985 0.8433 0.32286 0.0
C1315 C 0.00383 0.04577 0.33793 0.0
H1316 H 0.15438 0.01012 0.33537 0.0
H1317 H 0.09659 0.04132 0.29397 0.0
H1318 H 0.04783 0.96954 0.35594 0.0
H1319 H 0.01752 0.90054 0.34851 0.0
H1320 H 0.09119 0.93965 0.35242 0.0
H1321 H 0.00082 0.98908 0.28693 0.0
H1322 H 0.95058 0.93528 0.29903 0.0
H1323 H 0.97149 0.00664 0.30253 0.0
H1324 H 0.83445 0.83394 0.33363 0.0
H1325 H 0.89728 0.00463 0.34592 0.0
H1326 H 0.96938 0.84656 0.3267 0.0
H1327 H 0.93209 0.8477 0.3105 0.0
H1328 H 0.89495 0.8013 0.32571 0.0
H1329 H 0.0401 0.048 0.3438 0.0
H1330 H 0.99076 0.07213 0.34406 0.0
H1331 H 0.0178 0.06357 0.32657 0.0
C1332 C 0.10997 0.11614 0.48482 0.0
C1333 C 0.08464 0.1416 0.49251 0.0
C1334 C 0.0934 0.06016 0.48748 0.0
C1335 C 0.05092 0.02981 0.49807 0.0
C1336 C 0.02969 0.05722 0.50694 0.0
C1337 C 0.04667 0.11279 0.50398 0.0
C1338 C 0.11772 0.03252 0.47805 0.0
C1339 C 0.98499 0.02659 0.51855 0.0
C1340 C 0.93399 0.88507 0.49162 0.0
C1341 C 0.9429 0.8561 0.5031 0.0
C1342 C 0.97225 0.94087 0.48886 0.0
C1343 C 0.02031 0.96838 0.49794 0.0
C1344 C 0.03217 0.93802 0.5086 0.0
C1345 C 0.99311 0.88179 0.51106 0.0
C1346 C 0.95845 0.97152 0.47717 0.0
C1347 C 0.08349 0.9658 0.51828 0.0
H1348 H 0.13992 0.13868 0.47605 0.0
H1349 H 0.02815 0.13297 0.51021 0.0
H1350 H 0.12261 0.00135 0.48464 0.0
H1351 H 0.0892 0.01044 0.46859 0.0
H1352 H 0.15874 0.06339 0.47332 0.0
H1353 H 0.9783 0.05539 0.52574 0.0
H1354 H 0.94519 0.99804 0.51287 0.0
H1355 H 0.99586 0.00106 0.52583 0.0
H1356 H 0.89574 0.86473 0.4852 0.0
H1357 H 0.0003 0.85914 0.51984 0.0
H1358 H 0.99508 0.99717 0.46999 0.0
H1359 H 0.9469 -4e-05 0.48279 0.0
H1360 H 0.92328 0.94274 0.4699 0.0
H1361 H 0.11977 0.99749 0.51187 0.0
H1362 H 0.09383 0.93507 0.52302 0.0
H1363 H 0.0761 0.98725 0.52772 0.0
C1364 C 0.04234 0.93189 0.65777 0.0
C1365 C 0.0808 0.94139 0.66914 0.0
C1366 C 0.02497 0.97022 0.65488 0.0
C1367 C 0.0463 0.01898 0.66368 0.0
C1368 C 0.08894 0.03128 0.67423 0.0
C1369 C 0.10593 0.99214 0.67683 0.0
C1370 C 0.98001 0.95592 0.64332 0.0
C1371 C 0.11321 0.08328 0.68365 0.0
C1372 C 0.98975 0.10988 0.65034 0.0
C1373 C 0.93944 0.08595 0.65825 0.0
C1374 C 0.0284 0.09225 0.65293 0.0
C1375 C 0.01606 0.0502 0.66368 0.0
C1376 C 0.96792 0.03024 0.6727 0.0
C1377 C 0.93004 0.04821 0.66981 0.0
C1378 C 0.07978 0.11507 0.64328 0.0
C1379 C 0.95365 0.98601 0.68448 0.0
H1380 H 0.02392 0.89319 0.65155 0.0
H1381 H 0.13618 -0.00023 0.68553 0.0
H1382 H 0.94037 0.94501 0.64905 0.0
H1383 H 0.99081 0.9921 0.63597 0.0
H1384 H 0.97305 0.92018 0.63621 0.0
H1385 H 0.15414 0.09336 0.68843 0.0
H1386 H 0.11827 0.11931 0.67701 0.0
H1387 H 0.08455 0.07698 0.69305 0.0
H1388 H 0.9973 0.13959 0.64149 0.0
H1389 H 0.89171 0.03074 0.67619 0.0
H1390 H 0.07246 0.08554 0.63403 0.0
H1391 H 0.11599 0.12005 0.64981 0.0
H1392 H 0.09018 0.15578 0.63828 0.0
H1393 H 0.94159 0.94577 0.67895 0.0
H1394 H 0.91866 0.9803 0.69174 0.0
H1395 H 0.9902 0.99668 0.69167 0.0
C1396 C 0.08787 0.03628 0.85035 0.0
C1397 C 0.13285 0.0843 0.84445 0.0
C1398 C 0.03364 0.01941 0.84577 0.0
C1399 C 0.02473 0.05058 0.83467 0.0
C1400 C 0.06967 0.10152 0.82955 0.0
C1401 C 0.12357 0.11819 0.83465 0.0
C1402 C 0.9866 0.96557 0.85184 0.0
C1403 C 0.0618 0.13566 0.81768 0.0
C1404 C 0.90721 0.94818 0.81077 0.0
C1405 C 0.86236 0.95055 0.81704 0.0
C1406 C 0.96156 0.9852 0.81531 0.0
C1407 C 0.97071 0.02416 0.82676 0.0
C1408 C 0.92588 0.02966 0.83224 0.0
C1409 C 0.87185 0.99284 0.82717 0.0
C1410 C 0.00848 0.97902 0.80886 0.0
C1411 C 0.93402 0.07049 0.84447 0.0
H1412 H 0.09541 0.01062 0.85809 0.0
H1413 H 0.15873 0.15537 0.83011 0.0
H1414 H 0.95046 0.97043 0.8548 0.0
H1415 H 0.97279 0.93284 0.84312 0.0
H1416 H -0.00077 0.95106 0.86191 0.0
H1417 H 0.09719 0.17903 0.81742 0.0
H1418 H 0.05889 0.1166 0.80656 0.0
H1419 H 0.02271 0.1365 0.81949 0.0
H1420 H 0.89948 0.91565 0.80279 0.0
H1421 H 0.83678 0.99432 0.832 0.0
H1422 H 0.02227 0.95895 0.81725 0.0
H1423 H 0.04466 0.02029 0.80616 0.0
H1424 H 0.99569 0.95314 0.79856 0.0
H1425 H 0.93718 0.05327 0.85541 0.0
H1426 H 0.89862 0.07844 0.84506 0.0
H1427 H 0.97305 0.11056 0.8428 0.0
loop_
_geom_bond_atom_site_label_1
_geom_bond_atom_site_label_2
_geom_bond_distance
_geom_bond_site_symmetry_2
_ccdc_geom_bond_type
O0 Zn1 1.953 . S
O0 C16 1.225 . S
Zn1 O0 1.953 . S
Zn1 O2 1.949 . S
Zn1 O8 1.919 . S
Zn1 O13 1.924 . S
O2 Zn1 1.949 . S
O2 Zn3 1.923 . S
O2 Zn4 1.950 . S
O2 Zn5 1.945 . S
Zn3 O2 1.923 . S
Zn3 O6 1.933 1_554 S
Zn3 O9 1.941 . S
Zn3 O10 1.965 . S
Zn4 O2 1.950 . S
Zn4 O11 1.938 . S
Zn4 O12 1.906 . S
Zn4 O22 1.953 . S
Zn5 O2 1.945 . S
Zn5 O7 1.932 1_554 S
Zn5 O14 1.977 . S
Zn5 O15 1.910 1_554 S
O6 Zn3 1.933 1_556 S
O6 C17 1.226 . S
O7 Zn5 1.932 1_556 S
O7 C17 1.307 . S
O8 Zn1 1.919 . S
O8 C19 1.253 . S
O9 Zn3 1.941 . S
O9 C19 1.283 . S
O10 Zn3 1.965 . S
O10 C18 1.303 . S
O11 Zn4 1.938 . S
O11 C18 1.247 . S
O12 Zn4 1.906 . S
O12 C20 1.304 . S
O13 Zn1 1.924 . S
O13 C21 1.311 . S
O14 Zn5 1.977 . S
O14 C20 1.272 . S
O15 Zn5 1.910 1_556 S
O15 C21 1.231 1_556 S
C16 O0 1.225 . S
C16 O22 1.298 . S
C17 O6 1.226 . S
C17 O7 1.307 . S
C18 O10 1.303 . S
C18 O11 1.247 . S
C19 O8 1.253 . S
C19 O9 1.283 . S
C20 O12 1.304 . S
C20 O14 1.272 . S
C21 O13 1.311 . S
C21 O15 1.231 1_554 S
O22 Zn4 1.953 . S
O22 C16 1.298 . S
O23 Zn24 1.953 . S
O23 C39 1.225 . S
Zn24 O23 1.953 . S
Zn24 O25 1.949 . S
Zn24 O31 1.919 . S
Zn24 O36 1.924 . S
O25 Zn24 1.949 . S
O25 Zn26 1.923 . S
O25 Zn27 1.950 . S
O25 Zn28 1.945 . S
Zn26 O25 1.923 . S
Zn26 O29 1.933 1_655 S
Zn26 O32 1.941 . S
Zn26 O33 1.965 1_655 S
Zn27 O25 1.950 . S
Zn27 O34 1.938 1_655 S
Zn27 O35 1.906 . S
Zn27 O45 1.953 . S
Zn28 O25 1.945 . S
Zn28 O30 1.932 . S
Zn28 O37 1.977 . S
Zn28 O38 1.910 . S
O29 Zn26 1.933 1_455 S
O29 C40 1.225 1_455 S
O30 Zn28 1.932 . S
O30 C40 1.310 . S
O31 Zn24 1.919 . S
O31 C42 1.253 . S
O32 Zn26 1.941 . S
O32 C42 1.283 . S
O33 Zn26 1.965 1_455 S
O33 C41 1.303 . S
O34 Zn27 1.938 1_455 S
O34 C41 1.247 . S
O35 Zn27 1.906 . S
O35 C43 1.304 . S
O36 Zn24 1.924 . S
O36 C44 1.311 . S
O37 Zn28 1.977 . S
O37 C43 1.272 . S
O38 Zn28 1.910 . S
O38 C44 1.231 . S
C39 O23 1.225 . S
C39 O45 1.298 . S
C40 O29 1.225 1_655 S
C40 O30 1.310 . S
C41 O33 1.303 . S
C41 O34 1.247 . S
C42 O31 1.253 . S
C42 O32 1.283 . S
C43 O35 1.304 . S
C43 O37 1.272 . S
C44 O36 1.311 . S
C44 O38 1.231 . S
O45 Zn27 1.953 . S
O45 C39 1.298 . S
O46 Zn47 1.953 . S
O46 C62 1.225 . S
Zn47 O46 1.953 . S
Zn47 O48 1.949 . S
Zn47 O54 1.919 . S
Zn47 O59 1.924 . S
O48 Zn47 1.949 . S
O48 Zn49 1.923 . S
O48 Zn50 1.950 . S
O48 Zn51 1.945 . S
Zn49 O48 1.923 . S
Zn49 O52 1.933 1_565 S
Zn49 O55 1.941 . S
Zn49 O56 1.965 1_565 S
Zn50 O48 1.950 . S
Zn50 O57 1.938 1_565 S
Zn50 O58 1.906 . S
Zn50 O68 1.953 . S
Zn51 O48 1.945 . S
Zn51 O53 1.932 . S
Zn51 O60 1.977 . S
Zn51 O61 1.910 . S
O52 Zn49 1.933 1_545 S
O52 C63 1.226 1_545 S
O53 Zn51 1.932 . S
O53 C63 1.308 . S
O54 Zn47 1.919 . S
O54 C65 1.253 . S
O55 Zn49 1.941 . S
O55 C65 1.283 . S
O56 Zn49 1.965 1_545 S
O56 C64 1.303 . S
O57 Zn50 1.938 1_545 S
O57 C64 1.247 . S
O58 Zn50 1.906 . S
O58 C66 1.304 . S
O59 Zn47 1.924 . S
O59 C67 1.311 . S
O60 Zn51 1.977 . S
O60 C66 1.272 . S
O61 Zn51 1.910 . S
O61 C67 1.231 . S
C62 O46 1.225 . S
C62 O68 1.298 . S
C63 O52 1.226 1_565 S
C63 O53 1.308 . S
C64 O56 1.303 . S
C64 O57 1.247 . S
C65 O54 1.253 . S
C65 O55 1.283 . S
C66 O58 1.304 . S
C66 O60 1.272 . S
C67 O59 1.311 . S
C67 O61 1.231 . S
O68 Zn50 1.953 . S
O68 C62 1.298 . S
O69 Zn70 1.953 . S
O69 C85 1.225 . S
Zn70 O69 1.953 . S
Zn70 O71 1.949 . S
Zn70 O77 1.919 . S
Zn70 O82 1.924 . S
O71 Zn70 1.949 . S
O71 Zn72 1.923 . S
O71 Zn73 1.950 . S
O71 Zn74 1.945 . S
Zn72 O71 1.923 . S
Zn72 O75 1.933 . S
Zn72 O78 1.941 . S
Zn72 O79 1.965 . S
Zn73 O71 1.950 . S
Zn73 O80 1.938 . S
Zn73 O81 1.906 . S
Zn73 O91 1.953 . S
Zn74 O71 1.945 . S
Zn74 O76 1.932 . S
Zn74 O83 1.977 . S
Zn74 O84 1.910 . S
O75 Zn72 1.933 . S
O75 C86 1.226 . S
O76 Zn74 1.932 . S
O76 C86 1.307 . S
O77 Zn70 1.919 . S
O77 C88 1.253 . S
O78 Zn72 1.941 . S
O78 C88 1.283 . S
O79 Zn72 1.965 . S
O79 C87 1.303 . S
O80 Zn73 1.938 . S
O80 C87 1.247 . S
O81 Zn73 1.906 . S
O81 C89 1.304 . S
O82 Zn70 1.924 . S
O82 C90 1.311 . S
O83 Zn74 1.977 . S
O83 C89 1.272 . S
O84 Zn74 1.910 . S
O84 C90 1.231 . S
C85 O69 1.225 . S
C85 O91 1.298 . S
C86 O75 1.226 . S
C86 O76 1.307 . S
C87 O79 1.303 . S
C87 O80 1.247 . S
C88 O77 1.253 . S
C88 O78 1.283 . S
C89 O81 1.304 . S
C89 O83 1.272 . S
C90 O82 1.311 . S
C90 O84 1.231 . S
O91 Zn73 1.953 . S
O91 C85 1.298 . S
O92 Zn93 1.953 . S
O92 C108 1.225 . S
Zn93 O92 1.953 . S
Zn93 O94 1.949 . S
Zn93 O100 1.919 . S
Zn93 O105 1.924 . S
O94 Zn93 1.949 . S
O94 Zn95 1.923 . S
O94 Zn96 1.950 . S
O94 Zn97 1.945 . S
Zn95 O94 1.923 . S
Zn95 O98 1.933 1_455 S
Zn95 O101 1.941 . S
Zn95 O102 1.965 1_455 S
Zn96 O94 1.950 . S
Zn96 O103 1.938 1_455 S
Zn96 O104 1.906 . S
Zn96 O114 1.953 . S
Zn97 O94 1.945 . S
Zn97 O99 1.932 . S
Zn97 O106 1.977 . S
Zn97 O107 1.910 . S
O98 Zn95 1.933 1_655 S
O98 C109 1.225 1_655 S
O99 Zn97 1.932 . S
O99 C109 1.310 . S
O100 Zn93 1.919 . S
O100 C111 1.253 . S
O101 Zn95 1.941 . S
O101 C111 1.283 . S
O102 Zn95 1.965 1_655 S
O102 C110 1.303 . S
O103 Zn96 1.938 1_655 S
O103 C110 1.247 . S
O104 Zn96 1.906 . S
O104 C112 1.304 . S
O105 Zn93 1.924 . S
O105 C113 1.311 . S
O106 Zn97 1.977 . S
O106 C112 1.272 . S
O107 Zn97 1.910 . S
O107 C113 1.231 . S
C108 O92 1.225 . S
C108 O114 1.298 . S
C109 O98 1.225 1_455 S
C109 O99 1.310 . S
C110 O102 1.303 . S
C110 O103 1.247 . S
C111 O100 1.253 . S
C111 O101 1.283 . S
C112 O104 1.304 . S
C112 O106 1.272 . S
C113 O105 1.311 . S
C113 O107 1.231 . S
O114 Zn96 1.953 . S
O114 C108 1.298 . S
O115 Zn116 1.953 . S
O115 C131 1.225 . S
Zn116 O115 1.953 . S
Zn116 O117 1.949 . S
Zn116 O123 1.919 . S
Zn116 O128 1.924 . S
O117 Zn116 1.949 . S
O117 Zn118 1.923 . S
O117 Zn119 1.950 . S
O117 Zn120 1.945 . S
Zn118 O117 1.923 . S
Zn118 O121 1.933 1_545 S
Zn118 O124 1.941 . S
Zn118 O125 1.965 1_545 S
Zn119 O117 1.950 . S
Zn119 O126 1.938 1_545 S
Zn119 O127 1.906 . S
Zn119 O137 1.953 . S
Zn120 O117 1.945 . S
Zn120 O122 1.932 . S
Zn120 O129 1.977 . S
Zn120 O130 1.910 . S
O121 Zn118 1.933 1_565 S
O121 C132 1.226 1_565 S
O122 Zn120 1.932 . S
O122 C132 1.308 . S
O123 Zn116 1.919 . S
O123 C134 1.253 . S
O124 Zn118 1.941 . S
O124 C134 1.283 . S
O125 Zn118 1.965 1_565 S
O125 C133 1.303 . S
O126 Zn119 1.938 1_565 S
O126 C133 1.247 . S
O127 Zn119 1.906 . S
O127 C135 1.304 . S
O128 Zn116 1.924 . S
O128 C136 1.311 . S
O129 Zn120 1.977 . S
O129 C135 1.272 . S
O130 Zn120 1.910 . S
O130 C136 1.231 . S
C131 O115 1.225 . S
C131 O137 1.298 . S
C132 O121 1.226 1_545 S
C132 O122 1.308 . S
C133 O125 1.303 . S
C133 O126 1.247 . S
C134 O123 1.253 . S
C134 O124 1.283 . S
C135 O127 1.304 . S
C135 O129 1.272 . S
C136 O128 1.311 . S
C136 O130 1.231 . S
O137 Zn119 1.953 . S
O137 C131 1.298 . S
O138 Zn139 1.953 . S
O138 C154 1.225 . S
Zn139 O138 1.953 . S
Zn139 O140 1.949 . S
Zn139 O146 1.919 . S
Zn139 O151 1.924 . S
O140 Zn139 1.949 . S
O140 Zn141 1.923 . S
O140 Zn142 1.950 . S
O140 Zn143 1.945 . S
Zn141 O140 1.923 . S
Zn141 O144 1.933 . S
Zn141 O147 1.941 . S
Zn141 O148 1.965 . S
Zn142 O140 1.950 . S
Zn142 O149 1.938 . S
Zn142 O150 1.906 . S
Zn142 O160 1.953 . S
Zn143 O140 1.945 . S
Zn143 O145 1.932 . S
Zn143 O152 1.977 . S
Zn143 O153 1.910 . S
O144 Zn141 1.933 . S
O144 C155 1.226 . S
O145 Zn143 1.932 . S
O145 C155 1.307 . S
O146 Zn139 1.919 . S
O146 C157 1.253 . S
O147 Zn141 1.941 . S
O147 C157 1.283 . S
O148 Zn141 1.965 . S
O148 C156 1.303 . S
O149 Zn142 1.938 . S
O149 C156 1.247 . S
O150 Zn142 1.906 . S
O150 C158 1.304 . S
O151 Zn139 1.924 . S
O151 C159 1.311 . S
O152 Zn143 1.977 . S
O152 C158 1.272 . S
O153 Zn143 1.910 . S
O153 C159 1.231 . S
C154 O138 1.225 . S
C154 O160 1.298 . S
C155 O144 1.226 . S
C155 O145 1.307 . S
C156 O148 1.303 . S
C156 O149 1.247 . S
C157 O146 1.253 . S
C157 O147 1.283 . S
C158 O150 1.304 . S
C158 O152 1.272 . S
C159 O151 1.311 . S
C159 O153 1.231 . S
O160 Zn142 1.953 . S
O160 C154 1.298 . S
O161 Zn162 1.953 . S
O161 C177 1.225 . S
Zn162 O161 1.953 . S
Zn162 O163 1.949 . S
Zn162 O169 1.919 . S
Zn162 O174 1.924 . S
O163 Zn162 1.949 . S
O163 Zn164 1.923 . S
O163 Zn165 1.950 . S
O163 Zn166 1.945 . S
Zn164 O163 1.923 . S
Zn164 O167 1.933 1_656 S
Zn164 O170 1.941 . S
Zn164 O171 1.965 1_655 S
Zn165 O163 1.950 . S
Zn165 O172 1.938 1_655 S
Zn165 O173 1.906 . S
Zn165 O183 1.953 . S
Zn166 O163 1.945 . S
Zn166 O168 1.932 1_556 S
Zn166 O175 1.977 . S
Zn166 O176 1.910 1_556 S
O167 Zn164 1.933 1_454 S
O167 C178 1.226 1_455 S
O168 Zn166 1.932 1_554 S
O168 C178 1.308 . S
O169 Zn162 1.919 . S
O169 C180 1.253 . S
O170 Zn164 1.941 . S
O170 C180 1.283 . S
O171 Zn164 1.965 1_455 S
O171 C179 1.303 . S
O172 Zn165 1.938 1_455 S
O172 C179 1.247 . S
O173 Zn165 1.906 . S
O173 C181 1.304 . S
O174 Zn162 1.924 . S
O174 C182 1.311 . S
O175 Zn166 1.977 . S
O175 C181 1.272 . S
O176 Zn166 1.910 1_554 S
O176 C182 1.231 1_554 S
C177 O161 1.225 . S
C177 O183 1.298 . S
C178 O167 1.226 1_655 S
C178 O168 1.308 . S
C179 O171 1.303 . S
C179 O172 1.247 . S
C180 O169 1.253 . S
C180 O170 1.283 . S
C181 O173 1.304 . S
C181 O175 1.272 . S
C182 O174 1.311 . S
C182 O176 1.231 1_556 S
O183 Zn165 1.953 . S
O183 C177 1.298 . S
O184 Zn185 1.953 . S
O184 C200 1.225 . S
Zn185 O184 1.953 . S
Zn185 O186 1.949 . S
Zn185 O192 1.919 . S
Zn185 O197 1.924 . S
O186 Zn185 1.949 . S
O186 Zn187 1.923 . S
O186 Zn188 1.950 . S
O186 Zn189 1.945 . S
Zn187 O186 1.923 . S
Zn187 O190 1.933 1_565 S
Zn187 O193 1.941 . S
Zn187 O194 1.965 1_565 S
Zn188 O186 1.950 . S
Zn188 O195 1.938 1_565 S
Zn188 O196 1.906 . S
Zn188 O206 1.953 . S
Zn189 O186 1.945 . S
Zn189 O191 1.932 . S
Zn189 O198 1.977 . S
Zn189 O199 1.910 . S
O190 Zn187 1.933 1_545 S
O190 C201 1.225 1_545 S
O191 Zn189 1.932 . S
O191 C201 1.310 . S
O192 Zn185 1.919 . S
O192 C203 1.253 . S
O193 Zn187 1.941 . S
O193 C203 1.283 . S
O194 Zn187 1.965 1_545 S
O194 C202 1.303 . S
O195 Zn188 1.938 1_545 S
O195 C202 1.247 . S
O196 Zn188 1.906 . S
O196 C204 1.304 . S
O197 Zn185 1.924 . S
O197 C205 1.311 . S
O198 Zn189 1.977 . S
O198 C204 1.272 . S
O199 Zn189 1.910 . S
O199 C205 1.231 . S
C200 O184 1.225 . S
C200 O206 1.298 . S
C201 O190 1.225 1_565 S
C201 O191 1.310 . S
C202 O194 1.303 . S
C202 O195 1.247 . S
C203 O192 1.253 . S
C203 O193 1.283 . S
C204 O196 1.304 . S
C204 O198 1.272 . S
C205 O197 1.311 . S
C205 O199 1.231 . S
O206 Zn188 1.953 . S
O206 C200 1.298 . S
O207 Zn208 1.953 . S
O207 C223 1.225 . S
Zn208 O207 1.953 . S
Zn208 O209 1.949 . S
Zn208 O215 1.919 . S
Zn208 O220 1.924 . S
O209 Zn208 1.949 . S
O209 Zn210 1.923 . S
O209 Zn211 1.950 . S
O209 Zn212 1.945 . S
Zn210 O209 1.923 . S
Zn210 O213 1.933 . S
Zn210 O216 1.941 . S
Zn210 O217 1.965 . S
Zn211 O209 1.950 . S
Zn211 O218 1.938 . S
Zn211 O219 1.906 . S
Zn211 O229 1.953 . S
Zn212 O209 1.945 . S
Zn212 O214 1.932 . S
Zn212 O221 1.977 . S
Zn212 O222 1.910 . S
O213 Zn210 1.933 . S
O213 C224 1.226 . S
O214 Zn212 1.932 . S
O214 C224 1.307 . S
O215 Zn208 1.919 . S
O215 C226 1.253 . S
O216 Zn210 1.941 . S
O216 C226 1.283 . S
O217 Zn210 1.965 . S
O217 C225 1.303 . S
O218 Zn211 1.938 . S
O218 C225 1.247 . S
O219 Zn211 1.906 . S
O219 C227 1.304 . S
O220 Zn208 1.924 . S
O220 C228 1.311 . S
O221 Zn212 1.977 . S
O221 C227 1.272 . S
O222 Zn212 1.910 . S
O222 C228 1.231 . S
C223 O207 1.225 . S
C223 O229 1.298 . S
C224 O213 1.226 . S
C224 O214 1.307 . S
C225 O217 1.303 . S
C225 O218 1.247 . S
C226 O215 1.253 . S
C226 O216 1.283 . S
C227 O219 1.304 . S
C227 O221 1.272 . S
C228 O220 1.311 . S
C228 O222 1.231 . S
O229 Zn211 1.953 . S
O229 C223 1.298 . S
O230 Zn231 1.953 . S
O230 C246 1.225 . S
Zn231 O230 1.953 . S
Zn231 O232 1.949 . S
Zn231 O238 1.919 . S
Zn231 O243 1.924 . S
O232 Zn231 1.949 . S
O232 Zn233 1.923 . S
O232 Zn234 1.950 . S
O232 Zn235 1.945 . S
Zn233 O232 1.923 . S
Zn233 O236 1.933 1_455 S
Zn233 O239 1.941 . S
Zn233 O240 1.965 1_455 S
Zn234 O232 1.950 . S
Zn234 O241 1.938 1_455 S
Zn234 O242 1.906 . S
Zn234 O252 1.953 . S
Zn235 O232 1.945 . S
Zn235 O237 1.932 . S
Zn235 O244 1.977 . S
Zn235 O245 1.910 . S
O236 Zn233 1.933 1_655 S
O236 C247 1.226 1_655 S
O237 Zn235 1.932 . S
O237 C247 1.308 . S
O238 Zn231 1.919 . S
O238 C249 1.253 . S
O239 Zn233 1.941 . S
O239 C249 1.283 . S
O240 Zn233 1.965 1_655 S
O240 C248 1.303 . S
O241 Zn234 1.938 1_655 S
O241 C248 1.247 . S
O242 Zn234 1.906 . S
O242 C250 1.304 . S
O243 Zn231 1.924 . S
O243 C251 1.311 . S
O244 Zn235 1.977 . S
O244 C250 1.272 . S
O245 Zn235 1.910 . S
O245 C251 1.231 . S
C246 O230 1.225 . S
C246 O252 1.298 . S
C247 O236 1.226 1_455 S
C247 O237 1.308 . S
C248 O240 1.303 . S
C248 O241 1.247 . S
C249 O238 1.253 . S
C249 O239 1.283 . S
C250 O242 1.304 . S
C250 O244 1.272 . S
C251 O243 1.311 . S
C251 O245 1.231 . S
O252 Zn234 1.953 . S
O252 C246 1.298 . S
O253 Zn254 1.953 . S
O253 C269 1.225 . S
Zn254 O253 1.953 . S
Zn254 O255 1.949 . S
Zn254 O261 1.919 . S
Zn254 O266 1.924 . S
O255 Zn254 1.949 . S
O255 Zn256 1.923 . S
O255 Zn257 1.950 . S
O255 Zn258 1.945 . S
Zn256 O255 1.923 . S
Zn256 O259 1.933 1_545 S
Zn256 O262 1.941 . S
Zn256 O263 1.965 1_545 S
Zn257 O255 1.950 . S
Zn257 O264 1.938 1_545 S
Zn257 O265 1.906 . S
Zn257 O275 1.953 . S
Zn258 O255 1.945 . S
Zn258 O260 1.932 . S
Zn258 O267 1.977 . S
Zn258 O268 1.910 . S
O259 Zn256 1.933 1_565 S
O259 C270 1.225 1_565 S
O260 Zn258 1.932 . S
O260 C270 1.310 . S
O261 Zn254 1.919 . S
O261 C272 1.253 . S
O262 Zn256 1.941 . S
O262 C272 1.283 . S
O263 Zn256 1.965 1_565 S
O263 C271 1.303 . S
O264 Zn257 1.938 1_565 S
O264 C271 1.247 . S
O265 Zn257 1.906 . S
O265 C273 1.304 . S
O266 Zn254 1.924 . S
O266 C274 1.311 . S
O267 Zn258 1.977 . S
O267 C273 1.272 . S
O268 Zn258 1.910 . S
O268 C274 1.231 . S
C269 O253 1.225 . S
C269 O275 1.298 . S
C270 O259 1.225 1_545 S
C270 O260 1.310 . S
C271 O263 1.303 . S
C271 O264 1.247 . S
C272 O261 1.253 . S
C272 O262 1.283 . S
C273 O265 1.304 . S
C273 O267 1.272 . S
C274 O266 1.311 . S
C274 O268 1.231 . S
O275 Zn257 1.953 . S
O275 C269 1.298 . S
C276 C277 1.398 1_554 S
C276 C278 1.394 . S
C276 H292 0.931 . S
C277 C276 1.398 1_556 S
C277 C281 1.371 . S
C278 C276 1.394 . S
C278 C279 1.369 . S
C278 C282 1.531 . S
C279 C278 1.369 . S
C279 C280 1.410 1_554 S
C279 C287 1.503 . S
C280 C279 1.410 1_556 S
C280 C281 1.392 . S
C280 C283 1.511 . S
C281 C277 1.371 . S
C281 C280 1.392 . S
C281 H293 0.929 . S
C282 C278 1.531 . S
C282 H294 0.960 . S
C282 H295 0.962 . S
C282 H296 0.960 . S
C283 C280 1.511 . S
C283 H297 0.961 . S
C283 H298 0.961 . S
C283 H299 0.961 . S
C284 C285 1.370 . S
C284 C286 1.363 . S
C284 H300 0.931 . S
C285 C284 1.370 . S
C285 C289 1.408 . S
C286 C284 1.363 . S
C286 C287 1.370 . S
C286 C290 1.524 1_554 S
C287 C279 1.503 . S
C287 C286 1.370 . S
C287 C288 1.403 . S
C288 C287 1.403 . S
C288 C289 1.404 . S
C288 C291 1.539 . S
C289 C285 1.408 . S
C289 C288 1.404 . S
C289 H301 0.930 . S
C290 C286 1.524 1_556 S
C290 H302 0.956 1_556 S
C290 H303 0.961 . S
C290 H304 0.961 . S
C291 C288 1.539 . S
C291 H305 0.958 . S
C291 H306 0.961 . S
C291 H307 0.960 . S
H292 C276 0.931 . S
H293 C281 0.929 . S
H294 C282 0.960 . S
H295 C282 0.962 . S
H296 C282 0.960 . S
H297 C283 0.961 . S
H298 C283 0.961 . S
H299 C283 0.961 . S
H300 C284 0.931 . S
H301 C289 0.930 . S
H302 C290 0.956 1_554 S
H303 C290 0.961 . S
H304 C290 0.961 . S
H305 C291 0.958 . S
H306 C291 0.961 . S
H307 C291 0.960 . S
C308 C309 1.391 . S
C308 C310 1.394 . S
C308 H324 0.931 . S
C309 C308 1.391 . S
C309 C313 1.376 . S
C310 C308 1.394 . S
C310 C311 1.369 . S
C310 C314 1.531 1_455 S
C311 C310 1.369 . S
C311 C312 1.410 . S
C311 C319 1.503 . S
C312 C311 1.410 . S
C312 C313 1.392 . S
C312 C315 1.511 . S
C313 C309 1.376 . S
C313 C312 1.392 . S
C313 H325 0.929 . S
C314 C310 1.531 1_655 S
C314 H326 0.960 . S
C314 H327 0.962 . S
C314 H328 0.960 . S
C315 C312 1.511 . S
C315 H329 0.961 . S
C315 H330 0.961 . S
C315 H331 0.961 . S
C316 C317 1.370 . S
C316 C318 1.363 1_655 S
C316 H332 0.931 . S
C317 C316 1.370 . S
C317 C321 1.408 . S
C318 C316 1.363 1_455 S
C318 C319 1.370 . S
C318 C322 1.524 . S
C319 C311 1.503 . S
C319 C318 1.370 . S
C319 C320 1.403 . S
C320 C319 1.403 . S
C320 C321 1.404 1_455 S
C320 C323 1.539 . S
C321 C317 1.408 . S
C321 C320 1.404 1_655 S
C321 H333 0.930 . S
C322 C318 1.524 . S
C322 H334 0.956 . S
C322 H335 0.961 . S
C322 H336 0.961 . S
C323 C320 1.539 . S
C323 H337 0.958 . S
C323 H338 0.961 . S
C323 H339 0.960 . S
H324 C308 0.931 . S
H325 C313 0.929 . S
H326 C314 0.960 . S
H327 C314 0.962 . S
H328 C314 0.960 . S
H329 C315 0.961 . S
H330 C315 0.961 . S
H331 C315 0.961 . S
H332 C316 0.931 . S
H333 C321 0.930 . S
H334 C322 0.956 . S
H335 C322 0.961 . S
H336 C322 0.961 . S
H337 C323 0.958 . S
H338 C323 0.961 . S
H339 C323 0.960 . S
C340 C341 1.391 . S
C340 C342 1.394 . S
C340 H356 0.931 . S
C341 C340 1.391 . S
C341 C345 1.376 . S
C342 C340 1.394 . S
C342 C343 1.369 . S
C342 C346 1.531 1_545 S
C343 C342 1.369 . S
C343 C344 1.410 . S
C343 C351 1.503 . S
C344 C343 1.410 . S
C344 C345 1.392 . S
C344 C347 1.511 . S
C345 C341 1.376 . S
C345 C344 1.392 . S
C345 H357 0.929 . S
C346 C342 1.531 1_565 S
C346 H358 0.960 . S
C346 H359 0.962 . S
C346 H360 0.960 . S
C347 C344 1.511 . S
C347 H361 0.961 . S
C347 H362 0.961 . S
C347 H363 0.961 . S
C348 C349 1.370 . S
C348 C350 1.363 1_565 S
C348 H364 0.931 . S
C349 C348 1.370 . S
C349 C353 1.408 . S
C350 C348 1.363 1_545 S
C350 C351 1.370 . S
C350 C354 1.524 . S
C351 C343 1.503 . S
C351 C350 1.370 . S
C351 C352 1.403 . S
C352 C351 1.403 . S
C352 C353 1.404 1_545 S
C352 C355 1.539 . S
C353 C349 1.408 . S
C353 C352 1.404 1_565 S
C353 H365 0.930 . S
C354 C350 1.524 . S
C354 H366 0.956 . S
C354 H367 0.961 . S
C354 H368 0.961 . S
C355 C352 1.539 . S
C355 H369 0.958 1_545 S
C355 H370 0.961 . S
C355 H371 0.960 . S
H356 C340 0.931 . S
H357 C345 0.929 . S
H358 C346 0.960 . S
H359 C346 0.962 . S
H360 C346 0.960 . S
H361 C347 0.961 . S
H362 C347 0.961 . S
H363 C347 0.961 . S
H364 C348 0.931 . S
H365 C353 0.930 . S
H366 C354 0.956 . S
H367 C354 0.961 . S
H368 C354 0.961 . S
H369 C355 0.958 1_565 S
H370 C355 0.961 . S
H371 C355 0.960 . S
C372 C373 1.391 . S
C372 C374 1.394 . S
C372 H388 0.931 . S
C373 C372 1.391 . S
C373 C377 1.376 . S
C374 C372 1.394 . S
C374 C375 1.369 . S
C374 C378 1.531 . S
C375 C374 1.369 . S
C375 C376 1.410 . S
C375 C383 1.503 . S
C376 C375 1.410 . S
C376 C377 1.392 . S
C376 C379 1.511 . S
C377 C373 1.376 . S
C377 C376 1.392 . S
C377 H389 0.929 . S
C378 C374 1.531 . S
C378 H390 0.960 . S
C378 H391 0.962 . S
C378 H392 0.960 . S
C379 C376 1.511 . S
C379 H393 0.961 . S
C379 H394 0.961 . S
C379 H395 0.961 . S
C380 C381 1.370 . S
C380 C382 1.363 . S
C380 H396 0.931 . S
C381 C380 1.370 . S
C381 C385 1.408 . S
C382 C380 1.363 . S
C382 C383 1.370 . S
C382 C386 1.524 . S
C383 C375 1.503 . S
C383 C382 1.370 . S
C383 C384 1.403 . S
C384 C383 1.403 . S
C384 C385 1.404 . S
C384 C387 1.539 . S
C385 C381 1.408 . S
C385 C384 1.404 . S
C385 H397 0.930 . S
C386 C382 1.524 . S
C386 H398 0.956 . S
C386 H399 0.961 . S
C386 H400 0.961 . S
C387 C384 1.539 . S
C387 H401 0.958 . S
C387 H402 0.961 . S
C387 H403 0.960 . S
H388 C372 0.931 . S
H389 C377 0.929 . S
H390 C378 0.960 . S
H391 C378 0.962 . S
H392 C378 0.960 . S
H393 C379 0.961 . S
H394 C379 0.961 . S
H395 C379 0.961 . S
H396 C380 0.931 . S
H397 C385 0.930 . S
H398 C386 0.956 . S
H399 C386 0.961 . S
H400 C386 0.961 . S
H401 C387 0.958 . S
H402 C387 0.961 . S
H403 C387 0.960 . S
C404 C405 1.391 . S
C404 C406 1.394 . S
C404 H420 0.931 . S
C405 C404 1.391 . S
C405 C409 1.376 . S
C406 C404 1.394 . S
C406 C407 1.369 . S
C406 C410 1.531 . S
C407 C406 1.369 . S
C407 C408 1.410 . S
C407 C415 1.503 . S
C408 C407 1.410 . S
C408 C409 1.392 . S
C408 C411 1.511 . S
C409 C405 1.376 . S
C409 C408 1.392 . S
C409 H421 0.929 . S
C410 C406 1.531 . S
C410 H422 0.960 1_655 S
C410 H423 0.962 . S
C410 H424 0.960 1_655 S
C411 C408 1.511 . S
C411 H425 0.961 . S
C411 H426 0.961 . S
C411 H427 0.961 . S
C412 C413 1.370 1_655 S
C412 C414 1.363 . S
C412 H428 0.931 . S
C413 C412 1.370 1_455 S
C413 C417 1.408 . S
C414 C412 1.363 . S
C414 C415 1.370 . S
C414 C418 1.524 . S
C415 C407 1.503 . S
C415 C414 1.370 . S
C415 C416 1.403 1_655 S
C416 C415 1.403 1_455 S
C416 C417 1.404 . S
C416 C419 1.539 . S
C417 C413 1.408 . S
C417 C416 1.404 . S
C417 H429 0.930 . S
C418 C414 1.524 . S
C418 H430 0.956 . S
C418 H431 0.961 . S
C418 H432 0.961 . S
C419 C416 1.539 . S
C419 H433 0.958 . S
C419 H434 0.961 . S
C419 H435 0.960 . S
H420 C404 0.931 . S
H421 C409 0.929 . S
H422 C410 0.960 1_455 S
H423 C410 0.962 . S
H424 C410 0.960 1_455 S
H425 C411 0.961 . S
H426 C411 0.961 . S
H427 C411 0.961 . S
H428 C412 0.931 . S
H429 C417 0.930 . S
H430 C418 0.956 . S
H431 C418 0.961 . S
H432 C418 0.961 . S
H433 C419 0.958 . S
H434 C419 0.961 . S
H435 C419 0.960 . S
C436 C437 1.391 . S
C436 C438 1.394 . S
C436 H452 0.931 . S
C437 C436 1.391 . S
C437 C441 1.376 . S
C438 C436 1.394 . S
C438 C439 1.369 . S
C438 C442 1.531 . S
C439 C438 1.369 . S
C439 C440 1.410 . S
C439 C447 1.503 . S
C440 C439 1.410 . S
C440 C441 1.392 . S
C440 C443 1.511 . S
C441 C437 1.376 . S
C441 C440 1.392 . S
C441 H453 0.929 . S
C442 C438 1.531 . S
C442 H454 0.960 . S
C442 H455 0.962 . S
C442 H456 0.960 . S
C443 C440 1.511 . S
C443 H457 0.961 . S
C443 H458 0.961 1_565 S
C443 H459 0.961 . S
C444 C445 1.370 . S
C444 C446 1.363 . S
C444 H460 0.931 . S
C445 C444 1.370 . S
C445 C449 1.408 1_545 S
C446 C444 1.363 . S
C446 C447 1.370 1_545 S
C446 C450 1.524 . S
C447 C439 1.503 . S
C447 C446 1.370 1_565 S
C447 C448 1.403 . S
C448 C447 1.403 . S
C448 C449 1.404 . S
C448 C451 1.539 . S
C449 C445 1.408 1_565 S
C449 C448 1.404 . S
C449 H461 0.930 . S
C450 C446 1.524 . S
C450 H462 0.956 1_545 S
C450 H463 0.961 . S
C450 H464 0.961 . S
C451 C448 1.539 . S
C451 H465 0.958 . S
C451 H466 0.961 . S
C451 H467 0.960 . S
H452 C436 0.931 . S
H453 C441 0.929 . S
H454 C442 0.960 . S
H455 C442 0.962 . S
H456 C442 0.960 . S
H457 C443 0.961 . S
H458 C443 0.961 1_545 S
H459 C443 0.961 . S
H460 C444 0.931 . S
H461 C449 0.930 . S
H462 C450 0.956 1_565 S
H463 C450 0.961 . S
H464 C450 0.961 . S
H465 C451 0.958 . S
H466 C451 0.961 . S
H467 C451 0.960 . S
C468 C469 1.391 . S
C468 C470 1.394 . S
C468 H484 0.931 . S
C469 C468 1.391 . S
C469 C473 1.376 . S
C470 C468 1.394 . S
C470 C471 1.369 . S
C470 C474 1.531 . S
C471 C470 1.369 . S
C471 C472 1.410 . S
C471 C479 1.503 . S
C472 C471 1.410 . S
C472 C473 1.392 . S
C472 C475 1.511 . S
C473 C469 1.376 . S
C473 C472 1.392 . S
C473 H485 0.929 . S
C474 C470 1.531 . S
C474 H486 0.960 . S
C474 H487 0.962 . S
C474 H488 0.960 . S
C475 C472 1.511 . S
C475 H489 0.961 . S
C475 H490 0.961 . S
C475 H491 0.961 . S
C476 C477 1.370 . S
C476 C478 1.363 . S
C476 H492 0.931 . S
C477 C476 1.370 . S
C477 C481 1.408 . S
C478 C476 1.363 . S
C478 C479 1.370 . S
C478 C482 1.524 . S
C479 C471 1.503 . S
C479 C478 1.370 . S
C479 C480 1.403 . S
C480 C479 1.403 . S
C480 C481 1.404 . S
C480 C483 1.539 . S
C481 C477 1.408 . S
C481 C480 1.404 . S
C481 H493 0.930 . S
C482 C478 1.524 . S
C482 H494 0.956 . S
C482 H495 0.961 . S
C482 H496 0.961 . S
C483 C480 1.539 . S
C483 H497 0.958 . S
C483 H498 0.961 . S
C483 H499 0.960 . S
H484 C468 0.931 . S
H485 C473 0.929 . S
H486 C474 0.960 . S
H487 C474 0.962 . S
H488 C474 0.960 . S
H489 C475 0.961 . S
H490 C475 0.961 . S
H491 C475 0.961 . S
H492 C476 0.931 . S
H493 C481 0.930 . S
H494 C482 0.956 . S
H495 C482 0.961 . S
H496 C482 0.961 . S
H497 C483 0.958 . S
H498 C483 0.961 . S
H499 C483 0.960 . S
C500 C501 1.391 1_455 S
C500 C502 1.394 . S
C500 H516 0.931 . S
C501 C500 1.391 1_655 S
C501 C505 1.376 . S
C502 C500 1.394 . S
C502 C503 1.369 . S
C502 C506 1.531 1_556 S
C503 C502 1.369 . S
C503 C504 1.410 1_455 S
C503 C511 1.503 . S
C504 C503 1.410 1_655 S
C504 C505 1.392 . S
C504 C507 1.511 . S
C505 C501 1.376 . S
C505 C504 1.392 . S
C505 H517 0.929 . S
C506 C502 1.531 1_554 S
C506 H518 0.960 . S
C506 H519 0.962 1_554 S
C506 H520 0.960 . S
C507 C504 1.511 . S
C507 H521 0.961 . S
C507 H522 0.961 . S
C507 H523 0.961 . S
C508 C509 1.370 1_556 S
C508 C510 1.363 . S
C508 H524 0.931 . S
C509 C508 1.370 1_554 S
C509 C513 1.408 . S
C510 C508 1.363 . S
C510 C511 1.370 . S
C510 C514 1.524 . S
C511 C503 1.503 . S
C511 C510 1.370 . S
C511 C512 1.403 1_556 S
C512 C511 1.403 1_554 S
C512 C513 1.404 . S
C512 C515 1.539 . S
C513 C509 1.408 . S
C513 C512 1.404 . S
C513 H525 0.930 . S
C514 C510 1.524 . S
C514 H526 0.956 . S
C514 H527 0.961 . S
C514 H528 0.961 . S
C515 C512 1.539 . S
C515 H529 0.958 . S
C515 H530 0.961 . S
C515 H531 0.960 1_455 S
H516 C500 0.931 . S
H517 C505 0.929 . S
H518 C506 0.960 . S
H519 C506 0.962 1_556 S
H520 C506 0.960 . S
H521 C507 0.961 . S
H522 C507 0.961 . S
H523 C507 0.961 . S
H524 C508 0.931 . S
H525 C513 0.930 . S
H526 C514 0.956 . S
H527 C514 0.961 . S
H528 C514 0.961 . S
H529 C515 0.958 . S
H530 C515 0.961 . S
H531 C515 0.960 1_655 S
C532 C533 1.391 1_545 S
C532 C534 1.394 . S
C532 H548 0.931 . S
C533 C532 1.391 1_565 S
C533 C537 1.376 . S
C534 C532 1.394 . S
C534 C535 1.369 . S
C534 C538 1.531 . S
C535 C534 1.369 . S
C535 C536 1.410 1_545 S
C535 C543 1.503 . S
C536 C535 1.410 1_565 S
C536 C537 1.392 . S
C536 C539 1.511 . S
C537 C533 1.376 . S
C537 C536 1.392 . S
C537 H549 0.929 . S
C538 C534 1.531 . S
C538 H550 0.960 . S
C538 H551 0.962 . S
C538 H552 0.960 . S
C539 C536 1.511 . S
C539 H553 0.961 . S
C539 H554 0.961 . S
C539 H555 0.961 . S
C540 C541 1.370 . S
C540 C542 1.363 . S
C540 H556 0.931 . S
C541 C540 1.370 . S
C541 C545 1.408 . S
C542 C540 1.363 . S
C542 C543 1.370 . S
C542 C546 1.524 . S
C543 C535 1.503 . S
C543 C542 1.370 . S
C543 C544 1.403 . S
C544 C543 1.403 . S
C544 C545 1.404 . S
C544 C547 1.539 1_545 S
C545 C541 1.408 . S
C545 C544 1.404 . S
C545 H557 0.930 . S
C546 C542 1.524 . S
C546 H558 0.956 . S
C546 H559 0.961 . S
C546 H560 0.961 . S
C547 C544 1.539 1_565 S
C547 H561 0.958 1_565 S
C547 H562 0.961 . S
C547 H563 0.960 . S
H548 C532 0.931 . S
H549 C537 0.929 . S
H550 C538 0.960 . S
H551 C538 0.962 . S
H552 C538 0.960 . S
H553 C539 0.961 . S
H554 C539 0.961 . S
H555 C539 0.961 . S
H556 C540 0.931 . S
H557 C545 0.930 . S
H558 C546 0.956 . S
H559 C546 0.961 . S
H560 C546 0.961 . S
H561 C547 0.958 1_545 S
H562 C547 0.961 . S
H563 C547 0.960 . S
C564 C565 1.391 . S
C564 C566 1.394 . S
C564 H580 0.931 . S
C565 C564 1.391 . S
C565 C569 1.376 . S
C566 C564 1.394 . S
C566 C567 1.369 . S
C566 C570 1.531 . S
C567 C566 1.369 . S
C567 C568 1.410 . S
C567 C575 1.503 . S
C568 C567 1.410 . S
C568 C569 1.392 . S
C568 C571 1.511 . S
C569 C565 1.376 . S
C569 C568 1.392 . S
C569 H581 0.929 . S
C570 C566 1.531 . S
C570 H582 0.960 . S
C570 H583 0.962 . S
C570 H584 0.960 . S
C571 C568 1.511 . S
C571 H585 0.961 . S
C571 H586 0.961 . S
C571 H587 0.961 . S
C572 C573 1.370 . S
C572 C574 1.363 . S
C572 H588 0.931 . S
C573 C572 1.370 . S
C573 C577 1.408 . S
C574 C572 1.363 . S
C574 C575 1.370 . S
C574 C578 1.524 . S
C575 C567 1.503 . S
C575 C574 1.370 . S
C575 C576 1.403 . S
C576 C575 1.403 . S
C576 C577 1.404 . S
C576 C579 1.539 . S
C577 C573 1.408 . S
C577 C576 1.404 . S
C577 H589 0.930 . S
C578 C574 1.524 . S
C578 H590 0.956 . S
C578 H591 0.961 . S
C578 H592 0.961 . S
C579 C576 1.539 . S
C579 H593 0.958 . S
C579 H594 0.961 . S
C579 H595 0.960 . S
H580 C564 0.931 . S
H581 C569 0.929 . S
H582 C570 0.960 . S
H583 C570 0.962 . S
H584 C570 0.960 . S
H585 C571 0.961 . S
H586 C571 0.961 . S
H587 C571 0.961 . S
H588 C572 0.931 . S
H589 C577 0.930 . S
H590 C578 0.956 . S
H591 C578 0.961 . S
H592 C578 0.961 . S
H593 C579 0.958 . S
H594 C579 0.961 . S
H595 C579 0.960 . S
C596 C597 1.391 . S
C596 C598 1.394 . S
C596 H612 0.931 . S
C597 C596 1.391 . S
C597 C601 1.376 1_455 S
C598 C596 1.394 . S
C598 C599 1.369 1_455 S
C598 C602 1.531 . S
C599 C598 1.369 1_655 S
C599 C600 1.410 . S
C599 C607 1.503 . S
C600 C599 1.410 . S
C600 C601 1.392 . S
C600 C603 1.511 . S
C601 C597 1.376 1_655 S
C601 C600 1.392 . S
C601 H613 0.929 . S
C602 C598 1.531 . S
C602 H614 0.960 . S
C602 H615 0.962 1_455 S
C602 H616 0.960 . S
C603 C600 1.511 . S
C603 H617 0.961 . S
C603 H618 0.961 . S
C603 H619 0.961 . S
C604 C605 1.370 . S
C604 C606 1.363 . S
C604 H620 0.931 . S
C605 C604 1.370 . S
C605 C609 1.408 . S
C606 C604 1.363 . S
C606 C607 1.370 . S
C606 C610 1.524 . S
C607 C599 1.503 . S
C607 C606 1.370 . S
C607 C608 1.403 . S
C608 C607 1.403 . S
C608 C609 1.404 . S
C608 C611 1.539 1_655 S
C609 C605 1.408 . S
C609 C608 1.404 . S
C609 H621 0.930 . S
C610 C606 1.524 . S
C610 H622 0.956 . S
C610 H623 0.961 . S
C610 H624 0.961 . S
C611 C608 1.539 1_455 S
C611 H625 0.958 . S
C611 H626 0.961 . S
C611 H627 0.960 . S
H612 C596 0.931 . S
H613 C601 0.929 . S
H614 C602 0.960 . S
H615 C602 0.962 1_655 S
H616 C602 0.960 . S
H617 C603 0.961 . S
H618 C603 0.961 . S
H619 C603 0.961 . S
H620 C604 0.931 . S
H621 C609 0.930 . S
H622 C610 0.956 . S
H623 C610 0.961 . S
H624 C610 0.961 . S
H625 C611 0.958 . S
H626 C611 0.961 . S
H627 C611 0.960 . S
C628 C629 1.391 . S
C628 C630 1.394 . S
C628 H644 0.931 . S
C629 C628 1.391 . S
C629 C633 1.376 1_545 S
C630 C628 1.394 . S
C630 C631 1.369 1_545 S
C630 C634 1.531 . S
C631 C630 1.369 1_565 S
C631 C632 1.410 . S
C631 C639 1.503 . S
C632 C631 1.410 . S
C632 C633 1.392 . S
C632 C635 1.511 . S
C633 C629 1.376 1_565 S
C633 C632 1.392 . S
C633 H645 0.929 . S
C634 C630 1.531 . S
C634 H646 0.960 1_545 S
C634 H647 0.962 . S
C634 H648 0.960 . S
C635 C632 1.511 . S
C635 H649 0.961 . S
C635 H650 0.961 . S
C635 H651 0.961 . S
C636 C637 1.370 . S
C636 C638 1.363 . S
C636 H652 0.931 . S
C637 C636 1.370 . S
C637 C641 1.408 . S
C638 C636 1.363 . S
C638 C639 1.370 . S
C638 C642 1.524 . S
C639 C631 1.503 . S
C639 C638 1.370 . S
C639 C640 1.403 . S
C640 C639 1.403 . S
C640 C641 1.404 . S
C640 C643 1.539 . S
C641 C637 1.408 . S
C641 C640 1.404 . S
C641 H653 0.930 . S
C642 C638 1.524 . S
C642 H654 0.956 1_565 S
C642 H655 0.961 . S
C642 H656 0.961 1_565 S
C643 C640 1.539 . S
C643 H657 0.958 . S
C643 H658 0.961 . S
C643 H659 0.960 . S
H644 C628 0.931 . S
H645 C633 0.929 . S
H646 C634 0.960 1_565 S
H647 C634 0.962 . S
H648 C634 0.960 . S
H649 C635 0.961 . S
H650 C635 0.961 . S
H651 C635 0.961 . S
H652 C636 0.931 . S
H653 C641 0.930 . S
H654 C642 0.956 1_545 S
H655 C642 0.961 . S
H656 C642 0.961 1_545 S
H657 C643 0.958 . S
H658 C643 0.961 . S
H659 C643 0.960 . S
C660 C661 1.391 . S
C660 C662 1.394 . S
C660 H676 0.931 . S
C661 C660 1.391 . S
C661 C665 1.376 . S
C662 C660 1.394 . S
C662 C663 1.369 . S
C662 C666 1.531 . S
C663 C662 1.369 . S
C663 C664 1.410 . S
C663 C671 1.503 . S
C664 C663 1.410 . S
C664 C665 1.392 . S
C664 C667 1.511 . S
C665 C661 1.376 . S
C665 C664 1.392 . S
C665 H677 0.929 . S
C666 C662 1.531 . S
C666 H678 0.960 . S
C666 H679 0.962 . S
C666 H680 0.960 . S
C667 C664 1.511 . S
C667 H681 0.961 . S
C667 H682 0.961 . S
C667 H683 0.961 . S
C668 C669 1.370 . S
C668 C670 1.363 . S
C668 H684 0.931 . S
C669 C668 1.370 . S
C669 C673 1.408 . S
C670 C668 1.363 . S
C670 C671 1.370 . S
C670 C674 1.524 . S
C671 C663 1.503 . S
C671 C670 1.370 . S
C671 C672 1.403 . S
C672 C671 1.403 . S
C672 C673 1.404 . S
C672 C675 1.539 . S
C673 C669 1.408 . S
C673 C672 1.404 . S
C673 H685 0.930 . S
C674 C670 1.524 . S
C674 H686 0.956 . S
C674 H687 0.961 . S
C674 H688 0.961 . S
C675 C672 1.539 . S
C675 H689 0.958 . S
C675 H690 0.961 . S
C675 H691 0.960 . S
H676 C660 0.931 . S
H677 C665 0.929 . S
H678 C666 0.960 . S
H679 C666 0.962 . S
H680 C666 0.960 . S
H681 C667 0.961 . S
H682 C667 0.961 . S
H683 C667 0.961 . S
H684 C668 0.931 . S
H685 C673 0.930 . S
H686 C674 0.956 . S
H687 C674 0.961 . S
H688 C674 0.961 . S
H689 C675 0.958 . S
H690 C675 0.961 . S
H691 C675 0.960 . S
C692 C693 1.391 . S
C692 C694 1.394 . S
C692 H708 0.931 1_455 S
C693 C692 1.391 . S
C693 C697 1.376 . S
C694 C692 1.394 . S
C694 C695 1.369 . S
C694 C698 1.531 . S
C695 C694 1.369 . S
C695 C696 1.410 . S
C695 C703 1.503 . S
C696 C695 1.410 . S
C696 C697 1.392 . S
C696 C699 1.511 . S
C697 C693 1.376 . S
C697 C696 1.392 . S
C697 H709 0.929 . S
C698 C694 1.531 . S
C698 H710 0.960 . S
C698 H711 0.962 . S
C698 H712 0.960 1_455 S
C699 C696 1.511 . S
C699 H713 0.961 . S
C699 H714 0.961 . S
C699 H715 0.961 . S
C700 C701 1.370 . S
C700 C702 1.363 . S
C700 H716 0.931 . S
C701 C700 1.370 . S
C701 C705 1.408 . S
C702 C700 1.363 . S
C702 C703 1.370 . S
C702 C706 1.524 . S
C703 C695 1.503 . S
C703 C702 1.370 . S
C703 C704 1.403 . S
C704 C703 1.403 . S
C704 C705 1.404 . S
C704 C707 1.539 . S
C705 C701 1.408 . S
C705 C704 1.404 . S
C705 H717 0.930 . S
C706 C702 1.524 . S
C706 H718 0.956 . S
C706 H719 0.961 . S
C706 H720 0.961 . S
C707 C704 1.539 . S
C707 H721 0.958 1_455 S
C707 H722 0.961 . S
C707 H723 0.960 . S
H708 C692 0.931 1_655 S
H709 C697 0.929 . S
H710 C698 0.960 . S
H711 C698 0.962 . S
H712 C698 0.960 1_655 S
H713 C699 0.961 . S
H714 C699 0.961 . S
H715 C699 0.961 . S
H716 C700 0.931 . S
H717 C705 0.930 . S
H718 C706 0.956 . S
H719 C706 0.961 . S
H720 C706 0.961 . S
H721 C707 0.958 1_655 S
H722 C707 0.961 . S
H723 C707 0.960 . S
C724 C725 1.391 . S
C724 C726 1.394 . S
C724 H740 0.931 . S
C725 C724 1.391 . S
C725 C729 1.376 . S
C726 C724 1.394 . S
C726 C727 1.369 . S
C726 C730 1.531 . S
C727 C726 1.369 . S
C727 C728 1.410 . S
C727 C735 1.503 . S
C728 C727 1.410 . S
C728 C729 1.392 . S
C728 C731 1.511 . S
C729 C725 1.376 . S
C729 C728 1.392 . S
C729 H741 0.929 . S
C730 C726 1.531 . S
C730 H742 0.960 1_545 S
C730 H743 0.956 . S
C730 H744 0.960 1_545 S
C731 C728 1.511 . S
C731 H745 0.961 . S
C731 H746 0.961 . S
C731 H747 0.961 . S
C732 C733 1.370 . S
C732 C734 1.363 . S
C732 H748 0.931 . S
C733 C732 1.370 . S
C733 C737 1.408 . S
C734 C732 1.363 . S
C734 C735 1.370 . S
C734 C738 1.524 . S
C735 C727 1.503 . S
C735 C734 1.370 . S
C735 C736 1.403 . S
C736 C735 1.403 . S
C736 C737 1.404 . S
C736 C739 1.539 . S
C737 C733 1.408 . S
C737 C736 1.404 . S
C737 H749 0.930 . S
C738 C734 1.524 . S
C738 H750 0.956 . S
C738 H751 0.961 . S
C738 H752 0.961 . S
C739 C736 1.539 . S
C739 H753 0.958 . S
C739 H754 0.961 . S
C739 H755 0.960 . S
H740 C724 0.931 . S
H741 C729 0.929 . S
H742 C730 0.960 1_565 S
H743 C730 0.956 . S
H744 C730 0.960 1_565 S
H745 C731 0.961 . S
H746 C731 0.961 . S
H747 C731 0.961 . S
H748 C732 0.931 . S
H749 C737 0.930 . S
H750 C738 0.956 . S
H751 C738 0.961 . S
H752 C738 0.961 . S
H753 C739 0.958 . S
H754 C739 0.961 . S
H755 C739 0.960 . S
C756 C757 1.391 . S
C756 C758 1.394 . S
C756 H772 0.931 . S
C757 C756 1.391 . S
C757 C761 1.376 . S
C758 C756 1.394 . S
C758 C759 1.369 . S
C758 C762 1.531 . S
C759 C758 1.369 . S
C759 C760 1.410 . S
C759 C767 1.503 . S
C760 C759 1.410 . S
C760 C761 1.392 . S
C760 C763 1.511 . S
C761 C757 1.376 . S
C761 C760 1.392 . S
C761 H773 0.929 . S
C762 C758 1.531 . S
C762 H774 0.960 . S
C762 H775 0.962 . S
C762 H776 0.960 . S
C763 C760 1.511 . S
C763 H777 0.961 . S
C763 H778 0.961 . S
C763 H779 0.961 . S
C764 C765 1.370 . S
C764 C766 1.363 . S
C764 H780 0.931 . S
C765 C764 1.370 . S
C765 C769 1.408 . S
C766 C764 1.363 . S
C766 C767 1.370 . S
C766 C770 1.524 . S
C767 C759 1.503 . S
C767 C766 1.370 . S
C767 C768 1.403 . S
C768 C767 1.403 . S
C768 C769 1.404 . S
C768 C771 1.539 . S
C769 C765 1.408 . S
C769 C768 1.404 . S
C769 H781 0.930 . S
C770 C766 1.524 . S
C770 H782 0.956 . S
C770 H783 0.961 . S
C770 H784 0.961 . S
C771 C768 1.539 . S
C771 H785 0.958 . S
C771 H786 0.961 . S
C771 H787 0.960 . S
H772 C756 0.931 . S
H773 C761 0.929 . S
H774 C762 0.960 . S
H775 C762 0.962 . S
H776 C762 0.960 . S
H777 C763 0.961 . S
H778 C763 0.961 . S
H779 C763 0.961 . S
H780 C764 0.931 . S
H781 C769 0.930 . S
H782 C770 0.956 . S
H783 C770 0.961 . S
H784 C770 0.961 . S
H785 C771 0.958 . S
H786 C771 0.961 . S
H787 C771 0.960 . S
C788 C789 1.391 . S
C788 C790 1.394 . S
C788 H804 0.931 . S
C789 C788 1.391 . S
C789 C793 1.376 . S
C790 C788 1.394 . S
C790 C791 1.369 . S
C790 C794 1.531 . S
C791 C790 1.369 . S
C791 C792 1.410 . S
C791 C799 1.503 . S
C792 C791 1.410 . S
C792 C793 1.392 . S
C792 C795 1.511 . S
C793 C789 1.376 . S
C793 C792 1.392 . S
C793 H805 0.929 . S
C794 C790 1.531 . S
C794 H806 0.960 . S
C794 H807 0.962 1_655 S
C794 H808 0.960 1_655 S
C795 C792 1.511 . S
C795 H809 0.961 . S
C795 H810 0.961 . S
C795 H811 0.961 . S
C796 C797 1.370 . S
C796 C798 1.363 . S
C796 H812 0.931 . S
C797 C796 1.370 . S
C797 C801 1.408 . S
C798 C796 1.363 . S
C798 C799 1.370 . S
C798 C802 1.524 . S
C799 C791 1.503 . S
C799 C798 1.370 . S
C799 C800 1.403 . S
C800 C799 1.403 . S
C800 C801 1.404 . S
C800 C803 1.539 . S
C801 C797 1.408 . S
C801 C800 1.404 . S
C801 H813 0.930 . S
C802 C798 1.524 . S
C802 H814 0.956 . S
C802 H815 0.961 . S
C802 H816 0.961 . S
C803 C800 1.539 . S
C803 H817 0.958 . S
C803 H818 0.961 . S
C803 H819 0.960 . S
H804 C788 0.931 . S
H805 C793 0.929 . S
H806 C794 0.960 . S
H807 C794 0.962 1_455 S
H808 C794 0.960 1_455 S
H809 C795 0.961 . S
H810 C795 0.961 . S
H811 C795 0.961 . S
H812 C796 0.931 . S
H813 C801 0.930 . S
H814 C802 0.956 . S
H815 C802 0.961 . S
H816 C802 0.961 . S
H817 C803 0.958 . S
H818 C803 0.961 . S
H819 C803 0.960 . S
C820 C821 1.391 . S
C820 C822 1.394 . S
C820 H836 0.931 1_565 S
C821 C820 1.391 . S
C821 C825 1.376 . S
C822 C820 1.394 . S
C822 C823 1.369 . S
C822 C826 1.531 . S
C823 C822 1.369 . S
C823 C824 1.410 . S
C823 C831 1.503 . S
C824 C823 1.410 . S
C824 C825 1.392 . S
C824 C827 1.511 . S
C825 C821 1.376 . S
C825 C824 1.392 . S
C825 H837 0.929 . S
C826 C822 1.531 . S
C826 H838 0.960 . S
C826 H839 0.962 . S
C826 H840 0.960 1_565 S
C827 C824 1.511 . S
C827 H841 0.961 . S
C827 H842 0.961 . S
C827 H843 0.961 . S
C828 C829 1.370 . S
C828 C830 1.363 . S
C828 H844 0.931 . S
C829 C828 1.370 . S
C829 C833 1.408 . S
C830 C828 1.363 . S
C830 C831 1.370 . S
C830 C834 1.524 . S
C831 C823 1.503 . S
C831 C830 1.370 . S
C831 C832 1.403 . S
C832 C831 1.403 . S
C832 C833 1.404 . S
C832 C835 1.539 . S
C833 C829 1.408 . S
C833 C832 1.404 . S
C833 H845 0.930 . S
C834 C830 1.524 . S
C834 H846 0.956 . S
C834 H847 0.961 . S
C834 H848 0.961 . S
C835 C832 1.539 . S
C835 H849 0.958 1_565 S
C835 H850 0.961 . S
C835 H851 0.960 . S
H836 C820 0.931 1_545 S
H837 C825 0.929 . S
H838 C826 0.960 . S
H839 C826 0.962 . S
H840 C826 0.960 1_545 S
H841 C827 0.961 . S
H842 C827 0.961 . S
H843 C827 0.961 . S
H844 C828 0.931 . S
H845 C833 0.930 . S
H846 C834 0.956 . S
H847 C834 0.961 . S
H848 C834 0.961 . S
H849 C835 0.958 1_545 S
H850 C835 0.961 . S
H851 C835 0.960 . S
C852 C853 1.391 . S
C852 C854 1.394 . S
C852 H868 0.931 . S
C853 C852 1.391 . S
C853 C857 1.376 . S
C854 C852 1.394 . S
C854 C855 1.369 . S
C854 C858 1.531 . S
C855 C854 1.369 . S
C855 C856 1.410 . S
C855 C863 1.503 . S
C856 C855 1.410 . S
C856 C857 1.392 . S
C856 C859 1.511 . S
C857 C853 1.376 . S
C857 C856 1.392 . S
C857 H869 0.929 . S
C858 C854 1.531 . S
C858 H870 0.960 . S
C858 H871 0.962 . S
C858 H872 0.960 . S
C859 C856 1.511 . S
C859 H873 0.961 . S
C859 H874 0.961 . S
C859 H875 0.961 . S
C860 C861 1.370 . S
C860 C862 1.363 . S
C860 H876 0.931 . S
C861 C860 1.370 . S
C861 C865 1.408 . S
C862 C860 1.363 . S
C862 C863 1.370 . S
C862 C866 1.524 . S
C863 C855 1.503 . S
C863 C862 1.370 . S
C863 C864 1.403 . S
C864 C863 1.403 . S
C864 C865 1.404 . S
C864 C867 1.539 . S
C865 C861 1.408 . S
C865 C864 1.404 . S
C865 H877 0.930 . S
C866 C862 1.524 . S
C866 H878 0.956 . S
C866 H879 0.961 . S
C866 H880 0.961 . S
C867 C864 1.539 . S
C867 H881 0.958 . S
C867 H882 0.961 . S
C867 H883 0.960 . S
H868 C852 0.931 . S
H869 C857 0.929 . S
H870 C858 0.960 . S
H871 C858 0.962 . S
H872 C858 0.960 . S
H873 C859 0.961 . S
H874 C859 0.961 . S
H875 C859 0.961 . S
H876 C860 0.931 . S
H877 C865 0.930 . S
H878 C866 0.956 . S
H879 C866 0.961 . S
H880 C866 0.961 . S
H881 C867 0.958 . S
H882 C867 0.961 . S
H883 C867 0.960 . S
C884 C885 1.391 . S
C884 C886 1.394 . S
C884 H900 0.931 . S
C885 C884 1.391 . S
C885 C889 1.376 1_455 S
C886 C884 1.394 . S
C886 C887 1.369 . S
C886 C890 1.531 . S
C887 C886 1.369 . S
C887 C888 1.410 . S
C887 C895 1.503 . S
C888 C887 1.410 . S
C888 C889 1.392 1_455 S
C888 C891 1.511 1_455 S
C889 C885 1.376 1_655 S
C889 C888 1.392 1_655 S
C889 H901 0.929 . S
C890 C886 1.531 . S
C890 H902 0.960 . S
C890 H903 0.962 . S
C890 H904 0.960 . S
C891 C888 1.511 1_655 S
C891 H905 0.961 . S
C891 H906 0.961 1_655 S
C891 H907 0.961 . S
C892 C893 1.370 . S
C892 C894 1.363 . S
C892 H908 0.931 . S
C893 C892 1.370 . S
C893 C897 1.408 . S
C894 C892 1.363 . S
C894 C895 1.370 . S
C894 C898 1.524 . S
C895 C887 1.503 . S
C895 C894 1.370 . S
C895 C896 1.403 . S
C896 C895 1.403 . S
C896 C897 1.404 . S
C896 C899 1.539 . S
C897 C893 1.408 . S
C897 C896 1.404 . S
C897 H909 0.930 . S
C898 C894 1.524 . S
C898 H910 0.956 . S
C898 H911 0.961 . S
C898 H912 0.961 . S
C899 C896 1.539 . S
C899 H913 0.958 . S
C899 H914 0.961 . S
C899 H915 0.960 . S
H900 C884 0.931 . S
H901 C889 0.929 . S
H902 C890 0.960 . S
H903 C890 0.962 . S
H904 C890 0.960 . S
H905 C891 0.961 . S
H906 C891 0.961 1_455 S
H907 C891 0.961 . S
H908 C892 0.931 . S
H909 C897 0.930 . S
H910 C898 0.956 . S
H911 C898 0.961 . S
H912 C898 0.961 . S
H913 C899 0.958 . S
H914 C899 0.961 . S
H915 C899 0.960 . S
C916 C917 1.391 1_565 S
C916 C918 1.394 1_565 S
C916 H932 0.931 . S
C917 C916 1.391 1_545 S
C917 C921 1.376 . S
C918 C916 1.394 1_545 S
C918 C919 1.369 . S
C918 C922 1.531 1_545 S
C919 C918 1.369 . S
C919 C920 1.410 . S
C919 C927 1.503 . S
C920 C919 1.410 . S
C920 C921 1.392 . S
C920 C923 1.511 . S
C921 C917 1.376 . S
C921 C920 1.392 . S
C921 H933 0.929 . S
C922 C918 1.531 1_565 S
C922 H934 0.960 1_565 S
C922 H935 0.962 1_565 S
C922 H936 0.960 . S
C923 C920 1.511 . S
C923 H937 0.961 . S
C923 H938 0.961 . S
C923 H939 0.961 . S
C924 C925 1.370 . S
C924 C926 1.363 . S
C924 H940 0.931 . S
C925 C924 1.370 . S
C925 C929 1.408 . S
C926 C924 1.363 . S
C926 C927 1.370 . S
C926 C930 1.524 . S
C927 C919 1.503 . S
C927 C926 1.370 . S
C927 C928 1.403 . S
C928 C927 1.403 . S
C928 C929 1.404 . S
C928 C931 1.539 . S
C929 C925 1.408 . S
C929 C928 1.404 . S
C929 H941 0.930 . S
C930 C926 1.524 . S
C930 H942 0.956 . S
C930 H943 0.961 . S
C930 H944 0.961 . S
C931 C928 1.539 . S
C931 H945 0.958 1_545 S
C931 H946 0.961 . S
C931 H947 0.960 . S
H932 C916 0.931 . S
H933 C921 0.929 . S
H934 C922 0.960 1_545 S
H935 C922 0.962 1_545 S
H936 C922 0.960 . S
H937 C923 0.961 . S
H938 C923 0.961 . S
H939 C923 0.961 . S
H940 C924 0.931 . S
H941 C929 0.930 . S
H942 C930 0.956 . S
H943 C930 0.961 . S
H944 C930 0.961 . S
H945 C931 0.958 1_565 S
H946 C931 0.961 . S
H947 C931 0.960 . S
C948 C949 1.391 . S
C948 C950 1.394 . S
C948 H964 0.931 . S
C949 C948 1.391 . S
C949 C953 1.376 . S
C950 C948 1.394 . S
C950 C951 1.369 . S
C950 C954 1.531 . S
C951 C950 1.369 . S
C951 C952 1.410 . S
C951 C959 1.503 . S
C952 C951 1.410 . S
C952 C953 1.392 . S
C952 C955 1.511 . S
C953 C949 1.376 . S
C953 C952 1.392 . S
C953 H965 0.929 . S
C954 C950 1.531 . S
C954 H966 0.960 . S
C954 H967 0.962 . S
C954 H968 0.960 . S
C955 C952 1.511 . S
C955 H969 0.961 . S
C955 H970 0.961 . S
C955 H971 0.961 . S
C956 C957 1.370 . S
C956 C958 1.363 . S
C956 H972 0.931 . S
C957 C956 1.370 . S
C957 C961 1.408 . S
C958 C956 1.363 . S
C958 C959 1.370 . S
C958 C962 1.524 . S
C959 C951 1.503 . S
C959 C958 1.370 . S
C959 C960 1.403 . S
C960 C959 1.403 . S
C960 C961 1.404 . S
C960 C963 1.539 . S
C961 C957 1.408 . S
C961 C960 1.404 . S
C961 H973 0.930 . S
C962 C958 1.524 . S
C962 H974 0.956 . S
C962 H975 0.961 . S
C962 H976 0.961 . S
C963 C960 1.539 . S
C963 H977 0.958 . S
C963 H978 0.961 . S
C963 H979 0.960 . S
H964 C948 0.931 . S
H965 C953 0.929 . S
H966 C954 0.960 . S
H967 C954 0.962 . S
H968 C954 0.960 . S
H969 C955 0.961 . S
H970 C955 0.961 . S
H971 C955 0.961 . S
H972 C956 0.931 . S
H973 C961 0.930 . S
H974 C962 0.956 . S
H975 C962 0.961 . S
H976 C962 0.961 . S
H977 C963 0.958 . S
H978 C963 0.961 . S
H979 C963 0.960 . S
C980 C981 1.391 1_455 S
C980 C982 1.394 1_455 S
C980 H996 0.931 . S
C981 C980 1.391 1_655 S
C981 C985 1.376 . S
C982 C980 1.394 1_655 S
C982 C983 1.369 . S
C982 C986 1.531 1_655 S
C983 C982 1.369 . S
C983 C984 1.410 . S
C983 C991 1.503 . S
C984 C983 1.410 . S
C984 C985 1.392 . S
C984 C987 1.511 . S
C985 C981 1.376 . S
C985 C984 1.392 . S
C985 H997 0.929 . S
C986 C982 1.531 1_455 S
C986 H998 0.960 1_455 S
C986 H999 0.962 . S
C986 H1000 0.960 . S
C987 C984 1.511 . S
C987 H1001 0.961 . S
C987 H1002 0.961 . S
C987 H1003 0.961 . S
C988 C989 1.370 . S
C988 C990 1.363 . S
C988 H1004 0.931 . S
C989 C988 1.370 . S
C989 C993 1.408 . S
C990 C988 1.363 . S
C990 C991 1.370 . S
C990 C994 1.524 . S
C991 C983 1.503 . S
C991 C990 1.370 . S
C991 C992 1.403 . S
C992 C991 1.403 . S
C992 C993 1.404 . S
C992 C995 1.539 . S
C993 C989 1.408 . S
C993 C992 1.404 . S
C993 H1005 0.930 . S
C994 C990 1.524 . S
C994 H1006 0.956 . S
C994 H1007 0.961 . S
C994 H1008 0.961 . S
C995 C992 1.539 . S
C995 H1009 0.958 . S
C995 H1010 0.961 . S
C995 H1011 0.960 . S
H996 C980 0.931 . S
H997 C985 0.929 . S
H998 C986 0.960 1_655 S
H999 C986 0.962 . S
H1000 C986 0.960 . S
H1001 C987 0.961 . S
H1002 C987 0.961 . S
H1003 C987 0.961 . S
H1004 C988 0.931 . S
H1005 C993 0.930 . S
H1006 C994 0.956 . S
H1007 C994 0.961 . S
H1008 C994 0.961 . S
H1009 C995 0.958 . S
H1010 C995 0.961 . S
H1011 C995 0.960 . S
C1012 C1013 1.391 . S
C1012 C1014 1.394 . S
C1012 H1028 0.931 . S
C1013 C1012 1.391 . S
C1013 C1017 1.376 . S
C1014 C1012 1.394 . S
C1014 C1015 1.369 . S
C1014 C1018 1.531 . S
C1015 C1014 1.369 . S
C1015 C1016 1.410 . S
C1015 C1023 1.503 . S
C1016 C1015 1.410 . S
C1016 C1017 1.392 . S
C1016 C1019 1.511 . S
C1017 C1013 1.376 . S
C1017 C1016 1.392 . S
C1017 H1029 0.929 . S
C1018 C1014 1.531 . S
C1018 H1030 0.960 . S
C1018 H1031 0.962 . S
C1018 H1032 0.960 . S
C1019 C1016 1.511 . S
C1019 H1033 0.961 . S
C1019 H1034 0.961 . S
C1019 H1035 0.961 . S
C1020 C1021 1.370 . S
C1020 C1022 1.363 . S
C1020 H1036 0.931 . S
C1021 C1020 1.370 . S
C1021 C1025 1.408 1_565 S
C1022 C1020 1.363 . S
C1022 C1023 1.370 . S
C1022 C1026 1.524 . S
C1023 C1015 1.503 . S
C1023 C1022 1.370 . S
C1023 C1024 1.403 . S
C1024 C1023 1.403 . S
C1024 C1025 1.404 1_565 S
C1024 C1027 1.539 1_565 S
C1025 C1021 1.408 1_545 S
C1025 C1024 1.404 1_545 S
C1025 H1037 0.930 . S
C1026 C1022 1.524 . S
C1026 H1038 0.956 . S
C1026 H1039 0.961 . S
C1026 H1040 0.961 . S
C1027 C1024 1.539 1_545 S
C1027 H1041 0.958 . S
C1027 H1042 0.961 . S
C1027 H1043 0.960 . S
H1028 C1012 0.931 . S
H1029 C1017 0.929 . S
H1030 C1018 0.960 . S
H1031 C1018 0.962 . S
H1032 C1018 0.960 . S
H1033 C1019 0.961 . S
H1034 C1019 0.961 . S
H1035 C1019 0.961 . S
H1036 C1020 0.931 . S
H1037 C1025 0.930 . S
H1038 C1026 0.956 . S
H1039 C1026 0.961 . S
H1040 C1026 0.961 . S
H1041 C1027 0.958 . S
H1042 C1027 0.961 . S
H1043 C1027 0.960 . S
C1044 C1045 1.391 . S
C1044 C1046 1.394 . S
C1044 H1060 0.931 . S
C1045 C1044 1.391 . S
C1045 C1049 1.376 . S
C1046 C1044 1.394 . S
C1046 C1047 1.369 . S
C1046 C1050 1.531 . S
C1047 C1046 1.369 . S
C1047 C1048 1.410 . S
C1047 C1055 1.503 . S
C1048 C1047 1.410 . S
C1048 C1049 1.392 . S
C1048 C1051 1.511 . S
C1049 C1045 1.376 . S
C1049 C1048 1.392 . S
C1049 H1061 0.929 . S
C1050 C1046 1.531 . S
C1050 H1062 0.960 . S
C1050 H1063 0.962 . S
C1050 H1064 0.960 1_545 S
C1051 C1048 1.511 . S
C1051 H1065 0.961 . S
C1051 H1066 0.961 . S
C1051 H1067 0.961 . S
C1052 C1053 1.370 . S
C1052 C1054 1.363 . S
C1052 H1068 0.931 . S
C1053 C1052 1.370 . S
C1053 C1057 1.408 . S
C1054 C1052 1.363 . S
C1054 C1055 1.370 . S
C1054 C1058 1.524 . S
C1055 C1047 1.503 . S
C1055 C1054 1.370 . S
C1055 C1056 1.403 . S
C1056 C1055 1.403 . S
C1056 C1057 1.404 . S
C1056 C1059 1.539 . S
C1057 C1053 1.408 . S
C1057 C1056 1.404 . S
C1057 H1069 0.930 . S
C1058 C1054 1.524 . S
C1058 H1070 0.956 . S
C1058 H1071 0.961 . S
C1058 H1072 0.961 . S
C1059 C1056 1.539 . S
C1059 H1073 0.958 . S
C1059 H1074 0.961 . S
C1059 H1075 0.960 . S
H1060 C1044 0.931 . S
H1061 C1049 0.929 . S
H1062 C1050 0.960 . S
H1063 C1050 0.962 . S
H1064 C1050 0.960 1_565 S
H1065 C1051 0.961 . S
H1066 C1051 0.961 . S
H1067 C1051 0.961 . S
H1068 C1052 0.931 . S
H1069 C1057 0.930 . S
H1070 C1058 0.956 . S
H1071 C1058 0.961 . S
H1072 C1058 0.961 . S
H1073 C1059 0.958 . S
H1074 C1059 0.961 . S
H1075 C1059 0.960 . S
C1076 C1077 1.391 . S
C1076 C1078 1.394 . S
C1076 H1092 0.931 1_455 S
C1077 C1076 1.391 . S
C1077 C1081 1.376 . S
C1078 C1076 1.394 . S
C1078 C1079 1.369 . S
C1078 C1082 1.531 . S
C1079 C1078 1.369 . S
C1079 C1080 1.410 . S
C1079 C1087 1.503 . S
C1080 C1079 1.410 . S
C1080 C1081 1.392 . S
C1080 C1083 1.511 . S
C1081 C1077 1.376 . S
C1081 C1080 1.392 . S
C1081 H1093 0.929 . S
C1082 C1078 1.531 . S
C1082 H1094 0.960 . S
C1082 H1095 0.962 . S
C1082 H1096 0.960 1_455 S
C1083 C1080 1.511 . S
C1083 H1097 0.961 . S
C1083 H1098 0.961 . S
C1083 H1099 0.961 . S
C1084 C1085 1.370 . S
C1084 C1086 1.363 . S
C1084 H1100 0.931 . S
C1085 C1084 1.370 . S
C1085 C1089 1.408 . S
C1086 C1084 1.363 . S
C1086 C1087 1.370 . S
C1086 C1090 1.524 . S
C1087 C1079 1.503 . S
C1087 C1086 1.370 . S
C1087 C1088 1.403 . S
C1088 C1087 1.403 . S
C1088 C1089 1.404 . S
C1088 C1091 1.539 . S
C1089 C1085 1.408 . S
C1089 C1088 1.404 . S
C1089 H1101 0.930 . S
C1090 C1086 1.524 . S
C1090 H1102 0.956 . S
C1090 H1103 0.961 . S
C1090 H1104 0.961 . S
C1091 C1088 1.539 . S
C1091 H1105 0.958 . S
C1091 H1106 0.961 . S
C1091 H1107 0.960 . S
H1092 C1076 0.931 1_655 S
H1093 C1081 0.929 . S
H1094 C1082 0.960 . S
H1095 C1082 0.962 . S
H1096 C1082 0.960 1_655 S
H1097 C1083 0.961 . S
H1098 C1083 0.961 . S
H1099 C1083 0.961 . S
H1100 C1084 0.931 . S
H1101 C1089 0.930 . S
H1102 C1090 0.956 . S
H1103 C1090 0.961 . S
H1104 C1090 0.961 . S
H1105 C1091 0.958 . S
H1106 C1091 0.961 . S
H1107 C1091 0.960 . S
C1108 C1109 1.391 . S
C1108 C1110 1.394 . S
C1108 H1124 0.931 . S
C1109 C1108 1.391 . S
C1109 C1113 1.376 . S
C1110 C1108 1.394 . S
C1110 C1111 1.369 . S
C1110 C1114 1.531 . S
C1111 C1110 1.369 . S
C1111 C1112 1.410 . S
C1111 C1119 1.503 . S
C1112 C1111 1.410 . S
C1112 C1113 1.392 . S
C1112 C1115 1.511 . S
C1113 C1109 1.376 . S
C1113 C1112 1.392 . S
C1113 H1125 0.929 . S
C1114 C1110 1.531 . S
C1114 H1126 0.960 . S
C1114 H1127 0.962 . S
C1114 H1128 0.960 . S
C1115 C1112 1.511 . S
C1115 H1129 0.961 . S
C1115 H1130 0.961 . S
C1115 H1131 0.961 . S
C1116 C1117 1.370 . S
C1116 C1118 1.363 . S
C1116 H1132 0.931 . S
C1117 C1116 1.370 . S
C1117 C1121 1.408 . S
C1118 C1116 1.363 . S
C1118 C1119 1.370 . S
C1118 C1122 1.524 . S
C1119 C1111 1.503 . S
C1119 C1118 1.370 . S
C1119 C1120 1.403 . S
C1120 C1119 1.403 . S
C1120 C1121 1.404 . S
C1120 C1123 1.539 . S
C1121 C1117 1.408 . S
C1121 C1120 1.404 . S
C1121 H1133 0.930 . S
C1122 C1118 1.524 . S
C1122 H1134 0.956 . S
C1122 H1135 0.961 . S
C1122 H1136 0.961 . S
C1123 C1120 1.539 . S
C1123 H1137 0.958 . S
C1123 H1138 0.961 . S
C1123 H1139 0.960 . S
H1124 C1108 0.931 . S
H1125 C1113 0.929 . S
H1126 C1114 0.960 . S
H1127 C1114 0.962 . S
H1128 C1114 0.960 . S
H1129 C1115 0.961 . S
H1130 C1115 0.961 . S
H1131 C1115 0.961 . S
H1132 C1116 0.931 . S
H1133 C1121 0.930 . S
H1134 C1122 0.956 . S
H1135 C1122 0.961 . S
H1136 C1122 0.961 . S
H1137 C1123 0.958 . S
H1138 C1123 0.961 . S
H1139 C1123 0.960 . S
C1140 C1141 1.391 . S
C1140 C1142 1.394 . S
C1140 H1156 0.931 . S
C1141 C1140 1.391 . S
C1141 C1145 1.376 . S
C1142 C1140 1.394 . S
C1142 C1143 1.369 . S
C1142 C1146 1.531 . S
C1143 C1142 1.369 . S
C1143 C1144 1.410 . S
C1143 C1151 1.503 . S
C1144 C1143 1.410 . S
C1144 C1145 1.392 . S
C1144 C1147 1.511 . S
C1145 C1141 1.376 . S
C1145 C1144 1.392 . S
C1145 H1157 0.929 . S
C1146 C1142 1.531 . S
C1146 H1158 0.960 . S
C1146 H1159 0.962 . S
C1146 H1160 0.960 . S
C1147 C1144 1.511 . S
C1147 H1161 0.961 . S
C1147 H1162 0.961 . S
C1147 H1163 0.961 . S
C1148 C1149 1.370 . S
C1148 C1150 1.363 . S
C1148 H1164 0.931 . S
C1149 C1148 1.370 . S
C1149 C1153 1.408 . S
C1150 C1148 1.363 . S
C1150 C1151 1.370 . S
C1150 C1154 1.524 . S
C1151 C1143 1.503 . S
C1151 C1150 1.370 . S
C1151 C1152 1.403 . S
C1152 C1151 1.403 . S
C1152 C1153 1.404 . S
C1152 C1155 1.539 . S
C1153 C1149 1.408 . S
C1153 C1152 1.404 . S
C1153 H1165 0.930 . S
C1154 C1150 1.524 . S
C1154 H1166 0.956 . S
C1154 H1167 0.961 . S
C1154 H1168 0.961 . S
C1155 C1152 1.539 . S
C1155 H1169 0.958 . S
C1155 H1170 0.961 . S
C1155 H1171 0.960 . S
H1156 C1140 0.931 . S
H1157 C1145 0.929 . S
H1158 C1146 0.960 . S
H1159 C1146 0.962 . S
H1160 C1146 0.960 . S
H1161 C1147 0.961 . S
H1162 C1147 0.961 . S
H1163 C1147 0.961 . S
H1164 C1148 0.931 . S
H1165 C1153 0.930 . S
H1166 C1154 0.956 . S
H1167 C1154 0.961 . S
H1168 C1154 0.961 . S
H1169 C1155 0.958 . S
H1170 C1155 0.961 . S
H1171 C1155 0.960 . S
C1172 C1173 1.391 . S
C1172 C1174 1.394 . S
C1172 H1188 0.931 . S
C1173 C1172 1.391 . S
C1173 C1177 1.376 . S
C1174 C1172 1.394 . S
C1174 C1175 1.369 . S
C1174 C1178 1.531 . S
C1175 C1174 1.369 . S
C1175 C1176 1.410 . S
C1175 C1183 1.503 . S
C1176 C1175 1.410 . S
C1176 C1177 1.392 . S
C1176 C1179 1.511 . S
C1177 C1173 1.376 . S
C1177 C1176 1.392 . S
C1177 H1189 0.929 . S
C1178 C1174 1.531 . S
C1178 H1190 0.960 . S
C1178 H1191 0.962 . S
C1178 H1192 0.960 . S
C1179 C1176 1.511 . S
C1179 H1193 0.961 . S
C1179 H1194 0.961 . S
C1179 H1195 0.961 . S
C1180 C1181 1.370 . S
C1180 C1182 1.363 . S
C1180 H1196 0.931 . S
C1181 C1180 1.370 . S
C1181 C1185 1.408 . S
C1182 C1180 1.363 . S
C1182 C1183 1.370 . S
C1182 C1186 1.524 . S
C1183 C1175 1.503 . S
C1183 C1182 1.370 . S
C1183 C1184 1.403 . S
C1184 C1183 1.403 . S
C1184 C1185 1.404 . S
C1184 C1187 1.539 . S
C1185 C1181 1.408 . S
C1185 C1184 1.404 . S
C1185 H1197 0.930 . S
C1186 C1182 1.524 . S
C1186 H1198 0.956 . S
C1186 H1199 0.961 . S
C1186 H1200 0.961 . S
C1187 C1184 1.539 . S
C1187 H1201 0.958 . S
C1187 H1202 0.961 . S
C1187 H1203 0.960 . S
H1188 C1172 0.931 . S
H1189 C1177 0.929 . S
H1190 C1178 0.960 . S
H1191 C1178 0.962 . S
H1192 C1178 0.960 . S
H1193 C1179 0.961 . S
H1194 C1179 0.961 . S
H1195 C1179 0.961 . S
H1196 C1180 0.931 . S
H1197 C1185 0.930 . S
H1198 C1186 0.956 . S
H1199 C1186 0.961 . S
H1200 C1186 0.961 . S
H1201 C1187 0.958 . S
H1202 C1187 0.961 . S
H1203 C1187 0.960 . S
C1204 C1205 1.391 . S
C1204 C1206 1.394 . S
C1204 H1220 0.931 . S
C1205 C1204 1.391 . S
C1205 C1209 1.376 . S
C1206 C1204 1.394 . S
C1206 C1207 1.369 . S
C1206 C1210 1.531 . S
C1207 C1206 1.369 . S
C1207 C1208 1.410 . S
C1207 C1215 1.503 . S
C1208 C1207 1.410 . S
C1208 C1209 1.392 . S
C1208 C1211 1.511 . S
C1209 C1205 1.376 . S
C1209 C1208 1.392 . S
C1209 H1221 0.929 . S
C1210 C1206 1.531 . S
C1210 H1222 0.960 . S
C1210 H1223 0.962 . S
C1210 H1224 0.960 . S
C1211 C1208 1.511 . S
C1211 H1225 0.961 . S
C1211 H1226 0.961 . S
C1211 H1227 0.961 . S
C1212 C1213 1.370 . S
C1212 C1214 1.363 . S
C1212 H1228 0.931 . S
C1213 C1212 1.370 . S
C1213 C1217 1.408 . S
C1214 C1212 1.363 . S
C1214 C1215 1.370 . S
C1214 C1218 1.524 . S
C1215 C1207 1.503 . S
C1215 C1214 1.370 . S
C1215 C1216 1.403 . S
C1216 C1215 1.403 . S
C1216 C1217 1.404 . S
C1216 C1219 1.539 . S
C1217 C1213 1.408 . S
C1217 C1216 1.404 . S
C1217 H1229 0.930 . S
C1218 C1214 1.524 . S
C1218 H1230 0.956 . S
C1218 H1231 0.961 . S
C1218 H1232 0.961 . S
C1219 C1216 1.539 . S
C1219 H1233 0.958 . S
C1219 H1234 0.961 . S
C1219 H1235 0.960 . S
H1220 C1204 0.931 . S
H1221 C1209 0.929 . S
H1222 C1210 0.960 . S
H1223 C1210 0.962 . S
H1224 C1210 0.960 . S
H1225 C1211 0.961 . S
H1226 C1211 0.961 . S
H1227 C1211 0.961 . S
H1228 C1212 0.931 . S
H1229 C1217 0.930 . S
H1230 C1218 0.956 . S
H1231 C1218 0.961 . S
H1232 C1218 0.961 . S
H1233 C1219 0.958 . S
H1234 C1219 0.961 . S
H1235 C1219 0.960 . S
C1236 C1237 1.391 1_556 S
C1236 C1238 1.394 . S
C1236 H1252 0.931 . S
C1237 C1236 1.391 1_554 S
C1237 C1241 1.376 . S
C1238 C1236 1.394 . S
C1238 C1239 1.369 1_556 S
C1238 C1242 1.531 . S
C1239 C1238 1.369 1_554 S
C1239 C1240 1.410 . S
C1239 C1247 1.503 1_544 S
C1240 C1239 1.410 . S
C1240 C1241 1.392 . S
C1240 C1243 1.511 . S
C1241 C1237 1.376 . S
C1241 C1240 1.392 . S
C1241 H1253 0.929 . S
C1242 C1238 1.531 . S
C1242 H1254 0.960 . S
C1242 H1255 0.962 . S
C1242 H1256 0.960 . S
C1243 C1240 1.511 . S
C1243 H1257 0.961 . S
C1243 H1258 0.961 1_445 S
C1243 H1259 0.961 . S
C1244 C1245 1.370 . S
C1244 C1246 1.363 . S
C1244 H1260 0.931 . S
C1245 C1244 1.370 . S
C1245 C1249 1.408 . S
C1246 C1244 1.363 . S
C1246 C1247 1.370 1_655 S
C1246 C1250 1.524 . S
C1247 C1239 1.503 1_566 S
C1247 C1246 1.370 1_455 S
C1247 C1248 1.403 . S
C1248 C1247 1.403 . S
C1248 C1249 1.404 1_455 S
C1248 C1251 1.539 1_556 S
C1249 C1245 1.408 . S
C1249 C1248 1.404 1_655 S
C1249 H1261 0.930 1_655 S
C1250 C1246 1.524 . S
C1250 H1262 0.956 1_565 S
C1250 H1263 0.971 1_556 S
C1250 H1264 0.961 . S
C1251 C1248 1.539 1_554 S
C1251 H1265 0.958 1_554 S
C1251 H1266 0.961 . S
C1251 H1267 0.960 . S
H1252 C1236 0.931 . S
H1253 C1241 0.929 . S
H1254 C1242 0.960 . S
H1255 C1242 0.962 . S
H1256 C1242 0.960 . S
H1257 C1243 0.961 . S
H1258 C1243 0.961 1_665 S
H1259 C1243 0.961 . S
H1260 C1244 0.931 . S
H1261 C1249 0.930 1_455 S
H1262 C1250 0.956 1_545 S
H1263 C1250 0.971 1_554 S
H1264 C1250 0.961 . S
H1265 C1251 0.958 1_556 S
H1266 C1251 0.961 . S
H1267 C1251 0.960 . S
C1268 C1269 1.391 . S
C1268 C1270 1.394 1_565 S
C1268 H1284 0.931 . S
C1269 C1268 1.391 . S
C1269 C1273 1.376 . S
C1270 C1268 1.394 1_545 S
C1270 C1271 1.369 . S
C1270 C1274 1.531 . S
C1271 C1270 1.369 . S
C1271 C1272 1.410 1_545 S
C1271 C1279 1.503 . S
C1272 C1271 1.410 1_565 S
C1272 C1273 1.392 . S
C1272 C1275 1.511 1_455 S
C1273 C1269 1.376 . S
C1273 C1272 1.392 . S
C1273 H1285 0.929 . S
C1274 C1270 1.531 . S
C1274 H1286 0.960 . S
C1274 H1287 0.962 . S
C1274 H1288 0.960 . S
C1275 C1272 1.511 1_655 S
C1275 H1289 0.961 . S
C1275 H1290 0.961 . S
C1275 H1291 0.961 . S
C1276 C1277 1.370 . S
C1276 C1278 1.363 . S
C1276 H1292 0.931 . S
C1277 C1276 1.370 . S
C1277 C1281 1.408 . S
C1278 C1276 1.363 . S
C1278 C1279 1.370 1_655 S
C1278 C1282 1.524 1_545 S
C1279 C1271 1.503 . S
C1279 C1278 1.370 1_455 S
C1279 C1280 1.403 . S
C1280 C1279 1.403 . S
C1280 C1281 1.404 1_455 S
C1280 C1283 1.539 . S
C1281 C1277 1.408 . S
C1281 C1280 1.404 1_655 S
C1281 H1293 0.930 . S
C1282 C1278 1.524 1_565 S
C1282 H1294 0.956 . S
C1282 H1295 0.961 . S
C1282 H1296 0.961 . S
C1283 C1280 1.539 . S
C1283 H1297 0.958 . S
C1283 H1298 0.961 . S
C1283 H1299 0.960 . S
H1284 C1268 0.931 . S
H1285 C1273 0.929 . S
H1286 C1274 0.960 . S
H1287 C1274 0.962 . S
H1288 C1274 0.960 . S
H1289 C1275 0.961 . S
H1290 C1275 0.961 . S
H1291 C1275 0.961 . S
H1292 C1276 0.931 . S
H1293 C1281 0.930 . S
H1294 C1282 0.956 . S
H1295 C1282 0.961 . S
H1296 C1282 0.961 . S
H1297 C1283 0.958 . S
H1298 C1283 0.961 . S
H1299 C1283 0.960 . S
C1300 C1301 1.391 . S
C1300 C1302 1.394 . S
C1300 H1316 0.931 . S
C1301 C1300 1.391 . S
C1301 C1305 1.376 . S
C1302 C1300 1.394 . S
C1302 C1303 1.369 . S
C1302 C1306 1.535 . S
C1303 C1302 1.369 . S
C1303 C1304 1.410 . S
C1303 C1311 1.503 1_455 S
C1304 C1303 1.410 . S
C1304 C1305 1.392 . S
C1304 C1307 1.511 . S
C1305 C1301 1.376 . S
C1305 C1304 1.392 . S
C1305 H1317 0.929 . S
C1306 C1302 1.535 . S
C1306 H1318 0.965 . S
C1306 H1319 0.952 1_545 S
C1306 H1320 0.961 . S
C1307 C1304 1.511 . S
C1307 H1321 0.961 . S
C1307 H1322 0.961 1_455 S
C1307 H1323 0.961 . S
C1308 C1309 1.370 . S
C1308 C1310 1.363 . S
C1308 H1324 0.931 . S
C1309 C1308 1.370 . S
C1309 C1313 1.408 . S
C1310 C1308 1.363 . S
C1310 C1311 1.370 1_565 S
C1310 C1314 1.524 . S
C1311 C1303 1.503 1_655 S
C1311 C1310 1.370 1_545 S
C1311 C1312 1.403 . S
C1312 C1311 1.403 . S
C1312 C1313 1.404 1_545 S
C1312 C1315 1.539 . S
C1313 C1309 1.408 . S
C1313 C1312 1.404 1_565 S
C1313 H1325 0.930 1_565 S
C1314 C1310 1.524 . S
C1314 H1326 0.956 . S
C1314 H1327 0.961 . S
C1314 H1328 0.961 . S
C1315 C1312 1.539 . S
C1315 H1329 0.958 . S
C1315 H1330 0.961 . S
C1315 H1331 0.960 1_655 S
H1316 C1300 0.931 . S
H1317 C1305 0.929 . S
H1318 C1306 0.965 . S
H1319 C1306 0.952 1_565 S
H1320 C1306 0.961 . S
H1321 C1307 0.961 . S
H1322 C1307 0.961 1_655 S
H1323 C1307 0.961 . S
H1324 C1308 0.931 . S
H1325 C1313 0.930 1_545 S
H1326 C1314 0.956 . S
H1327 C1314 0.961 . S
H1328 C1314 0.961 . S
H1329 C1315 0.958 . S
H1330 C1315 0.961 . S
H1331 C1315 0.960 1_455 S
C1332 C1333 1.391 . S
C1332 C1334 1.394 . S
C1332 H1348 0.931 . S
C1333 C1332 1.391 . S
C1333 C1337 1.376 . S
C1334 C1332 1.394 . S
C1334 C1335 1.369 . S
C1334 C1338 1.531 . S
C1335 C1334 1.369 . S
C1335 C1336 1.410 1_455 S
C1335 C1343 1.503 1_445 S
C1336 C1335 1.410 1_655 S
C1336 C1337 1.392 1_655 S
C1336 C1339 1.511 . S
C1337 C1333 1.376 . S
C1337 C1336 1.392 1_455 S
C1337 H1349 0.929 1_455 S
C1338 C1334 1.531 . S
C1338 H1350 0.960 1_545 S
C1338 H1351 0.962 . S
C1338 H1352 0.960 . S
C1339 C1336 1.511 . S
C1339 H1353 0.961 . S
C1339 H1354 0.961 . S
C1339 H1355 0.961 . S
C1340 C1341 1.370 . S
C1340 C1342 1.363 . S
C1340 H1356 0.931 . S
C1341 C1340 1.370 . S
C1341 C1345 1.408 . S
C1342 C1340 1.363 . S
C1342 C1343 1.370 . S
C1342 C1346 1.524 . S
C1343 C1335 1.503 1_665 S
C1343 C1342 1.370 . S
C1343 C1344 1.403 . S
C1344 C1343 1.403 . S
C1344 C1345 1.404 . S
C1344 C1347 1.539 1_655 S
C1345 C1341 1.408 . S
C1345 C1344 1.404 . S
C1345 H1357 0.930 . S
C1346 C1342 1.524 . S
C1346 H1358 0.956 . S
C1346 H1359 0.961 . S
C1346 H1360 0.961 . S
C1347 C1344 1.539 1_455 S
C1347 H1361 0.958 . S
C1347 H1362 0.961 . S
C1347 H1363 0.960 1_565 S
H1348 C1332 0.931 . S
H1349 C1337 0.929 1_655 S
H1350 C1338 0.960 1_565 S
H1351 C1338 0.962 . S
H1352 C1338 0.960 . S
H1353 C1339 0.961 . S
H1354 C1339 0.961 . S
H1355 C1339 0.961 . S
H1356 C1340 0.931 . S
H1357 C1345 0.930 . S
H1358 C1346 0.956 . S
H1359 C1346 0.961 . S
H1360 C1346 0.961 . S
H1361 C1347 0.958 . S
H1362 C1347 0.961 . S
H1363 C1347 0.960 1_545 S
C1364 C1365 1.391 . S
C1364 C1366 1.394 1_455 S
C1364 H1380 0.931 1_455 S
C1365 C1364 1.391 . S
C1365 C1369 1.376 . S
C1366 C1364 1.394 1_655 S
C1366 C1367 1.369 1_655 S
C1366 C1370 1.531 . S
C1367 C1366 1.369 1_455 S
C1367 C1368 1.410 1_565 S
C1367 C1375 1.503 1_465 S
C1368 C1367 1.410 1_545 S
C1368 C1369 1.392 1_545 S
C1368 C1371 1.511 . S
C1369 C1365 1.376 . S
C1369 C1368 1.392 1_565 S
C1369 H1381 0.929 . S
C1370 C1366 1.531 . S
C1370 H1382 0.960 . S
C1370 H1383 0.962 . S
C1370 H1384 0.960 . S
C1371 C1368 1.511 . S
C1371 H1385 0.961 . S
C1371 H1386 0.961 . S
C1371 H1387 0.961 . S
C1372 C1373 1.370 . S
C1372 C1374 1.363 . S
C1372 H1388 0.931 . S
C1373 C1372 1.370 . S
C1373 C1377 1.408 . S
C1374 C1372 1.363 . S
C1374 C1375 1.370 . S
C1374 C1378 1.524 1_545 S
C1375 C1367 1.503 1_645 S
C1375 C1374 1.370 . S
C1375 C1376 1.403 . S
C1376 C1375 1.403 . S
C1376 C1377 1.404 . S
C1376 C1379 1.539 . S
C1377 C1373 1.408 . S
C1377 C1376 1.404 . S
C1377 H1389 0.930 . S
C1378 C1374 1.524 1_565 S
C1378 H1390 0.956 . S
C1378 H1391 0.961 1_665 S
C1378 H1392 0.961 1_565 S
C1379 C1376 1.539 . S
C1379 H1393 0.958 1_545 S
C1379 H1394 0.961 . S
C1379 H1395 0.960 . S
H1380 C1364 0.931 1_655 S
H1381 C1369 0.929 . S
H1382 C1370 0.960 . S
H1383 C1370 0.962 . S
H1384 C1370 0.960 . S
H1385 C1371 0.961 . S
H1386 C1371 0.961 . S
H1387 C1371 0.961 . S
H1388 C1372 0.931 . S
H1389 C1377 0.930 . S
H1390 C1378 0.956 . S
H1391 C1378 0.961 1_445 S
H1392 C1378 0.961 1_545 S
H1393 C1379 0.958 1_565 S
H1394 C1379 0.961 . S
H1395 C1379 0.960 . S
C1396 C1397 1.391 . S
C1396 C1398 1.394 1_545 S
C1396 H1412 0.924 1_545 S
C1397 C1396 1.391 . S
C1397 C1401 1.376 . S
C1398 C1396 1.394 1_565 S
C1398 C1399 1.369 1_565 S
C1398 C1402 1.531 . S
C1399 C1398 1.369 1_545 S
C1399 C1400 1.410 . S
C1399 C1407 1.503 1_445 S
C1400 C1399 1.410 . S
C1400 C1401 1.392 . S
C1400 C1403 1.511 . S
C1401 C1397 1.376 . S
C1401 C1400 1.392 . S
C1401 H1413 0.929 . S
C1402 C1398 1.531 . S
C1402 H1414 0.960 1_455 S
C1402 H1415 0.962 . S
C1402 H1416 0.960 . S
C1403 C1400 1.511 . S
C1403 H1417 0.961 . S
C1403 H1418 0.961 . S
C1403 H1419 0.961 . S
C1404 C1405 1.370 . S
C1404 C1406 1.363 . S
C1404 H1420 0.931 . S
C1405 C1404 1.370 . S
C1405 C1409 1.408 . S
C1406 C1404 1.363 . S
C1406 C1407 1.370 . S
C1406 C1410 1.524 . S
C1407 C1399 1.503 1_665 S
C1407 C1406 1.370 . S
C1407 C1408 1.403 . S
C1408 C1407 1.403 . S
C1408 C1409 1.404 . S
C1408 C1411 1.539 1_565 S
C1409 C1405 1.408 . S
C1409 C1408 1.404 . S
C1409 H1421 0.930 . S
C1410 C1406 1.524 . S
C1410 H1422 0.956 1_655 S
C1410 H1423 0.961 1_655 S
C1410 H1424 0.961 . S
C1411 C1408 1.539 1_545 S
C1411 H1425 0.958 . S
C1411 H1426 0.961 . S
C1411 H1427 0.960 . S
H1412 C1396 0.924 1_565 S
H1413 C1401 0.929 . S
H1414 C1402 0.960 1_655 S
H1415 C1402 0.962 . S
H1416 C1402 0.960 . S
H1417 C1403 0.961 . S
H1418 C1403 0.961 . S
H1419 C1403 0.961 . S
H1420 C1404 0.931 . S
H1421 C1409 0.930 . S
H1422 C1410 0.956 1_455 S
H1423 C1410 0.961 1_455 S
H1424 C1410 0.961 . S
H1425 C1411 0.958 . S
H1426 C1411 0.961 . S
H1427 C1411 0.960 . S
C277 C182 1.778 . S
C285 C20 1.809 . S
C309 C205 1.802 . S
C317 C43 1.801 . S
C341 C228 1.799 . S
C349 C66 1.801 . S
C373 C251 1.783 . S
C381 C89 1.807 . S
C405 C274 1.788 . S
C413 C112 1.805 . S
C437 C159 1.795 . S
C445 C135 1.803 . S
C469 C158 1.802 . S
C477 C136 1.795 . S
C501 C181 1.798 . S
C509 C21 1.797 . S
C533 C204 1.803 . S
C541 C44 1.795 . S
C565 C227 1.802 . S
C573 C67 1.796 . S
C597 C250 1.809 . S
C605 C90 1.791 . S
C629 C273 1.796 . S
C637 C113 1.799 . S
C661 C17 1.321 . S
C669 C131 1.308 . S
C693 C40 1.316 1_455 S
C701 C16 1.301 . S
C725 C39 1.274 . S
C733 C63 1.310 1_545 S
C757 C62 1.313 . S
C765 C86 1.319 . S
C789 C85 1.279 . S
C797 C109 1.310 1_655 S
C821 C132 1.316 1_565 S
C829 C108 1.301 . S
C853 C155 1.315 . S
C861 C177 1.306 . S
C885 C178 1.302 1_455 S
C893 C200 1.290 . S
C917 C201 1.318 1_545 S
C925 C223 1.304 . S
C949 C224 1.310 . S
C957 C246 1.294 . S
C981 C247 1.320 1_655 S
C989 C269 1.309 . S
C1013 C154 1.293 . S
C1021 C270 1.315 1_565 S
C1045 C202 0.984 . S
C1053 C18 0.979 . S
C1077 C41 0.987 . S
C1085 C225 0.978 . S
C1109 C64 0.977 . S
C1117 C248 0.973 . S
C1141 C87 0.987 . S
C1149 C271 0.970 . S
C1173 C110 0.979 . S
C1181 C156 0.972 . S
C1205 C179 0.960 . S
C1213 C133 0.986 . S
C1237 C19 0.688 . S
C1245 C180 0.723 . S
C1269 C203 0.670 . S
C1277 C42 0.738 . S
C1301 C226 0.722 . S
C1309 C65 0.712 . S
C1333 C249 0.798 . S
C1341 C88 0.721 . S
C1365 C111 0.687 . S
C1373 C272 0.759 . S
C1397 C134 0.728 . S
C1405 C157 0.763 . S
