# Generated by pormake.
# Topology uoe, (4)-cn, num edge types: 1
# Building blocks:
#     Node 0, Type 0, BuildingBlock: GALJAG_clean_sbu_0, # of connection points: 4
#     Node 1, Type 0, BuildingBlock: GALJAG_clean_sbu_0, # of connection points: 4
#     Node 2, Type 0, BuildingBlock: GALJAG_clean_sbu_0, # of connection points: 4
#     Node 3, Type 0, BuildingBlock: GALJAG_clean_sbu_0, # of connection points: 4
#     Node 4, Type 0, BuildingBlock: GALJAG_clean_sbu_0, # of connection points: 4
#     Node 5, Type 0, BuildingBlock: GALJAG_clean_sbu_0, # of connection points: 4
#     Node 6, Type 0, BuildingBlock: GALJAG_clean_sbu_0, # of connection points: 4
#     Node 7, Type 0, BuildingBlock: GALJAG_clean_sbu_0, # of connection points: 4
#     Node 8, Type 0, BuildingBlock: GALJAG_clean_sbu_0, # of connection points: 4
#     Node 9, Type 0, BuildingBlock: GALJAG_clean_sbu_0, # of connection points: 4
#     Node 10, Type 0, BuildingBlock: GALJAG_clean_sbu_0, # of connection points: 4
#     Node 11, Type 0, BuildingBlock: GALJAG_clean_sbu_0, # of connection points: 4
#     Node 12, Type 0, BuildingBlock: GALJAG_clean_sbu_0, # of connection points: 4
#     Node 13, Type 0, BuildingBlock: GALJAG_clean_sbu_0, # of connection points: 4
#     Node 14, Type 0, BuildingBlock: GALJAG_clean_sbu_0, # of connection points: 4
#     Node 15, Type 0, BuildingBlock: GALJAG_clean_sbu_0, # of connection points: 4
#     Node 16, Type 0, BuildingBlock: GALJAG_clean_sbu_0, # of connection points: 4
#     Node 17, Type 0, BuildingBlock: GALJAG_clean_sbu_0, # of connection points: 4
#     Node 18, Type 0, BuildingBlock: GALJAG_clean_sbu_0, # of connection points: 4
#     Node 19, Type 0, BuildingBlock: GALJAG_clean_sbu_0, # of connection points: 4
#     Node 20, Type 0, BuildingBlock: GALJAG_clean_sbu_0, # of connection points: 4
#     Node 21, Type 0, BuildingBlock: GALJAG_clean_sbu_0, # of connection points: 4
#     Node 22, Type 0, BuildingBlock: GALJAG_clean_sbu_0, # of connection points: 4
#     Node 23, Type 0, BuildingBlock: GALJAG_clean_sbu_0, # of connection points: 4
#     Node 24, Type 0, BuildingBlock: GALJAG_clean_sbu_0, # of connection points: 4
#     Node 25, Type 0, BuildingBlock: GALJAG_clean_sbu_0, # of connection points: 4
#     Node 26, Type 0, BuildingBlock: GALJAG_clean_sbu_0, # of connection points: 4
#     Node 27, Type 0, BuildingBlock: GALJAG_clean_sbu_0, # of connection points: 4
#     Node 28, Type 0, BuildingBlock: GALJAG_clean_sbu_0, # of connection points: 4
#     Node 29, Type 0, BuildingBlock: GALJAG_clean_sbu_0, # of connection points: 4
#     Node 30, Type 0, BuildingBlock: GALJAG_clean_sbu_0, # of connection points: 4
#     Node 31, Type 0, BuildingBlock: GALJAG_clean_sbu_0, # of connection points: 4
#     Edge 32, Type (0, 0), BuildingBlock: ZUJKAS_clean_linker_0, # of connection points: 2
#     Edge 33, Type (0, 0), BuildingBlock: ZUJKAS_clean_linker_0, # of connection points: 2
#     Edge 34, Type (0, 0), BuildingBlock: ZUJKAS_clean_linker_0, # of connection points: 2
#     Edge 35, Type (0, 0), BuildingBlock: ZUJKAS_clean_linker_0, # of connection points: 2
#     Edge 36, Type (0, 0), BuildingBlock: ZUJKAS_clean_linker_0, # of connection points: 2
#     Edge 37, Type (0, 0), BuildingBlock: ZUJKAS_clean_linker_0, # of connection points: 2
#     Edge 38, Type (0, 0), BuildingBlock: ZUJKAS_clean_linker_0, # of connection points: 2
#     Edge 39, Type (0, 0), BuildingBlock: ZUJKAS_clean_linker_0, # of connection points: 2
#     Edge 40, Type (0, 0), BuildingBlock: ZUJKAS_clean_linker_0, # of connection points: 2
#     Edge 41, Type (0, 0), BuildingBlock: ZUJKAS_clean_linker_0, # of connection points: 2
#     Edge 42, Type (0, 0), BuildingBlock: ZUJKAS_clean_linker_0, # of connection points: 2
#     Edge 43, Type (0, 0), BuildingBlock: ZUJKAS_clean_linker_0, # of connection points: 2
#     Edge 44, Type (0, 0), BuildingBlock: ZUJKAS_clean_linker_0, # of connection points: 2
#     Edge 45, Type (0, 0), BuildingBlock: ZUJKAS_clean_linker_0, # of connection points: 2
#     Edge 46, Type (0, 0), BuildingBlock: ZUJKAS_clean_linker_0, # of connection points: 2
#     Edge 47, Type (0, 0), BuildingBlock: ZUJKAS_clean_linker_0, # of connection points: 2
#     Edge 48, Type (0, 0), BuildingBlock: ZUJKAS_clean_linker_0, # of connection points: 2
#     Edge 49, Type (0, 0), BuildingBlock: ZUJKAS_clean_linker_0, # of connection points: 2
#     Edge 50, Type (0, 0), BuildingBlock: ZUJKAS_clean_linker_0, # of connection points: 2
#     Edge 51, Type (0, 0), BuildingBlock: ZUJKAS_clean_linker_0, # of connection points: 2
#     Edge 52, Type (0, 0), BuildingBlock: ZUJKAS_clean_linker_0, # of connection points: 2
#     Edge 53, Type (0, 0), BuildingBlock: ZUJKAS_clean_linker_0, # of connection points: 2
#     Edge 54, Type (0, 0), BuildingBlock: ZUJKAS_clean_linker_0, # of connection points: 2
#     Edge 55, Type (0, 0), BuildingBlock: ZUJKAS_clean_linker_0, # of connection points: 2
#     Edge 56, Type (0, 0), BuildingBlock: ZUJKAS_clean_linker_0, # of connection points: 2
#     Edge 57, Type (0, 0), BuildingBlock: ZUJKAS_clean_linker_0, # of connection points: 2
#     Edge 58, Type (0, 0), BuildingBlock: ZUJKAS_clean_linker_0, # of connection points: 2
#     Edge 59, Type (0, 0), BuildingBlock: ZUJKAS_clean_linker_0, # of connection points: 2
#     Edge 60, Type (0, 0), BuildingBlock: ZUJKAS_clean_linker_0, # of connection points: 2
#     Edge 61, Type (0, 0), BuildingBlock: ZUJKAS_clean_linker_0, # of connection points: 2
#     Edge 62, Type (0, 0), BuildingBlock: ZUJKAS_clean_linker_0, # of connection points: 2
#     Edge 63, Type (0, 0), BuildingBlock: ZUJKAS_clean_linker_0, # of connection points: 2
#     Edge 64, Type (0, 0), BuildingBlock: ZUJKAS_clean_linker_0, # of connection points: 2
#     Edge 65, Type (0, 0), BuildingBlock: ZUJKAS_clean_linker_0, # of connection points: 2
#     Edge 66, Type (0, 0), BuildingBlock: ZUJKAS_clean_linker_0, # of connection points: 2
#     Edge 67, Type (0, 0), BuildingBlock: ZUJKAS_clean_linker_0, # of connection points: 2
#     Edge 68, Type (0, 0), BuildingBlock: ZUJKAS_clean_linker_0, # of connection points: 2
#     Edge 69, Type (0, 0), BuildingBlock: ZUJKAS_clean_linker_0, # of connection points: 2
#     Edge 70, Type (0, 0), BuildingBlock: ZUJKAS_clean_linker_0, # of connection points: 2
#     Edge 71, Type (0, 0), BuildingBlock: ZUJKAS_clean_linker_0, # of connection points: 2
#     Edge 72, Type (0, 0), BuildingBlock: ZUJKAS_clean_linker_0, # of connection points: 2
#     Edge 73, Type (0, 0), BuildingBlock: ZUJKAS_clean_linker_0, # of connection points: 2
#     Edge 74, Type (0, 0), BuildingBlock: ZUJKAS_clean_linker_0, # of connection points: 2
#     Edge 75, Type (0, 0), BuildingBlock: ZUJKAS_clean_linker_0, # of connection points: 2
#     Edge 76, Type (0, 0), BuildingBlock: ZUJKAS_clean_linker_0, # of connection points: 2
#     Edge 77, Type (0, 0), BuildingBlock: ZUJKAS_clean_linker_0, # of connection points: 2
#     Edge 78, Type (0, 0), BuildingBlock: ZUJKAS_clean_linker_0, # of connection points: 2
#     Edge 79, Type (0, 0), BuildingBlock: ZUJKAS_clean_linker_0, # of connection points: 2
#     Edge 80, Type (0, 0), BuildingBlock: ZUJKAS_clean_linker_0, # of connection points: 2
#     Edge 81, Type (0, 0), BuildingBlock: ZUJKAS_clean_linker_0, # of connection points: 2
#     Edge 82, Type (0, 0), BuildingBlock: ZUJKAS_clean_linker_0, # of connection points: 2
#     Edge 83, Type (0, 0), BuildingBlock: ZUJKAS_clean_linker_0, # of connection points: 2
#     Edge 84, Type (0, 0), BuildingBlock: ZUJKAS_clean_linker_0, # of connection points: 2
#     Edge 85, Type (0, 0), BuildingBlock: ZUJKAS_clean_linker_0, # of connection points: 2
#     Edge 86, Type (0, 0), BuildingBlock: ZUJKAS_clean_linker_0, # of connection points: 2
#     Edge 87, Type (0, 0), BuildingBlock: ZUJKAS_clean_linker_0, # of connection points: 2
#     Edge 88, Type (0, 0), BuildingBlock: ZUJKAS_clean_linker_0, # of connection points: 2
#     Edge 89, Type (0, 0), BuildingBlock: ZUJKAS_clean_linker_0, # of connection points: 2
#     Edge 90, Type (0, 0), BuildingBlock: ZUJKAS_clean_linker_0, # of connection points: 2
#     Edge 91, Type (0, 0), BuildingBlock: ZUJKAS_clean_linker_0, # of connection points: 2
#     Edge 92, Type (0, 0), BuildingBlock: ZUJKAS_clean_linker_0, # of connection points: 2
#     Edge 93, Type (0, 0), BuildingBlock: ZUJKAS_clean_linker_0, # of connection points: 2
#     Edge 94, Type (0, 0), BuildingBlock: ZUJKAS_clean_linker_0, # of connection points: 2
#     Edge 95, Type (0, 0), BuildingBlock: ZUJKAS_clean_linker_0, # of connection points: 2
# Relax obj value: 0.106
# Max RMSD: 0.167
# Mean RMSD: 0.167
data_MOF--net-uoe--node1-GALJAG_clean_sbu_0--edge1-ZUJKAS_clean_linker_0
_symmetry_space_group_name_H-M    P1
_symmetry_Int_Tables_number       1
_symmetry_cell_setting            triclinic
loop_
_symmetry_equiv_pos_as_xyz
'x, y, z'
_cell_length_a     95.448096
_cell_length_b     95.445927
_cell_length_c     36.094686
_cell_angle_alpha  90.008024
_cell_angle_beta   89.996267
_cell_angle_gamma 90.007201
loop_
_atom_site_label
_atom_site_type_symbol
_atom_site_fract_x
_atom_site_fract_y
_atom_site_fract_z
_atom_type_partial_charge
In0 In 0.09749 0.46722 0.06251 0.0
O1 O 0.09473 0.44963 0.10452 0.0
O2 O 0.10587 0.44497 0.05506 0.0
C3 C 0.07031 0.47516 0.06109 0.0
C4 C 0.11185 0.48041 0.11674 0.0
C5 C 0.10608 0.47288 0.99271 0.0
O6 O 0.07392 0.46245 0.06292 0.0
O7 O 0.08036 0.48372 0.05993 0.0
O8 O 0.11096 0.47918 0.02058 0.0
O9 O 0.09717 0.46355 0.00016 0.0
C10 C 0.1016 0.44071 0.08619 0.0
O11 O 0.11736 0.47111 0.09661 0.0
O12 O 0.09938 0.48342 0.1084 0.0
In13 In 0.7857 0.84872 0.30263 0.0
O14 O 0.77164 0.86228 0.33968 0.0
O15 O 0.78154 0.8444 0.36317 0.0
C16 C 0.77903 0.85849 0.23483 0.0
C17 C 0.81099 0.85946 0.31992 0.0
C18 C 0.77828 0.82167 0.29378 0.0
O19 O 0.77118 0.86014 0.26264 0.0
O20 O 0.79036 0.85214 0.2414 0.0
O21 O 0.79097 0.82546 0.29512 0.0
O22 O 0.76952 0.8315 0.29643 0.0
C23 C 0.7737 0.85486 0.36816 0.0
O24 O 0.80906 0.84643 0.31619 0.0
O25 O 0.80037 0.86692 0.31335 0.0
In26 In 0.40115 0.52657 0.56218 0.0
O27 O 0.38193 0.51909 0.59482 0.0
O28 O 0.40206 0.51316 0.6141 0.0
C29 C 0.39288 0.52085 0.49225 0.0
C30 C 0.3951 0.55252 0.58718 0.0
C31 C 0.42846 0.51987 0.55576 0.0
O32 O 0.39111 0.5124 0.51871 0.0
O33 O 0.39854 0.5323 0.50121 0.0
O34 O 0.42429 0.53244 0.55584 0.0
O35 O 0.41888 0.51084 0.55873 0.0
C36 C 0.38901 0.51284 0.61923 0.0
O37 O 0.40619 0.54617 0.59618 0.0
O38 O 0.38746 0.54603 0.56438 0.0
In39 In 0.71409 0.1526 0.80592 0.0
O40 O 0.72753 0.13824 0.84262 0.0
O41 O 0.71686 0.15539 0.86757 0.0
C42 C 0.72082 0.14434 0.73674 0.0
C43 C 0.68812 0.1426 0.81846 0.0
C44 C 0.72316 0.1793 0.80189 0.0
O45 O 0.72788 0.14074 0.76477 0.0
O46 O 0.71023 0.1518 0.74383 0.0
O47 O 0.71026 0.17623 0.802 0.0
O48 O 0.73132 0.16892 0.80348 0.0
C49 C 0.72475 0.14493 0.87196 0.0
O50 O 0.69069 0.15558 0.81747 0.0
O51 O 0.69849 0.13483 0.81161 0.0
In52 In 0.10133 0.52711 0.5494 0.0
O53 O 0.09745 0.55013 0.53428 0.0
O54 O 0.11846 0.54327 0.54127 0.0
C55 C 0.0743 0.51926 0.55472 0.0
C56 C 0.11003 0.51494 0.48594 0.0
C57 C 0.10957 0.52066 0.6189 0.0
O58 O 0.07792 0.53198 0.55275 0.0
O59 O 0.08431 0.51061 0.55424 0.0
O60 O 0.11185 0.5127 0.59163 0.0
O61 O 0.10343 0.53196 0.61094 0.0
C62 C 0.11032 0.55319 0.53303 0.0
O63 O 0.11776 0.5156 0.51427 0.0
O64 O 0.09799 0.52013 0.49003 0.0
In65 In 0.7149 0.84875 0.80456 0.0
O66 O 0.69134 0.84624 0.79432 0.0
O67 O 0.69954 0.86679 0.80095 0.0
C68 C 0.72266 0.82172 0.81141 0.0
C69 C 0.72442 0.85543 0.73659 0.0
C70 C 0.72432 0.85821 0.87034 0.0
O71 O 0.71006 0.82557 0.81506 0.0
O72 O 0.73119 0.83148 0.80463 0.0
O73 O 0.73079 0.86035 0.84036 0.0
O74 O 0.71295 0.85156 0.86697 0.0
C75 C 0.68899 0.85927 0.79412 0.0
O76 O 0.72744 0.86266 0.76479 0.0
O77 O 0.71688 0.84486 0.74299 0.0
In78 In 0.40207 0.46915 0.04677 0.0
O79 O 0.40646 0.44828 0.01753 0.0
O80 O 0.38761 0.45026 0.04832 0.0
C81 C 0.42935 0.47619 0.05264 0.0
C82 C 0.39055 0.48169 0.987 0.0
C83 C 0.39378 0.47667 0.11545 0.0
O84 O 0.42527 0.4636 0.05436 0.0
O85 O 0.41969 0.48505 0.04812 0.0
O86 O 0.39177 0.48429 0.0874 0.0
O87 O 0.39976 0.46516 0.10876 0.0
C88 C 0.39506 0.44272 0.02744 0.0
O89 O 0.38322 0.47704 0.01331 0.0
O90 O 0.40357 0.48033 0.99137 0.0
In91 In 0.78525 0.15433 0.30244 0.0
O92 O 0.7722 0.13983 0.26529 0.0
O93 O 0.78361 0.15648 0.24025 0.0
C94 C 0.77629 0.14629 0.37006 0.0
C95 C 0.81123 0.14385 0.29283 0.0
C96 C 0.77724 0.18141 0.30541 0.0
O97 O 0.76983 0.14307 0.34072 0.0
O98 O 0.78736 0.15327 0.36511 0.0
O99 O 0.78968 0.17764 0.31218 0.0
O100 O 0.76899 0.17156 0.29731 0.0
C101 C 0.77561 0.14611 0.23578 0.0
O102 O 0.80867 0.1568 0.29038 0.0
O103 O 0.80084 0.13641 0.30171 0.0
In104 In 0.90041 0.5309 0.05415 0.0
O105 O 0.88628 0.51728 0.01728 0.0
O106 O 0.90245 0.52927 0.99199 0.0
C107 C 0.89233 0.52344 0.12295 0.0
C108 C 0.88976 0.55671 0.04308 0.0
C109 C 0.92737 0.52253 0.05757 0.0
O110 O 0.88899 0.51644 0.09457 0.0
O111 O 0.89943 0.53431 0.11641 0.0
O112 O 0.92392 0.5353 0.0592 0.0
O113 O 0.91726 0.51412 0.05426 0.0
C114 C 0.89229 0.52099 0.98764 0.0
O115 O 0.90281 0.55442 0.04316 0.0
O116 O 0.88229 0.54615 0.05035 0.0
In117 In 0.22179 0.15325 0.79589 0.0
O118 O 0.22848 0.13366 0.76335 0.0
O119 O 0.23441 0.1536 0.74261 0.0
C120 C 0.22887 0.14536 0.86533 0.0
C121 C 0.1952 0.14709 0.77568 0.0
C122 C 0.22931 0.18047 0.79971 0.0
O123 O 0.23583 0.14165 0.83726 0.0
O124 O 0.21829 0.1528 0.85823 0.0
O125 O 0.21669 0.17661 0.8026 0.0
O126 O 0.23796 0.17064 0.79496 0.0
C127 C 0.23444 0.14053 0.73795 0.0
O128 O 0.20207 0.15693 0.76101 0.0
O129 O 0.2015 0.14087 0.80159 0.0
In130 In 0.59949 0.46812 0.55319 0.0
O131 O 0.61838 0.47175 0.51515 0.0
O132 O 0.60102 0.48542 0.50992 0.0
C133 C 0.6076 0.47296 0.6239 0.0
C134 C 0.60333 0.44174 0.52825 0.0
C135 C 0.57247 0.47627 0.55423 0.0
O136 O 0.61362 0.47856 0.59656 0.0
O137 O 0.5978 0.4647 0.6155 0.0
O138 O 0.57598 0.4635 0.55361 0.0
O139 O 0.58257 0.4848 0.55446 0.0
C140 C 0.61292 0.48189 0.49813 0.0
O141 O 0.594 0.44975 0.51538 0.0
O142 O 0.61024 0.44682 0.55487 0.0
In143 In 0.28046 0.84914 0.30742 0.0
O144 O 0.27662 0.86783 0.26875 0.0
O145 O 0.26338 0.85016 0.26341 0.0
C146 C 0.27607 0.85784 0.37778 0.0
C147 C 0.30688 0.85282 0.28258 0.0
C148 C 0.27182 0.8223 0.31019 0.0
O149 O 0.27023 0.86356 0.35034 0.0
O150 O 0.2843 0.84798 0.36966 0.0
O151 O 0.28462 0.82553 0.30715 0.0
O152 O 0.26353 0.83258 0.31216 0.0
C153 C 0.2667 0.86209 0.25146 0.0
O154 O 0.29902 0.84319 0.27062 0.0
O155 O 0.30164 0.86007 0.30833 0.0
In156 In 0.90319 0.46734 0.56379 0.0
O157 O 0.9058 0.4497 0.60576 0.0
O158 O 0.8938 0.44545 0.55749 0.0
C159 C 0.93058 0.47437 0.55987 0.0
C160 C 0.8902 0.48134 0.619 0.0
C161 C 0.89413 0.47291 0.49437 0.0
O162 O 0.92659 0.46182 0.56342 0.0
O163 O 0.92079 0.4832 0.55804 0.0
O164 O 0.88995 0.47973 0.52221 0.0
O165 O 0.90255 0.46313 0.50172 0.0
C166 C 0.89836 0.44104 0.58818 0.0
O167 O 0.88387 0.47249 0.59914 0.0
O168 O 0.90276 0.48349 0.60988 0.0
In169 In 0.2778 0.14928 0.31354 0.0
O170 O 0.29625 0.15328 0.35246 0.0
O171 O 0.29884 0.13808 0.31002 0.0
C172 C 0.27058 0.17658 0.30985 0.0
C173 C 0.26403 0.13607 0.36898 0.0
C174 C 0.27283 0.14138 0.24281 0.0
O175 O 0.28319 0.17267 0.3126 0.0
O176 O 0.26177 0.16675 0.30874 0.0
O177 O 0.26511 0.13757 0.26937 0.0
O178 O 0.28312 0.14886 0.25211 0.0
C179 C 0.30408 0.1442 0.33773 0.0
O180 O 0.27206 0.12963 0.34708 0.0
O181 O 0.26253 0.14889 0.36181 0.0
In182 In 0.59941 0.53151 0.06359 0.0
O183 O 0.59718 0.55516 0.07355 0.0
O184 O 0.61755 0.54682 0.06498 0.0
C185 C 0.57253 0.52282 0.06261 0.0
C186 C 0.60782 0.52165 0.12983 0.0
C187 C 0.60694 0.52367 0.99468 0.0
O188 O 0.57585 0.5356 0.0597 0.0
O189 O 0.58275 0.51454 0.06604 0.0
O190 O 0.61217 0.51812 0.02329 0.0
O191 O 0.59818 0.53328 0.00095 0.0
C192 C 0.61021 0.55744 0.07233 0.0
O193 O 0.61315 0.51733 0.09985 0.0
O194 O 0.59819 0.53058 0.12602 0.0
In195 In 0.21808 0.8488 0.81471 0.0
O196 O 0.19451 0.84616 0.82479 0.0
O197 O 0.20241 0.86666 0.8154 0.0
C198 C 0.22687 0.82197 0.81264 0.0
C199 C 0.22763 0.85703 0.88147 0.0
C200 C 0.22612 0.85694 0.74644 0.0
O201 O 0.21412 0.82528 0.8092 0.0
O202 O 0.23511 0.83219 0.81705 0.0
O203 O 0.23161 0.86188 0.77548 0.0
O204 O 0.21649 0.84812 0.75197 0.0
C205 C 0.19195 0.85913 0.82297 0.0
O206 O 0.23197 0.86256 0.85177 0.0
O207 O 0.21883 0.84732 0.87714 0.0
In208 In 0.5987 0.97279 0.56174 0.0
O209 O 0.59309 0.95198 0.58966 0.0
O210 O 0.61343 0.95417 0.5666 0.0
C211 C 0.5719 0.98113 0.55465 0.0
C212 C 0.60937 0.98614 0.62138 0.0
C213 C 0.60723 0.97799 0.49181 0.0
O214 O 0.57528 0.96832 0.55616 0.0
O215 O 0.58204 0.9896 0.5563 0.0
O216 O 0.61008 0.98603 0.51853 0.0
O217 O 0.60034 0.9672 0.50053 0.0
C218 C 0.60501 0.94659 0.58457 0.0
O219 O 0.61703 0.98199 0.5951 0.0
O220 O 0.59649 0.98388 0.61694 0.0
In221 In 0.27623 0.35253 0.81554 0.0
O222 O 0.29809 0.34757 0.83892 0.0
O223 O 0.29447 0.36783 0.81684 0.0
C224 C 0.27374 0.3243 0.81539 0.0
C225 C 0.26148 0.3648 0.87084 0.0
C226 C 0.26652 0.36048 0.74826 0.0
O227 O 0.27243 0.33159 0.84433 0.0
O228 O 0.27682 0.33119 0.78668 0.0
O229 O 0.25861 0.35915 0.77605 0.0
O230 O 0.27927 0.35805 0.75463 0.0
C231 C 0.30291 0.35965 0.83271 0.0
O232 O 0.27154 0.37078 0.85473 0.0
O233 O 0.25839 0.35294 0.85781 0.0
In234 In 0.902 0.02783 0.07075 0.0
O235 O 0.90718 0.04786 0.10262 0.0
O236 O 0.88784 0.04697 0.0736 0.0
C237 C 0.92941 0.02195 0.06164 0.0
C238 C 0.89104 0.01421 0.12963 0.0
C239 C 0.89298 0.02121 0.00199 0.0
O240 O 0.92478 0.03436 0.06101 0.0
O241 O 0.92022 0.01265 0.06668 0.0
O242 O 0.8922 0.0128 0.02887 0.0
O243 O 0.89799 0.03305 0.00997 0.0
C244 C 0.8958 0.05389 0.09467 0.0
O245 O 0.88345 0.01975 0.10511 0.0
O246 O 0.90401 0.01521 0.12382 0.0
In247 In 0.21646 0.65252 0.30585 0.0
O248 O 0.22293 0.63376 0.34196 0.0
O249 O 0.23177 0.65359 0.35399 0.0
C250 C 0.22161 0.64424 0.23561 0.0
C251 C 0.19035 0.64649 0.3297 0.0
C252 C 0.22367 0.67974 0.30104 0.0
O253 O 0.22902 0.64033 0.26265 0.0
O254 O 0.21146 0.65206 0.24413 0.0
O255 O 0.21107 0.67592 0.30513 0.0
O256 O 0.23241 0.66986 0.29893 0.0
C257 C 0.23082 0.64087 0.36268 0.0
O258 O 0.19693 0.65721 0.34055 0.0
O259 O 0.19669 0.63928 0.30568 0.0
In260 In 0.59738 0.03161 0.04888 0.0
O261 O 0.61663 0.02551 0.01439 0.0
O262 O 0.59668 0.01839 0.99664 0.0
C263 C 0.6062 0.02513 0.1179 0.0
C264 C 0.6021 0.05811 0.02585 0.0
C265 C 0.57037 0.02374 0.05512 0.0
O266 O 0.60933 0.01785 0.08994 0.0
O267 O 0.59894 0.03585 0.11089 0.0
O268 O 0.57409 0.03644 0.05663 0.0
O269 O 0.58026 0.01513 0.05066 0.0
C270 C 0.60965 0.01893 0.99038 0.0
O271 O 0.59152 0.05116 0.01582 0.0
O272 O 0.60992 0.05191 0.04877 0.0
In273 In 0.21799 0.34737 0.30065 0.0
O274 O 0.19977 0.34224 0.26205 0.0
O275 O 0.19666 0.35811 0.30252 0.0
C276 C 0.2258 0.32029 0.30705 0.0
C277 C 0.23089 0.36049 0.24364 0.0
C278 C 0.22316 0.35637 0.37037 0.0
O279 O 0.21309 0.32395 0.30565 0.0
O280 O 0.23443 0.33027 0.30552 0.0
O281 O 0.2313 0.35898 0.34367 0.0
O282 O 0.21235 0.34953 0.3617 0.0
C283 C 0.19169 0.3514 0.2754 0.0
O284 O 0.22334 0.367 0.26659 0.0
O285 O 0.23243 0.34765 0.25061 0.0
In286 In 0.90375 0.96925 0.55782 0.0
O287 O 0.90916 0.94939 0.52536 0.0
O288 O 0.89062 0.94936 0.55786 0.0
C289 C 0.93091 0.97665 0.56408 0.0
C290 C 0.89171 0.98191 0.49891 0.0
C291 C 0.89475 0.97601 0.62648 0.0
O292 O 0.92703 0.96398 0.56482 0.0
O293 O 0.92111 0.98542 0.56056 0.0
O294 O 0.89253 0.98365 0.5986 0.0
O295 O 0.90129 0.96481 0.61965 0.0
C296 C 0.89829 0.94285 0.5352 0.0
O297 O 0.88463 0.97555 0.52312 0.0
O298 O 0.90468 0.98226 0.50513 0.0
In299 In 0.28194 0.65194 0.79751 0.0
O300 O 0.30557 0.65374 0.78724 0.0
O301 O 0.2968 0.63347 0.79489 0.0
C302 C 0.27444 0.67915 0.80073 0.0
C303 C 0.27204 0.64404 0.73084 0.0
C304 C 0.27328 0.64407 0.86548 0.0
O305 O 0.28704 0.67526 0.80402 0.0
O306 O 0.26577 0.66934 0.79586 0.0
O307 O 0.26654 0.64104 0.83646 0.0
O308 O 0.2845 0.65077 0.86004 0.0
C309 C 0.30757 0.64065 0.7878 0.0
O310 O 0.26853 0.63779 0.76029 0.0
O311 O 0.28019 0.65429 0.73538 0.0
In312 In 0.40087 0.03275 0.56078 0.0
O313 O 0.38976 0.05378 0.56655 0.0
O314 O 0.40473 0.05163 0.52338 0.0
C315 C 0.42827 0.0259 0.56145 0.0
C316 C 0.38848 0.01874 0.50433 0.0
C317 C 0.39256 0.02688 0.63076 0.0
O318 O 0.42418 0.03848 0.55975 0.0
O319 O 0.41857 0.01695 0.56317 0.0
O320 O 0.38664 0.02165 0.60275 0.0
O321 O 0.4024 0.03522 0.62339 0.0
C322 C 0.39568 0.05929 0.53887 0.0
O323 O 0.38247 0.02859 0.52129 0.0
O324 O 0.40035 0.01558 0.51696 0.0
In325 In 0.72342 0.6516 0.29697 0.0
O326 O 0.7041 0.65672 0.26188 0.0
O327 O 0.70333 0.63878 0.29655 0.0
C328 C 0.73168 0.67858 0.2988 0.0
C329 C 0.73684 0.63789 0.24186 0.0
C330 C 0.7283 0.64461 0.36835 0.0
O331 O 0.71889 0.67514 0.29811 0.0
O332 O 0.74016 0.66844 0.29883 0.0
O333 O 0.73614 0.6407 0.34219 0.0
O334 O 0.71787 0.6518 0.35841 0.0
C335 C 0.69725 0.64614 0.2724 0.0
O336 O 0.72988 0.63154 0.26633 0.0
O337 O 0.73742 0.65098 0.24608 0.0
In338 In 0.10133 0.97412 0.04197 0.0
O339 O 0.12069 0.98023 0.00782 0.0
O340 O 0.10094 0.98816 0.99106 0.0
C341 C 0.10936 0.97961 0.11236 0.0
C342 C 0.10606 0.94758 0.01901 0.0
C343 C 0.07435 0.98217 0.04622 0.0
O344 O 0.11413 0.9863 0.08499 0.0
O345 O 0.10081 0.97004 0.10412 0.0
O346 O 0.07794 0.96942 0.04546 0.0
O347 O 0.08438 0.99079 0.04501 0.0
C348 C 0.11387 0.98732 0.9845 0.0
O349 O 0.09573 0.95468 0.00803 0.0
O350 O 0.11364 0.95365 0.0427 0.0
In351 In 0.78307 0.34765 0.80743 0.0
O352 O 0.77853 0.36698 0.77153 0.0
O353 O 0.76652 0.34862 0.76228 0.0
C354 C 0.77829 0.35668 0.8773 0.0
C355 C 0.80927 0.35134 0.781 0.0
C356 C 0.77484 0.32063 0.81161 0.0
O357 O 0.77148 0.36118 0.84982 0.0
O358 O 0.78772 0.34793 0.86939 0.0
O359 O 0.78759 0.32405 0.80894 0.0
O360 O 0.76642 0.33079 0.81256 0.0
C361 C 0.76918 0.36101 0.75256 0.0
O362 O 0.80492 0.35735 0.80996 0.0
O363 O 0.80061 0.34301 0.7664 0.0
In364 In 0.40075 0.96735 0.06719 0.0
O365 O 0.40328 0.94367 0.07543 0.0
O366 O 0.38271 0.95195 0.07008 0.0
C367 C 0.42761 0.97606 0.06589 0.0
C368 C 0.39276 0.9769 0.13419 0.0
C369 C 0.39267 0.97515 0.99861 0.0
O370 O 0.42429 0.96328 0.06303 0.0
O371 O 0.4174 0.98435 0.0693 0.0
O372 O 0.38759 0.98065 0.02749 0.0
O373 O 0.40157 0.96564 0.00445 0.0
C374 C 0.39026 0.94132 0.07581 0.0
O375 O 0.38754 0.98167 0.10456 0.0
O376 O 0.40206 0.96768 0.12968 0.0
In377 In 0.777 0.65143 0.81853 0.0
O378 O 0.76966 0.63181 0.84979 0.0
O379 O 0.76462 0.65173 0.8722 0.0
C380 C 0.77089 0.64441 0.74785 0.0
C381 C 0.80334 0.64523 0.84046 0.0
C382 C 0.76906 0.67849 0.81633 0.0
O383 O 0.76328 0.64086 0.77483 0.0
O384 O 0.78172 0.65122 0.75662 0.0
O385 O 0.7818 0.67488 0.81479 0.0
O386 O 0.76047 0.66847 0.81874 0.0
C387 C 0.76406 0.63862 0.87582 0.0
O388 O 0.79724 0.65639 0.85002 0.0
O389 O 0.79642 0.63763 0.81851 0.0
In390 In 0.10173 0.02953 0.55918 0.0
O391 O 0.1124 0.05079 0.55262 0.0
O392 O 0.09792 0.04843 0.59676 0.0
C393 C 0.07463 0.02159 0.5596 0.0
C394 C 0.11548 0.01627 0.61461 0.0
C395 C 0.10902 0.02371 0.48841 0.0
O396 O 0.07824 0.03433 0.5606 0.0
O397 O 0.08466 0.01299 0.55818 0.0
O398 O 0.11504 0.01809 0.51576 0.0
O399 O 0.09957 0.03236 0.49683 0.0
C400 C 0.10667 0.05623 0.58063 0.0
O401 O 0.12149 0.02482 0.59328 0.0
O402 O 0.10282 0.01398 0.60687 0.0
In403 In 0.72028 0.35062 0.31728 0.0
O404 O 0.6967 0.34758 0.32569 0.0
O405 O 0.70462 0.36837 0.3224 0.0
C406 C 0.72887 0.32374 0.31357 0.0
C407 C 0.7302 0.35873 0.38386 0.0
C408 C 0.7278 0.35895 0.24871 0.0
O409 O 0.71606 0.32705 0.31471 0.0
O410 O 0.73724 0.33397 0.31422 0.0
O411 O 0.73488 0.36203 0.27715 0.0
O412 O 0.71683 0.35198 0.25508 0.0
C413 C 0.69412 0.36056 0.32732 0.0
O414 O 0.73322 0.36527 0.35447 0.0
O415 O 0.72257 0.3481 0.37925 0.0
H416 H 0.93679 0.49559 0.05723 0.0
H417 H 0.96107 0.48747 0.05869 0.0
H418 H 0.97548 0.53026 0.06268 0.0
H419 H 0.95114 0.53852 0.061 0.0
H420 H 0.98913 0.51293 0.0089 0.0
H421 H 0.98807 0.48814 0.14812 0.0
H422 H 0.97425 0.48275 0.11745 0.0
H423 H 0.975 0.5006 0.13316 0.0
C424 C 0.94511 0.50329 0.05859 0.0
C425 C 0.94207 0.5177 0.05911 0.0
C426 C 0.95897 0.49862 0.05963 0.0
C427 C 0.97004 0.50826 0.06131 0.0
C428 C 0.96706 0.52266 0.06161 0.0
H429 H 0.06059 0.50196 0.05936 0.0
H430 H 0.03624 0.50981 0.05886 0.0
C431 C 0.95317 0.52735 0.06069 0.0
C432 C 0.98473 0.50329 0.06153 0.0
H433 H 0.00828 0.48409 0.11145 0.0
C434 C 0.99336 0.50669 0.03138 0.0
C435 C 0.99015 0.49507 0.0908 0.0
C436 C 0.98145 0.4915 0.12441 0.0
C437 C 0.00724 0.5019 0.02943 0.0
C438 C 0.0127 0.49374 0.05881 0.0
C439 C 0.00405 0.49032 0.08893 0.0
C440 C 0.02745 0.48891 0.05918 0.0
C441 C 0.01584 0.50536 0.99556 0.0
C442 C 0.0306 0.47455 0.06055 0.0
C443 C 0.04454 0.47002 0.06112 0.0
C444 C 0.05554 0.4798 0.06052 0.0
C445 C 0.05234 0.49417 0.05956 0.0
C446 C 0.03843 0.49868 0.05906 0.0
H447 H 0.00911 0.50819 0.97159 0.0
H448 H 0.02268 0.51447 0.00175 0.0
H449 H 0.02262 0.49641 0.98751 0.0
H450 H 0.02226 0.46685 0.06091 0.0
H451 H 0.04669 0.45888 0.06198 0.0
H452 H 0.7949 0.79828 0.29261 0.0
H453 H 0.78723 0.77374 0.29113 0.0
H454 H 0.74411 0.78719 0.28817 0.0
H455 H 0.75165 0.81164 0.28929 0.0
H456 H 0.76977 0.76043 0.34352 0.0
H457 H 0.74625 0.75886 0.20296 0.0
H458 H 0.75803 0.7726 0.21758 0.0
H459 H 0.73995 0.77292 0.23151 0.0
C460 C 0.78379 0.79599 0.29123 0.0
C461 C 0.77388 0.80687 0.29094 0.0
C462 C 0.77943 0.78199 0.29045 0.0
C463 C 0.76511 0.77867 0.28904 0.0
C464 C 0.75521 0.78952 0.28851 0.0
H465 H 0.71566 0.70236 0.29683 0.0
H466 H 0.7239 0.7267 0.29548 0.0
C467 C 0.75955 0.80349 0.28934 0.0
C468 C 0.76043 0.76388 0.29001 0.0
H469 H 0.74153 0.73943 0.24232 0.0
C470 C 0.76369 0.75578 0.32128 0.0
C471 C 0.75242 0.75791 0.26105 0.0
C472 C 0.74905 0.76596 0.22621 0.0
C473 C 0.75892 0.74194 0.32474 0.0
C474 C 0.75088 0.73598 0.29583 0.0
C475 C 0.74765 0.74406 0.26449 0.0
C476 C 0.7459 0.72129 0.2973 0.0
C477 C 0.76223 0.73391 0.35968 0.0
C478 C 0.75555 0.71022 0.29844 0.0
C479 C 0.75089 0.69636 0.29926 0.0
C480 C 0.73648 0.6933 0.29873 0.0
C481 C 0.72682 0.7044 0.29741 0.0
C482 C 0.7315 0.71829 0.29657 0.0
H483 H 0.76522 0.74102 0.38276 0.0
H484 H 0.75314 0.72748 0.36858 0.0
H485 H 0.77118 0.72677 0.35435 0.0
H486 H 0.76671 0.7123 0.29828 0.0
H487 H 0.7586 0.68803 0.30004 0.0
H488 H 0.45131 0.53719 0.55253 0.0
H489 H 0.47606 0.53028 0.55001 0.0
H490 H 0.46397 0.48675 0.55161 0.0
H491 H 0.43932 0.49352 0.5538 0.0
H492 H 0.49069 0.51368 0.60237 0.0
H493 H 0.49091 0.48908 0.46306 0.0
H494 H 0.47709 0.50063 0.47839 0.0
H495 H 0.47742 0.48266 0.49329 0.0
C496 C 0.45395 0.52615 0.55205 0.0
C497 C 0.44339 0.51589 0.55322 0.0
C498 C 0.46806 0.52223 0.55065 0.0
C499 C 0.47181 0.50801 0.55009 0.0
C500 C 0.46129 0.49777 0.55127 0.0
H501 H 0.54883 0.46007 0.55393 0.0
H502 H 0.52442 0.46809 0.55362 0.0
C503 C 0.44721 0.50167 0.55273 0.0
C504 C 0.48674 0.5038 0.54979 0.0
H505 H 0.51096 0.48511 0.50079 0.0
C506 C 0.49518 0.50754 0.58004 0.0
C507 C 0.49251 0.49573 0.52068 0.0
C508 C 0.48407 0.49188 0.48683 0.0
C509 C 0.50917 0.50312 0.58242 0.0
C510 C 0.51491 0.49496 0.55343 0.0
C511 C 0.5065 0.49132 0.52304 0.0
C512 C 0.52966 0.49015 0.55401 0.0
C513 C 0.51758 0.5069 0.61639 0.0
C514 C 0.54065 0.4999 0.55393 0.0
C515 C 0.55456 0.49536 0.55419 0.0
C516 C 0.55772 0.48098 0.55427 0.0
C517 C 0.5467 0.47122 0.554 0.0
C518 C 0.53278 0.47578 0.55377 0.0
H519 H 0.51073 0.50999 0.63991 0.0
H520 H 0.52428 0.49801 0.62529 0.0
H521 H 0.5245 0.51591 0.60984 0.0
H522 H 0.53848 0.51104 0.55335 0.0
H523 H 0.56283 0.50313 0.55414 0.0
H524 H 0.70788 0.20356 0.80282 0.0
H525 H 0.71686 0.22761 0.80399 0.0
H526 H 0.75921 0.21191 0.80034 0.0
H527 H 0.75034 0.18788 0.79974 0.0
H528 H 0.75519 0.23212 0.85438 0.0
H529 H 0.73418 0.24993 0.71894 0.0
H530 H 0.72122 0.24265 0.74945 0.0
H531 H 0.73499 0.23167 0.7318 0.0
C532 C 0.7191 0.20525 0.802 0.0
C533 C 0.72841 0.19385 0.80108 0.0
C534 C 0.72421 0.21898 0.80249 0.0
C535 C 0.7387 0.22153 0.80175 0.0
C536 C 0.748 0.21016 0.80078 0.0
H537 H 0.79068 0.29674 0.808 0.0
H538 H 0.78223 0.27248 0.8064 0.0
C539 C 0.7429 0.19645 0.80037 0.0
C540 C 0.74423 0.23603 0.80327 0.0
H541 H 0.74412 0.26738 0.75778 0.0
C542 C 0.75284 0.23982 0.83318 0.0
C543 C 0.74115 0.24603 0.77553 0.0
C544 C 0.73249 0.24237 0.74192 0.0
C545 C 0.75823 0.25345 0.8365 0.0
C546 C 0.75506 0.26346 0.8089 0.0
C547 C 0.7465 0.25966 0.77892 0.0
C548 C 0.76031 0.27804 0.81087 0.0
C549 C 0.76698 0.25712 0.86994 0.0
C550 C 0.75078 0.28917 0.81344 0.0
C551 C 0.75556 0.30299 0.81424 0.0
C552 C 0.76997 0.30594 0.81225 0.0
C553 C 0.77953 0.29478 0.80978 0.0
C554 C 0.77472 0.28092 0.80902 0.0
H555 H 0.76576 0.2493 0.89251 0.0
H556 H 0.77819 0.2574 0.86185 0.0
H557 H 0.76411 0.26762 0.88082 0.0
H558 H 0.73962 0.28716 0.81478 0.0
H559 H 0.74794 0.31137 0.81607 0.0
H560 H 0.06441 0.49254 0.55948 0.0
H561 H 0.03996 0.48486 0.56014 0.0
H562 H 0.02635 0.5279 0.55475 0.0
H563 H 0.05082 0.53568 0.55372 0.0
H564 H 0.01848 0.49171 0.61088 0.0
H565 H 0.00564 0.50902 0.46789 0.0
H566 H 0.02343 0.50741 0.48433 0.0
H567 H 0.01304 0.52235 0.49707 0.0
C568 C 0.05622 0.50038 0.55843 0.0
C569 C 0.05952 0.51471 0.55635 0.0
C570 C 0.04227 0.49597 0.55884 0.0
C571 C 0.03137 0.5058 0.55694 0.0
C572 C 0.03462 0.52014 0.55553 0.0
H573 H 0.94104 0.5008 0.55407 0.0
H574 H 0.9656 0.508 0.55392 0.0
C575 C 0.04859 0.52456 0.55516 0.0
C576 C 0.01662 0.501 0.55676 0.0
H577 H 0.98679 0.50076 0.50461 0.0
C578 C 0.01155 0.49363 0.58762 0.0
C579 C 0.00764 0.50352 0.52632 0.0
C580 C 0.0127 0.5109 0.49185 0.0
C581 C 0.99762 0.48895 0.58919 0.0
C582 C 0.98863 0.4915 0.55877 0.0
C583 C 0.99372 0.49883 0.52786 0.0
C584 C 0.97379 0.48694 0.55876 0.0
C585 C 0.99255 0.48165 0.62376 0.0
C586 C 0.97025 0.47268 0.56104 0.0
C587 C 0.95619 0.46853 0.56121 0.0
C588 C 0.94547 0.47857 0.55884 0.0
C589 C 0.94906 0.49281 0.55599 0.0
C590 C 0.96309 0.49695 0.55588 0.0
H591 H 0.99961 0.48358 0.6477 0.0
H592 H 0.98182 0.48516 0.63124 0.0
H593 H 0.99221 0.47019 0.61872 0.0
H594 H 0.97836 0.46477 0.56253 0.0
H595 H 0.95373 0.45748 0.56325 0.0
H596 H 0.78529 0.70203 0.81025 0.0
H597 H 0.77739 0.72647 0.8104 0.0
H598 H 0.73459 0.71269 0.82238 0.0
H599 H 0.74236 0.6883 0.82167 0.0
H600 H 0.73792 0.73309 0.76853 0.0
H601 H 0.76374 0.7489 0.89992 0.0
H602 H 0.77535 0.7413 0.86633 0.0
H603 H 0.76169 0.7308 0.88646 0.0
C604 C 0.7742 0.70423 0.81296 0.0
C605 C 0.76444 0.69326 0.81607 0.0
C606 C 0.76971 0.71818 0.81329 0.0
C607 C 0.75542 0.72138 0.81702 0.0
C608 C 0.74567 0.71044 0.81968 0.0
H609 H 0.70633 0.79851 0.82254 0.0
H610 H 0.714 0.77399 0.82452 0.0
C611 C 0.75013 0.69652 0.81928 0.0
C612 C 0.75054 0.73612 0.81734 0.0
H613 H 0.75325 0.76702 0.86448 0.0
C614 C 0.74121 0.74051 0.7896 0.0
C615 C 0.75484 0.74574 0.8449 0.0
C616 C 0.76435 0.74145 0.87631 0.0
C617 C 0.73627 0.75435 0.78825 0.0
C618 C 0.74062 0.76397 0.81572 0.0
C619 C 0.74993 0.75959 0.8435 0.0
C620 C 0.73592 0.77875 0.81555 0.0
C621 C 0.72671 0.75865 0.75696 0.0
C622 C 0.74574 0.78952 0.81081 0.0
C623 C 0.7414 0.80348 0.80982 0.0
C624 C 0.72716 0.80694 0.81379 0.0
C625 C 0.71736 0.79615 0.81926 0.0
C626 C 0.72171 0.78215 0.82019 0.0
H627 H 0.72693 0.75098 0.73379 0.0
H628 H 0.7158 0.7593 0.7674 0.0
H629 H 0.72968 0.76911 0.74607 0.0
H630 H 0.75675 0.7871 0.80735 0.0
H631 H 0.74921 0.81157 0.80567 0.0
H632 H 0.56326 0.49589 0.06823 0.0
H633 H 0.53903 0.48755 0.06636 0.0
H634 H 0.52445 0.53007 0.05423 0.0
H635 H 0.54869 0.5385 0.05563 0.0
H636 H 0.51667 0.49429 0.11334 0.0
H637 H 0.50542 0.50958 0.96797 0.0
H638 H 0.52299 0.50882 0.98637 0.0
H639 H 0.51193 0.52359 0.99638 0.0
C640 C 0.55489 0.50347 0.06505 0.0
C641 C 0.55787 0.51785 0.06187 0.0
C642 C 0.54107 0.49868 0.06404 0.0
C643 C 0.52997 0.50817 0.05963 0.0
C644 C 0.53289 0.52255 0.05692 0.0
H645 H 0.43994 0.50262 0.04951 0.0
H646 H 0.46448 0.50978 0.05228 0.0
C647 C 0.54673 0.52736 0.05792 0.0
C648 C 0.51533 0.503 0.05843 0.0
H649 H 0.48609 0.50191 0.00405 0.0
C650 C 0.50999 0.49588 0.08939 0.0
C651 C 0.50668 0.50506 0.02709 0.0
C652 C 0.51205 0.51206 0.9924 0.0
C653 C 0.49608 0.49107 0.09023 0.0
C654 C 0.4874 0.49326 0.05903 0.0
C655 C 0.49278 0.50027 0.02795 0.0
C656 C 0.47255 0.48872 0.05834 0.0
C657 C 0.49069 0.48403 0.12484 0.0
C658 C 0.46894 0.47448 0.06065 0.0
C659 C 0.45488 0.47034 0.05912 0.0
C660 C 0.44423 0.48039 0.05506 0.0
C661 C 0.4479 0.49463 0.05271 0.0
C662 C 0.46192 0.49874 0.05424 0.0
H663 H 0.49759 0.48603 0.14906 0.0
H664 H 0.47995 0.48769 0.13157 0.0
H665 H 0.49026 0.47254 0.12025 0.0
H666 H 0.47701 0.46656 0.06315 0.0
H667 H 0.45236 0.4593 0.06081 0.0
H668 H 0.7556 0.31456 0.30306 0.0
H669 H 0.76389 0.29029 0.30119 0.0
H670 H 0.72175 0.27556 0.31919 0.0
H671 H 0.7133 0.29984 0.32077 0.0
H672 H 0.747 0.2645 0.36836 0.0
H673 H 0.75232 0.26028 0.21498 0.0
H674 H 0.75844 0.27603 0.23734 0.0
H675 H 0.74007 0.2722 0.23654 0.0
C676 C 0.74808 0.30616 0.30654 0.0
C677 C 0.73379 0.30908 0.31201 0.0
C678 C 0.75284 0.29233 0.30542 0.0
C679 C 0.74341 0.28121 0.30995 0.0
C680 C 0.72915 0.28405 0.31559 0.0
H681 H 0.75205 0.19184 0.2834 0.0
H682 H 0.74416 0.21621 0.28519 0.0
C683 C 0.72435 0.2979 0.3164 0.0
C684 C 0.7485 0.26661 0.30914 0.0
H685 H 0.75979 0.24092 0.25052 0.0
C686 C 0.74982 0.25931 0.34267 0.0
C687 C 0.7521 0.25996 0.27551 0.0
C688 C 0.75064 0.26742 0.23888 0.0
C689 C 0.75477 0.24546 0.34342 0.0
C690 C 0.75846 0.23884 0.30979 0.0
C691 C 0.75702 0.24611 0.27624 0.0
C692 C 0.76339 0.22418 0.30882 0.0
C693 C 0.75586 0.23789 0.37997 0.0
C694 C 0.77687 0.22067 0.32128 0.0
C695 C 0.78146 0.20675 0.32007 0.0
C696 C 0.77259 0.19616 0.30656 0.0
C697 C 0.75911 0.19976 0.29407 0.0
C698 C 0.75459 0.21366 0.29501 0.0
H699 H 0.7509 0.24386 0.40292 0.0
H700 H 0.75083 0.22743 0.37804 0.0
H701 H 0.76707 0.23624 0.38686 0.0
H702 H 0.78383 0.22871 0.3318 0.0
H703 H 0.7919 0.20428 0.32985 0.0
H704 H 0.26596 0.30766 0.8733 0.0
H705 H 0.25894 0.28302 0.87109 0.0
H706 H 0.26756 0.28198 0.75382 0.0
H707 H 0.27441 0.3067 0.75572 0.0
H708 H 0.24163 0.27098 0.77173 0.0
H709 H 0.28306 0.24796 0.86062 0.0
H710 H 0.27382 0.26224 0.88187 0.0
H711 H 0.28436 0.26538 0.84142 0.0
C712 C 0.26653 0.30213 0.84713 0.0
C713 C 0.27078 0.3091 0.81469 0.0
C714 C 0.26257 0.28804 0.84594 0.0
C715 C 0.26287 0.28063 0.81237 0.0
C716 C 0.2673 0.2875 0.78004 0.0
H717 H 0.25519 0.19097 0.7848 0.0
H718 H 0.26281 0.21537 0.78739 0.0
C719 C 0.27126 0.3016 0.78119 0.0
C720 C 0.25796 0.2659 0.81062 0.0
H721 H 0.26391 0.23316 0.84522 0.0
C722 C 0.24652 0.26269 0.78767 0.0
C723 C 0.26443 0.25509 0.83122 0.0
C724 C 0.27718 0.25777 0.85492 0.0
C725 C 0.24131 0.24897 0.78496 0.0
C726 C 0.24754 0.23822 0.80638 0.0
C727 C 0.25905 0.24143 0.8291 0.0
C728 C 0.24265 0.22346 0.8046 0.0
C729 C 0.2294 0.24607 0.75855 0.0
C730 C 0.22879 0.21986 0.81366 0.0
C731 C 0.22436 0.20589 0.81183 0.0
C732 C 0.23378 0.19528 0.80145 0.0
C733 C 0.24768 0.19891 0.79289 0.0
C734 C 0.25206 0.21285 0.79441 0.0
H735 H 0.22839 0.25443 0.73729 0.0
H736 H 0.23084 0.23587 0.74426 0.0
H737 H 0.21943 0.24566 0.77432 0.0
H738 H 0.22143 0.22783 0.82246 0.0
H739 H 0.21362 0.20339 0.81889 0.0
H740 H 0.28732 0.79831 0.30379 0.0
H741 H 0.27861 0.77414 0.30177 0.0
H742 H 0.2363 0.78916 0.31525 0.0
H743 H 0.24487 0.81328 0.31685 0.0
H744 H 0.26286 0.75942 0.35526 0.0
H745 H 0.23375 0.76435 0.22266 0.0
H746 H 0.24662 0.77704 0.23744 0.0
H747 H 0.22928 0.77726 0.25687 0.0
C748 C 0.27616 0.79644 0.30631 0.0
C749 C 0.26676 0.80767 0.31027 0.0
C750 C 0.27121 0.78266 0.30515 0.0
C751 C 0.25679 0.7799 0.30772 0.0
C752 C 0.24743 0.79108 0.31241 0.0
H753 H 0.20725 0.70315 0.30805 0.0
H754 H 0.2151 0.72764 0.31021 0.0
C755 C 0.25236 0.80485 0.31355 0.0
C756 C 0.25154 0.76532 0.30609 0.0
H757 H 0.23053 0.74327 0.25639 0.0
C758 C 0.25584 0.75586 0.33358 0.0
C759 C 0.24233 0.76075 0.27784 0.0
C760 C 0.2378 0.77033 0.24681 0.0
C761 C 0.25103 0.74197 0.33385 0.0
C762 C 0.24188 0.73738 0.30549 0.0
C763 C 0.23752 0.74685 0.27812 0.0
C764 C 0.23706 0.72267 0.30324 0.0
C765 C 0.25561 0.73238 0.36479 0.0
C766 C 0.24678 0.71186 0.29778 0.0
C767 C 0.24235 0.69794 0.2965 0.0
C768 C 0.22809 0.69457 0.30045 0.0
C769 C 0.2183 0.70544 0.305 0.0
C770 C 0.22276 0.7194 0.30626 0.0
H771 H 0.25951 0.73835 0.38912 0.0
H772 H 0.24686 0.72552 0.37387 0.0
H773 H 0.26425 0.72559 0.35478 0.0
H774 H 0.25782 0.71419 0.29462 0.0
H775 H 0.25014 0.6898 0.29275 0.0
H776 H 0.24407 0.18699 0.30596 0.0
H777 H 0.23686 0.21157 0.30553 0.0
H778 H 0.28013 0.22438 0.31176 0.0
H779 H 0.28746 0.19976 0.3119 0.0
H780 H 0.24246 0.23204 0.36033 0.0
H781 H 0.2645 0.24688 0.2233 0.0
H782 H 0.262 0.22886 0.23708 0.0
H783 H 0.27664 0.23867 0.25457 0.0
C784 C 0.25207 0.19504 0.30702 0.0
C785 C 0.26634 0.19146 0.30883 0.0
C786 C 0.24792 0.20906 0.30684 0.0
C787 C 0.25797 0.21977 0.3082 0.0
C788 C 0.27223 0.21626 0.31006 0.0
H789 H 0.25253 0.31041 0.31032 0.0
H790 H 0.26019 0.28598 0.31215 0.0
C791 C 0.2764 0.2022 0.3103 0.0
C792 C 0.25342 0.2346 0.30864 0.0
H793 H 0.25499 0.26517 0.25974 0.0
C794 C 0.24516 0.23929 0.33832 0.0
C795 C 0.25699 0.244 0.27989 0.0
C796 C 0.26542 0.23937 0.2467 0.0
C797 C 0.24051 0.25322 0.34028 0.0
C798 C 0.24402 0.26261 0.31143 0.0
C799 C 0.25232 0.25793 0.28181 0.0
C800 C 0.23923 0.27737 0.31144 0.0
C801 C 0.23213 0.25784 0.37357 0.0
C802 C 0.22489 0.28062 0.31027 0.0
C803 C 0.22046 0.29459 0.3093 0.0
C804 C 0.23033 0.30552 0.30925 0.0
C805 C 0.24468 0.30222 0.31042 0.0
C806 C 0.24908 0.28827 0.31141 0.0
H807 H 0.23343 0.25053 0.39728 0.0
H808 H 0.23527 0.26852 0.38258 0.0
H809 H 0.22086 0.25811 0.36615 0.0
H810 H 0.21712 0.27235 0.30955 0.0
H811 H 0.20935 0.29682 0.30818 0.0
H812 H 0.24797 0.68946 0.79418 0.0
H813 H 0.24053 0.71395 0.79635 0.0
H814 H 0.28335 0.72685 0.81356 0.0
H815 H 0.29092 0.70231 0.81098 0.0
H816 H 0.24392 0.73324 0.85426 0.0
H817 H 0.27056 0.75113 0.72577 0.0
H818 H 0.26799 0.73283 0.73645 0.0
H819 H 0.28171 0.74255 0.75884 0.0
C820 C 0.25582 0.69751 0.7983 0.0
C821 C 0.27005 0.69398 0.80226 0.0
C822 C 0.25155 0.71149 0.79958 0.0
C823 C 0.2614 0.72221 0.80463 0.0
C824 C 0.27561 0.71874 0.80894 0.0
H825 H 0.25375 0.81269 0.81967 0.0
H826 H 0.26206 0.78845 0.81873 0.0
C827 C 0.27991 0.70473 0.80766 0.0
C828 C 0.25669 0.73699 0.8061 0.0
H829 H 0.25945 0.76853 0.76209 0.0
C830 C 0.24729 0.74096 0.83409 0.0
C831 C 0.26113 0.74702 0.77975 0.0
C832 C 0.27081 0.74319 0.74828 0.0
C833 C 0.2423 0.75476 0.83669 0.0
C834 C 0.24665 0.76476 0.81018 0.0
C835 C 0.25613 0.76082 0.78234 0.0
C836 C 0.2415 0.7794 0.81086 0.0
C837 C 0.23261 0.75856 0.86816 0.0
C838 C 0.22719 0.78235 0.80631 0.0
C839 C 0.2224 0.79619 0.80688 0.0
C840 C 0.23186 0.80732 0.81179 0.0
C841 C 0.2462 0.80434 0.81593 0.0
C842 C 0.25097 0.7905 0.81536 0.0
H843 H 0.23316 0.75081 0.89108 0.0
H844 H 0.23515 0.7691 0.87937 0.0
H845 H 0.22166 0.75879 0.85782 0.0
H846 H 0.21974 0.77394 0.80206 0.0
H847 H 0.2113 0.79818 0.80341 0.0
H848 H 0.45126 0.043 0.55718 0.0
H849 H 0.47593 0.03584 0.55385 0.0
H850 H 0.46353 0.99247 0.56051 0.0
H851 H 0.43895 0.99948 0.56353 0.0
H852 H 0.49145 0.01954 0.60556 0.0
H853 H 0.48865 0.99378 0.46787 0.0
H854 H 0.47529 0.00564 0.48437 0.0
H855 H 0.47572 0.98781 0.5004 0.0
C856 C 0.45381 0.03194 0.55789 0.0
C857 C 0.44319 0.0218 0.56044 0.0
C858 C 0.46788 0.02788 0.55598 0.0
C859 C 0.47151 0.01362 0.5563 0.0
C860 C 0.46093 0.00351 0.55944 0.0
H861 H 0.54812 0.96513 0.55474 0.0
H862 H 0.52379 0.97337 0.55484 0.0
C863 C 0.44689 0.00755 0.5614 0.0
C864 C 0.48637 0.00927 0.55421 0.0
H865 H 0.50946 0.99008 0.50275 0.0
C866 C 0.49544 0.0132 0.58296 0.0
C867 C 0.49149 0.00095 0.52473 0.0
C868 C 0.48233 0.99688 0.49239 0.0
C869 C 0.50944 0.00872 0.58352 0.0
C870 C 0.51454 0.00032 0.55415 0.0
C871 C 0.50549 0.99649 0.52525 0.0
C872 C 0.52924 0.99537 0.55302 0.0
C873 C 0.51855 0.0127 0.61604 0.0
C874 C 0.54031 0.00501 0.55117 0.0
C875 C 0.55417 0.00034 0.55117 0.0
C876 C 0.55721 0.98594 0.55273 0.0
C877 C 0.5461 0.97628 0.5536 0.0
C878 C 0.53221 0.98097 0.55366 0.0
H879 H 0.51222 0.01606 0.64029 0.0
H880 H 0.52533 0.00381 0.62452 0.0
H881 H 0.52543 0.02157 0.60799 0.0
H882 H 0.53822 0.01615 0.54985 0.0
H883 H 0.56251 0.00803 0.55024 0.0
H884 H 0.95151 0.04003 0.05451 0.0
H885 H 0.97644 0.034 0.04949 0.0
H886 H 0.96601 0.99009 0.05542 0.0
H887 H 0.94118 0.99599 0.06016 0.0
H888 H 0.99253 0.01833 0.10129 0.0
H889 H 0.99131 0.99268 0.96333 0.0
H890 H 0.9774 0.00392 0.97964 0.0
H891 H 0.97852 0.9861 0.99541 0.0
C892 C 0.95455 0.0291 0.05446 0.0
C893 C 0.94441 0.01848 0.0576 0.0
C894 C 0.96876 0.02567 0.05164 0.0
C895 C 0.97302 0.0116 0.05157 0.0
C896 C 0.96291 0.001 0.0547 0.0
H897 H 0.05099 0.96567 0.04926 0.0
H898 H 0.0265 0.97331 0.05114 0.0
C899 C 0.94874 0.0044 0.05761 0.0
C900 C 0.98807 0.00792 0.04972 0.0
H901 H 0.01207 0.98962 -0.00104 0.0
C902 C 0.99686 0.01217 0.07878 0.0
C903 C 0.99363 0.99983 0.02036 0.0
C904 C 0.98477 0.99546 0.98772 0.0
C905 C 0.01102 0.00819 0.07981 0.0
C906 C 0.01654 0.99998 0.05063 0.0
C907 C 0.00778 0.99588 0.02136 0.0
C908 C 0.03138 0.99545 0.05003 0.0
C909 C 0.01982 0.01246 0.11265 0.0
C910 C 0.0422 0.00537 0.04846 0.0
C911 C 0.05618 0.00104 0.04749 0.0
C912 C 0.05957 0.98671 0.04779 0.0
C913 C 0.0487 0.97678 0.04911 0.0
C914 C 0.03472 0.98113 0.05012 0.0
H915 H 0.01326 0.01562 0.13666 0.0
H916 H 0.02684 0.00379 0.12138 0.0
H917 H 0.02645 0.02155 0.10483 0.0
H918 H 0.03984 0.01646 0.04762 0.0
H919 H 0.06433 0.00893 0.04624 0.0
H920 H 0.5603 0.99708 0.05175 0.0
H921 H 0.53585 0.98949 0.05428 0.0
H922 H 0.52263 0.03242 0.06718 0.0
H923 H 0.54711 0.04014 0.0642 0.0
H924 H 0.5161 0.99343 0.1108 0.0
H925 H 0.49911 0.01849 0.9793 0.0
H926 H 0.51733 0.01616 0.99122 0.0
H927 H 0.50736 0.0301 0.01185 0.0
C928 C 0.55219 0.00492 0.05508 0.0
C929 C 0.5556 0.01921 0.05759 0.0
C930 C 0.53824 0.00056 0.05656 0.0
C931 C 0.52744 0.01041 0.06038 0.0
C932 C 0.53081 0.02468 0.0635 0.0
H933 H 0.43693 0.00296 0.07166 0.0
H934 H 0.4612 0.0112 0.07144 0.0
C935 C 0.54478 0.02906 0.062 0.0
C936 C 0.51267 0.00565 0.06149 0.0
H937 H 0.48144 0.00788 0.01577 0.0
C938 C 0.50851 0.99656 0.09001 0.0
C939 C 0.50283 0.00976 0.0343 0.0
C940 C 0.50686 0.01907 0.00222 0.0
C941 C 0.4947 0.99159 0.09233 0.0
C942 C 0.48488 0.99565 0.06504 0.0
C943 C 0.48901 0.0048 0.03663 0.0
C944 C 0.47023 0.99053 0.06545 0.0
C945 C 0.49068 0.98225 0.12433 0.0
C946 C 0.46727 0.97619 0.06172 0.0
C947 C 0.45341 0.97145 0.06186 0.0
C948 C 0.44228 0.98099 0.06552 0.0
C949 C 0.44528 0.99535 0.06888 0.0
C950 C 0.45913 8e-05 0.06873 0.0
H951 H 0.4983 0.98302 0.14752 0.0
H952 H 0.48009 0.98494 0.13491 0.0
H953 H 0.49047 0.9712 0.11479 0.0
H954 H 0.47569 0.96868 0.05842 0.0
H955 H 0.45141 0.96033 0.05903 0.0
H956 H 0.05108 0.03792 0.56165 0.0
H957 H 0.02664 0.03002 0.56408 0.0
H958 H 0.04043 0.98701 0.5619 0.0
H959 H 0.06482 0.99478 0.55974 0.0
H960 H 0.01236 0.01267 0.5122 0.0
H961 H 0.01403 0.98856 0.6522 0.0
H962 H 0.02725 0.00064 0.63603 0.0
H963 H 0.02748 0.98269 0.62101 0.0
C964 C 0.04889 0.02679 0.56179 0.0
C965 C 0.05985 0.01697 0.56065 0.0
C966 C 0.03494 0.0223 0.56318 0.0
C967 C 0.03176 0.00794 0.56375 0.0
C968 C 0.04268 0.99813 0.56222 0.0
H969 H 0.9542 0.95992 0.56692 0.0
H970 H 0.97879 0.96744 0.56662 0.0
C971 C 0.0566 0.0026 0.56077 0.0
C972 C 0.01699 0.00319 0.56488 0.0
H973 H 0.99348 0.98465 0.6167 0.0
C974 C 0.0082 0.00661 0.53511 0.0
C975 C 0.01165 0.9952 0.59473 0.0
C976 C 0.02053 0.99163 0.62799 0.0
C977 C 0.99421 0.00207 0.53409 0.0
C978 C 0.98884 0.99416 0.56405 0.0
C979 C 0.99765 0.9907 0.59378 0.0
C980 C 0.97401 0.9896 0.56527 0.0
C981 C 0.98541 0.00556 0.5006 0.0
C982 C 0.96321 0.99957 0.56543 0.0
C983 C 0.94922 0.99532 0.56552 0.0
C984 C 0.94575 0.981 0.56577 0.0
C985 C 0.95657 0.97102 0.56662 0.0
C986 C 0.9706 0.97529 0.56645 0.0
H987 H 0.992 0.00824 0.47623 0.0
H988 H 0.97846 0.99666 0.49309 0.0
H989 H 0.97873 0.01476 0.50697 0.0
H990 H 0.96562 0.01066 0.56537 0.0
H991 H 0.94112 0.00326 0.56514 0.0
H992 H 0.12335 0.49399 0.96946 0.0
H993 H 0.12672 0.50227 0.90573 0.0
H994 H 0.10002 0.46912 0.86563 0.0
H995 H 0.09651 0.46086 0.92909 0.0
H996 H 0.13627 0.48834 0.83821 0.0
H997 H 0.08092 0.50618 0.83187 0.0
H998 H 0.08953 0.50187 0.87491 0.0
H999 H 0.08318 0.48818 0.84515 0.0
C1000 C 0.11835 0.48837 0.947 0.0
C1001 C 0.10955 0.47687 0.95425 0.0
C1002 C 0.1203 0.49309 0.91067 0.0
C1003 C 0.11345 0.48642 0.88116 0.0
C1004 C 0.10523 0.47453 0.88816 0.0
H1005 H 0.12022 0.49578 0.64363 0.0
H1006 H 0.12277 0.48817 0.70804 0.0
C1007 C 0.10327 0.46981 0.92439 0.0
C1008 C 0.11416 0.49235 0.84334 0.0
H1009 H 0.09384 0.50696 0.77593 0.0
C1010 C 0.12703 0.49247 0.82455 0.0
C1011 C 0.10212 0.49792 0.82594 0.0
C1012 C 0.08816 0.49868 0.84554 0.0
C1013 C 0.12809 0.49772 0.78826 0.0
C1014 C 0.11592 0.50283 0.7704 0.0
C1015 C 0.10314 0.50298 0.78961 0.0
C1016 C 0.11602 0.5079 0.73161 0.0
C1017 C 0.14221 0.49788 0.76951 0.0
C1018 C 0.11135 0.5215 0.72348 0.0
C1019 C 0.10977 0.52583 0.68675 0.0
C1020 C 0.11277 0.5166 0.65748 0.0
C1021 C 0.11789 0.50314 0.66563 0.0
C1022 C 0.11944 0.49881 0.70242 0.0
H1023 H 0.15089 0.4973 0.78994 0.0
H1024 H 0.14305 0.48867 0.7509 0.0
H1025 H 0.14354 0.50749 0.75251 0.0
H1026 H 0.1086 0.52866 0.74561 0.0
H1027 H 0.10581 0.53626 0.68134 0.0
H1028 H 0.74981 0.87 0.88504 0.0
H1029 H 0.7604 0.87393 0.94609 0.0
H1030 H 0.7227 0.85911 0.9988 0.0
H1031 H 0.71202 0.85509 0.93801 0.0
H1032 H 0.74211 0.88842 0.02402 0.0
H1033 H 0.76481 0.83459 0.0186 0.0
H1034 H 0.76374 0.84528 0.97744 0.0
H1035 H 0.74807 0.83821 0.99735 0.0
C1036 C 0.74369 0.8678 0.90963 0.0
C1037 C 0.73011 0.86216 0.9068 0.0
C1038 C 0.74975 0.87007 0.94439 0.0
C1039 C 0.74229 0.8668 0.97669 0.0
C1040 C 0.72855 0.86173 0.97403 0.0
H1041 H 0.75347 0.86797 0.21219 0.0
H1042 H 0.74564 0.8719 0.14861 0.0
C1043 C 0.7225 0.85942 0.93933 0.0
C1044 C 0.74921 0.86743 0.01316 0.0
H1045 H 0.76776 0.84728 0.07367 0.0
C1046 C 0.74783 0.87951 0.03493 0.0
C1047 C 0.75673 0.85581 0.02687 0.0
C1048 C 0.75851 0.84268 0.00404 0.0
C1049 C 0.75363 0.88016 0.07068 0.0
C1050 C 0.76069 0.86829 0.08506 0.0
C1051 C 0.76235 0.85637 0.06268 0.0
C1052 C 0.76585 0.86761 0.12378 0.0
C1053 C 0.75219 0.89355 0.09255 0.0
C1054 C 0.77979 0.86378 0.13104 0.0
C1055 C 0.78422 0.86129 0.16734 0.0
C1056 C 0.7748 0.86262 0.19703 0.0
C1057 C 0.76099 0.86695 0.18988 0.0
C1058 C 0.75653 0.86932 0.15354 0.0
H1059 H 0.75088 0.90274 0.07398 0.0
H1060 H 0.74274 0.89287 0.11037 0.0
H1061 H 0.76145 0.89534 0.11056 0.0
H1062 H 0.78714 0.86233 0.10849 0.0
H1063 H 0.79493 0.85798 0.17204 0.0
H1064 H 0.39479 0.46117 0.17889 0.0
H1065 H 0.39125 0.46945 0.24249 0.0
H1066 H 0.38191 0.51083 0.20155 0.0
H1067 H 0.38526 0.50262 0.13778 0.0
H1068 H 0.4062 0.50527 0.25997 0.0
H1069 H 0.35292 0.48555 0.29529 0.0
H1070 H 0.36454 0.47437 0.26926 0.0
H1071 H 0.35785 0.49002 0.24837 0.0
C1072 C 0.39177 0.47198 0.18339 0.0
C1073 C 0.39033 0.48127 0.15342 0.0
C1074 C 0.38972 0.47667 0.21967 0.0
C1075 C 0.38625 0.4907 0.22648 0.0
C1076 C 0.38448 0.49993 0.19665 0.0
H1077 H 0.39248 0.53828 0.43238 0.0
H1078 H 0.38946 0.53174 0.3673 0.0
C1079 C 0.3864 0.49522 0.16033 0.0
C1080 C 0.38576 0.49599 0.26486 0.0
H1081 H 0.36598 0.49599 0.34357 0.0
C1082 C 0.39739 0.50337 0.27827 0.0
C1083 C 0.3743 0.4933 0.28846 0.0
C1084 C 0.36161 0.48542 0.27483 0.0
C1085 C 0.39801 0.5079 0.31518 0.0
C1086 C 0.38647 0.50534 0.33893 0.0
C1087 C 0.37477 0.49804 0.32529 0.0
C1088 C 0.38666 0.50963 0.37842 0.0
C1089 C 0.41126 0.51488 0.32868 0.0
C1090 C 0.3853 0.4995 0.40637 0.0
C1091 C 0.38676 0.50325 0.4436 0.0
C1092 C 0.38967 0.51719 0.45344 0.0
C1093 C 0.3904 0.52743 0.42554 0.0
C1094 C 0.38876 0.52369 0.38836 0.0
H1095 H 0.4203 0.51259 0.31026 0.0
H1096 H 0.40971 0.5264 0.32903 0.0
H1097 H 0.41394 0.51143 0.35719 0.0
H1098 H 0.38359 0.48859 0.39933 0.0
H1099 H 0.38612 0.49515 0.46453 0.0
H1100 H 0.70709 0.15096 0.67294 0.0
H1101 H 0.71551 0.14811 0.60943 0.0
H1102 H 0.753 0.12814 0.65021 0.0
H1103 H 0.74454 0.13078 0.71389 0.0
H1104 H 0.73975 0.16031 0.58385 0.0
H1105 H 0.74163 0.1027 0.56373 0.0
H1106 H 0.73172 0.11084 0.60054 0.0
H1107 H 0.75036 0.10872 0.60486 0.0
C1108 C 0.71701 0.14573 0.66837 0.0
C1109 C 0.72517 0.14112 0.69838 0.0
C1110 C 0.7218 0.14411 0.63207 0.0
C1111 C 0.73482 0.13781 0.62507 0.0
C1112 C 0.7428 0.13278 0.65492 0.0
H1113 H 0.78819 0.15289 0.4364 0.0
H1114 H 0.7781 0.14979 0.49814 0.0
C1115 C 0.73799 0.13438 0.6913 0.0
C1116 C 0.74061 0.13779 0.58698 0.0
H1117 H 0.75328 0.11667 0.51826 0.0
C1118 C 0.74263 0.15076 0.56944 0.0
C1119 C 0.74426 0.12531 0.56816 0.0
C1120 C 0.74178 0.11109 0.58509 0.0
C1121 C 0.74844 0.15162 0.53387 0.0
C1122 C 0.75254 0.13918 0.51555 0.0
C1123 C 0.75025 0.12618 0.53263 0.0
C1124 C 0.75923 0.13964 0.4786 0.0
C1125 C 0.75009 0.16583 0.51605 0.0
C1126 C 0.75216 0.13451 0.44735 0.0
C1127 C 0.7579 0.13625 0.41198 0.0
C1128 C 0.77084 0.14309 0.40743 0.0
C1129 C 0.77817 0.14765 0.43899 0.0
C1130 C 0.77242 0.14592 0.47426 0.0
H1131 H 0.74357 0.17391 0.52998 0.0
H1132 H 0.76121 0.16914 0.51796 0.0
H1133 H 0.74717 0.16543 0.48628 0.0
H1134 H 0.74198 0.1296 0.45023 0.0
H1135 H 0.75204 0.1326 0.38817 0.0
H1136 H 0.89868 0.53683 0.18746 0.0
H1137 H 0.89603 0.52786 0.25053 0.0
H1138 H 0.8766 0.49039 0.20794 0.0
H1139 H 0.8791 0.49935 0.14459 0.0
H1140 H 0.86382 0.50205 0.27494 0.0
H1141 H 0.92147 0.49496 0.28533 0.0
H1142 H 0.91594 0.51225 0.27213 0.0
H1143 H 0.91266 0.49772 0.24169 0.0
C1144 C 0.89368 0.52675 0.19151 0.0
C1145 C 0.88922 0.51872 0.16107 0.0
C1146 C 0.89221 0.52164 0.22754 0.0
C1147 C 0.88632 0.50839 0.23376 0.0
C1148 C 0.88122 0.50063 0.20362 0.0
H1149 H 0.90122 0.45909 0.4311 0.0
H1150 H 0.89761 0.46684 0.36728 0.0
C1151 C 0.88268 0.50575 0.1675 0.0
C1152 C 0.88633 0.50229 0.27145 0.0
H1153 H 0.90833 0.49128 0.33999 0.0
C1154 C 0.87352 0.49964 0.28922 0.0
C1155 C 0.89902 0.49898 0.28967 0.0
C1156 C 0.91307 0.50099 0.2712 0.0
C1157 C 0.87309 0.49403 0.32523 0.0
C1158 C 0.88581 0.49114 0.34386 0.0
C1159 C 0.89859 0.49356 0.32572 0.0
C1160 C 0.88628 0.48564 0.38226 0.0
C1161 C 0.85907 0.49108 0.34282 0.0
C1162 C 0.88092 0.49354 0.41186 0.0
C1163 C 0.88293 0.4891 0.44842 0.0
C1164 C 0.89045 0.47676 0.45593 0.0
C1165 C 0.8954 0.46865 0.42619 0.0
C1166 C 0.89335 0.47307 0.38972 0.0
H1167 H 0.85061 0.4903 0.32176 0.0
H1168 H 0.85935 0.4812 0.35907 0.0
H1169 H 0.85638 0.49977 0.36198 0.0
H1170 H 0.87568 0.50342 0.4068 0.0
H1171 H 0.87906 0.4956 0.4708 0.0
H1172 H 0.2157 0.15297 0.92915 0.0
H1173 H 0.22387 0.14952 0.99269 0.0
H1174 H 0.25997 0.12712 0.95212 0.0
H1175 H 0.25183 0.13048 0.88822 0.0
H1176 H 0.24588 0.11503 0.01794 0.0
H1177 H 0.25891 0.17156 0.03116 0.0
H1178 H 0.24142 0.16791 0.0154 0.0
H1179 H 0.25611 0.16318 0.98692 0.0
C1180 C 0.22531 0.14719 0.93372 0.0
C1181 C 0.23319 0.1421 0.9037 0.0
C1182 C 0.22997 0.14525 0.97002 0.0
C1183 C 0.24259 0.13822 0.97697 0.0
C1184 C 0.25021 0.13261 0.94722 0.0
H1185 H 0.28879 0.14735 0.18235 0.0
H1186 H 0.28234 0.14478 0.11719 0.0
C1187 C 0.24556 0.13456 0.9108 0.0
C1188 C 0.24816 0.13744 0.01518 0.0
H1189 H 0.26004 0.15795 0.08589 0.0
C1190 C 0.24905 0.12438 0.03284 0.0
C1191 C 0.25246 0.14965 0.03422 0.0
C1192 C 0.25232 0.16387 0.01595 0.0
C1193 C 0.25382 0.12325 0.06959 0.0
C1194 C 0.25764 0.13554 0.08907 0.0
C1195 C 0.25704 0.14854 0.07099 0.0
C1196 C 0.26217 0.13533 0.12837 0.0
C1197 C 0.25486 0.10894 0.08708 0.0
C1198 C 0.25305 0.13069 0.15633 0.0
C1199 C 0.25674 0.1321 0.19367 0.0
C1200 C 0.26955 0.13831 0.20362 0.0
C1201 C 0.27884 0.14255 0.17555 0.0
C1202 C 0.27517 0.14108 0.13831 0.0
H1203 H 0.25533 0.10053 0.06585 0.0
H1204 H 0.26425 0.10816 0.10511 0.0
H1205 H 0.24545 0.10709 0.10446 0.0
H1206 H 0.24284 0.12649 0.14935 0.0
H1207 H 0.24935 0.12881 0.21471 0.0
H1208 H 0.59287 0.53007 0.93148 0.0
H1209 H 0.59683 0.52073 0.86946 0.0
H1210 H 0.63241 0.49733 0.90963 0.0
H1211 H 0.6281 0.50623 0.97236 0.0
H1212 H 0.6179 0.52254 0.8223 0.0
H1213 H 0.61032 0.46673 0.8611 0.0
H1214 H 0.60652 0.4809 0.89252 0.0
H1215 H 0.62431 0.47529 0.88538 0.0
C1216 C 0.60156 0.52295 0.92712 0.0
C1217 C 0.61011 0.51878 0.95679 0.0
C1218 C 0.60383 0.51763 0.89163 0.0
C1219 C 0.61476 0.50812 0.88495 0.0
C1220 C 0.62368 0.50435 0.91428 0.0
H1221 H 0.63029 0.48744 0.6501 0.0
H1222 H 0.63445 0.49518 0.71395 0.0
C1223 C 0.62127 0.50952 0.95003 0.0
C1224 C 0.61652 0.50211 0.84728 0.0
H1225 H 0.61581 0.4714 0.79874 0.0
C1226 C 0.61753 0.51135 0.81713 0.0
C1227 C 0.61592 0.4875 0.84058 0.0
C1228 C 0.61408 0.47702 0.87153 0.0
C1229 C 0.61746 0.50646 0.78046 0.0
C1230 C 0.61688 0.49185 0.77374 0.0
C1231 C 0.61636 0.48258 0.80394 0.0
C1232 C 0.61539 0.48603 0.73578 0.0
C1233 C 0.61723 0.51705 0.74939 0.0
C1234 C 0.60372 0.47767 0.72722 0.0
C1235 C 0.60152 0.47298 0.69107 0.0
C1236 C 0.61088 0.47665 0.66266 0.0
C1237 C 0.62284 0.48457 0.67142 0.0
C1238 C 0.62516 0.48909 0.70781 0.0
H1239 H 0.61421 0.52764 0.75934 0.0
H1240 H 0.62786 0.51784 0.73708 0.0
H1241 H 0.6098 0.51386 0.72728 0.0
H1242 H 0.59606 0.47512 0.74832 0.0
H1243 H 0.59221 0.46688 0.68516 0.0
H1244 H 0.24424 0.87783 0.72631 0.0
H1245 H 0.2529 0.8831 0.66385 0.0
H1246 H 0.22818 0.84907 0.61999 0.0
H1247 H 0.21915 0.84414 0.68177 0.0
H1248 H 0.26818 0.86774 0.61928 0.0
H1249 H 0.2185 0.87897 0.54748 0.0
H1250 H 0.21962 0.87788 0.5973 0.0
H1251 H 0.21749 0.86225 0.56979 0.0
C1252 C 0.24052 0.87163 0.70319 0.0
C1253 C 0.23095 0.86064 0.70883 0.0
C1254 C 0.24547 0.87464 0.66756 0.0
C1255 C 0.24097 0.86668 0.63705 0.0
C1256 C 0.23146 0.85567 0.64281 0.0
H1257 H 0.28292 0.84335 0.44004 0.0
H1258 H 0.27538 0.84806 0.50333 0.0
C1259 C 0.22638 0.85278 0.67824 0.0
C1260 C 0.2469 0.86911 0.59956 0.0
H1261 H 0.23768 0.8712 0.50844 0.0
C1262 C 0.26152 0.86876 0.59509 0.0
C1263 C 0.23828 0.87083 0.56799 0.0
C1264 C 0.22262 0.87267 0.57096 0.0
C1265 C 0.26767 0.86915 0.55978 0.0
C1266 C 0.25895 0.86943 0.52805 0.0
C1267 C 0.2444 0.87072 0.53265 0.0
C1268 C 0.26454 0.86735 0.49002 0.0
C1269 C 0.28344 0.86915 0.55699 0.0
C1270 C 0.2607 0.87644 0.4611 0.0
C1271 C 0.26475 0.87357 0.42462 0.0
C1272 C 0.27276 0.86161 0.41648 0.0
C1273 C 0.27688 0.85274 0.44553 0.0
C1274 C 0.27268 0.85549 0.48184 0.0
H1275 H 0.28824 0.87432 0.58149 0.0
H1276 H 0.28726 0.85817 0.55635 0.0
H1277 H 0.2871 0.87459 0.53159 0.0
H1278 H 0.25435 0.8856 0.46666 0.0
H1279 H 0.26141 0.88058 0.40274 0.0
H1280 H 0.6207 0.0019 0.14002 0.0
H1281 H 0.62376 0.99334 0.20356 0.0
H1282 H 0.60245 0.0299 0.24537 0.0
H1283 H 0.59929 0.0385 0.18207 0.0
H1284 H 0.63596 0.00648 0.27066 0.0
H1285 H 0.57894 0.99517 0.2803 0.0
H1286 H 0.58771 0.99811 0.23667 0.0
H1287 H 0.58333 0.01267 0.26599 0.0
C1288 C 0.61684 0.0082 0.1628 0.0
C1289 C 0.60964 0.0208 0.15611 0.0
C1290 C 0.61862 0.00331 0.19901 0.0
C1291 C 0.61316 0.01092 0.22896 0.0
C1292 C 0.60658 0.02382 0.22249 0.0
H1293 H 0.62023 0.00152 0.46589 0.0
H1294 H 0.62326 0.00852 0.40116 0.0
C1295 C 0.60482 0.02873 0.18635 0.0
C1296 C 0.61351 0.00496 0.26676 0.0
H1297 H 0.59218 0.99272 0.3353 0.0
C1298 C 0.62642 0.00341 0.28484 0.0
C1299 C 0.60105 0.00077 0.2848 0.0
C1300 C 0.58696 0.00163 0.26593 0.0
C1301 C 0.62715 0.9981 0.32111 0.0
C1302 C 0.61463 0.99438 0.33962 0.0
C1303 C 0.60177 0.99563 0.32109 0.0
C1304 C 0.61444 0.98946 0.37852 0.0
C1305 C 0.6413 0.9964 0.33919 0.0
C1306 C 0.60848 0.97643 0.38724 0.0
C1307 C 0.60664 0.97245 0.42416 0.0
C1308 C 0.61067 0.98148 0.45301 0.0
C1309 C 0.61707 0.99432 0.44423 0.0
C1310 C 0.61889 0.9983 0.40727 0.0
H1311 H 0.64986 0.99605 0.31836 0.0
H1312 H 0.64325 0.00546 0.35775 0.0
H1313 H 0.64169 0.9867 0.35615 0.0
H1314 H 0.60491 0.96949 0.36544 0.0
H1315 H 0.60168 0.96249 0.43007 0.0
H1316 H 0.24808 0.36575 0.39824 0.0
H1317 H 0.25426 0.36903 0.46356 0.0
H1318 H 0.21189 0.35881 0.49524 0.0
H1319 H 0.20579 0.35509 0.43018 0.0
H1320 H 0.24474 0.38594 0.51946 0.0
H1321 H 0.23415 0.33017 0.55277 0.0
H1322 H 0.23485 0.33658 0.50582 0.0
H1323 H 0.21933 0.33909 0.53337 0.0
C1324 C 0.24006 0.36432 0.41913 0.0
C1325 C 0.2265 0.36 0.40919 0.0
C1326 C 0.2436 0.3662 0.45643 0.0
C1327 C 0.23362 0.36384 0.48434 0.0
C1328 C 0.21986 0.3603 0.47425 0.0
H1329 H 0.23926 0.3618 0.7253 0.0
H1330 H 0.23072 0.36429 0.66157 0.0
C1331 C 0.21637 0.35827 0.43705 0.0
C1332 C 0.23774 0.36454 0.52395 0.0
H1333 H 0.23937 0.34508 0.60326 0.0
C1334 C 0.24356 0.37701 0.5378 0.0
C1335 C 0.2363 0.35284 0.5478 0.0
C1336 C 0.23095 0.33887 0.53417 0.0
C1337 C 0.24784 0.37812 0.57495 0.0
C1338 C 0.2463 0.36645 0.5987 0.0
C1339 C 0.2404 0.35405 0.58498 0.0
C1340 C 0.25135 0.36657 0.63748 0.0
C1341 C 0.25391 0.39176 0.58865 0.0
C1342 C 0.26576 0.36712 0.64495 0.0
C1343 C 0.27066 0.3656 0.68121 0.0
C1344 C 0.26123 0.36352 0.71063 0.0
C1345 C 0.24677 0.36343 0.70322 0.0
C1346 C 0.24188 0.36485 0.66687 0.0
H1347 H 0.25153 0.40058 0.56958 0.0
H1348 H 0.24981 0.39433 0.61664 0.0
H1349 H 0.26546 0.39074 0.59074 0.0
H1350 H 0.27324 0.36821 0.62257 0.0
H1351 H 0.28186 0.36568 0.68606 0.0
H1352 H 0.88798 0.9949 0.97565 0.0
H1353 H 0.88531 0.98782 0.91087 0.0
H1354 H 0.88706 0.03115 0.87716 0.0
H1355 H 0.89026 0.03825 0.94177 0.0
H1356 H 0.86671 0.99328 0.85588 0.0
H1357 H 0.91901 0.01456 0.81893 0.0
H1358 H 0.91314 0.01308 0.86624 0.0
H1359 H 0.90739 0.02748 0.83786 0.0
C1360 C 0.88767 0.00292 0.95444 0.0
C1361 C 0.88952 0.01711 0.96364 0.0
C1362 C 0.88613 0.99887 0.91746 0.0
C1363 C 0.88633 0.00893 0.88912 0.0
C1364 C 0.88729 0.02318 0.89849 0.0
H1365 H 0.88479 0.0014 0.64895 0.0
H1366 H 0.88101 0.00937 0.71272 0.0
C1367 C 0.88902 0.02723 0.93541 0.0
C1368 C 0.8862 0.00445 0.84978 0.0
H1369 H 0.90519 0.00586 0.76964 0.0
C1370 C 0.87511 0.99604 0.83702 0.0
C1371 C 0.89726 0.00794 0.82528 0.0
C1372 C 0.90994 0.01614 0.83779 0.0
C1373 C 0.87476 0.99113 0.80033 0.0
C1374 C 0.88573 0.99477 0.77596 0.0
C1375 C 0.89674 0.00323 0.78851 0.0
C1376 C 0.88637 0.98947 0.73758 0.0
C1377 C 0.86272 0.98211 0.78766 0.0
C1378 C 0.89053 0.97563 0.73068 0.0
C1379 C 0.89284 0.97109 0.69438 0.0
C1380 C 0.89096 0.98032 0.66446 0.0
C1381 C 0.88629 0.99404 0.67145 0.0
C1382 C 0.88412 0.99861 0.70778 0.0
H1383 H 0.85413 0.98173 0.8084 0.0
H1384 H 0.85847 0.9861 0.76102 0.0
H1385 H 0.86652 0.97127 0.7828 0.0
H1386 H 0.89246 0.9685 0.75347 0.0
H1387 H 0.89643 0.96046 0.68981 0.0
H1388 H 0.2487 0.63122 0.88456 0.0
H1389 H 0.23887 0.62864 0.94699 0.0
H1390 H 0.27597 0.6475 0.99343 0.0
H1391 H 0.28582 0.6502 0.9313 0.0
H1392 H 0.24986 0.61535 0.01439 0.0
H1393 H 0.24268 0.67293 0.02661 0.0
H1394 H 0.24578 0.66434 0.9828 0.0
H1395 H 0.26007 0.6675 0.01409 0.0
C1396 C 0.25482 0.63467 0.90812 0.0
C1397 C 0.26797 0.64104 0.90306 0.0
C1398 C 0.24921 0.63317 0.94371 0.0
C1399 C 0.25663 0.63806 0.97464 0.0
C1400 C 0.27002 0.64384 0.96979 0.0
H1401 H 0.24419 0.62953 0.21011 0.0
H1402 H 0.25151 0.62656 0.14561 0.0
C1403 C 0.27564 0.64533 0.9343 0.0
C1404 C 0.25013 0.63788 0.01182 0.0
H1405 H 0.23886 0.65951 0.08088 0.0
C1406 C 0.24737 0.62497 0.02895 0.0
C1407 C 0.24671 0.65047 0.03036 0.0
C1408 C 0.24883 0.66461 0.01249 0.0
C1409 C 0.24164 0.62435 0.06478 0.0
C1410 C 0.23874 0.63697 0.08388 0.0
C1411 C 0.24116 0.64985 0.06625 0.0
C1412 C 0.2335 0.63721 0.1225 0.0
C1413 C 0.23864 0.61023 0.08178 0.0
C1414 C 0.22095 0.64419 0.13092 0.0
C1415 C 0.21681 0.64599 0.16772 0.0
C1416 C 0.22518 0.64091 0.19678 0.0
C1417 C 0.2375 0.63351 0.18828 0.0
C1418 C 0.24165 0.63173 0.15143 0.0
H1419 H 0.23773 0.60193 0.06032 0.0
H1420 H 0.24738 0.60735 0.10057 0.0
H1421 H 0.22883 0.61047 0.09828 0.0
H1422 H 0.21455 0.64856 0.10899 0.0
H1423 H 0.20726 0.65174 0.17341 0.0
H1424 H 0.37174 0.99312 0.9777 0.0
H1425 H 0.36676 0.00177 0.91507 0.0
H1426 H 0.40112 0.97722 0.8724 0.0
H1427 H 0.40577 0.96819 0.93433 0.0
H1428 H 0.38228 0.01717 0.87146 0.0
H1429 H 0.37181 0.9676 0.79823 0.0
H1430 H 0.37261 0.96859 0.84811 0.0
H1431 H 0.38842 0.96667 0.8212 0.0
C1432 C 0.37807 0.98942 0.9548 0.0
C1433 C 0.38908 0.97992 0.96083 0.0
C1434 C 0.37523 0.99437 0.91906 0.0
C1435 C 0.38337 0.98993 0.88882 0.0
C1436 C 0.39438 0.98045 0.89496 0.0
H1437 H 0.40715 0.03295 0.6934 0.0
H1438 H 0.40252 0.02477 0.75615 0.0
C1439 C 0.39711 0.97538 0.9305 0.0
C1440 C 0.38115 0.99593 0.85129 0.0
H1441 H 0.37961 0.98697 0.75986 0.0
C1442 C 0.38144 0.01056 0.84711 0.0
C1443 C 0.37968 0.98739 0.81946 0.0
C1444 C 0.37794 0.97171 0.82205 0.0
C1445 C 0.38119 0.01681 0.81191 0.0
C1446 C 0.38113 0.00819 0.77999 0.0
C1447 C 0.37993 0.99361 0.78424 0.0
C1448 C 0.38329 0.01393 0.74214 0.0
C1449 C 0.3811 0.03259 0.80944 0.0
C1450 C 0.37424 0.01028 0.71296 0.0
C1451 C 0.37706 0.01471 0.67675 0.0
C1452 C 0.38894 0.02292 0.66915 0.0
C1453 C 0.39783 0.02677 0.69846 0.0
C1454 C 0.39511 0.02219 0.73447 0.0
H1455 H 0.37585 0.03729 0.83396 0.0
H1456 H 0.39205 0.03648 0.80902 0.0
H1457 H 0.37568 0.03629 0.78404 0.0
H1458 H 0.36511 0.00382 0.71813 0.0
H1459 H 0.37005 0.01157 0.65467 0.0
H1460 H 0.75103 0.6309 0.39664 0.0
H1461 H 0.75749 0.62841 0.46194 0.0
H1462 H 0.71949 0.64962 0.49409 0.0
H1463 H 0.71305 0.65231 0.42888 0.0
H1464 H 0.74321 0.66096 0.52553 0.0
H1465 H 0.74236 0.60329 0.54479 0.0
H1466 H 0.75266 0.60903 0.506 0.0
H1467 H 0.73404 0.61184 0.50596 0.0
C1468 C 0.74395 0.63484 0.41765 0.0
C1469 C 0.73154 0.64182 0.40768 0.0
C1470 C 0.74762 0.63333 0.45495 0.0
C1471 C 0.73889 0.63869 0.48286 0.0
C1472 C 0.72633 0.64535 0.47296 0.0
H1473 H 0.74742 0.63121 0.72205 0.0
H1474 H 0.73979 0.62909 0.65745 0.0
C1475 C 0.72267 0.64687 0.43571 0.0
C1476 C 0.7434 0.63843 0.52213 0.0
H1477 H 0.7529 0.61673 0.59306 0.0
C1478 C 0.74526 0.65128 0.54035 0.0
C1479 C 0.74596 0.62579 0.54145 0.0
C1480 C 0.74354 0.61169 0.52372 0.0
C1481 C 0.74984 0.65186 0.5772 0.0
C1482 C 0.75286 0.63925 0.59615 0.0
C1483 C 0.75074 0.62637 0.57825 0.0
C1484 C 0.75809 0.63934 0.63474 0.0
C1485 C 0.75128 0.66598 0.59571 0.0
C1486 C 0.77107 0.64545 0.64315 0.0
C1487 C 0.77545 0.64668 0.67993 0.0
C1488 C 0.76692 0.64178 0.70891 0.0
C1489 C 0.75419 0.63512 0.7003 0.0
C1490 C 0.74982 0.63389 0.66346 0.0
H1491 H 0.74544 0.67426 0.58058 0.0
H1492 H 0.74742 0.66559 0.62471 0.0
H1493 H 0.76251 0.669 0.59634 0.0
H1494 H 0.77769 0.64952 0.62128 0.0
H1495 H 0.78535 0.65179 0.68569 0.0
H1496 H 0.13108 0.00828 0.46217 0.0
H1497 H 0.13559 0.00141 0.39778 0.0
H1498 H 0.09814 0.02315 0.36338 0.0
H1499 H 0.09393 0.03047 0.4271 0.0
H1500 H 0.12094 0.98544 0.35366 0.0
H1501 H 0.12479 0.03734 0.2875 0.0
H1502 H 0.12502 0.03521 0.33716 0.0
H1503 H 0.10862 0.03595 0.31239 0.0
C1504 C 0.12394 0.01175 0.44071 0.0
C1505 C 0.11221 0.01999 0.44958 0.0
C1506 C 0.12652 0.00781 0.40397 0.0
C1507 C 0.11737 0.012 0.37552 0.0
C1508 C 0.10562 0.02017 0.38451 0.0
H1509 H 0.09612 0.97054 0.1746 0.0
H1510 H 0.10027 0.97792 0.23831 0.0
C1511 C 0.10316 0.02426 0.42106 0.0
C1512 C 0.11947 0.00707 0.33685 0.0
H1513 H 0.11865 0.01808 0.24694 0.0
C1514 C 0.12068 0.99261 0.33035 0.0
C1515 C 0.1195 0.01639 0.30633 0.0
C1516 C 0.11958 0.03209 0.31126 0.0
C1517 C 0.1211 0.98719 0.29421 0.0
C1518 C 0.11978 0.99643 0.26372 0.0
C1519 C 0.1194 0.01093 0.27022 0.0
C1520 C 0.11792 0.99131 0.22513 0.0
C1521 C 0.12291 0.97159 0.28922 0.0
C1522 C 0.12618 0.99665 0.19615 0.0
C1523 C 0.1236 0.99267 0.15945 0.0
C1524 C 0.11276 0.98322 0.15114 0.0
C1525 C 0.10466 0.97771 0.18019 0.0
C1526 C 0.10711 0.98184 0.21673 0.0
H1527 H 0.12892 0.96698 0.3126 0.0
H1528 H 0.11245 0.96651 0.28886 0.0
H1529 H 0.1284 0.96908 0.26294 0.0
H1530 H 0.13451 0.00405 0.20188 0.0
H1531 H 0.12998 0.9971 0.13758 0.0
H1532 H 0.7524 0.37123 0.22729 0.0
H1533 H 0.76126 0.3739 0.16397 0.0
H1534 H 0.72282 0.35653 0.12112 0.0
H1535 H 0.71399 0.35365 0.18421 0.0
H1536 H 0.74645 0.34318 0.09529 0.0
H1537 H 0.75154 0.40081 0.07908 0.0
H1538 H 0.75979 0.39379 0.11979 0.0
H1539 H 0.74107 0.39288 0.11513 0.0
C1540 C 0.74575 0.36821 0.20432 0.0
C1541 C 0.73252 0.36219 0.21068 0.0
C1542 C 0.75079 0.36982 0.16817 0.0
C1543 C 0.74265 0.36553 0.13784 0.0
C1544 C 0.72925 0.35995 0.14414 0.0
H1545 H 0.75657 0.37294 0.9015 0.0
H1546 H 0.74869 0.37608 0.96558 0.0
C1547 C 0.72423 0.35831 0.1802 0.0
C1548 C 0.74851 0.36558 0.09983 0.0
H1549 H 0.76172 0.38669 0.03182 0.0
C1550 C 0.74976 0.3527 0.08138 0.0
C1551 C 0.75274 0.37802 0.08172 0.0
C1552 C 0.75112 0.39219 0.09974 0.0
C1553 C 0.75518 0.35189 0.04538 0.0
C1554 C 0.75974 0.36428 0.02756 0.0
C1555 C 0.75837 0.3772 0.04578 0.0
C1556 C 0.76553 0.36392 0.98953 0.0
C1557 C 0.75574 0.33779 0.02645 0.0
C1558 C 0.77787 0.35646 0.98199 0.0
C1559 C 0.78236 0.35459 0.94548 0.0
C1560 C 0.77462 0.36026 0.91593 0.0
C1561 C 0.76272 0.36841 0.92371 0.0
C1562 C 0.75821 0.37024 0.96027 0.0
H1563 H 0.74889 0.32998 0.04032 0.0
H1564 H 0.75253 0.33866 0.99697 0.0
H1565 H 0.76665 0.33377 0.02728 0.0
H1566 H 0.78379 0.3517 0.00429 0.0
H1567 H 0.79163 0.34834 0.94037 0.0
H1568 H 0.09375 0.50726 0.42789 0.0
H1569 H 0.10136 0.50004 0.36617 0.0
H1570 H 0.14454 0.5033 0.40014 0.0
H1571 H 0.13697 0.51038 0.4626 0.0
H1572 H 0.13446 0.51899 0.32995 0.0
H1573 H 0.12232 0.46214 0.33419 0.0
H1574 H 0.10918 0.4733 0.35432 0.0
H1575 H 0.12621 0.47225 0.37532 0.0
C1576 C 0.10487 0.50626 0.42242 0.0
C1577 C 0.11478 0.50935 0.44999 0.0
C1578 C 0.10919 0.50211 0.38722 0.0
C1579 C 0.12349 0.50109 0.37882 0.0
C1580 C 0.13346 0.50397 0.40632 0.0
H1581 H 0.13475 0.46988 0.15265 0.0
H1582 H 0.14237 0.47564 0.21573 0.0
C1583 C 0.12912 0.50795 0.44189 0.0
C1584 C 0.12771 0.49783 0.34043 0.0
H1585 H 0.12343 0.47279 0.27414 0.0
C1586 C 0.13243 0.5088 0.31778 0.0
C1587 C 0.12516 0.4845 0.32486 0.0
C1588 C 0.12055 0.47231 0.34843 0.0
C1589 C 0.13358 0.50705 0.27928 0.0
C1590 C 0.12982 0.49406 0.2633 0.0
C1591 C 0.12625 0.48277 0.2864 0.0
C1592 C 0.12744 0.49246 0.223 0.0
C1593 C 0.13822 0.51928 0.25588 0.0
C1594 C 0.11674 0.50023 0.20597 0.0
C1595 C 0.11231 0.4969 0.17021 0.0
C1596 C 0.1185 0.48576 0.15081 0.0
C1597 C 0.12984 0.47858 0.1669 0.0
C1598 C 0.13419 0.48183 0.20291 0.0
H1599 H 0.14504 0.52651 0.2719 0.0
H1600 H 0.14396 0.51571 0.23084 0.0
H1601 H 0.12886 0.52527 0.24679 0.0
H1602 H 0.11119 0.50828 0.22121 0.0
H1603 H 0.10353 0.50258 0.15852 0.0
H1604 H 0.72062 0.84001 0.67428 0.0
H1605 H 0.72852 0.84536 0.61168 0.0
H1606 H 0.74631 0.88429 0.65012 0.0
H1607 H 0.73865 0.87882 0.71347 0.0
H1608 H 0.72242 0.86778 0.56563 0.0
H1609 H 0.77936 0.8652 0.59895 0.0
H1610 H 0.76613 0.85904 0.63068 0.0
H1611 H 0.76906 0.8775 0.62502 0.0
C1612 C 0.72623 0.84971 0.66951 0.0
C1613 C 0.72914 0.85895 0.69881 0.0
C1614 C 0.73067 0.85279 0.63366 0.0
C1615 C 0.73809 0.86516 0.62631 0.0
C1616 C 0.74078 0.87458 0.65534 0.0
H1617 H 0.75875 0.87813 0.38902 0.0
H1618 H 0.74993 0.88365 0.45134 0.0
C1619 C 0.7364 0.87146 0.69143 0.0
C1620 C 0.74328 0.86771 0.58827 0.0
H1621 H 0.77319 0.86766 0.53653 0.0
C1622 C 0.73352 0.868 0.55918 0.0
C1623 C 0.75777 0.86796 0.58011 0.0
C1624 C 0.76874 0.86732 0.6102 0.0
C1625 C 0.73785 0.86772 0.52203 0.0
C1626 C 0.75233 0.86737 0.51393 0.0
C1627 C 0.76209 0.86793 0.54298 0.0
C1628 C 0.75758 0.86448 0.47614 0.0
C1629 C 0.72693 0.86687 0.49188 0.0
C1630 C 0.7649 0.85198 0.46967 0.0
C1631 C 0.76998 0.84887 0.43446 0.0
C1632 C 0.76783 0.85819 0.40492 0.0
C1633 C 0.76046 0.87072 0.41129 0.0
C1634 C 0.75541 0.87387 0.44677 0.0
H1635 H 0.71624 0.86513 0.50316 0.0
H1636 H 0.72686 0.87683 0.476 0.0
H1637 H 0.72943 0.85826 0.47229 0.0
H1638 H 0.76665 0.84458 0.49196 0.0
H1639 H 0.77562 0.83914 0.43045 0.0
H1640 H 0.40128 0.49501 0.66792 0.0
H1641 H 0.39303 0.48891 0.72981 0.0
H1642 H 0.35494 0.51214 0.71087 0.0
H1643 H 0.36314 0.51824 0.64842 0.0
H1644 H 0.37035 0.5206 0.77383 0.0
H1645 H 0.36267 0.46321 0.77382 0.0
H1646 H 0.37883 0.46813 0.75198 0.0
H1647 H 0.36244 0.47354 0.73183 0.0
C1648 C 0.39098 0.49851 0.67654 0.0
C1649 C 0.38286 0.50712 0.65347 0.0
C1650 C 0.38624 0.49494 0.71182 0.0
C1651 C 0.37331 0.49995 0.72474 0.0
C1652 C 0.36488 0.50806 0.7012 0.0
H1653 H 0.36398 0.47791 0.96045 0.0
H1654 H 0.35541 0.48386 0.89818 0.0
C1655 C 0.36956 0.5115 0.66559 0.0
C1656 C 0.36981 0.4983 0.76441 0.0
H1657 H 0.3694 0.47365 0.83274 0.0
C1658 C 0.36971 0.51035 0.78671 0.0
C1659 C 0.36879 0.48495 0.78113 0.0
C1660 C 0.36804 0.47173 0.75837 0.0
C1661 C 0.37 0.50932 0.82546 0.0
C1662 C 0.37047 0.49593 0.84207 0.0
C1663 C 0.36918 0.48392 0.81989 0.0
C1664 C 0.37459 0.49409 0.88124 0.0
C1665 C 0.37058 0.52254 0.84827 0.0
C1666 C 0.38814 0.49798 0.89223 0.0
C1667 C 0.39308 0.49447 0.92734 0.0
C1668 C 0.38454 0.48707 0.9522 0.0
C1669 C 0.37074 0.48372 0.94185 0.0
C1670 C 0.36584 0.48708 0.90638 0.0
H1671 H 0.36573 0.53149 0.83331 0.0
H1672 H 0.36517 0.52114 0.87526 0.0
H1673 H 0.38169 0.52524 0.85383 0.0
H1674 H 0.39513 0.50317 0.87298 0.0
H1675 H 0.40377 0.49716 0.93459 0.0
H1676 H 0.75975 0.12318 0.21705 0.0
H1677 H 0.75186 0.11641 0.15475 0.0
H1678 H 0.77245 0.15276 0.10912 0.0
H1679 H 0.78056 0.15935 0.17061 0.0
H1680 H 0.73498 0.13035 0.10855 0.0
H1681 H 0.78579 0.12294 0.03895 0.0
H1682 H 0.78423 0.12388 0.08876 0.0
H1683 H 0.78543 0.13967 0.06147 0.0
C1684 C 0.76268 0.12962 0.1936 0.0
C1685 C 0.7708 0.14176 0.19864 0.0
C1686 C 0.75821 0.12573 0.15809 0.0
C1687 C 0.76187 0.13389 0.12715 0.0
C1688 C 0.7699 0.14604 0.13234 0.0
H1689 H 0.72084 0.15894 0.93642 0.0
H1690 H 0.72935 0.15277 0.99778 0.0
C1691 C 0.7744 0.14989 0.16762 0.0
C1692 C 0.75641 0.13056 0.08972 0.0
H1693 H 0.76635 0.12995 0.99892 0.0
C1694 C 0.74185 0.12992 0.08464 0.0
C1695 C 0.76535 0.1296 0.05851 0.0
C1696 C 0.78107 0.12889 0.06229 0.0
C1697 C 0.73599 0.12964 0.04902 0.0
C1698 C 0.74493 0.13037 0.01779 0.0
C1699 C 0.75948 0.12969 0.02287 0.0
C1700 C 0.73945 0.13356 0.98031 0.0
C1701 C 0.72026 0.12901 0.04526 0.0
C1702 C 0.74273 0.12507 0.94971 0.0
C1703 C 0.738 0.1287 0.91422 0.0
C1704 C 0.73001 0.14091 0.90893 0.0
C1705 C 0.72688 0.14941 0.93961 0.0
C1706 C 0.73162 0.14581 0.97483 0.0
H1707 H 0.71549 0.1233 0.06893 0.0
H1708 H 0.71599 0.13982 0.04538 0.0
H1709 H 0.71707 0.12379 0.01908 0.0
H1710 H 0.74893 0.11566 0.95329 0.0
H1711 H 0.74058 0.12198 0.89103 0.0
H1712 H 0.90099 0.50232 0.66101 0.0
H1713 H 0.89385 0.50906 0.72341 0.0
H1714 H 0.85903 0.48032 0.71778 0.0
H1715 H 0.8662 0.47342 0.65501 0.0
H1716 H 0.86789 0.51924 0.75553 0.0
H1717 H 0.88353 0.46619 0.80572 0.0
H1718 H 0.88856 0.47251 0.76051 0.0
H1719 H 0.87079 0.46734 0.76911 0.0
C1720 C 0.89164 0.49763 0.67271 0.0
C1721 C 0.88423 0.48725 0.65332 0.0
C1722 C 0.88756 0.5015 0.70834 0.0
C1723 C 0.87605 0.49503 0.72534 0.0
C1724 C 0.86806 0.48531 0.70523 0.0
H1725 H 0.87105 0.50281 0.96929 0.0
H1726 H 0.86336 0.49625 0.90654 0.0
C1727 C 0.87211 0.48145 0.66935 0.0
C1728 C 0.87345 0.49768 0.76513 0.0
H1729 H 0.87979 0.48354 0.85039 0.0
C1730 C 0.87016 0.51136 0.77634 0.0
C1731 C 0.87635 0.48735 0.7922 0.0
C1732 C 0.88007 0.47252 0.78155 0.0
C1733 C 0.87053 0.51519 0.81384 0.0
C1734 C 0.87456 0.50515 0.84059 0.0
C1735 C 0.87677 0.49122 0.82972 0.0
C1736 C 0.87858 0.50932 0.87863 0.0
C1737 C 0.86717 0.53011 0.82434 0.0
C1738 C 0.88984 0.51856 0.88355 0.0
C1739 C 0.89429 0.5222 0.91901 0.0
C1740 C 0.88761 0.51663 0.95039 0.0
C1741 C 0.87638 0.50726 0.94556 0.0
C1742 C 0.87195 0.50355 0.90984 0.0
H1743 H 0.85989 0.53497 0.80404 0.0
H1744 H 0.86241 0.5307 0.85237 0.0
H1745 H 0.87698 0.53636 0.82442 0.0
H1746 H 0.89534 0.52283 0.85985 0.0
H1747 H 0.903 0.52941 0.92176 0.0
H1748 H 0.22947 0.11405 0.71173 0.0
H1749 H 0.2352 0.10502 0.64979 0.0
H1750 H 0.25642 0.14374 0.62427 0.0
H1751 H 0.2508 0.15274 0.68567 0.0
H1752 H 0.22588 0.11763 0.58479 0.0
H1753 H 0.2836 0.11442 0.58422 0.0
H1754 H 0.27352 0.11496 0.62658 0.0
H1755 H 0.27777 0.13091 0.60236 0.0
C1756 C 0.23567 0.12046 0.69318 0.0
C1757 C 0.2397 0.13409 0.70345 0.0
C1758 C 0.23889 0.11531 0.65784 0.0
C1759 C 0.24639 0.12364 0.63262 0.0
C1760 C 0.2509 0.13701 0.64353 0.0
H1761 H 0.24458 0.14723 0.41527 0.0
H1762 H 0.23894 0.13954 0.47785 0.0
C1763 C 0.2476 0.14218 0.67858 0.0
C1764 C 0.24816 0.1193 0.59349 0.0
H1765 H 0.27256 0.11895 0.52455 0.0
C1766 C 0.23611 0.11752 0.5717 0.0
C1767 C 0.26149 0.11888 0.57647 0.0
C1768 C 0.27483 0.11974 0.59874 0.0
C1769 C 0.237 0.11668 0.53294 0.0
C1770 C 0.25025 0.11784 0.51568 0.0
C1771 C 0.26237 0.11825 0.53771 0.0
C1772 C 0.2517 0.1208 0.47554 0.0
C1773 C 0.22369 0.11516 0.51079 0.0
C1774 C 0.26066 0.11276 0.45316 0.0
C1775 C 0.26393 0.11718 0.41719 0.0
C1776 C 0.25845 0.12981 0.40336 0.0
C1777 C 0.24893 0.13743 0.42513 0.0
C1778 C 0.24561 0.13298 0.46087 0.0
H1779 H 0.21563 0.10929 0.52667 0.0
H1780 H 0.21938 0.12572 0.50477 0.0
H1781 H 0.2256 0.10969 0.48411 0.0
H1782 H 0.26557 0.10339 0.46408 0.0
H1783 H 0.27137 0.11115 0.40109 0.0
H1784 H 0.6291 0.50338 0.14685 0.0
H1785 H 0.63703 0.49644 0.20902 0.0
H1786 H 0.60527 0.52277 0.25782 0.0
H1787 H 0.59745 0.52982 0.19634 0.0
H1788 H 0.6325 0.52562 0.29013 0.0
H1789 H 0.61509 0.46998 0.27908 0.0
H1790 H 0.62658 0.47666 0.24374 0.0
H1791 H 0.60903 0.48325 0.24729 0.0
C1792 C 0.62382 0.50764 0.1709 0.0
C1793 C 0.61261 0.51707 0.16678 0.0
C1794 C 0.62834 0.50367 0.2063 0.0
C1795 C 0.62168 0.50905 0.23793 0.0
C1796 C 0.61058 0.51853 0.23374 0.0
H1797 H 0.60405 0.50496 0.46078 0.0
H1798 H 0.61067 0.51201 0.39826 0.0
C1799 C 0.60607 0.52249 0.19857 0.0
C1800 C 0.62583 0.50475 0.27573 0.0
H1801 H 0.6223 0.4779 0.33734 0.0
C1802 C 0.63054 0.51511 0.30037 0.0
C1803 C 0.62339 0.49101 0.28886 0.0
C1804 C 0.61818 0.47954 0.26358 0.0
C1805 C 0.63208 0.5123 0.33829 0.0
C1806 C 0.62862 0.49886 0.35186 0.0
C1807 C 0.62492 0.48822 0.32682 0.0
C1808 C 0.62668 0.49613 0.3919 0.0
C1809 C 0.63693 0.52388 0.36365 0.0
C1810 C 0.6336 0.48494 0.4093 0.0
C1811 C 0.62981 0.48088 0.44517 0.0
C1812 C 0.61891 0.48782 0.46385 0.0
C1813 C 0.61251 0.49945 0.44709 0.0
C1814 C 0.61636 0.50355 0.41142 0.0
H1815 H 0.6437 0.53147 0.34867 0.0
H1816 H 0.62766 0.52969 0.37412 0.0
H1817 H 0.6428 0.51967 0.38776 0.0
H1818 H 0.64151 0.47901 0.39454 0.0
H1819 H 0.63487 0.47183 0.45737 0.0
H1820 H 0.24567 0.87838 0.89958 0.0
H1821 H 0.25243 0.88602 0.96214 0.0
H1822 H 0.2263 0.85376 0.00934 0.0
H1823 H 0.21943 0.84622 0.94747 0.0
H1824 H 0.22312 0.88075 0.0426 0.0
H1825 H 0.27896 0.86402 0.03186 0.0
H1826 H 0.27227 0.87561 0.99677 0.0
H1827 H 0.26581 0.85799 -0.00035 0.0
C1828 C 0.24142 0.87293 0.92336 0.0
C1829 C 0.23209 0.86166 0.91868 0.0
C1830 C 0.24529 0.87728 0.959 0.0
C1831 C 0.23991 0.87039 0.99028 0.0
C1832 C 0.23053 0.85923 0.98554 0.0
H1833 H 0.24398 0.85262 0.21368 0.0
H1834 H 0.23698 0.85894 0.1509 0.0
C1835 C 0.22667 0.8549 0.95014 0.0
C1836 C 0.24409 0.8744 0.02829 0.0
H1837 H 0.2709 0.8711 0.09013 0.0
C1838 C 0.23363 0.8789 0.05292 0.0
C1839 C 0.25783 0.8721 0.04153 0.0
C1840 C 0.2694 0.8671 0.01629 0.0
C1841 C 0.23637 0.8804 0.09089 0.0
C1842 C 0.24984 0.87711 0.10453 0.0
C1843 C 0.26056 0.87359 0.07954 0.0
C1844 C 0.25257 0.87525 0.14459 0.0
C1845 C 0.22469 0.88504 0.11622 0.0
C1846 C 0.26358 0.88242 0.16207 0.0
C1847 C 0.26761 0.8788 0.1981 0.0
C1848 C 0.26082 0.86782 0.21685 0.0
C1849 C 0.24937 0.86115 0.19994 0.0
C1850 C 0.24531 0.86482 0.16413 0.0
H1851 H 0.21698 0.89167 0.10122 0.0
H1852 H 0.21906 0.87566 0.12669 0.0
H1853 H 0.22879 0.89099 0.14033 0.0
H1854 H 0.2694 0.89041 0.14731 0.0
H1855 H 0.27653 0.88406 0.21041 0.0
H1856 H 0.63647 0.98569 0.64657 0.0
H1857 H 0.64461 0.99218 0.70893 0.0
H1858 H 0.60284 0.00571 0.73707 0.0
H1859 H 0.59468 0.99929 0.67534 0.0
H1860 H 0.62605 0.02386 0.76217 0.0
H1861 H 0.63148 0.9674 0.79955 0.0
H1862 H 0.64021 0.97394 0.75882 0.0
H1863 H 0.62146 0.97285 0.75967 0.0
C1864 C 0.62912 0.99031 0.6659 0.0
C1865 C 0.61493 0.9919 0.65631 0.0
C1866 C 0.63377 0.99394 0.70145 0.0
C1867 C 0.62428 0.99929 0.72756 0.0
C1868 C 0.61031 0.0016 0.71725 0.0
H1869 H 0.59724 0.00184 0.94008 0.0
H1870 H 0.60541 0.99646 0.87764 0.0
C1871 C 0.60566 0.99789 0.68202 0.0
C1872 C 0.62828 0.00151 0.76666 0.0
H1873 H 0.63095 0.98363 0.84821 0.0
C1874 C 0.62758 0.01514 0.78102 0.0
C1875 C 0.63017 0.99005 0.79095 0.0
C1876 C 0.63085 0.97519 0.77675 0.0
C1877 C 0.62768 0.01754 0.81937 0.0
C1878 C 0.62859 0.00597 0.84376 0.0
C1879 C 0.63033 0.99244 0.82931 0.0
C1880 C 0.6251 0.00748 0.88345 0.0
C1881 C 0.62565 0.03227 0.83357 0.0
C1882 C 0.63372 0.01504 0.90779 0.0
C1883 C 0.62907 0.01811 0.94369 0.0
C1884 C 0.61573 0.0137 0.95546 0.0
C1885 C 0.60753 0.00543 0.93169 0.0
C1886 C 0.6122 0.00232 0.89606 0.0
H1887 H 0.62396 0.03993 0.8108 0.0
H1888 H 0.61651 0.0327 0.85259 0.0
H1889 H 0.63505 0.03555 0.84945 0.0
H1890 H 0.64376 0.01901 0.89857 0.0
H1891 H 0.6356 0.0245 0.96149 0.0
H1892 H 0.2492 0.34908 0.19462 0.0
H1893 H 0.25422 0.35708 0.13192 0.0
H1894 H 0.22859 0.39369 0.14974 0.0
H1895 H 0.22339 0.38562 0.21285 0.0
H1896 H 0.22116 0.37909 0.08715 0.0
H1897 H 0.27831 0.38779 0.08737 0.0
H1898 H 0.27407 0.37108 0.10709 0.0
H1899 H 0.26817 0.38687 0.12958 0.0
C1900 C 0.2449 0.35901 0.18557 0.0
C1901 C 0.23591 0.36672 0.20863 0.0
C1902 C 0.24785 0.36362 0.14974 0.0
C1903 C 0.24191 0.37607 0.13626 0.0
C1904 C 0.23336 0.38411 0.15972 0.0
H1905 H 0.26737 0.38948 0.90595 0.0
H1906 H 0.26066 0.39613 0.96904 0.0
C1907 C 0.23045 0.37952 0.19578 0.0
C1908 C 0.24347 0.37964 0.0965 0.0
H1909 H 0.26802 0.38144 0.0281 0.0
C1910 C 0.2314 0.37995 0.07426 0.0
C1911 C 0.25677 0.38104 0.07971 0.0
C1912 C 0.27004 0.38183 0.10229 0.0
C1913 C 0.23235 0.38047 0.03547 0.0
C1914 C 0.24573 0.38042 0.01856 0.0
C1915 C 0.25774 0.38128 0.04094 0.0
C1916 C 0.24764 0.37789 0.97829 0.0
C1917 C 0.21903 0.3807 0.01303 0.0
C1918 C 0.24228 0.36562 0.96215 0.0
C1919 C 0.24601 0.36186 0.92608 0.0
C1920 C 0.25534 0.3702 0.90562 0.0
C1921 C 0.26014 0.38285 0.92104 0.0
C1922 C 0.25634 0.38665 0.95711 0.0
H1923 H 0.21046 0.386 0.02846 0.0
H1924 H 0.22053 0.38611 0.98608 0.0
H1925 H 0.21562 0.36978 0.00758 0.0
H1926 H 0.23585 0.3585 0.97816 0.0
H1927 H 0.24222 0.352 0.91507 0.0
H1928 H 0.90385 0.99965 0.44974 0.0
H1929 H 0.89571 0.00534 0.38745 0.0
H1930 H 0.85813 0.98122 0.40587 0.0
H1931 H 0.86622 0.97553 0.4687 0.0
H1932 H 0.87389 0.97331 0.34249 0.0
H1933 H 0.86453 0.03047 0.34453 0.0
H1934 H 0.88081 0.02582 0.36614 0.0
H1935 H 0.86457 0.01991 0.38613 0.0
C1936 C 0.8937 0.99584 0.44088 0.0
C1937 C 0.88567 0.98715 0.46398 0.0
C1938 C 0.88902 0.99916 0.40537 0.0
C1939 C 0.87625 0.99382 0.39225 0.0
C1940 C 0.86795 0.98555 0.4157 0.0
H1941 H 0.86478 0.01752 0.1587 0.0
H1942 H 0.85699 0.01081 0.2211 0.0
C1943 C 0.87256 0.98234 0.45152 0.0
C1944 C 0.87269 0.99553 0.35264 0.0
H1945 H 0.87107 0.02046 0.28517 0.0
C1946 C 0.87286 0.98359 0.32995 0.0
C1947 C 0.87116 0.00891 0.3364 0.0
C1948 C 0.87011 0.022 0.35963 0.0
C1949 C 0.87286 0.9848 0.29122 0.0
C1950 C 0.87278 0.99827 0.27501 0.0
C1951 C 0.87128 0.01013 0.29768 0.0
C1952 C 0.87638 0.00045 0.23558 0.0
C1953 C 0.87363 0.97169 0.26801 0.0
C1954 C 0.88978 0.9967 0.22308 0.0
C1955 C 0.89428 0.00061 0.18781 0.0
C1956 C 0.88544 0.00831 0.16435 0.0
C1957 C 0.87177 0.0115 0.17617 0.0
C1958 C 0.86732 0.00771 0.21175 0.0
H1959 H 0.869 0.96259 0.28281 0.0
H1960 H 0.86813 0.97308 0.24115 0.0
H1961 H 0.88478 0.96922 0.26221 0.0
H1962 H 0.89705 0.99135 0.2413 0.0
H1963 H 0.90487 0.99804 0.17945 0.0
H1964 H 0.27814 0.65658 0.6654 0.0
H1965 H 0.27126 0.64921 0.60339 0.0
H1966 H 0.24911 0.61386 0.64937 0.0
H1967 H 0.25586 0.62132 0.71208 0.0
H1968 H 0.27693 0.62318 0.5677 0.0
H1969 H 0.21971 0.63357 0.58312 0.0
H1970 H 0.23242 0.64061 0.61515 0.0
H1971 H 0.22799 0.62235 0.61667 0.0
C1972 C 0.27175 0.64726 0.66244 0.0
C1973 C 0.26747 0.63957 0.6936 0.0
C1974 C 0.26789 0.64303 0.62696 0.0
C1975 C 0.25964 0.63103 0.62184 0.0
C1976 C 0.25535 0.62324 0.65282 0.0
H1977 H 0.22391 0.61691 0.40009 0.0
H1978 H 0.23176 0.61018 0.46243 0.0
C1979 C 0.25922 0.6275 0.68854 0.0
C1980 C 0.25554 0.62704 0.58375 0.0
H1981 H 0.228 0.62842 0.52362 0.0
C1982 C 0.26619 0.62404 0.55813 0.0
C1983 C 0.24151 0.62804 0.57147 0.0
C1984 C 0.2297 0.63138 0.59784 0.0
C1985 C 0.2633 0.62289 0.52018 0.0
C1986 C 0.24945 0.62496 0.5076 0.0
C1987 C 0.23863 0.62687 0.53345 0.0
C1988 C 0.24629 0.62745 0.46803 0.0
C1989 C 0.27519 0.62005 0.49369 0.0
C1990 C 0.252 0.63926 0.45052 0.0
C1991 C 0.24748 0.64317 0.4153 0.0
C1992 C 0.23718 0.63532 0.39688 0.0
C1993 C 0.23195 0.62308 0.4136 0.0
C1994 C 0.23638 0.61925 0.44916 0.0
H1995 H 0.28379 0.6142 0.5075 0.0
H1996 H 0.27156 0.61398 0.46926 0.0
H1997 H 0.27953 0.63016 0.48379 0.0
H1998 H 0.25944 0.64589 0.46488 0.0
H1999 H 0.25165 0.65267 0.4031 0.0
H2000 H 0.40215 0.96695 0.20004 0.0
H2001 H 0.395 0.97401 0.26203 0.0
H2002 H 0.36601 0.00387 0.21549 0.0
H2003 H 0.37326 0.99687 0.15275 0.0
H2004 H 0.38299 0.01487 0.27123 0.0
H2005 H 0.35895 0.9653 0.31814 0.0
H2006 H 0.37604 0.96251 0.29887 0.0
H2007 H 0.36218 0.96908 0.26983 0.0
C2008 C 0.39419 0.97497 0.20287 0.0
C2009 C 0.38825 0.98135 0.17152 0.0
C2010 C 0.39002 0.97889 0.23837 0.0
C2011 C 0.37974 0.98922 0.24336 0.0
C2012 C 0.37383 0.99573 0.21216 0.0
H2013 H 0.36614 0.0277 0.46311 0.0
H2014 H 0.36026 0.02053 0.39968 0.0
C2015 C 0.378 0.99177 0.17644 0.0
C2016 C 0.37609 0.99375 0.28139 0.0
H2017 H 0.36753 0.98072 0.3665 0.0
C2018 C 0.37925 0.00754 0.29195 0.0
C2019 C 0.37114 0.98416 0.30826 0.0
C2020 C 0.36674 0.96948 0.29811 0.0
C2021 C 0.37869 0.01167 0.32925 0.0
C2022 C 0.37469 0.00177 0.35647 0.0
C2023 C 0.37065 0.98826 0.34557 0.0
C2024 C 0.37646 0.00471 0.39644 0.0
C2025 C 0.38333 0.02627 0.33958 0.0
C2026 C 0.38704 0.99773 0.41606 0.0
C2027 C 0.39038 0.00176 0.45214 0.0
C2028 C 0.38314 0.0128 0.46931 0.0
C2029 C 0.3719 0.01916 0.45053 0.0
C2030 C 0.36859 0.01514 0.41427 0.0
H2031 H 0.38787 0.03203 0.31566 0.0
H2032 H 0.3742 0.0323 0.34998 0.0
H2033 H 0.39126 0.02587 0.36207 0.0
H2034 H 0.3932 0.98963 0.40277 0.0
H2035 H 0.39906 0.99664 0.46596 0.0
H2036 H 0.73008 0.61198 0.21491 0.0
H2037 H 0.73545 0.60286 0.15292 0.0
H2038 H 0.76057 0.63947 0.13066 0.0
H2039 H 0.75528 0.64858 0.19216 0.0
H2040 H 0.72718 0.61727 0.09041 0.0
H2041 H 0.78424 0.6084 0.08525 0.0
H2042 H 0.77464 0.60919 0.12839 0.0
H2043 H 0.78036 0.62504 0.10589 0.0
C2044 C 0.73711 0.61784 0.19716 0.0
C2045 C 0.74224 0.63101 0.20821 0.0
C2046 C 0.74013 0.61263 0.16179 0.0
C2047 C 0.74854 0.6204 0.13736 0.0
C2048 C 0.75433 0.63314 0.14931 0.0
H2049 H 0.7477 0.65063 0.92835 0.0
H2050 H 0.74225 0.64143 0.98965 0.0
C2051 C 0.75121 0.6384 0.18439 0.0
C2052 C 0.7496 0.61657 0.09772 0.0
H2053 H 0.77327 0.61575 0.02708 0.0
C2054 C 0.73725 0.61648 0.07659 0.0
C2055 C 0.76268 0.61529 0.07971 0.0
C2056 C 0.77621 0.61433 0.1011 0.0
C2057 C 0.73774 0.61666 0.03776 0.0
C2058 C 0.75089 0.61707 0.01983 0.0
C2059 C 0.76318 0.61564 0.04087 0.0
C2060 C 0.75225 0.62136 0.98061 0.0
C2061 C 0.72419 0.61719 0.01634 0.0
C2062 C 0.75961 0.61309 0.95502 0.0
C2063 C 0.76272 0.61834 0.91973 0.0
C2064 C 0.75872 0.63203 0.90996 0.0
C2065 C 0.75088 0.64004 0.93512 0.0
C2066 C 0.74767 0.63475 0.97008 0.0
H2067 H 0.71562 0.61188 0.03174 0.0
H2068 H 0.72108 0.6283 0.01234 0.0
H2069 H 0.7253 0.61222 0.98868 0.0
H2070 H 0.76337 0.60279 0.96281 0.0
H2071 H 0.76888 0.61199 0.90092 0.0
H2072 H 0.13994 0.98199 0.95611 0.0
H2073 H 0.1484 0.98786 0.89379 0.0
H2074 H 0.10992 0.01008 0.87208 0.0
H2075 H 0.10151 0.00439 0.934 0.0
H2076 H 0.13548 0.97899 0.83046 0.0
H2077 H 0.13873 0.03666 0.82899 0.0
H2078 H 0.13825 0.0267 0.87156 0.0
H2079 H 0.12226 0.03106 0.84767 0.0
C2080 C 0.13347 0.98845 0.93834 0.0
C2081 C 0.12006 0.99273 0.94985 0.0
C2082 C 0.1383 0.99176 0.90277 0.0
C2083 C 0.12987 0.99956 0.87846 0.0
C2084 C 0.11675 0.00434 0.89062 0.0
H2085 H 0.10486 0.99674 0.6616 0.0
H2086 H 0.11289 0.99144 0.72407 0.0
C2087 C 0.1119 0.001 0.92597 0.0
C2088 C 0.13378 0.00129 0.83898 0.0
H2089 H 0.13344 0.02554 0.76969 0.0
C2090 C 0.13542 0.9892 0.81724 0.0
C2091 C 0.13401 0.01458 0.82175 0.0
C2092 C 0.13337 0.02798 0.84384 0.0
C2093 C 0.13596 0.99 0.77844 0.0
C2094 C 0.13457 0.00321 0.76107 0.0
C2095 C 0.13429 0.01538 0.78295 0.0
C2096 C 0.13137 0.00456 0.72104 0.0
C2097 C 0.13743 0.97665 0.75644 0.0
C2098 C 0.13913 0.01364 0.69831 0.0
C2099 C 0.1345 0.01674 0.66243 0.0
C2100 C 0.12194 0.01095 0.64901 0.0
C2101 C 0.1146 0.00133 0.67113 0.0
C2102 C 0.11925 0.9982 0.70681 0.0
H2103 H 0.14355 0.96872 0.77208 0.0
H2104 H 0.12687 0.97219 0.75123 0.0
H2105 H 0.14262 0.97855 0.72937 0.0
H2106 H 0.14844 0.01875 0.70886 0.0
H2107 H 0.14032 0.02426 0.64606 0.0
H2108 H 0.7781 0.3842 0.71468 0.0
H2109 H 0.77078 0.39144 0.65236 0.0
H2110 H 0.73988 0.35845 0.65112 0.0
H2111 H 0.74705 0.35126 0.71304 0.0
H2112 H 0.77326 0.37369 0.59247 0.0
H2113 H 0.71829 0.39082 0.60562 0.0
H2114 H 0.73002 0.38994 0.64486 0.0
H2115 H 0.72106 0.37446 0.62886 0.0
C2116 C 0.76946 0.37878 0.7015 0.0
C2117 C 0.76315 0.36715 0.71861 0.0
C2118 C 0.76532 0.3829 0.66591 0.0
C2119 C 0.75468 0.37559 0.64729 0.0
C2120 C 0.74789 0.36446 0.66525 0.0
H2121 H 0.72409 0.34622 0.44931 0.0
H2122 H 0.73073 0.35375 0.51137 0.0
C2123 C 0.75207 0.36029 0.70058 0.0
C2124 C 0.75187 0.3781 0.60748 0.0
H2125 H 0.72489 0.38079 0.54596 0.0
C2126 C 0.76278 0.37568 0.58215 0.0
C2127 C 0.7382 0.38074 0.59414 0.0
C2128 C 0.72627 0.38429 0.61986 0.0
C2129 C 0.76011 0.37455 0.54401 0.0
C2130 C 0.74622 0.37604 0.53106 0.0
C2131 C 0.73552 0.37955 0.55607 0.0
C2132 C 0.74225 0.37199 0.49294 0.0
C2133 C 0.77194 0.37072 0.51819 0.0
C2134 C 0.74656 0.37977 0.46197 0.0
C2135 C 0.7428 0.37544 0.42622 0.0
C2136 C 0.73467 0.3633 0.42112 0.0
C2137 C 0.73039 0.3556 0.45229 0.0
C2138 C 0.73412 0.35992 0.4878 0.0
H2139 H 0.78187 0.36864 0.53325 0.0
H2140 H 0.76913 0.36127 0.50183 0.0
H2141 H 0.77376 0.37943 0.49841 0.0
H2142 H 0.75276 0.38918 0.46548 0.0
H2143 H 0.74617 0.38162 0.40268 0.0
H2144 H 0.10055 0.43286 0.1586 0.0
H2145 H 0.11244 0.41294 0.18706 0.0
H2146 H 0.12462 0.39801 0.07892 0.0
H2147 H 0.11326 0.41833 0.05034 0.0
H2148 H 0.11186 0.38476 0.18471 0.0
H2149 H 0.16212 0.40419 0.12622 0.0
H2150 H 0.14612 0.41412 0.1233 0.0
H2151 H 0.14927 0.39982 0.09188 0.0
C2152 C 0.10555 0.4252 0.14081 0.0
C2153 C 0.10618 0.42725 0.1023 0.0
C2154 C 0.11234 0.41381 0.15713 0.0
C2155 C 0.11976 0.40419 0.1352 0.0
C2156 C 0.11933 0.40554 0.09646 0.0
H2157 H 0.18192 0.34293 0.20801 0.0
H2158 H 0.16247 0.35318 0.17307 0.0
C2159 C 0.11275 0.41709 0.08014 0.0
C2160 C 0.1289 0.39361 0.15324 0.0
H2161 H 0.16315 0.38385 0.16254 0.0
C2162 C 0.12306 0.38447 0.17963 0.0
C2163 C 0.14355 0.39333 0.14687 0.0
C2164 C 0.15068 0.40347 0.12083 0.0
C2165 C 0.13151 0.37524 0.20013 0.0
C2166 C 0.14611 0.37513 0.19394 0.0
C2167 C 0.15189 0.38391 0.16685 0.0
C2168 C 0.15588 0.36697 0.21729 0.0
C2169 C 0.12486 0.3658 0.22863 0.0
C2170 C 0.15839 0.37115 0.25394 0.0
C2171 C 0.16958 0.36544 0.27383 0.0
C2172 C 0.17839 0.35541 0.25736 0.0
C2173 C 0.17529 0.3506 0.22147 0.0
C2174 C 0.16419 0.35643 0.20147 0.0
H2175 H 0.11335 0.36495 0.22467 0.0
H2176 H 0.12954 0.35516 0.22748 0.0
H2177 H 0.12685 0.37014 0.25669 0.0
H2178 H 0.15222 0.37943 0.26641 0.0
H2179 H 0.17174 0.36936 0.30142 0.0
H2180 H 0.91261 0.9269 0.4847 0.0
H2181 H 0.90301 0.908 0.44633 0.0
H2182 H 0.86373 0.91097 0.50498 0.0
H2183 H 0.87338 0.92942 0.54407 0.0
H2184 H 0.86978 0.8841 0.48703 0.0
H2185 H 0.87638 0.91874 0.36415 0.0
H2186 H 0.89221 0.91417 0.38814 0.0
H2187 H 0.87928 0.92487 0.41073 0.0
C2188 C 0.90204 0.92328 0.48993 0.0
C2189 C 0.89368 0.92976 0.51705 0.0
C2190 C 0.89653 0.91256 0.4678 0.0
C2191 C 0.88253 0.90834 0.4721 0.0
C2192 C 0.87454 0.91411 0.50098 0.0
H2193 H 0.81634 0.8869 0.3336 0.0
H2194 H 0.83613 0.89677 0.36722 0.0
C2195 C 0.88007 0.92468 0.52332 0.0
C2196 C 0.87562 0.89894 0.44492 0.0
H2197 H 0.86414 0.89781 0.35535 0.0
C2198 C 0.86872 0.88694 0.45806 0.0
C2199 C 0.87417 0.90276 0.40719 0.0
C2200 C 0.88079 0.91588 0.39162 0.0
C2201 C 0.8598 0.87909 0.43509 0.0
C2202 C 0.85804 0.88316 0.39766 0.0
C2203 C 0.86558 0.89468 0.38399 0.0
C2204 C 0.84696 0.877 0.37388 0.0
C2205 C 0.85162 0.86711 0.45179 0.0
C2206 C 0.84666 0.86264 0.36537 0.0
C2207 C 0.83522 0.85692 0.34627 0.0
C2208 C 0.82403 0.86552 0.33513 0.0
C2209 C 0.82478 0.87999 0.34188 0.0
C2210 C 0.83611 0.88565 0.36109 0.0
H2211 H 0.85229 0.86699 0.48252 0.0
H2212 H 0.84041 0.86773 0.44373 0.0
H2213 H 0.85588 0.85704 0.44134 0.0
H2214 H 0.85507 0.85582 0.37425 0.0
H2215 H 0.83495 0.84573 0.34129 0.0
H2216 H 0.40933 0.56843 0.63799 0.0
H2217 H 0.39987 0.58774 0.67523 0.0
H2218 H 0.36063 0.58466 0.61644 0.0
H2219 H 0.37013 0.5658 0.57852 0.0
H2220 H 0.36739 0.61162 0.63079 0.0
H2221 H 0.37283 0.57934 0.75845 0.0
H2222 H 0.3888 0.58308 0.73409 0.0
H2223 H 0.37568 0.57221 0.71284 0.0
C2224 C 0.39878 0.57208 0.63259 0.0
C2225 C 0.39041 0.56552 0.60561 0.0
C2226 C 0.39335 0.58302 0.65408 0.0
C2227 C 0.37943 0.58741 0.64924 0.0
C2228 C 0.37138 0.58142 0.62081 0.0
H2229 H 0.31296 0.61284 0.78115 0.0
H2230 H 0.33308 0.60191 0.75145 0.0
C2231 C 0.37682 0.57061 0.59914 0.0
C2232 C 0.3727 0.59748 0.67502 0.0
H2233 H 0.36091 0.60063 0.76397 0.0
C2234 C 0.36614 0.60937 0.66006 0.0
C2235 C 0.37104 0.59445 0.71318 0.0
C2236 C 0.37735 0.58154 0.73069 0.0
C2237 C 0.35729 0.61784 0.68162 0.0
C2238 C 0.35529 0.61455 0.71951 0.0
C2239 C 0.36253 0.60316 0.73499 0.0
C2240 C 0.34418 0.62137 0.74192 0.0
C2241 C 0.34942 0.6296 0.66293 0.0
C2242 C 0.34394 0.63592 0.74778 0.0
C2243 C 0.33231 0.64224 0.76452 0.0
C2244 C 0.32085 0.63407 0.77604 0.0
C2245 C 0.32159 0.61944 0.77245 0.0
C2246 C 0.33311 0.61316 0.75549 0.0
H2247 H 0.35019 0.62905 0.63225 0.0
H2248 H 0.33817 0.62938 0.67075 0.0
H2249 H 0.35386 0.63979 0.67193 0.0
H2250 H 0.35253 0.64242 0.73835 0.0
H2251 H 0.33206 0.65355 0.76716 0.0
H2252 H 0.68102 0.11515 0.82456 0.0
H2253 H 0.66052 0.10536 0.85507 0.0
H2254 H 0.6441 0.14696 0.8724 0.0
H2255 H 0.66493 0.15691 0.84246 0.0
H2256 H 0.64416 0.1325 0.9352 0.0
H2257 H 0.6204 0.09922 0.82774 0.0
H2258 H 0.63869 0.09527 0.83131 0.0
H2259 H 0.63321 0.11251 0.81679 0.0
C2260 C 0.67291 0.12223 0.83408 0.0
C2261 C 0.67459 0.1368 0.83116 0.0
C2262 C 0.66111 0.1166 0.8513 0.0
C2263 C 0.65063 0.1254 0.86554 0.0
C2264 C 0.652 0.13997 0.86136 0.0
H2265 H 0.58737 0.07323 0.97459 0.0
H2266 H 0.59602 0.09292 0.93754 0.0
C2267 C 0.66388 0.14563 0.84418 0.0
C2268 C 0.63925 0.1193 0.88846 0.0
H2269 H 0.61709 0.09132 0.89168 0.0
C2270 C 0.63796 0.12372 0.92543 0.0
C2271 C 0.63087 0.10807 0.87566 0.0
C2272 C 0.63076 0.10363 0.83555 0.0
C2273 C 0.62948 0.11642 0.95066 0.0
C2274 C 0.6224 0.10418 0.9388 0.0
C2275 C 0.6227 0.10054 0.90109 0.0
C2276 C 0.61608 0.09411 0.96534 0.0
C2277 C 0.62851 0.12169 0.98996 0.0
C2278 C 0.62434 0.08843 0.99384 0.0
C2279 C 0.61937 0.0773 0.01522 0.0
C2280 C 0.60614 0.07146 0.00812 0.0
C2281 C 0.59761 0.07754 0.98073 0.0
C2282 C 0.60255 0.08877 0.9595 0.0
H2283 H 0.62942 0.1333 0.99088 0.0
H2284 H 0.61849 0.11858 0.00326 0.0
H2285 H 0.63732 0.11732 0.00634 0.0
H2286 H 0.63495 0.09206 0.99827 0.0
H2287 H 0.62623 0.07279 0.03593 0.0
H2288 H 0.17455 0.65984 0.38246 0.0
H2289 H 0.15572 0.64951 0.4198 0.0
H2290 H 0.15876 0.61131 0.35637 0.0
H2291 H 0.17705 0.62171 0.31825 0.0
H2292 H 0.1321 0.61663 0.37485 0.0
H2293 H 0.1663 0.62189 0.49909 0.0
H2294 H 0.16139 0.63799 0.4769 0.0
H2295 H 0.1725 0.62573 0.45307 0.0
C2296 C 0.17095 0.64935 0.37601 0.0
C2297 C 0.17739 0.6415 0.34776 0.0
C2298 C 0.16028 0.64342 0.39756 0.0
C2299 C 0.1561 0.62949 0.39157 0.0
C2300 C 0.16185 0.62205 0.36168 0.0
H2301 H 0.13742 0.56037 0.5207 0.0
H2302 H 0.14623 0.58132 0.49016 0.0
C2303 C 0.17235 0.628 0.3399 0.0
C2304 C 0.14674 0.62204 0.41786 0.0
H2305 H 0.14583 0.60878 0.5057 0.0
C2306 C 0.13494 0.61508 0.40366 0.0
C2307 C 0.15053 0.62 0.45542 0.0
C2308 C 0.16341 0.62669 0.4721 0.0
C2309 C 0.12739 0.60542 0.42518 0.0
C2310 C 0.1315 0.603 0.46232 0.0
C2311 C 0.14269 0.61069 0.47725 0.0
C2312 C 0.12588 0.59109 0.48418 0.0
C2313 C 0.11575 0.59718 0.40707 0.0
C2314 C 0.11152 0.58975 0.49199 0.0
C2315 C 0.1064 0.57761 0.50916 0.0
C2316 C 0.11562 0.56676 0.51923 0.0
C2317 C 0.13005 0.56852 0.51322 0.0
C2318 C 0.1351 0.58052 0.49579 0.0
H2319 H 0.11566 0.59849 0.37649 0.0
H2320 H 0.11676 0.58584 0.41345 0.0
H2321 H 0.10551 0.60085 0.41792 0.0
H2322 H 0.10424 0.59792 0.48409 0.0
H2323 H 0.09523 0.57657 0.51369 0.0
H2324 H 0.58937 0.92897 0.62801 0.0
H2325 H 0.59805 0.90936 0.66549 0.0
H2326 H 0.63946 0.9154 0.62031 0.0
H2327 H 0.63082 0.93462 0.58224 0.0
H2328 H 0.63309 0.88769 0.62883 0.0
H2329 H 0.62108 0.91754 0.75759 0.0
H2330 H 0.6065 0.91371 0.72778 0.0
H2331 H 0.62003 0.92541 0.71228 0.0
C2332 C 0.60026 0.92591 0.62558 0.0
C2333 C 0.60946 0.93342 0.6025 0.0
C2334 C 0.60522 0.91479 0.6472 0.0
C2335 C 0.61946 0.91113 0.64632 0.0
C2336 C 0.62843 0.91807 0.62157 0.0
H2337 H 0.68243 0.88688 0.78919 0.0
H2338 H 0.66256 0.89723 0.75696 0.0
C2339 C 0.62349 0.92908 0.59983 0.0
C2340 C 0.62549 0.90088 0.67276 0.0
H2341 H 0.63406 0.89692 0.76402 0.0
C2342 C 0.6331 0.88952 0.65849 0.0
C2343 C 0.62553 0.90338 0.71143 0.0
C2344 C 0.61795 0.91571 0.72834 0.0
C2345 C 0.64147 0.88111 0.68148 0.0
C2346 C 0.64193 0.88394 0.71998 0.0
C2347 C 0.63361 0.89475 0.73455 0.0
C2348 C 0.6526 0.87742 0.74434 0.0
C2349 C 0.65052 0.86996 0.66394 0.0
C2350 C 0.65331 0.86284 0.74938 0.0
C2351 C 0.66479 0.85686 0.76767 0.0
C2352 C 0.67562 0.8654 0.78142 0.0
C2353 C 0.67431 0.88002 0.77874 0.0
C2354 C 0.66292 0.88596 0.76034 0.0
H2355 H 0.65067 0.87075 0.63323 0.0
H2356 H 0.66147 0.87072 0.6742 0.0
H2357 H 0.64641 0.85947 0.67143 0.0
H2358 H 0.64529 0.85608 0.73797 0.0
H2359 H 0.66549 0.84555 0.76953 0.0
H2360 H 0.3133 0.38611 0.83075 0.0
H2361 H 0.33422 0.39495 0.86123 0.0
H2362 H 0.34474 0.35307 0.89666 0.0
H2363 H 0.32334 0.34418 0.86714 0.0
H2364 H 0.34635 0.37003 0.95265 0.0
H2365 H 0.37482 0.39526 0.83842 0.0
H2366 H 0.35721 0.40171 0.83866 0.0
H2367 H 0.36046 0.38335 0.83012 0.0
C2368 C 0.3202 0.37871 0.84436 0.0
C2369 C 0.31668 0.36445 0.84654 0.0
C2370 C 0.33226 0.38377 0.86154 0.0
C2371 C 0.34127 0.37465 0.88066 0.0
C2372 C 0.33803 0.36029 0.88182 0.0
H2373 H 0.4086 0.42475 0.98021 0.0
H2374 H 0.39837 0.40473 0.94731 0.0
C2375 C 0.32582 0.35523 0.8649 0.0
C2376 C 0.35304 0.38051 0.90273 0.0
H2377 H 0.37813 0.40592 0.89973 0.0
C2378 C 0.35354 0.37762 0.94087 0.0
C2379 C 0.36277 0.39011 0.88748 0.0
C2380 C 0.36387 0.39263 0.84632 0.0
C2381 C 0.3626 0.38499 0.96453 0.0
C2382 C 0.37103 0.39585 0.94984 0.0
C2383 C 0.37146 0.39783 0.91129 0.0
C2384 C 0.37809 0.40634 0.97391 0.0
C2385 C 0.36274 0.38126 0.00514 0.0
C2386 C 0.37022 0.41377 0.00028 0.0
C2387 C 0.37608 0.42505 0.01934 0.0
C2388 C 0.38987 0.42935 0.01195 0.0
C2389 C 0.39795 0.42164 0.98656 0.0
C2390 C 0.3921 0.41022 0.96769 0.0
H2391 H 0.36078 0.36989 0.00911 0.0
H2392 H 0.37288 0.384 0.01838 0.0
H2393 H 0.35421 0.38701 0.01947 0.0
H2394 H 0.35928 0.41133 0.00482 0.0
H2395 H 0.36954 0.43085 0.03849 0.0
H2396 H 0.81832 0.11629 0.29384 0.0
H2397 H 0.83849 0.10537 0.2645 0.0
H2398 H 0.85477 0.1461 0.23562 0.0
H2399 H 0.83428 0.15716 0.26437 0.0
H2400 H 0.85363 0.12961 0.17664 0.0
H2401 H 0.879 0.09987 0.28871 0.0
H2402 H 0.86066 0.09593 0.28795 0.0
H2403 H 0.8664 0.11354 0.29792 0.0
C2404 C 0.82635 0.12296 0.28207 0.0
C2405 C 0.82469 0.13758 0.28132 0.0
C2406 C 0.83796 0.1167 0.26552 0.0
C2407 C 0.84828 0.12491 0.24829 0.0
C2408 C 0.84699 0.13957 0.24899 0.0
H2409 H 0.91071 0.0704 0.14253 0.0
H2410 H 0.90201 0.09061 0.1776 0.0
C2411 C 0.83531 0.14587 0.2655 0.0
C2412 C 0.85928 0.11799 0.22568 0.0
H2413 H 0.88144 0.08998 0.22646 0.0
C2414 C 0.85999 0.12117 0.18773 0.0
C2415 C 0.86784 0.10719 0.24009 0.0
C2416 C 0.86854 0.10407 0.28101 0.0
C2417 C 0.86809 0.11306 0.16338 0.0
C2418 C 0.87538 0.10127 0.17724 0.0
C2419 C 0.87565 0.09886 0.21562 0.0
C2420 C 0.88144 0.09047 0.15237 0.0
C2421 C 0.86843 0.11701 0.12293 0.0
C2422 C 0.87284 0.08378 0.1262 0.0
C2423 C 0.8778 0.07234 0.10601 0.0
C2424 C 0.8914 0.06721 0.11197 0.0
C2425 C 0.90018 0.07416 0.13728 0.0
C2426 C 0.89523 0.08568 0.15737 0.0
H2427 H 0.86727 0.12852 0.11936 0.0
H2428 H 0.87833 0.11363 0.10948 0.0
H2429 H 0.85951 0.11193 0.10849 0.0
H2430 H 0.86205 0.08698 0.12257 0.0
H2431 H 0.87075 0.06714 0.08693 0.0
H2432 H 0.86211 0.56286 0.03633 0.0
H2433 H 0.85173 0.58297 0.00522 0.0
H2434 H 0.89278 0.601 0.98998 0.0
H2435 H 0.90334 0.58055 0.02031 0.0
H2436 H 0.85149 0.61102 0.01612 0.0
H2437 H 0.87883 0.598 0.88426 0.0
H2438 H 0.87888 0.58634 0.92353 0.0
H2439 H 0.88988 0.60162 0.92338 0.0
C2440 C 0.86894 0.57118 0.02686 0.0
C2441 C 0.88355 0.57005 0.03036 0.0
C2442 C 0.86299 0.5827 0.00909 0.0
C2443 C 0.87149 0.59336 0.99456 0.0
C2444 C 0.88604 0.59273 0.00019 0.0
H2445 H 0.82025 0.6594 0.88911 0.0
H2446 H 0.8396 0.64962 0.9256 0.0
C2447 C 0.89205 0.58111 0.0178 0.0
C2448 C 0.86495 0.60447 0.97159 0.0
H2449 H 0.86204 0.61583 0.88219 0.0
C2450 C 0.85393 0.61228 0.98695 0.0
C2451 C 0.86812 0.60599 0.93347 0.0
C2452 C 0.87949 0.5975 0.91496 0.0
C2453 C 0.84544 0.62091 0.96489 0.0
C2454 C 0.84835 0.62211 0.92653 0.0
C2455 C 0.85989 0.61495 0.91161 0.0
C2456 C 0.83841 0.62902 0.90069 0.0
C2457 C 0.83286 0.62785 0.98243 0.0
C2458 C 0.83196 0.62098 0.87293 0.0
C2459 C 0.82114 0.6266 0.85165 0.0
C2460 C 0.81648 0.64036 0.85785 0.0
C2461 C 0.82355 0.64872 0.88395 0.0
C2462 C 0.83451 0.64311 0.90502 0.0
H2463 H 0.83061 0.62363 0.0105 0.0
H2464 H 0.83487 0.63925 0.98518 0.0
H2465 H 0.82339 0.62642 0.96497 0.0
H2466 H 0.83483 0.6101 0.86893 0.0
H2467 H 0.81594 0.61991 0.83168 0.0
H2468 H 0.12681 0.07374 0.55354 0.0
H2469 H 0.13833 0.09289 0.58672 0.0
H2470 H 0.10952 0.08789 0.67771 0.0
H2471 H 0.09788 0.06871 0.64472 0.0
H2472 H 0.11894 0.11809 0.65549 0.0
H2473 H 0.16078 0.07878 0.68287 0.0
H2474 H 0.15531 0.08076 0.63546 0.0
H2475 H 0.1433 0.07381 0.66902 0.0
C2476 C 0.12267 0.07695 0.58016 0.0
C2477 C 0.11154 0.06961 0.59673 0.0
C2478 C 0.12927 0.0879 0.59905 0.0
C2479 C 0.12483 0.09168 0.63471 0.0
C2480 C 0.11306 0.08512 0.65014 0.0
H2481 H 0.17869 0.12631 0.80331 0.0
H2482 H 0.15952 0.11433 0.77153 0.0
C2483 C 0.10645 0.07415 0.63128 0.0
C2484 C 0.13362 0.101 0.65774 0.0
H2485 H 0.16478 0.10176 0.70387 0.0
C2486 C 0.12896 0.11458 0.66617 0.0
C2487 C 0.14656 0.09625 0.67197 0.0
C2488 C 0.15181 0.08158 0.66471 0.0
C2489 C 0.13712 0.12365 0.68807 0.0
C2490 C 0.15022 0.11897 0.70159 0.0
C2491 C 0.15472 0.10532 0.69351 0.0
C2492 C 0.15972 0.12798 0.72368 0.0
C2493 C 0.13163 0.13808 0.69694 0.0
C2494 C 0.16591 0.1399 0.70782 0.0
C2495 C 0.17687 0.14681 0.72601 0.0
C2496 C 0.18188 0.1418 0.76018 0.0
C2497 C 0.17508 0.13039 0.77699 0.0
C2498 C 0.16413 0.12354 0.75886 0.0
H2499 H 0.12014 0.13882 0.69248 0.0
H2500 H 0.13402 0.14096 0.72607 0.0
H2501 H 0.13681 0.14584 0.67858 0.0
H2502 H 0.16285 0.14337 0.68042 0.0
H2503 H 0.18195 0.15553 0.7123 0.0
H2504 H 0.67017 0.34602 0.34417 0.0
H2505 H 0.64856 0.35554 0.3711 0.0
H2506 H 0.6659 0.39723 0.3647 0.0
H2507 H 0.68717 0.3879 0.33703 0.0
H2508 H 0.64637 0.36832 0.43562 0.0
H2509 H 0.62706 0.40476 0.32927 0.0
H2510 H 0.6401 0.39161 0.3191 0.0
H2511 H 0.64517 0.40836 0.33805 0.0
C2512 C 0.66919 0.35725 0.34765 0.0
C2513 C 0.68034 0.36622 0.33845 0.0
C2514 C 0.65686 0.36267 0.36311 0.0
C2515 C 0.65549 0.37713 0.36942 0.0
C2516 C 0.66649 0.38609 0.35913 0.0
H2517 H 0.62612 0.42554 0.54272 0.0
H2518 H 0.63554 0.40687 0.5042 0.0
C2519 C 0.67873 0.38072 0.34356 0.0
C2520 C 0.64342 0.38285 0.39052 0.0
H2521 H 0.62173 0.41117 0.39348 0.0
C2522 C 0.64071 0.37748 0.42604 0.0
C2523 C 0.63571 0.39456 0.37783 0.0
C2524 C 0.63707 0.40002 0.33878 0.0
C2525 C 0.63145 0.38428 0.45034 0.0
C2526 C 0.62507 0.39698 0.43918 0.0
C2527 C 0.6268 0.4016 0.40249 0.0
C2528 C 0.61805 0.40652 0.4659 0.0
C2529 C 0.62892 0.37795 0.48803 0.0
C2530 C 0.60504 0.41262 0.45742 0.0
C2531 C 0.59975 0.42355 0.47916 0.0
C2532 C 0.60737 0.42853 0.50977 0.0
C2533 C 0.61995 0.42186 0.51949 0.0
C2534 C 0.6253 0.41107 0.49758 0.0
H2535 H 0.62942 0.36633 0.48671 0.0
H2536 H 0.63725 0.38148 0.50733 0.0
H2537 H 0.61858 0.38106 0.49947 0.0
H2538 H 0.59928 0.40935 0.43306 0.0
H2539 H 0.59002 0.42851 0.47097 0.0
H2540 H 0.36277 0.93542 0.08705 0.0
H2541 H 0.35293 0.91482 0.11698 0.0
H2542 H 0.39391 0.89577 0.12053 0.0
H2543 H 0.40399 0.91677 0.09169 0.0
H2544 H 0.35135 0.8875 0.10247 0.0
H2545 H 0.38378 0.896 0.2287 0.0
H2546 H 0.38309 0.9086 0.19156 0.0
H2547 H 0.39327 0.89286 0.18656 0.0
C2548 C 0.36969 0.92679 0.0937 0.0
C2549 C 0.38418 0.92779 0.08747 0.0
C2550 C 0.36404 0.91498 0.11081 0.0
C2551 C 0.37272 0.90386 0.12181 0.0
C2552 C 0.38707 0.90438 0.11321 0.0
H2553 H 0.32096 0.83855 0.22825 0.0
H2554 H 0.33991 0.84764 0.18918 0.0
C2555 C 0.39279 0.91632 0.09642 0.0
C2556 C 0.36662 0.89236 0.14434 0.0
H2557 H 0.36634 0.87887 0.232 0.0
C2558 C 0.35474 0.88542 0.13062 0.0
C2559 C 0.37106 0.88972 0.18114 0.0
C2560 C 0.38342 0.89723 0.19811 0.0
C2561 C 0.3466 0.87669 0.15334 0.0
C2562 C 0.35078 0.87441 0.19054 0.0
C2563 C 0.3632 0.88059 0.20347 0.0
C2564 C 0.34137 0.86753 0.21779 0.0
C2565 C 0.33306 0.87091 0.13803 0.0
C2566 C 0.33665 0.87523 0.24852 0.0
C2567 C 0.32612 0.86993 0.27134 0.0
C2568 C 0.31999 0.85687 0.26367 0.0
C2569 C 0.32541 0.84871 0.23457 0.0
C2570 C 0.33614 0.85395 0.21203 0.0
H2571 H 0.33006 0.87597 0.11147 0.0
H2572 H 0.33427 0.85952 0.13278 0.0
H2573 H 0.32435 0.87238 0.15806 0.0
H2574 H 0.34058 0.8857 0.2537 0.0
H2575 H 0.3222 0.87645 0.2936 0.0
H2576 H 0.81819 0.34374 0.71212 0.0
H2577 H 0.83738 0.35424 0.67678 0.0
H2578 H 0.8491 0.37887 0.77199 0.0
H2579 H 0.82986 0.3685 0.80749 0.0
H2580 H 0.83687 0.38491 0.66949 0.0
H2581 H 0.88728 0.36487 0.72534 0.0
H2582 H 0.87105 0.35517 0.72882 0.0
H2583 H 0.87423 0.36978 0.75895 0.0
C2584 C 0.82509 0.35109 0.72589 0.0
C2585 C 0.82247 0.35538 0.7625 0.0
C2586 C 0.83605 0.35707 0.70564 0.0
C2587 C 0.84469 0.36724 0.72188 0.0
C2588 C 0.84267 0.37086 0.75917 0.0
H2589 H 0.90022 0.43303 0.66039 0.0
H2590 H 0.88837 0.41325 0.68975 0.0
C2591 C 0.83164 0.36499 0.77935 0.0
C2592 C 0.85422 0.37566 0.69851 0.0
H2593 H 0.88844 0.38497 0.68642 0.0
C2594 C 0.84817 0.3848 0.67268 0.0
C2595 C 0.8689 0.37556 0.70328 0.0
C2596 C 0.87583 0.36576 0.7304 0.0
C2597 C 0.85634 0.3943 0.65247 0.0
C2598 C 0.87108 0.3943 0.65727 0.0
C2599 C 0.87717 0.38489 0.68252 0.0
C2600 C 0.88011 0.4048 0.63855 0.0
C2601 C 0.84898 0.40475 0.6278 0.0
C2602 C 0.87996 0.40627 0.59982 0.0
C2603 C 0.88652 0.41773 0.58302 0.0
C2604 C 0.89363 0.42769 0.60464 0.0
C2605 C 0.89479 0.42553 0.64303 0.0
C2606 C 0.88803 0.41422 0.65985 0.0
H2607 H 0.83766 0.40565 0.63459 0.0
H2608 H 0.85379 0.41531 0.63024 0.0
H2609 H 0.84983 0.40129 0.59854 0.0
H2610 H 0.87426 0.39889 0.58272 0.0
H2611 H 0.8856 0.41906 0.55332 0.0
H2612 H 0.37481 0.07634 0.56395 0.0
H2613 H 0.36299 0.09486 0.529 0.0
H2614 H 0.39296 0.09032 0.44053 0.0
H2615 H 0.40488 0.07176 0.47523 0.0
H2616 H 0.38002 0.12133 0.46735 0.0
H2617 H 0.34479 0.07766 0.42421 0.0
H2618 H 0.34991 0.07877 0.47217 0.0
H2619 H 0.36276 0.07465 0.43765 0.0
C2620 C 0.37915 0.07957 0.53757 0.0
C2621 C 0.39067 0.0725 0.52213 0.0
C2622 C 0.3724 0.09016 0.51771 0.0
C2623 C 0.37712 0.09387 0.48226 0.0
C2624 C 0.38926 0.08762 0.46798 0.0
H2625 H 0.32308 0.12577 0.3094 0.0
H2626 H 0.34297 0.11525 0.34172 0.0
C2627 C 0.39601 0.077 0.48781 0.0
C2628 C 0.36814 0.1025 0.45803 0.0
H2629 H 0.33887 0.10029 0.40431 0.0
C2630 C 0.37105 0.11679 0.45336 0.0
C2631 C 0.35659 0.09643 0.43962 0.0
C2632 C 0.35326 0.08102 0.44334 0.0
C2633 C 0.36243 0.12527 0.43104 0.0
C2634 C 0.35061 0.11926 0.41345 0.0
C2635 C 0.34795 0.10489 0.4177 0.0
C2636 C 0.34044 0.12759 0.39159 0.0
C2637 C 0.3661 0.14053 0.42626 0.0
C2638 C 0.33264 0.1383 0.4085 0.0
C2639 C 0.32131 0.14439 0.38997 0.0
C2640 C 0.31749 0.13974 0.35442 0.0
C2641 C 0.32575 0.12955 0.33681 0.0
C2642 C 0.33712 0.12353 0.35523 0.0
H2643 H 0.37737 0.1425 0.43203 0.0
H2644 H 0.36367 0.14419 0.39777 0.0
H2645 H 0.35986 0.14687 0.44606 0.0
H2646 H 0.3348 0.14139 0.43679 0.0
H2647 H 0.31508 0.15217 0.40432 0.0
H2648 H 0.63794 0.5632 0.07907 0.0
H2649 H 0.64859 0.58348 0.1086 0.0
H2650 H 0.60786 0.60253 0.12095 0.0
H2651 H 0.597 0.58185 0.09246 0.0
H2652 H 0.64985 0.61102 0.09584 0.0
H2653 H 0.62084 0.60103 0.22702 0.0
H2654 H 0.62059 0.58886 0.18888 0.0
H2655 H 0.61023 0.60457 0.18705 0.0
C2656 C 0.63123 0.57177 0.08758 0.0
C2657 C 0.61661 0.57085 0.08389 0.0
C2658 C 0.63735 0.58339 0.10445 0.0
C2659 C 0.62901 0.5944 0.11779 0.0
C2660 C 0.61447 0.59399 0.11178 0.0
H2661 H 0.68182 0.66006 0.21997 0.0
H2662 H 0.66259 0.65046 0.18268 0.0
C2663 C 0.60829 0.58223 0.09519 0.0
C2664 C 0.6357 0.60567 0.14001 0.0
H2665 H 0.63813 0.61838 0.22826 0.0
C2666 C 0.64717 0.61282 0.12466 0.0
C2667 C 0.63222 0.60791 0.1777 0.0
C2668 C 0.62038 0.60014 0.19636 0.0
C2669 C 0.65578 0.62146 0.14641 0.0
C2670 C 0.65253 0.62339 0.18437 0.0
C2671 C 0.64055 0.61693 0.19914 0.0
C2672 C 0.66245 0.63031 0.21024 0.0
C2673 C 0.66881 0.62759 0.12909 0.0
C2674 C 0.66811 0.62254 0.23967 0.0
C2675 C 0.67884 0.62809 0.26143 0.0
C2676 C 0.68421 0.6415 0.25403 0.0
C2677 C 0.67796 0.64964 0.22609 0.0
C2678 C 0.66707 0.64413 0.20455 0.0
H2679 H 0.67121 0.62277 0.10179 0.0
H2680 H 0.66729 0.63899 0.12472 0.0
H2681 H 0.67802 0.62612 0.14749 0.0
H2682 H 0.66469 0.61188 0.24474 0.0
H2683 H 0.68341 0.62156 0.2828 0.0
H2684 H 0.16839 0.84551 0.84735 0.0
H2685 H 0.14747 0.85623 0.87483 0.0
H2686 H 0.16446 0.89728 0.85275 0.0
H2687 H 0.18503 0.88671 0.82453 0.0
H2688 H 0.14726 0.87156 0.93545 0.0
H2689 H 0.12467 0.90368 0.82399 0.0
H2690 H 0.1374 0.89012 0.8148 0.0
H2691 H 0.14298 0.9075 0.82782 0.0
C2692 C 0.16744 0.85682 0.84743 0.0
C2693 C 0.17834 0.86528 0.8338 0.0
C2694 C 0.15551 0.86292 0.86322 0.0
C2695 C 0.15427 0.87757 0.86543 0.0
C2696 C 0.16493 0.88598 0.85046 0.0
H2697 H 0.12994 0.93266 0.03069 0.0
H2698 H 0.13856 0.91292 0.99458 0.0
C2699 C 0.17678 0.8799 0.83457 0.0
C2700 C 0.14289 0.8842 0.88729 0.0
H2701 H 0.12132 0.91267 0.88703 0.0
C2702 C 0.1413 0.88033 0.9246 0.0
C2703 C 0.13481 0.89542 0.87312 0.0
C2704 C 0.13495 0.89928 0.8326 0.0
C2705 C 0.13284 0.88814 0.94879 0.0
C2706 C 0.12612 0.90036 0.93554 0.0
C2707 C 0.12669 0.90347 0.89752 0.0
C2708 C 0.11987 0.91091 0.96091 0.0
C2709 C 0.13153 0.88339 0.98849 0.0
C2710 C 0.10649 0.91647 0.95403 0.0
C2711 C 0.10162 0.92797 0.97435 0.0
C2712 C 0.11006 0.9341 0.00186 0.0
C2713 C 0.12315 0.9281 0.00989 0.0
C2714 C 0.12805 0.91671 0.9894 0.0
H2715 H 0.13215 0.87179 0.99046 0.0
H2716 H 0.14035 0.88776 0.00485 0.0
H2717 H 0.12151 0.88691 0.00109 0.0
H2718 H 0.10003 0.91223 0.93206 0.0
H2719 H 0.0915 0.9324 0.9675 0.0
loop_
_geom_bond_atom_site_label_1
_geom_bond_atom_site_label_2
_geom_bond_distance
_geom_bond_site_symmetry_2
_ccdc_geom_bond_type
In0 O1 2.294 . S
In0 O2 2.326 . S
In0 O6 2.266 . S
In0 O7 2.326 . S
In0 O8 2.266 . S
In0 O9 2.326 . S
In0 O11 2.294 . S
In0 O12 2.326 . S
O1 In0 2.294 . S
O1 C10 1.240 . S
O2 In0 2.326 . S
O2 C10 1.252 . S
C3 O6 1.252 . S
C3 O7 1.260 . S
C4 O11 1.240 . S
C4 O12 1.252 . S
C5 O8 1.252 . S
C5 O9 1.260 . S
O6 In0 2.266 . S
O6 C3 1.252 . S
O7 In0 2.326 . S
O7 C3 1.260 . S
O8 In0 2.266 . S
O8 C5 1.252 . S
O9 In0 2.326 . S
O9 C5 1.260 . S
C10 O1 1.240 . S
C10 O2 1.252 . S
O11 In0 2.294 . S
O11 C4 1.240 . S
O12 In0 2.326 . S
O12 C4 1.252 . S
In13 O14 2.294 . S
In13 O15 2.326 . S
In13 O19 2.266 . S
In13 O20 2.326 . S
In13 O21 2.266 . S
In13 O22 2.326 . S
In13 O24 2.294 . S
In13 O25 2.326 . S
O14 In13 2.294 . S
O14 C23 1.240 . S
O15 In13 2.326 . S
O15 C23 1.252 . S
C16 O19 1.252 . S
C16 O20 1.260 . S
C17 O24 1.240 . S
C17 O25 1.252 . S
C18 O21 1.252 . S
C18 O22 1.260 . S
O19 In13 2.266 . S
O19 C16 1.252 . S
O20 In13 2.326 . S
O20 C16 1.260 . S
O21 In13 2.266 . S
O21 C18 1.252 . S
O22 In13 2.326 . S
O22 C18 1.260 . S
C23 O14 1.240 . S
C23 O15 1.252 . S
O24 In13 2.294 . S
O24 C17 1.240 . S
O25 In13 2.326 . S
O25 C17 1.252 . S
In26 O27 2.294 . S
In26 O28 2.326 . S
In26 O32 2.266 . S
In26 O33 2.326 . S
In26 O34 2.266 . S
In26 O35 2.326 . S
In26 O37 2.294 . S
In26 O38 2.326 . S
O27 In26 2.294 . S
O27 C36 1.240 . S
O28 In26 2.326 . S
O28 C36 1.252 . S
C29 O32 1.252 . S
C29 O33 1.260 . S
C30 O37 1.240 . S
C30 O38 1.252 . S
C31 O34 1.252 . S
C31 O35 1.260 . S
O32 In26 2.266 . S
O32 C29 1.252 . S
O33 In26 2.326 . S
O33 C29 1.260 . S
O34 In26 2.266 . S
O34 C31 1.252 . S
O35 In26 2.326 . S
O35 C31 1.260 . S
C36 O27 1.240 . S
C36 O28 1.252 . S
O37 In26 2.294 . S
O37 C30 1.240 . S
O38 In26 2.326 . S
O38 C30 1.252 . S
In39 O40 2.294 . S
In39 O41 2.326 . S
In39 O45 2.266 . S
In39 O46 2.326 . S
In39 O47 2.266 . S
In39 O48 2.326 . S
In39 O50 2.294 . S
In39 O51 2.326 . S
O40 In39 2.294 . S
O40 C49 1.240 . S
O41 In39 2.326 . S
O41 C49 1.252 . S
C42 O45 1.252 . S
C42 O46 1.260 . S
C43 O50 1.240 . S
C43 O51 1.252 . S
C44 O47 1.252 . S
C44 O48 1.260 . S
O45 In39 2.266 . S
O45 C42 1.252 . S
O46 In39 2.326 . S
O46 C42 1.260 . S
O47 In39 2.266 . S
O47 C44 1.252 . S
O48 In39 2.326 . S
O48 C44 1.260 . S
C49 O40 1.240 . S
C49 O41 1.252 . S
O50 In39 2.294 . S
O50 C43 1.240 . S
O51 In39 2.326 . S
O51 C43 1.252 . S
In52 O53 2.294 . S
In52 O54 2.326 . S
In52 O58 2.266 . S
In52 O59 2.326 . S
In52 O60 2.266 . S
In52 O61 2.326 . S
In52 O63 2.294 . S
In52 O64 2.326 . S
O53 In52 2.294 . S
O53 C62 1.240 . S
O54 In52 2.326 . S
O54 C62 1.252 . S
C55 O58 1.252 . S
C55 O59 1.260 . S
C56 O63 1.240 . S
C56 O64 1.252 . S
C57 O60 1.252 . S
C57 O61 1.260 . S
O58 In52 2.266 . S
O58 C55 1.252 . S
O59 In52 2.326 . S
O59 C55 1.260 . S
O60 In52 2.266 . S
O60 C57 1.252 . S
O61 In52 2.326 . S
O61 C57 1.260 . S
C62 O53 1.240 . S
C62 O54 1.252 . S
O63 In52 2.294 . S
O63 C56 1.240 . S
O64 In52 2.326 . S
O64 C56 1.252 . S
In65 O66 2.294 . S
In65 O67 2.326 . S
In65 O71 2.266 . S
In65 O72 2.326 . S
In65 O73 2.266 . S
In65 O74 2.326 . S
In65 O76 2.294 . S
In65 O77 2.326 . S
O66 In65 2.294 . S
O66 C75 1.240 . S
O67 In65 2.326 . S
O67 C75 1.252 . S
C68 O71 1.252 . S
C68 O72 1.260 . S
C69 O76 1.240 . S
C69 O77 1.252 . S
C70 O73 1.252 . S
C70 O74 1.260 . S
O71 In65 2.266 . S
O71 C68 1.252 . S
O72 In65 2.326 . S
O72 C68 1.260 . S
O73 In65 2.266 . S
O73 C70 1.252 . S
O74 In65 2.326 . S
O74 C70 1.260 . S
C75 O66 1.240 . S
C75 O67 1.252 . S
O76 In65 2.294 . S
O76 C69 1.240 . S
O77 In65 2.326 . S
O77 C69 1.252 . S
In78 O79 2.294 . S
In78 O80 2.326 . S
In78 O84 2.266 . S
In78 O85 2.326 . S
In78 O86 2.266 . S
In78 O87 2.326 . S
In78 O89 2.294 1_554 S
In78 O90 2.326 1_554 S
O79 In78 2.294 . S
O79 C88 1.240 . S
O80 In78 2.326 . S
O80 C88 1.252 . S
C81 O84 1.252 . S
C81 O85 1.260 . S
C82 O89 1.240 . S
C82 O90 1.252 . S
C83 O86 1.252 . S
C83 O87 1.260 . S
O84 In78 2.266 . S
O84 C81 1.252 . S
O85 In78 2.326 . S
O85 C81 1.260 . S
O86 In78 2.266 . S
O86 C83 1.252 . S
O87 In78 2.326 . S
O87 C83 1.260 . S
C88 O79 1.240 . S
C88 O80 1.252 . S
O89 In78 2.294 1_556 S
O89 C82 1.240 . S
O90 In78 2.326 1_556 S
O90 C82 1.252 . S
In91 O92 2.294 . S
In91 O93 2.326 . S
In91 O97 2.266 . S
In91 O98 2.326 . S
In91 O99 2.266 . S
In91 O100 2.326 . S
In91 O102 2.294 . S
In91 O103 2.326 . S
O92 In91 2.294 . S
O92 C101 1.240 . S
O93 In91 2.326 . S
O93 C101 1.252 . S
C94 O97 1.252 . S
C94 O98 1.260 . S
C95 O102 1.240 . S
C95 O103 1.252 . S
C96 O99 1.252 . S
C96 O100 1.260 . S
O97 In91 2.266 . S
O97 C94 1.252 . S
O98 In91 2.326 . S
O98 C94 1.260 . S
O99 In91 2.266 . S
O99 C96 1.252 . S
O100 In91 2.326 . S
O100 C96 1.260 . S
C101 O92 1.240 . S
C101 O93 1.252 . S
O102 In91 2.294 . S
O102 C95 1.240 . S
O103 In91 2.326 . S
O103 C95 1.252 . S
In104 O105 2.294 1_554 S
In104 O106 2.326 1_554 S
In104 O110 2.266 . S
In104 O111 2.326 . S
In104 O112 2.266 . S
In104 O113 2.326 . S
In104 O115 2.294 . S
In104 O116 2.326 . S
O105 In104 2.294 1_556 S
O105 C114 1.240 . S
O106 In104 2.326 1_556 S
O106 C114 1.252 . S
C107 O110 1.252 . S
C107 O111 1.260 . S
C108 O115 1.240 . S
C108 O116 1.252 . S
C109 O112 1.252 . S
C109 O113 1.260 . S
O110 In104 2.266 . S
O110 C107 1.252 . S
O111 In104 2.326 . S
O111 C107 1.260 . S
O112 In104 2.266 . S
O112 C109 1.252 . S
O113 In104 2.326 . S
O113 C109 1.260 . S
C114 O105 1.240 . S
C114 O106 1.252 . S
O115 In104 2.294 . S
O115 C108 1.240 . S
O116 In104 2.326 . S
O116 C108 1.252 . S
In117 O118 2.294 . S
In117 O119 2.326 . S
In117 O123 2.266 . S
In117 O124 2.326 . S
In117 O125 2.266 . S
In117 O126 2.326 . S
In117 O128 2.294 . S
In117 O129 2.326 . S
O118 In117 2.294 . S
O118 C127 1.240 . S
O119 In117 2.326 . S
O119 C127 1.252 . S
C120 O123 1.252 . S
C120 O124 1.260 . S
C121 O128 1.240 . S
C121 O129 1.252 . S
C122 O125 1.252 . S
C122 O126 1.260 . S
O123 In117 2.266 . S
O123 C120 1.252 . S
O124 In117 2.326 . S
O124 C120 1.260 . S
O125 In117 2.266 . S
O125 C122 1.252 . S
O126 In117 2.326 . S
O126 C122 1.260 . S
C127 O118 1.240 . S
C127 O119 1.252 . S
O128 In117 2.294 . S
O128 C121 1.240 . S
O129 In117 2.326 . S
O129 C121 1.252 . S
In130 O131 2.294 . S
In130 O132 2.326 . S
In130 O136 2.266 . S
In130 O137 2.326 . S
In130 O138 2.266 . S
In130 O139 2.326 . S
In130 O141 2.294 . S
In130 O142 2.326 . S
O131 In130 2.294 . S
O131 C140 1.240 . S
O132 In130 2.326 . S
O132 C140 1.252 . S
C133 O136 1.252 . S
C133 O137 1.260 . S
C134 O141 1.240 . S
C134 O142 1.252 . S
C135 O138 1.252 . S
C135 O139 1.260 . S
O136 In130 2.266 . S
O136 C133 1.252 . S
O137 In130 2.326 . S
O137 C133 1.260 . S
O138 In130 2.266 . S
O138 C135 1.252 . S
O139 In130 2.326 . S
O139 C135 1.260 . S
C140 O131 1.240 . S
C140 O132 1.252 . S
O141 In130 2.294 . S
O141 C134 1.240 . S
O142 In130 2.326 . S
O142 C134 1.252 . S
In143 O144 2.294 . S
In143 O145 2.326 . S
In143 O149 2.266 . S
In143 O150 2.326 . S
In143 O151 2.266 . S
In143 O152 2.326 . S
In143 O154 2.294 . S
In143 O155 2.326 . S
O144 In143 2.294 . S
O144 C153 1.240 . S
O145 In143 2.326 . S
O145 C153 1.252 . S
C146 O149 1.252 . S
C146 O150 1.260 . S
C147 O154 1.240 . S
C147 O155 1.252 . S
C148 O151 1.252 . S
C148 O152 1.260 . S
O149 In143 2.266 . S
O149 C146 1.252 . S
O150 In143 2.326 . S
O150 C146 1.260 . S
O151 In143 2.266 . S
O151 C148 1.252 . S
O152 In143 2.326 . S
O152 C148 1.260 . S
C153 O144 1.240 . S
C153 O145 1.252 . S
O154 In143 2.294 . S
O154 C147 1.240 . S
O155 In143 2.326 . S
O155 C147 1.252 . S
In156 O157 2.294 . S
In156 O158 2.326 . S
In156 O162 2.266 . S
In156 O163 2.326 . S
In156 O164 2.266 . S
In156 O165 2.326 . S
In156 O167 2.294 . S
In156 O168 2.326 . S
O157 In156 2.294 . S
O157 C166 1.240 . S
O158 In156 2.326 . S
O158 C166 1.252 . S
C159 O162 1.252 . S
C159 O163 1.260 . S
C160 O167 1.240 . S
C160 O168 1.252 . S
C161 O164 1.252 . S
C161 O165 1.260 . S
O162 In156 2.266 . S
O162 C159 1.252 . S
O163 In156 2.326 . S
O163 C159 1.260 . S
O164 In156 2.266 . S
O164 C161 1.252 . S
O165 In156 2.326 . S
O165 C161 1.260 . S
C166 O157 1.240 . S
C166 O158 1.252 . S
O167 In156 2.294 . S
O167 C160 1.240 . S
O168 In156 2.326 . S
O168 C160 1.252 . S
In169 O170 2.294 . S
In169 O171 2.326 . S
In169 O175 2.266 . S
In169 O176 2.326 . S
In169 O177 2.266 . S
In169 O178 2.326 . S
In169 O180 2.294 . S
In169 O181 2.326 . S
O170 In169 2.294 . S
O170 C179 1.240 . S
O171 In169 2.326 . S
O171 C179 1.252 . S
C172 O175 1.252 . S
C172 O176 1.260 . S
C173 O180 1.240 . S
C173 O181 1.252 . S
C174 O177 1.252 . S
C174 O178 1.260 . S
O175 In169 2.266 . S
O175 C172 1.252 . S
O176 In169 2.326 . S
O176 C172 1.260 . S
O177 In169 2.266 . S
O177 C174 1.252 . S
O178 In169 2.326 . S
O178 C174 1.260 . S
C179 O170 1.240 . S
C179 O171 1.252 . S
O180 In169 2.294 . S
O180 C173 1.240 . S
O181 In169 2.326 . S
O181 C173 1.252 . S
In182 O183 2.294 . S
In182 O184 2.326 . S
In182 O188 2.266 . S
In182 O189 2.326 . S
In182 O190 2.266 . S
In182 O191 2.326 . S
In182 O193 2.294 . S
In182 O194 2.326 . S
O183 In182 2.294 . S
O183 C192 1.240 . S
O184 In182 2.326 . S
O184 C192 1.252 . S
C185 O188 1.252 . S
C185 O189 1.260 . S
C186 O193 1.240 . S
C186 O194 1.252 . S
C187 O190 1.252 . S
C187 O191 1.260 . S
O188 In182 2.266 . S
O188 C185 1.252 . S
O189 In182 2.326 . S
O189 C185 1.260 . S
O190 In182 2.266 . S
O190 C187 1.252 . S
O191 In182 2.326 . S
O191 C187 1.260 . S
C192 O183 1.240 . S
C192 O184 1.252 . S
O193 In182 2.294 . S
O193 C186 1.240 . S
O194 In182 2.326 . S
O194 C186 1.252 . S
In195 O196 2.294 . S
In195 O197 2.326 . S
In195 O201 2.266 . S
In195 O202 2.326 . S
In195 O203 2.266 . S
In195 O204 2.326 . S
In195 O206 2.294 . S
In195 O207 2.326 . S
O196 In195 2.294 . S
O196 C205 1.240 . S
O197 In195 2.326 . S
O197 C205 1.252 . S
C198 O201 1.252 . S
C198 O202 1.260 . S
C199 O206 1.240 . S
C199 O207 1.252 . S
C200 O203 1.252 . S
C200 O204 1.260 . S
O201 In195 2.266 . S
O201 C198 1.252 . S
O202 In195 2.326 . S
O202 C198 1.260 . S
O203 In195 2.266 . S
O203 C200 1.252 . S
O204 In195 2.326 . S
O204 C200 1.260 . S
C205 O196 1.240 . S
C205 O197 1.252 . S
O206 In195 2.294 . S
O206 C199 1.240 . S
O207 In195 2.326 . S
O207 C199 1.252 . S
In208 O209 2.294 . S
In208 O210 2.326 . S
In208 O214 2.266 . S
In208 O215 2.326 . S
In208 O216 2.283 . S
In208 O217 2.326 . S
In208 O219 2.257 1_565 S
In208 O220 2.326 . S
O209 In208 2.294 . S
O209 C218 1.240 . S
O210 In208 2.326 . S
O210 C218 1.252 . S
C211 O214 1.252 . S
C211 O215 1.260 . S
C212 O219 1.217 1_565 S
C212 O220 1.252 . S
C213 O216 1.268 . S
C213 O217 1.260 . S
O214 In208 2.266 . S
O214 C211 1.252 . S
O215 In208 2.326 . S
O215 C211 1.260 . S
O216 In208 2.283 . S
O216 C213 1.268 . S
O217 In208 2.326 . S
O217 C213 1.260 . S
C218 O209 1.240 . S
C218 O210 1.252 . S
O219 In208 2.257 1_545 S
O219 C212 1.217 1_545 S
O220 In208 2.326 . S
O220 C212 1.252 . S
In221 O222 2.294 . S
In221 O223 2.326 . S
In221 O227 2.266 . S
In221 O228 2.326 . S
In221 O229 2.266 . S
In221 O230 2.326 . S
In221 O232 2.294 . S
In221 O233 2.326 . S
O222 In221 2.294 . S
O222 C231 1.240 . S
O223 In221 2.326 . S
O223 C231 1.252 . S
C224 O227 1.252 . S
C224 O228 1.260 . S
C225 O232 1.240 . S
C225 O233 1.252 . S
C226 O229 1.252 . S
C226 O230 1.260 . S
O227 In221 2.266 . S
O227 C224 1.252 . S
O228 In221 2.326 . S
O228 C224 1.260 . S
O229 In221 2.266 . S
O229 C226 1.252 . S
O230 In221 2.326 . S
O230 C226 1.260 . S
C231 O222 1.240 . S
C231 O223 1.252 . S
O232 In221 2.294 . S
O232 C225 1.240 . S
O233 In221 2.326 . S
O233 C225 1.252 . S
In234 O235 2.294 . S
In234 O236 2.326 . S
In234 O240 2.266 . S
In234 O241 2.326 . S
In234 O242 2.281 . S
In234 O243 2.326 . S
In234 O245 2.256 1_545 S
In234 O246 2.326 . S
O235 In234 2.294 . S
O235 C244 1.240 . S
O236 In234 2.326 . S
O236 C244 1.252 . S
C237 O240 1.252 . S
C237 O241 1.260 . S
C238 O245 1.216 1_545 S
C238 O246 1.252 . S
C239 O242 1.267 . S
C239 O243 1.260 . S
O240 In234 2.266 . S
O240 C237 1.252 . S
O241 In234 2.326 . S
O241 C237 1.260 . S
O242 In234 2.281 . S
O242 C239 1.267 . S
O243 In234 2.326 . S
O243 C239 1.260 . S
C244 O235 1.240 . S
C244 O236 1.252 . S
O245 In234 2.256 1_565 S
O245 C238 1.216 1_565 S
O246 In234 2.326 . S
O246 C238 1.252 . S
In247 O248 2.294 . S
In247 O249 2.326 . S
In247 O253 2.266 . S
In247 O254 2.326 . S
In247 O255 2.266 . S
In247 O256 2.326 . S
In247 O258 2.294 . S
In247 O259 2.326 . S
O248 In247 2.294 . S
O248 C257 1.240 . S
O249 In247 2.326 . S
O249 C257 1.252 . S
C250 O253 1.252 . S
C250 O254 1.260 . S
C251 O258 1.240 . S
C251 O259 1.252 . S
C252 O255 1.252 . S
C252 O256 1.260 . S
O253 In247 2.266 . S
O253 C250 1.252 . S
O254 In247 2.326 . S
O254 C250 1.260 . S
O255 In247 2.266 . S
O255 C252 1.252 . S
O256 In247 2.326 . S
O256 C252 1.260 . S
C257 O248 1.240 . S
C257 O249 1.252 . S
O258 In247 2.294 . S
O258 C251 1.240 . S
O259 In247 2.326 . S
O259 C251 1.252 . S
In260 O261 2.257 1_544 S
In260 O262 2.326 1_554 S
In260 O266 2.282 . S
In260 O267 2.326 . S
In260 O268 2.266 . S
In260 O269 2.326 . S
In260 O271 2.294 . S
In260 O272 2.326 . S
O261 In260 2.257 1_566 S
O261 C270 1.216 1_565 S
O262 In260 2.326 1_556 S
O262 C270 1.252 . S
C263 O266 1.267 . S
C263 O267 1.260 . S
C264 O271 1.240 . S
C264 O272 1.252 . S
C265 O268 1.252 . S
C265 O269 1.260 . S
O266 In260 2.282 . S
O266 C263 1.267 . S
O267 In260 2.326 . S
O267 C263 1.260 . S
O268 In260 2.266 . S
O268 C265 1.252 . S
O269 In260 2.326 . S
O269 C265 1.260 . S
C270 O261 1.216 1_545 S
C270 O262 1.252 . S
O271 In260 2.294 . S
O271 C264 1.240 . S
O272 In260 2.326 . S
O272 C264 1.252 . S
In273 O274 2.294 . S
In273 O275 2.326 . S
In273 O279 2.266 . S
In273 O280 2.326 . S
In273 O281 2.266 . S
In273 O282 2.326 . S
In273 O284 2.294 . S
In273 O285 2.326 . S
O274 In273 2.294 . S
O274 C283 1.240 . S
O275 In273 2.326 . S
O275 C283 1.252 . S
C276 O279 1.252 . S
C276 O280 1.260 . S
C277 O284 1.240 . S
C277 O285 1.252 . S
C278 O281 1.252 . S
C278 O282 1.260 . S
O279 In273 2.266 . S
O279 C276 1.252 . S
O280 In273 2.326 . S
O280 C276 1.260 . S
O281 In273 2.266 . S
O281 C278 1.252 . S
O282 In273 2.326 . S
O282 C278 1.260 . S
C283 O274 1.240 . S
C283 O275 1.252 . S
O284 In273 2.294 . S
O284 C277 1.240 . S
O285 In273 2.326 . S
O285 C277 1.252 . S
In286 O287 2.294 . S
In286 O288 2.326 . S
In286 O292 2.266 . S
In286 O293 2.326 . S
In286 O294 2.283 . S
In286 O295 2.326 . S
In286 O297 2.257 1_565 S
In286 O298 2.326 . S
O287 In286 2.294 . S
O287 C296 1.240 . S
O288 In286 2.326 . S
O288 C296 1.252 . S
C289 O292 1.252 . S
C289 O293 1.260 . S
C290 O297 1.217 1_565 S
C290 O298 1.252 . S
C291 O294 1.268 . S
C291 O295 1.260 . S
O292 In286 2.266 . S
O292 C289 1.252 . S
O293 In286 2.326 . S
O293 C289 1.260 . S
O294 In286 2.283 . S
O294 C291 1.268 . S
O295 In286 2.326 . S
O295 C291 1.260 . S
C296 O287 1.240 . S
C296 O288 1.252 . S
O297 In286 2.257 1_545 S
O297 C290 1.217 1_545 S
O298 In286 2.326 . S
O298 C290 1.252 . S
In299 O300 2.294 . S
In299 O301 2.326 . S
In299 O305 2.266 . S
In299 O306 2.326 . S
In299 O307 2.266 . S
In299 O308 2.326 . S
In299 O310 2.294 . S
In299 O311 2.326 . S
O300 In299 2.294 . S
O300 C309 1.240 . S
O301 In299 2.326 . S
O301 C309 1.252 . S
C302 O305 1.252 . S
C302 O306 1.260 . S
C303 O310 1.240 . S
C303 O311 1.252 . S
C304 O307 1.252 . S
C304 O308 1.260 . S
O305 In299 2.266 . S
O305 C302 1.252 . S
O306 In299 2.326 . S
O306 C302 1.260 . S
O307 In299 2.266 . S
O307 C304 1.252 . S
O308 In299 2.326 . S
O308 C304 1.260 . S
C309 O300 1.240 . S
C309 O301 1.252 . S
O310 In299 2.294 . S
O310 C303 1.240 . S
O311 In299 2.326 . S
O311 C303 1.252 . S
In312 O313 2.294 . S
In312 O314 2.326 . S
In312 O318 2.266 . S
In312 O319 2.326 . S
In312 O320 2.283 . S
In312 O321 2.326 . S
In312 O323 2.257 1_545 S
In312 O324 2.326 . S
O313 In312 2.294 . S
O313 C322 1.240 . S
O314 In312 2.326 . S
O314 C322 1.252 . S
C315 O318 1.252 . S
C315 O319 1.260 . S
C316 O323 1.217 1_545 S
C316 O324 1.252 . S
C317 O320 1.268 . S
C317 O321 1.260 . S
O318 In312 2.266 . S
O318 C315 1.252 . S
O319 In312 2.326 . S
O319 C315 1.260 . S
O320 In312 2.283 . S
O320 C317 1.268 . S
O321 In312 2.326 . S
O321 C317 1.260 . S
C322 O313 1.240 . S
C322 O314 1.252 . S
O323 In312 2.257 1_565 S
O323 C316 1.217 1_565 S
O324 In312 2.326 . S
O324 C316 1.252 . S
In325 O326 2.294 . S
In325 O327 2.326 . S
In325 O331 2.266 . S
In325 O332 2.326 . S
In325 O333 2.266 . S
In325 O334 2.326 . S
In325 O336 2.294 . S
In325 O337 2.326 . S
O326 In325 2.294 . S
O326 C335 1.240 . S
O327 In325 2.326 . S
O327 C335 1.252 . S
C328 O331 1.252 . S
C328 O332 1.260 . S
C329 O336 1.240 . S
C329 O337 1.252 . S
C330 O333 1.252 . S
C330 O334 1.260 . S
O331 In325 2.266 . S
O331 C328 1.252 . S
O332 In325 2.326 . S
O332 C328 1.260 . S
O333 In325 2.266 . S
O333 C330 1.252 . S
O334 In325 2.326 . S
O334 C330 1.260 . S
C335 O326 1.240 . S
C335 O327 1.252 . S
O336 In325 2.294 . S
O336 C329 1.240 . S
O337 In325 2.326 . S
O337 C329 1.252 . S
In338 O339 2.257 1_564 S
In338 O340 2.326 1_554 S
In338 O344 2.282 . S
In338 O345 2.326 . S
In338 O346 2.266 . S
In338 O347 2.326 . S
In338 O349 2.294 . S
In338 O350 2.326 . S
O339 In338 2.257 1_546 S
O339 C348 1.216 1_545 S
O340 In338 2.326 1_556 S
O340 C348 1.252 . S
C341 O344 1.267 . S
C341 O345 1.260 . S
C342 O349 1.240 . S
C342 O350 1.252 . S
C343 O346 1.252 . S
C343 O347 1.260 . S
O344 In338 2.282 . S
O344 C341 1.267 . S
O345 In338 2.326 . S
O345 C341 1.260 . S
O346 In338 2.266 . S
O346 C343 1.252 . S
O347 In338 2.326 . S
O347 C343 1.260 . S
C348 O339 1.216 1_565 S
C348 O340 1.252 . S
O349 In338 2.294 . S
O349 C342 1.240 . S
O350 In338 2.326 . S
O350 C342 1.252 . S
In351 O352 2.294 . S
In351 O353 2.326 . S
In351 O357 2.266 . S
In351 O358 2.326 . S
In351 O359 2.266 . S
In351 O360 2.326 . S
In351 O362 2.294 . S
In351 O363 2.326 . S
O352 In351 2.294 . S
O352 C361 1.240 . S
O353 In351 2.326 . S
O353 C361 1.252 . S
C354 O357 1.252 . S
C354 O358 1.260 . S
C355 O362 1.240 . S
C355 O363 1.252 . S
C356 O359 1.252 . S
C356 O360 1.260 . S
O357 In351 2.266 . S
O357 C354 1.252 . S
O358 In351 2.326 . S
O358 C354 1.260 . S
O359 In351 2.266 . S
O359 C356 1.252 . S
O360 In351 2.326 . S
O360 C356 1.260 . S
C361 O352 1.240 . S
C361 O353 1.252 . S
O362 In351 2.294 . S
O362 C355 1.240 . S
O363 In351 2.326 . S
O363 C355 1.252 . S
In364 O365 2.294 . S
In364 O366 2.326 . S
In364 O370 2.266 . S
In364 O371 2.326 . S
In364 O372 2.281 . S
In364 O373 2.326 . S
In364 O375 2.256 1_565 S
In364 O376 2.326 . S
O365 In364 2.294 . S
O365 C374 1.240 . S
O366 In364 2.326 . S
O366 C374 1.252 . S
C367 O370 1.252 . S
C367 O371 1.260 . S
C368 O375 1.216 1_565 S
C368 O376 1.252 . S
C369 O372 1.267 . S
C369 O373 1.260 . S
O370 In364 2.266 . S
O370 C367 1.252 . S
O371 In364 2.326 . S
O371 C367 1.260 . S
O372 In364 2.281 . S
O372 C369 1.267 . S
O373 In364 2.326 . S
O373 C369 1.260 . S
C374 O365 1.240 . S
C374 O366 1.252 . S
O375 In364 2.256 1_545 S
O375 C368 1.216 1_545 S
O376 In364 2.326 . S
O376 C368 1.252 . S
In377 O378 2.294 . S
In377 O379 2.326 . S
In377 O383 2.266 . S
In377 O384 2.326 . S
In377 O385 2.266 . S
In377 O386 2.326 . S
In377 O388 2.294 . S
In377 O389 2.326 . S
O378 In377 2.294 . S
O378 C387 1.240 . S
O379 In377 2.326 . S
O379 C387 1.252 . S
C380 O383 1.252 . S
C380 O384 1.260 . S
C381 O388 1.240 . S
C381 O389 1.252 . S
C382 O385 1.252 . S
C382 O386 1.260 . S
O383 In377 2.266 . S
O383 C380 1.252 . S
O384 In377 2.326 . S
O384 C380 1.260 . S
O385 In377 2.266 . S
O385 C382 1.252 . S
O386 In377 2.326 . S
O386 C382 1.260 . S
C387 O378 1.240 . S
C387 O379 1.252 . S
O388 In377 2.294 . S
O388 C381 1.240 . S
O389 In377 2.326 . S
O389 C381 1.252 . S
In390 O391 2.294 . S
In390 O392 2.326 . S
In390 O396 2.266 . S
In390 O397 2.326 . S
In390 O398 2.283 . S
In390 O399 2.326 . S
In390 O401 2.257 1_545 S
In390 O402 2.326 . S
O391 In390 2.294 . S
O391 C400 1.240 . S
O392 In390 2.326 . S
O392 C400 1.252 . S
C393 O396 1.252 . S
C393 O397 1.260 . S
C394 O401 1.217 1_545 S
C394 O402 1.252 . S
C395 O398 1.268 . S
C395 O399 1.260 . S
O396 In390 2.266 . S
O396 C393 1.252 . S
O397 In390 2.326 . S
O397 C393 1.260 . S
O398 In390 2.283 . S
O398 C395 1.268 . S
O399 In390 2.326 . S
O399 C395 1.260 . S
C400 O391 1.240 . S
C400 O392 1.252 . S
O401 In390 2.257 1_565 S
O401 C394 1.217 1_565 S
O402 In390 2.326 . S
O402 C394 1.252 . S
In403 O404 2.294 . S
In403 O405 2.326 . S
In403 O409 2.266 . S
In403 O410 2.326 . S
In403 O411 2.266 . S
In403 O412 2.326 . S
In403 O414 2.294 . S
In403 O415 2.326 . S
O404 In403 2.294 . S
O404 C413 1.240 . S
O405 In403 2.326 . S
O405 C413 1.252 . S
C406 O409 1.252 . S
C406 O410 1.260 . S
C407 O414 1.240 . S
C407 O415 1.252 . S
C408 O411 1.252 . S
C408 O412 1.260 . S
O409 In403 2.266 . S
O409 C406 1.252 . S
O410 In403 2.326 . S
O410 C406 1.260 . S
O411 In403 2.266 . S
O411 C408 1.252 . S
O412 In403 2.326 . S
O412 C408 1.260 . S
C413 O404 1.240 . S
C413 O405 1.252 . S
O414 In403 2.294 . S
O414 C407 1.240 . S
O415 In403 2.326 . S
O415 C407 1.252 . S
H416 C424 0.929 . S
H417 C426 0.930 . S
H418 C428 0.930 . S
H419 C431 0.929 . S
H420 C434 0.930 . S
H421 C436 0.960 . S
H422 C436 0.960 . S
H423 C436 0.960 . S
C424 H416 0.929 . S
C424 C425 1.377 . S
C424 C426 1.384 . S
C425 C424 1.377 . S
C425 C431 1.390 . S
C426 H417 0.930 . S
C426 C424 1.384 . S
C426 C427 1.372 . S
C427 C426 1.372 . S
C427 C428 1.400 . S
C427 C432 1.490 . S
C428 H418 0.930 . S
C428 C427 1.400 . S
C428 C431 1.386 . S
H429 C445 0.930 . S
H430 C446 0.931 . S
C431 H419 0.929 . S
C431 C425 1.390 . S
C431 C428 1.386 . S
C432 C427 1.490 . S
C432 C434 1.395 . S
C432 C435 1.403 . S
H433 C439 0.930 . S
C434 H420 0.930 . S
C434 C432 1.395 . S
C434 C437 1.403 1_655 S
C435 C432 1.403 . S
C435 C436 1.524 . S
C435 C439 1.400 1_655 S
C436 H421 0.960 . S
C436 H422 0.960 . S
C436 H423 0.960 . S
C436 C435 1.524 . S
C437 C434 1.403 1_455 S
C437 C438 1.392 . S
C437 C441 1.495 1_554 S
C438 C437 1.392 . S
C438 C439 1.385 . S
C438 C440 1.478 . S
C439 H433 0.930 . S
C439 C435 1.400 1_455 S
C439 C438 1.385 . S
C440 C438 1.478 . S
C440 C442 1.381 . S
C440 C446 1.383 . S
C441 C437 1.495 1_556 S
C441 H447 0.959 . S
C441 H448 0.961 . S
C441 H449 0.960 . S
C442 C440 1.381 . S
C442 C443 1.394 . S
C442 H450 0.930 . S
C443 C442 1.394 . S
C443 C444 1.383 . S
C443 H451 0.929 . S
C444 C443 1.383 . S
C444 C445 1.377 . S
C445 H429 0.930 . S
C445 C444 1.377 . S
C445 C446 1.379 . S
C446 H430 0.931 . S
C446 C440 1.383 . S
C446 C445 1.379 . S
H447 C441 0.959 . S
H448 C441 0.961 . S
H449 C441 0.960 . S
H450 C442 0.930 . S
H451 C443 0.929 . S
H452 C460 0.929 . S
H453 C462 0.930 . S
H454 C464 0.930 . S
H455 C467 0.929 . S
H456 C470 0.930 . S
H457 C472 0.960 . S
H458 C472 0.960 . S
H459 C472 0.960 . S
C460 H452 0.929 . S
C460 C461 1.377 . S
C460 C462 1.384 . S
C461 C460 1.377 . S
C461 C467 1.390 . S
C462 H453 0.930 . S
C462 C460 1.384 . S
C462 C463 1.372 . S
C463 C462 1.372 . S
C463 C464 1.400 . S
C463 C468 1.490 . S
C464 H454 0.930 . S
C464 C463 1.400 . S
C464 C467 1.386 . S
H465 C481 0.930 . S
H466 C482 0.931 . S
C467 H455 0.929 . S
C467 C461 1.390 . S
C467 C464 1.386 . S
C468 C463 1.490 . S
C468 C470 1.395 . S
C468 C471 1.403 . S
H469 C475 0.930 . S
C470 H456 0.930 . S
C470 C468 1.395 . S
C470 C473 1.403 . S
C471 C468 1.403 . S
C471 C472 1.524 . S
C471 C475 1.400 . S
C472 H457 0.960 . S
C472 H458 0.960 . S
C472 H459 0.960 . S
C472 C471 1.524 . S
C473 C470 1.403 . S
C473 C474 1.392 . S
C473 C477 1.495 . S
C474 C473 1.392 . S
C474 C475 1.385 . S
C474 C476 1.478 . S
C475 H469 0.930 . S
C475 C471 1.400 . S
C475 C474 1.385 . S
C476 C474 1.478 . S
C476 C478 1.381 . S
C476 C482 1.383 . S
C477 C473 1.495 . S
C477 H483 0.959 . S
C477 H484 0.961 . S
C477 H485 0.960 . S
C478 C476 1.381 . S
C478 C479 1.394 . S
C478 H486 0.930 . S
C479 C478 1.394 . S
C479 C480 1.383 . S
C479 H487 0.929 . S
C480 C479 1.383 . S
C480 C481 1.377 . S
C481 H465 0.930 . S
C481 C480 1.377 . S
C481 C482 1.379 . S
C482 H466 0.931 . S
C482 C476 1.383 . S
C482 C481 1.379 . S
H483 C477 0.959 . S
H484 C477 0.961 . S
H485 C477 0.960 . S
H486 C478 0.930 . S
H487 C479 0.929 . S
H488 C496 0.929 . S
H489 C498 0.930 . S
H490 C500 0.930 . S
H491 C503 0.929 . S
H492 C506 0.930 . S
H493 C508 0.960 . S
H494 C508 0.960 . S
H495 C508 0.960 . S
C496 H488 0.929 . S
C496 C497 1.377 . S
C496 C498 1.384 . S
C497 C496 1.377 . S
C497 C503 1.390 . S
C498 H489 0.930 . S
C498 C496 1.384 . S
C498 C499 1.372 . S
C499 C498 1.372 . S
C499 C500 1.400 . S
C499 C504 1.490 . S
C500 H490 0.930 . S
C500 C499 1.400 . S
C500 C503 1.386 . S
H501 C517 0.930 . S
H502 C518 0.931 . S
C503 H491 0.929 . S
C503 C497 1.390 . S
C503 C500 1.386 . S
C504 C499 1.490 . S
C504 C506 1.395 . S
C504 C507 1.403 . S
H505 C511 0.930 . S
C506 H492 0.930 . S
C506 C504 1.395 . S
C506 C509 1.403 . S
C507 C504 1.403 . S
C507 C508 1.524 . S
C507 C511 1.400 . S
C508 H493 0.960 . S
C508 H494 0.960 . S
C508 H495 0.960 . S
C508 C507 1.524 . S
C509 C506 1.403 . S
C509 C510 1.392 . S
C509 C513 1.495 . S
C510 C509 1.392 . S
C510 C511 1.385 . S
C510 C512 1.478 . S
C511 H505 0.930 . S
C511 C507 1.400 . S
C511 C510 1.385 . S
C512 C510 1.478 . S
C512 C514 1.381 . S
C512 C518 1.383 . S
C513 C509 1.495 . S
C513 H519 0.959 . S
C513 H520 0.961 . S
C513 H521 0.960 . S
C514 C512 1.381 . S
C514 C515 1.394 . S
C514 H522 0.930 . S
C515 C514 1.394 . S
C515 C516 1.383 . S
C515 H523 0.929 . S
C516 C515 1.383 . S
C516 C517 1.377 . S
C517 H501 0.930 . S
C517 C516 1.377 . S
C517 C518 1.379 . S
C518 H502 0.931 . S
C518 C512 1.383 . S
C518 C517 1.379 . S
H519 C513 0.959 . S
H520 C513 0.961 . S
H521 C513 0.960 . S
H522 C514 0.930 . S
H523 C515 0.929 . S
H524 C532 0.929 . S
H525 C534 0.930 . S
H526 C536 0.930 . S
H527 C539 0.929 . S
H528 C542 0.930 . S
H529 C544 0.960 . S
H530 C544 0.960 . S
H531 C544 0.960 . S
C532 H524 0.929 . S
C532 C533 1.377 . S
C532 C534 1.384 . S
C533 C532 1.377 . S
C533 C539 1.390 . S
C534 H525 0.930 . S
C534 C532 1.384 . S
C534 C535 1.372 . S
C535 C534 1.372 . S
C535 C536 1.400 . S
C535 C540 1.490 . S
C536 H526 0.930 . S
C536 C535 1.400 . S
C536 C539 1.386 . S
H537 C553 0.930 . S
H538 C554 0.931 . S
C539 H527 0.929 . S
C539 C533 1.390 . S
C539 C536 1.386 . S
C540 C535 1.490 . S
C540 C542 1.395 . S
C540 C543 1.403 . S
H541 C547 0.930 . S
C542 H528 0.930 . S
C542 C540 1.395 . S
C542 C545 1.403 . S
C543 C540 1.403 . S
C543 C544 1.524 . S
C543 C547 1.400 . S
C544 H529 0.960 . S
C544 H530 0.960 . S
C544 H531 0.960 . S
C544 C543 1.524 . S
C545 C542 1.403 . S
C545 C546 1.392 . S
C545 C549 1.495 . S
C546 C545 1.392 . S
C546 C547 1.385 . S
C546 C548 1.478 . S
C547 H541 0.930 . S
C547 C543 1.400 . S
C547 C546 1.385 . S
C548 C546 1.478 . S
C548 C550 1.381 . S
C548 C554 1.383 . S
C549 C545 1.495 . S
C549 H555 0.959 . S
C549 H556 0.961 . S
C549 H557 0.960 . S
C550 C548 1.381 . S
C550 C551 1.394 . S
C550 H558 0.930 . S
C551 C550 1.394 . S
C551 C552 1.383 . S
C551 H559 0.929 . S
C552 C551 1.383 . S
C552 C553 1.377 . S
C553 H537 0.930 . S
C553 C552 1.377 . S
C553 C554 1.379 . S
C554 H538 0.931 . S
C554 C548 1.383 . S
C554 C553 1.379 . S
H555 C549 0.959 . S
H556 C549 0.961 . S
H557 C549 0.960 . S
H558 C550 0.930 . S
H559 C551 0.929 . S
H560 C568 0.929 . S
H561 C570 0.930 . S
H562 C572 0.930 . S
H563 C575 0.929 . S
H564 C578 0.930 . S
H565 C580 1.004 . S
H566 C580 0.960 . S
H567 C580 0.960 . S
C568 H560 0.929 . S
C568 C569 1.377 . S
C568 C570 1.384 . S
C569 C568 1.377 . S
C569 C575 1.390 . S
C570 H561 0.930 . S
C570 C568 1.384 . S
C570 C571 1.372 . S
C571 C570 1.372 . S
C571 C572 1.400 . S
C571 C576 1.490 . S
C572 H562 0.930 . S
C572 C571 1.400 . S
C572 C575 1.386 . S
H573 C589 0.930 . S
H574 C590 0.931 . S
C575 H563 0.929 . S
C575 C569 1.390 . S
C575 C572 1.386 . S
C576 C571 1.490 . S
C576 C578 1.395 . S
C576 C579 1.403 . S
H577 C583 0.930 . S
C578 H564 0.930 . S
C578 C576 1.395 . S
C578 C581 1.403 1_455 S
C579 C576 1.403 . S
C579 C580 1.524 . S
C579 C583 1.400 1_455 S
C580 H565 1.004 . S
C580 H566 0.960 . S
C580 H567 0.960 . S
C580 C579 1.524 . S
C581 C578 1.403 1_655 S
C581 C582 1.392 . S
C581 C585 1.495 . S
C582 C581 1.392 . S
C582 C583 1.385 . S
C582 C584 1.478 . S
C583 H577 0.930 . S
C583 C579 1.400 1_655 S
C583 C582 1.385 . S
C584 C582 1.478 . S
C584 C586 1.381 . S
C584 C590 1.383 . S
C585 C581 1.495 . S
C585 H591 0.991 . S
C585 H592 0.961 . S
C585 H593 0.960 . S
C586 C584 1.381 . S
C586 C587 1.394 . S
C586 H594 0.930 . S
C587 C586 1.394 . S
C587 C588 1.383 . S
C587 H595 0.929 . S
C588 C587 1.383 . S
C588 C589 1.377 . S
C589 H573 0.930 . S
C589 C588 1.377 . S
C589 C590 1.379 . S
C590 H574 0.931 . S
C590 C584 1.383 . S
C590 C589 1.379 . S
H591 C585 0.991 . S
H592 C585 0.961 . S
H593 C585 0.960 . S
H594 C586 0.930 . S
H595 C587 0.929 . S
H596 C604 0.929 . S
H597 C606 0.930 . S
H598 C608 0.930 . S
H599 C611 0.929 . S
H600 C614 0.930 . S
H601 C616 0.960 . S
H602 C616 0.960 . S
H603 C616 0.960 . S
C604 H596 0.929 . S
C604 C605 1.377 . S
C604 C606 1.384 . S
C605 C604 1.377 . S
C605 C611 1.390 . S
C606 H597 0.930 . S
C606 C604 1.384 . S
C606 C607 1.372 . S
C607 C606 1.372 . S
C607 C608 1.400 . S
C607 C612 1.490 . S
C608 H598 0.930 . S
C608 C607 1.400 . S
C608 C611 1.386 . S
H609 C625 0.930 . S
H610 C626 0.931 . S
C611 H599 0.929 . S
C611 C605 1.390 . S
C611 C608 1.386 . S
C612 C607 1.490 . S
C612 C614 1.395 . S
C612 C615 1.403 . S
H613 C619 0.930 . S
C614 H600 0.930 . S
C614 C612 1.395 . S
C614 C617 1.403 . S
C615 C612 1.403 . S
C615 C616 1.524 . S
C615 C619 1.400 . S
C616 H601 0.960 . S
C616 H602 0.960 . S
C616 H603 0.960 . S
C616 C615 1.524 . S
C617 C614 1.403 . S
C617 C618 1.392 . S
C617 C621 1.495 . S
C618 C617 1.392 . S
C618 C619 1.385 . S
C618 C620 1.478 . S
C619 H613 0.930 . S
C619 C615 1.400 . S
C619 C618 1.385 . S
C620 C618 1.478 . S
C620 C622 1.381 . S
C620 C626 1.383 . S
C621 C617 1.495 . S
C621 H627 0.959 . S
C621 H628 0.961 . S
C621 H629 0.960 . S
C622 C620 1.381 . S
C622 C623 1.394 . S
C622 H630 0.930 . S
C623 C622 1.394 . S
C623 C624 1.383 . S
C623 H631 0.929 . S
C624 C623 1.383 . S
C624 C625 1.377 . S
C625 H609 0.930 . S
C625 C624 1.377 . S
C625 C626 1.379 . S
C626 H610 0.931 . S
C626 C620 1.383 . S
C626 C625 1.379 . S
H627 C621 0.959 . S
H628 C621 0.961 . S
H629 C621 0.960 . S
H630 C622 0.930 . S
H631 C623 0.929 . S
H632 C640 0.929 . S
H633 C642 0.930 . S
H634 C644 0.930 . S
H635 C647 0.929 . S
H636 C650 0.930 . S
H637 C652 0.960 . S
H638 C652 0.960 . S
H639 C652 0.960 . S
C640 H632 0.929 . S
C640 C641 1.377 . S
C640 C642 1.384 . S
C641 C640 1.377 . S
C641 C647 1.390 . S
C642 H633 0.930 . S
C642 C640 1.384 . S
C642 C643 1.372 . S
C643 C642 1.372 . S
C643 C644 1.400 . S
C643 C648 1.490 . S
C644 H634 0.930 . S
C644 C643 1.400 . S
C644 C647 1.386 . S
H645 C661 0.930 . S
H646 C662 0.931 . S
C647 H635 0.929 . S
C647 C641 1.390 . S
C647 C644 1.386 . S
C648 C643 1.490 . S
C648 C650 1.395 . S
C648 C651 1.403 . S
H649 C655 0.930 . S
C650 H636 0.930 . S
C650 C648 1.395 . S
C650 C653 1.403 . S
C651 C648 1.403 . S
C651 C652 1.524 1_554 S
C651 C655 1.400 . S
C652 H637 0.960 . S
C652 H638 0.960 . S
C652 H639 0.960 . S
C652 C651 1.524 1_556 S
C653 C650 1.403 . S
C653 C654 1.392 . S
C653 C657 1.495 . S
C654 C653 1.392 . S
C654 C655 1.385 . S
C654 C656 1.478 . S
C655 H649 0.930 . S
C655 C651 1.400 . S
C655 C654 1.385 . S
C656 C654 1.478 . S
C656 C658 1.381 . S
C656 C662 1.383 . S
C657 C653 1.495 . S
C657 H663 0.959 . S
C657 H664 0.961 . S
C657 H665 0.960 . S
C658 C656 1.381 . S
C658 C659 1.394 . S
C658 H666 0.930 . S
C659 C658 1.394 . S
C659 C660 1.383 . S
C659 H667 0.929 . S
C660 C659 1.383 . S
C660 C661 1.377 . S
C661 H645 0.930 . S
C661 C660 1.377 . S
C661 C662 1.379 . S
C662 H646 0.931 . S
C662 C656 1.383 . S
C662 C661 1.379 . S
H663 C657 0.959 . S
H664 C657 0.961 . S
H665 C657 0.960 . S
H666 C658 0.930 . S
H667 C659 0.929 . S
H668 C676 0.929 . S
H669 C678 0.930 . S
H670 C680 0.930 . S
H671 C683 0.929 . S
H672 C686 0.930 . S
H673 C688 0.960 . S
H674 C688 0.960 . S
H675 C688 0.960 . S
C676 H668 0.929 . S
C676 C677 1.377 . S
C676 C678 1.384 . S
C677 C676 1.377 . S
C677 C683 1.390 . S
C678 H669 0.930 . S
C678 C676 1.384 . S
C678 C679 1.372 . S
C679 C678 1.372 . S
C679 C680 1.400 . S
C679 C684 1.490 . S
C680 H670 0.930 . S
C680 C679 1.400 . S
C680 C683 1.386 . S
H681 C697 0.930 . S
H682 C698 0.931 . S
C683 H671 0.929 . S
C683 C677 1.390 . S
C683 C680 1.386 . S
C684 C679 1.490 . S
C684 C686 1.395 . S
C684 C687 1.403 . S
H685 C691 0.930 . S
C686 H672 0.930 . S
C686 C684 1.395 . S
C686 C689 1.403 . S
C687 C684 1.403 . S
C687 C688 1.524 . S
C687 C691 1.400 . S
C688 H673 0.960 . S
C688 H674 0.960 . S
C688 H675 0.960 . S
C688 C687 1.524 . S
C689 C686 1.403 . S
C689 C690 1.392 . S
C689 C693 1.495 . S
C690 C689 1.392 . S
C690 C691 1.385 . S
C690 C692 1.478 . S
C691 H685 0.930 . S
C691 C687 1.400 . S
C691 C690 1.385 . S
C692 C690 1.478 . S
C692 C694 1.381 . S
C692 C698 1.383 . S
C693 C689 1.495 . S
C693 H699 0.959 . S
C693 H700 0.961 . S
C693 H701 0.960 . S
C694 C692 1.381 . S
C694 C695 1.394 . S
C694 H702 0.930 . S
C695 C694 1.394 . S
C695 C696 1.383 . S
C695 H703 0.929 . S
C696 C695 1.383 . S
C696 C697 1.377 . S
C697 H681 0.930 . S
C697 C696 1.377 . S
C697 C698 1.379 . S
C698 H682 0.931 . S
C698 C692 1.383 . S
C698 C697 1.379 . S
H699 C693 0.959 . S
H700 C693 0.961 . S
H701 C693 0.960 . S
H702 C694 0.930 . S
H703 C695 0.929 . S
H704 C712 0.929 . S
H705 C714 0.930 . S
H706 C716 0.930 . S
H707 C719 0.929 . S
H708 C722 0.930 . S
H709 C724 0.960 . S
H710 C724 0.960 . S
H711 C724 0.960 . S
C712 H704 0.929 . S
C712 C713 1.377 . S
C712 C714 1.384 . S
C713 C712 1.377 . S
C713 C719 1.390 . S
C714 H705 0.930 . S
C714 C712 1.384 . S
C714 C715 1.372 . S
C715 C714 1.372 . S
C715 C716 1.400 . S
C715 C720 1.490 . S
C716 H706 0.930 . S
C716 C715 1.400 . S
C716 C719 1.386 . S
H717 C733 0.930 . S
H718 C734 0.931 . S
C719 H707 0.929 . S
C719 C713 1.390 . S
C719 C716 1.386 . S
C720 C715 1.490 . S
C720 C722 1.395 . S
C720 C723 1.403 . S
H721 C727 0.930 . S
C722 H708 0.930 . S
C722 C720 1.395 . S
C722 C725 1.403 . S
C723 C720 1.403 . S
C723 C724 1.524 . S
C723 C727 1.400 . S
C724 H709 0.960 . S
C724 H710 0.960 . S
C724 H711 0.960 . S
C724 C723 1.524 . S
C725 C722 1.403 . S
C725 C726 1.392 . S
C725 C729 1.495 . S
C726 C725 1.392 . S
C726 C727 1.385 . S
C726 C728 1.478 . S
C727 H721 0.930 . S
C727 C723 1.400 . S
C727 C726 1.385 . S
C728 C726 1.478 . S
C728 C730 1.381 . S
C728 C734 1.383 . S
C729 C725 1.495 . S
C729 H735 0.959 . S
C729 H736 0.961 . S
C729 H737 0.960 . S
C730 C728 1.381 . S
C730 C731 1.394 . S
C730 H738 0.930 . S
C731 C730 1.394 . S
C731 C732 1.383 . S
C731 H739 0.929 . S
C732 C731 1.383 . S
C732 C733 1.377 . S
C733 H717 0.930 . S
C733 C732 1.377 . S
C733 C734 1.379 . S
C734 H718 0.931 . S
C734 C728 1.383 . S
C734 C733 1.379 . S
H735 C729 0.959 . S
H736 C729 0.961 . S
H737 C729 0.960 . S
H738 C730 0.930 . S
H739 C731 0.929 . S
H740 C748 0.929 . S
H741 C750 0.930 . S
H742 C752 0.930 . S
H743 C755 0.929 . S
H744 C758 0.930 . S
H745 C760 0.960 . S
H746 C760 0.960 . S
H747 C760 0.960 . S
C748 H740 0.929 . S
C748 C749 1.377 . S
C748 C750 1.384 . S
C749 C748 1.377 . S
C749 C755 1.390 . S
C750 H741 0.930 . S
C750 C748 1.384 . S
C750 C751 1.372 . S
C751 C750 1.372 . S
C751 C752 1.400 . S
C751 C756 1.490 . S
C752 H742 0.930 . S
C752 C751 1.400 . S
C752 C755 1.386 . S
H753 C769 0.930 . S
H754 C770 0.931 . S
C755 H743 0.929 . S
C755 C749 1.390 . S
C755 C752 1.386 . S
C756 C751 1.490 . S
C756 C758 1.395 . S
C756 C759 1.403 . S
H757 C763 0.930 . S
C758 H744 0.930 . S
C758 C756 1.395 . S
C758 C761 1.403 . S
C759 C756 1.403 . S
C759 C760 1.524 . S
C759 C763 1.400 . S
C760 H745 0.960 . S
C760 H746 0.960 . S
C760 H747 0.960 . S
C760 C759 1.524 . S
C761 C758 1.403 . S
C761 C762 1.392 . S
C761 C765 1.495 . S
C762 C761 1.392 . S
C762 C763 1.385 . S
C762 C764 1.478 . S
C763 H757 0.930 . S
C763 C759 1.400 . S
C763 C762 1.385 . S
C764 C762 1.478 . S
C764 C766 1.381 . S
C764 C770 1.383 . S
C765 C761 1.495 . S
C765 H771 0.959 . S
C765 H772 0.961 . S
C765 H773 0.960 . S
C766 C764 1.381 . S
C766 C767 1.394 . S
C766 H774 0.930 . S
C767 C766 1.394 . S
C767 C768 1.383 . S
C767 H775 0.929 . S
C768 C767 1.383 . S
C768 C769 1.377 . S
C769 H753 0.930 . S
C769 C768 1.377 . S
C769 C770 1.379 . S
C770 H754 0.931 . S
C770 C764 1.383 . S
C770 C769 1.379 . S
H771 C765 0.959 . S
H772 C765 0.961 . S
H773 C765 0.960 . S
H774 C766 0.930 . S
H775 C767 0.929 . S
H776 C784 0.929 . S
H777 C786 0.930 . S
H778 C788 0.930 . S
H779 C791 0.929 . S
H780 C794 0.930 . S
H781 C796 0.960 . S
H782 C796 0.960 . S
H783 C796 0.960 . S
C784 H776 0.929 . S
C784 C785 1.377 . S
C784 C786 1.384 . S
C785 C784 1.377 . S
C785 C791 1.390 . S
C786 H777 0.930 . S
C786 C784 1.384 . S
C786 C787 1.372 . S
C787 C786 1.372 . S
C787 C788 1.400 . S
C787 C792 1.490 . S
C788 H778 0.930 . S
C788 C787 1.400 . S
C788 C791 1.386 . S
H789 C805 0.930 . S
H790 C806 0.931 . S
C791 H779 0.929 . S
C791 C785 1.390 . S
C791 C788 1.386 . S
C792 C787 1.490 . S
C792 C794 1.395 . S
C792 C795 1.403 . S
H793 C799 0.930 . S
C794 H780 0.930 . S
C794 C792 1.395 . S
C794 C797 1.403 . S
C795 C792 1.403 . S
C795 C796 1.524 . S
C795 C799 1.400 . S
C796 H781 0.960 . S
C796 H782 0.960 . S
C796 H783 0.960 . S
C796 C795 1.524 . S
C797 C794 1.403 . S
C797 C798 1.392 . S
C797 C801 1.495 . S
C798 C797 1.392 . S
C798 C799 1.385 . S
C798 C800 1.478 . S
C799 H793 0.930 . S
C799 C795 1.400 . S
C799 C798 1.385 . S
C800 C798 1.478 . S
C800 C802 1.381 . S
C800 C806 1.383 . S
C801 C797 1.495 . S
C801 H807 0.959 . S
C801 H808 0.961 . S
C801 H809 0.960 . S
C802 C800 1.381 . S
C802 C803 1.394 . S
C802 H810 0.930 . S
C803 C802 1.394 . S
C803 C804 1.383 . S
C803 H811 0.929 . S
C804 C803 1.383 . S
C804 C805 1.377 . S
C805 H789 0.930 . S
C805 C804 1.377 . S
C805 C806 1.379 . S
C806 H790 0.931 . S
C806 C800 1.383 . S
C806 C805 1.379 . S
H807 C801 0.959 . S
H808 C801 0.961 . S
H809 C801 0.960 . S
H810 C802 0.930 . S
H811 C803 0.929 . S
H812 C820 0.929 . S
H813 C822 0.930 . S
H814 C824 0.930 . S
H815 C827 0.929 . S
H816 C830 0.930 . S
H817 C832 0.960 . S
H818 C832 0.960 . S
H819 C832 0.960 . S
C820 H812 0.929 . S
C820 C821 1.377 . S
C820 C822 1.384 . S
C821 C820 1.377 . S
C821 C827 1.390 . S
C822 H813 0.930 . S
C822 C820 1.384 . S
C822 C823 1.372 . S
C823 C822 1.372 . S
C823 C824 1.400 . S
C823 C828 1.490 . S
C824 H814 0.930 . S
C824 C823 1.400 . S
C824 C827 1.386 . S
H825 C841 0.930 . S
H826 C842 0.931 . S
C827 H815 0.929 . S
C827 C821 1.390 . S
C827 C824 1.386 . S
C828 C823 1.490 . S
C828 C830 1.395 . S
C828 C831 1.403 . S
H829 C835 0.930 . S
C830 H816 0.930 . S
C830 C828 1.395 . S
C830 C833 1.403 . S
C831 C828 1.403 . S
C831 C832 1.524 . S
C831 C835 1.400 . S
C832 H817 0.960 . S
C832 H818 0.960 . S
C832 H819 0.960 . S
C832 C831 1.524 . S
C833 C830 1.403 . S
C833 C834 1.392 . S
C833 C837 1.495 . S
C834 C833 1.392 . S
C834 C835 1.385 . S
C834 C836 1.478 . S
C835 H829 0.930 . S
C835 C831 1.400 . S
C835 C834 1.385 . S
C836 C834 1.478 . S
C836 C838 1.381 . S
C836 C842 1.383 . S
C837 C833 1.495 . S
C837 H843 0.959 . S
C837 H844 0.961 . S
C837 H845 0.960 . S
C838 C836 1.381 . S
C838 C839 1.394 . S
C838 H846 0.930 . S
C839 C838 1.394 . S
C839 C840 1.383 . S
C839 H847 0.929 . S
C840 C839 1.383 . S
C840 C841 1.377 . S
C841 H825 0.930 . S
C841 C840 1.377 . S
C841 C842 1.379 . S
C842 H826 0.931 . S
C842 C836 1.383 . S
C842 C841 1.379 . S
H843 C837 0.959 . S
H844 C837 0.961 . S
H845 C837 0.960 . S
H846 C838 0.930 . S
H847 C839 0.929 . S
H848 C856 0.929 . S
H849 C858 0.930 . S
H850 C860 0.941 . S
H851 C863 0.929 . S
H852 C866 0.930 . S
H853 C868 0.960 . S
H854 C868 0.960 . S
H855 C868 0.960 . S
C856 H848 0.929 . S
C856 C857 1.377 . S
C856 C858 1.384 . S
C857 C856 1.377 . S
C857 C863 1.390 . S
C858 H849 0.930 . S
C858 C856 1.384 . S
C858 C859 1.372 . S
C859 C858 1.372 . S
C859 C860 1.400 . S
C859 C864 1.490 . S
C860 H850 0.941 . S
C860 C859 1.400 . S
C860 C863 1.386 . S
H861 C877 0.930 . S
H862 C878 0.931 . S
C863 H851 0.929 . S
C863 C857 1.390 . S
C863 C860 1.386 . S
C864 C859 1.490 . S
C864 C866 1.395 . S
C864 C867 1.403 1_545 S
H865 C871 0.930 . S
C866 H852 0.930 . S
C866 C864 1.395 . S
C866 C869 1.403 . S
C867 C864 1.403 1_565 S
C867 C868 1.524 . S
C867 C871 1.400 . S
C868 H853 0.960 . S
C868 H854 0.960 . S
C868 H855 0.960 . S
C868 C867 1.524 . S
C869 C866 1.403 . S
C869 C870 1.363 1_545 S
C869 C873 1.495 . S
C870 C869 1.363 1_565 S
C870 C871 1.409 . S
C870 C872 1.484 . S
C871 H865 0.930 . S
C871 C867 1.400 . S
C871 C870 1.409 . S
C872 C870 1.484 . S
C872 C874 1.381 . S
C872 C878 1.383 . S
C873 C869 1.495 . S
C873 H879 0.959 . S
C873 H880 0.961 . S
C873 H881 0.960 . S
C874 C872 1.381 . S
C874 C875 1.394 . S
C874 H882 0.938 . S
C875 C874 1.394 . S
C875 C876 1.383 . S
C875 H883 0.929 . S
C876 C875 1.383 . S
C876 C877 1.377 . S
C877 H861 0.930 . S
C877 C876 1.377 . S
C877 C878 1.379 . S
C878 H862 0.931 . S
C878 C872 1.383 . S
C878 C877 1.379 . S
H879 C873 0.959 . S
H880 C873 0.961 . S
H881 C873 0.960 . S
H882 C874 0.938 . S
H883 C875 0.929 . S
H884 C892 0.929 . S
H885 C894 0.930 . S
H886 C896 0.905 1_565 S
H887 C899 0.929 1_565 S
H888 C902 0.930 . S
H889 C904 0.960 . S
H890 C904 0.960 1_554 S
H891 C904 0.960 . S
C892 H884 0.929 . S
C892 C893 1.377 . S
C892 C894 1.384 . S
C893 C892 1.377 . S
C893 C899 1.390 . S
C894 H885 0.930 . S
C894 C892 1.384 . S
C894 C895 1.372 . S
C895 C894 1.372 . S
C895 C896 1.418 . S
C895 C900 1.490 . S
C896 H886 0.905 1_545 S
C896 C895 1.418 . S
C896 C899 1.394 . S
H897 C913 0.930 . S
H898 C914 0.931 . S
C899 H887 0.929 1_545 S
C899 C893 1.390 . S
C899 C896 1.394 . S
C900 C895 1.490 . S
C900 C902 1.395 1_545 S
C900 C903 1.403 . S
H901 C907 0.930 . S
C902 H888 0.930 . S
C902 C900 1.395 1_565 S
C902 C905 1.403 1_655 S
C903 C900 1.403 . S
C903 C904 1.524 1_554 S
C903 C907 1.400 1_655 S
C904 H889 0.960 . S
C904 H890 0.960 1_556 S
C904 H891 0.960 . S
C904 C903 1.524 1_556 S
C905 C902 1.403 1_455 S
C905 C906 1.392 . S
C905 C909 1.495 . S
C906 C905 1.392 . S
C906 C907 1.385 1_565 S
C906 C908 1.478 . S
C907 H901 0.930 . S
C907 C903 1.400 1_455 S
C907 C906 1.385 1_545 S
C908 C906 1.478 . S
C908 C910 1.379 . S
C908 C914 1.383 . S
C909 C905 1.495 . S
C909 H915 0.959 . S
C909 H916 0.961 . S
C909 H917 0.960 . S
C910 C908 1.379 . S
C910 C911 1.393 . S
C910 H918 0.933 1_565 S
C911 C910 1.393 . S
C911 C912 1.383 . S
C911 H919 0.929 1_565 S
C912 C911 1.383 . S
C912 C913 1.377 . S
C913 H897 0.930 . S
C913 C912 1.377 . S
C913 C914 1.379 . S
C914 H898 0.931 . S
C914 C908 1.383 . S
C914 C913 1.379 . S
H915 C909 0.959 . S
H916 C909 0.961 . S
H917 C909 0.960 . S
H918 C910 0.933 1_545 S
H919 C911 0.929 1_545 S
H920 C928 0.898 1_565 S
H921 C930 0.930 . S
H922 C932 0.930 . S
H923 C935 0.929 . S
H924 C938 0.930 . S
H925 C940 0.960 . S
H926 C940 0.960 . S
H927 C940 0.960 . S
C928 H920 0.898 1_545 S
C928 C929 1.423 . S
C928 C930 1.372 1_545 S
C929 C928 1.423 . S
C929 C935 1.390 . S
C930 H921 0.930 . S
C930 C928 1.372 1_565 S
C930 C931 1.372 1_565 S
C931 C930 1.372 1_545 S
C931 C932 1.400 . S
C931 C936 1.490 . S
C932 H922 0.930 . S
C932 C931 1.400 . S
C932 C935 1.386 . S
H933 C949 0.930 1_545 S
H934 C950 0.896 1_545 S
C935 H923 0.929 . S
C935 C929 1.390 . S
C935 C932 1.386 . S
C936 C931 1.490 . S
C936 C938 1.395 1_545 S
C936 C939 1.403 . S
H937 C943 0.930 . S
C938 H924 0.930 . S
C938 C936 1.395 1_565 S
C938 C941 1.403 . S
C939 C936 1.403 . S
C939 C940 1.524 . S
C939 C943 1.400 . S
C940 H925 0.960 . S
C940 H926 0.960 . S
C940 H927 0.960 . S
C940 C939 1.524 . S
C941 C938 1.403 . S
C941 C942 1.392 . S
C941 C945 1.495 . S
C942 C941 1.392 . S
C942 C943 1.385 1_565 S
C942 C944 1.478 . S
C943 H937 0.930 . S
C943 C939 1.400 . S
C943 C942 1.385 1_545 S
C944 C942 1.478 . S
C944 C946 1.381 . S
C944 C950 1.411 . S
C945 C941 1.495 . S
C945 H951 0.959 . S
C945 H952 0.961 . S
C945 H953 0.960 . S
C946 C944 1.381 . S
C946 C947 1.394 . S
C946 H954 0.930 . S
C947 C946 1.394 . S
C947 C948 1.383 . S
C947 H955 0.929 . S
C948 C947 1.383 . S
C948 C949 1.377 . S
C949 H933 0.930 1_565 S
C949 C948 1.377 . S
C949 C950 1.388 . S
C950 H934 0.896 1_565 S
C950 C944 1.411 . S
C950 C949 1.388 . S
H951 C945 0.959 . S
H952 C945 0.961 . S
H953 C945 0.960 . S
H954 C946 0.930 . S
H955 C947 0.929 . S
H956 C964 0.929 . S
H957 C966 0.930 . S
H958 C968 0.930 . S
H959 C971 0.929 1_565 S
H960 C974 0.930 . S
H961 C976 0.960 . S
H962 C976 0.960 . S
H963 C976 0.960 . S
C964 H956 0.929 . S
C964 C965 1.377 . S
C964 C966 1.384 . S
C965 C964 1.377 . S
C965 C971 1.390 . S
C966 H957 0.930 . S
C966 C964 1.384 . S
C966 C967 1.372 . S
C967 C966 1.372 . S
C967 C968 1.400 1_545 S
C967 C972 1.490 . S
C968 H958 0.930 . S
C968 C967 1.400 1_565 S
C968 C971 1.386 1_565 S
H969 C985 0.930 . S
H970 C986 0.931 . S
C971 H959 0.929 1_545 S
C971 C965 1.390 . S
C971 C968 1.386 1_545 S
C972 C967 1.490 . S
C972 C974 1.395 . S
C972 C975 1.403 1_545 S
H973 C979 0.930 . S
C974 H960 0.930 . S
C974 C972 1.395 . S
C974 C977 1.403 1_455 S
C975 C972 1.403 1_565 S
C975 C976 1.524 . S
C975 C979 1.400 1_455 S
C976 H961 0.960 . S
C976 H962 0.960 . S
C976 H963 0.960 . S
C976 C975 1.524 . S
C977 C974 1.403 1_655 S
C977 C978 1.373 1_545 S
C977 C981 1.495 . S
C978 C977 1.373 1_565 S
C978 C979 1.401 . S
C978 C980 1.482 . S
C979 H973 0.930 . S
C979 C975 1.400 1_655 S
C979 C978 1.401 . S
C980 C978 1.482 . S
C980 C982 1.381 1_565 S
C980 C986 1.383 . S
C981 C977 1.495 . S
C981 H987 0.959 . S
C981 H988 0.961 . S
C981 H989 0.960 . S
C982 C980 1.381 1_545 S
C982 C983 1.378 1_545 S
C982 H990 0.930 . S
C983 C982 1.378 1_565 S
C983 C984 1.432 . S
C983 H991 0.901 1_565 S
C984 C983 1.432 . S
C984 C985 1.377 . S
C985 H969 0.930 . S
C985 C984 1.377 . S
C985 C986 1.379 . S
C986 H970 0.931 . S
C986 C980 1.383 . S
C986 C985 1.379 . S
H987 C981 0.959 . S
H988 C981 0.961 . S
H989 C981 0.960 . S
H990 C982 0.930 . S
H991 C983 0.901 1_545 S
H992 C1000 0.929 . S
H993 C1002 0.930 . S
H994 C1004 0.930 . S
H995 C1007 0.929 . S
H996 C1010 0.930 . S
H997 C1012 0.960 . S
H998 C1012 0.960 . S
H999 C1012 0.960 . S
C1000 H992 0.929 . S
C1000 C1001 1.377 . S
C1000 C1002 1.384 . S
C1001 C1000 1.377 . S
C1001 C1007 1.390 . S
C1002 H993 0.930 . S
C1002 C1000 1.384 . S
C1002 C1003 1.372 . S
C1003 C1002 1.372 . S
C1003 C1004 1.400 . S
C1003 C1008 1.490 . S
C1004 H994 0.930 . S
C1004 C1003 1.400 . S
C1004 C1007 1.386 . S
H1005 C1021 0.930 . S
H1006 C1022 0.931 . S
C1007 H995 0.929 . S
C1007 C1001 1.390 . S
C1007 C1004 1.386 . S
C1008 C1003 1.490 . S
C1008 C1010 1.395 . S
C1008 C1011 1.403 . S
H1009 C1015 0.930 . S
C1010 H996 0.930 . S
C1010 C1008 1.395 . S
C1010 C1013 1.403 . S
C1011 C1008 1.403 . S
C1011 C1012 1.524 . S
C1011 C1015 1.400 . S
C1012 H997 0.960 . S
C1012 H998 0.960 . S
C1012 H999 0.960 . S
C1012 C1011 1.524 . S
C1013 C1010 1.403 . S
C1013 C1014 1.392 . S
C1013 C1017 1.495 . S
C1014 C1013 1.392 . S
C1014 C1015 1.385 . S
C1014 C1016 1.478 . S
C1015 H1009 0.930 . S
C1015 C1011 1.400 . S
C1015 C1014 1.385 . S
C1016 C1014 1.478 . S
C1016 C1018 1.381 . S
C1016 C1022 1.383 . S
C1017 C1013 1.495 . S
C1017 H1023 0.959 . S
C1017 H1024 0.961 . S
C1017 H1025 0.960 . S
C1018 C1016 1.381 . S
C1018 C1019 1.394 . S
C1018 H1026 0.930 . S
C1019 C1018 1.394 . S
C1019 C1020 1.383 . S
C1019 H1027 0.929 . S
C1020 C1019 1.383 . S
C1020 C1021 1.377 . S
C1021 H1005 0.930 . S
C1021 C1020 1.377 . S
C1021 C1022 1.379 . S
C1022 H1006 0.931 . S
C1022 C1016 1.383 . S
C1022 C1021 1.379 . S
H1023 C1017 0.959 . S
H1024 C1017 0.961 . S
H1025 C1017 0.960 . S
H1026 C1018 0.930 . S
H1027 C1019 0.929 . S
H1028 C1036 0.929 . S
H1029 C1038 0.930 . S
H1030 C1040 0.930 . S
H1031 C1043 0.929 . S
H1032 C1046 0.930 . S
H1033 C1048 0.960 . S
H1034 C1048 0.960 . S
H1035 C1048 0.960 . S
C1036 H1028 0.929 . S
C1036 C1037 1.377 . S
C1036 C1038 1.384 . S
C1037 C1036 1.377 . S
C1037 C1043 1.390 . S
C1038 H1029 0.930 . S
C1038 C1036 1.384 . S
C1038 C1039 1.372 . S
C1039 C1038 1.372 . S
C1039 C1040 1.400 . S
C1039 C1044 1.490 1_556 S
C1040 H1030 0.930 . S
C1040 C1039 1.400 . S
C1040 C1043 1.386 . S
H1041 C1057 0.930 . S
H1042 C1058 0.931 . S
C1043 H1031 0.929 . S
C1043 C1037 1.390 . S
C1043 C1040 1.386 . S
C1044 C1039 1.490 1_554 S
C1044 C1046 1.395 . S
C1044 C1047 1.403 . S
H1045 C1051 0.930 . S
C1046 H1032 0.930 . S
C1046 C1044 1.395 . S
C1046 C1049 1.403 . S
C1047 C1044 1.403 . S
C1047 C1048 1.524 . S
C1047 C1051 1.400 . S
C1048 H1033 0.960 . S
C1048 H1034 0.960 . S
C1048 H1035 0.960 . S
C1048 C1047 1.524 . S
C1049 C1046 1.403 . S
C1049 C1050 1.392 . S
C1049 C1053 1.495 . S
C1050 C1049 1.392 . S
C1050 C1051 1.385 . S
C1050 C1052 1.478 . S
C1051 H1045 0.930 . S
C1051 C1047 1.400 . S
C1051 C1050 1.385 . S
C1052 C1050 1.478 . S
C1052 C1054 1.381 . S
C1052 C1058 1.383 . S
C1053 C1049 1.495 . S
C1053 H1059 0.959 . S
C1053 H1060 0.961 . S
C1053 H1061 0.960 . S
C1054 C1052 1.381 . S
C1054 C1055 1.394 . S
C1054 H1062 0.930 . S
C1055 C1054 1.394 . S
C1055 C1056 1.383 . S
C1055 H1063 0.929 . S
C1056 C1055 1.383 . S
C1056 C1057 1.377 . S
C1057 H1041 0.930 . S
C1057 C1056 1.377 . S
C1057 C1058 1.379 . S
C1058 H1042 0.931 . S
C1058 C1052 1.383 . S
C1058 C1057 1.379 . S
H1059 C1053 0.959 . S
H1060 C1053 0.961 . S
H1061 C1053 0.960 . S
H1062 C1054 0.930 . S
H1063 C1055 0.929 . S
H1064 C1072 0.929 . S
H1065 C1074 0.930 . S
H1066 C1076 0.930 . S
H1067 C1079 0.929 . S
H1068 C1082 0.930 . S
H1069 C1084 0.960 . S
H1070 C1084 0.960 . S
H1071 C1084 0.960 . S
C1072 H1064 0.929 . S
C1072 C1073 1.377 . S
C1072 C1074 1.384 . S
C1073 C1072 1.377 . S
C1073 C1079 1.390 . S
C1074 H1065 0.930 . S
C1074 C1072 1.384 . S
C1074 C1075 1.372 . S
C1075 C1074 1.372 . S
C1075 C1076 1.400 . S
C1075 C1080 1.490 . S
C1076 H1066 0.930 . S
C1076 C1075 1.400 . S
C1076 C1079 1.386 . S
H1077 C1093 0.930 . S
H1078 C1094 0.931 . S
C1079 H1067 0.929 . S
C1079 C1073 1.390 . S
C1079 C1076 1.386 . S
C1080 C1075 1.490 . S
C1080 C1082 1.395 . S
C1080 C1083 1.403 . S
H1081 C1087 0.930 . S
C1082 H1068 0.930 . S
C1082 C1080 1.395 . S
C1082 C1085 1.403 . S
C1083 C1080 1.403 . S
C1083 C1084 1.524 . S
C1083 C1087 1.400 . S
C1084 H1069 0.960 . S
C1084 H1070 0.960 . S
C1084 H1071 0.960 . S
C1084 C1083 1.524 . S
C1085 C1082 1.403 . S
C1085 C1086 1.392 . S
C1085 C1089 1.495 . S
C1086 C1085 1.392 . S
C1086 C1087 1.385 . S
C1086 C1088 1.478 . S
C1087 H1081 0.930 . S
C1087 C1083 1.400 . S
C1087 C1086 1.385 . S
C1088 C1086 1.478 . S
C1088 C1090 1.381 . S
C1088 C1094 1.383 . S
C1089 C1085 1.495 . S
C1089 H1095 0.959 . S
C1089 H1096 0.961 . S
C1089 H1097 0.960 . S
C1090 C1088 1.381 . S
C1090 C1091 1.394 . S
C1090 H1098 0.930 . S
C1091 C1090 1.394 . S
C1091 C1092 1.383 . S
C1091 H1099 0.929 . S
C1092 C1091 1.383 . S
C1092 C1093 1.377 . S
C1093 H1077 0.930 . S
C1093 C1092 1.377 . S
C1093 C1094 1.379 . S
C1094 H1078 0.931 . S
C1094 C1088 1.383 . S
C1094 C1093 1.379 . S
H1095 C1089 0.959 . S
H1096 C1089 0.961 . S
H1097 C1089 0.960 . S
H1098 C1090 0.930 . S
H1099 C1091 0.929 . S
H1100 C1108 0.929 . S
H1101 C1110 0.930 . S
H1102 C1112 0.930 . S
H1103 C1115 0.929 . S
H1104 C1118 0.930 . S
H1105 C1120 0.960 . S
H1106 C1120 0.960 . S
H1107 C1120 0.960 . S
C1108 H1100 0.929 . S
C1108 C1109 1.377 . S
C1108 C1110 1.384 . S
C1109 C1108 1.377 . S
C1109 C1115 1.390 . S
C1110 H1101 0.930 . S
C1110 C1108 1.384 . S
C1110 C1111 1.372 . S
C1111 C1110 1.372 . S
C1111 C1112 1.400 . S
C1111 C1116 1.490 . S
C1112 H1102 0.930 . S
C1112 C1111 1.400 . S
C1112 C1115 1.386 . S
H1113 C1129 0.930 . S
H1114 C1130 0.931 . S
C1115 H1103 0.929 . S
C1115 C1109 1.390 . S
C1115 C1112 1.386 . S
C1116 C1111 1.490 . S
C1116 C1118 1.395 . S
C1116 C1119 1.403 . S
H1117 C1123 0.930 . S
C1118 H1104 0.930 . S
C1118 C1116 1.395 . S
C1118 C1121 1.403 . S
C1119 C1116 1.403 . S
C1119 C1120 1.524 . S
C1119 C1123 1.400 . S
C1120 H1105 0.960 . S
C1120 H1106 0.960 . S
C1120 H1107 0.960 . S
C1120 C1119 1.524 . S
C1121 C1118 1.403 . S
C1121 C1122 1.392 . S
C1121 C1125 1.495 . S
C1122 C1121 1.392 . S
C1122 C1123 1.385 . S
C1122 C1124 1.478 . S
C1123 H1117 0.930 . S
C1123 C1119 1.400 . S
C1123 C1122 1.385 . S
C1124 C1122 1.478 . S
C1124 C1126 1.381 . S
C1124 C1130 1.383 . S
C1125 C1121 1.495 . S
C1125 H1131 0.959 . S
C1125 H1132 0.961 . S
C1125 H1133 0.960 . S
C1126 C1124 1.381 . S
C1126 C1127 1.394 . S
C1126 H1134 0.930 . S
C1127 C1126 1.394 . S
C1127 C1128 1.383 . S
C1127 H1135 0.929 . S
C1128 C1127 1.383 . S
C1128 C1129 1.377 . S
C1129 H1113 0.930 . S
C1129 C1128 1.377 . S
C1129 C1130 1.379 . S
C1130 H1114 0.931 . S
C1130 C1124 1.383 . S
C1130 C1129 1.379 . S
H1131 C1125 0.959 . S
H1132 C1125 0.961 . S
H1133 C1125 0.960 . S
H1134 C1126 0.930 . S
H1135 C1127 0.929 . S
H1136 C1144 0.929 . S
H1137 C1146 0.930 . S
H1138 C1148 0.930 . S
H1139 C1151 0.929 . S
H1140 C1154 0.930 . S
H1141 C1156 0.960 . S
H1142 C1156 0.960 . S
H1143 C1156 0.960 . S
C1144 H1136 0.929 . S
C1144 C1145 1.377 . S
C1144 C1146 1.384 . S
C1145 C1144 1.377 . S
C1145 C1151 1.390 . S
C1146 H1137 0.930 . S
C1146 C1144 1.384 . S
C1146 C1147 1.372 . S
C1147 C1146 1.372 . S
C1147 C1148 1.400 . S
C1147 C1152 1.490 . S
C1148 H1138 0.930 . S
C1148 C1147 1.400 . S
C1148 C1151 1.386 . S
H1149 C1165 0.930 . S
H1150 C1166 0.931 . S
C1151 H1139 0.929 . S
C1151 C1145 1.390 . S
C1151 C1148 1.386 . S
C1152 C1147 1.490 . S
C1152 C1154 1.395 . S
C1152 C1155 1.403 . S
H1153 C1159 0.930 . S
C1154 H1140 0.930 . S
C1154 C1152 1.395 . S
C1154 C1157 1.403 . S
C1155 C1152 1.403 . S
C1155 C1156 1.524 . S
C1155 C1159 1.400 . S
C1156 H1141 0.960 . S
C1156 H1142 0.960 . S
C1156 H1143 0.960 . S
C1156 C1155 1.524 . S
C1157 C1154 1.403 . S
C1157 C1158 1.392 . S
C1157 C1161 1.495 . S
C1158 C1157 1.392 . S
C1158 C1159 1.385 . S
C1158 C1160 1.478 . S
C1159 H1153 0.930 . S
C1159 C1155 1.400 . S
C1159 C1158 1.385 . S
C1160 C1158 1.478 . S
C1160 C1162 1.381 . S
C1160 C1166 1.383 . S
C1161 C1157 1.495 . S
C1161 H1167 0.959 . S
C1161 H1168 0.961 . S
C1161 H1169 0.960 . S
C1162 C1160 1.381 . S
C1162 C1163 1.394 . S
C1162 H1170 0.930 . S
C1163 C1162 1.394 . S
C1163 C1164 1.383 . S
C1163 H1171 0.929 . S
C1164 C1163 1.383 . S
C1164 C1165 1.377 . S
C1165 H1149 0.930 . S
C1165 C1164 1.377 . S
C1165 C1166 1.379 . S
C1166 H1150 0.931 . S
C1166 C1160 1.383 . S
C1166 C1165 1.379 . S
H1167 C1161 0.959 . S
H1168 C1161 0.961 . S
H1169 C1161 0.960 . S
H1170 C1162 0.930 . S
H1171 C1163 0.929 . S
H1172 C1180 0.929 . S
H1173 C1182 0.930 . S
H1174 C1184 0.930 . S
H1175 C1187 0.929 . S
H1176 C1190 0.930 . S
H1177 C1192 0.960 . S
H1178 C1192 0.960 . S
H1179 C1192 0.960 . S
C1180 H1172 0.929 . S
C1180 C1181 1.377 . S
C1180 C1182 1.384 . S
C1181 C1180 1.377 . S
C1181 C1187 1.390 . S
C1182 H1173 0.930 . S
C1182 C1180 1.384 . S
C1182 C1183 1.372 . S
C1183 C1182 1.372 . S
C1183 C1184 1.400 . S
C1183 C1188 1.490 1_556 S
C1184 H1174 0.930 . S
C1184 C1183 1.400 . S
C1184 C1187 1.386 . S
H1185 C1201 0.930 . S
H1186 C1202 0.931 . S
C1187 H1175 0.929 . S
C1187 C1181 1.390 . S
C1187 C1184 1.386 . S
C1188 C1183 1.490 1_554 S
C1188 C1190 1.395 . S
C1188 C1191 1.403 . S
H1189 C1195 0.930 . S
C1190 H1176 0.930 . S
C1190 C1188 1.395 . S
C1190 C1193 1.403 . S
C1191 C1188 1.403 . S
C1191 C1192 1.524 . S
C1191 C1195 1.400 . S
C1192 H1177 0.960 . S
C1192 H1178 0.960 . S
C1192 H1179 0.960 . S
C1192 C1191 1.524 . S
C1193 C1190 1.403 . S
C1193 C1194 1.392 . S
C1193 C1197 1.495 . S
C1194 C1193 1.392 . S
C1194 C1195 1.385 . S
C1194 C1196 1.478 . S
C1195 H1189 0.930 . S
C1195 C1191 1.400 . S
C1195 C1194 1.385 . S
C1196 C1194 1.478 . S
C1196 C1198 1.381 . S
C1196 C1202 1.383 . S
C1197 C1193 1.495 . S
C1197 H1203 0.959 . S
C1197 H1204 0.961 . S
C1197 H1205 0.960 . S
C1198 C1196 1.381 . S
C1198 C1199 1.394 . S
C1198 H1206 0.930 . S
C1199 C1198 1.394 . S
C1199 C1200 1.383 . S
C1199 H1207 0.929 . S
C1200 C1199 1.383 . S
C1200 C1201 1.377 . S
C1201 H1185 0.930 . S
C1201 C1200 1.377 . S
C1201 C1202 1.379 . S
C1202 H1186 0.931 . S
C1202 C1196 1.383 . S
C1202 C1201 1.379 . S
H1203 C1197 0.959 . S
H1204 C1197 0.961 . S
H1205 C1197 0.960 . S
H1206 C1198 0.930 . S
H1207 C1199 0.929 . S
H1208 C1216 0.929 . S
H1209 C1218 0.930 . S
H1210 C1220 0.930 . S
H1211 C1223 0.929 . S
H1212 C1226 0.930 . S
H1213 C1228 0.960 . S
H1214 C1228 0.960 . S
H1215 C1228 0.960 . S
C1216 H1208 0.929 . S
C1216 C1217 1.377 . S
C1216 C1218 1.384 . S
C1217 C1216 1.377 . S
C1217 C1223 1.390 . S
C1218 H1209 0.930 . S
C1218 C1216 1.384 . S
C1218 C1219 1.372 . S
C1219 C1218 1.372 . S
C1219 C1220 1.400 . S
C1219 C1224 1.490 . S
C1220 H1210 0.930 . S
C1220 C1219 1.400 . S
C1220 C1223 1.386 . S
H1221 C1237 0.930 . S
H1222 C1238 0.931 . S
C1223 H1211 0.929 . S
C1223 C1217 1.390 . S
C1223 C1220 1.386 . S
C1224 C1219 1.490 . S
C1224 C1226 1.395 . S
C1224 C1227 1.403 . S
H1225 C1231 0.930 . S
C1226 H1212 0.930 . S
C1226 C1224 1.395 . S
C1226 C1229 1.403 . S
C1227 C1224 1.403 . S
C1227 C1228 1.524 . S
C1227 C1231 1.400 . S
C1228 H1213 0.960 . S
C1228 H1214 0.960 . S
C1228 H1215 0.960 . S
C1228 C1227 1.524 . S
C1229 C1226 1.403 . S
C1229 C1230 1.392 . S
C1229 C1233 1.495 . S
C1230 C1229 1.392 . S
C1230 C1231 1.385 . S
C1230 C1232 1.478 . S
C1231 H1225 0.930 . S
C1231 C1227 1.400 . S
C1231 C1230 1.385 . S
C1232 C1230 1.478 . S
C1232 C1234 1.381 . S
C1232 C1238 1.383 . S
C1233 C1229 1.495 . S
C1233 H1239 0.959 . S
C1233 H1240 0.961 . S
C1233 H1241 0.960 . S
C1234 C1232 1.381 . S
C1234 C1235 1.394 . S
C1234 H1242 0.930 . S
C1235 C1234 1.394 . S
C1235 C1236 1.383 . S
C1235 H1243 0.929 . S
C1236 C1235 1.383 . S
C1236 C1237 1.377 . S
C1237 H1221 0.930 . S
C1237 C1236 1.377 . S
C1237 C1238 1.379 . S
C1238 H1222 0.931 . S
C1238 C1232 1.383 . S
C1238 C1237 1.379 . S
H1239 C1233 0.959 . S
H1240 C1233 0.961 . S
H1241 C1233 0.960 . S
H1242 C1234 0.930 . S
H1243 C1235 0.929 . S
H1244 C1252 0.929 . S
H1245 C1254 0.930 . S
H1246 C1256 0.930 . S
H1247 C1259 0.929 . S
H1248 C1262 0.930 . S
H1249 C1264 0.960 . S
H1250 C1264 0.960 . S
H1251 C1264 0.960 . S
C1252 H1244 0.929 . S
C1252 C1253 1.377 . S
C1252 C1254 1.384 . S
C1253 C1252 1.377 . S
C1253 C1259 1.390 . S
C1254 H1245 0.930 . S
C1254 C1252 1.384 . S
C1254 C1255 1.372 . S
C1255 C1254 1.372 . S
C1255 C1256 1.400 . S
C1255 C1260 1.490 . S
C1256 H1246 0.930 . S
C1256 C1255 1.400 . S
C1256 C1259 1.386 . S
H1257 C1273 0.930 . S
H1258 C1274 0.931 . S
C1259 H1247 0.929 . S
C1259 C1253 1.390 . S
C1259 C1256 1.386 . S
C1260 C1255 1.490 . S
C1260 C1262 1.395 . S
C1260 C1263 1.403 . S
H1261 C1267 0.930 . S
C1262 H1248 0.930 . S
C1262 C1260 1.395 . S
C1262 C1265 1.403 . S
C1263 C1260 1.403 . S
C1263 C1264 1.524 . S
C1263 C1267 1.400 . S
C1264 H1249 0.960 . S
C1264 H1250 0.960 . S
C1264 H1251 0.960 . S
C1264 C1263 1.524 . S
C1265 C1262 1.403 . S
C1265 C1266 1.392 . S
C1265 C1269 1.495 . S
C1266 C1265 1.392 . S
C1266 C1267 1.385 . S
C1266 C1268 1.478 . S
C1267 H1261 0.930 . S
C1267 C1263 1.400 . S
C1267 C1266 1.385 . S
C1268 C1266 1.478 . S
C1268 C1270 1.381 . S
C1268 C1274 1.383 . S
C1269 C1265 1.495 . S
C1269 H1275 0.959 . S
C1269 H1276 0.961 . S
C1269 H1277 0.960 . S
C1270 C1268 1.381 . S
C1270 C1271 1.394 . S
C1270 H1278 0.930 . S
C1271 C1270 1.394 . S
C1271 C1272 1.383 . S
C1271 H1279 0.929 . S
C1272 C1271 1.383 . S
C1272 C1273 1.377 . S
C1273 H1257 0.930 . S
C1273 C1272 1.377 . S
C1273 C1274 1.379 . S
C1274 H1258 0.931 . S
C1274 C1268 1.383 . S
C1274 C1273 1.379 . S
H1275 C1269 0.959 . S
H1276 C1269 0.961 . S
H1277 C1269 0.960 . S
H1278 C1270 0.930 . S
H1279 C1271 0.929 . S
H1280 C1288 0.929 . S
H1281 C1290 0.930 . S
H1282 C1292 0.930 . S
H1283 C1295 0.929 . S
H1284 C1298 0.930 . S
H1285 C1300 0.960 . S
H1286 C1300 0.960 . S
H1287 C1300 0.960 . S
C1288 H1280 0.929 . S
C1288 C1289 1.377 1_565 S
C1288 C1290 1.384 . S
C1289 C1288 1.377 1_545 S
C1289 C1295 1.390 . S
C1290 H1281 0.930 . S
C1290 C1288 1.384 . S
C1290 C1291 1.372 1_565 S
C1291 C1290 1.372 1_545 S
C1291 C1292 1.400 . S
C1291 C1296 1.499 . S
C1292 H1282 0.930 . S
C1292 C1291 1.400 . S
C1292 C1295 1.386 . S
H1293 C1309 0.930 . S
H1294 C1310 0.931 . S
C1295 H1283 0.929 . S
C1295 C1289 1.390 . S
C1295 C1292 1.386 . S
C1296 C1291 1.499 . S
C1296 C1298 1.425 . S
C1296 C1299 1.370 1_545 S
H1297 C1303 0.930 . S
C1298 H1284 0.930 . S
C1298 C1296 1.425 . S
C1298 C1301 1.403 . S
C1299 C1296 1.370 1_565 S
C1299 C1300 1.524 . S
C1299 C1303 1.400 . S
C1300 H1285 0.960 . S
C1300 H1286 0.960 . S
C1300 H1287 0.960 . S
C1300 C1299 1.524 . S
C1301 C1298 1.403 . S
C1301 C1302 1.377 1_545 S
C1301 C1305 1.495 . S
C1302 C1301 1.377 1_565 S
C1302 C1303 1.399 . S
C1302 C1304 1.481 . S
C1303 H1297 0.930 . S
C1303 C1299 1.400 . S
C1303 C1302 1.399 . S
C1304 C1302 1.481 . S
C1304 C1306 1.381 . S
C1304 C1310 1.383 1_565 S
C1305 C1301 1.495 . S
C1305 H1311 0.959 . S
C1305 H1312 0.961 . S
C1305 H1313 0.960 . S
C1306 C1304 1.381 . S
C1306 C1307 1.394 . S
C1306 H1314 0.930 . S
C1307 C1306 1.394 . S
C1307 C1308 1.383 . S
C1307 H1315 0.929 . S
C1308 C1307 1.383 . S
C1308 C1309 1.377 1_565 S
C1309 H1293 0.930 . S
C1309 C1308 1.377 1_545 S
C1309 C1310 1.379 . S
C1310 H1294 0.931 . S
C1310 C1304 1.383 1_545 S
C1310 C1309 1.379 . S
H1311 C1305 0.959 . S
H1312 C1305 0.961 . S
H1313 C1305 0.960 . S
H1314 C1306 0.930 . S
H1315 C1307 0.929 . S
H1316 C1324 0.929 . S
H1317 C1326 0.930 . S
H1318 C1328 0.930 . S
H1319 C1331 0.929 . S
H1320 C1334 0.930 . S
H1321 C1336 0.960 . S
H1322 C1336 0.960 . S
H1323 C1336 0.960 . S
C1324 H1316 0.929 . S
C1324 C1325 1.377 . S
C1324 C1326 1.384 . S
C1325 C1324 1.377 . S
C1325 C1331 1.390 . S
C1326 H1317 0.930 . S
C1326 C1324 1.384 . S
C1326 C1327 1.372 . S
C1327 C1326 1.372 . S
C1327 C1328 1.400 . S
C1327 C1332 1.490 . S
C1328 H1318 0.930 . S
C1328 C1327 1.400 . S
C1328 C1331 1.386 . S
H1329 C1345 0.930 . S
H1330 C1346 0.931 . S
C1331 H1319 0.929 . S
C1331 C1325 1.390 . S
C1331 C1328 1.386 . S
C1332 C1327 1.490 . S
C1332 C1334 1.395 . S
C1332 C1335 1.403 . S
H1333 C1339 0.930 . S
C1334 H1320 0.930 . S
C1334 C1332 1.395 . S
C1334 C1337 1.403 . S
C1335 C1332 1.403 . S
C1335 C1336 1.524 . S
C1335 C1339 1.400 . S
C1336 H1321 0.960 . S
C1336 H1322 0.960 . S
C1336 H1323 0.960 . S
C1336 C1335 1.524 . S
C1337 C1334 1.403 . S
C1337 C1338 1.392 . S
C1337 C1341 1.495 . S
C1338 C1337 1.392 . S
C1338 C1339 1.385 . S
C1338 C1340 1.478 . S
C1339 H1333 0.930 . S
C1339 C1335 1.400 . S
C1339 C1338 1.385 . S
C1340 C1338 1.478 . S
C1340 C1342 1.381 . S
C1340 C1346 1.383 . S
C1341 C1337 1.495 . S
C1341 H1347 0.959 . S
C1341 H1348 0.961 . S
C1341 H1349 0.960 . S
C1342 C1340 1.381 . S
C1342 C1343 1.394 . S
C1342 H1350 0.930 . S
C1343 C1342 1.394 . S
C1343 C1344 1.383 . S
C1343 H1351 0.929 . S
C1344 C1343 1.383 . S
C1344 C1345 1.377 . S
C1345 H1329 0.930 . S
C1345 C1344 1.377 . S
C1345 C1346 1.379 . S
C1346 H1330 0.931 . S
C1346 C1340 1.383 . S
C1346 C1345 1.379 . S
H1347 C1341 0.959 . S
H1348 C1341 0.961 . S
H1349 C1341 0.960 . S
H1350 C1342 0.930 . S
H1351 C1343 0.929 . S
H1352 C1360 0.929 . S
H1353 C1362 0.930 1_565 S
H1354 C1364 0.930 . S
H1355 C1367 0.929 . S
H1356 C1370 0.930 . S
H1357 C1372 0.960 . S
H1358 C1372 0.960 . S
H1359 C1372 0.960 . S
C1360 H1352 0.929 . S
C1360 C1361 1.377 . S
C1360 C1362 1.384 . S
C1361 C1360 1.377 . S
C1361 C1367 1.390 . S
C1362 H1353 0.930 1_545 S
C1362 C1360 1.384 . S
C1362 C1363 1.372 . S
C1363 C1362 1.372 . S
C1363 C1364 1.400 . S
C1363 C1368 1.500 . S
C1364 H1354 0.930 . S
C1364 C1363 1.400 . S
C1364 C1367 1.386 . S
H1365 C1381 0.930 . S
H1366 C1382 0.931 . S
C1367 H1355 0.929 . S
C1367 C1361 1.390 . S
C1367 C1364 1.386 . S
C1368 C1363 1.500 . S
C1368 C1370 1.334 1_545 S
C1368 C1371 1.454 . S
H1369 C1375 0.930 . S
C1370 H1356 0.930 . S
C1370 C1368 1.334 1_565 S
C1370 C1373 1.403 . S
C1371 C1368 1.454 . S
C1371 C1372 1.524 . S
C1371 C1375 1.400 . S
C1372 H1357 0.960 . S
C1372 H1358 0.960 . S
C1372 H1359 0.960 . S
C1372 C1371 1.524 . S
C1373 C1370 1.403 . S
C1373 C1374 1.392 . S
C1373 C1377 1.495 . S
C1374 C1373 1.392 . S
C1374 C1375 1.385 1_565 S
C1374 C1376 1.478 . S
C1375 H1369 0.930 . S
C1375 C1371 1.400 . S
C1375 C1374 1.385 1_545 S
C1376 C1374 1.478 . S
C1376 C1378 1.381 . S
C1376 C1382 1.383 . S
C1377 C1373 1.495 . S
C1377 H1383 0.959 . S
C1377 H1384 0.961 . S
C1377 H1385 0.960 . S
C1378 C1376 1.381 . S
C1378 C1379 1.394 . S
C1378 H1386 0.930 . S
C1379 C1378 1.394 . S
C1379 C1380 1.383 . S
C1379 H1387 0.929 . S
C1380 C1379 1.383 . S
C1380 C1381 1.377 . S
C1381 H1365 0.930 . S
C1381 C1380 1.377 . S
C1381 C1382 1.379 . S
C1382 H1366 0.931 . S
C1382 C1376 1.383 . S
C1382 C1381 1.379 . S
H1383 C1377 0.959 . S
H1384 C1377 0.961 . S
H1385 C1377 0.960 . S
H1386 C1378 0.930 . S
H1387 C1379 0.929 . S
H1388 C1396 0.929 . S
H1389 C1398 0.930 . S
H1390 C1400 0.930 . S
H1391 C1403 0.929 . S
H1392 C1406 0.930 . S
H1393 C1408 0.960 . S
H1394 C1408 0.960 . S
H1395 C1408 0.960 . S
C1396 H1388 0.929 . S
C1396 C1397 1.377 . S
C1396 C1398 1.384 . S
C1397 C1396 1.377 . S
C1397 C1403 1.390 . S
C1398 H1389 0.930 . S
C1398 C1396 1.384 . S
C1398 C1399 1.372 . S
C1399 C1398 1.372 . S
C1399 C1400 1.400 . S
C1399 C1404 1.490 1_556 S
C1400 H1390 0.930 . S
C1400 C1399 1.400 . S
C1400 C1403 1.386 . S
H1401 C1417 0.930 . S
H1402 C1418 0.931 . S
C1403 H1391 0.929 . S
C1403 C1397 1.390 . S
C1403 C1400 1.386 . S
C1404 C1399 1.490 1_554 S
C1404 C1406 1.395 . S
C1404 C1407 1.403 . S
H1405 C1411 0.930 . S
C1406 H1392 0.930 . S
C1406 C1404 1.395 . S
C1406 C1409 1.403 . S
C1407 C1404 1.403 . S
C1407 C1408 1.524 . S
C1407 C1411 1.400 . S
C1408 H1393 0.960 . S
C1408 H1394 0.960 . S
C1408 H1395 0.960 . S
C1408 C1407 1.524 . S
C1409 C1406 1.403 . S
C1409 C1410 1.392 . S
C1409 C1413 1.495 . S
C1410 C1409 1.392 . S
C1410 C1411 1.385 . S
C1410 C1412 1.478 . S
C1411 H1405 0.930 . S
C1411 C1407 1.400 . S
C1411 C1410 1.385 . S
C1412 C1410 1.478 . S
C1412 C1414 1.381 . S
C1412 C1418 1.383 . S
C1413 C1409 1.495 . S
C1413 H1419 0.959 . S
C1413 H1420 0.961 . S
C1413 H1421 0.960 . S
C1414 C1412 1.381 . S
C1414 C1415 1.394 . S
C1414 H1422 0.930 . S
C1415 C1414 1.394 . S
C1415 C1416 1.383 . S
C1415 H1423 0.929 . S
C1416 C1415 1.383 . S
C1416 C1417 1.377 . S
C1417 H1401 0.930 . S
C1417 C1416 1.377 . S
C1417 C1418 1.379 . S
C1418 H1402 0.931 . S
C1418 C1412 1.383 . S
C1418 C1417 1.379 . S
H1419 C1413 0.959 . S
H1420 C1413 0.961 . S
H1421 C1413 0.960 . S
H1422 C1414 0.930 . S
H1423 C1415 0.929 . S
H1424 C1432 0.929 . S
H1425 C1434 0.930 . S
H1426 C1436 0.930 . S
H1427 C1439 0.929 . S
H1428 C1442 0.930 . S
H1429 C1444 0.960 . S
H1430 C1444 0.960 . S
H1431 C1444 0.960 . S
C1432 H1424 0.929 . S
C1432 C1433 1.377 . S
C1432 C1434 1.384 . S
C1433 C1432 1.377 . S
C1433 C1439 1.390 . S
C1434 H1425 0.930 . S
C1434 C1432 1.384 . S
C1434 C1435 1.372 . S
C1435 C1434 1.372 . S
C1435 C1436 1.400 . S
C1435 C1440 1.501 . S
C1436 H1426 0.930 . S
C1436 C1435 1.400 . S
C1436 C1439 1.386 . S
H1437 C1453 0.930 . S
H1438 C1454 0.931 . S
C1439 H1427 0.929 . S
C1439 C1433 1.390 . S
C1439 C1436 1.386 . S
C1440 C1435 1.501 . S
C1440 C1442 1.329 1_565 S
C1440 C1443 1.459 . S
H1441 C1447 0.930 . S
C1442 H1428 0.930 . S
C1442 C1440 1.329 1_545 S
C1442 C1445 1.403 . S
C1443 C1440 1.459 . S
C1443 C1444 1.524 . S
C1443 C1447 1.400 . S
C1444 H1429 0.960 . S
C1444 H1430 0.960 . S
C1444 H1431 0.960 . S
C1444 C1443 1.524 . S
C1445 C1442 1.403 . S
C1445 C1446 1.392 . S
C1445 C1449 1.495 . S
C1446 C1445 1.392 . S
C1446 C1447 1.385 1_545 S
C1446 C1448 1.478 . S
C1447 H1441 0.930 . S
C1447 C1443 1.400 . S
C1447 C1446 1.385 1_565 S
C1448 C1446 1.478 . S
C1448 C1450 1.381 . S
C1448 C1454 1.383 . S
C1449 C1445 1.495 . S
C1449 H1455 0.959 . S
C1449 H1456 0.961 . S
C1449 H1457 0.960 . S
C1450 C1448 1.381 . S
C1450 C1451 1.394 . S
C1450 H1458 0.930 . S
C1451 C1450 1.394 . S
C1451 C1452 1.383 . S
C1451 H1459 0.929 . S
C1452 C1451 1.383 . S
C1452 C1453 1.377 . S
C1453 H1437 0.930 . S
C1453 C1452 1.377 . S
C1453 C1454 1.379 . S
C1454 H1438 0.931 . S
C1454 C1448 1.383 . S
C1454 C1453 1.379 . S
H1455 C1449 0.959 . S
H1456 C1449 0.961 . S
H1457 C1449 0.960 . S
H1458 C1450 0.930 . S
H1459 C1451 0.929 . S
H1460 C1468 0.929 . S
H1461 C1470 0.930 . S
H1462 C1472 0.930 . S
H1463 C1475 0.929 . S
H1464 C1478 0.930 . S
H1465 C1480 0.960 . S
H1466 C1480 0.960 . S
H1467 C1480 0.960 . S
C1468 H1460 0.929 . S
C1468 C1469 1.377 . S
C1468 C1470 1.384 . S
C1469 C1468 1.377 . S
C1469 C1475 1.390 . S
C1470 H1461 0.930 . S
C1470 C1468 1.384 . S
C1470 C1471 1.372 . S
C1471 C1470 1.372 . S
C1471 C1472 1.400 . S
C1471 C1476 1.490 . S
C1472 H1462 0.930 . S
C1472 C1471 1.400 . S
C1472 C1475 1.386 . S
H1473 C1489 0.930 . S
H1474 C1490 0.931 . S
C1475 H1463 0.929 . S
C1475 C1469 1.390 . S
C1475 C1472 1.386 . S
C1476 C1471 1.490 . S
C1476 C1478 1.395 . S
C1476 C1479 1.403 . S
H1477 C1483 0.930 . S
C1478 H1464 0.930 . S
C1478 C1476 1.395 . S
C1478 C1481 1.403 . S
C1479 C1476 1.403 . S
C1479 C1480 1.524 . S
C1479 C1483 1.400 . S
C1480 H1465 0.960 . S
C1480 H1466 0.960 . S
C1480 H1467 0.960 . S
C1480 C1479 1.524 . S
C1481 C1478 1.403 . S
C1481 C1482 1.392 . S
C1481 C1485 1.495 . S
C1482 C1481 1.392 . S
C1482 C1483 1.385 . S
C1482 C1484 1.478 . S
C1483 H1477 0.930 . S
C1483 C1479 1.400 . S
C1483 C1482 1.385 . S
C1484 C1482 1.478 . S
C1484 C1486 1.381 . S
C1484 C1490 1.383 . S
C1485 C1481 1.495 . S
C1485 H1491 0.959 . S
C1485 H1492 0.961 . S
C1485 H1493 0.960 . S
C1486 C1484 1.381 . S
C1486 C1487 1.394 . S
C1486 H1494 0.930 . S
C1487 C1486 1.394 . S
C1487 C1488 1.383 . S
C1487 H1495 0.929 . S
C1488 C1487 1.383 . S
C1488 C1489 1.377 . S
C1489 H1473 0.930 . S
C1489 C1488 1.377 . S
C1489 C1490 1.379 . S
C1490 H1474 0.931 . S
C1490 C1484 1.383 . S
C1490 C1489 1.379 . S
H1491 C1485 0.959 . S
H1492 C1485 0.961 . S
H1493 C1485 0.960 . S
H1494 C1486 0.930 . S
H1495 C1487 0.929 . S
H1496 C1504 0.929 . S
H1497 C1506 0.930 1_565 S
H1498 C1508 0.930 . S
H1499 C1511 0.929 . S
H1500 C1514 0.930 . S
H1501 C1516 0.960 . S
H1502 C1516 0.960 . S
H1503 C1516 0.960 . S
C1504 H1496 0.929 . S
C1504 C1505 1.377 . S
C1504 C1506 1.384 . S
C1505 C1504 1.377 . S
C1505 C1511 1.390 . S
C1506 H1497 0.930 1_545 S
C1506 C1504 1.384 . S
C1506 C1507 1.372 . S
C1507 C1506 1.372 . S
C1507 C1508 1.400 . S
C1507 C1512 1.500 . S
C1508 H1498 0.930 . S
C1508 C1507 1.400 . S
C1508 C1511 1.386 . S
H1509 C1525 0.930 . S
H1510 C1526 0.931 . S
C1511 H1499 0.929 . S
C1511 C1505 1.390 . S
C1511 C1508 1.386 . S
C1512 C1507 1.500 . S
C1512 C1514 1.333 1_545 S
C1512 C1515 1.456 . S
H1513 C1519 0.930 . S
C1514 H1500 0.930 . S
C1514 C1512 1.333 1_565 S
C1514 C1517 1.403 . S
C1515 C1512 1.456 . S
C1515 C1516 1.524 . S
C1515 C1519 1.400 . S
C1516 H1501 0.960 . S
C1516 H1502 0.960 . S
C1516 H1503 0.960 . S
C1516 C1515 1.524 . S
C1517 C1514 1.403 . S
C1517 C1518 1.392 . S
C1517 C1521 1.495 . S
C1518 C1517 1.392 . S
C1518 C1519 1.385 1_565 S
C1518 C1520 1.478 . S
C1519 H1513 0.930 . S
C1519 C1515 1.400 . S
C1519 C1518 1.385 1_545 S
C1520 C1518 1.478 . S
C1520 C1522 1.381 . S
C1520 C1526 1.383 . S
C1521 C1517 1.495 . S
C1521 H1527 0.959 . S
C1521 H1528 0.961 . S
C1521 H1529 0.960 . S
C1522 C1520 1.381 . S
C1522 C1523 1.394 . S
C1522 H1530 0.930 . S
C1523 C1522 1.394 . S
C1523 C1524 1.383 . S
C1523 H1531 0.929 . S
C1524 C1523 1.383 . S
C1524 C1525 1.377 . S
C1525 H1509 0.930 . S
C1525 C1524 1.377 . S
C1525 C1526 1.379 . S
C1526 H1510 0.931 . S
C1526 C1520 1.383 . S
C1526 C1525 1.379 . S
H1527 C1521 0.959 . S
H1528 C1521 0.961 . S
H1529 C1521 0.960 . S
H1530 C1522 0.930 . S
H1531 C1523 0.929 . S
H1532 C1540 0.929 . S
H1533 C1542 0.930 . S
H1534 C1544 0.930 . S
H1535 C1547 0.929 . S
H1536 C1550 0.930 . S
H1537 C1552 0.960 . S
H1538 C1552 0.960 . S
H1539 C1552 0.960 . S
C1540 H1532 0.929 . S
C1540 C1541 1.377 . S
C1540 C1542 1.384 . S
C1541 C1540 1.377 . S
C1541 C1547 1.390 . S
C1542 H1533 0.930 . S
C1542 C1540 1.384 . S
C1542 C1543 1.372 . S
C1543 C1542 1.372 . S
C1543 C1544 1.400 . S
C1543 C1548 1.490 . S
C1544 H1534 0.930 . S
C1544 C1543 1.400 . S
C1544 C1547 1.386 . S
H1545 C1561 0.930 . S
H1546 C1562 0.931 . S
C1547 H1535 0.929 . S
C1547 C1541 1.390 . S
C1547 C1544 1.386 . S
C1548 C1543 1.490 . S
C1548 C1550 1.395 . S
C1548 C1551 1.403 . S
H1549 C1555 0.930 . S
C1550 H1536 0.930 . S
C1550 C1548 1.395 . S
C1550 C1553 1.403 . S
C1551 C1548 1.403 . S
C1551 C1552 1.524 . S
C1551 C1555 1.400 . S
C1552 H1537 0.960 . S
C1552 H1538 0.960 . S
C1552 H1539 0.960 . S
C1552 C1551 1.524 . S
C1553 C1550 1.403 . S
C1553 C1554 1.392 . S
C1553 C1557 1.495 . S
C1554 C1553 1.392 . S
C1554 C1555 1.385 . S
C1554 C1556 1.478 1_554 S
C1555 H1549 0.930 . S
C1555 C1551 1.400 . S
C1555 C1554 1.385 . S
C1556 C1554 1.478 1_556 S
C1556 C1558 1.381 . S
C1556 C1562 1.383 . S
C1557 C1553 1.495 . S
C1557 H1563 0.959 . S
C1557 H1564 0.961 . S
C1557 H1565 0.960 . S
C1558 C1556 1.381 . S
C1558 C1559 1.394 . S
C1558 H1566 0.930 . S
C1559 C1558 1.394 . S
C1559 C1560 1.383 . S
C1559 H1567 0.929 . S
C1560 C1559 1.383 . S
C1560 C1561 1.377 . S
C1561 H1545 0.930 . S
C1561 C1560 1.377 . S
C1561 C1562 1.379 . S
C1562 H1546 0.931 . S
C1562 C1556 1.383 . S
C1562 C1561 1.379 . S
H1563 C1557 0.959 . S
H1564 C1557 0.961 . S
H1565 C1557 0.960 . S
H1566 C1558 0.930 . S
H1567 C1559 0.929 . S
H1568 C1576 0.929 . S
H1569 C1578 0.930 . S
H1570 C1580 0.930 . S
H1571 C1583 0.929 . S
H1572 C1586 0.930 . S
H1573 C1588 0.960 . S
H1574 C1588 0.960 . S
H1575 C1588 0.960 . S
C1576 H1568 0.929 . S
C1576 C1577 1.377 . S
C1576 C1578 1.384 . S
C1577 C1576 1.377 . S
C1577 C1583 1.390 . S
C1578 H1569 0.930 . S
C1578 C1576 1.384 . S
C1578 C1579 1.372 . S
C1579 C1578 1.372 . S
C1579 C1580 1.400 . S
C1579 C1584 1.490 . S
C1580 H1570 0.930 . S
C1580 C1579 1.400 . S
C1580 C1583 1.386 . S
H1581 C1597 0.930 . S
H1582 C1598 0.931 . S
C1583 H1571 0.929 . S
C1583 C1577 1.390 . S
C1583 C1580 1.386 . S
C1584 C1579 1.490 . S
C1584 C1586 1.395 . S
C1584 C1587 1.403 . S
H1585 C1591 0.930 . S
C1586 H1572 0.930 . S
C1586 C1584 1.395 . S
C1586 C1589 1.403 . S
C1587 C1584 1.403 . S
C1587 C1588 1.524 . S
C1587 C1591 1.400 . S
C1588 H1573 0.960 . S
C1588 H1574 0.960 . S
C1588 H1575 0.960 . S
C1588 C1587 1.524 . S
C1589 C1586 1.403 . S
C1589 C1590 1.392 . S
C1589 C1593 1.495 . S
C1590 C1589 1.392 . S
C1590 C1591 1.385 . S
C1590 C1592 1.478 . S
C1591 H1585 0.930 . S
C1591 C1587 1.400 . S
C1591 C1590 1.385 . S
C1592 C1590 1.478 . S
C1592 C1594 1.381 . S
C1592 C1598 1.383 . S
C1593 C1589 1.495 . S
C1593 H1599 0.959 . S
C1593 H1600 0.961 . S
C1593 H1601 0.960 . S
C1594 C1592 1.381 . S
C1594 C1595 1.394 . S
C1594 H1602 0.930 . S
C1595 C1594 1.394 . S
C1595 C1596 1.383 . S
C1595 H1603 0.929 . S
C1596 C1595 1.383 . S
C1596 C1597 1.377 . S
C1597 H1581 0.930 . S
C1597 C1596 1.377 . S
C1597 C1598 1.379 . S
C1598 H1582 0.931 . S
C1598 C1592 1.383 . S
C1598 C1597 1.379 . S
H1599 C1593 0.959 . S
H1600 C1593 0.961 . S
H1601 C1593 0.960 . S
H1602 C1594 0.930 . S
H1603 C1595 0.929 . S
H1604 C1612 0.929 . S
H1605 C1614 0.930 . S
H1606 C1616 0.930 . S
H1607 C1619 0.929 . S
H1608 C1622 0.930 . S
H1609 C1624 0.960 . S
H1610 C1624 0.960 . S
H1611 C1624 0.960 . S
C1612 H1604 0.929 . S
C1612 C1613 1.377 . S
C1612 C1614 1.384 . S
C1613 C1612 1.377 . S
C1613 C1619 1.390 . S
C1614 H1605 0.930 . S
C1614 C1612 1.384 . S
C1614 C1615 1.372 . S
C1615 C1614 1.372 . S
C1615 C1616 1.400 . S
C1615 C1620 1.490 . S
C1616 H1606 0.930 . S
C1616 C1615 1.400 . S
C1616 C1619 1.386 . S
H1617 C1633 0.930 . S
H1618 C1634 0.931 . S
C1619 H1607 0.929 . S
C1619 C1613 1.390 . S
C1619 C1616 1.386 . S
C1620 C1615 1.490 . S
C1620 C1622 1.395 . S
C1620 C1623 1.403 . S
H1621 C1627 0.930 . S
C1622 H1608 0.930 . S
C1622 C1620 1.395 . S
C1622 C1625 1.403 . S
C1623 C1620 1.403 . S
C1623 C1624 1.524 . S
C1623 C1627 1.400 . S
C1624 H1609 0.960 . S
C1624 H1610 0.960 . S
C1624 H1611 0.960 . S
C1624 C1623 1.524 . S
C1625 C1622 1.403 . S
C1625 C1626 1.392 . S
C1625 C1629 1.495 . S
C1626 C1625 1.392 . S
C1626 C1627 1.385 . S
C1626 C1628 1.478 . S
C1627 H1621 0.930 . S
C1627 C1623 1.400 . S
C1627 C1626 1.385 . S
C1628 C1626 1.478 . S
C1628 C1630 1.381 . S
C1628 C1634 1.383 . S
C1629 C1625 1.495 . S
C1629 H1635 0.959 . S
C1629 H1636 0.961 . S
C1629 H1637 0.960 . S
C1630 C1628 1.381 . S
C1630 C1631 1.394 . S
C1630 H1638 0.930 . S
C1631 C1630 1.394 . S
C1631 C1632 1.383 . S
C1631 H1639 0.929 . S
C1632 C1631 1.383 . S
C1632 C1633 1.377 . S
C1633 H1617 0.930 . S
C1633 C1632 1.377 . S
C1633 C1634 1.379 . S
C1634 H1618 0.931 . S
C1634 C1628 1.383 . S
C1634 C1633 1.379 . S
H1635 C1629 0.959 . S
H1636 C1629 0.961 . S
H1637 C1629 0.960 . S
H1638 C1630 0.930 . S
H1639 C1631 0.929 . S
H1640 C1648 0.929 . S
H1641 C1650 0.930 . S
H1642 C1652 0.930 . S
H1643 C1655 0.929 . S
H1644 C1658 0.930 . S
H1645 C1660 0.960 . S
H1646 C1660 0.960 . S
H1647 C1660 0.960 . S
C1648 H1640 0.929 . S
C1648 C1649 1.377 . S
C1648 C1650 1.384 . S
C1649 C1648 1.377 . S
C1649 C1655 1.390 . S
C1650 H1641 0.930 . S
C1650 C1648 1.384 . S
C1650 C1651 1.372 . S
C1651 C1650 1.372 . S
C1651 C1652 1.400 . S
C1651 C1656 1.490 . S
C1652 H1642 0.930 . S
C1652 C1651 1.400 . S
C1652 C1655 1.386 . S
H1653 C1669 0.930 . S
H1654 C1670 0.931 . S
C1655 H1643 0.929 . S
C1655 C1649 1.390 . S
C1655 C1652 1.386 . S
C1656 C1651 1.490 . S
C1656 C1658 1.395 . S
C1656 C1659 1.403 . S
H1657 C1663 0.930 . S
C1658 H1644 0.930 . S
C1658 C1656 1.395 . S
C1658 C1661 1.403 . S
C1659 C1656 1.403 . S
C1659 C1660 1.524 . S
C1659 C1663 1.400 . S
C1660 H1645 0.960 . S
C1660 H1646 0.960 . S
C1660 H1647 0.960 . S
C1660 C1659 1.524 . S
C1661 C1658 1.403 . S
C1661 C1662 1.392 . S
C1661 C1665 1.495 . S
C1662 C1661 1.392 . S
C1662 C1663 1.385 . S
C1662 C1664 1.478 . S
C1663 H1657 0.930 . S
C1663 C1659 1.400 . S
C1663 C1662 1.385 . S
C1664 C1662 1.478 . S
C1664 C1666 1.381 . S
C1664 C1670 1.383 . S
C1665 C1661 1.495 . S
C1665 H1671 0.959 . S
C1665 H1672 0.961 . S
C1665 H1673 0.960 . S
C1666 C1664 1.381 . S
C1666 C1667 1.394 . S
C1666 H1674 0.930 . S
C1667 C1666 1.394 . S
C1667 C1668 1.383 . S
C1667 H1675 0.929 . S
C1668 C1667 1.383 . S
C1668 C1669 1.377 . S
C1669 H1653 0.930 . S
C1669 C1668 1.377 . S
C1669 C1670 1.379 . S
C1670 H1654 0.931 . S
C1670 C1664 1.383 . S
C1670 C1669 1.379 . S
H1671 C1665 0.959 . S
H1672 C1665 0.961 . S
H1673 C1665 0.960 . S
H1674 C1666 0.930 . S
H1675 C1667 0.929 . S
H1676 C1684 0.929 . S
H1677 C1686 0.930 . S
H1678 C1688 0.930 . S
H1679 C1691 0.929 . S
H1680 C1694 0.930 . S
H1681 C1696 0.960 . S
H1682 C1696 0.960 . S
H1683 C1696 0.960 . S
C1684 H1676 0.929 . S
C1684 C1685 1.377 . S
C1684 C1686 1.384 . S
C1685 C1684 1.377 . S
C1685 C1691 1.390 . S
C1686 H1677 0.930 . S
C1686 C1684 1.384 . S
C1686 C1687 1.372 . S
C1687 C1686 1.372 . S
C1687 C1688 1.400 . S
C1687 C1692 1.490 . S
C1688 H1678 0.930 . S
C1688 C1687 1.400 . S
C1688 C1691 1.386 . S
H1689 C1705 0.930 . S
H1690 C1706 0.931 . S
C1691 H1679 0.929 . S
C1691 C1685 1.390 . S
C1691 C1688 1.386 . S
C1692 C1687 1.490 . S
C1692 C1694 1.395 . S
C1692 C1695 1.403 . S
H1693 C1699 0.930 . S
C1694 H1680 0.930 . S
C1694 C1692 1.395 . S
C1694 C1697 1.403 . S
C1695 C1692 1.403 . S
C1695 C1696 1.524 . S
C1695 C1699 1.400 . S
C1696 H1681 0.960 . S
C1696 H1682 0.960 . S
C1696 H1683 0.960 . S
C1696 C1695 1.524 . S
C1697 C1694 1.403 . S
C1697 C1698 1.392 . S
C1697 C1701 1.495 . S
C1698 C1697 1.392 . S
C1698 C1699 1.385 . S
C1698 C1700 1.478 1_554 S
C1699 H1693 0.930 . S
C1699 C1695 1.400 . S
C1699 C1698 1.385 . S
C1700 C1698 1.478 1_556 S
C1700 C1702 1.381 . S
C1700 C1706 1.383 . S
C1701 C1697 1.495 . S
C1701 H1707 0.959 . S
C1701 H1708 0.961 . S
C1701 H1709 0.960 . S
C1702 C1700 1.381 . S
C1702 C1703 1.394 . S
C1702 H1710 0.930 . S
C1703 C1702 1.394 . S
C1703 C1704 1.383 . S
C1703 H1711 0.929 . S
C1704 C1703 1.383 . S
C1704 C1705 1.377 . S
C1705 H1689 0.930 . S
C1705 C1704 1.377 . S
C1705 C1706 1.379 . S
C1706 H1690 0.931 . S
C1706 C1700 1.383 . S
C1706 C1705 1.379 . S
H1707 C1701 0.959 . S
H1708 C1701 0.961 . S
H1709 C1701 0.960 . S
H1710 C1702 0.930 . S
H1711 C1703 0.929 . S
H1712 C1720 0.929 . S
H1713 C1722 0.930 . S
H1714 C1724 0.930 . S
H1715 C1727 0.929 . S
H1716 C1730 0.930 . S
H1717 C1732 0.960 . S
H1718 C1732 0.960 . S
H1719 C1732 0.960 . S
C1720 H1712 0.929 . S
C1720 C1721 1.377 . S
C1720 C1722 1.384 . S
C1721 C1720 1.377 . S
C1721 C1727 1.390 . S
C1722 H1713 0.930 . S
C1722 C1720 1.384 . S
C1722 C1723 1.372 . S
C1723 C1722 1.372 . S
C1723 C1724 1.400 . S
C1723 C1728 1.490 . S
C1724 H1714 0.930 . S
C1724 C1723 1.400 . S
C1724 C1727 1.386 . S
H1725 C1741 0.930 . S
H1726 C1742 0.931 . S
C1727 H1715 0.929 . S
C1727 C1721 1.390 . S
C1727 C1724 1.386 . S
C1728 C1723 1.490 . S
C1728 C1730 1.395 . S
C1728 C1731 1.403 . S
H1729 C1735 0.930 . S
C1730 H1716 0.930 . S
C1730 C1728 1.395 . S
C1730 C1733 1.403 . S
C1731 C1728 1.403 . S
C1731 C1732 1.524 . S
C1731 C1735 1.400 . S
C1732 H1717 0.960 . S
C1732 H1718 0.960 . S
C1732 H1719 0.960 . S
C1732 C1731 1.524 . S
C1733 C1730 1.403 . S
C1733 C1734 1.392 . S
C1733 C1737 1.495 . S
C1734 C1733 1.392 . S
C1734 C1735 1.385 . S
C1734 C1736 1.478 . S
C1735 H1729 0.930 . S
C1735 C1731 1.400 . S
C1735 C1734 1.385 . S
C1736 C1734 1.478 . S
C1736 C1738 1.381 . S
C1736 C1742 1.383 . S
C1737 C1733 1.495 . S
C1737 H1743 0.959 . S
C1737 H1744 0.961 . S
C1737 H1745 0.960 . S
C1738 C1736 1.381 . S
C1738 C1739 1.394 . S
C1738 H1746 0.930 . S
C1739 C1738 1.394 . S
C1739 C1740 1.383 . S
C1739 H1747 0.929 . S
C1740 C1739 1.383 . S
C1740 C1741 1.377 . S
C1741 H1725 0.930 . S
C1741 C1740 1.377 . S
C1741 C1742 1.379 . S
C1742 H1726 0.931 . S
C1742 C1736 1.383 . S
C1742 C1741 1.379 . S
H1743 C1737 0.959 . S
H1744 C1737 0.961 . S
H1745 C1737 0.960 . S
H1746 C1738 0.930 . S
H1747 C1739 0.929 . S
H1748 C1756 0.929 . S
H1749 C1758 0.930 . S
H1750 C1760 0.930 . S
H1751 C1763 0.929 . S
H1752 C1766 0.930 . S
H1753 C1768 0.960 . S
H1754 C1768 0.960 . S
H1755 C1768 0.960 . S
C1756 H1748 0.929 . S
C1756 C1757 1.377 . S
C1756 C1758 1.384 . S
C1757 C1756 1.377 . S
C1757 C1763 1.390 . S
C1758 H1749 0.930 . S
C1758 C1756 1.384 . S
C1758 C1759 1.372 . S
C1759 C1758 1.372 . S
C1759 C1760 1.400 . S
C1759 C1764 1.490 . S
C1760 H1750 0.930 . S
C1760 C1759 1.400 . S
C1760 C1763 1.386 . S
H1761 C1777 0.930 . S
H1762 C1778 0.931 . S
C1763 H1751 0.929 . S
C1763 C1757 1.390 . S
C1763 C1760 1.386 . S
C1764 C1759 1.490 . S
C1764 C1766 1.395 . S
C1764 C1767 1.403 . S
H1765 C1771 0.930 . S
C1766 H1752 0.930 . S
C1766 C1764 1.395 . S
C1766 C1769 1.403 . S
C1767 C1764 1.403 . S
C1767 C1768 1.524 . S
C1767 C1771 1.400 . S
C1768 H1753 0.960 . S
C1768 H1754 0.960 . S
C1768 H1755 0.960 . S
C1768 C1767 1.524 . S
C1769 C1766 1.403 . S
C1769 C1770 1.392 . S
C1769 C1773 1.495 . S
C1770 C1769 1.392 . S
C1770 C1771 1.385 . S
C1770 C1772 1.478 . S
C1771 H1765 0.930 . S
C1771 C1767 1.400 . S
C1771 C1770 1.385 . S
C1772 C1770 1.478 . S
C1772 C1774 1.381 . S
C1772 C1778 1.383 . S
C1773 C1769 1.495 . S
C1773 H1779 0.959 . S
C1773 H1780 0.961 . S
C1773 H1781 0.960 . S
C1774 C1772 1.381 . S
C1774 C1775 1.394 . S
C1774 H1782 0.930 . S
C1775 C1774 1.394 . S
C1775 C1776 1.383 . S
C1775 H1783 0.929 . S
C1776 C1775 1.383 . S
C1776 C1777 1.377 . S
C1777 H1761 0.930 . S
C1777 C1776 1.377 . S
C1777 C1778 1.379 . S
C1778 H1762 0.931 . S
C1778 C1772 1.383 . S
C1778 C1777 1.379 . S
H1779 C1773 0.959 . S
H1780 C1773 0.961 . S
H1781 C1773 0.960 . S
H1782 C1774 0.930 . S
H1783 C1775 0.929 . S
H1784 C1792 0.929 . S
H1785 C1794 0.930 . S
H1786 C1796 0.930 . S
H1787 C1799 0.929 . S
H1788 C1802 0.930 . S
H1789 C1804 0.960 . S
H1790 C1804 0.960 . S
H1791 C1804 0.960 . S
C1792 H1784 0.929 . S
C1792 C1793 1.377 . S
C1792 C1794 1.384 . S
C1793 C1792 1.377 . S
C1793 C1799 1.390 . S
C1794 H1785 0.930 . S
C1794 C1792 1.384 . S
C1794 C1795 1.372 . S
C1795 C1794 1.372 . S
C1795 C1796 1.400 . S
C1795 C1800 1.490 . S
C1796 H1786 0.930 . S
C1796 C1795 1.400 . S
C1796 C1799 1.386 . S
H1797 C1813 0.930 . S
H1798 C1814 0.931 . S
C1799 H1787 0.929 . S
C1799 C1793 1.390 . S
C1799 C1796 1.386 . S
C1800 C1795 1.490 . S
C1800 C1802 1.395 . S
C1800 C1803 1.403 . S
H1801 C1807 0.930 . S
C1802 H1788 0.930 . S
C1802 C1800 1.395 . S
C1802 C1805 1.403 . S
C1803 C1800 1.403 . S
C1803 C1804 1.524 . S
C1803 C1807 1.400 . S
C1804 H1789 0.960 . S
C1804 H1790 0.960 . S
C1804 H1791 0.960 . S
C1804 C1803 1.524 . S
C1805 C1802 1.403 . S
C1805 C1806 1.392 . S
C1805 C1809 1.495 . S
C1806 C1805 1.392 . S
C1806 C1807 1.385 . S
C1806 C1808 1.478 . S
C1807 H1801 0.930 . S
C1807 C1803 1.400 . S
C1807 C1806 1.385 . S
C1808 C1806 1.478 . S
C1808 C1810 1.381 . S
C1808 C1814 1.383 . S
C1809 C1805 1.495 . S
C1809 H1815 0.959 . S
C1809 H1816 0.961 . S
C1809 H1817 0.960 . S
C1810 C1808 1.381 . S
C1810 C1811 1.394 . S
C1810 H1818 0.930 . S
C1811 C1810 1.394 . S
C1811 C1812 1.383 . S
C1811 H1819 0.929 . S
C1812 C1811 1.383 . S
C1812 C1813 1.377 . S
C1813 H1797 0.930 . S
C1813 C1812 1.377 . S
C1813 C1814 1.379 . S
C1814 H1798 0.931 . S
C1814 C1808 1.383 . S
C1814 C1813 1.379 . S
H1815 C1809 0.959 . S
H1816 C1809 0.961 . S
H1817 C1809 0.960 . S
H1818 C1810 0.930 . S
H1819 C1811 0.929 . S
H1820 C1828 0.929 . S
H1821 C1830 0.930 . S
H1822 C1832 0.930 . S
H1823 C1835 0.929 . S
H1824 C1838 0.930 . S
H1825 C1840 0.960 . S
H1826 C1840 0.960 . S
H1827 C1840 0.960 . S
C1828 H1820 0.929 . S
C1828 C1829 1.377 . S
C1828 C1830 1.384 . S
C1829 C1828 1.377 . S
C1829 C1835 1.390 . S
C1830 H1821 0.930 . S
C1830 C1828 1.384 . S
C1830 C1831 1.372 . S
C1831 C1830 1.372 . S
C1831 C1832 1.400 . S
C1831 C1836 1.490 1_556 S
C1832 H1822 0.930 . S
C1832 C1831 1.400 . S
C1832 C1835 1.386 . S
H1833 C1849 0.930 . S
H1834 C1850 0.931 . S
C1835 H1823 0.929 . S
C1835 C1829 1.390 . S
C1835 C1832 1.386 . S
C1836 C1831 1.490 1_554 S
C1836 C1838 1.395 . S
C1836 C1839 1.403 . S
H1837 C1843 0.930 . S
C1838 H1824 0.930 . S
C1838 C1836 1.395 . S
C1838 C1841 1.403 . S
C1839 C1836 1.403 . S
C1839 C1840 1.524 . S
C1839 C1843 1.400 . S
C1840 H1825 0.960 . S
C1840 H1826 0.960 . S
C1840 H1827 0.960 . S
C1840 C1839 1.524 . S
C1841 C1838 1.403 . S
C1841 C1842 1.392 . S
C1841 C1845 1.495 . S
C1842 C1841 1.392 . S
C1842 C1843 1.385 . S
C1842 C1844 1.478 . S
C1843 H1837 0.930 . S
C1843 C1839 1.400 . S
C1843 C1842 1.385 . S
C1844 C1842 1.478 . S
C1844 C1846 1.381 . S
C1844 C1850 1.383 . S
C1845 C1841 1.495 . S
C1845 H1851 0.959 . S
C1845 H1852 0.961 . S
C1845 H1853 0.960 . S
C1846 C1844 1.381 . S
C1846 C1847 1.394 . S
C1846 H1854 0.930 . S
C1847 C1846 1.394 . S
C1847 C1848 1.383 . S
C1847 H1855 0.929 . S
C1848 C1847 1.383 . S
C1848 C1849 1.377 . S
C1849 H1833 0.930 . S
C1849 C1848 1.377 . S
C1849 C1850 1.379 . S
C1850 H1834 0.931 . S
C1850 C1844 1.383 . S
C1850 C1849 1.379 . S
H1851 C1845 0.959 . S
H1852 C1845 0.961 . S
H1853 C1845 0.960 . S
H1854 C1846 0.930 . S
H1855 C1847 0.929 . S
H1856 C1864 0.929 . S
H1857 C1866 0.930 . S
H1858 C1868 0.930 . S
H1859 C1871 0.929 . S
H1860 C1874 0.930 . S
H1861 C1876 0.960 . S
H1862 C1876 0.960 . S
H1863 C1876 0.960 . S
C1864 H1856 0.929 . S
C1864 C1865 1.377 1_545 S
C1864 C1866 1.384 . S
C1865 C1864 1.377 1_565 S
C1865 C1871 1.390 . S
C1866 H1857 0.930 . S
C1866 C1864 1.384 . S
C1866 C1867 1.357 1_545 S
C1867 C1866 1.357 1_565 S
C1867 C1868 1.416 . S
C1867 C1872 1.488 1_565 S
C1868 H1858 0.930 . S
C1868 C1867 1.416 . S
C1868 C1871 1.386 . S
H1869 C1885 0.930 . S
H1870 C1886 0.931 . S
C1871 H1859 0.929 . S
C1871 C1865 1.390 . S
C1871 C1868 1.386 . S
C1872 C1867 1.488 1_545 S
C1872 C1874 1.426 . S
C1872 C1875 1.376 1_545 S
H1873 C1879 0.930 . S
C1874 H1860 0.930 . S
C1874 C1872 1.426 . S
C1874 C1877 1.403 . S
C1875 C1872 1.376 1_565 S
C1875 C1876 1.524 . S
C1875 C1879 1.400 . S
C1876 H1861 0.960 . S
C1876 H1862 0.960 . S
C1876 H1863 0.960 . S
C1876 C1875 1.524 . S
C1877 C1874 1.403 . S
C1877 C1878 1.392 . S
C1877 C1881 1.495 . S
C1878 C1877 1.392 . S
C1878 C1879 1.385 1_545 S
C1878 C1880 1.478 . S
C1879 H1873 0.930 . S
C1879 C1875 1.400 . S
C1879 C1878 1.385 1_565 S
C1880 C1878 1.478 . S
C1880 C1882 1.381 . S
C1880 C1886 1.383 1_545 S
C1881 C1877 1.495 . S
C1881 H1887 0.959 . S
C1881 H1888 0.961 . S
C1881 H1889 0.960 . S
C1882 C1880 1.381 . S
C1882 C1883 1.394 . S
C1882 H1890 0.930 . S
C1883 C1882 1.394 . S
C1883 C1884 1.383 . S
C1883 H1891 0.929 . S
C1884 C1883 1.383 . S
C1884 C1885 1.377 1_545 S
C1885 H1869 0.930 . S
C1885 C1884 1.377 1_565 S
C1885 C1886 1.379 . S
C1886 H1870 0.931 . S
C1886 C1880 1.383 1_565 S
C1886 C1885 1.379 . S
H1887 C1881 0.959 . S
H1888 C1881 0.961 . S
H1889 C1881 0.960 . S
H1890 C1882 0.930 . S
H1891 C1883 0.929 . S
H1892 C1900 0.929 . S
H1893 C1902 0.930 . S
H1894 C1904 0.930 . S
H1895 C1907 0.929 . S
H1896 C1910 0.930 . S
H1897 C1912 0.960 . S
H1898 C1912 0.960 . S
H1899 C1912 0.960 . S
C1900 H1892 0.929 . S
C1900 C1901 1.377 . S
C1900 C1902 1.384 . S
C1901 C1900 1.377 . S
C1901 C1907 1.390 . S
C1902 H1893 0.930 . S
C1902 C1900 1.384 . S
C1902 C1903 1.372 . S
C1903 C1902 1.372 . S
C1903 C1904 1.400 . S
C1903 C1908 1.490 . S
C1904 H1894 0.930 . S
C1904 C1903 1.400 . S
C1904 C1907 1.386 . S
H1905 C1921 0.930 . S
H1906 C1922 0.931 . S
C1907 H1895 0.929 . S
C1907 C1901 1.390 . S
C1907 C1904 1.386 . S
C1908 C1903 1.490 . S
C1908 C1910 1.395 . S
C1908 C1911 1.403 . S
H1909 C1915 0.930 . S
C1910 H1896 0.930 . S
C1910 C1908 1.395 . S
C1910 C1913 1.403 . S
C1911 C1908 1.403 . S
C1911 C1912 1.524 . S
C1911 C1915 1.400 . S
C1912 H1897 0.960 . S
C1912 H1898 0.960 . S
C1912 H1899 0.960 . S
C1912 C1911 1.524 . S
C1913 C1910 1.403 . S
C1913 C1914 1.392 . S
C1913 C1917 1.495 . S
C1914 C1913 1.392 . S
C1914 C1915 1.385 . S
C1914 C1916 1.478 1_554 S
C1915 H1909 0.930 . S
C1915 C1911 1.400 . S
C1915 C1914 1.385 . S
C1916 C1914 1.478 1_556 S
C1916 C1918 1.381 . S
C1916 C1922 1.383 . S
C1917 C1913 1.495 . S
C1917 H1923 0.959 . S
C1917 H1924 0.961 . S
C1917 H1925 0.960 . S
C1918 C1916 1.381 . S
C1918 C1919 1.394 . S
C1918 H1926 0.930 . S
C1919 C1918 1.394 . S
C1919 C1920 1.383 . S
C1919 H1927 0.929 . S
C1920 C1919 1.383 . S
C1920 C1921 1.377 . S
C1921 H1905 0.930 . S
C1921 C1920 1.377 . S
C1921 C1922 1.379 . S
C1922 H1906 0.931 . S
C1922 C1916 1.383 . S
C1922 C1921 1.379 . S
H1923 C1917 0.959 . S
H1924 C1917 0.961 . S
H1925 C1917 0.960 . S
H1926 C1918 0.930 . S
H1927 C1919 0.929 . S
H1928 C1936 0.929 . S
H1929 C1938 0.930 . S
H1930 C1940 0.930 . S
H1931 C1943 0.929 . S
H1932 C1946 0.930 . S
H1933 C1948 0.960 . S
H1934 C1948 0.960 1_545 S
H1935 C1948 0.960 . S
C1936 H1928 0.929 . S
C1936 C1937 1.377 1_545 S
C1936 C1938 1.384 . S
C1937 C1936 1.377 1_565 S
C1937 C1943 1.390 . S
C1938 H1929 0.930 . S
C1938 C1936 1.384 . S
C1938 C1939 1.363 1_545 S
C1939 C1938 1.363 1_565 S
C1939 C1940 1.410 . S
C1939 C1944 1.489 1_565 S
C1940 H1930 0.930 . S
C1940 C1939 1.410 . S
C1940 C1943 1.386 . S
H1941 C1957 0.930 . S
H1942 C1958 0.931 . S
C1943 H1931 0.929 . S
C1943 C1937 1.390 . S
C1943 C1940 1.386 . S
C1944 C1939 1.489 1_545 S
C1944 C1946 1.399 . S
C1944 C1947 1.400 1_545 S
H1945 C1951 0.942 . S
C1946 H1932 0.930 . S
C1946 C1944 1.399 . S
C1946 C1949 1.403 . S
C1947 C1944 1.400 1_565 S
C1947 C1948 1.524 . S
C1947 C1951 1.404 . S
C1948 H1933 0.960 . S
C1948 H1934 0.960 1_565 S
C1948 H1935 0.960 . S
C1948 C1947 1.524 . S
C1949 C1946 1.403 . S
C1949 C1950 1.392 . S
C1949 C1953 1.495 . S
C1950 C1949 1.392 . S
C1950 C1951 1.376 1_545 S
C1950 C1952 1.478 . S
C1951 H1945 0.942 . S
C1951 C1947 1.404 . S
C1951 C1950 1.376 1_565 S
C1952 C1950 1.478 . S
C1952 C1954 1.381 . S
C1952 C1958 1.383 1_545 S
C1953 C1949 1.495 . S
C1953 H1959 0.959 . S
C1953 H1960 0.961 1_545 S
C1953 H1961 0.960 . S
C1954 C1952 1.381 . S
C1954 C1955 1.394 . S
C1954 H1962 0.930 . S
C1955 C1954 1.394 . S
C1955 C1956 1.383 . S
C1955 H1963 0.929 . S
C1956 C1955 1.383 . S
C1956 C1957 1.377 1_545 S
C1957 H1941 0.930 . S
C1957 C1956 1.377 1_565 S
C1957 C1958 1.379 . S
C1958 H1942 0.931 . S
C1958 C1952 1.383 1_565 S
C1958 C1957 1.379 . S
H1959 C1953 0.959 . S
H1960 C1953 0.961 1_565 S
H1961 C1953 0.960 . S
H1962 C1954 0.930 . S
H1963 C1955 0.929 . S
H1964 C1972 0.929 . S
H1965 C1974 0.930 . S
H1966 C1976 0.930 . S
H1967 C1979 0.929 . S
H1968 C1982 0.930 . S
H1969 C1984 0.960 . S
H1970 C1984 0.960 . S
H1971 C1984 0.960 . S
C1972 H1964 0.929 . S
C1972 C1973 1.377 . S
C1972 C1974 1.384 . S
C1973 C1972 1.377 . S
C1973 C1979 1.390 . S
C1974 H1965 0.930 . S
C1974 C1972 1.384 . S
C1974 C1975 1.372 . S
C1975 C1974 1.372 . S
C1975 C1976 1.400 . S
C1975 C1980 1.490 . S
C1976 H1966 0.930 . S
C1976 C1975 1.400 . S
C1976 C1979 1.386 . S
H1977 C1993 0.930 . S
H1978 C1994 0.931 . S
C1979 H1967 0.929 . S
C1979 C1973 1.390 . S
C1979 C1976 1.386 . S
C1980 C1975 1.490 . S
C1980 C1982 1.395 . S
C1980 C1983 1.403 . S
H1981 C1987 0.930 . S
C1982 H1968 0.930 . S
C1982 C1980 1.395 . S
C1982 C1985 1.403 . S
C1983 C1980 1.403 . S
C1983 C1984 1.524 . S
C1983 C1987 1.400 . S
C1984 H1969 0.960 . S
C1984 H1970 0.960 . S
C1984 H1971 0.960 . S
C1984 C1983 1.524 . S
C1985 C1982 1.403 . S
C1985 C1986 1.392 . S
C1985 C1989 1.495 . S
C1986 C1985 1.392 . S
C1986 C1987 1.385 . S
C1986 C1988 1.478 . S
C1987 H1981 0.930 . S
C1987 C1983 1.400 . S
C1987 C1986 1.385 . S
C1988 C1986 1.478 . S
C1988 C1990 1.381 . S
C1988 C1994 1.383 . S
C1989 C1985 1.495 . S
C1989 H1995 0.959 . S
C1989 H1996 0.961 . S
C1989 H1997 0.960 . S
C1990 C1988 1.381 . S
C1990 C1991 1.394 . S
C1990 H1998 0.930 . S
C1991 C1990 1.394 . S
C1991 C1992 1.383 . S
C1991 H1999 0.929 . S
C1992 C1991 1.383 . S
C1992 C1993 1.377 . S
C1993 H1977 0.930 . S
C1993 C1992 1.377 . S
C1993 C1994 1.379 . S
C1994 H1978 0.931 . S
C1994 C1988 1.383 . S
C1994 C1993 1.379 . S
H1995 C1989 0.959 . S
H1996 C1989 0.961 . S
H1997 C1989 0.960 . S
H1998 C1990 0.930 . S
H1999 C1991 0.929 . S
H2000 C2008 0.929 . S
H2001 C2010 0.930 . S
H2002 C2012 0.930 . S
H2003 C2015 0.929 . S
H2004 C2018 0.930 . S
H2005 C2020 0.960 . S
H2006 C2020 0.960 . S
H2007 C2020 0.960 1_545 S
C2008 H2000 0.929 . S
C2008 C2009 1.377 . S
C2008 C2010 1.384 . S
C2009 C2008 1.377 . S
C2009 C2015 1.390 1_565 S
C2010 H2001 0.930 . S
C2010 C2008 1.384 . S
C2010 C2011 1.372 . S
C2011 C2010 1.372 . S
C2011 C2012 1.400 1_565 S
C2011 C2016 1.490 . S
C2012 H2002 0.930 . S
C2012 C2011 1.400 1_545 S
C2012 C2015 1.386 . S
H2013 C2029 0.930 . S
H2014 C2030 0.931 . S
C2015 H2003 0.929 . S
C2015 C2009 1.390 1_545 S
C2015 C2012 1.386 . S
C2016 C2011 1.490 . S
C2016 C2018 1.397 . S
C2016 C2019 1.403 . S
H2017 C2023 0.930 . S
C2018 H2004 0.930 . S
C2018 C2016 1.397 . S
C2018 C2021 1.402 1_565 S
C2019 C2016 1.403 . S
C2019 C2020 1.524 . S
C2019 C2023 1.403 . S
C2020 H2005 0.960 . S
C2020 H2006 0.960 . S
C2020 H2007 0.960 1_565 S
C2020 C2019 1.524 . S
C2021 C2018 1.402 1_545 S
C2021 C2022 1.392 . S
C2021 C2025 1.496 . S
C2022 C2021 1.392 . S
C2022 C2023 1.383 1_545 S
C2022 C2024 1.478 . S
C2023 H2017 0.930 . S
C2023 C2019 1.403 . S
C2023 C2022 1.383 1_565 S
C2024 C2022 1.478 . S
C2024 C2026 1.381 1_545 S
C2024 C2030 1.383 . S
C2025 C2021 1.496 . S
C2025 H2031 0.964 . S
C2025 H2032 0.961 . S
C2025 H2033 0.960 1_545 S
C2026 C2024 1.381 1_565 S
C2026 C2027 1.394 . S
C2026 H2034 0.930 . S
C2027 C2026 1.394 . S
C2027 C2028 1.383 1_565 S
C2027 H2035 0.929 . S
C2028 C2027 1.383 1_545 S
C2028 C2029 1.377 . S
C2029 H2013 0.930 . S
C2029 C2028 1.377 . S
C2029 C2030 1.379 . S
C2030 H2014 0.931 . S
C2030 C2024 1.383 . S
C2030 C2029 1.379 . S
H2031 C2025 0.964 . S
H2032 C2025 0.961 . S
H2033 C2025 0.960 1_565 S
H2034 C2026 0.930 . S
H2035 C2027 0.929 . S
H2036 C2044 0.929 . S
H2037 C2046 0.930 . S
H2038 C2048 0.930 . S
H2039 C2051 0.929 . S
H2040 C2054 0.930 . S
H2041 C2056 0.960 . S
H2042 C2056 0.960 . S
H2043 C2056 0.960 . S
C2044 H2036 0.929 . S
C2044 C2045 1.377 . S
C2044 C2046 1.384 . S
C2045 C2044 1.377 . S
C2045 C2051 1.390 . S
C2046 H2037 0.930 . S
C2046 C2044 1.384 . S
C2046 C2047 1.372 . S
C2047 C2046 1.372 . S
C2047 C2048 1.400 . S
C2047 C2052 1.490 . S
C2048 H2038 0.930 . S
C2048 C2047 1.400 . S
C2048 C2051 1.386 . S
H2049 C2065 0.930 . S
H2050 C2066 0.931 . S
C2051 H2039 0.929 . S
C2051 C2045 1.390 . S
C2051 C2048 1.386 . S
C2052 C2047 1.490 . S
C2052 C2054 1.395 . S
C2052 C2055 1.403 . S
H2053 C2059 0.930 . S
C2054 H2040 0.930 . S
C2054 C2052 1.395 . S
C2054 C2057 1.403 . S
C2055 C2052 1.403 . S
C2055 C2056 1.524 . S
C2055 C2059 1.400 . S
C2056 H2041 0.960 . S
C2056 H2042 0.960 . S
C2056 H2043 0.960 . S
C2056 C2055 1.524 . S
C2057 C2054 1.403 . S
C2057 C2058 1.392 . S
C2057 C2061 1.495 . S
C2058 C2057 1.392 . S
C2058 C2059 1.385 . S
C2058 C2060 1.478 1_554 S
C2059 H2053 0.930 . S
C2059 C2055 1.400 . S
C2059 C2058 1.385 . S
C2060 C2058 1.478 1_556 S
C2060 C2062 1.381 . S
C2060 C2066 1.383 . S
C2061 C2057 1.495 . S
C2061 H2067 0.959 . S
C2061 H2068 0.961 . S
C2061 H2069 0.960 . S
C2062 C2060 1.381 . S
C2062 C2063 1.394 . S
C2062 H2070 0.930 . S
C2063 C2062 1.394 . S
C2063 C2064 1.383 . S
C2063 H2071 0.929 . S
C2064 C2063 1.383 . S
C2064 C2065 1.377 . S
C2065 H2049 0.930 . S
C2065 C2064 1.377 . S
C2065 C2066 1.379 . S
C2066 H2050 0.931 . S
C2066 C2060 1.383 . S
C2066 C2065 1.379 . S
H2067 C2061 0.959 . S
H2068 C2061 0.961 . S
H2069 C2061 0.960 . S
H2070 C2062 0.930 . S
H2071 C2063 0.929 . S
H2072 C2080 0.929 . S
H2073 C2082 0.930 . S
H2074 C2084 0.930 . S
H2075 C2087 0.929 . S
H2076 C2090 0.930 . S
H2077 C2092 0.960 . S
H2078 C2092 0.960 . S
H2079 C2092 0.960 . S
C2080 H2072 0.929 . S
C2080 C2081 1.377 1_545 S
C2080 C2082 1.384 . S
C2081 C2080 1.377 1_565 S
C2081 C2087 1.390 . S
C2082 H2073 0.930 . S
C2082 C2080 1.384 . S
C2082 C2083 1.358 1_545 S
C2083 C2082 1.358 1_565 S
C2083 C2084 1.416 . S
C2083 C2088 1.490 . S
C2084 H2074 0.930 . S
C2084 C2083 1.416 . S
C2084 C2087 1.386 . S
H2085 C2101 0.930 . S
H2086 C2102 0.931 . S
C2087 H2075 0.929 . S
C2087 C2081 1.390 . S
C2087 C2084 1.386 . S
C2088 C2083 1.490 . S
C2088 C2090 1.397 . S
C2088 C2091 1.400 1_565 S
H2089 C2095 0.930 . S
C2090 H2076 0.930 . S
C2090 C2088 1.397 . S
C2090 C2093 1.403 . S
C2091 C2088 1.400 1_545 S
C2091 C2092 1.524 . S
C2091 C2095 1.400 . S
C2092 H2077 0.960 . S
C2092 H2078 0.960 . S
C2092 H2079 0.960 . S
C2092 C2091 1.524 . S
C2093 C2090 1.403 . S
C2093 C2094 1.404 . S
C2093 C2097 1.495 . S
C2094 C2093 1.404 . S
C2094 C2095 1.374 1_565 S
C2094 C2096 1.477 . S
C2095 H2089 0.930 . S
C2095 C2091 1.400 . S
C2095 C2094 1.374 1_545 S
C2096 C2094 1.477 . S
C2096 C2098 1.372 1_565 S
C2096 C2102 1.391 . S
C2097 C2093 1.495 . S
C2097 H2103 0.959 . S
C2097 H2104 0.961 . S
C2097 H2105 0.960 . S
C2098 C2096 1.372 1_545 S
C2098 C2099 1.394 . S
C2098 H2106 0.930 . S
C2099 C2098 1.394 . S
C2099 C2100 1.383 . S
C2099 H2107 0.929 . S
C2100 C2099 1.383 . S
C2100 C2101 1.377 1_545 S
C2101 H2085 0.930 . S
C2101 C2100 1.377 1_565 S
C2101 C2102 1.379 . S
C2102 H2086 0.931 . S
C2102 C2096 1.391 . S
C2102 C2101 1.379 . S
H2103 C2097 0.959 . S
H2104 C2097 0.961 . S
H2105 C2097 0.960 . S
H2106 C2098 0.930 . S
H2107 C2099 0.929 . S
H2108 C2116 0.929 . S
H2109 C2118 0.930 . S
H2110 C2120 0.930 . S
H2111 C2123 0.929 . S
H2112 C2126 0.930 . S
H2113 C2128 0.960 . S
H2114 C2128 0.960 . S
H2115 C2128 0.960 . S
C2116 H2108 0.929 . S
C2116 C2117 1.377 . S
C2116 C2118 1.384 . S
C2117 C2116 1.377 . S
C2117 C2123 1.390 . S
C2118 H2109 0.930 . S
C2118 C2116 1.384 . S
C2118 C2119 1.372 . S
C2119 C2118 1.372 . S
C2119 C2120 1.400 . S
C2119 C2124 1.490 . S
C2120 H2110 0.930 . S
C2120 C2119 1.400 . S
C2120 C2123 1.386 . S
H2121 C2137 0.930 . S
H2122 C2138 0.931 . S
C2123 H2111 0.929 . S
C2123 C2117 1.390 . S
C2123 C2120 1.386 . S
C2124 C2119 1.490 . S
C2124 C2126 1.395 . S
C2124 C2127 1.403 . S
H2125 C2131 0.930 . S
C2126 H2112 0.930 . S
C2126 C2124 1.395 . S
C2126 C2129 1.403 . S
C2127 C2124 1.403 . S
C2127 C2128 1.524 . S
C2127 C2131 1.400 . S
C2128 H2113 0.960 . S
C2128 H2114 0.960 . S
C2128 H2115 0.960 . S
C2128 C2127 1.524 . S
C2129 C2126 1.403 . S
C2129 C2130 1.392 . S
C2129 C2133 1.495 . S
C2130 C2129 1.392 . S
C2130 C2131 1.385 . S
C2130 C2132 1.478 . S
C2131 H2125 0.930 . S
C2131 C2127 1.400 . S
C2131 C2130 1.385 . S
C2132 C2130 1.478 . S
C2132 C2134 1.381 . S
C2132 C2138 1.383 . S
C2133 C2129 1.495 . S
C2133 H2139 0.959 . S
C2133 H2140 0.961 . S
C2133 H2141 0.960 . S
C2134 C2132 1.381 . S
C2134 C2135 1.394 . S
C2134 H2142 0.930 . S
C2135 C2134 1.394 . S
C2135 C2136 1.383 . S
C2135 H2143 0.929 . S
C2136 C2135 1.383 . S
C2136 C2137 1.377 . S
C2137 H2121 0.930 . S
C2137 C2136 1.377 . S
C2137 C2138 1.379 . S
C2138 H2122 0.931 . S
C2138 C2132 1.383 . S
C2138 C2137 1.379 . S
H2139 C2133 0.959 . S
H2140 C2133 0.961 . S
H2141 C2133 0.960 . S
H2142 C2134 0.930 . S
H2143 C2135 0.929 . S
H2144 C2152 0.929 . S
H2145 C2154 0.930 . S
H2146 C2156 0.930 . S
H2147 C2159 0.929 . S
H2148 C2162 0.930 . S
H2149 C2164 0.960 . S
H2150 C2164 0.960 . S
H2151 C2164 0.960 . S
C2152 H2144 0.929 . S
C2152 C2153 1.377 . S
C2152 C2154 1.384 . S
C2153 C2152 1.377 . S
C2153 C2159 1.390 . S
C2154 H2145 0.930 . S
C2154 C2152 1.384 . S
C2154 C2155 1.372 . S
C2155 C2154 1.372 . S
C2155 C2156 1.400 . S
C2155 C2160 1.490 . S
C2156 H2146 0.930 . S
C2156 C2155 1.400 . S
C2156 C2159 1.386 . S
H2157 C2173 0.930 . S
H2158 C2174 0.931 . S
C2159 H2147 0.929 . S
C2159 C2153 1.390 . S
C2159 C2156 1.386 . S
C2160 C2155 1.490 . S
C2160 C2162 1.395 . S
C2160 C2163 1.403 . S
H2161 C2167 0.930 . S
C2162 H2148 0.930 . S
C2162 C2160 1.395 . S
C2162 C2165 1.403 . S
C2163 C2160 1.403 . S
C2163 C2164 1.524 . S
C2163 C2167 1.400 . S
C2164 H2149 0.960 . S
C2164 H2150 0.960 . S
C2164 H2151 0.960 . S
C2164 C2163 1.524 . S
C2165 C2162 1.403 . S
C2165 C2166 1.392 . S
C2165 C2169 1.495 . S
C2166 C2165 1.392 . S
C2166 C2167 1.385 . S
C2166 C2168 1.478 . S
C2167 H2161 0.930 . S
C2167 C2163 1.400 . S
C2167 C2166 1.385 . S
C2168 C2166 1.478 . S
C2168 C2170 1.381 . S
C2168 C2174 1.383 . S
C2169 C2165 1.495 . S
C2169 H2175 0.959 . S
C2169 H2176 0.961 . S
C2169 H2177 0.960 . S
C2170 C2168 1.381 . S
C2170 C2171 1.394 . S
C2170 H2178 0.930 . S
C2171 C2170 1.394 . S
C2171 C2172 1.383 . S
C2171 H2179 0.929 . S
C2172 C2171 1.383 . S
C2172 C2173 1.377 . S
C2173 H2157 0.930 . S
C2173 C2172 1.377 . S
C2173 C2174 1.379 . S
C2174 H2158 0.931 . S
C2174 C2168 1.383 . S
C2174 C2173 1.379 . S
H2175 C2169 0.959 . S
H2176 C2169 0.961 . S
H2177 C2169 0.960 . S
H2178 C2170 0.930 . S
H2179 C2171 0.929 . S
H2180 C2188 0.929 . S
H2181 C2190 0.930 . S
H2182 C2192 0.930 . S
H2183 C2195 0.929 . S
H2184 C2198 0.930 . S
H2185 C2200 0.960 . S
H2186 C2200 0.960 . S
H2187 C2200 0.960 . S
C2188 H2180 0.929 . S
C2188 C2189 1.377 . S
C2188 C2190 1.384 . S
C2189 C2188 1.377 . S
C2189 C2195 1.390 . S
C2190 H2181 0.930 . S
C2190 C2188 1.384 . S
C2190 C2191 1.372 . S
C2191 C2190 1.372 . S
C2191 C2192 1.400 . S
C2191 C2196 1.490 . S
C2192 H2182 0.930 . S
C2192 C2191 1.400 . S
C2192 C2195 1.386 . S
H2193 C2209 0.930 . S
H2194 C2210 0.931 . S
C2195 H2183 0.929 . S
C2195 C2189 1.390 . S
C2195 C2192 1.386 . S
C2196 C2191 1.490 . S
C2196 C2198 1.395 . S
C2196 C2199 1.403 . S
H2197 C2203 0.930 . S
C2198 H2184 0.930 . S
C2198 C2196 1.395 . S
C2198 C2201 1.403 . S
C2199 C2196 1.403 . S
C2199 C2200 1.524 . S
C2199 C2203 1.400 . S
C2200 H2185 0.960 . S
C2200 H2186 0.960 . S
C2200 H2187 0.960 . S
C2200 C2199 1.524 . S
C2201 C2198 1.403 . S
C2201 C2202 1.392 . S
C2201 C2205 1.495 . S
C2202 C2201 1.392 . S
C2202 C2203 1.385 . S
C2202 C2204 1.478 . S
C2203 H2197 0.930 . S
C2203 C2199 1.400 . S
C2203 C2202 1.385 . S
C2204 C2202 1.478 . S
C2204 C2206 1.381 . S
C2204 C2210 1.383 . S
C2205 C2201 1.495 . S
C2205 H2211 0.959 . S
C2205 H2212 0.961 . S
C2205 H2213 0.960 . S
C2206 C2204 1.381 . S
C2206 C2207 1.394 . S
C2206 H2214 0.930 . S
C2207 C2206 1.394 . S
C2207 C2208 1.383 . S
C2207 H2215 0.929 . S
C2208 C2207 1.383 . S
C2208 C2209 1.377 . S
C2209 H2193 0.930 . S
C2209 C2208 1.377 . S
C2209 C2210 1.379 . S
C2210 H2194 0.931 . S
C2210 C2204 1.383 . S
C2210 C2209 1.379 . S
H2211 C2205 0.959 . S
H2212 C2205 0.961 . S
H2213 C2205 0.960 . S
H2214 C2206 0.930 . S
H2215 C2207 0.929 . S
H2216 C2224 0.929 . S
H2217 C2226 0.930 . S
H2218 C2228 0.930 . S
H2219 C2231 0.929 . S
H2220 C2234 0.930 . S
H2221 C2236 0.960 . S
H2222 C2236 0.960 . S
H2223 C2236 0.960 . S
C2224 H2216 0.929 . S
C2224 C2225 1.377 . S
C2224 C2226 1.384 . S
C2225 C2224 1.377 . S
C2225 C2231 1.390 . S
C2226 H2217 0.930 . S
C2226 C2224 1.384 . S
C2226 C2227 1.372 . S
C2227 C2226 1.372 . S
C2227 C2228 1.400 . S
C2227 C2232 1.490 . S
C2228 H2218 0.930 . S
C2228 C2227 1.400 . S
C2228 C2231 1.386 . S
H2229 C2245 0.930 . S
H2230 C2246 0.931 . S
C2231 H2219 0.929 . S
C2231 C2225 1.390 . S
C2231 C2228 1.386 . S
C2232 C2227 1.490 . S
C2232 C2234 1.395 . S
C2232 C2235 1.403 . S
H2233 C2239 0.930 . S
C2234 H2220 0.930 . S
C2234 C2232 1.395 . S
C2234 C2237 1.403 . S
C2235 C2232 1.403 . S
C2235 C2236 1.524 . S
C2235 C2239 1.400 . S
C2236 H2221 0.960 . S
C2236 H2222 0.960 . S
C2236 H2223 0.960 . S
C2236 C2235 1.524 . S
C2237 C2234 1.403 . S
C2237 C2238 1.392 . S
C2237 C2241 1.495 . S
C2238 C2237 1.392 . S
C2238 C2239 1.385 . S
C2238 C2240 1.478 . S
C2239 H2233 0.930 . S
C2239 C2235 1.400 . S
C2239 C2238 1.385 . S
C2240 C2238 1.478 . S
C2240 C2242 1.381 . S
C2240 C2246 1.383 . S
C2241 C2237 1.495 . S
C2241 H2247 0.959 . S
C2241 H2248 0.961 . S
C2241 H2249 0.960 . S
C2242 C2240 1.381 . S
C2242 C2243 1.394 . S
C2242 H2250 0.930 . S
C2243 C2242 1.394 . S
C2243 C2244 1.383 . S
C2243 H2251 0.929 . S
C2244 C2243 1.383 . S
C2244 C2245 1.377 . S
C2245 H2229 0.930 . S
C2245 C2244 1.377 . S
C2245 C2246 1.379 . S
C2246 H2230 0.931 . S
C2246 C2240 1.383 . S
C2246 C2245 1.379 . S
H2247 C2241 0.959 . S
H2248 C2241 0.961 . S
H2249 C2241 0.960 . S
H2250 C2242 0.930 . S
H2251 C2243 0.929 . S
H2252 C2260 0.929 . S
H2253 C2262 0.930 . S
H2254 C2264 0.930 . S
H2255 C2267 0.929 . S
H2256 C2270 0.930 . S
H2257 C2272 0.960 . S
H2258 C2272 0.960 . S
H2259 C2272 0.960 . S
C2260 H2252 0.929 . S
C2260 C2261 1.377 . S
C2260 C2262 1.384 . S
C2261 C2260 1.377 . S
C2261 C2267 1.390 . S
C2262 H2253 0.930 . S
C2262 C2260 1.384 . S
C2262 C2263 1.372 . S
C2263 C2262 1.372 . S
C2263 C2264 1.400 . S
C2263 C2268 1.490 . S
C2264 H2254 0.930 . S
C2264 C2263 1.400 . S
C2264 C2267 1.386 . S
H2265 C2281 0.930 . S
H2266 C2282 0.931 . S
C2267 H2255 0.929 . S
C2267 C2261 1.390 . S
C2267 C2264 1.386 . S
C2268 C2263 1.490 . S
C2268 C2270 1.395 . S
C2268 C2271 1.403 . S
H2269 C2275 0.930 . S
C2270 H2256 0.930 . S
C2270 C2268 1.395 . S
C2270 C2273 1.403 . S
C2271 C2268 1.403 . S
C2271 C2272 1.524 . S
C2271 C2275 1.400 . S
C2272 H2257 0.960 . S
C2272 H2258 0.960 . S
C2272 H2259 0.960 . S
C2272 C2271 1.524 . S
C2273 C2270 1.403 . S
C2273 C2274 1.392 . S
C2273 C2277 1.495 1_556 S
C2274 C2273 1.392 . S
C2274 C2275 1.385 . S
C2274 C2276 1.478 . S
C2275 H2269 0.930 . S
C2275 C2271 1.400 . S
C2275 C2274 1.385 . S
C2276 C2274 1.478 . S
C2276 C2278 1.381 . S
C2276 C2282 1.383 . S
C2277 C2273 1.495 1_554 S
C2277 H2283 0.959 . S
C2277 H2284 0.961 . S
C2277 H2285 0.960 . S
C2278 C2276 1.381 . S
C2278 C2279 1.394 1_556 S
C2278 H2286 0.930 . S
C2279 C2278 1.394 1_554 S
C2279 C2280 1.383 . S
C2279 H2287 0.929 . S
C2280 C2279 1.383 . S
C2280 C2281 1.377 1_554 S
C2281 H2265 0.930 . S
C2281 C2280 1.377 1_556 S
C2281 C2282 1.379 . S
C2282 H2266 0.931 . S
C2282 C2276 1.383 . S
C2282 C2281 1.379 . S
H2283 C2277 0.959 . S
H2284 C2277 0.961 . S
H2285 C2277 0.960 . S
H2286 C2278 0.930 . S
H2287 C2279 0.929 . S
H2288 C2296 0.929 . S
H2289 C2298 0.930 . S
H2290 C2300 0.930 . S
H2291 C2303 0.929 . S
H2292 C2306 0.930 . S
H2293 C2308 0.960 . S
H2294 C2308 0.960 . S
H2295 C2308 0.960 . S
C2296 H2288 0.929 . S
C2296 C2297 1.377 . S
C2296 C2298 1.384 . S
C2297 C2296 1.377 . S
C2297 C2303 1.390 . S
C2298 H2289 0.930 . S
C2298 C2296 1.384 . S
C2298 C2299 1.372 . S
C2299 C2298 1.372 . S
C2299 C2300 1.400 . S
C2299 C2304 1.490 . S
C2300 H2290 0.930 . S
C2300 C2299 1.400 . S
C2300 C2303 1.386 . S
H2301 C2317 0.930 . S
H2302 C2318 0.931 . S
C2303 H2291 0.929 . S
C2303 C2297 1.390 . S
C2303 C2300 1.386 . S
C2304 C2299 1.490 . S
C2304 C2306 1.395 . S
C2304 C2307 1.403 . S
H2305 C2311 0.930 . S
C2306 H2292 0.930 . S
C2306 C2304 1.395 . S
C2306 C2309 1.403 . S
C2307 C2304 1.403 . S
C2307 C2308 1.524 . S
C2307 C2311 1.400 . S
C2308 H2293 0.960 . S
C2308 H2294 0.960 . S
C2308 H2295 0.960 . S
C2308 C2307 1.524 . S
C2309 C2306 1.403 . S
C2309 C2310 1.392 . S
C2309 C2313 1.495 . S
C2310 C2309 1.392 . S
C2310 C2311 1.385 . S
C2310 C2312 1.478 . S
C2311 H2305 0.930 . S
C2311 C2307 1.400 . S
C2311 C2310 1.385 . S
C2312 C2310 1.478 . S
C2312 C2314 1.381 . S
C2312 C2318 1.383 . S
C2313 C2309 1.495 . S
C2313 H2319 0.959 . S
C2313 H2320 0.961 . S
C2313 H2321 0.960 . S
C2314 C2312 1.381 . S
C2314 C2315 1.394 . S
C2314 H2322 0.930 . S
C2315 C2314 1.394 . S
C2315 C2316 1.383 . S
C2315 H2323 0.929 . S
C2316 C2315 1.383 . S
C2316 C2317 1.377 . S
C2317 H2301 0.930 . S
C2317 C2316 1.377 . S
C2317 C2318 1.379 . S
C2318 H2302 0.931 . S
C2318 C2312 1.383 . S
C2318 C2317 1.379 . S
H2319 C2313 0.959 . S
H2320 C2313 0.961 . S
H2321 C2313 0.960 . S
H2322 C2314 0.930 . S
H2323 C2315 0.929 . S
H2324 C2332 0.929 . S
H2325 C2334 0.930 . S
H2326 C2336 0.930 . S
H2327 C2339 0.929 . S
H2328 C2342 0.930 . S
H2329 C2344 0.960 . S
H2330 C2344 0.960 . S
H2331 C2344 0.960 . S
C2332 H2324 0.929 . S
C2332 C2333 1.377 . S
C2332 C2334 1.384 . S
C2333 C2332 1.377 . S
C2333 C2339 1.390 . S
C2334 H2325 0.930 . S
C2334 C2332 1.384 . S
C2334 C2335 1.372 . S
C2335 C2334 1.372 . S
C2335 C2336 1.400 . S
C2335 C2340 1.490 . S
C2336 H2326 0.930 . S
C2336 C2335 1.400 . S
C2336 C2339 1.386 . S
H2337 C2353 0.930 . S
H2338 C2354 0.931 . S
C2339 H2327 0.929 . S
C2339 C2333 1.390 . S
C2339 C2336 1.386 . S
C2340 C2335 1.490 . S
C2340 C2342 1.395 . S
C2340 C2343 1.403 . S
H2341 C2347 0.930 . S
C2342 H2328 0.930 . S
C2342 C2340 1.395 . S
C2342 C2345 1.403 . S
C2343 C2340 1.403 . S
C2343 C2344 1.524 . S
C2343 C2347 1.400 . S
C2344 H2329 0.960 . S
C2344 H2330 0.960 . S
C2344 H2331 0.960 . S
C2344 C2343 1.524 . S
C2345 C2342 1.403 . S
C2345 C2346 1.392 . S
C2345 C2349 1.495 . S
C2346 C2345 1.392 . S
C2346 C2347 1.385 . S
C2346 C2348 1.478 . S
C2347 H2341 0.930 . S
C2347 C2343 1.400 . S
C2347 C2346 1.385 . S
C2348 C2346 1.478 . S
C2348 C2350 1.381 . S
C2348 C2354 1.383 . S
C2349 C2345 1.495 . S
C2349 H2355 0.959 . S
C2349 H2356 0.961 . S
C2349 H2357 0.960 . S
C2350 C2348 1.381 . S
C2350 C2351 1.394 . S
C2350 H2358 0.930 . S
C2351 C2350 1.394 . S
C2351 C2352 1.383 . S
C2351 H2359 0.929 . S
C2352 C2351 1.383 . S
C2352 C2353 1.377 . S
C2353 H2337 0.930 . S
C2353 C2352 1.377 . S
C2353 C2354 1.379 . S
C2354 H2338 0.931 . S
C2354 C2348 1.383 . S
C2354 C2353 1.379 . S
H2355 C2349 0.959 . S
H2356 C2349 0.961 . S
H2357 C2349 0.960 . S
H2358 C2350 0.930 . S
H2359 C2351 0.929 . S
H2360 C2368 0.929 . S
H2361 C2370 0.930 . S
H2362 C2372 0.930 . S
H2363 C2375 0.929 . S
H2364 C2378 0.930 . S
H2365 C2380 0.960 . S
H2366 C2380 0.960 . S
H2367 C2380 0.960 . S
C2368 H2360 0.929 . S
C2368 C2369 1.377 . S
C2368 C2370 1.384 . S
C2369 C2368 1.377 . S
C2369 C2375 1.390 . S
C2370 H2361 0.930 . S
C2370 C2368 1.384 . S
C2370 C2371 1.372 . S
C2371 C2370 1.372 . S
C2371 C2372 1.400 . S
C2371 C2376 1.490 . S
C2372 H2362 0.930 . S
C2372 C2371 1.400 . S
C2372 C2375 1.386 . S
H2373 C2389 0.930 . S
H2374 C2390 0.931 . S
C2375 H2363 0.929 . S
C2375 C2369 1.390 . S
C2375 C2372 1.386 . S
C2376 C2371 1.490 . S
C2376 C2378 1.395 . S
C2376 C2379 1.403 . S
H2377 C2383 0.930 . S
C2378 H2364 0.930 . S
C2378 C2376 1.395 . S
C2378 C2381 1.403 . S
C2379 C2376 1.403 . S
C2379 C2380 1.524 . S
C2379 C2383 1.400 . S
C2380 H2365 0.960 . S
C2380 H2366 0.960 . S
C2380 H2367 0.960 . S
C2380 C2379 1.524 . S
C2381 C2378 1.403 . S
C2381 C2382 1.392 . S
C2381 C2385 1.495 1_556 S
C2382 C2381 1.392 . S
C2382 C2383 1.385 . S
C2382 C2384 1.478 . S
C2383 H2377 0.930 . S
C2383 C2379 1.400 . S
C2383 C2382 1.385 . S
C2384 C2382 1.478 . S
C2384 C2386 1.381 1_556 S
C2384 C2390 1.383 . S
C2385 C2381 1.495 1_554 S
C2385 H2391 0.959 . S
C2385 H2392 0.961 . S
C2385 H2393 0.960 . S
C2386 C2384 1.381 1_554 S
C2386 C2387 1.394 . S
C2386 H2394 0.930 . S
C2387 C2386 1.394 . S
C2387 C2388 1.383 . S
C2387 H2395 0.929 . S
C2388 C2387 1.383 . S
C2388 C2389 1.377 1_554 S
C2389 H2373 0.930 . S
C2389 C2388 1.377 1_556 S
C2389 C2390 1.379 . S
C2390 H2374 0.931 . S
C2390 C2384 1.383 . S
C2390 C2389 1.379 . S
H2391 C2385 0.959 . S
H2392 C2385 0.961 . S
H2393 C2385 0.960 . S
H2394 C2386 0.930 . S
H2395 C2387 0.929 . S
H2396 C2404 0.929 . S
H2397 C2406 0.930 . S
H2398 C2408 0.930 . S
H2399 C2411 0.929 . S
H2400 C2414 0.930 . S
H2401 C2416 0.960 . S
H2402 C2416 0.960 . S
H2403 C2416 0.960 . S
C2404 H2396 0.929 . S
C2404 C2405 1.377 . S
C2404 C2406 1.384 . S
C2405 C2404 1.377 . S
C2405 C2411 1.390 . S
C2406 H2397 0.930 . S
C2406 C2404 1.384 . S
C2406 C2407 1.372 . S
C2407 C2406 1.372 . S
C2407 C2408 1.400 . S
C2407 C2412 1.490 . S
C2408 H2398 0.930 . S
C2408 C2407 1.400 . S
C2408 C2411 1.386 . S
H2409 C2425 0.930 . S
H2410 C2426 0.931 . S
C2411 H2399 0.929 . S
C2411 C2405 1.390 . S
C2411 C2408 1.386 . S
C2412 C2407 1.490 . S
C2412 C2414 1.395 . S
C2412 C2415 1.403 . S
H2413 C2419 0.930 . S
C2414 H2400 0.930 . S
C2414 C2412 1.395 . S
C2414 C2417 1.403 . S
C2415 C2412 1.403 . S
C2415 C2416 1.524 . S
C2415 C2419 1.400 . S
C2416 H2401 0.960 . S
C2416 H2402 0.960 . S
C2416 H2403 0.960 . S
C2416 C2415 1.524 . S
C2417 C2414 1.403 . S
C2417 C2418 1.392 . S
C2417 C2421 1.495 . S
C2418 C2417 1.392 . S
C2418 C2419 1.385 . S
C2418 C2420 1.478 . S
C2419 H2413 0.930 . S
C2419 C2415 1.400 . S
C2419 C2418 1.385 . S
C2420 C2418 1.478 . S
C2420 C2422 1.381 . S
C2420 C2426 1.383 . S
C2421 C2417 1.495 . S
C2421 H2427 0.959 . S
C2421 H2428 0.961 . S
C2421 H2429 0.960 . S
C2422 C2420 1.381 . S
C2422 C2423 1.394 . S
C2422 H2430 0.930 . S
C2423 C2422 1.394 . S
C2423 C2424 1.383 . S
C2423 H2431 0.929 . S
C2424 C2423 1.383 . S
C2424 C2425 1.377 . S
C2425 H2409 0.930 . S
C2425 C2424 1.377 . S
C2425 C2426 1.379 . S
C2426 H2410 0.931 . S
C2426 C2420 1.383 . S
C2426 C2425 1.379 . S
H2427 C2421 0.959 . S
H2428 C2421 0.961 . S
H2429 C2421 0.960 . S
H2430 C2422 0.930 . S
H2431 C2423 0.929 . S
H2432 C2440 0.929 . S
H2433 C2442 0.930 . S
H2434 C2444 0.932 . S
H2435 C2447 0.929 . S
H2436 C2450 0.930 . S
H2437 C2452 0.960 . S
H2438 C2452 0.960 . S
H2439 C2452 0.960 . S
C2440 H2432 0.929 . S
C2440 C2441 1.377 1_556 S
C2440 C2442 1.384 . S
C2441 C2440 1.377 1_554 S
C2441 C2447 1.390 . S
C2442 H2433 0.930 . S
C2442 C2440 1.384 . S
C2442 C2443 1.372 . S
C2443 C2442 1.372 . S
C2443 C2444 1.400 . S
C2443 C2448 1.490 . S
C2444 H2434 0.932 . S
C2444 C2443 1.400 . S
C2444 C2447 1.386 1_556 S
H2445 C2461 0.930 . S
H2446 C2462 0.931 . S
C2447 H2435 0.929 . S
C2447 C2441 1.390 . S
C2447 C2444 1.386 1_554 S
C2448 C2443 1.490 . S
C2448 C2450 1.395 . S
C2448 C2451 1.403 . S
H2449 C2455 0.930 . S
C2450 H2436 0.930 . S
C2450 C2448 1.395 . S
C2450 C2453 1.403 . S
C2451 C2448 1.403 . S
C2451 C2452 1.524 . S
C2451 C2455 1.400 . S
C2452 H2437 0.960 . S
C2452 H2438 0.960 . S
C2452 H2439 0.960 . S
C2452 C2451 1.524 . S
C2453 C2450 1.403 . S
C2453 C2454 1.392 . S
C2453 C2457 1.495 . S
C2454 C2453 1.392 . S
C2454 C2455 1.385 . S
C2454 C2456 1.478 . S
C2455 H2449 0.930 . S
C2455 C2451 1.400 . S
C2455 C2454 1.385 . S
C2456 C2454 1.478 . S
C2456 C2458 1.381 . S
C2456 C2462 1.383 . S
C2457 C2453 1.495 . S
C2457 H2463 0.959 . S
C2457 H2464 0.961 . S
C2457 H2465 0.960 . S
C2458 C2456 1.381 . S
C2458 C2459 1.394 . S
C2458 H2466 0.930 . S
C2459 C2458 1.394 . S
C2459 C2460 1.383 . S
C2459 H2467 0.929 . S
C2460 C2459 1.383 . S
C2460 C2461 1.377 . S
C2461 H2445 0.930 . S
C2461 C2460 1.377 . S
C2461 C2462 1.379 . S
C2462 H2446 0.931 . S
C2462 C2456 1.383 . S
C2462 C2461 1.379 . S
H2463 C2457 0.959 . S
H2464 C2457 0.961 . S
H2465 C2457 0.960 . S
H2466 C2458 0.930 . S
H2467 C2459 0.929 . S
H2468 C2476 0.929 . S
H2469 C2478 0.930 . S
H2470 C2480 0.930 . S
H2471 C2483 0.929 . S
H2472 C2486 0.930 . S
H2473 C2488 0.960 . S
H2474 C2488 0.960 . S
H2475 C2488 0.960 . S
C2476 H2468 0.929 . S
C2476 C2477 1.377 . S
C2476 C2478 1.384 . S
C2477 C2476 1.377 . S
C2477 C2483 1.390 . S
C2478 H2469 0.930 . S
C2478 C2476 1.384 . S
C2478 C2479 1.372 . S
C2479 C2478 1.372 . S
C2479 C2480 1.400 . S
C2479 C2484 1.490 . S
C2480 H2470 0.930 . S
C2480 C2479 1.400 . S
C2480 C2483 1.386 . S
H2481 C2497 0.930 . S
H2482 C2498 0.931 . S
C2483 H2471 0.929 . S
C2483 C2477 1.390 . S
C2483 C2480 1.386 . S
C2484 C2479 1.490 . S
C2484 C2486 1.395 . S
C2484 C2487 1.403 . S
H2485 C2491 0.930 . S
C2486 H2472 0.930 . S
C2486 C2484 1.395 . S
C2486 C2489 1.403 . S
C2487 C2484 1.403 . S
C2487 C2488 1.524 . S
C2487 C2491 1.400 . S
C2488 H2473 0.960 . S
C2488 H2474 0.960 . S
C2488 H2475 0.960 . S
C2488 C2487 1.524 . S
C2489 C2486 1.403 . S
C2489 C2490 1.392 . S
C2489 C2493 1.495 . S
C2490 C2489 1.392 . S
C2490 C2491 1.385 . S
C2490 C2492 1.478 . S
C2491 H2485 0.930 . S
C2491 C2487 1.400 . S
C2491 C2490 1.385 . S
C2492 C2490 1.478 . S
C2492 C2494 1.381 . S
C2492 C2498 1.383 . S
C2493 C2489 1.495 . S
C2493 H2499 0.959 . S
C2493 H2500 0.961 . S
C2493 H2501 0.960 . S
C2494 C2492 1.381 . S
C2494 C2495 1.394 . S
C2494 H2502 0.930 . S
C2495 C2494 1.394 . S
C2495 C2496 1.383 . S
C2495 H2503 0.929 . S
C2496 C2495 1.383 . S
C2496 C2497 1.377 . S
C2497 H2481 0.930 . S
C2497 C2496 1.377 . S
C2497 C2498 1.379 . S
C2498 H2482 0.931 . S
C2498 C2492 1.383 . S
C2498 C2497 1.379 . S
H2499 C2493 0.959 . S
H2500 C2493 0.961 . S
H2501 C2493 0.960 . S
H2502 C2494 0.930 . S
H2503 C2495 0.929 . S
H2504 C2512 0.929 . S
H2505 C2514 0.930 . S
H2506 C2516 0.930 . S
H2507 C2519 0.929 . S
H2508 C2522 0.930 . S
H2509 C2524 0.960 . S
H2510 C2524 0.960 . S
H2511 C2524 0.960 . S
C2512 H2504 0.929 . S
C2512 C2513 1.377 . S
C2512 C2514 1.384 . S
C2513 C2512 1.377 . S
C2513 C2519 1.390 . S
C2514 H2505 0.930 . S
C2514 C2512 1.384 . S
C2514 C2515 1.372 . S
C2515 C2514 1.372 . S
C2515 C2516 1.400 . S
C2515 C2520 1.490 . S
C2516 H2506 0.930 . S
C2516 C2515 1.400 . S
C2516 C2519 1.386 . S
H2517 C2533 0.930 . S
H2518 C2534 0.931 . S
C2519 H2507 0.929 . S
C2519 C2513 1.390 . S
C2519 C2516 1.386 . S
C2520 C2515 1.490 . S
C2520 C2522 1.395 . S
C2520 C2523 1.403 . S
H2521 C2527 0.930 . S
C2522 H2508 0.930 . S
C2522 C2520 1.395 . S
C2522 C2525 1.403 . S
C2523 C2520 1.403 . S
C2523 C2524 1.524 . S
C2523 C2527 1.400 . S
C2524 H2509 0.960 . S
C2524 H2510 0.960 . S
C2524 H2511 0.960 . S
C2524 C2523 1.524 . S
C2525 C2522 1.403 . S
C2525 C2526 1.392 . S
C2525 C2529 1.495 . S
C2526 C2525 1.392 . S
C2526 C2527 1.385 . S
C2526 C2528 1.478 . S
C2527 H2521 0.930 . S
C2527 C2523 1.400 . S
C2527 C2526 1.385 . S
C2528 C2526 1.478 . S
C2528 C2530 1.381 . S
C2528 C2534 1.383 . S
C2529 C2525 1.495 . S
C2529 H2535 0.959 . S
C2529 H2536 0.961 . S
C2529 H2537 0.960 . S
C2530 C2528 1.381 . S
C2530 C2531 1.394 . S
C2530 H2538 0.930 . S
C2531 C2530 1.394 . S
C2531 C2532 1.383 . S
C2531 H2539 0.929 . S
C2532 C2531 1.383 . S
C2532 C2533 1.377 . S
C2533 H2517 0.930 . S
C2533 C2532 1.377 . S
C2533 C2534 1.379 . S
C2534 H2518 0.931 . S
C2534 C2528 1.383 . S
C2534 C2533 1.379 . S
H2535 C2529 0.959 . S
H2536 C2529 0.961 . S
H2537 C2529 0.960 . S
H2538 C2530 0.930 . S
H2539 C2531 0.929 . S
H2540 C2548 0.929 . S
H2541 C2550 0.930 . S
H2542 C2552 0.930 . S
H2543 C2555 0.929 . S
H2544 C2558 0.930 . S
H2545 C2560 0.960 . S
H2546 C2560 0.960 . S
H2547 C2560 0.960 . S
C2548 H2540 0.929 . S
C2548 C2549 1.377 . S
C2548 C2550 1.384 . S
C2549 C2548 1.377 . S
C2549 C2555 1.390 . S
C2550 H2541 0.930 . S
C2550 C2548 1.384 . S
C2550 C2551 1.372 . S
C2551 C2550 1.372 . S
C2551 C2552 1.400 . S
C2551 C2556 1.490 . S
C2552 H2542 0.930 . S
C2552 C2551 1.400 . S
C2552 C2555 1.386 . S
H2553 C2569 0.930 . S
H2554 C2570 0.931 . S
C2555 H2543 0.929 . S
C2555 C2549 1.390 . S
C2555 C2552 1.386 . S
C2556 C2551 1.490 . S
C2556 C2558 1.395 . S
C2556 C2559 1.403 . S
H2557 C2563 0.930 . S
C2558 H2544 0.930 . S
C2558 C2556 1.395 . S
C2558 C2561 1.403 . S
C2559 C2556 1.403 . S
C2559 C2560 1.524 . S
C2559 C2563 1.400 . S
C2560 H2545 0.960 . S
C2560 H2546 0.960 . S
C2560 H2547 0.960 . S
C2560 C2559 1.524 . S
C2561 C2558 1.403 . S
C2561 C2562 1.392 . S
C2561 C2565 1.495 . S
C2562 C2561 1.392 . S
C2562 C2563 1.385 . S
C2562 C2564 1.478 . S
C2563 H2557 0.930 . S
C2563 C2559 1.400 . S
C2563 C2562 1.385 . S
C2564 C2562 1.478 . S
C2564 C2566 1.381 . S
C2564 C2570 1.383 . S
C2565 C2561 1.495 . S
C2565 H2571 0.959 . S
C2565 H2572 0.961 . S
C2565 H2573 0.960 . S
C2566 C2564 1.381 . S
C2566 C2567 1.394 . S
C2566 H2574 0.930 . S
C2567 C2566 1.394 . S
C2567 C2568 1.383 . S
C2567 H2575 0.929 . S
C2568 C2567 1.383 . S
C2568 C2569 1.377 . S
C2569 H2553 0.930 . S
C2569 C2568 1.377 . S
C2569 C2570 1.379 . S
C2570 H2554 0.931 . S
C2570 C2564 1.383 . S
C2570 C2569 1.379 . S
H2571 C2565 0.959 . S
H2572 C2565 0.961 . S
H2573 C2565 0.960 . S
H2574 C2566 0.930 . S
H2575 C2567 0.929 . S
H2576 C2584 0.929 . S
H2577 C2586 0.930 . S
H2578 C2588 0.930 . S
H2579 C2591 0.929 . S
H2580 C2594 0.930 . S
H2581 C2596 0.960 . S
H2582 C2596 0.960 . S
H2583 C2596 0.960 . S
C2584 H2576 0.929 . S
C2584 C2585 1.377 . S
C2584 C2586 1.384 . S
C2585 C2584 1.377 . S
C2585 C2591 1.390 . S
C2586 H2577 0.930 . S
C2586 C2584 1.384 . S
C2586 C2587 1.372 . S
C2587 C2586 1.372 . S
C2587 C2588 1.400 . S
C2587 C2592 1.490 . S
C2588 H2578 0.930 . S
C2588 C2587 1.400 . S
C2588 C2591 1.386 . S
H2589 C2605 0.930 . S
H2590 C2606 0.931 . S
C2591 H2579 0.929 . S
C2591 C2585 1.390 . S
C2591 C2588 1.386 . S
C2592 C2587 1.490 . S
C2592 C2594 1.395 . S
C2592 C2595 1.403 . S
H2593 C2599 0.930 . S
C2594 H2580 0.930 . S
C2594 C2592 1.395 . S
C2594 C2597 1.403 . S
C2595 C2592 1.403 . S
C2595 C2596 1.524 . S
C2595 C2599 1.400 . S
C2596 H2581 0.960 . S
C2596 H2582 0.960 . S
C2596 H2583 0.960 . S
C2596 C2595 1.524 . S
C2597 C2594 1.403 . S
C2597 C2598 1.392 . S
C2597 C2601 1.495 . S
C2598 C2597 1.392 . S
C2598 C2599 1.385 . S
C2598 C2600 1.478 . S
C2599 H2593 0.930 . S
C2599 C2595 1.400 . S
C2599 C2598 1.385 . S
C2600 C2598 1.478 . S
C2600 C2602 1.381 . S
C2600 C2606 1.383 . S
C2601 C2597 1.495 . S
C2601 H2607 0.959 . S
C2601 H2608 0.961 . S
C2601 H2609 0.960 . S
C2602 C2600 1.381 . S
C2602 C2603 1.394 . S
C2602 H2610 0.930 . S
C2603 C2602 1.394 . S
C2603 C2604 1.383 . S
C2603 H2611 0.929 . S
C2604 C2603 1.383 . S
C2604 C2605 1.377 . S
C2605 H2589 0.930 . S
C2605 C2604 1.377 . S
C2605 C2606 1.379 . S
C2606 H2590 0.931 . S
C2606 C2600 1.383 . S
C2606 C2605 1.379 . S
H2607 C2601 0.959 . S
H2608 C2601 0.961 . S
H2609 C2601 0.960 . S
H2610 C2602 0.930 . S
H2611 C2603 0.929 . S
H2612 C2620 0.929 . S
H2613 C2622 0.930 . S
H2614 C2624 0.930 . S
H2615 C2627 0.929 . S
H2616 C2630 0.930 . S
H2617 C2632 0.960 . S
H2618 C2632 0.960 . S
H2619 C2632 0.960 . S
C2620 H2612 0.929 . S
C2620 C2621 1.377 . S
C2620 C2622 1.384 . S
C2621 C2620 1.377 . S
C2621 C2627 1.390 . S
C2622 H2613 0.930 . S
C2622 C2620 1.384 . S
C2622 C2623 1.372 . S
C2623 C2622 1.372 . S
C2623 C2624 1.400 . S
C2623 C2628 1.490 . S
C2624 H2614 0.930 . S
C2624 C2623 1.400 . S
C2624 C2627 1.386 . S
H2625 C2641 0.930 . S
H2626 C2642 0.931 . S
C2627 H2615 0.929 . S
C2627 C2621 1.390 . S
C2627 C2624 1.386 . S
C2628 C2623 1.490 . S
C2628 C2630 1.395 . S
C2628 C2631 1.403 . S
H2629 C2635 0.930 . S
C2630 H2616 0.930 . S
C2630 C2628 1.395 . S
C2630 C2633 1.403 . S
C2631 C2628 1.403 . S
C2631 C2632 1.524 . S
C2631 C2635 1.400 . S
C2632 H2617 0.960 . S
C2632 H2618 0.960 . S
C2632 H2619 0.960 . S
C2632 C2631 1.524 . S
C2633 C2630 1.403 . S
C2633 C2634 1.392 . S
C2633 C2637 1.495 . S
C2634 C2633 1.392 . S
C2634 C2635 1.385 . S
C2634 C2636 1.478 . S
C2635 H2629 0.930 . S
C2635 C2631 1.400 . S
C2635 C2634 1.385 . S
C2636 C2634 1.478 . S
C2636 C2638 1.381 . S
C2636 C2642 1.383 . S
C2637 C2633 1.495 . S
C2637 H2643 0.959 . S
C2637 H2644 0.961 . S
C2637 H2645 0.960 . S
C2638 C2636 1.381 . S
C2638 C2639 1.394 . S
C2638 H2646 0.930 . S
C2639 C2638 1.394 . S
C2639 C2640 1.383 . S
C2639 H2647 0.929 . S
C2640 C2639 1.383 . S
C2640 C2641 1.377 . S
C2641 H2625 0.930 . S
C2641 C2640 1.377 . S
C2641 C2642 1.379 . S
C2642 H2626 0.931 . S
C2642 C2636 1.383 . S
C2642 C2641 1.379 . S
H2643 C2637 0.959 . S
H2644 C2637 0.961 . S
H2645 C2637 0.960 . S
H2646 C2638 0.930 . S
H2647 C2639 0.929 . S
H2648 C2656 0.929 . S
H2649 C2658 0.930 . S
H2650 C2660 0.930 . S
H2651 C2663 0.929 . S
H2652 C2666 0.930 . S
H2653 C2668 0.960 . S
H2654 C2668 0.960 . S
H2655 C2668 0.960 . S
C2656 H2648 0.929 . S
C2656 C2657 1.377 . S
C2656 C2658 1.384 . S
C2657 C2656 1.377 . S
C2657 C2663 1.390 . S
C2658 H2649 0.930 . S
C2658 C2656 1.384 . S
C2658 C2659 1.372 . S
C2659 C2658 1.372 . S
C2659 C2660 1.400 . S
C2659 C2664 1.490 . S
C2660 H2650 0.930 . S
C2660 C2659 1.400 . S
C2660 C2663 1.386 . S
H2661 C2677 0.930 . S
H2662 C2678 0.931 . S
C2663 H2651 0.929 . S
C2663 C2657 1.390 . S
C2663 C2660 1.386 . S
C2664 C2659 1.490 . S
C2664 C2666 1.395 . S
C2664 C2667 1.403 . S
H2665 C2671 0.930 . S
C2666 H2652 0.930 . S
C2666 C2664 1.395 . S
C2666 C2669 1.403 . S
C2667 C2664 1.403 . S
C2667 C2668 1.524 . S
C2667 C2671 1.400 . S
C2668 H2653 0.960 . S
C2668 H2654 0.960 . S
C2668 H2655 0.960 . S
C2668 C2667 1.524 . S
C2669 C2666 1.403 . S
C2669 C2670 1.392 . S
C2669 C2673 1.495 . S
C2670 C2669 1.392 . S
C2670 C2671 1.385 . S
C2670 C2672 1.478 . S
C2671 H2665 0.930 . S
C2671 C2667 1.400 . S
C2671 C2670 1.385 . S
C2672 C2670 1.478 . S
C2672 C2674 1.381 . S
C2672 C2678 1.383 . S
C2673 C2669 1.495 . S
C2673 H2679 0.959 . S
C2673 H2680 0.961 . S
C2673 H2681 0.960 . S
C2674 C2672 1.381 . S
C2674 C2675 1.394 . S
C2674 H2682 0.930 . S
C2675 C2674 1.394 . S
C2675 C2676 1.383 . S
C2675 H2683 0.929 . S
C2676 C2675 1.383 . S
C2676 C2677 1.377 . S
C2677 H2661 0.930 . S
C2677 C2676 1.377 . S
C2677 C2678 1.379 . S
C2678 H2662 0.931 . S
C2678 C2672 1.383 . S
C2678 C2677 1.379 . S
H2679 C2673 0.959 . S
H2680 C2673 0.961 . S
H2681 C2673 0.960 . S
H2682 C2674 0.930 . S
H2683 C2675 0.929 . S
H2684 C2692 0.929 . S
H2685 C2694 0.930 . S
H2686 C2696 0.930 . S
H2687 C2699 0.929 . S
H2688 C2702 0.930 . S
H2689 C2704 0.960 . S
H2690 C2704 0.960 . S
H2691 C2704 0.960 . S
C2692 H2684 0.929 . S
C2692 C2693 1.377 . S
C2692 C2694 1.384 . S
C2693 C2692 1.377 . S
C2693 C2699 1.390 . S
C2694 H2685 0.930 . S
C2694 C2692 1.384 . S
C2694 C2695 1.372 . S
C2695 C2694 1.372 . S
C2695 C2696 1.400 . S
C2695 C2700 1.490 . S
C2696 H2686 0.930 . S
C2696 C2695 1.400 . S
C2696 C2699 1.386 . S
H2697 C2713 0.930 . S
H2698 C2714 0.931 . S
C2699 H2687 0.929 . S
C2699 C2693 1.390 . S
C2699 C2696 1.386 . S
C2700 C2695 1.490 . S
C2700 C2702 1.395 . S
C2700 C2703 1.403 . S
H2701 C2707 0.930 . S
C2702 H2688 0.930 . S
C2702 C2700 1.395 . S
C2702 C2705 1.403 . S
C2703 C2700 1.403 . S
C2703 C2704 1.524 . S
C2703 C2707 1.400 . S
C2704 H2689 0.960 . S
C2704 H2690 0.960 . S
C2704 H2691 0.960 . S
C2704 C2703 1.524 . S
C2705 C2702 1.403 . S
C2705 C2706 1.392 . S
C2705 C2709 1.495 . S
C2706 C2705 1.392 . S
C2706 C2707 1.385 . S
C2706 C2708 1.478 . S
C2707 H2701 0.930 . S
C2707 C2703 1.400 . S
C2707 C2706 1.385 . S
C2708 C2706 1.478 . S
C2708 C2710 1.381 . S
C2708 C2714 1.383 1_556 S
C2709 C2705 1.495 . S
C2709 H2715 0.959 . S
C2709 H2716 0.961 . S
C2709 H2717 0.960 . S
C2710 C2708 1.381 . S
C2710 C2711 1.394 . S
C2710 H2718 0.930 . S
C2711 C2710 1.394 . S
C2711 C2712 1.383 1_556 S
C2711 H2719 0.929 . S
C2712 C2711 1.383 1_554 S
C2712 C2713 1.377 . S
C2713 H2697 0.930 . S
C2713 C2712 1.377 . S
C2713 C2714 1.379 . S
C2714 H2698 0.931 . S
C2714 C2708 1.383 1_554 S
C2714 C2713 1.379 . S
H2715 C2709 0.959 . S
H2716 C2709 0.961 . S
H2717 C2709 0.960 . S
H2718 C2710 0.930 . S
H2719 C2711 0.929 . S
C425 C109 1.474 . S
C444 C3 1.476 . S
C461 C18 1.478 . S
C480 C328 1.472 . S
C497 C31 1.478 . S
C516 C135 1.483 . S
C533 C44 1.477 . S
C552 C356 1.485 . S
C569 C55 1.474 . S
C588 C159 1.472 . S
C605 C382 1.478 . S
C624 C68 1.471 . S
C641 C185 1.476 . S
C660 C81 1.483 . S
C677 C406 1.475 . S
C696 C96 1.478 . S
C713 C224 1.476 . S
C732 C122 1.483 . S
C749 C148 1.475 . S
C768 C252 1.461 . S
C785 C172 1.475 . S
C804 C276 1.478 . S
C821 C302 1.475 . S
C840 C198 1.478 . S
C857 C315 1.474 . S
C876 C211 1.465 . S
C893 C237 1.478 . S
C912 C343 1.484 . S
C929 C265 1.475 . S
C948 C367 1.477 . S
C965 C393 1.475 . S
C984 C289 1.461 . S
C1001 C5 1.609 1_556 S
C1020 C57 1.615 . S
C1037 C70 1.610 . S
C1056 C16 1.617 . S
C1073 C83 1.605 . S
C1092 C29 1.591 . S
C1109 C42 1.606 . S
C1128 C94 1.592 . S
C1145 C107 1.607 . S
C1164 C161 1.615 . S
C1181 C120 1.605 . S
C1200 C174 1.617 . S
C1217 C187 1.607 1_556 S
C1236 C133 1.612 . S
C1253 C200 1.608 . S
C1272 C146 1.596 . S
C1289 C263 1.610 . S
C1308 C213 1.617 . S
C1325 C278 1.605 . S
C1344 C226 1.596 . S
C1361 C239 1.605 1_556 S
C1380 C291 1.593 . S
C1397 C304 1.607 . S
C1416 C250 1.606 . S
C1433 C369 1.607 1_556 S
C1452 C317 1.598 . S
C1469 C330 1.610 . S
C1488 C380 1.600 . S
C1505 C395 1.608 . S
C1524 C341 1.597 . S
C1541 C408 1.609 . S
C1560 C354 1.591 . S
C1577 C56 0.364 . S
C1596 C4 0.454 . S
C1613 C69 0.383 . S
C1632 C23 0.447 . S
C1649 C36 0.384 . S
C1668 C82 0.445 . S
C1685 C101 0.389 . S
C1704 C49 0.317 . S
C1721 C160 0.359 . S
C1740 C114 0.335 . S
C1757 C127 0.392 . S
C1776 C173 0.452 . S
C1793 C186 0.390 . S
C1812 C140 0.461 . S
C1829 C199 0.386 . S
C1848 C153 0.407 . S
C1865 C212 0.386 . S
C1884 C270 0.302 . S
C1901 C277 0.389 . S
C1920 C225 0.420 . S
C1937 C290 0.392 . S
C1956 C238 0.351 . S
C1973 C303 0.358 . S
C1992 C257 0.427 . S
C2009 C368 0.360 . S
C2028 C316 0.346 . S
C2045 C329 0.372 . S
C2064 C387 0.408 . S
C2081 C348 0.392 . S
C2100 C394 0.444 . S
C2117 C361 0.384 . S
C2136 C407 0.448 . S
C2153 C10 1.474 . S
C2172 C283 1.485 . S
C2189 C296 1.473 . S
C2208 C17 1.470 . S
C2225 C30 1.472 . S
C2244 C309 1.476 . S
C2261 C43 1.477 . S
C2280 C264 1.487 . S
C2297 C251 1.473 . S
C2316 C62 1.462 . S
C2333 C218 1.473 . S
C2352 C75 1.467 . S
C2369 C231 1.475 . S
C2388 C88 1.488 . S
C2405 C95 1.479 . S
C2424 C244 1.478 . S
C2441 C108 1.472 . S
C2460 C381 1.461 . S
C2477 C400 1.478 . S
C2496 C121 1.477 . S
C2513 C413 1.478 . S
C2532 C134 1.477 . S
C2549 C374 1.476 . S
C2568 C147 1.463 . S
C2585 C355 1.474 . S
C2604 C166 1.472 . S
C2621 C322 1.479 . S
C2640 C179 1.479 . S
C2657 C192 1.473 . S
C2676 C335 1.466 . S
C2693 C205 1.478 . S
C2712 C342 1.474 . S
