# Generated by pormake.
# Topology swf, (7)-cn, num edge types: 1
# Building blocks:
#     Node 0, Type 0, BuildingBlock: HICVOG_clean_sbu_0, # of connection points: 7
#     Node 1, Type 0, BuildingBlock: HICVOG_clean_sbu_0, # of connection points: 7
#     Node 2, Type 0, BuildingBlock: HICVOG_clean_sbu_0, # of connection points: 7
#     Node 3, Type 0, BuildingBlock: HICVOG_clean_sbu_0, # of connection points: 7
#     Node 4, Type 0, BuildingBlock: HICVOG_clean_sbu_0, # of connection points: 7
#     Node 5, Type 0, BuildingBlock: HICVOG_clean_sbu_0, # of connection points: 7
#     Node 6, Type 0, BuildingBlock: HICVOG_clean_sbu_0, # of connection points: 7
#     Node 7, Type 0, BuildingBlock: HICVOG_clean_sbu_0, # of connection points: 7
#     Node 8, Type 0, BuildingBlock: HICVOG_clean_sbu_0, # of connection points: 7
#     Node 9, Type 0, BuildingBlock: HICVOG_clean_sbu_0, # of connection points: 7
#     Node 10, Type 0, BuildingBlock: HICVOG_clean_sbu_0, # of connection points: 7
#     Node 11, Type 0, BuildingBlock: HICVOG_clean_sbu_0, # of connection points: 7
#     Edge 12, Type (0, 0), BuildingBlock: AJUNOK_clean_linker_0, # of connection points: 2
#     Edge 13, Type (0, 0), BuildingBlock: AJUNOK_clean_linker_0, # of connection points: 2
#     Edge 14, Type (0, 0), BuildingBlock: AJUNOK_clean_linker_0, # of connection points: 2
#     Edge 15, Type (0, 0), BuildingBlock: AJUNOK_clean_linker_0, # of connection points: 2
#     Edge 16, Type (0, 0), BuildingBlock: AJUNOK_clean_linker_0, # of connection points: 2
#     Edge 17, Type (0, 0), BuildingBlock: AJUNOK_clean_linker_0, # of connection points: 2
#     Edge 18, Type (0, 0), BuildingBlock: AJUNOK_clean_linker_0, # of connection points: 2
#     Edge 19, Type (0, 0), BuildingBlock: AJUNOK_clean_linker_0, # of connection points: 2
#     Edge 20, Type (0, 0), BuildingBlock: AJUNOK_clean_linker_0, # of connection points: 2
#     Edge 21, Type (0, 0), BuildingBlock: AJUNOK_clean_linker_0, # of connection points: 2
#     Edge 22, Type (0, 0), BuildingBlock: AJUNOK_clean_linker_0, # of connection points: 2
#     Edge 23, Type (0, 0), BuildingBlock: AJUNOK_clean_linker_0, # of connection points: 2
#     Edge 24, Type (0, 0), BuildingBlock: AJUNOK_clean_linker_0, # of connection points: 2
#     Edge 25, Type (0, 0), BuildingBlock: AJUNOK_clean_linker_0, # of connection points: 2
#     Edge 26, Type (0, 0), BuildingBlock: AJUNOK_clean_linker_0, # of connection points: 2
#     Edge 27, Type (0, 0), BuildingBlock: AJUNOK_clean_linker_0, # of connection points: 2
#     Edge 28, Type (0, 0), BuildingBlock: AJUNOK_clean_linker_0, # of connection points: 2
#     Edge 29, Type (0, 0), BuildingBlock: AJUNOK_clean_linker_0, # of connection points: 2
#     Edge 30, Type (0, 0), BuildingBlock: AJUNOK_clean_linker_0, # of connection points: 2
#     Edge 31, Type (0, 0), BuildingBlock: AJUNOK_clean_linker_0, # of connection points: 2
#     Edge 32, Type (0, 0), BuildingBlock: AJUNOK_clean_linker_0, # of connection points: 2
#     Edge 33, Type (0, 0), BuildingBlock: AJUNOK_clean_linker_0, # of connection points: 2
#     Edge 34, Type (0, 0), BuildingBlock: AJUNOK_clean_linker_0, # of connection points: 2
#     Edge 35, Type (0, 0), BuildingBlock: AJUNOK_clean_linker_0, # of connection points: 2
#     Edge 36, Type (0, 0), BuildingBlock: AJUNOK_clean_linker_0, # of connection points: 2
#     Edge 37, Type (0, 0), BuildingBlock: AJUNOK_clean_linker_0, # of connection points: 2
#     Edge 38, Type (0, 0), BuildingBlock: AJUNOK_clean_linker_0, # of connection points: 2
#     Edge 39, Type (0, 0), BuildingBlock: AJUNOK_clean_linker_0, # of connection points: 2
#     Edge 40, Type (0, 0), BuildingBlock: AJUNOK_clean_linker_0, # of connection points: 2
#     Edge 41, Type (0, 0), BuildingBlock: AJUNOK_clean_linker_0, # of connection points: 2
#     Edge 42, Type (0, 0), BuildingBlock: AJUNOK_clean_linker_0, # of connection points: 2
#     Edge 43, Type (0, 0), BuildingBlock: AJUNOK_clean_linker_0, # of connection points: 2
#     Edge 44, Type (0, 0), BuildingBlock: AJUNOK_clean_linker_0, # of connection points: 2
#     Edge 45, Type (0, 0), BuildingBlock: AJUNOK_clean_linker_0, # of connection points: 2
#     Edge 46, Type (0, 0), BuildingBlock: AJUNOK_clean_linker_0, # of connection points: 2
#     Edge 47, Type (0, 0), BuildingBlock: AJUNOK_clean_linker_0, # of connection points: 2
#     Edge 48, Type (0, 0), BuildingBlock: AJUNOK_clean_linker_0, # of connection points: 2
#     Edge 49, Type (0, 0), BuildingBlock: AJUNOK_clean_linker_0, # of connection points: 2
#     Edge 50, Type (0, 0), BuildingBlock: AJUNOK_clean_linker_0, # of connection points: 2
#     Edge 51, Type (0, 0), BuildingBlock: AJUNOK_clean_linker_0, # of connection points: 2
#     Edge 52, Type (0, 0), BuildingBlock: AJUNOK_clean_linker_0, # of connection points: 2
#     Edge 53, Type (0, 0), BuildingBlock: AJUNOK_clean_linker_0, # of connection points: 2
# Relax obj value: 0.422
# Max RMSD: 0.202
# Mean RMSD: 0.202
data_MOF--net-swf--node1-HICVOG_clean_sbu_0--edge1-AJUNOK_clean_linker_0
_symmetry_space_group_name_H-M    P1
_symmetry_Int_Tables_number       1
_symmetry_cell_setting            triclinic
loop_
_symmetry_equiv_pos_as_xyz
'x, y, z'
_cell_length_a     36.203008
_cell_length_b     36.171995
_cell_length_c     16.728213
_cell_angle_alpha  90.216277
_cell_angle_beta   90.760091
_cell_angle_gamma 120.34403
loop_
_atom_site_label
_atom_site_type_symbol
_atom_site_fract_x
_atom_site_fract_y
_atom_site_fract_z
_atom_type_partial_charge
Zn0 Zn 0.41873 0.11892 1.03002 0.0
C1 C 0.4324 0.20815 0.19092 0.0
N2 N 0.43071 0.23075 1.125 0.0
C3 C 0.42985 0.20753 1.05764 0.0
N4 N 0.43158 0.17244 1.08352 0.0
N5 N 0.43423 0.17337 0.163 0.0
C6 C 0.3932 0.05404 0.26236 0.0
O7 O 0.40051 0.04969 0.18736 0.0
O8 O 0.42183 0.12934 0.91521 0.0
Zn9 Zn 0.4564 0.14005 0.22041 0.0
N10 N 0.36015 0.07807 1.05462 0.0
C11 C 0.29949 0.04827 1.13903 0.0
C12 C 0.3419 0.07938 1.12439 0.0
C13 C 0.33732 0.04796 0.99801 0.0
N14 N 0.2767 0.01776 1.08247 0.0
C15 C 0.29453 0.01725 1.01174 0.0
O16 O 0.48675 0.10959 0.16392 0.0
C17 C 0.4818 0.08884 1.09862 0.0
O18 O 0.45656 0.0893 1.04483 0.0
H19 H 0.36017 0.10374 0.16893 0.0
H20 H 0.35268 0.04777 0.94303 0.0
C21 C 0.49972 0.18799 0.35915 0.0
C22 C 0.53112 0.22447 0.40138 0.0
C23 C 0.56075 0.25725 0.2774 0.0
C24 C 0.53049 0.22049 0.23673 0.0
N25 N 0.501 0.18658 0.27882 0.0
N26 N 0.56098 0.25791 0.35849 0.0
H27 H 0.47531 0.15987 0.38863 0.0
C28 C 0.45806 0.15861 0.89234 0.0
O29 O 0.48695 0.18235 0.94705 0.0
O30 O 0.41241 0.09174 0.29316 0.0
H31 H 0.52977 0.21916 0.17207 0.0
H32 H 0.28482 0.04841 0.19486 0.0
H33 H 0.58457 0.28458 0.245 0.0
Zn34 Zn 0.33588 0.46637 1.09394 0.0
C35 C 0.25836 0.47263 0.24977 0.0
N36 N 0.23126 0.46141 0.18267 0.0
C37 C 0.25705 0.47034 1.11607 0.0
N38 N 0.29755 0.48352 1.14379 0.0
N39 N 0.29924 0.48831 0.22289 0.0
C40 C 0.35508 0.45545 0.33623 0.0
O41 O 0.34479 0.44871 0.26002 0.0
O42 O 0.34487 0.49061 0.98454 0.0
Zn43 Zn 0.35645 0.52389 0.27694 0.0
N44 N 0.30816 0.40476 1.10831 0.0
C45 C 0.2533 0.34108 0.16752 0.0
C46 C 0.26789 0.38195 1.13762 0.0
C47 C 0.33414 0.38792 1.10725 0.0
N48 N 0.27942 0.32436 0.16668 0.0
C49 C 0.31979 0.3466 1.13771 0.0
O50 O 0.41534 0.53677 0.22778 0.0
C51 C 0.42826 0.51944 0.17696 0.0
O52 O 0.40095 0.49095 1.12881 0.0
H53 H 0.24766 0.39563 1.14142 0.0
H54 H 0.36573 0.40718 1.08313 0.0
C55 C 0.35696 0.59506 0.36536 0.0
C56 C 0.35028 0.6302 0.36891 0.0
C57 C 0.36239 0.6401 0.23061 0.0
C58 C 0.36419 0.60248 0.22617 0.0
N59 N 0.3614 0.58034 0.29361 0.0
N60 N 0.35459 0.65284 0.30168 0.0
H61 H 0.35672 0.57854 0.41911 0.0
C62 C 0.36513 0.53036 1.00346 0.0
O63 O 0.36971 0.54122 1.07912 0.0
O64 O 0.35853 0.48893 0.3695 0.0
H65 H 0.36749 0.59103 0.16906 0.0
H66 H 0.22152 0.32284 0.19172 0.0
H67 H 0.36551 0.65796 0.1772 0.0
Zn68 Zn 0.82501 0.27259 1.05564 0.0
C69 C 0.74082 0.19735 0.21999 0.0
N70 N 0.71703 0.17434 0.15238 0.0
C71 C 0.73971 0.19803 1.08649 0.0
N72 N 0.77521 0.23402 1.11497 0.0
N73 N 0.77602 0.23429 0.1946 0.0
C74 C 0.90588 0.30835 0.29134 0.0
O75 O 0.90997 0.31914 0.2158 0.0
O76 O 0.80437 0.27944 0.94829 0.0
Zn77 Zn 0.81774 0.2872 0.2573 0.0
N78 N 0.86025 0.2465 1.06407 0.0
C79 C 0.88029 0.20342 1.1403 0.0
C80 C 0.8559 0.22298 1.1306 0.0
C81 C 0.88869 0.25158 1.0074 0.0
N82 N 0.90914 0.20899 1.08414 0.0
C83 C 0.91376 0.23242 1.01786 0.0
O84 O 0.84939 0.34917 0.20573 0.0
C85 C 0.86795 0.36369 1.13898 0.0
O86 O 0.86221 0.33737 1.08289 0.0
H87 H 0.83423 0.2196 0.17695 0.0
H88 H 0.89257 0.27138 0.95617 0.0
C89 C 0.78733 0.28306 0.4124 0.0
C90 C 0.75591 0.27518 0.46862 0.0
C91 C 0.71033 0.27401 0.36343 0.0
C92 C 0.74225 0.28308 0.30855 0.0
N93 N 0.77987 0.28715 0.3344 0.0
N94 N 0.71807 0.27077 0.44185 0.0
H95 H 0.8172 0.28522 0.42948 0.0
C96 C 0.77953 0.29445 0.95918 0.0
O97 O 0.76179 0.28916 1.0293 0.0
O98 O 0.86816 0.28765 0.31939 0.0
H99 H 0.73652 0.28485 0.24543 0.0
H100 H 0.87702 0.1848 0.19296 0.0
H101 H 0.67982 0.26992 0.3442 0.0
Zn102 Zn 0.54148 0.89052 0.18911 0.0
C103 C 0.52169 0.79916 1.01978 0.0
N104 N 0.51312 0.77283 1.08591 0.0
C105 C 0.51987 0.79842 0.15355 0.0
N106 N 0.53156 0.83885 1.12772 0.0
N107 N 0.53309 0.83928 1.04809 0.0
C108 C 0.48754 0.86633 0.9172 0.0
O109 O 0.48573 0.87145 0.99444 0.0
O110 O 0.59498 0.9152 0.25567 0.0
Zn111 Zn 0.56021 0.89342 0.98789 0.0
N112 N 0.49095 0.87307 0.2462 0.0
C113 C 0.45068 0.88908 0.3358 0.0
C114 C 0.48924 0.89185 0.31528 0.0
C115 C 0.45669 0.85281 0.19585 0.0
N116 N 0.4163 0.86873 0.28515 0.0
C117 C 0.4184 0.85068 0.21487 0.0
O118 O 0.55235 0.9482 1.01353 0.0
C119 C 0.54355 0.96196 1.07689 0.0
O120 O 0.54028 0.94252 1.14166 0.0
H121 H 0.51802 0.91106 0.35078 0.0
H122 H 0.46068 0.84191 1.1383 0.0
C123 C 0.65286 0.94504 0.95815 0.0
C124 C 0.69619 0.95782 0.97454 0.0
C125 C 0.67428 0.89556 1.05006 0.0
C126 C 0.6317 0.88442 1.0382 0.0
N127 N 0.62125 0.90868 0.99078 0.0
N128 N 0.70572 0.93274 1.02009 0.0
H129 H 0.64448 0.96588 0.92633 0.0
C130 C 0.63114 0.94213 0.2279 0.0
O131 O 0.63366 0.95309 0.15258 0.0
O132 O 0.52297 0.87332 0.88764 0.0
H133 H 0.60749 0.85621 1.06715 0.0
H134 H 0.44843 0.9042 0.38995 0.0
H135 H 0.6823 0.87589 1.08655 0.0
Zn136 Zn 0.69854 0.5945 1.07529 0.0
C137 C 0.77166 0.57802 0.24083 0.0
N138 N 0.79046 0.57235 0.17307 0.0
C139 C 0.76795 0.575 1.10725 0.0
N140 N 0.73587 0.58064 1.13617 0.0
N141 N 0.73816 0.58298 0.21591 0.0
C142 C 0.69591 0.66316 0.26747 0.0
O143 O 0.68774 0.64725 0.19503 0.0
O144 O 0.68609 0.55977 0.97433 0.0
Zn145 Zn 0.69416 0.58699 0.28167 0.0
N146 N 0.73366 0.65668 1.06739 0.0
C147 C 0.79334 0.72235 1.11633 0.0
C148 C 0.76917 0.67777 1.11603 0.0
C149 C 0.72083 0.67894 1.02149 0.0
N150 N 0.78068 0.74456 1.06964 0.0
C151 C 0.74473 0.7238 1.02331 0.0
O152 O 0.63094 0.5622 0.23979 0.0
C153 C 0.61235 0.56218 0.17431 0.0
O154 O 0.63441 0.57483 1.11053 0.0
H155 H 0.77903 0.6605 0.15475 0.0
H156 H 0.69204 0.66189 0.98485 0.0
C157 C 0.68285 0.51498 0.34434 0.0
C158 C 0.68214 0.48593 0.39897 0.0
C159 C 0.69029 0.5336 0.50472 0.0
C160 C 0.69055 0.5625 0.44926 0.0
N161 N 0.68777 0.55257 0.37029 0.0
N162 N 0.68596 0.4959 0.47847 0.0
H163 H 0.68013 0.50829 0.28074 0.0
C164 C 0.6661 0.52068 0.99579 0.0
O165 O 0.66098 0.51224 1.07253 0.0
O166 O 0.70928 0.64643 0.31848 0.0
H167 H 0.69489 0.59307 0.46842 0.0
H168 H 0.82177 0.73917 0.15384 0.0
H169 H 0.69376 0.54124 0.56777 0.0
Zn170 Zn 0.10236 0.60788 0.15332 0.0
C171 C 0.15774 0.7011 0.99906 0.0
N172 N 0.18406 0.72374 1.0645 0.0
C173 C 0.16308 0.70088 1.13243 0.0
N174 N 0.1261 0.66519 1.10755 0.0
N175 N 0.12169 0.66623 1.02862 0.0
C176 C 0.0827 0.60537 0.8174 0.0
O177 O 0.08563 0.61534 0.74147 0.0
O178 O 0.08848 0.61023 0.27122 0.0
Zn179 Zn 0.06255 0.62892 0.98577 0.0
N180 N 0.14254 0.59208 1.1063 0.0
C181 C 0.19258 0.60996 1.00033 0.0
C182 C 0.15478 0.60555 1.03002 0.0
C183 C 0.16258 0.57509 0.14734 0.0
N184 N 0.21402 0.59499 1.04324 0.0
C185 C 0.19857 0.57573 1.11405 0.0
O186 O 0.0142 0.56623 1.02497 0.0
C187 C 0.01076 0.54342 1.0857 0.0
O188 O 0.04257 0.55699 1.13311 0.0
H189 H 0.13594 0.61335 0.9918 0.0
H190 H 0.15166 0.56263 0.20641 0.0
C191 C 0.00486 0.64502 1.07218 0.0
C192 C -0.00337 0.6682 1.13062 0.0
C193 C 0.05877 0.73163 1.09101 0.0
C194 C 0.06748 0.70823 1.03574 0.0
N195 N 0.04045 0.66514 1.02681 0.0
N196 N 0.02374 0.71119 1.13716 0.0
H197 H 0.98385 0.611 1.06417 0.0
C198 C 0.06658 0.6289 0.27662 0.0
O199 O 0.06453 0.64972 0.21434 0.0
O200 O 0.06778 0.62265 0.86462 0.0
H201 H 0.09756 0.72436 1.00583 0.0
H202 H 0.20435 0.62444 0.94289 0.0
H203 H 0.08046 0.76569 1.09883 0.0
Zn204 Zn 0.86152 0.52313 0.59623 0.0
C205 C 0.80899 0.57203 0.7413 0.0
N206 N 0.79406 0.58127 0.67125 0.0
C207 C 0.81378 0.57308 0.6078 0.0
N208 N 0.84062 0.56006 0.64053 0.0
N209 N 0.83764 0.55982 0.72037 0.0
C210 C 0.83392 0.45746 0.81486 0.0
O211 O 0.85886 0.46738 0.75364 0.0
O212 O 0.89271 0.54234 0.49011 0.0
Zn213 Zn 0.87013 0.54582 0.80055 0.0
N214 N 0.81087 0.46548 0.61033 0.0
C215 C 0.74302 0.42893 0.6739 0.0
C216 C 0.77501 0.46483 0.63669 0.0
C217 C 0.81377 0.4295 0.61398 0.0
N218 N 0.74679 0.39381 0.68046 0.0
C219 C 0.78097 0.39245 0.65134 0.0
O220 O 0.92694 0.5456 0.77275 0.0
C221 C 0.93741 0.53302 0.71004 0.0
O222 O 0.91377 0.52321 0.64767 0.0
H223 H 0.7711 0.49216 0.63171 0.0
H224 H 0.84228 0.43093 0.59156 0.0
C225 C 0.87555 0.58244 0.95709 0.0
C226 C 0.8827 0.61673 1.00765 0.0
C227 C 0.91205 0.66424 0.8978 0.0
C228 C 0.90505 0.63026 0.84871 0.0
N229 N 0.88642 0.59015 0.87896 0.0
N230 N 0.90078 0.65669 0.97545 0.0
H231 H 0.86051 0.5499 0.97803 0.0
C232 C 0.92555 0.57985 0.49307 0.0
O233 O 0.93121 0.60459 0.5552 0.0
O234 O 0.83113 0.48719 0.84973 0.0
H235 H 0.91277 0.63533 0.78599 0.0
H236 H 0.71515 0.42879 0.69688 0.0
H237 H 0.92611 0.69633 0.87456 0.0
Zn238 Zn 0.29623 0.80924 0.47258 0.0
C239 C 0.20327 0.7365 0.63325 0.0
N240 N 0.17911 0.71614 0.5646 0.0
C241 C 0.20465 0.73843 0.50011 0.0
N242 N 0.24284 0.77082 0.5299 0.0
N243 N 0.24174 0.76967 0.60937 0.0
C244 C 0.32357 0.79186 0.75211 0.0
O245 O 0.32064 0.77565 0.68025 0.0
O246 O 0.29783 0.86133 0.41758 0.0
Zn247 Zn 0.28023 0.82044 0.67043 0.0
N248 N 0.29476 0.77117 0.39084 0.0
C249 C 0.2875 0.70482 0.35065 0.0
C250 C 0.29344 0.7342 0.41067 0.0
C251 C 0.28998 0.77982 0.31411 0.0
N252 N 0.28447 0.71418 0.2731 0.0
C253 C 0.28582 0.75127 0.25209 0.0
O254 O 0.3422 0.86436 0.63592 0.0
C255 C 0.3698 0.86351 0.59053 0.0
O256 O 0.35683 0.83672 0.53195 0.0
H257 H 0.29584 0.7272 0.47272 0.0
H258 H 0.29069 0.80949 0.30251 0.0
C259 C 0.25232 0.87168 0.75229 0.0
C260 C 0.2296 0.89349 0.75798 0.0
C261 C 0.19943 0.86815 0.62904 0.0
C262 C 0.22244 0.84695 0.62302 0.0
N263 N 0.24856 0.84932 0.68458 0.0
N264 N 0.20402 0.89152 0.69588 0.0
H265 H 0.27409 0.87384 0.79954 0.0
C266 C 0.30939 0.89752 0.45096 0.0
O267 O 0.31389 0.90091 0.52902 0.0
O268 O 0.29744 0.80425 0.77013 0.0
H269 H 0.21994 0.82927 0.56909 0.0
H270 H 0.28607 0.67519 0.36567 0.0
H271 H 0.17882 0.86682 0.58034 0.0
Zn272 Zn 0.46051 0.34174 0.73394 0.0
C273 C 0.43525 0.25251 0.55834 0.0
N274 N 0.42437 0.22522 0.62381 0.0
C275 C 0.43471 0.25114 0.69205 0.0
N276 N 0.45023 0.29233 0.66751 0.0
N277 N 0.451 0.29337 0.58808 0.0
C278 C 0.42077 0.35394 0.48003 0.0
O279 O 0.41197 0.34091 0.55411 0.0
O280 O 0.51429 0.36494 0.8012 0.0
Zn281 Zn 0.48682 0.34868 0.53685 0.0
N282 N 0.41203 0.31483 0.80059 0.0
C283 C 0.3382 0.26271 0.80559 0.0
C284 C 0.37396 0.29011 0.76195 0.0
C285 C 0.41599 0.31406 0.88119 0.0
N286 N 0.34179 0.26253 0.88624 0.0
C287 C 0.37964 0.2876 0.92614 0.0
O288 O 0.50554 0.41011 0.5853 0.0
C289 C 0.48919 0.42397 0.63622 0.0
O290 O 0.46409 0.39802 0.68856 0.0
H291 H 0.372 0.29034 0.6974 0.0
H292 H 0.44722 0.33337 0.90897 0.0
C293 C 0.55801 0.35054 0.4503 0.0
C294 C 0.59016 0.33946 0.44379 0.0
C295 C 0.57803 0.31569 0.5781 0.0
C296 C 0.54706 0.32723 0.58418 0.0
N297 N 0.53727 0.34409 0.52024 0.0
N298 N 0.59896 0.32238 0.50863 0.0
H299 H 0.5494 0.36434 0.40142 0.0
C300 C 0.5509 0.39069 0.77299 0.0
O301 O 0.55422 0.39781 0.69596 0.0
O302 O 0.45199 0.3534 0.44653 0.0
H303 H 0.53021 0.32173 0.63947 0.0
H304 H 0.30775 0.2421 0.77593 0.0
H305 H 0.58569 0.30183 0.62827 0.0
Zn306 Zn 0.12984 0.47013 0.58119 0.0
C307 C 0.21319 0.46698 0.74737 0.0
N308 N 0.2369 0.46879 0.6811 0.0
C309 C 0.2124 0.46613 0.61389 0.0
N310 N 0.1754 0.46391 0.63982 0.0
N311 N 0.17593 0.46405 0.71954 0.0
C312 C 0.15447 0.49947 0.91609 0.0
O313 O 0.17513 0.51114 0.98455 0.0
O314 O 0.08845 0.42227 0.50145 0.0
Zn315 Zn 0.12286 0.44461 0.77683 0.0
N316 N 0.16415 0.52004 0.52599 0.0
C317 C 0.21144 0.59468 0.51946 0.0
C318 C 0.18213 0.5592 0.56174 0.0
C319 C 0.17373 0.51418 0.45159 0.0
N320 N 0.22116 0.58881 0.44416 0.0
C321 C 0.20319 0.5493 0.40839 0.0
O322 O 0.07878 0.46526 0.75646 0.0
C323 C 0.07034 0.48246 0.69808 0.0
O324 O 0.08977 0.48765 0.63296 0.0
H325 H 0.1744 0.56245 0.62267 0.0
H326 H 0.15898 0.48191 0.43026 0.0
C327 C 0.07017 0.35617 0.81671 0.0
C328 C 0.04897 0.31189 0.80139 0.0
C329 C 0.07747 0.32455 0.67157 0.0
C330 C 0.09786 0.36846 0.68639 0.0
N331 N 0.09395 0.38349 0.75876 0.0
N332 N 0.05289 0.2972 0.72895 0.0
H333 H 0.06635 0.369 0.87255 0.0
C334 C 0.0497 0.39552 0.51971 0.0
O335 O 0.03806 0.39424 0.59414 0.0
O336 O 0.14456 0.46294 0.88741 0.0
H337 H 0.11576 0.39003 0.63944 0.0
H338 H 0.2266 0.62644 0.54594 0.0
H339 H 0.08016 0.31235 0.61412 0.0
Zn340 Zn 0.60835 0.08589 0.74687 0.0
C341 C 0.70184 0.15161 0.58471 0.0
N342 N 0.72506 0.17627 0.65108 0.0
C343 C 0.70016 0.1564 0.71761 0.0
N344 N 0.66311 0.12095 0.6909 0.0
N345 N 0.66532 0.11675 0.61213 0.0
C346 C 0.68319 0.04181 0.48908 0.0
O347 O 0.68857 0.03452 0.56398 0.0
O348 O 0.57962 0.12021 0.74746 0.0
Zn349 Zn 0.62376 0.06358 0.55302 0.0
N350 N 0.62206 0.08022 0.85424 0.0
C351 C 0.62494 0.08997 0.99463 0.0
C352 C 0.60563 0.08773 0.92068 0.0
C353 C 0.65529 0.07334 0.85804 0.0
N354 N 0.6601 0.08558 0.99784 0.0
C355 C 0.67672 0.07811 0.93095 0.0
O356 O 0.58237 0.00384 0.6024 0.0
C357 C 0.55341 -0.00303 0.6527 0.0
O358 O 0.56099 0.02583 0.70488 0.0
H359 H 0.5792 0.09359 0.9158 0.0
H360 H 0.66465 0.06567 0.80276 0.0
C361 C 0.58 0.10627 0.52761 0.0
C362 C 0.54575 0.11076 0.50345 0.0
C363 C 0.51567 0.04465 0.43271 0.0
C364 C 0.55058 0.04065 0.45626 0.0
N365 N 0.58207 0.07196 0.50253 0.0
N366 N 0.51416 0.07983 0.45638 0.0
H367 H 0.60442 0.12937 0.56792 0.0
C368 C 0.54477 0.10701 0.70846 0.0
O369 O 0.5286 0.07141 0.66653 0.0
O370 O 0.65713 0.05446 0.47174 0.0
H371 H 0.55199 0.01239 0.44021 0.0
H372 H 0.61312 0.09663 1.04859 0.0
H373 H 0.49007 0.02013 0.39612 0.0
Zn374 Zn 0.51329 0.66475 0.49992 0.0
C375 C 0.51815 0.75608 0.65208 0.0
N376 N 0.51593 0.77667 0.58369 0.0
C377 C 0.51698 0.75283 0.51875 0.0
N378 N 0.52062 0.71924 0.54858 0.0
N379 N 0.52148 0.72184 0.62811 0.0
C380 C 0.47035 0.6544 0.77368 0.0
O381 O 0.46126 0.64535 0.69755 0.0
O382 O 0.54373 0.67716 0.3945 0.0
Zn383 Zn 0.5405 0.69105 0.69569 0.0
N384 N 0.4521 0.62535 0.50902 0.0
C385 C 0.39896 0.55819 0.55974 0.0
C386 C 0.43693 0.5828 0.5186 0.0
C387 C 0.4297 0.64358 0.53585 0.0
N388 N 0.37733 0.57691 0.58856 0.0
C389 C 0.39152 0.61939 0.57826 0.0
O390 O 0.52693 0.62782 0.67471 0.0
C391 C 0.5286 0.60704 0.61465 0.0
O392 O 0.53437 0.62413 0.54605 0.0
H393 H 0.45558 0.56868 0.49975 0.0
H394 H 0.44242 0.67711 0.52618 0.0
C395 C 0.62238 0.73489 0.77544 0.0
C396 C 0.66554 0.76729 0.78246 0.0
C397 C 0.663 0.78884 0.65014 0.0
C398 C 0.62023 0.75682 0.64364 0.0
N399 N 0.60075 0.73058 0.70636 0.0
N400 N 0.68484 0.79317 0.71919 0.0
H401 H 0.60613 0.71267 0.82321 0.0
C402 C 0.58009 0.71135 0.3925 0.0
O403 O 0.58936 0.74167 0.44548 0.0
O404 O 0.50874 0.68114 0.79476 0.0
H405 H 0.60249 0.75355 0.58961 0.0
H406 H 0.38716 0.52465 0.57013 0.0
H407 H 0.67878 0.80994 0.60068 0.0
C408 C 0.36864 0.01602 0.3944 0.0
C409 C 0.36651 0.01471 0.3103 0.0
C410 C 0.34836 0.97814 0.4394 0.0
C411 C 0.3251 0.93726 0.40233 0.0
H412 H 0.38754 0.04634 0.42576 0.0
H413 H 0.35248 0.981 0.50381 0.0
S414 S 0.30549 0.91653 0.18419 0.0
N415 N 0.33568 0.96907 0.19213 0.0
N416 N 0.29832 0.89849 0.27639 0.0
C417 C 0.32092 0.93576 0.31853 0.0
C418 C 0.34137 0.97423 0.27275 0.0
C419 C 0.38408 0.4062 0.32768 0.0
C420 C 0.36948 0.42832 0.37556 0.0
C421 C 0.39999 0.38162 0.3616 0.0
C422 C 0.4013 0.37764 0.44471 0.0
H423 H 0.38437 0.40875 0.26319 0.0
H424 H 0.41156 0.36586 0.32247 0.0
S425 S 0.36671 0.42894 0.5966 0.0
N426 N 0.35714 0.44446 0.50996 0.0
N427 N 0.38673 0.3981 0.57467 0.0
C428 C 0.38625 0.39914 0.49344 0.0
C429 C 0.37051 0.42459 0.45865 0.0
C430 C 0.97767 0.33319 0.47802 0.0
C431 C 0.01597 0.37058 0.45716 0.0
C432 C 0.94281 0.31226 0.42364 0.0
C433 C 0.94465 0.32766 0.34571 0.0
H434 H 0.97415 0.32053 0.53779 0.0
H435 H 0.91385 0.28435 0.44356 0.0
S436 S 0.03593 0.42638 0.26323 0.0
N437 N 0.0525 0.42315 0.35395 0.0
N438 N -0.01213 0.38385 0.25188 0.0
C439 C 0.98304 0.3647 0.32379 0.0
C440 C 0.0184 0.38609 0.37927 0.0
C441 C 0.66575 0.95225 0.3608 0.0
C442 C 0.6649 0.96952 0.28599 0.0
C443 C 0.68048 0.97843 0.42924 0.0
C444 C 0.6941 0.02218 0.42387 0.0
H445 H 0.64988 0.91784 0.36814 0.0
H446 H 0.67484 0.96323 0.48704 0.0
S447 S 0.71105 0.08443 0.23986 0.0
N448 N 0.68891 0.03424 0.20855 0.0
N449 N 0.71682 0.08328 0.33764 0.0
C450 C 0.70116 0.04072 0.34817 0.0
C451 C 0.68625 0.01423 0.27855 0.0
C452 C 0.63952 0.68235 0.24633 0.0
C453 C 0.6737 0.68577 0.29393 0.0
C454 C 0.61041 0.69315 0.27691 0.0
C455 C 0.61536 0.7092 0.35494 0.0
H456 H 0.63302 0.66811 0.187 0.0
H457 H 0.5828 0.68704 0.24069 0.0
S458 S 0.70239 0.72989 0.50016 0.0
N459 N 0.71284 0.70997 0.42032 0.0
N460 N 0.65894 0.73185 0.47705 0.0
C461 C 0.65136 0.71633 0.40079 0.0
C462 C 0.68043 0.70431 0.37036 0.0
C463 C 0.97815 0.56554 0.42404 0.0
C464 C 0.9614 0.59265 0.43755 0.0
C465 C 0.01482 0.57886 0.37752 0.0
C466 C 0.03514 0.6192 0.34089 0.0
H467 H 0.96325 0.53411 0.45075 0.0
H468 H 0.0264 0.5569 0.36791 0.0
S469 S 0.00571 0.70323 0.36349 0.0
N470 N 0.96978 0.66272 0.41608 0.0
N471 N 0.03737 0.68717 0.32626 0.0
C472 C 0.01935 0.64698 0.35627 0.0
C473 C 0.98276 0.6338 0.40497 0.0
C474 C 0.72343 0.0623 1.016 0.0
C475 C 0.71276 0.06943 0.93874 0.0
C476 C 0.7322 0.02929 1.0285 0.0
C477 C 0.72861 0.00274 0.96389 0.0
H478 H 0.71814 0.07701 1.0675 0.0
H479 H 0.73185 0.01881 1.08922 0.0
S480 S 0.73979 0.03309 0.75172 0.0
N481 N 0.72976 0.06753 0.79761 0.0
N482 N 0.74024 0.00136 0.82205 0.0
C483 C 0.73333 0.01936 0.88728 0.0
C484 C 0.72631 0.05405 0.87422 0.0
C485 C 0.75097 0.76142 0.89845 0.0
C486 C 0.73169 0.74777 0.97277 0.0
C487 C 0.73111 0.77227 0.83862 0.0
C488 C 0.69146 0.7693 0.85205 0.0
H489 H 0.77941 0.76009 0.88433 0.0
H490 H 0.74485 0.77902 0.77958 0.0
S491 S 0.63439 0.7456 1.04428 0.0
N492 N 0.67562 0.7389 1.06226 0.0
N493 N 0.63849 0.7606 0.95008 0.0
C494 C 0.67482 0.76085 0.92956 0.0
C495 C 0.69492 0.74953 0.99011 0.0
C496 C 0.93377 0.67141 0.17217 0.0
C497 C 0.95556 0.6483 0.17375 0.0
C498 C 0.89275 0.65214 1.13659 0.0
C499 C 0.87773 0.61264 1.09623 0.0
H500 H 0.95094 0.70581 0.18144 0.0
H501 H 0.88017 0.67269 1.12033 0.0
S502 S 0.90027 0.53009 0.17164 0.0
N503 N 0.94264 0.57635 0.19872 0.0
N504 N 0.86664 0.54175 1.12609 0.0
C505 C 0.88911 0.58505 1.13361 0.0
C506 C 0.92958 0.60351 0.173 0.0
C507 C 0.27095 -0.00304 0.87062 0.0
C508 C 0.26987 0.98445 0.95041 0.0
C509 C 0.25488 0.9666 0.80873 0.0
C510 C 0.23798 0.92301 0.82485 0.0
H511 H 0.28595 0.03058 0.85572 0.0
H512 H 0.25815 0.97754 0.74761 0.0
S513 S 0.22251 0.87337 1.02387 0.0
N514 N 0.24596 0.92535 1.04301 0.0
N515 N 0.21682 0.86808 0.92562 0.0
C516 C 0.23415 0.90976 0.90447 0.0
C517 C 0.24975 0.94064 0.96773 0.0
C518 C 0.40516 0.33324 1.04934 0.0
C519 C 0.37874 0.29256 1.01403 0.0
C520 C 0.3884 0.34906 1.10589 0.0
C521 C 0.34488 0.32485 1.12591 0.0
H522 H 0.43607 0.35561 1.02533 0.0
H523 H 0.40776 0.38228 1.12449 0.0
S524 S 0.27532 0.2078 1.09208 0.0
N525 N 0.31728 0.22176 1.03541 0.0
N526 N 0.28449 0.2521 1.13859 0.0
C527 C 0.3237 0.28052 1.11009 0.0
C528 C 0.34132 0.26412 1.05441 0.0
C529 C 0.97469 0.25654 0.82813 0.0
C530 C 0.01688 0.28239 0.85677 0.0
C531 C 0.94091 0.23728 0.88124 0.0
C532 C 0.94879 0.24274 0.96395 0.0
H533 H 0.96738 0.25424 0.76464 0.0
H534 H 0.90841 0.22031 0.85765 0.0
S535 S 0.0541 0.30144 1.06819 0.0
N536 N 0.06522 0.30814 0.9721 0.0
N537 N 0.00151 0.2711 1.07245 0.0
C538 C -0.00895 0.26483 0.99322 0.0
C539 C 0.02533 0.28499 0.93925 0.0
C540 C 0.50667 0.00161 1.01678 0.0
C541 C 0.53283 -0.00178 1.07676 0.0
C542 C 0.49156 0.0313 1.02288 0.0
C543 C 0.50192 0.06 1.08896 0.0
H544 H 0.49623 0.97987 0.96586 0.0
H545 H 0.47054 0.03092 0.97581 0.0
S546 S 0.57488 0.06904 0.2568 0.0
N547 N 0.57133 0.02952 0.20125 0.0
N548 N 0.54444 0.08491 0.21191 0.0
C549 C 0.5298 0.05817 0.14726 0.0
C550 C 0.54464 0.02763 1.14148 0.0
C551 C 0.49347 0.52186 1.10944 0.0
C552 C 0.47557 0.53134 0.17598 0.0
C553 C 0.53715 0.53211 1.10844 0.0
C554 C 0.5654 0.55129 0.17487 0.0
H555 H 0.4736 0.50656 1.05693 0.0
H556 H 0.54868 0.52424 1.05532 0.0
S557 S 0.53592 0.58379 0.36382 0.0
N558 N 0.49135 0.56261 0.30956 0.0
N559 N 0.57145 0.5801 0.30881 0.0
C560 C 0.54786 0.56082 0.24166 0.0
C561 C 0.50384 0.55139 0.24193 0.0
C562 C 0.9412 0.47429 1.03984 0.0
C563 C 0.97093 0.49937 1.10113 0.0
C564 C 0.90786 0.43118 1.05241 0.0
C565 C 0.9006 0.41132 1.12816 0.0
H566 H 0.94491 0.48734 0.98041 0.0
H567 H 0.88767 0.41308 1.00186 0.0
S568 S 0.96356 0.46473 0.3128 0.0
N569 N -0.01276 0.50115 0.24309 0.0
N570 N 0.92371 0.42269 0.26716 0.0
C571 C 0.92789 0.43713 0.19109 0.0
C572 C 0.9629 0.4802 0.17764 0.0
C573 C 0.00728 0.54126 0.65916 0.0
C574 C 0.97274 0.52215 0.71229 0.0
C575 C 0.03862 0.52868 0.65567 0.0
C576 C 0.03661 0.49562 0.70384 0.0
H577 H 0.01027 0.56637 0.61997 0.0
H578 H 0.06483 0.54523 0.61477 0.0
S579 S 0.94607 0.42713 0.83604 0.0
N580 N 0.93537 0.46415 0.80549 0.0
N581 N -0.00809 0.43882 0.79487 0.0
C582 C 0.00059 0.47437 0.75312 0.0
C583 C 0.9694 0.48799 0.75832 0.0
C584 C 0.42959 0.93115 0.65814 0.0
C585 C 0.41733 0.89525 0.6074 0.0
C586 C 0.47302 0.96209 0.67467 0.0
C587 C 0.50745 0.9596 0.64126 0.0
H588 H 0.40527 0.93603 0.68485 0.0
H589 H 0.47947 0.98901 0.71281 0.0
S590 S 0.49405 0.86847 0.51578 0.0
N591 N 0.44434 0.85667 0.53186 0.0
N592 N 0.5254 0.91497 0.56106 0.0
C593 C 0.49583 0.92299 0.59295 0.0
C594 C 0.45129 0.89104 0.5766 0.0
C595 C 0.53558 0.54257 0.56824 0.0
C596 C 0.51987 0.56092 0.62338 0.0
C597 C 0.52586 0.49917 0.57313 0.0
C598 C 0.49947 0.4709 0.63326 0.0
H599 H 0.55613 0.5621 0.52089 0.0
H600 H 0.53923 0.48767 0.52862 0.0
S601 S 0.44856 0.50176 0.79207 0.0
N602 N 0.47553 0.54604 0.74012 0.0
N603 N 0.45741 0.46579 0.74924 0.0
C604 C 0.48348 0.48889 0.68883 0.0
C605 C 0.49361 0.53318 0.68404 0.0
C606 C 0.58026 0.22649 0.50027 0.0
C607 C 0.53944 0.22128 0.48742 0.0
C608 C 0.58326 0.19001 0.51347 0.0
C609 C 0.54565 0.15006 0.52298 0.0
H610 H 0.60854 0.25462 0.47866 0.0
H611 H 0.61397 0.19233 0.50512 0.0
S612 S 0.43799 0.13311 0.56092 0.0
N613 N 0.46745 0.18436 0.53872 0.0
N614 N 0.47023 0.11339 0.5555 0.0
C615 C 0.50747 0.14943 0.53795 0.0
C616 C 0.506 0.18757 0.52865 0.0
C617 C 0.30954 0.60618 0.49353 0.0
C618 C 0.33728 0.64074 0.4447 0.0
C619 C 0.32032 0.60669 0.57458 0.0
C620 C 0.36262 0.63691 0.59681 0.0
H621 H 0.28548 0.57624 0.46686 0.0
H622 H 0.30296 0.57722 0.60761 0.0
S623 S 0.41615 0.74781 0.52441 0.0
N624 N 0.38646 0.71802 0.44782 0.0
N625 N 0.4059 0.71497 0.60047 0.0
C626 C 0.37561 0.67775 0.56572 0.0
C627 C 0.36526 0.67945 0.484 0.0
C628 C 0.80825 0.31258 0.57827 0.0
C629 C 0.76616 0.28128 0.55552 0.0
C630 C 0.81488 0.3481 0.62315 0.0
C631 C 0.77952 0.35071 0.6496 0.0
H632 H 0.83574 0.31464 0.54934 0.0
H633 H 0.84713 0.37512 0.62839 0.0
S634 S 0.66869 0.25841 0.66358 0.0
N635 N 0.69328 0.24187 0.60323 0.0
N636 N 0.70514 0.30757 0.69166 0.0
C637 C 0.73993 0.31205 0.653 0.0
C638 C 0.73353 0.27645 0.60614 0.0
C639 C 0.3051 0.80866 0.15542 0.0
C640 C 0.29408 0.76574 0.16695 0.0
C641 C 0.34864 0.83989 0.16438 0.0
C642 C 0.37964 0.82725 0.16357 0.0
H643 H 0.28155 0.81812 0.16596 0.0
H644 H 0.3575 0.87236 0.18072 0.0
S645 S 0.35838 0.72134 1.08909 0.0
N646 N 0.31059 0.71464 1.10703 0.0
N647 N 0.3934 0.77184 1.11198 0.0
C648 C 0.36648 0.78588 1.13312 0.0
C649 C 0.32197 0.75512 1.12987 0.0
C650 C 0.61273 0.37595 0.31514 0.0
C651 C 0.62073 0.35453 0.37665 0.0
C652 C 0.63595 0.42075 0.31654 0.0
C653 C 0.67034 0.44264 0.37184 0.0
H654 H 0.5825 0.35995 0.28241 0.0
H655 H 0.62333 0.43744 0.28246 0.0
S656 S 0.72364 0.39312 0.48084 0.0
N657 N 0.67962 0.35234 0.44243 0.0
N658 N 0.72296 0.43681 0.45464 0.0
C659 C 0.68664 0.41915 0.40937 0.0
C660 C 0.66326 0.37385 0.40332 0.0
C661 C 0.25296 0.58793 0.20958 0.0
C662 C 0.22037 0.55815 0.15946 0.0
C663 C 0.24924 0.582 0.29179 0.0
C664 C 0.21405 0.54575 0.32459 0.0
H665 H 0.27544 0.61954 0.18767 0.0
H666 H 0.27067 0.60857 0.32938 0.0
S667 S 0.13418 0.44977 0.2065 0.0
N668 N 0.16461 0.48481 1.13977 0.0
N669 N 0.15351 0.47359 0.29376 0.0
C670 C 0.18748 0.51146 0.27169 0.0
C671 C 0.19323 0.51726 0.18813 0.0
C672 C 0.39788 0.80412 0.76643 0.0
C673 C 0.36448 0.80915 0.79723 0.0
C674 C 0.43878 0.82465 0.80235 0.0
C675 C 0.44742 0.85038 0.87076 0.0
H676 H 0.39268 0.78466 0.71345 0.0
H677 H 0.46338 0.81966 0.77747 0.0
S678 S 0.3729 0.87781 0.97016 0.0
N679 N 0.34407 0.84413 0.89763 0.0
N680 N 0.42072 0.88307 0.96395 0.0
C681 C 0.41479 0.85677 0.90062 0.0
C682 C 0.37331 0.83584 0.86454 0.0
C683 C 0.57961 0.41482 0.91109 0.0
C684 C 0.58613 0.41973 0.82827 0.0
C685 C 0.60725 0.44682 0.96481 0.0
C686 C 0.64238 0.48518 0.93795 0.0
H687 H 0.55165 0.38709 0.9347 0.0
H688 H 0.59941 0.44227 1.02762 0.0
S689 S 0.6796 0.50951 0.72957 0.0
N690 N 0.63491 0.46262 0.72316 0.0
N691 N 0.68637 0.52334 0.82509 0.0
C692 C 0.6516 0.48895 0.85627 0.0
C693 C 0.62366 0.456 0.80122 0.0
C694 C 0.15723 0.55921 0.83334 0.0
C695 C 0.13528 0.52423 0.88447 0.0
C696 C 0.14014 0.58561 0.81332 0.0
C697 C 0.10073 0.5781 0.84407 0.0
H698 H 0.18818 0.56693 0.81069 0.0
H699 H 0.15827 0.61253 0.7744 0.0
S700 S 0.02869 0.48501 0.96746 0.0
N701 N 0.07147 0.48076 0.9585 0.0
N702 N 0.03784 0.52807 0.91727 0.0
C703 C 0.07781 0.54152 0.89129 0.0
C704 C 0.09554 0.51527 0.91235 0.0
C705 C 0.53836 0.16889 0.75132 0.0
C706 C 0.5185 0.12604 0.72538 0.0
C707 C 0.51529 0.18348 0.79393 0.0
C708 C 0.47233 0.15504 0.81261 0.0
H709 H 0.57262 0.18983 0.74583 0.0
H710 H 0.53269 0.21491 0.82204 0.0
S711 S 0.40245 0.04574 0.72921 0.0
N712 N 0.45122 0.05934 0.70132 0.0
N713 N 0.40749 0.08792 0.77765 0.0
C714 C 0.4503 0.11557 0.77157 0.0
C715 C 0.47382 0.10026 0.73002 0.0
C716 C 0.4059 0.58565 0.80735 0.0
C717 C 0.43927 0.62639 0.8321 0.0
C718 C 0.38061 0.55491 0.86303 0.0
C719 C 0.38767 0.56426 0.94497 0.0
H720 H 0.40077 0.57636 0.74484 0.0
H721 H 0.35651 0.52332 0.84183 0.0
S722 S 0.46777 0.66832 1.03933 0.0
N723 N 0.4757 0.67579 0.94255 0.0
N724 N 0.4279 0.61872 1.04815 0.0
C725 C 0.41906 0.60602 0.97019 0.0
C726 C 0.445 0.63697 0.9134 0.0
C727 C 0.81522 0.34638 0.8501 0.0
C728 C 0.78446 0.33055 0.91007 0.0
C729 C 0.82978 0.38696 0.81867 0.0
C730 C 0.81407 0.41336 0.84517 0.0
H731 H 0.83018 0.32853 0.83048 0.0
H732 H 0.85467 0.39811 0.77467 0.0
S733 S 0.72684 0.38356 0.98884 0.0
N734 N 0.73372 0.34177 0.98608 0.0
N735 N 0.76181 0.41857 0.92631 0.0
C736 C 0.78078 0.39669 0.90003 0.0
C737 C 0.7656 0.35503 0.93215 0.0
C738 C 0.45613 0.26116 0.31865 0.0
C739 C 0.43172 0.21928 0.28422 0.0
C740 C 0.45654 0.27077 0.40345 0.0
C741 C 0.43295 0.24013 0.46405 0.0
H742 H 0.47606 0.28738 0.27962 0.0
H743 H 0.47609 0.3035 0.42118 0.0
S744 S 0.35675 0.12582 0.4076 0.0
N745 N 0.37876 0.14696 0.32125 0.0
N746 N 0.37906 0.16497 0.47485 0.0
C747 C 0.40671 0.1983 0.42948 0.0
C748 C 0.40643 0.18821 0.34296 0.0
C749 C 0.26547 0.49231 0.48938 0.0
C750 C 0.22417 0.46502 0.5216 0.0
C751 C 0.27528 0.49354 0.40498 0.0
C752 C 0.24553 0.46833 0.34301 0.0
H753 H 0.29101 0.51366 0.52989 0.0
H754 H 0.30742 0.51444 0.38772 0.0
S755 S 0.13618 0.38004 0.39458 0.0
N756 N 0.15547 0.4041 0.48199 0.0
N757 N 0.174 0.40667 0.32873 0.0
C758 C 0.20519 0.43773 0.37558 0.0
C759 C 0.19488 0.43615 0.46184 0.0
C760 C 0.68127 0.15735 0.43181 0.0
C761 C 0.71268 0.16281 0.49129 0.0
C762 C 0.68966 0.16711 0.34727 0.0
C763 C 0.73078 0.18381 0.31245 0.0
H764 H 0.64927 0.14642 0.45061 0.0
H765 H 0.66326 0.16237 0.30893 0.0
S766 S 0.8254 0.20043 0.43452 0.0
N767 N 0.78767 0.18437 0.50221 0.0
N768 N 0.80303 0.20128 0.3483 0.0
C769 C 0.76242 0.18827 0.37042 0.0
C770 C 0.75378 0.17853 0.45684 0.0
C771 C 0.53154 0.81532 0.31157 0.0
C772 C 0.51694 0.78499 0.24656 0.0
C773 C 0.53107 0.80512 0.3957 0.0
C774 C 0.51478 0.76285 0.42527 0.0
H775 H 0.54392 0.84821 0.29802 0.0
H776 H 0.54447 0.83144 0.43839 0.0
S777 S 0.46544 0.66801 0.28616 0.0
N778 N 0.48248 0.70844 0.22384 0.0
N779 N 0.47739 0.68915 0.37709 0.0
C780 C 0.49755 0.73156 0.36154 0.0
C781 C 0.49956 0.74233 0.27527 0.0
C782 C 0.79355 0.60432 0.4787 0.0
C783 C 0.80366 0.57414 0.51295 0.0
C784 C 0.78479 0.60622 0.39363 0.0
C785 C 0.7853 0.57825 0.33308 0.0
H786 H 0.79206 0.62718 0.51849 0.0
H787 H 0.77683 0.63006 0.3753 0.0
S788 S 0.81052 0.49316 0.38248 0.0
N789 N 0.81152 0.51401 0.47122 0.0
N790 N 0.79941 0.52028 0.3171 0.0
C791 C 0.79654 0.5489 0.36548 0.0
C792 C 0.8043 0.54611 0.45221 0.0
C793 C 0.18628 0.75145 0.2645 0.0
C794 C 0.17734 0.71242 0.22519 0.0
C795 C 0.19443 0.75944 0.35054 0.0
C796 C 0.19317 0.72875 0.40642 0.0
H797 H 0.18663 0.77641 0.22846 0.0
H798 H 0.20162 0.79041 0.37361 0.0
S799 S 0.17637 0.62346 0.33834 0.0
N800 N 0.17393 0.64546 0.25383 0.0
N801 N 0.1839 0.65793 0.41037 0.0
C802 C 0.18464 0.6901 0.36782 0.0
C803 C 0.17824 0.68279 0.28024 0.0
C804 C 0.48152 0.75249 0.79355 0.0
C805 C 0.51876 0.7693 0.74447 0.0
C806 C 0.48249 0.76126 0.87937 0.0
C807 C 0.52087 0.7869 0.92598 0.0
H808 H 0.45063 0.73184 0.76528 0.0
H809 H 0.4522 0.74754 0.90961 0.0
S810 S 0.62846 0.83734 0.83114 0.0
N811 N 0.59571 0.81334 0.75432 0.0
N812 N 0.5978 0.82658 0.90981 0.0
C813 C 0.55812 0.80291 0.87732 0.0
C814 C 0.55705 0.79488 0.78996 0.0
C815 C 0.77966 0.5363 0.88473 0.0
C816 C 0.79484 0.57241 0.8325 0.0
C817 C 0.77163 0.53718 0.97008 0.0
C818 C 0.77808 0.57443 1.01304 0.0
H819 H 0.7734 0.50619 0.85906 0.0
H820 H 0.76004 0.50772 1.00287 0.0
S821 S 0.81773 0.67901 0.90887 0.0
N822 N 0.81484 0.64707 0.83525 0.0
N823 N 0.80194 0.64929 0.98982 0.0
C824 C 0.79254 0.61049 0.96087 0.0
C825 C 0.80023 0.60941 0.8739 0.0
C826 C 0.21582 0.72099 0.78514 0.0
C827 C 0.18972 0.72574 0.72551 0.0
C828 C 0.20617 0.71454 0.87012 0.0
C829 C 0.16859 0.71093 0.90504 0.0
H830 H 0.24428 0.7213 0.76566 0.0
H831 H 0.22847 0.71128 0.909 0.0
S832 S 0.08686 0.71917 0.77799 0.0
N833 N 0.12295 0.72527 0.71197 0.0
N834 N 0.1044 0.71238 0.86518 0.0
C835 C 0.14162 0.71465 0.84535 0.0
C836 C 0.15192 0.72186 0.75892 0.0
C837 C 0.46592 0.26289 0.84155 0.0
C838 C 0.43214 0.23799 0.78485 0.0
C839 C 0.46426 0.25439 0.92691 0.0
C840 C 0.42872 0.21948 0.96519 0.0
H841 H 0.49512 0.28939 0.81929 0.0
H842 H 0.49226 0.27517 0.96322 0.0
S843 S 0.33036 0.14235 0.84903 0.0
N844 N 0.3609 0.17537 0.77893 0.0
N845 N 0.35786 0.15952 0.93409 0.0
C846 C 0.39454 0.19414 0.90941 0.0
C847 C 0.39628 0.20293 0.8222 0.0
C848 C 0.25545 0.50409 0.88534 0.0
C849 C 0.22537 0.46662 0.84085 0.0
C850 C 0.26442 0.50477 0.97099 0.0
C851 C 0.24428 0.46823 1.02223 0.0
H852 H 0.27228 0.53403 0.85365 0.0
H853 H 0.28766 0.5352 0.99781 0.0
S854 S 0.16488 0.36029 0.93963 0.0
N855 N 0.17679 0.39073 0.85978 0.0
N856 N 0.1929 0.39214 1.01523 0.0
C857 C 0.21437 0.4305 0.97848 0.0
C858 C 0.20539 0.42971 0.891 0.0
C859 C 0.68582 0.17782 0.86391 0.0
C860 C 0.71218 0.17038 0.81048 0.0
C861 C 0.69407 0.18592 0.94993 0.0
C862 C 0.7291 0.18655 0.99232 0.0
H863 H 0.65765 0.17697 0.83904 0.0
H864 H 0.6721 0.19156 0.98388 0.0
S865 S 0.80949 0.16981 0.88496 0.0
N866 N 0.77687 0.16628 0.81153 0.0
N867 N 0.79075 0.17895 0.9676 0.0
C868 C 0.75604 0.17994 0.93921 0.0
C869 C 0.74813 0.17258 0.85153 0.0
loop_
_geom_bond_atom_site_label_1
_geom_bond_atom_site_label_2
_geom_bond_distance
_geom_bond_site_symmetry_2
_ccdc_geom_bond_type
Zn0 N4 2.020 . S
Zn0 O8 2.019 . S
Zn0 N10 2.119 . S
Zn0 O18 1.975 . S
C1 N2 1.334 . S
C1 N5 1.336 . S
N2 C1 1.334 . S
N2 C3 1.333 1_554 S
C3 N2 1.333 1_556 S
C3 N4 1.336 . S
N4 Zn0 2.020 . S
N4 C3 1.336 . S
N4 N5 1.354 1_556 S
N5 C1 1.336 . S
N5 N4 1.354 1_554 S
N5 Zn9 2.020 . S
C6 O7 1.244 . S
C6 O30 1.257 . S
O7 C6 1.244 . S
O8 Zn0 2.019 . S
O8 C28 1.257 . S
Zn9 N5 2.020 . S
Zn9 O16 1.975 . S
Zn9 N25 2.119 . S
Zn9 O30 2.019 . S
N10 Zn0 2.119 . S
N10 C12 1.334 . S
N10 C13 1.328 . S
C11 C12 1.391 . S
C11 N14 1.329 . S
C11 H32 0.930 1_545 S
C12 N10 1.334 . S
C12 C11 1.391 . S
C12 H19 0.930 . S
C13 N10 1.328 . S
C13 C15 1.392 . S
C13 H20 0.930 . S
N14 C11 1.329 . S
N14 C15 1.331 . S
C15 C13 1.392 . S
C15 N14 1.331 . S
O16 Zn9 1.975 . S
O16 C17 1.252 . S
C17 O16 1.252 . S
C17 O18 1.252 1_554 S
O18 Zn0 1.975 . S
O18 C17 1.252 1_556 S
H19 C12 0.930 . S
H20 C13 0.930 . S
C21 C22 1.392 . S
C21 N25 1.328 . S
C21 H27 0.930 . S
C22 C21 1.392 . S
C22 N26 1.331 . S
C23 C24 1.391 . S
C23 N26 1.329 . S
C23 H33 0.930 . S
C24 C23 1.391 . S
C24 N25 1.334 . S
C24 H31 0.930 . S
N25 Zn9 2.119 . S
N25 C21 1.328 . S
N25 C24 1.334 . S
N26 C22 1.331 . S
N26 C23 1.329 . S
H27 C21 0.930 . S
C28 O8 1.257 . S
C28 O29 1.244 . S
O29 C28 1.244 . S
O30 C6 1.257 . S
O30 Zn9 2.019 . S
H31 C24 0.930 . S
H32 C11 0.930 1_565 S
H33 C23 0.930 . S
Zn34 N38 2.020 . S
Zn34 O42 2.019 . S
Zn34 N44 2.119 . S
Zn34 O52 1.975 . S
C35 N36 1.334 . S
C35 N39 1.336 . S
N36 C35 1.334 . S
N36 C37 1.333 1_554 S
C37 N36 1.333 1_556 S
C37 N38 1.336 . S
N38 Zn34 2.020 . S
N38 C37 1.336 . S
N38 N39 1.354 1_556 S
N39 C35 1.336 . S
N39 N38 1.354 1_554 S
N39 Zn43 2.020 . S
C40 O41 1.244 . S
C40 O64 1.257 . S
O41 C40 1.244 . S
O42 Zn34 2.019 . S
O42 C62 1.257 . S
Zn43 N39 2.020 . S
Zn43 O50 1.975 . S
Zn43 N59 2.119 . S
Zn43 O64 2.019 . S
N44 Zn34 2.119 . S
N44 C46 1.334 . S
N44 C47 1.328 . S
C45 C46 1.391 . S
C45 N48 1.329 . S
C45 H66 0.930 . S
C46 N44 1.334 . S
C46 C45 1.391 . S
C46 H53 0.930 . S
C47 N44 1.328 . S
C47 C49 1.392 . S
C47 H54 0.930 . S
N48 C45 1.329 . S
N48 C49 1.331 . S
C49 C47 1.392 . S
C49 N48 1.331 . S
O50 Zn43 1.975 . S
O50 C51 1.252 . S
C51 O50 1.252 . S
C51 O52 1.252 1_554 S
O52 Zn34 1.975 . S
O52 C51 1.252 1_556 S
H53 C46 0.930 . S
H54 C47 0.930 . S
C55 C56 1.392 . S
C55 N59 1.328 . S
C55 H61 0.930 . S
C56 C55 1.392 . S
C56 N60 1.331 . S
C57 C58 1.391 . S
C57 N60 1.329 . S
C57 H67 0.930 . S
C58 C57 1.391 . S
C58 N59 1.334 . S
C58 H65 0.930 . S
N59 Zn43 2.119 . S
N59 C55 1.328 . S
N59 C58 1.334 . S
N60 C56 1.331 . S
N60 C57 1.329 . S
H61 C55 0.930 . S
C62 O42 1.257 . S
C62 O63 1.244 . S
O63 C62 1.244 . S
O64 C40 1.257 . S
O64 Zn43 2.019 . S
H65 C58 0.930 . S
H66 C45 0.930 . S
H67 C57 0.930 . S
Zn68 N72 2.020 . S
Zn68 O76 2.019 . S
Zn68 N78 2.119 . S
Zn68 O86 1.975 . S
C69 N70 1.334 . S
C69 N73 1.336 . S
N70 C69 1.334 . S
N70 C71 1.333 1_554 S
C71 N70 1.333 1_556 S
C71 N72 1.336 . S
N72 Zn68 2.020 . S
N72 C71 1.336 . S
N72 N73 1.354 1_556 S
N73 C69 1.336 . S
N73 N72 1.354 1_554 S
N73 Zn77 2.020 . S
C74 O75 1.244 . S
C74 O98 1.257 . S
O75 C74 1.244 . S
O76 Zn68 2.019 . S
O76 C96 1.257 . S
Zn77 N73 2.020 . S
Zn77 O84 1.975 . S
Zn77 N93 2.119 . S
Zn77 O98 2.019 . S
N78 Zn68 2.119 . S
N78 C80 1.334 . S
N78 C81 1.328 . S
C79 C80 1.391 . S
C79 N82 1.329 . S
C79 H100 0.930 1_655 S
C80 N78 1.334 . S
C80 C79 1.391 . S
C80 H87 0.930 . S
C81 N78 1.328 . S
C81 C83 1.392 . S
C81 H88 0.930 . S
N82 C79 1.329 . S
N82 C83 1.331 . S
C83 C81 1.392 . S
C83 N82 1.331 . S
O84 Zn77 1.975 . S
O84 C85 1.252 . S
C85 O84 1.252 . S
C85 O86 1.252 1_554 S
O86 Zn68 1.975 . S
O86 C85 1.252 1_556 S
H87 C80 0.930 . S
H88 C81 0.930 . S
C89 C90 1.392 . S
C89 N93 1.328 . S
C89 H95 0.930 . S
C90 C89 1.392 . S
C90 N94 1.331 . S
C91 C92 1.391 . S
C91 N94 1.329 . S
C91 H101 0.930 . S
C92 C91 1.391 . S
C92 N93 1.334 . S
C92 H99 0.930 . S
N93 Zn77 2.119 . S
N93 C89 1.328 . S
N93 C92 1.334 . S
N94 C90 1.331 . S
N94 C91 1.329 . S
H95 C89 0.930 . S
C96 O76 1.257 . S
C96 O97 1.244 . S
O97 C96 1.244 . S
O98 C74 1.257 . S
O98 Zn77 2.019 . S
H99 C92 0.930 . S
H100 C79 0.930 1_455 S
H101 C91 0.930 . S
Zn102 N106 2.020 . S
Zn102 O110 2.019 . S
Zn102 N112 2.119 . S
Zn102 O120 1.975 . S
C103 N104 1.333 1_556 S
C103 N107 1.336 . S
N104 C103 1.333 1_554 S
N104 C105 1.334 . S
C105 N104 1.334 . S
C105 N106 1.336 . S
N106 Zn102 2.020 . S
N106 C105 1.336 . S
N106 N107 1.354 1_554 S
N107 C103 1.336 . S
N107 N106 1.354 1_556 S
N107 Zn111 2.020 . S
C108 O109 1.244 . S
C108 O132 1.257 . S
O109 C108 1.244 . S
O110 Zn102 2.019 . S
O110 C130 1.257 . S
Zn111 N107 2.020 . S
Zn111 O118 1.975 . S
Zn111 N127 2.119 . S
Zn111 O132 2.019 . S
N112 Zn102 2.119 . S
N112 C114 1.334 . S
N112 C115 1.328 . S
C113 C114 1.391 . S
C113 N116 1.329 . S
C113 H134 0.930 . S
C114 N112 1.334 . S
C114 C113 1.391 . S
C114 H121 0.930 . S
C115 N112 1.328 . S
C115 C117 1.392 . S
C115 H122 0.930 . S
N116 C113 1.329 . S
N116 C117 1.331 . S
C117 C115 1.392 . S
C117 N116 1.331 . S
O118 Zn111 1.975 . S
O118 C119 1.252 1_556 S
C119 O118 1.252 1_554 S
C119 O120 1.252 . S
O120 Zn102 1.975 . S
O120 C119 1.252 . S
H121 C114 0.930 . S
H122 C115 0.930 . S
C123 C124 1.392 . S
C123 N127 1.328 . S
C123 H129 0.930 . S
C124 C123 1.392 . S
C124 N128 1.331 . S
C125 C126 1.391 . S
C125 N128 1.329 . S
C125 H135 0.930 1_565 S
C126 C125 1.391 . S
C126 N127 1.334 . S
C126 H133 0.930 . S
N127 Zn111 2.119 . S
N127 C123 1.328 . S
N127 C126 1.334 . S
N128 C124 1.331 . S
N128 C125 1.329 . S
H129 C123 0.930 . S
C130 O110 1.257 . S
C130 O131 1.244 . S
O131 C130 1.244 . S
O132 C108 1.257 . S
O132 Zn111 2.019 . S
H133 C126 0.930 . S
H134 C113 0.930 . S
H135 C125 0.930 1_545 S
Zn136 N140 2.020 . S
Zn136 O144 2.019 . S
Zn136 N146 2.119 . S
Zn136 O154 1.975 . S
C137 N138 1.334 . S
C137 N141 1.336 . S
N138 C137 1.334 . S
N138 C139 1.333 1_554 S
C139 N138 1.333 1_556 S
C139 N140 1.336 . S
N140 Zn136 2.020 . S
N140 C139 1.336 . S
N140 N141 1.354 1_556 S
N141 C137 1.336 . S
N141 N140 1.354 1_554 S
N141 Zn145 2.020 . S
C142 O143 1.244 . S
C142 O166 1.257 . S
O143 C142 1.244 . S
O144 Zn136 2.019 . S
O144 C164 1.257 . S
Zn145 N141 2.020 . S
Zn145 O152 1.975 . S
Zn145 N161 2.119 . S
Zn145 O166 2.019 . S
N146 Zn136 2.119 . S
N146 C148 1.334 . S
N146 C149 1.328 . S
C147 C148 1.391 . S
C147 N150 1.329 . S
C147 H168 0.930 . S
C148 N146 1.334 . S
C148 C147 1.391 . S
C148 H155 0.930 . S
C149 N146 1.328 . S
C149 C151 1.392 . S
C149 H156 0.930 . S
N150 C147 1.329 . S
N150 C151 1.331 . S
C151 C149 1.392 . S
C151 N150 1.331 . S
O152 Zn145 1.975 . S
O152 C153 1.252 . S
C153 O152 1.252 . S
C153 O154 1.252 1_554 S
O154 Zn136 1.975 . S
O154 C153 1.252 1_556 S
H155 C148 0.930 . S
H156 C149 0.930 . S
C157 C158 1.392 . S
C157 N161 1.328 . S
C157 H163 0.930 . S
C158 C157 1.392 . S
C158 N162 1.331 . S
C159 C160 1.391 . S
C159 N162 1.329 . S
C159 H169 0.930 . S
C160 C159 1.391 . S
C160 N161 1.334 . S
C160 H167 0.930 . S
N161 Zn145 2.119 . S
N161 C157 1.328 . S
N161 C160 1.334 . S
N162 C158 1.331 . S
N162 C159 1.329 . S
H163 C157 0.930 . S
C164 O144 1.257 . S
C164 O165 1.244 . S
O165 C164 1.244 . S
O166 C142 1.257 . S
O166 Zn145 2.019 . S
H167 C160 0.930 . S
H168 C147 0.930 . S
H169 C159 0.930 . S
Zn170 N174 2.020 . S
Zn170 O178 2.019 . S
Zn170 N180 2.119 . S
Zn170 O188 1.975 . S
C171 N172 1.333 1_556 S
C171 N175 1.336 . S
N172 C171 1.333 1_554 S
N172 C173 1.334 . S
C173 N172 1.334 . S
C173 N174 1.336 . S
N174 Zn170 2.020 . S
N174 C173 1.336 . S
N174 N175 1.354 1_554 S
N175 C171 1.336 . S
N175 N174 1.354 1_556 S
N175 Zn179 2.020 . S
C176 O177 1.244 . S
C176 O200 1.257 . S
O177 C176 1.244 . S
O178 Zn170 2.019 . S
O178 C198 1.257 . S
Zn179 N175 2.020 . S
Zn179 O186 1.975 . S
Zn179 N195 2.119 . S
Zn179 O200 2.019 . S
N180 Zn170 2.119 . S
N180 C182 1.334 . S
N180 C183 1.328 . S
C181 C182 1.391 . S
C181 N184 1.329 . S
C181 H202 0.930 . S
C182 N180 1.334 . S
C182 C181 1.391 . S
C182 H189 0.930 . S
C183 N180 1.328 . S
C183 C185 1.392 . S
C183 H190 0.930 . S
N184 C181 1.329 . S
N184 C185 1.331 . S
C185 C183 1.392 . S
C185 N184 1.331 . S
O186 Zn179 1.975 . S
O186 C187 1.252 1_556 S
C187 O186 1.252 1_554 S
C187 O188 1.252 . S
O188 Zn170 1.975 . S
O188 C187 1.252 . S
H189 C182 0.930 . S
H190 C183 0.930 . S
C191 C192 1.392 . S
C191 N195 1.328 . S
C191 H197 0.930 . S
C192 C191 1.392 . S
C192 N196 1.331 . S
C193 C194 1.391 . S
C193 N196 1.329 . S
C193 H203 0.930 1_455 S
C194 C193 1.391 . S
C194 N195 1.334 . S
C194 H201 0.930 . S
N195 Zn179 2.119 . S
N195 C191 1.328 . S
N195 C194 1.334 . S
N196 C192 1.331 . S
N196 C193 1.329 . S
H197 C191 0.930 . S
C198 O178 1.257 . S
C198 O199 1.244 . S
O199 C198 1.244 . S
O200 C176 1.257 . S
O200 Zn179 2.019 . S
H201 C194 0.930 . S
H202 C181 0.930 . S
H203 C193 0.930 1_655 S
Zn204 N208 2.020 . S
Zn204 O212 2.019 . S
Zn204 N214 2.119 . S
Zn204 O222 1.975 . S
C205 N206 1.334 . S
C205 N209 1.336 . S
N206 C205 1.334 . S
N206 C207 1.334 . S
C207 N206 1.334 . S
C207 N208 1.336 . S
N208 Zn204 2.020 . S
N208 C207 1.336 . S
N208 N209 1.354 . S
N209 C205 1.336 . S
N209 N208 1.354 . S
N209 Zn213 2.020 . S
C210 O211 1.244 . S
C210 O234 1.257 . S
O211 C210 1.244 . S
O212 Zn204 2.019 . S
O212 C232 1.257 . S
Zn213 N209 2.020 . S
Zn213 O220 1.975 . S
Zn213 N229 2.119 . S
Zn213 O234 2.019 . S
N214 Zn204 2.119 . S
N214 C216 1.334 . S
N214 C217 1.328 . S
C215 C216 1.391 . S
C215 N218 1.329 . S
C215 H236 0.930 . S
C216 N214 1.334 . S
C216 C215 1.391 . S
C216 H223 0.930 . S
C217 N214 1.328 . S
C217 C219 1.392 . S
C217 H224 0.930 . S
N218 C215 1.329 . S
N218 C219 1.331 . S
C219 C217 1.392 . S
C219 N218 1.331 . S
O220 Zn213 1.975 . S
O220 C221 1.252 . S
C221 O220 1.252 . S
C221 O222 1.252 . S
O222 Zn204 1.975 . S
O222 C221 1.252 . S
H223 C216 0.930 . S
H224 C217 0.930 . S
C225 C226 1.392 . S
C225 N229 1.328 . S
C225 H231 0.930 . S
C226 C225 1.392 . S
C226 N230 1.331 . S
C227 C228 1.391 . S
C227 N230 1.329 . S
C227 H237 0.930 1_655 S
C228 C227 1.391 . S
C228 N229 1.334 . S
C228 H235 0.930 . S
N229 Zn213 2.119 . S
N229 C225 1.328 . S
N229 C228 1.334 . S
N230 C226 1.331 . S
N230 C227 1.329 . S
H231 C225 0.930 . S
C232 O212 1.257 . S
C232 O233 1.244 . S
O233 C232 1.244 . S
O234 C210 1.257 . S
O234 Zn213 2.019 . S
H235 C228 0.930 . S
H236 C215 0.930 . S
H237 C227 0.930 1_455 S
Zn238 N242 2.020 . S
Zn238 O246 2.019 . S
Zn238 N248 2.119 . S
Zn238 O256 1.975 . S
C239 N240 1.334 . S
C239 N243 1.336 . S
N240 C239 1.334 . S
N240 C241 1.334 . S
C241 N240 1.334 . S
C241 N242 1.336 . S
N242 Zn238 2.020 . S
N242 C241 1.336 . S
N242 N243 1.354 . S
N243 C239 1.336 . S
N243 N242 1.354 . S
N243 Zn247 2.020 . S
C244 O245 1.244 . S
C244 O268 1.257 . S
O245 C244 1.244 . S
O246 Zn238 2.019 . S
O246 C266 1.257 . S
Zn247 N243 2.020 . S
Zn247 O254 1.975 . S
Zn247 N263 2.119 . S
Zn247 O268 2.019 . S
N248 Zn238 2.119 . S
N248 C250 1.334 . S
N248 C251 1.328 . S
C249 C250 1.391 . S
C249 N252 1.329 . S
C249 H270 0.930 . S
C250 N248 1.334 . S
C250 C249 1.391 . S
C250 H257 0.930 . S
C251 N248 1.328 . S
C251 C253 1.392 . S
C251 H258 0.930 . S
N252 C249 1.329 . S
N252 C253 1.331 . S
C253 C251 1.392 . S
C253 N252 1.331 . S
O254 Zn247 1.975 . S
O254 C255 1.252 . S
C255 O254 1.252 . S
C255 O256 1.252 . S
O256 Zn238 1.975 . S
O256 C255 1.252 . S
H257 C250 0.930 . S
H258 C251 0.930 . S
C259 C260 1.392 . S
C259 N263 1.328 . S
C259 H265 0.930 . S
C260 C259 1.392 . S
C260 N264 1.331 . S
C261 C262 1.391 . S
C261 N264 1.329 . S
C261 H271 0.930 1_565 S
C262 C261 1.391 . S
C262 N263 1.334 . S
C262 H269 0.930 . S
N263 Zn247 2.119 . S
N263 C259 1.328 . S
N263 C262 1.334 . S
N264 C260 1.331 . S
N264 C261 1.329 . S
H265 C259 0.930 . S
C266 O246 1.257 . S
C266 O267 1.244 . S
O267 C266 1.244 . S
O268 C244 1.257 . S
O268 Zn247 2.019 . S
H269 C262 0.930 . S
H270 C249 0.930 . S
H271 C261 0.930 1_545 S
Zn272 N276 2.020 . S
Zn272 O280 2.019 . S
Zn272 N282 2.119 . S
Zn272 O290 1.975 . S
C273 N274 1.334 . S
C273 N277 1.336 . S
N274 C273 1.334 . S
N274 C275 1.334 . S
C275 N274 1.334 . S
C275 N276 1.336 . S
N276 Zn272 2.020 . S
N276 C275 1.336 . S
N276 N277 1.354 . S
N277 C273 1.336 . S
N277 N276 1.354 . S
N277 Zn281 2.020 . S
C278 O279 1.244 . S
C278 O302 1.257 . S
O279 C278 1.244 . S
O280 Zn272 2.019 . S
O280 C300 1.257 . S
Zn281 N277 2.020 . S
Zn281 O288 1.975 . S
Zn281 N297 2.119 . S
Zn281 O302 2.019 . S
N282 Zn272 2.119 . S
N282 C284 1.334 . S
N282 C285 1.328 . S
C283 C284 1.391 . S
C283 N286 1.329 . S
C283 H304 0.930 . S
C284 N282 1.334 . S
C284 C283 1.391 . S
C284 H291 0.930 . S
C285 N282 1.328 . S
C285 C287 1.392 . S
C285 H292 0.930 . S
N286 C283 1.329 . S
N286 C287 1.331 . S
C287 C285 1.392 . S
C287 N286 1.331 . S
O288 Zn281 1.975 . S
O288 C289 1.252 . S
C289 O288 1.252 . S
C289 O290 1.252 . S
O290 Zn272 1.975 . S
O290 C289 1.252 . S
H291 C284 0.930 . S
H292 C285 0.930 . S
C293 C294 1.392 . S
C293 N297 1.328 . S
C293 H299 0.930 . S
C294 C293 1.392 . S
C294 N298 1.331 . S
C295 C296 1.391 . S
C295 N298 1.329 . S
C295 H305 0.930 . S
C296 C295 1.391 . S
C296 N297 1.334 . S
C296 H303 0.930 . S
N297 Zn281 2.119 . S
N297 C293 1.328 . S
N297 C296 1.334 . S
N298 C294 1.331 . S
N298 C295 1.329 . S
H299 C293 0.930 . S
C300 O280 1.257 . S
C300 O301 1.244 . S
O301 C300 1.244 . S
O302 C278 1.257 . S
O302 Zn281 2.019 . S
H303 C296 0.930 . S
H304 C283 0.930 . S
H305 C295 0.930 . S
Zn306 N310 2.020 . S
Zn306 O314 2.019 . S
Zn306 N316 2.119 . S
Zn306 O324 1.975 . S
C307 N308 1.334 . S
C307 N311 1.336 . S
N308 C307 1.334 . S
N308 C309 1.334 . S
C309 N308 1.334 . S
C309 N310 1.336 . S
N310 Zn306 2.020 . S
N310 C309 1.336 . S
N310 N311 1.354 . S
N311 C307 1.336 . S
N311 N310 1.354 . S
N311 Zn315 2.020 . S
C312 O313 1.244 . S
C312 O336 1.257 . S
O313 C312 1.244 . S
O314 Zn306 2.019 . S
O314 C334 1.257 . S
Zn315 N311 2.020 . S
Zn315 O322 1.975 . S
Zn315 N331 2.119 . S
Zn315 O336 2.019 . S
N316 Zn306 2.119 . S
N316 C318 1.334 . S
N316 C319 1.328 . S
C317 C318 1.391 . S
C317 N320 1.329 . S
C317 H338 0.930 . S
C318 N316 1.334 . S
C318 C317 1.391 . S
C318 H325 0.930 . S
C319 N316 1.328 . S
C319 C321 1.392 . S
C319 H326 0.930 . S
N320 C317 1.329 . S
N320 C321 1.331 . S
C321 C319 1.392 . S
C321 N320 1.331 . S
O322 Zn315 1.975 . S
O322 C323 1.252 . S
C323 O322 1.252 . S
C323 O324 1.252 . S
O324 Zn306 1.975 . S
O324 C323 1.252 . S
H325 C318 0.930 . S
H326 C319 0.930 . S
C327 C328 1.392 . S
C327 N331 1.328 . S
C327 H333 0.930 . S
C328 C327 1.392 . S
C328 N332 1.331 . S
C329 C330 1.391 . S
C329 N332 1.329 . S
C329 H339 0.930 1_455 S
C330 C329 1.391 . S
C330 N331 1.334 . S
C330 H337 0.930 . S
N331 Zn315 2.119 . S
N331 C327 1.328 . S
N331 C330 1.334 . S
N332 C328 1.331 . S
N332 C329 1.329 . S
H333 C327 0.930 . S
C334 O314 1.257 . S
C334 O335 1.244 . S
O335 C334 1.244 . S
O336 C312 1.257 . S
O336 Zn315 2.019 . S
H337 C330 0.930 . S
H338 C317 0.930 . S
H339 C329 0.930 1_655 S
Zn340 N344 2.020 . S
Zn340 O348 2.019 . S
Zn340 N350 2.119 . S
Zn340 O358 1.975 . S
C341 N342 1.334 . S
C341 N345 1.336 . S
N342 C341 1.334 . S
N342 C343 1.334 . S
C343 N342 1.334 . S
C343 N344 1.336 . S
N344 Zn340 2.020 . S
N344 C343 1.336 . S
N344 N345 1.354 . S
N345 C341 1.336 . S
N345 N344 1.354 . S
N345 Zn349 2.020 . S
C346 O347 1.244 . S
C346 O370 1.257 . S
O347 C346 1.244 . S
O348 Zn340 2.019 . S
O348 C368 1.257 . S
Zn349 N345 2.020 . S
Zn349 O356 1.975 . S
Zn349 N365 2.119 . S
Zn349 O370 2.019 . S
N350 Zn340 2.119 . S
N350 C352 1.334 . S
N350 C353 1.328 . S
C351 C352 1.391 . S
C351 N354 1.329 . S
C351 H372 0.930 1_545 S
C352 N350 1.334 . S
C352 C351 1.391 . S
C352 H359 0.930 . S
C353 N350 1.328 . S
C353 C355 1.392 . S
C353 H360 0.930 . S
N354 C351 1.329 . S
N354 C355 1.331 . S
C355 C353 1.392 . S
C355 N354 1.331 . S
O356 Zn349 1.975 . S
O356 C357 1.252 . S
C357 O356 1.252 . S
C357 O358 1.252 . S
O358 Zn340 1.975 . S
O358 C357 1.252 . S
H359 C352 0.930 . S
H360 C353 0.930 . S
C361 C362 1.392 . S
C361 N365 1.328 . S
C361 H367 0.930 . S
C362 C361 1.392 . S
C362 N366 1.331 . S
C363 C364 1.391 . S
C363 N366 1.329 . S
C363 H373 0.930 . S
C364 C363 1.391 . S
C364 N365 1.334 . S
C364 H371 0.930 . S
N365 Zn349 2.119 . S
N365 C361 1.328 . S
N365 C364 1.334 . S
N366 C362 1.331 . S
N366 C363 1.329 . S
H367 C361 0.930 . S
C368 O348 1.257 . S
C368 O369 1.244 . S
O369 C368 1.244 . S
O370 C346 1.257 . S
O370 Zn349 2.019 . S
H371 C364 0.930 . S
H372 C351 0.930 1_565 S
H373 C363 0.930 . S
Zn374 N378 2.020 . S
Zn374 O382 2.019 . S
Zn374 N384 2.119 . S
Zn374 O392 1.975 . S
C375 N376 1.334 . S
C375 N379 1.336 . S
N376 C375 1.334 . S
N376 C377 1.334 . S
C377 N376 1.334 . S
C377 N378 1.336 . S
N378 Zn374 2.020 . S
N378 C377 1.336 . S
N378 N379 1.354 . S
N379 C375 1.336 . S
N379 N378 1.354 . S
N379 Zn383 2.020 . S
C380 O381 1.244 . S
C380 O404 1.257 . S
O381 C380 1.244 . S
O382 Zn374 2.019 . S
O382 C402 1.257 . S
Zn383 N379 2.020 . S
Zn383 O390 1.975 . S
Zn383 N399 2.119 . S
Zn383 O404 2.019 . S
N384 Zn374 2.119 . S
N384 C386 1.334 . S
N384 C387 1.328 . S
C385 C386 1.391 . S
C385 N388 1.329 . S
C385 H406 0.930 . S
C386 N384 1.334 . S
C386 C385 1.391 . S
C386 H393 0.930 . S
C387 N384 1.328 . S
C387 C389 1.392 . S
C387 H394 0.930 . S
N388 C385 1.329 . S
N388 C389 1.331 . S
C389 C387 1.392 . S
C389 N388 1.331 . S
O390 Zn383 1.975 . S
O390 C391 1.252 . S
C391 O390 1.252 . S
C391 O392 1.252 . S
O392 Zn374 1.975 . S
O392 C391 1.252 . S
H393 C386 0.930 . S
H394 C387 0.930 . S
C395 C396 1.392 . S
C395 N399 1.328 . S
C395 H401 0.930 . S
C396 C395 1.392 . S
C396 N400 1.331 . S
C397 C398 1.391 . S
C397 N400 1.329 . S
C397 H407 0.930 . S
C398 C397 1.391 . S
C398 N399 1.334 . S
C398 H405 0.930 . S
N399 Zn383 2.119 . S
N399 C395 1.328 . S
N399 C398 1.334 . S
N400 C396 1.331 . S
N400 C397 1.329 . S
H401 C395 0.930 . S
C402 O382 1.257 . S
C402 O403 1.244 . S
O403 C402 1.244 . S
O404 C380 1.257 . S
O404 Zn383 2.019 . S
H405 C398 0.930 . S
H406 C385 0.930 . S
H407 C397 0.930 . S
C408 C409 1.369 . S
C408 C410 1.419 . S
C408 H412 0.930 . S
C409 C408 1.369 . S
C409 C418 1.429 1_545 S
C410 C408 1.419 . S
C410 C411 1.363 1_545 S
C410 H413 0.929 . S
C411 C410 1.363 1_565 S
C411 C417 1.428 . S
H412 C408 0.930 . S
H413 C410 0.929 . S
S414 N415 1.613 . S
S414 N416 1.610 . S
N415 S414 1.613 . S
N415 C418 1.350 . S
N416 S414 1.610 . S
N416 C417 1.351 . S
C417 C411 1.428 . S
C417 N416 1.351 . S
C417 C418 1.434 . S
C418 C409 1.429 1_565 S
C418 N415 1.350 . S
C418 C417 1.434 . S
C419 C420 1.369 . S
C419 C421 1.419 . S
C419 H423 0.930 . S
C420 C419 1.369 . S
C420 C429 1.429 . S
C421 C419 1.419 . S
C421 C422 1.363 . S
C421 H424 0.929 . S
C422 C421 1.363 . S
C422 C428 1.428 . S
H423 C419 0.930 . S
H424 C421 0.929 . S
S425 N426 1.613 . S
S425 N427 1.610 . S
N426 S425 1.613 . S
N426 C429 1.350 . S
N427 S425 1.610 . S
N427 C428 1.351 . S
C428 C422 1.428 . S
C428 N427 1.351 . S
C428 C429 1.434 . S
C429 C420 1.429 . S
C429 N426 1.350 . S
C429 C428 1.434 . S
C430 C431 1.369 . S
C430 C432 1.419 1_455 S
C430 H434 0.930 . S
C431 C430 1.369 . S
C431 C440 1.429 . S
C432 C430 1.419 1_655 S
C432 C433 1.363 . S
C432 H435 0.929 . S
C433 C432 1.363 . S
C433 C439 1.428 . S
H434 C430 0.930 . S
H435 C432 0.929 . S
S436 N437 1.613 . S
S436 N438 1.610 . S
N437 S436 1.613 . S
N437 C440 1.350 . S
N438 S436 1.610 . S
N438 C439 1.351 1_455 S
C439 C433 1.428 . S
C439 N438 1.351 1_655 S
C439 C440 1.434 1_655 S
C440 C431 1.429 . S
C440 N437 1.350 . S
C440 C439 1.434 1_455 S
C441 C442 1.369 . S
C441 C443 1.419 . S
C441 H445 0.930 . S
C442 C441 1.369 . S
C442 C451 1.429 1_565 S
C443 C441 1.419 . S
C443 C444 1.363 1_565 S
C443 H446 0.929 . S
C444 C443 1.363 1_545 S
C444 C450 1.428 . S
H445 C441 0.930 . S
H446 C443 0.929 . S
S447 N448 1.613 . S
S447 N449 1.610 . S
N448 S447 1.613 . S
N448 C451 1.350 . S
N449 S447 1.610 . S
N449 C450 1.351 . S
C450 C444 1.428 . S
C450 N449 1.351 . S
C450 C451 1.434 . S
C451 C442 1.429 1_545 S
C451 N448 1.350 . S
C451 C450 1.434 . S
C452 C453 1.369 . S
C452 C454 1.419 . S
C452 H456 0.930 . S
C453 C452 1.369 . S
C453 C462 1.429 . S
C454 C452 1.419 . S
C454 C455 1.363 . S
C454 H457 0.929 . S
C455 C454 1.363 . S
C455 C461 1.428 . S
H456 C452 0.930 . S
H457 C454 0.929 . S
S458 N459 1.613 . S
S458 N460 1.610 . S
N459 S458 1.613 . S
N459 C462 1.350 . S
N460 S458 1.610 . S
N460 C461 1.351 . S
C461 C455 1.428 . S
C461 N460 1.351 . S
C461 C462 1.434 . S
C462 C453 1.429 . S
C462 N459 1.350 . S
C462 C461 1.434 . S
C463 C464 1.369 . S
C463 C465 1.419 1_655 S
C463 H467 0.930 . S
C464 C463 1.369 . S
C464 C473 1.429 . S
C465 C463 1.419 1_455 S
C465 C466 1.363 . S
C465 H468 0.929 . S
C466 C465 1.363 . S
C466 C472 1.428 . S
H467 C463 0.930 . S
H468 C465 0.929 . S
S469 N470 1.613 1_455 S
S469 N471 1.610 . S
N470 S469 1.613 1_655 S
N470 C473 1.350 . S
N471 S469 1.610 . S
N471 C472 1.351 . S
C472 C466 1.428 . S
C472 N471 1.351 . S
C472 C473 1.434 1_455 S
C473 C464 1.429 . S
C473 N470 1.350 . S
C473 C472 1.434 1_655 S
C474 C475 1.369 . S
C474 C476 1.419 1_545 S
C474 H478 0.930 . S
C475 C474 1.369 . S
C475 C484 1.429 . S
C476 C474 1.419 1_565 S
C476 C477 1.363 . S
C476 H479 0.929 . S
C477 C476 1.363 . S
C477 C483 1.428 . S
H478 C474 0.930 . S
H479 C476 0.929 . S
S480 N481 1.613 1_565 S
S480 N482 1.610 . S
N481 S480 1.613 1_545 S
N481 C484 1.350 . S
N482 S480 1.610 . S
N482 C483 1.351 . S
C483 C477 1.428 . S
C483 N482 1.351 . S
C483 C484 1.434 1_565 S
C484 C475 1.429 . S
C484 N481 1.350 . S
C484 C483 1.434 1_545 S
C485 C486 1.369 . S
C485 C487 1.419 . S
C485 H489 0.930 . S
C486 C485 1.369 . S
C486 C495 1.429 . S
C487 C485 1.419 . S
C487 C488 1.363 . S
C487 H490 0.929 . S
C488 C487 1.363 . S
C488 C494 1.428 . S
H489 C485 0.930 . S
H490 C487 0.929 . S
S491 N492 1.613 . S
S491 N493 1.610 . S
N492 S491 1.613 . S
N492 C495 1.350 . S
N493 S491 1.610 . S
N493 C494 1.351 . S
C494 C488 1.428 . S
C494 N493 1.351 . S
C494 C495 1.434 . S
C495 C486 1.429 . S
C495 N492 1.350 . S
C495 C494 1.434 . S
C496 C497 1.369 . S
C496 C498 1.419 1_455 S
C496 H500 0.930 . S
C497 C496 1.369 . S
C497 C506 1.429 . S
C498 C496 1.419 1_655 S
C498 C499 1.363 . S
C498 H501 0.929 . S
C499 C498 1.363 . S
C499 C505 1.428 . S
H500 C496 0.930 . S
H501 C498 0.929 . S
S502 N503 1.613 1_655 S
S502 N504 1.610 . S
N503 S502 1.613 1_455 S
N503 C506 1.350 . S
N504 S502 1.610 . S
N504 C505 1.351 . S
C505 C499 1.428 . S
C505 N504 1.351 . S
C505 C506 1.434 1_655 S
C506 C497 1.429 . S
C506 N503 1.350 . S
C506 C505 1.434 1_455 S
C507 C508 1.369 . S
C507 C509 1.419 1_545 S
C507 H511 0.930 . S
C508 C507 1.369 . S
C508 C517 1.429 . S
C509 C507 1.419 1_565 S
C509 C510 1.363 . S
C509 H512 0.929 . S
C510 C509 1.363 . S
C510 C516 1.428 . S
H511 C507 0.930 . S
H512 C509 0.929 . S
S513 N514 1.613 1_565 S
S513 N515 1.610 . S
N514 S513 1.613 1_545 S
N514 C517 1.350 . S
N515 S513 1.610 . S
N515 C516 1.351 . S
C516 C510 1.428 . S
C516 N515 1.351 . S
C516 C517 1.434 1_565 S
C517 C508 1.429 . S
C517 N514 1.350 . S
C517 C516 1.434 1_545 S
C518 C519 1.369 . S
C518 C520 1.419 . S
C518 H522 0.930 . S
C519 C518 1.369 . S
C519 C528 1.429 . S
C520 C518 1.419 . S
C520 C521 1.363 . S
C520 H523 0.929 . S
C521 C520 1.363 . S
C521 C527 1.428 . S
H522 C518 0.930 . S
H523 C520 0.929 . S
S524 N525 1.613 . S
S524 N526 1.610 . S
N525 S524 1.613 . S
N525 C528 1.350 . S
N526 S524 1.610 . S
N526 C527 1.351 . S
C527 C521 1.428 . S
C527 N526 1.351 . S
C527 C528 1.434 . S
C528 C519 1.429 . S
C528 N525 1.350 . S
C528 C527 1.434 . S
C529 C530 1.369 . S
C529 C531 1.419 1_455 S
C529 H533 0.930 . S
C530 C529 1.369 . S
C530 C539 1.429 . S
C531 C529 1.419 1_655 S
C531 C532 1.363 . S
C531 H534 0.929 . S
C532 C531 1.363 . S
C532 C538 1.428 . S
H533 C529 0.930 . S
H534 C531 0.929 . S
S535 N536 1.613 . S
S535 N537 1.610 1_455 S
N536 S535 1.613 . S
N536 C539 1.350 . S
N537 S535 1.610 1_655 S
N537 C538 1.351 . S
C538 C532 1.428 . S
C538 N537 1.351 . S
C538 C539 1.434 1_655 S
C539 C530 1.429 . S
C539 N536 1.350 . S
C539 C538 1.434 1_455 S
C540 C541 1.357 1_556 S
C540 C542 1.434 . S
C540 H544 0.930 . S
C541 C540 1.357 1_554 S
C541 C550 1.424 1_565 S
C542 C540 1.434 . S
C542 C543 1.342 1_566 S
C542 H545 0.925 . S
C543 C542 1.342 1_544 S
C543 C549 1.438 . S
H544 C540 0.930 . S
H545 C542 0.925 . S
S546 N547 1.613 . S
S546 N548 1.610 . S
N547 S546 1.613 . S
N547 C550 1.344 . S
N548 S546 1.610 . S
N548 C549 1.351 . S
C549 C543 1.438 . S
C549 N548 1.351 . S
C549 C550 1.460 . S
C550 C541 1.424 1_545 S
C550 N547 1.344 . S
C550 C549 1.460 . S
C551 C552 1.369 1_556 S
C551 C553 1.419 . S
C551 H555 0.930 . S
C552 C551 1.369 1_554 S
C552 C561 1.429 . S
C553 C551 1.419 . S
C553 C554 1.363 1_556 S
C553 H556 0.929 . S
C554 C553 1.363 1_554 S
C554 C560 1.429 . S
H555 C551 0.930 . S
H556 C553 0.929 . S
S557 N558 1.613 . S
S557 N559 1.610 . S
N558 S557 1.613 . S
N558 C561 1.350 . S
N559 S557 1.610 . S
N559 C560 1.351 . S
C560 C554 1.429 . S
C560 N559 1.351 . S
C560 C561 1.434 . S
C561 C552 1.429 . S
C561 N558 1.350 . S
C561 C560 1.434 . S
C562 C563 1.370 . S
C562 C564 1.419 . S
C562 H566 0.930 . S
C563 C562 1.370 . S
C563 C572 1.428 1_454 S
C564 C562 1.419 . S
C564 C565 1.363 1_455 S
C564 H567 0.929 . S
C565 C564 1.363 1_655 S
C565 C571 1.428 1_554 S
H566 C562 0.930 . S
H567 C564 0.929 . S
S568 N569 1.613 . S
S568 N570 1.610 . S
N569 S568 1.613 . S
N569 C572 1.350 . S
N570 S568 1.610 . S
N570 C571 1.351 . S
C571 C565 1.428 1_556 S
C571 N570 1.351 . S
C571 C572 1.434 . S
C572 C563 1.428 1_656 S
C572 N569 1.350 . S
C572 C571 1.434 . S
C573 C574 1.369 1_455 S
C573 C575 1.419 . S
C573 H577 0.930 . S
C574 C573 1.369 1_655 S
C574 C583 1.429 . S
C575 C573 1.419 . S
C575 C576 1.363 . S
C575 H578 0.929 . S
C576 C575 1.363 . S
C576 C582 1.428 1_455 S
H577 C573 0.930 . S
H578 C575 0.929 . S
S579 N580 1.613 . S
S579 N581 1.610 . S
N580 S579 1.613 . S
N580 C583 1.350 . S
N581 S579 1.610 . S
N581 C582 1.351 . S
C582 C576 1.428 1_655 S
C582 N581 1.351 . S
C582 C583 1.434 . S
C583 C574 1.429 . S
C583 N580 1.350 . S
C583 C582 1.434 . S
C584 C585 1.369 . S
C584 C586 1.419 . S
C584 H588 0.930 . S
C585 C584 1.369 . S
C585 C594 1.429 1_565 S
C586 C584 1.419 . S
C586 C587 1.363 1_565 S
C586 H589 0.929 . S
C587 C586 1.363 1_545 S
C587 C593 1.428 . S
H588 C584 0.930 . S
H589 C586 0.929 . S
S590 N591 1.613 . S
S590 N592 1.610 . S
N591 S590 1.613 . S
N591 C594 1.350 . S
N592 S590 1.610 . S
N592 C593 1.351 . S
C593 C587 1.428 . S
C593 N592 1.351 . S
C593 C594 1.434 . S
C594 C585 1.429 1_545 S
C594 N591 1.350 . S
C594 C593 1.434 . S
C595 C596 1.369 . S
C595 C597 1.419 . S
C595 H599 0.930 . S
C596 C595 1.369 . S
C596 C605 1.429 . S
C597 C595 1.419 . S
C597 C598 1.363 . S
C597 H600 0.929 . S
C598 C597 1.363 . S
C598 C604 1.428 . S
H599 C595 0.930 . S
H600 C597 0.929 . S
S601 N602 1.613 . S
S601 N603 1.610 . S
N602 S601 1.613 . S
N602 C605 1.350 . S
N603 S601 1.610 . S
N603 C604 1.351 . S
C604 C598 1.428 . S
C604 N603 1.351 . S
C604 C605 1.434 . S
C605 C596 1.429 . S
C605 N602 1.350 . S
C605 C604 1.434 . S
C606 C607 1.369 . S
C606 C608 1.419 . S
C606 H610 0.930 . S
C607 C606 1.369 . S
C607 C616 1.429 . S
C608 C606 1.419 . S
C608 C609 1.363 . S
C608 H611 0.929 . S
C609 C608 1.363 . S
C609 C615 1.428 . S
H610 C606 0.930 . S
H611 C608 0.929 . S
S612 N613 1.613 . S
S612 N614 1.610 . S
N613 S612 1.613 . S
N613 C616 1.350 . S
N614 S612 1.610 . S
N614 C615 1.351 . S
C615 C609 1.428 . S
C615 N614 1.351 . S
C615 C616 1.434 . S
C616 C607 1.429 . S
C616 N613 1.350 . S
C616 C615 1.434 . S
C617 C618 1.369 . S
C617 C619 1.419 . S
C617 H621 0.930 . S
C618 C617 1.369 . S
C618 C627 1.429 . S
C619 C617 1.419 . S
C619 C620 1.363 . S
C619 H622 0.929 . S
C620 C619 1.363 . S
C620 C626 1.428 . S
H621 C617 0.930 . S
H622 C619 0.929 . S
S623 N624 1.613 . S
S623 N625 1.610 . S
N624 S623 1.613 . S
N624 C627 1.350 . S
N625 S623 1.610 . S
N625 C626 1.351 . S
C626 C620 1.428 . S
C626 N625 1.351 . S
C626 C627 1.434 . S
C627 C618 1.429 . S
C627 N624 1.350 . S
C627 C626 1.434 . S
C628 C629 1.369 . S
C628 C630 1.419 . S
C628 H632 0.930 . S
C629 C628 1.369 . S
C629 C638 1.429 . S
C630 C628 1.419 . S
C630 C631 1.363 . S
C630 H633 0.929 . S
C631 C630 1.363 . S
C631 C637 1.428 . S
H632 C628 0.930 . S
H633 C630 0.929 . S
S634 N635 1.613 . S
S634 N636 1.610 . S
N635 S634 1.613 . S
N635 C638 1.350 . S
N636 S634 1.610 . S
N636 C637 1.351 . S
C637 C631 1.428 . S
C637 N636 1.351 . S
C637 C638 1.434 . S
C638 C629 1.429 . S
C638 N635 1.350 . S
C638 C637 1.434 . S
C639 C640 1.369 . S
C639 C641 1.419 . S
C639 H643 0.930 . S
C640 C639 1.369 . S
C640 C649 1.429 . S
C641 C639 1.419 . S
C641 C642 1.363 . S
C641 H644 0.929 . S
C642 C641 1.363 . S
C642 C648 1.428 . S
H643 C639 0.930 . S
H644 C641 0.929 . S
S645 N646 1.613 . S
S645 N647 1.610 . S
N646 S645 1.613 . S
N646 C649 1.350 . S
N647 S645 1.610 . S
N647 C648 1.351 . S
C648 C642 1.428 . S
C648 N647 1.351 . S
C648 C649 1.434 . S
C649 C640 1.429 . S
C649 N646 1.350 . S
C649 C648 1.434 . S
C650 C651 1.369 . S
C650 C652 1.419 . S
C650 H654 0.930 . S
C651 C650 1.369 . S
C651 C660 1.429 . S
C652 C650 1.419 . S
C652 C653 1.363 . S
C652 H655 0.929 . S
C653 C652 1.363 . S
C653 C659 1.428 . S
H654 C650 0.930 . S
H655 C652 0.929 . S
S656 N657 1.613 . S
S656 N658 1.610 . S
N657 S656 1.613 . S
N657 C660 1.350 . S
N658 S656 1.610 . S
N658 C659 1.351 . S
C659 C653 1.428 . S
C659 N658 1.351 . S
C659 C660 1.434 . S
C660 C651 1.429 . S
C660 N657 1.350 . S
C660 C659 1.434 . S
C661 C662 1.369 . S
C661 C663 1.419 . S
C661 H665 0.930 . S
C662 C661 1.369 . S
C662 C671 1.429 . S
C663 C661 1.419 . S
C663 C664 1.363 . S
C663 H666 0.929 . S
C664 C663 1.363 . S
C664 C670 1.428 . S
H665 C661 0.930 . S
H666 C663 0.929 . S
S667 N668 1.613 . S
S667 N669 1.610 . S
N668 S667 1.613 . S
N668 C671 1.350 . S
N669 S667 1.610 . S
N669 C670 1.351 . S
C670 C664 1.428 . S
C670 N669 1.351 . S
C670 C671 1.434 . S
C671 C662 1.429 . S
C671 N668 1.350 . S
C671 C670 1.434 . S
C672 C673 1.369 . S
C672 C674 1.419 . S
C672 H676 0.930 . S
C673 C672 1.369 . S
C673 C682 1.429 . S
C674 C672 1.419 . S
C674 C675 1.363 . S
C674 H677 0.929 . S
C675 C674 1.363 . S
C675 C681 1.428 . S
H676 C672 0.930 . S
H677 C674 0.929 . S
S678 N679 1.613 . S
S678 N680 1.610 . S
N679 S678 1.613 . S
N679 C682 1.350 . S
N680 S678 1.610 . S
N680 C681 1.351 . S
C681 C675 1.428 . S
C681 N680 1.351 . S
C681 C682 1.434 . S
C682 C673 1.429 . S
C682 N679 1.350 . S
C682 C681 1.434 . S
C683 C684 1.369 . S
C683 C685 1.419 . S
C683 H687 0.930 . S
C684 C683 1.369 . S
C684 C693 1.429 . S
C685 C683 1.419 . S
C685 C686 1.363 . S
C685 H688 0.929 . S
C686 C685 1.363 . S
C686 C692 1.428 . S
H687 C683 0.930 . S
H688 C685 0.929 . S
S689 N690 1.613 . S
S689 N691 1.610 . S
N690 S689 1.613 . S
N690 C693 1.350 . S
N691 S689 1.610 . S
N691 C692 1.351 . S
C692 C686 1.428 . S
C692 N691 1.351 . S
C692 C693 1.434 . S
C693 C684 1.429 . S
C693 N690 1.350 . S
C693 C692 1.434 . S
C694 C695 1.369 . S
C694 C696 1.419 . S
C694 H698 0.930 . S
C695 C694 1.369 . S
C695 C704 1.429 . S
C696 C694 1.419 . S
C696 C697 1.363 . S
C696 H699 0.929 . S
C697 C696 1.363 . S
C697 C703 1.428 . S
H698 C694 0.930 . S
H699 C696 0.929 . S
S700 N701 1.613 . S
S700 N702 1.610 . S
N701 S700 1.613 . S
N701 C704 1.350 . S
N702 S700 1.610 . S
N702 C703 1.351 . S
C703 C697 1.428 . S
C703 N702 1.351 . S
C703 C704 1.434 . S
C704 C695 1.429 . S
C704 N701 1.350 . S
C704 C703 1.434 . S
C705 C706 1.369 . S
C705 C707 1.419 . S
C705 H709 0.930 . S
C706 C705 1.369 . S
C706 C715 1.429 . S
C707 C705 1.419 . S
C707 C708 1.363 . S
C707 H710 0.929 . S
C708 C707 1.363 . S
C708 C714 1.428 . S
H709 C705 0.930 . S
H710 C707 0.929 . S
S711 N712 1.613 . S
S711 N713 1.610 . S
N712 S711 1.613 . S
N712 C715 1.350 . S
N713 S711 1.610 . S
N713 C714 1.351 . S
C714 C708 1.428 . S
C714 N713 1.351 . S
C714 C715 1.434 . S
C715 C706 1.429 . S
C715 N712 1.350 . S
C715 C714 1.434 . S
C716 C717 1.369 . S
C716 C718 1.419 . S
C716 H720 0.930 . S
C717 C716 1.369 . S
C717 C726 1.429 . S
C718 C716 1.419 . S
C718 C719 1.363 . S
C718 H721 0.929 . S
C719 C718 1.363 . S
C719 C725 1.428 . S
H720 C716 0.930 . S
H721 C718 0.929 . S
S722 N723 1.613 . S
S722 N724 1.610 . S
N723 S722 1.613 . S
N723 C726 1.350 . S
N724 S722 1.610 . S
N724 C725 1.351 . S
C725 C719 1.428 . S
C725 N724 1.351 . S
C725 C726 1.434 . S
C726 C717 1.429 . S
C726 N723 1.350 . S
C726 C725 1.434 . S
C727 C728 1.369 . S
C727 C729 1.419 . S
C727 H731 0.930 . S
C728 C727 1.369 . S
C728 C737 1.429 . S
C729 C727 1.419 . S
C729 C730 1.363 . S
C729 H732 0.929 . S
C730 C729 1.363 . S
C730 C736 1.428 . S
H731 C727 0.930 . S
H732 C729 0.929 . S
S733 N734 1.613 . S
S733 N735 1.610 . S
N734 S733 1.613 . S
N734 C737 1.350 . S
N735 S733 1.610 . S
N735 C736 1.351 . S
C736 C730 1.428 . S
C736 N735 1.351 . S
C736 C737 1.434 . S
C737 C728 1.429 . S
C737 N734 1.350 . S
C737 C736 1.434 . S
C738 C739 1.369 . S
C738 C740 1.419 . S
C738 H742 0.930 . S
C739 C738 1.369 . S
C739 C748 1.429 . S
C740 C738 1.419 . S
C740 C741 1.363 . S
C740 H743 0.929 . S
C741 C740 1.363 . S
C741 C747 1.428 . S
H742 C738 0.930 . S
H743 C740 0.929 . S
S744 N745 1.613 . S
S744 N746 1.610 . S
N745 S744 1.613 . S
N745 C748 1.350 . S
N746 S744 1.610 . S
N746 C747 1.351 . S
C747 C741 1.428 . S
C747 N746 1.351 . S
C747 C748 1.434 . S
C748 C739 1.429 . S
C748 N745 1.350 . S
C748 C747 1.434 . S
C749 C750 1.369 . S
C749 C751 1.419 . S
C749 H753 0.930 . S
C750 C749 1.369 . S
C750 C759 1.429 . S
C751 C749 1.419 . S
C751 C752 1.363 . S
C751 H754 0.929 . S
C752 C751 1.363 . S
C752 C758 1.428 . S
H753 C749 0.930 . S
H754 C751 0.929 . S
S755 N756 1.613 . S
S755 N757 1.610 . S
N756 S755 1.613 . S
N756 C759 1.350 . S
N757 S755 1.610 . S
N757 C758 1.351 . S
C758 C752 1.428 . S
C758 N757 1.351 . S
C758 C759 1.434 . S
C759 C750 1.429 . S
C759 N756 1.350 . S
C759 C758 1.434 . S
C760 C761 1.369 . S
C760 C762 1.419 . S
C760 H764 0.930 . S
C761 C760 1.369 . S
C761 C770 1.429 . S
C762 C760 1.419 . S
C762 C763 1.363 . S
C762 H765 0.929 . S
C763 C762 1.363 . S
C763 C769 1.428 . S
H764 C760 0.930 . S
H765 C762 0.929 . S
S766 N767 1.613 . S
S766 N768 1.610 . S
N767 S766 1.613 . S
N767 C770 1.350 . S
N768 S766 1.610 . S
N768 C769 1.351 . S
C769 C763 1.428 . S
C769 N768 1.351 . S
C769 C770 1.434 . S
C770 C761 1.429 . S
C770 N767 1.350 . S
C770 C769 1.434 . S
C771 C772 1.369 . S
C771 C773 1.419 . S
C771 H775 0.930 . S
C772 C771 1.369 . S
C772 C781 1.429 . S
C773 C771 1.419 . S
C773 C774 1.363 . S
C773 H776 0.929 . S
C774 C773 1.363 . S
C774 C780 1.428 . S
H775 C771 0.930 . S
H776 C773 0.929 . S
S777 N778 1.613 . S
S777 N779 1.610 . S
N778 S777 1.613 . S
N778 C781 1.350 . S
N779 S777 1.610 . S
N779 C780 1.351 . S
C780 C774 1.428 . S
C780 N779 1.351 . S
C780 C781 1.434 . S
C781 C772 1.429 . S
C781 N778 1.350 . S
C781 C780 1.434 . S
C782 C783 1.369 . S
C782 C784 1.419 . S
C782 H786 0.930 . S
C783 C782 1.369 . S
C783 C792 1.429 . S
C784 C782 1.419 . S
C784 C785 1.363 . S
C784 H787 0.929 . S
C785 C784 1.363 . S
C785 C791 1.428 . S
H786 C782 0.930 . S
H787 C784 0.929 . S
S788 N789 1.613 . S
S788 N790 1.610 . S
N789 S788 1.613 . S
N789 C792 1.350 . S
N790 S788 1.610 . S
N790 C791 1.351 . S
C791 C785 1.428 . S
C791 N790 1.351 . S
C791 C792 1.434 . S
C792 C783 1.429 . S
C792 N789 1.350 . S
C792 C791 1.434 . S
C793 C794 1.369 . S
C793 C795 1.419 . S
C793 H797 0.930 . S
C794 C793 1.369 . S
C794 C803 1.429 . S
C795 C793 1.419 . S
C795 C796 1.363 . S
C795 H798 0.929 . S
C796 C795 1.363 . S
C796 C802 1.428 . S
H797 C793 0.930 . S
H798 C795 0.929 . S
S799 N800 1.613 . S
S799 N801 1.610 . S
N800 S799 1.613 . S
N800 C803 1.350 . S
N801 S799 1.610 . S
N801 C802 1.351 . S
C802 C796 1.428 . S
C802 N801 1.351 . S
C802 C803 1.434 . S
C803 C794 1.429 . S
C803 N800 1.350 . S
C803 C802 1.434 . S
C804 C805 1.369 . S
C804 C806 1.419 . S
C804 H808 0.930 . S
C805 C804 1.369 . S
C805 C814 1.429 . S
C806 C804 1.419 . S
C806 C807 1.363 . S
C806 H809 0.929 . S
C807 C806 1.363 . S
C807 C813 1.428 . S
H808 C804 0.930 . S
H809 C806 0.929 . S
S810 N811 1.613 . S
S810 N812 1.610 . S
N811 S810 1.613 . S
N811 C814 1.350 . S
N812 S810 1.610 . S
N812 C813 1.351 . S
C813 C807 1.428 . S
C813 N812 1.351 . S
C813 C814 1.434 . S
C814 C805 1.429 . S
C814 N811 1.350 . S
C814 C813 1.434 . S
C815 C816 1.369 . S
C815 C817 1.419 . S
C815 H819 0.930 . S
C816 C815 1.369 . S
C816 C825 1.429 . S
C817 C815 1.419 . S
C817 C818 1.363 . S
C817 H820 0.929 . S
C818 C817 1.363 . S
C818 C824 1.428 . S
H819 C815 0.930 . S
H820 C817 0.929 . S
S821 N822 1.613 . S
S821 N823 1.610 . S
N822 S821 1.613 . S
N822 C825 1.350 . S
N823 S821 1.610 . S
N823 C824 1.351 . S
C824 C818 1.428 . S
C824 N823 1.351 . S
C824 C825 1.434 . S
C825 C816 1.429 . S
C825 N822 1.350 . S
C825 C824 1.434 . S
C826 C827 1.369 . S
C826 C828 1.419 . S
C826 H830 0.930 . S
C827 C826 1.369 . S
C827 C836 1.429 . S
C828 C826 1.419 . S
C828 C829 1.363 . S
C828 H831 0.929 . S
C829 C828 1.363 . S
C829 C835 1.428 . S
H830 C826 0.930 . S
H831 C828 0.929 . S
S832 N833 1.613 . S
S832 N834 1.610 . S
N833 S832 1.613 . S
N833 C836 1.350 . S
N834 S832 1.610 . S
N834 C835 1.351 . S
C835 C829 1.428 . S
C835 N834 1.351 . S
C835 C836 1.434 . S
C836 C827 1.429 . S
C836 N833 1.350 . S
C836 C835 1.434 . S
C837 C838 1.369 . S
C837 C839 1.419 . S
C837 H841 0.930 . S
C838 C837 1.369 . S
C838 C847 1.429 . S
C839 C837 1.419 . S
C839 C840 1.363 . S
C839 H842 0.929 . S
C840 C839 1.363 . S
C840 C846 1.428 . S
H841 C837 0.930 . S
H842 C839 0.929 . S
S843 N844 1.613 . S
S843 N845 1.610 . S
N844 S843 1.613 . S
N844 C847 1.350 . S
N845 S843 1.610 . S
N845 C846 1.351 . S
C846 C840 1.428 . S
C846 N845 1.351 . S
C846 C847 1.434 . S
C847 C838 1.429 . S
C847 N844 1.350 . S
C847 C846 1.434 . S
C848 C849 1.369 . S
C848 C850 1.419 . S
C848 H852 0.930 . S
C849 C848 1.369 . S
C849 C858 1.429 . S
C850 C848 1.419 . S
C850 C851 1.363 . S
C850 H853 0.929 . S
C851 C850 1.363 . S
C851 C857 1.428 . S
H852 C848 0.930 . S
H853 C850 0.929 . S
S854 N855 1.613 . S
S854 N856 1.610 . S
N855 S854 1.613 . S
N855 C858 1.350 . S
N856 S854 1.610 . S
N856 C857 1.351 . S
C857 C851 1.428 . S
C857 N856 1.351 . S
C857 C858 1.434 . S
C858 C849 1.429 . S
C858 N855 1.350 . S
C858 C857 1.434 . S
C859 C860 1.369 . S
C859 C861 1.419 . S
C859 H863 0.930 . S
C860 C859 1.369 . S
C860 C869 1.429 . S
C861 C859 1.419 . S
C861 C862 1.363 . S
C861 H864 0.929 . S
C862 C861 1.363 . S
C862 C868 1.428 . S
H863 C859 0.930 . S
H864 C861 0.929 . S
S865 N866 1.613 . S
S865 N867 1.610 . S
N866 S865 1.613 . S
N866 C869 1.350 . S
N867 S865 1.610 . S
N867 C868 1.351 . S
C868 C862 1.428 . S
C868 N867 1.351 . S
C868 C869 1.434 . S
C869 C860 1.429 . S
C869 N866 1.350 . S
C869 C868 1.434 . S
C409 C6 1.250 . S
C411 C266 1.254 . S
C420 C40 1.250 . S
C422 C278 1.246 . S
C431 C334 1.250 . S
C433 C74 1.246 . S
C442 C130 1.251 . S
C444 C346 1.255 . S
C453 C142 1.255 . S
C455 C402 1.247 . S
C464 C232 1.255 . S
C466 C198 1.255 . S
C475 C355 0.655 . S
C477 C124 0.667 . S
C486 C151 0.647 . S
C488 C396 0.675 . S
C497 C192 0.661 . S
C499 C226 0.663 . S
C508 C15 0.652 . S
C510 C260 0.674 . S
C519 C287 0.646 . S
C521 C49 0.677 . S
C530 C328 0.672 . S
C532 C83 0.659 . S
C541 C119 1.636 . S
C543 C17 1.636 . S
C552 C51 1.638 . S
C554 C153 1.635 . S
C563 C187 1.638 . S
C565 C85 1.635 . S
C574 C221 1.635 . S
C576 C323 1.637 . S
C585 C255 1.637 . S
C587 C357 1.636 . S
C596 C391 1.635 . S
C598 C289 1.637 . S
C607 C22 0.656 . S
C609 C362 0.645 . S
C618 C56 0.637 . S
C620 C389 0.662 . S
C629 C90 0.654 . S
C631 C219 0.650 . S
C640 C253 0.638 . S
C642 C117 0.661 . S
C651 C294 0.640 . S
C653 C158 0.657 . S
C662 C185 0.634 . S
C664 C321 0.663 . S
C673 C244 1.254 . S
C675 C108 1.251 . S
C684 C300 1.252 . S
C686 C164 1.259 . S
C695 C312 1.255 . S
C697 C176 1.251 . S
C706 C368 1.249 . S
C708 C28 1.257 . S
C717 C380 1.249 . S
C719 C62 1.253 . S
C728 C96 1.252 . S
C730 C210 1.258 . S
C739 C1 3.058 . S
C741 C273 3.056 . S
C750 C309 3.058 . S
C752 C35 3.056 . S
C761 C341 3.057 . S
C763 C69 3.055 . S
C772 C105 3.057 . S
C774 C377 3.055 . S
C783 C207 3.057 . S
C785 C137 3.055 . S
C794 C173 3.057 . S
C796 C241 3.056 . S
C805 C375 3.043 . S
C807 C103 3.045 . S
C816 C205 3.042 . S
C818 C139 3.045 . S
C827 C239 3.043 . S
C829 C171 3.045 . S
C838 C275 3.042 . S
C840 C3 3.045 . S
C849 C307 3.043 . S
C851 C37 3.045 . S
C860 C343 3.042 . S
C862 C71 3.045 . S
