# Generated by pormake.
# Topology yfx, (5)-cn, num edge types: 1
# Building blocks:
#     Node 0, Type 0, BuildingBlock: XOMCOT_clean_sbu_0, # of connection points: 5
#     Node 1, Type 0, BuildingBlock: XOMCOT_clean_sbu_0, # of connection points: 5
#     Node 2, Type 0, BuildingBlock: XOMCOT_clean_sbu_0, # of connection points: 5
#     Node 3, Type 0, BuildingBlock: XOMCOT_clean_sbu_0, # of connection points: 5
#     Node 4, Type 0, BuildingBlock: XOMCOT_clean_sbu_0, # of connection points: 5
#     Node 5, Type 0, BuildingBlock: XOMCOT_clean_sbu_0, # of connection points: 5
#     Node 6, Type 0, BuildingBlock: XOMCOT_clean_sbu_0, # of connection points: 5
#     Node 7, Type 0, BuildingBlock: XOMCOT_clean_sbu_0, # of connection points: 5
#     Edge 8, Type (0, 0), BuildingBlock: TEMPAE_clean_linker_10, # of connection points: 2
#     Edge 9, Type (0, 0), BuildingBlock: TEMPAE_clean_linker_10, # of connection points: 2
#     Edge 10, Type (0, 0), BuildingBlock: TEMPAE_clean_linker_10, # of connection points: 2
#     Edge 11, Type (0, 0), BuildingBlock: TEMPAE_clean_linker_10, # of connection points: 2
#     Edge 12, Type (0, 0), BuildingBlock: TEMPAE_clean_linker_10, # of connection points: 2
#     Edge 13, Type (0, 0), BuildingBlock: TEMPAE_clean_linker_10, # of connection points: 2
#     Edge 14, Type (0, 0), BuildingBlock: TEMPAE_clean_linker_10, # of connection points: 2
#     Edge 15, Type (0, 0), BuildingBlock: TEMPAE_clean_linker_10, # of connection points: 2
#     Edge 16, Type (0, 0), BuildingBlock: TEMPAE_clean_linker_10, # of connection points: 2
#     Edge 17, Type (0, 0), BuildingBlock: TEMPAE_clean_linker_10, # of connection points: 2
#     Edge 18, Type (0, 0), BuildingBlock: TEMPAE_clean_linker_10, # of connection points: 2
#     Edge 19, Type (0, 0), BuildingBlock: TEMPAE_clean_linker_10, # of connection points: 2
#     Edge 20, Type (0, 0), BuildingBlock: TEMPAE_clean_linker_10, # of connection points: 2
#     Edge 21, Type (0, 0), BuildingBlock: TEMPAE_clean_linker_10, # of connection points: 2
#     Edge 22, Type (0, 0), BuildingBlock: TEMPAE_clean_linker_10, # of connection points: 2
#     Edge 23, Type (0, 0), BuildingBlock: TEMPAE_clean_linker_10, # of connection points: 2
#     Edge 24, Type (0, 0), BuildingBlock: TEMPAE_clean_linker_10, # of connection points: 2
#     Edge 25, Type (0, 0), BuildingBlock: TEMPAE_clean_linker_10, # of connection points: 2
#     Edge 26, Type (0, 0), BuildingBlock: TEMPAE_clean_linker_10, # of connection points: 2
#     Edge 27, Type (0, 0), BuildingBlock: TEMPAE_clean_linker_10, # of connection points: 2
# Relax obj value: 0.104
# Max RMSD: 0.108
# Mean RMSD: 0.108
data_MOF--net-yfx--node1-XOMCOT_clean_sbu_0--edge1-TEMPAE_clean_linker_10
_symmetry_space_group_name_H-M    P1
_symmetry_Int_Tables_number       1
_symmetry_cell_setting            triclinic
loop_
_symmetry_equiv_pos_as_xyz
'x, y, z'
_cell_length_a     35.437915
_cell_length_b     35.455293
_cell_length_c     29.432203
_cell_angle_alpha  90.230279
_cell_angle_beta   89.954184
_cell_angle_gamma 89.88685
loop_
_atom_site_label
_atom_site_type_symbol
_atom_site_fract_x
_atom_site_fract_y
_atom_site_fract_z
_atom_type_partial_charge
Co0 Co 0.21518 0.36724 0.04734 0.0
C1 C 0.29044 0.33125 0.04053 0.0
C2 C 0.29063 0.37953 0.08495 0.0
C3 C 0.32613 0.36368 0.08504 0.0
N4 N 0.26841 0.3592 0.05702 0.0
N5 N 0.32584 0.33358 0.05695 0.0
H6 H 0.28078 0.30947 1.01745 0.0
H7 H 0.28148 0.40395 0.1042 0.0
C8 C 0.21631 0.44444 1.00406 0.0
O9 O 0.19511 0.43253 0.97033 0.0
N10 N 0.16117 0.376 0.03947 0.0
C11 C 0.1337 0.35032 0.03232 0.0
C12 C 0.09919 0.36825 0.03271 0.0
C13 C 0.14249 0.40884 0.04661 0.0
N14 N 0.10476 0.40513 0.04157 0.0
C15 C 0.20507 0.32137 0.96759 0.0
C16 C 0.25972 0.35584 0.91527 0.0
C17 C 0.24216 0.32326 0.89848 0.0
C18 C 0.21414 0.30633 0.92503 0.0
C19 C 0.24949 0.37022 0.95789 0.0
N20 N 0.22211 0.35328 0.9835 0.0
H21 H 0.18629 0.30558 0.98887 0.0
H22 H 0.26545 0.39361 0.97143 0.0
H23 H 0.13771 0.32026 0.02953 0.0
H24 H 0.15606 0.43492 0.05618 0.0
O25 O 0.20582 0.31777 0.07237 0.0
O26 O 0.20847 0.37087 0.11222 0.0
O27 O 0.22617 0.42201 0.03575 0.0
C28 C 0.20542 0.33429 0.11198 0.0
H29 H 0.35045 0.37377 0.10368 0.0
H30 H 0.07199 0.35485 0.02853 0.0
H31 H 0.28192 0.36955 0.89619 0.0
H32 H 0.20081 0.28034 0.91419 0.0
Co33 Co 0.65344 0.21708 0.04311 0.0
C34 C 0.68948 0.29227 0.03589 0.0
C35 C 0.64216 0.29242 0.08163 0.0
C36 C 0.6579 0.32788 0.08161 0.0
N37 N 0.66199 0.2702 0.05305 0.0
N38 N 0.68742 0.32764 0.05271 0.0
H39 H 0.71083 0.28268 1.01219 0.0
H40 H 0.61813 0.28331 0.1014 0.0
C41 C 0.57584 0.21511 1.00157 0.0
O42 O 0.58652 0.18875 0.97279 0.0
N43 N 0.64395 0.16328 0.03492 0.0
C44 C 0.66673 0.13632 1.01753 0.0
C45 C 0.64818 0.10225 1.01856 0.0
C46 C 0.61255 0.1446 0.04825 0.0
N47 N 0.61387 0.10748 0.03746 0.0
C48 C 0.70192 0.2103 0.96519 0.0
C49 C 0.66263 0.25953 0.91008 0.0
C50 C 0.69729 0.24521 0.89485 0.0
C51 C 0.71675 0.21992 0.92281 0.0
C52 C 0.6486 0.24887 0.95255 0.0
N53 N 0.66781 0.22393 0.97946 0.0
H54 H 0.71941 0.19408 0.98776 0.0
H55 H 0.62366 0.26305 0.96483 0.0
H56 H 0.69513 0.1403 1.0056 0.0
H57 H 0.58869 0.15825 0.06435 0.0
O58 O 0.70262 0.20675 0.06872 0.0
O59 O 0.64948 0.21046 0.10811 0.0
O60 O 0.59889 0.22895 0.03046 0.0
C61 C 0.68603 0.20663 0.10819 0.0
H62 H 0.64815 0.35215 0.10077 0.0
H63 H 0.65941 0.07558 1.00664 0.0
H64 H 0.64699 0.27973 0.88997 0.0
H65 H 0.74433 0.20934 0.9132 0.0
Co66 Co 0.80402 0.65454 0.04396 0.0
C67 C 0.72964 0.69194 0.03656 0.0
C68 C 0.72783 0.64323 0.07977 0.0
C69 C 0.69262 0.65973 0.07944 0.0
N70 N 0.75088 0.66347 0.0529 0.0
N71 N 0.69394 0.69013 0.05213 0.0
H72 H 0.74009 0.7138 1.01432 0.0
H73 H 0.73619 0.61844 0.09857 0.0
C74 C 0.80582 0.57739 1.00053 0.0
O75 O 0.83237 0.58812 0.97226 0.0
N76 N 0.85787 0.64488 0.03661 0.0
C77 C 0.88508 0.66818 0.02128 0.0
C78 C 0.91915 0.64951 0.02205 0.0
C79 C 0.87639 0.61303 0.04868 0.0
N80 N 0.91363 0.61464 0.03887 0.0
C81 C 0.81218 0.70366 0.96719 0.0
C82 C 0.76299 0.66573 0.91045 0.0
C83 C 0.77804 0.70018 0.89613 0.0
C84 C 0.80329 0.71896 0.92487 0.0
C85 C 0.77304 0.65114 0.95282 0.0
N86 N 0.79798 0.66967 0.98053 0.0
H87 H 0.82822 0.72076 0.99043 0.0
H88 H 0.75841 0.62635 0.9644 0.0
H89 H 0.8813 0.69703 1.01113 0.0
H90 H 0.86262 0.58869 0.06323 0.0
O91 O 0.81424 0.70329 0.0709 0.0
O92 O 0.80981 0.64973 0.10895 0.0
O93 O 0.79204 0.60024 0.02985 0.0
C94 C 0.81377 0.68622 0.10996 0.0
H95 H 0.66782 0.6499 0.0973 0.0
H96 H 0.94602 0.66097 1.01146 0.0
H97 H 0.74271 0.65072 0.88969 0.0
H98 H 0.81437 0.7464 0.91591 0.0
Co99 Co 0.36991 0.8055 0.04307 0.0
C100 C 0.3367 0.72907 0.03464 0.0
C101 C 0.39098 0.72846 0.0672 0.0
C102 C 0.37888 0.69188 0.06217 0.0
N103 N 0.36475 0.75165 0.04952 0.0
N104 N 0.3449 0.69233 0.04156 0.0
H105 H 0.31162 0.73919 1.01757 0.0
H106 H 0.41744 0.73751 0.08189 0.0
C107 C 0.44671 0.81215 0.99933 0.0
O108 O 0.43465 0.83847 0.9716 0.0
N109 N 0.37634 0.86 0.03816 0.0
C110 C 0.35123 0.8866 0.02555 0.0
C111 C 0.36826 0.92147 0.02773 0.0
C112 C 0.40761 0.87955 0.05007 0.0
N113 N 0.40397 0.91703 0.04272 0.0
C114 C 0.32077 0.81306 0.96587 0.0
C115 C 0.36077 0.76538 0.90898 0.0
C116 C 0.32553 0.77875 0.89473 0.0
C117 C 0.30576 0.80342 0.92347 0.0
C118 C 0.37491 0.77599 0.95143 0.0
N119 N 0.35527 0.80001 0.97933 0.0
H120 H 0.30311 0.82859 0.98909 0.0
H121 H 0.40033 0.76232 0.96297 0.0
H122 H 0.32222 0.88176 1.01646 0.0
H123 H 0.43293 0.86637 0.06299 0.0
O124 O 0.32051 0.8122 0.0699 0.0
O125 O 0.37416 0.80994 0.10836 0.0
O126 O 0.42481 0.79727 0.02863 0.0
C127 C 0.33747 0.81216 0.1091 0.0
H128 H 0.39396 0.66683 0.07276 0.0
H129 H 0.35504 0.94809 1.01938 0.0
H130 H 0.37673 0.74575 0.88818 0.0
H131 H 0.2778 0.81331 0.91455 0.0
Co132 Co 0.71727 0.87181 0.54423 0.0
C133 C 0.79367 0.83793 0.53694 0.0
C134 C 0.79447 0.89273 0.5685 0.0
C135 C 0.83103 0.8803 0.5638 0.0
N136 N 0.77119 0.86643 0.55109 0.0
N137 N 0.83045 0.84601 0.5438 0.0
H138 H 0.78347 0.81273 0.52013 0.0
H139 H 0.78554 0.91947 0.5827 0.0
C140 C 0.716 0.9483 0.49855 0.0
O141 O 0.69631 0.93523 0.46412 0.0
N142 N 0.66265 0.87835 0.53918 0.0
C143 C 0.63562 0.85148 0.5403 0.0
C144 C 0.60059 0.86856 0.54245 0.0
C145 C 0.64338 0.91127 0.54232 0.0
N146 N 0.60575 0.90614 0.54327 0.0
C147 C 0.7038 0.82684 0.46435 0.0
C148 C 0.76018 0.85879 0.41221 0.0
C149 C 0.74195 0.82643 0.3959 0.0
C150 C 0.71279 0.81096 0.4221 0.0
C151 C 0.75023 0.87383 0.45448 0.0
N152 N 0.72245 0.85781 0.4803 0.0
H153 H 0.68355 0.81259 0.4854 0.0
H154 H 0.76663 0.89707 0.46765 0.0
H155 H 0.64072 0.82146 0.54159 0.0
H156 H 0.6562 0.9386 0.54683 0.0
O157 O 0.71094 0.82209 0.56979 0.0
O158 O 0.71277 0.87538 0.60943 0.0
O159 O 0.72532 0.92685 0.53144 0.0
C160 C 0.71082 0.8387 0.60935 0.0
H161 H 0.85618 0.8954 0.57403 0.0
H162 H 0.57351 0.85453 0.54386 0.0
H163 H 0.78284 0.87172 0.39315 0.0
H164 H 0.6985 0.78548 0.41134 0.0
Co165 Co 0.15633 0.71447 0.54504 0.0
C166 C 0.19379 0.78869 0.53921 0.0
C167 C 0.1466 0.78955 0.58515 0.0
C168 C 0.163 0.82472 0.58521 0.0
N169 N 0.1659 0.76714 0.55625 0.0
N170 N 0.19241 0.824 0.55615 0.0
H171 H 0.21473 0.77883 0.51513 0.0
H172 H 0.12236 0.78083 0.6048 0.0
C173 C 0.07857 0.71719 0.50327 0.0
O174 O 0.08965 0.69526 0.46969 0.0
N175 N 0.14586 0.66109 0.53552 0.0
C176 C 0.16954 0.63316 0.52262 0.0
C177 C 0.15018 0.5995 0.52236 0.0
C178 C 0.11303 0.64346 0.5452 0.0
N179 N 0.11453 0.60607 0.53636 0.0
C180 C 0.20261 0.70618 0.46545 0.0
C181 C 0.16664 0.76021 0.41368 0.0
C182 C 0.19972 0.74354 0.39681 0.0
C183 C 0.21746 0.71587 0.42312 0.0
C184 C 0.1525 0.74941 0.45608 0.0
N185 N 0.17006 0.72217 0.48132 0.0
H186 H 0.21908 0.68793 0.48673 0.0
H187 H 0.12887 0.76497 0.46978 0.0
H188 H 0.19921 0.63613 0.51566 0.0
H189 H 0.08839 0.65772 0.55853 0.0
O190 O 0.2057 0.70305 0.56949 0.0
O191 O 0.15296 0.70671 0.60976 0.0
O192 O 0.10173 0.72725 0.53424 0.0
C193 C 0.18946 0.70257 0.6092 0.0
H194 H 0.15359 0.84918 0.60425 0.0
H195 H 0.1618 0.57215 0.5137 0.0
H196 H 0.15235 0.7822 0.39488 0.0
H197 H 0.24391 0.70333 0.41232 0.0
Co198 Co 0.30138 0.14988 0.54453 0.0
C199 C 0.22625 0.18565 0.53395 0.0
C200 C 0.22311 0.13142 0.56614 0.0
C201 C 0.18706 0.14479 0.56005 0.0
N202 N 0.24754 0.15681 0.54931 0.0
N203 N 0.18909 0.17873 0.53962 0.0
H204 H 0.23761 0.21032 0.5173 0.0
H205 H 0.23097 0.10467 0.58096 0.0
C206 C 0.30541 0.07391 0.49839 0.0
O207 O 0.33116 0.08618 0.46994 0.0
N208 N 0.35584 0.14179 0.54161 0.0
C209 C 0.38377 0.16753 0.53808 0.0
C210 C 0.41821 0.1494 0.54137 0.0
C211 C 0.37395 0.10879 0.54932 0.0
N212 N 0.41175 0.11242 0.54788 0.0
C213 C 0.31519 0.19665 0.46644 0.0
C214 C 0.26285 0.16183 0.41081 0.0
C215 C 0.27947 0.19545 0.39621 0.0
C216 C 0.30666 0.21243 0.42415 0.0
C217 C 0.27222 0.14699 0.45315 0.0
N218 N 0.29812 0.16429 0.48066 0.0
H219 H 0.33336 0.21217 0.48897 0.0
H220 H 0.25624 0.12312 0.46508 0.0
H221 H 0.37985 0.19759 0.53504 0.0
H222 H 0.36001 0.08256 0.55729 0.0
O223 O 0.30863 0.19917 0.57139 0.0
O224 O 0.30396 0.14579 0.60991 0.0
O225 O 0.29197 0.09527 0.52949 0.0
C226 C 0.30721 0.18239 0.61062 0.0
H227 H 0.16129 0.1306 0.56978 0.0
H228 H 0.44579 0.1623 0.53891 0.0
H229 H 0.24157 0.14783 0.39047 0.0
H230 H 0.3195 0.23898 0.41476 0.0
Co231 Co 0.86676 0.30869 0.54246 0.0
C232 C 0.83354 0.23252 0.53462 0.0
C233 C 0.88654 0.2321 0.57011 0.0
C234 C 0.87438 0.19551 0.56521 0.0
N235 N 0.86116 0.25511 0.55047 0.0
N236 N 0.84123 0.19587 0.54268 0.0
H237 H 0.80931 0.24254 0.5158 0.0
H238 H 0.91253 0.24124 0.5859 0.0
C239 C 0.94446 0.31139 0.4996 0.0
O240 O 0.93223 0.33274 0.4663 0.0
N241 N 0.87361 0.36292 0.53595 0.0
C242 C 0.84804 0.38991 0.526 0.0
C243 C 0.86556 0.4246 0.52698 0.0
C244 C 0.90571 0.382 0.54522 0.0
N245 N 0.90193 0.41952 0.53891 0.0
C246 C 0.8201 0.31696 0.46326 0.0
C247 C 0.85803 0.26509 0.40973 0.0
C248 C 0.8241 0.28039 0.39371 0.0
C249 C 0.80542 0.30711 0.4208 0.0
C250 C 0.87194 0.27601 0.45224 0.0
N251 N 0.8533 0.30204 0.47848 0.0
H252 H 0.80306 0.33433 0.48515 0.0
H253 H 0.89635 0.26138 0.46525 0.0
H254 H 0.81836 0.38547 0.52025 0.0
H255 H 0.93147 0.36873 0.55657 0.0
O256 O 0.81683 0.31601 0.56772 0.0
O257 O 0.86984 0.31451 0.60755 0.0
O258 O 0.922 0.30011 0.5306 0.0
C259 C 0.83316 0.31665 0.60734 0.0
H260 H 0.88894 0.17053 0.577 0.0
H261 H 0.85226 0.45156 0.52053 0.0
H262 H 0.87313 0.24392 0.39024 0.0
H263 H 0.77841 0.31862 0.41056 0.0
C264 C 0.53047 0.26819 1.00625 0.0
C265 C 0.53691 0.22948 1.00104 0.0
C266 C 0.49375 0.28247 1.0104 0.0
C267 C 0.46283 0.25722 1.01099 0.0
C268 C 0.46916 0.21807 1.00456 0.0
C269 C 0.50627 0.20467 0.99895 0.0
C270 C 0.48822 0.3245 1.01591 0.0
C271 C 0.43707 0.19019 1.00618 0.0
C272 C 0.38159 0.29716 0.07952 0.0
C273 C 0.35756 0.31025 0.04537 0.0
C274 C 0.41474 0.27746 0.06869 0.0
C275 C 0.42462 0.27186 0.02249 0.0
C276 C 0.39967 0.28392 0.98783 0.0
C277 C 0.36609 0.30261 0.99979 0.0
C278 C 0.43997 0.26411 0.10672 0.0
C279 C 0.40949 0.27927 0.93821 0.0
H280 H 0.55431 0.28731 1.00757 0.0
H281 H 0.51146 0.17465 0.99536 0.0
H282 H 0.46618 0.33473 0.99218 0.0
H283 H 0.47845 0.33087 0.05094 0.0
H284 H 0.51464 0.34048 1.00961 0.0
H285 H 0.44625 0.16122 0.99667 0.0
H286 H 0.42524 0.18945 0.04109 0.0
H287 H 0.41399 0.19901 0.98311 0.0
H288 H 0.37454 0.30284 0.11474 0.0
H289 H 0.34742 0.31308 0.97351 0.0
H290 H 0.46607 0.28133 0.1075 0.0
H291 H 0.4485 0.23434 0.101 0.0
H292 H 0.426 0.26638 0.14043 0.0
H293 H 0.43314 0.29844 0.92959 0.0
H294 H 0.38523 0.28593 0.91571 0.0
H295 H 0.4191 0.25007 0.93098 0.0
C296 C 0.72423 0.38304 0.0755 0.0
C297 C 0.71063 0.3593 0.0412 0.0
C298 C 0.74378 0.41618 0.06489 0.0
C299 C 0.74877 0.42636 1.01876 0.0
C300 C 0.73621 0.40171 0.98391 0.0
C301 C 0.71764 0.36812 0.99563 0.0
C302 C 0.75765 0.44108 0.10311 0.0
C303 C 0.74022 0.41184 0.93438 0.0
C304 C 0.75258 0.53231 1.00458 0.0
C305 C 0.79129 0.53856 0.99915 0.0
C306 C 0.73822 0.49566 1.00804 0.0
C307 C 0.76338 0.46457 1.00768 0.0
C308 C 0.80251 0.47071 1.00094 0.0
C309 C 0.81598 0.50777 0.99605 0.0
C310 C 0.69621 0.49036 1.01393 0.0
C311 C 0.83032 0.43843 1.00153 0.0
H312 H 0.71904 0.37578 0.11069 0.0
H313 H 0.70681 0.3497 0.96924 0.0
H314 H 0.7874 0.44944 0.09712 0.0
H315 H 0.74052 0.46728 0.10449 0.0
H316 H 0.75575 0.42692 0.13664 0.0
H317 H 0.73326 0.38777 0.91161 0.0
H318 H 0.72093 0.43561 0.92642 0.0
H319 H 0.76933 0.42139 0.92688 0.0
H320 H 0.73354 0.55625 1.00666 0.0
H321 H 0.84599 0.51278 0.99229 0.0
H322 H 0.69019 0.48037 0.04886 0.0
H323 H 0.68567 0.46858 0.98995 0.0
H324 H 0.68024 0.51692 1.00826 0.0
H325 H 0.83151 0.42632 0.03621 0.0
H326 H 0.85918 0.44748 0.99169 0.0
H327 H 0.82109 0.4156 0.97821 0.0
C328 C 0.65621 0.7242 0.99536 0.0
C329 C 0.66298 0.71442 0.0407 0.0
C330 C 0.62341 0.74404 0.98319 0.0
C331 C 0.59742 0.75495 1.01744 0.0
C332 C 0.60559 0.74721 0.0636 0.0
C333 C 0.63803 0.72654 0.07457 0.0
C334 C 0.61546 0.75107 0.93356 0.0
C335 C 0.57914 0.75914 0.10129 0.0
C336 C 0.51622 0.82313 0.99715 0.0
C337 C 0.48568 0.79817 0.99661 0.0
C338 C 0.5533 0.80951 1.00207 0.0
C339 C 0.55963 0.77011 1.00526 0.0
C340 C 0.52885 0.74488 1.00157 0.0
C341 C 0.49218 0.75928 0.99807 0.0
C342 C 0.58527 0.83729 1.00683 0.0
C343 C 0.53437 0.70266 1.00367 0.0
H344 H 0.67559 0.71455 0.96925 0.0
H345 H 0.64374 0.71929 0.10964 0.0
H346 H 0.59241 0.73215 0.92212 0.0
H347 H 0.60581 0.78049 0.92818 0.0
H348 H 0.64065 0.74572 0.91195 0.0
H349 H 0.59189 0.75528 0.13544 0.0
H350 H 0.57103 0.7892 0.09737 0.0
H351 H 0.55291 0.74216 0.09953 0.0
H352 H 0.51093 0.85326 0.99648 0.0
H353 H 0.46839 0.74008 0.99742 0.0
H354 H 0.60926 0.82913 0.98463 0.0
H355 H 0.59567 0.83706 0.04238 0.0
H356 H 0.57639 0.8665 0.99831 0.0
H357 H 0.55719 0.6937 0.98013 0.0
H358 H 0.50823 0.68703 0.99485 0.0
H359 H 0.54301 0.69449 0.0385 0.0
C360 C 0.22972 0.50685 0.96724 0.0
C361 C 0.22953 0.484 1.00603 0.0
C362 C 0.24526 0.54334 0.96867 0.0
C363 C 0.26052 0.55724 1.00994 0.0
C364 C 0.25881 0.53485 0.04957 0.0
C365 C 0.24354 0.49852 0.04707 0.0
C366 C 0.24677 0.56636 0.92569 0.0
C367 C 0.27439 0.54871 0.09439 0.0
C368 C 0.34124 0.62681 1.0143 0.0
C369 C 0.323 0.6599 0.02856 0.0
C370 C 0.32086 0.59378 1.00544 0.0
C371 C 0.28122 0.5937 1.01146 0.0
C372 C 0.26239 0.62753 0.02379 0.0
C373 C 0.28356 0.66037 0.03196 0.0
C374 C 0.34201 0.55849 0.99174 0.0
C375 C 0.22022 0.62852 0.03079 0.0
H376 H 0.21891 0.49579 0.93544 0.0
H377 H 0.24306 0.48123 0.07736 0.0
H378 H 0.2356 0.59517 0.93192 0.0
H379 H 0.27654 0.56937 0.91459 0.0
H380 H 0.23046 0.55317 0.89761 0.0
H381 H 0.26825 0.52903 0.12272 0.0
H382 H 0.30544 0.55205 0.09172 0.0
H383 H 0.26237 0.57676 0.10298 0.0
H384 H 0.37167 0.62666 1.01071 0.0
H385 H 0.26946 0.68595 0.04304 0.0
H386 H 0.32879 0.54542 0.96139 0.0
H387 H 0.34063 0.5376 1.01966 0.0
H388 H 0.37216 0.5642 0.98409 0.0
H389 H 0.20553 0.615 1.00173 0.0
H390 H 0.2094 0.65776 0.03491 0.0
H391 H 0.21288 0.61228 0.0617 0.0
C392 C 0.02567 0.74643 0.54673 0.0
C393 C 0.03914 0.73091 0.5059 0.0
C394 C 0.98929 0.76167 0.54984 0.0
C395 C 0.96576 0.76182 0.51102 0.0
C396 C 0.97865 0.74517 0.47 0.0
C397 C 0.01522 0.72969 0.46797 0.0
C398 C 0.97653 0.77879 0.59439 0.0
C399 C 0.95441 0.74502 0.42786 0.0
C400 C 0.86292 0.78471 0.5357 0.0
C401 C 0.86281 0.82399 0.53065 0.0
C402 C 0.89583 0.76358 0.52733 0.0
C403 C 0.92907 0.78225 0.51298 0.0
C404 C 0.92831 0.82162 0.50526 0.0
C405 C 0.89527 0.84201 0.5145 0.0
C406 C 0.89561 0.7217 0.53625 0.0
C407 C 0.96292 0.84257 0.48931 0.0
H408 H 0.04378 0.74706 0.5764 0.0
H409 H 0.02544 0.71769 0.43634 0.0
H410 H 0.9727 0.80967 0.59038 0.0
H411 H 0.94888 0.76688 0.60461 0.0
H412 H 0.99711 0.77386 0.62221 0.0
H413 H 0.96709 0.728 0.39998 0.0
H414 H 0.92598 0.73371 0.43562 0.0
H415 H 0.95056 0.77436 0.4157 0.0
H416 H 0.83778 0.77083 0.54823 0.0
H417 H 0.8949 0.87229 0.50969 0.0
H418 H 0.91286 0.7156 0.56682 0.0
H419 H 0.90848 0.70612 0.50737 0.0
H420 H 0.86664 0.7108 0.54201 0.0
H421 H 0.98459 0.84241 0.51649 0.0
H422 H 0.95656 0.87234 0.48046 0.0
H423 H 0.97535 0.82837 0.45914 0.0
C424 C 0.31772 1.00475 0.49344 0.0
C425 C 0.29212 0.03478 0.49611 0.0
C426 C 0.30533 0.96739 0.49884 0.0
C427 C 0.2664 0.96026 0.50571 0.0
C428 C 0.24029 0.99055 0.5052 0.0
C429 C 0.25358 0.02752 0.5012 0.0
C430 C 0.33408 0.93596 0.5002 0.0
C431 C 0.19845 0.98413 0.51115 0.0
C432 C 0.22241 0.863 0.49753 0.0
C433 C 0.21546 0.85543 0.54345 0.0
C434 C 0.24069 0.89633 0.48444 0.0
C435 C 0.25294 0.92205 0.51829 0.0
C436 C 0.24817 0.91309 0.56482 0.0
C437 C 0.22894 0.88011 0.57679 0.0
C438 C 0.24455 0.90512 0.43452 0.0
C439 C 0.26171 0.93924 0.602 0.0
H440 H 0.34758 1.0106 0.48985 0.0
H441 H 0.23387 0.05093 0.50296 0.0
H442 H 0.33634 0.92519 0.53544 0.0
H443 H 0.32511 0.91205 0.47835 0.0
H444 H 0.36244 0.94552 0.48906 0.0
H445 H 0.18171 1.01005 0.50448 0.0
H446 H 0.1886 0.96146 0.48795 0.0
H447 H 0.19265 0.97487 0.54643 0.0
H448 H 0.21167 0.84382 0.47186 0.0
H449 H 0.22383 0.87378 0.61226 0.0
H450 H 0.27321 0.9158 0.42672 0.0
H451 H 0.22416 0.92763 0.42536 0.0
H452 H 0.23886 0.88003 0.41284 0.0
H453 H 0.29123 0.94808 0.59547 0.0
H454 H 0.26027 0.92589 0.63604 0.0
H455 H 0.244 0.96508 0.60256 0.0
C456 C 0.15951 0.24113 0.52853 0.0
C457 C 0.15772 0.20171 0.52559 0.0
C458 C 0.12754 0.26342 0.5195 0.0
C459 C 0.09327 0.24574 0.5069 0.0
C460 C 0.09212 0.2061 0.50115 0.0
C461 C 0.12431 0.1846 0.51074 0.0
C462 C 0.12985 0.30558 0.52607 0.0
C463 C 0.0563 0.18613 0.48725 0.0
C464 C 0.99881 0.28548 0.5428 0.0
C465 C 0.9843 0.29901 0.50164 0.0
C466 C 0.03506 0.26996 0.54529 0.0
C467 C 0.05742 0.26757 0.50552 0.0
C468 C 0.04371 0.28276 0.46422 0.0
C469 C 1.00723 0.2985 0.46279 0.0
C470 C 0.04869 0.25445 0.59014 0.0
C471 C 0.06677 0.28068 0.42116 0.0
H472 H 0.18535 0.25437 0.53999 0.0
H473 H 0.12318 0.15419 0.50741 0.0
H474 H 0.11651 0.32048 0.49715 0.0
H475 H 0.11416 0.31371 0.55725 0.0
H476 H 0.15947 0.3154 0.52955 0.0
H477 H 0.06117 0.15579 0.47966 0.0
H478 H 0.03525 0.18831 0.51508 0.0
H479 H 0.04386 0.19967 0.45683 0.0
H480 H 0.98146 0.2863 0.57315 0.0
H481 H 0.99616 0.30898 0.43092 0.0
H482 H 0.07704 0.26576 0.59837 0.0
H483 H 0.05128 0.22331 0.58774 0.0
H484 H 0.02922 0.26139 0.61858 0.0
H485 H 0.09602 0.29046 0.42746 0.0
H486 H 0.05427 0.29785 0.39347 0.0
H487 H 0.06853 0.25094 0.40947 0.0
C488 C 0.78032 0.16468 0.52755 0.0
C489 C 0.81985 0.16354 0.52829 0.0
C490 C 0.75928 0.13217 0.51746 0.0
C491 C 0.77838 0.09798 0.50759 0.0
C492 C 0.81829 0.09735 0.50567 0.0
C493 C 0.8385 0.13011 0.51623 0.0
C494 C 0.71678 0.1339 0.51993 0.0
C495 C 0.83975 0.06158 0.49477 0.0
C496 C 0.73821 1.00393 0.54246 0.0
C497 C 0.72754 0.98828 0.50058 0.0
C498 C 0.75291 0.04042 0.54531 0.0
C499 C 0.75738 0.06181 0.50521 0.0
C500 C 0.74505 0.04694 0.46301 0.0
C501 C 0.73006 1.01025 0.4612 0.0
C502 C 0.76533 0.05533 0.59108 0.0
C503 C 0.74943 0.069 0.41959 0.0
H504 H 0.76588 0.19055 0.53683 0.0
H505 H 0.86906 0.12946 0.51568 0.0
H506 H 0.70401 0.11973 0.49001 0.0
H507 H 0.70698 0.11869 0.55063 0.0
H508 H 0.7062 0.16338 0.52173 0.0
H509 H 0.8704 0.06676 0.49 0.0
H510 H 0.83616 0.04113 0.52289 0.0
H511 H 0.82843 0.04824 0.46348 0.0
H512 H 0.7358 0.9873 0.57316 0.0
H513 H 0.72178 0.99827 0.42878 0.0
H514 H 0.75304 0.08367 0.59737 0.0
H515 H 0.79649 0.05835 0.59154 0.0
H516 H 0.75697 0.03644 0.61937 0.0
H517 H 0.73884 0.09824 0.42408 0.0
H518 H 0.73421 0.05562 0.39076 0.0
H519 H 0.77979 0.07088 0.41065 0.0
C520 C 0.29196 0.2307 0.32386 0.0
C521 C 0.2662 0.21425 0.35401 0.0
C522 C 0.2795 0.24935 0.28458 0.0
C523 C 0.24032 0.25183 0.27536 0.0
C524 C 0.21419 0.23525 0.30564 0.0
C525 C 0.22744 0.21666 0.34454 0.0
C526 C 0.30828 0.26658 0.25303 0.0
C527 C 0.17222 0.23755 0.29724 0.0
C528 C 0.21071 0.33118 0.19655 0.0
C529 C 0.2082 0.31241 0.15462 0.0
C530 C 0.21988 0.31158 0.23643 0.0
C531 C 0.2268 0.27226 0.23431 0.0
C532 C 0.22256 0.25288 0.19247 0.0
C533 C 0.21324 0.27318 0.15312 0.0
C534 C 0.22382 0.33326 0.28043 0.0
C535 C 0.22956 0.21095 0.18884 0.0
H536 H 0.32192 0.22874 0.33087 0.0
H537 H 0.20731 0.20465 0.36813 0.0
H538 H 0.30519 0.25451 0.2184 0.0
H539 H 0.30339 0.29742 0.25039 0.0
H540 H 0.33769 0.26177 0.26473 0.0
H541 H 0.15565 0.22268 0.32373 0.0
H542 H 0.16313 0.2675 0.29645 0.0
H543 H 0.16534 0.22507 0.26363 0.0
H544 H 0.20688 0.3615 0.19801 0.0
H545 H 0.2115 0.25847 0.12084 0.0
H546 H 0.2537 0.33274 0.29163 0.0
H547 H 0.20681 0.31982 0.30755 0.0
H548 H 0.21476 0.36313 0.27708 0.0
H549 H 0.2597 0.20486 0.19595 0.0
H550 H 0.22255 0.19966 0.15461 0.0
H551 H 0.2126 0.19568 0.21454 0.0
C552 C 0.74735 0.21299 0.14959 0.0
C553 C 0.708 0.20876 0.15098 0.0
C554 C 0.76793 0.22173 0.18904 0.0
C555 C 0.74875 0.22615 0.23096 0.0
C556 C 0.70931 0.21988 0.23299 0.0
C557 C 0.68941 0.21136 0.19297 0.0
C558 C 0.80992 0.22817 0.18538 0.0
C559 C 0.68783 0.22397 0.27706 0.0
C560 C 0.80468 0.22772 0.34146 0.0
C561 C 0.80659 0.26654 0.35082 0.0
C562 C 0.78619 0.21411 0.30247 0.0
C563 C 0.76939 0.23993 0.27194 0.0
C564 C 0.77176 0.27917 0.28086 0.0
C565 C 0.79019 0.29196 0.32024 0.0
C566 C 0.784 0.1721 0.29441 0.0
C567 C 0.75448 0.30767 0.24901 0.0
H568 H 0.76195 0.21116 0.11728 0.0
H569 H 0.65902 0.20814 0.19437 0.0
H570 H 0.81625 0.25832 0.19211 0.0
H571 H 0.82514 0.21137 0.2113 0.0
H572 H 0.82109 0.22061 0.15125 0.0
H573 H 0.65797 0.21487 0.27378 0.0
H574 H 0.70149 0.20711 0.30416 0.0
H575 H 0.68824 0.25389 0.28821 0.0
H576 H 0.81676 0.20788 0.36532 0.0
H577 H 0.7918 0.32197 0.32714 0.0
H578 H 0.79612 0.1649 0.26071 0.0
H579 H 0.75406 0.16302 0.29408 0.0
H580 H 0.79923 0.15579 0.32086 0.0
H581 H 0.76628 0.30401 0.21434 0.0
H582 H 0.75953 0.33718 0.26027 0.0
H583 H 0.72358 0.30306 0.24666 0.0
C584 C 0.80854 0.74715 0.15269 0.0
C585 C 0.81121 0.70767 0.1532 0.0
C586 C 0.79971 0.76754 0.19235 0.0
C587 C 0.79351 0.74801 0.23355 0.0
C588 C 0.79798 0.70831 0.23472 0.0
C589 C 0.80673 0.68862 0.19453 0.0
C590 C 0.79533 0.80984 0.18968 0.0
C591 C 0.79188 0.68644 0.27802 0.0
C592 C 0.79383 0.80271 0.3451 0.0
C593 C 0.75508 0.80737 0.35354 0.0
C594 C 0.80678 0.7836 0.30618 0.0
C595 C 0.78038 0.76882 0.27479 0.0
C596 C 0.74123 0.77362 0.28293 0.0
C597 C 0.72907 0.79275 0.32224 0.0
C598 C 0.84871 0.77884 0.29892 0.0
C599 C 0.71215 0.75841 0.2502 0.0
H600 H 0.81184 0.7621 0.12089 0.0
H601 H 0.80869 0.65812 0.19523 0.0
H602 H 0.76548 0.81768 0.19622 0.0
H603 H 0.81269 0.82378 0.2162 0.0
H604 H 0.80366 0.82106 0.15595 0.0
H605 H 0.79922 0.65612 0.27408 0.0
H606 H 0.80909 0.69856 0.30593 0.0
H607 H 0.76185 0.68861 0.28843 0.0
H608 H 0.81413 0.81331 0.36953 0.0
H609 H 0.69912 0.79647 0.32836 0.0
H610 H 0.85705 0.79123 0.26586 0.0
H611 H 0.85598 0.74841 0.29759 0.0
H612 H 0.86557 0.7924 0.32627 0.0
H613 H 0.71666 0.7706 0.21596 0.0
H614 H 0.68283 0.76483 0.26121 0.0
H615 H 0.71528 0.72737 0.24692 0.0
C616 C 0.27646 0.80636 0.1514 0.0
C617 C 0.31591 0.80964 0.1522 0.0
C618 C 0.256 0.79854 0.19118 0.0
C619 C 0.27542 0.79399 0.23284 0.0
C620 C 0.31505 0.79904 0.23423 0.0
C621 C 0.33482 0.80674 0.19389 0.0
C622 C 0.21378 0.79346 0.18823 0.0
C623 C 0.33682 0.79465 0.27797 0.0
C624 C 0.22054 0.79524 0.3443 0.0
C625 C 0.2173 0.75658 0.35368 0.0
C626 C 0.23909 0.8079 0.30497 0.0
C627 C 0.25472 0.78129 0.27421 0.0
C628 C 0.25104 0.74224 0.28321 0.0
C629 C 0.23247 0.73039 0.32282 0.0
C630 C 0.24262 0.84975 0.29679 0.0
C631 C 0.26709 0.7129 0.2512 0.0
H632 H 0.26159 0.80851 0.11934 0.0
H633 H 0.36529 0.80926 0.19484 0.0
H634 H 0.20648 0.76367 0.19553 0.0
H635 H 0.19939 0.81122 0.21411 0.0
H636 H 0.20256 0.80081 0.15416 0.0
H637 H 0.36698 0.80251 0.27413 0.0
H638 H 0.32411 0.81237 0.30512 0.0
H639 H 0.33533 0.76491 0.28942 0.0
H640 H 0.20945 0.81566 0.36837 0.0
H641 H 0.22979 0.7005 0.32969 0.0
H642 H 0.23148 0.85699 0.26271 0.0
H643 H 0.27282 0.85795 0.29739 0.0
H644 H 0.22729 0.86673 0.32272 0.0
H645 H 0.255 0.71659 0.21674 0.0
H646 H 0.26126 0.68368 0.26269 0.0
H647 H 0.29808 0.71654 0.24826 0.0
C648 C 0.7174 0.77749 0.65065 0.0
C649 C 0.71327 0.81683 0.65205 0.0
C650 C 0.72518 0.75691 0.69026 0.0
C651 C 0.72877 0.77612 0.73231 0.0
C652 C 0.72285 0.81561 0.73424 0.0
C653 C 0.71524 0.8355 0.69409 0.0
C654 C 0.73125 0.71483 0.68676 0.0
C655 C 0.72618 0.83713 0.77844 0.0
C656 C 0.72688 0.72045 0.84266 0.0
C657 C 0.76543 0.71799 0.85312 0.0
C658 C 0.71446 0.73909 0.80335 0.0
C659 C 0.74126 0.75539 0.77364 0.0
C660 C 0.78025 0.75248 0.78374 0.0
C661 C 0.79183 0.73399 0.82347 0.0
C662 C 0.67266 0.74196 0.79408 0.0
C663 C 0.80975 0.76923 0.75279 0.0
H664 H 0.71597 0.76284 0.6183 0.0
H665 H 0.71203 0.86589 0.69548 0.0
H666 H 0.76109 0.70803 0.69474 0.0
H667 H 0.71342 0.69994 0.71193 0.0
H668 H 0.72467 0.70374 0.65232 0.0
H669 H 0.71773 0.86716 0.77489 0.0
H670 H 0.70836 0.82392 0.80496 0.0
H671 H 0.7558 0.83608 0.79057 0.0
H672 H 0.70634 0.70865 0.86591 0.0
H673 H 0.82164 0.73196 0.83136 0.0
H674 H 0.66614 0.73011 0.76004 0.0
H675 H 0.66395 0.77204 0.79381 0.0
H676 H 0.65554 0.72689 0.81988 0.0
H677 H 0.80682 0.75738 0.71802 0.0
H678 H 0.83892 0.76374 0.76494 0.0
H679 H 0.80557 0.80017 0.75031 0.0
C680 C 0.2507 0.71116 0.65007 0.0
C681 C 0.2117 0.70458 0.65174 0.0
C682 C 0.271 0.72047 0.68954 0.0
C683 C 0.25189 0.72297 0.73173 0.0
C684 C 0.21296 0.71418 0.734 0.0
C685 C 0.19332 0.70522 0.69396 0.0
C686 C 0.31245 0.72966 0.68566 0.0
C687 C 0.19162 0.71609 0.77837 0.0
C688 C 0.30851 0.726 0.84155 0.0
C689 C 0.30806 0.76468 0.85198 0.0
C690 C 0.29056 0.71199 0.80244 0.0
C691 C 0.27191 0.73728 0.77285 0.0
C692 C 0.27179 0.77642 0.78291 0.0
C693 C 0.28969 0.7896 0.82245 0.0
C694 C 0.29098 0.67008 0.7932 0.0
C695 C 0.25246 0.80437 0.75205 0.0
H696 H 0.2651 0.71092 0.61757 0.0
H697 H 0.16319 0.70015 0.69555 0.0
H698 H 0.31686 0.76006 0.69302 0.0
H699 H 0.32893 0.71349 0.71104 0.0
H700 H 0.32382 0.72337 0.65126 0.0
H701 H 0.1624 0.70509 0.77515 0.0
H702 H 0.20658 0.69973 0.80491 0.0
H703 H 0.19013 0.74579 0.79027 0.0
H704 H 0.32212 0.70651 0.86465 0.0
H705 H 0.28946 0.81951 0.83024 0.0
H706 H 0.30331 0.66431 0.75922 0.0
H707 H 0.26167 0.65913 0.79282 0.0
H708 H 0.30738 0.65426 0.81906 0.0
H709 H 0.2642 0.80212 0.71718 0.0
H710 H 0.25572 0.83391 0.7641 0.0
H711 H 0.22191 0.79783 0.74986 0.0
C712 C 0.30274 0.24372 0.65272 0.0
C713 C 0.30477 0.2042 0.65362 0.0
C714 C 0.29537 0.26461 0.69244 0.0
C715 C 0.29002 0.24555 0.73414 0.0
C716 C 0.29371 0.20578 0.73561 0.0
C717 C 0.30098 0.18558 0.69533 0.0
C718 C 0.29169 0.30695 0.6894 0.0
C719 C 0.28845 0.18439 0.7794 0.0
C720 C 0.29312 0.30066 0.84552 0.0
C721 C 0.25458 0.30532 0.85516 0.0
C722 C 0.30515 0.28156 0.80611 0.0
C723 C 0.27801 0.26689 0.77551 0.0
C724 C 0.23909 0.27207 0.78473 0.0
C725 C 0.22787 0.29111 0.82444 0.0
C726 C 0.34687 0.27642 0.7977 0.0
C727 C 0.20922 0.25709 0.75287 0.0
H728 H 0.30559 0.25835 0.62064 0.0
H729 H 0.30254 0.15506 0.69635 0.0
H730 H 0.26214 0.31538 0.69684 0.0
H731 H 0.30991 0.32078 0.71514 0.0
H732 H 0.29942 0.31774 0.65525 0.0
H733 H 0.29518 0.15392 0.77558 0.0
H734 H 0.30661 0.19646 0.80646 0.0
H735 H 0.25876 0.18715 0.79097 0.0
H736 H 0.31391 0.31103 0.86948 0.0
H737 H 0.19808 0.29488 0.83154 0.0
H738 H 0.35458 0.28788 0.76393 0.0
H739 H 0.35394 0.24592 0.7973 0.0
H740 H 0.36437 0.29055 0.82402 0.0
H741 H 0.2134 0.26883 0.71835 0.0
H742 H 0.1802 0.26415 0.76445 0.0
H743 H 0.21172 0.22597 0.75002 0.0
C744 C 0.73181 0.23289 0.82187 0.0
C745 C 0.7145 0.25856 0.8517 0.0
C746 C 0.74974 0.24523 0.78206 0.0
C747 C 0.75063 0.28426 0.7719 0.0
C748 C 0.73295 0.31031 0.8017 0.0
C749 C 0.71502 0.29714 0.84118 0.0
C750 C 0.7681 0.21649 0.75109 0.0
C751 C 0.73357 0.35213 0.79232 0.0
C752 C 0.82966 0.31353 0.69214 0.0
C753 C 0.81112 0.31424 0.65006 0.0
C754 C 0.80998 0.30539 0.73238 0.0
C755 C 0.77083 0.2976 0.73049 0.0
C756 C 0.75163 0.30002 0.68841 0.0
C757 C 0.77199 0.30839 0.64871 0.0
C758 C 0.83148 0.30339 0.77658 0.0
C759 C 0.70992 0.29195 0.68495 0.0
H760 H 0.73127 0.20305 0.82969 0.0
H761 H 0.70224 0.31719 0.86449 0.0
H762 H 0.75617 0.21871 0.71636 0.0
H763 H 0.79879 0.22219 0.7485 0.0
H764 H 0.76415 0.18715 0.76331 0.0
H765 H 0.71766 0.36859 0.81824 0.0
H766 H 0.76315 0.36232 0.79174 0.0
H767 H 0.72129 0.3579 0.75839 0.0
H768 H 0.85988 0.31806 0.69351 0.0
H769 H 0.75745 0.30878 0.61633 0.0
H770 H 0.83206 0.27382 0.78878 0.0
H771 H 0.81718 0.32059 0.80307 0.0
H772 H 0.86102 0.3134 0.77301 0.0
H773 H 0.70466 0.26182 0.69276 0.0
H774 H 0.69859 0.29802 0.65055 0.0
H775 H 0.69403 0.309 0.71023 0.0
C776 C 0.93724 0.55583 0.07434 0.0
C777 C 0.94119 0.58463 0.04211 0.0
C778 C 0.96347 0.52605 0.0768 0.0
C779 C 0.99427 0.52485 0.04609 0.0
C780 C 0.99845 0.55387 1.01359 0.0
C781 C 0.97197 0.58335 1.01206 0.0
C782 C 0.95814 0.49576 0.11211 0.0
C783 C 0.03063 0.55352 0.9799 0.0
C784 C 0.08217 0.46661 0.0715 0.0
C785 C 0.07637 0.43441 0.04451 0.0
C786 C 0.05531 0.49584 0.07323 0.0
C787 C 0.02185 0.49297 0.04715 0.0
C788 C 0.01555 0.46031 0.02037 0.0
C789 C 0.0428 0.43147 1.01945 0.0
C790 C 0.06299 0.53005 0.10247 0.0
C791 C 0.98042 0.45624 0.99175 0.0
H792 H 0.9138 0.55674 0.09793 0.0
H793 H 0.97494 0.605 0.98649 0.0
H794 H 0.95445 0.46798 0.09524 0.0
H795 H 0.98365 0.49374 0.13381 0.0
H796 H 0.93326 0.50122 0.13418 0.0
H797 H 0.03014 0.57842 0.95712 0.0
H798 H 0.05801 0.55302 0.99812 0.0
H799 H 0.02926 0.5276 0.95871 0.0
H800 H 0.10769 0.46893 0.09152 0.0
H801 H 0.03824 0.40699 0.99806 0.0
H802 H 0.03923 0.53477 0.12641 0.0
H803 H 0.06513 0.55549 0.0808 0.0
H804 H 0.0895 0.52723 0.12229 0.0
H805 H 0.95487 0.45956 1.01322 0.0
H806 H 0.97904 0.42849 0.97418 0.0
H807 H 0.9796 0.47883 0.96578 0.0
C808 C 0.58262 0.04856 1.01235 0.0
C809 C 0.584 0.07986 0.04174 0.0
C810 C 0.55319 0.02214 1.01478 0.0
C811 C 0.52416 0.02694 0.04738 0.0
C812 C 0.52547 0.0582 0.07749 0.0
C813 C 0.55529 0.08427 0.07428 0.0
C814 C 0.55283 0.98938 0.9818 0.0
C815 C 0.49517 0.0643 0.11284 0.0
C816 C 0.43064 0.97896 0.02076 0.0
C817 C 0.43298 0.94567 0.04639 0.0
C818 C 0.45959 1.00601 0.02171 0.0
C819 C 0.49196 0.99976 0.04885 0.0
C820 C 0.49427 0.96668 0.07554 0.0
C821 C 0.46481 0.94012 0.07404 0.0
C822 C 0.456 0.04081 0.99258 0.0
C823 C 0.52824 0.95895 0.10501 0.0
H824 H 0.60412 0.04509 0.98654 0.0
H825 H 0.55619 0.10802 0.09747 0.0
H826 H 0.55186 0.96233 1.0006 0.0
H827 H 0.52713 0.99074 0.96036 0.0
H828 H 0.57797 0.9891 0.95923 0.0
H829 H 0.50082 0.08932 0.13462 0.0
H830 H 0.46745 0.06819 0.09599 0.0
H831 H 0.49284 0.03906 0.13483 0.0
H832 H 0.40664 0.9835 0.99874 0.0
H833 H 0.46686 0.91492 0.09452 0.0
H834 H 0.47858 0.04086 0.96645 0.0
H835 H 0.45969 0.06657 1.01362 0.0
H836 H 0.42825 0.04245 0.97516 0.0
H837 H 0.55372 0.95578 0.08338 0.0
H838 H 0.52489 0.93296 0.12557 0.0
H839 H 0.53332 0.9831 0.12828 0.0
C840 C 0.47217 0.086 0.57504 0.0
C841 C 0.43909 0.08235 0.54943 0.0
C842 C 0.49903 0.05672 0.57633 0.0
C843 C 0.4932 0.02357 0.55011 0.0
C844 C 0.45984 0.01999 0.52393 0.0
C845 C 0.433 0.04919 0.52447 0.0
C846 C 0.5336 0.06121 0.60576 0.0
C847 C 0.45288 0.98574 0.49447 0.0
C848 C 0.58023 0.9667 0.51671 0.0
C849 C 0.57739 0.93525 0.54514 0.0
C850 C 0.55282 0.99538 0.51761 0.0
C851 C 0.52246 0.99318 0.54885 0.0
C852 C 0.51987 0.96171 0.57827 0.0
C853 C 0.54705 0.93277 0.5755 0.0
C854 C 0.55607 0.02772 0.48462 0.0
C855 C 0.48868 0.95883 0.61303 0.0
H856 H 0.47667 0.11157 0.59457 0.0
H857 H 0.40761 0.04668 0.50422 0.0
H858 H 0.53629 0.03678 0.62901 0.0
H859 H 0.55929 0.0617 0.58424 0.0
H860 H 0.53272 0.08752 0.62636 0.0
H861 H 0.42597 0.9878 0.47527 0.0
H862 H 0.4764 0.98218 0.46989 0.0
H863 H 0.45201 0.95999 0.5157 0.0
H864 H 0.60361 0.96836 0.49305 0.0
H865 H 0.54518 0.90859 0.59778 0.0
H866 H 0.5587 0.05475 0.50342 0.0
H867 H 0.53012 0.02953 0.46366 0.0
H868 H 0.58078 0.02466 0.46164 0.0
H869 H 0.48862 0.98428 0.63512 0.0
H870 H 0.49164 0.93345 0.63476 0.0
H871 H 0.4609 0.95771 0.59578 0.0
C872 C 0.0543 0.58469 0.57029 0.0
C873 C 0.08409 0.57913 0.53949 0.0
C874 C 0.02394 0.55929 0.5725 0.0
C875 C 0.02322 0.52759 0.54308 0.0
C876 C 0.05331 0.52166 0.51216 0.0
C877 C 0.08334 0.54743 0.51081 0.0
C878 C 0.99254 0.56646 0.60616 0.0
C879 C 0.05353 0.48835 0.48001 0.0
C880 C 0.96236 0.44237 0.57082 0.0
C881 C 0.93118 0.44775 0.54215 0.0
C882 C 0.99213 0.46847 0.57217 0.0
C883 C 0.99082 0.50079 0.5441 0.0
C884 C 0.95911 0.50681 0.51576 0.0
C885 C 0.92969 0.48028 0.51519 0.0
C886 C 0.0253 0.46115 0.60309 0.0
C887 C 0.95668 0.5408 0.48514 0.0
H888 H 0.05483 0.60879 0.59299 0.0
H889 H 0.10587 0.54317 0.48645 0.0
H890 H 0.96538 0.56993 0.58792 0.0
H891 H 0.98945 0.54187 0.62905 0.0
H892 H 0.9976 0.59205 0.62716 0.0
H893 H 0.07923 0.48752 0.45839 0.0
H894 H 0.05188 0.46168 0.49947 0.0
H895 H 0.02839 0.4895 0.45761 0.0
H896 H 0.96354 0.41768 0.5923 0.0
H897 H 0.90601 0.48448 0.49254 0.0
H898 H 0.0298 0.48566 0.62599 0.0
H899 H 0.05135 0.4576 0.58256 0.0
H900 H 0.02135 0.43551 0.62413 0.0
H901 H 0.95987 0.56707 0.50536 0.0
H902 H 0.92952 0.54211 0.46639 0.0
H903 H 0.9801 0.54004 0.4601 0.0
loop_
_geom_bond_atom_site_label_1
_geom_bond_atom_site_label_2
_geom_bond_distance
_geom_bond_site_symmetry_2
_ccdc_geom_bond_type
Co0 N4 2.148 . S
Co0 N10 2.128 . S
Co0 N20 2.194 1_554 S
Co0 O25 2.351 . S
Co0 O26 2.155 . S
Co0 O27 2.096 . S
C1 N4 1.301 . S
C1 N5 1.328 . S
C1 H6 0.930 . S
C2 C3 1.333 . S
C2 N4 1.317 . S
C2 H7 0.930 . S
C3 C2 1.333 . S
C3 N5 1.350 . S
C3 H29 0.931 . S
N4 Co0 2.148 . S
N4 C1 1.301 . S
N4 C2 1.317 . S
N5 C1 1.328 . S
N5 C3 1.350 . S
H6 C1 0.930 . S
H7 C2 0.930 . S
C8 O9 1.224 1_554 S
C8 O27 1.247 . S
O9 C8 1.224 1_556 S
N10 Co0 2.128 . S
N10 C11 1.355 . S
N10 C13 1.311 . S
C11 N10 1.355 . S
C11 C12 1.363 1_554 S
C11 H23 0.929 1_554 S
C12 C11 1.363 1_556 S
C12 N14 1.375 1_556 S
C12 H30 0.931 . S
C13 N10 1.311 . S
C13 N14 1.347 . S
C13 H24 0.929 . S
N14 C12 1.375 1_554 S
N14 C13 1.347 . S
C15 C18 1.365 . S
C15 N20 1.328 . S
C15 H21 0.929 . S
C16 C17 1.362 . S
C16 C19 1.378 . S
C16 H31 0.929 . S
C17 C16 1.362 . S
C17 C18 1.366 . S
C18 C15 1.365 . S
C18 C17 1.366 . S
C18 H32 0.930 . S
C19 C16 1.378 . S
C19 N20 1.315 . S
C19 H22 0.930 . S
N20 Co0 2.194 1_556 S
N20 C15 1.328 . S
N20 C19 1.315 . S
H21 C15 0.929 . S
H22 C19 0.930 . S
H23 C11 0.929 1_556 S
H24 C13 0.929 . S
O25 Co0 2.351 . S
O25 C28 1.244 . S
O26 Co0 2.155 . S
O26 C28 1.240 . S
O27 Co0 2.096 . S
O27 C8 1.247 . S
C28 O25 1.244 . S
C28 O26 1.240 . S
H29 C3 0.931 . S
H30 C12 0.931 . S
H31 C16 0.929 . S
H32 C18 0.930 . S
Co33 N37 2.148 . S
Co33 N43 2.128 . S
Co33 N53 2.194 1_554 S
Co33 O58 2.351 . S
Co33 O59 2.155 . S
Co33 O60 2.096 . S
C34 N37 1.301 . S
C34 N38 1.328 . S
C34 H39 0.930 . S
C35 C36 1.333 . S
C35 N37 1.317 . S
C35 H40 0.930 . S
C36 C35 1.333 . S
C36 N38 1.350 . S
C36 H62 0.931 . S
N37 Co33 2.148 . S
N37 C34 1.301 . S
N37 C35 1.317 . S
N38 C34 1.328 . S
N38 C36 1.350 . S
H39 C34 0.930 . S
H40 C35 0.930 . S
C41 O42 1.224 1_554 S
C41 O60 1.247 . S
O42 C41 1.224 1_556 S
N43 Co33 2.128 . S
N43 C44 1.355 . S
N43 C46 1.311 . S
C44 N43 1.355 . S
C44 C45 1.363 1_554 S
C44 H56 0.929 1_554 S
C45 C44 1.363 1_556 S
C45 N47 1.375 1_556 S
C45 H63 0.931 . S
C46 N43 1.311 . S
C46 N47 1.347 . S
C46 H57 0.929 . S
N47 C45 1.375 1_554 S
N47 C46 1.347 . S
C48 C51 1.365 . S
C48 N53 1.328 . S
C48 H54 0.929 . S
C49 C50 1.362 . S
C49 C52 1.378 . S
C49 H64 0.929 . S
C50 C49 1.362 . S
C50 C51 1.366 . S
C51 C48 1.365 . S
C51 C50 1.366 . S
C51 H65 0.930 . S
C52 C49 1.378 . S
C52 N53 1.315 . S
C52 H55 0.930 . S
N53 Co33 2.194 1_556 S
N53 C48 1.328 . S
N53 C52 1.315 . S
H54 C48 0.929 . S
H55 C52 0.930 . S
H56 C44 0.929 1_556 S
H57 C46 0.929 . S
O58 Co33 2.351 . S
O58 C61 1.244 . S
O59 Co33 2.155 . S
O59 C61 1.240 . S
O60 Co33 2.096 . S
O60 C41 1.247 . S
C61 O58 1.244 . S
C61 O59 1.240 . S
H62 C36 0.931 . S
H63 C45 0.931 . S
H64 C49 0.929 . S
H65 C51 0.930 . S
Co66 N70 2.148 . S
Co66 N76 2.128 . S
Co66 N86 2.194 1_554 S
Co66 O91 2.351 . S
Co66 O92 2.155 . S
Co66 O93 2.096 . S
C67 N70 1.301 . S
C67 N71 1.328 . S
C67 H72 0.930 . S
C68 C69 1.333 . S
C68 N70 1.317 . S
C68 H73 0.930 . S
C69 C68 1.333 . S
C69 N71 1.350 . S
C69 H95 0.931 . S
N70 Co66 2.148 . S
N70 C67 1.301 . S
N70 C68 1.317 . S
N71 C67 1.328 . S
N71 C69 1.350 . S
H72 C67 0.930 . S
H73 C68 0.930 . S
C74 O75 1.224 1_554 S
C74 O93 1.247 . S
O75 C74 1.224 1_556 S
N76 Co66 2.128 . S
N76 C77 1.355 . S
N76 C79 1.311 . S
C77 N76 1.355 . S
C77 C78 1.363 1_554 S
C77 H89 0.929 1_554 S
C78 C77 1.363 1_556 S
C78 N80 1.375 1_556 S
C78 H96 0.931 . S
C79 N76 1.311 . S
C79 N80 1.347 . S
C79 H90 0.929 . S
N80 C78 1.375 1_554 S
N80 C79 1.347 . S
C81 C84 1.365 . S
C81 N86 1.328 . S
C81 H87 0.929 . S
C82 C83 1.362 . S
C82 C85 1.378 . S
C82 H97 0.929 . S
C83 C82 1.362 . S
C83 C84 1.366 . S
C84 C81 1.365 . S
C84 C83 1.366 . S
C84 H98 0.930 . S
C85 C82 1.378 . S
C85 N86 1.315 . S
C85 H88 0.930 . S
N86 Co66 2.194 1_556 S
N86 C81 1.328 . S
N86 C85 1.315 . S
H87 C81 0.929 . S
H88 C85 0.930 . S
H89 C77 0.929 1_556 S
H90 C79 0.929 . S
O91 Co66 2.351 . S
O91 C94 1.244 . S
O92 Co66 2.155 . S
O92 C94 1.240 . S
O93 Co66 2.096 . S
O93 C74 1.247 . S
C94 O91 1.244 . S
C94 O92 1.240 . S
H95 C69 0.931 . S
H96 C78 0.931 . S
H97 C82 0.929 . S
H98 C84 0.930 . S
Co99 N103 2.148 . S
Co99 N109 2.128 . S
Co99 N119 2.194 1_554 S
Co99 O124 2.351 . S
Co99 O125 2.155 . S
Co99 O126 2.096 . S
C100 N103 1.301 . S
C100 N104 1.328 . S
C100 H105 0.930 . S
C101 C102 1.333 . S
C101 N103 1.317 . S
C101 H106 0.930 . S
C102 C101 1.333 . S
C102 N104 1.350 . S
C102 H128 0.931 . S
N103 Co99 2.148 . S
N103 C100 1.301 . S
N103 C101 1.317 . S
N104 C100 1.328 . S
N104 C102 1.350 . S
H105 C100 0.930 . S
H106 C101 0.930 . S
C107 O108 1.224 1_554 S
C107 O126 1.247 . S
O108 C107 1.224 1_556 S
N109 Co99 2.128 . S
N109 C110 1.355 . S
N109 C112 1.311 . S
C110 N109 1.355 . S
C110 C111 1.363 1_554 S
C110 H122 0.929 1_554 S
C111 C110 1.363 1_556 S
C111 N113 1.375 1_556 S
C111 H129 0.931 . S
C112 N109 1.311 . S
C112 N113 1.347 . S
C112 H123 0.929 . S
N113 C111 1.375 1_554 S
N113 C112 1.347 . S
C114 C117 1.365 . S
C114 N119 1.328 . S
C114 H120 0.929 . S
C115 C116 1.362 . S
C115 C118 1.378 . S
C115 H130 0.929 . S
C116 C115 1.362 . S
C116 C117 1.366 . S
C117 C114 1.365 . S
C117 C116 1.366 . S
C117 H131 0.930 . S
C118 C115 1.378 . S
C118 N119 1.315 . S
C118 H121 0.930 . S
N119 Co99 2.194 1_556 S
N119 C114 1.328 . S
N119 C118 1.315 . S
H120 C114 0.929 . S
H121 C118 0.930 . S
H122 C110 0.929 1_556 S
H123 C112 0.929 . S
O124 Co99 2.351 . S
O124 C127 1.244 . S
O125 Co99 2.155 . S
O125 C127 1.240 . S
O126 Co99 2.096 . S
O126 C107 1.247 . S
C127 O124 1.244 . S
C127 O125 1.240 . S
H128 C102 0.931 . S
H129 C111 0.931 . S
H130 C115 0.929 . S
H131 C117 0.930 . S
Co132 N136 2.148 . S
Co132 N142 2.128 . S
Co132 N152 2.194 . S
Co132 O157 2.351 . S
Co132 O158 2.155 . S
Co132 O159 2.096 . S
C133 N136 1.301 . S
C133 N137 1.328 . S
C133 H138 0.930 . S
C134 C135 1.333 . S
C134 N136 1.317 . S
C134 H139 0.930 . S
C135 C134 1.333 . S
C135 N137 1.350 . S
C135 H161 0.931 . S
N136 Co132 2.148 . S
N136 C133 1.301 . S
N136 C134 1.317 . S
N137 C133 1.328 . S
N137 C135 1.350 . S
H138 C133 0.930 . S
H139 C134 0.930 . S
C140 O141 1.224 . S
C140 O159 1.247 . S
O141 C140 1.224 . S
N142 Co132 2.128 . S
N142 C143 1.355 . S
N142 C145 1.311 . S
C143 N142 1.355 . S
C143 C144 1.363 . S
C143 H155 0.929 . S
C144 C143 1.363 . S
C144 N146 1.375 . S
C144 H162 0.931 . S
C145 N142 1.311 . S
C145 N146 1.347 . S
C145 H156 0.929 . S
N146 C144 1.375 . S
N146 C145 1.347 . S
C147 C150 1.365 . S
C147 N152 1.328 . S
C147 H153 0.929 . S
C148 C149 1.362 . S
C148 C151 1.378 . S
C148 H163 0.929 . S
C149 C148 1.362 . S
C149 C150 1.366 . S
C150 C147 1.365 . S
C150 C149 1.366 . S
C150 H164 0.930 . S
C151 C148 1.378 . S
C151 N152 1.315 . S
C151 H154 0.930 . S
N152 Co132 2.194 . S
N152 C147 1.328 . S
N152 C151 1.315 . S
H153 C147 0.929 . S
H154 C151 0.930 . S
H155 C143 0.929 . S
H156 C145 0.929 . S
O157 Co132 2.351 . S
O157 C160 1.244 . S
O158 Co132 2.155 . S
O158 C160 1.240 . S
O159 Co132 2.096 . S
O159 C140 1.247 . S
C160 O157 1.244 . S
C160 O158 1.240 . S
H161 C135 0.931 . S
H162 C144 0.931 . S
H163 C148 0.929 . S
H164 C150 0.930 . S
Co165 N169 2.148 . S
Co165 N175 2.128 . S
Co165 N185 2.194 . S
Co165 O190 2.351 . S
Co165 O191 2.155 . S
Co165 O192 2.096 . S
C166 N169 1.301 . S
C166 N170 1.328 . S
C166 H171 0.930 . S
C167 C168 1.333 . S
C167 N169 1.317 . S
C167 H172 0.930 . S
C168 C167 1.333 . S
C168 N170 1.350 . S
C168 H194 0.931 . S
N169 Co165 2.148 . S
N169 C166 1.301 . S
N169 C167 1.317 . S
N170 C166 1.328 . S
N170 C168 1.350 . S
H171 C166 0.930 . S
H172 C167 0.930 . S
C173 O174 1.224 . S
C173 O192 1.247 . S
O174 C173 1.224 . S
N175 Co165 2.128 . S
N175 C176 1.355 . S
N175 C178 1.311 . S
C176 N175 1.355 . S
C176 C177 1.363 . S
C176 H188 0.929 . S
C177 C176 1.363 . S
C177 N179 1.375 . S
C177 H195 0.931 . S
C178 N175 1.311 . S
C178 N179 1.347 . S
C178 H189 0.929 . S
N179 C177 1.375 . S
N179 C178 1.347 . S
C180 C183 1.365 . S
C180 N185 1.328 . S
C180 H186 0.929 . S
C181 C182 1.362 . S
C181 C184 1.378 . S
C181 H196 0.929 . S
C182 C181 1.362 . S
C182 C183 1.366 . S
C183 C180 1.365 . S
C183 C182 1.366 . S
C183 H197 0.930 . S
C184 C181 1.378 . S
C184 N185 1.315 . S
C184 H187 0.930 . S
N185 Co165 2.194 . S
N185 C180 1.328 . S
N185 C184 1.315 . S
H186 C180 0.929 . S
H187 C184 0.930 . S
H188 C176 0.929 . S
H189 C178 0.929 . S
O190 Co165 2.351 . S
O190 C193 1.244 . S
O191 Co165 2.155 . S
O191 C193 1.240 . S
O192 Co165 2.096 . S
O192 C173 1.247 . S
C193 O190 1.244 . S
C193 O191 1.240 . S
H194 C168 0.931 . S
H195 C177 0.931 . S
H196 C181 0.929 . S
H197 C183 0.930 . S
Co198 N202 2.148 . S
Co198 N208 2.128 . S
Co198 N218 2.194 . S
Co198 O223 2.351 . S
Co198 O224 2.155 . S
Co198 O225 2.096 . S
C199 N202 1.301 . S
C199 N203 1.328 . S
C199 H204 0.930 . S
C200 C201 1.333 . S
C200 N202 1.317 . S
C200 H205 0.930 . S
C201 C200 1.333 . S
C201 N203 1.350 . S
C201 H227 0.931 . S
N202 Co198 2.148 . S
N202 C199 1.301 . S
N202 C200 1.317 . S
N203 C199 1.328 . S
N203 C201 1.350 . S
H204 C199 0.930 . S
H205 C200 0.930 . S
C206 O207 1.224 . S
C206 O225 1.247 . S
O207 C206 1.224 . S
N208 Co198 2.128 . S
N208 C209 1.355 . S
N208 C211 1.311 . S
C209 N208 1.355 . S
C209 C210 1.363 . S
C209 H221 0.929 . S
C210 C209 1.363 . S
C210 N212 1.375 . S
C210 H228 0.931 . S
C211 N208 1.311 . S
C211 N212 1.347 . S
C211 H222 0.929 . S
N212 C210 1.375 . S
N212 C211 1.347 . S
C213 C216 1.365 . S
C213 N218 1.328 . S
C213 H219 0.929 . S
C214 C215 1.362 . S
C214 C217 1.378 . S
C214 H229 0.929 . S
C215 C214 1.362 . S
C215 C216 1.366 . S
C216 C213 1.365 . S
C216 C215 1.366 . S
C216 H230 0.930 . S
C217 C214 1.378 . S
C217 N218 1.315 . S
C217 H220 0.930 . S
N218 Co198 2.194 . S
N218 C213 1.328 . S
N218 C217 1.315 . S
H219 C213 0.929 . S
H220 C217 0.930 . S
H221 C209 0.929 . S
H222 C211 0.929 . S
O223 Co198 2.351 . S
O223 C226 1.244 . S
O224 Co198 2.155 . S
O224 C226 1.240 . S
O225 Co198 2.096 . S
O225 C206 1.247 . S
C226 O223 1.244 . S
C226 O224 1.240 . S
H227 C201 0.931 . S
H228 C210 0.931 . S
H229 C214 0.929 . S
H230 C216 0.930 . S
Co231 N235 2.148 . S
Co231 N241 2.128 . S
Co231 N251 2.194 . S
Co231 O256 2.351 . S
Co231 O257 2.155 . S
Co231 O258 2.096 . S
C232 N235 1.301 . S
C232 N236 1.328 . S
C232 H237 0.930 . S
C233 C234 1.333 . S
C233 N235 1.317 . S
C233 H238 0.930 . S
C234 C233 1.333 . S
C234 N236 1.350 . S
C234 H260 0.931 . S
N235 Co231 2.148 . S
N235 C232 1.301 . S
N235 C233 1.317 . S
N236 C232 1.328 . S
N236 C234 1.350 . S
H237 C232 0.930 . S
H238 C233 0.930 . S
C239 O240 1.224 . S
C239 O258 1.247 . S
O240 C239 1.224 . S
N241 Co231 2.128 . S
N241 C242 1.355 . S
N241 C244 1.311 . S
C242 N241 1.355 . S
C242 C243 1.363 . S
C242 H254 0.929 . S
C243 C242 1.363 . S
C243 N245 1.375 . S
C243 H261 0.931 . S
C244 N241 1.311 . S
C244 N245 1.347 . S
C244 H255 0.929 . S
N245 C243 1.375 . S
N245 C244 1.347 . S
C246 C249 1.365 . S
C246 N251 1.328 . S
C246 H252 0.929 . S
C247 C248 1.362 . S
C247 C250 1.378 . S
C247 H262 0.929 . S
C248 C247 1.362 . S
C248 C249 1.366 . S
C249 C246 1.365 . S
C249 C248 1.366 . S
C249 H263 0.930 . S
C250 C247 1.378 . S
C250 N251 1.315 . S
C250 H253 0.930 . S
N251 Co231 2.194 . S
N251 C246 1.328 . S
N251 C250 1.315 . S
H252 C246 0.929 . S
H253 C250 0.930 . S
H254 C242 0.929 . S
H255 C244 0.929 . S
O256 Co231 2.351 . S
O256 C259 1.244 . S
O257 Co231 2.155 . S
O257 C259 1.240 . S
O258 Co231 2.096 . S
O258 C239 1.247 . S
C259 O256 1.244 . S
C259 O257 1.240 . S
H260 C234 0.931 . S
H261 C243 0.931 . S
H262 C247 0.929 . S
H263 C249 0.930 . S
C264 C265 1.389 1_556 S
C264 C266 1.394 . S
C264 H280 0.931 . S
C265 C264 1.389 1_554 S
C265 C269 1.378 . S
C266 C264 1.394 . S
C266 C267 1.369 1_556 S
C266 C270 1.531 . S
C267 C266 1.369 1_554 S
C267 C268 1.410 . S
C267 C275 1.503 . S
C268 C267 1.410 . S
C268 C269 1.392 . S
C268 C271 1.511 . S
C269 C265 1.378 . S
C269 C268 1.392 . S
C269 H281 0.929 . S
C270 C266 1.531 . S
C270 H282 0.960 . S
C270 H283 0.962 . S
C270 H284 0.960 . S
C271 C268 1.511 . S
C271 H285 0.961 . S
C271 H286 0.961 . S
C271 H287 0.961 . S
C272 C273 1.370 . S
C272 C274 1.363 . S
C272 H288 0.931 . S
C273 C272 1.370 . S
C273 C277 1.408 1_554 S
C274 C272 1.363 . S
C274 C275 1.370 . S
C274 C278 1.524 . S
C275 C267 1.503 . S
C275 C274 1.370 . S
C275 C276 1.403 1_554 S
C276 C275 1.403 1_556 S
C276 C277 1.404 . S
C276 C279 1.539 . S
C277 C273 1.408 1_556 S
C277 C276 1.404 . S
C277 H289 0.930 . S
C278 C274 1.524 . S
C278 H290 0.956 . S
C278 H291 0.961 . S
C278 H292 0.961 . S
C279 C276 1.539 . S
C279 H293 0.958 . S
C279 H294 0.961 . S
C279 H295 0.960 . S
H280 C264 0.931 . S
H281 C269 0.929 . S
H282 C270 0.960 . S
H283 C270 0.962 . S
H284 C270 0.960 . S
H285 C271 0.961 . S
H286 C271 0.961 . S
H287 C271 0.961 . S
H288 C272 0.931 . S
H289 C277 0.930 . S
H290 C278 0.956 . S
H291 C278 0.961 . S
H292 C278 0.961 . S
H293 C279 0.958 . S
H294 C279 0.961 . S
H295 C279 0.960 . S
C296 C297 1.391 . S
C296 C298 1.394 . S
C296 H312 0.931 . S
C297 C296 1.391 . S
C297 C301 1.376 1_554 S
C298 C296 1.394 . S
C298 C299 1.369 . S
C298 C302 1.531 . S
C299 C298 1.369 . S
C299 C300 1.410 1_554 S
C299 C307 1.503 . S
C300 C299 1.410 1_556 S
C300 C301 1.392 . S
C300 C303 1.511 . S
C301 C297 1.376 1_556 S
C301 C300 1.392 . S
C301 H313 0.929 . S
C302 C298 1.531 . S
C302 H314 0.960 . S
C302 H315 0.962 . S
C302 H316 0.960 . S
C303 C300 1.511 . S
C303 H317 0.961 . S
C303 H318 0.961 . S
C303 H319 0.961 . S
C304 C305 1.370 1_556 S
C304 C306 1.363 . S
C304 H320 0.931 . S
C305 C304 1.370 1_554 S
C305 C309 1.408 . S
C306 C304 1.363 . S
C306 C307 1.370 1_556 S
C306 C310 1.524 . S
C307 C299 1.503 . S
C307 C306 1.370 1_554 S
C307 C308 1.403 . S
C308 C307 1.403 . S
C308 C309 1.404 . S
C308 C311 1.539 . S
C309 C305 1.408 . S
C309 C308 1.404 . S
C309 H321 0.930 . S
C310 C306 1.524 . S
C310 H322 0.956 1_556 S
C310 H323 0.961 . S
C310 H324 0.961 . S
C311 C308 1.539 . S
C311 H325 0.958 . S
C311 H326 0.961 . S
C311 H327 0.960 . S
H312 C296 0.931 . S
H313 C301 0.929 . S
H314 C302 0.960 . S
H315 C302 0.962 . S
H316 C302 0.960 . S
H317 C303 0.961 . S
H318 C303 0.961 . S
H319 C303 0.961 . S
H320 C304 0.931 . S
H321 C309 0.930 . S
H322 C310 0.956 1_554 S
H323 C310 0.961 . S
H324 C310 0.961 . S
H325 C311 0.958 . S
H326 C311 0.961 . S
H327 C311 0.960 . S
C328 C329 1.391 1_556 S
C328 C330 1.394 . S
C328 H344 0.931 . S
C329 C328 1.391 1_554 S
C329 C333 1.376 . S
C330 C328 1.394 . S
C330 C331 1.369 1_556 S
C330 C334 1.531 . S
C331 C330 1.369 1_554 S
C331 C332 1.410 . S
C331 C339 1.503 . S
C332 C331 1.410 . S
C332 C333 1.392 . S
C332 C335 1.511 . S
C333 C329 1.376 . S
C333 C332 1.392 . S
C333 H345 0.929 . S
C334 C330 1.531 . S
C334 H346 0.960 . S
C334 H347 0.962 . S
C334 H348 0.960 . S
C335 C332 1.511 . S
C335 H349 0.961 . S
C335 H350 0.961 . S
C335 H351 0.961 . S
C336 C337 1.370 . S
C336 C338 1.363 . S
C336 H352 0.931 . S
C337 C336 1.370 . S
C337 C341 1.408 1_554 S
C338 C336 1.363 . S
C338 C339 1.370 . S
C338 C342 1.524 . S
C339 C331 1.503 . S
C339 C338 1.370 . S
C339 C340 1.403 1_554 S
C340 C339 1.403 1_556 S
C340 C341 1.404 . S
C340 C343 1.539 . S
C341 C337 1.408 1_556 S
C341 C340 1.404 . S
C341 H353 0.930 . S
C342 C338 1.524 . S
C342 H354 0.956 . S
C342 H355 0.961 . S
C342 H356 0.961 . S
C343 C340 1.539 . S
C343 H357 0.958 . S
C343 H358 0.961 . S
C343 H359 0.960 . S
H344 C328 0.931 . S
H345 C333 0.929 . S
H346 C334 0.960 . S
H347 C334 0.962 . S
H348 C334 0.960 . S
H349 C335 0.961 . S
H350 C335 0.961 . S
H351 C335 0.961 . S
H352 C336 0.931 . S
H353 C341 0.930 . S
H354 C342 0.956 . S
H355 C342 0.961 . S
H356 C342 0.961 . S
H357 C343 0.958 . S
H358 C343 0.961 . S
H359 C343 0.960 . S
C360 C361 1.391 1_556 S
C360 C362 1.394 . S
C360 H376 0.931 . S
C361 C360 1.391 1_554 S
C361 C365 1.376 . S
C362 C360 1.394 . S
C362 C363 1.369 1_556 S
C362 C366 1.531 . S
C363 C362 1.369 1_554 S
C363 C364 1.410 . S
C363 C371 1.503 . S
C364 C363 1.410 . S
C364 C365 1.392 . S
C364 C367 1.511 . S
C365 C361 1.376 . S
C365 C364 1.392 . S
C365 H377 0.929 . S
C366 C362 1.531 . S
C366 H378 0.960 . S
C366 H379 0.962 . S
C366 H380 0.960 . S
C367 C364 1.511 . S
C367 H381 0.961 . S
C367 H382 0.961 . S
C367 H383 0.961 . S
C368 C369 1.370 . S
C368 C370 1.363 . S
C368 H384 0.931 . S
C369 C368 1.370 . S
C369 C373 1.408 . S
C370 C368 1.363 . S
C370 C371 1.370 . S
C370 C374 1.524 . S
C371 C363 1.503 . S
C371 C370 1.370 . S
C371 C372 1.403 . S
C372 C371 1.403 . S
C372 C373 1.404 . S
C372 C375 1.539 1_554 S
C373 C369 1.408 . S
C373 C372 1.404 . S
C373 H385 0.930 1_554 S
C374 C370 1.524 . S
C374 H386 0.956 . S
C374 H387 0.961 . S
C374 H388 0.961 . S
C375 C372 1.539 1_556 S
C375 H389 0.958 . S
C375 H390 0.961 . S
C375 H391 0.959 1_556 S
H376 C360 0.931 . S
H377 C365 0.929 . S
H378 C366 0.960 . S
H379 C366 0.962 . S
H380 C366 0.960 . S
H381 C367 0.961 . S
H382 C367 0.961 . S
H383 C367 0.961 . S
H384 C368 0.931 . S
H385 C373 0.930 1_556 S
H386 C374 0.956 . S
H387 C374 0.961 . S
H388 C374 0.961 . S
H389 C375 0.958 . S
H390 C375 0.961 . S
H391 C375 0.959 1_554 S
C392 C393 1.391 . S
C392 C394 1.389 1_455 S
C392 H408 0.931 . S
C393 C392 1.391 . S
C393 C397 1.376 . S
C394 C392 1.389 1_655 S
C394 C395 1.372 . S
C394 C398 1.532 . S
C395 C394 1.372 . S
C395 C396 1.410 . S
C395 C403 1.503 . S
C396 C395 1.410 . S
C396 C397 1.392 1_655 S
C396 C399 1.511 . S
C397 C393 1.376 . S
C397 C396 1.392 1_455 S
C397 H409 0.929 . S
C398 C394 1.532 . S
C398 H410 0.960 . S
C398 H411 0.962 . S
C398 H412 0.960 1_655 S
C399 C396 1.511 . S
C399 H413 0.961 . S
C399 H414 0.961 . S
C399 H415 0.961 . S
C400 C401 1.370 . S
C400 C402 1.363 . S
C400 H416 0.931 . S
C401 C400 1.370 . S
C401 C405 1.408 . S
C402 C400 1.363 . S
C402 C403 1.370 . S
C402 C406 1.524 . S
C403 C395 1.503 . S
C403 C402 1.370 . S
C403 C404 1.403 . S
C404 C403 1.403 . S
C404 C405 1.404 . S
C404 C407 1.539 . S
C405 C401 1.408 . S
C405 C404 1.404 . S
C405 H417 0.930 . S
C406 C402 1.524 . S
C406 H418 0.956 . S
C406 H419 0.961 . S
C406 H420 0.961 . S
C407 C404 1.539 . S
C407 H421 0.958 . S
C407 H422 0.961 . S
C407 H423 0.960 . S
H408 C392 0.931 . S
H409 C397 0.929 . S
H410 C398 0.960 . S
H411 C398 0.962 . S
H412 C398 0.960 1_455 S
H413 C399 0.961 . S
H414 C399 0.961 . S
H415 C399 0.961 . S
H416 C400 0.931 . S
H417 C405 0.930 . S
H418 C406 0.956 . S
H419 C406 0.961 . S
H420 C406 0.961 . S
H421 C407 0.958 . S
H422 C407 0.961 . S
H423 C407 0.960 . S
C424 C425 1.391 . S
C424 C426 1.394 1_545 S
C424 H440 0.931 . S
C425 C424 1.391 . S
C425 C429 1.376 . S
C426 C424 1.394 1_565 S
C426 C427 1.369 . S
C426 C430 1.531 . S
C427 C426 1.369 . S
C427 C428 1.410 . S
C427 C435 1.503 . S
C428 C427 1.410 . S
C428 C429 1.392 1_565 S
C428 C431 1.511 . S
C429 C425 1.376 . S
C429 C428 1.392 1_545 S
C429 H441 0.929 . S
C430 C426 1.531 . S
C430 H442 0.960 . S
C430 H443 0.962 . S
C430 H444 0.960 . S
C431 C428 1.511 . S
C431 H445 0.965 . S
C431 H446 0.961 . S
C431 H447 0.961 . S
C432 C433 1.370 . S
C432 C434 1.363 . S
C432 H448 0.931 . S
C433 C432 1.370 . S
C433 C437 1.408 . S
C434 C432 1.363 . S
C434 C435 1.370 . S
C434 C438 1.524 . S
C435 C427 1.503 . S
C435 C434 1.370 . S
C435 C436 1.403 . S
C436 C435 1.403 . S
C436 C437 1.404 . S
C436 C439 1.539 . S
C437 C433 1.408 . S
C437 C436 1.404 . S
C437 H449 0.930 . S
C438 C434 1.524 . S
C438 H450 0.956 . S
C438 H451 0.961 . S
C438 H452 0.961 . S
C439 C436 1.539 . S
C439 H453 0.958 . S
C439 H454 0.961 . S
C439 H455 0.960 . S
H440 C424 0.931 . S
H441 C429 0.929 . S
H442 C430 0.960 . S
H443 C430 0.962 . S
H444 C430 0.960 . S
H445 C431 0.965 . S
H446 C431 0.961 . S
H447 C431 0.961 . S
H448 C432 0.931 . S
H449 C437 0.930 . S
H450 C438 0.956 . S
H451 C438 0.961 . S
H452 C438 0.961 . S
H453 C439 0.958 . S
H454 C439 0.961 . S
H455 C439 0.960 . S
C456 C457 1.391 . S
C456 C458 1.394 . S
C456 H472 0.931 . S
C457 C456 1.391 . S
C457 C461 1.376 . S
C458 C456 1.394 . S
C458 C459 1.369 . S
C458 C462 1.531 . S
C459 C458 1.369 . S
C459 C460 1.410 . S
C459 C467 1.503 . S
C460 C459 1.410 . S
C460 C461 1.392 . S
C460 C463 1.511 . S
C461 C457 1.376 . S
C461 C460 1.392 . S
C461 H473 0.929 . S
C462 C458 1.531 . S
C462 H474 0.960 . S
C462 H475 0.962 . S
C462 H476 0.960 . S
C463 C460 1.511 . S
C463 H477 0.961 . S
C463 H478 0.961 . S
C463 H479 0.961 . S
C464 C465 1.370 . S
C464 C466 1.363 1_655 S
C464 H480 0.931 . S
C465 C464 1.370 . S
C465 C469 1.408 . S
C466 C464 1.363 1_455 S
C466 C467 1.370 . S
C466 C470 1.524 . S
C467 C459 1.503 . S
C467 C466 1.370 . S
C467 C468 1.403 . S
C468 C467 1.403 . S
C468 C469 1.404 1_455 S
C468 C471 1.539 . S
C469 C465 1.408 . S
C469 C468 1.404 1_655 S
C469 H481 0.930 . S
C470 C466 1.524 . S
C470 H482 0.956 . S
C470 H483 0.961 . S
C470 H484 0.961 . S
C471 C468 1.539 . S
C471 H485 0.958 . S
C471 H486 0.961 . S
C471 H487 0.960 . S
H472 C456 0.931 . S
H473 C461 0.929 . S
H474 C462 0.960 . S
H475 C462 0.962 . S
H476 C462 0.960 . S
H477 C463 0.961 . S
H478 C463 0.961 . S
H479 C463 0.961 . S
H480 C464 0.931 . S
H481 C469 0.930 . S
H482 C470 0.956 . S
H483 C470 0.961 . S
H484 C470 0.961 . S
H485 C471 0.958 . S
H486 C471 0.961 . S
H487 C471 0.960 . S
C488 C489 1.391 . S
C488 C490 1.394 . S
C488 H504 0.931 . S
C489 C488 1.391 . S
C489 C493 1.376 . S
C490 C488 1.394 . S
C490 C491 1.369 . S
C490 C494 1.531 . S
C491 C490 1.369 . S
C491 C492 1.410 . S
C491 C499 1.503 . S
C492 C491 1.410 . S
C492 C493 1.392 . S
C492 C495 1.511 . S
C493 C489 1.376 . S
C493 C492 1.392 . S
C493 H505 0.929 . S
C494 C490 1.531 . S
C494 H506 0.960 . S
C494 H507 0.962 . S
C494 H508 0.960 . S
C495 C492 1.511 . S
C495 H509 0.961 . S
C495 H510 0.961 . S
C495 H511 0.961 . S
C496 C497 1.370 . S
C496 C498 1.363 1_565 S
C496 H512 0.931 . S
C497 C496 1.370 . S
C497 C501 1.408 . S
C498 C496 1.363 1_545 S
C498 C499 1.370 . S
C498 C502 1.524 . S
C499 C491 1.503 . S
C499 C498 1.370 . S
C499 C500 1.403 . S
C500 C499 1.403 . S
C500 C501 1.404 1_545 S
C500 C503 1.539 . S
C501 C497 1.408 . S
C501 C500 1.404 1_565 S
C501 H513 0.930 . S
C502 C498 1.524 . S
C502 H514 0.956 . S
C502 H515 0.961 . S
C502 H516 0.961 . S
C503 C500 1.539 . S
C503 H517 0.958 . S
C503 H518 0.961 . S
C503 H519 0.960 . S
H504 C488 0.931 . S
H505 C493 0.929 . S
H506 C494 0.960 . S
H507 C494 0.962 . S
H508 C494 0.960 . S
H509 C495 0.961 . S
H510 C495 0.961 . S
H511 C495 0.961 . S
H512 C496 0.931 . S
H513 C501 0.930 . S
H514 C502 0.956 . S
H515 C502 0.961 . S
H516 C502 0.961 . S
H517 C503 0.958 . S
H518 C503 0.961 . S
H519 C503 0.960 . S
C520 C521 1.391 . S
C520 C522 1.394 . S
C520 H536 0.931 . S
C521 C520 1.391 . S
C521 C525 1.376 . S
C522 C520 1.394 . S
C522 C523 1.369 . S
C522 C526 1.531 . S
C523 C522 1.369 . S
C523 C524 1.410 . S
C523 C531 1.503 . S
C524 C523 1.410 . S
C524 C525 1.392 . S
C524 C527 1.511 . S
C525 C521 1.376 . S
C525 C524 1.392 . S
C525 H537 0.929 . S
C526 C522 1.531 . S
C526 H538 0.960 . S
C526 H539 0.962 . S
C526 H540 0.960 . S
C527 C524 1.511 . S
C527 H541 0.961 . S
C527 H542 0.961 . S
C527 H543 0.961 . S
C528 C529 1.370 . S
C528 C530 1.363 . S
C528 H544 0.931 . S
C529 C528 1.370 . S
C529 C533 1.408 . S
C530 C528 1.363 . S
C530 C531 1.370 . S
C530 C534 1.524 . S
C531 C523 1.503 . S
C531 C530 1.370 . S
C531 C532 1.403 . S
C532 C531 1.403 . S
C532 C533 1.404 . S
C532 C535 1.539 . S
C533 C529 1.408 . S
C533 C532 1.404 . S
C533 H545 0.930 . S
C534 C530 1.524 . S
C534 H546 0.956 . S
C534 H547 0.961 . S
C534 H548 0.961 . S
C535 C532 1.539 . S
C535 H549 0.958 . S
C535 H550 0.961 . S
C535 H551 0.960 . S
H536 C520 0.931 . S
H537 C525 0.929 . S
H538 C526 0.960 . S
H539 C526 0.962 . S
H540 C526 0.960 . S
H541 C527 0.961 . S
H542 C527 0.961 . S
H543 C527 0.961 . S
H544 C528 0.931 . S
H545 C533 0.930 . S
H546 C534 0.956 . S
H547 C534 0.961 . S
H548 C534 0.961 . S
H549 C535 0.958 . S
H550 C535 0.961 . S
H551 C535 0.960 . S
C552 C553 1.391 . S
C552 C554 1.394 . S
C552 H568 0.931 . S
C553 C552 1.391 . S
C553 C557 1.376 . S
C554 C552 1.394 . S
C554 C555 1.369 . S
C554 C558 1.531 . S
C555 C554 1.369 . S
C555 C556 1.410 . S
C555 C563 1.503 . S
C556 C555 1.410 . S
C556 C557 1.392 . S
C556 C559 1.511 . S
C557 C553 1.376 . S
C557 C556 1.392 . S
C557 H569 0.929 . S
C558 C554 1.531 . S
C558 H570 0.960 . S
C558 H571 0.962 . S
C558 H572 0.960 . S
C559 C556 1.511 . S
C559 H573 0.961 . S
C559 H574 0.961 . S
C559 H575 0.961 . S
C560 C561 1.370 . S
C560 C562 1.363 . S
C560 H576 0.931 . S
C561 C560 1.370 . S
C561 C565 1.408 . S
C562 C560 1.363 . S
C562 C563 1.370 . S
C562 C566 1.524 . S
C563 C555 1.503 . S
C563 C562 1.370 . S
C563 C564 1.403 . S
C564 C563 1.403 . S
C564 C565 1.404 . S
C564 C567 1.539 . S
C565 C561 1.408 . S
C565 C564 1.404 . S
C565 H577 0.930 . S
C566 C562 1.524 . S
C566 H578 0.956 . S
C566 H579 0.961 . S
C566 H580 0.961 . S
C567 C564 1.539 . S
C567 H581 0.958 . S
C567 H582 0.961 . S
C567 H583 0.960 . S
H568 C552 0.931 . S
H569 C557 0.929 . S
H570 C558 0.960 . S
H571 C558 0.962 . S
H572 C558 0.960 . S
H573 C559 0.961 . S
H574 C559 0.961 . S
H575 C559 0.961 . S
H576 C560 0.931 . S
H577 C565 0.930 . S
H578 C566 0.956 . S
H579 C566 0.961 . S
H580 C566 0.961 . S
H581 C567 0.958 . S
H582 C567 0.961 . S
H583 C567 0.960 . S
C584 C585 1.391 . S
C584 C586 1.394 . S
C584 H600 0.931 . S
C585 C584 1.391 . S
C585 C589 1.376 . S
C586 C584 1.394 . S
C586 C587 1.369 . S
C586 C590 1.531 . S
C587 C586 1.369 . S
C587 C588 1.410 . S
C587 C595 1.503 . S
C588 C587 1.410 . S
C588 C589 1.392 . S
C588 C591 1.511 . S
C589 C585 1.376 . S
C589 C588 1.392 . S
C589 H601 0.929 . S
C590 C586 1.531 . S
C590 H602 0.960 . S
C590 H603 0.962 . S
C590 H604 0.960 . S
C591 C588 1.511 . S
C591 H605 0.961 . S
C591 H606 0.961 . S
C591 H607 0.961 . S
C592 C593 1.370 . S
C592 C594 1.363 . S
C592 H608 0.931 . S
C593 C592 1.370 . S
C593 C597 1.408 . S
C594 C592 1.363 . S
C594 C595 1.370 . S
C594 C598 1.524 . S
C595 C587 1.503 . S
C595 C594 1.370 . S
C595 C596 1.403 . S
C596 C595 1.403 . S
C596 C597 1.404 . S
C596 C599 1.539 . S
C597 C593 1.408 . S
C597 C596 1.404 . S
C597 H609 0.930 . S
C598 C594 1.524 . S
C598 H610 0.956 . S
C598 H611 0.961 . S
C598 H612 0.961 . S
C599 C596 1.539 . S
C599 H613 0.958 . S
C599 H614 0.961 . S
C599 H615 0.960 . S
H600 C584 0.931 . S
H601 C589 0.929 . S
H602 C590 0.960 . S
H603 C590 0.962 . S
H604 C590 0.960 . S
H605 C591 0.961 . S
H606 C591 0.961 . S
H607 C591 0.961 . S
H608 C592 0.931 . S
H609 C597 0.930 . S
H610 C598 0.956 . S
H611 C598 0.961 . S
H612 C598 0.961 . S
H613 C599 0.958 . S
H614 C599 0.961 . S
H615 C599 0.960 . S
C616 C617 1.391 . S
C616 C618 1.394 . S
C616 H632 0.931 . S
C617 C616 1.391 . S
C617 C621 1.376 . S
C618 C616 1.394 . S
C618 C619 1.369 . S
C618 C622 1.531 . S
C619 C618 1.369 . S
C619 C620 1.410 . S
C619 C627 1.503 . S
C620 C619 1.410 . S
C620 C621 1.392 . S
C620 C623 1.511 . S
C621 C617 1.376 . S
C621 C620 1.392 . S
C621 H633 0.929 . S
C622 C618 1.531 . S
C622 H634 0.960 . S
C622 H635 0.962 . S
C622 H636 0.960 . S
C623 C620 1.511 . S
C623 H637 0.961 . S
C623 H638 0.961 . S
C623 H639 0.961 . S
C624 C625 1.370 . S
C624 C626 1.363 . S
C624 H640 0.931 . S
C625 C624 1.370 . S
C625 C629 1.408 . S
C626 C624 1.363 . S
C626 C627 1.370 . S
C626 C630 1.524 . S
C627 C619 1.503 . S
C627 C626 1.370 . S
C627 C628 1.403 . S
C628 C627 1.403 . S
C628 C629 1.404 . S
C628 C631 1.539 . S
C629 C625 1.408 . S
C629 C628 1.404 . S
C629 H641 0.930 . S
C630 C626 1.524 . S
C630 H642 0.956 . S
C630 H643 0.961 . S
C630 H644 0.961 . S
C631 C628 1.539 . S
C631 H645 0.958 . S
C631 H646 0.961 . S
C631 H647 0.960 . S
H632 C616 0.931 . S
H633 C621 0.929 . S
H634 C622 0.960 . S
H635 C622 0.962 . S
H636 C622 0.960 . S
H637 C623 0.961 . S
H638 C623 0.961 . S
H639 C623 0.961 . S
H640 C624 0.931 . S
H641 C629 0.930 . S
H642 C630 0.956 . S
H643 C630 0.961 . S
H644 C630 0.961 . S
H645 C631 0.958 . S
H646 C631 0.961 . S
H647 C631 0.960 . S
C648 C649 1.391 . S
C648 C650 1.394 . S
C648 H664 0.931 . S
C649 C648 1.391 . S
C649 C653 1.376 . S
C650 C648 1.394 . S
C650 C651 1.369 . S
C650 C654 1.531 . S
C651 C650 1.369 . S
C651 C652 1.410 . S
C651 C659 1.503 . S
C652 C651 1.410 . S
C652 C653 1.392 . S
C652 C655 1.511 . S
C653 C649 1.376 . S
C653 C652 1.392 . S
C653 H665 0.929 . S
C654 C650 1.531 . S
C654 H666 0.960 . S
C654 H667 0.962 . S
C654 H668 0.960 . S
C655 C652 1.511 . S
C655 H669 0.961 . S
C655 H670 0.961 . S
C655 H671 0.961 . S
C656 C657 1.370 . S
C656 C658 1.363 . S
C656 H672 0.931 . S
C657 C656 1.370 . S
C657 C661 1.408 . S
C658 C656 1.363 . S
C658 C659 1.370 . S
C658 C662 1.524 . S
C659 C651 1.503 . S
C659 C658 1.370 . S
C659 C660 1.403 . S
C660 C659 1.403 . S
C660 C661 1.404 . S
C660 C663 1.539 . S
C661 C657 1.408 . S
C661 C660 1.404 . S
C661 H673 0.930 . S
C662 C658 1.524 . S
C662 H674 0.956 . S
C662 H675 0.961 . S
C662 H676 0.961 . S
C663 C660 1.539 . S
C663 H677 0.958 . S
C663 H678 0.961 . S
C663 H679 0.960 . S
H664 C648 0.931 . S
H665 C653 0.929 . S
H666 C654 0.960 . S
H667 C654 0.962 . S
H668 C654 0.960 . S
H669 C655 0.961 . S
H670 C655 0.961 . S
H671 C655 0.961 . S
H672 C656 0.931 . S
H673 C661 0.930 . S
H674 C662 0.956 . S
H675 C662 0.961 . S
H676 C662 0.961 . S
H677 C663 0.958 . S
H678 C663 0.961 . S
H679 C663 0.960 . S
C680 C681 1.391 . S
C680 C682 1.394 . S
C680 H696 0.931 . S
C681 C680 1.391 . S
C681 C685 1.376 . S
C682 C680 1.394 . S
C682 C683 1.369 . S
C682 C686 1.531 . S
C683 C682 1.369 . S
C683 C684 1.410 . S
C683 C691 1.503 . S
C684 C683 1.410 . S
C684 C685 1.392 . S
C684 C687 1.511 . S
C685 C681 1.376 . S
C685 C684 1.392 . S
C685 H697 0.929 . S
C686 C682 1.531 . S
C686 H698 0.960 . S
C686 H699 0.962 . S
C686 H700 0.960 . S
C687 C684 1.511 . S
C687 H701 0.961 . S
C687 H702 0.961 . S
C687 H703 0.961 . S
C688 C689 1.370 . S
C688 C690 1.363 . S
C688 H704 0.931 . S
C689 C688 1.370 . S
C689 C693 1.408 . S
C690 C688 1.363 . S
C690 C691 1.370 . S
C690 C694 1.524 . S
C691 C683 1.503 . S
C691 C690 1.370 . S
C691 C692 1.403 . S
C692 C691 1.403 . S
C692 C693 1.404 . S
C692 C695 1.539 . S
C693 C689 1.408 . S
C693 C692 1.404 . S
C693 H705 0.930 . S
C694 C690 1.524 . S
C694 H706 0.956 . S
C694 H707 0.961 . S
C694 H708 0.961 . S
C695 C692 1.539 . S
C695 H709 0.958 . S
C695 H710 0.961 . S
C695 H711 0.960 . S
H696 C680 0.931 . S
H697 C685 0.929 . S
H698 C686 0.960 . S
H699 C686 0.962 . S
H700 C686 0.960 . S
H701 C687 0.961 . S
H702 C687 0.961 . S
H703 C687 0.961 . S
H704 C688 0.931 . S
H705 C693 0.930 . S
H706 C694 0.956 . S
H707 C694 0.961 . S
H708 C694 0.961 . S
H709 C695 0.958 . S
H710 C695 0.961 . S
H711 C695 0.960 . S
C712 C713 1.391 . S
C712 C714 1.394 . S
C712 H728 0.931 . S
C713 C712 1.391 . S
C713 C717 1.376 . S
C714 C712 1.394 . S
C714 C715 1.369 . S
C714 C718 1.531 . S
C715 C714 1.369 . S
C715 C716 1.410 . S
C715 C723 1.503 . S
C716 C715 1.410 . S
C716 C717 1.392 . S
C716 C719 1.511 . S
C717 C713 1.376 . S
C717 C716 1.392 . S
C717 H729 0.929 . S
C718 C714 1.531 . S
C718 H730 0.960 . S
C718 H731 0.962 . S
C718 H732 0.960 . S
C719 C716 1.511 . S
C719 H733 0.961 . S
C719 H734 0.961 . S
C719 H735 0.961 . S
C720 C721 1.370 . S
C720 C722 1.363 . S
C720 H736 0.931 . S
C721 C720 1.370 . S
C721 C725 1.408 . S
C722 C720 1.363 . S
C722 C723 1.370 . S
C722 C726 1.524 . S
C723 C715 1.503 . S
C723 C722 1.370 . S
C723 C724 1.403 . S
C724 C723 1.403 . S
C724 C725 1.404 . S
C724 C727 1.539 . S
C725 C721 1.408 . S
C725 C724 1.404 . S
C725 H737 0.930 . S
C726 C722 1.524 . S
C726 H738 0.956 . S
C726 H739 0.961 . S
C726 H740 0.961 . S
C727 C724 1.539 . S
C727 H741 0.958 . S
C727 H742 0.961 . S
C727 H743 0.960 . S
H728 C712 0.931 . S
H729 C717 0.929 . S
H730 C718 0.960 . S
H731 C718 0.962 . S
H732 C718 0.960 . S
H733 C719 0.961 . S
H734 C719 0.961 . S
H735 C719 0.961 . S
H736 C720 0.931 . S
H737 C725 0.930 . S
H738 C726 0.956 . S
H739 C726 0.961 . S
H740 C726 0.961 . S
H741 C727 0.958 . S
H742 C727 0.961 . S
H743 C727 0.960 . S
C744 C745 1.391 . S
C744 C746 1.394 . S
C744 H760 0.931 . S
C745 C744 1.391 . S
C745 C749 1.376 . S
C746 C744 1.394 . S
C746 C747 1.369 . S
C746 C750 1.531 . S
C747 C746 1.369 . S
C747 C748 1.410 . S
C747 C755 1.503 . S
C748 C747 1.410 . S
C748 C749 1.392 . S
C748 C751 1.511 . S
C749 C745 1.376 . S
C749 C748 1.392 . S
C749 H761 0.929 . S
C750 C746 1.531 . S
C750 H762 0.960 . S
C750 H763 0.962 . S
C750 H764 0.960 . S
C751 C748 1.511 . S
C751 H765 0.961 . S
C751 H766 0.961 . S
C751 H767 0.961 . S
C752 C753 1.370 . S
C752 C754 1.363 . S
C752 H768 0.931 . S
C753 C752 1.370 . S
C753 C757 1.408 . S
C754 C752 1.363 . S
C754 C755 1.370 . S
C754 C758 1.524 . S
C755 C747 1.503 . S
C755 C754 1.370 . S
C755 C756 1.403 . S
C756 C755 1.403 . S
C756 C757 1.404 . S
C756 C759 1.539 . S
C757 C753 1.408 . S
C757 C756 1.404 . S
C757 H769 0.930 . S
C758 C754 1.524 . S
C758 H770 0.956 . S
C758 H771 0.961 . S
C758 H772 0.961 . S
C759 C756 1.539 . S
C759 H773 0.958 . S
C759 H774 0.961 . S
C759 H775 0.960 . S
H760 C744 0.931 . S
H761 C749 0.929 . S
H762 C750 0.960 . S
H763 C750 0.962 . S
H764 C750 0.960 . S
H765 C751 0.961 . S
H766 C751 0.961 . S
H767 C751 0.961 . S
H768 C752 0.931 . S
H769 C757 0.930 . S
H770 C758 0.956 . S
H771 C758 0.961 . S
H772 C758 0.961 . S
H773 C759 0.958 . S
H774 C759 0.961 . S
H775 C759 0.960 . S
C776 C777 1.391 . S
C776 C778 1.394 . S
C776 H792 0.931 . S
C777 C776 1.391 . S
C777 C781 1.376 1_554 S
C778 C776 1.394 . S
C778 C779 1.369 . S
C778 C782 1.531 . S
C779 C778 1.369 . S
C779 C780 1.410 1_554 S
C779 C787 1.503 1_655 S
C780 C779 1.410 1_556 S
C780 C781 1.392 . S
C780 C783 1.515 . S
C781 C777 1.376 1_556 S
C781 C780 1.392 . S
C781 H793 0.929 . S
C782 C778 1.531 . S
C782 H794 0.960 . S
C782 H795 0.962 . S
C782 H796 0.960 . S
C783 C780 1.515 . S
C783 H797 0.960 1_655 S
C783 H798 0.955 1_655 S
C783 H799 0.963 . S
C784 C785 1.370 . S
C784 C786 1.363 . S
C784 H800 0.931 . S
C785 C784 1.370 . S
C785 C789 1.408 1_554 S
C786 C784 1.363 . S
C786 C787 1.370 . S
C786 C790 1.524 . S
C787 C779 1.503 1_455 S
C787 C786 1.370 . S
C787 C788 1.403 1_554 S
C788 C787 1.403 1_556 S
C788 C789 1.404 . S
C788 C791 1.539 1_455 S
C789 C785 1.408 1_556 S
C789 C788 1.404 . S
C789 H801 0.930 . S
C790 C786 1.524 . S
C790 H802 0.956 . S
C790 H803 0.961 . S
C790 H804 0.961 . S
C791 C788 1.539 1_655 S
C791 H805 0.958 . S
C791 H806 0.961 . S
C791 H807 0.960 . S
H792 C776 0.931 . S
H793 C781 0.929 . S
H794 C782 0.960 . S
H795 C782 0.962 . S
H796 C782 0.960 . S
H797 C783 0.960 1_455 S
H798 C783 0.955 1_455 S
H799 C783 0.963 . S
H800 C784 0.931 . S
H801 C789 0.930 . S
H802 C790 0.956 . S
H803 C790 0.961 . S
H804 C790 0.961 . S
H805 C791 0.958 . S
H806 C791 0.961 . S
H807 C791 0.960 . S
C808 C809 1.391 1_556 S
C808 C810 1.394 . S
C808 H824 0.931 . S
C809 C808 1.391 1_554 S
C809 C813 1.376 . S
C810 C808 1.394 . S
C810 C811 1.369 1_556 S
C810 C814 1.531 . S
C811 C810 1.369 1_554 S
C811 C812 1.410 . S
C811 C819 1.503 1_545 S
C812 C811 1.410 . S
C812 C813 1.392 . S
C812 C815 1.511 . S
C813 C809 1.376 . S
C813 C812 1.392 . S
C813 H825 0.929 . S
C814 C810 1.531 . S
C814 H826 0.960 1_545 S
C814 H827 0.962 . S
C814 H828 0.960 . S
C815 C812 1.511 . S
C815 H829 0.961 . S
C815 H830 0.961 . S
C815 H831 0.961 1_545 S
C816 C817 1.370 . S
C816 C818 1.363 . S
C816 H832 0.931 . S
C817 C816 1.370 . S
C817 C821 1.408 . S
C818 C816 1.363 . S
C818 C819 1.370 . S
C818 C822 1.526 1_565 S
C819 C811 1.503 1_565 S
C819 C818 1.370 . S
C819 C820 1.403 . S
C820 C819 1.403 . S
C820 C821 1.404 . S
C820 C823 1.539 . S
C821 C817 1.408 . S
C821 C820 1.404 . S
C821 H833 0.930 . S
C822 C818 1.526 1_545 S
C822 H834 0.942 1_554 S
C822 H835 0.973 . S
C822 H836 0.961 . S
C823 C820 1.539 . S
C823 H837 0.958 1_554 S
C823 H838 0.961 . S
C823 H839 0.960 . S
H824 C808 0.931 . S
H825 C813 0.929 . S
H826 C814 0.960 1_565 S
H827 C814 0.962 . S
H828 C814 0.960 . S
H829 C815 0.961 . S
H830 C815 0.961 . S
H831 C815 0.961 1_565 S
H832 C816 0.931 . S
H833 C821 0.930 . S
H834 C822 0.942 1_556 S
H835 C822 0.973 . S
H836 C822 0.961 . S
H837 C823 0.958 1_556 S
H838 C823 0.961 . S
H839 C823 0.960 . S
C840 C841 1.391 . S
C840 C842 1.394 . S
C840 H856 0.931 . S
C841 C840 1.391 . S
C841 C845 1.376 . S
C842 C840 1.394 . S
C842 C843 1.369 . S
C842 C846 1.531 . S
C843 C842 1.369 . S
C843 C844 1.410 . S
C843 C851 1.503 1_545 S
C844 C843 1.410 . S
C844 C845 1.392 . S
C844 C847 1.511 1_545 S
C845 C841 1.376 . S
C845 C844 1.392 . S
C845 H857 0.929 . S
C846 C842 1.531 . S
C846 H858 0.960 . S
C846 H859 0.962 . S
C846 H860 0.960 . S
C847 C844 1.511 1_565 S
C847 H861 0.961 . S
C847 H862 0.961 . S
C847 H863 0.961 . S
C848 C849 1.370 . S
C848 C850 1.363 . S
C848 H864 0.931 . S
C849 C848 1.370 . S
C849 C853 1.408 . S
C850 C848 1.363 . S
C850 C851 1.370 . S
C850 C854 1.524 1_565 S
C851 C843 1.503 1_565 S
C851 C850 1.370 . S
C851 C852 1.403 . S
C852 C851 1.403 . S
C852 C853 1.404 . S
C852 C855 1.539 . S
C853 C849 1.408 . S
C853 C852 1.404 . S
C853 H865 0.930 . S
C854 C850 1.524 1_545 S
C854 H866 0.956 . S
C854 H867 0.961 . S
C854 H868 0.961 . S
C855 C852 1.539 . S
C855 H869 0.958 . S
C855 H870 0.961 . S
C855 H871 0.960 . S
H856 C840 0.931 . S
H857 C845 0.929 . S
H858 C846 0.960 . S
H859 C846 0.962 . S
H860 C846 0.960 . S
H861 C847 0.961 . S
H862 C847 0.961 . S
H863 C847 0.961 . S
H864 C848 0.931 . S
H865 C853 0.930 . S
H866 C854 0.956 . S
H867 C854 0.961 . S
H868 C854 0.961 . S
H869 C855 0.958 . S
H870 C855 0.961 . S
H871 C855 0.960 . S
C872 C873 1.391 . S
C872 C874 1.394 . S
C872 H888 0.931 . S
C873 C872 1.391 . S
C873 C877 1.376 . S
C874 C872 1.394 . S
C874 C875 1.369 . S
C874 C878 1.531 1_455 S
C875 C874 1.369 . S
C875 C876 1.410 . S
C875 C883 1.503 1_455 S
C876 C875 1.410 . S
C876 C877 1.392 . S
C876 C879 1.511 . S
C877 C873 1.376 . S
C877 C876 1.392 . S
C877 H889 0.929 . S
C878 C874 1.531 1_655 S
C878 H890 0.960 . S
C878 H891 0.962 . S
C878 H892 0.960 . S
C879 C876 1.511 . S
C879 H893 0.961 . S
C879 H894 0.961 . S
C879 H895 0.961 . S
C880 C881 1.370 . S
C880 C882 1.363 . S
C880 H896 0.931 . S
C881 C880 1.370 . S
C881 C885 1.408 . S
C882 C880 1.363 . S
C882 C883 1.370 . S
C882 C886 1.524 1_655 S
C883 C875 1.503 1_655 S
C883 C882 1.370 . S
C883 C884 1.403 . S
C884 C883 1.403 . S
C884 C885 1.404 . S
C884 C887 1.539 . S
C885 C881 1.408 . S
C885 C884 1.404 . S
C885 H897 0.930 . S
C886 C882 1.524 1_455 S
C886 H898 0.956 . S
C886 H899 0.961 . S
C886 H900 0.961 . S
C887 C884 1.539 . S
C887 H901 0.958 . S
C887 H902 0.961 . S
C887 H903 0.960 . S
H888 C872 0.931 . S
H889 C877 0.929 . S
H890 C878 0.960 . S
H891 C878 0.962 . S
H892 C878 0.960 . S
H893 C879 0.961 . S
H894 C879 0.961 . S
H895 C879 0.961 . S
H896 C880 0.931 . S
H897 C885 0.930 . S
H898 C886 0.956 . S
H899 C886 0.961 . S
H900 C886 0.961 . S
H901 C887 0.958 . S
H902 C887 0.961 . S
H903 C887 0.960 . S
C265 C41 0.828 . S
C273 N5 0.820 . S
C297 N38 0.864 . S
C305 C74 0.825 . S
C329 N71 0.768 . S
C337 C107 0.819 . S
C361 C8 0.831 . S
C369 N104 0.834 . S
C393 C173 0.817 . S
C401 N137 0.797 . S
C425 C206 0.812 . S
C433 N170 0.801 . S
C457 N203 0.787 . S
C465 C239 0.821 . S
C489 N236 0.782 . S
C497 C140 0.821 . S
C521 C215 1.500 . S
C529 C28 1.560 . S
C553 C61 1.531 . S
C561 C248 1.533 . S
C585 C94 1.552 . S
C593 C149 1.529 . S
C617 C127 1.531 . S
C625 C182 1.534 . S
C649 C160 1.553 . S
C657 C83 1.534 . S
C681 C193 1.532 . S
C689 C116 1.535 . S
C713 C226 1.546 . S
C721 C17 1.537 . S
C745 C50 1.538 . S
C753 C259 1.557 . S
C777 N80 2.180 . S
C785 N14 2.177 . S
C809 N47 2.167 . S
C817 N113 2.181 . S
C841 N212 2.178 . S
C849 N146 2.177 . S
C873 N179 2.180 . S
C881 N245 2.177 . S
