# Generated by pormake.
# Topology umf, (4)-cn, num edge types: 1
# Building blocks:
#     Node 0, Type 0, BuildingBlock: ICAMEG_clean_sbu_1, # of connection points: 4
#     Node 1, Type 0, BuildingBlock: ICAMEG_clean_sbu_1, # of connection points: 4
#     Node 2, Type 0, BuildingBlock: ICAMEG_clean_sbu_1, # of connection points: 4
#     Node 3, Type 0, BuildingBlock: ICAMEG_clean_sbu_1, # of connection points: 4
#     Node 4, Type 0, BuildingBlock: ICAMEG_clean_sbu_1, # of connection points: 4
#     Node 5, Type 0, BuildingBlock: ICAMEG_clean_sbu_1, # of connection points: 4
#     Node 6, Type 0, BuildingBlock: ICAMEG_clean_sbu_1, # of connection points: 4
#     Node 7, Type 0, BuildingBlock: ICAMEG_clean_sbu_1, # of connection points: 4
#     Edge 8, Type (0, 0), BuildingBlock: XIVTED_clean_linker_0, # of connection points: 2
#     Edge 9, Type (0, 0), BuildingBlock: XIVTED_clean_linker_0, # of connection points: 2
#     Edge 10, Type (0, 0), BuildingBlock: XIVTED_clean_linker_0, # of connection points: 2
#     Edge 11, Type (0, 0), BuildingBlock: XIVTED_clean_linker_0, # of connection points: 2
#     Edge 12, Type (0, 0), BuildingBlock: XIVTED_clean_linker_0, # of connection points: 2
#     Edge 13, Type (0, 0), BuildingBlock: XIVTED_clean_linker_0, # of connection points: 2
#     Edge 14, Type (0, 0), BuildingBlock: XIVTED_clean_linker_0, # of connection points: 2
#     Edge 15, Type (0, 0), BuildingBlock: XIVTED_clean_linker_0, # of connection points: 2
#     Edge 16, Type (0, 0), BuildingBlock: XIVTED_clean_linker_0, # of connection points: 2
#     Edge 17, Type (0, 0), BuildingBlock: XIVTED_clean_linker_0, # of connection points: 2
#     Edge 18, Type (0, 0), BuildingBlock: XIVTED_clean_linker_0, # of connection points: 2
#     Edge 19, Type (0, 0), BuildingBlock: XIVTED_clean_linker_0, # of connection points: 2
#     Edge 20, Type (0, 0), BuildingBlock: XIVTED_clean_linker_0, # of connection points: 2
#     Edge 21, Type (0, 0), BuildingBlock: XIVTED_clean_linker_0, # of connection points: 2
#     Edge 22, Type (0, 0), BuildingBlock: XIVTED_clean_linker_0, # of connection points: 2
#     Edge 23, Type (0, 0), BuildingBlock: XIVTED_clean_linker_0, # of connection points: 2
# Relax obj value: 0.112
# Max RMSD: 0.202
# Mean RMSD: 0.201
data_MOF--net-umf--node1-ICAMEG_clean_sbu_1--edge1-XIVTED_clean_linker_0
_symmetry_space_group_name_H-M    P1
_symmetry_Int_Tables_number       1
_symmetry_cell_setting            triclinic
loop_
_symmetry_equiv_pos_as_xyz
'x, y, z'
_cell_length_a     30.230249
_cell_length_b     30.158116
_cell_length_c     57.300038
_cell_angle_alpha  89.993913
_cell_angle_beta   89.958848
_cell_angle_gamma 89.993375
loop_
_atom_site_label
_atom_site_type_symbol
_atom_site_fract_x
_atom_site_fract_y
_atom_site_fract_z
_atom_type_partial_charge
Co0 Co 0.08185 0.22546 0.13228 0.0
Co1 Co 0.99167 0.23481 0.16901 0.0
O2 O 0.02751 0.25417 0.14263 0.0
C3 C 0.02326 0.2242 0.0915 0.0
O4 O -0.00747 0.21037 0.10595 0.0
C5 C 0.01481 0.32639 0.17986 0.0
O6 O 0.05587 0.31469 0.17565 0.0
O7 O 0.04455 0.2306 0.18934 0.0
O8 O 0.10211 0.21746 0.16536 0.0
H9 H 0.9534 0.13993 0.23825 0.0
H10 H 0.05664 0.31291 0.11276 0.0
O11 O 0.0621 0.23238 0.09903 0.0
H12 H 0.20114 0.33654 0.15066 0.0
H13 H 0.21357 0.20724 0.07939 0.0
H14 H 0.13371 0.14714 0.14748 0.0
H15 H 0.16663 0.26241 0.15041 0.0
H16 H 0.14514 0.24296 0.0935 0.0
O17 O 0.98379 0.29805 0.17825 0.0
H18 H -0.00135 0.1639 0.2047 0.0
H19 H 0.90794 0.26784 0.19028 0.0
H20 H 0.20221 0.1106 0.1341 0.0
H21 H 0.09007 0.38753 0.11248 0.0
H22 H 0.24263 0.14068 0.09982 0.0
H23 H 0.16277 0.39972 0.1316 0.0
O24 O 0.05343 0.16609 0.13319 0.0
H25 H 0.89173 0.3073 0.11023 0.0
H26 H 0.91637 0.17417 0.15849 0.0
H27 H 0.85176 0.17727 0.13228 0.0
H28 H 0.83912 0.24421 0.10792 0.0
H29 H 0.95613 0.30266 0.13653 0.0
H30 H 0.86185 0.24526 0.2238 0.0
H31 H 0.88439 0.1807 0.24796 0.0
O32 O -0.00044 0.17147 0.16024 0.0
C33 C 0.08519 0.2216 0.1857 0.0
C34 C 0.94308 0.16795 0.22778 0.0
C35 C 0.89174 0.22711 0.21969 0.0
N36 N 0.95559 0.21678 0.19535 0.0
C37 C 0.96848 0.18154 0.2087 0.0
C38 C 0.91798 0.23977 0.20075 0.0
C39 C 0.90441 0.19088 0.23324 0.0
C40 C 0.0885 0.31787 0.1209 0.0
N41 N 0.10979 0.28332 0.13146 0.0
C42 C 0.10717 0.36023 0.12078 0.0
C43 C 0.14794 0.36706 0.13154 0.0
C44 C 0.16947 0.33163 0.14225 0.0
C45 C 0.14975 0.28975 0.14208 0.0
C46 C 0.19632 0.19389 0.09438 0.0
C47 C 0.1513 0.16059 0.13266 0.0
C48 C 0.15754 0.21392 0.10242 0.0
N49 N 0.13575 0.19738 0.12143 0.0
C50 C 0.18998 0.13968 0.12511 0.0
C51 C 0.21261 0.15655 0.10586 0.0
C52 C 0.02305 0.14937 0.14587 0.0
C53 C 0.89681 0.27802 0.12082 0.0
C54 C 0.91112 0.20339 0.14793 0.0
C55 C 0.87443 0.20499 0.13315 0.0
C56 C 0.86734 0.24257 0.1195 0.0
N57 N 0.93987 0.2383 0.14913 0.0
C58 C 0.93309 0.27529 0.13582 0.0
Co59 Co 0.75877 0.09188 0.63095 0.0
Co60 Co 0.74462 0.00263 0.66796 0.0
O61 O 0.72757 0.03882 0.64127 0.0
C62 C 0.7585 0.03285 0.59024 0.0
O63 O 0.77087 0.00155 0.60475 0.0
C64 C 0.65361 0.02916 0.67787 0.0
O65 O 0.66657 0.0699 0.67359 0.0
O66 O 0.75002 0.05578 0.68811 0.0
O67 O 0.76693 0.11221 0.664 0.0
H68 H 0.8352 0.96218 0.73832 0.0
H69 H 0.67093 0.07026 0.61101 0.0
O70 O 0.7517 0.07207 0.59773 0.0
H71 H 0.65291 0.21644 0.64839 0.0
H72 H 0.78389 0.22235 0.57781 0.0
H73 H 0.83881 0.14049 0.64645 0.0
H74 H 0.72528 0.17862 0.64865 0.0
H75 H 0.74493 0.15562 0.59193 0.0
O76 O 0.68101 -0.00278 0.67664 0.0
H77 H 0.81431 0.00765 0.70427 0.0
H78 H 0.70785 0.92038 0.68928 0.0
H79 H 0.87859 0.20727 0.63306 0.0
H80 H 0.59803 0.10701 0.61022 0.0
H81 H 0.85112 0.24867 0.59851 0.0
H82 H 0.58866 0.18057 0.62908 0.0
O83 O 0.81669 0.06082 0.63231 0.0
H84 H 0.67065 0.9041 0.609 0.0
H85 H 0.80262 0.92475 0.65837 0.0
H86 H 0.79796 0.85957 0.63248 0.0
H87 H 0.73159 0.84892 0.60757 0.0
H88 H 0.67684 0.96901 0.63498 0.0
H89 H 0.72733 0.87412 0.72328 0.0
H90 H 0.79158 0.89483 0.74799 0.0
O91 O 0.80838 0.008 0.65976 0.0
C92 C 0.76119 0.09592 0.68437 0.0
C93 C 0.80729 0.95266 0.72761 0.0
C94 C 0.74671 0.90328 0.71919 0.0
N95 N 0.76033 0.9663 0.69462 0.0
C96 C 0.79544 0.97818 0.70826 0.0
C97 C 0.73581 0.92961 0.69998 0.0
C98 C 0.78276 0.91492 0.73305 0.0
C99 C 0.6672 0.10247 0.61904 0.0
N100 N 0.70235 0.12239 0.62973 0.0
C101 C 0.62581 0.12304 0.61863 0.0
C102 C 0.62056 0.16428 0.62924 0.0
C103 C 0.65659 0.18441 0.64009 0.0
C104 C 0.69747 0.16282 0.6402 0.0
C105 C 0.79612 0.20466 0.59293 0.0
C106 C 0.8265 0.15854 0.6315 0.0
C107 C 0.77424 0.16683 0.60097 0.0
N108 N 0.78936 0.1445 0.62013 0.0
C109 C 0.84923 0.19623 0.62396 0.0
C110 C 0.83383 0.21942 0.60455 0.0
C111 C 0.8318 0.03015 0.64538 0.0
C112 C 0.69967 0.9083 0.61982 0.0
C113 C 0.77366 0.92038 0.64755 0.0
C114 C 0.77118 0.88336 0.63296 0.0
C115 C 0.73391 0.87739 0.61901 0.0
N116 N 0.73993 0.95053 0.64826 0.0
C117 C 0.70327 0.94488 0.63465 0.0
Co118 Co 0.89562 0.75519 0.13019 0.0
Co119 Co 0.98495 0.73762 0.16654 0.0
O120 O 0.94686 0.7212 0.14051 0.0
C121 C 0.95267 0.74952 0.08876 0.0
O122 O 0.98521 0.7612 0.1026 0.0
C123 C 0.95343 0.64867 0.17835 0.0
O124 O 0.91342 0.66314 0.17375 0.0
O125 O 0.93313 0.74778 0.18709 0.0
O126 O 0.87702 0.76647 0.16326 0.0
H127 H 0.03352 0.83011 0.23482 0.0
H128 H 0.91087 0.66487 0.11142 0.0
O129 O 0.91369 0.74498 0.09693 0.0
H130 H 0.76539 0.65839 0.15026 0.0
H131 H 0.76562 0.78594 0.0778 0.0
H132 H 0.85287 0.8392 0.14486 0.0
H133 H 0.80776 0.72826 0.14916 0.0
H134 H 0.82991 0.74332 0.09197 0.0
O135 O 0.98656 0.67443 0.17646 0.0
H136 H 0.98579 0.81006 0.20154 0.0
H137 H 0.06523 0.69691 0.18777 0.0
H138 H 0.78863 0.88268 0.13141 0.0
H139 H 0.8695 0.59436 0.11198 0.0
H140 H 0.74452 0.85607 0.09764 0.0
H141 H 0.79626 0.59081 0.13157 0.0
O142 O 0.93017 0.81126 0.13035 0.0
H143 H 0.07593 0.65301 0.10816 0.0
H144 H 0.06607 0.78965 0.15516 0.0
H145 H 0.12977 0.77872 0.12885 0.0
H146 H 0.13499 0.70997 0.10514 0.0
H147 H 0.01261 0.66545 0.13453 0.0
H148 H 0.11363 0.71549 0.22102 0.0
H149 H 0.098 0.78265 0.24473 0.0
O150 O 0.98358 0.80107 0.15716 0.0
C151 C 0.89366 0.76107 0.18355 0.0
C152 C 0.04082 0.8009 0.22454 0.0
C153 C 0.08574 0.73653 0.21682 0.0
N154 N 0.0231 0.75274 0.19254 0.0
C155 C 0.01402 0.78949 0.20563 0.0
C156 C 0.05821 0.72616 0.19803 0.0
C157 C 0.07695 0.77422 0.23011 0.0
C158 C 0.87882 0.66367 0.11977 0.0
N159 N 0.86163 0.70067 0.13012 0.0
C160 C 0.85564 0.62362 0.12012 0.0
C161 C 0.81458 0.62163 0.13115 0.0
C162 C 0.79725 0.65953 0.14165 0.0
C163 C 0.82141 0.69898 0.141 0.0
C164 C 0.78451 0.79781 0.09257 0.0
C165 C 0.83362 0.82726 0.13027 0.0
C166 C 0.82096 0.77386 0.10065 0.0
N167 N 0.8448 0.78856 0.11937 0.0
C168 C 0.79738 0.85208 0.12268 0.0
C169 C 0.77268 0.83715 0.10371 0.0
C170 C 0.9624 0.82513 0.14269 0.0
C171 C 0.07408 0.68304 0.11845 0.0
C172 C 0.06807 0.75968 0.14486 0.0
C173 C 0.10425 0.75364 0.13003 0.0
C174 C 0.10718 0.71505 0.11674 0.0
N175 N 0.03577 0.72811 0.14647 0.0
C176 C 0.03842 0.69018 0.13349 0.0
Co177 Co 0.22693 0.90252 0.63152 0.0
Co178 Co 0.24233 0.99149 0.66857 0.0
O179 O 0.25933 0.95462 0.64211 0.0
C180 C 0.23012 0.96165 0.59087 0.0
O181 O 0.21836 0.99324 0.60534 0.0
C182 C 0.33221 0.96208 0.67932 0.0
O183 O 0.31835 0.92171 0.67489 0.0
O184 O 0.23423 0.93865 0.68872 0.0
O185 O 0.21727 0.88241 0.6645 0.0
H186 H 0.15004 0.03555 0.73776 0.0
H187 H 0.31595 0.9216 0.61226 0.0
O188 O 0.23552 0.92219 0.59835 0.0
H189 H 0.3285 0.77479 0.64958 0.0
H190 H 0.1993 0.77309 0.57805 0.0
H191 H 0.14515 0.85621 0.64646 0.0
H192 H 0.25731 0.81478 0.64937 0.0
H193 H 0.23992 0.83851 0.59252 0.0
O194 O 0.30565 -0.00528 0.67798 0.0
H195 H 0.17081 0.98921 0.70401 0.0
H196 H 0.28107 0.07244 0.69025 0.0
H197 H 0.1037 0.79077 0.63272 0.0
H198 H 0.38774 0.88267 0.61196 0.0
H199 H 0.13077 0.74873 0.59827 0.0
H200 H 0.39435 0.80877 0.63078 0.0
O201 O 0.16991 0.93523 0.63243 0.0
H202 H 0.3224 0.08696 0.61037 0.0
H203 H 0.18765 0.07144 0.65824 0.0
H204 H 0.19583 0.13628 0.63235 0.0
H205 H 0.26361 0.14435 0.6082 0.0
H206 H 0.3127 0.02246 0.63633 0.0
H207 H 0.26175 0.1195 0.72398 0.0
H208 H 0.19566 0.10127 0.74792 0.0
O209 O 0.17881 0.98841 0.6596 0.0
C210 C 0.2224 0.89872 0.68491 0.0
C211 C 0.17878 0.04398 0.72739 0.0
C212 C 0.24151 0.09106 0.71968 0.0
N213 N 0.22672 0.02848 0.695 0.0
C214 C 0.19058 0.01797 0.70821 0.0
C215 C 0.25231 0.06427 0.70062 0.0
C216 C 0.20442 0.08081 0.7331 0.0
C217 C 0.31848 0.88926 0.62028 0.0
N218 N 0.28245 0.87036 0.63069 0.0
C219 C 0.35925 0.86746 0.62014 0.0
C220 C 0.36295 0.82602 0.63074 0.0
C221 C 0.32602 0.80695 0.6413 0.0
C222 C 0.28582 0.82977 0.64115 0.0
C223 C 0.18724 0.79106 0.59312 0.0
C224 C 0.15729 0.83788 0.63157 0.0
C225 C 0.21005 0.82815 0.60136 0.0
N226 N 0.19512 0.85085 0.62045 0.0
C227 C 0.13361 0.80095 0.62382 0.0
C228 C 0.14879 0.77741 0.60447 0.0
C229 C 0.15527 0.96673 0.6451 0.0
C230 C 0.29278 0.08389 0.62086 0.0
C231 C 0.21721 0.07468 0.64775 0.0
C232 C 0.22169 0.11151 0.63316 0.0
C233 C 0.25975 0.11604 0.61963 0.0
N234 N 0.24977 0.04331 0.64888 0.0
C235 C 0.2872 0.04754 0.63568 0.0
Co236 Co 0.08233 0.75609 0.87854 0.0
Co237 Co -0.00438 0.74054 0.84017 0.0
O238 O 0.03141 0.72322 0.86691 0.0
C239 C 0.02065 0.75165 0.91794 0.0
O240 O 0.99033 0.76349 0.90281 0.0
C241 C 0.0273 0.65146 0.82888 0.0
O242 O 0.06707 0.66585 0.83408 0.0
O243 O 0.04915 0.75048 0.8209 0.0
O244 O 0.10424 0.76671 0.84592 0.0
H245 H 0.95331 0.83482 0.7714 0.0
H246 H 0.06313 0.66627 0.89697 0.0
O247 O 0.06063 0.74659 0.91132 0.0
H248 H 0.21185 0.656 0.86197 0.0
H249 H 0.20773 0.78406 0.93433 0.0
H250 H 0.1285 0.83888 0.86488 0.0
H251 H 0.17119 0.72694 0.86195 0.0
H252 H 0.14385 0.74295 0.91851 0.0
O253 O -0.0058 0.67744 0.83002 0.0
H254 H -0.00179 0.81365 0.80557 0.0
H255 H 0.91682 0.70094 0.81694 0.0
H256 H 0.19242 0.88085 0.87997 0.0
H257 H 0.10269 0.59472 0.89747 0.0
H258 H 0.2325 0.85345 0.91495 0.0
H259 H 0.17756 0.58926 0.87981 0.0
O260 O 0.04923 0.81293 0.8774 0.0
H261 H 0.89925 0.65613 0.89619 0.0
H262 H 0.91421 0.79327 0.84996 0.0
H263 H 0.84845 0.78275 0.87487 0.0
H264 H 0.84067 0.71377 0.8982 0.0
H265 H 0.96463 0.66816 0.87121 0.0
H266 H 0.87124 0.72065 0.78277 0.0
H267 H 0.88927 0.78816 0.75982 0.0
O268 O -0.0031 0.80387 0.84988 0.0
C269 C 0.08877 0.76233 0.82528 0.0
C270 C 0.94497 0.80546 0.78133 0.0
C271 C 0.89895 0.74134 0.7877 0.0
N272 N 0.95976 0.75648 0.81341 0.0
C273 C 0.97017 0.79342 0.80075 0.0
C274 C 0.9249 0.73033 0.80701 0.0
C275 C 0.90908 0.77923 0.77483 0.0
C276 C 0.09588 0.66424 0.88946 0.0
N277 N 0.11495 0.70076 0.87958 0.0
C278 C 0.11804 0.6236 0.88971 0.0
C279 C 0.16002 0.62055 0.87977 0.0
C280 C 0.17927 0.65798 0.86974 0.0
C281 C 0.15608 0.69803 0.86976 0.0
C282 C 0.19062 0.79627 0.91904 0.0
C283 C 0.14601 0.82659 0.87999 0.0
C284 C 0.15441 0.77317 0.91003 0.0
N285 N 0.13282 0.78829 0.89066 0.0
C286 C 0.18207 0.85057 0.88851 0.0
C287 C 0.2045 0.8352 0.90816 0.0
C288 C 0.01784 0.82743 0.86467 0.0
C289 C 0.9022 0.68627 0.88605 0.0
C290 C 0.91108 0.76319 0.86008 0.0
C291 C 0.87374 0.75738 0.87412 0.0
C292 C 0.86938 0.71865 0.8872 0.0
N293 N 0.94311 0.73126 0.85904 0.0
C294 C 0.93904 0.69317 0.87179 0.0
Co295 Co 0.23004 0.09282 0.37962 0.0
Co296 Co 0.2472 0.00394 0.34275 0.0
O297 O 0.26314 0.04088 0.36933 0.0
C298 C 0.23249 0.03391 0.42035 0.0
O299 O 0.22118 0.00226 0.40582 0.0
C300 C 0.3375 0.03314 0.33271 0.0
O301 O 0.32365 0.07356 0.33705 0.0
O302 O 0.23998 0.05675 0.32253 0.0
O303 O 0.22094 0.11268 0.34653 0.0
H304 H 0.15781 0.96019 0.27252 0.0
H305 H 0.3187 0.07456 0.39951 0.0
O306 O 0.23797 0.07336 0.41287 0.0
H307 H 0.33111 0.22116 0.36194 0.0
H308 H 0.20032 0.22239 0.4327 0.0
H309 H 0.14815 0.13835 0.36422 0.0
H310 H 0.26023 0.18063 0.36176 0.0
H311 H 0.24172 0.15718 0.41856 0.0
O312 O 0.31085 0.00057 0.33396 0.0
H313 H 0.17721 0.00642 0.30653 0.0
H314 H 0.28661 0.92283 0.32151 0.0
H315 H 0.10592 0.20358 0.37763 0.0
H316 H 0.39016 0.11405 0.40021 0.0
H317 H 0.132 0.24608 0.41211 0.0
H318 H 0.3967 0.18784 0.38127 0.0
O319 O 0.17329 0.0597 0.37839 0.0
H320 H 0.32479 0.90839 0.40179 0.0
H321 H 0.19199 0.92411 0.35253 0.0
H322 H 0.19904 0.85928 0.37851 0.0
H323 H 0.26583 0.85112 0.40337 0.0
H324 H 0.31623 0.97289 0.37571 0.0
H325 H 0.26863 0.87586 0.28755 0.0
H326 H 0.20368 0.89435 0.26286 0.0
O327 O 0.18334 0.00711 0.35102 0.0
C328 C 0.22728 0.09645 0.32619 0.0
C329 C 0.18605 0.95165 0.28322 0.0
C330 C 0.24829 0.90436 0.29164 0.0
N331 N 0.2326 0.96695 0.31617 0.0
C332 C 0.19708 0.97759 0.30255 0.0
C333 C 0.25833 0.93108 0.31082 0.0
C334 C 0.21184 0.91475 0.27779 0.0
C335 C 0.3212 0.10686 0.39143 0.0
N336 N 0.2853 0.12539 0.38073 0.0
C337 C 0.36178 0.12897 0.3918 0.0
C338 C 0.36544 0.17035 0.38114 0.0
C339 C 0.32866 0.18905 0.37028 0.0
C340 C 0.28863 0.16592 0.37021 0.0
C341 C 0.18869 0.20423 0.41761 0.0
C342 C 0.15987 0.1569 0.37912 0.0
C343 C 0.21196 0.16725 0.40955 0.0
N344 N 0.19759 0.14431 0.39044 0.0
C345 C 0.13574 0.1937 0.38668 0.0
C346 C 0.15037 0.2175 0.40605 0.0
C347 C 0.1592 0.02843 0.36541 0.0
C348 C 0.2956 0.91151 0.39099 0.0
C349 C 0.22112 0.92082 0.36332 0.0
C350 C 0.22497 0.884 0.37796 0.0
C351 C 0.26247 0.87942 0.39189 0.0
N352 N 0.25377 0.95214 0.36252 0.0
C353 C 0.29066 0.94785 0.3761 0.0
Co354 Co 0.89752 0.2266 0.8798 0.0
Co355 Co 0.98668 0.23848 0.8426 0.0
O356 O 0.95108 0.25657 0.86931 0.0
C357 C 0.95689 0.22556 0.9203 0.0
O358 O 0.98769 0.21262 0.90566 0.0
C359 C 0.96162 0.32982 0.83228 0.0
O360 O 0.92087 0.31747 0.83678 0.0
O361 O 0.93344 0.23373 0.82257 0.0
O362 O 0.87671 0.21892 0.84681 0.0
H363 H 0.02492 0.1461 0.77243 0.0
H364 H 0.92149 0.31408 0.8997 0.0
O365 O 0.9178 0.23317 0.91297 0.0
H366 H 0.7758 0.33583 0.86276 0.0
H367 H 0.76729 0.20477 0.93333 0.0
H368 H 0.84686 0.14762 0.86445 0.0
H369 H 0.81168 0.26235 0.86238 0.0
H370 H 0.8347 0.24209 0.91903 0.0
O371 O -0.00684 0.302 0.83366 0.0
H372 H 0.98008 0.16839 0.80645 0.0
H373 H 0.06936 0.27344 0.82105 0.0
H374 H 0.77936 0.10948 0.87802 0.0
H375 H 0.88669 0.38806 0.90061 0.0
H376 H 0.7391 0.13809 0.9127 0.0
H377 H 0.81338 0.3993 0.88198 0.0
O378 O 0.92701 0.16778 0.87834 0.0
H379 H 0.08665 0.31158 0.90113 0.0
H380 H 0.06331 0.17901 0.85228 0.0
H381 H 0.1285 0.18277 0.87807 0.0
H382 H 0.14049 0.24944 0.90272 0.0
H383 H 0.0217 0.30628 0.87524 0.0
H384 H 0.11501 0.25256 0.78706 0.0
H385 H 0.09298 0.1883 0.76257 0.0
O386 O 0.98015 0.17483 0.85101 0.0
C387 C 0.89308 0.22382 0.82641 0.0
C388 C 0.03502 0.174 0.78305 0.0
C389 C 0.08554 0.23379 0.79124 0.0
N390 N 0.02247 0.22171 0.81592 0.0
C391 C 0.00986 0.18663 0.80239 0.0
C392 C 0.05955 0.24548 0.81045 0.0
C393 C 0.07316 0.19773 0.7775 0.0
C394 C 0.88938 0.31863 0.89177 0.0
N395 N 0.86852 0.28391 0.88113 0.0
C396 C 0.86992 0.36062 0.89225 0.0
C397 C 0.82882 0.36693 0.88176 0.0
C398 C 0.80773 0.33133 0.87097 0.0
C399 C 0.82823 0.28982 0.87078 0.0
C400 C 0.78447 0.19206 0.91816 0.0
C401 C 0.82932 0.16042 0.87945 0.0
C402 C 0.82269 0.21301 0.91002 0.0
N403 N 0.84439 0.19728 0.89079 0.0
C404 C 0.79122 0.13862 0.8871 0.0
C405 C 0.76867 0.15465 0.90658 0.0
C406 C 0.95735 0.15192 0.86533 0.0
C407 C 0.08186 0.28242 0.89041 0.0
C408 C 0.06827 0.2081 0.86298 0.0
C409 C 0.10529 0.21008 0.87751 0.0
C410 C 0.11202 0.24751 0.89133 0.0
N411 N 0.03885 0.24249 0.86217 0.0
C412 C 0.04526 0.27932 0.87564 0.0
Co413 Co 0.76242 0.90278 0.37882 0.0
Co414 Co 0.74949 0.99252 0.34201 0.0
O415 O 0.73149 0.95587 0.36836 0.0
C416 C 0.76055 0.96141 0.41966 0.0
O417 O 0.77323 0.99286 0.40531 0.0
C418 C 0.65893 0.96575 0.33117 0.0
O419 O 0.67197 0.92498 0.33529 0.0
O420 O 0.75603 0.93966 0.3217 0.0
O421 O 0.77179 0.88286 0.34578 0.0
H422 H 0.84294 0.03471 0.27291 0.0
H423 H 0.67382 0.92401 0.39799 0.0
O424 O 0.75414 0.92222 0.41204 0.0
H425 H 0.65752 0.77819 0.36003 0.0
H426 H 0.78605 0.77183 0.4318 0.0
H427 H 0.84309 0.85451 0.36389 0.0
H428 H 0.72979 0.81616 0.36056 0.0
H429 H 0.74738 0.83859 0.41752 0.0
O430 O 0.68621 -0.00224 0.33269 0.0
H431 H 0.82077 0.98848 0.30646 0.0
H432 H 0.71313 0.07487 0.32062 0.0
H433 H 0.8826 0.78772 0.37745 0.0
H434 H 0.60098 0.88711 0.39798 0.0
H435 H 0.85407 0.74589 0.41164 0.0
H436 H 0.59248 0.81373 0.37883 0.0
O437 O 0.82028 0.93397 0.3781 0.0
H438 H 0.67252 0.08975 0.40056 0.0
H439 H 0.80662 0.07058 0.35255 0.0
H440 H 0.80051 0.13533 0.37865 0.0
H441 H 0.73307 0.14523 0.40288 0.0
H442 H 0.68015 0.02528 0.37439 0.0
H443 H 0.73387 0.12187 0.2871 0.0
H444 H 0.79938 0.102 0.26307 0.0
O445 O 0.81293 0.98736 0.35089 0.0
C446 C 0.76701 0.89945 0.32541 0.0
C447 C 0.81448 0.04385 0.28332 0.0
C448 C 0.75323 0.09273 0.29127 0.0
N449 N 0.76611 0.02933 0.31567 0.0
C450 C 0.80189 0.01791 0.3024 0.0
C451 C 0.74162 0.06598 0.31021 0.0
C452 C 0.78998 0.08157 0.27779 0.0
C453 C 0.67046 0.89187 0.38984 0.0
N454 N 0.70604 0.87214 0.37942 0.0
C455 C 0.62911 0.87123 0.3898 0.0
C456 C 0.62435 0.83008 0.37902 0.0
C457 C 0.66082 0.81014 0.36845 0.0
C458 C 0.70164 0.83181 0.36879 0.0
C459 C 0.79874 0.7897 0.41685 0.0
C460 C 0.83032 0.83628 0.37868 0.0
C461 C 0.77703 0.82755 0.40871 0.0
N462 N 0.79275 0.85011 0.38976 0.0
C463 C 0.8529 0.79858 0.38632 0.0
C464 C 0.8369 0.77516 0.40552 0.0
C465 C 0.83581 0.96499 0.3654 0.0
C466 C 0.70201 0.08587 0.39004 0.0
C467 C 0.7772 0.07463 0.36307 0.0
C468 C 0.77389 0.1114 0.37778 0.0
C469 C 0.73602 0.11695 0.39136 0.0
N470 N 0.74368 0.0443 0.36186 0.0
C471 C 0.70642 0.04955 0.3751 0.0
H472 H 0.93294 0.36415 0.18425 0.0
H473 H 0.03099 0.60943 0.19103 0.0
H474 H 0.07245 0.39499 0.18604 0.0
H475 H 0.89319 0.58081 0.17794 0.0
H476 H 0.04484 0.53052 0.19606 0.0
H477 H 0.91627 0.44298 0.18855 0.0
C478 C 0.96006 0.38744 0.18578 0.0
C479 C 0.00418 0.37312 0.18456 0.0
C480 C 0.0115 0.5415 0.19226 0.0
C481 C 0.9853 0.46308 0.18945 0.0
C482 C 0.00354 0.58656 0.18939 0.0
C483 C 0.96095 0.60161 0.18377 0.0
C484 C 0.9767 0.51123 0.18941 0.0
C485 C 0.92658 0.57055 0.18211 0.0
C486 C 0.9505 0.43239 0.1882 0.0
C487 C 0.03798 0.40464 0.18671 0.0
N488 N 0.9353 0.52666 0.18471 0.0
N489 N 0.02781 0.44822 0.18891 0.0
H490 H 0.39978 0.90173 0.68078 0.0
H491 H 0.58586 0.08864 0.68207 0.0
H492 H 0.37213 0.0417 0.68761 0.0
H493 H 0.61441 0.94831 0.6838 0.0
H494 H 0.50738 0.07189 0.68651 0.0
H495 H 0.47865 0.91772 0.68437 0.0
C496 C 0.41025 0.93576 0.68328 0.0
C497 C 0.37942 0.97048 0.6837 0.0
C498 C 0.53085 0.04477 0.68613 0.0
C499 C 0.46945 0.989 0.68762 0.0
C500 C 0.57565 0.05432 0.68357 0.0
C501 C 0.60662 0.0198 0.68238 0.0
C502 C 0.51695 0.00038 0.68731 0.0
C503 C 0.5916 0.97595 0.6845 0.0
C504 C 0.45527 0.94487 0.68531 0.0
C505 C 0.3948 0.01392 0.68701 0.0
N506 N 0.54773 0.96747 0.68666 0.0
N507 N 0.43879 0.02198 0.68864 0.0
H508 H 0.90272 0.39733 0.82583 0.0
H509 H 0.08818 0.58423 0.82915 0.0
H510 H 0.04272 0.3687 0.8272 0.0
H511 H 0.94932 0.61088 0.81815 0.0
H512 H 0.07307 0.50496 0.82564 0.0
H513 H 0.91972 0.47564 0.82037 0.0
C514 C 0.93704 0.40749 0.82481 0.0
C515 C 0.97136 0.37659 0.82718 0.0
C516 C 0.04601 0.52822 0.82373 0.0
C517 C 0.99107 0.46609 0.82107 0.0
C518 C 0.05463 0.57346 0.82571 0.0
C519 C 0.01987 0.6041 0.82419 0.0
C520 C 0.00233 0.51369 0.82036 0.0
C521 C 0.97706 0.58836 0.81967 0.0
C522 C 0.94674 0.45219 0.82164 0.0
C523 C 0.01523 0.39151 0.82559 0.0
N524 N 0.96944 0.54418 0.81815 0.0
N525 N 0.02385 0.43534 0.82285 0.0
H526 H 0.40514 0.09338 0.33082 0.0
H527 H 0.59109 0.9063 0.32729 0.0
H528 H 0.37721 0.95342 0.32439 0.0
H529 H 0.61962 0.04663 0.32556 0.0
H530 H 0.51248 0.92312 0.32373 0.0
H531 H 0.48388 0.07732 0.32645 0.0
C532 C 0.41552 0.05934 0.32828 0.0
C533 C 0.38466 0.02465 0.32817 0.0
C534 C 0.53597 0.95023 0.3239 0.0
C535 C 0.47453 0.00604 0.3233 0.0
C536 C 0.58086 0.94063 0.32594 0.0
C537 C 0.61187 0.97513 0.3269 0.0
C538 C 0.52203 -0.00537 0.32301 0.0
C539 C 0.59678 0.019 0.32502 0.0
C540 C 0.46046 0.05019 0.32578 0.0
C541 C 0.39991 0.98118 0.32476 0.0
N542 N 0.55285 0.02752 0.32337 0.0
N543 N 0.44383 0.97308 0.32266 0.0
H544 H 0.03836 0.22372 0.941 0.0
H545 H 0.94198 0.2221 0.0707 0.0
H546 H 0.89927 0.23686 0.95676 0.0
H547 H 0.08101 0.23667 0.05517 0.0
H548 H 0.92571 0.22617 0.02902 0.0
H549 H 0.05476 0.22714 0.9827 0.0
C550 C 0.01126 0.22743 0.95323 0.0
C551 C 0.96734 0.22975 0.94539 0.0
C552 C 0.95976 0.22871 0.03472 0.0
C553 C 0.98591 0.23354 0.99317 0.0
C554 C 0.9691 0.22626 0.05852 0.0
C555 C 0.01297 0.22879 0.06641 0.0
C556 C -0.00547 0.23332 0.01864 0.0
C557 C 0.04672 0.23451 0.04985 0.0
C558 C 0.02067 0.22952 0.97703 0.0
C559 C 0.93361 0.23488 0.96202 0.0
N560 N 0.03682 0.23626 0.02673 0.0
N561 N 0.94358 0.23628 0.98513 0.0
H562 H 0.74623 0.09119 0.55416 0.0
H563 H 0.74834 0.90278 0.45565 0.0
H564 H 0.76047 0.95157 0.56909 0.0
H565 H 0.76095 0.04261 0.44087 0.0
H566 H 0.74367 0.92002 0.49729 0.0
H567 H 0.74251 0.07381 0.51253 0.0
C568 C 0.74835 0.05686 0.5487 0.0
C569 C 0.754 0.0228 0.56511 0.0
C570 C 0.74734 0.94691 0.48492 0.0
C571 C 0.74971 0.00271 0.51752 0.0
C572 C 0.74988 0.93711 0.46114 0.0
C573 C 0.75538 0.97129 0.44477 0.0
C574 C 0.75 0.99122 0.49236 0.0
C575 C 0.75711 0.01518 0.45289 0.0
C576 C 0.74634 0.04698 0.52493 0.0
C577 C 0.75647 0.97892 0.55703 0.0
N578 N 0.75451 0.02387 0.47611 0.0
N579 N 0.75439 0.97015 0.5338 0.0
H580 H 0.89336 0.72575 0.05487 0.0
H581 H 0.93798 0.75491 0.93706 0.0
H582 H 0.03072 0.7598 0.06506 0.0
H583 H 0.07522 0.73609 0.95537 0.0
H584 H 0.91829 0.7504 0.97807 0.0
H585 H 0.90673 0.7202 0.01307 0.0
C586 C 0.92631 0.73233 0.04829 0.0
C587 C 0.96081 0.7439 0.06348 0.0
C588 C 0.9526 0.74613 0.97324 0.0
C589 C 0.97622 0.73897 0.01538 0.0
C590 C 0.96397 0.74923 0.94972 0.0
C591 C 0.00836 0.74595 0.94274 0.0
C592 C 0.98587 0.73949 0.99001 0.0
C593 C 0.04057 0.73874 0.95996 0.0
C594 C 0.93388 0.72962 0.0243 0.0
C595 C 0.003 0.75128 0.05398 0.0
N596 N 0.0287 0.73611 0.98281 0.0
N597 N 0.00945 0.74885 0.03054 0.0
H598 H 0.24331 0.09239 0.45653 0.0
H599 H 0.2421 0.90325 0.55475 0.0
H600 H 0.23226 0.95256 0.44142 0.0
H601 H 0.23023 0.04304 0.56982 0.0
H602 H 0.24699 0.9208 0.51316 0.0
H603 H 0.24702 0.07488 0.49816 0.0
C604 C 0.24191 0.058 0.46195 0.0
C605 C 0.23713 0.0239 0.44548 0.0
C606 C 0.24344 0.94763 0.52558 0.0
C607 C 0.24138 0.00367 0.49307 0.0
C608 C 0.24076 0.93764 0.54933 0.0
C609 C 0.23541 0.97171 0.56577 0.0
C610 C 0.24102 0.992 0.51822 0.0
C611 C 0.23395 0.01568 0.55774 0.0
C612 C 0.24391 0.04804 0.48572 0.0
C613 C 0.23556 0.97994 0.45351 0.0
N614 N 0.23664 0.02454 0.53454 0.0
N615 N 0.23758 0.9711 0.47673 0.0
H616 H 0.06825 0.24333 0.2312 0.0
H617 H 0.25128 0.08218 0.28076 0.0
H618 H 0.16634 0.18085 0.18732 0.0
H619 H 0.1778 0.17271 0.32447 0.0
H620 H 0.22377 0.12094 0.24636 0.0
H621 H 0.11045 0.22114 0.26551 0.0
C622 C 0.09892 0.22532 0.22874 0.0
C623 C 0.11345 0.21341 0.20632 0.0
C624 C 0.21417 0.13275 0.26347 0.0
C625 C 0.16176 0.18757 0.24563 0.0
C626 C 0.22978 0.11056 0.28315 0.0
C627 C 0.21634 0.12381 0.30556 0.0
C628 C 0.18434 0.16805 0.26616 0.0
C629 C 0.1888 0.16111 0.30756 0.0
C630 C 0.12309 0.21279 0.24837 0.0
C631 C 0.15369 0.1905 0.20425 0.0
N632 N 0.17313 0.18149 0.28808 0.0
N633 N 0.1761 0.17772 0.22368 0.0
H634 H 0.81281 0.18133 0.82519 0.0
H635 H 0.8055 0.17532 0.68572 0.0
H636 H 0.90871 0.24605 0.78084 0.0
H637 H 0.73878 0.08047 0.72994 0.0
H638 H 0.82991 0.21517 0.72058 0.0
H639 H 0.77212 0.15811 0.79039 0.0
C640 C 0.82498 0.19126 0.80819 0.0
C641 C 0.86466 0.21506 0.80593 0.0
C642 C 0.80947 0.18593 0.72258 0.0
C643 C 0.81819 0.1887 0.76613 0.0
C644 C 0.79538 0.16322 0.70271 0.0
C645 C 0.77065 0.12404 0.70491 0.0
C646 C 0.7984 0.16957 0.74478 0.0
C647 C 0.75837 0.11013 0.7274 0.0
C648 C 0.8018 0.17785 0.78835 0.0
C649 C 0.87865 0.22715 0.78342 0.0
N650 N 0.77266 0.13268 0.74647 0.0
N651 N 0.85563 0.21354 0.76439 0.0
H652 H 0.80996 0.81927 0.32432 0.0
H653 H 0.81655 0.8091 0.18485 0.0
H654 H 0.74707 0.91583 0.27961 0.0
H655 H 0.90971 0.74102 0.22938 0.0
H656 H 0.77826 0.83642 0.2196 0.0
H657 H 0.83397 0.7785 0.28966 0.0
C658 C 0.80067 0.83162 0.30727 0.0
C659 C 0.77697 0.87141 0.30489 0.0
C660 C 0.80683 0.81513 0.2217 0.0
C661 C 0.80425 0.82481 0.26522 0.0
C662 C 0.82864 0.79938 0.20189 0.0
C663 C 0.86681 0.7732 0.20418 0.0
C664 C 0.82303 0.80428 0.24395 0.0
C665 C 0.88078 0.76158 0.22675 0.0
C666 C 0.81453 0.80839 0.2875 0.0
C667 C 0.76578 0.88564 0.2823 0.0
N668 N 0.85905 0.77742 0.24575 0.0
N669 N 0.77974 0.86251 0.26335 0.0
H670 H 0.17948 0.8185 0.68574 0.0
H671 H 0.1659 0.81049 0.82516 0.0
H672 H 0.24093 0.91523 0.73089 0.0
H673 H 0.07633 0.74056 0.77944 0.0
H674 H 0.20637 0.83716 0.79091 0.0
H675 H 0.15435 0.77792 0.72022 0.0
C676 C 0.18821 0.83093 0.70286 0.0
C677 C 0.21182 0.87073 0.7054 0.0
C678 C 0.17813 0.81558 0.78844 0.0
C679 C 0.18321 0.82435 0.74489 0.0
C680 C 0.15511 0.8002 0.80798 0.0
C681 C 0.11726 0.77377 0.80517 0.0
C682 C 0.16344 0.80408 0.76599 0.0
C683 C 0.10494 0.76139 0.78244 0.0
C684 C 0.17373 0.8078 0.72253 0.0
C685 C 0.22231 0.88504 0.72807 0.0
N686 N 0.12778 0.77688 0.76374 0.0
N687 N 0.20768 0.86204 0.74693 0.0
H688 H -0.0025 0.09481 0.18095 0.0
H689 H 0.94758 0.883 0.10654 0.0
H690 H 0.03073 0.09534 0.10767 0.0
H691 H 0.00514 0.87441 0.17537 0.0
H692 H 0.96483 0.96273 0.10597 0.0
H693 H 0.98536 0.0149 0.17888 0.0
C694 C 0.00199 0.07809 0.1644 0.0
C695 C 0.01517 0.10146 0.14445 0.0
C696 C 0.97388 0.94301 0.12103 0.0
C697 C 0.0009 0.01055 0.14196 0.0
C698 C 0.96394 0.8978 0.12144 0.0
C699 C 0.97478 0.8722 0.14108 0.0
C700 C -0.00641 0.96253 0.14064 0.0
C701 C -0.00382 0.89284 0.15988 0.0
C702 C -0.00465 0.03259 0.16328 0.0
C703 C 0.02083 0.07821 0.12344 0.0
N704 N 0.00432 0.93697 0.15933 0.0
N705 N 0.0132 0.03381 0.12265 0.0
H706 H 0.09934 0.95516 0.60796 0.0
H707 H 0.88334 -0.0005 0.68064 0.0
H708 H 0.10384 0.0036 0.67884 0.0
H709 H 0.88829 0.03879 0.60823 0.0
H710 H 0.9628 0.98537 0.6796 0.0
H711 H 0.01968 0.97177 0.6069 0.0
C712 C 0.0836 0.96929 0.62324 0.0
C713 C 0.10804 0.97798 0.64354 0.0
C714 C 0.94639 -0.00294 0.66396 0.0
C715 C 0.01778 -0.00395 0.64252 0.0
C716 C 0.90112 0.00487 0.66448 0.0
C717 C 0.87939 0.02043 0.6445 0.0
C718 C 0.96986 0.00389 0.64319 0.0
C719 C 0.90405 0.02707 0.62403 0.0
C720 C 0.03844 0.97889 0.62256 0.0
C721 C 0.08626 -0.00348 0.66283 0.0
N722 N 0.94818 0.01838 0.62381 0.0
N723 N 0.04219 0.00443 0.66194 0.0
H724 H 0.98543 0.09957 0.82981 0.0
H725 H 0.0298 0.8832 0.9019 0.0
H726 H 0.94823 0.09554 0.90254 0.0
H727 H 0.97888 0.87881 0.83153 0.0
H728 H 0.01292 0.96293 0.90328 0.0
H729 H -0.00228 0.01965 0.83071 0.0
C730 C 0.98012 0.08187 0.84601 0.0
C731 C 0.96576 0.104 0.86613 0.0
C732 C 0.00526 0.94416 0.88768 0.0
C733 C 0.98015 0.01299 0.86728 0.0
C734 C 0.01501 0.89896 0.88681 0.0
C735 C 0.00587 0.87455 0.86652 0.0
C736 C 0.98744 0.9649 0.86792 0.0
C737 C 0.98644 0.89636 0.8475 0.0
C738 C 0.98684 0.03634 0.84645 0.0
C739 C 0.95908 0.07945 0.88664 0.0
N740 N 0.97841 0.94049 0.84855 0.0
N741 N 0.96676 0.03503 0.88678 0.0
H742 H 0.89074 0.9549 0.40305 0.0
H743 H 0.10923 0.99252 0.33084 0.0
H744 H 0.88878 -0.00298 0.33104 0.0
H745 H 0.10185 0.03855 0.40211 0.0
H746 H 0.03006 0.97688 0.33182 0.0
H747 H 0.97074 0.97003 0.40423 0.0
C748 C 0.90714 0.96727 0.38755 0.0
C749 C 0.88332 0.97481 0.36691 0.0
C750 C 0.04592 0.9903 0.34723 0.0
C751 C 0.97388 0.99107 0.36807 0.0
C752 C 0.09103 -0.001 0.34676 0.0
C753 C 0.11196 0.01707 0.3664 0.0
C754 C 0.02181 -0.00121 0.36763 0.0
C755 C 0.08672 0.02495 0.38655 0.0
C756 C 0.95247 0.97601 0.38828 0.0
C757 C 0.90589 0.99101 0.34731 0.0
N758 N 0.04276 0.01549 0.38673 0.0
N759 N 0.95008 -0.00185 0.34829 0.0
loop_
_geom_bond_atom_site_label_1
_geom_bond_atom_site_label_2
_geom_bond_distance
_geom_bond_site_symmetry_2
_ccdc_geom_bond_type
Co0 O2 2.143 . S
Co0 O8 2.074 . S
Co0 O11 2.093 . S
Co0 O24 2.097 . S
Co0 N41 2.151 . S
Co0 N49 2.214 . S
Co1 O2 2.160 . S
Co1 O7 2.058 . S
Co1 O17 2.057 . S
Co1 O32 2.037 . S
Co1 N36 2.145 1_455 S
Co1 N57 2.257 1_455 S
O2 Co0 2.143 . S
O2 Co1 2.160 . S
C3 O4 1.278 . S
C3 O11 1.224 . S
O4 C3 1.278 . S
C5 O6 1.245 . S
C5 O17 1.232 . S
O6 C5 1.245 . S
O7 Co1 2.058 . S
O7 C33 1.269 . S
O8 Co0 2.074 . S
O8 C33 1.257 . S
H9 C34 0.930 . S
H10 C40 0.930 . S
O11 Co0 2.093 . S
O11 C3 1.224 . S
H12 C44 0.929 . S
H13 C46 0.930 . S
H14 C47 0.930 . S
H15 C45 0.929 . S
H16 C48 0.928 . S
O17 Co1 2.057 . S
O17 C5 1.232 . S
H18 C37 0.929 . S
H19 C38 0.929 . S
H20 C50 0.931 . S
H21 C42 0.929 . S
H22 C51 0.930 . S
H23 C43 0.931 . S
O24 Co0 2.097 . S
O24 C52 1.214 . S
H25 C53 0.929 . S
H26 C54 0.929 . S
H27 C55 0.930 . S
H28 C56 0.929 . S
H29 C58 0.930 . S
H30 C35 0.930 . S
H31 C39 0.930 . S
O32 Co1 2.037 . S
O32 C52 1.234 . S
C33 O7 1.269 . S
C33 O8 1.257 . S
C34 H9 0.930 . S
C34 C37 1.388 . S
C34 C39 1.418 . S
C35 H30 0.930 . S
C35 C38 1.404 . S
C35 C39 1.353 . S
N36 Co1 2.145 1_655 S
N36 C37 1.397 . S
N36 C38 1.334 . S
C37 H18 0.929 . S
C37 C34 1.388 . S
C37 N36 1.397 . S
C38 H19 0.929 . S
C38 C35 1.404 . S
C38 N36 1.334 . S
C39 H31 0.930 . S
C39 C34 1.418 . S
C39 C35 1.353 . S
C40 H10 0.930 . S
C40 N41 1.330 . S
C40 C42 1.446 . S
N41 Co0 2.151 . S
N41 C40 1.330 . S
N41 C45 1.418 . S
C42 H21 0.929 . S
C42 C40 1.446 . S
C42 C43 1.332 . S
C43 H23 0.931 . S
C43 C42 1.332 . S
C43 C44 1.267 . S
C44 H12 0.929 . S
C44 C43 1.267 . S
C44 C45 1.251 . S
C45 H15 0.929 . S
C45 N41 1.418 . S
C45 C44 1.251 . S
C46 H13 0.930 . S
C46 C48 1.406 . S
C46 C51 1.261 . S
C47 H14 0.930 . S
C47 N49 1.325 . S
C47 C50 1.357 . S
C48 H16 0.928 . S
C48 C46 1.406 . S
C48 N49 1.261 . S
N49 Co0 2.214 . S
N49 C47 1.325 . S
N49 C48 1.261 . S
C50 H20 0.931 . S
C50 C47 1.357 . S
C50 C51 1.312 . S
C51 H22 0.930 . S
C51 C46 1.261 . S
C51 C50 1.312 . S
C52 O24 1.214 . S
C52 O32 1.234 . S
C53 H25 0.929 . S
C53 C56 1.391 . S
C53 C58 1.391 . S
C54 H26 0.929 . S
C54 C55 1.390 . S
C54 N57 1.391 . S
C55 H27 0.930 . S
C55 C54 1.390 . S
C55 C56 1.392 . S
C56 H28 0.929 . S
C56 C53 1.391 . S
C56 C55 1.392 . S
N57 Co1 2.257 1_655 S
N57 C54 1.391 . S
N57 C58 1.388 . S
C58 H29 0.930 . S
C58 C53 1.391 . S
C58 N57 1.388 . S
Co59 O61 2.143 . S
Co59 O67 2.074 . S
Co59 O70 2.093 . S
Co59 O83 2.097 . S
Co59 N100 2.151 . S
Co59 N108 2.214 . S
Co60 O61 2.160 . S
Co60 O66 2.058 . S
Co60 O76 2.057 . S
Co60 O91 2.037 . S
Co60 N95 2.145 1_545 S
Co60 N116 2.257 1_545 S
O61 Co59 2.143 . S
O61 Co60 2.160 . S
C62 O63 1.278 . S
C62 O70 1.224 . S
O63 C62 1.278 . S
C64 O65 1.245 . S
C64 O76 1.232 . S
O65 C64 1.245 . S
O66 Co60 2.058 . S
O66 C92 1.269 . S
O67 Co59 2.074 . S
O67 C92 1.257 . S
H68 C93 0.930 . S
H69 C99 0.930 . S
O70 Co59 2.093 . S
O70 C62 1.224 . S
H71 C103 0.929 . S
H72 C105 0.930 . S
H73 C106 0.930 . S
H74 C104 0.929 . S
H75 C107 0.928 . S
O76 Co60 2.057 . S
O76 C64 1.232 . S
H77 C96 0.929 . S
H78 C97 0.929 . S
H79 C109 0.931 . S
H80 C101 0.929 . S
H81 C110 0.930 . S
H82 C102 0.931 . S
O83 Co59 2.097 . S
O83 C111 1.214 . S
H84 C112 0.929 . S
H85 C113 0.929 . S
H86 C114 0.930 . S
H87 C115 0.929 . S
H88 C117 0.930 . S
H89 C94 0.930 . S
H90 C98 0.930 . S
O91 Co60 2.037 . S
O91 C111 1.234 . S
C92 O66 1.269 . S
C92 O67 1.257 . S
C93 H68 0.930 . S
C93 C96 1.388 . S
C93 C98 1.418 . S
C94 H89 0.930 . S
C94 C97 1.404 . S
C94 C98 1.353 . S
N95 Co60 2.145 1_565 S
N95 C96 1.397 . S
N95 C97 1.334 . S
C96 H77 0.929 . S
C96 C93 1.388 . S
C96 N95 1.397 . S
C97 H78 0.929 . S
C97 C94 1.404 . S
C97 N95 1.334 . S
C98 H90 0.930 . S
C98 C93 1.418 . S
C98 C94 1.353 . S
C99 H69 0.930 . S
C99 N100 1.330 . S
C99 C101 1.446 . S
N100 Co59 2.151 . S
N100 C99 1.330 . S
N100 C104 1.418 . S
C101 H80 0.929 . S
C101 C99 1.446 . S
C101 C102 1.332 . S
C102 H82 0.931 . S
C102 C101 1.332 . S
C102 C103 1.267 . S
C103 H71 0.929 . S
C103 C102 1.267 . S
C103 C104 1.251 . S
C104 H74 0.929 . S
C104 N100 1.418 . S
C104 C103 1.251 . S
C105 H72 0.930 . S
C105 C107 1.406 . S
C105 C110 1.261 . S
C106 H73 0.930 . S
C106 N108 1.325 . S
C106 C109 1.357 . S
C107 H75 0.928 . S
C107 C105 1.406 . S
C107 N108 1.261 . S
N108 Co59 2.214 . S
N108 C106 1.325 . S
N108 C107 1.261 . S
C109 H79 0.931 . S
C109 C106 1.357 . S
C109 C110 1.312 . S
C110 H81 0.930 . S
C110 C105 1.261 . S
C110 C109 1.312 . S
C111 O83 1.214 . S
C111 O91 1.234 . S
C112 H84 0.929 . S
C112 C115 1.391 . S
C112 C117 1.391 . S
C113 H85 0.929 . S
C113 C114 1.390 . S
C113 N116 1.391 . S
C114 H86 0.930 . S
C114 C113 1.390 . S
C114 C115 1.392 . S
C115 H87 0.929 . S
C115 C112 1.391 . S
C115 C114 1.392 . S
N116 Co60 2.257 1_565 S
N116 C113 1.391 . S
N116 C117 1.388 . S
C117 H88 0.930 . S
C117 C112 1.391 . S
C117 N116 1.388 . S
Co118 O120 2.143 . S
Co118 O126 2.074 . S
Co118 O129 2.093 . S
Co118 O142 2.097 . S
Co118 N159 2.151 . S
Co118 N167 2.214 . S
Co119 O120 2.160 . S
Co119 O125 2.058 . S
Co119 O135 2.057 . S
Co119 O150 2.037 . S
Co119 N154 2.145 1_655 S
Co119 N175 2.257 1_655 S
O120 Co118 2.143 . S
O120 Co119 2.160 . S
C121 O122 1.278 . S
C121 O129 1.224 . S
O122 C121 1.278 . S
C123 O124 1.245 . S
C123 O135 1.232 . S
O124 C123 1.245 . S
O125 Co119 2.058 . S
O125 C151 1.269 . S
O126 Co118 2.074 . S
O126 C151 1.257 . S
H127 C152 0.930 . S
H128 C158 0.930 . S
O129 Co118 2.093 . S
O129 C121 1.224 . S
H130 C162 0.929 . S
H131 C164 0.930 . S
H132 C165 0.930 . S
H133 C163 0.929 . S
H134 C166 0.928 . S
O135 Co119 2.057 . S
O135 C123 1.232 . S
H136 C155 0.929 . S
H137 C156 0.929 . S
H138 C168 0.931 . S
H139 C160 0.929 . S
H140 C169 0.930 . S
H141 C161 0.931 . S
O142 Co118 2.097 . S
O142 C170 1.214 . S
H143 C171 0.929 . S
H144 C172 0.929 . S
H145 C173 0.930 . S
H146 C174 0.929 . S
H147 C176 0.930 . S
H148 C153 0.930 . S
H149 C157 0.930 . S
O150 Co119 2.037 . S
O150 C170 1.234 . S
C151 O125 1.269 . S
C151 O126 1.257 . S
C152 H127 0.930 . S
C152 C155 1.388 . S
C152 C157 1.418 . S
C153 H148 0.930 . S
C153 C156 1.404 . S
C153 C157 1.353 . S
N154 Co119 2.145 1_455 S
N154 C155 1.397 . S
N154 C156 1.334 . S
C155 H136 0.929 . S
C155 C152 1.388 . S
C155 N154 1.397 . S
C156 H137 0.929 . S
C156 C153 1.404 . S
C156 N154 1.334 . S
C157 H149 0.930 . S
C157 C152 1.418 . S
C157 C153 1.353 . S
C158 H128 0.930 . S
C158 N159 1.330 . S
C158 C160 1.446 . S
N159 Co118 2.151 . S
N159 C158 1.330 . S
N159 C163 1.418 . S
C160 H139 0.929 . S
C160 C158 1.446 . S
C160 C161 1.332 . S
C161 H141 0.931 . S
C161 C160 1.332 . S
C161 C162 1.267 . S
C162 H130 0.929 . S
C162 C161 1.267 . S
C162 C163 1.251 . S
C163 H133 0.929 . S
C163 N159 1.418 . S
C163 C162 1.251 . S
C164 H131 0.930 . S
C164 C166 1.406 . S
C164 C169 1.261 . S
C165 H132 0.930 . S
C165 N167 1.325 . S
C165 C168 1.357 . S
C166 H134 0.928 . S
C166 C164 1.406 . S
C166 N167 1.261 . S
N167 Co118 2.214 . S
N167 C165 1.325 . S
N167 C166 1.261 . S
C168 H138 0.931 . S
C168 C165 1.357 . S
C168 C169 1.312 . S
C169 H140 0.930 . S
C169 C164 1.261 . S
C169 C168 1.312 . S
C170 O142 1.214 . S
C170 O150 1.234 . S
C171 H143 0.929 . S
C171 C174 1.391 . S
C171 C176 1.391 . S
C172 H144 0.929 . S
C172 C173 1.390 . S
C172 N175 1.391 . S
C173 H145 0.930 . S
C173 C172 1.390 . S
C173 C174 1.392 . S
C174 H146 0.929 . S
C174 C171 1.391 . S
C174 C173 1.392 . S
N175 Co119 2.257 1_455 S
N175 C172 1.391 . S
N175 C176 1.388 . S
C176 H147 0.930 . S
C176 C171 1.391 . S
C176 N175 1.388 . S
Co177 O179 2.143 . S
Co177 O185 2.074 . S
Co177 O188 2.093 . S
Co177 O201 2.097 . S
Co177 N218 2.151 . S
Co177 N226 2.214 . S
Co178 O179 2.160 . S
Co178 O184 2.058 . S
Co178 O194 2.057 . S
Co178 O209 2.037 . S
Co178 N213 2.145 1_565 S
Co178 N234 2.257 1_565 S
O179 Co177 2.143 . S
O179 Co178 2.160 . S
C180 O181 1.278 . S
C180 O188 1.224 . S
O181 C180 1.278 . S
C182 O183 1.245 . S
C182 O194 1.232 . S
O183 C182 1.245 . S
O184 Co178 2.058 . S
O184 C210 1.269 . S
O185 Co177 2.074 . S
O185 C210 1.257 . S
H186 C211 0.930 . S
H187 C217 0.930 . S
O188 Co177 2.093 . S
O188 C180 1.224 . S
H189 C221 0.929 . S
H190 C223 0.930 . S
H191 C224 0.930 . S
H192 C222 0.929 . S
H193 C225 0.928 . S
O194 Co178 2.057 . S
O194 C182 1.232 . S
H195 C214 0.929 . S
H196 C215 0.929 . S
H197 C227 0.931 . S
H198 C219 0.929 . S
H199 C228 0.930 . S
H200 C220 0.931 . S
O201 Co177 2.097 . S
O201 C229 1.214 . S
H202 C230 0.929 . S
H203 C231 0.929 . S
H204 C232 0.930 . S
H205 C233 0.929 . S
H206 C235 0.930 . S
H207 C212 0.930 . S
H208 C216 0.930 . S
O209 Co178 2.037 . S
O209 C229 1.234 . S
C210 O184 1.269 . S
C210 O185 1.257 . S
C211 H186 0.930 . S
C211 C214 1.388 . S
C211 C216 1.418 . S
C212 H207 0.930 . S
C212 C215 1.404 . S
C212 C216 1.353 . S
N213 Co178 2.145 1_545 S
N213 C214 1.397 . S
N213 C215 1.334 . S
C214 H195 0.929 . S
C214 C211 1.388 . S
C214 N213 1.397 . S
C215 H196 0.929 . S
C215 C212 1.404 . S
C215 N213 1.334 . S
C216 H208 0.930 . S
C216 C211 1.418 . S
C216 C212 1.353 . S
C217 H187 0.930 . S
C217 N218 1.330 . S
C217 C219 1.446 . S
N218 Co177 2.151 . S
N218 C217 1.330 . S
N218 C222 1.418 . S
C219 H198 0.929 . S
C219 C217 1.446 . S
C219 C220 1.332 . S
C220 H200 0.931 . S
C220 C219 1.332 . S
C220 C221 1.267 . S
C221 H189 0.929 . S
C221 C220 1.267 . S
C221 C222 1.251 . S
C222 H192 0.929 . S
C222 N218 1.418 . S
C222 C221 1.251 . S
C223 H190 0.930 . S
C223 C225 1.406 . S
C223 C228 1.261 . S
C224 H191 0.930 . S
C224 N226 1.325 . S
C224 C227 1.357 . S
C225 H193 0.928 . S
C225 C223 1.406 . S
C225 N226 1.261 . S
N226 Co177 2.214 . S
N226 C224 1.325 . S
N226 C225 1.261 . S
C227 H197 0.931 . S
C227 C224 1.357 . S
C227 C228 1.312 . S
C228 H199 0.930 . S
C228 C223 1.261 . S
C228 C227 1.312 . S
C229 O201 1.214 . S
C229 O209 1.234 . S
C230 H202 0.929 . S
C230 C233 1.391 . S
C230 C235 1.391 . S
C231 H203 0.929 . S
C231 C232 1.390 . S
C231 N234 1.391 . S
C232 H204 0.930 . S
C232 C231 1.390 . S
C232 C233 1.392 . S
C233 H205 0.929 . S
C233 C230 1.391 . S
C233 C232 1.392 . S
N234 Co178 2.257 1_545 S
N234 C231 1.391 . S
N234 C235 1.388 . S
C235 H206 0.930 . S
C235 C230 1.391 . S
C235 N234 1.388 . S
Co236 O238 2.143 . S
Co236 O244 2.074 . S
Co236 O247 2.093 . S
Co236 O260 2.097 . S
Co236 N277 2.151 . S
Co236 N285 2.214 . S
Co237 O238 2.160 . S
Co237 O243 2.058 . S
Co237 O253 2.057 . S
Co237 O268 2.037 . S
Co237 N272 2.145 1_455 S
Co237 N293 2.257 1_455 S
O238 Co236 2.143 . S
O238 Co237 2.160 . S
C239 O240 1.278 . S
C239 O247 1.224 . S
O240 C239 1.278 . S
C241 O242 1.245 . S
C241 O253 1.232 . S
O242 C241 1.245 . S
O243 Co237 2.058 . S
O243 C269 1.269 . S
O244 Co236 2.074 . S
O244 C269 1.257 . S
H245 C270 0.930 . S
H246 C276 0.930 . S
O247 Co236 2.093 . S
O247 C239 1.224 . S
H248 C280 0.929 . S
H249 C282 0.930 . S
H250 C283 0.930 . S
H251 C281 0.929 . S
H252 C284 0.928 . S
O253 Co237 2.057 . S
O253 C241 1.232 . S
H254 C273 0.929 . S
H255 C274 0.929 . S
H256 C286 0.931 . S
H257 C278 0.929 . S
H258 C287 0.930 . S
H259 C279 0.931 . S
O260 Co236 2.097 . S
O260 C288 1.214 . S
H261 C289 0.929 . S
H262 C290 0.929 . S
H263 C291 0.930 . S
H264 C292 0.929 . S
H265 C294 0.930 . S
H266 C271 0.930 . S
H267 C275 0.930 . S
O268 Co237 2.037 . S
O268 C288 1.234 . S
C269 O243 1.269 . S
C269 O244 1.257 . S
C270 H245 0.930 . S
C270 C273 1.388 . S
C270 C275 1.418 . S
C271 H266 0.930 . S
C271 C274 1.404 . S
C271 C275 1.353 . S
N272 Co237 2.145 1_655 S
N272 C273 1.397 . S
N272 C274 1.334 . S
C273 H254 0.929 . S
C273 C270 1.388 . S
C273 N272 1.397 . S
C274 H255 0.929 . S
C274 C271 1.404 . S
C274 N272 1.334 . S
C275 H267 0.930 . S
C275 C270 1.418 . S
C275 C271 1.353 . S
C276 H246 0.930 . S
C276 N277 1.330 . S
C276 C278 1.446 . S
N277 Co236 2.151 . S
N277 C276 1.330 . S
N277 C281 1.418 . S
C278 H257 0.929 . S
C278 C276 1.446 . S
C278 C279 1.332 . S
C279 H259 0.931 . S
C279 C278 1.332 . S
C279 C280 1.267 . S
C280 H248 0.929 . S
C280 C279 1.267 . S
C280 C281 1.251 . S
C281 H251 0.929 . S
C281 N277 1.418 . S
C281 C280 1.251 . S
C282 H249 0.930 . S
C282 C284 1.406 . S
C282 C287 1.261 . S
C283 H250 0.930 . S
C283 N285 1.325 . S
C283 C286 1.357 . S
C284 H252 0.928 . S
C284 C282 1.406 . S
C284 N285 1.261 . S
N285 Co236 2.214 . S
N285 C283 1.325 . S
N285 C284 1.261 . S
C286 H256 0.931 . S
C286 C283 1.357 . S
C286 C287 1.312 . S
C287 H258 0.930 . S
C287 C282 1.261 . S
C287 C286 1.312 . S
C288 O260 1.214 . S
C288 O268 1.234 . S
C289 H261 0.929 . S
C289 C292 1.391 . S
C289 C294 1.391 . S
C290 H262 0.929 . S
C290 C291 1.390 . S
C290 N293 1.391 . S
C291 H263 0.930 . S
C291 C290 1.390 . S
C291 C292 1.392 . S
C292 H264 0.929 . S
C292 C289 1.391 . S
C292 C291 1.392 . S
N293 Co237 2.257 1_655 S
N293 C290 1.391 . S
N293 C294 1.388 . S
C294 H265 0.930 . S
C294 C289 1.391 . S
C294 N293 1.388 . S
Co295 O297 2.143 . S
Co295 O303 2.074 . S
Co295 O306 2.093 . S
Co295 O319 2.097 . S
Co295 N336 2.151 . S
Co295 N344 2.214 . S
Co296 O297 2.160 . S
Co296 O302 2.058 . S
Co296 O312 2.057 . S
Co296 O327 2.037 . S
Co296 N331 2.145 1_545 S
Co296 N352 2.257 1_545 S
O297 Co295 2.143 . S
O297 Co296 2.160 . S
C298 O299 1.278 . S
C298 O306 1.224 . S
O299 C298 1.278 . S
C300 O301 1.245 . S
C300 O312 1.232 . S
O301 C300 1.245 . S
O302 Co296 2.058 . S
O302 C328 1.269 . S
O303 Co295 2.074 . S
O303 C328 1.257 . S
H304 C329 0.930 . S
H305 C335 0.930 . S
O306 Co295 2.093 . S
O306 C298 1.224 . S
H307 C339 0.929 . S
H308 C341 0.930 . S
H309 C342 0.930 . S
H310 C340 0.929 . S
H311 C343 0.928 . S
O312 Co296 2.057 . S
O312 C300 1.232 . S
H313 C332 0.929 . S
H314 C333 0.929 . S
H315 C345 0.931 . S
H316 C337 0.929 . S
H317 C346 0.930 . S
H318 C338 0.931 . S
O319 Co295 2.097 . S
O319 C347 1.214 . S
H320 C348 0.929 . S
H321 C349 0.929 . S
H322 C350 0.930 . S
H323 C351 0.929 . S
H324 C353 0.930 . S
H325 C330 0.930 . S
H326 C334 0.930 . S
O327 Co296 2.037 . S
O327 C347 1.234 . S
C328 O302 1.269 . S
C328 O303 1.257 . S
C329 H304 0.930 . S
C329 C332 1.388 . S
C329 C334 1.418 . S
C330 H325 0.930 . S
C330 C333 1.404 . S
C330 C334 1.353 . S
N331 Co296 2.145 1_565 S
N331 C332 1.397 . S
N331 C333 1.334 . S
C332 H313 0.929 . S
C332 C329 1.388 . S
C332 N331 1.397 . S
C333 H314 0.929 . S
C333 C330 1.404 . S
C333 N331 1.334 . S
C334 H326 0.930 . S
C334 C329 1.418 . S
C334 C330 1.353 . S
C335 H305 0.930 . S
C335 N336 1.330 . S
C335 C337 1.446 . S
N336 Co295 2.151 . S
N336 C335 1.330 . S
N336 C340 1.418 . S
C337 H316 0.929 . S
C337 C335 1.446 . S
C337 C338 1.332 . S
C338 H318 0.931 . S
C338 C337 1.332 . S
C338 C339 1.267 . S
C339 H307 0.929 . S
C339 C338 1.267 . S
C339 C340 1.251 . S
C340 H310 0.929 . S
C340 N336 1.418 . S
C340 C339 1.251 . S
C341 H308 0.930 . S
C341 C343 1.406 . S
C341 C346 1.261 . S
C342 H309 0.930 . S
C342 N344 1.325 . S
C342 C345 1.357 . S
C343 H311 0.928 . S
C343 C341 1.406 . S
C343 N344 1.261 . S
N344 Co295 2.214 . S
N344 C342 1.325 . S
N344 C343 1.261 . S
C345 H315 0.931 . S
C345 C342 1.357 . S
C345 C346 1.312 . S
C346 H317 0.930 . S
C346 C341 1.261 . S
C346 C345 1.312 . S
C347 O319 1.214 . S
C347 O327 1.234 . S
C348 H320 0.929 . S
C348 C351 1.391 . S
C348 C353 1.391 . S
C349 H321 0.929 . S
C349 C350 1.390 . S
C349 N352 1.391 . S
C350 H322 0.930 . S
C350 C349 1.390 . S
C350 C351 1.392 . S
C351 H323 0.929 . S
C351 C348 1.391 . S
C351 C350 1.392 . S
N352 Co296 2.257 1_565 S
N352 C349 1.391 . S
N352 C353 1.388 . S
C353 H324 0.930 . S
C353 C348 1.391 . S
C353 N352 1.388 . S
Co354 O356 2.143 . S
Co354 O362 2.074 . S
Co354 O365 2.093 . S
Co354 O378 2.097 . S
Co354 N395 2.151 . S
Co354 N403 2.214 . S
Co355 O356 2.160 . S
Co355 O361 2.058 . S
Co355 O371 2.057 . S
Co355 O386 2.037 . S
Co355 N390 2.145 1_655 S
Co355 N411 2.257 1_655 S
O356 Co354 2.143 . S
O356 Co355 2.160 . S
C357 O358 1.278 . S
C357 O365 1.224 . S
O358 C357 1.278 . S
C359 O360 1.245 . S
C359 O371 1.232 . S
O360 C359 1.245 . S
O361 Co355 2.058 . S
O361 C387 1.269 . S
O362 Co354 2.074 . S
O362 C387 1.257 . S
H363 C388 0.930 . S
H364 C394 0.930 . S
O365 Co354 2.093 . S
O365 C357 1.224 . S
H366 C398 0.929 . S
H367 C400 0.930 . S
H368 C401 0.930 . S
H369 C399 0.929 . S
H370 C402 0.928 . S
O371 Co355 2.057 . S
O371 C359 1.232 . S
H372 C391 0.929 . S
H373 C392 0.929 . S
H374 C404 0.931 . S
H375 C396 0.929 . S
H376 C405 0.930 . S
H377 C397 0.931 . S
O378 Co354 2.097 . S
O378 C406 1.214 . S
H379 C407 0.929 . S
H380 C408 0.929 . S
H381 C409 0.930 . S
H382 C410 0.929 . S
H383 C412 0.930 . S
H384 C389 0.930 . S
H385 C393 0.930 . S
O386 Co355 2.037 . S
O386 C406 1.234 . S
C387 O361 1.269 . S
C387 O362 1.257 . S
C388 H363 0.930 . S
C388 C391 1.388 . S
C388 C393 1.418 . S
C389 H384 0.930 . S
C389 C392 1.404 . S
C389 C393 1.353 . S
N390 Co355 2.145 1_455 S
N390 C391 1.397 . S
N390 C392 1.334 . S
C391 H372 0.929 . S
C391 C388 1.388 . S
C391 N390 1.397 . S
C392 H373 0.929 . S
C392 C389 1.404 . S
C392 N390 1.334 . S
C393 H385 0.930 . S
C393 C388 1.418 . S
C393 C389 1.353 . S
C394 H364 0.930 . S
C394 N395 1.330 . S
C394 C396 1.446 . S
N395 Co354 2.151 . S
N395 C394 1.330 . S
N395 C399 1.418 . S
C396 H375 0.929 . S
C396 C394 1.446 . S
C396 C397 1.332 . S
C397 H377 0.931 . S
C397 C396 1.332 . S
C397 C398 1.267 . S
C398 H366 0.929 . S
C398 C397 1.267 . S
C398 C399 1.251 . S
C399 H369 0.929 . S
C399 N395 1.418 . S
C399 C398 1.251 . S
C400 H367 0.930 . S
C400 C402 1.406 . S
C400 C405 1.261 . S
C401 H368 0.930 . S
C401 N403 1.325 . S
C401 C404 1.357 . S
C402 H370 0.928 . S
C402 C400 1.406 . S
C402 N403 1.261 . S
N403 Co354 2.214 . S
N403 C401 1.325 . S
N403 C402 1.261 . S
C404 H374 0.931 . S
C404 C401 1.357 . S
C404 C405 1.312 . S
C405 H376 0.930 . S
C405 C400 1.261 . S
C405 C404 1.312 . S
C406 O378 1.214 . S
C406 O386 1.234 . S
C407 H379 0.929 . S
C407 C410 1.391 . S
C407 C412 1.391 . S
C408 H380 0.929 . S
C408 C409 1.390 . S
C408 N411 1.391 . S
C409 H381 0.930 . S
C409 C408 1.390 . S
C409 C410 1.392 . S
C410 H382 0.929 . S
C410 C407 1.391 . S
C410 C409 1.392 . S
N411 Co355 2.257 1_455 S
N411 C408 1.391 . S
N411 C412 1.388 . S
C412 H383 0.930 . S
C412 C407 1.391 . S
C412 N411 1.388 . S
Co413 O415 2.143 . S
Co413 O421 2.074 . S
Co413 O424 2.093 . S
Co413 O437 2.097 . S
Co413 N454 2.151 . S
Co413 N462 2.214 . S
Co414 O415 2.160 . S
Co414 O420 2.058 . S
Co414 O430 2.057 . S
Co414 O445 2.037 . S
Co414 N449 2.145 1_565 S
Co414 N470 2.257 1_565 S
O415 Co413 2.143 . S
O415 Co414 2.160 . S
C416 O417 1.278 . S
C416 O424 1.224 . S
O417 C416 1.278 . S
C418 O419 1.245 . S
C418 O430 1.232 . S
O419 C418 1.245 . S
O420 Co414 2.058 . S
O420 C446 1.269 . S
O421 Co413 2.074 . S
O421 C446 1.257 . S
H422 C447 0.930 . S
H423 C453 0.930 . S
O424 Co413 2.093 . S
O424 C416 1.224 . S
H425 C457 0.929 . S
H426 C459 0.930 . S
H427 C460 0.930 . S
H428 C458 0.929 . S
H429 C461 0.928 . S
O430 Co414 2.057 . S
O430 C418 1.232 . S
H431 C450 0.929 . S
H432 C451 0.929 . S
H433 C463 0.931 . S
H434 C455 0.929 . S
H435 C464 0.930 . S
H436 C456 0.931 . S
O437 Co413 2.097 . S
O437 C465 1.214 . S
H438 C466 0.929 . S
H439 C467 0.929 . S
H440 C468 0.930 . S
H441 C469 0.929 . S
H442 C471 0.930 . S
H443 C448 0.930 . S
H444 C452 0.930 . S
O445 Co414 2.037 . S
O445 C465 1.234 . S
C446 O420 1.269 . S
C446 O421 1.257 . S
C447 H422 0.930 . S
C447 C450 1.388 . S
C447 C452 1.418 . S
C448 H443 0.930 . S
C448 C451 1.404 . S
C448 C452 1.353 . S
N449 Co414 2.145 1_545 S
N449 C450 1.397 . S
N449 C451 1.334 . S
C450 H431 0.929 . S
C450 C447 1.388 . S
C450 N449 1.397 . S
C451 H432 0.929 . S
C451 C448 1.404 . S
C451 N449 1.334 . S
C452 H444 0.930 . S
C452 C447 1.418 . S
C452 C448 1.353 . S
C453 H423 0.930 . S
C453 N454 1.330 . S
C453 C455 1.446 . S
N454 Co413 2.151 . S
N454 C453 1.330 . S
N454 C458 1.418 . S
C455 H434 0.929 . S
C455 C453 1.446 . S
C455 C456 1.332 . S
C456 H436 0.931 . S
C456 C455 1.332 . S
C456 C457 1.267 . S
C457 H425 0.929 . S
C457 C456 1.267 . S
C457 C458 1.251 . S
C458 H428 0.929 . S
C458 N454 1.418 . S
C458 C457 1.251 . S
C459 H426 0.930 . S
C459 C461 1.406 . S
C459 C464 1.261 . S
C460 H427 0.930 . S
C460 N462 1.325 . S
C460 C463 1.357 . S
C461 H429 0.928 . S
C461 C459 1.406 . S
C461 N462 1.261 . S
N462 Co413 2.214 . S
N462 C460 1.325 . S
N462 C461 1.261 . S
C463 H433 0.931 . S
C463 C460 1.357 . S
C463 C464 1.312 . S
C464 H435 0.930 . S
C464 C459 1.261 . S
C464 C463 1.312 . S
C465 O437 1.214 . S
C465 O445 1.234 . S
C466 H438 0.929 . S
C466 C469 1.391 . S
C466 C471 1.391 . S
C467 H439 0.929 . S
C467 C468 1.390 . S
C467 N470 1.391 . S
C468 H440 0.930 . S
C468 C467 1.390 . S
C468 C469 1.392 . S
C469 H441 0.929 . S
C469 C466 1.391 . S
C469 C468 1.392 . S
N470 Co414 2.257 1_545 S
N470 C467 1.391 . S
N470 C471 1.388 . S
C471 H442 0.930 . S
C471 C466 1.391 . S
C471 N470 1.388 . S
H472 C478 0.930 . S
H473 C482 0.930 . S
H474 C487 0.929 . S
H475 C485 0.929 . S
H476 C480 0.929 . S
H477 C486 0.929 . S
C478 H472 0.930 . S
C478 C479 1.367 1_655 S
C478 C486 1.378 . S
C479 C478 1.367 1_455 S
C479 C487 1.433 . S
C480 H476 0.929 . S
C480 C482 1.378 . S
C480 C484 1.350 1_455 S
C481 C484 1.463 1_455 S
C481 C486 1.350 1_455 S
C481 N489 1.427 . S
C482 H473 0.930 . S
C482 C480 1.378 . S
C482 C483 1.367 1_455 S
C483 C482 1.367 1_655 S
C483 C485 1.433 . S
C484 C480 1.350 1_655 S
C484 C481 1.463 1_655 S
C484 N488 1.427 . S
C485 H475 0.929 . S
C485 C483 1.433 . S
C485 N488 1.384 . S
C486 H477 0.929 . S
C486 C478 1.378 . S
C486 C481 1.350 1_655 S
C487 H474 0.929 . S
C487 C479 1.433 . S
C487 N489 1.384 . S
N488 C484 1.427 . S
N488 C485 1.384 . S
N489 C481 1.427 . S
N489 C487 1.384 . S
H490 C496 0.930 . S
H491 C500 0.930 . S
H492 C505 0.929 1_545 S
H493 C503 0.929 1_565 S
H494 C498 0.929 . S
H495 C504 0.929 . S
C496 H490 0.930 . S
C496 C497 1.367 . S
C496 C504 1.378 . S
C497 C496 1.367 . S
C497 C505 1.433 . S
C498 H494 0.929 . S
C498 C500 1.378 . S
C498 C502 1.350 . S
C499 C502 1.463 1_565 S
C499 C504 1.350 . S
C499 N507 1.427 1_565 S
C500 H491 0.930 . S
C500 C498 1.378 . S
C500 C501 1.367 . S
C501 C500 1.367 . S
C501 C503 1.433 . S
C502 C498 1.350 . S
C502 C499 1.463 1_545 S
C502 N506 1.427 1_545 S
C503 H493 0.929 1_545 S
C503 C501 1.433 . S
C503 N506 1.384 1_545 S
C504 H495 0.929 . S
C504 C496 1.378 . S
C504 C499 1.350 . S
C505 H492 0.929 1_565 S
C505 C497 1.433 . S
C505 N507 1.384 1_565 S
N506 C502 1.427 1_565 S
N506 C503 1.384 1_565 S
N507 C499 1.427 1_545 S
N507 C505 1.384 1_545 S
H508 C514 0.930 . S
H509 C518 0.930 . S
H510 C523 0.929 . S
H511 C521 0.929 . S
H512 C516 0.929 . S
H513 C522 0.929 . S
C514 H508 0.930 . S
C514 C515 1.367 . S
C514 C522 1.378 . S
C515 C514 1.367 . S
C515 C523 1.433 1_655 S
C516 H512 0.929 . S
C516 C518 1.378 . S
C516 C520 1.350 . S
C517 C520 1.463 1_655 S
C517 C522 1.350 . S
C517 N525 1.427 1_655 S
C518 H509 0.930 . S
C518 C516 1.378 . S
C518 C519 1.367 . S
C519 C518 1.367 . S
C519 C521 1.433 1_455 S
C520 C516 1.350 . S
C520 C517 1.463 1_455 S
C520 N524 1.427 1_455 S
C521 H511 0.929 . S
C521 C519 1.433 1_655 S
C521 N524 1.384 . S
C522 H513 0.929 . S
C522 C514 1.378 . S
C522 C517 1.350 . S
C523 H510 0.929 . S
C523 C515 1.433 1_455 S
C523 N525 1.384 . S
N524 C520 1.427 1_655 S
N524 C521 1.384 . S
N525 C517 1.427 1_455 S
N525 C523 1.384 . S
H526 C532 0.930 . S
H527 C536 0.930 . S
H528 C541 0.929 . S
H529 C539 0.929 . S
H530 C534 0.929 . S
H531 C540 0.929 . S
C532 H526 0.930 . S
C532 C533 1.367 . S
C532 C540 1.378 . S
C533 C532 1.367 . S
C533 C541 1.433 . S
C534 H530 0.929 . S
C534 C536 1.378 . S
C534 C538 1.350 . S
C535 C538 1.463 1_545 S
C535 C540 1.350 . S
C535 N543 1.427 . S
C536 H527 0.930 . S
C536 C534 1.378 . S
C536 C537 1.367 . S
C537 C536 1.367 . S
C537 C539 1.433 . S
C538 C534 1.350 . S
C538 C535 1.463 1_565 S
C538 N542 1.427 . S
C539 H529 0.929 . S
C539 C537 1.433 . S
C539 N542 1.384 . S
C540 H531 0.929 . S
C540 C532 1.378 . S
C540 C535 1.350 . S
C541 H528 0.929 . S
C541 C533 1.433 . S
C541 N543 1.384 . S
N542 C538 1.427 . S
N542 C539 1.384 . S
N543 C535 1.427 . S
N543 C541 1.384 . S
H544 C550 0.930 1_455 S
H545 C554 0.930 1_655 S
H546 C559 0.929 . S
H547 C557 0.929 . S
H548 C552 0.929 . S
H549 C558 0.929 . S
C550 H544 0.930 1_655 S
C550 C551 1.367 . S
C550 C558 1.378 1_655 S
C551 C550 1.367 . S
C551 C559 1.433 . S
C552 H548 0.929 . S
C552 C554 1.378 1_655 S
C552 C556 1.350 1_655 S
C553 C556 1.463 1_656 S
C553 C558 1.350 1_655 S
C553 N561 1.427 . S
C554 H545 0.930 1_455 S
C554 C552 1.378 1_455 S
C554 C555 1.367 . S
C555 C554 1.367 . S
C555 C557 1.433 . S
C556 C552 1.350 1_455 S
C556 C553 1.463 1_454 S
C556 N560 1.427 . S
C557 H547 0.929 . S
C557 C555 1.433 . S
C557 N560 1.384 . S
C558 H549 0.929 . S
C558 C550 1.378 1_455 S
C558 C553 1.350 1_455 S
C559 H546 0.929 . S
C559 C551 1.433 . S
C559 N561 1.384 . S
N560 C556 1.427 . S
N560 C557 1.384 . S
N561 C553 1.427 . S
N561 C559 1.384 . S
H562 C568 0.930 . S
H563 C572 0.930 . S
H564 C577 0.929 1_565 S
H565 C575 0.929 1_545 S
H566 C570 0.929 . S
H567 C576 0.929 . S
C568 H562 0.930 . S
C568 C569 1.367 . S
C568 C576 1.378 . S
C569 C568 1.367 . S
C569 C577 1.433 . S
C570 H566 0.929 . S
C570 C572 1.378 . S
C570 C574 1.350 . S
C571 C574 1.463 1_545 S
C571 C576 1.350 . S
C571 N579 1.427 1_545 S
C572 H563 0.930 . S
C572 C570 1.378 . S
C572 C573 1.367 . S
C573 C572 1.367 . S
C573 C575 1.433 . S
C574 C570 1.350 . S
C574 C571 1.463 1_565 S
C574 N578 1.427 1_565 S
C575 H565 0.929 1_565 S
C575 C573 1.433 . S
C575 N578 1.384 1_565 S
C576 H567 0.929 . S
C576 C568 1.378 . S
C576 C571 1.350 . S
C577 H564 0.929 1_545 S
C577 C569 1.433 . S
C577 N579 1.384 1_545 S
N578 C574 1.427 1_545 S
N578 C575 1.384 1_545 S
N579 C571 1.427 1_565 S
N579 C577 1.384 1_565 S
H580 C586 0.930 . S
H581 C590 0.930 . S
H582 C595 0.929 . S
H583 C593 0.929 . S
H584 C588 0.929 1_655 S
H585 C594 0.929 1_455 S
C586 H580 0.930 . S
C586 C587 1.367 . S
C586 C594 1.378 . S
C587 C586 1.367 . S
C587 C595 1.433 . S
C588 H584 0.929 1_455 S
C588 C590 1.378 . S
C588 C592 1.350 . S
C589 C592 1.463 1_654 S
C589 C594 1.350 . S
C589 N597 1.427 . S
C590 H581 0.930 . S
C590 C588 1.378 . S
C590 C591 1.367 . S
C591 C590 1.367 . S
C591 C593 1.433 . S
C592 C588 1.350 . S
C592 C589 1.463 1_456 S
C592 N596 1.427 . S
C593 H583 0.929 . S
C593 C591 1.433 . S
C593 N596 1.384 . S
C594 H585 0.929 1_655 S
C594 C586 1.378 . S
C594 C589 1.350 . S
C595 H582 0.929 . S
C595 C587 1.433 . S
C595 N597 1.384 . S
N596 C592 1.427 . S
N596 C593 1.384 . S
N597 C589 1.427 . S
N597 C595 1.384 . S
H598 C604 0.930 . S
H599 C608 0.930 . S
H600 C613 0.929 1_565 S
H601 C611 0.929 1_545 S
H602 C606 0.929 . S
H603 C612 0.929 . S
C604 H598 0.930 . S
C604 C605 1.367 . S
C604 C612 1.378 . S
C605 C604 1.367 . S
C605 C613 1.433 . S
C606 H602 0.929 . S
C606 C608 1.378 . S
C606 C610 1.350 . S
C607 C610 1.463 1_545 S
C607 C612 1.350 . S
C607 N615 1.427 1_545 S
C608 H599 0.930 . S
C608 C606 1.378 . S
C608 C609 1.367 . S
C609 C608 1.367 . S
C609 C611 1.433 . S
C610 C606 1.350 . S
C610 C607 1.463 1_565 S
C610 N614 1.427 1_565 S
C611 H601 0.929 1_565 S
C611 C609 1.433 . S
C611 N614 1.384 1_565 S
C612 H603 0.929 . S
C612 C604 1.378 . S
C612 C607 1.350 . S
C613 H600 0.929 1_545 S
C613 C605 1.433 . S
C613 N615 1.384 1_545 S
N614 C610 1.427 1_545 S
N614 C611 1.384 1_545 S
N615 C607 1.427 1_565 S
N615 C613 1.384 1_565 S
H616 C622 0.930 . S
H617 C626 0.930 . S
H618 C631 0.929 . S
H619 C629 0.929 . S
H620 C624 0.929 . S
H621 C630 0.929 . S
C622 H616 0.930 . S
C622 C623 1.367 . S
C622 C630 1.378 . S
C623 C622 1.367 . S
C623 C631 1.433 . S
C624 H620 0.929 . S
C624 C626 1.378 . S
C624 C628 1.350 . S
C625 C628 1.463 . S
C625 C630 1.350 . S
C625 N633 1.427 . S
C626 H617 0.930 . S
C626 C624 1.378 . S
C626 C627 1.367 . S
C627 C626 1.367 . S
C627 C629 1.433 . S
C628 C624 1.350 . S
C628 C625 1.463 . S
C628 N632 1.427 . S
C629 H619 0.929 . S
C629 C627 1.433 . S
C629 N632 1.384 . S
C630 H621 0.929 . S
C630 C622 1.378 . S
C630 C625 1.350 . S
C631 H618 0.929 . S
C631 C623 1.433 . S
C631 N633 1.384 . S
N632 C628 1.427 . S
N632 C629 1.384 . S
N633 C625 1.427 . S
N633 C631 1.384 . S
H634 C640 0.930 . S
H635 C644 0.930 . S
H636 C649 0.929 . S
H637 C647 0.929 . S
H638 C642 0.929 . S
H639 C648 0.929 . S
C640 H634 0.930 . S
C640 C641 1.367 . S
C640 C648 1.378 . S
C641 C640 1.367 . S
C641 C649 1.433 . S
C642 H638 0.929 . S
C642 C644 1.378 . S
C642 C646 1.350 . S
C643 C646 1.463 . S
C643 C648 1.350 . S
C643 N651 1.427 . S
C644 H635 0.930 . S
C644 C642 1.378 . S
C644 C645 1.367 . S
C645 C644 1.367 . S
C645 C647 1.433 . S
C646 C642 1.350 . S
C646 C643 1.463 . S
C646 N650 1.427 . S
C647 H637 0.929 . S
C647 C645 1.433 . S
C647 N650 1.384 . S
C648 H639 0.929 . S
C648 C640 1.378 . S
C648 C643 1.350 . S
C649 H636 0.929 . S
C649 C641 1.433 . S
C649 N651 1.384 . S
N650 C646 1.427 . S
N650 C647 1.384 . S
N651 C643 1.427 . S
N651 C649 1.384 . S
H652 C658 0.930 . S
H653 C662 0.930 . S
H654 C667 0.929 . S
H655 C665 0.929 . S
H656 C660 0.929 . S
H657 C666 0.929 . S
C658 H652 0.930 . S
C658 C659 1.367 . S
C658 C666 1.378 . S
C659 C658 1.367 . S
C659 C667 1.433 . S
C660 H656 0.929 . S
C660 C662 1.378 . S
C660 C664 1.350 . S
C661 C664 1.463 . S
C661 C666 1.350 . S
C661 N669 1.427 . S
C662 H653 0.930 . S
C662 C660 1.378 . S
C662 C663 1.367 . S
C663 C662 1.367 . S
C663 C665 1.433 . S
C664 C660 1.350 . S
C664 C661 1.463 . S
C664 N668 1.427 . S
C665 H655 0.929 . S
C665 C663 1.433 . S
C665 N668 1.384 . S
C666 H657 0.929 . S
C666 C658 1.378 . S
C666 C661 1.350 . S
C667 H654 0.929 . S
C667 C659 1.433 . S
C667 N669 1.384 . S
N668 C664 1.427 . S
N668 C665 1.384 . S
N669 C661 1.427 . S
N669 C667 1.384 . S
H670 C676 0.930 . S
H671 C680 0.930 . S
H672 C685 0.929 . S
H673 C683 0.929 . S
H674 C678 0.929 . S
H675 C684 0.929 . S
C676 H670 0.930 . S
C676 C677 1.367 . S
C676 C684 1.378 . S
C677 C676 1.367 . S
C677 C685 1.433 . S
C678 H674 0.929 . S
C678 C680 1.378 . S
C678 C682 1.350 . S
C679 C682 1.463 . S
C679 C684 1.350 . S
C679 N687 1.427 . S
C680 H671 0.930 . S
C680 C678 1.378 . S
C680 C681 1.367 . S
C681 C680 1.367 . S
C681 C683 1.433 . S
C682 C678 1.350 . S
C682 C679 1.463 . S
C682 N686 1.427 . S
C683 H673 0.929 . S
C683 C681 1.433 . S
C683 N686 1.384 . S
C684 H675 0.929 . S
C684 C676 1.378 . S
C684 C679 1.350 . S
C685 H672 0.929 . S
C685 C677 1.433 . S
C685 N687 1.384 . S
N686 C682 1.427 . S
N686 C683 1.384 . S
N687 C679 1.427 . S
N687 C685 1.384 . S
H688 C694 0.930 . S
H689 C698 0.930 . S
H690 C703 0.929 . S
H691 C701 0.929 . S
H692 C696 0.929 . S
H693 C702 0.929 . S
C694 H688 0.930 . S
C694 C695 1.367 1_655 S
C694 C702 1.378 . S
C695 C694 1.367 1_455 S
C695 C703 1.433 . S
C696 H692 0.929 . S
C696 C698 1.378 . S
C696 C700 1.350 1_455 S
C697 C700 1.463 1_445 S
C697 C702 1.350 1_455 S
C697 N705 1.427 . S
C698 H689 0.930 . S
C698 C696 1.378 . S
C698 C699 1.367 1_455 S
C699 C698 1.367 1_655 S
C699 C701 1.433 . S
C700 C696 1.350 1_655 S
C700 C697 1.463 1_665 S
C700 N704 1.427 . S
C701 H691 0.929 . S
C701 C699 1.433 . S
C701 N704 1.384 . S
C702 H693 0.929 . S
C702 C694 1.378 . S
C702 C697 1.350 1_655 S
C703 H690 0.929 . S
C703 C695 1.433 . S
C703 N705 1.384 . S
N704 C700 1.427 . S
N704 C701 1.384 . S
N705 C697 1.427 . S
N705 C703 1.384 . S
H706 C712 0.930 . S
H707 C716 0.930 . S
H708 C721 0.929 . S
H709 C719 0.929 . S
H710 C714 0.929 1_565 S
H711 C720 0.929 1_545 S
C712 H706 0.930 . S
C712 C713 1.367 . S
C712 C720 1.378 . S
C713 C712 1.367 . S
C713 C721 1.433 . S
C714 H710 0.929 1_545 S
C714 C716 1.378 . S
C714 C718 1.350 . S
C715 C718 1.463 1_465 S
C715 C720 1.350 . S
C715 N723 1.427 . S
C716 H707 0.930 . S
C716 C714 1.378 . S
C716 C717 1.367 . S
C717 C716 1.367 . S
C717 C719 1.433 . S
C718 C714 1.350 . S
C718 C715 1.463 1_645 S
C718 N722 1.427 . S
C719 H709 0.929 . S
C719 C717 1.433 . S
C719 N722 1.384 . S
C720 H711 0.929 1_565 S
C720 C712 1.378 . S
C720 C715 1.350 . S
C721 H708 0.929 . S
C721 C713 1.433 . S
C721 N723 1.384 . S
N722 C718 1.427 . S
N722 C719 1.384 . S
N723 C715 1.427 . S
N723 C721 1.384 . S
H724 C730 0.930 . S
H725 C734 0.930 . S
H726 C739 0.929 . S
H727 C737 0.929 . S
H728 C732 0.929 . S
H729 C738 0.929 . S
C730 H724 0.930 . S
C730 C731 1.367 . S
C730 C738 1.378 . S
C731 C730 1.367 . S
C731 C739 1.433 . S
C732 H728 0.929 . S
C732 C734 1.378 . S
C732 C736 1.350 . S
C733 C736 1.463 1_645 S
C733 C738 1.350 . S
C733 N741 1.427 . S
C734 H725 0.930 . S
C734 C732 1.378 . S
C734 C735 1.367 . S
C735 C734 1.367 . S
C735 C737 1.433 . S
C736 C732 1.350 . S
C736 C733 1.463 1_465 S
C736 N740 1.427 . S
C737 H727 0.929 . S
C737 C735 1.433 . S
C737 N740 1.384 . S
C738 H729 0.929 . S
C738 C730 1.378 . S
C738 C733 1.350 . S
C739 H726 0.929 . S
C739 C731 1.433 . S
C739 N741 1.384 . S
N740 C736 1.427 . S
N740 C737 1.384 . S
N741 C733 1.427 . S
N741 C739 1.384 . S
H742 C748 0.930 . S
H743 C752 0.930 . S
H744 C757 0.929 . S
H745 C755 0.929 . S
H746 C750 0.929 . S
H747 C756 0.929 . S
C748 H742 0.930 . S
C748 C749 1.367 . S
C748 C756 1.378 . S
C749 C748 1.367 . S
C749 C757 1.433 1_565 S
C750 H746 0.929 . S
C750 C752 1.378 . S
C750 C754 1.350 . S
C751 C754 1.463 1_665 S
C751 C756 1.350 . S
C751 N759 1.427 1_565 S
C752 H743 0.930 . S
C752 C750 1.378 . S
C752 C753 1.367 . S
C753 C752 1.367 . S
C753 C755 1.433 1_545 S
C754 C750 1.350 . S
C754 C751 1.463 1_445 S
C754 N758 1.427 1_545 S
C755 H745 0.929 . S
C755 C753 1.433 1_565 S
C755 N758 1.384 . S
C756 H747 0.929 . S
C756 C748 1.378 . S
C756 C751 1.350 . S
C757 H744 0.929 . S
C757 C749 1.433 1_545 S
C757 N759 1.384 . S
N758 C754 1.427 1_565 S
N758 C755 1.384 . S
N759 C751 1.427 1_545 S
N759 C757 1.384 . S
C479 C5 1.383 . S
C483 C123 1.382 . S
C497 C182 1.378 . S
C501 C64 1.382 . S
C515 C359 1.380 . S
C519 C241 1.378 . S
C533 C300 1.378 . S
C537 C418 1.383 . S
C551 C357 1.527 . S
C555 C3 1.531 . S
C569 C62 1.539 . S
C573 C416 1.542 . S
C587 C121 1.529 . S
C591 C239 1.534 . S
C605 C298 1.540 . S
C609 C180 1.543 . S
C623 C33 1.345 . S
C627 C328 1.338 . S
C641 C387 1.346 . S
C645 C92 1.346 . S
C659 C446 1.349 . S
C663 C151 1.340 . S
C677 C210 1.339 . S
C681 C269 1.349 . S
C695 C52 0.966 . S
C699 C170 0.965 . S
C713 C229 0.958 . S
C717 C111 0.965 . S
C731 C406 0.964 . S
C735 C288 0.957 . S
C749 C465 0.955 . S
C753 C347 0.962 . S
