# Generated by pormake.
# Topology wmi, (6)-cn, num edge types: 1
# Building blocks:
#     Node 0, Type 0, BuildingBlock: BETDIP_clean_sbu_0, # of connection points: 6
#     Node 1, Type 0, BuildingBlock: BETDIP_clean_sbu_0, # of connection points: 6
#     Node 2, Type 0, BuildingBlock: BETDIP_clean_sbu_0, # of connection points: 6
#     Node 3, Type 0, BuildingBlock: BETDIP_clean_sbu_0, # of connection points: 6
#     Node 4, Type 0, BuildingBlock: BETDIP_clean_sbu_0, # of connection points: 6
#     Node 5, Type 0, BuildingBlock: BETDIP_clean_sbu_0, # of connection points: 6
#     Node 6, Type 0, BuildingBlock: BETDIP_clean_sbu_0, # of connection points: 6
#     Node 7, Type 0, BuildingBlock: BETDIP_clean_sbu_0, # of connection points: 6
#     Node 8, Type 0, BuildingBlock: BETDIP_clean_sbu_0, # of connection points: 6
#     Node 9, Type 0, BuildingBlock: BETDIP_clean_sbu_0, # of connection points: 6
#     Node 10, Type 0, BuildingBlock: BETDIP_clean_sbu_0, # of connection points: 6
#     Node 11, Type 0, BuildingBlock: BETDIP_clean_sbu_0, # of connection points: 6
#     Node 12, Type 0, BuildingBlock: BETDIP_clean_sbu_0, # of connection points: 6
#     Node 13, Type 0, BuildingBlock: BETDIP_clean_sbu_0, # of connection points: 6
#     Node 14, Type 0, BuildingBlock: BETDIP_clean_sbu_0, # of connection points: 6
#     Node 15, Type 0, BuildingBlock: BETDIP_clean_sbu_0, # of connection points: 6
#     Node 16, Type 0, BuildingBlock: BETDIP_clean_sbu_0, # of connection points: 6
#     Node 17, Type 0, BuildingBlock: BETDIP_clean_sbu_0, # of connection points: 6
#     Edge 18, Type (0, 0), BuildingBlock: XIVTED_clean_linker_0, # of connection points: 2
#     Edge 19, Type (0, 0), BuildingBlock: XIVTED_clean_linker_0, # of connection points: 2
#     Edge 20, Type (0, 0), BuildingBlock: XIVTED_clean_linker_0, # of connection points: 2
#     Edge 21, Type (0, 0), BuildingBlock: XIVTED_clean_linker_0, # of connection points: 2
#     Edge 22, Type (0, 0), BuildingBlock: XIVTED_clean_linker_0, # of connection points: 2
#     Edge 23, Type (0, 0), BuildingBlock: XIVTED_clean_linker_0, # of connection points: 2
#     Edge 24, Type (0, 0), BuildingBlock: XIVTED_clean_linker_0, # of connection points: 2
#     Edge 25, Type (0, 0), BuildingBlock: XIVTED_clean_linker_0, # of connection points: 2
#     Edge 26, Type (0, 0), BuildingBlock: XIVTED_clean_linker_0, # of connection points: 2
#     Edge 27, Type (0, 0), BuildingBlock: XIVTED_clean_linker_0, # of connection points: 2
#     Edge 28, Type (0, 0), BuildingBlock: XIVTED_clean_linker_0, # of connection points: 2
#     Edge 29, Type (0, 0), BuildingBlock: XIVTED_clean_linker_0, # of connection points: 2
#     Edge 30, Type (0, 0), BuildingBlock: XIVTED_clean_linker_0, # of connection points: 2
#     Edge 31, Type (0, 0), BuildingBlock: XIVTED_clean_linker_0, # of connection points: 2
#     Edge 32, Type (0, 0), BuildingBlock: XIVTED_clean_linker_0, # of connection points: 2
#     Edge 33, Type (0, 0), BuildingBlock: XIVTED_clean_linker_0, # of connection points: 2
#     Edge 34, Type (0, 0), BuildingBlock: XIVTED_clean_linker_0, # of connection points: 2
#     Edge 35, Type (0, 0), BuildingBlock: XIVTED_clean_linker_0, # of connection points: 2
#     Edge 36, Type (0, 0), BuildingBlock: XIVTED_clean_linker_0, # of connection points: 2
#     Edge 37, Type (0, 0), BuildingBlock: XIVTED_clean_linker_0, # of connection points: 2
#     Edge 38, Type (0, 0), BuildingBlock: XIVTED_clean_linker_0, # of connection points: 2
#     Edge 39, Type (0, 0), BuildingBlock: XIVTED_clean_linker_0, # of connection points: 2
#     Edge 40, Type (0, 0), BuildingBlock: XIVTED_clean_linker_0, # of connection points: 2
#     Edge 41, Type (0, 0), BuildingBlock: XIVTED_clean_linker_0, # of connection points: 2
#     Edge 42, Type (0, 0), BuildingBlock: XIVTED_clean_linker_0, # of connection points: 2
#     Edge 43, Type (0, 0), BuildingBlock: XIVTED_clean_linker_0, # of connection points: 2
#     Edge 44, Type (0, 0), BuildingBlock: XIVTED_clean_linker_0, # of connection points: 2
#     Edge 45, Type (0, 0), BuildingBlock: XIVTED_clean_linker_0, # of connection points: 2
#     Edge 46, Type (0, 0), BuildingBlock: XIVTED_clean_linker_0, # of connection points: 2
#     Edge 47, Type (0, 0), BuildingBlock: XIVTED_clean_linker_0, # of connection points: 2
#     Edge 48, Type (0, 0), BuildingBlock: XIVTED_clean_linker_0, # of connection points: 2
#     Edge 49, Type (0, 0), BuildingBlock: XIVTED_clean_linker_0, # of connection points: 2
#     Edge 50, Type (0, 0), BuildingBlock: XIVTED_clean_linker_0, # of connection points: 2
#     Edge 51, Type (0, 0), BuildingBlock: XIVTED_clean_linker_0, # of connection points: 2
#     Edge 52, Type (0, 0), BuildingBlock: XIVTED_clean_linker_0, # of connection points: 2
#     Edge 53, Type (0, 0), BuildingBlock: XIVTED_clean_linker_0, # of connection points: 2
#     Edge 54, Type (0, 0), BuildingBlock: XIVTED_clean_linker_0, # of connection points: 2
#     Edge 55, Type (0, 0), BuildingBlock: XIVTED_clean_linker_0, # of connection points: 2
#     Edge 56, Type (0, 0), BuildingBlock: XIVTED_clean_linker_0, # of connection points: 2
#     Edge 57, Type (0, 0), BuildingBlock: XIVTED_clean_linker_0, # of connection points: 2
#     Edge 58, Type (0, 0), BuildingBlock: XIVTED_clean_linker_0, # of connection points: 2
#     Edge 59, Type (0, 0), BuildingBlock: XIVTED_clean_linker_0, # of connection points: 2
#     Edge 60, Type (0, 0), BuildingBlock: XIVTED_clean_linker_0, # of connection points: 2
#     Edge 61, Type (0, 0), BuildingBlock: XIVTED_clean_linker_0, # of connection points: 2
#     Edge 62, Type (0, 0), BuildingBlock: XIVTED_clean_linker_0, # of connection points: 2
#     Edge 63, Type (0, 0), BuildingBlock: XIVTED_clean_linker_0, # of connection points: 2
#     Edge 64, Type (0, 0), BuildingBlock: XIVTED_clean_linker_0, # of connection points: 2
#     Edge 65, Type (0, 0), BuildingBlock: XIVTED_clean_linker_0, # of connection points: 2
#     Edge 66, Type (0, 0), BuildingBlock: XIVTED_clean_linker_0, # of connection points: 2
#     Edge 67, Type (0, 0), BuildingBlock: XIVTED_clean_linker_0, # of connection points: 2
#     Edge 68, Type (0, 0), BuildingBlock: XIVTED_clean_linker_0, # of connection points: 2
#     Edge 69, Type (0, 0), BuildingBlock: XIVTED_clean_linker_0, # of connection points: 2
#     Edge 70, Type (0, 0), BuildingBlock: XIVTED_clean_linker_0, # of connection points: 2
#     Edge 71, Type (0, 0), BuildingBlock: XIVTED_clean_linker_0, # of connection points: 2
# Relax obj value: 0.103
# Max RMSD: 0.214
# Mean RMSD: 0.214
data_MOF--net-wmi--node1-BETDIP_clean_sbu_0--edge1-XIVTED_clean_linker_0
_symmetry_space_group_name_H-M    P1
_symmetry_Int_Tables_number       1
_symmetry_cell_setting            triclinic
loop_
_symmetry_equiv_pos_as_xyz
'x, y, z'
_cell_length_a     40.210336
_cell_length_b     40.233663
_cell_length_c     76.79228
_cell_angle_alpha  90.05527
_cell_angle_beta   90.015584
_cell_angle_gamma 120.05312
loop_
_atom_site_label
_atom_site_type_symbol
_atom_site_fract_x
_atom_site_fract_y
_atom_site_fract_z
_atom_type_partial_charge
Tb0 Tb 0.53798 0.05096 0.12836 0.0
Tb1 Tb 0.45029 1.00383 0.12012 0.0
C2 C 0.6095 0.09487 0.13125 0.0
C3 C 0.6443 0.12878 0.12418 0.0
C4 C 0.67216 0.12335 0.11566 0.0
C5 C 0.70804 0.15467 0.11139 0.0
C6 C 0.71714 0.19231 0.11562 0.0
C7 C 0.68869 0.19788 0.12354 0.0
C8 C 0.65273 0.16647 0.12783 0.0
C9 C 0.48861 0.02302 0.1548 0.0
C10 C 0.49377 0.09392 0.11639 0.0
C11 C 0.38022 0.9617 0.12647 0.0
C12 C 0.35257 0.92074 0.12393 0.0
C13 C 0.32084 0.90278 0.13504 0.0
C14 C 0.29672 0.86303 0.13448 0.0
C15 C 0.30374 0.84033 0.12271 0.0
C16 C 0.3355 0.8586 0.11144 0.0
C17 C 0.35983 0.89849 0.1121 0.0
C18 C 0.49001 1.01473 0.09116 0.0
C19 C 0.50067 0.96292 0.12258 0.0
O20 O 0.59365 0.06356 0.12176 0.0
O21 O 0.58405 0.10008 0.13965 0.0
O22 O 0.48556 0.03754 0.14096 0.0
O23 O 0.52119 0.0238 0.15456 0.0
O24 O 0.52673 0.09378 0.11659 0.0
O25 O 0.46011 0.06249 0.11943 0.0
O26 O 0.40751 0.96844 0.13763 0.0
O27 O 0.39309 0.98325 0.11246 0.0
O28 O 0.50266 0.02639 0.10629 0.0
O29 O 0.45279 0.99528 0.09203 0.0
O30 O 0.4662 0.9593 0.1247 0.0
O31 O 0.53246 0.99655 0.12153 0.0
H32 H 0.66674 0.09467 0.11284 0.0
H33 H 0.72894 0.14928 0.10505 0.0
H34 H 0.69476 0.22641 0.12714 0.0
H35 H 0.63214 0.1717 0.13458 0.0
H36 H 0.31537 0.9194 0.14454 0.0
H37 H 0.27316 0.85002 0.14365 0.0
H38 H 0.34162 0.84212 0.10215 0.0
H39 H 0.38473 0.91187 0.10365 0.0
Tb40 Tb 1.02318 0.50697 0.12656 0.0
Tb41 Tb 0.07278 0.46965 0.11744 0.0
C42 C 0.97861 0.53353 0.12959 0.0
C43 C 0.94416 0.53397 0.12304 0.0
C44 C 0.94891 0.56618 0.11377 0.0
C45 C 0.91749 0.57103 0.11026 0.0
C46 C 0.8805 0.54388 0.11602 0.0
C47 C 0.87544 0.51075 0.12461 0.0
C48 C 0.90694 0.50591 0.12815 0.0
C49 C 0.0488 0.48201 0.15248 0.0
C50 C 0.98288 0.4218 0.11218 0.0
C51 C 0.11608 0.44287 0.12299 0.0
C52 C 0.15744 0.45813 0.12025 0.0
C53 C 0.17924 0.45485 0.13368 0.0
C54 C 0.21924 0.47338 0.13243 0.0
C55 C 0.23815 0.49541 0.11767 0.0
C56 C 0.21618 0.49803 0.10406 0.0
C57 C 0.17616 0.47981 0.10539 0.0
C58 C 0.06489 0.50316 0.08941 0.0
C59 C 0.11181 0.55997 0.1252 0.0
O60 O 1.00933 0.54892 0.11971 0.0
O61 O 0.97414 0.5033 0.13814 0.0
O62 O 0.03633 0.46672 0.13796 0.0
O63 O 0.04684 0.51312 0.15327 0.0
O64 O 0.98226 0.45438 0.11323 0.0
O65 O 1.01454 0.41998 0.1152 0.0
O66 O 0.10837 0.46178 0.13468 0.0
O67 O 0.09411 0.43417 0.10908 0.0
O68 O 0.05132 0.50147 0.1044 0.0
O69 O 0.08434 0.48542 0.08991 0.0
O70 O 0.11619 0.52936 0.12443 0.0
O71 O 0.07809 0.5578 0.12406 0.0
H72 H 0.97726 0.58856 0.10985 0.0
H73 H 0.92236 0.59657 0.10339 0.0
H74 H 0.84741 0.4894 0.12937 0.0
H75 H 0.9023 0.48101 0.13552 0.0
H76 H 0.16535 0.43874 0.14535 0.0
H77 H 0.23539 0.47046 0.14302 0.0
H78 H 0.23002 0.51504 0.09259 0.0
H79 H 0.16001 0.48347 0.09502 0.0
Tb80 Tb 0.56211 0.53808 0.1264 0.0
Tb81 Tb 0.60702 0.62672 0.11986 0.0
C82 C 0.53141 0.4662 0.12864 0.0
C83 C 0.53354 0.43101 0.12559 0.0
C84 C 0.54391 0.42233 0.10945 0.0
C85 C 0.54072 0.38629 0.10667 0.0
C86 C 0.52668 0.35827 0.1199 0.0
C87 C 0.51756 0.36773 0.13615 0.0
C88 C 0.52099 0.40361 0.13894 0.0
C89 C 0.58249 0.58518 0.15359 0.0
C90 C 0.65129 0.58079 0.11673 0.0
C91 C 0.63458 0.69614 0.12751 0.0
C92 C 0.62062 0.72346 0.12511 0.0
C93 C 0.62061 0.74517 0.13942 0.0
C94 C 0.60315 0.76764 0.13823 0.0
C95 C 0.58549 0.76901 0.12265 0.0
C96 C 0.58618 0.74781 0.10821 0.0
C97 C 0.60333 0.725 0.10946 0.0
C98 C 0.57868 0.58983 0.09015 0.0
C99 C 0.51504 0.57901 0.1208 0.0
O100 O 0.52692 0.48381 0.11524 0.0
O101 O 0.55347 0.48997 0.14076 0.0
O102 O 0.60168 0.58872 0.14017 0.0
O103 O 0.54934 0.55417 0.15214 0.0
O104 O 0.61774 0.5483 0.11723 0.0
O105 O 0.65473 0.61515 0.11923 0.0
O106 O 0.6136 0.66795 0.13818 0.0
O107 O 0.64492 0.68455 0.11356 0.0
O108 O 0.5762 0.57589 0.1051 0.0
O109 O 0.59808 0.62695 0.09165 0.0
O110 O 0.54676 0.61254 0.12356 0.0
O111 O 0.51502 0.54632 0.11942 0.0
H112 H 0.55351 0.44292 0.09889 0.0
H113 H 0.54794 0.37988 0.09399 0.0
H114 H 0.50739 0.34717 0.14673 0.0
H115 H 0.5127 0.40958 0.15147 0.0
H116 H 0.63329 0.74396 0.15169 0.0
H117 H 0.60352 0.784 0.14951 0.0
H118 H 0.57255 0.74804 0.09608 0.0
H119 H 0.6022 0.70789 0.09833 0.0
Tb120 Tb 0.06211 0.52712 0.93125 0.0
Tb121 Tb 1.01251 0.44001 0.93924 0.0
C122 C 0.10686 0.59798 0.92766 0.0
C123 C 0.14306 0.63334 0.93184 0.0
C124 C 0.15774 0.64291 0.94886 0.0
C125 C 0.18939 0.67937 0.95241 0.0
C126 C 0.20625 0.70678 0.93904 0.0
C127 C 0.19218 0.69639 0.92198 0.0
C128 C 0.16102 0.66009 0.91844 0.0
C129 C 0.03607 0.47807 0.90476 0.0
C130 C 0.10202 0.48145 0.94498 0.0
C131 C 0.96909 0.37035 0.9327 0.0
C132 C 0.9278 0.3441 0.93549 0.0
C133 C 0.90567 0.31975 0.9219 0.0
C134 C 0.86572 0.29793 0.92339 0.0
C135 C 0.84723 0.29997 0.93854 0.0
C136 C 0.86954 0.32394 0.95227 0.0
C137 C 0.90947 0.34607 0.95071 0.0
C138 C 1.02028 0.47933 0.96801 0.0
C139 C 0.97381 0.49214 0.93325 0.0
O140 O 0.07998 0.58315 0.93961 0.0
O141 O 0.10843 0.57204 0.91791 0.0
O142 O 0.04913 0.47447 0.91897 0.0
O143 O 0.03674 0.51055 0.90481 0.0
O144 O 0.10307 0.51484 0.94394 0.0
O145 O 0.07041 0.44814 0.94164 0.0
O146 O 0.9767 0.39779 0.9215 0.0
O147 O 0.99125 0.38263 0.94658 0.0
O148 O 0.03391 0.49239 0.95314 0.0
O149 O 1.00082 0.44217 0.9669 0.0
O150 O 0.96929 0.45705 0.93312 0.0
O151 O 1.00767 0.52346 0.9347 0.0
H152 H 0.14418 0.62272 0.95943 0.0
H153 H 0.1997 0.68664 0.96568 0.0
H154 H 0.20498 0.71662 0.91136 0.0
H155 H 0.15007 0.65333 0.90524 0.0
H156 H 0.91925 0.31829 0.90996 0.0
H157 H 0.84931 0.27935 0.91269 0.0
H158 H 0.85601 0.32629 0.96404 0.0
H159 H 0.92587 0.36531 0.96122 0.0
Tb160 Tb 0.54588 0.55901 0.93002 0.0
Tb161 Tb 0.63184 0.59394 0.93853 0.0
C162 C 0.47535 0.53565 0.92631 0.0
C163 C 0.44069 0.53298 0.93447 0.0
C164 C 0.41373 0.4986 0.9426 0.0
C165 C 0.37774 0.49271 0.94756 0.0
C166 C 0.36769 0.52097 0.94443 0.0
C167 C 0.39528 0.55607 0.937 0.0
C168 C 0.43133 0.56195 0.93201 0.0
C169 C 0.59513 0.58009 0.90355 0.0
C170 C 0.59214 0.64336 0.94442 0.0
C171 C 0.70164 0.62001 0.93222 0.0
C172 C 0.72891 0.60649 0.93503 0.0
C173 C 0.76407 0.62466 0.92627 0.0
C174 C 0.78886 0.60993 0.92724 0.0
C175 C 0.77897 0.57669 0.93706 0.0
C176 C 0.74362 0.55859 0.94593 0.0
C177 C 0.71871 0.57338 0.94489 0.0
C178 C 0.59232 0.56528 0.96746 0.0
C179 C 0.57716 0.50318 0.93475 0.0
O180 O 0.48899 0.5152 0.93326 0.0
O181 O 0.50255 0.56912 0.9207 0.0
O182 O 0.59908 0.59707 0.91768 0.0
O183 O 0.56184 0.54928 0.90358 0.0
O184 O 0.55873 0.61093 0.9441 0.0
O185 O 0.62493 0.64459 0.94044 0.0
O186 O 0.67409 0.59914 0.9212 0.0
O187 O 0.68924 0.62955 0.94612 0.0
O188 O 0.57917 0.56525 0.95251 0.0
O189 O 0.6294 0.58146 0.96634 0.0
O190 O 0.61275 0.53273 0.93326 0.0
O191 O 0.54721 0.50795 0.93627 0.0
H192 H 0.4198 0.47548 0.9445 0.0
H193 H 0.3574 0.46558 0.95347 0.0
H194 H 0.38838 0.57831 0.93424 0.0
H195 H 0.45117 0.58854 0.92555 0.0
H196 H 0.77195 0.64976 0.9183 0.0
H197 H 0.81544 0.62412 0.91993 0.0
H198 H 0.73526 0.53311 0.95366 0.0
H199 H 0.69126 0.55865 0.95152 0.0
Tb200 Tb 0.52213 1.01599 0.93286 0.0
Tb201 Tb 0.4791 0.06116 0.93984 0.0
C202 C 0.55178 0.97391 0.93069 0.0
C203 C 0.55279 0.93987 0.93735 0.0
C204 C 0.58652 0.94525 0.9454 0.0
C205 C 0.59137 0.91395 0.94914 0.0
C206 C 0.56265 0.87639 0.94485 0.0
C207 C 0.52813 0.87083 0.93749 0.0
C208 C 0.52328 0.90225 0.93372 0.0
C209 C 0.50056 0.0419 0.90577 0.0
C210 C 0.43453 0.97145 0.9443 0.0
C211 C 0.45007 0.10197 0.93295 0.0
C212 C 0.46337 0.14279 0.93581 0.0
C213 C 0.44298 0.15908 0.92852 0.0
C214 C 0.45744 0.19862 0.92965 0.0
C215 C 0.49271 0.22261 0.93804 0.0
C216 C 0.51301 0.20606 0.94542 0.0
C217 C 0.49839 0.16641 0.94435 0.0
C218 C 0.50841 0.05282 0.96929 0.0
C219 C 0.57049 0.10437 0.9377 0.0
O220 O 0.5649 1.00404 0.94089 0.0
O221 O 0.52219 0.96869 0.92136 0.0
O222 O 0.48243 0.02735 0.9195 0.0
O223 O 0.5331 0.04267 0.90661 0.0
O224 O 0.46808 0.97252 0.94443 0.0
O225 O 0.43134 1.00208 0.94073 0.0
O226 O 0.47124 0.09565 0.92199 0.0
O227 O 0.44095 0.0802 0.94689 0.0
O228 O 0.50989 0.04073 0.95435 0.0
O229 O 0.48975 0.07127 0.96794 0.0
O230 O 0.53902 0.10657 0.93507 0.0
O231 O 0.56988 0.07144 0.93936 0.0
H232 H 0.6099 0.97393 0.9482 0.0
H233 H 0.61804 0.91927 0.95508 0.0
H234 H 0.5055 0.84235 0.93388 0.0
H235 H 0.49707 0.8971 0.92736 0.0
H236 H 0.41627 0.14133 0.92162 0.0
H237 H 0.44139 0.21055 0.92361 0.0
H238 H 0.54004 0.22371 0.95208 0.0
H239 H 0.5147 0.15426 0.94992 0.0
Tb240 Tb 0.20009 0.37684 0.46009 0.0
Tb241 Tb 0.11901 0.34011 0.44811 0.0
C242 C 0.27154 0.41641 0.46565 0.0
C243 C 0.30718 0.45258 0.46112 0.0
C244 C 0.33626 0.45037 0.45197 0.0
C245 C 0.37208 0.48311 0.44924 0.0
C246 C 0.37998 0.51906 0.4557 0.0
C247 C 0.35046 0.52153 0.46444 0.0
C248 C 0.31448 0.48863 0.46718 0.0
C249 C 0.14634 0.34362 0.4845 0.0
C250 C 0.1627 0.42839 0.45217 0.0
C251 C 0.04787 0.29516 0.4456 0.0
C252 C 1.02323 0.25282 0.44584 0.0
C253 C 1.02224 0.23077 0.46027 0.0
C254 C 0.99849 0.19076 0.46015 0.0
C255 C 0.97535 0.17192 0.4456 0.0
C256 C 0.97719 0.1941 0.43106 0.0
C257 C 1.00064 0.23402 0.43123 0.0
C258 C 0.16957 0.37249 0.42279 0.0
C259 C 0.16085 0.29053 0.45188 0.0
O260 O 0.25605 0.3906 0.45336 0.0
O261 O 0.24566 0.41804 0.47539 0.0
O262 O 0.14684 0.3636 0.47194 0.0
O263 O 0.17786 0.34233 0.48427 0.0
O264 O 0.19432 0.42587 0.45177 0.0
O265 O 0.12822 0.39732 0.45323 0.0
O266 O 0.06503 0.31184 0.46019 0.0
O267 O 0.07055 0.30961 0.43213 0.0
O268 O 0.17212 0.35396 0.43551 0.0
O269 O 0.13685 0.37145 0.42368 0.0
O270 O 0.1279 0.29049 0.45183 0.0
O271 O 0.19407 0.32248 0.45303 0.0
H272 H 0.33163 0.42296 0.44727 0.0
H273 H 0.39377 0.48013 0.44219 0.0
H274 H 0.35556 0.54865 0.46973 0.0
H275 H 0.29283 0.49132 0.47442 0.0
H276 H 0.03955 0.24437 0.47172 0.0
H277 H 0.99759 0.17475 0.47164 0.0
H278 H 0.96044 0.18063 0.41947 0.0
H279 H 1.00112 0.25027 0.4199 0.0
Tb280 Tb 0.68761 0.84294 0.46271 0.0
Tb281 Tb 0.73305 0.8019 0.45312 0.0
C282 C 0.64402 0.87044 0.46696 0.0
C283 C 0.61028 0.87182 0.46005 0.0
C284 C 0.61598 0.90509 0.45143 0.0
C285 C 0.58487 0.91 0.44727 0.0
C286 C 0.5472 0.88187 0.45172 0.0
C287 C 0.54133 0.84788 0.45975 0.0
C288 C 0.57253 0.84296 0.46393 0.0
C289 C 0.71797 0.82231 0.4884 0.0
C290 C 0.64276 0.75548 0.45128 0.0
C291 C 0.77652 0.77499 0.45821 0.0
C292 C 0.8172 0.7891 0.45431 0.0
C293 C 0.83371 0.76678 0.45869 0.0
C294 C 0.87326 0.78169 0.4568 0.0
C295 C 0.897 0.81937 0.45067 0.0
C296 C 0.88021 0.84147 0.44605 0.0
C297 C 0.84058 0.82636 0.44776 0.0
C298 C 0.7193 0.82931 0.42444 0.0
C299 C 0.77451 0.89358 0.45459 0.0
O300 O 0.67553 0.88692 0.45765 0.0
O301 O 0.63859 0.83891 0.47455 0.0
O302 O 0.70191 0.80419 0.47485 0.0
O303 O 0.71751 0.85423 0.48827 0.0
O304 O 0.64349 0.78883 0.45147 0.0
O305 O 0.67426 0.75301 0.45364 0.0
O306 O 0.77083 0.79584 0.46963 0.0
O307 O 0.75295 0.7651 0.44486 0.0
O308 O 0.70914 0.83126 0.43977 0.0
O309 O 0.7384 0.81123 0.42494 0.0
O310 O 0.7783 0.86282 0.45658 0.0
O311 O 0.74073 0.89145 0.45449 0.0
H312 H 0.64473 0.92807 0.44844 0.0
H313 H 0.59044 0.93625 0.44084 0.0
H314 H 0.51277 0.82575 0.46354 0.0
H315 H 0.56711 0.81718 0.47076 0.0
H316 H 0.81617 0.73816 0.46395 0.0
H317 H 0.88544 0.76411 0.46062 0.0
H318 H 0.8977 0.87039 0.44112 0.0
H319 H 0.82833 0.84406 0.44432 0.0
Tb320 Tb 0.2303 0.87125 0.46356 0.0
Tb321 Tb 0.2682 0.95651 0.45243 0.0
C322 C 0.20522 0.80151 0.4703 0.0
C323 C 0.20589 0.76595 0.46659 0.0
C324 C 0.21838 0.75908 0.45062 0.0
C325 C 0.21503 0.72316 0.44729 0.0
C326 C 0.19875 0.69366 0.45982 0.0
C327 C 0.18733 0.70131 0.47591 0.0
C328 C 0.19092 0.73704 0.47924 0.0
C329 C 0.25314 0.92472 0.48822 0.0
C330 C 0.31578 0.91421 0.4494 0.0
C331 C 0.29378 0.02672 0.4572 0.0
C332 C 0.27826 0.05242 0.454 0.0
C333 C 0.28061 0.07736 0.46732 0.0
C334 C 0.26167 0.09831 0.46573 0.0
C335 C 0.24019 0.09489 0.45071 0.0
C336 C 0.23863 0.0706 0.43716 0.0
C337 C 0.25722 0.04923 0.43885 0.0
C338 C 0.23818 0.91305 0.42467 0.0
C339 C 0.17671 0.90439 0.45597 0.0
O340 O 0.19012 0.8136 0.45854 0.0
O341 O 0.23511 0.82958 0.47809 0.0
O342 O 0.26986 0.92569 0.47436 0.0
O343 O 0.22118 0.89237 0.48888 0.0
O344 O 0.28309 0.88121 0.45105 0.0
O345 O 0.31792 0.94808 0.45143 0.0
O346 O 0.27479 1.00049 0.46901 0.0
O347 O 0.30303 1.01311 0.4436 0.0
O348 O 0.23798 0.90202 0.44009 0.0
O349 O 0.25586 0.9503 0.42455 0.0
O350 O 0.20713 0.93964 0.45652 0.0
O351 O 0.17965 0.87326 0.45689 0.0
H352 H 0.22995 0.78109 0.44066 0.0
H353 H 0.22406 0.71808 0.43477 0.0
H354 H 0.17539 0.67952 0.48595 0.0
H355 H 0.18116 0.74184 0.49165 0.0
H356 H 0.29626 0.07981 0.47919 0.0
H357 H 0.26382 0.11721 0.47627 0.0
H358 H 0.22213 0.06731 0.42549 0.0
H359 H 0.25433 0.02956 0.42854 0.0
Tb360 Tb 0.72549 0.85912 0.2631 0.0
Tb361 Tb 0.68614 0.77907 0.27632 0.0
C362 C 0.76603 0.93012 0.25717 0.0
C363 C 0.80316 0.96557 0.26015 0.0
C364 C 0.82286 0.97354 0.2761 0.0
C365 C 0.85524 1.00979 0.27914 0.0
C366 C 0.86823 0.03873 0.26634 0.0
C367 C 0.84908 0.02997 0.25021 0.0
C368 C 0.81698 0.99385 0.24718 0.0
C369 C 0.69384 0.80412 0.23917 0.0
C370 C 0.77494 0.82048 0.27338 0.0
C371 C 0.63991 0.70834 0.27947 0.0
C372 C 0.59757 0.68408 0.27884 0.0
C373 C 0.57581 0.6872 0.26525 0.0
C374 C 0.5358 0.6633 0.2648 0.0
C375 C 0.51672 0.6359 0.27796 0.0
C376 C 0.53863 0.63373 0.29178 0.0
C377 C 0.57855 0.65741 0.29216 0.0
C378 C 0.7168 0.83129 0.30107 0.0
C379 C 0.63796 0.82129 0.26762 0.0
O380 O 0.74291 0.91556 0.27052 0.0
O381 O 0.76543 0.9037 0.24698 0.0
O382 O 0.71218 0.8047 0.25248 0.0
O383 O 0.69395 0.83629 0.23832 0.0
O384 O 0.77341 0.85256 0.2724 0.0
O385 O 0.74329 0.78633 0.27284 0.0
O386 O 0.65721 0.72447 0.26486 0.0
O387 O 0.65401 0.73178 0.29273 0.0
O388 O 0.69943 0.83327 0.28768 0.0
O389 O 0.71574 0.79853 0.30102 0.0
O390 O 0.63749 0.78881 0.27113 0.0
O391 O 0.67005 0.85392 0.26537 0.0
H392 H 0.81261 0.95221 0.28636 0.0
H393 H 0.86924 1.01558 0.29173 0.0
H394 H 0.85871 0.05121 0.23994 0.0
H395 H 0.80217 0.98837 0.2348 0.0
H396 H 0.58968 0.7078 0.25485 0.0
H397 H 0.51999 0.66562 0.2539 0.0
H398 H 0.52494 0.61361 0.30235 0.0
H399 H 0.59464 0.65477 0.30286 0.0
Tb400 Tb 0.21832 0.88536 0.26612 0.0
Tb401 Tb 0.30561 0.92995 0.27523 0.0
C402 C 0.14674 0.85409 0.26192 0.0
C403 C 0.11107 0.85561 0.26433 0.0
C404 C 0.1028 0.86907 0.27969 0.0
C405 C 0.06662 0.86592 0.28196 0.0
C406 C 0.0381 0.84887 0.26898 0.0
C407 C 0.04712 0.83652 0.25348 0.0
C408 C 0.08313 0.8399 0.2512 0.0
C409 C 0.26922 0.90813 0.24034 0.0
C410 C 0.25893 0.97378 0.27686 0.0
C411 C 0.37635 0.95954 0.27009 0.0
C412 C 0.40307 0.94533 0.27324 0.0
C413 C 0.39055 0.91037 0.28194 0.0
C414 C 0.41345 0.89326 0.28219 0.0
C415 C 0.44922 0.91081 0.27368 0.0
C416 C 0.46231 0.94676 0.26568 0.0
C417 C 0.43933 0.96374 0.26539 0.0
C418 C 0.26527 0.89935 0.30388 0.0
C419 C 0.25889 0.83819 0.27244 0.0
O420 O 0.16282 0.84862 0.27564 0.0
O421 O 0.17186 0.87755 0.25059 0.0
O422 O 0.27061 0.92615 0.25388 0.0
O423 O 0.23813 0.87485 0.24078 0.0
O424 O 0.22664 0.94022 0.2755 0.0
O425 O 0.29359 0.97736 0.27548 0.0
O426 O 0.35022 0.9398 0.25832 0.0
O427 O 0.36199 0.96725 0.28385 0.0
O428 O 0.25286 0.89765 0.28863 0.0
O429 O 0.30246 0.91924 0.30329 0.0
O430 O 0.29259 0.87025 0.27065 0.0
O431 O 0.226 0.83793 0.27306 0.0
H432 H 0.12388 0.8812 0.29005 0.0
H433 H 0.06055 0.87567 0.29406 0.0
H434 H 1.02617 0.82395 0.2431 0.0
H435 H 0.08886 0.82928 0.23925 0.0
H436 H 0.36237 0.8955 0.28791 0.0
H437 H 0.40235 0.86549 0.28835 0.0
H438 H 0.49003 0.96142 0.25929 0.0
H439 H 0.44929 0.99056 0.25849 0.0
Tb440 Tb 0.18501 0.34524 0.26156 0.0
Tb441 Tb 0.14664 0.39373 0.2703 0.0
C442 C 0.21 0.29934 0.25801 0.0
C443 C 0.20993 0.2649 0.265 0.0
C444 C 0.2414 0.26944 0.27488 0.0
C445 C 0.24548 0.23781 0.27899 0.0
C446 C 0.21833 0.20077 0.27324 0.0
C447 C 0.18599 0.19599 0.26395 0.0
C448 C 0.18192 0.22769 0.25982 0.0
C449 C 0.16377 0.37398 0.23546 0.0
C450 C 0.09809 0.30385 0.27377 0.0
C451 C 0.12241 0.43885 0.26387 0.0
C452 C 0.13785 0.48014 0.26709 0.0
C453 C 0.13707 0.50317 0.25357 0.0
C454 C 0.15541 0.54304 0.2555 0.0
C455 C 0.17478 0.56068 0.27103 0.0
C456 C 0.175 0.53748 0.28468 0.0
C457 C 0.15695 0.49758 0.28268 0.0
C458 C 0.17413 0.38137 0.2992 0.0
C459 C 0.23838 0.43257 0.26835 0.0
O460 O 0.22723 0.33094 0.26726 0.0
O461 O 0.17908 0.29501 0.25017 0.0
O462 O 0.14653 0.35963 0.24935 0.0
O463 O 0.19532 0.37276 0.23542 0.0
O464 O 0.13092 0.30347 0.27369 0.0
O465 O 0.09657 0.33564 0.27072 0.0
O466 O 0.14276 0.43143 0.25287 0.0
O467 O 0.111 0.41577 0.27743 0.0
O468 O 0.17527 0.36964 0.28408 0.0
O469 O 0.1567 0.40111 0.29835 0.0
O470 O 0.20816 0.43746 0.26669 0.0
O471 O 0.23514 0.39832 0.26847 0.0
H472 H 0.26378 0.29774 0.27889 0.0
H473 H 0.27042 0.24253 0.28639 0.0
H474 H 0.16468 0.16797 0.25915 0.0
H475 H 0.15762 0.22317 0.25197 0.0
H476 H 0.12295 0.49033 0.24135 0.0
H477 H 0.15432 0.56008 0.24484 0.0
H478 H 0.18993 0.55027 0.29675 0.0
H479 H 0.15867 0.48051 0.29317 0.0
Tb480 Tb 0.8721 0.71316 0.79596 0.0
Tb481 Tb 0.79223 0.67412 0.7823 0.0
C482 C 0.94322 0.75484 0.80152 0.0
C483 C 0.97754 0.79225 0.79711 0.0
C484 C 1.00509 0.7931 0.78557 0.0
C485 C 0.04012 0.82689 0.78297 0.0
C486 C 0.04874 0.86076 0.79195 0.0
C487 C 1.02067 0.86027 0.80308 0.0
C488 C 0.98552 0.82638 0.80569 0.0
C489 C 0.81656 0.68208 0.81961 0.0
C490 C 0.83379 0.76279 0.78537 0.0
C491 C 0.72167 0.62798 0.77883 0.0
C492 C 0.69827 0.58611 0.78151 0.0
C493 C 0.70311 0.56867 0.79642 0.0
C494 C 0.68152 0.52888 0.79856 0.0
C495 C 0.65498 0.50565 0.78577 0.0
C496 C 0.65056 0.52311 0.77076 0.0
C497 C 0.67194 0.56299 0.76869 0.0
C498 C 0.84491 0.7055 0.75789 0.0
C499 C 0.83382 0.6256 0.79181 0.0
O500 O 0.92856 0.72924 0.78906 0.0
O501 O 0.9167 0.75464 0.81152 0.0
O502 O 0.81759 0.70017 0.80619 0.0
O503 O 0.84878 0.68228 0.82087 0.0
O504 O 0.86579 0.76114 0.78658 0.0
O505 O 0.79957 0.73124 0.78554 0.0
O506 O 0.73679 0.64893 0.7928 0.0
O507 O 0.74598 0.63889 0.76587 0.0
O508 O 0.84675 0.68784 0.77119 0.0
O509 O 0.81184 0.70382 0.75769 0.0
O510 O 0.80141 0.62548 0.78845 0.0
O511 O 0.86669 0.65761 0.7938 0.0
H512 H 1.00005 0.76724 0.7789 0.0
H513 H 0.06072 0.82628 0.77408 0.0
H514 H 1.02641 0.8857 0.81034 0.0
H515 H 0.96518 0.82669 0.81483 0.0
H516 H 0.72367 0.58572 0.80642 0.0
H517 H 0.68582 0.51622 0.81017 0.0
H518 H 0.63001 0.50601 0.76078 0.0
H519 H 0.66796 0.5758 0.75705 0.0
Tb520 Tb 0.36402 0.18345 0.79875 0.0
Tb521 Tb 0.4015 0.14196 0.78415 0.0
C522 C 0.32442 0.21455 0.80546 0.0
C523 C 0.28716 0.21246 0.80255 0.0
C524 C 0.2644 0.19464 0.78782 0.0
C525 C 0.23129 0.19709 0.78462 0.0
C526 C 0.22062 0.2176 0.79604 0.0
C527 C 0.24305 0.23436 0.81101 0.0
C528 C 0.27589 0.23179 0.81421 0.0
C529 C 0.3956 0.15814 0.82168 0.0
C530 C 0.31289 0.09546 0.7882 0.0
C531 C 0.44629 0.11592 0.77999 0.0
C532 C 0.48839 0.13291 0.78028 0.0
C533 C 0.51199 0.16651 0.78982 0.0
C534 C 0.55183 0.18183 0.79023 0.0
C535 C 0.56869 0.16347 0.78134 0.0
C536 C 0.54501 0.13012 0.77163 0.0
C537 C 0.50525 0.11511 0.77105 0.0
C538 C 0.37034 0.16499 0.76034 0.0
C539 C 0.45141 0.23226 0.79347 0.0
O540 O 0.3472 0.22322 0.79198 0.0
O541 O 0.32505 0.18842 0.81538 0.0
O542 O 0.37665 0.14125 0.80837 0.0
O543 O 0.39608 0.19042 0.82323 0.0
O544 O 0.31495 0.12925 0.78978 0.0
O545 O 0.34427 0.09254 0.78784 0.0
O546 O 0.43022 0.11544 0.79488 0.0
O547 O 0.4323 0.12635 0.7671 0.0
O548 O 0.38858 0.18378 0.77372 0.0
O549 O 0.37076 0.13296 0.75987 0.0
O550 O 0.45081 0.2001 0.7891 0.0
O551 O 0.41986 0.23328 0.79664 0.0
H552 H 0.27271 0.1797 0.7786 0.0
H553 H 0.21475 0.18395 0.77294 0.0
H554 H 0.23532 0.24969 0.82026 0.0
H555 H 0.29309 0.24577 0.82564 0.0
H556 H 0.49968 0.18052 0.79727 0.0
H557 H 0.56927 0.20723 0.79801 0.0
H558 H 0.55727 0.11549 0.76457 0.0
H559 H 0.48759 0.08926 0.76357 0.0
Tb560 Tb 0.89834 0.20411 0.79554 0.0
Tb561 Tb 0.93606 0.28351 0.78178 0.0
C562 C 0.87016 0.13387 0.80257 0.0
C563 C 0.87316 0.09914 0.8001 0.0
C564 C 0.8894 0.09308 0.78509 0.0
C565 C 0.88703 0.05745 0.78228 0.0
C566 C 0.86807 0.02733 0.79436 0.0
C567 C 0.85313 0.03422 0.80961 0.0
C568 C 0.85569 0.06971 0.81243 0.0
C569 C 0.92051 0.25997 0.81897 0.0
C570 C 0.98625 0.24496 0.78501 0.0
C571 C 0.95793 0.35353 0.77812 0.0
C572 C 0.93889 0.3765 0.78074 0.0
C573 C 0.91974 0.37451 0.79638 0.0
C574 C 0.90187 0.39642 0.79861 0.0
C575 C 0.90237 0.42046 0.7852 0.0
C576 C 0.92094 0.42186 0.76947 0.0
C577 C 0.93913 0.40021 0.7673 0.0
C578 C 0.91706 0.23103 0.75739 0.0
C579 C 0.84553 0.23799 0.79058 0.0
O580 O 0.86056 0.14678 0.78897 0.0
O581 O 0.89589 0.16149 0.81232 0.0
O582 O 0.9382 0.25937 0.80571 0.0
O583 O 0.88886 0.22741 0.82009 0.0
O584 O 0.95329 0.2122 0.78621 0.0
O585 O 0.98739 0.2785 0.78512 0.0
O586 O 0.96469 0.33922 0.7921 0.0
O587 O 0.94477 0.32884 0.76528 0.0
O588 O 0.89705 0.22832 0.77064 0.0
O589 O 0.94777 0.26466 0.75732 0.0
O590 O 0.87708 0.27165 0.78803 0.0
O591 O 0.84683 0.20618 0.79196 0.0
H592 H 0.90288 0.11542 0.77536 0.0
H593 H 0.89877 0.05304 0.77039 0.0
H594 H 0.83903 1.01196 0.81933 0.0
H595 H 0.84292 0.0738 0.82408 0.0
H596 H 0.91859 0.35609 0.80693 0.0
H597 H 0.8875 0.39443 0.81082 0.0
H598 H 0.92221 0.44043 0.75897 0.0
H599 H 0.95354 0.4021 0.75511 0.0
Tb600 Tb 0.39618 0.19672 0.59891 0.0
Tb601 Tb 0.34816 0.11161 0.61044 0.0
C602 C 0.44195 0.26688 0.59319 0.0
C603 C 0.47465 0.30251 0.60042 0.0
C604 C 0.51283 0.31189 0.59732 0.0
C605 C 0.54338 0.34828 0.6017 0.0
C606 C 0.53644 0.37624 0.60914 0.0
C607 C 0.49831 0.3663 0.61281 0.0
C608 C 0.46783 0.32997 0.60845 0.0
C609 C 0.36464 0.14301 0.5743 0.0
C610 C 0.43824 0.15339 0.61287 0.0
C611 C 0.3038 0.04086 0.60658 0.0
C612 C 0.26271 1.01445 0.60967 0.0
C613 C 0.2379 0.02864 0.6134 0.0
C614 C 0.19806 1.00406 0.61317 0.0
C615 C 0.18241 0.96488 0.60923 0.0
C616 C 0.20757 0.95052 0.60654 0.0
C617 C 0.24735 0.97514 0.60667 0.0
C618 C 0.36358 0.15619 0.63803 0.0
C619 C 0.30985 0.1643 0.60719 0.0
O620 O 0.40857 0.25365 0.60085 0.0
O621 O 0.44801 0.23935 0.58791 0.0
O622 O 0.38005 0.14187 0.58822 0.0
O623 O 0.36704 0.17621 0.57328 0.0
O624 O 0.43864 0.18649 0.61169 0.0
O625 O 0.40624 0.1197 0.61081 0.0
O626 O 0.31092 0.06635 0.59441 0.0
O627 O 0.32594 0.05565 0.62031 0.0
O628 O 0.37387 0.16648 0.62251 0.0
O629 O 0.34328 0.119 0.63836 0.0
O630 O 0.30452 0.12898 0.60592 0.0
O631 O 0.34434 0.19507 0.60699 0.0
H632 H 0.51912 0.29167 0.59092 0.0
H633 H 0.57233 0.35504 0.5985 0.0
H634 H 0.49191 0.38687 0.61876 0.0
H635 H 0.43876 0.32392 0.61083 0.0
H636 H 0.24926 0.05898 0.61571 0.0
H637 H 0.1796 1.01614 0.61521 0.0
H638 H 0.19651 0.92034 0.60386 0.0
H639 H 0.26606 0.96371 0.60376 0.0
Tb640 Tb 0.87971 0.21885 0.59716 0.0
Tb641 Tb 0.96784 0.26422 0.6051 0.0
C642 C 0.80791 0.18882 0.59452 0.0
C643 C 0.77344 0.18943 0.60095 0.0
C644 C 0.76635 0.21933 0.59673 0.0
C645 C 0.73085 0.21622 0.6007 0.0
C646 C 0.70161 0.18309 0.60888 0.0
C647 C 0.70943 0.15395 0.61366 0.0
C648 C 0.74481 0.15705 0.6097 0.0
C649 C 0.92855 0.23836 0.57064 0.0
C650 C 0.92112 0.30756 0.60717 0.0
C651 C 0.03833 0.29312 0.59943 0.0
C652 C 0.06555 0.27988 0.60346 0.0
C653 C 0.10388 0.30151 0.59811 0.0
C654 C 0.12889 0.28713 0.60031 0.0
C655 C 0.11581 0.25064 0.60772 0.0
C656 C 0.07743 0.22927 0.61326 0.0
C657 C 0.05258 0.24387 0.61124 0.0
C658 C 0.92846 0.23619 0.63432 0.0
C659 C 0.92072 0.17248 0.60441 0.0
O660 O 0.82479 0.17659 0.60528 0.0
O661 O 0.83247 0.21723 0.5847 0.0
O662 O 0.93137 0.25783 0.58386 0.0
O663 O 0.89671 0.20587 0.57167 0.0
O664 O 0.88907 0.27361 0.60725 0.0
O665 O 0.95561 0.31142 0.60455 0.0
O666 O 1.01162 0.2714 0.58823 0.0
O667 O 1.02459 0.30304 0.61273 0.0
O668 O 0.91587 0.23396 0.61911 0.0
O669 O 0.96566 0.25511 0.63339 0.0
O670 O 0.95422 0.20413 0.60161 0.0
O671 O 0.88794 0.1724 0.60534 0.0
H672 H 0.78766 0.24455 0.58986 0.0
H673 H 0.7258 0.23911 0.59668 0.0
H674 H 0.68793 0.12835 0.62024 0.0
H675 H 0.74932 0.13341 0.61298 0.0
H676 H 0.11426 0.32915 0.5919 0.0
H677 H 0.15823 0.30413 0.59577 0.0
H678 H 0.06667 0.20131 0.6192 0.0
H679 H 1.02303 0.22672 0.61545 0.0
Tb680 Tb 0.85204 0.68297 0.59744 0.0
Tb681 Tb 0.81254 0.73069 0.60666 0.0
C682 C 0.87889 0.63862 0.59447 0.0
C683 C 0.87813 0.60332 0.60068 0.0
C684 C 0.90907 0.60673 0.6106 0.0
C685 C 0.91297 0.57467 0.61391 0.0
C686 C 0.88613 0.53834 0.6073 0.0
C687 C 0.85419 0.5346 0.59803 0.0
C688 C 0.8503 0.56674 0.5947 0.0
C689 C 0.82758 0.70898 0.5715 0.0
C690 C 0.76602 0.64108 0.61132 0.0
C691 C 0.78556 0.77376 0.60097 0.0
C692 C 0.80073 0.81513 0.60366 0.0
C693 C 0.79805 0.83687 0.59004 0.0
C694 C 0.81662 0.87686 0.59123 0.0
C695 C 0.83811 0.89588 0.60613 0.0
C696 C 0.84009 0.87399 0.61994 0.0
C697 C 0.82183 0.83396 0.61866 0.0
C698 C 0.84522 0.72204 0.63482 0.0
C699 C 0.90359 0.7717 0.60009 0.0
O700 O 0.89322 0.6684 0.60495 0.0
O701 O 0.84981 0.63518 0.58525 0.0
O702 O 0.81157 0.69567 0.58582 0.0
O703 O 0.85908 0.70767 0.57097 0.0
O704 O 0.79892 0.64103 0.61013 0.0
O705 O 0.76347 0.67235 0.60851 0.0
O706 O 0.80458 0.76604 0.58935 0.0
O707 O 0.7768 0.75185 0.61487 0.0
O708 O 0.84446 0.70937 0.61971 0.0
O709 O 0.82688 0.74093 0.63439 0.0
O710 O 0.87243 0.77516 0.6009 0.0
O711 O 0.90237 0.73835 0.60041 0.0
H712 H 0.93126 0.63456 0.61522 0.0
H713 H 0.93757 0.57855 0.62134 0.0
H714 H 0.83311 0.50716 0.59261 0.0
H715 H 0.82636 0.56311 0.58682 0.0
H716 H 0.7824 0.82293 0.57825 0.0
H717 H 0.81419 0.89292 0.58048 0.0
H718 H 0.85666 0.88791 0.63152 0.0
H719 H 0.82504 0.81788 0.62919 0.0
H720 H 0.54613 0.95453 0.09937 0.0
H721 H 0.53771 0.77511 0.1464 0.0
H722 H 0.46583 0.89468 0.1408 0.0
H723 H 0.5905 0.81696 0.09624 0.0
H724 H 0.51037 0.81754 0.14487 0.0
H725 H 0.56143 0.90319 0.09794 0.0
C726 C 0.5314 0.9302 0.10806 0.0
C727 C 0.50488 0.92883 0.1203 0.0
C728 C 0.52759 0.81711 0.13413 0.0
C729 C 0.52279 0.87011 0.11897 0.0
C730 C 0.54347 0.79316 0.13505 0.0
C731 C 0.56672 0.79275 0.12148 0.0
C732 C 0.53545 0.84119 0.11965 0.0
C733 C 0.57268 0.81623 0.10697 0.0
C734 C 0.5401 0.90085 0.10723 0.0
C735 C 0.48639 0.89663 0.13117 0.0
N736 N 0.55752 0.83974 0.10653 0.0
N737 N 0.49617 0.86871 0.13046 0.0
H738 H 0.32281 0.78362 0.11801 0.0
H739 H 0.11213 0.61791 0.14277 0.0
H740 H 0.22577 0.79979 0.12691 0.0
H741 H 0.18636 0.59118 0.11269 0.0
H742 H 0.1611 0.68525 0.14244 0.0
H743 H 0.27937 0.71373 0.11967 0.0
C744 C 0.29246 0.77262 0.12018 0.0
C745 C 0.27807 0.79784 0.12254 0.0
C746 C 0.16694 0.6648 0.13595 0.0
C747 C 0.22878 0.71825 0.12487 0.0
C748 C 0.13905 0.62625 0.13621 0.0
C749 C 0.14497 0.59903 0.12749 0.0
C750 C 0.2013 0.67663 0.12689 0.0
C751 C 0.1807 0.6114 0.11951 0.0
C752 C 0.26784 0.73278 0.12122 0.0
C753 C 0.23853 0.78179 0.12547 0.0
N754 N 0.2076 0.64962 0.11922 0.0
N755 N 0.21548 0.74322 0.12667 0.0
H756 H 0.28175 0.49781 0.08988 0.0
H757 H 0.48333 0.61417 0.13985 0.0
H758 H 0.29118 0.53821 0.14271 0.0
H759 H 0.46225 0.53853 0.09625 0.0
H760 H 0.41637 0.6005 0.13777 0.0
H761 H 0.35162 0.52675 0.08882 0.0
C762 C 0.29859 0.51319 0.10118 0.0
C763 C 0.28065 0.51524 0.11647 0.0
C764 C 0.42672 0.5874 0.12853 0.0
C765 C 0.36055 0.54837 0.11537 0.0
C766 C 0.46483 0.5954 0.12964 0.0
C767 C 0.47787 0.57709 0.11831 0.0
C768 C 0.40215 0.56154 0.11581 0.0
C769 C 0.45296 0.55281 0.10536 0.0
C770 C 0.33842 0.52956 0.1006 0.0
C771 C 0.30388 0.53539 0.13078 0.0
N772 N 0.41628 0.54563 0.1045 0.0
N773 N 0.34267 0.55105 0.12992 0.0
H774 H 0.89732 0.44311 0.94208 0.0
H775 H 0.85699 0.61722 0.93986 0.0
H776 H 0.97508 0.55584 0.92153 0.0
H777 H 0.76192 0.50103 0.93611 0.0
H778 H 0.90129 0.59292 0.93822 0.0
H779 H 0.84667 0.46089 0.94356 0.0
C780 C 0.90356 0.47123 0.93768 0.0
C781 C 0.94062 0.49829 0.93199 0.0
C782 C 0.87072 0.57264 0.93773 0.0
C783 C 0.88376 0.51875 0.93393 0.0
C784 C 0.84538 0.58654 0.93863 0.0
C785 C 0.80565 0.56124 0.93777 0.0
C786 C 0.8565 0.53302 0.93609 0.0
C787 C 0.79237 0.52157 0.93679 0.0
C788 C 0.87484 0.48137 0.9386 0.0
C789 C 0.94725 0.53431 0.92641 0.0
N790 N 0.8178 0.50857 0.9359 0.0
N791 N 0.91935 0.54354 0.9277 0.0
H792 H 0.45279 0.25894 0.94559 0.0
H793 H 0.62774 0.4746 0.93497 0.0
H794 H 0.567 0.28195 0.93304 0.0
H795 H 0.50695 0.4392 0.93567 0.0
H796 H 0.60974 0.4062 0.93682 0.0
H797 H 0.47597 0.32739 0.94537 0.0
C798 C 0.48281 0.27847 0.94272 0.0
C799 C 0.50781 0.26464 0.93907 0.0
C800 C 0.58745 0.4138 0.93655 0.0
C801 C 0.53493 0.34367 0.93884 0.0
C802 C 0.59767 0.4527 0.93547 0.0
C803 C 0.56893 0.46288 0.93525 0.0
C804 C 0.54837 0.38532 0.93752 0.0
C805 C 0.53039 0.43325 0.93593 0.0
C806 C 0.49616 0.31769 0.94263 0.0
C807 C 0.54675 0.29147 0.93591 0.0
N808 N 0.52143 0.3962 0.93707 0.0
N809 N 0.55915 0.32984 0.93575 0.0
H810 H 0.60075 0.1719 0.91918 0.0
H811 H 0.80533 0.25704 0.9663 0.0
H812 H 0.62551 0.11582 0.96087 0.0
H813 H 0.79278 0.29 0.91433 0.0
H814 H 0.73568 0.21522 0.96792 0.0
H815 H 0.6677 0.22546 0.92072 0.0
C816 C 0.62009 0.17128 0.92883 0.0
C817 C 0.60804 0.13943 0.93977 0.0
C818 C 0.74814 0.23185 0.95621 0.0
C819 C 0.68371 0.19997 0.94169 0.0
C820 C 0.78785 0.25583 0.95531 0.0
C821 C 0.80484 0.27666 0.94009 0.0
C822 C 0.72518 0.22883 0.94183 0.0
C823 C 0.78081 0.27384 0.92619 0.0
C824 C 0.65817 0.20157 0.92964 0.0
C825 C 0.63399 0.13971 0.95204 0.0
N826 N 0.74213 0.25019 0.92736 0.0
N827 N 0.67059 0.16941 0.95263 0.0
H828 H 0.19505 0.10303 0.47509 0.0
H829 H 0.20173 0.27932 0.42731 0.0
H830 H 0.2392 0.13704 0.42301 0.0
H831 H 0.1238 0.22241 0.46984 0.0
H832 H 0.21349 0.22561 0.425 0.0
H833 H 0.16682 0.14462 0.47336 0.0
C834 C 0.19857 0.1191 0.46326 0.0
C835 C 0.21988 0.117 0.44924 0.0
C836 C 0.19328 0.22437 0.43466 0.0
C837 C 0.18774 0.1645 0.44719 0.0
C838 C 0.18658 0.255 0.43597 0.0
C839 C 0.16187 0.25506 0.44879 0.0
C840 C 0.17592 0.19398 0.44659 0.0
C841 C 0.14294 0.22312 0.45974 0.0
C842 C 0.18221 0.14254 0.46223 0.0
C843 C 0.22303 0.13784 0.43411 0.0
N844 N 0.15093 0.19401 0.45862 0.0
N845 N 0.20762 0.16114 0.43358 0.0
H846 H 0.90273 0.13339 0.4321 0.0
H847 H 0.85006 0.924 0.46573 0.0
H848 H 0.98491 0.11385 0.45975 0.0
H849 H 0.77534 0.95099 0.4362 0.0
H850 H 0.90196 0.99152 0.46262 0.0
H851 H 0.85762 0.06505 0.43254 0.0
C852 C 0.91158 0.1147 0.43811 0.0
C853 C 0.94797 0.12967 0.44578 0.0
C854 C 0.87421 0.9824 0.45676 0.0
C855 C 0.89547 0.05045 0.44672 0.0
C856 C 0.84474 0.94393 0.45846 0.0
C857 C 0.80819 0.93209 0.45149 0.0
C858 C 0.86685 1.00872 0.4479 0.0
C859 C 0.80278 0.95895 0.44214 0.0
C860 C 0.88554 0.07546 0.43847 0.0
C861 C 0.95707 0.10372 0.4538 0.0
N862 N 0.83156 0.9958 0.44073 0.0
N863 N 0.93095 0.06536 0.45411 0.0
H864 H 0.14581 0.95025 0.46509 0.0
H865 H 0.93467 0.78474 0.43717 0.0
H866 H 0.11848 0.84364 0.43984 0.0
H867 H 0.95516 0.8905 0.461 0.0
H868 H 1.00358 0.80933 0.43653 0.0
H869 H 0.07779 0.93289 0.46206 0.0
C870 C 0.12568 0.92351 0.45879 0.0
C871 C 0.13759 0.89801 0.45302 0.0
C872 C 0.99323 0.82741 0.44185 0.0
C873 C 0.06046 0.87812 0.44949 0.0
C874 C 0.95377 0.81321 0.44228 0.0
C875 C 0.93915 0.83543 0.44929 0.0
C876 C 1.01855 0.8641 0.44863 0.0
C877 C 0.96533 0.87248 0.45544 0.0
C878 C 0.08696 0.91356 0.45711 0.0
C879 C 0.11047 0.86382 0.44486 0.0
N880 N 1.00382 0.88558 0.45512 0.0
N881 N 0.07338 0.85488 0.44345 0.0
H882 H 0.46104 0.86835 0.29859 0.0
H883 H 0.61832 0.85335 0.24186 0.0
H884 H 0.48847 0.90709 0.24538 0.0
H885 H 0.57801 0.79432 0.2908 0.0
H886 H 0.56699 0.86881 0.24231 0.0
H887 H 0.50021 0.83755 0.2958 0.0
C888 C 0.47505 0.87018 0.28629 0.0
C889 C 0.47194 0.89094 0.27228 0.0
C890 C 0.56876 0.85193 0.25286 0.0
C891 C 0.51679 0.85583 0.26904 0.0
C892 C 0.59797 0.84297 0.25254 0.0
C893 C 0.60217 0.82256 0.2663 0.0
C894 C 0.54403 0.84123 0.26727 0.0
C895 C 0.57535 0.80987 0.2799 0.0
C896 C 0.49738 0.85257 0.28472 0.0
C897 C 0.49082 0.89237 0.25669 0.0
N898 N 0.54768 0.82001 0.28021 0.0
N899 N 0.51256 0.87535 0.25555 0.0
H900 H 0.29616 0.80802 0.25378 0.0
H901 H 0.17281 0.60175 0.29904 0.0
H902 H 0.21558 0.78316 0.2956 0.0
H903 H 0.22104 0.61618 0.24754 0.0
H904 H 0.20135 0.67139 0.30133 0.0
H905 H 0.28181 0.74076 0.25478 0.0
C906 C 0.27617 0.78862 0.2634 0.0
C907 C 0.25673 0.80078 0.27453 0.0
C908 C 0.20595 0.65934 0.28958 0.0
C909 C 0.24031 0.7246 0.27578 0.0
C910 C 0.1898 0.61961 0.28829 0.0
C911 C 0.19421 0.6031 0.27301 0.0
C912 C 0.22692 0.68289 0.27552 0.0
C913 C 0.21637 0.6277 0.25944 0.0
C914 C 0.26777 0.75032 0.26388 0.0
C915 C 0.23084 0.77466 0.28668 0.0
N916 N 0.23179 0.66638 0.26098 0.0
N917 N 0.2233 0.73783 0.28694 0.0
H918 H 0.45842 0.64861 0.26675 0.0
H919 H 0.2965 0.43082 0.28502 0.0
H920 H 0.47849 0.55984 0.28666 0.0
H921 H 0.26984 0.50922 0.25856 0.0
H922 H 0.36249 0.48143 0.28797 0.0
H923 H 0.38932 0.60145 0.26515 0.0
C924 C 0.44843 0.61932 0.27077 0.0
C925 C 0.47451 0.60837 0.27699 0.0
C926 C 0.34249 0.4879 0.28148 0.0
C927 C 0.39554 0.55456 0.27535 0.0
C928 C 0.30456 0.45884 0.27976 0.0
C929 C 0.2776 0.46552 0.27123 0.0
C930 C 0.3542 0.52438 0.27459 0.0
C931 C 0.28978 0.5028 0.26512 0.0
C932 C 0.40896 0.59252 0.26992 0.0
C933 C 0.45971 0.57007 0.28215 0.0
N934 N 0.32744 0.5309 0.26677 0.0
N935 N 0.42147 0.54479 0.28121 0.0
H936 H 0.79196 0.55863 0.77316 0.0
H937 H 0.90862 0.46369 0.81382 0.0
H938 H 0.87819 0.61078 0.81324 0.0
H939 H 0.85725 0.43413 0.7627 0.0
H940 H 0.88445 0.5082 0.81732 0.0
H941 H 0.80268 0.50337 0.77277 0.0
C942 C 0.81252 0.55805 0.78209 0.0
C943 C 0.83452 0.58934 0.79312 0.0
C944 C 0.87818 0.49174 0.80538 0.0
C945 C 0.84673 0.52671 0.79282 0.0
C946 C 0.89179 0.46616 0.80342 0.0
C947 C 0.8852 0.44534 0.78789 0.0
C948 C 0.85753 0.49647 0.79179 0.0
C949 C 0.86348 0.45006 0.77478 0.0
C950 C 0.81882 0.52677 0.78178 0.0
C951 C 0.86095 0.58739 0.80439 0.0
N952 N 0.8505 0.47522 0.777 0.0
N953 N 0.86638 0.55674 0.80392 0.0
H954 H 0.61722 0.46784 0.8153 0.0
H955 H 0.51543 0.25767 0.77276 0.0
H956 H 0.63762 0.44769 0.7622 0.0
H957 H 0.46975 0.29049 0.81605 0.0
H958 H 0.57092 0.32355 0.77195 0.0
H959 H 0.57366 0.39893 0.81888 0.0
C960 C 0.61294 0.44885 0.80446 0.0
C961 C 0.63081 0.46356 0.78838 0.0
C962 C 0.54892 0.31602 0.78175 0.0
C963 C 0.58085 0.38463 0.79238 0.0
C964 C 0.51753 0.2785 0.78229 0.0
C965 C 0.48795 0.26897 0.79436 0.0
C966 C 0.55081 0.34361 0.7936 0.0
C967 C 0.49179 0.29691 0.8064 0.0
C968 C 0.58793 0.40955 0.80649 0.0
C969 C 0.62392 0.43757 0.77474 0.0
N970 N 0.52252 0.33295 0.80568 0.0
N971 N 0.59934 0.39932 0.77701 0.0
H972 H 0.60211 0.12092 0.78878 0.0
H973 H 0.82013 0.28588 0.77749 0.0
H974 H 0.6299 0.23737 0.77837 0.0
H975 H 0.78267 0.18052 0.80594 0.0
H976 H 0.75248 0.27066 0.77591 0.0
H977 H 0.67016 0.14299 0.79234 0.0
C978 C 0.62266 0.15118 0.78712 0.0
C979 C 0.61037 0.17729 0.78318 0.0
C980 C 0.75941 0.25125 0.78264 0.0
C981 C 0.68872 0.20306 0.7874 0.0
C982 C 0.7979 0.25998 0.7836 0.0
C983 C 0.80694 0.23408 0.79156 0.0
C984 C 0.73023 0.21641 0.78962 0.0
C985 C 0.77707 0.20097 0.79931 0.0
C986 C 0.66155 0.16388 0.78931 0.0
C987 C 0.63829 0.21635 0.78146 0.0
N988 N 0.74025 0.19297 0.79797 0.0
N989 N 0.67633 0.22811 0.78346 0.0
H990 H 0.18961 0.28783 0.61965 0.0
H991 H 0.23323 0.11851 0.59774 0.0
H992 H 0.10208 0.178 0.59997 0.0
H993 H 0.31243 0.22608 0.62239 0.0
H994 H 0.18304 0.13668 0.59942 0.0
H995 H 0.23391 0.26334 0.62139 0.0
C996 C 0.17974 0.2585 0.61567 0.0
C997 C 0.14222 0.23505 0.60955 0.0
C998 C 0.2114 0.15604 0.60455 0.0
C999 C 0.19291 0.20647 0.61151 0.0
C1000 C 0.23992 0.14563 0.60364 0.0
C1001 C 0.27723 0.17112 0.60962 0.0
C1002 C 0.22048 0.19202 0.61155 0.0
C1003 C 0.28436 0.20583 0.61723 0.0
C1004 C 0.20499 0.24437 0.61674 0.0
C1005 C 0.13079 0.197 0.60484 0.0
N1006 N 0.25647 0.21527 0.61786 0.0
N1007 N 0.15615 0.18394 0.60577 0.0
H1008 H 0.88199 0.94836 0.58119 0.0
H1009 H 0.88136 0.12129 0.62964 0.0
H1010 H 0.83977 0.94012 0.63356 0.0
H1011 H 0.95453 0.13936 0.58545 0.0
H1012 H 0.86821 0.05533 0.63179 0.0
H1013 H 0.91051 1.01828 0.58253 0.0
C1014 C 0.87887 0.96132 0.593 0.0
C1015 C 0.85811 0.9384 0.60723 0.0
C1016 C 0.88763 0.07373 0.62176 0.0
C1017 C 0.89069 1.01823 0.60885 0.0
C1018 C 0.89511 0.11135 0.62054 0.0
C1019 C 0.91884 0.13547 0.60729 0.0
C1020 C 0.90324 0.05975 0.60937 0.0
C1021 C 0.93613 0.12149 0.59586 0.0
C1022 C 0.89543 1.00121 0.5938 0.0
C1023 C 0.85554 0.95668 0.6223 0.0
N1024 N 0.9274 0.08415 0.59695 0.0
N1025 N 0.87119 0.99545 0.62263 0.0
H1026 H 0.14607 0.91024 0.58416 0.0
H1027 H 0.9318 0.84157 0.61669 0.0
H1028 H 0.1226 0.9625 0.62803 0.0
H1029 H 0.9632 0.77877 0.58119 0.0
H1030 H 0.99984 0.89284 0.6179 0.0
H1031 H 0.07746 0.86797 0.5801 0.0
C1032 C 0.12649 0.91263 0.59306 0.0
C1033 C 0.14029 0.93954 0.60668 0.0
C1034 C 0.99161 0.868 0.6097 0.0
C1035 C 0.0611 0.89141 0.60185 0.0
C1036 C 0.95287 0.83902 0.60889 0.0
C1037 C 0.94214 0.80594 0.59891 0.0
C1038 C 1.0193 0.86375 0.60028 0.0
C1039 C 0.97041 0.80369 0.58917 0.0
C1040 C 0.08719 0.88865 0.59063 0.0
C1041 C 0.11329 0.94212 0.61739 0.0
N1042 N 1.00759 0.83204 0.59016 0.0
N1043 N 0.07493 0.91815 0.61483 0.0
H1044 H 0.55051 0.08098 0.07811 0.0
H1045 H 0.50765 0.98897 0.98248 0.0
H1046 H 0.47598 0.96091 0.06689 0.0
H1047 H 0.54417 0.10724 0.99382 0.0
H1048 H 0.51819 0.97961 1.01329 0.0
H1049 H 0.57049 0.09155 0.04733 0.0
C1050 C 0.53959 0.05667 0.06932 0.0
C1051 C 0.51146 0.02012 0.07488 0.0
C1052 C 0.52498 1.00789 1.00888 0.0
C1053 C 0.53364 0.03183 0.03989 0.0
C1054 C 0.51926 1.01324 0.99132 0.0
C1055 C 0.52478 0.0488 0.98577 0.0
C1056 C 0.53665 0.03847 1.02077 0.0
C1057 C 0.5393 0.07928 0.99772 0.0
C1058 C 0.55066 0.06269 0.05176 0.0
C1059 C 0.4976 0.98959 0.06298 0.0
N1060 N 0.54434 0.07337 1.01469 0.0
N1061 N 0.50846 0.99615 0.04601 0.0
H1062 H 0.08248 0.54755 0.97926 0.0
H1063 H 0.1199 0.54645 0.06632 0.0
H1064 H 0.97013 0.45721 0.99456 0.0
H1065 H 0.9984 0.49527 0.0754 0.0
H1066 H 0.1102 0.55613 0.03592 0.0
H1067 H 0.09481 0.57039 1.00961 0.0
C1068 C 0.06015 0.53316 0.98893 0.0
C1069 C 1.02557 0.50011 0.98456 0.0
C1070 C 0.08566 0.54431 0.04454 0.0
C1071 C 0.03963 0.52495 1.01925 0.0
C1072 C 0.09126 0.53872 0.06198 0.0
C1073 C 0.05991 0.52019 0.07334 0.0
C1074 C 0.04816 0.53036 0.03826 0.0
C1075 C 1.02334 0.51006 0.06707 0.0
C1076 C 0.06732 0.54577 1.00632 0.0
C1077 C 0.99748 0.48246 0.99752 0.0
N1078 N 1.01833 0.51434 0.04981 0.0
N1079 N 1.00527 0.49477 1.01427 0.0
H1080 H 0.53496 0.57565 0.9811 0.0
H1081 H 0.57711 0.52555 0.07676 0.0
H1082 H 0.60493 0.52479 0.99186 0.0
H1083 H 0.54508 0.61066 0.0655 0.0
H1084 H 0.56584 0.50561 0.04594 0.0
H1085 H 0.51688 0.56868 1.01211 0.0
C1086 C 0.54522 0.56162 0.98986 0.0
C1087 C 0.57151 0.55088 0.98404 0.0
C1088 C 0.56027 0.52793 0.05035 0.0
C1089 C 0.55154 0.54324 1.01933 0.0
C1090 C 0.56639 0.53903 0.06794 0.0
C1091 C 0.56227 0.56991 0.07353 0.0
C1092 C 0.54954 0.54763 0.03849 0.0
C1093 C 0.54886 0.58688 0.06158 0.0
C1094 C 0.53527 0.55799 1.00755 0.0
C1095 C 0.58466 0.53354 0.99593 0.0
N1096 N 0.54333 0.57582 0.04461 0.0
N1097 N 0.5749 0.53063 1.01303 0.0
H1098 H 0.17732 0.31764 0.40513 0.0
H1099 H 0.22759 0.44068 0.31763 0.0
H1100 H 0.1996 0.43383 0.40131 0.0
H1101 H 0.15993 0.31724 0.31779 0.0
H1102 H 0.24034 0.43977 0.34868 0.0
H1103 H 0.19194 0.31908 0.37385 0.0
C1104 C 0.18667 0.34388 0.39782 0.0
C1105 C 0.18753 0.37581 0.4057 0.0
C1106 C 0.22363 0.41276 0.34187 0.0
C1107 C 0.2041 0.3776 0.37021 0.0
C1108 C 0.21672 0.41325 0.32412 0.0
C1109 C 0.19284 0.37898 0.31522 0.0
C1110 C 0.20602 0.37774 0.35088 0.0
C1111 C 0.17887 0.34421 0.32422 0.0
C1112 C 0.19464 0.34455 0.38001 0.0
C1113 C 0.19885 0.40877 0.39568 0.0
N1114 N 0.18505 0.34445 0.34172 0.0
N1115 N 0.20655 0.40878 0.37845 0.0
H1116 H 0.77846 0.88554 0.40692 0.0
H1117 H 0.65778 0.83181 0.31847 0.0
H1118 H 0.65544 0.81354 0.40526 0.0
H1119 H 0.77809 0.86831 0.32246 0.0
H1120 H 0.65694 0.84446 0.34983 0.0
H1121 H 0.77841 0.90001 0.37601 0.0
C1122 C 0.75123 0.87405 0.40015 0.0
C1123 C 0.71689 0.8486 0.40861 0.0
C1124 C 0.68375 0.8508 0.34371 0.0
C1125 C 0.71667 0.86369 0.37304 0.0
C1126 C 0.68434 0.84401 0.32582 0.0
C1127 C 0.71821 0.84947 0.31794 0.0
C1128 C 0.71735 0.86341 0.35365 0.0
C1129 C 0.75156 0.86416 0.32807 0.0
C1130 C 0.75124 0.88193 0.38247 0.0
C1131 C 0.68244 0.83377 0.39921 0.0
N1132 N 0.75026 0.87039 0.34539 0.0
N1133 N 0.68322 0.84097 0.3818 0.0
H1134 H 0.19503 0.88874 0.31486 0.0
H1135 H 0.19002 0.91933 0.40242 0.0
H1136 H 0.28815 0.87093 0.32991 0.0
H1137 H 0.25081 0.85787 0.41034 0.0
H1138 H 0.18107 0.90069 0.37191 0.0
H1139 H 0.17108 0.8751 0.345 0.0
C1140 C 0.20982 0.88105 0.32442 0.0
C1141 C 0.24393 0.88165 0.32007 0.0
C1142 C 0.19488 0.88963 0.38029 0.0
C1143 C 0.21789 0.86742 0.35457 0.0
C1144 C 0.19996 0.90032 0.39781 0.0
C1145 C 0.22099 0.88992 0.40887 0.0
C1146 C 0.21182 0.86904 0.37364 0.0
C1147 C 0.23401 0.86604 0.40225 0.0
C1148 C 0.19658 0.87385 0.34171 0.0
C1149 C 0.26207 0.87145 0.33287 0.0
N1150 N 0.23009 0.85725 0.38494 0.0
N1151 N 0.24916 0.86525 0.34953 0.0
H1152 H 0.89167 0.77035 0.74016 0.0
H1153 H 0.83601 0.65664 0.65069 0.0
H1154 H 0.83843 0.64732 0.73727 0.0
H1155 H 0.89352 0.7797 0.65564 0.0
H1156 H 0.8498 0.65228 0.68162 0.0
H1157 H 0.90646 0.77448 0.7091 0.0
C1158 C 0.88438 0.7443 0.73304 0.0
C1159 C 0.86434 0.70856 0.74123 0.0
C1160 C 0.86046 0.6803 0.6758 0.0
C1161 C 0.87913 0.7126 0.70543 0.0
C1162 C 0.85296 0.68275 0.65811 0.0
C1163 C 0.86376 0.71859 0.65071 0.0
C1164 C 0.87869 0.71396 0.686 0.0
C1165 C 0.88476 0.75154 0.66092 0.0
C1166 C 0.89242 0.74652 0.71525 0.0
C1167 C 0.85453 0.67547 0.73139 0.0
N1168 N 0.89108 0.74843 0.67805 0.0
N1169 N 0.86132 0.6782 0.71391 0.0
H1170 H 0.30692 0.15895 0.65526 0.0
H1171 H 0.43044 0.22279 0.74279 0.0
H1172 H 0.429 0.20317 0.65644 0.0
H1173 H 0.30862 0.14426 0.7396 0.0
H1174 H 0.43111 0.2365 0.71151 0.0
H1175 H 0.30887 0.17592 0.68597 0.0
C1176 C 0.33445 0.17381 0.66185 0.0
C1177 C 0.36789 0.17998 0.65336 0.0
C1178 C 0.40406 0.21724 0.71779 0.0
C1179 C 0.37017 0.19798 0.68869 0.0
C1180 C 0.40359 0.20975 0.73564 0.0
C1181 C 0.3693 0.18266 0.74372 0.0
C1182 C 0.36992 0.19765 0.70808 0.0
C1183 C 0.3355 0.16561 0.73384 0.0
C1184 C 0.33549 0.18306 0.67943 0.0
C1185 C 0.40272 0.19851 0.66252 0.0
N1186 N 0.33669 0.17315 0.71653 0.0
N1187 N 0.40289 0.20623 0.67985 0.0
H1188 H 0.93796 0.18449 0.65243 0.0
H1189 H 0.85653 0.22666 0.73923 0.0
H1190 H 0.87468 0.24474 0.65275 0.0
H1191 H 0.94462 0.19576 0.73692 0.0
H1192 H 0.84531 0.21384 0.70778 0.0
H1193 H 0.92156 0.16782 0.68302 0.0
C1194 C 0.91939 0.19303 0.65885 0.0
C1195 C 0.90752 0.21587 0.65014 0.0
C1196 C 0.86622 0.2087 0.71427 0.0
C1197 C 0.88993 0.19835 0.68537 0.0
C1198 C 0.87229 0.21555 0.73222 0.0
C1199 C 0.90128 0.21182 0.7406 0.0
C1200 C 0.88921 0.1979 0.70477 0.0
C1201 C 0.92177 0.19855 0.73092 0.0
C1202 C 0.91034 0.18384 0.67636 0.0
C1203 C 0.88399 0.22671 0.65904 0.0
N1204 N 0.91557 0.19237 0.71352 0.0
N1205 N 0.87655 0.2185 0.67633 0.0
H1206 H 0.29361 0.86759 0.21998 0.0
H1207 H 0.43948 0.04755 0.16376 0.0
H1208 H 0.31628 0.98214 0.23098 0.0
H1209 H 0.46719 0.95969 0.17595 0.0
H1210 H 0.38585 1.01834 0.18432 0.0
H1211 H 0.34882 0.8949 0.19967 0.0
C1212 C 0.30987 0.89835 0.21795 0.0
C1213 C 0.30027 0.92267 0.22707 0.0
C1214 C 0.40374 1.00552 0.18259 0.0
C1215 C 0.36286 0.95386 0.20392 0.0
C1216 C 0.4344 0.02221 0.17089 0.0
C1217 C 0.45812 1.00632 0.16832 0.0
C1218 C 0.39585 0.97194 0.19153 0.0
C1219 C 0.44992 0.97316 0.17777 0.0
C1220 C 0.34151 0.91389 0.20654 0.0
C1221 C 0.3226 0.96237 0.22417 0.0
N1222 N 0.41915 0.95675 0.18885 0.0
N1223 N 0.3525 0.97663 0.21277 0.0
H1224 H 0.11038 0.52398 0.17443 0.0
H1225 H 0.08974 0.34527 0.22619 0.0
H1226 H 1.02816 0.40816 0.15919 0.0
H1227 H 0.20337 0.43854 0.21474 0.0
H1228 H 0.06278 0.37269 0.20604 0.0
H1229 H 0.14139 0.49835 0.19384 0.0
C1230 C 0.09861 0.49323 0.17536 0.0
C1231 C 0.06651 0.46806 0.16534 0.0
C1232 C 0.09364 0.38705 0.20783 0.0
C1233 C 0.10145 0.43882 0.18739 0.0
C1234 C 0.10905 0.3714 0.21927 0.0
C1235 C 0.14886 0.38935 0.2219 0.0
C1236 C 0.11801 0.4217 0.1993 0.0
C1237 C 0.17256 0.42348 0.2128 0.0
C1238 C 0.11652 0.47872 0.18623 0.0
C1239 C 0.05272 0.4285 0.16677 0.0
N1240 N 0.15673 0.43891 0.20202 0.0
N1241 N 0.06995 0.41511 0.1777 0.0
H1242 H 0.63245 0.78543 0.21753 0.0
H1243 H 0.53892 0.60662 0.17328 0.0
H1244 H 0.7116 0.7481 0.2329 0.0
H1245 H 0.65518 0.63138 0.16526 0.0
H1246 H 0.56292 0.65997 0.19445 0.0
H1247 H 0.60118 0.73016 0.19752 0.0
C1248 C 0.64322 0.76561 0.21668 0.0
C1249 C 0.67463 0.77129 0.22688 0.0
C1250 C 0.58309 0.65364 0.18803 0.0
C1251 C 0.63917 0.70822 0.20408 0.0
C1252 C 0.56937 0.62297 0.17614 0.0
C1253 C 0.59514 0.61462 0.16755 0.0
C1254 C 0.62273 0.67543 0.1916 0.0
C1255 C 0.63438 0.63692 0.1716 0.0
C1256 C 0.62515 0.73392 0.20541 0.0
C1257 C 0.6874 0.7447 0.22531 0.0
N1258 N 0.64691 0.666 0.18341 0.0
N1259 N 0.66998 0.71468 0.21398 0.0
H1260 H 0.05961 0.42797 0.89602 0.0
H1261 H 0.88042 0.28171 0.84089 0.0
H1262 H 0.97372 0.45825 0.88336 0.0
H1263 H 0.99522 0.31185 0.82549 0.0
H1264 H 0.90796 0.33691 0.86122 0.0
H1265 H 0.03046 0.37526 0.87485 0.0
C1266 C 0.03469 0.42358 0.88869 0.0
C1267 C 1.01931 0.44773 0.89124 0.0
C1268 C 0.92693 0.33129 0.85333 0.0
C1269 C 0.98509 0.38671 0.86748 0.0
C1270 C 0.91132 0.29976 0.84188 0.0
C1271 C 0.93564 0.29219 0.8316 0.0
C1272 C 0.96703 0.35446 0.85482 0.0
C1273 C 0.97548 0.31665 0.83321 0.0
C1274 C 1.01809 0.39353 0.87666 0.0
C1275 C 0.98673 0.44056 0.88155 0.0
N1276 N 0.98992 0.34631 0.84475 0.0
N1277 N 0.97032 0.41032 0.87021 0.0
H1278 H 0.61067 0.53477 0.88199 0.0
H1279 H 0.79377 0.61928 0.84086 0.0
H1280 H 0.64955 0.65285 0.89504 0.0
H1281 H 0.76458 0.70493 0.82623 0.0
H1282 H 0.73784 0.5905 0.86063 0.0
H1283 H 0.66494 0.55665 0.86145 0.0
C1284 C 0.63037 0.56524 0.88039 0.0
C1285 C 0.62568 0.59209 0.89018 0.0
C1286 C 0.74368 0.61548 0.853 0.0
C1287 C 0.68732 0.61718 0.86679 0.0
C1288 C 0.7757 0.63208 0.84188 0.0
C1289 C 0.78377 0.66454 0.83195 0.0
C1290 C 0.72029 0.63215 0.8545 0.0
C1291 C 0.75932 0.67988 0.83365 0.0
C1292 C 0.66147 0.57765 0.86884 0.0
C1293 C 0.65219 0.63125 0.88773 0.0
N1294 N 0.72908 0.66393 0.84488 0.0
N1295 N 0.68156 0.64262 0.87616 0.0
H1296 H 0.45767 0.19724 0.84355 0.0
H1297 H 0.42747 1.0143 0.89482 0.0
H1298 H 0.37357 0.08308 0.82702 0.0
H1299 H 0.54268 0.1073 0.88601 0.0
H1300 H 0.40342 0.04307 0.8738 0.0
H1301 H 0.48606 0.16922 0.86306 0.0
C1302 C 0.44512 0.16634 0.8441 0.0
C1303 C 0.41315 0.14239 0.83373 0.0
C1304 C 0.43399 0.05706 0.87636 0.0
C1305 C 0.44498 0.11036 0.85606 0.0
C1306 C 0.44774 0.04066 0.88831 0.0
C1307 C 0.48715 0.0582 0.89196 0.0
C1308 C 0.45964 0.09199 0.86833 0.0
C1309 C 0.51215 0.0926 0.88333 0.0
C1310 C 0.46146 0.15046 0.8551 0.0
C1311 C 0.39818 0.10257 0.8348 0.0
N1312 N 0.49792 0.10873 0.87206 0.0
N1313 N 0.41386 0.0878 0.8459 0.0
H1314 H 0.94738 0.19323 0.55057 0.0
H1315 H 0.12501 0.27966 0.50494 0.0
H1316 H 0.97897 0.31097 0.56019 0.0
H1317 H 0.09492 0.36596 0.49304 0.0
H1318 H 0.07044 0.24988 0.52542 0.0
H1319 H 1.00083 0.21559 0.52956 0.0
C1320 C 0.96537 0.2237 0.54815 0.0
C1321 C 0.95881 0.25032 0.5571 0.0
C1322 C 0.07568 0.27516 0.51821 0.0
C1323 C 1.01978 0.27606 0.53324 0.0
C1324 C 0.10701 0.29236 0.50669 0.0
C1325 C 0.11447 0.32532 0.49731 0.0
C1326 C 0.05225 0.2916 0.5206 0.0
C1327 C 0.09014 0.34053 0.49998 0.0
C1328 C 0.99609 0.23646 0.53634 0.0
C1329 C 0.9831 0.28951 0.55358 0.0
N1330 N 0.06052 0.32387 0.5115 0.0
N1331 N 1.01217 0.30114 0.54184 0.0
H1332 H 0.78145 0.86503 0.50926 0.0
H1333 H 0.87067 0.77132 0.55034 0.0
H1334 H 0.69469 0.7487 0.49721 0.0
H1335 H 0.75387 0.68834 0.56373 0.0
H1336 H 0.84639 0.80301 0.5307 0.0
H1337 H 0.81177 0.83994 0.52931 0.0
C1338 C 0.76863 0.83431 0.51098 0.0
C1339 C 0.73554 0.80886 0.50161 0.0
C1340 C 0.82619 0.77793 0.538 0.0
C1341 C 0.76982 0.7801 0.52435 0.0
C1342 C 0.83997 0.75961 0.549 0.0
C1343 C 0.81418 0.72714 0.5586 0.0
C1344 C 0.78634 0.76303 0.53632 0.0
C1345 C 0.77468 0.71329 0.55654 0.0
C1346 C 0.78614 0.82003 0.52222 0.0
C1347 C 0.72021 0.76928 0.50418 0.0
N1348 N 0.76198 0.731 0.5455 0.0
N1349 N 0.73719 0.75616 0.51541 0.0
H1350 H 0.32798 0.97654 0.49405 0.0
H1351 H 0.38471 0.08881 0.56912 0.0
H1352 H 0.21423 0.94519 0.51172 0.0
H1353 H 0.30648 0.12456 0.55034 0.0
H1354 H 0.35716 0.03529 0.54839 0.0
H1355 H 0.35506 0.02994 0.51484 0.0
C1356 C 0.30869 0.98085 0.50238 0.0
C1357 C 0.26882 0.95611 0.50133 0.0
C1358 C 0.3461 0.05491 0.54877 0.0
C1359 C 0.29969 1.01776 0.52489 0.0
C1360 C 0.36176 0.08543 0.56057 0.0
C1361 C 0.34816 0.11143 0.56129 0.0
C1362 C 0.31598 0.04968 0.53778 0.0
C1363 C 0.3181 0.10543 0.55001 0.0
C1364 C 0.32418 1.0113 0.51421 0.0
C1365 C 0.24515 0.9633 0.51231 0.0
N1366 N 0.30269 0.07489 0.53879 0.0
N1367 N 0.26093 0.99378 0.52357 0.0
H1368 H 0.57414 0.33718 0.10336 0.0
H1369 H 0.43707 0.11197 0.12214 0.0
H1370 H 0.46478 0.28949 0.1295 0.0
H1371 H 0.55496 0.16193 0.10534 0.0
H1372 H 0.44342 0.17572 0.12101 0.0
H1373 H 0.56429 0.27214 0.10018 0.0
C1374 C 0.54793 0.31304 0.10829 0.0
C1375 C 0.52046 0.3189 0.11688 0.0
C1376 C 0.46781 0.17266 0.11745 0.0
C1377 C 0.50896 0.24435 0.11328 0.0
C1378 C 0.46413 0.13618 0.118 0.0
C1379 C 0.49557 0.13146 0.11394 0.0
C1380 C 0.5031 0.20473 0.11269 0.0
C1381 C 0.52998 0.1641 0.10872 0.0
C1382 C 0.5424 0.27593 0.10655 0.0
C1383 C 0.48708 0.28646 0.12307 0.0
N1384 N 0.53284 0.19926 0.10831 0.0
N1385 N 0.48233 0.25071 0.12119 0.0
H1386 H 0.73862 0.26519 0.10419 0.0
H1387 H 0.96464 0.34646 0.11668 0.0
H1388 H 0.78619 0.1949 0.12039 0.0
H1389 H 0.91533 0.41572 0.10126 0.0
H1390 H 0.90035 0.28935 0.11555 0.0
H1391 H 0.80377 0.31959 0.10097 0.0
C1392 C 0.76272 0.26113 0.10706 0.0
C1393 C 0.75672 0.2253 0.11263 0.0
C1394 C 0.90372 0.31703 0.11225 0.0
C1395 C 0.83175 0.28766 0.10885 0.0
C1396 C 0.94049 0.34964 0.1128 0.0
C1397 C 0.94551 0.38609 0.10919 0.0
C1398 C 0.87174 0.32089 0.10805 0.0
C1399 C 0.91298 0.38836 0.10432 0.0
C1400 C 0.8 0.2922 0.10513 0.0
C1401 C 0.78927 0.22178 0.11588 0.0
N1402 N 0.87761 0.35637 0.10401 0.0
N1403 N 0.82528 0.25254 0.11405 0.0
H1404 H 0.65423 0.51728 0.10654 0.0
H1405 H 0.88102 0.61192 0.12037 0.0
H1406 H 0.72763 0.63608 0.121 0.0
H1407 H 0.80537 0.49269 0.10742 0.0
H1408 H 0.82656 0.62286 0.11854 0.0
H1409 H 0.71032 0.50957 0.10467 0.0
C1410 C 0.6822 0.54191 0.10926 0.0
C1411 C 0.68605 0.57739 0.1141 0.0
C1412 C 0.82191 0.59436 0.116 0.0
C1413 C 0.75084 0.56852 0.11201 0.0
C1414 C 0.85306 0.5881 0.11692 0.0
C1415 C 0.84786 0.55125 0.11405 0.0
C1416 C 0.78515 0.56359 0.11216 0.0
C1417 C 0.81075 0.52144 0.10995 0.0
C1418 C 0.71431 0.53741 0.10818 0.0
C1419 C 0.72321 0.60821 0.11726 0.0
N1420 N 0.78089 0.52825 0.10917 0.0
N1421 N 0.75415 0.60299 0.11629 0.0
H1422 H 0.34448 0.56923 0.95808 0.0
H1423 H 0.1208 0.42501 0.93975 0.0
H1424 H 0.2999 0.45432 0.93809 0.0
H1425 H 0.16757 0.54129 0.95837 0.0
H1426 H 0.1849 0.43214 0.94222 0.0
H1427 H 0.27875 0.55684 0.96108 0.0
C1428 C 0.32087 0.54135 0.95438 0.0
C1429 C 0.32783 0.51289 0.94774 0.0
C1430 C 0.18097 0.45592 0.94593 0.0
C1431 C 0.25227 0.49837 0.95118 0.0
C1432 C 0.14434 0.45178 0.9446 0.0
C1433 C 0.13882 0.48271 0.94867 0.0
C1434 C 0.21222 0.4912 0.95138 0.0
C1435 C 0.17046 0.51679 0.95485 0.0
C1436 C 0.28329 0.53419 0.95616 0.0
C1437 C 0.29598 0.47704 0.94342 0.0
N1438 N 0.20573 0.52018 0.95588 0.0
N1439 N 0.25965 0.47092 0.94508 0.0
H1440 H 0.62891 0.87449 0.93845 0.0
H1441 H 0.53323 0.64989 0.95832 0.0
H1442 H 0.51227 0.80314 0.95623 0.0
H1443 H 0.64842 0.71848 0.93833 0.0
H1444 H 0.52787 0.70736 0.96041 0.0
H1445 H 0.63897 0.8196 0.94091 0.0
C1446 C 0.60551 0.84742 0.94308 0.0
C1447 C 0.5696 0.84354 0.94713 0.0
C1448 C 0.55447 0.71002 0.95569 0.0
C1449 C 0.58093 0.78027 0.94977 0.0
C1450 C 0.55764 0.67714 0.95451 0.0
C1451 C 0.59127 0.6792 0.94798 0.0
C1452 C 0.58507 0.74549 0.95023 0.0
C1453 C 0.62195 0.71547 0.94342 0.0
C1454 C 0.61126 0.816 0.94438 0.0
C1455 C 0.54025 0.80746 0.95275 0.0
N1456 N 0.61798 0.74715 0.94448 0.0
N1457 N 0.54654 0.7773 0.95386 0.0
H1458 H 0.42922 0.90551 0.95725 0.0
H1459 H 0.21133 0.77361 0.92806 0.0
H1460 H 0.35963 0.95091 0.93728 0.0
H1461 H 0.27229 0.73064 0.95818 0.0
H1462 H 0.26503 0.83886 0.93189 0.0
H1463 H 0.37209 0.84176 0.95848 0.0
C1464 C 0.40187 0.9022 0.95327 0.0
C1465 C 0.39934 0.93369 0.94702 0.0
C1466 C 0.26664 0.81528 0.9378 0.0
C1467 C 0.33375 0.86046 0.94827 0.0
C1468 C 0.23606 0.77798 0.93554 0.0
C1469 C 0.23755 0.74662 0.94266 0.0
C1470 C 0.29931 0.82142 0.9471 0.0
C1471 C 0.27 0.75401 0.95247 0.0
C1472 C 0.36922 0.86572 0.95401 0.0
C1473 C 0.36303 0.92755 0.94217 0.0
N1474 N 0.29981 0.79062 0.95424 0.0
N1475 N 0.33178 0.89161 0.9427 0.0
H1476 H 0.24886 0.67395 0.44501 0.0
H1477 H 0.10657 0.44738 0.45705 0.0
H1478 H 0.1348 0.62445 0.46659 0.0
H1479 H 0.22742 0.49756 0.44561 0.0
H1480 H 0.11432 0.51169 0.45704 0.0
H1481 H 0.23926 0.60906 0.44141 0.0
C1482 C 0.2217 0.64944 0.44883 0.0
C1483 C 0.19275 0.65465 0.45628 0.0
C1484 C 0.13911 0.5086 0.45447 0.0
C1485 C 0.18158 0.58043 0.45225 0.0
C1486 C 0.13468 0.47185 0.45444 0.0
C1487 C 0.16641 0.46698 0.45142 0.0
C1488 C 0.17548 0.54081 0.45136 0.0
C1489 C 0.20216 0.49987 0.44811 0.0
C1490 C 0.21631 0.61245 0.44688 0.0
C1491 C 0.15816 0.62183 0.46107 0.0
N1492 N 0.20573 0.53533 0.44819 0.0
N1493 N 0.15358 0.58622 0.45901 0.0
H1494 H 0.5735 0.75003 0.44409 0.0
H1495 H 0.44985 0.52262 0.45873 0.0
H1496 H 0.62443 0.67987 0.45489 0.0
H1497 H 0.40004 0.59397 0.44855 0.0
H1498 H 0.51385 0.57897 0.45594 0.0
H1499 H 0.5102 0.6926 0.44409 0.0
C1500 C 0.57151 0.72252 0.44633 0.0
C1501 C 0.6046 0.71998 0.44956 0.0
C1502 C 0.48895 0.58231 0.45426 0.0
C1503 C 0.53153 0.65367 0.4497 0.0
C1504 C 0.45227 0.55005 0.45575 0.0
C1505 C 0.41925 0.55336 0.45384 0.0
C1506 C 0.4929 0.61839 0.45082 0.0
C1507 C 0.42449 0.58996 0.45033 0.0
C1508 C 0.53517 0.68964 0.44637 0.0
C1509 C 0.59987 0.68334 0.45233 0.0
N1510 N 0.46051 0.62093 0.44895 0.0
N1511 N 0.56404 0.65169 0.45243 0.0
H1512 H 0.54602 0.949 0.45643 0.0
H1513 H 0.32049 0.85214 0.43845 0.0
H1514 H 0.47364 0.83086 0.44082 0.0
H1515 H 0.39152 0.97081 0.45361 0.0
H1516 H 0.37749 0.8458 0.43692 0.0
H1517 H 0.49135 0.95923 0.45325 0.0
C1518 C 0.51878 0.92528 0.45212 0.0
C1519 C 0.51453 0.88892 0.44892 0.0
C1520 C 0.38078 0.87335 0.44046 0.0
C1521 C 0.45149 0.90044 0.44549 0.0
C1522 C 0.34816 0.87706 0.44133 0.0
C1523 C 0.35109 0.91204 0.44632 0.0
C1524 C 0.41684 0.90475 0.44471 0.0
C1525 C 0.38785 0.94331 0.44972 0.0
C1526 C 0.48747 0.93114 0.45041 0.0
C1527 C 0.47824 0.85921 0.44367 0.0
N1528 N 0.41926 0.93882 0.44901 0.0
N1529 N 0.44819 0.8656 0.44219 0.0
H1530 H 0.84386 0.88448 0.28089 0.0
H1531 H 0.96913 0.78501 0.26126 0.0
H1532 H 0.79376 0.76391 0.26897 0.0
H1533 H 1.01719 0.89926 0.28248 0.0
H1534 H 0.90489 0.77689 0.26379 0.0
H1535 H 0.90735 0.8905 0.28143 0.0
C1536 C 0.84613 0.85917 0.27844 0.0
C1537 C 0.81328 0.8236 0.27479 0.0
C1538 C 0.92941 0.80368 0.26798 0.0
C1539 C 0.88632 0.83048 0.27531 0.0
C1540 C 0.96618 0.80845 0.26645 0.0
C1541 C 0.99874 0.84304 0.27152 0.0
C1542 C 0.92494 0.83382 0.27451 0.0
C1543 C 0.99298 0.87209 0.27846 0.0
C1544 C 0.88249 0.86266 0.2788 0.0
C1545 C 0.81818 0.79187 0.27185 0.0
N1546 N 0.95687 0.86695 0.2796 0.0
N1547 N 0.85401 0.79613 0.27203 0.0
H1548 H 0.31538 0.05005 0.27464 0.0
H1549 H 0.16541 0.12605 0.28163 0.0
H1550 H 0.19371 0.97689 0.28354 0.0
H1551 H 0.28614 0.19993 0.27094 0.0
H1552 H 0.17634 0.07174 0.28433 0.0
H1553 H 0.30652 0.10606 0.2755 0.0
C1554 C 0.28691 0.04572 0.27694 0.0
C1555 C 0.25525 1.00856 0.2789 0.0
C1556 C 0.20051 0.09987 0.28149 0.0
C1557 C 0.24486 0.07258 0.2798 0.0
C1558 C 0.19423 0.13091 0.27986 0.0
C1559 C 0.22483 0.16773 0.276 0.0
C1560 C 0.23767 0.10548 0.27918 0.0
C1561 C 0.26169 0.17224 0.27413 0.0
C1562 C 0.28184 0.07773 0.27737 0.0
C1563 C 0.219 1.00485 0.28181 0.0
N1564 N 0.26703 0.14152 0.27564 0.0
N1565 N 0.21482 0.03633 0.28209 0.0
H1566 H 0.93667 0.05995 0.28305 0.0
H1567 H 1.0237 0.28579 0.26665 0.0
H1568 H 0.8744 0.10771 0.25756 0.0
H1569 H 0.09032 0.23598 0.28534 0.0
H1570 H 0.96632 0.22171 0.26674 0.0
H1571 H 0.99086 0.12508 0.28734 0.0
C1572 C 0.93424 0.0841 0.27847 0.0
C1573 C 0.90099 0.0782 0.26977 0.0
C1574 C 0.99346 0.2249 0.27096 0.0
C1575 C 0.96308 0.15301 0.27459 0.0
C1576 C 1.02621 0.26155 0.27101 0.0
C1577 C 0.06204 0.26638 0.27589 0.0
C1578 C 0.99646 0.19282 0.27589 0.0
C1579 C 0.06346 0.23374 0.28133 0.0
C1580 C 0.96528 0.12131 0.28085 0.0
C1581 C 0.89969 0.11074 0.26403 0.0
N1582 N 0.03129 0.19846 0.2811 0.0
N1583 N 0.93023 0.14662 0.2665 0.0
H1584 H 0.77659 0.78094 0.78867 0.0
H1585 H 0.92045 1.00843 0.78162 0.0
H1586 H 0.89863 0.83237 0.78002 0.0
H1587 H 0.80323 0.95755 0.79938 0.0
H1588 H 0.9112 0.94388 0.77751 0.0
H1589 H 0.78408 0.84522 0.78919 0.0
C1590 C 0.80488 0.80566 0.78672 0.0
C1591 C 0.83703 0.80116 0.78439 0.0
C1592 C 0.88749 0.94686 0.78227 0.0
C1593 C 0.84584 0.8749 0.78501 0.0
C1594 C 0.89271 0.98371 0.78453 0.0
C1595 C 0.86271 0.98846 0.79101 0.0
C1596 C 0.85189 0.91447 0.78637 0.0
C1597 C 0.8274 0.95531 0.79465 0.0
C1598 C 0.80918 0.84239 0.7871 0.0
C1599 C 0.87302 0.83436 0.78198 0.0
N1600 N 0.823 0.91982 0.79231 0.0
N1601 N 0.87645 0.86974 0.78239 0.0
H1602 H 0.2949 0.01986 0.78677 0.0
H1603 H 0.06704 0.93648 0.79023 0.0
H1604 H 0.24259 0.09097 0.78779 0.0
H1605 H 0.11908 0.86515 0.79005 0.0
H1606 H 0.13107 0.99335 0.78842 0.0
H1607 H 0.23075 0.96279 0.78678 0.0
C1608 C 0.27 0.02354 0.78691 0.0
C1609 C 0.27431 0.06039 0.78734 0.0
C1610 C 0.12848 0.96524 0.78872 0.0
C1611 C 0.20061 0.99504 0.78741 0.0
C1612 C 0.09187 0.93271 0.78984 0.0
C1613 C 0.08747 0.89581 0.79028 0.0
C1614 C 0.16112 0.961 0.78809 0.0
C1615 C 0.12086 0.89287 0.78949 0.0
C1616 C 0.23333 0.9909 0.78694 0.0
C1617 C 0.24084 0.06324 0.78752 0.0
N1618 N 0.15616 0.92494 0.78848 0.0
N1619 N 0.20554 0.03108 0.7876 0.0
H1620 H 0.14941 0.16377 0.78363 0.0
H1621 H 0.06099 0.30374 0.78905 0.0
H1622 H 0.21446 0.28214 0.80003 0.0
H1623 H 0.99359 0.18184 0.77933 0.0
H1624 H 0.11899 0.29816 0.7901 0.0
H1625 H 0.09352 0.17165 0.77895 0.0
C1626 C 0.15207 0.1915 0.78612 0.0
C1627 C 0.18668 0.22221 0.79238 0.0
C1628 C 0.0915 0.27269 0.78764 0.0
C1629 C 0.12261 0.23144 0.78713 0.0
C1630 C 0.05839 0.27591 0.78697 0.0
C1631 C 1.02227 0.24321 0.7842 0.0
C1632 C 0.08851 0.23656 0.78544 0.0
C1633 C 1.02072 0.20784 0.78163 0.0
C1634 C 0.12006 0.19594 0.78354 0.0
C1635 C 0.18821 0.25743 0.7955 0.0
N1636 N 0.05325 0.20547 0.78237 0.0
N1637 N 0.1567 0.26104 0.79288 0.0
H1638 H 0.45494 0.09496 0.60985 0.0
H1639 H 0.68247 0.23711 0.61898 0.0
H1640 H 0.50759 0.21615 0.62101 0.0
H1641 H 0.63138 0.1175 0.60491 0.0
H1642 H 0.61814 0.2286 0.62198 0.0
H1643 H 0.51872 0.10103 0.61061 0.0
C1644 C 0.47976 0.12271 0.61268 0.0
C1645 C 0.47576 0.1551 0.61527 0.0
C1646 C 0.62098 0.20414 0.61832 0.0
C1647 C 0.54896 0.16233 0.61601 0.0
C1648 C 0.65778 0.20905 0.61652 0.0
C1649 C 0.66256 0.17804 0.61164 0.0
C1650 C 0.58849 0.16796 0.61519 0.0
C1651 C 0.62928 0.14218 0.60891 0.0
C1652 C 0.51622 0.12621 0.61302 0.0
C1653 C 0.50911 0.19037 0.61881 0.0
N1654 N 0.59377 0.13819 0.61064 0.0
N1655 N 0.54417 0.19304 0.61898 0.0
H1656 H 0.856 0.31011 0.61489 0.0
H1657 H 0.95414 0.53808 0.60461 0.0
H1658 H 0.97687 0.38403 0.60433 0.0
H1659 H 0.83309 0.4626 0.61394 0.0
H1660 H 0.96399 0.48298 0.60632 0.0
H1661 H 0.84829 0.36626 0.61639 0.0
C1662 C 0.88109 0.33817 0.61297 0.0
C1663 C 0.91721 0.34217 0.60938 0.0
C1664 C 0.93531 0.47848 0.60808 0.0
C1665 C 0.90832 0.40703 0.61103 0.0
C1666 C 0.92965 0.51001 0.60723 0.0
C1667 C 0.89266 0.50511 0.60914 0.0
C1668 C 0.90379 0.4416 0.61087 0.0
C1669 C 0.86202 0.46781 0.61217 0.0
C1670 C 0.87657 0.37033 0.61382 0.0
C1671 C 0.9485 0.37946 0.60711 0.0
N1672 N 0.86826 0.43757 0.61291 0.0
N1673 N 0.94329 0.41041 0.60788 0.0
H1674 H 0.53718 0.44401 0.60336 0.0
H1675 H 0.76149 0.57515 0.62345 0.0
H1676 H 0.60924 0.39989 0.62146 0.0
H1677 H 0.69032 0.62112 0.60635 0.0
H1678 H 0.7047 0.51161 0.62518 0.0
H1679 H 0.59123 0.5093 0.60664 0.0
C1680 C 0.5642 0.44799 0.60825 0.0
C1681 C 0.56857 0.41621 0.6121 0.0
C1682 C 0.70133 0.53556 0.62118 0.0
C1683 C 0.63092 0.4912 0.61565 0.0
C1684 C 0.73383 0.572 0.6202 0.0
C1685 C 0.73081 0.60362 0.6146 0.0
C1686 C 0.66534 0.53037 0.61641 0.0
C1687 C 0.69407 0.59763 0.61072 0.0
C1688 C 0.59516 0.48536 0.61002 0.0
C1689 C 0.60458 0.42336 0.61809 0.0
N1690 N 0.66281 0.56164 0.61153 0.0
N1691 N 0.63431 0.46 0.6196 0.0
loop_
_geom_bond_atom_site_label_1
_geom_bond_atom_site_label_2
_geom_bond_distance
_geom_bond_site_symmetry_2
_ccdc_geom_bond_type
Tb0 C2 2.809 . S
Tb0 O20 2.484 . S
Tb0 O21 2.440 . S
Tb0 O22 2.658 1_545 S
Tb0 O23 2.409 . S
Tb0 O24 2.378 . S
Tb0 O28 2.325 . S
Tb0 O31 2.341 1_545 S
Tb1 C11 2.809 . S
Tb1 O22 2.325 . S
Tb1 O25 2.341 1_565 S
Tb1 O26 2.484 . S
Tb1 O27 2.440 . S
Tb1 O28 2.658 1_565 S
Tb1 O29 2.409 . S
Tb1 O30 2.378 . S
C2 Tb0 2.809 . S
C2 C3 1.514 . S
C2 O20 1.248 . S
C2 O21 1.266 . S
C3 C2 1.514 . S
C3 C4 1.359 . S
C3 C8 1.348 . S
C4 C3 1.359 . S
C4 C5 1.380 . S
C4 H32 0.929 . S
C5 C4 1.380 . S
C5 C6 1.347 . S
C5 H33 0.931 . S
C6 C5 1.347 . S
C6 C7 1.369 . S
C7 C6 1.369 . S
C7 C8 1.408 . S
C7 H34 0.930 . S
C8 C3 1.348 . S
C8 C7 1.408 . S
C8 H35 0.930 . S
C9 O22 1.281 1_545 S
C9 O23 1.254 . S
C10 O24 1.236 . S
C10 O25 1.266 . S
C11 Tb1 2.809 . S
C11 C12 1.514 . S
C11 O26 1.248 . S
C11 O27 1.266 . S
C12 C11 1.514 . S
C12 C13 1.359 . S
C12 C17 1.348 . S
C13 C12 1.359 . S
C13 C14 1.380 . S
C13 H36 0.929 . S
C14 C13 1.380 . S
C14 C15 1.347 . S
C14 H37 0.931 . S
C15 C14 1.347 . S
C15 C16 1.369 . S
C16 C15 1.369 . S
C16 C17 1.408 . S
C16 H38 0.930 . S
C17 C12 1.348 . S
C17 C16 1.408 . S
C17 H39 0.930 . S
C18 O28 1.281 . S
C18 O29 1.254 1_545 S
C19 O30 1.236 . S
C19 O31 1.266 . S
O20 Tb0 2.484 . S
O20 C2 1.248 . S
O21 Tb0 2.440 . S
O21 C2 1.266 . S
O22 Tb0 2.658 1_565 S
O22 Tb1 2.325 . S
O22 C9 1.281 1_565 S
O23 Tb0 2.409 . S
O23 C9 1.254 . S
O24 Tb0 2.378 . S
O24 C10 1.236 . S
O25 Tb1 2.341 1_545 S
O25 C10 1.266 . S
O26 Tb1 2.484 . S
O26 C11 1.248 . S
O27 Tb1 2.440 . S
O27 C11 1.266 . S
O28 Tb0 2.325 . S
O28 Tb1 2.658 1_545 S
O28 C18 1.281 . S
O29 Tb1 2.409 . S
O29 C18 1.254 1_565 S
O30 Tb1 2.378 . S
O30 C19 1.236 . S
O31 Tb0 2.341 1_565 S
O31 C19 1.266 . S
H32 C4 0.929 . S
H33 C5 0.931 . S
H34 C7 0.930 . S
H35 C8 0.930 . S
H36 C13 0.929 . S
H37 C14 0.931 . S
H38 C16 0.930 . S
H39 C17 0.930 . S
Tb40 C42 2.809 . S
Tb40 O60 2.484 . S
Tb40 O61 2.440 . S
Tb40 O62 2.658 1_655 S
Tb40 O63 2.409 1_655 S
Tb40 O64 2.378 . S
Tb40 O68 2.325 1_655 S
Tb40 O71 2.341 1_655 S
Tb41 C51 2.809 . S
Tb41 O62 2.325 . S
Tb41 O65 2.341 1_455 S
Tb41 O66 2.484 . S
Tb41 O67 2.440 . S
Tb41 O68 2.658 . S
Tb41 O69 2.409 . S
Tb41 O70 2.378 . S
C42 Tb40 2.809 . S
C42 C43 1.514 . S
C42 O60 1.248 . S
C42 O61 1.266 . S
C43 C42 1.514 . S
C43 C44 1.359 . S
C43 C48 1.348 . S
C44 C43 1.359 . S
C44 C45 1.380 . S
C44 H72 0.929 . S
C45 C44 1.380 . S
C45 C46 1.347 . S
C45 H73 0.931 . S
C46 C45 1.347 . S
C46 C47 1.369 . S
C47 C46 1.369 . S
C47 C48 1.408 . S
C47 H74 0.930 . S
C48 C43 1.348 . S
C48 C47 1.408 . S
C48 H75 0.930 . S
C49 O62 1.281 . S
C49 O63 1.254 . S
C50 O64 1.236 . S
C50 O65 1.266 . S
C51 Tb41 2.809 . S
C51 C52 1.514 . S
C51 O66 1.248 . S
C51 O67 1.266 . S
C52 C51 1.514 . S
C52 C53 1.359 . S
C52 C57 1.348 . S
C53 C52 1.359 . S
C53 C54 1.380 . S
C53 H76 0.929 . S
C54 C53 1.380 . S
C54 C55 1.347 . S
C54 H77 0.931 . S
C55 C54 1.347 . S
C55 C56 1.369 . S
C56 C55 1.369 . S
C56 C57 1.408 . S
C56 H78 0.930 . S
C57 C52 1.348 . S
C57 C56 1.408 . S
C57 H79 0.930 . S
C58 O68 1.281 . S
C58 O69 1.254 . S
C59 O70 1.236 . S
C59 O71 1.266 . S
O60 Tb40 2.484 . S
O60 C42 1.248 . S
O61 Tb40 2.440 . S
O61 C42 1.266 . S
O62 Tb40 2.658 1_455 S
O62 Tb41 2.325 . S
O62 C49 1.281 . S
O63 Tb40 2.409 1_455 S
O63 C49 1.254 . S
O64 Tb40 2.378 . S
O64 C50 1.236 . S
O65 Tb41 2.341 1_655 S
O65 C50 1.266 . S
O66 Tb41 2.484 . S
O66 C51 1.248 . S
O67 Tb41 2.440 . S
O67 C51 1.266 . S
O68 Tb40 2.325 1_455 S
O68 Tb41 2.658 . S
O68 C58 1.281 . S
O69 Tb41 2.409 . S
O69 C58 1.254 . S
O70 Tb41 2.378 . S
O70 C59 1.236 . S
O71 Tb40 2.341 1_455 S
O71 C59 1.266 . S
H72 C44 0.929 . S
H73 C45 0.931 . S
H74 C47 0.930 . S
H75 C48 0.930 . S
H76 C53 0.929 . S
H77 C54 0.931 . S
H78 C56 0.930 . S
H79 C57 0.930 . S
Tb80 C82 2.809 . S
Tb80 O100 2.484 . S
Tb80 O101 2.440 . S
Tb80 O102 2.658 . S
Tb80 O103 2.409 . S
Tb80 O104 2.378 . S
Tb80 O108 2.325 . S
Tb80 O111 2.341 . S
Tb81 C91 2.809 . S
Tb81 O102 2.325 . S
Tb81 O105 2.341 . S
Tb81 O106 2.484 . S
Tb81 O107 2.440 . S
Tb81 O108 2.658 . S
Tb81 O109 2.409 . S
Tb81 O110 2.378 . S
C82 Tb80 2.809 . S
C82 C83 1.514 . S
C82 O100 1.248 . S
C82 O101 1.266 . S
C83 C82 1.514 . S
C83 C84 1.359 . S
C83 C88 1.348 . S
C84 C83 1.359 . S
C84 C85 1.380 . S
C84 H112 0.929 . S
C85 C84 1.380 . S
C85 C86 1.347 . S
C85 H113 0.931 . S
C86 C85 1.347 . S
C86 C87 1.369 . S
C87 C86 1.369 . S
C87 C88 1.408 . S
C87 H114 0.930 . S
C88 C83 1.348 . S
C88 C87 1.408 . S
C88 H115 0.930 . S
C89 O102 1.281 . S
C89 O103 1.254 . S
C90 O104 1.236 . S
C90 O105 1.266 . S
C91 Tb81 2.809 . S
C91 C92 1.514 . S
C91 O106 1.248 . S
C91 O107 1.266 . S
C92 C91 1.514 . S
C92 C93 1.359 . S
C92 C97 1.348 . S
C93 C92 1.359 . S
C93 C94 1.380 . S
C93 H116 0.929 . S
C94 C93 1.380 . S
C94 C95 1.347 . S
C94 H117 0.931 . S
C95 C94 1.347 . S
C95 C96 1.369 . S
C96 C95 1.369 . S
C96 C97 1.408 . S
C96 H118 0.930 . S
C97 C92 1.348 . S
C97 C96 1.408 . S
C97 H119 0.930 . S
C98 O108 1.281 . S
C98 O109 1.254 . S
C99 O110 1.236 . S
C99 O111 1.266 . S
O100 Tb80 2.484 . S
O100 C82 1.248 . S
O101 Tb80 2.440 . S
O101 C82 1.266 . S
O102 Tb80 2.658 . S
O102 Tb81 2.325 . S
O102 C89 1.281 . S
O103 Tb80 2.409 . S
O103 C89 1.254 . S
O104 Tb80 2.378 . S
O104 C90 1.236 . S
O105 Tb81 2.341 . S
O105 C90 1.266 . S
O106 Tb81 2.484 . S
O106 C91 1.248 . S
O107 Tb81 2.440 . S
O107 C91 1.266 . S
O108 Tb80 2.325 . S
O108 Tb81 2.658 . S
O108 C98 1.281 . S
O109 Tb81 2.409 . S
O109 C98 1.254 . S
O110 Tb81 2.378 . S
O110 C99 1.236 . S
O111 Tb80 2.341 . S
O111 C99 1.266 . S
H112 C84 0.929 . S
H113 C85 0.931 . S
H114 C87 0.930 . S
H115 C88 0.930 . S
H116 C93 0.929 . S
H117 C94 0.931 . S
H118 C96 0.930 . S
H119 C97 0.930 . S
Tb120 C122 2.809 . S
Tb120 O140 2.484 . S
Tb120 O141 2.440 . S
Tb120 O142 2.658 1_455 S
Tb120 O143 2.409 . S
Tb120 O144 2.378 . S
Tb120 O148 2.325 . S
Tb120 O151 2.341 1_455 S
Tb121 C131 2.809 . S
Tb121 O142 2.325 . S
Tb121 O145 2.341 1_655 S
Tb121 O146 2.484 . S
Tb121 O147 2.440 . S
Tb121 O148 2.658 1_655 S
Tb121 O149 2.409 . S
Tb121 O150 2.378 . S
C122 Tb120 2.809 . S
C122 C123 1.514 . S
C122 O140 1.248 . S
C122 O141 1.266 . S
C123 C122 1.514 . S
C123 C124 1.359 . S
C123 C128 1.348 . S
C124 C123 1.359 . S
C124 C125 1.380 . S
C124 H152 0.929 . S
C125 C124 1.380 . S
C125 C126 1.347 . S
C125 H153 0.931 . S
C126 C125 1.347 . S
C126 C127 1.369 . S
C127 C126 1.369 . S
C127 C128 1.408 . S
C127 H154 0.930 . S
C128 C123 1.348 . S
C128 C127 1.408 . S
C128 H155 0.930 . S
C129 O142 1.281 1_455 S
C129 O143 1.254 . S
C130 O144 1.236 . S
C130 O145 1.266 . S
C131 Tb121 2.809 . S
C131 C132 1.514 . S
C131 O146 1.248 . S
C131 O147 1.266 . S
C132 C131 1.514 . S
C132 C133 1.359 . S
C132 C137 1.348 . S
C133 C132 1.359 . S
C133 C134 1.380 . S
C133 H156 0.929 . S
C134 C133 1.380 . S
C134 C135 1.347 . S
C134 H157 0.931 . S
C135 C134 1.347 . S
C135 C136 1.369 . S
C136 C135 1.369 . S
C136 C137 1.408 . S
C136 H158 0.930 . S
C137 C132 1.348 . S
C137 C136 1.408 . S
C137 H159 0.930 . S
C138 O148 1.281 . S
C138 O149 1.254 1_455 S
C139 O150 1.236 . S
C139 O151 1.266 . S
O140 Tb120 2.484 . S
O140 C122 1.248 . S
O141 Tb120 2.440 . S
O141 C122 1.266 . S
O142 Tb120 2.658 1_655 S
O142 Tb121 2.325 . S
O142 C129 1.281 1_655 S
O143 Tb120 2.409 . S
O143 C129 1.254 . S
O144 Tb120 2.378 . S
O144 C130 1.236 . S
O145 Tb121 2.341 1_455 S
O145 C130 1.266 . S
O146 Tb121 2.484 . S
O146 C131 1.248 . S
O147 Tb121 2.440 . S
O147 C131 1.266 . S
O148 Tb120 2.325 . S
O148 Tb121 2.658 1_455 S
O148 C138 1.281 . S
O149 Tb121 2.409 . S
O149 C138 1.254 1_655 S
O150 Tb121 2.378 . S
O150 C139 1.236 . S
O151 Tb120 2.341 1_655 S
O151 C139 1.266 . S
H152 C124 0.929 . S
H153 C125 0.931 . S
H154 C127 0.930 . S
H155 C128 0.930 . S
H156 C133 0.929 . S
H157 C134 0.931 . S
H158 C136 0.930 . S
H159 C137 0.930 . S
Tb160 C162 2.809 . S
Tb160 O180 2.484 . S
Tb160 O181 2.440 . S
Tb160 O182 2.658 . S
Tb160 O183 2.409 . S
Tb160 O184 2.378 . S
Tb160 O188 2.325 . S
Tb160 O191 2.341 . S
Tb161 C171 2.809 . S
Tb161 O182 2.325 . S
Tb161 O185 2.341 . S
Tb161 O186 2.484 . S
Tb161 O187 2.440 . S
Tb161 O188 2.658 . S
Tb161 O189 2.409 . S
Tb161 O190 2.378 . S
C162 Tb160 2.809 . S
C162 C163 1.514 . S
C162 O180 1.248 . S
C162 O181 1.266 . S
C163 C162 1.514 . S
C163 C164 1.359 . S
C163 C168 1.348 . S
C164 C163 1.359 . S
C164 C165 1.380 . S
C164 H192 0.929 . S
C165 C164 1.380 . S
C165 C166 1.347 . S
C165 H193 0.931 . S
C166 C165 1.347 . S
C166 C167 1.369 . S
C167 C166 1.369 . S
C167 C168 1.408 . S
C167 H194 0.930 . S
C168 C163 1.348 . S
C168 C167 1.408 . S
C168 H195 0.930 . S
C169 O182 1.281 . S
C169 O183 1.254 . S
C170 O184 1.236 . S
C170 O185 1.266 . S
C171 Tb161 2.809 . S
C171 C172 1.514 . S
C171 O186 1.248 . S
C171 O187 1.266 . S
C172 C171 1.514 . S
C172 C173 1.359 . S
C172 C177 1.348 . S
C173 C172 1.359 . S
C173 C174 1.380 . S
C173 H196 0.929 . S
C174 C173 1.380 . S
C174 C175 1.347 . S
C174 H197 0.931 . S
C175 C174 1.347 . S
C175 C176 1.369 . S
C176 C175 1.369 . S
C176 C177 1.408 . S
C176 H198 0.930 . S
C177 C172 1.348 . S
C177 C176 1.408 . S
C177 H199 0.930 . S
C178 O188 1.281 . S
C178 O189 1.254 . S
C179 O190 1.236 . S
C179 O191 1.266 . S
O180 Tb160 2.484 . S
O180 C162 1.248 . S
O181 Tb160 2.440 . S
O181 C162 1.266 . S
O182 Tb160 2.658 . S
O182 Tb161 2.325 . S
O182 C169 1.281 . S
O183 Tb160 2.409 . S
O183 C169 1.254 . S
O184 Tb160 2.378 . S
O184 C170 1.236 . S
O185 Tb161 2.341 . S
O185 C170 1.266 . S
O186 Tb161 2.484 . S
O186 C171 1.248 . S
O187 Tb161 2.440 . S
O187 C171 1.266 . S
O188 Tb160 2.325 . S
O188 Tb161 2.658 . S
O188 C178 1.281 . S
O189 Tb161 2.409 . S
O189 C178 1.254 . S
O190 Tb161 2.378 . S
O190 C179 1.236 . S
O191 Tb160 2.341 . S
O191 C179 1.266 . S
H192 C164 0.929 . S
H193 C165 0.931 . S
H194 C167 0.930 . S
H195 C168 0.930 . S
H196 C173 0.929 . S
H197 C174 0.931 . S
H198 C176 0.930 . S
H199 C177 0.930 . S
Tb200 C202 2.809 . S
Tb200 O220 2.484 . S
Tb200 O221 2.440 . S
Tb200 O222 2.658 1_565 S
Tb200 O223 2.409 1_565 S
Tb200 O224 2.378 . S
Tb200 O228 2.325 1_565 S
Tb200 O231 2.341 1_565 S
Tb201 C211 2.809 . S
Tb201 O222 2.325 . S
Tb201 O225 2.341 1_545 S
Tb201 O226 2.484 . S
Tb201 O227 2.440 . S
Tb201 O228 2.658 . S
Tb201 O229 2.409 . S
Tb201 O230 2.378 . S
C202 Tb200 2.809 . S
C202 C203 1.514 . S
C202 O220 1.248 . S
C202 O221 1.266 . S
C203 C202 1.514 . S
C203 C204 1.359 . S
C203 C208 1.348 . S
C204 C203 1.359 . S
C204 C205 1.380 . S
C204 H232 0.929 . S
C205 C204 1.380 . S
C205 C206 1.347 . S
C205 H233 0.931 . S
C206 C205 1.347 . S
C206 C207 1.369 . S
C207 C206 1.369 . S
C207 C208 1.408 . S
C207 H234 0.930 . S
C208 C203 1.348 . S
C208 C207 1.408 . S
C208 H235 0.930 . S
C209 O222 1.281 . S
C209 O223 1.254 . S
C210 O224 1.236 . S
C210 O225 1.266 . S
C211 Tb201 2.809 . S
C211 C212 1.514 . S
C211 O226 1.248 . S
C211 O227 1.266 . S
C212 C211 1.514 . S
C212 C213 1.359 . S
C212 C217 1.348 . S
C213 C212 1.359 . S
C213 C214 1.380 . S
C213 H236 0.929 . S
C214 C213 1.380 . S
C214 C215 1.347 . S
C214 H237 0.931 . S
C215 C214 1.347 . S
C215 C216 1.369 . S
C216 C215 1.369 . S
C216 C217 1.408 . S
C216 H238 0.930 . S
C217 C212 1.348 . S
C217 C216 1.408 . S
C217 H239 0.930 . S
C218 O228 1.281 . S
C218 O229 1.254 . S
C219 O230 1.236 . S
C219 O231 1.266 . S
O220 Tb200 2.484 . S
O220 C202 1.248 . S
O221 Tb200 2.440 . S
O221 C202 1.266 . S
O222 Tb200 2.658 1_545 S
O222 Tb201 2.325 . S
O222 C209 1.281 . S
O223 Tb200 2.409 1_545 S
O223 C209 1.254 . S
O224 Tb200 2.378 . S
O224 C210 1.236 . S
O225 Tb201 2.341 1_565 S
O225 C210 1.266 . S
O226 Tb201 2.484 . S
O226 C211 1.248 . S
O227 Tb201 2.440 . S
O227 C211 1.266 . S
O228 Tb200 2.325 1_545 S
O228 Tb201 2.658 . S
O228 C218 1.281 . S
O229 Tb201 2.409 . S
O229 C218 1.254 . S
O230 Tb201 2.378 . S
O230 C219 1.236 . S
O231 Tb200 2.341 1_545 S
O231 C219 1.266 . S
H232 C204 0.929 . S
H233 C205 0.931 . S
H234 C207 0.930 . S
H235 C208 0.930 . S
H236 C213 0.929 . S
H237 C214 0.931 . S
H238 C216 0.930 . S
H239 C217 0.930 . S
Tb240 C242 2.809 . S
Tb240 O260 2.484 . S
Tb240 O261 2.440 . S
Tb240 O262 2.658 . S
Tb240 O263 2.409 . S
Tb240 O264 2.378 . S
Tb240 O268 2.325 . S
Tb240 O271 2.341 . S
Tb241 C251 2.809 . S
Tb241 O262 2.325 . S
Tb241 O265 2.341 . S
Tb241 O266 2.484 . S
Tb241 O267 2.440 . S
Tb241 O268 2.658 . S
Tb241 O269 2.409 . S
Tb241 O270 2.378 . S
C242 Tb240 2.809 . S
C242 C243 1.514 . S
C242 O260 1.248 . S
C242 O261 1.266 . S
C243 C242 1.514 . S
C243 C244 1.359 . S
C243 C248 1.348 . S
C244 C243 1.359 . S
C244 C245 1.380 . S
C244 H272 0.929 . S
C245 C244 1.380 . S
C245 C246 1.347 . S
C245 H273 0.931 . S
C246 C245 1.347 . S
C246 C247 1.369 . S
C247 C246 1.369 . S
C247 C248 1.408 . S
C247 H274 0.930 . S
C248 C243 1.348 . S
C248 C247 1.408 . S
C248 H275 0.930 . S
C249 O262 1.281 . S
C249 O263 1.254 . S
C250 O264 1.236 . S
C250 O265 1.266 . S
C251 Tb241 2.809 . S
C251 C252 1.514 . S
C251 O266 1.248 . S
C251 O267 1.266 . S
C252 C251 1.514 . S
C252 C253 1.359 1_455 S
C252 C257 1.348 1_455 S
C253 C252 1.359 1_655 S
C253 C254 1.380 . S
C253 H276 0.929 1_655 S
C254 C253 1.380 . S
C254 C255 1.347 . S
C254 H277 0.931 . S
C255 C254 1.347 . S
C255 C256 1.369 . S
C256 C255 1.369 . S
C256 C257 1.408 . S
C256 H278 0.930 . S
C257 C252 1.348 1_655 S
C257 C256 1.408 . S
C257 H279 0.930 1_655 S
C258 O268 1.281 . S
C258 O269 1.254 . S
C259 O270 1.236 . S
C259 O271 1.266 . S
O260 Tb240 2.484 . S
O260 C242 1.248 . S
O261 Tb240 2.440 . S
O261 C242 1.266 . S
O262 Tb240 2.658 . S
O262 Tb241 2.325 . S
O262 C249 1.281 . S
O263 Tb240 2.409 . S
O263 C249 1.254 . S
O264 Tb240 2.378 . S
O264 C250 1.236 . S
O265 Tb241 2.341 . S
O265 C250 1.266 . S
O266 Tb241 2.484 . S
O266 C251 1.248 . S
O267 Tb241 2.440 . S
O267 C251 1.266 . S
O268 Tb240 2.325 . S
O268 Tb241 2.658 . S
O268 C258 1.281 . S
O269 Tb241 2.409 . S
O269 C258 1.254 . S
O270 Tb241 2.378 . S
O270 C259 1.236 . S
O271 Tb240 2.341 . S
O271 C259 1.266 . S
H272 C244 0.929 . S
H273 C245 0.931 . S
H274 C247 0.930 . S
H275 C248 0.930 . S
H276 C253 0.929 1_455 S
H277 C254 0.931 . S
H278 C256 0.930 . S
H279 C257 0.930 1_455 S
Tb280 C282 2.809 . S
Tb280 O300 2.484 . S
Tb280 O301 2.440 . S
Tb280 O302 2.658 . S
Tb280 O303 2.409 . S
Tb280 O304 2.378 . S
Tb280 O308 2.325 . S
Tb280 O311 2.341 . S
Tb281 C291 2.809 . S
Tb281 O302 2.325 . S
Tb281 O305 2.341 . S
Tb281 O306 2.484 . S
Tb281 O307 2.440 . S
Tb281 O308 2.658 . S
Tb281 O309 2.409 . S
Tb281 O310 2.378 . S
C282 Tb280 2.809 . S
C282 C283 1.514 . S
C282 O300 1.248 . S
C282 O301 1.266 . S
C283 C282 1.514 . S
C283 C284 1.359 . S
C283 C288 1.348 . S
C284 C283 1.359 . S
C284 C285 1.380 . S
C284 H312 0.929 . S
C285 C284 1.380 . S
C285 C286 1.347 . S
C285 H313 0.931 . S
C286 C285 1.347 . S
C286 C287 1.369 . S
C287 C286 1.369 . S
C287 C288 1.408 . S
C287 H314 0.930 . S
C288 C283 1.348 . S
C288 C287 1.408 . S
C288 H315 0.930 . S
C289 O302 1.281 . S
C289 O303 1.254 . S
C290 O304 1.236 . S
C290 O305 1.266 . S
C291 Tb281 2.809 . S
C291 C292 1.514 . S
C291 O306 1.248 . S
C291 O307 1.266 . S
C292 C291 1.514 . S
C292 C293 1.359 . S
C292 C297 1.348 . S
C293 C292 1.359 . S
C293 C294 1.380 . S
C293 H316 0.929 . S
C294 C293 1.380 . S
C294 C295 1.347 . S
C294 H317 0.931 . S
C295 C294 1.347 . S
C295 C296 1.369 . S
C296 C295 1.369 . S
C296 C297 1.408 . S
C296 H318 0.930 . S
C297 C292 1.348 . S
C297 C296 1.408 . S
C297 H319 0.930 . S
C298 O308 1.281 . S
C298 O309 1.254 . S
C299 O310 1.236 . S
C299 O311 1.266 . S
O300 Tb280 2.484 . S
O300 C282 1.248 . S
O301 Tb280 2.440 . S
O301 C282 1.266 . S
O302 Tb280 2.658 . S
O302 Tb281 2.325 . S
O302 C289 1.281 . S
O303 Tb280 2.409 . S
O303 C289 1.254 . S
O304 Tb280 2.378 . S
O304 C290 1.236 . S
O305 Tb281 2.341 . S
O305 C290 1.266 . S
O306 Tb281 2.484 . S
O306 C291 1.248 . S
O307 Tb281 2.440 . S
O307 C291 1.266 . S
O308 Tb280 2.325 . S
O308 Tb281 2.658 . S
O308 C298 1.281 . S
O309 Tb281 2.409 . S
O309 C298 1.254 . S
O310 Tb281 2.378 . S
O310 C299 1.236 . S
O311 Tb280 2.341 . S
O311 C299 1.266 . S
H312 C284 0.929 . S
H313 C285 0.931 . S
H314 C287 0.930 . S
H315 C288 0.930 . S
H316 C293 0.929 . S
H317 C294 0.931 . S
H318 C296 0.930 . S
H319 C297 0.930 . S
Tb320 C322 2.809 . S
Tb320 O340 2.484 . S
Tb320 O341 2.440 . S
Tb320 O342 2.658 . S
Tb320 O343 2.409 . S
Tb320 O344 2.378 . S
Tb320 O348 2.325 . S
Tb320 O351 2.341 . S
Tb321 C331 2.809 . S
Tb321 O342 2.325 . S
Tb321 O345 2.341 . S
Tb321 O346 2.484 . S
Tb321 O347 2.440 . S
Tb321 O348 2.658 . S
Tb321 O349 2.409 . S
Tb321 O350 2.378 . S
C322 Tb320 2.809 . S
C322 C323 1.514 . S
C322 O340 1.248 . S
C322 O341 1.266 . S
C323 C322 1.514 . S
C323 C324 1.359 . S
C323 C328 1.348 . S
C324 C323 1.359 . S
C324 C325 1.380 . S
C324 H352 0.929 . S
C325 C324 1.380 . S
C325 C326 1.347 . S
C325 H353 0.931 . S
C326 C325 1.347 . S
C326 C327 1.369 . S
C327 C326 1.369 . S
C327 C328 1.408 . S
C327 H354 0.930 . S
C328 C323 1.348 . S
C328 C327 1.408 . S
C328 H355 0.930 . S
C329 O342 1.281 . S
C329 O343 1.254 . S
C330 O344 1.236 . S
C330 O345 1.266 . S
C331 Tb321 2.809 . S
C331 C332 1.514 1_565 S
C331 O346 1.248 . S
C331 O347 1.266 . S
C332 C331 1.514 1_545 S
C332 C333 1.359 . S
C332 C337 1.348 . S
C333 C332 1.359 . S
C333 C334 1.380 . S
C333 H356 0.929 . S
C334 C333 1.380 . S
C334 C335 1.347 . S
C334 H357 0.931 . S
C335 C334 1.347 . S
C335 C336 1.369 . S
C336 C335 1.369 . S
C336 C337 1.408 . S
C336 H358 0.930 . S
C337 C332 1.348 . S
C337 C336 1.408 . S
C337 H359 0.930 . S
C338 O348 1.281 . S
C338 O349 1.254 . S
C339 O350 1.236 . S
C339 O351 1.266 . S
O340 Tb320 2.484 . S
O340 C322 1.248 . S
O341 Tb320 2.440 . S
O341 C322 1.266 . S
O342 Tb320 2.658 . S
O342 Tb321 2.325 . S
O342 C329 1.281 . S
O343 Tb320 2.409 . S
O343 C329 1.254 . S
O344 Tb320 2.378 . S
O344 C330 1.236 . S
O345 Tb321 2.341 . S
O345 C330 1.266 . S
O346 Tb321 2.484 . S
O346 C331 1.248 . S
O347 Tb321 2.440 . S
O347 C331 1.266 . S
O348 Tb320 2.325 . S
O348 Tb321 2.658 . S
O348 C338 1.281 . S
O349 Tb321 2.409 . S
O349 C338 1.254 . S
O350 Tb321 2.378 . S
O350 C339 1.236 . S
O351 Tb320 2.341 . S
O351 C339 1.266 . S
H352 C324 0.929 . S
H353 C325 0.931 . S
H354 C327 0.930 . S
H355 C328 0.930 . S
H356 C333 0.929 . S
H357 C334 0.931 . S
H358 C336 0.930 . S
H359 C337 0.930 . S
Tb360 C362 2.809 . S
Tb360 O380 2.484 . S
Tb360 O381 2.440 . S
Tb360 O382 2.658 . S
Tb360 O383 2.409 . S
Tb360 O384 2.378 . S
Tb360 O388 2.325 . S
Tb360 O391 2.341 . S
Tb361 C371 2.809 . S
Tb361 O382 2.325 . S
Tb361 O385 2.341 . S
Tb361 O386 2.484 . S
Tb361 O387 2.440 . S
Tb361 O388 2.658 . S
Tb361 O389 2.409 . S
Tb361 O390 2.378 . S
C362 Tb360 2.809 . S
C362 C363 1.514 . S
C362 O380 1.248 . S
C362 O381 1.266 . S
C363 C362 1.514 . S
C363 C364 1.359 . S
C363 C368 1.348 . S
C364 C363 1.359 . S
C364 C365 1.380 . S
C364 H392 0.929 . S
C365 C364 1.380 . S
C365 C366 1.347 1_565 S
C365 H393 0.931 1_565 S
C366 C365 1.347 1_545 S
C366 C367 1.366 1_545 S
C367 C366 1.366 1_565 S
C367 C368 1.421 . S
C367 H394 0.922 1_565 S
C368 C363 1.348 . S
C368 C367 1.421 . S
C368 H395 0.930 . S
C369 O382 1.281 . S
C369 O383 1.254 . S
C370 O384 1.236 . S
C370 O385 1.266 . S
C371 Tb361 2.809 . S
C371 C372 1.514 . S
C371 O386 1.248 . S
C371 O387 1.266 . S
C372 C371 1.514 . S
C372 C373 1.359 . S
C372 C377 1.348 . S
C373 C372 1.359 . S
C373 C374 1.380 . S
C373 H396 0.929 . S
C374 C373 1.380 . S
C374 C375 1.347 . S
C374 H397 0.931 . S
C375 C374 1.347 . S
C375 C376 1.369 . S
C376 C375 1.369 . S
C376 C377 1.408 . S
C376 H398 0.930 . S
C377 C372 1.348 . S
C377 C376 1.408 . S
C377 H399 0.930 . S
C378 O388 1.281 . S
C378 O389 1.254 . S
C379 O390 1.236 . S
C379 O391 1.266 . S
O380 Tb360 2.484 . S
O380 C362 1.248 . S
O381 Tb360 2.440 . S
O381 C362 1.266 . S
O382 Tb360 2.658 . S
O382 Tb361 2.325 . S
O382 C369 1.281 . S
O383 Tb360 2.409 . S
O383 C369 1.254 . S
O384 Tb360 2.378 . S
O384 C370 1.236 . S
O385 Tb361 2.341 . S
O385 C370 1.266 . S
O386 Tb361 2.484 . S
O386 C371 1.248 . S
O387 Tb361 2.440 . S
O387 C371 1.266 . S
O388 Tb360 2.325 . S
O388 Tb361 2.658 . S
O388 C378 1.281 . S
O389 Tb361 2.409 . S
O389 C378 1.254 . S
O390 Tb361 2.378 . S
O390 C379 1.236 . S
O391 Tb360 2.341 . S
O391 C379 1.266 . S
H392 C364 0.929 . S
H393 C365 0.931 1_545 S
H394 C367 0.922 1_545 S
H395 C368 0.930 . S
H396 C373 0.929 . S
H397 C374 0.931 . S
H398 C376 0.930 . S
H399 C377 0.930 . S
Tb400 C402 2.809 . S
Tb400 O420 2.484 . S
Tb400 O421 2.440 . S
Tb400 O422 2.658 . S
Tb400 O423 2.409 . S
Tb400 O424 2.378 . S
Tb400 O428 2.325 . S
Tb400 O431 2.341 . S
Tb401 C411 2.809 . S
Tb401 O422 2.325 . S
Tb401 O425 2.341 . S
Tb401 O426 2.484 . S
Tb401 O427 2.440 . S
Tb401 O428 2.658 . S
Tb401 O429 2.409 . S
Tb401 O430 2.378 . S
C402 Tb400 2.809 . S
C402 C403 1.514 . S
C402 O420 1.248 . S
C402 O421 1.266 . S
C403 C402 1.514 . S
C403 C404 1.359 . S
C403 C408 1.348 . S
C404 C403 1.359 . S
C404 C405 1.380 . S
C404 H432 0.929 . S
C405 C404 1.380 . S
C405 C406 1.347 . S
C405 H433 0.931 . S
C406 C405 1.347 . S
C406 C407 1.369 . S
C407 C406 1.369 . S
C407 C408 1.408 . S
C407 H434 0.930 . S
C408 C403 1.348 . S
C408 C407 1.408 . S
C408 H435 0.930 . S
C409 O422 1.281 . S
C409 O423 1.254 . S
C410 O424 1.236 . S
C410 O425 1.266 . S
C411 Tb401 2.809 . S
C411 C412 1.514 . S
C411 O426 1.248 . S
C411 O427 1.266 . S
C412 C411 1.514 . S
C412 C413 1.359 . S
C412 C417 1.348 . S
C413 C412 1.359 . S
C413 C414 1.380 . S
C413 H436 0.929 . S
C414 C413 1.380 . S
C414 C415 1.347 . S
C414 H437 0.931 . S
C415 C414 1.347 . S
C415 C416 1.369 . S
C416 C415 1.369 . S
C416 C417 1.408 . S
C416 H438 0.930 . S
C417 C412 1.348 . S
C417 C416 1.408 . S
C417 H439 0.930 . S
C418 O428 1.281 . S
C418 O429 1.254 . S
C419 O430 1.236 . S
C419 O431 1.266 . S
O420 Tb400 2.484 . S
O420 C402 1.248 . S
O421 Tb400 2.440 . S
O421 C402 1.266 . S
O422 Tb400 2.658 . S
O422 Tb401 2.325 . S
O422 C409 1.281 . S
O423 Tb400 2.409 . S
O423 C409 1.254 . S
O424 Tb400 2.378 . S
O424 C410 1.236 . S
O425 Tb401 2.341 . S
O425 C410 1.266 . S
O426 Tb401 2.484 . S
O426 C411 1.248 . S
O427 Tb401 2.440 . S
O427 C411 1.266 . S
O428 Tb400 2.325 . S
O428 Tb401 2.658 . S
O428 C418 1.281 . S
O429 Tb401 2.409 . S
O429 C418 1.254 . S
O430 Tb401 2.378 . S
O430 C419 1.236 . S
O431 Tb400 2.341 . S
O431 C419 1.266 . S
H432 C404 0.929 . S
H433 C405 0.931 . S
H434 C407 0.930 . S
H435 C408 0.930 . S
H436 C413 0.929 . S
H437 C414 0.931 . S
H438 C416 0.930 . S
H439 C417 0.930 . S
Tb440 C442 2.809 . S
Tb440 O460 2.484 . S
Tb440 O461 2.440 . S
Tb440 O462 2.658 . S
Tb440 O463 2.409 . S
Tb440 O464 2.378 . S
Tb440 O468 2.325 . S
Tb440 O471 2.341 . S
Tb441 C451 2.809 . S
Tb441 O462 2.325 . S
Tb441 O465 2.341 . S
Tb441 O466 2.484 . S
Tb441 O467 2.440 . S
Tb441 O468 2.658 . S
Tb441 O469 2.409 . S
Tb441 O470 2.378 . S
C442 Tb440 2.809 . S
C442 C443 1.514 . S
C442 O460 1.248 . S
C442 O461 1.266 . S
C443 C442 1.514 . S
C443 C444 1.359 . S
C443 C448 1.348 . S
C444 C443 1.359 . S
C444 C445 1.380 . S
C444 H472 0.929 . S
C445 C444 1.380 . S
C445 C446 1.347 . S
C445 H473 0.931 . S
C446 C445 1.347 . S
C446 C447 1.369 . S
C447 C446 1.369 . S
C447 C448 1.408 . S
C447 H474 0.930 . S
C448 C443 1.348 . S
C448 C447 1.408 . S
C448 H475 0.930 . S
C449 O462 1.281 . S
C449 O463 1.254 . S
C450 O464 1.236 . S
C450 O465 1.266 . S
C451 Tb441 2.809 . S
C451 C452 1.514 . S
C451 O466 1.248 . S
C451 O467 1.266 . S
C452 C451 1.514 . S
C452 C453 1.359 . S
C452 C457 1.348 . S
C453 C452 1.359 . S
C453 C454 1.380 . S
C453 H476 0.929 . S
C454 C453 1.380 . S
C454 C455 1.347 . S
C454 H477 0.931 . S
C455 C454 1.347 . S
C455 C456 1.369 . S
C456 C455 1.369 . S
C456 C457 1.408 . S
C456 H478 0.930 . S
C457 C452 1.348 . S
C457 C456 1.408 . S
C457 H479 0.930 . S
C458 O468 1.281 . S
C458 O469 1.254 . S
C459 O470 1.236 . S
C459 O471 1.266 . S
O460 Tb440 2.484 . S
O460 C442 1.248 . S
O461 Tb440 2.440 . S
O461 C442 1.266 . S
O462 Tb440 2.658 . S
O462 Tb441 2.325 . S
O462 C449 1.281 . S
O463 Tb440 2.409 . S
O463 C449 1.254 . S
O464 Tb440 2.378 . S
O464 C450 1.236 . S
O465 Tb441 2.341 . S
O465 C450 1.266 . S
O466 Tb441 2.484 . S
O466 C451 1.248 . S
O467 Tb441 2.440 . S
O467 C451 1.266 . S
O468 Tb440 2.325 . S
O468 Tb441 2.658 . S
O468 C458 1.281 . S
O469 Tb441 2.409 . S
O469 C458 1.254 . S
O470 Tb441 2.378 . S
O470 C459 1.236 . S
O471 Tb440 2.341 . S
O471 C459 1.266 . S
H472 C444 0.929 . S
H473 C445 0.931 . S
H474 C447 0.930 . S
H475 C448 0.930 . S
H476 C453 0.929 . S
H477 C454 0.931 . S
H478 C456 0.930 . S
H479 C457 0.930 . S
Tb480 C482 2.809 . S
Tb480 O500 2.484 . S
Tb480 O501 2.440 . S
Tb480 O502 2.658 . S
Tb480 O503 2.409 . S
Tb480 O504 2.378 . S
Tb480 O508 2.325 . S
Tb480 O511 2.341 . S
Tb481 C491 2.809 . S
Tb481 O502 2.325 . S
Tb481 O505 2.341 . S
Tb481 O506 2.484 . S
Tb481 O507 2.440 . S
Tb481 O508 2.658 . S
Tb481 O509 2.409 . S
Tb481 O510 2.378 . S
C482 Tb480 2.809 . S
C482 C483 1.514 . S
C482 O500 1.248 . S
C482 O501 1.266 . S
C483 C482 1.514 . S
C483 C484 1.359 . S
C483 C488 1.348 . S
C484 C483 1.359 . S
C484 C485 1.380 . S
C484 H512 0.929 . S
C485 C484 1.380 . S
C485 C486 1.347 1_655 S
C485 H513 0.931 1_655 S
C486 C485 1.347 1_455 S
C486 C487 1.366 1_455 S
C487 C486 1.366 1_655 S
C487 C488 1.421 . S
C487 H514 0.922 1_655 S
C488 C483 1.348 . S
C488 C487 1.421 . S
C488 H515 0.930 . S
C489 O502 1.281 . S
C489 O503 1.254 . S
C490 O504 1.236 . S
C490 O505 1.266 . S
C491 Tb481 2.809 . S
C491 C492 1.514 . S
C491 O506 1.248 . S
C491 O507 1.266 . S
C492 C491 1.514 . S
C492 C493 1.359 . S
C492 C497 1.348 . S
C493 C492 1.359 . S
C493 C494 1.380 . S
C493 H516 0.929 . S
C494 C493 1.380 . S
C494 C495 1.347 . S
C494 H517 0.931 . S
C495 C494 1.347 . S
C495 C496 1.369 . S
C496 C495 1.369 . S
C496 C497 1.408 . S
C496 H518 0.930 . S
C497 C492 1.348 . S
C497 C496 1.408 . S
C497 H519 0.930 . S
C498 O508 1.281 . S
C498 O509 1.254 . S
C499 O510 1.236 . S
C499 O511 1.266 . S
O500 Tb480 2.484 . S
O500 C482 1.248 . S
O501 Tb480 2.440 . S
O501 C482 1.266 . S
O502 Tb480 2.658 . S
O502 Tb481 2.325 . S
O502 C489 1.281 . S
O503 Tb480 2.409 . S
O503 C489 1.254 . S
O504 Tb480 2.378 . S
O504 C490 1.236 . S
O505 Tb481 2.341 . S
O505 C490 1.266 . S
O506 Tb481 2.484 . S
O506 C491 1.248 . S
O507 Tb481 2.440 . S
O507 C491 1.266 . S
O508 Tb480 2.325 . S
O508 Tb481 2.658 . S
O508 C498 1.281 . S
O509 Tb481 2.409 . S
O509 C498 1.254 . S
O510 Tb481 2.378 . S
O510 C499 1.236 . S
O511 Tb480 2.341 . S
O511 C499 1.266 . S
H512 C484 0.929 . S
H513 C485 0.931 1_455 S
H514 C487 0.922 1_455 S
H515 C488 0.930 . S
H516 C493 0.929 . S
H517 C494 0.931 . S
H518 C496 0.930 . S
H519 C497 0.930 . S
Tb520 C522 2.809 . S
Tb520 O540 2.484 . S
Tb520 O541 2.440 . S
Tb520 O542 2.658 . S
Tb520 O543 2.409 . S
Tb520 O544 2.378 . S
Tb520 O548 2.325 . S
Tb520 O551 2.341 . S
Tb521 C531 2.809 . S
Tb521 O542 2.325 . S
Tb521 O545 2.341 . S
Tb521 O546 2.484 . S
Tb521 O547 2.440 . S
Tb521 O548 2.658 . S
Tb521 O549 2.409 . S
Tb521 O550 2.378 . S
C522 Tb520 2.809 . S
C522 C523 1.514 . S
C522 O540 1.248 . S
C522 O541 1.266 . S
C523 C522 1.514 . S
C523 C524 1.359 . S
C523 C528 1.348 . S
C524 C523 1.359 . S
C524 C525 1.380 . S
C524 H552 0.929 . S
C525 C524 1.380 . S
C525 C526 1.347 . S
C525 H553 0.931 . S
C526 C525 1.347 . S
C526 C527 1.369 . S
C527 C526 1.369 . S
C527 C528 1.408 . S
C527 H554 0.930 . S
C528 C523 1.348 . S
C528 C527 1.408 . S
C528 H555 0.930 . S
C529 O542 1.281 . S
C529 O543 1.254 . S
C530 O544 1.236 . S
C530 O545 1.266 . S
C531 Tb521 2.809 . S
C531 C532 1.514 . S
C531 O546 1.248 . S
C531 O547 1.266 . S
C532 C531 1.514 . S
C532 C533 1.359 . S
C532 C537 1.348 . S
C533 C532 1.359 . S
C533 C534 1.380 . S
C533 H556 0.929 . S
C534 C533 1.380 . S
C534 C535 1.347 . S
C534 H557 0.931 . S
C535 C534 1.347 . S
C535 C536 1.369 . S
C536 C535 1.369 . S
C536 C537 1.408 . S
C536 H558 0.930 . S
C537 C532 1.348 . S
C537 C536 1.408 . S
C537 H559 0.930 . S
C538 O548 1.281 . S
C538 O549 1.254 . S
C539 O550 1.236 . S
C539 O551 1.266 . S
O540 Tb520 2.484 . S
O540 C522 1.248 . S
O541 Tb520 2.440 . S
O541 C522 1.266 . S
O542 Tb520 2.658 . S
O542 Tb521 2.325 . S
O542 C529 1.281 . S
O543 Tb520 2.409 . S
O543 C529 1.254 . S
O544 Tb520 2.378 . S
O544 C530 1.236 . S
O545 Tb521 2.341 . S
O545 C530 1.266 . S
O546 Tb521 2.484 . S
O546 C531 1.248 . S
O547 Tb521 2.440 . S
O547 C531 1.266 . S
O548 Tb520 2.325 . S
O548 Tb521 2.658 . S
O548 C538 1.281 . S
O549 Tb521 2.409 . S
O549 C538 1.254 . S
O550 Tb521 2.378 . S
O550 C539 1.236 . S
O551 Tb520 2.341 . S
O551 C539 1.266 . S
H552 C524 0.929 . S
H553 C525 0.931 . S
H554 C527 0.930 . S
H555 C528 0.930 . S
H556 C533 0.929 . S
H557 C534 0.931 . S
H558 C536 0.930 . S
H559 C537 0.930 . S
Tb560 C562 2.809 . S
Tb560 O580 2.484 . S
Tb560 O581 2.440 . S
Tb560 O582 2.658 . S
Tb560 O583 2.409 . S
Tb560 O584 2.378 . S
Tb560 O588 2.325 . S
Tb560 O591 2.341 . S
Tb561 C571 2.809 . S
Tb561 O582 2.325 . S
Tb561 O585 2.341 . S
Tb561 O586 2.484 . S
Tb561 O587 2.440 . S
Tb561 O588 2.658 . S
Tb561 O589 2.409 . S
Tb561 O590 2.378 . S
C562 Tb560 2.809 . S
C562 C563 1.514 . S
C562 O580 1.248 . S
C562 O581 1.266 . S
C563 C562 1.514 . S
C563 C564 1.359 . S
C563 C568 1.348 . S
C564 C563 1.359 . S
C564 C565 1.380 . S
C564 H592 0.929 . S
C565 C564 1.380 . S
C565 C566 1.347 . S
C565 H593 0.931 . S
C566 C565 1.347 . S
C566 C567 1.369 . S
C567 C566 1.369 . S
C567 C568 1.408 . S
C567 H594 0.930 . S
C568 C563 1.348 . S
C568 C567 1.408 . S
C568 H595 0.930 . S
C569 O582 1.281 . S
C569 O583 1.254 . S
C570 O584 1.236 . S
C570 O585 1.266 . S
C571 Tb561 2.809 . S
C571 C572 1.514 . S
C571 O586 1.248 . S
C571 O587 1.266 . S
C572 C571 1.514 . S
C572 C573 1.359 . S
C572 C577 1.348 . S
C573 C572 1.359 . S
C573 C574 1.380 . S
C573 H596 0.929 . S
C574 C573 1.380 . S
C574 C575 1.347 . S
C574 H597 0.931 . S
C575 C574 1.347 . S
C575 C576 1.369 . S
C576 C575 1.369 . S
C576 C577 1.408 . S
C576 H598 0.930 . S
C577 C572 1.348 . S
C577 C576 1.408 . S
C577 H599 0.930 . S
C578 O588 1.281 . S
C578 O589 1.254 . S
C579 O590 1.236 . S
C579 O591 1.266 . S
O580 Tb560 2.484 . S
O580 C562 1.248 . S
O581 Tb560 2.440 . S
O581 C562 1.266 . S
O582 Tb560 2.658 . S
O582 Tb561 2.325 . S
O582 C569 1.281 . S
O583 Tb560 2.409 . S
O583 C569 1.254 . S
O584 Tb560 2.378 . S
O584 C570 1.236 . S
O585 Tb561 2.341 . S
O585 C570 1.266 . S
O586 Tb561 2.484 . S
O586 C571 1.248 . S
O587 Tb561 2.440 . S
O587 C571 1.266 . S
O588 Tb560 2.325 . S
O588 Tb561 2.658 . S
O588 C578 1.281 . S
O589 Tb561 2.409 . S
O589 C578 1.254 . S
O590 Tb561 2.378 . S
O590 C579 1.236 . S
O591 Tb560 2.341 . S
O591 C579 1.266 . S
H592 C564 0.929 . S
H593 C565 0.931 . S
H594 C567 0.930 . S
H595 C568 0.930 . S
H596 C573 0.929 . S
H597 C574 0.931 . S
H598 C576 0.930 . S
H599 C577 0.930 . S
Tb600 C602 2.809 . S
Tb600 O620 2.484 . S
Tb600 O621 2.440 . S
Tb600 O622 2.658 . S
Tb600 O623 2.409 . S
Tb600 O624 2.378 . S
Tb600 O628 2.325 . S
Tb600 O631 2.341 . S
Tb601 C611 2.809 . S
Tb601 O622 2.325 . S
Tb601 O625 2.341 . S
Tb601 O626 2.484 . S
Tb601 O627 2.440 . S
Tb601 O628 2.658 . S
Tb601 O629 2.409 . S
Tb601 O630 2.378 . S
C602 Tb600 2.809 . S
C602 C603 1.514 . S
C602 O620 1.248 . S
C602 O621 1.266 . S
C603 C602 1.514 . S
C603 C604 1.359 . S
C603 C608 1.348 . S
C604 C603 1.359 . S
C604 C605 1.380 . S
C604 H632 0.929 . S
C605 C604 1.380 . S
C605 C606 1.347 . S
C605 H633 0.931 . S
C606 C605 1.347 . S
C606 C607 1.369 . S
C607 C606 1.369 . S
C607 C608 1.408 . S
C607 H634 0.930 . S
C608 C603 1.348 . S
C608 C607 1.408 . S
C608 H635 0.930 . S
C609 O622 1.281 . S
C609 O623 1.254 . S
C610 O624 1.236 . S
C610 O625 1.266 . S
C611 Tb601 2.809 . S
C611 C612 1.514 . S
C611 O626 1.248 . S
C611 O627 1.266 . S
C612 C611 1.514 . S
C612 C613 1.359 1_545 S
C612 C617 1.348 1_545 S
C613 C612 1.359 1_565 S
C613 C614 1.380 . S
C613 H636 0.929 1_565 S
C614 C613 1.380 . S
C614 C615 1.347 . S
C614 H637 0.931 . S
C615 C614 1.347 . S
C615 C616 1.369 . S
C616 C615 1.369 . S
C616 C617 1.408 . S
C616 H638 0.930 . S
C617 C612 1.348 1_565 S
C617 C616 1.408 . S
C617 H639 0.930 1_565 S
C618 O628 1.281 . S
C618 O629 1.254 . S
C619 O630 1.236 . S
C619 O631 1.266 . S
O620 Tb600 2.484 . S
O620 C602 1.248 . S
O621 Tb600 2.440 . S
O621 C602 1.266 . S
O622 Tb600 2.658 . S
O622 Tb601 2.325 . S
O622 C609 1.281 . S
O623 Tb600 2.409 . S
O623 C609 1.254 . S
O624 Tb600 2.378 . S
O624 C610 1.236 . S
O625 Tb601 2.341 . S
O625 C610 1.266 . S
O626 Tb601 2.484 . S
O626 C611 1.248 . S
O627 Tb601 2.440 . S
O627 C611 1.266 . S
O628 Tb600 2.325 . S
O628 Tb601 2.658 . S
O628 C618 1.281 . S
O629 Tb601 2.409 . S
O629 C618 1.254 . S
O630 Tb601 2.378 . S
O630 C619 1.236 . S
O631 Tb600 2.341 . S
O631 C619 1.266 . S
H632 C604 0.929 . S
H633 C605 0.931 . S
H634 C607 0.930 . S
H635 C608 0.930 . S
H636 C613 0.929 1_545 S
H637 C614 0.931 . S
H638 C616 0.930 . S
H639 C617 0.930 1_545 S
Tb640 C642 2.809 . S
Tb640 O660 2.484 . S
Tb640 O661 2.440 . S
Tb640 O662 2.658 . S
Tb640 O663 2.409 . S
Tb640 O664 2.378 . S
Tb640 O668 2.325 . S
Tb640 O671 2.341 . S
Tb641 C651 2.809 . S
Tb641 O662 2.325 . S
Tb641 O665 2.341 . S
Tb641 O666 2.484 . S
Tb641 O667 2.440 . S
Tb641 O668 2.658 . S
Tb641 O669 2.409 . S
Tb641 O670 2.378 . S
C642 Tb640 2.809 . S
C642 C643 1.514 . S
C642 O660 1.248 . S
C642 O661 1.266 . S
C643 C642 1.514 . S
C643 C644 1.359 . S
C643 C648 1.348 . S
C644 C643 1.359 . S
C644 C645 1.380 . S
C644 H672 0.929 . S
C645 C644 1.380 . S
C645 C646 1.347 . S
C645 H673 0.931 . S
C646 C645 1.347 . S
C646 C647 1.369 . S
C647 C646 1.369 . S
C647 C648 1.408 . S
C647 H674 0.930 . S
C648 C643 1.348 . S
C648 C647 1.408 . S
C648 H675 0.930 . S
C649 O662 1.281 . S
C649 O663 1.254 . S
C650 O664 1.236 . S
C650 O665 1.266 . S
C651 Tb641 2.809 . S
C651 C652 1.514 1_655 S
C651 O666 1.248 . S
C651 O667 1.266 . S
C652 C651 1.514 1_455 S
C652 C653 1.359 . S
C652 C657 1.348 . S
C653 C652 1.359 . S
C653 C654 1.380 . S
C653 H676 0.929 . S
C654 C653 1.380 . S
C654 C655 1.347 . S
C654 H677 0.931 . S
C655 C654 1.347 . S
C655 C656 1.369 . S
C656 C655 1.369 . S
C656 C657 1.408 . S
C656 H678 0.930 . S
C657 C652 1.348 . S
C657 C656 1.408 . S
C657 H679 0.930 . S
C658 O668 1.281 . S
C658 O669 1.254 . S
C659 O670 1.236 . S
C659 O671 1.266 . S
O660 Tb640 2.484 . S
O660 C642 1.248 . S
O661 Tb640 2.440 . S
O661 C642 1.266 . S
O662 Tb640 2.658 . S
O662 Tb641 2.325 . S
O662 C649 1.281 . S
O663 Tb640 2.409 . S
O663 C649 1.254 . S
O664 Tb640 2.378 . S
O664 C650 1.236 . S
O665 Tb641 2.341 . S
O665 C650 1.266 . S
O666 Tb641 2.484 . S
O666 C651 1.248 . S
O667 Tb641 2.440 . S
O667 C651 1.266 . S
O668 Tb640 2.325 . S
O668 Tb641 2.658 . S
O668 C658 1.281 . S
O669 Tb641 2.409 . S
O669 C658 1.254 . S
O670 Tb641 2.378 . S
O670 C659 1.236 . S
O671 Tb640 2.341 . S
O671 C659 1.266 . S
H672 C644 0.929 . S
H673 C645 0.931 . S
H674 C647 0.930 . S
H675 C648 0.930 . S
H676 C653 0.929 . S
H677 C654 0.931 . S
H678 C656 0.930 . S
H679 C657 0.930 . S
Tb680 C682 2.809 . S
Tb680 O700 2.484 . S
Tb680 O701 2.440 . S
Tb680 O702 2.658 . S
Tb680 O703 2.409 . S
Tb680 O704 2.378 . S
Tb680 O708 2.325 . S
Tb680 O711 2.341 . S
Tb681 C691 2.809 . S
Tb681 O702 2.325 . S
Tb681 O705 2.341 . S
Tb681 O706 2.484 . S
Tb681 O707 2.440 . S
Tb681 O708 2.658 . S
Tb681 O709 2.409 . S
Tb681 O710 2.378 . S
C682 Tb680 2.809 . S
C682 C683 1.514 . S
C682 O700 1.248 . S
C682 O701 1.266 . S
C683 C682 1.514 . S
C683 C684 1.359 . S
C683 C688 1.348 . S
C684 C683 1.359 . S
C684 C685 1.380 . S
C684 H712 0.929 . S
C685 C684 1.380 . S
C685 C686 1.347 . S
C685 H713 0.931 . S
C686 C685 1.347 . S
C686 C687 1.369 . S
C687 C686 1.369 . S
C687 C688 1.408 . S
C687 H714 0.930 . S
C688 C683 1.348 . S
C688 C687 1.408 . S
C688 H715 0.930 . S
C689 O702 1.281 . S
C689 O703 1.254 . S
C690 O704 1.236 . S
C690 O705 1.266 . S
C691 Tb681 2.809 . S
C691 C692 1.514 . S
C691 O706 1.248 . S
C691 O707 1.266 . S
C692 C691 1.514 . S
C692 C693 1.359 . S
C692 C697 1.348 . S
C693 C692 1.359 . S
C693 C694 1.380 . S
C693 H716 0.929 . S
C694 C693 1.380 . S
C694 C695 1.347 . S
C694 H717 0.931 . S
C695 C694 1.347 . S
C695 C696 1.369 . S
C696 C695 1.369 . S
C696 C697 1.408 . S
C696 H718 0.930 . S
C697 C692 1.348 . S
C697 C696 1.408 . S
C697 H719 0.930 . S
C698 O708 1.281 . S
C698 O709 1.254 . S
C699 O710 1.236 . S
C699 O711 1.266 . S
O700 Tb680 2.484 . S
O700 C682 1.248 . S
O701 Tb680 2.440 . S
O701 C682 1.266 . S
O702 Tb680 2.658 . S
O702 Tb681 2.325 . S
O702 C689 1.281 . S
O703 Tb680 2.409 . S
O703 C689 1.254 . S
O704 Tb680 2.378 . S
O704 C690 1.236 . S
O705 Tb681 2.341 . S
O705 C690 1.266 . S
O706 Tb681 2.484 . S
O706 C691 1.248 . S
O707 Tb681 2.440 . S
O707 C691 1.266 . S
O708 Tb680 2.325 . S
O708 Tb681 2.658 . S
O708 C698 1.281 . S
O709 Tb681 2.409 . S
O709 C698 1.254 . S
O710 Tb681 2.378 . S
O710 C699 1.236 . S
O711 Tb680 2.341 . S
O711 C699 1.266 . S
H712 C684 0.929 . S
H713 C685 0.931 . S
H714 C687 0.930 . S
H715 C688 0.930 . S
H716 C693 0.929 . S
H717 C694 0.931 . S
H718 C696 0.930 . S
H719 C697 0.930 . S
H720 C726 0.930 . S
H721 C730 0.930 . S
H722 C735 0.929 . S
H723 C733 0.929 . S
H724 C728 0.929 . S
H725 C734 0.929 . S
C726 H720 0.930 . S
C726 C727 1.367 . S
C726 C734 1.378 . S
C727 C726 1.367 . S
C727 C735 1.433 . S
C728 H724 0.929 . S
C728 C730 1.378 . S
C728 C732 1.350 . S
C729 C732 1.463 . S
C729 C734 1.350 . S
C729 N737 1.427 . S
C730 H721 0.930 . S
C730 C728 1.378 . S
C730 C731 1.367 . S
C731 C730 1.367 . S
C731 C733 1.433 . S
C732 C728 1.350 . S
C732 C729 1.463 . S
C732 N736 1.427 . S
C733 H723 0.929 . S
C733 C731 1.433 . S
C733 N736 1.384 . S
C734 H725 0.929 . S
C734 C726 1.378 . S
C734 C729 1.350 . S
C735 H722 0.929 . S
C735 C727 1.433 . S
C735 N737 1.384 . S
N736 C732 1.427 . S
N736 C733 1.384 . S
N737 C729 1.427 . S
N737 C735 1.384 . S
H738 C744 0.930 . S
H739 C748 0.930 . S
H740 C753 0.929 . S
H741 C751 0.929 . S
H742 C746 0.929 . S
H743 C752 0.929 . S
C744 H738 0.930 . S
C744 C745 1.367 . S
C744 C752 1.378 . S
C745 C744 1.367 . S
C745 C753 1.433 . S
C746 H742 0.929 . S
C746 C748 1.378 . S
C746 C750 1.350 . S
C747 C750 1.463 . S
C747 C752 1.350 . S
C747 N755 1.427 . S
C748 H739 0.930 . S
C748 C746 1.378 . S
C748 C749 1.367 . S
C749 C748 1.367 . S
C749 C751 1.433 . S
C750 C746 1.350 . S
C750 C747 1.463 . S
C750 N754 1.427 . S
C751 H741 0.929 . S
C751 C749 1.433 . S
C751 N754 1.384 . S
C752 H743 0.929 . S
C752 C744 1.378 . S
C752 C747 1.350 . S
C753 H740 0.929 . S
C753 C745 1.433 . S
C753 N755 1.384 . S
N754 C750 1.427 . S
N754 C751 1.384 . S
N755 C747 1.427 . S
N755 C753 1.384 . S
H756 C762 0.930 . S
H757 C766 0.930 . S
H758 C771 0.929 . S
H759 C769 0.929 . S
H760 C764 0.929 . S
H761 C770 0.929 . S
C762 H756 0.930 . S
C762 C763 1.367 . S
C762 C770 1.378 . S
C763 C762 1.367 . S
C763 C771 1.433 . S
C764 H760 0.929 . S
C764 C766 1.378 . S
C764 C768 1.350 . S
C765 C768 1.463 . S
C765 C770 1.350 . S
C765 N773 1.427 . S
C766 H757 0.930 . S
C766 C764 1.378 . S
C766 C767 1.367 . S
C767 C766 1.367 . S
C767 C769 1.433 . S
C768 C764 1.350 . S
C768 C765 1.463 . S
C768 N772 1.427 . S
C769 H759 0.929 . S
C769 C767 1.433 . S
C769 N772 1.384 . S
C770 H761 0.929 . S
C770 C762 1.378 . S
C770 C765 1.350 . S
C771 H758 0.929 . S
C771 C763 1.433 . S
C771 N773 1.384 . S
N772 C768 1.427 . S
N772 C769 1.384 . S
N773 C765 1.427 . S
N773 C771 1.384 . S
H774 C780 0.930 . S
H775 C784 0.930 . S
H776 C789 0.929 . S
H777 C787 0.929 . S
H778 C782 0.929 . S
H779 C788 0.929 . S
C780 H774 0.930 . S
C780 C781 1.367 . S
C780 C788 1.378 . S
C781 C780 1.367 . S
C781 C789 1.433 . S
C782 H778 0.929 . S
C782 C784 1.378 . S
C782 C786 1.350 . S
C783 C786 1.463 . S
C783 C788 1.350 . S
C783 N791 1.427 . S
C784 H775 0.930 . S
C784 C782 1.378 . S
C784 C785 1.367 . S
C785 C784 1.367 . S
C785 C787 1.433 . S
C786 C782 1.350 . S
C786 C783 1.463 . S
C786 N790 1.427 . S
C787 H777 0.929 . S
C787 C785 1.433 . S
C787 N790 1.384 . S
C788 H779 0.929 . S
C788 C780 1.378 . S
C788 C783 1.350 . S
C789 H776 0.929 . S
C789 C781 1.433 . S
C789 N791 1.384 . S
N790 C786 1.427 . S
N790 C787 1.384 . S
N791 C783 1.427 . S
N791 C789 1.384 . S
H792 C798 0.930 . S
H793 C802 0.930 . S
H794 C807 0.929 . S
H795 C805 0.929 . S
H796 C800 0.929 . S
H797 C806 0.929 . S
C798 H792 0.930 . S
C798 C799 1.367 . S
C798 C806 1.378 . S
C799 C798 1.367 . S
C799 C807 1.433 . S
C800 H796 0.929 . S
C800 C802 1.378 . S
C800 C804 1.350 . S
C801 C804 1.463 . S
C801 C806 1.350 . S
C801 N809 1.427 . S
C802 H793 0.930 . S
C802 C800 1.378 . S
C802 C803 1.367 . S
C803 C802 1.367 . S
C803 C805 1.433 . S
C804 C800 1.350 . S
C804 C801 1.463 . S
C804 N808 1.427 . S
C805 H795 0.929 . S
C805 C803 1.433 . S
C805 N808 1.384 . S
C806 H797 0.929 . S
C806 C798 1.378 . S
C806 C801 1.350 . S
C807 H794 0.929 . S
C807 C799 1.433 . S
C807 N809 1.384 . S
N808 C804 1.427 . S
N808 C805 1.384 . S
N809 C801 1.427 . S
N809 C807 1.384 . S
H810 C816 0.930 . S
H811 C820 0.930 . S
H812 C825 0.929 . S
H813 C823 0.929 . S
H814 C818 0.929 . S
H815 C824 0.929 . S
C816 H810 0.930 . S
C816 C817 1.367 . S
C816 C824 1.378 . S
C817 C816 1.367 . S
C817 C825 1.433 . S
C818 H814 0.929 . S
C818 C820 1.378 . S
C818 C822 1.350 . S
C819 C822 1.463 . S
C819 C824 1.350 . S
C819 N827 1.427 . S
C820 H811 0.930 . S
C820 C818 1.378 . S
C820 C821 1.367 . S
C821 C820 1.367 . S
C821 C823 1.433 . S
C822 C818 1.350 . S
C822 C819 1.463 . S
C822 N826 1.427 . S
C823 H813 0.929 . S
C823 C821 1.433 . S
C823 N826 1.384 . S
C824 H815 0.929 . S
C824 C816 1.378 . S
C824 C819 1.350 . S
C825 H812 0.929 . S
C825 C817 1.433 . S
C825 N827 1.384 . S
N826 C822 1.427 . S
N826 C823 1.384 . S
N827 C819 1.427 . S
N827 C825 1.384 . S
H828 C834 0.930 . S
H829 C838 0.930 . S
H830 C843 0.929 . S
H831 C841 0.929 . S
H832 C836 0.929 . S
H833 C842 0.929 . S
C834 H828 0.930 . S
C834 C835 1.367 . S
C834 C842 1.378 . S
C835 C834 1.367 . S
C835 C843 1.433 . S
C836 H832 0.929 . S
C836 C838 1.378 . S
C836 C840 1.350 . S
C837 C840 1.463 . S
C837 C842 1.350 . S
C837 N845 1.427 . S
C838 H829 0.930 . S
C838 C836 1.378 . S
C838 C839 1.367 . S
C839 C838 1.367 . S
C839 C841 1.433 . S
C840 C836 1.350 . S
C840 C837 1.463 . S
C840 N844 1.427 . S
C841 H831 0.929 . S
C841 C839 1.433 . S
C841 N844 1.384 . S
C842 H833 0.929 . S
C842 C834 1.378 . S
C842 C837 1.350 . S
C843 H830 0.929 . S
C843 C835 1.433 . S
C843 N845 1.384 . S
N844 C840 1.427 . S
N844 C841 1.384 . S
N845 C837 1.427 . S
N845 C843 1.384 . S
H846 C852 0.930 . S
H847 C856 0.930 . S
H848 C861 0.929 . S
H849 C859 0.929 . S
H850 C854 0.929 . S
H851 C860 0.929 . S
C852 H846 0.930 . S
C852 C853 1.367 . S
C852 C860 1.378 . S
C853 C852 1.367 . S
C853 C861 1.433 . S
C854 H850 0.929 . S
C854 C856 1.378 . S
C854 C858 1.350 . S
C855 C858 1.463 1_545 S
C855 C860 1.350 . S
C855 N863 1.427 . S
C856 H847 0.930 . S
C856 C854 1.378 . S
C856 C857 1.367 . S
C857 C856 1.367 . S
C857 C859 1.433 . S
C858 C854 1.350 . S
C858 C855 1.463 1_565 S
C858 N862 1.427 . S
C859 H849 0.929 . S
C859 C857 1.433 . S
C859 N862 1.384 . S
C860 H851 0.929 . S
C860 C852 1.378 . S
C860 C855 1.350 . S
C861 H848 0.929 . S
C861 C853 1.433 . S
C861 N863 1.384 . S
N862 C858 1.427 . S
N862 C859 1.384 . S
N863 C855 1.427 . S
N863 C861 1.384 . S
H864 C870 0.930 . S
H865 C874 0.930 . S
H866 C879 0.929 . S
H867 C877 0.929 . S
H868 C872 0.929 . S
H869 C878 0.929 . S
C870 H864 0.930 . S
C870 C871 1.367 . S
C870 C878 1.378 . S
C871 C870 1.367 . S
C871 C879 1.433 . S
C872 H868 0.929 . S
C872 C874 1.378 . S
C872 C876 1.350 1_655 S
C873 C876 1.463 . S
C873 C878 1.350 . S
C873 N881 1.427 . S
C874 H865 0.930 . S
C874 C872 1.378 . S
C874 C875 1.367 . S
C875 C874 1.367 . S
C875 C877 1.433 . S
C876 C872 1.350 1_455 S
C876 C873 1.463 . S
C876 N880 1.427 1_455 S
C877 H867 0.929 . S
C877 C875 1.433 . S
C877 N880 1.384 . S
C878 H869 0.929 . S
C878 C870 1.378 . S
C878 C873 1.350 . S
C879 H866 0.929 . S
C879 C871 1.433 . S
C879 N881 1.384 . S
N880 C876 1.427 1_655 S
N880 C877 1.384 . S
N881 C873 1.427 . S
N881 C879 1.384 . S
H882 C888 0.930 . S
H883 C892 0.930 . S
H884 C897 0.929 . S
H885 C895 0.929 . S
H886 C890 0.929 . S
H887 C896 0.929 . S
C888 H882 0.930 . S
C888 C889 1.367 . S
C888 C896 1.378 . S
C889 C888 1.367 . S
C889 C897 1.433 . S
C890 H886 0.929 . S
C890 C892 1.378 . S
C890 C894 1.350 . S
C891 C894 1.463 . S
C891 C896 1.350 . S
C891 N899 1.427 . S
C892 H883 0.930 . S
C892 C890 1.378 . S
C892 C893 1.367 . S
C893 C892 1.367 . S
C893 C895 1.433 . S
C894 C890 1.350 . S
C894 C891 1.463 . S
C894 N898 1.427 . S
C895 H885 0.929 . S
C895 C893 1.433 . S
C895 N898 1.384 . S
C896 H887 0.929 . S
C896 C888 1.378 . S
C896 C891 1.350 . S
C897 H884 0.929 . S
C897 C889 1.433 . S
C897 N899 1.384 . S
N898 C894 1.427 . S
N898 C895 1.384 . S
N899 C891 1.427 . S
N899 C897 1.384 . S
H900 C906 0.930 . S
H901 C910 0.930 . S
H902 C915 0.929 . S
H903 C913 0.929 . S
H904 C908 0.929 . S
H905 C914 0.929 . S
C906 H900 0.930 . S
C906 C907 1.367 . S
C906 C914 1.378 . S
C907 C906 1.367 . S
C907 C915 1.433 . S
C908 H904 0.929 . S
C908 C910 1.378 . S
C908 C912 1.350 . S
C909 C912 1.463 . S
C909 C914 1.350 . S
C909 N917 1.427 . S
C910 H901 0.930 . S
C910 C908 1.378 . S
C910 C911 1.367 . S
C911 C910 1.367 . S
C911 C913 1.433 . S
C912 C908 1.350 . S
C912 C909 1.463 . S
C912 N916 1.427 . S
C913 H903 0.929 . S
C913 C911 1.433 . S
C913 N916 1.384 . S
C914 H905 0.929 . S
C914 C906 1.378 . S
C914 C909 1.350 . S
C915 H902 0.929 . S
C915 C907 1.433 . S
C915 N917 1.384 . S
N916 C912 1.427 . S
N916 C913 1.384 . S
N917 C909 1.427 . S
N917 C915 1.384 . S
H918 C924 0.930 . S
H919 C928 0.930 . S
H920 C933 0.929 . S
H921 C931 0.929 . S
H922 C926 0.929 . S
H923 C932 0.929 . S
C924 H918 0.930 . S
C924 C925 1.367 . S
C924 C932 1.378 . S
C925 C924 1.367 . S
C925 C933 1.433 . S
C926 H922 0.929 . S
C926 C928 1.378 . S
C926 C930 1.350 . S
C927 C930 1.463 . S
C927 C932 1.350 . S
C927 N935 1.427 . S
C928 H919 0.930 . S
C928 C926 1.378 . S
C928 C929 1.367 . S
C929 C928 1.367 . S
C929 C931 1.433 . S
C930 C926 1.350 . S
C930 C927 1.463 . S
C930 N934 1.427 . S
C931 H921 0.929 . S
C931 C929 1.433 . S
C931 N934 1.384 . S
C932 H923 0.929 . S
C932 C924 1.378 . S
C932 C927 1.350 . S
C933 H920 0.929 . S
C933 C925 1.433 . S
C933 N935 1.384 . S
N934 C930 1.427 . S
N934 C931 1.384 . S
N935 C927 1.427 . S
N935 C933 1.384 . S
H936 C942 0.930 . S
H937 C946 0.930 . S
H938 C951 0.929 . S
H939 C949 0.929 . S
H940 C944 0.929 . S
H941 C950 0.929 . S
C942 H936 0.930 . S
C942 C943 1.367 . S
C942 C950 1.378 . S
C943 C942 1.367 . S
C943 C951 1.433 . S
C944 H940 0.929 . S
C944 C946 1.378 . S
C944 C948 1.350 . S
C945 C948 1.463 . S
C945 C950 1.350 . S
C945 N953 1.427 . S
C946 H937 0.930 . S
C946 C944 1.378 . S
C946 C947 1.367 . S
C947 C946 1.367 . S
C947 C949 1.433 . S
C948 C944 1.350 . S
C948 C945 1.463 . S
C948 N952 1.427 . S
C949 H939 0.929 . S
C949 C947 1.433 . S
C949 N952 1.384 . S
C950 H941 0.929 . S
C950 C942 1.378 . S
C950 C945 1.350 . S
C951 H938 0.929 . S
C951 C943 1.433 . S
C951 N953 1.384 . S
N952 C948 1.427 . S
N952 C949 1.384 . S
N953 C945 1.427 . S
N953 C951 1.384 . S
H954 C960 0.930 . S
H955 C964 0.930 . S
H956 C969 0.929 . S
H957 C967 0.929 . S
H958 C962 0.929 . S
H959 C968 0.929 . S
C960 H954 0.930 . S
C960 C961 1.367 . S
C960 C968 1.378 . S
C961 C960 1.367 . S
C961 C969 1.433 . S
C962 H958 0.929 . S
C962 C964 1.378 . S
C962 C966 1.350 . S
C963 C966 1.463 . S
C963 C968 1.350 . S
C963 N971 1.427 . S
C964 H955 0.930 . S
C964 C962 1.378 . S
C964 C965 1.367 . S
C965 C964 1.367 . S
C965 C967 1.433 . S
C966 C962 1.350 . S
C966 C963 1.463 . S
C966 N970 1.427 . S
C967 H957 0.929 . S
C967 C965 1.433 . S
C967 N970 1.384 . S
C968 H959 0.929 . S
C968 C960 1.378 . S
C968 C963 1.350 . S
C969 H956 0.929 . S
C969 C961 1.433 . S
C969 N971 1.384 . S
N970 C966 1.427 . S
N970 C967 1.384 . S
N971 C963 1.427 . S
N971 C969 1.384 . S
H972 C978 0.930 . S
H973 C982 0.930 . S
H974 C987 0.929 . S
H975 C985 0.929 . S
H976 C980 0.929 . S
H977 C986 0.929 . S
C978 H972 0.930 . S
C978 C979 1.367 . S
C978 C986 1.378 . S
C979 C978 1.367 . S
C979 C987 1.433 . S
C980 H976 0.929 . S
C980 C982 1.378 . S
C980 C984 1.350 . S
C981 C984 1.463 . S
C981 C986 1.350 . S
C981 N989 1.427 . S
C982 H973 0.930 . S
C982 C980 1.378 . S
C982 C983 1.367 . S
C983 C982 1.367 . S
C983 C985 1.433 . S
C984 C980 1.350 . S
C984 C981 1.463 . S
C984 N988 1.427 . S
C985 H975 0.929 . S
C985 C983 1.433 . S
C985 N988 1.384 . S
C986 H977 0.929 . S
C986 C978 1.378 . S
C986 C981 1.350 . S
C987 H974 0.929 . S
C987 C979 1.433 . S
C987 N989 1.384 . S
N988 C984 1.427 . S
N988 C985 1.384 . S
N989 C981 1.427 . S
N989 C987 1.384 . S
H990 C996 0.930 . S
H991 C1000 0.930 . S
H992 C1005 0.929 . S
H993 C1003 0.929 . S
H994 C998 0.929 . S
H995 C1004 0.929 . S
C996 H990 0.930 . S
C996 C997 1.367 . S
C996 C1004 1.378 . S
C997 C996 1.367 . S
C997 C1005 1.433 . S
C998 H994 0.929 . S
C998 C1000 1.378 . S
C998 C1002 1.350 . S
C999 C1002 1.463 . S
C999 C1004 1.350 . S
C999 N1007 1.427 . S
C1000 H991 0.930 . S
C1000 C998 1.378 . S
C1000 C1001 1.367 . S
C1001 C1000 1.367 . S
C1001 C1003 1.433 . S
C1002 C998 1.350 . S
C1002 C999 1.463 . S
C1002 N1006 1.427 . S
C1003 H993 0.929 . S
C1003 C1001 1.433 . S
C1003 N1006 1.384 . S
C1004 H995 0.929 . S
C1004 C996 1.378 . S
C1004 C999 1.350 . S
C1005 H992 0.929 . S
C1005 C997 1.433 . S
C1005 N1007 1.384 . S
N1006 C1002 1.427 . S
N1006 C1003 1.384 . S
N1007 C999 1.427 . S
N1007 C1005 1.384 . S
H1008 C1014 0.930 . S
H1009 C1018 0.930 . S
H1010 C1023 0.929 . S
H1011 C1021 0.929 . S
H1012 C1016 0.929 . S
H1013 C1022 0.929 1_545 S
C1014 H1008 0.930 . S
C1014 C1015 1.367 . S
C1014 C1022 1.378 . S
C1015 C1014 1.367 . S
C1015 C1023 1.433 . S
C1016 H1012 0.929 . S
C1016 C1018 1.378 . S
C1016 C1020 1.350 . S
C1017 C1020 1.463 . S
C1017 C1022 1.350 1_545 S
C1017 N1025 1.427 1_545 S
C1018 H1009 0.930 . S
C1018 C1016 1.378 . S
C1018 C1019 1.367 . S
C1019 C1018 1.367 . S
C1019 C1021 1.433 . S
C1020 C1016 1.350 . S
C1020 C1017 1.463 . S
C1020 N1024 1.427 . S
C1021 H1011 0.929 . S
C1021 C1019 1.433 . S
C1021 N1024 1.384 . S
C1022 H1013 0.929 1_565 S
C1022 C1014 1.378 . S
C1022 C1017 1.350 1_565 S
C1023 H1010 0.929 . S
C1023 C1015 1.433 . S
C1023 N1025 1.384 . S
N1024 C1020 1.427 . S
N1024 C1021 1.384 . S
N1025 C1017 1.427 1_565 S
N1025 C1023 1.384 . S
H1026 C1032 0.930 . S
H1027 C1036 0.930 . S
H1028 C1041 0.929 . S
H1029 C1039 0.929 . S
H1030 C1034 0.929 . S
H1031 C1040 0.929 . S
C1032 H1026 0.930 . S
C1032 C1033 1.367 . S
C1032 C1040 1.378 . S
C1033 C1032 1.367 . S
C1033 C1041 1.433 . S
C1034 H1030 0.929 . S
C1034 C1036 1.378 . S
C1034 C1038 1.350 . S
C1035 C1038 1.463 1_455 S
C1035 C1040 1.350 . S
C1035 N1043 1.427 . S
C1036 H1027 0.930 . S
C1036 C1034 1.378 . S
C1036 C1037 1.367 . S
C1037 C1036 1.367 . S
C1037 C1039 1.433 . S
C1038 C1034 1.350 . S
C1038 C1035 1.463 1_655 S
C1038 N1042 1.427 . S
C1039 H1029 0.929 . S
C1039 C1037 1.433 . S
C1039 N1042 1.384 . S
C1040 H1031 0.929 . S
C1040 C1032 1.378 . S
C1040 C1035 1.350 . S
C1041 H1028 0.929 . S
C1041 C1033 1.433 . S
C1041 N1043 1.384 . S
N1042 C1038 1.427 . S
N1042 C1039 1.384 . S
N1043 C1035 1.427 . S
N1043 C1041 1.384 . S
H1044 C1050 0.930 . S
H1045 C1054 0.930 . S
H1046 C1059 0.929 . S
H1047 C1057 0.929 . S
H1048 C1052 0.929 . S
H1049 C1058 0.929 . S
C1050 H1044 0.930 . S
C1050 C1051 1.367 . S
C1050 C1058 1.378 . S
C1051 C1050 1.367 . S
C1051 C1059 1.433 1_545 S
C1052 H1048 0.929 . S
C1052 C1054 1.378 . S
C1052 C1056 1.350 1_565 S
C1053 C1056 1.463 1_554 S
C1053 C1058 1.350 . S
C1053 N1061 1.427 1_545 S
C1054 H1045 0.930 . S
C1054 C1052 1.378 . S
C1054 C1055 1.367 1_565 S
C1055 C1054 1.367 1_545 S
C1055 C1057 1.433 . S
C1056 C1052 1.350 1_545 S
C1056 C1053 1.463 1_556 S
C1056 N1060 1.427 . S
C1057 H1047 0.929 . S
C1057 C1055 1.433 . S
C1057 N1060 1.384 . S
C1058 H1049 0.929 . S
C1058 C1050 1.378 . S
C1058 C1053 1.350 . S
C1059 H1046 0.929 . S
C1059 C1051 1.433 1_565 S
C1059 N1061 1.384 . S
N1060 C1056 1.427 . S
N1060 C1057 1.384 . S
N1061 C1053 1.427 1_565 S
N1061 C1059 1.384 . S
H1062 C1068 0.930 . S
H1063 C1072 0.930 . S
H1064 C1077 0.929 . S
H1065 C1075 0.929 . S
H1066 C1070 0.929 . S
H1067 C1076 0.929 . S
C1068 H1062 0.930 . S
C1068 C1069 1.367 . S
C1068 C1076 1.378 . S
C1069 C1068 1.367 . S
C1069 C1077 1.433 . S
C1070 H1066 0.929 . S
C1070 C1072 1.378 . S
C1070 C1074 1.350 . S
C1071 C1074 1.463 1_556 S
C1071 C1076 1.350 . S
C1071 N1079 1.427 . S
C1072 H1063 0.930 . S
C1072 C1070 1.378 . S
C1072 C1073 1.367 . S
C1073 C1072 1.367 . S
C1073 C1075 1.433 . S
C1074 C1070 1.350 . S
C1074 C1071 1.463 1_554 S
C1074 N1078 1.427 . S
C1075 H1065 0.929 . S
C1075 C1073 1.433 . S
C1075 N1078 1.384 . S
C1076 H1067 0.929 . S
C1076 C1068 1.378 . S
C1076 C1071 1.350 . S
C1077 H1064 0.929 . S
C1077 C1069 1.433 . S
C1077 N1079 1.384 . S
N1078 C1074 1.427 . S
N1078 C1075 1.384 . S
N1079 C1071 1.427 . S
N1079 C1077 1.384 . S
H1080 C1086 0.930 . S
H1081 C1090 0.930 . S
H1082 C1095 0.929 . S
H1083 C1093 0.929 . S
H1084 C1088 0.929 . S
H1085 C1094 0.929 . S
C1086 H1080 0.930 . S
C1086 C1087 1.367 . S
C1086 C1094 1.378 . S
C1087 C1086 1.367 . S
C1087 C1095 1.433 . S
C1088 H1084 0.929 . S
C1088 C1090 1.378 . S
C1088 C1092 1.350 . S
C1089 C1092 1.463 1_556 S
C1089 C1094 1.350 . S
C1089 N1097 1.427 . S
C1090 H1081 0.930 . S
C1090 C1088 1.378 . S
C1090 C1091 1.367 . S
C1091 C1090 1.367 . S
C1091 C1093 1.433 . S
C1092 C1088 1.350 . S
C1092 C1089 1.463 1_554 S
C1092 N1096 1.427 . S
C1093 H1083 0.929 . S
C1093 C1091 1.433 . S
C1093 N1096 1.384 . S
C1094 H1085 0.929 . S
C1094 C1086 1.378 . S
C1094 C1089 1.350 . S
C1095 H1082 0.929 . S
C1095 C1087 1.433 . S
C1095 N1097 1.384 . S
N1096 C1092 1.427 . S
N1096 C1093 1.384 . S
N1097 C1089 1.427 . S
N1097 C1095 1.384 . S
H1098 C1104 0.930 . S
H1099 C1108 0.930 . S
H1100 C1113 0.929 . S
H1101 C1111 0.929 . S
H1102 C1106 0.929 . S
H1103 C1112 0.929 . S
C1104 H1098 0.930 . S
C1104 C1105 1.367 . S
C1104 C1112 1.378 . S
C1105 C1104 1.367 . S
C1105 C1113 1.433 . S
C1106 H1102 0.929 . S
C1106 C1108 1.378 . S
C1106 C1110 1.350 . S
C1107 C1110 1.463 . S
C1107 C1112 1.350 . S
C1107 N1115 1.427 . S
C1108 H1099 0.930 . S
C1108 C1106 1.378 . S
C1108 C1109 1.367 . S
C1109 C1108 1.367 . S
C1109 C1111 1.433 . S
C1110 C1106 1.350 . S
C1110 C1107 1.463 . S
C1110 N1114 1.427 . S
C1111 H1101 0.929 . S
C1111 C1109 1.433 . S
C1111 N1114 1.384 . S
C1112 H1103 0.929 . S
C1112 C1104 1.378 . S
C1112 C1107 1.350 . S
C1113 H1100 0.929 . S
C1113 C1105 1.433 . S
C1113 N1115 1.384 . S
N1114 C1110 1.427 . S
N1114 C1111 1.384 . S
N1115 C1107 1.427 . S
N1115 C1113 1.384 . S
H1116 C1122 0.930 . S
H1117 C1126 0.930 . S
H1118 C1131 0.929 . S
H1119 C1129 0.929 . S
H1120 C1124 0.929 . S
H1121 C1130 0.929 . S
C1122 H1116 0.930 . S
C1122 C1123 1.367 . S
C1122 C1130 1.378 . S
C1123 C1122 1.367 . S
C1123 C1131 1.433 . S
C1124 H1120 0.929 . S
C1124 C1126 1.378 . S
C1124 C1128 1.350 . S
C1125 C1128 1.463 . S
C1125 C1130 1.350 . S
C1125 N1133 1.427 . S
C1126 H1117 0.930 . S
C1126 C1124 1.378 . S
C1126 C1127 1.367 . S
C1127 C1126 1.367 . S
C1127 C1129 1.433 . S
C1128 C1124 1.350 . S
C1128 C1125 1.463 . S
C1128 N1132 1.427 . S
C1129 H1119 0.929 . S
C1129 C1127 1.433 . S
C1129 N1132 1.384 . S
C1130 H1121 0.929 . S
C1130 C1122 1.378 . S
C1130 C1125 1.350 . S
C1131 H1118 0.929 . S
C1131 C1123 1.433 . S
C1131 N1133 1.384 . S
N1132 C1128 1.427 . S
N1132 C1129 1.384 . S
N1133 C1125 1.427 . S
N1133 C1131 1.384 . S
H1134 C1140 0.930 . S
H1135 C1144 0.930 . S
H1136 C1149 0.929 . S
H1137 C1147 0.929 . S
H1138 C1142 0.929 . S
H1139 C1148 0.929 . S
C1140 H1134 0.930 . S
C1140 C1141 1.367 . S
C1140 C1148 1.378 . S
C1141 C1140 1.367 . S
C1141 C1149 1.433 . S
C1142 H1138 0.929 . S
C1142 C1144 1.378 . S
C1142 C1146 1.350 . S
C1143 C1146 1.463 . S
C1143 C1148 1.350 . S
C1143 N1151 1.427 . S
C1144 H1135 0.930 . S
C1144 C1142 1.378 . S
C1144 C1145 1.367 . S
C1145 C1144 1.367 . S
C1145 C1147 1.433 . S
C1146 C1142 1.350 . S
C1146 C1143 1.463 . S
C1146 N1150 1.427 . S
C1147 H1137 0.929 . S
C1147 C1145 1.433 . S
C1147 N1150 1.384 . S
C1148 H1139 0.929 . S
C1148 C1140 1.378 . S
C1148 C1143 1.350 . S
C1149 H1136 0.929 . S
C1149 C1141 1.433 . S
C1149 N1151 1.384 . S
N1150 C1146 1.427 . S
N1150 C1147 1.384 . S
N1151 C1143 1.427 . S
N1151 C1149 1.384 . S
H1152 C1158 0.930 . S
H1153 C1162 0.930 . S
H1154 C1167 0.929 . S
H1155 C1165 0.929 . S
H1156 C1160 0.929 . S
H1157 C1166 0.929 . S
C1158 H1152 0.930 . S
C1158 C1159 1.367 . S
C1158 C1166 1.378 . S
C1159 C1158 1.367 . S
C1159 C1167 1.433 . S
C1160 H1156 0.929 . S
C1160 C1162 1.378 . S
C1160 C1164 1.350 . S
C1161 C1164 1.463 . S
C1161 C1166 1.350 . S
C1161 N1169 1.427 . S
C1162 H1153 0.930 . S
C1162 C1160 1.378 . S
C1162 C1163 1.367 . S
C1163 C1162 1.367 . S
C1163 C1165 1.433 . S
C1164 C1160 1.350 . S
C1164 C1161 1.463 . S
C1164 N1168 1.427 . S
C1165 H1155 0.929 . S
C1165 C1163 1.433 . S
C1165 N1168 1.384 . S
C1166 H1157 0.929 . S
C1166 C1158 1.378 . S
C1166 C1161 1.350 . S
C1167 H1154 0.929 . S
C1167 C1159 1.433 . S
C1167 N1169 1.384 . S
N1168 C1164 1.427 . S
N1168 C1165 1.384 . S
N1169 C1161 1.427 . S
N1169 C1167 1.384 . S
H1170 C1176 0.930 . S
H1171 C1180 0.930 . S
H1172 C1185 0.929 . S
H1173 C1183 0.929 . S
H1174 C1178 0.929 . S
H1175 C1184 0.929 . S
C1176 H1170 0.930 . S
C1176 C1177 1.367 . S
C1176 C1184 1.378 . S
C1177 C1176 1.367 . S
C1177 C1185 1.433 . S
C1178 H1174 0.929 . S
C1178 C1180 1.378 . S
C1178 C1182 1.350 . S
C1179 C1182 1.463 . S
C1179 C1184 1.350 . S
C1179 N1187 1.427 . S
C1180 H1171 0.930 . S
C1180 C1178 1.378 . S
C1180 C1181 1.367 . S
C1181 C1180 1.367 . S
C1181 C1183 1.433 . S
C1182 C1178 1.350 . S
C1182 C1179 1.463 . S
C1182 N1186 1.427 . S
C1183 H1173 0.929 . S
C1183 C1181 1.433 . S
C1183 N1186 1.384 . S
C1184 H1175 0.929 . S
C1184 C1176 1.378 . S
C1184 C1179 1.350 . S
C1185 H1172 0.929 . S
C1185 C1177 1.433 . S
C1185 N1187 1.384 . S
N1186 C1182 1.427 . S
N1186 C1183 1.384 . S
N1187 C1179 1.427 . S
N1187 C1185 1.384 . S
H1188 C1194 0.930 . S
H1189 C1198 0.930 . S
H1190 C1203 0.929 . S
H1191 C1201 0.929 . S
H1192 C1196 0.929 . S
H1193 C1202 0.929 . S
C1194 H1188 0.930 . S
C1194 C1195 1.367 . S
C1194 C1202 1.378 . S
C1195 C1194 1.367 . S
C1195 C1203 1.433 . S
C1196 H1192 0.929 . S
C1196 C1198 1.378 . S
C1196 C1200 1.350 . S
C1197 C1200 1.463 . S
C1197 C1202 1.350 . S
C1197 N1205 1.427 . S
C1198 H1189 0.930 . S
C1198 C1196 1.378 . S
C1198 C1199 1.367 . S
C1199 C1198 1.367 . S
C1199 C1201 1.433 . S
C1200 C1196 1.350 . S
C1200 C1197 1.463 . S
C1200 N1204 1.427 . S
C1201 H1191 0.929 . S
C1201 C1199 1.433 . S
C1201 N1204 1.384 . S
C1202 H1193 0.929 . S
C1202 C1194 1.378 . S
C1202 C1197 1.350 . S
C1203 H1190 0.929 . S
C1203 C1195 1.433 . S
C1203 N1205 1.384 . S
N1204 C1200 1.427 . S
N1204 C1201 1.384 . S
N1205 C1197 1.427 . S
N1205 C1203 1.384 . S
H1206 C1212 0.930 . S
H1207 C1216 0.930 1_545 S
H1208 C1221 0.929 . S
H1209 C1219 0.929 . S
H1210 C1214 0.929 . S
H1211 C1220 0.929 . S
C1212 H1206 0.930 . S
C1212 C1213 1.367 . S
C1212 C1220 1.378 . S
C1213 C1212 1.367 . S
C1213 C1221 1.433 . S
C1214 H1210 0.929 . S
C1214 C1216 1.378 . S
C1214 C1218 1.350 . S
C1215 C1218 1.463 . S
C1215 C1220 1.350 . S
C1215 N1223 1.427 . S
C1216 H1207 0.930 1_565 S
C1216 C1214 1.378 . S
C1216 C1217 1.367 . S
C1217 C1216 1.367 . S
C1217 C1219 1.433 . S
C1218 C1214 1.350 . S
C1218 C1215 1.463 . S
C1218 N1222 1.427 . S
C1219 H1209 0.929 . S
C1219 C1217 1.433 . S
C1219 N1222 1.384 . S
C1220 H1211 0.929 . S
C1220 C1212 1.378 . S
C1220 C1215 1.350 . S
C1221 H1208 0.929 . S
C1221 C1213 1.433 . S
C1221 N1223 1.384 . S
N1222 C1218 1.427 . S
N1222 C1219 1.384 . S
N1223 C1215 1.427 . S
N1223 C1221 1.384 . S
H1224 C1230 0.930 . S
H1225 C1234 0.930 . S
H1226 C1239 0.929 . S
H1227 C1237 0.929 . S
H1228 C1232 0.929 . S
H1229 C1238 0.929 . S
C1230 H1224 0.930 . S
C1230 C1231 1.367 . S
C1230 C1238 1.378 . S
C1231 C1230 1.367 . S
C1231 C1239 1.433 . S
C1232 H1228 0.929 . S
C1232 C1234 1.378 . S
C1232 C1236 1.350 . S
C1233 C1236 1.463 . S
C1233 C1238 1.350 . S
C1233 N1241 1.427 . S
C1234 H1225 0.930 . S
C1234 C1232 1.378 . S
C1234 C1235 1.367 . S
C1235 C1234 1.367 . S
C1235 C1237 1.433 . S
C1236 C1232 1.350 . S
C1236 C1233 1.463 . S
C1236 N1240 1.427 . S
C1237 H1227 0.929 . S
C1237 C1235 1.433 . S
C1237 N1240 1.384 . S
C1238 H1229 0.929 . S
C1238 C1230 1.378 . S
C1238 C1233 1.350 . S
C1239 H1226 0.929 . S
C1239 C1231 1.433 . S
C1239 N1241 1.384 . S
N1240 C1236 1.427 . S
N1240 C1237 1.384 . S
N1241 C1233 1.427 . S
N1241 C1239 1.384 . S
H1242 C1248 0.930 . S
H1243 C1252 0.930 . S
H1244 C1257 0.929 . S
H1245 C1255 0.929 . S
H1246 C1250 0.929 . S
H1247 C1256 0.929 . S
C1248 H1242 0.930 . S
C1248 C1249 1.367 . S
C1248 C1256 1.378 . S
C1249 C1248 1.367 . S
C1249 C1257 1.433 . S
C1250 H1246 0.929 . S
C1250 C1252 1.378 . S
C1250 C1254 1.350 . S
C1251 C1254 1.463 . S
C1251 C1256 1.350 . S
C1251 N1259 1.427 . S
C1252 H1243 0.930 . S
C1252 C1250 1.378 . S
C1252 C1253 1.367 . S
C1253 C1252 1.367 . S
C1253 C1255 1.433 . S
C1254 C1250 1.350 . S
C1254 C1251 1.463 . S
C1254 N1258 1.427 . S
C1255 H1245 0.929 . S
C1255 C1253 1.433 . S
C1255 N1258 1.384 . S
C1256 H1247 0.929 . S
C1256 C1248 1.378 . S
C1256 C1251 1.350 . S
C1257 H1244 0.929 . S
C1257 C1249 1.433 . S
C1257 N1259 1.384 . S
N1258 C1254 1.427 . S
N1258 C1255 1.384 . S
N1259 C1251 1.427 . S
N1259 C1257 1.384 . S
H1260 C1266 0.930 . S
H1261 C1270 0.930 . S
H1262 C1275 0.929 . S
H1263 C1273 0.929 . S
H1264 C1268 0.929 . S
H1265 C1274 0.929 . S
C1266 H1260 0.930 . S
C1266 C1267 1.367 . S
C1266 C1274 1.378 . S
C1267 C1266 1.367 . S
C1267 C1275 1.433 . S
C1268 H1264 0.929 . S
C1268 C1270 1.378 . S
C1268 C1272 1.350 . S
C1269 C1272 1.463 . S
C1269 C1274 1.350 . S
C1269 N1277 1.427 . S
C1270 H1261 0.930 . S
C1270 C1268 1.378 . S
C1270 C1271 1.367 . S
C1271 C1270 1.367 . S
C1271 C1273 1.433 . S
C1272 C1268 1.350 . S
C1272 C1269 1.463 . S
C1272 N1276 1.427 . S
C1273 H1263 0.929 . S
C1273 C1271 1.433 . S
C1273 N1276 1.384 . S
C1274 H1265 0.929 . S
C1274 C1266 1.378 . S
C1274 C1269 1.350 . S
C1275 H1262 0.929 . S
C1275 C1267 1.433 . S
C1275 N1277 1.384 . S
N1276 C1272 1.427 . S
N1276 C1273 1.384 . S
N1277 C1269 1.427 . S
N1277 C1275 1.384 . S
H1278 C1284 0.930 . S
H1279 C1288 0.930 . S
H1280 C1293 0.929 . S
H1281 C1291 0.929 . S
H1282 C1286 0.929 . S
H1283 C1292 0.929 . S
C1284 H1278 0.930 . S
C1284 C1285 1.367 . S
C1284 C1292 1.378 . S
C1285 C1284 1.367 . S
C1285 C1293 1.433 . S
C1286 H1282 0.929 . S
C1286 C1288 1.378 . S
C1286 C1290 1.350 . S
C1287 C1290 1.463 . S
C1287 C1292 1.350 . S
C1287 N1295 1.427 . S
C1288 H1279 0.930 . S
C1288 C1286 1.378 . S
C1288 C1289 1.367 . S
C1289 C1288 1.367 . S
C1289 C1291 1.433 . S
C1290 C1286 1.350 . S
C1290 C1287 1.463 . S
C1290 N1294 1.427 . S
C1291 H1281 0.929 . S
C1291 C1289 1.433 . S
C1291 N1294 1.384 . S
C1292 H1283 0.929 . S
C1292 C1284 1.378 . S
C1292 C1287 1.350 . S
C1293 H1280 0.929 . S
C1293 C1285 1.433 . S
C1293 N1295 1.384 . S
N1294 C1290 1.427 . S
N1294 C1291 1.384 . S
N1295 C1287 1.427 . S
N1295 C1293 1.384 . S
H1296 C1302 0.930 . S
H1297 C1306 0.930 . S
H1298 C1311 0.929 . S
H1299 C1309 0.929 . S
H1300 C1304 0.929 . S
H1301 C1310 0.929 . S
C1302 H1296 0.930 . S
C1302 C1303 1.367 . S
C1302 C1310 1.378 . S
C1303 C1302 1.367 . S
C1303 C1311 1.433 . S
C1304 H1300 0.929 . S
C1304 C1306 1.378 . S
C1304 C1308 1.350 . S
C1305 C1308 1.463 . S
C1305 C1310 1.350 . S
C1305 N1313 1.427 . S
C1306 H1297 0.930 . S
C1306 C1304 1.378 . S
C1306 C1307 1.367 . S
C1307 C1306 1.367 . S
C1307 C1309 1.433 . S
C1308 C1304 1.350 . S
C1308 C1305 1.463 . S
C1308 N1312 1.427 . S
C1309 H1299 0.929 . S
C1309 C1307 1.433 . S
C1309 N1312 1.384 . S
C1310 H1301 0.929 . S
C1310 C1302 1.378 . S
C1310 C1305 1.350 . S
C1311 H1298 0.929 . S
C1311 C1303 1.433 . S
C1311 N1313 1.384 . S
N1312 C1308 1.427 . S
N1312 C1309 1.384 . S
N1313 C1305 1.427 . S
N1313 C1311 1.384 . S
H1314 C1320 0.930 . S
H1315 C1324 0.930 . S
H1316 C1329 0.929 . S
H1317 C1327 0.929 . S
H1318 C1322 0.929 . S
H1319 C1328 0.929 . S
C1320 H1314 0.930 . S
C1320 C1321 1.367 . S
C1320 C1328 1.378 . S
C1321 C1320 1.367 . S
C1321 C1329 1.433 . S
C1322 H1318 0.929 . S
C1322 C1324 1.378 . S
C1322 C1326 1.350 . S
C1323 C1326 1.463 1_655 S
C1323 C1328 1.350 . S
C1323 N1331 1.427 1_655 S
C1324 H1315 0.930 . S
C1324 C1322 1.378 . S
C1324 C1325 1.367 . S
C1325 C1324 1.367 . S
C1325 C1327 1.433 . S
C1326 C1322 1.350 . S
C1326 C1323 1.463 1_455 S
C1326 N1330 1.427 . S
C1327 H1317 0.929 . S
C1327 C1325 1.433 . S
C1327 N1330 1.384 . S
C1328 H1319 0.929 . S
C1328 C1320 1.378 . S
C1328 C1323 1.350 . S
C1329 H1316 0.929 . S
C1329 C1321 1.433 . S
C1329 N1331 1.384 1_655 S
N1330 C1326 1.427 . S
N1330 C1327 1.384 . S
N1331 C1323 1.427 1_455 S
N1331 C1329 1.384 1_455 S
H1332 C1338 0.930 . S
H1333 C1342 0.930 . S
H1334 C1347 0.929 . S
H1335 C1345 0.929 . S
H1336 C1340 0.929 . S
H1337 C1346 0.929 . S
C1338 H1332 0.930 . S
C1338 C1339 1.367 . S
C1338 C1346 1.378 . S
C1339 C1338 1.367 . S
C1339 C1347 1.433 . S
C1340 H1336 0.929 . S
C1340 C1342 1.378 . S
C1340 C1344 1.350 . S
C1341 C1344 1.463 . S
C1341 C1346 1.350 . S
C1341 N1349 1.427 . S
C1342 H1333 0.930 . S
C1342 C1340 1.378 . S
C1342 C1343 1.367 . S
C1343 C1342 1.367 . S
C1343 C1345 1.433 . S
C1344 C1340 1.350 . S
C1344 C1341 1.463 . S
C1344 N1348 1.427 . S
C1345 H1335 0.929 . S
C1345 C1343 1.433 . S
C1345 N1348 1.384 . S
C1346 H1337 0.929 . S
C1346 C1338 1.378 . S
C1346 C1341 1.350 . S
C1347 H1334 0.929 . S
C1347 C1339 1.433 . S
C1347 N1349 1.384 . S
N1348 C1344 1.427 . S
N1348 C1345 1.384 . S
N1349 C1341 1.427 . S
N1349 C1347 1.384 . S
H1350 C1356 0.930 . S
H1351 C1360 0.930 . S
H1352 C1365 0.929 . S
H1353 C1363 0.929 . S
H1354 C1358 0.929 . S
H1355 C1364 0.929 . S
C1356 H1350 0.930 . S
C1356 C1357 1.367 . S
C1356 C1364 1.377 1_565 S
C1357 C1356 1.367 . S
C1357 C1365 1.433 . S
C1358 H1354 0.929 . S
C1358 C1360 1.378 . S
C1358 C1362 1.350 . S
C1359 C1362 1.463 1_565 S
C1359 C1364 1.350 1_565 S
C1359 N1367 1.427 . S
C1360 H1351 0.930 . S
C1360 C1358 1.378 . S
C1360 C1361 1.367 . S
C1361 C1360 1.367 . S
C1361 C1363 1.433 . S
C1362 C1358 1.350 . S
C1362 C1359 1.463 1_545 S
C1362 N1366 1.427 . S
C1363 H1353 0.929 . S
C1363 C1361 1.433 . S
C1363 N1366 1.384 . S
C1364 H1355 0.929 . S
C1364 C1356 1.377 1_545 S
C1364 C1359 1.350 1_545 S
C1365 H1352 0.929 . S
C1365 C1357 1.433 . S
C1365 N1367 1.384 . S
N1366 C1362 1.427 . S
N1366 C1363 1.384 . S
N1367 C1359 1.427 . S
N1367 C1365 1.384 . S
H1368 C1374 0.930 . S
H1369 C1378 0.930 . S
H1370 C1383 0.929 . S
H1371 C1381 0.929 . S
H1372 C1376 0.929 . S
H1373 C1382 0.929 . S
C1374 H1368 0.930 . S
C1374 C1375 1.367 . S
C1374 C1382 1.378 . S
C1375 C1374 1.367 . S
C1375 C1383 1.433 . S
C1376 H1372 0.929 . S
C1376 C1378 1.378 . S
C1376 C1380 1.350 . S
C1377 C1380 1.463 . S
C1377 C1382 1.350 . S
C1377 N1385 1.427 . S
C1378 H1369 0.930 . S
C1378 C1376 1.378 . S
C1378 C1379 1.367 . S
C1379 C1378 1.367 . S
C1379 C1381 1.433 . S
C1380 C1376 1.350 . S
C1380 C1377 1.463 . S
C1380 N1384 1.427 . S
C1381 H1371 0.929 . S
C1381 C1379 1.433 . S
C1381 N1384 1.384 . S
C1382 H1373 0.929 . S
C1382 C1374 1.378 . S
C1382 C1377 1.350 . S
C1383 H1370 0.929 . S
C1383 C1375 1.433 . S
C1383 N1385 1.384 . S
N1384 C1380 1.427 . S
N1384 C1381 1.384 . S
N1385 C1377 1.427 . S
N1385 C1383 1.384 . S
H1386 C1392 0.930 . S
H1387 C1396 0.930 . S
H1388 C1401 0.929 . S
H1389 C1399 0.929 . S
H1390 C1394 0.929 . S
H1391 C1400 0.929 . S
C1392 H1386 0.930 . S
C1392 C1393 1.367 . S
C1392 C1400 1.378 . S
C1393 C1392 1.367 . S
C1393 C1401 1.433 . S
C1394 H1390 0.929 . S
C1394 C1396 1.378 . S
C1394 C1398 1.350 . S
C1395 C1398 1.463 . S
C1395 C1400 1.350 . S
C1395 N1403 1.427 . S
C1396 H1387 0.930 . S
C1396 C1394 1.378 . S
C1396 C1397 1.367 . S
C1397 C1396 1.367 . S
C1397 C1399 1.433 . S
C1398 C1394 1.350 . S
C1398 C1395 1.463 . S
C1398 N1402 1.427 . S
C1399 H1389 0.929 . S
C1399 C1397 1.433 . S
C1399 N1402 1.384 . S
C1400 H1391 0.929 . S
C1400 C1392 1.378 . S
C1400 C1395 1.350 . S
C1401 H1388 0.929 . S
C1401 C1393 1.433 . S
C1401 N1403 1.384 . S
N1402 C1398 1.427 . S
N1402 C1399 1.384 . S
N1403 C1395 1.427 . S
N1403 C1401 1.384 . S
H1404 C1410 0.930 . S
H1405 C1414 0.930 . S
H1406 C1419 0.929 . S
H1407 C1417 0.929 . S
H1408 C1412 0.929 . S
H1409 C1418 0.929 . S
C1410 H1404 0.930 . S
C1410 C1411 1.367 . S
C1410 C1418 1.378 . S
C1411 C1410 1.367 . S
C1411 C1419 1.433 . S
C1412 H1408 0.929 . S
C1412 C1414 1.378 . S
C1412 C1416 1.350 . S
C1413 C1416 1.463 . S
C1413 C1418 1.350 . S
C1413 N1421 1.427 . S
C1414 H1405 0.930 . S
C1414 C1412 1.378 . S
C1414 C1415 1.367 . S
C1415 C1414 1.367 . S
C1415 C1417 1.433 . S
C1416 C1412 1.350 . S
C1416 C1413 1.463 . S
C1416 N1420 1.427 . S
C1417 H1407 0.929 . S
C1417 C1415 1.433 . S
C1417 N1420 1.384 . S
C1418 H1409 0.929 . S
C1418 C1410 1.378 . S
C1418 C1413 1.350 . S
C1419 H1406 0.929 . S
C1419 C1411 1.433 . S
C1419 N1421 1.384 . S
N1420 C1416 1.427 . S
N1420 C1417 1.384 . S
N1421 C1413 1.427 . S
N1421 C1419 1.384 . S
H1422 C1428 0.930 . S
H1423 C1432 0.930 . S
H1424 C1437 0.929 . S
H1425 C1435 0.929 . S
H1426 C1430 0.929 . S
H1427 C1436 0.929 . S
C1428 H1422 0.930 . S
C1428 C1429 1.367 . S
C1428 C1436 1.378 . S
C1429 C1428 1.367 . S
C1429 C1437 1.433 . S
C1430 H1426 0.929 . S
C1430 C1432 1.378 . S
C1430 C1434 1.350 . S
C1431 C1434 1.463 . S
C1431 C1436 1.350 . S
C1431 N1439 1.427 . S
C1432 H1423 0.930 . S
C1432 C1430 1.378 . S
C1432 C1433 1.367 . S
C1433 C1432 1.367 . S
C1433 C1435 1.433 . S
C1434 C1430 1.350 . S
C1434 C1431 1.463 . S
C1434 N1438 1.427 . S
C1435 H1425 0.929 . S
C1435 C1433 1.433 . S
C1435 N1438 1.384 . S
C1436 H1427 0.929 . S
C1436 C1428 1.378 . S
C1436 C1431 1.350 . S
C1437 H1424 0.929 . S
C1437 C1429 1.433 . S
C1437 N1439 1.384 . S
N1438 C1434 1.427 . S
N1438 C1435 1.384 . S
N1439 C1431 1.427 . S
N1439 C1437 1.384 . S
H1440 C1446 0.930 . S
H1441 C1450 0.930 . S
H1442 C1455 0.929 . S
H1443 C1453 0.929 . S
H1444 C1448 0.929 . S
H1445 C1454 0.929 . S
C1446 H1440 0.930 . S
C1446 C1447 1.367 . S
C1446 C1454 1.378 . S
C1447 C1446 1.367 . S
C1447 C1455 1.433 . S
C1448 H1444 0.929 . S
C1448 C1450 1.378 . S
C1448 C1452 1.350 . S
C1449 C1452 1.463 . S
C1449 C1454 1.350 . S
C1449 N1457 1.427 . S
C1450 H1441 0.930 . S
C1450 C1448 1.378 . S
C1450 C1451 1.367 . S
C1451 C1450 1.367 . S
C1451 C1453 1.433 . S
C1452 C1448 1.350 . S
C1452 C1449 1.463 . S
C1452 N1456 1.427 . S
C1453 H1443 0.929 . S
C1453 C1451 1.433 . S
C1453 N1456 1.384 . S
C1454 H1445 0.929 . S
C1454 C1446 1.378 . S
C1454 C1449 1.350 . S
C1455 H1442 0.929 . S
C1455 C1447 1.433 . S
C1455 N1457 1.384 . S
N1456 C1452 1.427 . S
N1456 C1453 1.384 . S
N1457 C1449 1.427 . S
N1457 C1455 1.384 . S
H1458 C1464 0.930 . S
H1459 C1468 0.930 . S
H1460 C1473 0.929 . S
H1461 C1471 0.929 . S
H1462 C1466 0.929 . S
H1463 C1472 0.929 . S
C1464 H1458 0.930 . S
C1464 C1465 1.367 . S
C1464 C1472 1.378 . S
C1465 C1464 1.367 . S
C1465 C1473 1.433 . S
C1466 H1462 0.929 . S
C1466 C1468 1.378 . S
C1466 C1470 1.350 . S
C1467 C1470 1.463 . S
C1467 C1472 1.350 . S
C1467 N1475 1.427 . S
C1468 H1459 0.930 . S
C1468 C1466 1.378 . S
C1468 C1469 1.367 . S
C1469 C1468 1.367 . S
C1469 C1471 1.433 . S
C1470 C1466 1.350 . S
C1470 C1467 1.463 . S
C1470 N1474 1.427 . S
C1471 H1461 0.929 . S
C1471 C1469 1.433 . S
C1471 N1474 1.384 . S
C1472 H1463 0.929 . S
C1472 C1464 1.378 . S
C1472 C1467 1.350 . S
C1473 H1460 0.929 . S
C1473 C1465 1.433 . S
C1473 N1475 1.384 . S
N1474 C1470 1.427 . S
N1474 C1471 1.384 . S
N1475 C1467 1.427 . S
N1475 C1473 1.384 . S
H1476 C1482 0.930 . S
H1477 C1486 0.930 . S
H1478 C1491 0.929 . S
H1479 C1489 0.929 . S
H1480 C1484 0.929 . S
H1481 C1490 0.929 . S
C1482 H1476 0.930 . S
C1482 C1483 1.367 . S
C1482 C1490 1.378 . S
C1483 C1482 1.367 . S
C1483 C1491 1.433 . S
C1484 H1480 0.929 . S
C1484 C1486 1.378 . S
C1484 C1488 1.350 . S
C1485 C1488 1.463 . S
C1485 C1490 1.350 . S
C1485 N1493 1.427 . S
C1486 H1477 0.930 . S
C1486 C1484 1.378 . S
C1486 C1487 1.367 . S
C1487 C1486 1.367 . S
C1487 C1489 1.433 . S
C1488 C1484 1.350 . S
C1488 C1485 1.463 . S
C1488 N1492 1.427 . S
C1489 H1479 0.929 . S
C1489 C1487 1.433 . S
C1489 N1492 1.384 . S
C1490 H1481 0.929 . S
C1490 C1482 1.378 . S
C1490 C1485 1.350 . S
C1491 H1478 0.929 . S
C1491 C1483 1.433 . S
C1491 N1493 1.384 . S
N1492 C1488 1.427 . S
N1492 C1489 1.384 . S
N1493 C1485 1.427 . S
N1493 C1491 1.384 . S
H1494 C1500 0.930 . S
H1495 C1504 0.930 . S
H1496 C1509 0.929 . S
H1497 C1507 0.929 . S
H1498 C1502 0.929 . S
H1499 C1508 0.929 . S
C1500 H1494 0.930 . S
C1500 C1501 1.367 . S
C1500 C1508 1.378 . S
C1501 C1500 1.367 . S
C1501 C1509 1.433 . S
C1502 H1498 0.929 . S
C1502 C1504 1.378 . S
C1502 C1506 1.350 . S
C1503 C1506 1.463 . S
C1503 C1508 1.350 . S
C1503 N1511 1.427 . S
C1504 H1495 0.930 . S
C1504 C1502 1.378 . S
C1504 C1505 1.367 . S
C1505 C1504 1.367 . S
C1505 C1507 1.433 . S
C1506 C1502 1.350 . S
C1506 C1503 1.463 . S
C1506 N1510 1.427 . S
C1507 H1497 0.929 . S
C1507 C1505 1.433 . S
C1507 N1510 1.384 . S
C1508 H1499 0.929 . S
C1508 C1500 1.378 . S
C1508 C1503 1.350 . S
C1509 H1496 0.929 . S
C1509 C1501 1.433 . S
C1509 N1511 1.384 . S
N1510 C1506 1.427 . S
N1510 C1507 1.384 . S
N1511 C1503 1.427 . S
N1511 C1509 1.384 . S
H1512 C1518 0.930 . S
H1513 C1522 0.930 . S
H1514 C1527 0.929 . S
H1515 C1525 0.929 . S
H1516 C1520 0.929 . S
H1517 C1526 0.929 . S
C1518 H1512 0.930 . S
C1518 C1519 1.367 . S
C1518 C1526 1.378 . S
C1519 C1518 1.367 . S
C1519 C1527 1.433 . S
C1520 H1516 0.929 . S
C1520 C1522 1.378 . S
C1520 C1524 1.350 . S
C1521 C1524 1.463 . S
C1521 C1526 1.350 . S
C1521 N1529 1.427 . S
C1522 H1513 0.930 . S
C1522 C1520 1.378 . S
C1522 C1523 1.367 . S
C1523 C1522 1.367 . S
C1523 C1525 1.433 . S
C1524 C1520 1.350 . S
C1524 C1521 1.463 . S
C1524 N1528 1.427 . S
C1525 H1515 0.929 . S
C1525 C1523 1.433 . S
C1525 N1528 1.384 . S
C1526 H1517 0.929 . S
C1526 C1518 1.378 . S
C1526 C1521 1.350 . S
C1527 H1514 0.929 . S
C1527 C1519 1.433 . S
C1527 N1529 1.384 . S
N1528 C1524 1.427 . S
N1528 C1525 1.384 . S
N1529 C1521 1.427 . S
N1529 C1527 1.384 . S
H1530 C1536 0.930 . S
H1531 C1540 0.930 . S
H1532 C1545 0.929 . S
H1533 C1543 0.929 . S
H1534 C1538 0.929 . S
H1535 C1544 0.929 . S
C1536 H1530 0.930 . S
C1536 C1537 1.367 . S
C1536 C1544 1.378 . S
C1537 C1536 1.367 . S
C1537 C1545 1.433 . S
C1538 H1534 0.929 . S
C1538 C1540 1.378 . S
C1538 C1542 1.350 . S
C1539 C1542 1.463 . S
C1539 C1544 1.350 . S
C1539 N1547 1.427 . S
C1540 H1531 0.930 . S
C1540 C1538 1.378 . S
C1540 C1541 1.367 . S
C1541 C1540 1.367 . S
C1541 C1543 1.433 . S
C1542 C1538 1.350 . S
C1542 C1539 1.463 . S
C1542 N1546 1.427 . S
C1543 H1533 0.929 . S
C1543 C1541 1.433 . S
C1543 N1546 1.384 . S
C1544 H1535 0.929 . S
C1544 C1536 1.378 . S
C1544 C1539 1.350 . S
C1545 H1532 0.929 . S
C1545 C1537 1.433 . S
C1545 N1547 1.384 . S
N1546 C1542 1.427 . S
N1546 C1543 1.384 . S
N1547 C1539 1.427 . S
N1547 C1545 1.384 . S
H1548 C1554 0.930 . S
H1549 C1558 0.930 . S
H1550 C1563 0.929 . S
H1551 C1561 0.929 . S
H1552 C1556 0.929 . S
H1553 C1562 0.929 . S
C1554 H1548 0.930 . S
C1554 C1555 1.367 . S
C1554 C1562 1.378 1_565 S
C1555 C1554 1.367 . S
C1555 C1563 1.433 . S
C1556 H1552 0.929 . S
C1556 C1558 1.378 . S
C1556 C1560 1.350 . S
C1557 C1560 1.463 . S
C1557 C1562 1.350 . S
C1557 N1565 1.427 1_545 S
C1558 H1549 0.930 . S
C1558 C1556 1.378 . S
C1558 C1559 1.367 . S
C1559 C1558 1.367 . S
C1559 C1561 1.433 . S
C1560 C1556 1.350 . S
C1560 C1557 1.463 . S
C1560 N1564 1.427 . S
C1561 H1551 0.929 . S
C1561 C1559 1.433 . S
C1561 N1564 1.384 . S
C1562 H1553 0.929 . S
C1562 C1554 1.378 1_545 S
C1562 C1557 1.350 . S
C1563 H1550 0.929 . S
C1563 C1555 1.433 . S
C1563 N1565 1.384 . S
N1564 C1560 1.427 . S
N1564 C1561 1.384 . S
N1565 C1557 1.427 1_565 S
N1565 C1563 1.384 . S
H1566 C1572 0.930 . S
H1567 C1576 0.930 . S
H1568 C1581 0.929 . S
H1569 C1579 0.929 . S
H1570 C1574 0.916 1_655 S
H1571 C1580 0.929 . S
C1572 H1566 0.930 . S
C1572 C1573 1.367 . S
C1572 C1580 1.378 . S
C1573 C1572 1.367 . S
C1573 C1581 1.433 . S
C1574 H1570 0.916 1_455 S
C1574 C1576 1.378 . S
C1574 C1578 1.350 . S
C1575 C1578 1.463 1_655 S
C1575 C1580 1.350 . S
C1575 N1583 1.427 . S
C1576 H1567 0.930 . S
C1576 C1574 1.378 . S
C1576 C1577 1.367 . S
C1577 C1576 1.367 . S
C1577 C1579 1.433 . S
C1578 C1574 1.350 . S
C1578 C1575 1.463 1_455 S
C1578 N1582 1.427 . S
C1579 H1569 0.929 . S
C1579 C1577 1.433 . S
C1579 N1582 1.384 . S
C1580 H1571 0.929 . S
C1580 C1572 1.378 . S
C1580 C1575 1.350 . S
C1581 H1568 0.929 . S
C1581 C1573 1.433 . S
C1581 N1583 1.384 . S
N1582 C1578 1.427 . S
N1582 C1579 1.384 . S
N1583 C1575 1.427 . S
N1583 C1581 1.384 . S
H1584 C1590 0.930 . S
H1585 C1594 0.930 . S
H1586 C1599 0.929 . S
H1587 C1597 0.929 . S
H1588 C1592 0.929 . S
H1589 C1598 0.929 . S
C1590 H1584 0.930 . S
C1590 C1591 1.367 . S
C1590 C1598 1.378 . S
C1591 C1590 1.367 . S
C1591 C1599 1.433 . S
C1592 H1588 0.929 . S
C1592 C1594 1.378 . S
C1592 C1596 1.350 . S
C1593 C1596 1.463 . S
C1593 C1598 1.350 . S
C1593 N1601 1.427 . S
C1594 H1585 0.930 . S
C1594 C1592 1.378 . S
C1594 C1595 1.367 . S
C1595 C1594 1.367 . S
C1595 C1597 1.433 . S
C1596 C1592 1.350 . S
C1596 C1593 1.463 . S
C1596 N1600 1.427 . S
C1597 H1587 0.929 . S
C1597 C1595 1.433 . S
C1597 N1600 1.384 . S
C1598 H1589 0.929 . S
C1598 C1590 1.378 . S
C1598 C1593 1.350 . S
C1599 H1586 0.929 . S
C1599 C1591 1.433 . S
C1599 N1601 1.384 . S
N1600 C1596 1.427 . S
N1600 C1597 1.384 . S
N1601 C1593 1.427 . S
N1601 C1599 1.384 . S
H1602 C1608 0.930 . S
H1603 C1612 0.930 . S
H1604 C1617 0.929 . S
H1605 C1615 0.929 . S
H1606 C1610 0.929 1_545 S
H1607 C1616 0.929 . S
C1608 H1602 0.930 . S
C1608 C1609 1.367 . S
C1608 C1616 1.378 1_545 S
C1609 C1608 1.367 . S
C1609 C1617 1.433 . S
C1610 H1606 0.929 1_565 S
C1610 C1612 1.378 . S
C1610 C1614 1.350 . S
C1611 C1614 1.463 1_545 S
C1611 C1616 1.350 1_545 S
C1611 N1619 1.427 . S
C1612 H1603 0.930 . S
C1612 C1610 1.378 . S
C1612 C1613 1.367 . S
C1613 C1612 1.367 . S
C1613 C1615 1.433 . S
C1614 C1610 1.350 . S
C1614 C1611 1.463 1_565 S
C1614 N1618 1.427 . S
C1615 H1605 0.929 . S
C1615 C1613 1.433 . S
C1615 N1618 1.384 . S
C1616 H1607 0.929 . S
C1616 C1608 1.378 1_565 S
C1616 C1611 1.350 1_565 S
C1617 H1604 0.929 . S
C1617 C1609 1.433 . S
C1617 N1619 1.384 . S
N1618 C1614 1.427 . S
N1618 C1615 1.384 . S
N1619 C1611 1.427 . S
N1619 C1617 1.384 . S
H1620 C1626 0.930 . S
H1621 C1630 0.930 . S
H1622 C1635 0.929 . S
H1623 C1633 0.929 . S
H1624 C1628 0.929 . S
H1625 C1634 0.929 . S
C1626 H1620 0.930 . S
C1626 C1627 1.367 . S
C1626 C1634 1.378 . S
C1627 C1626 1.367 . S
C1627 C1635 1.433 . S
C1628 H1624 0.929 . S
C1628 C1630 1.378 1_455 S
C1628 C1632 1.350 . S
C1629 C1632 1.463 . S
C1629 C1634 1.350 . S
C1629 N1637 1.427 . S
C1630 H1621 0.930 . S
C1630 C1628 1.378 1_655 S
C1630 C1631 1.367 . S
C1631 C1630 1.367 . S
C1631 C1633 1.433 . S
C1632 C1628 1.350 . S
C1632 C1629 1.463 . S
C1632 N1636 1.427 . S
C1633 H1623 0.929 . S
C1633 C1631 1.433 . S
C1633 N1636 1.384 1_655 S
C1634 H1625 0.929 . S
C1634 C1626 1.378 . S
C1634 C1629 1.350 . S
C1635 H1622 0.929 . S
C1635 C1627 1.433 . S
C1635 N1637 1.384 . S
N1636 C1632 1.427 . S
N1636 C1633 1.384 1_455 S
N1637 C1629 1.427 . S
N1637 C1635 1.384 . S
H1638 C1644 0.930 . S
H1639 C1648 0.930 . S
H1640 C1653 0.929 . S
H1641 C1651 0.929 . S
H1642 C1646 0.929 . S
H1643 C1652 0.929 . S
C1644 H1638 0.930 . S
C1644 C1645 1.367 . S
C1644 C1652 1.378 . S
C1645 C1644 1.367 . S
C1645 C1653 1.433 . S
C1646 H1642 0.929 . S
C1646 C1648 1.378 . S
C1646 C1650 1.350 . S
C1647 C1650 1.463 . S
C1647 C1652 1.350 . S
C1647 N1655 1.427 . S
C1648 H1639 0.930 . S
C1648 C1646 1.378 . S
C1648 C1649 1.367 . S
C1649 C1648 1.367 . S
C1649 C1651 1.433 . S
C1650 C1646 1.350 . S
C1650 C1647 1.463 . S
C1650 N1654 1.427 . S
C1651 H1641 0.929 . S
C1651 C1649 1.433 . S
C1651 N1654 1.384 . S
C1652 H1643 0.929 . S
C1652 C1644 1.378 . S
C1652 C1647 1.350 . S
C1653 H1640 0.929 . S
C1653 C1645 1.433 . S
C1653 N1655 1.384 . S
N1654 C1650 1.427 . S
N1654 C1651 1.384 . S
N1655 C1647 1.427 . S
N1655 C1653 1.384 . S
H1656 C1662 0.930 . S
H1657 C1666 0.930 . S
H1658 C1671 0.929 . S
H1659 C1669 0.929 . S
H1660 C1664 0.929 . S
H1661 C1670 0.929 . S
C1662 H1656 0.930 . S
C1662 C1663 1.367 . S
C1662 C1670 1.378 . S
C1663 C1662 1.367 . S
C1663 C1671 1.433 . S
C1664 H1660 0.929 . S
C1664 C1666 1.378 . S
C1664 C1668 1.350 . S
C1665 C1668 1.463 . S
C1665 C1670 1.350 . S
C1665 N1673 1.427 . S
C1666 H1657 0.930 . S
C1666 C1664 1.378 . S
C1666 C1667 1.367 . S
C1667 C1666 1.367 . S
C1667 C1669 1.433 . S
C1668 C1664 1.350 . S
C1668 C1665 1.463 . S
C1668 N1672 1.427 . S
C1669 H1659 0.929 . S
C1669 C1667 1.433 . S
C1669 N1672 1.384 . S
C1670 H1661 0.929 . S
C1670 C1662 1.378 . S
C1670 C1665 1.350 . S
C1671 H1658 0.929 . S
C1671 C1663 1.433 . S
C1671 N1673 1.384 . S
N1672 C1668 1.427 . S
N1672 C1669 1.384 . S
N1673 C1665 1.427 . S
N1673 C1671 1.384 . S
H1674 C1680 0.930 . S
H1675 C1684 0.930 . S
H1676 C1689 0.929 . S
H1677 C1687 0.929 . S
H1678 C1682 0.929 . S
H1679 C1688 0.929 . S
C1680 H1674 0.930 . S
C1680 C1681 1.367 . S
C1680 C1688 1.378 . S
C1681 C1680 1.367 . S
C1681 C1689 1.433 . S
C1682 H1678 0.929 . S
C1682 C1684 1.378 . S
C1682 C1686 1.350 . S
C1683 C1686 1.463 . S
C1683 C1688 1.350 . S
C1683 N1691 1.427 . S
C1684 H1675 0.930 . S
C1684 C1682 1.378 . S
C1684 C1685 1.367 . S
C1685 C1684 1.367 . S
C1685 C1687 1.433 . S
C1686 C1682 1.350 . S
C1686 C1683 1.463 . S
C1686 N1690 1.427 . S
C1687 H1677 0.929 . S
C1687 C1685 1.433 . S
C1687 N1690 1.384 . S
C1688 H1679 0.929 . S
C1688 C1680 1.378 . S
C1688 C1683 1.350 . S
C1689 H1676 0.929 . S
C1689 C1681 1.433 . S
C1689 N1691 1.384 . S
N1690 C1686 1.427 . S
N1690 C1687 1.384 . S
N1691 C1683 1.427 . S
N1691 C1689 1.384 . S
C727 C19 1.223 . S
C731 C95 1.258 . S
C745 C15 1.262 . S
C749 C59 1.234 . S
C763 C55 1.263 . S
C767 C99 1.238 . S
C781 C139 1.226 . S
C785 C175 1.257 . S
C799 C215 1.257 . S
C803 C179 1.228 . S
C817 C219 1.238 . S
C821 C135 1.262 . S
C835 C335 1.257 . S
C839 C259 1.222 . S
C853 C255 1.263 . S
C857 C299 1.237 . S
C871 C339 1.232 . S
C875 C295 1.259 . S
C889 C415 1.259 . S
C893 C379 1.225 . S
C907 C419 1.237 . S
C911 C455 1.263 . S
C925 C375 1.256 . S
C929 C459 1.223 . S
C943 C499 1.225 . S
C947 C575 1.256 . S
C961 C495 1.257 . S
C965 C539 1.228 . S
C979 C535 1.260 . S
C983 C579 1.235 . S
C997 C655 1.259 . S
C1001 C619 1.232 . S
C1015 C695 1.257 . S
C1019 C659 1.222 . S
C1033 C615 1.260 . S
C1037 C699 1.235 . S
C1051 C18 1.699 . S
C1055 C218 1.691 . S
C1069 C138 1.684 . S
C1073 C58 1.700 . S
C1087 C178 1.692 . S
C1091 C98 1.699 . S
C1105 C258 1.685 . S
C1109 C458 1.693 . S
C1123 C298 1.694 . S
C1127 C378 1.685 . S
C1141 C418 1.684 . S
C1145 C338 1.699 . S
C1159 C498 1.699 . S
C1163 C698 1.691 . S
C1177 C618 1.697 . S
C1181 C538 1.683 . S
C1195 C658 1.695 . S
C1199 C578 1.684 . S
C1213 C409 2.304 . S
C1217 C9 2.305 1_565 S
C1231 C49 2.304 . S
C1235 C449 2.305 . S
C1249 C369 2.305 . S
C1253 C89 2.305 . S
C1267 C129 2.302 1_655 S
C1271 C569 2.301 . S
C1285 C169 2.305 . S
C1289 C489 2.305 . S
C1303 C529 2.302 . S
C1307 C209 2.304 . S
C1321 C649 2.305 . S
C1325 C249 2.304 . S
C1339 C289 2.305 . S
C1343 C689 2.305 . S
C1357 C329 2.302 . S
C1361 C609 2.301 . S
C1375 C86 1.801 . S
C1379 C10 1.816 . S
C1393 C6 1.805 . S
C1397 C50 1.821 . S
C1411 C90 1.815 . S
C1415 C46 1.796 . S
C1429 C166 1.805 . S
C1433 C130 1.821 . S
C1447 C206 1.796 . S
C1451 C170 1.815 . S
C1465 C210 1.819 . S
C1469 C126 1.796 . S
C1483 C326 1.799 . S
C1487 C250 1.815 . S
C1501 C290 1.817 . S
C1505 C246 1.795 . S
C1519 C286 1.795 . S
C1523 C330 1.815 . S
C1537 C370 1.819 . S
C1541 C406 1.796 1_655 S
C1555 C410 1.822 . S
C1559 C446 1.804 . S
C1573 C366 1.800 . S
C1577 C450 1.816 . S
C1591 C490 1.820 . S
C1595 C566 1.805 1_565 S
C1609 C530 1.822 . S
C1613 C486 1.805 . S
C1627 C526 1.799 . S
C1631 C570 1.815 . S
C1645 C610 1.815 . S
C1649 C646 1.798 . S
C1663 C650 1.815 . S
C1667 C686 1.797 . S
C1681 C606 1.801 . S
C1685 C690 1.822 . S
