# Generated by pormake.
# Topology wio, (6)-cn, num edge types: 1
# Building blocks:
#     Node 0, Type 0, BuildingBlock: PAMTUU_clean_sbu_0, # of connection points: 6
#     Node 1, Type 0, BuildingBlock: PAMTUU_clean_sbu_0, # of connection points: 6
#     Node 2, Type 0, BuildingBlock: PAMTUU_clean_sbu_0, # of connection points: 6
#     Node 3, Type 0, BuildingBlock: PAMTUU_clean_sbu_0, # of connection points: 6
#     Node 4, Type 0, BuildingBlock: PAMTUU_clean_sbu_0, # of connection points: 6
#     Node 5, Type 0, BuildingBlock: PAMTUU_clean_sbu_0, # of connection points: 6
#     Node 6, Type 0, BuildingBlock: PAMTUU_clean_sbu_0, # of connection points: 6
#     Node 7, Type 0, BuildingBlock: PAMTUU_clean_sbu_0, # of connection points: 6
#     Node 8, Type 0, BuildingBlock: PAMTUU_clean_sbu_0, # of connection points: 6
#     Node 9, Type 0, BuildingBlock: PAMTUU_clean_sbu_0, # of connection points: 6
#     Node 10, Type 0, BuildingBlock: PAMTUU_clean_sbu_0, # of connection points: 6
#     Node 11, Type 0, BuildingBlock: PAMTUU_clean_sbu_0, # of connection points: 6
#     Node 12, Type 0, BuildingBlock: PAMTUU_clean_sbu_0, # of connection points: 6
#     Node 13, Type 0, BuildingBlock: PAMTUU_clean_sbu_0, # of connection points: 6
#     Node 14, Type 0, BuildingBlock: PAMTUU_clean_sbu_0, # of connection points: 6
#     Node 15, Type 0, BuildingBlock: PAMTUU_clean_sbu_0, # of connection points: 6
#     Node 16, Type 0, BuildingBlock: PAMTUU_clean_sbu_0, # of connection points: 6
#     Node 17, Type 0, BuildingBlock: PAMTUU_clean_sbu_0, # of connection points: 6
#     Node 18, Type 0, BuildingBlock: PAMTUU_clean_sbu_0, # of connection points: 6
#     Node 19, Type 0, BuildingBlock: PAMTUU_clean_sbu_0, # of connection points: 6
#     Node 20, Type 0, BuildingBlock: PAMTUU_clean_sbu_0, # of connection points: 6
#     Node 21, Type 0, BuildingBlock: PAMTUU_clean_sbu_0, # of connection points: 6
#     Node 22, Type 0, BuildingBlock: PAMTUU_clean_sbu_0, # of connection points: 6
#     Node 23, Type 0, BuildingBlock: PAMTUU_clean_sbu_0, # of connection points: 6
#     Node 24, Type 0, BuildingBlock: PAMTUU_clean_sbu_0, # of connection points: 6
#     Node 25, Type 0, BuildingBlock: PAMTUU_clean_sbu_0, # of connection points: 6
#     Node 26, Type 0, BuildingBlock: PAMTUU_clean_sbu_0, # of connection points: 6
#     Node 27, Type 0, BuildingBlock: PAMTUU_clean_sbu_0, # of connection points: 6
#     Node 28, Type 0, BuildingBlock: PAMTUU_clean_sbu_0, # of connection points: 6
#     Node 29, Type 0, BuildingBlock: PAMTUU_clean_sbu_0, # of connection points: 6
#     Node 30, Type 0, BuildingBlock: PAMTUU_clean_sbu_0, # of connection points: 6
#     Node 31, Type 0, BuildingBlock: PAMTUU_clean_sbu_0, # of connection points: 6
#     Edge 32, Type (0, 0), None
#     Edge 33, Type (0, 0), None
#     Edge 34, Type (0, 0), None
#     Edge 35, Type (0, 0), None
#     Edge 36, Type (0, 0), None
#     Edge 37, Type (0, 0), None
#     Edge 38, Type (0, 0), None
#     Edge 39, Type (0, 0), None
#     Edge 40, Type (0, 0), None
#     Edge 41, Type (0, 0), None
#     Edge 42, Type (0, 0), None
#     Edge 43, Type (0, 0), None
#     Edge 44, Type (0, 0), None
#     Edge 45, Type (0, 0), None
#     Edge 46, Type (0, 0), None
#     Edge 47, Type (0, 0), None
#     Edge 48, Type (0, 0), None
#     Edge 49, Type (0, 0), None
#     Edge 50, Type (0, 0), None
#     Edge 51, Type (0, 0), None
#     Edge 52, Type (0, 0), None
#     Edge 53, Type (0, 0), None
#     Edge 54, Type (0, 0), None
#     Edge 55, Type (0, 0), None
#     Edge 56, Type (0, 0), None
#     Edge 57, Type (0, 0), None
#     Edge 58, Type (0, 0), None
#     Edge 59, Type (0, 0), None
#     Edge 60, Type (0, 0), None
#     Edge 61, Type (0, 0), None
#     Edge 62, Type (0, 0), None
#     Edge 63, Type (0, 0), None
#     Edge 64, Type (0, 0), None
#     Edge 65, Type (0, 0), None
#     Edge 66, Type (0, 0), None
#     Edge 67, Type (0, 0), None
#     Edge 68, Type (0, 0), None
#     Edge 69, Type (0, 0), None
#     Edge 70, Type (0, 0), None
#     Edge 71, Type (0, 0), None
#     Edge 72, Type (0, 0), None
#     Edge 73, Type (0, 0), None
#     Edge 74, Type (0, 0), None
#     Edge 75, Type (0, 0), None
#     Edge 76, Type (0, 0), None
#     Edge 77, Type (0, 0), None
#     Edge 78, Type (0, 0), None
#     Edge 79, Type (0, 0), None
#     Edge 80, Type (0, 0), None
#     Edge 81, Type (0, 0), None
#     Edge 82, Type (0, 0), None
#     Edge 83, Type (0, 0), None
#     Edge 84, Type (0, 0), None
#     Edge 85, Type (0, 0), None
#     Edge 86, Type (0, 0), None
#     Edge 87, Type (0, 0), None
#     Edge 88, Type (0, 0), None
#     Edge 89, Type (0, 0), None
#     Edge 90, Type (0, 0), None
#     Edge 91, Type (0, 0), None
#     Edge 92, Type (0, 0), None
#     Edge 93, Type (0, 0), None
#     Edge 94, Type (0, 0), None
#     Edge 95, Type (0, 0), None
#     Edge 96, Type (0, 0), None
#     Edge 97, Type (0, 0), None
#     Edge 98, Type (0, 0), None
#     Edge 99, Type (0, 0), None
#     Edge 100, Type (0, 0), None
#     Edge 101, Type (0, 0), None
#     Edge 102, Type (0, 0), None
#     Edge 103, Type (0, 0), None
#     Edge 104, Type (0, 0), None
#     Edge 105, Type (0, 0), None
#     Edge 106, Type (0, 0), None
#     Edge 107, Type (0, 0), None
#     Edge 108, Type (0, 0), None
#     Edge 109, Type (0, 0), None
#     Edge 110, Type (0, 0), None
#     Edge 111, Type (0, 0), None
#     Edge 112, Type (0, 0), None
#     Edge 113, Type (0, 0), None
#     Edge 114, Type (0, 0), None
#     Edge 115, Type (0, 0), None
#     Edge 116, Type (0, 0), None
#     Edge 117, Type (0, 0), None
#     Edge 118, Type (0, 0), None
#     Edge 119, Type (0, 0), None
#     Edge 120, Type (0, 0), None
#     Edge 121, Type (0, 0), None
#     Edge 122, Type (0, 0), None
#     Edge 123, Type (0, 0), None
#     Edge 124, Type (0, 0), None
#     Edge 125, Type (0, 0), None
#     Edge 126, Type (0, 0), None
#     Edge 127, Type (0, 0), None
# Relax obj value: 0.260
# Max RMSD: 0.275
# Mean RMSD: 0.275
data_MOF--net-wio--node1-PAMTUU_clean_sbu_0--edge1-none
_symmetry_space_group_name_H-M    P1
_symmetry_Int_Tables_number       1
_symmetry_cell_setting            triclinic
loop_
_symmetry_equiv_pos_as_xyz
'x, y, z'
_cell_length_a     34.782838
_cell_length_b     34.782548
_cell_length_c     27.336381
_cell_angle_alpha  90.0062
_cell_angle_beta   89.993941
_cell_angle_gamma 90.00228
loop_
_atom_site_label
_atom_site_type_symbol
_atom_site_fract_x
_atom_site_fract_y
_atom_site_fract_z
_atom_type_partial_charge
Tb0 Tb 0.08724 0.1173 0.34578 0.0
Tb1 Tb 0.18206 0.11679 0.35148 0.0
C2 C 0.13226 0.03769 0.34501 0.0
C3 C 0.99467 0.13018 0.40524 0.0
C4 C 0.95658 0.14138 0.49691 0.0
C5 C 0.97395 0.10593 0.48545 0.0
C6 C 0.99286 0.10045 0.44037 0.0
C7 C 0.97779 0.16568 0.41705 0.0
C8 C 0.9592 0.17124 0.46207 0.0
C9 C 1.01603 0.12554 0.35791 0.0
O10 O 0.10025 0.09208 0.41659 0.0
O11 O 0.1649 0.1051 0.42556 0.0
O12 O 0.16487 0.17488 0.37214 0.0
O13 O 0.1049 0.16044 0.39915 0.0
O14 O 0.2346 0.09016 0.33586 0.0
O15 O 0.23238 0.14175 0.37949 0.0
O16 O 0.17216 0.12991 0.27407 0.0
O17 O 0.10587 0.13393 0.26969 0.0
O18 O 0.10021 0.0562 0.33395 0.0
O19 O 0.16493 0.0558 0.35383 0.0
C20 C 0.13182 0.09343 0.44279 0.0
O21 O 0.03882 0.1538 0.34564 0.0
O22 O 0.0321 0.09228 0.34942 0.0
C23 C 0.13595 0.18156 0.40175 0.0
C24 C 0.28328 0.13445 0.32442 0.0
C25 C 0.32772 0.15059 0.2423 0.0
C26 C 0.29597 0.17383 0.25328 0.0
C27 C 0.27353 0.16552 0.29408 0.0
C28 C 0.31756 0.11438 0.31677 0.0
C29 C 0.33976 0.1224 0.27574 0.0
C30 C 0.25435 0.11763 0.35626 0.0
C31 C 0.14055 0.13687 0.24908 0.0
H32 H 0.97226 0.08209 0.51085 0.0
H33 H 1.00593 0.07278 0.43307 0.0
H34 H 0.97892 0.18933 0.39129 0.0
H35 H 0.94604 0.19893 0.46901 0.0
H36 H 0.28626 0.19574 0.22794 0.0
H37 H 0.2469 0.18113 0.29941 0.0
H38 H 0.32529 0.09031 0.33996 0.0
H39 H 0.36462 0.10458 0.26816 0.0
Tb40 Tb 0.16497 0.83726 0.5958 0.0
Tb41 Tb 0.16551 0.93209 0.60149 0.0
C42 C 0.2446 0.88228 0.59503 0.0
C43 C 0.15208 0.7447 0.65525 0.0
C44 C 0.14089 0.70659 0.74691 0.0
C45 C 0.17634 0.72396 0.73545 0.0
C46 C 0.18182 0.74288 0.69038 0.0
C47 C 0.11658 0.72781 0.66706 0.0
C48 C 0.11103 0.70921 0.71208 0.0
C49 C 0.15672 0.76605 0.60793 0.0
O50 O 0.19019 0.85028 0.66661 0.0
O51 O 0.1772 0.91495 0.67557 0.0
O52 O 0.10741 0.91492 0.62218 0.0
O53 O 0.12183 0.85493 0.64916 0.0
O54 O 0.19215 0.98462 0.58586 0.0
O55 O 0.14055 0.98242 0.62949 0.0
O56 O 0.15237 0.92217 0.52409 0.0
O57 O 0.14835 0.85588 0.51971 0.0
O58 O 0.22608 0.85022 0.58397 0.0
O59 O 0.22649 0.91495 0.60383 0.0
C60 C 0.18885 0.88186 0.6928 0.0
O61 O 0.12847 0.78884 0.59567 0.0
O62 O 0.18998 0.78212 0.59944 0.0
C63 C 0.10073 0.886 0.65177 0.0
C64 C 0.14787 0.0333 0.57439 0.0
C65 C 0.13172 0.07773 0.49228 0.0
C66 C 0.10848 0.04597 0.50325 0.0
C67 C 0.11679 0.02355 0.54405 0.0
C68 C 0.16794 0.06758 0.56674 0.0
C69 C 0.15991 0.08978 0.52571 0.0
C70 C 0.16468 1.00438 0.60625 0.0
C71 C 0.14541 0.89056 0.4991 0.0
H72 H 0.20018 0.72227 0.76085 0.0
H73 H 0.20948 0.75595 0.68308 0.0
H74 H 0.09294 0.72894 0.64131 0.0
H75 H 0.08333 0.69606 0.71902 0.0
H76 H 0.08657 0.03626 0.47792 0.0
H77 H 0.10118 0.99691 0.54939 0.0
H78 H 0.192 0.07532 0.58993 0.0
H79 H 0.17773 0.11464 0.51813 0.0
Tb80 Tb 0.44504 0.91498 0.84581 0.0
Tb81 Tb 0.3502 0.91552 0.8515 0.0
C82 C 0.40003 0.99461 0.84503 0.0
C83 C 0.53759 0.90207 0.90527 0.0
C84 C 0.57568 0.89086 0.99692 0.0
C85 C 0.5583 0.92631 0.9855 0.0
C86 C 0.53939 0.93179 0.94043 0.0
C87 C 0.5545 0.86657 0.91705 0.0
C88 C 0.57309 0.86101 0.96207 0.0
C89 C 0.51624 0.90671 0.85794 0.0
O90 O 0.43202 0.94021 0.91662 0.0
O91 O 0.36736 0.92721 0.92559 0.0
O92 O 0.36736 0.85742 0.87219 0.0
O93 O 0.42736 0.87184 0.89917 0.0
O94 O 0.29768 0.94217 0.83589 0.0
O95 O 0.29987 0.89057 0.8795 0.0
O96 O 0.36012 0.90238 0.7741 0.0
O97 O 0.42641 0.89836 0.76972 0.0
O98 O 0.43209 0.97608 0.83398 0.0
O99 O 0.36736 0.9765 0.85384 0.0
C100 C 0.40044 0.93886 0.94282 0.0
O101 O 0.49345 0.87846 0.84567 0.0
O102 O 0.50019 0.93998 0.84946 0.0
C103 C 0.39629 0.85073 0.90177 0.0
C104 C 0.24899 0.89791 0.82441 0.0
C105 C 0.20456 0.88177 0.74229 0.0
C106 C 0.2363 0.85851 0.75327 0.0
C107 C 0.25873 0.86682 0.79407 0.0
C108 C 0.21473 0.918 0.81676 0.0
C109 C 0.19253 0.90997 0.77572 0.0
C110 C 0.27792 0.91471 0.85627 0.0
C111 C 0.39173 0.89542 0.74911 0.0
H112 H 0.55998 0.95014 1.01091 0.0
H113 H 0.5263 0.95945 0.93315 0.0
H114 H 0.55338 0.84294 0.89128 0.0
H115 H 0.58626 0.83332 0.96899 0.0
H116 H 0.246 0.8366 0.72794 0.0
H117 H 0.28535 0.85119 0.79941 0.0
H118 H 0.207 0.94207 0.83994 0.0
H119 H 0.16768 0.92781 0.76814 0.0
Tb120 Tb 0.36731 0.19506 1.0958 0.0
Tb121 Tb 0.36677 0.10023 0.1015 0.0
C122 C 0.28768 0.15004 1.09502 0.0
C123 C 0.38021 0.28762 0.15525 0.0
C124 C 0.39142 0.3257 0.24692 0.0
C125 C 0.35597 0.3083 0.23549 0.0
C126 C 0.35049 0.2894 0.19041 0.0
C127 C 0.4157 0.30453 0.16703 0.0
C128 C 0.42126 0.32312 0.21206 0.0
C129 C 0.37556 0.26626 0.10792 0.0
O130 O 0.34207 0.18205 0.16661 0.0
O131 O 0.35509 0.1174 0.17558 0.0
O132 O 0.42487 0.11741 0.12216 0.0
O133 O 0.41045 0.17739 0.14915 0.0
O134 O 0.34013 0.0477 1.0859 0.0
O135 O 0.39173 0.04991 0.12951 0.0
O136 O 0.3799 0.11013 1.02409 0.0
O137 O 0.38394 0.17642 1.01971 0.0
O138 O 0.30621 0.18209 1.08396 0.0
O139 O 0.30579 0.11737 0.10385 0.0
C140 C 0.34344 0.15049 0.19281 0.0
O141 O 0.40382 0.24347 1.09565 0.0
O142 O 0.3423 0.2502 0.09944 0.0
C143 C 0.43156 0.14633 0.15175 0.0
C144 C 0.3844 0.99901 1.07443 0.0
C145 C 0.40054 0.95457 0.99231 0.0
C146 C 0.4238 0.98631 1.00329 0.0
C147 C 0.41549 1.00875 1.0441 0.0
C148 C 0.36432 0.96474 1.06678 0.0
C149 C 0.37234 0.94254 1.02574 0.0
C150 C 0.3676 0.02794 0.10629 0.0
C151 C 0.38686 0.14174 0.9991 0.0
H152 H 0.33215 0.30997 0.26092 0.0
H153 H 0.32283 0.2763 0.18314 0.0
H154 H 0.43933 0.30342 0.14125 0.0
H155 H 0.44895 0.3363 0.21897 0.0
H156 H 0.44571 0.99602 0.97796 0.0
H157 H 0.43112 0.03537 1.04944 0.0
H158 H 0.34024 0.95701 1.08996 0.0
H159 H 0.3545 0.91769 1.01816 0.0
Tb160 Tb 0.08725 0.91498 0.34719 0.0
Tb161 Tb 0.18209 0.91552 0.3415 0.0
C162 C 0.13227 0.99461 0.34796 0.0
C163 C 0.99469 0.90209 0.28773 0.0
C164 C 0.95659 0.8909 0.19608 0.0
C165 C 0.97395 0.92636 0.20754 0.0
C166 C 0.99286 0.93183 0.25261 0.0
C167 C 0.97781 0.86659 0.27592 0.0
C168 C 0.95921 0.86104 0.2309 0.0
C169 C 1.01604 0.90673 0.33506 0.0
O170 O 0.10028 0.9402 0.27638 0.0
O171 O 0.16494 0.92721 0.26742 0.0
O172 O 0.16491 0.85742 0.32082 0.0
O173 O 0.10492 0.87184 0.29383 0.0
O174 O 0.23461 0.94216 0.35713 0.0
O175 O 0.23241 0.89056 0.3135 0.0
O176 O 0.17217 0.90238 0.4189 0.0
O177 O 0.10587 0.89836 0.42328 0.0
O178 O 0.10021 0.97609 0.35901 0.0
O179 O 0.16494 0.9765 0.33915 0.0
C180 C 0.13185 0.93885 0.25018 0.0
O181 O 0.03883 0.87847 0.34732 0.0
O182 O 0.03211 0.93999 0.34355 0.0
C183 C 0.13599 0.85073 0.29122 0.0
C184 C 0.28329 0.89788 0.36859 0.0
C185 C 0.32772 0.88173 0.45071 0.0
C186 C 0.29596 0.85849 0.43973 0.0
C187 C 0.27354 0.8668 0.39893 0.0
C188 C 0.31757 0.91794 0.37624 0.0
C189 C 0.33977 0.90992 0.41727 0.0
C190 C 0.25437 0.91469 0.33673 0.0
C191 C 0.14055 0.89542 0.44389 0.0
H192 H 0.97225 0.95019 0.18215 0.0
H193 H 1.00594 0.9595 0.25991 0.0
H194 H 0.97895 0.84294 0.30167 0.0
H195 H 0.94606 0.83334 0.22396 0.0
H196 H 0.28625 0.83658 0.46506 0.0
H197 H 0.2469 0.85119 0.3936 0.0
H198 H 0.32531 0.94201 0.35305 0.0
H199 H 0.36463 0.92774 0.42484 0.0
Tb200 Tb 0.36729 0.83724 0.5972 0.0
Tb201 Tb 0.36678 0.93207 0.59151 0.0
C202 C 0.28768 0.88227 0.59797 0.0
C203 C 0.38017 0.74468 0.53775 0.0
C204 C 0.39137 0.70659 0.44608 0.0
C205 C 0.35591 0.72395 0.45754 0.0
C206 C 0.35043 0.74286 0.50262 0.0
C207 C 0.41567 0.7278 0.52594 0.0
C208 C 0.42123 0.70921 0.48091 0.0
C209 C 0.37552 0.76603 0.58508 0.0
O210 O 0.34207 0.85026 0.52639 0.0
O211 O 0.35509 0.91491 0.51742 0.0
O212 O 0.42487 0.91488 0.57084 0.0
O213 O 0.41044 0.8549 0.54384 0.0
O214 O 0.34015 0.98461 0.60713 0.0
O215 O 0.39174 0.98239 0.56349 0.0
O216 O 0.37991 0.92217 0.66891 0.0
O217 O 0.38392 0.85588 0.67329 0.0
O218 O 0.30619 0.85022 0.60904 0.0
O219 O 0.30579 0.91494 0.58916 0.0
C220 C 0.34344 0.88182 0.50019 0.0
O221 O 0.40379 0.78882 0.59735 0.0
O222 O 0.34227 0.7821 0.59357 0.0
C223 C 0.43155 0.88596 0.54124 0.0
C224 C 0.38444 0.03329 0.61857 0.0
C225 C 0.40059 0.07772 0.70069 0.0
C226 C 0.42383 0.04597 0.68971 0.0
C227 C 0.41552 0.02354 0.64891 0.0
C228 C 0.36438 0.06757 0.62621 0.0
C229 C 0.3724 0.08977 0.66725 0.0
C230 C 0.36762 1.00436 0.58672 0.0
C231 C 0.38687 0.89056 0.6939 0.0
H232 H 0.33208 0.72226 0.43214 0.0
H233 H 0.32277 0.75593 0.50992 0.0
H234 H 0.43931 0.72893 0.55169 0.0
H235 H 0.44892 0.69606 0.47397 0.0
H236 H 0.44573 0.03626 0.71504 0.0
H237 H 0.43112 0.9969 0.64357 0.0
H238 H 0.34031 0.07531 0.60303 0.0
H239 H 0.35458 0.11463 0.67482 0.0
Tb240 Tb 0.44505 0.11731 0.84719 0.0
Tb241 Tb 0.35022 0.11678 0.84149 0.0
C242 C 0.40004 0.03769 0.84796 0.0
C243 C 0.53761 0.13021 0.78774 0.0
C244 C 0.57569 0.14142 0.69607 0.0
C245 C 0.55831 0.10597 0.7075 0.0
C246 C 0.5394 0.10049 0.75258 0.0
C247 C 0.55452 0.1657 0.77595 0.0
C248 C 0.57311 0.17127 0.73093 0.0
C249 C 0.51626 0.12557 0.83507 0.0
O250 O 0.43205 0.09207 0.77638 0.0
O251 O 0.3674 0.10509 0.7674 0.0
O252 O 0.3674 0.17488 0.82083 0.0
O253 O 0.42739 0.16045 0.79384 0.0
O254 O 0.29769 0.09013 0.85709 0.0
O255 O 0.29991 0.14173 0.81348 0.0
O256 O 0.36013 0.1299 0.9189 0.0
O257 O 0.42642 0.13394 0.92328 0.0
O258 O 0.43209 0.05621 0.85903 0.0
O259 O 0.36737 0.05579 0.83914 0.0
C260 C 0.40048 0.09344 0.75017 0.0
O261 O 0.49347 0.15382 0.84734 0.0
O262 O 0.5002 0.0923 0.84355 0.0
C263 C 0.39633 0.18156 0.79124 0.0
C264 C 0.24901 0.1344 0.86855 0.0
C265 C 0.20457 0.15054 0.95068 0.0
C266 C 0.23631 0.1738 0.93969 0.0
C267 C 0.25874 0.16549 0.89889 0.0
C268 C 0.21474 0.11432 0.8762 0.0
C269 C 0.19253 0.12234 0.91724 0.0
C270 C 0.27794 0.1176 0.8367 0.0
C271 C 0.39173 0.13687 0.94389 0.0
H272 H 0.55997 0.08215 0.68208 0.0
H273 H 0.5263 0.07283 0.75986 0.0
H274 H 0.55341 0.18934 0.80173 0.0
H275 H 0.58628 0.19896 0.72401 0.0
H276 H 0.24601 0.19571 0.96502 0.0
H277 H 0.28537 0.18112 0.89355 0.0
H278 H 0.20701 0.09025 0.85302 0.0
H279 H 0.16768 0.10451 0.92482 0.0
Tb280 Tb 0.16498 0.19504 0.09717 0.0
Tb281 Tb 0.16552 0.10021 1.09148 0.0
C282 C 0.2446 0.15004 0.09795 0.0
C283 C 0.15207 0.2876 1.03772 0.0
C284 C 0.14087 0.32569 0.94606 0.0
C285 C 0.17631 0.30831 0.95749 0.0
C286 C 0.18179 0.2894 1.00256 0.0
C287 C 0.11657 0.3045 1.02593 0.0
C288 C 0.11102 0.32309 0.98091 0.0
C289 C 0.15672 0.26625 1.08504 0.0
O290 O 0.19021 0.18202 1.02636 0.0
O291 O 0.1772 0.11736 1.0174 0.0
O292 O 0.10742 0.11737 1.0708 0.0
O293 O 0.12183 0.17736 1.04383 0.0
O294 O 0.19217 0.04768 0.10709 0.0
O295 O 0.14057 0.04987 1.06348 0.0
O296 O 0.15237 0.11012 0.16888 0.0
O297 O 0.14835 0.17641 0.17327 0.0
O298 O 0.22608 0.18209 0.109 0.0
O299 O 0.2265 0.11736 1.08914 0.0
C300 C 0.18885 0.15045 1.00016 0.0
O301 O 0.12846 0.24345 0.09732 0.0
O302 O 0.18998 0.25019 1.09352 0.0
C303 C 0.10073 0.14629 1.04122 0.0
C304 C 0.1479 0.99899 0.11858 0.0
C305 C 0.13176 0.95456 0.20069 0.0
C306 C 0.10851 0.9863 0.18972 0.0
C307 C 0.11682 1.00873 0.14891 0.0
C308 C 0.16799 0.96473 0.12623 0.0
C309 C 0.15996 0.94253 0.16726 0.0
C310 C 0.16471 0.02792 1.08671 0.0
C311 C 0.14541 0.14173 0.19387 0.0
H312 H 0.20014 0.30999 0.93208 0.0
H313 H 0.20945 0.27631 1.00984 0.0
H314 H 0.09294 0.30337 1.0517 0.0
H315 H 0.08332 0.33626 0.974 0.0
H316 H 0.08659 0.99601 0.21505 0.0
H317 H 0.10119 0.03536 0.14357 0.0
H318 H 0.19206 0.957 0.10305 0.0
H319 H 0.1778 0.91768 0.17485 0.0
Tb320 Tb 0.85021 0.9155 0.84151 0.0
Tb321 Tb 0.94504 0.91499 0.8472 0.0
C322 C 0.89632 0.85073 0.79124 0.0
C323 C 0.74899 0.89784 0.86857 0.0
C324 C 0.70455 0.8817 0.95069 0.0
C325 C 0.7363 0.85845 0.93971 0.0
C326 C 0.75874 0.86676 0.89891 0.0
C327 C 0.71472 0.91791 0.87622 0.0
C328 C 0.69251 0.90988 0.91725 0.0
C329 C 0.77792 0.91466 0.83673 0.0
O330 O 0.86011 0.90237 0.91892 0.0
O331 O 0.9264 0.89836 0.92329 0.0
O332 O 0.93206 0.97609 0.85904 0.0
O333 O 0.86734 0.97649 0.83916 0.0
O334 O 0.99346 0.87849 0.84735 0.0
O335 O 1.00018 0.94001 0.84357 0.0
O336 O 0.93203 0.94021 0.77639 0.0
O337 O 0.86737 0.92719 0.76743 0.0
O338 O 0.8674 0.85741 0.82084 0.0
O339 O 0.92738 0.87185 0.79384 0.0
C340 C 0.89172 0.89542 0.94391 0.0
O341 O 0.79767 0.94213 0.85713 0.0
O342 O 0.79989 0.89053 0.8135 0.0
C343 C 0.90001 0.9946 0.84798 0.0
C344 C 0.0376 0.90211 0.78775 0.0
C345 C 0.0757 0.89091 0.69609 0.0
C346 C 0.05832 0.92636 0.70753 0.0
C347 C 0.03941 0.93184 0.75261 0.0
C348 C 0.0545 0.86661 0.77596 0.0
C349 C 0.07309 0.86105 0.73093 0.0
C350 C 0.01625 0.90675 0.83508 0.0
C351 C 0.90045 0.93885 0.7502 0.0
H352 H 0.74601 0.83655 0.96504 0.0
H353 H 0.78537 0.85115 0.89358 0.0
H354 H 0.70698 0.94197 0.85303 0.0
H355 H 0.66765 0.92771 0.92483 0.0
H356 H 0.06 0.95019 0.68213 0.0
H357 H 0.02632 0.9595 0.7599 0.0
H358 H 0.05337 0.84297 0.80172 0.0
H359 H 0.08625 0.83336 0.724 0.0
Tb360 Tb 0.86677 0.10019 0.5915 0.0
Tb361 Tb 0.8673 0.19503 0.59719 0.0
C362 C 0.93155 0.14629 0.54123 0.0
C363 C 0.8844 0.99898 0.6186 0.0
C364 C 0.90055 0.95456 0.70071 0.0
C365 C 0.92379 0.98631 0.68973 0.0
C366 C 0.91548 1.00874 0.64893 0.0
C367 C 0.86433 0.96471 0.62625 0.0
C368 C 0.87236 0.94251 0.66728 0.0
C369 C 0.86759 0.0279 0.58674 0.0
O370 O 0.87991 0.11012 0.6689 0.0
O371 O 0.88392 0.17641 0.67328 0.0
O372 O 0.8062 0.18207 0.60901 0.0
O373 O 0.80578 0.11734 0.58916 0.0
O374 O 0.90381 0.24345 0.59732 0.0
O375 O 0.84229 0.25017 0.59355 0.0
O376 O 0.84209 0.182 0.52638 0.0
O377 O 0.85508 0.11734 0.51742 0.0
O378 O 0.92486 0.11736 0.57081 0.0
O379 O 0.91045 0.17736 0.54384 0.0
C380 C 0.88686 0.14173 0.69389 0.0
O381 O 0.84012 0.04767 0.60714 0.0
O382 O 0.89171 0.04986 0.5635 0.0
C383 C 0.78768 0.15001 0.59796 0.0
C384 C 0.8802 0.28759 0.53773 0.0
C385 C 0.89139 0.32569 0.44608 0.0
C386 C 0.85593 0.30833 0.45753 0.0
C387 C 0.85046 0.28941 0.50261 0.0
C388 C 0.91569 0.30448 0.52593 0.0
C389 C 0.92125 0.32307 0.48091 0.0
C390 C 0.87555 0.26624 0.58506 0.0
C391 C 0.84343 0.15042 0.50018 0.0
H392 H 0.9457 0.99603 0.71507 0.0
H393 H 0.93109 0.03538 0.6436 0.0
H394 H 0.84026 0.95697 0.60307 0.0
H395 H 0.85454 0.91765 0.67486 0.0
H396 H 0.8321 0.31002 0.43214 0.0
H397 H 0.82279 0.27633 0.50991 0.0
H398 H 0.93934 0.30334 0.55168 0.0
H399 H 0.94894 0.33623 0.47397 0.0
Tb400 Tb 0.68208 0.11677 0.34149 0.0
Tb401 Tb 0.58724 0.11731 0.34718 0.0
C402 C 0.63599 0.18155 0.29122 0.0
C403 C 0.78329 0.13438 0.36858 0.0
C404 C 0.82772 0.15052 0.4507 0.0
C405 C 0.79598 0.17377 0.43972 0.0
C406 C 0.77356 0.16547 0.39892 0.0
C407 C 0.81755 0.11429 0.37623 0.0
C408 C 0.83975 0.12231 0.41727 0.0
C409 C 0.75436 0.11758 0.33672 0.0
O410 O 0.67216 0.12991 0.41889 0.0
O411 O 0.60587 0.13393 0.42327 0.0
O412 O 0.60019 0.05621 0.359 0.0
O413 O 0.66492 0.05579 0.33915 0.0
O414 O 0.53883 0.15383 0.34732 0.0
O415 O 0.53209 0.09231 0.34353 0.0
O416 O 0.60026 0.09208 0.27637 0.0
O417 O 0.66492 0.10508 0.2674 0.0
O418 O 0.66491 0.17486 0.3208 0.0
O419 O 0.60492 0.16045 0.29382 0.0
C420 C 0.64055 0.13686 0.44388 0.0
O421 O 0.7346 0.09012 0.3571 0.0
O422 O 0.73241 0.14172 0.31349 0.0
C423 C 0.63225 0.03768 0.34795 0.0
C424 C 0.49469 0.13022 0.28772 0.0
C425 C 0.45659 0.14142 0.19607 0.0
C426 C 0.47398 0.10598 0.20749 0.0
C427 C 0.4929 0.1005 0.25256 0.0
C428 C 0.47777 0.16571 0.27595 0.0
C429 C 0.45918 0.17127 0.23093 0.0
C430 C 0.51604 0.12557 0.33505 0.0
C431 C 0.63184 0.09343 0.25017 0.0
H432 H 0.78628 0.19569 0.46505 0.0
H433 H 0.74693 0.1811 0.39357 0.0
H434 H 0.82528 0.09021 0.35305 0.0
H435 H 0.8646 0.10447 0.42485 0.0
H436 H 0.47232 0.08216 0.18207 0.0
H437 H 0.506 0.07284 0.25983 0.0
H438 H 0.47888 0.18934 0.30173 0.0
H439 H 0.446 0.19896 0.22403 0.0
Tb440 Tb 0.6655 0.93206 1.09149 0.0
Tb441 Tb 0.66497 0.83723 0.09719 0.0
C442 C 0.60072 0.88596 1.04125 0.0
C443 C 0.64788 0.03328 0.11856 0.0
C444 C 0.63174 0.07772 0.20068 0.0
C445 C 0.60848 0.04598 0.18969 0.0
C446 C 0.61679 0.02354 0.14889 0.0
C447 C 0.66797 0.06755 0.12621 0.0
C448 C 0.65994 0.08975 0.16725 0.0
C449 C 0.66469 1.00435 1.0867 0.0
O450 O 0.65237 0.92216 0.1689 0.0
O451 O 0.64834 0.85587 0.17328 0.0
O452 O 0.72607 0.85019 0.10903 0.0
O453 O 0.72649 0.91492 1.08914 0.0
O454 O 0.62846 0.78881 0.09734 0.0
O455 O 0.68998 0.78209 1.09355 0.0
O456 O 0.6902 0.85023 1.02638 0.0
O457 O 0.67719 0.91489 1.01741 0.0
O458 O 0.60741 0.91489 1.07083 0.0
O459 O 0.62182 0.85489 1.04384 0.0
C460 C 0.64541 0.89055 0.19389 0.0
O461 O 0.69215 0.98459 0.1071 0.0
O462 O 0.64056 0.98238 1.06348 0.0
C463 C 0.74459 0.88225 0.09797 0.0
C464 C 0.65206 0.74467 1.03774 0.0
C465 C 0.64086 0.70659 0.94607 0.0
C466 C 0.6763 0.72398 0.95749 0.0
C467 C 0.68178 0.74289 1.00257 0.0
C468 C 0.61658 0.72776 1.02596 0.0
C469 C 0.61101 0.70917 0.98093 0.0
C470 C 0.65671 0.76602 1.08507 0.0
C471 C 0.68884 0.8818 1.00017 0.0
H472 H 0.58656 0.03627 0.21502 0.0
H473 H 0.60116 0.99692 0.14355 0.0
H474 H 0.69204 0.07527 0.10303 0.0
H475 H 0.67778 0.1146 0.17483 0.0
H476 H 0.70013 0.72232 0.93207 0.0
H477 H 0.70944 0.75599 1.00985 0.0
H478 H 0.59294 0.72886 1.05174 0.0
H479 H 0.58333 0.69599 0.97402 0.0
Tb480 Tb 0.85019 0.11677 0.85149 0.0
Tb481 Tb 0.94502 0.1173 0.8458 0.0
C482 C 0.89628 0.18155 0.90177 0.0
C483 C 0.74898 0.13441 0.8244 0.0
C484 C 0.70455 0.15056 0.74228 0.0
C485 C 0.73631 0.1738 0.75326 0.0
C486 C 0.75873 0.16549 0.79406 0.0
C487 C 0.7147 0.11434 0.81675 0.0
C488 C 0.6925 0.12237 0.77572 0.0
C489 C 0.7779 0.1176 0.85625 0.0
O490 O 0.86011 0.12991 0.77409 0.0
O491 O 0.9264 0.13393 0.76971 0.0
O492 O 0.93206 0.0562 0.83398 0.0
O493 O 0.86733 0.05579 0.85383 0.0
O494 O 0.99344 0.15381 0.84567 0.0
O495 O 1.00016 0.09229 0.84944 0.0
O496 O 0.932 0.09209 0.91661 0.0
O497 O 0.86734 0.10508 0.92557 0.0
O498 O 0.86736 0.17487 0.87218 0.0
O499 O 0.92735 0.16045 0.89916 0.0
C500 C 0.89172 0.13687 0.7491 0.0
O501 O 0.79766 0.09013 0.83586 0.0
O502 O 0.79986 0.14172 0.87949 0.0
C503 C 0.9 0.03768 0.84503 0.0
C504 C 0.03759 0.1302 0.90525 0.0
C505 C 0.07569 0.14139 0.9969 0.0
C506 C 0.05832 0.10594 0.98546 0.0
C507 C 0.0394 0.10046 0.94039 0.0
C508 C 0.05448 0.16569 0.91706 0.0
C509 C 0.07307 0.17125 0.96207 0.0
C510 C 0.01623 0.12555 0.85793 0.0
C511 C 0.90042 0.09343 0.94281 0.0
H512 H 0.74602 0.19571 0.72793 0.0
H513 H 0.78537 0.1811 0.79939 0.0
H514 H 0.70696 0.09028 0.83994 0.0
H515 H 0.66764 0.10455 0.76815 0.0
H516 H 0.06001 0.0821 1.01085 0.0
H517 H 0.02632 0.0728 0.93309 0.0
H518 H 0.05335 0.18934 0.8913 0.0
H519 H 0.08624 0.19894 0.969 0.0
Tb520 Tb 0.6655 0.10021 0.60148 0.0
Tb521 Tb 0.66499 0.19505 0.59579 0.0
C522 C 0.60072 0.14633 0.65174 0.0
C523 C 0.64784 0.999 0.57442 0.0
C524 C 0.63169 0.95456 0.4923 0.0
C525 C 0.60845 0.98631 0.50328 0.0
C526 C 0.61677 1.00875 0.54408 0.0
C527 C 0.66791 0.96472 0.56678 0.0
C528 C 0.65988 0.94251 0.52574 0.0
C529 C 0.66466 0.02793 0.60627 0.0
O530 O 0.65236 0.11012 0.52408 0.0
O531 O 0.64836 0.17641 0.5197 0.0
O532 O 0.72609 0.18207 0.58395 0.0
O533 O 0.72648 0.11735 0.60383 0.0
O534 O 0.62849 0.24347 0.59564 0.0
O535 O 0.69001 0.25018 0.59943 0.0
O536 O 0.6902 0.18203 0.6666 0.0
O537 O 0.67718 0.11738 0.67556 0.0
O538 O 0.6074 0.11739 0.62215 0.0
O539 O 0.62183 0.17739 0.64914 0.0
C540 C 0.64541 0.14173 0.49909 0.0
O541 O 0.69213 0.04768 0.58586 0.0
O542 O 0.64054 0.04989 0.6295 0.0
C543 C 0.7446 0.15002 0.59502 0.0
C544 C 0.65211 0.28761 0.65524 0.0
C545 C 0.64091 0.3257 0.74691 0.0
C546 C 0.67636 0.30834 0.73545 0.0
C547 C 0.68184 0.28943 0.69037 0.0
C548 C 0.61661 0.30449 0.66705 0.0
C549 C 0.61105 0.32308 0.71208 0.0
C550 C 0.65675 0.26626 0.60791 0.0
C551 C 0.68883 0.15046 0.6928 0.0
H552 H 0.58655 0.99603 0.47795 0.0
H553 H 0.60116 0.03538 0.54942 0.0
H554 H 0.69197 0.95698 0.58996 0.0
H555 H 0.6777 0.91765 0.51816 0.0
H556 H 0.7002 0.31003 0.76085 0.0
H557 H 0.70951 0.27636 0.68307 0.0
H558 H 0.59296 0.30335 0.6413 0.0
H559 H 0.58335 0.33623 0.71902 0.0
Tb560 Tb 0.68205 0.91551 0.3515 0.0
Tb561 Tb 0.58722 0.91498 0.3458 0.0
C562 C 0.63595 0.85072 0.40175 0.0
C563 C 0.78327 0.89788 0.32444 0.0
C564 C 0.82771 0.88174 0.24232 0.0
C565 C 0.79597 0.85849 0.2533 0.0
C566 C 0.77354 0.86679 0.2941 0.0
C567 C 0.81754 0.91797 0.31679 0.0
C568 C 0.83975 0.90994 0.27575 0.0
C569 C 0.75434 0.91469 0.35629 0.0
O570 O 0.67215 0.90238 0.27409 0.0
O571 O 0.60586 0.89835 0.26971 0.0
O572 O 0.60019 0.97608 0.33396 0.0
O573 O 0.66491 0.97649 0.35385 0.0
O574 O 0.53881 0.87846 0.34565 0.0
O575 O 0.53208 0.93999 0.34944 0.0
O576 O 0.60023 0.94021 0.41661 0.0
O577 O 0.66488 0.92719 0.42558 0.0
O578 O 0.66488 0.85741 0.37216 0.0
O579 O 0.60489 0.87183 0.39915 0.0
C580 C 0.64055 0.89541 0.2491 0.0
O581 O 0.73459 0.94215 0.3359 0.0
O582 O 0.73237 0.89056 0.37951 0.0
C583 C 0.63224 0.9946 0.34503 0.0
C584 C 0.49466 0.90207 0.40525 0.0
C585 C 0.45658 0.89087 0.49691 0.0
C586 C 0.47398 0.92631 0.4855 0.0
C587 C 0.49289 0.93179 0.44042 0.0
C588 C 0.47774 0.86659 0.41702 0.0
C589 C 0.45916 0.86102 0.46205 0.0
C590 C 0.51602 0.90672 0.35792 0.0
C591 C 0.6318 0.93884 0.44282 0.0
H592 H 0.78627 0.83657 0.22797 0.0
H593 H 0.74691 0.85117 0.29944 0.0
H594 H 0.82527 0.94204 0.33997 0.0
H595 H 0.86459 0.92778 0.26817 0.0
H596 H 0.47232 0.95013 0.51092 0.0
H597 H 0.506 0.95945 0.43315 0.0
H598 H 0.47885 0.84296 0.39124 0.0
H599 H 0.44597 0.83334 0.46896 0.0
Tb600 Tb 0.86676 0.93208 0.10151 0.0
Tb601 Tb 0.8673 0.83724 1.09582 0.0
C602 C 0.93155 0.886 0.15176 0.0
C603 C 0.88436 0.0333 1.07441 0.0
C604 C 0.90051 0.07773 0.9923 0.0
C605 C 0.92376 0.04599 1.00328 0.0
C606 C 0.91545 0.02356 1.04408 0.0
C607 C 0.86428 0.06756 1.06676 0.0
C608 C 0.87231 0.08976 1.02572 0.0
C609 C 0.86756 1.00437 0.10628 0.0
O610 O 0.87991 0.92217 1.02411 0.0
O611 O 0.88392 0.85587 1.01972 0.0
O612 O 0.8062 0.85019 1.08399 0.0
O613 O 0.80578 0.91493 0.10385 0.0
O614 O 0.90381 0.78883 1.09567 0.0
O615 O 0.8423 0.7821 0.09947 0.0
O616 O 0.84207 0.85027 0.16663 0.0
O617 O 0.85507 0.91493 0.17559 0.0
O618 O 0.92485 0.91493 0.1222 0.0
O619 O 0.91045 0.85492 0.14916 0.0
C620 C 0.88686 0.89055 0.99912 0.0
O621 O 0.8401 0.9846 1.08589 0.0
O622 O 0.8917 0.98242 0.12951 0.0
C623 C 0.78767 0.88225 1.09504 0.0
C624 C 0.88021 0.74469 0.15527 0.0
C625 C 0.89141 0.7066 0.24693 0.0
C626 C 0.85596 0.72398 0.2355 0.0
C627 C 0.85048 0.74289 0.19043 0.0
C628 C 0.9157 0.72779 0.16706 0.0
C629 C 0.92126 0.7092 0.21208 0.0
C630 C 0.87556 0.76604 0.10795 0.0
C631 C 0.84343 0.88184 0.19283 0.0
H632 H 0.94568 0.03628 0.97795 0.0
H633 H 0.93108 0.99693 1.04942 0.0
H634 H 0.84021 0.07529 1.08994 0.0
H635 H 0.85447 0.11461 1.01814 0.0
H636 H 0.83213 0.7223 0.26091 0.0
H637 H 0.82282 0.75598 0.18315 0.0
H638 H 0.93934 0.72891 0.14129 0.0
H639 H 0.94895 0.69603 0.21899 0.0
Tb640 Tb 0.58723 0.6173 0.84579 0.0
Tb641 Tb 0.68206 0.61679 0.85148 0.0
C642 C 0.63226 0.53768 0.84502 0.0
C643 C 0.49467 0.63018 0.90524 0.0
C644 C 0.45658 0.64138 0.99691 0.0
C645 C 0.47394 0.60592 0.98545 0.0
C646 C 0.49285 0.60044 0.94037 0.0
C647 C 0.47779 0.66568 0.91705 0.0
C648 C 0.4592 0.67124 0.96208 0.0
C649 C 0.51602 0.62553 0.85791 0.0
O650 O 0.60024 0.59208 0.9166 0.0
O651 O 0.6649 0.6051 0.92556 0.0
O652 O 0.66488 0.67488 0.87215 0.0
O653 O 0.60489 0.66045 0.89914 0.0
O654 O 0.7346 0.59016 0.83586 0.0
O655 O 0.73238 0.64175 0.8795 0.0
O656 O 0.67216 0.62992 0.77408 0.0
O657 O 0.60586 0.63392 0.7697 0.0
O658 O 0.60021 0.5562 0.83395 0.0
O659 O 0.66493 0.5558 0.85383 0.0
C660 C 0.63182 0.59344 0.9428 0.0
O661 O 0.53881 0.6538 0.84564 0.0
O662 O 0.53209 0.59227 0.84942 0.0
C663 C 0.63595 0.68156 0.90174 0.0
C664 C 0.78328 0.63444 0.82442 0.0
C665 C 0.82772 0.65059 0.7423 0.0
C666 C 0.79597 0.67383 0.75328 0.0
C667 C 0.77353 0.66552 0.79408 0.0
C668 C 0.81755 0.61437 0.81677 0.0
C669 C 0.83976 0.6224 0.77574 0.0
C670 C 0.75435 0.61763 0.85626 0.0
C671 C 0.64055 0.63687 0.74909 0.0
H672 H 0.47225 0.58209 1.01085 0.0
H673 H 0.50593 0.57278 0.93307 0.0
H674 H 0.47892 0.68932 0.89129 0.0
H675 H 0.44604 0.69893 0.96901 0.0
H676 H 0.78626 0.69574 0.72795 0.0
H677 H 0.7469 0.68113 0.79942 0.0
H678 H 0.82529 0.59031 0.83996 0.0
H679 H 0.86462 0.60457 0.76816 0.0
Tb680 Tb 0.66498 0.33726 1.0958 0.0
Tb681 Tb 0.66551 0.4321 0.10149 0.0
C682 C 0.7446 0.38228 1.09503 0.0
C683 C 0.65209 0.2447 0.15525 0.0
C684 C 0.6409 0.20659 0.2469 0.0
C685 C 0.67635 0.22397 0.23546 0.0
C686 C 0.68182 0.24288 0.19039 0.0
C687 C 0.61659 0.2278 0.16705 0.0
C688 C 0.61104 0.20921 0.21207 0.0
C689 C 0.65673 0.26605 0.10793 0.0
O690 O 0.6902 0.35029 0.16661 0.0
O691 O 0.67721 0.41495 0.17557 0.0
O692 O 0.60742 0.41492 0.12217 0.0
O693 O 0.62184 0.35493 0.14916 0.0
O694 O 0.69215 0.48462 1.08585 0.0
O695 O 0.64056 0.48242 0.12949 0.0
O696 O 0.65238 0.42217 1.02409 0.0
O697 O 0.64835 0.35588 1.01971 0.0
O698 O 0.72608 0.35022 1.08397 0.0
O699 O 0.7265 0.41495 0.10383 0.0
C700 C 0.68885 0.38187 0.19281 0.0
O701 O 0.62847 0.28884 1.09567 0.0
O702 O 0.68999 0.28212 0.09944 0.0
C703 C 0.60073 0.386 0.15177 0.0
C704 C 0.64787 0.5333 1.07439 0.0
C705 C 0.63172 0.57773 0.99228 0.0
C706 C 0.60848 0.54597 1.00326 0.0
C707 C 0.61679 0.52355 1.04406 0.0
C708 C 0.66794 0.56758 1.06675 0.0
C709 C 0.65991 0.58978 1.02571 0.0
C710 C 0.66469 0.50438 0.10625 0.0
C711 C 0.64542 0.39056 0.9991 0.0
H712 H 0.70018 0.22228 0.26086 0.0
H713 H 0.70948 0.25597 0.18309 0.0
H714 H 0.59295 0.22893 0.1413 0.0
H715 H 0.58334 0.19604 0.219 0.0
H716 H 0.58657 0.53626 0.97792 0.0
H717 H 0.60119 0.49691 1.04939 0.0
H718 H 0.69201 0.57532 1.08993 0.0
H719 H 0.67773 0.61464 1.01813 0.0
Tb720 Tb 0.94504 0.41498 0.34581 0.0
Tb721 Tb 0.85021 0.41552 0.35151 0.0
C722 C 0.90004 0.49461 0.34504 0.0
C723 C 0.0376 0.40207 0.40527 0.0
C724 C 0.07569 0.39087 0.49693 0.0
C725 C 0.05831 0.42631 0.4855 0.0
C726 C 0.0394 0.43179 0.44043 0.0
C727 C 0.0545 0.36658 0.41705 0.0
C728 C 0.07309 0.36102 0.46208 0.0
C729 C 0.01625 0.40672 0.35795 0.0
O730 O 0.93202 0.44021 0.41662 0.0
O731 O 0.86736 0.42721 0.42559 0.0
O732 O 0.86736 0.35742 0.3722 0.0
O733 O 0.92736 0.37183 0.39916 0.0
O734 O 0.79769 0.44217 0.33589 0.0
O735 O 0.79987 0.39058 0.3795 0.0
O736 O 0.86012 0.40237 0.27411 0.0
O737 O 0.92641 0.39836 0.26972 0.0
O738 O 0.93209 0.47608 0.33399 0.0
O739 O 0.86736 0.4765 0.35384 0.0
C740 C 0.90045 0.43886 0.44282 0.0
O741 O 0.99345 0.37846 0.34567 0.0
O742 O 1.00019 0.43998 0.34947 0.0
C743 C 0.89629 0.35073 0.40177 0.0
C744 C 0.74899 0.39791 0.32441 0.0
C745 C 0.70456 0.38177 0.24229 0.0
C746 C 0.7363 0.35852 0.25327 0.0
C747 C 0.75873 0.36682 0.29407 0.0
C748 C 0.71473 0.418 0.31676 0.0
C749 C 0.69253 0.40998 0.27572 0.0
C750 C 0.77792 0.41471 0.35627 0.0
C751 C 0.89173 0.39542 0.24911 0.0
H752 H 0.05998 0.45014 0.51091 0.0
H753 H 0.0263 0.45945 0.43315 0.0
H754 H 0.05338 0.34294 0.39128 0.0
H755 H 0.08626 0.33333 0.46899 0.0
H756 H 0.746 0.3366 0.22794 0.0
H757 H 0.78535 0.3512 0.29942 0.0
H758 H 0.707 0.44208 0.33993 0.0
H759 H 0.66768 0.42782 0.26814 0.0
Tb760 Tb 0.8673 0.69506 0.5958 0.0
Tb761 Tb 0.86677 0.60023 0.6015 0.0
C762 C 0.78768 0.65003 0.59502 0.0
C763 C 0.8802 0.78762 0.65525 0.0
C764 C 0.89141 0.8257 0.74691 0.0
C765 C 0.85597 0.8083 0.7355 0.0
C766 C 0.85049 0.78939 0.69042 0.0
C767 C 0.91569 0.80454 0.66702 0.0
C768 C 0.92125 0.82313 0.71205 0.0
C769 C 0.87555 0.76626 0.60792 0.0
O770 O 0.84207 0.68205 0.66661 0.0
O771 O 0.85508 0.6174 0.67558 0.0
O772 O 0.92487 0.61741 0.62215 0.0
O773 O 0.91044 0.67739 0.64915 0.0
O774 O 0.84013 0.54769 0.58589 0.0
O775 O 0.89172 0.54991 0.62951 0.0
O776 O 0.8799 0.61013 0.52409 0.0
O777 O 0.88394 0.67642 0.51971 0.0
O778 O 0.8062 0.68209 0.58396 0.0
O779 O 0.80578 0.61737 0.60385 0.0
C780 C 0.84343 0.65048 0.69281 0.0
O781 O 0.90381 0.74347 0.59565 0.0
O782 O 0.84229 0.7502 0.59944 0.0
C783 C 0.93155 0.64633 0.65175 0.0
C784 C 0.8844 0.49901 0.57443 0.0
C785 C 0.90054 0.45457 0.49231 0.0
C786 C 0.9238 0.48631 0.5033 0.0
C787 C 0.91549 0.50874 0.5441 0.0
C788 C 0.86432 0.46474 0.56678 0.0
C789 C 0.87234 0.44253 0.52574 0.0
C790 C 0.86759 0.52794 0.60629 0.0
C791 C 0.88686 0.64174 0.4991 0.0
H792 H 0.83215 0.80996 0.76093 0.0
H793 H 0.82283 0.77628 0.68315 0.0
H794 H 0.93932 0.80344 0.64124 0.0
H795 H 0.94894 0.83631 0.71895 0.0
H796 H 0.94571 0.49601 0.47797 0.0
H797 H 0.93111 0.53537 0.54944 0.0
H798 H 0.84024 0.45701 0.58996 0.0
H799 H 0.8545 0.41768 0.51816 0.0
Tb800 Tb 0.58725 0.41498 0.84719 0.0
Tb801 Tb 0.68209 0.41552 0.8415 0.0
C802 C 0.63227 0.49461 0.84796 0.0
C803 C 0.49469 0.40209 0.78773 0.0
C804 C 0.45659 0.3909 0.69608 0.0
C805 C 0.47395 0.42635 0.70754 0.0
C806 C 0.49287 0.43183 0.75261 0.0
C807 C 0.47781 0.36659 0.77592 0.0
C808 C 0.45922 0.36103 0.7309 0.0
C809 C 0.51605 0.40673 0.83506 0.0
O810 O 0.60028 0.4402 0.77638 0.0
O811 O 0.66494 0.4272 0.76742 0.0
O812 O 0.66493 0.35742 0.82081 0.0
O813 O 0.60493 0.37183 0.79384 0.0
O814 O 0.73462 0.44216 0.85714 0.0
O815 O 0.73242 0.39057 0.81349 0.0
O816 O 0.67217 0.40238 0.9189 0.0
O817 O 0.60588 0.39836 0.92328 0.0
O818 O 0.60021 0.47608 0.85901 0.0
O819 O 0.66494 0.4765 0.83915 0.0
C820 C 0.63186 0.43885 0.75018 0.0
O821 O 0.53884 0.37847 0.84732 0.0
O822 O 0.53211 0.43999 0.84355 0.0
C823 C 0.636 0.35073 0.79123 0.0
C824 C 0.7833 0.39789 0.8686 0.0
C825 C 0.82773 0.38173 0.95071 0.0
C826 C 0.79597 0.3585 0.93973 0.0
C827 C 0.77354 0.36681 0.89893 0.0
C828 C 0.81758 0.41795 0.87624 0.0
C829 C 0.83978 0.40992 0.91727 0.0
C830 C 0.75438 0.4147 0.83674 0.0
C831 C 0.64056 0.39542 0.94389 0.0
H832 H 0.47226 0.45019 0.68215 0.0
H833 H 0.50594 0.45949 0.75991 0.0
H834 H 0.47895 0.34294 0.80167 0.0
H835 H 0.44606 0.33334 0.72396 0.0
H836 H 0.78626 0.33659 0.96506 0.0
H837 H 0.74691 0.3512 0.8936 0.0
H838 H 0.82532 0.44202 0.85306 0.0
H839 H 0.86464 0.42774 0.92485 0.0
Tb840 Tb 0.86729 0.33724 0.0972 0.0
Tb841 Tb 0.86679 0.43208 1.09151 0.0
C842 C 0.78768 0.38227 0.09797 0.0
C843 C 0.88017 0.24468 1.03775 0.0
C844 C 0.89137 0.20658 0.94609 0.0
C845 C 0.85593 0.22396 0.95753 0.0
C846 C 0.85045 0.24287 1.00261 0.0
C847 C 0.91567 0.22778 1.02596 0.0
C848 C 0.92123 0.20919 0.98093 0.0
C849 C 0.87553 0.26603 1.08508 0.0
O850 O 0.84207 0.35026 1.02639 0.0
O851 O 0.8551 0.41491 1.01743 0.0
O852 O 0.92488 0.41488 1.07084 0.0
O853 O 0.91044 0.3549 1.04385 0.0
O854 O 0.84016 0.48461 0.10713 0.0
O855 O 0.89175 0.48239 1.06349 0.0
O856 O 0.87992 0.42217 0.16891 0.0
O857 O 0.88392 0.35588 0.17329 0.0
O858 O 0.80619 0.35022 0.10904 0.0
O859 O 0.8058 0.41494 1.08916 0.0
C860 C 0.84345 0.38183 1.00019 0.0
O861 O 0.90379 0.28882 0.09735 0.0
O862 O 0.84227 0.28211 1.09357 0.0
C863 C 0.93156 0.38596 1.04124 0.0
C864 C 0.88444 0.53329 0.11857 0.0
C865 C 0.90059 0.57773 0.20069 0.0
C866 C 0.92383 0.54598 0.18971 0.0
C867 C 0.91552 0.52355 0.14891 0.0
C868 C 0.86437 0.56757 0.12621 0.0
C869 C 0.8724 0.58977 0.16725 0.0
C870 C 0.86763 0.50436 1.08672 0.0
C871 C 0.88687 0.39056 0.1939 0.0
H872 H 0.8321 0.22228 0.93213 0.0
H873 H 0.82278 0.25596 1.0099 0.0
H874 H 0.93931 0.22891 1.05172 0.0
H875 H 0.94892 0.19603 0.974 0.0
H876 H 0.94573 0.53627 0.21504 0.0
H877 H 0.93113 0.49691 0.14357 0.0
H878 H 0.84031 0.5753 0.10303 0.0
H879 H 0.85457 0.61463 0.17482 0.0
Tb880 Tb 0.94505 0.61731 0.34719 0.0
Tb881 Tb 0.85022 0.61677 0.34149 0.0
C882 C 0.90004 0.53769 0.34796 0.0
C883 C 0.03761 0.63022 0.28774 0.0
C884 C 0.07569 0.64142 0.19607 0.0
C885 C 0.0583 0.60597 0.2075 0.0
C886 C 0.03939 0.60049 0.25258 0.0
C887 C 0.05452 0.66571 0.27595 0.0
C888 C 0.0731 0.67127 0.23092 0.0
C889 C 0.01626 0.62557 0.33507 0.0
O890 O 0.93205 0.59208 0.27638 0.0
O891 O 0.86739 0.60509 0.26741 0.0
O892 O 0.86739 0.67487 0.32083 0.0
O893 O 0.92738 0.66046 0.29384 0.0
O894 O 0.79769 0.59013 0.3571 0.0
O895 O 0.7999 0.64172 0.31348 0.0
O896 O 0.86012 0.62991 0.4189 0.0
O897 O 0.92641 0.63394 0.42328 0.0
O898 O 0.93209 0.55621 0.35903 0.0
O899 O 0.86737 0.55579 0.33914 0.0
C900 C 0.90048 0.59345 0.25017 0.0
O901 O 0.99346 0.65383 0.34734 0.0
O902 O 1.00019 0.59231 0.34355 0.0
C903 C 0.89632 0.68157 0.29125 0.0
C904 C 0.749 0.6344 0.36856 0.0
C905 C 0.70456 0.65054 0.45068 0.0
C906 C 0.7363 0.67379 0.43969 0.0
C907 C 0.75874 0.66548 0.39889 0.0
C908 C 0.71473 0.61431 0.37621 0.0
C909 C 0.69253 0.62234 0.41724 0.0
C910 C 0.77793 0.61759 0.3367 0.0
C911 C 0.89173 0.63687 0.44389 0.0
H912 H 0.05997 0.58215 0.18208 0.0
H913 H 0.0263 0.57284 0.25986 0.0
H914 H 0.05341 0.68934 0.30173 0.0
H915 H 0.08628 0.69896 0.22401 0.0
H916 H 0.746 0.69571 0.46502 0.0
H917 H 0.78537 0.68111 0.39355 0.0
H918 H 0.707 0.59024 0.35303 0.0
H919 H 0.66768 0.6045 0.42482 0.0
Tb920 Tb 0.66497 0.69504 0.59718 0.0
Tb921 Tb 0.66551 0.6002 0.59148 0.0
C922 C 0.7446 0.65003 0.59795 0.0
C923 C 0.65206 0.7876 0.53772 0.0
C924 C 0.64086 0.8257 0.44607 0.0
C925 C 0.6763 0.8083 0.45748 0.0
C926 C 0.68178 0.78938 0.50256 0.0
C927 C 0.61658 0.80451 0.52595 0.0
C928 C 0.61101 0.8231 0.48093 0.0
C929 C 0.65671 0.76625 0.58504 0.0
O930 O 0.6902 0.68202 0.52637 0.0
O931 O 0.6772 0.61736 0.5174 0.0
O932 O 0.60742 0.61736 0.5708 0.0
O933 O 0.62183 0.67736 0.54383 0.0
O934 O 0.69216 0.54768 0.6071 0.0
O935 O 0.64056 0.54987 0.56349 0.0
O936 O 0.65236 0.61012 0.66888 0.0
O937 O 0.64835 0.67641 0.67327 0.0
O938 O 0.72607 0.68209 0.609 0.0
O939 O 0.72649 0.61736 0.58914 0.0
C940 C 0.68884 0.65044 0.50016 0.0
O941 O 0.62846 0.74345 0.59732 0.0
O942 O 0.68998 0.75019 0.59353 0.0
C943 C 0.60072 0.64629 0.54122 0.0
C944 C 0.6479 0.49899 0.61858 0.0
C945 C 0.63176 0.45456 0.70069 0.0
C946 C 0.60851 0.48629 0.68971 0.0
C947 C 0.61681 0.50872 0.64891 0.0
C948 C 0.66799 0.46473 0.62623 0.0
C949 C 0.65997 0.44252 0.66727 0.0
C950 C 0.6647 0.52792 0.58671 0.0
C951 C 0.64541 0.64173 0.69387 0.0
H952 H 0.70013 0.80997 0.43206 0.0
H953 H 0.70944 0.77628 0.50983 0.0
H954 H 0.59294 0.8034 0.55173 0.0
H955 H 0.58333 0.83628 0.47402 0.0
H956 H 0.58659 0.496 0.71504 0.0
H957 H 0.60119 0.53535 0.64357 0.0
H958 H 0.69206 0.457 0.60305 0.0
H959 H 0.6778 0.41768 0.67485 0.0
Tb960 Tb 0.35021 0.4155 0.34151 0.0
Tb961 Tb 0.44504 0.41499 0.3472 0.0
C962 C 0.39632 0.35072 0.29125 0.0
C963 C 0.24899 0.39784 0.36857 0.0
C964 C 0.20456 0.3817 0.45069 0.0
C965 C 0.2363 0.35846 0.43971 0.0
C966 C 0.25874 0.36676 0.39891 0.0
C967 C 0.21472 0.41791 0.37622 0.0
C968 C 0.19251 0.40989 0.41725 0.0
C969 C 0.27792 0.41466 0.33673 0.0
O970 O 0.36012 0.40236 0.41891 0.0
O971 O 0.42641 0.39836 0.42329 0.0
O972 O 0.43207 0.47609 0.35903 0.0
O973 O 0.36734 0.47649 0.33916 0.0
O974 O 0.49346 0.37849 0.34735 0.0
O975 O 0.50018 0.44002 0.34356 0.0
O976 O 0.43203 0.44021 0.27639 0.0
O977 O 0.36737 0.42719 0.26743 0.0
O978 O 0.36739 0.35741 0.32084 0.0
O979 O 0.42738 0.37184 0.29385 0.0
C980 C 0.39173 0.39542 0.4439 0.0
O981 O 0.29767 0.44213 0.35713 0.0
O982 O 0.29989 0.39054 0.31349 0.0
C983 C 0.40001 0.4946 0.34797 0.0
C984 C 0.53761 0.40211 0.28775 0.0
C985 C 0.5757 0.39091 0.19609 0.0
C986 C 0.55833 0.42636 0.20753 0.0
C987 C 0.53941 0.43184 0.25261 0.0
C988 C 0.5545 0.36662 0.27595 0.0
C989 C 0.57309 0.36106 0.23093 0.0
C990 C 0.51625 0.40676 0.33508 0.0
C991 C 0.40046 0.43885 0.25019 0.0
H992 H 0.24601 0.33655 0.46504 0.0
H993 H 0.28537 0.35115 0.39357 0.0
H994 H 0.20698 0.44198 0.35304 0.0
H995 H 0.16766 0.42771 0.42483 0.0
H996 H 0.56001 0.45019 0.18213 0.0
H997 H 0.52633 0.4595 0.2599 0.0
H998 H 0.55337 0.34297 0.30171 0.0
H999 H 0.58625 0.33336 0.224 0.0
Tb1000 Tb 0.36676 0.60019 1.0915 0.0
Tb1001 Tb 0.3673 0.69503 0.09719 0.0
C1002 C 0.43155 0.64629 1.04123 0.0
C1003 C 0.3844 0.49898 0.1186 0.0
C1004 C 0.40055 0.45455 0.20071 0.0
C1005 C 0.42379 0.48631 0.18973 0.0
C1006 C 0.41548 0.50874 0.14893 0.0
C1007 C 0.36433 0.46471 0.12625 0.0
C1008 C 0.37236 0.4425 0.16728 0.0
C1009 C 0.36758 0.5279 1.08674 0.0
O1010 O 0.3799 0.61012 0.1689 0.0
O1011 O 0.38392 0.67641 0.17328 0.0
O1012 O 0.30619 0.68207 0.10902 0.0
O1013 O 0.30578 0.61734 1.08916 0.0
O1014 O 0.4038 0.74345 0.09732 0.0
O1015 O 0.34228 0.75017 1.09355 0.0
O1016 O 0.34208 0.682 1.02638 0.0
O1017 O 0.35507 0.61734 1.01742 0.0
O1018 O 0.42486 0.61736 1.07081 0.0
O1019 O 0.41044 0.67735 1.04384 0.0
C1020 C 0.38686 0.64173 0.19389 0.0
O1021 O 0.34012 0.54766 0.10714 0.0
O1022 O 0.39171 0.54986 1.0635 0.0
C1023 C 0.28767 0.65001 0.09796 0.0
C1024 C 0.38019 0.78759 1.03774 0.0
C1025 C 0.39138 0.8257 0.94609 0.0
C1026 C 0.35593 0.80832 0.95753 0.0
C1027 C 0.35045 0.7894 1.0026 0.0
C1028 C 0.41568 0.80448 1.02594 0.0
C1029 C 0.42124 0.82308 0.98092 0.0
C1030 C 0.37554 0.76624 1.08506 0.0
C1031 C 0.34343 0.65042 1.00018 0.0
H1032 H 0.4457 0.49603 0.21506 0.0
H1033 H 0.43109 0.53537 0.14359 0.0
H1034 H 0.34026 0.45696 0.10307 0.0
H1035 H 0.35454 0.41765 0.17486 0.0
H1036 H 0.3321 0.81001 0.93213 0.0
H1037 H 0.32279 0.77632 1.00989 0.0
H1038 H 0.43933 0.80335 1.05169 0.0
H1039 H 0.44893 0.83624 0.97399 0.0
Tb1040 Tb 0.18207 0.61677 0.84148 0.0
Tb1041 Tb 0.08724 0.61731 0.84717 0.0
C1042 C 0.13599 0.68156 0.79122 0.0
C1043 C 0.28329 0.63437 0.86858 0.0
C1044 C 0.32772 0.65052 0.95069 0.0
C1045 C 0.29598 0.67377 0.93971 0.0
C1046 C 0.27356 0.66547 0.89891 0.0
C1047 C 0.31755 0.61428 0.87623 0.0
C1048 C 0.33975 0.62231 0.91727 0.0
C1049 C 0.25436 0.61757 0.83672 0.0
O1050 O 0.17216 0.62992 0.91888 0.0
O1051 O 0.10586 0.63392 0.92327 0.0
O1052 O 0.10019 0.5562 0.859 0.0
O1053 O 0.16492 0.55579 0.83915 0.0
O1054 O 0.03883 0.65382 0.84732 0.0
O1055 O 0.03209 0.5923 0.84352 0.0
O1056 O 0.10026 0.59208 0.77636 0.0
O1057 O 0.16492 0.60508 0.7674 0.0
O1058 O 0.16492 0.67486 0.82079 0.0
O1059 O 0.10492 0.66045 0.79383 0.0
C1060 C 0.14054 0.63686 0.94388 0.0
O1061 O 0.23459 0.59011 0.8571 0.0
O1062 O 0.23241 0.64171 0.81349 0.0
C1063 C 0.13224 0.53768 0.84795 0.0
C1064 C 0.99468 0.63022 0.78772 0.0
C1065 C 0.95658 0.64142 0.69607 0.0
C1066 C 0.97398 0.60598 0.70748 0.0
C1067 C 0.99289 0.60049 0.75255 0.0
C1068 C 0.97777 0.6657 0.77595 0.0
C1069 C 0.95918 0.67127 0.73093 0.0
C1070 C 1.01603 0.62556 0.83504 0.0
C1071 C 0.13183 0.59343 0.75017 0.0
H1072 H 0.28628 0.69569 0.96504 0.0
H1073 H 0.24693 0.68109 0.89357 0.0
H1074 H 0.32528 0.59021 0.85306 0.0
H1075 H 0.3646 0.60447 0.92485 0.0
H1076 H 0.97231 0.58215 0.68206 0.0
H1077 H 1.00599 0.57284 0.75982 0.0
H1078 H 0.97888 0.68934 0.80173 0.0
H1079 H 0.946 0.69895 0.72402 0.0
Tb1080 Tb 0.16551 0.43206 0.59149 0.0
Tb1081 Tb 0.16497 0.33723 0.59719 0.0
C1082 C 0.10072 0.38596 0.54125 0.0
C1083 C 0.14788 0.53328 0.61856 0.0
C1084 C 0.13174 0.57772 0.70067 0.0
C1085 C 0.10848 0.54598 0.68969 0.0
C1086 C 0.11679 0.52355 0.64889 0.0
C1087 C 0.16797 0.56755 0.62621 0.0
C1088 C 0.15994 0.58975 0.66725 0.0
C1089 C 0.16469 0.50435 0.58671 0.0
O1090 O 0.15238 0.42216 0.6689 0.0
O1091 O 0.14834 0.35587 0.67328 0.0
O1092 O 0.22607 0.3502 0.60903 0.0
O1093 O 0.22649 0.41492 0.58914 0.0
O1094 O 0.12846 0.28881 0.59734 0.0
O1095 O 0.18998 0.28209 0.59355 0.0
O1096 O 0.19021 0.35024 0.52638 0.0
O1097 O 0.17719 0.41489 0.51741 0.0
O1098 O 0.10741 0.41489 0.57083 0.0
O1099 O 0.12183 0.35489 0.54384 0.0
C1100 C 0.14542 0.39055 0.69389 0.0
O1101 O 0.19215 0.48459 0.6071 0.0
O1102 O 0.14056 0.48238 0.56348 0.0
C1103 C 0.2446 0.38225 0.59796 0.0
C1104 C 0.15207 0.24467 0.53774 0.0
C1105 C 0.14086 0.20658 0.44608 0.0
C1106 C 0.17631 0.22399 0.45749 0.0
C1107 C 0.18179 0.24289 0.50257 0.0
C1108 C 0.11659 0.22775 0.52597 0.0
C1109 C 0.11102 0.20916 0.48094 0.0
C1110 C 0.15672 0.26602 0.58507 0.0
C1111 C 0.18884 0.3818 0.50017 0.0
H1112 H 0.08656 0.53628 0.71502 0.0
H1113 H 0.10117 0.49692 0.64355 0.0
H1114 H 0.19204 0.57528 0.60303 0.0
H1115 H 0.17778 0.6146 0.67483 0.0
H1116 H 0.20013 0.22233 0.43206 0.0
H1117 H 0.20944 0.256 0.50984 0.0
H1118 H 0.09295 0.22885 0.55175 0.0
H1119 H 0.08334 0.19598 0.47404 0.0
Tb1120 Tb 0.35018 0.61677 0.35149 0.0
Tb1121 Tb 0.44502 0.61731 0.3458 0.0
C1122 C 0.39628 0.68156 0.40176 0.0
C1123 C 0.24897 0.6344 0.32439 0.0
C1124 C 0.20454 0.65055 0.24228 0.0
C1125 C 0.2363 0.67379 0.25326 0.0
C1126 C 0.25873 0.66548 0.29406 0.0
C1127 C 0.2147 0.61433 0.31675 0.0
C1128 C 0.1925 0.62237 0.27572 0.0
C1129 C 0.27789 0.61759 0.35625 0.0
O1130 O 0.3601 0.62991 0.27409 0.0
O1131 O 0.4264 0.63393 0.2697 0.0
O1132 O 0.43206 0.5562 0.33397 0.0
O1133 O 0.36733 0.55579 0.35383 0.0
O1134 O 0.49344 0.65381 0.34567 0.0
O1135 O 0.50016 0.59229 0.34944 0.0
O1136 O 0.43199 0.59209 0.41661 0.0
O1137 O 0.36733 0.60508 0.42557 0.0
O1138 O 0.36735 0.67487 0.37218 0.0
O1139 O 0.42734 0.66045 0.39915 0.0
C1140 C 0.39172 0.63687 0.2491 0.0
O1141 O 0.29766 0.59013 0.33585 0.0
O1142 O 0.29985 0.64171 0.37949 0.0
C1143 C 0.4 0.53768 0.34503 0.0
C1144 C 0.53758 0.6302 0.40525 0.0
C1145 C 0.57569 0.64139 0.4969 0.0
C1146 C 0.55831 0.60594 0.48546 0.0
C1147 C 0.53939 0.60046 0.44039 0.0
C1148 C 0.55447 0.66569 0.41706 0.0
C1149 C 0.57307 0.67125 0.46208 0.0
C1150 C 0.51623 0.62555 0.35793 0.0
C1151 C 0.40042 0.59344 0.44281 0.0
H1152 H 0.24601 0.6957 0.22793 0.0
H1153 H 0.28536 0.68109 0.29939 0.0
H1154 H 0.20695 0.59027 0.33993 0.0
H1155 H 0.16763 0.60454 0.26814 0.0
H1156 H 0.56 0.5821 0.51085 0.0
H1157 H 0.52631 0.5728 0.43309 0.0
H1158 H 0.55334 0.68934 0.3913 0.0
H1159 H 0.58623 0.69894 0.46901 0.0
Tb1160 Tb 0.16549 0.60021 0.10148 0.0
Tb1161 Tb 0.16498 0.69504 1.09579 0.0
C1162 C 0.10071 0.64633 0.15174 0.0
C1163 C 0.14784 0.49899 1.07442 0.0
C1164 C 0.1317 0.45455 0.9923 0.0
C1165 C 0.10845 0.48631 1.00328 0.0
C1166 C 0.11676 0.50874 1.04408 0.0
C1167 C 0.16791 0.46472 1.06677 0.0
C1168 C 0.15988 0.44251 1.02574 0.0
C1169 C 0.16466 0.52792 0.10626 0.0
O1170 O 0.15235 0.61012 1.02408 0.0
O1171 O 0.14836 0.67641 1.01969 0.0
O1172 O 0.22608 0.68207 1.08395 0.0
O1173 O 0.22648 0.61734 0.10383 0.0
O1174 O 0.12849 0.74347 1.09564 0.0
O1175 O 0.19001 0.75018 0.09943 0.0
O1176 O 0.1902 0.68203 0.1666 0.0
O1177 O 0.17717 0.61738 0.17556 0.0
O1178 O 0.1074 0.61739 0.12215 0.0
O1179 O 0.12183 0.67739 0.14914 0.0
C1180 C 0.1454 0.64173 0.99909 0.0
O1181 O 0.19212 0.54768 1.08586 0.0
O1182 O 0.14053 0.54989 0.1295 0.0
C1183 C 0.24459 0.65001 1.09502 0.0
C1184 C 0.1521 0.78761 0.15524 0.0
C1185 C 0.1409 0.8257 0.2469 0.0
C1186 C 0.17635 0.80833 0.23546 0.0
C1187 C 0.18183 0.78941 0.19038 0.0
C1188 C 0.11661 0.8045 0.16703 0.0
C1189 C 0.11105 0.82309 0.21206 0.0
C1190 C 0.15675 0.76625 0.10791 0.0
C1191 C 0.18883 0.65046 0.1928 0.0
H1192 H 0.08655 0.49601 0.97795 0.0
H1193 H 0.10115 0.53537 1.04942 0.0
H1194 H 0.19197 0.45698 1.08996 0.0
H1195 H 0.17771 0.41765 1.01816 0.0
H1196 H 0.20018 0.81001 0.26086 0.0
H1197 H 0.20949 0.77633 0.18309 0.0
H1198 H 0.09297 0.80338 0.14127 0.0
H1199 H 0.08335 0.83626 0.21899 0.0
Tb1200 Tb 0.18206 0.41551 0.8515 0.0
Tb1201 Tb 0.08723 0.41497 0.8458 0.0
C1202 C 0.13596 0.35072 0.90174 0.0
C1203 C 0.28328 0.39789 0.82443 0.0
C1204 C 0.32772 0.38175 0.74231 0.0
C1205 C 0.29598 0.35849 0.7533 0.0
C1206 C 0.27354 0.3668 0.7941 0.0
C1207 C 0.31755 0.41798 0.81678 0.0
C1208 C 0.33975 0.40995 0.77575 0.0
C1209 C 0.25435 0.4147 0.85629 0.0
O1210 O 0.17216 0.40238 0.77409 0.0
O1211 O 0.10587 0.39835 0.76971 0.0
O1212 O 0.10019 0.47608 0.83396 0.0
O1213 O 0.16491 0.4765 0.85385 0.0
O1214 O 0.03881 0.37846 0.84565 0.0
O1215 O 0.03209 0.43998 0.84944 0.0
O1216 O 0.10023 0.44021 0.91661 0.0
O1217 O 0.16489 0.42719 0.92558 0.0
O1218 O 0.16489 0.35741 0.87216 0.0
O1219 O 0.10489 0.37183 0.89914 0.0
C1220 C 0.14055 0.39541 0.7491 0.0
O1221 O 0.23459 0.44216 0.83589 0.0
O1222 O 0.23238 0.39057 0.87951 0.0
C1223 C 0.13224 0.4946 0.84503 0.0
C1224 C 0.99467 0.40207 0.90525 0.0
C1225 C 0.95658 0.39087 0.99691 0.0
C1226 C 0.97398 0.42631 0.9855 0.0
C1227 C 0.99289 0.43179 0.94042 0.0
C1228 C 0.97775 0.36659 0.91702 0.0
C1229 C 0.95916 0.36102 0.96205 0.0
C1230 C 1.01602 0.40672 0.85792 0.0
C1231 C 0.1318 0.43884 0.94282 0.0
H1232 H 0.28628 0.33657 0.72797 0.0
H1233 H 0.24692 0.35118 0.79944 0.0
H1234 H 0.32527 0.44205 0.83996 0.0
H1235 H 0.3646 0.42779 0.76817 0.0
H1236 H 0.97233 0.45013 1.01092 0.0
H1237 H 1.006 0.45944 0.93315 0.0
H1238 H 0.97885 0.34295 0.89124 0.0
H1239 H 0.94598 0.33334 0.96896 0.0
Tb1240 Tb 0.36676 0.43208 0.60151 0.0
Tb1241 Tb 0.36731 0.33725 0.59581 0.0
C1242 C 0.43156 0.386 0.65176 0.0
C1243 C 0.38437 0.5333 0.57441 0.0
C1244 C 0.40051 0.57773 0.4923 0.0
C1245 C 0.42377 0.54599 0.50328 0.0
C1246 C 0.41546 0.52357 0.54408 0.0
C1247 C 0.36428 0.56756 0.56676 0.0
C1248 C 0.3723 0.58976 0.52572 0.0
C1249 C 0.36757 0.50437 0.60627 0.0
O1250 O 0.37992 0.42217 0.52411 0.0
O1251 O 0.38392 0.35587 0.51971 0.0
O1252 O 0.3062 0.3502 0.58399 0.0
O1253 O 0.30578 0.41493 0.60385 0.0
O1254 O 0.40382 0.28883 0.59567 0.0
O1255 O 0.3423 0.2821 0.59947 0.0
O1256 O 0.34208 0.35027 0.66662 0.0
O1257 O 0.35508 0.41493 0.67559 0.0
O1258 O 0.42486 0.41493 0.6222 0.0
O1259 O 0.41045 0.35493 0.64915 0.0
C1260 C 0.38687 0.39056 0.49911 0.0
O1261 O 0.34011 0.4846 0.58589 0.0
O1262 O 0.3917 0.48242 0.6295 0.0
C1263 C 0.28768 0.38225 0.59504 0.0
C1264 C 0.38021 0.24469 0.65527 0.0
C1265 C 0.39142 0.20659 0.74692 0.0
C1266 C 0.35597 0.22399 0.7355 0.0
C1267 C 0.35049 0.2429 0.69043 0.0
C1268 C 0.4157 0.22778 0.66704 0.0
C1269 C 0.42126 0.20918 0.71206 0.0
C1270 C 0.37556 0.26604 0.60794 0.0
C1271 C 0.34344 0.38184 0.69283 0.0
H1272 H 0.44569 0.53629 0.47795 0.0
H1273 H 0.43109 0.49694 0.54942 0.0
H1274 H 0.3402 0.57529 0.58993 0.0
H1275 H 0.35446 0.61461 0.51814 0.0
H1276 H 0.33215 0.22232 0.76093 0.0
H1277 H 0.32284 0.256 0.68316 0.0
H1278 H 0.43934 0.22889 0.64126 0.0
H1279 H 0.44895 0.196 0.71896 0.0
loop_
_geom_bond_atom_site_label_1
_geom_bond_atom_site_label_2
_geom_bond_distance
_geom_bond_site_symmetry_2
_ccdc_geom_bond_type
Tb0 C9 2.764 . S
Tb0 O10 2.325 . S
Tb0 O13 2.303 . S
Tb0 O17 2.322 . S
Tb0 O18 2.349 . S
Tb0 O21 2.415 . S
Tb0 O22 2.399 . S
Tb1 O11 2.322 . S
Tb1 O12 2.349 . S
Tb1 O14 2.415 . S
Tb1 O15 2.399 . S
Tb1 O16 2.325 . S
Tb1 O19 2.303 . S
Tb1 C30 2.764 . S
C2 O18 1.261 . S
C2 O19 1.257 . S
C3 C6 1.358 . S
C3 C7 1.332 . S
C3 C9 1.504 1_655 S
C4 C5 1.373 . S
C4 C8 1.308 . S
C5 C4 1.373 . S
C5 C6 1.429 . S
C5 H32 0.932 . S
C6 C3 1.358 . S
C6 C5 1.429 . S
C6 H33 0.930 . S
C7 C3 1.332 . S
C7 C8 1.394 . S
C7 H34 0.932 1_655 S
C8 C4 1.308 . S
C8 C7 1.394 . S
C8 H35 0.929 . S
C9 Tb0 2.764 . S
C9 C3 1.504 1_455 S
C9 O21 1.239 . S
C9 O22 1.263 . S
O10 Tb0 2.325 . S
O10 C20 1.236 . S
O11 Tb1 2.322 . S
O11 C20 1.257 . S
O12 Tb1 2.349 . S
O12 C23 1.261 . S
O13 Tb0 2.303 . S
O13 C23 1.257 . S
O14 Tb1 2.415 . S
O14 C30 1.239 . S
O15 Tb1 2.399 . S
O15 C30 1.263 . S
O16 Tb1 2.325 . S
O16 C31 1.236 . S
O17 Tb0 2.322 . S
O17 C31 1.257 . S
O18 Tb0 2.349 . S
O18 C2 1.261 . S
O19 Tb1 2.303 . S
O19 C2 1.257 . S
C20 O10 1.236 . S
C20 O11 1.257 . S
O21 Tb0 2.415 . S
O21 C9 1.239 . S
O22 Tb0 2.399 . S
O22 C9 1.263 . S
C23 O12 1.261 . S
C23 O13 1.257 . S
C24 C27 1.358 . S
C24 C28 1.332 . S
C24 C30 1.504 . S
C25 C26 1.373 . S
C25 C29 1.308 . S
C26 C25 1.373 . S
C26 C27 1.429 . S
C26 H36 0.932 . S
C27 C24 1.358 . S
C27 C26 1.429 . S
C27 H37 0.930 . S
C28 C24 1.332 . S
C28 C29 1.394 . S
C28 H38 0.932 . S
C29 C25 1.308 . S
C29 C28 1.394 . S
C29 H39 0.929 . S
C30 Tb1 2.764 . S
C30 O14 1.239 . S
C30 O15 1.263 . S
C30 C24 1.504 . S
C31 O16 1.236 . S
C31 O17 1.257 . S
H32 C5 0.932 . S
H33 C6 0.930 . S
H34 C7 0.932 1_455 S
H35 C8 0.929 . S
H36 C26 0.932 . S
H37 C27 0.930 . S
H38 C28 0.932 . S
H39 C29 0.929 . S
Tb40 C49 2.764 . S
Tb40 O50 2.325 . S
Tb40 O53 2.303 . S
Tb40 O57 2.322 . S
Tb40 O58 2.349 . S
Tb40 O61 2.415 . S
Tb40 O62 2.399 . S
Tb41 O51 2.322 . S
Tb41 O52 2.349 . S
Tb41 O54 2.415 . S
Tb41 O55 2.399 . S
Tb41 O56 2.325 . S
Tb41 O59 2.303 . S
Tb41 C70 2.764 . S
C42 O58 1.261 . S
C42 O59 1.257 . S
C43 C46 1.358 . S
C43 C47 1.332 . S
C43 C49 1.504 . S
C44 C45 1.373 . S
C44 C48 1.308 . S
C45 C44 1.373 . S
C45 C46 1.429 . S
C45 H72 0.932 . S
C46 C43 1.358 . S
C46 C45 1.429 . S
C46 H73 0.930 . S
C47 C43 1.332 . S
C47 C48 1.394 . S
C47 H74 0.932 . S
C48 C44 1.308 . S
C48 C47 1.394 . S
C48 H75 0.929 . S
C49 Tb40 2.764 . S
C49 C43 1.504 . S
C49 O61 1.239 . S
C49 O62 1.263 . S
O50 Tb40 2.325 . S
O50 C60 1.236 . S
O51 Tb41 2.322 . S
O51 C60 1.257 . S
O52 Tb41 2.349 . S
O52 C63 1.261 . S
O53 Tb40 2.303 . S
O53 C63 1.257 . S
O54 Tb41 2.415 . S
O54 C70 1.239 . S
O55 Tb41 2.399 . S
O55 C70 1.263 . S
O56 Tb41 2.325 . S
O56 C71 1.236 . S
O57 Tb40 2.322 . S
O57 C71 1.257 . S
O58 Tb40 2.349 . S
O58 C42 1.261 . S
O59 Tb41 2.303 . S
O59 C42 1.257 . S
C60 O50 1.236 . S
C60 O51 1.257 . S
O61 Tb40 2.415 . S
O61 C49 1.239 . S
O62 Tb40 2.399 . S
O62 C49 1.263 . S
C63 O52 1.261 . S
C63 O53 1.257 . S
C64 C67 1.358 . S
C64 C68 1.332 . S
C64 C70 1.504 1_545 S
C65 C66 1.373 . S
C65 C69 1.308 . S
C66 C65 1.373 . S
C66 C67 1.429 . S
C66 H76 0.932 . S
C67 C64 1.358 . S
C67 C66 1.429 . S
C67 H77 0.930 . S
C68 C64 1.332 . S
C68 C69 1.394 . S
C68 H78 0.932 1_545 S
C69 C65 1.308 . S
C69 C68 1.394 . S
C69 H79 0.929 . S
C70 Tb41 2.764 . S
C70 O54 1.239 . S
C70 O55 1.263 . S
C70 C64 1.504 1_565 S
C71 O56 1.236 . S
C71 O57 1.257 . S
H72 C45 0.932 . S
H73 C46 0.930 . S
H74 C47 0.932 . S
H75 C48 0.929 . S
H76 C66 0.932 . S
H77 C67 0.930 . S
H78 C68 0.932 1_565 S
H79 C69 0.929 . S
Tb80 C89 2.764 . S
Tb80 O90 2.325 . S
Tb80 O93 2.303 . S
Tb80 O97 2.322 . S
Tb80 O98 2.349 . S
Tb80 O101 2.415 . S
Tb80 O102 2.399 . S
Tb81 O91 2.322 . S
Tb81 O92 2.349 . S
Tb81 O94 2.415 . S
Tb81 O95 2.399 . S
Tb81 O96 2.325 . S
Tb81 O99 2.303 . S
Tb81 C110 2.764 . S
C82 O98 1.261 . S
C82 O99 1.257 . S
C83 C86 1.358 . S
C83 C87 1.332 . S
C83 C89 1.504 . S
C84 C85 1.373 . S
C84 C88 1.308 . S
C85 C84 1.373 . S
C85 C86 1.429 . S
C85 H112 0.932 . S
C86 C83 1.358 . S
C86 C85 1.429 . S
C86 H113 0.930 . S
C87 C83 1.332 . S
C87 C88 1.394 . S
C87 H114 0.932 . S
C88 C84 1.308 . S
C88 C87 1.394 . S
C88 H115 0.929 . S
C89 Tb80 2.764 . S
C89 C83 1.504 . S
C89 O101 1.239 . S
C89 O102 1.263 . S
O90 Tb80 2.325 . S
O90 C100 1.236 . S
O91 Tb81 2.322 . S
O91 C100 1.257 . S
O92 Tb81 2.349 . S
O92 C103 1.261 . S
O93 Tb80 2.303 . S
O93 C103 1.257 . S
O94 Tb81 2.415 . S
O94 C110 1.239 . S
O95 Tb81 2.399 . S
O95 C110 1.263 . S
O96 Tb81 2.325 . S
O96 C111 1.236 . S
O97 Tb80 2.322 . S
O97 C111 1.257 . S
O98 Tb80 2.349 . S
O98 C82 1.261 . S
O99 Tb81 2.303 . S
O99 C82 1.257 . S
C100 O90 1.236 . S
C100 O91 1.257 . S
O101 Tb80 2.415 . S
O101 C89 1.239 . S
O102 Tb80 2.399 . S
O102 C89 1.263 . S
C103 O92 1.261 . S
C103 O93 1.257 . S
C104 C107 1.358 . S
C104 C108 1.332 . S
C104 C110 1.504 . S
C105 C106 1.373 . S
C105 C109 1.308 . S
C106 C105 1.373 . S
C106 C107 1.429 . S
C106 H116 0.932 . S
C107 C104 1.358 . S
C107 C106 1.429 . S
C107 H117 0.930 . S
C108 C104 1.332 . S
C108 C109 1.394 . S
C108 H118 0.932 . S
C109 C105 1.308 . S
C109 C108 1.394 . S
C109 H119 0.929 . S
C110 Tb81 2.764 . S
C110 O94 1.239 . S
C110 O95 1.263 . S
C110 C104 1.504 . S
C111 O96 1.236 . S
C111 O97 1.257 . S
H112 C85 0.932 . S
H113 C86 0.930 . S
H114 C87 0.932 . S
H115 C88 0.929 . S
H116 C106 0.932 . S
H117 C107 0.930 . S
H118 C108 0.932 . S
H119 C109 0.929 . S
Tb120 C129 2.764 . S
Tb120 O130 2.325 . S
Tb120 O133 2.303 . S
Tb120 O137 2.322 1_554 S
Tb120 O138 2.349 1_554 S
Tb120 O141 2.415 . S
Tb120 O142 2.399 . S
Tb121 O131 2.334 . S
Tb121 O132 2.355 . S
Tb121 O134 2.405 1_554 S
Tb121 O135 2.393 1_554 S
Tb121 O136 2.316 1_554 S
Tb121 O139 2.300 1_554 S
Tb121 C150 2.755 1_554 S
C122 O138 1.261 . S
C122 O139 1.257 . S
C123 C126 1.358 . S
C123 C127 1.332 . S
C123 C129 1.504 . S
C124 C125 1.373 . S
C124 C128 1.308 . S
C125 C124 1.373 . S
C125 C126 1.429 . S
C125 H152 0.932 . S
C126 C123 1.358 . S
C126 C125 1.429 . S
C126 H153 0.930 . S
C127 C123 1.332 . S
C127 C128 1.394 . S
C127 H154 0.932 . S
C128 C124 1.308 . S
C128 C127 1.394 . S
C128 H155 0.929 . S
C129 Tb120 2.764 . S
C129 C123 1.504 . S
C129 O141 1.239 . S
C129 O142 1.263 . S
O130 Tb120 2.325 . S
O130 C140 1.236 . S
O131 Tb121 2.334 . S
O131 C140 1.257 . S
O132 Tb121 2.355 . S
O132 C143 1.261 . S
O133 Tb120 2.303 . S
O133 C143 1.257 . S
O134 Tb121 2.405 1_556 S
O134 C150 1.239 . S
O135 Tb121 2.393 1_556 S
O135 C150 1.263 . S
O136 Tb121 2.316 1_556 S
O136 C151 1.236 . S
O137 Tb120 2.322 1_556 S
O137 C151 1.257 . S
O138 Tb120 2.349 1_556 S
O138 C122 1.261 . S
O139 Tb121 2.300 1_556 S
O139 C122 1.257 . S
C140 O130 1.236 . S
C140 O131 1.257 . S
O141 Tb120 2.415 . S
O141 C129 1.239 . S
O142 Tb120 2.399 . S
O142 C129 1.263 . S
C143 O132 1.261 . S
C143 O133 1.257 . S
C144 C147 1.358 . S
C144 C148 1.332 . S
C144 C150 1.504 1_565 S
C145 C146 1.373 . S
C145 C149 1.308 . S
C146 C145 1.373 . S
C146 C147 1.429 . S
C146 H156 0.932 . S
C147 C144 1.358 . S
C147 C146 1.429 . S
C147 H157 0.930 . S
C148 C144 1.332 . S
C148 C149 1.394 . S
C148 H158 0.932 1_565 S
C149 C145 1.308 . S
C149 C148 1.394 . S
C149 H159 0.929 . S
C150 Tb121 2.755 1_556 S
C150 O134 1.239 . S
C150 O135 1.263 . S
C150 C144 1.504 1_545 S
C151 O136 1.236 . S
C151 O137 1.257 . S
H152 C125 0.932 . S
H153 C126 0.930 . S
H154 C127 0.932 . S
H155 C128 0.929 . S
H156 C146 0.932 . S
H157 C147 0.930 . S
H158 C148 0.932 1_545 S
H159 C149 0.929 . S
Tb160 C169 2.764 . S
Tb160 O170 2.325 . S
Tb160 O173 2.303 . S
Tb160 O177 2.322 . S
Tb160 O178 2.349 . S
Tb160 O181 2.415 . S
Tb160 O182 2.399 . S
Tb161 O171 2.322 . S
Tb161 O172 2.349 . S
Tb161 O174 2.415 . S
Tb161 O175 2.399 . S
Tb161 O176 2.325 . S
Tb161 O179 2.303 . S
Tb161 C190 2.764 . S
C162 O178 1.261 . S
C162 O179 1.257 . S
C163 C166 1.358 . S
C163 C167 1.332 . S
C163 C169 1.504 1_655 S
C164 C165 1.373 . S
C164 C168 1.308 . S
C165 C164 1.373 . S
C165 C166 1.429 . S
C165 H192 0.932 . S
C166 C163 1.358 . S
C166 C165 1.429 . S
C166 H193 0.930 . S
C167 C163 1.332 . S
C167 C168 1.394 . S
C167 H194 0.932 1_655 S
C168 C164 1.308 . S
C168 C167 1.394 . S
C168 H195 0.929 . S
C169 Tb160 2.764 . S
C169 C163 1.504 1_455 S
C169 O181 1.239 . S
C169 O182 1.263 . S
O170 Tb160 2.325 . S
O170 C180 1.236 . S
O171 Tb161 2.322 . S
O171 C180 1.257 . S
O172 Tb161 2.349 . S
O172 C183 1.261 . S
O173 Tb160 2.303 . S
O173 C183 1.257 . S
O174 Tb161 2.415 . S
O174 C190 1.239 . S
O175 Tb161 2.399 . S
O175 C190 1.263 . S
O176 Tb161 2.325 . S
O176 C191 1.236 . S
O177 Tb160 2.322 . S
O177 C191 1.257 . S
O178 Tb160 2.349 . S
O178 C162 1.261 . S
O179 Tb161 2.303 . S
O179 C162 1.257 . S
C180 O170 1.236 . S
C180 O171 1.257 . S
O181 Tb160 2.415 . S
O181 C169 1.239 . S
O182 Tb160 2.399 . S
O182 C169 1.263 . S
C183 O172 1.261 . S
C183 O173 1.257 . S
C184 C187 1.358 . S
C184 C188 1.332 . S
C184 C190 1.504 . S
C185 C186 1.373 . S
C185 C189 1.308 . S
C186 C185 1.373 . S
C186 C187 1.429 . S
C186 H196 0.932 . S
C187 C184 1.358 . S
C187 C186 1.429 . S
C187 H197 0.930 . S
C188 C184 1.332 . S
C188 C189 1.394 . S
C188 H198 0.932 . S
C189 C185 1.308 . S
C189 C188 1.394 . S
C189 H199 0.929 . S
C190 Tb161 2.764 . S
C190 O174 1.239 . S
C190 O175 1.263 . S
C190 C184 1.504 . S
C191 O176 1.236 . S
C191 O177 1.257 . S
H192 C165 0.932 . S
H193 C166 0.930 . S
H194 C167 0.932 1_455 S
H195 C168 0.929 . S
H196 C186 0.932 . S
H197 C187 0.930 . S
H198 C188 0.932 . S
H199 C189 0.929 . S
Tb200 C209 2.764 . S
Tb200 O210 2.325 . S
Tb200 O213 2.303 . S
Tb200 O217 2.322 . S
Tb200 O218 2.349 . S
Tb200 O221 2.415 . S
Tb200 O222 2.399 . S
Tb201 O211 2.322 . S
Tb201 O212 2.349 . S
Tb201 O214 2.415 . S
Tb201 O215 2.399 . S
Tb201 O216 2.325 . S
Tb201 O219 2.303 . S
Tb201 C230 2.764 . S
C202 O218 1.261 . S
C202 O219 1.257 . S
C203 C206 1.358 . S
C203 C207 1.332 . S
C203 C209 1.504 . S
C204 C205 1.373 . S
C204 C208 1.308 . S
C205 C204 1.373 . S
C205 C206 1.429 . S
C205 H232 0.932 . S
C206 C203 1.358 . S
C206 C205 1.429 . S
C206 H233 0.930 . S
C207 C203 1.332 . S
C207 C208 1.394 . S
C207 H234 0.932 . S
C208 C204 1.308 . S
C208 C207 1.394 . S
C208 H235 0.929 . S
C209 Tb200 2.764 . S
C209 C203 1.504 . S
C209 O221 1.239 . S
C209 O222 1.263 . S
O210 Tb200 2.325 . S
O210 C220 1.236 . S
O211 Tb201 2.322 . S
O211 C220 1.257 . S
O212 Tb201 2.349 . S
O212 C223 1.261 . S
O213 Tb200 2.303 . S
O213 C223 1.257 . S
O214 Tb201 2.415 . S
O214 C230 1.239 . S
O215 Tb201 2.399 . S
O215 C230 1.263 . S
O216 Tb201 2.325 . S
O216 C231 1.236 . S
O217 Tb200 2.322 . S
O217 C231 1.257 . S
O218 Tb200 2.349 . S
O218 C202 1.261 . S
O219 Tb201 2.303 . S
O219 C202 1.257 . S
C220 O210 1.236 . S
C220 O211 1.257 . S
O221 Tb200 2.415 . S
O221 C209 1.239 . S
O222 Tb200 2.399 . S
O222 C209 1.263 . S
C223 O212 1.261 . S
C223 O213 1.257 . S
C224 C227 1.358 . S
C224 C228 1.332 . S
C224 C230 1.504 1_545 S
C225 C226 1.373 . S
C225 C229 1.308 . S
C226 C225 1.373 . S
C226 C227 1.429 . S
C226 H236 0.932 . S
C227 C224 1.358 . S
C227 C226 1.429 . S
C227 H237 0.930 . S
C228 C224 1.332 . S
C228 C229 1.394 . S
C228 H238 0.932 1_545 S
C229 C225 1.308 . S
C229 C228 1.394 . S
C229 H239 0.929 . S
C230 Tb201 2.764 . S
C230 O214 1.239 . S
C230 O215 1.263 . S
C230 C224 1.504 1_565 S
C231 O216 1.236 . S
C231 O217 1.257 . S
H232 C205 0.932 . S
H233 C206 0.930 . S
H234 C207 0.932 . S
H235 C208 0.929 . S
H236 C226 0.932 . S
H237 C227 0.930 . S
H238 C228 0.932 1_565 S
H239 C229 0.929 . S
Tb240 C249 2.764 . S
Tb240 O250 2.325 . S
Tb240 O253 2.303 . S
Tb240 O257 2.322 . S
Tb240 O258 2.349 . S
Tb240 O261 2.415 . S
Tb240 O262 2.399 . S
Tb241 O251 2.322 . S
Tb241 O252 2.349 . S
Tb241 O254 2.415 . S
Tb241 O255 2.399 . S
Tb241 O256 2.325 . S
Tb241 O259 2.303 . S
Tb241 C270 2.764 . S
C242 O258 1.261 . S
C242 O259 1.257 . S
C243 C246 1.358 . S
C243 C247 1.332 . S
C243 C249 1.504 . S
C244 C245 1.373 . S
C244 C248 1.308 . S
C245 C244 1.373 . S
C245 C246 1.429 . S
C245 H272 0.932 . S
C246 C243 1.358 . S
C246 C245 1.429 . S
C246 H273 0.930 . S
C247 C243 1.332 . S
C247 C248 1.394 . S
C247 H274 0.932 . S
C248 C244 1.308 . S
C248 C247 1.394 . S
C248 H275 0.929 . S
C249 Tb240 2.764 . S
C249 C243 1.504 . S
C249 O261 1.239 . S
C249 O262 1.263 . S
O250 Tb240 2.325 . S
O250 C260 1.236 . S
O251 Tb241 2.322 . S
O251 C260 1.257 . S
O252 Tb241 2.349 . S
O252 C263 1.261 . S
O253 Tb240 2.303 . S
O253 C263 1.257 . S
O254 Tb241 2.415 . S
O254 C270 1.239 . S
O255 Tb241 2.399 . S
O255 C270 1.263 . S
O256 Tb241 2.325 . S
O256 C271 1.236 . S
O257 Tb240 2.322 . S
O257 C271 1.257 . S
O258 Tb240 2.349 . S
O258 C242 1.261 . S
O259 Tb241 2.303 . S
O259 C242 1.257 . S
C260 O250 1.236 . S
C260 O251 1.257 . S
O261 Tb240 2.415 . S
O261 C249 1.239 . S
O262 Tb240 2.399 . S
O262 C249 1.263 . S
C263 O252 1.261 . S
C263 O253 1.257 . S
C264 C267 1.358 . S
C264 C268 1.332 . S
C264 C270 1.504 . S
C265 C266 1.373 . S
C265 C269 1.308 . S
C266 C265 1.373 . S
C266 C267 1.429 . S
C266 H276 0.932 . S
C267 C264 1.358 . S
C267 C266 1.429 . S
C267 H277 0.930 . S
C268 C264 1.332 . S
C268 C269 1.394 . S
C268 H278 0.932 . S
C269 C265 1.308 . S
C269 C268 1.394 . S
C269 H279 0.929 . S
C270 Tb241 2.764 . S
C270 O254 1.239 . S
C270 O255 1.263 . S
C270 C264 1.504 . S
C271 O256 1.236 . S
C271 O257 1.257 . S
H272 C245 0.932 . S
H273 C246 0.930 . S
H274 C247 0.932 . S
H275 C248 0.929 . S
H276 C266 0.932 . S
H277 C267 0.930 . S
H278 C268 0.932 . S
H279 C269 0.929 . S
Tb280 C289 2.764 . S
Tb280 O290 2.325 . S
Tb280 O293 2.303 . S
Tb280 O297 2.322 1_556 S
Tb280 O298 2.349 1_556 S
Tb280 O301 2.415 . S
Tb280 O302 2.399 . S
Tb281 O291 2.334 . S
Tb281 O292 2.355 . S
Tb281 O294 2.405 1_556 S
Tb281 O295 2.393 1_556 S
Tb281 O296 2.316 1_556 S
Tb281 O299 2.300 1_556 S
Tb281 C310 2.755 1_556 S
C282 O298 1.261 . S
C282 O299 1.257 . S
C283 C286 1.358 . S
C283 C287 1.332 . S
C283 C289 1.504 . S
C284 C285 1.373 . S
C284 C288 1.308 . S
C285 C284 1.373 . S
C285 C286 1.429 . S
C285 H312 0.932 . S
C286 C283 1.358 . S
C286 C285 1.429 . S
C286 H313 0.930 . S
C287 C283 1.332 . S
C287 C288 1.394 . S
C287 H314 0.932 . S
C288 C284 1.308 . S
C288 C287 1.394 . S
C288 H315 0.929 . S
C289 Tb280 2.764 . S
C289 C283 1.504 . S
C289 O301 1.239 . S
C289 O302 1.263 . S
O290 Tb280 2.325 . S
O290 C300 1.236 . S
O291 Tb281 2.334 . S
O291 C300 1.257 . S
O292 Tb281 2.355 . S
O292 C303 1.261 . S
O293 Tb280 2.303 . S
O293 C303 1.257 . S
O294 Tb281 2.405 1_554 S
O294 C310 1.239 . S
O295 Tb281 2.393 1_554 S
O295 C310 1.263 . S
O296 Tb281 2.316 1_554 S
O296 C311 1.236 . S
O297 Tb280 2.322 1_554 S
O297 C311 1.257 . S
O298 Tb280 2.349 1_554 S
O298 C282 1.261 . S
O299 Tb281 2.300 1_554 S
O299 C282 1.257 . S
C300 O290 1.236 . S
C300 O291 1.257 . S
O301 Tb280 2.415 . S
O301 C289 1.239 . S
O302 Tb280 2.399 . S
O302 C289 1.263 . S
C303 O292 1.261 . S
C303 O293 1.257 . S
C304 C307 1.358 . S
C304 C308 1.332 . S
C304 C310 1.504 1_565 S
C305 C306 1.373 . S
C305 C309 1.308 . S
C306 C305 1.373 . S
C306 C307 1.429 . S
C306 H316 0.932 . S
C307 C304 1.358 . S
C307 C306 1.429 . S
C307 H317 0.930 . S
C308 C304 1.332 . S
C308 C309 1.394 . S
C308 H318 0.932 1_565 S
C309 C305 1.308 . S
C309 C308 1.394 . S
C309 H319 0.929 . S
C310 Tb281 2.755 1_554 S
C310 O294 1.239 . S
C310 O295 1.263 . S
C310 C304 1.504 1_545 S
C311 O296 1.236 . S
C311 O297 1.257 . S
H312 C285 0.932 . S
H313 C286 0.930 . S
H314 C287 0.932 . S
H315 C288 0.929 . S
H316 C306 0.932 . S
H317 C307 0.930 . S
H318 C308 0.932 1_545 S
H319 C309 0.929 . S
Tb320 C329 2.764 . S
Tb320 O330 2.325 . S
Tb320 O333 2.303 . S
Tb320 O337 2.322 . S
Tb320 O338 2.349 . S
Tb320 O341 2.415 . S
Tb320 O342 2.399 . S
Tb321 O331 2.322 . S
Tb321 O332 2.349 . S
Tb321 O334 2.415 . S
Tb321 O335 2.399 . S
Tb321 O336 2.325 . S
Tb321 O339 2.303 . S
Tb321 C350 2.764 . S
C322 O338 1.261 . S
C322 O339 1.257 . S
C323 C326 1.358 . S
C323 C327 1.332 . S
C323 C329 1.504 . S
C324 C325 1.373 . S
C324 C328 1.308 . S
C325 C324 1.373 . S
C325 C326 1.429 . S
C325 H352 0.932 . S
C326 C323 1.358 . S
C326 C325 1.429 . S
C326 H353 0.930 . S
C327 C323 1.332 . S
C327 C328 1.394 . S
C327 H354 0.932 . S
C328 C324 1.308 . S
C328 C327 1.394 . S
C328 H355 0.929 . S
C329 Tb320 2.764 . S
C329 C323 1.504 . S
C329 O341 1.239 . S
C329 O342 1.263 . S
O330 Tb320 2.325 . S
O330 C340 1.236 . S
O331 Tb321 2.322 . S
O331 C340 1.257 . S
O332 Tb321 2.349 . S
O332 C343 1.261 . S
O333 Tb320 2.303 . S
O333 C343 1.257 . S
O334 Tb321 2.415 . S
O334 C350 1.239 . S
O335 Tb321 2.399 . S
O335 C350 1.263 . S
O336 Tb321 2.325 . S
O336 C351 1.236 . S
O337 Tb320 2.322 . S
O337 C351 1.257 . S
O338 Tb320 2.349 . S
O338 C322 1.261 . S
O339 Tb321 2.303 . S
O339 C322 1.257 . S
C340 O330 1.236 . S
C340 O331 1.257 . S
O341 Tb320 2.415 . S
O341 C329 1.239 . S
O342 Tb320 2.399 . S
O342 C329 1.263 . S
C343 O332 1.261 . S
C343 O333 1.257 . S
C344 C347 1.358 . S
C344 C348 1.332 . S
C344 C350 1.504 1_455 S
C345 C346 1.373 . S
C345 C349 1.308 . S
C346 C345 1.373 . S
C346 C347 1.429 . S
C346 H356 0.932 . S
C347 C344 1.358 . S
C347 C346 1.429 . S
C347 H357 0.930 . S
C348 C344 1.332 . S
C348 C349 1.394 . S
C348 H358 0.932 1_455 S
C349 C345 1.308 . S
C349 C348 1.394 . S
C349 H359 0.929 . S
C350 Tb321 2.764 . S
C350 O334 1.239 . S
C350 O335 1.263 . S
C350 C344 1.504 1_655 S
C351 O336 1.236 . S
C351 O337 1.257 . S
H352 C325 0.932 . S
H353 C326 0.930 . S
H354 C327 0.932 . S
H355 C328 0.929 . S
H356 C346 0.932 . S
H357 C347 0.930 . S
H358 C348 0.932 1_655 S
H359 C349 0.929 . S
Tb360 C369 2.764 . S
Tb360 O370 2.325 . S
Tb360 O373 2.303 . S
Tb360 O377 2.322 . S
Tb360 O378 2.349 . S
Tb360 O381 2.415 . S
Tb360 O382 2.399 . S
Tb361 O371 2.322 . S
Tb361 O372 2.349 . S
Tb361 O374 2.415 . S
Tb361 O375 2.399 . S
Tb361 O376 2.325 . S
Tb361 O379 2.303 . S
Tb361 C390 2.764 . S
C362 O378 1.261 . S
C362 O379 1.257 . S
C363 C366 1.358 . S
C363 C367 1.332 . S
C363 C369 1.504 1_565 S
C364 C365 1.373 . S
C364 C368 1.308 . S
C365 C364 1.373 . S
C365 C366 1.429 . S
C365 H392 0.932 . S
C366 C363 1.358 . S
C366 C365 1.429 . S
C366 H393 0.930 . S
C367 C363 1.332 . S
C367 C368 1.394 . S
C367 H394 0.932 1_565 S
C368 C364 1.308 . S
C368 C367 1.394 . S
C368 H395 0.929 . S
C369 Tb360 2.764 . S
C369 C363 1.504 1_545 S
C369 O381 1.239 . S
C369 O382 1.263 . S
O370 Tb360 2.325 . S
O370 C380 1.236 . S
O371 Tb361 2.322 . S
O371 C380 1.257 . S
O372 Tb361 2.349 . S
O372 C383 1.261 . S
O373 Tb360 2.303 . S
O373 C383 1.257 . S
O374 Tb361 2.415 . S
O374 C390 1.239 . S
O375 Tb361 2.399 . S
O375 C390 1.263 . S
O376 Tb361 2.325 . S
O376 C391 1.236 . S
O377 Tb360 2.322 . S
O377 C391 1.257 . S
O378 Tb360 2.349 . S
O378 C362 1.261 . S
O379 Tb361 2.303 . S
O379 C362 1.257 . S
C380 O370 1.236 . S
C380 O371 1.257 . S
O381 Tb360 2.415 . S
O381 C369 1.239 . S
O382 Tb360 2.399 . S
O382 C369 1.263 . S
C383 O372 1.261 . S
C383 O373 1.257 . S
C384 C387 1.358 . S
C384 C388 1.332 . S
C384 C390 1.504 . S
C385 C386 1.373 . S
C385 C389 1.308 . S
C386 C385 1.373 . S
C386 C387 1.429 . S
C386 H396 0.932 . S
C387 C384 1.358 . S
C387 C386 1.429 . S
C387 H397 0.930 . S
C388 C384 1.332 . S
C388 C389 1.394 . S
C388 H398 0.932 . S
C389 C385 1.308 . S
C389 C388 1.394 . S
C389 H399 0.929 . S
C390 Tb361 2.764 . S
C390 O374 1.239 . S
C390 O375 1.263 . S
C390 C384 1.504 . S
C391 O376 1.236 . S
C391 O377 1.257 . S
H392 C365 0.932 . S
H393 C366 0.930 . S
H394 C367 0.932 1_545 S
H395 C368 0.929 . S
H396 C386 0.932 . S
H397 C387 0.930 . S
H398 C388 0.932 . S
H399 C389 0.929 . S
Tb400 C409 2.764 . S
Tb400 O410 2.325 . S
Tb400 O413 2.303 . S
Tb400 O417 2.322 . S
Tb400 O418 2.349 . S
Tb400 O421 2.415 . S
Tb400 O422 2.399 . S
Tb401 O411 2.322 . S
Tb401 O412 2.349 . S
Tb401 O414 2.415 . S
Tb401 O415 2.399 . S
Tb401 O416 2.325 . S
Tb401 O419 2.303 . S
Tb401 C430 2.764 . S
C402 O418 1.261 . S
C402 O419 1.257 . S
C403 C406 1.358 . S
C403 C407 1.332 . S
C403 C409 1.504 . S
C404 C405 1.373 . S
C404 C408 1.308 . S
C405 C404 1.373 . S
C405 C406 1.429 . S
C405 H432 0.932 . S
C406 C403 1.358 . S
C406 C405 1.429 . S
C406 H433 0.930 . S
C407 C403 1.332 . S
C407 C408 1.394 . S
C407 H434 0.932 . S
C408 C404 1.308 . S
C408 C407 1.394 . S
C408 H435 0.929 . S
C409 Tb400 2.764 . S
C409 C403 1.504 . S
C409 O421 1.239 . S
C409 O422 1.263 . S
O410 Tb400 2.325 . S
O410 C420 1.236 . S
O411 Tb401 2.322 . S
O411 C420 1.257 . S
O412 Tb401 2.349 . S
O412 C423 1.261 . S
O413 Tb400 2.303 . S
O413 C423 1.257 . S
O414 Tb401 2.415 . S
O414 C430 1.239 . S
O415 Tb401 2.399 . S
O415 C430 1.263 . S
O416 Tb401 2.325 . S
O416 C431 1.236 . S
O417 Tb400 2.322 . S
O417 C431 1.257 . S
O418 Tb400 2.349 . S
O418 C402 1.261 . S
O419 Tb401 2.303 . S
O419 C402 1.257 . S
C420 O410 1.236 . S
C420 O411 1.257 . S
O421 Tb400 2.415 . S
O421 C409 1.239 . S
O422 Tb400 2.399 . S
O422 C409 1.263 . S
C423 O412 1.261 . S
C423 O413 1.257 . S
C424 C427 1.358 . S
C424 C428 1.332 . S
C424 C430 1.504 . S
C425 C426 1.373 . S
C425 C429 1.308 . S
C426 C425 1.373 . S
C426 C427 1.429 . S
C426 H436 0.932 . S
C427 C424 1.358 . S
C427 C426 1.429 . S
C427 H437 0.930 . S
C428 C424 1.332 . S
C428 C429 1.394 . S
C428 H438 0.932 . S
C429 C425 1.308 . S
C429 C428 1.394 . S
C429 H439 0.929 . S
C430 Tb401 2.764 . S
C430 O414 1.239 . S
C430 O415 1.263 . S
C430 C424 1.504 . S
C431 O416 1.236 . S
C431 O417 1.257 . S
H432 C405 0.932 . S
H433 C406 0.930 . S
H434 C407 0.932 . S
H435 C408 0.929 . S
H436 C426 0.932 . S
H437 C427 0.930 . S
H438 C428 0.932 . S
H439 C429 0.929 . S
Tb440 C449 2.755 1_556 S
Tb440 O450 2.316 1_556 S
Tb440 O453 2.300 1_556 S
Tb440 O457 2.333 . S
Tb440 O458 2.355 . S
Tb440 O461 2.405 1_556 S
Tb440 O462 2.393 1_556 S
Tb441 O451 2.322 1_556 S
Tb441 O452 2.349 1_556 S
Tb441 O454 2.415 . S
Tb441 O455 2.399 . S
Tb441 O456 2.325 . S
Tb441 O459 2.303 . S
Tb441 C470 2.764 . S
C442 O458 1.261 . S
C442 O459 1.257 . S
C443 C446 1.358 . S
C443 C447 1.332 . S
C443 C449 1.504 1_545 S
C444 C445 1.373 . S
C444 C448 1.308 . S
C445 C444 1.373 . S
C445 C446 1.429 . S
C445 H472 0.932 . S
C446 C443 1.358 . S
C446 C445 1.429 . S
C446 H473 0.930 . S
C447 C443 1.332 . S
C447 C448 1.394 . S
C447 H474 0.932 1_545 S
C448 C444 1.308 . S
C448 C447 1.394 . S
C448 H475 0.929 . S
C449 Tb440 2.755 1_554 S
C449 C443 1.504 1_565 S
C449 O461 1.239 . S
C449 O462 1.263 . S
O450 Tb440 2.316 1_554 S
O450 C460 1.236 . S
O451 Tb441 2.322 1_554 S
O451 C460 1.257 . S
O452 Tb441 2.349 1_554 S
O452 C463 1.261 . S
O453 Tb440 2.300 1_554 S
O453 C463 1.257 . S
O454 Tb441 2.415 . S
O454 C470 1.239 . S
O455 Tb441 2.399 . S
O455 C470 1.263 . S
O456 Tb441 2.325 . S
O456 C471 1.236 . S
O457 Tb440 2.333 . S
O457 C471 1.257 . S
O458 Tb440 2.355 . S
O458 C442 1.261 . S
O459 Tb441 2.303 . S
O459 C442 1.257 . S
C460 O450 1.236 . S
C460 O451 1.257 . S
O461 Tb440 2.405 1_554 S
O461 C449 1.239 . S
O462 Tb440 2.393 1_554 S
O462 C449 1.263 . S
C463 O452 1.261 . S
C463 O453 1.257 . S
C464 C467 1.358 . S
C464 C468 1.332 . S
C464 C470 1.504 . S
C465 C466 1.373 . S
C465 C469 1.308 . S
C466 C465 1.373 . S
C466 C467 1.429 . S
C466 H476 0.932 . S
C467 C464 1.358 . S
C467 C466 1.429 . S
C467 H477 0.930 . S
C468 C464 1.332 . S
C468 C469 1.394 . S
C468 H478 0.932 . S
C469 C465 1.308 . S
C469 C468 1.394 . S
C469 H479 0.929 . S
C470 Tb441 2.764 . S
C470 O454 1.239 . S
C470 O455 1.263 . S
C470 C464 1.504 . S
C471 O456 1.236 . S
C471 O457 1.257 . S
H472 C445 0.932 . S
H473 C446 0.930 . S
H474 C447 0.932 1_565 S
H475 C448 0.929 . S
H476 C466 0.932 . S
H477 C467 0.930 . S
H478 C468 0.932 . S
H479 C469 0.929 . S
Tb480 C489 2.764 . S
Tb480 O490 2.325 . S
Tb480 O493 2.303 . S
Tb480 O497 2.322 . S
Tb480 O498 2.349 . S
Tb480 O501 2.415 . S
Tb480 O502 2.399 . S
Tb481 O491 2.322 . S
Tb481 O492 2.349 . S
Tb481 O494 2.415 . S
Tb481 O495 2.399 . S
Tb481 O496 2.325 . S
Tb481 O499 2.303 . S
Tb481 C510 2.764 . S
C482 O498 1.261 . S
C482 O499 1.257 . S
C483 C486 1.358 . S
C483 C487 1.332 . S
C483 C489 1.504 . S
C484 C485 1.373 . S
C484 C488 1.308 . S
C485 C484 1.373 . S
C485 C486 1.429 . S
C485 H512 0.932 . S
C486 C483 1.358 . S
C486 C485 1.429 . S
C486 H513 0.930 . S
C487 C483 1.332 . S
C487 C488 1.394 . S
C487 H514 0.932 . S
C488 C484 1.308 . S
C488 C487 1.394 . S
C488 H515 0.929 . S
C489 Tb480 2.764 . S
C489 C483 1.504 . S
C489 O501 1.239 . S
C489 O502 1.263 . S
O490 Tb480 2.325 . S
O490 C500 1.236 . S
O491 Tb481 2.322 . S
O491 C500 1.257 . S
O492 Tb481 2.349 . S
O492 C503 1.261 . S
O493 Tb480 2.303 . S
O493 C503 1.257 . S
O494 Tb481 2.415 . S
O494 C510 1.239 . S
O495 Tb481 2.399 . S
O495 C510 1.263 . S
O496 Tb481 2.325 . S
O496 C511 1.236 . S
O497 Tb480 2.322 . S
O497 C511 1.257 . S
O498 Tb480 2.349 . S
O498 C482 1.261 . S
O499 Tb481 2.303 . S
O499 C482 1.257 . S
C500 O490 1.236 . S
C500 O491 1.257 . S
O501 Tb480 2.415 . S
O501 C489 1.239 . S
O502 Tb480 2.399 . S
O502 C489 1.263 . S
C503 O492 1.261 . S
C503 O493 1.257 . S
C504 C507 1.358 . S
C504 C508 1.332 . S
C504 C510 1.504 1_455 S
C505 C506 1.373 . S
C505 C509 1.308 . S
C506 C505 1.373 . S
C506 C507 1.429 . S
C506 H516 0.932 . S
C507 C504 1.358 . S
C507 C506 1.429 . S
C507 H517 0.930 . S
C508 C504 1.332 . S
C508 C509 1.394 . S
C508 H518 0.932 1_455 S
C509 C505 1.308 . S
C509 C508 1.394 . S
C509 H519 0.929 . S
C510 Tb481 2.764 . S
C510 O494 1.239 . S
C510 O495 1.263 . S
C510 C504 1.504 1_655 S
C511 O496 1.236 . S
C511 O497 1.257 . S
H512 C485 0.932 . S
H513 C486 0.930 . S
H514 C487 0.932 . S
H515 C488 0.929 . S
H516 C506 0.932 . S
H517 C507 0.930 . S
H518 C508 0.932 1_655 S
H519 C509 0.929 . S
Tb520 C529 2.764 . S
Tb520 O530 2.325 . S
Tb520 O533 2.303 . S
Tb520 O537 2.322 . S
Tb520 O538 2.349 . S
Tb520 O541 2.415 . S
Tb520 O542 2.399 . S
Tb521 O531 2.322 . S
Tb521 O532 2.349 . S
Tb521 O534 2.415 . S
Tb521 O535 2.399 . S
Tb521 O536 2.325 . S
Tb521 O539 2.303 . S
Tb521 C550 2.764 . S
C522 O538 1.261 . S
C522 O539 1.257 . S
C523 C526 1.358 . S
C523 C527 1.332 . S
C523 C529 1.504 1_565 S
C524 C525 1.373 . S
C524 C528 1.308 . S
C525 C524 1.373 . S
C525 C526 1.429 . S
C525 H552 0.932 . S
C526 C523 1.358 . S
C526 C525 1.429 . S
C526 H553 0.930 . S
C527 C523 1.332 . S
C527 C528 1.394 . S
C527 H554 0.932 1_565 S
C528 C524 1.308 . S
C528 C527 1.394 . S
C528 H555 0.929 . S
C529 Tb520 2.764 . S
C529 C523 1.504 1_545 S
C529 O541 1.239 . S
C529 O542 1.263 . S
O530 Tb520 2.325 . S
O530 C540 1.236 . S
O531 Tb521 2.322 . S
O531 C540 1.257 . S
O532 Tb521 2.349 . S
O532 C543 1.261 . S
O533 Tb520 2.303 . S
O533 C543 1.257 . S
O534 Tb521 2.415 . S
O534 C550 1.239 . S
O535 Tb521 2.399 . S
O535 C550 1.263 . S
O536 Tb521 2.325 . S
O536 C551 1.236 . S
O537 Tb520 2.322 . S
O537 C551 1.257 . S
O538 Tb520 2.349 . S
O538 C522 1.261 . S
O539 Tb521 2.303 . S
O539 C522 1.257 . S
C540 O530 1.236 . S
C540 O531 1.257 . S
O541 Tb520 2.415 . S
O541 C529 1.239 . S
O542 Tb520 2.399 . S
O542 C529 1.263 . S
C543 O532 1.261 . S
C543 O533 1.257 . S
C544 C547 1.358 . S
C544 C548 1.332 . S
C544 C550 1.504 . S
C545 C546 1.373 . S
C545 C549 1.308 . S
C546 C545 1.373 . S
C546 C547 1.429 . S
C546 H556 0.932 . S
C547 C544 1.358 . S
C547 C546 1.429 . S
C547 H557 0.930 . S
C548 C544 1.332 . S
C548 C549 1.394 . S
C548 H558 0.932 . S
C549 C545 1.308 . S
C549 C548 1.394 . S
C549 H559 0.929 . S
C550 Tb521 2.764 . S
C550 O534 1.239 . S
C550 O535 1.263 . S
C550 C544 1.504 . S
C551 O536 1.236 . S
C551 O537 1.257 . S
H552 C525 0.932 . S
H553 C526 0.930 . S
H554 C527 0.932 1_545 S
H555 C528 0.929 . S
H556 C546 0.932 . S
H557 C547 0.930 . S
H558 C548 0.932 . S
H559 C549 0.929 . S
Tb560 C569 2.764 . S
Tb560 O570 2.325 . S
Tb560 O573 2.303 . S
Tb560 O577 2.322 . S
Tb560 O578 2.349 . S
Tb560 O581 2.415 . S
Tb560 O582 2.399 . S
Tb561 O571 2.322 . S
Tb561 O572 2.349 . S
Tb561 O574 2.415 . S
Tb561 O575 2.399 . S
Tb561 O576 2.325 . S
Tb561 O579 2.303 . S
Tb561 C590 2.764 . S
C562 O578 1.261 . S
C562 O579 1.257 . S
C563 C566 1.358 . S
C563 C567 1.332 . S
C563 C569 1.504 . S
C564 C565 1.373 . S
C564 C568 1.308 . S
C565 C564 1.373 . S
C565 C566 1.429 . S
C565 H592 0.932 . S
C566 C563 1.358 . S
C566 C565 1.429 . S
C566 H593 0.930 . S
C567 C563 1.332 . S
C567 C568 1.394 . S
C567 H594 0.932 . S
C568 C564 1.308 . S
C568 C567 1.394 . S
C568 H595 0.929 . S
C569 Tb560 2.764 . S
C569 C563 1.504 . S
C569 O581 1.239 . S
C569 O582 1.263 . S
O570 Tb560 2.325 . S
O570 C580 1.236 . S
O571 Tb561 2.322 . S
O571 C580 1.257 . S
O572 Tb561 2.349 . S
O572 C583 1.261 . S
O573 Tb560 2.303 . S
O573 C583 1.257 . S
O574 Tb561 2.415 . S
O574 C590 1.239 . S
O575 Tb561 2.399 . S
O575 C590 1.263 . S
O576 Tb561 2.325 . S
O576 C591 1.236 . S
O577 Tb560 2.322 . S
O577 C591 1.257 . S
O578 Tb560 2.349 . S
O578 C562 1.261 . S
O579 Tb561 2.303 . S
O579 C562 1.257 . S
C580 O570 1.236 . S
C580 O571 1.257 . S
O581 Tb560 2.415 . S
O581 C569 1.239 . S
O582 Tb560 2.399 . S
O582 C569 1.263 . S
C583 O572 1.261 . S
C583 O573 1.257 . S
C584 C587 1.358 . S
C584 C588 1.332 . S
C584 C590 1.504 . S
C585 C586 1.373 . S
C585 C589 1.308 . S
C586 C585 1.373 . S
C586 C587 1.429 . S
C586 H596 0.932 . S
C587 C584 1.358 . S
C587 C586 1.429 . S
C587 H597 0.930 . S
C588 C584 1.332 . S
C588 C589 1.394 . S
C588 H598 0.932 . S
C589 C585 1.308 . S
C589 C588 1.394 . S
C589 H599 0.929 . S
C590 Tb561 2.764 . S
C590 O574 1.239 . S
C590 O575 1.263 . S
C590 C584 1.504 . S
C591 O576 1.236 . S
C591 O577 1.257 . S
H592 C565 0.932 . S
H593 C566 0.930 . S
H594 C567 0.932 . S
H595 C568 0.929 . S
H596 C586 0.932 . S
H597 C587 0.930 . S
H598 C588 0.932 . S
H599 C589 0.929 . S
Tb600 C609 2.755 1_554 S
Tb600 O610 2.316 1_554 S
Tb600 O613 2.300 1_554 S
Tb600 O617 2.333 . S
Tb600 O618 2.355 . S
Tb600 O621 2.405 1_554 S
Tb600 O622 2.393 1_554 S
Tb601 O611 2.322 1_554 S
Tb601 O612 2.349 1_554 S
Tb601 O614 2.415 . S
Tb601 O615 2.399 . S
Tb601 O616 2.325 . S
Tb601 O619 2.303 . S
Tb601 C630 2.764 . S
C602 O618 1.261 . S
C602 O619 1.257 . S
C603 C606 1.358 . S
C603 C607 1.332 . S
C603 C609 1.504 1_545 S
C604 C605 1.373 . S
C604 C608 1.308 . S
C605 C604 1.373 . S
C605 C606 1.429 . S
C605 H632 0.932 . S
C606 C603 1.358 . S
C606 C605 1.429 . S
C606 H633 0.930 . S
C607 C603 1.332 . S
C607 C608 1.394 . S
C607 H634 0.932 1_545 S
C608 C604 1.308 . S
C608 C607 1.394 . S
C608 H635 0.929 . S
C609 Tb600 2.755 1_556 S
C609 C603 1.504 1_565 S
C609 O621 1.239 . S
C609 O622 1.263 . S
O610 Tb600 2.316 1_556 S
O610 C620 1.236 . S
O611 Tb601 2.322 1_556 S
O611 C620 1.257 . S
O612 Tb601 2.349 1_556 S
O612 C623 1.261 . S
O613 Tb600 2.300 1_556 S
O613 C623 1.257 . S
O614 Tb601 2.415 . S
O614 C630 1.239 . S
O615 Tb601 2.399 . S
O615 C630 1.263 . S
O616 Tb601 2.325 . S
O616 C631 1.236 . S
O617 Tb600 2.333 . S
O617 C631 1.257 . S
O618 Tb600 2.355 . S
O618 C602 1.261 . S
O619 Tb601 2.303 . S
O619 C602 1.257 . S
C620 O610 1.236 . S
C620 O611 1.257 . S
O621 Tb600 2.405 1_556 S
O621 C609 1.239 . S
O622 Tb600 2.393 1_556 S
O622 C609 1.263 . S
C623 O612 1.261 . S
C623 O613 1.257 . S
C624 C627 1.358 . S
C624 C628 1.332 . S
C624 C630 1.504 . S
C625 C626 1.373 . S
C625 C629 1.308 . S
C626 C625 1.373 . S
C626 C627 1.429 . S
C626 H636 0.932 . S
C627 C624 1.358 . S
C627 C626 1.429 . S
C627 H637 0.930 . S
C628 C624 1.332 . S
C628 C629 1.394 . S
C628 H638 0.932 . S
C629 C625 1.308 . S
C629 C628 1.394 . S
C629 H639 0.929 . S
C630 Tb601 2.764 . S
C630 O614 1.239 . S
C630 O615 1.263 . S
C630 C624 1.504 . S
C631 O616 1.236 . S
C631 O617 1.257 . S
H632 C605 0.932 . S
H633 C606 0.930 . S
H634 C607 0.932 1_565 S
H635 C608 0.929 . S
H636 C626 0.932 . S
H637 C627 0.930 . S
H638 C628 0.932 . S
H639 C629 0.929 . S
Tb640 C649 2.764 . S
Tb640 O650 2.325 . S
Tb640 O653 2.303 . S
Tb640 O657 2.322 . S
Tb640 O658 2.349 . S
Tb640 O661 2.415 . S
Tb640 O662 2.399 . S
Tb641 O651 2.322 . S
Tb641 O652 2.349 . S
Tb641 O654 2.415 . S
Tb641 O655 2.399 . S
Tb641 O656 2.325 . S
Tb641 O659 2.303 . S
Tb641 C670 2.764 . S
C642 O658 1.261 . S
C642 O659 1.257 . S
C643 C646 1.358 . S
C643 C647 1.332 . S
C643 C649 1.504 . S
C644 C645 1.373 . S
C644 C648 1.308 . S
C645 C644 1.373 . S
C645 C646 1.429 . S
C645 H672 0.932 . S
C646 C643 1.358 . S
C646 C645 1.429 . S
C646 H673 0.930 . S
C647 C643 1.332 . S
C647 C648 1.394 . S
C647 H674 0.932 . S
C648 C644 1.308 . S
C648 C647 1.394 . S
C648 H675 0.929 . S
C649 Tb640 2.764 . S
C649 C643 1.504 . S
C649 O661 1.239 . S
C649 O662 1.263 . S
O650 Tb640 2.325 . S
O650 C660 1.236 . S
O651 Tb641 2.322 . S
O651 C660 1.257 . S
O652 Tb641 2.349 . S
O652 C663 1.261 . S
O653 Tb640 2.303 . S
O653 C663 1.257 . S
O654 Tb641 2.415 . S
O654 C670 1.239 . S
O655 Tb641 2.399 . S
O655 C670 1.263 . S
O656 Tb641 2.325 . S
O656 C671 1.236 . S
O657 Tb640 2.322 . S
O657 C671 1.257 . S
O658 Tb640 2.349 . S
O658 C642 1.261 . S
O659 Tb641 2.303 . S
O659 C642 1.257 . S
C660 O650 1.236 . S
C660 O651 1.257 . S
O661 Tb640 2.415 . S
O661 C649 1.239 . S
O662 Tb640 2.399 . S
O662 C649 1.263 . S
C663 O652 1.261 . S
C663 O653 1.257 . S
C664 C667 1.358 . S
C664 C668 1.332 . S
C664 C670 1.504 . S
C665 C666 1.373 . S
C665 C669 1.308 . S
C666 C665 1.373 . S
C666 C667 1.429 . S
C666 H676 0.932 . S
C667 C664 1.358 . S
C667 C666 1.429 . S
C667 H677 0.930 . S
C668 C664 1.332 . S
C668 C669 1.394 . S
C668 H678 0.932 . S
C669 C665 1.308 . S
C669 C668 1.394 . S
C669 H679 0.929 . S
C670 Tb641 2.764 . S
C670 O654 1.239 . S
C670 O655 1.263 . S
C670 C664 1.504 . S
C671 O656 1.236 . S
C671 O657 1.257 . S
H672 C645 0.932 . S
H673 C646 0.930 . S
H674 C647 0.932 . S
H675 C648 0.929 . S
H676 C666 0.932 . S
H677 C667 0.930 . S
H678 C668 0.932 . S
H679 C669 0.929 . S
Tb680 C689 2.764 . S
Tb680 O690 2.325 . S
Tb680 O693 2.303 . S
Tb680 O697 2.322 1_554 S
Tb680 O698 2.349 1_554 S
Tb680 O701 2.415 . S
Tb680 O702 2.399 . S
Tb681 O691 2.334 . S
Tb681 O692 2.355 . S
Tb681 O694 2.405 1_554 S
Tb681 O695 2.393 1_554 S
Tb681 O696 2.316 1_554 S
Tb681 O699 2.300 1_554 S
Tb681 C710 2.755 1_554 S
C682 O698 1.261 . S
C682 O699 1.257 . S
C683 C686 1.358 . S
C683 C687 1.332 . S
C683 C689 1.504 . S
C684 C685 1.373 . S
C684 C688 1.308 . S
C685 C684 1.373 . S
C685 C686 1.429 . S
C685 H712 0.932 . S
C686 C683 1.358 . S
C686 C685 1.429 . S
C686 H713 0.930 . S
C687 C683 1.332 . S
C687 C688 1.394 . S
C687 H714 0.932 . S
C688 C684 1.308 . S
C688 C687 1.394 . S
C688 H715 0.929 . S
C689 Tb680 2.764 . S
C689 C683 1.504 . S
C689 O701 1.239 . S
C689 O702 1.263 . S
O690 Tb680 2.325 . S
O690 C700 1.236 . S
O691 Tb681 2.334 . S
O691 C700 1.257 . S
O692 Tb681 2.355 . S
O692 C703 1.261 . S
O693 Tb680 2.303 . S
O693 C703 1.257 . S
O694 Tb681 2.405 1_556 S
O694 C710 1.239 . S
O695 Tb681 2.393 1_556 S
O695 C710 1.263 . S
O696 Tb681 2.316 1_556 S
O696 C711 1.236 . S
O697 Tb680 2.322 1_556 S
O697 C711 1.257 . S
O698 Tb680 2.349 1_556 S
O698 C682 1.261 . S
O699 Tb681 2.300 1_556 S
O699 C682 1.257 . S
C700 O690 1.236 . S
C700 O691 1.257 . S
O701 Tb680 2.415 . S
O701 C689 1.239 . S
O702 Tb680 2.399 . S
O702 C689 1.263 . S
C703 O692 1.261 . S
C703 O693 1.257 . S
C704 C707 1.358 . S
C704 C708 1.332 . S
C704 C710 1.504 . S
C705 C706 1.373 . S
C705 C709 1.308 . S
C706 C705 1.373 . S
C706 C707 1.429 . S
C706 H716 0.932 . S
C707 C704 1.358 . S
C707 C706 1.429 . S
C707 H717 0.930 . S
C708 C704 1.332 . S
C708 C709 1.394 . S
C708 H718 0.932 . S
C709 C705 1.308 . S
C709 C708 1.394 . S
C709 H719 0.929 . S
C710 Tb681 2.755 1_556 S
C710 O694 1.239 . S
C710 O695 1.263 . S
C710 C704 1.504 . S
C711 O696 1.236 . S
C711 O697 1.257 . S
H712 C685 0.932 . S
H713 C686 0.930 . S
H714 C687 0.932 . S
H715 C688 0.929 . S
H716 C706 0.932 . S
H717 C707 0.930 . S
H718 C708 0.932 . S
H719 C709 0.929 . S
Tb720 C729 2.764 . S
Tb720 O730 2.325 . S
Tb720 O733 2.303 . S
Tb720 O737 2.322 . S
Tb720 O738 2.349 . S
Tb720 O741 2.415 . S
Tb720 O742 2.399 . S
Tb721 O731 2.322 . S
Tb721 O732 2.349 . S
Tb721 O734 2.415 . S
Tb721 O735 2.399 . S
Tb721 O736 2.325 . S
Tb721 O739 2.303 . S
Tb721 C750 2.764 . S
C722 O738 1.261 . S
C722 O739 1.257 . S
C723 C726 1.358 . S
C723 C727 1.332 . S
C723 C729 1.504 1_455 S
C724 C725 1.373 . S
C724 C728 1.308 . S
C725 C724 1.373 . S
C725 C726 1.429 . S
C725 H752 0.932 . S
C726 C723 1.358 . S
C726 C725 1.429 . S
C726 H753 0.930 . S
C727 C723 1.332 . S
C727 C728 1.394 . S
C727 H754 0.932 1_455 S
C728 C724 1.308 . S
C728 C727 1.394 . S
C728 H755 0.929 . S
C729 Tb720 2.764 . S
C729 C723 1.504 1_655 S
C729 O741 1.239 . S
C729 O742 1.263 . S
O730 Tb720 2.325 . S
O730 C740 1.236 . S
O731 Tb721 2.322 . S
O731 C740 1.257 . S
O732 Tb721 2.349 . S
O732 C743 1.261 . S
O733 Tb720 2.303 . S
O733 C743 1.257 . S
O734 Tb721 2.415 . S
O734 C750 1.239 . S
O735 Tb721 2.399 . S
O735 C750 1.263 . S
O736 Tb721 2.325 . S
O736 C751 1.236 . S
O737 Tb720 2.322 . S
O737 C751 1.257 . S
O738 Tb720 2.349 . S
O738 C722 1.261 . S
O739 Tb721 2.303 . S
O739 C722 1.257 . S
C740 O730 1.236 . S
C740 O731 1.257 . S
O741 Tb720 2.415 . S
O741 C729 1.239 . S
O742 Tb720 2.399 . S
O742 C729 1.263 . S
C743 O732 1.261 . S
C743 O733 1.257 . S
C744 C747 1.358 . S
C744 C748 1.332 . S
C744 C750 1.504 . S
C745 C746 1.373 . S
C745 C749 1.308 . S
C746 C745 1.373 . S
C746 C747 1.429 . S
C746 H756 0.932 . S
C747 C744 1.358 . S
C747 C746 1.429 . S
C747 H757 0.930 . S
C748 C744 1.332 . S
C748 C749 1.394 . S
C748 H758 0.932 . S
C749 C745 1.308 . S
C749 C748 1.394 . S
C749 H759 0.929 . S
C750 Tb721 2.764 . S
C750 O734 1.239 . S
C750 O735 1.263 . S
C750 C744 1.504 . S
C751 O736 1.236 . S
C751 O737 1.257 . S
H752 C725 0.932 . S
H753 C726 0.930 . S
H754 C727 0.932 1_655 S
H755 C728 0.929 . S
H756 C746 0.932 . S
H757 C747 0.930 . S
H758 C748 0.932 . S
H759 C749 0.929 . S
Tb760 C769 2.764 . S
Tb760 O770 2.325 . S
Tb760 O773 2.303 . S
Tb760 O777 2.322 . S
Tb760 O778 2.349 . S
Tb760 O781 2.415 . S
Tb760 O782 2.399 . S
Tb761 O771 2.322 . S
Tb761 O772 2.349 . S
Tb761 O774 2.415 . S
Tb761 O775 2.399 . S
Tb761 O776 2.325 . S
Tb761 O779 2.303 . S
Tb761 C790 2.764 . S
C762 O778 1.261 . S
C762 O779 1.257 . S
C763 C766 1.358 . S
C763 C767 1.332 . S
C763 C769 1.504 . S
C764 C765 1.373 . S
C764 C768 1.308 . S
C765 C764 1.373 . S
C765 C766 1.429 . S
C765 H792 0.932 . S
C766 C763 1.358 . S
C766 C765 1.429 . S
C766 H793 0.930 . S
C767 C763 1.332 . S
C767 C768 1.394 . S
C767 H794 0.932 . S
C768 C764 1.308 . S
C768 C767 1.394 . S
C768 H795 0.929 . S
C769 Tb760 2.764 . S
C769 C763 1.504 . S
C769 O781 1.239 . S
C769 O782 1.263 . S
O770 Tb760 2.325 . S
O770 C780 1.236 . S
O771 Tb761 2.322 . S
O771 C780 1.257 . S
O772 Tb761 2.349 . S
O772 C783 1.261 . S
O773 Tb760 2.303 . S
O773 C783 1.257 . S
O774 Tb761 2.415 . S
O774 C790 1.239 . S
O775 Tb761 2.399 . S
O775 C790 1.263 . S
O776 Tb761 2.325 . S
O776 C791 1.236 . S
O777 Tb760 2.322 . S
O777 C791 1.257 . S
O778 Tb760 2.349 . S
O778 C762 1.261 . S
O779 Tb761 2.303 . S
O779 C762 1.257 . S
C780 O770 1.236 . S
C780 O771 1.257 . S
O781 Tb760 2.415 . S
O781 C769 1.239 . S
O782 Tb760 2.399 . S
O782 C769 1.263 . S
C783 O772 1.261 . S
C783 O773 1.257 . S
C784 C787 1.358 . S
C784 C788 1.332 . S
C784 C790 1.504 . S
C785 C786 1.373 . S
C785 C789 1.308 . S
C786 C785 1.373 . S
C786 C787 1.429 . S
C786 H796 0.932 . S
C787 C784 1.358 . S
C787 C786 1.429 . S
C787 H797 0.930 . S
C788 C784 1.332 . S
C788 C789 1.394 . S
C788 H798 0.932 . S
C789 C785 1.308 . S
C789 C788 1.394 . S
C789 H799 0.929 . S
C790 Tb761 2.764 . S
C790 O774 1.239 . S
C790 O775 1.263 . S
C790 C784 1.504 . S
C791 O776 1.236 . S
C791 O777 1.257 . S
H792 C765 0.932 . S
H793 C766 0.930 . S
H794 C767 0.932 . S
H795 C768 0.929 . S
H796 C786 0.932 . S
H797 C787 0.930 . S
H798 C788 0.932 . S
H799 C789 0.929 . S
Tb800 C809 2.764 . S
Tb800 O810 2.325 . S
Tb800 O813 2.303 . S
Tb800 O817 2.322 . S
Tb800 O818 2.349 . S
Tb800 O821 2.415 . S
Tb800 O822 2.399 . S
Tb801 O811 2.322 . S
Tb801 O812 2.349 . S
Tb801 O814 2.415 . S
Tb801 O815 2.399 . S
Tb801 O816 2.325 . S
Tb801 O819 2.303 . S
Tb801 C830 2.764 . S
C802 O818 1.261 . S
C802 O819 1.257 . S
C803 C806 1.358 . S
C803 C807 1.332 . S
C803 C809 1.504 . S
C804 C805 1.373 . S
C804 C808 1.308 . S
C805 C804 1.373 . S
C805 C806 1.429 . S
C805 H832 0.932 . S
C806 C803 1.358 . S
C806 C805 1.429 . S
C806 H833 0.930 . S
C807 C803 1.332 . S
C807 C808 1.394 . S
C807 H834 0.932 . S
C808 C804 1.308 . S
C808 C807 1.394 . S
C808 H835 0.929 . S
C809 Tb800 2.764 . S
C809 C803 1.504 . S
C809 O821 1.239 . S
C809 O822 1.263 . S
O810 Tb800 2.325 . S
O810 C820 1.236 . S
O811 Tb801 2.322 . S
O811 C820 1.257 . S
O812 Tb801 2.349 . S
O812 C823 1.261 . S
O813 Tb800 2.303 . S
O813 C823 1.257 . S
O814 Tb801 2.415 . S
O814 C830 1.239 . S
O815 Tb801 2.399 . S
O815 C830 1.263 . S
O816 Tb801 2.325 . S
O816 C831 1.236 . S
O817 Tb800 2.322 . S
O817 C831 1.257 . S
O818 Tb800 2.349 . S
O818 C802 1.261 . S
O819 Tb801 2.303 . S
O819 C802 1.257 . S
C820 O810 1.236 . S
C820 O811 1.257 . S
O821 Tb800 2.415 . S
O821 C809 1.239 . S
O822 Tb800 2.399 . S
O822 C809 1.263 . S
C823 O812 1.261 . S
C823 O813 1.257 . S
C824 C827 1.358 . S
C824 C828 1.332 . S
C824 C830 1.504 . S
C825 C826 1.373 . S
C825 C829 1.308 . S
C826 C825 1.373 . S
C826 C827 1.429 . S
C826 H836 0.932 . S
C827 C824 1.358 . S
C827 C826 1.429 . S
C827 H837 0.930 . S
C828 C824 1.332 . S
C828 C829 1.394 . S
C828 H838 0.932 . S
C829 C825 1.308 . S
C829 C828 1.394 . S
C829 H839 0.929 . S
C830 Tb801 2.764 . S
C830 O814 1.239 . S
C830 O815 1.263 . S
C830 C824 1.504 . S
C831 O816 1.236 . S
C831 O817 1.257 . S
H832 C805 0.932 . S
H833 C806 0.930 . S
H834 C807 0.932 . S
H835 C808 0.929 . S
H836 C826 0.932 . S
H837 C827 0.930 . S
H838 C828 0.932 . S
H839 C829 0.929 . S
Tb840 C849 2.764 . S
Tb840 O850 2.325 . S
Tb840 O853 2.303 . S
Tb840 O857 2.322 1_556 S
Tb840 O858 2.349 1_556 S
Tb840 O861 2.415 . S
Tb840 O862 2.399 . S
Tb841 O851 2.334 . S
Tb841 O852 2.355 . S
Tb841 O854 2.405 1_556 S
Tb841 O855 2.393 1_556 S
Tb841 O856 2.316 1_556 S
Tb841 O859 2.300 1_556 S
Tb841 C870 2.755 1_556 S
C842 O858 1.261 . S
C842 O859 1.257 . S
C843 C846 1.358 . S
C843 C847 1.332 . S
C843 C849 1.504 . S
C844 C845 1.373 . S
C844 C848 1.308 . S
C845 C844 1.373 . S
C845 C846 1.429 . S
C845 H872 0.932 . S
C846 C843 1.358 . S
C846 C845 1.429 . S
C846 H873 0.930 . S
C847 C843 1.332 . S
C847 C848 1.394 . S
C847 H874 0.932 . S
C848 C844 1.308 . S
C848 C847 1.394 . S
C848 H875 0.929 . S
C849 Tb840 2.764 . S
C849 C843 1.504 . S
C849 O861 1.239 . S
C849 O862 1.263 . S
O850 Tb840 2.325 . S
O850 C860 1.236 . S
O851 Tb841 2.334 . S
O851 C860 1.257 . S
O852 Tb841 2.355 . S
O852 C863 1.261 . S
O853 Tb840 2.303 . S
O853 C863 1.257 . S
O854 Tb841 2.405 1_554 S
O854 C870 1.239 . S
O855 Tb841 2.393 1_554 S
O855 C870 1.263 . S
O856 Tb841 2.316 1_554 S
O856 C871 1.236 . S
O857 Tb840 2.322 1_554 S
O857 C871 1.257 . S
O858 Tb840 2.349 1_554 S
O858 C842 1.261 . S
O859 Tb841 2.300 1_554 S
O859 C842 1.257 . S
C860 O850 1.236 . S
C860 O851 1.257 . S
O861 Tb840 2.415 . S
O861 C849 1.239 . S
O862 Tb840 2.399 . S
O862 C849 1.263 . S
C863 O852 1.261 . S
C863 O853 1.257 . S
C864 C867 1.358 . S
C864 C868 1.332 . S
C864 C870 1.504 . S
C865 C866 1.373 . S
C865 C869 1.308 . S
C866 C865 1.373 . S
C866 C867 1.429 . S
C866 H876 0.932 . S
C867 C864 1.358 . S
C867 C866 1.429 . S
C867 H877 0.930 . S
C868 C864 1.332 . S
C868 C869 1.394 . S
C868 H878 0.932 . S
C869 C865 1.308 . S
C869 C868 1.394 . S
C869 H879 0.929 . S
C870 Tb841 2.755 1_554 S
C870 O854 1.239 . S
C870 O855 1.263 . S
C870 C864 1.504 . S
C871 O856 1.236 . S
C871 O857 1.257 . S
H872 C845 0.932 . S
H873 C846 0.930 . S
H874 C847 0.932 . S
H875 C848 0.929 . S
H876 C866 0.932 . S
H877 C867 0.930 . S
H878 C868 0.932 . S
H879 C869 0.929 . S
Tb880 C889 2.764 . S
Tb880 O890 2.325 . S
Tb880 O893 2.303 . S
Tb880 O897 2.322 . S
Tb880 O898 2.349 . S
Tb880 O901 2.415 . S
Tb880 O902 2.399 . S
Tb881 O891 2.322 . S
Tb881 O892 2.349 . S
Tb881 O894 2.415 . S
Tb881 O895 2.399 . S
Tb881 O896 2.325 . S
Tb881 O899 2.303 . S
Tb881 C910 2.764 . S
C882 O898 1.261 . S
C882 O899 1.257 . S
C883 C886 1.358 . S
C883 C887 1.332 . S
C883 C889 1.504 1_455 S
C884 C885 1.373 . S
C884 C888 1.308 . S
C885 C884 1.373 . S
C885 C886 1.429 . S
C885 H912 0.932 . S
C886 C883 1.358 . S
C886 C885 1.429 . S
C886 H913 0.930 . S
C887 C883 1.332 . S
C887 C888 1.394 . S
C887 H914 0.932 1_455 S
C888 C884 1.308 . S
C888 C887 1.394 . S
C888 H915 0.929 . S
C889 Tb880 2.764 . S
C889 C883 1.504 1_655 S
C889 O901 1.239 . S
C889 O902 1.263 . S
O890 Tb880 2.325 . S
O890 C900 1.236 . S
O891 Tb881 2.322 . S
O891 C900 1.257 . S
O892 Tb881 2.349 . S
O892 C903 1.261 . S
O893 Tb880 2.303 . S
O893 C903 1.257 . S
O894 Tb881 2.415 . S
O894 C910 1.239 . S
O895 Tb881 2.399 . S
O895 C910 1.263 . S
O896 Tb881 2.325 . S
O896 C911 1.236 . S
O897 Tb880 2.322 . S
O897 C911 1.257 . S
O898 Tb880 2.349 . S
O898 C882 1.261 . S
O899 Tb881 2.303 . S
O899 C882 1.257 . S
C900 O890 1.236 . S
C900 O891 1.257 . S
O901 Tb880 2.415 . S
O901 C889 1.239 . S
O902 Tb880 2.399 . S
O902 C889 1.263 . S
C903 O892 1.261 . S
C903 O893 1.257 . S
C904 C907 1.358 . S
C904 C908 1.332 . S
C904 C910 1.504 . S
C905 C906 1.373 . S
C905 C909 1.308 . S
C906 C905 1.373 . S
C906 C907 1.429 . S
C906 H916 0.932 . S
C907 C904 1.358 . S
C907 C906 1.429 . S
C907 H917 0.930 . S
C908 C904 1.332 . S
C908 C909 1.394 . S
C908 H918 0.932 . S
C909 C905 1.308 . S
C909 C908 1.394 . S
C909 H919 0.929 . S
C910 Tb881 2.764 . S
C910 O894 1.239 . S
C910 O895 1.263 . S
C910 C904 1.504 . S
C911 O896 1.236 . S
C911 O897 1.257 . S
H912 C885 0.932 . S
H913 C886 0.930 . S
H914 C887 0.932 1_655 S
H915 C888 0.929 . S
H916 C906 0.932 . S
H917 C907 0.930 . S
H918 C908 0.932 . S
H919 C909 0.929 . S
Tb920 C929 2.764 . S
Tb920 O930 2.325 . S
Tb920 O933 2.303 . S
Tb920 O937 2.322 . S
Tb920 O938 2.349 . S
Tb920 O941 2.415 . S
Tb920 O942 2.399 . S
Tb921 O931 2.322 . S
Tb921 O932 2.349 . S
Tb921 O934 2.415 . S
Tb921 O935 2.399 . S
Tb921 O936 2.325 . S
Tb921 O939 2.303 . S
Tb921 C950 2.764 . S
C922 O938 1.261 . S
C922 O939 1.257 . S
C923 C926 1.358 . S
C923 C927 1.332 . S
C923 C929 1.504 . S
C924 C925 1.373 . S
C924 C928 1.308 . S
C925 C924 1.373 . S
C925 C926 1.429 . S
C925 H952 0.932 . S
C926 C923 1.358 . S
C926 C925 1.429 . S
C926 H953 0.930 . S
C927 C923 1.332 . S
C927 C928 1.394 . S
C927 H954 0.932 . S
C928 C924 1.308 . S
C928 C927 1.394 . S
C928 H955 0.929 . S
C929 Tb920 2.764 . S
C929 C923 1.504 . S
C929 O941 1.239 . S
C929 O942 1.263 . S
O930 Tb920 2.325 . S
O930 C940 1.236 . S
O931 Tb921 2.322 . S
O931 C940 1.257 . S
O932 Tb921 2.349 . S
O932 C943 1.261 . S
O933 Tb920 2.303 . S
O933 C943 1.257 . S
O934 Tb921 2.415 . S
O934 C950 1.239 . S
O935 Tb921 2.399 . S
O935 C950 1.263 . S
O936 Tb921 2.325 . S
O936 C951 1.236 . S
O937 Tb920 2.322 . S
O937 C951 1.257 . S
O938 Tb920 2.349 . S
O938 C922 1.261 . S
O939 Tb921 2.303 . S
O939 C922 1.257 . S
C940 O930 1.236 . S
C940 O931 1.257 . S
O941 Tb920 2.415 . S
O941 C929 1.239 . S
O942 Tb920 2.399 . S
O942 C929 1.263 . S
C943 O932 1.261 . S
C943 O933 1.257 . S
C944 C947 1.358 . S
C944 C948 1.332 . S
C944 C950 1.504 . S
C945 C946 1.373 . S
C945 C949 1.308 . S
C946 C945 1.373 . S
C946 C947 1.429 . S
C946 H956 0.932 . S
C947 C944 1.358 . S
C947 C946 1.429 . S
C947 H957 0.930 . S
C948 C944 1.332 . S
C948 C949 1.394 . S
C948 H958 0.932 . S
C949 C945 1.308 . S
C949 C948 1.394 . S
C949 H959 0.929 . S
C950 Tb921 2.764 . S
C950 O934 1.239 . S
C950 O935 1.263 . S
C950 C944 1.504 . S
C951 O936 1.236 . S
C951 O937 1.257 . S
H952 C925 0.932 . S
H953 C926 0.930 . S
H954 C927 0.932 . S
H955 C928 0.929 . S
H956 C946 0.932 . S
H957 C947 0.930 . S
H958 C948 0.932 . S
H959 C949 0.929 . S
Tb960 C969 2.764 . S
Tb960 O970 2.325 . S
Tb960 O973 2.303 . S
Tb960 O977 2.322 . S
Tb960 O978 2.349 . S
Tb960 O981 2.415 . S
Tb960 O982 2.399 . S
Tb961 O971 2.322 . S
Tb961 O972 2.349 . S
Tb961 O974 2.415 . S
Tb961 O975 2.399 . S
Tb961 O976 2.325 . S
Tb961 O979 2.303 . S
Tb961 C990 2.764 . S
C962 O978 1.261 . S
C962 O979 1.257 . S
C963 C966 1.358 . S
C963 C967 1.332 . S
C963 C969 1.504 . S
C964 C965 1.373 . S
C964 C968 1.308 . S
C965 C964 1.373 . S
C965 C966 1.429 . S
C965 H992 0.932 . S
C966 C963 1.358 . S
C966 C965 1.429 . S
C966 H993 0.930 . S
C967 C963 1.332 . S
C967 C968 1.394 . S
C967 H994 0.932 . S
C968 C964 1.308 . S
C968 C967 1.394 . S
C968 H995 0.929 . S
C969 Tb960 2.764 . S
C969 C963 1.504 . S
C969 O981 1.239 . S
C969 O982 1.263 . S
O970 Tb960 2.325 . S
O970 C980 1.236 . S
O971 Tb961 2.322 . S
O971 C980 1.257 . S
O972 Tb961 2.349 . S
O972 C983 1.261 . S
O973 Tb960 2.303 . S
O973 C983 1.257 . S
O974 Tb961 2.415 . S
O974 C990 1.239 . S
O975 Tb961 2.399 . S
O975 C990 1.263 . S
O976 Tb961 2.325 . S
O976 C991 1.236 . S
O977 Tb960 2.322 . S
O977 C991 1.257 . S
O978 Tb960 2.349 . S
O978 C962 1.261 . S
O979 Tb961 2.303 . S
O979 C962 1.257 . S
C980 O970 1.236 . S
C980 O971 1.257 . S
O981 Tb960 2.415 . S
O981 C969 1.239 . S
O982 Tb960 2.399 . S
O982 C969 1.263 . S
C983 O972 1.261 . S
C983 O973 1.257 . S
C984 C987 1.358 . S
C984 C988 1.332 . S
C984 C990 1.504 . S
C985 C986 1.373 . S
C985 C989 1.308 . S
C986 C985 1.373 . S
C986 C987 1.429 . S
C986 H996 0.932 . S
C987 C984 1.358 . S
C987 C986 1.429 . S
C987 H997 0.930 . S
C988 C984 1.332 . S
C988 C989 1.394 . S
C988 H998 0.932 . S
C989 C985 1.308 . S
C989 C988 1.394 . S
C989 H999 0.929 . S
C990 Tb961 2.764 . S
C990 O974 1.239 . S
C990 O975 1.263 . S
C990 C984 1.504 . S
C991 O976 1.236 . S
C991 O977 1.257 . S
H992 C965 0.932 . S
H993 C966 0.930 . S
H994 C967 0.932 . S
H995 C968 0.929 . S
H996 C986 0.932 . S
H997 C987 0.930 . S
H998 C988 0.932 . S
H999 C989 0.929 . S
Tb1000 C1009 2.755 1_556 S
Tb1000 O1010 2.316 1_556 S
Tb1000 O1013 2.300 1_556 S
Tb1000 O1017 2.333 . S
Tb1000 O1018 2.355 . S
Tb1000 O1021 2.405 1_556 S
Tb1000 O1022 2.393 1_556 S
Tb1001 O1011 2.322 1_556 S
Tb1001 O1012 2.349 1_556 S
Tb1001 O1014 2.415 . S
Tb1001 O1015 2.399 . S
Tb1001 O1016 2.325 . S
Tb1001 O1019 2.303 . S
Tb1001 C1030 2.764 . S
C1002 O1018 1.261 . S
C1002 O1019 1.257 . S
C1003 C1006 1.358 . S
C1003 C1007 1.332 . S
C1003 C1009 1.504 . S
C1004 C1005 1.373 . S
C1004 C1008 1.308 . S
C1005 C1004 1.373 . S
C1005 C1006 1.429 . S
C1005 H1032 0.932 . S
C1006 C1003 1.358 . S
C1006 C1005 1.429 . S
C1006 H1033 0.930 . S
C1007 C1003 1.332 . S
C1007 C1008 1.394 . S
C1007 H1034 0.932 . S
C1008 C1004 1.308 . S
C1008 C1007 1.394 . S
C1008 H1035 0.929 . S
C1009 Tb1000 2.755 1_554 S
C1009 C1003 1.504 . S
C1009 O1021 1.239 . S
C1009 O1022 1.263 . S
O1010 Tb1000 2.316 1_554 S
O1010 C1020 1.236 . S
O1011 Tb1001 2.322 1_554 S
O1011 C1020 1.257 . S
O1012 Tb1001 2.349 1_554 S
O1012 C1023 1.261 . S
O1013 Tb1000 2.300 1_554 S
O1013 C1023 1.257 . S
O1014 Tb1001 2.415 . S
O1014 C1030 1.239 . S
O1015 Tb1001 2.399 . S
O1015 C1030 1.263 . S
O1016 Tb1001 2.325 . S
O1016 C1031 1.236 . S
O1017 Tb1000 2.333 . S
O1017 C1031 1.257 . S
O1018 Tb1000 2.355 . S
O1018 C1002 1.261 . S
O1019 Tb1001 2.303 . S
O1019 C1002 1.257 . S
C1020 O1010 1.236 . S
C1020 O1011 1.257 . S
O1021 Tb1000 2.405 1_554 S
O1021 C1009 1.239 . S
O1022 Tb1000 2.393 1_554 S
O1022 C1009 1.263 . S
C1023 O1012 1.261 . S
C1023 O1013 1.257 . S
C1024 C1027 1.358 . S
C1024 C1028 1.332 . S
C1024 C1030 1.504 . S
C1025 C1026 1.373 . S
C1025 C1029 1.308 . S
C1026 C1025 1.373 . S
C1026 C1027 1.429 . S
C1026 H1036 0.932 . S
C1027 C1024 1.358 . S
C1027 C1026 1.429 . S
C1027 H1037 0.930 . S
C1028 C1024 1.332 . S
C1028 C1029 1.394 . S
C1028 H1038 0.932 . S
C1029 C1025 1.308 . S
C1029 C1028 1.394 . S
C1029 H1039 0.929 . S
C1030 Tb1001 2.764 . S
C1030 O1014 1.239 . S
C1030 O1015 1.263 . S
C1030 C1024 1.504 . S
C1031 O1016 1.236 . S
C1031 O1017 1.257 . S
H1032 C1005 0.932 . S
H1033 C1006 0.930 . S
H1034 C1007 0.932 . S
H1035 C1008 0.929 . S
H1036 C1026 0.932 . S
H1037 C1027 0.930 . S
H1038 C1028 0.932 . S
H1039 C1029 0.929 . S
Tb1040 C1049 2.764 . S
Tb1040 O1050 2.325 . S
Tb1040 O1053 2.303 . S
Tb1040 O1057 2.322 . S
Tb1040 O1058 2.349 . S
Tb1040 O1061 2.415 . S
Tb1040 O1062 2.399 . S
Tb1041 O1051 2.322 . S
Tb1041 O1052 2.349 . S
Tb1041 O1054 2.415 . S
Tb1041 O1055 2.399 . S
Tb1041 O1056 2.325 . S
Tb1041 O1059 2.303 . S
Tb1041 C1070 2.764 . S
C1042 O1058 1.261 . S
C1042 O1059 1.257 . S
C1043 C1046 1.358 . S
C1043 C1047 1.332 . S
C1043 C1049 1.504 . S
C1044 C1045 1.373 . S
C1044 C1048 1.308 . S
C1045 C1044 1.373 . S
C1045 C1046 1.429 . S
C1045 H1072 0.932 . S
C1046 C1043 1.358 . S
C1046 C1045 1.429 . S
C1046 H1073 0.930 . S
C1047 C1043 1.332 . S
C1047 C1048 1.394 . S
C1047 H1074 0.932 . S
C1048 C1044 1.308 . S
C1048 C1047 1.394 . S
C1048 H1075 0.929 . S
C1049 Tb1040 2.764 . S
C1049 C1043 1.504 . S
C1049 O1061 1.239 . S
C1049 O1062 1.263 . S
O1050 Tb1040 2.325 . S
O1050 C1060 1.236 . S
O1051 Tb1041 2.322 . S
O1051 C1060 1.257 . S
O1052 Tb1041 2.349 . S
O1052 C1063 1.261 . S
O1053 Tb1040 2.303 . S
O1053 C1063 1.257 . S
O1054 Tb1041 2.415 . S
O1054 C1070 1.239 . S
O1055 Tb1041 2.399 . S
O1055 C1070 1.263 . S
O1056 Tb1041 2.325 . S
O1056 C1071 1.236 . S
O1057 Tb1040 2.322 . S
O1057 C1071 1.257 . S
O1058 Tb1040 2.349 . S
O1058 C1042 1.261 . S
O1059 Tb1041 2.303 . S
O1059 C1042 1.257 . S
C1060 O1050 1.236 . S
C1060 O1051 1.257 . S
O1061 Tb1040 2.415 . S
O1061 C1049 1.239 . S
O1062 Tb1040 2.399 . S
O1062 C1049 1.263 . S
C1063 O1052 1.261 . S
C1063 O1053 1.257 . S
C1064 C1067 1.358 . S
C1064 C1068 1.332 . S
C1064 C1070 1.504 1_655 S
C1065 C1066 1.373 . S
C1065 C1069 1.308 . S
C1066 C1065 1.373 . S
C1066 C1067 1.429 . S
C1066 H1076 0.932 . S
C1067 C1064 1.358 . S
C1067 C1066 1.429 . S
C1067 H1077 0.930 . S
C1068 C1064 1.332 . S
C1068 C1069 1.394 . S
C1068 H1078 0.932 1_655 S
C1069 C1065 1.308 . S
C1069 C1068 1.394 . S
C1069 H1079 0.929 . S
C1070 Tb1041 2.764 . S
C1070 O1054 1.239 . S
C1070 O1055 1.263 . S
C1070 C1064 1.504 1_455 S
C1071 O1056 1.236 . S
C1071 O1057 1.257 . S
H1072 C1045 0.932 . S
H1073 C1046 0.930 . S
H1074 C1047 0.932 . S
H1075 C1048 0.929 . S
H1076 C1066 0.932 . S
H1077 C1067 0.930 . S
H1078 C1068 0.932 1_455 S
H1079 C1069 0.929 . S
Tb1080 C1089 2.764 . S
Tb1080 O1090 2.325 . S
Tb1080 O1093 2.303 . S
Tb1080 O1097 2.322 . S
Tb1080 O1098 2.349 . S
Tb1080 O1101 2.415 . S
Tb1080 O1102 2.399 . S
Tb1081 O1091 2.322 . S
Tb1081 O1092 2.349 . S
Tb1081 O1094 2.415 . S
Tb1081 O1095 2.399 . S
Tb1081 O1096 2.325 . S
Tb1081 O1099 2.303 . S
Tb1081 C1110 2.764 . S
C1082 O1098 1.261 . S
C1082 O1099 1.257 . S
C1083 C1086 1.358 . S
C1083 C1087 1.332 . S
C1083 C1089 1.504 . S
C1084 C1085 1.373 . S
C1084 C1088 1.308 . S
C1085 C1084 1.373 . S
C1085 C1086 1.429 . S
C1085 H1112 0.932 . S
C1086 C1083 1.358 . S
C1086 C1085 1.429 . S
C1086 H1113 0.930 . S
C1087 C1083 1.332 . S
C1087 C1088 1.394 . S
C1087 H1114 0.932 . S
C1088 C1084 1.308 . S
C1088 C1087 1.394 . S
C1088 H1115 0.929 . S
C1089 Tb1080 2.764 . S
C1089 C1083 1.504 . S
C1089 O1101 1.239 . S
C1089 O1102 1.263 . S
O1090 Tb1080 2.325 . S
O1090 C1100 1.236 . S
O1091 Tb1081 2.322 . S
O1091 C1100 1.257 . S
O1092 Tb1081 2.349 . S
O1092 C1103 1.261 . S
O1093 Tb1080 2.303 . S
O1093 C1103 1.257 . S
O1094 Tb1081 2.415 . S
O1094 C1110 1.239 . S
O1095 Tb1081 2.399 . S
O1095 C1110 1.263 . S
O1096 Tb1081 2.325 . S
O1096 C1111 1.236 . S
O1097 Tb1080 2.322 . S
O1097 C1111 1.257 . S
O1098 Tb1080 2.349 . S
O1098 C1082 1.261 . S
O1099 Tb1081 2.303 . S
O1099 C1082 1.257 . S
C1100 O1090 1.236 . S
C1100 O1091 1.257 . S
O1101 Tb1080 2.415 . S
O1101 C1089 1.239 . S
O1102 Tb1080 2.399 . S
O1102 C1089 1.263 . S
C1103 O1092 1.261 . S
C1103 O1093 1.257 . S
C1104 C1107 1.358 . S
C1104 C1108 1.332 . S
C1104 C1110 1.504 . S
C1105 C1106 1.373 . S
C1105 C1109 1.308 . S
C1106 C1105 1.373 . S
C1106 C1107 1.429 . S
C1106 H1116 0.932 . S
C1107 C1104 1.358 . S
C1107 C1106 1.429 . S
C1107 H1117 0.930 . S
C1108 C1104 1.332 . S
C1108 C1109 1.394 . S
C1108 H1118 0.932 . S
C1109 C1105 1.308 . S
C1109 C1108 1.394 . S
C1109 H1119 0.929 . S
C1110 Tb1081 2.764 . S
C1110 O1094 1.239 . S
C1110 O1095 1.263 . S
C1110 C1104 1.504 . S
C1111 O1096 1.236 . S
C1111 O1097 1.257 . S
H1112 C1085 0.932 . S
H1113 C1086 0.930 . S
H1114 C1087 0.932 . S
H1115 C1088 0.929 . S
H1116 C1106 0.932 . S
H1117 C1107 0.930 . S
H1118 C1108 0.932 . S
H1119 C1109 0.929 . S
Tb1120 C1129 2.764 . S
Tb1120 O1130 2.325 . S
Tb1120 O1133 2.303 . S
Tb1120 O1137 2.322 . S
Tb1120 O1138 2.349 . S
Tb1120 O1141 2.415 . S
Tb1120 O1142 2.399 . S
Tb1121 O1131 2.322 . S
Tb1121 O1132 2.349 . S
Tb1121 O1134 2.415 . S
Tb1121 O1135 2.399 . S
Tb1121 O1136 2.325 . S
Tb1121 O1139 2.303 . S
Tb1121 C1150 2.764 . S
C1122 O1138 1.261 . S
C1122 O1139 1.257 . S
C1123 C1126 1.358 . S
C1123 C1127 1.332 . S
C1123 C1129 1.504 . S
C1124 C1125 1.373 . S
C1124 C1128 1.308 . S
C1125 C1124 1.373 . S
C1125 C1126 1.429 . S
C1125 H1152 0.932 . S
C1126 C1123 1.358 . S
C1126 C1125 1.429 . S
C1126 H1153 0.930 . S
C1127 C1123 1.332 . S
C1127 C1128 1.394 . S
C1127 H1154 0.932 . S
C1128 C1124 1.308 . S
C1128 C1127 1.394 . S
C1128 H1155 0.929 . S
C1129 Tb1120 2.764 . S
C1129 C1123 1.504 . S
C1129 O1141 1.239 . S
C1129 O1142 1.263 . S
O1130 Tb1120 2.325 . S
O1130 C1140 1.236 . S
O1131 Tb1121 2.322 . S
O1131 C1140 1.257 . S
O1132 Tb1121 2.349 . S
O1132 C1143 1.261 . S
O1133 Tb1120 2.303 . S
O1133 C1143 1.257 . S
O1134 Tb1121 2.415 . S
O1134 C1150 1.239 . S
O1135 Tb1121 2.399 . S
O1135 C1150 1.263 . S
O1136 Tb1121 2.325 . S
O1136 C1151 1.236 . S
O1137 Tb1120 2.322 . S
O1137 C1151 1.257 . S
O1138 Tb1120 2.349 . S
O1138 C1122 1.261 . S
O1139 Tb1121 2.303 . S
O1139 C1122 1.257 . S
C1140 O1130 1.236 . S
C1140 O1131 1.257 . S
O1141 Tb1120 2.415 . S
O1141 C1129 1.239 . S
O1142 Tb1120 2.399 . S
O1142 C1129 1.263 . S
C1143 O1132 1.261 . S
C1143 O1133 1.257 . S
C1144 C1147 1.358 . S
C1144 C1148 1.332 . S
C1144 C1150 1.504 . S
C1145 C1146 1.373 . S
C1145 C1149 1.308 . S
C1146 C1145 1.373 . S
C1146 C1147 1.429 . S
C1146 H1156 0.932 . S
C1147 C1144 1.358 . S
C1147 C1146 1.429 . S
C1147 H1157 0.930 . S
C1148 C1144 1.332 . S
C1148 C1149 1.394 . S
C1148 H1158 0.932 . S
C1149 C1145 1.308 . S
C1149 C1148 1.394 . S
C1149 H1159 0.929 . S
C1150 Tb1121 2.764 . S
C1150 O1134 1.239 . S
C1150 O1135 1.263 . S
C1150 C1144 1.504 . S
C1151 O1136 1.236 . S
C1151 O1137 1.257 . S
H1152 C1125 0.932 . S
H1153 C1126 0.930 . S
H1154 C1127 0.932 . S
H1155 C1128 0.929 . S
H1156 C1146 0.932 . S
H1157 C1147 0.930 . S
H1158 C1148 0.932 . S
H1159 C1149 0.929 . S
Tb1160 C1169 2.755 1_554 S
Tb1160 O1170 2.316 1_554 S
Tb1160 O1173 2.300 1_554 S
Tb1160 O1177 2.333 . S
Tb1160 O1178 2.355 . S
Tb1160 O1181 2.405 1_554 S
Tb1160 O1182 2.393 1_554 S
Tb1161 O1171 2.322 1_554 S
Tb1161 O1172 2.349 1_554 S
Tb1161 O1174 2.415 . S
Tb1161 O1175 2.399 . S
Tb1161 O1176 2.325 . S
Tb1161 O1179 2.303 . S
Tb1161 C1190 2.764 . S
C1162 O1178 1.261 . S
C1162 O1179 1.257 . S
C1163 C1166 1.358 . S
C1163 C1167 1.332 . S
C1163 C1169 1.504 . S
C1164 C1165 1.373 . S
C1164 C1168 1.308 . S
C1165 C1164 1.373 . S
C1165 C1166 1.429 . S
C1165 H1192 0.932 . S
C1166 C1163 1.358 . S
C1166 C1165 1.429 . S
C1166 H1193 0.930 . S
C1167 C1163 1.332 . S
C1167 C1168 1.394 . S
C1167 H1194 0.932 . S
C1168 C1164 1.308 . S
C1168 C1167 1.394 . S
C1168 H1195 0.929 . S
C1169 Tb1160 2.755 1_556 S
C1169 C1163 1.504 . S
C1169 O1181 1.239 . S
C1169 O1182 1.263 . S
O1170 Tb1160 2.316 1_556 S
O1170 C1180 1.236 . S
O1171 Tb1161 2.322 1_556 S
O1171 C1180 1.257 . S
O1172 Tb1161 2.349 1_556 S
O1172 C1183 1.261 . S
O1173 Tb1160 2.300 1_556 S
O1173 C1183 1.257 . S
O1174 Tb1161 2.415 . S
O1174 C1190 1.239 . S
O1175 Tb1161 2.399 . S
O1175 C1190 1.263 . S
O1176 Tb1161 2.325 . S
O1176 C1191 1.236 . S
O1177 Tb1160 2.333 . S
O1177 C1191 1.257 . S
O1178 Tb1160 2.355 . S
O1178 C1162 1.261 . S
O1179 Tb1161 2.303 . S
O1179 C1162 1.257 . S
C1180 O1170 1.236 . S
C1180 O1171 1.257 . S
O1181 Tb1160 2.405 1_556 S
O1181 C1169 1.239 . S
O1182 Tb1160 2.393 1_556 S
O1182 C1169 1.263 . S
C1183 O1172 1.261 . S
C1183 O1173 1.257 . S
C1184 C1187 1.358 . S
C1184 C1188 1.332 . S
C1184 C1190 1.504 . S
C1185 C1186 1.373 . S
C1185 C1189 1.308 . S
C1186 C1185 1.373 . S
C1186 C1187 1.429 . S
C1186 H1196 0.932 . S
C1187 C1184 1.358 . S
C1187 C1186 1.429 . S
C1187 H1197 0.930 . S
C1188 C1184 1.332 . S
C1188 C1189 1.394 . S
C1188 H1198 0.932 . S
C1189 C1185 1.308 . S
C1189 C1188 1.394 . S
C1189 H1199 0.929 . S
C1190 Tb1161 2.764 . S
C1190 O1174 1.239 . S
C1190 O1175 1.263 . S
C1190 C1184 1.504 . S
C1191 O1176 1.236 . S
C1191 O1177 1.257 . S
H1192 C1165 0.932 . S
H1193 C1166 0.930 . S
H1194 C1167 0.932 . S
H1195 C1168 0.929 . S
H1196 C1186 0.932 . S
H1197 C1187 0.930 . S
H1198 C1188 0.932 . S
H1199 C1189 0.929 . S
Tb1200 C1209 2.764 . S
Tb1200 O1210 2.325 . S
Tb1200 O1213 2.303 . S
Tb1200 O1217 2.322 . S
Tb1200 O1218 2.349 . S
Tb1200 O1221 2.415 . S
Tb1200 O1222 2.399 . S
Tb1201 O1211 2.322 . S
Tb1201 O1212 2.349 . S
Tb1201 O1214 2.415 . S
Tb1201 O1215 2.399 . S
Tb1201 O1216 2.325 . S
Tb1201 O1219 2.303 . S
Tb1201 C1230 2.764 . S
C1202 O1218 1.261 . S
C1202 O1219 1.257 . S
C1203 C1206 1.358 . S
C1203 C1207 1.332 . S
C1203 C1209 1.504 . S
C1204 C1205 1.373 . S
C1204 C1208 1.308 . S
C1205 C1204 1.373 . S
C1205 C1206 1.429 . S
C1205 H1232 0.932 . S
C1206 C1203 1.358 . S
C1206 C1205 1.429 . S
C1206 H1233 0.930 . S
C1207 C1203 1.332 . S
C1207 C1208 1.394 . S
C1207 H1234 0.932 . S
C1208 C1204 1.308 . S
C1208 C1207 1.394 . S
C1208 H1235 0.929 . S
C1209 Tb1200 2.764 . S
C1209 C1203 1.504 . S
C1209 O1221 1.239 . S
C1209 O1222 1.263 . S
O1210 Tb1200 2.325 . S
O1210 C1220 1.236 . S
O1211 Tb1201 2.322 . S
O1211 C1220 1.257 . S
O1212 Tb1201 2.349 . S
O1212 C1223 1.261 . S
O1213 Tb1200 2.303 . S
O1213 C1223 1.257 . S
O1214 Tb1201 2.415 . S
O1214 C1230 1.239 . S
O1215 Tb1201 2.399 . S
O1215 C1230 1.263 . S
O1216 Tb1201 2.325 . S
O1216 C1231 1.236 . S
O1217 Tb1200 2.322 . S
O1217 C1231 1.257 . S
O1218 Tb1200 2.349 . S
O1218 C1202 1.261 . S
O1219 Tb1201 2.303 . S
O1219 C1202 1.257 . S
C1220 O1210 1.236 . S
C1220 O1211 1.257 . S
O1221 Tb1200 2.415 . S
O1221 C1209 1.239 . S
O1222 Tb1200 2.399 . S
O1222 C1209 1.263 . S
C1223 O1212 1.261 . S
C1223 O1213 1.257 . S
C1224 C1227 1.358 . S
C1224 C1228 1.332 . S
C1224 C1230 1.504 1_655 S
C1225 C1226 1.373 . S
C1225 C1229 1.308 . S
C1226 C1225 1.373 . S
C1226 C1227 1.429 . S
C1226 H1236 0.932 . S
C1227 C1224 1.358 . S
C1227 C1226 1.429 . S
C1227 H1237 0.930 . S
C1228 C1224 1.332 . S
C1228 C1229 1.394 . S
C1228 H1238 0.932 1_655 S
C1229 C1225 1.308 . S
C1229 C1228 1.394 . S
C1229 H1239 0.929 . S
C1230 Tb1201 2.764 . S
C1230 O1214 1.239 . S
C1230 O1215 1.263 . S
C1230 C1224 1.504 1_455 S
C1231 O1216 1.236 . S
C1231 O1217 1.257 . S
H1232 C1205 0.932 . S
H1233 C1206 0.930 . S
H1234 C1207 0.932 . S
H1235 C1208 0.929 . S
H1236 C1226 0.932 . S
H1237 C1227 0.930 . S
H1238 C1228 0.932 1_455 S
H1239 C1229 0.929 . S
Tb1240 C1249 2.764 . S
Tb1240 O1250 2.325 . S
Tb1240 O1253 2.303 . S
Tb1240 O1257 2.322 . S
Tb1240 O1258 2.349 . S
Tb1240 O1261 2.415 . S
Tb1240 O1262 2.399 . S
Tb1241 O1251 2.322 . S
Tb1241 O1252 2.349 . S
Tb1241 O1254 2.415 . S
Tb1241 O1255 2.399 . S
Tb1241 O1256 2.325 . S
Tb1241 O1259 2.303 . S
Tb1241 C1270 2.764 . S
C1242 O1258 1.261 . S
C1242 O1259 1.257 . S
C1243 C1246 1.358 . S
C1243 C1247 1.332 . S
C1243 C1249 1.504 . S
C1244 C1245 1.373 . S
C1244 C1248 1.308 . S
C1245 C1244 1.373 . S
C1245 C1246 1.429 . S
C1245 H1272 0.932 . S
C1246 C1243 1.358 . S
C1246 C1245 1.429 . S
C1246 H1273 0.930 . S
C1247 C1243 1.332 . S
C1247 C1248 1.394 . S
C1247 H1274 0.932 . S
C1248 C1244 1.308 . S
C1248 C1247 1.394 . S
C1248 H1275 0.929 . S
C1249 Tb1240 2.764 . S
C1249 C1243 1.504 . S
C1249 O1261 1.239 . S
C1249 O1262 1.263 . S
O1250 Tb1240 2.325 . S
O1250 C1260 1.236 . S
O1251 Tb1241 2.322 . S
O1251 C1260 1.257 . S
O1252 Tb1241 2.349 . S
O1252 C1263 1.261 . S
O1253 Tb1240 2.303 . S
O1253 C1263 1.257 . S
O1254 Tb1241 2.415 . S
O1254 C1270 1.239 . S
O1255 Tb1241 2.399 . S
O1255 C1270 1.263 . S
O1256 Tb1241 2.325 . S
O1256 C1271 1.236 . S
O1257 Tb1240 2.322 . S
O1257 C1271 1.257 . S
O1258 Tb1240 2.349 . S
O1258 C1242 1.261 . S
O1259 Tb1241 2.303 . S
O1259 C1242 1.257 . S
C1260 O1250 1.236 . S
C1260 O1251 1.257 . S
O1261 Tb1240 2.415 . S
O1261 C1249 1.239 . S
O1262 Tb1240 2.399 . S
O1262 C1249 1.263 . S
C1263 O1252 1.261 . S
C1263 O1253 1.257 . S
C1264 C1267 1.358 . S
C1264 C1268 1.332 . S
C1264 C1270 1.504 . S
C1265 C1266 1.373 . S
C1265 C1269 1.308 . S
C1266 C1265 1.373 . S
C1266 C1267 1.429 . S
C1266 H1276 0.932 . S
C1267 C1264 1.358 . S
C1267 C1266 1.429 . S
C1267 H1277 0.930 . S
C1268 C1264 1.332 . S
C1268 C1269 1.394 . S
C1268 H1278 0.932 . S
C1269 C1265 1.308 . S
C1269 C1268 1.394 . S
C1269 H1279 0.929 . S
C1270 Tb1241 2.764 . S
C1270 O1254 1.239 . S
C1270 O1255 1.263 . S
C1270 C1264 1.504 . S
C1271 O1256 1.236 . S
C1271 O1257 1.257 . S
H1272 C1245 0.932 . S
H1273 C1246 0.930 . S
H1274 C1247 0.932 . S
H1275 C1248 0.929 . S
H1276 C1266 0.932 . S
H1277 C1267 0.930 . S
H1278 C1268 0.932 . S
H1279 C1269 0.929 . S
C25 C140 0.803 . S
C20 C65 0.803 . S
C105 C60 0.803 . S
C100 C145 0.803 . S
C220 C185 0.803 . S
C225 C260 0.803 . S
C300 C265 0.803 . S
C180 C305 0.803 . S
C324 C471 0.803 . S
C364 C351 0.803 . S
C404 C391 0.803 . S
C444 C431 0.803 . S
C484 C551 0.803 . S
C524 C591 0.803 . S
C631 C564 0.803 . S
C511 C604 0.803 . S
C665 C780 0.803 . S
C660 C705 0.803 . S
C700 C745 0.803 . S
C785 C740 0.803 . S
C825 C860 0.803 . S
C900 C865 0.803 . S
C905 C940 0.803 . S
C820 C945 0.803 . S
C1111 C964 0.803 . S
C991 C1004 0.803 . S
C1044 C1031 0.803 . S
C1071 C1084 0.803 . S
C1191 C1124 0.803 . S
C1231 C1164 0.803 . S
C1271 C1204 0.803 . S
C1244 C1151 0.803 . S
C1105 C23 1.756 . S
C63 C345 1.756 . S
C103 C1025 1.756 . S
C143 C425 1.756 . S
C183 C1185 1.756 . S
C585 C223 1.756 . S
C1265 C263 1.756 . S
C303 C505 1.756 . S
C322 C764 1.756 . S
C4 C362 1.756 . S
C684 C402 1.756 . S
C84 C442 1.756 . S
C844 C482 1.756 . S
C244 C522 1.756 . S
C562 C924 1.756 . S
C602 C164 1.756 . S
C663 C465 1.756 . S
C703 C985 1.756 . S
C743 C385 1.756 . S
C783 C1065 1.756 . S
C823 C545 1.756 . S
C863 C1225 1.756 . S
C625 C903 1.756 . S
C943 C1145 1.756 . S
C124 C962 1.756 . S
C644 C1002 1.756 . S
C44 C1042 1.756 . S
C724 C1082 1.756 . S
C204 C1122 1.756 . S
C1162 C884 1.756 . S
C1202 C284 1.756 . S
C804 C1242 1.756 . S
C2 C162 2.925 1_545 S
C42 C202 2.924 . S
C82 C242 2.925 1_565 S
C282 C122 2.924 1_554 S
C503 C343 2.925 1_545 S
C543 C383 2.924 . S
C423 C583 2.925 1_545 S
C463 C623 2.924 1_554 S
C642 C802 2.925 . S
C842 C682 2.924 1_554 S
C882 C722 2.925 . S
C922 C762 2.924 . S
C1143 C983 2.925 . S
C1023 C1183 2.924 1_554 S
C1223 C1063 2.925 . S
C1103 C1263 2.924 . S
C311 C31 3.714 . S
C71 C191 3.714 . S
C111 C231 3.714 . S
C271 C151 3.714 . S
C340 C620 3.714 . S
C500 C380 3.714 . S
C540 C420 3.714 . S
C460 C580 3.714 . S
C671 C951 3.714 . S
C831 C711 3.714 . S
C871 C751 3.714 . S
C911 C791 3.714 . S
C980 C1260 3.714 . S
C1140 C1020 3.714 . S
C1060 C1180 3.714 . S
C1220 C1100 3.714 . S
