# Generated by pormake.
# Topology unu, (4)-cn, num edge types: 1
# Building blocks:
#     Node 0, Type 0, BuildingBlock: QUQFOY_clean_sbu_1, # of connection points: 4
#     Node 1, Type 0, BuildingBlock: QUQFOY_clean_sbu_1, # of connection points: 4
#     Node 2, Type 0, BuildingBlock: QUQFOY_clean_sbu_1, # of connection points: 4
#     Node 3, Type 0, BuildingBlock: QUQFOY_clean_sbu_1, # of connection points: 4
#     Node 4, Type 0, BuildingBlock: QUQFOY_clean_sbu_1, # of connection points: 4
#     Node 5, Type 0, BuildingBlock: QUQFOY_clean_sbu_1, # of connection points: 4
#     Node 6, Type 0, BuildingBlock: QUQFOY_clean_sbu_1, # of connection points: 4
#     Node 7, Type 0, BuildingBlock: QUQFOY_clean_sbu_1, # of connection points: 4
#     Node 8, Type 0, BuildingBlock: QUQFOY_clean_sbu_1, # of connection points: 4
#     Node 9, Type 0, BuildingBlock: QUQFOY_clean_sbu_1, # of connection points: 4
#     Node 10, Type 0, BuildingBlock: QUQFOY_clean_sbu_1, # of connection points: 4
#     Node 11, Type 0, BuildingBlock: QUQFOY_clean_sbu_1, # of connection points: 4
#     Node 12, Type 0, BuildingBlock: QUQFOY_clean_sbu_1, # of connection points: 4
#     Node 13, Type 0, BuildingBlock: QUQFOY_clean_sbu_1, # of connection points: 4
#     Node 14, Type 0, BuildingBlock: QUQFOY_clean_sbu_1, # of connection points: 4
#     Node 15, Type 0, BuildingBlock: QUQFOY_clean_sbu_1, # of connection points: 4
#     Node 16, Type 0, BuildingBlock: QUQFOY_clean_sbu_1, # of connection points: 4
#     Node 17, Type 0, BuildingBlock: QUQFOY_clean_sbu_1, # of connection points: 4
#     Node 18, Type 0, BuildingBlock: QUQFOY_clean_sbu_1, # of connection points: 4
#     Node 19, Type 0, BuildingBlock: QUQFOY_clean_sbu_1, # of connection points: 4
#     Node 20, Type 0, BuildingBlock: QUQFOY_clean_sbu_1, # of connection points: 4
#     Node 21, Type 0, BuildingBlock: QUQFOY_clean_sbu_1, # of connection points: 4
#     Node 22, Type 0, BuildingBlock: QUQFOY_clean_sbu_1, # of connection points: 4
#     Node 23, Type 0, BuildingBlock: QUQFOY_clean_sbu_1, # of connection points: 4
#     Node 24, Type 0, BuildingBlock: QUQFOY_clean_sbu_1, # of connection points: 4
#     Node 25, Type 0, BuildingBlock: QUQFOY_clean_sbu_1, # of connection points: 4
#     Node 26, Type 0, BuildingBlock: QUQFOY_clean_sbu_1, # of connection points: 4
#     Node 27, Type 0, BuildingBlock: QUQFOY_clean_sbu_1, # of connection points: 4
#     Node 28, Type 0, BuildingBlock: QUQFOY_clean_sbu_1, # of connection points: 4
#     Node 29, Type 0, BuildingBlock: QUQFOY_clean_sbu_1, # of connection points: 4
#     Node 30, Type 0, BuildingBlock: QUQFOY_clean_sbu_1, # of connection points: 4
#     Node 31, Type 0, BuildingBlock: QUQFOY_clean_sbu_1, # of connection points: 4
#     Node 32, Type 0, BuildingBlock: QUQFOY_clean_sbu_1, # of connection points: 4
#     Node 33, Type 0, BuildingBlock: QUQFOY_clean_sbu_1, # of connection points: 4
#     Node 34, Type 0, BuildingBlock: QUQFOY_clean_sbu_1, # of connection points: 4
#     Node 35, Type 0, BuildingBlock: QUQFOY_clean_sbu_1, # of connection points: 4
#     Edge 36, Type (0, 0), BuildingBlock: CIFDUS_clean_linker_0, # of connection points: 2
#     Edge 37, Type (0, 0), BuildingBlock: CIFDUS_clean_linker_0, # of connection points: 2
#     Edge 38, Type (0, 0), BuildingBlock: CIFDUS_clean_linker_0, # of connection points: 2
#     Edge 39, Type (0, 0), BuildingBlock: CIFDUS_clean_linker_0, # of connection points: 2
#     Edge 40, Type (0, 0), BuildingBlock: CIFDUS_clean_linker_0, # of connection points: 2
#     Edge 41, Type (0, 0), BuildingBlock: CIFDUS_clean_linker_0, # of connection points: 2
#     Edge 42, Type (0, 0), BuildingBlock: CIFDUS_clean_linker_0, # of connection points: 2
#     Edge 43, Type (0, 0), BuildingBlock: CIFDUS_clean_linker_0, # of connection points: 2
#     Edge 44, Type (0, 0), BuildingBlock: CIFDUS_clean_linker_0, # of connection points: 2
#     Edge 45, Type (0, 0), BuildingBlock: CIFDUS_clean_linker_0, # of connection points: 2
#     Edge 46, Type (0, 0), BuildingBlock: CIFDUS_clean_linker_0, # of connection points: 2
#     Edge 47, Type (0, 0), BuildingBlock: CIFDUS_clean_linker_0, # of connection points: 2
#     Edge 48, Type (0, 0), BuildingBlock: CIFDUS_clean_linker_0, # of connection points: 2
#     Edge 49, Type (0, 0), BuildingBlock: CIFDUS_clean_linker_0, # of connection points: 2
#     Edge 50, Type (0, 0), BuildingBlock: CIFDUS_clean_linker_0, # of connection points: 2
#     Edge 51, Type (0, 0), BuildingBlock: CIFDUS_clean_linker_0, # of connection points: 2
#     Edge 52, Type (0, 0), BuildingBlock: CIFDUS_clean_linker_0, # of connection points: 2
#     Edge 53, Type (0, 0), BuildingBlock: CIFDUS_clean_linker_0, # of connection points: 2
#     Edge 54, Type (0, 0), BuildingBlock: CIFDUS_clean_linker_0, # of connection points: 2
#     Edge 55, Type (0, 0), BuildingBlock: CIFDUS_clean_linker_0, # of connection points: 2
#     Edge 56, Type (0, 0), BuildingBlock: CIFDUS_clean_linker_0, # of connection points: 2
#     Edge 57, Type (0, 0), BuildingBlock: CIFDUS_clean_linker_0, # of connection points: 2
#     Edge 58, Type (0, 0), BuildingBlock: CIFDUS_clean_linker_0, # of connection points: 2
#     Edge 59, Type (0, 0), BuildingBlock: CIFDUS_clean_linker_0, # of connection points: 2
#     Edge 60, Type (0, 0), BuildingBlock: CIFDUS_clean_linker_0, # of connection points: 2
#     Edge 61, Type (0, 0), BuildingBlock: CIFDUS_clean_linker_0, # of connection points: 2
#     Edge 62, Type (0, 0), BuildingBlock: CIFDUS_clean_linker_0, # of connection points: 2
#     Edge 63, Type (0, 0), BuildingBlock: CIFDUS_clean_linker_0, # of connection points: 2
#     Edge 64, Type (0, 0), BuildingBlock: CIFDUS_clean_linker_0, # of connection points: 2
#     Edge 65, Type (0, 0), BuildingBlock: CIFDUS_clean_linker_0, # of connection points: 2
#     Edge 66, Type (0, 0), BuildingBlock: CIFDUS_clean_linker_0, # of connection points: 2
#     Edge 67, Type (0, 0), BuildingBlock: CIFDUS_clean_linker_0, # of connection points: 2
#     Edge 68, Type (0, 0), BuildingBlock: CIFDUS_clean_linker_0, # of connection points: 2
#     Edge 69, Type (0, 0), BuildingBlock: CIFDUS_clean_linker_0, # of connection points: 2
#     Edge 70, Type (0, 0), BuildingBlock: CIFDUS_clean_linker_0, # of connection points: 2
#     Edge 71, Type (0, 0), BuildingBlock: CIFDUS_clean_linker_0, # of connection points: 2
#     Edge 72, Type (0, 0), BuildingBlock: CIFDUS_clean_linker_0, # of connection points: 2
#     Edge 73, Type (0, 0), BuildingBlock: CIFDUS_clean_linker_0, # of connection points: 2
#     Edge 74, Type (0, 0), BuildingBlock: CIFDUS_clean_linker_0, # of connection points: 2
#     Edge 75, Type (0, 0), BuildingBlock: CIFDUS_clean_linker_0, # of connection points: 2
#     Edge 76, Type (0, 0), BuildingBlock: CIFDUS_clean_linker_0, # of connection points: 2
#     Edge 77, Type (0, 0), BuildingBlock: CIFDUS_clean_linker_0, # of connection points: 2
#     Edge 78, Type (0, 0), BuildingBlock: CIFDUS_clean_linker_0, # of connection points: 2
#     Edge 79, Type (0, 0), BuildingBlock: CIFDUS_clean_linker_0, # of connection points: 2
#     Edge 80, Type (0, 0), BuildingBlock: CIFDUS_clean_linker_0, # of connection points: 2
#     Edge 81, Type (0, 0), BuildingBlock: CIFDUS_clean_linker_0, # of connection points: 2
#     Edge 82, Type (0, 0), BuildingBlock: CIFDUS_clean_linker_0, # of connection points: 2
#     Edge 83, Type (0, 0), BuildingBlock: CIFDUS_clean_linker_0, # of connection points: 2
#     Edge 84, Type (0, 0), BuildingBlock: CIFDUS_clean_linker_0, # of connection points: 2
#     Edge 85, Type (0, 0), BuildingBlock: CIFDUS_clean_linker_0, # of connection points: 2
#     Edge 86, Type (0, 0), BuildingBlock: CIFDUS_clean_linker_0, # of connection points: 2
#     Edge 87, Type (0, 0), BuildingBlock: CIFDUS_clean_linker_0, # of connection points: 2
#     Edge 88, Type (0, 0), BuildingBlock: CIFDUS_clean_linker_0, # of connection points: 2
#     Edge 89, Type (0, 0), BuildingBlock: CIFDUS_clean_linker_0, # of connection points: 2
#     Edge 90, Type (0, 0), BuildingBlock: CIFDUS_clean_linker_0, # of connection points: 2
#     Edge 91, Type (0, 0), BuildingBlock: CIFDUS_clean_linker_0, # of connection points: 2
#     Edge 92, Type (0, 0), BuildingBlock: CIFDUS_clean_linker_0, # of connection points: 2
#     Edge 93, Type (0, 0), BuildingBlock: CIFDUS_clean_linker_0, # of connection points: 2
#     Edge 94, Type (0, 0), BuildingBlock: CIFDUS_clean_linker_0, # of connection points: 2
#     Edge 95, Type (0, 0), BuildingBlock: CIFDUS_clean_linker_0, # of connection points: 2
#     Edge 96, Type (0, 0), BuildingBlock: CIFDUS_clean_linker_0, # of connection points: 2
#     Edge 97, Type (0, 0), BuildingBlock: CIFDUS_clean_linker_0, # of connection points: 2
#     Edge 98, Type (0, 0), BuildingBlock: CIFDUS_clean_linker_0, # of connection points: 2
#     Edge 99, Type (0, 0), BuildingBlock: CIFDUS_clean_linker_0, # of connection points: 2
#     Edge 100, Type (0, 0), BuildingBlock: CIFDUS_clean_linker_0, # of connection points: 2
#     Edge 101, Type (0, 0), BuildingBlock: CIFDUS_clean_linker_0, # of connection points: 2
#     Edge 102, Type (0, 0), BuildingBlock: CIFDUS_clean_linker_0, # of connection points: 2
#     Edge 103, Type (0, 0), BuildingBlock: CIFDUS_clean_linker_0, # of connection points: 2
#     Edge 104, Type (0, 0), BuildingBlock: CIFDUS_clean_linker_0, # of connection points: 2
#     Edge 105, Type (0, 0), BuildingBlock: CIFDUS_clean_linker_0, # of connection points: 2
#     Edge 106, Type (0, 0), BuildingBlock: CIFDUS_clean_linker_0, # of connection points: 2
#     Edge 107, Type (0, 0), BuildingBlock: CIFDUS_clean_linker_0, # of connection points: 2
# Relax obj value: 0.081
# Max RMSD: 0.133
# Mean RMSD: 0.133
data_MOF--net-unu--node1-QUQFOY_clean_sbu_1--edge1-CIFDUS_clean_linker_0
_symmetry_space_group_name_H-M    P1
_symmetry_Int_Tables_number       1
_symmetry_cell_setting            triclinic
loop_
_symmetry_equiv_pos_as_xyz
'x, y, z'
_cell_length_a     38.062129
_cell_length_b     37.968306
_cell_length_c     112.91712
_cell_angle_alpha  89.974199
_cell_angle_beta   89.660189
_cell_angle_gamma 119.89568
loop_
_atom_site_label
_atom_site_type_symbol
_atom_site_fract_x
_atom_site_fract_y
_atom_site_fract_z
_atom_type_partial_charge
O0 O 0.19071 0.01728 0.122 0.0
Cd1 Cd 0.2418 0.07269 0.1188 0.0
Cd2 Cd 0.23588 0.07922 0.1426 0.0
O3 O 0.19634 0.01706 0.14143 0.0
O4 O 0.26446 0.06674 0.10337 0.0
O5 O 0.2957 0.07486 0.12045 0.0
C6 C 0.29422 0.06811 0.10918 0.0
C7 C 0.27923 0.11046 0.15867 0.0
C8 C 0.17862 0.99912 0.13191 0.0
C9 C 0.21551 0.13041 0.12651 0.0
O10 O 0.21305 0.11475 0.13663 0.0
O11 O 0.23072 0.12115 0.11779 0.0
O12 O 0.24042 0.09142 0.15993 0.0
O13 O 0.29374 0.10913 0.14841 0.0
O14 O 0.03558 0.19413 0.1212 0.0
Cd15 Cd 0.98083 0.19034 0.11751 0.0
Cd16 Cd 0.97222 0.17825 0.14162 0.0
O17 O 0.03423 0.19982 0.14063 0.0
O18 O 0.98846 0.21721 0.10168 0.0
O19 O 0.97915 0.24278 0.11819 0.0
C20 C 0.98688 0.24653 0.10695 0.0
C21 C 0.94012 0.1902 0.15773 0.0
C22 C 0.05278 0.19978 0.13119 0.0
C23 C 0.92239 0.10667 0.12542 0.0
O24 O 0.93695 0.1201 0.13558 0.0
O25 O 0.93255 0.13085 0.1166 0.0
O26 O 0.95888 0.17009 0.15894 0.0
O27 O 0.94221 0.2065 0.14751 0.0
O28 O 0.86157 0.8629 0.1217 0.0
Cd29 Cd 0.86516 0.81119 0.11878 0.0
Cd30 Cd 0.87634 0.81681 0.14266 0.0
O31 O 0.85494 0.85746 0.14115 0.0
O32 O 0.83749 0.78881 0.10333 0.0
O33 O 0.81304 0.75762 0.12047 0.0
C34 C 0.8086 0.7592 0.10917 0.0
C35 C 0.86265 0.77299 0.15889 0.0
C36 C 0.85542 0.87532 0.13153 0.0
C37 C 0.94816 0.83608 0.12669 0.0
O38 O 0.93465 0.83864 0.13676 0.0
O39 O 0.92418 0.82135 0.11794 0.0
O40 O 0.88292 0.81187 0.16005 0.0
O41 O 0.84721 0.75873 0.14864 0.0
O42 O 0.02514 0.1883 0.40569 0.0
Cd43 Cd 0.08047 0.24009 0.40784 0.0
Cd44 Cd 0.08029 0.2362 0.38408 0.0
O45 O 1.01865 0.19582 0.3866 0.0
O46 O 0.07756 0.26367 0.42343 0.0
O47 O 0.08043 0.29308 0.40626 0.0
C48 C 0.07611 0.29228 0.41765 0.0
C49 C 0.10981 0.28222 0.36831 0.0
C50 C 1.00398 0.17687 0.39633 0.0
C51 C 0.13604 0.21525 0.39754 0.0
O52 O 0.11692 0.21285 0.38813 0.0
O53 O 0.12969 0.23003 0.40691 0.0
O54 O 0.08923 0.2436 0.36657 0.0
O55 O 0.11027 0.29517 0.37892 0.0
O56 O 0.86639 0.85674 0.40886 0.0
Cd57 Cd 0.81623 0.86217 0.41267 0.0
Cd58 Cd 0.81839 0.87249 0.38919 0.0
O59 O 0.85907 0.85101 0.38947 0.0
O60 O 0.79422 0.83333 0.42813 0.0
O61 O 0.76179 0.81106 0.41118 0.0
C62 C 0.76388 0.80537 0.42239 0.0
C63 C 0.76653 0.85524 0.37548 0.0
C64 C 0.87764 0.85074 0.3988 0.0
C65 C 0.84192 0.94582 0.40463 0.0
O66 O 0.84219 0.93155 0.3945 0.0
O67 O 0.82845 0.92222 0.4136 0.0
O68 O 0.80415 0.87606 0.3724 0.0
O69 O 0.75829 0.84101 0.38616 0.0
O70 O 0.19259 0.02576 0.41222 0.0
Cd71 Cd 0.19008 0.97041 0.41304 0.0
Cd72 Cd 0.18058 0.97415 0.38969 0.0
O73 O 0.2019 0.03554 0.39295 0.0
O74 O 0.21762 0.97129 0.42819 0.0
O75 O 0.24326 0.97152 0.41055 0.0
C76 C 0.24741 0.97406 0.42193 0.0
C77 C 0.19656 0.94606 0.37349 0.0
C78 C 0.19977 0.04846 0.4032 0.0
C79 C 0.10754 0.91601 0.4042 0.0
O80 O 0.12161 0.93665 0.39476 0.0
O81 O 0.13112 0.92097 0.4128 0.0
O82 O 0.17758 0.96597 0.37215 0.0
O83 O 0.21004 0.94545 0.38393 0.0
O84 O 0.8642 0.02536 0.90292 0.0
Cd85 Cd 0.81293 0.97003 0.90588 0.0
Cd86 Cd 0.81422 0.96721 0.88227 0.0
O87 O 0.85561 0.02911 0.88372 0.0
O88 O 0.78443 0.97474 0.92035 0.0
O89 O 0.76121 0.96928 0.90212 0.0
C90 C 0.75815 0.97531 0.91325 0.0
C91 C 0.76168 0.93442 0.86865 0.0
C92 C 0.87498 0.04522 0.89323 0.0
C93 C 0.83577 0.91229 0.89602 0.0
O94 O 0.83696 0.93012 0.8864 0.0
O95 O 0.82269 0.92036 0.90547 0.0
O96 O 0.79913 0.95212 0.8653 0.0
O97 O 0.75405 0.93916 0.8795 0.0
O98 O 0.02706 0.85927 0.90889 0.0
Cd99 Cd 0.08233 0.86206 0.90938 0.0
Cd100 Cd 0.07308 0.86127 0.8862 0.0
O101 O 1.0123 0.84131 0.8902 0.0
O102 O 0.08365 0.83596 0.92474 0.0
O103 O 0.07966 0.8081 0.90724 0.0
C104 C 0.07871 0.80499 0.91866 0.0
C105 C 0.10309 0.83767 0.87267 0.0
C106 C 1.00206 0.84799 0.90038 0.0
C107 C 0.13378 0.94033 0.89731 0.0
O108 O 0.11054 0.92198 0.8887 0.0
O109 O 0.13155 0.92091 0.90677 0.0
O110 O 0.08337 0.85518 0.86911 0.0
O111 O 0.10148 0.82921 0.88382 0.0
O112 O 0.18953 0.18649 0.90891 0.0
Cd113 Cd 0.1861 0.23872 0.90991 0.0
Cd114 Cd 0.178 0.22686 0.88669 0.0
O115 O 0.19889 0.18605 0.88963 0.0
O116 O 0.21379 0.26515 0.92507 0.0
O117 O 0.23909 0.29073 0.90741 0.0
C118 C 0.24355 0.29204 0.91877 0.0
C119 C 0.19781 0.27772 0.8723 0.0
C120 C 0.19696 0.17113 0.89991 0.0
C121 C 0.10386 0.21045 0.9008 0.0
O122 O 0.11866 0.20481 0.89137 0.0
O123 O 0.12683 0.22849 0.90957 0.0
O124 O 0.17806 0.23974 0.86949 0.0
O125 O 0.21004 0.28678 0.88311 0.0
O126 O 1.02131 0.84278 0.6243 0.0
Cd127 Cd 0.96662 0.79095 0.62152 0.0
Cd128 Cd 0.96334 0.79216 0.64514 0.0
O129 O 0.02502 0.83447 0.64352 0.0
O130 O 0.97205 0.76269 0.60713 0.0
O131 O 0.96647 0.73937 0.62542 0.0
C132 C 0.97284 0.73649 0.61429 0.0
C133 C 0.93094 0.73941 0.65901 0.0
C134 C 0.04094 0.85402 0.63394 0.0
C135 C 0.90884 0.81386 0.63128 0.0
O136 O 0.9262 0.8147 0.64092 0.0
O137 O 0.91707 0.80074 0.62186 0.0
O138 O 0.9481 0.77698 0.66218 0.0
O139 O 0.93584 0.73179 0.64817 0.0
O140 O 0.18094 0.17462 0.62192 0.0
Cd141 Cd 0.23106 0.16914 0.61818 0.0
Cd142 Cd 0.22845 0.15921 0.64167 0.0
O143 O 0.18851 0.18165 0.64129 0.0
O144 O 0.25235 0.19698 0.60254 0.0
O145 O 0.28518 0.22084 0.61936 0.0
C146 C 0.28256 0.22567 0.60812 0.0
C147 C 0.28094 0.17575 0.65511 0.0
C148 C 0.16989 0.18142 0.6319 0.0
C149 C 0.20434 0.08547 0.62645 0.0
O150 O 0.2035 0.09996 0.6365 0.0
O151 O 0.21882 0.10899 0.61749 0.0
O152 O 0.24346 0.15593 0.65841 0.0
O153 O 0.28876 0.18966 0.64439 0.0
O154 O 0.85664 1.00715 0.61704 0.0
Cd155 Cd 0.85876 0.06231 0.61619 0.0
Cd156 Cd 0.86678 0.05815 0.63933 0.0
O157 O 0.84668 0.99674 0.63629 0.0
O158 O 0.83046 0.06126 0.60115 0.0
O159 O 0.80548 0.06061 0.61893 0.0
C160 C 0.8008 0.05806 0.60757 0.0
C161 C 0.84591 0.08841 0.65365 0.0
C162 C 0.84938 0.98423 0.62602 0.0
C163 C 0.94067 0.11702 0.62538 0.0
O164 O 0.92609 0.09612 0.63474 0.0
O165 O 0.91758 0.11208 0.61664 0.0
O166 O 0.86602 0.07061 0.65653 0.0
O167 O 0.83397 0.08523 0.6428 0.0
O168 O 0.85572 0.35293 0.45164 0.0
Cd169 Cd 0.90827 0.40832 0.45109 0.0
Cd170 Cd 0.89908 0.39871 0.47434 0.0
O171 O 0.85745 0.33828 0.47046 0.0
O172 O 0.93566 0.41022 0.43567 0.0
O173 O 0.95977 0.40612 0.45307 0.0
C174 C 0.96199 0.40566 0.44164 0.0
C175 C 0.95016 0.42581 0.48852 0.0
C176 C 0.84118 0.32807 0.46026 0.0
C177 C 0.88247 0.46081 0.463 0.0
O178 O 0.87762 0.43778 0.47174 0.0
O179 O 0.89895 0.45783 0.45347 0.0
O180 O 0.9124 0.40689 0.49159 0.0
O181 O 0.95887 0.42511 0.47747 0.0
O182 O 0.69355 0.51908 0.45223 0.0
Cd183 Cd 0.63838 0.5166 0.45193 0.0
Cd184 Cd 0.64293 0.50598 0.4751 0.0
O185 O 0.7042 0.5275 0.47145 0.0
O186 O 0.63907 0.54576 0.43706 0.0
O187 O 0.64008 0.56984 0.45497 0.0
C188 C 0.64251 0.57518 0.44361 0.0
C189 C 0.61417 0.52154 0.49123 0.0
C190 C 0.71665 0.52595 0.46105 0.0
C191 C 0.58429 0.4335 0.46079 0.0
O192 O 0.60536 0.4471 0.47009 0.0
O193 O 0.58894 0.45753 0.45226 0.0
O194 O 0.63432 0.50282 0.49266 0.0
O195 O 0.61394 0.53524 0.48076 0.0
O196 O 0.52534 0.19227 0.45783 0.0
Cd197 Cd 0.53028 0.1414 0.45472 0.0
Cd198 Cd 0.53236 0.14094 0.47831 0.0
O199 O 0.51227 0.18267 0.47699 0.0
O200 O 0.50412 0.1192 0.43905 0.0
O201 O 0.47822 0.08778 0.45608 0.0
C202 C 0.4746 0.08962 0.44474 0.0
C203 C 0.51098 0.08791 0.49203 0.0
C204 C 0.51591 0.2026 0.46752 0.0
C205 C 0.60994 0.16384 0.46493 0.0
O206 O 0.59249 0.16393 0.47453 0.0
O207 O 0.58964 0.15172 0.45539 0.0
O208 O 0.5308 0.12536 0.4953 0.0
O209 O 0.49965 0.08052 0.48111 0.0
O210 O 0.68709 0.49846 0.74389 0.0
Cd211 Cd 0.74146 0.55181 0.74469 0.0
Cd212 Cd 0.73856 0.53943 0.72132 0.0
O213 O 0.6774 0.49771 0.7246 0.0
O214 O 0.73836 0.5843 0.75838 0.0
O215 O 0.73892 0.60103 0.73959 0.0
C216 C 0.73497 0.60749 0.75062 0.0
C217 C 0.76899 0.59046 0.70693 0.0
C218 C 0.6647 0.48255 0.73491 0.0
C219 C 0.79738 0.52535 0.73555 0.0
O220 O 0.77696 0.51907 0.72616 0.0
O221 O 0.79177 0.54324 0.74432 0.0
O222 O 0.75194 0.55257 0.70405 0.0
O223 O 0.76493 0.59907 0.71773 0.0
O224 O 0.52829 0.16802 0.7369 0.0
Cd225 Cd 0.47632 0.17107 0.73971 0.0
Cd226 Cd 0.47838 0.17552 0.71607 0.0
O227 O 0.52035 0.15577 0.7177 0.0
O228 O 0.44784 0.13801 0.75422 0.0
O229 O 0.42477 0.11961 0.73601 0.0
C230 C 0.42164 0.1109 0.74718 0.0
C231 C 0.42668 0.15578 0.70212 0.0
C232 C 0.5397 0.15945 0.72725 0.0
C233 C 0.49898 0.25165 0.72987 0.0
O234 O 0.5005 0.23515 0.72026 0.0
O235 O 0.48565 0.23036 0.73929 0.0
O236 O 0.46432 0.1759 0.699 0.0
O237 O 0.41842 0.14309 0.71295 0.0
O238 O 0.85829 0.3433 0.73736 0.0
Cd239 Cd 0.85491 0.28819 0.74034 0.0
Cd240 Cd 0.84265 0.28121 0.71694 0.0
O241 O 0.86324 0.3434 0.71787 0.0
O242 O 0.8895 0.29471 0.75447 0.0
O243 O 0.90523 0.28604 0.73621 0.0
C244 C 0.91534 0.29355 0.74723 0.0
C245 C 0.85969 0.24718 0.70268 0.0
C246 C 0.86351 0.36132 0.72747 0.0
C247 C 0.77128 0.22973 0.73305 0.0
O248 O 0.78447 0.24513 0.72289 0.0
O249 O 0.79564 0.23944 0.74173 0.0
O250 O 0.83832 0.26376 0.69998 0.0
O251 O 0.87457 0.25318 0.71323 0.0
O252 O 0.52945 0.36503 0.24007 0.0
Cd253 Cd 0.47724 0.30999 0.24256 0.0
Cd254 Cd 0.48461 0.30487 0.21907 0.0
O255 O 0.52501 0.36677 0.22064 0.0
O256 O 0.44739 0.31537 0.2565 0.0
O257 O 0.42539 0.30823 0.23806 0.0
C258 C 0.42126 0.31468 0.2491 0.0
C259 C 0.44163 0.27472 0.20287 0.0
C260 C 0.54244 0.38382 0.23028 0.0
C261 C 0.50254 0.25167 0.23508 0.0
O262 O 0.506 0.26813 0.22503 0.0
O263 O 0.48702 0.26072 0.24376 0.0
O264 O 0.48046 0.29334 0.2017 0.0
O265 O 0.42697 0.27604 0.2131 0.0
O266 O 0.68157 0.18597 0.23901 0.0
Cd267 Cd 0.73603 0.18794 0.24164 0.0
Cd268 Cd 0.74327 0.20188 0.21813 0.0
O269 O 0.68138 0.1808 0.21955 0.0
O270 O 0.72932 0.15328 0.25582 0.0
O271 O 0.73707 0.13691 0.23755 0.0
C272 C 0.72991 0.12708 0.24864 0.0
C273 C 0.77449 0.18946 0.20192 0.0
C274 C 0.66363 0.18083 0.22916 0.0
C275 C 0.79522 0.27176 0.23453 0.0
O276 O 0.77961 0.25956 0.2244 0.0
O277 O 0.78538 0.24658 0.24308 0.0
O278 O 0.7562 0.21008 0.20079 0.0
O279 O 0.7723 0.17291 0.2121 0.0
O280 O 0.86053 0.51614 0.24052 0.0
Cd281 Cd 0.85693 0.56757 0.24401 0.0
Cd282 Cd 0.84549 0.56387 0.21996 0.0
O283 O 0.86647 0.52282 0.22108 0.0
O284 O 0.88413 0.58828 0.25962 0.0
O285 O 0.90904 0.62146 0.24278 0.0
C286 C 0.91308 0.61867 0.25405 0.0
C287 C 0.85862 0.60762 0.20373 0.0
C288 C 0.86623 0.50431 0.23053 0.0
C289 C 0.77391 0.54369 0.23621 0.0
O290 O 0.78738 0.54219 0.22603 0.0
O291 O 0.79785 0.55728 0.245 0.0
O292 O 0.83808 0.56875 0.20262 0.0
O293 O 0.87458 0.62192 0.21392 0.0
O294 O 0.69877 0.19073 0.95548 0.0
Cd295 Cd 0.64455 0.1386 0.9523 0.0
Cd296 Cd 0.63546 0.14309 0.97562 0.0
O297 O 0.69724 0.18516 0.97496 0.0
O298 O 0.65251 0.11131 0.93813 0.0
O299 O 0.64314 0.08631 0.95633 0.0
C300 C 0.65131 0.08417 0.9453 0.0
C301 C 0.60186 0.09219 0.98996 0.0
C302 C 0.71574 0.20336 0.96546 0.0
C303 C 0.58488 0.16294 0.9593 0.0
O304 O 0.59932 0.16489 0.96954 0.0
O305 O 0.59553 0.14855 0.95069 0.0
O306 O 0.6174 0.13011 0.99257 0.0
O307 O 0.60839 0.08328 0.97944 0.0
O308 O 0.85497 0.52322 0.954 0.0
Cd309 Cd 0.90633 0.51907 0.95114 0.0
Cd310 Cd 0.89976 0.50804 0.97479 0.0
O311 O 0.8607 0.53125 0.97337 0.0
O312 O 0.92961 0.54743 0.93569 0.0
O313 O 0.96 0.5712 0.95283 0.0
C314 C 0.95892 0.57619 0.94153 0.0
C315 C 0.9449 0.52059 0.99037 0.0
C316 C 0.84282 0.53026 0.96376 0.0
C317 C 0.87875 0.4353 0.95935 0.0
O318 O 0.87566 0.44921 0.96928 0.0
O319 O 0.89507 0.45927 0.95056 0.0
O320 O 0.90631 0.5023 0.99213 0.0
O321 O 0.95827 0.53512 0.97991 0.0
O322 O 0.52433 0.34587 0.95337 0.0
Cd323 Cd 0.52855 0.40121 0.94984 0.0
Cd324 Cd 0.53923 0.40903 0.97339 0.0
O325 O 0.51876 0.34702 0.97281 0.0
O326 O 0.49992 0.3948 0.93449 0.0
O327 O 0.47714 0.40406 0.95159 0.0
C328 C 0.47181 0.39691 0.94035 0.0
C329 C 0.52151 0.44212 0.98772 0.0
C330 C 0.51874 0.32848 0.96339 0.0
C331 C 0.61167 0.46003 0.95758 0.0
O332 O 0.59785 0.44525 0.96775 0.0
O333 O 0.5879 0.44963 0.94874 0.0
O334 O 0.54315 0.42579 0.99034 0.0
O335 O 0.50691 0.43661 0.97715 0.0
O336 O 0.51584 0.66596 0.78936 0.0
Cd337 Cd 0.56696 0.7212 0.78614 0.0
Cd338 Cd 0.56226 0.72847 0.80944 0.0
O339 O 0.5222 0.66607 0.80878 0.0
O340 O 0.59636 0.71466 0.77219 0.0
O341 O 0.61912 0.72366 0.79056 0.0
C342 C 0.62273 0.71598 0.77961 0.0
C343 C 0.61437 0.76454 0.82296 0.0
C344 C 0.5041 0.64794 0.7993 0.0
C345 C 0.54069 0.779 0.79369 0.0
O346 O 0.53845 0.76328 0.80378 0.0
O347 O 0.5559 0.76988 0.78492 0.0
O348 O 0.57684 0.74722 0.82621 0.0
O349 O 0.62233 0.75797 0.81233 0.0
O350 O 0.35875 0.8397 0.79103 0.0
Cd351 Cd 0.30402 0.83682 0.78828 0.0
Cd352 Cd 0.30144 0.83312 0.81188 0.0
O353 O 0.36327 0.85325 0.81016 0.0
O354 O 0.30931 0.86956 0.77365 0.0
O355 O 0.30433 0.88878 0.7918 0.0
C356 C 0.31053 0.8972 0.78061 0.0
C357 C 0.26802 0.853 0.8255 0.0
C358 C 0.37884 0.84895 0.80059 0.0
C359 C 0.24693 0.75644 0.79834 0.0
O360 O 0.26495 0.77326 0.80786 0.0
O361 O 0.2544 0.77749 0.78888 0.0
O362 O 0.28605 0.83361 0.82888 0.0
O363 O 0.27281 0.865 0.8146 0.0
O364 O 0.19162 0.50938 0.78494 0.0
Cd365 Cd 0.19288 0.45595 0.78421 0.0
Cd366 Cd 0.20295 0.46935 0.80747 0.0
O367 O 0.18344 0.51117 0.80426 0.0
O368 O 0.15871 0.4244 0.77034 0.0
O369 O 0.14101 0.40623 0.78902 0.0
C370 C 0.13165 0.40057 0.77792 0.0
C371 C 0.18341 0.41986 0.82232 0.0
C372 C 0.18546 0.52582 0.79392 0.0
C373 C 0.27526 0.48259 0.79282 0.0
O374 O 0.26143 0.48925 0.80229 0.0
O375 O 0.25156 0.46443 0.7842 0.0
O376 O 0.2043 0.45805 0.8248 0.0
O377 O 0.17007 0.41003 0.81164 0.0
O378 O 0.36229 0.85291 0.07601 0.0
Cd379 Cd 0.41755 0.90513 0.07754 0.0
Cd380 Cd 0.41662 0.89564 0.05422 0.0
O381 O 0.3552 0.85424 0.05667 0.0
O382 O 0.41484 0.93027 0.09286 0.0
O383 O 0.41714 0.9577 0.07539 0.0
C384 C 0.41306 0.9581 0.08676 0.0
C385 C 0.44705 0.9468 0.0399 0.0
C386 C 0.34096 0.83826 0.06678 0.0
C387 C 0.47305 0.87811 0.06843 0.0
O388 O 0.45405 0.8737 0.05885 0.0
O389 O 0.46667 0.89498 0.07731 0.0
O390 O 0.43008 0.90892 0.03706 0.0
O391 O 0.4433 0.95552 0.05073 0.0
O392 O 0.20269 0.52259 0.06933 0.0
Cd393 Cd 0.15139 0.52731 0.07136 0.0
Cd394 Cd 0.15554 0.52911 0.04775 0.0
O395 O 0.19454 0.50634 0.0504 0.0
O396 O 0.12708 0.50198 0.08705 0.0
O397 O 0.09849 0.47465 0.06993 0.0
C398 C 0.09874 0.47178 0.08135 0.0
C399 C 0.10877 0.51179 0.03238 0.0
C400 C 0.21353 0.51128 0.06008 0.0
C401 C 0.17735 0.60716 0.06052 0.0
O402 O 0.18012 0.58964 0.05129 0.0
O403 O 0.16177 0.58667 0.06997 0.0
O404 O 0.14712 0.5288 0.03029 0.0
O405 O 0.0965 0.50072 0.04315 0.0
O406 O 0.53066 0.69387 0.07191 0.0
Cd407 Cd 0.52627 0.63866 0.07561 0.0
Cd408 Cd 0.51591 0.63064 0.05193 0.0
O409 O 0.53616 0.69263 0.05246 0.0
O410 O 0.5536 0.64566 0.09123 0.0
O411 O 0.57819 0.63661 0.07443 0.0
C412 C 0.58251 0.64411 0.08566 0.0
C413 C 0.53369 0.59759 0.0376 0.0
C414 C 0.5363 0.71123 0.06189 0.0
C415 C 0.44338 0.57962 0.06775 0.0
O416 O 0.45733 0.59425 0.05757 0.0
O417 O 0.46696 0.59023 0.07663 0.0
O418 O 0.51196 0.61382 0.03498 0.0
O419 O 0.54837 0.6032 0.04817 0.0
O420 O 0.18926 0.6793 0.57215 0.0
Cd421 Cd 0.1377 0.62436 0.57527 0.0
Cd422 Cd 0.14303 0.6175 0.5519 0.0
O423 O 0.18376 0.6797 0.55271 0.0
O424 O 0.10967 0.63111 0.58952 0.0
O425 O 0.08545 0.62272 0.57133 0.0
C426 C 0.08287 0.6303 0.58237 0.0
C427 C 0.09243 0.58297 0.53778 0.0
C428 C 0.20167 0.69744 0.56224 0.0
C429 C 0.16396 0.56656 0.56778 0.0
O430 O 0.16618 0.58218 0.55768 0.0
O431 O 0.14862 0.57564 0.57652 0.0
O432 O 0.13033 0.60002 0.53498 0.0
O433 O 0.08328 0.58874 0.54837 0.0
O434 O 0.34825 0.50796 0.5717 0.0
Cd435 Cd 0.40305 0.51126 0.57491 0.0
Cd436 Cd 0.41079 0.5248 0.55099 0.0
O437 O 0.34852 0.50246 0.55225 0.0
O438 O 0.39604 0.48259 0.5904 0.0
O439 O 0.40416 0.45872 0.57337 0.0
C440 C 0.39695 0.4537 0.58464 0.0
C441 C 0.44402 0.51402 0.53495 0.0
C442 C 0.33044 0.50234 0.56182 0.0
C443 C 0.4609 0.59544 0.56736 0.0
O444 O 0.44554 0.58272 0.55723 0.0
O445 O 0.45158 0.57059 0.57598 0.0
O446 O 0.42439 0.53326 0.53368 0.0
O447 O 0.44197 0.49768 0.54516 0.0
O448 O 0.51972 0.83756 0.57325 0.0
Cd449 Cd 0.5149 0.88821 0.57688 0.0
Cd450 Cd 0.50571 0.88635 0.5535 0.0
O451 O 0.52775 0.8461 0.5539 0.0
O452 O 0.54333 0.91007 0.59229 0.0
O453 O 0.56639 0.94236 0.57522 0.0
C454 C 0.57168 0.94019 0.58645 0.0
C455 C 0.52334 0.93917 0.53992 0.0
C456 C 0.52681 0.82683 0.56326 0.0
C457 C 0.43189 0.86241 0.5688 0.0
O458 O 0.4465 0.86169 0.55874 0.0
O459 O 0.45519 0.87659 0.57773 0.0
O460 O 0.50316 0.90166 0.53671 0.0
O461 O 0.53675 0.94677 0.55065 0.0
O462 O 0.35695 0.52838 0.28556 0.0
Cd463 Cd 0.30231 0.47516 0.28555 0.0
Cd464 Cd 0.30782 0.48975 0.30858 0.0
O465 O 0.36891 0.5291 0.30467 0.0
O466 O 0.30364 0.44198 0.2719 0.0
O467 O 0.30495 0.42596 0.29069 0.0
C468 C 0.30775 0.41908 0.2796 0.0
C469 C 0.27939 0.44534 0.32469 0.0
C470 C 0.38062 0.54396 0.2943 0.0
C471 C 0.24828 0.50342 0.29467 0.0
O472 O 0.27021 0.51124 0.3038 0.0
O473 O 0.25222 0.48378 0.28609 0.0
O474 O 0.29995 0.48414 0.32618 0.0
O475 O 0.27864 0.43154 0.31418 0.0
O476 O 0.51921 0.85713 0.29245 0.0
Cd477 Cd 0.5708 0.8537 0.28939 0.0
Cd478 Cd 0.56987 0.84923 0.31305 0.0
O479 O 0.52771 0.86874 0.31167 0.0
O480 O 0.5983 0.8864 0.27479 0.0
O481 O 0.62275 0.90481 0.29289 0.0
C482 C 0.62509 0.91343 0.28172 0.0
C483 C 0.62113 0.86946 0.32716 0.0
C484 C 0.5082 0.86554 0.3022 0.0
C485 C 0.54906 0.77328 0.29902 0.0
O486 O 0.54829 0.78968 0.30873 0.0
O487 O 0.56141 0.79457 0.28958 0.0
O488 O 0.58341 0.84854 0.33013 0.0
O489 O 0.62968 0.88238 0.31636 0.0
O490 O 0.18925 0.68585 0.29237 0.0
Cd491 Cd 0.19383 0.74126 0.28897 0.0
Cd492 Cd 0.20555 0.74807 0.31304 0.0
O493 O 0.18297 0.6857 0.31181 0.0
O494 O 0.16725 0.73484 0.27324 0.0
O495 O 0.14162 0.74291 0.28997 0.0
C496 C 0.13788 0.73581 0.27871 0.0
C497 C 0.19382 0.7802 0.32915 0.0
C498 C 0.18288 0.66768 0.30227 0.0
C499 C 0.27735 0.79855 0.29681 0.0
O500 O 0.26379 0.78308 0.30694 0.0
O501 O 0.25333 0.78943 0.28807 0.0
O502 O 0.21305 0.76056 0.33038 0.0
O503 O 0.17816 0.77891 0.31893 0.0
H504 H 0.35839 0.17034 0.15727 0.0
H505 H 0.25854 0.10937 0.18187 0.0
H506 H 0.29892 0.15625 0.19751 0.0
H507 H 0.36245 0.2151 0.20422 0.0
H508 H 0.46241 0.27601 0.17966 0.0
H509 H 0.42198 0.22922 0.16399 0.0
C510 C 0.34565 0.16699 0.16609 0.0
C511 C 0.30556 0.13617 0.16839 0.0
C512 C 0.36885 0.19454 0.17502 0.0
C513 C 0.28936 0.13268 0.17984 0.0
C514 C 0.31237 0.15965 0.18879 0.0
C515 C 0.37521 0.21847 0.1954 0.0
C516 C 0.41532 0.24924 0.19311 0.0
C517 C 0.35201 0.19095 0.18646 0.0
C518 C 0.43155 0.25275 0.18166 0.0
C519 C 0.40853 0.22583 0.1727 0.0
H520 H 0.8333 0.16856 0.20321 0.0
H521 H 0.77504 0.21031 0.17878 0.0
H522 H 0.82239 0.21648 0.16314 0.0
H523 H 0.88105 0.21083 0.15639 0.0
H524 H 0.93937 0.16924 0.18085 0.0
H525 H 0.89191 0.16291 0.19647 0.0
C526 C 0.83063 0.1785 0.19442 0.0
C527 C 0.80043 0.18866 0.19217 0.0
C528 C 0.85848 0.1827 0.18549 0.0
C529 C 0.79785 0.20209 0.18076 0.0
C530 C 0.82509 0.20586 0.17181 0.0
C531 C 0.88369 0.20087 0.16517 0.0
C532 C 0.91396 0.19081 0.16744 0.0
C533 C 0.85581 0.19665 0.1741 0.0
C534 C 0.91651 0.17738 0.17885 0.0
C535 C 0.88921 0.17352 0.18779 0.0
H536 H 0.8798 0.68757 0.20484 0.0
H537 H 0.83921 0.58713 0.18058 0.0
H538 H 0.83454 0.62843 0.16477 0.0
H539 H 0.84134 0.693 0.15779 0.0
H540 H 0.88185 0.79342 0.18205 0.0
H541 H 0.88648 0.75211 0.19787 0.0
C542 C 0.87042 0.67489 0.19605 0.0
C543 C 0.86016 0.63437 0.1939 0.0
C544 C 0.86712 0.69863 0.18701 0.0
C545 C 0.84748 0.61827 0.18249 0.0
C546 C 0.84457 0.64181 0.17344 0.0
C547 C 0.85069 0.70568 0.16657 0.0
C548 C 0.86096 0.7462 0.16872 0.0
C549 C 0.85394 0.68192 0.17562 0.0
C550 C 0.87358 0.76228 0.18014 0.0
C551 C 0.87647 0.73873 0.18919 0.0
H552 H 0.17403 0.35919 0.37035 0.0
H553 H 0.10534 0.26609 0.34468 0.0
H554 H 0.15321 0.30697 0.32912 0.0
H555 H 0.2152 0.36871 0.32278 0.0
H556 H 0.28385 0.46223 0.34833 0.0
H557 H 0.23599 0.42137 0.36395 0.0
C558 C 0.16919 0.34813 0.36132 0.0
C559 C 0.13589 0.30971 0.3587 0.0
C560 C 0.19735 0.37153 0.35242 0.0
C561 C 0.13053 0.29561 0.34696 0.0
C562 C 0.15808 0.31886 0.33806 0.0
C563 C 0.22005 0.37992 0.3318 0.0
C564 C 0.25336 0.41834 0.33439 0.0
C565 C 0.19188 0.35665 0.3407 0.0
C566 C 0.25868 0.43265 0.3461 0.0
C567 C 0.23113 0.40941 0.35503 0.0
H568 H 0.77616 0.89448 0.35452 0.0
H569 H 0.68433 0.809 0.37846 0.0
H570 H 0.63145 0.80792 0.366 0.0
H571 H 0.61132 0.83138 0.34836 0.0
H572 H 0.70324 0.91673 0.32441 0.0
H573 H 0.75608 0.91829 0.33697 0.0
C574 C 0.74457 0.87526 0.35697 0.0
C575 C 0.73427 0.85158 0.36738 0.0
C576 C 0.71436 0.87527 0.34986 0.0
C577 C 0.69315 0.82731 0.37047 0.0
C578 C 0.66289 0.82686 0.36338 0.0
C579 C 0.64293 0.85075 0.34595 0.0
C580 C 0.65325 0.87414 0.33547 0.0
C581 C 0.67315 0.85094 0.3531 0.0
C582 C 0.69439 0.89862 0.33244 0.0
C583 C 0.72464 0.89933 0.33958 0.0
H584 H 0.21426 0.88486 0.37485 0.0
H585 H 0.18067 0.94945 0.35011 0.0
H586 H 0.17461 0.90266 0.33438 0.0
H587 H 0.17753 0.84241 0.32766 0.0
H588 H 0.21121 0.77795 0.35242 0.0
H589 H 0.21781 0.82508 0.3681 0.0
C590 C 0.2062 0.88908 0.36598 0.0
C591 C 0.19822 0.92086 0.36367 0.0
C592 C 0.20202 0.86155 0.35699 0.0
C593 C 0.1872 0.92542 0.35214 0.0
C594 C 0.18345 0.89848 0.34314 0.0
C595 C 0.18582 0.83838 0.33652 0.0
C596 C 0.1935 0.80642 0.33886 0.0
C597 C 0.19029 0.86611 0.34549 0.0
C598 C 0.20489 0.80211 0.35037 0.0
C599 C 0.20891 0.82922 0.35934 0.0
H600 H 0.60547 0.79728 0.84343 0.0
H601 H 0.69632 0.80083 0.81962 0.0
H602 H 0.74956 0.85564 0.83118 0.0
H603 H 0.77038 0.90279 0.84798 0.0
H604 H 0.6797 0.899 0.8719 0.0
H605 H 0.62631 0.84464 0.86022 0.0
C606 C 0.63695 0.80969 0.84084 0.0
C607 C 0.64685 0.79465 0.83071 0.0
C608 C 0.66741 0.84168 0.84743 0.0
C609 C 0.6878 0.81157 0.82741 0.0
C610 C 0.71828 0.84313 0.83398 0.0
C611 C 0.7389 0.89051 0.85055 0.0
C612 C 0.72908 0.90526 0.86076 0.0
C613 C 0.70842 0.85865 0.84394 0.0
C614 C 0.68813 0.88846 0.86405 0.0
C615 C 0.65759 0.85716 0.85742 0.0
H616 H 0.1311 0.87344 0.85116 0.0
H617 H 0.14034 0.79289 0.87631 0.0
H618 H 0.19371 0.79238 0.86428 0.0
H619 H 0.23875 0.81589 0.84682 0.0
H620 H 0.22993 0.89696 0.82176 0.0
H621 H 0.17604 0.89683 0.83368 0.0
C622 C 0.14432 0.85524 0.85393 0.0
C623 C 0.13136 0.83288 0.86459 0.0
C624 C 0.17569 0.85585 0.8471 0.0
C625 C 0.14944 0.8101 0.86812 0.0
C626 C 0.1802 0.81005 0.86128 0.0
C627 C 0.22542 0.83396 0.84403 0.0
C628 C 0.23873 0.85671 0.83344 0.0
C629 C 0.19393 0.83321 0.85083 0.0
C630 C 0.22059 0.87943 0.8299 0.0
C631 C 0.18953 0.87914 0.83667 0.0
H632 H 0.1589 0.26657 0.85131 0.0
H633 H 0.24465 0.36033 0.87434 0.0
H634 H 0.24592 0.41245 0.86131 0.0
H635 H 0.22225 0.43144 0.84342 0.0
H636 H 0.13613 0.33741 0.82051 0.0
H637 H 0.13488 0.28546 0.83356 0.0
C638 C 0.17827 0.29841 0.85342 0.0
C639 C 0.20196 0.30945 0.86376 0.0
C640 C 0.17825 0.32822 0.846 0.0
C641 C 0.22635 0.35091 0.86642 0.0
C642 C 0.22689 0.38075 0.859 0.0
C643 C 0.20279 0.39958 0.84135 0.0
C644 C 0.17908 0.38844 0.83101 0.0
C645 C 0.2027 0.36977 0.84882 0.0
C646 C 0.15449 0.34695 0.82842 0.0
C647 C 0.15396 0.31717 0.83585 0.0
H648 H 0.79953 0.58168 0.68592 0.0
H649 H 0.80192 0.67241 0.70944 0.0
H650 H 0.85383 0.7262 0.69708 0.0
H651 H 0.89946 0.74762 0.67981 0.0
H652 H 0.89709 0.65723 0.65617 0.0
H653 H 0.84488 0.60324 0.66847 0.0
C654 C 0.81097 0.61323 0.68826 0.0
C655 C 0.79655 0.62292 0.69857 0.0
C656 C 0.84142 0.6441 0.6812 0.0
C657 C 0.81223 0.66402 0.70153 0.0
C658 C 0.84215 0.69484 0.6945 0.0
C659 C 0.88792 0.7161 0.67741 0.0
C660 C 0.90255 0.70654 0.66713 0.0
C661 C 0.85732 0.68524 0.6844 0.0
C662 C 0.88667 0.6655 0.66408 0.0
C663 C 0.85659 0.63459 0.67107 0.0
H664 H 0.43623 0.19469 0.68107 0.0
H665 H 0.34459 0.1099 0.70518 0.0
H666 H 0.29175 0.11026 0.69308 0.0
H667 H 0.2716 0.13565 0.67589 0.0
H668 H 0.36311 0.22051 0.65177 0.0
H669 H 0.41599 0.21967 0.66376 0.0
C670 C 0.40467 0.17583 0.6836 0.0
C671 C 0.39444 0.15204 0.694 0.0
C672 C 0.37444 0.17677 0.67671 0.0
C673 C 0.35337 0.12828 0.69721 0.0
C674 C 0.32312 0.12868 0.69032 0.0
C675 C 0.30313 0.15433 0.6733 0.0
C676 C 0.31333 0.1784 0.66297 0.0
C677 C 0.33333 0.15317 0.68014 0.0
C678 C 0.35436 0.20193 0.6597 0.0
C679 C 0.38462 0.20126 0.66653 0.0
H680 H 0.82016 0.21784 0.68182 0.0
H681 H 0.90637 0.21141 0.70508 0.0
H682 H 0.90759 0.15988 0.69239 0.0
H683 H 0.88408 0.11644 0.67473 0.0
H684 H 0.79834 0.12326 0.65137 0.0
H685 H 0.79649 0.17424 0.66417 0.0
C686 C 0.83956 0.20551 0.68406 0.0
C687 C 0.86339 0.21881 0.69437 0.0
C688 C 0.8397 0.17543 0.6768 0.0
C689 C 0.88792 0.20202 0.69718 0.0
C690 C 0.88846 0.17233 0.68996 0.0
C691 C 0.86455 0.12865 0.67251 0.0
C692 C 0.84111 0.1157 0.66213 0.0
C693 C 0.86426 0.15859 0.6798 0.0
C694 C 0.81649 0.1324 0.65932 0.0
C695 C 0.81561 0.16178 0.66661 0.0
H696 H 0.10354 0.55502 0.51666 0.0
H697 H 1.01011 0.54531 0.54055 0.0
H698 H 0.95823 0.49355 0.52789 0.0
H699 H 0.93927 0.45119 0.51003 0.0
H700 H 0.03247 0.4616 0.48595 0.0
H701 H 0.08456 0.51229 0.49883 0.0
C702 C 0.07181 0.54189 0.51906 0.0
C703 C 0.0608 0.55436 0.52952 0.0
C704 C 0.0421 0.51174 0.5118 0.0
C705 C 1.01951 0.53657 0.53252 0.0
C706 C 0.98979 0.50675 0.52532 0.0
C707 C 0.971 0.46405 0.50767 0.0
C708 C 0.98191 0.45226 0.49707 0.0
C709 C 1.00074 0.49392 0.51498 0.0
C710 C 1.02319 0.46984 0.49409 0.0
C711 C 0.053 0.49907 0.50142 0.0
H712 H 0.50662 0.49859 0.53668 0.0
H713 H 0.44338 0.53255 0.51166 0.0
H714 H 0.49191 0.5407 0.49616 0.0
H715 H 0.55258 0.53843 0.48964 0.0
H716 H 0.616 0.50462 0.51465 0.0
H717 H 0.56781 0.49701 0.5302 0.0
C718 C 0.50317 0.50727 0.5278 0.0
C719 C 0.47111 0.51456 0.52533 0.0
C720 C 0.53172 0.51267 0.51894 0.0
C721 C 0.46757 0.52649 0.51381 0.0
C722 C 0.49549 0.53141 0.50494 0.0
C723 C 0.55624 0.53 0.49854 0.0
C724 C 0.58813 0.52242 0.50096 0.0
C725 C 0.5279 0.52491 0.50742 0.0
C726 C 0.59194 0.51089 0.51252 0.0
C727 C 0.56418 0.50624 0.52142 0.0
H728 H 0.54668 0.09614 0.51341 0.0
H729 H 0.46553 1.00573 0.48873 0.0
H730 H 0.46376 0.95198 0.50111 0.0
H731 H 0.48626 0.93078 0.51874 0.0
H732 H 0.56779 0.02132 0.54333 0.0
H733 H 0.56895 0.07495 0.53106 0.0
C734 C 0.52816 0.06465 0.5108 0.0
C735 C 0.506 0.05501 0.50018 0.0
C736 C 0.52792 0.03396 0.51784 0.0
C737 C 0.48266 1.01403 0.49688 0.0
C738 C 0.48184 0.98329 0.50392 0.0
C739 C 0.50464 0.96227 0.52137 0.0
C740 C 0.52717 0.97197 0.53192 0.0
C741 C 0.50471 0.99293 0.51435 0.0
C742 C 0.55038 1.01295 0.53523 0.0
C743 C 0.55086 0.04364 0.52825 0.0
H744 H 0.47492 0.93684 0.01863 0.0
H745 H 0.48066 0.02913 0.04214 0.0
H746 H 0.53026 0.0821 0.02903 0.0
H747 H 0.57287 0.10223 1.01106 0.0
H748 H 0.56753 1.00983 0.98766 0.0
H749 H 0.51743 0.95694 1.00067 0.0
C750 C 0.48661 0.96854 0.02083 0.0
C751 C 0.47377 0.97893 0.03133 0.0
C752 C 0.51573 0.99885 1.01336 0.0
C753 C 0.48977 0.02022 0.03409 0.0
C754 C 0.51834 0.05055 0.02663 0.0
C755 C 0.56106 0.07052 1.00884 0.0
C756 C 0.57424 0.0601 0.99841 0.0
C757 C 0.53184 0.04022 0.0163 0.0
C758 C 0.55819 0.0188 0.99565 0.0
C759 C 0.52933 0.9885 1.00306 0.0
H760 H 1.02072 0.53119 0.98768 0.0
H761 H 0.9291 0.50788 1.01405 0.0
H762 H 0.97023 0.50007 0.02922 0.0
H763 H 0.03225 0.49963 0.03504 0.0
H764 H 0.12363 0.52246 1.00862 0.0
H765 H 0.08227 0.52977 0.99344 0.0
C766 C 1.01002 0.52496 0.99678 0.0
C767 C 0.97207 0.52058 0.99974 0.0
C768 C 0.03346 0.51962 1.00543 0.0
C769 C 0.95832 0.5117 1.01154 0.0
C770 C 0.98171 0.50696 0.02022 0.0
C771 C 0.04284 0.50556 0.02593 0.0
C772 C 0.08092 0.51022 0.02299 0.0
C773 C 1.01919 0.51049 0.01725 0.0
C774 C 0.09437 0.51851 1.01115 0.0
C775 C 0.07086 0.523 1.00246 0.0
H776 H 0.56037 0.4701 1.00871 0.0
H777 H 0.47403 0.47716 0.98565 0.0
H778 H 0.47179 0.52728 0.99874 0.0
H779 H 0.49483 0.56959 0.01662 0.0
H780 H 0.58117 0.56254 0.03968 0.0
H781 H 0.5834 0.51241 0.02658 0.0
C782 C 0.54072 0.48225 1.00659 0.0
C783 C 0.51717 0.4696 0.99622 0.0
C784 C 0.54004 0.51154 1.01407 0.0
C785 C 0.49228 0.48611 0.99358 0.0
C786 C 0.49116 0.51497 1.00104 0.0
C787 C 0.51448 0.55743 0.01874 0.0
C788 C 0.53803 0.5701 0.0291 0.0
C789 C 0.51515 0.52815 1.01126 0.0
C790 C 0.56292 0.55358 0.03174 0.0
C791 C 0.56404 0.52472 0.02429 0.0
H792 H 0.34387 0.0443 0.11944 0.0
H793 H 0.30805 0.06756 0.08547 0.0
H794 H 0.34637 0.04033 0.07545 0.0
H795 H 0.3835 1.00273 0.07633 0.0
H796 H 0.4155 0.97535 0.11032 0.0
H797 H 0.38588 1.01166 0.12026 0.0
C798 C 0.34514 0.04419 0.10984 0.0
C799 C 0.32295 0.05788 0.10323 0.0
C800 C 0.36636 0.02734 0.10411 0.0
C801 C 0.32467 0.05711 0.09079 0.0
C802 C 0.34653 0.04141 0.08504 0.0
C803 C 0.38479 1.00546 0.0859 0.0
C804 C 0.40166 0.9862 0.09255 0.0
C805 C 0.36655 0.02538 0.0916 0.0
C806 C 0.40264 0.98974 0.10496 0.0
C807 C 0.38555 1.01041 0.11067 0.0
H808 H 0.05371 0.39606 0.07195 0.0
H809 H 0.08193 0.46088 0.10505 0.0
H810 H 0.04527 0.39669 0.11589 0.0
H811 H 1.01177 0.32187 0.11612 0.0
H812 H 0.98783 0.25731 0.08305 0.0
H813 H 1.01567 0.32128 0.07211 0.0
C814 C 0.0511 0.3962 0.08152 0.0
C815 C 0.07065 0.43335 0.08766 0.0
C816 C 0.031 0.35901 0.08774 0.0
C817 C 0.0673 0.43281 0.10008 0.0
C818 C 0.04642 0.39604 0.1063 0.0
C819 C 1.01189 0.32173 0.10652 0.0
C820 C 0.99776 0.28475 0.10043 0.0
C821 C 0.02911 0.35888 0.10026 0.0
C822 C 0.99859 0.28527 0.08798 0.0
C823 C 1.01463 0.32191 0.0817 0.0
H824 H 0.65708 0.67051 0.07577 0.0
H825 H 0.59479 0.64407 0.10944 0.0
H826 H 0.65945 0.67275 0.11978 0.0
H827 H 0.73405 0.71241 0.11925 0.0
H828 H 0.7963 0.74337 0.08554 0.0
H829 H 0.73167 0.70565 0.07528 0.0
C830 C 0.6576 0.67023 0.08537 0.0
C831 C 0.62107 0.65517 0.09181 0.0
C832 C 0.69508 0.68803 0.09128 0.0
C833 C 0.62241 0.65553 0.10425 0.0
C834 C 0.65943 0.67208 0.11019 0.0
C835 C 0.73353 0.71017 0.10967 0.0
C836 C 0.77003 0.73078 0.10319 0.0
C837 C 0.69605 0.68947 0.10379 0.0
C838 C 0.76869 0.72794 0.09076 0.0
C839 C 0.73168 0.70643 0.08487 0.0
H840 H 1.00788 0.37656 0.45152 0.0
H841 H 0.97893 0.40981 0.41794 0.0
H842 H 1.01606 0.38193 0.40755 0.0
H843 H 0.05016 0.34118 0.40787 0.0
H844 H 0.0759 0.30489 0.44144 0.0
H845 H 0.0472 0.34112 0.45189 0.0
C846 C 1.01036 0.37847 0.44194 0.0
C847 C 0.9904 0.39518 0.43555 0.0
C848 C 0.03097 0.3614 0.43597 0.0
C849 C 0.99381 0.39706 0.42312 0.0
C850 C 1.01497 0.38096 0.41715 0.0
C851 C 0.05027 0.34189 0.41747 0.0
C852 C 0.06509 0.32011 0.42384 0.0
C853 C 0.03271 0.36201 0.42346 0.0
C854 C 0.06461 0.32119 0.43629 0.0
C855 C 0.04805 0.34184 0.44229 0.0
H856 H 0.67537 0.64879 0.45459 0.0
H857 H 0.6372 0.59208 0.4204 0.0
H858 H 0.66721 0.65877 0.4109 0.0
H859 H 0.71123 0.73309 0.41203 0.0
H860 H 0.75295 0.78945 0.44612 0.0
H861 H 0.71446 0.72342 0.45587 0.0
C862 C 0.67282 0.651 0.44509 0.0
C863 C 0.65408 0.61535 0.43823 0.0
C864 C 0.69127 0.68958 0.43962 0.0
C865 C 0.65149 0.61892 0.42591 0.0
C866 C 0.66882 0.65713 0.42045 0.0
C867 C 0.71124 0.73105 0.42161 0.0
C868 C 0.73515 0.76629 0.42831 0.0
C869 C 0.68984 0.69268 0.42717 0.0
C870 C 0.73501 0.7629 0.44072 0.0
C871 C 0.71305 0.72506 0.44632 0.0
H872 H 0.40071 0.03843 0.45468 0.0
H873 H 0.46157 0.07912 0.42091 0.0
H874 H 0.39671 0.04242 0.41073 0.0
H875 H 0.32203 1.0053 0.41149 0.0
H876 H 0.26112 0.96817 0.44535 0.0
H877 H 0.32632 0.99633 0.45533 0.0
C878 C 0.3999 0.03861 0.44508 0.0
C879 C 0.43609 0.06172 0.4386 0.0
C880 C 0.36226 0.01827 0.43927 0.0
C881 C 0.43428 0.06177 0.42615 0.0
C882 C 0.39711 0.04085 0.42031 0.0
C883 C 0.32298 1.00258 0.42103 0.0
C884 C 0.2866 0.9847 0.42765 0.0
C885 C 0.36077 0.01994 0.42678 0.0
C886 C 0.28855 0.98186 0.44002 0.0
C887 C 0.32591 0.99811 0.44576 0.0
H888 H 0.73697 0.98093 0.93611 0.0
H889 H 0.71424 0.99911 0.89985 0.0
H890 H 0.67618 0.03152 0.90654 0.0
H891 H 0.65564 0.06146 0.92263 0.0
H892 H 0.67622 0.04139 0.95891 0.0
H893 H 0.70819 1.00272 0.95229 0.0
C894 C 0.72308 0.99132 0.92967 0.0
C895 C 0.72893 0.9879 0.91748 0.0
C896 C 0.70103 1.00998 0.93359 0.0
C897 C 0.71038 1.0013 0.90928 0.0
C898 C 0.68873 0.02012 0.9131 0.0
C899 C 0.6665 0.04804 0.9291 0.0
C900 C 0.66385 0.05475 0.94126 0.0
C901 C 0.68481 0.02565 0.92522 0.0
C902 C 0.67779 0.03678 0.9495 0.0
C903 C 0.69635 1.01481 0.94571 0.0
H904 H 1.00867 0.64998 0.95169 0.0
H905 H 0.97263 0.59039 0.91781 0.0
H906 H 1.01091 0.65574 0.9077 0.0
H907 H 0.04832 0.73038 0.90844 0.0
H908 H 0.08118 0.79049 0.9423 0.0
H909 H 0.0511 0.72472 0.95238 0.0
C910 C 1.00986 0.6512 0.9421 0.0
C911 C 0.98759 0.61518 0.93554 0.0
C912 C 0.03118 0.68919 0.9363 0.0
C913 C 0.98927 0.61752 0.9231 0.0
C914 C 1.01112 0.65497 0.91729 0.0
C915 C 0.04967 0.72918 0.91802 0.0
C916 C 0.06697 0.76551 0.92458 0.0
C917 C 0.03128 0.69113 0.92379 0.0
C918 C 0.06806 0.76315 0.937 0.0
C919 C 0.05067 0.72545 0.94279 0.0
H920 H 0.39907 0.37618 0.9508 0.0
H921 H 0.45731 0.39484 0.91666 0.0
H922 H 0.39205 0.369 0.90686 0.0
H923 H 0.3176 0.33388 0.90803 0.0
H924 H 0.25889 0.31107 0.94221 0.0
H925 H 0.32485 0.34611 0.95188 0.0
C926 C 0.3976 0.37535 0.94121 0.0
C927 C 0.43313 0.38732 0.9345 0.0
C928 C 0.35967 0.35935 0.93561 0.0
C929 C 0.4305 0.38568 0.92207 0.0
C930 C 0.39311 0.3708 0.91644 0.0
C931 C 0.31921 0.33736 0.91757 0.0
C932 C 0.28322 0.31974 0.92436 0.0
C933 C 0.35734 0.35649 0.92312 0.0
C934 C 0.28601 0.32422 0.93675 0.0
C935 C 0.32379 0.34414 0.9423 0.0
H936 H 0.97895 0.71537 0.59148 0.0
H937 H 0.99728 0.69314 0.62779 0.0
H938 H 0.03013 0.65539 0.62117 0.0
H939 H 0.06019 0.63482 0.60509 0.0
H940 H 0.03992 0.6549 0.56878 0.0
H941 H 1.00108 0.6867 0.57537 0.0
C942 C 0.98949 0.70167 0.59795 0.0
C943 C 0.98593 0.70754 0.61013 0.0
C944 C 1.00839 0.67977 0.59408 0.0
C945 C 0.99955 0.68924 0.61836 0.0
C946 C 1.01861 0.66777 0.61458 0.0
C947 C 0.04669 0.64553 0.59861 0.0
C948 C 0.05338 0.64275 0.58644 0.0
C949 C 1.02419 0.66376 0.60247 0.0
C950 C 0.03533 0.65654 0.57819 0.0
C951 C 1.01326 0.67501 0.58196 0.0
H952 H 0.33036 0.30004 0.61805 0.0
H953 H 0.29611 0.23903 0.58435 0.0
H954 H 0.33303 0.30425 0.57404 0.0
H955 H 0.36875 0.37911 0.57457 0.0
H956 H 0.39843 0.44011 0.6083 0.0
H957 H 0.37018 0.37481 0.61856 0.0
C958 C 0.33169 0.30095 0.60845 0.0
C959 C 0.31044 0.26459 0.602 0.0
C960 C 0.35194 0.33878 0.60255 0.0
C961 C 0.31209 0.26647 0.58955 0.0
C962 C 0.33313 0.30384 0.58363 0.0
C963 C 0.3698 0.37815 0.58416 0.0
C964 C 0.38573 0.41455 0.59064 0.0
C965 C 0.35226 0.34029 0.59003 0.0
C966 C 0.38632 0.41263 0.60308 0.0
C967 C 0.37003 0.37523 0.60896 0.0
H968 H 0.72706 0.02695 0.6185 0.0
H969 H 0.78507 0.0625 0.58421 0.0
H970 H 0.71896 0.03347 0.5747 0.0
H971 H 0.64458 0.99109 0.57592 0.0
H972 H 0.58685 0.95184 0.61014 0.0
H973 H 0.65256 0.98942 0.61982 0.0
C974 C 0.72529 0.02912 0.60896 0.0
C975 C 0.76111 0.04684 0.60209 0.0
C976 C 0.68702 1.01125 0.6035 0.0
C977 C 0.75809 0.04898 0.58973 0.0
C978 C 0.72021 0.03222 0.58427 0.0
C979 C 0.64628 0.99144 0.5855 0.0
C980 C 0.61072 0.9685 0.59227 0.0
C981 C 0.68443 1.01224 0.59103 0.0
C982 C 0.61364 0.96905 0.60469 0.0
C983 C 0.6513 0.99048 0.61025 0.0
H984 H 0.72975 0.63318 0.77291 0.0
H985 H 0.70902 0.64723 0.73611 0.0
H986 H 0.67548 0.68525 0.74174 0.0
H987 H 0.64525 0.70801 0.75717 0.0
H988 H 0.66745 0.69568 0.79395 0.0
H989 H 0.7074 0.66417 0.78826 0.0
C990 C 0.71855 0.64518 0.76611 0.0
C991 C 0.7216 0.63685 0.7541 0.0
C992 C 0.69915 0.66715 0.7694 0.0
C993 C 0.70711 0.65298 0.74542 0.0
C994 C 0.68766 0.67461 0.74863 0.0
C995 C 0.65941 0.69908 0.76394 0.0
C996 C 0.6529 0.70388 0.77598 0.0
C997 C 0.68247 0.6809 0.76061 0.0
C998 C 0.67182 0.69238 0.78461 0.0
C999 C 0.69455 0.67409 0.78137 0.0
H1000 H 0.39925 0.08557 0.7701 0.0
H1001 H 0.37829 0.04227 0.73408 0.0
H1002 H 0.3391 0.97228 0.74116 0.0
H1003 H 0.31668 0.92278 0.75762 0.0
H1004 H 0.33571 0.96614 0.79362 0.0
H1005 H 0.36906 0.03623 0.78652 0.0
C1006 C 0.38555 0.06088 0.76379 0.0
C1007 C 0.39216 0.06934 0.75156 0.0
C1008 C 0.36282 0.02047 0.76792 0.0
C1009 C 0.37383 0.03685 0.74354 0.0
C1010 C 0.35152 0.99666 0.74758 0.0
C1011 C 0.32748 0.94753 0.76391 0.0
C1012 C 0.32394 0.93901 0.77616 0.0
C1013 C 0.34669 0.98801 0.75976 0.0
C1014 C 0.33794 0.97159 0.78416 0.0
C1015 C 0.35729 1.01183 0.7801 0.0
H1016 H 0.94291 0.30048 0.76988 0.0
H1017 H 0.98207 0.31459 0.73339 0.0
H1018 H 0.05259 0.34577 0.73966 0.0
H1019 H 0.10371 0.3759 0.75543 0.0
H1020 H 0.06437 0.36026 0.79194 0.0
H1021 H 0.99374 0.32253 0.78574 0.0
C1022 C 0.96681 0.30973 0.7633 0.0
C1023 C 0.95707 0.30551 0.75117 0.0
C1024 C 1.00748 0.32773 0.76697 0.0
C1025 C 0.98852 0.31742 0.74279 0.0
C1026 C 0.02899 0.33552 0.74636 0.0
C1027 C 0.07973 0.36361 0.76205 0.0
C1028 C 0.08952 0.37137 0.77414 0.0
C1029 C 0.03894 0.34186 0.75842 0.0
C1030 C 0.05792 0.3549 0.78257 0.0
C1031 C 1.01737 0.33345 0.77903 0.0
H1032 H 0.39861 0.32041 0.2717 0.0
H1033 H 0.37558 0.33505 0.23517 0.0
H1034 H 0.33468 0.36501 0.2414 0.0
H1035 H 0.31201 0.39427 0.25716 0.0
H1036 H 0.33432 0.37875 0.29369 0.0
H1037 H 0.36825 0.34155 0.28753 0.0
C1038 C 0.38408 0.32951 0.2651 0.0
C1039 C 0.39063 0.32584 0.25297 0.0
C1040 C 0.36061 0.3469 0.26874 0.0
C1041 C 0.37121 0.33751 0.24456 0.0
C1042 C 0.34793 0.3549 0.24812 0.0
C1043 C 0.3236 0.3821 0.26379 0.0
C1044 C 0.32091 0.38978 0.27588 0.0
C1045 C 0.34338 0.36082 0.26017 0.0
C1046 C 0.33594 0.37347 0.28433 0.0
C1047 C 0.35562 0.35233 0.2808 0.0
H1048 H 0.6447 0.93884 0.25872 0.0
H1049 H 0.67036 0.98177 0.29474 0.0
H1050 H 0.70827 0.05183 0.28767 0.0
H1051 H 0.72767 0.10134 0.27135 0.0
H1052 H 0.70386 0.05866 0.2353 0.0
H1053 H 0.67232 0.98841 0.24227 0.0
C1054 C 0.65919 0.96347 0.26502 0.0
C1055 C 0.65421 0.95492 0.27726 0.0
C1056 C 0.68109 1.00391 0.26088 0.0
C1057 C 0.67354 0.9873 0.28528 0.0
C1058 C 0.6951 0.02751 0.28124 0.0
C1059 C 0.71621 0.0767 0.26501 0.0
C1060 C 0.7178 0.08535 0.25282 0.0
C1061 C 0.69809 0.03625 0.26908 0.0
C1062 C 0.7031 0.053 0.24472 0.0
C1063 C 0.68479 1.01271 0.24871 0.0
H1064 H 0.98806 0.6673 0.24441 0.0
H1065 H 0.92396 0.63221 0.27781 0.0
H1066 H 0.98784 0.67012 0.28842 0.0
H1067 H 0.06249 0.70692 0.28829 0.0
H1068 H 0.12678 0.73749 0.25491 0.0
H1069 H 0.06264 0.70831 0.24427 0.0
C1070 C 0.98801 0.66864 0.254 0.0
C1071 C 0.9512 0.64686 0.26029 0.0
C1072 C 0.0251 0.6895 0.26008 0.0
C1073 C 0.9518 0.64856 0.27274 0.0
C1074 C 0.98839 0.67018 0.27883 0.0
C1075 C 0.06249 0.70799 0.2787 0.0
C1076 C 0.09946 0.72441 0.27242 0.0
C1077 C 0.02533 0.68988 0.27261 0.0
C1078 C 0.09882 0.72501 0.25997 0.0
C1079 C 0.06209 0.70817 0.25387 0.0
H1080 H 0.09688 0.19334 0.11302 0.0
H1081 H 0.09641 0.20578 0.15104 0.0
H1082 H 0.15196 0.19146 0.15264 0.0
H1083 H 0.19313 0.16547 0.14362 0.0
H1084 H 0.19161 0.14966 0.10575 0.0
H1085 H 0.14496 0.17606 0.10371 0.0
C1086 C 0.10939 0.19373 0.12165 0.0
C1087 C 0.09187 0.19997 0.13192 0.0
C1088 C 0.14078 0.1845 0.12255 0.0
C1089 C 0.1089 0.20073 0.143 0.0
C1090 C 0.14062 0.19236 0.14393 0.0
C1091 C 0.18321 0.16846 0.13488 0.0
C1092 C 0.19535 0.15493 0.12486 0.0
C1093 C 0.15563 0.18263 0.13382 0.0
C1094 C 0.18268 0.15967 0.1136 0.0
C1095 C 0.15572 0.17448 0.11245 0.0
H1096 H 0.88556 0.04986 0.14262 0.0
H1097 H 0.90605 0.06277 0.10484 0.0
H1098 H 0.88095 0.98977 0.10321 0.0
H1099 H 0.86358 0.92499 0.11295 0.0
H1100 H 0.84663 0.91363 0.15091 0.0
H1101 H 0.85957 0.98325 0.15199 0.0
C1102 C 0.88386 0.03665 0.13398 0.0
C1103 C 0.89833 0.06194 0.12388 0.0
C1104 C 0.87051 0.99498 0.13316 0.0
C1105 C 0.89526 0.04413 0.11275 0.0
C1106 C 0.88121 1.0024 0.11184 0.0
C1107 C 0.86192 0.9374 0.12145 0.0
C1108 C 0.8548 0.91416 0.13187 0.0
C1109 C 0.87035 0.97789 0.12205 0.0
C1110 C 0.85241 0.93079 0.14276 0.0
C1111 C 0.85997 0.97072 0.1434 0.0
H1112 H 1.00448 0.85661 0.14383 0.0
H1113 H 0.99217 0.86118 0.10598 0.0
H1114 H 0.06508 0.90819 0.10409 0.0
H1115 H 0.12958 0.95608 0.11357 0.0
H1116 H 0.14044 0.95347 0.15157 0.0
H1117 H 0.07094 0.89724 0.15298 0.0
C1118 C 1.01781 0.86724 0.13512 0.0
C1119 C 0.99274 0.85593 0.12508 0.0
C1120 C 0.05946 0.89505 0.13415 0.0
C1121 C 1.01066 0.86948 0.11386 0.0
C1122 C 0.05235 0.89665 0.11279 0.0
C1123 C 0.11709 0.94273 0.12215 0.0
C1124 C 0.14012 0.95962 0.13248 0.0
C1125 C 0.07668 0.91094 0.12293 0.0
C1126 C 0.12343 0.9415 0.14349 0.0
C1127 C 0.08356 0.90938 0.14431 0.0
H1128 H 0.1562 0.18301 0.41625 0.0
H1129 H 0.17249 0.20313 0.37852 0.0
H1130 H 0.19933 0.15696 0.3771 0.0
H1131 H 0.20777 0.10273 0.386 0.0
H1132 H 0.19044 0.08138 0.42369 0.0
H1133 H 0.17522 0.13626 0.42567 0.0
C1134 C 0.16675 0.17821 0.40779 0.0
C1135 C 0.16171 0.19601 0.3975 0.0
C1136 C 0.18142 0.15074 0.40696 0.0
C1137 C 0.17549 0.18937 0.38658 0.0
C1138 C 0.19075 0.16281 0.38573 0.0
C1139 C 0.20154 0.11061 0.39469 0.0
C1140 C 0.1995 0.08728 0.40461 0.0
C1141 C 0.19218 0.14195 0.39578 0.0
C1142 C 0.19175 0.09836 0.41583 0.0
C1143 C 0.18288 0.12977 0.41699 0.0
H1144 H 0.96544 0.12844 0.41543 0.0
H1145 H 0.95441 0.13716 0.37763 0.0
H1146 H 0.89818 0.06736 0.37732 0.0
H1147 H 0.8594 1.00132 0.3872 0.0
H1148 H 0.87214 0.99127 0.42481 0.0
H1149 H 0.91986 0.06438 0.42579 0.0
C1150 C 0.9503 0.11541 0.40714 0.0
C1151 C 0.96475 0.13797 0.39652 0.0
C1152 C 0.91847 0.07486 0.40697 0.0
C1153 C 0.94431 0.12057 0.38592 0.0
C1154 C 0.9122 0.08051 0.38572 0.0
C1155 C 0.872 1.01519 0.39567 0.0
C1156 C 0.86267 0.99068 0.40589 0.0
C1157 C 0.90013 0.05696 0.39611 0.0
C1158 C 0.87882 1.00932 0.41681 0.0
C1159 C 0.90639 0.0511 0.41735 0.0
H1160 H 0.05273 0.88563 0.38651 0.0
H1161 H 0.06189 0.8907 0.42461 0.0
H1162 H 0.98883 0.86448 0.4263 0.0
H1163 H 0.92516 0.85105 0.41686 0.0
H1164 H 0.91732 0.84894 0.3787 0.0
H1165 H 0.98694 0.86254 0.37715 0.0
C1166 C 0.03864 0.88023 0.39521 0.0
C1167 C 0.06287 0.89077 0.40542 0.0
C1168 C 0.99691 0.86616 0.39609 0.0
C1169 C 0.04403 0.88296 0.41661 0.0
C1170 C 1.00228 0.8683 0.41757 0.0
C1171 C 0.93834 0.85275 0.40819 0.0
C1172 C 0.91612 0.84972 0.3979 0.0
C1173 C 0.97879 0.86146 0.40736 0.0
C1174 C 0.93366 0.8515 0.38677 0.0
C1175 C 0.97362 0.85948 0.38587 0.0
H1176 H 0.87035 0.89413 0.91452 0.0
H1177 H 0.84444 0.87268 0.87724 0.0
H1178 H 0.88995 0.84518 0.87552 0.0
H1179 H 0.94538 0.83773 0.88384 0.0
H1180 H 0.97219 0.86005 0.92108 0.0
H1181 H 0.91802 0.87589 0.92355 0.0
C1182 C 0.87373 0.8823 0.90611 0.0
C1183 C 0.85451 0.88613 0.896 0.0
C1184 C 0.90081 0.86723 0.90509 0.0
C1185 C 0.85933 0.87066 0.88515 0.0
C1186 C 0.88551 0.85503 0.88413 0.0
C1187 C 0.93881 0.84513 0.89255 0.0
C1188 C 0.96354 0.84847 0.90217 0.0
C1189 C 0.9078 0.85484 0.89392 0.0
C1190 C 0.95417 0.8578 0.91343 0.0
C1191 C 0.92314 0.867 0.91487 0.0
H1192 H 0.16025 0.99677 0.91506 0.0
H1193 H 0.16359 0.9845 0.87716 0.0
H1194 H 0.18918 0.05697 0.87457 0.0
H1195 H 0.19976 0.12139 0.88281 0.0
H1196 H 0.1953 0.13364 0.92071 0.0
H1197 H 0.18176 0.06441 0.92351 0.0
C1198 C 0.1678 1.01022 0.90628 0.0
C1199 C 0.15943 0.98511 0.89633 0.0
C1200 C 0.18168 0.05202 0.9048 0.0
C1201 C 0.16926 1.00305 0.88499 0.0
C1202 C 0.18375 0.04454 0.88347 0.0
C1203 C 0.19676 0.10928 0.89169 0.0
C1204 C 0.19775 0.1326 0.90149 0.0
C1205 C 0.18835 0.069 0.89328 0.0
C1206 C 0.19409 0.11632 0.91295 0.0
C1207 C 0.18624 0.07655 0.91459 0.0
H1208 H 0.05034 0.18854 0.88283 0.0
H1209 H 0.05676 0.18634 0.92093 0.0
H1210 H 0.9838 0.13842 0.922 0.0
H1211 H 0.92114 0.08926 0.9119 0.0
H1212 H 0.91595 0.09009 0.87371 0.0
H1213 H 0.98538 0.14681 0.87291 0.0
C1214 C 0.03564 0.17825 0.8914 0.0
C1215 C 0.05909 0.1905 0.90178 0.0
C1216 C 0.99399 0.15001 0.89191 0.0
C1217 C 0.0395 0.17738 0.91281 0.0
C1218 C 0.99782 0.14966 0.91341 0.0
C1219 C 0.93488 0.10228 0.9034 0.0
C1220 C 0.91346 0.0848 0.89286 0.0
C1221 C 0.97516 0.13449 0.90299 0.0
C1222 C 0.93166 0.10257 0.88195 0.0
C1223 C 0.97151 0.13495 0.88148 0.0
H1224 H 0.83883 0.92788 0.64292 0.0
H1225 H 0.86141 0.95343 0.60552 0.0
H1226 H 0.87576 0.89807 0.60334 0.0
H1227 H 0.89217 0.84919 0.6126 0.0
H1228 H 0.86986 0.8241 0.65 0.0
H1229 H 0.84449 0.87147 0.65151 0.0
C1230 C 0.84607 0.92085 0.63425 0.0
C1231 C 0.84978 0.94548 0.62448 0.0
C1232 C 0.85472 0.88901 0.63303 0.0
C1233 C 0.85879 0.93546 0.61327 0.0
C1234 C 0.86714 0.90374 0.61199 0.0
C1235 C 0.88059 0.85316 0.62099 0.0
C1236 C 0.88356 0.83357 0.63119 0.0
C1237 C 0.86669 0.88125 0.62188 0.0
C1238 C 0.86845 0.83919 0.64202 0.0
C1239 C 0.85407 0.86647 0.64292 0.0
H1240 H 0.18358 0.02997 0.64409 0.0
H1241 H 0.17677 0.03987 0.6062 0.0
H1242 H 0.12915 0.96678 0.60504 0.0
H1243 H 0.08223 0.90269 0.61516 0.0
H1244 H 0.08717 0.89406 0.65319 0.0
H1245 H 0.14314 0.964 0.65389 0.0
C1246 C 0.17227 1.01609 0.63553 0.0
C1247 C 0.18329 0.04057 0.62525 0.0
C1248 C 0.14419 0.97433 0.63498 0.0
C1249 C 0.16878 0.02188 0.61424 0.0
C1250 C 0.14127 0.9801 0.6136 0.0
C1251 C 0.09595 0.91578 0.6236 0.0
C1252 C 0.07992 0.89317 0.63414 0.0
C1253 C 0.1276 0.95638 0.62396 0.0
C1254 C 0.09855 0.91066 0.64495 0.0
C1255 C 0.13049 0.9508 0.64536 0.0
H1256 H 0.12367 0.18229 0.61365 0.0
H1257 H 0.1292 0.18272 0.65185 0.0
H1258 H 0.05959 0.16939 0.65306 0.0
H1259 H 0.99439 0.14681 0.64336 0.0
H1260 H 0.98757 0.14328 0.60522 0.0
H1261 H 0.0607 0.16949 0.60391 0.0
C1262 C 0.11 0.18027 0.62226 0.0
C1263 C 0.13154 0.18274 0.63265 0.0
C1264 C 0.06956 0.17169 0.6229 0.0
C1265 C 0.11338 0.18061 0.6437 0.0
C1266 C 0.07343 0.17277 0.64441 0.0
C1267 C 1.00901 0.15256 0.63474 0.0
C1268 C 0.98541 0.14242 0.62439 0.0
C1269 C 0.05077 0.16658 0.63407 0.0
C1270 C 1.00493 0.15068 0.61331 0.0
C1271 C 0.04672 0.16534 0.61257 0.0
H1272 H 0.77034 0.52985 0.47774 0.0
H1273 H 0.75035 0.52211 0.44001 0.0
H1274 H 0.80535 0.50777 0.43695 0.0
H1275 H 0.85168 0.48641 0.44525 0.0
H1276 H 0.87034 0.4928 0.48301 0.0
H1277 H 0.82432 0.51937 0.4857 0.0
C1278 C 0.77857 0.52595 0.46882 0.0
C1279 C 0.75554 0.52627 0.45917 0.0
C1280 C 0.81 0.51705 0.4671 0.0
C1281 C 0.76704 0.52148 0.44766 0.0
C1282 C 0.79855 0.51315 0.44587 0.0
C1283 C 0.84666 0.49486 0.45401 0.0
C1284 C 0.86398 0.48708 0.46391 0.0
C1285 C 0.81919 0.50924 0.45556 0.0
C1286 C 0.85699 0.49803 0.47523 0.0
C1287 C 0.83049 0.51307 0.4768 0.0
H1288 H 0.5197 0.25062 0.44899 0.0
H1289 H 0.51135 0.24241 0.48716 0.0
H1290 H 0.52544 0.31243 0.48822 0.0
H1291 H 0.5508 0.37863 0.47855 0.0
H1292 H 0.56146 0.38803 0.44048 0.0
H1293 H 0.53495 0.31467 0.43913 0.0
C1294 C 0.52016 0.26383 0.45754 0.0
C1295 C 0.51524 0.24138 0.468 0.0
C1296 C 0.52903 0.30446 0.45811 0.0
C1297 C 0.51536 0.25892 0.47898 0.0
C1298 C 0.52363 0.29911 0.47959 0.0
C1299 C 0.54649 0.36449 0.46993 0.0
C1300 C 0.55869 0.38883 0.45964 0.0
C1301 C 0.53215 0.32259 0.46925 0.0
C1302 C 0.55236 0.37002 0.44854 0.0
C1303 C 0.53756 0.32812 0.44777 0.0
H1304 H 0.79357 0.27231 0.47705 0.0
H1305 H 0.79993 0.29809 0.43961 0.0
H1306 H 0.72977 0.2446 0.4373 0.0
H1307 H 0.66348 0.19782 0.44643 0.0
H1308 H 0.65719 0.1732 0.48392 0.0
H1309 H 0.73006 0.21801 0.48558 0.0
C1310 C 0.77995 0.26566 0.46833 0.0
C1311 C 0.80195 0.28987 0.45859 0.0
C1312 C 0.73917 0.23514 0.46706 0.0
C1313 C 0.7837 0.28043 0.44734 0.0
C1314 C 0.74339 0.24982 0.44599 0.0
C1315 C 0.67823 0.20138 0.45488 0.0
C1316 C 0.65473 0.18268 0.46505 0.0
C1317 C 0.72031 0.22803 0.45586 0.0
C1318 C 0.67443 0.18769 0.47596 0.0
C1319 C 0.71618 0.21346 0.47695 0.0
H1320 H 0.82964 0.50399 0.71745 0.0
H1321 H 0.82147 0.50219 0.75558 0.0
H1322 H 0.84749 0.45482 0.75646 0.0
H1323 H 0.86152 0.40577 0.74622 0.0
H1324 H 0.86608 0.40558 0.70798 0.0
H1325 H 0.85287 0.46218 0.70735 0.0
C1326 C 0.83435 0.49393 0.72598 0.0
C1327 C 0.82301 0.50614 0.73644 0.0
C1328 C 0.8481 0.46583 0.72638 0.0
C1329 C 0.82989 0.4933 0.74741 0.0
C1330 C 0.84439 0.46586 0.7479 0.0
C1331 C 0.8604 0.41855 0.73773 0.0
C1332 C 0.86409 0.40079 0.72714 0.0
C1333 C 0.85189 0.4506 0.73742 0.0
C1334 C 0.86301 0.41822 0.71626 0.0
C1335 C 0.85529 0.45055 0.71589 0.0
H1336 H 0.53239 0.30409 0.7485 0.0
H1337 H 0.50905 0.30027 0.71104 0.0
H1338 H 0.55493 0.37319 0.70945 0.0
H1339 H 0.60977 0.4359 0.71801 0.0
H1340 H 0.63355 0.43998 0.75547 0.0
H1341 H 0.57942 0.36989 0.7577 0.0
C1342 C 0.53642 0.31943 0.74007 0.0
C1343 C 0.51781 0.29656 0.72989 0.0
C1344 C 0.56364 0.36156 0.73914 0.0
C1345 C 0.52344 0.31701 0.71902 0.0
C1346 C 0.54986 0.35879 0.71807 0.0
C1347 C 0.6026 0.42178 0.7267 0.0
C1348 C 0.62643 0.44315 0.73647 0.0
C1349 C 0.57149 0.38108 0.72796 0.0
C1350 C 0.61621 0.42429 0.74771 0.0
C1351 C 0.5852 0.384 0.74902 0.0
H1352 H 0.71484 0.19162 0.71608 0.0
H1353 H 0.72733 0.2137 0.75372 0.0
H1354 H 0.65435 0.18796 0.75546 0.0
H1355 H 0.58957 0.1694 0.74579 0.0
H1356 H 0.57848 0.15048 0.70796 0.0
H1357 H 0.64829 0.16439 0.70685 0.0
C1358 C 0.70153 0.1901 0.72472 0.0
C1359 C 0.72668 0.20518 0.73473 0.0
C1360 C 0.65985 0.17632 0.72559 0.0
C1361 C 0.70879 0.20238 0.74587 0.0
C1362 C 0.66707 0.18799 0.74685 0.0
C1363 C 0.6021 0.16755 0.73731 0.0
C1364 C 0.57883 0.15955 0.72693 0.0
C1365 C 0.64265 0.17645 0.73669 0.0
C1366 C 0.59561 0.15689 0.71608 0.0
C1367 C 0.63566 0.16501 0.71542 0.0
H1368 H 0.62186 0.18896 0.24772 0.0
H1369 H 0.61779 0.17355 0.20976 0.0
H1370 H 0.56206 0.18772 0.20863 0.0
H1371 H 0.52208 0.21452 0.21794 0.0
H1372 H 0.52804 0.23341 0.25572 0.0
H1373 H 0.57475 0.20691 0.25742 0.0
C1374 C 0.6083 0.18789 0.23921 0.0
C1375 C 0.62462 0.18088 0.2288 0.0
C1376 C 0.57677 0.19701 0.23858 0.0
C1377 C 0.60627 0.17926 0.21789 0.0
C1378 C 0.57443 0.1875 0.21723 0.0
C1379 C 0.53295 0.21213 0.2266 0.0
C1380 C 0.52209 0.22657 0.23667 0.0
C1381 C 0.56059 0.19798 0.22745 0.0
C1382 C 0.53595 0.22263 0.24782 0.0
C1383 C 0.56297 0.2078 0.24878 0.0
H1384 H 0.83294 0.3299 0.21775 0.0
H1385 H 0.8127 0.31374 0.25549 0.0
H1386 H 0.83922 0.3868 0.25778 0.0
H1387 H 0.85759 0.45276 0.24863 0.0
H1388 H 0.87443 0.46743 0.21072 0.0
H1389 H 0.86022 0.39754 0.20897 0.0
C1390 C 0.83503 0.34241 0.22652 0.0
C1391 C 0.8202 0.31624 0.23642 0.0
C1392 C 0.84923 0.38415 0.22772 0.0
C1393 C 0.82376 0.33309 0.24772 0.0
C1394 C 0.83862 0.37487 0.24902 0.0
C1395 C 0.85899 0.44101 0.24 0.0
C1396 C 0.86639 0.46528 0.22979 0.0
C1397 C 0.84984 0.40037 0.23901 0.0
C1398 C 0.86842 0.44948 0.21871 0.0
C1399 C 0.86014 0.40939 0.21769 0.0
H1400 H 0.71782 0.52555 0.21913 0.0
H1401 H 0.72964 0.5166 0.25684 0.0
H1402 H 0.65655 0.47016 0.25856 0.0
H1403 H 0.5918 0.42413 0.24886 0.0
H1404 H 0.58144 0.43116 0.21097 0.0
H1405 H 0.65136 0.48667 0.20986 0.0
C1406 C 0.70436 0.51408 0.22778 0.0
C1407 C 0.72933 0.52403 0.23782 0.0
C1408 C 0.6626 0.48661 0.22864 0.0
C1409 C 0.71123 0.50938 0.24896 0.0
C1410 C 0.66944 0.48253 0.24993 0.0
C1411 C 0.6045 0.4383 0.24038 0.0
C1412 C 0.58145 0.42287 0.22998 0.0
C1413 C 0.64515 0.46967 0.23976 0.0
C1414 C 0.59845 0.44199 0.2191 0.0
C1415 C 0.63856 0.4737 0.21845 0.0
H1416 H 0.54809 0.18451 0.9761 0.0
H1417 H 0.56839 0.18856 0.93836 0.0
H1418 H 0.5436 0.23657 0.93612 0.0
H1419 H 0.52664 0.28513 0.94529 0.0
H1420 H 0.5101 0.28321 0.98321 0.0
H1421 H 0.52262 0.22637 0.98493 0.0
C1422 C 0.5464 0.19525 0.96733 0.0
C1423 C 0.56073 0.1834 0.95743 0.0
C1424 C 0.5333 0.22371 0.96617 0.0
C1425 C 0.55769 0.19719 0.94614 0.0
C1426 C 0.54384 0.22496 0.94487 0.0
C1427 C 0.52498 0.27184 0.95392 0.0
C1428 C 0.51807 0.28903 0.96414 0.0
C1429 C 0.53318 0.23967 0.95489 0.0
C1430 C 0.51572 0.27101 0.97521 0.0
C1431 C 0.52302 0.23852 0.97621 0.0
H1432 H 0.85592 0.37927 0.97688 0.0
H1433 H 0.85461 0.39047 0.93887 0.0
H1434 H 0.80766 0.31729 0.93733 0.0
H1435 H 0.75955 0.25269 0.94704 0.0
H1436 H 0.75896 0.24299 0.98516 0.0
H1437 H 0.81445 0.313 0.98636 0.0
C1438 C 0.84596 0.36566 0.96821 0.0
C1439 C 0.8583 0.39049 0.95801 0.0
C1440 C 0.81823 0.32388 0.96743 0.0
C1441 C 0.84556 0.37218 0.94687 0.0
C1442 C 0.81843 0.33035 0.94599 0.0
C1443 C 0.772 0.26556 0.95561 0.0
C1444 C 0.7545 0.24263 0.96602 0.0
C1445 C 0.80338 0.30624 0.95626 0.0
C1446 C 0.77144 0.25987 0.97702 0.0
C1447 C 0.80313 0.30003 0.97771 0.0
H1448 H 0.79393 0.5223 0.94516 0.0
H1449 H 0.80371 0.53842 0.9831 0.0
H1450 H 0.73383 0.52426 0.98415 0.0
H1451 H 0.66751 0.49717 0.97478 0.0
H1452 H 0.65635 0.4776 0.93702 0.0
H1453 H 0.72944 0.50408 0.9354 0.0
C1454 C 0.78113 0.52355 0.95365 0.0
C1455 C 0.804 0.53074 0.96407 0.0
C1456 C 0.7405 0.51438 0.95423 0.0
C1457 C 0.78686 0.53262 0.97495 0.0
C1458 C 0.74676 0.52433 0.97557 0.0
C1459 C 0.68111 0.49937 0.96615 0.0
C1460 C 0.65631 0.48474 0.95606 0.0
C1461 C 0.72288 0.51358 0.96534 0.0
C1462 C 0.67461 0.48847 0.94493 0.0
C1463 C 0.7164 0.50332 0.94402 0.0
H1464 H 0.41927 0.83997 0.78185 0.0
H1465 H 0.42617 0.85712 0.81976 0.0
H1466 H 0.48215 0.84315 0.82054 0.0
H1467 H 0.52177 0.8163 0.81096 0.0
H1468 H 0.51293 0.79582 0.77324 0.0
H1469 H 0.46565 0.82173 0.77186 0.0
C1470 C 0.43343 0.84139 0.79028 0.0
C1471 C 0.41791 0.84893 0.80077 0.0
C1472 C 0.46509 0.83243 0.7907 0.0
C1473 C 0.43712 0.85111 0.81156 0.0
C1474 C 0.46908 0.84293 0.81202 0.0
C1475 C 0.51011 0.81818 0.80238 0.0
C1476 C 0.52041 0.8035 0.79224 0.0
C1477 C 0.48219 0.83204 0.80172 0.0
C1478 C 0.50551 0.8068 0.78119 0.0
C1479 C 0.47817 0.82129 0.78042 0.0
H1480 H 0.22921 0.7035 0.77985 0.0
H1481 H 0.20867 0.70825 0.81728 0.0
H1482 H 0.18295 0.63554 0.8191 0.0
H1483 H 0.17636 0.57284 0.81071 0.0
H1484 H 0.19699 0.56782 0.77327 0.0
H1485 H 0.21188 0.63761 0.77085 0.0
C1486 C 0.21794 0.68838 0.78832 0.0
C1487 C 0.22152 0.71148 0.79843 0.0
C1488 C 0.2038 0.64638 0.78938 0.0
C1489 C 0.20681 0.69133 0.80936 0.0
C1490 C 0.19222 0.64968 0.81044 0.0
C1491 C 0.18331 0.58669 0.80198 0.0
C1492 C 0.18628 0.56514 0.79227 0.0
C1493 C 0.19223 0.62721 0.80061 0.0
C1494 C 0.19492 0.58364 0.78099 0.0
C1495 C 0.20358 0.62376 0.77956 0.0
H1496 H 0.4574 0.60249 0.78087 0.0
H1497 H 0.46406 0.60406 0.81906 0.0
H1498 H 0.39486 0.54706 0.82019 0.0
H1499 H 0.3296 0.50464 0.81055 0.0
H1500 H 0.32135 0.50503 0.77247 0.0
H1501 H 0.39433 0.55268 0.77107 0.0
C1502 C 0.44406 0.58992 0.78945 0.0
C1503 C 0.46581 0.60819 0.79989 0.0
C1504 C 0.40383 0.55763 0.79005 0.0
C1505 C 0.44807 0.59102 0.81089 0.0
C1506 C 0.40836 0.55845 0.81155 0.0
C1507 C 0.34389 0.51444 0.80191 0.0
C1508 C 0.31992 0.50179 0.79163 0.0
C1509 C 0.3855 0.54269 0.80122 0.0
C1510 C 0.33901 0.51428 0.78052 0.0
C1511 C 0.38071 0.54188 0.77973 0.0
H1512 H 0.50329 0.85361 0.05049 0.0
H1513 H 0.49719 0.85598 0.08863 0.0
H1514 H 0.52246 0.80813 0.08995 0.0
H1515 H 0.53555 0.75779 0.08019 0.0
H1516 H 0.53837 0.75354 0.04199 0.0
H1517 H 0.52554 0.81031 0.0408 0.0
C1518 C 0.50823 0.84431 0.05911 0.0
C1519 C 0.4977 0.85787 0.06945 0.0
C1520 C 0.52166 0.81601 0.05979 0.0
C1521 C 0.50491 0.84599 0.08054 0.0
C1522 C 0.51903 0.81831 0.08129 0.0
C1523 C 0.53413 0.76971 0.07159 0.0
C1524 C 0.53721 0.75079 0.06118 0.0
C1525 C 0.52585 0.80186 0.07096 0.0
C1526 C 0.53577 0.76712 0.05014 0.0
C1527 C 0.52825 0.79953 0.04945 0.0
H1528 H 0.20521 0.66026 0.07914 0.0
H1529 H 0.19431 0.65518 0.04108 0.0
H1530 H 0.24011 0.72816 0.0397 0.0
H1531 H 0.29136 0.79132 0.04897 0.0
H1532 H 0.30349 0.79654 0.08701 0.0
H1533 H 0.24898 0.72633 0.08868 0.0
C1534 C 0.21199 0.67531 0.07059 0.0
C1535 C 0.19688 0.65211 0.06024 0.0
C1536 C 0.23919 0.71745 0.0698 0.0
C1537 C 0.206 0.67218 0.0492 0.0
C1538 C 0.23233 0.71399 0.04838 0.0
C1539 C 0.28152 0.77745 0.05764 0.0
C1540 C 0.30218 0.79911 0.0678 0.0
C1541 C 0.25045 0.73666 0.05857 0.0
C1542 C 0.28862 0.78056 0.07898 0.0
C1543 C 0.25742 0.74023 0.07998 0.0
H1544 H 0.38807 0.53996 0.0506 0.0
H1545 H 0.39824 0.56501 0.08808 0.0
H1546 H 0.32528 0.53966 0.08931 0.0
H1547 H 0.26145 0.52122 0.0791 0.0
H1548 H 0.25256 0.4992 0.04142 0.0
H1549 H 0.32205 0.51203 0.04096 0.0
C1550 C 0.37423 0.53913 0.0591 0.0
C1551 C 0.39873 0.55505 0.0692 0.0
C1552 C 0.33255 0.52554 0.05967 0.0
C1553 C 0.38019 0.5531 0.08017 0.0
C1554 C 0.33848 0.53892 0.08085 0.0
C1555 C 0.27438 0.51843 0.07081 0.0
C1556 C 0.25192 0.51 0.06026 0.0
C1557 C 0.31475 0.52673 0.07056 0.0
C1558 C 0.26911 0.50599 0.04965 0.0
C1559 C 0.30899 0.51352 0.04937 0.0
H1560 H 0.18561 0.53126 0.55058 0.0
H1561 H 0.19057 0.54926 0.5884 0.0
H1562 H 0.23906 0.52494 0.59005 0.0
H1563 H 0.28755 0.50893 0.58033 0.0
H1564 H 0.28465 0.4947 0.54234 0.0
H1565 H 0.22758 0.50687 0.54121 0.0
C1566 C 0.19667 0.52917 0.55924 0.0
C1567 C 0.18489 0.54269 0.56934 0.0
C1568 C 0.22538 0.51635 0.56006 0.0
C1569 C 0.1991 0.53916 0.58048 0.0
C1570 C 0.22715 0.52559 0.58141 0.0
C1571 C 0.27401 0.50771 0.57181 0.0
C1572 C 0.29096 0.50151 0.5614 0.0
C1573 C 0.2417 0.51569 0.57119 0.0
C1574 C 0.27263 0.49973 0.55048 0.0
C1575 C 0.24001 0.50684 0.54982 0.0
H1576 H 0.49655 0.65348 0.55043 0.0
H1577 H 0.47856 0.6378 0.58825 0.0
H1578 H 0.50373 0.71064 0.59046 0.0
H1579 H 0.52031 0.77602 0.5813 0.0
H1580 H 0.53478 0.79025 0.54332 0.0
H1581 H 0.52196 0.72079 0.54156 0.0
C1582 C 0.49882 0.66605 0.5592 0.0
C1583 C 0.48501 0.64004 0.56915 0.0
C1584 C 0.51222 0.70766 0.56035 0.0
C1585 C 0.48882 0.65701 0.58045 0.0
C1586 C 0.5029 0.69865 0.5817 0.0
C1587 C 0.52146 0.76428 0.57264 0.0
C1588 C 0.52782 0.78827 0.56243 0.0
C1589 C 0.51308 0.7239 0.57166 0.0
C1590 C 0.52961 0.77252 0.55132 0.0
C1591 C 0.5221 0.73267 0.5503 0.0
H1592 H 0.37675 0.84062 0.55123 0.0
H1593 H 0.38615 0.83597 0.58921 0.0
H1594 H 0.31326 0.7882 0.59062 0.0
H1595 H 0.24959 0.74031 0.58078 0.0
H1596 H 0.24166 0.74278 0.54267 0.0
H1597 H 0.31122 0.79922 0.54164 0.0
C1598 C 0.36281 0.82976 0.55986 0.0
C1599 C 0.38709 0.8414 0.57009 0.0
C1600 C 0.3212 0.8015 0.56057 0.0
C1601 C 0.36832 0.82747 0.5812 0.0
C1602 C 0.32665 0.79987 0.58199 0.0
C1603 C 0.26273 0.75362 0.57224 0.0
C1604 C 0.24046 0.73673 0.56179 0.0
C1605 C 0.30315 0.78549 0.57169 0.0
C1606 C 0.25803 0.75479 0.55085 0.0
C1607 C 0.29794 0.78701 0.55025 0.0
H1608 H 0.21696 0.52571 0.31278 0.0
H1609 H 0.22294 0.52502 0.27463 0.0
H1610 H 0.1966 0.57211 0.27362 0.0
H1611 H 0.18322 0.62184 0.28369 0.0
H1612 H 0.18039 0.62419 0.32192 0.0
H1613 H 0.19364 0.56767 0.32276 0.0
C1614 C 0.21167 0.53516 0.30422 0.0
C1615 C 0.22252 0.52241 0.29379 0.0
C1616 C 0.19762 0.56299 0.30373 0.0
C1617 C 0.2149 0.53439 0.28278 0.0
C1618 C 0.20021 0.56165 0.28221 0.0
C1619 C 0.18468 0.60951 0.29222 0.0
C1620 C 0.1816 0.62792 0.30274 0.0
C1621 C 0.1932 0.57749 0.29265 0.0
C1622 C 0.18303 0.61104 0.31369 0.0
C1623 C 0.1908 0.57877 0.31418 0.0
H1624 H 0.51375 0.72146 0.28041 0.0
H1625 H 0.54059 0.72416 0.31757 0.0
H1626 H 0.49423 0.6513 0.31914 0.0
H1627 H 0.4379 0.5893 0.31078 0.0
H1628 H 0.41018 0.58649 0.27365 0.0
H1629 H 0.46511 0.6562 0.27127 0.0
C1630 C 0.5104 0.70587 0.28875 0.0
C1631 C 0.5301 0.72839 0.29888 0.0
C1632 C 0.48283 0.66385 0.28968 0.0
C1633 C 0.52534 0.70766 0.30965 0.0
C1634 C 0.49865 0.66594 0.31058 0.0
C1635 C 0.44438 0.6036 0.30211 0.0
C1636 C 0.41925 0.58278 0.2925 0.0
C1637 C 0.47585 0.64407 0.30079 0.0
C1638 C 0.42856 0.6018 0.28129 0.0
C1639 C 0.46 0.64186 0.27989 0.0
H1640 H 0.4586 0.85771 0.28382 0.0
H1641 H 0.46986 0.87356 0.32176 0.0
H1642 H 0.40033 0.86038 0.32307 0.0
H1643 H 0.33386 0.83456 0.3139 0.0
H1644 H 0.32127 0.81562 0.27612 0.0
H1645 H 0.39407 0.84069 0.27428 0.0
C1646 C 0.44617 0.85904 0.29237 0.0
C1647 C 0.46936 0.86593 0.30271 0.0
C1648 C 0.40579 0.85057 0.2931 0.0
C1649 C 0.45276 0.86799 0.31367 0.0
C1650 C 0.41287 0.86028 0.31443 0.0
C1651 C 0.34711 0.8366 0.30521 0.0
C1652 C 0.32198 0.82257 0.29518 0.0
C1653 C 0.3887 0.85002 0.30427 0.0
C1654 C 0.33981 0.82607 0.28399 0.0
C1655 C 0.38142 0.8401 0.28295 0.0
loop_
_geom_bond_atom_site_label_1
_geom_bond_atom_site_label_2
_geom_bond_distance
_geom_bond_site_symmetry_2
_ccdc_geom_bond_type
O0 Cd1 2.223 1_565 S
O0 C8 1.315 . S
Cd1 O0 2.223 1_545 S
Cd1 O4 2.297 1_545 S
Cd1 O5 2.439 . S
Cd1 O11 2.240 . S
Cd2 O3 2.240 1_545 S
Cd2 O10 2.223 . S
Cd2 O12 2.297 . S
Cd2 O13 2.439 . S
O3 Cd2 2.240 1_565 S
O3 C8 1.279 . S
O4 Cd1 2.297 1_565 S
O4 C6 1.247 . S
O5 Cd1 2.439 . S
O5 C6 1.208 1_545 S
C6 O4 1.247 . S
C6 O5 1.208 1_565 S
C7 O12 1.247 . S
C7 O13 1.208 . S
C8 O0 1.315 . S
C8 O3 1.279 . S
C9 O10 1.315 . S
C9 O11 1.279 . S
O10 Cd2 2.223 . S
O10 C9 1.315 . S
O11 Cd1 2.240 . S
O11 C9 1.279 . S
O12 Cd2 2.297 . S
O12 C7 1.247 . S
O13 Cd2 2.439 . S
O13 C7 1.208 . S
O14 Cd15 2.223 1_455 S
O14 C22 1.315 . S
Cd15 O14 2.223 1_655 S
Cd15 O18 2.297 1_655 S
Cd15 O19 2.439 . S
Cd15 O25 2.240 . S
Cd16 O17 2.240 1_655 S
Cd16 O24 2.223 . S
Cd16 O26 2.297 . S
Cd16 O27 2.439 . S
O17 Cd16 2.240 1_455 S
O17 C22 1.279 . S
O18 Cd15 2.297 1_455 S
O18 C20 1.247 . S
O19 Cd15 2.439 . S
O19 C20 1.208 1_655 S
C20 O18 1.247 . S
C20 O19 1.208 1_455 S
C21 O26 1.247 . S
C21 O27 1.208 . S
C22 O14 1.315 . S
C22 O17 1.279 . S
C23 O24 1.315 . S
C23 O25 1.279 . S
O24 Cd16 2.223 . S
O24 C23 1.315 . S
O25 Cd15 2.240 . S
O25 C23 1.279 . S
O26 Cd16 2.297 . S
O26 C21 1.247 . S
O27 Cd16 2.439 . S
O27 C21 1.208 . S
O28 Cd29 2.223 . S
O28 C36 1.315 . S
Cd29 O28 2.223 . S
Cd29 O32 2.297 . S
Cd29 O33 2.439 . S
Cd29 O39 2.240 . S
Cd30 O31 2.240 . S
Cd30 O38 2.223 . S
Cd30 O40 2.297 . S
Cd30 O41 2.439 . S
O31 Cd30 2.240 . S
O31 C36 1.279 . S
O32 Cd29 2.297 . S
O32 C34 1.247 . S
O33 Cd29 2.439 . S
O33 C34 1.208 . S
C34 O32 1.247 . S
C34 O33 1.208 . S
C35 O40 1.247 . S
C35 O41 1.208 . S
C36 O28 1.315 . S
C36 O31 1.279 . S
C37 O38 1.315 . S
C37 O39 1.279 . S
O38 Cd30 2.223 . S
O38 C37 1.315 . S
O39 Cd29 2.240 . S
O39 C37 1.279 . S
O40 Cd30 2.297 . S
O40 C35 1.247 . S
O41 Cd30 2.439 . S
O41 C35 1.208 . S
O42 Cd43 2.223 1_655 S
O42 C50 1.315 . S
Cd43 O42 2.223 1_455 S
Cd43 O46 2.297 1_455 S
Cd43 O47 2.439 . S
Cd43 O53 2.240 . S
Cd44 O45 2.240 1_455 S
Cd44 O52 2.223 . S
Cd44 O54 2.297 . S
Cd44 O55 2.439 . S
O45 Cd44 2.240 1_655 S
O45 C50 1.279 . S
O46 Cd43 2.297 1_655 S
O46 C48 1.247 . S
O47 Cd43 2.439 . S
O47 C48 1.208 1_455 S
C48 O46 1.247 . S
C48 O47 1.208 1_655 S
C49 O54 1.247 . S
C49 O55 1.208 . S
C50 O42 1.315 . S
C50 O45 1.279 . S
C51 O52 1.315 . S
C51 O53 1.279 . S
O52 Cd44 2.223 . S
O52 C51 1.315 . S
O53 Cd43 2.240 . S
O53 C51 1.279 . S
O54 Cd44 2.297 . S
O54 C49 1.247 . S
O55 Cd44 2.439 . S
O55 C49 1.208 . S
O56 Cd57 2.223 . S
O56 C64 1.315 . S
Cd57 O56 2.223 . S
Cd57 O60 2.297 . S
Cd57 O61 2.439 . S
Cd57 O67 2.240 . S
Cd58 O59 2.240 . S
Cd58 O66 2.223 . S
Cd58 O68 2.297 . S
Cd58 O69 2.439 . S
O59 Cd58 2.240 . S
O59 C64 1.279 . S
O60 Cd57 2.297 . S
O60 C62 1.247 . S
O61 Cd57 2.439 . S
O61 C62 1.208 . S
C62 O60 1.247 . S
C62 O61 1.208 . S
C63 O68 1.247 . S
C63 O69 1.208 . S
C64 O56 1.315 . S
C64 O59 1.279 . S
C65 O66 1.315 . S
C65 O67 1.279 . S
O66 Cd58 2.223 . S
O66 C65 1.315 . S
O67 Cd57 2.240 . S
O67 C65 1.279 . S
O68 Cd58 2.297 . S
O68 C63 1.247 . S
O69 Cd58 2.439 . S
O69 C63 1.208 . S
O70 Cd71 2.223 1_545 S
O70 C78 1.315 . S
Cd71 O70 2.223 1_565 S
Cd71 O74 2.297 1_565 S
Cd71 O75 2.439 . S
Cd71 O81 2.240 . S
Cd72 O73 2.240 1_565 S
Cd72 O80 2.223 . S
Cd72 O82 2.297 . S
Cd72 O83 2.439 . S
O73 Cd72 2.240 1_545 S
O73 C78 1.279 . S
O74 Cd71 2.297 1_545 S
O74 C76 1.247 . S
O75 Cd71 2.439 . S
O75 C76 1.208 1_565 S
C76 O74 1.247 . S
C76 O75 1.208 1_545 S
C77 O82 1.247 . S
C77 O83 1.208 . S
C78 O70 1.315 . S
C78 O73 1.279 . S
C79 O80 1.315 . S
C79 O81 1.279 . S
O80 Cd72 2.223 . S
O80 C79 1.315 . S
O81 Cd71 2.240 . S
O81 C79 1.279 . S
O82 Cd72 2.297 . S
O82 C77 1.247 . S
O83 Cd72 2.439 . S
O83 C77 1.208 . S
O84 Cd85 2.223 1_545 S
O84 C92 1.315 . S
Cd85 O84 2.223 1_565 S
Cd85 O88 2.297 1_565 S
Cd85 O89 2.439 . S
Cd85 O95 2.240 . S
Cd86 O87 2.240 1_565 S
Cd86 O94 2.223 . S
Cd86 O96 2.297 . S
Cd86 O97 2.439 . S
O87 Cd86 2.240 1_545 S
O87 C92 1.279 . S
O88 Cd85 2.297 1_545 S
O88 C90 1.247 . S
O89 Cd85 2.439 . S
O89 C90 1.208 1_565 S
C90 O88 1.247 . S
C90 O89 1.208 1_545 S
C91 O96 1.247 . S
C91 O97 1.208 . S
C92 O84 1.315 . S
C92 O87 1.279 . S
C93 O94 1.315 . S
C93 O95 1.279 . S
O94 Cd86 2.223 . S
O94 C93 1.315 . S
O95 Cd85 2.240 . S
O95 C93 1.279 . S
O96 Cd86 2.297 . S
O96 C91 1.247 . S
O97 Cd86 2.439 . S
O97 C91 1.208 . S
O98 Cd99 2.223 1_655 S
O98 C106 1.315 . S
Cd99 O98 2.223 1_455 S
Cd99 O102 2.297 1_455 S
Cd99 O103 2.439 . S
Cd99 O109 2.240 . S
Cd100 O101 2.240 1_455 S
Cd100 O108 2.223 . S
Cd100 O110 2.297 . S
Cd100 O111 2.439 . S
O101 Cd100 2.240 1_655 S
O101 C106 1.279 . S
O102 Cd99 2.297 1_655 S
O102 C104 1.247 . S
O103 Cd99 2.439 . S
O103 C104 1.208 1_455 S
C104 O102 1.247 . S
C104 O103 1.208 1_655 S
C105 O110 1.247 . S
C105 O111 1.208 . S
C106 O98 1.315 . S
C106 O101 1.279 . S
C107 O108 1.315 . S
C107 O109 1.279 . S
O108 Cd100 2.223 . S
O108 C107 1.315 . S
O109 Cd99 2.240 . S
O109 C107 1.279 . S
O110 Cd100 2.297 . S
O110 C105 1.247 . S
O111 Cd100 2.439 . S
O111 C105 1.208 . S
O112 Cd113 2.223 . S
O112 C120 1.315 . S
Cd113 O112 2.223 . S
Cd113 O116 2.297 . S
Cd113 O117 2.439 . S
Cd113 O123 2.240 . S
Cd114 O115 2.240 . S
Cd114 O122 2.223 . S
Cd114 O124 2.297 . S
Cd114 O125 2.439 . S
O115 Cd114 2.240 . S
O115 C120 1.279 . S
O116 Cd113 2.297 . S
O116 C118 1.247 . S
O117 Cd113 2.439 . S
O117 C118 1.208 . S
C118 O116 1.247 . S
C118 O117 1.208 . S
C119 O124 1.247 . S
C119 O125 1.208 . S
C120 O112 1.315 . S
C120 O115 1.279 . S
C121 O122 1.315 . S
C121 O123 1.279 . S
O122 Cd114 2.223 . S
O122 C121 1.315 . S
O123 Cd113 2.240 . S
O123 C121 1.279 . S
O124 Cd114 2.297 . S
O124 C119 1.247 . S
O125 Cd114 2.439 . S
O125 C119 1.208 . S
O126 Cd127 2.223 1_455 S
O126 C134 1.315 . S
Cd127 O126 2.223 1_655 S
Cd127 O130 2.297 1_655 S
Cd127 O131 2.439 . S
Cd127 O137 2.240 . S
Cd128 O129 2.240 1_655 S
Cd128 O136 2.223 . S
Cd128 O138 2.297 . S
Cd128 O139 2.439 . S
O129 Cd128 2.240 1_455 S
O129 C134 1.279 . S
O130 Cd127 2.297 1_455 S
O130 C132 1.247 . S
O131 Cd127 2.439 . S
O131 C132 1.208 1_655 S
C132 O130 1.247 . S
C132 O131 1.208 1_455 S
C133 O138 1.247 . S
C133 O139 1.208 . S
C134 O126 1.315 . S
C134 O129 1.279 . S
C135 O136 1.315 . S
C135 O137 1.279 . S
O136 Cd128 2.223 . S
O136 C135 1.315 . S
O137 Cd127 2.240 . S
O137 C135 1.279 . S
O138 Cd128 2.297 . S
O138 C133 1.247 . S
O139 Cd128 2.439 . S
O139 C133 1.208 . S
O140 Cd141 2.223 . S
O140 C148 1.315 . S
Cd141 O140 2.223 . S
Cd141 O144 2.297 . S
Cd141 O145 2.439 . S
Cd141 O151 2.240 . S
Cd142 O143 2.240 . S
Cd142 O150 2.223 . S
Cd142 O152 2.297 . S
Cd142 O153 2.439 . S
O143 Cd142 2.240 . S
O143 C148 1.279 . S
O144 Cd141 2.297 . S
O144 C146 1.247 . S
O145 Cd141 2.439 . S
O145 C146 1.208 . S
C146 O144 1.247 . S
C146 O145 1.208 . S
C147 O152 1.247 . S
C147 O153 1.208 . S
C148 O140 1.315 . S
C148 O143 1.279 . S
C149 O150 1.315 . S
C149 O151 1.279 . S
O150 Cd142 2.223 . S
O150 C149 1.315 . S
O151 Cd141 2.240 . S
O151 C149 1.279 . S
O152 Cd142 2.297 . S
O152 C147 1.247 . S
O153 Cd142 2.439 . S
O153 C147 1.208 . S
O154 Cd155 2.223 1_565 S
O154 C162 1.315 . S
Cd155 O154 2.223 1_545 S
Cd155 O158 2.297 1_545 S
Cd155 O159 2.439 . S
Cd155 O165 2.240 . S
Cd156 O157 2.240 1_545 S
Cd156 O164 2.223 . S
Cd156 O166 2.297 . S
Cd156 O167 2.439 . S
O157 Cd156 2.240 1_565 S
O157 C162 1.279 . S
O158 Cd155 2.297 1_565 S
O158 C160 1.247 . S
O159 Cd155 2.439 . S
O159 C160 1.208 1_545 S
C160 O158 1.247 . S
C160 O159 1.208 1_565 S
C161 O166 1.247 . S
C161 O167 1.208 . S
C162 O154 1.315 . S
C162 O157 1.279 . S
C163 O164 1.315 . S
C163 O165 1.279 . S
O164 Cd156 2.223 . S
O164 C163 1.315 . S
O165 Cd155 2.240 . S
O165 C163 1.279 . S
O166 Cd156 2.297 . S
O166 C161 1.247 . S
O167 Cd156 2.439 . S
O167 C161 1.208 . S
O168 Cd169 2.223 . S
O168 C176 1.315 . S
Cd169 O168 2.223 . S
Cd169 O172 2.297 . S
Cd169 O173 2.439 . S
Cd169 O179 2.240 . S
Cd170 O171 2.240 . S
Cd170 O178 2.223 . S
Cd170 O180 2.297 . S
Cd170 O181 2.439 . S
O171 Cd170 2.240 . S
O171 C176 1.279 . S
O172 Cd169 2.297 . S
O172 C174 1.247 . S
O173 Cd169 2.439 . S
O173 C174 1.208 . S
C174 O172 1.247 . S
C174 O173 1.208 . S
C175 O180 1.247 . S
C175 O181 1.208 . S
C176 O168 1.315 . S
C176 O171 1.279 . S
C177 O178 1.315 . S
C177 O179 1.279 . S
O178 Cd170 2.223 . S
O178 C177 1.315 . S
O179 Cd169 2.240 . S
O179 C177 1.279 . S
O180 Cd170 2.297 . S
O180 C175 1.247 . S
O181 Cd170 2.439 . S
O181 C175 1.208 . S
O182 Cd183 2.223 . S
O182 C190 1.315 . S
Cd183 O182 2.223 . S
Cd183 O186 2.297 . S
Cd183 O187 2.439 . S
Cd183 O193 2.240 . S
Cd184 O185 2.240 . S
Cd184 O192 2.223 . S
Cd184 O194 2.297 . S
Cd184 O195 2.439 . S
O185 Cd184 2.240 . S
O185 C190 1.279 . S
O186 Cd183 2.297 . S
O186 C188 1.247 . S
O187 Cd183 2.439 . S
O187 C188 1.208 . S
C188 O186 1.247 . S
C188 O187 1.208 . S
C189 O194 1.247 . S
C189 O195 1.208 . S
C190 O182 1.315 . S
C190 O185 1.279 . S
C191 O192 1.315 . S
C191 O193 1.279 . S
O192 Cd184 2.223 . S
O192 C191 1.315 . S
O193 Cd183 2.240 . S
O193 C191 1.279 . S
O194 Cd184 2.297 . S
O194 C189 1.247 . S
O195 Cd184 2.439 . S
O195 C189 1.208 . S
O196 Cd197 2.223 . S
O196 C204 1.315 . S
Cd197 O196 2.223 . S
Cd197 O200 2.297 . S
Cd197 O201 2.439 . S
Cd197 O207 2.240 . S
Cd198 O199 2.240 . S
Cd198 O206 2.223 . S
Cd198 O208 2.297 . S
Cd198 O209 2.439 . S
O199 Cd198 2.240 . S
O199 C204 1.279 . S
O200 Cd197 2.297 . S
O200 C202 1.247 . S
O201 Cd197 2.439 . S
O201 C202 1.208 . S
C202 O200 1.247 . S
C202 O201 1.208 . S
C203 O208 1.247 . S
C203 O209 1.208 . S
C204 O196 1.315 . S
C204 O199 1.279 . S
C205 O206 1.315 . S
C205 O207 1.279 . S
O206 Cd198 2.223 . S
O206 C205 1.315 . S
O207 Cd197 2.240 . S
O207 C205 1.279 . S
O208 Cd198 2.297 . S
O208 C203 1.247 . S
O209 Cd198 2.439 . S
O209 C203 1.208 . S
O210 Cd211 2.223 . S
O210 C218 1.315 . S
Cd211 O210 2.223 . S
Cd211 O214 2.297 . S
Cd211 O215 2.439 . S
Cd211 O221 2.240 . S
Cd212 O213 2.240 . S
Cd212 O220 2.223 . S
Cd212 O222 2.297 . S
Cd212 O223 2.439 . S
O213 Cd212 2.240 . S
O213 C218 1.279 . S
O214 Cd211 2.297 . S
O214 C216 1.247 . S
O215 Cd211 2.439 . S
O215 C216 1.208 . S
C216 O214 1.247 . S
C216 O215 1.208 . S
C217 O222 1.247 . S
C217 O223 1.208 . S
C218 O210 1.315 . S
C218 O213 1.279 . S
C219 O220 1.315 . S
C219 O221 1.279 . S
O220 Cd212 2.223 . S
O220 C219 1.315 . S
O221 Cd211 2.240 . S
O221 C219 1.279 . S
O222 Cd212 2.297 . S
O222 C217 1.247 . S
O223 Cd212 2.439 . S
O223 C217 1.208 . S
O224 Cd225 2.223 . S
O224 C232 1.315 . S
Cd225 O224 2.223 . S
Cd225 O228 2.297 . S
Cd225 O229 2.439 . S
Cd225 O235 2.240 . S
Cd226 O227 2.240 . S
Cd226 O234 2.223 . S
Cd226 O236 2.297 . S
Cd226 O237 2.439 . S
O227 Cd226 2.240 . S
O227 C232 1.279 . S
O228 Cd225 2.297 . S
O228 C230 1.247 . S
O229 Cd225 2.439 . S
O229 C230 1.208 . S
C230 O228 1.247 . S
C230 O229 1.208 . S
C231 O236 1.247 . S
C231 O237 1.208 . S
C232 O224 1.315 . S
C232 O227 1.279 . S
C233 O234 1.315 . S
C233 O235 1.279 . S
O234 Cd226 2.223 . S
O234 C233 1.315 . S
O235 Cd225 2.240 . S
O235 C233 1.279 . S
O236 Cd226 2.297 . S
O236 C231 1.247 . S
O237 Cd226 2.439 . S
O237 C231 1.208 . S
O238 Cd239 2.223 . S
O238 C246 1.315 . S
Cd239 O238 2.223 . S
Cd239 O242 2.297 . S
Cd239 O243 2.439 . S
Cd239 O249 2.240 . S
Cd240 O241 2.240 . S
Cd240 O248 2.223 . S
Cd240 O250 2.297 . S
Cd240 O251 2.439 . S
O241 Cd240 2.240 . S
O241 C246 1.279 . S
O242 Cd239 2.297 . S
O242 C244 1.247 . S
O243 Cd239 2.439 . S
O243 C244 1.208 . S
C244 O242 1.247 . S
C244 O243 1.208 . S
C245 O250 1.247 . S
C245 O251 1.208 . S
C246 O238 1.315 . S
C246 O241 1.279 . S
C247 O248 1.315 . S
C247 O249 1.279 . S
O248 Cd240 2.223 . S
O248 C247 1.315 . S
O249 Cd239 2.240 . S
O249 C247 1.279 . S
O250 Cd240 2.297 . S
O250 C245 1.247 . S
O251 Cd240 2.439 . S
O251 C245 1.208 . S
O252 Cd253 2.223 . S
O252 C260 1.315 . S
Cd253 O252 2.223 . S
Cd253 O256 2.297 . S
Cd253 O257 2.439 . S
Cd253 O263 2.240 . S
Cd254 O255 2.240 . S
Cd254 O262 2.223 . S
Cd254 O264 2.297 . S
Cd254 O265 2.439 . S
O255 Cd254 2.240 . S
O255 C260 1.279 . S
O256 Cd253 2.297 . S
O256 C258 1.247 . S
O257 Cd253 2.439 . S
O257 C258 1.208 . S
C258 O256 1.247 . S
C258 O257 1.208 . S
C259 O264 1.247 . S
C259 O265 1.208 . S
C260 O252 1.315 . S
C260 O255 1.279 . S
C261 O262 1.315 . S
C261 O263 1.279 . S
O262 Cd254 2.223 . S
O262 C261 1.315 . S
O263 Cd253 2.240 . S
O263 C261 1.279 . S
O264 Cd254 2.297 . S
O264 C259 1.247 . S
O265 Cd254 2.439 . S
O265 C259 1.208 . S
O266 Cd267 2.223 . S
O266 C274 1.315 . S
Cd267 O266 2.223 . S
Cd267 O270 2.297 . S
Cd267 O271 2.439 . S
Cd267 O277 2.240 . S
Cd268 O269 2.240 . S
Cd268 O276 2.223 . S
Cd268 O278 2.297 . S
Cd268 O279 2.439 . S
O269 Cd268 2.240 . S
O269 C274 1.279 . S
O270 Cd267 2.297 . S
O270 C272 1.247 . S
O271 Cd267 2.439 . S
O271 C272 1.208 . S
C272 O270 1.247 . S
C272 O271 1.208 . S
C273 O278 1.247 . S
C273 O279 1.208 . S
C274 O266 1.315 . S
C274 O269 1.279 . S
C275 O276 1.315 . S
C275 O277 1.279 . S
O276 Cd268 2.223 . S
O276 C275 1.315 . S
O277 Cd267 2.240 . S
O277 C275 1.279 . S
O278 Cd268 2.297 . S
O278 C273 1.247 . S
O279 Cd268 2.439 . S
O279 C273 1.208 . S
O280 Cd281 2.223 . S
O280 C288 1.315 . S
Cd281 O280 2.223 . S
Cd281 O284 2.297 . S
Cd281 O285 2.439 . S
Cd281 O291 2.240 . S
Cd282 O283 2.240 . S
Cd282 O290 2.223 . S
Cd282 O292 2.297 . S
Cd282 O293 2.439 . S
O283 Cd282 2.240 . S
O283 C288 1.279 . S
O284 Cd281 2.297 . S
O284 C286 1.247 . S
O285 Cd281 2.439 . S
O285 C286 1.208 . S
C286 O284 1.247 . S
C286 O285 1.208 . S
C287 O292 1.247 . S
C287 O293 1.208 . S
C288 O280 1.315 . S
C288 O283 1.279 . S
C289 O290 1.315 . S
C289 O291 1.279 . S
O290 Cd282 2.223 . S
O290 C289 1.315 . S
O291 Cd281 2.240 . S
O291 C289 1.279 . S
O292 Cd282 2.297 . S
O292 C287 1.247 . S
O293 Cd282 2.439 . S
O293 C287 1.208 . S
O294 Cd295 2.223 . S
O294 C302 1.315 . S
Cd295 O294 2.223 . S
Cd295 O298 2.297 . S
Cd295 O299 2.439 . S
Cd295 O305 2.240 . S
Cd296 O297 2.240 . S
Cd296 O304 2.223 . S
Cd296 O306 2.297 . S
Cd296 O307 2.439 . S
O297 Cd296 2.240 . S
O297 C302 1.279 . S
O298 Cd295 2.297 . S
O298 C300 1.247 . S
O299 Cd295 2.439 . S
O299 C300 1.208 . S
C300 O298 1.247 . S
C300 O299 1.208 . S
C301 O306 1.247 . S
C301 O307 1.208 . S
C302 O294 1.315 . S
C302 O297 1.279 . S
C303 O304 1.315 . S
C303 O305 1.279 . S
O304 Cd296 2.223 . S
O304 C303 1.315 . S
O305 Cd295 2.240 . S
O305 C303 1.279 . S
O306 Cd296 2.297 . S
O306 C301 1.247 . S
O307 Cd296 2.439 . S
O307 C301 1.208 . S
O308 Cd309 2.223 . S
O308 C316 1.315 . S
Cd309 O308 2.223 . S
Cd309 O312 2.297 . S
Cd309 O313 2.439 . S
Cd309 O319 2.240 . S
Cd310 O311 2.240 . S
Cd310 O318 2.223 . S
Cd310 O320 2.297 . S
Cd310 O321 2.439 . S
O311 Cd310 2.240 . S
O311 C316 1.279 . S
O312 Cd309 2.297 . S
O312 C314 1.247 . S
O313 Cd309 2.439 . S
O313 C314 1.208 . S
C314 O312 1.247 . S
C314 O313 1.208 . S
C315 O320 1.247 . S
C315 O321 1.208 . S
C316 O308 1.315 . S
C316 O311 1.279 . S
C317 O318 1.315 . S
C317 O319 1.279 . S
O318 Cd310 2.223 . S
O318 C317 1.315 . S
O319 Cd309 2.240 . S
O319 C317 1.279 . S
O320 Cd310 2.297 . S
O320 C315 1.247 . S
O321 Cd310 2.439 . S
O321 C315 1.208 . S
O322 Cd323 2.223 . S
O322 C330 1.315 . S
Cd323 O322 2.223 . S
Cd323 O326 2.297 . S
Cd323 O327 2.439 . S
Cd323 O333 2.240 . S
Cd324 O325 2.240 . S
Cd324 O332 2.223 . S
Cd324 O334 2.297 . S
Cd324 O335 2.439 . S
O325 Cd324 2.240 . S
O325 C330 1.279 . S
O326 Cd323 2.297 . S
O326 C328 1.247 . S
O327 Cd323 2.439 . S
O327 C328 1.208 . S
C328 O326 1.247 . S
C328 O327 1.208 . S
C329 O334 1.247 . S
C329 O335 1.208 . S
C330 O322 1.315 . S
C330 O325 1.279 . S
C331 O332 1.315 . S
C331 O333 1.279 . S
O332 Cd324 2.223 . S
O332 C331 1.315 . S
O333 Cd323 2.240 . S
O333 C331 1.279 . S
O334 Cd324 2.297 . S
O334 C329 1.247 . S
O335 Cd324 2.439 . S
O335 C329 1.208 . S
O336 Cd337 2.223 . S
O336 C344 1.315 . S
Cd337 O336 2.223 . S
Cd337 O340 2.297 . S
Cd337 O341 2.439 . S
Cd337 O347 2.240 . S
Cd338 O339 2.240 . S
Cd338 O346 2.223 . S
Cd338 O348 2.297 . S
Cd338 O349 2.439 . S
O339 Cd338 2.240 . S
O339 C344 1.279 . S
O340 Cd337 2.297 . S
O340 C342 1.247 . S
O341 Cd337 2.439 . S
O341 C342 1.208 . S
C342 O340 1.247 . S
C342 O341 1.208 . S
C343 O348 1.247 . S
C343 O349 1.208 . S
C344 O336 1.315 . S
C344 O339 1.279 . S
C345 O346 1.315 . S
C345 O347 1.279 . S
O346 Cd338 2.223 . S
O346 C345 1.315 . S
O347 Cd337 2.240 . S
O347 C345 1.279 . S
O348 Cd338 2.297 . S
O348 C343 1.247 . S
O349 Cd338 2.439 . S
O349 C343 1.208 . S
O350 Cd351 2.223 . S
O350 C358 1.315 . S
Cd351 O350 2.223 . S
Cd351 O354 2.297 . S
Cd351 O355 2.439 . S
Cd351 O361 2.240 . S
Cd352 O353 2.240 . S
Cd352 O360 2.223 . S
Cd352 O362 2.297 . S
Cd352 O363 2.439 . S
O353 Cd352 2.240 . S
O353 C358 1.279 . S
O354 Cd351 2.297 . S
O354 C356 1.247 . S
O355 Cd351 2.439 . S
O355 C356 1.208 . S
C356 O354 1.247 . S
C356 O355 1.208 . S
C357 O362 1.247 . S
C357 O363 1.208 . S
C358 O350 1.315 . S
C358 O353 1.279 . S
C359 O360 1.315 . S
C359 O361 1.279 . S
O360 Cd352 2.223 . S
O360 C359 1.315 . S
O361 Cd351 2.240 . S
O361 C359 1.279 . S
O362 Cd352 2.297 . S
O362 C357 1.247 . S
O363 Cd352 2.439 . S
O363 C357 1.208 . S
O364 Cd365 2.223 . S
O364 C372 1.315 . S
Cd365 O364 2.223 . S
Cd365 O368 2.297 . S
Cd365 O369 2.439 . S
Cd365 O375 2.240 . S
Cd366 O367 2.240 . S
Cd366 O374 2.223 . S
Cd366 O376 2.297 . S
Cd366 O377 2.439 . S
O367 Cd366 2.240 . S
O367 C372 1.279 . S
O368 Cd365 2.297 . S
O368 C370 1.247 . S
O369 Cd365 2.439 . S
O369 C370 1.208 . S
C370 O368 1.247 . S
C370 O369 1.208 . S
C371 O376 1.247 . S
C371 O377 1.208 . S
C372 O364 1.315 . S
C372 O367 1.279 . S
C373 O374 1.315 . S
C373 O375 1.279 . S
O374 Cd366 2.223 . S
O374 C373 1.315 . S
O375 Cd365 2.240 . S
O375 C373 1.279 . S
O376 Cd366 2.297 . S
O376 C371 1.247 . S
O377 Cd366 2.439 . S
O377 C371 1.208 . S
O378 Cd379 2.223 . S
O378 C386 1.315 . S
Cd379 O378 2.223 . S
Cd379 O382 2.297 . S
Cd379 O383 2.439 . S
Cd379 O389 2.240 . S
Cd380 O381 2.240 . S
Cd380 O388 2.223 . S
Cd380 O390 2.297 . S
Cd380 O391 2.439 . S
O381 Cd380 2.240 . S
O381 C386 1.279 . S
O382 Cd379 2.297 . S
O382 C384 1.247 . S
O383 Cd379 2.439 . S
O383 C384 1.208 . S
C384 O382 1.247 . S
C384 O383 1.208 . S
C385 O390 1.247 . S
C385 O391 1.208 . S
C386 O378 1.315 . S
C386 O381 1.279 . S
C387 O388 1.315 . S
C387 O389 1.279 . S
O388 Cd380 2.223 . S
O388 C387 1.315 . S
O389 Cd379 2.240 . S
O389 C387 1.279 . S
O390 Cd380 2.297 . S
O390 C385 1.247 . S
O391 Cd380 2.439 . S
O391 C385 1.208 . S
O392 Cd393 2.223 . S
O392 C400 1.315 . S
Cd393 O392 2.223 . S
Cd393 O396 2.297 . S
Cd393 O397 2.439 . S
Cd393 O403 2.240 . S
Cd394 O395 2.240 . S
Cd394 O402 2.223 . S
Cd394 O404 2.297 . S
Cd394 O405 2.439 . S
O395 Cd394 2.240 . S
O395 C400 1.279 . S
O396 Cd393 2.297 . S
O396 C398 1.247 . S
O397 Cd393 2.439 . S
O397 C398 1.208 . S
C398 O396 1.247 . S
C398 O397 1.208 . S
C399 O404 1.247 . S
C399 O405 1.208 . S
C400 O392 1.315 . S
C400 O395 1.279 . S
C401 O402 1.315 . S
C401 O403 1.279 . S
O402 Cd394 2.223 . S
O402 C401 1.315 . S
O403 Cd393 2.240 . S
O403 C401 1.279 . S
O404 Cd394 2.297 . S
O404 C399 1.247 . S
O405 Cd394 2.439 . S
O405 C399 1.208 . S
O406 Cd407 2.223 . S
O406 C414 1.315 . S
Cd407 O406 2.223 . S
Cd407 O410 2.297 . S
Cd407 O411 2.439 . S
Cd407 O417 2.240 . S
Cd408 O409 2.240 . S
Cd408 O416 2.223 . S
Cd408 O418 2.297 . S
Cd408 O419 2.439 . S
O409 Cd408 2.240 . S
O409 C414 1.279 . S
O410 Cd407 2.297 . S
O410 C412 1.247 . S
O411 Cd407 2.439 . S
O411 C412 1.208 . S
C412 O410 1.247 . S
C412 O411 1.208 . S
C413 O418 1.247 . S
C413 O419 1.208 . S
C414 O406 1.315 . S
C414 O409 1.279 . S
C415 O416 1.315 . S
C415 O417 1.279 . S
O416 Cd408 2.223 . S
O416 C415 1.315 . S
O417 Cd407 2.240 . S
O417 C415 1.279 . S
O418 Cd408 2.297 . S
O418 C413 1.247 . S
O419 Cd408 2.439 . S
O419 C413 1.208 . S
O420 Cd421 2.223 . S
O420 C428 1.315 . S
Cd421 O420 2.223 . S
Cd421 O424 2.297 . S
Cd421 O425 2.439 . S
Cd421 O431 2.240 . S
Cd422 O423 2.240 . S
Cd422 O430 2.223 . S
Cd422 O432 2.297 . S
Cd422 O433 2.439 . S
O423 Cd422 2.240 . S
O423 C428 1.279 . S
O424 Cd421 2.297 . S
O424 C426 1.247 . S
O425 Cd421 2.439 . S
O425 C426 1.208 . S
C426 O424 1.247 . S
C426 O425 1.208 . S
C427 O432 1.247 . S
C427 O433 1.208 . S
C428 O420 1.315 . S
C428 O423 1.279 . S
C429 O430 1.315 . S
C429 O431 1.279 . S
O430 Cd422 2.223 . S
O430 C429 1.315 . S
O431 Cd421 2.240 . S
O431 C429 1.279 . S
O432 Cd422 2.297 . S
O432 C427 1.247 . S
O433 Cd422 2.439 . S
O433 C427 1.208 . S
O434 Cd435 2.223 . S
O434 C442 1.315 . S
Cd435 O434 2.223 . S
Cd435 O438 2.297 . S
Cd435 O439 2.439 . S
Cd435 O445 2.240 . S
Cd436 O437 2.240 . S
Cd436 O444 2.223 . S
Cd436 O446 2.297 . S
Cd436 O447 2.439 . S
O437 Cd436 2.240 . S
O437 C442 1.279 . S
O438 Cd435 2.297 . S
O438 C440 1.247 . S
O439 Cd435 2.439 . S
O439 C440 1.208 . S
C440 O438 1.247 . S
C440 O439 1.208 . S
C441 O446 1.247 . S
C441 O447 1.208 . S
C442 O434 1.315 . S
C442 O437 1.279 . S
C443 O444 1.315 . S
C443 O445 1.279 . S
O444 Cd436 2.223 . S
O444 C443 1.315 . S
O445 Cd435 2.240 . S
O445 C443 1.279 . S
O446 Cd436 2.297 . S
O446 C441 1.247 . S
O447 Cd436 2.439 . S
O447 C441 1.208 . S
O448 Cd449 2.223 . S
O448 C456 1.315 . S
Cd449 O448 2.223 . S
Cd449 O452 2.297 . S
Cd449 O453 2.439 . S
Cd449 O459 2.240 . S
Cd450 O451 2.240 . S
Cd450 O458 2.223 . S
Cd450 O460 2.297 . S
Cd450 O461 2.439 . S
O451 Cd450 2.240 . S
O451 C456 1.279 . S
O452 Cd449 2.297 . S
O452 C454 1.247 . S
O453 Cd449 2.439 . S
O453 C454 1.208 . S
C454 O452 1.247 . S
C454 O453 1.208 . S
C455 O460 1.247 . S
C455 O461 1.208 . S
C456 O448 1.315 . S
C456 O451 1.279 . S
C457 O458 1.315 . S
C457 O459 1.279 . S
O458 Cd450 2.223 . S
O458 C457 1.315 . S
O459 Cd449 2.240 . S
O459 C457 1.279 . S
O460 Cd450 2.297 . S
O460 C455 1.247 . S
O461 Cd450 2.439 . S
O461 C455 1.208 . S
O462 Cd463 2.223 . S
O462 C470 1.315 . S
Cd463 O462 2.223 . S
Cd463 O466 2.297 . S
Cd463 O467 2.439 . S
Cd463 O473 2.240 . S
Cd464 O465 2.240 . S
Cd464 O472 2.223 . S
Cd464 O474 2.297 . S
Cd464 O475 2.439 . S
O465 Cd464 2.240 . S
O465 C470 1.279 . S
O466 Cd463 2.297 . S
O466 C468 1.247 . S
O467 Cd463 2.439 . S
O467 C468 1.208 . S
C468 O466 1.247 . S
C468 O467 1.208 . S
C469 O474 1.247 . S
C469 O475 1.208 . S
C470 O462 1.315 . S
C470 O465 1.279 . S
C471 O472 1.315 . S
C471 O473 1.279 . S
O472 Cd464 2.223 . S
O472 C471 1.315 . S
O473 Cd463 2.240 . S
O473 C471 1.279 . S
O474 Cd464 2.297 . S
O474 C469 1.247 . S
O475 Cd464 2.439 . S
O475 C469 1.208 . S
O476 Cd477 2.223 . S
O476 C484 1.315 . S
Cd477 O476 2.223 . S
Cd477 O480 2.297 . S
Cd477 O481 2.439 . S
Cd477 O487 2.240 . S
Cd478 O479 2.240 . S
Cd478 O486 2.223 . S
Cd478 O488 2.297 . S
Cd478 O489 2.439 . S
O479 Cd478 2.240 . S
O479 C484 1.279 . S
O480 Cd477 2.297 . S
O480 C482 1.247 . S
O481 Cd477 2.439 . S
O481 C482 1.208 . S
C482 O480 1.247 . S
C482 O481 1.208 . S
C483 O488 1.247 . S
C483 O489 1.208 . S
C484 O476 1.315 . S
C484 O479 1.279 . S
C485 O486 1.315 . S
C485 O487 1.279 . S
O486 Cd478 2.223 . S
O486 C485 1.315 . S
O487 Cd477 2.240 . S
O487 C485 1.279 . S
O488 Cd478 2.297 . S
O488 C483 1.247 . S
O489 Cd478 2.439 . S
O489 C483 1.208 . S
O490 Cd491 2.223 . S
O490 C498 1.315 . S
Cd491 O490 2.223 . S
Cd491 O494 2.297 . S
Cd491 O495 2.439 . S
Cd491 O501 2.240 . S
Cd492 O493 2.240 . S
Cd492 O500 2.223 . S
Cd492 O502 2.297 . S
Cd492 O503 2.439 . S
O493 Cd492 2.240 . S
O493 C498 1.279 . S
O494 Cd491 2.297 . S
O494 C496 1.247 . S
O495 Cd491 2.439 . S
O495 C496 1.208 . S
C496 O494 1.247 . S
C496 O495 1.208 . S
C497 O502 1.247 . S
C497 O503 1.208 . S
C498 O490 1.315 . S
C498 O493 1.279 . S
C499 O500 1.315 . S
C499 O501 1.279 . S
O500 Cd492 2.223 . S
O500 C499 1.315 . S
O501 Cd491 2.240 . S
O501 C499 1.279 . S
O502 Cd492 2.297 . S
O502 C497 1.247 . S
O503 Cd492 2.439 . S
O503 C497 1.208 . S
H504 C510 0.930 . S
H505 C513 0.930 . S
H506 C514 0.930 . S
H507 C515 0.930 . S
H508 C518 0.930 . S
H509 C519 0.930 . S
C510 H504 0.930 . S
C510 C511 1.355 . S
C510 C512 1.415 . S
C511 C510 1.355 . S
C511 C513 1.419 . S
C512 C510 1.415 . S
C512 C517 1.425 . S
C512 C519 1.409 . S
C513 H505 0.930 . S
C513 C511 1.419 . S
C513 C514 1.362 . S
C514 H506 0.930 . S
C514 C513 1.362 . S
C514 C517 1.409 . S
C515 H507 0.930 . S
C515 C516 1.355 . S
C515 C517 1.415 . S
C516 C515 1.355 . S
C516 C518 1.419 . S
C517 C512 1.425 . S
C517 C514 1.409 . S
C517 C515 1.415 . S
C518 H508 0.930 . S
C518 C516 1.419 . S
C518 C519 1.362 . S
C519 H509 0.930 . S
C519 C512 1.409 . S
C519 C518 1.362 . S
H520 C526 0.930 . S
H521 C529 0.930 . S
H522 C530 0.930 . S
H523 C531 0.930 . S
H524 C534 0.930 . S
H525 C535 0.930 . S
C526 H520 0.930 . S
C526 C527 1.355 . S
C526 C528 1.415 . S
C527 C526 1.355 . S
C527 C529 1.419 . S
C528 C526 1.415 . S
C528 C533 1.425 . S
C528 C535 1.409 . S
C529 H521 0.930 . S
C529 C527 1.419 . S
C529 C530 1.362 . S
C530 H522 0.930 . S
C530 C529 1.362 . S
C530 C533 1.409 . S
C531 H523 0.930 . S
C531 C532 1.355 . S
C531 C533 1.415 . S
C532 C531 1.355 . S
C532 C534 1.419 . S
C533 C528 1.425 . S
C533 C530 1.409 . S
C533 C531 1.415 . S
C534 H524 0.930 . S
C534 C532 1.419 . S
C534 C535 1.362 . S
C535 H525 0.930 . S
C535 C528 1.409 . S
C535 C534 1.362 . S
H536 C542 0.930 . S
H537 C545 0.930 . S
H538 C546 0.930 . S
H539 C547 0.930 . S
H540 C550 0.930 . S
H541 C551 0.930 . S
C542 H536 0.930 . S
C542 C543 1.355 . S
C542 C544 1.415 . S
C543 C542 1.355 . S
C543 C545 1.419 . S
C544 C542 1.415 . S
C544 C549 1.425 . S
C544 C551 1.409 . S
C545 H537 0.930 . S
C545 C543 1.419 . S
C545 C546 1.362 . S
C546 H538 0.930 . S
C546 C545 1.362 . S
C546 C549 1.409 . S
C547 H539 0.930 . S
C547 C548 1.355 . S
C547 C549 1.415 . S
C548 C547 1.355 . S
C548 C550 1.419 . S
C549 C544 1.425 . S
C549 C546 1.409 . S
C549 C547 1.415 . S
C550 H540 0.930 . S
C550 C548 1.419 . S
C550 C551 1.362 . S
C551 H541 0.930 . S
C551 C544 1.409 . S
C551 C550 1.362 . S
H552 C558 0.930 . S
H553 C561 0.930 . S
H554 C562 0.930 . S
H555 C563 0.930 . S
H556 C566 0.930 . S
H557 C567 0.930 . S
C558 H552 0.930 . S
C558 C559 1.355 . S
C558 C560 1.415 . S
C559 C558 1.355 . S
C559 C561 1.419 . S
C560 C558 1.415 . S
C560 C565 1.425 . S
C560 C567 1.409 . S
C561 H553 0.930 . S
C561 C559 1.419 . S
C561 C562 1.362 . S
C562 H554 0.930 . S
C562 C561 1.362 . S
C562 C565 1.409 . S
C563 H555 0.930 . S
C563 C564 1.355 . S
C563 C565 1.415 . S
C564 C563 1.355 . S
C564 C566 1.419 . S
C565 C560 1.425 . S
C565 C562 1.409 . S
C565 C563 1.415 . S
C566 H556 0.930 . S
C566 C564 1.419 . S
C566 C567 1.362 . S
C567 H557 0.930 . S
C567 C560 1.409 . S
C567 C566 1.362 . S
H568 C574 0.930 . S
H569 C577 0.930 . S
H570 C578 0.930 . S
H571 C579 0.930 . S
H572 C582 0.930 . S
H573 C583 0.930 . S
C574 H568 0.930 . S
C574 C575 1.355 . S
C574 C576 1.415 . S
C575 C574 1.355 . S
C575 C577 1.419 . S
C576 C574 1.415 . S
C576 C581 1.425 . S
C576 C583 1.409 . S
C577 H569 0.930 . S
C577 C575 1.419 . S
C577 C578 1.362 . S
C578 H570 0.930 . S
C578 C577 1.362 . S
C578 C581 1.409 . S
C579 H571 0.930 . S
C579 C580 1.355 . S
C579 C581 1.415 . S
C580 C579 1.355 . S
C580 C582 1.419 . S
C581 C576 1.425 . S
C581 C578 1.409 . S
C581 C579 1.415 . S
C582 H572 0.930 . S
C582 C580 1.419 . S
C582 C583 1.362 . S
C583 H573 0.930 . S
C583 C576 1.409 . S
C583 C582 1.362 . S
H584 C590 0.930 . S
H585 C593 0.930 . S
H586 C594 0.930 . S
H587 C595 0.930 . S
H588 C598 0.930 . S
H589 C599 0.930 . S
C590 H584 0.930 . S
C590 C591 1.355 . S
C590 C592 1.415 . S
C591 C590 1.355 . S
C591 C593 1.419 . S
C592 C590 1.415 . S
C592 C597 1.425 . S
C592 C599 1.409 . S
C593 H585 0.930 . S
C593 C591 1.419 . S
C593 C594 1.362 . S
C594 H586 0.930 . S
C594 C593 1.362 . S
C594 C597 1.409 . S
C595 H587 0.930 . S
C595 C596 1.355 . S
C595 C597 1.415 . S
C596 C595 1.355 . S
C596 C598 1.419 . S
C597 C592 1.425 . S
C597 C594 1.409 . S
C597 C595 1.415 . S
C598 H588 0.930 . S
C598 C596 1.419 . S
C598 C599 1.362 . S
C599 H589 0.930 . S
C599 C592 1.409 . S
C599 C598 1.362 . S
H600 C606 0.930 . S
H601 C609 0.930 . S
H602 C610 0.930 . S
H603 C611 0.930 . S
H604 C614 0.930 . S
H605 C615 0.930 . S
C606 H600 0.930 . S
C606 C607 1.355 . S
C606 C608 1.415 . S
C607 C606 1.355 . S
C607 C609 1.419 . S
C608 C606 1.415 . S
C608 C613 1.425 . S
C608 C615 1.409 . S
C609 H601 0.930 . S
C609 C607 1.419 . S
C609 C610 1.362 . S
C610 H602 0.930 . S
C610 C609 1.362 . S
C610 C613 1.409 . S
C611 H603 0.930 . S
C611 C612 1.355 . S
C611 C613 1.415 . S
C612 C611 1.355 . S
C612 C614 1.419 . S
C613 C608 1.425 . S
C613 C610 1.409 . S
C613 C611 1.415 . S
C614 H604 0.930 . S
C614 C612 1.419 . S
C614 C615 1.362 . S
C615 H605 0.930 . S
C615 C608 1.409 . S
C615 C614 1.362 . S
H616 C622 0.930 . S
H617 C625 0.930 . S
H618 C626 0.930 . S
H619 C627 0.930 . S
H620 C630 0.930 . S
H621 C631 0.930 . S
C622 H616 0.930 . S
C622 C623 1.355 . S
C622 C624 1.415 . S
C623 C622 1.355 . S
C623 C625 1.419 . S
C624 C622 1.415 . S
C624 C629 1.425 . S
C624 C631 1.409 . S
C625 H617 0.930 . S
C625 C623 1.419 . S
C625 C626 1.362 . S
C626 H618 0.930 . S
C626 C625 1.362 . S
C626 C629 1.409 . S
C627 H619 0.930 . S
C627 C628 1.355 . S
C627 C629 1.415 . S
C628 C627 1.355 . S
C628 C630 1.419 . S
C629 C624 1.425 . S
C629 C626 1.409 . S
C629 C627 1.415 . S
C630 H620 0.930 . S
C630 C628 1.419 . S
C630 C631 1.362 . S
C631 H621 0.930 . S
C631 C624 1.409 . S
C631 C630 1.362 . S
H632 C638 0.930 . S
H633 C641 0.930 . S
H634 C642 0.930 . S
H635 C643 0.930 . S
H636 C646 0.930 . S
H637 C647 0.930 . S
C638 H632 0.930 . S
C638 C639 1.355 . S
C638 C640 1.415 . S
C639 C638 1.355 . S
C639 C641 1.419 . S
C640 C638 1.415 . S
C640 C645 1.425 . S
C640 C647 1.409 . S
C641 H633 0.930 . S
C641 C639 1.419 . S
C641 C642 1.362 . S
C642 H634 0.930 . S
C642 C641 1.362 . S
C642 C645 1.409 . S
C643 H635 0.930 . S
C643 C644 1.355 . S
C643 C645 1.415 . S
C644 C643 1.355 . S
C644 C646 1.419 . S
C645 C640 1.425 . S
C645 C642 1.409 . S
C645 C643 1.415 . S
C646 H636 0.930 . S
C646 C644 1.419 . S
C646 C647 1.362 . S
C647 H637 0.930 . S
C647 C640 1.409 . S
C647 C646 1.362 . S
H648 C654 0.930 . S
H649 C657 0.930 . S
H650 C658 0.930 . S
H651 C659 0.930 . S
H652 C662 0.930 . S
H653 C663 0.930 . S
C654 H648 0.930 . S
C654 C655 1.355 . S
C654 C656 1.415 . S
C655 C654 1.355 . S
C655 C657 1.419 . S
C656 C654 1.415 . S
C656 C661 1.425 . S
C656 C663 1.409 . S
C657 H649 0.930 . S
C657 C655 1.419 . S
C657 C658 1.362 . S
C658 H650 0.930 . S
C658 C657 1.362 . S
C658 C661 1.409 . S
C659 H651 0.930 . S
C659 C660 1.355 . S
C659 C661 1.415 . S
C660 C659 1.355 . S
C660 C662 1.419 . S
C661 C656 1.425 . S
C661 C658 1.409 . S
C661 C659 1.415 . S
C662 H652 0.930 . S
C662 C660 1.419 . S
C662 C663 1.362 . S
C663 H653 0.930 . S
C663 C656 1.409 . S
C663 C662 1.362 . S
H664 C670 0.930 . S
H665 C673 0.930 . S
H666 C674 0.930 . S
H667 C675 0.930 . S
H668 C678 0.930 . S
H669 C679 0.930 . S
C670 H664 0.930 . S
C670 C671 1.355 . S
C670 C672 1.415 . S
C671 C670 1.355 . S
C671 C673 1.419 . S
C672 C670 1.415 . S
C672 C677 1.425 . S
C672 C679 1.409 . S
C673 H665 0.930 . S
C673 C671 1.419 . S
C673 C674 1.362 . S
C674 H666 0.930 . S
C674 C673 1.362 . S
C674 C677 1.409 . S
C675 H667 0.930 . S
C675 C676 1.355 . S
C675 C677 1.415 . S
C676 C675 1.355 . S
C676 C678 1.419 . S
C677 C672 1.425 . S
C677 C674 1.409 . S
C677 C675 1.415 . S
C678 H668 0.930 . S
C678 C676 1.419 . S
C678 C679 1.362 . S
C679 H669 0.930 . S
C679 C672 1.409 . S
C679 C678 1.362 . S
H680 C686 0.930 . S
H681 C689 0.930 . S
H682 C690 0.930 . S
H683 C691 0.930 . S
H684 C694 0.930 . S
H685 C695 0.930 . S
C686 H680 0.930 . S
C686 C687 1.355 . S
C686 C688 1.415 . S
C687 C686 1.355 . S
C687 C689 1.419 . S
C688 C686 1.415 . S
C688 C693 1.425 . S
C688 C695 1.409 . S
C689 H681 0.930 . S
C689 C687 1.419 . S
C689 C690 1.362 . S
C690 H682 0.930 . S
C690 C689 1.362 . S
C690 C693 1.409 . S
C691 H683 0.930 . S
C691 C692 1.355 . S
C691 C693 1.415 . S
C692 C691 1.355 . S
C692 C694 1.419 . S
C693 C688 1.425 . S
C693 C690 1.409 . S
C693 C691 1.415 . S
C694 H684 0.930 . S
C694 C692 1.419 . S
C694 C695 1.362 . S
C695 H685 0.930 . S
C695 C688 1.409 . S
C695 C694 1.362 . S
H696 C702 0.930 . S
H697 C705 0.930 . S
H698 C706 0.930 . S
H699 C707 0.930 . S
H700 C710 0.930 . S
H701 C711 0.930 . S
C702 H696 0.930 . S
C702 C703 1.355 . S
C702 C704 1.415 . S
C703 C702 1.355 . S
C703 C705 1.419 . S
C704 C702 1.415 . S
C704 C709 1.425 1_455 S
C704 C711 1.409 . S
C705 H697 0.930 . S
C705 C703 1.419 . S
C705 C706 1.362 1_455 S
C706 H698 0.930 . S
C706 C705 1.362 1_655 S
C706 C709 1.409 . S
C707 H699 0.930 . S
C707 C708 1.355 . S
C707 C709 1.415 . S
C708 C707 1.355 . S
C708 C710 1.419 . S
C709 C704 1.425 1_655 S
C709 C706 1.409 . S
C709 C707 1.415 . S
C710 H700 0.930 . S
C710 C708 1.419 . S
C710 C711 1.362 1_655 S
C711 H701 0.930 . S
C711 C704 1.409 . S
C711 C710 1.362 1_455 S
H712 C718 0.930 . S
H713 C721 0.930 . S
H714 C722 0.930 . S
H715 C723 0.930 . S
H716 C726 0.930 . S
H717 C727 0.930 . S
C718 H712 0.930 . S
C718 C719 1.355 . S
C718 C720 1.415 . S
C719 C718 1.355 . S
C719 C721 1.419 . S
C720 C718 1.415 . S
C720 C725 1.425 . S
C720 C727 1.409 . S
C721 H713 0.930 . S
C721 C719 1.419 . S
C721 C722 1.362 . S
C722 H714 0.930 . S
C722 C721 1.362 . S
C722 C725 1.409 . S
C723 H715 0.930 . S
C723 C724 1.355 . S
C723 C725 1.415 . S
C724 C723 1.355 . S
C724 C726 1.419 . S
C725 C720 1.425 . S
C725 C722 1.409 . S
C725 C723 1.415 . S
C726 H716 0.930 . S
C726 C724 1.419 . S
C726 C727 1.362 . S
C727 H717 0.930 . S
C727 C720 1.409 . S
C727 C726 1.362 . S
H728 C734 0.930 . S
H729 C737 0.930 . S
H730 C738 0.930 . S
H731 C739 0.930 . S
H732 C742 0.930 . S
H733 C743 0.930 . S
C734 H728 0.930 . S
C734 C735 1.355 . S
C734 C736 1.415 . S
C735 C734 1.355 . S
C735 C737 1.419 . S
C736 C734 1.415 . S
C736 C741 1.425 1_545 S
C736 C743 1.409 . S
C737 H729 0.930 . S
C737 C735 1.419 . S
C737 C738 1.362 1_545 S
C738 H730 0.930 . S
C738 C737 1.362 1_565 S
C738 C741 1.409 . S
C739 H731 0.930 . S
C739 C740 1.355 . S
C739 C741 1.415 . S
C740 C739 1.355 . S
C740 C742 1.419 . S
C741 C736 1.425 1_565 S
C741 C738 1.409 . S
C741 C739 1.415 . S
C742 H732 0.930 . S
C742 C740 1.419 . S
C742 C743 1.362 1_565 S
C743 H733 0.930 . S
C743 C736 1.409 . S
C743 C742 1.362 1_545 S
H744 C750 0.930 . S
H745 C753 0.930 . S
H746 C754 0.930 1_545 S
H747 C755 0.930 . S
H748 C758 0.930 . S
H749 C759 0.930 1_565 S
C750 H744 0.930 . S
C750 C751 1.355 . S
C750 C752 1.415 1_554 S
C751 C750 1.355 . S
C751 C753 1.419 . S
C752 C750 1.415 1_556 S
C752 C757 1.425 1_566 S
C752 C759 1.409 1_565 S
C753 H745 0.930 . S
C753 C751 1.419 . S
C753 C754 1.362 . S
C754 H746 0.930 1_565 S
C754 C753 1.362 . S
C754 C757 1.409 1_565 S
C755 H747 0.930 . S
C755 C756 1.355 . S
C755 C757 1.415 1_556 S
C756 C755 1.355 . S
C756 C758 1.419 . S
C757 C752 1.425 1_544 S
C757 C754 1.409 1_545 S
C757 C755 1.415 1_554 S
C758 H748 0.930 . S
C758 C756 1.419 . S
C758 C759 1.362 . S
C759 H749 0.930 1_545 S
C759 C752 1.409 1_545 S
C759 C758 1.362 . S
H760 C766 0.930 . S
H761 C769 0.930 . S
H762 C770 0.930 . S
H763 C771 0.930 . S
H764 C774 0.930 . S
H765 C775 0.930 . S
C766 H760 0.930 . S
C766 C767 1.355 . S
C766 C768 1.415 1_655 S
C767 C766 1.355 . S
C767 C769 1.419 . S
C768 C766 1.415 1_455 S
C768 C773 1.425 1_456 S
C768 C775 1.409 . S
C769 H761 0.930 . S
C769 C767 1.419 . S
C769 C770 1.362 1_556 S
C770 H762 0.930 . S
C770 C769 1.362 1_554 S
C770 C773 1.409 . S
C771 H763 0.930 . S
C771 C772 1.355 . S
C771 C773 1.415 1_455 S
C772 C771 1.355 . S
C772 C774 1.419 . S
C773 C768 1.425 1_654 S
C773 C770 1.409 . S
C773 C771 1.415 1_655 S
C774 H764 0.930 . S
C774 C772 1.419 . S
C774 C775 1.362 1_554 S
C775 H765 0.930 . S
C775 C768 1.409 . S
C775 C774 1.362 1_556 S
H776 C782 0.930 . S
H777 C785 0.930 . S
H778 C786 0.930 . S
H779 C787 0.930 . S
H780 C790 0.930 . S
H781 C791 0.930 . S
C782 H776 0.930 . S
C782 C783 1.355 . S
C782 C784 1.415 1_556 S
C783 C782 1.355 . S
C783 C785 1.419 . S
C784 C782 1.415 1_554 S
C784 C789 1.425 1_554 S
C784 C791 1.409 . S
C785 H777 0.930 . S
C785 C783 1.419 . S
C785 C786 1.362 . S
C786 H778 0.930 . S
C786 C785 1.362 . S
C786 C789 1.409 . S
C787 H779 0.930 . S
C787 C788 1.355 . S
C787 C789 1.415 1_554 S
C788 C787 1.355 . S
C788 C790 1.419 . S
C789 C784 1.425 1_556 S
C789 C786 1.409 . S
C789 C787 1.415 1_556 S
C790 H780 0.930 . S
C790 C788 1.419 . S
C790 C791 1.362 . S
C791 H781 0.930 . S
C791 C784 1.409 . S
C791 C790 1.362 . S
H792 C798 0.930 . S
H793 C801 0.930 1_545 S
H794 C802 0.930 . S
H795 C803 0.930 . S
H796 C806 0.930 . S
H797 C807 0.930 . S
C798 H792 0.930 . S
C798 C799 1.355 . S
C798 C800 1.415 . S
C799 C798 1.355 . S
C799 C801 1.419 . S
C800 C798 1.415 . S
C800 C805 1.425 . S
C800 C807 1.409 . S
C801 H793 0.930 1_565 S
C801 C799 1.419 . S
C801 C802 1.362 . S
C802 H794 0.930 . S
C802 C801 1.362 . S
C802 C805 1.409 . S
C803 H795 0.930 . S
C803 C804 1.355 . S
C803 C805 1.415 . S
C804 C803 1.355 . S
C804 C806 1.419 . S
C805 C800 1.425 . S
C805 C802 1.409 . S
C805 C803 1.415 . S
C806 H796 0.930 . S
C806 C804 1.419 . S
C806 C807 1.362 . S
C807 H797 0.930 . S
C807 C800 1.409 . S
C807 C806 1.362 . S
H808 C814 0.930 . S
H809 C817 0.930 . S
H810 C818 0.930 . S
H811 C819 0.930 1_655 S
H812 C822 0.930 . S
H813 C823 0.930 . S
C814 H808 0.930 . S
C814 C815 1.355 . S
C814 C816 1.415 . S
C815 C814 1.355 . S
C815 C817 1.419 . S
C816 C814 1.415 . S
C816 C821 1.425 . S
C816 C823 1.409 . S
C817 H809 0.930 . S
C817 C815 1.419 . S
C817 C818 1.362 . S
C818 H810 0.930 . S
C818 C817 1.362 . S
C818 C821 1.409 . S
C819 H811 0.930 1_455 S
C819 C820 1.355 . S
C819 C821 1.415 . S
C820 C819 1.355 . S
C820 C822 1.419 . S
C821 C816 1.425 . S
C821 C818 1.409 . S
C821 C819 1.415 . S
C822 H812 0.930 . S
C822 C820 1.419 . S
C822 C823 1.362 . S
C823 H813 0.930 . S
C823 C816 1.409 . S
C823 C822 1.362 . S
H824 C830 0.930 . S
H825 C833 0.930 . S
H826 C834 0.930 . S
H827 C835 0.930 . S
H828 C838 0.930 . S
H829 C839 0.930 . S
C830 H824 0.930 . S
C830 C831 1.355 . S
C830 C832 1.415 . S
C831 C830 1.355 . S
C831 C833 1.419 . S
C832 C830 1.415 . S
C832 C837 1.425 . S
C832 C839 1.409 . S
C833 H825 0.930 . S
C833 C831 1.419 . S
C833 C834 1.362 . S
C834 H826 0.930 . S
C834 C833 1.362 . S
C834 C837 1.409 . S
C835 H827 0.930 . S
C835 C836 1.355 . S
C835 C837 1.415 . S
C836 C835 1.355 . S
C836 C838 1.419 . S
C837 C832 1.425 . S
C837 C834 1.409 . S
C837 C835 1.415 . S
C838 H828 0.930 . S
C838 C836 1.419 . S
C838 C839 1.362 . S
C839 H829 0.930 . S
C839 C832 1.409 . S
C839 C838 1.362 . S
H840 C846 0.930 . S
H841 C849 0.930 . S
H842 C850 0.930 1_455 S
H843 C851 0.930 1_455 S
H844 C854 0.930 . S
H845 C855 0.930 . S
C846 H840 0.930 . S
C846 C847 1.355 . S
C846 C848 1.415 . S
C847 C846 1.355 . S
C847 C849 1.419 . S
C848 C846 1.415 . S
C848 C853 1.425 . S
C848 C855 1.409 . S
C849 H841 0.930 . S
C849 C847 1.419 . S
C849 C850 1.362 . S
C850 H842 0.930 1_655 S
C850 C849 1.362 . S
C850 C853 1.409 . S
C851 H843 0.930 1_655 S
C851 C852 1.355 . S
C851 C853 1.415 . S
C852 C851 1.355 . S
C852 C854 1.419 . S
C853 C848 1.425 . S
C853 C850 1.409 . S
C853 C851 1.415 . S
C854 H844 0.930 . S
C854 C852 1.419 . S
C854 C855 1.362 . S
C855 H845 0.930 . S
C855 C848 1.409 . S
C855 C854 1.362 . S
H856 C862 0.930 . S
H857 C865 0.930 . S
H858 C866 0.930 . S
H859 C867 0.930 . S
H860 C870 0.930 . S
H861 C871 0.930 . S
C862 H856 0.930 . S
C862 C863 1.355 . S
C862 C864 1.415 . S
C863 C862 1.355 . S
C863 C865 1.419 . S
C864 C862 1.415 . S
C864 C869 1.425 . S
C864 C871 1.409 . S
C865 H857 0.930 . S
C865 C863 1.419 . S
C865 C866 1.362 . S
C866 H858 0.930 . S
C866 C865 1.362 . S
C866 C869 1.409 . S
C867 H859 0.930 . S
C867 C868 1.355 . S
C867 C869 1.415 . S
C868 C867 1.355 . S
C868 C870 1.419 . S
C869 C864 1.425 . S
C869 C866 1.409 . S
C869 C867 1.415 . S
C870 H860 0.930 . S
C870 C868 1.419 . S
C870 C871 1.362 . S
C871 H861 0.930 . S
C871 C864 1.409 . S
C871 C870 1.362 . S
H872 C878 0.930 . S
H873 C881 0.930 . S
H874 C882 0.930 1_565 S
H875 C883 0.930 1_565 S
H876 C886 0.930 . S
H877 C887 0.930 . S
C878 H872 0.930 . S
C878 C879 1.355 . S
C878 C880 1.415 . S
C879 C878 1.355 . S
C879 C881 1.419 . S
C880 C878 1.415 . S
C880 C885 1.425 . S
C880 C887 1.409 . S
C881 H873 0.930 . S
C881 C879 1.419 . S
C881 C882 1.362 . S
C882 H874 0.930 1_545 S
C882 C881 1.362 . S
C882 C885 1.409 . S
C883 H875 0.930 1_545 S
C883 C884 1.355 . S
C883 C885 1.415 . S
C884 C883 1.355 . S
C884 C886 1.419 . S
C885 C880 1.425 . S
C885 C882 1.409 . S
C885 C883 1.415 . S
C886 H876 0.930 . S
C886 C884 1.419 . S
C886 C887 1.362 . S
C887 H877 0.930 . S
C887 C880 1.409 . S
C887 C886 1.362 . S
H888 C894 0.930 1_565 S
H889 C897 0.930 . S
H890 C898 0.930 . S
H891 C899 0.930 . S
H892 C902 0.930 . S
H893 C903 0.930 1_565 S
C894 H888 0.930 1_545 S
C894 C895 1.355 . S
C894 C896 1.415 . S
C895 C894 1.355 . S
C895 C897 1.419 . S
C896 C894 1.415 . S
C896 C901 1.425 . S
C896 C903 1.409 . S
C897 H889 0.930 . S
C897 C895 1.419 . S
C897 C898 1.362 . S
C898 H890 0.930 . S
C898 C897 1.362 . S
C898 C901 1.409 . S
C899 H891 0.930 . S
C899 C900 1.355 . S
C899 C901 1.415 . S
C900 C899 1.355 . S
C900 C902 1.419 . S
C901 C896 1.425 . S
C901 C898 1.409 . S
C901 C899 1.415 . S
C902 H892 0.930 . S
C902 C900 1.419 . S
C902 C903 1.362 . S
C903 H893 0.930 1_545 S
C903 C896 1.409 . S
C903 C902 1.362 . S
H904 C910 0.930 . S
H905 C913 0.930 . S
H906 C914 0.930 . S
H907 C915 0.930 . S
H908 C918 0.930 . S
H909 C919 0.927 1_455 S
C910 H904 0.930 . S
C910 C911 1.355 . S
C910 C912 1.415 . S
C911 C910 1.355 . S
C911 C913 1.419 . S
C912 C910 1.415 . S
C912 C917 1.425 . S
C912 C919 1.409 . S
C913 H905 0.930 . S
C913 C911 1.419 . S
C913 C914 1.362 . S
C914 H906 0.930 . S
C914 C913 1.362 . S
C914 C917 1.409 . S
C915 H907 0.930 . S
C915 C916 1.355 . S
C915 C917 1.415 . S
C916 C915 1.355 . S
C916 C918 1.419 1_655 S
C917 C912 1.425 . S
C917 C914 1.409 . S
C917 C915 1.415 . S
C918 H908 0.930 . S
C918 C916 1.419 1_455 S
C918 C919 1.362 1_455 S
C919 H909 0.927 1_655 S
C919 C912 1.409 . S
C919 C918 1.362 1_655 S
H920 C926 0.930 . S
H921 C929 0.930 . S
H922 C930 0.930 . S
H923 C931 0.930 . S
H924 C934 0.930 . S
H925 C935 0.930 . S
C926 H920 0.930 . S
C926 C927 1.355 . S
C926 C928 1.415 . S
C927 C926 1.355 . S
C927 C929 1.419 . S
C928 C926 1.415 . S
C928 C933 1.425 . S
C928 C935 1.409 . S
C929 H921 0.930 . S
C929 C927 1.419 . S
C929 C930 1.362 . S
C930 H922 0.930 . S
C930 C929 1.362 . S
C930 C933 1.409 . S
C931 H923 0.930 . S
C931 C932 1.355 . S
C931 C933 1.415 . S
C932 C931 1.355 . S
C932 C934 1.419 . S
C933 C928 1.425 . S
C933 C930 1.409 . S
C933 C931 1.415 . S
C934 H924 0.930 . S
C934 C932 1.419 . S
C934 C935 1.362 . S
C935 H925 0.930 . S
C935 C928 1.409 . S
C935 C934 1.362 . S
H936 C942 0.930 1_655 S
H937 C945 0.930 . S
H938 C946 0.930 . S
H939 C947 0.930 . S
H940 C950 0.930 . S
H941 C951 0.930 . S
C942 H936 0.930 1_455 S
C942 C943 1.355 . S
C942 C944 1.415 . S
C943 C942 1.355 . S
C943 C945 1.419 . S
C944 C942 1.415 . S
C944 C949 1.425 . S
C944 C951 1.409 . S
C945 H937 0.930 . S
C945 C943 1.419 . S
C945 C946 1.362 . S
C946 H938 0.930 . S
C946 C945 1.362 . S
C946 C949 1.409 . S
C947 H939 0.930 . S
C947 C948 1.355 . S
C947 C949 1.415 . S
C948 C947 1.355 . S
C948 C950 1.419 . S
C949 C944 1.425 . S
C949 C946 1.409 . S
C949 C947 1.415 . S
C950 H940 0.930 . S
C950 C948 1.419 . S
C950 C951 1.362 . S
C951 H941 0.930 . S
C951 C944 1.409 . S
C951 C950 1.362 . S
H952 C958 0.930 . S
H953 C961 0.930 . S
H954 C962 0.930 . S
H955 C963 0.930 . S
H956 C966 0.930 . S
H957 C967 0.930 . S
C958 H952 0.930 . S
C958 C959 1.355 . S
C958 C960 1.415 . S
C959 C958 1.355 . S
C959 C961 1.419 . S
C960 C958 1.415 . S
C960 C965 1.425 . S
C960 C967 1.409 . S
C961 H953 0.930 . S
C961 C959 1.419 . S
C961 C962 1.362 . S
C962 H954 0.930 . S
C962 C961 1.362 . S
C962 C965 1.409 . S
C963 H955 0.930 . S
C963 C964 1.355 . S
C963 C965 1.415 . S
C964 C963 1.355 . S
C964 C966 1.419 . S
C965 C960 1.425 . S
C965 C962 1.409 . S
C965 C963 1.415 . S
C966 H956 0.930 . S
C966 C964 1.419 . S
C966 C967 1.362 . S
C967 H957 0.930 . S
C967 C960 1.409 . S
C967 C966 1.362 . S
H968 C974 0.930 . S
H969 C977 0.930 . S
H970 C978 0.930 1_545 S
H971 C979 0.930 . S
H972 C982 0.930 . S
H973 C983 0.930 . S
C974 H968 0.930 . S
C974 C975 1.355 . S
C974 C976 1.415 . S
C975 C974 1.355 . S
C975 C977 1.419 1_565 S
C976 C974 1.415 . S
C976 C981 1.425 . S
C976 C983 1.409 . S
C977 H969 0.930 . S
C977 C975 1.419 1_545 S
C977 C978 1.362 1_545 S
C978 H970 0.930 1_565 S
C978 C977 1.362 1_565 S
C978 C981 1.409 . S
C979 H971 0.930 . S
C979 C980 1.355 . S
C979 C981 1.415 . S
C980 C979 1.355 . S
C980 C982 1.419 . S
C981 C976 1.425 . S
C981 C978 1.409 . S
C981 C979 1.415 . S
C982 H972 0.930 . S
C982 C980 1.419 . S
C982 C983 1.362 . S
C983 H973 0.930 . S
C983 C976 1.409 . S
C983 C982 1.362 . S
H984 C990 0.930 . S
H985 C993 0.930 . S
H986 C994 0.930 . S
H987 C995 0.930 . S
H988 C998 0.930 . S
H989 C999 0.930 . S
C990 H984 0.930 . S
C990 C991 1.355 . S
C990 C992 1.415 . S
C991 C990 1.355 . S
C991 C993 1.419 . S
C992 C990 1.415 . S
C992 C997 1.425 . S
C992 C999 1.409 . S
C993 H985 0.930 . S
C993 C991 1.419 . S
C993 C994 1.362 . S
C994 H986 0.930 . S
C994 C993 1.362 . S
C994 C997 1.409 . S
C995 H987 0.930 . S
C995 C996 1.355 . S
C995 C997 1.415 . S
C996 C995 1.355 . S
C996 C998 1.419 . S
C997 C992 1.425 . S
C997 C994 1.409 . S
C997 C995 1.415 . S
C998 H988 0.930 . S
C998 C996 1.419 . S
C998 C999 1.362 . S
C999 H989 0.930 . S
C999 C992 1.409 . S
C999 C998 1.362 . S
H1000 C1006 0.930 . S
H1001 C1009 0.930 . S
H1002 C1010 0.930 . S
H1003 C1011 0.930 . S
H1004 C1014 0.930 . S
H1005 C1015 0.930 . S
C1006 H1000 0.930 . S
C1006 C1007 1.355 . S
C1006 C1008 1.415 . S
C1007 C1006 1.355 . S
C1007 C1009 1.419 . S
C1008 C1006 1.415 . S
C1008 C1013 1.425 1_545 S
C1008 C1015 1.409 . S
C1009 H1001 0.930 . S
C1009 C1007 1.419 . S
C1009 C1010 1.362 1_545 S
C1010 H1002 0.930 . S
C1010 C1009 1.362 1_565 S
C1010 C1013 1.409 . S
C1011 H1003 0.930 . S
C1011 C1012 1.355 . S
C1011 C1013 1.415 . S
C1012 C1011 1.355 . S
C1012 C1014 1.419 . S
C1013 C1008 1.425 1_565 S
C1013 C1010 1.409 . S
C1013 C1011 1.415 . S
C1014 H1004 0.930 . S
C1014 C1012 1.419 . S
C1014 C1015 1.362 1_565 S
C1015 H1005 0.930 . S
C1015 C1008 1.409 . S
C1015 C1014 1.362 1_545 S
H1016 C1022 0.930 . S
H1017 C1025 0.930 . S
H1018 C1026 0.930 . S
H1019 C1027 0.930 . S
H1020 C1030 0.930 . S
H1021 C1031 0.930 . S
C1022 H1016 0.930 . S
C1022 C1023 1.355 . S
C1022 C1024 1.415 . S
C1023 C1022 1.355 . S
C1023 C1025 1.419 . S
C1024 C1022 1.415 . S
C1024 C1029 1.425 1_655 S
C1024 C1031 1.409 1_655 S
C1025 H1017 0.930 . S
C1025 C1023 1.419 . S
C1025 C1026 1.362 . S
C1026 H1018 0.930 . S
C1026 C1025 1.362 . S
C1026 C1029 1.409 1_655 S
C1027 H1019 0.930 . S
C1027 C1028 1.355 . S
C1027 C1029 1.415 . S
C1028 C1027 1.355 . S
C1028 C1030 1.419 . S
C1029 C1024 1.425 1_455 S
C1029 C1026 1.409 1_455 S
C1029 C1027 1.415 . S
C1030 H1020 0.930 . S
C1030 C1028 1.419 . S
C1030 C1031 1.362 . S
C1031 H1021 0.930 . S
C1031 C1024 1.409 1_455 S
C1031 C1030 1.362 . S
H1032 C1038 0.930 . S
H1033 C1041 0.930 . S
H1034 C1042 0.930 . S
H1035 C1043 0.930 . S
H1036 C1046 0.930 . S
H1037 C1047 0.930 . S
C1038 H1032 0.930 . S
C1038 C1039 1.355 . S
C1038 C1040 1.415 . S
C1039 C1038 1.355 . S
C1039 C1041 1.419 . S
C1040 C1038 1.415 . S
C1040 C1045 1.425 . S
C1040 C1047 1.409 . S
C1041 H1033 0.930 . S
C1041 C1039 1.419 . S
C1041 C1042 1.362 . S
C1042 H1034 0.930 . S
C1042 C1041 1.362 . S
C1042 C1045 1.409 . S
C1043 H1035 0.930 . S
C1043 C1044 1.355 . S
C1043 C1045 1.415 . S
C1044 C1043 1.355 . S
C1044 C1046 1.419 . S
C1045 C1040 1.425 . S
C1045 C1042 1.409 . S
C1045 C1043 1.415 . S
C1046 H1036 0.930 . S
C1046 C1044 1.419 . S
C1046 C1047 1.362 . S
C1047 H1037 0.930 . S
C1047 C1040 1.409 . S
C1047 C1046 1.362 . S
H1048 C1054 0.930 . S
H1049 C1057 0.930 . S
H1050 C1058 0.930 . S
H1051 C1059 0.930 . S
H1052 C1062 0.930 . S
H1053 C1063 0.930 . S
C1054 H1048 0.930 . S
C1054 C1055 1.355 . S
C1054 C1056 1.415 . S
C1055 C1054 1.355 . S
C1055 C1057 1.419 . S
C1056 C1054 1.415 . S
C1056 C1061 1.425 1_565 S
C1056 C1063 1.409 1_565 S
C1057 H1049 0.930 . S
C1057 C1055 1.419 . S
C1057 C1058 1.362 . S
C1058 H1050 0.930 . S
C1058 C1057 1.362 . S
C1058 C1061 1.409 1_565 S
C1059 H1051 0.930 . S
C1059 C1060 1.355 . S
C1059 C1061 1.415 . S
C1060 C1059 1.355 . S
C1060 C1062 1.419 . S
C1061 C1056 1.425 1_545 S
C1061 C1058 1.409 1_545 S
C1061 C1059 1.415 . S
C1062 H1052 0.930 . S
C1062 C1060 1.419 . S
C1062 C1063 1.362 . S
C1063 H1053 0.930 . S
C1063 C1056 1.409 1_545 S
C1063 C1062 1.362 . S
H1064 C1070 0.930 . S
H1065 C1073 0.930 . S
H1066 C1074 0.930 . S
H1067 C1075 0.930 . S
H1068 C1078 0.930 . S
H1069 C1079 0.930 . S
C1070 H1064 0.930 . S
C1070 C1071 1.355 . S
C1070 C1072 1.415 1_655 S
C1071 C1070 1.355 . S
C1071 C1073 1.419 . S
C1072 C1070 1.415 1_455 S
C1072 C1077 1.425 1_455 S
C1072 C1079 1.409 . S
C1073 H1065 0.930 . S
C1073 C1071 1.419 . S
C1073 C1074 1.362 . S
C1074 H1066 0.930 . S
C1074 C1073 1.362 . S
C1074 C1077 1.409 . S
C1075 H1067 0.930 . S
C1075 C1076 1.355 . S
C1075 C1077 1.415 1_455 S
C1076 C1075 1.355 . S
C1076 C1078 1.419 . S
C1077 C1072 1.425 1_655 S
C1077 C1074 1.409 . S
C1077 C1075 1.415 1_655 S
C1078 H1068 0.930 . S
C1078 C1076 1.419 . S
C1078 C1079 1.362 . S
C1079 H1069 0.930 . S
C1079 C1072 1.409 . S
C1079 C1078 1.362 . S
H1080 C1086 0.930 . S
H1081 C1089 0.930 1_655 S
H1082 C1090 0.930 . S
H1083 C1091 0.930 . S
H1084 C1094 0.930 . S
H1085 C1095 0.930 . S
C1086 H1080 0.930 . S
C1086 C1087 1.355 . S
C1086 C1088 1.415 . S
C1087 C1086 1.355 . S
C1087 C1089 1.419 . S
C1088 C1086 1.415 . S
C1088 C1093 1.425 . S
C1088 C1095 1.409 . S
C1089 H1081 0.930 1_455 S
C1089 C1087 1.419 . S
C1089 C1090 1.362 . S
C1090 H1082 0.930 . S
C1090 C1089 1.362 . S
C1090 C1093 1.409 . S
C1091 H1083 0.930 . S
C1091 C1092 1.355 . S
C1091 C1093 1.415 . S
C1092 C1091 1.355 . S
C1092 C1094 1.419 . S
C1093 C1088 1.425 . S
C1093 C1090 1.409 . S
C1093 C1091 1.415 . S
C1094 H1084 0.930 . S
C1094 C1092 1.419 . S
C1094 C1095 1.362 . S
C1095 H1085 0.930 . S
C1095 C1088 1.409 . S
C1095 C1094 1.362 . S
H1096 C1102 0.930 . S
H1097 C1105 0.930 . S
H1098 C1106 0.913 1_565 S
H1099 C1107 0.930 . S
H1100 C1110 0.930 . S
H1101 C1111 0.930 . S
C1102 H1096 0.930 . S
C1102 C1103 1.355 . S
C1102 C1104 1.415 1_545 S
C1103 C1102 1.355 . S
C1103 C1105 1.419 . S
C1104 C1102 1.415 1_565 S
C1104 C1109 1.425 . S
C1104 C1111 1.409 . S
C1105 H1097 0.930 . S
C1105 C1103 1.419 . S
C1105 C1106 1.362 . S
C1106 H1098 0.913 1_545 S
C1106 C1105 1.362 . S
C1106 C1109 1.409 1_545 S
C1107 H1099 0.930 . S
C1107 C1108 1.355 . S
C1107 C1109 1.415 . S
C1108 C1107 1.355 . S
C1108 C1110 1.419 . S
C1109 C1104 1.425 . S
C1109 C1106 1.409 1_565 S
C1109 C1107 1.415 . S
C1110 H1100 0.930 . S
C1110 C1108 1.419 . S
C1110 C1111 1.362 . S
C1111 H1101 0.930 . S
C1111 C1104 1.409 . S
C1111 C1110 1.362 . S
H1112 C1118 0.930 . S
H1113 C1121 0.930 . S
H1114 C1122 0.930 1_455 S
H1115 C1123 0.930 . S
H1116 C1126 0.930 . S
H1117 C1127 0.930 . S
C1118 H1112 0.930 . S
C1118 C1119 1.355 . S
C1118 C1120 1.415 1_655 S
C1119 C1118 1.355 . S
C1119 C1121 1.419 . S
C1120 C1118 1.415 1_455 S
C1120 C1125 1.425 . S
C1120 C1127 1.409 . S
C1121 H1113 0.930 . S
C1121 C1119 1.419 . S
C1121 C1122 1.362 . S
C1122 H1114 0.930 1_655 S
C1122 C1121 1.362 . S
C1122 C1125 1.409 1_655 S
C1123 H1115 0.930 . S
C1123 C1124 1.355 . S
C1123 C1125 1.415 . S
C1124 C1123 1.355 . S
C1124 C1126 1.419 . S
C1125 C1120 1.425 . S
C1125 C1122 1.409 1_455 S
C1125 C1123 1.415 . S
C1126 H1116 0.930 . S
C1126 C1124 1.419 . S
C1126 C1127 1.362 . S
C1127 H1117 0.930 . S
C1127 C1120 1.409 . S
C1127 C1126 1.362 . S
H1128 C1134 0.930 . S
H1129 C1137 0.930 . S
H1130 C1138 0.930 . S
H1131 C1139 0.930 . S
H1132 C1142 0.930 . S
H1133 C1143 0.930 . S
C1134 H1128 0.930 . S
C1134 C1135 1.355 . S
C1134 C1136 1.415 . S
C1135 C1134 1.355 . S
C1135 C1137 1.419 . S
C1136 C1134 1.415 . S
C1136 C1141 1.425 . S
C1136 C1143 1.409 . S
C1137 H1129 0.930 . S
C1137 C1135 1.419 . S
C1137 C1138 1.362 . S
C1138 H1130 0.930 . S
C1138 C1137 1.362 . S
C1138 C1141 1.409 . S
C1139 H1131 0.930 . S
C1139 C1140 1.355 . S
C1139 C1141 1.415 . S
C1140 C1139 1.355 . S
C1140 C1142 1.419 . S
C1141 C1136 1.425 . S
C1141 C1138 1.409 . S
C1141 C1139 1.415 . S
C1142 H1132 0.930 . S
C1142 C1140 1.419 . S
C1142 C1143 1.362 . S
C1143 H1133 0.930 . S
C1143 C1136 1.409 . S
C1143 C1142 1.362 . S
H1144 C1150 0.930 . S
H1145 C1153 0.930 . S
H1146 C1154 0.930 . S
H1147 C1155 0.930 . S
H1148 C1158 0.930 . S
H1149 C1159 0.930 . S
C1150 H1144 0.930 . S
C1150 C1151 1.355 . S
C1150 C1152 1.415 . S
C1151 C1150 1.355 . S
C1151 C1153 1.419 . S
C1152 C1150 1.415 . S
C1152 C1157 1.425 . S
C1152 C1159 1.409 1_545 S
C1153 H1145 0.930 . S
C1153 C1151 1.419 . S
C1153 C1154 1.362 . S
C1154 H1146 0.930 . S
C1154 C1153 1.362 . S
C1154 C1157 1.409 . S
C1155 H1147 0.930 . S
C1155 C1156 1.355 . S
C1155 C1157 1.415 1_565 S
C1156 C1155 1.355 . S
C1156 C1158 1.419 . S
C1157 C1152 1.425 . S
C1157 C1154 1.409 . S
C1157 C1155 1.415 1_545 S
C1158 H1148 0.930 . S
C1158 C1156 1.419 . S
C1158 C1159 1.362 . S
C1159 H1149 0.930 . S
C1159 C1152 1.409 1_565 S
C1159 C1158 1.362 . S
H1160 C1166 0.930 . S
H1161 C1169 0.930 . S
H1162 C1170 0.930 . S
H1163 C1171 0.930 . S
H1164 C1174 0.930 . S
H1165 C1175 0.930 . S
C1166 H1160 0.930 . S
C1166 C1167 1.355 . S
C1166 C1168 1.415 1_455 S
C1167 C1166 1.355 . S
C1167 C1169 1.419 . S
C1168 C1166 1.415 1_655 S
C1168 C1173 1.425 . S
C1168 C1175 1.409 . S
C1169 H1161 0.930 . S
C1169 C1167 1.419 . S
C1169 C1170 1.362 1_455 S
C1170 H1162 0.930 . S
C1170 C1169 1.362 1_655 S
C1170 C1173 1.409 . S
C1171 H1163 0.930 . S
C1171 C1172 1.355 . S
C1171 C1173 1.415 . S
C1172 C1171 1.355 . S
C1172 C1174 1.419 . S
C1173 C1168 1.425 . S
C1173 C1170 1.409 . S
C1173 C1171 1.415 . S
C1174 H1164 0.930 . S
C1174 C1172 1.419 . S
C1174 C1175 1.362 . S
C1175 H1165 0.930 . S
C1175 C1168 1.409 . S
C1175 C1174 1.362 . S
H1176 C1182 0.930 . S
H1177 C1185 0.930 . S
H1178 C1186 0.930 . S
H1179 C1187 0.930 . S
H1180 C1190 0.930 . S
H1181 C1191 0.930 . S
C1182 H1176 0.930 . S
C1182 C1183 1.355 . S
C1182 C1184 1.415 . S
C1183 C1182 1.355 . S
C1183 C1185 1.419 . S
C1184 C1182 1.415 . S
C1184 C1189 1.425 . S
C1184 C1191 1.409 . S
C1185 H1177 0.930 . S
C1185 C1183 1.419 . S
C1185 C1186 1.362 . S
C1186 H1178 0.930 . S
C1186 C1185 1.362 . S
C1186 C1189 1.409 . S
C1187 H1179 0.930 . S
C1187 C1188 1.355 . S
C1187 C1189 1.415 . S
C1188 C1187 1.355 . S
C1188 C1190 1.419 . S
C1189 C1184 1.425 . S
C1189 C1186 1.409 . S
C1189 C1187 1.415 . S
C1190 H1180 0.930 . S
C1190 C1188 1.419 . S
C1190 C1191 1.362 . S
C1191 H1181 0.930 . S
C1191 C1184 1.409 . S
C1191 C1190 1.362 . S
H1192 C1198 0.930 . S
H1193 C1201 0.930 . S
H1194 C1202 0.930 1_545 S
H1195 C1203 0.930 . S
H1196 C1206 0.930 . S
H1197 C1207 0.930 . S
C1198 H1192 0.930 . S
C1198 C1199 1.355 . S
C1198 C1200 1.415 1_565 S
C1199 C1198 1.355 . S
C1199 C1201 1.419 . S
C1200 C1198 1.415 1_545 S
C1200 C1205 1.425 . S
C1200 C1207 1.409 . S
C1201 H1193 0.930 . S
C1201 C1199 1.419 . S
C1201 C1202 1.362 . S
C1202 H1194 0.930 1_565 S
C1202 C1201 1.362 . S
C1202 C1205 1.409 1_565 S
C1203 H1195 0.930 . S
C1203 C1204 1.355 . S
C1203 C1205 1.415 . S
C1204 C1203 1.355 . S
C1204 C1206 1.419 . S
C1205 C1200 1.425 . S
C1205 C1202 1.409 1_545 S
C1205 C1203 1.415 . S
C1206 H1196 0.930 . S
C1206 C1204 1.419 . S
C1206 C1207 1.362 . S
C1207 H1197 0.930 . S
C1207 C1200 1.409 . S
C1207 C1206 1.362 . S
H1208 C1214 0.930 . S
H1209 C1217 0.930 . S
H1210 C1218 0.930 . S
H1211 C1219 0.930 . S
H1212 C1222 0.947 . S
H1213 C1223 0.930 . S
C1214 H1208 0.930 . S
C1214 C1215 1.355 . S
C1214 C1216 1.415 1_455 S
C1215 C1214 1.355 . S
C1215 C1217 1.419 . S
C1216 C1214 1.415 1_655 S
C1216 C1221 1.425 . S
C1216 C1223 1.409 . S
C1217 H1209 0.930 . S
C1217 C1215 1.419 . S
C1217 C1218 1.362 1_455 S
C1218 H1210 0.930 . S
C1218 C1217 1.362 1_655 S
C1218 C1221 1.409 . S
C1219 H1211 0.930 . S
C1219 C1220 1.355 . S
C1219 C1221 1.415 . S
C1220 C1219 1.355 . S
C1220 C1222 1.419 . S
C1221 C1216 1.425 . S
C1221 C1218 1.409 . S
C1221 C1219 1.415 . S
C1222 H1212 0.947 . S
C1222 C1220 1.419 . S
C1222 C1223 1.362 . S
C1223 H1213 0.930 . S
C1223 C1216 1.409 . S
C1223 C1222 1.362 . S
H1224 C1230 0.930 . S
H1225 C1233 0.930 . S
H1226 C1234 0.930 . S
H1227 C1235 0.930 . S
H1228 C1238 0.930 . S
H1229 C1239 0.930 . S
C1230 H1224 0.930 . S
C1230 C1231 1.355 . S
C1230 C1232 1.415 . S
C1231 C1230 1.355 . S
C1231 C1233 1.419 . S
C1232 C1230 1.415 . S
C1232 C1237 1.425 . S
C1232 C1239 1.409 . S
C1233 H1225 0.930 . S
C1233 C1231 1.419 . S
C1233 C1234 1.362 . S
C1234 H1226 0.930 . S
C1234 C1233 1.362 . S
C1234 C1237 1.409 . S
C1235 H1227 0.930 . S
C1235 C1236 1.355 . S
C1235 C1237 1.415 . S
C1236 C1235 1.355 . S
C1236 C1238 1.419 . S
C1237 C1232 1.425 . S
C1237 C1234 1.409 . S
C1237 C1235 1.415 . S
C1238 H1228 0.930 . S
C1238 C1236 1.419 . S
C1238 C1239 1.362 . S
C1239 H1229 0.930 . S
C1239 C1232 1.409 . S
C1239 C1238 1.362 . S
H1240 C1246 0.930 . S
H1241 C1249 0.930 . S
H1242 C1250 0.930 . S
H1243 C1251 0.930 . S
H1244 C1254 0.930 1_655 S
H1245 C1255 0.930 . S
C1246 H1240 0.930 . S
C1246 C1247 1.355 . S
C1246 C1248 1.415 1_545 S
C1247 C1246 1.355 . S
C1247 C1249 1.419 . S
C1248 C1246 1.415 1_565 S
C1248 C1253 1.425 . S
C1248 C1255 1.409 . S
C1249 H1241 0.930 . S
C1249 C1247 1.419 . S
C1249 C1250 1.362 1_545 S
C1250 H1242 0.930 . S
C1250 C1249 1.362 1_565 S
C1250 C1253 1.409 . S
C1251 H1243 0.930 . S
C1251 C1252 1.355 . S
C1251 C1253 1.415 . S
C1252 C1251 1.355 . S
C1252 C1254 1.419 . S
C1253 C1248 1.425 . S
C1253 C1250 1.409 . S
C1253 C1251 1.415 . S
C1254 H1244 0.930 1_455 S
C1254 C1252 1.419 . S
C1254 C1255 1.362 . S
C1255 H1245 0.930 . S
C1255 C1248 1.409 . S
C1255 C1254 1.362 . S
H1256 C1262 0.930 . S
H1257 C1265 0.930 . S
H1258 C1266 0.930 . S
H1259 C1267 0.930 . S
H1260 C1270 0.930 . S
H1261 C1271 0.930 1_455 S
C1262 H1256 0.930 . S
C1262 C1263 1.355 . S
C1262 C1264 1.415 . S
C1263 C1262 1.355 . S
C1263 C1265 1.419 . S
C1264 C1262 1.415 . S
C1264 C1269 1.425 . S
C1264 C1271 1.409 1_455 S
C1265 H1257 0.930 . S
C1265 C1263 1.419 . S
C1265 C1266 1.362 . S
C1266 H1258 0.930 . S
C1266 C1265 1.362 . S
C1266 C1269 1.409 . S
C1267 H1259 0.930 . S
C1267 C1268 1.355 . S
C1267 C1269 1.415 1_655 S
C1268 C1267 1.355 . S
C1268 C1270 1.419 . S
C1269 C1264 1.425 . S
C1269 C1266 1.409 . S
C1269 C1267 1.415 1_455 S
C1270 H1260 0.930 . S
C1270 C1268 1.419 . S
C1270 C1271 1.362 . S
C1271 H1261 0.930 1_655 S
C1271 C1264 1.409 1_655 S
C1271 C1270 1.362 . S
H1272 C1278 0.930 . S
H1273 C1281 0.930 . S
H1274 C1282 0.930 . S
H1275 C1283 0.930 . S
H1276 C1286 0.930 . S
H1277 C1287 0.930 . S
C1278 H1272 0.930 . S
C1278 C1279 1.355 . S
C1278 C1280 1.415 . S
C1279 C1278 1.355 . S
C1279 C1281 1.419 . S
C1280 C1278 1.415 . S
C1280 C1285 1.425 . S
C1280 C1287 1.409 . S
C1281 H1273 0.930 . S
C1281 C1279 1.419 . S
C1281 C1282 1.362 . S
C1282 H1274 0.930 . S
C1282 C1281 1.362 . S
C1282 C1285 1.409 . S
C1283 H1275 0.930 . S
C1283 C1284 1.355 . S
C1283 C1285 1.415 . S
C1284 C1283 1.355 . S
C1284 C1286 1.419 . S
C1285 C1280 1.425 . S
C1285 C1282 1.409 . S
C1285 C1283 1.415 . S
C1286 H1276 0.930 . S
C1286 C1284 1.419 . S
C1286 C1287 1.362 . S
C1287 H1277 0.930 . S
C1287 C1280 1.409 . S
C1287 C1286 1.362 . S
H1288 C1294 0.930 . S
H1289 C1297 0.930 . S
H1290 C1298 0.930 . S
H1291 C1299 0.930 . S
H1292 C1302 0.930 . S
H1293 C1303 0.930 . S
C1294 H1288 0.930 . S
C1294 C1295 1.355 . S
C1294 C1296 1.415 . S
C1295 C1294 1.355 . S
C1295 C1297 1.419 . S
C1296 C1294 1.415 . S
C1296 C1301 1.425 . S
C1296 C1303 1.409 . S
C1297 H1289 0.930 . S
C1297 C1295 1.419 . S
C1297 C1298 1.362 . S
C1298 H1290 0.930 . S
C1298 C1297 1.362 . S
C1298 C1301 1.409 . S
C1299 H1291 0.930 . S
C1299 C1300 1.355 . S
C1299 C1301 1.415 . S
C1300 C1299 1.355 . S
C1300 C1302 1.419 . S
C1301 C1296 1.425 . S
C1301 C1298 1.409 . S
C1301 C1299 1.415 . S
C1302 H1292 0.930 . S
C1302 C1300 1.419 . S
C1302 C1303 1.362 . S
C1303 H1293 0.930 . S
C1303 C1296 1.409 . S
C1303 C1302 1.362 . S
H1304 C1310 0.930 . S
H1305 C1313 0.930 . S
H1306 C1314 0.930 . S
H1307 C1315 0.930 . S
H1308 C1318 0.930 . S
H1309 C1319 0.930 . S
C1310 H1304 0.930 . S
C1310 C1311 1.355 . S
C1310 C1312 1.415 . S
C1311 C1310 1.355 . S
C1311 C1313 1.419 . S
C1312 C1310 1.415 . S
C1312 C1317 1.425 . S
C1312 C1319 1.409 . S
C1313 H1305 0.930 . S
C1313 C1311 1.419 . S
C1313 C1314 1.362 . S
C1314 H1306 0.930 . S
C1314 C1313 1.362 . S
C1314 C1317 1.409 . S
C1315 H1307 0.930 . S
C1315 C1316 1.355 . S
C1315 C1317 1.415 . S
C1316 C1315 1.355 . S
C1316 C1318 1.419 . S
C1317 C1312 1.425 . S
C1317 C1314 1.409 . S
C1317 C1315 1.415 . S
C1318 H1308 0.930 . S
C1318 C1316 1.419 . S
C1318 C1319 1.362 . S
C1319 H1309 0.930 . S
C1319 C1312 1.409 . S
C1319 C1318 1.362 . S
H1320 C1326 0.930 . S
H1321 C1329 0.930 . S
H1322 C1330 0.930 . S
H1323 C1331 0.930 . S
H1324 C1334 0.930 . S
H1325 C1335 0.930 . S
C1326 H1320 0.930 . S
C1326 C1327 1.355 . S
C1326 C1328 1.415 . S
C1327 C1326 1.355 . S
C1327 C1329 1.419 . S
C1328 C1326 1.415 . S
C1328 C1333 1.425 . S
C1328 C1335 1.409 . S
C1329 H1321 0.930 . S
C1329 C1327 1.419 . S
C1329 C1330 1.362 . S
C1330 H1322 0.930 . S
C1330 C1329 1.362 . S
C1330 C1333 1.409 . S
C1331 H1323 0.930 . S
C1331 C1332 1.355 . S
C1331 C1333 1.415 . S
C1332 C1331 1.355 . S
C1332 C1334 1.419 . S
C1333 C1328 1.425 . S
C1333 C1330 1.409 . S
C1333 C1331 1.415 . S
C1334 H1324 0.930 . S
C1334 C1332 1.419 . S
C1334 C1335 1.362 . S
C1335 H1325 0.930 . S
C1335 C1328 1.409 . S
C1335 C1334 1.362 . S
H1336 C1342 0.930 . S
H1337 C1345 0.930 . S
H1338 C1346 0.930 . S
H1339 C1347 0.930 . S
H1340 C1350 0.930 . S
H1341 C1351 0.930 . S
C1342 H1336 0.930 . S
C1342 C1343 1.355 . S
C1342 C1344 1.415 . S
C1343 C1342 1.355 . S
C1343 C1345 1.419 . S
C1344 C1342 1.415 . S
C1344 C1349 1.425 . S
C1344 C1351 1.409 . S
C1345 H1337 0.930 . S
C1345 C1343 1.419 . S
C1345 C1346 1.362 . S
C1346 H1338 0.930 . S
C1346 C1345 1.362 . S
C1346 C1349 1.409 . S
C1347 H1339 0.930 . S
C1347 C1348 1.355 . S
C1347 C1349 1.415 . S
C1348 C1347 1.355 . S
C1348 C1350 1.419 . S
C1349 C1344 1.425 . S
C1349 C1346 1.409 . S
C1349 C1347 1.415 . S
C1350 H1340 0.930 . S
C1350 C1348 1.419 . S
C1350 C1351 1.362 . S
C1351 H1341 0.930 . S
C1351 C1344 1.409 . S
C1351 C1350 1.362 . S
H1352 C1358 0.930 . S
H1353 C1361 0.930 . S
H1354 C1362 0.930 . S
H1355 C1363 0.930 . S
H1356 C1366 0.930 . S
H1357 C1367 0.930 . S
C1358 H1352 0.930 . S
C1358 C1359 1.355 . S
C1358 C1360 1.415 . S
C1359 C1358 1.355 . S
C1359 C1361 1.419 . S
C1360 C1358 1.415 . S
C1360 C1365 1.425 . S
C1360 C1367 1.409 . S
C1361 H1353 0.930 . S
C1361 C1359 1.419 . S
C1361 C1362 1.362 . S
C1362 H1354 0.930 . S
C1362 C1361 1.362 . S
C1362 C1365 1.409 . S
C1363 H1355 0.930 . S
C1363 C1364 1.355 . S
C1363 C1365 1.415 . S
C1364 C1363 1.355 . S
C1364 C1366 1.419 . S
C1365 C1360 1.425 . S
C1365 C1362 1.409 . S
C1365 C1363 1.415 . S
C1366 H1356 0.930 . S
C1366 C1364 1.419 . S
C1366 C1367 1.362 . S
C1367 H1357 0.930 . S
C1367 C1360 1.409 . S
C1367 C1366 1.362 . S
H1368 C1374 0.930 . S
H1369 C1377 0.930 . S
H1370 C1378 0.930 . S
H1371 C1379 0.930 . S
H1372 C1382 0.930 . S
H1373 C1383 0.930 . S
C1374 H1368 0.930 . S
C1374 C1375 1.355 . S
C1374 C1376 1.415 . S
C1375 C1374 1.355 . S
C1375 C1377 1.419 . S
C1376 C1374 1.415 . S
C1376 C1381 1.425 . S
C1376 C1383 1.409 . S
C1377 H1369 0.930 . S
C1377 C1375 1.419 . S
C1377 C1378 1.362 . S
C1378 H1370 0.930 . S
C1378 C1377 1.362 . S
C1378 C1381 1.409 . S
C1379 H1371 0.930 . S
C1379 C1380 1.355 . S
C1379 C1381 1.415 . S
C1380 C1379 1.355 . S
C1380 C1382 1.419 . S
C1381 C1376 1.425 . S
C1381 C1378 1.409 . S
C1381 C1379 1.415 . S
C1382 H1372 0.930 . S
C1382 C1380 1.419 . S
C1382 C1383 1.362 . S
C1383 H1373 0.930 . S
C1383 C1376 1.409 . S
C1383 C1382 1.362 . S
H1384 C1390 0.930 . S
H1385 C1393 0.930 . S
H1386 C1394 0.930 . S
H1387 C1395 0.930 . S
H1388 C1398 0.930 . S
H1389 C1399 0.930 . S
C1390 H1384 0.930 . S
C1390 C1391 1.355 . S
C1390 C1392 1.415 . S
C1391 C1390 1.355 . S
C1391 C1393 1.419 . S
C1392 C1390 1.415 . S
C1392 C1397 1.425 . S
C1392 C1399 1.409 . S
C1393 H1385 0.930 . S
C1393 C1391 1.419 . S
C1393 C1394 1.362 . S
C1394 H1386 0.930 . S
C1394 C1393 1.362 . S
C1394 C1397 1.409 . S
C1395 H1387 0.930 . S
C1395 C1396 1.355 . S
C1395 C1397 1.415 . S
C1396 C1395 1.355 . S
C1396 C1398 1.419 . S
C1397 C1392 1.425 . S
C1397 C1394 1.409 . S
C1397 C1395 1.415 . S
C1398 H1388 0.930 . S
C1398 C1396 1.419 . S
C1398 C1399 1.362 . S
C1399 H1389 0.930 . S
C1399 C1392 1.409 . S
C1399 C1398 1.362 . S
H1400 C1406 0.930 . S
H1401 C1409 0.930 . S
H1402 C1410 0.930 . S
H1403 C1411 0.930 . S
H1404 C1414 0.930 . S
H1405 C1415 0.930 . S
C1406 H1400 0.930 . S
C1406 C1407 1.355 . S
C1406 C1408 1.415 . S
C1407 C1406 1.355 . S
C1407 C1409 1.419 . S
C1408 C1406 1.415 . S
C1408 C1413 1.425 . S
C1408 C1415 1.409 . S
C1409 H1401 0.930 . S
C1409 C1407 1.419 . S
C1409 C1410 1.362 . S
C1410 H1402 0.930 . S
C1410 C1409 1.362 . S
C1410 C1413 1.409 . S
C1411 H1403 0.930 . S
C1411 C1412 1.355 . S
C1411 C1413 1.415 . S
C1412 C1411 1.355 . S
C1412 C1414 1.419 . S
C1413 C1408 1.425 . S
C1413 C1410 1.409 . S
C1413 C1411 1.415 . S
C1414 H1404 0.930 . S
C1414 C1412 1.419 . S
C1414 C1415 1.362 . S
C1415 H1405 0.930 . S
C1415 C1408 1.409 . S
C1415 C1414 1.362 . S
H1416 C1422 0.930 . S
H1417 C1425 0.930 . S
H1418 C1426 0.930 . S
H1419 C1427 0.930 . S
H1420 C1430 0.930 . S
H1421 C1431 0.930 . S
C1422 H1416 0.930 . S
C1422 C1423 1.355 . S
C1422 C1424 1.415 . S
C1423 C1422 1.355 . S
C1423 C1425 1.419 . S
C1424 C1422 1.415 . S
C1424 C1429 1.425 . S
C1424 C1431 1.409 . S
C1425 H1417 0.930 . S
C1425 C1423 1.419 . S
C1425 C1426 1.362 . S
C1426 H1418 0.930 . S
C1426 C1425 1.362 . S
C1426 C1429 1.409 . S
C1427 H1419 0.930 . S
C1427 C1428 1.355 . S
C1427 C1429 1.415 . S
C1428 C1427 1.355 . S
C1428 C1430 1.419 . S
C1429 C1424 1.425 . S
C1429 C1426 1.409 . S
C1429 C1427 1.415 . S
C1430 H1420 0.930 . S
C1430 C1428 1.419 . S
C1430 C1431 1.362 . S
C1431 H1421 0.930 . S
C1431 C1424 1.409 . S
C1431 C1430 1.362 . S
H1432 C1438 0.930 . S
H1433 C1441 0.930 . S
H1434 C1442 0.930 . S
H1435 C1443 0.930 . S
H1436 C1446 0.930 . S
H1437 C1447 0.930 . S
C1438 H1432 0.930 . S
C1438 C1439 1.355 . S
C1438 C1440 1.415 . S
C1439 C1438 1.355 . S
C1439 C1441 1.419 . S
C1440 C1438 1.415 . S
C1440 C1445 1.425 . S
C1440 C1447 1.409 . S
C1441 H1433 0.930 . S
C1441 C1439 1.419 . S
C1441 C1442 1.362 . S
C1442 H1434 0.930 . S
C1442 C1441 1.362 . S
C1442 C1445 1.409 . S
C1443 H1435 0.930 . S
C1443 C1444 1.355 . S
C1443 C1445 1.415 . S
C1444 C1443 1.355 . S
C1444 C1446 1.419 . S
C1445 C1440 1.425 . S
C1445 C1442 1.409 . S
C1445 C1443 1.415 . S
C1446 H1436 0.930 . S
C1446 C1444 1.419 . S
C1446 C1447 1.362 . S
C1447 H1437 0.930 . S
C1447 C1440 1.409 . S
C1447 C1446 1.362 . S
H1448 C1454 0.930 . S
H1449 C1457 0.930 . S
H1450 C1458 0.930 . S
H1451 C1459 0.930 . S
H1452 C1462 0.930 . S
H1453 C1463 0.930 . S
C1454 H1448 0.930 . S
C1454 C1455 1.355 . S
C1454 C1456 1.415 . S
C1455 C1454 1.355 . S
C1455 C1457 1.419 . S
C1456 C1454 1.415 . S
C1456 C1461 1.425 . S
C1456 C1463 1.409 . S
C1457 H1449 0.930 . S
C1457 C1455 1.419 . S
C1457 C1458 1.362 . S
C1458 H1450 0.930 . S
C1458 C1457 1.362 . S
C1458 C1461 1.409 . S
C1459 H1451 0.930 . S
C1459 C1460 1.355 . S
C1459 C1461 1.415 . S
C1460 C1459 1.355 . S
C1460 C1462 1.419 . S
C1461 C1456 1.425 . S
C1461 C1458 1.409 . S
C1461 C1459 1.415 . S
C1462 H1452 0.930 . S
C1462 C1460 1.419 . S
C1462 C1463 1.362 . S
C1463 H1453 0.930 . S
C1463 C1456 1.409 . S
C1463 C1462 1.362 . S
H1464 C1470 0.930 . S
H1465 C1473 0.930 . S
H1466 C1474 0.930 . S
H1467 C1475 0.930 . S
H1468 C1478 0.930 . S
H1469 C1479 0.930 . S
C1470 H1464 0.930 . S
C1470 C1471 1.355 . S
C1470 C1472 1.415 . S
C1471 C1470 1.355 . S
C1471 C1473 1.419 . S
C1472 C1470 1.415 . S
C1472 C1477 1.425 . S
C1472 C1479 1.409 . S
C1473 H1465 0.930 . S
C1473 C1471 1.419 . S
C1473 C1474 1.362 . S
C1474 H1466 0.930 . S
C1474 C1473 1.362 . S
C1474 C1477 1.409 . S
C1475 H1467 0.930 . S
C1475 C1476 1.355 . S
C1475 C1477 1.415 . S
C1476 C1475 1.355 . S
C1476 C1478 1.419 . S
C1477 C1472 1.425 . S
C1477 C1474 1.409 . S
C1477 C1475 1.415 . S
C1478 H1468 0.930 . S
C1478 C1476 1.419 . S
C1478 C1479 1.362 . S
C1479 H1469 0.930 . S
C1479 C1472 1.409 . S
C1479 C1478 1.362 . S
H1480 C1486 0.930 . S
H1481 C1489 0.930 . S
H1482 C1490 0.930 . S
H1483 C1491 0.930 . S
H1484 C1494 0.930 . S
H1485 C1495 0.930 . S
C1486 H1480 0.930 . S
C1486 C1487 1.355 . S
C1486 C1488 1.415 . S
C1487 C1486 1.355 . S
C1487 C1489 1.419 . S
C1488 C1486 1.415 . S
C1488 C1493 1.425 . S
C1488 C1495 1.409 . S
C1489 H1481 0.930 . S
C1489 C1487 1.419 . S
C1489 C1490 1.362 . S
C1490 H1482 0.930 . S
C1490 C1489 1.362 . S
C1490 C1493 1.409 . S
C1491 H1483 0.930 . S
C1491 C1492 1.355 . S
C1491 C1493 1.415 . S
C1492 C1491 1.355 . S
C1492 C1494 1.419 . S
C1493 C1488 1.425 . S
C1493 C1490 1.409 . S
C1493 C1491 1.415 . S
C1494 H1484 0.930 . S
C1494 C1492 1.419 . S
C1494 C1495 1.362 . S
C1495 H1485 0.930 . S
C1495 C1488 1.409 . S
C1495 C1494 1.362 . S
H1496 C1502 0.930 . S
H1497 C1505 0.930 . S
H1498 C1506 0.930 . S
H1499 C1507 0.930 . S
H1500 C1510 0.930 . S
H1501 C1511 0.930 . S
C1502 H1496 0.930 . S
C1502 C1503 1.355 . S
C1502 C1504 1.415 . S
C1503 C1502 1.355 . S
C1503 C1505 1.419 . S
C1504 C1502 1.415 . S
C1504 C1509 1.425 . S
C1504 C1511 1.409 . S
C1505 H1497 0.930 . S
C1505 C1503 1.419 . S
C1505 C1506 1.362 . S
C1506 H1498 0.930 . S
C1506 C1505 1.362 . S
C1506 C1509 1.409 . S
C1507 H1499 0.930 . S
C1507 C1508 1.355 . S
C1507 C1509 1.415 . S
C1508 C1507 1.355 . S
C1508 C1510 1.419 . S
C1509 C1504 1.425 . S
C1509 C1506 1.409 . S
C1509 C1507 1.415 . S
C1510 H1500 0.930 . S
C1510 C1508 1.419 . S
C1510 C1511 1.362 . S
C1511 H1501 0.930 . S
C1511 C1504 1.409 . S
C1511 C1510 1.362 . S
H1512 C1518 0.930 . S
H1513 C1521 0.930 . S
H1514 C1522 0.930 . S
H1515 C1523 0.930 . S
H1516 C1526 0.930 . S
H1517 C1527 0.930 . S
C1518 H1512 0.930 . S
C1518 C1519 1.355 . S
C1518 C1520 1.415 . S
C1519 C1518 1.355 . S
C1519 C1521 1.419 . S
C1520 C1518 1.415 . S
C1520 C1525 1.425 . S
C1520 C1527 1.409 . S
C1521 H1513 0.930 . S
C1521 C1519 1.419 . S
C1521 C1522 1.362 . S
C1522 H1514 0.930 . S
C1522 C1521 1.362 . S
C1522 C1525 1.409 . S
C1523 H1515 0.930 . S
C1523 C1524 1.355 . S
C1523 C1525 1.415 . S
C1524 C1523 1.355 . S
C1524 C1526 1.419 . S
C1525 C1520 1.425 . S
C1525 C1522 1.409 . S
C1525 C1523 1.415 . S
C1526 H1516 0.930 . S
C1526 C1524 1.419 . S
C1526 C1527 1.362 . S
C1527 H1517 0.930 . S
C1527 C1520 1.409 . S
C1527 C1526 1.362 . S
H1528 C1534 0.930 . S
H1529 C1537 0.930 . S
H1530 C1538 0.930 . S
H1531 C1539 0.930 . S
H1532 C1542 0.930 . S
H1533 C1543 0.930 . S
C1534 H1528 0.930 . S
C1534 C1535 1.355 . S
C1534 C1536 1.415 . S
C1535 C1534 1.355 . S
C1535 C1537 1.419 . S
C1536 C1534 1.415 . S
C1536 C1541 1.425 . S
C1536 C1543 1.409 . S
C1537 H1529 0.930 . S
C1537 C1535 1.419 . S
C1537 C1538 1.362 . S
C1538 H1530 0.930 . S
C1538 C1537 1.362 . S
C1538 C1541 1.409 . S
C1539 H1531 0.930 . S
C1539 C1540 1.355 . S
C1539 C1541 1.415 . S
C1540 C1539 1.355 . S
C1540 C1542 1.419 . S
C1541 C1536 1.425 . S
C1541 C1538 1.409 . S
C1541 C1539 1.415 . S
C1542 H1532 0.930 . S
C1542 C1540 1.419 . S
C1542 C1543 1.362 . S
C1543 H1533 0.930 . S
C1543 C1536 1.409 . S
C1543 C1542 1.362 . S
H1544 C1550 0.930 . S
H1545 C1553 0.930 . S
H1546 C1554 0.930 . S
H1547 C1555 0.930 . S
H1548 C1558 0.930 . S
H1549 C1559 0.930 . S
C1550 H1544 0.930 . S
C1550 C1551 1.355 . S
C1550 C1552 1.415 . S
C1551 C1550 1.355 . S
C1551 C1553 1.419 . S
C1552 C1550 1.415 . S
C1552 C1557 1.425 . S
C1552 C1559 1.409 . S
C1553 H1545 0.930 . S
C1553 C1551 1.419 . S
C1553 C1554 1.362 . S
C1554 H1546 0.930 . S
C1554 C1553 1.362 . S
C1554 C1557 1.409 . S
C1555 H1547 0.930 . S
C1555 C1556 1.355 . S
C1555 C1557 1.415 . S
C1556 C1555 1.355 . S
C1556 C1558 1.419 . S
C1557 C1552 1.425 . S
C1557 C1554 1.409 . S
C1557 C1555 1.415 . S
C1558 H1548 0.930 . S
C1558 C1556 1.419 . S
C1558 C1559 1.362 . S
C1559 H1549 0.930 . S
C1559 C1552 1.409 . S
C1559 C1558 1.362 . S
H1560 C1566 0.930 . S
H1561 C1569 0.930 . S
H1562 C1570 0.930 . S
H1563 C1571 0.930 . S
H1564 C1574 0.930 . S
H1565 C1575 0.930 . S
C1566 H1560 0.930 . S
C1566 C1567 1.355 . S
C1566 C1568 1.415 . S
C1567 C1566 1.355 . S
C1567 C1569 1.419 . S
C1568 C1566 1.415 . S
C1568 C1573 1.425 . S
C1568 C1575 1.409 . S
C1569 H1561 0.930 . S
C1569 C1567 1.419 . S
C1569 C1570 1.362 . S
C1570 H1562 0.930 . S
C1570 C1569 1.362 . S
C1570 C1573 1.409 . S
C1571 H1563 0.930 . S
C1571 C1572 1.355 . S
C1571 C1573 1.415 . S
C1572 C1571 1.355 . S
C1572 C1574 1.419 . S
C1573 C1568 1.425 . S
C1573 C1570 1.409 . S
C1573 C1571 1.415 . S
C1574 H1564 0.930 . S
C1574 C1572 1.419 . S
C1574 C1575 1.362 . S
C1575 H1565 0.930 . S
C1575 C1568 1.409 . S
C1575 C1574 1.362 . S
H1576 C1582 0.930 . S
H1577 C1585 0.930 . S
H1578 C1586 0.930 . S
H1579 C1587 0.930 . S
H1580 C1590 0.930 . S
H1581 C1591 0.930 . S
C1582 H1576 0.930 . S
C1582 C1583 1.355 . S
C1582 C1584 1.415 . S
C1583 C1582 1.355 . S
C1583 C1585 1.419 . S
C1584 C1582 1.415 . S
C1584 C1589 1.425 . S
C1584 C1591 1.409 . S
C1585 H1577 0.930 . S
C1585 C1583 1.419 . S
C1585 C1586 1.362 . S
C1586 H1578 0.930 . S
C1586 C1585 1.362 . S
C1586 C1589 1.409 . S
C1587 H1579 0.930 . S
C1587 C1588 1.355 . S
C1587 C1589 1.415 . S
C1588 C1587 1.355 . S
C1588 C1590 1.419 . S
C1589 C1584 1.425 . S
C1589 C1586 1.409 . S
C1589 C1587 1.415 . S
C1590 H1580 0.930 . S
C1590 C1588 1.419 . S
C1590 C1591 1.362 . S
C1591 H1581 0.930 . S
C1591 C1584 1.409 . S
C1591 C1590 1.362 . S
H1592 C1598 0.930 . S
H1593 C1601 0.930 . S
H1594 C1602 0.930 . S
H1595 C1603 0.930 . S
H1596 C1606 0.930 . S
H1597 C1607 0.930 . S
C1598 H1592 0.930 . S
C1598 C1599 1.355 . S
C1598 C1600 1.415 . S
C1599 C1598 1.355 . S
C1599 C1601 1.419 . S
C1600 C1598 1.415 . S
C1600 C1605 1.425 . S
C1600 C1607 1.409 . S
C1601 H1593 0.930 . S
C1601 C1599 1.419 . S
C1601 C1602 1.362 . S
C1602 H1594 0.930 . S
C1602 C1601 1.362 . S
C1602 C1605 1.409 . S
C1603 H1595 0.930 . S
C1603 C1604 1.355 . S
C1603 C1605 1.415 . S
C1604 C1603 1.355 . S
C1604 C1606 1.419 . S
C1605 C1600 1.425 . S
C1605 C1602 1.409 . S
C1605 C1603 1.415 . S
C1606 H1596 0.930 . S
C1606 C1604 1.419 . S
C1606 C1607 1.362 . S
C1607 H1597 0.930 . S
C1607 C1600 1.409 . S
C1607 C1606 1.362 . S
H1608 C1614 0.930 . S
H1609 C1617 0.930 . S
H1610 C1618 0.930 . S
H1611 C1619 0.930 . S
H1612 C1622 0.930 . S
H1613 C1623 0.930 . S
C1614 H1608 0.930 . S
C1614 C1615 1.355 . S
C1614 C1616 1.415 . S
C1615 C1614 1.355 . S
C1615 C1617 1.419 . S
C1616 C1614 1.415 . S
C1616 C1621 1.425 . S
C1616 C1623 1.409 . S
C1617 H1609 0.930 . S
C1617 C1615 1.419 . S
C1617 C1618 1.362 . S
C1618 H1610 0.930 . S
C1618 C1617 1.362 . S
C1618 C1621 1.409 . S
C1619 H1611 0.930 . S
C1619 C1620 1.355 . S
C1619 C1621 1.415 . S
C1620 C1619 1.355 . S
C1620 C1622 1.419 . S
C1621 C1616 1.425 . S
C1621 C1618 1.409 . S
C1621 C1619 1.415 . S
C1622 H1612 0.930 . S
C1622 C1620 1.419 . S
C1622 C1623 1.362 . S
C1623 H1613 0.930 . S
C1623 C1616 1.409 . S
C1623 C1622 1.362 . S
H1624 C1630 0.930 . S
H1625 C1633 0.930 . S
H1626 C1634 0.930 . S
H1627 C1635 0.930 . S
H1628 C1638 0.930 . S
H1629 C1639 0.930 . S
C1630 H1624 0.930 . S
C1630 C1631 1.355 . S
C1630 C1632 1.415 . S
C1631 C1630 1.355 . S
C1631 C1633 1.419 . S
C1632 C1630 1.415 . S
C1632 C1637 1.425 . S
C1632 C1639 1.409 . S
C1633 H1625 0.930 . S
C1633 C1631 1.419 . S
C1633 C1634 1.362 . S
C1634 H1626 0.930 . S
C1634 C1633 1.362 . S
C1634 C1637 1.409 . S
C1635 H1627 0.930 . S
C1635 C1636 1.355 . S
C1635 C1637 1.415 . S
C1636 C1635 1.355 . S
C1636 C1638 1.419 . S
C1637 C1632 1.425 . S
C1637 C1634 1.409 . S
C1637 C1635 1.415 . S
C1638 H1628 0.930 . S
C1638 C1636 1.419 . S
C1638 C1639 1.362 . S
C1639 H1629 0.930 . S
C1639 C1632 1.409 . S
C1639 C1638 1.362 . S
H1640 C1646 0.930 . S
H1641 C1649 0.930 . S
H1642 C1650 0.930 . S
H1643 C1651 0.930 . S
H1644 C1654 0.930 . S
H1645 C1655 0.930 . S
C1646 H1640 0.930 . S
C1646 C1647 1.355 . S
C1646 C1648 1.415 . S
C1647 C1646 1.355 . S
C1647 C1649 1.419 . S
C1648 C1646 1.415 . S
C1648 C1653 1.425 . S
C1648 C1655 1.409 . S
C1649 H1641 0.930 . S
C1649 C1647 1.419 . S
C1649 C1650 1.362 . S
C1650 H1642 0.930 . S
C1650 C1649 1.362 . S
C1650 C1653 1.409 . S
C1651 H1643 0.930 . S
C1651 C1652 1.355 . S
C1651 C1653 1.415 . S
C1652 C1651 1.355 . S
C1652 C1654 1.419 . S
C1653 C1648 1.425 . S
C1653 C1650 1.409 . S
C1653 C1651 1.415 . S
C1654 H1644 0.930 . S
C1654 C1652 1.419 . S
C1654 C1655 1.362 . S
C1655 H1645 0.930 . S
C1655 C1648 1.409 . S
C1655 C1654 1.362 . S
C511 C7 1.419 . S
C516 C259 1.419 . S
C527 C273 1.447 . S
C532 C21 1.447 . S
C543 C287 1.449 . S
C548 C35 1.449 . S
C559 C49 1.416 . S
C564 C469 1.416 . S
C575 C63 1.471 . S
C580 C483 1.471 . S
C591 C77 1.426 . S
C596 C497 1.426 . S
C607 C343 1.453 . S
C612 C91 1.453 . S
C623 C105 1.465 . S
C628 C357 1.465 . S
C639 C119 1.474 . S
C644 C371 1.474 . S
C655 C217 1.473 . S
C660 C133 1.473 . S
C671 C231 1.473 . S
C676 C147 1.473 . S
C687 C245 1.450 . S
C692 C161 1.450 . S
C703 C427 1.451 . S
C708 C175 1.451 . S
C719 C441 1.423 . S
C724 C189 1.423 . S
C735 C203 1.473 . S
C740 C455 1.473 . S
C751 C385 1.447 . S
C756 C301 1.447 . S
C767 C315 1.415 . S
C772 C399 1.415 . S
C783 C329 1.474 . S
C788 C413 1.474 . S
C799 C6 1.441 . S
C804 C384 1.436 . S
C815 C398 1.459 . S
C820 C20 1.447 . S
C831 C412 1.443 . S
C836 C34 1.455 . S
C847 C174 1.467 . S
C852 C48 1.455 . S
C863 C188 1.441 . S
C868 C62 1.436 . S
C879 C202 1.468 . S
C884 C76 1.455 . S
C895 C90 1.472 . S
C900 C300 1.477 . S
C911 C314 1.437 . S
C916 C104 1.446 . S
C927 C328 1.454 . S
C932 C118 1.442 . S
C943 C132 1.475 . S
C948 C426 1.477 . S
C959 C146 1.449 . S
C964 C440 1.462 . S
C975 C160 1.441 . S
C980 C454 1.436 . S
C991 C216 1.455 . S
C996 C342 1.467 . S
C1007 C230 1.470 . S
C1012 C356 1.477 . S
C1023 C244 1.444 . S
C1028 C370 1.456 . S
C1039 C258 1.468 . S
C1044 C468 1.476 . S
C1055 C482 1.458 . S
C1060 C272 1.470 . S
C1071 C286 1.440 . S
C1076 C496 1.451 . S
C1087 C22 1.202 . S
C1092 C9 1.217 . S
C1103 C23 1.220 . S
C1108 C36 1.257 . S
C1119 C37 1.215 . S
C1124 C8 1.254 . S
C1135 C51 1.187 . S
C1140 C78 1.202 . S
C1151 C50 1.256 . S
C1156 C65 1.218 . S
C1167 C79 1.258 . S
C1172 C64 1.239 . S
C1183 C93 1.185 . S
C1188 C106 1.217 . S
C1199 C107 1.186 . S
C1204 C120 1.221 . S
C1215 C121 1.240 . S
C1220 C92 1.217 . S
C1231 C162 1.229 . S
C1236 C135 1.190 . S
C1247 C149 1.228 . S
C1252 C134 1.209 . S
C1263 C148 1.259 . S
C1268 C163 1.223 . S
C1279 C190 1.223 . S
C1284 C177 1.187 . S
C1295 C204 1.267 . S
C1300 C191 1.244 . S
C1311 C176 1.198 . S
C1316 C205 1.199 . S
C1327 C219 1.260 . S
C1332 C246 1.265 . S
C1343 C233 1.222 . S
C1348 C218 1.205 . S
C1359 C247 1.258 . S
C1364 C232 1.238 . S
C1375 C274 1.246 . S
C1380 C261 1.205 . S
C1391 C275 1.256 . S
C1396 C288 1.267 . S
C1407 C289 1.207 . S
C1412 C260 1.248 . S
C1423 C303 1.203 . S
C1428 C330 1.244 . S
C1439 C317 1.221 . S
C1444 C302 1.258 . S
C1455 C316 1.230 . S
C1460 C331 1.252 . S
C1471 C358 1.203 . S
C1476 C345 1.218 . S
C1487 C359 1.230 . S
C1492 C372 1.209 . S
C1503 C344 1.261 . S
C1508 C373 1.263 . S
C1519 C387 1.234 . S
C1524 C414 1.264 . S
C1535 C401 1.218 . S
C1540 C386 1.203 . S
C1551 C415 1.232 . S
C1556 C400 1.264 . S
C1567 C429 1.229 . S
C1572 C442 1.209 . S
C1583 C443 1.261 . S
C1588 C456 1.245 . S
C1599 C457 1.232 . S
C1604 C428 1.263 . S
C1615 C471 1.236 . S
C1620 C498 1.214 . S
C1631 C485 1.197 . S
C1636 C470 1.237 . S
C1647 C484 1.213 . S
C1652 C499 1.235 . S
