# Generated by pormake.
# Topology ukh, (4)-cn, num edge types: 1
# Building blocks:
#     Node 0, Type 0, BuildingBlock: GALJAG_clean_sbu_0, # of connection points: 4
#     Node 1, Type 0, BuildingBlock: GALJAG_clean_sbu_0, # of connection points: 4
#     Node 2, Type 0, BuildingBlock: GALJAG_clean_sbu_0, # of connection points: 4
#     Node 3, Type 0, BuildingBlock: GALJAG_clean_sbu_0, # of connection points: 4
#     Node 4, Type 0, BuildingBlock: GALJAG_clean_sbu_0, # of connection points: 4
#     Node 5, Type 0, BuildingBlock: GALJAG_clean_sbu_0, # of connection points: 4
#     Node 6, Type 0, BuildingBlock: GALJAG_clean_sbu_0, # of connection points: 4
#     Node 7, Type 0, BuildingBlock: GALJAG_clean_sbu_0, # of connection points: 4
#     Node 8, Type 0, BuildingBlock: GALJAG_clean_sbu_0, # of connection points: 4
#     Node 9, Type 0, BuildingBlock: GALJAG_clean_sbu_0, # of connection points: 4
#     Node 10, Type 0, BuildingBlock: GALJAG_clean_sbu_0, # of connection points: 4
#     Node 11, Type 0, BuildingBlock: GALJAG_clean_sbu_0, # of connection points: 4
#     Edge 12, Type (0, 0), BuildingBlock: AJUNOK_clean_linker_0, # of connection points: 2
#     Edge 13, Type (0, 0), BuildingBlock: AJUNOK_clean_linker_0, # of connection points: 2
#     Edge 14, Type (0, 0), BuildingBlock: AJUNOK_clean_linker_0, # of connection points: 2
#     Edge 15, Type (0, 0), BuildingBlock: AJUNOK_clean_linker_0, # of connection points: 2
#     Edge 16, Type (0, 0), BuildingBlock: AJUNOK_clean_linker_0, # of connection points: 2
#     Edge 17, Type (0, 0), BuildingBlock: AJUNOK_clean_linker_0, # of connection points: 2
#     Edge 18, Type (0, 0), BuildingBlock: AJUNOK_clean_linker_0, # of connection points: 2
#     Edge 19, Type (0, 0), BuildingBlock: AJUNOK_clean_linker_0, # of connection points: 2
#     Edge 20, Type (0, 0), BuildingBlock: AJUNOK_clean_linker_0, # of connection points: 2
#     Edge 21, Type (0, 0), BuildingBlock: AJUNOK_clean_linker_0, # of connection points: 2
#     Edge 22, Type (0, 0), BuildingBlock: AJUNOK_clean_linker_0, # of connection points: 2
#     Edge 23, Type (0, 0), BuildingBlock: AJUNOK_clean_linker_0, # of connection points: 2
#     Edge 24, Type (0, 0), BuildingBlock: AJUNOK_clean_linker_0, # of connection points: 2
#     Edge 25, Type (0, 0), BuildingBlock: AJUNOK_clean_linker_0, # of connection points: 2
#     Edge 26, Type (0, 0), BuildingBlock: AJUNOK_clean_linker_0, # of connection points: 2
#     Edge 27, Type (0, 0), BuildingBlock: AJUNOK_clean_linker_0, # of connection points: 2
#     Edge 28, Type (0, 0), BuildingBlock: AJUNOK_clean_linker_0, # of connection points: 2
#     Edge 29, Type (0, 0), BuildingBlock: AJUNOK_clean_linker_0, # of connection points: 2
#     Edge 30, Type (0, 0), BuildingBlock: AJUNOK_clean_linker_0, # of connection points: 2
#     Edge 31, Type (0, 0), BuildingBlock: AJUNOK_clean_linker_0, # of connection points: 2
#     Edge 32, Type (0, 0), BuildingBlock: AJUNOK_clean_linker_0, # of connection points: 2
#     Edge 33, Type (0, 0), BuildingBlock: AJUNOK_clean_linker_0, # of connection points: 2
#     Edge 34, Type (0, 0), BuildingBlock: AJUNOK_clean_linker_0, # of connection points: 2
#     Edge 35, Type (0, 0), BuildingBlock: AJUNOK_clean_linker_0, # of connection points: 2
# Relax obj value: 0.072
# Max RMSD: 0.081
# Mean RMSD: 0.081
data_MOF--net-ukh--node1-GALJAG_clean_sbu_0--edge1-AJUNOK_clean_linker_0
_symmetry_space_group_name_H-M    P1
_symmetry_Int_Tables_number       1
_symmetry_cell_setting            triclinic
loop_
_symmetry_equiv_pos_as_xyz
'x, y, z'
_cell_length_a     23.082393
_cell_length_b     23.078507
_cell_length_c     49.80349
_cell_angle_alpha  90.011046
_cell_angle_beta   89.968124
_cell_angle_gamma 120.03178
loop_
_atom_site_label
_atom_site_type_symbol
_atom_site_fract_x
_atom_site_fract_y
_atom_site_fract_z
_atom_type_partial_charge
In0 In 0.32188 0.22675 0.06142 0.0
O1 O 0.4276 0.31493 0.05396 0.0
O2 O 0.352 0.33639 0.066 0.0
C3 C 0.31864 0.12103 0.03634 0.0
C4 C 0.32576 0.20046 0.11395 0.0
C5 C 0.21936 0.22352 0.03447 0.0
O6 O 0.35612 0.18054 0.02848 0.0
O7 O 0.28571 0.11568 0.05728 0.0
O8 O 0.21824 0.21663 0.05969 0.0
O9 O 0.27187 0.23179 0.02319 0.0
C10 C 0.41231 0.35918 0.05944 0.0
O11 O 0.27301 0.19168 0.10255 0.0
O12 O 0.37641 0.22279 0.09881 0.0
In13 In 0.09983 0.32324 0.39436 0.0
O14 O 0.08696 0.27411 0.43536 0.0
O15 O 0.15848 0.37769 0.43186 0.0
C16 C 1.00115 0.2168 0.36858 0.0
C17 C 0.05686 0.41308 0.39202 0.0
C18 C 0.20341 0.32334 0.3687 0.0
O19 O 0.00681 0.21903 0.39385 0.0
O20 O 0.04502 0.26825 0.35656 0.0
O21 O 0.17951 0.35934 0.3611 0.0
O22 O 0.1773 0.29047 0.38982 0.0
C23 C 0.1307 0.32677 0.44686 0.0
O24 O 0.11658 0.42876 0.38679 0.0
O25 O 0.01954 0.35262 0.39843 0.0
In26 In 0.77916 0.09532 0.72529 0.0
O27 O 0.68715 0.10787 0.71902 0.0
O28 O 0.67122 0.01214 0.73002 0.0
C29 C 0.88157 0.20079 0.69984 0.0
C30 C 0.80824 0.12387 0.77775 0.0
C31 C 0.78837 0.9983 0.69892 0.0
O32 O 0.82163 0.1754 0.69201 0.0
O33 O 0.88862 0.17532 0.72106 0.0
O34 O 0.79535 0.00562 0.72407 0.0
O35 O 0.77676 0.03991 0.68725 0.0
C36 C 0.64529 0.04722 0.7241 0.0
O37 O 0.8175 0.08143 0.76536 0.0
O38 O 0.78306 0.15136 0.76371 0.0
In39 In 0.68922 0.77851 0.06445 0.0
O40 O 0.7229 0.78726 0.10799 0.0
O41 O 0.64548 0.80915 0.09901 0.0
C42 C 0.7882 0.78078 0.03542 0.0
C43 C 0.59838 0.64674 0.061 0.0
C44 C 0.71396 0.89234 0.04006 0.0
O45 O 0.7926 0.78895 0.06066 0.0
O46 O 0.7334 0.76956 0.02531 0.0
O47 O 0.65996 0.83795 0.03554 0.0
O48 O 0.7508 0.88891 0.05796 0.0
C49 C 0.68265 0.80503 0.11659 0.0
O50 O 0.58342 0.69088 0.05461 0.0
O51 O 0.65728 0.66966 0.0694 0.0
In52 In 0.90622 0.6841 0.39377 0.0
O53 O 0.92236 0.7352 0.4343 0.0
O54 O 0.84972 0.6316 0.43202 0.0
C55 C 1.00311 0.79041 0.36732 0.0
C56 C 0.95261 0.59704 0.39164 0.0
C57 C 0.80103 0.6835 0.36938 0.0
O58 O 0.99697 0.78946 0.39256 0.0
O59 O 0.96036 0.73777 0.35561 0.0
O60 O 0.82603 0.64934 0.36063 0.0
O61 O 0.82702 0.71468 0.3908 0.0
C62 C 0.87883 0.68357 0.44644 0.0
O63 O 0.89186 0.57873 0.38712 0.0
O64 O 0.9885 0.65807 0.39742 0.0
In65 In 0.22471 0.90323 0.72656 0.0
O66 O 0.31208 0.88278 0.72051 0.0
O67 O 0.33482 0.98165 0.72974 0.0
C68 C 0.12058 0.80228 0.70044 0.0
C69 C 0.19704 0.87362 0.77906 0.0
C70 C 0.21382 0.99917 0.70002 0.0
O71 O 0.18065 0.82226 0.69381 0.0
O72 O 0.1139 0.83149 0.72061 0.0
O73 O 0.20007 0.9876 0.72471 0.0
O74 O 0.23321 0.96261 0.68903 0.0
C75 C 0.35696 0.94288 0.72465 0.0
O76 O 0.21741 0.93171 0.76992 0.0
O77 O 0.19173 0.83096 0.76193 0.0
In78 In 0.77879 0.67711 0.61156 0.0
O79 O 0.81584 0.73113 0.57163 0.0
O80 O 0.78284 0.62698 0.57262 0.0
C81 C 0.7875 0.78167 0.63907 0.0
C82 C 0.64608 0.58656 0.61419 0.0
C83 C 0.88409 0.6772 0.63559 0.0
O84 O 0.7864 0.77973 0.61369 0.0
O85 O 0.78355 0.73085 0.65025 0.0
O86 O 0.82495 0.64238 0.64431 0.0
O87 O 0.88896 0.70851 0.61423 0.0
C88 C 0.80716 0.68008 0.55886 0.0
O89 O 0.69034 0.57044 0.61811 0.0
O90 O 0.669 0.64758 0.6089 0.0
In91 In 0.09901 0.78135 0.94377 0.0
O92 O 0.11988 0.69438 0.94982 0.0
O93 O 0.02138 0.67138 0.93966 0.0
C94 C 0.19822 0.88658 0.96997 0.0
C95 C 0.12819 0.80868 0.89123 0.0
C96 C 1.00177 0.78703 0.97144 0.0
O97 O 0.18107 0.82676 0.97595 0.0
O98 O 0.1673 0.89267 0.95028 0.0
O99 O 0.0118 0.80154 0.94675 0.0
O100 O 0.04074 0.76993 0.98185 0.0
C101 C 0.06012 0.64943 0.94508 0.0
O102 O 0.07068 0.79014 0.90063 0.0
O103 O 0.1709 0.81346 0.90822 0.0
In104 In 0.32255 0.10216 0.2791 0.0
O105 O 0.42754 0.11803 0.28685 0.0
O106 O 0.35094 0.02125 0.27504 0.0
C107 C 0.32284 0.2073 0.3033 0.0
C108 C 0.32612 0.13148 0.22647 0.0
C109 C 0.21834 0.00636 0.30683 0.0
O110 O 0.35905 0.18409 0.31147 0.0
O111 O 0.28945 0.17945 0.28248 0.0
O112 O 0.21843 0.00879 0.28145 0.0
O113 O 0.27064 0.05168 0.31781 0.0
C114 C 0.41137 0.05816 0.28158 0.0
O115 O 0.27329 0.08808 0.23805 0.0
O116 O 0.377 0.15951 0.24147 0.0
In117 In 0.22353 0.31918 0.61197 0.0
O118 O 0.18762 0.27082 0.57084 0.0
O119 O 0.22366 0.3753 0.57436 0.0
C120 C 0.21138 0.21304 0.63938 0.0
C121 C 0.35738 0.40409 0.61502 0.0
C122 C 0.11873 0.32102 0.63549 0.0
O123 O 0.21228 0.21493 0.61399 0.0
O124 O 0.21691 0.26451 0.65061 0.0
O125 O 0.178 0.35656 0.64402 0.0
O126 O 0.11352 0.28772 0.61467 0.0
C127 C 0.1993 0.32443 0.5593 0.0
O128 O 0.31555 0.4229 0.62009 0.0
O129 O 0.33145 0.34347 0.60839 0.0
In130 In 0.91395 0.22921 0.94159 0.0
O131 O 0.93164 0.19786 0.90061 0.0
O132 O 0.84987 0.21546 0.90458 0.0
C133 C 0.01184 0.23048 0.971 0.0
C134 C 0.95801 0.36175 0.94337 0.0
C135 C 0.82057 0.11861 0.96705 0.0
O136 O 0.00959 0.224 0.94571 0.0
O137 O 0.96589 0.23808 0.98105 0.0
O138 O 0.82603 0.17522 0.97147 0.0
O139 O 0.85821 0.11828 0.94881 0.0
C140 C 0.88266 0.19819 0.88947 0.0
O141 O 0.89841 0.31876 0.94968 0.0
O142 O 0.9934 0.33742 0.93569 0.0
In143 In 0.68156 0.90676 0.28008 0.0
O144 O 0.72048 0.93179 0.23703 0.0
O145 O 0.637 0.83494 0.24485 0.0
C146 C 0.78581 1.00077 0.30826 0.0
C147 C 0.59368 0.95212 0.28191 0.0
C148 C 0.68543 0.80525 0.30518 0.0
O149 O 0.78914 0.99394 0.28319 0.0
O150 O 0.73016 0.96059 0.31873 0.0
O151 O 0.64357 0.82312 0.31166 0.0
O152 O 0.72267 0.83676 0.2856 0.0
C153 C 0.67809 0.8751 0.22788 0.0
O154 O 0.57579 0.89168 0.28699 0.0
O155 O 0.65435 0.98778 0.27563 0.0
C156 C 0.482 0.54762 0.05896 0.0
C157 C 0.55155 0.57357 0.05912 0.0
C158 C 0.43741 0.4782 0.05892 0.0
C159 C 0.46071 0.43217 0.05859 0.0
H160 H 0.46182 0.58107 0.0595 0.0
H161 H 0.38421 0.46051 0.05924 0.0
S162 S 0.63835 0.47461 0.05738 0.0
N163 N 0.6417 0.54774 0.058 0.0
N164 N 0.55801 0.4178 0.05754 0.0
C165 C 0.53013 0.45755 0.05802 0.0
C166 C 0.57548 0.52808 0.0584 0.0
C167 C 0.96246 0.43733 0.39213 0.0
C168 C 0.03181 0.46112 0.391 0.0
C169 C 0.93709 0.48138 0.39179 0.0
C170 C 0.98012 0.55105 0.3907 0.0
H171 H 0.92727 0.3841 0.39331 0.0
H172 H 0.88342 0.46068 0.39288 0.0
S173 S 0.16574 0.63913 0.38674 0.0
N174 N 0.14297 0.55903 0.38805 0.0
N175 N 0.09563 0.6418 0.38778 0.0
C176 C 0.04958 0.57552 0.38931 0.0
C177 C 0.07532 0.53062 0.38935 0.0
C178 C 0.47559 0.03675 0.72309 0.0
C179 C 0.42995 0.96734 0.72372 0.0
C180 C 0.54497 0.06211 0.72281 0.0
C181 C 0.57164 0.01913 0.72349 0.0
H182 H 0.45766 0.07207 0.7228 0.0
H183 H 0.57791 0.11587 0.72243 0.0
S184 S 0.47386 0.83321 0.72483 0.0
N185 N 0.41653 0.85602 0.72453 0.0
N186 N 0.54674 0.90338 0.72435 0.0
C187 C 0.52658 0.94953 0.72395 0.0
C188 C 0.45585 0.92372 0.72395 0.0
C189 C 0.52772 0.56288 0.61582 0.0
C190 C 0.57293 0.53862 0.61544 0.0
C191 C 0.45823 0.51919 0.61627 0.0
C192 C 0.43106 0.44941 0.61601 0.0
H193 H 0.5461 0.61624 0.6157 0.0
H194 H 0.4256 0.54034 0.61631 0.0
S195 S 0.52753 0.36003 0.61581 0.0
N196 N 0.58533 0.44007 0.61557 0.0
N197 N 0.45498 0.35794 0.61607 0.0
C198 C 0.47568 0.4244 0.61594 0.0
C199 C 0.54648 0.46895 0.61577 0.0
C200 C 0.94171 0.46119 0.9453 0.0
C201 C 0.98515 0.43511 0.94477 0.0
C202 C 0.96664 0.53052 0.94552 0.0
C203 C 0.036 0.57653 0.94564 0.0
H204 H 0.88802 0.42787 0.94505 0.0
H205 H 0.93107 0.54813 0.94557 0.0
S206 S 0.17101 0.53388 0.94575 0.0
N207 N 0.10113 0.46076 0.9452 0.0
N208 N 0.14766 0.59082 0.94601 0.0
C209 C 0.08 0.55111 0.94573 0.0
C210 C 0.05466 0.48051 0.94517 0.0
C211 C 0.4346 0.96305 0.2816 0.0
C212 C 0.4589 0.03253 0.28265 0.0
C213 C 0.47824 0.93718 0.28194 0.0
C214 C 0.54794 0.97986 0.28294 0.0
H215 H 0.3813 0.92816 0.28047 0.0
H216 H 0.45723 0.88346 0.2809 0.0
S217 S 0.63722 0.16558 0.28677 0.0
N218 N 0.55728 0.14336 0.2855 0.0
N219 N 0.63928 0.09514 0.28577 0.0
C220 C 0.57289 0.04942 0.28429 0.0
C221 C 0.52843 0.07565 0.28426 0.0
C222 C 0.26742 0.12742 0.18367 0.0
C223 C 0.32768 0.14939 0.19777 0.0
C224 C 0.26732 0.14479 0.15668 0.0
C225 C 0.32749 0.18413 0.14263 0.0
H226 H 0.21977 0.09698 0.19359 0.0
H227 H 0.21961 0.12667 0.14671 0.0
S228 S 0.49902 0.25433 0.17029 0.0
N229 N 0.44928 0.2129 0.19563 0.0
N230 N 0.44908 0.2448 0.14489 0.0
C231 C 0.38815 0.20624 0.15644 0.0
C232 C 0.38825 0.1891 0.18401 0.0
C233 C 0.12611 0.26747 0.48955 0.0
C234 C 0.14896 0.32797 0.4755 0.0
C235 C 0.14333 0.26687 0.51651 0.0
C236 C 0.18348 0.32677 0.5306 0.0
H237 H 0.09496 0.21999 0.47963 0.0
H238 H 0.1244 0.21898 0.52644 0.0
S239 S 0.25618 0.49877 0.50306 0.0
N240 N 0.21418 0.4495 0.4777 0.0
N241 N 0.24589 0.4484 0.52841 0.0
C242 C 0.20658 0.38768 0.51682 0.0
C243 C 0.18953 0.38828 0.48928 0.0
C244 C 0.804 0.17842 0.82062 0.0
C245 C 0.82716 0.14142 0.80629 0.0
C246 C 0.82182 0.19622 0.84756 0.0
C247 C 0.86435 0.17864 0.86105 0.0
H248 H 0.77154 0.19352 0.81101 0.0
H249 H 0.80263 0.22456 0.8578 0.0
S250 S 0.93857 0.08165 0.83262 0.0
N251 N 0.89449 0.08732 0.80772 0.0
N252 N 0.9287 0.1216 0.85812 0.0
C253 C 0.888 0.14178 0.84694 0.0
C254 C 0.86918 0.12292 0.81964 0.0
C255 C 0.68134 0.88101 0.15186 0.0
C256 C 0.68038 0.82143 0.14499 0.0
C257 C 0.68158 0.89874 0.17884 0.0
C258 C 0.67823 0.85612 0.19967 0.0
H259 H 0.68339 0.91475 0.13628 0.0
H260 H 0.68342 0.94552 0.18344 0.0
S261 S 0.67315 0.69389 0.19216 0.0
N262 N 0.67653 0.72023 0.16103 0.0
N263 N 0.67325 0.75175 0.21174 0.0
C264 C 0.67595 0.79589 0.19303 0.0
C265 C 0.67803 0.77899 0.16564 0.0
C266 C 0.80307 0.62273 0.51565 0.0
C267 C 0.82574 0.6825 0.53021 0.0
C268 C 0.82044 0.62357 0.48859 0.0
C269 C 0.86187 0.68417 0.47513 0.0
H270 H 0.77127 0.57481 0.52515 0.0
H271 H 0.80143 0.57625 0.4782 0.0
S272 S 0.93548 0.85466 0.50434 0.0
N273 N 0.89218 0.80406 0.52919 0.0
N274 N 0.92541 0.80563 0.47852 0.0
C275 C 0.88527 0.74432 0.48952 0.0
C276 C 0.86702 0.74349 0.51698 0.0
C277 C 0.20431 0.88221 0.85508 0.0
C278 C 0.14467 0.82436 0.8626 0.0
C279 C 0.22051 0.89862 0.82791 0.0
C280 C 0.17882 0.85629 0.80749 0.0
H281 H 0.23804 0.91557 0.8703 0.0
H282 H 0.26646 0.94403 0.82285 0.0
S283 S 0.01793 0.69835 0.81672 0.0
N284 N 0.04366 0.72515 0.84758 0.0
N285 N 0.07582 0.7541 0.79652 0.0
C286 C 0.11964 0.79783 0.81477 0.0
C287 C 0.10207 0.78235 0.84236 0.0
C288 C 0.27462 0.00954 0.97544 0.0
C289 C 0.24308 0.94499 0.98678 0.0
C290 C 0.30504 0.06697 0.99164 0.0
C291 C 0.30356 0.06182 0.01979 0.0
H292 H 0.27286 0.01575 0.95395 0.0
H293 H 0.32518 0.11548 0.9821 0.0
S294 S 0.23439 0.90481 0.05928 0.0
N295 N 0.21861 0.87952 0.02774 0.0
N296 N 0.274 0.98741 0.05822 0.0
C297 C 0.27629 0.99776 0.03128 0.0
C298 C 0.24654 0.9393 0.01475 0.0
C299 C 0.28108 0.27815 0.36368 0.0
C300 C 0.24905 0.31037 0.35209 0.0
C301 C 0.31113 0.2504 0.34769 0.0
C302 C 0.30911 0.25284 0.31952 0.0
H303 H 0.2796 0.27089 0.38522 0.0
H304 H 0.33122 0.22226 0.35744 0.0
S305 S 0.2405 0.34003 0.27936 0.0
N306 N 0.2248 0.35043 0.3108 0.0
N307 N 0.27984 0.29686 0.28078 0.0
C308 C 0.28211 0.28953 0.30777 0.0
C309 C 0.2525 0.31877 0.32405 0.0
C310 C 1.00428 0.28014 0.69525 0.0
C311 C 0.9403 0.24714 0.68339 0.0
C312 C 0.06257 0.31033 0.67951 0.0
C313 C 0.05892 0.30758 0.65133 0.0
H314 H 0.00952 0.27916 0.71684 0.0
H315 H 0.11055 0.33101 0.68951 0.0
S316 S 0.90403 0.23665 0.61043 0.0
N317 N 0.87706 0.22138 0.64177 0.0
N318 N 0.98654 0.27684 0.61223 0.0
C319 C 0.99545 0.27983 0.63927 0.0
C320 C 0.93609 0.24999 0.6553 0.0
C321 C 0.69713 0.97157 0.01024 0.0
C322 C 0.73972 0.95209 0.02256 0.0
C323 C 0.72303 0.02736 0.99282 0.0
C324 C 0.79176 0.06352 0.98675 0.0
H325 H 0.64381 0.94369 0.01409 0.0
H326 H 0.68914 0.04101 0.98352 0.0
S327 S 0.92363 0.03173 0.01301 0.0
N328 N 0.85389 0.97371 0.02714 0.0
N329 N 0.90141 0.07617 0.99421 0.0
C330 C 0.83436 0.0443 0.99891 0.0
C331 C 0.80863 0.98912 0.01686 0.0
C332 C 0.73063 0.72756 0.3095 0.0
C333 C 0.69835 0.75917 0.32141 0.0
C334 C 0.75815 0.6968 0.32518 0.0
C335 C 0.7556 0.69788 0.35338 0.0
H336 H 0.73792 0.7298 0.28794 0.0
H337 H 0.78617 0.67689 0.3152 0.0
S338 S 0.66943 0.7666 0.39425 0.0
N339 N 0.65894 0.78303 0.36293 0.0
N340 N 0.71199 0.72668 0.39246 0.0
C341 C 0.71907 0.7248 0.36543 0.0
C342 C 0.69003 0.75507 0.34942 0.0
C343 C 0.99787 0.72369 0.69576 0.0
C344 C 0.06199 0.7559 0.68402 0.0
C345 C 0.93988 0.69203 0.67994 0.0
C346 C 0.94395 0.69265 0.65177 0.0
H347 H 0.99234 0.72604 0.71728 0.0
H348 H 0.89172 0.6717 0.68979 0.0
S349 S 0.09961 0.76223 0.61133 0.0
N350 N 0.12603 0.7796 0.64269 0.0
N351 N 0.01706 0.72156 0.61291 0.0
C352 C 0.00766 0.72017 0.6399 0.0
C353 C 0.06674 0.7514 0.65604 0.0
C354 C 0.1206 0.23287 0.97553 0.0
C355 C 0.06348 0.22805 0.9877 0.0
C356 C 0.17039 0.23097 0.99088 0.0
C357 C 0.16473 0.22364 0.01899 0.0
H358 H 0.12734 0.23878 0.95398 0.0
H359 H 0.21379 0.23552 0.98055 0.0
S360 S 0.02291 0.2052 0.06049 0.0
N361 N 1.00283 0.2135 0.02949 0.0
N362 N 0.09621 0.20923 0.0583 0.0
C363 C 0.10728 0.21763 0.03141 0.0
C364 C 0.05674 0.22008 0.01578 0.0
C365 C 0.89573 0.10702 0.31101 0.0
C366 C 0.84166 0.05321 0.32411 0.0
C367 C 0.94728 0.15925 0.32562 0.0
C368 C 0.94703 0.15943 0.3539 0.0
H369 H 0.89769 0.10959 0.28928 0.0
H370 H 0.98738 0.20008 0.31458 0.0
S371 S 0.81888 0.02775 0.39785 0.0
N372 N 0.79231 1.00161 0.36704 0.0
N373 N 0.8894 0.09959 0.39446 0.0
C374 C 0.89412 0.10502 0.36727 0.0
C375 C 0.84138 0.05199 0.35239 0.0
C376 C 0.78065 0.88616 0.6417 0.0
C377 C 0.79112 0.83803 0.6546 0.0
C378 C 0.78066 0.93819 0.65619 0.0
C379 C 0.79145 0.94426 0.68413 0.0
H380 H 0.77119 0.88306 0.62029 0.0
H381 H 0.77138 0.97348 0.64539 0.0
S382 S 0.82611 0.83376 0.72713 0.0
N383 N 0.81585 0.8015 0.69675 0.0
N384 N 0.81604 0.89938 0.72395 0.0
C385 C 0.80368 0.89742 0.69718 0.0
C386 C 0.80345 0.84428 0.68243 0.0
C387 C 0.89388 0.77693 0.03071 0.0
C388 C 0.84304 0.78464 0.01879 0.0
C389 C 0.94519 0.77833 0.01519 0.0
C390 C 0.94805 0.78829 0.98721 0.0
H391 H 0.89348 0.7686 0.05214 0.0
H392 H 0.98277 0.77124 0.02527 0.0
S393 S 0.82927 0.81579 0.94656 0.0
N394 N 0.80013 0.80562 0.97751 0.0
N395 N 0.89693 0.8088 0.94839 0.0
C396 C 0.89841 0.79778 0.97512 0.0
C397 C 0.84579 0.79576 0.9909 0.0
C398 C 0.0598 0.84483 0.32426 0.0
C399 C 0.05696 0.84758 0.35245 0.0
C400 C 0.11144 0.89692 0.30961 0.0
C401 C 0.16244 0.9536 0.32259 0.0
H402 H 0.02215 0.80177 0.31335 0.0
H403 H 0.11193 0.8921 0.28798 0.0
S404 S 0.1763 0.98708 0.39596 0.0
N405 N 0.10834 0.91303 0.39271 0.0
N406 N 0.20547 0.01081 0.36524 0.0
C407 C 0.15955 0.95767 0.35074 0.0
C408 C 0.1068 0.90472 0.36564 0.0
C409 C 0.22376 0.06001 0.65726 0.0
C410 C 0.20921 0.05204 0.68494 0.0
C411 C 0.2226 0.11111 0.64252 0.0
C412 C 0.2074 0.15656 0.65492 0.0
H413 H 0.23692 0.02697 0.64687 0.0
H414 H 0.2353 0.11595 0.62138 0.0
S415 S 0.16086 0.15472 0.72643 0.0
N416 N 0.17552 0.09187 0.72385 0.0
N417 N 0.17383 0.18824 0.69618 0.0
C418 C 0.19111 0.14825 0.68243 0.0
C419 C 0.19186 0.0959 0.69742 0.0
loop_
_geom_bond_atom_site_label_1
_geom_bond_atom_site_label_2
_geom_bond_distance
_geom_bond_site_symmetry_2
_ccdc_geom_bond_type
In0 O1 2.294 . S
In0 O2 2.326 . S
In0 O6 2.266 . S
In0 O7 2.326 . S
In0 O8 2.266 . S
In0 O9 2.326 . S
In0 O11 2.294 . S
In0 O12 2.326 . S
O1 In0 2.294 . S
O1 C10 1.240 . S
O2 In0 2.326 . S
O2 C10 1.252 . S
C3 O6 1.252 . S
C3 O7 1.260 . S
C4 O11 1.240 . S
C4 O12 1.252 . S
C5 O8 1.252 . S
C5 O9 1.260 . S
O6 In0 2.266 . S
O6 C3 1.252 . S
O7 In0 2.326 . S
O7 C3 1.260 . S
O8 In0 2.266 . S
O8 C5 1.252 . S
O9 In0 2.326 . S
O9 C5 1.260 . S
C10 O1 1.240 . S
C10 O2 1.252 . S
O11 In0 2.294 . S
O11 C4 1.240 . S
O12 In0 2.326 . S
O12 C4 1.252 . S
In13 O14 2.294 . S
In13 O15 2.326 . S
In13 O19 2.259 1_455 S
In13 O20 2.326 . S
In13 O21 2.266 . S
In13 O22 2.326 . S
In13 O24 2.294 . S
In13 O25 2.326 . S
O14 In13 2.294 . S
O14 C23 1.240 . S
O15 In13 2.326 . S
O15 C23 1.252 . S
C16 O19 1.256 . S
C16 O20 1.260 1_655 S
C17 O24 1.240 . S
C17 O25 1.252 . S
C18 O21 1.252 . S
C18 O22 1.260 . S
O19 In13 2.259 1_655 S
O19 C16 1.256 . S
O20 In13 2.326 . S
O20 C16 1.260 1_455 S
O21 In13 2.266 . S
O21 C18 1.252 . S
O22 In13 2.326 . S
O22 C18 1.260 . S
C23 O14 1.240 . S
C23 O15 1.252 . S
O24 In13 2.294 . S
O24 C17 1.240 . S
O25 In13 2.326 . S
O25 C17 1.252 . S
In26 O27 2.294 . S
In26 O28 2.326 . S
In26 O32 2.266 . S
In26 O33 2.326 . S
In26 O34 2.250 1_545 S
In26 O35 2.326 . S
In26 O37 2.294 . S
In26 O38 2.326 . S
O27 In26 2.294 . S
O27 C36 1.240 . S
O28 In26 2.326 . S
O28 C36 1.252 . S
C29 O32 1.252 . S
C29 O33 1.260 . S
C30 O37 1.240 . S
C30 O38 1.252 . S
C31 O34 1.252 . S
C31 O35 1.260 1_565 S
O32 In26 2.266 . S
O32 C29 1.252 . S
O33 In26 2.326 . S
O33 C29 1.260 . S
O34 In26 2.250 1_565 S
O34 C31 1.252 . S
O35 In26 2.326 . S
O35 C31 1.260 1_545 S
C36 O27 1.240 . S
C36 O28 1.252 . S
O37 In26 2.294 . S
O37 C30 1.240 . S
O38 In26 2.326 . S
O38 C30 1.252 . S
In39 O40 2.294 . S
In39 O41 2.326 . S
In39 O45 2.266 . S
In39 O46 2.326 . S
In39 O47 2.266 . S
In39 O48 2.326 . S
In39 O50 2.294 . S
In39 O51 2.326 . S
O40 In39 2.294 . S
O40 C49 1.240 . S
O41 In39 2.326 . S
O41 C49 1.252 . S
C42 O45 1.252 . S
C42 O46 1.260 . S
C43 O50 1.240 . S
C43 O51 1.252 . S
C44 O47 1.252 . S
C44 O48 1.260 . S
O45 In39 2.266 . S
O45 C42 1.252 . S
O46 In39 2.326 . S
O46 C42 1.260 . S
O47 In39 2.266 . S
O47 C44 1.252 . S
O48 In39 2.326 . S
O48 C44 1.260 . S
C49 O40 1.240 . S
C49 O41 1.252 . S
O50 In39 2.294 . S
O50 C43 1.240 . S
O51 In39 2.326 . S
O51 C43 1.252 . S
In52 O53 2.294 . S
In52 O54 2.326 . S
In52 O58 2.259 1_655 S
In52 O59 2.326 . S
In52 O60 2.266 . S
In52 O61 2.326 . S
In52 O63 2.294 . S
In52 O64 2.326 . S
O53 In52 2.294 . S
O53 C62 1.240 . S
O54 In52 2.326 . S
O54 C62 1.252 . S
C55 O58 1.256 . S
C55 O59 1.260 1_455 S
C56 O63 1.240 . S
C56 O64 1.252 . S
C57 O60 1.252 . S
C57 O61 1.260 . S
O58 In52 2.259 1_455 S
O58 C55 1.256 . S
O59 In52 2.326 . S
O59 C55 1.260 1_655 S
O60 In52 2.266 . S
O60 C57 1.252 . S
O61 In52 2.326 . S
O61 C57 1.260 . S
C62 O53 1.240 . S
C62 O54 1.252 . S
O63 In52 2.294 . S
O63 C56 1.240 . S
O64 In52 2.326 . S
O64 C56 1.252 . S
In65 O66 2.294 . S
In65 O67 2.326 . S
In65 O71 2.266 . S
In65 O72 2.326 . S
In65 O73 2.250 1_565 S
In65 O74 2.326 . S
In65 O76 2.294 . S
In65 O77 2.326 . S
O66 In65 2.294 . S
O66 C75 1.240 . S
O67 In65 2.326 . S
O67 C75 1.252 . S
C68 O71 1.252 . S
C68 O72 1.260 . S
C69 O76 1.240 . S
C69 O77 1.252 . S
C70 O73 1.252 . S
C70 O74 1.260 1_545 S
O71 In65 2.266 . S
O71 C68 1.252 . S
O72 In65 2.326 . S
O72 C68 1.260 . S
O73 In65 2.250 1_545 S
O73 C70 1.252 . S
O74 In65 2.326 . S
O74 C70 1.260 1_565 S
C75 O66 1.240 . S
C75 O67 1.252 . S
O76 In65 2.294 . S
O76 C69 1.240 . S
O77 In65 2.326 . S
O77 C69 1.252 . S
In78 O79 2.294 . S
In78 O80 2.326 . S
In78 O84 2.266 . S
In78 O85 2.326 . S
In78 O86 2.266 . S
In78 O87 2.326 . S
In78 O89 2.294 . S
In78 O90 2.326 . S
O79 In78 2.294 . S
O79 C88 1.240 . S
O80 In78 2.326 . S
O80 C88 1.252 . S
C81 O84 1.252 . S
C81 O85 1.260 . S
C82 O89 1.240 . S
C82 O90 1.252 . S
C83 O86 1.252 . S
C83 O87 1.260 . S
O84 In78 2.266 . S
O84 C81 1.252 . S
O85 In78 2.326 . S
O85 C81 1.260 . S
O86 In78 2.266 . S
O86 C83 1.252 . S
O87 In78 2.326 . S
O87 C83 1.260 . S
C88 O79 1.240 . S
C88 O80 1.252 . S
O89 In78 2.294 . S
O89 C82 1.240 . S
O90 In78 2.326 . S
O90 C82 1.252 . S
In91 O92 2.294 . S
In91 O93 2.326 . S
In91 O97 2.266 . S
In91 O98 2.326 . S
In91 O99 2.250 1_455 S
In91 O100 2.326 . S
In91 O102 2.294 . S
In91 O103 2.326 . S
O92 In91 2.294 . S
O92 C101 1.240 . S
O93 In91 2.326 . S
O93 C101 1.252 . S
C94 O97 1.252 . S
C94 O98 1.260 . S
C95 O102 1.240 . S
C95 O103 1.252 . S
C96 O99 1.252 . S
C96 O100 1.260 1_655 S
O97 In91 2.266 . S
O97 C94 1.252 . S
O98 In91 2.326 . S
O98 C94 1.260 . S
O99 In91 2.250 1_655 S
O99 C96 1.252 . S
O100 In91 2.326 . S
O100 C96 1.260 1_455 S
C101 O92 1.240 . S
C101 O93 1.252 . S
O102 In91 2.294 . S
O102 C95 1.240 . S
O103 In91 2.326 . S
O103 C95 1.252 . S
In104 O105 2.294 . S
In104 O106 2.326 . S
In104 O110 2.266 . S
In104 O111 2.326 . S
In104 O112 2.259 1_545 S
In104 O113 2.326 . S
In104 O115 2.294 . S
In104 O116 2.326 . S
O105 In104 2.294 . S
O105 C114 1.240 . S
O106 In104 2.326 . S
O106 C114 1.252 . S
C107 O110 1.252 . S
C107 O111 1.260 . S
C108 O115 1.240 . S
C108 O116 1.252 . S
C109 O112 1.256 . S
C109 O113 1.260 1_565 S
O110 In104 2.266 . S
O110 C107 1.252 . S
O111 In104 2.326 . S
O111 C107 1.260 . S
O112 In104 2.259 1_565 S
O112 C109 1.256 . S
O113 In104 2.326 . S
O113 C109 1.260 1_545 S
C114 O105 1.240 . S
C114 O106 1.252 . S
O115 In104 2.294 . S
O115 C108 1.240 . S
O116 In104 2.326 . S
O116 C108 1.252 . S
In117 O118 2.294 . S
In117 O119 2.326 . S
In117 O123 2.266 . S
In117 O124 2.326 . S
In117 O125 2.266 . S
In117 O126 2.326 . S
In117 O128 2.294 . S
In117 O129 2.326 . S
O118 In117 2.294 . S
O118 C127 1.240 . S
O119 In117 2.326 . S
O119 C127 1.252 . S
C120 O123 1.252 . S
C120 O124 1.260 . S
C121 O128 1.240 . S
C121 O129 1.252 . S
C122 O125 1.252 . S
C122 O126 1.260 . S
O123 In117 2.266 . S
O123 C120 1.252 . S
O124 In117 2.326 . S
O124 C120 1.260 . S
O125 In117 2.266 . S
O125 C122 1.252 . S
O126 In117 2.326 . S
O126 C122 1.260 . S
C127 O118 1.240 . S
C127 O119 1.252 . S
O128 In117 2.294 . S
O128 C121 1.240 . S
O129 In117 2.326 . S
O129 C121 1.252 . S
In130 O131 2.294 . S
In130 O132 2.326 . S
In130 O136 2.250 1_655 S
In130 O137 2.326 . S
In130 O138 2.266 . S
In130 O139 2.326 . S
In130 O141 2.294 . S
In130 O142 2.326 . S
O131 In130 2.294 . S
O131 C140 1.240 . S
O132 In130 2.326 . S
O132 C140 1.252 . S
C133 O136 1.252 . S
C133 O137 1.260 1_455 S
C134 O141 1.240 . S
C134 O142 1.252 . S
C135 O138 1.252 . S
C135 O139 1.260 . S
O136 In130 2.250 1_455 S
O136 C133 1.252 . S
O137 In130 2.326 . S
O137 C133 1.260 1_655 S
O138 In130 2.266 . S
O138 C135 1.252 . S
O139 In130 2.326 . S
O139 C135 1.260 . S
C140 O131 1.240 . S
C140 O132 1.252 . S
O141 In130 2.294 . S
O141 C134 1.240 . S
O142 In130 2.326 . S
O142 C134 1.252 . S
In143 O144 2.294 . S
In143 O145 2.326 . S
In143 O149 2.259 1_565 S
In143 O150 2.326 . S
In143 O151 2.266 . S
In143 O152 2.326 . S
In143 O154 2.294 . S
In143 O155 2.326 . S
O144 In143 2.294 . S
O144 C153 1.240 . S
O145 In143 2.326 . S
O145 C153 1.252 . S
C146 O149 1.256 . S
C146 O150 1.260 1_545 S
C147 O154 1.240 . S
C147 O155 1.252 . S
C148 O151 1.252 . S
C148 O152 1.260 . S
O149 In143 2.259 1_545 S
O149 C146 1.256 . S
O150 In143 2.326 . S
O150 C146 1.260 1_565 S
O151 In143 2.266 . S
O151 C148 1.252 . S
O152 In143 2.326 . S
O152 C148 1.260 . S
C153 O144 1.240 . S
C153 O145 1.252 . S
O154 In143 2.294 . S
O154 C147 1.240 . S
O155 In143 2.326 . S
O155 C147 1.252 . S
C156 C157 1.369 . S
C156 C158 1.419 . S
C156 H160 0.930 . S
C157 C156 1.369 . S
C157 C166 1.429 . S
C158 C156 1.419 . S
C158 C159 1.363 . S
C158 H161 0.929 . S
C159 C158 1.363 . S
C159 C165 1.428 . S
H160 C156 0.930 . S
H161 C158 0.929 . S
S162 N163 1.613 . S
S162 N164 1.610 . S
N163 S162 1.613 . S
N163 C166 1.350 . S
N164 S162 1.610 . S
N164 C165 1.351 . S
C165 C159 1.428 . S
C165 N164 1.351 . S
C165 C166 1.434 . S
C166 C157 1.429 . S
C166 N163 1.350 . S
C166 C165 1.434 . S
C167 C168 1.369 1_655 S
C167 C169 1.419 . S
C167 H171 0.930 . S
C168 C167 1.369 1_455 S
C168 C177 1.429 . S
C169 C167 1.419 . S
C169 C170 1.363 . S
C169 H172 0.929 . S
C170 C169 1.363 . S
C170 C176 1.428 1_655 S
H171 C167 0.930 . S
H172 C169 0.929 . S
S173 N174 1.613 . S
S173 N175 1.610 . S
N174 S173 1.613 . S
N174 C177 1.350 . S
N175 S173 1.610 . S
N175 C176 1.351 . S
C176 C170 1.428 1_455 S
C176 N175 1.351 . S
C176 C177 1.434 . S
C177 C168 1.429 . S
C177 N174 1.350 . S
C177 C176 1.434 . S
C178 C179 1.369 1_545 S
C178 C180 1.419 . S
C178 H182 0.930 . S
C179 C178 1.369 1_565 S
C179 C188 1.429 . S
C180 C178 1.419 . S
C180 C181 1.363 . S
C180 H183 0.929 . S
C181 C180 1.363 . S
C181 C187 1.428 1_545 S
H182 C178 0.930 . S
H183 C180 0.929 . S
S184 N185 1.613 . S
S184 N186 1.610 . S
N185 S184 1.613 . S
N185 C188 1.350 . S
N186 S184 1.610 . S
N186 C187 1.351 . S
C187 C181 1.428 1_565 S
C187 N186 1.351 . S
C187 C188 1.434 . S
C188 C179 1.429 . S
C188 N185 1.350 . S
C188 C187 1.434 . S
C189 C190 1.369 . S
C189 C191 1.419 . S
C189 H193 0.930 . S
C190 C189 1.369 . S
C190 C199 1.429 . S
C191 C189 1.419 . S
C191 C192 1.363 . S
C191 H194 0.929 . S
C192 C191 1.363 . S
C192 C198 1.428 . S
H193 C189 0.930 . S
H194 C191 0.929 . S
S195 N196 1.613 . S
S195 N197 1.610 . S
N196 S195 1.613 . S
N196 C199 1.350 . S
N197 S195 1.610 . S
N197 C198 1.351 . S
C198 C192 1.428 . S
C198 N197 1.351 . S
C198 C199 1.434 . S
C199 C190 1.429 . S
C199 N196 1.350 . S
C199 C198 1.434 . S
C200 C201 1.369 . S
C200 C202 1.419 . S
C200 H204 0.930 . S
C201 C200 1.369 . S
C201 C210 1.429 1_655 S
C202 C200 1.419 . S
C202 C203 1.363 1_655 S
C202 H205 0.929 . S
C203 C202 1.363 1_455 S
C203 C209 1.428 . S
H204 C200 0.930 . S
H205 C202 0.929 . S
S206 N207 1.613 . S
S206 N208 1.610 . S
N207 S206 1.613 . S
N207 C210 1.350 . S
N208 S206 1.610 . S
N208 C209 1.351 . S
C209 C203 1.428 . S
C209 N208 1.351 . S
C209 C210 1.434 . S
C210 C201 1.429 1_455 S
C210 N207 1.350 . S
C210 C209 1.434 . S
C211 C212 1.369 1_565 S
C211 C213 1.419 . S
C211 H215 0.930 . S
C212 C211 1.369 1_545 S
C212 C221 1.429 . S
C213 C211 1.419 . S
C213 C214 1.363 . S
C213 H216 0.929 . S
C214 C213 1.363 . S
C214 C220 1.428 1_565 S
H215 C211 0.930 . S
H216 C213 0.929 . S
S217 N218 1.613 . S
S217 N219 1.610 . S
N218 S217 1.613 . S
N218 C221 1.350 . S
N219 S217 1.610 . S
N219 C220 1.351 . S
C220 C214 1.428 1_545 S
C220 N219 1.351 . S
C220 C221 1.434 . S
C221 C212 1.429 . S
C221 N218 1.350 . S
C221 C220 1.434 . S
C222 C223 1.369 . S
C222 C224 1.419 . S
C222 H226 0.930 . S
C223 C222 1.369 . S
C223 C232 1.429 . S
C224 C222 1.419 . S
C224 C225 1.363 . S
C224 H227 0.929 . S
C225 C224 1.363 . S
C225 C231 1.428 . S
H226 C222 0.930 . S
H227 C224 0.929 . S
S228 N229 1.613 . S
S228 N230 1.610 . S
N229 S228 1.613 . S
N229 C232 1.350 . S
N230 S228 1.610 . S
N230 C231 1.351 . S
C231 C225 1.428 . S
C231 N230 1.351 . S
C231 C232 1.434 . S
C232 C223 1.429 . S
C232 N229 1.350 . S
C232 C231 1.434 . S
C233 C234 1.369 . S
C233 C235 1.419 . S
C233 H237 0.930 . S
C234 C233 1.369 . S
C234 C243 1.429 . S
C235 C233 1.419 . S
C235 C236 1.363 . S
C235 H238 0.929 . S
C236 C235 1.363 . S
C236 C242 1.428 . S
H237 C233 0.930 . S
H238 C235 0.929 . S
S239 N240 1.613 . S
S239 N241 1.610 . S
N240 S239 1.613 . S
N240 C243 1.350 . S
N241 S239 1.610 . S
N241 C242 1.351 . S
C242 C236 1.428 . S
C242 N241 1.351 . S
C242 C243 1.434 . S
C243 C234 1.429 . S
C243 N240 1.350 . S
C243 C242 1.434 . S
C244 C245 1.369 . S
C244 C246 1.419 . S
C244 H248 0.930 . S
C245 C244 1.369 . S
C245 C254 1.429 . S
C246 C244 1.419 . S
C246 C247 1.363 . S
C246 H249 0.929 . S
C247 C246 1.363 . S
C247 C253 1.428 . S
H248 C244 0.930 . S
H249 C246 0.929 . S
S250 N251 1.613 . S
S250 N252 1.610 . S
N251 S250 1.613 . S
N251 C254 1.350 . S
N252 S250 1.610 . S
N252 C253 1.351 . S
C253 C247 1.428 . S
C253 N252 1.351 . S
C253 C254 1.434 . S
C254 C245 1.429 . S
C254 N251 1.350 . S
C254 C253 1.434 . S
C255 C256 1.369 . S
C255 C257 1.419 . S
C255 H259 0.930 . S
C256 C255 1.369 . S
C256 C265 1.429 . S
C257 C255 1.419 . S
C257 C258 1.363 . S
C257 H260 0.929 . S
C258 C257 1.363 . S
C258 C264 1.428 . S
H259 C255 0.930 . S
H260 C257 0.929 . S
S261 N262 1.613 . S
S261 N263 1.610 . S
N262 S261 1.613 . S
N262 C265 1.350 . S
N263 S261 1.610 . S
N263 C264 1.351 . S
C264 C258 1.428 . S
C264 N263 1.351 . S
C264 C265 1.434 . S
C265 C256 1.429 . S
C265 N262 1.350 . S
C265 C264 1.434 . S
C266 C267 1.369 . S
C266 C268 1.419 . S
C266 H270 0.930 . S
C267 C266 1.369 . S
C267 C276 1.429 . S
C268 C266 1.419 . S
C268 C269 1.363 . S
C268 H271 0.929 . S
C269 C268 1.363 . S
C269 C275 1.428 . S
H270 C266 0.930 . S
H271 C268 0.929 . S
S272 N273 1.613 . S
S272 N274 1.610 . S
N273 S272 1.613 . S
N273 C276 1.350 . S
N274 S272 1.610 . S
N274 C275 1.351 . S
C275 C269 1.428 . S
C275 N274 1.351 . S
C275 C276 1.434 . S
C276 C267 1.429 . S
C276 N273 1.350 . S
C276 C275 1.434 . S
C277 C278 1.369 . S
C277 C279 1.419 . S
C277 H281 0.930 . S
C278 C277 1.369 . S
C278 C287 1.429 . S
C279 C277 1.419 . S
C279 C280 1.363 . S
C279 H282 0.929 . S
C280 C279 1.363 . S
C280 C286 1.428 . S
H281 C277 0.930 . S
H282 C279 0.929 . S
S283 N284 1.613 . S
S283 N285 1.610 . S
N284 S283 1.613 . S
N284 C287 1.350 . S
N285 S283 1.610 . S
N285 C286 1.351 . S
C286 C280 1.428 . S
C286 N285 1.351 . S
C286 C287 1.434 . S
C287 C278 1.429 . S
C287 N284 1.350 . S
C287 C286 1.434 . S
C288 C289 1.369 . S
C288 C290 1.419 1_565 S
C288 H292 0.930 . S
C289 C288 1.369 . S
C289 C298 1.429 1_556 S
C290 C288 1.419 1_545 S
C290 C291 1.363 1_556 S
C290 H293 0.929 . S
C291 C290 1.363 1_554 S
C291 C297 1.428 . S
H292 C288 0.930 . S
H293 C290 0.929 . S
S294 N295 1.613 . S
S294 N296 1.626 . S
N295 S294 1.613 . S
N295 C298 1.350 . S
N296 S294 1.626 . S
N296 C297 1.346 1_565 S
C297 C291 1.428 . S
C297 N296 1.346 1_545 S
C297 C298 1.434 1_545 S
C298 C289 1.429 1_554 S
C298 N295 1.350 . S
C298 C297 1.434 1_565 S
C299 C300 1.369 . S
C299 C301 1.419 . S
C299 H303 0.930 . S
C300 C299 1.369 . S
C300 C309 1.429 . S
C301 C299 1.419 . S
C301 C302 1.363 . S
C301 H304 0.929 . S
C302 C301 1.363 . S
C302 C308 1.428 . S
H303 C299 0.930 . S
H304 C301 0.929 . S
S305 N306 1.613 . S
S305 N307 1.610 . S
N306 S305 1.613 . S
N306 C309 1.350 . S
N307 S305 1.610 . S
N307 C308 1.351 . S
C308 C302 1.428 . S
C308 N307 1.351 . S
C308 C309 1.434 . S
C309 C300 1.429 . S
C309 N306 1.350 . S
C309 C308 1.434 . S
C310 C311 1.369 . S
C310 C312 1.419 1_655 S
C310 H314 0.932 1_655 S
C311 C310 1.369 . S
C311 C320 1.429 . S
C312 C310 1.419 1_455 S
C312 C313 1.363 . S
C312 H315 0.929 . S
C313 C312 1.363 . S
C313 C319 1.418 1_455 S
H314 C310 0.932 1_455 S
H315 C312 0.929 . S
S316 N317 1.613 . S
S316 N318 1.610 . S
N317 S316 1.613 . S
N317 C320 1.350 . S
N318 S316 1.610 . S
N318 C319 1.350 . S
C319 C313 1.418 1_655 S
C319 N318 1.350 . S
C319 C320 1.447 . S
C320 C311 1.429 . S
C320 N317 1.350 . S
C320 C319 1.447 . S
C321 C322 1.369 . S
C321 C323 1.419 1_564 S
C321 H325 0.930 . S
C322 C321 1.369 . S
C322 C331 1.429 . S
C323 C321 1.419 1_546 S
C323 C324 1.363 . S
C323 H326 0.929 . S
C324 C323 1.363 . S
C324 C330 1.428 . S
H325 C321 0.930 . S
H326 C323 0.929 . S
S327 N328 1.613 1_545 S
S327 N329 1.610 1_554 S
N328 S327 1.613 1_565 S
N328 C331 1.350 . S
N329 S327 1.610 1_556 S
N329 C330 1.351 . S
C330 C324 1.428 . S
C330 N329 1.351 . S
C330 C331 1.434 1_546 S
C331 C322 1.429 . S
C331 N328 1.350 . S
C331 C330 1.434 1_564 S
C332 C333 1.369 . S
C332 C334 1.419 . S
C332 H336 0.930 . S
C333 C332 1.369 . S
C333 C342 1.429 . S
C334 C332 1.419 . S
C334 C335 1.363 . S
C334 H337 0.929 . S
C335 C334 1.363 . S
C335 C341 1.428 . S
H336 C332 0.930 . S
H337 C334 0.929 . S
S338 N339 1.613 . S
S338 N340 1.610 . S
N339 S338 1.613 . S
N339 C342 1.350 . S
N340 S338 1.610 . S
N340 C341 1.351 . S
C341 C335 1.428 . S
C341 N340 1.351 . S
C341 C342 1.434 . S
C342 C333 1.429 . S
C342 N339 1.350 . S
C342 C341 1.434 . S
C343 C344 1.370 . S
C343 C345 1.417 1_455 S
C343 H347 0.930 1_455 S
C344 C343 1.370 . S
C344 C353 1.429 . S
C345 C343 1.417 1_655 S
C345 C346 1.363 . S
C345 H348 0.929 . S
C346 C345 1.363 . S
C346 C352 1.428 1_655 S
H347 C343 0.930 1_655 S
H348 C345 0.929 . S
S349 N350 1.613 . S
S349 N351 1.610 . S
N350 S349 1.613 . S
N350 C353 1.350 . S
N351 S349 1.610 . S
N351 C352 1.351 . S
C352 C346 1.428 1_455 S
C352 N351 1.351 . S
C352 C353 1.434 . S
C353 C344 1.429 . S
C353 N350 1.350 . S
C353 C352 1.434 . S
C354 C355 1.369 . S
C354 C356 1.419 . S
C354 H358 0.930 . S
C355 C354 1.369 . S
C355 C364 1.429 1_556 S
C356 C354 1.419 . S
C356 C357 1.363 1_556 S
C356 H359 0.929 . S
C357 C356 1.363 1_554 S
C357 C363 1.428 . S
H358 C354 0.930 . S
H359 C356 0.929 . S
S360 N361 1.613 1_455 S
S360 N362 1.610 . S
N361 S360 1.613 1_655 S
N361 C364 1.350 1_655 S
N362 S360 1.610 . S
N362 C363 1.351 . S
C363 C357 1.428 . S
C363 N362 1.351 . S
C363 C364 1.434 . S
C364 C355 1.429 1_554 S
C364 N361 1.350 1_455 S
C364 C363 1.434 . S
C365 C366 1.369 . S
C365 C367 1.419 . S
C365 H369 0.930 . S
C366 C365 1.369 . S
C366 C375 1.429 . S
C367 C365 1.419 . S
C367 C368 1.363 . S
C367 H370 0.929 . S
C368 C367 1.363 . S
C368 C374 1.428 . S
H369 C365 0.930 . S
H370 C367 0.929 . S
S371 N372 1.613 . S
S371 N373 1.610 . S
N372 S371 1.613 . S
N372 C375 1.350 . S
N373 S371 1.610 . S
N373 C374 1.351 . S
C374 C368 1.428 . S
C374 N373 1.351 . S
C374 C375 1.434 . S
C375 C366 1.429 . S
C375 N372 1.350 . S
C375 C374 1.434 . S
C376 C377 1.369 . S
C376 C378 1.419 . S
C376 H380 0.930 . S
C377 C376 1.369 . S
C377 C386 1.429 . S
C378 C376 1.419 . S
C378 C379 1.363 . S
C378 H381 0.929 . S
C379 C378 1.363 . S
C379 C385 1.428 . S
H380 C376 0.930 . S
H381 C378 0.929 . S
S382 N383 1.613 . S
S382 N384 1.610 . S
N383 S382 1.613 . S
N383 C386 1.350 . S
N384 S382 1.610 . S
N384 C385 1.351 . S
C385 C379 1.428 . S
C385 N384 1.351 . S
C385 C386 1.434 . S
C386 C377 1.429 . S
C386 N383 1.350 . S
C386 C385 1.434 . S
C387 C388 1.369 . S
C387 C389 1.419 . S
C387 H391 0.930 . S
C388 C387 1.369 . S
C388 C397 1.429 1_554 S
C389 C387 1.419 . S
C389 C390 1.363 1_554 S
C389 H392 0.929 . S
C390 C389 1.363 1_556 S
C390 C396 1.428 . S
H391 C387 0.930 . S
H392 C389 0.929 . S
S393 N394 1.613 . S
S393 N395 1.610 . S
N394 S393 1.613 . S
N394 C397 1.350 . S
N395 S393 1.610 . S
N395 C396 1.351 . S
C396 C390 1.428 . S
C396 N395 1.351 . S
C396 C397 1.434 . S
C397 C388 1.429 1_556 S
C397 N394 1.350 . S
C397 C396 1.434 . S
C398 C399 1.369 . S
C398 C400 1.419 . S
C398 H402 0.930 . S
C399 C398 1.369 . S
C399 C408 1.429 . S
C400 C398 1.419 . S
C400 C401 1.363 . S
C400 H403 0.929 . S
C401 C400 1.363 . S
C401 C407 1.428 . S
H402 C398 0.930 . S
H403 C400 0.929 . S
S404 N405 1.613 . S
S404 N406 1.610 1_565 S
N405 S404 1.613 . S
N405 C408 1.350 . S
N406 S404 1.610 1_545 S
N406 C407 1.351 1_545 S
C407 C401 1.428 . S
C407 N406 1.351 1_565 S
C407 C408 1.434 . S
C408 C399 1.429 . S
C408 N405 1.350 . S
C408 C407 1.434 . S
C409 C410 1.369 . S
C409 C411 1.419 . S
C409 H413 0.930 . S
C410 C409 1.369 . S
C410 C419 1.429 . S
C411 C409 1.419 . S
C411 C412 1.363 . S
C411 H414 0.929 . S
C412 C411 1.363 . S
C412 C418 1.428 . S
H413 C409 0.930 . S
H414 C411 0.929 . S
S415 N416 1.613 . S
S415 N417 1.610 . S
N416 S415 1.613 . S
N416 C419 1.350 . S
N417 S415 1.610 . S
N417 C418 1.351 . S
C418 C412 1.428 . S
C418 N417 1.351 . S
C418 C419 1.434 . S
C419 C410 1.429 . S
C419 N416 1.350 . S
C419 C418 1.434 . S
C157 C43 1.587 . S
C159 C10 1.593 . S
C168 C17 1.594 . S
C170 C56 1.587 . S
C179 C75 1.591 . S
C181 C36 1.590 . S
C190 C82 1.592 . S
C192 C121 1.589 . S
C201 C134 1.587 . S
C203 C101 1.593 . S
C212 C114 1.593 . S
C214 C147 1.588 . S
C223 C108 1.627 . S
C225 C4 1.627 . S
C234 C23 1.627 . S
C236 C127 1.627 . S
C245 C30 1.626 . S
C247 C140 1.626 . S
C256 C49 1.627 . S
C258 C153 1.626 . S
C267 C88 1.625 . S
C269 C62 1.626 . S
C278 C95 1.627 . S
C280 C69 1.626 . S
C289 C94 1.353 . S
C291 C3 1.353 . S
C300 C18 1.354 . S
C302 C107 1.354 . S
C311 C29 1.351 . S
C313 C122 1.351 . S
C322 C44 1.350 . S
C324 C135 1.351 . S
C333 C148 1.352 . S
C335 C57 1.353 . S
C344 C68 1.351 . S
C346 C83 1.352 . S
C355 C133 1.432 . S
C357 C5 1.433 . S
C366 C146 1.432 . S
C368 C16 1.433 . S
C377 C81 1.432 . S
C379 C31 1.433 . S
C388 C42 1.432 . S
C390 C96 1.433 . S
C399 C55 1.432 . S
C401 C109 1.432 . S
C410 C70 1.432 . S
C412 C120 1.432 . S
