# Generated by pormake.
# Topology ukn, (4)-cn, num edge types: 1
# Building blocks:
#     Node 0, Type 0, BuildingBlock: GALJAG_clean_sbu_0, # of connection points: 4
#     Node 1, Type 0, BuildingBlock: GALJAG_clean_sbu_0, # of connection points: 4
#     Node 2, Type 0, BuildingBlock: GALJAG_clean_sbu_0, # of connection points: 4
#     Node 3, Type 0, BuildingBlock: GALJAG_clean_sbu_0, # of connection points: 4
#     Node 4, Type 0, BuildingBlock: GALJAG_clean_sbu_0, # of connection points: 4
#     Node 5, Type 0, BuildingBlock: GALJAG_clean_sbu_0, # of connection points: 4
#     Node 6, Type 0, BuildingBlock: GALJAG_clean_sbu_0, # of connection points: 4
#     Node 7, Type 0, BuildingBlock: GALJAG_clean_sbu_0, # of connection points: 4
#     Node 8, Type 0, BuildingBlock: GALJAG_clean_sbu_0, # of connection points: 4
#     Node 9, Type 0, BuildingBlock: GALJAG_clean_sbu_0, # of connection points: 4
#     Node 10, Type 0, BuildingBlock: GALJAG_clean_sbu_0, # of connection points: 4
#     Node 11, Type 0, BuildingBlock: GALJAG_clean_sbu_0, # of connection points: 4
#     Node 12, Type 0, BuildingBlock: GALJAG_clean_sbu_0, # of connection points: 4
#     Node 13, Type 0, BuildingBlock: GALJAG_clean_sbu_0, # of connection points: 4
#     Node 14, Type 0, BuildingBlock: GALJAG_clean_sbu_0, # of connection points: 4
#     Node 15, Type 0, BuildingBlock: GALJAG_clean_sbu_0, # of connection points: 4
#     Node 16, Type 0, BuildingBlock: GALJAG_clean_sbu_0, # of connection points: 4
#     Node 17, Type 0, BuildingBlock: GALJAG_clean_sbu_0, # of connection points: 4
#     Node 18, Type 0, BuildingBlock: GALJAG_clean_sbu_0, # of connection points: 4
#     Node 19, Type 0, BuildingBlock: GALJAG_clean_sbu_0, # of connection points: 4
#     Node 20, Type 0, BuildingBlock: GALJAG_clean_sbu_0, # of connection points: 4
#     Node 21, Type 0, BuildingBlock: GALJAG_clean_sbu_0, # of connection points: 4
#     Node 22, Type 0, BuildingBlock: GALJAG_clean_sbu_0, # of connection points: 4
#     Node 23, Type 0, BuildingBlock: GALJAG_clean_sbu_0, # of connection points: 4
#     Node 24, Type 0, BuildingBlock: GALJAG_clean_sbu_0, # of connection points: 4
#     Node 25, Type 0, BuildingBlock: GALJAG_clean_sbu_0, # of connection points: 4
#     Node 26, Type 0, BuildingBlock: GALJAG_clean_sbu_0, # of connection points: 4
#     Node 27, Type 0, BuildingBlock: GALJAG_clean_sbu_0, # of connection points: 4
#     Node 28, Type 0, BuildingBlock: GALJAG_clean_sbu_0, # of connection points: 4
#     Node 29, Type 0, BuildingBlock: GALJAG_clean_sbu_0, # of connection points: 4
#     Node 30, Type 0, BuildingBlock: GALJAG_clean_sbu_0, # of connection points: 4
#     Node 31, Type 0, BuildingBlock: GALJAG_clean_sbu_0, # of connection points: 4
#     Node 32, Type 0, BuildingBlock: GALJAG_clean_sbu_0, # of connection points: 4
#     Node 33, Type 0, BuildingBlock: GALJAG_clean_sbu_0, # of connection points: 4
#     Node 34, Type 0, BuildingBlock: GALJAG_clean_sbu_0, # of connection points: 4
#     Node 35, Type 0, BuildingBlock: GALJAG_clean_sbu_0, # of connection points: 4
#     Edge 36, Type (0, 0), BuildingBlock: KIFKEQ_clean_linker_1, # of connection points: 2
#     Edge 37, Type (0, 0), BuildingBlock: KIFKEQ_clean_linker_1, # of connection points: 2
#     Edge 38, Type (0, 0), BuildingBlock: KIFKEQ_clean_linker_1, # of connection points: 2
#     Edge 39, Type (0, 0), BuildingBlock: KIFKEQ_clean_linker_1, # of connection points: 2
#     Edge 40, Type (0, 0), BuildingBlock: KIFKEQ_clean_linker_1, # of connection points: 2
#     Edge 41, Type (0, 0), BuildingBlock: KIFKEQ_clean_linker_1, # of connection points: 2
#     Edge 42, Type (0, 0), BuildingBlock: KIFKEQ_clean_linker_1, # of connection points: 2
#     Edge 43, Type (0, 0), BuildingBlock: KIFKEQ_clean_linker_1, # of connection points: 2
#     Edge 44, Type (0, 0), BuildingBlock: KIFKEQ_clean_linker_1, # of connection points: 2
#     Edge 45, Type (0, 0), BuildingBlock: KIFKEQ_clean_linker_1, # of connection points: 2
#     Edge 46, Type (0, 0), BuildingBlock: KIFKEQ_clean_linker_1, # of connection points: 2
#     Edge 47, Type (0, 0), BuildingBlock: KIFKEQ_clean_linker_1, # of connection points: 2
#     Edge 48, Type (0, 0), BuildingBlock: KIFKEQ_clean_linker_1, # of connection points: 2
#     Edge 49, Type (0, 0), BuildingBlock: KIFKEQ_clean_linker_1, # of connection points: 2
#     Edge 50, Type (0, 0), BuildingBlock: KIFKEQ_clean_linker_1, # of connection points: 2
#     Edge 51, Type (0, 0), BuildingBlock: KIFKEQ_clean_linker_1, # of connection points: 2
#     Edge 52, Type (0, 0), BuildingBlock: KIFKEQ_clean_linker_1, # of connection points: 2
#     Edge 53, Type (0, 0), BuildingBlock: KIFKEQ_clean_linker_1, # of connection points: 2
#     Edge 54, Type (0, 0), BuildingBlock: KIFKEQ_clean_linker_1, # of connection points: 2
#     Edge 55, Type (0, 0), BuildingBlock: KIFKEQ_clean_linker_1, # of connection points: 2
#     Edge 56, Type (0, 0), BuildingBlock: KIFKEQ_clean_linker_1, # of connection points: 2
#     Edge 57, Type (0, 0), BuildingBlock: KIFKEQ_clean_linker_1, # of connection points: 2
#     Edge 58, Type (0, 0), BuildingBlock: KIFKEQ_clean_linker_1, # of connection points: 2
#     Edge 59, Type (0, 0), BuildingBlock: KIFKEQ_clean_linker_1, # of connection points: 2
#     Edge 60, Type (0, 0), BuildingBlock: KIFKEQ_clean_linker_1, # of connection points: 2
#     Edge 61, Type (0, 0), BuildingBlock: KIFKEQ_clean_linker_1, # of connection points: 2
#     Edge 62, Type (0, 0), BuildingBlock: KIFKEQ_clean_linker_1, # of connection points: 2
#     Edge 63, Type (0, 0), BuildingBlock: KIFKEQ_clean_linker_1, # of connection points: 2
#     Edge 64, Type (0, 0), BuildingBlock: KIFKEQ_clean_linker_1, # of connection points: 2
#     Edge 65, Type (0, 0), BuildingBlock: KIFKEQ_clean_linker_1, # of connection points: 2
#     Edge 66, Type (0, 0), BuildingBlock: KIFKEQ_clean_linker_1, # of connection points: 2
#     Edge 67, Type (0, 0), BuildingBlock: KIFKEQ_clean_linker_1, # of connection points: 2
#     Edge 68, Type (0, 0), BuildingBlock: KIFKEQ_clean_linker_1, # of connection points: 2
#     Edge 69, Type (0, 0), BuildingBlock: KIFKEQ_clean_linker_1, # of connection points: 2
#     Edge 70, Type (0, 0), BuildingBlock: KIFKEQ_clean_linker_1, # of connection points: 2
#     Edge 71, Type (0, 0), BuildingBlock: KIFKEQ_clean_linker_1, # of connection points: 2
#     Edge 72, Type (0, 0), BuildingBlock: KIFKEQ_clean_linker_1, # of connection points: 2
#     Edge 73, Type (0, 0), BuildingBlock: KIFKEQ_clean_linker_1, # of connection points: 2
#     Edge 74, Type (0, 0), BuildingBlock: KIFKEQ_clean_linker_1, # of connection points: 2
#     Edge 75, Type (0, 0), BuildingBlock: KIFKEQ_clean_linker_1, # of connection points: 2
#     Edge 76, Type (0, 0), BuildingBlock: KIFKEQ_clean_linker_1, # of connection points: 2
#     Edge 77, Type (0, 0), BuildingBlock: KIFKEQ_clean_linker_1, # of connection points: 2
#     Edge 78, Type (0, 0), BuildingBlock: KIFKEQ_clean_linker_1, # of connection points: 2
#     Edge 79, Type (0, 0), BuildingBlock: KIFKEQ_clean_linker_1, # of connection points: 2
#     Edge 80, Type (0, 0), BuildingBlock: KIFKEQ_clean_linker_1, # of connection points: 2
#     Edge 81, Type (0, 0), BuildingBlock: KIFKEQ_clean_linker_1, # of connection points: 2
#     Edge 82, Type (0, 0), BuildingBlock: KIFKEQ_clean_linker_1, # of connection points: 2
#     Edge 83, Type (0, 0), BuildingBlock: KIFKEQ_clean_linker_1, # of connection points: 2
#     Edge 84, Type (0, 0), BuildingBlock: KIFKEQ_clean_linker_1, # of connection points: 2
#     Edge 85, Type (0, 0), BuildingBlock: KIFKEQ_clean_linker_1, # of connection points: 2
#     Edge 86, Type (0, 0), BuildingBlock: KIFKEQ_clean_linker_1, # of connection points: 2
#     Edge 87, Type (0, 0), BuildingBlock: KIFKEQ_clean_linker_1, # of connection points: 2
#     Edge 88, Type (0, 0), BuildingBlock: KIFKEQ_clean_linker_1, # of connection points: 2
#     Edge 89, Type (0, 0), BuildingBlock: KIFKEQ_clean_linker_1, # of connection points: 2
#     Edge 90, Type (0, 0), BuildingBlock: KIFKEQ_clean_linker_1, # of connection points: 2
#     Edge 91, Type (0, 0), BuildingBlock: KIFKEQ_clean_linker_1, # of connection points: 2
#     Edge 92, Type (0, 0), BuildingBlock: KIFKEQ_clean_linker_1, # of connection points: 2
#     Edge 93, Type (0, 0), BuildingBlock: KIFKEQ_clean_linker_1, # of connection points: 2
#     Edge 94, Type (0, 0), BuildingBlock: KIFKEQ_clean_linker_1, # of connection points: 2
#     Edge 95, Type (0, 0), BuildingBlock: KIFKEQ_clean_linker_1, # of connection points: 2
#     Edge 96, Type (0, 0), BuildingBlock: KIFKEQ_clean_linker_1, # of connection points: 2
#     Edge 97, Type (0, 0), BuildingBlock: KIFKEQ_clean_linker_1, # of connection points: 2
#     Edge 98, Type (0, 0), BuildingBlock: KIFKEQ_clean_linker_1, # of connection points: 2
#     Edge 99, Type (0, 0), BuildingBlock: KIFKEQ_clean_linker_1, # of connection points: 2
#     Edge 100, Type (0, 0), BuildingBlock: KIFKEQ_clean_linker_1, # of connection points: 2
#     Edge 101, Type (0, 0), BuildingBlock: KIFKEQ_clean_linker_1, # of connection points: 2
#     Edge 102, Type (0, 0), BuildingBlock: KIFKEQ_clean_linker_1, # of connection points: 2
#     Edge 103, Type (0, 0), BuildingBlock: KIFKEQ_clean_linker_1, # of connection points: 2
#     Edge 104, Type (0, 0), BuildingBlock: KIFKEQ_clean_linker_1, # of connection points: 2
#     Edge 105, Type (0, 0), BuildingBlock: KIFKEQ_clean_linker_1, # of connection points: 2
#     Edge 106, Type (0, 0), BuildingBlock: KIFKEQ_clean_linker_1, # of connection points: 2
#     Edge 107, Type (0, 0), BuildingBlock: KIFKEQ_clean_linker_1, # of connection points: 2
# Relax obj value: 0.060
# Max RMSD: 0.091
# Mean RMSD: 0.091
data_MOF--net-ukn--node1-GALJAG_clean_sbu_0--edge1-KIFKEQ_clean_linker_1
_symmetry_space_group_name_H-M    P1
_symmetry_Int_Tables_number       1
_symmetry_cell_setting            triclinic
loop_
_symmetry_equiv_pos_as_xyz
'x, y, z'
_cell_length_a     105.84814
_cell_length_b     105.79371
_cell_length_c     28.334997
_cell_angle_alpha  90.015305
_cell_angle_beta   90.001641
_cell_angle_gamma 119.98441
loop_
_atom_site_label
_atom_site_type_symbol
_atom_site_fract_x
_atom_site_fract_y
_atom_site_fract_z
_atom_type_partial_charge
In0 In 0.0739 0.29739 0.08308 0.0
O1 O 0.08422 0.28313 0.09609 0.0
O2 O 0.09809 0.30578 0.08205 0.0
C3 C 0.04543 0.27805 0.07156 0.0
C4 C 0.07529 0.30885 0.16922 0.0
C5 C 0.07835 0.30953 0.99656 0.0
O6 O 0.05508 0.27443 0.06705 0.0
O7 O 0.05016 0.29114 0.0835 0.0
O8 O 0.07893 0.31652 0.03354 0.0
O9 O 0.07565 0.29666 0.00359 0.0
C10 C 0.09709 0.29364 0.09104 0.0
O11 O 0.07752 0.31617 0.13176 0.0
O12 O 0.07221 0.2958 0.16296 0.0
In13 In 0.69289 0.77342 0.08132 0.0
O14 O 0.7076 0.798 0.09291 0.0
O15 O 0.68493 0.78954 0.08016 0.0
C16 C 0.71126 0.76312 0.06954 0.0
C17 C 0.68136 0.76358 0.1675 0.0
C18 C 0.6809 0.76608 0.99474 0.0
O19 O 0.71576 0.77667 0.06967 0.0
O20 O 0.69779 0.75509 0.07704 0.0
O21 O 0.67386 0.75964 0.03156 0.0
O22 O 0.6938 0.77622 0.00194 0.0
C23 C 0.69722 0.80059 0.08826 0.0
O24 O 0.67388 0.75895 0.13015 0.0
O25 O 0.6946 0.77298 0.16114 0.0
In26 In 0.21687 0.92047 0.10093 0.0
O27 O 0.23096 0.91547 0.14928 0.0
O28 O 0.22067 0.92659 0.17868 0.0
C29 C 0.2224 0.91335 0.01498 0.0
C30 C 0.18996 0.89803 0.11743 0.0
C31 C 0.22653 0.94875 0.08334 0.0
O32 O 0.23034 0.91493 0.05031 0.0
O33 O 0.21172 0.91515 0.02341 0.0
O34 O 0.2131 0.93972 0.08882 0.0
O35 O 0.23487 0.94353 0.08841 0.0
C36 C 0.22866 0.92103 0.18546 0.0
O37 O 0.1921 0.91061 0.10763 0.0
O38 O 0.2013 0.89698 0.11917 0.0
In39 In 0.29527 0.07589 0.92374 0.0
O40 O 0.31411 0.07918 0.87594 0.0
O41 O 0.29355 0.07301 0.84435 0.0
C42 C 0.30723 0.08129 0.01074 0.0
C43 C 0.29257 0.09947 0.90943 0.0
C44 C 0.27503 0.04781 0.93817 0.0
O45 O 0.31291 0.07831 0.97634 0.0
O46 O 0.29584 0.0817 1.00085 0.0
O47 O 0.27204 0.05792 0.94219 0.0
O48 O 0.28792 0.05191 0.92549 0.0
C49 C 0.30666 0.07627 0.83844 0.0
O50 O 0.28165 0.08669 0.90803 0.0
O51 O 0.30462 0.10017 0.91791 0.0
In52 In 0.9171 0.2208 0.91612 0.0
O53 O 0.91425 0.23648 0.86787 0.0
O54 O 0.92091 0.22237 0.83696 0.0
C55 C 0.91032 0.22635 0.00266 0.0
C56 C 0.89439 0.19398 0.90085 0.0
C57 C 0.94544 0.23027 0.93219 0.0
O58 O 0.91082 0.23371 0.96684 0.0
O59 O 0.91301 0.21623 0.99441 0.0
O60 O 0.93618 0.21683 0.92904 0.0
O61 O 0.94043 0.23872 0.9255 0.0
C62 C 0.91755 0.23215 0.83069 0.0
O63 O 0.90712 0.19611 0.90766 0.0
O64 O 0.89328 0.20531 0.90188 0.0
In65 In 0.77311 0.69499 0.9192 0.0
O66 O 0.79781 0.71011 0.91366 0.0
O67 O 0.78877 0.68759 0.8965 0.0
C68 C 0.76305 0.71254 0.94694 0.0
C69 C 0.76014 0.68467 0.83498 0.0
C70 C 0.76938 0.68181 0.00344 0.0
O71 O 0.77538 0.71767 0.9273 0.0
O72 O 0.75581 0.69883 0.94993 0.0
O73 O 0.76122 0.67532 0.96851 0.0
O74 O 0.77958 0.69459 0.99507 0.0
C75 C 0.80006 0.69998 0.90039 0.0
O76 O 0.75708 0.67662 0.87103 0.0
O77 O 0.76939 0.69794 0.8419 0.0
In78 In 0.91793 0.69647 0.91665 0.0
O79 O 0.9146 0.67789 0.86759 0.0
O80 O 0.91983 0.69831 0.83686 0.0
C81 C 0.91364 0.68433 0.00307 0.0
C82 C 0.89443 0.6997 0.90878 0.0
C83 C 0.94629 0.71607 0.9283 0.0
O84 O 0.9132 0.67742 0.96608 0.0
O85 O 0.91608 0.69713 0.99608 0.0
O86 O 0.93654 0.71958 0.93199 0.0
O87 O 0.9417 0.70295 0.91708 0.0
C88 C 0.91686 0.6853 0.83033 0.0
O89 O 0.90723 0.71042 0.90481 0.0
O90 O 0.89365 0.6876 0.91666 0.0
In91 In 0.29762 0.22097 0.9108 0.0
O92 O 0.28259 0.19634 0.90326 0.0
O93 O 0.30543 0.20537 0.89143 0.0
C94 C 0.27805 0.22946 0.9297 0.0
C95 C 0.30835 0.23185 0.82481 0.0
C96 C 0.31151 0.22706 0.99503 0.0
O97 O 0.27468 0.21621 0.93145 0.0
O98 O 0.29098 0.23811 0.91709 0.0
O99 O 0.31553 0.23643 0.96246 0.0
O100 O 0.30086 0.21478 0.98465 0.0
C101 C 0.29295 0.19411 0.89285 0.0
O102 O 0.31627 0.23569 0.86137 0.0
O103 O 0.29503 0.2228 0.83197 0.0
In104 In 0.77382 0.07489 0.91463 0.0
O105 O 0.76007 0.08052 0.86631 0.0
O106 O 0.77116 0.07039 0.83571 0.0
C107 C 0.7654 0.07834 1.00116 0.0
C108 C 0.8004 0.09864 0.90632 0.0
C109 C 0.76592 0.04681 0.928 0.0
O110 O 0.75845 0.07796 0.96435 0.0
O111 O 0.7765 0.07711 0.99393 0.0
O112 O 0.7791 0.05685 0.93066 0.0
O113 O 0.75703 0.05098 0.91682 0.0
C114 C 0.76298 0.07575 0.82941 0.0
O115 O 0.7984 0.08595 0.8995 0.0
O116 O 0.7891 0.09914 0.91689 0.0
In117 In 0.69773 0.92032 0.0937 0.0
O118 O 0.67958 0.91802 0.14255 0.0
O119 O 0.70018 0.92376 0.17301 0.0
C120 C 0.6852 0.91398 0.0075 0.0
C121 C 0.70092 0.89698 0.10691 0.0
C122 C 0.71696 0.94859 0.07806 0.0
O123 O 0.67852 0.91459 0.04364 0.0
O124 O 0.69792 0.91637 0.01527 0.0
O125 O 0.7209 0.93912 0.0801 0.0
O126 O 0.70359 0.9438 0.08573 0.0
C127 C 0.68721 0.92091 0.17958 0.0
O128 O 0.71179 0.90957 0.1004 0.0
O129 O 0.6887 0.89634 0.10691 0.0
In130 In 0.07495 0.77508 0.07889 0.0
O131 O 0.08469 0.79945 0.09391 0.0
O132 O 0.09907 0.79117 0.08144 0.0
C133 C 0.04652 0.76571 0.06528 0.0
C134 C 0.07564 0.76412 0.16416 0.0
C135 C 0.08047 0.76881 0.99164 0.0
O136 O 0.056 0.77912 0.06448 0.0
O137 O 0.05139 0.75727 0.07459 0.0
O138 O 0.08106 0.76213 0.02787 0.0
O139 O 0.07725 0.77857 0.99978 0.0
C140 C 0.0977 0.8021 0.09065 0.0
O141 O 0.07819 0.75941 0.1264 0.0
O142 O 0.07257 0.77411 0.15859 0.0
In143 In 0.21794 0.29722 0.09037 0.0
O144 O 0.23206 0.31653 0.13819 0.0
O145 O 0.22195 0.29519 0.16812 0.0
C146 C 0.22317 0.30934 0.00356 0.0
C147 C 0.19093 0.29246 0.10741 0.0
C148 C 0.22809 0.27892 0.0742 0.0
O149 O 0.23085 0.31617 0.0389 0.0
O150 O 0.2129 0.29666 0.01238 0.0
O151 O 0.21459 0.27434 0.07865 0.0
O152 O 0.23625 0.29251 0.0794 0.0
C153 C 0.22991 0.30877 0.17453 0.0
O154 O 0.19324 0.28206 0.09858 0.0
O155 O 0.20215 0.30494 0.10782 0.0
In156 In 0.74016 0.6313 0.42369 0.0
O157 O 0.74213 0.64957 0.47175 0.0
O158 O 0.73658 0.62908 0.5028 0.0
C159 C 0.74701 0.64294 0.33632 0.0
C160 C 0.76319 0.62777 0.43862 0.0
C161 C 0.71187 0.61242 0.40746 0.0
O162 O 0.74709 0.65033 0.37158 0.0
O163 O 0.74362 0.62998 0.34558 0.0
O164 O 0.7211 0.60822 0.41142 0.0
O165 O 0.71689 0.62592 0.41351 0.0
C166 C 0.73923 0.642 0.50899 0.0
O167 O 0.75051 0.61698 0.43278 0.0
O168 O 0.76408 0.6401 0.43723 0.0
In169 In 0.36081 0.10638 0.42627 0.0
O170 O 0.37617 0.13099 0.43336 0.0
O171 O 0.35346 0.12223 0.44702 0.0
C172 C 0.38077 0.09834 0.40805 0.0
C173 C 0.34984 0.09557 0.51211 0.0
C174 C 0.34649 0.09976 0.34262 0.0
O175 O 0.38353 0.11129 0.40208 0.0
O176 O 0.36828 0.08979 0.42435 0.0
O177 O 0.34346 0.09027 0.37424 0.0
O178 O 0.35632 0.1124 0.35374 0.0
C179 C 0.366 0.1334 0.44489 0.0
O180 O 0.34198 0.09179 0.47537 0.0
O181 O 0.36319 0.10451 0.50517 0.0
In182 In 0.88312 0.25229 0.42018 0.0
O183 O 0.85837 0.2419 0.42857 0.0
O184 O 0.86795 0.22837 0.43359 0.0
C185 C 0.89253 0.28068 0.40528 0.0
C186 C 0.89443 0.25284 0.50569 0.0
C187 C 0.8891 0.24598 0.33354 0.0
O188 O 0.87909 0.2713 0.40597 0.0
O189 O 0.90094 0.27574 0.41375 0.0
O190 O 0.89621 0.24618 0.36967 0.0
O191 O 0.87901 0.24872 0.34153 0.0
C192 C 0.85649 0.22924 0.43484 0.0
O193 O 0.89901 0.24983 0.46847 0.0
O194 O 0.88436 0.25579 0.49947 0.0
In195 In 0.96308 0.40812 0.24657 0.0
O196 O 0.98141 0.41063 0.1981 0.0
O197 O 0.96094 0.40511 0.16711 0.0
C198 C 0.97524 0.41396 0.33333 0.0
C199 C 0.9598 0.43146 0.23425 0.0
C200 C 0.94361 0.37981 0.26036 0.0
O201 O 0.98216 0.41378 0.29717 0.0
O202 O 0.96246 0.41136 0.32533 0.0
O203 O 0.93984 0.38941 0.25937 0.0
O204 O 0.95697 0.3845 0.2527 0.0
C205 C 0.97391 0.40795 0.16083 0.0
O206 O 0.94896 0.41877 0.23914 0.0
O207 O 0.97208 0.43222 0.23544 0.0
In208 In 0.58514 0.55332 0.24465 0.0
O209 O 0.57444 0.52851 0.23806 0.0
O210 O 0.56097 0.5382 0.23573 0.0
C211 C 0.61347 0.56215 0.25782 0.0
C212 C 0.58491 0.56374 0.15822 0.0
C213 C 0.57991 0.56051 0.33098 0.0
O214 O 0.6038 0.54881 0.25909 0.0
O215 O 0.60884 0.57075 0.24811 0.0
O216 O 0.58003 0.56737 0.29429 0.0
O217 O 0.58222 0.55009 0.3237 0.0
C218 C 0.56172 0.52667 0.23437 0.0
O219 O 0.58236 0.56877 0.19524 0.0
O220 O 0.58781 0.55365 0.16505 0.0
In221 In 0.44045 0.03014 0.24318 0.0
O222 O 0.46495 0.04589 0.23357 0.0
O223 O 0.45639 0.0233 0.21871 0.0
C224 C 0.42968 0.04765 0.26396 0.0
C225 C 0.42758 0.01891 0.15961 0.0
C226 C 0.43743 0.01822 0.32976 0.0
O227 O 0.44305 0.05272 0.25476 0.0
O228 O 0.42189 0.03395 0.26122 0.0
O229 O 0.42914 0.01112 0.2958 0.0
O230 O 0.44719 0.03101 0.31955 0.0
C231 C 0.46743 0.03591 0.22039 0.0
O232 O 0.42594 0.01096 0.19508 0.0
O233 O 0.4354 0.03246 0.1668 0.0
In234 In 0.5836 0.03046 0.24283 0.0
O235 O 0.57374 0.04505 0.22844 0.0
O236 O 0.55955 0.0221 0.23579 0.0
C237 C 0.61199 0.04891 0.25927 0.0
C238 C 0.58384 0.01939 0.15745 0.0
C239 C 0.57684 0.01878 0.33003 0.0
O240 O 0.60285 0.05328 0.25757 0.0
O241 O 0.60683 0.0355 0.25099 0.0
O242 O 0.57656 0.01138 0.29453 0.0
O243 O 0.58044 0.03183 0.32115 0.0
C244 C 0.56078 0.03444 0.22864 0.0
O245 O 0.58105 0.01192 0.19483 0.0
O246 O 0.58669 0.03238 0.16352 0.0
In247 In 0.96228 0.55266 0.25507 0.0
O248 O 0.98093 0.56813 0.20657 0.0
O249 O 0.96068 0.55285 0.17523 0.0
C250 C 0.97415 0.56093 0.34171 0.0
C251 C 0.95968 0.52617 0.24802 0.0
C252 C 0.94197 0.56051 0.26637 0.0
O253 O 0.98101 0.5675 0.30478 0.0
O254 O 0.96153 0.55027 0.33456 0.0
O255 O 0.93891 0.54738 0.2702 0.0
O256 O 0.955 0.56936 0.25511 0.0
C257 C 0.97364 0.56299 0.16908 0.0
O258 O 0.94893 0.52807 0.24162 0.0
O259 O 0.97153 0.53756 0.25779 0.0
In260 In 0.44053 0.40796 0.25624 0.0
O261 O 0.42487 0.41108 0.20837 0.0
O262 O 0.44058 0.40686 0.17631 0.0
C263 C 0.43246 0.41151 0.34327 0.0
C264 C 0.46709 0.43178 0.25009 0.0
C265 C 0.43242 0.37964 0.26523 0.0
O266 O 0.42617 0.41239 0.30646 0.0
O267 O 0.44268 0.4089 0.33585 0.0
O268 O 0.44557 0.3896 0.26952 0.0
O269 O 0.42365 0.38403 0.25499 0.0
C270 C 0.43023 0.40939 0.1706 0.0
O271 O 0.46513 0.41912 0.24303 0.0
O272 O 0.45573 0.43227 0.26004 0.0
In273 In 0.36287 0.25102 0.41348 0.0
O274 O 0.37681 0.24054 0.42868 0.0
O275 O 0.35379 0.22683 0.42091 0.0
C276 C 0.38275 0.27916 0.39816 0.0
C277 C 0.35146 0.2508 0.49864 0.0
C278 C 0.35073 0.24521 0.32674 0.0
O279 O 0.38609 0.26926 0.39594 0.0
O280 O 0.36971 0.27483 0.40947 0.0
O281 O 0.34519 0.24844 0.36093 0.0
O282 O 0.36209 0.24474 0.33668 0.0
C283 C 0.36596 0.22771 0.42854 0.0
O284 O 0.34395 0.24751 0.46121 0.0
O285 O 0.36465 0.25433 0.49276 0.0
In286 In 0.73976 0.10663 0.41622 0.0
O287 O 0.75002 0.13114 0.43165 0.0
O288 O 0.76387 0.12261 0.41432 0.0
C289 C 0.7115 0.09787 0.40271 0.0
C290 C 0.74106 0.09597 0.50134 0.0
C291 C 0.74369 0.0986 0.32966 0.0
O292 O 0.72124 0.11119 0.40059 0.0
O293 O 0.71604 0.08925 0.41336 0.0
O294 O 0.74346 0.09169 0.36639 0.0
O295 O 0.74208 0.10946 0.33698 0.0
C296 C 0.76288 0.13364 0.42501 0.0
O297 O 0.74611 0.0934 0.46445 0.0
O298 O 0.73519 0.10369 0.49508 0.0
In299 In 0.88428 0.63029 0.41834 0.0
O300 O 0.89979 0.64891 0.46692 0.0
O301 O 0.88433 0.62871 0.49817 0.0
C302 C 0.89241 0.64219 0.33172 0.0
C303 C 0.85777 0.6276 0.42537 0.0
C304 C 0.89225 0.61007 0.40722 0.0
O305 O 0.8989 0.64913 0.36865 0.0
O306 O 0.88192 0.62948 0.33885 0.0
O307 O 0.87911 0.60694 0.40344 0.0
O308 O 0.90106 0.62313 0.41829 0.0
C309 C 0.89455 0.64164 0.50439 0.0
O310 O 0.8597 0.61686 0.43157 0.0
O311 O 0.86914 0.63949 0.41578 0.0
In312 In 0.40952 0.96723 0.74781 0.0
O313 O 0.41564 0.98685 0.79555 0.0
O314 O 0.40044 0.96576 0.82177 0.0
C315 C 0.42027 0.98023 0.66374 0.0
C316 C 0.42877 0.95886 0.77253 0.0
C317 C 0.38157 0.95078 0.72148 0.0
O318 O 0.4181 0.98678 0.69737 0.0
O319 O 0.41754 0.96747 0.67333 0.0
O320 O 0.38823 0.94529 0.74257 0.0
O321 O 0.38886 0.9644 0.71562 0.0
C322 C 0.40776 0.97931 0.82962 0.0
O323 O 0.41699 0.95029 0.75166 0.0
O324 O 0.43066 0.9714 0.78075 0.0
In325 In 0.02852 0.44176 0.75036 0.0
O326 O 0.04262 0.46654 0.75843 0.0
O327 O 0.0195 0.45678 0.76283 0.0
C328 C 0.04778 0.43269 0.73562 0.0
C329 C 0.01775 0.4305 0.83591 0.0
C330 C 0.01624 0.43545 0.66379 0.0
O331 O 0.0517 0.4461 0.73698 0.0
O332 O 0.03442 0.42413 0.74343 0.0
O333 O 0.00943 0.42829 0.69997 0.0
O334 O 0.02897 0.44576 0.67168 0.0
C335 C 0.03175 0.46831 0.76416 0.0
O336 O 0.01018 0.42592 0.7987 0.0
O337 O 0.03077 0.44055 0.82968 0.0
In338 In 0.55122 0.58533 0.74723 0.0
O339 O 0.56697 0.58242 0.7952 0.0
O340 O 0.55174 0.58737 0.82704 0.0
C341 C 0.55889 0.58117 0.66039 0.0
C342 C 0.52473 0.56149 0.75532 0.0
C343 C 0.55917 0.61348 0.73446 0.0
O344 O 0.56554 0.58082 0.69708 0.0
O345 O 0.54848 0.58348 0.66789 0.0
O346 O 0.54598 0.60347 0.73251 0.0
O347 O 0.56807 0.60926 0.74474 0.0
C348 C 0.56196 0.58463 0.83285 0.0
O349 O 0.52667 0.57418 0.76137 0.0
O350 O 0.53609 0.56098 0.7455 0.0
In351 In 0.62652 0.7408 0.58023 0.0
O352 O 0.64484 0.7437 0.53077 0.0
O353 O 0.62487 0.74 0.50032 0.0
C354 C 0.63852 0.74436 0.66651 0.0
C355 C 0.62419 0.76488 0.57679 0.0
C356 C 0.60658 0.71247 0.59054 0.0
O357 O 0.64554 0.74521 0.62934 0.0
O358 O 0.62566 0.74175 0.65975 0.0
O359 O 0.60326 0.72236 0.59476 0.0
O360 O 0.61966 0.71693 0.57925 0.0
C361 C 0.63764 0.7423 0.49357 0.0
O362 O 0.61328 0.75234 0.56987 0.0
O363 O 0.63601 0.7651 0.58486 0.0
In364 In 0.2487 0.8874 0.59722 0.0
O365 O 0.24252 0.90086 0.54956 0.0
O366 O 0.2544 0.89152 0.51931 0.0
C367 C 0.24258 0.89277 0.68452 0.0
C368 C 0.2266 0.86011 0.58333 0.0
C369 C 0.2773 0.89887 0.61309 0.0
O370 O 0.24238 0.89988 0.64889 0.0
O371 O 0.24566 0.88292 0.67579 0.0
O372 O 0.26904 0.88527 0.60714 0.0
O373 O 0.27112 0.90639 0.60968 0.0
C374 C 0.24831 0.89904 0.51311 0.0
O375 O 0.23973 0.86298 0.58282 0.0
O376 O 0.2249 0.87091 0.59071 0.0
In377 In 0.10713 0.36408 0.58142 0.0
O378 O 0.09187 0.34545 0.53247 0.0
O379 O 0.10701 0.36585 0.50158 0.0
C380 C 0.09947 0.35189 0.6679 0.0
C381 C 0.13388 0.36737 0.57326 0.0
C382 C 0.09838 0.38371 0.59371 0.0
O383 O 0.09285 0.34504 0.63102 0.0
O384 O 0.10986 0.36466 0.66079 0.0
O385 O 0.11164 0.38719 0.59712 0.0
O386 O 0.08984 0.3706 0.5824 0.0
C387 C 0.097 0.35283 0.49512 0.0
O388 O 0.13175 0.37807 0.56913 0.0
O389 O 0.12259 0.35527 0.58137 0.0
In390 In 0.25012 0.36209 0.58603 0.0
O391 O 0.24093 0.37753 0.57688 0.0
O392 O 0.22684 0.35473 0.56639 0.0
C393 C 0.27842 0.38043 0.6042 0.0
C394 C 0.25076 0.35047 0.50222 0.0
C395 C 0.24277 0.34967 0.67236 0.0
O396 O 0.26949 0.38497 0.59897 0.0
O397 O 0.2731 0.36687 0.59862 0.0
O398 O 0.24425 0.34314 0.63728 0.0
O399 O 0.2447 0.36217 0.66347 0.0
C400 C 0.22828 0.3673 0.56675 0.0
O401 O 0.24471 0.34273 0.53825 0.0
O402 O 0.25676 0.36408 0.5088 0.0
In403 In 0.63224 0.88847 0.59012 0.0
O404 O 0.61713 0.86374 0.58461 0.0
O405 O 0.64006 0.87255 0.57671 0.0
C406 C 0.61441 0.89931 0.60349 0.0
C407 C 0.64346 0.8995 0.5047 0.0
C408 C 0.64418 0.89391 0.67704 0.0
O409 O 0.60946 0.8858 0.59727 0.0
O410 O 0.6281 0.9071 0.60147 0.0
O411 O 0.65142 0.90076 0.641 0.0
O412 O 0.63115 0.8843 0.66886 0.0
C413 C 0.62754 0.86135 0.57733 0.0
O414 O 0.65103 0.90374 0.54199 0.0
O415 O 0.63025 0.88991 0.5108 0.0
In416 In 0.10751 0.74162 0.57561 0.0
O417 O 0.13226 0.75145 0.56979 0.0
O418 O 0.12317 0.76521 0.55868 0.0
C419 C 0.09769 0.71329 0.59371 0.0
C420 C 0.0964 0.74098 0.48956 0.0
C421 C 0.10184 0.74894 0.66119 0.0
O422 O 0.11115 0.72237 0.58994 0.0
O423 O 0.0894 0.71845 0.58634 0.0
O424 O 0.09437 0.74798 0.62512 0.0
O425 O 0.11216 0.74652 0.65359 0.0
C426 C 0.13447 0.76408 0.56032 0.0
O427 O 0.09217 0.7446 0.52628 0.0
O428 O 0.10597 0.73737 0.49655 0.0
In429 In 0.02839 0.58674 0.75663 0.0
O430 O 0.0419 0.57558 0.76879 0.0
O431 O 0.01925 0.56241 0.75346 0.0
C432 C 0.04848 0.61498 0.74481 0.0
C433 C 0.01727 0.58559 0.84312 0.0
C434 C 0.01627 0.58289 0.67033 0.0
O435 O 0.05162 0.60497 0.74067 0.0
O436 O 0.03548 0.61072 0.75677 0.0
O437 O 0.00934 0.58227 0.70748 0.0
O438 O 0.02907 0.58534 0.67712 0.0
C439 C 0.03116 0.56291 0.76239 0.0
O440 O 0.00995 0.5837 0.80585 0.0
O441 O 0.03016 0.58824 0.8365 0.0
In442 In 0.4065 0.44012 0.75846 0.0
O443 O 0.4095 0.42486 0.80811 0.0
O444 O 0.40384 0.43986 0.83805 0.0
C445 C 0.41173 0.43279 0.6723 0.0
C446 C 0.4299 0.46678 0.76904 0.0
C447 C 0.37811 0.43118 0.74605 0.0
O448 O 0.41143 0.42587 0.70906 0.0
O449 O 0.40959 0.44332 0.6794 0.0
O450 O 0.38777 0.44452 0.74385 0.0
O451 O 0.38279 0.42265 0.75609 0.0
C452 C 0.40689 0.42989 0.84505 0.0
O453 O 0.4172 0.46495 0.76465 0.0
O454 O 0.43064 0.45525 0.76804 0.0
In455 In 0.55023 0.96611 0.74655 0.0
O456 O 0.56589 0.98461 0.79512 0.0
O457 O 0.55364 0.9633 0.82427 0.0
C458 C 0.55398 0.979 0.66182 0.0
C459 C 0.52313 0.96071 0.76491 0.0
C460 C 0.56097 0.94909 0.71946 0.0
O461 O 0.56181 0.98572 0.69711 0.0
O462 O 0.54407 0.96605 0.66995 0.0
O463 O 0.54817 0.94362 0.73576 0.0
O464 O 0.56827 0.96283 0.71936 0.0
C465 C 0.56276 0.9766 0.83128 0.0
O466 O 0.52578 0.95048 0.75723 0.0
O467 O 0.53408 0.97339 0.76321 0.0
H468 H 0.09862 0.26944 0.11737 0.0
H469 H 0.12507 0.3145 0.07495 0.0
H470 H 0.12075 0.26773 0.12724 0.0
H471 H 0.14691 0.31273 0.0837 0.0
H472 H 0.18435 0.31169 0.14696 0.0
H473 H 0.16089 0.31064 0.14752 0.0
H474 H 0.14098 0.26828 0.08065 0.0
H475 H 0.16459 0.26917 0.08144 0.0
C476 C 0.10913 0.27893 0.10999 0.0
C477 C 0.11015 0.29213 0.09573 0.0
C478 C 0.12177 0.27794 0.1155 0.0
C479 C 0.13558 0.29015 0.10691 0.0
C480 C 0.13647 0.30322 0.09178 0.0
C481 C 0.12393 0.30421 0.08642 0.0
C482 C 0.17493 0.30205 0.13299 0.0
C483 C 0.17629 0.2906 0.11357 0.0
C484 C 0.16151 0.30148 0.13307 0.0
C485 C 0.14916 0.28953 0.11315 0.0
C486 C 0.15031 0.27763 0.09626 0.0
C487 C 0.1638 0.27815 0.0966 0.0
H488 H 0.72146 0.82597 0.11646 0.0
H489 H 0.67696 0.80832 0.0692 0.0
H490 H 0.72355 0.84999 0.12618 0.0
H491 H 0.67914 0.83213 0.07758 0.0
H492 H 0.68041 0.87082 0.14117 0.0
H493 H 0.68072 0.84801 0.14059 0.0
H494 H 0.72407 0.87016 0.08073 0.0
H495 H 0.72392 0.89324 0.08288 0.0
C496 C 0.71219 0.82725 0.1079 0.0
C497 C 0.69901 0.81528 0.09245 0.0
C498 C 0.71339 0.84098 0.11332 0.0
C499 C 0.70144 0.8429 0.10331 0.0
C500 C 0.68843 0.83094 0.08681 0.0
C501 C 0.68721 0.81731 0.08165 0.0
C502 C 0.69008 0.87086 0.12841 0.0
C503 C 0.70207 0.88373 0.11151 0.0
C504 C 0.69023 0.85778 0.12782 0.0
C505 C 0.70229 0.85722 0.10966 0.0
C506 C 0.71463 0.87025 0.095 0.0
C507 C 0.71453 0.88344 0.09608 0.0
H508 H 0.12607 0.80982 0.07986 0.0
H509 H 0.09823 0.82737 0.11652 0.0
H510 H 0.14743 0.83362 0.09171 0.0
H511 H 0.11986 0.85139 0.12949 0.0
H512 H 0.1637 0.89442 0.08794 0.0
H513 H 0.14041 0.87142 0.0851 0.0
H514 H 0.16028 0.84971 0.15696 0.0
H515 H 0.18347 0.87243 0.15847 0.0
C516 C 0.12452 0.81878 0.09074 0.0
C517 C 0.11049 0.81673 0.09747 0.0
C518 C 0.13678 0.83241 0.0979 0.0
C519 C 0.13534 0.84434 0.11225 0.0
C520 C 0.12129 0.84239 0.11839 0.0
C521 C 0.10895 0.82866 0.11111 0.0
C522 C 0.16296 0.88476 0.10381 0.0
C523 C 0.17539 0.8851 0.12275 0.0
C524 C 0.14965 0.87162 0.10228 0.0
C525 C 0.14862 0.85871 0.11995 0.0
C526 C 0.16084 0.85938 0.14192 0.0
C527 C 0.17409 0.87241 0.14302 0.0
H528 H 0.26847 0.10145 0.88563 0.0
H529 H 0.31442 0.12746 0.91762 0.0
H530 H 0.26727 0.12381 0.8744 0.0
H531 H 0.31317 0.14956 0.90782 0.0
H532 H 0.31167 0.18735 0.85001 0.0
H533 H 0.31036 0.16375 0.84763 0.0
H534 H 0.26887 0.14422 0.91994 0.0
H535 H 0.26997 0.16789 0.92065 0.0
C536 C 0.27828 0.11192 0.89028 0.0
C537 C 0.29155 0.11273 0.90232 0.0
C538 C 0.27759 0.1247 0.88403 0.0
C539 C 0.29015 0.13846 0.88974 0.0
C540 C 0.30336 0.13916 0.90199 0.0
C541 C 0.30405 0.12647 0.90801 0.0
C542 C 0.30216 0.17797 0.86477 0.0
C543 C 0.29101 0.17944 0.88606 0.0
C544 C 0.30145 0.16447 0.86366 0.0
C545 C 0.28966 0.15217 0.88449 0.0
C546 C 0.27807 0.15347 0.90345 0.0
C547 C 0.27872 0.16701 0.90404 0.0
H548 H 0.80671 0.12604 0.92842 0.0
H549 H 0.82643 0.1015 0.87653 0.0
H550 H 0.82996 0.1484 0.92276 0.0
H551 H 0.84992 0.12422 0.86957 0.0
H552 H 0.89169 0.16738 0.92052 0.0
H553 H 0.86924 0.1436 0.9184 0.0
H554 H 0.84595 0.16415 0.86243 0.0
H555 H 0.86811 0.18778 0.86613 0.0
C556 C 0.81603 0.12544 0.91543 0.0
C557 C 0.81474 0.11203 0.90267 0.0
C558 C 0.82935 0.1383 0.91184 0.0
C559 C 0.84175 0.13812 0.89502 0.0
C560 C 0.84056 0.12468 0.88275 0.0
C561 C 0.82714 0.11171 0.88656 0.0
C562 C 0.88178 0.16672 0.90731 0.0
C563 C 0.88154 0.17941 0.89421 0.0
C564 C 0.86896 0.15313 0.90591 0.0
C565 C 0.85577 0.15205 0.89104 0.0
C566 C 0.85584 0.16467 0.87527 0.0
C567 C 0.86854 0.1782 0.87717 0.0
H568 H 0.8068 0.68155 0.85546 0.0
H569 H 0.8263 0.72275 0.9294 0.0
H570 H 0.83035 0.68279 0.85244 0.0
H571 H 0.84995 0.72381 0.92765 0.0
H572 H 0.89256 0.72403 0.88735 0.0
H573 H 0.87025 0.7255 0.87915 0.0
H574 H 0.84445 0.67968 0.91356 0.0
H575 H 0.86647 0.67816 0.92067 0.0
C576 C 0.81618 0.69094 0.87077 0.0
C577 C 0.81472 0.70196 0.89322 0.0
C578 C 0.82965 0.69162 0.86926 0.0
C579 C 0.84193 0.70325 0.89067 0.0
C580 C 0.84067 0.71473 0.91077 0.0
C581 C 0.82715 0.7141 0.91191 0.0
C582 C 0.88208 0.7143 0.89301 0.0
C583 C 0.88122 0.70097 0.9044 0.0
C584 C 0.86935 0.71515 0.88847 0.0
C585 C 0.85559 0.70267 0.89514 0.0
C586 C 0.85485 0.68942 0.90706 0.0
C587 C 0.86749 0.68857 0.9115 0.0
H588 H 0.85117 0.64847 0.4025 0.0
H589 H 0.83203 0.60451 0.45657 0.0
H590 H 0.82784 0.64744 0.4095 0.0
H591 H 0.80854 0.6036 0.46499 0.0
H592 H 0.76611 0.604 0.41924 0.0
H593 H 0.78878 0.60311 0.41846 0.0
H594 H 0.81221 0.64744 0.47046 0.0
H595 H 0.78978 0.64846 0.46962 0.0
C596 C 0.84197 0.6386 0.41621 0.0
C597 C 0.84342 0.6266 0.42921 0.0
C598 C 0.8286 0.63805 0.42056 0.0
C599 C 0.81638 0.62552 0.43847 0.0
C600 C 0.81775 0.61339 0.45092 0.0
C601 C 0.83118 0.61392 0.44626 0.0
C602 C 0.7761 0.61346 0.43098 0.0
C603 C 0.77627 0.62636 0.44387 0.0
C604 C 0.78906 0.61295 0.4307 0.0
C605 C 0.80233 0.6253 0.44363 0.0
C606 C 0.80224 0.63788 0.45907 0.0
C607 C 0.78938 0.63843 0.45888 0.0
H608 H 0.34815 0.14049 0.49184 0.0
H609 H 0.3886 0.15942 0.41394 0.0
H610 H 0.34954 0.16412 0.49467 0.0
H611 H 0.38975 0.18312 0.4151 0.0
H612 H 0.39049 0.2261 0.44887 0.0
H613 H 0.39201 0.20392 0.46037 0.0
H614 H 0.34565 0.1777 0.43476 0.0
H615 H 0.34411 0.19962 0.42464 0.0
C616 C 0.35741 0.14977 0.47561 0.0
C617 C 0.36817 0.14813 0.45212 0.0
C618 C 0.35817 0.16329 0.47699 0.0
C619 C 0.36959 0.17543 0.45419 0.0
C620 C 0.38084 0.17399 0.4331 0.0
C621 C 0.38016 0.16043 0.43228 0.0
C622 C 0.38065 0.21556 0.44603 0.0
C623 C 0.36718 0.21457 0.43602 0.0
C624 C 0.38152 0.20289 0.45243 0.0
C625 C 0.36893 0.18905 0.44896 0.0
C626 C 0.35551 0.18817 0.43884 0.0
C627 C 0.35464 0.20075 0.43262 0.0
H628 H 0.85082 0.20316 0.46989 0.0
H629 H 0.82968 0.22584 0.41391 0.0
H630 H 0.82752 0.1806 0.47244 0.0
H631 H 0.80622 0.20297 0.4149 0.0
H632 H 0.76467 0.15922 0.45483 0.0
H633 H 0.78687 0.18312 0.46286 0.0
H634 H 0.81247 0.16458 0.41073 0.0
H635 H 0.79061 0.14094 0.40394 0.0
C636 C 0.84114 0.20331 0.45829 0.0
C637 C 0.84205 0.21616 0.44109 0.0
C638 C 0.8278 0.19037 0.45953 0.0
C639 C 0.81508 0.18994 0.44292 0.0
C640 C 0.81583 0.20298 0.428 0.0
C641 C 0.82924 0.21603 0.42726 0.0
C642 C 0.77508 0.16033 0.44524 0.0
C643 C 0.77594 0.14822 0.42912 0.0
C644 C 0.78775 0.17398 0.44967 0.0
C645 C 0.80144 0.17568 0.43806 0.0
C646 C 0.80216 0.16358 0.42115 0.0
C647 C 0.78959 0.15002 0.41693 0.0
H648 H 0.98054 0.51961 0.2715 0.0
H649 H 0.9367 0.5004 0.21644 0.0
H650 H 0.97955 0.49629 0.26481 0.0
H651 H 0.93585 0.47693 0.20826 0.0
H652 H 0.93608 0.43443 0.2535 0.0
H653 H 0.93524 0.45714 0.25463 0.0
H654 H 0.97974 0.48065 0.20439 0.0
H655 H 0.9807 0.45818 0.20494 0.0
C656 C 0.9707 0.51039 0.25763 0.0
C657 C 0.95872 0.51183 0.24427 0.0
C658 C 0.97018 0.49703 0.25345 0.0
C659 C 0.9577 0.48479 0.23535 0.0
C660 C 0.94559 0.48615 0.22252 0.0
C661 C 0.94609 0.49957 0.22702 0.0
C662 C 0.94559 0.44446 0.24229 0.0
C663 C 0.95851 0.44463 0.22976 0.0
C664 C 0.94511 0.45744 0.24276 0.0
C665 C 0.9575 0.47074 0.23034 0.0
C666 C 0.97013 0.47067 0.21538 0.0
C667 C 0.97066 0.45778 0.21542 0.0
H668 H 0.53475 0.52081 0.20795 0.0
H669 H 0.55891 0.49997 0.25277 0.0
H670 H 0.51232 0.49738 0.20845 0.0
H671 H 0.53624 0.4764 0.25495 0.0
H672 H 0.49275 0.43464 0.21713 0.0
H673 H 0.5162 0.45728 0.20907 0.0
H674 H 0.49709 0.48142 0.26926 0.0
H675 H 0.47379 0.45907 0.27583 0.0
C676 C 0.53525 0.51118 0.21787 0.0
C677 C 0.54852 0.5122 0.2308 0.0
C678 C 0.52239 0.49776 0.21844 0.0
C679 C 0.52245 0.48506 0.23261 0.0
C680 C 0.53584 0.48598 0.24372 0.0
C681 C 0.54879 0.49945 0.24265 0.0
C682 C 0.49364 0.44482 0.22857 0.0
C683 C 0.48145 0.44514 0.24674 0.0
C684 C 0.50705 0.45775 0.22414 0.0
C685 C 0.50846 0.47117 0.23796 0.0
C686 C 0.4963 0.47134 0.25713 0.0
C687 C 0.48295 0.4585 0.26122 0.0
H688 H 0.55984 0.05952 0.21131 0.0
H689 H 0.53254 0.01299 0.23091 0.0
H690 H 0.53798 0.06169 0.20113 0.0
H691 H 0.51097 0.01517 0.22198 0.0
H692 H 0.47431 0.01884 0.1681 0.0
H693 H 0.49786 0.02014 0.16269 0.0
H694 H 0.5172 0.05922 0.24815 0.0
H695 H 0.49357 0.05818 0.25197 0.0
C696 C 0.5492 0.04979 0.21336 0.0
C697 C 0.54788 0.03609 0.22174 0.0
C698 C 0.53671 0.05103 0.2077 0.0
C699 C 0.52275 0.03858 0.21021 0.0
C700 C 0.52154 0.02493 0.21866 0.0
C701 C 0.53393 0.0237 0.2242 0.0
C702 C 0.48366 0.02786 0.18498 0.0
C703 C 0.48213 0.03829 0.21102 0.0
C704 C 0.49712 0.02857 0.18211 0.0
C705 C 0.50931 0.03958 0.20593 0.0
C706 C 0.50801 0.05061 0.22935 0.0
C707 C 0.49451 0.05 0.23168 0.0
H708 H 0.4497 0.97104 0.83942 0.0
H709 H 0.43383 0.9389 0.72804 0.0
H710 H 0.47149 0.96894 0.84666 0.0
H711 H 0.45601 0.93721 0.73374 0.0
H712 H 0.4971 0.9348 0.76598 0.0
H713 H 0.47267 0.93157 0.77727 0.0
H714 H 0.49182 0.97822 0.79393 0.0
H715 H 0.5159 0.98135 0.78387 0.0
C716 C 0.45081 0.96336 0.81695 0.0
C717 C 0.44025 0.9553 0.78269 0.0
C718 C 0.46331 0.96221 0.82089 0.0
C719 C 0.46565 0.95319 0.78995 0.0
C720 C 0.45452 0.94424 0.75815 0.0
C721 C 0.44185 0.94523 0.75474 0.0
C722 C 0.49601 0.9443 0.77261 0.0
C723 C 0.50838 0.95833 0.77397 0.0
C724 C 0.48206 0.94246 0.77891 0.0
C725 C 0.4803 0.95462 0.78688 0.0
C726 C 0.49275 0.96857 0.78897 0.0
C727 C 0.5066 0.97039 0.78271 0.0
H728 H 0.05444 0.56013 0.79087 0.0
H729 H 0.01024 0.53554 0.73885 0.0
H730 H 0.05552 0.53755 0.79605 0.0
H731 H 0.01143 0.51327 0.74255 0.0
H732 H 0.01095 0.4738 0.79678 0.0
H733 H 0.01177 0.49713 0.80051 0.0
H734 H 0.05595 0.51871 0.74722 0.0
H735 H 0.05526 0.49523 0.7452 0.0
C736 C 0.04501 0.54992 0.78037 0.0
C737 C 0.03222 0.54955 0.76479 0.0
C738 C 0.04564 0.53703 0.78314 0.0
C739 C 0.0335 0.52359 0.77024 0.0
C740 C 0.02085 0.52336 0.75392 0.0
C741 C 0.02019 0.53616 0.75146 0.0
C742 C 0.02089 0.48354 0.78627 0.0
C743 C 0.03299 0.48271 0.77019 0.0
C744 C 0.02134 0.49691 0.78814 0.0
C745 C 0.03383 0.50975 0.77329 0.0
C746 C 0.04618 0.50902 0.75906 0.0
C747 C 0.04578 0.49559 0.75771 0.0
H748 H 0.43296 0.49351 0.74913 0.0
H749 H 0.45659 0.47258 0.79845 0.0
H750 H 0.45569 0.51703 0.74806 0.0
H751 H 0.47906 0.49597 0.79911 0.0
H752 H 0.51815 0.53402 0.73253 0.0
H753 H 0.49481 0.51174 0.73901 0.0
H754 H 0.47545 0.53624 0.79446 0.0
H755 H 0.49896 0.55881 0.78648 0.0
C756 C 0.44297 0.494 0.76048 0.0
C757 C 0.44309 0.48124 0.77323 0.0
C758 C 0.45596 0.50745 0.76007 0.0
C759 C 0.46922 0.50833 0.77277 0.0
C760 C 0.46911 0.49562 0.78789 0.0
C761 C 0.45622 0.48222 0.78778 0.0
C762 C 0.50893 0.53468 0.74614 0.0
C763 C 0.51038 0.54813 0.75922 0.0
C764 C 0.49555 0.52188 0.75019 0.0
C765 C 0.4833 0.52217 0.7679 0.0
C766 C 0.48467 0.53567 0.78051 0.0
C767 C 0.49812 0.54856 0.77613 0.0
H768 H 0.60336 0.83501 0.59773 0.0
H769 H 0.64733 0.85457 0.54379 0.0
H770 H 0.60151 0.81096 0.5958 0.0
H771 H 0.64536 0.83072 0.54043 0.0
H772 H 0.64544 0.79179 0.60272 0.0
H773 H 0.64503 0.81447 0.60022 0.0
H774 H 0.60103 0.79157 0.54544 0.0
H775 H 0.60133 0.76854 0.54923 0.0
C776 C 0.61251 0.83412 0.58479 0.0
C777 C 0.62556 0.84663 0.57158 0.0
C778 C 0.61144 0.82038 0.5835 0.0
C779 C 0.62338 0.81899 0.56873 0.0
C780 C 0.63611 0.83147 0.55318 0.0
C781 C 0.63722 0.84513 0.55488 0.0
C782 C 0.63566 0.79155 0.59011 0.0
C783 C 0.62346 0.77843 0.5758 0.0
C784 C 0.63545 0.80458 0.5884 0.0
C785 C 0.62308 0.80486 0.57189 0.0
C786 C 0.61071 0.79168 0.5584 0.0
C787 C 0.6109 0.77854 0.56039 0.0
H788 H 0.1606 0.7679 0.59209 0.0
H789 H 0.14121 0.78916 0.51516 0.0
H790 H 0.184 0.79082 0.59303 0.0
H791 H 0.16452 0.81175 0.51443 0.0
H792 H 0.19817 0.85234 0.58927 0.0
H793 H 0.177 0.82849 0.57786 0.0
H794 H 0.20492 0.81046 0.54885 0.0
H795 H 0.22645 0.83465 0.56155 0.0
C796 C 0.16145 0.77737 0.57442 0.0
C797 C 0.14909 0.77689 0.55432 0.0
C798 C 0.17484 0.79046 0.57479 0.0
C799 C 0.17602 0.80316 0.55466 0.0
C800 C 0.16387 0.80226 0.53141 0.0
C801 C 0.15053 0.78932 0.53162 0.0
C802 C 0.19987 0.84334 0.58033 0.0
C803 C 0.21398 0.84538 0.57609 0.0
C804 C 0.1877 0.82966 0.57338 0.0
C805 C 0.18927 0.81761 0.56164 0.0
C806 C 0.20339 0.81955 0.55785 0.0
C807 C 0.21567 0.83336 0.56497 0.0
H808 H 0.20313 0.34882 0.52224 0.0
H809 H 0.2251 0.39044 0.59357 0.0
H810 H 0.18093 0.35022 0.51832 0.0
H811 H 0.20258 0.39166 0.59114 0.0
H812 H 0.16001 0.39165 0.55094 0.0
H813 H 0.1838 0.39311 0.54285 0.0
H814 H 0.1639 0.34744 0.57929 0.0
H815 H 0.14037 0.34592 0.5862 0.0
C816 C 0.20321 0.35833 0.53678 0.0
C817 C 0.21573 0.36942 0.55879 0.0
C818 C 0.19048 0.35911 0.53477 0.0
C819 C 0.18991 0.37089 0.55538 0.0
C820 C 0.2027 0.38245 0.57491 0.0
C821 C 0.21556 0.38174 0.57643 0.0
C822 C 0.16079 0.38195 0.55704 0.0
C823 C 0.14835 0.36866 0.56892 0.0
C824 C 0.17438 0.3828 0.55257 0.0
C825 C 0.17568 0.37035 0.55982 0.0
C826 C 0.16322 0.35715 0.57229 0.0
C827 C 0.14973 0.3563 0.57662 0.0
H828 H 0.03352 0.25224 0.02283 0.0
H829 H 0.02282 0.28259 0.08837 0.0
H830 H 0.00913 0.23929 0.98736 0.0
H831 H -0.00143 0.2696 0.05378 0.0
H832 H 0.96716 0.25847 0.93406 0.0
H833 H 0.99104 0.26833 0.97039 0.0
H834 H 0.98187 0.22471 0.00375 0.0
H835 H 0.95781 0.21472 0.96654 0.0
C836 C 0.02585 0.25592 0.03054 0.0
C837 C 0.03009 0.26851 0.05781 0.0
C838 C 0.01193 0.24853 0.01023 0.0
C839 C 0.00212 0.25366 0.01698 0.0
C840 C 0.00606 0.26564 0.04698 0.0
C841 C 0.01991 0.27301 0.06707 0.0
C842 C 0.97027 0.25095 0.94859 0.0
C843 C 0.96059 0.23584 0.94788 0.0
C844 C 0.9839 0.2566 0.96976 0.0
C845 C 0.98815 0.24729 0.99085 0.0
C846 C 0.97882 0.23212 0.98791 0.0
C847 C 0.9651 0.22642 0.9666 0.0
H848 H 0.74576 0.70555 0.02308 0.0
H849 H 0.76861 0.73991 0.92111 0.0
H850 H 0.73541 0.71918 0.05858 0.0
H851 H 0.7575 0.75341 0.9552 0.0
H852 H 0.74053 0.77752 0.04826 0.0
H853 H 0.755 0.76653 0.02226 0.0
H854 H 0.71678 0.72369 0.0346 0.0
H855 H 0.70272 0.73451 0.06193 0.0
C856 C 0.74847 0.71603 0.00807 0.0
C857 C 0.75772 0.72158 0.96884 0.0
C858 C 0.74251 0.72383 0.02833 0.0
C859 C 0.74533 0.73723 0.00906 0.0
C860 C 0.75513 0.74313 0.97095 0.0
C861 C 0.7614 0.73539 0.95119 0.0
C862 C 0.73536 0.76575 0.04604 0.0
C863 C 0.72054 0.75686 0.05738 0.0
C864 C 0.74359 0.75947 0.03078 0.0
C865 C 0.73708 0.74422 0.02662 0.0
C866 C 0.72228 0.73544 0.03843 0.0
C867 C 0.71416 0.74166 0.05388 0.0
H868 H 0.211 0.96144 0.05124 0.0
H869 H 0.2548 0.97006 0.07802 0.0
H870 H 0.22098 0.98535 0.01283 0.0
H871 H 0.26464 0.99376 0.04043 0.0
H872 H 0.27788 0.02429 0.91957 0.0
H873 H 0.26458 0.00031 0.95581 0.0
H874 H 0.23672 0.01305 0.02788 0.0
H875 H 0.25002 0.03722 0.99081 0.0
C876 C 0.22272 0.96854 0.04969 0.0
C877 C 0.23215 0.96386 0.06709 0.0
C878 C 0.2284 0.98217 0.0277 0.0
C879 C 0.24356 0.99122 0.02276 0.0
C880 C 0.2529 0.98683 0.04265 0.0
C881 C 0.24727 0.9733 0.0645 0.0
C882 C 0.26876 0.02192 0.94246 0.0
C883 C 0.26509 0.03265 0.95289 0.0
C884 C 0.26121 0.00822 0.96345 0.0
C885 C 0.24987 0.00498 0.99553 0.0
C886 C 0.24547 0.01532 0.00342 0.0
C887 C 0.25305 0.0291 0.98219 0.0
H888 H 0.96894 0.71137 0.91504 0.0
H889 H 0.95808 0.74247 0.97355 0.0
H890 H 0.99313 0.72483 0.94981 0.0
H891 H 0.98245 0.75596 0.00901 0.0
H892 H 0.03422 0.7808 0.02664 0.0
H893 H 0.00996 0.7703 0.99058 0.0
H894 H 0.00041 0.72735 0.03482 0.0
H895 H 0.02448 0.7377 0.0702 0.0
C896 C 0.97181 0.72121 0.93481 0.0
C897 C 0.9616 0.72579 0.94208 0.0
C898 C 0.98561 0.72885 0.95499 0.0
C899 C 0.98951 0.74122 0.98299 0.0
C900 C 0.97967 0.74641 0.98772 0.0
C901 C 0.96577 0.73872 0.9674 0.0
C902 C 0.02681 0.76915 0.02931 0.0
C903 C 0.03126 0.76003 0.0507 0.0
C904 C 0.01297 0.76317 0.00866 0.0
C905 C 0.00348 0.748 0.00905 0.0
C906 C 0.00766 0.73904 0.03298 0.0
C907 C 0.0214 0.74499 0.05354 0.0
H908 H 0.28213 0.25661 0.91774 0.0
H909 H 0.25242 0.21466 0.97914 0.0
H910 H 0.26873 0.26705 0.95473 0.0
H911 H 0.23901 0.22528 0.01709 0.0
H912 H 0.21321 0.25105 0.03896 0.0
H913 H 0.22389 0.23756 0.00198 0.0
H914 H 0.26695 0.27244 0.03859 0.0
H915 H 0.25641 0.28591 0.07455 0.0
C916 C 0.27262 0.24958 0.93878 0.0
C917 C 0.26841 0.23488 0.94602 0.0
C918 C 0.26501 0.25559 0.96025 0.0
C919 C 0.25305 0.24705 0.98969 0.0
C920 C 0.24824 0.2321 0.99471 0.0
C921 C 0.25589 0.22605 0.973 0.0
C922 C 0.22494 0.25568 0.03972 0.0
C923 C 0.23401 0.26959 0.05906 0.0
C924 C 0.23102 0.24797 0.01856 0.0
C925 C 0.24625 0.25412 0.01651 0.0
C926 C 0.2552 0.26762 0.03853 0.0
C927 C 0.24915 0.27528 0.05943 0.0
H928 H 0.78119 0.03613 0.97537 0.0
H929 H 0.73892 0.02349 0.91582 0.0
H930 H 0.7709 0.01224 0.01401 0.0
H931 H 0.72879 -0.00022 0.9538 0.0
H932 H 0.74426 0.96039 0.03891 0.0
H933 H 0.75783 0.98414 0.99929 0.0
H934 H 0.72463 0.99426 0.04089 0.0
H935 H 0.71114 0.97074 0.07984 0.0
C936 C 0.76982 0.02814 0.96962 0.0
C937 C 0.76079 0.0317 0.94317 0.0
C938 C 0.76395 0.01451 0.99176 0.0
C939 C 0.749 0.00436 0.98772 0.0
C940 C 0.74028 0.00758 0.95842 0.0
C941 C 0.7461 0.0211 0.93643 0.0
C942 C 0.74006 0.96784 0.0403 0.0
C943 C 0.72658 0.96368 0.06191 0.0
C944 C 0.74779 0.98138 0.01758 0.0
C945 C 0.74207 0.99083 0.01615 0.0
C946 C 0.72908 0.987 0.04045 0.0
C947 C 0.72142 0.97358 0.06304 0.0
H948 H 0.62476 0.54738 0.3048 0.0
H949 H 0.63628 0.58947 0.24596 0.0
H950 H 0.64868 0.55819 0.34338 0.0
H951 H 0.66007 0.60011 0.28359 0.0
H952 H 0.69992 0.58489 0.37008 0.0
H953 H 0.67621 0.57122 0.33047 0.0
H954 H 0.66639 0.60493 0.36845 0.0
H955 H 0.68994 0.61857 0.40711 0.0
C956 C 0.63253 0.55883 0.29918 0.0
C957 C 0.62864 0.56765 0.27295 0.0
C958 C 0.64617 0.565 0.32129 0.0
C959 C 0.65605 0.58004 0.31737 0.0
C960 C 0.6525 0.58856 0.28827 0.0
C961 C 0.63893 0.58245 0.26642 0.0
C962 C 0.69255 0.5892 0.37061 0.0
C963 C 0.6968 0.60286 0.39114 0.0
C964 C 0.67903 0.58141 0.3479 0.0
C965 C 0.66965 0.58721 0.34545 0.0
C966 C 0.67358 0.6004 0.36865 0.0
C967 C 0.68702 0.60815 0.39114 0.0
H968 H 0.40119 0.03914 0.277 0.0
H969 H 0.44451 0.07653 0.28957 0.0
H970 H 0.39102 0.05284 0.3136 0.0
H971 H 0.43425 0.0903 0.32726 0.0
H972 H 0.4046 0.11189 0.34992 0.0
H973 H 0.41769 0.10075 0.3133 0.0
H974 H 0.39181 0.06153 0.39453 0.0
H975 H 0.37865 0.07247 0.43013 0.0
C976 C 0.40854 0.05034 0.28735 0.0
C977 C 0.42365 0.05673 0.28083 0.0
C978 C 0.40273 0.05816 0.30867 0.0
C979 C 0.41188 0.07253 0.32422 0.0
C980 C 0.42696 0.07922 0.31572 0.0
C981 C 0.43281 0.07135 0.29419 0.0
C982 C 0.40194 0.101 0.36049 0.0
C983 C 0.39051 0.09295 0.39235 0.0
C984 C 0.40941 0.09463 0.33955 0.0
C985 C 0.40552 0.08016 0.35031 0.0
C986 C 0.39476 0.07256 0.3846 0.0
C987 C 0.3873 0.07886 0.40524 0.0
H988 H 0.87782 0.29268 0.36187 0.0
H989 H 0.92033 0.30287 0.41318 0.0
H990 H 0.88873 0.3167 0.32378 0.0
H991 H 0.93108 0.32672 0.37599 0.0
H992 H 0.94871 0.35722 0.25432 0.0
H993 H 0.93485 0.33336 0.29103 0.0
H994 H 0.90269 0.34427 0.3386 0.0
H995 H 0.91657 0.36828 0.30097 0.0
C996 C 0.88941 0.30017 0.36588 0.0
C997 C 0.89828 0.29588 0.38993 0.0
C998 C 0.89563 0.31386 0.34404 0.0
C999 C 0.91078 0.32339 0.34603 0.0
C1000 C 0.91942 0.31942 0.3728 0.0
C1001 C 0.91325 0.30581 0.39441 0.0
C1002 C 0.93857 0.35447 0.27194 0.0
C1003 C 0.93379 0.36464 0.27529 0.0
C1004 C 0.93069 0.34085 0.29327 0.0
C1005 C 0.9179 0.33713 0.31863 0.0
C1006 C 0.91256 0.34691 0.31942 0.0
C1007 C 0.92048 0.36061 0.29787 0.0
H1008 H 0.70006 0.1128 0.35755 0.0
H1009 H 0.68871 0.07046 0.41375 0.0
H1010 H 0.67591 0.10224 0.32079 0.0
H1011 H 0.66469 0.06005 0.37788 0.0
H1012 H 0.63356 0.04224 0.25684 0.0
H1013 H 0.65742 0.05544 0.29383 0.0
H1014 H 0.6486 0.08949 0.33634 0.0
H1015 H 0.62457 0.07626 0.29846 0.0
C1016 C 0.6923 0.10134 0.36291 0.0
C1017 C 0.69629 0.0924 0.38798 0.0
C1018 C 0.67852 0.09531 0.34186 0.0
C1019 C 0.66858 0.08028 0.34563 0.0
C1020 C 0.67228 0.0716 0.37336 0.0
C1021 C 0.68599 0.07758 0.3942 0.0
C1022 C 0.63676 0.05263 0.2735 0.0
C1023 C 0.62717 0.05816 0.27519 0.0
C1024 C 0.65038 0.06013 0.29503 0.0
C1025 C 0.65471 0.07331 0.3189 0.0
C1026 C 0.64549 0.07931 0.31832 0.0
C1027 C 0.63178 0.07177 0.29662 0.0
H1028 H 0.87684 0.5834 0.36388 0.0
H1029 H 0.9195 0.6143 0.41813 0.0
H1030 H 0.88709 0.56947 0.32711 0.0
H1031 H 0.92959 0.60046 0.38169 0.0
H1032 H 0.9154 0.54504 0.31016 0.0
H1033 H 0.90145 0.55523 0.34716 0.0
H1034 H 0.93222 0.59775 0.29212 0.0
H1035 H 0.94606 0.58772 0.25545 0.0
C1036 C 0.8883 0.58701 0.36885 0.0
C1037 C 0.89744 0.60002 0.39327 0.0
C1038 C 0.89413 0.57907 0.34778 0.0
C1039 C 0.90915 0.58413 0.35079 0.0
C1040 C 0.91802 0.59654 0.37804 0.0
C1041 C 0.91223 0.6044 0.3991 0.0
C1042 C 0.91895 0.55648 0.30515 0.0
C1043 C 0.93191 0.56564 0.2805 0.0
C1044 C 0.91101 0.56229 0.32635 0.0
C1045 C 0.916 0.5773 0.32326 0.0
C1046 C 0.92835 0.58619 0.29584 0.0
C1047 C 0.93622 0.58042 0.27464 0.0
H1048 H 0.44763 0.36791 0.30697 0.0
H1049 H 0.40526 0.35673 0.25155 0.0
H1050 H 0.43725 0.34329 0.3404 0.0
H1051 H 0.39504 0.33235 0.28454 0.0
H1052 H 0.37808 0.3019 0.40819 0.0
H1053 H 0.39178 0.32593 0.37264 0.0
H1054 H 0.42322 0.315 0.31819 0.0
H1055 H 0.40939 0.29066 0.35416 0.0
C1056 C 0.43621 0.36011 0.30101 0.0
C1057 C 0.42718 0.36426 0.27729 0.0
C1058 C 0.43031 0.34607 0.32012 0.0
C1059 C 0.41532 0.3361 0.31582 0.0
C1060 C 0.40658 0.33996 0.28918 0.0
C1061 C 0.41244 0.35389 0.27012 0.0
C1062 C 0.38801 0.30464 0.38922 0.0
C1063 C 0.39258 0.29436 0.38343 0.0
C1064 C 0.3958 0.31837 0.36865 0.0
C1065 C 0.40834 0.32214 0.34185 0.0
C1066 C 0.41351 0.31227 0.33851 0.0
C1067 C 0.40564 0.2984 0.35912 0.0
H1068 H 0.29562 0.92731 0.633 0.0
H1069 H 0.29397 0.88575 0.62288 0.0
H1070 H 0.3208 0.93879 0.65796 0.0
H1071 H 0.31967 0.89749 0.64673 0.0
H1072 H 0.36081 0.92272 0.74433 0.0
H1073 H 0.33561 0.90922 0.71535 0.0
H1074 H 0.34412 0.94573 0.62583 0.0
H1075 H 0.36882 0.95925 0.65598 0.0
C1076 C 0.30072 0.92064 0.63553 0.0
C1077 C 0.29285 0.90564 0.62574 0.0
C1078 C 0.31522 0.92726 0.64963 0.0
C1079 C 0.32231 0.91909 0.65386 0.0
C1080 C 0.31447 0.90404 0.64403 0.0
C1081 C 0.29982 0.89736 0.63007 0.0
C1082 C 0.35722 0.92777 0.71844 0.0
C1083 C 0.36663 0.9421 0.70302 0.0
C1084 C 0.34286 0.92003 0.70159 0.0
C1085 C 0.33781 0.92649 0.66878 0.0
C1086 C 0.34752 0.94058 0.65201 0.0
C1087 C 0.36171 0.94833 0.66922 0.0
H1088 H 0.042 0.40474 0.73894 0.0
H1089 H 0.07516 0.44808 0.697 0.0
H1090 H 0.05573 0.39462 0.70218 0.0
H1091 H 0.08896 0.43781 0.65949 0.0
H1092 H 0.11304 0.40999 0.63964 0.0
H1093 H 0.10221 0.42339 0.67617 0.0
H1094 H 0.06038 0.3925 0.61678 0.0
H1095 H 0.07106 0.37912 0.58097 0.0
C1096 C 0.05233 0.41213 0.72233 0.0
C1097 C 0.05744 0.42717 0.72036 0.0
C1098 C 0.06014 0.40632 0.70096 0.0
C1099 C 0.07322 0.41541 0.67704 0.0
C1100 C 0.07885 0.43058 0.67753 0.0
C1101 C 0.07099 0.43643 0.69902 0.0
C1102 C 0.10161 0.40628 0.63367 0.0
C1103 C 0.09283 0.39342 0.60801 0.0
C1104 C 0.09543 0.41392 0.6546 0.0
C1105 C 0.08041 0.40876 0.65014 0.0
C1106 C 0.07192 0.3965 0.62175 0.0
C1107 C 0.07805 0.3889 0.60098 0.0
H1108 H 0.5867 0.63641 0.73974 0.0
H1109 H 0.54319 0.62457 0.69414 0.0
H1110 H 0.59623 0.6601 0.70214 0.0
H1111 H 0.55288 0.64851 0.65613 0.0
H1112 H 0.58033 0.70093 0.63667 0.0
H1113 H 0.5671 0.67679 0.67393 0.0
H1114 H 0.59784 0.66573 0.61404 0.0
H1115 H 0.611 0.68965 0.57721 0.0
C1116 C 0.57913 0.63896 0.72229 0.0
C1117 C 0.56423 0.6286 0.71938 0.0
C1118 C 0.58461 0.65248 0.7005 0.0
C1119 C 0.57531 0.65595 0.67538 0.0
C1120 C 0.56025 0.64602 0.6751 0.0
C1121 C 0.55473 0.63238 0.69689 0.0
C1122 C 0.58402 0.69319 0.63063 0.0
C1123 C 0.59679 0.6972 0.6046 0.0
C1124 C 0.57648 0.67942 0.652 0.0
C1125 C 0.58169 0.6696 0.64767 0.0
C1126 C 0.59382 0.67327 0.6188 0.0
C1127 C 0.60129 0.68692 0.59748 0.0
H1128 H 0.3553 0.40411 0.76185 0.0
H1129 H 0.36654 0.44549 0.69789 0.0
H1130 H 0.33112 0.3932 0.72699 0.0
H1131 H 0.34224 0.4344 0.66193 0.0
H1132 H 0.29112 0.40837 0.63864 0.0
H1133 H 0.31509 0.42206 0.67665 0.0
H1134 H 0.32354 0.38706 0.64426 0.0
H1135 H 0.29972 0.3734 0.60734 0.0
C1136 C 0.35252 0.41092 0.7408 0.0
C1137 C 0.36282 0.42558 0.7321 0.0
C1138 C 0.33871 0.40465 0.72053 0.0
C1139 C 0.33494 0.41287 0.69078 0.0
C1140 C 0.34489 0.42781 0.68459 0.0
C1141 C 0.35876 0.43414 0.70518 0.0
C1142 C 0.29823 0.40375 0.63913 0.0
C1143 C 0.29354 0.38977 0.62053 0.0
C1144 C 0.31191 0.41156 0.66089 0.0
C1145 C 0.32102 0.40547 0.66433 0.0
C1146 C 0.31658 0.39185 0.64333 0.0
C1147 C 0.30299 0.38408 0.62181 0.0
H1148 H 0.58458 0.88536 0.61329 0.0
H1149 H 0.62363 0.92765 0.62204 0.0
H1150 H 0.56997 0.89637 0.63769 0.0
H1151 H 0.60934 0.93841 0.64764 0.0
H1152 H 0.58127 0.95786 0.65131 0.0
H1153 H 0.59236 0.94468 0.61759 0.0
H1154 H 0.56546 0.90765 0.70679 0.0
H1155 H 0.55372 0.9208 0.73906 0.0
C1156 C 0.59 0.89698 0.62018 0.0
C1157 C 0.60521 0.90567 0.61549 0.0
C1158 C 0.58168 0.90325 0.63448 0.0
C1159 C 0.58847 0.91828 0.64425 0.0
C1160 C 0.60368 0.92687 0.63935 0.0
C1161 C 0.61192 0.92067 0.6249 0.0
C1162 C 0.57767 0.94688 0.66363 0.0
C1163 C 0.56688 0.94042 0.69843 0.0
C1164 C 0.58405 0.93933 0.64437 0.0
C1165 C 0.58004 0.92524 0.66025 0.0
C1166 C 0.56876 0.91849 0.69375 0.0
C1167 C 0.56213 0.92601 0.71248 0.0
H1168 H 0.07412 0.6258 0.69579 0.0
H1169 H 0.04489 0.6383 0.75945 0.0
H1170 H 0.08748 0.64976 0.65774 0.0
H1171 H 0.05828 0.66215 0.72221 0.0
H1172 H 0.06937 0.69198 0.59769 0.0
H1173 H 0.05924 0.66857 0.63747 0.0
H1174 H 0.10269 0.67727 0.67076 0.0
H1175 H 0.11294 0.70086 0.63017 0.0
C1176 C 0.07079 0.63379 0.70259 0.0
C1177 C 0.05837 0.63016 0.73003 0.0
C1178 C 0.07841 0.64747 0.68078 0.0
C1179 C 0.07368 0.65765 0.68618 0.0
C1180 C 0.06192 0.65436 0.71647 0.0
C1181 C 0.05433 0.64075 0.73807 0.0
C1182 C 0.07679 0.68885 0.61293 0.0
C1183 C 0.09193 0.69828 0.6112 0.0
C1184 C 0.07099 0.6755 0.63608 0.0
C1185 C 0.08018 0.67128 0.65816 0.0
C1186 C 0.09537 0.68031 0.65422 0.0
C1187 C 0.10122 0.69376 0.63093 0.0
H1188 H 0.11259 0.36499 0.75047 0.0
H1189 H 0.07759 0.32474 0.69386 0.0
H1190 H 0.10677 0.35479 0.82969 0.0
H1191 H 0.07153 0.31457 0.77358 0.0
H1192 H 0.07752 0.29615 0.91372 0.0
H1193 H 0.08189 0.30635 0.83448 0.0
H1194 H 0.08844 0.34712 0.89117 0.0
H1195 H 0.08435 0.33695 0.97087 0.0
C1196 C 0.10357 0.35397 0.755 0.0
C1197 C 0.09557 0.34563 0.7159 0.0
C1198 C 0.10017 0.34817 0.80051 0.0
C1199 C 0.08868 0.33387 0.80806 0.0
C1200 C 0.08057 0.32557 0.76893 0.0
C1201 C 0.08398 0.3314 0.72329 0.0
C1202 C 0.07987 0.30729 0.9093 0.0
C1203 C 0.08066 0.31578 0.94855 0.0
C1204 C 0.08226 0.3131 0.86379 0.0
C1205 C 0.0855 0.32755 0.8564 0.0
C1206 C 0.08614 0.336 0.89569 0.0
C1207 C 0.08374 0.33017 0.94132 0.0
H1208 H 0.69399 0.77917 0.91209 0.0
H1209 H 0.6539 0.74403 0.96893 0.0
H1210 H 0.68382 0.77308 0.8328 0.0
H1211 H 0.6438 0.73769 0.88928 0.0
H1212 H 0.62511 0.74321 0.74945 0.0
H1213 H 0.63539 0.74775 0.8285 0.0
H1214 H 0.67625 0.75469 0.77148 0.0
H1215 H 0.66599 0.75046 0.69185 0.0
C1216 C 0.68302 0.77007 0.90758 0.0
C1217 C 0.6747 0.76212 0.94674 0.0
C1218 C 0.67724 0.76651 0.86207 0.0
C1219 C 0.663 0.75489 0.85464 0.0
C1220 C 0.65474 0.74682 0.89384 0.0
C1221 C 0.66053 0.75041 0.93944 0.0
C1222 C 0.63628 0.74565 0.75375 0.0
C1223 C 0.64477 0.74654 0.71443 0.0
C1224 C 0.64214 0.74815 0.79916 0.0
C1225 C 0.65664 0.75157 0.80638 0.0
C1226 C 0.66509 0.75225 0.76705 0.0
C1227 C 0.65921 0.74976 0.72149 0.0
H1228 H 0.24448 0.90868 0.98682 0.0
H1229 H 0.2072 0.91076 0.93479 0.0
H1230 H 0.24966 0.90393 0.90664 0.0
H1231 H 0.21224 0.90586 0.85512 0.0
H1232 H 0.23511 0.91288 0.71258 0.0
H1233 H 0.23061 0.91801 0.79297 0.0
H1234 H 0.23898 0.8846 0.84601 0.0
H1235 H 0.24366 0.87962 0.76582 0.0
C1236 C 0.23737 0.90806 0.95832 0.0
C1237 C 0.22545 0.91009 0.96704 0.0
C1238 C 0.24029 0.90529 0.91249 0.0
C1239 C 0.23138 0.90458 0.87455 0.0
C1240 C 0.21943 0.90656 0.88346 0.0
C1241 C 0.21649 0.90926 0.92918 0.0
C1242 C 0.23598 0.90665 0.74143 0.0
C1243 C 0.2397 0.89583 0.73294 0.0
C1244 C 0.23335 0.90953 0.78742 0.0
C1245 C 0.23443 0.9017 0.82582 0.0
C1246 C 0.23823 0.89094 0.81725 0.0
C1247 C 0.24081 0.88802 0.77128 0.0
H1248 H 0.30116 0.09453 0.08203 0.0
H1249 H 0.32637 0.07379 0.04903 0.0
H1250 H 0.31018 0.09846 0.16305 0.0
H1251 H 0.33522 0.07754 0.13085 0.0
H1252 H 0.33239 0.07332 0.29763 0.0
H1253 H 0.32299 0.06855 0.2164 0.0
H1254 H 0.33618 0.11406 0.20012 0.0
H1255 H 0.34577 0.11888 0.2805 0.0
C1256 C 0.30863 0.0908 0.09214 0.0
C1257 C 0.31312 0.08391 0.05923 0.0
C1258 C 0.31378 0.09307 0.13846 0.0
C1259 C 0.32334 0.08826 0.1531 0.0
C1260 C 0.32776 0.08124 0.1204 0.0
C1261 C 0.3228 0.07921 0.07365 0.0
C1262 C 0.33316 0.08225 0.27672 0.0
C1263 C 0.33976 0.09646 0.2953 0.0
C1264 C 0.32791 0.07955 0.23026 0.0
C1265 C 0.32892 0.09096 0.20214 0.0
C1266 C 0.33523 0.10508 0.22116 0.0
C1267 C 0.34072 0.10782 0.2671 0.0
H1268 H 0.87544 0.24587 0.25211 0.0
H1269 H 0.91019 0.23974 0.30593 0.0
H1270 H 0.88073 0.24137 0.17223 0.0
H1271 H 0.91566 0.23544 0.22561 0.0
H1272 H 0.90955 0.21213 0.08351 0.0
H1273 H 0.90466 0.21705 0.16339 0.0
H1274 H 0.89947 0.25256 0.11116 0.0
H1275 H 0.90416 0.24747 0.03083 0.0
C1276 C 0.88424 0.24358 0.24684 0.0
C1277 C 0.89238 0.24311 0.28531 0.0
C1278 C 0.88734 0.24112 0.20099 0.0
C1279 C 0.89863 0.23808 0.1925 0.0
C1280 C 0.90678 0.2376 0.23103 0.0
C1281 C 0.9037 0.24011 0.27699 0.0
C1282 C 0.90734 0.22098 0.08903 0.0
C1283 C 0.9072 0.2294 0.05088 0.0
C1284 C 0.90465 0.22386 0.13489 0.0
C1285 C 0.90172 0.23521 0.1437 0.0
C1286 C 0.90155 0.24363 0.10548 0.0
C1287 C 0.90429 0.24076 0.05951 0.0
H1288 H 0.75561 0.67068 0.30588 0.0
H1289 H 0.74607 0.62815 0.25677 0.0
H1290 H 0.76108 0.67986 0.22482 0.0
H1291 H 0.75169 0.63732 0.17626 0.0
H1292 H 0.74738 0.65516 0.03257 0.0
H1293 H 0.74187 0.64584 0.11334 0.0
H1294 H 0.77956 0.68519 0.16353 0.0
H1295 H 0.78495 0.69455 0.0831 0.0
C1296 C 0.75472 0.66332 0.27783 0.0
C1297 C 0.75043 0.64872 0.28767 0.0
C1298 C 0.75791 0.66857 0.23148 0.0
C1299 C 0.75681 0.6593 0.19411 0.0
C1300 C 0.75247 0.64469 0.20411 0.0
C1301 C 0.74934 0.63947 0.25033 0.0
C1302 C 0.75454 0.66175 0.06084 0.0
C1303 C 0.7666 0.67556 0.0515 0.0
C1304 C 0.75141 0.65642 0.10707 0.0
C1305 C 0.76024 0.66482 0.14488 0.0
C1306 C 0.77242 0.67855 0.13532 0.0
C1307 C 0.77557 0.68385 0.08916 0.0
H1308 H 0.90809 0.65705 0.02869 0.0
H1309 H 0.91427 0.69761 0.0859 0.0
H1310 H 0.90413 0.64689 0.10839 0.0
H1311 H 0.91005 0.68742 0.16511 0.0
H1312 H 0.91436 0.6693 0.30583 0.0
H1313 H 0.92059 0.67939 0.22606 0.0
H1314 H 0.88568 0.63901 0.16967 0.0
H1315 H 0.87969 0.62888 0.24897 0.0
C1316 C 0.90859 0.66378 0.05826 0.0
C1317 C 0.91144 0.67809 0.05105 0.0
C1318 C 0.90628 0.65796 0.10387 0.0
C1319 C 0.90677 0.66635 0.14315 0.0
C1320 C 0.9098 0.68073 0.1358 0.0
C1321 C 0.9121 0.68653 0.0903 0.0
C1322 C 0.90809 0.66259 0.27632 0.0
C1323 C 0.89651 0.64834 0.28365 0.0
C1324 C 0.9116 0.66837 0.23066 0.0
C1325 C 0.90361 0.66001 0.19146 0.0
C1326 C 0.89218 0.64568 0.19893 0.0
C1327 C 0.88868 0.63992 0.24447 0.0
H1328 H 0.31024 0.20741 0.05904 0.0
H1329 H 0.32742 0.2536 0.03827 0.0
H1330 H 0.31985 0.21208 0.13947 0.0
H1331 H 0.33678 0.25823 0.11956 0.0
H1332 H 0.33256 0.25376 0.28747 0.0
H1333 H 0.3237 0.25 0.20566 0.0
H1334 H 0.34659 0.22672 0.17575 0.0
H1335 H 0.35568 0.23072 0.25678 0.0
C1336 C 0.31612 0.21857 0.07168 0.0
C1337 C 0.31815 0.23016 0.04246 0.0
C1338 C 0.32161 0.22122 0.11762 0.0
C1339 C 0.32897 0.23549 0.13558 0.0
C1340 C 0.33104 0.24712 0.10646 0.0
C1341 C 0.3258 0.24449 0.06001 0.0
C1342 C 0.33564 0.24781 0.26337 0.0
C1343 C 0.34476 0.24249 0.27838 0.0
C1344 C 0.33068 0.24578 0.21664 0.0
C1345 C 0.33452 0.23811 0.1846 0.0
C1346 C 0.34347 0.23264 0.19986 0.0
C1347 C 0.34866 0.23493 0.24615 0.0
H1348 H 0.74295 0.08274 0.02687 0.0
H1349 H 0.7782 0.078 0.08396 0.0
H1350 H 0.7365 0.08638 0.10666 0.0
H1351 H 0.77191 0.08182 0.16327 0.0
H1352 H 0.74892 0.07668 0.3038 0.0
H1353 H 0.75294 0.07055 0.224 0.0
H1354 H 0.74728 0.10535 0.16766 0.0
H1355 H 0.74309 0.11131 0.24697 0.0
C1356 C 0.74929 0.08245 0.05643 0.0
C1357 C 0.76111 0.08016 0.04918 0.0
C1358 C 0.74564 0.08458 0.10206 0.0
C1359 C 0.75371 0.08439 0.14128 0.0
C1360 C 0.76537 0.08184 0.13393 0.0
C1361 C 0.76904 0.07977 0.08841 0.0
C1362 C 0.74847 0.08295 0.27429 0.0
C1363 C 0.74576 0.0945 0.28162 0.0
C1364 C 0.75082 0.07948 0.22866 0.0
C1365 C 0.75043 0.08747 0.18951 0.0
C1366 C 0.74747 0.09886 0.19694 0.0
C1367 C 0.74518 0.10235 0.24246 0.0
H1368 H 0.6718 0.91413 0.7047 0.0
H1369 H 0.63016 0.88078 0.75856 0.0
H1370 H 0.68153 0.91935 0.78498 0.0
H1371 H 0.63993 0.8858 0.83854 0.0
H1372 H 0.65828 0.90901 0.9799 0.0
H1373 H 0.64838 0.9046 0.89972 0.0
H1374 H 0.68814 0.90773 0.84688 0.0
H1375 H 0.69807 0.91237 0.9265 0.0
C1376 C 0.66476 0.90788 0.73365 0.0
C1377 C 0.65025 0.89702 0.72535 0.0
C1378 C 0.67033 0.91082 0.77961 0.0
C1379 C 0.6615 0.90298 0.81816 0.0
C1380 C 0.64696 0.89217 0.80973 0.0
C1381 C 0.64141 0.88922 0.76385 0.0
C1382 C 0.66487 0.90874 0.9511 0.0
C1383 C 0.67893 0.91102 0.95946 0.0
C1384 C 0.65919 0.90617 0.90523 0.0
C1385 C 0.66749 0.90585 0.86689 0.0
C1386 C 0.68155 0.90813 0.87547 0.0
C1387 C 0.68719 0.91068 0.92119 0.0
H1388 H 0.11657 0.75114 0.7422 0.0
H1389 H 0.07971 0.75368 0.68855 0.0
H1390 H 0.1111 0.75566 0.82178 0.0
H1391 H 0.07405 0.75798 0.76863 0.0
H1392 H 0.07903 0.78155 0.90996 0.0
H1393 H 0.08394 0.77669 0.83002 0.0
H1394 H 0.09289 0.74372 0.88362 0.0
H1395 H 0.08819 0.74879 0.96393 0.0
C1396 C 0.10728 0.75266 0.74743 0.0
C1397 C 0.09858 0.75209 0.70909 0.0
C1398 C 0.10407 0.75513 0.79314 0.0
C1399 C 0.0921 0.7571 0.80164 0.0
C1400 C 0.08344 0.75663 0.7632 0.0
C1401 C 0.08664 0.75413 0.71737 0.0
C1402 C 0.08204 0.77325 0.9047 0.0
C1403 C 0.08328 0.76558 0.94325 0.0
C1404 C 0.08475 0.7704 0.85882 0.0
C1405 C 0.08881 0.75982 0.85039 0.0
C1406 C 0.08996 0.75207 0.88898 0.0
C1407 C 0.08721 0.75491 0.93495 0.0
H1408 H 0.24376 0.33675 0.97506 0.0
H1409 H 0.20913 0.29552 0.92289 0.0
H1410 H 0.24859 0.34641 0.89456 0.0
H1411 H 0.21385 0.30518 0.84279 0.0
H1412 H 0.23744 0.32273 0.70099 0.0
H1413 H 0.23294 0.31307 0.78144 0.0
H1414 H 0.23649 0.35317 0.8328 0.0
H1415 H 0.2411 0.36285 0.7527 0.0
C1416 C 0.23717 0.32979 0.94645 0.0
C1417 C 0.22607 0.3154 0.95526 0.0
C1418 C 0.23988 0.33532 0.90042 0.0
C1419 C 0.23161 0.32654 0.86233 0.0
C1420 C 0.22053 0.31215 0.87127 0.0
C1421 C 0.21777 0.30666 0.91722 0.0
C1422 C 0.23721 0.32944 0.72948 0.0
C1423 C 0.2396 0.34352 0.72056 0.0
C1424 C 0.2346 0.32391 0.77549 0.0
C1425 C 0.2344 0.33238 0.81347 0.0
C1426 C 0.23677 0.34645 0.80441 0.0
C1427 C 0.2393 0.35195 0.75846 0.0
H1428 H 0.02954 0.44921 0.58221 0.0
H1429 H 0.98915 0.41383 0.63644 0.0
H1430 H 0.01971 0.44364 0.50241 0.0
H1431 H 0.97935 0.40808 0.55623 0.0
H1432 H 0.96164 0.41396 0.41469 0.0
H1433 H 0.9715 0.41878 0.49446 0.0
H1434 H 0.01245 0.42493 0.44123 0.0
H1435 H 0.00261 0.42031 0.36097 0.0
C1436 C 0.01856 0.4402 0.57705 0.0
C1437 C 0.01009 0.43198 0.6156 0.0
C1438 C 0.01297 0.43695 0.53125 0.0
C1439 C -0.00124 0.4254 0.52292 0.0
C1440 C 0.99028 0.41715 0.56153 0.0
C1441 C -0.0041 0.42039 0.60743 0.0
C1442 C 0.97276 0.41634 0.41997 0.0
C1443 C 0.98138 0.41681 0.38155 0.0
C1444 C 0.97836 0.41899 0.46576 0.0
C1445 C 0.99274 0.4222 0.47424 0.0
C1446 C 0.00137 0.42263 0.43579 0.0
C1447 C -0.00427 0.41993 0.38987 0.0
H1448 H 0.57976 0.54721 0.4132 0.0
H1449 H 0.57455 0.58232 0.35731 0.0
H1450 H 0.57545 0.55297 0.49259 0.0
H1451 H 0.57046 0.58829 0.43724 0.0
H1452 H 0.54609 0.58192 0.57803 0.0
H1453 H 0.55184 0.57768 0.49848 0.0
H1454 H 0.58643 0.57153 0.55384 0.0
H1455 H 0.58047 0.57553 0.63385 0.0
C1456 C 0.57776 0.55622 0.41792 0.0
C1457 C 0.57743 0.56428 0.37899 0.0
C1458 C 0.5754 0.5596 0.46352 0.0
C1459 C 0.57265 0.57111 0.47131 0.0
C1460 C 0.57241 0.57925 0.43235 0.0
C1461 C 0.5748 0.57588 0.38662 0.0
C1462 C 0.55496 0.5797 0.57325 0.0
C1463 C 0.5628 0.57899 0.61221 0.0
C1464 C 0.55831 0.57738 0.52758 0.0
C1465 C 0.56959 0.57427 0.51977 0.0
C1466 C 0.57756 0.57373 0.55874 0.0
C1467 C 0.5742 0.57608 0.60452 0.0
H1468 H 0.42294 0.96683 0.5854 0.0
H1469 H 0.42643 0.00725 0.633 0.0
H1470 H 0.4276 0.97593 0.50453 0.0
H1471 H 0.43101 0.01634 0.55187 0.0
H1472 H 0.45281 0.03273 0.40781 0.0
H1473 H 0.44953 0.02377 0.48865 0.0
H1474 H 0.41464 0.98179 0.44283 0.0
H1475 H 0.41798 0.99075 0.36157 0.0
C1476 C 0.42482 0.97771 0.57864 0.0
C1477 C 0.42433 0.98634 0.61558 0.0
C1478 C 0.42737 0.98287 0.53224 0.0
C1479 C 0.42958 0.99681 0.52175 0.0
C1480 C 0.42945 0.00559 0.55888 0.0
C1481 C 0.42681 0.00038 0.60532 0.0
C1482 C 0.44447 0.02156 0.4149 0.0
C1483 C 0.43564 0.01243 0.37832 0.0
C1484 C 0.44254 0.01647 0.4613 0.0
C1485 C 0.43181 0.0021 0.47218 0.0
C1486 C 0.4231 0.99288 0.43548 0.0
C1487 C 0.42497 -0.00198 0.389 0.0
H1488 H 0.57565 0.00588 0.63344 0.0
H1489 H 0.53879 0.96613 0.5816 0.0
H1490 H 0.58121 0.0154 0.55298 0.0
H1491 H 0.54419 0.97572 0.5014 0.0
H1492 H 0.56834 0.991 0.3597 0.0
H1493 H 0.56269 0.98156 0.44038 0.0
H1494 H 0.57153 0.02383 0.49008 0.0
H1495 H 0.57739 0.03328 0.40992 0.0
C1496 C 0.56865 -0.00074 0.60493 0.0
C1497 C 0.55679 0.98528 0.61382 0.0
C1498 C 0.57181 0.00471 0.55886 0.0
C1499 C 0.56318 0.99628 0.52074 0.0
C1500 C 0.55119 0.98239 0.52985 0.0
C1501 C 0.54803 0.97695 0.57586 0.0
C1502 C 0.56907 -0.00175 0.38791 0.0
C1503 C 0.57331 0.01286 0.3785 0.0
C1504 C 0.56577 0.99284 0.43406 0.0
C1505 C 0.56667 0.00196 0.47167 0.0
C1506 C 0.57091 0.01658 0.46207 0.0
C1507 C 0.57418 0.02196 0.41605 0.0
H1508 H 0.00095 0.58342 0.36763 0.0
H1509 H 0.96106 0.54798 0.42446 0.0
H1510 H 0.01098 0.58992 0.44741 0.0
H1511 H 0.97114 0.55425 0.50379 0.0
H1512 H 0.98878 0.57677 0.64493 0.0
H1513 H 0.97857 0.57265 0.56523 0.0
H1514 H 0.0195 0.57982 0.50818 0.0
H1515 H 0.02972 0.58419 0.58732 0.0
C1516 C 0.99434 0.57703 0.39713 0.0
C1517 C 0.98026 0.56517 0.38978 0.0
C1518 C 9e-05 0.58071 0.4428 0.0
C1519 C 0.99187 0.57259 0.48201 0.0
C1520 C 0.9777 0.56086 0.47453 0.0
C1521 C 0.97196 0.5572 0.42897 0.0
C1522 C 0.99559 0.57753 0.61528 0.0
C1523 C 0.01002 0.58075 0.62237 0.0
C1524 C 0.98974 0.57512 0.56967 0.0
C1525 C -0.00178 0.5759 0.5303 0.0
C1526 C 0.01272 0.57934 0.53756 0.0
C1527 C 0.01855 0.58173 0.58302 0.0
H1528 H 0.41135 0.41786 0.36953 0.0
H1529 H 0.44466 0.40991 0.42594 0.0
H1530 H 0.40547 0.422 0.44943 0.0
H1531 H 0.43901 0.41431 0.50543 0.0
H1532 H 0.41639 0.41049 0.64629 0.0
H1533 H 0.42035 0.40431 0.56653 0.0
H1534 H 0.41676 0.4404 0.51075 0.0
H1535 H 0.41255 0.44637 0.58997 0.0
C1536 C 0.41739 0.41699 0.39897 0.0
C1537 C 0.42849 0.41361 0.39147 0.0
C1538 C 0.41408 0.41942 0.44471 0.0
C1539 C 0.4218 0.41852 0.48383 0.0
C1540 C 0.43273 0.41491 0.47622 0.0
C1541 C 0.43604 0.41249 0.43058 0.0
C1542 C 0.41642 0.41706 0.61692 0.0
C1543 C 0.41419 0.42892 0.62438 0.0
C1544 C 0.41874 0.41356 0.57128 0.0
C1545 C 0.41885 0.42185 0.53223 0.0
C1546 C 0.41652 0.43365 0.53987 0.0
C1547 C 0.41423 0.43714 0.58538 0.0
H1548 H 0.0804 0.33611 0.19257 0.0
H1549 H 0.07362 0.29578 0.25359 0.0
H1550 H 0.08399 0.34674 0.27137 0.0
H1551 H 0.07766 0.30648 0.33202 0.0
H1552 H 0.07491 0.32559 0.47143 0.0
H1553 H 0.06806 0.31499 0.39255 0.0
H1554 H 0.10195 0.35533 0.33239 0.0
H1555 H 0.10843 0.366 0.41091 0.0
C1556 C 0.07965 0.32952 0.22283 0.0
C1557 C 0.07677 0.31513 0.2169 0.0
C1558 C 0.0818 0.33562 0.26799 0.0
C1559 C 0.08118 0.3275 0.30817 0.0
C1560 C 0.078 0.31301 0.30208 0.0
C1561 C 0.07578 0.30689 0.25702 0.0
C1562 C 0.08078 0.33221 0.44126 0.0
C1563 C 0.09223 0.3466 0.44736 0.0
C1564 C 0.07693 0.32612 0.39606 0.0
C1565 C 0.08449 0.33427 0.356 0.0
C1566 C 0.09573 0.34878 0.36224 0.0
C1567 C 0.09953 0.35488 0.40735 0.0
H1568 H 0.62497 0.74226 0.4099 0.0
H1569 H 0.6642 0.7458 0.46918 0.0
H1570 H 0.63554 0.74624 0.33129 0.0
H1571 H 0.67467 0.74934 0.39018 0.0
H1572 H 0.69489 0.77411 0.25191 0.0
H1573 H 0.6842 0.76777 0.33042 0.0
H1574 H 0.64294 0.73592 0.26956 0.0
H1575 H 0.65358 0.74264 0.19075 0.0
C1576 C 0.6358 0.74371 0.40603 0.0
C1577 C 0.64379 0.74379 0.44572 0.0
C1578 C 0.64183 0.74589 0.36088 0.0
C1579 C 0.65598 0.74813 0.35428 0.0
C1580 C 0.66383 0.74787 0.394 0.0
C1581 C 0.65782 0.74576 0.43926 0.0
C1582 C 0.68356 0.76568 0.25532 0.0
C1583 C 0.67505 0.75892 0.21516 0.0
C1584 C 0.67744 0.76198 0.3004 0.0
C1585 C 0.66268 0.75135 0.30643 0.0
C1586 C 0.65428 0.74432 0.26621 0.0
C1587 C 0.66038 0.74809 0.22104 0.0
H1588 H 0.23973 0.90384 0.21273 0.0
H1589 H 0.22923 0.93582 0.26505 0.0
H1590 H 0.24578 0.90007 0.29229 0.0
H1591 H 0.236 0.93265 0.34461 0.0
H1592 H 0.23001 0.90877 0.48534 0.0
H1593 H 0.2268 0.91558 0.40606 0.0
H1594 H 0.26185 0.9092 0.35613 0.0
H1595 H 0.26445 0.90166 0.43506 0.0
C1596 C 0.23901 0.91029 0.2412 0.0
C1597 C 0.23392 0.92005 0.2328 0.0
C1598 C 0.24258 0.90821 0.2869 0.0
C1599 C 0.24133 0.916 0.3252 0.0
C1600 C 0.2368 0.92622 0.31627 0.0
C1601 C 0.23302 0.92814 0.27062 0.0
C1602 C 0.23709 0.90895 0.45743 0.0
C1603 C 0.24739 0.90458 0.46621 0.0
C1604 C 0.23533 0.91295 0.41194 0.0
C1605 C 0.24401 0.91289 0.37436 0.0
C1606 C 0.25474 0.90907 0.38382 0.0
C1607 C 0.25632 0.90485 0.42914 0.0
H1608 H 0.36371 0.10609 0.596 0.0
H1609 H 0.32228 0.07436 0.53634 0.0
H1610 H 0.35325 0.10005 0.67479 0.0
H1611 H 0.31188 0.06781 0.61545 0.0
H1612 H 0.29376 0.07462 0.75395 0.0
H1613 H 0.30428 0.07788 0.67565 0.0
H1614 H 0.34394 0.08284 0.73681 0.0
H1615 H 0.33353 0.08017 0.81559 0.0
C1616 C 0.35241 0.09762 0.59984 0.0
C1617 C 0.34378 0.09076 0.55999 0.0
C1618 C 0.34642 0.09407 0.64512 0.0
C1619 C 0.33167 0.08348 0.6517 0.0
C1620 C 0.3232 0.07623 0.61177 0.0
C1621 C 0.32916 0.0799 0.5664 0.0
C1622 C 0.3047 0.07632 0.75067 0.0
C1623 C 0.31285 0.07722 0.79093 0.0
C1624 C 0.31071 0.07808 0.70565 0.0
C1625 C 0.32499 0.08063 0.69966 0.0
C1626 C 0.33301 0.08113 0.74002 0.0
C1627 C 0.32702 0.07952 0.78519 0.0
H1628 H 0.91229 0.25422 0.80775 0.0
H1629 H 0.92038 0.22159 0.74615 0.0
H1630 H 0.90874 0.26132 0.72907 0.0
H1631 H 0.91631 0.22825 0.66783 0.0
H1632 H 0.91732 0.24887 0.52834 0.0
H1633 H 0.92501 0.24601 0.60693 0.0
H1634 H 0.8908 0.25167 0.66867 0.0
H1635 H 0.88354 0.25506 0.59039 0.0
C1636 C 0.91337 0.24861 0.77737 0.0
C1637 C 0.91656 0.23731 0.78311 0.0
C1638 C 0.91124 0.25261 0.73227 0.0
C1639 C 0.91213 0.2453 0.69196 0.0
C1640 C 0.91574 0.23428 0.69785 0.0
C1641 C 0.91798 0.23038 0.74286 0.0
C1642 C 0.91158 0.24967 0.5588 0.0
C1643 C 0.8998 0.25213 0.55322 0.0
C1644 C 0.91591 0.24794 0.60385 0.0
C1645 C 0.90848 0.24851 0.64428 0.0
C1646 C 0.89694 0.25137 0.63854 0.0
C1647 C 0.89269 0.25321 0.59357 0.0
H1648 H 0.76932 0.69881 0.75082 0.0
H1649 H 0.73834 0.65728 0.81175 0.0
H1650 H 0.7624 0.68841 0.67213 0.0
H1651 H 0.73089 0.64696 0.73284 0.0
H1652 H 0.73756 0.629 0.59332 0.0
H1653 H 0.74071 0.63944 0.6717 0.0
H1654 H 0.74487 0.67886 0.61111 0.0
H1655 H 0.74231 0.66853 0.53222 0.0
C1656 C 0.76079 0.68752 0.74732 0.0
C1657 C 0.75447 0.67882 0.78745 0.0
C1658 C 0.75674 0.68156 0.7021 0.0
C1659 C 0.74615 0.66678 0.6959 0.0
C1660 C 0.73931 0.65829 0.73619 0.0
C1661 C 0.74349 0.66422 0.78145 0.0
C1662 C 0.73902 0.63985 0.59674 0.0
C1663 C 0.73978 0.64798 0.5566 0.0
C1664 C 0.74071 0.64582 0.64182 0.0
C1665 C 0.74307 0.66004 0.64799 0.0
C1666 C 0.74332 0.66798 0.60776 0.0
C1667 C 0.74177 0.66204 0.56253 0.0
H1668 H 0.88312 0.62859 0.58868 0.0
H1669 H 0.91695 0.66875 0.52775 0.0
H1670 H 0.8899 0.63923 0.66713 0.0
H1671 H 0.92409 0.67932 0.60661 0.0
H1672 H 0.91877 0.69859 0.74622 0.0
H1673 H 0.91468 0.68799 0.66761 0.0
H1674 H 0.9081 0.64756 0.72754 0.0
H1675 H 0.91175 0.65809 0.8065 0.0
C1676 C 0.89215 0.63965 0.59213 0.0
C1677 C 0.89946 0.64787 0.55204 0.0
C1678 C 0.89612 0.64572 0.6372 0.0
C1679 C 0.90754 0.66015 0.64331 0.0
C1680 C 0.9151 0.66825 0.60317 0.0
C1681 C 0.91107 0.66218 0.558 0.0
C1682 C 0.91655 0.68747 0.74259 0.0
C1683 C 0.91549 0.67913 0.78254 0.0
C1684 C 0.91431 0.68141 0.69743 0.0
C1685 C 0.91102 0.6669 0.69113 0.0
C1686 C 0.91038 0.6587 0.73112 0.0
C1687 C 0.91255 0.66474 0.77636 0.0
H1688 H 0.29449 0.22101 0.74109 0.0
H1689 H 0.33571 0.25339 0.80027 0.0
H1690 H 0.30492 0.227 0.66224 0.0
H1691 H 0.34605 0.2599 0.7211 0.0
H1692 H 0.3645 0.25305 0.58333 0.0
H1693 H 0.35395 0.24992 0.66154 0.0
H1694 H 0.31398 0.24398 0.59968 0.0
H1695 H 0.32444 0.24651 0.52103 0.0
C1696 C 0.30573 0.22962 0.73712 0.0
C1697 C 0.31432 0.23666 0.77685 0.0
C1698 C 0.3117 0.23313 0.6918 0.0
C1699 C 0.32639 0.24389 0.68509 0.0
C1700 C 0.3348 0.25134 0.72489 0.0
C1701 C 0.32886 0.2477 0.77029 0.0
C1702 C 0.35349 0.25117 0.58644 0.0
C1703 C 0.34526 0.24994 0.54605 0.0
C1704 C 0.34745 0.24948 0.6314 0.0
C1705 C 0.33308 0.24669 0.63717 0.0
C1706 C 0.32499 0.24588 0.59665 0.0
C1707 C 0.331 0.24741 0.55156 0.0
H1708 H 0.75231 0.09334 0.80247 0.0
H1709 H 0.76233 0.0611 0.74955 0.0
H1710 H 0.74604 0.09707 0.72305 0.0
H1711 H 0.75529 0.06415 0.67037 0.0
H1712 H 0.75958 0.08641 0.52822 0.0
H1713 H 0.76375 0.08053 0.60764 0.0
H1714 H 0.72965 0.08796 0.66042 0.0
H1715 H 0.72612 0.09462 0.58123 0.0
C1716 C 0.7529 0.08685 0.77389 0.0
C1717 C 0.75789 0.077 0.78207 0.0
C1718 C 0.74921 0.0889 0.72828 0.0
C1719 C 0.75018 0.08096 0.6899 0.0
C1720 C 0.7547 0.07072 0.69866 0.0
C1721 C 0.75863 0.06887 0.74414 0.0
C1722 C 0.75292 0.08667 0.55682 0.0
C1723 C 0.74259 0.09105 0.54866 0.0
C1724 C 0.75523 0.08321 0.60243 0.0
C1725 C 0.74709 0.0838 0.64084 0.0
C1726 C 0.73638 0.08769 0.6321 0.0
C1727 C 0.73425 0.0914 0.58662 0.0
H1728 H 0.7004 0.92285 0.26393 0.0
H1729 H 0.66045 0.91702 0.20293 0.0
H1730 H 0.68981 0.9192 0.34239 0.0
H1731 H 0.64996 0.91389 0.28169 0.0
H1732 H 0.63016 0.88902 0.42001 0.0
H1733 H 0.64092 0.89584 0.34178 0.0
H1734 H 0.68156 0.92867 0.40357 0.0
H1735 H 0.67086 0.92141 0.48216 0.0
C1736 C 0.68942 0.92103 0.26739 0.0
C1737 C 0.68121 0.92012 0.22728 0.0
C1738 C 0.68337 0.91903 0.31246 0.0
C1739 C 0.66898 0.91618 0.31851 0.0
C1740 C 0.66097 0.91579 0.27835 0.0
C1741 C 0.667 0.91768 0.23321 0.0
C1742 C 0.64136 0.89778 0.41686 0.0
C1743 C 0.6497 0.90463 0.45721 0.0
C1744 C 0.64752 0.90177 0.37191 0.0
C1745 C 0.66215 0.9128 0.36621 0.0
C1746 C 0.67034 0.91997 0.40664 0.0
C1747 C 0.6642 0.91588 0.45168 0.0
H1748 H 0.10715 0.73806 0.40538 0.0
H1749 H 0.07445 0.74625 0.46562 0.0
H1750 H 0.10074 0.74222 0.32668 0.0
H1751 H 0.0676 0.74988 0.38672 0.0
H1752 H 0.07389 0.77513 0.24907 0.0
H1753 H 0.07749 0.76793 0.32707 0.0
H1754 H 0.08324 0.73382 0.26476 0.0
H1755 H 0.08014 0.74147 0.18628 0.0
C1756 C 0.0984 0.7405 0.4017 0.0
C1757 C 0.09138 0.74194 0.44169 0.0
C1758 C 0.09465 0.7428 0.35649 0.0
C1759 C 0.0837 0.74649 0.35018 0.0
C1760 C 0.07628 0.74735 0.39023 0.0
C1761 C 0.08013 0.74517 0.43547 0.0
C1762 C 0.07582 0.76603 0.25202 0.0
C1763 C 0.0768 0.75891 0.21153 0.0
C1764 C 0.07778 0.76181 0.29686 0.0
C1765 C 0.08065 0.75027 0.30242 0.0
C1766 C 0.08126 0.7429 0.26184 0.0
C1767 C 0.07941 0.74721 0.21686 0.0
H1768 H 0.24082 0.33703 0.20188 0.0
H1769 H 0.23122 0.29477 0.25354 0.0
H1770 H 0.24735 0.34695 0.28129 0.0
H1771 H 0.23848 0.3048 0.33278 0.0
H1772 H 0.23287 0.32237 0.47452 0.0
H1773 H 0.22946 0.31244 0.39516 0.0
H1774 H 0.26376 0.35416 0.34441 0.0
H1775 H 0.26659 0.36423 0.42366 0.0
C1776 C 0.2404 0.32994 0.23014 0.0
C1777 C 0.23541 0.31511 0.22164 0.0
C1778 C 0.24424 0.33564 0.27574 0.0
C1779 C 0.24339 0.32669 0.31381 0.0
C1780 C 0.23897 0.31197 0.30469 0.0
C1781 C 0.23491 0.30622 0.25919 0.0
C1782 C 0.23977 0.32936 0.44645 0.0
C1783 C 0.24992 0.34409 0.45517 0.0
C1784 C 0.23789 0.32365 0.40087 0.0
C1785 C 0.24628 0.33248 0.36301 0.0
C1786 C 0.25687 0.34709 0.37234 0.0
C1787 C 0.25859 0.35285 0.41784 0.0
H1788 H 0.99069 0.408 0.85855 0.0
H1789 H 0.031 0.44117 0.92062 0.0
H1790 H 0.98008 0.4005 0.93714 0.0
H1791 H 0.02031 0.43407 0.99892 0.0
H1792 H 0.00095 0.41246 0.13777 0.0
H1793 H 0.01159 0.4159 0.05908 0.0
H1794 H 0.97148 0.4098 0.99803 0.0
H1795 H 0.96076 0.40588 0.07635 0.0
C1796 C -0.00271 0.41364 0.88901 0.0
C1797 C 0.01164 0.4252 0.88344 0.0
C1798 C 0.9912 0.40942 0.93405 0.0
C1799 C -0.0007 0.41674 0.97447 0.0
C1800 C 0.0138 0.42804 0.96876 0.0
C1801 C 0.01992 0.43219 0.92379 0.0
C1802 C 0.99438 0.41169 0.10743 0.0
C1803 C 0.98005 0.40896 0.11321 0.0
C1804 C 0.00049 0.41375 0.06235 0.0
C1805 C 0.99243 0.41322 0.02211 0.0
C1806 C 0.97795 0.41009 0.02802 0.0
C1807 C 0.97183 0.40793 0.07302 0.0
H1808 H 0.5868 0.55227 0.07415 0.0
H1809 H 0.58025 0.58609 0.13418 0.0
H1810 H 0.58267 0.55874 0.9955 0.0
H1811 H 0.57658 0.59292 0.05526 0.0
H1812 H 0.58436 0.57982 0.85524 0.0
H1813 H 0.59183 0.57657 0.9338 0.0
H1814 H 0.55815 0.58302 0.9958 0.0
H1815 H 0.55105 0.5867 0.91765 0.0
C1816 C 0.5847 0.56125 0.07044 0.0
C1817 C 0.58374 0.56861 0.11035 0.0
C1818 C 0.58242 0.56503 0.02527 0.0
C1819 C 0.57922 0.57632 0.01894 0.0
C1820 C 0.57877 0.58401 0.05887 0.0
C1821 C 0.58096 0.58016 0.10409 0.0
C1822 C 0.57867 0.58068 0.88574 0.0
C1823 C 0.5671 0.58347 0.88029 0.0
C1824 C 0.58288 0.57874 0.93075 0.0
C1825 C 0.57557 0.57948 0.97123 0.0
C1826 C 0.56419 0.58259 0.9656 0.0
C1827 C 0.56005 0.5846 0.9207 0.0
H1828 H 0.42682 0.03364 0.08173 0.0
H1829 H 0.41567 0.99063 0.13037 0.0
H1830 H 0.41973 0.02427 0.00173 0.0
H1831 H 0.40912 0.98131 0.05015 0.0
H1832 H 0.3904 0.96573 0.90576 0.0
H1833 H 0.39287 0.97533 0.9856 0.0
H1834 H 0.42918 0.0165 0.93979 0.0
H1835 H 0.4263 0.00704 0.85985 0.0
C1836 C 0.42277 0.02215 0.07532 0.0
C1837 C 0.42186 0.01288 0.11225 0.0
C1838 C 0.4188 0.01679 0.02937 0.0
C1839 C 0.41398 0.00205 0.01916 0.0
C1840 C 0.41259 0.99268 0.0566 0.0
C1841 C 0.41643 -0.00198 0.10265 0.0
C1842 C 0.39875 0.9769 0.91269 0.0
C1843 C 0.40819 0.98562 0.87659 0.0
C1844 C 0.40025 0.98238 0.95855 0.0
C1845 C 0.41131 0.99667 0.96946 0.0
C1846 C 0.42041 0.00552 0.93278 0.0
C1847 C 0.41882 8e-05 0.88687 0.0
H1848 H 0.55339 0.96248 0.91539 0.0
H1849 H 0.58445 0.00402 0.85472 0.0
H1850 H 0.56022 0.97286 0.99415 0.0
H1851 H 0.59181 0.01432 0.93368 0.0
H1852 H 0.58534 0.03232 0.07316 0.0
H1853 H 0.58203 0.02185 0.9948 0.0
H1854 H 0.57771 0.98235 0.05528 0.0
H1855 H 0.58043 0.99273 0.1342 0.0
C1856 C 0.56191 0.97377 0.91896 0.0
C1857 C 0.56829 0.98248 0.87889 0.0
C1858 C 0.56591 0.97972 0.96422 0.0
C1859 C 0.57651 0.99449 0.9705 0.0
C1860 C 0.58339 0.00299 0.93027 0.0
C1861 C 0.57926 0.99708 0.88497 0.0
C1862 C 0.5838 0.02144 0.06973 0.0
C1863 C 0.58305 0.01331 0.10985 0.0
C1864 C 0.58201 0.01545 0.02465 0.0
C1865 C 0.57959 0.00121 0.01845 0.0
C1866 C 0.57932 0.99325 0.05866 0.0
C1867 C 0.58096 -0.00079 0.1039 0.0
H1868 H 0.99023 0.5809 0.86723 0.0
H1869 H 0.03041 0.58695 0.92707 0.0
H1870 H 0.97972 0.57717 0.94623 0.0
H1871 H 0.01983 0.5828 0.00569 0.0
H1872 H 0.00088 0.58517 0.14595 0.0
H1873 H 0.01146 0.59237 0.06715 0.0
H1874 H 0.9711 0.55877 0.00617 0.0
H1875 H 0.96046 0.55192 0.08461 0.0
C1876 C -0.00318 0.58148 0.89727 0.0
C1877 C 0.01112 0.58416 0.89095 0.0
C1878 C 0.99079 0.57926 0.94253 0.0
C1879 C -0.0011 0.57961 0.98241 0.0
C1880 C 0.01332 0.58265 0.97597 0.0
C1881 C 0.01936 0.58493 0.93081 0.0
C1882 C 0.99426 0.57943 0.11563 0.0
C1883 C 0.97987 0.56795 0.12146 0.0
C1884 C 0.00033 0.58349 0.07048 0.0
C1885 C 0.99216 0.57612 0.03023 0.0
C1886 C 0.97765 0.56484 0.0362 0.0
C1887 C 0.97158 0.56084 0.08126 0.0
H1888 H 0.40761 0.41388 0.14818 0.0
H1889 H 0.44159 0.40805 0.08588 0.0
H1890 H 0.40013 0.41713 0.06959 0.0
H1891 H 0.43447 0.41171 0.00777 0.0
H1892 H 0.41209 0.40791 0.86942 0.0
H1893 H 0.41597 0.40132 0.94844 0.0
H1894 H 0.40904 0.43503 0.00775 0.0
H1895 H 0.40472 0.44126 0.92897 0.0
C1896 C 0.41345 0.41327 0.1177 0.0
C1897 C 0.4252 0.41074 0.12318 0.0
C1898 C 0.40923 0.4152 0.07269 0.0
C1899 C 0.41671 0.41471 0.03226 0.0
C1900 C 0.4283 0.41193 0.03793 0.0
C1901 C 0.43246 0.40994 0.08281 0.0
C1902 C 0.41124 0.41379 0.89942 0.0
C1903 C 0.40817 0.42514 0.893 0.0
C1904 C 0.41356 0.41009 0.9447 0.0
C1905 C 0.41294 0.41772 0.98452 0.0
C1906 C 0.40944 0.42879 0.97804 0.0
C1907 C 0.40705 0.43243 0.93281 0.0
loop_
_geom_bond_atom_site_label_1
_geom_bond_atom_site_label_2
_geom_bond_distance
_geom_bond_site_symmetry_2
_ccdc_geom_bond_type
In0 O1 2.294 . S
In0 O2 2.326 . S
In0 O6 2.266 . S
In0 O7 2.326 . S
In0 O8 2.266 . S
In0 O9 2.326 1_554 S
In0 O11 2.294 . S
In0 O12 2.326 . S
O1 In0 2.294 . S
O1 C10 1.240 . S
O2 In0 2.326 . S
O2 C10 1.252 . S
C3 O6 1.252 . S
C3 O7 1.260 . S
C4 O11 1.240 . S
C4 O12 1.252 . S
C5 O8 1.252 1_556 S
C5 O9 1.260 . S
O6 In0 2.266 . S
O6 C3 1.252 . S
O7 In0 2.326 . S
O7 C3 1.260 . S
O8 In0 2.266 . S
O8 C5 1.252 1_554 S
O9 In0 2.326 1_556 S
O9 C5 1.260 . S
C10 O1 1.240 . S
C10 O2 1.252 . S
O11 In0 2.294 . S
O11 C4 1.240 . S
O12 In0 2.326 . S
O12 C4 1.252 . S
In13 O14 2.294 . S
In13 O15 2.326 . S
In13 O19 2.266 . S
In13 O20 2.326 . S
In13 O21 2.266 . S
In13 O22 2.326 1_554 S
In13 O24 2.294 . S
In13 O25 2.326 . S
O14 In13 2.294 . S
O14 C23 1.240 . S
O15 In13 2.326 . S
O15 C23 1.252 . S
C16 O19 1.252 . S
C16 O20 1.260 . S
C17 O24 1.240 . S
C17 O25 1.252 . S
C18 O21 1.252 1_556 S
C18 O22 1.260 . S
O19 In13 2.266 . S
O19 C16 1.252 . S
O20 In13 2.326 . S
O20 C16 1.260 . S
O21 In13 2.266 . S
O21 C18 1.252 1_554 S
O22 In13 2.326 1_556 S
O22 C18 1.260 . S
C23 O14 1.240 . S
C23 O15 1.252 . S
O24 In13 2.294 . S
O24 C17 1.240 . S
O25 In13 2.326 . S
O25 C17 1.252 . S
In26 O27 2.294 . S
In26 O28 2.326 . S
In26 O32 2.266 . S
In26 O33 2.326 1_554 S
In26 O34 2.266 . S
In26 O35 2.326 . S
In26 O37 2.294 . S
In26 O38 2.326 . S
O27 In26 2.294 . S
O27 C36 1.240 . S
O28 In26 2.326 . S
O28 C36 1.252 . S
C29 O32 1.252 1_556 S
C29 O33 1.260 . S
C30 O37 1.240 . S
C30 O38 1.252 . S
C31 O34 1.252 . S
C31 O35 1.260 . S
O32 In26 2.266 . S
O32 C29 1.252 1_554 S
O33 In26 2.326 1_556 S
O33 C29 1.260 . S
O34 In26 2.266 . S
O34 C31 1.252 . S
O35 In26 2.326 . S
O35 C31 1.260 . S
C36 O27 1.240 . S
C36 O28 1.252 . S
O37 In26 2.294 . S
O37 C30 1.240 . S
O38 In26 2.326 . S
O38 C30 1.252 . S
In39 O40 2.294 . S
In39 O41 2.326 . S
In39 O45 2.266 . S
In39 O46 2.326 1_556 S
In39 O47 2.266 . S
In39 O48 2.326 . S
In39 O50 2.294 . S
In39 O51 2.326 . S
O40 In39 2.294 . S
O40 C49 1.240 . S
O41 In39 2.326 . S
O41 C49 1.252 . S
C42 O45 1.252 1_554 S
C42 O46 1.260 . S
C43 O50 1.240 . S
C43 O51 1.252 . S
C44 O47 1.252 . S
C44 O48 1.260 . S
O45 In39 2.266 . S
O45 C42 1.252 1_556 S
O46 In39 2.326 1_554 S
O46 C42 1.260 . S
O47 In39 2.266 . S
O47 C44 1.252 . S
O48 In39 2.326 . S
O48 C44 1.260 . S
C49 O40 1.240 . S
C49 O41 1.252 . S
O50 In39 2.294 . S
O50 C43 1.240 . S
O51 In39 2.326 . S
O51 C43 1.252 . S
In52 O53 2.294 . S
In52 O54 2.326 . S
In52 O58 2.266 . S
In52 O59 2.326 1_556 S
In52 O60 2.266 . S
In52 O61 2.326 . S
In52 O63 2.294 . S
In52 O64 2.326 . S
O53 In52 2.294 . S
O53 C62 1.240 . S
O54 In52 2.326 . S
O54 C62 1.252 . S
C55 O58 1.252 1_554 S
C55 O59 1.260 . S
C56 O63 1.240 . S
C56 O64 1.252 . S
C57 O60 1.252 . S
C57 O61 1.260 . S
O58 In52 2.266 . S
O58 C55 1.252 1_556 S
O59 In52 2.326 1_554 S
O59 C55 1.260 . S
O60 In52 2.266 . S
O60 C57 1.252 . S
O61 In52 2.326 . S
O61 C57 1.260 . S
C62 O53 1.240 . S
C62 O54 1.252 . S
O63 In52 2.294 . S
O63 C56 1.240 . S
O64 In52 2.326 . S
O64 C56 1.252 . S
In65 O66 2.294 . S
In65 O67 2.326 . S
In65 O71 2.266 . S
In65 O72 2.326 . S
In65 O73 2.266 . S
In65 O74 2.326 1_556 S
In65 O76 2.294 . S
In65 O77 2.326 . S
O66 In65 2.294 . S
O66 C75 1.240 . S
O67 In65 2.326 . S
O67 C75 1.252 . S
C68 O71 1.252 . S
C68 O72 1.260 . S
C69 O76 1.240 . S
C69 O77 1.252 . S
C70 O73 1.252 1_554 S
C70 O74 1.260 . S
O71 In65 2.266 . S
O71 C68 1.252 . S
O72 In65 2.326 . S
O72 C68 1.260 . S
O73 In65 2.266 . S
O73 C70 1.252 1_556 S
O74 In65 2.326 1_554 S
O74 C70 1.260 . S
C75 O66 1.240 . S
C75 O67 1.252 . S
O76 In65 2.294 . S
O76 C69 1.240 . S
O77 In65 2.326 . S
O77 C69 1.252 . S
In78 O79 2.294 . S
In78 O80 2.326 . S
In78 O84 2.266 . S
In78 O85 2.326 1_556 S
In78 O86 2.266 . S
In78 O87 2.326 . S
In78 O89 2.294 . S
In78 O90 2.326 . S
O79 In78 2.294 . S
O79 C88 1.240 . S
O80 In78 2.326 . S
O80 C88 1.252 . S
C81 O84 1.252 1_554 S
C81 O85 1.260 . S
C82 O89 1.240 . S
C82 O90 1.252 . S
C83 O86 1.252 . S
C83 O87 1.260 . S
O84 In78 2.266 . S
O84 C81 1.252 1_556 S
O85 In78 2.326 1_554 S
O85 C81 1.260 . S
O86 In78 2.266 . S
O86 C83 1.252 . S
O87 In78 2.326 . S
O87 C83 1.260 . S
C88 O79 1.240 . S
C88 O80 1.252 . S
O89 In78 2.294 . S
O89 C82 1.240 . S
O90 In78 2.326 . S
O90 C82 1.252 . S
In91 O92 2.294 . S
In91 O93 2.326 . S
In91 O97 2.266 . S
In91 O98 2.326 . S
In91 O99 2.266 . S
In91 O100 2.326 1_556 S
In91 O102 2.294 . S
In91 O103 2.326 . S
O92 In91 2.294 . S
O92 C101 1.240 . S
O93 In91 2.326 . S
O93 C101 1.252 . S
C94 O97 1.252 . S
C94 O98 1.260 . S
C95 O102 1.240 . S
C95 O103 1.252 . S
C96 O99 1.252 1_554 S
C96 O100 1.260 . S
O97 In91 2.266 . S
O97 C94 1.252 . S
O98 In91 2.326 . S
O98 C94 1.260 . S
O99 In91 2.266 . S
O99 C96 1.252 1_556 S
O100 In91 2.326 1_554 S
O100 C96 1.260 . S
C101 O92 1.240 . S
C101 O93 1.252 . S
O102 In91 2.294 . S
O102 C95 1.240 . S
O103 In91 2.326 . S
O103 C95 1.252 . S
In104 O105 2.294 . S
In104 O106 2.326 . S
In104 O110 2.266 . S
In104 O111 2.326 1_556 S
In104 O112 2.266 . S
In104 O113 2.326 . S
In104 O115 2.294 . S
In104 O116 2.326 . S
O105 In104 2.294 . S
O105 C114 1.240 . S
O106 In104 2.326 . S
O106 C114 1.252 . S
C107 O110 1.252 1_554 S
C107 O111 1.260 . S
C108 O115 1.240 . S
C108 O116 1.252 . S
C109 O112 1.252 . S
C109 O113 1.260 . S
O110 In104 2.266 . S
O110 C107 1.252 1_556 S
O111 In104 2.326 1_554 S
O111 C107 1.260 . S
O112 In104 2.266 . S
O112 C109 1.252 . S
O113 In104 2.326 . S
O113 C109 1.260 . S
C114 O105 1.240 . S
C114 O106 1.252 . S
O115 In104 2.294 . S
O115 C108 1.240 . S
O116 In104 2.326 . S
O116 C108 1.252 . S
In117 O118 2.294 . S
In117 O119 2.326 . S
In117 O123 2.266 . S
In117 O124 2.326 1_554 S
In117 O125 2.266 . S
In117 O126 2.326 . S
In117 O128 2.294 . S
In117 O129 2.326 . S
O118 In117 2.294 . S
O118 C127 1.240 . S
O119 In117 2.326 . S
O119 C127 1.252 . S
C120 O123 1.252 1_556 S
C120 O124 1.260 . S
C121 O128 1.240 . S
C121 O129 1.252 . S
C122 O125 1.252 . S
C122 O126 1.260 . S
O123 In117 2.266 . S
O123 C120 1.252 1_554 S
O124 In117 2.326 1_556 S
O124 C120 1.260 . S
O125 In117 2.266 . S
O125 C122 1.252 . S
O126 In117 2.326 . S
O126 C122 1.260 . S
C127 O118 1.240 . S
C127 O119 1.252 . S
O128 In117 2.294 . S
O128 C121 1.240 . S
O129 In117 2.326 . S
O129 C121 1.252 . S
In130 O131 2.294 . S
In130 O132 2.326 . S
In130 O136 2.266 . S
In130 O137 2.326 . S
In130 O138 2.266 . S
In130 O139 2.326 1_554 S
In130 O141 2.294 . S
In130 O142 2.326 . S
O131 In130 2.294 . S
O131 C140 1.240 . S
O132 In130 2.326 . S
O132 C140 1.252 . S
C133 O136 1.252 . S
C133 O137 1.260 . S
C134 O141 1.240 . S
C134 O142 1.252 . S
C135 O138 1.252 1_556 S
C135 O139 1.260 . S
O136 In130 2.266 . S
O136 C133 1.252 . S
O137 In130 2.326 . S
O137 C133 1.260 . S
O138 In130 2.266 . S
O138 C135 1.252 1_554 S
O139 In130 2.326 1_556 S
O139 C135 1.260 . S
C140 O131 1.240 . S
C140 O132 1.252 . S
O141 In130 2.294 . S
O141 C134 1.240 . S
O142 In130 2.326 . S
O142 C134 1.252 . S
In143 O144 2.294 . S
In143 O145 2.326 . S
In143 O149 2.266 . S
In143 O150 2.326 1_554 S
In143 O151 2.266 . S
In143 O152 2.326 . S
In143 O154 2.294 . S
In143 O155 2.326 . S
O144 In143 2.294 . S
O144 C153 1.240 . S
O145 In143 2.326 . S
O145 C153 1.252 . S
C146 O149 1.252 1_556 S
C146 O150 1.260 . S
C147 O154 1.240 . S
C147 O155 1.252 . S
C148 O151 1.252 . S
C148 O152 1.260 . S
O149 In143 2.266 . S
O149 C146 1.252 1_554 S
O150 In143 2.326 1_556 S
O150 C146 1.260 . S
O151 In143 2.266 . S
O151 C148 1.252 . S
O152 In143 2.326 . S
O152 C148 1.260 . S
C153 O144 1.240 . S
C153 O145 1.252 . S
O154 In143 2.294 . S
O154 C147 1.240 . S
O155 In143 2.326 . S
O155 C147 1.252 . S
In156 O157 2.294 . S
In156 O158 2.326 . S
In156 O162 2.266 . S
In156 O163 2.326 . S
In156 O164 2.266 . S
In156 O165 2.326 . S
In156 O167 2.294 . S
In156 O168 2.326 . S
O157 In156 2.294 . S
O157 C166 1.240 . S
O158 In156 2.326 . S
O158 C166 1.252 . S
C159 O162 1.252 . S
C159 O163 1.260 . S
C160 O167 1.240 . S
C160 O168 1.252 . S
C161 O164 1.252 . S
C161 O165 1.260 . S
O162 In156 2.266 . S
O162 C159 1.252 . S
O163 In156 2.326 . S
O163 C159 1.260 . S
O164 In156 2.266 . S
O164 C161 1.252 . S
O165 In156 2.326 . S
O165 C161 1.260 . S
C166 O157 1.240 . S
C166 O158 1.252 . S
O167 In156 2.294 . S
O167 C160 1.240 . S
O168 In156 2.326 . S
O168 C160 1.252 . S
In169 O170 2.294 . S
In169 O171 2.326 . S
In169 O175 2.266 . S
In169 O176 2.326 . S
In169 O177 2.266 . S
In169 O178 2.326 . S
In169 O180 2.294 . S
In169 O181 2.326 . S
O170 In169 2.294 . S
O170 C179 1.240 . S
O171 In169 2.326 . S
O171 C179 1.252 . S
C172 O175 1.252 . S
C172 O176 1.260 . S
C173 O180 1.240 . S
C173 O181 1.252 . S
C174 O177 1.252 . S
C174 O178 1.260 . S
O175 In169 2.266 . S
O175 C172 1.252 . S
O176 In169 2.326 . S
O176 C172 1.260 . S
O177 In169 2.266 . S
O177 C174 1.252 . S
O178 In169 2.326 . S
O178 C174 1.260 . S
C179 O170 1.240 . S
C179 O171 1.252 . S
O180 In169 2.294 . S
O180 C173 1.240 . S
O181 In169 2.326 . S
O181 C173 1.252 . S
In182 O183 2.294 . S
In182 O184 2.326 . S
In182 O188 2.266 . S
In182 O189 2.326 . S
In182 O190 2.266 . S
In182 O191 2.326 . S
In182 O193 2.294 . S
In182 O194 2.326 . S
O183 In182 2.294 . S
O183 C192 1.240 . S
O184 In182 2.326 . S
O184 C192 1.252 . S
C185 O188 1.252 . S
C185 O189 1.260 . S
C186 O193 1.240 . S
C186 O194 1.252 . S
C187 O190 1.252 . S
C187 O191 1.260 . S
O188 In182 2.266 . S
O188 C185 1.252 . S
O189 In182 2.326 . S
O189 C185 1.260 . S
O190 In182 2.266 . S
O190 C187 1.252 . S
O191 In182 2.326 . S
O191 C187 1.260 . S
C192 O183 1.240 . S
C192 O184 1.252 . S
O193 In182 2.294 . S
O193 C186 1.240 . S
O194 In182 2.326 . S
O194 C186 1.252 . S
In195 O196 2.294 . S
In195 O197 2.326 . S
In195 O201 2.266 . S
In195 O202 2.326 . S
In195 O203 2.266 . S
In195 O204 2.326 . S
In195 O206 2.294 . S
In195 O207 2.326 . S
O196 In195 2.294 . S
O196 C205 1.240 . S
O197 In195 2.326 . S
O197 C205 1.252 . S
C198 O201 1.252 . S
C198 O202 1.260 . S
C199 O206 1.240 . S
C199 O207 1.252 . S
C200 O203 1.252 . S
C200 O204 1.260 . S
O201 In195 2.266 . S
O201 C198 1.252 . S
O202 In195 2.326 . S
O202 C198 1.260 . S
O203 In195 2.266 . S
O203 C200 1.252 . S
O204 In195 2.326 . S
O204 C200 1.260 . S
C205 O196 1.240 . S
C205 O197 1.252 . S
O206 In195 2.294 . S
O206 C199 1.240 . S
O207 In195 2.326 . S
O207 C199 1.252 . S
In208 O209 2.294 . S
In208 O210 2.326 . S
In208 O214 2.266 . S
In208 O215 2.326 . S
In208 O216 2.266 . S
In208 O217 2.326 . S
In208 O219 2.294 . S
In208 O220 2.326 . S
O209 In208 2.294 . S
O209 C218 1.240 . S
O210 In208 2.326 . S
O210 C218 1.252 . S
C211 O214 1.252 . S
C211 O215 1.260 . S
C212 O219 1.240 . S
C212 O220 1.252 . S
C213 O216 1.252 . S
C213 O217 1.260 . S
O214 In208 2.266 . S
O214 C211 1.252 . S
O215 In208 2.326 . S
O215 C211 1.260 . S
O216 In208 2.266 . S
O216 C213 1.252 . S
O217 In208 2.326 . S
O217 C213 1.260 . S
C218 O209 1.240 . S
C218 O210 1.252 . S
O219 In208 2.294 . S
O219 C212 1.240 . S
O220 In208 2.326 . S
O220 C212 1.252 . S
In221 O222 2.294 . S
In221 O223 2.326 . S
In221 O227 2.266 . S
In221 O228 2.326 . S
In221 O229 2.266 . S
In221 O230 2.326 . S
In221 O232 2.294 . S
In221 O233 2.326 . S
O222 In221 2.294 . S
O222 C231 1.240 . S
O223 In221 2.326 . S
O223 C231 1.252 . S
C224 O227 1.252 . S
C224 O228 1.260 . S
C225 O232 1.240 . S
C225 O233 1.252 . S
C226 O229 1.252 . S
C226 O230 1.260 . S
O227 In221 2.266 . S
O227 C224 1.252 . S
O228 In221 2.326 . S
O228 C224 1.260 . S
O229 In221 2.266 . S
O229 C226 1.252 . S
O230 In221 2.326 . S
O230 C226 1.260 . S
C231 O222 1.240 . S
C231 O223 1.252 . S
O232 In221 2.294 . S
O232 C225 1.240 . S
O233 In221 2.326 . S
O233 C225 1.252 . S
In234 O235 2.294 . S
In234 O236 2.326 . S
In234 O240 2.266 . S
In234 O241 2.326 . S
In234 O242 2.266 . S
In234 O243 2.326 . S
In234 O245 2.294 . S
In234 O246 2.326 . S
O235 In234 2.294 . S
O235 C244 1.240 . S
O236 In234 2.326 . S
O236 C244 1.252 . S
C237 O240 1.252 . S
C237 O241 1.260 . S
C238 O245 1.240 . S
C238 O246 1.252 . S
C239 O242 1.252 . S
C239 O243 1.260 . S
O240 In234 2.266 . S
O240 C237 1.252 . S
O241 In234 2.326 . S
O241 C237 1.260 . S
O242 In234 2.266 . S
O242 C239 1.252 . S
O243 In234 2.326 . S
O243 C239 1.260 . S
C244 O235 1.240 . S
C244 O236 1.252 . S
O245 In234 2.294 . S
O245 C238 1.240 . S
O246 In234 2.326 . S
O246 C238 1.252 . S
In247 O248 2.294 . S
In247 O249 2.326 . S
In247 O253 2.266 . S
In247 O254 2.326 . S
In247 O255 2.266 . S
In247 O256 2.326 . S
In247 O258 2.294 . S
In247 O259 2.326 . S
O248 In247 2.294 . S
O248 C257 1.240 . S
O249 In247 2.326 . S
O249 C257 1.252 . S
C250 O253 1.252 . S
C250 O254 1.260 . S
C251 O258 1.240 . S
C251 O259 1.252 . S
C252 O255 1.252 . S
C252 O256 1.260 . S
O253 In247 2.266 . S
O253 C250 1.252 . S
O254 In247 2.326 . S
O254 C250 1.260 . S
O255 In247 2.266 . S
O255 C252 1.252 . S
O256 In247 2.326 . S
O256 C252 1.260 . S
C257 O248 1.240 . S
C257 O249 1.252 . S
O258 In247 2.294 . S
O258 C251 1.240 . S
O259 In247 2.326 . S
O259 C251 1.252 . S
In260 O261 2.294 . S
In260 O262 2.326 . S
In260 O266 2.266 . S
In260 O267 2.326 . S
In260 O268 2.266 . S
In260 O269 2.326 . S
In260 O271 2.294 . S
In260 O272 2.326 . S
O261 In260 2.294 . S
O261 C270 1.240 . S
O262 In260 2.326 . S
O262 C270 1.252 . S
C263 O266 1.252 . S
C263 O267 1.260 . S
C264 O271 1.240 . S
C264 O272 1.252 . S
C265 O268 1.252 . S
C265 O269 1.260 . S
O266 In260 2.266 . S
O266 C263 1.252 . S
O267 In260 2.326 . S
O267 C263 1.260 . S
O268 In260 2.266 . S
O268 C265 1.252 . S
O269 In260 2.326 . S
O269 C265 1.260 . S
C270 O261 1.240 . S
C270 O262 1.252 . S
O271 In260 2.294 . S
O271 C264 1.240 . S
O272 In260 2.326 . S
O272 C264 1.252 . S
In273 O274 2.294 . S
In273 O275 2.326 . S
In273 O279 2.266 . S
In273 O280 2.326 . S
In273 O281 2.266 . S
In273 O282 2.326 . S
In273 O284 2.294 . S
In273 O285 2.326 . S
O274 In273 2.294 . S
O274 C283 1.240 . S
O275 In273 2.326 . S
O275 C283 1.252 . S
C276 O279 1.252 . S
C276 O280 1.260 . S
C277 O284 1.240 . S
C277 O285 1.252 . S
C278 O281 1.252 . S
C278 O282 1.260 . S
O279 In273 2.266 . S
O279 C276 1.252 . S
O280 In273 2.326 . S
O280 C276 1.260 . S
O281 In273 2.266 . S
O281 C278 1.252 . S
O282 In273 2.326 . S
O282 C278 1.260 . S
C283 O274 1.240 . S
C283 O275 1.252 . S
O284 In273 2.294 . S
O284 C277 1.240 . S
O285 In273 2.326 . S
O285 C277 1.252 . S
In286 O287 2.294 . S
In286 O288 2.326 . S
In286 O292 2.266 . S
In286 O293 2.326 . S
In286 O294 2.266 . S
In286 O295 2.326 . S
In286 O297 2.294 . S
In286 O298 2.326 . S
O287 In286 2.294 . S
O287 C296 1.240 . S
O288 In286 2.326 . S
O288 C296 1.252 . S
C289 O292 1.252 . S
C289 O293 1.260 . S
C290 O297 1.240 . S
C290 O298 1.252 . S
C291 O294 1.252 . S
C291 O295 1.260 . S
O292 In286 2.266 . S
O292 C289 1.252 . S
O293 In286 2.326 . S
O293 C289 1.260 . S
O294 In286 2.266 . S
O294 C291 1.252 . S
O295 In286 2.326 . S
O295 C291 1.260 . S
C296 O287 1.240 . S
C296 O288 1.252 . S
O297 In286 2.294 . S
O297 C290 1.240 . S
O298 In286 2.326 . S
O298 C290 1.252 . S
In299 O300 2.294 . S
In299 O301 2.326 . S
In299 O305 2.266 . S
In299 O306 2.326 . S
In299 O307 2.266 . S
In299 O308 2.326 . S
In299 O310 2.294 . S
In299 O311 2.326 . S
O300 In299 2.294 . S
O300 C309 1.240 . S
O301 In299 2.326 . S
O301 C309 1.252 . S
C302 O305 1.252 . S
C302 O306 1.260 . S
C303 O310 1.240 . S
C303 O311 1.252 . S
C304 O307 1.252 . S
C304 O308 1.260 . S
O305 In299 2.266 . S
O305 C302 1.252 . S
O306 In299 2.326 . S
O306 C302 1.260 . S
O307 In299 2.266 . S
O307 C304 1.252 . S
O308 In299 2.326 . S
O308 C304 1.260 . S
C309 O300 1.240 . S
C309 O301 1.252 . S
O310 In299 2.294 . S
O310 C303 1.240 . S
O311 In299 2.326 . S
O311 C303 1.252 . S
In312 O313 2.294 . S
In312 O314 2.326 . S
In312 O318 2.266 . S
In312 O319 2.326 . S
In312 O320 2.266 . S
In312 O321 2.326 . S
In312 O323 2.294 . S
In312 O324 2.326 . S
O313 In312 2.294 . S
O313 C322 1.240 . S
O314 In312 2.326 . S
O314 C322 1.252 . S
C315 O318 1.252 . S
C315 O319 1.260 . S
C316 O323 1.240 . S
C316 O324 1.252 . S
C317 O320 1.252 . S
C317 O321 1.260 . S
O318 In312 2.266 . S
O318 C315 1.252 . S
O319 In312 2.326 . S
O319 C315 1.260 . S
O320 In312 2.266 . S
O320 C317 1.252 . S
O321 In312 2.326 . S
O321 C317 1.260 . S
C322 O313 1.240 . S
C322 O314 1.252 . S
O323 In312 2.294 . S
O323 C316 1.240 . S
O324 In312 2.326 . S
O324 C316 1.252 . S
In325 O326 2.294 . S
In325 O327 2.326 . S
In325 O331 2.266 . S
In325 O332 2.326 . S
In325 O333 2.266 . S
In325 O334 2.326 . S
In325 O336 2.294 . S
In325 O337 2.326 . S
O326 In325 2.294 . S
O326 C335 1.240 . S
O327 In325 2.326 . S
O327 C335 1.252 . S
C328 O331 1.252 . S
C328 O332 1.260 . S
C329 O336 1.240 . S
C329 O337 1.252 . S
C330 O333 1.252 . S
C330 O334 1.260 . S
O331 In325 2.266 . S
O331 C328 1.252 . S
O332 In325 2.326 . S
O332 C328 1.260 . S
O333 In325 2.266 . S
O333 C330 1.252 . S
O334 In325 2.326 . S
O334 C330 1.260 . S
C335 O326 1.240 . S
C335 O327 1.252 . S
O336 In325 2.294 . S
O336 C329 1.240 . S
O337 In325 2.326 . S
O337 C329 1.252 . S
In338 O339 2.294 . S
In338 O340 2.326 . S
In338 O344 2.266 . S
In338 O345 2.326 . S
In338 O346 2.266 . S
In338 O347 2.326 . S
In338 O349 2.294 . S
In338 O350 2.326 . S
O339 In338 2.294 . S
O339 C348 1.240 . S
O340 In338 2.326 . S
O340 C348 1.252 . S
C341 O344 1.252 . S
C341 O345 1.260 . S
C342 O349 1.240 . S
C342 O350 1.252 . S
C343 O346 1.252 . S
C343 O347 1.260 . S
O344 In338 2.266 . S
O344 C341 1.252 . S
O345 In338 2.326 . S
O345 C341 1.260 . S
O346 In338 2.266 . S
O346 C343 1.252 . S
O347 In338 2.326 . S
O347 C343 1.260 . S
C348 O339 1.240 . S
C348 O340 1.252 . S
O349 In338 2.294 . S
O349 C342 1.240 . S
O350 In338 2.326 . S
O350 C342 1.252 . S
In351 O352 2.294 . S
In351 O353 2.326 . S
In351 O357 2.266 . S
In351 O358 2.326 . S
In351 O359 2.266 . S
In351 O360 2.326 . S
In351 O362 2.294 . S
In351 O363 2.326 . S
O352 In351 2.294 . S
O352 C361 1.240 . S
O353 In351 2.326 . S
O353 C361 1.252 . S
C354 O357 1.252 . S
C354 O358 1.260 . S
C355 O362 1.240 . S
C355 O363 1.252 . S
C356 O359 1.252 . S
C356 O360 1.260 . S
O357 In351 2.266 . S
O357 C354 1.252 . S
O358 In351 2.326 . S
O358 C354 1.260 . S
O359 In351 2.266 . S
O359 C356 1.252 . S
O360 In351 2.326 . S
O360 C356 1.260 . S
C361 O352 1.240 . S
C361 O353 1.252 . S
O362 In351 2.294 . S
O362 C355 1.240 . S
O363 In351 2.326 . S
O363 C355 1.252 . S
In364 O365 2.294 . S
In364 O366 2.326 . S
In364 O370 2.266 . S
In364 O371 2.326 . S
In364 O372 2.266 . S
In364 O373 2.326 . S
In364 O375 2.294 . S
In364 O376 2.326 . S
O365 In364 2.294 . S
O365 C374 1.240 . S
O366 In364 2.326 . S
O366 C374 1.252 . S
C367 O370 1.252 . S
C367 O371 1.260 . S
C368 O375 1.240 . S
C368 O376 1.252 . S
C369 O372 1.252 . S
C369 O373 1.260 . S
O370 In364 2.266 . S
O370 C367 1.252 . S
O371 In364 2.326 . S
O371 C367 1.260 . S
O372 In364 2.266 . S
O372 C369 1.252 . S
O373 In364 2.326 . S
O373 C369 1.260 . S
C374 O365 1.240 . S
C374 O366 1.252 . S
O375 In364 2.294 . S
O375 C368 1.240 . S
O376 In364 2.326 . S
O376 C368 1.252 . S
In377 O378 2.294 . S
In377 O379 2.326 . S
In377 O383 2.266 . S
In377 O384 2.326 . S
In377 O385 2.266 . S
In377 O386 2.326 . S
In377 O388 2.294 . S
In377 O389 2.326 . S
O378 In377 2.294 . S
O378 C387 1.240 . S
O379 In377 2.326 . S
O379 C387 1.252 . S
C380 O383 1.252 . S
C380 O384 1.260 . S
C381 O388 1.240 . S
C381 O389 1.252 . S
C382 O385 1.252 . S
C382 O386 1.260 . S
O383 In377 2.266 . S
O383 C380 1.252 . S
O384 In377 2.326 . S
O384 C380 1.260 . S
O385 In377 2.266 . S
O385 C382 1.252 . S
O386 In377 2.326 . S
O386 C382 1.260 . S
C387 O378 1.240 . S
C387 O379 1.252 . S
O388 In377 2.294 . S
O388 C381 1.240 . S
O389 In377 2.326 . S
O389 C381 1.252 . S
In390 O391 2.294 . S
In390 O392 2.326 . S
In390 O396 2.266 . S
In390 O397 2.326 . S
In390 O398 2.266 . S
In390 O399 2.326 . S
In390 O401 2.294 . S
In390 O402 2.326 . S
O391 In390 2.294 . S
O391 C400 1.240 . S
O392 In390 2.326 . S
O392 C400 1.252 . S
C393 O396 1.252 . S
C393 O397 1.260 . S
C394 O401 1.240 . S
C394 O402 1.252 . S
C395 O398 1.252 . S
C395 O399 1.260 . S
O396 In390 2.266 . S
O396 C393 1.252 . S
O397 In390 2.326 . S
O397 C393 1.260 . S
O398 In390 2.266 . S
O398 C395 1.252 . S
O399 In390 2.326 . S
O399 C395 1.260 . S
C400 O391 1.240 . S
C400 O392 1.252 . S
O401 In390 2.294 . S
O401 C394 1.240 . S
O402 In390 2.326 . S
O402 C394 1.252 . S
In403 O404 2.294 . S
In403 O405 2.326 . S
In403 O409 2.266 . S
In403 O410 2.326 . S
In403 O411 2.266 . S
In403 O412 2.326 . S
In403 O414 2.294 . S
In403 O415 2.326 . S
O404 In403 2.294 . S
O404 C413 1.240 . S
O405 In403 2.326 . S
O405 C413 1.252 . S
C406 O409 1.252 . S
C406 O410 1.260 . S
C407 O414 1.240 . S
C407 O415 1.252 . S
C408 O411 1.252 . S
C408 O412 1.260 . S
O409 In403 2.266 . S
O409 C406 1.252 . S
O410 In403 2.326 . S
O410 C406 1.260 . S
O411 In403 2.266 . S
O411 C408 1.252 . S
O412 In403 2.326 . S
O412 C408 1.260 . S
C413 O404 1.240 . S
C413 O405 1.252 . S
O414 In403 2.294 . S
O414 C407 1.240 . S
O415 In403 2.326 . S
O415 C407 1.252 . S
In416 O417 2.294 . S
In416 O418 2.326 . S
In416 O422 2.266 . S
In416 O423 2.326 . S
In416 O424 2.266 . S
In416 O425 2.326 . S
In416 O427 2.294 . S
In416 O428 2.326 . S
O417 In416 2.294 . S
O417 C426 1.240 . S
O418 In416 2.326 . S
O418 C426 1.252 . S
C419 O422 1.252 . S
C419 O423 1.260 . S
C420 O427 1.240 . S
C420 O428 1.252 . S
C421 O424 1.252 . S
C421 O425 1.260 . S
O422 In416 2.266 . S
O422 C419 1.252 . S
O423 In416 2.326 . S
O423 C419 1.260 . S
O424 In416 2.266 . S
O424 C421 1.252 . S
O425 In416 2.326 . S
O425 C421 1.260 . S
C426 O417 1.240 . S
C426 O418 1.252 . S
O427 In416 2.294 . S
O427 C420 1.240 . S
O428 In416 2.326 . S
O428 C420 1.252 . S
In429 O430 2.294 . S
In429 O431 2.326 . S
In429 O435 2.266 . S
In429 O436 2.326 . S
In429 O437 2.266 . S
In429 O438 2.326 . S
In429 O440 2.294 . S
In429 O441 2.326 . S
O430 In429 2.294 . S
O430 C439 1.240 . S
O431 In429 2.326 . S
O431 C439 1.252 . S
C432 O435 1.252 . S
C432 O436 1.260 . S
C433 O440 1.240 . S
C433 O441 1.252 . S
C434 O437 1.252 . S
C434 O438 1.260 . S
O435 In429 2.266 . S
O435 C432 1.252 . S
O436 In429 2.326 . S
O436 C432 1.260 . S
O437 In429 2.266 . S
O437 C434 1.252 . S
O438 In429 2.326 . S
O438 C434 1.260 . S
C439 O430 1.240 . S
C439 O431 1.252 . S
O440 In429 2.294 . S
O440 C433 1.240 . S
O441 In429 2.326 . S
O441 C433 1.252 . S
In442 O443 2.294 . S
In442 O444 2.326 . S
In442 O448 2.266 . S
In442 O449 2.326 . S
In442 O450 2.266 . S
In442 O451 2.326 . S
In442 O453 2.294 . S
In442 O454 2.326 . S
O443 In442 2.294 . S
O443 C452 1.240 . S
O444 In442 2.326 . S
O444 C452 1.252 . S
C445 O448 1.252 . S
C445 O449 1.260 . S
C446 O453 1.240 . S
C446 O454 1.252 . S
C447 O450 1.252 . S
C447 O451 1.260 . S
O448 In442 2.266 . S
O448 C445 1.252 . S
O449 In442 2.326 . S
O449 C445 1.260 . S
O450 In442 2.266 . S
O450 C447 1.252 . S
O451 In442 2.326 . S
O451 C447 1.260 . S
C452 O443 1.240 . S
C452 O444 1.252 . S
O453 In442 2.294 . S
O453 C446 1.240 . S
O454 In442 2.326 . S
O454 C446 1.252 . S
In455 O456 2.294 . S
In455 O457 2.326 . S
In455 O461 2.266 . S
In455 O462 2.326 . S
In455 O463 2.266 . S
In455 O464 2.326 . S
In455 O466 2.294 . S
In455 O467 2.326 . S
O456 In455 2.294 . S
O456 C465 1.240 . S
O457 In455 2.326 . S
O457 C465 1.252 . S
C458 O461 1.252 . S
C458 O462 1.260 . S
C459 O466 1.240 . S
C459 O467 1.252 . S
C460 O463 1.252 . S
C460 O464 1.260 . S
O461 In455 2.266 . S
O461 C458 1.252 . S
O462 In455 2.326 . S
O462 C458 1.260 . S
O463 In455 2.266 . S
O463 C460 1.252 . S
O464 In455 2.326 . S
O464 C460 1.260 . S
C465 O456 1.240 . S
C465 O457 1.252 . S
O466 In455 2.294 . S
O466 C459 1.240 . S
O467 In455 2.326 . S
O467 C459 1.252 . S
H468 C476 0.950 . S
H469 C481 0.950 . S
H470 C478 0.950 . S
H471 C480 0.950 . S
H472 C482 0.950 . S
H473 C484 0.950 . S
H474 C486 0.950 . S
H475 C487 0.950 . S
C476 H468 0.950 . S
C476 C477 1.386 . S
C476 C478 1.391 . S
C477 C476 1.386 . S
C477 C481 1.393 . S
C478 H470 0.950 . S
C478 C476 1.391 . S
C478 C479 1.400 . S
C479 C478 1.400 . S
C479 C480 1.398 . S
C479 C485 1.491 . S
C480 H471 0.950 . S
C480 C479 1.398 . S
C480 C481 1.391 . S
C481 H469 0.950 . S
C481 C477 1.393 . S
C481 C480 1.391 . S
C482 H472 0.950 . S
C482 C483 1.386 . S
C482 C484 1.391 . S
C483 C482 1.386 . S
C483 C487 1.393 . S
C484 H473 0.950 . S
C484 C482 1.391 . S
C484 C485 1.400 . S
C485 C479 1.491 . S
C485 C484 1.400 . S
C485 C486 1.398 . S
C486 H474 0.950 . S
C486 C485 1.398 . S
C486 C487 1.391 . S
C487 H475 0.950 . S
C487 C483 1.393 . S
C487 C486 1.391 . S
H488 C496 0.950 . S
H489 C501 0.950 . S
H490 C498 0.950 . S
H491 C500 0.950 . S
H492 C502 0.950 . S
H493 C504 0.950 . S
H494 C506 0.950 . S
H495 C507 0.950 . S
C496 H488 0.950 . S
C496 C497 1.386 . S
C496 C498 1.391 . S
C497 C496 1.386 . S
C497 C501 1.393 . S
C498 H490 0.950 . S
C498 C496 1.391 . S
C498 C499 1.400 . S
C499 C498 1.400 . S
C499 C500 1.398 . S
C499 C505 1.491 . S
C500 H491 0.950 . S
C500 C499 1.398 . S
C500 C501 1.391 . S
C501 H489 0.950 . S
C501 C497 1.393 . S
C501 C500 1.391 . S
C502 H492 0.950 . S
C502 C503 1.386 . S
C502 C504 1.391 . S
C503 C502 1.386 . S
C503 C507 1.393 . S
C504 H493 0.950 . S
C504 C502 1.391 . S
C504 C505 1.400 . S
C505 C499 1.491 . S
C505 C504 1.400 . S
C505 C506 1.398 . S
C506 H494 0.950 . S
C506 C505 1.398 . S
C506 C507 1.391 . S
C507 H495 0.950 . S
C507 C503 1.393 . S
C507 C506 1.391 . S
H508 C516 0.950 . S
H509 C521 0.950 . S
H510 C518 0.950 . S
H511 C520 0.950 . S
H512 C522 0.950 . S
H513 C524 0.950 . S
H514 C526 0.950 . S
H515 C527 0.950 . S
C516 H508 0.950 . S
C516 C517 1.386 . S
C516 C518 1.391 . S
C517 C516 1.386 . S
C517 C521 1.393 . S
C518 H510 0.950 . S
C518 C516 1.391 . S
C518 C519 1.400 . S
C519 C518 1.400 . S
C519 C520 1.398 . S
C519 C525 1.491 . S
C520 H511 0.950 . S
C520 C519 1.398 . S
C520 C521 1.391 . S
C521 H509 0.950 . S
C521 C517 1.393 . S
C521 C520 1.391 . S
C522 H512 0.950 . S
C522 C523 1.386 . S
C522 C524 1.391 . S
C523 C522 1.386 . S
C523 C527 1.393 . S
C524 H513 0.950 . S
C524 C522 1.391 . S
C524 C525 1.400 . S
C525 C519 1.491 . S
C525 C524 1.400 . S
C525 C526 1.398 . S
C526 H514 0.950 . S
C526 C525 1.398 . S
C526 C527 1.391 . S
C527 H515 0.950 . S
C527 C523 1.393 . S
C527 C526 1.391 . S
H528 C536 0.950 . S
H529 C541 0.950 . S
H530 C538 0.950 . S
H531 C540 0.950 . S
H532 C542 0.950 . S
H533 C544 0.950 . S
H534 C546 0.950 . S
H535 C547 0.950 . S
C536 H528 0.950 . S
C536 C537 1.386 . S
C536 C538 1.391 . S
C537 C536 1.386 . S
C537 C541 1.393 . S
C538 H530 0.950 . S
C538 C536 1.391 . S
C538 C539 1.400 . S
C539 C538 1.400 . S
C539 C540 1.398 . S
C539 C545 1.491 . S
C540 H531 0.950 . S
C540 C539 1.398 . S
C540 C541 1.391 . S
C541 H529 0.950 . S
C541 C537 1.393 . S
C541 C540 1.391 . S
C542 H532 0.950 . S
C542 C543 1.386 . S
C542 C544 1.391 . S
C543 C542 1.386 . S
C543 C547 1.393 . S
C544 H533 0.950 . S
C544 C542 1.391 . S
C544 C545 1.400 . S
C545 C539 1.491 . S
C545 C544 1.400 . S
C545 C546 1.398 . S
C546 H534 0.950 . S
C546 C545 1.398 . S
C546 C547 1.391 . S
C547 H535 0.950 . S
C547 C543 1.393 . S
C547 C546 1.391 . S
H548 C556 0.950 . S
H549 C561 0.950 . S
H550 C558 0.950 . S
H551 C560 0.950 . S
H552 C562 0.950 . S
H553 C564 0.950 . S
H554 C566 0.950 . S
H555 C567 0.950 . S
C556 H548 0.950 . S
C556 C557 1.386 . S
C556 C558 1.391 . S
C557 C556 1.386 . S
C557 C561 1.393 . S
C558 H550 0.950 . S
C558 C556 1.391 . S
C558 C559 1.400 . S
C559 C558 1.400 . S
C559 C560 1.398 . S
C559 C565 1.491 . S
C560 H551 0.950 . S
C560 C559 1.398 . S
C560 C561 1.391 . S
C561 H549 0.950 . S
C561 C557 1.393 . S
C561 C560 1.391 . S
C562 H552 0.950 . S
C562 C563 1.386 . S
C562 C564 1.391 . S
C563 C562 1.386 . S
C563 C567 1.393 . S
C564 H553 0.950 . S
C564 C562 1.391 . S
C564 C565 1.400 . S
C565 C559 1.491 . S
C565 C564 1.400 . S
C565 C566 1.398 . S
C566 H554 0.950 . S
C566 C565 1.398 . S
C566 C567 1.391 . S
C567 H555 0.950 . S
C567 C563 1.393 . S
C567 C566 1.391 . S
H568 C576 0.950 . S
H569 C581 0.950 . S
H570 C578 0.950 . S
H571 C580 0.950 . S
H572 C582 0.950 . S
H573 C584 0.950 . S
H574 C586 0.950 . S
H575 C587 0.950 . S
C576 H568 0.950 . S
C576 C577 1.386 . S
C576 C578 1.391 . S
C577 C576 1.386 . S
C577 C581 1.393 . S
C578 H570 0.950 . S
C578 C576 1.391 . S
C578 C579 1.400 . S
C579 C578 1.400 . S
C579 C580 1.398 . S
C579 C585 1.491 . S
C580 H571 0.950 . S
C580 C579 1.398 . S
C580 C581 1.391 . S
C581 H569 0.950 . S
C581 C577 1.393 . S
C581 C580 1.391 . S
C582 H572 0.950 . S
C582 C583 1.386 . S
C582 C584 1.391 . S
C583 C582 1.386 . S
C583 C587 1.393 . S
C584 H573 0.950 . S
C584 C582 1.391 . S
C584 C585 1.400 . S
C585 C579 1.491 . S
C585 C584 1.400 . S
C585 C586 1.398 . S
C586 H574 0.950 . S
C586 C585 1.398 . S
C586 C587 1.391 . S
C587 H575 0.950 . S
C587 C583 1.393 . S
C587 C586 1.391 . S
H588 C596 0.950 . S
H589 C601 0.950 . S
H590 C598 0.950 . S
H591 C600 0.950 . S
H592 C602 0.950 . S
H593 C604 0.950 . S
H594 C606 0.950 . S
H595 C607 0.950 . S
C596 H588 0.950 . S
C596 C597 1.386 . S
C596 C598 1.391 . S
C597 C596 1.386 . S
C597 C601 1.393 . S
C598 H590 0.950 . S
C598 C596 1.391 . S
C598 C599 1.400 . S
C599 C598 1.400 . S
C599 C600 1.398 . S
C599 C605 1.491 . S
C600 H591 0.950 . S
C600 C599 1.398 . S
C600 C601 1.391 . S
C601 H589 0.950 . S
C601 C597 1.393 . S
C601 C600 1.391 . S
C602 H592 0.950 . S
C602 C603 1.386 . S
C602 C604 1.391 . S
C603 C602 1.386 . S
C603 C607 1.393 . S
C604 H593 0.950 . S
C604 C602 1.391 . S
C604 C605 1.400 . S
C605 C599 1.491 . S
C605 C604 1.400 . S
C605 C606 1.398 . S
C606 H594 0.950 . S
C606 C605 1.398 . S
C606 C607 1.391 . S
C607 H595 0.950 . S
C607 C603 1.393 . S
C607 C606 1.391 . S
H608 C616 0.950 . S
H609 C621 0.950 . S
H610 C618 0.950 . S
H611 C620 0.950 . S
H612 C622 0.950 . S
H613 C624 0.950 . S
H614 C626 0.950 . S
H615 C627 0.950 . S
C616 H608 0.950 . S
C616 C617 1.386 . S
C616 C618 1.391 . S
C617 C616 1.386 . S
C617 C621 1.393 . S
C618 H610 0.950 . S
C618 C616 1.391 . S
C618 C619 1.400 . S
C619 C618 1.400 . S
C619 C620 1.398 . S
C619 C625 1.491 . S
C620 H611 0.950 . S
C620 C619 1.398 . S
C620 C621 1.391 . S
C621 H609 0.950 . S
C621 C617 1.393 . S
C621 C620 1.391 . S
C622 H612 0.950 . S
C622 C623 1.386 . S
C622 C624 1.391 . S
C623 C622 1.386 . S
C623 C627 1.393 . S
C624 H613 0.950 . S
C624 C622 1.391 . S
C624 C625 1.400 . S
C625 C619 1.491 . S
C625 C624 1.400 . S
C625 C626 1.398 . S
C626 H614 0.950 . S
C626 C625 1.398 . S
C626 C627 1.391 . S
C627 H615 0.950 . S
C627 C623 1.393 . S
C627 C626 1.391 . S
H628 C636 0.950 . S
H629 C641 0.950 . S
H630 C638 0.950 . S
H631 C640 0.950 . S
H632 C642 0.950 . S
H633 C644 0.950 . S
H634 C646 0.950 . S
H635 C647 0.950 . S
C636 H628 0.950 . S
C636 C637 1.386 . S
C636 C638 1.391 . S
C637 C636 1.386 . S
C637 C641 1.393 . S
C638 H630 0.950 . S
C638 C636 1.391 . S
C638 C639 1.400 . S
C639 C638 1.400 . S
C639 C640 1.398 . S
C639 C645 1.491 . S
C640 H631 0.950 . S
C640 C639 1.398 . S
C640 C641 1.391 . S
C641 H629 0.950 . S
C641 C637 1.393 . S
C641 C640 1.391 . S
C642 H632 0.950 . S
C642 C643 1.386 . S
C642 C644 1.391 . S
C643 C642 1.386 . S
C643 C647 1.393 . S
C644 H633 0.950 . S
C644 C642 1.391 . S
C644 C645 1.400 . S
C645 C639 1.491 . S
C645 C644 1.400 . S
C645 C646 1.398 . S
C646 H634 0.950 . S
C646 C645 1.398 . S
C646 C647 1.391 . S
C647 H635 0.950 . S
C647 C643 1.393 . S
C647 C646 1.391 . S
H648 C656 0.950 . S
H649 C661 0.950 . S
H650 C658 0.950 . S
H651 C660 0.950 . S
H652 C662 0.950 . S
H653 C664 0.950 . S
H654 C666 0.950 . S
H655 C667 0.950 . S
C656 H648 0.950 . S
C656 C657 1.386 . S
C656 C658 1.391 . S
C657 C656 1.386 . S
C657 C661 1.393 . S
C658 H650 0.950 . S
C658 C656 1.391 . S
C658 C659 1.400 . S
C659 C658 1.400 . S
C659 C660 1.398 . S
C659 C665 1.491 . S
C660 H651 0.950 . S
C660 C659 1.398 . S
C660 C661 1.391 . S
C661 H649 0.950 . S
C661 C657 1.393 . S
C661 C660 1.391 . S
C662 H652 0.950 . S
C662 C663 1.386 . S
C662 C664 1.391 . S
C663 C662 1.386 . S
C663 C667 1.393 . S
C664 H653 0.950 . S
C664 C662 1.391 . S
C664 C665 1.400 . S
C665 C659 1.491 . S
C665 C664 1.400 . S
C665 C666 1.398 . S
C666 H654 0.950 . S
C666 C665 1.398 . S
C666 C667 1.391 . S
C667 H655 0.950 . S
C667 C663 1.393 . S
C667 C666 1.391 . S
H668 C676 0.950 . S
H669 C681 0.950 . S
H670 C678 0.950 . S
H671 C680 0.950 . S
H672 C682 0.950 . S
H673 C684 0.950 . S
H674 C686 0.950 . S
H675 C687 0.950 . S
C676 H668 0.950 . S
C676 C677 1.386 . S
C676 C678 1.391 . S
C677 C676 1.386 . S
C677 C681 1.393 . S
C678 H670 0.950 . S
C678 C676 1.391 . S
C678 C679 1.400 . S
C679 C678 1.400 . S
C679 C680 1.398 . S
C679 C685 1.491 . S
C680 H671 0.950 . S
C680 C679 1.398 . S
C680 C681 1.391 . S
C681 H669 0.950 . S
C681 C677 1.393 . S
C681 C680 1.391 . S
C682 H672 0.950 . S
C682 C683 1.386 . S
C682 C684 1.391 . S
C683 C682 1.386 . S
C683 C687 1.393 . S
C684 H673 0.950 . S
C684 C682 1.391 . S
C684 C685 1.400 . S
C685 C679 1.491 . S
C685 C684 1.400 . S
C685 C686 1.398 . S
C686 H674 0.950 . S
C686 C685 1.398 . S
C686 C687 1.391 . S
C687 H675 0.950 . S
C687 C683 1.393 . S
C687 C686 1.391 . S
H688 C696 0.950 . S
H689 C701 0.950 . S
H690 C698 0.950 . S
H691 C700 0.950 . S
H692 C702 0.950 . S
H693 C704 0.950 . S
H694 C706 0.950 . S
H695 C707 0.950 . S
C696 H688 0.950 . S
C696 C697 1.386 . S
C696 C698 1.391 . S
C697 C696 1.386 . S
C697 C701 1.393 . S
C698 H690 0.950 . S
C698 C696 1.391 . S
C698 C699 1.400 . S
C699 C698 1.400 . S
C699 C700 1.398 . S
C699 C705 1.491 . S
C700 H691 0.950 . S
C700 C699 1.398 . S
C700 C701 1.391 . S
C701 H689 0.950 . S
C701 C697 1.393 . S
C701 C700 1.391 . S
C702 H692 0.950 . S
C702 C703 1.386 . S
C702 C704 1.391 . S
C703 C702 1.386 . S
C703 C707 1.393 . S
C704 H693 0.950 . S
C704 C702 1.391 . S
C704 C705 1.400 . S
C705 C699 1.491 . S
C705 C704 1.400 . S
C705 C706 1.398 . S
C706 H694 0.950 . S
C706 C705 1.398 . S
C706 C707 1.391 . S
C707 H695 0.950 . S
C707 C703 1.393 . S
C707 C706 1.391 . S
H708 C716 0.950 . S
H709 C721 0.950 . S
H710 C718 0.950 . S
H711 C720 0.950 . S
H712 C722 0.950 . S
H713 C724 0.950 . S
H714 C726 0.950 . S
H715 C727 0.950 . S
C716 H708 0.950 . S
C716 C717 1.386 . S
C716 C718 1.391 . S
C717 C716 1.386 . S
C717 C721 1.393 . S
C718 H710 0.950 . S
C718 C716 1.391 . S
C718 C719 1.400 . S
C719 C718 1.400 . S
C719 C720 1.398 . S
C719 C725 1.491 . S
C720 H711 0.950 . S
C720 C719 1.398 . S
C720 C721 1.391 . S
C721 H709 0.950 . S
C721 C717 1.393 . S
C721 C720 1.391 . S
C722 H712 0.950 . S
C722 C723 1.386 . S
C722 C724 1.391 . S
C723 C722 1.386 . S
C723 C727 1.393 . S
C724 H713 0.950 . S
C724 C722 1.391 . S
C724 C725 1.400 . S
C725 C719 1.491 . S
C725 C724 1.400 . S
C725 C726 1.398 . S
C726 H714 0.950 . S
C726 C725 1.398 . S
C726 C727 1.391 . S
C727 H715 0.950 . S
C727 C723 1.393 . S
C727 C726 1.391 . S
H728 C736 0.950 . S
H729 C741 0.950 . S
H730 C738 0.950 . S
H731 C740 0.950 . S
H732 C742 0.950 . S
H733 C744 0.950 . S
H734 C746 0.950 . S
H735 C747 0.950 . S
C736 H728 0.950 . S
C736 C737 1.386 . S
C736 C738 1.391 . S
C737 C736 1.386 . S
C737 C741 1.393 . S
C738 H730 0.950 . S
C738 C736 1.391 . S
C738 C739 1.400 . S
C739 C738 1.400 . S
C739 C740 1.398 . S
C739 C745 1.491 . S
C740 H731 0.950 . S
C740 C739 1.398 . S
C740 C741 1.391 . S
C741 H729 0.950 . S
C741 C737 1.393 . S
C741 C740 1.391 . S
C742 H732 0.950 . S
C742 C743 1.386 . S
C742 C744 1.391 . S
C743 C742 1.386 . S
C743 C747 1.393 . S
C744 H733 0.950 . S
C744 C742 1.391 . S
C744 C745 1.400 . S
C745 C739 1.491 . S
C745 C744 1.400 . S
C745 C746 1.398 . S
C746 H734 0.950 . S
C746 C745 1.398 . S
C746 C747 1.391 . S
C747 H735 0.950 . S
C747 C743 1.393 . S
C747 C746 1.391 . S
H748 C756 0.950 . S
H749 C761 0.950 . S
H750 C758 0.950 . S
H751 C760 0.950 . S
H752 C762 0.950 . S
H753 C764 0.950 . S
H754 C766 0.950 . S
H755 C767 0.950 . S
C756 H748 0.950 . S
C756 C757 1.386 . S
C756 C758 1.391 . S
C757 C756 1.386 . S
C757 C761 1.393 . S
C758 H750 0.950 . S
C758 C756 1.391 . S
C758 C759 1.400 . S
C759 C758 1.400 . S
C759 C760 1.398 . S
C759 C765 1.491 . S
C760 H751 0.950 . S
C760 C759 1.398 . S
C760 C761 1.391 . S
C761 H749 0.950 . S
C761 C757 1.393 . S
C761 C760 1.391 . S
C762 H752 0.950 . S
C762 C763 1.386 . S
C762 C764 1.391 . S
C763 C762 1.386 . S
C763 C767 1.393 . S
C764 H753 0.950 . S
C764 C762 1.391 . S
C764 C765 1.400 . S
C765 C759 1.491 . S
C765 C764 1.400 . S
C765 C766 1.398 . S
C766 H754 0.950 . S
C766 C765 1.398 . S
C766 C767 1.391 . S
C767 H755 0.950 . S
C767 C763 1.393 . S
C767 C766 1.391 . S
H768 C776 0.950 . S
H769 C781 0.950 . S
H770 C778 0.950 . S
H771 C780 0.950 . S
H772 C782 0.950 . S
H773 C784 0.950 . S
H774 C786 0.950 . S
H775 C787 0.950 . S
C776 H768 0.950 . S
C776 C777 1.386 . S
C776 C778 1.391 . S
C777 C776 1.386 . S
C777 C781 1.393 . S
C778 H770 0.950 . S
C778 C776 1.391 . S
C778 C779 1.400 . S
C779 C778 1.400 . S
C779 C780 1.398 . S
C779 C785 1.491 . S
C780 H771 0.950 . S
C780 C779 1.398 . S
C780 C781 1.391 . S
C781 H769 0.950 . S
C781 C777 1.393 . S
C781 C780 1.391 . S
C782 H772 0.950 . S
C782 C783 1.386 . S
C782 C784 1.391 . S
C783 C782 1.386 . S
C783 C787 1.393 . S
C784 H773 0.950 . S
C784 C782 1.391 . S
C784 C785 1.400 . S
C785 C779 1.491 . S
C785 C784 1.400 . S
C785 C786 1.398 . S
C786 H774 0.950 . S
C786 C785 1.398 . S
C786 C787 1.391 . S
C787 H775 0.950 . S
C787 C783 1.393 . S
C787 C786 1.391 . S
H788 C796 0.950 . S
H789 C801 0.950 . S
H790 C798 0.950 . S
H791 C800 0.950 . S
H792 C802 0.950 . S
H793 C804 0.950 . S
H794 C806 0.950 . S
H795 C807 0.950 . S
C796 H788 0.950 . S
C796 C797 1.386 . S
C796 C798 1.391 . S
C797 C796 1.386 . S
C797 C801 1.393 . S
C798 H790 0.950 . S
C798 C796 1.391 . S
C798 C799 1.400 . S
C799 C798 1.400 . S
C799 C800 1.398 . S
C799 C805 1.491 . S
C800 H791 0.950 . S
C800 C799 1.398 . S
C800 C801 1.391 . S
C801 H789 0.950 . S
C801 C797 1.393 . S
C801 C800 1.391 . S
C802 H792 0.950 . S
C802 C803 1.386 . S
C802 C804 1.391 . S
C803 C802 1.386 . S
C803 C807 1.393 . S
C804 H793 0.950 . S
C804 C802 1.391 . S
C804 C805 1.400 . S
C805 C799 1.491 . S
C805 C804 1.400 . S
C805 C806 1.398 . S
C806 H794 0.950 . S
C806 C805 1.398 . S
C806 C807 1.391 . S
C807 H795 0.950 . S
C807 C803 1.393 . S
C807 C806 1.391 . S
H808 C816 0.950 . S
H809 C821 0.950 . S
H810 C818 0.950 . S
H811 C820 0.950 . S
H812 C822 0.950 . S
H813 C824 0.950 . S
H814 C826 0.950 . S
H815 C827 0.950 . S
C816 H808 0.950 . S
C816 C817 1.386 . S
C816 C818 1.391 . S
C817 C816 1.386 . S
C817 C821 1.393 . S
C818 H810 0.950 . S
C818 C816 1.391 . S
C818 C819 1.400 . S
C819 C818 1.400 . S
C819 C820 1.398 . S
C819 C825 1.491 . S
C820 H811 0.950 . S
C820 C819 1.398 . S
C820 C821 1.391 . S
C821 H809 0.950 . S
C821 C817 1.393 . S
C821 C820 1.391 . S
C822 H812 0.950 . S
C822 C823 1.386 . S
C822 C824 1.391 . S
C823 C822 1.386 . S
C823 C827 1.393 . S
C824 H813 0.950 . S
C824 C822 1.391 . S
C824 C825 1.400 . S
C825 C819 1.491 . S
C825 C824 1.400 . S
C825 C826 1.398 . S
C826 H814 0.950 . S
C826 C825 1.398 . S
C826 C827 1.391 . S
C827 H815 0.950 . S
C827 C823 1.393 . S
C827 C826 1.391 . S
H828 C836 0.950 . S
H829 C841 0.950 . S
H830 C838 0.950 . S
H831 C840 0.950 . S
H832 C842 0.950 . S
H833 C844 0.950 . S
H834 C846 0.950 . S
H835 C847 0.950 . S
C836 H828 0.950 . S
C836 C837 1.386 . S
C836 C838 1.391 . S
C837 C836 1.386 . S
C837 C841 1.393 . S
C838 H830 0.950 . S
C838 C836 1.391 . S
C838 C839 1.400 . S
C839 C838 1.400 . S
C839 C840 1.398 . S
C839 C845 1.491 1_454 S
C840 H831 0.950 . S
C840 C839 1.398 . S
C840 C841 1.391 . S
C841 H829 0.950 . S
C841 C837 1.393 . S
C841 C840 1.391 . S
C842 H832 0.950 . S
C842 C843 1.386 . S
C842 C844 1.391 . S
C843 C842 1.386 . S
C843 C847 1.393 . S
C844 H833 0.950 . S
C844 C842 1.391 . S
C844 C845 1.400 . S
C845 C839 1.491 1_656 S
C845 C844 1.400 . S
C845 C846 1.398 . S
C846 H834 0.950 . S
C846 C845 1.398 . S
C846 C847 1.391 . S
C847 H835 0.950 . S
C847 C843 1.393 . S
C847 C846 1.391 . S
H848 C856 0.950 1_554 S
H849 C861 0.950 . S
H850 C858 0.950 . S
H851 C860 0.950 . S
H852 C862 0.950 1_556 S
H853 C864 0.950 . S
H854 C866 0.950 . S
H855 C867 0.950 . S
C856 H848 0.950 1_556 S
C856 C857 1.386 . S
C856 C858 1.391 1_556 S
C857 C856 1.386 . S
C857 C861 1.393 . S
C858 H850 0.950 . S
C858 C856 1.391 1_554 S
C858 C859 1.400 1_554 S
C859 C858 1.400 1_556 S
C859 C860 1.398 . S
C859 C865 1.491 1_556 S
C860 H851 0.950 . S
C860 C859 1.398 . S
C860 C861 1.391 . S
C861 H849 0.950 . S
C861 C857 1.393 . S
C861 C860 1.391 . S
C862 H852 0.950 1_554 S
C862 C863 1.386 . S
C862 C864 1.391 1_554 S
C863 C862 1.386 . S
C863 C867 1.393 . S
C864 H853 0.950 . S
C864 C862 1.391 1_556 S
C864 C865 1.400 1_556 S
C865 C859 1.491 1_554 S
C865 C864 1.400 1_554 S
C865 C866 1.398 . S
C866 H854 0.950 . S
C866 C865 1.398 . S
C866 C867 1.391 . S
C867 H855 0.950 . S
C867 C863 1.393 . S
C867 C866 1.391 . S
H868 C876 0.950 . S
H869 C881 0.950 . S
H870 C878 0.950 . S
H871 C880 0.950 1_556 S
H872 C882 0.950 . S
H873 C884 0.950 . S
H874 C886 0.950 1_554 S
H875 C887 0.950 . S
C876 H868 0.950 . S
C876 C877 1.386 . S
C876 C878 1.391 . S
C877 C876 1.386 . S
C877 C881 1.393 . S
C878 H870 0.950 . S
C878 C876 1.391 . S
C878 C879 1.400 . S
C879 C878 1.400 . S
C879 C880 1.398 . S
C879 C885 1.491 1_564 S
C880 H871 0.950 1_554 S
C880 C879 1.398 . S
C880 C881 1.391 . S
C881 H869 0.950 . S
C881 C877 1.393 . S
C881 C880 1.391 . S
C882 H872 0.950 . S
C882 C883 1.386 . S
C882 C884 1.391 . S
C883 C882 1.386 . S
C883 C887 1.393 . S
C884 H873 0.950 . S
C884 C882 1.391 . S
C884 C885 1.400 . S
C885 C879 1.491 1_546 S
C885 C884 1.400 . S
C885 C886 1.398 . S
C886 H874 0.950 1_556 S
C886 C885 1.398 . S
C886 C887 1.391 . S
C887 H875 0.950 . S
C887 C883 1.393 . S
C887 C886 1.391 . S
H888 C896 0.950 . S
H889 C901 0.950 . S
H890 C898 0.950 . S
H891 C900 0.950 . S
H892 C902 0.950 . S
H893 C904 0.950 . S
H894 C906 0.950 . S
H895 C907 0.950 . S
C896 H888 0.950 . S
C896 C897 1.386 . S
C896 C898 1.391 . S
C897 C896 1.386 . S
C897 C901 1.393 . S
C898 H890 0.950 . S
C898 C896 1.391 . S
C898 C899 1.400 . S
C899 C898 1.400 . S
C899 C900 1.398 . S
C899 C905 1.491 1_656 S
C900 H891 0.950 . S
C900 C899 1.398 . S
C900 C901 1.391 . S
C901 H889 0.950 . S
C901 C897 1.393 . S
C901 C900 1.391 . S
C902 H892 0.950 . S
C902 C903 1.386 . S
C902 C904 1.391 . S
C903 C902 1.386 . S
C903 C907 1.393 . S
C904 H893 0.950 . S
C904 C902 1.391 . S
C904 C905 1.400 . S
C905 C899 1.491 1_454 S
C905 C904 1.400 . S
C905 C906 1.398 . S
C906 H894 0.950 . S
C906 C905 1.398 . S
C906 C907 1.391 . S
C907 H895 0.950 . S
C907 C903 1.393 . S
C907 C906 1.391 . S
H908 C916 0.950 . S
H909 C921 0.950 . S
H910 C918 0.950 . S
H911 C920 0.950 . S
H912 C922 0.950 . S
H913 C924 0.950 . S
H914 C926 0.950 . S
H915 C927 0.950 . S
C916 H908 0.950 . S
C916 C917 1.386 . S
C916 C918 1.391 . S
C917 C916 1.386 . S
C917 C921 1.393 . S
C918 H910 0.950 . S
C918 C916 1.391 . S
C918 C919 1.400 . S
C919 C918 1.400 . S
C919 C920 1.398 . S
C919 C925 1.491 1_556 S
C920 H911 0.950 . S
C920 C919 1.398 . S
C920 C921 1.391 . S
C921 H909 0.950 . S
C921 C917 1.393 . S
C921 C920 1.391 . S
C922 H912 0.950 . S
C922 C923 1.386 . S
C922 C924 1.391 . S
C923 C922 1.386 . S
C923 C927 1.393 . S
C924 H913 0.950 . S
C924 C922 1.391 . S
C924 C925 1.400 . S
C925 C919 1.491 1_554 S
C925 C924 1.400 . S
C925 C926 1.398 . S
C926 H914 0.950 . S
C926 C925 1.398 . S
C926 C927 1.391 . S
C927 H915 0.950 . S
C927 C923 1.393 . S
C927 C926 1.391 . S
H928 C936 0.957 . S
H929 C941 0.950 . S
H930 C938 0.950 . S
H931 C940 0.950 . S
H932 C942 0.957 . S
H933 C944 0.950 . S
H934 C946 0.950 . S
H935 C947 0.950 . S
C936 H928 0.957 . S
C936 C937 1.373 1_554 S
C936 C938 1.396 . S
C937 C936 1.373 1_556 S
C937 C941 1.393 . S
C938 H930 0.950 . S
C938 C936 1.396 . S
C938 C939 1.400 1_554 S
C939 C938 1.400 1_556 S
C939 C940 1.398 . S
C939 C945 1.491 1_546 S
C940 H931 0.950 . S
C940 C939 1.398 . S
C940 C941 1.391 . S
C941 H929 0.950 . S
C941 C937 1.393 . S
C941 C940 1.391 . S
C942 H932 0.957 . S
C942 C943 1.374 1_556 S
C942 C944 1.396 . S
C943 C942 1.374 1_554 S
C943 C947 1.393 . S
C944 H933 0.950 . S
C944 C942 1.396 . S
C944 C945 1.400 1_556 S
C945 C939 1.491 1_564 S
C945 C944 1.400 1_554 S
C945 C946 1.398 . S
C946 H934 0.950 . S
C946 C945 1.398 . S
C946 C947 1.391 . S
C947 H935 0.950 . S
C947 C943 1.393 . S
C947 C946 1.391 . S
H948 C956 0.950 . S
H949 C961 0.950 . S
H950 C958 0.950 . S
H951 C960 0.950 . S
H952 C962 0.950 . S
H953 C964 0.950 . S
H954 C966 0.950 . S
H955 C967 0.950 . S
C956 H948 0.950 . S
C956 C957 1.386 . S
C956 C958 1.391 . S
C957 C956 1.386 . S
C957 C961 1.393 . S
C958 H950 0.950 . S
C958 C956 1.391 . S
C958 C959 1.400 . S
C959 C958 1.400 . S
C959 C960 1.398 . S
C959 C965 1.491 . S
C960 H951 0.950 . S
C960 C959 1.398 . S
C960 C961 1.391 . S
C961 H949 0.950 . S
C961 C957 1.393 . S
C961 C960 1.391 . S
C962 H952 0.950 . S
C962 C963 1.386 . S
C962 C964 1.391 . S
C963 C962 1.386 . S
C963 C967 1.393 . S
C964 H953 0.950 . S
C964 C962 1.391 . S
C964 C965 1.400 . S
C965 C959 1.491 . S
C965 C964 1.400 . S
C965 C966 1.398 . S
C966 H954 0.950 . S
C966 C965 1.398 . S
C966 C967 1.391 . S
C967 H955 0.950 . S
C967 C963 1.393 . S
C967 C966 1.391 . S
H968 C976 0.950 . S
H969 C981 0.950 . S
H970 C978 0.950 . S
H971 C980 0.950 . S
H972 C982 0.950 . S
H973 C984 0.950 . S
H974 C986 0.950 . S
H975 C987 0.950 . S
C976 H968 0.950 . S
C976 C977 1.386 . S
C976 C978 1.391 . S
C977 C976 1.386 . S
C977 C981 1.393 . S
C978 H970 0.950 . S
C978 C976 1.391 . S
C978 C979 1.400 . S
C979 C978 1.400 . S
C979 C980 1.398 . S
C979 C985 1.491 . S
C980 H971 0.950 . S
C980 C979 1.398 . S
C980 C981 1.391 . S
C981 H969 0.950 . S
C981 C977 1.393 . S
C981 C980 1.391 . S
C982 H972 0.950 . S
C982 C983 1.386 . S
C982 C984 1.391 . S
C983 C982 1.386 . S
C983 C987 1.393 . S
C984 H973 0.950 . S
C984 C982 1.391 . S
C984 C985 1.400 . S
C985 C979 1.491 . S
C985 C984 1.400 . S
C985 C986 1.398 . S
C986 H974 0.950 . S
C986 C985 1.398 . S
C986 C987 1.391 . S
C987 H975 0.950 . S
C987 C983 1.393 . S
C987 C986 1.391 . S
H988 C996 0.950 . S
H989 C1001 0.950 . S
H990 C998 0.950 . S
H991 C1000 0.950 . S
H992 C1002 0.950 . S
H993 C1004 0.950 . S
H994 C1006 0.950 . S
H995 C1007 0.950 . S
C996 H988 0.950 . S
C996 C997 1.386 . S
C996 C998 1.391 . S
C997 C996 1.386 . S
C997 C1001 1.393 . S
C998 H990 0.950 . S
C998 C996 1.391 . S
C998 C999 1.400 . S
C999 C998 1.400 . S
C999 C1000 1.398 . S
C999 C1005 1.491 . S
C1000 H991 0.950 . S
C1000 C999 1.398 . S
C1000 C1001 1.391 . S
C1001 H989 0.950 . S
C1001 C997 1.393 . S
C1001 C1000 1.391 . S
C1002 H992 0.950 . S
C1002 C1003 1.386 . S
C1002 C1004 1.391 . S
C1003 C1002 1.386 . S
C1003 C1007 1.393 . S
C1004 H993 0.950 . S
C1004 C1002 1.391 . S
C1004 C1005 1.400 . S
C1005 C999 1.491 . S
C1005 C1004 1.400 . S
C1005 C1006 1.398 . S
C1006 H994 0.950 . S
C1006 C1005 1.398 . S
C1006 C1007 1.391 . S
C1007 H995 0.950 . S
C1007 C1003 1.393 . S
C1007 C1006 1.391 . S
H1008 C1016 0.950 . S
H1009 C1021 0.950 . S
H1010 C1018 0.950 . S
H1011 C1020 0.950 . S
H1012 C1022 0.950 . S
H1013 C1024 0.950 . S
H1014 C1026 0.950 . S
H1015 C1027 0.950 . S
C1016 H1008 0.950 . S
C1016 C1017 1.386 . S
C1016 C1018 1.391 . S
C1017 C1016 1.386 . S
C1017 C1021 1.393 . S
C1018 H1010 0.950 . S
C1018 C1016 1.391 . S
C1018 C1019 1.400 . S
C1019 C1018 1.400 . S
C1019 C1020 1.398 . S
C1019 C1025 1.491 . S
C1020 H1011 0.950 . S
C1020 C1019 1.398 . S
C1020 C1021 1.391 . S
C1021 H1009 0.950 . S
C1021 C1017 1.393 . S
C1021 C1020 1.391 . S
C1022 H1012 0.950 . S
C1022 C1023 1.386 . S
C1022 C1024 1.391 . S
C1023 C1022 1.386 . S
C1023 C1027 1.393 . S
C1024 H1013 0.950 . S
C1024 C1022 1.391 . S
C1024 C1025 1.400 . S
C1025 C1019 1.491 . S
C1025 C1024 1.400 . S
C1025 C1026 1.398 . S
C1026 H1014 0.950 . S
C1026 C1025 1.398 . S
C1026 C1027 1.391 . S
C1027 H1015 0.950 . S
C1027 C1023 1.393 . S
C1027 C1026 1.391 . S
H1028 C1036 0.950 . S
H1029 C1041 0.950 . S
H1030 C1038 0.950 . S
H1031 C1040 0.950 . S
H1032 C1042 0.950 . S
H1033 C1044 0.950 . S
H1034 C1046 0.950 . S
H1035 C1047 0.950 . S
C1036 H1028 0.950 . S
C1036 C1037 1.386 . S
C1036 C1038 1.391 . S
C1037 C1036 1.386 . S
C1037 C1041 1.393 . S
C1038 H1030 0.950 . S
C1038 C1036 1.391 . S
C1038 C1039 1.400 . S
C1039 C1038 1.400 . S
C1039 C1040 1.398 . S
C1039 C1045 1.491 . S
C1040 H1031 0.950 . S
C1040 C1039 1.398 . S
C1040 C1041 1.391 . S
C1041 H1029 0.950 . S
C1041 C1037 1.393 . S
C1041 C1040 1.391 . S
C1042 H1032 0.950 . S
C1042 C1043 1.386 . S
C1042 C1044 1.391 . S
C1043 C1042 1.386 . S
C1043 C1047 1.393 . S
C1044 H1033 0.950 . S
C1044 C1042 1.391 . S
C1044 C1045 1.400 . S
C1045 C1039 1.491 . S
C1045 C1044 1.400 . S
C1045 C1046 1.398 . S
C1046 H1034 0.950 . S
C1046 C1045 1.398 . S
C1046 C1047 1.391 . S
C1047 H1035 0.950 . S
C1047 C1043 1.393 . S
C1047 C1046 1.391 . S
H1048 C1056 0.950 . S
H1049 C1061 0.950 . S
H1050 C1058 0.950 . S
H1051 C1060 0.950 . S
H1052 C1062 0.950 . S
H1053 C1064 0.950 . S
H1054 C1066 0.950 . S
H1055 C1067 0.950 . S
C1056 H1048 0.950 . S
C1056 C1057 1.386 . S
C1056 C1058 1.391 . S
C1057 C1056 1.386 . S
C1057 C1061 1.393 . S
C1058 H1050 0.950 . S
C1058 C1056 1.391 . S
C1058 C1059 1.400 . S
C1059 C1058 1.400 . S
C1059 C1060 1.398 . S
C1059 C1065 1.491 . S
C1060 H1051 0.950 . S
C1060 C1059 1.398 . S
C1060 C1061 1.391 . S
C1061 H1049 0.950 . S
C1061 C1057 1.393 . S
C1061 C1060 1.391 . S
C1062 H1052 0.950 . S
C1062 C1063 1.386 . S
C1062 C1064 1.391 . S
C1063 C1062 1.386 . S
C1063 C1067 1.393 . S
C1064 H1053 0.950 . S
C1064 C1062 1.391 . S
C1064 C1065 1.400 . S
C1065 C1059 1.491 . S
C1065 C1064 1.400 . S
C1065 C1066 1.398 . S
C1066 H1054 0.950 . S
C1066 C1065 1.398 . S
C1066 C1067 1.391 . S
C1067 H1055 0.950 . S
C1067 C1063 1.393 . S
C1067 C1066 1.391 . S
H1068 C1076 0.950 . S
H1069 C1081 0.950 . S
H1070 C1078 0.950 . S
H1071 C1080 0.950 . S
H1072 C1082 0.950 . S
H1073 C1084 0.950 . S
H1074 C1086 0.950 . S
H1075 C1087 0.950 . S
C1076 H1068 0.950 . S
C1076 C1077 1.386 . S
C1076 C1078 1.391 . S
C1077 C1076 1.386 . S
C1077 C1081 1.393 . S
C1078 H1070 0.950 . S
C1078 C1076 1.391 . S
C1078 C1079 1.400 . S
C1079 C1078 1.400 . S
C1079 C1080 1.398 . S
C1079 C1085 1.491 . S
C1080 H1071 0.950 . S
C1080 C1079 1.398 . S
C1080 C1081 1.391 . S
C1081 H1069 0.950 . S
C1081 C1077 1.393 . S
C1081 C1080 1.391 . S
C1082 H1072 0.950 . S
C1082 C1083 1.386 . S
C1082 C1084 1.391 . S
C1083 C1082 1.386 . S
C1083 C1087 1.393 . S
C1084 H1073 0.950 . S
C1084 C1082 1.391 . S
C1084 C1085 1.400 . S
C1085 C1079 1.491 . S
C1085 C1084 1.400 . S
C1085 C1086 1.398 . S
C1086 H1074 0.950 . S
C1086 C1085 1.398 . S
C1086 C1087 1.391 . S
C1087 H1075 0.950 . S
C1087 C1083 1.393 . S
C1087 C1086 1.391 . S
H1088 C1096 0.950 . S
H1089 C1101 0.950 . S
H1090 C1098 0.950 . S
H1091 C1100 0.950 . S
H1092 C1102 0.950 . S
H1093 C1104 0.950 . S
H1094 C1106 0.950 . S
H1095 C1107 0.950 . S
C1096 H1088 0.950 . S
C1096 C1097 1.386 . S
C1096 C1098 1.391 . S
C1097 C1096 1.386 . S
C1097 C1101 1.393 . S
C1098 H1090 0.950 . S
C1098 C1096 1.391 . S
C1098 C1099 1.400 . S
C1099 C1098 1.400 . S
C1099 C1100 1.398 . S
C1099 C1105 1.491 . S
C1100 H1091 0.950 . S
C1100 C1099 1.398 . S
C1100 C1101 1.391 . S
C1101 H1089 0.950 . S
C1101 C1097 1.393 . S
C1101 C1100 1.391 . S
C1102 H1092 0.950 . S
C1102 C1103 1.386 . S
C1102 C1104 1.391 . S
C1103 C1102 1.386 . S
C1103 C1107 1.393 . S
C1104 H1093 0.950 . S
C1104 C1102 1.391 . S
C1104 C1105 1.400 . S
C1105 C1099 1.491 . S
C1105 C1104 1.400 . S
C1105 C1106 1.398 . S
C1106 H1094 0.950 . S
C1106 C1105 1.398 . S
C1106 C1107 1.391 . S
C1107 H1095 0.950 . S
C1107 C1103 1.393 . S
C1107 C1106 1.391 . S
H1108 C1116 0.950 . S
H1109 C1121 0.950 . S
H1110 C1118 0.950 . S
H1111 C1120 0.950 . S
H1112 C1122 0.950 . S
H1113 C1124 0.950 . S
H1114 C1126 0.950 . S
H1115 C1127 0.950 . S
C1116 H1108 0.950 . S
C1116 C1117 1.386 . S
C1116 C1118 1.391 . S
C1117 C1116 1.386 . S
C1117 C1121 1.393 . S
C1118 H1110 0.950 . S
C1118 C1116 1.391 . S
C1118 C1119 1.400 . S
C1119 C1118 1.400 . S
C1119 C1120 1.398 . S
C1119 C1125 1.491 . S
C1120 H1111 0.950 . S
C1120 C1119 1.398 . S
C1120 C1121 1.391 . S
C1121 H1109 0.950 . S
C1121 C1117 1.393 . S
C1121 C1120 1.391 . S
C1122 H1112 0.950 . S
C1122 C1123 1.386 . S
C1122 C1124 1.391 . S
C1123 C1122 1.386 . S
C1123 C1127 1.393 . S
C1124 H1113 0.950 . S
C1124 C1122 1.391 . S
C1124 C1125 1.400 . S
C1125 C1119 1.491 . S
C1125 C1124 1.400 . S
C1125 C1126 1.398 . S
C1126 H1114 0.950 . S
C1126 C1125 1.398 . S
C1126 C1127 1.391 . S
C1127 H1115 0.950 . S
C1127 C1123 1.393 . S
C1127 C1126 1.391 . S
H1128 C1136 0.950 . S
H1129 C1141 0.950 . S
H1130 C1138 0.950 . S
H1131 C1140 0.950 . S
H1132 C1142 0.950 . S
H1133 C1144 0.950 . S
H1134 C1146 0.950 . S
H1135 C1147 0.950 . S
C1136 H1128 0.950 . S
C1136 C1137 1.386 . S
C1136 C1138 1.391 . S
C1137 C1136 1.386 . S
C1137 C1141 1.393 . S
C1138 H1130 0.950 . S
C1138 C1136 1.391 . S
C1138 C1139 1.400 . S
C1139 C1138 1.400 . S
C1139 C1140 1.398 . S
C1139 C1145 1.491 . S
C1140 H1131 0.950 . S
C1140 C1139 1.398 . S
C1140 C1141 1.391 . S
C1141 H1129 0.950 . S
C1141 C1137 1.393 . S
C1141 C1140 1.391 . S
C1142 H1132 0.950 . S
C1142 C1143 1.386 . S
C1142 C1144 1.391 . S
C1143 C1142 1.386 . S
C1143 C1147 1.393 . S
C1144 H1133 0.950 . S
C1144 C1142 1.391 . S
C1144 C1145 1.400 . S
C1145 C1139 1.491 . S
C1145 C1144 1.400 . S
C1145 C1146 1.398 . S
C1146 H1134 0.950 . S
C1146 C1145 1.398 . S
C1146 C1147 1.391 . S
C1147 H1135 0.950 . S
C1147 C1143 1.393 . S
C1147 C1146 1.391 . S
H1148 C1156 0.950 . S
H1149 C1161 0.950 . S
H1150 C1158 0.950 . S
H1151 C1160 0.950 . S
H1152 C1162 0.950 . S
H1153 C1164 0.950 . S
H1154 C1166 0.950 . S
H1155 C1167 0.950 . S
C1156 H1148 0.950 . S
C1156 C1157 1.386 . S
C1156 C1158 1.391 . S
C1157 C1156 1.386 . S
C1157 C1161 1.393 . S
C1158 H1150 0.950 . S
C1158 C1156 1.391 . S
C1158 C1159 1.400 . S
C1159 C1158 1.400 . S
C1159 C1160 1.398 . S
C1159 C1165 1.491 . S
C1160 H1151 0.950 . S
C1160 C1159 1.398 . S
C1160 C1161 1.391 . S
C1161 H1149 0.950 . S
C1161 C1157 1.393 . S
C1161 C1160 1.391 . S
C1162 H1152 0.950 . S
C1162 C1163 1.386 . S
C1162 C1164 1.391 . S
C1163 C1162 1.386 . S
C1163 C1167 1.393 . S
C1164 H1153 0.950 . S
C1164 C1162 1.391 . S
C1164 C1165 1.400 . S
C1165 C1159 1.491 . S
C1165 C1164 1.400 . S
C1165 C1166 1.398 . S
C1166 H1154 0.950 . S
C1166 C1165 1.398 . S
C1166 C1167 1.391 . S
C1167 H1155 0.950 . S
C1167 C1163 1.393 . S
C1167 C1166 1.391 . S
H1168 C1176 0.950 . S
H1169 C1181 0.950 . S
H1170 C1178 0.950 . S
H1171 C1180 0.950 . S
H1172 C1182 0.950 . S
H1173 C1184 0.950 . S
H1174 C1186 0.950 . S
H1175 C1187 0.950 . S
C1176 H1168 0.950 . S
C1176 C1177 1.386 . S
C1176 C1178 1.391 . S
C1177 C1176 1.386 . S
C1177 C1181 1.393 . S
C1178 H1170 0.950 . S
C1178 C1176 1.391 . S
C1178 C1179 1.400 . S
C1179 C1178 1.400 . S
C1179 C1180 1.398 . S
C1179 C1185 1.491 . S
C1180 H1171 0.950 . S
C1180 C1179 1.398 . S
C1180 C1181 1.391 . S
C1181 H1169 0.950 . S
C1181 C1177 1.393 . S
C1181 C1180 1.391 . S
C1182 H1172 0.950 . S
C1182 C1183 1.386 . S
C1182 C1184 1.391 . S
C1183 C1182 1.386 . S
C1183 C1187 1.393 . S
C1184 H1173 0.950 . S
C1184 C1182 1.391 . S
C1184 C1185 1.400 . S
C1185 C1179 1.491 . S
C1185 C1184 1.400 . S
C1185 C1186 1.398 . S
C1186 H1174 0.950 . S
C1186 C1185 1.398 . S
C1186 C1187 1.391 . S
C1187 H1175 0.950 . S
C1187 C1183 1.393 . S
C1187 C1186 1.391 . S
H1188 C1196 0.950 . S
H1189 C1201 0.950 . S
H1190 C1198 0.950 . S
H1191 C1200 0.950 . S
H1192 C1202 0.950 . S
H1193 C1204 0.950 . S
H1194 C1206 0.950 . S
H1195 C1207 0.950 . S
C1196 H1188 0.950 . S
C1196 C1197 1.386 . S
C1196 C1198 1.391 . S
C1197 C1196 1.386 . S
C1197 C1201 1.393 . S
C1198 H1190 0.950 . S
C1198 C1196 1.391 . S
C1198 C1199 1.400 . S
C1199 C1198 1.400 . S
C1199 C1200 1.398 . S
C1199 C1205 1.491 . S
C1200 H1191 0.950 . S
C1200 C1199 1.398 . S
C1200 C1201 1.391 . S
C1201 H1189 0.950 . S
C1201 C1197 1.393 . S
C1201 C1200 1.391 . S
C1202 H1192 0.950 . S
C1202 C1203 1.386 . S
C1202 C1204 1.391 . S
C1203 C1202 1.386 . S
C1203 C1207 1.393 . S
C1204 H1193 0.950 . S
C1204 C1202 1.391 . S
C1204 C1205 1.400 . S
C1205 C1199 1.491 . S
C1205 C1204 1.400 . S
C1205 C1206 1.398 . S
C1206 H1194 0.950 . S
C1206 C1205 1.398 . S
C1206 C1207 1.391 . S
C1207 H1195 0.950 . S
C1207 C1203 1.393 . S
C1207 C1206 1.391 . S
H1208 C1216 0.950 . S
H1209 C1221 0.950 . S
H1210 C1218 0.950 . S
H1211 C1220 0.950 . S
H1212 C1222 0.950 . S
H1213 C1224 0.950 . S
H1214 C1226 0.950 . S
H1215 C1227 0.950 . S
C1216 H1208 0.950 . S
C1216 C1217 1.386 . S
C1216 C1218 1.391 . S
C1217 C1216 1.386 . S
C1217 C1221 1.393 . S
C1218 H1210 0.950 . S
C1218 C1216 1.391 . S
C1218 C1219 1.400 . S
C1219 C1218 1.400 . S
C1219 C1220 1.398 . S
C1219 C1225 1.491 . S
C1220 H1211 0.950 . S
C1220 C1219 1.398 . S
C1220 C1221 1.391 . S
C1221 H1209 0.950 . S
C1221 C1217 1.393 . S
C1221 C1220 1.391 . S
C1222 H1212 0.950 . S
C1222 C1223 1.386 . S
C1222 C1224 1.391 . S
C1223 C1222 1.386 . S
C1223 C1227 1.393 . S
C1224 H1213 0.950 . S
C1224 C1222 1.391 . S
C1224 C1225 1.400 . S
C1225 C1219 1.491 . S
C1225 C1224 1.400 . S
C1225 C1226 1.398 . S
C1226 H1214 0.950 . S
C1226 C1225 1.398 . S
C1226 C1227 1.391 . S
C1227 H1215 0.950 . S
C1227 C1223 1.393 . S
C1227 C1226 1.391 . S
H1228 C1236 0.950 . S
H1229 C1241 0.950 . S
H1230 C1238 0.950 . S
H1231 C1240 0.950 . S
H1232 C1242 0.950 . S
H1233 C1244 0.950 . S
H1234 C1246 0.950 . S
H1235 C1247 0.950 . S
C1236 H1228 0.950 . S
C1236 C1237 1.386 . S
C1236 C1238 1.391 . S
C1237 C1236 1.386 . S
C1237 C1241 1.393 . S
C1238 H1230 0.950 . S
C1238 C1236 1.391 . S
C1238 C1239 1.400 . S
C1239 C1238 1.400 . S
C1239 C1240 1.398 . S
C1239 C1245 1.491 . S
C1240 H1231 0.950 . S
C1240 C1239 1.398 . S
C1240 C1241 1.391 . S
C1241 H1229 0.950 . S
C1241 C1237 1.393 . S
C1241 C1240 1.391 . S
C1242 H1232 0.950 . S
C1242 C1243 1.386 . S
C1242 C1244 1.391 . S
C1243 C1242 1.386 . S
C1243 C1247 1.393 . S
C1244 H1233 0.950 . S
C1244 C1242 1.391 . S
C1244 C1245 1.400 . S
C1245 C1239 1.491 . S
C1245 C1244 1.400 . S
C1245 C1246 1.398 . S
C1246 H1234 0.950 . S
C1246 C1245 1.398 . S
C1246 C1247 1.391 . S
C1247 H1235 0.950 . S
C1247 C1243 1.393 . S
C1247 C1246 1.391 . S
H1248 C1256 0.950 . S
H1249 C1261 0.950 . S
H1250 C1258 0.950 . S
H1251 C1260 0.950 . S
H1252 C1262 0.950 . S
H1253 C1264 0.950 . S
H1254 C1266 0.950 . S
H1255 C1267 0.950 . S
C1256 H1248 0.950 . S
C1256 C1257 1.386 . S
C1256 C1258 1.391 . S
C1257 C1256 1.386 . S
C1257 C1261 1.393 . S
C1258 H1250 0.950 . S
C1258 C1256 1.391 . S
C1258 C1259 1.400 . S
C1259 C1258 1.400 . S
C1259 C1260 1.398 . S
C1259 C1265 1.491 . S
C1260 H1251 0.950 . S
C1260 C1259 1.398 . S
C1260 C1261 1.391 . S
C1261 H1249 0.950 . S
C1261 C1257 1.393 . S
C1261 C1260 1.391 . S
C1262 H1252 0.950 . S
C1262 C1263 1.386 . S
C1262 C1264 1.391 . S
C1263 C1262 1.386 . S
C1263 C1267 1.393 . S
C1264 H1253 0.950 . S
C1264 C1262 1.391 . S
C1264 C1265 1.400 . S
C1265 C1259 1.491 . S
C1265 C1264 1.400 . S
C1265 C1266 1.398 . S
C1266 H1254 0.950 . S
C1266 C1265 1.398 . S
C1266 C1267 1.391 . S
C1267 H1255 0.950 . S
C1267 C1263 1.393 . S
C1267 C1266 1.391 . S
H1268 C1276 0.950 . S
H1269 C1281 0.950 . S
H1270 C1278 0.950 . S
H1271 C1280 0.950 . S
H1272 C1282 0.950 . S
H1273 C1284 0.950 . S
H1274 C1286 0.950 . S
H1275 C1287 0.950 . S
C1276 H1268 0.950 . S
C1276 C1277 1.386 . S
C1276 C1278 1.391 . S
C1277 C1276 1.386 . S
C1277 C1281 1.393 . S
C1278 H1270 0.950 . S
C1278 C1276 1.391 . S
C1278 C1279 1.400 . S
C1279 C1278 1.400 . S
C1279 C1280 1.398 . S
C1279 C1285 1.491 . S
C1280 H1271 0.950 . S
C1280 C1279 1.398 . S
C1280 C1281 1.391 . S
C1281 H1269 0.950 . S
C1281 C1277 1.393 . S
C1281 C1280 1.391 . S
C1282 H1272 0.950 . S
C1282 C1283 1.386 . S
C1282 C1284 1.391 . S
C1283 C1282 1.386 . S
C1283 C1287 1.393 . S
C1284 H1273 0.950 . S
C1284 C1282 1.391 . S
C1284 C1285 1.400 . S
C1285 C1279 1.491 . S
C1285 C1284 1.400 . S
C1285 C1286 1.398 . S
C1286 H1274 0.950 . S
C1286 C1285 1.398 . S
C1286 C1287 1.391 . S
C1287 H1275 0.950 . S
C1287 C1283 1.393 . S
C1287 C1286 1.391 . S
H1288 C1296 0.950 . S
H1289 C1301 0.950 . S
H1290 C1298 0.950 . S
H1291 C1300 0.950 . S
H1292 C1302 0.950 . S
H1293 C1304 0.950 . S
H1294 C1306 0.950 . S
H1295 C1307 0.950 . S
C1296 H1288 0.950 . S
C1296 C1297 1.386 . S
C1296 C1298 1.391 . S
C1297 C1296 1.386 . S
C1297 C1301 1.393 . S
C1298 H1290 0.950 . S
C1298 C1296 1.391 . S
C1298 C1299 1.400 . S
C1299 C1298 1.400 . S
C1299 C1300 1.398 . S
C1299 C1305 1.491 . S
C1300 H1291 0.950 . S
C1300 C1299 1.398 . S
C1300 C1301 1.391 . S
C1301 H1289 0.950 . S
C1301 C1297 1.393 . S
C1301 C1300 1.391 . S
C1302 H1292 0.950 . S
C1302 C1303 1.386 . S
C1302 C1304 1.391 . S
C1303 C1302 1.386 . S
C1303 C1307 1.393 . S
C1304 H1293 0.950 . S
C1304 C1302 1.391 . S
C1304 C1305 1.400 . S
C1305 C1299 1.491 . S
C1305 C1304 1.400 . S
C1305 C1306 1.398 . S
C1306 H1294 0.950 . S
C1306 C1305 1.398 . S
C1306 C1307 1.391 . S
C1307 H1295 0.950 . S
C1307 C1303 1.393 . S
C1307 C1306 1.391 . S
H1308 C1316 0.950 . S
H1309 C1321 0.950 . S
H1310 C1318 0.950 . S
H1311 C1320 0.950 . S
H1312 C1322 0.950 . S
H1313 C1324 0.950 . S
H1314 C1326 0.950 . S
H1315 C1327 0.950 . S
C1316 H1308 0.950 . S
C1316 C1317 1.386 . S
C1316 C1318 1.391 . S
C1317 C1316 1.386 . S
C1317 C1321 1.393 . S
C1318 H1310 0.950 . S
C1318 C1316 1.391 . S
C1318 C1319 1.400 . S
C1319 C1318 1.400 . S
C1319 C1320 1.398 . S
C1319 C1325 1.491 . S
C1320 H1311 0.950 . S
C1320 C1319 1.398 . S
C1320 C1321 1.391 . S
C1321 H1309 0.950 . S
C1321 C1317 1.393 . S
C1321 C1320 1.391 . S
C1322 H1312 0.950 . S
C1322 C1323 1.386 . S
C1322 C1324 1.391 . S
C1323 C1322 1.386 . S
C1323 C1327 1.393 . S
C1324 H1313 0.950 . S
C1324 C1322 1.391 . S
C1324 C1325 1.400 . S
C1325 C1319 1.491 . S
C1325 C1324 1.400 . S
C1325 C1326 1.398 . S
C1326 H1314 0.950 . S
C1326 C1325 1.398 . S
C1326 C1327 1.391 . S
C1327 H1315 0.950 . S
C1327 C1323 1.393 . S
C1327 C1326 1.391 . S
H1328 C1336 0.950 . S
H1329 C1341 0.950 . S
H1330 C1338 0.950 . S
H1331 C1340 0.950 . S
H1332 C1342 0.950 . S
H1333 C1344 0.950 . S
H1334 C1346 0.950 . S
H1335 C1347 0.950 . S
C1336 H1328 0.950 . S
C1336 C1337 1.386 . S
C1336 C1338 1.391 . S
C1337 C1336 1.386 . S
C1337 C1341 1.393 . S
C1338 H1330 0.950 . S
C1338 C1336 1.391 . S
C1338 C1339 1.400 . S
C1339 C1338 1.400 . S
C1339 C1340 1.398 . S
C1339 C1345 1.491 . S
C1340 H1331 0.950 . S
C1340 C1339 1.398 . S
C1340 C1341 1.391 . S
C1341 H1329 0.950 . S
C1341 C1337 1.393 . S
C1341 C1340 1.391 . S
C1342 H1332 0.950 . S
C1342 C1343 1.386 . S
C1342 C1344 1.391 . S
C1343 C1342 1.386 . S
C1343 C1347 1.393 . S
C1344 H1333 0.950 . S
C1344 C1342 1.391 . S
C1344 C1345 1.400 . S
C1345 C1339 1.491 . S
C1345 C1344 1.400 . S
C1345 C1346 1.398 . S
C1346 H1334 0.950 . S
C1346 C1345 1.398 . S
C1346 C1347 1.391 . S
C1347 H1335 0.950 . S
C1347 C1343 1.393 . S
C1347 C1346 1.391 . S
H1348 C1356 0.950 . S
H1349 C1361 0.950 . S
H1350 C1358 0.950 . S
H1351 C1360 0.950 . S
H1352 C1362 0.950 . S
H1353 C1364 0.950 . S
H1354 C1366 0.950 . S
H1355 C1367 0.950 . S
C1356 H1348 0.950 . S
C1356 C1357 1.386 . S
C1356 C1358 1.391 . S
C1357 C1356 1.386 . S
C1357 C1361 1.393 . S
C1358 H1350 0.950 . S
C1358 C1356 1.391 . S
C1358 C1359 1.400 . S
C1359 C1358 1.400 . S
C1359 C1360 1.398 . S
C1359 C1365 1.491 . S
C1360 H1351 0.950 . S
C1360 C1359 1.398 . S
C1360 C1361 1.391 . S
C1361 H1349 0.950 . S
C1361 C1357 1.393 . S
C1361 C1360 1.391 . S
C1362 H1352 0.950 . S
C1362 C1363 1.386 . S
C1362 C1364 1.391 . S
C1363 C1362 1.386 . S
C1363 C1367 1.393 . S
C1364 H1353 0.950 . S
C1364 C1362 1.391 . S
C1364 C1365 1.400 . S
C1365 C1359 1.491 . S
C1365 C1364 1.400 . S
C1365 C1366 1.398 . S
C1366 H1354 0.950 . S
C1366 C1365 1.398 . S
C1366 C1367 1.391 . S
C1367 H1355 0.950 . S
C1367 C1363 1.393 . S
C1367 C1366 1.391 . S
H1368 C1376 0.950 . S
H1369 C1381 0.950 . S
H1370 C1378 0.950 . S
H1371 C1380 0.950 . S
H1372 C1382 0.950 . S
H1373 C1384 0.950 . S
H1374 C1386 0.950 . S
H1375 C1387 0.950 . S
C1376 H1368 0.950 . S
C1376 C1377 1.386 . S
C1376 C1378 1.391 . S
C1377 C1376 1.386 . S
C1377 C1381 1.393 . S
C1378 H1370 0.950 . S
C1378 C1376 1.391 . S
C1378 C1379 1.400 . S
C1379 C1378 1.400 . S
C1379 C1380 1.398 . S
C1379 C1385 1.491 . S
C1380 H1371 0.950 . S
C1380 C1379 1.398 . S
C1380 C1381 1.391 . S
C1381 H1369 0.950 . S
C1381 C1377 1.393 . S
C1381 C1380 1.391 . S
C1382 H1372 0.950 . S
C1382 C1383 1.386 . S
C1382 C1384 1.391 . S
C1383 C1382 1.386 . S
C1383 C1387 1.393 . S
C1384 H1373 0.950 . S
C1384 C1382 1.391 . S
C1384 C1385 1.400 . S
C1385 C1379 1.491 . S
C1385 C1384 1.400 . S
C1385 C1386 1.398 . S
C1386 H1374 0.950 . S
C1386 C1385 1.398 . S
C1386 C1387 1.391 . S
C1387 H1375 0.950 . S
C1387 C1383 1.393 . S
C1387 C1386 1.391 . S
H1388 C1396 0.950 . S
H1389 C1401 0.950 . S
H1390 C1398 0.950 . S
H1391 C1400 0.950 . S
H1392 C1402 0.950 . S
H1393 C1404 0.950 . S
H1394 C1406 0.950 . S
H1395 C1407 0.950 . S
C1396 H1388 0.950 . S
C1396 C1397 1.386 . S
C1396 C1398 1.391 . S
C1397 C1396 1.386 . S
C1397 C1401 1.393 . S
C1398 H1390 0.950 . S
C1398 C1396 1.391 . S
C1398 C1399 1.400 . S
C1399 C1398 1.400 . S
C1399 C1400 1.398 . S
C1399 C1405 1.491 . S
C1400 H1391 0.950 . S
C1400 C1399 1.398 . S
C1400 C1401 1.391 . S
C1401 H1389 0.950 . S
C1401 C1397 1.393 . S
C1401 C1400 1.391 . S
C1402 H1392 0.950 . S
C1402 C1403 1.386 . S
C1402 C1404 1.391 . S
C1403 C1402 1.386 . S
C1403 C1407 1.393 . S
C1404 H1393 0.950 . S
C1404 C1402 1.391 . S
C1404 C1405 1.400 . S
C1405 C1399 1.491 . S
C1405 C1404 1.400 . S
C1405 C1406 1.398 . S
C1406 H1394 0.950 . S
C1406 C1405 1.398 . S
C1406 C1407 1.391 . S
C1407 H1395 0.950 . S
C1407 C1403 1.393 . S
C1407 C1406 1.391 . S
H1408 C1416 0.950 . S
H1409 C1421 0.950 . S
H1410 C1418 0.950 . S
H1411 C1420 0.950 . S
H1412 C1422 0.950 . S
H1413 C1424 0.950 . S
H1414 C1426 0.950 . S
H1415 C1427 0.950 . S
C1416 H1408 0.950 . S
C1416 C1417 1.386 . S
C1416 C1418 1.391 . S
C1417 C1416 1.386 . S
C1417 C1421 1.393 . S
C1418 H1410 0.950 . S
C1418 C1416 1.391 . S
C1418 C1419 1.400 . S
C1419 C1418 1.400 . S
C1419 C1420 1.398 . S
C1419 C1425 1.491 . S
C1420 H1411 0.950 . S
C1420 C1419 1.398 . S
C1420 C1421 1.391 . S
C1421 H1409 0.950 . S
C1421 C1417 1.393 . S
C1421 C1420 1.391 . S
C1422 H1412 0.950 . S
C1422 C1423 1.386 . S
C1422 C1424 1.391 . S
C1423 C1422 1.386 . S
C1423 C1427 1.393 . S
C1424 H1413 0.950 . S
C1424 C1422 1.391 . S
C1424 C1425 1.400 . S
C1425 C1419 1.491 . S
C1425 C1424 1.400 . S
C1425 C1426 1.398 . S
C1426 H1414 0.950 . S
C1426 C1425 1.398 . S
C1426 C1427 1.391 . S
C1427 H1415 0.950 . S
C1427 C1423 1.393 . S
C1427 C1426 1.391 . S
H1428 C1436 0.950 . S
H1429 C1441 0.940 1_655 S
H1430 C1438 0.950 . S
H1431 C1440 0.950 . S
H1432 C1442 0.950 . S
H1433 C1444 0.950 . S
H1434 C1446 0.950 . S
H1435 C1447 0.939 1_455 S
C1436 H1428 0.950 . S
C1436 C1437 1.386 . S
C1436 C1438 1.391 . S
C1437 C1436 1.386 . S
C1437 C1441 1.420 . S
C1438 H1430 0.950 . S
C1438 C1436 1.391 . S
C1438 C1439 1.400 . S
C1439 C1438 1.400 . S
C1439 C1440 1.398 1_455 S
C1439 C1445 1.491 1_455 S
C1440 H1431 0.950 . S
C1440 C1439 1.398 1_655 S
C1440 C1441 1.376 1_655 S
C1441 H1429 0.940 1_455 S
C1441 C1437 1.420 . S
C1441 C1440 1.376 1_455 S
C1442 H1432 0.950 . S
C1442 C1443 1.386 . S
C1442 C1444 1.391 . S
C1443 C1442 1.386 . S
C1443 C1447 1.422 . S
C1444 H1433 0.950 . S
C1444 C1442 1.391 . S
C1444 C1445 1.400 . S
C1445 C1439 1.491 1_655 S
C1445 C1444 1.400 . S
C1445 C1446 1.398 1_655 S
C1446 H1434 0.950 . S
C1446 C1445 1.398 1_455 S
C1446 C1447 1.376 1_455 S
C1447 H1435 0.939 1_655 S
C1447 C1443 1.422 . S
C1447 C1446 1.376 1_655 S
H1448 C1456 0.950 . S
H1449 C1461 0.950 . S
H1450 C1458 0.950 . S
H1451 C1460 0.950 . S
H1452 C1462 0.950 . S
H1453 C1464 0.950 . S
H1454 C1466 0.950 . S
H1455 C1467 0.950 . S
C1456 H1448 0.950 . S
C1456 C1457 1.386 . S
C1456 C1458 1.391 . S
C1457 C1456 1.386 . S
C1457 C1461 1.393 . S
C1458 H1450 0.950 . S
C1458 C1456 1.391 . S
C1458 C1459 1.400 . S
C1459 C1458 1.400 . S
C1459 C1460 1.398 . S
C1459 C1465 1.491 . S
C1460 H1451 0.950 . S
C1460 C1459 1.398 . S
C1460 C1461 1.391 . S
C1461 H1449 0.950 . S
C1461 C1457 1.393 . S
C1461 C1460 1.391 . S
C1462 H1452 0.950 . S
C1462 C1463 1.386 . S
C1462 C1464 1.391 . S
C1463 C1462 1.386 . S
C1463 C1467 1.393 . S
C1464 H1453 0.950 . S
C1464 C1462 1.391 . S
C1464 C1465 1.400 . S
C1465 C1459 1.491 . S
C1465 C1464 1.400 . S
C1465 C1466 1.398 . S
C1466 H1454 0.950 . S
C1466 C1465 1.398 . S
C1466 C1467 1.391 . S
C1467 H1455 0.950 . S
C1467 C1463 1.393 . S
C1467 C1466 1.391 . S
H1468 C1476 0.950 . S
H1469 C1481 0.950 . S
H1470 C1478 0.950 . S
H1471 C1480 0.957 . S
H1472 C1482 0.950 . S
H1473 C1484 0.950 . S
H1474 C1486 0.957 . S
H1475 C1487 0.950 . S
C1476 H1468 0.950 . S
C1476 C1477 1.386 . S
C1476 C1478 1.391 . S
C1477 C1476 1.386 . S
C1477 C1481 1.393 . S
C1478 H1470 0.950 . S
C1478 C1476 1.391 . S
C1478 C1479 1.400 . S
C1479 C1478 1.400 . S
C1479 C1480 1.409 1_565 S
C1479 C1485 1.491 1_565 S
C1480 H1471 0.957 . S
C1480 C1479 1.409 1_545 S
C1480 C1481 1.376 1_545 S
C1481 H1469 0.950 . S
C1481 C1477 1.393 . S
C1481 C1480 1.376 1_565 S
C1482 H1472 0.950 . S
C1482 C1483 1.386 . S
C1482 C1484 1.391 . S
C1483 C1482 1.386 . S
C1483 C1487 1.393 . S
C1484 H1473 0.950 . S
C1484 C1482 1.391 . S
C1484 C1485 1.400 . S
C1485 C1479 1.491 1_545 S
C1485 C1484 1.400 . S
C1485 C1486 1.410 1_545 S
C1486 H1474 0.957 . S
C1486 C1485 1.410 1_565 S
C1486 C1487 1.375 1_565 S
C1487 H1475 0.950 . S
C1487 C1483 1.393 . S
C1487 C1486 1.375 1_545 S
H1488 C1496 0.950 . S
H1489 C1501 0.950 . S
H1490 C1498 0.950 . S
H1491 C1500 0.950 . S
H1492 C1502 0.950 . S
H1493 C1504 0.950 . S
H1494 C1506 0.950 . S
H1495 C1507 0.950 . S
C1496 H1488 0.950 . S
C1496 C1497 1.386 . S
C1496 C1498 1.391 1_565 S
C1497 C1496 1.386 . S
C1497 C1501 1.393 . S
C1498 H1490 0.950 . S
C1498 C1496 1.391 1_545 S
C1498 C1499 1.400 1_545 S
C1499 C1498 1.400 1_565 S
C1499 C1500 1.398 . S
C1499 C1505 1.491 1_565 S
C1500 H1491 0.950 . S
C1500 C1499 1.398 . S
C1500 C1501 1.391 . S
C1501 H1489 0.950 . S
C1501 C1497 1.393 . S
C1501 C1500 1.391 . S
C1502 H1492 0.950 . S
C1502 C1503 1.386 . S
C1502 C1504 1.391 1_545 S
C1503 C1502 1.386 . S
C1503 C1507 1.393 . S
C1504 H1493 0.950 . S
C1504 C1502 1.391 1_565 S
C1504 C1505 1.400 1_565 S
C1505 C1499 1.491 1_545 S
C1505 C1504 1.400 1_545 S
C1505 C1506 1.398 . S
C1506 H1494 0.950 . S
C1506 C1505 1.398 . S
C1506 C1507 1.391 . S
C1507 H1495 0.950 . S
C1507 C1503 1.393 . S
C1507 C1506 1.391 . S
H1508 C1516 0.953 1_455 S
H1509 C1521 0.950 . S
H1510 C1518 0.950 . S
H1511 C1520 0.950 . S
H1512 C1522 0.953 1_655 S
H1513 C1524 0.950 . S
H1514 C1526 0.950 . S
H1515 C1527 0.950 . S
C1516 H1508 0.953 1_655 S
C1516 C1517 1.386 . S
C1516 C1518 1.391 1_655 S
C1517 C1516 1.386 . S
C1517 C1521 1.393 . S
C1518 H1510 0.950 . S
C1518 C1516 1.391 1_455 S
C1518 C1519 1.400 1_455 S
C1519 C1518 1.400 1_655 S
C1519 C1520 1.398 . S
C1519 C1525 1.491 1_655 S
C1520 H1511 0.950 . S
C1520 C1519 1.398 . S
C1520 C1521 1.391 . S
C1521 H1509 0.950 . S
C1521 C1517 1.393 . S
C1521 C1520 1.391 . S
C1522 H1512 0.953 1_455 S
C1522 C1523 1.386 . S
C1522 C1524 1.391 1_455 S
C1523 C1522 1.386 . S
C1523 C1527 1.393 . S
C1524 H1513 0.950 . S
C1524 C1522 1.391 1_655 S
C1524 C1525 1.400 1_655 S
C1525 C1519 1.491 1_455 S
C1525 C1524 1.400 1_455 S
C1525 C1526 1.398 . S
C1526 H1514 0.950 . S
C1526 C1525 1.398 . S
C1526 C1527 1.391 . S
C1527 H1515 0.950 . S
C1527 C1523 1.393 . S
C1527 C1526 1.391 . S
H1528 C1536 0.950 . S
H1529 C1541 0.950 . S
H1530 C1538 0.950 . S
H1531 C1540 0.950 . S
H1532 C1542 0.950 . S
H1533 C1544 0.950 . S
H1534 C1546 0.950 . S
H1535 C1547 0.950 . S
C1536 H1528 0.950 . S
C1536 C1537 1.386 . S
C1536 C1538 1.391 . S
C1537 C1536 1.386 . S
C1537 C1541 1.393 . S
C1538 H1530 0.950 . S
C1538 C1536 1.391 . S
C1538 C1539 1.400 . S
C1539 C1538 1.400 . S
C1539 C1540 1.398 . S
C1539 C1545 1.491 . S
C1540 H1531 0.950 . S
C1540 C1539 1.398 . S
C1540 C1541 1.391 . S
C1541 H1529 0.950 . S
C1541 C1537 1.393 . S
C1541 C1540 1.391 . S
C1542 H1532 0.950 . S
C1542 C1543 1.386 . S
C1542 C1544 1.391 . S
C1543 C1542 1.386 . S
C1543 C1547 1.393 . S
C1544 H1533 0.950 . S
C1544 C1542 1.391 . S
C1544 C1545 1.400 . S
C1545 C1539 1.491 . S
C1545 C1544 1.400 . S
C1545 C1546 1.398 . S
C1546 H1534 0.950 . S
C1546 C1545 1.398 . S
C1546 C1547 1.391 . S
C1547 H1535 0.950 . S
C1547 C1543 1.393 . S
C1547 C1546 1.391 . S
H1548 C1556 0.950 . S
H1549 C1561 0.950 . S
H1550 C1558 0.950 . S
H1551 C1560 0.950 . S
H1552 C1562 0.950 . S
H1553 C1564 0.950 . S
H1554 C1566 0.950 . S
H1555 C1567 0.950 . S
C1556 H1548 0.950 . S
C1556 C1557 1.386 . S
C1556 C1558 1.391 . S
C1557 C1556 1.386 . S
C1557 C1561 1.393 . S
C1558 H1550 0.950 . S
C1558 C1556 1.391 . S
C1558 C1559 1.400 . S
C1559 C1558 1.400 . S
C1559 C1560 1.398 . S
C1559 C1565 1.491 . S
C1560 H1551 0.950 . S
C1560 C1559 1.398 . S
C1560 C1561 1.391 . S
C1561 H1549 0.950 . S
C1561 C1557 1.393 . S
C1561 C1560 1.391 . S
C1562 H1552 0.950 . S
C1562 C1563 1.386 . S
C1562 C1564 1.391 . S
C1563 C1562 1.386 . S
C1563 C1567 1.393 . S
C1564 H1553 0.950 . S
C1564 C1562 1.391 . S
C1564 C1565 1.400 . S
C1565 C1559 1.491 . S
C1565 C1564 1.400 . S
C1565 C1566 1.398 . S
C1566 H1554 0.950 . S
C1566 C1565 1.398 . S
C1566 C1567 1.391 . S
C1567 H1555 0.950 . S
C1567 C1563 1.393 . S
C1567 C1566 1.391 . S
H1568 C1576 0.950 . S
H1569 C1581 0.950 . S
H1570 C1578 0.950 . S
H1571 C1580 0.950 . S
H1572 C1582 0.950 . S
H1573 C1584 0.950 . S
H1574 C1586 0.950 . S
H1575 C1587 0.950 . S
C1576 H1568 0.950 . S
C1576 C1577 1.386 . S
C1576 C1578 1.391 . S
C1577 C1576 1.386 . S
C1577 C1581 1.393 . S
C1578 H1570 0.950 . S
C1578 C1576 1.391 . S
C1578 C1579 1.400 . S
C1579 C1578 1.400 . S
C1579 C1580 1.398 . S
C1579 C1585 1.491 . S
C1580 H1571 0.950 . S
C1580 C1579 1.398 . S
C1580 C1581 1.391 . S
C1581 H1569 0.950 . S
C1581 C1577 1.393 . S
C1581 C1580 1.391 . S
C1582 H1572 0.950 . S
C1582 C1583 1.386 . S
C1582 C1584 1.391 . S
C1583 C1582 1.386 . S
C1583 C1587 1.393 . S
C1584 H1573 0.950 . S
C1584 C1582 1.391 . S
C1584 C1585 1.400 . S
C1585 C1579 1.491 . S
C1585 C1584 1.400 . S
C1585 C1586 1.398 . S
C1586 H1574 0.950 . S
C1586 C1585 1.398 . S
C1586 C1587 1.391 . S
C1587 H1575 0.950 . S
C1587 C1583 1.393 . S
C1587 C1586 1.391 . S
H1588 C1596 0.950 . S
H1589 C1601 0.950 . S
H1590 C1598 0.950 . S
H1591 C1600 0.950 . S
H1592 C1602 0.950 . S
H1593 C1604 0.950 . S
H1594 C1606 0.950 . S
H1595 C1607 0.950 . S
C1596 H1588 0.950 . S
C1596 C1597 1.386 . S
C1596 C1598 1.391 . S
C1597 C1596 1.386 . S
C1597 C1601 1.393 . S
C1598 H1590 0.950 . S
C1598 C1596 1.391 . S
C1598 C1599 1.400 . S
C1599 C1598 1.400 . S
C1599 C1600 1.398 . S
C1599 C1605 1.491 . S
C1600 H1591 0.950 . S
C1600 C1599 1.398 . S
C1600 C1601 1.391 . S
C1601 H1589 0.950 . S
C1601 C1597 1.393 . S
C1601 C1600 1.391 . S
C1602 H1592 0.950 . S
C1602 C1603 1.386 . S
C1602 C1604 1.391 . S
C1603 C1602 1.386 . S
C1603 C1607 1.393 . S
C1604 H1593 0.950 . S
C1604 C1602 1.391 . S
C1604 C1605 1.400 . S
C1605 C1599 1.491 . S
C1605 C1604 1.400 . S
C1605 C1606 1.398 . S
C1606 H1594 0.950 . S
C1606 C1605 1.398 . S
C1606 C1607 1.391 . S
C1607 H1595 0.950 . S
C1607 C1603 1.393 . S
C1607 C1606 1.391 . S
H1608 C1616 0.950 . S
H1609 C1621 0.950 . S
H1610 C1618 0.950 . S
H1611 C1620 0.950 . S
H1612 C1622 0.950 . S
H1613 C1624 0.950 . S
H1614 C1626 0.950 . S
H1615 C1627 0.950 . S
C1616 H1608 0.950 . S
C1616 C1617 1.386 . S
C1616 C1618 1.391 . S
C1617 C1616 1.386 . S
C1617 C1621 1.393 . S
C1618 H1610 0.950 . S
C1618 C1616 1.391 . S
C1618 C1619 1.400 . S
C1619 C1618 1.400 . S
C1619 C1620 1.398 . S
C1619 C1625 1.491 . S
C1620 H1611 0.950 . S
C1620 C1619 1.398 . S
C1620 C1621 1.391 . S
C1621 H1609 0.950 . S
C1621 C1617 1.393 . S
C1621 C1620 1.391 . S
C1622 H1612 0.950 . S
C1622 C1623 1.386 . S
C1622 C1624 1.391 . S
C1623 C1622 1.386 . S
C1623 C1627 1.393 . S
C1624 H1613 0.950 . S
C1624 C1622 1.391 . S
C1624 C1625 1.400 . S
C1625 C1619 1.491 . S
C1625 C1624 1.400 . S
C1625 C1626 1.398 . S
C1626 H1614 0.950 . S
C1626 C1625 1.398 . S
C1626 C1627 1.391 . S
C1627 H1615 0.950 . S
C1627 C1623 1.393 . S
C1627 C1626 1.391 . S
H1628 C1636 0.950 . S
H1629 C1641 0.950 . S
H1630 C1638 0.950 . S
H1631 C1640 0.950 . S
H1632 C1642 0.950 . S
H1633 C1644 0.950 . S
H1634 C1646 0.950 . S
H1635 C1647 0.950 . S
C1636 H1628 0.950 . S
C1636 C1637 1.386 . S
C1636 C1638 1.391 . S
C1637 C1636 1.386 . S
C1637 C1641 1.393 . S
C1638 H1630 0.950 . S
C1638 C1636 1.391 . S
C1638 C1639 1.400 . S
C1639 C1638 1.400 . S
C1639 C1640 1.398 . S
C1639 C1645 1.491 . S
C1640 H1631 0.950 . S
C1640 C1639 1.398 . S
C1640 C1641 1.391 . S
C1641 H1629 0.950 . S
C1641 C1637 1.393 . S
C1641 C1640 1.391 . S
C1642 H1632 0.950 . S
C1642 C1643 1.386 . S
C1642 C1644 1.391 . S
C1643 C1642 1.386 . S
C1643 C1647 1.393 . S
C1644 H1633 0.950 . S
C1644 C1642 1.391 . S
C1644 C1645 1.400 . S
C1645 C1639 1.491 . S
C1645 C1644 1.400 . S
C1645 C1646 1.398 . S
C1646 H1634 0.950 . S
C1646 C1645 1.398 . S
C1646 C1647 1.391 . S
C1647 H1635 0.950 . S
C1647 C1643 1.393 . S
C1647 C1646 1.391 . S
H1648 C1656 0.950 . S
H1649 C1661 0.950 . S
H1650 C1658 0.950 . S
H1651 C1660 0.950 . S
H1652 C1662 0.950 . S
H1653 C1664 0.950 . S
H1654 C1666 0.950 . S
H1655 C1667 0.950 . S
C1656 H1648 0.950 . S
C1656 C1657 1.386 . S
C1656 C1658 1.391 . S
C1657 C1656 1.386 . S
C1657 C1661 1.393 . S
C1658 H1650 0.950 . S
C1658 C1656 1.391 . S
C1658 C1659 1.400 . S
C1659 C1658 1.400 . S
C1659 C1660 1.398 . S
C1659 C1665 1.491 . S
C1660 H1651 0.950 . S
C1660 C1659 1.398 . S
C1660 C1661 1.391 . S
C1661 H1649 0.950 . S
C1661 C1657 1.393 . S
C1661 C1660 1.391 . S
C1662 H1652 0.950 . S
C1662 C1663 1.386 . S
C1662 C1664 1.391 . S
C1663 C1662 1.386 . S
C1663 C1667 1.393 . S
C1664 H1653 0.950 . S
C1664 C1662 1.391 . S
C1664 C1665 1.400 . S
C1665 C1659 1.491 . S
C1665 C1664 1.400 . S
C1665 C1666 1.398 . S
C1666 H1654 0.950 . S
C1666 C1665 1.398 . S
C1666 C1667 1.391 . S
C1667 H1655 0.950 . S
C1667 C1663 1.393 . S
C1667 C1666 1.391 . S
H1668 C1676 0.950 . S
H1669 C1681 0.950 . S
H1670 C1678 0.950 . S
H1671 C1680 0.950 . S
H1672 C1682 0.950 . S
H1673 C1684 0.950 . S
H1674 C1686 0.950 . S
H1675 C1687 0.950 . S
C1676 H1668 0.950 . S
C1676 C1677 1.386 . S
C1676 C1678 1.391 . S
C1677 C1676 1.386 . S
C1677 C1681 1.393 . S
C1678 H1670 0.950 . S
C1678 C1676 1.391 . S
C1678 C1679 1.400 . S
C1679 C1678 1.400 . S
C1679 C1680 1.398 . S
C1679 C1685 1.491 . S
C1680 H1671 0.950 . S
C1680 C1679 1.398 . S
C1680 C1681 1.391 . S
C1681 H1669 0.950 . S
C1681 C1677 1.393 . S
C1681 C1680 1.391 . S
C1682 H1672 0.950 . S
C1682 C1683 1.386 . S
C1682 C1684 1.391 . S
C1683 C1682 1.386 . S
C1683 C1687 1.393 . S
C1684 H1673 0.950 . S
C1684 C1682 1.391 . S
C1684 C1685 1.400 . S
C1685 C1679 1.491 . S
C1685 C1684 1.400 . S
C1685 C1686 1.398 . S
C1686 H1674 0.950 . S
C1686 C1685 1.398 . S
C1686 C1687 1.391 . S
C1687 H1675 0.950 . S
C1687 C1683 1.393 . S
C1687 C1686 1.391 . S
H1688 C1696 0.950 . S
H1689 C1701 0.950 . S
H1690 C1698 0.950 . S
H1691 C1700 0.950 . S
H1692 C1702 0.950 . S
H1693 C1704 0.950 . S
H1694 C1706 0.950 . S
H1695 C1707 0.950 . S
C1696 H1688 0.950 . S
C1696 C1697 1.386 . S
C1696 C1698 1.391 . S
C1697 C1696 1.386 . S
C1697 C1701 1.393 . S
C1698 H1690 0.950 . S
C1698 C1696 1.391 . S
C1698 C1699 1.400 . S
C1699 C1698 1.400 . S
C1699 C1700 1.398 . S
C1699 C1705 1.491 . S
C1700 H1691 0.950 . S
C1700 C1699 1.398 . S
C1700 C1701 1.391 . S
C1701 H1689 0.950 . S
C1701 C1697 1.393 . S
C1701 C1700 1.391 . S
C1702 H1692 0.950 . S
C1702 C1703 1.386 . S
C1702 C1704 1.391 . S
C1703 C1702 1.386 . S
C1703 C1707 1.393 . S
C1704 H1693 0.950 . S
C1704 C1702 1.391 . S
C1704 C1705 1.400 . S
C1705 C1699 1.491 . S
C1705 C1704 1.400 . S
C1705 C1706 1.398 . S
C1706 H1694 0.950 . S
C1706 C1705 1.398 . S
C1706 C1707 1.391 . S
C1707 H1695 0.950 . S
C1707 C1703 1.393 . S
C1707 C1706 1.391 . S
H1708 C1716 0.950 . S
H1709 C1721 0.950 . S
H1710 C1718 0.950 . S
H1711 C1720 0.950 . S
H1712 C1722 0.950 . S
H1713 C1724 0.950 . S
H1714 C1726 0.950 . S
H1715 C1727 0.950 . S
C1716 H1708 0.950 . S
C1716 C1717 1.386 . S
C1716 C1718 1.391 . S
C1717 C1716 1.386 . S
C1717 C1721 1.393 . S
C1718 H1710 0.950 . S
C1718 C1716 1.391 . S
C1718 C1719 1.400 . S
C1719 C1718 1.400 . S
C1719 C1720 1.398 . S
C1719 C1725 1.491 . S
C1720 H1711 0.950 . S
C1720 C1719 1.398 . S
C1720 C1721 1.391 . S
C1721 H1709 0.950 . S
C1721 C1717 1.393 . S
C1721 C1720 1.391 . S
C1722 H1712 0.950 . S
C1722 C1723 1.386 . S
C1722 C1724 1.391 . S
C1723 C1722 1.386 . S
C1723 C1727 1.393 . S
C1724 H1713 0.950 . S
C1724 C1722 1.391 . S
C1724 C1725 1.400 . S
C1725 C1719 1.491 . S
C1725 C1724 1.400 . S
C1725 C1726 1.398 . S
C1726 H1714 0.950 . S
C1726 C1725 1.398 . S
C1726 C1727 1.391 . S
C1727 H1715 0.950 . S
C1727 C1723 1.393 . S
C1727 C1726 1.391 . S
H1728 C1736 0.950 . S
H1729 C1741 0.950 . S
H1730 C1738 0.950 . S
H1731 C1740 0.950 . S
H1732 C1742 0.950 . S
H1733 C1744 0.950 . S
H1734 C1746 0.950 . S
H1735 C1747 0.950 . S
C1736 H1728 0.950 . S
C1736 C1737 1.386 . S
C1736 C1738 1.391 . S
C1737 C1736 1.386 . S
C1737 C1741 1.393 . S
C1738 H1730 0.950 . S
C1738 C1736 1.391 . S
C1738 C1739 1.400 . S
C1739 C1738 1.400 . S
C1739 C1740 1.398 . S
C1739 C1745 1.491 . S
C1740 H1731 0.950 . S
C1740 C1739 1.398 . S
C1740 C1741 1.391 . S
C1741 H1729 0.950 . S
C1741 C1737 1.393 . S
C1741 C1740 1.391 . S
C1742 H1732 0.950 . S
C1742 C1743 1.386 . S
C1742 C1744 1.391 . S
C1743 C1742 1.386 . S
C1743 C1747 1.393 . S
C1744 H1733 0.950 . S
C1744 C1742 1.391 . S
C1744 C1745 1.400 . S
C1745 C1739 1.491 . S
C1745 C1744 1.400 . S
C1745 C1746 1.398 . S
C1746 H1734 0.950 . S
C1746 C1745 1.398 . S
C1746 C1747 1.391 . S
C1747 H1735 0.950 . S
C1747 C1743 1.393 . S
C1747 C1746 1.391 . S
H1748 C1756 0.950 . S
H1749 C1761 0.950 . S
H1750 C1758 0.950 . S
H1751 C1760 0.950 . S
H1752 C1762 0.950 . S
H1753 C1764 0.950 . S
H1754 C1766 0.950 . S
H1755 C1767 0.950 . S
C1756 H1748 0.950 . S
C1756 C1757 1.386 . S
C1756 C1758 1.391 . S
C1757 C1756 1.386 . S
C1757 C1761 1.393 . S
C1758 H1750 0.950 . S
C1758 C1756 1.391 . S
C1758 C1759 1.400 . S
C1759 C1758 1.400 . S
C1759 C1760 1.398 . S
C1759 C1765 1.491 . S
C1760 H1751 0.950 . S
C1760 C1759 1.398 . S
C1760 C1761 1.391 . S
C1761 H1749 0.950 . S
C1761 C1757 1.393 . S
C1761 C1760 1.391 . S
C1762 H1752 0.950 . S
C1762 C1763 1.386 . S
C1762 C1764 1.391 . S
C1763 C1762 1.386 . S
C1763 C1767 1.393 . S
C1764 H1753 0.950 . S
C1764 C1762 1.391 . S
C1764 C1765 1.400 . S
C1765 C1759 1.491 . S
C1765 C1764 1.400 . S
C1765 C1766 1.398 . S
C1766 H1754 0.950 . S
C1766 C1765 1.398 . S
C1766 C1767 1.391 . S
C1767 H1755 0.950 . S
C1767 C1763 1.393 . S
C1767 C1766 1.391 . S
H1768 C1776 0.950 . S
H1769 C1781 0.950 . S
H1770 C1778 0.950 . S
H1771 C1780 0.950 . S
H1772 C1782 0.950 . S
H1773 C1784 0.950 . S
H1774 C1786 0.950 . S
H1775 C1787 0.950 . S
C1776 H1768 0.950 . S
C1776 C1777 1.386 . S
C1776 C1778 1.391 . S
C1777 C1776 1.386 . S
C1777 C1781 1.393 . S
C1778 H1770 0.950 . S
C1778 C1776 1.391 . S
C1778 C1779 1.400 . S
C1779 C1778 1.400 . S
C1779 C1780 1.398 . S
C1779 C1785 1.491 . S
C1780 H1771 0.950 . S
C1780 C1779 1.398 . S
C1780 C1781 1.391 . S
C1781 H1769 0.950 . S
C1781 C1777 1.393 . S
C1781 C1780 1.391 . S
C1782 H1772 0.950 . S
C1782 C1783 1.386 . S
C1782 C1784 1.391 . S
C1783 C1782 1.386 . S
C1783 C1787 1.393 . S
C1784 H1773 0.950 . S
C1784 C1782 1.391 . S
C1784 C1785 1.400 . S
C1785 C1779 1.491 . S
C1785 C1784 1.400 . S
C1785 C1786 1.398 . S
C1786 H1774 0.950 . S
C1786 C1785 1.398 . S
C1786 C1787 1.391 . S
C1787 H1775 0.950 . S
C1787 C1783 1.393 . S
C1787 C1786 1.391 . S
H1788 C1796 0.950 1_655 S
H1789 C1801 0.950 . S
H1790 C1798 0.950 . S
H1791 C1800 0.950 . S
H1792 C1802 0.950 1_455 S
H1793 C1804 0.950 . S
H1794 C1806 0.950 . S
H1795 C1807 0.950 . S
C1796 H1788 0.950 1_455 S
C1796 C1797 1.386 . S
C1796 C1798 1.391 1_455 S
C1797 C1796 1.386 . S
C1797 C1801 1.393 . S
C1798 H1790 0.950 . S
C1798 C1796 1.391 1_655 S
C1798 C1799 1.400 1_655 S
C1799 C1798 1.400 1_455 S
C1799 C1800 1.398 . S
C1799 C1805 1.491 1_456 S
C1800 H1791 0.950 . S
C1800 C1799 1.398 . S
C1800 C1801 1.391 . S
C1801 H1789 0.950 . S
C1801 C1797 1.393 . S
C1801 C1800 1.391 . S
C1802 H1792 0.950 1_655 S
C1802 C1803 1.386 . S
C1802 C1804 1.391 1_655 S
C1803 C1802 1.386 . S
C1803 C1807 1.393 . S
C1804 H1793 0.950 . S
C1804 C1802 1.391 1_455 S
C1804 C1805 1.400 1_455 S
C1805 C1799 1.491 1_654 S
C1805 C1804 1.400 1_655 S
C1805 C1806 1.398 . S
C1806 H1794 0.950 . S
C1806 C1805 1.398 . S
C1806 C1807 1.391 . S
C1807 H1795 0.950 . S
C1807 C1803 1.393 . S
C1807 C1806 1.391 . S
H1808 C1816 0.950 . S
H1809 C1821 0.950 . S
H1810 C1818 0.950 . S
H1811 C1820 0.950 . S
H1812 C1822 0.950 . S
H1813 C1824 0.950 . S
H1814 C1826 0.950 . S
H1815 C1827 0.950 . S
C1816 H1808 0.950 . S
C1816 C1817 1.386 . S
C1816 C1818 1.391 . S
C1817 C1816 1.386 . S
C1817 C1821 1.393 . S
C1818 H1810 0.950 . S
C1818 C1816 1.391 . S
C1818 C1819 1.400 . S
C1819 C1818 1.400 . S
C1819 C1820 1.398 . S
C1819 C1825 1.491 1_554 S
C1820 H1811 0.950 . S
C1820 C1819 1.398 . S
C1820 C1821 1.391 . S
C1821 H1809 0.950 . S
C1821 C1817 1.393 . S
C1821 C1820 1.391 . S
C1822 H1812 0.950 . S
C1822 C1823 1.386 . S
C1822 C1824 1.391 . S
C1823 C1822 1.386 . S
C1823 C1827 1.393 . S
C1824 H1813 0.950 . S
C1824 C1822 1.391 . S
C1824 C1825 1.400 . S
C1825 C1819 1.491 1_556 S
C1825 C1824 1.400 . S
C1825 C1826 1.398 . S
C1826 H1814 0.950 . S
C1826 C1825 1.398 . S
C1826 C1827 1.391 . S
C1827 H1815 0.950 . S
C1827 C1823 1.393 . S
C1827 C1826 1.391 . S
H1828 C1836 0.950 . S
H1829 C1841 0.950 . S
H1830 C1838 0.950 . S
H1831 C1840 0.949 1_565 S
H1832 C1842 0.950 . S
H1833 C1844 0.950 . S
H1834 C1846 0.948 1_545 S
H1835 C1847 0.950 . S
C1836 H1828 0.950 . S
C1836 C1837 1.386 . S
C1836 C1838 1.391 . S
C1837 C1836 1.386 . S
C1837 C1841 1.393 . S
C1838 H1830 0.950 . S
C1838 C1836 1.391 . S
C1838 C1839 1.400 . S
C1839 C1838 1.400 . S
C1839 C1840 1.395 . S
C1839 C1845 1.491 1_544 S
C1840 H1831 0.949 1_545 S
C1840 C1839 1.395 . S
C1840 C1841 1.395 . S
C1841 H1829 0.950 . S
C1841 C1837 1.393 . S
C1841 C1840 1.395 . S
C1842 H1832 0.950 . S
C1842 C1843 1.386 . S
C1842 C1844 1.391 . S
C1843 C1842 1.386 . S
C1843 C1847 1.393 . S
C1844 H1833 0.950 . S
C1844 C1842 1.391 . S
C1844 C1845 1.400 . S
C1845 C1839 1.491 1_566 S
C1845 C1844 1.400 . S
C1845 C1846 1.395 . S
C1846 H1834 0.948 1_565 S
C1846 C1845 1.395 . S
C1846 C1847 1.396 . S
C1847 H1835 0.950 . S
C1847 C1843 1.393 . S
C1847 C1846 1.396 . S
H1848 C1856 0.950 . S
H1849 C1861 0.950 . S
H1850 C1858 0.950 . S
H1851 C1860 0.950 . S
H1852 C1862 0.950 . S
H1853 C1864 0.950 . S
H1854 C1866 0.950 . S
H1855 C1867 0.950 . S
C1856 H1848 0.950 . S
C1856 C1857 1.386 . S
C1856 C1858 1.391 . S
C1857 C1856 1.386 . S
C1857 C1861 1.393 . S
C1858 H1850 0.950 . S
C1858 C1856 1.391 . S
C1858 C1859 1.400 . S
C1859 C1858 1.400 . S
C1859 C1860 1.398 1_565 S
C1859 C1865 1.491 1_566 S
C1860 H1851 0.950 . S
C1860 C1859 1.398 1_545 S
C1860 C1861 1.391 1_545 S
C1861 H1849 0.950 . S
C1861 C1857 1.393 . S
C1861 C1860 1.391 1_565 S
C1862 H1852 0.950 . S
C1862 C1863 1.386 . S
C1862 C1864 1.391 . S
C1863 C1862 1.386 . S
C1863 C1867 1.393 . S
C1864 H1853 0.950 . S
C1864 C1862 1.391 . S
C1864 C1865 1.400 . S
C1865 C1859 1.491 1_544 S
C1865 C1864 1.400 . S
C1865 C1866 1.398 1_545 S
C1866 H1854 0.950 . S
C1866 C1865 1.398 1_565 S
C1866 C1867 1.391 1_565 S
C1867 H1855 0.950 . S
C1867 C1863 1.393 . S
C1867 C1866 1.391 1_545 S
H1868 C1876 0.950 1_655 S
H1869 C1881 0.950 . S
H1870 C1878 0.950 . S
H1871 C1880 0.950 . S
H1872 C1882 0.950 1_455 S
H1873 C1884 0.950 . S
H1874 C1886 0.950 . S
H1875 C1887 0.950 . S
C1876 H1868 0.950 1_455 S
C1876 C1877 1.386 . S
C1876 C1878 1.391 1_455 S
C1877 C1876 1.386 . S
C1877 C1881 1.393 . S
C1878 H1870 0.950 . S
C1878 C1876 1.391 1_655 S
C1878 C1879 1.400 1_655 S
C1879 C1878 1.400 1_455 S
C1879 C1880 1.398 . S
C1879 C1885 1.491 1_456 S
C1880 H1871 0.950 . S
C1880 C1879 1.398 . S
C1880 C1881 1.391 . S
C1881 H1869 0.950 . S
C1881 C1877 1.393 . S
C1881 C1880 1.391 . S
C1882 H1872 0.950 1_655 S
C1882 C1883 1.386 . S
C1882 C1884 1.391 1_655 S
C1883 C1882 1.386 . S
C1883 C1887 1.393 . S
C1884 H1873 0.950 . S
C1884 C1882 1.391 1_455 S
C1884 C1885 1.400 1_455 S
C1885 C1879 1.491 1_654 S
C1885 C1884 1.400 1_655 S
C1885 C1886 1.398 . S
C1886 H1874 0.950 . S
C1886 C1885 1.398 . S
C1886 C1887 1.391 . S
C1887 H1875 0.950 . S
C1887 C1883 1.393 . S
C1887 C1886 1.391 . S
H1888 C1896 0.950 . S
H1889 C1901 0.950 . S
H1890 C1898 0.950 . S
H1891 C1900 0.950 . S
H1892 C1902 0.950 . S
H1893 C1904 0.950 . S
H1894 C1906 0.950 . S
H1895 C1907 0.950 . S
C1896 H1888 0.950 . S
C1896 C1897 1.386 . S
C1896 C1898 1.391 . S
C1897 C1896 1.386 . S
C1897 C1901 1.393 . S
C1898 H1890 0.950 . S
C1898 C1896 1.391 . S
C1898 C1899 1.400 . S
C1899 C1898 1.400 . S
C1899 C1900 1.398 . S
C1899 C1905 1.491 1_554 S
C1900 H1891 0.950 . S
C1900 C1899 1.398 . S
C1900 C1901 1.391 . S
C1901 H1889 0.950 . S
C1901 C1897 1.393 . S
C1901 C1900 1.391 . S
C1902 H1892 0.950 . S
C1902 C1903 1.386 . S
C1902 C1904 1.391 . S
C1903 C1902 1.386 . S
C1903 C1907 1.393 . S
C1904 H1893 0.950 . S
C1904 C1902 1.391 . S
C1904 C1905 1.400 . S
C1905 C1899 1.491 1_556 S
C1905 C1904 1.400 . S
C1905 C1906 1.398 . S
C1906 H1894 0.950 . S
C1906 C1905 1.398 . S
C1906 C1907 1.391 . S
C1907 H1895 0.950 . S
C1907 C1903 1.393 . S
C1907 C1906 1.391 . S
C477 C10 1.448 . S
C483 C147 1.445 . S
C497 C23 1.443 . S
C503 C121 1.451 . S
C517 C140 1.448 . S
C523 C30 1.446 . S
C537 C43 1.445 . S
C543 C101 1.449 . S
C557 C108 1.448 . S
C563 C56 1.446 . S
C577 C75 1.445 . S
C583 C82 1.449 . S
C597 C303 1.450 . S
C603 C160 1.444 . S
C617 C179 1.451 . S
C623 C283 1.442 . S
C637 C192 1.451 . S
C643 C296 1.443 . S
C657 C251 1.449 . S
C663 C199 1.445 . S
C677 C218 1.448 . S
C683 C264 1.447 . S
C697 C244 1.452 . S
C703 C231 1.442 . S
C717 C316 1.449 . S
C723 C459 1.444 . S
C737 C439 1.452 . S
C743 C335 1.442 . S
C757 C446 1.449 . S
C763 C342 1.445 . S
C777 C413 1.443 . S
C783 C355 1.451 . S
C797 C426 1.451 . S
C803 C368 1.443 . S
C817 C400 1.442 . S
C823 C381 1.451 . S
C837 C3 1.383 . S
C843 C57 1.383 . S
C857 C68 1.377 . S
C863 C16 1.371 . S
C877 C31 1.380 . S
C883 C44 1.384 . S
C897 C83 1.384 . S
C903 C133 1.382 . S
C917 C94 1.383 . S
C923 C148 1.382 . S
C937 C109 1.374 . S
C943 C122 1.381 . S
C957 C211 1.379 . S
C963 C161 1.373 . S
C977 C224 1.370 . S
C983 C172 1.374 . S
C997 C185 1.384 . S
C1003 C200 1.381 . S
C1017 C289 1.371 . S
C1023 C237 1.375 . S
C1037 C304 1.372 . S
C1043 C252 1.379 . S
C1057 C265 1.376 . S
C1063 C276 1.371 . S
C1077 C369 1.372 . S
C1083 C317 1.378 . S
C1097 C328 1.370 . S
C1103 C382 1.375 . S
C1117 C343 1.371 . S
C1123 C356 1.376 . S
C1137 C447 1.384 . S
C1143 C393 1.383 . S
C1157 C406 1.372 . S
C1163 C460 1.379 . S
C1177 C432 1.371 . S
C1183 C419 1.375 . S
C1197 C380 1.308 . S
C1203 C5 1.304 . S
C1217 C18 1.307 . S
C1223 C354 1.300 . S
C1237 C29 1.300 . S
C1243 C367 1.307 . S
C1257 C42 1.303 . S
C1263 C174 1.299 . S
C1277 C187 1.308 . S
C1283 C55 1.302 . S
C1297 C159 1.300 . S
C1303 C70 1.303 . S
C1317 C81 1.308 . S
C1323 C302 1.302 . S
C1337 C96 1.307 . S
C1343 C278 1.307 . S
C1357 C107 1.304 . S
C1363 C291 1.300 . S
C1377 C408 1.308 . S
C1383 C120 1.303 . S
C1397 C421 1.306 . S
C1403 C135 1.308 . S
C1417 C146 1.308 . S
C1423 C395 1.302 . S
C1437 C330 1.306 . S
C1443 C198 1.300 . S
C1457 C213 1.308 . S
C1463 C341 1.305 . S
C1477 C315 1.308 . S
C1483 C226 1.306 . S
C1497 C458 1.303 . S
C1503 C239 1.300 . S
C1517 C250 1.303 . S
C1523 C434 1.300 . S
C1537 C263 1.304 . S
C1543 C445 1.300 . S
C1557 C4 1.533 . S
C1563 C387 1.528 . S
C1577 C361 1.529 . S
C1583 C17 1.531 . S
C1597 C36 1.533 . S
C1603 C374 1.531 . S
C1617 C173 1.529 . S
C1623 C49 1.534 . S
C1637 C62 1.533 . S
C1643 C186 1.528 . S
C1657 C69 1.528 . S
C1663 C166 1.533 . S
C1677 C309 1.534 . S
C1683 C88 1.528 . S
C1697 C95 1.532 . S
C1703 C277 1.528 . S
C1717 C114 1.528 . S
C1723 C290 1.531 . S
C1737 C127 1.534 . S
C1743 C407 1.529 . S
C1757 C420 1.533 . S
C1763 C134 1.528 . S
C1777 C153 1.528 . S
C1783 C394 1.531 . S
C1797 C329 1.533 . S
C1803 C205 1.528 . S
C1817 C212 1.529 . S
C1823 C348 1.530 . S
C1837 C225 1.529 . S
C1843 C322 1.531 . S
C1857 C465 1.531 . S
C1863 C238 1.529 . S
C1877 C433 1.528 . S
C1883 C257 1.533 . S
C1897 C270 1.528 . S
C1903 C452 1.533 . S
