# Generated by pormake.
# Topology wns, (7)-cn, num edge types: 1
# Building blocks:
#     Node 0, Type 0, BuildingBlock: NUHQUE_clean_sbu_2, # of connection points: 7
#     Node 1, Type 0, BuildingBlock: NUHQUE_clean_sbu_2, # of connection points: 7
#     Node 2, Type 0, BuildingBlock: NUHQUE_clean_sbu_2, # of connection points: 7
#     Node 3, Type 0, BuildingBlock: NUHQUE_clean_sbu_2, # of connection points: 7
#     Node 4, Type 0, BuildingBlock: NUHQUE_clean_sbu_2, # of connection points: 7
#     Node 5, Type 0, BuildingBlock: NUHQUE_clean_sbu_2, # of connection points: 7
#     Node 6, Type 0, BuildingBlock: NUHQUE_clean_sbu_2, # of connection points: 7
#     Node 7, Type 0, BuildingBlock: NUHQUE_clean_sbu_2, # of connection points: 7
#     Node 8, Type 0, BuildingBlock: NUHQUE_clean_sbu_2, # of connection points: 7
#     Node 9, Type 0, BuildingBlock: NUHQUE_clean_sbu_2, # of connection points: 7
#     Node 10, Type 0, BuildingBlock: NUHQUE_clean_sbu_2, # of connection points: 7
#     Node 11, Type 0, BuildingBlock: NUHQUE_clean_sbu_2, # of connection points: 7
#     Edge 12, Type (0, 0), BuildingBlock: CIFDUS_clean_linker_0, # of connection points: 2
#     Edge 13, Type (0, 0), BuildingBlock: CIFDUS_clean_linker_0, # of connection points: 2
#     Edge 14, Type (0, 0), BuildingBlock: CIFDUS_clean_linker_0, # of connection points: 2
#     Edge 15, Type (0, 0), BuildingBlock: CIFDUS_clean_linker_0, # of connection points: 2
#     Edge 16, Type (0, 0), BuildingBlock: CIFDUS_clean_linker_0, # of connection points: 2
#     Edge 17, Type (0, 0), BuildingBlock: CIFDUS_clean_linker_0, # of connection points: 2
#     Edge 18, Type (0, 0), BuildingBlock: CIFDUS_clean_linker_0, # of connection points: 2
#     Edge 19, Type (0, 0), BuildingBlock: CIFDUS_clean_linker_0, # of connection points: 2
#     Edge 20, Type (0, 0), BuildingBlock: CIFDUS_clean_linker_0, # of connection points: 2
#     Edge 21, Type (0, 0), BuildingBlock: CIFDUS_clean_linker_0, # of connection points: 2
#     Edge 22, Type (0, 0), BuildingBlock: CIFDUS_clean_linker_0, # of connection points: 2
#     Edge 23, Type (0, 0), BuildingBlock: CIFDUS_clean_linker_0, # of connection points: 2
#     Edge 24, Type (0, 0), BuildingBlock: CIFDUS_clean_linker_0, # of connection points: 2
#     Edge 25, Type (0, 0), BuildingBlock: CIFDUS_clean_linker_0, # of connection points: 2
#     Edge 26, Type (0, 0), BuildingBlock: CIFDUS_clean_linker_0, # of connection points: 2
#     Edge 27, Type (0, 0), BuildingBlock: CIFDUS_clean_linker_0, # of connection points: 2
#     Edge 28, Type (0, 0), BuildingBlock: CIFDUS_clean_linker_0, # of connection points: 2
#     Edge 29, Type (0, 0), BuildingBlock: CIFDUS_clean_linker_0, # of connection points: 2
#     Edge 30, Type (0, 0), BuildingBlock: CIFDUS_clean_linker_0, # of connection points: 2
#     Edge 31, Type (0, 0), BuildingBlock: CIFDUS_clean_linker_0, # of connection points: 2
#     Edge 32, Type (0, 0), BuildingBlock: CIFDUS_clean_linker_0, # of connection points: 2
#     Edge 33, Type (0, 0), BuildingBlock: CIFDUS_clean_linker_0, # of connection points: 2
#     Edge 34, Type (0, 0), BuildingBlock: CIFDUS_clean_linker_0, # of connection points: 2
#     Edge 35, Type (0, 0), BuildingBlock: CIFDUS_clean_linker_0, # of connection points: 2
#     Edge 36, Type (0, 0), BuildingBlock: CIFDUS_clean_linker_0, # of connection points: 2
#     Edge 37, Type (0, 0), BuildingBlock: CIFDUS_clean_linker_0, # of connection points: 2
#     Edge 38, Type (0, 0), BuildingBlock: CIFDUS_clean_linker_0, # of connection points: 2
#     Edge 39, Type (0, 0), BuildingBlock: CIFDUS_clean_linker_0, # of connection points: 2
#     Edge 40, Type (0, 0), BuildingBlock: CIFDUS_clean_linker_0, # of connection points: 2
#     Edge 41, Type (0, 0), BuildingBlock: CIFDUS_clean_linker_0, # of connection points: 2
#     Edge 42, Type (0, 0), BuildingBlock: CIFDUS_clean_linker_0, # of connection points: 2
#     Edge 43, Type (0, 0), BuildingBlock: CIFDUS_clean_linker_0, # of connection points: 2
#     Edge 44, Type (0, 0), BuildingBlock: CIFDUS_clean_linker_0, # of connection points: 2
#     Edge 45, Type (0, 0), BuildingBlock: CIFDUS_clean_linker_0, # of connection points: 2
#     Edge 46, Type (0, 0), BuildingBlock: CIFDUS_clean_linker_0, # of connection points: 2
#     Edge 47, Type (0, 0), BuildingBlock: CIFDUS_clean_linker_0, # of connection points: 2
#     Edge 48, Type (0, 0), BuildingBlock: CIFDUS_clean_linker_0, # of connection points: 2
#     Edge 49, Type (0, 0), BuildingBlock: CIFDUS_clean_linker_0, # of connection points: 2
#     Edge 50, Type (0, 0), BuildingBlock: CIFDUS_clean_linker_0, # of connection points: 2
#     Edge 51, Type (0, 0), BuildingBlock: CIFDUS_clean_linker_0, # of connection points: 2
#     Edge 52, Type (0, 0), BuildingBlock: CIFDUS_clean_linker_0, # of connection points: 2
#     Edge 53, Type (0, 0), BuildingBlock: CIFDUS_clean_linker_0, # of connection points: 2
# Relax obj value: 0.188
# Max RMSD: 0.261
# Mean RMSD: 0.261
data_MOF--net-wns--node1-NUHQUE_clean_sbu_2--edge1-CIFDUS_clean_linker_0
_symmetry_space_group_name_H-M    P1
_symmetry_Int_Tables_number       1
_symmetry_cell_setting            triclinic
loop_
_symmetry_equiv_pos_as_xyz
'x, y, z'
_cell_length_a     43.393414
_cell_length_b     43.409649
_cell_length_c     32.552573
_cell_angle_alpha  89.896948
_cell_angle_beta   90.051406
_cell_angle_gamma 119.88471
loop_
_atom_site_label
_atom_site_type_symbol
_atom_site_fract_x
_atom_site_fract_y
_atom_site_fract_z
_atom_type_partial_charge
O0 O 0.47729 0.20829 0.95547 0.0
Tb1 Tb 0.48626 0.22016 0.02066 0.0
Eu2 Eu 0.41468 0.22895 0.081 0.0
C3 C 0.44684 0.19943 0.9375 0.0
O4 O 0.41999 0.19582 0.95968 0.0
C5 C 0.41256 0.15826 0.04503 0.0
O6 O 0.41743 0.21785 0.14824 0.0
C7 C 0.36759 0.24831 0.06884 0.0
C8 C 0.44656 0.22009 0.16348 0.0
O9 O 0.47294 0.22676 0.13849 0.0
C10 C 0.49116 0.28808 0.05147 0.0
C11 C 0.35707 0.27417 0.08233 0.0
C12 C 0.34032 0.28578 0.05426 0.0
C13 C 0.32656 0.3072 0.06764 0.0
C14 C 0.33 0.31739 0.10884 0.0
C15 C 0.34639 0.30589 0.13734 0.0
C16 C 0.36035 0.28461 0.12374 0.0
O17 O 0.44686 0.17154 0.05027 0.0
O18 O 0.39817 0.17875 0.04419 0.0
O19 O 0.53617 0.22309 1.00401 0.0
O20 O 0.52944 0.23556 0.0653 0.0
C21 C 0.55106 0.2327 0.0399 0.0
O22 O 0.46967 0.27747 0.08319 0.0
O23 O 0.48268 0.26794 0.01889 0.0
O24 O 0.36392 0.22422 0.09595 0.0
O25 O 0.39651 0.26018 0.04638 0.0
H26 H 0.33703 0.2773 0.02246 0.0
H27 H 0.31952 0.33423 0.11872 0.0
H28 H 0.37236 0.27488 0.14564 0.0
O29 O 0.77899 0.2532 0.9326 0.0
Tb30 Tb 0.77672 0.25951 0.99881 0.0
Eu31 Eu 0.77885 0.20057 0.09811 0.0
C32 C 0.80117 0.24461 0.91554 0.0
O33 O 0.82182 0.23806 0.93913 0.0
C34 C 0.84748 0.26793 0.04351 0.0
O35 O 0.77689 0.20274 0.16741 0.0
C36 C 0.76514 0.13687 0.07816 0.0
C37 C 0.8019 0.22931 0.18843 0.0
O38 O 0.82889 0.2549 0.16855 0.0
C39 C 0.7209 0.20953 0.05575 0.0
C40 C 0.74134 0.09972 0.09179 0.0
C41 C 0.72478 0.07218 0.06275 0.0
C42 C 0.70359 0.0368 0.07588 0.0
C43 C 0.69977 0.02897 0.11804 0.0
C44 C 0.71615 0.05596 0.14752 0.0
C45 C 0.73638 0.09138 0.13398 0.0
O46 O 0.83099 0.27494 0.01377 0.0
O47 O 0.83274 0.24428 0.07379 0.0
O48 O 0.75474 0.29359 0.98217 0.0
O49 O 0.78185 0.30247 0.03888 0.0
C50 C 0.7655 0.31359 0.0147 0.0
O51 O 0.73048 0.20698 0.09303 0.0
O52 O 0.74102 0.20945 0.02614 0.0
O53 O 0.79013 0.15746 0.10418 0.0
O54 O 0.75059 0.15324 0.05922 0.0
H55 H 0.72813 0.07825 0.03019 0.0
H56 H 0.68432 1.00146 0.12769 0.0
H57 H 0.74852 0.11259 0.15635 0.0
O58 O 0.74679 0.54394 0.95628 0.0
Tb59 Tb 0.74371 0.51937 0.01543 0.0
Eu60 Eu 0.83714 0.58992 0.09686 0.0
C61 C 0.71918 0.5313 0.93158 0.0
O62 O 0.68855 0.50516 0.94444 0.0
C63 C 0.7693 0.58914 0.06029 0.0
O64 O 0.83005 0.58692 0.16551 0.0
C65 C 0.90422 0.63047 0.07894 0.0
C66 C 0.79818 0.5675 0.1814 0.0
O67 O 0.77105 0.54976 0.15665 0.0
C68 C 0.801 0.50977 0.05927 0.0
C69 C 0.94037 0.63882 0.09208 0.0
C70 C 0.96658 0.64515 0.06228 0.0
C71 C 1.00178 0.65637 0.07438 0.0
C72 C 1.01079 0.66218 0.11606 0.0
C73 C 0.98539 0.65659 0.14589 0.0
C74 C 0.95002 0.64413 0.13402 0.0
O75 O 0.75645 0.5551 0.06658 0.0
O76 O 0.80259 0.61075 0.07033 0.0
O77 O 0.71427 0.46172 0.00745 0.0
O78 O 0.6896 0.4867 0.03899 0.0
C79 C 0.68546 0.45647 0.02606 0.0
O80 O 0.81809 0.53065 0.09075 0.0
O81 O 0.79497 0.52323 0.02606 0.0
O82 O 0.88659 0.63939 0.10451 0.0
O83 O 0.88384 0.60006 0.06029 0.0
H84 H 0.95971 0.64166 0.02994 0.0
H85 H 0.03811 0.67176 0.12537 0.0
H86 H 0.93051 0.6402 0.15726 0.0
O87 O 0.20907 0.47002 0.55048 0.0
Tb88 Tb 0.23577 0.49274 0.49258 0.0
Eu89 Eu 0.25086 0.41804 0.40722 0.0
C90 C 0.22567 0.46229 0.57895 0.0
O91 O 0.25711 0.46643 0.57048 0.0
C92 C 0.18872 0.42625 0.44123 0.0
O93 O 0.25638 0.41464 0.33865 0.0
C94 C 0.27261 0.37825 0.44196 0.0
C95 C 0.24997 0.43474 0.31387 0.0
O96 O 0.23952 0.4558 0.32984 0.0
C97 C 0.29991 0.49739 0.44904 0.0
C98 C 0.29421 0.36301 0.42725 0.0
C99 C 0.30999 0.35012 0.45497 0.0
C100 C 0.32789 0.33265 0.44038 0.0
C101 C 0.32895 0.32795 0.39769 0.0
C102 C 0.31442 0.34184 0.36976 0.0
C103 C 0.29739 0.35968 0.38486 0.0
O104 O 0.21588 0.45845 0.44035 0.0
O105 O 0.19413 0.40191 0.42492 0.0
O106 O 0.26491 0.55023 0.50152 0.0
O107 O 0.22022 0.5273 0.4612 0.0
C108 C 0.24516 0.55678 0.47691 0.0
O109 O 0.29103 0.47733 0.41553 0.0
O110 O 0.28144 0.48572 0.48323 0.0
O111 O 0.24164 0.36571 0.42385 0.0
O112 O 0.28905 0.41287 0.4464 0.0
H113 H 0.30812 0.35362 0.48763 0.0
H114 H 0.34013 0.3123 0.38592 0.0
H115 H 0.28593 0.37048 0.36363 0.0
O116 O 0.54366 0.74441 0.56768 0.0
Tb117 Tb 0.52793 0.74714 0.50489 0.0
Eu118 Eu 0.60927 0.841 0.42737 0.0
C119 C 0.57437 0.76829 0.58325 0.0
O120 O 0.5982 0.79312 0.55934 0.0
C121 C 0.60013 0.76992 0.4656 0.0
O122 O 0.61303 0.84007 0.35853 0.0
C123 C 0.65087 0.90635 0.45087 0.0
C124 C 0.58795 0.81456 0.33647 0.0
O125 O 0.56012 0.78885 0.35506 0.0
C126 C 0.52717 0.80774 0.4578 0.0
C127 C 0.66172 0.94264 0.4362 0.0
C128 C 0.67661 0.97137 0.4639 0.0
C129 C 0.68914 1.00623 0.4497 0.0
C130 C 0.68732 0.01224 0.40772 0.0
C131 C 0.67367 0.98414 0.37946 0.0
C132 C 0.66013 0.94921 0.39403 0.0
O133 O 0.56696 0.75994 0.45723 0.0
O134 O 0.62441 0.80226 0.45508 0.0
O135 O 0.46986 0.71996 0.50652 0.0
O136 O 0.49544 0.69525 0.47615 0.0
C137 C 0.46488 0.69189 0.48634 0.0
O138 O 0.55034 0.82462 0.42801 0.0
O139 O 0.53781 0.80047 0.49245 0.0
O140 O 0.66127 0.88836 0.42799 0.0
O141 O 0.61821 0.88679 0.46459 0.0
H142 H 0.67866 0.96668 0.49624 0.0
H143 H 0.69737 0.03924 0.39689 0.0
H144 H 0.64978 0.92732 0.37244 0.0
O145 O 0.27452 0.80872 0.5427 0.0
Tb146 Tb 0.27349 0.78589 0.48312 0.0
Eu147 Eu 0.18475 0.77134 0.42236 0.0
C148 C 0.25724 0.78677 0.573 0.0
O149 O 0.23839 0.75264 0.56496 0.0
C150 C 0.25638 0.84217 0.45251 0.0
O151 O 0.19144 0.78318 0.35467 0.0
C152 C 0.11885 0.74687 0.44389 0.0
C153 C 0.21936 0.78607 0.33539 0.0
O154 O 0.24355 0.78305 0.3565 0.0
C155 C 0.2138 0.71992 0.44409 0.0
C156 C 0.08236 0.71844 0.43406 0.0
C157 C 0.05598 0.7065 0.46467 0.0
C158 C 0.02052 0.68136 0.45535 0.0
C159 C 1.01169 0.66853 0.41502 0.0
C160 C 0.03744 0.68061 0.38387 0.0
C161 C 0.07295 0.70532 0.39376 0.0
O162 O 0.27623 0.82788 0.44446 0.0
O163 O 0.22147 0.82263 0.45577 0.0
O164 O 0.31211 0.77451 0.51213 0.0
O165 O 0.31613 0.78441 0.44803 0.0
C166 C 0.33033 0.77728 0.47932 0.0
O167 O 0.19721 0.72702 0.41519 0.0
O168 O 0.22243 0.73839 0.47801 0.0
O169 O 0.1351 0.77142 0.41562 0.0
O170 O 0.13997 0.73767 0.46256 0.0
H171 H 0.06292 0.71719 0.49551 0.0
H172 H 0.98407 0.65059 0.40731 0.0
H173 H 0.0931 0.71494 0.36996 0.0
O174 O 0.54707 0.77489 0.06928 0.0
Tb175 Tb 0.54891 0.77912 1.00269 0.0
Eu176 Eu 0.60576 0.77821 0.91559 0.0
C177 C 0.57528 0.79424 0.09206 0.0
O178 O 0.60566 0.81592 0.07419 0.0
C179 C 0.61713 0.84985 0.96849 0.0
O180 O 0.60062 0.77797 0.84638 0.0
C181 C 0.65227 0.75871 0.93323 0.0
C182 C 0.57026 0.77032 0.82893 0.0
O183 O 0.54322 0.76458 0.85228 0.0
C184 C 0.53881 0.71577 0.95712 0.0
C185 C 0.6609 0.73017 0.92448 0.0
C186 C 0.67212 0.71607 0.95667 0.0
C187 C 0.68353 0.69145 0.94816 0.0
C188 C 0.68451 0.68188 0.90738 0.0
C189 C 0.67461 0.6963 0.87509 0.0
C190 C 0.66191 0.7197 0.88363 0.0
O191 O 0.59257 0.83268 0.99661 0.0
O192 O 0.62397 0.83504 0.93673 0.0
O193 O 0.49681 0.77331 0.01453 0.0
O194 O 0.51439 0.77878 0.95276 0.0
C195 C 0.48866 0.77531 0.97656 0.0
O196 O 0.54972 0.73151 0.92144 0.0
O197 O 0.55479 0.73369 0.99002 0.0
O198 O 0.65547 0.77975 0.90248 0.0
O199 O 0.62486 0.75117 0.95696 0.0
H200 H 0.67256 0.72465 0.98802 0.0
H201 H 0.69469 0.66415 0.90042 0.0
H202 H 0.65468 0.73111 0.85833 0.0
O203 O 0.26689 0.77326 0.07453 0.0
Tb204 Tb 0.26258 0.76487 0.00858 0.0
Eu205 Eu 0.25933 0.80808 0.91183 0.0
C206 C 0.25043 0.78756 0.0937 0.0
O207 O 0.23177 0.79827 0.0724 0.0
C208 C 0.18995 0.75445 0.97117 0.0
O209 O 0.25118 0.79408 0.84459 0.0
C210 C 0.27571 0.87393 0.92327 0.0
C211 C 0.27289 0.81517 0.816 0.0
O212 O 0.30117 0.84506 0.82669 0.0
C213 C 0.32324 0.80785 0.9535 0.0
C214 C 0.30456 0.91112 0.91653 0.0
C215 C 0.31681 0.93514 0.94974 0.0
C216 C 0.34177 0.97112 0.94314 0.0
C217 C 0.35469 0.98308 0.90355 0.0
C218 C 0.34256 0.9599 0.86999 0.0
C219 C 0.3175 0.92387 0.87666 0.0
O220 O 0.20859 0.75453 1.00323 0.0
O221 O 0.20351 0.76926 0.93513 0.0
O222 O 0.27731 0.72511 0.02432 0.0
O223 O 0.2529 0.72146 0.96652 0.0
C224 C 0.26601 0.70684 0.99059 0.0
O225 O 0.30761 0.80102 0.91756 0.0
O226 O 0.30634 0.81244 0.98391 0.0
O227 O 0.25909 0.85534 0.89058 0.0
O228 O 0.28043 0.85502 0.95161 0.0
H229 H 0.30621 0.92613 0.98032 0.0
H230 H 0.37307 0.01116 0.89866 0.0
H231 H 0.30764 0.90608 0.85062 0.0
O232 O 0.26756 0.48478 0.04804 0.0
Tb233 Tb 0.27847 0.49589 0.98283 0.0
Eu234 Eu 0.19313 0.42995 0.91567 0.0
C235 C 0.27574 0.46455 0.07035 0.0
O236 O 0.29138 0.44861 0.0531 0.0
C237 C 0.25772 0.42173 0.95232 0.0
O238 O 0.20542 0.42785 0.84882 0.0
C239 C 0.12535 0.39213 0.9299 0.0
C240 C 0.18892 0.43554 0.82014 0.0
O241 O 0.16515 0.44427 0.83109 0.0
C242 C 0.22349 0.50954 0.94312 0.0
C243 C 0.09093 0.38924 0.91895 0.0
C244 C 0.06583 0.38239 0.95007 0.0
C245 C 0.03231 0.37782 0.94023 0.0
C246 C 0.02387 0.37977 0.89908 0.0
C247 C 0.04811 0.38561 0.8675 0.0
C248 C 0.08181 0.39065 0.8777 0.0
O249 O 0.27862 0.45545 0.94428 0.0
O250 O 0.22289 0.40763 0.95136 0.0
O251 O 0.33367 0.53256 0.99871 0.0
O252 O 0.3096 0.54665 0.95065 0.0
C253 C 0.33883 0.55654 0.97129 0.0
O254 O 0.20968 0.48838 0.91141 0.0
O255 O 0.22955 0.49686 0.97663 0.0
O256 O 0.14174 0.38465 0.901 0.0
O257 O 0.14705 0.41903 0.95322 0.0
H258 H 0.07217 0.38017 0.98178 0.0
H259 H 0.99737 0.3746 0.89147 0.0
H260 H 0.1006 0.39496 0.85345 0.0
O261 O 0.7667 0.55106 0.44189 0.0
Tb262 Tb 0.76455 0.53899 0.50687 0.0
Eu263 Eu 0.76098 0.57593 0.60594 0.0
C264 C 0.73988 0.53159 0.41735 0.0
O265 O 0.71031 0.50585 0.43304 0.0
C266 C 0.82973 0.59588 0.55259 0.0
O267 O 0.75252 0.57146 0.6744 0.0
C268 C 0.74453 0.62264 0.57933 0.0
C269 C 0.77868 0.59078 0.69979 0.0
O270 O 0.81024 0.61287 0.68474 0.0
C271 C 0.70033 0.50674 0.56202 0.0
C272 C 0.71884 0.63437 0.59057 0.0
C273 C 0.70735 0.65024 0.5609 0.0
C274 C 0.68397 0.66262 0.57195 0.0
C275 C 0.67259 0.65922 0.61282 0.0
C276 C 0.68439 0.64442 0.64285 0.0
C277 C 0.7073 0.63171 0.63155 0.0
O278 O 0.80932 0.59087 0.52071 0.0
O279 O 0.81596 0.58581 0.58947 0.0
O280 O 0.76582 0.49319 0.48168 0.0
O281 O 0.78108 0.50696 0.54387 0.0
C282 C 0.77673 0.48459 0.51463 0.0
O283 O 0.71938 0.5183 0.59579 0.0
O284 O 0.71182 0.52483 0.52774 0.0
O285 O 0.76983 0.62978 0.60622 0.0
O286 O 0.73151 0.59083 0.56318 0.0
H287 H 0.71682 0.65326 0.52954 0.0
H288 H 0.65612 0.67035 0.62193 0.0
H289 H 0.71669 0.62043 0.65481 0.0
O290 O 0.47687 0.23873 0.42322 0.0
Tb291 Tb 0.48791 0.25126 0.48817 0.0
Eu292 Eu 0.42998 0.18484 0.60482 0.0
C293 C 0.44449 0.21832 0.40905 0.0
O294 O 0.41768 0.20385 0.43487 0.0
C295 C 0.42199 0.23475 0.54602 0.0
O296 O 0.43399 0.18757 0.67405 0.0
C297 C 0.39107 0.11884 0.58298 0.0
C298 C 0.46392 0.20936 0.69278 0.0
O299 O 0.49191 0.23065 0.67075 0.0
C300 C 0.50628 0.21471 0.55622 0.0
C301 C 0.38447 0.08271 0.59221 0.0
C302 C 0.37789 0.05916 0.55941 0.0
C303 C 0.36757 0.02355 0.56718 0.0
C304 C 0.36343 0.01132 0.60764 0.0
C305 C 0.36911 0.03411 0.64062 0.0
C306 C 0.3804 0.07007 0.633 0.0
O307 O 0.44653 0.22814 0.53318 0.0
O308 O 0.40728 0.21862 0.58038 0.0
O309 O 0.50307 0.30634 0.50024 0.0
O310 O 0.54296 0.29087 0.50195 0.0
C311 C 0.53667 0.31719 0.50618 0.0
O312 O 0.4896 0.20702 0.59219 0.0
O313 O 0.48832 0.20819 0.52173 0.0
O314 O 0.38166 0.13413 0.61121 0.0
O315 O 0.42084 0.14094 0.56419 0.0
H316 H 0.37954 0.06817 0.52797 0.0
H317 H 0.35401 0.98339 0.61346 0.0
H318 H 0.38406 0.08753 0.65857 0.0
O319 O 0.77531 0.24775 0.44705 0.0
Tb320 Tb 0.76396 0.26164 0.50733 0.0
Eu321 Eu 0.8374 0.26798 0.58479 0.0
C322 C 0.7516 0.21975 0.42663 0.0
O323 O 0.72096 0.19827 0.44411 0.0
C324 C 0.76862 0.19965 0.54516 0.0
O325 O 0.82693 0.25852 0.65297 0.0
C326 C 0.904 0.28883 0.5704 0.0
C327 C 0.79921 0.25809 0.66996 0.0
O328 O 0.7769 0.26221 0.64643 0.0
C329 C 0.819 0.32658 0.55202 0.0
C330 C 0.94151 0.31399 0.58128 0.0
C331 C 0.96769 0.32545 0.55032 0.0
C332 C 1.00399 0.3454 0.56041 0.0
C333 C 0.0139 0.35327 0.60166 0.0
C334 C 0.98839 0.34141 0.63287 0.0
C335 C 0.95212 0.32246 0.62264 0.0
O336 O 0.75197 0.21771 0.54809 0.0
O337 O 0.80314 0.21518 0.5518 0.0
O338 O 0.71898 0.26085 0.47607 0.0
O339 O 0.72787 0.27549 0.53886 0.0
C340 C 0.70699 0.26994 0.50765 0.0
O341 O 0.82607 0.31408 0.58546 0.0
O342 O 0.81402 0.3095 0.51741 0.0
O343 O 0.88469 0.26506 0.59825 0.0
O344 O 0.88602 0.30036 0.54897 0.0
H345 H 0.95987 0.31808 0.5186 0.0
H346 H 0.04188 0.3674 0.60982 0.0
H347 H 0.93243 0.31258 0.64694 0.0
H348 H 0.31177 0.01039 0.96235 0.0
H349 H 0.39883 0.9938 0.99349 0.0
H350 H 0.4274 0.04973 0.03205 0.0
H351 H 0.43127 0.10688 0.04824 0.0
H352 H 0.34489 0.1243 0.01436 0.0
H353 H 0.31225 0.06451 0.98588 0.0
C354 C 0.33633 0.01852 0.97896 0.0
C355 C 0.35303 0.998 0.9759 0.0
C356 C 0.35305 0.0512 0.99975 0.0
C357 C 0.3853 0.00899 0.99635 0.0
C358 C 0.40179 0.04114 0.01785 0.0
C359 C 0.40511 0.09748 0.03511 0.0
C360 C 0.39087 0.12037 0.0329 0.0
C361 C 0.38654 0.06308 0.01841 0.0
C362 C 0.3567 0.10747 0.01624 0.0
C363 C 0.33797 0.07323 0.99986 0.0
H364 H 0.88833 0.33681 0.02359 0.0
H365 H 0.89396 0.24329 0.05508 0.0
H366 H 0.95604 0.27248 0.03208 0.0
H367 H 1.00439 0.32051 0.99117 0.0
H368 H 0.99647 0.41239 0.95746 0.0
H369 H 0.93989 0.38835 0.99377 0.0
C370 C 0.90347 0.32316 0.02632 0.0
C371 C 0.88662 0.28785 0.04033 0.0
C372 C 0.93863 0.33978 0.01226 0.0
C373 C 0.90647 0.27052 0.04433 0.0
C374 C 0.94184 0.2871 0.03084 0.0
C375 C 0.99078 0.33572 0.99313 0.0
C376 C 1.00425 0.368 0.97155 0.0
C377 C 0.95765 0.32115 0.01306 0.0
C378 C 0.98637 0.38742 0.97379 0.0
C379 C 0.95397 0.37359 0.9943 0.0
H380 H 0.78246 0.65756 0.05757 0.0
H381 H 0.70642 0.55112 0.01941 0.0
H382 H 0.67089 0.57292 0.98567 0.0
H383 H 0.66311 0.62268 0.96338 0.0
H384 H 0.73792 0.72918 1.00199 0.0
H385 H 0.77144 0.70691 0.04058 0.0
C386 C 0.75814 0.63916 0.04181 0.0
C387 C 0.74766 0.60276 0.04015 0.0
C388 C 0.73724 0.65187 0.02324 0.0
C389 C 0.71557 0.57924 0.02053 0.0
C390 C 0.69504 0.5917 1.00143 0.0
C391 C 0.6863 0.64087 0.98109 0.0
C392 C 0.69801 0.6775 0.97997 0.0
C393 C 0.70578 0.62796 1.00225 0.0
C394 C 0.72811 0.70085 1.00288 0.0
C395 C 0.74756 0.68815 0.02439 0.0
H396 H 0.12785 0.36157 0.44503 0.0
H397 H 0.17278 0.47011 0.48512 0.0
H398 H 0.11893 0.45533 0.52262 0.0
H399 H 0.05979 0.41098 0.54709 0.0
H400 H 1.01275 0.30265 0.50569 0.0
H401 H 0.06593 0.31796 0.46465 0.0
C402 C 0.12587 0.38199 0.462 0.0
C403 C 0.1551 0.41689 0.46319 0.0
C404 C 0.09406 0.37334 0.48281 0.0
C405 C 0.15147 0.44302 0.48442 0.0
C406 C 0.12038 0.43459 0.50573 0.0
C407 C 0.06101 0.39089 0.52848 0.0
C408 C 0.03251 0.35579 0.52934 0.0
C409 C 0.09167 0.3998 0.50549 0.0
C410 C 0.03425 0.32995 0.50511 0.0
C411 C 0.06481 0.33863 0.48206 0.0
H412 H 0.61755 0.6517 0.55901 0.0
H413 H 0.72646 0.71831 0.52141 0.0
H414 H 0.71025 0.75787 0.48537 0.0
H415 H 0.66567 0.7758 0.4691 0.0
H416 H 0.55678 0.7082 0.50655 0.0
H417 H 0.57253 0.66731 0.53896 0.0
C418 C 0.63765 0.67463 0.5424 0.0
C419 C 0.67318 0.68211 0.54294 0.0
C420 C 0.62826 0.69755 0.5226 0.0
C421 C 0.69888 0.71174 0.52107 0.0
C422 C 0.68968 0.73461 0.50096 0.0
C423 C 0.64542 0.75219 0.48451 0.0
C424 C 0.61012 0.74549 0.48601 0.0
C425 C 0.6546 0.72825 0.5024 0.0
C426 C 0.58413 0.71434 0.50531 0.0
C427 C 0.59312 0.69079 0.52371 0.0
H428 H 0.32696 0.88681 0.46657 0.0
H429 H 0.22528 0.88237 0.46731 0.0
H430 H 0.25282 0.94195 0.49647 0.0
H431 H 0.3041 0.99186 0.53007 0.0
H432 H 0.40447 0.99439 0.53407 0.0
H433 H 0.37948 0.9394 0.49389 0.0
C434 C 0.31086 0.89903 0.47251 0.0
C435 C 0.27398 0.87987 0.46533 0.0
C436 C 0.32674 0.93305 0.49004 0.0
C437 C 0.25363 0.89627 0.47307 0.0
C438 C 0.26936 0.9304 0.48969 0.0
C439 C 0.32066 0.98088 0.52076 0.0
C440 C 0.35605 0.99709 0.53411 0.0
C441 C 0.30565 0.94859 0.49938 0.0
C442 C 0.3773 0.98244 0.52323 0.0
C443 C 0.36289 0.95087 0.50077 0.0
H444 H 0.59369 0.89305 0.99523 0.0
H445 H 0.6891 0.89357 0.9576 0.0
H446 H 0.72519 0.95469 0.98304 0.0
H447 H 0.72938 1.0047 0.02512 0.0
H448 H 0.63299 1.00178 0.06363 0.0
H449 H 0.59741 0.94515 0.02842 0.0
C450 C 0.62239 0.9068 0.99189 0.0
C451 C 0.63877 0.88875 0.97499 0.0
C452 C 0.64274 0.94148 0.00705 0.0
C453 C 0.67589 0.90696 0.97039 0.0
C454 C 0.6965 0.94179 0.98527 0.0
C455 C 0.70062 0.99203 0.02461 0.0
C456 C 0.68366 1.00728 0.04668 0.0
C457 C 0.68026 0.9589 0.00492 0.0
C458 C 0.64643 0.99051 0.04656 0.0
C459 C 0.62614 0.95807 0.02668 0.0
H460 H 0.14863 0.68994 0.00455 0.0
H461 H 0.14434 0.77871 0.95166 0.0
H462 H 0.08211 0.75296 0.97353 0.0
H463 H 0.03198 0.70911 0.01685 0.0
H464 H 0.03754 0.62062 0.06872 0.0
H465 H 0.09572 0.64164 0.03728 0.0
C466 C 0.13378 0.70326 0.99714 0.0
C467 C 0.15099 0.73631 0.97704 0.0
C468 C 0.0982 0.68824 0.00964 0.0
C469 C 0.13153 0.75321 0.96713 0.0
C470 C 0.09604 0.73856 0.97982 0.0
C471 C 0.04544 0.69383 0.01983 0.0
C472 C 0.03057 0.66332 0.04492 0.0
C473 C 0.07942 0.70659 1.00227 0.0
C474 C 0.04845 0.64401 0.04927 0.0
C475 C 0.08186 0.65623 0.03168 0.0
H476 H 0.35503 0.36114 0.01317 0.0
H477 H 0.25542 0.28005 0.06281 0.0
H478 H 0.22402 0.30652 0.02805 0.0
H479 H 0.22618 0.35663 0.98978 0.0
H480 H 0.32693 0.43945 0.94345 0.0
H481 H 0.35648 0.40853 0.97029 0.0
C482 C 0.32634 0.34885 0.01526 0.0
C483 C 0.30733 0.31858 0.03979 0.0
C484 C 0.30876 0.36489 0.99633 0.0
C485 C 0.27031 0.30314 0.04341 0.0
C486 C 0.25248 0.31844 0.02388 0.0
C487 C 0.25448 0.36761 0.98504 0.0
C488 C 0.27428 0.40048 0.96498 0.0
C489 C 0.27157 0.34992 1.00119 0.0
C490 C 0.31101 0.41438 0.95918 0.0
C491 C 0.32803 0.3967 0.97447 0.0
H492 H 0.88926 0.6608 0.55897 0.0
H493 H 0.85196 0.55193 0.52528 0.0
H494 H 0.91024 0.56817 0.497 0.0
H495 H 0.96896 0.6144 0.47364 0.0
H496 H 1.00637 0.72391 0.50441 0.0
H497 H 0.95158 0.70655 0.54291 0.0
C498 C 0.89442 0.64066 0.54648 0.0
C499 C 0.8667 0.60523 0.54436 0.0
C500 C 0.92793 0.65041 0.52946 0.0
C501 C 0.87316 0.57928 0.5275 0.0
C502 C 0.90639 0.5886 0.51112 0.0
C503 C 0.96536 0.63435 0.48949 0.0
C504 C 0.99146 0.67037 0.48592 0.0
C505 C 0.93356 0.62423 0.5107 0.0
C506 C 0.9867 0.69598 0.50687 0.0
C507 C 0.95523 0.68608 0.52855 0.0
H508 H 0.37217 0.25202 0.5695 0.0
H509 H 0.44449 0.26635 0.4711 0.0
H510 H 0.42599 0.30268 0.43372 0.0
H511 H 0.38737 0.32789 0.42705 0.0
H512 H 0.3062 0.30417 0.51823 0.0
H513 H 0.33075 0.27525 0.56093 0.0
C514 C 0.38413 0.26341 0.54006 0.0
C515 C 0.41097 0.25761 0.52395 0.0
C516 C 0.37166 0.28269 0.51743 0.0
C517 C 0.42528 0.27172 0.48527 0.0
C518 C 0.41426 0.29217 0.46351 0.0
C519 C 0.37445 0.31596 0.45591 0.0
C520 C 0.34447 0.31791 0.46878 0.0
C521 C 0.38721 0.29747 0.47909 0.0
C522 C 0.32941 0.3035 0.50734 0.0
C523 C 0.34321 0.28653 0.53167 0.0
H524 H 0.66355 0.04942 0.46931 0.0
H525 H 0.7527 0.0336 0.48956 0.0
H526 H 0.78551 0.09203 0.52278 0.0
H527 H 0.79049 0.15005 0.54017 0.0
H528 H 0.69945 0.16369 0.52106 0.0
H529 H 0.66593 0.104 0.49349 0.0
C530 C 0.68984 0.05852 0.48196 0.0
C531 C 0.7057 0.03737 0.47739 0.0
C532 C 0.70846 0.09206 0.50062 0.0
C533 C 0.73987 0.04937 0.49337 0.0
C534 C 0.75872 0.08289 0.51193 0.0
C535 C 0.76323 0.13983 0.53031 0.0
C536 C 0.74791 0.16182 0.53208 0.0
C537 C 0.7436 0.1049 0.51481 0.0
C538 C 0.7123 0.14779 0.51968 0.0
C539 C 0.69292 0.1135 0.50388 0.0
H540 H 0.29283 0.30495 0.18109 0.0
H541 H 0.40061 0.32572 0.1929 0.0
H542 H 0.40053 0.3396 0.26573 0.0
H543 H 0.36974 0.34594 0.32574 0.0
H544 H 0.26175 0.3246 0.31311 0.0
H545 H 0.26269 0.31248 0.24021 0.0
C546 C 0.31655 0.31304 0.19937 0.0
C547 C 0.34676 0.31449 0.18151 0.0
C548 C 0.31641 0.32126 0.2409 0.0
C549 C 0.37691 0.32411 0.20598 0.0
C550 C 0.37694 0.33226 0.24752 0.0
C551 C 0.34632 0.33841 0.30709 0.0
C552 C 0.3157 0.33612 0.32496 0.0
C553 C 0.34679 0.33083 0.26529 0.0
C554 C 0.28583 0.32701 0.30015 0.0
C555 C 0.28621 0.31974 0.25851 0.0
H556 H 0.65852 1.00411 0.18926 0.0
H557 H 0.76742 0.08719 0.20676 0.0
H558 H 0.76347 0.0724 0.27939 0.0
H559 H 0.72994 0.03532 0.33775 0.0
H560 H 0.62208 0.95052 0.32076 0.0
H561 H 0.62535 0.96562 0.24768 0.0
C562 C 0.68157 0.01879 0.20875 0.0
C563 C 0.71317 0.04697 0.19222 0.0
C564 C 0.67947 0.00956 0.25054 0.0
C565 C 0.74247 0.06594 0.21846 0.0
C566 C 0.7404 0.05725 0.26005 0.0
C567 C 0.70702 0.02029 0.31813 0.0
C568 C 0.67568 0.99207 0.33475 0.0
C569 C 0.70911 0.02913 0.27637 0.0
C570 C 0.64653 0.9723 0.3087 0.0
C571 C 0.64834 0.98107 0.267 0.0
H572 H 0.96468 0.6136 0.21324 0.0
H573 H 0.03345 0.7216 0.17398 0.0
H574 H 0.05705 0.73839 0.24364 0.0
H575 H 0.05781 0.72249 0.31576 0.0
H576 H 0.99071 0.61405 0.35516 0.0
H577 H 0.96693 0.59723 0.28561 0.0
C578 C 0.98456 0.64081 0.22026 0.0
C579 C 0.99716 0.66645 0.18889 0.0
C580 C 0.99854 0.6501 0.26025 0.0
C581 C 0.02334 0.70154 0.1979 0.0
C582 C 0.03691 0.71109 0.2376 0.0
C583 C 0.03848 0.69504 0.30899 0.0
C584 C 0.02611 0.6696 0.34066 0.0
C585 C 0.02486 0.68557 0.26898 0.0
C586 C 1.00051 0.63425 0.33142 0.0
C587 C 0.98686 0.62459 0.29166 0.0
H588 H 0.73007 0.67111 0.70676 0.0
H589 H 0.6191 0.62391 0.67574 0.0
H590 H 0.60604 0.63703 0.74456 0.0
H591 H 0.62687 0.66444 0.81302 0.0
H592 H 0.73798 0.71154 0.84318 0.0
H593 H 0.75044 0.69636 0.77533 0.0
C594 C 0.70293 0.66298 0.71543 0.0
C595 C 0.67558 0.64644 0.6864 0.0
C596 C 0.69578 0.67127 0.75467 0.0
C597 C 0.64059 0.63666 0.69773 0.0
C598 C 0.63315 0.64436 0.73692 0.0
C599 C 0.65376 0.67159 0.80437 0.0
C600 C 0.68154 0.68929 0.83264 0.0
C601 C 0.66065 0.6623 0.76543 0.0
C602 C 0.71627 0.69802 0.82161 0.0
C603 C 0.72337 0.6892 0.78298 0.0
H604 H 0.41195 0.04686 0.70705 0.0
H605 H 0.30341 0.98562 0.66605 0.0
H606 H 0.28572 0.95547 0.73255 0.0
H607 H 0.30099 0.94695 0.80256 0.0
H608 H 0.40978 1.00687 0.84359 0.0
H609 H 0.42761 0.03686 0.77703 0.0
C610 C 0.38444 0.02717 0.71307 0.0
C611 C 0.35889 0.0186 0.68218 0.0
C612 C 0.3746 0.00945 0.75116 0.0
C613 C 0.32338 0.99267 0.68974 0.0
C614 C 0.31332 0.97534 0.72758 0.0
C615 C 0.3287 0.96607 0.79667 0.0
C616 C 0.354 0.97462 0.82796 0.0
C617 C 0.33871 0.98338 0.75846 0.0
C618 C 0.38974 0.99997 0.82005 0.0
C619 C 0.39995 0.01719 0.78204 0.0
H620 H 0.97755 0.3775 0.69439 0.0
H621 H 0.02744 0.31544 0.66696 0.0
H622 H 0.05198 0.32511 0.73638 0.0
H623 H 0.05881 0.35066 0.80499 0.0
H624 H 1.01058 0.41433 0.83269 0.0
H625 H 0.986 0.40479 0.76324 0.0
C626 C 0.99352 0.36592 0.70396 0.0
C627 C 1.00056 0.34563 0.67598 0.0
C628 C 1.00809 0.37212 0.74378 0.0
C629 C 0.02168 0.33108 0.68825 0.0
C630 C 0.0358 0.3367 0.7278 0.0
C631 C 0.04347 0.363 0.79563 0.0
C632 C 0.03659 0.38319 0.824 0.0
C633 C 0.02934 0.35732 0.75576 0.0
C634 C 0.01606 0.39843 0.81152 0.0
C635 C 1.00196 0.39297 0.77183 0.0
H636 H 0.59872 0.23294 0.98726 0.0
H637 H 0.57948 0.23741 0.11638 0.0
H638 H 0.63223 0.23287 0.13327 0.0
H639 H 0.68082 0.22237 0.11082 0.0
H640 H 0.69815 0.21713 0.98099 0.0
H641 H 0.64933 0.22743 0.96494 0.0
C642 C 0.60632 0.23335 0.0191 0.0
C643 C 0.58522 0.23515 0.05056 0.0
C644 C 0.63621 0.23033 0.02844 0.0
C645 C 0.59542 0.23597 0.09166 0.0
C646 C 0.62542 0.23319 0.10129 0.0
C647 C 0.67407 0.22382 0.07907 0.0
C648 C 0.69302 0.21879 0.04719 0.0
C649 C 0.64556 0.2295 0.0699 0.0
C650 C 0.68402 0.22085 0.00617 0.0
C651 C 0.65604 0.2267 0.99688 0.0
H652 H 0.78721 0.35814 0.08078 0.0
H653 H 0.74336 0.34496 0.9589 0.0
H654 H 0.74987 0.40414 0.96211 0.0
H655 H 0.77264 0.46139 0.9971 0.0
H656 H 0.81309 0.47382 0.12075 0.0
H657 H 0.80408 0.41361 0.11891 0.0
C658 C 0.77865 0.36809 0.05519 0.0
C659 C 0.76507 0.34731 0.01952 0.0
C660 C 0.7824 0.40223 0.05728 0.0
C661 C 0.75396 0.36045 0.98666 0.0
C662 C 0.75785 0.39438 0.98839 0.0
C663 C 0.77866 0.45074 0.02411 0.0
C664 C 0.7933 0.47226 0.05911 0.0
C665 C 0.77268 0.41578 0.02321 0.0
C666 C 0.80179 0.45804 0.09333 0.0
C667 C 0.7966 0.4235 0.09235 0.0
H668 H 0.62683 0.44043 0.07161 0.0
H669 H 0.66951 0.39523 0.98651 0.0
H670 H 0.61302 0.33922 0.98668 0.0
H671 H 0.55094 0.30378 0.00921 0.0
H672 H 0.50894 0.34729 0.09743 0.0
H673 H 0.56568 0.40329 0.09794 0.0
C674 C 0.62374 0.41821 0.0533 0.0
C675 C 0.65212 0.42198 0.02881 0.0
C676 C 0.59129 0.38592 0.05394 0.0
C677 C 0.64798 0.39296 0.00552 0.0
C678 C 0.61567 0.36098 0.00551 0.0
C679 C 0.55419 0.32556 0.0285 0.0
C680 C 0.52566 0.32163 0.05283 0.0
C681 C 0.58704 0.3573 0.02924 0.0
C682 C 0.53047 0.34977 0.0783 0.0
C683 C 0.56288 0.38177 0.07856 0.0
H684 H 0.25886 0.70729 0.48879 0.0
H685 H 0.18052 0.66323 0.39221 0.0
H686 H 0.18533 0.60944 0.3919 0.0
H687 H 0.20841 0.57332 0.42292 0.0
H688 H 0.28784 0.61804 0.51822 0.0
H689 H 0.28651 0.67371 0.51474 0.0
C690 C 0.24308 0.68606 0.46741 0.0
C691 C 0.21903 0.68896 0.44095 0.0
C692 C 0.24617 0.65544 0.46725 0.0
C693 C 0.19909 0.66149 0.41303 0.0
C694 C 0.20177 0.63073 0.4129 0.0
C695 C 0.22568 0.59542 0.44259 0.0
C696 C 0.24781 0.59161 0.47118 0.0
C697 C 0.2247 0.62717 0.44044 0.0
C698 C 0.27041 0.62042 0.49619 0.0
C699 C 0.26956 0.65213 0.49431 0.0
H700 H 0.44445 0.6425 0.42577 0.0
H701 H 0.40867 0.66697 0.53811 0.0
H702 H 0.35495 0.60846 0.53723 0.0
H703 H 0.32091 0.5489 0.50742 0.0
H704 H 0.35148 0.52708 0.38973 0.0
H705 H 0.4052 0.58555 0.39039 0.0
C706 C 0.42458 0.63507 0.44969 0.0
C707 C 0.43051 0.65872 0.48216 0.0
C708 C 0.39325 0.60176 0.44834 0.0
C709 C 0.40457 0.64915 0.5128 0.0
C710 C 0.374 0.61564 0.51245 0.0
C711 C 0.33849 0.55726 0.48113 0.0
C712 C 0.3316 0.53366 0.44826 0.0
C713 C 0.36837 0.59153 0.48072 0.0
C714 C 0.35583 0.54467 0.41536 0.0
C715 C 0.3866 0.57816 0.41568 0.0
H716 H 0.47595 0.78411 0.5169 0.0
H717 H 0.49441 0.81469 0.38918 0.0
H718 H 0.43436 0.80593 0.38349 0.0
H719 H 0.37734 0.79251 0.41602 0.0
H720 H 0.35953 0.76129 0.54353 0.0
H721 H 0.41806 0.76647 0.54771 0.0
C722 C 0.46673 0.78827 0.48757 0.0
C723 C 0.4898 0.79995 0.45353 0.0
C724 C 0.43211 0.78303 0.48445 0.0
C725 C 0.47736 0.80574 0.41598 0.0
C726 C 0.44295 0.80071 0.41267 0.0
C727 C 0.38617 0.78644 0.44451 0.0
C728 C 0.36421 0.77674 0.47948 0.0
C729 C 0.42018 0.78977 0.44685 0.0
C730 C 0.37598 0.76897 0.51622 0.0
C731 C 0.40952 0.77201 0.5187 0.0
H732 H 0.36682 0.79807 0.89968 0.0
H733 H 0.34504 0.79996 0.02887 0.0
H734 H 0.39211 0.78764 0.04656 0.0
H735 H 0.44092 0.7784 0.02648 0.0
H736 H 0.46626 0.77891 0.89846 0.0
H737 H 0.41647 0.78787 0.87926 0.0
C738 C 0.37239 0.7957 0.93164 0.0
C739 C 0.35229 0.80008 0.96279 0.0
C740 C 0.4002 0.789 0.94193 0.0
C741 C 0.36 0.79697 1.0041 0.0
C742 C 0.38697 0.78981 0.0144 0.0
C743 C 0.43542 0.78018 0.99431 0.0
C744 C 0.4572 0.77796 0.96395 0.0
C745 C 0.40739 0.78605 0.98369 0.0
C746 C 0.44982 0.7805 0.92243 0.0
C747 C 0.42141 0.78574 0.91148 0.0
H748 H 0.23438 0.66014 0.92724 0.0
H749 H 0.29499 0.67702 0.03841 0.0
H750 H 0.28848 0.61812 0.03218 0.0
H751 H 0.26238 0.56067 0.99828 0.0
H752 H 0.20177 0.54224 0.88685 0.0
H753 H 0.21148 0.60293 0.88997 0.0
C754 C 0.24645 0.65097 0.94976 0.0
C755 C 0.26489 0.67273 0.98343 0.0
C756 C 0.24232 0.61676 0.94618 0.0
C757 C 0.28049 0.66067 0.01239 0.0
C758 C 0.27672 0.62696 0.00891 0.0
C759 C 0.25137 0.56987 0.97447 0.0
C760 C 0.23105 0.54681 0.9426 0.0
C761 C 0.25712 0.60458 0.97644 0.0
C762 C 0.2174 0.55942 0.91179 0.0
C763 C 0.22291 0.59409 0.91362 0.0
H764 H 0.39959 0.5784 0.0135 0.0
H765 H 0.35587 0.60552 0.90981 0.0
H766 H 0.41467 0.65629 0.89413 0.0
H767 H 0.47883 0.69318 0.91056 0.0
H768 H 0.52083 0.66637 0.01628 0.0
H769 H 0.46256 0.615 0.03023 0.0
C770 C 0.40291 0.59549 0.98752 0.0
C771 C 0.37357 0.58831 0.96282 0.0
C772 C 0.4366 0.62445 0.97884 0.0
C773 C 0.37816 0.61065 0.92932 0.0
C774 C 0.41177 0.63954 0.92026 0.0
C775 C 0.4752 0.67571 0.93622 0.0
C776 C 0.50407 0.68319 0.96213 0.0
C777 C 0.44127 0.64663 0.94473 0.0
C778 C 0.49896 0.66093 0.99585 0.0
C779 C 0.46566 0.63167 1.00393 0.0
H780 H 0.80092 0.46198 0.58014 0.0
H781 H 0.7662 0.43819 0.45407 0.0
H782 H 0.77609 0.38779 0.45485 0.0
H783 H 0.79482 0.35064 0.49025 0.0
H784 H 0.82955 0.37222 0.6164 0.0
H785 H 0.81948 0.42311 0.61667 0.0
C786 C 0.79556 0.44569 0.55296 0.0
C787 C 0.78293 0.45396 0.51704 0.0
C788 C 0.80137 0.41637 0.55354 0.0
C789 C 0.77602 0.43257 0.48207 0.0
C790 C 0.78166 0.40366 0.48244 0.0
C791 C 0.80037 0.36643 0.51792 0.0
C792 C 0.81318 0.35762 0.55319 0.0
C793 C 0.79443 0.39539 0.51786 0.0
C794 C 0.81979 0.37838 0.58874 0.0
C795 C 0.81402 0.40752 0.5889 0.0
H796 H 0.59692 0.34124 0.55137 0.0
H797 H 0.536 0.37594 0.48014 0.0
H798 H 0.58107 0.43804 0.49165 0.0
H799 H 0.6388 0.48248 0.52031 0.0
H800 H 0.69715 0.44834 0.59708 0.0
H801 H 0.65208 0.38608 0.58566 0.0
C802 C 0.59366 0.36252 0.53851 0.0
C803 C 0.56362 0.35431 0.51456 0.0
C804 C 0.61907 0.39816 0.54649 0.0
C805 C 0.5591 0.38185 0.49857 0.0
C806 C 0.58482 0.41729 0.50512 0.0
C807 C 0.64129 0.46132 0.5349 0.0
C808 C 0.67102 0.46975 0.55948 0.0
C809 C 0.61498 0.42576 0.52885 0.0
C810 C 0.67415 0.44234 0.57841 0.0
C811 C 0.64857 0.40679 0.57162 0.0
H812 H 0.671 0.27059 0.5759 0.0
H813 H 0.66259 0.25974 0.44406 0.0
H814 H 0.60006 0.24342 0.44748 0.0
H815 H 0.54678 0.22697 0.48804 0.0
H816 H 0.55398 0.23673 0.62012 0.0
H817 H 0.61791 0.25846 0.61652 0.0
C818 C 0.65559 0.2653 0.54792 0.0
C819 C 0.6713 0.26624 0.50977 0.0
C820 C 0.61934 0.25517 0.5502 0.0
C821 C 0.65105 0.25914 0.47376 0.0
C822 C 0.61525 0.24962 0.47572 0.0
C823 C 0.56229 0.23416 0.51613 0.0
C824 C 0.54545 0.23005 0.55433 0.0
C825 C 0.59893 0.24664 0.51382 0.0
C826 C 0.56613 0.23948 0.59029 0.0
C827 C 0.60274 0.25198 0.58825 0.0
H828 H 0.40962 0.17862 0.74813 0.0
H829 H 0.52397 0.24074 0.7395 0.0
H830 H 0.5287 0.24156 0.81418 0.0
H831 H 0.50055 0.22577 0.882 0.0
H832 H 0.38621 0.16626 0.89139 0.0
H833 H 0.38131 0.1631 0.81642 0.0
C834 C 0.43557 0.19226 0.7626 0.0
C835 C 0.46638 0.2096 0.73819 0.0
C836 C 0.43812 0.19306 0.80572 0.0
C837 C 0.4998 0.22731 0.75747 0.0
C838 C 0.50256 0.22773 0.80023 0.0
C839 C 0.47455 0.21187 0.86767 0.0
C840 C 0.4438 0.19617 0.89223 0.0
C841 C 0.47192 0.21082 0.82465 0.0
C842 C 0.4103 0.17863 0.87316 0.0
C843 C 0.40748 0.17682 0.8303 0.0
H844 H 0.83767 0.24527 0.72711 0.0
H845 H 0.74883 0.26329 0.71477 0.0
H846 H 0.74115 0.25999 0.78917 0.0
H847 H 0.76042 0.25346 0.85805 0.0
H848 H 0.84886 0.23485 0.87059 0.0
H849 H 0.85573 0.23676 0.79604 0.0
C850 C 0.81655 0.24837 0.74066 0.0
C851 C 0.79396 0.25464 0.71522 0.0
C852 C 0.81218 0.24636 0.78363 0.0
C853 C 0.76665 0.25844 0.73344 0.0
C854 C 0.76224 0.2566 0.77609 0.0
C855 C 0.78114 0.24969 0.84453 0.0
C856 C 0.80414 0.24413 0.87007 0.0
C857 C 0.78496 0.25079 0.80152 0.0
C858 C 0.83073 0.23917 0.85183 0.0
C859 C 0.83475 0.24032 0.80911 0.0
H860 H 0.78065 0.57776 0.89277 0.0
H861 H 0.66786 0.51133 0.8726 0.0
H862 H 0.67614 0.5254 0.79938 0.0
H863 H 0.71585 0.55309 0.74038 0.0
H864 H 0.82873 0.6188 0.76047 0.0
H865 H 0.81989 0.60848 0.83436 0.0
C866 C 0.75779 0.56663 0.87248 0.0
C867 C 0.72372 0.54323 0.88819 0.0
C868 C 0.76279 0.57443 0.83027 0.0
C869 C 0.69443 0.52921 0.86137 0.0
C870 C 0.69914 0.53717 0.81943 0.0
C871 C 0.73852 0.56529 0.76092 0.0
C872 C 0.77295 0.58639 0.7448 0.0
C873 C 0.73328 0.55914 0.80341 0.0
C874 C 0.80196 0.60232 0.77196 0.0
C875 C 0.79694 0.59641 0.81426 0.0
H876 H 0.25443 0.44645 0.6442 0.0
H877 H 0.16462 0.45775 0.60902 0.0
H878 H 0.14444 0.44892 0.68038 0.0
H879 H 0.15446 0.44181 0.75341 0.0
H880 H 0.24436 0.43049 0.78816 0.0
H881 H 0.26224 0.43544 0.7163 0.0
C882 C 0.23027 0.44671 0.65201 0.0
C883 C 0.2113 0.45314 0.6213 0.0
C884 C 0.21897 0.44188 0.69312 0.0
C885 C 0.17989 0.45308 0.63203 0.0
C886 C 0.16837 0.44812 0.67288 0.0
C887 C 0.17789 0.44029 0.74526 0.0
C888 C 0.19825 0.43616 0.77623 0.0
C889 C 0.18807 0.44317 0.70379 0.0
C890 C 0.22827 0.4338 0.76503 0.0
C891 C 0.23857 0.43668 0.72391 0.0
H892 H 0.52409 0.74061 0.64267 0.0
H893 H 0.63763 0.79958 0.62484 0.0
H894 H 0.64668 0.80455 0.69941 0.0
H895 H 0.62198 0.7936 0.76987 0.0
H896 H 0.50813 0.73786 0.78632 0.0
H897 H 0.4996 0.73032 0.71226 0.0
C898 C 0.55085 0.75425 0.65506 0.0
C899 C 0.58016 0.7695 0.62824 0.0
C900 C 0.55578 0.75785 0.69781 0.0
C901 C 0.61463 0.78758 0.64485 0.0
C902 C 0.6198 0.79047 0.68747 0.0
C903 C 0.59533 0.77977 0.75721 0.0
C904 C 0.56576 0.76637 0.7837 0.0
C905 C 0.59054 0.77599 0.7143 0.0
C906 C 0.53139 0.74866 0.76674 0.0
C907 C 0.52645 0.7442 0.72432 0.0
H908 H 0.30349 0.85706 0.74863 0.0
H909 H 0.22422 0.75091 0.7849 0.0
H910 H 0.21119 0.73361 0.71306 0.0
H911 H 0.22343 0.74774 0.6402 0.0
H912 H 0.30219 0.85364 0.60277 0.0
H913 H 0.3139 0.87202 0.6748 0.0
C914 C 0.28341 0.83014 0.74079 0.0
C915 C 0.26508 0.80524 0.77216 0.0
C916 C 0.27582 0.82035 0.69924 0.0
C917 C 0.23881 0.7706 0.76145 0.0
C918 C 0.23131 0.76065 0.72033 0.0
C919 C 0.24303 0.77494 0.64769 0.0
C920 C 0.26206 0.79919 0.61612 0.0
C921 C 0.24978 0.7852 0.68902 0.0
C922 C 0.28717 0.83439 0.62646 0.0
C923 C 0.294 0.84488 0.66766 0.0
H924 H 0.62454 0.83829 0.1473 0.0
H925 H 0.51948 0.74653 0.13879 0.0
H926 H 0.51427 0.74441 0.21358 0.0
H927 H 0.5393 0.76897 0.28141 0.0
H928 H 0.64383 0.86166 0.28954 0.0
H929 H 0.64938 0.86302 0.21493 0.0
C930 C 0.60055 0.81771 0.16177 0.0
C931 C 0.5725 0.79255 0.13744 0.0
C932 C 0.59758 0.81685 0.20477 0.0
C933 C 0.54149 0.76625 0.15675 0.0
C934 C 0.53848 0.76501 0.19954 0.0
C935 C 0.56333 0.78943 0.26689 0.0
C936 C 0.59112 0.81509 0.29113 0.0
C937 C 0.56631 0.79023 0.22386 0.0
C938 C 0.62201 0.84152 0.27172 0.0
C939 C 0.62525 0.84234 0.229 0.0
H940 H 0.20745 0.79981 0.14367 0.0
H941 H 0.29483 0.7789 0.14569 0.0
H942 H 0.29407 0.77845 0.22066 0.0
H943 H 0.26707 0.78147 0.28552 0.0
H944 H 0.17806 0.79988 0.28367 0.0
H945 H 0.18108 0.80393 0.20878 0.0
C946 C 0.22653 0.79546 0.16051 0.0
C947 C 0.25114 0.78938 0.13909 0.0
C948 C 0.22556 0.79463 0.20366 0.0
C949 C 0.27551 0.78352 0.1614 0.0
C950 C 0.2751 0.78326 0.20429 0.0
C951 C 0.24848 0.78664 0.2688 0.0
C952 C 0.22237 0.79035 0.2902 0.0
C953 C 0.25001 0.7884 0.22572 0.0
C954 C 0.19838 0.79683 0.26797 0.0
C955 C 0.20008 0.79915 0.22513 0.0
H956 H 0.28655 0.42408 0.12751 0.0
H957 H 0.24721 0.49749 0.11424 0.0
H958 H 0.23536 0.49409 0.18749 0.0
H959 H 0.23697 0.47159 0.25566 0.0
H960 H 0.27572 0.39799 0.27069 0.0
H961 H 0.28676 0.40007 0.1967 0.0
C962 C 0.27533 0.43926 0.14065 0.0
C963 C 0.26795 0.4611 0.11515 0.0
C964 C 0.26844 0.43721 0.18324 0.0
C965 C 0.25327 0.48047 0.13285 0.0
C966 C 0.24645 0.4786 0.1749 0.0
C967 C 0.24777 0.4559 0.24285 0.0
C968 C 0.2556 0.43478 0.26883 0.0
C969 C 0.25407 0.45724 0.2004 0.0
C970 C 0.26946 0.41454 0.25149 0.0
C971 C 0.27584 0.41576 0.20913 0.0
H972 H 0.80069 0.5742 0.37524 0.0
H973 H 0.68914 0.49928 0.35798 0.0
H974 H 0.69725 0.50428 0.28354 0.0
H975 H 0.73632 0.52852 0.22341 0.0
H976 H 0.84812 0.60245 0.24084 0.0
H977 H 0.83955 0.59912 0.31517 0.0
C978 C 0.77806 0.55915 0.35524 0.0
C979 C 0.74433 0.53641 0.37224 0.0
C980 C 0.78299 0.56179 0.31247 0.0
C981 C 0.71539 0.51697 0.34578 0.0
C982 C 0.72001 0.51976 0.30317 0.0
C983 C 0.75883 0.54398 0.24343 0.0
C984 C 0.79283 0.56565 0.2265 0.0
C985 C 0.75376 0.54183 0.28619 0.0
C986 C 0.82167 0.58548 0.25297 0.0
C987 C 0.81679 0.58363 0.29552 0.0
H988 H 0.49319 0.23178 0.34917 0.0
H989 H 0.38171 0.19473 0.368 0.0
H990 H 0.37215 0.19098 0.29372 0.0
H991 H 0.39602 0.20058 0.22324 0.0
H992 H 0.50734 0.23616 0.20496 0.0
H993 H 0.51627 0.2379 0.27905 0.0
C994 C 0.46676 0.22274 0.33705 0.0
C995 C 0.43827 0.21377 0.36413 0.0
C996 C 0.46141 0.22041 0.29432 0.0
C997 C 0.40412 0.20176 0.34787 0.0
C998 C 0.39865 0.1997 0.30536 0.0
C999 C 0.42219 0.20851 0.23546 0.0
C1000 C 0.45098 0.21843 0.20848 0.0
C1001 C 0.42717 0.20931 0.27826 0.0
C1002 C 0.48466 0.22839 0.2249 0.0
C1003 C 0.48986 0.2295 0.26735 0.0
H1004 H 0.80756 0.26402 0.37792 0.0
H1005 H 0.70944 0.16363 0.3768 0.0
H1006 H 0.71694 0.15703 0.3036 0.0
H1007 H 0.74982 0.18112 0.23897 0.0
H1008 H 0.84754 0.28191 0.24012 0.0
H1009 H 0.84169 0.28685 0.314 0.0
C1010 C 0.78794 0.24053 0.3618 0.0
C1011 C 0.75787 0.21447 0.38295 0.0
C1012 C 0.7922 0.23705 0.31949 0.0
C1013 C 0.73277 0.18423 0.36139 0.0
C1014 C 0.737 0.18043 0.31942 0.0
C1015 C 0.76993 0.20412 0.25537 0.0
C1016 C 0.79897 0.2312 0.23378 0.0
C1017 C 0.76635 0.20692 0.298 0.0
C1018 C 0.82483 0.26069 0.25574 0.0
C1019 C 0.82152 0.26357 0.29809 0.0
loop_
_geom_bond_atom_site_label_1
_geom_bond_atom_site_label_2
_geom_bond_distance
_geom_bond_site_symmetry_2
_ccdc_geom_bond_type
O0 Tb1 2.292 1_556 S
O0 C3 1.255 . S
Tb1 O0 2.292 1_554 S
Tb1 O17 2.326 . S
Tb1 O19 2.500 1_554 S
Tb1 O20 2.473 . S
Tb1 O23 2.324 . S
Eu2 O6 2.292 . S
Eu2 C7 2.852 . S
Eu2 O18 2.324 . S
Eu2 O22 2.326 . S
Eu2 O24 2.500 . S
Eu2 O25 2.473 . S
C3 O0 1.255 . S
C3 O4 1.247 . S
O4 C3 1.247 . S
C5 O17 1.242 . S
C5 O18 1.258 . S
O6 Eu2 2.292 . S
O6 C8 1.255 . S
C7 Eu2 2.852 . S
C7 C11 1.503 . S
C7 O24 1.273 . S
C7 O25 1.257 . S
C8 O6 1.255 . S
C8 O9 1.247 . S
O9 C8 1.247 . S
C10 O22 1.242 . S
C10 O23 1.258 . S
C11 C7 1.503 . S
C11 C12 1.379 . S
C11 C16 1.392 . S
C12 C11 1.379 . S
C12 C13 1.404 . S
C12 H26 0.929 . S
C13 C12 1.404 . S
C13 C14 1.389 . S
C14 C13 1.389 . S
C14 C15 1.399 . S
C14 H27 0.931 . S
C15 C14 1.399 . S
C15 C16 1.390 . S
C16 C11 1.392 . S
C16 C15 1.390 . S
C16 H28 0.929 . S
O17 Tb1 2.326 . S
O17 C5 1.242 . S
O18 Eu2 2.324 . S
O18 C5 1.258 . S
O19 Tb1 2.500 1_556 S
O19 C21 1.273 1_556 S
O20 Tb1 2.473 . S
O20 C21 1.257 . S
C21 O19 1.273 1_554 S
C21 O20 1.257 . S
O22 Eu2 2.326 . S
O22 C10 1.242 . S
O23 Tb1 2.324 . S
O23 C10 1.258 . S
O24 Eu2 2.500 . S
O24 C7 1.273 . S
O25 Eu2 2.473 . S
O25 C7 1.257 . S
H26 C12 0.929 . S
H27 C14 0.931 . S
H28 C16 0.929 . S
O29 Tb30 2.292 1_556 S
O29 C32 1.255 . S
Tb30 O29 2.292 1_554 S
Tb30 O46 2.326 . S
Tb30 O48 2.500 1_554 S
Tb30 O49 2.473 . S
Tb30 O52 2.324 . S
Eu31 O35 2.292 . S
Eu31 C36 2.852 . S
Eu31 O47 2.324 . S
Eu31 O51 2.326 . S
Eu31 O53 2.500 . S
Eu31 O54 2.473 . S
C32 O29 1.255 . S
C32 O33 1.247 . S
O33 C32 1.247 . S
C34 O46 1.242 . S
C34 O47 1.258 . S
O35 Eu31 2.292 . S
O35 C37 1.255 . S
C36 Eu31 2.852 . S
C36 C40 1.503 . S
C36 O53 1.273 . S
C36 O54 1.257 . S
C37 O35 1.255 . S
C37 O38 1.247 . S
O38 C37 1.247 . S
C39 O51 1.242 . S
C39 O52 1.258 . S
C40 C36 1.503 . S
C40 C41 1.379 . S
C40 C45 1.392 . S
C41 C40 1.379 . S
C41 C42 1.404 . S
C41 H55 0.929 . S
C42 C41 1.404 . S
C42 C43 1.389 . S
C43 C42 1.389 . S
C43 C44 1.399 . S
C43 H56 0.931 . S
C44 C43 1.399 . S
C44 C45 1.390 . S
C45 C40 1.392 . S
C45 C44 1.390 . S
C45 H57 0.929 . S
O46 Tb30 2.326 . S
O46 C34 1.242 . S
O47 Eu31 2.324 . S
O47 C34 1.258 . S
O48 Tb30 2.500 1_556 S
O48 C50 1.273 1_556 S
O49 Tb30 2.473 . S
O49 C50 1.257 . S
C50 O48 1.273 1_554 S
C50 O49 1.257 . S
O51 Eu31 2.326 . S
O51 C39 1.242 . S
O52 Tb30 2.324 . S
O52 C39 1.258 . S
O53 Eu31 2.500 . S
O53 C36 1.273 . S
O54 Eu31 2.473 . S
O54 C36 1.257 . S
H55 C41 0.929 . S
H56 C43 0.931 . S
H57 C45 0.929 . S
O58 Tb59 2.292 1_556 S
O58 C61 1.255 . S
Tb59 O58 2.292 1_554 S
Tb59 O75 2.326 . S
Tb59 O77 2.500 1_554 S
Tb59 O78 2.473 . S
Tb59 O81 2.324 . S
Eu60 O64 2.292 . S
Eu60 C65 2.852 . S
Eu60 O76 2.324 . S
Eu60 O80 2.326 . S
Eu60 O82 2.500 . S
Eu60 O83 2.473 . S
C61 O58 1.255 . S
C61 O62 1.247 . S
O62 C61 1.247 . S
C63 O75 1.242 . S
C63 O76 1.258 . S
O64 Eu60 2.292 . S
O64 C66 1.255 . S
C65 Eu60 2.852 . S
C65 C69 1.503 . S
C65 O82 1.273 . S
C65 O83 1.257 . S
C66 O64 1.255 . S
C66 O67 1.247 . S
O67 C66 1.247 . S
C68 O80 1.242 . S
C68 O81 1.258 . S
C69 C65 1.503 . S
C69 C70 1.379 . S
C69 C74 1.392 . S
C70 C69 1.379 . S
C70 C71 1.404 . S
C70 H84 0.929 . S
C71 C70 1.404 . S
C71 C72 1.389 . S
C72 C71 1.389 . S
C72 C73 1.399 . S
C72 H85 0.931 . S
C73 C72 1.399 . S
C73 C74 1.390 . S
C74 C69 1.392 . S
C74 C73 1.390 . S
C74 H86 0.929 . S
O75 Tb59 2.326 . S
O75 C63 1.242 . S
O76 Eu60 2.324 . S
O76 C63 1.258 . S
O77 Tb59 2.500 1_556 S
O77 C79 1.273 1_556 S
O78 Tb59 2.473 . S
O78 C79 1.257 . S
C79 O77 1.273 1_554 S
C79 O78 1.257 . S
O80 Eu60 2.326 . S
O80 C68 1.242 . S
O81 Tb59 2.324 . S
O81 C68 1.258 . S
O82 Eu60 2.500 . S
O82 C65 1.273 . S
O83 Eu60 2.473 . S
O83 C65 1.257 . S
H84 C70 0.929 . S
H85 C72 0.931 . S
H86 C74 0.929 . S
O87 Tb88 2.292 . S
O87 C90 1.255 . S
Tb88 O87 2.292 . S
Tb88 O104 2.326 . S
Tb88 O106 2.500 . S
Tb88 O107 2.473 . S
Tb88 O110 2.324 . S
Eu89 O93 2.292 . S
Eu89 C94 2.852 . S
Eu89 O105 2.324 . S
Eu89 O109 2.326 . S
Eu89 O111 2.500 . S
Eu89 O112 2.473 . S
C90 O87 1.255 . S
C90 O91 1.247 . S
O91 C90 1.247 . S
C92 O104 1.242 . S
C92 O105 1.258 . S
O93 Eu89 2.292 . S
O93 C95 1.255 . S
C94 Eu89 2.852 . S
C94 C98 1.503 . S
C94 O111 1.273 . S
C94 O112 1.257 . S
C95 O93 1.255 . S
C95 O96 1.247 . S
O96 C95 1.247 . S
C97 O109 1.242 . S
C97 O110 1.258 . S
C98 C94 1.503 . S
C98 C99 1.379 . S
C98 C103 1.392 . S
C99 C98 1.379 . S
C99 C100 1.404 . S
C99 H113 0.929 . S
C100 C99 1.404 . S
C100 C101 1.389 . S
C101 C100 1.389 . S
C101 C102 1.399 . S
C101 H114 0.931 . S
C102 C101 1.399 . S
C102 C103 1.390 . S
C103 C98 1.392 . S
C103 C102 1.390 . S
C103 H115 0.929 . S
O104 Tb88 2.326 . S
O104 C92 1.242 . S
O105 Eu89 2.324 . S
O105 C92 1.258 . S
O106 Tb88 2.500 . S
O106 C108 1.273 . S
O107 Tb88 2.473 . S
O107 C108 1.257 . S
C108 O106 1.273 . S
C108 O107 1.257 . S
O109 Eu89 2.326 . S
O109 C97 1.242 . S
O110 Tb88 2.324 . S
O110 C97 1.258 . S
O111 Eu89 2.500 . S
O111 C94 1.273 . S
O112 Eu89 2.473 . S
O112 C94 1.257 . S
H113 C99 0.929 . S
H114 C101 0.931 . S
H115 C103 0.929 . S
O116 Tb117 2.292 . S
O116 C119 1.255 . S
Tb117 O116 2.292 . S
Tb117 O133 2.326 . S
Tb117 O135 2.500 . S
Tb117 O136 2.473 . S
Tb117 O139 2.324 . S
Eu118 O122 2.292 . S
Eu118 C123 2.852 . S
Eu118 O134 2.324 . S
Eu118 O138 2.326 . S
Eu118 O140 2.500 . S
Eu118 O141 2.473 . S
C119 O116 1.255 . S
C119 O120 1.247 . S
O120 C119 1.247 . S
C121 O133 1.242 . S
C121 O134 1.258 . S
O122 Eu118 2.292 . S
O122 C124 1.255 . S
C123 Eu118 2.852 . S
C123 C127 1.503 . S
C123 O140 1.273 . S
C123 O141 1.257 . S
C124 O122 1.255 . S
C124 O125 1.247 . S
O125 C124 1.247 . S
C126 O138 1.242 . S
C126 O139 1.258 . S
C127 C123 1.503 . S
C127 C128 1.379 . S
C127 C132 1.392 . S
C128 C127 1.379 . S
C128 C129 1.404 . S
C128 H142 0.929 . S
C129 C128 1.404 . S
C129 C130 1.389 . S
C130 C129 1.389 . S
C130 C131 1.399 . S
C130 H143 0.931 . S
C131 C130 1.399 . S
C131 C132 1.390 . S
C132 C127 1.392 . S
C132 C131 1.390 . S
C132 H144 0.929 . S
O133 Tb117 2.326 . S
O133 C121 1.242 . S
O134 Eu118 2.324 . S
O134 C121 1.258 . S
O135 Tb117 2.500 . S
O135 C137 1.273 . S
O136 Tb117 2.473 . S
O136 C137 1.257 . S
C137 O135 1.273 . S
C137 O136 1.257 . S
O138 Eu118 2.326 . S
O138 C126 1.242 . S
O139 Tb117 2.324 . S
O139 C126 1.258 . S
O140 Eu118 2.500 . S
O140 C123 1.273 . S
O141 Eu118 2.473 . S
O141 C123 1.257 . S
H142 C128 0.929 . S
H143 C130 0.931 . S
H144 C132 0.929 . S
O145 Tb146 2.292 . S
O145 C148 1.255 . S
Tb146 O145 2.292 . S
Tb146 O162 2.326 . S
Tb146 O164 2.500 . S
Tb146 O165 2.473 . S
Tb146 O168 2.324 . S
Eu147 O151 2.292 . S
Eu147 C152 2.852 . S
Eu147 O163 2.324 . S
Eu147 O167 2.326 . S
Eu147 O169 2.500 . S
Eu147 O170 2.473 . S
C148 O145 1.255 . S
C148 O149 1.247 . S
O149 C148 1.247 . S
C150 O162 1.242 . S
C150 O163 1.258 . S
O151 Eu147 2.292 . S
O151 C153 1.255 . S
C152 Eu147 2.852 . S
C152 C156 1.503 . S
C152 O169 1.273 . S
C152 O170 1.257 . S
C153 O151 1.255 . S
C153 O154 1.247 . S
O154 C153 1.247 . S
C155 O167 1.242 . S
C155 O168 1.258 . S
C156 C152 1.503 . S
C156 C157 1.379 . S
C156 C161 1.392 . S
C157 C156 1.379 . S
C157 C158 1.404 . S
C157 H171 0.929 . S
C158 C157 1.404 . S
C158 C159 1.389 . S
C159 C158 1.389 . S
C159 C160 1.399 . S
C159 H172 0.931 . S
C160 C159 1.399 . S
C160 C161 1.390 . S
C161 C156 1.392 . S
C161 C160 1.390 . S
C161 H173 0.929 . S
O162 Tb146 2.326 . S
O162 C150 1.242 . S
O163 Eu147 2.324 . S
O163 C150 1.258 . S
O164 Tb146 2.500 . S
O164 C166 1.273 . S
O165 Tb146 2.473 . S
O165 C166 1.257 . S
C166 O164 1.273 . S
C166 O165 1.257 . S
O167 Eu147 2.326 . S
O167 C155 1.242 . S
O168 Tb146 2.324 . S
O168 C155 1.258 . S
O169 Eu147 2.500 . S
O169 C152 1.273 . S
O170 Eu147 2.473 . S
O170 C152 1.257 . S
H171 C157 0.929 . S
H172 C159 0.931 . S
H173 C161 0.929 . S
O174 Tb175 2.292 1_554 S
O174 C177 1.255 . S
Tb175 O174 2.292 1_556 S
Tb175 O191 2.326 . S
Tb175 O193 2.500 1_556 S
Tb175 O194 2.473 . S
Tb175 O197 2.324 . S
Eu176 O180 2.292 . S
Eu176 C181 2.852 . S
Eu176 O192 2.324 . S
Eu176 O196 2.326 . S
Eu176 O198 2.500 . S
Eu176 O199 2.473 . S
C177 O174 1.255 . S
C177 O178 1.247 . S
O178 C177 1.247 . S
C179 O191 1.242 . S
C179 O192 1.258 . S
O180 Eu176 2.292 . S
O180 C182 1.255 . S
C181 Eu176 2.852 . S
C181 C185 1.503 . S
C181 O198 1.273 . S
C181 O199 1.257 . S
C182 O180 1.255 . S
C182 O183 1.247 . S
O183 C182 1.247 . S
C184 O196 1.242 . S
C184 O197 1.258 . S
C185 C181 1.503 . S
C185 C186 1.379 . S
C185 C190 1.392 . S
C186 C185 1.379 . S
C186 C187 1.404 . S
C186 H200 0.929 . S
C187 C186 1.404 . S
C187 C188 1.389 . S
C188 C187 1.389 . S
C188 C189 1.399 . S
C188 H201 0.931 . S
C189 C188 1.399 . S
C189 C190 1.390 . S
C190 C185 1.392 . S
C190 C189 1.390 . S
C190 H202 0.929 . S
O191 Tb175 2.326 . S
O191 C179 1.242 . S
O192 Eu176 2.324 . S
O192 C179 1.258 . S
O193 Tb175 2.500 1_554 S
O193 C195 1.273 1_554 S
O194 Tb175 2.473 . S
O194 C195 1.257 . S
C195 O193 1.273 1_556 S
C195 O194 1.257 . S
O196 Eu176 2.326 . S
O196 C184 1.242 . S
O197 Tb175 2.324 . S
O197 C184 1.258 . S
O198 Eu176 2.500 . S
O198 C181 1.273 . S
O199 Eu176 2.473 . S
O199 C181 1.257 . S
H200 C186 0.929 . S
H201 C188 0.931 . S
H202 C190 0.929 . S
O203 Tb204 2.292 1_554 S
O203 C206 1.255 . S
Tb204 O203 2.292 1_556 S
Tb204 O220 2.326 . S
Tb204 O222 2.500 1_556 S
Tb204 O223 2.473 . S
Tb204 O226 2.324 . S
Eu205 O209 2.292 . S
Eu205 C210 2.852 . S
Eu205 O221 2.324 . S
Eu205 O225 2.326 . S
Eu205 O227 2.500 . S
Eu205 O228 2.473 . S
C206 O203 1.255 . S
C206 O207 1.247 . S
O207 C206 1.247 . S
C208 O220 1.242 . S
C208 O221 1.258 . S
O209 Eu205 2.292 . S
O209 C211 1.255 . S
C210 Eu205 2.852 . S
C210 C214 1.503 . S
C210 O227 1.273 . S
C210 O228 1.257 . S
C211 O209 1.255 . S
C211 O212 1.247 . S
O212 C211 1.247 . S
C213 O225 1.242 . S
C213 O226 1.258 . S
C214 C210 1.503 . S
C214 C215 1.379 . S
C214 C219 1.392 . S
C215 C214 1.379 . S
C215 C216 1.404 . S
C215 H229 0.929 . S
C216 C215 1.404 . S
C216 C217 1.389 . S
C217 C216 1.389 . S
C217 C218 1.399 . S
C217 H230 0.931 . S
C218 C217 1.399 . S
C218 C219 1.390 . S
C219 C214 1.392 . S
C219 C218 1.390 . S
C219 H231 0.929 . S
O220 Tb204 2.326 . S
O220 C208 1.242 . S
O221 Eu205 2.324 . S
O221 C208 1.258 . S
O222 Tb204 2.500 1_554 S
O222 C224 1.273 1_554 S
O223 Tb204 2.473 . S
O223 C224 1.257 . S
C224 O222 1.273 1_556 S
C224 O223 1.257 . S
O225 Eu205 2.326 . S
O225 C213 1.242 . S
O226 Tb204 2.324 . S
O226 C213 1.258 . S
O227 Eu205 2.500 . S
O227 C210 1.273 . S
O228 Eu205 2.473 . S
O228 C210 1.257 . S
H229 C215 0.929 . S
H230 C217 0.931 . S
H231 C219 0.929 . S
O232 Tb233 2.292 1_554 S
O232 C235 1.255 . S
Tb233 O232 2.292 1_556 S
Tb233 O249 2.326 . S
Tb233 O251 2.500 1_556 S
Tb233 O252 2.473 . S
Tb233 O255 2.324 . S
Eu234 O238 2.292 . S
Eu234 C239 2.852 . S
Eu234 O250 2.324 . S
Eu234 O254 2.326 . S
Eu234 O256 2.500 . S
Eu234 O257 2.473 . S
C235 O232 1.255 . S
C235 O236 1.247 . S
O236 C235 1.247 . S
C237 O249 1.242 . S
C237 O250 1.258 . S
O238 Eu234 2.292 . S
O238 C240 1.255 . S
C239 Eu234 2.852 . S
C239 C243 1.503 . S
C239 O256 1.273 . S
C239 O257 1.257 . S
C240 O238 1.255 . S
C240 O241 1.247 . S
O241 C240 1.247 . S
C242 O254 1.242 . S
C242 O255 1.258 . S
C243 C239 1.503 . S
C243 C244 1.379 . S
C243 C248 1.392 . S
C244 C243 1.379 . S
C244 C245 1.404 . S
C244 H258 0.929 . S
C245 C244 1.404 . S
C245 C246 1.389 . S
C246 C245 1.389 . S
C246 C247 1.399 . S
C246 H259 0.931 . S
C247 C246 1.399 . S
C247 C248 1.390 . S
C248 C243 1.392 . S
C248 C247 1.390 . S
C248 H260 0.929 . S
O249 Tb233 2.326 . S
O249 C237 1.242 . S
O250 Eu234 2.324 . S
O250 C237 1.258 . S
O251 Tb233 2.500 1_554 S
O251 C253 1.273 1_554 S
O252 Tb233 2.473 . S
O252 C253 1.257 . S
C253 O251 1.273 1_556 S
C253 O252 1.257 . S
O254 Eu234 2.326 . S
O254 C242 1.242 . S
O255 Tb233 2.324 . S
O255 C242 1.258 . S
O256 Eu234 2.500 . S
O256 C239 1.273 . S
O257 Eu234 2.473 . S
O257 C239 1.257 . S
H258 C244 0.929 . S
H259 C246 0.931 . S
H260 C248 0.929 . S
O261 Tb262 2.292 . S
O261 C264 1.255 . S
Tb262 O261 2.292 . S
Tb262 O278 2.326 . S
Tb262 O280 2.500 . S
Tb262 O281 2.473 . S
Tb262 O284 2.324 . S
Eu263 O267 2.292 . S
Eu263 C268 2.852 . S
Eu263 O279 2.324 . S
Eu263 O283 2.326 . S
Eu263 O285 2.500 . S
Eu263 O286 2.473 . S
C264 O261 1.255 . S
C264 O265 1.247 . S
O265 C264 1.247 . S
C266 O278 1.242 . S
C266 O279 1.258 . S
O267 Eu263 2.292 . S
O267 C269 1.255 . S
C268 Eu263 2.852 . S
C268 C272 1.503 . S
C268 O285 1.273 . S
C268 O286 1.257 . S
C269 O267 1.255 . S
C269 O270 1.247 . S
O270 C269 1.247 . S
C271 O283 1.242 . S
C271 O284 1.258 . S
C272 C268 1.503 . S
C272 C273 1.379 . S
C272 C277 1.392 . S
C273 C272 1.379 . S
C273 C274 1.404 . S
C273 H287 0.929 . S
C274 C273 1.404 . S
C274 C275 1.389 . S
C275 C274 1.389 . S
C275 C276 1.399 . S
C275 H288 0.931 . S
C276 C275 1.399 . S
C276 C277 1.390 . S
C277 C272 1.392 . S
C277 C276 1.390 . S
C277 H289 0.929 . S
O278 Tb262 2.326 . S
O278 C266 1.242 . S
O279 Eu263 2.324 . S
O279 C266 1.258 . S
O280 Tb262 2.500 . S
O280 C282 1.273 . S
O281 Tb262 2.473 . S
O281 C282 1.257 . S
C282 O280 1.273 . S
C282 O281 1.257 . S
O283 Eu263 2.326 . S
O283 C271 1.242 . S
O284 Tb262 2.324 . S
O284 C271 1.258 . S
O285 Eu263 2.500 . S
O285 C268 1.273 . S
O286 Eu263 2.473 . S
O286 C268 1.257 . S
H287 C273 0.929 . S
H288 C275 0.931 . S
H289 C277 0.929 . S
O290 Tb291 2.292 . S
O290 C293 1.255 . S
Tb291 O290 2.292 . S
Tb291 O307 2.326 . S
Tb291 O309 2.500 . S
Tb291 O310 2.473 . S
Tb291 O313 2.324 . S
Eu292 O296 2.292 . S
Eu292 C297 2.852 . S
Eu292 O308 2.324 . S
Eu292 O312 2.326 . S
Eu292 O314 2.500 . S
Eu292 O315 2.473 . S
C293 O290 1.255 . S
C293 O294 1.247 . S
O294 C293 1.247 . S
C295 O307 1.242 . S
C295 O308 1.258 . S
O296 Eu292 2.292 . S
O296 C298 1.255 . S
C297 Eu292 2.852 . S
C297 C301 1.503 . S
C297 O314 1.273 . S
C297 O315 1.257 . S
C298 O296 1.255 . S
C298 O299 1.247 . S
O299 C298 1.247 . S
C300 O312 1.242 . S
C300 O313 1.258 . S
C301 C297 1.503 . S
C301 C302 1.379 . S
C301 C306 1.392 . S
C302 C301 1.379 . S
C302 C303 1.404 . S
C302 H316 0.929 . S
C303 C302 1.404 . S
C303 C304 1.389 . S
C304 C303 1.389 . S
C304 C305 1.399 . S
C304 H317 0.931 . S
C305 C304 1.399 . S
C305 C306 1.390 . S
C306 C301 1.392 . S
C306 C305 1.390 . S
C306 H318 0.929 . S
O307 Tb291 2.326 . S
O307 C295 1.242 . S
O308 Eu292 2.324 . S
O308 C295 1.258 . S
O309 Tb291 2.500 . S
O309 C311 1.273 . S
O310 Tb291 2.473 . S
O310 C311 1.257 . S
C311 O309 1.273 . S
C311 O310 1.257 . S
O312 Eu292 2.326 . S
O312 C300 1.242 . S
O313 Tb291 2.324 . S
O313 C300 1.258 . S
O314 Eu292 2.500 . S
O314 C297 1.273 . S
O315 Eu292 2.473 . S
O315 C297 1.257 . S
H316 C302 0.929 . S
H317 C304 0.931 . S
H318 C306 0.929 . S
O319 Tb320 2.292 . S
O319 C322 1.255 . S
Tb320 O319 2.292 . S
Tb320 O336 2.326 . S
Tb320 O338 2.500 . S
Tb320 O339 2.473 . S
Tb320 O342 2.324 . S
Eu321 O325 2.292 . S
Eu321 C326 2.852 . S
Eu321 O337 2.324 . S
Eu321 O341 2.326 . S
Eu321 O343 2.500 . S
Eu321 O344 2.473 . S
C322 O319 1.255 . S
C322 O323 1.247 . S
O323 C322 1.247 . S
C324 O336 1.242 . S
C324 O337 1.258 . S
O325 Eu321 2.292 . S
O325 C327 1.255 . S
C326 Eu321 2.852 . S
C326 C330 1.503 . S
C326 O343 1.273 . S
C326 O344 1.257 . S
C327 O325 1.255 . S
C327 O328 1.247 . S
O328 C327 1.247 . S
C329 O341 1.242 . S
C329 O342 1.258 . S
C330 C326 1.503 . S
C330 C331 1.379 . S
C330 C335 1.392 . S
C331 C330 1.379 . S
C331 C332 1.404 . S
C331 H345 0.929 . S
C332 C331 1.404 . S
C332 C333 1.389 . S
C333 C332 1.389 . S
C333 C334 1.399 . S
C333 H346 0.931 . S
C334 C333 1.399 . S
C334 C335 1.390 . S
C335 C330 1.392 . S
C335 C334 1.390 . S
C335 H347 0.929 . S
O336 Tb320 2.326 . S
O336 C324 1.242 . S
O337 Eu321 2.324 . S
O337 C324 1.258 . S
O338 Tb320 2.500 . S
O338 C340 1.273 . S
O339 Tb320 2.473 . S
O339 C340 1.257 . S
C340 O338 1.273 . S
C340 O339 1.257 . S
O341 Eu321 2.326 . S
O341 C329 1.242 . S
O342 Tb320 2.324 . S
O342 C329 1.258 . S
O343 Eu321 2.500 . S
O343 C326 1.273 . S
O344 Eu321 2.473 . S
O344 C326 1.257 . S
H345 C331 0.929 . S
H346 C333 0.931 . S
H347 C335 0.929 . S
H348 C354 0.930 . S
H349 C357 0.930 1_565 S
H350 C358 0.930 . S
H351 C359 0.930 . S
H352 C362 0.930 . S
H353 C363 0.930 . S
C354 H348 0.930 . S
C354 C355 1.331 1_545 S
C354 C356 1.415 . S
C355 C354 1.331 1_565 S
C355 C357 1.425 1_565 S
C356 C354 1.415 . S
C356 C361 1.425 1_556 S
C356 C363 1.409 . S
C357 H349 0.930 1_545 S
C357 C355 1.425 1_545 S
C357 C358 1.362 1_556 S
C358 H350 0.930 . S
C358 C357 1.362 1_554 S
C358 C361 1.409 . S
C359 H351 0.930 . S
C359 C360 1.355 . S
C359 C361 1.415 . S
C360 C359 1.355 . S
C360 C362 1.419 . S
C361 C356 1.425 1_554 S
C361 C358 1.409 . S
C361 C359 1.415 . S
C362 H352 0.930 . S
C362 C360 1.419 . S
C362 C363 1.362 1_554 S
C363 H353 0.930 . S
C363 C356 1.409 . S
C363 C362 1.362 1_556 S
H364 C370 0.930 . S
H365 C373 0.930 . S
H366 C374 0.930 . S
H367 C375 0.930 . S
H368 C378 0.930 1_455 S
H369 C379 0.930 . S
C370 H364 0.930 . S
C370 C371 1.355 . S
C370 C372 1.414 . S
C371 C370 1.355 . S
C371 C373 1.419 . S
C372 C370 1.414 . S
C372 C377 1.425 1_554 S
C372 C379 1.410 1_554 S
C373 H365 0.930 . S
C373 C371 1.419 . S
C373 C374 1.362 . S
C374 H366 0.930 . S
C374 C373 1.362 . S
C374 C377 1.409 1_554 S
C375 H367 0.930 . S
C375 C376 1.355 1_655 S
C375 C377 1.415 . S
C376 C375 1.355 1_455 S
C376 C378 1.419 1_455 S
C377 C372 1.425 1_556 S
C377 C374 1.409 1_556 S
C377 C375 1.415 . S
C378 H368 0.930 1_655 S
C378 C376 1.419 1_655 S
C378 C379 1.362 . S
C379 H369 0.930 . S
C379 C372 1.410 1_556 S
C379 C378 1.362 . S
H380 C386 0.930 . S
H381 C389 0.930 . S
H382 C390 0.930 . S
H383 C391 0.930 . S
H384 C394 0.930 . S
H385 C395 0.930 . S
C386 H380 0.930 . S
C386 C387 1.355 . S
C386 C388 1.415 1_554 S
C387 C386 1.355 . S
C387 C389 1.419 . S
C388 C386 1.415 1_556 S
C388 C393 1.425 1_556 S
C388 C395 1.409 . S
C389 H381 0.930 . S
C389 C387 1.419 . S
C389 C390 1.362 . S
C390 H382 0.930 . S
C390 C389 1.362 . S
C390 C393 1.409 . S
C391 H383 0.930 . S
C391 C392 1.355 . S
C391 C393 1.415 1_556 S
C392 C391 1.355 . S
C392 C394 1.419 . S
C393 C388 1.425 1_554 S
C393 C390 1.409 . S
C393 C391 1.415 1_554 S
C394 H384 0.930 . S
C394 C392 1.419 . S
C394 C395 1.362 . S
C395 H385 0.930 . S
C395 C388 1.409 . S
C395 C394 1.362 . S
H396 C402 0.930 . S
H397 C405 0.930 . S
H398 C406 0.930 . S
H399 C407 0.930 . S
H400 C410 0.930 1_655 S
H401 C411 0.930 . S
C402 H396 0.930 . S
C402 C403 1.355 . S
C402 C404 1.415 . S
C403 C402 1.355 . S
C403 C405 1.419 . S
C404 C402 1.415 . S
C404 C409 1.425 . S
C404 C411 1.409 . S
C405 H397 0.930 . S
C405 C403 1.419 . S
C405 C406 1.362 . S
C406 H398 0.930 . S
C406 C405 1.362 . S
C406 C409 1.409 . S
C407 H399 0.930 . S
C407 C408 1.355 1_455 S
C407 C409 1.415 . S
C408 C407 1.355 1_655 S
C408 C410 1.419 1_655 S
C409 C404 1.425 . S
C409 C406 1.409 . S
C409 C407 1.415 . S
C410 H400 0.930 1_455 S
C410 C408 1.419 1_455 S
C410 C411 1.362 . S
C411 H401 0.930 . S
C411 C404 1.409 . S
C411 C410 1.362 . S
H412 C418 0.930 . S
H413 C421 0.930 . S
H414 C422 0.930 . S
H415 C423 0.930 . S
H416 C426 0.930 . S
H417 C427 0.930 . S
C418 H412 0.930 . S
C418 C419 1.355 . S
C418 C420 1.415 . S
C419 C418 1.355 . S
C419 C421 1.419 . S
C420 C418 1.415 . S
C420 C425 1.425 . S
C420 C427 1.409 . S
C421 H413 0.930 . S
C421 C419 1.419 . S
C421 C422 1.362 . S
C422 H414 0.930 . S
C422 C421 1.362 . S
C422 C425 1.409 . S
C423 H415 0.930 . S
C423 C424 1.355 . S
C423 C425 1.415 . S
C424 C423 1.355 . S
C424 C426 1.419 . S
C425 C420 1.425 . S
C425 C422 1.409 . S
C425 C423 1.415 . S
C426 H416 0.930 . S
C426 C424 1.419 . S
C426 C427 1.362 . S
C427 H417 0.930 . S
C427 C420 1.409 . S
C427 C426 1.362 . S
H428 C434 0.930 . S
H429 C437 0.930 . S
H430 C438 0.930 . S
H431 C439 0.930 . S
H432 C442 0.930 1_545 S
H433 C443 0.930 . S
C434 H428 0.930 . S
C434 C435 1.355 . S
C434 C436 1.415 . S
C435 C434 1.355 . S
C435 C437 1.419 . S
C436 C434 1.415 . S
C436 C441 1.425 . S
C436 C443 1.409 . S
C437 H429 0.930 . S
C437 C435 1.419 . S
C437 C438 1.362 . S
C438 H430 0.930 . S
C438 C437 1.362 . S
C438 C441 1.409 . S
C439 H431 0.930 . S
C439 C440 1.355 1_565 S
C439 C441 1.415 . S
C440 C439 1.355 1_545 S
C440 C442 1.419 1_545 S
C441 C436 1.425 . S
C441 C438 1.409 . S
C441 C439 1.415 . S
C442 H432 0.930 1_565 S
C442 C440 1.419 1_565 S
C442 C443 1.362 . S
C443 H433 0.930 . S
C443 C436 1.409 . S
C443 C442 1.362 . S
H444 C450 0.930 1_554 S
H445 C453 0.930 . S
H446 C454 0.930 . S
H447 C455 0.930 1_556 S
H448 C458 0.930 . S
H449 C459 0.930 . S
C450 H444 0.930 1_556 S
C450 C451 1.355 . S
C450 C452 1.415 1_556 S
C451 C450 1.355 . S
C451 C453 1.419 . S
C452 C450 1.415 1_554 S
C452 C457 1.425 1_554 S
C452 C459 1.409 . S
C453 H445 0.930 . S
C453 C451 1.419 . S
C453 C454 1.362 . S
C454 H446 0.930 . S
C454 C453 1.362 . S
C454 C457 1.409 . S
C455 H447 0.930 1_554 S
C455 C456 1.353 . S
C455 C457 1.415 1_554 S
C456 C455 1.353 . S
C456 C458 1.419 . S
C457 C452 1.425 1_556 S
C457 C454 1.409 . S
C457 C455 1.415 1_556 S
C458 H448 0.930 . S
C458 C456 1.419 . S
C458 C459 1.362 . S
C459 H449 0.930 . S
C459 C452 1.409 . S
C459 C458 1.362 . S
H460 C466 0.930 . S
H461 C469 0.930 . S
H462 C470 0.930 . S
H463 C471 0.930 . S
H464 C474 0.930 . S
H465 C475 0.930 . S
C466 H460 0.930 . S
C466 C467 1.355 . S
C466 C468 1.415 1_556 S
C467 C466 1.355 . S
C467 C469 1.419 . S
C468 C466 1.415 1_554 S
C468 C473 1.425 1_554 S
C468 C475 1.409 . S
C469 H461 0.930 . S
C469 C467 1.419 . S
C469 C470 1.362 . S
C470 H462 0.930 . S
C470 C469 1.362 . S
C470 C473 1.413 . S
C471 H463 0.930 . S
C471 C472 1.354 1_455 S
C471 C473 1.412 1_554 S
C472 C471 1.354 1_655 S
C472 C474 1.414 1_655 S
C473 C468 1.425 1_556 S
C473 C470 1.413 . S
C473 C471 1.412 1_556 S
C474 H464 0.930 . S
C474 C472 1.414 1_455 S
C474 C475 1.362 . S
C475 H465 0.930 . S
C475 C468 1.409 . S
C475 C474 1.362 . S
H476 C482 0.930 1_556 S
H477 C485 0.930 . S
H478 C486 0.930 . S
H479 C487 0.930 1_554 S
H480 C490 0.930 . S
H481 C491 0.930 . S
C482 H476 0.930 1_554 S
C482 C483 1.355 . S
C482 C484 1.415 1_554 S
C483 C482 1.355 . S
C483 C485 1.419 . S
C484 C482 1.415 1_556 S
C484 C489 1.425 1_556 S
C484 C491 1.409 . S
C485 H477 0.930 . S
C485 C483 1.419 . S
C485 C486 1.362 . S
C486 H478 0.930 . S
C486 C485 1.362 . S
C486 C489 1.409 . S
C487 H479 0.930 1_556 S
C487 C488 1.355 . S
C487 C489 1.415 1_556 S
C488 C487 1.355 . S
C488 C490 1.419 . S
C489 C484 1.425 1_554 S
C489 C486 1.409 . S
C489 C487 1.415 1_554 S
C490 H480 0.930 . S
C490 C488 1.419 . S
C490 C491 1.362 . S
C491 H481 0.930 . S
C491 C484 1.409 . S
C491 C490 1.362 . S
H492 C498 0.930 . S
H493 C501 0.930 . S
H494 C502 0.930 . S
H495 C503 0.930 . S
H496 C506 0.930 . S
H497 C507 0.930 . S
C498 H492 0.930 . S
C498 C499 1.355 . S
C498 C500 1.415 . S
C499 C498 1.355 . S
C499 C501 1.419 . S
C500 C498 1.415 . S
C500 C505 1.425 . S
C500 C507 1.409 . S
C501 H493 0.930 . S
C501 C499 1.419 . S
C501 C502 1.362 . S
C502 H494 0.930 . S
C502 C501 1.362 . S
C502 C505 1.409 . S
C503 H495 0.930 . S
C503 C504 1.350 1_655 S
C503 C505 1.415 . S
C504 C503 1.350 1_455 S
C504 C506 1.390 1_455 S
C505 C500 1.425 . S
C505 C502 1.409 . S
C505 C503 1.415 . S
C506 H496 0.930 . S
C506 C504 1.390 1_655 S
C506 C507 1.362 . S
C507 H497 0.930 . S
C507 C500 1.409 . S
C507 C506 1.362 . S
H508 C514 0.930 . S
H509 C517 0.930 . S
H510 C518 0.930 . S
H511 C519 0.930 . S
H512 C522 0.930 . S
H513 C523 0.930 . S
C514 H508 0.930 . S
C514 C515 1.355 . S
C514 C516 1.415 . S
C515 C514 1.355 . S
C515 C517 1.419 . S
C516 C514 1.415 . S
C516 C521 1.425 . S
C516 C523 1.409 . S
C517 H509 0.930 . S
C517 C515 1.419 . S
C517 C518 1.362 . S
C518 H510 0.930 . S
C518 C517 1.362 . S
C518 C521 1.409 . S
C519 H511 0.930 . S
C519 C520 1.355 . S
C519 C521 1.415 . S
C520 C519 1.355 . S
C520 C522 1.419 . S
C521 C516 1.425 . S
C521 C518 1.409 . S
C521 C519 1.415 . S
C522 H512 0.930 . S
C522 C520 1.419 . S
C522 C523 1.362 . S
C523 H513 0.930 . S
C523 C516 1.409 . S
C523 C522 1.362 . S
H524 C530 0.930 1_565 S
H525 C533 0.930 . S
H526 C534 0.930 . S
H527 C535 0.930 . S
H528 C538 0.930 . S
H529 C539 0.930 . S
C530 H524 0.930 1_545 S
C530 C531 1.354 . S
C530 C532 1.415 . S
C531 C530 1.354 . S
C531 C533 1.418 . S
C532 C530 1.415 . S
C532 C537 1.425 . S
C532 C539 1.409 . S
C533 H525 0.930 . S
C533 C531 1.418 . S
C533 C534 1.362 . S
C534 H526 0.930 . S
C534 C533 1.362 . S
C534 C537 1.409 . S
C535 H527 0.930 . S
C535 C536 1.355 . S
C535 C537 1.415 . S
C536 C535 1.355 . S
C536 C538 1.419 . S
C537 C532 1.425 . S
C537 C534 1.409 . S
C537 C535 1.415 . S
C538 H528 0.930 . S
C538 C536 1.419 . S
C538 C539 1.362 . S
C539 H529 0.930 . S
C539 C532 1.409 . S
C539 C538 1.362 . S
H540 C546 0.930 . S
H541 C549 0.930 . S
H542 C550 0.930 . S
H543 C551 0.930 . S
H544 C554 0.930 . S
H545 C555 0.930 . S
C546 H540 0.930 . S
C546 C547 1.355 . S
C546 C548 1.415 . S
C547 C546 1.355 . S
C547 C549 1.419 . S
C548 C546 1.415 . S
C548 C553 1.425 . S
C548 C555 1.409 . S
C549 H541 0.930 . S
C549 C547 1.419 . S
C549 C550 1.362 . S
C550 H542 0.930 . S
C550 C549 1.362 . S
C550 C553 1.409 . S
C551 H543 0.930 . S
C551 C552 1.355 . S
C551 C553 1.415 . S
C552 C551 1.355 . S
C552 C554 1.419 . S
C553 C548 1.425 . S
C553 C550 1.409 . S
C553 C551 1.415 . S
C554 H544 0.930 . S
C554 C552 1.419 . S
C554 C555 1.362 . S
C555 H545 0.930 . S
C555 C548 1.409 . S
C555 C554 1.362 . S
H556 C562 0.930 . S
H557 C565 0.930 . S
H558 C566 0.930 . S
H559 C567 0.930 . S
H560 C570 0.930 . S
H561 C571 0.930 . S
C562 H556 0.930 . S
C562 C563 1.355 1_565 S
C562 C564 1.415 . S
C563 C562 1.355 1_545 S
C563 C565 1.419 . S
C564 C562 1.415 . S
C564 C569 1.425 1_565 S
C564 C571 1.409 . S
C565 H557 0.930 . S
C565 C563 1.419 . S
C565 C566 1.362 . S
C566 H558 0.930 . S
C566 C565 1.362 . S
C566 C569 1.409 . S
C567 H559 0.930 . S
C567 C568 1.355 1_545 S
C567 C569 1.415 . S
C568 C567 1.355 1_565 S
C568 C570 1.419 . S
C569 C564 1.425 1_545 S
C569 C566 1.409 . S
C569 C567 1.415 . S
C570 H560 0.930 . S
C570 C568 1.419 . S
C570 C571 1.362 . S
C571 H561 0.930 . S
C571 C564 1.409 . S
C571 C570 1.362 . S
H572 C578 0.930 . S
H573 C581 0.930 . S
H574 C582 0.930 . S
H575 C583 0.930 . S
H576 C586 0.930 . S
H577 C587 0.930 . S
C578 H572 0.930 . S
C578 C579 1.355 . S
C578 C580 1.415 . S
C579 C578 1.355 . S
C579 C581 1.419 . S
C580 C578 1.415 . S
C580 C585 1.425 1_655 S
C580 C587 1.409 . S
C581 H573 0.930 . S
C581 C579 1.419 . S
C581 C582 1.362 1_655 S
C582 H574 0.930 . S
C582 C581 1.362 1_455 S
C582 C585 1.409 . S
C583 H575 0.930 . S
C583 C584 1.355 . S
C583 C585 1.415 . S
C584 C583 1.355 . S
C584 C586 1.419 . S
C585 C580 1.425 1_455 S
C585 C582 1.409 . S
C585 C583 1.415 . S
C586 H576 0.930 . S
C586 C584 1.419 . S
C586 C587 1.362 1_455 S
C587 H577 0.930 . S
C587 C580 1.409 . S
C587 C586 1.362 1_655 S
H588 C594 0.930 . S
H589 C597 0.930 . S
H590 C598 0.930 . S
H591 C599 0.930 . S
H592 C602 0.930 . S
H593 C603 0.930 . S
C594 H588 0.930 . S
C594 C595 1.355 . S
C594 C596 1.415 . S
C595 C594 1.355 . S
C595 C597 1.419 . S
C596 C594 1.415 . S
C596 C601 1.425 . S
C596 C603 1.409 . S
C597 H589 0.930 . S
C597 C595 1.419 . S
C597 C598 1.362 . S
C598 H590 0.930 . S
C598 C597 1.362 . S
C598 C601 1.409 . S
C599 H591 0.930 . S
C599 C600 1.355 . S
C599 C601 1.415 . S
C600 C599 1.355 . S
C600 C602 1.419 . S
C601 C596 1.425 . S
C601 C598 1.409 . S
C601 C599 1.415 . S
C602 H592 0.930 . S
C602 C600 1.419 . S
C602 C603 1.362 . S
C603 H593 0.930 . S
C603 C596 1.409 . S
C603 C602 1.362 . S
H604 C610 0.930 . S
H605 C613 0.930 . S
H606 C614 0.930 . S
H607 C615 0.930 . S
H608 C618 0.930 . S
H609 C619 0.930 . S
C610 H604 0.930 . S
C610 C611 1.355 . S
C610 C612 1.415 . S
C611 C610 1.355 . S
C611 C613 1.419 1_545 S
C612 C610 1.415 . S
C612 C617 1.425 1_545 S
C612 C619 1.409 . S
C613 H605 0.930 . S
C613 C611 1.419 1_565 S
C613 C614 1.362 . S
C614 H606 0.930 . S
C614 C613 1.362 . S
C614 C617 1.409 . S
C615 H607 0.930 . S
C615 C616 1.355 . S
C615 C617 1.415 . S
C616 C615 1.355 . S
C616 C618 1.419 1_565 S
C617 C612 1.425 1_565 S
C617 C614 1.409 . S
C617 C615 1.415 . S
C618 H608 0.930 . S
C618 C616 1.419 1_545 S
C618 C619 1.362 . S
C619 H609 0.930 . S
C619 C612 1.409 . S
C619 C618 1.362 . S
H620 C626 0.930 . S
H621 C629 0.930 . S
H622 C630 0.930 . S
H623 C631 0.930 . S
H624 C634 0.930 . S
H625 C635 0.930 . S
C626 H620 0.930 . S
C626 C627 1.355 . S
C626 C628 1.415 . S
C627 C626 1.355 . S
C627 C629 1.419 . S
C628 C626 1.415 . S
C628 C633 1.425 1_655 S
C628 C635 1.409 . S
C629 H621 0.930 . S
C629 C627 1.419 . S
C629 C630 1.362 1_655 S
C630 H622 0.930 . S
C630 C629 1.362 1_455 S
C630 C633 1.409 . S
C631 H623 0.930 . S
C631 C632 1.355 . S
C631 C633 1.415 . S
C632 C631 1.355 . S
C632 C634 1.419 . S
C633 C628 1.425 1_455 S
C633 C630 1.409 . S
C633 C631 1.415 . S
C634 H624 0.930 . S
C634 C632 1.419 . S
C634 C635 1.362 1_455 S
C635 H625 0.930 . S
C635 C628 1.409 . S
C635 C634 1.362 1_655 S
H636 C642 0.930 . S
H637 C645 0.930 . S
H638 C646 0.930 . S
H639 C647 0.930 . S
H640 C650 0.930 . S
H641 C651 0.930 . S
C642 H636 0.930 . S
C642 C643 1.355 . S
C642 C644 1.415 . S
C643 C642 1.355 . S
C643 C645 1.419 . S
C644 C642 1.415 . S
C644 C649 1.425 . S
C644 C651 1.409 . S
C645 H637 0.930 . S
C645 C643 1.419 . S
C645 C646 1.362 . S
C646 H638 0.930 . S
C646 C645 1.362 . S
C646 C649 1.409 . S
C647 H639 0.930 . S
C647 C648 1.355 . S
C647 C649 1.415 . S
C648 C647 1.355 . S
C648 C650 1.419 . S
C649 C644 1.425 . S
C649 C646 1.409 . S
C649 C647 1.415 . S
C650 H640 0.930 . S
C650 C648 1.419 . S
C650 C651 1.362 . S
C651 H641 0.930 . S
C651 C644 1.409 . S
C651 C650 1.362 . S
H652 C658 0.930 . S
H653 C661 0.930 . S
H654 C662 0.930 . S
H655 C663 0.930 . S
H656 C666 0.930 . S
H657 C667 0.930 . S
C658 H652 0.930 . S
C658 C659 1.355 . S
C658 C660 1.415 . S
C659 C658 1.355 . S
C659 C661 1.419 . S
C660 C658 1.415 . S
C660 C665 1.425 . S
C660 C667 1.409 . S
C661 H653 0.930 . S
C661 C659 1.419 . S
C661 C662 1.362 . S
C662 H654 0.930 . S
C662 C661 1.362 . S
C662 C665 1.409 . S
C663 H655 0.930 . S
C663 C664 1.355 . S
C663 C665 1.415 . S
C664 C663 1.355 . S
C664 C666 1.419 . S
C665 C660 1.425 . S
C665 C662 1.409 . S
C665 C663 1.415 . S
C666 H656 0.930 . S
C666 C664 1.419 . S
C666 C667 1.362 . S
C667 H657 0.930 . S
C667 C660 1.409 . S
C667 C666 1.362 . S
H668 C674 0.930 . S
H669 C677 0.930 . S
H670 C678 0.930 . S
H671 C679 0.930 . S
H672 C682 0.930 . S
H673 C683 0.930 . S
C674 H668 0.930 . S
C674 C675 1.355 . S
C674 C676 1.415 . S
C675 C674 1.355 . S
C675 C677 1.419 . S
C676 C674 1.415 . S
C676 C681 1.425 . S
C676 C683 1.409 . S
C677 H669 0.930 . S
C677 C675 1.419 . S
C677 C678 1.362 . S
C678 H670 0.930 . S
C678 C677 1.362 . S
C678 C681 1.409 . S
C679 H671 0.930 . S
C679 C680 1.355 . S
C679 C681 1.415 . S
C680 C679 1.355 . S
C680 C682 1.419 . S
C681 C676 1.425 . S
C681 C678 1.409 . S
C681 C679 1.415 . S
C682 H672 0.930 . S
C682 C680 1.419 . S
C682 C683 1.362 . S
C683 H673 0.930 . S
C683 C676 1.409 . S
C683 C682 1.362 . S
H684 C690 0.930 . S
H685 C693 0.930 . S
H686 C694 0.930 . S
H687 C695 0.930 . S
H688 C698 0.930 . S
H689 C699 0.930 . S
C690 H684 0.930 . S
C690 C691 1.355 . S
C690 C692 1.415 . S
C691 C690 1.355 . S
C691 C693 1.419 . S
C692 C690 1.415 . S
C692 C697 1.425 . S
C692 C699 1.409 . S
C693 H685 0.930 . S
C693 C691 1.419 . S
C693 C694 1.362 . S
C694 H686 0.930 . S
C694 C693 1.362 . S
C694 C697 1.409 . S
C695 H687 0.930 . S
C695 C696 1.355 . S
C695 C697 1.415 . S
C696 C695 1.355 . S
C696 C698 1.419 . S
C697 C692 1.425 . S
C697 C694 1.409 . S
C697 C695 1.415 . S
C698 H688 0.930 . S
C698 C696 1.419 . S
C698 C699 1.362 . S
C699 H689 0.930 . S
C699 C692 1.409 . S
C699 C698 1.362 . S
H700 C706 0.930 . S
H701 C709 0.930 . S
H702 C710 0.930 . S
H703 C711 0.930 . S
H704 C714 0.930 . S
H705 C715 0.930 . S
C706 H700 0.930 . S
C706 C707 1.355 . S
C706 C708 1.415 . S
C707 C706 1.355 . S
C707 C709 1.419 . S
C708 C706 1.415 . S
C708 C713 1.425 . S
C708 C715 1.409 . S
C709 H701 0.930 . S
C709 C707 1.419 . S
C709 C710 1.362 . S
C710 H702 0.930 . S
C710 C709 1.362 . S
C710 C713 1.409 . S
C711 H703 0.930 . S
C711 C712 1.355 . S
C711 C713 1.415 . S
C712 C711 1.355 . S
C712 C714 1.419 . S
C713 C708 1.425 . S
C713 C710 1.409 . S
C713 C711 1.415 . S
C714 H704 0.930 . S
C714 C712 1.419 . S
C714 C715 1.362 . S
C715 H705 0.930 . S
C715 C708 1.409 . S
C715 C714 1.362 . S
H716 C722 0.930 . S
H717 C725 0.930 . S
H718 C726 0.930 . S
H719 C727 0.930 . S
H720 C730 0.930 . S
H721 C731 0.930 . S
C722 H716 0.930 . S
C722 C723 1.355 . S
C722 C724 1.415 . S
C723 C722 1.355 . S
C723 C725 1.419 . S
C724 C722 1.415 . S
C724 C729 1.425 . S
C724 C731 1.409 . S
C725 H717 0.930 . S
C725 C723 1.419 . S
C725 C726 1.362 . S
C726 H718 0.930 . S
C726 C725 1.362 . S
C726 C729 1.409 . S
C727 H719 0.930 . S
C727 C728 1.355 . S
C727 C729 1.415 . S
C728 C727 1.355 . S
C728 C730 1.419 . S
C729 C724 1.425 . S
C729 C726 1.409 . S
C729 C727 1.415 . S
C730 H720 0.930 . S
C730 C728 1.419 . S
C730 C731 1.362 . S
C731 H721 0.930 . S
C731 C724 1.409 . S
C731 C730 1.362 . S
H732 C738 0.930 . S
H733 C741 0.930 . S
H734 C742 0.930 . S
H735 C743 0.930 . S
H736 C746 0.930 . S
H737 C747 0.930 . S
C738 H732 0.930 . S
C738 C739 1.355 . S
C738 C740 1.415 . S
C739 C738 1.355 . S
C739 C741 1.419 . S
C740 C738 1.415 . S
C740 C745 1.425 . S
C740 C747 1.409 . S
C741 H733 0.930 . S
C741 C739 1.419 . S
C741 C742 1.362 . S
C742 H734 0.930 . S
C742 C741 1.362 . S
C742 C745 1.409 . S
C743 H735 0.930 . S
C743 C744 1.355 . S
C743 C745 1.415 . S
C744 C743 1.355 . S
C744 C746 1.419 . S
C745 C740 1.425 . S
C745 C742 1.409 . S
C745 C743 1.415 . S
C746 H736 0.930 . S
C746 C744 1.419 . S
C746 C747 1.362 . S
C747 H737 0.930 . S
C747 C740 1.409 . S
C747 C746 1.362 . S
H748 C754 0.930 . S
H749 C757 0.930 1_554 S
H750 C758 0.930 1_554 S
H751 C759 0.930 . S
H752 C762 0.930 . S
H753 C763 0.930 . S
C754 H748 0.930 . S
C754 C755 1.355 . S
C754 C756 1.415 . S
C755 C754 1.355 . S
C755 C757 1.419 . S
C756 C754 1.415 . S
C756 C761 1.425 . S
C756 C763 1.409 . S
C757 H749 0.930 1_556 S
C757 C755 1.419 . S
C757 C758 1.362 . S
C758 H750 0.930 1_556 S
C758 C757 1.362 . S
C758 C761 1.409 . S
C759 H751 0.930 . S
C759 C760 1.355 . S
C759 C761 1.415 . S
C760 C759 1.355 . S
C760 C762 1.419 . S
C761 C756 1.425 . S
C761 C758 1.409 . S
C761 C759 1.415 . S
C762 H752 0.930 . S
C762 C760 1.419 . S
C762 C763 1.362 . S
C763 H753 0.930 . S
C763 C756 1.409 . S
C763 C762 1.362 . S
H764 C770 0.930 . S
H765 C773 0.930 . S
H766 C774 0.930 . S
H767 C775 0.930 . S
H768 C778 0.930 . S
H769 C779 0.930 . S
C770 H764 0.930 . S
C770 C771 1.355 . S
C770 C772 1.415 . S
C771 C770 1.355 . S
C771 C773 1.419 . S
C772 C770 1.415 . S
C772 C777 1.425 . S
C772 C779 1.409 . S
C773 H765 0.930 . S
C773 C771 1.419 . S
C773 C774 1.362 . S
C774 H766 0.930 . S
C774 C773 1.362 . S
C774 C777 1.409 . S
C775 H767 0.930 . S
C775 C776 1.355 . S
C775 C777 1.415 . S
C776 C775 1.355 . S
C776 C778 1.419 . S
C777 C772 1.425 . S
C777 C774 1.409 . S
C777 C775 1.415 . S
C778 H768 0.930 . S
C778 C776 1.419 . S
C778 C779 1.362 . S
C779 H769 0.930 . S
C779 C772 1.409 . S
C779 C778 1.362 . S
H780 C786 0.930 . S
H781 C789 0.930 . S
H782 C790 0.930 . S
H783 C791 0.930 . S
H784 C794 0.930 . S
H785 C795 0.930 . S
C786 H780 0.930 . S
C786 C787 1.355 . S
C786 C788 1.415 . S
C787 C786 1.355 . S
C787 C789 1.419 . S
C788 C786 1.415 . S
C788 C793 1.425 . S
C788 C795 1.409 . S
C789 H781 0.930 . S
C789 C787 1.419 . S
C789 C790 1.362 . S
C790 H782 0.930 . S
C790 C789 1.362 . S
C790 C793 1.409 . S
C791 H783 0.930 . S
C791 C792 1.355 . S
C791 C793 1.415 . S
C792 C791 1.355 . S
C792 C794 1.419 . S
C793 C788 1.425 . S
C793 C790 1.409 . S
C793 C791 1.415 . S
C794 H784 0.930 . S
C794 C792 1.419 . S
C794 C795 1.362 . S
C795 H785 0.930 . S
C795 C788 1.409 . S
C795 C794 1.362 . S
H796 C802 0.930 . S
H797 C805 0.930 . S
H798 C806 0.930 . S
H799 C807 0.930 . S
H800 C810 0.930 . S
H801 C811 0.930 . S
C802 H796 0.930 . S
C802 C803 1.355 . S
C802 C804 1.415 . S
C803 C802 1.355 . S
C803 C805 1.419 . S
C804 C802 1.415 . S
C804 C809 1.425 . S
C804 C811 1.409 . S
C805 H797 0.930 . S
C805 C803 1.419 . S
C805 C806 1.362 . S
C806 H798 0.930 . S
C806 C805 1.362 . S
C806 C809 1.409 . S
C807 H799 0.930 . S
C807 C808 1.355 . S
C807 C809 1.415 . S
C808 C807 1.355 . S
C808 C810 1.419 . S
C809 C804 1.425 . S
C809 C806 1.409 . S
C809 C807 1.415 . S
C810 H800 0.930 . S
C810 C808 1.419 . S
C810 C811 1.362 . S
C811 H801 0.930 . S
C811 C804 1.409 . S
C811 C810 1.362 . S
H812 C818 0.930 . S
H813 C821 0.930 . S
H814 C822 0.930 . S
H815 C823 0.930 . S
H816 C826 0.930 . S
H817 C827 0.930 . S
C818 H812 0.930 . S
C818 C819 1.355 . S
C818 C820 1.415 . S
C819 C818 1.355 . S
C819 C821 1.419 . S
C820 C818 1.415 . S
C820 C825 1.425 . S
C820 C827 1.409 . S
C821 H813 0.930 . S
C821 C819 1.419 . S
C821 C822 1.362 . S
C822 H814 0.930 . S
C822 C821 1.362 . S
C822 C825 1.409 . S
C823 H815 0.930 . S
C823 C824 1.355 . S
C823 C825 1.415 . S
C824 C823 1.355 . S
C824 C826 1.419 . S
C825 C820 1.425 . S
C825 C822 1.409 . S
C825 C823 1.415 . S
C826 H816 0.930 . S
C826 C824 1.419 . S
C826 C827 1.362 . S
C827 H817 0.930 . S
C827 C820 1.409 . S
C827 C826 1.362 . S
H828 C834 0.930 . S
H829 C837 0.930 . S
H830 C838 0.930 . S
H831 C839 0.930 . S
H832 C842 0.930 . S
H833 C843 0.930 . S
C834 H828 0.930 . S
C834 C835 1.355 . S
C834 C836 1.415 . S
C835 C834 1.355 . S
C835 C837 1.419 . S
C836 C834 1.415 . S
C836 C841 1.425 . S
C836 C843 1.409 . S
C837 H829 0.930 . S
C837 C835 1.419 . S
C837 C838 1.362 . S
C838 H830 0.930 . S
C838 C837 1.362 . S
C838 C841 1.409 . S
C839 H831 0.930 . S
C839 C840 1.355 . S
C839 C841 1.415 . S
C840 C839 1.355 . S
C840 C842 1.419 . S
C841 C836 1.425 . S
C841 C838 1.409 . S
C841 C839 1.415 . S
C842 H832 0.930 . S
C842 C840 1.419 . S
C842 C843 1.362 . S
C843 H833 0.930 . S
C843 C836 1.409 . S
C843 C842 1.362 . S
H844 C850 0.930 . S
H845 C853 0.930 . S
H846 C854 0.930 . S
H847 C855 0.930 . S
H848 C858 0.930 . S
H849 C859 0.930 . S
C850 H844 0.930 . S
C850 C851 1.355 . S
C850 C852 1.415 . S
C851 C850 1.355 . S
C851 C853 1.419 . S
C852 C850 1.415 . S
C852 C857 1.425 . S
C852 C859 1.409 . S
C853 H845 0.930 . S
C853 C851 1.419 . S
C853 C854 1.362 . S
C854 H846 0.930 . S
C854 C853 1.362 . S
C854 C857 1.409 . S
C855 H847 0.930 . S
C855 C856 1.355 . S
C855 C857 1.415 . S
C856 C855 1.355 . S
C856 C858 1.419 . S
C857 C852 1.425 . S
C857 C854 1.409 . S
C857 C855 1.415 . S
C858 H848 0.930 . S
C858 C856 1.419 . S
C858 C859 1.362 . S
C859 H849 0.930 . S
C859 C852 1.409 . S
C859 C858 1.362 . S
H860 C866 0.930 . S
H861 C869 0.930 . S
H862 C870 0.930 . S
H863 C871 0.930 . S
H864 C874 0.930 . S
H865 C875 0.930 . S
C866 H860 0.930 . S
C866 C867 1.355 . S
C866 C868 1.415 . S
C867 C866 1.355 . S
C867 C869 1.419 . S
C868 C866 1.415 . S
C868 C873 1.425 . S
C868 C875 1.409 . S
C869 H861 0.930 . S
C869 C867 1.419 . S
C869 C870 1.362 . S
C870 H862 0.930 . S
C870 C869 1.362 . S
C870 C873 1.409 . S
C871 H863 0.930 . S
C871 C872 1.355 . S
C871 C873 1.415 . S
C872 C871 1.355 . S
C872 C874 1.419 . S
C873 C868 1.425 . S
C873 C870 1.409 . S
C873 C871 1.415 . S
C874 H864 0.930 . S
C874 C872 1.419 . S
C874 C875 1.362 . S
C875 H865 0.930 . S
C875 C868 1.409 . S
C875 C874 1.362 . S
H876 C882 0.930 . S
H877 C885 0.930 . S
H878 C886 0.930 . S
H879 C887 0.930 . S
H880 C890 0.930 . S
H881 C891 0.930 . S
C882 H876 0.930 . S
C882 C883 1.355 . S
C882 C884 1.415 . S
C883 C882 1.355 . S
C883 C885 1.419 . S
C884 C882 1.415 . S
C884 C889 1.425 . S
C884 C891 1.409 . S
C885 H877 0.930 . S
C885 C883 1.419 . S
C885 C886 1.362 . S
C886 H878 0.930 . S
C886 C885 1.362 . S
C886 C889 1.409 . S
C887 H879 0.930 . S
C887 C888 1.355 . S
C887 C889 1.415 . S
C888 C887 1.355 . S
C888 C890 1.419 . S
C889 C884 1.425 . S
C889 C886 1.409 . S
C889 C887 1.415 . S
C890 H880 0.930 . S
C890 C888 1.419 . S
C890 C891 1.362 . S
C891 H881 0.930 . S
C891 C884 1.409 . S
C891 C890 1.362 . S
H892 C898 0.930 . S
H893 C901 0.930 . S
H894 C902 0.930 . S
H895 C903 0.930 . S
H896 C906 0.930 . S
H897 C907 0.930 . S
C898 H892 0.930 . S
C898 C899 1.355 . S
C898 C900 1.415 . S
C899 C898 1.355 . S
C899 C901 1.419 . S
C900 C898 1.415 . S
C900 C905 1.425 . S
C900 C907 1.409 . S
C901 H893 0.930 . S
C901 C899 1.419 . S
C901 C902 1.362 . S
C902 H894 0.930 . S
C902 C901 1.362 . S
C902 C905 1.409 . S
C903 H895 0.930 . S
C903 C904 1.355 . S
C903 C905 1.415 . S
C904 C903 1.355 . S
C904 C906 1.419 . S
C905 C900 1.425 . S
C905 C902 1.409 . S
C905 C903 1.415 . S
C906 H896 0.930 . S
C906 C904 1.419 . S
C906 C907 1.362 . S
C907 H897 0.930 . S
C907 C900 1.409 . S
C907 C906 1.362 . S
H908 C914 0.930 . S
H909 C917 0.930 . S
H910 C918 0.930 . S
H911 C919 0.930 . S
H912 C922 0.930 . S
H913 C923 0.930 . S
C914 H908 0.930 . S
C914 C915 1.355 . S
C914 C916 1.415 . S
C915 C914 1.355 . S
C915 C917 1.419 . S
C916 C914 1.415 . S
C916 C921 1.425 . S
C916 C923 1.409 . S
C917 H909 0.930 . S
C917 C915 1.419 . S
C917 C918 1.362 . S
C918 H910 0.930 . S
C918 C917 1.362 . S
C918 C921 1.409 . S
C919 H911 0.930 . S
C919 C920 1.355 . S
C919 C921 1.415 . S
C920 C919 1.355 . S
C920 C922 1.419 . S
C921 C916 1.425 . S
C921 C918 1.409 . S
C921 C919 1.415 . S
C922 H912 0.930 . S
C922 C920 1.419 . S
C922 C923 1.362 . S
C923 H913 0.930 . S
C923 C916 1.409 . S
C923 C922 1.362 . S
H924 C930 0.930 . S
H925 C933 0.930 . S
H926 C934 0.930 . S
H927 C935 0.930 . S
H928 C938 0.930 . S
H929 C939 0.930 . S
C930 H924 0.930 . S
C930 C931 1.355 . S
C930 C932 1.415 . S
C931 C930 1.355 . S
C931 C933 1.419 . S
C932 C930 1.415 . S
C932 C937 1.425 . S
C932 C939 1.409 . S
C933 H925 0.930 . S
C933 C931 1.419 . S
C933 C934 1.362 . S
C934 H926 0.930 . S
C934 C933 1.362 . S
C934 C937 1.409 . S
C935 H927 0.930 . S
C935 C936 1.355 . S
C935 C937 1.415 . S
C936 C935 1.355 . S
C936 C938 1.419 . S
C937 C932 1.425 . S
C937 C934 1.409 . S
C937 C935 1.415 . S
C938 H928 0.930 . S
C938 C936 1.419 . S
C938 C939 1.362 . S
C939 H929 0.930 . S
C939 C932 1.409 . S
C939 C938 1.362 . S
H940 C946 0.930 . S
H941 C949 0.930 . S
H942 C950 0.930 . S
H943 C951 0.930 . S
H944 C954 0.930 . S
H945 C955 0.930 . S
C946 H940 0.930 . S
C946 C947 1.355 . S
C946 C948 1.415 . S
C947 C946 1.355 . S
C947 C949 1.419 . S
C948 C946 1.415 . S
C948 C953 1.425 . S
C948 C955 1.409 . S
C949 H941 0.930 . S
C949 C947 1.419 . S
C949 C950 1.362 . S
C950 H942 0.930 . S
C950 C949 1.362 . S
C950 C953 1.409 . S
C951 H943 0.930 . S
C951 C952 1.355 . S
C951 C953 1.415 . S
C952 C951 1.355 . S
C952 C954 1.419 . S
C953 C948 1.425 . S
C953 C950 1.409 . S
C953 C951 1.415 . S
C954 H944 0.930 . S
C954 C952 1.419 . S
C954 C955 1.362 . S
C955 H945 0.930 . S
C955 C948 1.409 . S
C955 C954 1.362 . S
H956 C962 0.930 . S
H957 C965 0.930 . S
H958 C966 0.930 . S
H959 C967 0.930 . S
H960 C970 0.930 . S
H961 C971 0.930 . S
C962 H956 0.930 . S
C962 C963 1.355 . S
C962 C964 1.415 . S
C963 C962 1.355 . S
C963 C965 1.419 . S
C964 C962 1.415 . S
C964 C969 1.425 . S
C964 C971 1.409 . S
C965 H957 0.930 . S
C965 C963 1.419 . S
C965 C966 1.362 . S
C966 H958 0.930 . S
C966 C965 1.362 . S
C966 C969 1.409 . S
C967 H959 0.930 . S
C967 C968 1.355 . S
C967 C969 1.415 . S
C968 C967 1.355 . S
C968 C970 1.419 . S
C969 C964 1.425 . S
C969 C966 1.409 . S
C969 C967 1.415 . S
C970 H960 0.930 . S
C970 C968 1.419 . S
C970 C971 1.362 . S
C971 H961 0.930 . S
C971 C964 1.409 . S
C971 C970 1.362 . S
H972 C978 0.930 . S
H973 C981 0.930 . S
H974 C982 0.930 . S
H975 C983 0.930 . S
H976 C986 0.930 . S
H977 C987 0.930 . S
C978 H972 0.930 . S
C978 C979 1.355 . S
C978 C980 1.415 . S
C979 C978 1.355 . S
C979 C981 1.419 . S
C980 C978 1.415 . S
C980 C985 1.425 . S
C980 C987 1.409 . S
C981 H973 0.930 . S
C981 C979 1.419 . S
C981 C982 1.362 . S
C982 H974 0.930 . S
C982 C981 1.362 . S
C982 C985 1.409 . S
C983 H975 0.930 . S
C983 C984 1.355 . S
C983 C985 1.415 . S
C984 C983 1.355 . S
C984 C986 1.419 . S
C985 C980 1.425 . S
C985 C982 1.409 . S
C985 C983 1.415 . S
C986 H976 0.930 . S
C986 C984 1.419 . S
C986 C987 1.362 . S
C987 H977 0.930 . S
C987 C980 1.409 . S
C987 C986 1.362 . S
H988 C994 0.930 . S
H989 C997 0.930 . S
H990 C998 0.930 . S
H991 C999 0.930 . S
H992 C1002 0.930 . S
H993 C1003 0.930 . S
C994 H988 0.930 . S
C994 C995 1.355 . S
C994 C996 1.415 . S
C995 C994 1.355 . S
C995 C997 1.419 . S
C996 C994 1.415 . S
C996 C1001 1.425 . S
C996 C1003 1.409 . S
C997 H989 0.930 . S
C997 C995 1.419 . S
C997 C998 1.362 . S
C998 H990 0.930 . S
C998 C997 1.362 . S
C998 C1001 1.409 . S
C999 H991 0.930 . S
C999 C1000 1.355 . S
C999 C1001 1.415 . S
C1000 C999 1.355 . S
C1000 C1002 1.419 . S
C1001 C996 1.425 . S
C1001 C998 1.409 . S
C1001 C999 1.415 . S
C1002 H992 0.930 . S
C1002 C1000 1.419 . S
C1002 C1003 1.362 . S
C1003 H993 0.930 . S
C1003 C996 1.409 . S
C1003 C1002 1.362 . S
H1004 C1010 0.930 . S
H1005 C1013 0.930 . S
H1006 C1014 0.930 . S
H1007 C1015 0.930 . S
H1008 C1018 0.930 . S
H1009 C1019 0.930 . S
C1010 H1004 0.930 . S
C1010 C1011 1.355 . S
C1010 C1012 1.415 . S
C1011 C1010 1.355 . S
C1011 C1013 1.419 . S
C1012 C1010 1.415 . S
C1012 C1017 1.425 . S
C1012 C1019 1.409 . S
C1013 H1005 0.930 . S
C1013 C1011 1.419 . S
C1013 C1014 1.362 . S
C1014 H1006 0.930 . S
C1014 C1013 1.362 . S
C1014 C1017 1.409 . S
C1015 H1007 0.930 . S
C1015 C1016 1.355 . S
C1015 C1017 1.415 . S
C1016 C1015 1.355 . S
C1016 C1018 1.419 . S
C1017 C1012 1.425 . S
C1017 C1014 1.409 . S
C1017 C1015 1.415 . S
C1018 H1008 0.930 . S
C1018 C1016 1.419 . S
C1018 C1019 1.362 . S
C1019 H1009 0.930 . S
C1019 C1012 1.409 . S
C1019 C1018 1.362 . S
C355 C216 2.374 . S
C360 C5 2.557 . S
C371 C34 2.562 . S
C376 C245 2.369 . S
C387 C63 2.543 . S
C392 C187 2.341 . S
C403 C92 2.550 . S
C408 C332 2.366 . S
C419 C274 2.352 . S
C424 C121 2.546 . S
C435 C150 2.565 . S
C440 C303 2.381 . S
C451 C179 2.547 . S
C456 C42 2.334 1_565 S
C467 C208 2.552 . S
C472 C71 2.347 . S
C483 C13 2.336 . S
C488 C237 2.542 . S
C499 C266 2.548 . S
C504 C158 2.387 . S
C515 C295 2.562 . S
C520 C100 2.391 . S
C531 C129 2.333 1_545 S
C536 C324 2.547 . S
C547 C15 1.576 . S
C552 C102 1.539 . S
C563 C44 1.540 . S
C568 C131 1.556 . S
C579 C73 1.547 . S
C584 C160 1.592 . S
C595 C276 1.604 . S
C600 C189 1.578 . S
C611 C305 1.593 . S
C616 C218 1.598 . S
C627 C334 1.565 . S
C632 C247 1.603 . S
C643 C21 1.757 . S
C648 C39 1.604 . S
C659 C50 1.755 . S
C664 C68 1.611 . S
C675 C79 1.818 . S
C680 C10 1.609 . S
C691 C155 1.652 . S
C696 C108 1.758 . S
C707 C137 1.757 . S
C712 C97 1.602 . S
C723 C126 1.647 . S
C728 C166 1.802 . S
C739 C213 1.568 . S
C744 C195 1.815 . S
C755 C224 1.801 . S
C760 C242 1.649 . S
C771 C253 1.792 . S
C776 C184 1.554 . S
C787 C282 1.770 . S
C792 C329 1.664 . S
C803 C311 1.817 . S
C808 C271 1.613 . S
C819 C340 1.817 . S
C824 C300 1.574 . S
C835 C298 1.252 . S
C840 C3 1.267 . S
C851 C327 1.260 . S
C856 C32 1.251 . S
C867 C61 1.281 . S
C872 C269 1.221 . S
C883 C90 1.258 . S
C888 C240 1.158 . S
C899 C119 1.260 . S
C904 C182 1.257 . S
C915 C211 1.155 . S
C920 C148 1.228 . S
C931 C177 1.206 . S
C936 C124 1.220 . S
C947 C206 1.210 . S
C952 C153 1.175 . S
C963 C235 1.206 . S
C968 C95 1.222 . S
C979 C264 1.232 . S
C984 C66 1.257 . S
C995 C293 1.261 . S
C1000 C8 1.160 . S
C1011 C322 1.280 . S
C1016 C37 1.192 . S
