# Generated by pormake.
# Topology unv, (4)-cn, num edge types: 1
# Building blocks:
#     Node 0, Type 0, BuildingBlock: QUQFOY_clean_sbu_1, # of connection points: 4
#     Node 1, Type 0, BuildingBlock: QUQFOY_clean_sbu_1, # of connection points: 4
#     Node 2, Type 0, BuildingBlock: QUQFOY_clean_sbu_1, # of connection points: 4
#     Node 3, Type 0, BuildingBlock: QUQFOY_clean_sbu_1, # of connection points: 4
#     Node 4, Type 0, BuildingBlock: QUQFOY_clean_sbu_1, # of connection points: 4
#     Node 5, Type 0, BuildingBlock: QUQFOY_clean_sbu_1, # of connection points: 4
#     Node 6, Type 0, BuildingBlock: QUQFOY_clean_sbu_1, # of connection points: 4
#     Node 7, Type 0, BuildingBlock: QUQFOY_clean_sbu_1, # of connection points: 4
#     Node 8, Type 0, BuildingBlock: QUQFOY_clean_sbu_1, # of connection points: 4
#     Node 9, Type 0, BuildingBlock: QUQFOY_clean_sbu_1, # of connection points: 4
#     Node 10, Type 0, BuildingBlock: QUQFOY_clean_sbu_1, # of connection points: 4
#     Node 11, Type 0, BuildingBlock: QUQFOY_clean_sbu_1, # of connection points: 4
#     Node 12, Type 0, BuildingBlock: QUQFOY_clean_sbu_1, # of connection points: 4
#     Node 13, Type 0, BuildingBlock: QUQFOY_clean_sbu_1, # of connection points: 4
#     Node 14, Type 0, BuildingBlock: QUQFOY_clean_sbu_1, # of connection points: 4
#     Node 15, Type 0, BuildingBlock: QUQFOY_clean_sbu_1, # of connection points: 4
#     Node 16, Type 0, BuildingBlock: QUQFOY_clean_sbu_1, # of connection points: 4
#     Node 17, Type 0, BuildingBlock: QUQFOY_clean_sbu_1, # of connection points: 4
#     Node 18, Type 0, BuildingBlock: QUQFOY_clean_sbu_1, # of connection points: 4
#     Node 19, Type 0, BuildingBlock: QUQFOY_clean_sbu_1, # of connection points: 4
#     Node 20, Type 0, BuildingBlock: QUQFOY_clean_sbu_1, # of connection points: 4
#     Node 21, Type 0, BuildingBlock: QUQFOY_clean_sbu_1, # of connection points: 4
#     Node 22, Type 0, BuildingBlock: QUQFOY_clean_sbu_1, # of connection points: 4
#     Node 23, Type 0, BuildingBlock: QUQFOY_clean_sbu_1, # of connection points: 4
#     Edge 24, Type (0, 0), BuildingBlock: XUDNAN_clean_linker_2, # of connection points: 2
#     Edge 25, Type (0, 0), BuildingBlock: XUDNAN_clean_linker_2, # of connection points: 2
#     Edge 26, Type (0, 0), BuildingBlock: XUDNAN_clean_linker_2, # of connection points: 2
#     Edge 27, Type (0, 0), BuildingBlock: XUDNAN_clean_linker_2, # of connection points: 2
#     Edge 28, Type (0, 0), BuildingBlock: XUDNAN_clean_linker_2, # of connection points: 2
#     Edge 29, Type (0, 0), BuildingBlock: XUDNAN_clean_linker_2, # of connection points: 2
#     Edge 30, Type (0, 0), BuildingBlock: XUDNAN_clean_linker_2, # of connection points: 2
#     Edge 31, Type (0, 0), BuildingBlock: XUDNAN_clean_linker_2, # of connection points: 2
#     Edge 32, Type (0, 0), BuildingBlock: XUDNAN_clean_linker_2, # of connection points: 2
#     Edge 33, Type (0, 0), BuildingBlock: XUDNAN_clean_linker_2, # of connection points: 2
#     Edge 34, Type (0, 0), BuildingBlock: XUDNAN_clean_linker_2, # of connection points: 2
#     Edge 35, Type (0, 0), BuildingBlock: XUDNAN_clean_linker_2, # of connection points: 2
#     Edge 36, Type (0, 0), BuildingBlock: XUDNAN_clean_linker_2, # of connection points: 2
#     Edge 37, Type (0, 0), BuildingBlock: XUDNAN_clean_linker_2, # of connection points: 2
#     Edge 38, Type (0, 0), BuildingBlock: XUDNAN_clean_linker_2, # of connection points: 2
#     Edge 39, Type (0, 0), BuildingBlock: XUDNAN_clean_linker_2, # of connection points: 2
#     Edge 40, Type (0, 0), BuildingBlock: XUDNAN_clean_linker_2, # of connection points: 2
#     Edge 41, Type (0, 0), BuildingBlock: XUDNAN_clean_linker_2, # of connection points: 2
#     Edge 42, Type (0, 0), BuildingBlock: XUDNAN_clean_linker_2, # of connection points: 2
#     Edge 43, Type (0, 0), BuildingBlock: XUDNAN_clean_linker_2, # of connection points: 2
#     Edge 44, Type (0, 0), BuildingBlock: XUDNAN_clean_linker_2, # of connection points: 2
#     Edge 45, Type (0, 0), BuildingBlock: XUDNAN_clean_linker_2, # of connection points: 2
#     Edge 46, Type (0, 0), BuildingBlock: XUDNAN_clean_linker_2, # of connection points: 2
#     Edge 47, Type (0, 0), BuildingBlock: XUDNAN_clean_linker_2, # of connection points: 2
#     Edge 48, Type (0, 0), BuildingBlock: XUDNAN_clean_linker_2, # of connection points: 2
#     Edge 49, Type (0, 0), BuildingBlock: XUDNAN_clean_linker_2, # of connection points: 2
#     Edge 50, Type (0, 0), BuildingBlock: XUDNAN_clean_linker_2, # of connection points: 2
#     Edge 51, Type (0, 0), BuildingBlock: XUDNAN_clean_linker_2, # of connection points: 2
#     Edge 52, Type (0, 0), BuildingBlock: XUDNAN_clean_linker_2, # of connection points: 2
#     Edge 53, Type (0, 0), BuildingBlock: XUDNAN_clean_linker_2, # of connection points: 2
#     Edge 54, Type (0, 0), BuildingBlock: XUDNAN_clean_linker_2, # of connection points: 2
#     Edge 55, Type (0, 0), BuildingBlock: XUDNAN_clean_linker_2, # of connection points: 2
#     Edge 56, Type (0, 0), BuildingBlock: XUDNAN_clean_linker_2, # of connection points: 2
#     Edge 57, Type (0, 0), BuildingBlock: XUDNAN_clean_linker_2, # of connection points: 2
#     Edge 58, Type (0, 0), BuildingBlock: XUDNAN_clean_linker_2, # of connection points: 2
#     Edge 59, Type (0, 0), BuildingBlock: XUDNAN_clean_linker_2, # of connection points: 2
#     Edge 60, Type (0, 0), BuildingBlock: XUDNAN_clean_linker_2, # of connection points: 2
#     Edge 61, Type (0, 0), BuildingBlock: XUDNAN_clean_linker_2, # of connection points: 2
#     Edge 62, Type (0, 0), BuildingBlock: XUDNAN_clean_linker_2, # of connection points: 2
#     Edge 63, Type (0, 0), BuildingBlock: XUDNAN_clean_linker_2, # of connection points: 2
#     Edge 64, Type (0, 0), BuildingBlock: XUDNAN_clean_linker_2, # of connection points: 2
#     Edge 65, Type (0, 0), BuildingBlock: XUDNAN_clean_linker_2, # of connection points: 2
#     Edge 66, Type (0, 0), BuildingBlock: XUDNAN_clean_linker_2, # of connection points: 2
#     Edge 67, Type (0, 0), BuildingBlock: XUDNAN_clean_linker_2, # of connection points: 2
#     Edge 68, Type (0, 0), BuildingBlock: XUDNAN_clean_linker_2, # of connection points: 2
#     Edge 69, Type (0, 0), BuildingBlock: XUDNAN_clean_linker_2, # of connection points: 2
#     Edge 70, Type (0, 0), BuildingBlock: XUDNAN_clean_linker_2, # of connection points: 2
#     Edge 71, Type (0, 0), BuildingBlock: XUDNAN_clean_linker_2, # of connection points: 2
# Relax obj value: 0.133
# Max RMSD: 0.148
# Mean RMSD: 0.122
data_MOF--net-unv--node1-QUQFOY_clean_sbu_1--edge1-XUDNAN_clean_linker_2
_symmetry_space_group_name_H-M    P1
_symmetry_Int_Tables_number       1
_symmetry_cell_setting            triclinic
loop_
_symmetry_equiv_pos_as_xyz
'x, y, z'
_cell_length_a     51.915483
_cell_length_b     51.884131
_cell_length_c     51.91506
_cell_angle_alpha  89.939382
_cell_angle_beta   89.967126
_cell_angle_gamma 89.95568
loop_
_atom_site_label
_atom_site_type_symbol
_atom_site_fract_x
_atom_site_fract_y
_atom_site_fract_z
_atom_type_partial_charge
O0 O 0.05198 0.10415 0.41077 0.0
Cd1 Cd 0.02638 0.1052 0.3804 0.0
Cd2 Cd 0.05964 0.06347 0.36489 0.0
O3 O 0.08054 0.0763 0.39604 0.0
O4 O 0.00752 0.13751 0.38833 0.0
O5 O 0.02914 0.13193 0.35205 0.0
C6 C 0.01541 0.14664 0.36667 0.0
C7 C 0.08107 0.04187 0.33152 0.0
C8 C 0.07301 0.09189 0.41335 0.0
C9 C 0.00272 0.05325 0.37736 0.0
O10 O 0.02531 0.04526 0.37248 0.0
O11 O 0.99827 0.07717 0.38003 0.0
O12 O 0.08009 0.03268 0.35448 0.0
O13 O 0.07131 0.06444 0.32768 0.0
O14 O 0.94016 0.37629 0.40827 0.0
Cd15 Cd 0.96584 0.37326 0.37801 0.0
Cd16 Cd 0.93588 0.41731 0.36212 0.0
O17 O 0.91537 0.40826 0.39497 0.0
O18 O 0.98338 0.34046 0.38699 0.0
O19 O 0.9621 0.34575 0.35055 0.0
C20 C 0.97539 0.331 0.36555 0.0
C21 C 0.91502 0.43577 0.32666 0.0
C22 C 0.9211 0.39129 0.41172 0.0
C23 C 0.99358 0.42333 0.37263 0.0
O24 O 0.97182 0.43303 0.3671 0.0
O25 O 0.99577 0.39935 0.37704 0.0
O26 O 0.91777 0.44811 0.34795 0.0
O27 O 0.92269 0.4121 0.32589 0.0
O28 O 0.03462 0.89449 0.08854 0.0
Cd29 Cd 0.00794 0.89095 0.11766 0.0
Cd30 Cd 0.04152 0.92727 0.14189 0.0
O31 O 0.06149 0.92103 0.10801 0.0
O32 O 0.99073 0.85747 0.1108 0.0
O33 O 0.01346 0.8651 0.14611 0.0
C34 C 0.00022 0.84922 0.13225 0.0
C35 C 0.06553 0.94157 0.17729 0.0
C36 C 0.05529 0.90755 0.08853 0.0
C37 C 0.98459 0.94108 0.13138 0.0
O38 O 0.00665 0.94624 0.14057 0.0
O39 O 0.98031 0.91957 0.12052 0.0
O40 O 0.06196 0.95577 0.15733 0.0
O41 O 0.05653 0.9184 0.17682 0.0
O42 O 0.94588 0.61436 0.09981 0.0
Cd43 Cd 0.97286 0.61862 0.12847 0.0
Cd44 Cd 0.94062 0.57442 0.14966 0.0
O45 O 0.92068 0.58436 0.11657 0.0
O46 O 0.98942 0.65175 0.1186 0.0
O47 O 0.9687 0.64642 0.15545 0.0
C48 C 0.98103 0.6614 0.13985 0.0
C49 C 0.91795 0.54896 0.17968 0.0
C50 C 0.92611 0.60002 0.0985 0.0
C51 C 0.99936 0.56866 0.13864 0.0
O52 O 0.97766 0.56049 0.14646 0.0
O53 O 0.00201 0.59151 0.13021 0.0
O54 O 0.92328 0.54087 0.15695 0.0
O55 O 0.92437 0.5723 0.18531 0.0
O56 O 0.42678 0.04002 0.1033 0.0
Cd57 Cd 0.39998 0.01142 0.10917 0.0
Cd58 Cd 0.36937 0.04749 0.07518 0.0
O59 O 0.40154 0.0691 0.08489 0.0
O60 O 0.41066 0.99322 0.14123 0.0
O61 O 0.37395 0.01476 0.13768 0.0
C62 C 0.38961 0.00135 0.15169 0.0
C63 C 0.336 0.0701 0.05426 0.0
C64 C 0.4232 0.06253 0.09432 0.0
C65 C 0.3828 0.99057 0.05946 0.0
O66 O 0.37304 0.01277 0.05619 0.0
O67 O 0.39505 0.98508 0.07991 0.0
O68 O 0.35853 0.06779 0.04439 0.0
O69 O 0.33256 0.061 0.07714 0.0
O70 O 0.57836 0.4734 0.09348 0.0
Cd71 Cd 0.60537 0.50181 0.0997 0.0
Cd72 Cd 0.63127 0.47439 0.06027 0.0
O73 O 0.60156 0.449 0.06746 0.0
O74 O 0.59584 0.51632 0.13375 0.0
O75 O 0.63326 0.49724 0.12623 0.0
C76 C 0.61783 0.50848 0.14222 0.0
C77 C 0.66981 0.45641 0.04516 0.0
C78 C 0.58117 0.45289 0.08046 0.0
C79 C 0.61321 0.5301 0.0509 0.0
O80 O 0.62282 0.50914 0.04267 0.0
O81 O 0.60575 0.53203 0.07411 0.0
O82 O 0.64951 0.45743 0.03105 0.0
O83 O 0.6682 0.46495 0.06845 0.0
O84 O 0.42826 0.94479 0.39684 0.0
Cd85 Cd 0.40726 0.97547 0.38237 0.0
Cd86 Cd 0.37264 0.9634 0.42323 0.0
O87 O 0.40159 0.93699 0.429 0.0
O88 O 0.41898 0.98112 0.34627 0.0
O89 O 0.37873 0.9713 0.35648 0.0
C90 C 0.39564 0.97671 0.33899 0.0
C91 C 0.33313 0.95072 0.4416 0.0
C92 C 0.42241 0.93226 0.41706 0.0
C93 C 0.3982 0.01635 0.42183 0.0
O94 O 0.38158 0.0011 0.4313 0.0
O95 O 0.41118 0.00987 0.40209 0.0
O96 O 0.35282 0.9564 0.45536 0.0
O97 O 0.33566 0.95197 0.41691 0.0
O98 O 0.58959 0.53712 0.39484 0.0
Cd99 Cd 0.60958 0.50907 0.37372 0.0
Cd100 Cd 0.64199 0.51863 0.4338 0.0
O101 O 0.61008 0.54226 0.43248 0.0
O102 O 0.59636 0.50789 0.33795 0.0
O103 O 0.63668 0.51822 0.34787 0.0
C104 C 0.61923 0.51434 0.33051 0.0
C105 C 0.66986 0.52152 0.46845 0.0
C106 C 0.59161 0.54753 0.4171 0.0
C107 C 0.62508 0.47302 0.40868 0.0
O108 O 0.64293 0.48963 0.4076 0.0
O109 O 0.61012 0.47252 0.38951 0.0
O110 O 0.64925 0.50759 0.46978 0.0
O111 O 0.67481 0.53337 0.44706 0.0
O112 O 0.10319 0.43293 0.04461 0.0
Cd113 Cd 0.11183 0.40863 0.01439 0.0
Cd114 Cd 0.07173 0.3789 0.03712 0.0
O115 O 0.0756 0.40741 0.06464 0.0
O116 O 0.14697 0.41871 0.00299 0.0
O117 O 0.13761 0.37981 0.0179 0.0
C118 C 0.15452 0.39578 0.00897 0.0
C119 C 0.05653 0.33887 0.05178 0.0
C120 C 0.08836 0.42829 0.06352 0.0
C121 C 0.06534 0.40116 0.98238 0.0
O122 O 0.05663 0.38878 0.00164 0.0
O123 O 0.0879 0.41061 0.98287 0.0
O124 O 0.04188 0.35881 0.05072 0.0
O125 O 0.08033 0.34164 0.04516 0.0
O126 O 0.09527 0.56373 0.4672 0.0
Cd127 Cd 0.10224 0.59038 0.49567 0.0
Cd128 Cd 0.05726 0.61368 0.4708 0.0
O129 O 0.06502 0.58419 0.44539 0.0
O130 O 0.13703 0.57974 0.5076 0.0
O131 O 0.12926 0.61778 0.48995 0.0
C132 C 0.14563 0.60149 0.49925 0.0
C133 C 0.03412 0.64881 0.45392 0.0
C134 C 0.08015 0.5651 0.44804 0.0
C135 C 0.05475 0.59523 0.52741 0.0
O136 O 0.04432 0.6042 0.50714 0.0
O137 O 0.0785 0.58925 0.52762 0.0
O138 O 0.02406 0.62631 0.45615 0.0
O139 O 0.05794 0.65141 0.46048 0.0
O140 O 0.90832 0.90876 0.47399 0.0
Cd141 Cd 0.90035 0.88356 0.50346 0.0
Cd142 Cd 0.93693 0.85366 0.47254 0.0
O143 O 0.93369 0.88556 0.4489 0.0
O144 O 0.87212 0.90252 0.5209 0.0
O145 O 0.86629 0.86462 0.50252 0.0
C146 C 0.85663 0.8844 0.51412 0.0
C147 C 0.9471 0.81392 0.4539 0.0
C148 C 0.92149 0.9063 0.45354 0.0
C149 C 0.94947 0.86788 0.52875 0.0
O150 O 0.9554 0.85766 0.50735 0.0
O151 O 0.92794 0.87913 0.5318 0.0
O152 O 0.96341 0.83254 0.45457 0.0
O153 O 0.92418 0.81826 0.46253 0.0
O154 O 0.38939 0.55886 0.52335 0.0
Cd155 Cd 0.37654 0.57958 0.49105 0.0
Cd156 Cd 0.42366 0.61334 0.53009 0.0
O157 O 0.41716 0.57909 0.54972 0.0
O158 O 0.341 0.57017 0.48064 0.0
O159 O 0.35155 0.608 0.49783 0.0
C160 C 0.33403 0.59261 0.48902 0.0
C161 C 0.44082 0.65124 0.54654 0.0
C162 C 0.4035 0.55944 0.5436 0.0
C163 C 0.41998 0.59944 0.47359 0.0
O164 O 0.41131 0.61131 0.49317 0.0
O165 O 0.40387 0.58529 0.46208 0.0
O166 O 0.45558 0.63345 0.53731 0.0
O167 O 0.41626 0.64694 0.54744 0.0
O168 O 0.52179 0.62458 0.9025 0.0
Cd169 Cd 0.49529 0.62858 0.87334 0.0
Cd170 Cd 0.52879 0.59439 0.84872 0.0
O171 O 0.55004 0.60049 0.88179 0.0
O172 O 0.47838 0.66221 0.88028 0.0
O173 O 0.50157 0.65457 0.84523 0.0
C174 C 0.48849 0.67056 0.85915 0.0
C175 C 0.55049 0.58346 0.81073 0.0
C176 C 0.54316 0.61267 0.90189 0.0
C177 C 0.47307 0.57798 0.86036 0.0
O178 O 0.49542 0.57321 0.85162 0.0
O179 O 0.46788 0.59979 0.8702 0.0
O180 O 0.55041 0.56853 0.83049 0.0
O181 O 0.53954 0.6057 0.81298 0.0
O182 O 0.45484 0.90947 0.89822 0.0
Cd183 Cd 0.48121 0.90246 0.86935 0.0
Cd184 Cd 0.45341 0.94357 0.84718 0.0
O185 O 0.42892 0.93628 0.8777 0.0
O186 O 0.49428 0.86756 0.87834 0.0
O187 O 0.47415 0.87601 0.84172 0.0
C188 C 0.48489 0.85941 0.85687 0.0
C189 C 0.43625 0.96017 0.80885 0.0
C190 C 0.43439 0.92289 0.89749 0.0
C191 C 0.51011 0.95084 0.86297 0.0
O192 O 0.48861 0.95991 0.85559 0.0
O193 O 0.5124 0.92701 0.86815 0.0
O194 O 0.43721 0.97369 0.82956 0.0
O195 O 0.44386 0.9365 0.81006 0.0
O196 O 0.56366 0.40354 0.58392 0.0
Cd197 Cd 0.53686 0.38656 0.60787 0.0
Cd198 Cd 0.54476 0.43736 0.63661 0.0
O199 O 0.55896 0.44269 0.59997 0.0
O200 O 0.53226 0.3529 0.58983 0.0
O201 O 0.5452 0.35547 0.63027 0.0
C202 C 0.53996 0.34147 0.61042 0.0
C203 C 0.55739 0.47118 0.66424 0.0
C204 C 0.5669 0.42773 0.58235 0.0
C205 C 0.49192 0.42049 0.6229 0.0
O206 O 0.50623 0.4297 0.64042 0.0
O207 O 0.50082 0.40411 0.60697 0.0
O208 O 0.54278 0.4749 0.64471 0.0
O209 O 0.56523 0.44797 0.66844 0.0
O210 O 0.49219 0.1079 0.56892 0.0
Cd211 Cd 0.51667 0.11122 0.59993 0.0
Cd212 Cd 0.47378 0.07806 0.62183 0.0
O213 O 0.45827 0.08922 0.58678 0.0
O214 O 0.54129 0.13833 0.58843 0.0
O215 O 0.51503 0.14383 0.62141 0.0
C216 C 0.53233 0.1532 0.60616 0.0
C217 C 0.44598 0.06011 0.65287 0.0
C218 C 0.46924 0.09954 0.5674 0.0
C219 C 0.53024 0.05817 0.61689 0.0
O220 O 0.50647 0.05573 0.62199 0.0
O221 O 0.5392 0.07927 0.60827 0.0
O222 O 0.44934 0.04974 0.63069 0.0
O223 O 0.45678 0.08212 0.65693 0.0
O224 O 0.9088 0.50177 0.62345 0.0
Cd225 Cd 0.87694 0.47825 0.62731 0.0
Cd226 Cd 0.85692 0.51099 0.5938 0.0
O227 O 0.88849 0.53323 0.60331 0.0
O228 O 0.87552 0.46426 0.66307 0.0
O229 O 0.8478 0.49297 0.64769 0.0
C230 C 0.85618 0.4795 0.66692 0.0
C231 C 0.81615 0.52752 0.5845 0.0
C232 C 0.90877 0.52435 0.61387 0.0
C233 C 0.86839 0.45658 0.57606 0.0
O234 O 0.86399 0.47998 0.57042 0.0
O235 O 0.87222 0.45009 0.59937 0.0
O236 O 0.83576 0.53256 0.57015 0.0
O237 O 0.82018 0.51512 0.6057 0.0
O238 O 0.09647 0.96045 0.61304 0.0
Cd239 Cd 0.12323 0.98915 0.61895 0.0
Cd240 Cd 0.14834 0.96005 0.57704 0.0
O241 O 0.11996 0.93464 0.58865 0.0
O242 O 0.11392 0.00307 0.65332 0.0
O243 O 0.15156 0.98467 0.64515 0.0
C244 C 0.13607 0.99534 0.66147 0.0
C245 C 0.18138 0.94257 0.55148 0.0
C246 C 0.09957 0.93913 0.60146 0.0
C247 C 0.12993 0.01688 0.57002 0.0
O248 O 0.13862 0.9955 0.56186 0.0
O249 O 0.12322 0.01948 0.59339 0.0
O250 O 0.1579 0.94334 0.54382 0.0
O251 O 0.18618 0.95044 0.57455 0.0
O252 O 0.90891 0.48444 0.89239 0.0
Cd253 Cd 0.87455 0.50431 0.89006 0.0
Cd254 Cd 0.86051 0.47024 0.92784 0.0
O255 O 0.89357 0.45206 0.91531 0.0
O256 O 0.872 0.51993 0.85517 0.0
O257 O 0.84685 0.48799 0.86867 0.0
C258 C 0.85396 0.50349 0.8505 0.0
C259 C 0.82731 0.44661 0.94725 0.0
C260 C 0.91189 0.4624 0.90271 0.0
C261 C 0.86668 0.52726 0.94101 0.0
O262 O 0.86498 0.50391 0.94808 0.0
O263 O 0.86869 0.53281 0.91726 0.0
O264 O 0.84996 0.44779 0.95713 0.0
O265 O 0.82393 0.45707 0.92493 0.0
O266 O 0.09561 0.04254 0.89717 0.0
Cd267 Cd 0.12492 0.01615 0.89233 0.0
Cd268 Cd 0.14441 0.04441 0.93504 0.0
O269 O 0.11217 0.0666 0.92803 0.0
O270 O 0.1161 0.00112 0.85829 0.0
O271 O 0.15271 0.02161 0.86554 0.0
C272 C 0.13764 0.00985 0.84963 0.0
C273 C 0.18124 0.06428 0.95186 0.0
C274 C 0.09406 0.06171 0.91229 0.0
C275 C 0.13089 0.9872 0.94136 0.0
O276 O 0.13832 0.00853 0.95076 0.0
O277 O 0.12525 0.98543 0.91762 0.0
O278 O 0.16064 0.06153 0.96534 0.0
O279 O 0.1807 0.0568 0.92815 0.0
O280 O 0.60561 0.89592 0.54176 0.0
Cd281 Cd 0.6234 0.88119 0.50842 0.0
Cd282 Cd 0.56942 0.8433 0.54008 0.0
O283 O 0.57579 0.87412 0.5644 0.0
O284 O 0.65266 0.90432 0.5006 0.0
O285 O 0.65741 0.86329 0.51201 0.0
C286 C 0.66768 0.88529 0.50633 0.0
C287 C 0.54122 0.80975 0.5492 0.0
C288 C 0.59014 0.89389 0.5609 0.0
C289 C 0.58198 0.86163 0.486 0.0
O290 O 0.58792 0.84897 0.50612 0.0
O291 O 0.59975 0.87536 0.47662 0.0
O292 O 0.53307 0.83116 0.53947 0.0
O293 O 0.56564 0.80728 0.55372 0.0
O294 O 0.61125 0.09617 0.9561 0.0
Cd295 Cd 0.61764 0.12307 0.98448 0.0
Cd296 Cd 0.5761 0.14901 0.95617 0.0
O297 O 0.58051 0.11596 0.93425 0.0
O298 O 0.65151 0.11261 0.99917 0.0
O299 O 0.64505 0.15039 0.98046 0.0
C300 C 0.66061 0.13445 0.99161 0.0
C301 C 0.55841 0.18527 0.93551 0.0
C302 C 0.59535 0.0967 0.93752 0.0
C303 C 0.56961 0.13474 0.01358 0.0
O304 O 0.56179 0.14549 0.99303 0.0
O305 O 0.59151 0.12382 0.01454 0.0
O306 O 0.54503 0.16493 0.93998 0.0
O307 O 0.58247 0.18479 0.94172 0.0
O308 O 0.39162 0.4238 0.94639 0.0
Cd309 Cd 0.38466 0.39714 0.97486 0.0
Cd310 Cd 0.4255 0.36911 0.94335 0.0
O311 O 0.41635 0.40066 0.92043 0.0
O312 O 0.35173 0.40876 0.99065 0.0
O313 O 0.35614 0.37102 0.97131 0.0
C314 C 0.34157 0.38738 0.98315 0.0
C315 C 0.45006 0.33643 0.92351 0.0
C316 C 0.404 0.42126 0.92544 0.0
C317 C 0.43326 0.38402 0.00132 0.0
O318 O 0.44012 0.37432 0.97993 0.0
O319 O 0.41137 0.39459 0.00398 0.0
O320 O 0.45872 0.35938 0.92656 0.0
O321 O 0.42656 0.3321 0.93033 0.0
O322 O 0.89793 0.09333 0.04773 0.0
Cd323 Cd 0.89137 0.12027 0.0192 0.0
Cd324 Cd 0.93316 0.14508 0.048 0.0
O325 O 0.92295 0.11616 0.07351 0.0
O326 O 0.85712 0.11036 0.00509 0.0
O327 O 0.86452 0.14814 0.02337 0.0
C328 C 0.84853 0.13243 0.01257 0.0
C329 C 0.95695 0.18011 0.06426 0.0
C330 C 0.91019 0.09579 0.06876 0.0
C331 C 0.94067 0.12625 0.9917 0.0
O332 O 0.94891 0.1347 0.01311 0.0
O333 O 0.91709 0.12036 0.98892 0.0
O334 O 0.96579 0.157 0.06443 0.0
O335 O 0.93362 0.18339 0.05634 0.0
H336 H 0.1476 0.01867 0.52074 0.0
H337 H 0.10259 0.06205 0.57623 0.0
H338 H 0.09025 0.09277 0.5419 0.0
H339 H 0.16704 0.07506 0.4784 0.0
H340 H 0.16372 0.0555 0.44992 0.0
H341 H 0.17403 0.04105 0.4798 0.0
H342 H 0.13673 0.00801 0.47672 0.0
H343 H 0.12633 0.02231 0.44704 0.0
H344 H 0.10409 0.01952 0.47358 0.0
H345 H 0.07614 0.11318 0.50039 0.0
H346 H 0.06062 0.12047 0.45611 0.0
H347 H 0.11488 0.06344 0.4279 0.0
C348 C 0.1358 0.03509 0.52593 0.0
C349 C 0.12606 0.03797 0.55117 0.0
C350 C 0.11045 0.05956 0.55706 0.0
C351 C 0.10342 0.07715 0.53769 0.0
C352 C 0.1125 0.07307 0.51269 0.0
C353 C 0.12863 0.05266 0.50689 0.0
C354 C 0.13289 0.05018 0.47817 0.0
C355 C 0.1611 0.05579 0.47117 0.0
C356 C 0.12449 0.02344 0.46833 0.0
C357 C 0.11529 0.07129 0.4685 0.0
C358 C 0.10424 0.08477 0.48867 0.0
C359 C 0.08512 0.10318 0.48446 0.0
C360 C 0.0764 0.10716 0.45919 0.0
C361 C 0.08654 0.09252 0.43847 0.0
C362 C 0.10699 0.07521 0.4432 0.0
H363 H 0.8852 0.42573 0.42923 0.0
H364 H 0.92795 0.35749 0.45189 0.0
H365 H 0.91252 0.36268 0.49652 0.0
H366 H 0.90134 0.46181 0.48032 0.0
H367 H 0.87098 0.47829 0.48397 0.0
H368 H 0.88026 0.46598 0.45303 0.0
H369 H 0.83803 0.43946 0.45058 0.0
H370 H 0.82848 0.45192 0.48156 0.0
H371 H 0.82994 0.4176 0.47636 0.0
H372 H 0.89911 0.37989 0.53993 0.0
H373 H 0.88866 0.40741 0.57748 0.0
H374 H 0.85469 0.46396 0.52606 0.0
C375 C 0.89054 0.41129 0.44333 0.0
C376 C 0.90772 0.39116 0.43697 0.0
C377 C 0.9147 0.37302 0.4562 0.0
C378 C 0.90596 0.37577 0.48165 0.0
C379 C 0.89 0.39656 0.48753 0.0
C380 C 0.88208 0.41381 0.46878 0.0
C381 C 0.86762 0.43626 0.48044 0.0
C382 C 0.88086 0.46208 0.47407 0.0
C383 C 0.83934 0.4363 0.47172 0.0
C384 C 0.86989 0.42971 0.50874 0.0
C385 C 0.88236 0.40649 0.51253 0.0
C386 C 0.88879 0.39781 0.53719 0.0
C387 C 0.8828 0.41356 0.55842 0.0
C388 C 0.87085 0.43781 0.55473 0.0
C389 C 0.86369 0.44545 0.52959 0.0
H390 H 0.09684 0.93863 0.07953 0.0
H391 H 0.04827 0.88115 0.04325 0.0
H392 H 0.06949 0.88968 0.00159 0.0
H393 H 0.09168 0.98306 0.03305 0.0
H394 H 0.12415 0.99522 0.03479 0.0
H395 H 0.10984 0.98035 0.06253 0.0
H396 H 0.14771 0.94784 0.065 0.0
H397 H 0.16225 0.96275 0.03718 0.0
H398 H 0.15571 0.92863 0.03721 0.0
H399 H 0.08976 0.9102 0.96284 0.0
H400 H 0.10658 0.94124 0.9309 0.0
H401 H 0.14209 0.98496 0.99259 0.0
C402 C 0.09128 0.92714 0.06305 0.0
C403 C 0.07094 0.90918 0.06471 0.0
C404 C 0.06389 0.89496 0.04251 0.0
C405 C 0.07593 0.89958 0.01875 0.0
C406 C 0.0952 0.91824 0.01755 0.0
C407 C 0.10303 0.9316 0.03923 0.0
C408 C 0.12153 0.95304 0.03237 0.0
C409 C 0.11116 0.97945 0.04119 0.0
C410 C 0.1484 0.94774 0.0436 0.0
C411 C 0.12165 0.95071 0.00333 0.0
C412 C 0.10688 0.93015 0.99512 0.0
C413 C 0.10189 0.92597 0.96904 0.0
C414 C 0.11152 0.94372 0.951 0.0
C415 C 0.12568 0.96553 0.95921 0.0
C416 C 0.13157 0.96836 0.98563 0.0
H417 H 0.88928 0.56503 0.08477 0.0
H418 H 0.93029 0.63227 0.05671 0.0
H419 H 0.91189 0.62543 0.01347 0.0
H420 H 0.90264 0.5271 0.03463 0.0
H421 H 0.87232 0.51024 0.03345 0.0
H422 H 0.88313 0.52399 0.06322 0.0
H423 H 0.84081 0.55027 0.06687 0.0
H424 H 0.82972 0.5364 0.03704 0.0
H425 H 0.83107 0.57092 0.04068 0.0
H426 H 0.89602 0.6065 0.97183 0.0
H427 H 0.88474 0.57696 0.93618 0.0
H428 H 0.8544 0.52224 0.99164 0.0
C429 C 0.8936 0.57894 0.06982 0.0
C430 C 0.91115 0.59924 0.07421 0.0
C431 C 0.91679 0.61662 0.05389 0.0
C432 C 0.90634 0.61296 0.02924 0.0
C433 C 0.89005 0.59199 0.02526 0.0
C434 C 0.88348 0.57544 0.04513 0.0
C435 C 0.86867 0.55237 0.03529 0.0
C436 C 0.88253 0.52695 0.04204 0.0
C437 C 0.84091 0.55252 0.04558 0.0
C438 C 0.8693 0.5577 0.00665 0.0
C439 C 0.8811 0.58094 0.00119 0.0
C440 C 0.8862 0.58857 0.97589 0.0
C441 C 0.87972 0.57168 0.95574 0.0
C442 C 0.86869 0.54732 0.96114 0.0
C443 C 0.86265 0.54081 0.98687 0.0
H444 H 0.47436 0.0502 0.09301 0.0
H445 H 0.42163 0.11489 0.08845 0.0
H446 H 0.45766 0.14337 0.07631 0.0
H447 H 0.53399 0.08822 0.11379 0.0
H448 H 0.55435 0.06853 0.09369 0.0
H449 H 0.52616 0.05477 0.10866 0.0
H450 H 0.50976 0.0399 0.06396 0.0
H451 H 0.53771 0.05359 0.04892 0.0
H452 H 0.50603 0.06334 0.03856 0.0
H453 H 0.49616 0.16233 0.05605 0.0
H454 H 0.53386 0.17004 0.02822 0.0
H455 H 0.5625 0.09352 0.04552 0.0
C456 C 0.47062 0.07059 0.09056 0.0
C457 C 0.44526 0.08041 0.09195 0.0
C458 C 0.44094 0.10701 0.08767 0.0
C459 C 0.46134 0.12336 0.08092 0.0
C460 C 0.48597 0.11287 0.07861 0.0
C461 C 0.49076 0.0871 0.08348 0.0
C462 C 0.51794 0.07974 0.07566 0.0
C463 C 0.53407 0.07239 0.09937 0.0
C464 C 0.51783 0.05788 0.05558 0.0
C465 C 0.52712 0.10495 0.0641 0.0
C466 C 0.5086 0.12399 0.06665 0.0
C467 C 0.51112 0.14786 0.05459 0.0
C468 C 0.53257 0.15207 0.03878 0.0
C469 C 0.55123 0.13252 0.03514 0.0
C470 C 0.54896 0.10907 0.04875 0.0
H471 H 0.52992 0.46384 0.08337 0.0
H472 H 0.58382 0.40142 0.07007 0.0
H473 H 0.54783 0.37296 0.05783 0.0
H474 H 0.4721 0.42237 0.10374 0.0
H475 H 0.45038 0.44325 0.08642 0.0
H476 H 0.4789 0.45635 0.10128 0.0
H477 H 0.49284 0.47569 0.05741 0.0
H478 H 0.46457 0.46264 0.04248 0.0
H479 H 0.49597 0.45476 0.02987 0.0
H480 H 0.5089 0.35474 0.03833 0.0
H481 H 0.47034 0.34856 0.01145 0.0
H482 H 0.44078 0.4226 0.03631 0.0
C483 C 0.53394 0.44383 0.07903 0.0
C484 C 0.55954 0.43466 0.078 0.0
C485 C 0.56429 0.4087 0.07119 0.0
C486 C 0.54394 0.39237 0.06438 0.0
C487 C 0.51897 0.40229 0.06447 0.0
C488 C 0.51384 0.42742 0.07175 0.0
C489 C 0.48617 0.43472 0.06585 0.0
C490 C 0.47099 0.43945 0.09082 0.0
C491 C 0.48484 0.45832 0.04783 0.0
C492 C 0.47708 0.41042 0.05251 0.0
C493 C 0.49608 0.39168 0.05266 0.0
C494 C 0.49361 0.36892 0.0387 0.0
C495 C 0.47168 0.36561 0.02341 0.0
C496 C 0.45253 0.38499 0.02213 0.0
C497 C 0.45478 0.40718 0.03765 0.0
H498 H 0.56191 0.87064 0.43804 0.0
H499 H 0.54261 0.87233 0.51897 0.0
H500 H 0.49744 0.88149 0.50849 0.0
H501 H 0.52624 0.92726 0.42583 0.0
H502 H 0.51656 0.91848 0.39368 0.0
H503 H 0.54599 0.90584 0.40692 0.0
H504 H 0.53008 0.85936 0.39803 0.0
H505 H 0.50045 0.87191 0.38493 0.0
H506 H 0.49958 0.84896 0.411 0.0
H507 H 0.45516 0.89187 0.48978 0.0
H508 H 0.42044 0.91304 0.46577 0.0
H509 H 0.46803 0.91322 0.39685 0.0
C510 C 0.54788 0.87216 0.45342 0.0
C511 C 0.55505 0.86788 0.47935 0.0
C512 C 0.5368 0.8721 0.49906 0.0
C513 C 0.51121 0.87805 0.49321 0.0
C514 C 0.50443 0.88106 0.46746 0.0
C515 C 0.52237 0.87919 0.44788 0.0
C516 C 0.51097 0.888 0.42241 0.0
C517 C 0.52582 0.91128 0.41159 0.0
C518 C 0.51023 0.86572 0.40294 0.0
C519 C 0.48401 0.89551 0.43094 0.0
C520 C 0.48054 0.89046 0.45684 0.0
C521 C 0.4576 0.89599 0.46948 0.0
C522 C 0.43792 0.90797 0.45557 0.0
C523 C 0.44149 0.91497 0.42939 0.0
C524 C 0.46468 0.90805 0.41678 0.0
H525 H 0.44384 0.58893 0.42756 0.0
H526 H 0.45895 0.59735 0.50893 0.0
H527 H 0.50529 0.59365 0.50123 0.0
H528 H 0.48847 0.53767 0.42115 0.0
H529 H 0.49834 0.54585 0.38886 0.0
H530 H 0.46664 0.55445 0.39995 0.0
H531 H 0.47562 0.6022 0.38831 0.0
H532 H 0.50751 0.59372 0.37743 0.0
H533 H 0.50337 0.61813 0.40177 0.0
H534 H 0.54951 0.58711 0.48546 0.0
H535 H 0.58822 0.56985 0.46459 0.0
H536 H 0.54512 0.55909 0.39362 0.0
C537 C 0.45703 0.59058 0.44362 0.0
C538 C 0.44788 0.59585 0.46876 0.0
C539 C 0.46556 0.59633 0.4894 0.0
C540 C 0.492 0.59357 0.48518 0.0
C541 C 0.50052 0.58933 0.46015 0.0
C542 C 0.48358 0.58706 0.43976 0.0
C543 C 0.49759 0.57858 0.41552 0.0
C544 C 0.48714 0.55259 0.40581 0.0
C545 C 0.49592 0.59941 0.39452 0.0
C546 C 0.52489 0.576 0.42571 0.0
C547 C 0.52612 0.58301 0.45133 0.0
C548 C 0.54887 0.58158 0.46538 0.0
C549 C 0.57082 0.57176 0.45325 0.0
C550 C 0.56982 0.56294 0.42741 0.0
C551 C 0.54665 0.56583 0.41329 0.0
H552 H 0.08933 0.48035 0.0564 0.0
H553 H 0.07456 0.42144 0.11376 0.0
H554 H 0.05876 0.45471 0.14382 0.0
H555 H 0.10456 0.53553 0.10283 0.0
H556 H 0.08759 0.55817 0.08266 0.0
H557 H 0.10424 0.5312 0.06839 0.0
H558 H 0.06207 0.51725 0.04569 0.0
H559 H 0.04536 0.54399 0.05987 0.0
H560 H 0.03356 0.51168 0.06475 0.0
H561 H 0.03686 0.49165 0.16378 0.0
H562 H 0.00869 0.52908 0.17152 0.0
H563 H 0.03643 0.56482 0.10132 0.0
C564 C 0.08386 0.47468 0.07573 0.0
C565 C 0.08354 0.44843 0.08299 0.0
C566 C 0.0752 0.44149 0.10798 0.0
C567 C 0.06634 0.46029 0.12521 0.0
C568 C 0.0659 0.48593 0.11714 0.0
C569 C 0.07452 0.49321 0.09299 0.0
C570 C 0.06797 0.52116 0.0874 0.0
C571 C 0.09256 0.53748 0.0852 0.0
C572 C 0.05124 0.52364 0.06301 0.0
C573 C 0.05294 0.528 0.11149 0.0
C574 C 0.05265 0.5076 0.12869 0.0
C575 C 0.0375 0.508 0.15083 0.0
C576 C 0.02151 0.52931 0.15505 0.0
C577 C 0.02071 0.54993 0.13718 0.0
C578 C 0.03734 0.54969 0.11567 0.0
H579 H 0.99497 0.47505 0.36377 0.0
H580 H 0.04163 0.41147 0.39166 0.0
H581 H 0.07466 0.44239 0.40623 0.0
H582 H 0.05026 0.52019 0.34628 0.0
H583 H 0.032 0.54754 0.35747 0.0
H584 H 0.01568 0.52046 0.34312 0.0
H585 H 0.98709 0.51622 0.38383 0.0
H586 H 0.00333 0.54301 0.39833 0.0
H587 H 0.00219 0.51247 0.41489 0.0
H588 H 0.09755 0.47984 0.42585 0.0
H589 H 0.1079 0.52003 0.4489 0.0
H590 H 0.04603 0.55914 0.40844 0.0
C591 C 0.01255 0.4675 0.37208 0.0
C592 C 0.01571 0.44084 0.37656 0.0
C593 C 0.03884 0.43181 0.38786 0.0
C594 C 0.05777 0.44925 0.39613 0.0
C595 C 0.05341 0.47556 0.3926 0.0
C596 C 0.03147 0.48462 0.38051 0.0
C597 C 0.02933 0.51364 0.38242 0.0
C598 C 0.03199 0.52619 0.35573 0.0
C599 C 0.00401 0.52178 0.39567 0.0
C600 C 0.05251 0.51937 0.39905 0.0
C601 C 0.06659 0.4973 0.40413 0.0
C602 C 0.08707 0.49735 0.42149 0.0
C603 C 0.09275 0.52029 0.43457 0.0
C604 C 0.07777 0.54277 0.43048 0.0
C605 C 0.05808 0.54242 0.41175 0.0
H606 H 0.9586 0.91421 0.41697 0.0
H607 H 0.89185 0.94989 0.45245 0.0
H608 H 0.90137 0.99047 0.42964 0.0
H609 H 0.99871 0.96417 0.42547 0.0
H610 H 0.01626 0.96112 0.39566 0.0
H611 H 0.00097 0.93338 0.40954 0.0
H612 H 0.97551 0.9259 0.36727 0.0
H613 H 0.99092 0.95366 0.35312 0.0
H614 H 0.95627 0.95163 0.35402 0.0
H615 H 0.92238 0.02892 0.40974 0.0
H616 H 0.95332 0.06181 0.39468 0.0
H617 H 0.00632 0.00107 0.37224 0.0
C618 C 0.94542 0.93024 0.41915 0.0
C619 C 0.92443 0.92885 0.43637 0.0
C620 C 0.90803 0.9505 0.43928 0.0
C621 C 0.91319 0.97361 0.42629 0.0
C622 C 0.93471 0.97472 0.41029 0.0
C623 C 0.95042 0.9535 0.40646 0.0
C624 C 0.97421 0.9606 0.39119 0.0
C625 C 0.99897 0.95447 0.40639 0.0
C626 C 0.97422 0.94715 0.36483 0.0
C627 C 0.97015 0.98933 0.38833 0.0
C628 C 0.94698 0.99707 0.39892 0.0
C629 C 0.9403 0.02305 0.40084 0.0
C630 C 0.95802 0.04161 0.39229 0.0
C631 C 0.98224 0.03404 0.38225 0.0
C632 C 0.98788 0.00753 0.37958 0.0
H633 H 0.42986 0.55216 0.589 0.0
H634 H 0.38408 0.51172 0.53197 0.0
H635 H 0.39502 0.47039 0.55247 0.0
H636 H 0.47996 0.5112 0.58966 0.0
H637 H 0.48663 0.5128 0.62369 0.0
H638 H 0.47085 0.53927 0.608 0.0
H639 H 0.43295 0.53599 0.6404 0.0
H640 H 0.44869 0.50931 0.65618 0.0
H641 H 0.41626 0.50577 0.64432 0.0
H642 H 0.41886 0.43355 0.57244 0.0
H643 H 0.45192 0.40505 0.59164 0.0
H644 H 0.47917 0.4689 0.63806 0.0
C645 C 0.4214 0.53471 0.58134 0.0
C646 C 0.40614 0.53532 0.55882 0.0
C647 C 0.39575 0.51192 0.54925 0.0
C648 C 0.40179 0.48825 0.56083 0.0
C649 C 0.41777 0.48823 0.58236 0.0
C650 C 0.42701 0.51092 0.59285 0.0
C651 C 0.44601 0.50556 0.6143 0.0
C652 C 0.4724 0.51792 0.60854 0.0
C653 C 0.43533 0.5147 0.64035 0.0
C654 C 0.44725 0.47642 0.61309 0.0
C655 C 0.4306 0.46668 0.59479 0.0
C656 C 0.43134 0.44078 0.58748 0.0
C657 C 0.45016 0.42469 0.59848 0.0
C658 C 0.46785 0.43455 0.61669 0.0
C659 C 0.46544 0.46046 0.62484 0.0
H660 H 0.62388 0.53056 0.9994 0.0
H661 H 0.59021 0.57694 0.06028 0.0
H662 H 0.57527 0.60841 0.02786 0.0
H663 H 0.64133 0.58556 0.95465 0.0
H664 H 0.63269 0.56662 0.92688 0.0
H665 H 0.64577 0.55109 0.95508 0.0
H666 H 0.60593 0.52109 0.95704 0.0
H667 H 0.5927 0.53653 0.92907 0.0
H668 H 0.57416 0.53512 0.95841 0.0
H669 H 0.55706 0.62999 0.98886 0.0
H670 H 0.53717 0.63976 0.94682 0.0
H671 H 0.58284 0.57933 0.91139 0.0
C672 C 0.61414 0.54777 0.00606 0.0
C673 C 0.60828 0.5513 0.03241 0.0
C674 C 0.59506 0.57387 0.04022 0.0
C675 C 0.58658 0.59191 0.02194 0.0
C676 C 0.59174 0.58726 0.99598 0.0
C677 C 0.60549 0.56585 0.98809 0.0
C678 C 0.60563 0.56339 0.95904 0.0
C679 C 0.63299 0.56688 0.94828 0.0
C680 C 0.59389 0.53752 0.95041 0.0
C681 C 0.58855 0.5859 0.95185 0.0
C682 C 0.58118 0.59979 0.97336 0.0
C683 C 0.56318 0.61967 0.97182 0.0
C684 C 0.55192 0.62502 0.94785 0.0
C685 C 0.55855 0.61039 0.92577 0.0
C686 C 0.57773 0.59119 0.92777 0.0
H687 H 0.41925 0.95553 0.04425 0.0
H688 H 0.3441 0.98623 0.02471 0.0
H689 H 0.34584 0.96414 0.9828 0.0
H690 H 0.4466 0.96713 0.98737 0.0
H691 H 0.46644 0.93868 0.98527 0.0
H692 H 0.45671 0.95059 0.01622 0.0
H693 H 0.43651 0.90633 0.02742 0.0
H694 H 0.44647 0.89411 0.99646 0.0
H695 H 0.41313 0.89225 0.00599 0.0
H696 H 0.35959 0.94812 0.94027 0.0
H697 H 0.38374 0.93724 0.90075 0.0
H698 H 0.44979 0.91579 0.94719 0.0
C699 C 0.40266 0.95645 0.03163 0.0
C700 C 0.38143 0.97229 0.03776 0.0
C701 C 0.36046 0.974 0.0204 0.0
C702 C 0.36124 0.96145 0.99658 0.0
C703 C 0.38306 0.9471 0.99042 0.0
C704 C 0.40327 0.94416 0.00758 0.0
C705 C 0.42598 0.93094 0.99481 0.0
C706 C 0.45034 0.94785 0.99598 0.0
C707 C 0.43079 0.90432 0.00689 0.0
C708 C 0.41597 0.92846 0.9675 0.0
C709 C 0.39099 0.93744 0.96549 0.0
C710 C 0.37885 0.94026 0.94168 0.0
C711 C 0.39274 0.93418 0.91932 0.0
C712 C 0.41846 0.92534 0.92095 0.0
C713 C 0.42988 0.92178 0.94541 0.0
H714 H 0.60629 0.41284 0.54967 0.0
H715 H 0.54412 0.46802 0.55911 0.0
H716 H 0.55233 0.48502 0.5156 0.0
H717 H 0.64855 0.45848 0.51436 0.0
H718 H 0.66173 0.43384 0.49376 0.0
H719 H 0.65138 0.42584 0.52594 0.0
H720 H 0.62125 0.39061 0.5076 0.0
H721 H 0.63131 0.39853 0.47534 0.0
H722 H 0.5976 0.3992 0.48365 0.0
H723 H 0.563 0.4921 0.46994 0.0
H724 H 0.58151 0.49519 0.42634 0.0
H725 H 0.64117 0.44059 0.44733 0.0
C726 C 0.59474 0.42872 0.54258 0.0
C727 C 0.57458 0.43917 0.5576 0.0
C728 C 0.55981 0.45996 0.54792 0.0
C729 C 0.56419 0.46963 0.5232 0.0
C730 C 0.58388 0.45874 0.50868 0.0
C731 C 0.59947 0.4393 0.51814 0.0
C732 C 0.61987 0.43185 0.49854 0.0
C733 C 0.64699 0.43787 0.50876 0.0
C734 C 0.61734 0.40336 0.49083 0.0
C735 C 0.61268 0.44958 0.47641 0.0
C736 C 0.59159 0.46459 0.48268 0.0
C737 C 0.57996 0.48101 0.46498 0.0
C738 C 0.59055 0.48264 0.44031 0.0
C739 C 0.61299 0.46859 0.43386 0.0
C740 C 0.62417 0.45175 0.45205 0.0
H741 H 0.4222 0.07879 0.5556 0.0
H742 H 0.48795 0.11735 0.52125 0.0
H743 H 0.47098 0.10776 0.47803 0.0
H744 H 0.42193 0.02805 0.51674 0.0
H745 H 0.38753 0.02414 0.51419 0.0
H746 H 0.401 0.03966 0.54192 0.0
H747 H 0.37267 0.07995 0.53347 0.0
H748 H 0.35896 0.06441 0.50561 0.0
H749 H 0.37385 0.09563 0.50248 0.0
H750 H 0.45266 0.08554 0.43953 0.0
H751 H 0.43414 0.05349 0.40968 0.0
H752 H 0.37944 0.03075 0.46869 0.0
C753 C 0.43252 0.08614 0.53902 0.0
C754 C 0.4564 0.09882 0.54189 0.0
C755 C 0.46955 0.10767 0.51963 0.0
C756 C 0.46 0.1024 0.49492 0.0
C757 C 0.43704 0.08867 0.49274 0.0
C758 C 0.42322 0.08105 0.51425 0.0
C759 C 0.40108 0.06359 0.50694 0.0
C760 C 0.40304 0.03732 0.52075 0.0
C761 C 0.3751 0.07669 0.51245 0.0
C762 C 0.4057 0.06108 0.47827 0.0
C763 C 0.42616 0.07613 0.47028 0.0
C764 C 0.43613 0.07427 0.44536 0.0
C765 C 0.42551 0.05596 0.42852 0.0
C766 C 0.40524 0.03966 0.43675 0.0
C767 C 0.3946 0.04318 0.46158 0.0
H768 H 0.00446 0.60893 0.5339 0.0
H769 H 0.06669 0.56697 0.57075 0.0
H770 H 0.03602 0.5503 0.60316 0.0
H771 H 0.96548 0.62234 0.59419 0.0
H772 H 0.9358 0.61753 0.57685 0.0
H773 H 0.96348 0.63079 0.56056 0.0
H774 H 0.9605 0.5947 0.52622 0.0
H775 H 0.93305 0.58129 0.54238 0.0
H776 H 0.96094 0.56146 0.5364 0.0
H777 H 0.99752 0.53159 0.62577 0.0
H778 H 0.95516 0.51292 0.63657 0.0
H779 H 0.91822 0.5674 0.58498 0.0
C780 C 0.01188 0.59694 0.54928 0.0
C781 C 0.03801 0.5893 0.54979 0.0
C782 C 0.04681 0.57328 0.57007 0.0
C783 C 0.02951 0.56374 0.5886 0.0
C784 C 0.0036 0.57073 0.58679 0.0
C785 C 0.99491 0.58728 0.56781 0.0
C786 C 0.96582 0.5893 0.56787 0.0
C787 C 0.95714 0.61661 0.57532 0.0
C788 C 0.95443 0.58118 0.54168 0.0
C789 C 0.95933 0.5701 0.58882 0.0
C790 C 0.98135 0.55998 0.59992 0.0
C791 C 0.98016 0.53983 0.61768 0.0
C792 C 0.95598 0.5293 0.62365 0.0
C793 C 0.93331 0.53879 0.61174 0.0
C794 C 0.93508 0.56004 0.59482 0.0
H795 H 0.95789 0.90664 0.56326 0.0
H796 H 0.9873 0.83278 0.53776 0.0
H797 H 0.02684 0.83963 0.56303 0.0
H798 H 0.01169 0.93912 0.55404 0.0
H799 H 0.00988 0.96044 0.58138 0.0
H800 H 0.98096 0.94684 0.56831 0.0
H801 H 0.96926 0.92767 0.61289 0.0
H802 H 0.99815 0.94152 0.62627 0.0
H803 H 0.99214 0.90746 0.62948 0.0
H804 H 0.06634 0.85847 0.58104 0.0
H805 H 0.10241 0.88746 0.59168 0.0
H806 H 0.04824 0.9494 0.60629 0.0
C807 C 0.97209 0.89137 0.56418 0.0
C808 C 0.96948 0.86906 0.54888 0.0
C809 C 0.98889 0.84991 0.54957 0.0
C810 C 0.01137 0.8536 0.56396 0.0
C811 C 0.01413 0.8765 0.57767 0.0
C812 C 0.99485 0.89496 0.57824 0.0
C813 C 0.00427 0.91956 0.59084 0.0
C814 C 0.00155 0.94283 0.57254 0.0
C815 C 0.99011 0.92433 0.61639 0.0
C816 C 0.03227 0.91271 0.59547 0.0
C817 C 0.03739 0.88755 0.58834 0.0
C818 C 0.06246 0.87792 0.58748 0.0
C819 C 0.08286 0.89456 0.59342 0.0
C820 C 0.07807 0.92055 0.60011 0.0
C821 C 0.0524 0.92941 0.60197 0.0
H822 H 0.01675 0.38261 0.97525 0.0
H823 H 0.07367 0.43343 0.94107 0.0
H824 H 0.04108 0.44881 0.90999 0.0
H825 H 0.97864 0.36936 0.91427 0.0
H826 H 0.94886 0.36982 0.93213 0.0
H827 H 0.97799 0.35837 0.94722 0.0
H828 H 0.97171 0.39141 0.98411 0.0
H829 H 0.9428 0.40301 0.96916 0.0
H830 H 0.96855 0.42515 0.97636 0.0
H831 H 0.00064 0.46479 0.88889 0.0
H832 H 0.95643 0.47988 0.88001 0.0
H833 H 0.92612 0.41846 0.92802 0.0
C834 C 0.02268 0.39632 0.96067 0.0
C835 C 0.04779 0.40678 0.96059 0.0
C836 C 0.0546 0.42498 0.94141 0.0
C837 C 0.03622 0.43379 0.92362 0.0
C838 C 0.01125 0.42392 0.92503 0.0
C839 C 0.00459 0.4053 0.9429 0.0
C840 C 0.97589 0.40029 0.94292 0.0
C841 C 0.97001 0.37283 0.93357 0.0
C842 C 0.96407 0.40529 0.96971 0.0
C843 C 0.96717 0.42015 0.92345 0.0
C844 C 0.98785 0.43318 0.91284 0.0
C845 C 0.98434 0.4543 0.89657 0.0
C846 C 0.95912 0.46277 0.89168 0.0
C847 C 0.93776 0.45032 0.90326 0.0
C848 C 0.94196 0.42818 0.91854 0.0
H849 H 0.08211 0.1009 0.94545 0.0
H850 H 0.05011 0.05442 0.88384 0.0
H851 H 0.00701 0.07223 0.89289 0.0
H852 H 0.03525 0.08996 0.98833 0.0
H853 H 0.03456 0.12163 0.00256 0.0
H854 H 0.0635 0.11015 0.98752 0.0
H855 H 0.06418 0.15008 0.95748 0.0
H856 H 0.03523 0.16188 0.97265 0.0
H857 H 0.03627 0.15758 0.93822 0.0
H858 H 0.96653 0.08829 0.91416 0.0
H859 H 0.9329 0.10212 0.945 0.0
H860 H 0.99166 0.13847 0.992 0.0
C861 C 0.06624 0.09517 0.9332 0.0
C862 C 0.06955 0.07628 0.91393 0.0
C863 C 0.04813 0.06896 0.89866 0.0
C864 C 0.02353 0.07903 0.90361 0.0
C865 C 0.02072 0.09669 0.92362 0.0
C866 C 0.04161 0.10502 0.9379 0.0
C867 C 0.03319 0.12163 0.96029 0.0
C868 C 0.04215 0.11013 0.98618 0.0
C869 C 0.04278 0.14945 0.95695 0.0
C870 C 0.00427 0.12007 0.9573 0.0
C871 C 0.99735 0.10606 0.93578 0.0
C872 C 0.97168 0.09985 0.9307 0.0
C873 C 0.95271 0.10773 0.94835 0.0
C874 C 0.9596 0.12142 0.9709 0.0
C875 C 0.98565 0.12824 0.97485 0.0
H876 H 0.56814 0.04224 0.58385 0.0
H877 H 0.52676 0.02065 0.65306 0.0
H878 H 0.54478 0.97679 0.65037 0.0
H879 H 0.55451 0.98891 0.55075 0.0
H880 H 0.58478 0.98524 0.53412 0.0
H881 H 0.57477 0.01653 0.54494 0.0
H882 H 0.61709 0.02159 0.57083 0.0
H883 H 0.62746 0.99032 0.55979 0.0
H884 H 0.62621 0.99716 0.5938 0.0
H885 H 0.5586 0.93375 0.63513 0.0
H886 H 0.56935 0.89511 0.60953 0.0
H887 H 0.6024 0.94399 0.55026 0.0
C888 C 0.56406 0.02863 0.59914 0.0
C889 C 0.54644 0.03486 0.61888 0.0
C890 C 0.5405 0.01627 0.63795 0.0
C891 C 0.55067 0.99131 0.6366 0.0
C892 C 0.56686 0.98523 0.6161 0.0
C893 C 0.5739 0.00345 0.59788 0.0
C894 C 0.58848 0.99103 0.57583 0.0
C895 C 0.5748 0.9957 0.5499 0.0
C896 C 0.61648 0.00059 0.57503 0.0
C897 C 0.58719 0.96293 0.58376 0.0
C898 C 0.57504 0.96003 0.60726 0.0
C899 C 0.56883 0.93576 0.61708 0.0
C900 C 0.57487 0.91392 0.60234 0.0
C901 C 0.587 0.91647 0.57806 0.0
C902 C 0.59375 0.94132 0.56906 0.0
H903 H 0.55967 0.08876 0.89952 0.0
H904 H 0.62277 0.05147 0.93981 0.0
H905 H 0.61207 0.01039 0.91853 0.0
H906 H 0.5164 0.04124 0.90784 0.0
H907 H 0.50082 0.04406 0.87694 0.0
H908 H 0.51675 0.07148 0.89067 0.0
H909 H 0.54498 0.076 0.84971 0.0
H910 H 0.52896 0.04855 0.83572 0.0
H911 H 0.56356 0.04882 0.8386 0.0
H912 H 0.58968 0.97202 0.89935 0.0
H913 H 0.55788 0.94027 0.88364 0.0
H914 H 0.51003 0.00287 0.85544 0.0
C915 C 0.57184 0.0722 0.9032 0.0
C916 C 0.59209 0.07342 0.92131 0.0
C917 C 0.6072 0.05111 0.92594 0.0
C918 C 0.60133 0.02765 0.91386 0.0
C919 C 0.58052 0.02687 0.89694 0.0
C920 C 0.56622 0.04868 0.89134 0.0
C921 C 0.54302 0.04223 0.87496 0.0
C922 C 0.51778 0.05021 0.88842 0.0
C923 C 0.54528 0.05463 0.84815 0.0
C924 C 0.54569 0.01324 0.87343 0.0
C925 C 0.56768 0.00472 0.88576 0.0
C926 C 0.57273 0.97849 0.88909 0.0
C927 C 0.55453 0.96058 0.88014 0.0
C928 C 0.53148 0.96903 0.86822 0.0
C929 C 0.52757 0.99569 0.86417 0.0
H930 H 0.43879 0.56621 0.89863 0.0
H931 H 0.46713 0.54058 0.82444 0.0
H932 H 0.44437 0.49928 0.82989 0.0
H933 H 0.45044 0.51121 0.92977 0.0
H934 H 0.42263 0.51104 0.95058 0.0
H935 H 0.43469 0.54102 0.93823 0.0
H936 H 0.39002 0.55151 0.91863 0.0
H937 H 0.37765 0.52157 0.93124 0.0
H938 H 0.37485 0.52866 0.89736 0.0
H939 H 0.42769 0.45821 0.84707 0.0
H940 H 0.4167 0.42076 0.87427 0.0
H941 H 0.39852 0.47222 0.93752 0.0
C942 C 0.43901 0.55238 0.88302 0.0
C943 C 0.45432 0.55665 0.86095 0.0
C944 C 0.45523 0.53772 0.84136 0.0
C945 C 0.44231 0.51423 0.84426 0.0
C946 C 0.42848 0.50995 0.86685 0.0
C947 C 0.42642 0.52862 0.8858 0.0
C948 C 0.41374 0.51777 0.90979 0.0
C949 C 0.43144 0.52041 0.93346 0.0
C950 C 0.3875 0.53064 0.91453 0.0
C951 C 0.4105 0.48982 0.90193 0.0
C952 C 0.41864 0.48584 0.8769 0.0
C953 C 0.42052 0.46117 0.86642 0.0
C954 C 0.41437 0.43998 0.88205 0.0
C955 C 0.40644 0.4436 0.90787 0.0
C956 C 0.40383 0.4689 0.91762 0.0
H957 H 0.9052 0.0449 0.05656 0.0
H958 H 0.92257 0.09631 0.11999 0.0
H959 H 0.9348 0.05895 0.14679 0.0
H960 H 0.88399 0.9869 0.09673 0.0
H961 H 0.89966 0.96507 0.07473 0.0
H962 H 0.88578 0.99469 0.06293 0.0
H963 H 0.92967 0.00719 0.04273 0.0
H964 H 0.94366 0.97781 0.0545 0.0
H965 H 0.95792 0.00834 0.0629 0.0
H966 H 0.95328 0.01836 0.16327 0.0
H967 H 0.97782 0.97794 0.16781 0.0
H968 H 0.94926 0.95207 0.09381 0.0
C969 C 0.91046 0.04817 0.07647 0.0
C970 C 0.91259 0.07346 0.08634 0.0
C971 C 0.92057 0.07708 0.11214 0.0
C972 C 0.92742 0.05595 0.12754 0.0
C973 C 0.92617 0.03131 0.11687 0.0
C974 C 0.91774 0.02728 0.09194 0.0
C975 C 0.92212 0.99958 0.08368 0.0
C976 C 0.89635 0.98574 0.07927 0.0
C977 C 0.93937 0.99817 0.05955 0.0
C978 C 0.93575 0.98905 0.10727 0.0
C979 C 0.93725 0.00751 0.12644 0.0
C980 C 0.95163 0.00352 0.14873 0.0
C981 C 0.96556 0.98053 0.15112 0.0
C982 C 0.96509 0.96179 0.13132 0.0
C983 C 0.94924 0.96572 0.10958 0.0
H984 H 0.0101 0.18629 0.39986 0.0
H985 H 0.00858 0.16789 0.31847 0.0
H986 H 0.99768 0.21352 0.30849 0.0
H987 H 0.95865 0.23112 0.40118 0.0
H988 H 0.97414 0.25225 0.42394 0.0
H989 H 0.98138 0.21832 0.42413 0.0
H990 H 0.03 0.22846 0.41873 0.0
H991 H 0.02292 0.26244 0.41861 0.0
H992 H 0.04047 0.24829 0.39219 0.0
H993 H 0.9844 0.26149 0.30848 0.0
H994 H 0.97444 0.30737 0.31796 0.0
H995 H 0.98825 0.29313 0.39912 0.0
C996 C 0.00739 0.19183 0.37992 0.0
C997 C 0.00982 0.17366 0.35992 0.0
C998 C 0.0067 0.18165 0.33403 0.0
C999 C 0.00045 0.20744 0.32825 0.0
C1000 C 0.99799 0.2249 0.34857 0.0
C1001 C 0.0018 0.21738 0.37385 0.0
C1002 C 0.99908 0.23971 0.39226 0.0
C1003 C 0.97699 0.23506 0.4115 0.0
C1004 C 0.02464 0.24503 0.40626 0.0
C1005 C 0.9926 0.261 0.37355 0.0
C1006 C 0.99183 0.25223 0.34842 0.0
C1007 C 0.98526 0.26857 0.32806 0.0
C1008 C 0.97955 0.29453 0.3336 0.0
C1009 C 0.98084 0.3038 0.35921 0.0
C1010 C 0.98746 0.28671 0.37928 0.0
H1011 H 0.98544 0.69957 0.10446 0.0
H1012 H 0.98308 0.68596 0.18683 0.0
H1013 H 0.98823 0.73294 0.19452 0.0
H1014 H 0.03157 0.7508 0.10403 0.0
H1015 H 0.01534 0.76844 0.07888 0.0
H1016 H 0.01263 0.73388 0.08037 0.0
H1017 H 0.96284 0.7378 0.08144 0.0
H1018 H 0.9654 0.77238 0.08002 0.0
H1019 H 0.94776 0.75733 0.10589 0.0
H1020 H 0.99563 0.78196 0.19246 0.0
H1021 H 0.00044 0.8282 0.18096 0.0
H1022 H 0.99384 0.80858 0.10008 0.0
C1023 C 0.98623 0.70642 0.12415 0.0
C1024 C 0.98424 0.6892 0.14509 0.0
C1025 C 0.98473 0.69893 0.17055 0.0
C1026 C 0.98769 0.72552 0.17506 0.0
C1027 C 0.9896 0.74203 0.15388 0.0
C1028 C 0.98854 0.73278 0.12893 0.0
C1029 C 0.98978 0.75435 0.1094 0.0
C1030 C 0.01376 0.7517 0.09216 0.0
C1031 C 0.96496 0.75553 0.09325 0.0
C1032 C 0.99194 0.77729 0.12715 0.0
C1033 C 0.99215 0.76991 0.15275 0.0
C1034 C 0.99517 0.78792 0.17248 0.0
C1035 C 0.99792 0.81409 0.16581 0.0
C1036 C 0.99712 0.82191 0.13969 0.0
C1037 C 0.99402 0.80321 0.12025 0.0
H1038 H 0.42436 0.98808 0.18878 0.0
H1039 H 0.34318 0.00398 0.17701 0.0
H1040 H 0.33516 0.99689 0.22355 0.0
H1041 H 0.41749 0.93892 0.23816 0.0
H1042 H 0.44506 0.95007 0.25605 0.0
H1043 H 0.44382 0.95442 0.22164 0.0
H1044 H 0.45097 0.00352 0.22744 0.0
H1045 H 0.45223 0.99932 0.26183 0.0
H1046 H 0.42947 0.02158 0.24789 0.0
H1047 H 0.33647 0.98841 0.27194 0.0
H1048 H 0.34743 0.98264 0.31803 0.0
H1049 H 0.42811 0.9749 0.29764 0.0
C1050 C 0.40481 0.98972 0.1959 0.0
C1051 C 0.38432 0.99629 0.17926 0.0
C1052 C 0.35913 0.99883 0.18943 0.0
C1053 C 0.3544 0.99477 0.2158 0.0
C1054 C 0.37512 0.98845 0.23173 0.0
C1055 C 0.39986 0.98615 0.22213 0.0
C1056 C 0.41908 0.98084 0.24338 0.0
C1057 C 0.43213 0.95449 0.23958 0.0
C1058 C 0.43911 0.00262 0.24524 0.0
C1059 C 0.40137 0.98064 0.26652 0.0
C1060 C 0.37603 0.98469 0.25945 0.0
C1061 C 0.35626 0.98525 0.27766 0.0
C1062 C 0.36265 0.9819 0.30377 0.0
C1063 C 0.38861 0.97844 0.31141 0.0
C1064 C 0.40809 0.97764 0.29243 0.0
H1065 H 0.58463 0.51772 0.18168 0.0
H1066 H 0.66553 0.50501 0.16501 0.0
H1067 H 0.67547 0.50833 0.2116 0.0
H1068 H 0.59261 0.56259 0.23492 0.0
H1069 H 0.56606 0.54911 0.25279 0.0
H1070 H 0.56594 0.54807 0.21811 0.0
H1071 H 0.56005 0.49847 0.21958 0.0
H1072 H 0.56015 0.49935 0.25422 0.0
H1073 H 0.58276 0.47908 0.23736 0.0
H1074 H 0.67599 0.51208 0.26055 0.0
H1075 H 0.66673 0.51247 0.30737 0.0
H1076 H 0.58516 0.52031 0.29103 0.0
C1077 C 0.60452 0.51603 0.18774 0.0
C1078 C 0.62438 0.51139 0.16975 0.0
C1079 C 0.65006 0.5087 0.17852 0.0
C1080 C 0.65587 0.51065 0.20489 0.0
C1081 C 0.63573 0.51506 0.22216 0.0
C1082 C 0.61055 0.51753 0.21388 0.0
C1083 C 0.59211 0.52032 0.23625 0.0
C1084 C 0.57838 0.54659 0.23546 0.0
C1085 C 0.57263 0.49797 0.23688 0.0
C1086 C 0.61076 0.51878 0.25852 0.0
C1087 C 0.63589 0.51616 0.25009 0.0
C1088 C 0.65639 0.51416 0.26734 0.0
C1089 C 0.65096 0.51447 0.29386 0.0
C1090 C 0.62524 0.51633 0.30277 0.0
C1091 C 0.60502 0.51877 0.28479 0.0
H1092 H 0.30427 0.42303 0.99246 0.0
H1093 H 0.31617 0.34086 0.98278 0.0
H1094 H 0.26946 0.33346 0.98962 0.0
H1095 H 0.25521 0.41991 0.04128 0.0
H1096 H 0.23728 0.44666 0.02822 0.0
H1097 H 0.27164 0.44501 0.02375 0.0
H1098 H 0.26552 0.44854 0.97431 0.0
H1099 H 0.23115 0.4502 0.97862 0.0
H1100 H 0.24491 0.42583 0.95805 0.0
H1101 H 0.22096 0.33552 0.99849 0.0
H1102 H 0.17505 0.34707 0.00506 0.0
H1103 H 0.19573 0.42804 0.00602 0.0
C1104 C 0.29713 0.40343 0.992 0.0
C1105 C 0.31384 0.38247 0.98736 0.0
C1106 C 0.30366 0.35717 0.9864 0.0
C1107 C 0.2772 0.3528 0.99032 0.0
C1108 C 0.26123 0.37398 0.99484 0.0
C1109 C 0.27085 0.39881 0.99541 0.0
C1110 C 0.2497 0.41844 0.9994 0.0
C1111 C 0.2537 0.43338 0.02467 0.0
C1112 C 0.2477 0.43683 0.97621 0.0
C1113 C 0.22657 0.40085 0.00106 0.0
C1114 C 0.23354 0.37524 0.9987 0.0
C1115 C 0.21532 0.35553 0.0002 0.0
C1116 C 0.18933 0.36224 0.00399 0.0
C1117 C 0.18186 0.38843 0.00584 0.0
C1118 C 0.20082 0.40785 0.0044 0.0
H1119 H 0.1838 0.56569 0.49994 0.0
H1120 H 0.17065 0.64818 0.4963 0.0
H1121 H 0.21784 0.65538 0.49359 0.0
H1122 H 0.24213 0.56666 0.53734 0.0
H1123 H 0.25658 0.54053 0.51962 0.0
H1124 H 0.22209 0.5424 0.5227 0.0
H1125 H 0.21761 0.54106 0.47298 0.0
H1126 H 0.2521 0.53936 0.46973 0.0
H1127 H 0.23439 0.56457 0.45366 0.0
H1128 H 0.26706 0.65299 0.49225 0.0
H1129 H 0.31331 0.64128 0.4897 0.0
H1130 H 0.29279 0.56028 0.49077 0.0
C1131 C 0.19082 0.58532 0.49891 0.0
C1132 C 0.17365 0.60643 0.49869 0.0
C1133 C 0.18355 0.63177 0.49667 0.0
C1134 C 0.21028 0.63601 0.49513 0.0
C1135 C 0.22668 0.61467 0.49522 0.0
C1136 C 0.21723 0.58982 0.49683 0.0
C1137 C 0.2386 0.57005 0.49535 0.0
C1138 C 0.23992 0.55397 0.52023 0.0
C1139 C 0.23548 0.55275 0.47151 0.0
C1140 C 0.26167 0.58759 0.49276 0.0
C1141 C 0.25453 0.61327 0.49301 0.0
C1142 C 0.2728 0.63294 0.49181 0.0
C1143 C 0.29898 0.62613 0.49038 0.0
C1144 C 0.30653 0.5999 0.48971 0.0
C1145 C 0.28756 0.5805 0.49079 0.0
H1146 H 0.7067 0.84954 0.50111 0.0
H1147 H 0.69179 0.93042 0.51649 0.0
H1148 H 0.73821 0.9378 0.52288 0.0
H1149 H 0.75918 0.84087 0.54595 0.0
H1150 H 0.77785 0.82061 0.5248 0.0
H1151 H 0.74323 0.82103 0.52236 0.0
H1152 H 0.74649 0.83298 0.47401 0.0
H1153 H 0.7811 0.83233 0.47624 0.0
H1154 H 0.76499 0.8608 0.46449 0.0
H1155 H 0.78532 0.93648 0.52904 0.0
H1156 H 0.8319 0.92818 0.52864 0.0
H1157 H 0.81778 0.84878 0.50619 0.0
C1158 C 0.71329 0.86876 0.50582 0.0
C1159 C 0.6957 0.88942 0.50842 0.0
C1160 C 0.70497 0.91438 0.51429 0.0
C1161 C 0.73126 0.91872 0.51815 0.0
C1162 C 0.74809 0.89799 0.51569 0.0
C1163 C 0.73966 0.8736 0.50919 0.0
C1164 C 0.76218 0.85515 0.50628 0.0
C1165 C 0.7605 0.83311 0.52603 0.0
C1166 C 0.76378 0.84471 0.47861 0.0
C1167 C 0.78451 0.87304 0.51222 0.0
C1168 C 0.77577 0.89752 0.51802 0.0
C1169 C 0.79247 0.91744 0.5244 0.0
C1170 C 0.81893 0.91246 0.52423 0.0
C1171 C 0.82853 0.88784 0.51733 0.0
C1172 C 0.81102 0.86778 0.51156 0.0
H1173 H 0.48433 0.81999 0.89115 0.0
H1174 H 0.48554 0.83616 0.80922 0.0
H1175 H 0.48627 0.78914 0.80016 0.0
H1176 H 0.5253 0.76485 0.89109 0.0
H1177 H 0.50691 0.74801 0.91527 0.0
H1178 H 0.50724 0.78269 0.9148 0.0
H1179 H 0.45735 0.78324 0.91237 0.0
H1180 H 0.45687 0.74854 0.91276 0.0
H1181 H 0.44133 0.76585 0.88696 0.0
H1182 H 0.48947 0.73964 0.80086 0.0
H1183 H 0.49081 0.69287 0.81106 0.0
H1184 H 0.4833 0.71056 0.89231 0.0
C1185 C 0.48491 0.81366 0.87128 0.0
C1186 C 0.48524 0.8316 0.85085 0.0
C1187 C 0.48541 0.82262 0.82512 0.0
C1188 C 0.48586 0.79601 0.81983 0.0
C1189 C 0.48556 0.77878 0.84052 0.0
C1190 C 0.48471 0.78735 0.86572 0.0
C1191 C 0.48353 0.76518 0.88458 0.0
C1192 C 0.50715 0.76519 0.90248 0.0
C1193 C 0.45827 0.76574 0.90007 0.0
C1194 C 0.48419 0.74267 0.86617 0.0
C1195 C 0.48566 0.75075 0.84083 0.0
C1196 C 0.48793 0.73315 0.82062 0.0
C1197 C 0.48871 0.70667 0.82656 0.0
C1198 C 0.48672 0.69817 0.8524 0.0
C1199 C 0.48428 0.71648 0.87232 0.0
H1200 H 0.51873 0.30325 0.64074 0.0
H1201 H 0.57193 0.31708 0.57789 0.0
H1202 H 0.57932 0.27026 0.57363 0.0
H1203 H 0.5511 0.24541 0.66816 0.0
H1204 H 0.52113 0.22916 0.67471 0.0
H1205 H 0.52259 0.26386 0.67547 0.0
H1206 H 0.48565 0.2663 0.64204 0.0
H1207 H 0.48408 0.23166 0.6412 0.0
H1208 H 0.48895 0.24954 0.61181 0.0
H1209 H 0.57913 0.2227 0.5741 0.0
H1210 H 0.56888 0.17653 0.57666 0.0
H1211 H 0.51366 0.19209 0.63761 0.0
C1212 C 0.53236 0.29629 0.62656 0.0
C1213 C 0.54519 0.31359 0.6099 0.0
C1214 C 0.56222 0.30399 0.59095 0.0
C1215 C 0.56658 0.27749 0.58847 0.0
C1216 C 0.55348 0.2608 0.60489 0.0
C1217 C 0.53653 0.26968 0.62345 0.0
C1218 C 0.52302 0.24732 0.63669 0.0
C1219 C 0.52988 0.24639 0.66547 0.0
C1220 C 0.49369 0.2488 0.63268 0.0
C1221 C 0.53467 0.22462 0.62232 0.0
C1222 C 0.55254 0.23294 0.60443 0.0
C1223 C 0.5653 0.21589 0.58815 0.0
C1224 C 0.5593 0.18965 0.58977 0.0
C1225 C 0.54048 0.18059 0.60735 0.0
C1226 C 0.52832 0.19835 0.62414 0.0
H1227 H 0.86116 0.46323 0.81837 0.0
H1228 H 0.82687 0.5391 0.8231 0.0
H1229 H 0.81668 0.53751 0.77647 0.0
H1230 H 0.8939 0.47534 0.76267 0.0
H1231 H 0.89108 0.44349 0.74912 0.0
H1232 H 0.88994 0.44774 0.78344 0.0
H1233 H 0.84576 0.42459 0.78517 0.0
H1234 H 0.84682 0.42014 0.75074 0.0
H1235 H 0.81964 0.43607 0.76537 0.0
H1236 H 0.81497 0.5298 0.72881 0.0
H1237 H 0.82559 0.51898 0.68375 0.0
H1238 H 0.86442 0.44958 0.70968 0.0
C1239 C 0.85051 0.47896 0.80968 0.0
C1240 C 0.84393 0.50092 0.8242 0.0
C1241 C 0.83136 0.52187 0.81221 0.0
C1242 C 0.8255 0.52107 0.78582 0.0
C1243 C 0.83278 0.49934 0.77174 0.0
C1244 C 0.84517 0.4787 0.78325 0.0
C1245 C 0.85467 0.45959 0.76333 0.0
C1246 C 0.88413 0.45638 0.76473 0.0
C1247 C 0.84089 0.43355 0.76633 0.0
C1248 C 0.84652 0.4731 0.73878 0.0
C1249 C 0.83326 0.49561 0.74405 0.0
C1250 C 0.82504 0.51207 0.72446 0.0
C1251 C 0.83115 0.50573 0.6989 0.0
C1252 C 0.84581 0.48342 0.69319 0.0
C1253 C 0.85302 0.46666 0.71342 0.0
H1254 H 0.10261 0.99746 0.7015 0.0
H1255 H 0.1842 0.9978 0.68362 0.0
H1256 H 0.19422 0.00185 0.73022 0.0
H1257 H 0.10366 0.04235 0.7535 0.0
H1258 H 0.0799 0.02512 0.77208 0.0
H1259 H 0.07965 0.02308 0.73747 0.0
H1260 H 0.08225 0.97324 0.74035 0.0
H1261 H 0.08255 0.97513 0.77497 0.0
H1262 H 0.10806 0.95847 0.7583 0.0
H1263 H 0.19454 0.00786 0.77944 0.0
H1264 H 0.18531 0.0115 0.82626 0.0
H1265 H 0.10367 0.00364 0.8105 0.0
C1266 C 0.12261 0.99856 0.70734 0.0
C1267 C 0.14266 0.99766 0.68903 0.0
C1268 C 0.16858 0.99858 0.69743 0.0
C1269 C 0.17441 0.00092 0.72381 0.0
C1270 C 0.15408 0.00181 0.74141 0.0
C1271 C 0.12872 1.00032 0.73344 0.0
C1272 C 0.1103 0.00064 0.75596 0.0
C1273 C 0.09233 0.0242 0.75467 0.0
C1274 C 0.09489 0.97536 0.75748 0.0
C1275 C 0.12917 0.00285 0.77797 0.0
C1276 C 0.15434 0.00378 0.76933 0.0
C1277 C 0.17491 0.00686 0.78638 0.0
C1278 C 0.16952 0.00896 0.81288 0.0
C1279 C 0.14384 0.00752 0.82196 0.0
C1280 C 0.12355 0.00436 0.80419 0.0
H1281 H 0.80869 0.09878 0.0078 0.0
H1282 H 0.82604 0.18045 0.01098 0.0
H1283 H 0.77959 0.19045 0.00556 0.0
H1284 H 0.75829 0.10152 0.96095 0.0
H1285 H 0.73916 0.07706 0.97651 0.0
H1286 H 0.77367 0.07675 0.97987 0.0
H1287 H 0.76891 0.07733 0.02958 0.0
H1288 H 0.73438 0.07765 0.02638 0.0
H1289 H 0.75029 0.10251 0.04464 0.0
H1290 H 0.73076 0.19095 0.99793 0.0
H1291 H 0.68414 0.18196 0.99244 0.0
H1292 H 0.69966 0.09998 0.99758 0.0
C1293 C 0.80277 0.1188 0.0072 0.0
C1294 C 0.82094 0.13888 0.00952 0.0
C1295 C 0.81238 0.1648 0.00915 0.0
C1296 C 0.78608 0.17062 0.00603 0.0
C1297 C 0.76864 0.15028 0.00375 0.0
C1298 C 0.77669 0.12489 0.00463 0.0
C1299 C 0.75422 0.10647 0.00273 0.0
C1300 C 0.75648 0.08946 0.97857 0.0
C1301 C 0.75182 0.09003 0.02729 0.0
C1302 C 0.73219 0.12539 0.0004 0.0
C1303 C 0.7408 0.15059 0.00074 0.0
C1304 C 0.72383 0.17129 0.9979 0.0
C1305 C 0.69743 0.16602 0.99474 0.0
C1306 C 0.6883 0.14031 0.99488 0.0
C1307 C 0.706 0.11986 0.9978 0.0
H1308 H 0.06972 0.99235 0.18904 0.0
H1309 H 0.08594 0.91598 0.21895 0.0
H1310 H 0.10005 0.93533 0.26018 0.0
H1311 H 0.12108 0.02856 0.22481 0.0
H1312 H 0.09978 0.05549 0.23016 0.0
H1313 H 0.09659 0.03627 0.20142 0.0
H1314 H 0.04858 0.02791 0.21234 0.0
H1315 H 0.05162 0.04702 0.24099 0.0
H1316 H 0.04029 0.01426 0.2432 0.0
H1317 H 0.10675 0.96229 0.2995 0.0
H1318 H 0.10164 0.99353 0.33478 0.0
H1319 H 0.07875 0.0522 0.27971 0.0
C1320 C 0.07712 0.97973 0.20393 0.0
C1321 C 0.07718 0.95269 0.20072 0.0
C1322 C 0.08604 0.93676 0.22097 0.0
C1323 C 0.09421 0.94761 0.24436 0.0
C1324 C 0.09327 0.97436 0.24713 0.0
C1325 C 0.08484 0.9902 0.22745 0.0
C1326 C 0.08189 0.01782 0.23641 0.0
C1327 C 0.10098 0.03558 0.22236 0.0
C1328 C 0.05394 0.02728 0.23305 0.0
C1329 C 0.08892 0.01493 0.26453 0.0
C1330 C 0.09613 0.98986 0.27016 0.0
C1331 C 0.10152 0.98203 0.29524 0.0
C1332 C 0.09854 0.99997 0.31518 0.0
C1333 C 0.08982 0.02536 0.31 0.0
C1334 C 0.08582 0.03309 0.28423 0.0
H1335 H 0.91407 0.48761 0.31869 0.0
H1336 H 0.89763 0.4147 0.28142 0.0
H1337 H 0.88899 0.43778 0.24059 0.0
H1338 H 0.86824 0.52893 0.28077 0.0
H1339 H 0.89098 0.55515 0.2797 0.0
H1340 H 0.89045 0.53366 0.30702 0.0
H1341 H 0.93895 0.52393 0.30033 0.0
H1342 H 0.93963 0.54523 0.27305 0.0
H1343 H 0.94987 0.51222 0.26951 0.0
H1344 H 0.8881 0.46773 0.20297 0.0
H1345 H 0.89749 0.50143 0.17088 0.0
H1346 H 0.91622 0.55489 0.23228 0.0
C1347 C 0.90773 0.47657 0.30219 0.0
C1348 C 0.9061 0.44939 0.30328 0.0
C1349 C 0.8987 0.43554 0.28104 0.0
C1350 C 0.89366 0.44851 0.25783 0.0
C1351 C 0.89618 0.4753 0.25721 0.0
C1352 C 0.90306 0.48917 0.27884 0.0
C1353 C 0.90797 0.51725 0.27236 0.0
C1354 C 0.88822 0.53478 0.28576 0.0
C1355 C 0.93575 0.52509 0.27921 0.0
C1356 C 0.90379 0.51684 0.2435 0.0
C1357 C 0.89641 0.49259 0.23526 0.0
C1358 C 0.89344 0.48688 0.20924 0.0
C1359 C 0.89887 0.50618 0.19114 0.0
C1360 C 0.90747 0.53085 0.19908 0.0
C1361 C 0.9092 0.5364 0.22565 0.0
H1362 H 0.19318 0.06308 0.00285 0.0
H1363 H 0.22371 0.08512 0.92826 0.0
H1364 H 0.26522 0.09646 0.94875 0.0
H1365 H 0.2294 0.11058 0.04302 0.0
H1366 H 0.23447 0.08727 0.06829 0.0
H1367 H 0.20583 0.08571 0.04872 0.0
H1368 H 0.21652 0.03841 0.03677 0.0
H1369 H 0.24506 0.03981 0.05628 0.0
H1370 H 0.24745 0.03097 0.02279 0.0
H1371 H 0.3044 0.10071 0.9763 0.0
H1372 H 0.33945 0.09365 0.00744 0.0
H1373 H 0.28402 0.06674 0.06397 0.0
C1374 C 0.20834 0.07108 0.99095 0.0
C1375 C 0.20516 0.07367 0.96403 0.0
C1376 C 0.22572 0.08326 0.94894 0.0
C1377 C 0.24927 0.08988 0.96045 0.0
C1378 C 0.25194 0.08663 0.98702 0.0
C1379 C 0.23205 0.07731 0.00206 0.0
C1380 C 0.24085 0.07223 0.02944 0.0
C1381 C 0.2268 0.09002 0.04849 0.0
C1382 C 0.23727 0.04367 0.03673 0.0
C1383 C 0.26907 0.07927 0.02728 0.0
C1384 C 0.27489 0.08816 0.00282 0.0
C1385 C 0.30001 0.09411 0.99559 0.0
C1386 C 0.3198 0.09001 0.01346 0.0
C1387 C 0.31447 0.07971 0.0382 0.0
C1388 C 0.28865 0.07507 0.04541 0.0
H1389 H 0.68342 0.456 0.99461 0.0
H1390 H 0.71193 0.43745 0.0709 0.0
H1391 H 0.75402 0.42518 0.05202 0.0
H1392 H 0.72033 0.40676 0.95769 0.0
H1393 H 0.72619 0.42881 0.93148 0.0
H1394 H 0.6971 0.43152 0.95027 0.0
H1395 H 0.70783 0.47926 0.96031 0.0
H1396 H 0.73676 0.47672 0.94148 0.0
H1397 H 0.7385 0.4871 0.97456 0.0
H1398 H 0.79382 0.41902 0.02551 0.0
H1399 H 0.82962 0.42445 0.99489 0.0
H1400 H 0.77568 0.44934 0.93606 0.0
C1401 C 0.69829 0.44865 0.00727 0.0
C1402 C 0.69438 0.44724 0.03416 0.0
C1403 C 0.71454 0.43844 0.05022 0.0
C1404 C 0.7384 0.43127 0.03964 0.0
C1405 C 0.74174 0.43321 0.01302 0.0
C1406 C 0.72228 0.44192 0.99708 0.0
C1407 C 0.73174 0.44562 0.96971 0.0
C1408 C 0.71802 0.42707 0.9512 0.0
C1409 C 0.72853 0.47385 0.96103 0.0
C1410 C 0.75983 0.43847 0.97286 0.0
C1411 C 0.76503 0.43069 0.99783 0.0
C1412 C 0.78992 0.42479 0.00585 0.0
C1413 C 0.81015 0.42791 0.98825 0.0
C1414 C 0.80546 0.43729 0.96302 0.0
C1415 C 0.77984 0.44175 0.95504 0.0
H1416 H 0.3216 0.95432 0.49265 0.0
H1417 H 0.28899 0.93203 0.41901 0.0
H1418 H 0.24757 0.92226 0.44061 0.0
H1419 H 0.28729 0.90713 0.53282 0.0
H1420 H 0.28306 0.92976 0.55881 0.0
H1421 H 0.31078 0.93216 0.53803 0.0
H1422 H 0.29901 0.97959 0.52752 0.0
H1423 H 0.2714 0.97737 0.54832 0.0
H1424 H 0.2674 0.98696 0.51518 0.0
H1425 H 0.20908 0.91804 0.46979 0.0
H1426 H 0.17571 0.92243 0.50328 0.0
H1427 H 0.23361 0.94827 0.55771 0.0
C1428 C 0.30591 0.94696 0.48106 0.0
C1429 C 0.30854 0.94374 0.45415 0.0
C1430 C 0.2874 0.93454 0.43966 0.0
C1431 C 0.26388 0.92882 0.45179 0.0
C1432 C 0.26192 0.93241 0.47837 0.0
C1433 C 0.28237 0.94136 0.49279 0.0
C1434 C 0.27479 0.94565 0.52063 0.0
C1435 C 0.28988 0.92759 0.53863 0.0
C1436 C 0.27835 0.97408 0.52835 0.0
C1437 C 0.24662 0.93833 0.51957 0.0
C1438 C 0.23968 0.93035 0.49511 0.0
C1439 C 0.21436 0.92399 0.48905 0.0
C1440 C 0.19555 0.92655 0.50824 0.0
C1441 C 0.20208 0.93559 0.53317 0.0
C1442 C 0.22808 0.94092 0.53899 0.0
H1443 H 0.80258 0.54945 0.53868 0.0
H1444 H 0.77031 0.51406 0.60724 0.0
H1445 H 0.72769 0.51244 0.58614 0.0
H1446 H 0.74381 0.5868 0.51918 0.0
H1447 H 0.74997 0.58076 0.48555 0.0
H1448 H 0.77646 0.58345 0.50781 0.0
H1449 H 0.79299 0.53866 0.49319 0.0
H1450 H 0.76637 0.53556 0.47129 0.0
H1451 H 0.7719 0.51116 0.49541 0.0
H1452 H 0.69053 0.50839 0.55512 0.0
H1453 H 0.66104 0.50531 0.51791 0.0
H1454 H 0.718 0.54303 0.46969 0.0
C1455 C 0.78638 0.54221 0.54966 0.0
C1456 C 0.78977 0.53203 0.57469 0.0
C1457 C 0.76815 0.52222 0.58815 0.0
C1458 C 0.74386 0.52114 0.57628 0.0
C1459 C 0.74152 0.53017 0.55107 0.0
C1460 C 0.76213 0.54091 0.53808 0.0
C1461 C 0.75527 0.54706 0.51039 0.0
C1462 C 0.75644 0.57625 0.50545 0.0
C1463 C 0.77266 0.53222 0.49147 0.0
C1464 C 0.72785 0.53729 0.50954 0.0
C1465 C 0.72016 0.52781 0.53322 0.0
C1466 C 0.6962 0.51618 0.53663 0.0
C1467 C 0.67967 0.51433 0.51532 0.0
C1468 C 0.68721 0.52396 0.49091 0.0
C1469 C 0.71156 0.53574 0.48815 0.0
H1470 H 0.00601 0.32456 0.05135 0.0
H1471 H 0.08273 0.29585 0.068 0.0
H1472 H 0.06434 0.25303 0.07832 0.0
H1473 H 0.97069 0.28662 0.09979 0.0
H1474 H 0.9438 0.28114 0.07854 0.0
H1475 H 0.96257 0.31021 0.07559 0.0
H1476 H 0.97115 0.30005 0.02748 0.0
H1477 H 0.95236 0.27107 0.03024 0.0
H1478 H 0.98511 0.26944 0.01879 0.0
H1479 H 0.03795 0.21297 0.0842 0.0
H1480 H 0.00652 0.17757 0.08149 0.0
H1481 H 0.94704 0.23205 0.05918 0.0
C1482 C 0.01891 0.30941 0.05768 0.0
C1483 C 0.04578 0.31356 0.05921 0.0
C1484 C 0.06208 0.29308 0.06686 0.0
C1485 C 0.05179 0.26878 0.07288 0.0
C1486 C 0.0252 0.2653 0.07098 0.0
C1487 C 0.009 0.28501 0.06337 0.0
C1488 C 0.9815 0.27567 0.06044 0.0
C1489 C 0.96358 0.28922 0.07975 0.0
C1490 C 0.97199 0.27927 0.03259 0.0
C1491 C 0.98479 0.24744 0.0671 0.0
C1492 C 0.01006 0.24199 0.07357 0.0
C1493 C 0.01809 0.21705 0.07935 0.0
C1494 C 1.00003 0.19706 0.07778 0.0
C1495 C 0.97425 0.20202 0.07018 0.0
C1496 C 0.96648 0.22767 0.06536 0.0
H1497 H 0.04792 0.69989 0.45114 0.0
H1498 H 0.98345 0.64788 0.43998 0.0
H1499 H 0.95467 0.68498 0.43306 0.0
H1500 H 0.01558 0.74488 0.48708 0.0
H1501 H 0.03117 0.77286 0.47364 0.0
H1502 H 0.04753 0.74232 0.47369 0.0
H1503 H 0.05363 0.74526 0.42422 0.0
H1504 H 0.03733 0.77596 0.42402 0.0
H1505 H 0.02596 0.75014 0.40381 0.0
H1506 H 0.93167 0.7274 0.43441 0.0
H1507 H 0.91693 0.77218 0.44177 0.0
H1508 H 0.99641 0.79659 0.44999 0.0
C1509 C 0.02791 0.6963 0.44651 0.0
C1510 C 0.01798 0.67098 0.44606 0.0
C1511 C 0.99156 0.6671 0.44036 0.0
C1512 C 0.97502 0.68806 0.43632 0.0
C1513 C 0.98522 0.71281 0.43769 0.0
C1514 C 0.01113 0.71704 0.44228 0.0
C1515 C 0.01682 0.74553 0.44481 0.0
C1516 C 0.02845 0.75175 0.47138 0.0
C1517 C 0.03448 0.75476 0.4229 0.0
C1518 C 0.98994 0.75653 0.44205 0.0
C1519 C 0.97198 0.7374 0.43773 0.0
C1520 C 0.94561 0.74265 0.43714 0.0
C1521 C 0.93739 0.76809 0.4414 0.0
C1522 C 0.95552 0.78788 0.44606 0.0
C1523 C 0.9821 0.782 0.44582 0.0
H1524 H 0.55082 0.75774 0.5503 0.0
H1525 H 0.48996 0.81438 0.55905 0.0
H1526 H 0.4582 0.77945 0.56471 0.0
H1527 H 0.51509 0.71578 0.51184 0.0
H1528 H 0.52853 0.68654 0.52494 0.0
H1529 H 0.54704 0.71582 0.52542 0.0
H1530 H 0.5526 0.71156 0.57486 0.0
H1531 H 0.53404 0.68221 0.57451 0.0
H1532 H 0.5245 0.70853 0.59506 0.0
H1533 H 0.43256 0.73865 0.56607 0.0
H1534 H 0.41454 0.69505 0.55995 0.0
H1535 H 0.49173 0.66491 0.54854 0.0
C1536 C 0.53091 0.76273 0.55404 0.0
C1537 C 0.52284 0.78871 0.55455 0.0
C1538 C 0.49652 0.79456 0.55872 0.0
C1539 C 0.47837 0.77486 0.56209 0.0
C1540 C 0.48682 0.7494 0.56107 0.0
C1541 C 0.51244 0.74326 0.55702 0.0
C1542 C 0.51601 0.71443 0.55409 0.0
C1543 C 0.52733 0.70776 0.5275 0.0
C1544 C 0.53278 0.70354 0.57594 0.0
C1545 C 0.48835 0.70543 0.55653 0.0
C1546 C 0.47188 0.72584 0.56103 0.0
C1547 C 0.44529 0.72246 0.5628 0.0
C1548 C 0.43523 0.69761 0.55933 0.0
C1549 C 0.4517 0.67656 0.55383 0.0
C1550 C 0.47863 0.68056 0.55292 0.0
H1551 H 0.57066 0.53601 0.80068 0.0
H1552 H 0.54971 0.60819 0.76393 0.0
H1553 H 0.55661 0.58825 0.72129 0.0
H1554 H 0.61868 0.51366 0.75036 0.0
H1555 H 0.60814 0.48074 0.75387 0.0
H1556 H 0.60741 0.5022 0.78116 0.0
H1557 H 0.55893 0.49222 0.78754 0.0
H1558 H 0.55938 0.47107 0.7602 0.0
H1559 H 0.53689 0.49753 0.76123 0.0
H1560 H 0.55748 0.55871 0.68353 0.0
H1561 H 0.55347 0.52233 0.65335 0.0
H1562 H 0.57378 0.46902 0.71448 0.0
C1563 C 0.56847 0.54795 0.7837 0.0
C1564 C 0.5598 0.57373 0.78563 0.0
C1565 C 0.55659 0.5885 0.76293 0.0
C1566 C 0.56049 0.57732 0.73862 0.0
C1567 C 0.56786 0.55148 0.73741 0.0
C1568 C 0.57215 0.53706 0.75938 0.0
C1569 C 0.57678 0.50893 0.75299 0.0
C1570 C 0.6044 0.50092 0.76001 0.0
C1571 C 0.5568 0.49143 0.76627 0.0
C1572 C 0.57303 0.50946 0.72409 0.0
C1573 C 0.56838 0.53428 0.71545 0.0
C1574 C 0.56173 0.53932 0.68996 0.0
C1575 C 0.55937 0.51849 0.673 0.0
C1576 C 0.56354 0.49288 0.68157 0.0
C1577 C 0.57107 0.48843 0.70729 0.0
H1578 H 0.44 0.01091 0.79639 0.0
H1579 H 0.41764 0.93671 0.76531 0.0
H1580 H 0.40985 0.95708 0.72285 0.0
H1581 H 0.3968 0.05248 0.75637 0.0
H1582 H 0.42139 0.07671 0.75263 0.0
H1583 H 0.42014 0.0575 0.78156 0.0
H1584 H 0.46753 0.04343 0.77443 0.0
H1585 H 0.46894 0.06261 0.74564 0.0
H1586 H 0.47656 0.02873 0.74429 0.0
H1587 H 0.40917 0.98434 0.68312 0.0
H1588 H 0.42017 0.01459 0.64826 0.0
H1589 H 0.44543 0.07072 0.70475 0.0
C1590 C 0.43264 0.9991 0.78086 0.0
C1591 C 0.42892 0.97233 0.78418 0.0
C1592 C 0.4203 0.9573 0.76318 0.0
C1593 C 0.41569 0.96876 0.73909 0.0
C1594 C 0.42001 0.99518 0.73633 0.0
C1595 C 0.42848 0.01013 0.75663 0.0
C1596 C 0.43526 0.03717 0.74785 0.0
C1597 C 0.41732 0.05714 0.76035 0.0
C1598 C 0.46375 0.04332 0.75337 0.0
C1599 C 0.43015 0.03489 0.71923 0.0
C1600 C 0.42069 0.01073 0.71312 0.0
C1601 C 0.41624 0.0034 0.68772 0.0
C1602 C 0.42255 0.02078 0.66803 0.0
C1603 C 0.43361 0.04509 0.67376 0.0
C1604 C 0.43659 0.0525 0.69976 0.0
H1605 H 0.44256 0.2841 0.92703 0.0
H1606 H 0.49824 0.34174 0.90327 0.0
H1607 H 0.53117 0.30792 0.89825 0.0
H1608 H 0.48304 0.24964 0.96536 0.0
H1609 H 0.47086 0.21808 0.95757 0.0
H1610 H 0.45025 0.24576 0.95462 0.0
H1611 H 0.44139 0.23458 0.90681 0.0
H1612 H 0.46181 0.20661 0.90968 0.0
H1613 H 0.46806 0.23024 0.88498 0.0
H1614 H 0.55993 0.26951 0.9034 0.0
H1615 H 0.58134 0.22862 0.91552 0.0
H1616 H 0.50694 0.19563 0.93448 0.0
C1617 C 0.46139 0.28945 0.91982 0.0
C1618 C 0.46776 0.31554 0.91542 0.0
C1619 C 0.49285 0.32186 0.90666 0.0
C1620 C 0.51172 0.30277 0.90371 0.0
C1621 C 0.50518 0.27736 0.90929 0.0
C1622 C 0.4805 0.27057 0.91675 0.0
C1623 C 0.47913 0.24229 0.92391 0.0
C1624 C 0.47031 0.23876 0.95203 0.0
C1625 C 0.46156 0.22756 0.90522 0.0
C1626 C 0.50707 0.23458 0.92043 0.0
C1627 C 0.52178 0.25499 0.91175 0.0
C1628 C 0.54852 0.25318 0.90956 0.0
C1629 C 0.56055 0.22994 0.91658 0.0
C1630 C 0.5458 0.20886 0.9256 0.0
C1631 C 0.5187 0.21119 0.92707 0.0
loop_
_geom_bond_atom_site_label_1
_geom_bond_atom_site_label_2
_geom_bond_distance
_geom_bond_site_symmetry_2
_ccdc_geom_bond_type
O0 Cd1 2.223 1_455 S
O0 C8 1.315 . S
Cd1 O0 2.223 1_655 S
Cd1 O4 2.297 . S
Cd1 O5 2.439 . S
Cd1 O11 2.240 . S
Cd2 O3 2.240 . S
Cd2 O10 2.201 1_455 S
Cd2 O12 2.297 . S
Cd2 O13 2.439 1_455 S
O3 Cd2 2.240 . S
O3 C8 1.279 . S
O4 Cd1 2.297 . S
O4 C6 1.247 . S
O5 Cd1 2.439 . S
O5 C6 1.208 . S
C6 O4 1.247 . S
C6 O5 1.208 . S
C7 O12 1.234 1_655 S
C7 O13 1.210 . S
C8 O0 1.315 . S
C8 O3 1.279 . S
C9 O10 1.350 . S
C9 O11 1.279 . S
O10 Cd2 2.201 1_655 S
O10 C9 1.350 . S
O11 Cd1 2.240 . S
O11 C9 1.279 . S
O12 Cd2 2.297 . S
O12 C7 1.234 1_455 S
O13 Cd2 2.439 1_655 S
O13 C7 1.210 . S
O14 Cd15 2.223 1_655 S
O14 C22 1.315 . S
Cd15 O14 2.223 1_455 S
Cd15 O18 2.297 . S
Cd15 O19 2.439 . S
Cd15 O25 2.240 . S
Cd16 O17 2.240 . S
Cd16 O24 2.237 . S
Cd16 O26 2.297 . S
Cd16 O27 2.425 1_655 S
O17 Cd16 2.240 . S
O17 C22 1.279 . S
O18 Cd15 2.297 . S
O18 C20 1.247 . S
O19 Cd15 2.439 . S
O19 C20 1.208 . S
C20 O18 1.247 . S
C20 O19 1.208 . S
C21 O26 1.264 . S
C21 O27 1.206 1_655 S
C22 O14 1.315 . S
C22 O17 1.279 . S
C23 O24 1.293 1_455 S
C23 O25 1.279 . S
O24 Cd16 2.237 . S
O24 C23 1.293 1_655 S
O25 Cd15 2.240 . S
O25 C23 1.279 . S
O26 Cd16 2.297 . S
O26 C21 1.264 . S
O27 Cd16 2.425 1_455 S
O27 C21 1.206 1_455 S
O28 Cd29 2.223 1_455 S
O28 C36 1.315 . S
Cd29 O28 2.223 1_655 S
Cd29 O32 2.297 . S
Cd29 O33 2.439 . S
Cd29 O39 2.240 . S
Cd30 O31 2.240 . S
Cd30 O38 2.210 1_455 S
Cd30 O40 2.297 . S
Cd30 O41 2.443 . S
O31 Cd30 2.240 . S
O31 C36 1.279 . S
O32 Cd29 2.297 . S
O32 C34 1.247 . S
O33 Cd29 2.439 . S
O33 C34 1.208 . S
C34 O32 1.247 . S
C34 O33 1.208 . S
C35 O40 1.247 . S
C35 O41 1.209 . S
C36 O28 1.315 . S
C36 O31 1.279 . S
C37 O38 1.336 . S
C37 O39 1.279 . S
O38 Cd30 2.210 1_655 S
O38 C37 1.336 . S
O39 Cd29 2.240 . S
O39 C37 1.279 . S
O40 Cd30 2.297 . S
O40 C35 1.247 . S
O41 Cd30 2.443 . S
O41 C35 1.209 . S
O42 Cd43 2.223 1_655 S
O42 C50 1.315 . S
Cd43 O42 2.223 1_455 S
Cd43 O46 2.297 . S
Cd43 O47 2.439 . S
Cd43 O53 2.240 . S
Cd44 O45 2.240 . S
Cd44 O52 2.241 . S
Cd44 O54 2.297 . S
Cd44 O55 2.439 . S
O45 Cd44 2.240 . S
O45 C50 1.279 . S
O46 Cd43 2.297 . S
O46 C48 1.247 . S
O47 Cd43 2.439 . S
O47 C48 1.208 . S
C48 O46 1.247 . S
C48 O47 1.208 . S
C49 O54 1.247 . S
C49 O55 1.208 . S
C50 O42 1.315 . S
C50 O45 1.279 . S
C51 O52 1.286 1_455 S
C51 O53 1.279 . S
O52 Cd44 2.241 . S
O52 C51 1.286 1_655 S
O53 Cd43 2.240 . S
O53 C51 1.279 . S
O54 Cd44 2.297 . S
O54 C49 1.247 . S
O55 Cd44 2.439 . S
O55 C49 1.208 . S
O56 Cd57 2.223 1_545 S
O56 C64 1.315 . S
Cd57 O56 2.223 1_565 S
Cd57 O60 2.297 . S
Cd57 O61 2.439 . S
Cd57 O67 2.240 . S
Cd58 O59 2.240 . S
Cd58 O66 2.201 1_545 S
Cd58 O68 2.297 . S
Cd58 O69 2.439 1_545 S
O59 Cd58 2.240 . S
O59 C64 1.279 . S
O60 Cd57 2.297 . S
O60 C62 1.247 . S
O61 Cd57 2.439 . S
O61 C62 1.208 . S
C62 O60 1.247 . S
C62 O61 1.208 . S
C63 O68 1.234 1_565 S
C63 O69 1.210 . S
C64 O56 1.315 . S
C64 O59 1.279 . S
C65 O66 1.350 . S
C65 O67 1.279 . S
O66 Cd58 2.201 1_565 S
O66 C65 1.350 . S
O67 Cd57 2.240 . S
O67 C65 1.279 . S
O68 Cd58 2.297 . S
O68 C63 1.234 1_545 S
O69 Cd58 2.439 1_565 S
O69 C63 1.210 . S
O70 Cd71 2.223 . S
O70 C78 1.315 . S
Cd71 O70 2.223 . S
Cd71 O74 2.297 . S
Cd71 O75 2.439 . S
Cd71 O81 2.240 . S
Cd72 O73 2.240 . S
Cd72 O80 2.223 . S
Cd72 O82 2.297 . S
Cd72 O83 2.439 . S
O73 Cd72 2.240 . S
O73 C78 1.279 . S
O74 Cd71 2.297 . S
O74 C76 1.247 . S
O75 Cd71 2.439 . S
O75 C76 1.208 . S
C76 O74 1.247 . S
C76 O75 1.208 . S
C77 O82 1.247 . S
C77 O83 1.208 . S
C78 O70 1.315 . S
C78 O73 1.279 . S
C79 O80 1.315 . S
C79 O81 1.279 . S
O80 Cd72 2.223 . S
O80 C79 1.315 . S
O81 Cd71 2.240 . S
O81 C79 1.279 . S
O82 Cd72 2.297 . S
O82 C77 1.247 . S
O83 Cd72 2.439 . S
O83 C77 1.208 . S
O84 Cd85 2.223 1_565 S
O84 C92 1.315 . S
Cd85 O84 2.223 1_545 S
Cd85 O88 2.297 . S
Cd85 O89 2.439 . S
Cd85 O95 2.240 . S
Cd86 O87 2.240 . S
Cd86 O94 2.237 . S
Cd86 O96 2.297 . S
Cd86 O97 2.425 1_565 S
O87 Cd86 2.240 . S
O87 C92 1.279 . S
O88 Cd85 2.297 . S
O88 C90 1.247 . S
O89 Cd85 2.439 . S
O89 C90 1.208 . S
C90 O88 1.247 . S
C90 O89 1.208 . S
C91 O96 1.264 . S
C91 O97 1.206 1_565 S
C92 O84 1.315 . S
C92 O87 1.279 . S
C93 O94 1.293 1_545 S
C93 O95 1.279 . S
O94 Cd86 2.237 . S
O94 C93 1.293 1_565 S
O95 Cd85 2.240 . S
O95 C93 1.279 . S
O96 Cd86 2.297 . S
O96 C91 1.264 . S
O97 Cd86 2.425 1_545 S
O97 C91 1.206 1_545 S
O98 Cd99 2.223 . S
O98 C106 1.315 . S
Cd99 O98 2.223 . S
Cd99 O102 2.297 . S
Cd99 O103 2.439 . S
Cd99 O109 2.240 . S
Cd100 O101 2.240 . S
Cd100 O108 2.223 . S
Cd100 O110 2.297 . S
Cd100 O111 2.439 . S
O101 Cd100 2.240 . S
O101 C106 1.279 . S
O102 Cd99 2.297 . S
O102 C104 1.247 . S
O103 Cd99 2.439 . S
O103 C104 1.208 . S
C104 O102 1.247 . S
C104 O103 1.208 . S
C105 O110 1.247 . S
C105 O111 1.208 . S
C106 O98 1.315 . S
C106 O101 1.279 . S
C107 O108 1.315 . S
C107 O109 1.279 . S
O108 Cd100 2.223 . S
O108 C107 1.315 . S
O109 Cd99 2.240 . S
O109 C107 1.279 . S
O110 Cd100 2.297 . S
O110 C105 1.247 . S
O111 Cd100 2.439 . S
O111 C105 1.208 . S
O112 Cd113 2.223 1_554 S
O112 C120 1.315 . S
Cd113 O112 2.223 1_556 S
Cd113 O116 2.297 . S
Cd113 O117 2.439 . S
Cd113 O123 2.240 . S
Cd114 O115 2.240 . S
Cd114 O122 2.201 1_554 S
Cd114 O124 2.297 . S
Cd114 O125 2.439 1_554 S
O115 Cd114 2.240 . S
O115 C120 1.279 . S
O116 Cd113 2.297 . S
O116 C118 1.247 . S
O117 Cd113 2.439 . S
O117 C118 1.208 . S
C118 O116 1.247 . S
C118 O117 1.208 . S
C119 O124 1.234 1_556 S
C119 O125 1.210 . S
C120 O112 1.315 . S
C120 O115 1.279 . S
C121 O122 1.350 . S
C121 O123 1.279 . S
O122 Cd114 2.201 1_556 S
O122 C121 1.350 . S
O123 Cd113 2.240 . S
O123 C121 1.279 . S
O124 Cd114 2.297 . S
O124 C119 1.234 1_554 S
O125 Cd114 2.439 1_556 S
O125 C119 1.210 . S
O126 Cd127 2.223 . S
O126 C134 1.315 . S
Cd127 O126 2.223 . S
Cd127 O130 2.297 . S
Cd127 O131 2.439 . S
Cd127 O137 2.240 . S
Cd128 O129 2.240 . S
Cd128 O136 2.223 . S
Cd128 O138 2.297 . S
Cd128 O139 2.439 . S
O129 Cd128 2.240 . S
O129 C134 1.279 . S
O130 Cd127 2.297 . S
O130 C132 1.247 . S
O131 Cd127 2.439 . S
O131 C132 1.208 . S
C132 O130 1.247 . S
C132 O131 1.208 . S
C133 O138 1.247 . S
C133 O139 1.208 . S
C134 O126 1.315 . S
C134 O129 1.279 . S
C135 O136 1.315 . S
C135 O137 1.279 . S
O136 Cd128 2.223 . S
O136 C135 1.315 . S
O137 Cd127 2.240 . S
O137 C135 1.279 . S
O138 Cd128 2.297 . S
O138 C133 1.247 . S
O139 Cd128 2.439 . S
O139 C133 1.208 . S
O140 Cd141 2.223 . S
O140 C148 1.315 . S
Cd141 O140 2.223 . S
Cd141 O144 2.297 . S
Cd141 O145 2.439 . S
Cd141 O151 2.240 . S
Cd142 O143 2.240 . S
Cd142 O150 2.223 . S
Cd142 O152 2.297 . S
Cd142 O153 2.439 . S
O143 Cd142 2.240 . S
O143 C148 1.279 . S
O144 Cd141 2.297 . S
O144 C146 1.247 . S
O145 Cd141 2.439 . S
O145 C146 1.208 . S
C146 O144 1.247 . S
C146 O145 1.208 . S
C147 O152 1.247 . S
C147 O153 1.208 . S
C148 O140 1.315 . S
C148 O143 1.279 . S
C149 O150 1.315 . S
C149 O151 1.279 . S
O150 Cd142 2.223 . S
O150 C149 1.315 . S
O151 Cd141 2.240 . S
O151 C149 1.279 . S
O152 Cd142 2.297 . S
O152 C147 1.247 . S
O153 Cd142 2.439 . S
O153 C147 1.208 . S
O154 Cd155 2.223 . S
O154 C162 1.315 . S
Cd155 O154 2.223 . S
Cd155 O158 2.297 . S
Cd155 O159 2.439 . S
Cd155 O165 2.240 . S
Cd156 O157 2.240 . S
Cd156 O164 2.223 . S
Cd156 O166 2.297 . S
Cd156 O167 2.439 . S
O157 Cd156 2.240 . S
O157 C162 1.279 . S
O158 Cd155 2.297 . S
O158 C160 1.247 . S
O159 Cd155 2.439 . S
O159 C160 1.208 . S
C160 O158 1.247 . S
C160 O159 1.208 . S
C161 O166 1.247 . S
C161 O167 1.208 . S
C162 O154 1.315 . S
C162 O157 1.279 . S
C163 O164 1.315 . S
C163 O165 1.279 . S
O164 Cd156 2.223 . S
O164 C163 1.315 . S
O165 Cd155 2.240 . S
O165 C163 1.279 . S
O166 Cd156 2.297 . S
O166 C161 1.247 . S
O167 Cd156 2.439 . S
O167 C161 1.208 . S
O168 Cd169 2.223 . S
O168 C176 1.315 . S
Cd169 O168 2.223 . S
Cd169 O172 2.297 . S
Cd169 O173 2.439 . S
Cd169 O179 2.240 . S
Cd170 O171 2.240 . S
Cd170 O178 2.223 . S
Cd170 O180 2.297 . S
Cd170 O181 2.439 . S
O171 Cd170 2.240 . S
O171 C176 1.279 . S
O172 Cd169 2.297 . S
O172 C174 1.247 . S
O173 Cd169 2.439 . S
O173 C174 1.208 . S
C174 O172 1.247 . S
C174 O173 1.208 . S
C175 O180 1.247 . S
C175 O181 1.208 . S
C176 O168 1.315 . S
C176 O171 1.279 . S
C177 O178 1.315 . S
C177 O179 1.279 . S
O178 Cd170 2.223 . S
O178 C177 1.315 . S
O179 Cd169 2.240 . S
O179 C177 1.279 . S
O180 Cd170 2.297 . S
O180 C175 1.247 . S
O181 Cd170 2.439 . S
O181 C175 1.208 . S
O182 Cd183 2.223 . S
O182 C190 1.315 . S
Cd183 O182 2.223 . S
Cd183 O186 2.297 . S
Cd183 O187 2.439 . S
Cd183 O193 2.240 . S
Cd184 O185 2.240 . S
Cd184 O192 2.223 . S
Cd184 O194 2.297 . S
Cd184 O195 2.439 . S
O185 Cd184 2.240 . S
O185 C190 1.279 . S
O186 Cd183 2.297 . S
O186 C188 1.247 . S
O187 Cd183 2.439 . S
O187 C188 1.208 . S
C188 O186 1.247 . S
C188 O187 1.208 . S
C189 O194 1.247 . S
C189 O195 1.208 . S
C190 O182 1.315 . S
C190 O185 1.279 . S
C191 O192 1.315 . S
C191 O193 1.279 . S
O192 Cd184 2.223 . S
O192 C191 1.315 . S
O193 Cd183 2.240 . S
O193 C191 1.279 . S
O194 Cd184 2.297 . S
O194 C189 1.247 . S
O195 Cd184 2.439 . S
O195 C189 1.208 . S
O196 Cd197 2.223 . S
O196 C204 1.315 . S
Cd197 O196 2.223 . S
Cd197 O200 2.297 . S
Cd197 O201 2.439 . S
Cd197 O207 2.240 . S
Cd198 O199 2.240 . S
Cd198 O206 2.223 . S
Cd198 O208 2.297 . S
Cd198 O209 2.439 . S
O199 Cd198 2.240 . S
O199 C204 1.279 . S
O200 Cd197 2.297 . S
O200 C202 1.247 . S
O201 Cd197 2.439 . S
O201 C202 1.208 . S
C202 O200 1.247 . S
C202 O201 1.208 . S
C203 O208 1.247 . S
C203 O209 1.208 . S
C204 O196 1.315 . S
C204 O199 1.279 . S
C205 O206 1.315 . S
C205 O207 1.279 . S
O206 Cd198 2.223 . S
O206 C205 1.315 . S
O207 Cd197 2.240 . S
O207 C205 1.279 . S
O208 Cd198 2.297 . S
O208 C203 1.247 . S
O209 Cd198 2.439 . S
O209 C203 1.208 . S
O210 Cd211 2.223 . S
O210 C218 1.315 . S
Cd211 O210 2.223 . S
Cd211 O214 2.297 . S
Cd211 O215 2.439 . S
Cd211 O221 2.240 . S
Cd212 O213 2.240 . S
Cd212 O220 2.223 . S
Cd212 O222 2.297 . S
Cd212 O223 2.439 . S
O213 Cd212 2.240 . S
O213 C218 1.279 . S
O214 Cd211 2.297 . S
O214 C216 1.247 . S
O215 Cd211 2.439 . S
O215 C216 1.208 . S
C216 O214 1.247 . S
C216 O215 1.208 . S
C217 O222 1.247 . S
C217 O223 1.208 . S
C218 O210 1.315 . S
C218 O213 1.279 . S
C219 O220 1.315 . S
C219 O221 1.279 . S
O220 Cd212 2.223 . S
O220 C219 1.315 . S
O221 Cd211 2.240 . S
O221 C219 1.279 . S
O222 Cd212 2.297 . S
O222 C217 1.247 . S
O223 Cd212 2.439 . S
O223 C217 1.208 . S
O224 Cd225 2.223 . S
O224 C232 1.315 . S
Cd225 O224 2.223 . S
Cd225 O228 2.297 . S
Cd225 O229 2.439 . S
Cd225 O235 2.240 . S
Cd226 O227 2.240 . S
Cd226 O234 2.223 . S
Cd226 O236 2.297 . S
Cd226 O237 2.439 . S
O227 Cd226 2.240 . S
O227 C232 1.279 . S
O228 Cd225 2.297 . S
O228 C230 1.247 . S
O229 Cd225 2.439 . S
O229 C230 1.208 . S
C230 O228 1.247 . S
C230 O229 1.208 . S
C231 O236 1.247 . S
C231 O237 1.208 . S
C232 O224 1.315 . S
C232 O227 1.279 . S
C233 O234 1.315 . S
C233 O235 1.279 . S
O234 Cd226 2.223 . S
O234 C233 1.315 . S
O235 Cd225 2.240 . S
O235 C233 1.279 . S
O236 Cd226 2.297 . S
O236 C231 1.247 . S
O237 Cd226 2.439 . S
O237 C231 1.208 . S
O238 Cd239 2.223 1_565 S
O238 C246 1.315 . S
Cd239 O238 2.223 1_545 S
Cd239 O242 2.297 . S
Cd239 O243 2.439 . S
Cd239 O249 2.240 . S
Cd240 O241 2.240 . S
Cd240 O248 2.241 . S
Cd240 O250 2.297 . S
Cd240 O251 2.439 . S
O241 Cd240 2.240 . S
O241 C246 1.279 . S
O242 Cd239 2.297 . S
O242 C244 1.247 . S
O243 Cd239 2.439 . S
O243 C244 1.208 . S
C244 O242 1.247 . S
C244 O243 1.208 . S
C245 O250 1.247 . S
C245 O251 1.208 . S
C246 O238 1.315 . S
C246 O241 1.279 . S
C247 O248 1.286 1_545 S
C247 O249 1.279 . S
O248 Cd240 2.241 . S
O248 C247 1.286 1_565 S
O249 Cd239 2.240 . S
O249 C247 1.279 . S
O250 Cd240 2.297 . S
O250 C245 1.247 . S
O251 Cd240 2.439 . S
O251 C245 1.208 . S
O252 Cd253 2.223 . S
O252 C260 1.315 . S
Cd253 O252 2.223 . S
Cd253 O256 2.297 . S
Cd253 O257 2.439 . S
Cd253 O263 2.240 . S
Cd254 O255 2.240 . S
Cd254 O262 2.223 . S
Cd254 O264 2.297 . S
Cd254 O265 2.439 . S
O255 Cd254 2.240 . S
O255 C260 1.279 . S
O256 Cd253 2.297 . S
O256 C258 1.247 . S
O257 Cd253 2.439 . S
O257 C258 1.208 . S
C258 O256 1.247 . S
C258 O257 1.208 . S
C259 O264 1.247 . S
C259 O265 1.208 . S
C260 O252 1.315 . S
C260 O255 1.279 . S
C261 O262 1.315 . S
C261 O263 1.279 . S
O262 Cd254 2.223 . S
O262 C261 1.315 . S
O263 Cd253 2.240 . S
O263 C261 1.279 . S
O264 Cd254 2.297 . S
O264 C259 1.247 . S
O265 Cd254 2.439 . S
O265 C259 1.208 . S
O266 Cd267 2.223 1_545 S
O266 C274 1.315 . S
Cd267 O266 2.223 1_565 S
Cd267 O270 2.297 . S
Cd267 O271 2.439 . S
Cd267 O277 2.240 . S
Cd268 O269 2.240 . S
Cd268 O276 2.210 1_545 S
Cd268 O278 2.297 . S
Cd268 O279 2.443 . S
O269 Cd268 2.240 . S
O269 C274 1.279 . S
O270 Cd267 2.297 . S
O270 C272 1.247 . S
O271 Cd267 2.439 . S
O271 C272 1.208 . S
C272 O270 1.247 . S
C272 O271 1.208 . S
C273 O278 1.247 . S
C273 O279 1.209 . S
C274 O266 1.315 . S
C274 O269 1.279 . S
C275 O276 1.336 . S
C275 O277 1.279 . S
O276 Cd268 2.210 1_565 S
O276 C275 1.336 . S
O277 Cd267 2.240 . S
O277 C275 1.279 . S
O278 Cd268 2.297 . S
O278 C273 1.247 . S
O279 Cd268 2.443 . S
O279 C273 1.209 . S
O280 Cd281 2.223 . S
O280 C288 1.315 . S
Cd281 O280 2.223 . S
Cd281 O284 2.297 . S
Cd281 O285 2.439 . S
Cd281 O291 2.240 . S
Cd282 O283 2.240 . S
Cd282 O290 2.223 . S
Cd282 O292 2.297 . S
Cd282 O293 2.439 . S
O283 Cd282 2.240 . S
O283 C288 1.279 . S
O284 Cd281 2.297 . S
O284 C286 1.247 . S
O285 Cd281 2.439 . S
O285 C286 1.208 . S
C286 O284 1.247 . S
C286 O285 1.208 . S
C287 O292 1.247 . S
C287 O293 1.208 . S
C288 O280 1.315 . S
C288 O283 1.279 . S
C289 O290 1.315 . S
C289 O291 1.279 . S
O290 Cd282 2.223 . S
O290 C289 1.315 . S
O291 Cd281 2.240 . S
O291 C289 1.279 . S
O292 Cd282 2.297 . S
O292 C287 1.247 . S
O293 Cd282 2.439 . S
O293 C287 1.208 . S
O294 Cd295 2.223 1_556 S
O294 C302 1.315 . S
Cd295 O294 2.223 1_554 S
Cd295 O298 2.297 . S
Cd295 O299 2.439 . S
Cd295 O305 2.240 . S
Cd296 O297 2.240 . S
Cd296 O304 2.241 . S
Cd296 O306 2.297 . S
Cd296 O307 2.439 . S
O297 Cd296 2.240 . S
O297 C302 1.279 . S
O298 Cd295 2.297 . S
O298 C300 1.247 . S
O299 Cd295 2.439 . S
O299 C300 1.208 . S
C300 O298 1.247 . S
C300 O299 1.208 . S
C301 O306 1.247 . S
C301 O307 1.208 . S
C302 O294 1.315 . S
C302 O297 1.279 . S
C303 O304 1.286 1_554 S
C303 O305 1.279 . S
O304 Cd296 2.241 . S
O304 C303 1.286 1_556 S
O305 Cd295 2.240 . S
O305 C303 1.279 . S
O306 Cd296 2.297 . S
O306 C301 1.247 . S
O307 Cd296 2.439 . S
O307 C301 1.208 . S
O308 Cd309 2.223 1_556 S
O308 C316 1.315 . S
Cd309 O308 2.223 1_554 S
Cd309 O312 2.297 . S
Cd309 O313 2.439 . S
Cd309 O319 2.240 . S
Cd310 O311 2.240 . S
Cd310 O318 2.237 . S
Cd310 O320 2.297 . S
Cd310 O321 2.425 1_556 S
O311 Cd310 2.240 . S
O311 C316 1.279 . S
O312 Cd309 2.297 . S
O312 C314 1.247 . S
O313 Cd309 2.439 . S
O313 C314 1.208 . S
C314 O312 1.247 . S
C314 O313 1.208 . S
C315 O320 1.264 . S
C315 O321 1.206 1_556 S
C316 O308 1.315 . S
C316 O311 1.279 . S
C317 O318 1.293 1_554 S
C317 O319 1.279 . S
O318 Cd310 2.237 . S
O318 C317 1.293 1_556 S
O319 Cd309 2.240 . S
O319 C317 1.279 . S
O320 Cd310 2.297 . S
O320 C315 1.264 . S
O321 Cd310 2.425 1_554 S
O321 C315 1.206 1_554 S
O322 Cd323 2.223 1_554 S
O322 C330 1.315 . S
Cd323 O322 2.223 1_556 S
Cd323 O326 2.297 . S
Cd323 O327 2.439 . S
Cd323 O333 2.240 . S
Cd324 O325 2.240 . S
Cd324 O332 2.210 1_554 S
Cd324 O334 2.297 . S
Cd324 O335 2.443 . S
O325 Cd324 2.240 . S
O325 C330 1.279 . S
O326 Cd323 2.297 . S
O326 C328 1.247 . S
O327 Cd323 2.439 . S
O327 C328 1.208 . S
C328 O326 1.247 . S
C328 O327 1.208 . S
C329 O334 1.247 . S
C329 O335 1.209 . S
C330 O322 1.315 . S
C330 O325 1.279 . S
C331 O332 1.336 . S
C331 O333 1.279 . S
O332 Cd324 2.210 1_556 S
O332 C331 1.336 . S
O333 Cd323 2.240 . S
O333 C331 1.279 . S
O334 Cd324 2.297 . S
O334 C329 1.247 . S
O335 Cd324 2.443 . S
O335 C329 1.209 . S
H336 C348 0.930 . S
H337 C350 0.930 . S
H338 C351 0.930 . S
H339 C355 0.959 . S
H340 C355 0.959 . S
H341 C355 0.961 . S
H342 C356 0.960 . S
H343 C356 0.961 . S
H344 C356 0.959 . S
H345 C359 0.929 . S
H346 C360 0.931 . S
H347 C362 0.930 . S
C348 H336 0.930 . S
C348 C349 1.399 . S
C348 C353 1.399 . S
C349 C348 1.399 . S
C349 C350 1.376 . S
C350 H337 0.930 . S
C350 C349 1.376 . S
C350 C351 1.388 . S
C351 H338 0.930 . S
C351 C350 1.388 . S
C351 C352 1.390 . S
C352 C351 1.390 . S
C352 C353 1.394 . S
C352 C358 1.465 . S
C353 C348 1.399 . S
C353 C352 1.394 . S
C353 C354 1.516 . S
C354 C353 1.516 . S
C354 C355 1.502 . S
C354 C356 1.561 . S
C354 C357 1.526 . S
C355 H339 0.959 . S
C355 H340 0.959 . S
C355 H341 0.961 . S
C355 C354 1.502 . S
C356 H342 0.960 . S
C356 H343 0.961 . S
C356 H344 0.959 . S
C356 C354 1.561 . S
C357 C354 1.526 . S
C357 C358 1.396 . S
C357 C362 1.390 . S
C358 C352 1.465 . S
C358 C357 1.396 . S
C358 C359 1.399 . S
C359 H345 0.929 . S
C359 C358 1.399 . S
C359 C360 1.385 . S
C360 H346 0.931 . S
C360 C359 1.385 . S
C360 C361 1.389 . S
C361 C360 1.389 . S
C361 C362 1.387 . S
C362 H347 0.930 . S
C362 C357 1.390 . S
C362 C361 1.387 . S
H363 C375 0.930 . S
H364 C377 0.930 . S
H365 C378 0.930 . S
H366 C382 0.959 . S
H367 C382 0.959 . S
H368 C382 0.961 . S
H369 C383 0.960 . S
H370 C383 0.961 . S
H371 C383 0.959 . S
H372 C386 0.929 . S
H373 C387 0.931 . S
H374 C389 0.930 . S
C375 H363 0.930 . S
C375 C376 1.399 . S
C375 C380 1.399 . S
C376 C375 1.399 . S
C376 C377 1.376 . S
C377 H364 0.930 . S
C377 C376 1.376 . S
C377 C378 1.388 . S
C378 H365 0.930 . S
C378 C377 1.388 . S
C378 C379 1.390 . S
C379 C378 1.390 . S
C379 C380 1.394 . S
C379 C385 1.465 . S
C380 C375 1.399 . S
C380 C379 1.394 . S
C380 C381 1.516 . S
C381 C380 1.516 . S
C381 C382 1.502 . S
C381 C383 1.561 . S
C381 C384 1.526 . S
C382 H366 0.959 . S
C382 H367 0.959 . S
C382 H368 0.961 . S
C382 C381 1.502 . S
C383 H369 0.960 . S
C383 H370 0.961 . S
C383 H371 0.959 . S
C383 C381 1.561 . S
C384 C381 1.526 . S
C384 C385 1.396 . S
C384 C389 1.390 . S
C385 C379 1.465 . S
C385 C384 1.396 . S
C385 C386 1.399 . S
C386 H372 0.929 . S
C386 C385 1.399 . S
C386 C387 1.385 . S
C387 H373 0.931 . S
C387 C386 1.385 . S
C387 C388 1.389 . S
C388 C387 1.389 . S
C388 C389 1.387 . S
C389 H374 0.930 . S
C389 C384 1.390 . S
C389 C388 1.387 . S
H390 C402 0.930 . S
H391 C404 0.930 . S
H392 C405 0.930 . S
H393 C409 0.959 . S
H394 C409 0.959 1_545 S
H395 C409 0.961 . S
H396 C410 0.960 . S
H397 C410 0.961 1_545 S
H398 C410 0.959 . S
H399 C413 0.929 . S
H400 C414 0.931 . S
H401 C416 0.930 . S
C402 H390 0.930 . S
C402 C403 1.399 . S
C402 C407 1.399 . S
C403 C402 1.399 . S
C403 C404 1.376 . S
C404 H391 0.930 . S
C404 C403 1.376 . S
C404 C405 1.388 . S
C405 H392 0.930 . S
C405 C404 1.388 . S
C405 C406 1.390 . S
C406 C405 1.390 . S
C406 C407 1.394 . S
C406 C412 1.465 . S
C407 C402 1.399 . S
C407 C406 1.394 . S
C407 C408 1.516 . S
C408 C407 1.516 . S
C408 C409 1.502 . S
C408 C410 1.561 . S
C408 C411 1.526 . S
C409 H393 0.959 . S
C409 H394 0.959 1_565 S
C409 H395 0.961 . S
C409 C408 1.502 . S
C410 H396 0.960 . S
C410 H397 0.961 1_565 S
C410 H398 0.959 . S
C410 C408 1.561 . S
C411 C408 1.526 . S
C411 C412 1.396 . S
C411 C416 1.390 1_554 S
C412 C406 1.465 . S
C412 C411 1.396 . S
C412 C413 1.399 1_554 S
C413 H399 0.929 . S
C413 C412 1.399 1_556 S
C413 C414 1.385 . S
C414 H400 0.931 . S
C414 C413 1.385 . S
C414 C415 1.389 . S
C415 C414 1.389 . S
C415 C416 1.387 . S
C416 H401 0.930 . S
C416 C411 1.390 1_556 S
C416 C415 1.387 . S
H417 C429 0.930 . S
H418 C431 0.930 . S
H419 C432 0.930 . S
H420 C436 0.959 . S
H421 C436 0.959 . S
H422 C436 0.961 . S
H423 C437 0.960 . S
H424 C437 0.961 . S
H425 C437 0.959 . S
H426 C440 0.929 . S
H427 C441 0.931 . S
H428 C443 0.930 . S
C429 H417 0.930 . S
C429 C430 1.399 . S
C429 C434 1.399 . S
C430 C429 1.399 . S
C430 C431 1.376 . S
C431 H418 0.930 . S
C431 C430 1.376 . S
C431 C432 1.388 . S
C432 H419 0.930 . S
C432 C431 1.388 . S
C432 C433 1.390 . S
C433 C432 1.390 . S
C433 C434 1.394 . S
C433 C439 1.506 . S
C434 C429 1.399 . S
C434 C433 1.394 . S
C434 C435 1.516 . S
C435 C434 1.516 . S
C435 C436 1.502 . S
C435 C437 1.561 . S
C435 C438 1.526 . S
C436 H420 0.959 . S
C436 H421 0.959 . S
C436 H422 0.961 . S
C436 C435 1.502 . S
C437 H423 0.960 . S
C437 H424 0.961 . S
C437 H425 0.959 . S
C437 C435 1.561 . S
C438 C435 1.526 . S
C438 C439 1.403 . S
C438 C443 1.390 1_554 S
C439 C433 1.506 . S
C439 C438 1.403 . S
C439 C440 1.357 1_554 S
C440 H426 0.929 . S
C440 C439 1.357 1_556 S
C440 C441 1.385 . S
C441 H427 0.931 . S
C441 C440 1.385 . S
C441 C442 1.389 . S
C442 C441 1.389 . S
C442 C443 1.387 . S
C443 H428 0.930 . S
C443 C438 1.390 1_556 S
C443 C442 1.387 . S
H444 C456 0.930 . S
H445 C458 0.930 . S
H446 C459 0.930 . S
H447 C463 0.959 . S
H448 C463 0.959 . S
H449 C463 0.961 . S
H450 C464 0.960 . S
H451 C464 0.961 . S
H452 C464 0.959 . S
H453 C467 0.929 1_556 S
H454 C468 0.931 1_556 S
H455 C470 0.930 . S
C456 H444 0.930 . S
C456 C457 1.399 . S
C456 C461 1.399 . S
C457 C456 1.399 . S
C457 C458 1.376 . S
C458 H445 0.930 . S
C458 C457 1.376 . S
C458 C459 1.388 . S
C459 H446 0.930 . S
C459 C458 1.388 . S
C459 C460 1.390 . S
C460 C459 1.390 . S
C460 C461 1.394 . S
C460 C466 1.465 . S
C461 C456 1.399 . S
C461 C460 1.394 . S
C461 C462 1.516 . S
C462 C461 1.516 . S
C462 C463 1.502 . S
C462 C464 1.561 . S
C462 C465 1.526 . S
C463 H447 0.959 . S
C463 H448 0.959 . S
C463 H449 0.961 . S
C463 C462 1.502 . S
C464 H450 0.960 . S
C464 H451 0.961 . S
C464 H452 0.959 . S
C464 C462 1.561 . S
C465 C462 1.526 . S
C465 C466 1.396 . S
C465 C470 1.390 . S
C466 C460 1.465 . S
C466 C465 1.396 . S
C466 C467 1.399 . S
C467 H453 0.929 1_554 S
C467 C466 1.399 . S
C467 C468 1.385 . S
C468 H454 0.931 1_554 S
C468 C467 1.385 . S
C468 C469 1.389 . S
C469 C468 1.389 . S
C469 C470 1.387 . S
C470 H455 0.930 . S
C470 C465 1.390 . S
C470 C469 1.387 . S
H471 C483 0.930 . S
H472 C485 0.930 . S
H473 C486 0.930 . S
H474 C490 0.959 . S
H475 C490 0.959 . S
H476 C490 0.961 . S
H477 C491 0.960 . S
H478 C491 0.961 . S
H479 C491 0.959 . S
H480 C494 0.929 . S
H481 C495 0.931 1_556 S
H482 C497 0.930 . S
C483 H471 0.930 . S
C483 C484 1.399 . S
C483 C488 1.399 . S
C484 C483 1.399 . S
C484 C485 1.376 . S
C485 H472 0.930 . S
C485 C484 1.376 . S
C485 C486 1.388 . S
C486 H473 0.930 . S
C486 C485 1.388 . S
C486 C487 1.390 . S
C487 C486 1.390 . S
C487 C488 1.394 . S
C487 C493 1.465 . S
C488 C483 1.399 . S
C488 C487 1.394 . S
C488 C489 1.516 . S
C489 C488 1.516 . S
C489 C490 1.502 . S
C489 C491 1.561 . S
C489 C492 1.526 . S
C490 H474 0.959 . S
C490 H475 0.959 . S
C490 H476 0.961 . S
C490 C489 1.502 . S
C491 H477 0.960 . S
C491 H478 0.961 . S
C491 H479 0.959 . S
C491 C489 1.561 . S
C492 C489 1.526 . S
C492 C493 1.396 . S
C492 C497 1.390 . S
C493 C487 1.465 . S
C493 C492 1.396 . S
C493 C494 1.399 . S
C494 H480 0.929 . S
C494 C493 1.399 . S
C494 C495 1.385 . S
C495 H481 0.931 1_554 S
C495 C494 1.385 . S
C495 C496 1.389 . S
C496 C495 1.389 . S
C496 C497 1.387 . S
C497 H482 0.930 . S
C497 C492 1.390 . S
C497 C496 1.387 . S
H498 C510 0.930 . S
H499 C512 0.930 . S
H500 C513 0.930 . S
H501 C517 0.959 . S
H502 C517 0.959 . S
H503 C517 0.961 . S
H504 C518 0.960 . S
H505 C518 0.961 . S
H506 C518 0.959 . S
H507 C521 0.929 . S
H508 C522 0.931 . S
H509 C524 0.930 . S
C510 H498 0.930 . S
C510 C511 1.399 . S
C510 C515 1.399 . S
C511 C510 1.399 . S
C511 C512 1.376 . S
C512 H499 0.930 . S
C512 C511 1.376 . S
C512 C513 1.388 . S
C513 H500 0.930 . S
C513 C512 1.388 . S
C513 C514 1.390 . S
C514 C513 1.390 . S
C514 C515 1.394 . S
C514 C520 1.465 . S
C515 C510 1.399 . S
C515 C514 1.394 . S
C515 C516 1.516 . S
C516 C515 1.516 . S
C516 C517 1.502 . S
C516 C518 1.561 . S
C516 C519 1.526 . S
C517 H501 0.959 . S
C517 H502 0.959 . S
C517 H503 0.961 . S
C517 C516 1.502 . S
C518 H504 0.960 . S
C518 H505 0.961 . S
C518 H506 0.959 . S
C518 C516 1.561 . S
C519 C516 1.526 . S
C519 C520 1.396 . S
C519 C524 1.390 . S
C520 C514 1.465 . S
C520 C519 1.396 . S
C520 C521 1.399 . S
C521 H507 0.929 . S
C521 C520 1.399 . S
C521 C522 1.385 . S
C522 H508 0.931 . S
C522 C521 1.385 . S
C522 C523 1.389 . S
C523 C522 1.389 . S
C523 C524 1.387 . S
C524 H509 0.930 . S
C524 C519 1.390 . S
C524 C523 1.387 . S
H525 C537 0.930 . S
H526 C539 0.930 . S
H527 C540 0.930 . S
H528 C544 0.959 . S
H529 C544 0.959 . S
H530 C544 0.961 . S
H531 C545 0.960 . S
H532 C545 0.961 . S
H533 C545 0.959 . S
H534 C548 0.929 . S
H535 C549 0.931 . S
H536 C551 0.930 . S
C537 H525 0.930 . S
C537 C538 1.399 . S
C537 C542 1.399 . S
C538 C537 1.399 . S
C538 C539 1.376 . S
C539 H526 0.930 . S
C539 C538 1.376 . S
C539 C540 1.388 . S
C540 H527 0.930 . S
C540 C539 1.388 . S
C540 C541 1.390 . S
C541 C540 1.390 . S
C541 C542 1.394 . S
C541 C547 1.465 . S
C542 C537 1.399 . S
C542 C541 1.394 . S
C542 C543 1.516 . S
C543 C542 1.516 . S
C543 C544 1.502 . S
C543 C545 1.561 . S
C543 C546 1.526 . S
C544 H528 0.959 . S
C544 H529 0.959 . S
C544 H530 0.961 . S
C544 C543 1.502 . S
C545 H531 0.960 . S
C545 H532 0.961 . S
C545 H533 0.959 . S
C545 C543 1.561 . S
C546 C543 1.526 . S
C546 C547 1.396 . S
C546 C551 1.390 . S
C547 C541 1.465 . S
C547 C546 1.396 . S
C547 C548 1.399 . S
C548 H534 0.929 . S
C548 C547 1.399 . S
C548 C549 1.385 . S
C549 H535 0.931 . S
C549 C548 1.385 . S
C549 C550 1.389 . S
C550 C549 1.389 . S
C550 C551 1.387 . S
C551 H536 0.930 . S
C551 C546 1.390 . S
C551 C550 1.387 . S
H552 C564 0.930 . S
H553 C566 0.930 . S
H554 C567 0.930 . S
H555 C571 0.959 . S
H556 C571 0.959 . S
H557 C571 0.961 . S
H558 C572 0.960 . S
H559 C572 0.961 . S
H560 C572 0.959 . S
H561 C575 0.929 . S
H562 C576 0.931 . S
H563 C578 0.930 . S
C564 H552 0.930 . S
C564 C565 1.399 . S
C564 C569 1.399 . S
C565 C564 1.399 . S
C565 C566 1.376 . S
C566 H553 0.930 . S
C566 C565 1.376 . S
C566 C567 1.388 . S
C567 H554 0.930 . S
C567 C566 1.388 . S
C567 C568 1.390 . S
C568 C567 1.390 . S
C568 C569 1.394 . S
C568 C574 1.465 . S
C569 C564 1.399 . S
C569 C568 1.394 . S
C569 C570 1.516 . S
C570 C569 1.516 . S
C570 C571 1.502 . S
C570 C572 1.561 . S
C570 C573 1.526 . S
C571 H555 0.959 . S
C571 H556 0.959 . S
C571 H557 0.961 . S
C571 C570 1.502 . S
C572 H558 0.960 . S
C572 H559 0.961 . S
C572 H560 0.959 . S
C572 C570 1.561 . S
C573 C570 1.526 . S
C573 C574 1.396 . S
C573 C578 1.390 . S
C574 C568 1.465 . S
C574 C573 1.396 . S
C574 C575 1.399 . S
C575 H561 0.929 . S
C575 C574 1.399 . S
C575 C576 1.385 . S
C576 H562 0.931 . S
C576 C575 1.385 . S
C576 C577 1.389 . S
C577 C576 1.389 . S
C577 C578 1.387 . S
C578 H563 0.930 . S
C578 C573 1.390 . S
C578 C577 1.387 . S
H579 C591 0.930 . S
H580 C593 0.930 . S
H581 C594 0.930 . S
H582 C598 0.959 . S
H583 C598 0.959 . S
H584 C598 0.961 . S
H585 C599 0.960 . S
H586 C599 0.961 . S
H587 C599 0.959 . S
H588 C602 0.929 . S
H589 C603 0.931 . S
H590 C605 0.930 . S
C591 H579 0.930 . S
C591 C592 1.399 . S
C591 C596 1.399 . S
C592 C591 1.399 . S
C592 C593 1.376 . S
C593 H580 0.930 . S
C593 C592 1.376 . S
C593 C594 1.388 . S
C594 H581 0.930 . S
C594 C593 1.388 . S
C594 C595 1.390 . S
C595 C594 1.390 . S
C595 C596 1.394 . S
C595 C601 1.465 . S
C596 C591 1.399 . S
C596 C595 1.394 . S
C596 C597 1.516 . S
C597 C596 1.516 . S
C597 C598 1.502 . S
C597 C599 1.561 . S
C597 C600 1.526 . S
C598 H582 0.959 . S
C598 H583 0.959 . S
C598 H584 0.961 . S
C598 C597 1.502 . S
C599 H585 0.960 . S
C599 H586 0.961 . S
C599 H587 0.959 . S
C599 C597 1.561 . S
C600 C597 1.526 . S
C600 C601 1.396 . S
C600 C605 1.390 . S
C601 C595 1.465 . S
C601 C600 1.396 . S
C601 C602 1.399 . S
C602 H588 0.929 . S
C602 C601 1.399 . S
C602 C603 1.385 . S
C603 H589 0.931 . S
C603 C602 1.385 . S
C603 C604 1.389 . S
C604 C603 1.389 . S
C604 C605 1.387 . S
C605 H590 0.930 . S
C605 C600 1.390 . S
C605 C604 1.387 . S
H606 C618 0.930 . S
H607 C620 0.930 . S
H608 C621 0.930 . S
H609 C625 0.959 . S
H610 C625 0.959 1_455 S
H611 C625 0.961 . S
H612 C626 0.960 . S
H613 C626 0.961 . S
H614 C626 0.959 . S
H615 C629 0.929 . S
H616 C630 0.931 . S
H617 C632 0.930 1_565 S
C618 H606 0.930 . S
C618 C619 1.399 . S
C618 C623 1.399 . S
C619 C618 1.399 . S
C619 C620 1.376 . S
C620 H607 0.930 . S
C620 C619 1.376 . S
C620 C621 1.388 . S
C621 H608 0.930 . S
C621 C620 1.388 . S
C621 C622 1.390 . S
C622 C621 1.390 . S
C622 C623 1.394 . S
C622 C628 1.465 . S
C623 C618 1.399 . S
C623 C622 1.394 . S
C623 C624 1.516 . S
C624 C623 1.516 . S
C624 C625 1.502 . S
C624 C626 1.561 . S
C624 C627 1.526 . S
C625 H609 0.959 . S
C625 H610 0.959 1_655 S
C625 H611 0.961 . S
C625 C624 1.502 . S
C626 H612 0.960 . S
C626 H613 0.961 . S
C626 H614 0.959 . S
C626 C624 1.561 . S
C627 C624 1.526 . S
C627 C628 1.396 . S
C627 C632 1.390 1_565 S
C628 C622 1.465 . S
C628 C627 1.396 . S
C628 C629 1.399 1_565 S
C629 H615 0.929 . S
C629 C628 1.399 1_545 S
C629 C630 1.385 . S
C630 H616 0.931 . S
C630 C629 1.385 . S
C630 C631 1.389 . S
C631 C630 1.389 . S
C631 C632 1.387 . S
C632 H617 0.930 1_545 S
C632 C627 1.390 1_545 S
C632 C631 1.387 . S
H633 C645 0.930 . S
H634 C647 0.930 . S
H635 C648 0.930 . S
H636 C652 0.959 . S
H637 C652 0.959 . S
H638 C652 0.961 . S
H639 C653 0.960 . S
H640 C653 0.961 . S
H641 C653 0.959 . S
H642 C656 0.929 . S
H643 C657 0.931 . S
H644 C659 0.930 . S
C645 H633 0.930 . S
C645 C646 1.399 . S
C645 C650 1.399 . S
C646 C645 1.399 . S
C646 C647 1.376 . S
C647 H634 0.930 . S
C647 C646 1.376 . S
C647 C648 1.388 . S
C648 H635 0.930 . S
C648 C647 1.388 . S
C648 C649 1.390 . S
C649 C648 1.390 . S
C649 C650 1.394 . S
C649 C655 1.465 . S
C650 C645 1.399 . S
C650 C649 1.394 . S
C650 C651 1.516 . S
C651 C650 1.516 . S
C651 C652 1.502 . S
C651 C653 1.561 . S
C651 C654 1.526 . S
C652 H636 0.959 . S
C652 H637 0.959 . S
C652 H638 0.961 . S
C652 C651 1.502 . S
C653 H639 0.960 . S
C653 H640 0.961 . S
C653 H641 0.959 . S
C653 C651 1.561 . S
C654 C651 1.526 . S
C654 C655 1.396 . S
C654 C659 1.390 . S
C655 C649 1.465 . S
C655 C654 1.396 . S
C655 C656 1.399 . S
C656 H642 0.929 . S
C656 C655 1.399 . S
C656 C657 1.385 . S
C657 H643 0.931 . S
C657 C656 1.385 . S
C657 C658 1.389 . S
C658 C657 1.389 . S
C658 C659 1.387 . S
C659 H644 0.930 . S
C659 C654 1.390 . S
C659 C658 1.387 . S
H660 C672 0.930 . S
H661 C674 0.930 . S
H662 C675 0.930 . S
H663 C679 0.959 . S
H664 C679 0.959 . S
H665 C679 0.961 . S
H666 C680 0.960 . S
H667 C680 0.961 . S
H668 C680 0.959 . S
H669 C683 0.929 . S
H670 C684 0.931 . S
H671 C686 0.930 . S
C672 H660 0.930 . S
C672 C673 1.399 . S
C672 C677 1.399 1_554 S
C673 C672 1.399 . S
C673 C674 1.376 . S
C674 H661 0.930 . S
C674 C673 1.376 . S
C674 C675 1.388 . S
C675 H662 0.930 . S
C675 C674 1.388 . S
C675 C676 1.390 1_554 S
C676 C675 1.390 1_556 S
C676 C677 1.394 . S
C676 C682 1.465 . S
C677 C672 1.399 1_556 S
C677 C676 1.394 . S
C677 C678 1.516 . S
C678 C677 1.516 . S
C678 C679 1.502 . S
C678 C680 1.561 . S
C678 C681 1.526 . S
C679 H663 0.959 . S
C679 H664 0.959 . S
C679 H665 0.961 . S
C679 C678 1.502 . S
C680 H666 0.960 . S
C680 H667 0.961 . S
C680 H668 0.959 . S
C680 C678 1.561 . S
C681 C678 1.526 . S
C681 C682 1.396 . S
C681 C686 1.390 . S
C682 C676 1.465 . S
C682 C681 1.396 . S
C682 C683 1.399 . S
C683 H669 0.929 . S
C683 C682 1.399 . S
C683 C684 1.385 . S
C684 H670 0.931 . S
C684 C683 1.385 . S
C684 C685 1.389 . S
C685 C684 1.389 . S
C685 C686 1.387 . S
C686 H671 0.930 . S
C686 C681 1.390 . S
C686 C685 1.387 . S
H687 C699 0.930 . S
H688 C701 0.930 . S
H689 C702 0.930 . S
H690 C706 0.959 . S
H691 C706 0.959 . S
H692 C706 0.961 . S
H693 C707 0.960 . S
H694 C707 0.957 1_556 S
H695 C707 0.959 1_556 S
H696 C710 0.929 . S
H697 C711 0.931 . S
H698 C713 0.930 . S
C699 H687 0.930 . S
C699 C700 1.399 . S
C699 C704 1.437 . S
C700 C699 1.399 . S
C700 C701 1.415 . S
C701 H688 0.930 . S
C701 C700 1.415 . S
C701 C702 1.350 1_554 S
C702 H689 0.930 . S
C702 C701 1.350 1_556 S
C702 C703 1.390 . S
C703 C702 1.390 . S
C703 C704 1.356 1_556 S
C703 C709 1.465 . S
C704 C699 1.437 . S
C704 C703 1.356 1_554 S
C704 C705 1.510 1_554 S
C705 C704 1.510 1_556 S
C705 C706 1.502 1_556 S
C705 C707 1.561 1_556 S
C705 C708 1.526 . S
C706 H690 0.959 . S
C706 H691 0.959 . S
C706 H692 0.961 . S
C706 C705 1.502 1_554 S
C707 H693 0.960 . S
C707 H694 0.957 1_554 S
C707 H695 0.959 1_554 S
C707 C705 1.561 1_554 S
C708 C705 1.526 . S
C708 C709 1.396 . S
C708 C713 1.390 . S
C709 C703 1.465 . S
C709 C708 1.396 . S
C709 C710 1.399 . S
C710 H696 0.929 . S
C710 C709 1.399 . S
C710 C711 1.385 . S
C711 H697 0.931 . S
C711 C710 1.385 . S
C711 C712 1.389 . S
C712 C711 1.389 . S
C712 C713 1.387 . S
C713 H698 0.930 . S
C713 C708 1.390 . S
C713 C712 1.387 . S
H714 C726 0.930 . S
H715 C728 0.930 . S
H716 C729 0.930 . S
H717 C733 0.959 . S
H718 C733 0.959 . S
H719 C733 0.961 . S
H720 C734 0.960 . S
H721 C734 0.961 . S
H722 C734 0.959 . S
H723 C737 0.929 . S
H724 C738 0.931 . S
H725 C740 0.930 . S
C726 H714 0.930 . S
C726 C727 1.399 . S
C726 C731 1.399 . S
C727 C726 1.399 . S
C727 C728 1.376 . S
C728 H715 0.930 . S
C728 C727 1.376 . S
C728 C729 1.388 . S
C729 H716 0.930 . S
C729 C728 1.388 . S
C729 C730 1.390 . S
C730 C729 1.390 . S
C730 C731 1.394 . S
C730 C736 1.465 . S
C731 C726 1.399 . S
C731 C730 1.394 . S
C731 C732 1.516 . S
C732 C731 1.516 . S
C732 C733 1.502 . S
C732 C734 1.561 . S
C732 C735 1.526 . S
C733 H717 0.959 . S
C733 H718 0.959 . S
C733 H719 0.961 . S
C733 C732 1.502 . S
C734 H720 0.960 . S
C734 H721 0.961 . S
C734 H722 0.959 . S
C734 C732 1.561 . S
C735 C732 1.526 . S
C735 C736 1.396 . S
C735 C740 1.390 . S
C736 C730 1.465 . S
C736 C735 1.396 . S
C736 C737 1.399 . S
C737 H723 0.929 . S
C737 C736 1.399 . S
C737 C738 1.385 . S
C738 H724 0.931 . S
C738 C737 1.385 . S
C738 C739 1.389 . S
C739 C738 1.389 . S
C739 C740 1.387 . S
C740 H725 0.930 . S
C740 C735 1.390 . S
C740 C739 1.387 . S
H741 C753 0.930 . S
H742 C755 0.930 . S
H743 C756 0.930 . S
H744 C760 0.959 . S
H745 C760 0.959 1_565 S
H746 C760 0.961 . S
H747 C761 0.960 . S
H748 C761 0.961 1_565 S
H749 C761 0.959 . S
H750 C764 0.929 . S
H751 C765 0.931 . S
H752 C767 0.930 . S
C753 H741 0.930 . S
C753 C754 1.399 . S
C753 C758 1.399 . S
C754 C753 1.399 . S
C754 C755 1.376 . S
C755 H742 0.930 . S
C755 C754 1.376 . S
C755 C756 1.388 . S
C756 H743 0.930 . S
C756 C755 1.388 . S
C756 C757 1.390 . S
C757 C756 1.390 . S
C757 C758 1.394 . S
C757 C763 1.465 . S
C758 C753 1.399 . S
C758 C757 1.394 . S
C758 C759 1.516 . S
C759 C758 1.516 . S
C759 C760 1.502 . S
C759 C761 1.561 . S
C759 C762 1.526 . S
C760 H744 0.959 . S
C760 H745 0.959 1_545 S
C760 H746 0.961 . S
C760 C759 1.502 . S
C761 H747 0.960 . S
C761 H748 0.961 1_545 S
C761 H749 0.959 . S
C761 C759 1.561 . S
C762 C759 1.526 . S
C762 C763 1.396 . S
C762 C767 1.390 . S
C763 C757 1.465 . S
C763 C762 1.396 . S
C763 C764 1.399 . S
C764 H750 0.929 . S
C764 C763 1.399 . S
C764 C765 1.385 . S
C765 H751 0.931 . S
C765 C764 1.385 . S
C765 C766 1.389 . S
C766 C765 1.389 . S
C766 C767 1.387 . S
C767 H752 0.930 . S
C767 C762 1.390 . S
C767 C766 1.387 . S
H768 C780 0.930 . S
H769 C782 0.930 . S
H770 C783 0.930 . S
H771 C787 0.959 . S
H772 C787 0.959 . S
H773 C787 0.961 . S
H774 C788 0.960 . S
H775 C788 0.961 . S
H776 C788 0.959 . S
H777 C791 0.929 . S
H778 C792 0.931 . S
H779 C794 0.930 . S
C780 H768 0.930 . S
C780 C781 1.399 . S
C780 C785 1.399 1_455 S
C781 C780 1.399 . S
C781 C782 1.376 . S
C782 H769 0.930 . S
C782 C781 1.376 . S
C782 C783 1.388 . S
C783 H770 0.930 . S
C783 C782 1.388 . S
C783 C784 1.390 1_455 S
C784 C783 1.390 1_655 S
C784 C785 1.394 . S
C784 C790 1.465 . S
C785 C780 1.399 1_655 S
C785 C784 1.394 . S
C785 C786 1.516 . S
C786 C785 1.516 . S
C786 C787 1.502 . S
C786 C788 1.561 . S
C786 C789 1.526 . S
C787 H771 0.959 . S
C787 H772 0.959 . S
C787 H773 0.961 . S
C787 C786 1.502 . S
C788 H774 0.960 . S
C788 H775 0.961 . S
C788 H776 0.959 . S
C788 C786 1.561 . S
C789 C786 1.526 . S
C789 C790 1.396 . S
C789 C794 1.390 . S
C790 C784 1.465 . S
C790 C789 1.396 . S
C790 C791 1.399 . S
C791 H777 0.929 . S
C791 C790 1.399 . S
C791 C792 1.385 . S
C792 H778 0.931 . S
C792 C791 1.385 . S
C792 C793 1.389 . S
C793 C792 1.389 . S
C793 C794 1.387 . S
C794 H779 0.930 . S
C794 C789 1.390 . S
C794 C793 1.387 . S
H795 C807 0.930 . S
H796 C809 0.930 . S
H797 C810 0.930 . S
H798 C814 0.959 . S
H799 C814 0.959 1_455 S
H800 C814 0.961 . S
H801 C815 0.955 1_655 S
H802 C815 0.961 . S
H803 C815 0.959 . S
H804 C818 0.929 . S
H805 C819 0.931 . S
H806 C821 0.930 . S
C807 H795 0.930 . S
C807 C808 1.399 . S
C807 C812 1.399 . S
C808 C807 1.399 . S
C808 C809 1.376 . S
C809 H796 0.930 . S
C809 C808 1.376 . S
C809 C810 1.388 1_655 S
C810 H797 0.930 . S
C810 C809 1.388 1_455 S
C810 C811 1.390 . S
C811 C810 1.390 . S
C811 C812 1.394 1_455 S
C811 C817 1.465 . S
C812 C807 1.399 . S
C812 C811 1.394 1_655 S
C812 C813 1.516 1_655 S
C813 C812 1.516 1_455 S
C813 C814 1.502 1_455 S
C813 C815 1.561 . S
C813 C816 1.526 . S
C814 H798 0.959 . S
C814 H799 0.959 1_655 S
C814 H800 0.961 . S
C814 C813 1.502 1_655 S
C815 H801 0.955 1_455 S
C815 H802 0.961 . S
C815 H803 0.959 . S
C815 C813 1.561 . S
C816 C813 1.526 . S
C816 C817 1.396 . S
C816 C821 1.390 . S
C817 C811 1.465 . S
C817 C816 1.396 . S
C817 C818 1.399 . S
C818 H804 0.929 . S
C818 C817 1.399 . S
C818 C819 1.385 . S
C819 H805 0.931 . S
C819 C818 1.385 . S
C819 C820 1.389 . S
C820 C819 1.389 . S
C820 C821 1.387 . S
C821 H806 0.930 . S
C821 C816 1.390 . S
C821 C820 1.387 . S
H822 C834 0.930 . S
H823 C836 0.930 1_554 S
H824 C837 0.936 . S
H825 C841 0.959 . S
H826 C841 0.959 . S
H827 C841 0.961 . S
H828 C842 0.960 . S
H829 C842 0.961 . S
H830 C842 0.959 . S
H831 C845 0.929 . S
H832 C846 0.931 . S
H833 C848 0.930 . S
C834 H822 0.930 . S
C834 C835 1.399 . S
C834 C839 1.399 1_455 S
C835 C834 1.399 . S
C835 C836 1.376 . S
C836 H823 0.930 1_556 S
C836 C835 1.376 . S
C836 C837 1.369 1_455 S
C837 H824 0.936 . S
C837 C836 1.369 1_655 S
C837 C838 1.404 . S
C838 C837 1.404 . S
C838 C839 1.394 . S
C838 C844 1.465 . S
C839 C834 1.399 1_655 S
C839 C838 1.394 . S
C839 C840 1.516 . S
C840 C839 1.516 . S
C840 C841 1.502 . S
C840 C842 1.561 . S
C840 C843 1.526 . S
C841 H825 0.959 . S
C841 H826 0.959 . S
C841 H827 0.961 . S
C841 C840 1.502 . S
C842 H828 0.960 . S
C842 H829 0.961 . S
C842 H830 0.959 . S
C842 C840 1.561 . S
C843 C840 1.526 . S
C843 C844 1.396 . S
C843 C848 1.390 . S
C844 C838 1.465 . S
C844 C843 1.396 . S
C844 C845 1.399 . S
C845 H831 0.929 . S
C845 C844 1.399 . S
C845 C846 1.385 . S
C846 H832 0.931 . S
C846 C845 1.385 . S
C846 C847 1.389 . S
C847 C846 1.389 . S
C847 C848 1.387 . S
C848 H833 0.930 . S
C848 C843 1.390 . S
C848 C847 1.387 . S
H849 C861 0.930 . S
H850 C863 0.930 . S
H851 C864 0.930 . S
H852 C868 0.959 . S
H853 C868 0.959 . S
H854 C868 0.961 . S
H855 C869 0.960 . S
H856 C869 0.961 . S
H857 C869 0.959 . S
H858 C872 0.929 . S
H859 C873 0.931 . S
H860 C875 0.930 . S
C861 H849 0.930 . S
C861 C862 1.399 . S
C861 C866 1.399 . S
C862 C861 1.399 . S
C862 C863 1.376 . S
C863 H850 0.930 . S
C863 C862 1.376 . S
C863 C864 1.388 . S
C864 H851 0.930 . S
C864 C863 1.388 . S
C864 C865 1.390 . S
C865 C864 1.390 . S
C865 C866 1.394 . S
C865 C871 1.465 . S
C866 C861 1.399 . S
C866 C865 1.394 . S
C866 C867 1.516 . S
C867 C866 1.516 . S
C867 C868 1.502 . S
C867 C869 1.561 . S
C867 C870 1.526 . S
C868 H852 0.959 . S
C868 H853 0.959 . S
C868 H854 0.961 . S
C868 C867 1.502 . S
C869 H855 0.960 . S
C869 H856 0.961 . S
C869 H857 0.959 . S
C869 C867 1.561 . S
C870 C867 1.526 . S
C870 C871 1.396 . S
C870 C875 1.390 1_455 S
C871 C865 1.465 . S
C871 C870 1.396 . S
C871 C872 1.399 1_455 S
C872 H858 0.929 . S
C872 C871 1.399 1_655 S
C872 C873 1.385 . S
C873 H859 0.931 . S
C873 C872 1.385 . S
C873 C874 1.389 . S
C874 C873 1.389 . S
C874 C875 1.387 . S
C875 H860 0.930 . S
C875 C870 1.390 1_655 S
C875 C874 1.387 . S
H876 C888 0.930 . S
H877 C890 0.930 . S
H878 C891 0.930 . S
H879 C895 0.959 1_565 S
H880 C895 0.969 . S
H881 C895 0.961 . S
H882 C896 0.960 . S
H883 C896 0.961 . S
H884 C896 0.959 . S
H885 C899 0.929 . S
H886 C900 0.931 . S
H887 C902 0.930 . S
C888 H876 0.930 . S
C888 C889 1.399 . S
C888 C893 1.399 . S
C889 C888 1.399 . S
C889 C890 1.376 . S
C890 H877 0.930 . S
C890 C889 1.376 . S
C890 C891 1.388 1_545 S
C891 H878 0.930 . S
C891 C890 1.388 1_565 S
C891 C892 1.390 . S
C892 C891 1.390 . S
C892 C893 1.394 1_565 S
C892 C898 1.465 . S
C893 C888 1.399 . S
C893 C892 1.394 1_545 S
C893 C894 1.516 1_545 S
C894 C893 1.516 1_565 S
C894 C895 1.502 1_565 S
C894 C896 1.561 1_565 S
C894 C897 1.526 . S
C895 H879 0.959 1_545 S
C895 H880 0.969 . S
C895 H881 0.961 . S
C895 C894 1.502 1_545 S
C896 H882 0.960 . S
C896 H883 0.961 . S
C896 H884 0.959 . S
C896 C894 1.561 1_545 S
C897 C894 1.526 . S
C897 C898 1.396 . S
C897 C902 1.390 . S
C898 C892 1.465 . S
C898 C897 1.396 . S
C898 C899 1.399 . S
C899 H885 0.929 . S
C899 C898 1.399 . S
C899 C900 1.385 . S
C900 H886 0.931 . S
C900 C899 1.385 . S
C900 C901 1.389 . S
C901 C900 1.389 . S
C901 C902 1.387 . S
C902 H887 0.930 . S
C902 C897 1.390 . S
C902 C901 1.387 . S
H903 C915 0.930 . S
H904 C917 0.930 . S
H905 C918 0.930 . S
H906 C922 0.959 . S
H907 C922 0.959 . S
H908 C922 0.961 . S
H909 C923 0.960 . S
H910 C923 0.961 . S
H911 C923 0.959 . S
H912 C926 0.929 . S
H913 C927 0.931 . S
H914 C929 0.930 . S
C915 H903 0.930 . S
C915 C916 1.399 . S
C915 C920 1.399 . S
C916 C915 1.399 . S
C916 C917 1.376 . S
C917 H904 0.930 . S
C917 C916 1.376 . S
C917 C918 1.388 . S
C918 H905 0.930 . S
C918 C917 1.388 . S
C918 C919 1.390 . S
C919 C918 1.390 . S
C919 C920 1.394 . S
C919 C925 1.505 . S
C920 C915 1.399 . S
C920 C919 1.394 . S
C920 C921 1.516 . S
C921 C920 1.516 . S
C921 C922 1.502 . S
C921 C923 1.561 . S
C921 C924 1.526 . S
C922 H906 0.959 . S
C922 H907 0.959 . S
C922 H908 0.961 . S
C922 C921 1.502 . S
C923 H909 0.960 . S
C923 H910 0.961 . S
C923 H911 0.959 . S
C923 C921 1.561 . S
C924 C921 1.526 . S
C924 C925 1.403 . S
C924 C929 1.390 1_545 S
C925 C919 1.505 . S
C925 C924 1.403 . S
C925 C926 1.357 1_545 S
C926 H912 0.929 . S
C926 C925 1.357 1_565 S
C926 C927 1.385 . S
C927 H913 0.931 . S
C927 C926 1.385 . S
C927 C928 1.389 . S
C928 C927 1.389 . S
C928 C929 1.387 . S
C929 H914 0.930 . S
C929 C924 1.390 1_565 S
C929 C928 1.387 . S
H930 C942 0.930 . S
H931 C944 0.930 . S
H932 C945 0.930 . S
H933 C949 0.959 . S
H934 C949 0.959 . S
H935 C949 0.961 . S
H936 C950 0.960 . S
H937 C950 0.961 . S
H938 C950 0.959 . S
H939 C953 0.929 . S
H940 C954 0.931 . S
H941 C956 0.930 . S
C942 H930 0.930 . S
C942 C943 1.399 . S
C942 C947 1.399 . S
C943 C942 1.399 . S
C943 C944 1.376 . S
C944 H931 0.930 . S
C944 C943 1.376 . S
C944 C945 1.388 . S
C945 H932 0.930 . S
C945 C944 1.388 . S
C945 C946 1.390 . S
C946 C945 1.390 . S
C946 C947 1.394 . S
C946 C952 1.465 . S
C947 C942 1.399 . S
C947 C946 1.394 . S
C947 C948 1.516 . S
C948 C947 1.516 . S
C948 C949 1.502 . S
C948 C950 1.561 . S
C948 C951 1.526 . S
C949 H933 0.959 . S
C949 H934 0.959 . S
C949 H935 0.961 . S
C949 C948 1.502 . S
C950 H936 0.960 . S
C950 H937 0.961 . S
C950 H938 0.959 . S
C950 C948 1.561 . S
C951 C948 1.526 . S
C951 C952 1.396 . S
C951 C956 1.390 . S
C952 C946 1.465 . S
C952 C951 1.396 . S
C952 C953 1.399 . S
C953 H939 0.929 . S
C953 C952 1.399 . S
C953 C954 1.385 . S
C954 H940 0.931 . S
C954 C953 1.385 . S
C954 C955 1.389 . S
C955 C954 1.389 . S
C955 C956 1.387 . S
C956 H941 0.930 . S
C956 C951 1.390 . S
C956 C955 1.387 . S
H957 C969 0.930 . S
H958 C971 0.930 . S
H959 C972 0.930 . S
H960 C976 0.959 . S
H961 C976 0.959 . S
H962 C976 0.964 . S
H963 C977 0.960 1_545 S
H964 C977 0.961 . S
H965 C977 0.959 1_545 S
H966 C980 0.929 . S
H967 C981 0.931 . S
H968 C983 0.930 . S
C969 H957 0.930 . S
C969 C970 1.399 . S
C969 C974 1.399 . S
C970 C969 1.399 . S
C970 C971 1.376 . S
C971 H958 0.930 . S
C971 C970 1.376 . S
C971 C972 1.388 . S
C972 H959 0.930 . S
C972 C971 1.388 . S
C972 C973 1.390 . S
C973 C972 1.390 . S
C973 C974 1.394 . S
C973 C979 1.465 . S
C974 C969 1.399 . S
C974 C973 1.394 . S
C974 C975 1.516 . S
C975 C974 1.516 . S
C975 C976 1.502 1_545 S
C975 C977 1.561 1_545 S
C975 C978 1.526 1_545 S
C976 H960 0.959 . S
C976 H961 0.959 . S
C976 H962 0.964 . S
C976 C975 1.502 1_565 S
C977 H963 0.960 1_565 S
C977 H964 0.961 . S
C977 H965 0.959 1_565 S
C977 C975 1.561 1_565 S
C978 C975 1.526 1_565 S
C978 C979 1.396 1_565 S
C978 C983 1.390 . S
C979 C973 1.465 . S
C979 C978 1.396 1_545 S
C979 C980 1.399 . S
C980 H966 0.929 . S
C980 C979 1.399 . S
C980 C981 1.385 1_545 S
C981 H967 0.931 . S
C981 C980 1.385 1_565 S
C981 C982 1.389 . S
C982 C981 1.389 . S
C982 C983 1.387 . S
C983 H968 0.930 . S
C983 C978 1.390 . S
C983 C982 1.387 . S
H984 C996 0.930 . S
H985 C998 0.930 . S
H986 C999 0.930 . S
H987 C1003 0.959 . S
H988 C1003 0.959 . S
H989 C1003 0.961 . S
H990 C1004 0.960 . S
H991 C1004 0.961 . S
H992 C1004 0.959 . S
H993 C1007 0.929 . S
H994 C1008 0.931 . S
H995 C1010 0.930 . S
C996 H984 0.930 . S
C996 C997 1.399 1_455 S
C996 C1001 1.399 . S
C997 C996 1.399 1_655 S
C997 C998 1.376 . S
C998 H985 0.930 . S
C998 C997 1.376 . S
C998 C999 1.388 . S
C999 H986 0.930 . S
C999 C998 1.388 . S
C999 C1000 1.390 . S
C1000 C999 1.390 . S
C1000 C1001 1.394 1_655 S
C1000 C1006 1.465 . S
C1001 C996 1.399 . S
C1001 C1000 1.394 1_455 S
C1001 C1002 1.516 . S
C1002 C1001 1.516 . S
C1002 C1003 1.502 . S
C1002 C1004 1.561 1_455 S
C1002 C1005 1.526 . S
C1003 H987 0.959 . S
C1003 H988 0.959 . S
C1003 H989 0.961 . S
C1003 C1002 1.502 . S
C1004 H990 0.960 . S
C1004 H991 0.961 . S
C1004 H992 0.959 . S
C1004 C1002 1.561 1_655 S
C1005 C1002 1.526 . S
C1005 C1006 1.396 1_455 S
C1005 C1010 1.390 . S
C1006 C1000 1.465 . S
C1006 C1005 1.396 1_655 S
C1006 C1007 1.399 . S
C1007 H993 0.929 . S
C1007 C1006 1.399 . S
C1007 C1008 1.385 . S
C1008 H994 0.931 . S
C1008 C1007 1.385 . S
C1008 C1009 1.389 1_655 S
C1009 C1008 1.389 1_455 S
C1009 C1010 1.387 . S
C1010 H995 0.930 . S
C1010 C1005 1.390 . S
C1010 C1009 1.387 . S
H1011 C1023 0.930 . S
H1012 C1025 0.930 . S
H1013 C1026 0.930 . S
H1014 C1030 0.959 . S
H1015 C1030 0.959 . S
H1016 C1030 0.961 . S
H1017 C1031 0.960 . S
H1018 C1031 0.961 . S
H1019 C1031 0.959 . S
H1020 C1034 0.929 . S
H1021 C1035 0.931 . S
H1022 C1037 0.930 . S
C1023 H1011 0.930 . S
C1023 C1024 1.399 . S
C1023 C1028 1.399 . S
C1024 C1023 1.399 . S
C1024 C1025 1.376 1_455 S
C1025 H1012 0.930 . S
C1025 C1024 1.376 1_655 S
C1025 C1026 1.388 . S
C1026 H1013 0.930 . S
C1026 C1025 1.388 . S
C1026 C1027 1.390 . S
C1027 C1026 1.390 . S
C1027 C1028 1.394 1_655 S
C1027 C1033 1.465 . S
C1028 C1023 1.399 . S
C1028 C1027 1.394 1_455 S
C1028 C1029 1.516 . S
C1029 C1028 1.516 . S
C1029 C1030 1.502 . S
C1029 C1031 1.561 1_455 S
C1029 C1032 1.526 . S
C1030 H1014 0.959 . S
C1030 H1015 0.959 . S
C1030 H1016 0.961 . S
C1030 C1029 1.502 . S
C1031 H1017 0.960 . S
C1031 H1018 0.961 . S
C1031 H1019 0.959 . S
C1031 C1029 1.561 1_655 S
C1032 C1029 1.526 . S
C1032 C1033 1.396 1_455 S
C1032 C1037 1.390 . S
C1033 C1027 1.465 . S
C1033 C1032 1.396 1_655 S
C1033 C1034 1.399 . S
C1034 H1020 0.929 . S
C1034 C1033 1.399 . S
C1034 C1035 1.385 . S
C1035 H1021 0.931 . S
C1035 C1034 1.385 . S
C1035 C1036 1.389 . S
C1036 C1035 1.389 . S
C1036 C1037 1.387 1_655 S
C1037 H1022 0.930 . S
C1037 C1032 1.390 . S
C1037 C1036 1.387 1_455 S
H1038 C1050 0.930 . S
H1039 C1052 0.930 . S
H1040 C1053 0.930 . S
H1041 C1057 0.959 . S
H1042 C1057 0.959 . S
H1043 C1057 0.961 . S
H1044 C1058 0.960 . S
H1045 C1058 0.961 . S
H1046 C1058 0.959 . S
H1047 C1061 0.929 . S
H1048 C1062 0.931 . S
H1049 C1064 0.930 . S
C1050 H1038 0.930 . S
C1050 C1051 1.399 1_545 S
C1050 C1055 1.399 . S
C1051 C1050 1.399 1_565 S
C1051 C1052 1.376 . S
C1052 H1039 0.930 . S
C1052 C1051 1.376 . S
C1052 C1053 1.388 . S
C1053 H1040 0.930 . S
C1053 C1052 1.388 . S
C1053 C1054 1.390 . S
C1054 C1053 1.390 . S
C1054 C1055 1.394 1_565 S
C1054 C1060 1.465 . S
C1055 C1050 1.399 . S
C1055 C1054 1.394 1_545 S
C1055 C1056 1.516 . S
C1056 C1055 1.516 . S
C1056 C1057 1.502 . S
C1056 C1058 1.561 . S
C1056 C1059 1.526 . S
C1057 H1041 0.959 . S
C1057 H1042 0.959 . S
C1057 H1043 0.961 . S
C1057 C1056 1.502 . S
C1058 H1044 0.960 . S
C1058 H1045 0.961 . S
C1058 H1046 0.959 . S
C1058 C1056 1.561 . S
C1059 C1056 1.526 . S
C1059 C1060 1.396 1_545 S
C1059 C1064 1.390 . S
C1060 C1054 1.465 . S
C1060 C1059 1.396 1_565 S
C1060 C1061 1.399 . S
C1061 H1047 0.929 . S
C1061 C1060 1.399 . S
C1061 C1062 1.385 . S
C1062 H1048 0.931 . S
C1062 C1061 1.385 . S
C1062 C1063 1.389 1_565 S
C1063 C1062 1.389 1_545 S
C1063 C1064 1.387 . S
C1064 H1049 0.930 . S
C1064 C1059 1.390 . S
C1064 C1063 1.387 . S
H1065 C1077 0.930 . S
H1066 C1079 0.930 . S
H1067 C1080 0.930 . S
H1068 C1084 0.959 . S
H1069 C1084 0.959 . S
H1070 C1084 0.961 . S
H1071 C1085 0.960 . S
H1072 C1085 0.961 . S
H1073 C1085 0.959 . S
H1074 C1088 0.929 . S
H1075 C1089 0.931 . S
H1076 C1091 0.930 . S
C1077 H1065 0.930 . S
C1077 C1078 1.399 . S
C1077 C1082 1.399 . S
C1078 C1077 1.399 . S
C1078 C1079 1.376 . S
C1079 H1066 0.930 . S
C1079 C1078 1.376 . S
C1079 C1080 1.388 . S
C1080 H1067 0.930 . S
C1080 C1079 1.388 . S
C1080 C1081 1.390 . S
C1081 C1080 1.390 . S
C1081 C1082 1.394 . S
C1081 C1087 1.465 . S
C1082 C1077 1.399 . S
C1082 C1081 1.394 . S
C1082 C1083 1.516 . S
C1083 C1082 1.516 . S
C1083 C1084 1.502 . S
C1083 C1085 1.561 . S
C1083 C1086 1.526 . S
C1084 H1068 0.959 . S
C1084 H1069 0.959 . S
C1084 H1070 0.961 . S
C1084 C1083 1.502 . S
C1085 H1071 0.960 . S
C1085 H1072 0.961 . S
C1085 H1073 0.959 . S
C1085 C1083 1.561 . S
C1086 C1083 1.526 . S
C1086 C1087 1.396 . S
C1086 C1091 1.390 . S
C1087 C1081 1.465 . S
C1087 C1086 1.396 . S
C1087 C1088 1.399 . S
C1088 H1074 0.929 . S
C1088 C1087 1.399 . S
C1088 C1089 1.385 . S
C1089 H1075 0.931 . S
C1089 C1088 1.385 . S
C1089 C1090 1.389 . S
C1090 C1089 1.389 . S
C1090 C1091 1.387 . S
C1091 H1076 0.930 . S
C1091 C1086 1.390 . S
C1091 C1090 1.387 . S
H1092 C1104 0.930 . S
H1093 C1106 0.930 . S
H1094 C1107 0.930 . S
H1095 C1111 0.959 . S
H1096 C1111 0.959 . S
H1097 C1111 0.961 . S
H1098 C1112 0.960 . S
H1099 C1112 0.961 . S
H1100 C1112 0.957 1_556 S
H1101 C1115 0.929 . S
H1102 C1116 0.931 . S
H1103 C1118 0.930 . S
C1104 H1092 0.930 . S
C1104 C1105 1.415 . S
C1104 C1109 1.399 . S
C1105 C1104 1.415 . S
C1105 C1106 1.355 1_554 S
C1106 H1093 0.930 . S
C1106 C1105 1.355 1_556 S
C1106 C1107 1.388 . S
C1107 H1094 0.930 . S
C1107 C1106 1.388 . S
C1107 C1108 1.390 . S
C1108 C1107 1.390 . S
C1108 C1109 1.394 1_556 S
C1108 C1114 1.465 . S
C1109 C1104 1.399 . S
C1109 C1108 1.394 1_554 S
C1109 C1110 1.516 . S
C1110 C1109 1.516 . S
C1110 C1111 1.502 . S
C1110 C1112 1.561 . S
C1110 C1113 1.526 . S
C1111 H1095 0.959 . S
C1111 H1096 0.959 . S
C1111 H1097 0.961 . S
C1111 C1110 1.502 . S
C1112 H1098 0.960 . S
C1112 H1099 0.961 . S
C1112 H1100 0.957 1_554 S
C1112 C1110 1.561 . S
C1113 C1110 1.526 . S
C1113 C1114 1.396 1_554 S
C1113 C1118 1.390 . S
C1114 C1108 1.465 . S
C1114 C1113 1.396 1_556 S
C1114 C1115 1.399 . S
C1115 H1101 0.929 . S
C1115 C1114 1.399 . S
C1115 C1116 1.385 . S
C1116 H1102 0.931 . S
C1116 C1115 1.385 . S
C1116 C1117 1.389 . S
C1117 C1116 1.389 . S
C1117 C1118 1.387 1_556 S
C1118 H1103 0.930 . S
C1118 C1113 1.390 . S
C1118 C1117 1.387 1_554 S
H1119 C1131 0.930 . S
H1120 C1133 0.930 . S
H1121 C1134 0.930 . S
H1122 C1138 0.959 . S
H1123 C1138 0.959 . S
H1124 C1138 0.961 . S
H1125 C1139 0.960 . S
H1126 C1139 0.961 . S
H1127 C1139 0.959 . S
H1128 C1142 0.929 . S
H1129 C1143 0.931 . S
H1130 C1145 0.930 . S
C1131 H1119 0.930 . S
C1131 C1132 1.399 . S
C1131 C1136 1.399 . S
C1132 C1131 1.399 . S
C1132 C1133 1.376 . S
C1133 H1120 0.930 . S
C1133 C1132 1.376 . S
C1133 C1134 1.388 . S
C1134 H1121 0.930 . S
C1134 C1133 1.388 . S
C1134 C1135 1.390 . S
C1135 C1134 1.390 . S
C1135 C1136 1.394 . S
C1135 C1141 1.465 . S
C1136 C1131 1.399 . S
C1136 C1135 1.394 . S
C1136 C1137 1.516 . S
C1137 C1136 1.516 . S
C1137 C1138 1.502 . S
C1137 C1139 1.561 . S
C1137 C1140 1.526 . S
C1138 H1122 0.959 . S
C1138 H1123 0.959 . S
C1138 H1124 0.961 . S
C1138 C1137 1.502 . S
C1139 H1125 0.960 . S
C1139 H1126 0.961 . S
C1139 H1127 0.959 . S
C1139 C1137 1.561 . S
C1140 C1137 1.526 . S
C1140 C1141 1.396 . S
C1140 C1145 1.390 . S
C1141 C1135 1.465 . S
C1141 C1140 1.396 . S
C1141 C1142 1.399 . S
C1142 H1128 0.929 . S
C1142 C1141 1.399 . S
C1142 C1143 1.385 . S
C1143 H1129 0.931 . S
C1143 C1142 1.385 . S
C1143 C1144 1.389 . S
C1144 C1143 1.389 . S
C1144 C1145 1.387 . S
C1145 H1130 0.930 . S
C1145 C1140 1.390 . S
C1145 C1144 1.387 . S
H1146 C1158 0.930 . S
H1147 C1160 0.930 . S
H1148 C1161 0.930 . S
H1149 C1165 0.959 . S
H1150 C1165 0.959 . S
H1151 C1165 0.961 . S
H1152 C1166 0.960 . S
H1153 C1166 0.961 . S
H1154 C1166 0.959 . S
H1155 C1169 0.929 . S
H1156 C1170 0.931 . S
H1157 C1172 0.930 . S
C1158 H1146 0.930 . S
C1158 C1159 1.399 . S
C1158 C1163 1.399 . S
C1159 C1158 1.399 . S
C1159 C1160 1.376 . S
C1160 H1147 0.930 . S
C1160 C1159 1.376 . S
C1160 C1161 1.388 . S
C1161 H1148 0.930 . S
C1161 C1160 1.388 . S
C1161 C1162 1.390 . S
C1162 C1161 1.390 . S
C1162 C1163 1.394 . S
C1162 C1168 1.465 . S
C1163 C1158 1.399 . S
C1163 C1162 1.394 . S
C1163 C1164 1.516 . S
C1164 C1163 1.516 . S
C1164 C1165 1.502 . S
C1164 C1166 1.561 . S
C1164 C1167 1.526 . S
C1165 H1149 0.959 . S
C1165 H1150 0.959 . S
C1165 H1151 0.961 . S
C1165 C1164 1.502 . S
C1166 H1152 0.960 . S
C1166 H1153 0.961 . S
C1166 H1154 0.959 . S
C1166 C1164 1.561 . S
C1167 C1164 1.526 . S
C1167 C1168 1.396 . S
C1167 C1172 1.390 . S
C1168 C1162 1.465 . S
C1168 C1167 1.396 . S
C1168 C1169 1.399 . S
C1169 H1155 0.929 . S
C1169 C1168 1.399 . S
C1169 C1170 1.385 . S
C1170 H1156 0.931 . S
C1170 C1169 1.385 . S
C1170 C1171 1.389 . S
C1171 C1170 1.389 . S
C1171 C1172 1.387 . S
C1172 H1157 0.930 . S
C1172 C1167 1.390 . S
C1172 C1171 1.387 . S
H1173 C1185 0.930 . S
H1174 C1187 0.930 . S
H1175 C1188 0.930 . S
H1176 C1192 0.959 . S
H1177 C1192 0.959 . S
H1178 C1192 0.961 . S
H1179 C1193 0.960 . S
H1180 C1193 0.961 . S
H1181 C1193 0.959 . S
H1182 C1196 0.929 . S
H1183 C1197 0.931 . S
H1184 C1199 0.930 . S
C1185 H1173 0.930 . S
C1185 C1186 1.399 . S
C1185 C1190 1.399 . S
C1186 C1185 1.399 . S
C1186 C1187 1.376 . S
C1187 H1174 0.930 . S
C1187 C1186 1.376 . S
C1187 C1188 1.388 . S
C1188 H1175 0.930 . S
C1188 C1187 1.388 . S
C1188 C1189 1.390 . S
C1189 C1188 1.390 . S
C1189 C1190 1.394 . S
C1189 C1195 1.465 . S
C1190 C1185 1.399 . S
C1190 C1189 1.394 . S
C1190 C1191 1.516 . S
C1191 C1190 1.516 . S
C1191 C1192 1.502 . S
C1191 C1193 1.561 . S
C1191 C1194 1.526 . S
C1192 H1176 0.959 . S
C1192 H1177 0.959 . S
C1192 H1178 0.961 . S
C1192 C1191 1.502 . S
C1193 H1179 0.960 . S
C1193 H1180 0.961 . S
C1193 H1181 0.959 . S
C1193 C1191 1.561 . S
C1194 C1191 1.526 . S
C1194 C1195 1.396 . S
C1194 C1199 1.390 . S
C1195 C1189 1.465 . S
C1195 C1194 1.396 . S
C1195 C1196 1.399 . S
C1196 H1182 0.929 . S
C1196 C1195 1.399 . S
C1196 C1197 1.385 . S
C1197 H1183 0.931 . S
C1197 C1196 1.385 . S
C1197 C1198 1.389 . S
C1198 C1197 1.389 . S
C1198 C1199 1.387 . S
C1199 H1184 0.930 . S
C1199 C1194 1.390 . S
C1199 C1198 1.387 . S
H1200 C1212 0.930 . S
H1201 C1214 0.930 . S
H1202 C1215 0.930 . S
H1203 C1219 0.959 . S
H1204 C1219 0.959 . S
H1205 C1219 0.961 . S
H1206 C1220 0.960 . S
H1207 C1220 0.961 . S
H1208 C1220 0.959 . S
H1209 C1223 0.929 . S
H1210 C1224 0.931 . S
H1211 C1226 0.930 . S
C1212 H1200 0.930 . S
C1212 C1213 1.399 . S
C1212 C1217 1.399 . S
C1213 C1212 1.399 . S
C1213 C1214 1.376 . S
C1214 H1201 0.930 . S
C1214 C1213 1.376 . S
C1214 C1215 1.388 . S
C1215 H1202 0.930 . S
C1215 C1214 1.388 . S
C1215 C1216 1.390 . S
C1216 C1215 1.390 . S
C1216 C1217 1.394 . S
C1216 C1222 1.465 . S
C1217 C1212 1.399 . S
C1217 C1216 1.394 . S
C1217 C1218 1.516 . S
C1218 C1217 1.516 . S
C1218 C1219 1.502 . S
C1218 C1220 1.561 . S
C1218 C1221 1.526 . S
C1219 H1203 0.959 . S
C1219 H1204 0.959 . S
C1219 H1205 0.961 . S
C1219 C1218 1.502 . S
C1220 H1206 0.960 . S
C1220 H1207 0.961 . S
C1220 H1208 0.959 . S
C1220 C1218 1.561 . S
C1221 C1218 1.526 . S
C1221 C1222 1.396 . S
C1221 C1226 1.390 . S
C1222 C1216 1.465 . S
C1222 C1221 1.396 . S
C1222 C1223 1.399 . S
C1223 H1209 0.929 . S
C1223 C1222 1.399 . S
C1223 C1224 1.385 . S
C1224 H1210 0.931 . S
C1224 C1223 1.385 . S
C1224 C1225 1.389 . S
C1225 C1224 1.389 . S
C1225 C1226 1.387 . S
C1226 H1211 0.930 . S
C1226 C1221 1.390 . S
C1226 C1225 1.387 . S
H1227 C1239 0.930 . S
H1228 C1241 0.930 . S
H1229 C1242 0.930 . S
H1230 C1246 0.959 . S
H1231 C1246 0.959 . S
H1232 C1246 0.961 . S
H1233 C1247 0.960 . S
H1234 C1247 0.961 . S
H1235 C1247 0.959 . S
H1236 C1250 0.929 . S
H1237 C1251 0.931 . S
H1238 C1253 0.930 . S
C1239 H1227 0.930 . S
C1239 C1240 1.399 . S
C1239 C1244 1.399 . S
C1240 C1239 1.399 . S
C1240 C1241 1.376 . S
C1241 H1228 0.930 . S
C1241 C1240 1.376 . S
C1241 C1242 1.388 . S
C1242 H1229 0.930 . S
C1242 C1241 1.388 . S
C1242 C1243 1.390 . S
C1243 C1242 1.390 . S
C1243 C1244 1.394 . S
C1243 C1249 1.465 . S
C1244 C1239 1.399 . S
C1244 C1243 1.394 . S
C1244 C1245 1.516 . S
C1245 C1244 1.516 . S
C1245 C1246 1.502 . S
C1245 C1247 1.561 . S
C1245 C1248 1.526 . S
C1246 H1230 0.959 . S
C1246 H1231 0.959 . S
C1246 H1232 0.961 . S
C1246 C1245 1.502 . S
C1247 H1233 0.960 . S
C1247 H1234 0.961 . S
C1247 H1235 0.959 . S
C1247 C1245 1.561 . S
C1248 C1245 1.526 . S
C1248 C1249 1.396 . S
C1248 C1253 1.390 . S
C1249 C1243 1.465 . S
C1249 C1248 1.396 . S
C1249 C1250 1.399 . S
C1250 H1236 0.929 . S
C1250 C1249 1.399 . S
C1250 C1251 1.385 . S
C1251 H1237 0.931 . S
C1251 C1250 1.385 . S
C1251 C1252 1.389 . S
C1252 C1251 1.389 . S
C1252 C1253 1.387 . S
C1253 H1238 0.930 . S
C1253 C1248 1.390 . S
C1253 C1252 1.387 . S
H1254 C1266 0.930 . S
H1255 C1268 0.930 . S
H1256 C1269 0.930 . S
H1257 C1273 0.959 . S
H1258 C1273 0.959 . S
H1259 C1273 0.961 . S
H1260 C1274 0.960 . S
H1261 C1274 0.961 . S
H1262 C1274 0.959 . S
H1263 C1277 0.929 . S
H1264 C1278 0.931 . S
H1265 C1280 0.930 . S
C1266 H1254 0.930 . S
C1266 C1267 1.399 1_565 S
C1266 C1271 1.399 . S
C1267 C1266 1.399 1_545 S
C1267 C1268 1.376 . S
C1268 H1255 0.930 . S
C1268 C1267 1.376 . S
C1268 C1269 1.388 . S
C1269 H1256 0.930 . S
C1269 C1268 1.388 . S
C1269 C1270 1.390 . S
C1270 C1269 1.390 . S
C1270 C1271 1.394 1_545 S
C1270 C1276 1.465 . S
C1271 C1266 1.399 . S
C1271 C1270 1.394 1_565 S
C1271 C1272 1.516 . S
C1272 C1271 1.516 . S
C1272 C1273 1.502 . S
C1272 C1274 1.561 . S
C1272 C1275 1.526 . S
C1273 H1257 0.959 . S
C1273 H1258 0.959 . S
C1273 H1259 0.961 . S
C1273 C1272 1.502 . S
C1274 H1260 0.960 . S
C1274 H1261 0.961 . S
C1274 H1262 0.959 . S
C1274 C1272 1.561 . S
C1275 C1272 1.526 . S
C1275 C1276 1.396 1_565 S
C1275 C1280 1.390 . S
C1276 C1270 1.465 . S
C1276 C1275 1.396 1_545 S
C1276 C1277 1.399 . S
C1277 H1263 0.929 . S
C1277 C1276 1.399 . S
C1277 C1278 1.385 . S
C1278 H1264 0.931 . S
C1278 C1277 1.385 . S
C1278 C1279 1.406 . S
C1279 C1278 1.406 . S
C1279 C1280 1.374 1_545 S
C1280 H1265 0.930 . S
C1280 C1275 1.390 . S
C1280 C1279 1.374 1_565 S
H1281 C1293 0.930 . S
H1282 C1295 0.930 . S
H1283 C1296 0.930 . S
H1284 C1300 0.959 . S
H1285 C1300 0.959 . S
H1286 C1300 0.961 . S
H1287 C1301 0.960 . S
H1288 C1301 0.961 . S
H1289 C1301 0.959 . S
H1290 C1304 0.929 . S
H1291 C1305 0.931 . S
H1292 C1307 0.930 . S
C1293 H1281 0.930 . S
C1293 C1294 1.399 1_554 S
C1293 C1298 1.399 . S
C1294 C1293 1.399 1_556 S
C1294 C1295 1.376 . S
C1295 H1282 0.930 . S
C1295 C1294 1.376 . S
C1295 C1296 1.388 . S
C1296 H1283 0.930 . S
C1296 C1295 1.388 . S
C1296 C1297 1.390 . S
C1297 C1296 1.390 . S
C1297 C1298 1.394 1_556 S
C1297 C1303 1.465 . S
C1298 C1293 1.399 . S
C1298 C1297 1.394 1_554 S
C1298 C1299 1.516 . S
C1299 C1298 1.516 . S
C1299 C1300 1.502 . S
C1299 C1301 1.561 . S
C1299 C1302 1.526 . S
C1300 H1284 0.959 . S
C1300 H1285 0.959 . S
C1300 H1286 0.961 . S
C1300 C1299 1.502 . S
C1301 H1287 0.960 . S
C1301 H1288 0.961 . S
C1301 H1289 0.959 . S
C1301 C1299 1.561 . S
C1302 C1299 1.526 . S
C1302 C1303 1.396 1_554 S
C1302 C1307 1.390 . S
C1303 C1297 1.465 . S
C1303 C1302 1.396 1_556 S
C1303 C1304 1.399 . S
C1304 H1290 0.929 . S
C1304 C1303 1.399 . S
C1304 C1305 1.385 . S
C1305 H1291 0.931 . S
C1305 C1304 1.385 . S
C1305 C1306 1.389 1_556 S
C1306 C1305 1.389 1_554 S
C1306 C1307 1.387 . S
C1307 H1292 0.930 . S
C1307 C1302 1.390 . S
C1307 C1306 1.387 . S
H1308 C1320 0.930 . S
H1309 C1322 0.930 . S
H1310 C1323 0.930 . S
H1311 C1327 0.959 1_565 S
H1312 C1327 0.959 . S
H1313 C1327 0.961 . S
H1314 C1328 0.960 . S
H1315 C1328 0.961 . S
H1316 C1328 0.973 . S
H1317 C1331 0.929 1_565 S
H1318 C1332 0.931 . S
H1319 C1334 0.930 . S
C1320 H1308 0.930 . S
C1320 C1321 1.399 1_455 S
C1320 C1325 1.399 . S
C1321 C1320 1.399 1_655 S
C1321 C1322 1.376 . S
C1322 H1309 0.930 . S
C1322 C1321 1.376 . S
C1322 C1323 1.388 . S
C1323 H1310 0.930 . S
C1323 C1322 1.388 . S
C1323 C1324 1.390 . S
C1324 C1323 1.390 . S
C1324 C1325 1.394 1_655 S
C1324 C1330 1.465 1_565 S
C1325 C1320 1.399 . S
C1325 C1324 1.394 1_455 S
C1325 C1326 1.516 1_565 S
C1326 C1325 1.516 1_545 S
C1326 C1327 1.502 . S
C1326 C1328 1.561 . S
C1326 C1329 1.526 . S
C1327 H1311 0.959 1_545 S
C1327 H1312 0.959 . S
C1327 H1313 0.961 . S
C1327 C1326 1.502 . S
C1328 H1314 0.960 . S
C1328 H1315 0.961 . S
C1328 H1316 0.973 . S
C1328 C1326 1.561 . S
C1329 C1326 1.526 . S
C1329 C1330 1.396 1_455 S
C1329 C1334 1.390 . S
C1330 C1324 1.465 1_545 S
C1330 C1329 1.396 1_655 S
C1330 C1331 1.399 . S
C1331 H1317 0.929 1_545 S
C1331 C1330 1.399 . S
C1331 C1332 1.385 . S
C1332 H1318 0.931 . S
C1332 C1331 1.385 . S
C1332 C1333 1.389 . S
C1333 C1332 1.389 . S
C1333 C1334 1.387 1_655 S
C1334 H1319 0.930 . S
C1334 C1329 1.390 . S
C1334 C1333 1.387 1_455 S
H1335 C1347 0.925 1_655 S
H1336 C1349 0.930 . S
H1337 C1350 0.930 . S
H1338 C1354 0.959 . S
H1339 C1354 0.959 . S
H1340 C1354 0.961 . S
H1341 C1355 0.960 . S
H1342 C1355 0.961 . S
H1343 C1355 0.959 . S
H1344 C1358 0.929 . S
H1345 C1359 0.931 . S
H1346 C1361 0.930 . S
C1347 H1335 0.925 1_455 S
C1347 C1348 1.402 . S
C1347 C1352 1.400 . S
C1348 C1347 1.402 . S
C1348 C1349 1.376 . S
C1349 H1336 0.930 . S
C1349 C1348 1.376 . S
C1349 C1350 1.388 . S
C1350 H1337 0.930 . S
C1350 C1349 1.388 . S
C1350 C1351 1.390 . S
C1351 C1350 1.390 . S
C1351 C1352 1.394 . S
C1351 C1357 1.465 . S
C1352 C1347 1.400 . S
C1352 C1351 1.394 . S
C1352 C1353 1.516 1_455 S
C1353 C1352 1.516 1_655 S
C1353 C1354 1.505 . S
C1353 C1355 1.559 1_655 S
C1353 C1356 1.526 1_655 S
C1354 H1338 0.959 . S
C1354 H1339 0.959 . S
C1354 H1340 0.961 . S
C1354 C1353 1.505 . S
C1355 H1341 0.960 . S
C1355 H1342 0.961 . S
C1355 H1343 0.959 . S
C1355 C1353 1.559 1_455 S
C1356 C1353 1.526 1_455 S
C1356 C1357 1.396 . S
C1356 C1361 1.390 1_455 S
C1357 C1351 1.465 . S
C1357 C1356 1.396 . S
C1357 C1358 1.399 . S
C1358 H1344 0.929 . S
C1358 C1357 1.399 . S
C1358 C1359 1.385 . S
C1359 H1345 0.931 . S
C1359 C1358 1.385 . S
C1359 C1360 1.389 . S
C1360 C1359 1.389 . S
C1360 C1361 1.387 1_455 S
C1361 H1346 0.930 . S
C1361 C1356 1.390 1_655 S
C1361 C1360 1.387 1_655 S
H1362 C1374 0.930 . S
H1363 C1376 0.930 . S
H1364 C1377 0.930 . S
H1365 C1381 0.959 . S
H1366 C1381 0.959 . S
H1367 C1381 0.961 . S
H1368 C1382 0.960 . S
H1369 C1382 0.961 . S
H1370 C1382 0.959 . S
H1371 C1385 0.918 1_556 S
H1372 C1386 0.931 . S
H1373 C1388 0.930 . S
C1374 H1362 0.930 . S
C1374 C1375 1.407 . S
C1374 C1379 1.399 . S
C1375 C1374 1.407 . S
C1375 C1376 1.367 1_565 S
C1376 H1363 0.930 . S
C1376 C1375 1.367 1_545 S
C1376 C1377 1.388 . S
C1377 H1364 0.930 . S
C1377 C1376 1.388 . S
C1377 C1378 1.390 . S
C1378 C1377 1.390 . S
C1378 C1379 1.394 1_545 S
C1378 C1384 1.465 1_556 S
C1379 C1374 1.399 . S
C1379 C1378 1.394 1_565 S
C1379 C1380 1.516 1_556 S
C1380 C1379 1.516 1_554 S
C1380 C1381 1.502 . S
C1380 C1382 1.561 1_554 S
C1380 C1383 1.526 . S
C1381 H1365 0.959 . S
C1381 H1366 0.959 . S
C1381 H1367 0.961 . S
C1381 C1380 1.502 . S
C1382 H1368 0.960 . S
C1382 H1369 0.961 . S
C1382 H1370 0.959 . S
C1382 C1380 1.561 1_556 S
C1383 C1380 1.526 . S
C1383 C1384 1.396 1_565 S
C1383 C1388 1.390 . S
C1384 C1378 1.465 1_554 S
C1384 C1383 1.396 1_545 S
C1384 C1385 1.399 . S
C1385 H1371 0.918 1_554 S
C1385 C1384 1.399 . S
C1385 C1386 1.385 . S
C1386 H1372 0.931 . S
C1386 C1385 1.385 . S
C1386 C1387 1.389 1_545 S
C1387 C1386 1.389 1_565 S
C1387 C1388 1.387 . S
C1388 H1373 0.930 . S
C1388 C1383 1.390 . S
C1388 C1387 1.387 . S
H1389 C1401 0.930 . S
H1390 C1403 0.930 . S
H1391 C1404 0.930 . S
H1392 C1408 0.959 . S
H1393 C1408 0.959 . S
H1394 C1408 0.961 . S
H1395 C1409 0.960 . S
H1396 C1409 0.961 1_556 S
H1397 C1409 0.959 . S
H1398 C1412 0.905 1_554 S
H1399 C1413 0.931 . S
H1400 C1415 0.930 . S
C1401 H1389 0.930 . S
C1401 C1402 1.399 . S
C1401 C1406 1.399 . S
C1402 C1401 1.399 . S
C1402 C1403 1.376 . S
C1403 H1390 0.930 . S
C1403 C1402 1.376 . S
C1403 C1404 1.388 . S
C1404 H1391 0.930 . S
C1404 C1403 1.388 . S
C1404 C1405 1.390 . S
C1405 C1404 1.390 . S
C1405 C1406 1.394 . S
C1405 C1411 1.465 1_554 S
C1406 C1401 1.399 . S
C1406 C1405 1.394 . S
C1406 C1407 1.516 1_554 S
C1407 C1406 1.516 1_556 S
C1407 C1408 1.502 . S
C1407 C1409 1.561 1_556 S
C1407 C1410 1.526 . S
C1408 H1392 0.959 . S
C1408 H1393 0.959 . S
C1408 H1394 0.961 . S
C1408 C1407 1.502 . S
C1409 H1395 0.960 . S
C1409 H1396 0.961 1_554 S
C1409 H1397 0.959 . S
C1409 C1407 1.561 1_554 S
C1410 C1407 1.526 . S
C1410 C1411 1.396 . S
C1410 C1415 1.390 . S
C1411 C1405 1.465 1_556 S
C1411 C1410 1.396 . S
C1411 C1412 1.399 . S
C1412 H1398 0.905 1_556 S
C1412 C1411 1.399 . S
C1412 C1413 1.385 . S
C1413 H1399 0.931 . S
C1413 C1412 1.385 . S
C1413 C1414 1.389 . S
C1414 C1413 1.389 . S
C1414 C1415 1.387 . S
C1415 H1400 0.930 . S
C1415 C1410 1.390 . S
C1415 C1414 1.387 . S
H1416 C1428 0.930 . S
H1417 C1430 0.930 . S
H1418 C1431 0.930 . S
H1419 C1435 0.959 . S
H1420 C1435 0.959 . S
H1421 C1435 0.961 . S
H1422 C1436 0.960 . S
H1423 C1436 0.961 . S
H1424 C1436 0.959 . S
H1425 C1439 0.929 . S
H1426 C1440 0.931 . S
H1427 C1442 0.930 . S
C1428 H1416 0.930 . S
C1428 C1429 1.399 . S
C1428 C1433 1.399 . S
C1429 C1428 1.399 . S
C1429 C1430 1.376 1_545 S
C1430 H1417 0.930 . S
C1430 C1429 1.376 1_565 S
C1430 C1431 1.388 . S
C1431 H1418 0.930 . S
C1431 C1430 1.388 . S
C1431 C1432 1.390 . S
C1432 C1431 1.390 . S
C1432 C1433 1.394 1_565 S
C1432 C1438 1.465 . S
C1433 C1428 1.399 . S
C1433 C1432 1.394 1_545 S
C1433 C1434 1.516 . S
C1434 C1433 1.516 . S
C1434 C1435 1.502 . S
C1434 C1436 1.561 . S
C1434 C1437 1.526 . S
C1435 H1419 0.959 . S
C1435 H1420 0.959 . S
C1435 H1421 0.961 . S
C1435 C1434 1.502 . S
C1436 H1422 0.960 . S
C1436 H1423 0.961 . S
C1436 H1424 0.959 . S
C1436 C1434 1.561 . S
C1437 C1434 1.526 . S
C1437 C1438 1.396 1_545 S
C1437 C1442 1.390 . S
C1438 C1432 1.465 . S
C1438 C1437 1.396 1_565 S
C1438 C1439 1.399 . S
C1439 H1425 0.929 . S
C1439 C1438 1.399 . S
C1439 C1440 1.385 . S
C1440 H1426 0.931 . S
C1440 C1439 1.385 . S
C1440 C1441 1.389 . S
C1441 C1440 1.389 . S
C1441 C1442 1.387 1_565 S
C1442 H1427 0.930 . S
C1442 C1437 1.390 . S
C1442 C1441 1.387 1_545 S
H1443 C1455 0.930 . S
H1444 C1457 0.930 . S
H1445 C1458 0.930 . S
H1446 C1462 0.959 . S
H1447 C1462 0.959 . S
H1448 C1462 0.961 . S
H1449 C1463 0.960 . S
H1450 C1463 0.961 . S
H1451 C1463 0.959 . S
H1452 C1466 0.929 . S
H1453 C1467 0.931 . S
H1454 C1469 0.930 . S
C1455 H1443 0.930 . S
C1455 C1456 1.399 . S
C1455 C1460 1.399 . S
C1456 C1455 1.399 . S
C1456 C1457 1.376 . S
C1457 H1444 0.930 . S
C1457 C1456 1.376 . S
C1457 C1458 1.388 . S
C1458 H1445 0.930 . S
C1458 C1457 1.388 . S
C1458 C1459 1.390 . S
C1459 C1458 1.390 . S
C1459 C1460 1.394 . S
C1459 C1465 1.465 . S
C1460 C1455 1.399 . S
C1460 C1459 1.394 . S
C1460 C1461 1.516 . S
C1461 C1460 1.516 . S
C1461 C1462 1.502 . S
C1461 C1463 1.561 . S
C1461 C1464 1.526 . S
C1462 H1446 0.959 . S
C1462 H1447 0.959 . S
C1462 H1448 0.961 . S
C1462 C1461 1.502 . S
C1463 H1449 0.960 . S
C1463 H1450 0.961 . S
C1463 H1451 0.959 . S
C1463 C1461 1.561 . S
C1464 C1461 1.526 . S
C1464 C1465 1.396 . S
C1464 C1469 1.390 . S
C1465 C1459 1.465 . S
C1465 C1464 1.396 . S
C1465 C1466 1.399 . S
C1466 H1452 0.929 . S
C1466 C1465 1.399 . S
C1466 C1467 1.385 . S
C1467 H1453 0.931 . S
C1467 C1466 1.385 . S
C1467 C1468 1.389 . S
C1468 C1467 1.389 . S
C1468 C1469 1.387 . S
C1469 H1454 0.930 . S
C1469 C1464 1.390 . S
C1469 C1468 1.387 . S
H1470 C1482 0.930 . S
H1471 C1484 0.930 . S
H1472 C1485 0.930 . S
H1473 C1489 0.959 . S
H1474 C1489 0.959 . S
H1475 C1489 0.961 . S
H1476 C1490 0.960 . S
H1477 C1490 0.961 1_655 S
H1478 C1490 0.959 . S
H1479 C1493 0.929 . S
H1480 C1494 0.931 . S
H1481 C1496 0.930 . S
C1482 H1470 0.930 . S
C1482 C1483 1.399 . S
C1482 C1487 1.399 . S
C1483 C1482 1.399 . S
C1483 C1484 1.376 1_556 S
C1484 H1471 0.930 . S
C1484 C1483 1.376 1_554 S
C1484 C1485 1.388 . S
C1485 H1472 0.930 . S
C1485 C1484 1.388 . S
C1485 C1486 1.390 . S
C1486 C1485 1.390 . S
C1486 C1487 1.394 1_554 S
C1486 C1492 1.465 1_455 S
C1487 C1482 1.399 . S
C1487 C1486 1.394 1_556 S
C1487 C1488 1.516 1_455 S
C1488 C1487 1.516 1_655 S
C1488 C1489 1.502 . S
C1488 C1490 1.561 1_655 S
C1488 C1491 1.526 . S
C1489 H1473 0.959 . S
C1489 H1474 0.959 . S
C1489 H1475 0.961 . S
C1489 C1488 1.502 . S
C1490 H1476 0.960 . S
C1490 H1477 0.961 1_455 S
C1490 H1478 0.959 . S
C1490 C1488 1.561 1_455 S
C1491 C1488 1.526 . S
C1491 C1492 1.396 1_556 S
C1491 C1496 1.390 . S
C1492 C1486 1.465 1_655 S
C1492 C1491 1.396 1_554 S
C1492 C1493 1.399 . S
C1493 H1479 0.929 . S
C1493 C1492 1.399 . S
C1493 C1494 1.385 . S
C1494 H1480 0.931 . S
C1494 C1493 1.385 . S
C1494 C1495 1.395 . S
C1495 C1494 1.395 . S
C1495 C1496 1.382 1_554 S
C1496 H1481 0.930 . S
C1496 C1491 1.390 . S
C1496 C1495 1.382 1_556 S
H1497 C1509 0.930 . S
H1498 C1511 0.930 . S
H1499 C1512 0.905 1_655 S
H1500 C1516 0.959 . S
H1501 C1516 0.959 . S
H1502 C1516 0.961 . S
H1503 C1517 0.960 . S
H1504 C1517 0.961 1_655 S
H1505 C1517 0.959 1_655 S
H1506 C1520 0.929 . S
H1507 C1521 0.931 . S
H1508 C1523 0.930 . S
C1509 H1497 0.930 . S
C1509 C1510 1.399 . S
C1509 C1514 1.399 . S
C1510 C1509 1.399 . S
C1510 C1511 1.376 . S
C1511 H1498 0.930 . S
C1511 C1510 1.376 . S
C1511 C1512 1.417 . S
C1512 H1499 0.905 1_455 S
C1512 C1511 1.417 . S
C1512 C1513 1.387 1_455 S
C1513 C1512 1.387 1_655 S
C1513 C1514 1.369 1_655 S
C1513 C1519 1.489 . S
C1514 C1509 1.399 . S
C1514 C1513 1.369 1_455 S
C1514 C1515 1.516 . S
C1515 C1514 1.516 . S
C1515 C1516 1.502 . S
C1515 C1517 1.561 . S
C1515 C1518 1.526 1_455 S
C1516 H1500 0.959 . S
C1516 H1501 0.959 . S
C1516 H1502 0.961 . S
C1516 C1515 1.502 . S
C1517 H1503 0.960 . S
C1517 H1504 0.961 1_455 S
C1517 H1505 0.959 1_455 S
C1517 C1515 1.561 . S
C1518 C1515 1.526 1_655 S
C1518 C1519 1.396 . S
C1518 C1523 1.390 . S
C1519 C1513 1.489 . S
C1519 C1518 1.396 . S
C1519 C1520 1.399 . S
C1520 H1506 0.929 . S
C1520 C1519 1.399 . S
C1520 C1521 1.385 . S
C1521 H1507 0.931 . S
C1521 C1520 1.385 . S
C1521 C1522 1.389 . S
C1522 C1521 1.389 . S
C1522 C1523 1.387 . S
C1523 H1508 0.930 . S
C1523 C1518 1.390 . S
C1523 C1522 1.387 . S
H1524 C1536 0.930 . S
H1525 C1538 0.930 . S
H1526 C1539 0.930 . S
H1527 C1543 0.959 . S
H1528 C1543 0.959 . S
H1529 C1543 0.961 . S
H1530 C1544 0.960 . S
H1531 C1544 0.961 . S
H1532 C1544 0.959 . S
H1533 C1547 0.929 . S
H1534 C1548 0.931 . S
H1535 C1550 0.930 . S
C1536 H1524 0.930 . S
C1536 C1537 1.399 . S
C1536 C1541 1.399 . S
C1537 C1536 1.399 . S
C1537 C1538 1.376 . S
C1538 H1525 0.930 . S
C1538 C1537 1.376 . S
C1538 C1539 1.388 . S
C1539 H1526 0.930 . S
C1539 C1538 1.388 . S
C1539 C1540 1.390 . S
C1540 C1539 1.390 . S
C1540 C1541 1.394 . S
C1540 C1546 1.465 . S
C1541 C1536 1.399 . S
C1541 C1540 1.394 . S
C1541 C1542 1.516 . S
C1542 C1541 1.516 . S
C1542 C1543 1.502 . S
C1542 C1544 1.561 . S
C1542 C1545 1.526 . S
C1543 H1527 0.959 . S
C1543 H1528 0.959 . S
C1543 H1529 0.961 . S
C1543 C1542 1.502 . S
C1544 H1530 0.960 . S
C1544 H1531 0.961 . S
C1544 H1532 0.959 . S
C1544 C1542 1.561 . S
C1545 C1542 1.526 . S
C1545 C1546 1.396 . S
C1545 C1550 1.390 . S
C1546 C1540 1.465 . S
C1546 C1545 1.396 . S
C1546 C1547 1.399 . S
C1547 H1533 0.929 . S
C1547 C1546 1.399 . S
C1547 C1548 1.385 . S
C1548 H1534 0.931 . S
C1548 C1547 1.385 . S
C1548 C1549 1.389 . S
C1549 C1548 1.389 . S
C1549 C1550 1.387 . S
C1550 H1535 0.930 . S
C1550 C1545 1.390 . S
C1550 C1549 1.387 . S
H1551 C1563 0.930 . S
H1552 C1565 0.930 . S
H1553 C1566 0.930 . S
H1554 C1570 0.959 . S
H1555 C1570 0.959 . S
H1556 C1570 0.961 . S
H1557 C1571 0.960 . S
H1558 C1571 0.961 . S
H1559 C1571 0.959 . S
H1560 C1574 0.929 . S
H1561 C1575 0.931 . S
H1562 C1577 0.930 . S
C1563 H1551 0.930 . S
C1563 C1564 1.399 . S
C1563 C1568 1.399 . S
C1564 C1563 1.399 . S
C1564 C1565 1.376 . S
C1565 H1552 0.930 . S
C1565 C1564 1.376 . S
C1565 C1566 1.388 . S
C1566 H1553 0.930 . S
C1566 C1565 1.388 . S
C1566 C1567 1.390 . S
C1567 C1566 1.390 . S
C1567 C1568 1.394 . S
C1567 C1573 1.465 . S
C1568 C1563 1.399 . S
C1568 C1567 1.394 . S
C1568 C1569 1.516 . S
C1569 C1568 1.516 . S
C1569 C1570 1.502 . S
C1569 C1571 1.561 . S
C1569 C1572 1.526 . S
C1570 H1554 0.959 . S
C1570 H1555 0.959 . S
C1570 H1556 0.961 . S
C1570 C1569 1.502 . S
C1571 H1557 0.960 . S
C1571 H1558 0.961 . S
C1571 H1559 0.959 . S
C1571 C1569 1.561 . S
C1572 C1569 1.526 . S
C1572 C1573 1.396 . S
C1572 C1577 1.390 . S
C1573 C1567 1.465 . S
C1573 C1572 1.396 . S
C1573 C1574 1.399 . S
C1574 H1560 0.929 . S
C1574 C1573 1.399 . S
C1574 C1575 1.385 . S
C1575 H1561 0.931 . S
C1575 C1574 1.385 . S
C1575 C1576 1.389 . S
C1576 C1575 1.389 . S
C1576 C1577 1.387 . S
C1577 H1562 0.930 . S
C1577 C1572 1.390 . S
C1577 C1576 1.387 . S
H1578 C1590 0.930 . S
H1579 C1592 0.930 . S
H1580 C1593 0.930 . S
H1581 C1597 0.959 . S
H1582 C1597 0.959 . S
H1583 C1597 0.961 . S
H1584 C1598 0.960 . S
H1585 C1598 0.961 . S
H1586 C1598 0.959 . S
H1587 C1601 0.923 1_565 S
H1588 C1602 0.931 . S
H1589 C1604 0.930 . S
C1590 H1578 0.930 . S
C1590 C1591 1.399 . S
C1590 C1595 1.399 . S
C1591 C1590 1.399 . S
C1591 C1592 1.376 . S
C1592 H1579 0.930 . S
C1592 C1591 1.376 . S
C1592 C1593 1.388 . S
C1593 H1580 0.930 . S
C1593 C1592 1.388 . S
C1593 C1594 1.390 . S
C1594 C1593 1.390 . S
C1594 C1595 1.394 . S
C1594 C1600 1.447 1_565 S
C1595 C1590 1.399 . S
C1595 C1594 1.394 . S
C1595 C1596 1.516 1_565 S
C1596 C1595 1.516 1_545 S
C1596 C1597 1.502 . S
C1596 C1598 1.561 . S
C1596 C1599 1.526 . S
C1597 H1581 0.959 . S
C1597 H1582 0.959 . S
C1597 H1583 0.961 . S
C1597 C1596 1.502 . S
C1598 H1584 0.960 . S
C1598 H1585 0.961 . S
C1598 H1586 0.959 . S
C1598 C1596 1.561 . S
C1599 C1596 1.526 . S
C1599 C1600 1.418 . S
C1599 C1604 1.390 . S
C1600 C1594 1.447 1_545 S
C1600 C1599 1.418 . S
C1600 C1601 1.399 . S
C1601 H1587 0.923 1_545 S
C1601 C1600 1.399 . S
C1601 C1602 1.391 . S
C1602 H1588 0.931 . S
C1602 C1601 1.391 . S
C1602 C1603 1.389 . S
C1603 C1602 1.389 . S
C1603 C1604 1.387 . S
C1604 H1589 0.930 . S
C1604 C1599 1.390 . S
C1604 C1603 1.387 . S
H1605 C1617 0.930 . S
H1606 C1619 0.930 . S
H1607 C1620 0.930 . S
H1608 C1624 0.959 . S
H1609 C1624 0.959 . S
H1610 C1624 0.961 . S
H1611 C1625 0.960 . S
H1612 C1625 0.961 . S
H1613 C1625 0.959 . S
H1614 C1628 0.929 . S
H1615 C1629 0.931 . S
H1616 C1631 0.930 . S
C1617 H1605 0.930 . S
C1617 C1618 1.399 1_556 S
C1617 C1622 1.399 . S
C1618 C1617 1.399 1_554 S
C1618 C1619 1.376 . S
C1619 H1606 0.930 . S
C1619 C1618 1.376 . S
C1619 C1620 1.388 . S
C1620 H1607 0.930 . S
C1620 C1619 1.388 . S
C1620 C1621 1.390 . S
C1621 C1620 1.390 . S
C1621 C1622 1.394 1_554 S
C1621 C1627 1.465 . S
C1622 C1617 1.399 . S
C1622 C1621 1.394 1_556 S
C1622 C1623 1.516 . S
C1623 C1622 1.516 . S
C1623 C1624 1.502 . S
C1623 C1625 1.561 . S
C1623 C1626 1.526 . S
C1624 H1608 0.959 . S
C1624 H1609 0.959 . S
C1624 H1610 0.961 . S
C1624 C1623 1.502 . S
C1625 H1611 0.960 . S
C1625 H1612 0.961 . S
C1625 H1613 0.959 . S
C1625 C1623 1.561 . S
C1626 C1623 1.526 . S
C1626 C1627 1.396 1_556 S
C1626 C1631 1.390 . S
C1627 C1621 1.465 . S
C1627 C1626 1.396 1_554 S
C1627 C1628 1.399 . S
C1628 H1614 0.929 . S
C1628 C1627 1.399 . S
C1628 C1629 1.385 . S
C1629 H1615 0.931 . S
C1629 C1628 1.385 . S
C1629 C1630 1.389 . S
C1630 C1629 1.389 . S
C1630 C1631 1.387 1_554 S
C1631 H1616 0.930 . S
C1631 C1626 1.390 . S
C1631 C1630 1.387 1_556 S
C349 C247 0.782 . S
C361 C8 0.714 . S
C376 C22 0.835 . S
C388 C233 0.849 . S
C403 C36 1.018 . S
C415 C275 1.036 . S
C430 C50 0.996 . S
C442 C261 1.047 . S
C457 C64 0.736 . S
C469 C303 0.721 . S
C484 C78 1.068 . S
C496 C317 0.997 . S
C511 C289 0.687 . S
C523 C92 0.849 . S
C538 C163 0.927 . S
C550 C106 1.094 . S
C565 C120 0.791 . S
C577 C51 0.699 . S
C592 C23 1.022 . S
C604 C134 1.046 . S
C619 C148 1.282 . S
C631 C9 1.308 . S
C646 C162 1.048 . S
C658 C205 0.983 . S
C673 C79 1.271 . S
C685 C176 1.264 . S
C700 C65 1.246 . S
C712 C190 1.315 . S
C727 C204 1.067 . S
C739 C107 0.949 . S
C754 C218 1.062 . S
C766 C93 1.082 . S
C781 C135 1.276 . S
C793 C232 1.266 . S
C808 C149 0.909 . S
C820 C246 1.078 . S
C835 C121 1.230 . S
C847 C260 1.295 . S
C862 C274 0.963 . S
C874 C331 1.002 . S
C889 C219 1.224 . S
C901 C288 1.309 . S
C916 C302 0.996 . S
C928 C191 1.047 . S
C943 C177 0.872 . S
C955 C316 0.816 . S
C970 C330 1.028 . S
C982 C37 0.941 . S
C997 C6 1.594 . S
C1009 C20 1.573 . S
C1024 C48 1.501 . S
C1036 C34 1.504 . S
C1051 C62 1.627 . S
C1063 C90 1.619 . S
C1078 C76 2.006 . S
C1090 C104 1.969 . S
C1105 C314 1.615 . S
C1117 C118 1.617 . S
C1132 C132 1.989 . S
C1144 C160 1.985 . S
C1159 C286 1.889 . S
C1171 C146 1.893 . S
C1186 C188 1.907 . S
C1198 C174 1.915 . S
C1213 C202 1.964 . S
C1225 C216 1.967 . S
C1240 C258 1.934 . S
C1252 C230 1.878 . S
C1267 C244 1.488 . S
C1279 C272 1.504 1_545 S
C1294 C328 1.496 . S
C1306 C300 1.490 . S
C1321 C35 1.232 1_655 S
C1333 C7 1.219 . S
C1348 C21 1.532 1_455 S
C1360 C49 1.463 1_455 S
C1375 C273 1.222 1_565 S
C1387 C63 1.157 . S
C1402 C77 1.448 . S
C1414 C259 1.393 . S
C1429 C91 1.515 1_545 S
C1441 C245 1.457 . S
C1456 C231 1.723 . S
C1468 C105 1.755 . S
C1483 C119 1.214 . S
C1495 C329 1.164 . S
C1510 C133 1.402 . S
C1522 C147 1.481 . S
C1537 C287 1.694 . S
C1549 C161 1.767 . S
C1564 C175 1.742 . S
C1576 C203 1.739 . S
C1591 C189 1.473 . S
C1603 C217 1.421 . S
C1618 C315 1.471 1_554 S
C1630 C301 1.532 1_554 S
