# Generated by pormake.
# Topology nfb, (4)-cn, num edge types: 1
# Building blocks:
#     Node 0, Type 0, BuildingBlock: NAHDIM_clean_sbu_0, # of connection points: 4
#     Node 1, Type 0, BuildingBlock: NAHDIM_clean_sbu_0, # of connection points: 4
#     Node 2, Type 0, BuildingBlock: NAHDIM_clean_sbu_0, # of connection points: 4
#     Node 3, Type 0, BuildingBlock: NAHDIM_clean_sbu_0, # of connection points: 4
#     Node 4, Type 0, BuildingBlock: NAHDIM_clean_sbu_0, # of connection points: 4
#     Node 5, Type 0, BuildingBlock: NAHDIM_clean_sbu_0, # of connection points: 4
#     Node 6, Type 0, BuildingBlock: NAHDIM_clean_sbu_0, # of connection points: 4
#     Node 7, Type 0, BuildingBlock: NAHDIM_clean_sbu_0, # of connection points: 4
#     Node 8, Type 0, BuildingBlock: NAHDIM_clean_sbu_0, # of connection points: 4
#     Node 9, Type 0, BuildingBlock: NAHDIM_clean_sbu_0, # of connection points: 4
#     Node 10, Type 0, BuildingBlock: NAHDIM_clean_sbu_0, # of connection points: 4
#     Node 11, Type 0, BuildingBlock: NAHDIM_clean_sbu_0, # of connection points: 4
#     Node 12, Type 0, BuildingBlock: NAHDIM_clean_sbu_0, # of connection points: 4
#     Node 13, Type 0, BuildingBlock: NAHDIM_clean_sbu_0, # of connection points: 4
#     Node 14, Type 0, BuildingBlock: NAHDIM_clean_sbu_0, # of connection points: 4
#     Node 15, Type 0, BuildingBlock: NAHDIM_clean_sbu_0, # of connection points: 4
#     Node 16, Type 0, BuildingBlock: NAHDIM_clean_sbu_0, # of connection points: 4
#     Node 17, Type 0, BuildingBlock: NAHDIM_clean_sbu_0, # of connection points: 4
#     Node 18, Type 0, BuildingBlock: NAHDIM_clean_sbu_0, # of connection points: 4
#     Node 19, Type 0, BuildingBlock: NAHDIM_clean_sbu_0, # of connection points: 4
#     Node 20, Type 0, BuildingBlock: NAHDIM_clean_sbu_0, # of connection points: 4
#     Node 21, Type 0, BuildingBlock: NAHDIM_clean_sbu_0, # of connection points: 4
#     Node 22, Type 0, BuildingBlock: NAHDIM_clean_sbu_0, # of connection points: 4
#     Node 23, Type 0, BuildingBlock: NAHDIM_clean_sbu_0, # of connection points: 4
#     Node 24, Type 0, BuildingBlock: NAHDIM_clean_sbu_0, # of connection points: 4
#     Node 25, Type 0, BuildingBlock: NAHDIM_clean_sbu_0, # of connection points: 4
#     Node 26, Type 0, BuildingBlock: NAHDIM_clean_sbu_0, # of connection points: 4
#     Node 27, Type 0, BuildingBlock: NAHDIM_clean_sbu_0, # of connection points: 4
#     Node 28, Type 0, BuildingBlock: NAHDIM_clean_sbu_0, # of connection points: 4
#     Node 29, Type 0, BuildingBlock: NAHDIM_clean_sbu_0, # of connection points: 4
#     Node 30, Type 0, BuildingBlock: NAHDIM_clean_sbu_0, # of connection points: 4
#     Node 31, Type 0, BuildingBlock: NAHDIM_clean_sbu_0, # of connection points: 4
#     Node 32, Type 0, BuildingBlock: NAHDIM_clean_sbu_0, # of connection points: 4
#     Node 33, Type 0, BuildingBlock: NAHDIM_clean_sbu_0, # of connection points: 4
#     Node 34, Type 0, BuildingBlock: NAHDIM_clean_sbu_0, # of connection points: 4
#     Node 35, Type 0, BuildingBlock: NAHDIM_clean_sbu_0, # of connection points: 4
#     Node 36, Type 0, BuildingBlock: NAHDIM_clean_sbu_0, # of connection points: 4
#     Node 37, Type 0, BuildingBlock: NAHDIM_clean_sbu_0, # of connection points: 4
#     Node 38, Type 0, BuildingBlock: NAHDIM_clean_sbu_0, # of connection points: 4
#     Node 39, Type 0, BuildingBlock: NAHDIM_clean_sbu_0, # of connection points: 4
#     Node 40, Type 0, BuildingBlock: NAHDIM_clean_sbu_0, # of connection points: 4
#     Node 41, Type 0, BuildingBlock: NAHDIM_clean_sbu_0, # of connection points: 4
#     Node 42, Type 0, BuildingBlock: NAHDIM_clean_sbu_0, # of connection points: 4
#     Node 43, Type 0, BuildingBlock: NAHDIM_clean_sbu_0, # of connection points: 4
#     Node 44, Type 0, BuildingBlock: NAHDIM_clean_sbu_0, # of connection points: 4
#     Node 45, Type 0, BuildingBlock: NAHDIM_clean_sbu_0, # of connection points: 4
#     Node 46, Type 0, BuildingBlock: NAHDIM_clean_sbu_0, # of connection points: 4
#     Node 47, Type 0, BuildingBlock: NAHDIM_clean_sbu_0, # of connection points: 4
#     Edge 48, Type (0, 0), BuildingBlock: XUDNAN_clean_linker_2, # of connection points: 2
#     Edge 49, Type (0, 0), BuildingBlock: XUDNAN_clean_linker_2, # of connection points: 2
#     Edge 50, Type (0, 0), BuildingBlock: XUDNAN_clean_linker_2, # of connection points: 2
#     Edge 51, Type (0, 0), BuildingBlock: XUDNAN_clean_linker_2, # of connection points: 2
#     Edge 52, Type (0, 0), BuildingBlock: XUDNAN_clean_linker_2, # of connection points: 2
#     Edge 53, Type (0, 0), BuildingBlock: XUDNAN_clean_linker_2, # of connection points: 2
#     Edge 54, Type (0, 0), BuildingBlock: XUDNAN_clean_linker_2, # of connection points: 2
#     Edge 55, Type (0, 0), BuildingBlock: XUDNAN_clean_linker_2, # of connection points: 2
#     Edge 56, Type (0, 0), BuildingBlock: XUDNAN_clean_linker_2, # of connection points: 2
#     Edge 57, Type (0, 0), BuildingBlock: XUDNAN_clean_linker_2, # of connection points: 2
#     Edge 58, Type (0, 0), BuildingBlock: XUDNAN_clean_linker_2, # of connection points: 2
#     Edge 59, Type (0, 0), BuildingBlock: XUDNAN_clean_linker_2, # of connection points: 2
#     Edge 60, Type (0, 0), BuildingBlock: XUDNAN_clean_linker_2, # of connection points: 2
#     Edge 61, Type (0, 0), BuildingBlock: XUDNAN_clean_linker_2, # of connection points: 2
#     Edge 62, Type (0, 0), BuildingBlock: XUDNAN_clean_linker_2, # of connection points: 2
#     Edge 63, Type (0, 0), BuildingBlock: XUDNAN_clean_linker_2, # of connection points: 2
#     Edge 64, Type (0, 0), BuildingBlock: XUDNAN_clean_linker_2, # of connection points: 2
#     Edge 65, Type (0, 0), BuildingBlock: XUDNAN_clean_linker_2, # of connection points: 2
#     Edge 66, Type (0, 0), BuildingBlock: XUDNAN_clean_linker_2, # of connection points: 2
#     Edge 67, Type (0, 0), BuildingBlock: XUDNAN_clean_linker_2, # of connection points: 2
#     Edge 68, Type (0, 0), BuildingBlock: XUDNAN_clean_linker_2, # of connection points: 2
#     Edge 69, Type (0, 0), BuildingBlock: XUDNAN_clean_linker_2, # of connection points: 2
#     Edge 70, Type (0, 0), BuildingBlock: XUDNAN_clean_linker_2, # of connection points: 2
#     Edge 71, Type (0, 0), BuildingBlock: XUDNAN_clean_linker_2, # of connection points: 2
#     Edge 72, Type (0, 0), BuildingBlock: XUDNAN_clean_linker_2, # of connection points: 2
#     Edge 73, Type (0, 0), BuildingBlock: XUDNAN_clean_linker_2, # of connection points: 2
#     Edge 74, Type (0, 0), BuildingBlock: XUDNAN_clean_linker_2, # of connection points: 2
#     Edge 75, Type (0, 0), BuildingBlock: XUDNAN_clean_linker_2, # of connection points: 2
#     Edge 76, Type (0, 0), BuildingBlock: XUDNAN_clean_linker_2, # of connection points: 2
#     Edge 77, Type (0, 0), BuildingBlock: XUDNAN_clean_linker_2, # of connection points: 2
#     Edge 78, Type (0, 0), BuildingBlock: XUDNAN_clean_linker_2, # of connection points: 2
#     Edge 79, Type (0, 0), BuildingBlock: XUDNAN_clean_linker_2, # of connection points: 2
#     Edge 80, Type (0, 0), BuildingBlock: XUDNAN_clean_linker_2, # of connection points: 2
#     Edge 81, Type (0, 0), BuildingBlock: XUDNAN_clean_linker_2, # of connection points: 2
#     Edge 82, Type (0, 0), BuildingBlock: XUDNAN_clean_linker_2, # of connection points: 2
#     Edge 83, Type (0, 0), BuildingBlock: XUDNAN_clean_linker_2, # of connection points: 2
#     Edge 84, Type (0, 0), BuildingBlock: XUDNAN_clean_linker_2, # of connection points: 2
#     Edge 85, Type (0, 0), BuildingBlock: XUDNAN_clean_linker_2, # of connection points: 2
#     Edge 86, Type (0, 0), BuildingBlock: XUDNAN_clean_linker_2, # of connection points: 2
#     Edge 87, Type (0, 0), BuildingBlock: XUDNAN_clean_linker_2, # of connection points: 2
#     Edge 88, Type (0, 0), BuildingBlock: XUDNAN_clean_linker_2, # of connection points: 2
#     Edge 89, Type (0, 0), BuildingBlock: XUDNAN_clean_linker_2, # of connection points: 2
#     Edge 90, Type (0, 0), BuildingBlock: XUDNAN_clean_linker_2, # of connection points: 2
#     Edge 91, Type (0, 0), BuildingBlock: XUDNAN_clean_linker_2, # of connection points: 2
#     Edge 92, Type (0, 0), BuildingBlock: XUDNAN_clean_linker_2, # of connection points: 2
#     Edge 93, Type (0, 0), BuildingBlock: XUDNAN_clean_linker_2, # of connection points: 2
#     Edge 94, Type (0, 0), BuildingBlock: XUDNAN_clean_linker_2, # of connection points: 2
#     Edge 95, Type (0, 0), BuildingBlock: XUDNAN_clean_linker_2, # of connection points: 2
#     Edge 96, Type (0, 0), BuildingBlock: XUDNAN_clean_linker_2, # of connection points: 2
#     Edge 97, Type (0, 0), BuildingBlock: XUDNAN_clean_linker_2, # of connection points: 2
#     Edge 98, Type (0, 0), BuildingBlock: XUDNAN_clean_linker_2, # of connection points: 2
#     Edge 99, Type (0, 0), BuildingBlock: XUDNAN_clean_linker_2, # of connection points: 2
#     Edge 100, Type (0, 0), BuildingBlock: XUDNAN_clean_linker_2, # of connection points: 2
#     Edge 101, Type (0, 0), BuildingBlock: XUDNAN_clean_linker_2, # of connection points: 2
#     Edge 102, Type (0, 0), BuildingBlock: XUDNAN_clean_linker_2, # of connection points: 2
#     Edge 103, Type (0, 0), BuildingBlock: XUDNAN_clean_linker_2, # of connection points: 2
#     Edge 104, Type (0, 0), BuildingBlock: XUDNAN_clean_linker_2, # of connection points: 2
#     Edge 105, Type (0, 0), BuildingBlock: XUDNAN_clean_linker_2, # of connection points: 2
#     Edge 106, Type (0, 0), BuildingBlock: XUDNAN_clean_linker_2, # of connection points: 2
#     Edge 107, Type (0, 0), BuildingBlock: XUDNAN_clean_linker_2, # of connection points: 2
#     Edge 108, Type (0, 0), BuildingBlock: XUDNAN_clean_linker_2, # of connection points: 2
#     Edge 109, Type (0, 0), BuildingBlock: XUDNAN_clean_linker_2, # of connection points: 2
#     Edge 110, Type (0, 0), BuildingBlock: XUDNAN_clean_linker_2, # of connection points: 2
#     Edge 111, Type (0, 0), BuildingBlock: XUDNAN_clean_linker_2, # of connection points: 2
#     Edge 112, Type (0, 0), BuildingBlock: XUDNAN_clean_linker_2, # of connection points: 2
#     Edge 113, Type (0, 0), BuildingBlock: XUDNAN_clean_linker_2, # of connection points: 2
#     Edge 114, Type (0, 0), BuildingBlock: XUDNAN_clean_linker_2, # of connection points: 2
#     Edge 115, Type (0, 0), BuildingBlock: XUDNAN_clean_linker_2, # of connection points: 2
#     Edge 116, Type (0, 0), BuildingBlock: XUDNAN_clean_linker_2, # of connection points: 2
#     Edge 117, Type (0, 0), BuildingBlock: XUDNAN_clean_linker_2, # of connection points: 2
#     Edge 118, Type (0, 0), BuildingBlock: XUDNAN_clean_linker_2, # of connection points: 2
#     Edge 119, Type (0, 0), BuildingBlock: XUDNAN_clean_linker_2, # of connection points: 2
#     Edge 120, Type (0, 0), BuildingBlock: XUDNAN_clean_linker_2, # of connection points: 2
#     Edge 121, Type (0, 0), BuildingBlock: XUDNAN_clean_linker_2, # of connection points: 2
#     Edge 122, Type (0, 0), BuildingBlock: XUDNAN_clean_linker_2, # of connection points: 2
#     Edge 123, Type (0, 0), BuildingBlock: XUDNAN_clean_linker_2, # of connection points: 2
#     Edge 124, Type (0, 0), BuildingBlock: XUDNAN_clean_linker_2, # of connection points: 2
#     Edge 125, Type (0, 0), BuildingBlock: XUDNAN_clean_linker_2, # of connection points: 2
#     Edge 126, Type (0, 0), BuildingBlock: XUDNAN_clean_linker_2, # of connection points: 2
#     Edge 127, Type (0, 0), BuildingBlock: XUDNAN_clean_linker_2, # of connection points: 2
#     Edge 128, Type (0, 0), BuildingBlock: XUDNAN_clean_linker_2, # of connection points: 2
#     Edge 129, Type (0, 0), BuildingBlock: XUDNAN_clean_linker_2, # of connection points: 2
#     Edge 130, Type (0, 0), BuildingBlock: XUDNAN_clean_linker_2, # of connection points: 2
#     Edge 131, Type (0, 0), BuildingBlock: XUDNAN_clean_linker_2, # of connection points: 2
#     Edge 132, Type (0, 0), BuildingBlock: XUDNAN_clean_linker_2, # of connection points: 2
#     Edge 133, Type (0, 0), BuildingBlock: XUDNAN_clean_linker_2, # of connection points: 2
#     Edge 134, Type (0, 0), BuildingBlock: XUDNAN_clean_linker_2, # of connection points: 2
#     Edge 135, Type (0, 0), BuildingBlock: XUDNAN_clean_linker_2, # of connection points: 2
#     Edge 136, Type (0, 0), BuildingBlock: XUDNAN_clean_linker_2, # of connection points: 2
#     Edge 137, Type (0, 0), BuildingBlock: XUDNAN_clean_linker_2, # of connection points: 2
#     Edge 138, Type (0, 0), BuildingBlock: XUDNAN_clean_linker_2, # of connection points: 2
#     Edge 139, Type (0, 0), BuildingBlock: XUDNAN_clean_linker_2, # of connection points: 2
#     Edge 140, Type (0, 0), BuildingBlock: XUDNAN_clean_linker_2, # of connection points: 2
#     Edge 141, Type (0, 0), BuildingBlock: XUDNAN_clean_linker_2, # of connection points: 2
#     Edge 142, Type (0, 0), BuildingBlock: XUDNAN_clean_linker_2, # of connection points: 2
#     Edge 143, Type (0, 0), BuildingBlock: XUDNAN_clean_linker_2, # of connection points: 2
# Relax obj value: 0.312
# Max RMSD: 0.203
# Mean RMSD: 0.171
data_MOF--net-nfb--node1-NAHDIM_clean_sbu_0--edge1-XUDNAN_clean_linker_2
_symmetry_space_group_name_H-M    P1
_symmetry_Int_Tables_number       1
_symmetry_cell_setting            triclinic
loop_
_symmetry_equiv_pos_as_xyz
'x, y, z'
_cell_length_a     59.233578
_cell_length_b     59.33753
_cell_length_c     59.260204
_cell_angle_alpha  90.266725
_cell_angle_beta   90.100626
_cell_angle_gamma 90.286852
loop_
_atom_site_label
_atom_site_type_symbol
_atom_site_fract_x
_atom_site_fract_y
_atom_site_fract_z
_atom_type_partial_charge
C0 C 0.17572 0.11938 0.38605 0.0
O1 O 0.16858 0.1117 0.40554 0.0
O2 O 0.12539 0.12995 0.41455 0.0
Zn3 Zn 0.12823 0.13144 0.38059 0.0
O4 O 0.12178 0.16353 0.3724 0.0
C5 C 0.08921 0.10152 0.37774 0.0
O6 O 0.09431 0.09815 0.39903 0.0
O7 O 0.16126 0.12635 0.37174 0.0
C8 C 0.10238 0.17186 0.37596 0.0
O9 O 0.08624 0.15881 0.38379 0.0
C10 C 0.12957 0.14753 0.4262 0.0
O11 O 0.13654 0.16592 0.41608 0.0
O12 O 0.10278 0.11305 0.36566 0.0
C13 C 0.38909 0.57917 0.84945 0.0
O14 O 0.36886 0.58675 0.84467 0.0
O15 O 0.35529 0.61686 0.87791 0.0
Zn16 Zn 0.38907 0.61791 0.87946 0.0
O17 O 0.39725 0.61304 0.91187 0.0
C18 C 0.38439 0.66372 0.86336 0.0
O19 O 0.36561 0.65544 0.85482 0.0
O20 O 0.40204 0.59118 0.86187 0.0
C21 C 0.4153 0.62097 0.92046 0.0
O22 O 0.42932 0.63243 0.90769 0.0
C23 C 0.34312 0.60311 0.88892 0.0
O24 O 0.35281 0.58817 0.90201 0.0
O25 O 0.39859 0.65024 0.87213 0.0
C26 C 0.84324 0.91097 0.38188 0.0
O27 O 0.85468 0.92001 0.39866 0.0
O28 O 0.89309 0.89228 0.40634 0.0
Zn29 Zn 0.88636 0.8889 0.37324 0.0
O30 O 0.88531 0.85557 0.36732 0.0
C31 C 0.92734 0.91502 0.36628 0.0
O32 O 0.92155 0.92301 0.38614 0.0
O33 O 0.8539 0.89958 0.36707 0.0
C34 C 0.89875 0.84212 0.37708 0.0
O35 O 0.91463 0.85032 0.39032 0.0
C36 C 0.88151 0.88223 0.42126 0.0
O37 O 0.86418 0.86975 0.41504 0.0
O38 O 0.91358 0.90191 0.35597 0.0
C39 C 0.61989 0.41106 0.8445 0.0
O40 O 0.64015 0.40537 0.83763 0.0
O41 O 0.65961 0.38036 0.87092 0.0
Zn42 Zn 0.62669 0.37316 0.87444 0.0
O43 O 0.61933 0.37798 0.90716 0.0
C44 C 0.62936 0.32494 0.87899 0.0
O45 O 0.63667 0.33135 0.89894 0.0
O46 O 0.60939 0.39787 0.85783 0.0
C47 C 0.60519 0.36718 0.91907 0.0
O48 O 0.59361 0.35039 0.91022 0.0
C49 C 0.67428 0.37662 0.88607 0.0
O50 O 0.66808 0.36747 0.90522 0.0
O51 O 0.62284 0.33991 0.86501 0.0
C52 C 0.07145 0.89298 0.63767 0.0
O53 O 0.073 0.8977 0.61611 0.0
O54 O 0.10912 0.83706 0.62734 0.0
Zn55 Zn 0.11356 0.87067 0.62781 0.0
O56 O 0.11006 0.88081 0.59568 0.0
C57 C 0.16058 0.8626 0.64005 0.0
O58 O 0.15313 0.84207 0.64381 0.0
O59 O 0.08805 0.88333 0.64733 0.0
C60 C 0.11941 0.86917 0.58031 0.0
O61 O 0.13141 0.85149 0.58592 0.0
C62 C 0.0937 0.82859 0.61496 0.0
O63 O 0.08032 0.84199 0.60356 0.0
O64 O 0.14641 0.87807 0.63558 0.0
C65 C 0.62072 0.68136 0.13863 0.0
O66 O 0.64161 0.67786 0.14513 0.0
O67 O 0.61352 0.62556 0.09594 0.0
Zn68 Zn 0.6223 0.63363 0.12762 0.0
O69 O 0.65619 0.6369 0.12792 0.0
C70 C 0.6235 0.58903 0.1391 0.0
O71 O 0.63842 0.59188 0.12296 0.0
O72 O 0.60837 0.66449 0.13324 0.0
C73 C 0.66935 0.63035 0.14349 0.0
O74 O 0.66095 0.62051 0.16145 0.0
C75 C 0.62349 0.63428 0.07915 0.0
O76 O 0.63966 0.64913 0.08264 0.0
O77 O 0.61266 0.60621 0.14613 0.0
C78 C 0.91815 0.11252 0.66001 0.0
O79 O 0.91556 0.13443 0.65844 0.0
O80 O 0.87308 0.14737 0.64243 0.0
Zn81 Zn 0.87471 0.11376 0.6385 0.0
O82 O 0.88169 0.10936 0.60585 0.0
C83 C 0.82828 0.1118 0.65462 0.0
O84 O 0.83512 0.12844 0.66769 0.0
O85 O 0.9016 0.0997 0.65473 0.0
C86 C 0.88029 0.09019 0.59638 0.0
O87 O 0.87398 0.07264 0.6083 0.0
C88 C 0.85895 0.15668 0.62932 0.0
O89 O 0.8471 0.14398 0.61541 0.0
O90 O 0.84287 0.1011 0.64302 0.0
C91 C 0.37519 0.3364 0.11818 0.0
O92 O 0.37267 0.34343 0.09734 0.0
O93 O 0.39296 0.38522 0.09304 0.0
Zn94 Zn 0.37471 0.38297 0.12153 0.0
O95 O 0.34223 0.38516 0.11193 0.0
C96 C 0.36891 0.42433 0.14748 0.0
O97 O 0.34752 0.41996 0.14354 0.0
O98 O 0.37773 0.35105 0.13383 0.0
C99 C 0.32656 0.37748 0.12435 0.0
O100 O 0.33165 0.36904 0.14417 0.0
C101 C 0.38634 0.39889 0.07802 0.0
O102 O 0.36909 0.41203 0.08237 0.0
O103 O 0.38363 0.4099 0.14147 0.0
C104 C 0.36038 0.17156 0.11129 0.0
O105 O 0.37473 0.1648 0.09584 0.0
O106 O 0.39238 0.12286 0.10758 0.0
Zn107 Zn 0.36435 0.12522 0.12627 0.0
O108 O 0.37585 0.12251 0.15801 0.0
C109 C 0.33696 0.08504 0.13336 0.0
O110 O 0.33978 0.09068 0.15463 0.0
O111 O 0.35166 0.15703 0.12446 0.0
C112 C 0.36544 0.13109 0.17464 0.0
O113 O 0.34578 0.1407 0.17131 0.0
C114 C 0.40481 0.10587 0.11122 0.0
O115 O 0.39775 0.09035 0.12533 0.0
O116 O 0.34413 0.09837 0.11815 0.0
C117 C 0.41607 0.86392 0.62479 0.0
O118 O 0.41321 0.88015 0.63965 0.0
O119 O 0.36768 0.87548 0.65662 0.0
Zn120 Zn 0.37065 0.87447 0.62285 0.0
O121 O 0.37625 0.90642 0.61344 0.0
C122 C 0.32562 0.85446 0.62292 0.0
O123 O 0.33324 0.8439 0.64078 0.0
O124 O 0.39889 0.85678 0.61381 0.0
C125 C 0.36809 0.91478 0.59551 0.0
O126 O 0.35564 0.90209 0.58215 0.0
C127 C 0.37406 0.86019 0.6701 0.0
O128 O 0.38391 0.84205 0.66212 0.0
O129 O 0.33942 0.86578 0.61092 0.0
C130 C 0.60812 0.84212 0.1001 0.0
O131 O 0.59176 0.85203 0.08901 0.0
O132 O 0.57984 0.89103 0.10862 0.0
Zn133 Zn 0.61094 0.88605 0.12097 0.0
O134 O 0.6067 0.88495 0.15455 0.0
C135 C 0.63454 0.92877 0.1253 0.0
O136 O 0.62992 0.92534 0.14667 0.0
O137 O 0.62095 0.85412 0.11263 0.0
C138 C 0.6219 0.87882 0.16834 0.0
O139 O 0.6423 0.87448 0.1609 0.0
C140 C 0.56737 0.90635 0.11682 0.0
O141 O 0.57543 0.91948 0.13287 0.0
O142 O 0.62984 0.91329 0.11102 0.0
C143 C 0.57812 0.14063 0.63011 0.0
O144 O 0.58358 0.14095 0.6516 0.0
O145 O 0.61568 0.10958 0.6617 0.0
Zn146 Zn 0.61763 0.11212 0.628 0.0
O147 O 0.61235 0.08091 0.61588 0.0
C148 C 0.66393 0.12806 0.63512 0.0
O149 O 0.65573 0.13549 0.65433 0.0
O150 O 0.5916 0.13136 0.61615 0.0
C151 C 0.6223 0.07371 0.59831 0.0
O152 O 0.63594 0.08725 0.58727 0.0
C153 C 0.62643 0.09401 0.6716 0.0
O154 O 0.63831 0.07977 0.65948 0.0
O155 O 0.65036 0.12016 0.6203 0.0
C156 C 0.36807 0.91124 0.91265 0.0
O157 O 0.38762 0.90366 0.91974 0.0
O158 O 0.36471 0.87512 0.8495 0.0
Zn159 Zn 0.37375 0.8743 0.88213 0.0
O160 O 0.40636 0.88381 0.88269 0.0
C161 C 0.36063 0.82679 0.88276 0.0
O162 O 0.34622 0.83319 0.86721 0.0
O163 O 0.35679 0.89931 0.89864 0.0
C164 C 0.42279 0.87027 0.88429 0.0
O165 O 0.41883 0.8485 0.88525 0.0
C166 C 0.37545 0.86312 0.83536 0.0
O167 O 0.39163 0.84992 0.8426 0.0
O168 O 0.37203 0.84178 0.89331 0.0
C169 C 0.67935 0.88064 0.37134 0.0
O170 O 0.67444 0.87748 0.34994 0.0
O171 O 0.62259 0.91718 0.37501 0.0
Zn172 Zn 0.63037 0.88427 0.37423 0.0
O173 O 0.62859 0.87534 0.34136 0.0
C174 C 0.59248 0.87776 0.40527 0.0
O175 O 0.59891 0.89764 0.4128 0.0
O176 O 0.66321 0.88227 0.38555 0.0
C177 C 0.61062 0.8672 0.33277 0.0
O178 O 0.59323 0.86309 0.34586 0.0
C179 C 0.60347 0.92422 0.36839 0.0
O180 O 0.58841 0.90967 0.36091 0.0
O181 O 0.60506 0.86752 0.39114 0.0
C182 C 0.63869 0.07374 0.8918 0.0
O183 O 0.62286 0.07404 0.87627 0.0
O184 O 0.63199 0.1105 0.85042 0.0
Zn185 Zn 0.63131 0.11903 0.88335 0.0
O186 O 0.5986 0.12048 0.89278 0.0
C187 C 0.65309 0.16078 0.86968 0.0
O188 O 0.65842 0.14847 0.85204 0.0
O189 O 0.64625 0.09243 0.89955 0.0
C190 C 0.58835 0.13927 0.89257 0.0
O191 O 0.59939 0.1575 0.88649 0.0
C192 C 0.61932 0.11841 0.83511 0.0
O193 O 0.60456 0.13406 0.84024 0.0
O194 O 0.64454 0.15105 0.88683 0.0
C195 C 0.34107 0.13615 0.39645 0.0
O196 O 0.34855 0.1177 0.406 0.0
O197 O 0.39025 0.10619 0.38877 0.0
Zn198 Zn 0.38737 0.13877 0.37984 0.0
O199 O 0.38881 0.13956 0.34603 0.0
C200 C 0.42985 0.14735 0.4033 0.0
O201 O 0.42587 0.12709 0.4112 0.0
O202 O 0.35514 0.14924 0.38673 0.0
C203 C 0.40668 0.14226 0.33451 0.0
O204 O 0.42616 0.14495 0.34483 0.0
C205 C 0.40364 0.09278 0.3788 0.0
O206 O 0.4166 0.10037 0.36255 0.0
O207 O 0.4146 0.15695 0.39158 0.0
C208 C 0.10612 0.38739 0.17345 0.0
O209 O 0.09862 0.40676 0.16595 0.0
O210 O 0.11226 0.41542 0.12306 0.0
Zn211 Zn 0.11968 0.38259 0.12656 0.0
O212 O 0.15318 0.37992 0.12222 0.0
C213 C 0.08568 0.37191 0.09266 0.0
O214 O 0.07388 0.38688 0.10394 0.0
O215 O 0.11381 0.37309 0.1593 0.0
C216 C 0.16244 0.3773 0.10306 0.0
O217 O 0.14981 0.37578 0.08488 0.0
C218 C 0.11508 0.42586 0.1046 0.0
O219 O 0.12271 0.41491 0.08691 0.0
O220 O 0.10453 0.36554 0.1007 0.0
C221 C 0.12783 0.63605 0.80317 0.0
O222 O 0.11356 0.61954 0.80713 0.0
O223 O 0.11875 0.60384 0.85296 0.0
Zn224 Zn 0.13511 0.63355 0.85224 0.0
O225 O 0.16649 0.62527 0.86154 0.0
C226 C 0.10605 0.64817 0.88905 0.0
O227 O 0.09228 0.63308 0.88025 0.0
O228 O 0.13722 0.64605 0.81988 0.0
C229 C 0.18434 0.63539 0.85535 0.0
O230 O 0.18284 0.65284 0.84188 0.0
C231 C 0.12872 0.58718 0.84394 0.0
O232 O 0.14753 0.59076 0.83276 0.0
O233 O 0.12402 0.65327 0.87838 0.0
C234 C 0.85677 0.62435 0.41529 0.0
O235 O 0.84729 0.64168 0.40542 0.0
O236 O 0.88299 0.66271 0.37816 0.0
Zn237 Zn 0.88986 0.62953 0.37924 0.0
O238 O 0.92281 0.62714 0.3866 0.0
C239 C 0.87497 0.62825 0.33257 0.0
O240 O 0.86419 0.64643 0.33907 0.0
O241 O 0.87367 0.61507 0.40589 0.0
C242 C 0.93797 0.62784 0.37151 0.0
O243 O 0.93202 0.62956 0.35022 0.0
C244 C 0.8941 0.67725 0.38945 0.0
O245 O 0.90989 0.67049 0.40343 0.0
O246 O 0.88521 0.61656 0.34739 0.0
C247 C 0.87776 0.33883 0.92603 0.0
O248 O 0.85637 0.33852 0.92012 0.0
O249 O 0.84754 0.37053 0.88741 0.0
Zn250 Zn 0.88105 0.36648 0.88589 0.0
O251 O 0.89365 0.3975 0.8907 0.0
C252 C 0.87356 0.34937 0.84001 0.0
O253 O 0.85479 0.34138 0.84871 0.0
O254 O 0.89208 0.34764 0.91261 0.0
C255 C 0.91066 0.40499 0.88003 0.0
O256 O 0.92131 0.39168 0.86588 0.0
C257 C 0.83891 0.38529 0.8746 0.0
O258 O 0.85217 0.39705 0.86129 0.0
O259 O 0.88844 0.35782 0.8532 0.0
C260 C 0.11715 0.40164 0.33878 0.0
O261 O 0.10173 0.41621 0.34502 0.0
O262 O 0.08162 0.40048 0.38651 0.0
Zn263 Zn 0.11118 0.38417 0.38457 0.0
O264 O 0.10295 0.35124 0.38451 0.0
C265 C 0.1226 0.37985 0.43052 0.0
O266 O 0.1066 0.36473 0.42757 0.0
O267 O 0.12572 0.38872 0.35359 0.0
C268 C 0.11666 0.33626 0.37783 0.0
O269 O 0.13702 0.34231 0.37139 0.0
C270 C 0.06564 0.39343 0.37399 0.0
O271 O 0.06961 0.37702 0.35959 0.0
O272 O 0.12908 0.39138 0.41356 0.0
C273 C 0.88226 0.62999 0.07589 0.0
O274 O 0.86107 0.624 0.07856 0.0
O275 O 0.84794 0.62497 0.12196 0.0
Zn276 Zn 0.88048 0.61554 0.1211 0.0
O277 O 0.88089 0.582 0.11716 0.0
C278 C 0.88421 0.63404 0.16671 0.0
O279 O 0.86762 0.64691 0.15979 0.0
O280 O 0.89556 0.62881 0.09283 0.0
C281 C 0.89913 0.57166 0.12138 0.0
O282 O 0.91701 0.58333 0.12759 0.0
C283 C 0.83368 0.61516 0.13459 0.0
O284 O 0.84041 0.59872 0.14772 0.0
O285 O 0.89413 0.62142 0.1524 0.0
C286 C 0.83465 0.37324 0.58878 0.0
O287 O 0.82922 0.35255 0.59444 0.0
O288 O 0.85674 0.33622 0.62681 0.0
Zn289 Zn 0.86218 0.36948 0.62917 0.0
O290 O 0.89515 0.37494 0.62432 0.0
C291 C 0.848 0.36629 0.6765 0.0
O292 O 0.83751 0.348 0.6695 0.0
O293 O 0.84641 0.38507 0.60255 0.0
C294 C 0.90282 0.39449 0.62881 0.0
O295 O 0.88885 0.41012 0.63589 0.0
C296 C 0.86911 0.32154 0.63614 0.0
O297 O 0.88663 0.32806 0.64818 0.0
O298 O 0.85688 0.37938 0.66194 0.0
C299 C 0.16544 0.62828 0.55718 0.0
O300 O 0.16543 0.6495 0.56358 0.0
O301 O 0.12948 0.65575 0.59393 0.0
Zn302 Zn 0.13859 0.62345 0.59797 0.0
O303 O 0.10923 0.60669 0.59616 0.0
C304 C 0.16191 0.63572 0.64015 0.0
O305 O 0.16939 0.65276 0.62816 0.0
O306 O 0.15715 0.61355 0.57045 0.0
C307 C 0.10228 0.59196 0.61003 0.0
O308 O 0.11536 0.58588 0.62684 0.0
C309 C 0.11972 0.6663 0.60983 0.0
O310 O 0.11602 0.65617 0.62914 0.0
O311 O 0.15088 0.62006 0.6302 0.0
C312 C 0.83392 0.84307 0.63888 0.0
O313 O 0.8452 0.82431 0.64174 0.0
O314 O 0.89077 0.82858 0.62845 0.0
Zn315 Zn 0.87853 0.86003 0.62682 0.0
O316 O 0.88064 0.86868 0.5943 0.0
C317 C 0.91185 0.87196 0.6605 0.0
O318 O 0.90516 0.85283 0.66941 0.0
O319 O 0.84484 0.86115 0.63473 0.0
C320 C 0.89926 0.87452 0.58543 0.0
O321 O 0.91754 0.87555 0.59799 0.0
C322 C 0.88637 0.81399 0.61331 0.0
O323 O 0.87249 0.81913 0.59681 0.0
O324 O 0.90074 0.87996 0.64399 0.0
C325 C 0.61918 0.42558 0.14197 0.0
O326 O 0.63657 0.42047 0.12923 0.0
O327 O 0.61191 0.38644 0.09767 0.0
Zn328 Zn 0.61474 0.38079 0.13106 0.0
O329 O 0.6479 0.37583 0.13691 0.0
C330 C 0.5856 0.34228 0.12371 0.0
O331 O 0.57656 0.3553 0.10831 0.0
O332 O 0.60517 0.40994 0.1468 0.0
C333 C 0.65656 0.3563 0.13588 0.0
O334 O 0.64348 0.33873 0.13224 0.0
C335 C 0.61715 0.3715 0.08319 0.0
O336 O 0.62471 0.35192 0.09001 0.0
O337 O 0.59878 0.35111 0.1383 0.0
C338 C 0.15996 0.14459 0.63192 0.0
O339 O 0.14863 0.16109 0.62257 0.0
O340 O 0.1103 0.16646 0.65057 0.0
Zn341 Zn 0.115 0.13531 0.63769 0.0
O342 O 0.10899 0.13745 0.60441 0.0
C343 C 0.07987 0.10018 0.64288 0.0
O344 O 0.08726 0.09227 0.62353 0.0
O345 O 0.1488 0.12864 0.64116 0.0
C346 C 0.11682 0.12449 0.58924 0.0
O347 O 0.12867 0.1068 0.59509 0.0
C348 C 0.09937 0.18121 0.63962 0.0
O349 O 0.09049 0.17589 0.61998 0.0
O350 O 0.09067 0.11612 0.65256 0.0
C351 C 0.37581 0.58728 0.15233 0.0
O352 O 0.35479 0.59396 0.15043 0.0
O353 O 0.40246 0.62473 0.09705 0.0
Zn354 Zn 0.38348 0.62682 0.12504 0.0
O355 O 0.35143 0.62326 0.11459 0.0
C356 C 0.3931 0.67439 0.12626 0.0
O357 O 0.40439 0.66885 0.10803 0.0
O358 O 0.39148 0.60002 0.1449 0.0
C359 C 0.34408 0.63622 0.09927 0.0
O360 O 0.35781 0.65116 0.09035 0.0
C361 C 0.39776 0.60926 0.0829 0.0
O362 O 0.3819 0.59454 0.08784 0.0
O363 O 0.3846 0.65873 0.13828 0.0
C364 C 0.92575 0.08744 0.37736 0.0
O365 O 0.92042 0.07777 0.39653 0.0
O366 O 0.88998 0.10281 0.41962 0.0
Zn367 Zn 0.88546 0.11316 0.38763 0.0
O368 O 0.8892 0.14674 0.38709 0.0
C369 C 0.83924 0.09896 0.39383 0.0
O370 O 0.84861 0.0897 0.41157 0.0
O371 O 0.91167 0.101 0.36846 0.0
C372 C 0.87871 0.1599 0.40036 0.0
O373 O 0.86498 0.15141 0.41553 0.0
C374 C 0.9014 0.11274 0.43486 0.0
O375 O 0.91206 0.13162 0.43021 0.0
O376 O 0.85202 0.10762 0.37882 0.0
C377 C 0.38107 0.32804 0.88267 0.0
O378 O 0.372 0.33551 0.90146 0.0
O379 O 0.34291 0.37268 0.87122 0.0
Zn380 Zn 0.37656 0.37435 0.87503 0.0
O381 O 0.38338 0.38086 0.9076 0.0
C382 C 0.37742 0.41601 0.84964 0.0
O383 O 0.35552 0.41246 0.84958 0.0
O384 O 0.38651 0.34223 0.86746 0.0
C385 C 0.40273 0.37726 0.91608 0.0
O386 O 0.41874 0.36883 0.9033 0.0
C387 C 0.32842 0.38148 0.88429 0.0
O388 O 0.33519 0.3943 0.90114 0.0
O389 O 0.39029 0.40082 0.8576 0.0
C390 C 0.09187 0.91917 0.36594 0.0
O391 O 0.09716 0.92612 0.38636 0.0
O392 O 0.12434 0.89335 0.40515 0.0
Zn393 Zn 0.13277 0.89314 0.37226 0.0
O394 O 0.1353 0.86126 0.36145 0.0
C395 C 0.17606 0.91101 0.38702 0.0
O396 O 0.16444 0.91491 0.40546 0.0
O397 O 0.1061 0.90718 0.35514 0.0
C398 C 0.14743 0.84745 0.37234 0.0
O399 O 0.15717 0.85387 0.39126 0.0
C400 C 0.11466 0.87762 0.41594 0.0
O401 O 0.10923 0.85871 0.40564 0.0
O402 O 0.16548 0.90473 0.36927 0.0
C403 C 0.62765 0.66328 0.87413 0.0
O404 O 0.6438 0.6577 0.88824 0.0
O405 O 0.66074 0.61542 0.86701 0.0
Zn406 Zn 0.62751 0.61628 0.87323 0.0
O407 O 0.62417 0.61507 0.90679 0.0
C408 C 0.6224 0.57473 0.84693 0.0
O409 O 0.64237 0.58065 0.83932 0.0
O410 O 0.61671 0.64754 0.86409 0.0
C411 C 0.60804 0.60517 0.91683 0.0
O412 O 0.59253 0.59456 0.90492 0.0
C413 C 0.67386 0.602 0.87723 0.0
O414 O 0.66536 0.58738 0.89151 0.0
O415 O 0.61189 0.58828 0.8599 0.0
C416 C 0.61932 0.82945 0.86772 0.0
O417 O 0.607 0.8413 0.8537 0.0
O418 O 0.63606 0.87802 0.8421 0.0
Zn419 Zn 0.62863 0.87398 0.87501 0.0
O420 O 0.59544 0.87921 0.8788 0.0
C421 C 0.65725 0.91258 0.88375 0.0
O422 O 0.66403 0.90772 0.86322 0.0
O423 O 0.6326 0.84009 0.88112 0.0
C424 C 0.586 0.8978 0.88356 0.0
O425 O 0.59837 0.91603 0.88641 0.0
C426 C 0.62597 0.89157 0.82901 0.0
O427 O 0.61001 0.90459 0.83706 0.0
O428 O 0.6445 0.89853 0.8939 0.0
C429 C 0.59253 0.16177 0.38582 0.0
O430 O 0.60122 0.17173 0.36808 0.0
O431 O 0.62155 0.09614 0.38051 0.0
Zn432 Zn 0.62798 0.12903 0.37701 0.0
O433 O 0.62317 0.13437 0.34396 0.0
C434 C 0.67629 0.12644 0.37354 0.0
O435 O 0.67041 0.11731 0.35416 0.0
O436 O 0.60275 0.14492 0.39421 0.0
C437 C 0.63333 0.1473 0.33028 0.0
O438 O 0.64998 0.16019 0.33745 0.0
C439 C 0.60188 0.08907 0.3755 0.0
O440 O 0.58655 0.10362 0.36901 0.0
O441 O 0.66088 0.13395 0.38659 0.0
C442 C 0.37296 0.16297 0.89338 0.0
O443 O 0.38606 0.15719 0.91028 0.0
O444 O 0.3808 0.10621 0.84766 0.0
Zn445 Zn 0.38085 0.11686 0.8798 0.0
O446 O 0.41319 0.12301 0.88853 0.0
C447 C 0.37736 0.07265 0.89456 0.0
O448 O 0.39545 0.07285 0.88177 0.0
O449 O 0.36597 0.14772 0.87982 0.0
C450 C 0.42616 0.11408 0.903 0.0
O451 O 0.41911 0.09712 0.91531 0.0
C452 C 0.38652 0.11893 0.83146 0.0
O453 O 0.39294 0.13973 0.83579 0.0
O454 O 0.36669 0.09102 0.89765 0.0
C455 C 0.42787 0.87718 0.4114 0.0
O456 O 0.42229 0.89721 0.41899 0.0
O457 O 0.39044 0.91561 0.39007 0.0
Zn458 Zn 0.38659 0.88253 0.38472 0.0
O459 O 0.38923 0.87662 0.35142 0.0
C460 C 0.33798 0.87235 0.3817 0.0
O461 O 0.3429 0.86705 0.36076 0.0
O462 O 0.41382 0.86643 0.39898 0.0
C463 C 0.38154 0.88957 0.33626 0.0
O464 O 0.37046 0.90779 0.34219 0.0
C465 C 0.40471 0.92838 0.38049 0.0
O466 O 0.41863 0.91993 0.36546 0.0
O467 O 0.35408 0.87647 0.39554 0.0
C468 C 0.63906 0.0919 0.12037 0.0
O469 O 0.64096 0.0983 0.14152 0.0
O470 O 0.57969 0.1277 0.10684 0.0
Zn471 Zn 0.61108 0.13189 0.11858 0.0
O472 O 0.60939 0.13041 0.15256 0.0
C473 C 0.60878 0.17876 0.12166 0.0
O474 O 0.59522 0.17173 0.13768 0.0
O475 O 0.62919 0.10496 0.1065 0.0
C476 C 0.62403 0.13983 0.16523 0.0
O477 O 0.64134 0.15023 0.15605 0.0
C478 C 0.56767 0.11069 0.11186 0.0
O479 O 0.57605 0.09515 0.12515 0.0
O480 O 0.61932 0.16422 0.10976 0.0
C481 C 0.32487 0.12206 0.62606 0.0
O482 O 0.32919 0.1014 0.63258 0.0
O483 O 0.37572 0.11422 0.65832 0.0
Zn484 Zn 0.37219 0.12005 0.62495 0.0
O485 O 0.37138 0.09048 0.60842 0.0
C486 C 0.41423 0.14527 0.62835 0.0
O487 O 0.40823 0.14633 0.64965 0.0
O488 O 0.34142 0.13487 0.62079 0.0
C489 C 0.38766 0.07676 0.61021 0.0
O490 O 0.4052 0.08232 0.62268 0.0
C491 C 0.37185 0.09564 0.66821 0.0
O492 O 0.36493 0.07812 0.65642 0.0
O493 O 0.40042 0.13682 0.61407 0.0
C494 C 0.33309 0.92216 0.1343 0.0
O495 O 0.33446 0.91663 0.15569 0.0
O496 O 0.39148 0.8879 0.11516 0.0
Zn497 Zn 0.36132 0.88284 0.12964 0.0
O498 O 0.36677 0.88489 0.163 0.0
C499 C 0.36403 0.83683 0.11375 0.0
O500 O 0.38127 0.84523 0.10266 0.0
O501 O 0.34119 0.90875 0.11957 0.0
C502 C 0.38088 0.87138 0.17165 0.0
O503 O 0.39143 0.85701 0.15848 0.0
C504 C 0.40399 0.90402 0.12193 0.0
O505 O 0.39652 0.91762 0.13778 0.0
O506 O 0.35107 0.85026 0.12441 0.0
C507 C 0.67113 0.86548 0.61418 0.0
O508 O 0.66732 0.88664 0.61951 0.0
O509 O 0.62873 0.87366 0.65184 0.0
Zn510 Zn 0.62482 0.86852 0.61843 0.0
O511 O 0.62475 0.89855 0.60283 0.0
C512 C 0.58009 0.85085 0.62737 0.0
O513 O 0.58634 0.8561 0.648 0.0
O514 O 0.6542 0.85249 0.61069 0.0
C515 C 0.60741 0.91105 0.60252 0.0
O516 O 0.58865 0.90398 0.612 0.0
C517 C 0.62237 0.88997 0.66421 0.0
O518 O 0.61044 0.90638 0.65551 0.0
O519 O 0.59451 0.85272 0.61151 0.0
C520 C 0.88047 0.61005 0.82586 0.0
O521 O 0.8686 0.59363 0.83482 0.0
O522 O 0.85342 0.61212 0.87402 0.0
Zn523 Zn 0.88738 0.61147 0.87127 0.0
O524 O 0.89888 0.57981 0.87203 0.0
C525 C 0.88802 0.63829 0.91215 0.0
O526 O 0.86721 0.64218 0.90564 0.0
O527 O 0.89284 0.62221 0.83883 0.0
C528 C 0.89952 0.5677 0.88961 0.0
O529 O 0.89172 0.57566 0.90878 0.0
C530 C 0.83948 0.59711 0.88035 0.0
O531 O 0.84686 0.5776 0.88759 0.0
O532 O 0.90114 0.62784 0.8987 0.0
C533 C 0.87447 0.36448 0.17902 0.0
O534 O 0.87492 0.38595 0.17379 0.0
O535 O 0.83605 0.35944 0.12656 0.0
Zn536 Zn 0.86956 0.36144 0.13084 0.0
O537 O 0.88018 0.39362 0.12907 0.0
C538 C 0.87224 0.33432 0.08986 0.0
O539 O 0.85103 0.33026 0.09489 0.0
O540 O 0.87433 0.34987 0.1631 0.0
C541 C 0.87044 0.40889 0.11776 0.0
O542 O 0.85209 0.40395 0.10623 0.0
C543 C 0.82149 0.37111 0.13701 0.0
O544 O 0.82815 0.38723 0.15079 0.0
O545 O 0.88443 0.34512 0.10406 0.0
C546 C 0.1297 0.37891 0.59452 0.0
O547 O 0.12177 0.35895 0.59985 0.0
O548 O 0.08179 0.39926 0.63671 0.0
Zn549 Zn 0.11323 0.38701 0.63936 0.0
O550 O 0.10966 0.35339 0.64252 0.0
C551 C 0.11516 0.40618 0.68439 0.0
O552 O 0.09578 0.41484 0.67816 0.0
O553 O 0.12969 0.39438 0.60958 0.0
C554 C 0.10347 0.34455 0.66101 0.0
O555 O 0.09931 0.35749 0.67852 0.0
C556 C 0.06751 0.38821 0.62501 0.0
O557 O 0.07399 0.36979 0.61454 0.0
O558 O 0.12736 0.39653 0.66951 0.0
C559 C 0.12833 0.65755 0.05177 0.0
O560 O 0.15007 0.66059 0.05496 0.0
O561 O 0.12243 0.60357 0.09801 0.0
Zn562 Zn 0.13252 0.63567 0.09552 0.0
O563 O 0.16609 0.63685 0.09009 0.0
C564 C 0.13646 0.63849 0.14274 0.0
O565 O 0.14967 0.62164 0.13729 0.0
O566 O 0.1166 0.64905 0.0677 0.0
C567 C 0.18003 0.6209 0.09288 0.0
O568 O 0.17294 0.60133 0.10039 0.0
C569 C 0.12426 0.58856 0.08281 0.0
O570 O 0.13351 0.59376 0.06337 0.0
O571 O 0.12633 0.64902 0.12692 0.0
C572 C 0.89636 0.61057 0.66099 0.0
O573 O 0.91746 0.61536 0.65619 0.0
O574 O 0.90304 0.64314 0.61015 0.0
Zn575 Zn 0.89715 0.60994 0.61365 0.0
O576 O 0.92662 0.59346 0.61379 0.0
C577 C 0.86283 0.61213 0.57876 0.0
O578 O 0.85529 0.62856 0.59158 0.0
O579 O 0.88275 0.60631 0.64476 0.0
C580 C 0.93996 0.59459 0.5971 0.0
O581 O 0.93387 0.60606 0.57919 0.0
C582 C 0.92132 0.65332 0.61517 0.0
O583 O 0.93862 0.64179 0.62268 0.0
O584 O 0.87932 0.60039 0.58577 0.0
C585 C 0.08785 0.37444 0.92877 0.0
O586 O 0.07589 0.38894 0.91715 0.0
O587 O 0.11487 0.41556 0.89353 0.0
Zn588 Zn 0.12102 0.38236 0.89326 0.0
O589 O 0.15465 0.37877 0.89592 0.0
C590 C 0.10126 0.38267 0.84802 0.0
O591 O 0.08903 0.39919 0.85621 0.0
O592 O 0.10665 0.36783 0.92084 0.0
C593 C 0.16377 0.36178 0.88661 0.0
O594 O 0.15083 0.34646 0.87699 0.0
C595 C 0.1261 0.42704 0.87937 0.0
O596 O 0.14115 0.41678 0.86675 0.0
O597 O 0.11319 0.37103 0.86153 0.0
C598 C 0.17099 0.63748 0.39336 0.0
O599 O 0.17416 0.65902 0.38948 0.0
O600 O 0.11052 0.63752 0.36163 0.0
Zn601 Zn 0.14302 0.64248 0.35372 0.0
O602 O 0.14877 0.6759 0.35632 0.0
C603 C 0.13033 0.64664 0.30933 0.0
O604 O 0.11706 0.65954 0.3215 0.0
O605 O 0.16067 0.62566 0.37847 0.0
C606 C 0.16118 0.68614 0.34217 0.0
O607 O 0.17115 0.6747 0.32602 0.0
C608 C 0.10259 0.63948 0.38143 0.0
O609 O 0.11617 0.64486 0.39819 0.0
O610 O 0.14514 0.63491 0.31967 0.0
C611 C 0.84366 0.35663 0.34224 0.0
O612 O 0.83914 0.3386 0.35422 0.0
O613 O 0.8709 0.33703 0.38765 0.0
Zn614 Zn 0.86483 0.37015 0.38406 0.0
O615 O 0.89562 0.38398 0.38243 0.0
C616 C 0.83522 0.3724 0.42435 0.0
O617 O 0.82771 0.35265 0.41748 0.0
O618 O 0.8517 0.37395 0.3523 0.0
C619 C 0.9034 0.40038 0.39395 0.0
O620 O 0.89048 0.41041 0.40889 0.0
C621 C 0.87343 0.32486 0.40503 0.0
O622 O 0.87168 0.33374 0.42529 0.0
O623 O 0.84889 0.38325 0.41182 0.0
H624 H 0.1426 0.29956 0.36733 0.0
H625 H 0.07471 0.31892 0.38671 0.0
H626 H 0.06293 0.27897 0.38578 0.0
H627 H 0.12654 0.25377 0.32946 0.0
H628 H 0.14981 0.23623 0.33788 0.0
H629 H 0.15263 0.26647 0.33891 0.0
H630 H 0.16361 0.26441 0.38123 0.0
H631 H 0.16093 0.2342 0.38029 0.0
H632 H 0.14505 0.25021 0.40067 0.0
H633 H 0.05894 0.23682 0.38426 0.0
H634 H 0.06344 0.19546 0.3835 0.0
H635 H 0.13391 0.20389 0.36509 0.0
C636 C 0.12522 0.29544 0.37122 0.0
C637 C 0.10958 0.31236 0.37706 0.0
C638 C 0.08701 0.30623 0.3822 0.0
C639 C 0.08012 0.2836 0.38164 0.0
C640 C 0.09599 0.26733 0.37587 0.0
C641 C 0.11807 0.27296 0.37079 0.0
C642 C 0.13203 0.25219 0.36604 0.0
C643 C 0.14076 0.25217 0.34162 0.0
C644 C 0.15155 0.25014 0.38308 0.0
C645 C 0.11442 0.234 0.36954 0.0
C646 C 0.0937 0.24306 0.37503 0.0
C647 C 0.07505 0.22951 0.37982 0.0
C648 C 0.07777 0.20605 0.37933 0.0
C649 C 0.09899 0.19643 0.37417 0.0
C650 C 0.1174 0.21068 0.3689 0.0
H651 H 0.31849 0.63305 0.86422 0.0
H652 H 0.31166 0.57562 0.90893 0.0
H653 H 0.27013 0.57777 0.90533 0.0
H654 H 0.27081 0.66375 0.88492 0.0
H655 H 0.26291 0.67415 0.8575 0.0
H656 H 0.29203 0.66798 0.86356 0.0
H657 H 0.29343 0.641 0.82908 0.0
H658 H 0.26432 0.64709 0.82287 0.0
H659 H 0.27314 0.61834 0.82683 0.0
H660 H 0.22949 0.58617 0.89667 0.0
H661 H 0.19256 0.60009 0.88369 0.0
H662 H 0.22627 0.65217 0.84479 0.0
C663 C 0.30831 0.62088 0.87327 0.0
C664 C 0.31831 0.60414 0.88686 0.0
C665 C 0.30436 0.58858 0.89843 0.0
C666 C 0.28078 0.58968 0.89649 0.0
C667 C 0.27151 0.60642 0.88296 0.0
C668 C 0.28484 0.62174 0.87157 0.0
C669 C 0.27074 0.63811 0.85811 0.0
C670 C 0.27434 0.66243 0.86654 0.0
C671 C 0.2757 0.636 0.83272 0.0
C672 C 0.24732 0.62959 0.86369 0.0
C673 C 0.24813 0.61131 0.87804 0.0
C674 C 0.22863 0.60048 0.88546 0.0
C675 C 0.20774 0.60854 0.87797 0.0
C676 C 0.20652 0.62725 0.86323 0.0
C677 C 0.22662 0.63787 0.85607 0.0
H678 H 0.92138 0.80869 0.39938 0.0
H679 H 0.8678 0.81991 0.35065 0.0
H680 H 0.86037 0.77898 0.34902 0.0
H681 H 0.94207 0.75688 0.37495 0.0
H682 H 0.94792 0.74424 0.40193 0.0
H683 H 0.94925 0.7744 0.39887 0.0
H684 H 0.92051 0.77894 0.4315 0.0
H685 H 0.91895 0.74878 0.43453 0.0
H686 H 0.89358 0.76473 0.42975 0.0
H687 H 0.85839 0.73697 0.35308 0.0
H688 H 0.86284 0.69657 0.36159 0.0
H689 H 0.91752 0.71286 0.40791 0.0
C690 C 0.9082 0.80256 0.38823 0.0
C691 C 0.8952 0.81751 0.37511 0.0
C692 C 0.87801 0.80878 0.36083 0.0
C693 C 0.87362 0.78556 0.35982 0.0
C694 C 0.88656 0.77133 0.37319 0.0
C695 C 0.90356 0.77945 0.38704 0.0
C696 C 0.9149 0.76056 0.39979 0.0
C697 C 0.94002 0.75893 0.3935 0.0
C698 C 0.91179 0.76343 0.42541 0.0
C699 C 0.90164 0.74053 0.3909 0.0
C700 C 0.88535 0.74711 0.37561 0.0
C701 C 0.87109 0.7316 0.36503 0.0
C702 C 0.87373 0.7087 0.37001 0.0
C703 C 0.89051 0.70154 0.38544 0.0
C704 C 0.90448 0.71777 0.39611 0.0
H705 H 0.8072 0.36639 0.90235 0.0
H706 H 0.81488 0.41095 0.84491 0.0
H707 H 0.77348 0.41476 0.84253 0.0
H708 H 0.75883 0.33722 0.88247 0.0
H709 H 0.7457 0.33502 0.90979 0.0
H710 H 0.77597 0.33663 0.90763 0.0
H711 H 0.77641 0.37128 0.93442 0.0
H712 H 0.74611 0.36977 0.9367 0.0
H713 H 0.75951 0.39552 0.92763 0.0
H714 H 0.73137 0.41193 0.84498 0.0
H715 H 0.6913 0.40365 0.85293 0.0
H716 H 0.71121 0.36176 0.90938 0.0
C717 C 0.8002 0.37708 0.88937 0.0
C718 C 0.81424 0.38837 0.8738 0.0
C719 C 0.80443 0.4022 0.85705 0.0
C720 C 0.78095 0.40446 0.85555 0.0
C721 C 0.76759 0.39295 0.87104 0.0
C722 C 0.77684 0.37965 0.88772 0.0
C723 C 0.75872 0.36873 0.902 0.0
C724 C 0.75988 0.34287 0.90036 0.0
C725 C 0.76028 0.37682 0.92664 0.0
C726 C 0.73781 0.37771 0.89053 0.0
C727 C 0.74329 0.39164 0.87272 0.0
C728 C 0.72685 0.40121 0.85901 0.0
C729 C 0.70416 0.39636 0.86362 0.0
C730 C 0.69818 0.38215 0.88183 0.0
C731 C 0.71526 0.37288 0.89551 0.0
H732 H 0.12108 0.7001 0.64101 0.0
H733 H 0.1034 0.68534 0.57145 0.0
H734 H 0.0918 0.725 0.56613 0.0
H735 H 0.07736 0.74128 0.65283 0.0
H736 H 0.09586 0.75926 0.66915 0.0
H737 H 0.10075 0.72933 0.66808 0.0
H738 H 0.14159 0.73646 0.65408 0.0
H739 H 0.13686 0.76638 0.65519 0.0
H740 H 0.14611 0.75337 0.62929 0.0
H741 H 0.08214 0.76607 0.56854 0.0
H742 H 0.0796 0.80684 0.57685 0.0
H743 H 0.1068 0.79534 0.64383 0.0
C744 C 0.11448 0.70522 0.62477 0.0
C745 C 0.11279 0.68979 0.60669 0.0
C746 C 0.10469 0.69705 0.58548 0.0
C747 C 0.09797 0.71943 0.58237 0.0
C748 C 0.09987 0.73432 0.60054 0.0
C749 C 0.10827 0.72761 0.62122 0.0
C750 C 0.11046 0.74733 0.63738 0.0
C751 C 0.09519 0.7441 0.65808 0.0
C752 C 0.13522 0.75111 0.64438 0.0
C753 C 0.10204 0.76619 0.62253 0.0
C754 C 0.09559 0.75825 0.6015 0.0
C755 C 0.08716 0.77251 0.58492 0.0
C756 C 0.08568 0.79557 0.58983 0.0
C757 C 0.09302 0.80411 0.61096 0.0
C758 C 0.10111 0.78919 0.62753 0.0
H759 H 0.70297 0.60846 0.16641 0.0
H760 H 0.69124 0.6578 0.11384 0.0
H761 H 0.73227 0.66075 0.10738 0.0
H762 H 0.7556 0.63301 0.1883 0.0
H763 H 0.76829 0.6059 0.19308 0.0
H764 H 0.7381 0.60898 0.19488 0.0
H765 H 0.73285 0.57721 0.16514 0.0
H766 H 0.76299 0.57408 0.16319 0.0
H767 H 0.74665 0.57961 0.13815 0.0
H768 H 0.77411 0.65715 0.10535 0.0
H769 H 0.81427 0.64666 0.1073 0.0
H770 H 0.79891 0.59901 0.16062 0.0
C771 C 0.70907 0.62015 0.1538 0.0
C772 C 0.69396 0.63299 0.1407 0.0
C773 C 0.70254 0.6478 0.12407 0.0
C774 C 0.72581 0.64965 0.12032 0.0
C775 C 0.74024 0.63654 0.1333 0.0
C776 C 0.73225 0.62206 0.14969 0.0
C777 C 0.75133 0.60895 0.16038 0.0
C778 C 0.75345 0.61455 0.18566 0.0
C779 C 0.74827 0.58346 0.15647 0.0
C780 C 0.77121 0.61812 0.14722 0.0
C781 C 0.76445 0.63416 0.13184 0.0
C782 C 0.77966 0.64471 0.11741 0.0
C783 C 0.80244 0.63861 0.11865 0.0
C784 C 0.80974 0.62201 0.13411 0.0
C785 C 0.79388 0.61177 0.14865 0.0
H786 H 0.88515 0.18879 0.65053 0.0
H787 H 0.82611 0.18025 0.60769 0.0
H788 H 0.82174 0.22146 0.60591 0.0
H789 H 0.86465 0.23761 0.68193 0.0
H790 H 0.892 0.25103 0.68299 0.0
H791 H 0.88988 0.22074 0.68193 0.0
H792 H 0.91539 0.22013 0.64645 0.0
H793 H 0.91752 0.2504 0.64735 0.0
H794 H 0.90751 0.23647 0.62213 0.0
H795 H 0.82442 0.26318 0.60747 0.0
H796 H 0.83392 0.30333 0.61236 0.0
H797 H 0.89146 0.28519 0.65396 0.0
C798 C 0.87117 0.1956 0.64098 0.0
C799 C 0.85595 0.18134 0.62926 0.0
C800 C 0.838 0.19087 0.61676 0.0
C801 C 0.83533 0.21425 0.61568 0.0
C802 C 0.85076 0.22784 0.62718 0.0
C803 C 0.8683 0.21894 0.63963 0.0
C804 C 0.88293 0.23741 0.64977 0.0
C805 C 0.88232 0.23665 0.6757 0.0
C806 C 0.90728 0.23601 0.64089 0.0
C807 C 0.87097 0.25804 0.64086 0.0
C808 C 0.8524 0.25209 0.62797 0.0
C809 C 0.83885 0.2681 0.61761 0.0
C810 C 0.84443 0.29087 0.62047 0.0
C811 C 0.86344 0.29741 0.63355 0.0
C812 C 0.87681 0.28072 0.64391 0.0
H813 H 0.28843 0.37182 0.14969 0.0
H814 H 0.31137 0.38435 0.08133 0.0
H815 H 0.27179 0.38459 0.06812 0.0
H816 H 0.24176 0.33539 0.13558 0.0
H817 H 0.22362 0.34665 0.15721 0.0
H818 H 0.25378 0.34689 0.16114 0.0
H819 H 0.25295 0.39007 0.16797 0.0
H820 H 0.22279 0.38996 0.16413 0.0
H821 H 0.24028 0.40806 0.14709 0.0
H822 H 0.22968 0.38288 0.06235 0.0
H823 H 0.18803 0.38187 0.06489 0.0
H824 H 0.19293 0.37192 0.13728 0.0
C825 C 0.28514 0.37453 0.13192 0.0
C826 C 0.30293 0.37796 0.11651 0.0
C827 C 0.29795 0.38171 0.09343 0.0
C828 C 0.27555 0.3818 0.08576 0.0
C829 C 0.25839 0.3783 0.10141 0.0
C830 C 0.26291 0.37493 0.12403 0.0
C831 C 0.24141 0.37232 0.13751 0.0
C832 C 0.24007 0.34892 0.1485 0.0
C833 C 0.23924 0.39123 0.15521 0.0
C834 C 0.22407 0.37473 0.11893 0.0
C835 C 0.23418 0.37797 0.0982 0.0
C836 C 0.22156 0.38042 0.07851 0.0
C837 C 0.19794 0.37977 0.08011 0.0
C838 C 0.18728 0.37691 0.10128 0.0
C839 C 0.20059 0.37426 0.12087 0.0
H840 H 0.34501 0.13979 0.2151 0.0
H841 H 0.4096 0.12286 0.18513 0.0
H842 H 0.42756 0.12484 0.22274 0.0
H843 H 0.36574 0.17887 0.25645 0.0
H844 H 0.34629 0.16995 0.27803 0.0
H845 H 0.33855 0.16739 0.24873 0.0
H846 H 0.33077 0.1247 0.25405 0.0
H847 H 0.33834 0.12717 0.2834 0.0
H848 H 0.35258 0.10706 0.2656 0.0
H849 H 0.43866 0.12994 0.26354 0.0
H850 H 0.44137 0.13456 0.30497 0.0
H851 H 0.36921 0.14657 0.30806 0.0
C852 C 0.36292 0.13648 0.21645 0.0
C853 C 0.37593 0.13126 0.19723 0.0
C854 C 0.3993 0.12685 0.19968 0.0
C855 C 0.40967 0.12803 0.22094 0.0
C856 C 0.39639 0.13342 0.23954 0.0
C857 C 0.37348 0.13732 0.23754 0.0
C858 C 0.36289 0.14219 0.26022 0.0
C859 C 0.35278 0.16602 0.26089 0.0
C860 C 0.3451 0.1242 0.26616 0.0
C861 C 0.38343 0.14052 0.27529 0.0
C862 C 0.40264 0.13566 0.26305 0.0
C863 C 0.42371 0.13364 0.27333 0.0
C864 C 0.42511 0.13638 0.29682 0.0
C865 C 0.4055 0.14082 0.30969 0.0
C866 C 0.38447 0.14304 0.29868 0.0
H867 H 0.39303 0.83623 0.70471 0.0
H868 H 0.34621 0.89049 0.69063 0.0
H869 H 0.33995 0.89575 0.73144 0.0
H870 H 0.36338 0.81328 0.75332 0.0
H871 H 0.38903 0.80721 0.76848 0.0
H872 H 0.38886 0.80677 0.73808 0.0
H873 H 0.42171 0.8358 0.73756 0.0
H874 H 0.42199 0.83631 0.76793 0.0
H875 H 0.41866 0.86217 0.75246 0.0
H876 H 0.33949 0.89587 0.7736 0.0
H877 H 0.3461 0.89184 0.81451 0.0
H878 H 0.3938 0.83807 0.80113 0.0
C879 C 0.38129 0.84906 0.71021 0.0
C880 C 0.37005 0.8629 0.69452 0.0
C881 C 0.35504 0.87971 0.70238 0.0
C882 C 0.35129 0.88278 0.7255 0.0
C883 C 0.36274 0.86895 0.74054 0.0
C884 C 0.37749 0.85248 0.73325 0.0
C885 C 0.38844 0.84062 0.75297 0.0
C886 C 0.38204 0.81548 0.75322 0.0
C887 C 0.41423 0.84394 0.75271 0.0
C888 C 0.3777 0.85317 0.77244 0.0
C889 C 0.36277 0.86929 0.76491 0.0
C890 C 0.35109 0.88326 0.77974 0.0
C891 C 0.35494 0.88083 0.80293 0.0
C892 C 0.37048 0.86467 0.81101 0.0
C893 C 0.38181 0.85057 0.7955 0.0
H894 H 0.65063 0.87792 0.20473 0.0
H895 H 0.57997 0.87207 0.18593 0.0
H896 H 0.5699 0.86564 0.22575 0.0
H897 H 0.65029 0.83615 0.24945 0.0
H898 H 0.6689 0.85224 0.26753 0.0
H899 H 0.67089 0.85498 0.23732 0.0
H900 H 0.6653 0.89815 0.24088 0.0
H901 H 0.66343 0.89554 0.27107 0.0
H902 H 0.64094 0.90881 0.25559 0.0
H903 H 0.56734 0.86013 0.26734 0.0
H904 H 0.57196 0.85955 0.30869 0.0
H905 H 0.64405 0.87069 0.3009 0.0
C906 C 0.63308 0.87512 0.20901 0.0
C907 C 0.61609 0.87537 0.19227 0.0
C908 C 0.59325 0.87199 0.19852 0.0
C909 C 0.58737 0.86818 0.22105 0.0
C910 C 0.6045 0.868 0.23716 0.0
C911 C 0.62685 0.87163 0.23151 0.0
C912 C 0.64176 0.87198 0.25231 0.0
C913 C 0.65898 0.85268 0.2516 0.0
C914 C 0.65355 0.89499 0.25512 0.0
C915 C 0.62424 0.86817 0.2705 0.0
C916 C 0.60292 0.86558 0.26134 0.0
C917 C 0.58395 0.86212 0.27475 0.0
C918 C 0.58676 0.86175 0.29822 0.0
C919 C 0.60835 0.86511 0.30802 0.0
C920 C 0.62734 0.86805 0.2939 0.0
H921 H 0.60037 0.13605 0.79678 0.0
H922 H 0.64408 0.08252 0.82044 0.0
H923 H 0.64928 0.06945 0.78126 0.0
H924 H 0.57347 0.10411 0.75145 0.0
H925 H 0.57275 0.12783 0.73256 0.0
H926 H 0.57152 0.13235 0.76262 0.0
H927 H 0.60624 0.159 0.7603 0.0
H928 H 0.60757 0.15456 0.73027 0.0
H929 H 0.63194 0.14895 0.74758 0.0
H930 H 0.65082 0.06292 0.73958 0.0
H931 H 0.64903 0.0638 0.69798 0.0
H932 H 0.60458 0.12171 0.70147 0.0
C933 C 0.61086 0.12145 0.79374 0.0
C934 C 0.62178 0.11029 0.81166 0.0
C935 C 0.63556 0.09138 0.80697 0.0
C936 C 0.63858 0.08377 0.78478 0.0
C937 C 0.62771 0.09525 0.76749 0.0
C938 C 0.61414 0.11368 0.77168 0.0
C939 C 0.60507 0.12349 0.74997 0.0
C940 C 0.57916 0.12183 0.74911 0.0
C941 C 0.6132 0.14794 0.74685 0.0
C942 C 0.61585 0.10781 0.73294 0.0
C943 C 0.62873 0.09156 0.7434 0.0
C944 C 0.64069 0.07549 0.73117 0.0
C945 C 0.63958 0.07613 0.70755 0.0
C946 C 0.62665 0.09279 0.69648 0.0
C947 C 0.61454 0.10871 0.70942 0.0
H948 H 0.87132 0.77527 0.59299 0.0
H949 H 0.92416 0.80177 0.63661 0.0
H950 H 0.94089 0.7638 0.63916 0.0
H951 H 0.86345 0.72455 0.62286 0.0
H952 H 0.85792 0.70761 0.59811 0.0
H953 H 0.85144 0.7372 0.59801 0.0
H954 H 0.87637 0.74254 0.56249 0.0
H955 H 0.883 0.71293 0.56255 0.0
H956 H 0.90541 0.73359 0.56308 0.0
H957 H 0.95114 0.72276 0.63788 0.0
H958 H 0.95232 0.68119 0.63548 0.0
H959 H 0.89181 0.68152 0.59403 0.0
C960 C 0.88658 0.77313 0.60282 0.0
C961 C 0.89656 0.79142 0.61448 0.0
C962 C 0.91626 0.78792 0.62755 0.0
C963 C 0.92596 0.76647 0.62899 0.0
C964 C 0.91563 0.74874 0.61738 0.0
C965 C 0.89628 0.7518 0.60469 0.0
C966 C 0.88755 0.72969 0.59524 0.0
C967 C 0.86368 0.72446 0.60409 0.0
C968 C 0.88813 0.7297 0.5693 0.0
C969 C 0.90482 0.71368 0.60485 0.0
C970 C 0.9211 0.72501 0.61726 0.0
C971 C 0.93854 0.7137 0.62814 0.0
C972 C 0.9391 0.69011 0.62664 0.0
C973 C 0.92213 0.67816 0.61462 0.0
C974 C 0.90501 0.6902 0.60335 0.0
H975 H 0.78475 0.39654 0.14911 0.0
H976 H 0.80384 0.33184 0.12057 0.0
H977 H 0.7638 0.32056 0.11879 0.0
H978 H 0.73852 0.37664 0.18304 0.0
H979 H 0.72086 0.40064 0.17748 0.0
H980 H 0.75114 0.40366 0.17705 0.0
H981 H 0.74918 0.41953 0.13642 0.0
H982 H 0.7189 0.41671 0.13679 0.0
H983 H 0.735 0.40344 0.11469 0.0
H984 H 0.72208 0.31577 0.12096 0.0
H985 H 0.68068 0.31922 0.12341 0.0
H986 H 0.68833 0.38759 0.1489 0.0
C987 C 0.78048 0.38001 0.1425 0.0
C988 C 0.79739 0.36504 0.13507 0.0
C989 C 0.79115 0.34362 0.12631 0.0
C990 C 0.76847 0.33699 0.12533 0.0
C991 C 0.75223 0.35205 0.13297 0.0
C992 C 0.75786 0.37321 0.14111 0.0
C993 C 0.73698 0.38643 0.14742 0.0
C994 C 0.73688 0.39217 0.17276 0.0
C995 C 0.73489 0.40779 0.13296 0.0
C996 C 0.71878 0.36935 0.14157 0.0
C997 C 0.72799 0.34955 0.13352 0.0
C998 C 0.71462 0.33122 0.12716 0.0
C999 C 0.69114 0.33331 0.1287 0.0
C1000 C 0.68131 0.35368 0.13628 0.0
C1001 C 0.69537 0.37183 0.14298 0.0
H1002 H 0.09361 0.21905 0.61456 0.0
H1003 H 0.10341 0.19605 0.68325 0.0
H1004 H 0.1033 0.23563 0.69668 0.0
H1005 H 0.13087 0.26542 0.6187 0.0
H1006 H 0.11434 0.28356 0.60088 0.0
H1007 H 0.11297 0.25348 0.59706 0.0
H1008 H 0.06951 0.25445 0.60211 0.0
H1009 H 0.07074 0.28458 0.60587 0.0
H1010 H 0.05771 0.26719 0.62709 0.0
H1011 H 0.10279 0.27779 0.70231 0.0
H1012 H 0.10465 0.31934 0.69947 0.0
H1013 H 0.09761 0.31424 0.62671 0.0
C1014 C 0.09535 0.22232 0.63248 0.0
C1015 C 0.09826 0.20458 0.64795 0.0
C1016 C 0.10107 0.20949 0.67118 0.0
C1017 C 0.10095 0.23186 0.67894 0.0
C1018 C 0.09826 0.24901 0.66318 0.0
C1019 C 0.09568 0.24449 0.64042 0.0
C1020 C 0.09473 0.26592 0.62675 0.0
C1021 C 0.1144 0.26716 0.60986 0.0
C1022 C 0.07181 0.26816 0.61475 0.0
C1023 C 0.09735 0.28324 0.64535 0.0
C1024 C 0.09901 0.27319 0.66629 0.0
C1025 C 0.10151 0.28584 0.68601 0.0
C1026 C 0.10251 0.30939 0.68424 0.0
C1027 C 0.10139 0.3199 0.66287 0.0
C1028 C 0.09868 0.30662 0.64325 0.0
H1029 H 0.2159 0.5969 0.10905 0.0
H1030 H 0.19869 0.65422 0.06727 0.0
H1031 H 0.23918 0.66235 0.06165 0.0
H1032 H 0.26073 0.62336 0.13752 0.0
H1033 H 0.2782 0.59863 0.13909 0.0
H1034 H 0.24798 0.59571 0.13774 0.0
H1035 H 0.25171 0.56995 0.1025 0.0
H1036 H 0.282 0.57278 0.10378 0.0
H1037 H 0.2671 0.57993 0.07827 0.0
H1038 H 0.28122 0.66567 0.06243 0.0
H1039 H 0.322 0.66497 0.07094 0.0
H1040 H 0.31177 0.60614 0.11312 0.0
C1041 C 0.22067 0.6109 0.09838 0.0
C1042 C 0.20421 0.62485 0.08847 0.0
C1043 C 0.21107 0.64331 0.075 0.0
C1044 C 0.234 0.64799 0.07162 0.0
C1045 C 0.24983 0.63411 0.08188 0.0
C1046 C 0.24349 0.61597 0.09503 0.0
C1047 C 0.26382 0.60477 0.10558 0.0
C1048 C 0.2626 0.60569 0.13152 0.0
C1049 C 0.2663 0.58041 0.09701 0.0
C1050 C 0.28251 0.61973 0.09666 0.0
C1051 C 0.27411 0.63635 0.08277 0.0
C1052 C 0.28804 0.65264 0.07314 0.0
C1053 C 0.31118 0.6521 0.07809 0.0
C1054 C 0.32005 0.63552 0.0927 0.0
C1055 C 0.3055 0.61899 0.10184 0.0
H1056 H 0.86417 0.19297 0.42951 0.0
H1057 H 0.89999 0.1825 0.36645 0.0
H1058 H 0.90404 0.22356 0.36201 0.0
H1059 H 0.83335 0.24116 0.4125 0.0
H1060 H 0.83553 0.25548 0.43931 0.0
H1061 H 0.83616 0.22517 0.43814 0.0
H1062 H 0.87442 0.22533 0.45941 0.0
H1063 H 0.87391 0.25567 0.46063 0.0
H1064 H 0.89776 0.24143 0.44834 0.0
H1065 H 0.90186 0.26525 0.36277 0.0
H1066 H 0.89512 0.30566 0.36962 0.0
H1067 H 0.86241 0.28975 0.4331 0.0
C1068 C 0.87298 0.19933 0.41485 0.0
C1069 C 0.88173 0.18453 0.3983 0.0
C1070 C 0.89319 0.19349 0.37937 0.0
C1071 C 0.89558 0.2168 0.37668 0.0
C1072 C 0.88666 0.2309 0.39319 0.0
C1073 C 0.87575 0.22259 0.412 0.0
C1074 C 0.86745 0.24156 0.42703 0.0
C1075 C 0.84159 0.24079 0.42937 0.0
C1076 C 0.87909 0.24096 0.45023 0.0
C1077 C 0.87507 0.2618 0.41349 0.0
C1078 C 0.88607 0.2552 0.39401 0.0
C1079 C 0.89355 0.27067 0.37809 0.0
C1080 C 0.88958 0.29356 0.3821 0.0
C1081 C 0.87844 0.30075 0.40196 0.0
C1082 C 0.87133 0.28468 0.41798 0.0
H1083 H 0.19568 0.38886 0.90699 0.0
H1084 H 0.18792 0.33173 0.86148 0.0
H1085 H 0.22913 0.33089 0.85587 0.0
H1086 H 0.23977 0.41646 0.87696 0.0
H1087 H 0.25482 0.42562 0.90186 0.0
H1088 H 0.2247 0.42151 0.90289 0.0
H1089 H 0.22934 0.39374 0.93618 0.0
H1090 H 0.25947 0.3979 0.93538 0.0
H1091 H 0.24781 0.36986 0.93312 0.0
H1092 H 0.27064 0.33729 0.85365 0.0
H1093 H 0.31054 0.34862 0.85721 0.0
H1094 H 0.29179 0.40093 0.90507 0.0
C1095 C 0.20266 0.37606 0.89598 0.0
C1096 C 0.18858 0.36036 0.88465 0.0
C1097 C 0.19837 0.34388 0.8704 0.0
C1098 C 0.22175 0.3433 0.86703 0.0
C1099 C 0.23511 0.35921 0.87818 0.0
C1100 C 0.226 0.37512 0.89256 0.0
C1101 C 0.2442 0.39022 0.90253 0.0
C1102 C 0.24066 0.41491 0.89564 0.0
C1103 C 0.24527 0.38777 0.92833 0.0
C1104 C 0.26494 0.38039 0.89135 0.0
C1105 C 0.25925 0.36261 0.87727 0.0
C1106 C 0.27535 0.35109 0.86472 0.0
C1107 C 0.29797 0.35774 0.8668 0.0
C1108 C 0.3043 0.37564 0.88146 0.0
C1109 C 0.28749 0.38713 0.8938 0.0
H1110 H 0.15078 0.80864 0.39651 0.0
H1111 H 0.1516 0.83494 0.32837 0.0
H1112 H 0.15803 0.79652 0.31338 0.0
H1113 H 0.1925 0.76465 0.38916 0.0
H1114 H 0.17741 0.74463 0.40633 0.0
H1115 H 0.17473 0.77438 0.41184 0.0
H1116 H 0.13124 0.77113 0.40789 0.0
H1117 H 0.13378 0.74137 0.40248 0.0
H1118 H 0.1193 0.75905 0.38255 0.0
H1119 H 0.16483 0.7555 0.30599 0.0
H1120 H 0.16657 0.71388 0.30611 0.0
H1121 H 0.15788 0.71401 0.37879 0.0
C1122 C 0.15255 0.80625 0.37847 0.0
C1123 C 0.15096 0.82459 0.36353 0.0
C1124 C 0.15281 0.82096 0.34 0.0
C1125 C 0.15659 0.79929 0.33138 0.0
C1126 C 0.15808 0.78149 0.34655 0.0
C1127 C 0.15574 0.78466 0.36956 0.0
C1128 C 0.1562 0.76247 0.38202 0.0
C1129 C 0.17642 0.76148 0.3983 0.0
C1130 C 0.1338 0.75826 0.39446 0.0
C1131 C 0.15911 0.74633 0.36242 0.0
C1132 C 0.16061 0.75768 0.34216 0.0
C1133 C 0.1636 0.7464 0.32172 0.0
C1134 C 0.16467 0.72282 0.32196 0.0
C1135 C 0.16228 0.71088 0.34244 0.0
C1136 C 0.15964 0.72281 0.36291 0.0
H1137 H 0.8039 0.57206 0.89685 0.0
H1138 H 0.81989 0.63153 0.85734 0.0
H1139 H 0.7794 0.63829 0.85139 0.0
H1140 H 0.75592 0.5537 0.86381 0.0
H1141 H 0.73971 0.54467 0.88787 0.0
H1142 H 0.7701 0.54405 0.88889 0.0
H1143 H 0.76977 0.56895 0.92493 0.0
H1144 H 0.73939 0.56956 0.92409 0.0
H1145 H 0.75524 0.59557 0.92453 0.0
H1146 H 0.73762 0.63866 0.84923 0.0
H1147 H 0.69648 0.63387 0.85292 0.0
H1148 H 0.70701 0.57474 0.89456 0.0
C1149 C 0.79886 0.58648 0.88695 0.0
C1150 C 0.81507 0.60124 0.87756 0.0
C1151 C 0.8078 0.62002 0.8648 0.0
C1152 C 0.78483 0.62398 0.86122 0.0
C1153 C 0.7693 0.6091 0.8706 0.0
C1154 C 0.77592 0.59082 0.88334 0.0
C1155 C 0.75563 0.57783 0.89197 0.0
C1156 C 0.75533 0.55363 0.88257 0.0
C1157 C 0.75497 0.578 0.91792 0.0
C1158 C 0.73665 0.59171 0.88209 0.0
C1159 C 0.74497 0.60955 0.86969 0.0
C1160 C 0.73084 0.62478 0.85892 0.0
C1161 C 0.70749 0.62187 0.86108 0.0
C1162 C 0.69852 0.60395 0.87406 0.0
C1163 C 0.71335 0.58861 0.88454 0.0
H1164 H 0.60433 0.91452 0.7952 0.0
H1165 H 0.65915 0.86784 0.80771 0.0
H1166 H 0.66594 0.86483 0.76682 0.0
H1167 H 0.5824 0.88682 0.74782 0.0
H1168 H 0.57516 0.91197 0.73254 0.0
H1169 H 0.57601 0.91246 0.76289 0.0
H1170 H 0.60457 0.94568 0.76198 0.0
H1171 H 0.60373 0.94536 0.73157 0.0
H1172 H 0.63035 0.94285 0.74611 0.0
H1173 H 0.66449 0.86386 0.72502 0.0
H1174 H 0.65563 0.86584 0.68445 0.0
H1175 H 0.60214 0.91363 0.69859 0.0
C1176 C 0.61803 0.904 0.78937 0.0
C1177 C 0.63123 0.89143 0.80466 0.0
C1178 C 0.64882 0.87763 0.79633 0.0
C1179 C 0.65286 0.87585 0.77313 0.0
C1180 C 0.63926 0.88809 0.7585 0.0
C1181 C 0.62231 0.90203 0.76623 0.0
C1182 C 0.60933 0.91232 0.74681 0.0
C1183 C 0.58425 0.90547 0.74757 0.0
C1184 C 0.61217 0.93808 0.74661 0.0
C1185 C 0.62127 0.90149 0.72698 0.0
C1186 C 0.63857 0.88769 0.73416 0.0
C1187 C 0.6512 0.87483 0.71914 0.0
C1188 C 0.64595 0.87599 0.69616 0.0
C1189 C 0.62825 0.88995 0.6884 0.0
C1190 C 0.61596 0.90306 0.70402 0.0
H1191 H 0.65222 0.15805 0.19743 0.0
H1192 H 0.58918 0.1212 0.18897 0.0
H1193 H 0.58393 0.12108 0.23021 0.0
H1194 H 0.67053 0.1292 0.24683 0.0
H1195 H 0.68283 0.15385 0.25992 0.0
H1196 H 0.68128 0.15181 0.22964 0.0
H1197 H 0.65971 0.18968 0.2283 0.0
H1198 H 0.6611 0.19178 0.25862 0.0
H1199 H 0.63417 0.19291 0.24447 0.0
H1200 H 0.58589 0.12386 0.27195 0.0
H1201 H 0.59541 0.12842 0.31215 0.0
H1202 H 0.65716 0.16367 0.29395 0.0
C1203 C 0.63728 0.15002 0.20424 0.0
C1204 C 0.6211 0.13965 0.18997 0.0
C1205 C 0.60181 0.12925 0.19956 0.0
C1206 C 0.59863 0.12915 0.22295 0.0
C1207 C 0.61486 0.13955 0.23651 0.0
C1208 C 0.63383 0.14975 0.22758 0.0
C1209 C 0.64898 0.15915 0.24603 0.0
C1210 C 0.67228 0.14782 0.24557 0.0
C1211 C 0.65111 0.18491 0.24424 0.0
C1212 C 0.63565 0.15238 0.26673 0.0
C1213 C 0.61598 0.14121 0.26079 0.0
C1214 C 0.60118 0.13267 0.27685 0.0
C1215 C 0.60678 0.13533 0.29964 0.0
C1216 C 0.62702 0.14643 0.30619 0.0
C1217 C 0.64147 0.15532 0.28947 0.0
H1218 H 0.38477 0.12914 0.69752 0.0
H1219 H 0.36482 0.05864 0.69486 0.0
H1220 H 0.36806 0.0565 0.73635 0.0
H1221 H 0.42537 0.12396 0.74328 0.0
H1222 H 0.41797 0.15074 0.75561 0.0
H1223 H 0.41512 0.14638 0.72563 0.0
H1224 H 0.37302 0.15785 0.72785 0.0
H1225 H 0.37572 0.16222 0.75781 0.0
H1226 H 0.35445 0.14321 0.74696 0.0
H1227 H 0.37187 0.06251 0.77814 0.0
H1228 H 0.37595 0.07618 0.81732 0.0
H1229 H 0.3935 0.14276 0.7925 0.0
C1230 C 0.38124 0.11318 0.70561 0.0
C1231 C 0.37454 0.09404 0.69294 0.0
C1232 C 0.36999 0.07352 0.70421 0.0
C1233 C 0.37182 0.07213 0.72776 0.0
C1234 C 0.37829 0.09137 0.73973 0.0
C1235 C 0.38298 0.11149 0.72904 0.0
C1236 C 0.38893 0.12989 0.74584 0.0
C1237 C 0.4133 0.13822 0.74238 0.0
C1238 C 0.37202 0.14944 0.74453 0.0
C1239 C 0.38655 0.11704 0.76771 0.0
C1240 C 0.38051 0.09483 0.76381 0.0
C1241 C 0.37673 0.07983 0.78141 0.0
C1242 C 0.37906 0.08778 0.8036 0.0
C1243 C 0.38508 0.11054 0.80798 0.0
C1244 C 0.38902 0.12525 0.78973 0.0
H1245 H 0.36284 0.89983 0.20338 0.0
H1246 H 0.40771 0.84265 0.19554 0.0
H1247 H 0.41331 0.84163 0.23679 0.0
H1248 H 0.39373 0.92689 0.24901 0.0
H1249 H 0.36854 0.93615 0.26325 0.0
H1250 H 0.36853 0.93276 0.23303 0.0
H1251 H 0.33421 0.90565 0.23584 0.0
H1252 H 0.33415 0.90891 0.26606 0.0
H1253 H 0.336 0.88118 0.25367 0.0
H1254 H 0.41295 0.8459 0.27877 0.0
H1255 H 0.40745 0.85574 0.31884 0.0
H1256 H 0.36317 0.91046 0.29933 0.0
C1257 C 0.37394 0.88716 0.21031 0.0
C1258 C 0.38483 0.8713 0.19625 0.0
C1259 C 0.39921 0.85499 0.20598 0.0
C1260 C 0.40249 0.85426 0.22939 0.0
C1261 C 0.39137 0.87003 0.24277 0.0
C1262 C 0.37746 0.88623 0.23361 0.0
C1263 C 0.36729 0.90103 0.25178 0.0
C1264 C 0.37499 0.92567 0.2491 0.0
C1265 C 0.34138 0.89906 0.25184 0.0
C1266 C 0.37749 0.89047 0.27261 0.0
C1267 C 0.39132 0.87262 0.26702 0.0
C1268 C 0.40226 0.85992 0.28338 0.0
C1269 C 0.39897 0.86562 0.30609 0.0
C1270 C 0.38491 0.8839 0.31222 0.0
C1271 C 0.37411 0.89648 0.29519 0.0
H1272 H 0.12524 0.09872 0.55147 0.0
H1273 H 0.10458 0.16557 0.57305 0.0
H1274 H 0.10462 0.17818 0.53357 0.0
H1275 H 0.16237 0.11584 0.50823 0.0
H1276 H 0.15482 0.09359 0.48879 0.0
H1277 H 0.15216 0.0892 0.51871 0.0
H1278 H 0.10995 0.07865 0.51357 0.0
H1279 H 0.11252 0.08286 0.48358 0.0
H1280 H 0.09137 0.09794 0.49933 0.0
H1281 H 0.11036 0.1847 0.49266 0.0
H1282 H 0.11771 0.18368 0.45168 0.0
H1283 H 0.13225 0.1122 0.45576 0.0
C1284 C 0.12048 0.11592 0.54783 0.0
C1285 C 0.11494 0.13115 0.56534 0.0
C1286 C 0.10877 0.15354 0.55993 0.0
C1287 C 0.10881 0.16092 0.53755 0.0
C1288 C 0.1147 0.14562 0.52074 0.0
C1289 C 0.12007 0.12351 0.52549 0.0
C1290 C 0.12589 0.11063 0.50415 0.0
C1291 C 0.15026 0.1018 0.50503 0.0
C1292 C 0.10891 0.09138 0.49991 0.0
C1293 C 0.1234 0.12912 0.48678 0.0
C1294 C 0.11708 0.14919 0.49679 0.0
C1295 C 0.11498 0.16903 0.48453 0.0
C1296 C 0.11931 0.16831 0.46134 0.0
C1297 C 0.12536 0.14785 0.45065 0.0
C1298 C 0.12732 0.12799 0.46353 0.0
H1299 H 0.39149 0.59536 0.95042 0.0
H1300 H 0.44827 0.64164 0.94581 0.0
H1301 H 0.4528 0.64036 0.98725 0.0
H1302 H 0.36745 0.61867 0.99813 0.0
H1303 H 0.35844 0.59233 0.01026 0.0
H1304 H 0.36152 0.59473 0.98019 0.0
H1305 H 0.38905 0.5609 0.98004 0.0
H1306 H 0.38602 0.55836 0.01018 0.0
H1307 H 0.41368 0.56162 0.99795 0.0
H1308 H 0.44795 0.63775 0.02936 0.0
H1309 H 0.43475 0.63318 0.06864 0.0
H1310 H 0.38201 0.58766 0.04529 0.0
C1311 C 0.40516 0.60492 0.95805 0.0
C1312 C 0.41953 0.6186 0.9449 0.0
C1313 C 0.43711 0.63096 0.95556 0.0
C1314 C 0.43984 0.63031 0.97907 0.0
C1315 C 0.42505 0.61699 0.99159 0.0
C1316 C 0.40819 0.60434 0.9814 0.0
C1317 C 0.39358 0.59257 0.99866 0.0
C1318 C 0.36879 0.60003 0.99669 0.0
C1319 C 0.39573 0.56683 0.99658 0.0
C1320 C 0.40434 0.60118 0.0202 0.0
C1321 C 0.42258 0.61511 0.01581 0.0
C1322 C 0.43399 0.62653 0.03303 0.0
C1323 C 0.42634 0.62387 0.05526 0.0
C1324 C 0.40751 0.60989 0.06001 0.0
C1325 C 0.39674 0.5981 0.04226 0.0
H1326 H 0.85733 0.86805 0.45793 0.0
H1327 H 0.91998 0.90108 0.43884 0.0
H1328 H 0.93105 0.90361 0.47895 0.0
H1329 H 0.8479 0.90081 0.50876 0.0
H1330 H 0.83651 0.87724 0.52416 0.0
H1331 H 0.83338 0.87841 0.49395 0.0
H1332 H 0.85238 0.8393 0.49021 0.0
H1333 H 0.85558 0.83802 0.52039 0.0
H1334 H 0.87992 0.835 0.50243 0.0
H1335 H 0.93605 0.90092 0.52102 0.0
H1336 H 0.93388 0.89445 0.56216 0.0
H1337 H 0.86746 0.8643 0.55351 0.0
C1338 C 0.87334 0.87588 0.46217 0.0
C1339 C 0.88781 0.88433 0.44528 0.0
C1340 C 0.9086 0.89453 0.45153 0.0
C1341 C 0.91506 0.89603 0.47425 0.0
C1342 C 0.90045 0.88743 0.49048 0.0
C1343 C 0.87996 0.87769 0.48475 0.0
C1344 C 0.8674 0.86963 0.50541 0.0
C1345 C 0.84497 0.88228 0.50823 0.0
C1346 C 0.86361 0.84397 0.50455 0.0
C1347 C 0.88412 0.87615 0.52364 0.0
C1348 C 0.9031 0.88635 0.51471 0.0
C1349 C 0.92119 0.89313 0.52825 0.0
C1350 C 0.91983 0.88935 0.55155 0.0
C1351 C 0.90045 0.87903 0.56101 0.0
C1352 C 0.88238 0.87248 0.54681 0.0
H1353 H 0.60064 0.33768 0.95396 0.0
H1354 H 0.60714 0.40871 0.93833 0.0
H1355 H 0.6081 0.41784 0.97907 0.0
H1356 H 0.56709 0.34345 0.00618 0.0
H1357 H 0.58212 0.32117 0.02018 0.0
H1358 H 0.5787 0.32051 0.98995 0.0
H1359 H 0.62207 0.31749 0.98524 0.0
H1360 H 0.62563 0.3183 0.01539 0.0
H1361 H 0.6401 0.33857 0.99798 0.0
H1362 H 0.61013 0.41908 0.0212 0.0
H1363 H 0.61538 0.41219 0.06199 0.0
H1364 H 0.61062 0.34012 0.04995 0.0
C1365 C 0.60164 0.35517 0.95921 0.0
C1366 C 0.60342 0.37258 0.9432 0.0
C1367 C 0.60555 0.39522 0.95049 0.0
C1368 C 0.60605 0.40055 0.97353 0.0
C1369 C 0.60474 0.38297 0.98897 0.0
C1370 C 0.60271 0.36072 0.98215 0.0
C1371 C 0.60387 0.3449 0.00208 0.0
C1372 C 0.58162 0.33174 0.00475 0.0
C1373 C 0.62413 0.32888 1.00004 0.0
C1374 C 0.60718 0.36171 0.02108 0.0
C1375 C 0.60721 0.38359 0.01321 0.0
C1376 C 0.61008 0.40203 0.0276 0.0
C1377 C 0.61306 0.39797 0.05069 0.0
C1378 C 0.61356 0.37566 0.05899 0.0
C1379 C 0.61052 0.35735 0.04398 0.0
H1380 H 0.12281 0.84074 0.54422 0.0
H1381 H 0.10788 0.90996 0.56256 0.0
H1382 H 0.10278 0.91926 0.52222 0.0
H1383 H 0.15391 0.85202 0.49469 0.0
H1384 H 0.14273 0.82833 0.47905 0.0
H1385 H 0.14453 0.82713 0.50934 0.0
H1386 H 0.10171 0.81816 0.51148 0.0
H1387 H 0.09977 0.8194 0.48116 0.0
H1388 H 0.08183 0.83691 0.49833 0.0
H1389 H 0.10265 0.92159 0.47998 0.0
H1390 H 0.10524 0.91635 0.43864 0.0
H1391 H 0.1174 0.84501 0.4481 0.0
C1392 C 0.11845 0.85785 0.53974 0.0
C1393 C 0.11592 0.87471 0.55639 0.0
C1394 C 0.10991 0.89683 0.54997 0.0
C1395 C 0.10697 0.90225 0.52716 0.0
C1396 C 0.10969 0.88523 0.51112 0.0
C1397 C 0.11504 0.86342 0.51713 0.0
C1398 C 0.11709 0.84828 0.49663 0.0
C1399 C 0.14099 0.83837 0.49483 0.0
C1400 C 0.09902 0.82958 0.49692 0.0
C1401 C 0.11261 0.8651 0.47808 0.0
C1402 C 0.10844 0.88634 0.4868 0.0
C1403 C 0.10549 0.90499 0.47295 0.0
C1404 C 0.10704 0.90187 0.44956 0.0
C1405 C 0.11118 0.88024 0.44035 0.0
C1406 C 0.11366 0.8616 0.45477 0.0
H1407 H 0.63521 0.62924 0.9455 0.0
H1408 H 0.57754 0.58376 0.94431 0.0
H1409 H 0.57509 0.58628 0.9859 0.0
H1410 H 0.66061 0.60812 0.99611 0.0
H1411 H 0.66975 0.63556 0.00572 0.0
H1412 H 0.66696 0.62991 0.97596 0.0
H1413 H 0.63991 0.66389 0.97206 0.0
H1414 H 0.64256 0.66962 0.00182 0.0
H1415 H 0.61503 0.66528 0.98949 0.0
H1416 H 0.57915 0.59379 0.02762 0.0
H1417 H 0.58917 0.60586 0.06631 0.0
H1418 H 0.64384 0.64681 0.03965 0.0
C1419 C 0.62209 0.61972 0.95394 0.0
C1420 C 0.60658 0.60626 0.94167 0.0
C1421 C 0.5896 0.59418 0.95338 0.0
C1422 C 0.58808 0.5955 0.97698 0.0
C1423 C 0.60363 0.60901 0.98852 0.0
C1424 C 0.62028 0.62092 0.97737 0.0
C1425 C 0.63479 0.63439 0.99361 0.0
C1426 C 0.65949 0.62651 0.9928 0.0
C1427 C 0.63295 0.6598 0.98897 0.0
C1428 C 0.62373 0.62819 0.01571 0.0
C1429 C 0.60581 0.61351 0.01243 0.0
C1430 C 0.59312 0.60531 0.03039 0.0
C1431 C 0.59895 0.61226 0.05229 0.0
C1432 C 0.61726 0.62732 0.05599 0.0
C1433 C 0.62971 0.63537 0.03739 0.0
H1434 H 0.91032 0.13567 0.47406 0.0
H1435 H 0.89044 0.07006 0.44792 0.0
H1436 H 0.88583 0.0561 0.48681 0.0
H1437 H 0.94029 0.11563 0.52485 0.0
H1438 H 0.92999 0.13857 0.54194 0.0
H1439 H 0.93443 0.14253 0.51214 0.0
H1440 H 0.89294 0.15553 0.50774 0.0
H1441 H 0.88834 0.15148 0.53744 0.0
H1442 H 0.87042 0.13735 0.51718 0.0
H1443 H 0.88057 0.05013 0.52832 0.0
H1444 H 0.87442 0.05288 0.56948 0.0
H1445 H 0.89673 0.12269 0.56822 0.0
C1446 C 0.90554 0.11822 0.47654 0.0
C1447 C 0.90092 0.10388 0.45804 0.0
C1448 C 0.89413 0.0813 0.46192 0.0
C1449 C 0.89153 0.07319 0.48392 0.0
C1450 C 0.89574 0.0879 0.50183 0.0
C1451 C 0.90262 0.10993 0.49839 0.0
C1452 C 0.90426 0.12279 0.52044 0.0
C1453 C 0.9287 0.13031 0.52511 0.0
C1454 C 0.88802 0.14297 0.5207 0.0
C1455 C 0.89679 0.10468 0.53672 0.0
C1456 C 0.89222 0.08461 0.52572 0.0
C1457 C 0.8843 0.0657 0.53718 0.0
C1458 C 0.88083 0.06743 0.56053 0.0
C1459 C 0.88509 0.08798 0.57204 0.0
C1460 C 0.89336 0.10672 0.55992 0.0
H1461 H 0.37573 0.40064 0.94509 0.0
H1462 H 0.43838 0.36314 0.94192 0.0
H1463 H 0.44318 0.3679 0.98313 0.0
H1464 H 0.3938 0.44071 0.98946 0.0
H1465 H 0.36622 0.44096 0.00227 0.0
H1466 H 0.36897 0.43639 0.97231 0.0
H1467 H 0.34637 0.39902 0.97568 0.0
H1468 H 0.34355 0.40347 0.00557 0.0
H1469 H 0.35585 0.37775 0.9951 0.0
H1470 H 0.43868 0.37304 0.02517 0.0
H1471 H 0.42584 0.37914 0.06441 0.0
H1472 H 0.36705 0.41462 0.03944 0.0
C1473 C 0.39064 0.39369 0.95299 0.0
C1474 C 0.40667 0.38149 0.94034 0.0
C1475 C 0.42592 0.37263 0.9513 0.0
C1476 C 0.42881 0.37527 0.97468 0.0
C1477 C 0.41246 0.38711 0.98671 0.0
C1478 C 0.39388 0.39637 0.97618 0.0
C1479 C 0.37815 0.40732 0.99298 0.0
C1480 C 0.37671 0.43286 0.98901 0.0
C1481 C 0.3546 0.39622 0.99229 0.0
C1482 C 0.3904 0.40216 0.01473 0.0
C1483 C 0.41022 0.3906 0.0108 0.0
C1484 C 0.42343 0.38245 0.02844 0.0
C1485 C 0.41598 0.38596 0.05065 0.0
C1486 C 0.39559 0.39756 0.05495 0.0
C1487 C 0.38295 0.40611 0.03672 0.0
H1488 H 0.53465 0.08161 0.12615 0.0
H1489 H 0.54698 0.13757 0.08081 0.0
H1490 H 0.50651 0.13841 0.07111 0.0
H1491 H 0.48793 0.05455 0.0926 0.0
H1492 H 0.47266 0.04717 0.11781 0.0
H1493 H 0.50308 0.04834 0.11822 0.0
H1494 H 0.50178 0.07657 0.1517 0.0
H1495 H 0.47147 0.0755 0.15139 0.0
H1496 H 0.48584 0.10222 0.14887 0.0
H1497 H 0.46451 0.13696 0.07056 0.0
H1498 H 0.42398 0.13352 0.07963 0.0
H1499 H 0.43889 0.07829 0.12497 0.0
C1500 C 0.52894 0.09362 0.1137 0.0
C1501 C 0.54397 0.10946 0.10418 0.0
C1502 C 0.53577 0.12524 0.08831 0.0
C1503 C 0.51283 0.12577 0.08257 0.0
C1504 C 0.49834 0.11031 0.09272 0.0
C1505 C 0.50608 0.09443 0.10785 0.0
C1506 C 0.48672 0.08134 0.1182 0.0
C1507 C 0.48766 0.05637 0.11129 0.0
C1508 C 0.48645 0.08409 0.14406 0.0
C1509 C 0.46688 0.09304 0.10729 0.0
C1510 C 0.47394 0.10943 0.09235 0.0
C1511 C 0.45873 0.12386 0.08185 0.0
C1512 C 0.43576 0.12183 0.08715 0.0
C1513 C 0.42828 0.10555 0.10289 0.0
C1514 C 0.44402 0.09061 0.11255 0.0
H1515 H 0.39687 0.94413 0.61678 0.0
H1516 H 0.34607 0.94027 0.564 0.0
H1517 H 0.34866 0.98152 0.559 0.0
H1518 H 0.3776 0.9928 0.64222 0.0
H1519 H 0.40508 0.00425 0.64883 0.0
H1520 H 0.40129 0.97427 0.64626 0.0
H1521 H 0.43274 0.97272 0.61593 0.0
H1522 H 0.43668 0.00277 0.61846 0.0
H1523 H 0.43068 0.99031 0.59129 0.0
H1524 H 0.35301 0.0234 0.56346 0.0
H1525 H 0.36007 0.06264 0.57589 0.0
H1526 H 0.40913 0.03887 0.62461 0.0
C1527 C 0.38658 0.95188 0.60387 0.0
C1528 C 0.37124 0.93901 0.59079 0.0
C1529 C 0.35801 0.9498 0.57415 0.0
C1530 C 0.35938 0.97321 0.57117 0.0
C1531 C 0.37432 0.98546 0.58472 0.0
C1532 C 0.38789 0.97513 0.60055 0.0
C1533 C 0.4015 0.9922 0.61395 0.0
C1534 C 0.39602 0.99079 0.63931 0.0
C1535 C 0.42691 0.98933 0.60964 0.0
C1536 C 0.39286 0.01383 0.60377 0.0
C1537 C 0.3773 0.0096 0.58683 0.0
C1538 C 0.36552 0.02694 0.57635 0.0
C1539 C 0.36957 0.04913 0.58356 0.0
C1540 C 0.38533 0.05375 0.60099 0.0
C1541 C 0.39739 0.03588 0.61087 0.0
H1542 H 0.43811 0.9296 0.13997 0.0
H1543 H 0.42315 0.88171 0.08634 0.0
H1544 H 0.46343 0.88121 0.07583 0.0
H1545 H 0.48489 0.96021 0.11061 0.0
H1546 H 0.50085 0.9631 0.1364 0.0
H1547 H 0.47043 0.96263 0.13725 0.0
H1548 H 0.47163 0.92943 0.1655 0.0
H1549 H 0.50196 0.92973 0.16467 0.0
H1550 H 0.48672 0.90417 0.15802 0.0
H1551 H 0.50548 0.88199 0.07438 0.0
H1552 H 0.54634 0.88371 0.08231 0.0
H1553 H 0.534 0.93097 0.13701 0.0
C1554 C 0.44319 0.91951 0.1256 0.0
C1555 C 0.42749 0.90581 0.11388 0.0
C1556 C 0.43489 0.89242 0.0955 0.0
C1557 C 0.45772 0.89209 0.08934 0.0
C1558 C 0.47287 0.90533 0.10165 0.0
C1559 C 0.46592 0.91889 0.11933 0.0
C1560 C 0.48584 0.92967 0.13131 0.0
C1561 C 0.48547 0.95543 0.12873 0.0
C1562 C 0.48657 0.92283 0.15634 0.0
C1563 C 0.50512 0.91938 0.11817 0.0
C1564 C 0.49727 0.90568 0.1009 0.0
C1565 C 0.51185 0.89298 0.08758 0.0
C1566 C 0.53503 0.89402 0.09227 0.0
C1567 C 0.54336 0.90755 0.11022 0.0
C1568 C 0.52819 0.92074 0.12297 0.0
H1569 H 0.59239 0.04266 0.61476 0.0
H1570 H 0.64775 0.05053 0.5675 0.0
H1571 H 0.64693 0.00959 0.55989 0.0
H1572 H 0.61076 0.99352 0.63916 0.0
H1573 H 0.58322 0.9809 0.64243 0.0
H1574 H 0.58612 0.01105 0.64183 0.0
H1575 H 0.55761 0.01303 0.60866 0.0
H1576 H 0.55456 0.98279 0.6092 0.0
H1577 H 0.5626 0.9967 0.58344 0.0
H1578 H 0.64385 0.96751 0.56182 0.0
H1579 H 0.63739 0.92756 0.57171 0.0
H1580 H 0.58289 0.94734 0.61627 0.0
C1581 C 0.60403 0.03586 0.60244 0.0
C1582 C 0.62014 0.04977 0.59172 0.0
C1583 C 0.63518 0.04021 0.57583 0.0
C1584 C 0.63483 0.01697 0.57138 0.0
C1585 C 0.61909 0.00365 0.58267 0.0
C1586 C 0.60376 0.01279 0.59766 0.0
C1587 C 0.58959 0.99467 0.60874 0.0
C1588 C 0.59262 0.99507 0.63456 0.0
C1589 C 0.56461 0.99694 0.6021 0.0
C1590 C 0.59994 0.97384 0.59832 0.0
C1591 C 0.61684 0.97936 0.58322 0.0
C1592 C 0.6303 0.96296 0.57318 0.0
C1593 C 0.62658 0.94035 0.57894 0.0
C1594 C 0.60944 0.93442 0.59447 0.0
C1595 C 0.5957 0.95136 0.60388 0.0
H1596 H 0.46194 0.84615 0.88196 0.0
H1597 H 0.43631 0.91431 0.8885 0.0
H1598 H 0.47539 0.92897 0.88985 0.0
H1599 H 0.50965 0.85291 0.91909 0.0
H1600 H 0.52788 0.83554 0.90207 0.0
H1601 H 0.49788 0.83048 0.90207 0.0
H1602 H 0.49701 0.83457 0.85852 0.0
H1603 H 0.527 0.83962 0.85841 0.0
H1604 H 0.5082 0.85979 0.8458 0.0
H1605 H 0.51749 0.93612 0.89036 0.0
H1606 H 0.55923 0.93515 0.88893 0.0
H1607 H 0.5566 0.86232 0.88157 0.0
C1608 C 0.46452 0.86415 0.88376 0.0
C1609 C 0.44611 0.87907 0.88515 0.0
C1610 C 0.4502 0.90255 0.88735 0.0
C1611 C 0.47231 0.91105 0.88819 0.0
C1612 C 0.4901 0.89585 0.88674 0.0
C1613 C 0.48642 0.87291 0.8845 0.0
C1614 C 0.50839 0.86018 0.88283 0.0
C1615 C 0.5111 0.84382 0.9027 0.0
C1616 C 0.51025 0.84782 0.86003 0.0
C1617 C 0.525 0.87953 0.88445 0.0
C1618 C 0.51419 0.89998 0.88679 0.0
C1619 C 0.52615 0.92021 0.88853 0.0
C1620 C 0.54983 0.91949 0.88774 0.0
C1621 C 0.56116 0.89869 0.88511 0.0
C1622 C 0.54847 0.87852 0.88355 0.0
H1623 H 0.63185 0.95877 0.38034 0.0
H1624 H 0.56311 0.94448 0.35884 0.0
H1625 H 0.55454 0.98518 0.36022 0.0
H1626 H 0.61855 0.00458 0.41874 0.0
H1627 H 0.64341 0.02057 0.41142 0.0
H1628 H 0.64376 0.99026 0.4097 0.0
H1629 H 0.65602 0.99251 0.36779 0.0
H1630 H 0.65575 0.02281 0.36939 0.0
H1631 H 0.63917 0.00841 0.34819 0.0
H1632 H 0.55395 0.02756 0.36271 0.0
H1633 H 0.56162 0.06845 0.36531 0.0
H1634 H 0.63078 0.05456 0.38509 0.0
C1635 C 0.61494 0.96414 0.37607 0.0
C1636 C 0.59814 0.94847 0.3695 0.0
C1637 C 0.57626 0.95622 0.3639 0.0
C1638 C 0.57121 0.97927 0.36469 0.0
C1639 C 0.58822 0.99428 0.37115 0.0
C1640 C 0.60963 0.98703 0.37673 0.0
C1641 C 0.62512 0.00659 0.38238 0.0
C1642 C 0.63318 0.00542 0.40703 0.0
C1643 C 0.64519 0.00764 0.36595 0.0
C1644 C 0.60914 0.02605 0.37884 0.0
C1645 C 0.5879 0.01862 0.37252 0.0
C1646 C 0.57049 0.03358 0.36776 0.0
C1647 C 0.57502 0.05676 0.36927 0.0
C1648 C 0.59679 0.06469 0.37541 0.0
C1649 C 0.61393 0.04905 0.38047 0.0
H1650 H 0.46448 0.09025 0.91248 0.0
H1651 H 0.44 0.15733 0.89757 0.0
H1652 H 0.47914 0.17177 0.8975 0.0
H1653 H 0.51395 0.10739 0.94758 0.0
H1654 H 0.53156 0.08563 0.93582 0.0
H1655 H 0.50154 0.08116 0.93822 0.0
H1656 H 0.49932 0.07224 0.89542 0.0
H1657 H 0.52925 0.07678 0.89287 0.0
H1658 H 0.50999 0.09253 0.8755 0.0
H1659 H 0.52042 0.17836 0.89575 0.0
H1660 H 0.56161 0.17653 0.89073 0.0
H1661 H 0.55982 0.10479 0.90502 0.0
C1662 C 0.46741 0.10807 0.90983 0.0
C1663 C 0.44935 0.12278 0.90529 0.0
C1664 C 0.45371 0.14586 0.90118 0.0
C1665 C 0.47583 0.15423 0.90121 0.0
C1666 C 0.49337 0.13923 0.90522 0.0
C1667 C 0.48948 0.11663 0.9094 0.0
C1668 C 0.51146 0.10374 0.91082 0.0
C1669 C 0.51482 0.0939 0.93452 0.0
C1670 C 0.51256 0.08524 0.89256 0.0
C1671 C 0.52822 0.12253 0.90622 0.0
C1672 C 0.51741 0.14292 0.90345 0.0
C1673 C 0.52913 0.16256 0.8981 0.0
C1674 C 0.55254 0.16131 0.89524 0.0
C1675 C 0.56395 0.14051 0.89747 0.0
C1676 C 0.5516 0.12096 0.90333 0.0
H1677 H 0.42639 0.96239 0.35776 0.0
H1678 H 0.3829 0.94924 0.41519 0.0
H1679 H 0.38059 0.98998 0.42286 0.0
H1680 H 0.45655 0.01133 0.38247 0.0
H1681 H 0.45738 0.02608 0.35596 0.0
H1682 H 0.45761 0.99571 0.35633 0.0
H1683 H 0.42252 0.99482 0.33013 0.0
H1684 H 0.42214 0.02513 0.32974 0.0
H1685 H 0.39739 0.0097 0.33848 0.0
H1686 H 0.38018 0.03185 0.42246 0.0
H1687 H 0.38184 0.07247 0.41397 0.0
H1688 H 0.42562 0.05861 0.35689 0.0
C1689 C 0.41674 0.96806 0.37219 0.0
C1690 C 0.40487 0.95266 0.3859 0.0
C1691 C 0.39212 0.96075 0.40443 0.0
C1692 C 0.39077 0.98385 0.409 0.0
C1693 C 0.40232 0.99863 0.39493 0.0
C1694 C 0.41514 0.99111 0.37696 0.0
C1695 C 0.42466 0.01064 0.3636 0.0
C1696 C 0.45059 0.01096 0.36466 0.0
C1697 C 0.41616 0.01003 0.33904 0.0
C1698 C 0.41471 0.03025 0.37656 0.0
C1699 C 0.40207 0.02294 0.3947 0.0
C1700 C 0.39026 0.03784 0.40848 0.0
C1701 C 0.39125 0.06086 0.40348 0.0
C1702 C 0.40392 0.0687 0.38482 0.0
C1703 C 0.41599 0.05316 0.37141 0.0
H1704 H 0.12779 0.45496 0.07113 0.0
H1705 H 0.0937 0.4521 0.13588 0.0
H1706 H 0.08935 0.49341 0.13545 0.0
H1707 H 0.15951 0.50341 0.08284 0.0
H1708 H 0.15775 0.51495 0.05481 0.0
H1709 H 0.15591 0.48496 0.05883 0.0
H1710 H 0.1175 0.48404 0.03782 0.0
H1711 H 0.11925 0.51408 0.03367 0.0
H1712 H 0.09492 0.50197 0.04733 0.0
H1713 H 0.09151 0.53481 0.12971 0.0
H1714 H 0.10033 0.57399 0.11926 0.0
H1715 H 0.13328 0.55024 0.05826 0.0
C1716 C 0.11902 0.46298 0.08501 0.0
C1717 C 0.11099 0.45033 0.10349 0.0
C1718 C 0.09996 0.46147 0.12153 0.0
C1719 C 0.09733 0.4849 0.1214 0.0
C1720 C 0.10578 0.49691 0.10311 0.0
C1721 C 0.11636 0.48637 0.08522 0.0
C1722 C 0.12535 0.50337 0.06844 0.0
C1723 C 0.15116 0.50156 0.06611 0.0
C1724 C 0.11354 0.5007 0.04545 0.0
C1725 C 0.11863 0.52513 0.07998 0.0
C1726 C 0.10715 0.52098 0.09984 0.0
C1727 C 0.10024 0.53831 0.11408 0.0
C1728 C 0.1054 0.5605 0.10801 0.0
C1729 C 0.11744 0.56517 0.08789 0.0
C1730 C 0.12383 0.54722 0.07358 0.0
H1731 H 0.14685 0.5483 0.82746 0.0
H1732 H 0.09441 0.57351 0.87186 0.0
H1733 H 0.08613 0.5346 0.88411 0.0
H1734 H 0.11813 0.49455 0.81197 0.0
H1735 H 0.14442 0.4794 0.81178 0.0
H1736 H 0.14395 0.50882 0.80439 0.0
H1737 H 0.17405 0.51711 0.83521 0.0
H1738 H 0.17437 0.48784 0.84292 0.0
H1739 H 0.1685 0.50902 0.86397 0.0
H1740 H 0.08669 0.49347 0.89467 0.0
H1741 H 0.09459 0.4531 0.90103 0.0
H1742 H 0.14676 0.45543 0.84969 0.0
C1743 C 0.13325 0.54563 0.83936 0.0
C1744 C 0.12126 0.56391 0.84869 0.0
C1745 C 0.10374 0.55972 0.86439 0.0
C1746 C 0.09893 0.53769 0.87147 0.0
C1747 C 0.11165 0.5201 0.86251 0.0
C1748 C 0.12824 0.52382 0.84655 0.0
C1749 C 0.14047 0.50231 0.84058 0.0
C1750 C 0.13649 0.49589 0.81571 0.0
C1751 C 0.16584 0.5042 0.84601 0.0
C1752 C 0.1287 0.48604 0.85622 0.0
C1753 C 0.11199 0.49652 0.86859 0.0
C1754 C 0.09954 0.48501 0.88486 0.0
C1755 C 0.10422 0.46214 0.88843 0.0
C1756 C 0.12129 0.45114 0.87586 0.0
C1757 C 0.13356 0.46332 0.85954 0.0
H1758 H 0.07021 0.63118 0.34958 0.0
H1759 H 0.07963 0.64117 0.42164 0.0
H1760 H 0.03842 0.63733 0.42728 0.0
H1761 H 0.02046 0.66295 0.34451 0.0
H1762 H 0.00764 0.64458 0.32379 0.0
H1763 H 0.0379 0.64661 0.32574 0.0
H1764 H 0.04039 0.60335 0.33104 0.0
H1765 H 0.0101 0.60117 0.32908 0.0
H1766 H 0.02459 0.59011 0.35337 0.0
H1767 H 0.99603 0.6337 0.42469 0.0
H1768 H 0.95574 0.63156 0.41408 0.0
H1769 H 0.97459 0.62459 0.34361 0.0
C1770 C 0.0637 0.63236 0.36661 0.0
C1771 C 0.07814 0.63642 0.3852 0.0
C1772 C 0.06887 0.63802 0.40716 0.0
C1773 C 0.04552 0.63582 0.41053 0.0
C1774 C 0.03176 0.63199 0.39177 0.0
C1775 C 0.04053 0.63027 0.37025 0.0
C1776 C 0.02214 0.62699 0.35279 0.0
C1777 C 0.02204 0.64645 0.33571 0.0
C1778 C 0.02445 0.60404 0.34088 0.0
C1779 C 0.00155 0.62756 0.36779 0.0
C1780 C 0.00744 0.6302 0.39024 0.0
C1781 C 0.99123 0.63152 0.40718 0.0
C1782 C 0.9684 0.63027 0.40098 0.0
C1783 C 0.96204 0.62792 0.37801 0.0
C1784 C 0.9789 0.6264 0.3613 0.0
H1785 H 0.88726 0.53163 0.91541 0.0
H1786 H 0.92991 0.5513 0.85937 0.0
H1787 H 0.94154 0.51171 0.85419 0.0
H1788 H 0.92295 0.48485 0.93691 0.0
H1789 H 0.89868 0.46752 0.9431 0.0
H1790 H 0.89663 0.49778 0.94485 0.0
H1791 H 0.8629 0.49684 0.91691 0.0
H1792 H 0.86485 0.46667 0.91508 0.0
H1793 H 0.86624 0.48338 0.88979 0.0
H1794 H 0.94572 0.46989 0.85274 0.0
H1795 H 0.94017 0.42864 0.85348 0.0
H1796 H 0.89359 0.43612 0.90949 0.0
C1797 C 0.89953 0.52764 0.90248 0.0
C1798 C 0.90792 0.54445 0.88795 0.0
C1799 C 0.92339 0.5386 0.87073 0.0
C1800 C 0.93019 0.51621 0.86775 0.0
C1801 C 0.92127 0.49991 0.88207 0.0
C1802 C 0.9062 0.50532 0.89904 0.0
C1803 C 0.89709 0.48436 0.91037 0.0
C1804 C 0.90428 0.48359 0.93529 0.0
C1805 C 0.87125 0.48273 0.90787 0.0
C1806 C 0.90888 0.46635 0.89667 0.0
C1807 C 0.9231 0.47565 0.88075 0.0
C1808 C 0.93485 0.46237 0.86532 0.0
C1809 C 0.93158 0.43896 0.86587 0.0
C1810 C 0.91645 0.42918 0.88153 0.0
C1811 C 0.90537 0.44308 0.8974 0.0
H1812 H 0.02779 0.37983 0.35141 0.0
H1813 H 0.05097 0.42562 0.40397 0.0
H1814 H 0.01144 0.43608 0.41199 0.0
H1815 H 0.97864 0.41372 0.33247 0.0
H1816 H 0.9617 0.38878 0.32793 0.0
H1817 H 0.99186 0.38769 0.32412 0.0
H1818 H 0.99411 0.35471 0.35258 0.0
H1819 H 0.96407 0.35578 0.35657 0.0
H1820 H 0.9827 0.35835 0.38054 0.0
H1821 H 0.96913 0.43785 0.41733 0.0
H1822 H 0.92798 0.43075 0.41938 0.0
H1823 H 0.93329 0.38373 0.36331 0.0
C1824 C 0.02465 0.39248 0.36424 0.0
C1825 C 0.04245 0.40195 0.37702 0.0
C1826 C 0.03757 0.41821 0.39389 0.0
C1827 C 0.01518 0.4243 0.39853 0.0
C1828 C 0.99795 0.41412 0.38602 0.0
C1829 C 0.00249 0.39868 0.36909 0.0
C1830 C 0.98106 0.38862 0.35943 0.0
C1831 C 0.97815 0.3951 0.33451 0.0
C1832 C 0.98046 0.36285 0.36248 0.0
C1833 C 0.96376 0.40015 0.37412 0.0
C1834 C 0.97372 0.41506 0.38915 0.0
C1835 C 0.96111 0.4265 0.4054 0.0
C1836 C 0.93777 0.42233 0.40646 0.0
C1837 C 0.92742 0.4067 0.39151 0.0
C1838 C 0.94063 0.39588 0.37492 0.0
H1839 H 0.84918 0.44764 0.10458 0.0
H1840 H 0.91212 0.42257 0.13223 0.0
H1841 H 0.92703 0.46142 0.1342 0.0
H1842 H 0.87341 0.4931 0.07105 0.0
H1843 H 0.85067 0.51222 0.0772 0.0
H1844 H 0.84546 0.48228 0.07651 0.0
H1845 H 0.82934 0.4842 0.11711 0.0
H1846 H 0.83451 0.51411 0.11793 0.0
H1847 H 0.84632 0.49626 0.13941 0.0
H1848 H 0.93471 0.5029 0.1343 0.0
H1849 H 0.9341 0.54447 0.13387 0.0
H1850 H 0.86579 0.54262 0.10711 0.0
C1851 C 0.8662 0.4503 0.11078 0.0
C1852 C 0.87954 0.43209 0.11813 0.0
C1853 C 0.9016 0.43629 0.12649 0.0
C1854 C 0.91026 0.45827 0.12761 0.0
C1855 C 0.8966 0.47587 0.1204 0.0
C1856 C 0.87503 0.47217 0.11222 0.0
C1857 C 0.86344 0.49415 0.10667 0.0
C1858 C 0.85793 0.49551 0.08135 0.0
C1859 C 0.84215 0.49736 0.12115 0.0
C1860 C 0.88181 0.51077 0.11322 0.0
C1861 C 0.90087 0.49987 0.12089 0.0
C1862 C 0.91992 0.51165 0.12825 0.0
C1863 C 0.9194 0.53526 0.12793 0.0
C1864 C 0.89991 0.54679 0.12047 0.0
C1865 C 0.88096 0.5343 0.11288 0.0
H1866 H 0.93575 0.36665 0.61248 0.0
H1867 H 0.92518 0.43281 0.64214 0.0
H1868 H 0.96634 0.43961 0.642 0.0
H1869 H 0.98408 0.35297 0.6435 0.0
H1870 H 0.99806 0.33859 0.62065 0.0
H1871 H 0.96772 0.3397 0.62141 0.0
H1872 H 0.96724 0.35746 0.58152 0.0
H1873 H 0.99763 0.35635 0.58061 0.0
H1874 H 0.98336 0.38275 0.5763 0.0
H1875 H 0.00876 0.43779 0.64166 0.0
H1876 H 0.04922 0.42787 0.64006 0.0
H1877 H 0.03167 0.36338 0.60971 0.0
C1878 C 0.94204 0.38269 0.61869 0.0
C1879 C 0.92727 0.3992 0.62733 0.0
C1880 C 0.93619 0.41993 0.63538 0.0
C1881 C 0.95953 0.42397 0.63536 0.0
C1882 C 0.97365 0.40719 0.62702 0.0
C1883 C 0.96523 0.38704 0.61866 0.0
C1884 C 0.98401 0.37142 0.61148 0.0
C1885 C 0.98343 0.34938 0.62508 0.0
C1886 C 0.983 0.36673 0.58596 0.0
C1887 C 0.00434 0.3857 0.6176 0.0
C1888 C 0.99805 0.40632 0.62645 0.0
C1889 C 0.01391 0.42183 0.63447 0.0
C1890 C 0.03682 0.41603 0.63354 0.0
C1891 C 0.04357 0.39494 0.62462 0.0
C1892 C 0.02707 0.37977 0.61633 0.0
H1893 H 0.0712 0.60242 0.57775 0.0
H1894 H 0.07962 0.56451 0.63964 0.0
H1895 H 0.03871 0.55615 0.6399 0.0
H1896 H 0.0229 0.62915 0.5931 0.0
H1897 H 0.00979 0.6287 0.56563 0.0
H1898 H 0.04001 0.62809 0.56798 0.0
H1899 H 0.04113 0.59124 0.54435 0.0
H1900 H 0.0108 0.59179 0.5418 0.0
H1901 H 0.02457 0.56725 0.55306 0.0
H1902 H 0.9965 0.55708 0.63661 0.0
H1903 H 0.9566 0.56683 0.62987 0.0
H1904 H 0.97603 0.6039 0.56996 0.0
C1905 C 0.0646 0.59182 0.59105 0.0
C1906 C 0.07861 0.58407 0.60866 0.0
C1907 C 0.06922 0.57052 0.6259 0.0
C1908 C 0.04601 0.56564 0.62615 0.0
C1909 C 0.03255 0.57422 0.60891 0.0
C1910 C 0.04156 0.58684 0.59155 0.0
C1911 C 0.02331 0.59608 0.57633 0.0
C1912 C 0.02406 0.62203 0.57575 0.0
C1913 C 0.02506 0.58598 0.55247 0.0
C1914 C 0.00253 0.58753 0.58839 0.0
C1915 C 0.00818 0.57466 0.60694 0.0
C1916 C 0.99186 0.56671 0.62186 0.0
C1917 C 0.96925 0.5724 0.61793 0.0
C1918 C 0.96321 0.586 0.5993 0.0
C1919 C 0.98006 0.59314 0.58409 0.0
H1920 H 0.96157 0.06762 0.39847 0.0
H1921 H 0.94419 0.10605 0.33888 0.0
H1922 H 0.98478 0.1093 0.32939 0.0
H1923 H 0.0066 0.10056 0.41438 0.0
H1924 H 0.02373 0.07791 0.42497 0.0
H1925 H 0.99351 0.07513 0.42471 0.0
H1926 H 0.99666 0.0383 0.40127 0.0
H1927 H 0.02699 0.04092 0.40152 0.0
H1928 H 0.01209 0.03844 0.37508 0.0
H1929 H 0.02779 0.11222 0.32911 0.0
H1930 H 0.06832 0.11567 0.33873 0.0
H1931 H 0.05701 0.07614 0.39909 0.0
C1932 C 0.96615 0.07614 0.38302 0.0
C1933 C 0.94955 0.08637 0.36929 0.0
C1934 C 0.9565 0.09785 0.34955 0.0
C1935 C 0.97956 0.09977 0.34402 0.0
C1936 C 0.99551 0.09008 0.35836 0.0
C1937 C 0.98902 0.07838 0.37741 0.0
C1938 C 0.0093 0.07157 0.3914 0.0
C1939 C 0.00821 0.08192 0.41526 0.0
C1940 C 0.01138 0.04577 0.39237 0.0
C1941 C 0.02824 0.08187 0.37769 0.0
C1942 C 0.02006 0.09213 0.35846 0.0
C1943 C 0.03436 0.10395 0.34396 0.0
C1944 C 0.05743 0.10577 0.34953 0.0
C1945 C 0.06598 0.09608 0.36962 0.0
C1946 C 0.05115 0.08355 0.38349 0.0
H1947 H 0.35397 0.45157 0.83231 0.0
H1948 H 0.42034 0.43286 0.8567 0.0
H1949 H 0.43253 0.47274 0.8545 0.0
H1950 H 0.37285 0.49795 0.79412 0.0
H1951 H 0.34859 0.51479 0.8011 0.0
H1952 H 0.34646 0.48448 0.80117 0.0
H1953 H 0.3321 0.48573 0.84244 0.0
H1954 H 0.33428 0.51594 0.84255 0.0
H1955 H 0.34888 0.49983 0.8637 0.0
H1956 H 0.43543 0.51562 0.85507 0.0
H1957 H 0.42901 0.55676 0.8574 0.0
H1958 H 0.36096 0.54685 0.83191 0.0
C1959 C 0.37129 0.45569 0.83658 0.0
C1960 C 0.38622 0.43898 0.84458 0.0
C1961 C 0.40863 0.44526 0.85031 0.0
C1962 C 0.4157 0.46792 0.84914 0.0
C1963 C 0.40026 0.48409 0.84194 0.0
C1964 C 0.37859 0.47815 0.83547 0.0
C1965 C 0.36458 0.49875 0.83018 0.0
C1966 C 0.35772 0.499 0.80515 0.0
C1967 C 0.34375 0.50013 0.84564 0.0
C1968 C 0.38144 0.51731 0.83547 0.0
C1969 C 0.40202 0.50859 0.842 0.0
C1970 C 0.41952 0.5226 0.84953 0.0
C1971 C 0.41573 0.54598 0.8508 0.0
C1972 C 0.39456 0.55517 0.84463 0.0
C1973 C 0.37749 0.54054 0.83636 0.0
H1974 H 0.05718 0.94129 0.38688 0.0
H1975 H 0.07222 0.90073 0.32775 0.0
H1976 H 0.03147 0.89899 0.31856 0.0
H1977 H 0.01026 0.91148 0.40352 0.0
H1978 H 0.99446 0.93544 0.41343 0.0
H1979 H 0.02479 0.93649 0.41324 0.0
H1980 H 0.02376 0.97258 0.38881 0.0
H1981 H 0.99334 0.97173 0.38903 0.0
H1982 H 0.00831 0.97239 0.36258 0.0
H1983 H 0.98825 0.89759 0.31881 0.0
H1984 H 0.94755 0.89708 0.32828 0.0
H1985 H 0.96134 0.93871 0.38713 0.0
C1986 C 0.05205 0.93256 0.37161 0.0
C1987 C 0.06806 0.92127 0.35797 0.0
C1988 C 0.06041 0.90972 0.33838 0.0
C1989 C 0.03723 0.90861 0.33303 0.0
C1990 C 0.02185 0.91931 0.34731 0.0
C1991 C 0.02905 0.93128 0.36608 0.0
C1992 C 0.00921 0.93975 0.37978 0.0
C1993 C 0.00972 0.93021 0.40391 0.0
C1994 C 0.00863 0.96565 0.38006 0.0
C1995 C 0.98968 0.93005 0.36627 0.0
C1996 C 0.99721 0.91853 0.34743 0.0
C1997 C 0.9822 0.9069 0.33332 0.0
C1998 C 0.95906 0.90671 0.33882 0.0
C1999 C 0.95108 0.91798 0.35837 0.0
C2000 C 0.9667 0.93016 0.37189 0.0
H2001 H 0.64187 0.44502 0.82227 0.0
H2002 H 0.58108 0.43098 0.86055 0.0
H2003 H 0.57228 0.47168 0.86111 0.0
H2004 H 0.65798 0.49172 0.85233 0.0
H2005 H 0.66915 0.50729 0.82877 0.0
H2006 H 0.66847 0.47702 0.82784 0.0
H2007 H 0.64553 0.47811 0.79058 0.0
H2008 H 0.64628 0.50848 0.7913 0.0
H2009 H 0.6196 0.49384 0.78946 0.0
H2010 H 0.57316 0.5146 0.86213 0.0
H2011 H 0.5834 0.55507 0.86309 0.0
H2012 H 0.64369 0.54059 0.82425 0.0
C2013 C 0.62631 0.45034 0.83017 0.0
C2014 C 0.61209 0.43466 0.84123 0.0
C2015 C 0.59214 0.44255 0.85176 0.0
C2016 C 0.58702 0.4657 0.85218 0.0
C2017 C 0.60189 0.48077 0.84186 0.0
C2018 C 0.62102 0.47332 0.83083 0.0
C2019 C 0.63544 0.49291 0.82292 0.0
C2020 C 0.65915 0.49218 0.83361 0.0
C2021 C 0.63678 0.49336 0.79703 0.0
C2022 C 0.62189 0.51258 0.83188 0.0
C2023 C 0.60243 0.50532 0.8425 0.0
C2024 C 0.58815 0.52045 0.85349 0.0
C2025 C 0.59411 0.54345 0.85395 0.0
C2026 C 0.61428 0.55115 0.84361 0.0
C2027 C 0.62799 0.53543 0.83206 0.0
H2028 H 0.93843 0.89894 0.63397 0.0
H2029 H 0.93815 0.8627 0.69733 0.0
H2030 H 0.97908 0.86985 0.70151 0.0
H2031 H 0.98646 0.87553 0.61396 0.0
H2032 H 0.99713 0.90013 0.5997 0.0
H2033 H 0.96731 0.8969 0.60415 0.0
H2034 H 0.96608 0.93543 0.6248 0.0
H2035 H 0.99597 0.93894 0.62024 0.0
H2036 H 0.98465 0.94066 0.6484 0.0
H2037 H 0.02092 0.87548 0.6957 0.0
H2038 H 0.05952 0.87858 0.68018 0.0
H2039 H 0.03247 0.9103 0.62017 0.0
C2040 C 0.94676 0.89328 0.64918 0.0
C2041 C 0.93498 0.88047 0.66546 0.0
C2042 C 0.94675 0.87275 0.68475 0.0
C2043 C 0.97002 0.87676 0.68727 0.0
C2044 C 0.98135 0.88855 0.67039 0.0
C2045 C 0.97004 0.89686 0.65177 0.0
C2046 C 0.98641 0.90636 0.6346 0.0
C2047 C 0.98419 0.89398 0.61177 0.0
C2048 C 0.98308 0.93187 0.63186 0.0
C2049 C 0.00872 0.90128 0.646 0.0
C2050 C 0.00549 0.89142 0.66683 0.0
C2051 C 0.02364 0.88359 0.67961 0.0
C2052 C 0.04555 0.88543 0.67066 0.0
C2053 C 0.04914 0.89479 0.649 0.0
C2054 C 0.03043 0.90333 0.6369 0.0
H2055 H 0.64995 0.45936 0.13906 0.0
H2056 H 0.58091 0.44606 0.15944 0.0
H2057 H 0.57528 0.48709 0.16578 0.0
H2058 H 0.66113 0.50712 0.1777 0.0
H2059 H 0.67778 0.52153 0.15676 0.0
H2060 H 0.67684 0.49117 0.15713 0.0
H2061 H 0.66375 0.49077 0.11535 0.0
H2062 H 0.66461 0.52103 0.11486 0.0
H2063 H 0.63893 0.50634 0.10741 0.0
H2064 H 0.57668 0.53089 0.16571 0.0
H2065 H 0.58464 0.57138 0.15828 0.0
H2066 H 0.65256 0.55413 0.13763 0.0
C2067 C 0.63371 0.46492 0.14529 0.0
C2068 C 0.61587 0.44946 0.14878 0.0
C2069 C 0.59489 0.45757 0.15681 0.0
C2070 C 0.59157 0.48085 0.16045 0.0
C2071 C 0.60947 0.49571 0.1562 0.0
C2072 C 0.63018 0.48787 0.14895 0.0
C2073 C 0.6463 0.50695 0.14374 0.0
C2074 C 0.66672 0.50667 0.1598 0.0
C2075 C 0.65382 0.50622 0.11887 0.0
C2076 C 0.63129 0.52691 0.14844 0.0
C2077 C 0.6102 0.52031 0.15597 0.0
C2078 C 0.59326 0.53615 0.16011 0.0
C2079 C 0.59792 0.55912 0.15594 0.0
C2080 C 0.61921 0.56588 0.1474 0.0
C2081 C 0.63612 0.54952 0.1442 0.0
H2082 H 0.95564 0.13487 0.67549 0.0
H2083 H 0.93323 0.06984 0.65007 0.0
H2084 H 0.97293 0.05738 0.64782 0.0
H2085 H 1.00063 0.14131 0.64035 0.0
H2086 H 0.01927 0.15456 0.66054 0.0
H2087 H 0.98923 0.15693 0.66384 0.0
H2088 H 0.99204 0.1403 0.70409 0.0
H2089 H 0.02222 0.13801 0.70098 0.0
H2090 H 0.00566 0.11353 0.70822 0.0
H2091 H 0.01516 0.05476 0.64164 0.0
H2092 H 0.05589 0.06132 0.63477 0.0
H2093 H 0.05073 0.12723 0.66613 0.0
C2094 C 0.95901 0.11774 0.67013 0.0
C2095 C 0.94126 0.10331 0.66305 0.0
C2096 C 0.94646 0.08113 0.65584 0.0
C2097 C 0.96901 0.07392 0.65445 0.0
C2098 C 0.98617 0.08892 0.66073 0.0
C2099 C 0.98137 0.11024 0.66885 0.0
C2100 C 0.00279 0.12379 0.67282 0.0
C2101 C 0.00298 0.14541 0.65853 0.0
C2102 C 0.00585 0.12922 0.69803 0.0
C2103 C 0.02038 0.10716 0.66474 0.0
C2104 C 0.01051 0.08707 0.65794 0.0
C2105 C 0.02312 0.07016 0.64751 0.0
C2106 C 0.04625 0.07403 0.64364 0.0
C2107 C 0.05661 0.09456 0.65035 0.0
C2108 C 0.0435 0.11105 0.66149 0.0
H2109 H 0.34516 0.55429 0.16255 0.0
H2110 H 0.41705 0.56608 0.15463 0.0
H2111 H 0.42385 0.52515 0.15813 0.0
H2112 H 0.34916 0.50521 0.20182 0.0
H2113 H 0.32548 0.49136 0.18844 0.0
H2114 H 0.32687 0.5217 0.18949 0.0
H2115 H 0.32262 0.52313 0.14599 0.0
H2116 H 0.32135 0.4929 0.14478 0.0
H2117 H 0.34226 0.50786 0.12854 0.0
H2118 H 0.42207 0.48233 0.15697 0.0
H2119 H 0.41184 0.44226 0.15101 0.0
H2120 H 0.34112 0.459 0.15946 0.0
C2121 C 0.36244 0.54842 0.16227 0.0
C2122 C 0.38058 0.5635 0.15847 0.0
C2123 C 0.40287 0.55494 0.15773 0.0
C2124 C 0.4069 0.53168 0.15971 0.0
C2125 C 0.3885 0.51719 0.16261 0.0
C2126 C 0.36671 0.52532 0.16409 0.0
C2127 C 0.34961 0.50628 0.16483 0.0
C2128 C 0.33704 0.50613 0.1875 0.0
C2129 C 0.333 0.50763 0.14485 0.0
C2130 C 0.36505 0.48615 0.16267 0.0
C2131 C 0.38746 0.49268 0.16177 0.0
C2132 C 0.4046 0.47703 0.15807 0.0
C2133 C 0.39863 0.45426 0.15471 0.0
C2134 C 0.37568 0.44738 0.15487 0.0
C2135 C 0.35885 0.46357 0.15949 0.0
H2136 H 0.32393 0.05178 0.16242 0.0
H2137 H 0.3348 0.06508 0.09132 0.0
H2138 H 0.32923 0.02458 0.08287 0.0
H2139 H 0.35499 0.00365 0.16472 0.0
H2140 H 0.33714 0.98898 0.18446 0.0
H2141 H 0.33775 0.01925 0.18431 0.0
H2142 H 0.29438 0.02008 0.1785 0.0
H2143 H 0.29361 0.9897 0.17874 0.0
H2144 H 0.28193 0.00483 0.15518 0.0
H2145 H 0.32833 0.9818 0.0831 0.0
H2146 H 0.33198 0.94129 0.09201 0.0
H2147 H 0.32142 0.95643 0.1629 0.0
C2148 C 0.32446 0.04636 0.14496 0.0
C2149 C 0.32968 0.06171 0.12753 0.0
C2150 C 0.33062 0.05373 0.10497 0.0
C2151 C 0.32747 0.03072 0.1 0.0
C2152 C 0.32316 0.01591 0.11773 0.0
C2153 C 0.32141 0.02351 0.13975 0.0
C2154 C 0.31894 0.00409 0.15606 0.0
C2155 C 0.33836 0.004 0.17339 0.0
C2156 C 0.29584 0.00472 0.16781 0.0
C2157 C 0.32048 0.9843 0.13994 0.0
C2158 C 0.32259 0.99138 0.11785 0.0
C2159 C 0.32623 0.97608 0.10029 0.0
C2160 C 0.32828 0.95306 0.10551 0.0
C2161 C 0.32683 0.94557 0.12814 0.0
C2162 C 0.32226 0.96146 0.14538 0.0
H2163 H 0.45016 0.86305 0.65523 0.0
H2164 H 0.43442 0.84605 0.58577 0.0
H2165 H 0.47488 0.83731 0.57901 0.0
H2166 H 0.50042 0.8909 0.64546 0.0
H2167 H 0.51451 0.88081 0.6704 0.0
H2168 H 0.48427 0.88312 0.67001 0.0
H2169 H 0.48045 0.84093 0.68058 0.0
H2170 H 0.51076 0.83851 0.68115 0.0
H2171 H 0.49423 0.8199 0.66349 0.0
H2172 H 0.5186 0.83547 0.57925 0.0
H2173 H 0.55972 0.83831 0.58705 0.0
H2174 H 0.54513 0.85484 0.65688 0.0
C2175 C 0.45511 0.85705 0.63868 0.0
C2176 C 0.43919 0.85521 0.62101 0.0
C2177 C 0.44634 0.84735 0.5996 0.0
C2178 C 0.46929 0.84245 0.59562 0.0
C2179 C 0.48471 0.84508 0.61336 0.0
C2180 C 0.47771 0.85184 0.63458 0.0
C2181 C 0.4974 0.8544 0.65068 0.0
C2182 C 0.49925 0.87875 0.65965 0.0
C2183 C 0.4956 0.83742 0.67012 0.0
C2184 C 0.51678 0.84873 0.63514 0.0
C2185 C 0.50929 0.84334 0.61366 0.0
C2186 C 0.52453 0.83924 0.59614 0.0
C2187 C 0.54788 0.8409 0.60071 0.0
C2188 C 0.55576 0.84654 0.62263 0.0
C2189 C 0.53983 0.8501 0.64001 0.0
H2190 H 0.6531 0.05857 0.14862 0.0
H2191 H 0.63498 0.07089 0.07882 0.0
H2192 H 0.63735 0.02993 0.07093 0.0
H2193 H 0.69104 0.00956 0.13885 0.0
H2194 H 0.68091 0.99562 0.16386 0.0
H2195 H 0.68184 0.02597 0.16278 0.0
H2196 H 0.63927 0.02744 0.17268 0.0
H2197 H 0.63818 0.99721 0.1737 0.0
H2198 H 0.6193 0.01223 0.1553 0.0
H2199 H 0.63712 0.98684 0.0721 0.0
H2200 H 0.63281 0.94667 0.08247 0.0
H2201 H 0.64996 0.96334 0.15176 0.0
C2202 C 0.65029 0.05283 0.13147 0.0
C2203 C 0.64406 0.06807 0.11428 0.0
C2204 C 0.64002 0.05963 0.09222 0.0
C2205 C 0.64134 0.03636 0.08759 0.0
C2206 C 0.6468 0.02174 0.10517 0.0
C2207 C 0.65131 0.02975 0.12666 0.0
C2208 C 0.65429 0.01066 0.14325 0.0
C2209 C 0.67846 0.01044 0.15274 0.0
C2210 C 0.63671 0.01197 0.16234 0.0
C2211 C 0.65003 0.99058 0.12798 0.0
C2212 C 0.64616 0.99719 0.10597 0.0
C2213 C 0.64045 0.98152 0.08922 0.0
C2214 C 0.63811 0.95869 0.09526 0.0
C2215 C 0.64113 0.95179 0.11793 0.0
C2216 C 0.64772 0.96798 0.13425 0.0
H2217 H 0.54428 0.15636 0.6572 0.0
H2218 H 0.55862 0.13756 0.58788 0.0
H2219 H 0.51814 0.14164 0.57845 0.0
H2220 H 0.49566 0.1253 0.66224 0.0
H2221 H 0.48084 0.1452 0.6798 0.0
H2222 H 0.51116 0.14462 0.68009 0.0
H2223 H 0.51252 0.18699 0.66976 0.0
H2224 H 0.4821 0.18775 0.66955 0.0
H2225 H 0.49771 0.19672 0.64508 0.0
H2226 H 0.47514 0.14273 0.57802 0.0
H2227 H 0.43431 0.14085 0.58661 0.0
H2228 H 0.44862 0.15889 0.65623 0.0
C2229 C 0.5391 0.15373 0.63985 0.0
C2230 C 0.55476 0.14677 0.62326 0.0
C2231 C 0.54705 0.14311 0.60087 0.0
C2232 C 0.52404 0.14538 0.59536 0.0
C2233 C 0.50895 0.15151 0.61236 0.0
C2234 C 0.51626 0.15584 0.63412 0.0
C2235 C 0.49658 0.1601 0.64984 0.0
C2236 C 0.49604 0.14277 0.66911 0.0
C2237 C 0.49727 0.18434 0.6591 0.0
C2238 C 0.47695 0.15673 0.63375 0.0
C2239 C 0.48436 0.15208 0.61212 0.0
C2240 C 0.46919 0.14675 0.59481 0.0
C2241 C 0.44599 0.14573 0.59985 0.0
C2242 C 0.43813 0.14987 0.62207 0.0
C2243 C 0.45393 0.15594 0.639 0.0
H2244 H 0.40342 0.03927 0.9111 0.0
H2245 H 0.33385 0.05649 0.89721 0.0
H2246 H 0.32236 0.01696 0.90501 0.0
H2247 H 0.40403 0.98812 0.88504 0.0
H2248 H 0.42183 0.97417 0.90528 0.0
H2249 H 0.42375 0.00419 0.90194 0.0
H2250 H 0.41583 0.0099 0.94458 0.0
H2251 H 0.41407 0.97979 0.94812 0.0
H2252 H 0.39098 0.99741 0.95695 0.0
H2253 H 0.32021 0.97377 0.90728 0.0
H2254 H 0.32701 0.93253 0.90757 0.0
H2255 H 0.39753 0.94497 0.9231 0.0
C2256 C 0.38566 0.03486 0.91042 0.0
C2257 C 0.36947 0.05085 0.90371 0.0
C2258 C 0.34643 0.04451 0.90269 0.0
C2259 C 0.33981 0.02208 0.90698 0.0
C2260 C 0.35639 0.00645 0.91284 0.0
C2261 C 0.37879 0.01279 0.91512 0.0
C2262 C 0.39364 0.9928 0.9203 0.0
C2263 C 0.41187 0.98964 0.90205 0.0
C2264 C 0.40425 0.99512 0.9439 0.0
C2265 C 0.37635 0.97397 0.9196 0.0
C2266 C 0.35491 0.98204 0.9153 0.0
C2267 C 0.3368 0.96736 0.91132 0.0
C2268 C 0.34079 0.94396 0.91149 0.0
C2269 C 0.36268 0.93547 0.91584 0.0
C2270 C 0.38044 0.95081 0.92044 0.0
H2271 H 0.55899 0.9001 0.42795 0.0
H2272 H 0.5718 0.83878 0.39003 0.0
H2273 H 0.53106 0.82943 0.39131 0.0
H2274 H 0.51226 0.87804 0.46343 0.0
H2275 H 0.49711 0.90426 0.4619 0.0
H2276 H 0.52752 0.90426 0.46079 0.0
H2277 H 0.52616 0.92603 0.423 0.0
H2278 H 0.49583 0.92602 0.42393 0.0
H2279 H 0.51017 0.91453 0.3997 0.0
H2280 H 0.48792 0.82923 0.39297 0.0
H2281 H 0.44721 0.83829 0.39469 0.0
H2282 H 0.46312 0.89977 0.43144 0.0
C2283 C 0.55341 0.88435 0.42046 0.0
C2284 C 0.56877 0.87007 0.40908 0.0
C2285 C 0.5605 0.8499 0.39907 0.0
C2286 C 0.53733 0.84446 0.3997 0.0
C2287 C 0.52257 0.85927 0.4105 0.0
C2288 C 0.53038 0.87874 0.42084 0.0
C2289 C 0.51102 0.89288 0.42963 0.0
C2290 C 0.51204 0.89498 0.45547 0.0
C2291 C 0.51079 0.91623 0.41839 0.0
C2292 C 0.49102 0.87865 0.42217 0.0
C2293 C 0.49795 0.8592 0.41136 0.0
C2294 C 0.48236 0.84424 0.40173 0.0
C2295 C 0.45921 0.84952 0.40281 0.0
C2296 C 0.4518 0.86966 0.41336 0.0
C2297 C 0.46805 0.88406 0.42354 0.0
H2298 H 0.65838 0.04385 0.86391 0.0
H2299 H 0.63803 0.0534 0.93334 0.0
H2300 H 0.64512 0.01285 0.94083 0.0
H2301 H 0.63249 0.99355 0.85499 0.0
H2302 H 0.65408 0.98132 0.83746 0.0
H2303 H 0.65109 0.0114 0.83885 0.0
H2304 H 0.69294 0.0156 0.85108 0.0
H2305 H 0.69616 0.98545 0.84947 0.0
H2306 H 0.70311 1.00026 0.8752 0.0
H2307 H 0.64772 0.96961 0.93812 0.0
H2308 H 0.64874 0.92939 0.92653 0.0
H2309 H 0.66984 0.94941 0.8595 0.0
C2310 C 0.65635 0.03755 0.88092 0.0
C2311 C 0.64813 0.0517 0.8982 0.0
C2312 C 0.64491 0.04287 0.92008 0.0
C2313 C 0.64875 0.01984 0.92439 0.0
C2314 C 0.65621 0.00608 0.9067 0.0
C2315 C 0.66047 0.01483 0.88552 0.0
C2316 C 0.66679 0.99651 0.86887 0.0
C2317 C 0.65012 0.99565 0.84888 0.0
C2318 C 0.6912 0.99964 0.86068 0.0
C2319 C 0.66453 0.9759 0.88363 0.0
C2320 C 0.65847 0.98161 0.90543 0.0
C2321 C 0.65308 0.96504 0.92127 0.0
C2322 C 0.65368 0.94221 0.91455 0.0
C2323 C 0.65977 0.93613 0.89222 0.0
C2324 C 0.66571 0.95332 0.87687 0.0
H2325 H 0.46779 0.12659 0.41938 0.0
H2326 H 0.4451 0.18861 0.38837 0.0
H2327 H 0.48479 0.20136 0.38517 0.0
H2328 H 0.51732 0.15047 0.45011 0.0
H2329 H 0.53413 0.12585 0.44446 0.0
H2330 H 0.50395 0.12322 0.44743 0.0
H2331 H 0.50159 0.10393 0.40817 0.0
H2332 H 0.53168 0.10654 0.40506 0.0
H2333 H 0.51318 0.11812 0.38395 0.0
H2334 H 0.52713 0.20513 0.38099 0.0
H2335 H 0.5681 0.19948 0.37585 0.0
H2336 H 0.56309 0.13494 0.40959 0.0
C2337 C 0.47105 0.14316 0.41251 0.0
C2338 C 0.4532 0.1567 0.40434 0.0
C2339 C 0.45839 0.17802 0.39495 0.0
C2340 C 0.48092 0.18541 0.39308 0.0
C2341 C 0.49811 0.17134 0.40075 0.0
C2342 C 0.4934 0.1507 0.41039 0.0
C2343 C 0.51489 0.13781 0.41536 0.0
C2344 C 0.51774 0.13413 0.44086 0.0
C2345 C 0.51535 0.11528 0.40236 0.0
C2346 C 0.53246 0.15414 0.40647 0.0
C2347 C 0.52248 0.1735 0.39833 0.0
C2348 C 0.53513 0.19022 0.38768 0.0
C2349 C 0.55843 0.18686 0.38483 0.0
C2350 C 0.56893 0.16691 0.39256 0.0
C2351 C 0.55574 0.15063 0.40399 0.0
H2352 H 0.11487 0.35805 0.96271 0.0
H2353 H 0.04653 0.37989 0.94854 0.0
H2354 H 0.03707 0.37635 0.98894 0.0
H2355 H 0.10078 0.31838 0.00964 0.0
H2356 H 0.12561 0.32641 0.02544 0.0
H2357 H 0.12601 0.3271 0.99503 0.0
H2358 H 0.13837 0.36904 0.99636 0.0
H2359 H 0.13795 0.36848 0.02669 0.0
H2360 H 0.12145 0.38905 0.01175 0.0
H2361 H 0.03641 0.37543 0.03126 0.0
H2362 H 0.04474 0.37749 0.07207 0.0
H2363 H 0.11343 0.35608 0.05903 0.0
C2364 C 0.0977 0.36138 0.96798 0.0
C2365 C 0.08135 0.36901 0.95236 0.0
C2366 C 0.05929 0.37386 0.96012 0.0
C2367 C 0.05374 0.37185 0.98305 0.0
C2368 C 0.07041 0.36491 0.99811 0.0
C2369 C 0.09194 0.35963 0.99088 0.0
C2370 C 0.10735 0.35477 0.01075 0.0
C2371 C 0.11541 0.3302 0.01018 0.0
C2372 C 0.12745 0.37132 0.01142 0.0
C2373 C 0.09133 0.35882 0.03028 0.0
C2374 C 0.07003 0.36438 0.02262 0.0
C2375 C 0.05291 0.37067 0.03746 0.0
C2376 C 0.0578 0.37181 0.06064 0.0
C2377 C 0.07965 0.36669 0.06885 0.0
C2378 C 0.09641 0.35958 0.05341 0.0
H2379 H 0.13805 0.66539 0.91825 0.0
H2380 H 0.06772 0.64497 0.91459 0.0
H2381 H 0.0644 0.64956 0.95589 0.0
H2382 H 0.15085 0.63536 0.96607 0.0
H2383 H 0.16997 0.65583 0.97818 0.0
H2384 H 0.16588 0.65474 0.94812 0.0
H2385 H 0.1546 0.69687 0.94805 0.0
H2386 H 0.15882 0.69814 0.97817 0.0
H2387 H 0.13214 0.70638 0.96618 0.0
H2388 H 0.07013 0.65144 0.99826 0.0
H2389 H 0.08439 0.65096 0.03754 0.0
H2390 H 0.1509 0.6701 0.01347 0.0
C2391 C 0.12173 0.66266 0.92601 0.0
C2392 C 0.10307 0.65506 0.91305 0.0
C2393 C 0.08221 0.65099 0.92406 0.0
C2394 C 0.08016 0.65355 0.94756 0.0
C2395 C 0.09908 0.66029 0.95994 0.0
C2396 C 0.11943 0.66499 0.9495 0.0
C2397 C 0.13775 0.66989 0.96677 0.0
C2398 C 0.15725 0.65294 0.96465 0.0
C2399 C 0.14633 0.69427 0.96467 0.0
C2400 C 0.12473 0.66655 0.98853 0.0
C2401 C 0.10239 0.66128 0.98429 0.0
C2402 C 0.08751 0.65595 0.00176 0.0
C2403 C 0.09576 0.65571 0.02406 0.0
C2404 C 0.11873 0.66066 0.02874 0.0
C2405 C 0.13317 0.66655 0.01064 0.0
H2406 H 0.88173 0.6008 0.44646 0.0
H2407 H 0.81842 0.63624 0.43794 0.0
H2408 H 0.81078 0.63237 0.47866 0.0
H2409 H 0.8626 0.56201 0.49254 0.0
H2410 H 0.88937 0.56411 0.50692 0.0
H2411 H 0.88815 0.56635 0.47661 0.0
H2412 H 0.90877 0.60489 0.47887 0.0
H2413 H 0.90996 0.60284 0.50911 0.0
H2414 H 0.89713 0.62705 0.49615 0.0
H2415 H 0.81248 0.62954 0.52081 0.0
H2416 H 0.82321 0.62751 0.56104 0.0
H2417 H 0.88525 0.5936 0.5426 0.0
C2418 C 0.86589 0.60707 0.45301 0.0
C2419 C 0.85055 0.61863 0.43889 0.0
C2420 C 0.83036 0.62719 0.44833 0.0
C2421 C 0.82584 0.62503 0.47147 0.0
C2422 C 0.84164 0.6142 0.48505 0.0
C2423 C 0.8612 0.60519 0.47615 0.0
C2424 C 0.87641 0.59631 0.49472 0.0
C2425 C 0.87929 0.57067 0.49256 0.0
C2426 C 0.89942 0.6085 0.4947 0.0
C2427 C 0.8627 0.60239 0.51546 0.0
C2428 C 0.84258 0.61247 0.50948 0.0
C2429 C 0.82796 0.62125 0.52568 0.0
C2430 C 0.83422 0.62006 0.54851 0.0
C2431 C 0.8549 0.61012 0.55503 0.0
C2432 C 0.86906 0.60077 0.53823 0.0
H2433 H 0.85061 0.32078 0.95868 0.0
H2434 H 0.9187 0.34544 0.94738 0.0
H2435 H 0.92658 0.3424 0.98827 0.0
H2436 H 0.84055 0.35111 0.00694 0.0
H2437 H 0.82425 0.32964 0.021 0.0
H2438 H 0.82527 0.33024 0.99071 0.0
H2439 H 0.83955 0.28904 0.98996 0.0
H2440 H 0.83846 0.28825 0.02034 0.0
H2441 H 0.86436 0.28163 0.0059 0.0
H2442 H 0.925 0.34182 0.03136 0.0
H2443 H 0.91434 0.34291 0.07174 0.0
H2444 H 0.84754 0.31804 0.05425 0.0
C2445 C 0.86742 0.32494 0.96464 0.0
C2446 C 0.88406 0.33325 0.9497 0.0
C2447 C 0.90571 0.33882 0.95839 0.0
C2448 C 0.91033 0.33718 0.98164 0.0
C2449 C 0.89324 0.32967 0.99601 0.0
C2450 C 0.87229 0.32337 0.98773 0.0
C2451 C 0.85617 0.31763 0.00669 0.0
C2452 C 0.83535 0.33308 0.0063 0.0
C2453 C 0.84923 0.29265 0.00566 0.0
C2454 C 0.871 0.32245 0.02701 0.0
C2455 C 0.89241 0.32915 0.0206 0.0
C2456 C 0.90841 0.33617 0.03653 0.0
C2457 C 0.90221 0.33673 0.05948 0.0
C2458 C 0.88016 0.33038 0.06631 0.0
C2459 C 0.86465 0.32267 0.04976 0.0
H2460 H 0.12845 0.34904 0.55958 0.0
H2461 H 0.14289 0.41922 0.57476 0.0
H2462 H 0.14754 0.42666 0.53382 0.0
H2463 H 0.16609 0.3429 0.51049 0.0
H2464 H 0.14606 0.32503 0.49596 0.0
H2465 H 0.14732 0.32497 0.52634 0.0
H2466 H 0.10467 0.33439 0.52815 0.0
H2467 H 0.10327 0.3345 0.49786 0.0
H2468 H 0.09431 0.3589 0.51364 0.0
H2469 H 0.14702 0.42655 0.48998 0.0
H2470 H 0.13939 0.41933 0.4493 0.0
H2471 H 0.12402 0.34959 0.46451 0.0
C2472 C 0.1331 0.36593 0.55448 0.0
C2473 C 0.13546 0.38351 0.57051 0.0
C2474 C 0.1412 0.40541 0.56287 0.0
C2475 C 0.14388 0.40977 0.53962 0.0
C2476 C 0.14083 0.39205 0.52424 0.0
C2477 C 0.13561 0.37055 0.53153 0.0
C2478 C 0.13108 0.35472 0.51195 0.0
C2479 C 0.14869 0.33579 0.51114 0.0
C2480 C 0.1069 0.34508 0.51297 0.0
C2481 C 0.13394 0.3707 0.49238 0.0
C2482 C 0.13997 0.3921 0.49959 0.0
C2483 C 0.14253 0.40978 0.48424 0.0
C2484 C 0.13827 0.40553 0.46115 0.0
C2485 C 0.13116 0.3839 0.45375 0.0
C2486 C 0.1295 0.36629 0.46962 0.0
H2487 H 0.86017 0.65135 0.94634 0.0
H2488 H 0.9293 0.63162 0.933 0.0
H2489 H 0.93713 0.63199 0.97413 0.0
H2490 H 0.87088 0.6869 0.99673 0.0
H2491 H 0.84552 0.677 0.01031 0.0
H2492 H 0.84673 0.67874 0.97998 0.0
H2493 H 0.83557 0.63654 0.9769 0.0
H2494 H 0.83442 0.63464 0.00713 0.0
H2495 H 0.8523 0.6158 0.99137 0.0
H2496 H 0.93593 0.63096 0.0177 0.0
H2497 H 0.92525 0.62677 0.058 0.0
H2498 H 0.85664 0.64568 0.04143 0.0
C2499 C 0.87719 0.64773 0.95191 0.0
C2500 C 0.89419 0.64172 0.93631 0.0
C2501 C 0.91604 0.63654 0.94455 0.0
C2502 C 0.92064 0.63671 0.96792 0.0
C2503 C 0.90322 0.64209 0.98285 0.0
C2504 C 0.88193 0.64754 0.97504 0.0
C2505 C 0.86538 0.65039 0.99425 0.0
C2506 C 0.85662 0.67471 0.99538 0.0
C2507 C 0.84578 0.63332 0.99229 0.0
C2508 C 0.88046 0.64521 0.01416 0.0
C2509 C 0.90235 0.64083 0.00745 0.0
C2510 C 0.91888 0.63461 0.02308 0.0
C2511 C 0.91272 0.63236 0.04596 0.0
C2512 C 0.89014 0.63595 0.05288 0.0
C2513 C 0.87407 0.6429 0.03673 0.0
H2514 H 0.81518 0.34852 0.45854 0.0
H2515 H 0.8483 0.41229 0.44446 0.0
H2516 H 0.84751 0.42178 0.48511 0.0
H2517 H 0.77953 0.36856 0.50629 0.0
H2518 H 0.78328 0.34262 0.52153 0.0
H2519 H 0.78343 0.34247 0.49111 0.0
H2520 H 0.82263 0.32327 0.49137 0.0
H2521 H 0.82263 0.32342 0.52171 0.0
H2522 H 0.84562 0.33638 0.50658 0.0
H2523 H 0.84725 0.42216 0.52809 0.0
H2524 H 0.84775 0.41318 0.56885 0.0
H2525 H 0.81471 0.34927 0.55447 0.0
C2526 C 0.82167 0.36479 0.46386 0.0
C2527 C 0.83162 0.37973 0.44816 0.0
C2528 C 0.84041 0.40061 0.45605 0.0
C2529 C 0.84003 0.40616 0.47916 0.0
C2530 C 0.83068 0.39075 0.49426 0.0
C2531 C 0.82151 0.37054 0.48685 0.0
C2532 C 0.81429 0.35599 0.50655 0.0
C2533 C 0.7886 0.35219 0.50635 0.0
C2534 C 0.82706 0.33345 0.50654 0.0
C2535 C 0.82141 0.37084 0.52622 0.0
C2536 C 0.83059 0.39094 0.51886 0.0
C2537 C 0.83975 0.40661 0.53402 0.0
C2538 C 0.83993 0.40139 0.55719 0.0
C2539 C 0.83113 0.38059 0.56502 0.0
C2540 C 0.82131 0.36546 0.54922 0.0
H2541 H 0.18354 0.65606 0.5251 0.0
H2542 H 0.15854 0.58796 0.53474 0.0
H2543 H 0.16164 0.58096 0.49366 0.0
H2544 H 0.1535 0.66722 0.47678 0.0
H2545 H 0.17524 0.68367 0.46329 0.0
H2546 H 0.17427 0.68204 0.49355 0.0
H2547 H 0.21549 0.6676 0.4943 0.0
H2548 H 0.21662 0.66928 0.46396 0.0
H2549 H 0.22297 0.64311 0.47788 0.0
H2550 H 0.16249 0.58346 0.45045 0.0
H2551 H 0.16194 0.59498 0.4103 0.0
H2552 H 0.18728 0.66102 0.42968 0.0
C2553 C 0.17929 0.63944 0.51872 0.0
C2554 C 0.1709 0.62253 0.53328 0.0
C2555 C 0.16522 0.60114 0.52405 0.0
C2556 C 0.16689 0.59702 0.50067 0.0
C2557 C 0.17453 0.61435 0.48671 0.0
C2558 C 0.18092 0.63505 0.49552 0.0
C2559 C 0.18696 0.65148 0.47696 0.0
C2560 C 0.17157 0.67232 0.4777 0.0
C2561 C 0.212 0.65826 0.47836 0.0
C2562 C 0.18229 0.6371 0.45628 0.0
C2563 C 0.17532 0.61565 0.46213 0.0
C2564 C 0.16836 0.60008 0.44573 0.0
C2565 C 0.16814 0.60675 0.42291 0.0
C2566 C 0.17478 0.62884 0.41666 0.0
C2567 C 0.18243 0.64389 0.43368 0.0
H2568 H 0.30675 0.1141 0.41844 0.0
H2569 H 0.3193 0.16391 0.3665 0.0
H2570 H 0.27854 0.16427 0.35734 0.0
H2571 H 0.26522 0.08258 0.38912 0.0
H2572 H 0.24795 0.07719 0.41354 0.0
H2573 H 0.27789 0.08156 0.41678 0.0
H2574 H 0.27069 0.11411 0.44513 0.0
H2575 H 0.24073 0.10958 0.44227 0.0
H2576 H 0.25263 0.13708 0.43706 0.0
H2577 H 0.23643 0.15698 0.35204 0.0
H2578 H 0.19605 0.14642 0.35439 0.0
H2579 H 0.21106 0.10228 0.41058 0.0
C2580 C 0.30092 0.12536 0.40536 0.0
C2581 C 0.31631 0.13902 0.39322 0.0
C2582 C 0.30789 0.15344 0.37619 0.0
C2583 C 0.28476 0.15363 0.37074 0.0
C2584 C 0.27017 0.13947 0.38261 0.0
C2585 C 0.27789 0.12592 0.39986 0.0
C2586 C 0.25875 0.11237 0.41015 0.0
C2587 C 0.2627 0.08692 0.40721 0.0
C2588 C 0.25551 0.11867 0.43513 0.0
C2589 C 0.23906 0.12023 0.39588 0.0
C2590 C 0.246 0.13571 0.37994 0.0
C2591 C 0.23082 0.14499 0.36458 0.0
C2592 C 0.20791 0.13875 0.36593 0.0
C2593 C 0.2003 0.1235 0.38266 0.0
C2594 C 0.21626 0.11398 0.3976 0.0
H2595 H 0.35649 0.69679 0.84735 0.0
H2596 H 0.41644 0.6867 0.88824 0.0
H2597 H 0.4164 0.72715 0.89854 0.0
H2598 H 0.37174 0.75281 0.82679 0.0
H2599 H 0.34299 0.7626 0.82769 0.0
H2600 H 0.34871 0.73321 0.82275 0.0
H2601 H 0.32324 0.7228 0.85669 0.0
H2602 H 0.31776 0.75217 0.86198 0.0
H2603 H 0.32922 0.73482 0.88406 0.0
H2604 H 0.4083 0.7686 0.90617 0.0
H2605 H 0.39516 0.80806 0.90737 0.0
H2606 H 0.3406 0.7907 0.86137 0.0
C2607 C 0.36987 0.7031 0.85818 0.0
C2608 C 0.38652 0.68849 0.86691 0.0
C2609 C 0.40359 0.69752 0.88117 0.0
C2610 C 0.40362 0.72047 0.88724 0.0
C2611 C 0.38654 0.73423 0.87886 0.0
C2612 C 0.37017 0.72592 0.86436 0.0
C2613 C 0.35356 0.74412 0.85781 0.0
C2614 C 0.35431 0.74844 0.83225 0.0
C2615 C 0.32953 0.73811 0.86561 0.0
C2616 C 0.36301 0.76397 0.871 0.0
C2617 C 0.38198 0.75794 0.88312 0.0
C2618 C 0.39352 0.77349 0.89665 0.0
C2619 C 0.38582 0.79587 0.89734 0.0
C2620 C 0.36679 0.80258 0.88452 0.0
C2621 C 0.35514 0.7862 0.87146 0.0
H2622 H 0.71774 0.87257 0.34664 0.0
H2623 H 0.69499 0.90005 0.41063 0.0
H2624 H 0.73413 0.91189 0.41946 0.0
H2625 H 0.7715 0.85121 0.36758 0.0
H2626 H 0.78635 0.85785 0.34192 0.0
H2627 H 0.75666 0.8512 0.34099 0.0
H2628 H 0.74905 0.8891 0.32091 0.0
H2629 H 0.77868 0.89601 0.32206 0.0
H2630 H 0.75825 0.91506 0.33399 0.0
H2631 H 0.77543 0.92272 0.42027 0.0
H2632 H 0.81641 0.92775 0.4154 0.0
H2633 H 0.81291 0.89197 0.35137 0.0
C2634 C 0.72099 0.88087 0.36263 0.0
C2635 C 0.70319 0.88538 0.37795 0.0
C2636 C 0.70828 0.89626 0.39869 0.0
C2637 C 0.73046 0.90319 0.40377 0.0
C2638 C 0.74748 0.89893 0.38807 0.0
C2639 C 0.74308 0.88768 0.36809 0.0
C2640 C 0.76448 0.88488 0.35426 0.0
C2641 C 0.77008 0.8598 0.351 0.0
C2642 C 0.76249 0.89699 0.33145 0.0
C2643 C 0.78162 0.89649 0.36949 0.0
C2644 C 0.77139 0.90464 0.38881 0.0
C2645 C 0.78361 0.91626 0.40528 0.0
C2646 C 0.80695 0.91913 0.40226 0.0
C2647 C 0.81807 0.91028 0.38298 0.0
C2648 C 0.80503 0.89903 0.36627 0.0
H2649 H 0.64416 0.19298 0.90255 0.0
H2650 H 0.65917 0.18521 0.83124 0.0
H2651 H 0.65295 0.22576 0.82558 0.0
H2652 H 0.6007 0.23399 0.89687 0.0
H2653 H 0.60899 0.25026 0.9213 0.0
H2654 H 0.61481 0.22051 0.92012 0.0
H2655 H 0.65733 0.22841 0.92704 0.0
H2656 H 0.65158 0.25815 0.92859 0.0
H2657 H 0.67216 0.2477 0.90883 0.0
H2658 H 0.64265 0.26698 0.82696 0.0
H2659 H 0.63468 0.30681 0.83663 0.0
H2660 H 0.62865 0.28853 0.90716 0.0
C2661 C 0.64643 0.19986 0.88581 0.0
C2662 C 0.65217 0.18576 0.86737 0.0
C2663 C 0.6549 0.19553 0.84572 0.0
C2664 C 0.65124 0.2186 0.84225 0.0
C2665 C 0.64511 0.2319 0.86063 0.0
C2666 C 0.64317 0.22301 0.88207 0.0
C2667 C 0.637 0.24122 0.89901 0.0
C2668 C 0.61401 0.23619 0.90996 0.0
C2669 C 0.65563 0.24404 0.91692 0.0
C2670 C 0.63572 0.26163 0.88371 0.0
C2671 C 0.6401 0.25584 0.86157 0.0
C2672 C 0.63938 0.27175 0.84429 0.0
C2673 C 0.63466 0.29431 0.84989 0.0
C2674 C 0.6311 0.30079 0.87261 0.0
C2675 C 0.6314 0.2841 0.88963 0.0
H2676 H 0.29143 0.82987 0.64236 0.0
H2677 H 0.30378 0.88663 0.59804 0.0
H2678 H 0.26311 0.89562 0.59861 0.0
H2679 H 0.23691 0.81363 0.61733 0.0
H2680 H 0.22516 0.80553 0.64415 0.0
H2681 H 0.25507 0.80317 0.63932 0.0
H2682 H 0.26265 0.82784 0.67474 0.0
H2683 H 0.23276 0.83065 0.67943 0.0
H2684 H 0.25021 0.85545 0.67667 0.0
H2685 H 0.22138 0.90036 0.60673 0.0
H2686 H 0.18107 0.89704 0.61699 0.0
H2687 H 0.19566 0.83626 0.65464 0.0
C2688 C 0.28554 0.84396 0.63244 0.0
C2689 C 0.30087 0.85752 0.62013 0.0
C2690 C 0.29242 0.87585 0.60745 0.0
C2691 C 0.26934 0.88122 0.60782 0.0
C2692 C 0.25482 0.86794 0.62072 0.0
C2693 C 0.26252 0.84939 0.6324 0.0
C2694 C 0.24339 0.83774 0.64479 0.0
C2695 C 0.23993 0.81359 0.63585 0.0
C2696 C 0.24751 0.83794 0.67043 0.0
C2697 C 0.22376 0.85277 0.63848 0.0
C2698 C 0.23074 0.87025 0.62479 0.0
C2699 C 0.21571 0.88661 0.61728 0.0
C2700 C 0.19285 0.8847 0.62336 0.0
C2701 C 0.18515 0.8664 0.63663 0.0
C2702 C 0.20098 0.85044 0.64447 0.0
H2703 H 0.64177 0.72132 0.14987 0.0
H2704 H 0.58404 0.69399 0.1135 0.0
H2705 H 0.57563 0.73188 0.09882 0.0
H2706 H 0.61529 0.7752 0.16497 0.0
H2707 H 0.64121 0.7909 0.16175 0.0
H2708 H 0.64203 0.76177 0.17014 0.0
H2709 H 0.66852 0.75306 0.13651 0.0
H2710 H 0.66744 0.78206 0.12777 0.0
H2711 H 0.65962 0.75994 0.10827 0.0
H2712 H 0.57521 0.77194 0.08568 0.0
H2713 H 0.57929 0.81267 0.07919 0.0
H2714 H 0.63651 0.81482 0.12512 0.0
C2715 C 0.62712 0.72336 0.13913 0.0
C2716 C 0.61356 0.7046 0.13286 0.0
C2717 C 0.5946 0.70804 0.11869 0.0
C2718 C 0.58978 0.7295 0.11012 0.0
C2719 C 0.60391 0.74744 0.11605 0.0
C2720 C 0.62193 0.74473 0.13058 0.0
C2721 C 0.63434 0.76689 0.13436 0.0
C2722 C 0.63314 0.77412 0.15929 0.0
C2723 C 0.65894 0.76539 0.12624 0.0
C2724 C 0.62063 0.78244 0.11947 0.0
C2725 C 0.6033 0.77077 0.10892 0.0
C2726 C 0.58858 0.7813 0.09403 0.0
C2727 C 0.59115 0.80449 0.09036 0.0
C2728 C 0.60819 0.8171 0.10166 0.0
C2729 C 0.62335 0.80573 0.11615 0.0
H2730 H 0.79262 0.1322 0.67606 0.0
H2731 H 0.80842 0.08626 0.62115 0.0
H2732 H 0.76838 0.08643 0.60937 0.0
H2733 H 0.73732 0.10806 0.68921 0.0
H2734 H 0.7252 0.13513 0.69567 0.0
H2735 H 0.75489 0.13048 0.70015 0.0
H2736 H 0.76405 0.16483 0.67486 0.0
H2737 H 0.7344 0.16933 0.66996 0.0
H2738 H 0.75326 0.1656 0.64641 0.0
H2739 H 0.72676 0.09357 0.60214 0.0
H2740 H 0.68629 0.10347 0.60278 0.0
H2741 H 0.69766 0.14422 0.66281 0.0
C2742 C 0.78765 0.12188 0.66176 0.0
C2743 C 0.80377 0.10917 0.64959 0.0
C2744 C 0.79645 0.09601 0.63089 0.0
C2745 C 0.77373 0.09612 0.62396 0.0
C2746 C 0.75844 0.10935 0.63595 0.0
C2747 C 0.76504 0.12169 0.65469 0.0
C2748 C 0.7453 0.13449 0.66468 0.0
C2749 C 0.74039 0.12656 0.68886 0.0
C2750 C 0.74951 0.16008 0.66392 0.0
C2751 C 0.72658 0.12754 0.64857 0.0
C2752 C 0.73452 0.11318 0.63201 0.0
C2753 C 0.72036 0.10471 0.61512 0.0
C2754 C 0.69739 0.11058 0.61553 0.0
C2755 C 0.6887 0.12467 0.63281 0.0
C2756 C 0.7037 0.13346 0.64932 0.0
H2757 H 0.37143 0.20666 0.08356 0.0
H2758 H 0.34516 0.19182 0.15018 0.0
H2759 H 0.34693 0.23239 0.15995 0.0
H2760 H 0.41029 0.24883 0.09994 0.0
H2761 H 0.40558 0.26641 0.07568 0.0
H2762 H 0.40124 0.23643 0.07358 0.0
H2763 H 0.3602 0.24263 0.05976 0.0
H2764 H 0.36456 0.27265 0.06143 0.0
H2765 H 0.34139 0.25978 0.07636 0.0
H2766 H 0.35448 0.2749 0.16319 0.0
H2767 H 0.36239 0.31565 0.15774 0.0
H2768 H 0.38244 0.30197 0.0887 0.0
C2769 C 0.36571 0.21195 0.1001 0.0
C2770 C 0.35812 0.19603 0.11608 0.0
C2771 C 0.35084 0.2037 0.13756 0.0
C2772 C 0.35196 0.22671 0.14333 0.0
C2773 C 0.36015 0.24188 0.12737 0.0
C2774 C 0.36649 0.2348 0.10604 0.0
C2775 C 0.37459 0.25437 0.09185 0.0
C2776 C 0.3994 0.25132 0.08486 0.0
C2777 C 0.35926 0.25755 0.07113 0.0
C2778 C 0.37205 0.27356 0.10854 0.0
C2779 C 0.3639 0.26609 0.12903 0.0
C2780 C 0.3607 0.28091 0.14714 0.0
C2781 C 0.3654 0.30398 0.14398 0.0
C2782 C 0.37299 0.31197 0.12282 0.0
C2783 C 0.37656 0.29641 0.10506 0.0
H2784 H 0.09035 0.41444 0.20748 0.0
H2785 H 0.12898 0.3536 0.1955 0.0
H2786 H 0.1374 0.3513 0.23637 0.0
H2787 H 0.12639 0.43831 0.2491 0.0
H2788 H 0.10381 0.44967 0.26595 0.0
H2789 H 0.10007 0.44601 0.23599 0.0
H2790 H 0.06443 0.42147 0.24284 0.0
H2791 H 0.06784 0.42537 0.27281 0.0
H2792 H 0.06627 0.39732 0.26109 0.0
H2793 H 0.14282 0.3568 0.27886 0.0
H2794 H 0.14175 0.36747 0.31924 0.0
H2795 H 0.09956 0.42473 0.30283 0.0
C2796 C 0.10037 0.40045 0.21341 0.0
C2797 C 0.10897 0.38417 0.19819 0.0
C2798 C 0.12206 0.3662 0.20678 0.0
C2799 C 0.12706 0.36484 0.22998 0.0
C2800 C 0.11878 0.38153 0.2444 0.0
C2801 C 0.10547 0.39882 0.23643 0.0
C2802 C 0.09856 0.41463 0.25532 0.0
C2803 C 0.10776 0.43857 0.25135 0.0
C2804 C 0.07275 0.41469 0.25819 0.0
C2805 C 0.11011 0.40363 0.27522 0.0
C2806 C 0.1218 0.38461 0.26861 0.0
C2807 C 0.13368 0.37164 0.28417 0.0
C2808 C 0.13309 0.37794 0.30709 0.0
C2809 C 0.12065 0.39702 0.31431 0.0
C2810 C 0.10936 0.41014 0.29796 0.0
H2811 H 0.13661 0.61116 0.6705 0.0
H2812 H 0.18649 0.66482 0.66664 0.0
H2813 H 0.18309 0.67112 0.70773 0.0
H2814 H 0.10102 0.63818 0.71011 0.0
H2815 H 0.09368 0.61282 0.7251 0.0
H2816 H 0.10114 0.61136 0.69569 0.0
H2817 H 0.13255 0.58252 0.70468 0.0
H2818 H 0.12498 0.58365 0.73409 0.0
H2819 H 0.15364 0.58941 0.72561 0.0
H2820 H 0.17307 0.67254 0.74945 0.0
H2821 H 0.15849 0.66773 0.78826 0.0
H2822 H 0.11453 0.61383 0.76454 0.0
C2823 C 0.14719 0.62393 0.67834 0.0
C2824 C 0.16201 0.63735 0.66526 0.0
C2825 C 0.17514 0.6542 0.67623 0.0
C2826 C 0.17327 0.65796 0.6996 0.0
C2827 C 0.15811 0.64481 0.71188 0.0
C2828 C 0.14541 0.62803 0.70163 0.0
C2829 C 0.12986 0.61671 0.71851 0.0
C2830 C 0.10495 0.61997 0.71196 0.0
C2831 C 0.13561 0.59159 0.72086 0.0
C2832 C 0.13576 0.62976 0.73982 0.0
C2833 C 0.1521 0.64589 0.73568 0.0
C2834 C 0.16028 0.65993 0.75286 0.0
C2835 C 0.15182 0.65714 0.77486 0.0
C2836 C 0.13526 0.6405 0.77956 0.0
C2837 C 0.12706 0.62684 0.76162 0.0
H2838 H 0.86344 0.65635 0.20153 0.0
H2839 H 0.91297 0.60442 0.18782 0.0
H2840 H 0.91548 0.59641 0.2287 0.0
H2841 H 0.88819 0.67659 0.25413 0.0
H2842 H 0.86106 0.68155 0.2669 0.0
H2843 H 0.86425 0.68367 0.23677 0.0
H2844 H 0.83197 0.65449 0.23132 0.0
H2845 H 0.82893 0.65201 0.26143 0.0
H2846 H 0.83411 0.62726 0.2445 0.0
H2847 H 0.9111 0.59306 0.27154 0.0
H2848 H 0.90248 0.59677 0.31226 0.0
H2849 H 0.85558 0.65064 0.29721 0.0
C2850 C 0.8751 0.64351 0.20707 0.0
C2851 C 0.88809 0.6311 0.19136 0.0
C2852 C 0.90296 0.6143 0.19947 0.0
C2853 C 0.9044 0.60953 0.22268 0.0
C2854 C 0.8909 0.62171 0.23762 0.0
C2855 C 0.87671 0.63853 0.2301 0.0
C2856 C 0.86376 0.64904 0.24946 0.0
C2857 C 0.86968 0.6742 0.25196 0.0
C2858 C 0.83818 0.64548 0.24649 0.0
C2859 C 0.87277 0.63551 0.26909 0.0
C2860 C 0.88836 0.61976 0.26198 0.0
C2861 C 0.89894 0.60538 0.27724 0.0
C2862 C 0.89383 0.60751 0.30035 0.0
C2863 C 0.87828 0.62393 0.30803 0.0
C2864 C 0.86747 0.63783 0.292 0.0
H2865 H 0.84639 0.33129 0.80679 0.0
H2866 H 0.90322 0.37666 0.8171 0.0
H2867 H 0.90187 0.38712 0.77681 0.0
H2868 H 0.86315 0.31204 0.75058 0.0
H2869 H 0.83444 0.31041 0.74056 0.0
H2870 H 0.84052 0.30612 0.77001 0.0
H2871 H 0.81229 0.33771 0.78039 0.0
H2872 H 0.80643 0.34239 0.75095 0.0
H2873 H 0.81598 0.36541 0.76853 0.0
H2874 H 0.89265 0.39447 0.7356 0.0
H2875 H 0.87964 0.39435 0.69595 0.0
H2876 H 0.82956 0.34335 0.71232 0.0
C2877 C 0.85879 0.34318 0.80054 0.0
C2878 C 0.87496 0.35309 0.81521 0.0
C2879 C 0.89079 0.36865 0.80625 0.0
C2880 C 0.89005 0.37485 0.78338 0.0
C2881 C 0.8735 0.36521 0.76955 0.0
C2882 C 0.85842 0.34939 0.77771 0.0
C2883 C 0.84244 0.34136 0.75929 0.0
C2884 C 0.84532 0.31598 0.75485 0.0
C2885 C 0.81783 0.34707 0.76515 0.0
C2886 C 0.85076 0.35523 0.73951 0.0
C2887 C 0.86854 0.36905 0.74582 0.0
C2888 C 0.87882 0.3836 0.73047 0.0
C2889 C 0.87118 0.38354 0.70798 0.0
C2890 C 0.85353 0.36888 0.70091 0.0
C2891 C 0.84305 0.35481 0.7171 0.0
H2892 H 0.71 0.89041 0.61475 0.0
H2893 H 0.68543 0.82145 0.61722 0.0
H2894 H 0.72441 0.8083 0.62443 0.0
H2895 H 0.76352 0.87802 0.58691 0.0
H2896 H 0.77864 0.89934 0.60267 0.0
H2897 H 0.74905 0.90288 0.59666 0.0
H2898 H 0.74123 0.90799 0.63937 0.0
H2899 H 0.77072 0.90412 0.64556 0.0
H2900 H 0.74986 0.88637 0.65879 0.0
H2901 H 0.76582 0.80318 0.634 0.0
H2902 H 0.80676 0.80573 0.64111 0.0
H2903 H 0.80431 0.8782 0.63161 0.0
C2904 C 0.7128 0.87248 0.61651 0.0
C2905 C 0.69461 0.85693 0.61541 0.0
C2906 C 0.69908 0.83365 0.61781 0.0
C2907 C 0.72115 0.82606 0.62206 0.0
C2908 C 0.73857 0.84195 0.62366 0.0
C2909 C 0.73467 0.86465 0.6206 0.0
C2910 C 0.75623 0.87834 0.6232 0.0
C2911 C 0.76221 0.89035 0.60104 0.0
C2912 C 0.75439 0.89519 0.6429 0.0
C2913 C 0.77293 0.85983 0.62846 0.0
C2914 C 0.76238 0.83899 0.62877 0.0
C2915 C 0.77424 0.8194 0.63362 0.0
C2916 C 0.79754 0.82107 0.63776 0.0
C2917 C 0.80888 0.84218 0.63693 0.0
C2918 C 0.79623 0.86182 0.63242 0.0
H2919 H 0.61 0.21298 0.15223 0.0
H2920 H 0.60773 0.19929 0.08037 0.0
H2921 H 0.60078 0.23983 0.07313 0.0
H2922 H 0.56731 0.25285 0.15488 0.0
H2923 H 0.58091 0.27114 0.17518 0.0
H2924 H 0.58733 0.24152 0.17472 0.0
H2925 H 0.62991 0.25039 0.16986 0.0
H2926 H 0.62371 0.28008 0.17086 0.0
H2927 H 0.63893 0.26852 0.14722 0.0
H2928 H 0.58927 0.2809 0.07445 0.0
H2929 H 0.58133 0.32075 0.08315 0.0
H2930 H 0.59414 0.30832 0.15413 0.0
C2931 C 0.60859 0.21866 0.13493 0.0
C2932 C 0.60948 0.20314 0.1168 0.0
C2933 C 0.60743 0.21102 0.09442 0.0
C2934 C 0.60326 0.23395 0.09021 0.0
C2935 C 0.6017 0.24873 0.10856 0.0
C2936 C 0.60499 0.24151 0.13044 0.0
C2937 C 0.60267 0.26078 0.14718 0.0
C2938 C 0.58341 0.25629 0.16397 0.0
C2939 C 0.62514 0.2652 0.1595 0.0
C2940 C 0.59691 0.27992 0.13139 0.0
C2941 C 0.59618 0.27255 0.10921 0.0
C2942 C 0.59013 0.2869 0.09171 0.0
C2943 C 0.58538 0.30948 0.09689 0.0
C2944 C 0.58703 0.31768 0.11937 0.0
C2945 C 0.59272 0.30256 0.13682 0.0
H2946 H 0.19076 0.11076 0.64205 0.0
H2947 H 0.18611 0.18013 0.61948 0.0
H2948 H 0.22735 0.18205 0.61586 0.0
H2949 H 0.24279 0.11794 0.67442 0.0
H2950 H 0.25388 0.09082 0.66641 0.0
H2951 H 0.22381 0.09494 0.66799 0.0
H2952 H 0.21963 0.0812 0.62662 0.0
H2953 H 0.24969 0.07714 0.6249 0.0
H2954 H 0.23565 0.09492 0.60474 0.0
H2955 H 0.26923 0.17659 0.61373 0.0
H2956 H 0.30893 0.16378 0.61383 0.0
H2957 H 0.28687 0.09809 0.63742 0.0
C2958 C 0.19845 0.12639 0.63655 0.0
C2959 C 0.18506 0.14527 0.63107 0.0
C2960 C 0.19586 0.16535 0.62374 0.0
C2961 C 0.21937 0.16668 0.62163 0.0
C2962 C 0.23207 0.14778 0.62688 0.0
C2963 C 0.22206 0.12801 0.63424 0.0
C2964 C 0.23975 0.11007 0.63833 0.0
C2965 C 0.24007 0.10304 0.66327 0.0
C2966 C 0.23595 0.08963 0.62271 0.0
C2967 C 0.2611 0.12287 0.63205 0.0
C2968 C 0.25629 0.1446 0.62553 0.0
C2969 C 0.27324 0.15959 0.61886 0.0
C2970 C 0.29574 0.15217 0.61893 0.0
C2971 C 0.3011 0.12996 0.6256 0.0
C2972 C 0.28343 0.1152 0.6322 0.0
H2973 H 0.38946 0.80423 0.09342 0.0
H2974 H 0.3366 0.81347 0.14318 0.0
H2975 H 0.33884 0.773 0.15289 0.0
H2976 H 0.37225 0.74823 0.07473 0.0
H2977 H 0.40098 0.73901 0.07114 0.0
H2978 H 0.39403 0.76829 0.06759 0.0
H2979 H 0.42427 0.77906 0.09747 0.0
H2980 H 0.43101 0.74979 0.10142 0.0
H2981 H 0.42279 0.76686 0.12524 0.0
H2982 H 0.34857 0.73127 0.15833 0.0
H2983 H 0.36236 0.69195 0.15647 0.0
H2984 H 0.40902 0.71108 0.10344 0.0
C2985 C 0.37807 0.79775 0.10614 0.0
C2986 C 0.36278 0.81209 0.11747 0.0
C2987 C 0.34832 0.80283 0.1341 0.0
C2988 C 0.34959 0.77987 0.13985 0.0
C2989 C 0.36536 0.76638 0.12878 0.0
C2990 C 0.37913 0.77499 0.11207 0.0
C2991 C 0.39484 0.75718 0.1028 0.0
C2992 C 0.39024 0.75292 0.07757 0.0
C2993 C 0.41969 0.76362 0.10699 0.0
C2994 C 0.38789 0.73716 0.11694 0.0
C2995 C 0.37092 0.74272 0.13191 0.0
C2996 C 0.36182 0.72677 0.14662 0.0
C2997 C 0.36988 0.7045 0.14557 0.0
C2998 C 0.38684 0.69837 0.12987 0.0
C2999 C 0.39611 0.71513 0.11571 0.0
H3000 H 0.71397 0.12262 0.34679 0.0
H3001 H 0.6928 0.12748 0.41671 0.0
H3002 H 0.73217 0.12127 0.42899 0.0
H3003 H 0.7544 0.07962 0.35335 0.0
H3004 H 0.77467 0.09125 0.33391 0.0
H3005 H 0.74506 0.09705 0.33034 0.0
H3006 H 0.75327 0.13994 0.3315 0.0
H3007 H 0.78295 0.13429 0.33481 0.0
H3008 H 0.76857 0.15181 0.35508 0.0
H3009 H 0.77266 0.11083 0.43369 0.0
H3010 H 0.81299 0.10183 0.43107 0.0
H3011 H 0.80953 0.10637 0.35803 0.0
C3012 C 0.71769 0.12267 0.36469 0.0
C3013 C 0.70027 0.1255 0.38083 0.0
C3014 C 0.70583 0.12551 0.40407 0.0
C3015 C 0.72814 0.12187 0.41118 0.0
C3016 C 0.74479 0.11866 0.39487 0.0
C3017 C 0.73998 0.11949 0.37209 0.0
C3018 C 0.76116 0.1157 0.3581 0.0
C3019 C 0.75866 0.09465 0.34304 0.0
C3020 C 0.76682 0.13669 0.34404 0.0
C3021 C 0.77855 0.11208 0.37658 0.0
C3022 C 0.76858 0.11368 0.39762 0.0
C3023 C 0.7807 0.10986 0.41734 0.0
C3024 C 0.80364 0.10457 0.41561 0.0
C3025 C 0.81454 0.10341 0.39433 0.0
C3026 C 0.80175 0.1073 0.37453 0.0
H3027 H 0.38551 0.2954 0.91448 0.0
H3028 H 0.37771 0.30497 0.84242 0.0
H3029 H 0.37313 0.26367 0.83733 0.0
H3030 H 0.41786 0.24316 0.91034 0.0
H3031 H 0.405 0.23144 0.93524 0.0
H3032 H 0.40826 0.26151 0.93264 0.0
H3033 H 0.36532 0.2663 0.93932 0.0
H3034 H 0.36184 0.23622 0.94147 0.0
H3035 H 0.34556 0.25177 0.92114 0.0
H3036 H 0.36624 0.22125 0.84096 0.0
H3037 H 0.36385 0.18112 0.85185 0.0
H3038 H 0.37821 0.19956 0.92136 0.0
C3039 C 0.38317 0.28877 0.89757 0.0
C3040 C 0.38197 0.30336 0.87882 0.0
C3041 C 0.37892 0.29407 0.85697 0.0
C3042 C 0.37609 0.27066 0.85398 0.0
C3043 C 0.37671 0.2568 0.87297 0.0
C3044 C 0.38071 0.26552 0.89427 0.0
C3045 C 0.38108 0.2471 0.9119 0.0
C3046 C 0.40444 0.24572 0.92319 0.0
C3047 C 0.36233 0.25056 0.92949 0.0
C3048 C 0.37638 0.22661 0.89729 0.0
C3049 C 0.37362 0.23254 0.87492 0.0
C3050 C 0.36859 0.21645 0.8584 0.0
C3051 C 0.36705 0.19369 0.86479 0.0
C3052 C 0.37081 0.18716 0.88748 0.0
C3053 C 0.37524 0.20398 0.90389 0.0
H3054 H 0.20611 0.89146 0.3569 0.0
H3055 H 0.20279 0.9262 0.42144 0.0
H3056 H 0.24322 0.9189 0.42766 0.0
H3057 H 0.24344 0.84816 0.37425 0.0
H3058 H 0.25923 0.84723 0.3483 0.0
H3059 H 0.23018 0.85607 0.34807 0.0
H3060 H 0.24157 0.89363 0.32902 0.0
H3061 H 0.2706 0.88474 0.32883 0.0
H3062 H 0.26303 0.91114 0.34187 0.0
H3063 H 0.28367 0.90602 0.42809 0.0
H3064 H 0.32219 0.89206 0.42065 0.0
H3065 H 0.2998 0.86601 0.35573 0.0
C3066 C 0.21399 0.89795 0.37212 0.0
C3067 C 0.20114 0.90951 0.38864 0.0
C3068 C 0.21215 0.91736 0.40848 0.0
C3069 C 0.23515 0.91321 0.41224 0.0
C3070 C 0.24714 0.90121 0.396 0.0
C3071 C 0.23706 0.89396 0.37617 0.0
C3072 C 0.25384 0.88128 0.36157 0.0
C3073 C 0.24621 0.85673 0.35783 0.0
C3074 C 0.25748 0.89343 0.33899 0.0
C3075 C 0.27485 0.88252 0.37631 0.0
C3076 C 0.27055 0.89395 0.39617 0.0
C3077 C 0.28726 0.89713 0.41252 0.0
C3078 C 0.3091 0.88899 0.40821 0.0
C3079 C 0.31416 0.87787 0.38763 0.0
C3080 C 0.29658 0.87435 0.37168 0.0
H3081 H 0.64941 0.69991 0.89273 0.0
H3082 H 0.59455 0.68166 0.84737 0.0
H3083 H 0.58635 0.72209 0.84173 0.0
H3084 H 0.62212 0.74752 0.91897 0.0
H3085 H 0.64762 0.76415 0.92084 0.0
H3086 H 0.64911 0.73384 0.9215 0.0
H3087 H 0.67672 0.7343 0.88767 0.0
H3088 H 0.67536 0.7646 0.88692 0.0
H3089 H 0.66865 0.74834 0.862 0.0
H3090 H 0.58427 0.76413 0.84085 0.0
H3091 H 0.58841 0.80515 0.84391 0.0
H3092 H 0.64491 0.79688 0.88995 0.0
C3093 C 0.63562 0.70435 0.88161 0.0
C3094 C 0.62258 0.68752 0.87047 0.0
C3095 C 0.60476 0.69417 0.85606 0.0
C3096 C 0.59998 0.7171 0.85279 0.0
C3097 C 0.61316 0.73319 0.86405 0.0
C3098 C 0.63064 0.72715 0.87814 0.0
C3099 C 0.64237 0.74782 0.88802 0.0
C3100 C 0.64017 0.74836 0.91386 0.0
C3101 C 0.66725 0.74882 0.88071 0.0
C3102 C 0.62878 0.76653 0.87721 0.0
C3103 C 0.612 0.7576 0.8635 0.0
C3104 C 0.59733 0.77129 0.85152 0.0
C3105 C 0.59991 0.79468 0.8534 0.0
C3106 C 0.61706 0.80443 0.86717 0.0
C3107 C 0.63161 0.79004 0.87936 0.0
H3108 H 0.91334 0.62208 0.79481 0.0
H3109 H 0.8423 0.60543 0.80146 0.0
H3110 H 0.83804 0.60563 0.7601 0.0
H3111 H 0.90769 0.65828 0.74384 0.0
H3112 H 0.9335 0.64791 0.73163 0.0
H3113 H 0.93043 0.64922 0.76186 0.0
H3114 H 0.93987 0.60672 0.76438 0.0
H3115 H 0.9427 0.60522 0.73418 0.0
H3116 H 0.92328 0.58666 0.74843 0.0
H3117 H 0.84192 0.60429 0.71802 0.0
H3118 H 0.85376 0.60287 0.678 0.0
H3119 H 0.92232 0.6196 0.69831 0.0
C3120 C 0.8968 0.61918 0.78751 0.0
C3121 C 0.87809 0.61397 0.80132 0.0
C3122 C 0.85684 0.60955 0.79116 0.0
C3123 C 0.85422 0.60963 0.76767 0.0
C3124 C 0.87306 0.61408 0.75443 0.0
C3125 C 0.89393 0.61893 0.76391 0.0
C3126 C 0.9117 0.62161 0.7457 0.0
C3127 C 0.92139 0.64569 0.74577 0.0
C3128 C 0.93049 0.604 0.74834 0.0
C3129 C 0.89762 0.61712 0.72469 0.0
C3130 C 0.87535 0.61296 0.73008 0.0
C3131 C 0.8593 0.60772 0.71355 0.0
C3132 C 0.86617 0.60686 0.69086 0.0
C3133 C 0.88893 0.61111 0.68493 0.0
C3134 C 0.90476 0.6163 0.70219 0.0
H3135 H 0.85883 0.38799 0.3112 0.0
H3136 H 0.83043 0.32061 0.3164 0.0
H3137 H 0.8364 0.31475 0.27566 0.0
H3138 H 0.83484 0.40047 0.25554 0.0
H3139 H 0.85945 0.41602 0.24663 0.0
H3140 H 0.85201 0.41515 0.27607 0.0
H3141 H 0.89191 0.4001 0.28547 0.0
H3142 H 0.89933 0.40054 0.25602 0.0
H3143 H 0.90178 0.37479 0.27183 0.0
H3144 H 0.84777 0.31517 0.23453 0.0
H3145 H 0.85937 0.32377 0.19538 0.0
H3146 H 0.87954 0.391 0.2167 0.0
C3147 C 0.85348 0.37215 0.30372 0.0
C3148 C 0.84413 0.35478 0.31715 0.0
C3149 C 0.83758 0.33424 0.3066 0.0
C3150 C 0.841 0.33067 0.28342 0.0
C3151 C 0.85089 0.34784 0.27084 0.0
C3152 C 0.85668 0.36832 0.28052 0.0
C3153 C 0.86701 0.38398 0.26316 0.0
C3154 C 0.85246 0.40515 0.26017 0.0
C3155 C 0.89146 0.39021 0.26951 0.0
C3156 C 0.86623 0.36906 0.2423 0.0
C3157 C 0.85705 0.34821 0.2471 0.0
C3158 C 0.85486 0.33151 0.23054 0.0
C3159 C 0.86167 0.33648 0.20837 0.0
C3160 C 0.8704 0.35803 0.2029 0.0
C3161 C 0.87294 0.37434 0.22027 0.0
H3162 H 0.08163 0.40795 0.81466 0.0
H3163 H 0.13103 0.35525 0.82538 0.0
H3164 H 0.14168 0.35711 0.78512 0.0
H3165 H 0.06389 0.38991 0.7588 0.0
H3166 H 0.06057 0.41835 0.74881 0.0
H3167 H 0.05665 0.41217 0.77826 0.0
H3168 H 0.08661 0.44253 0.78852 0.0
H3169 H 0.09097 0.44849 0.75906 0.0
H3170 H 0.11452 0.44066 0.77661 0.0
H3171 H 0.14795 0.36591 0.7436 0.0
H3172 H 0.14617 0.37772 0.70369 0.0
H3173 H 0.09265 0.4246 0.7204 0.0
C3174 C 0.09447 0.39653 0.80853 0.0
C3175 C 0.1054 0.38137 0.82328 0.0
C3176 C 0.12225 0.36689 0.81447 0.0
C3177 C 0.12856 0.36796 0.79162 0.0
C3178 C 0.11786 0.38355 0.77773 0.0
C3179 C 0.10096 0.39736 0.78581 0.0
C3180 C 0.092 0.41259 0.76742 0.0
C3181 C 0.06679 0.40797 0.76306 0.0
C3182 C 0.09629 0.43754 0.77326 0.0
C3183 C 0.10638 0.4051 0.74765 0.0
C3184 C 0.12137 0.38851 0.75397 0.0
C3185 C 0.13624 0.37888 0.73849 0.0
C3186 C 0.13524 0.38585 0.71585 0.0
C3187 C 0.11933 0.40217 0.70882 0.0
C3188 C 0.1051 0.41219 0.72516 0.0
H3189 H 0.15548 0.62429 0.27625 0.0
H3190 H 0.10038 0.67152 0.28539 0.0
H3191 H 0.09669 0.67529 0.24439 0.0
H3192 H 0.18028 0.65181 0.22784 0.0
H3193 H 0.18739 0.62595 0.21351 0.0
H3194 H 0.18606 0.62674 0.24388 0.0
H3195 H 0.15715 0.59384 0.24346 0.0
H3196 H 0.15849 0.59288 0.21311 0.0
H3197 H 0.13167 0.59635 0.22699 0.0
H3198 H 0.09883 0.67469 0.20219 0.0
H3199 H 0.10587 0.66789 0.16157 0.0
H3200 H 0.15892 0.62082 0.17908 0.0
C3201 C 0.14262 0.63534 0.26961 0.0
C3202 C 0.12829 0.6476 0.28426 0.0
C3203 C 0.11166 0.66191 0.27474 0.0
C3204 C 0.10939 0.66425 0.25135 0.0
C3205 C 0.12379 0.65215 0.23741 0.0
C3206 C 0.14 0.63786 0.24609 0.0
C3207 C 0.15305 0.62663 0.22713 0.0
C3208 C 0.17819 0.63318 0.22816 0.0
C3209 C 0.14989 0.6009 0.22771 0.0
C3210 C 0.14158 0.63683 0.20662 0.0
C3211 C 0.12483 0.65161 0.21294 0.0
C3212 C 0.11191 0.66311 0.197 0.0
C3213 C 0.11605 0.65921 0.17395 0.0
C3214 C 0.13289 0.64383 0.16703 0.0
C3215 C 0.14587 0.63267 0.18372 0.0
loop_
_geom_bond_atom_site_label_1
_geom_bond_atom_site_label_2
_geom_bond_distance
_geom_bond_site_symmetry_2
_ccdc_geom_bond_type
C0 O1 1.160 . S
C0 O7 1.185 . S
O1 C0 1.160 . S
O2 Zn3 1.899 . S
O2 C10 1.284 . S
Zn3 O2 1.899 . S
Zn3 O4 2.032 . S
Zn3 O7 2.086 . S
Zn3 O12 1.977 . S
O4 Zn3 2.032 . S
O4 C8 1.278 . S
C5 O6 1.203 . S
C5 O12 1.267 . S
O6 C5 1.203 . S
O7 C0 1.185 . S
O7 Zn3 2.086 . S
C8 O4 1.278 . S
C8 O9 1.211 . S
O9 C8 1.211 . S
C10 O2 1.284 . S
C10 O11 1.273 . S
O11 C10 1.273 . S
O12 Zn3 1.977 . S
O12 C5 1.267 . S
C13 O14 1.160 . S
C13 O20 1.185 . S
O14 C13 1.160 . S
O15 Zn16 1.899 . S
O15 C23 1.284 . S
Zn16 O15 1.899 . S
Zn16 O17 2.032 . S
Zn16 O20 2.086 . S
Zn16 O25 1.977 . S
O17 Zn16 2.032 . S
O17 C21 1.278 . S
C18 O19 1.203 . S
C18 O25 1.267 . S
O19 C18 1.203 . S
O20 C13 1.185 . S
O20 Zn16 2.086 . S
C21 O17 1.278 . S
C21 O22 1.211 . S
O22 C21 1.211 . S
C23 O15 1.284 . S
C23 O24 1.273 . S
O24 C23 1.273 . S
O25 Zn16 1.977 . S
O25 C18 1.267 . S
C26 O27 1.160 . S
C26 O33 1.185 . S
O27 C26 1.160 . S
O28 Zn29 1.899 . S
O28 C36 1.284 . S
Zn29 O28 1.899 . S
Zn29 O30 2.032 . S
Zn29 O33 2.086 . S
Zn29 O38 1.977 . S
O30 Zn29 2.032 . S
O30 C34 1.278 . S
C31 O32 1.203 . S
C31 O38 1.267 . S
O32 C31 1.203 . S
O33 C26 1.185 . S
O33 Zn29 2.086 . S
C34 O30 1.278 . S
C34 O35 1.211 . S
O35 C34 1.211 . S
C36 O28 1.284 . S
C36 O37 1.273 . S
O37 C36 1.273 . S
O38 Zn29 1.977 . S
O38 C31 1.267 . S
C39 O40 1.160 . S
C39 O46 1.185 . S
O40 C39 1.160 . S
O41 Zn42 1.899 . S
O41 C49 1.284 . S
Zn42 O41 1.899 . S
Zn42 O43 2.032 . S
Zn42 O46 2.086 . S
Zn42 O51 1.977 . S
O43 Zn42 2.032 . S
O43 C47 1.278 . S
C44 O45 1.203 . S
C44 O51 1.267 . S
O45 C44 1.203 . S
O46 C39 1.185 . S
O46 Zn42 2.086 . S
C47 O43 1.278 . S
C47 O48 1.211 . S
O48 C47 1.211 . S
C49 O41 1.284 . S
C49 O50 1.273 . S
O50 C49 1.273 . S
O51 Zn42 1.977 . S
O51 C44 1.267 . S
C52 O53 1.160 . S
C52 O59 1.185 . S
O53 C52 1.160 . S
O54 Zn55 1.899 . S
O54 C62 1.284 . S
Zn55 O54 1.899 . S
Zn55 O56 2.032 . S
Zn55 O59 2.086 . S
Zn55 O64 1.977 . S
O56 Zn55 2.032 . S
O56 C60 1.278 . S
C57 O58 1.203 . S
C57 O64 1.267 . S
O58 C57 1.203 . S
O59 C52 1.185 . S
O59 Zn55 2.086 . S
C60 O56 1.278 . S
C60 O61 1.211 . S
O61 C60 1.211 . S
C62 O54 1.284 . S
C62 O63 1.273 . S
O63 C62 1.273 . S
O64 Zn55 1.977 . S
O64 C57 1.267 . S
C65 O66 1.160 . S
C65 O72 1.185 . S
O66 C65 1.160 . S
O67 Zn68 1.899 . S
O67 C75 1.284 . S
Zn68 O67 1.899 . S
Zn68 O69 2.032 . S
Zn68 O72 2.086 . S
Zn68 O77 1.977 . S
O69 Zn68 2.032 . S
O69 C73 1.278 . S
C70 O71 1.203 . S
C70 O77 1.267 . S
O71 C70 1.203 . S
O72 C65 1.185 . S
O72 Zn68 2.086 . S
C73 O69 1.278 . S
C73 O74 1.211 . S
O74 C73 1.211 . S
C75 O67 1.284 . S
C75 O76 1.273 . S
O76 C75 1.273 . S
O77 Zn68 1.977 . S
O77 C70 1.267 . S
C78 O79 1.160 . S
C78 O85 1.185 . S
O79 C78 1.160 . S
O80 Zn81 1.899 . S
O80 C88 1.284 . S
Zn81 O80 1.899 . S
Zn81 O82 2.032 . S
Zn81 O85 2.086 . S
Zn81 O90 1.977 . S
O82 Zn81 2.032 . S
O82 C86 1.278 . S
C83 O84 1.203 . S
C83 O90 1.267 . S
O84 C83 1.203 . S
O85 C78 1.185 . S
O85 Zn81 2.086 . S
C86 O82 1.278 . S
C86 O87 1.211 . S
O87 C86 1.211 . S
C88 O80 1.284 . S
C88 O89 1.273 . S
O89 C88 1.273 . S
O90 Zn81 1.977 . S
O90 C83 1.267 . S
C91 O92 1.160 . S
C91 O98 1.185 . S
O92 C91 1.160 . S
O93 Zn94 1.899 . S
O93 C101 1.284 . S
Zn94 O93 1.899 . S
Zn94 O95 2.032 . S
Zn94 O98 2.086 . S
Zn94 O103 1.977 . S
O95 Zn94 2.032 . S
O95 C99 1.278 . S
C96 O97 1.203 . S
C96 O103 1.267 . S
O97 C96 1.203 . S
O98 C91 1.185 . S
O98 Zn94 2.086 . S
C99 O95 1.278 . S
C99 O100 1.211 . S
O100 C99 1.211 . S
C101 O93 1.284 . S
C101 O102 1.273 . S
O102 C101 1.273 . S
O103 Zn94 1.977 . S
O103 C96 1.267 . S
C104 O105 1.160 . S
C104 O111 1.185 . S
O105 C104 1.160 . S
O106 Zn107 1.899 . S
O106 C114 1.284 . S
Zn107 O106 1.899 . S
Zn107 O108 2.032 . S
Zn107 O111 2.086 . S
Zn107 O116 1.977 . S
O108 Zn107 2.032 . S
O108 C112 1.278 . S
C109 O110 1.203 . S
C109 O116 1.267 . S
O110 C109 1.203 . S
O111 C104 1.185 . S
O111 Zn107 2.086 . S
C112 O108 1.278 . S
C112 O113 1.211 . S
O113 C112 1.211 . S
C114 O106 1.284 . S
C114 O115 1.273 . S
O115 C114 1.273 . S
O116 Zn107 1.977 . S
O116 C109 1.267 . S
C117 O118 1.160 . S
C117 O124 1.185 . S
O118 C117 1.160 . S
O119 Zn120 1.899 . S
O119 C127 1.284 . S
Zn120 O119 1.899 . S
Zn120 O121 2.032 . S
Zn120 O124 2.086 . S
Zn120 O129 1.977 . S
O121 Zn120 2.032 . S
O121 C125 1.278 . S
C122 O123 1.203 . S
C122 O129 1.267 . S
O123 C122 1.203 . S
O124 C117 1.185 . S
O124 Zn120 2.086 . S
C125 O121 1.278 . S
C125 O126 1.211 . S
O126 C125 1.211 . S
C127 O119 1.284 . S
C127 O128 1.273 . S
O128 C127 1.273 . S
O129 Zn120 1.977 . S
O129 C122 1.267 . S
C130 O131 1.160 . S
C130 O137 1.185 . S
O131 C130 1.160 . S
O132 Zn133 1.899 . S
O132 C140 1.284 . S
Zn133 O132 1.899 . S
Zn133 O134 2.032 . S
Zn133 O137 2.086 . S
Zn133 O142 1.977 . S
O134 Zn133 2.032 . S
O134 C138 1.278 . S
C135 O136 1.203 . S
C135 O142 1.267 . S
O136 C135 1.203 . S
O137 C130 1.185 . S
O137 Zn133 2.086 . S
C138 O134 1.278 . S
C138 O139 1.211 . S
O139 C138 1.211 . S
C140 O132 1.284 . S
C140 O141 1.273 . S
O141 C140 1.273 . S
O142 Zn133 1.977 . S
O142 C135 1.267 . S
C143 O144 1.160 . S
C143 O150 1.185 . S
O144 C143 1.160 . S
O145 Zn146 1.899 . S
O145 C153 1.284 . S
Zn146 O145 1.899 . S
Zn146 O147 2.032 . S
Zn146 O150 2.086 . S
Zn146 O155 1.977 . S
O147 Zn146 2.032 . S
O147 C151 1.278 . S
C148 O149 1.203 . S
C148 O155 1.267 . S
O149 C148 1.203 . S
O150 C143 1.185 . S
O150 Zn146 2.086 . S
C151 O147 1.278 . S
C151 O152 1.211 . S
O152 C151 1.211 . S
C153 O145 1.284 . S
C153 O154 1.273 . S
O154 C153 1.273 . S
O155 Zn146 1.977 . S
O155 C148 1.267 . S
C156 O157 1.160 . S
C156 O163 1.185 . S
O157 C156 1.160 . S
O158 Zn159 1.899 . S
O158 C166 1.284 . S
Zn159 O158 1.899 . S
Zn159 O160 2.032 . S
Zn159 O163 2.086 . S
Zn159 O168 1.977 . S
O160 Zn159 2.032 . S
O160 C164 1.278 . S
C161 O162 1.203 . S
C161 O168 1.267 . S
O162 C161 1.203 . S
O163 C156 1.185 . S
O163 Zn159 2.086 . S
C164 O160 1.278 . S
C164 O165 1.211 . S
O165 C164 1.211 . S
C166 O158 1.284 . S
C166 O167 1.273 . S
O167 C166 1.273 . S
O168 Zn159 1.977 . S
O168 C161 1.267 . S
C169 O170 1.160 . S
C169 O176 1.185 . S
O170 C169 1.160 . S
O171 Zn172 1.899 . S
O171 C179 1.284 . S
Zn172 O171 1.899 . S
Zn172 O173 2.032 . S
Zn172 O176 2.086 . S
Zn172 O181 1.977 . S
O173 Zn172 2.032 . S
O173 C177 1.278 . S
C174 O175 1.203 . S
C174 O181 1.267 . S
O175 C174 1.203 . S
O176 C169 1.185 . S
O176 Zn172 2.086 . S
C177 O173 1.278 . S
C177 O178 1.211 . S
O178 C177 1.211 . S
C179 O171 1.284 . S
C179 O180 1.273 . S
O180 C179 1.273 . S
O181 Zn172 1.977 . S
O181 C174 1.267 . S
C182 O183 1.160 . S
C182 O189 1.185 . S
O183 C182 1.160 . S
O184 Zn185 1.899 . S
O184 C192 1.284 . S
Zn185 O184 1.899 . S
Zn185 O186 2.032 . S
Zn185 O189 2.086 . S
Zn185 O194 1.977 . S
O186 Zn185 2.032 . S
O186 C190 1.278 . S
C187 O188 1.203 . S
C187 O194 1.267 . S
O188 C187 1.203 . S
O189 C182 1.185 . S
O189 Zn185 2.086 . S
C190 O186 1.278 . S
C190 O191 1.211 . S
O191 C190 1.211 . S
C192 O184 1.284 . S
C192 O193 1.273 . S
O193 C192 1.273 . S
O194 Zn185 1.977 . S
O194 C187 1.267 . S
C195 O196 1.160 . S
C195 O202 1.185 . S
O196 C195 1.160 . S
O197 Zn198 1.899 . S
O197 C205 1.284 . S
Zn198 O197 1.899 . S
Zn198 O199 2.032 . S
Zn198 O202 2.086 . S
Zn198 O207 1.977 . S
O199 Zn198 2.032 . S
O199 C203 1.278 . S
C200 O201 1.203 . S
C200 O207 1.267 . S
O201 C200 1.203 . S
O202 C195 1.185 . S
O202 Zn198 2.086 . S
C203 O199 1.278 . S
C203 O204 1.211 . S
O204 C203 1.211 . S
C205 O197 1.284 . S
C205 O206 1.273 . S
O206 C205 1.273 . S
O207 Zn198 1.977 . S
O207 C200 1.267 . S
C208 O209 1.160 . S
C208 O215 1.185 . S
O209 C208 1.160 . S
O210 Zn211 1.899 . S
O210 C218 1.284 . S
Zn211 O210 1.899 . S
Zn211 O212 2.032 . S
Zn211 O215 2.086 . S
Zn211 O220 1.977 . S
O212 Zn211 2.032 . S
O212 C216 1.278 . S
C213 O214 1.203 . S
C213 O220 1.267 . S
O214 C213 1.203 . S
O215 C208 1.185 . S
O215 Zn211 2.086 . S
C216 O212 1.278 . S
C216 O217 1.211 . S
O217 C216 1.211 . S
C218 O210 1.284 . S
C218 O219 1.273 . S
O219 C218 1.273 . S
O220 Zn211 1.977 . S
O220 C213 1.267 . S
C221 O222 1.160 . S
C221 O228 1.185 . S
O222 C221 1.160 . S
O223 Zn224 1.899 . S
O223 C231 1.284 . S
Zn224 O223 1.899 . S
Zn224 O225 2.032 . S
Zn224 O228 2.086 . S
Zn224 O233 1.977 . S
O225 Zn224 2.032 . S
O225 C229 1.278 . S
C226 O227 1.203 . S
C226 O233 1.267 . S
O227 C226 1.203 . S
O228 C221 1.185 . S
O228 Zn224 2.086 . S
C229 O225 1.278 . S
C229 O230 1.211 . S
O230 C229 1.211 . S
C231 O223 1.284 . S
C231 O232 1.273 . S
O232 C231 1.273 . S
O233 Zn224 1.977 . S
O233 C226 1.267 . S
C234 O235 1.160 . S
C234 O241 1.185 . S
O235 C234 1.160 . S
O236 Zn237 1.899 . S
O236 C244 1.284 . S
Zn237 O236 1.899 . S
Zn237 O238 2.032 . S
Zn237 O241 2.086 . S
Zn237 O246 1.977 . S
O238 Zn237 2.032 . S
O238 C242 1.278 . S
C239 O240 1.203 . S
C239 O246 1.267 . S
O240 C239 1.203 . S
O241 C234 1.185 . S
O241 Zn237 2.086 . S
C242 O238 1.278 . S
C242 O243 1.211 . S
O243 C242 1.211 . S
C244 O236 1.284 . S
C244 O245 1.273 . S
O245 C244 1.273 . S
O246 Zn237 1.977 . S
O246 C239 1.267 . S
C247 O248 1.160 . S
C247 O254 1.185 . S
O248 C247 1.160 . S
O249 Zn250 1.899 . S
O249 C257 1.284 . S
Zn250 O249 1.899 . S
Zn250 O251 2.032 . S
Zn250 O254 2.086 . S
Zn250 O259 1.977 . S
O251 Zn250 2.032 . S
O251 C255 1.278 . S
C252 O253 1.203 . S
C252 O259 1.267 . S
O253 C252 1.203 . S
O254 C247 1.185 . S
O254 Zn250 2.086 . S
C255 O251 1.278 . S
C255 O256 1.211 . S
O256 C255 1.211 . S
C257 O249 1.284 . S
C257 O258 1.273 . S
O258 C257 1.273 . S
O259 Zn250 1.977 . S
O259 C252 1.267 . S
C260 O261 1.160 . S
C260 O267 1.185 . S
O261 C260 1.160 . S
O262 Zn263 1.899 . S
O262 C270 1.284 . S
Zn263 O262 1.899 . S
Zn263 O264 2.032 . S
Zn263 O267 2.086 . S
Zn263 O272 1.977 . S
O264 Zn263 2.032 . S
O264 C268 1.278 . S
C265 O266 1.203 . S
C265 O272 1.267 . S
O266 C265 1.203 . S
O267 C260 1.185 . S
O267 Zn263 2.086 . S
C268 O264 1.278 . S
C268 O269 1.211 . S
O269 C268 1.211 . S
C270 O262 1.284 . S
C270 O271 1.273 . S
O271 C270 1.273 . S
O272 Zn263 1.977 . S
O272 C265 1.267 . S
C273 O274 1.160 . S
C273 O280 1.185 . S
O274 C273 1.160 . S
O275 Zn276 1.899 . S
O275 C283 1.284 . S
Zn276 O275 1.899 . S
Zn276 O277 2.032 . S
Zn276 O280 2.086 . S
Zn276 O285 1.977 . S
O277 Zn276 2.032 . S
O277 C281 1.278 . S
C278 O279 1.203 . S
C278 O285 1.267 . S
O279 C278 1.203 . S
O280 C273 1.185 . S
O280 Zn276 2.086 . S
C281 O277 1.278 . S
C281 O282 1.211 . S
O282 C281 1.211 . S
C283 O275 1.284 . S
C283 O284 1.273 . S
O284 C283 1.273 . S
O285 Zn276 1.977 . S
O285 C278 1.267 . S
C286 O287 1.160 . S
C286 O293 1.185 . S
O287 C286 1.160 . S
O288 Zn289 1.899 . S
O288 C296 1.284 . S
Zn289 O288 1.899 . S
Zn289 O290 2.032 . S
Zn289 O293 2.086 . S
Zn289 O298 1.977 . S
O290 Zn289 2.032 . S
O290 C294 1.278 . S
C291 O292 1.203 . S
C291 O298 1.267 . S
O292 C291 1.203 . S
O293 C286 1.185 . S
O293 Zn289 2.086 . S
C294 O290 1.278 . S
C294 O295 1.211 . S
O295 C294 1.211 . S
C296 O288 1.284 . S
C296 O297 1.273 . S
O297 C296 1.273 . S
O298 Zn289 1.977 . S
O298 C291 1.267 . S
C299 O300 1.160 . S
C299 O306 1.185 . S
O300 C299 1.160 . S
O301 Zn302 1.899 . S
O301 C309 1.284 . S
Zn302 O301 1.899 . S
Zn302 O303 2.032 . S
Zn302 O306 2.086 . S
Zn302 O311 1.977 . S
O303 Zn302 2.032 . S
O303 C307 1.278 . S
C304 O305 1.203 . S
C304 O311 1.267 . S
O305 C304 1.203 . S
O306 C299 1.185 . S
O306 Zn302 2.086 . S
C307 O303 1.278 . S
C307 O308 1.211 . S
O308 C307 1.211 . S
C309 O301 1.284 . S
C309 O310 1.273 . S
O310 C309 1.273 . S
O311 Zn302 1.977 . S
O311 C304 1.267 . S
C312 O313 1.160 . S
C312 O319 1.185 . S
O313 C312 1.160 . S
O314 Zn315 1.899 . S
O314 C322 1.284 . S
Zn315 O314 1.899 . S
Zn315 O316 2.032 . S
Zn315 O319 2.086 . S
Zn315 O324 1.977 . S
O316 Zn315 2.032 . S
O316 C320 1.278 . S
C317 O318 1.203 . S
C317 O324 1.267 . S
O318 C317 1.203 . S
O319 C312 1.185 . S
O319 Zn315 2.086 . S
C320 O316 1.278 . S
C320 O321 1.211 . S
O321 C320 1.211 . S
C322 O314 1.284 . S
C322 O323 1.273 . S
O323 C322 1.273 . S
O324 Zn315 1.977 . S
O324 C317 1.267 . S
C325 O326 1.160 . S
C325 O332 1.185 . S
O326 C325 1.160 . S
O327 Zn328 1.899 . S
O327 C335 1.284 . S
Zn328 O327 1.899 . S
Zn328 O329 2.032 . S
Zn328 O332 2.086 . S
Zn328 O337 1.977 . S
O329 Zn328 2.032 . S
O329 C333 1.278 . S
C330 O331 1.203 . S
C330 O337 1.267 . S
O331 C330 1.203 . S
O332 C325 1.185 . S
O332 Zn328 2.086 . S
C333 O329 1.278 . S
C333 O334 1.211 . S
O334 C333 1.211 . S
C335 O327 1.284 . S
C335 O336 1.273 . S
O336 C335 1.273 . S
O337 Zn328 1.977 . S
O337 C330 1.267 . S
C338 O339 1.160 . S
C338 O345 1.185 . S
O339 C338 1.160 . S
O340 Zn341 1.899 . S
O340 C348 1.284 . S
Zn341 O340 1.899 . S
Zn341 O342 2.032 . S
Zn341 O345 2.086 . S
Zn341 O350 1.977 . S
O342 Zn341 2.032 . S
O342 C346 1.278 . S
C343 O344 1.203 . S
C343 O350 1.267 . S
O344 C343 1.203 . S
O345 C338 1.185 . S
O345 Zn341 2.086 . S
C346 O342 1.278 . S
C346 O347 1.211 . S
O347 C346 1.211 . S
C348 O340 1.284 . S
C348 O349 1.273 . S
O349 C348 1.273 . S
O350 Zn341 1.977 . S
O350 C343 1.267 . S
C351 O352 1.160 . S
C351 O358 1.185 . S
O352 C351 1.160 . S
O353 Zn354 1.899 . S
O353 C361 1.284 . S
Zn354 O353 1.899 . S
Zn354 O355 2.032 . S
Zn354 O358 2.086 . S
Zn354 O363 1.977 . S
O355 Zn354 2.032 . S
O355 C359 1.278 . S
C356 O357 1.203 . S
C356 O363 1.267 . S
O357 C356 1.203 . S
O358 C351 1.185 . S
O358 Zn354 2.086 . S
C359 O355 1.278 . S
C359 O360 1.211 . S
O360 C359 1.211 . S
C361 O353 1.284 . S
C361 O362 1.273 . S
O362 C361 1.273 . S
O363 Zn354 1.977 . S
O363 C356 1.267 . S
C364 O365 1.160 . S
C364 O371 1.185 . S
O365 C364 1.160 . S
O366 Zn367 1.899 . S
O366 C374 1.284 . S
Zn367 O366 1.899 . S
Zn367 O368 2.032 . S
Zn367 O371 2.086 . S
Zn367 O376 1.977 . S
O368 Zn367 2.032 . S
O368 C372 1.278 . S
C369 O370 1.203 . S
C369 O376 1.267 . S
O370 C369 1.203 . S
O371 C364 1.185 . S
O371 Zn367 2.086 . S
C372 O368 1.278 . S
C372 O373 1.211 . S
O373 C372 1.211 . S
C374 O366 1.284 . S
C374 O375 1.273 . S
O375 C374 1.273 . S
O376 Zn367 1.977 . S
O376 C369 1.267 . S
C377 O378 1.160 . S
C377 O384 1.185 . S
O378 C377 1.160 . S
O379 Zn380 1.899 . S
O379 C387 1.284 . S
Zn380 O379 1.899 . S
Zn380 O381 2.032 . S
Zn380 O384 2.086 . S
Zn380 O389 1.977 . S
O381 Zn380 2.032 . S
O381 C385 1.278 . S
C382 O383 1.203 . S
C382 O389 1.267 . S
O383 C382 1.203 . S
O384 C377 1.185 . S
O384 Zn380 2.086 . S
C385 O381 1.278 . S
C385 O386 1.211 . S
O386 C385 1.211 . S
C387 O379 1.284 . S
C387 O388 1.273 . S
O388 C387 1.273 . S
O389 Zn380 1.977 . S
O389 C382 1.267 . S
C390 O391 1.160 . S
C390 O397 1.185 . S
O391 C390 1.160 . S
O392 Zn393 1.899 . S
O392 C400 1.284 . S
Zn393 O392 1.899 . S
Zn393 O394 2.032 . S
Zn393 O397 2.086 . S
Zn393 O402 1.977 . S
O394 Zn393 2.032 . S
O394 C398 1.278 . S
C395 O396 1.203 . S
C395 O402 1.267 . S
O396 C395 1.203 . S
O397 C390 1.185 . S
O397 Zn393 2.086 . S
C398 O394 1.278 . S
C398 O399 1.211 . S
O399 C398 1.211 . S
C400 O392 1.284 . S
C400 O401 1.273 . S
O401 C400 1.273 . S
O402 Zn393 1.977 . S
O402 C395 1.267 . S
C403 O404 1.160 . S
C403 O410 1.185 . S
O404 C403 1.160 . S
O405 Zn406 1.899 . S
O405 C413 1.284 . S
Zn406 O405 1.899 . S
Zn406 O407 2.032 . S
Zn406 O410 2.086 . S
Zn406 O415 1.977 . S
O407 Zn406 2.032 . S
O407 C411 1.278 . S
C408 O409 1.203 . S
C408 O415 1.267 . S
O409 C408 1.203 . S
O410 C403 1.185 . S
O410 Zn406 2.086 . S
C411 O407 1.278 . S
C411 O412 1.211 . S
O412 C411 1.211 . S
C413 O405 1.284 . S
C413 O414 1.273 . S
O414 C413 1.273 . S
O415 Zn406 1.977 . S
O415 C408 1.267 . S
C416 O417 1.160 . S
C416 O423 1.185 . S
O417 C416 1.160 . S
O418 Zn419 1.899 . S
O418 C426 1.284 . S
Zn419 O418 1.899 . S
Zn419 O420 2.032 . S
Zn419 O423 2.086 . S
Zn419 O428 1.977 . S
O420 Zn419 2.032 . S
O420 C424 1.278 . S
C421 O422 1.203 . S
C421 O428 1.267 . S
O422 C421 1.203 . S
O423 C416 1.185 . S
O423 Zn419 2.086 . S
C424 O420 1.278 . S
C424 O425 1.211 . S
O425 C424 1.211 . S
C426 O418 1.284 . S
C426 O427 1.273 . S
O427 C426 1.273 . S
O428 Zn419 1.977 . S
O428 C421 1.267 . S
C429 O430 1.160 . S
C429 O436 1.185 . S
O430 C429 1.160 . S
O431 Zn432 1.899 . S
O431 C439 1.284 . S
Zn432 O431 1.899 . S
Zn432 O433 2.032 . S
Zn432 O436 2.086 . S
Zn432 O441 1.977 . S
O433 Zn432 2.032 . S
O433 C437 1.278 . S
C434 O435 1.203 . S
C434 O441 1.267 . S
O435 C434 1.203 . S
O436 C429 1.185 . S
O436 Zn432 2.086 . S
C437 O433 1.278 . S
C437 O438 1.211 . S
O438 C437 1.211 . S
C439 O431 1.284 . S
C439 O440 1.273 . S
O440 C439 1.273 . S
O441 Zn432 1.977 . S
O441 C434 1.267 . S
C442 O443 1.160 . S
C442 O449 1.185 . S
O443 C442 1.160 . S
O444 Zn445 1.899 . S
O444 C452 1.284 . S
Zn445 O444 1.899 . S
Zn445 O446 2.032 . S
Zn445 O449 2.086 . S
Zn445 O454 1.977 . S
O446 Zn445 2.032 . S
O446 C450 1.278 . S
C447 O448 1.203 . S
C447 O454 1.267 . S
O448 C447 1.203 . S
O449 C442 1.185 . S
O449 Zn445 2.086 . S
C450 O446 1.278 . S
C450 O451 1.211 . S
O451 C450 1.211 . S
C452 O444 1.284 . S
C452 O453 1.273 . S
O453 C452 1.273 . S
O454 Zn445 1.977 . S
O454 C447 1.267 . S
C455 O456 1.160 . S
C455 O462 1.185 . S
O456 C455 1.160 . S
O457 Zn458 1.899 . S
O457 C465 1.284 . S
Zn458 O457 1.899 . S
Zn458 O459 2.032 . S
Zn458 O462 2.086 . S
Zn458 O467 1.977 . S
O459 Zn458 2.032 . S
O459 C463 1.278 . S
C460 O461 1.203 . S
C460 O467 1.267 . S
O461 C460 1.203 . S
O462 C455 1.185 . S
O462 Zn458 2.086 . S
C463 O459 1.278 . S
C463 O464 1.211 . S
O464 C463 1.211 . S
C465 O457 1.284 . S
C465 O466 1.273 . S
O466 C465 1.273 . S
O467 Zn458 1.977 . S
O467 C460 1.267 . S
C468 O469 1.160 . S
C468 O475 1.185 . S
O469 C468 1.160 . S
O470 Zn471 1.899 . S
O470 C478 1.284 . S
Zn471 O470 1.899 . S
Zn471 O472 2.032 . S
Zn471 O475 2.086 . S
Zn471 O480 1.977 . S
O472 Zn471 2.032 . S
O472 C476 1.278 . S
C473 O474 1.203 . S
C473 O480 1.267 . S
O474 C473 1.203 . S
O475 C468 1.185 . S
O475 Zn471 2.086 . S
C476 O472 1.278 . S
C476 O477 1.211 . S
O477 C476 1.211 . S
C478 O470 1.284 . S
C478 O479 1.273 . S
O479 C478 1.273 . S
O480 Zn471 1.977 . S
O480 C473 1.267 . S
C481 O482 1.160 . S
C481 O488 1.185 . S
O482 C481 1.160 . S
O483 Zn484 1.899 . S
O483 C491 1.284 . S
Zn484 O483 1.899 . S
Zn484 O485 2.032 . S
Zn484 O488 2.086 . S
Zn484 O493 1.977 . S
O485 Zn484 2.032 . S
O485 C489 1.278 . S
C486 O487 1.203 . S
C486 O493 1.267 . S
O487 C486 1.203 . S
O488 C481 1.185 . S
O488 Zn484 2.086 . S
C489 O485 1.278 . S
C489 O490 1.211 . S
O490 C489 1.211 . S
C491 O483 1.284 . S
C491 O492 1.273 . S
O492 C491 1.273 . S
O493 Zn484 1.977 . S
O493 C486 1.267 . S
C494 O495 1.160 . S
C494 O501 1.185 . S
O495 C494 1.160 . S
O496 Zn497 1.899 . S
O496 C504 1.284 . S
Zn497 O496 1.899 . S
Zn497 O498 2.032 . S
Zn497 O501 2.086 . S
Zn497 O506 1.977 . S
O498 Zn497 2.032 . S
O498 C502 1.278 . S
C499 O500 1.203 . S
C499 O506 1.267 . S
O500 C499 1.203 . S
O501 C494 1.185 . S
O501 Zn497 2.086 . S
C502 O498 1.278 . S
C502 O503 1.211 . S
O503 C502 1.211 . S
C504 O496 1.284 . S
C504 O505 1.273 . S
O505 C504 1.273 . S
O506 Zn497 1.977 . S
O506 C499 1.267 . S
C507 O508 1.160 . S
C507 O514 1.185 . S
O508 C507 1.160 . S
O509 Zn510 1.899 . S
O509 C517 1.284 . S
Zn510 O509 1.899 . S
Zn510 O511 2.032 . S
Zn510 O514 2.086 . S
Zn510 O519 1.977 . S
O511 Zn510 2.032 . S
O511 C515 1.278 . S
C512 O513 1.203 . S
C512 O519 1.267 . S
O513 C512 1.203 . S
O514 C507 1.185 . S
O514 Zn510 2.086 . S
C515 O511 1.278 . S
C515 O516 1.211 . S
O516 C515 1.211 . S
C517 O509 1.284 . S
C517 O518 1.273 . S
O518 C517 1.273 . S
O519 Zn510 1.977 . S
O519 C512 1.267 . S
C520 O521 1.160 . S
C520 O527 1.185 . S
O521 C520 1.160 . S
O522 Zn523 1.899 . S
O522 C530 1.284 . S
Zn523 O522 1.899 . S
Zn523 O524 2.032 . S
Zn523 O527 2.086 . S
Zn523 O532 1.977 . S
O524 Zn523 2.032 . S
O524 C528 1.278 . S
C525 O526 1.203 . S
C525 O532 1.267 . S
O526 C525 1.203 . S
O527 C520 1.185 . S
O527 Zn523 2.086 . S
C528 O524 1.278 . S
C528 O529 1.211 . S
O529 C528 1.211 . S
C530 O522 1.284 . S
C530 O531 1.273 . S
O531 C530 1.273 . S
O532 Zn523 1.977 . S
O532 C525 1.267 . S
C533 O534 1.160 . S
C533 O540 1.185 . S
O534 C533 1.160 . S
O535 Zn536 1.899 . S
O535 C543 1.284 . S
Zn536 O535 1.899 . S
Zn536 O537 2.032 . S
Zn536 O540 2.086 . S
Zn536 O545 1.977 . S
O537 Zn536 2.032 . S
O537 C541 1.278 . S
C538 O539 1.203 . S
C538 O545 1.267 . S
O539 C538 1.203 . S
O540 C533 1.185 . S
O540 Zn536 2.086 . S
C541 O537 1.278 . S
C541 O542 1.211 . S
O542 C541 1.211 . S
C543 O535 1.284 . S
C543 O544 1.273 . S
O544 C543 1.273 . S
O545 Zn536 1.977 . S
O545 C538 1.267 . S
C546 O547 1.160 . S
C546 O553 1.185 . S
O547 C546 1.160 . S
O548 Zn549 1.899 . S
O548 C556 1.284 . S
Zn549 O548 1.899 . S
Zn549 O550 2.032 . S
Zn549 O553 2.086 . S
Zn549 O558 1.977 . S
O550 Zn549 2.032 . S
O550 C554 1.278 . S
C551 O552 1.203 . S
C551 O558 1.267 . S
O552 C551 1.203 . S
O553 C546 1.185 . S
O553 Zn549 2.086 . S
C554 O550 1.278 . S
C554 O555 1.211 . S
O555 C554 1.211 . S
C556 O548 1.284 . S
C556 O557 1.273 . S
O557 C556 1.273 . S
O558 Zn549 1.977 . S
O558 C551 1.267 . S
C559 O560 1.160 . S
C559 O566 1.185 . S
O560 C559 1.160 . S
O561 Zn562 1.899 . S
O561 C569 1.284 . S
Zn562 O561 1.899 . S
Zn562 O563 2.032 . S
Zn562 O566 2.086 . S
Zn562 O571 1.977 . S
O563 Zn562 2.032 . S
O563 C567 1.278 . S
C564 O565 1.203 . S
C564 O571 1.267 . S
O565 C564 1.203 . S
O566 C559 1.185 . S
O566 Zn562 2.086 . S
C567 O563 1.278 . S
C567 O568 1.211 . S
O568 C567 1.211 . S
C569 O561 1.284 . S
C569 O570 1.273 . S
O570 C569 1.273 . S
O571 Zn562 1.977 . S
O571 C564 1.267 . S
C572 O573 1.160 . S
C572 O579 1.185 . S
O573 C572 1.160 . S
O574 Zn575 1.899 . S
O574 C582 1.284 . S
Zn575 O574 1.899 . S
Zn575 O576 2.032 . S
Zn575 O579 2.086 . S
Zn575 O584 1.977 . S
O576 Zn575 2.032 . S
O576 C580 1.278 . S
C577 O578 1.203 . S
C577 O584 1.267 . S
O578 C577 1.203 . S
O579 C572 1.185 . S
O579 Zn575 2.086 . S
C580 O576 1.278 . S
C580 O581 1.211 . S
O581 C580 1.211 . S
C582 O574 1.284 . S
C582 O583 1.273 . S
O583 C582 1.273 . S
O584 Zn575 1.977 . S
O584 C577 1.267 . S
C585 O586 1.160 . S
C585 O592 1.185 . S
O586 C585 1.160 . S
O587 Zn588 1.899 . S
O587 C595 1.284 . S
Zn588 O587 1.899 . S
Zn588 O589 2.032 . S
Zn588 O592 2.086 . S
Zn588 O597 1.977 . S
O589 Zn588 2.032 . S
O589 C593 1.278 . S
C590 O591 1.203 . S
C590 O597 1.267 . S
O591 C590 1.203 . S
O592 C585 1.185 . S
O592 Zn588 2.086 . S
C593 O589 1.278 . S
C593 O594 1.211 . S
O594 C593 1.211 . S
C595 O587 1.284 . S
C595 O596 1.273 . S
O596 C595 1.273 . S
O597 Zn588 1.977 . S
O597 C590 1.267 . S
C598 O599 1.160 . S
C598 O605 1.185 . S
O599 C598 1.160 . S
O600 Zn601 1.899 . S
O600 C608 1.284 . S
Zn601 O600 1.899 . S
Zn601 O602 2.032 . S
Zn601 O605 2.086 . S
Zn601 O610 1.977 . S
O602 Zn601 2.032 . S
O602 C606 1.278 . S
C603 O604 1.203 . S
C603 O610 1.267 . S
O604 C603 1.203 . S
O605 C598 1.185 . S
O605 Zn601 2.086 . S
C606 O602 1.278 . S
C606 O607 1.211 . S
O607 C606 1.211 . S
C608 O600 1.284 . S
C608 O609 1.273 . S
O609 C608 1.273 . S
O610 Zn601 1.977 . S
O610 C603 1.267 . S
C611 O612 1.160 . S
C611 O618 1.185 . S
O612 C611 1.160 . S
O613 Zn614 1.899 . S
O613 C621 1.284 . S
Zn614 O613 1.899 . S
Zn614 O615 2.032 . S
Zn614 O618 2.086 . S
Zn614 O623 1.977 . S
O615 Zn614 2.032 . S
O615 C619 1.278 . S
C616 O617 1.203 . S
C616 O623 1.267 . S
O617 C616 1.203 . S
O618 C611 1.185 . S
O618 Zn614 2.086 . S
C619 O615 1.278 . S
C619 O620 1.211 . S
O620 C619 1.211 . S
C621 O613 1.284 . S
C621 O622 1.273 . S
O622 C621 1.273 . S
O623 Zn614 1.977 . S
O623 C616 1.267 . S
H624 C636 0.930 . S
H625 C638 0.930 . S
H626 C639 0.930 . S
H627 C643 0.959 . S
H628 C643 0.959 . S
H629 C643 0.961 . S
H630 C644 0.960 . S
H631 C644 0.961 . S
H632 C644 0.959 . S
H633 C647 0.929 . S
H634 C648 0.931 . S
H635 C650 0.930 . S
C636 H624 0.930 . S
C636 C637 1.399 . S
C636 C641 1.399 . S
C637 C636 1.399 . S
C637 C638 1.376 . S
C638 H625 0.930 . S
C638 C637 1.376 . S
C638 C639 1.388 . S
C639 H626 0.930 . S
C639 C638 1.388 . S
C639 C640 1.390 . S
C640 C639 1.390 . S
C640 C641 1.394 . S
C640 C646 1.465 . S
C641 C636 1.399 . S
C641 C640 1.394 . S
C641 C642 1.516 . S
C642 C641 1.516 . S
C642 C643 1.502 . S
C642 C644 1.561 . S
C642 C645 1.526 . S
C643 H627 0.959 . S
C643 H628 0.959 . S
C643 H629 0.961 . S
C643 C642 1.502 . S
C644 H630 0.960 . S
C644 H631 0.961 . S
C644 H632 0.959 . S
C644 C642 1.561 . S
C645 C642 1.526 . S
C645 C646 1.396 . S
C645 C650 1.390 . S
C646 C640 1.465 . S
C646 C645 1.396 . S
C646 C647 1.399 . S
C647 H633 0.929 . S
C647 C646 1.399 . S
C647 C648 1.385 . S
C648 H634 0.931 . S
C648 C647 1.385 . S
C648 C649 1.389 . S
C649 C648 1.389 . S
C649 C650 1.387 . S
C650 H635 0.930 . S
C650 C645 1.390 . S
C650 C649 1.387 . S
H651 C663 0.930 . S
H652 C665 0.930 . S
H653 C666 0.930 . S
H654 C670 0.959 . S
H655 C670 0.959 . S
H656 C670 0.961 . S
H657 C671 0.960 . S
H658 C671 0.961 . S
H659 C671 0.959 . S
H660 C674 0.929 . S
H661 C675 0.931 . S
H662 C677 0.930 . S
C663 H651 0.930 . S
C663 C664 1.399 . S
C663 C668 1.399 . S
C664 C663 1.399 . S
C664 C665 1.376 . S
C665 H652 0.930 . S
C665 C664 1.376 . S
C665 C666 1.388 . S
C666 H653 0.930 . S
C666 C665 1.388 . S
C666 C667 1.390 . S
C667 C666 1.390 . S
C667 C668 1.394 . S
C667 C673 1.465 . S
C668 C663 1.399 . S
C668 C667 1.394 . S
C668 C669 1.516 . S
C669 C668 1.516 . S
C669 C670 1.502 . S
C669 C671 1.561 . S
C669 C672 1.526 . S
C670 H654 0.959 . S
C670 H655 0.959 . S
C670 H656 0.961 . S
C670 C669 1.502 . S
C671 H657 0.960 . S
C671 H658 0.961 . S
C671 H659 0.959 . S
C671 C669 1.561 . S
C672 C669 1.526 . S
C672 C673 1.396 . S
C672 C677 1.390 . S
C673 C667 1.465 . S
C673 C672 1.396 . S
C673 C674 1.399 . S
C674 H660 0.929 . S
C674 C673 1.399 . S
C674 C675 1.385 . S
C675 H661 0.931 . S
C675 C674 1.385 . S
C675 C676 1.389 . S
C676 C675 1.389 . S
C676 C677 1.387 . S
C677 H662 0.930 . S
C677 C672 1.390 . S
C677 C676 1.387 . S
H678 C690 0.930 . S
H679 C692 0.930 . S
H680 C693 0.930 . S
H681 C697 0.959 . S
H682 C697 0.959 . S
H683 C697 0.961 . S
H684 C698 0.960 . S
H685 C698 0.961 . S
H686 C698 0.959 . S
H687 C701 0.929 . S
H688 C702 0.931 . S
H689 C704 0.930 . S
C690 H678 0.930 . S
C690 C691 1.399 . S
C690 C695 1.399 . S
C691 C690 1.399 . S
C691 C692 1.376 . S
C692 H679 0.930 . S
C692 C691 1.376 . S
C692 C693 1.388 . S
C693 H680 0.930 . S
C693 C692 1.388 . S
C693 C694 1.390 . S
C694 C693 1.390 . S
C694 C695 1.394 . S
C694 C700 1.465 . S
C695 C690 1.399 . S
C695 C694 1.394 . S
C695 C696 1.516 . S
C696 C695 1.516 . S
C696 C697 1.502 . S
C696 C698 1.561 . S
C696 C699 1.526 . S
C697 H681 0.959 . S
C697 H682 0.959 . S
C697 H683 0.961 . S
C697 C696 1.502 . S
C698 H684 0.960 . S
C698 H685 0.961 . S
C698 H686 0.959 . S
C698 C696 1.561 . S
C699 C696 1.526 . S
C699 C700 1.396 . S
C699 C704 1.390 . S
C700 C694 1.465 . S
C700 C699 1.396 . S
C700 C701 1.399 . S
C701 H687 0.929 . S
C701 C700 1.399 . S
C701 C702 1.385 . S
C702 H688 0.931 . S
C702 C701 1.385 . S
C702 C703 1.389 . S
C703 C702 1.389 . S
C703 C704 1.387 . S
C704 H689 0.930 . S
C704 C699 1.390 . S
C704 C703 1.387 . S
H705 C717 0.930 . S
H706 C719 0.930 . S
H707 C720 0.930 . S
H708 C724 0.959 . S
H709 C724 0.959 . S
H710 C724 0.961 . S
H711 C725 0.960 . S
H712 C725 0.961 . S
H713 C725 0.959 . S
H714 C728 0.929 . S
H715 C729 0.931 . S
H716 C731 0.930 . S
C717 H705 0.930 . S
C717 C718 1.399 . S
C717 C722 1.399 . S
C718 C717 1.399 . S
C718 C719 1.376 . S
C719 H706 0.930 . S
C719 C718 1.376 . S
C719 C720 1.388 . S
C720 H707 0.930 . S
C720 C719 1.388 . S
C720 C721 1.390 . S
C721 C720 1.390 . S
C721 C722 1.394 . S
C721 C727 1.465 . S
C722 C717 1.399 . S
C722 C721 1.394 . S
C722 C723 1.516 . S
C723 C722 1.516 . S
C723 C724 1.502 . S
C723 C725 1.561 . S
C723 C726 1.526 . S
C724 H708 0.959 . S
C724 H709 0.959 . S
C724 H710 0.961 . S
C724 C723 1.502 . S
C725 H711 0.960 . S
C725 H712 0.961 . S
C725 H713 0.959 . S
C725 C723 1.561 . S
C726 C723 1.526 . S
C726 C727 1.396 . S
C726 C731 1.390 . S
C727 C721 1.465 . S
C727 C726 1.396 . S
C727 C728 1.399 . S
C728 H714 0.929 . S
C728 C727 1.399 . S
C728 C729 1.385 . S
C729 H715 0.931 . S
C729 C728 1.385 . S
C729 C730 1.389 . S
C730 C729 1.389 . S
C730 C731 1.387 . S
C731 H716 0.930 . S
C731 C726 1.390 . S
C731 C730 1.387 . S
H732 C744 0.930 . S
H733 C746 0.930 . S
H734 C747 0.930 . S
H735 C751 0.959 . S
H736 C751 0.959 . S
H737 C751 0.961 . S
H738 C752 0.960 . S
H739 C752 0.961 . S
H740 C752 0.959 . S
H741 C755 0.929 . S
H742 C756 0.931 . S
H743 C758 0.930 . S
C744 H732 0.930 . S
C744 C745 1.399 . S
C744 C749 1.399 . S
C745 C744 1.399 . S
C745 C746 1.376 . S
C746 H733 0.930 . S
C746 C745 1.376 . S
C746 C747 1.388 . S
C747 H734 0.930 . S
C747 C746 1.388 . S
C747 C748 1.390 . S
C748 C747 1.390 . S
C748 C749 1.394 . S
C748 C754 1.465 . S
C749 C744 1.399 . S
C749 C748 1.394 . S
C749 C750 1.516 . S
C750 C749 1.516 . S
C750 C751 1.502 . S
C750 C752 1.561 . S
C750 C753 1.526 . S
C751 H735 0.959 . S
C751 H736 0.959 . S
C751 H737 0.961 . S
C751 C750 1.502 . S
C752 H738 0.960 . S
C752 H739 0.961 . S
C752 H740 0.959 . S
C752 C750 1.561 . S
C753 C750 1.526 . S
C753 C754 1.396 . S
C753 C758 1.390 . S
C754 C748 1.465 . S
C754 C753 1.396 . S
C754 C755 1.399 . S
C755 H741 0.929 . S
C755 C754 1.399 . S
C755 C756 1.385 . S
C756 H742 0.931 . S
C756 C755 1.385 . S
C756 C757 1.389 . S
C757 C756 1.389 . S
C757 C758 1.387 . S
C758 H743 0.930 . S
C758 C753 1.390 . S
C758 C757 1.387 . S
H759 C771 0.930 . S
H760 C773 0.930 . S
H761 C774 0.930 . S
H762 C778 0.959 . S
H763 C778 0.959 . S
H764 C778 0.961 . S
H765 C779 0.960 . S
H766 C779 0.961 . S
H767 C779 0.959 . S
H768 C782 0.929 . S
H769 C783 0.931 . S
H770 C785 0.930 . S
C771 H759 0.930 . S
C771 C772 1.399 . S
C771 C776 1.399 . S
C772 C771 1.399 . S
C772 C773 1.376 . S
C773 H760 0.930 . S
C773 C772 1.376 . S
C773 C774 1.388 . S
C774 H761 0.930 . S
C774 C773 1.388 . S
C774 C775 1.390 . S
C775 C774 1.390 . S
C775 C776 1.394 . S
C775 C781 1.465 . S
C776 C771 1.399 . S
C776 C775 1.394 . S
C776 C777 1.516 . S
C777 C776 1.516 . S
C777 C778 1.502 . S
C777 C779 1.561 . S
C777 C780 1.526 . S
C778 H762 0.959 . S
C778 H763 0.959 . S
C778 H764 0.961 . S
C778 C777 1.502 . S
C779 H765 0.960 . S
C779 H766 0.961 . S
C779 H767 0.959 . S
C779 C777 1.561 . S
C780 C777 1.526 . S
C780 C781 1.396 . S
C780 C785 1.390 . S
C781 C775 1.465 . S
C781 C780 1.396 . S
C781 C782 1.399 . S
C782 H768 0.929 . S
C782 C781 1.399 . S
C782 C783 1.385 . S
C783 H769 0.931 . S
C783 C782 1.385 . S
C783 C784 1.389 . S
C784 C783 1.389 . S
C784 C785 1.387 . S
C785 H770 0.930 . S
C785 C780 1.390 . S
C785 C784 1.387 . S
H786 C798 0.930 . S
H787 C800 0.930 . S
H788 C801 0.930 . S
H789 C805 0.959 . S
H790 C805 0.959 . S
H791 C805 0.961 . S
H792 C806 0.960 . S
H793 C806 0.961 . S
H794 C806 0.959 . S
H795 C809 0.929 . S
H796 C810 0.931 . S
H797 C812 0.930 . S
C798 H786 0.930 . S
C798 C799 1.399 . S
C798 C803 1.399 . S
C799 C798 1.399 . S
C799 C800 1.376 . S
C800 H787 0.930 . S
C800 C799 1.376 . S
C800 C801 1.388 . S
C801 H788 0.930 . S
C801 C800 1.388 . S
C801 C802 1.390 . S
C802 C801 1.390 . S
C802 C803 1.394 . S
C802 C808 1.465 . S
C803 C798 1.399 . S
C803 C802 1.394 . S
C803 C804 1.516 . S
C804 C803 1.516 . S
C804 C805 1.502 . S
C804 C806 1.561 . S
C804 C807 1.526 . S
C805 H789 0.959 . S
C805 H790 0.959 . S
C805 H791 0.961 . S
C805 C804 1.502 . S
C806 H792 0.960 . S
C806 H793 0.961 . S
C806 H794 0.959 . S
C806 C804 1.561 . S
C807 C804 1.526 . S
C807 C808 1.396 . S
C807 C812 1.390 . S
C808 C802 1.465 . S
C808 C807 1.396 . S
C808 C809 1.399 . S
C809 H795 0.929 . S
C809 C808 1.399 . S
C809 C810 1.385 . S
C810 H796 0.931 . S
C810 C809 1.385 . S
C810 C811 1.389 . S
C811 C810 1.389 . S
C811 C812 1.387 . S
C812 H797 0.930 . S
C812 C807 1.390 . S
C812 C811 1.387 . S
H813 C825 0.930 . S
H814 C827 0.930 . S
H815 C828 0.930 . S
H816 C832 0.959 . S
H817 C832 0.959 . S
H818 C832 0.961 . S
H819 C833 0.960 . S
H820 C833 0.961 . S
H821 C833 0.959 . S
H822 C836 0.929 . S
H823 C837 0.931 . S
H824 C839 0.930 . S
C825 H813 0.930 . S
C825 C826 1.399 . S
C825 C830 1.399 . S
C826 C825 1.399 . S
C826 C827 1.376 . S
C827 H814 0.930 . S
C827 C826 1.376 . S
C827 C828 1.388 . S
C828 H815 0.930 . S
C828 C827 1.388 . S
C828 C829 1.390 . S
C829 C828 1.390 . S
C829 C830 1.394 . S
C829 C835 1.465 . S
C830 C825 1.399 . S
C830 C829 1.394 . S
C830 C831 1.516 . S
C831 C830 1.516 . S
C831 C832 1.502 . S
C831 C833 1.561 . S
C831 C834 1.526 . S
C832 H816 0.959 . S
C832 H817 0.959 . S
C832 H818 0.961 . S
C832 C831 1.502 . S
C833 H819 0.960 . S
C833 H820 0.961 . S
C833 H821 0.959 . S
C833 C831 1.561 . S
C834 C831 1.526 . S
C834 C835 1.396 . S
C834 C839 1.390 . S
C835 C829 1.465 . S
C835 C834 1.396 . S
C835 C836 1.399 . S
C836 H822 0.929 . S
C836 C835 1.399 . S
C836 C837 1.385 . S
C837 H823 0.931 . S
C837 C836 1.385 . S
C837 C838 1.389 . S
C838 C837 1.389 . S
C838 C839 1.387 . S
C839 H824 0.930 . S
C839 C834 1.390 . S
C839 C838 1.387 . S
H840 C852 0.930 . S
H841 C854 0.930 . S
H842 C855 0.930 . S
H843 C859 0.959 . S
H844 C859 0.959 . S
H845 C859 0.961 . S
H846 C860 0.960 . S
H847 C860 0.961 . S
H848 C860 0.959 . S
H849 C863 0.929 . S
H850 C864 0.931 . S
H851 C866 0.930 . S
C852 H840 0.930 . S
C852 C853 1.399 . S
C852 C857 1.399 . S
C853 C852 1.399 . S
C853 C854 1.376 . S
C854 H841 0.930 . S
C854 C853 1.376 . S
C854 C855 1.388 . S
C855 H842 0.930 . S
C855 C854 1.388 . S
C855 C856 1.390 . S
C856 C855 1.390 . S
C856 C857 1.394 . S
C856 C862 1.465 . S
C857 C852 1.399 . S
C857 C856 1.394 . S
C857 C858 1.516 . S
C858 C857 1.516 . S
C858 C859 1.502 . S
C858 C860 1.561 . S
C858 C861 1.526 . S
C859 H843 0.959 . S
C859 H844 0.959 . S
C859 H845 0.961 . S
C859 C858 1.502 . S
C860 H846 0.960 . S
C860 H847 0.961 . S
C860 H848 0.959 . S
C860 C858 1.561 . S
C861 C858 1.526 . S
C861 C862 1.396 . S
C861 C866 1.390 . S
C862 C856 1.465 . S
C862 C861 1.396 . S
C862 C863 1.399 . S
C863 H849 0.929 . S
C863 C862 1.399 . S
C863 C864 1.385 . S
C864 H850 0.931 . S
C864 C863 1.385 . S
C864 C865 1.389 . S
C865 C864 1.389 . S
C865 C866 1.387 . S
C866 H851 0.930 . S
C866 C861 1.390 . S
C866 C865 1.387 . S
H867 C879 0.930 . S
H868 C881 0.930 . S
H869 C882 0.930 . S
H870 C886 0.959 . S
H871 C886 0.959 . S
H872 C886 0.961 . S
H873 C887 0.960 . S
H874 C887 0.961 . S
H875 C887 0.959 . S
H876 C890 0.929 . S
H877 C891 0.931 . S
H878 C893 0.930 . S
C879 H867 0.930 . S
C879 C880 1.399 . S
C879 C884 1.399 . S
C880 C879 1.399 . S
C880 C881 1.376 . S
C881 H868 0.930 . S
C881 C880 1.376 . S
C881 C882 1.388 . S
C882 H869 0.930 . S
C882 C881 1.388 . S
C882 C883 1.390 . S
C883 C882 1.390 . S
C883 C884 1.394 . S
C883 C889 1.465 . S
C884 C879 1.399 . S
C884 C883 1.394 . S
C884 C885 1.516 . S
C885 C884 1.516 . S
C885 C886 1.502 . S
C885 C887 1.561 . S
C885 C888 1.526 . S
C886 H870 0.959 . S
C886 H871 0.959 . S
C886 H872 0.961 . S
C886 C885 1.502 . S
C887 H873 0.960 . S
C887 H874 0.961 . S
C887 H875 0.959 . S
C887 C885 1.561 . S
C888 C885 1.526 . S
C888 C889 1.396 . S
C888 C893 1.390 . S
C889 C883 1.465 . S
C889 C888 1.396 . S
C889 C890 1.399 . S
C890 H876 0.929 . S
C890 C889 1.399 . S
C890 C891 1.385 . S
C891 H877 0.931 . S
C891 C890 1.385 . S
C891 C892 1.389 . S
C892 C891 1.389 . S
C892 C893 1.387 . S
C893 H878 0.930 . S
C893 C888 1.390 . S
C893 C892 1.387 . S
H894 C906 0.930 . S
H895 C908 0.930 . S
H896 C909 0.930 . S
H897 C913 0.959 . S
H898 C913 0.959 . S
H899 C913 0.961 . S
H900 C914 0.960 . S
H901 C914 0.961 . S
H902 C914 0.959 . S
H903 C917 0.929 . S
H904 C918 0.931 . S
H905 C920 0.930 . S
C906 H894 0.930 . S
C906 C907 1.399 . S
C906 C911 1.399 . S
C907 C906 1.399 . S
C907 C908 1.376 . S
C908 H895 0.930 . S
C908 C907 1.376 . S
C908 C909 1.388 . S
C909 H896 0.930 . S
C909 C908 1.388 . S
C909 C910 1.390 . S
C910 C909 1.390 . S
C910 C911 1.394 . S
C910 C916 1.465 . S
C911 C906 1.399 . S
C911 C910 1.394 . S
C911 C912 1.516 . S
C912 C911 1.516 . S
C912 C913 1.502 . S
C912 C914 1.561 . S
C912 C915 1.526 . S
C913 H897 0.959 . S
C913 H898 0.959 . S
C913 H899 0.961 . S
C913 C912 1.502 . S
C914 H900 0.960 . S
C914 H901 0.961 . S
C914 H902 0.959 . S
C914 C912 1.561 . S
C915 C912 1.526 . S
C915 C916 1.396 . S
C915 C920 1.390 . S
C916 C910 1.465 . S
C916 C915 1.396 . S
C916 C917 1.399 . S
C917 H903 0.929 . S
C917 C916 1.399 . S
C917 C918 1.385 . S
C918 H904 0.931 . S
C918 C917 1.385 . S
C918 C919 1.389 . S
C919 C918 1.389 . S
C919 C920 1.387 . S
C920 H905 0.930 . S
C920 C915 1.390 . S
C920 C919 1.387 . S
H921 C933 0.930 . S
H922 C935 0.930 . S
H923 C936 0.930 . S
H924 C940 0.959 . S
H925 C940 0.959 . S
H926 C940 0.961 . S
H927 C941 0.960 . S
H928 C941 0.961 . S
H929 C941 0.959 . S
H930 C944 0.929 . S
H931 C945 0.931 . S
H932 C947 0.930 . S
C933 H921 0.930 . S
C933 C934 1.399 . S
C933 C938 1.399 . S
C934 C933 1.399 . S
C934 C935 1.376 . S
C935 H922 0.930 . S
C935 C934 1.376 . S
C935 C936 1.388 . S
C936 H923 0.930 . S
C936 C935 1.388 . S
C936 C937 1.390 . S
C937 C936 1.390 . S
C937 C938 1.394 . S
C937 C943 1.465 . S
C938 C933 1.399 . S
C938 C937 1.394 . S
C938 C939 1.516 . S
C939 C938 1.516 . S
C939 C940 1.502 . S
C939 C941 1.561 . S
C939 C942 1.526 . S
C940 H924 0.959 . S
C940 H925 0.959 . S
C940 H926 0.961 . S
C940 C939 1.502 . S
C941 H927 0.960 . S
C941 H928 0.961 . S
C941 H929 0.959 . S
C941 C939 1.561 . S
C942 C939 1.526 . S
C942 C943 1.396 . S
C942 C947 1.390 . S
C943 C937 1.465 . S
C943 C942 1.396 . S
C943 C944 1.399 . S
C944 H930 0.929 . S
C944 C943 1.399 . S
C944 C945 1.385 . S
C945 H931 0.931 . S
C945 C944 1.385 . S
C945 C946 1.389 . S
C946 C945 1.389 . S
C946 C947 1.387 . S
C947 H932 0.930 . S
C947 C942 1.390 . S
C947 C946 1.387 . S
H948 C960 0.930 . S
H949 C962 0.930 . S
H950 C963 0.930 . S
H951 C967 0.959 . S
H952 C967 0.959 . S
H953 C967 0.961 . S
H954 C968 0.960 . S
H955 C968 0.961 . S
H956 C968 0.959 . S
H957 C971 0.929 . S
H958 C972 0.931 . S
H959 C974 0.930 . S
C960 H948 0.930 . S
C960 C961 1.399 . S
C960 C965 1.399 . S
C961 C960 1.399 . S
C961 C962 1.376 . S
C962 H949 0.930 . S
C962 C961 1.376 . S
C962 C963 1.388 . S
C963 H950 0.930 . S
C963 C962 1.388 . S
C963 C964 1.390 . S
C964 C963 1.390 . S
C964 C965 1.394 . S
C964 C970 1.465 . S
C965 C960 1.399 . S
C965 C964 1.394 . S
C965 C966 1.516 . S
C966 C965 1.516 . S
C966 C967 1.502 . S
C966 C968 1.561 . S
C966 C969 1.526 . S
C967 H951 0.959 . S
C967 H952 0.959 . S
C967 H953 0.961 . S
C967 C966 1.502 . S
C968 H954 0.960 . S
C968 H955 0.961 . S
C968 H956 0.959 . S
C968 C966 1.561 . S
C969 C966 1.526 . S
C969 C970 1.396 . S
C969 C974 1.390 . S
C970 C964 1.465 . S
C970 C969 1.396 . S
C970 C971 1.399 . S
C971 H957 0.929 . S
C971 C970 1.399 . S
C971 C972 1.385 . S
C972 H958 0.931 . S
C972 C971 1.385 . S
C972 C973 1.389 . S
C973 C972 1.389 . S
C973 C974 1.387 . S
C974 H959 0.930 . S
C974 C969 1.390 . S
C974 C973 1.387 . S
H975 C987 0.930 . S
H976 C989 0.930 . S
H977 C990 0.930 . S
H978 C994 0.959 . S
H979 C994 0.959 . S
H980 C994 0.961 . S
H981 C995 0.960 . S
H982 C995 0.961 . S
H983 C995 0.959 . S
H984 C998 0.929 . S
H985 C999 0.931 . S
H986 C1001 0.930 . S
C987 H975 0.930 . S
C987 C988 1.399 . S
C987 C992 1.399 . S
C988 C987 1.399 . S
C988 C989 1.376 . S
C989 H976 0.930 . S
C989 C988 1.376 . S
C989 C990 1.388 . S
C990 H977 0.930 . S
C990 C989 1.388 . S
C990 C991 1.390 . S
C991 C990 1.390 . S
C991 C992 1.394 . S
C991 C997 1.465 . S
C992 C987 1.399 . S
C992 C991 1.394 . S
C992 C993 1.516 . S
C993 C992 1.516 . S
C993 C994 1.502 . S
C993 C995 1.561 . S
C993 C996 1.526 . S
C994 H978 0.959 . S
C994 H979 0.959 . S
C994 H980 0.961 . S
C994 C993 1.502 . S
C995 H981 0.960 . S
C995 H982 0.961 . S
C995 H983 0.959 . S
C995 C993 1.561 . S
C996 C993 1.526 . S
C996 C997 1.396 . S
C996 C1001 1.390 . S
C997 C991 1.465 . S
C997 C996 1.396 . S
C997 C998 1.399 . S
C998 H984 0.929 . S
C998 C997 1.399 . S
C998 C999 1.385 . S
C999 H985 0.931 . S
C999 C998 1.385 . S
C999 C1000 1.389 . S
C1000 C999 1.389 . S
C1000 C1001 1.387 . S
C1001 H986 0.930 . S
C1001 C996 1.390 . S
C1001 C1000 1.387 . S
H1002 C1014 0.930 . S
H1003 C1016 0.930 . S
H1004 C1017 0.930 . S
H1005 C1021 0.959 . S
H1006 C1021 0.959 . S
H1007 C1021 0.961 . S
H1008 C1022 0.960 . S
H1009 C1022 0.961 . S
H1010 C1022 0.959 . S
H1011 C1025 0.929 . S
H1012 C1026 0.931 . S
H1013 C1028 0.930 . S
C1014 H1002 0.930 . S
C1014 C1015 1.399 . S
C1014 C1019 1.399 . S
C1015 C1014 1.399 . S
C1015 C1016 1.376 . S
C1016 H1003 0.930 . S
C1016 C1015 1.376 . S
C1016 C1017 1.388 . S
C1017 H1004 0.930 . S
C1017 C1016 1.388 . S
C1017 C1018 1.390 . S
C1018 C1017 1.390 . S
C1018 C1019 1.394 . S
C1018 C1024 1.465 . S
C1019 C1014 1.399 . S
C1019 C1018 1.394 . S
C1019 C1020 1.516 . S
C1020 C1019 1.516 . S
C1020 C1021 1.502 . S
C1020 C1022 1.561 . S
C1020 C1023 1.526 . S
C1021 H1005 0.959 . S
C1021 H1006 0.959 . S
C1021 H1007 0.961 . S
C1021 C1020 1.502 . S
C1022 H1008 0.960 . S
C1022 H1009 0.961 . S
C1022 H1010 0.959 . S
C1022 C1020 1.561 . S
C1023 C1020 1.526 . S
C1023 C1024 1.396 . S
C1023 C1028 1.390 . S
C1024 C1018 1.465 . S
C1024 C1023 1.396 . S
C1024 C1025 1.399 . S
C1025 H1011 0.929 . S
C1025 C1024 1.399 . S
C1025 C1026 1.385 . S
C1026 H1012 0.931 . S
C1026 C1025 1.385 . S
C1026 C1027 1.389 . S
C1027 C1026 1.389 . S
C1027 C1028 1.387 . S
C1028 H1013 0.930 . S
C1028 C1023 1.390 . S
C1028 C1027 1.387 . S
H1029 C1041 0.930 . S
H1030 C1043 0.930 . S
H1031 C1044 0.930 . S
H1032 C1048 0.959 . S
H1033 C1048 0.959 . S
H1034 C1048 0.961 . S
H1035 C1049 0.960 . S
H1036 C1049 0.961 . S
H1037 C1049 0.959 . S
H1038 C1052 0.929 . S
H1039 C1053 0.931 . S
H1040 C1055 0.930 . S
C1041 H1029 0.930 . S
C1041 C1042 1.399 . S
C1041 C1046 1.399 . S
C1042 C1041 1.399 . S
C1042 C1043 1.376 . S
C1043 H1030 0.930 . S
C1043 C1042 1.376 . S
C1043 C1044 1.388 . S
C1044 H1031 0.930 . S
C1044 C1043 1.388 . S
C1044 C1045 1.390 . S
C1045 C1044 1.390 . S
C1045 C1046 1.394 . S
C1045 C1051 1.465 . S
C1046 C1041 1.399 . S
C1046 C1045 1.394 . S
C1046 C1047 1.516 . S
C1047 C1046 1.516 . S
C1047 C1048 1.502 . S
C1047 C1049 1.561 . S
C1047 C1050 1.526 . S
C1048 H1032 0.959 . S
C1048 H1033 0.959 . S
C1048 H1034 0.961 . S
C1048 C1047 1.502 . S
C1049 H1035 0.960 . S
C1049 H1036 0.961 . S
C1049 H1037 0.959 . S
C1049 C1047 1.561 . S
C1050 C1047 1.526 . S
C1050 C1051 1.396 . S
C1050 C1055 1.390 . S
C1051 C1045 1.465 . S
C1051 C1050 1.396 . S
C1051 C1052 1.399 . S
C1052 H1038 0.929 . S
C1052 C1051 1.399 . S
C1052 C1053 1.385 . S
C1053 H1039 0.931 . S
C1053 C1052 1.385 . S
C1053 C1054 1.389 . S
C1054 C1053 1.389 . S
C1054 C1055 1.387 . S
C1055 H1040 0.930 . S
C1055 C1050 1.390 . S
C1055 C1054 1.387 . S
H1056 C1068 0.930 . S
H1057 C1070 0.930 . S
H1058 C1071 0.930 . S
H1059 C1075 0.959 . S
H1060 C1075 0.959 . S
H1061 C1075 0.961 . S
H1062 C1076 0.960 . S
H1063 C1076 0.961 . S
H1064 C1076 0.959 . S
H1065 C1079 0.929 . S
H1066 C1080 0.931 . S
H1067 C1082 0.930 . S
C1068 H1056 0.930 . S
C1068 C1069 1.399 . S
C1068 C1073 1.399 . S
C1069 C1068 1.399 . S
C1069 C1070 1.376 . S
C1070 H1057 0.930 . S
C1070 C1069 1.376 . S
C1070 C1071 1.388 . S
C1071 H1058 0.930 . S
C1071 C1070 1.388 . S
C1071 C1072 1.390 . S
C1072 C1071 1.390 . S
C1072 C1073 1.394 . S
C1072 C1078 1.465 . S
C1073 C1068 1.399 . S
C1073 C1072 1.394 . S
C1073 C1074 1.516 . S
C1074 C1073 1.516 . S
C1074 C1075 1.502 . S
C1074 C1076 1.561 . S
C1074 C1077 1.526 . S
C1075 H1059 0.959 . S
C1075 H1060 0.959 . S
C1075 H1061 0.961 . S
C1075 C1074 1.502 . S
C1076 H1062 0.960 . S
C1076 H1063 0.961 . S
C1076 H1064 0.959 . S
C1076 C1074 1.561 . S
C1077 C1074 1.526 . S
C1077 C1078 1.396 . S
C1077 C1082 1.390 . S
C1078 C1072 1.465 . S
C1078 C1077 1.396 . S
C1078 C1079 1.399 . S
C1079 H1065 0.929 . S
C1079 C1078 1.399 . S
C1079 C1080 1.385 . S
C1080 H1066 0.931 . S
C1080 C1079 1.385 . S
C1080 C1081 1.389 . S
C1081 C1080 1.389 . S
C1081 C1082 1.387 . S
C1082 H1067 0.930 . S
C1082 C1077 1.390 . S
C1082 C1081 1.387 . S
H1083 C1095 0.930 . S
H1084 C1097 0.930 . S
H1085 C1098 0.930 . S
H1086 C1102 0.959 . S
H1087 C1102 0.959 . S
H1088 C1102 0.961 . S
H1089 C1103 0.960 . S
H1090 C1103 0.961 . S
H1091 C1103 0.959 . S
H1092 C1106 0.929 . S
H1093 C1107 0.931 . S
H1094 C1109 0.930 . S
C1095 H1083 0.930 . S
C1095 C1096 1.399 . S
C1095 C1100 1.399 . S
C1096 C1095 1.399 . S
C1096 C1097 1.376 . S
C1097 H1084 0.930 . S
C1097 C1096 1.376 . S
C1097 C1098 1.388 . S
C1098 H1085 0.930 . S
C1098 C1097 1.388 . S
C1098 C1099 1.390 . S
C1099 C1098 1.390 . S
C1099 C1100 1.394 . S
C1099 C1105 1.465 . S
C1100 C1095 1.399 . S
C1100 C1099 1.394 . S
C1100 C1101 1.516 . S
C1101 C1100 1.516 . S
C1101 C1102 1.502 . S
C1101 C1103 1.561 . S
C1101 C1104 1.526 . S
C1102 H1086 0.959 . S
C1102 H1087 0.959 . S
C1102 H1088 0.961 . S
C1102 C1101 1.502 . S
C1103 H1089 0.960 . S
C1103 H1090 0.961 . S
C1103 H1091 0.959 . S
C1103 C1101 1.561 . S
C1104 C1101 1.526 . S
C1104 C1105 1.396 . S
C1104 C1109 1.390 . S
C1105 C1099 1.465 . S
C1105 C1104 1.396 . S
C1105 C1106 1.399 . S
C1106 H1092 0.929 . S
C1106 C1105 1.399 . S
C1106 C1107 1.385 . S
C1107 H1093 0.931 . S
C1107 C1106 1.385 . S
C1107 C1108 1.389 . S
C1108 C1107 1.389 . S
C1108 C1109 1.387 . S
C1109 H1094 0.930 . S
C1109 C1104 1.390 . S
C1109 C1108 1.387 . S
H1110 C1122 0.930 . S
H1111 C1124 0.930 . S
H1112 C1125 0.930 . S
H1113 C1129 0.959 . S
H1114 C1129 0.959 . S
H1115 C1129 0.961 . S
H1116 C1130 0.960 . S
H1117 C1130 0.961 . S
H1118 C1130 0.959 . S
H1119 C1133 0.929 . S
H1120 C1134 0.931 . S
H1121 C1136 0.930 . S
C1122 H1110 0.930 . S
C1122 C1123 1.399 . S
C1122 C1127 1.399 . S
C1123 C1122 1.399 . S
C1123 C1124 1.376 . S
C1124 H1111 0.930 . S
C1124 C1123 1.376 . S
C1124 C1125 1.388 . S
C1125 H1112 0.930 . S
C1125 C1124 1.388 . S
C1125 C1126 1.390 . S
C1126 C1125 1.390 . S
C1126 C1127 1.394 . S
C1126 C1132 1.465 . S
C1127 C1122 1.399 . S
C1127 C1126 1.394 . S
C1127 C1128 1.516 . S
C1128 C1127 1.516 . S
C1128 C1129 1.502 . S
C1128 C1130 1.561 . S
C1128 C1131 1.526 . S
C1129 H1113 0.959 . S
C1129 H1114 0.959 . S
C1129 H1115 0.961 . S
C1129 C1128 1.502 . S
C1130 H1116 0.960 . S
C1130 H1117 0.961 . S
C1130 H1118 0.959 . S
C1130 C1128 1.561 . S
C1131 C1128 1.526 . S
C1131 C1132 1.396 . S
C1131 C1136 1.390 . S
C1132 C1126 1.465 . S
C1132 C1131 1.396 . S
C1132 C1133 1.399 . S
C1133 H1119 0.929 . S
C1133 C1132 1.399 . S
C1133 C1134 1.385 . S
C1134 H1120 0.931 . S
C1134 C1133 1.385 . S
C1134 C1135 1.389 . S
C1135 C1134 1.389 . S
C1135 C1136 1.387 . S
C1136 H1121 0.930 . S
C1136 C1131 1.390 . S
C1136 C1135 1.387 . S
H1137 C1149 0.930 . S
H1138 C1151 0.930 . S
H1139 C1152 0.930 . S
H1140 C1156 0.959 . S
H1141 C1156 0.959 . S
H1142 C1156 0.961 . S
H1143 C1157 0.960 . S
H1144 C1157 0.961 . S
H1145 C1157 0.959 . S
H1146 C1160 0.929 . S
H1147 C1161 0.931 . S
H1148 C1163 0.930 . S
C1149 H1137 0.930 . S
C1149 C1150 1.399 . S
C1149 C1154 1.399 . S
C1150 C1149 1.399 . S
C1150 C1151 1.376 . S
C1151 H1138 0.930 . S
C1151 C1150 1.376 . S
C1151 C1152 1.388 . S
C1152 H1139 0.930 . S
C1152 C1151 1.388 . S
C1152 C1153 1.390 . S
C1153 C1152 1.390 . S
C1153 C1154 1.394 . S
C1153 C1159 1.465 . S
C1154 C1149 1.399 . S
C1154 C1153 1.394 . S
C1154 C1155 1.516 . S
C1155 C1154 1.516 . S
C1155 C1156 1.502 . S
C1155 C1157 1.561 . S
C1155 C1158 1.526 . S
C1156 H1140 0.959 . S
C1156 H1141 0.959 . S
C1156 H1142 0.961 . S
C1156 C1155 1.502 . S
C1157 H1143 0.960 . S
C1157 H1144 0.961 . S
C1157 H1145 0.959 . S
C1157 C1155 1.561 . S
C1158 C1155 1.526 . S
C1158 C1159 1.396 . S
C1158 C1163 1.390 . S
C1159 C1153 1.465 . S
C1159 C1158 1.396 . S
C1159 C1160 1.399 . S
C1160 H1146 0.929 . S
C1160 C1159 1.399 . S
C1160 C1161 1.385 . S
C1161 H1147 0.931 . S
C1161 C1160 1.385 . S
C1161 C1162 1.389 . S
C1162 C1161 1.389 . S
C1162 C1163 1.387 . S
C1163 H1148 0.930 . S
C1163 C1158 1.390 . S
C1163 C1162 1.387 . S
H1164 C1176 0.930 . S
H1165 C1178 0.930 . S
H1166 C1179 0.930 . S
H1167 C1183 0.959 . S
H1168 C1183 0.959 . S
H1169 C1183 0.961 . S
H1170 C1184 0.960 . S
H1171 C1184 0.961 . S
H1172 C1184 0.959 . S
H1173 C1187 0.929 . S
H1174 C1188 0.931 . S
H1175 C1190 0.930 . S
C1176 H1164 0.930 . S
C1176 C1177 1.399 . S
C1176 C1181 1.399 . S
C1177 C1176 1.399 . S
C1177 C1178 1.376 . S
C1178 H1165 0.930 . S
C1178 C1177 1.376 . S
C1178 C1179 1.388 . S
C1179 H1166 0.930 . S
C1179 C1178 1.388 . S
C1179 C1180 1.390 . S
C1180 C1179 1.390 . S
C1180 C1181 1.394 . S
C1180 C1186 1.465 . S
C1181 C1176 1.399 . S
C1181 C1180 1.394 . S
C1181 C1182 1.516 . S
C1182 C1181 1.516 . S
C1182 C1183 1.502 . S
C1182 C1184 1.561 . S
C1182 C1185 1.526 . S
C1183 H1167 0.959 . S
C1183 H1168 0.959 . S
C1183 H1169 0.961 . S
C1183 C1182 1.502 . S
C1184 H1170 0.960 . S
C1184 H1171 0.961 . S
C1184 H1172 0.959 . S
C1184 C1182 1.561 . S
C1185 C1182 1.526 . S
C1185 C1186 1.396 . S
C1185 C1190 1.390 . S
C1186 C1180 1.465 . S
C1186 C1185 1.396 . S
C1186 C1187 1.399 . S
C1187 H1173 0.929 . S
C1187 C1186 1.399 . S
C1187 C1188 1.385 . S
C1188 H1174 0.931 . S
C1188 C1187 1.385 . S
C1188 C1189 1.389 . S
C1189 C1188 1.389 . S
C1189 C1190 1.387 . S
C1190 H1175 0.930 . S
C1190 C1185 1.390 . S
C1190 C1189 1.387 . S
H1191 C1203 0.930 . S
H1192 C1205 0.930 . S
H1193 C1206 0.930 . S
H1194 C1210 0.959 . S
H1195 C1210 0.959 . S
H1196 C1210 0.961 . S
H1197 C1211 0.960 . S
H1198 C1211 0.961 . S
H1199 C1211 0.959 . S
H1200 C1214 0.929 . S
H1201 C1215 0.931 . S
H1202 C1217 0.930 . S
C1203 H1191 0.930 . S
C1203 C1204 1.399 . S
C1203 C1208 1.399 . S
C1204 C1203 1.399 . S
C1204 C1205 1.376 . S
C1205 H1192 0.930 . S
C1205 C1204 1.376 . S
C1205 C1206 1.388 . S
C1206 H1193 0.930 . S
C1206 C1205 1.388 . S
C1206 C1207 1.390 . S
C1207 C1206 1.390 . S
C1207 C1208 1.394 . S
C1207 C1213 1.465 . S
C1208 C1203 1.399 . S
C1208 C1207 1.394 . S
C1208 C1209 1.516 . S
C1209 C1208 1.516 . S
C1209 C1210 1.502 . S
C1209 C1211 1.561 . S
C1209 C1212 1.526 . S
C1210 H1194 0.959 . S
C1210 H1195 0.959 . S
C1210 H1196 0.961 . S
C1210 C1209 1.502 . S
C1211 H1197 0.960 . S
C1211 H1198 0.961 . S
C1211 H1199 0.959 . S
C1211 C1209 1.561 . S
C1212 C1209 1.526 . S
C1212 C1213 1.396 . S
C1212 C1217 1.390 . S
C1213 C1207 1.465 . S
C1213 C1212 1.396 . S
C1213 C1214 1.399 . S
C1214 H1200 0.929 . S
C1214 C1213 1.399 . S
C1214 C1215 1.385 . S
C1215 H1201 0.931 . S
C1215 C1214 1.385 . S
C1215 C1216 1.389 . S
C1216 C1215 1.389 . S
C1216 C1217 1.387 . S
C1217 H1202 0.930 . S
C1217 C1212 1.390 . S
C1217 C1216 1.387 . S
H1218 C1230 0.930 . S
H1219 C1232 0.930 . S
H1220 C1233 0.930 . S
H1221 C1237 0.959 . S
H1222 C1237 0.959 . S
H1223 C1237 0.961 . S
H1224 C1238 0.960 . S
H1225 C1238 0.961 . S
H1226 C1238 0.959 . S
H1227 C1241 0.929 . S
H1228 C1242 0.931 . S
H1229 C1244 0.930 . S
C1230 H1218 0.930 . S
C1230 C1231 1.399 . S
C1230 C1235 1.399 . S
C1231 C1230 1.399 . S
C1231 C1232 1.376 . S
C1232 H1219 0.930 . S
C1232 C1231 1.376 . S
C1232 C1233 1.388 . S
C1233 H1220 0.930 . S
C1233 C1232 1.388 . S
C1233 C1234 1.390 . S
C1234 C1233 1.390 . S
C1234 C1235 1.394 . S
C1234 C1240 1.465 . S
C1235 C1230 1.399 . S
C1235 C1234 1.394 . S
C1235 C1236 1.516 . S
C1236 C1235 1.516 . S
C1236 C1237 1.502 . S
C1236 C1238 1.561 . S
C1236 C1239 1.526 . S
C1237 H1221 0.959 . S
C1237 H1222 0.959 . S
C1237 H1223 0.961 . S
C1237 C1236 1.502 . S
C1238 H1224 0.960 . S
C1238 H1225 0.961 . S
C1238 H1226 0.959 . S
C1238 C1236 1.561 . S
C1239 C1236 1.526 . S
C1239 C1240 1.396 . S
C1239 C1244 1.390 . S
C1240 C1234 1.465 . S
C1240 C1239 1.396 . S
C1240 C1241 1.399 . S
C1241 H1227 0.929 . S
C1241 C1240 1.399 . S
C1241 C1242 1.385 . S
C1242 H1228 0.931 . S
C1242 C1241 1.385 . S
C1242 C1243 1.389 . S
C1243 C1242 1.389 . S
C1243 C1244 1.387 . S
C1244 H1229 0.930 . S
C1244 C1239 1.390 . S
C1244 C1243 1.387 . S
H1245 C1257 0.930 . S
H1246 C1259 0.930 . S
H1247 C1260 0.930 . S
H1248 C1264 0.959 . S
H1249 C1264 0.959 . S
H1250 C1264 0.961 . S
H1251 C1265 0.960 . S
H1252 C1265 0.961 . S
H1253 C1265 0.959 . S
H1254 C1268 0.929 . S
H1255 C1269 0.931 . S
H1256 C1271 0.930 . S
C1257 H1245 0.930 . S
C1257 C1258 1.399 . S
C1257 C1262 1.399 . S
C1258 C1257 1.399 . S
C1258 C1259 1.376 . S
C1259 H1246 0.930 . S
C1259 C1258 1.376 . S
C1259 C1260 1.388 . S
C1260 H1247 0.930 . S
C1260 C1259 1.388 . S
C1260 C1261 1.390 . S
C1261 C1260 1.390 . S
C1261 C1262 1.394 . S
C1261 C1267 1.465 . S
C1262 C1257 1.399 . S
C1262 C1261 1.394 . S
C1262 C1263 1.516 . S
C1263 C1262 1.516 . S
C1263 C1264 1.502 . S
C1263 C1265 1.561 . S
C1263 C1266 1.526 . S
C1264 H1248 0.959 . S
C1264 H1249 0.959 . S
C1264 H1250 0.961 . S
C1264 C1263 1.502 . S
C1265 H1251 0.960 . S
C1265 H1252 0.961 . S
C1265 H1253 0.959 . S
C1265 C1263 1.561 . S
C1266 C1263 1.526 . S
C1266 C1267 1.396 . S
C1266 C1271 1.390 . S
C1267 C1261 1.465 . S
C1267 C1266 1.396 . S
C1267 C1268 1.399 . S
C1268 H1254 0.929 . S
C1268 C1267 1.399 . S
C1268 C1269 1.385 . S
C1269 H1255 0.931 . S
C1269 C1268 1.385 . S
C1269 C1270 1.389 . S
C1270 C1269 1.389 . S
C1270 C1271 1.387 . S
C1271 H1256 0.930 . S
C1271 C1266 1.390 . S
C1271 C1270 1.387 . S
H1272 C1284 0.930 . S
H1273 C1286 0.930 . S
H1274 C1287 0.930 . S
H1275 C1291 0.959 . S
H1276 C1291 0.959 . S
H1277 C1291 0.961 . S
H1278 C1292 0.960 . S
H1279 C1292 0.961 . S
H1280 C1292 0.959 . S
H1281 C1295 0.929 . S
H1282 C1296 0.931 . S
H1283 C1298 0.930 . S
C1284 H1272 0.930 . S
C1284 C1285 1.399 . S
C1284 C1289 1.399 . S
C1285 C1284 1.399 . S
C1285 C1286 1.376 . S
C1286 H1273 0.930 . S
C1286 C1285 1.376 . S
C1286 C1287 1.388 . S
C1287 H1274 0.930 . S
C1287 C1286 1.388 . S
C1287 C1288 1.390 . S
C1288 C1287 1.390 . S
C1288 C1289 1.394 . S
C1288 C1294 1.465 . S
C1289 C1284 1.399 . S
C1289 C1288 1.394 . S
C1289 C1290 1.516 . S
C1290 C1289 1.516 . S
C1290 C1291 1.502 . S
C1290 C1292 1.561 . S
C1290 C1293 1.526 . S
C1291 H1275 0.959 . S
C1291 H1276 0.959 . S
C1291 H1277 0.961 . S
C1291 C1290 1.502 . S
C1292 H1278 0.960 . S
C1292 H1279 0.961 . S
C1292 H1280 0.959 . S
C1292 C1290 1.561 . S
C1293 C1290 1.526 . S
C1293 C1294 1.396 . S
C1293 C1298 1.390 . S
C1294 C1288 1.465 . S
C1294 C1293 1.396 . S
C1294 C1295 1.399 . S
C1295 H1281 0.929 . S
C1295 C1294 1.399 . S
C1295 C1296 1.385 . S
C1296 H1282 0.931 . S
C1296 C1295 1.385 . S
C1296 C1297 1.389 . S
C1297 C1296 1.389 . S
C1297 C1298 1.387 . S
C1298 H1283 0.930 . S
C1298 C1293 1.390 . S
C1298 C1297 1.387 . S
H1299 C1311 0.930 . S
H1300 C1313 0.930 . S
H1301 C1314 0.930 . S
H1302 C1318 0.959 . S
H1303 C1318 0.959 1_554 S
H1304 C1318 0.961 . S
H1305 C1319 0.960 . S
H1306 C1319 0.961 1_554 S
H1307 C1319 0.959 . S
H1308 C1322 0.929 . S
H1309 C1323 0.931 . S
H1310 C1325 0.930 . S
C1311 H1299 0.930 . S
C1311 C1312 1.399 . S
C1311 C1316 1.399 . S
C1312 C1311 1.399 . S
C1312 C1313 1.376 . S
C1313 H1300 0.930 . S
C1313 C1312 1.376 . S
C1313 C1314 1.388 . S
C1314 H1301 0.930 . S
C1314 C1313 1.388 . S
C1314 C1315 1.390 . S
C1315 C1314 1.390 . S
C1315 C1316 1.394 . S
C1315 C1321 1.465 1_556 S
C1316 C1311 1.399 . S
C1316 C1315 1.394 . S
C1316 C1317 1.516 . S
C1317 C1316 1.516 . S
C1317 C1318 1.502 . S
C1317 C1319 1.561 . S
C1317 C1320 1.526 1_556 S
C1318 H1302 0.959 . S
C1318 H1303 0.959 1_556 S
C1318 H1304 0.961 . S
C1318 C1317 1.502 . S
C1319 H1305 0.960 . S
C1319 H1306 0.961 1_556 S
C1319 H1307 0.959 . S
C1319 C1317 1.561 . S
C1320 C1317 1.526 1_554 S
C1320 C1321 1.396 . S
C1320 C1325 1.390 . S
C1321 C1315 1.465 1_554 S
C1321 C1320 1.396 . S
C1321 C1322 1.399 . S
C1322 H1308 0.929 . S
C1322 C1321 1.399 . S
C1322 C1323 1.385 . S
C1323 H1309 0.931 . S
C1323 C1322 1.385 . S
C1323 C1324 1.389 . S
C1324 C1323 1.389 . S
C1324 C1325 1.387 . S
C1325 H1310 0.930 . S
C1325 C1320 1.390 . S
C1325 C1324 1.387 . S
H1326 C1338 0.930 . S
H1327 C1340 0.930 . S
H1328 C1341 0.930 . S
H1329 C1345 0.959 . S
H1330 C1345 0.959 . S
H1331 C1345 0.961 . S
H1332 C1346 0.960 . S
H1333 C1346 0.961 . S
H1334 C1346 0.959 . S
H1335 C1349 0.929 . S
H1336 C1350 0.931 . S
H1337 C1352 0.930 . S
C1338 H1326 0.930 . S
C1338 C1339 1.399 . S
C1338 C1343 1.399 . S
C1339 C1338 1.399 . S
C1339 C1340 1.376 . S
C1340 H1327 0.930 . S
C1340 C1339 1.376 . S
C1340 C1341 1.388 . S
C1341 H1328 0.930 . S
C1341 C1340 1.388 . S
C1341 C1342 1.390 . S
C1342 C1341 1.390 . S
C1342 C1343 1.394 . S
C1342 C1348 1.465 . S
C1343 C1338 1.399 . S
C1343 C1342 1.394 . S
C1343 C1344 1.516 . S
C1344 C1343 1.516 . S
C1344 C1345 1.502 . S
C1344 C1346 1.561 . S
C1344 C1347 1.526 . S
C1345 H1329 0.959 . S
C1345 H1330 0.959 . S
C1345 H1331 0.961 . S
C1345 C1344 1.502 . S
C1346 H1332 0.960 . S
C1346 H1333 0.961 . S
C1346 H1334 0.959 . S
C1346 C1344 1.561 . S
C1347 C1344 1.526 . S
C1347 C1348 1.396 . S
C1347 C1352 1.390 . S
C1348 C1342 1.465 . S
C1348 C1347 1.396 . S
C1348 C1349 1.399 . S
C1349 H1335 0.929 . S
C1349 C1348 1.399 . S
C1349 C1350 1.385 . S
C1350 H1336 0.931 . S
C1350 C1349 1.385 . S
C1350 C1351 1.389 . S
C1351 C1350 1.389 . S
C1351 C1352 1.387 . S
C1352 H1337 0.930 . S
C1352 C1347 1.390 . S
C1352 C1351 1.387 . S
H1353 C1365 0.930 . S
H1354 C1367 0.930 . S
H1355 C1368 0.930 . S
H1356 C1372 0.959 . S
H1357 C1372 0.959 1_554 S
H1358 C1372 0.961 . S
H1359 C1373 0.960 . S
H1360 C1373 0.961 1_554 S
H1361 C1373 0.959 . S
H1362 C1376 0.929 . S
H1363 C1377 0.931 . S
H1364 C1379 0.930 . S
C1365 H1353 0.930 . S
C1365 C1366 1.399 . S
C1365 C1370 1.399 . S
C1366 C1365 1.399 . S
C1366 C1367 1.376 . S
C1367 H1354 0.930 . S
C1367 C1366 1.376 . S
C1367 C1368 1.388 . S
C1368 H1355 0.930 . S
C1368 C1367 1.388 . S
C1368 C1369 1.390 . S
C1369 C1368 1.390 . S
C1369 C1370 1.394 . S
C1369 C1375 1.465 1_556 S
C1370 C1365 1.399 . S
C1370 C1369 1.394 . S
C1370 C1371 1.516 . S
C1371 C1370 1.516 . S
C1371 C1372 1.502 . S
C1371 C1373 1.561 . S
C1371 C1374 1.526 1_556 S
C1372 H1356 0.959 . S
C1372 H1357 0.959 1_556 S
C1372 H1358 0.961 . S
C1372 C1371 1.502 . S
C1373 H1359 0.960 . S
C1373 H1360 0.961 1_556 S
C1373 H1361 0.959 . S
C1373 C1371 1.561 . S
C1374 C1371 1.526 1_554 S
C1374 C1375 1.396 . S
C1374 C1379 1.390 . S
C1375 C1369 1.465 1_554 S
C1375 C1374 1.396 . S
C1375 C1376 1.399 . S
C1376 H1362 0.929 . S
C1376 C1375 1.399 . S
C1376 C1377 1.385 . S
C1377 H1363 0.931 . S
C1377 C1376 1.385 . S
C1377 C1378 1.389 . S
C1378 C1377 1.389 . S
C1378 C1379 1.387 . S
C1379 H1364 0.930 . S
C1379 C1374 1.390 . S
C1379 C1378 1.387 . S
H1380 C1392 0.930 . S
H1381 C1394 0.930 . S
H1382 C1395 0.930 . S
H1383 C1399 0.959 . S
H1384 C1399 0.959 . S
H1385 C1399 0.961 . S
H1386 C1400 0.960 . S
H1387 C1400 0.961 . S
H1388 C1400 0.959 . S
H1389 C1403 0.929 . S
H1390 C1404 0.931 . S
H1391 C1406 0.930 . S
C1392 H1380 0.930 . S
C1392 C1393 1.399 . S
C1392 C1397 1.399 . S
C1393 C1392 1.399 . S
C1393 C1394 1.376 . S
C1394 H1381 0.930 . S
C1394 C1393 1.376 . S
C1394 C1395 1.388 . S
C1395 H1382 0.930 . S
C1395 C1394 1.388 . S
C1395 C1396 1.390 . S
C1396 C1395 1.390 . S
C1396 C1397 1.394 . S
C1396 C1402 1.465 . S
C1397 C1392 1.399 . S
C1397 C1396 1.394 . S
C1397 C1398 1.516 . S
C1398 C1397 1.516 . S
C1398 C1399 1.502 . S
C1398 C1400 1.561 . S
C1398 C1401 1.526 . S
C1399 H1383 0.959 . S
C1399 H1384 0.959 . S
C1399 H1385 0.961 . S
C1399 C1398 1.502 . S
C1400 H1386 0.960 . S
C1400 H1387 0.961 . S
C1400 H1388 0.959 . S
C1400 C1398 1.561 . S
C1401 C1398 1.526 . S
C1401 C1402 1.396 . S
C1401 C1406 1.390 . S
C1402 C1396 1.465 . S
C1402 C1401 1.396 . S
C1402 C1403 1.399 . S
C1403 H1389 0.929 . S
C1403 C1402 1.399 . S
C1403 C1404 1.385 . S
C1404 H1390 0.931 . S
C1404 C1403 1.385 . S
C1404 C1405 1.389 . S
C1405 C1404 1.389 . S
C1405 C1406 1.387 . S
C1406 H1391 0.930 . S
C1406 C1401 1.390 . S
C1406 C1405 1.387 . S
H1407 C1419 0.930 . S
H1408 C1421 0.930 . S
H1409 C1422 0.930 . S
H1410 C1426 0.959 . S
H1411 C1426 0.959 . S
H1412 C1426 0.961 1_556 S
H1413 C1427 0.960 1_556 S
H1414 C1427 0.961 . S
H1415 C1427 0.959 . S
H1416 C1430 0.929 . S
H1417 C1431 0.931 . S
H1418 C1433 0.930 . S
C1419 H1407 0.930 . S
C1419 C1420 1.399 . S
C1419 C1424 1.399 . S
C1420 C1419 1.399 . S
C1420 C1421 1.376 . S
C1421 H1408 0.930 . S
C1421 C1420 1.376 . S
C1421 C1422 1.388 . S
C1422 H1409 0.930 . S
C1422 C1421 1.388 . S
C1422 C1423 1.390 . S
C1423 C1422 1.390 . S
C1423 C1424 1.394 . S
C1423 C1429 1.465 1_556 S
C1424 C1419 1.399 . S
C1424 C1423 1.394 . S
C1424 C1425 1.516 1_556 S
C1425 C1424 1.516 1_554 S
C1425 C1426 1.502 . S
C1425 C1427 1.561 . S
C1425 C1428 1.526 . S
C1426 H1410 0.959 . S
C1426 H1411 0.959 . S
C1426 H1412 0.961 1_554 S
C1426 C1425 1.502 . S
C1427 H1413 0.960 1_554 S
C1427 H1414 0.961 . S
C1427 H1415 0.959 . S
C1427 C1425 1.561 . S
C1428 C1425 1.526 . S
C1428 C1429 1.396 . S
C1428 C1433 1.390 . S
C1429 C1423 1.465 1_554 S
C1429 C1428 1.396 . S
C1429 C1430 1.399 . S
C1430 H1416 0.929 . S
C1430 C1429 1.399 . S
C1430 C1431 1.385 . S
C1431 H1417 0.931 . S
C1431 C1430 1.385 . S
C1431 C1432 1.389 . S
C1432 C1431 1.389 . S
C1432 C1433 1.387 . S
C1433 H1418 0.930 . S
C1433 C1428 1.390 . S
C1433 C1432 1.387 . S
H1434 C1446 0.930 . S
H1435 C1448 0.930 . S
H1436 C1449 0.930 . S
H1437 C1453 0.959 . S
H1438 C1453 0.959 . S
H1439 C1453 0.961 . S
H1440 C1454 0.960 . S
H1441 C1454 0.961 . S
H1442 C1454 0.959 . S
H1443 C1457 0.929 . S
H1444 C1458 0.931 . S
H1445 C1460 0.930 . S
C1446 H1434 0.930 . S
C1446 C1447 1.399 . S
C1446 C1451 1.399 . S
C1447 C1446 1.399 . S
C1447 C1448 1.376 . S
C1448 H1435 0.930 . S
C1448 C1447 1.376 . S
C1448 C1449 1.388 . S
C1449 H1436 0.930 . S
C1449 C1448 1.388 . S
C1449 C1450 1.390 . S
C1450 C1449 1.390 . S
C1450 C1451 1.394 . S
C1450 C1456 1.465 . S
C1451 C1446 1.399 . S
C1451 C1450 1.394 . S
C1451 C1452 1.516 . S
C1452 C1451 1.516 . S
C1452 C1453 1.502 . S
C1452 C1454 1.561 . S
C1452 C1455 1.526 . S
C1453 H1437 0.959 . S
C1453 H1438 0.959 . S
C1453 H1439 0.961 . S
C1453 C1452 1.502 . S
C1454 H1440 0.960 . S
C1454 H1441 0.961 . S
C1454 H1442 0.959 . S
C1454 C1452 1.561 . S
C1455 C1452 1.526 . S
C1455 C1456 1.396 . S
C1455 C1460 1.390 . S
C1456 C1450 1.465 . S
C1456 C1455 1.396 . S
C1456 C1457 1.399 . S
C1457 H1443 0.929 . S
C1457 C1456 1.399 . S
C1457 C1458 1.385 . S
C1458 H1444 0.931 . S
C1458 C1457 1.385 . S
C1458 C1459 1.389 . S
C1459 C1458 1.389 . S
C1459 C1460 1.387 . S
C1460 H1445 0.930 . S
C1460 C1455 1.390 . S
C1460 C1459 1.387 . S
H1461 C1473 0.930 . S
H1462 C1475 0.930 . S
H1463 C1476 0.930 . S
H1464 C1480 0.959 . S
H1465 C1480 0.959 . S
H1466 C1480 0.961 1_556 S
H1467 C1481 0.960 1_556 S
H1468 C1481 0.961 . S
H1469 C1481 0.959 . S
H1470 C1484 0.929 . S
H1471 C1485 0.931 . S
H1472 C1487 0.930 . S
C1473 H1461 0.930 . S
C1473 C1474 1.399 . S
C1473 C1478 1.399 . S
C1474 C1473 1.399 . S
C1474 C1475 1.376 . S
C1475 H1462 0.930 . S
C1475 C1474 1.376 . S
C1475 C1476 1.388 . S
C1476 H1463 0.930 . S
C1476 C1475 1.388 . S
C1476 C1477 1.390 . S
C1477 C1476 1.390 . S
C1477 C1478 1.394 . S
C1477 C1483 1.465 1_556 S
C1478 C1473 1.399 . S
C1478 C1477 1.394 . S
C1478 C1479 1.516 1_556 S
C1479 C1478 1.516 1_554 S
C1479 C1480 1.502 . S
C1479 C1481 1.561 . S
C1479 C1482 1.526 . S
C1480 H1464 0.959 . S
C1480 H1465 0.959 . S
C1480 H1466 0.961 1_554 S
C1480 C1479 1.502 . S
C1481 H1467 0.960 1_554 S
C1481 H1468 0.961 . S
C1481 H1469 0.959 . S
C1481 C1479 1.561 . S
C1482 C1479 1.526 . S
C1482 C1483 1.396 . S
C1482 C1487 1.390 . S
C1483 C1477 1.465 1_554 S
C1483 C1482 1.396 . S
C1483 C1484 1.399 . S
C1484 H1470 0.929 . S
C1484 C1483 1.399 . S
C1484 C1485 1.385 . S
C1485 H1471 0.931 . S
C1485 C1484 1.385 . S
C1485 C1486 1.389 . S
C1486 C1485 1.389 . S
C1486 C1487 1.387 . S
C1487 H1472 0.930 . S
C1487 C1482 1.390 . S
C1487 C1486 1.387 . S
H1488 C1500 0.930 . S
H1489 C1502 0.930 . S
H1490 C1503 0.930 . S
H1491 C1507 0.959 . S
H1492 C1507 0.959 . S
H1493 C1507 0.961 . S
H1494 C1508 0.960 . S
H1495 C1508 0.961 . S
H1496 C1508 0.959 . S
H1497 C1511 0.929 . S
H1498 C1512 0.931 . S
H1499 C1514 0.930 . S
C1500 H1488 0.930 . S
C1500 C1501 1.399 . S
C1500 C1505 1.399 . S
C1501 C1500 1.399 . S
C1501 C1502 1.376 . S
C1502 H1489 0.930 . S
C1502 C1501 1.376 . S
C1502 C1503 1.388 . S
C1503 H1490 0.930 . S
C1503 C1502 1.388 . S
C1503 C1504 1.390 . S
C1504 C1503 1.390 . S
C1504 C1505 1.394 . S
C1504 C1510 1.465 . S
C1505 C1500 1.399 . S
C1505 C1504 1.394 . S
C1505 C1506 1.516 . S
C1506 C1505 1.516 . S
C1506 C1507 1.502 . S
C1506 C1508 1.561 . S
C1506 C1509 1.526 . S
C1507 H1491 0.959 . S
C1507 H1492 0.959 . S
C1507 H1493 0.961 . S
C1507 C1506 1.502 . S
C1508 H1494 0.960 . S
C1508 H1495 0.961 . S
C1508 H1496 0.959 . S
C1508 C1506 1.561 . S
C1509 C1506 1.526 . S
C1509 C1510 1.396 . S
C1509 C1514 1.390 . S
C1510 C1504 1.465 . S
C1510 C1509 1.396 . S
C1510 C1511 1.399 . S
C1511 H1497 0.929 . S
C1511 C1510 1.399 . S
C1511 C1512 1.385 . S
C1512 H1498 0.931 . S
C1512 C1511 1.385 . S
C1512 C1513 1.389 . S
C1513 C1512 1.389 . S
C1513 C1514 1.387 . S
C1514 H1499 0.930 . S
C1514 C1509 1.390 . S
C1514 C1513 1.387 . S
H1515 C1527 0.930 . S
H1516 C1529 0.930 . S
H1517 C1530 0.930 . S
H1518 C1534 0.959 . S
H1519 C1534 0.959 1_545 S
H1520 C1534 0.961 . S
H1521 C1535 0.960 . S
H1522 C1535 0.961 1_545 S
H1523 C1535 0.959 . S
H1524 C1538 0.929 . S
H1525 C1539 0.931 . S
H1526 C1541 0.930 . S
C1527 H1515 0.930 . S
C1527 C1528 1.399 . S
C1527 C1532 1.399 . S
C1528 C1527 1.399 . S
C1528 C1529 1.376 . S
C1529 H1516 0.930 . S
C1529 C1528 1.376 . S
C1529 C1530 1.388 . S
C1530 H1517 0.930 . S
C1530 C1529 1.388 . S
C1530 C1531 1.390 . S
C1531 C1530 1.390 . S
C1531 C1532 1.394 . S
C1531 C1537 1.465 1_565 S
C1532 C1527 1.399 . S
C1532 C1531 1.394 . S
C1532 C1533 1.516 . S
C1533 C1532 1.516 . S
C1533 C1534 1.502 . S
C1533 C1535 1.561 . S
C1533 C1536 1.526 1_565 S
C1534 H1518 0.959 . S
C1534 H1519 0.959 1_565 S
C1534 H1520 0.961 . S
C1534 C1533 1.502 . S
C1535 H1521 0.960 . S
C1535 H1522 0.961 1_565 S
C1535 H1523 0.959 . S
C1535 C1533 1.561 . S
C1536 C1533 1.526 1_545 S
C1536 C1537 1.396 . S
C1536 C1541 1.390 . S
C1537 C1531 1.465 1_545 S
C1537 C1536 1.396 . S
C1537 C1538 1.399 . S
C1538 H1524 0.929 . S
C1538 C1537 1.399 . S
C1538 C1539 1.385 . S
C1539 H1525 0.931 . S
C1539 C1538 1.385 . S
C1539 C1540 1.389 . S
C1540 C1539 1.389 . S
C1540 C1541 1.387 . S
C1541 H1526 0.930 . S
C1541 C1536 1.390 . S
C1541 C1540 1.387 . S
H1542 C1554 0.930 . S
H1543 C1556 0.930 . S
H1544 C1557 0.930 . S
H1545 C1561 0.959 . S
H1546 C1561 0.959 . S
H1547 C1561 0.961 . S
H1548 C1562 0.960 . S
H1549 C1562 0.961 . S
H1550 C1562 0.959 . S
H1551 C1565 0.929 . S
H1552 C1566 0.931 . S
H1553 C1568 0.930 . S
C1554 H1542 0.930 . S
C1554 C1555 1.399 . S
C1554 C1559 1.399 . S
C1555 C1554 1.399 . S
C1555 C1556 1.376 . S
C1556 H1543 0.930 . S
C1556 C1555 1.376 . S
C1556 C1557 1.388 . S
C1557 H1544 0.930 . S
C1557 C1556 1.388 . S
C1557 C1558 1.390 . S
C1558 C1557 1.390 . S
C1558 C1559 1.394 . S
C1558 C1564 1.465 . S
C1559 C1554 1.399 . S
C1559 C1558 1.394 . S
C1559 C1560 1.516 . S
C1560 C1559 1.516 . S
C1560 C1561 1.502 . S
C1560 C1562 1.561 . S
C1560 C1563 1.526 . S
C1561 H1545 0.959 . S
C1561 H1546 0.959 . S
C1561 H1547 0.961 . S
C1561 C1560 1.502 . S
C1562 H1548 0.960 . S
C1562 H1549 0.961 . S
C1562 H1550 0.959 . S
C1562 C1560 1.561 . S
C1563 C1560 1.526 . S
C1563 C1564 1.396 . S
C1563 C1568 1.390 . S
C1564 C1558 1.465 . S
C1564 C1563 1.396 . S
C1564 C1565 1.399 . S
C1565 H1551 0.929 . S
C1565 C1564 1.399 . S
C1565 C1566 1.385 . S
C1566 H1552 0.931 . S
C1566 C1565 1.385 . S
C1566 C1567 1.389 . S
C1567 C1566 1.389 . S
C1567 C1568 1.387 . S
C1568 H1553 0.930 . S
C1568 C1563 1.390 . S
C1568 C1567 1.387 . S
H1569 C1581 0.930 . S
H1570 C1583 0.930 . S
H1571 C1584 0.930 . S
H1572 C1588 0.959 . S
H1573 C1588 0.959 1_565 S
H1574 C1588 0.961 . S
H1575 C1589 0.960 . S
H1576 C1589 0.961 1_565 S
H1577 C1589 0.959 . S
H1578 C1592 0.929 . S
H1579 C1593 0.931 . S
H1580 C1595 0.930 . S
C1581 H1569 0.930 . S
C1581 C1582 1.399 . S
C1581 C1586 1.399 . S
C1582 C1581 1.399 . S
C1582 C1583 1.376 . S
C1583 H1570 0.930 . S
C1583 C1582 1.376 . S
C1583 C1584 1.388 . S
C1584 H1571 0.930 . S
C1584 C1583 1.388 . S
C1584 C1585 1.390 . S
C1585 C1584 1.390 . S
C1585 C1586 1.394 . S
C1585 C1591 1.465 1_545 S
C1586 C1581 1.399 . S
C1586 C1585 1.394 . S
C1586 C1587 1.516 . S
C1587 C1586 1.516 . S
C1587 C1588 1.502 . S
C1587 C1589 1.561 . S
C1587 C1590 1.526 1_545 S
C1588 H1572 0.959 . S
C1588 H1573 0.959 1_545 S
C1588 H1574 0.961 . S
C1588 C1587 1.502 . S
C1589 H1575 0.960 . S
C1589 H1576 0.961 1_545 S
C1589 H1577 0.959 . S
C1589 C1587 1.561 . S
C1590 C1587 1.526 1_565 S
C1590 C1591 1.396 . S
C1590 C1595 1.390 . S
C1591 C1585 1.465 1_565 S
C1591 C1590 1.396 . S
C1591 C1592 1.399 . S
C1592 H1578 0.929 . S
C1592 C1591 1.399 . S
C1592 C1593 1.385 . S
C1593 H1579 0.931 . S
C1593 C1592 1.385 . S
C1593 C1594 1.389 . S
C1594 C1593 1.389 . S
C1594 C1595 1.387 . S
C1595 H1580 0.930 . S
C1595 C1590 1.390 . S
C1595 C1594 1.387 . S
H1596 C1608 0.930 . S
H1597 C1610 0.930 . S
H1598 C1611 0.930 . S
H1599 C1615 0.959 . S
H1600 C1615 0.959 . S
H1601 C1615 0.961 . S
H1602 C1616 0.960 . S
H1603 C1616 0.961 . S
H1604 C1616 0.959 . S
H1605 C1619 0.929 . S
H1606 C1620 0.931 . S
H1607 C1622 0.930 . S
C1608 H1596 0.930 . S
C1608 C1609 1.399 . S
C1608 C1613 1.399 . S
C1609 C1608 1.399 . S
C1609 C1610 1.376 . S
C1610 H1597 0.930 . S
C1610 C1609 1.376 . S
C1610 C1611 1.388 . S
C1611 H1598 0.930 . S
C1611 C1610 1.388 . S
C1611 C1612 1.390 . S
C1612 C1611 1.390 . S
C1612 C1613 1.394 . S
C1612 C1618 1.465 . S
C1613 C1608 1.399 . S
C1613 C1612 1.394 . S
C1613 C1614 1.516 . S
C1614 C1613 1.516 . S
C1614 C1615 1.502 . S
C1614 C1616 1.561 . S
C1614 C1617 1.526 . S
C1615 H1599 0.959 . S
C1615 H1600 0.959 . S
C1615 H1601 0.961 . S
C1615 C1614 1.502 . S
C1616 H1602 0.960 . S
C1616 H1603 0.961 . S
C1616 H1604 0.959 . S
C1616 C1614 1.561 . S
C1617 C1614 1.526 . S
C1617 C1618 1.396 . S
C1617 C1622 1.390 . S
C1618 C1612 1.465 . S
C1618 C1617 1.396 . S
C1618 C1619 1.399 . S
C1619 H1605 0.929 . S
C1619 C1618 1.399 . S
C1619 C1620 1.385 . S
C1620 H1606 0.931 . S
C1620 C1619 1.385 . S
C1620 C1621 1.389 . S
C1621 C1620 1.389 . S
C1621 C1622 1.387 . S
C1622 H1607 0.930 . S
C1622 C1617 1.390 . S
C1622 C1621 1.387 . S
H1623 C1635 0.930 . S
H1624 C1637 0.930 . S
H1625 C1638 0.930 . S
H1626 C1642 0.959 . S
H1627 C1642 0.959 1_545 S
H1628 C1642 0.961 . S
H1629 C1643 0.960 . S
H1630 C1643 0.961 1_545 S
H1631 C1643 0.959 . S
H1632 C1646 0.929 . S
H1633 C1647 0.931 . S
H1634 C1649 0.930 . S
C1635 H1623 0.930 . S
C1635 C1636 1.399 . S
C1635 C1640 1.399 . S
C1636 C1635 1.399 . S
C1636 C1637 1.376 . S
C1637 H1624 0.930 . S
C1637 C1636 1.376 . S
C1637 C1638 1.388 . S
C1638 H1625 0.930 . S
C1638 C1637 1.388 . S
C1638 C1639 1.390 . S
C1639 C1638 1.390 . S
C1639 C1640 1.394 . S
C1639 C1645 1.465 1_565 S
C1640 C1635 1.399 . S
C1640 C1639 1.394 . S
C1640 C1641 1.516 . S
C1641 C1640 1.516 . S
C1641 C1642 1.502 . S
C1641 C1643 1.561 . S
C1641 C1644 1.526 1_565 S
C1642 H1626 0.959 . S
C1642 H1627 0.959 1_565 S
C1642 H1628 0.961 . S
C1642 C1641 1.502 . S
C1643 H1629 0.960 . S
C1643 H1630 0.961 1_565 S
C1643 H1631 0.959 . S
C1643 C1641 1.561 . S
C1644 C1641 1.526 1_545 S
C1644 C1645 1.396 . S
C1644 C1649 1.390 . S
C1645 C1639 1.465 1_545 S
C1645 C1644 1.396 . S
C1645 C1646 1.399 . S
C1646 H1632 0.929 . S
C1646 C1645 1.399 . S
C1646 C1647 1.385 . S
C1647 H1633 0.931 . S
C1647 C1646 1.385 . S
C1647 C1648 1.389 . S
C1648 C1647 1.389 . S
C1648 C1649 1.387 . S
C1649 H1634 0.930 . S
C1649 C1644 1.390 . S
C1649 C1648 1.387 . S
H1650 C1662 0.930 . S
H1651 C1664 0.930 . S
H1652 C1665 0.930 . S
H1653 C1669 0.959 . S
H1654 C1669 0.959 . S
H1655 C1669 0.961 . S
H1656 C1670 0.960 . S
H1657 C1670 0.961 . S
H1658 C1670 0.959 . S
H1659 C1673 0.929 . S
H1660 C1674 0.931 . S
H1661 C1676 0.930 . S
C1662 H1650 0.930 . S
C1662 C1663 1.399 . S
C1662 C1667 1.399 . S
C1663 C1662 1.399 . S
C1663 C1664 1.376 . S
C1664 H1651 0.930 . S
C1664 C1663 1.376 . S
C1664 C1665 1.388 . S
C1665 H1652 0.930 . S
C1665 C1664 1.388 . S
C1665 C1666 1.390 . S
C1666 C1665 1.390 . S
C1666 C1667 1.394 . S
C1666 C1672 1.465 . S
C1667 C1662 1.399 . S
C1667 C1666 1.394 . S
C1667 C1668 1.516 . S
C1668 C1667 1.516 . S
C1668 C1669 1.502 . S
C1668 C1670 1.561 . S
C1668 C1671 1.526 . S
C1669 H1653 0.959 . S
C1669 H1654 0.959 . S
C1669 H1655 0.961 . S
C1669 C1668 1.502 . S
C1670 H1656 0.960 . S
C1670 H1657 0.961 . S
C1670 H1658 0.959 . S
C1670 C1668 1.561 . S
C1671 C1668 1.526 . S
C1671 C1672 1.396 . S
C1671 C1676 1.390 . S
C1672 C1666 1.465 . S
C1672 C1671 1.396 . S
C1672 C1673 1.399 . S
C1673 H1659 0.929 . S
C1673 C1672 1.399 . S
C1673 C1674 1.385 . S
C1674 H1660 0.931 . S
C1674 C1673 1.385 . S
C1674 C1675 1.389 . S
C1675 C1674 1.389 . S
C1675 C1676 1.387 . S
C1676 H1661 0.930 . S
C1676 C1671 1.390 . S
C1676 C1675 1.387 . S
H1677 C1689 0.930 . S
H1678 C1691 0.930 . S
H1679 C1692 0.930 . S
H1680 C1696 0.959 . S
H1681 C1696 0.959 . S
H1682 C1696 0.961 1_565 S
H1683 C1697 0.960 1_565 S
H1684 C1697 0.961 . S
H1685 C1697 0.959 . S
H1686 C1700 0.929 . S
H1687 C1701 0.931 . S
H1688 C1703 0.930 . S
C1689 H1677 0.930 . S
C1689 C1690 1.399 . S
C1689 C1694 1.399 . S
C1690 C1689 1.399 . S
C1690 C1691 1.376 . S
C1691 H1678 0.930 . S
C1691 C1690 1.376 . S
C1691 C1692 1.388 . S
C1692 H1679 0.930 . S
C1692 C1691 1.388 . S
C1692 C1693 1.390 . S
C1693 C1692 1.390 . S
C1693 C1694 1.394 . S
C1693 C1699 1.465 1_565 S
C1694 C1689 1.399 . S
C1694 C1693 1.394 . S
C1694 C1695 1.516 1_565 S
C1695 C1694 1.516 1_545 S
C1695 C1696 1.502 . S
C1695 C1697 1.561 . S
C1695 C1698 1.526 . S
C1696 H1680 0.959 . S
C1696 H1681 0.959 . S
C1696 H1682 0.961 1_545 S
C1696 C1695 1.502 . S
C1697 H1683 0.960 1_545 S
C1697 H1684 0.961 . S
C1697 H1685 0.959 . S
C1697 C1695 1.561 . S
C1698 C1695 1.526 . S
C1698 C1699 1.396 . S
C1698 C1703 1.390 . S
C1699 C1693 1.465 1_545 S
C1699 C1698 1.396 . S
C1699 C1700 1.399 . S
C1700 H1686 0.929 . S
C1700 C1699 1.399 . S
C1700 C1701 1.385 . S
C1701 H1687 0.931 . S
C1701 C1700 1.385 . S
C1701 C1702 1.389 . S
C1702 C1701 1.389 . S
C1702 C1703 1.387 . S
C1703 H1688 0.930 . S
C1703 C1698 1.390 . S
C1703 C1702 1.387 . S
H1704 C1716 0.930 . S
H1705 C1718 0.930 . S
H1706 C1719 0.930 . S
H1707 C1723 0.959 . S
H1708 C1723 0.959 . S
H1709 C1723 0.961 . S
H1710 C1724 0.960 . S
H1711 C1724 0.961 . S
H1712 C1724 0.959 . S
H1713 C1727 0.929 . S
H1714 C1728 0.931 . S
H1715 C1730 0.930 . S
C1716 H1704 0.930 . S
C1716 C1717 1.399 . S
C1716 C1721 1.399 . S
C1717 C1716 1.399 . S
C1717 C1718 1.376 . S
C1718 H1705 0.930 . S
C1718 C1717 1.376 . S
C1718 C1719 1.388 . S
C1719 H1706 0.930 . S
C1719 C1718 1.388 . S
C1719 C1720 1.390 . S
C1720 C1719 1.390 . S
C1720 C1721 1.394 . S
C1720 C1726 1.465 . S
C1721 C1716 1.399 . S
C1721 C1720 1.394 . S
C1721 C1722 1.516 . S
C1722 C1721 1.516 . S
C1722 C1723 1.502 . S
C1722 C1724 1.561 . S
C1722 C1725 1.526 . S
C1723 H1707 0.959 . S
C1723 H1708 0.959 . S
C1723 H1709 0.961 . S
C1723 C1722 1.502 . S
C1724 H1710 0.960 . S
C1724 H1711 0.961 . S
C1724 H1712 0.959 . S
C1724 C1722 1.561 . S
C1725 C1722 1.526 . S
C1725 C1726 1.396 . S
C1725 C1730 1.390 . S
C1726 C1720 1.465 . S
C1726 C1725 1.396 . S
C1726 C1727 1.399 . S
C1727 H1713 0.929 . S
C1727 C1726 1.399 . S
C1727 C1728 1.385 . S
C1728 H1714 0.931 . S
C1728 C1727 1.385 . S
C1728 C1729 1.389 . S
C1729 C1728 1.389 . S
C1729 C1730 1.387 . S
C1730 H1715 0.930 . S
C1730 C1725 1.390 . S
C1730 C1729 1.387 . S
H1731 C1743 0.930 . S
H1732 C1745 0.930 . S
H1733 C1746 0.930 . S
H1734 C1750 0.959 . S
H1735 C1750 0.959 . S
H1736 C1750 0.961 . S
H1737 C1751 0.960 . S
H1738 C1751 0.961 . S
H1739 C1751 0.959 . S
H1740 C1754 0.929 . S
H1741 C1755 0.931 . S
H1742 C1757 0.930 . S
C1743 H1731 0.930 . S
C1743 C1744 1.399 . S
C1743 C1748 1.399 . S
C1744 C1743 1.399 . S
C1744 C1745 1.376 . S
C1745 H1732 0.930 . S
C1745 C1744 1.376 . S
C1745 C1746 1.388 . S
C1746 H1733 0.930 . S
C1746 C1745 1.388 . S
C1746 C1747 1.390 . S
C1747 C1746 1.390 . S
C1747 C1748 1.394 . S
C1747 C1753 1.465 . S
C1748 C1743 1.399 . S
C1748 C1747 1.394 . S
C1748 C1749 1.516 . S
C1749 C1748 1.516 . S
C1749 C1750 1.502 . S
C1749 C1751 1.561 . S
C1749 C1752 1.526 . S
C1750 H1734 0.959 . S
C1750 H1735 0.959 . S
C1750 H1736 0.961 . S
C1750 C1749 1.502 . S
C1751 H1737 0.960 . S
C1751 H1738 0.961 . S
C1751 H1739 0.959 . S
C1751 C1749 1.561 . S
C1752 C1749 1.526 . S
C1752 C1753 1.396 . S
C1752 C1757 1.390 . S
C1753 C1747 1.465 . S
C1753 C1752 1.396 . S
C1753 C1754 1.399 . S
C1754 H1740 0.929 . S
C1754 C1753 1.399 . S
C1754 C1755 1.385 . S
C1755 H1741 0.931 . S
C1755 C1754 1.385 . S
C1755 C1756 1.389 . S
C1756 C1755 1.389 . S
C1756 C1757 1.387 . S
C1757 H1742 0.930 . S
C1757 C1752 1.390 . S
C1757 C1756 1.387 . S
H1758 C1770 0.930 . S
H1759 C1772 0.930 . S
H1760 C1773 0.930 . S
H1761 C1777 0.959 . S
H1762 C1777 0.959 1_655 S
H1763 C1777 0.961 . S
H1764 C1778 0.960 . S
H1765 C1778 0.961 1_655 S
H1766 C1778 0.959 . S
H1767 C1781 0.929 . S
H1768 C1782 0.931 . S
H1769 C1784 0.930 . S
C1770 H1758 0.930 . S
C1770 C1771 1.399 . S
C1770 C1775 1.399 . S
C1771 C1770 1.399 . S
C1771 C1772 1.376 . S
C1772 H1759 0.930 . S
C1772 C1771 1.376 . S
C1772 C1773 1.388 . S
C1773 H1760 0.930 . S
C1773 C1772 1.388 . S
C1773 C1774 1.390 . S
C1774 C1773 1.390 . S
C1774 C1775 1.394 . S
C1774 C1780 1.465 1_455 S
C1775 C1770 1.399 . S
C1775 C1774 1.394 . S
C1775 C1776 1.516 . S
C1776 C1775 1.516 . S
C1776 C1777 1.502 . S
C1776 C1778 1.561 . S
C1776 C1779 1.526 1_455 S
C1777 H1761 0.959 . S
C1777 H1762 0.959 1_455 S
C1777 H1763 0.961 . S
C1777 C1776 1.502 . S
C1778 H1764 0.960 . S
C1778 H1765 0.961 1_455 S
C1778 H1766 0.959 . S
C1778 C1776 1.561 . S
C1779 C1776 1.526 1_655 S
C1779 C1780 1.396 . S
C1779 C1784 1.390 . S
C1780 C1774 1.465 1_655 S
C1780 C1779 1.396 . S
C1780 C1781 1.399 . S
C1781 H1767 0.929 . S
C1781 C1780 1.399 . S
C1781 C1782 1.385 . S
C1782 H1768 0.931 . S
C1782 C1781 1.385 . S
C1782 C1783 1.389 . S
C1783 C1782 1.389 . S
C1783 C1784 1.387 . S
C1784 H1769 0.930 . S
C1784 C1779 1.390 . S
C1784 C1783 1.387 . S
H1785 C1797 0.930 . S
H1786 C1799 0.930 . S
H1787 C1800 0.930 . S
H1788 C1804 0.959 . S
H1789 C1804 0.959 . S
H1790 C1804 0.961 . S
H1791 C1805 0.960 . S
H1792 C1805 0.961 . S
H1793 C1805 0.959 . S
H1794 C1808 0.929 . S
H1795 C1809 0.931 . S
H1796 C1811 0.930 . S
C1797 H1785 0.930 . S
C1797 C1798 1.399 . S
C1797 C1802 1.399 . S
C1798 C1797 1.399 . S
C1798 C1799 1.376 . S
C1799 H1786 0.930 . S
C1799 C1798 1.376 . S
C1799 C1800 1.388 . S
C1800 H1787 0.930 . S
C1800 C1799 1.388 . S
C1800 C1801 1.390 . S
C1801 C1800 1.390 . S
C1801 C1802 1.394 . S
C1801 C1807 1.465 . S
C1802 C1797 1.399 . S
C1802 C1801 1.394 . S
C1802 C1803 1.516 . S
C1803 C1802 1.516 . S
C1803 C1804 1.502 . S
C1803 C1805 1.561 . S
C1803 C1806 1.526 . S
C1804 H1788 0.959 . S
C1804 H1789 0.959 . S
C1804 H1790 0.961 . S
C1804 C1803 1.502 . S
C1805 H1791 0.960 . S
C1805 H1792 0.961 . S
C1805 H1793 0.959 . S
C1805 C1803 1.561 . S
C1806 C1803 1.526 . S
C1806 C1807 1.396 . S
C1806 C1811 1.390 . S
C1807 C1801 1.465 . S
C1807 C1806 1.396 . S
C1807 C1808 1.399 . S
C1808 H1794 0.929 . S
C1808 C1807 1.399 . S
C1808 C1809 1.385 . S
C1809 H1795 0.931 . S
C1809 C1808 1.385 . S
C1809 C1810 1.389 . S
C1810 C1809 1.389 . S
C1810 C1811 1.387 . S
C1811 H1796 0.930 . S
C1811 C1806 1.390 . S
C1811 C1810 1.387 . S
H1812 C1824 0.930 . S
H1813 C1826 0.930 . S
H1814 C1827 0.930 . S
H1815 C1831 0.959 . S
H1816 C1831 0.959 . S
H1817 C1831 0.961 1_455 S
H1818 C1832 0.960 1_455 S
H1819 C1832 0.961 . S
H1820 C1832 0.959 . S
H1821 C1835 0.929 . S
H1822 C1836 0.931 . S
H1823 C1838 0.930 . S
C1824 H1812 0.930 . S
C1824 C1825 1.399 . S
C1824 C1829 1.399 . S
C1825 C1824 1.399 . S
C1825 C1826 1.376 . S
C1826 H1813 0.930 . S
C1826 C1825 1.376 . S
C1826 C1827 1.388 . S
C1827 H1814 0.930 . S
C1827 C1826 1.388 . S
C1827 C1828 1.390 . S
C1828 C1827 1.390 . S
C1828 C1829 1.394 . S
C1828 C1834 1.465 1_455 S
C1829 C1824 1.399 . S
C1829 C1828 1.394 . S
C1829 C1830 1.516 1_455 S
C1830 C1829 1.516 1_655 S
C1830 C1831 1.502 . S
C1830 C1832 1.561 . S
C1830 C1833 1.526 . S
C1831 H1815 0.959 . S
C1831 H1816 0.959 . S
C1831 H1817 0.961 1_655 S
C1831 C1830 1.502 . S
C1832 H1818 0.960 1_655 S
C1832 H1819 0.961 . S
C1832 H1820 0.959 . S
C1832 C1830 1.561 . S
C1833 C1830 1.526 . S
C1833 C1834 1.396 . S
C1833 C1838 1.390 . S
C1834 C1828 1.465 1_655 S
C1834 C1833 1.396 . S
C1834 C1835 1.399 . S
C1835 H1821 0.929 . S
C1835 C1834 1.399 . S
C1835 C1836 1.385 . S
C1836 H1822 0.931 . S
C1836 C1835 1.385 . S
C1836 C1837 1.389 . S
C1837 C1836 1.389 . S
C1837 C1838 1.387 . S
C1838 H1823 0.930 . S
C1838 C1833 1.390 . S
C1838 C1837 1.387 . S
H1839 C1851 0.930 . S
H1840 C1853 0.930 . S
H1841 C1854 0.930 . S
H1842 C1858 0.959 . S
H1843 C1858 0.959 . S
H1844 C1858 0.961 . S
H1845 C1859 0.960 . S
H1846 C1859 0.961 . S
H1847 C1859 0.959 . S
H1848 C1862 0.929 . S
H1849 C1863 0.931 . S
H1850 C1865 0.930 . S
C1851 H1839 0.930 . S
C1851 C1852 1.399 . S
C1851 C1856 1.399 . S
C1852 C1851 1.399 . S
C1852 C1853 1.376 . S
C1853 H1840 0.930 . S
C1853 C1852 1.376 . S
C1853 C1854 1.388 . S
C1854 H1841 0.930 . S
C1854 C1853 1.388 . S
C1854 C1855 1.390 . S
C1855 C1854 1.390 . S
C1855 C1856 1.394 . S
C1855 C1861 1.465 . S
C1856 C1851 1.399 . S
C1856 C1855 1.394 . S
C1856 C1857 1.516 . S
C1857 C1856 1.516 . S
C1857 C1858 1.502 . S
C1857 C1859 1.561 . S
C1857 C1860 1.526 . S
C1858 H1842 0.959 . S
C1858 H1843 0.959 . S
C1858 H1844 0.961 . S
C1858 C1857 1.502 . S
C1859 H1845 0.960 . S
C1859 H1846 0.961 . S
C1859 H1847 0.959 . S
C1859 C1857 1.561 . S
C1860 C1857 1.526 . S
C1860 C1861 1.396 . S
C1860 C1865 1.390 . S
C1861 C1855 1.465 . S
C1861 C1860 1.396 . S
C1861 C1862 1.399 . S
C1862 H1848 0.929 . S
C1862 C1861 1.399 . S
C1862 C1863 1.385 . S
C1863 H1849 0.931 . S
C1863 C1862 1.385 . S
C1863 C1864 1.389 . S
C1864 C1863 1.389 . S
C1864 C1865 1.387 . S
C1865 H1850 0.930 . S
C1865 C1860 1.390 . S
C1865 C1864 1.387 . S
H1866 C1878 0.930 . S
H1867 C1880 0.930 . S
H1868 C1881 0.930 . S
H1869 C1885 0.959 . S
H1870 C1885 0.959 . S
H1871 C1885 0.961 . S
H1872 C1886 0.960 . S
H1873 C1886 0.961 . S
H1874 C1886 0.959 . S
H1875 C1889 0.929 . S
H1876 C1890 0.931 . S
H1877 C1892 0.930 . S
C1878 H1866 0.930 . S
C1878 C1879 1.399 . S
C1878 C1883 1.399 . S
C1879 C1878 1.399 . S
C1879 C1880 1.376 . S
C1880 H1867 0.930 . S
C1880 C1879 1.376 . S
C1880 C1881 1.388 . S
C1881 H1868 0.930 . S
C1881 C1880 1.388 . S
C1881 C1882 1.390 . S
C1882 C1881 1.390 . S
C1882 C1883 1.394 . S
C1882 C1888 1.465 . S
C1883 C1878 1.399 . S
C1883 C1882 1.394 . S
C1883 C1884 1.516 . S
C1884 C1883 1.516 . S
C1884 C1885 1.502 . S
C1884 C1886 1.561 . S
C1884 C1887 1.507 1_655 S
C1885 H1869 0.959 . S
C1885 H1870 0.959 . S
C1885 H1871 0.961 . S
C1885 C1884 1.502 . S
C1886 H1872 0.960 . S
C1886 H1873 0.961 . S
C1886 H1874 0.959 . S
C1886 C1884 1.561 . S
C1887 C1884 1.507 1_455 S
C1887 C1888 1.388 1_455 S
C1887 C1892 1.414 . S
C1888 C1882 1.465 . S
C1888 C1887 1.388 1_655 S
C1888 C1889 1.399 1_655 S
C1889 H1875 0.929 . S
C1889 C1888 1.399 1_455 S
C1889 C1890 1.385 . S
C1890 H1876 0.931 . S
C1890 C1889 1.385 . S
C1890 C1891 1.389 . S
C1891 C1890 1.389 . S
C1891 C1892 1.387 . S
C1892 H1877 0.930 . S
C1892 C1887 1.414 . S
C1892 C1891 1.387 . S
H1893 C1905 0.930 . S
H1894 C1907 0.930 . S
H1895 C1908 0.930 . S
H1896 C1912 0.959 . S
H1897 C1912 0.959 . S
H1898 C1912 0.961 . S
H1899 C1913 0.960 . S
H1900 C1913 0.961 . S
H1901 C1913 0.959 . S
H1902 C1916 0.929 1_455 S
H1903 C1917 0.931 . S
H1904 C1919 0.930 . S
C1905 H1893 0.930 . S
C1905 C1906 1.399 . S
C1905 C1910 1.399 . S
C1906 C1905 1.399 . S
C1906 C1907 1.376 . S
C1907 H1894 0.930 . S
C1907 C1906 1.376 . S
C1907 C1908 1.388 . S
C1908 H1895 0.930 . S
C1908 C1907 1.388 . S
C1908 C1909 1.390 . S
C1909 C1908 1.390 . S
C1909 C1910 1.394 . S
C1909 C1915 1.465 . S
C1910 C1905 1.399 . S
C1910 C1909 1.394 . S
C1910 C1911 1.516 . S
C1911 C1910 1.516 . S
C1911 C1912 1.502 . S
C1911 C1913 1.561 . S
C1911 C1914 1.526 . S
C1912 H1896 0.959 . S
C1912 H1897 0.959 . S
C1912 H1898 0.961 . S
C1912 C1911 1.502 . S
C1913 H1899 0.960 . S
C1913 H1900 0.961 . S
C1913 H1901 0.959 . S
C1913 C1911 1.561 . S
C1914 C1911 1.526 . S
C1914 C1915 1.396 . S
C1914 C1919 1.390 1_455 S
C1915 C1909 1.465 . S
C1915 C1914 1.396 . S
C1915 C1916 1.399 1_455 S
C1916 H1902 0.929 1_655 S
C1916 C1915 1.399 1_655 S
C1916 C1917 1.385 . S
C1917 H1903 0.931 . S
C1917 C1916 1.385 . S
C1917 C1918 1.389 . S
C1918 C1917 1.389 . S
C1918 C1919 1.387 . S
C1919 H1904 0.930 . S
C1919 C1914 1.390 1_655 S
C1919 C1918 1.387 . S
H1920 C1932 0.930 . S
H1921 C1934 0.930 . S
H1922 C1935 0.930 . S
H1923 C1939 0.959 . S
H1924 C1939 0.959 1_455 S
H1925 C1939 0.961 . S
H1926 C1940 0.958 . S
H1927 C1940 0.962 1_455 S
H1928 C1940 0.959 1_455 S
H1929 C1943 0.929 . S
H1930 C1944 0.931 . S
H1931 C1946 0.930 . S
C1932 H1920 0.930 . S
C1932 C1933 1.399 . S
C1932 C1937 1.399 . S
C1933 C1932 1.399 . S
C1933 C1934 1.376 . S
C1934 H1921 0.930 . S
C1934 C1933 1.376 . S
C1934 C1935 1.388 . S
C1935 H1922 0.930 . S
C1935 C1934 1.388 . S
C1935 C1936 1.390 . S
C1936 C1935 1.390 . S
C1936 C1937 1.394 . S
C1936 C1942 1.465 1_655 S
C1937 C1932 1.399 . S
C1937 C1936 1.394 . S
C1937 C1938 1.516 . S
C1938 C1937 1.516 . S
C1938 C1939 1.502 . S
C1938 C1940 1.561 . S
C1938 C1941 1.526 1_655 S
C1939 H1923 0.959 . S
C1939 H1924 0.959 1_655 S
C1939 H1925 0.961 . S
C1939 C1938 1.502 . S
C1940 H1926 0.958 . S
C1940 H1927 0.962 1_655 S
C1940 H1928 0.959 1_655 S
C1940 C1938 1.561 . S
C1941 C1938 1.526 1_455 S
C1941 C1942 1.396 . S
C1941 C1946 1.390 . S
C1942 C1936 1.465 1_455 S
C1942 C1941 1.396 . S
C1942 C1943 1.399 . S
C1943 H1929 0.929 . S
C1943 C1942 1.399 . S
C1943 C1944 1.385 . S
C1944 H1930 0.931 . S
C1944 C1943 1.385 . S
C1944 C1945 1.389 . S
C1945 C1944 1.389 . S
C1945 C1946 1.387 . S
C1946 H1931 0.930 . S
C1946 C1941 1.390 . S
C1946 C1945 1.387 . S
H1947 C1959 0.930 . S
H1948 C1961 0.930 . S
H1949 C1962 0.930 . S
H1950 C1966 0.959 . S
H1951 C1966 0.959 . S
H1952 C1966 0.961 . S
H1953 C1967 0.960 . S
H1954 C1967 0.961 . S
H1955 C1967 0.959 . S
H1956 C1970 0.929 . S
H1957 C1971 0.931 . S
H1958 C1973 0.930 . S
C1959 H1947 0.930 . S
C1959 C1960 1.399 . S
C1959 C1964 1.399 . S
C1960 C1959 1.399 . S
C1960 C1961 1.376 . S
C1961 H1948 0.930 . S
C1961 C1960 1.376 . S
C1961 C1962 1.388 . S
C1962 H1949 0.930 . S
C1962 C1961 1.388 . S
C1962 C1963 1.390 . S
C1963 C1962 1.390 . S
C1963 C1964 1.394 . S
C1963 C1969 1.465 . S
C1964 C1959 1.399 . S
C1964 C1963 1.394 . S
C1964 C1965 1.516 . S
C1965 C1964 1.516 . S
C1965 C1966 1.502 . S
C1965 C1967 1.561 . S
C1965 C1968 1.526 . S
C1966 H1950 0.959 . S
C1966 H1951 0.959 . S
C1966 H1952 0.961 . S
C1966 C1965 1.502 . S
C1967 H1953 0.960 . S
C1967 H1954 0.961 . S
C1967 H1955 0.959 . S
C1967 C1965 1.561 . S
C1968 C1965 1.526 . S
C1968 C1969 1.396 . S
C1968 C1973 1.390 . S
C1969 C1963 1.465 . S
C1969 C1968 1.396 . S
C1969 C1970 1.399 . S
C1970 H1956 0.929 . S
C1970 C1969 1.399 . S
C1970 C1971 1.385 . S
C1971 H1957 0.931 . S
C1971 C1970 1.385 . S
C1971 C1972 1.389 . S
C1972 C1971 1.389 . S
C1972 C1973 1.387 . S
C1973 H1958 0.930 . S
C1973 C1968 1.390 . S
C1973 C1972 1.387 . S
H1974 C1986 0.930 . S
H1975 C1988 0.930 . S
H1976 C1989 0.930 . S
H1977 C1993 0.959 . S
H1978 C1993 0.959 . S
H1979 C1993 0.961 1_455 S
H1980 C1994 0.922 1_455 S
H1981 C1994 1.001 . S
H1982 C1994 0.959 . S
H1983 C1997 0.929 . S
H1984 C1998 0.931 . S
H1985 C2000 0.930 . S
C1986 H1974 0.930 . S
C1986 C1987 1.399 . S
C1986 C1991 1.399 . S
C1987 C1986 1.399 . S
C1987 C1988 1.376 . S
C1988 H1975 0.930 . S
C1988 C1987 1.376 . S
C1988 C1989 1.388 . S
C1989 H1976 0.930 . S
C1989 C1988 1.388 . S
C1989 C1990 1.390 . S
C1990 C1989 1.390 . S
C1990 C1991 1.394 . S
C1990 C1996 1.465 1_455 S
C1991 C1986 1.399 . S
C1991 C1990 1.394 . S
C1991 C1992 1.490 1_455 S
C1992 C1991 1.490 1_655 S
C1992 C1993 1.505 . S
C1992 C1994 1.561 . S
C1992 C1995 1.549 . S
C1993 H1977 0.959 . S
C1993 H1978 0.959 . S
C1993 H1979 0.961 1_655 S
C1993 C1992 1.505 . S
C1994 H1980 0.922 1_655 S
C1994 H1981 1.001 . S
C1994 H1982 0.959 . S
C1994 C1992 1.561 . S
C1995 C1992 1.549 . S
C1995 C1996 1.396 . S
C1995 C2000 1.390 . S
C1996 C1990 1.465 1_655 S
C1996 C1995 1.396 . S
C1996 C1997 1.399 . S
C1997 H1983 0.929 . S
C1997 C1996 1.399 . S
C1997 C1998 1.385 . S
C1998 H1984 0.931 . S
C1998 C1997 1.385 . S
C1998 C1999 1.389 . S
C1999 C1998 1.389 . S
C1999 C2000 1.387 . S
C2000 H1985 0.930 . S
C2000 C1995 1.390 . S
C2000 C1999 1.387 . S
H2001 C2013 0.930 . S
H2002 C2015 0.930 . S
H2003 C2016 0.930 . S
H2004 C2020 0.959 . S
H2005 C2020 0.959 . S
H2006 C2020 0.961 . S
H2007 C2021 0.960 . S
H2008 C2021 0.961 . S
H2009 C2021 0.959 . S
H2010 C2024 0.929 . S
H2011 C2025 0.931 . S
H2012 C2027 0.930 . S
C2013 H2001 0.930 . S
C2013 C2014 1.399 . S
C2013 C2018 1.399 . S
C2014 C2013 1.399 . S
C2014 C2015 1.376 . S
C2015 H2002 0.930 . S
C2015 C2014 1.376 . S
C2015 C2016 1.388 . S
C2016 H2003 0.930 . S
C2016 C2015 1.388 . S
C2016 C2017 1.390 . S
C2017 C2016 1.390 . S
C2017 C2018 1.394 . S
C2017 C2023 1.465 . S
C2018 C2013 1.399 . S
C2018 C2017 1.394 . S
C2018 C2019 1.516 . S
C2019 C2018 1.516 . S
C2019 C2020 1.502 . S
C2019 C2021 1.561 . S
C2019 C2022 1.526 . S
C2020 H2004 0.959 . S
C2020 H2005 0.959 . S
C2020 H2006 0.961 . S
C2020 C2019 1.502 . S
C2021 H2007 0.960 . S
C2021 H2008 0.961 . S
C2021 H2009 0.959 . S
C2021 C2019 1.561 . S
C2022 C2019 1.526 . S
C2022 C2023 1.396 . S
C2022 C2027 1.390 . S
C2023 C2017 1.465 . S
C2023 C2022 1.396 . S
C2023 C2024 1.399 . S
C2024 H2010 0.929 . S
C2024 C2023 1.399 . S
C2024 C2025 1.385 . S
C2025 H2011 0.931 . S
C2025 C2024 1.385 . S
C2025 C2026 1.389 . S
C2026 C2025 1.389 . S
C2026 C2027 1.387 . S
C2027 H2012 0.930 . S
C2027 C2022 1.390 . S
C2027 C2026 1.387 . S
H2028 C2040 0.930 . S
H2029 C2042 0.930 . S
H2030 C2043 0.930 . S
H2031 C2047 0.959 . S
H2032 C2047 0.959 . S
H2033 C2047 0.961 1_655 S
H2034 C2048 0.960 1_655 S
H2035 C2048 0.961 . S
H2036 C2048 0.959 . S
H2037 C2051 0.929 . S
H2038 C2052 0.931 . S
H2039 C2054 0.930 . S
C2040 H2028 0.930 . S
C2040 C2041 1.399 . S
C2040 C2045 1.399 . S
C2041 C2040 1.399 . S
C2041 C2042 1.376 . S
C2042 H2029 0.930 . S
C2042 C2041 1.376 . S
C2042 C2043 1.388 . S
C2043 H2030 0.930 . S
C2043 C2042 1.388 . S
C2043 C2044 1.390 . S
C2044 C2043 1.390 . S
C2044 C2045 1.394 . S
C2044 C2050 1.465 1_655 S
C2045 C2040 1.399 . S
C2045 C2044 1.394 . S
C2045 C2046 1.516 1_655 S
C2046 C2045 1.516 1_455 S
C2046 C2047 1.502 . S
C2046 C2048 1.561 . S
C2046 C2049 1.526 . S
C2047 H2031 0.959 . S
C2047 H2032 0.959 . S
C2047 H2033 0.961 1_455 S
C2047 C2046 1.502 . S
C2048 H2034 0.960 1_455 S
C2048 H2035 0.961 . S
C2048 H2036 0.959 . S
C2048 C2046 1.561 . S
C2049 C2046 1.526 . S
C2049 C2050 1.396 . S
C2049 C2054 1.390 . S
C2050 C2044 1.465 1_455 S
C2050 C2049 1.396 . S
C2050 C2051 1.399 . S
C2051 H2037 0.929 . S
C2051 C2050 1.399 . S
C2051 C2052 1.385 . S
C2052 H2038 0.931 . S
C2052 C2051 1.385 . S
C2052 C2053 1.389 . S
C2053 C2052 1.389 . S
C2053 C2054 1.387 . S
C2054 H2039 0.930 . S
C2054 C2049 1.390 . S
C2054 C2053 1.387 . S
H2055 C2067 0.930 . S
H2056 C2069 0.930 . S
H2057 C2070 0.930 . S
H2058 C2074 0.959 . S
H2059 C2074 0.959 . S
H2060 C2074 0.961 . S
H2061 C2075 0.960 . S
H2062 C2075 0.961 . S
H2063 C2075 0.959 . S
H2064 C2078 0.929 . S
H2065 C2079 0.931 . S
H2066 C2081 0.930 . S
C2067 H2055 0.930 . S
C2067 C2068 1.399 . S
C2067 C2072 1.399 . S
C2068 C2067 1.399 . S
C2068 C2069 1.376 . S
C2069 H2056 0.930 . S
C2069 C2068 1.376 . S
C2069 C2070 1.388 . S
C2070 H2057 0.930 . S
C2070 C2069 1.388 . S
C2070 C2071 1.390 . S
C2071 C2070 1.390 . S
C2071 C2072 1.394 . S
C2071 C2077 1.465 . S
C2072 C2067 1.399 . S
C2072 C2071 1.394 . S
C2072 C2073 1.516 . S
C2073 C2072 1.516 . S
C2073 C2074 1.502 . S
C2073 C2075 1.561 . S
C2073 C2076 1.526 . S
C2074 H2058 0.959 . S
C2074 H2059 0.959 . S
C2074 H2060 0.961 . S
C2074 C2073 1.502 . S
C2075 H2061 0.960 . S
C2075 H2062 0.961 . S
C2075 H2063 0.959 . S
C2075 C2073 1.561 . S
C2076 C2073 1.526 . S
C2076 C2077 1.396 . S
C2076 C2081 1.390 . S
C2077 C2071 1.465 . S
C2077 C2076 1.396 . S
C2077 C2078 1.399 . S
C2078 H2064 0.929 . S
C2078 C2077 1.399 . S
C2078 C2079 1.385 . S
C2079 H2065 0.931 . S
C2079 C2078 1.385 . S
C2079 C2080 1.389 . S
C2080 C2079 1.389 . S
C2080 C2081 1.387 . S
C2081 H2066 0.930 . S
C2081 C2076 1.390 . S
C2081 C2080 1.387 . S
H2082 C2094 0.930 . S
H2083 C2096 0.930 . S
H2084 C2097 0.930 . S
H2085 C2101 0.959 . S
H2086 C2101 0.998 . S
H2087 C2101 0.925 1_655 S
H2088 C2102 0.960 1_655 S
H2089 C2102 0.961 . S
H2090 C2102 0.959 . S
H2091 C2105 0.929 . S
H2092 C2106 0.931 . S
H2093 C2108 0.930 . S
C2094 H2082 0.930 . S
C2094 C2095 1.399 . S
C2094 C2099 1.399 . S
C2095 C2094 1.399 . S
C2095 C2096 1.376 . S
C2096 H2083 0.930 . S
C2096 C2095 1.376 . S
C2096 C2097 1.388 . S
C2097 H2084 0.930 . S
C2097 C2096 1.388 . S
C2097 C2098 1.390 . S
C2098 C2097 1.390 . S
C2098 C2099 1.394 . S
C2098 C2104 1.465 1_655 S
C2099 C2094 1.399 . S
C2099 C2098 1.394 . S
C2099 C2100 1.521 . S
C2100 C2099 1.521 . S
C2100 C2101 1.501 1_655 S
C2100 C2102 1.561 1_655 S
C2100 C2103 1.522 1_655 S
C2101 H2085 0.959 . S
C2101 H2086 0.998 . S
C2101 H2087 0.925 1_455 S
C2101 C2100 1.501 1_455 S
C2102 H2088 0.960 1_455 S
C2102 H2089 0.961 . S
C2102 H2090 0.959 . S
C2102 C2100 1.561 1_455 S
C2103 C2100 1.522 1_455 S
C2103 C2104 1.396 . S
C2103 C2108 1.390 . S
C2104 C2098 1.465 1_455 S
C2104 C2103 1.396 . S
C2104 C2105 1.399 . S
C2105 H2091 0.929 . S
C2105 C2104 1.399 . S
C2105 C2106 1.385 . S
C2106 H2092 0.931 . S
C2106 C2105 1.385 . S
C2106 C2107 1.389 . S
C2107 C2106 1.389 . S
C2107 C2108 1.387 . S
C2108 H2093 0.930 . S
C2108 C2103 1.390 . S
C2108 C2107 1.387 . S
H2109 C2121 0.930 . S
H2110 C2123 0.930 . S
H2111 C2124 0.930 . S
H2112 C2128 0.959 . S
H2113 C2128 0.959 . S
H2114 C2128 0.961 . S
H2115 C2129 0.960 . S
H2116 C2129 0.961 . S
H2117 C2129 0.959 . S
H2118 C2132 0.929 . S
H2119 C2133 0.931 . S
H2120 C2135 0.930 . S
C2121 H2109 0.930 . S
C2121 C2122 1.399 . S
C2121 C2126 1.399 . S
C2122 C2121 1.399 . S
C2122 C2123 1.376 . S
C2123 H2110 0.930 . S
C2123 C2122 1.376 . S
C2123 C2124 1.388 . S
C2124 H2111 0.930 . S
C2124 C2123 1.388 . S
C2124 C2125 1.390 . S
C2125 C2124 1.390 . S
C2125 C2126 1.394 . S
C2125 C2131 1.465 . S
C2126 C2121 1.399 . S
C2126 C2125 1.394 . S
C2126 C2127 1.516 . S
C2127 C2126 1.516 . S
C2127 C2128 1.502 . S
C2127 C2129 1.561 . S
C2127 C2130 1.526 . S
C2128 H2112 0.959 . S
C2128 H2113 0.959 . S
C2128 H2114 0.961 . S
C2128 C2127 1.502 . S
C2129 H2115 0.960 . S
C2129 H2116 0.961 . S
C2129 H2117 0.959 . S
C2129 C2127 1.561 . S
C2130 C2127 1.526 . S
C2130 C2131 1.396 . S
C2130 C2135 1.390 . S
C2131 C2125 1.465 . S
C2131 C2130 1.396 . S
C2131 C2132 1.399 . S
C2132 H2118 0.929 . S
C2132 C2131 1.399 . S
C2132 C2133 1.385 . S
C2133 H2119 0.931 . S
C2133 C2132 1.385 . S
C2133 C2134 1.389 . S
C2134 C2133 1.389 . S
C2134 C2135 1.387 . S
C2135 H2120 0.930 . S
C2135 C2130 1.390 . S
C2135 C2134 1.387 . S
H2136 C2148 0.930 . S
H2137 C2150 0.930 . S
H2138 C2151 0.930 . S
H2139 C2155 0.959 . S
H2140 C2155 0.959 1_565 S
H2141 C2155 0.961 . S
H2142 C2156 0.960 . S
H2143 C2156 0.961 1_565 S
H2144 C2156 0.959 . S
H2145 C2159 0.929 . S
H2146 C2160 0.931 . S
H2147 C2162 0.930 . S
C2148 H2136 0.930 . S
C2148 C2149 1.399 . S
C2148 C2153 1.399 . S
C2149 C2148 1.399 . S
C2149 C2150 1.376 . S
C2150 H2137 0.930 . S
C2150 C2149 1.376 . S
C2150 C2151 1.388 . S
C2151 H2138 0.930 . S
C2151 C2150 1.388 . S
C2151 C2152 1.390 . S
C2152 C2151 1.390 . S
C2152 C2153 1.394 . S
C2152 C2158 1.465 1_545 S
C2153 C2148 1.399 . S
C2153 C2152 1.394 . S
C2153 C2154 1.516 . S
C2154 C2153 1.516 . S
C2154 C2155 1.502 . S
C2154 C2156 1.561 . S
C2154 C2157 1.526 1_545 S
C2155 H2139 0.959 . S
C2155 H2140 0.959 1_545 S
C2155 H2141 0.961 . S
C2155 C2154 1.502 . S
C2156 H2142 0.960 . S
C2156 H2143 0.961 1_545 S
C2156 H2144 0.959 . S
C2156 C2154 1.561 . S
C2157 C2154 1.526 1_565 S
C2157 C2158 1.396 . S
C2157 C2162 1.390 . S
C2158 C2152 1.465 1_565 S
C2158 C2157 1.396 . S
C2158 C2159 1.399 . S
C2159 H2145 0.929 . S
C2159 C2158 1.399 . S
C2159 C2160 1.385 . S
C2160 H2146 0.931 . S
C2160 C2159 1.385 . S
C2160 C2161 1.389 . S
C2161 C2160 1.389 . S
C2161 C2162 1.387 . S
C2162 H2147 0.930 . S
C2162 C2157 1.390 . S
C2162 C2161 1.387 . S
H2163 C2175 0.930 . S
H2164 C2177 0.930 . S
H2165 C2178 0.930 . S
H2166 C2182 0.959 . S
H2167 C2182 0.959 . S
H2168 C2182 0.961 . S
H2169 C2183 0.960 . S
H2170 C2183 0.961 . S
H2171 C2183 0.959 . S
H2172 C2186 0.929 . S
H2173 C2187 0.931 . S
H2174 C2189 0.930 . S
C2175 H2163 0.930 . S
C2175 C2176 1.399 . S
C2175 C2180 1.399 . S
C2176 C2175 1.399 . S
C2176 C2177 1.376 . S
C2177 H2164 0.930 . S
C2177 C2176 1.376 . S
C2177 C2178 1.388 . S
C2178 H2165 0.930 . S
C2178 C2177 1.388 . S
C2178 C2179 1.390 . S
C2179 C2178 1.390 . S
C2179 C2180 1.394 . S
C2179 C2185 1.465 . S
C2180 C2175 1.399 . S
C2180 C2179 1.394 . S
C2180 C2181 1.516 . S
C2181 C2180 1.516 . S
C2181 C2182 1.502 . S
C2181 C2183 1.561 . S
C2181 C2184 1.526 . S
C2182 H2166 0.959 . S
C2182 H2167 0.959 . S
C2182 H2168 0.961 . S
C2182 C2181 1.502 . S
C2183 H2169 0.960 . S
C2183 H2170 0.961 . S
C2183 H2171 0.959 . S
C2183 C2181 1.561 . S
C2184 C2181 1.526 . S
C2184 C2185 1.396 . S
C2184 C2189 1.390 . S
C2185 C2179 1.465 . S
C2185 C2184 1.396 . S
C2185 C2186 1.399 . S
C2186 H2172 0.929 . S
C2186 C2185 1.399 . S
C2186 C2187 1.385 . S
C2187 H2173 0.931 . S
C2187 C2186 1.385 . S
C2187 C2188 1.389 . S
C2188 C2187 1.389 . S
C2188 C2189 1.387 . S
C2189 H2174 0.930 . S
C2189 C2184 1.390 . S
C2189 C2188 1.387 . S
H2190 C2202 0.930 . S
H2191 C2204 0.930 . S
H2192 C2205 0.930 . S
H2193 C2209 0.962 . S
H2194 C2209 0.997 . S
H2195 C2209 0.922 1_545 S
H2196 C2210 0.960 1_545 S
H2197 C2210 0.961 . S
H2198 C2210 0.959 . S
H2199 C2213 0.929 . S
H2200 C2214 0.931 . S
H2201 C2216 0.930 . S
C2202 H2190 0.930 . S
C2202 C2203 1.399 . S
C2202 C2207 1.399 . S
C2203 C2202 1.399 . S
C2203 C2204 1.376 . S
C2204 H2191 0.930 . S
C2204 C2203 1.376 . S
C2204 C2205 1.388 . S
C2205 H2192 0.930 . S
C2205 C2204 1.388 . S
C2205 C2206 1.390 . S
C2206 C2205 1.390 . S
C2206 C2207 1.394 . S
C2206 C2212 1.465 1_545 S
C2207 C2202 1.399 . S
C2207 C2206 1.394 . S
C2207 C2208 1.516 1_545 S
C2208 C2207 1.516 1_565 S
C2208 C2209 1.503 . S
C2208 C2210 1.561 . S
C2208 C2211 1.526 . S
C2209 H2193 0.962 . S
C2209 H2194 0.997 . S
C2209 H2195 0.922 1_565 S
C2209 C2208 1.503 . S
C2210 H2196 0.960 1_565 S
C2210 H2197 0.961 . S
C2210 H2198 0.959 . S
C2210 C2208 1.561 . S
C2211 C2208 1.526 . S
C2211 C2212 1.396 . S
C2211 C2216 1.390 . S
C2212 C2206 1.465 1_565 S
C2212 C2211 1.396 . S
C2212 C2213 1.399 . S
C2213 H2199 0.929 . S
C2213 C2212 1.399 . S
C2213 C2214 1.385 . S
C2214 H2200 0.931 . S
C2214 C2213 1.385 . S
C2214 C2215 1.389 . S
C2215 C2214 1.389 . S
C2215 C2216 1.387 . S
C2216 H2201 0.930 . S
C2216 C2211 1.390 . S
C2216 C2215 1.387 . S
H2217 C2229 0.930 . S
H2218 C2231 0.930 . S
H2219 C2232 0.930 . S
H2220 C2236 0.959 . S
H2221 C2236 0.959 . S
H2222 C2236 0.961 . S
H2223 C2237 0.960 . S
H2224 C2237 0.961 . S
H2225 C2237 0.959 . S
H2226 C2240 0.929 . S
H2227 C2241 0.931 . S
H2228 C2243 0.930 . S
C2229 H2217 0.930 . S
C2229 C2230 1.399 . S
C2229 C2234 1.399 . S
C2230 C2229 1.399 . S
C2230 C2231 1.376 . S
C2231 H2218 0.930 . S
C2231 C2230 1.376 . S
C2231 C2232 1.388 . S
C2232 H2219 0.930 . S
C2232 C2231 1.388 . S
C2232 C2233 1.390 . S
C2233 C2232 1.390 . S
C2233 C2234 1.394 . S
C2233 C2239 1.465 . S
C2234 C2229 1.399 . S
C2234 C2233 1.394 . S
C2234 C2235 1.516 . S
C2235 C2234 1.516 . S
C2235 C2236 1.502 . S
C2235 C2237 1.561 . S
C2235 C2238 1.526 . S
C2236 H2220 0.959 . S
C2236 H2221 0.959 . S
C2236 H2222 0.961 . S
C2236 C2235 1.502 . S
C2237 H2223 0.960 . S
C2237 H2224 0.961 . S
C2237 H2225 0.959 . S
C2237 C2235 1.561 . S
C2238 C2235 1.526 . S
C2238 C2239 1.396 . S
C2238 C2243 1.390 . S
C2239 C2233 1.465 . S
C2239 C2238 1.396 . S
C2239 C2240 1.399 . S
C2240 H2226 0.929 . S
C2240 C2239 1.399 . S
C2240 C2241 1.385 . S
C2241 H2227 0.931 . S
C2241 C2240 1.385 . S
C2241 C2242 1.389 . S
C2242 C2241 1.389 . S
C2242 C2243 1.387 . S
C2243 H2228 0.930 . S
C2243 C2238 1.390 . S
C2243 C2242 1.387 . S
H2244 C2256 0.930 . S
H2245 C2258 0.930 . S
H2246 C2259 0.930 . S
H2247 C2263 0.959 . S
H2248 C2263 0.959 . S
H2249 C2263 0.961 1_545 S
H2250 C2264 0.960 1_545 S
H2251 C2264 0.961 . S
H2252 C2264 0.959 . S
H2253 C2267 0.929 . S
H2254 C2268 0.931 . S
H2255 C2270 0.930 . S
C2256 H2244 0.930 . S
C2256 C2257 1.399 . S
C2256 C2261 1.399 . S
C2257 C2256 1.399 . S
C2257 C2258 1.376 . S
C2258 H2245 0.930 . S
C2258 C2257 1.376 . S
C2258 C2259 1.388 . S
C2259 H2246 0.930 . S
C2259 C2258 1.388 . S
C2259 C2260 1.390 . S
C2260 C2259 1.390 . S
C2260 C2261 1.394 . S
C2260 C2266 1.465 1_545 S
C2261 C2256 1.399 . S
C2261 C2260 1.394 . S
C2261 C2262 1.516 1_545 S
C2262 C2261 1.516 1_565 S
C2262 C2263 1.502 . S
C2262 C2264 1.561 . S
C2262 C2265 1.526 . S
C2263 H2247 0.959 . S
C2263 H2248 0.959 . S
C2263 H2249 0.961 1_565 S
C2263 C2262 1.502 . S
C2264 H2250 0.960 1_565 S
C2264 H2251 0.961 . S
C2264 H2252 0.959 . S
C2264 C2262 1.561 . S
C2265 C2262 1.526 . S
C2265 C2266 1.396 . S
C2265 C2270 1.390 . S
C2266 C2260 1.465 1_565 S
C2266 C2265 1.396 . S
C2266 C2267 1.399 . S
C2267 H2253 0.929 . S
C2267 C2266 1.399 . S
C2267 C2268 1.385 . S
C2268 H2254 0.931 . S
C2268 C2267 1.385 . S
C2268 C2269 1.389 . S
C2269 C2268 1.389 . S
C2269 C2270 1.387 . S
C2270 H2255 0.930 . S
C2270 C2265 1.390 . S
C2270 C2269 1.387 . S
H2271 C2283 0.930 . S
H2272 C2285 0.930 . S
H2273 C2286 0.930 . S
H2274 C2290 0.959 . S
H2275 C2290 0.959 . S
H2276 C2290 0.961 . S
H2277 C2291 0.960 . S
H2278 C2291 0.961 . S
H2279 C2291 0.959 . S
H2280 C2294 0.929 . S
H2281 C2295 0.931 . S
H2282 C2297 0.930 . S
C2283 H2271 0.930 . S
C2283 C2284 1.399 . S
C2283 C2288 1.399 . S
C2284 C2283 1.399 . S
C2284 C2285 1.376 . S
C2285 H2272 0.930 . S
C2285 C2284 1.376 . S
C2285 C2286 1.388 . S
C2286 H2273 0.930 . S
C2286 C2285 1.388 . S
C2286 C2287 1.390 . S
C2287 C2286 1.390 . S
C2287 C2288 1.394 . S
C2287 C2293 1.465 . S
C2288 C2283 1.399 . S
C2288 C2287 1.394 . S
C2288 C2289 1.516 . S
C2289 C2288 1.516 . S
C2289 C2290 1.502 . S
C2289 C2291 1.561 . S
C2289 C2292 1.526 . S
C2290 H2274 0.959 . S
C2290 H2275 0.959 . S
C2290 H2276 0.961 . S
C2290 C2289 1.502 . S
C2291 H2277 0.960 . S
C2291 H2278 0.961 . S
C2291 H2279 0.959 . S
C2291 C2289 1.561 . S
C2292 C2289 1.526 . S
C2292 C2293 1.396 . S
C2292 C2297 1.390 . S
C2293 C2287 1.465 . S
C2293 C2292 1.396 . S
C2293 C2294 1.399 . S
C2294 H2280 0.929 . S
C2294 C2293 1.399 . S
C2294 C2295 1.385 . S
C2295 H2281 0.931 . S
C2295 C2294 1.385 . S
C2295 C2296 1.389 . S
C2296 C2295 1.389 . S
C2296 C2297 1.387 . S
C2297 H2282 0.930 . S
C2297 C2292 1.390 . S
C2297 C2296 1.387 . S
H2298 C2310 0.930 . S
H2299 C2312 0.930 . S
H2300 C2313 0.930 . S
H2301 C2317 0.959 1_565 S
H2302 C2317 0.955 1_565 S
H2303 C2317 0.966 . S
H2304 C2318 0.960 1_545 S
H2305 C2318 0.961 . S
H2306 C2318 0.959 . S
H2307 C2321 0.929 . S
H2308 C2322 0.931 . S
H2309 C2324 0.930 . S
C2310 H2298 0.930 . S
C2310 C2311 1.399 . S
C2310 C2315 1.399 . S
C2311 C2310 1.399 . S
C2311 C2312 1.376 . S
C2312 H2299 0.930 . S
C2312 C2311 1.376 . S
C2312 C2313 1.388 . S
C2313 H2300 0.930 . S
C2313 C2312 1.388 . S
C2313 C2314 1.390 . S
C2314 C2313 1.390 . S
C2314 C2315 1.394 . S
C2314 C2320 1.465 1_545 S
C2315 C2310 1.399 . S
C2315 C2314 1.394 . S
C2315 C2316 1.516 1_545 S
C2316 C2315 1.516 1_565 S
C2316 C2317 1.501 1_565 S
C2316 C2318 1.561 . S
C2316 C2319 1.526 . S
C2317 H2301 0.959 1_545 S
C2317 H2302 0.955 1_545 S
C2317 H2303 0.966 . S
C2317 C2316 1.501 1_545 S
C2318 H2304 0.960 1_565 S
C2318 H2305 0.961 . S
C2318 H2306 0.959 . S
C2318 C2316 1.561 . S
C2319 C2316 1.526 . S
C2319 C2320 1.396 . S
C2319 C2324 1.390 . S
C2320 C2314 1.465 1_565 S
C2320 C2319 1.396 . S
C2320 C2321 1.399 . S
C2321 H2307 0.929 . S
C2321 C2320 1.399 . S
C2321 C2322 1.385 . S
C2322 H2308 0.931 . S
C2322 C2321 1.385 . S
C2322 C2323 1.389 . S
C2323 C2322 1.389 . S
C2323 C2324 1.387 . S
C2324 H2309 0.930 . S
C2324 C2319 1.390 . S
C2324 C2323 1.387 . S
H2325 C2337 0.930 . S
H2326 C2339 0.930 . S
H2327 C2340 0.930 . S
H2328 C2344 0.959 . S
H2329 C2344 0.959 . S
H2330 C2344 0.961 . S
H2331 C2345 0.960 . S
H2332 C2345 0.961 . S
H2333 C2345 0.959 . S
H2334 C2348 0.929 . S
H2335 C2349 0.931 . S
H2336 C2351 0.930 . S
C2337 H2325 0.930 . S
C2337 C2338 1.399 . S
C2337 C2342 1.399 . S
C2338 C2337 1.399 . S
C2338 C2339 1.376 . S
C2339 H2326 0.930 . S
C2339 C2338 1.376 . S
C2339 C2340 1.388 . S
C2340 H2327 0.930 . S
C2340 C2339 1.388 . S
C2340 C2341 1.390 . S
C2341 C2340 1.390 . S
C2341 C2342 1.394 . S
C2341 C2347 1.465 . S
C2342 C2337 1.399 . S
C2342 C2341 1.394 . S
C2342 C2343 1.516 . S
C2343 C2342 1.516 . S
C2343 C2344 1.502 . S
C2343 C2345 1.561 . S
C2343 C2346 1.526 . S
C2344 H2328 0.959 . S
C2344 H2329 0.959 . S
C2344 H2330 0.961 . S
C2344 C2343 1.502 . S
C2345 H2331 0.960 . S
C2345 H2332 0.961 . S
C2345 H2333 0.959 . S
C2345 C2343 1.561 . S
C2346 C2343 1.526 . S
C2346 C2347 1.396 . S
C2346 C2351 1.390 . S
C2347 C2341 1.465 . S
C2347 C2346 1.396 . S
C2347 C2348 1.399 . S
C2348 H2334 0.929 . S
C2348 C2347 1.399 . S
C2348 C2349 1.385 . S
C2349 H2335 0.931 . S
C2349 C2348 1.385 . S
C2349 C2350 1.389 . S
C2350 C2349 1.389 . S
C2350 C2351 1.387 . S
C2351 H2336 0.930 . S
C2351 C2346 1.390 . S
C2351 C2350 1.387 . S
H2352 C2364 0.930 . S
H2353 C2366 0.930 . S
H2354 C2367 0.930 . S
H2355 C2371 0.959 . S
H2356 C2371 0.959 . S
H2357 C2371 0.961 1_556 S
H2358 C2372 0.960 1_556 S
H2359 C2372 0.961 . S
H2360 C2372 0.959 . S
H2361 C2375 0.929 . S
H2362 C2376 0.931 . S
H2363 C2378 0.930 . S
C2364 H2352 0.930 . S
C2364 C2365 1.399 . S
C2364 C2369 1.399 . S
C2365 C2364 1.399 . S
C2365 C2366 1.376 . S
C2366 H2353 0.930 . S
C2366 C2365 1.376 . S
C2366 C2367 1.388 . S
C2367 H2354 0.930 . S
C2367 C2366 1.388 . S
C2367 C2368 1.390 . S
C2368 C2367 1.390 . S
C2368 C2369 1.394 . S
C2368 C2374 1.465 1_556 S
C2369 C2364 1.399 . S
C2369 C2368 1.394 . S
C2369 C2370 1.516 1_556 S
C2370 C2369 1.516 1_554 S
C2370 C2371 1.502 . S
C2370 C2372 1.561 . S
C2370 C2373 1.526 . S
C2371 H2355 0.959 . S
C2371 H2356 0.959 . S
C2371 H2357 0.961 1_554 S
C2371 C2370 1.502 . S
C2372 H2358 0.960 1_554 S
C2372 H2359 0.961 . S
C2372 H2360 0.959 . S
C2372 C2370 1.561 . S
C2373 C2370 1.526 . S
C2373 C2374 1.396 . S
C2373 C2378 1.390 . S
C2374 C2368 1.465 1_554 S
C2374 C2373 1.396 . S
C2374 C2375 1.399 . S
C2375 H2361 0.929 . S
C2375 C2374 1.399 . S
C2375 C2376 1.385 . S
C2376 H2362 0.931 . S
C2376 C2375 1.385 . S
C2376 C2377 1.389 . S
C2377 C2376 1.389 . S
C2377 C2378 1.387 . S
C2378 H2363 0.930 . S
C2378 C2373 1.390 . S
C2378 C2377 1.387 . S
H2379 C2391 0.930 . S
H2380 C2393 0.930 . S
H2381 C2394 0.930 . S
H2382 C2398 0.959 . S
H2383 C2398 0.959 1_554 S
H2384 C2398 0.961 . S
H2385 C2399 0.960 . S
H2386 C2399 0.961 1_554 S
H2387 C2399 0.959 . S
H2388 C2402 0.929 . S
H2389 C2403 0.931 . S
H2390 C2405 0.930 . S
C2391 H2379 0.930 . S
C2391 C2392 1.399 . S
C2391 C2396 1.399 . S
C2392 C2391 1.399 . S
C2392 C2393 1.376 . S
C2393 H2380 0.930 . S
C2393 C2392 1.376 . S
C2393 C2394 1.388 . S
C2394 H2381 0.930 . S
C2394 C2393 1.388 . S
C2394 C2395 1.390 . S
C2395 C2394 1.390 . S
C2395 C2396 1.394 . S
C2395 C2401 1.465 1_556 S
C2396 C2391 1.399 . S
C2396 C2395 1.394 . S
C2396 C2397 1.516 . S
C2397 C2396 1.516 . S
C2397 C2398 1.502 . S
C2397 C2399 1.561 . S
C2397 C2400 1.526 1_556 S
C2398 H2382 0.959 . S
C2398 H2383 0.959 1_556 S
C2398 H2384 0.961 . S
C2398 C2397 1.502 . S
C2399 H2385 0.960 . S
C2399 H2386 0.961 1_556 S
C2399 H2387 0.959 . S
C2399 C2397 1.561 . S
C2400 C2397 1.526 1_554 S
C2400 C2401 1.396 . S
C2400 C2405 1.390 . S
C2401 C2395 1.465 1_554 S
C2401 C2400 1.396 . S
C2401 C2402 1.399 . S
C2402 H2388 0.929 . S
C2402 C2401 1.399 . S
C2402 C2403 1.385 . S
C2403 H2389 0.931 . S
C2403 C2402 1.385 . S
C2403 C2404 1.389 . S
C2404 C2403 1.389 . S
C2404 C2405 1.387 . S
C2405 H2390 0.930 . S
C2405 C2400 1.390 . S
C2405 C2404 1.387 . S
H2406 C2418 0.930 . S
H2407 C2420 0.930 . S
H2408 C2421 0.930 . S
H2409 C2425 0.959 . S
H2410 C2425 0.959 . S
H2411 C2425 0.961 . S
H2412 C2426 0.960 . S
H2413 C2426 0.961 . S
H2414 C2426 0.959 . S
H2415 C2429 0.929 . S
H2416 C2430 0.931 . S
H2417 C2432 0.930 . S
C2418 H2406 0.930 . S
C2418 C2419 1.399 . S
C2418 C2423 1.399 . S
C2419 C2418 1.399 . S
C2419 C2420 1.376 . S
C2420 H2407 0.930 . S
C2420 C2419 1.376 . S
C2420 C2421 1.388 . S
C2421 H2408 0.930 . S
C2421 C2420 1.388 . S
C2421 C2422 1.390 . S
C2422 C2421 1.390 . S
C2422 C2423 1.394 . S
C2422 C2428 1.465 . S
C2423 C2418 1.399 . S
C2423 C2422 1.394 . S
C2423 C2424 1.516 . S
C2424 C2423 1.516 . S
C2424 C2425 1.502 . S
C2424 C2426 1.561 . S
C2424 C2427 1.526 . S
C2425 H2409 0.959 . S
C2425 H2410 0.959 . S
C2425 H2411 0.961 . S
C2425 C2424 1.502 . S
C2426 H2412 0.960 . S
C2426 H2413 0.961 . S
C2426 H2414 0.959 . S
C2426 C2424 1.561 . S
C2427 C2424 1.526 . S
C2427 C2428 1.396 . S
C2427 C2432 1.390 . S
C2428 C2422 1.465 . S
C2428 C2427 1.396 . S
C2428 C2429 1.399 . S
C2429 H2415 0.929 . S
C2429 C2428 1.399 . S
C2429 C2430 1.385 . S
C2430 H2416 0.931 . S
C2430 C2429 1.385 . S
C2430 C2431 1.389 . S
C2431 C2430 1.389 . S
C2431 C2432 1.387 . S
C2432 H2417 0.930 . S
C2432 C2427 1.390 . S
C2432 C2431 1.387 . S
H2433 C2445 0.930 . S
H2434 C2447 0.930 . S
H2435 C2448 0.930 . S
H2436 C2452 0.959 . S
H2437 C2452 0.959 . S
H2438 C2452 0.961 1_556 S
H2439 C2453 0.960 1_556 S
H2440 C2453 0.961 . S
H2441 C2453 0.959 . S
H2442 C2456 0.929 . S
H2443 C2457 0.931 . S
H2444 C2459 0.930 . S
C2445 H2433 0.930 . S
C2445 C2446 1.399 . S
C2445 C2450 1.399 . S
C2446 C2445 1.399 . S
C2446 C2447 1.376 . S
C2447 H2434 0.930 . S
C2447 C2446 1.376 . S
C2447 C2448 1.388 . S
C2448 H2435 0.930 . S
C2448 C2447 1.388 . S
C2448 C2449 1.390 . S
C2449 C2448 1.390 . S
C2449 C2450 1.394 . S
C2449 C2455 1.465 1_556 S
C2450 C2445 1.399 . S
C2450 C2449 1.394 . S
C2450 C2451 1.516 1_556 S
C2451 C2450 1.516 1_554 S
C2451 C2452 1.502 . S
C2451 C2453 1.561 . S
C2451 C2454 1.526 . S
C2452 H2436 0.959 . S
C2452 H2437 0.959 . S
C2452 H2438 0.961 1_554 S
C2452 C2451 1.502 . S
C2453 H2439 0.960 1_554 S
C2453 H2440 0.961 . S
C2453 H2441 0.959 . S
C2453 C2451 1.561 . S
C2454 C2451 1.526 . S
C2454 C2455 1.396 . S
C2454 C2459 1.390 . S
C2455 C2449 1.465 1_554 S
C2455 C2454 1.396 . S
C2455 C2456 1.399 . S
C2456 H2442 0.929 . S
C2456 C2455 1.399 . S
C2456 C2457 1.385 . S
C2457 H2443 0.931 . S
C2457 C2456 1.385 . S
C2457 C2458 1.389 . S
C2458 C2457 1.389 . S
C2458 C2459 1.387 . S
C2459 H2444 0.930 . S
C2459 C2454 1.390 . S
C2459 C2458 1.387 . S
H2460 C2472 0.930 . S
H2461 C2474 0.930 . S
H2462 C2475 0.930 . S
H2463 C2479 0.959 . S
H2464 C2479 0.959 . S
H2465 C2479 0.961 . S
H2466 C2480 0.960 . S
H2467 C2480 0.961 . S
H2468 C2480 0.959 . S
H2469 C2483 0.929 . S
H2470 C2484 0.931 . S
H2471 C2486 0.930 . S
C2472 H2460 0.930 . S
C2472 C2473 1.399 . S
C2472 C2477 1.399 . S
C2473 C2472 1.399 . S
C2473 C2474 1.376 . S
C2474 H2461 0.930 . S
C2474 C2473 1.376 . S
C2474 C2475 1.388 . S
C2475 H2462 0.930 . S
C2475 C2474 1.388 . S
C2475 C2476 1.390 . S
C2476 C2475 1.390 . S
C2476 C2477 1.394 . S
C2476 C2482 1.465 . S
C2477 C2472 1.399 . S
C2477 C2476 1.394 . S
C2477 C2478 1.516 . S
C2478 C2477 1.516 . S
C2478 C2479 1.502 . S
C2478 C2480 1.561 . S
C2478 C2481 1.526 . S
C2479 H2463 0.959 . S
C2479 H2464 0.959 . S
C2479 H2465 0.961 . S
C2479 C2478 1.502 . S
C2480 H2466 0.960 . S
C2480 H2467 0.961 . S
C2480 H2468 0.959 . S
C2480 C2478 1.561 . S
C2481 C2478 1.526 . S
C2481 C2482 1.396 . S
C2481 C2486 1.390 . S
C2482 C2476 1.465 . S
C2482 C2481 1.396 . S
C2482 C2483 1.399 . S
C2483 H2469 0.929 . S
C2483 C2482 1.399 . S
C2483 C2484 1.385 . S
C2484 H2470 0.931 . S
C2484 C2483 1.385 . S
C2484 C2485 1.389 . S
C2485 C2484 1.389 . S
C2485 C2486 1.387 . S
C2486 H2471 0.930 . S
C2486 C2481 1.390 . S
C2486 C2485 1.387 . S
H2487 C2499 0.930 . S
H2488 C2501 0.930 . S
H2489 C2502 0.930 . S
H2490 C2506 0.959 . S
H2491 C2506 0.959 . S
H2492 C2506 0.961 1_556 S
H2493 C2507 0.960 1_556 S
H2494 C2507 0.961 . S
H2495 C2507 0.959 . S
H2496 C2510 0.929 . S
H2497 C2511 0.931 . S
H2498 C2513 0.930 . S
C2499 H2487 0.930 . S
C2499 C2500 1.399 . S
C2499 C2504 1.399 . S
C2500 C2499 1.399 . S
C2500 C2501 1.376 . S
C2501 H2488 0.930 . S
C2501 C2500 1.376 . S
C2501 C2502 1.388 . S
C2502 H2489 0.930 . S
C2502 C2501 1.388 . S
C2502 C2503 1.390 . S
C2503 C2502 1.390 . S
C2503 C2504 1.394 . S
C2503 C2509 1.465 1_556 S
C2504 C2499 1.399 . S
C2504 C2503 1.394 . S
C2504 C2505 1.526 . S
C2505 C2504 1.526 . S
C2505 C2506 1.501 1_556 S
C2505 C2507 1.560 1_556 S
C2505 C2508 1.517 1_556 S
C2506 H2490 0.959 . S
C2506 H2491 0.959 . S
C2506 H2492 0.961 1_554 S
C2506 C2505 1.501 1_554 S
C2507 H2493 0.960 1_554 S
C2507 H2494 0.961 . S
C2507 H2495 0.959 . S
C2507 C2505 1.560 1_554 S
C2508 C2505 1.517 1_554 S
C2508 C2509 1.396 . S
C2508 C2513 1.390 . S
C2509 C2503 1.465 1_554 S
C2509 C2508 1.396 . S
C2509 C2510 1.399 . S
C2510 H2496 0.929 . S
C2510 C2509 1.399 . S
C2510 C2511 1.385 . S
C2511 H2497 0.931 . S
C2511 C2510 1.385 . S
C2511 C2512 1.389 . S
C2512 C2511 1.389 . S
C2512 C2513 1.387 . S
C2513 H2498 0.930 . S
C2513 C2508 1.390 . S
C2513 C2512 1.387 . S
H2514 C2526 0.930 . S
H2515 C2528 0.930 . S
H2516 C2529 0.930 . S
H2517 C2533 0.959 . S
H2518 C2533 0.959 . S
H2519 C2533 0.961 . S
H2520 C2534 0.960 . S
H2521 C2534 0.961 . S
H2522 C2534 0.959 . S
H2523 C2537 0.929 . S
H2524 C2538 0.931 . S
H2525 C2540 0.930 . S
C2526 H2514 0.930 . S
C2526 C2527 1.399 . S
C2526 C2531 1.399 . S
C2527 C2526 1.399 . S
C2527 C2528 1.376 . S
C2528 H2515 0.930 . S
C2528 C2527 1.376 . S
C2528 C2529 1.388 . S
C2529 H2516 0.930 . S
C2529 C2528 1.388 . S
C2529 C2530 1.390 . S
C2530 C2529 1.390 . S
C2530 C2531 1.394 . S
C2530 C2536 1.465 . S
C2531 C2526 1.399 . S
C2531 C2530 1.394 . S
C2531 C2532 1.516 . S
C2532 C2531 1.516 . S
C2532 C2533 1.502 . S
C2532 C2534 1.561 . S
C2532 C2535 1.526 . S
C2533 H2517 0.959 . S
C2533 H2518 0.959 . S
C2533 H2519 0.961 . S
C2533 C2532 1.502 . S
C2534 H2520 0.960 . S
C2534 H2521 0.961 . S
C2534 H2522 0.959 . S
C2534 C2532 1.561 . S
C2535 C2532 1.526 . S
C2535 C2536 1.396 . S
C2535 C2540 1.390 . S
C2536 C2530 1.465 . S
C2536 C2535 1.396 . S
C2536 C2537 1.399 . S
C2537 H2523 0.929 . S
C2537 C2536 1.399 . S
C2537 C2538 1.385 . S
C2538 H2524 0.931 . S
C2538 C2537 1.385 . S
C2538 C2539 1.389 . S
C2539 C2538 1.389 . S
C2539 C2540 1.387 . S
C2540 H2525 0.930 . S
C2540 C2535 1.390 . S
C2540 C2539 1.387 . S
H2541 C2553 0.930 . S
H2542 C2555 0.930 . S
H2543 C2556 0.930 . S
H2544 C2560 0.959 . S
H2545 C2560 0.959 . S
H2546 C2560 0.961 . S
H2547 C2561 0.960 . S
H2548 C2561 0.961 . S
H2549 C2561 0.959 . S
H2550 C2564 0.929 . S
H2551 C2565 0.931 . S
H2552 C2567 0.930 . S
C2553 H2541 0.930 . S
C2553 C2554 1.399 . S
C2553 C2558 1.399 . S
C2554 C2553 1.399 . S
C2554 C2555 1.376 . S
C2555 H2542 0.930 . S
C2555 C2554 1.376 . S
C2555 C2556 1.388 . S
C2556 H2543 0.930 . S
C2556 C2555 1.388 . S
C2556 C2557 1.390 . S
C2557 C2556 1.390 . S
C2557 C2558 1.394 . S
C2557 C2563 1.465 . S
C2558 C2553 1.399 . S
C2558 C2557 1.394 . S
C2558 C2559 1.516 . S
C2559 C2558 1.516 . S
C2559 C2560 1.502 . S
C2559 C2561 1.561 . S
C2559 C2562 1.526 . S
C2560 H2544 0.959 . S
C2560 H2545 0.959 . S
C2560 H2546 0.961 . S
C2560 C2559 1.502 . S
C2561 H2547 0.960 . S
C2561 H2548 0.961 . S
C2561 H2549 0.959 . S
C2561 C2559 1.561 . S
C2562 C2559 1.526 . S
C2562 C2563 1.396 . S
C2562 C2567 1.390 . S
C2563 C2557 1.465 . S
C2563 C2562 1.396 . S
C2563 C2564 1.399 . S
C2564 H2550 0.929 . S
C2564 C2563 1.399 . S
C2564 C2565 1.385 . S
C2565 H2551 0.931 . S
C2565 C2564 1.385 . S
C2565 C2566 1.389 . S
C2566 C2565 1.389 . S
C2566 C2567 1.387 . S
C2567 H2552 0.930 . S
C2567 C2562 1.390 . S
C2567 C2566 1.387 . S
H2568 C2580 0.930 . S
H2569 C2582 0.930 . S
H2570 C2583 0.930 . S
H2571 C2587 0.959 . S
H2572 C2587 0.959 . S
H2573 C2587 0.961 . S
H2574 C2588 0.960 . S
H2575 C2588 0.961 . S
H2576 C2588 0.959 . S
H2577 C2591 0.929 . S
H2578 C2592 0.931 . S
H2579 C2594 0.930 . S
C2580 H2568 0.930 . S
C2580 C2581 1.399 . S
C2580 C2585 1.399 . S
C2581 C2580 1.399 . S
C2581 C2582 1.376 . S
C2582 H2569 0.930 . S
C2582 C2581 1.376 . S
C2582 C2583 1.388 . S
C2583 H2570 0.930 . S
C2583 C2582 1.388 . S
C2583 C2584 1.390 . S
C2584 C2583 1.390 . S
C2584 C2585 1.394 . S
C2584 C2590 1.465 . S
C2585 C2580 1.399 . S
C2585 C2584 1.394 . S
C2585 C2586 1.516 . S
C2586 C2585 1.516 . S
C2586 C2587 1.502 . S
C2586 C2588 1.561 . S
C2586 C2589 1.526 . S
C2587 H2571 0.959 . S
C2587 H2572 0.959 . S
C2587 H2573 0.961 . S
C2587 C2586 1.502 . S
C2588 H2574 0.960 . S
C2588 H2575 0.961 . S
C2588 H2576 0.959 . S
C2588 C2586 1.561 . S
C2589 C2586 1.526 . S
C2589 C2590 1.396 . S
C2589 C2594 1.390 . S
C2590 C2584 1.465 . S
C2590 C2589 1.396 . S
C2590 C2591 1.399 . S
C2591 H2577 0.929 . S
C2591 C2590 1.399 . S
C2591 C2592 1.385 . S
C2592 H2578 0.931 . S
C2592 C2591 1.385 . S
C2592 C2593 1.389 . S
C2593 C2592 1.389 . S
C2593 C2594 1.387 . S
C2594 H2579 0.930 . S
C2594 C2589 1.390 . S
C2594 C2593 1.387 . S
H2595 C2607 0.930 . S
H2596 C2609 0.930 . S
H2597 C2610 0.930 . S
H2598 C2614 0.959 . S
H2599 C2614 0.959 . S
H2600 C2614 0.961 . S
H2601 C2615 0.960 . S
H2602 C2615 0.961 . S
H2603 C2615 0.959 . S
H2604 C2618 0.929 . S
H2605 C2619 0.931 . S
H2606 C2621 0.930 . S
C2607 H2595 0.930 . S
C2607 C2608 1.399 . S
C2607 C2612 1.399 . S
C2608 C2607 1.399 . S
C2608 C2609 1.376 . S
C2609 H2596 0.930 . S
C2609 C2608 1.376 . S
C2609 C2610 1.388 . S
C2610 H2597 0.930 . S
C2610 C2609 1.388 . S
C2610 C2611 1.390 . S
C2611 C2610 1.390 . S
C2611 C2612 1.394 . S
C2611 C2617 1.465 . S
C2612 C2607 1.399 . S
C2612 C2611 1.394 . S
C2612 C2613 1.516 . S
C2613 C2612 1.516 . S
C2613 C2614 1.502 . S
C2613 C2615 1.561 . S
C2613 C2616 1.526 . S
C2614 H2598 0.959 . S
C2614 H2599 0.959 . S
C2614 H2600 0.961 . S
C2614 C2613 1.502 . S
C2615 H2601 0.960 . S
C2615 H2602 0.961 . S
C2615 H2603 0.959 . S
C2615 C2613 1.561 . S
C2616 C2613 1.526 . S
C2616 C2617 1.396 . S
C2616 C2621 1.390 . S
C2617 C2611 1.465 . S
C2617 C2616 1.396 . S
C2617 C2618 1.399 . S
C2618 H2604 0.929 . S
C2618 C2617 1.399 . S
C2618 C2619 1.385 . S
C2619 H2605 0.931 . S
C2619 C2618 1.385 . S
C2619 C2620 1.389 . S
C2620 C2619 1.389 . S
C2620 C2621 1.387 . S
C2621 H2606 0.930 . S
C2621 C2616 1.390 . S
C2621 C2620 1.387 . S
H2622 C2634 0.930 . S
H2623 C2636 0.930 . S
H2624 C2637 0.930 . S
H2625 C2641 0.959 . S
H2626 C2641 0.959 . S
H2627 C2641 0.961 . S
H2628 C2642 0.960 . S
H2629 C2642 0.961 . S
H2630 C2642 0.959 . S
H2631 C2645 0.929 . S
H2632 C2646 0.931 . S
H2633 C2648 0.930 . S
C2634 H2622 0.930 . S
C2634 C2635 1.399 . S
C2634 C2639 1.399 . S
C2635 C2634 1.399 . S
C2635 C2636 1.376 . S
C2636 H2623 0.930 . S
C2636 C2635 1.376 . S
C2636 C2637 1.388 . S
C2637 H2624 0.930 . S
C2637 C2636 1.388 . S
C2637 C2638 1.390 . S
C2638 C2637 1.390 . S
C2638 C2639 1.394 . S
C2638 C2644 1.465 . S
C2639 C2634 1.399 . S
C2639 C2638 1.394 . S
C2639 C2640 1.516 . S
C2640 C2639 1.516 . S
C2640 C2641 1.502 . S
C2640 C2642 1.561 . S
C2640 C2643 1.526 . S
C2641 H2625 0.959 . S
C2641 H2626 0.959 . S
C2641 H2627 0.961 . S
C2641 C2640 1.502 . S
C2642 H2628 0.960 . S
C2642 H2629 0.961 . S
C2642 H2630 0.959 . S
C2642 C2640 1.561 . S
C2643 C2640 1.526 . S
C2643 C2644 1.396 . S
C2643 C2648 1.390 . S
C2644 C2638 1.465 . S
C2644 C2643 1.396 . S
C2644 C2645 1.399 . S
C2645 H2631 0.929 . S
C2645 C2644 1.399 . S
C2645 C2646 1.385 . S
C2646 H2632 0.931 . S
C2646 C2645 1.385 . S
C2646 C2647 1.389 . S
C2647 C2646 1.389 . S
C2647 C2648 1.387 . S
C2648 H2633 0.930 . S
C2648 C2643 1.390 . S
C2648 C2647 1.387 . S
H2649 C2661 0.930 . S
H2650 C2663 0.930 . S
H2651 C2664 0.930 . S
H2652 C2668 0.959 . S
H2653 C2668 0.959 . S
H2654 C2668 0.961 . S
H2655 C2669 0.960 . S
H2656 C2669 0.961 . S
H2657 C2669 0.959 . S
H2658 C2672 0.929 . S
H2659 C2673 0.931 . S
H2660 C2675 0.930 . S
C2661 H2649 0.930 . S
C2661 C2662 1.399 . S
C2661 C2666 1.399 . S
C2662 C2661 1.399 . S
C2662 C2663 1.376 . S
C2663 H2650 0.930 . S
C2663 C2662 1.376 . S
C2663 C2664 1.388 . S
C2664 H2651 0.930 . S
C2664 C2663 1.388 . S
C2664 C2665 1.390 . S
C2665 C2664 1.390 . S
C2665 C2666 1.394 . S
C2665 C2671 1.465 . S
C2666 C2661 1.399 . S
C2666 C2665 1.394 . S
C2666 C2667 1.516 . S
C2667 C2666 1.516 . S
C2667 C2668 1.502 . S
C2667 C2669 1.561 . S
C2667 C2670 1.526 . S
C2668 H2652 0.959 . S
C2668 H2653 0.959 . S
C2668 H2654 0.961 . S
C2668 C2667 1.502 . S
C2669 H2655 0.960 . S
C2669 H2656 0.961 . S
C2669 H2657 0.959 . S
C2669 C2667 1.561 . S
C2670 C2667 1.526 . S
C2670 C2671 1.396 . S
C2670 C2675 1.390 . S
C2671 C2665 1.465 . S
C2671 C2670 1.396 . S
C2671 C2672 1.399 . S
C2672 H2658 0.929 . S
C2672 C2671 1.399 . S
C2672 C2673 1.385 . S
C2673 H2659 0.931 . S
C2673 C2672 1.385 . S
C2673 C2674 1.389 . S
C2674 C2673 1.389 . S
C2674 C2675 1.387 . S
C2675 H2660 0.930 . S
C2675 C2670 1.390 . S
C2675 C2674 1.387 . S
H2676 C2688 0.930 . S
H2677 C2690 0.930 . S
H2678 C2691 0.930 . S
H2679 C2695 0.959 . S
H2680 C2695 0.959 . S
H2681 C2695 0.961 . S
H2682 C2696 0.960 . S
H2683 C2696 0.961 . S
H2684 C2696 0.959 . S
H2685 C2699 0.929 . S
H2686 C2700 0.931 . S
H2687 C2702 0.930 . S
C2688 H2676 0.930 . S
C2688 C2689 1.399 . S
C2688 C2693 1.399 . S
C2689 C2688 1.399 . S
C2689 C2690 1.376 . S
C2690 H2677 0.930 . S
C2690 C2689 1.376 . S
C2690 C2691 1.388 . S
C2691 H2678 0.930 . S
C2691 C2690 1.388 . S
C2691 C2692 1.390 . S
C2692 C2691 1.390 . S
C2692 C2693 1.394 . S
C2692 C2698 1.465 . S
C2693 C2688 1.399 . S
C2693 C2692 1.394 . S
C2693 C2694 1.516 . S
C2694 C2693 1.516 . S
C2694 C2695 1.502 . S
C2694 C2696 1.561 . S
C2694 C2697 1.526 . S
C2695 H2679 0.959 . S
C2695 H2680 0.959 . S
C2695 H2681 0.961 . S
C2695 C2694 1.502 . S
C2696 H2682 0.960 . S
C2696 H2683 0.961 . S
C2696 H2684 0.959 . S
C2696 C2694 1.561 . S
C2697 C2694 1.526 . S
C2697 C2698 1.396 . S
C2697 C2702 1.390 . S
C2698 C2692 1.465 . S
C2698 C2697 1.396 . S
C2698 C2699 1.399 . S
C2699 H2685 0.929 . S
C2699 C2698 1.399 . S
C2699 C2700 1.385 . S
C2700 H2686 0.931 . S
C2700 C2699 1.385 . S
C2700 C2701 1.389 . S
C2701 C2700 1.389 . S
C2701 C2702 1.387 . S
C2702 H2687 0.930 . S
C2702 C2697 1.390 . S
C2702 C2701 1.387 . S
H2703 C2715 0.930 . S
H2704 C2717 0.930 . S
H2705 C2718 0.930 . S
H2706 C2722 0.959 . S
H2707 C2722 0.959 . S
H2708 C2722 0.961 . S
H2709 C2723 0.960 . S
H2710 C2723 0.961 . S
H2711 C2723 0.959 . S
H2712 C2726 0.929 . S
H2713 C2727 0.931 . S
H2714 C2729 0.930 . S
C2715 H2703 0.930 . S
C2715 C2716 1.399 . S
C2715 C2720 1.399 . S
C2716 C2715 1.399 . S
C2716 C2717 1.376 . S
C2717 H2704 0.930 . S
C2717 C2716 1.376 . S
C2717 C2718 1.388 . S
C2718 H2705 0.930 . S
C2718 C2717 1.388 . S
C2718 C2719 1.390 . S
C2719 C2718 1.390 . S
C2719 C2720 1.394 . S
C2719 C2725 1.465 . S
C2720 C2715 1.399 . S
C2720 C2719 1.394 . S
C2720 C2721 1.516 . S
C2721 C2720 1.516 . S
C2721 C2722 1.502 . S
C2721 C2723 1.561 . S
C2721 C2724 1.526 . S
C2722 H2706 0.959 . S
C2722 H2707 0.959 . S
C2722 H2708 0.961 . S
C2722 C2721 1.502 . S
C2723 H2709 0.960 . S
C2723 H2710 0.961 . S
C2723 H2711 0.959 . S
C2723 C2721 1.561 . S
C2724 C2721 1.526 . S
C2724 C2725 1.396 . S
C2724 C2729 1.390 . S
C2725 C2719 1.465 . S
C2725 C2724 1.396 . S
C2725 C2726 1.399 . S
C2726 H2712 0.929 . S
C2726 C2725 1.399 . S
C2726 C2727 1.385 . S
C2727 H2713 0.931 . S
C2727 C2726 1.385 . S
C2727 C2728 1.389 . S
C2728 C2727 1.389 . S
C2728 C2729 1.387 . S
C2729 H2714 0.930 . S
C2729 C2724 1.390 . S
C2729 C2728 1.387 . S
H2730 C2742 0.930 . S
H2731 C2744 0.930 . S
H2732 C2745 0.930 . S
H2733 C2749 0.959 . S
H2734 C2749 0.959 . S
H2735 C2749 0.961 . S
H2736 C2750 0.960 . S
H2737 C2750 0.961 . S
H2738 C2750 0.959 . S
H2739 C2753 0.929 . S
H2740 C2754 0.931 . S
H2741 C2756 0.930 . S
C2742 H2730 0.930 . S
C2742 C2743 1.399 . S
C2742 C2747 1.399 . S
C2743 C2742 1.399 . S
C2743 C2744 1.376 . S
C2744 H2731 0.930 . S
C2744 C2743 1.376 . S
C2744 C2745 1.388 . S
C2745 H2732 0.930 . S
C2745 C2744 1.388 . S
C2745 C2746 1.390 . S
C2746 C2745 1.390 . S
C2746 C2747 1.394 . S
C2746 C2752 1.465 . S
C2747 C2742 1.399 . S
C2747 C2746 1.394 . S
C2747 C2748 1.516 . S
C2748 C2747 1.516 . S
C2748 C2749 1.502 . S
C2748 C2750 1.561 . S
C2748 C2751 1.526 . S
C2749 H2733 0.959 . S
C2749 H2734 0.959 . S
C2749 H2735 0.961 . S
C2749 C2748 1.502 . S
C2750 H2736 0.960 . S
C2750 H2737 0.961 . S
C2750 H2738 0.959 . S
C2750 C2748 1.561 . S
C2751 C2748 1.526 . S
C2751 C2752 1.396 . S
C2751 C2756 1.390 . S
C2752 C2746 1.465 . S
C2752 C2751 1.396 . S
C2752 C2753 1.399 . S
C2753 H2739 0.929 . S
C2753 C2752 1.399 . S
C2753 C2754 1.385 . S
C2754 H2740 0.931 . S
C2754 C2753 1.385 . S
C2754 C2755 1.389 . S
C2755 C2754 1.389 . S
C2755 C2756 1.387 . S
C2756 H2741 0.930 . S
C2756 C2751 1.390 . S
C2756 C2755 1.387 . S
H2757 C2769 0.930 . S
H2758 C2771 0.930 . S
H2759 C2772 0.930 . S
H2760 C2776 0.959 . S
H2761 C2776 0.959 . S
H2762 C2776 0.961 . S
H2763 C2777 0.960 . S
H2764 C2777 0.961 . S
H2765 C2777 0.959 . S
H2766 C2780 0.929 . S
H2767 C2781 0.931 . S
H2768 C2783 0.930 . S
C2769 H2757 0.930 . S
C2769 C2770 1.399 . S
C2769 C2774 1.399 . S
C2770 C2769 1.399 . S
C2770 C2771 1.376 . S
C2771 H2758 0.930 . S
C2771 C2770 1.376 . S
C2771 C2772 1.388 . S
C2772 H2759 0.930 . S
C2772 C2771 1.388 . S
C2772 C2773 1.390 . S
C2773 C2772 1.390 . S
C2773 C2774 1.394 . S
C2773 C2779 1.465 . S
C2774 C2769 1.399 . S
C2774 C2773 1.394 . S
C2774 C2775 1.516 . S
C2775 C2774 1.516 . S
C2775 C2776 1.502 . S
C2775 C2777 1.561 . S
C2775 C2778 1.526 . S
C2776 H2760 0.959 . S
C2776 H2761 0.959 . S
C2776 H2762 0.961 . S
C2776 C2775 1.502 . S
C2777 H2763 0.960 . S
C2777 H2764 0.961 . S
C2777 H2765 0.959 . S
C2777 C2775 1.561 . S
C2778 C2775 1.526 . S
C2778 C2779 1.396 . S
C2778 C2783 1.390 . S
C2779 C2773 1.465 . S
C2779 C2778 1.396 . S
C2779 C2780 1.399 . S
C2780 H2766 0.929 . S
C2780 C2779 1.399 . S
C2780 C2781 1.385 . S
C2781 H2767 0.931 . S
C2781 C2780 1.385 . S
C2781 C2782 1.389 . S
C2782 C2781 1.389 . S
C2782 C2783 1.387 . S
C2783 H2768 0.930 . S
C2783 C2778 1.390 . S
C2783 C2782 1.387 . S
H2784 C2796 0.930 . S
H2785 C2798 0.930 . S
H2786 C2799 0.930 . S
H2787 C2803 0.959 . S
H2788 C2803 0.959 . S
H2789 C2803 0.961 . S
H2790 C2804 0.960 . S
H2791 C2804 0.961 . S
H2792 C2804 0.959 . S
H2793 C2807 0.929 . S
H2794 C2808 0.931 . S
H2795 C2810 0.930 . S
C2796 H2784 0.930 . S
C2796 C2797 1.399 . S
C2796 C2801 1.399 . S
C2797 C2796 1.399 . S
C2797 C2798 1.376 . S
C2798 H2785 0.930 . S
C2798 C2797 1.376 . S
C2798 C2799 1.388 . S
C2799 H2786 0.930 . S
C2799 C2798 1.388 . S
C2799 C2800 1.390 . S
C2800 C2799 1.390 . S
C2800 C2801 1.394 . S
C2800 C2806 1.465 . S
C2801 C2796 1.399 . S
C2801 C2800 1.394 . S
C2801 C2802 1.516 . S
C2802 C2801 1.516 . S
C2802 C2803 1.502 . S
C2802 C2804 1.561 . S
C2802 C2805 1.526 . S
C2803 H2787 0.959 . S
C2803 H2788 0.959 . S
C2803 H2789 0.961 . S
C2803 C2802 1.502 . S
C2804 H2790 0.960 . S
C2804 H2791 0.961 . S
C2804 H2792 0.959 . S
C2804 C2802 1.561 . S
C2805 C2802 1.526 . S
C2805 C2806 1.396 . S
C2805 C2810 1.390 . S
C2806 C2800 1.465 . S
C2806 C2805 1.396 . S
C2806 C2807 1.399 . S
C2807 H2793 0.929 . S
C2807 C2806 1.399 . S
C2807 C2808 1.385 . S
C2808 H2794 0.931 . S
C2808 C2807 1.385 . S
C2808 C2809 1.389 . S
C2809 C2808 1.389 . S
C2809 C2810 1.387 . S
C2810 H2795 0.930 . S
C2810 C2805 1.390 . S
C2810 C2809 1.387 . S
H2811 C2823 0.930 . S
H2812 C2825 0.930 . S
H2813 C2826 0.930 . S
H2814 C2830 0.959 . S
H2815 C2830 0.959 . S
H2816 C2830 0.961 . S
H2817 C2831 0.960 . S
H2818 C2831 0.961 . S
H2819 C2831 0.959 . S
H2820 C2834 0.929 . S
H2821 C2835 0.931 . S
H2822 C2837 0.930 . S
C2823 H2811 0.930 . S
C2823 C2824 1.399 . S
C2823 C2828 1.399 . S
C2824 C2823 1.399 . S
C2824 C2825 1.376 . S
C2825 H2812 0.930 . S
C2825 C2824 1.376 . S
C2825 C2826 1.388 . S
C2826 H2813 0.930 . S
C2826 C2825 1.388 . S
C2826 C2827 1.390 . S
C2827 C2826 1.390 . S
C2827 C2828 1.394 . S
C2827 C2833 1.465 . S
C2828 C2823 1.399 . S
C2828 C2827 1.394 . S
C2828 C2829 1.516 . S
C2829 C2828 1.516 . S
C2829 C2830 1.502 . S
C2829 C2831 1.561 . S
C2829 C2832 1.526 . S
C2830 H2814 0.959 . S
C2830 H2815 0.959 . S
C2830 H2816 0.961 . S
C2830 C2829 1.502 . S
C2831 H2817 0.960 . S
C2831 H2818 0.961 . S
C2831 H2819 0.959 . S
C2831 C2829 1.561 . S
C2832 C2829 1.526 . S
C2832 C2833 1.396 . S
C2832 C2837 1.390 . S
C2833 C2827 1.465 . S
C2833 C2832 1.396 . S
C2833 C2834 1.399 . S
C2834 H2820 0.929 . S
C2834 C2833 1.399 . S
C2834 C2835 1.385 . S
C2835 H2821 0.931 . S
C2835 C2834 1.385 . S
C2835 C2836 1.389 . S
C2836 C2835 1.389 . S
C2836 C2837 1.387 . S
C2837 H2822 0.930 . S
C2837 C2832 1.390 . S
C2837 C2836 1.387 . S
H2838 C2850 0.930 . S
H2839 C2852 0.930 . S
H2840 C2853 0.930 . S
H2841 C2857 0.959 . S
H2842 C2857 0.959 . S
H2843 C2857 0.961 . S
H2844 C2858 0.960 . S
H2845 C2858 0.961 . S
H2846 C2858 0.959 . S
H2847 C2861 0.929 . S
H2848 C2862 0.931 . S
H2849 C2864 0.930 . S
C2850 H2838 0.930 . S
C2850 C2851 1.399 . S
C2850 C2855 1.399 . S
C2851 C2850 1.399 . S
C2851 C2852 1.376 . S
C2852 H2839 0.930 . S
C2852 C2851 1.376 . S
C2852 C2853 1.388 . S
C2853 H2840 0.930 . S
C2853 C2852 1.388 . S
C2853 C2854 1.390 . S
C2854 C2853 1.390 . S
C2854 C2855 1.394 . S
C2854 C2860 1.465 . S
C2855 C2850 1.399 . S
C2855 C2854 1.394 . S
C2855 C2856 1.516 . S
C2856 C2855 1.516 . S
C2856 C2857 1.502 . S
C2856 C2858 1.561 . S
C2856 C2859 1.526 . S
C2857 H2841 0.959 . S
C2857 H2842 0.959 . S
C2857 H2843 0.961 . S
C2857 C2856 1.502 . S
C2858 H2844 0.960 . S
C2858 H2845 0.961 . S
C2858 H2846 0.959 . S
C2858 C2856 1.561 . S
C2859 C2856 1.526 . S
C2859 C2860 1.396 . S
C2859 C2864 1.390 . S
C2860 C2854 1.465 . S
C2860 C2859 1.396 . S
C2860 C2861 1.399 . S
C2861 H2847 0.929 . S
C2861 C2860 1.399 . S
C2861 C2862 1.385 . S
C2862 H2848 0.931 . S
C2862 C2861 1.385 . S
C2862 C2863 1.389 . S
C2863 C2862 1.389 . S
C2863 C2864 1.387 . S
C2864 H2849 0.930 . S
C2864 C2859 1.390 . S
C2864 C2863 1.387 . S
H2865 C2877 0.930 . S
H2866 C2879 0.930 . S
H2867 C2880 0.930 . S
H2868 C2884 0.959 . S
H2869 C2884 0.959 . S
H2870 C2884 0.961 . S
H2871 C2885 0.960 . S
H2872 C2885 0.961 . S
H2873 C2885 0.959 . S
H2874 C2888 0.929 . S
H2875 C2889 0.931 . S
H2876 C2891 0.930 . S
C2877 H2865 0.930 . S
C2877 C2878 1.399 . S
C2877 C2882 1.399 . S
C2878 C2877 1.399 . S
C2878 C2879 1.376 . S
C2879 H2866 0.930 . S
C2879 C2878 1.376 . S
C2879 C2880 1.388 . S
C2880 H2867 0.930 . S
C2880 C2879 1.388 . S
C2880 C2881 1.390 . S
C2881 C2880 1.390 . S
C2881 C2882 1.394 . S
C2881 C2887 1.465 . S
C2882 C2877 1.399 . S
C2882 C2881 1.394 . S
C2882 C2883 1.516 . S
C2883 C2882 1.516 . S
C2883 C2884 1.502 . S
C2883 C2885 1.561 . S
C2883 C2886 1.526 . S
C2884 H2868 0.959 . S
C2884 H2869 0.959 . S
C2884 H2870 0.961 . S
C2884 C2883 1.502 . S
C2885 H2871 0.960 . S
C2885 H2872 0.961 . S
C2885 H2873 0.959 . S
C2885 C2883 1.561 . S
C2886 C2883 1.526 . S
C2886 C2887 1.396 . S
C2886 C2891 1.390 . S
C2887 C2881 1.465 . S
C2887 C2886 1.396 . S
C2887 C2888 1.399 . S
C2888 H2874 0.929 . S
C2888 C2887 1.399 . S
C2888 C2889 1.385 . S
C2889 H2875 0.931 . S
C2889 C2888 1.385 . S
C2889 C2890 1.389 . S
C2890 C2889 1.389 . S
C2890 C2891 1.387 . S
C2891 H2876 0.930 . S
C2891 C2886 1.390 . S
C2891 C2890 1.387 . S
H2892 C2904 0.930 . S
H2893 C2906 0.930 . S
H2894 C2907 0.930 . S
H2895 C2911 0.959 . S
H2896 C2911 0.959 . S
H2897 C2911 0.961 . S
H2898 C2912 0.960 . S
H2899 C2912 0.961 . S
H2900 C2912 0.959 . S
H2901 C2915 0.929 . S
H2902 C2916 0.931 . S
H2903 C2918 0.930 . S
C2904 H2892 0.930 . S
C2904 C2905 1.399 . S
C2904 C2909 1.399 . S
C2905 C2904 1.399 . S
C2905 C2906 1.376 . S
C2906 H2893 0.930 . S
C2906 C2905 1.376 . S
C2906 C2907 1.388 . S
C2907 H2894 0.930 . S
C2907 C2906 1.388 . S
C2907 C2908 1.390 . S
C2908 C2907 1.390 . S
C2908 C2909 1.394 . S
C2908 C2914 1.465 . S
C2909 C2904 1.399 . S
C2909 C2908 1.394 . S
C2909 C2910 1.516 . S
C2910 C2909 1.516 . S
C2910 C2911 1.502 . S
C2910 C2912 1.561 . S
C2910 C2913 1.526 . S
C2911 H2895 0.959 . S
C2911 H2896 0.959 . S
C2911 H2897 0.961 . S
C2911 C2910 1.502 . S
C2912 H2898 0.960 . S
C2912 H2899 0.961 . S
C2912 H2900 0.959 . S
C2912 C2910 1.561 . S
C2913 C2910 1.526 . S
C2913 C2914 1.396 . S
C2913 C2918 1.390 . S
C2914 C2908 1.465 . S
C2914 C2913 1.396 . S
C2914 C2915 1.399 . S
C2915 H2901 0.929 . S
C2915 C2914 1.399 . S
C2915 C2916 1.385 . S
C2916 H2902 0.931 . S
C2916 C2915 1.385 . S
C2916 C2917 1.389 . S
C2917 C2916 1.389 . S
C2917 C2918 1.387 . S
C2918 H2903 0.930 . S
C2918 C2913 1.390 . S
C2918 C2917 1.387 . S
H2919 C2931 0.930 . S
H2920 C2933 0.930 . S
H2921 C2934 0.930 . S
H2922 C2938 0.959 . S
H2923 C2938 0.959 . S
H2924 C2938 0.961 . S
H2925 C2939 0.960 . S
H2926 C2939 0.961 . S
H2927 C2939 0.959 . S
H2928 C2942 0.929 . S
H2929 C2943 0.931 . S
H2930 C2945 0.930 . S
C2931 H2919 0.930 . S
C2931 C2932 1.399 . S
C2931 C2936 1.399 . S
C2932 C2931 1.399 . S
C2932 C2933 1.376 . S
C2933 H2920 0.930 . S
C2933 C2932 1.376 . S
C2933 C2934 1.388 . S
C2934 H2921 0.930 . S
C2934 C2933 1.388 . S
C2934 C2935 1.390 . S
C2935 C2934 1.390 . S
C2935 C2936 1.394 . S
C2935 C2941 1.465 . S
C2936 C2931 1.399 . S
C2936 C2935 1.394 . S
C2936 C2937 1.516 . S
C2937 C2936 1.516 . S
C2937 C2938 1.502 . S
C2937 C2939 1.561 . S
C2937 C2940 1.526 . S
C2938 H2922 0.959 . S
C2938 H2923 0.959 . S
C2938 H2924 0.961 . S
C2938 C2937 1.502 . S
C2939 H2925 0.960 . S
C2939 H2926 0.961 . S
C2939 H2927 0.959 . S
C2939 C2937 1.561 . S
C2940 C2937 1.526 . S
C2940 C2941 1.396 . S
C2940 C2945 1.390 . S
C2941 C2935 1.465 . S
C2941 C2940 1.396 . S
C2941 C2942 1.399 . S
C2942 H2928 0.929 . S
C2942 C2941 1.399 . S
C2942 C2943 1.385 . S
C2943 H2929 0.931 . S
C2943 C2942 1.385 . S
C2943 C2944 1.389 . S
C2944 C2943 1.389 . S
C2944 C2945 1.387 . S
C2945 H2930 0.930 . S
C2945 C2940 1.390 . S
C2945 C2944 1.387 . S
H2946 C2958 0.930 . S
H2947 C2960 0.930 . S
H2948 C2961 0.930 . S
H2949 C2965 0.959 . S
H2950 C2965 0.959 . S
H2951 C2965 0.961 . S
H2952 C2966 0.960 . S
H2953 C2966 0.961 . S
H2954 C2966 0.959 . S
H2955 C2969 0.929 . S
H2956 C2970 0.931 . S
H2957 C2972 0.930 . S
C2958 H2946 0.930 . S
C2958 C2959 1.399 . S
C2958 C2963 1.399 . S
C2959 C2958 1.399 . S
C2959 C2960 1.376 . S
C2960 H2947 0.930 . S
C2960 C2959 1.376 . S
C2960 C2961 1.388 . S
C2961 H2948 0.930 . S
C2961 C2960 1.388 . S
C2961 C2962 1.390 . S
C2962 C2961 1.390 . S
C2962 C2963 1.394 . S
C2962 C2968 1.465 . S
C2963 C2958 1.399 . S
C2963 C2962 1.394 . S
C2963 C2964 1.516 . S
C2964 C2963 1.516 . S
C2964 C2965 1.502 . S
C2964 C2966 1.561 . S
C2964 C2967 1.526 . S
C2965 H2949 0.959 . S
C2965 H2950 0.959 . S
C2965 H2951 0.961 . S
C2965 C2964 1.502 . S
C2966 H2952 0.960 . S
C2966 H2953 0.961 . S
C2966 H2954 0.959 . S
C2966 C2964 1.561 . S
C2967 C2964 1.526 . S
C2967 C2968 1.396 . S
C2967 C2972 1.390 . S
C2968 C2962 1.465 . S
C2968 C2967 1.396 . S
C2968 C2969 1.399 . S
C2969 H2955 0.929 . S
C2969 C2968 1.399 . S
C2969 C2970 1.385 . S
C2970 H2956 0.931 . S
C2970 C2969 1.385 . S
C2970 C2971 1.389 . S
C2971 C2970 1.389 . S
C2971 C2972 1.387 . S
C2972 H2957 0.930 . S
C2972 C2967 1.390 . S
C2972 C2971 1.387 . S
H2973 C2985 0.930 . S
H2974 C2987 0.930 . S
H2975 C2988 0.930 . S
H2976 C2992 0.959 . S
H2977 C2992 0.959 . S
H2978 C2992 0.961 . S
H2979 C2993 0.960 . S
H2980 C2993 0.961 . S
H2981 C2993 0.959 . S
H2982 C2996 0.929 . S
H2983 C2997 0.931 . S
H2984 C2999 0.930 . S
C2985 H2973 0.930 . S
C2985 C2986 1.399 . S
C2985 C2990 1.399 . S
C2986 C2985 1.399 . S
C2986 C2987 1.376 . S
C2987 H2974 0.930 . S
C2987 C2986 1.376 . S
C2987 C2988 1.388 . S
C2988 H2975 0.930 . S
C2988 C2987 1.388 . S
C2988 C2989 1.390 . S
C2989 C2988 1.390 . S
C2989 C2990 1.394 . S
C2989 C2995 1.465 . S
C2990 C2985 1.399 . S
C2990 C2989 1.394 . S
C2990 C2991 1.516 . S
C2991 C2990 1.516 . S
C2991 C2992 1.502 . S
C2991 C2993 1.561 . S
C2991 C2994 1.526 . S
C2992 H2976 0.959 . S
C2992 H2977 0.959 . S
C2992 H2978 0.961 . S
C2992 C2991 1.502 . S
C2993 H2979 0.960 . S
C2993 H2980 0.961 . S
C2993 H2981 0.959 . S
C2993 C2991 1.561 . S
C2994 C2991 1.526 . S
C2994 C2995 1.396 . S
C2994 C2999 1.390 . S
C2995 C2989 1.465 . S
C2995 C2994 1.396 . S
C2995 C2996 1.399 . S
C2996 H2982 0.929 . S
C2996 C2995 1.399 . S
C2996 C2997 1.385 . S
C2997 H2983 0.931 . S
C2997 C2996 1.385 . S
C2997 C2998 1.389 . S
C2998 C2997 1.389 . S
C2998 C2999 1.387 . S
C2999 H2984 0.930 . S
C2999 C2994 1.390 . S
C2999 C2998 1.387 . S
H3000 C3012 0.930 . S
H3001 C3014 0.930 . S
H3002 C3015 0.930 . S
H3003 C3019 0.959 . S
H3004 C3019 0.959 . S
H3005 C3019 0.961 . S
H3006 C3020 0.960 . S
H3007 C3020 0.961 . S
H3008 C3020 0.959 . S
H3009 C3023 0.929 . S
H3010 C3024 0.931 . S
H3011 C3026 0.930 . S
C3012 H3000 0.930 . S
C3012 C3013 1.399 . S
C3012 C3017 1.399 . S
C3013 C3012 1.399 . S
C3013 C3014 1.376 . S
C3014 H3001 0.930 . S
C3014 C3013 1.376 . S
C3014 C3015 1.388 . S
C3015 H3002 0.930 . S
C3015 C3014 1.388 . S
C3015 C3016 1.390 . S
C3016 C3015 1.390 . S
C3016 C3017 1.394 . S
C3016 C3022 1.465 . S
C3017 C3012 1.399 . S
C3017 C3016 1.394 . S
C3017 C3018 1.516 . S
C3018 C3017 1.516 . S
C3018 C3019 1.502 . S
C3018 C3020 1.561 . S
C3018 C3021 1.526 . S
C3019 H3003 0.959 . S
C3019 H3004 0.959 . S
C3019 H3005 0.961 . S
C3019 C3018 1.502 . S
C3020 H3006 0.960 . S
C3020 H3007 0.961 . S
C3020 H3008 0.959 . S
C3020 C3018 1.561 . S
C3021 C3018 1.526 . S
C3021 C3022 1.396 . S
C3021 C3026 1.390 . S
C3022 C3016 1.465 . S
C3022 C3021 1.396 . S
C3022 C3023 1.399 . S
C3023 H3009 0.929 . S
C3023 C3022 1.399 . S
C3023 C3024 1.385 . S
C3024 H3010 0.931 . S
C3024 C3023 1.385 . S
C3024 C3025 1.389 . S
C3025 C3024 1.389 . S
C3025 C3026 1.387 . S
C3026 H3011 0.930 . S
C3026 C3021 1.390 . S
C3026 C3025 1.387 . S
H3027 C3039 0.930 . S
H3028 C3041 0.930 . S
H3029 C3042 0.930 . S
H3030 C3046 0.959 . S
H3031 C3046 0.959 . S
H3032 C3046 0.961 . S
H3033 C3047 0.960 . S
H3034 C3047 0.961 . S
H3035 C3047 0.959 . S
H3036 C3050 0.929 . S
H3037 C3051 0.931 . S
H3038 C3053 0.930 . S
C3039 H3027 0.930 . S
C3039 C3040 1.399 . S
C3039 C3044 1.399 . S
C3040 C3039 1.399 . S
C3040 C3041 1.376 . S
C3041 H3028 0.930 . S
C3041 C3040 1.376 . S
C3041 C3042 1.388 . S
C3042 H3029 0.930 . S
C3042 C3041 1.388 . S
C3042 C3043 1.390 . S
C3043 C3042 1.390 . S
C3043 C3044 1.394 . S
C3043 C3049 1.465 . S
C3044 C3039 1.399 . S
C3044 C3043 1.394 . S
C3044 C3045 1.516 . S
C3045 C3044 1.516 . S
C3045 C3046 1.502 . S
C3045 C3047 1.561 . S
C3045 C3048 1.526 . S
C3046 H3030 0.959 . S
C3046 H3031 0.959 . S
C3046 H3032 0.961 . S
C3046 C3045 1.502 . S
C3047 H3033 0.960 . S
C3047 H3034 0.961 . S
C3047 H3035 0.959 . S
C3047 C3045 1.561 . S
C3048 C3045 1.526 . S
C3048 C3049 1.396 . S
C3048 C3053 1.390 . S
C3049 C3043 1.465 . S
C3049 C3048 1.396 . S
C3049 C3050 1.399 . S
C3050 H3036 0.929 . S
C3050 C3049 1.399 . S
C3050 C3051 1.385 . S
C3051 H3037 0.931 . S
C3051 C3050 1.385 . S
C3051 C3052 1.389 . S
C3052 C3051 1.389 . S
C3052 C3053 1.387 . S
C3053 H3038 0.930 . S
C3053 C3048 1.390 . S
C3053 C3052 1.387 . S
H3054 C3066 0.930 . S
H3055 C3068 0.930 . S
H3056 C3069 0.930 . S
H3057 C3073 0.959 . S
H3058 C3073 0.959 . S
H3059 C3073 0.961 . S
H3060 C3074 0.960 . S
H3061 C3074 0.961 . S
H3062 C3074 0.959 . S
H3063 C3077 0.929 . S
H3064 C3078 0.931 . S
H3065 C3080 0.930 . S
C3066 H3054 0.930 . S
C3066 C3067 1.399 . S
C3066 C3071 1.399 . S
C3067 C3066 1.399 . S
C3067 C3068 1.376 . S
C3068 H3055 0.930 . S
C3068 C3067 1.376 . S
C3068 C3069 1.388 . S
C3069 H3056 0.930 . S
C3069 C3068 1.388 . S
C3069 C3070 1.390 . S
C3070 C3069 1.390 . S
C3070 C3071 1.394 . S
C3070 C3076 1.465 . S
C3071 C3066 1.399 . S
C3071 C3070 1.394 . S
C3071 C3072 1.516 . S
C3072 C3071 1.516 . S
C3072 C3073 1.502 . S
C3072 C3074 1.561 . S
C3072 C3075 1.526 . S
C3073 H3057 0.959 . S
C3073 H3058 0.959 . S
C3073 H3059 0.961 . S
C3073 C3072 1.502 . S
C3074 H3060 0.960 . S
C3074 H3061 0.961 . S
C3074 H3062 0.959 . S
C3074 C3072 1.561 . S
C3075 C3072 1.526 . S
C3075 C3076 1.396 . S
C3075 C3080 1.390 . S
C3076 C3070 1.465 . S
C3076 C3075 1.396 . S
C3076 C3077 1.399 . S
C3077 H3063 0.929 . S
C3077 C3076 1.399 . S
C3077 C3078 1.385 . S
C3078 H3064 0.931 . S
C3078 C3077 1.385 . S
C3078 C3079 1.389 . S
C3079 C3078 1.389 . S
C3079 C3080 1.387 . S
C3080 H3065 0.930 . S
C3080 C3075 1.390 . S
C3080 C3079 1.387 . S
H3081 C3093 0.930 . S
H3082 C3095 0.930 . S
H3083 C3096 0.930 . S
H3084 C3100 0.959 . S
H3085 C3100 0.959 . S
H3086 C3100 0.961 . S
H3087 C3101 0.960 . S
H3088 C3101 0.961 . S
H3089 C3101 0.959 . S
H3090 C3104 0.929 . S
H3091 C3105 0.931 . S
H3092 C3107 0.930 . S
C3093 H3081 0.930 . S
C3093 C3094 1.399 . S
C3093 C3098 1.399 . S
C3094 C3093 1.399 . S
C3094 C3095 1.376 . S
C3095 H3082 0.930 . S
C3095 C3094 1.376 . S
C3095 C3096 1.388 . S
C3096 H3083 0.930 . S
C3096 C3095 1.388 . S
C3096 C3097 1.390 . S
C3097 C3096 1.390 . S
C3097 C3098 1.394 . S
C3097 C3103 1.465 . S
C3098 C3093 1.399 . S
C3098 C3097 1.394 . S
C3098 C3099 1.516 . S
C3099 C3098 1.516 . S
C3099 C3100 1.502 . S
C3099 C3101 1.561 . S
C3099 C3102 1.526 . S
C3100 H3084 0.959 . S
C3100 H3085 0.959 . S
C3100 H3086 0.961 . S
C3100 C3099 1.502 . S
C3101 H3087 0.960 . S
C3101 H3088 0.961 . S
C3101 H3089 0.959 . S
C3101 C3099 1.561 . S
C3102 C3099 1.526 . S
C3102 C3103 1.396 . S
C3102 C3107 1.390 . S
C3103 C3097 1.465 . S
C3103 C3102 1.396 . S
C3103 C3104 1.399 . S
C3104 H3090 0.929 . S
C3104 C3103 1.399 . S
C3104 C3105 1.385 . S
C3105 H3091 0.931 . S
C3105 C3104 1.385 . S
C3105 C3106 1.389 . S
C3106 C3105 1.389 . S
C3106 C3107 1.387 . S
C3107 H3092 0.930 . S
C3107 C3102 1.390 . S
C3107 C3106 1.387 . S
H3108 C3120 0.930 . S
H3109 C3122 0.930 . S
H3110 C3123 0.930 . S
H3111 C3127 0.959 . S
H3112 C3127 0.959 . S
H3113 C3127 0.961 . S
H3114 C3128 0.960 . S
H3115 C3128 0.961 . S
H3116 C3128 0.959 . S
H3117 C3131 0.929 . S
H3118 C3132 0.931 . S
H3119 C3134 0.930 . S
C3120 H3108 0.930 . S
C3120 C3121 1.399 . S
C3120 C3125 1.399 . S
C3121 C3120 1.399 . S
C3121 C3122 1.376 . S
C3122 H3109 0.930 . S
C3122 C3121 1.376 . S
C3122 C3123 1.388 . S
C3123 H3110 0.930 . S
C3123 C3122 1.388 . S
C3123 C3124 1.390 . S
C3124 C3123 1.390 . S
C3124 C3125 1.394 . S
C3124 C3130 1.465 . S
C3125 C3120 1.399 . S
C3125 C3124 1.394 . S
C3125 C3126 1.516 . S
C3126 C3125 1.516 . S
C3126 C3127 1.502 . S
C3126 C3128 1.561 . S
C3126 C3129 1.526 . S
C3127 H3111 0.959 . S
C3127 H3112 0.959 . S
C3127 H3113 0.961 . S
C3127 C3126 1.502 . S
C3128 H3114 0.960 . S
C3128 H3115 0.961 . S
C3128 H3116 0.959 . S
C3128 C3126 1.561 . S
C3129 C3126 1.526 . S
C3129 C3130 1.396 . S
C3129 C3134 1.390 . S
C3130 C3124 1.465 . S
C3130 C3129 1.396 . S
C3130 C3131 1.399 . S
C3131 H3117 0.929 . S
C3131 C3130 1.399 . S
C3131 C3132 1.385 . S
C3132 H3118 0.931 . S
C3132 C3131 1.385 . S
C3132 C3133 1.389 . S
C3133 C3132 1.389 . S
C3133 C3134 1.387 . S
C3134 H3119 0.930 . S
C3134 C3129 1.390 . S
C3134 C3133 1.387 . S
H3135 C3147 0.930 . S
H3136 C3149 0.930 . S
H3137 C3150 0.930 . S
H3138 C3154 0.959 . S
H3139 C3154 0.959 . S
H3140 C3154 0.961 . S
H3141 C3155 0.960 . S
H3142 C3155 0.961 . S
H3143 C3155 0.959 . S
H3144 C3158 0.929 . S
H3145 C3159 0.931 . S
H3146 C3161 0.930 . S
C3147 H3135 0.930 . S
C3147 C3148 1.399 . S
C3147 C3152 1.399 . S
C3148 C3147 1.399 . S
C3148 C3149 1.376 . S
C3149 H3136 0.930 . S
C3149 C3148 1.376 . S
C3149 C3150 1.388 . S
C3150 H3137 0.930 . S
C3150 C3149 1.388 . S
C3150 C3151 1.390 . S
C3151 C3150 1.390 . S
C3151 C3152 1.394 . S
C3151 C3157 1.465 . S
C3152 C3147 1.399 . S
C3152 C3151 1.394 . S
C3152 C3153 1.516 . S
C3153 C3152 1.516 . S
C3153 C3154 1.502 . S
C3153 C3155 1.561 . S
C3153 C3156 1.526 . S
C3154 H3138 0.959 . S
C3154 H3139 0.959 . S
C3154 H3140 0.961 . S
C3154 C3153 1.502 . S
C3155 H3141 0.960 . S
C3155 H3142 0.961 . S
C3155 H3143 0.959 . S
C3155 C3153 1.561 . S
C3156 C3153 1.526 . S
C3156 C3157 1.396 . S
C3156 C3161 1.390 . S
C3157 C3151 1.465 . S
C3157 C3156 1.396 . S
C3157 C3158 1.399 . S
C3158 H3144 0.929 . S
C3158 C3157 1.399 . S
C3158 C3159 1.385 . S
C3159 H3145 0.931 . S
C3159 C3158 1.385 . S
C3159 C3160 1.389 . S
C3160 C3159 1.389 . S
C3160 C3161 1.387 . S
C3161 H3146 0.930 . S
C3161 C3156 1.390 . S
C3161 C3160 1.387 . S
H3162 C3174 0.930 . S
H3163 C3176 0.930 . S
H3164 C3177 0.930 . S
H3165 C3181 0.959 . S
H3166 C3181 0.959 . S
H3167 C3181 0.961 . S
H3168 C3182 0.960 . S
H3169 C3182 0.961 . S
H3170 C3182 0.959 . S
H3171 C3185 0.929 . S
H3172 C3186 0.931 . S
H3173 C3188 0.930 . S
C3174 H3162 0.930 . S
C3174 C3175 1.399 . S
C3174 C3179 1.399 . S
C3175 C3174 1.399 . S
C3175 C3176 1.376 . S
C3176 H3163 0.930 . S
C3176 C3175 1.376 . S
C3176 C3177 1.388 . S
C3177 H3164 0.930 . S
C3177 C3176 1.388 . S
C3177 C3178 1.390 . S
C3178 C3177 1.390 . S
C3178 C3179 1.394 . S
C3178 C3184 1.465 . S
C3179 C3174 1.399 . S
C3179 C3178 1.394 . S
C3179 C3180 1.516 . S
C3180 C3179 1.516 . S
C3180 C3181 1.502 . S
C3180 C3182 1.561 . S
C3180 C3183 1.526 . S
C3181 H3165 0.959 . S
C3181 H3166 0.959 . S
C3181 H3167 0.961 . S
C3181 C3180 1.502 . S
C3182 H3168 0.960 . S
C3182 H3169 0.961 . S
C3182 H3170 0.959 . S
C3182 C3180 1.561 . S
C3183 C3180 1.526 . S
C3183 C3184 1.396 . S
C3183 C3188 1.390 . S
C3184 C3178 1.465 . S
C3184 C3183 1.396 . S
C3184 C3185 1.399 . S
C3185 H3171 0.929 . S
C3185 C3184 1.399 . S
C3185 C3186 1.385 . S
C3186 H3172 0.931 . S
C3186 C3185 1.385 . S
C3186 C3187 1.389 . S
C3187 C3186 1.389 . S
C3187 C3188 1.387 . S
C3188 H3173 0.930 . S
C3188 C3183 1.390 . S
C3188 C3187 1.387 . S
H3189 C3201 0.930 . S
H3190 C3203 0.930 . S
H3191 C3204 0.930 . S
H3192 C3208 0.959 . S
H3193 C3208 0.959 . S
H3194 C3208 0.961 . S
H3195 C3209 0.960 . S
H3196 C3209 0.961 . S
H3197 C3209 0.959 . S
H3198 C3212 0.929 . S
H3199 C3213 0.931 . S
H3200 C3215 0.930 . S
C3201 H3189 0.930 . S
C3201 C3202 1.399 . S
C3201 C3206 1.399 . S
C3202 C3201 1.399 . S
C3202 C3203 1.376 . S
C3203 H3190 0.930 . S
C3203 C3202 1.376 . S
C3203 C3204 1.388 . S
C3204 H3191 0.930 . S
C3204 C3203 1.388 . S
C3204 C3205 1.390 . S
C3205 C3204 1.390 . S
C3205 C3206 1.394 . S
C3205 C3211 1.465 . S
C3206 C3201 1.399 . S
C3206 C3205 1.394 . S
C3206 C3207 1.516 . S
C3207 C3206 1.516 . S
C3207 C3208 1.502 . S
C3207 C3209 1.561 . S
C3207 C3210 1.526 . S
C3208 H3192 0.959 . S
C3208 H3193 0.959 . S
C3208 H3194 0.961 . S
C3208 C3207 1.502 . S
C3209 H3195 0.960 . S
C3209 H3196 0.961 . S
C3209 H3197 0.959 . S
C3209 C3207 1.561 . S
C3210 C3207 1.526 . S
C3210 C3211 1.396 . S
C3210 C3215 1.390 . S
C3211 C3205 1.465 . S
C3211 C3210 1.396 . S
C3211 C3212 1.399 . S
C3212 H3198 0.929 . S
C3212 C3211 1.399 . S
C3212 C3213 1.385 . S
C3213 H3199 0.931 . S
C3213 C3212 1.385 . S
C3213 C3214 1.389 . S
C3214 C3213 1.389 . S
C3214 C3215 1.387 . S
C3215 H3200 0.930 . S
C3215 C3210 1.390 . S
C3215 C3214 1.387 . S
C637 C268 1.113 . S
C649 C8 1.096 . S
C664 C23 1.007 . S
C676 C229 1.001 . S
C691 C34 1.130 . S
C703 C244 1.106 . S
C718 C257 1.020 . S
C730 C49 1.059 . S
C745 C309 1.053 . S
C757 C62 0.975 . S
C772 C73 1.130 . S
C784 C283 1.142 . S
C799 C88 0.970 . S
C811 C296 0.968 . S
C826 C99 1.116 . S
C838 C216 1.098 . S
C853 C112 1.084 . S
C865 C203 1.063 . S
C880 C127 1.042 . S
C892 C166 1.050 . S
C907 C138 1.047 . S
C919 C177 1.021 . S
C934 C192 1.079 . S
C946 C153 1.000 . S
C961 C322 1.223 . S
C973 C582 1.177 . S
C988 C543 1.144 . S
C1000 C333 1.078 . S
C1015 C348 1.204 . S
C1027 C554 1.155 . S
C1042 C567 1.156 . S
C1054 C359 1.099 . S
C1069 C372 1.155 . S
C1081 C621 1.100 . S
C1096 C593 1.208 . S
C1108 C387 1.206 . S
C1123 C398 1.157 . S
C1135 C606 1.099 . S
C1150 C530 1.224 . S
C1162 C413 1.227 . S
C1177 C426 1.193 . S
C1189 C517 1.193 . S
C1204 C476 1.200 . S
C1216 C437 1.200 . S
C1231 C491 1.103 . S
C1243 C452 1.150 . S
C1258 C502 1.130 . S
C1270 C463 1.134 . S
C1285 C346 0.922 . S
C1297 C10 0.919 . S
C1312 C21 0.940 . S
C1324 C361 0.987 . S
C1339 C36 0.941 . S
C1351 C320 0.931 . S
C1366 C47 0.990 . S
C1378 C335 0.934 . S
C1393 C60 1.038 . S
C1405 C400 1.038 . S
C1420 C411 0.932 . S
C1432 C75 0.979 . S
C1447 C374 0.999 . S
C1459 C86 0.953 . S
C1474 C385 0.965 . S
C1486 C101 1.001 . S
C1501 C478 0.944 . S
C1513 C114 0.957 . S
C1528 C125 0.932 . S
C1540 C489 0.978 . S
C1555 C504 0.979 . S
C1567 C140 0.967 . S
C1582 C151 0.947 . S
C1594 C515 0.976 . S
C1609 C164 1.009 . S
C1621 C424 0.953 . S
C1636 C179 0.938 . S
C1648 C439 0.924 . S
C1663 C450 0.977 . S
C1675 C190 0.943 . S
C1690 C465 0.998 . S
C1702 C205 1.004 . S
C1717 C218 0.998 . S
C1729 C569 0.986 . S
C1744 C231 0.954 . S
C1756 C595 0.960 . S
C1771 C608 0.983 . S
C1783 C242 1.010 . S
C1798 C528 0.997 . S
C1810 C255 0.934 . S
C1825 C270 0.922 . S
C1837 C619 0.915 . S
C1852 C541 0.987 . S
C1864 C281 0.927 . S
C1879 C294 0.944 . S
C1891 C556 0.987 . S
C1906 C307 0.962 . S
C1918 C580 1.025 . S
C1933 C364 1.546 . S
C1945 C5 1.537 . S
C1960 C382 1.517 . S
C1972 C13 1.505 . S
C1987 C390 1.548 . S
C1999 C31 1.496 . S
C2014 C39 1.530 . S
C2026 C408 1.540 . S
C2041 C317 1.547 . S
C2053 C52 1.491 . S
C2068 C325 1.571 . S
C2080 C70 1.551 . S
C2095 C78 1.517 . S
C2107 C343 1.531 . S
C2122 C351 1.481 . S
C2134 C96 1.445 . S
C2149 C109 1.549 . S
C2161 C494 1.559 . S
C2176 C117 1.467 . S
C2188 C512 1.464 . S
C2203 C468 1.514 . S
C2215 C135 1.497 . S
C2230 C143 1.563 . S
C2242 C486 1.581 . S
C2257 C447 1.497 . S
C2269 C156 1.484 . S
C2284 C174 1.438 . S
C2296 C455 1.488 . S
C2311 C182 1.548 . S
C2323 C421 1.583 . S
C2338 C200 1.427 . S
C2350 C429 1.482 . S
C2365 C585 1.463 . S
C2377 C213 1.409 . S
C2392 C226 1.505 . S
C2404 C559 1.541 . S
C2419 C234 1.464 . S
C2431 C577 1.473 . S
C2446 C247 1.571 . S
C2458 C538 1.564 . S
C2473 C546 1.482 . S
C2485 C265 1.471 . S
C2500 C525 1.546 . S
C2512 C273 1.529 . S
C2527 C616 1.563 . S
C2539 C286 1.574 . S
C2554 C299 1.573 . S
C2566 C598 1.585 . S
C2581 C195 1.538 . S
C2593 C0 1.417 . S
C2608 C18 1.512 . S
C2620 C161 1.403 . S
C2635 C169 1.520 . S
C2647 C26 1.408 . S
C2662 C187 1.487 . S
C2674 C44 1.483 . S
C2689 C122 1.429 . S
C2701 C57 1.506 . S
C2716 C65 1.429 . S
C2728 C130 1.543 . S
C2743 C83 1.433 . S
C2755 C148 1.516 . S
C2770 C104 1.476 . S
C2782 C91 1.518 . S
C2797 C208 1.493 . S
C2809 C260 1.556 . S
C2824 C304 1.485 . S
C2836 C221 1.574 . S
C2851 C278 1.382 . S
C2863 C239 1.507 . S
C2878 C252 1.400 . S
C2890 C291 1.548 . S
C2905 C507 1.556 . S
C2917 C312 1.489 . S
C2932 C473 1.568 . S
C2944 C330 1.434 . S
C2959 C338 1.493 . S
C2971 C481 1.518 . S
C2986 C499 1.445 . S
C2998 C356 1.585 . S
C3013 C434 1.545 . S
C3025 C369 1.478 . S
C3040 C377 1.526 . S
C3052 C442 1.502 . S
C3067 C395 1.497 . S
C3079 C460 1.518 . S
C3094 C403 1.516 . S
C3106 C416 1.463 . S
C3121 C520 1.545 . S
C3133 C572 1.590 . S
C3148 C611 1.503 . S
C3160 C533 1.601 . S
C3175 C590 1.439 . S
C3187 C551 1.523 . S
C3202 C603 1.502 . S
C3214 C564 1.502 . S
