# Generated by pormake.
# Topology uki, (4)-cn, num edge types: 1
# Building blocks:
#     Node 0, Type 0, BuildingBlock: QUQFOY_clean_sbu_1, # of connection points: 4
#     Node 1, Type 0, BuildingBlock: QUQFOY_clean_sbu_1, # of connection points: 4
#     Node 2, Type 0, BuildingBlock: QUQFOY_clean_sbu_1, # of connection points: 4
#     Node 3, Type 0, BuildingBlock: QUQFOY_clean_sbu_1, # of connection points: 4
#     Node 4, Type 0, BuildingBlock: QUQFOY_clean_sbu_1, # of connection points: 4
#     Node 5, Type 0, BuildingBlock: QUQFOY_clean_sbu_1, # of connection points: 4
#     Node 6, Type 0, BuildingBlock: QUQFOY_clean_sbu_1, # of connection points: 4
#     Node 7, Type 0, BuildingBlock: QUQFOY_clean_sbu_1, # of connection points: 4
#     Node 8, Type 0, BuildingBlock: QUQFOY_clean_sbu_1, # of connection points: 4
#     Node 9, Type 0, BuildingBlock: QUQFOY_clean_sbu_1, # of connection points: 4
#     Node 10, Type 0, BuildingBlock: QUQFOY_clean_sbu_1, # of connection points: 4
#     Node 11, Type 0, BuildingBlock: QUQFOY_clean_sbu_1, # of connection points: 4
#     Node 12, Type 0, BuildingBlock: QUQFOY_clean_sbu_1, # of connection points: 4
#     Node 13, Type 0, BuildingBlock: QUQFOY_clean_sbu_1, # of connection points: 4
#     Node 14, Type 0, BuildingBlock: QUQFOY_clean_sbu_1, # of connection points: 4
#     Node 15, Type 0, BuildingBlock: QUQFOY_clean_sbu_1, # of connection points: 4
#     Edge 16, Type (0, 0), BuildingBlock: EZIPEK_clean_linker_0, # of connection points: 2
#     Edge 17, Type (0, 0), BuildingBlock: EZIPEK_clean_linker_0, # of connection points: 2
#     Edge 18, Type (0, 0), BuildingBlock: EZIPEK_clean_linker_0, # of connection points: 2
#     Edge 19, Type (0, 0), BuildingBlock: EZIPEK_clean_linker_0, # of connection points: 2
#     Edge 20, Type (0, 0), BuildingBlock: EZIPEK_clean_linker_0, # of connection points: 2
#     Edge 21, Type (0, 0), BuildingBlock: EZIPEK_clean_linker_0, # of connection points: 2
#     Edge 22, Type (0, 0), BuildingBlock: EZIPEK_clean_linker_0, # of connection points: 2
#     Edge 23, Type (0, 0), BuildingBlock: EZIPEK_clean_linker_0, # of connection points: 2
#     Edge 24, Type (0, 0), BuildingBlock: EZIPEK_clean_linker_0, # of connection points: 2
#     Edge 25, Type (0, 0), BuildingBlock: EZIPEK_clean_linker_0, # of connection points: 2
#     Edge 26, Type (0, 0), BuildingBlock: EZIPEK_clean_linker_0, # of connection points: 2
#     Edge 27, Type (0, 0), BuildingBlock: EZIPEK_clean_linker_0, # of connection points: 2
#     Edge 28, Type (0, 0), BuildingBlock: EZIPEK_clean_linker_0, # of connection points: 2
#     Edge 29, Type (0, 0), BuildingBlock: EZIPEK_clean_linker_0, # of connection points: 2
#     Edge 30, Type (0, 0), BuildingBlock: EZIPEK_clean_linker_0, # of connection points: 2
#     Edge 31, Type (0, 0), BuildingBlock: EZIPEK_clean_linker_0, # of connection points: 2
#     Edge 32, Type (0, 0), BuildingBlock: EZIPEK_clean_linker_0, # of connection points: 2
#     Edge 33, Type (0, 0), BuildingBlock: EZIPEK_clean_linker_0, # of connection points: 2
#     Edge 34, Type (0, 0), BuildingBlock: EZIPEK_clean_linker_0, # of connection points: 2
#     Edge 35, Type (0, 0), BuildingBlock: EZIPEK_clean_linker_0, # of connection points: 2
#     Edge 36, Type (0, 0), BuildingBlock: EZIPEK_clean_linker_0, # of connection points: 2
#     Edge 37, Type (0, 0), BuildingBlock: EZIPEK_clean_linker_0, # of connection points: 2
#     Edge 38, Type (0, 0), BuildingBlock: EZIPEK_clean_linker_0, # of connection points: 2
#     Edge 39, Type (0, 0), BuildingBlock: EZIPEK_clean_linker_0, # of connection points: 2
#     Edge 40, Type (0, 0), BuildingBlock: EZIPEK_clean_linker_0, # of connection points: 2
#     Edge 41, Type (0, 0), BuildingBlock: EZIPEK_clean_linker_0, # of connection points: 2
#     Edge 42, Type (0, 0), BuildingBlock: EZIPEK_clean_linker_0, # of connection points: 2
#     Edge 43, Type (0, 0), BuildingBlock: EZIPEK_clean_linker_0, # of connection points: 2
#     Edge 44, Type (0, 0), BuildingBlock: EZIPEK_clean_linker_0, # of connection points: 2
#     Edge 45, Type (0, 0), BuildingBlock: EZIPEK_clean_linker_0, # of connection points: 2
#     Edge 46, Type (0, 0), BuildingBlock: EZIPEK_clean_linker_0, # of connection points: 2
#     Edge 47, Type (0, 0), BuildingBlock: EZIPEK_clean_linker_0, # of connection points: 2
# Relax obj value: 0.034
# Max RMSD: 0.124
# Mean RMSD: 0.124
data_MOF--net-uki--node1-QUQFOY_clean_sbu_1--edge1-EZIPEK_clean_linker_0
_symmetry_space_group_name_H-M    P1
_symmetry_Int_Tables_number       1
_symmetry_cell_setting            triclinic
loop_
_symmetry_equiv_pos_as_xyz
'x, y, z'
_cell_length_a     24.076094
_cell_length_b     23.998293
_cell_length_c     53.158887
_cell_angle_alpha  90.157049
_cell_angle_beta   90.221524
_cell_angle_gamma 89.854761
loop_
_atom_site_label
_atom_site_type_symbol
_atom_site_fract_x
_atom_site_fract_y
_atom_site_fract_z
_atom_type_partial_charge
O0 O 0.12744 0.32101 0.31437 0.0
Cd1 Cd 0.08603 0.28747 0.34399 0.0
Cd2 Cd 0.08695 0.20536 0.31269 0.0
O3 O 0.15349 0.2441 0.29508 0.0
O4 O 0.12041 0.32122 0.37499 0.0
O5 O 0.12911 0.23206 0.36464 0.0
C6 C 0.1436 0.27331 0.37891 0.0
C7 C 0.07074 0.11274 0.31962 0.0
C8 C 0.15532 0.29687 0.29727 0.0
C9 C 0.98214 0.27571 0.31822 0.0
O10 O 0.01169 0.24132 0.306 0.0
O11 O 1.00085 0.29675 0.33861 0.0
O12 O 0.07372 0.13185 0.29703 0.0
O13 O 0.08484 0.14451 0.33821 0.0
O14 O 0.32462 0.91223 0.74749 0.0
Cd15 Cd 0.27305 0.93633 0.71788 0.0
Cd16 Cd 0.21206 0.96078 0.75762 0.0
O17 O 0.25976 0.90372 0.77647 0.0
O18 O 0.30481 0.90373 0.68616 0.0
O19 O 0.22674 0.87396 0.70269 0.0
C20 C 0.26444 0.86851 0.6856 0.0
C21 C 0.11713 0.97265 0.7593 0.0
C22 C 0.30952 0.89661 0.76931 0.0
C23 C 0.26214 0.05502 0.73086 0.0
O24 O 0.24859 0.03604 0.75218 0.0
O25 O 0.26584 0.02239 0.712 0.0
O26 O 0.14739 0.97913 0.77916 0.0
O27 O 0.14014 0.95267 0.73924 0.0
O28 O 0.88467 0.70266 0.31197 0.0
Cd29 Cd 0.92874 0.73526 0.3413 0.0
Cd30 Cd 0.92973 0.81623 0.30954 0.0
O31 O 0.86117 0.77976 0.2922 0.0
O32 O 0.89495 0.70222 0.37238 0.0
O33 O 0.88823 0.79166 0.36253 0.0
C34 C 0.87332 0.75069 0.37672 0.0
C35 C 0.95002 0.90812 0.31726 0.0
C36 C 0.8573 0.7272 0.29477 0.0
C37 C 0.03223 0.74297 0.31501 0.0
O38 O 1.00291 0.77696 0.30244 0.0
O39 O 0.01367 0.72365 0.33566 0.0
O40 O 0.94586 0.88971 0.29452 0.0
O41 O 0.93549 0.8762 0.3356 0.0
O42 O 0.68619 0.10915 0.74318 0.0
Cd43 Cd 0.73708 0.08035 0.71481 0.0
Cd44 Cd 0.7948 0.05979 0.75569 0.0
O45 O 0.748 0.12034 0.77337 0.0
O46 O 0.70663 0.1175 0.68391 0.0
O47 O 0.79066 0.13476 0.69892 0.0
C48 C 0.75186 0.14604 0.68283 0.0
C49 C 0.88992 0.05097 0.75671 0.0
C50 C 0.69907 0.12731 0.76493 0.0
C51 C 0.73921 0.96417 0.7294 0.0
O52 O 0.75646 0.98464 0.75002 0.0
O53 O 0.73555 0.99447 0.70985 0.0
O54 O 0.8606 0.04012 0.77635 0.0
O55 O 0.86565 0.07166 0.73708 0.0
O56 O 0.13464 0.19184 1.00724 0.0
Cd57 Cd 0.10843 0.23445 0.97536 0.0
Cd58 Cd 0.06806 0.29996 1.01455 0.0
O59 O 0.12011 0.254 0.03739 0.0
O60 O 0.15088 0.19876 0.94714 0.0
O61 O 0.16062 0.28746 0.95758 0.0
C62 C 0.17489 0.24593 0.94348 0.0
C63 C 0.05073 0.39487 1.01834 0.0
C64 C 0.1386 0.20699 0.03014 0.0
C65 C 0.98707 0.2343 0.98271 0.0
O66 O 0.99816 0.25901 1.00322 0.0
O67 O 0.02472 0.22565 0.96643 0.0
O68 O 0.03524 0.36054 0.03551 0.0
O69 O 0.08057 0.37612 1.0 0.0
O70 O 0.20326 0.86237 0.04277 0.0
Cd71 Cd 0.23638 0.88996 0.0765 0.0
Cd72 Cd 0.30625 0.9356 0.04121 0.0
O73 O 0.27061 0.88129 1.01593 0.0
O74 O 0.20023 0.84122 0.10237 0.0
O75 O 0.29072 0.84049 0.09537 0.0
C76 C 0.24848 0.82037 0.10717 0.0
C77 C 0.39953 0.95955 0.04154 0.0
C78 C 0.2236 0.86002 1.02076 0.0
C79 C 0.22672 0.01128 0.06896 0.0
O80 O 0.25743 1.0023 0.05007 0.0
O81 O 0.21753 0.97291 0.08493 0.0
O82 O 0.36756 0.97342 1.02312 0.0
O83 O 0.37969 0.92821 0.05905 0.0
O84 O 0.88295 0.82398 1.00778 0.0
Cd85 Cd 0.90815 0.78026 0.97602 0.0
Cd86 Cd 0.94972 0.71627 1.01515 0.0
O87 O 0.89826 0.76259 0.03807 0.0
O88 O 0.86418 0.81444 0.94784 0.0
O89 O 0.85558 0.7261 0.95887 0.0
C90 C 0.84029 0.76697 0.94465 0.0
C91 C 0.96701 0.62138 1.01874 0.0
C92 C 0.8796 0.80943 0.03074 0.0
C93 C 0.02966 0.78108 0.98292 0.0
O94 O 0.01925 0.75707 1.00358 0.0
O95 O 0.9915 0.78905 0.96671 0.0
O96 O 0.98301 0.65574 0.03595 0.0
O97 O 0.93667 0.64011 1.00051 0.0
O98 O 0.81485 0.15463 0.04336 0.0
Cd99 Cd 0.78259 0.12736 0.07713 0.0
Cd100 Cd 0.71184 0.08108 0.04189 0.0
O101 O 0.74702 0.13502 1.01658 0.0
O102 O 0.81893 0.17654 0.10305 0.0
O103 O 0.72833 0.17671 0.09606 0.0
C104 C 0.77065 0.19714 0.10789 0.0
C105 C 0.61858 0.05691 0.04197 0.0
C106 C 0.79405 0.1565 1.02135 0.0
C107 C 0.79222 1.00589 0.06956 0.0
O108 O 0.76087 0.01455 0.05077 0.0
O109 O 0.8019 0.04451 0.08547 0.0
O110 O 0.65054 0.04281 1.02366 0.0
O111 O 0.63842 0.08853 0.05953 0.0
O112 O 0.64902 0.81108 0.79922 0.0
Cd113 Cd 0.61191 0.78683 0.83247 0.0
Cd114 Cd 0.57262 0.71186 0.80006 0.0
O115 O 0.63369 0.73657 0.7757 0.0
O116 O 0.65691 0.82124 0.86023 0.0
O117 O 0.6497 0.73001 0.85479 0.0
C118 C 0.67097 0.77156 0.86697 0.0
C119 C 0.54438 0.62085 0.8058 0.0
C120 C 0.65531 0.78433 0.77874 0.0
C121 C 0.49556 0.80195 0.81803 0.0
O122 O 0.50718 0.76557 0.80158 0.0
O123 O 0.5299 0.81348 0.83555 0.0
O124 O 0.53634 0.64598 0.78473 0.0
O125 O 0.57235 0.64593 0.82324 0.0
O126 O 0.82057 0.39278 0.24537 0.0
Cd127 Cd 0.78568 0.43481 0.216 0.0
Cd128 Cd 0.70362 0.43279 0.24736 0.0
O129 O 0.74471 0.36708 0.26516 0.0
O130 O 0.81889 0.40206 0.18463 0.0
O131 O 0.73049 0.39188 0.19519 0.0
C132 C 0.77132 0.37866 0.1806 0.0
C133 C 0.61067 0.44737 0.24058 0.0
C134 C 0.79726 0.36506 0.26268 0.0
C135 C 0.77081 0.53941 0.2414 0.0
O136 O 0.73699 0.50945 0.25354 0.0
O137 O 0.793 0.52031 0.22141 0.0
O138 O 0.63032 0.44495 0.26314 0.0
O139 O 0.64215 0.43322 0.222 0.0
O140 O 0.34381 0.20887 0.79432 0.0
Cd141 Cd 0.38828 0.22518 0.82656 0.0
Cd142 Cd 0.41642 0.3155 0.80006 0.0
O143 O 0.3585 0.28759 0.77391 0.0
O144 O 0.34831 0.18968 0.85528 0.0
O145 O 0.35757 0.28119 0.85114 0.0
C146 C 0.33692 0.23934 0.86319 0.0
C147 C 0.43666 0.40893 0.80618 0.0
C148 C 0.33668 0.23947 0.7751 0.0
C149 C 0.50389 0.2259 0.80976 0.0
O150 O 0.4891 0.27184 0.80011 0.0
O151 O 0.47048 0.19904 0.82368 0.0
O152 O 0.44556 0.38487 0.78496 0.0
O153 O 0.41162 0.38142 0.82359 0.0
O154 O 0.19619 0.6267 0.24371 0.0
Cd155 Cd 0.23094 0.58362 0.21466 0.0
Cd156 Cd 0.31142 0.58584 0.24681 0.0
O157 O 0.27182 0.6536 0.2637 0.0
O158 O 0.19855 0.61626 0.1831 0.0
O159 O 0.28701 0.62537 0.19417 0.0
C160 C 0.24647 0.63899 0.17936 0.0
C161 C 0.40411 0.56654 0.24086 0.0
C162 C 0.21926 0.65528 0.26095 0.0
C163 C 0.24097 0.48118 0.24122 0.0
O164 O 0.27391 0.5118 0.25371 0.0
O165 O 0.22156 0.4985 0.22031 0.0
O166 O 0.38395 0.57096 0.26322 0.0
O167 O 0.37344 0.58053 0.22191 0.0
O168 O 0.65121 0.70147 0.51113 0.0
Cd169 Cd 0.62303 0.74383 0.47981 0.0
Cd170 Cd 0.58351 0.80448 0.52033 0.0
O171 O 0.63948 0.76118 0.5424 0.0
O172 O 0.66693 0.70847 0.45176 0.0
O173 O 0.67573 0.79713 0.46227 0.0
C174 C 0.69166 0.75546 0.44864 0.0
C175 C 0.56432 0.89904 0.52189 0.0
C176 C 0.65707 0.7146 0.53421 0.0
C177 C 0.50287 0.73693 0.48926 0.0
O178 O 0.51495 0.76004 0.51004 0.0
O179 O 0.53896 0.73213 0.47192 0.0
O180 O 0.55077 0.86669 0.54019 0.0
O181 O 0.59342 0.87864 0.50364 0.0
O182 O 0.70044 0.35255 0.54445 0.0
Cd183 Cd 0.72549 0.38764 0.57742 0.0
Cd184 Cd 0.81493 0.42817 0.54792 0.0
O185 O 0.7624 0.39386 0.52013 0.0
O186 O 0.69256 0.34276 0.60525 0.0
O187 O 0.78329 0.34772 0.59817 0.0
C188 C 0.74242 0.32659 0.61065 0.0
C189 C 0.90774 0.44855 0.5389 0.0
C190 C 0.71887 0.36429 0.52279 0.0
C191 C 0.73897 0.50924 0.57355 0.0
O192 O 0.7886 0.49574 0.56871 0.0
O193 O 0.70352 0.47154 0.5781 0.0
O194 O 0.86775 0.47078 0.52643 0.0
O195 O 0.89583 0.40938 0.55455 0.0
O196 O 0.37639 0.32161 0.51174 0.0
Cd197 Cd 0.40227 0.2855 0.47835 0.0
Cd198 Cd 0.4507 0.21653 0.5155 0.0
O199 O 0.3982 0.25735 0.53998 0.0
O200 O 0.3528 0.32096 0.45229 0.0
O201 O 0.35048 0.23091 0.46089 0.0
C202 C 0.33052 0.27285 0.44859 0.0
C203 C 0.47348 0.12255 0.51879 0.0
C204 C 0.37571 0.30356 0.53421 0.0
C205 C 0.52502 0.29043 0.48383 0.0
O206 O 0.5172 0.26175 0.50349 0.0
O207 O 0.48514 0.30042 0.46864 0.0
O208 O 0.48929 0.15793 0.53557 0.0
O209 O 0.44101 0.13959 0.50098 0.0
O210 O 0.32315 0.64259 0.54898 0.0
Cd211 Cd 0.27827 0.61645 0.58012 0.0
Cd212 Cd 0.21855 0.57449 0.53992 0.0
O213 O 0.26031 0.63235 0.51878 0.0
O214 O 0.31212 0.65575 0.60993 0.0
O215 O 0.22795 0.6747 0.59632 0.0
C216 C 0.26794 0.68587 0.61178 0.0
C217 C 0.12603 0.54951 0.53613 0.0
C218 C 0.30744 0.64955 0.52629 0.0
C219 C 0.28476 0.49528 0.57127 0.0
O220 O 0.26477 0.50696 0.54985 0.0
O221 O 0.28645 0.53186 0.58864 0.0
O222 O 0.16061 0.53956 0.51821 0.0
O223 O 0.1427 0.57885 0.55513 0.0
C224 C 0.2144 0.37925 0.29344 0.0
C225 C 0.19005 0.33325 0.28114 0.0
C226 C 0.2094 0.37899 0.24074 0.0
C227 C 0.22108 0.42948 0.25384 0.0
N228 N 0.21302 0.4788 0.29373 0.0
N229 N 0.1596 0.29129 0.24197 0.0
C230 C 0.21785 0.43002 0.28055 0.0
C231 C 0.18659 0.33311 0.25438 0.0
N232 N 0.2314 0.3753 0.3179 0.0
N233 N 0.22116 0.37397 0.21575 0.0
H234 H 0.14309 0.25674 0.25104 0.0
H235 H 0.1507 0.2929 0.22278 0.0
H236 H 0.2398 0.40561 0.20543 0.0
H237 H 0.21759 0.33638 0.20602 0.0
H238 H 0.25204 0.4077 0.32712 0.0
H239 H 0.23009 0.33773 0.32774 0.0
H240 H 0.20723 0.47975 0.31317 0.0
H241 H 0.20637 0.51724 0.2851 0.0
C242 C 0.44568 0.88862 0.80478 0.0
C243 C 0.44343 0.83356 0.81433 0.0
C244 C 0.34896 0.82233 0.79779 0.0
C245 C 0.35206 0.87659 0.78738 0.0
N246 N 0.3946 0.9675 0.78808 0.0
N247 N 0.38875 0.75506 0.82688 0.0
C248 C 0.39763 0.91179 0.79325 0.0
C249 C 0.39326 0.80299 0.81326 0.0
N250 N 0.49461 0.91738 0.80509 0.0
N251 N 0.30567 0.78809 0.79164 0.0
H252 H 0.42088 0.74097 0.83851 0.0
H253 H 0.35201 0.73261 0.82858 0.0
H254 H 0.27265 0.80065 0.78023 0.0
H255 H 0.3043 0.74606 0.79639 0.0
H256 H 0.50061 0.95441 0.7953 0.0
H257 H 0.53034 0.90278 0.81404 0.0
H258 H 0.42435 0.99612 0.79405 0.0
H259 H 0.35953 0.98602 0.78004 0.0
C260 C 0.80261 0.6413 0.23939 0.0
C261 C 0.78864 0.59286 0.25342 0.0
C262 C 0.79352 0.64832 0.29186 0.0
C263 C 0.82071 0.69153 0.27898 0.0
N264 N 0.85458 0.72782 0.2395 0.0
N265 N 0.7913 0.54903 0.2947 0.0
C266 C 0.82576 0.68823 0.25234 0.0
C267 C 0.78914 0.59595 0.28018 0.0
N268 N 0.79276 0.64337 0.21412 0.0
N269 N 0.77547 0.65622 0.31591 0.0
H270 H 0.79811 0.5093 0.28732 0.0
H271 H 0.79511 0.55064 0.31424 0.0
H272 H 0.77825 0.69491 0.32487 0.0
H273 H 0.7528 0.62612 0.32556 0.0
H274 H 0.79822 0.67948 0.20357 0.0
H275 H 0.77357 0.61109 0.20427 0.0
H276 H 0.86478 0.72363 0.22055 0.0
H277 H 0.87095 0.76323 0.24809 0.0
C278 C 0.5676 0.20618 0.77396 0.0
C279 C 0.55595 0.20025 0.80001 0.0
C280 C 0.64192 0.14581 0.80455 0.0
C281 C 0.6559 0.15849 0.77915 0.0
N282 N 0.63985 0.21823 0.74337 0.0
N283 N 0.58848 0.17336 0.84125 0.0
C284 C 0.62143 0.19479 0.76519 0.0
C285 C 0.59508 0.17278 0.81576 0.0
N286 N 0.52645 0.21869 0.75711 0.0
N287 N 0.67095 0.10628 0.81756 0.0
H288 H 0.55536 0.1935 0.85002 0.0
H289 H 0.61859 0.15838 0.85366 0.0
H290 H 0.70469 0.08476 0.81009 0.0
H291 H 0.65852 0.09161 0.83508 0.0
H292 H 0.53302 0.21929 0.73773 0.0
H293 H 0.48467 0.22051 0.76209 0.0
H294 H 0.6169 0.24806 0.73355 0.0
H295 H 0.68038 0.21276 0.73691 0.0
C296 C 0.14146 0.0706 0.06451 0.0
C297 C 0.19898 0.06644 0.07016 0.0
C298 C 0.21342 0.16292 0.05655 0.0
C299 C 0.15721 0.16511 0.04875 0.0
N300 N 0.06407 0.13002 0.05231 0.0
N301 N 0.2852 0.11218 0.07937 0.0
C302 C 0.11993 0.12194 0.05531 0.0
C303 C 0.23328 0.1143 0.06899 0.0
N304 N 0.10843 0.02449 0.06593 0.0
N305 N 0.24818 0.20592 0.05082 0.0
H306 H 0.29974 0.07669 0.08867 0.0
H307 H 0.3116 0.14634 0.08073 0.0
H308 H 0.23397 0.24264 0.04248 0.0
H309 H 0.29103 0.20453 0.05341 0.0
H310 H 0.06818 0.02274 0.05876 0.0
H311 H 0.12202 0.98683 0.07349 0.0
H312 H 0.03415 0.10224 0.05868 0.0
H313 H 0.04747 0.16724 0.04544 0.0
C314 C 0.14892 0.87972 0.98989 0.0
C315 C 0.18684 0.84076 1.00026 0.0
C316 C 0.13084 0.7643 0.98375 0.0
C317 C 0.08679 0.80241 0.97959 0.0
N318 N 0.0546 0.89727 0.97575 0.0
N319 N 0.21872 0.7465 1.00494 0.0
C320 C 0.0966 0.86061 0.98091 0.0
C321 C 0.17995 0.78308 0.99597 0.0
N322 N 0.16245 0.93497 0.98954 0.0
N323 N 0.1243 0.71001 0.97666 0.0
H324 H 0.25589 0.75994 1.0131 0.0
H325 H 0.21343 0.70346 1.00503 0.0
H326 H 0.08815 0.69631 0.96765 0.0
H327 H 0.15575 0.68025 0.97767 0.0
H328 H 0.13865 0.96533 0.98058 0.0
H329 H 0.20041 0.94967 0.99634 0.0
H330 H 0.05652 0.93971 0.97972 0.0
H331 H 0.01674 0.88493 0.96805 0.0
C332 C 0.89878 0.89512 0.05569 0.0
C333 C 0.86139 0.85175 0.04928 0.0
C334 C 0.78581 0.90285 0.06962 0.0
C335 C 0.82008 0.95077 0.07069 0.0
N336 N 0.91043 0.99279 0.06613 0.0
N337 N 0.77052 0.8109 0.05158 0.0
C338 C 0.87744 0.9466 0.06487 0.0
C339 C 0.80539 0.85403 0.05719 0.0
N340 N 0.95457 0.88708 0.05256 0.0
N341 N 0.73417 0.90508 0.08011 0.0
H342 H 0.78453 0.77406 0.04324 0.0
H343 H 0.72774 0.8123 0.05424 0.0
H344 H 0.71982 0.94069 0.0894 0.0
H345 H 0.70785 0.8709 0.08155 0.0
H346 H 0.98462 0.91503 0.05884 0.0
H347 H 0.97105 0.84976 0.0457 0.0
H348 H 0.95045 0.99447 0.05884 0.0
H349 H 0.897 0.03058 0.07366 0.0
C350 C 0.8372 0.23278 0.99628 0.0
C351 C 0.83041 0.17522 1.00078 0.0
C352 C 0.92002 0.15477 0.98121 0.0
C353 C 0.92981 0.21292 0.97965 0.0
N354 N 0.89227 0.30527 0.97655 0.0
N355 N 0.85443 0.08069 0.99028 0.0
C356 C 0.88592 0.25119 0.98384 0.0
C357 C 0.86799 0.13595 0.99041 0.0
N358 N 0.79873 0.26963 1.00525 0.0
N359 N 0.96181 0.11792 0.97604 0.0
H360 H 0.8167 0.06618 0.99726 0.0
H361 H 0.8779 0.05009 0.98133 0.0
H362 H 0.99942 0.12999 0.96816 0.0
H363 H 0.96001 0.07561 0.98018 0.0
H364 H 0.80404 0.31267 1.00517 0.0
H365 H 0.76182 0.25645 1.01357 0.0
H366 H 0.86088 0.33509 0.97758 0.0
H367 H 0.92812 0.31869 0.96739 0.0
C368 C 0.73508 0.82053 0.75363 0.0
C369 C 0.67717 0.81518 0.75697 0.0
C370 C 0.66003 0.89731 0.73083 0.0
C371 C 0.71814 0.90631 0.73 0.0
N372 N 0.80982 0.86771 0.73169 0.0
N373 N 0.58444 0.83584 0.74256 0.0
C374 C 0.75528 0.86438 0.7383 0.0
C375 C 0.63963 0.84904 0.74314 0.0
N376 N 0.77039 0.7855 0.7661 0.0
N377 N 0.62451 0.93704 0.72179 0.0
H378 H 0.5685 0.80108 0.75177 0.0
H379 H 0.55537 0.85615 0.73129 0.0
H380 H 0.63809 0.97156 0.71171 0.0
H381 H 0.58185 0.9369 0.72489 0.0
H382 H 0.81328 0.79073 0.76668 0.0
H383 H 0.75603 0.75184 0.77663 0.0
H384 H 0.83933 0.83735 0.73592 0.0
H385 H 0.82365 0.8988 0.71956 0.0
C386 C 0.88084 0.30944 0.31891 0.0
C387 C 0.9304 0.29618 0.30563 0.0
C388 C 0.87916 0.30445 0.26617 0.0
C389 C 0.83418 0.32997 0.27867 0.0
N390 N 0.79438 0.3616 0.31798 0.0
N391 N 0.97841 0.30226 0.26553 0.0
C392 C 0.83508 0.33344 0.30543 0.0
C393 C 0.9301 0.29922 0.2789 0.0
N394 N 0.87661 0.29811 0.34396 0.0
N395 N 0.87402 0.28762 0.24172 0.0
H396 H 0.01721 0.30753 0.27399 0.0
H397 H 0.97893 0.30801 0.24609 0.0
H398 H 0.83631 0.29002 0.23201 0.0
H399 H 0.90545 0.26596 0.23238 0.0
H400 H 0.83964 0.30274 0.3539 0.0
H401 H 0.90825 0.27879 0.35417 0.0
H402 H 0.79679 0.37048 0.33716 0.0
H403 H 0.76008 0.3792 0.30903 0.0
C404 C 0.23454 0.15204 0.74019 0.0
C405 C 0.27406 0.1155 0.72934 0.0
C406 C 0.34529 0.1867 0.73526 0.0
C407 C 0.31015 0.21348 0.75286 0.0
N408 N 0.21894 0.228 0.76963 0.0
N409 N 0.36641 0.10065 0.71321 0.0
C410 C 0.25344 0.19901 0.75402 0.0
C411 C 0.32896 0.13434 0.72508 0.0
N412 N 0.17941 0.14026 0.73779 0.0
N413 N 0.39471 0.21061 0.7291 0.0
H414 H 0.3552 0.06318 0.70469 0.0
H415 H 0.40879 0.10902 0.7125 0.0
H416 H 0.40627 0.24952 0.73615 0.0
H417 H 0.421 0.19501 0.71524 0.0
H418 H 0.14803 0.16714 0.74373 0.0
H419 H 0.16565 0.10553 0.72766 0.0
H420 H 0.17844 0.21578 0.77361 0.0
H421 H 0.2322 0.26371 0.77917 0.0
C422 C 0.08525 0.71898 0.27619 0.0
C423 C 0.08435 0.72234 0.30291 0.0
C424 C 0.18045 0.68713 0.30341 0.0
C425 C 0.18183 0.69035 0.27666 0.0
N426 N 0.14179 0.7313 0.23941 0.0
N427 N 0.13766 0.7223 0.3416 0.0
C428 C 0.13655 0.71475 0.26384 0.0
C429 C 0.13397 0.71035 0.31655 0.0
N430 N 0.03726 0.71493 0.26247 0.0
N431 N 0.22146 0.65995 0.31626 0.0
H432 H 0.10558 0.74122 0.3516 0.0
H433 H 0.17461 0.71861 0.35176 0.0
H434 H 0.25638 0.64312 0.30757 0.0
H435 H 0.21881 0.65117 0.33541 0.0
H436 H 0.03719 0.70891 0.24303 0.0
H437 H 0.9984 0.70921 0.27067 0.0
H438 H 0.1101 0.75215 0.22983 0.0
H439 H 0.17973 0.72949 0.22998 0.0
C440 C 0.68102 0.5969 0.58117 0.0
C441 C 0.72117 0.56704 0.56693 0.0
C442 C 0.73415 0.64923 0.54063 0.0
C443 C 0.68583 0.67363 0.55063 0.0
N444 N 0.61036 0.66925 0.58042 0.0
N445 N 0.77059 0.56154 0.52713 0.0
C446 C 0.6587 0.64763 0.57124 0.0
C447 C 0.74442 0.59246 0.54519 0.0
N448 N 0.66463 0.57737 0.60404 0.0
N449 N 0.76821 0.6794 0.52543 0.0
H450 H 0.7698 0.51816 0.52685 0.0
H451 H 0.78489 0.57871 0.51036 0.0
H452 H 0.76114 0.72163 0.52188 0.0
H453 H 0.80595 0.66382 0.51881 0.0
H454 H 0.63893 0.5999 0.6161 0.0
H455 H 0.68109 0.54113 0.61193 0.0
H456 H 0.58563 0.64836 0.59336 0.0
H457 H 0.59341 0.70665 0.57407 0.0
C458 C 0.64402 0.38957 0.49252 0.0
C459 C 0.68312 0.34947 0.50102 0.0
C460 C 0.62667 0.27536 0.48245 0.0
C461 C 0.58177 0.31337 0.48037 0.0
N462 N 0.54851 0.40815 0.4802 0.0
N463 N 0.71664 0.25529 0.50135 0.0
C464 C 0.5912 0.3713 0.48359 0.0
C465 C 0.67655 0.2927 0.49452 0.0
N466 N 0.65682 0.44489 0.49398 0.0
N467 N 0.62017 0.22232 0.4736 0.0
H468 H 0.75434 0.26797 0.50927 0.0
H469 H 0.71213 0.21228 0.49985 0.0
H470 H 0.58349 0.20966 0.46473 0.0
H471 H 0.65194 0.19285 0.47311 0.0
H472 H 0.63202 0.47639 0.4865 0.0
H473 H 0.6951 0.45891 0.50067 0.0
H474 H 0.55023 0.4499 0.48549 0.0
H475 H 0.51032 0.39648 0.47261 0.0
C476 C 0.36679 0.43146 0.57412 0.0
C477 C 0.30833 0.4387 0.57439 0.0
C478 C 0.29496 0.34519 0.55697 0.0
C479 C 0.35313 0.34072 0.55389 0.0
N480 N 0.44485 0.36927 0.56638 0.0
N481 N 0.21782 0.39742 0.57485 0.0
C482 C 0.3892 0.38025 0.56513 0.0
C483 C 0.27283 0.39325 0.569 0.0
N484 N 0.40059 0.47499 0.58042 0.0
N485 N 0.26112 0.30508 0.54706 0.0
H486 H 0.2016 0.4328 0.58368 0.0
H487 H 0.18972 0.36477 0.57297 0.0
H488 H 0.27681 0.26853 0.53906 0.0
H489 H 0.21808 0.30868 0.54602 0.0
H490 H 0.4433 0.47518 0.57748 0.0
H491 H 0.38543 0.51208 0.588 0.0
H492 H 0.4732 0.39426 0.57598 0.0
H493 H 0.46198 0.3322 0.5596 0.0
C494 C 0.4008 0.74838 0.49074 0.0
C495 C 0.44675 0.7123 0.48714 0.0
C496 C 0.38927 0.63259 0.49889 0.0
C497 C 0.34849 0.67024 0.50797 0.0
N498 N 0.31143 0.76313 0.51085 0.0
N499 N 0.48472 0.61936 0.48564 0.0
C500 C 0.35245 0.72792 0.50287 0.0
C501 C 0.44047 0.65388 0.48982 0.0
N502 N 0.40455 0.80237 0.48291 0.0
N503 N 0.37913 0.57658 0.49946 0.0
H504 H 0.52198 0.63332 0.47802 0.0
H505 H 0.4854 0.57737 0.49047 0.0
H506 H 0.34201 0.56013 0.50623 0.0
H507 H 0.405 0.54688 0.49128 0.0
H508 H 0.37165 0.83056 0.48338 0.0
H509 H 0.43993 0.81731 0.47386 0.0
H510 H 0.31435 0.80637 0.51027 0.0
H511 H 0.27482 0.74866 0.51899 0.0
C512 C 0.28776 0.24468 0.40715 0.0
C513 C 0.28131 0.26714 0.43165 0.0
C514 C 0.18196 0.28364 0.423 0.0
C515 C 0.19 0.26755 0.39754 0.0
N516 N 0.25334 0.24108 0.36432 0.0
N517 N 0.22344 0.31128 0.46285 0.0
C518 C 0.2435 0.24964 0.38937 0.0
C519 C 0.22867 0.28754 0.43956 0.0
N520 N 0.3364 0.21885 0.40078 0.0
N521 N 0.12931 0.2932 0.43157 0.0
H522 H 0.25563 0.31191 0.47605 0.0
H523 H 0.1883 0.33309 0.46864 0.0
H524 H 0.09426 0.28961 0.42009 0.0
H525 H 0.11973 0.29965 0.45043 0.0
H526 H 0.34149 0.19601 0.38425 0.0
H527 H 0.37037 0.21629 0.41296 0.0
H528 H 0.29282 0.23454 0.35694 0.0
H529 H 0.2231 0.24559 0.35041 0.0
C530 C 0.31445 0.7629 0.63672 0.0
C531 C 0.26519 0.73342 0.6303 0.0
C532 C 0.21318 0.79934 0.65698 0.0
C533 C 0.26374 0.82155 0.66673 0.0
N534 N 0.36321 0.80703 0.67088 0.0
N535 N 0.16846 0.71693 0.64032 0.0
C536 C 0.31466 0.79828 0.65811 0.0
C537 C 0.21461 0.74965 0.64212 0.0
N538 N 0.36061 0.75974 0.62193 0.0
N539 N 0.16397 0.82637 0.6608 0.0
H540 H 0.16837 0.67822 0.63142 0.0
H541 H 0.13229 0.72521 0.6504 0.0
H542 H 0.16114 0.86493 0.66974 0.0
H543 H 0.12701 0.81375 0.65225 0.0
H544 H 0.39586 0.78384 0.62536 0.0
H545 H 0.36099 0.73969 0.60451 0.0
H546 H 0.40024 0.78735 0.66584 0.0
H547 H 0.36508 0.82693 0.6883 0.0
C548 C 0.79172 0.73579 0.43791 0.0
C549 C 0.73972 0.75974 0.4311 0.0
C550 C 0.77538 0.77871 0.38874 0.0
C551 C 0.82853 0.75759 0.39595 0.0
N552 N 0.89019 0.72686 0.4289 0.0
N553 N 0.68516 0.81351 0.40187 0.0
C554 C 0.83748 0.73917 0.42099 0.0
C555 C 0.73276 0.78459 0.40715 0.0
N556 N 0.7972 0.70904 0.46046 0.0
N557 N 0.76406 0.78946 0.36399 0.0
H558 H 0.65234 0.81692 0.41454 0.0
H559 H 0.68012 0.83789 0.38584 0.0
H560 H 0.79287 0.78416 0.34961 0.0
H561 H 0.72441 0.7986 0.35725 0.0
H562 H 0.8316 0.6849 0.46528 0.0
H563 H 0.76566 0.70803 0.47383 0.0
H564 H 0.90052 0.71856 0.44756 0.0
H565 H 0.92473 0.7302 0.41722 0.0
C566 C 0.74931 0.1799 0.63814 0.0
C567 C 0.75739 0.19187 0.66406 0.0
C568 C 0.76688 0.29161 0.65398 0.0
C569 C 0.75147 0.28019 0.62874 0.0
N570 N 0.72457 0.21417 0.59667 0.0
N571 N 0.76786 0.26007 0.69728 0.0
C572 C 0.74186 0.22446 0.62078 0.0
C573 C 0.76533 0.24794 0.67215 0.0
N574 N 0.75071 0.1258 0.63002 0.0
N575 N 0.78293 0.34426 0.66058 0.0
H576 H 0.76659 0.2298 0.71127 0.0
H577 H 0.76686 0.30048 0.70444 0.0
H578 H 0.78298 0.37734 0.64789 0.0
H579 H 0.80039 0.35418 0.67797 0.0
H580 H 0.75065 0.11431 0.61112 0.0
H581 H 0.75741 0.09231 0.64214 0.0
H582 H 0.71012 0.17556 0.59056 0.0
H583 H 0.72141 0.24515 0.583 0.0
C584 C 0.2083 0.27963 0.90134 0.0
C585 C 0.21918 0.25091 0.92413 0.0
C586 C 0.31193 0.22491 0.9086 0.0
C587 C 0.29828 0.24757 0.88473 0.0
N588 N 0.2309 0.29086 0.85722 0.0
N589 N 0.28015 0.19432 0.94959 0.0
C590 C 0.24606 0.27415 0.88086 0.0
C591 C 0.27077 0.22309 0.92781 0.0
N592 N 0.16155 0.31173 0.89915 0.0
N593 N 0.36494 0.20683 0.91313 0.0
H594 H 0.25283 0.19519 0.96478 0.0
H595 H 0.31358 0.16735 0.95224 0.0
H596 H 0.39616 0.20836 0.89959 0.0
H597 H 0.37947 0.19495 0.93079 0.0
H598 H 0.15431 0.33873 0.88419 0.0
H599 H 0.13175 0.31476 0.91327 0.0
H600 H 0.19106 0.30432 0.85254 0.0
H601 H 0.25671 0.2871 0.84161 0.0
C602 C 0.2698 0.7383 0.16779 0.0
C603 C 0.25297 0.68389 0.16017 0.0
C604 C 0.23496 0.71889 0.11742 0.0
C605 C 0.25412 0.77251 0.12482 0.0
N606 N 0.29979 0.83079 0.15544 0.0
N607 N 0.23008 0.61993 0.12677 0.0
C608 C 0.27511 0.78124 0.14946 0.0
C609 C 0.23849 0.67352 0.13467 0.0
N610 N 0.27696 0.75025 0.19277 0.0
N611 N 0.21275 0.71147 0.09393 0.0
H612 H 0.2334 0.58579 0.1388 0.0
H613 H 0.22484 0.60865 0.10799 0.0
H614 H 0.21258 0.74258 0.08026 0.0
H615 H 0.19177 0.67558 0.08839 0.0
H616 H 0.28265 0.79048 0.19969 0.0
H617 H 0.2722 0.72099 0.20703 0.0
H618 H 0.32159 0.8375 0.17213 0.0
H619 H 0.30247 0.86391 0.14284 0.0
C620 C 0.804 0.73321 0.9028 0.0
C621 C 0.79446 0.76113 0.92595 0.0
C622 C 0.69968 0.78471 0.91209 0.0
C623 C 0.71177 0.76325 0.88781 0.0
N624 N 0.77748 0.72211 0.85898 0.0
N625 N 0.73443 0.8155 0.95273 0.0
C626 C 0.76422 0.73809 0.88294 0.0
C627 C 0.74253 0.78735 0.93063 0.0
N628 N 0.85133 0.7024 0.89971 0.0
N629 N 0.64659 0.80083 0.91764 0.0
H630 H 0.76325 0.81529 0.96744 0.0
H631 H 0.70052 0.84145 0.95606 0.0
H632 H 0.61409 0.79849 0.90464 0.0
H633 H 0.63344 0.81165 0.93564 0.0
H634 H 0.85806 0.67609 0.88442 0.0
H635 H 0.88226 0.69969 0.91345 0.0
H636 H 0.81714 0.70967 0.85358 0.0
H637 H 0.75 0.72536 0.84386 0.0
C638 C 0.74376 0.23619 0.15019 0.0
C639 C 0.76498 0.24496 0.12569 0.0
C640 C 0.78029 0.344 0.13589 0.0
C641 C 0.76548 0.33363 0.16127 0.0
N642 N 0.74132 0.26719 0.19356 0.0
N643 N 0.80665 0.30609 0.09521 0.0
C644 C 0.74874 0.27915 0.16865 0.0
C645 C 0.78416 0.29862 0.11855 0.0
N646 N 0.71917 0.18656 0.15592 0.0
N647 N 0.78861 0.3976 0.12814 0.0
H648 H 0.80702 0.27502 0.08145 0.0
H649 H 0.82767 0.34202 0.08991 0.0
H650 H 0.78499 0.43176 0.14021 0.0
H651 H 0.79405 0.40887 0.10942 0.0
H652 H 0.69716 0.17984 0.17246 0.0
H653 H 0.71681 0.15337 0.14326 0.0
H654 H 0.73569 0.22695 0.20035 0.0
H655 H 0.74582 0.29647 0.20792 0.0
C656 C 0.04027 0.95809 0.31899 0.0
C657 C 0.9817 0.95953 0.32216 0.0
C658 C 0.9855 0.05956 0.33072 0.0
C659 C 0.04267 0.05918 0.32393 0.0
N660 N 0.12462 0.00984 0.31066 0.0
N661 N 0.89748 0.00998 0.33067 0.0
C662 C 0.07023 1.00884 0.31796 0.0
C663 C 0.95402 0.00971 0.3283 0.0
N664 N 0.0673 0.90799 0.31758 0.0
N665 N 0.96127 0.10773 0.33913 0.0
H666 H 0.87372 0.97373 0.32969 0.0
H667 H 0.87365 0.04603 0.33226 0.0
H668 H 0.98222 0.14561 0.34025 0.0
H669 H 0.92152 0.1097 0.34669 0.0
H670 H 0.11035 0.90386 0.31762 0.0
H671 H 0.04674 0.86996 0.31878 0.0
H672 H 0.14523 0.97565 0.30299 0.0
H673 H 0.14854 0.04604 0.31107 0.0
C674 C 0.98941 0.0647 0.76908 0.0
C675 C 0.94875 0.03363 0.75596 0.0
C676 C 0.01659 0.95945 0.74789 0.0
C677 C 0.05878 0.99287 0.75883 0.0
N678 N 0.08712 0.08356 0.77455 0.0
N679 N 0.92532 0.95649 0.72875 0.0
C680 C 0.04576 0.0472 0.76811 0.0
C681 C 0.96297 0.98269 0.74397 0.0
N682 N 0.97429 0.11096 0.78249 0.0
N683 N 0.02672 0.90462 0.74252 0.0
H684 H 0.88543 0.97196 0.7256 0.0
H685 H 0.93528 0.92234 0.71748 0.0
H686 H 0.06465 0.88524 0.74627 0.0
H687 H 0.99586 0.87686 0.73689 0.0
H688 H 1.00097 0.13134 0.79493 0.0
H689 H 0.93386 0.12673 0.78251 0.0
H690 H 0.0799 0.12529 0.77891 0.0
H691 H 0.12921 0.07432 0.77297 0.0
C692 C 0.97136 0.46272 1.01713 0.0
C693 C 0.02963 0.45296 1.01843 0.0
C694 C 0.04637 0.55354 1.01729 0.0
C695 C 0.98812 0.56328 1.01864 0.0
N696 N 0.89541 0.52764 1.02373 0.0
N697 N 0.12243 0.48857 1.02363 0.0
C698 C 0.95062 0.51799 1.0196 0.0
C699 C 0.06715 0.49825 1.01955 0.0
N700 N 0.93589 0.41945 1.01244 0.0
N701 N 0.08177 0.59682 1.01275 0.0
H702 H 0.13912 0.4486 1.02539 0.0
H703 H 0.15095 0.52007 0.02744 0.0
H704 H 0.06839 0.63786 1.01055 0.0
H705 H 0.12379 0.59146 1.00882 0.0
H706 H 0.89379 0.42483 1.00855 0.0
H707 H 0.94923 0.37842 1.0101 0.0
H708 H 0.86697 0.49611 0.02743 0.0
H709 H 0.87876 0.56759 1.02567 0.0
C710 C 0.50339 0.94922 0.04311 0.0
C711 C 0.45576 0.98394 0.04356 0.0
C712 C 0.51474 0.06727 0.04302 0.0
C713 C 0.56236 0.03256 0.04379 0.0
N714 N 0.60251 0.94139 0.05033 0.0
N715 N 0.41557 0.07527 0.04973 0.0
C716 C 0.55683 0.97372 0.04552 0.0
C717 C 0.46128 0.04282 0.04521 0.0
N718 N 0.49774 0.89315 0.03933 0.0
N719 N 0.52042 0.12326 0.03916 0.0
H720 H 0.37579 0.0589 0.05187 0.0
H721 H 0.41772 0.11771 0.05374 0.0
H722 H 0.55894 0.14269 0.03758 0.0
H723 H 0.48705 0.14977 0.03553 0.0
H724 H 0.53114 0.86656 0.03593 0.0
H725 H 0.45923 0.87368 0.03756 0.0
H726 H 0.60035 0.89903 0.05441 0.0
H727 H 0.64228 0.95782 0.05263 0.0
C728 C 0.43049 0.5129 0.80933 0.0
C729 C 0.46236 0.46352 0.81119 0.0
C730 C 0.54867 0.51752 0.81249 0.0
C731 C 0.51685 0.56698 0.81039 0.0
N732 N 0.42819 0.61367 0.81289 0.0
N733 N 0.54938 0.41804 0.82053 0.0
C734 C 0.45784 0.56522 0.81074 0.0
C735 C 0.52079 0.46568 0.81477 0.0
N736 N 0.37451 0.50963 0.80519 0.0
N737 N 0.6053 0.51985 0.81098 0.0
H738 H 0.53006 0.37939 0.82236 0.0
H739 H 0.59113 0.41742 0.82568 0.0
H740 H 0.62708 0.55725 0.80969 0.0
H741 H 0.63061 0.48481 0.80935 0.0
H742 H 0.34974 0.54379 0.80065 0.0
H743 H 0.35313 0.47186 0.80499 0.0
H744 H 0.38542 0.61513 0.81563 0.0
H745 H 0.44706 0.65266 0.81416 0.0
C746 C 0.556 0.53188 0.22865 0.0
C747 C 0.55671 0.47498 0.23623 0.0
C748 C 0.45595 0.47663 0.24119 0.0
C749 C 0.45622 0.53513 0.23703 0.0
N750 N 0.50511 0.61957 0.22743 0.0
N751 N 0.50907 0.3934 0.25096 0.0
C752 C 0.50577 0.56303 0.23057 0.0
C753 C 0.50708 0.44731 0.24274 0.0
N754 N 0.60349 0.55622 0.21993 0.0
N755 N 0.40656 0.4489 0.24289 0.0
H756 H 0.54552 0.36976 0.25096 0.0
H757 H 0.47546 0.37305 0.25905 0.0
H758 H 0.36826 0.46884 0.24125 0.0
H759 H 0.40329 0.40568 0.2435 0.0
H760 H 0.60462 0.59552 0.21174 0.0
H761 H 0.64168 0.53576 0.21925 0.0
H762 H 0.54065 0.64375 0.22555 0.0
H763 H 0.46864 0.6431 0.22813 0.0
C764 C 0.55469 0.05714 0.51678 0.0
C765 C 0.49632 0.06515 0.5189 0.0
C766 C 0.48283 0.96409 0.51982 0.0
C767 C 0.54143 0.95637 0.52062 0.0
N768 N 0.63334 0.99543 0.52331 0.0
N769 N 0.40521 0.02713 0.52601 0.0
C770 C 0.57749 1.00287 0.51997 0.0
C771 C 0.46042 0.01885 0.52133 0.0
N772 N 0.58815 0.10105 0.51072 0.0
N773 N 0.44857 0.91924 0.51657 0.0
H774 H 0.38727 0.06665 0.52724 0.0
H775 H 0.37813 0.99513 0.53081 0.0
H776 H 0.46316 0.87845 0.51496 0.0
H777 H 0.40612 0.92283 0.51307 0.0
H778 H 0.63003 0.09671 0.50627 0.0
H779 H 0.57308 0.14129 0.50779 0.0
H780 H 0.66108 0.02822 0.52584 0.0
H781 H 0.65149 0.95628 0.52571 0.0
C782 C 0.97009 0.53163 0.5429 0.0
C783 C 0.96394 0.47364 0.53789 0.0
C784 C 0.06482 0.46473 0.53371 0.0
C785 C 0.07011 0.52368 0.53589 0.0
N786 N 0.02648 0.6141 0.53753 0.0
N787 N 1.0043 0.38669 0.52434 0.0
C788 C 0.02234 0.55741 0.53902 0.0
C789 C 0.011 0.4406 0.5321 0.0
N790 N 0.92686 0.56172 0.55265 0.0
N791 N 0.11097 0.43143 0.53447 0.0
H792 H 0.96547 0.36777 0.52284 0.0
H793 H 0.03664 0.36247 0.51724 0.0
H794 H 0.15117 0.44689 0.53635 0.0
H795 H 0.10911 0.38816 0.5357 0.0
H796 H 0.93092 0.60262 0.55901 0.0
H797 H 0.88848 0.54434 0.55699 0.0
H798 H 0.99205 0.64046 0.53699 0.0
H799 H 0.06398 0.6345 0.5343 0.0
loop_
_geom_bond_atom_site_label_1
_geom_bond_atom_site_label_2
_geom_bond_distance
_geom_bond_site_symmetry_2
_ccdc_geom_bond_type
O0 Cd1 2.223 . S
O0 C8 1.315 . S
Cd1 O0 2.223 . S
Cd1 O4 2.297 . S
Cd1 O5 2.439 . S
Cd1 O11 2.240 . S
Cd2 O3 2.240 . S
Cd2 O10 2.223 . S
Cd2 O12 2.297 . S
Cd2 O13 2.439 . S
O3 Cd2 2.240 . S
O3 C8 1.279 . S
O4 Cd1 2.297 . S
O4 C6 1.247 . S
O5 Cd1 2.439 . S
O5 C6 1.208 . S
C6 O4 1.247 . S
C6 O5 1.208 . S
C7 O12 1.247 . S
C7 O13 1.208 . S
C8 O0 1.315 . S
C8 O3 1.279 . S
C9 O10 1.315 . S
C9 O11 1.279 . S
O10 Cd2 2.223 . S
O10 C9 1.315 . S
O11 Cd1 2.240 . S
O11 C9 1.279 . S
O12 Cd2 2.297 . S
O12 C7 1.247 . S
O13 Cd2 2.439 . S
O13 C7 1.208 . S
O14 Cd15 2.223 . S
O14 C22 1.315 . S
Cd15 O14 2.223 . S
Cd15 O18 2.297 . S
Cd15 O19 2.439 . S
Cd15 O25 2.240 . S
Cd16 O17 2.240 . S
Cd16 O24 2.223 . S
Cd16 O26 2.297 . S
Cd16 O27 2.439 . S
O17 Cd16 2.240 . S
O17 C22 1.279 . S
O18 Cd15 2.297 . S
O18 C20 1.247 . S
O19 Cd15 2.439 . S
O19 C20 1.208 . S
C20 O18 1.247 . S
C20 O19 1.208 . S
C21 O26 1.247 . S
C21 O27 1.208 . S
C22 O14 1.315 . S
C22 O17 1.279 . S
C23 O24 1.315 . S
C23 O25 1.279 . S
O24 Cd16 2.223 . S
O24 C23 1.315 . S
O25 Cd15 2.240 . S
O25 C23 1.279 . S
O26 Cd16 2.297 . S
O26 C21 1.247 . S
O27 Cd16 2.439 . S
O27 C21 1.208 . S
O28 Cd29 2.223 . S
O28 C36 1.315 . S
Cd29 O28 2.223 . S
Cd29 O32 2.297 . S
Cd29 O33 2.439 . S
Cd29 O39 2.240 . S
Cd30 O31 2.240 . S
Cd30 O38 2.223 . S
Cd30 O40 2.297 . S
Cd30 O41 2.439 . S
O31 Cd30 2.240 . S
O31 C36 1.279 . S
O32 Cd29 2.297 . S
O32 C34 1.247 . S
O33 Cd29 2.439 . S
O33 C34 1.208 . S
C34 O32 1.247 . S
C34 O33 1.208 . S
C35 O40 1.247 . S
C35 O41 1.208 . S
C36 O28 1.315 . S
C36 O31 1.279 . S
C37 O38 1.315 . S
C37 O39 1.279 . S
O38 Cd30 2.223 . S
O38 C37 1.315 . S
O39 Cd29 2.240 . S
O39 C37 1.279 . S
O40 Cd30 2.297 . S
O40 C35 1.247 . S
O41 Cd30 2.439 . S
O41 C35 1.208 . S
O42 Cd43 2.223 . S
O42 C50 1.315 . S
Cd43 O42 2.223 . S
Cd43 O46 2.297 . S
Cd43 O47 2.439 . S
Cd43 O53 2.240 . S
Cd44 O45 2.240 . S
Cd44 O52 2.223 . S
Cd44 O54 2.297 . S
Cd44 O55 2.439 . S
O45 Cd44 2.240 . S
O45 C50 1.279 . S
O46 Cd43 2.297 . S
O46 C48 1.247 . S
O47 Cd43 2.439 . S
O47 C48 1.208 . S
C48 O46 1.247 . S
C48 O47 1.208 . S
C49 O54 1.247 . S
C49 O55 1.208 . S
C50 O42 1.315 . S
C50 O45 1.279 . S
C51 O52 1.315 . S
C51 O53 1.279 . S
O52 Cd44 2.223 . S
O52 C51 1.315 . S
O53 Cd43 2.240 . S
O53 C51 1.279 . S
O54 Cd44 2.297 . S
O54 C49 1.247 . S
O55 Cd44 2.439 . S
O55 C49 1.208 . S
O56 Cd57 2.223 . S
O56 C64 1.315 . S
Cd57 O56 2.223 . S
Cd57 O60 2.297 . S
Cd57 O61 2.439 . S
Cd57 O67 2.240 . S
Cd58 O59 2.240 . S
Cd58 O66 2.223 1_556 S
Cd58 O68 2.297 1_556 S
Cd58 O69 2.439 . S
O59 Cd58 2.240 . S
O59 C64 1.279 . S
O60 Cd57 2.297 . S
O60 C62 1.247 . S
O61 Cd57 2.439 . S
O61 C62 1.208 . S
C62 O60 1.247 . S
C62 O61 1.208 . S
C63 O68 1.247 1_556 S
C63 O69 1.208 . S
C64 O56 1.315 . S
C64 O59 1.279 . S
C65 O66 1.315 1_556 S
C65 O67 1.279 . S
O66 Cd58 2.223 1_554 S
O66 C65 1.315 1_554 S
O67 Cd57 2.240 . S
O67 C65 1.279 . S
O68 Cd58 2.297 1_554 S
O68 C63 1.247 1_554 S
O69 Cd58 2.439 . S
O69 C63 1.208 . S
O70 Cd71 2.223 . S
O70 C78 1.315 . S
Cd71 O70 2.223 . S
Cd71 O74 2.297 . S
Cd71 O75 2.439 . S
Cd71 O81 2.240 . S
Cd72 O73 2.240 . S
Cd72 O80 2.223 1_554 S
Cd72 O82 2.297 1_554 S
Cd72 O83 2.439 . S
O73 Cd72 2.240 . S
O73 C78 1.279 . S
O74 Cd71 2.297 . S
O74 C76 1.247 . S
O75 Cd71 2.439 . S
O75 C76 1.208 . S
C76 O74 1.247 . S
C76 O75 1.208 . S
C77 O82 1.247 1_554 S
C77 O83 1.208 . S
C78 O70 1.315 . S
C78 O73 1.279 . S
C79 O80 1.315 1_554 S
C79 O81 1.279 . S
O80 Cd72 2.223 1_556 S
O80 C79 1.315 1_556 S
O81 Cd71 2.240 . S
O81 C79 1.279 . S
O82 Cd72 2.297 1_556 S
O82 C77 1.247 1_556 S
O83 Cd72 2.439 . S
O83 C77 1.208 . S
O84 Cd85 2.223 . S
O84 C92 1.315 . S
Cd85 O84 2.223 . S
Cd85 O88 2.297 . S
Cd85 O89 2.439 . S
Cd85 O95 2.240 . S
Cd86 O87 2.240 . S
Cd86 O94 2.223 1_556 S
Cd86 O96 2.297 1_556 S
Cd86 O97 2.439 . S
O87 Cd86 2.240 . S
O87 C92 1.279 . S
O88 Cd85 2.297 . S
O88 C90 1.247 . S
O89 Cd85 2.439 . S
O89 C90 1.208 . S
C90 O88 1.247 . S
C90 O89 1.208 . S
C91 O96 1.247 1_556 S
C91 O97 1.208 . S
C92 O84 1.315 . S
C92 O87 1.279 . S
C93 O94 1.315 1_556 S
C93 O95 1.279 . S
O94 Cd86 2.223 1_554 S
O94 C93 1.315 1_554 S
O95 Cd85 2.240 . S
O95 C93 1.279 . S
O96 Cd86 2.297 1_554 S
O96 C91 1.247 1_554 S
O97 Cd86 2.439 . S
O97 C91 1.208 . S
O98 Cd99 2.223 . S
O98 C106 1.315 . S
Cd99 O98 2.223 . S
Cd99 O102 2.297 . S
Cd99 O103 2.439 . S
Cd99 O109 2.240 . S
Cd100 O101 2.240 . S
Cd100 O108 2.223 1_554 S
Cd100 O110 2.297 1_554 S
Cd100 O111 2.439 . S
O101 Cd100 2.240 . S
O101 C106 1.279 . S
O102 Cd99 2.297 . S
O102 C104 1.247 . S
O103 Cd99 2.439 . S
O103 C104 1.208 . S
C104 O102 1.247 . S
C104 O103 1.208 . S
C105 O110 1.247 1_554 S
C105 O111 1.208 . S
C106 O98 1.315 . S
C106 O101 1.279 . S
C107 O108 1.315 1_554 S
C107 O109 1.279 . S
O108 Cd100 2.223 1_556 S
O108 C107 1.315 1_556 S
O109 Cd99 2.240 . S
O109 C107 1.279 . S
O110 Cd100 2.297 1_556 S
O110 C105 1.247 1_556 S
O111 Cd100 2.439 . S
O111 C105 1.208 . S
O112 Cd113 2.223 . S
O112 C120 1.315 . S
Cd113 O112 2.223 . S
Cd113 O116 2.297 . S
Cd113 O117 2.439 . S
Cd113 O123 2.240 . S
Cd114 O115 2.240 . S
Cd114 O122 2.223 . S
Cd114 O124 2.297 . S
Cd114 O125 2.439 . S
O115 Cd114 2.240 . S
O115 C120 1.279 . S
O116 Cd113 2.297 . S
O116 C118 1.247 . S
O117 Cd113 2.439 . S
O117 C118 1.208 . S
C118 O116 1.247 . S
C118 O117 1.208 . S
C119 O124 1.247 . S
C119 O125 1.208 . S
C120 O112 1.315 . S
C120 O115 1.279 . S
C121 O122 1.315 . S
C121 O123 1.279 . S
O122 Cd114 2.223 . S
O122 C121 1.315 . S
O123 Cd113 2.240 . S
O123 C121 1.279 . S
O124 Cd114 2.297 . S
O124 C119 1.247 . S
O125 Cd114 2.439 . S
O125 C119 1.208 . S
O126 Cd127 2.223 . S
O126 C134 1.315 . S
Cd127 O126 2.223 . S
Cd127 O130 2.297 . S
Cd127 O131 2.439 . S
Cd127 O137 2.240 . S
Cd128 O129 2.240 . S
Cd128 O136 2.223 . S
Cd128 O138 2.297 . S
Cd128 O139 2.439 . S
O129 Cd128 2.240 . S
O129 C134 1.279 . S
O130 Cd127 2.297 . S
O130 C132 1.247 . S
O131 Cd127 2.439 . S
O131 C132 1.208 . S
C132 O130 1.247 . S
C132 O131 1.208 . S
C133 O138 1.247 . S
C133 O139 1.208 . S
C134 O126 1.315 . S
C134 O129 1.279 . S
C135 O136 1.315 . S
C135 O137 1.279 . S
O136 Cd128 2.223 . S
O136 C135 1.315 . S
O137 Cd127 2.240 . S
O137 C135 1.279 . S
O138 Cd128 2.297 . S
O138 C133 1.247 . S
O139 Cd128 2.439 . S
O139 C133 1.208 . S
O140 Cd141 2.223 . S
O140 C148 1.315 . S
Cd141 O140 2.223 . S
Cd141 O144 2.297 . S
Cd141 O145 2.439 . S
Cd141 O151 2.240 . S
Cd142 O143 2.240 . S
Cd142 O150 2.223 . S
Cd142 O152 2.297 . S
Cd142 O153 2.439 . S
O143 Cd142 2.240 . S
O143 C148 1.279 . S
O144 Cd141 2.297 . S
O144 C146 1.247 . S
O145 Cd141 2.439 . S
O145 C146 1.208 . S
C146 O144 1.247 . S
C146 O145 1.208 . S
C147 O152 1.247 . S
C147 O153 1.208 . S
C148 O140 1.315 . S
C148 O143 1.279 . S
C149 O150 1.315 . S
C149 O151 1.279 . S
O150 Cd142 2.223 . S
O150 C149 1.315 . S
O151 Cd141 2.240 . S
O151 C149 1.279 . S
O152 Cd142 2.297 . S
O152 C147 1.247 . S
O153 Cd142 2.439 . S
O153 C147 1.208 . S
O154 Cd155 2.223 . S
O154 C162 1.315 . S
Cd155 O154 2.223 . S
Cd155 O158 2.297 . S
Cd155 O159 2.439 . S
Cd155 O165 2.240 . S
Cd156 O157 2.240 . S
Cd156 O164 2.223 . S
Cd156 O166 2.297 . S
Cd156 O167 2.439 . S
O157 Cd156 2.240 . S
O157 C162 1.279 . S
O158 Cd155 2.297 . S
O158 C160 1.247 . S
O159 Cd155 2.439 . S
O159 C160 1.208 . S
C160 O158 1.247 . S
C160 O159 1.208 . S
C161 O166 1.247 . S
C161 O167 1.208 . S
C162 O154 1.315 . S
C162 O157 1.279 . S
C163 O164 1.315 . S
C163 O165 1.279 . S
O164 Cd156 2.223 . S
O164 C163 1.315 . S
O165 Cd155 2.240 . S
O165 C163 1.279 . S
O166 Cd156 2.297 . S
O166 C161 1.247 . S
O167 Cd156 2.439 . S
O167 C161 1.208 . S
O168 Cd169 2.223 . S
O168 C176 1.315 . S
Cd169 O168 2.223 . S
Cd169 O172 2.297 . S
Cd169 O173 2.439 . S
Cd169 O179 2.240 . S
Cd170 O171 2.240 . S
Cd170 O178 2.223 . S
Cd170 O180 2.297 . S
Cd170 O181 2.439 . S
O171 Cd170 2.240 . S
O171 C176 1.279 . S
O172 Cd169 2.297 . S
O172 C174 1.247 . S
O173 Cd169 2.439 . S
O173 C174 1.208 . S
C174 O172 1.247 . S
C174 O173 1.208 . S
C175 O180 1.247 . S
C175 O181 1.208 . S
C176 O168 1.315 . S
C176 O171 1.279 . S
C177 O178 1.315 . S
C177 O179 1.279 . S
O178 Cd170 2.223 . S
O178 C177 1.315 . S
O179 Cd169 2.240 . S
O179 C177 1.279 . S
O180 Cd170 2.297 . S
O180 C175 1.247 . S
O181 Cd170 2.439 . S
O181 C175 1.208 . S
O182 Cd183 2.223 . S
O182 C190 1.315 . S
Cd183 O182 2.223 . S
Cd183 O186 2.297 . S
Cd183 O187 2.439 . S
Cd183 O193 2.240 . S
Cd184 O185 2.240 . S
Cd184 O192 2.223 . S
Cd184 O194 2.297 . S
Cd184 O195 2.439 . S
O185 Cd184 2.240 . S
O185 C190 1.279 . S
O186 Cd183 2.297 . S
O186 C188 1.247 . S
O187 Cd183 2.439 . S
O187 C188 1.208 . S
C188 O186 1.247 . S
C188 O187 1.208 . S
C189 O194 1.247 . S
C189 O195 1.208 . S
C190 O182 1.315 . S
C190 O185 1.279 . S
C191 O192 1.315 . S
C191 O193 1.279 . S
O192 Cd184 2.223 . S
O192 C191 1.315 . S
O193 Cd183 2.240 . S
O193 C191 1.279 . S
O194 Cd184 2.297 . S
O194 C189 1.247 . S
O195 Cd184 2.439 . S
O195 C189 1.208 . S
O196 Cd197 2.223 . S
O196 C204 1.315 . S
Cd197 O196 2.223 . S
Cd197 O200 2.297 . S
Cd197 O201 2.439 . S
Cd197 O207 2.240 . S
Cd198 O199 2.240 . S
Cd198 O206 2.223 . S
Cd198 O208 2.297 . S
Cd198 O209 2.439 . S
O199 Cd198 2.240 . S
O199 C204 1.279 . S
O200 Cd197 2.297 . S
O200 C202 1.247 . S
O201 Cd197 2.439 . S
O201 C202 1.208 . S
C202 O200 1.247 . S
C202 O201 1.208 . S
C203 O208 1.247 . S
C203 O209 1.208 . S
C204 O196 1.315 . S
C204 O199 1.279 . S
C205 O206 1.315 . S
C205 O207 1.279 . S
O206 Cd198 2.223 . S
O206 C205 1.315 . S
O207 Cd197 2.240 . S
O207 C205 1.279 . S
O208 Cd198 2.297 . S
O208 C203 1.247 . S
O209 Cd198 2.439 . S
O209 C203 1.208 . S
O210 Cd211 2.223 . S
O210 C218 1.315 . S
Cd211 O210 2.223 . S
Cd211 O214 2.297 . S
Cd211 O215 2.439 . S
Cd211 O221 2.240 . S
Cd212 O213 2.240 . S
Cd212 O220 2.223 . S
Cd212 O222 2.297 . S
Cd212 O223 2.439 . S
O213 Cd212 2.240 . S
O213 C218 1.279 . S
O214 Cd211 2.297 . S
O214 C216 1.247 . S
O215 Cd211 2.439 . S
O215 C216 1.208 . S
C216 O214 1.247 . S
C216 O215 1.208 . S
C217 O222 1.247 . S
C217 O223 1.208 . S
C218 O210 1.315 . S
C218 O213 1.279 . S
C219 O220 1.315 . S
C219 O221 1.279 . S
O220 Cd212 2.223 . S
O220 C219 1.315 . S
O221 Cd211 2.240 . S
O221 C219 1.279 . S
O222 Cd212 2.297 . S
O222 C217 1.247 . S
O223 Cd212 2.439 . S
O223 C217 1.208 . S
C224 C225 1.363 . S
C224 C230 1.379 . S
C224 N232 1.356 . S
C225 C224 1.363 . S
C225 C231 1.363 . S
C226 C227 1.363 . S
C226 C231 1.379 . S
C226 N233 1.356 . S
C227 C226 1.363 . S
C227 C230 1.363 . S
N228 C230 1.356 . S
N228 H240 0.984 . S
N228 H241 0.985 . S
N229 C231 1.356 . S
N229 H234 0.984 . S
N229 H235 0.985 . S
C230 C224 1.379 . S
C230 C227 1.363 . S
C230 N228 1.356 . S
C231 C225 1.363 . S
C231 C226 1.379 . S
C231 N229 1.356 . S
N232 C224 1.356 . S
N232 H238 0.984 . S
N232 H239 0.984 . S
N233 C226 1.356 . S
N233 H236 0.984 . S
N233 H237 0.985 . S
H234 N229 0.984 . S
H235 N229 0.985 . S
H236 N233 0.984 . S
H237 N233 0.985 . S
H238 N232 0.984 . S
H239 N232 0.984 . S
H240 N228 0.984 . S
H241 N228 0.985 . S
C242 C243 1.363 . S
C242 C248 1.379 . S
C242 N250 1.356 . S
C243 C242 1.363 . S
C243 C249 1.363 . S
C244 C245 1.363 . S
C244 C249 1.379 . S
C244 N251 1.356 . S
C245 C244 1.363 . S
C245 C248 1.363 . S
N246 C248 1.356 . S
N246 H258 0.984 . S
N246 H259 0.985 . S
N247 C249 1.356 . S
N247 H252 0.984 . S
N247 H253 0.985 . S
C248 C242 1.379 . S
C248 C245 1.363 . S
C248 N246 1.356 . S
C249 C243 1.363 . S
C249 C244 1.379 . S
C249 N247 1.356 . S
N250 C242 1.356 . S
N250 H256 0.984 . S
N250 H257 0.984 . S
N251 C244 1.356 . S
N251 H254 0.984 . S
N251 H255 0.985 . S
H252 N247 0.984 . S
H253 N247 0.985 . S
H254 N251 0.984 . S
H255 N251 0.985 . S
H256 N250 0.984 . S
H257 N250 0.984 . S
H258 N246 0.984 . S
H259 N246 0.985 . S
C260 C261 1.363 . S
C260 C266 1.379 . S
C260 N268 1.356 . S
C261 C260 1.363 . S
C261 C267 1.363 . S
C262 C263 1.363 . S
C262 C267 1.379 . S
C262 N269 1.356 . S
C263 C262 1.363 . S
C263 C266 1.363 . S
N264 C266 1.356 . S
N264 H276 0.984 . S
N264 H277 0.985 . S
N265 C267 1.356 . S
N265 H270 0.984 . S
N265 H271 0.985 . S
C266 C260 1.379 . S
C266 C263 1.363 . S
C266 N264 1.356 . S
C267 C261 1.363 . S
C267 C262 1.379 . S
C267 N265 1.356 . S
N268 C260 1.356 . S
N268 H274 0.984 . S
N268 H275 0.984 . S
N269 C262 1.356 . S
N269 H272 0.984 . S
N269 H273 0.985 . S
H270 N265 0.984 . S
H271 N265 0.985 . S
H272 N269 0.984 . S
H273 N269 0.985 . S
H274 N268 0.984 . S
H275 N268 0.984 . S
H276 N264 0.984 . S
H277 N264 0.985 . S
C278 C279 1.363 . S
C278 C284 1.379 . S
C278 N286 1.356 . S
C279 C278 1.363 . S
C279 C285 1.363 . S
C280 C281 1.363 . S
C280 C285 1.379 . S
C280 N287 1.356 . S
C281 C280 1.363 . S
C281 C284 1.363 . S
N282 C284 1.356 . S
N282 H294 0.984 . S
N282 H295 0.985 . S
N283 C285 1.356 . S
N283 H288 0.984 . S
N283 H289 0.985 . S
C284 C278 1.379 . S
C284 C281 1.363 . S
C284 N282 1.356 . S
C285 C279 1.363 . S
C285 C280 1.379 . S
C285 N283 1.356 . S
N286 C278 1.356 . S
N286 H292 0.984 . S
N286 H293 0.984 . S
N287 C280 1.356 . S
N287 H290 0.984 . S
N287 H291 0.985 . S
H288 N283 0.984 . S
H289 N283 0.985 . S
H290 N287 0.984 . S
H291 N287 0.985 . S
H292 N286 0.984 . S
H293 N286 0.984 . S
H294 N282 0.984 . S
H295 N282 0.985 . S
C296 C297 1.363 . S
C296 C302 1.379 . S
C296 N304 1.356 . S
C297 C296 1.363 . S
C297 C303 1.363 1_554 S
C298 C299 1.363 . S
C298 C303 1.379 . S
C298 N305 1.356 . S
C299 C298 1.363 . S
C299 C302 1.363 1_556 S
N300 C302 1.356 . S
N300 H312 0.984 . S
N300 H313 0.985 . S
N301 C303 1.356 . S
N301 H306 0.984 1_545 S
N301 H307 0.985 . S
C302 C296 1.379 . S
C302 C299 1.363 1_554 S
C302 N300 1.356 . S
C303 C297 1.363 1_556 S
C303 C298 1.379 . S
C303 N301 1.356 . S
N304 C296 1.356 . S
N304 H310 0.984 . S
N304 H311 0.984 1_545 S
N305 C298 1.356 . S
N305 H308 0.984 . S
N305 H309 0.985 . S
H306 N301 0.984 1_565 S
H307 N301 0.985 . S
H308 N305 0.984 . S
H309 N305 0.985 . S
H310 N304 0.984 . S
H311 N304 0.984 1_565 S
H312 N300 0.984 . S
H313 N300 0.985 . S
C314 C315 1.363 . S
C314 C320 1.379 1_554 S
C314 N322 1.356 . S
C315 C314 1.363 . S
C315 C321 1.363 1_554 S
C316 C317 1.363 . S
C316 C321 1.379 . S
C316 N323 1.356 . S
C317 C316 1.363 . S
C317 C320 1.363 . S
N318 C320 1.356 1_655 S
N318 H330 0.984 . S
N318 H331 0.985 . S
N319 C321 1.356 . S
N319 H324 0.984 1_556 S
N319 H325 0.985 . S
C320 C314 1.379 1_556 S
C320 C317 1.363 . S
C320 N318 1.356 1_455 S
C321 C315 1.363 1_556 S
C321 C316 1.379 . S
C321 N319 1.356 . S
N322 C314 1.356 . S
N322 H328 0.984 . S
N322 H329 0.984 . S
N323 C316 1.356 . S
N323 H326 0.984 . S
N323 H327 0.985 . S
H324 N319 0.984 1_554 S
H325 N319 0.985 . S
H326 N323 0.984 . S
H327 N323 0.985 . S
H328 N322 0.984 . S
H329 N322 0.984 . S
H330 N318 0.984 . S
H331 N318 0.985 . S
C332 C333 1.363 . S
C332 C338 1.379 . S
C332 N340 1.356 . S
C333 C332 1.363 . S
C333 C339 1.363 1_556 S
C334 C335 1.363 . S
C334 C339 1.379 . S
C334 N341 1.356 . S
C335 C334 1.363 . S
C335 C338 1.363 1_554 S
N336 C338 1.356 1_545 S
N336 H348 0.984 . S
N336 H349 1.006 . S
N337 C339 1.356 . S
N337 H342 0.984 . S
N337 H343 0.985 . S
C338 C332 1.379 . S
C338 C335 1.363 1_556 S
C338 N336 1.356 1_565 S
C339 C333 1.363 1_554 S
C339 C334 1.379 . S
C339 N337 1.356 . S
N340 C332 1.356 . S
N340 H346 0.984 . S
N340 H347 0.984 . S
N341 C334 1.356 . S
N341 H344 0.984 . S
N341 H345 0.985 . S
H342 N337 0.984 . S
H343 N337 0.985 . S
H344 N341 0.984 . S
H345 N341 0.985 . S
H346 N340 0.984 . S
H347 N340 0.984 . S
H348 N336 0.984 . S
H349 N336 1.006 . S
C350 C351 1.363 1_556 S
C350 C356 1.379 . S
C350 N358 1.356 . S
C351 C350 1.363 1_554 S
C351 C357 1.363 . S
C352 C353 1.363 1_554 S
C352 C357 1.379 . S
C352 N359 1.356 1_655 S
C353 C352 1.363 1_556 S
C353 C356 1.363 . S
N354 C356 1.356 . S
N354 H366 0.984 . S
N354 H367 0.985 . S
N355 C357 1.356 . S
N355 H360 0.984 . S
N355 H361 0.985 . S
C356 C350 1.379 . S
C356 C353 1.363 . S
C356 N354 1.356 . S
C357 C351 1.363 . S
C357 C352 1.379 . S
C357 N355 1.356 . S
N358 C350 1.356 . S
N358 H364 0.984 . S
N358 H365 0.984 . S
N359 C352 1.356 1_455 S
N359 H362 0.984 1_554 S
N359 H363 0.985 . S
H360 N355 0.984 . S
H361 N355 0.985 . S
H362 N359 0.984 1_556 S
H363 N359 0.985 . S
H364 N358 0.984 . S
H365 N358 0.984 . S
H366 N354 0.984 . S
H367 N354 0.985 . S
C368 C369 1.363 . S
C368 C374 1.379 . S
C368 N376 1.356 . S
C369 C368 1.363 . S
C369 C375 1.363 . S
C370 C371 1.363 . S
C370 C375 1.379 . S
C370 N377 1.356 . S
C371 C370 1.363 . S
C371 C374 1.363 . S
N372 C374 1.356 . S
N372 H384 0.984 . S
N372 H385 0.985 1_565 S
N373 C375 1.356 . S
N373 H378 0.984 . S
N373 H379 0.985 . S
C374 C368 1.379 . S
C374 C371 1.363 . S
C374 N372 1.356 . S
C375 C369 1.363 . S
C375 C370 1.379 . S
C375 N373 1.356 . S
N376 C368 1.356 . S
N376 H382 0.984 . S
N376 H383 0.984 . S
N377 C370 1.356 . S
N377 H380 0.984 1_565 S
N377 H381 0.985 . S
H378 N373 0.984 . S
H379 N373 0.985 . S
H380 N377 0.984 1_545 S
H381 N377 0.985 . S
H382 N376 0.984 . S
H383 N376 0.984 . S
H384 N372 0.984 . S
H385 N372 0.985 1_545 S
C386 C387 1.363 . S
C386 C392 1.379 . S
C386 N394 1.356 . S
C387 C386 1.363 . S
C387 C393 1.363 . S
C388 C389 1.363 . S
C388 C393 1.379 . S
C388 N395 1.356 . S
C389 C388 1.363 . S
C389 C392 1.363 . S
N390 C392 1.356 . S
N390 H402 0.984 . S
N390 H403 0.985 . S
N391 C393 1.356 . S
N391 H396 0.984 1_655 S
N391 H397 0.985 . S
C392 C386 1.379 . S
C392 C389 1.363 . S
C392 N390 1.356 . S
C393 C387 1.363 . S
C393 C388 1.379 . S
C393 N391 1.356 . S
N394 C386 1.356 . S
N394 H400 0.984 . S
N394 H401 0.984 . S
N395 C388 1.356 . S
N395 H398 0.984 . S
N395 H399 0.985 . S
H396 N391 0.984 1_455 S
H397 N391 0.985 . S
H398 N395 0.984 . S
H399 N395 0.985 . S
H400 N394 0.984 . S
H401 N394 0.984 . S
H402 N390 0.984 . S
H403 N390 0.985 . S
C404 C405 1.363 . S
C404 C410 1.379 . S
C404 N412 1.356 . S
C405 C404 1.363 . S
C405 C411 1.363 . S
C406 C407 1.363 . S
C406 C411 1.379 . S
C406 N413 1.356 . S
C407 C406 1.363 . S
C407 C410 1.363 . S
N408 C410 1.356 . S
N408 H420 0.984 . S
N408 H421 0.985 . S
N409 C411 1.356 . S
N409 H414 0.984 . S
N409 H415 0.985 . S
C410 C404 1.379 . S
C410 C407 1.363 . S
C410 N408 1.356 . S
C411 C405 1.363 . S
C411 C406 1.379 . S
C411 N409 1.356 . S
N412 C404 1.356 . S
N412 H418 0.984 . S
N412 H419 0.984 1_545 S
N413 C406 1.356 . S
N413 H416 0.984 . S
N413 H417 0.985 . S
H414 N409 0.984 . S
H415 N409 0.985 . S
H416 N413 0.984 . S
H417 N413 0.985 . S
H418 N412 0.984 . S
H419 N412 0.984 1_565 S
H420 N408 0.984 . S
H421 N408 0.985 . S
C422 C423 1.363 . S
C422 C428 1.379 . S
C422 N430 1.356 . S
C423 C422 1.363 . S
C423 C429 1.363 . S
C424 C425 1.363 . S
C424 C429 1.379 . S
C424 N431 1.356 . S
C425 C424 1.363 . S
C425 C428 1.363 . S
N426 C428 1.356 . S
N426 H438 0.984 . S
N426 H439 0.985 . S
N427 C429 1.356 . S
N427 H432 0.984 . S
N427 H433 0.985 . S
C428 C422 1.379 . S
C428 C425 1.363 . S
C428 N426 1.356 . S
C429 C423 1.363 . S
C429 C424 1.379 . S
C429 N427 1.356 . S
N430 C422 1.356 . S
N430 H436 0.984 . S
N430 H437 0.984 1_455 S
N431 C424 1.356 . S
N431 H434 0.984 . S
N431 H435 0.985 . S
H432 N427 0.984 . S
H433 N427 0.985 . S
H434 N431 0.984 . S
H435 N431 0.985 . S
H436 N430 0.984 . S
H437 N430 0.984 1_655 S
H438 N426 0.984 . S
H439 N426 0.985 . S
C440 C441 1.363 . S
C440 C446 1.379 . S
C440 N448 1.356 . S
C441 C440 1.363 . S
C441 C447 1.363 . S
C442 C443 1.363 . S
C442 C447 1.379 . S
C442 N449 1.356 . S
C443 C442 1.363 . S
C443 C446 1.363 . S
N444 C446 1.356 . S
N444 H456 0.984 . S
N444 H457 0.985 . S
N445 C447 1.356 . S
N445 H450 0.984 . S
N445 H451 0.985 . S
C446 C440 1.379 . S
C446 C443 1.363 . S
C446 N444 1.356 . S
C447 C441 1.363 . S
C447 C442 1.379 . S
C447 N445 1.356 . S
N448 C440 1.356 . S
N448 H454 0.984 . S
N448 H455 0.984 . S
N449 C442 1.356 . S
N449 H452 0.984 . S
N449 H453 0.985 . S
H450 N445 0.984 . S
H451 N445 0.985 . S
H452 N449 0.984 . S
H453 N449 0.985 . S
H454 N448 0.984 . S
H455 N448 0.984 . S
H456 N444 0.984 . S
H457 N444 0.985 . S
C458 C459 1.363 . S
C458 C464 1.379 . S
C458 N466 1.356 . S
C459 C458 1.363 . S
C459 C465 1.363 . S
C460 C461 1.363 . S
C460 C465 1.379 . S
C460 N467 1.356 . S
C461 C460 1.363 . S
C461 C464 1.363 . S
N462 C464 1.356 . S
N462 H474 0.984 . S
N462 H475 0.985 . S
N463 C465 1.356 . S
N463 H468 0.984 . S
N463 H469 0.985 . S
C464 C458 1.379 . S
C464 C461 1.363 . S
C464 N462 1.356 . S
C465 C459 1.363 . S
C465 C460 1.379 . S
C465 N463 1.356 . S
N466 C458 1.356 . S
N466 H472 0.984 . S
N466 H473 0.984 . S
N467 C460 1.356 . S
N467 H470 0.984 . S
N467 H471 0.985 . S
H468 N463 0.984 . S
H469 N463 0.985 . S
H470 N467 0.984 . S
H471 N467 0.985 . S
H472 N466 0.984 . S
H473 N466 0.984 . S
H474 N462 0.984 . S
H475 N462 0.985 . S
C476 C477 1.363 . S
C476 C482 1.379 . S
C476 N484 1.356 . S
C477 C476 1.363 . S
C477 C483 1.363 . S
C478 C479 1.363 . S
C478 C483 1.379 . S
C478 N485 1.356 . S
C479 C478 1.363 . S
C479 C482 1.363 . S
N480 C482 1.356 . S
N480 H492 0.984 . S
N480 H493 0.985 . S
N481 C483 1.356 . S
N481 H486 0.984 . S
N481 H487 0.985 . S
C482 C476 1.379 . S
C482 C479 1.363 . S
C482 N480 1.356 . S
C483 C477 1.363 . S
C483 C478 1.379 . S
C483 N481 1.356 . S
N484 C476 1.356 . S
N484 H490 0.984 . S
N484 H491 0.984 . S
N485 C478 1.356 . S
N485 H488 0.984 . S
N485 H489 0.985 . S
H486 N481 0.984 . S
H487 N481 0.985 . S
H488 N485 0.984 . S
H489 N485 0.985 . S
H490 N484 0.984 . S
H491 N484 0.984 . S
H492 N480 0.984 . S
H493 N480 0.985 . S
C494 C495 1.363 . S
C494 C500 1.379 . S
C494 N502 1.356 . S
C495 C494 1.363 . S
C495 C501 1.363 . S
C496 C497 1.363 . S
C496 C501 1.379 . S
C496 N503 1.356 . S
C497 C496 1.363 . S
C497 C500 1.363 . S
N498 C500 1.356 . S
N498 H510 0.984 . S
N498 H511 0.985 . S
N499 C501 1.356 . S
N499 H504 0.984 . S
N499 H505 0.985 . S
C500 C494 1.379 . S
C500 C497 1.363 . S
C500 N498 1.356 . S
C501 C495 1.363 . S
C501 C496 1.379 . S
C501 N499 1.356 . S
N502 C494 1.356 . S
N502 H508 0.984 . S
N502 H509 0.984 . S
N503 C496 1.356 . S
N503 H506 0.984 . S
N503 H507 0.985 . S
H504 N499 0.984 . S
H505 N499 0.985 . S
H506 N503 0.984 . S
H507 N503 0.985 . S
H508 N502 0.984 . S
H509 N502 0.984 . S
H510 N498 0.984 . S
H511 N498 0.985 . S
C512 C513 1.363 . S
C512 C518 1.379 . S
C512 N520 1.356 . S
C513 C512 1.363 . S
C513 C519 1.363 . S
C514 C515 1.363 . S
C514 C519 1.379 . S
C514 N521 1.356 . S
C515 C514 1.363 . S
C515 C518 1.363 . S
N516 C518 1.356 . S
N516 H528 0.984 . S
N516 H529 0.985 . S
N517 C519 1.356 . S
N517 H522 0.984 . S
N517 H523 0.985 . S
C518 C512 1.379 . S
C518 C515 1.363 . S
C518 N516 1.356 . S
C519 C513 1.363 . S
C519 C514 1.379 . S
C519 N517 1.356 . S
N520 C512 1.356 . S
N520 H526 0.984 . S
N520 H527 0.984 . S
N521 C514 1.356 . S
N521 H524 0.984 . S
N521 H525 0.985 . S
H522 N517 0.984 . S
H523 N517 0.985 . S
H524 N521 0.984 . S
H525 N521 0.985 . S
H526 N520 0.984 . S
H527 N520 0.984 . S
H528 N516 0.984 . S
H529 N516 0.985 . S
C530 C531 1.363 . S
C530 C536 1.379 . S
C530 N538 1.356 . S
C531 C530 1.363 . S
C531 C537 1.363 . S
C532 C533 1.363 . S
C532 C537 1.379 . S
C532 N539 1.356 . S
C533 C532 1.363 . S
C533 C536 1.363 . S
N534 C536 1.356 . S
N534 H546 0.984 . S
N534 H547 0.985 . S
N535 C537 1.356 . S
N535 H540 0.984 . S
N535 H541 0.985 . S
C536 C530 1.379 . S
C536 C533 1.363 . S
C536 N534 1.356 . S
C537 C531 1.363 . S
C537 C532 1.379 . S
C537 N535 1.356 . S
N538 C530 1.356 . S
N538 H544 0.984 . S
N538 H545 0.984 . S
N539 C532 1.356 . S
N539 H542 0.984 . S
N539 H543 0.985 . S
H540 N535 0.984 . S
H541 N535 0.985 . S
H542 N539 0.984 . S
H543 N539 0.985 . S
H544 N538 0.984 . S
H545 N538 0.984 . S
H546 N534 0.984 . S
H547 N534 0.985 . S
C548 C549 1.363 . S
C548 C554 1.379 . S
C548 N556 1.356 . S
C549 C548 1.363 . S
C549 C555 1.363 . S
C550 C551 1.363 . S
C550 C555 1.379 . S
C550 N557 1.356 . S
C551 C550 1.363 . S
C551 C554 1.363 . S
N552 C554 1.356 . S
N552 H564 0.984 . S
N552 H565 0.985 . S
N553 C555 1.356 . S
N553 H558 0.984 . S
N553 H559 0.985 . S
C554 C548 1.379 . S
C554 C551 1.363 . S
C554 N552 1.356 . S
C555 C549 1.363 . S
C555 C550 1.379 . S
C555 N553 1.356 . S
N556 C548 1.356 . S
N556 H562 0.984 . S
N556 H563 0.984 . S
N557 C550 1.356 . S
N557 H560 0.984 . S
N557 H561 0.985 . S
H558 N553 0.984 . S
H559 N553 0.985 . S
H560 N557 0.984 . S
H561 N557 0.985 . S
H562 N556 0.984 . S
H563 N556 0.984 . S
H564 N552 0.984 . S
H565 N552 0.985 . S
C566 C567 1.363 . S
C566 C572 1.379 . S
C566 N574 1.356 . S
C567 C566 1.363 . S
C567 C573 1.363 . S
C568 C569 1.363 . S
C568 C573 1.379 . S
C568 N575 1.356 . S
C569 C568 1.363 . S
C569 C572 1.363 . S
N570 C572 1.356 . S
N570 H582 0.984 . S
N570 H583 0.985 . S
N571 C573 1.356 . S
N571 H576 0.984 . S
N571 H577 0.985 . S
C572 C566 1.379 . S
C572 C569 1.363 . S
C572 N570 1.356 . S
C573 C567 1.363 . S
C573 C568 1.379 . S
C573 N571 1.356 . S
N574 C566 1.356 . S
N574 H580 0.984 . S
N574 H581 0.984 . S
N575 C568 1.356 . S
N575 H578 0.984 . S
N575 H579 0.985 . S
H576 N571 0.984 . S
H577 N571 0.985 . S
H578 N575 0.984 . S
H579 N575 0.985 . S
H580 N574 0.984 . S
H581 N574 0.984 . S
H582 N570 0.984 . S
H583 N570 0.985 . S
C584 C585 1.363 . S
C584 C590 1.379 . S
C584 N592 1.356 . S
C585 C584 1.363 . S
C585 C591 1.363 . S
C586 C587 1.363 . S
C586 C591 1.379 . S
C586 N593 1.356 . S
C587 C586 1.363 . S
C587 C590 1.363 . S
N588 C590 1.356 . S
N588 H600 0.984 . S
N588 H601 0.985 . S
N589 C591 1.356 . S
N589 H594 0.984 . S
N589 H595 0.985 . S
C590 C584 1.379 . S
C590 C587 1.363 . S
C590 N588 1.356 . S
C591 C585 1.363 . S
C591 C586 1.379 . S
C591 N589 1.356 . S
N592 C584 1.356 . S
N592 H598 0.984 . S
N592 H599 0.984 . S
N593 C586 1.356 . S
N593 H596 0.984 . S
N593 H597 0.985 . S
H594 N589 0.984 . S
H595 N589 0.985 . S
H596 N593 0.984 . S
H597 N593 0.985 . S
H598 N592 0.984 . S
H599 N592 0.984 . S
H600 N588 0.984 . S
H601 N588 0.985 . S
C602 C603 1.363 . S
C602 C608 1.379 . S
C602 N610 1.356 . S
C603 C602 1.363 . S
C603 C609 1.363 . S
C604 C605 1.363 . S
C604 C609 1.379 . S
C604 N611 1.356 . S
C605 C604 1.363 . S
C605 C608 1.363 . S
N606 C608 1.356 . S
N606 H618 0.984 . S
N606 H619 0.985 . S
N607 C609 1.356 . S
N607 H612 0.984 . S
N607 H613 0.985 . S
C608 C602 1.379 . S
C608 C605 1.363 . S
C608 N606 1.356 . S
C609 C603 1.363 . S
C609 C604 1.379 . S
C609 N607 1.356 . S
N610 C602 1.356 . S
N610 H616 0.984 . S
N610 H617 0.984 . S
N611 C604 1.356 . S
N611 H614 0.984 . S
N611 H615 0.985 . S
H612 N607 0.984 . S
H613 N607 0.985 . S
H614 N611 0.984 . S
H615 N611 0.985 . S
H616 N610 0.984 . S
H617 N610 0.984 . S
H618 N606 0.984 . S
H619 N606 0.985 . S
C620 C621 1.363 . S
C620 C626 1.379 . S
C620 N628 1.356 . S
C621 C620 1.363 . S
C621 C627 1.363 . S
C622 C623 1.363 . S
C622 C627 1.379 . S
C622 N629 1.356 . S
C623 C622 1.363 . S
C623 C626 1.363 . S
N624 C626 1.356 . S
N624 H636 0.984 . S
N624 H637 0.985 . S
N625 C627 1.356 . S
N625 H630 0.984 . S
N625 H631 0.985 . S
C626 C620 1.379 . S
C626 C623 1.363 . S
C626 N624 1.356 . S
C627 C621 1.363 . S
C627 C622 1.379 . S
C627 N625 1.356 . S
N628 C620 1.356 . S
N628 H634 0.984 . S
N628 H635 0.984 . S
N629 C622 1.356 . S
N629 H632 0.984 . S
N629 H633 0.985 . S
H630 N625 0.984 . S
H631 N625 0.985 . S
H632 N629 0.984 . S
H633 N629 0.985 . S
H634 N628 0.984 . S
H635 N628 0.984 . S
H636 N624 0.984 . S
H637 N624 0.985 . S
C638 C639 1.363 . S
C638 C644 1.379 . S
C638 N646 1.356 . S
C639 C638 1.363 . S
C639 C645 1.363 . S
C640 C641 1.363 . S
C640 C645 1.379 . S
C640 N647 1.356 . S
C641 C640 1.363 . S
C641 C644 1.363 . S
N642 C644 1.356 . S
N642 H654 0.984 . S
N642 H655 0.985 . S
N643 C645 1.356 . S
N643 H648 0.984 . S
N643 H649 0.985 . S
C644 C638 1.379 . S
C644 C641 1.363 . S
C644 N642 1.356 . S
C645 C639 1.363 . S
C645 C640 1.379 . S
C645 N643 1.356 . S
N646 C638 1.356 . S
N646 H652 0.984 . S
N646 H653 0.984 . S
N647 C640 1.356 . S
N647 H650 0.984 . S
N647 H651 0.985 . S
H648 N643 0.984 . S
H649 N643 0.985 . S
H650 N647 0.984 . S
H651 N647 0.985 . S
H652 N646 0.984 . S
H653 N646 0.984 . S
H654 N642 0.984 . S
H655 N642 0.985 . S
C656 C657 1.363 1_455 S
C656 C662 1.379 1_565 S
C656 N664 1.356 . S
C657 C656 1.363 1_655 S
C657 C663 1.363 . S
C658 C659 1.363 1_655 S
C658 C663 1.379 1_545 S
C658 N665 1.356 . S
C659 C658 1.363 1_455 S
C659 C662 1.363 . S
N660 C662 1.356 . S
N660 H672 0.984 . S
N660 H673 0.985 . S
N661 C663 1.356 . S
N661 H666 0.984 . S
N661 H667 0.985 . S
C662 C656 1.379 1_545 S
C662 C659 1.363 . S
C662 N660 1.356 . S
C663 C657 1.363 . S
C663 C658 1.379 1_565 S
C663 N661 1.356 . S
N664 C656 1.356 . S
N664 H670 0.984 . S
N664 H671 0.984 1_455 S
N665 C658 1.356 . S
N665 H668 0.984 1_655 S
N665 H669 0.985 . S
H666 N661 0.984 . S
H667 N661 0.985 . S
H668 N665 0.984 1_455 S
H669 N665 0.985 . S
H670 N664 0.984 . S
H671 N664 0.984 1_655 S
H672 N660 0.984 . S
H673 N660 0.985 . S
C674 C675 1.363 . S
C674 C680 1.379 1_655 S
C674 N682 1.356 . S
C675 C674 1.363 . S
C675 C681 1.363 1_545 S
C676 C677 1.363 . S
C676 C681 1.379 1_455 S
C676 N683 1.356 . S
C677 C676 1.363 . S
C677 C680 1.363 1_565 S
N678 C680 1.356 . S
N678 H690 0.984 . S
N678 H691 0.985 1_545 S
N679 C681 1.356 . S
N679 H684 0.984 1_565 S
N679 H685 0.985 . S
C680 C674 1.379 1_455 S
C680 C677 1.363 1_545 S
C680 N678 1.356 . S
C681 C675 1.363 1_565 S
C681 C676 1.379 1_655 S
C681 N679 1.356 . S
N682 C674 1.356 . S
N682 H688 0.984 . S
N682 H689 0.984 . S
N683 C676 1.356 . S
N683 H686 0.984 . S
N683 H687 0.985 . S
H684 N679 0.984 1_545 S
H685 N679 0.985 . S
H686 N683 0.984 . S
H687 N683 0.985 . S
H688 N682 0.984 . S
H689 N682 0.984 . S
H690 N678 0.984 . S
H691 N678 0.985 1_565 S
C692 C693 1.363 1_655 S
C692 C698 1.379 . S
C692 N700 1.356 1_556 S
C693 C692 1.363 1_455 S
C693 C699 1.363 . S
C694 C695 1.363 1_455 S
C694 C699 1.379 . S
C694 N701 1.356 . S
C695 C694 1.363 1_655 S
C695 C698 1.363 . S
N696 C698 1.356 1_554 S
N696 H708 0.984 . S
N696 H709 0.985 . S
N697 C699 1.356 . S
N697 H702 0.984 . S
N697 H703 0.985 . S
C698 C692 1.379 . S
C698 C695 1.363 . S
C698 N696 1.356 1_556 S
C699 C693 1.363 . S
C699 C694 1.379 . S
C699 N697 1.356 . S
N700 C692 1.356 1_554 S
N700 H706 0.984 . S
N700 H707 0.984 1_655 S
N701 C694 1.356 . S
N701 H704 0.984 1_455 S
N701 H705 0.985 . S
H702 N697 0.984 . S
H703 N697 0.985 . S
H704 N701 0.984 1_655 S
H705 N701 0.985 . S
H706 N700 0.984 . S
H707 N700 0.984 1_455 S
H708 N696 0.984 . S
H709 N696 0.985 . S
C710 C711 1.363 . S
C710 C716 1.379 . S
C710 N718 1.356 1_554 S
C711 C710 1.363 . S
C711 C717 1.363 1_565 S
C712 C713 1.363 . S
C712 C717 1.379 . S
C712 N719 1.356 . S
C713 C712 1.363 . S
C713 C716 1.363 1_545 S
N714 C716 1.356 1_556 S
N714 H726 0.984 . S
N714 H727 0.985 1_565 S
N715 C717 1.356 . S
N715 H720 0.984 1_545 S
N715 H721 0.985 . S
C716 C710 1.379 . S
C716 C713 1.363 1_565 S
C716 N714 1.356 1_554 S
C717 C711 1.363 1_545 S
C717 C712 1.379 . S
C717 N715 1.356 . S
N718 C710 1.356 1_556 S
N718 H724 0.984 . S
N718 H725 0.984 . S
N719 C712 1.356 . S
N719 H722 0.984 . S
N719 H723 0.985 . S
H720 N715 0.984 1_565 S
H721 N715 0.985 . S
H722 N719 0.984 . S
H723 N719 0.985 . S
H724 N718 0.984 . S
H725 N718 0.984 . S
H726 N714 0.984 . S
H727 N714 0.985 1_545 S
C728 C729 1.363 . S
C728 C734 1.379 . S
C728 N736 1.356 . S
C729 C728 1.363 . S
C729 C735 1.363 . S
C730 C731 1.363 . S
C730 C735 1.379 . S
C730 N737 1.356 . S
C731 C730 1.363 . S
C731 C734 1.363 . S
N732 C734 1.356 . S
N732 H744 0.984 . S
N732 H745 0.985 . S
N733 C735 1.356 . S
N733 H738 0.984 . S
N733 H739 0.985 . S
C734 C728 1.379 . S
C734 C731 1.363 . S
C734 N732 1.356 . S
C735 C729 1.363 . S
C735 C730 1.379 . S
C735 N733 1.356 . S
N736 C728 1.356 . S
N736 H742 0.984 . S
N736 H743 0.984 . S
N737 C730 1.356 . S
N737 H740 0.984 . S
N737 H741 0.985 . S
H738 N733 0.984 . S
H739 N733 0.985 . S
H740 N737 0.984 . S
H741 N737 0.985 . S
H742 N736 0.984 . S
H743 N736 0.984 . S
H744 N732 0.984 . S
H745 N732 0.985 . S
C746 C747 1.363 . S
C746 C752 1.379 . S
C746 N754 1.356 . S
C747 C746 1.363 . S
C747 C753 1.363 . S
C748 C749 1.363 . S
C748 C753 1.379 . S
C748 N755 1.356 . S
C749 C748 1.363 . S
C749 C752 1.363 . S
N750 C752 1.356 . S
N750 H762 0.984 . S
N750 H763 0.985 . S
N751 C753 1.356 . S
N751 H756 0.984 . S
N751 H757 0.985 . S
C752 C746 1.379 . S
C752 C749 1.363 . S
C752 N750 1.356 . S
C753 C747 1.363 . S
C753 C748 1.379 . S
C753 N751 1.356 . S
N754 C746 1.356 . S
N754 H760 0.984 . S
N754 H761 0.984 . S
N755 C748 1.356 . S
N755 H758 0.984 . S
N755 H759 0.985 . S
H756 N751 0.984 . S
H757 N751 0.985 . S
H758 N755 0.984 . S
H759 N755 0.985 . S
H760 N754 0.984 . S
H761 N754 0.984 . S
H762 N750 0.984 . S
H763 N750 0.985 . S
C764 C765 1.363 . S
C764 C770 1.379 1_545 S
C764 N772 1.356 . S
C765 C764 1.363 . S
C765 C771 1.363 . S
C766 C767 1.363 . S
C766 C771 1.379 1_565 S
C766 N773 1.356 . S
C767 C766 1.363 . S
C767 C770 1.363 . S
N768 C770 1.356 . S
N768 H780 0.984 . S
N768 H781 0.985 . S
N769 C771 1.356 . S
N769 H774 0.984 . S
N769 H775 0.985 . S
C770 C764 1.379 1_565 S
C770 C767 1.363 . S
C770 N768 1.356 . S
C771 C765 1.363 . S
C771 C766 1.379 1_545 S
C771 N769 1.356 . S
N772 C764 1.356 . S
N772 H778 0.984 . S
N772 H779 0.984 . S
N773 C766 1.356 . S
N773 H776 0.984 . S
N773 H777 0.985 . S
H774 N769 0.984 . S
H775 N769 0.985 . S
H776 N773 0.984 . S
H777 N773 0.985 . S
H778 N772 0.984 . S
H779 N772 0.984 . S
H780 N768 0.984 . S
H781 N768 0.985 . S
C782 C783 1.363 . S
C782 C788 1.379 1_655 S
C782 N790 1.356 . S
C783 C782 1.363 . S
C783 C789 1.363 . S
C784 C785 1.363 . S
C784 C789 1.379 1_455 S
C784 N791 1.356 . S
C785 C784 1.363 . S
C785 C788 1.363 . S
N786 C788 1.356 . S
N786 H798 0.984 . S
N786 H799 0.985 . S
N787 C789 1.356 . S
N787 H792 0.984 . S
N787 H793 0.985 . S
C788 C782 1.379 1_455 S
C788 C785 1.363 . S
C788 N786 1.356 . S
C789 C783 1.363 . S
C789 C784 1.379 1_655 S
C789 N787 1.356 . S
N790 C782 1.356 . S
N790 H796 0.984 . S
N790 H797 0.984 . S
N791 C784 1.356 . S
N791 H794 0.984 . S
N791 H795 0.985 . S
H792 N787 0.984 . S
H793 N787 0.985 . S
H794 N791 0.984 . S
H795 N791 0.985 . S
H796 N790 0.984 . S
H797 N790 0.984 . S
H798 N786 0.984 . S
H799 N786 0.985 . S
C225 C8 1.329 . S
C227 C163 1.380 . S
C243 C121 1.380 . S
C245 C22 1.329 . S
C261 C135 1.380 . S
C263 C36 1.329 . S
C279 C149 1.380 . S
C281 C50 1.329 . S
C297 C79 1.380 1_545 S
C299 C64 1.329 . S
C315 C78 1.329 . S
C317 C93 1.380 1_455 S
C333 C92 1.329 . S
C335 C107 1.380 1_565 S
C351 C106 1.329 . S
C353 C65 1.380 1_655 S
C369 C120 1.329 . S
C371 C51 1.380 1_565 S
C387 C9 1.380 1_655 S
C389 C134 1.329 . S
C405 C23 1.380 1_545 S
C407 C148 1.329 . S
C423 C37 1.380 1_455 S
C425 C162 1.329 . S
C441 C191 1.380 . S
C443 C176 1.329 . S
C459 C190 1.329 . S
C461 C205 1.380 . S
C477 C219 1.380 . S
C479 C204 1.329 . S
C495 C177 1.380 . S
C497 C218 1.329 . S
C513 C202 1.484 . S
C515 C6 1.484 . S
C531 C216 1.484 . S
C533 C20 1.484 . S
C549 C174 1.484 . S
C551 C34 1.484 . S
C567 C48 1.484 . S
C569 C188 1.484 . S
C585 C62 1.484 . S
C587 C146 1.484 . S
C603 C160 1.484 . S
C605 C76 1.484 . S
C621 C90 1.484 . S
C623 C118 1.484 . S
C639 C104 1.484 . S
C641 C132 1.484 . S
C657 C35 1.466 . S
C659 C7 1.466 . S
C675 C49 1.466 . S
C677 C21 1.466 . S
C693 C63 1.466 . S
C695 C91 1.466 . S
C711 C77 1.466 . S
C713 C105 1.466 . S
C729 C147 1.466 . S
C731 C119 1.466 . S
C747 C133 1.466 . S
C749 C161 1.466 . S
C765 C203 1.466 . S
C767 C175 1.466 . S
C783 C189 1.466 . S
C785 C217 1.466 . S
