# Generated by pormake.
# Topology acs-i, (5)-cn, num edge types: 1
# Building blocks:
#     Node 0, Type 0, BuildingBlock: XOMCOT_clean_sbu_1, # of connection points: 5
#     Node 1, Type 0, BuildingBlock: XOMCOT_clean_sbu_1, # of connection points: 5
#     Node 2, Type 0, BuildingBlock: XOMCOT_clean_sbu_1, # of connection points: 5
#     Node 3, Type 0, BuildingBlock: XOMCOT_clean_sbu_1, # of connection points: 5
#     Node 4, Type 0, BuildingBlock: XOMCOT_clean_sbu_1, # of connection points: 5
#     Node 5, Type 0, BuildingBlock: XOMCOT_clean_sbu_1, # of connection points: 5
#     Node 6, Type 0, BuildingBlock: XOMCOT_clean_sbu_1, # of connection points: 5
#     Node 7, Type 0, BuildingBlock: XOMCOT_clean_sbu_1, # of connection points: 5
#     Node 8, Type 0, BuildingBlock: XOMCOT_clean_sbu_1, # of connection points: 5
#     Node 9, Type 0, BuildingBlock: XOMCOT_clean_sbu_1, # of connection points: 5
#     Node 10, Type 0, BuildingBlock: XOMCOT_clean_sbu_1, # of connection points: 5
#     Node 11, Type 0, BuildingBlock: XOMCOT_clean_sbu_1, # of connection points: 5
#     Edge 12, Type (0, 0), BuildingBlock: XIVTED_clean_linker_0, # of connection points: 2
#     Edge 13, Type (0, 0), BuildingBlock: XIVTED_clean_linker_0, # of connection points: 2
#     Edge 14, Type (0, 0), BuildingBlock: XIVTED_clean_linker_0, # of connection points: 2
#     Edge 15, Type (0, 0), BuildingBlock: XIVTED_clean_linker_0, # of connection points: 2
#     Edge 16, Type (0, 0), BuildingBlock: XIVTED_clean_linker_0, # of connection points: 2
#     Edge 17, Type (0, 0), BuildingBlock: XIVTED_clean_linker_0, # of connection points: 2
#     Edge 18, Type (0, 0), BuildingBlock: XIVTED_clean_linker_0, # of connection points: 2
#     Edge 19, Type (0, 0), BuildingBlock: XIVTED_clean_linker_0, # of connection points: 2
#     Edge 20, Type (0, 0), BuildingBlock: XIVTED_clean_linker_0, # of connection points: 2
#     Edge 21, Type (0, 0), BuildingBlock: XIVTED_clean_linker_0, # of connection points: 2
#     Edge 22, Type (0, 0), BuildingBlock: XIVTED_clean_linker_0, # of connection points: 2
#     Edge 23, Type (0, 0), BuildingBlock: XIVTED_clean_linker_0, # of connection points: 2
#     Edge 24, Type (0, 0), BuildingBlock: XIVTED_clean_linker_0, # of connection points: 2
#     Edge 25, Type (0, 0), BuildingBlock: XIVTED_clean_linker_0, # of connection points: 2
#     Edge 26, Type (0, 0), BuildingBlock: XIVTED_clean_linker_0, # of connection points: 2
#     Edge 27, Type (0, 0), BuildingBlock: XIVTED_clean_linker_0, # of connection points: 2
#     Edge 28, Type (0, 0), BuildingBlock: XIVTED_clean_linker_0, # of connection points: 2
#     Edge 29, Type (0, 0), BuildingBlock: XIVTED_clean_linker_0, # of connection points: 2
#     Edge 30, Type (0, 0), BuildingBlock: XIVTED_clean_linker_0, # of connection points: 2
#     Edge 31, Type (0, 0), BuildingBlock: XIVTED_clean_linker_0, # of connection points: 2
#     Edge 32, Type (0, 0), BuildingBlock: XIVTED_clean_linker_0, # of connection points: 2
#     Edge 33, Type (0, 0), BuildingBlock: XIVTED_clean_linker_0, # of connection points: 2
#     Edge 34, Type (0, 0), BuildingBlock: XIVTED_clean_linker_0, # of connection points: 2
#     Edge 35, Type (0, 0), BuildingBlock: XIVTED_clean_linker_0, # of connection points: 2
#     Edge 36, Type (0, 0), BuildingBlock: XIVTED_clean_linker_0, # of connection points: 2
#     Edge 37, Type (0, 0), BuildingBlock: XIVTED_clean_linker_0, # of connection points: 2
#     Edge 38, Type (0, 0), BuildingBlock: XIVTED_clean_linker_0, # of connection points: 2
#     Edge 39, Type (0, 0), BuildingBlock: XIVTED_clean_linker_0, # of connection points: 2
#     Edge 40, Type (0, 0), BuildingBlock: XIVTED_clean_linker_0, # of connection points: 2
#     Edge 41, Type (0, 0), BuildingBlock: XIVTED_clean_linker_0, # of connection points: 2
# Relax obj value: 0.860
# Max RMSD: 0.200
# Mean RMSD: 0.200
data_MOF--net-acs-i--node1-XOMCOT_clean_sbu_1--edge1-XIVTED_clean_linker_0
_symmetry_space_group_name_H-M    P1
_symmetry_Int_Tables_number       1
_symmetry_cell_setting            triclinic
loop_
_symmetry_equiv_pos_as_xyz
'x, y, z'
_cell_length_a     43.780724
_cell_length_b     43.766259
_cell_length_c     48.36695
_cell_angle_alpha  90.031915
_cell_angle_beta   89.949264
_cell_angle_gamma 120.067
loop_
_atom_site_label
_atom_site_type_symbol
_atom_site_fract_x
_atom_site_fract_y
_atom_site_fract_z
_atom_type_partial_charge
C0 C 0.37315 0.53986 0.05627 0.0
C1 C 0.39728 0.57542 0.05688 0.0
N2 N 0.39883 0.58716 0.08291 0.0
N3 N 0.35993 0.52923 0.08186 0.0
C4 C 0.37564 0.55867 0.09758 0.0
H5 H 0.36587 0.52269 0.03844 0.0
Co6 Co 0.32687 0.48347 0.09167 0.0
C7 C 0.35611 0.47642 0.14501 0.0
O8 O 0.3526 0.44609 0.13704 0.0
N9 N 0.29152 0.43733 0.10059 0.0
C10 C 0.24177 0.38559 0.096 0.0
C11 C 0.26763 0.41455 0.08228 0.0
C12 C 0.27842 0.42232 0.1254 0.0
N13 N 0.24888 0.39053 0.12317 0.0
O14 O 0.29536 0.49934 0.10129 0.0
H15 H 0.2677 0.41968 0.0604 0.0
H16 H 0.28806 0.43568 0.14494 0.0
O17 O 0.34536 0.49268 0.12939 0.0
C18 C 0.27655 0.50138 0.08221 0.0
O19 O 0.27863 0.49088 0.05717 0.0
N20 N 0.35908 0.46853 0.08129 0.0
C21 C 0.40697 0.44845 0.0638 0.0
C22 C 0.41805 0.47758 0.08112 0.0
C23 C 0.39365 0.48724 0.08963 0.0
C24 C 0.34867 0.44123 0.06318 0.0
C25 C 0.37196 0.43019 0.05474 0.0
H26 H 0.40279 0.51019 0.10272 0.0
H27 H 0.32276 0.42853 0.05425 0.0
H28 H 0.37062 0.55908 0.11943 0.0
H29 H 0.41225 0.59143 0.03944 0.0
H30 H 0.21866 0.36357 0.08684 0.0
H31 H 0.44533 0.49296 0.08765 0.0
H32 H 0.36311 0.40859 0.04014 0.0
C33 C 0.79155 0.3144 0.61257 0.0
C34 C 0.77355 0.33284 0.6133 0.0
N35 N 0.78976 0.35928 0.6317 0.0
N36 N 0.81874 0.32919 0.63054 0.0
C37 C 0.81667 0.35627 0.64192 0.0
H38 H 0.78499 0.29143 0.60007 0.0
Co39 Co 0.84949 0.3129 0.64004 0.0
C40 C 0.90574 0.38418 0.6644 0.0
O41 O 0.93086 0.39378 0.64585 0.0
N42 N 0.87944 0.29542 0.65006 0.0
C43 C 0.92175 0.28608 0.6662 0.0
C44 C 0.91326 0.31137 0.65892 0.0
C45 C 0.86856 0.26067 0.65137 0.0
N46 N 0.89347 0.25415 0.66133 0.0
O47 O 0.82047 0.29111 0.67144 0.0
H48 H 0.93052 0.33936 0.66117 0.0
H49 H 0.84205 0.24017 0.64666 0.0
O50 O 0.87696 0.35483 0.66214 0.0
C51 C 0.79274 0.26198 0.66595 0.0
O52 O 0.79095 0.24695 0.64202 0.0
N53 N 0.87544 0.33291 0.60789 0.0
C54 C 0.89657 0.35169 0.55325 0.0
C55 C 0.89469 0.37571 0.57137 0.0
C56 C 0.88375 0.36567 0.59861 0.0
C57 C 0.8778 0.30956 0.59066 0.0
C58 C 0.88887 0.3186 0.56344 0.0
H59 H 0.87985 0.38346 0.61167 0.0
H60 H 0.86914 0.28296 0.59747 0.0
H61 H 0.83398 0.37326 0.65793 0.0
H62 H 0.7507 0.32752 0.60107 0.0
H63 H 0.94616 0.29079 0.67561 0.0
H64 H 0.89982 0.40131 0.56424 0.0
H65 H 0.89036 0.29935 0.55029 0.0
C66 C 0.49815 0.89033 0.09109 0.0
C67 C 0.4626 0.87628 0.08591 0.0
N68 N 0.44507 0.86476 0.11006 0.0
N69 N 0.50283 0.8882 0.11843 0.0
C70 C 0.47004 0.87194 0.12925 0.0
H71 H 0.51931 0.90237 0.07612 0.0
Co72 Co 0.54468 0.90517 0.13828 0.0
C73 C 0.52211 0.93459 0.1859 0.0
O74 O 0.54442 0.96803 0.18092 0.0
N75 N 0.58685 0.92151 0.15872 0.0
C76 C 0.63403 0.95212 0.18559 0.0
C77 C 0.60695 0.95278 0.17166 0.0
C78 C 0.60297 0.90286 0.16457 0.0
N79 N 0.63142 0.92063 0.18095 0.0
O80 O 0.52912 0.85754 0.14883 0.0
H81 H 0.60241 0.97482 0.17119 0.0
H82 H 0.59318 0.87589 0.15825 0.0
O83 O 0.52166 0.91051 0.17075 0.0
C84 C 0.53516 0.84165 0.12936 0.0
O85 O 0.5538 0.86029 0.10803 0.0
N86 N 0.55958 0.9507 0.12496 0.0
C87 C 0.57382 0.00125 0.08459 0.0
C88 C 0.54395 0.98923 0.10148 0.0
C89 C 0.53733 0.96393 0.12177 0.0
C90 C 0.59004 0.9642 0.11007 0.0
C91 C 0.59807 0.99008 0.09023 0.0
H92 H 0.51225 0.95192 0.13241 0.0
H93 H 0.60644 0.95226 0.11138 0.0
H94 H 0.46458 0.86651 0.15106 0.0
H95 H 0.45067 0.87501 0.06604 0.0
H96 H 0.65356 0.9728 0.19862 0.0
H97 H 0.52442 0.99694 0.09741 0.0
H98 H 0.62099 0.99801 0.0772 0.0
C99 C 0.66529 0.53077 0.60822 0.0
C100 C 0.64192 0.49661 0.60007 0.0
N101 N 0.62763 0.47698 0.62298 0.0
N102 N 0.66498 0.53251 0.63605 0.0
C103 C 0.64243 0.49927 0.64436 0.0
H104 H 0.68038 0.55315 0.59478 0.0
Co105 Co 0.68761 0.5718 0.6589 0.0
C106 C 0.62516 0.54872 0.6987 0.0
O107 O 0.61725 0.57348 0.69388 0.0
N108 N 0.71094 0.61129 0.68199 0.0
C109 C 0.72577 0.658 0.70887 0.0
C110 C 0.69985 0.63283 0.69223 0.0
C111 C 0.7438 0.62442 0.69218 0.0
N112 N 0.75344 0.6526 0.70871 0.0
O113 O 0.71106 0.54984 0.67562 0.0
H114 H 0.67458 0.63053 0.68799 0.0
H115 H 0.75996 0.6126 0.68866 0.0
O116 O 0.65061 0.54861 0.68602 0.0
C117 C 0.73661 0.5518 0.66163 0.0
O118 O 0.74874 0.57372 0.64059 0.0
N119 N 0.66503 0.59224 0.64035 0.0
C120 C 0.64271 0.60776 0.59154 0.0
C121 C 0.61845 0.58055 0.60869 0.0
C122 C 0.6302 0.57317 0.6332 0.0
C123 C 0.68772 0.62165 0.62585 0.0
C124 C 0.67688 0.6303 0.60153 0.0
H125 H 0.61262 0.54884 0.64375 0.0
H126 H 0.71544 0.63591 0.63117 0.0
H127 H 0.63582 0.49174 0.66575 0.0
H128 H 0.63552 0.48715 0.57901 0.0
H129 H 0.72405 0.67814 0.72062 0.0
H130 H 0.59191 0.5623 0.60171 0.0
H131 H 0.69619 0.65211 0.58918 0.0
C132 C 0.15328 0.69236 0.10149 0.0
C133 C 0.16697 0.67307 0.08997 0.0
N134 N 0.17037 0.65372 0.11011 0.0
N135 N 0.14793 0.68507 0.12871 0.0
C136 C 0.15883 0.66166 0.13341 0.0
H137 H 0.14693 0.71007 0.09066 0.0
Co138 Co 0.12707 0.70295 0.15205 0.0
C139 C 0.10258 0.65423 0.20036 0.0
O140 O 0.07364 0.65605 0.20238 0.0
N141 N 0.10614 0.72258 0.1751 0.0
C142 C 0.06948 0.73703 0.19597 0.0
C143 C 0.07195 0.71426 0.1776 0.0
C144 C 0.1237 0.75081 0.1919 0.0
N145 N 0.10224 0.76022 0.20451 0.0
O146 O 0.17306 0.73728 0.16363 0.0
H147 H 0.04985 0.69276 0.16712 0.0
H148 H 0.15184 0.76429 0.19543 0.0
O149 O 0.1253 0.67194 0.18173 0.0
C150 C 0.18872 0.76382 0.14766 0.0
O151 O 0.1702 0.76831 0.12836 0.0
N152 N 0.08351 0.66936 0.13776 0.0
C153 C 0.05338 0.6304 0.09043 0.0
C154 C 0.05764 0.61408 0.1138 0.0
C155 C 0.07286 0.63414 0.13749 0.0
C156 C 0.07422 0.68392 0.11688 0.0
C157 C 0.05892 0.66474 0.09289 0.0
H158 H 0.08131 0.62256 0.15318 0.0
H159 H 0.08382 0.71201 0.11693 0.0
H160 H 0.15723 0.64968 0.15329 0.0
H161 H 0.17386 0.67332 0.06844 0.0
H162 H 0.04565 0.73678 0.20236 0.0
H163 H 0.05369 0.58762 0.11266 0.0
H164 H 0.05527 0.67796 0.07535 0.0
C165 C 0.51815 0.22111 0.61607 0.0
C166 C 0.55376 0.23549 0.62094 0.0
N167 N 0.55808 0.21451 0.63899 0.0
N168 N 0.50019 0.1915 0.63128 0.0
C169 C 0.52532 0.18781 0.64443 0.0
H170 H 0.50614 0.23227 0.60306 0.0
Co171 Co 0.45168 0.16507 0.63697 0.0
C172 C 0.44582 0.1328 0.69377 0.0
O173 O 0.41161 0.11088 0.69367 0.0
N174 N 0.40221 0.13832 0.6427 0.0
C175 C 0.34549 0.09585 0.64521 0.0
C176 C 0.37854 0.10462 0.63545 0.0
C177 C 0.38258 0.14934 0.6564 0.0
N178 N 0.3483 0.1244 0.65791 0.0
O179 O 0.45381 0.20617 0.65173 0.0
H180 H 0.38469 0.08686 0.62449 0.0
H181 H 0.3932 0.17459 0.66663 0.0
O182 O 0.46071 0.15302 0.67318 0.0
C183 C 0.44757 0.22426 0.63445 0.0
O184 O 0.43329 0.20976 0.61059 0.0
N185 N 0.4517 0.12692 0.62047 0.0
C186 C 0.45746 0.07871 0.5868 0.0
C187 C 0.4603 0.07727 0.61558 0.0
C188 C 0.45769 0.10199 0.63217 0.0
C189 C 0.44861 0.12846 0.59262 0.0
C190 C 0.45138 0.10459 0.57537 0.0
H191 H 0.46117 0.1012 0.65412 0.0
H192 H 0.44442 0.14879 0.58384 0.0
H193 H 0.51971 0.16662 0.65865 0.0
H194 H 0.57473 0.25973 0.61219 0.0
H195 H 0.32157 0.07045 0.64366 0.0
H196 H 0.46507 0.05765 0.62508 0.0
H197 H 0.44833 0.10614 0.55327 0.0
C198 C 0.50434 0.63739 0.38677 0.0
C199 C 0.46948 0.61442 0.39341 0.0
N200 N 0.45057 0.60478 0.36981 0.0
N201 N 0.50727 0.64162 0.3591 0.0
C202 C 0.47409 0.62184 0.34946 0.0
H203 H 0.52621 0.6498 0.40108 0.0
Co204 Co 0.54758 0.66861 0.33795 0.0
C205 C 0.53125 0.61521 0.29238 0.0
O206 O 0.55864 0.61117 0.29648 0.0
N207 N 0.58832 0.69653 0.31623 0.0
C208 C 0.63793 0.71711 0.29157 0.0
C209 C 0.61278 0.68893 0.30648 0.0
C210 C 0.59971 0.72972 0.30719 0.0
N211 N 0.62964 0.74279 0.29219 0.0
O212 O 0.52581 0.69406 0.32504 0.0
H213 H 0.61305 0.66479 0.31032 0.0
H214 H 0.58592 0.744 0.31077 0.0
O215 O 0.5263 0.63626 0.30741 0.0
C216 C 0.52878 0.71777 0.34185 0.0
O217 O 0.55077 0.72619 0.36272 0.0
N218 N 0.56804 0.64405 0.3532 0.0
C219 C 0.59012 0.61464 0.39372 0.0
C220 C 0.56103 0.59294 0.37705 0.0
C221 C 0.55035 0.60825 0.35673 0.0
C222 C 0.59755 0.66514 0.36821 0.0
C223 C 0.60955 0.65088 0.38814 0.0
H224 H 0.5257 0.59183 0.34612 0.0
H225 H 0.61005 0.69354 0.36648 0.0
H226 H 0.46734 0.6195 0.32776 0.0
H227 H 0.45891 0.60567 0.41397 0.0
H228 H 0.66054 0.71861 0.28117 0.0
H229 H 0.54507 0.56493 0.3812 0.0
H230 H 0.63154 0.66862 0.4011 0.0
C231 C 0.86655 0.46717 0.90328 0.0
C232 C 0.85752 0.43247 0.89945 0.0
N233 N 0.84692 0.42354 0.87304 0.0
N234 N 0.86215 0.48009 0.87927 0.0
C235 C 0.84965 0.45277 0.86138 0.0
H236 H 0.87615 0.48223 0.92219 0.0
Co237 Co 0.87132 0.52565 0.8729 0.0
C238 C 0.90758 0.53788 0.81781 0.0
O239 O 0.93578 0.5675 0.82515 0.0
N240 N 0.87873 0.57131 0.86731 0.0
C241 C 0.87632 0.61985 0.87673 0.0
C242 C 0.87463 0.59015 0.8876 0.0
C243 C 0.88118 0.58944 0.844 0.0
N244 N 0.88022 0.61933 0.84918 0.0
O245 O 0.82348 0.50665 0.86274 0.0
H246 H 0.86831 0.58166 0.90886 0.0
H247 H 0.87998 0.57931 0.82343 0.0
O248 O 0.88212 0.52155 0.83477 0.0
C249 C 0.80033 0.50204 0.88065 0.0
O250 O 0.81034 0.51432 0.9058 0.0
N251 N 0.91871 0.54319 0.88381 0.0
C252 C 0.98148 0.55856 0.90977 0.0
C253 C 0.9692 0.53523 0.88745 0.0
C254 C 0.93778 0.52816 0.87448 0.0
C255 C 0.93083 0.56599 0.90557 0.0
C256 C 0.96258 0.57484 0.91824 0.0
H257 H 0.92741 0.50836 0.8584 0.0
H258 H 0.91487 0.5753 0.91499 0.0
H259 H 0.84317 0.45442 0.84008 0.0
H260 H 0.8584 0.4151 0.91494 0.0
H261 H 0.87267 0.63906 0.88811 0.0
H262 H 0.98264 0.52126 0.88113 0.0
H263 H 0.97062 0.59178 0.93632 0.0
C264 C 0.29351 0.77313 0.39921 0.0
C265 C 0.31273 0.75603 0.39844 0.0
N266 N 0.34237 0.77616 0.38386 0.0
N267 N 0.31067 0.80342 0.38463 0.0
C268 C 0.34065 0.80476 0.37606 0.0
H269 H 0.26817 0.76353 0.4091 0.0
Co270 Co 0.29453 0.83425 0.3756 0.0
C271 C 0.32186 0.85757 0.31909 0.0
O272 O 0.29216 0.85531 0.31102 0.0
N273 N 0.27828 0.86559 0.36677 0.0
C274 C 0.27664 0.91306 0.35224 0.0
C275 C 0.29777 0.90088 0.36285 0.0
C276 C 0.24535 0.85735 0.35924 0.0
N277 N 0.24362 0.88547 0.34991 0.0
O278 O 0.25927 0.79784 0.35337 0.0
H279 H 0.32605 0.91641 0.36542 0.0
H280 H 0.22353 0.83073 0.35775 0.0
O281 O 0.32564 0.85042 0.34394 0.0
C282 C 0.23079 0.77572 0.36536 0.0
O283 O 0.22351 0.7839 0.3897 0.0
N284 N 0.32842 0.8677 0.39866 0.0
C285 C 0.37404 0.90819 0.44058 0.0
C286 C 0.38699 0.90865 0.41397 0.0
C287 C 0.36367 0.88797 0.39319 0.0
C288 C 0.31533 0.86734 0.4242 0.0
C289 C 0.33767 0.88749 0.44551 0.0
H290 H 0.37424 0.88781 0.37307 0.0
H291 H 0.28738 0.85063 0.42809 0.0
H292 H 0.36052 0.82577 0.36358 0.0
H293 H 0.30538 0.73072 0.40765 0.0
H294 H 0.28543 0.93952 0.34484 0.0
H295 H 0.41492 0.92422 0.4094 0.0
H296 H 0.3265 0.88696 0.46562 0.0
C297 C 0.49992 0.26329 0.86705 0.0
C298 C 0.53554 0.28119 0.87279 0.0
N299 N 0.54905 0.31448 0.86358 0.0
N300 N 0.49139 0.28504 0.85364 0.0
C301 C 0.5219 0.31618 0.85226 0.0
H302 H 0.48149 0.23625 0.8726 0.0
Co303 Co 0.44718 0.27487 0.84061 0.0
C304 C 0.46353 0.31696 0.78887 0.0
O305 O 0.4354 0.2927 0.77595 0.0
N306 N 0.40237 0.26465 0.82807 0.0
C307 C 0.3567 0.26945 0.8134 0.0
C308 C 0.38924 0.28672 0.82609 0.0
C309 C 0.37692 0.23405 0.81713 0.0
N310 N 0.34903 0.23622 0.80786 0.0
O311 O 0.449 0.24286 0.81488 0.0
H312 H 0.40323 0.31425 0.83194 0.0
H313 H 0.37975 0.21124 0.81378 0.0
O314 O 0.46988 0.31214 0.81368 0.0
C315 C 0.43968 0.2123 0.82438 0.0
O316 O 0.41964 0.20179 0.84659 0.0
N317 N 0.44675 0.3052 0.86705 0.0
C318 C 0.4576 0.3446 0.91473 0.0
C319 C 0.47024 0.36141 0.88917 0.0
C320 C 0.46439 0.3412 0.86545 0.0
C321 C 0.4327 0.28838 0.89133 0.0
C322 C 0.43764 0.30759 0.91548 0.0
H323 H 0.47579 0.35476 0.84629 0.0
H324 H 0.41921 0.25985 0.89212 0.0
H325 H 0.52438 0.33986 0.84321 0.0
H326 H 0.55019 0.27086 0.88343 0.0
H327 H 0.34092 0.28102 0.80731 0.0
H328 H 0.48583 0.38988 0.88762 0.0
H329 H 0.42651 0.29352 0.93462 0.0
C330 C 0.15711 0.47623 0.38733 0.0
C331 C 0.16738 0.51036 0.39507 0.0
N332 N 0.15574 0.52419 0.37576 0.0
N333 N 0.13991 0.46918 0.36295 0.0
C334 C 0.13912 0.49882 0.3567 0.0
H335 H 0.16325 0.45835 0.3981 0.0
Co336 Co 0.12621 0.42957 0.34111 0.0
C337 C 0.10745 0.44912 0.28688 0.0
O338 O 0.08209 0.41682 0.28158 0.0
N339 N 0.11258 0.38893 0.319 0.0
C340 C 0.08322 0.33774 0.29621 0.0
C341 C 0.0806 0.3595 0.31544 0.0
C342 C 0.13401 0.38398 0.30175 0.0
N343 N 0.11698 0.35317 0.28796 0.0
O344 O 0.17483 0.44637 0.33389 0.0
H345 H 0.05623 0.35439 0.32503 0.0
H346 H 0.16137 0.40334 0.29804 0.0
O347 O 0.12536 0.45571 0.30907 0.0
C348 C 0.19213 0.43733 0.34972 0.0
O349 O 0.17501 0.4129 0.36849 0.0
N350 N 0.07954 0.41432 0.35056 0.0
C351 C 0.01697 0.39611 0.378 0.0
C352 C 0.02885 0.42103 0.35665 0.0
C353 C 0.06041 0.42991 0.34315 0.0
C354 C 0.06815 0.38989 0.37118 0.0
C355 C 0.03651 0.37979 0.38478 0.0
H356 H 0.07033 0.45108 0.32832 0.0
H357 H 0.08448 0.37911 0.37765 0.0
H358 H 0.12849 0.50281 0.33776 0.0
H359 H 0.18314 0.52432 0.41292 0.0
H360 H 0.06192 0.31302 0.2884 0.0
H361 H 0.0148 0.43476 0.35143 0.0
H362 H 0.0287 0.36123 0.40177 0.0
C363 C 0.6636 0.13974 0.86569 0.0
C364 C 0.64236 0.15394 0.87138 0.0
N365 N 0.63349 0.16276 0.84721 0.0
N366 N 0.66705 0.13874 0.83804 0.0
C367 C 0.64966 0.15425 0.82757 0.0
H368 H 0.67332 0.12817 0.88054 0.0
Co369 Co 0.68438 0.11459 0.81743 0.0
C370 C 0.62461 0.08215 0.77556 0.0
O371 O 0.61632 0.04927 0.77976 0.0
N372 N 0.70266 0.09071 0.79653 0.0
C373 C 0.71131 0.05129 0.77357 0.0
C374 C 0.68767 0.05634 0.789 0.0
C375 C 0.73571 0.10547 0.7862 0.0
N376 N 0.74159 0.08228 0.77231 0.0
O377 O 0.71708 0.15879 0.80118 0.0
H378 H 0.66148 0.03585 0.79468 0.0
H379 H 0.75525 0.13308 0.78789 0.0
O380 O 0.65044 0.10709 0.78851 0.0
C381 C 0.74325 0.17575 0.81733 0.0
O382 O 0.74665 0.15895 0.83857 0.0
N383 N 0.65338 0.07308 0.83617 0.0
C384 C 0.62325 0.04239 0.88636 0.0
C385 C 0.60332 0.048 0.86648 0.0
C386 C 0.61898 0.06354 0.84129 0.0
C387 C 0.67104 0.06288 0.85357 0.0
C388 C 0.65624 0.04708 0.87878 0.0
H389 H 0.60553 0.07323 0.82843 0.0
H390 H 0.69856 0.07154 0.84981 0.0
H391 H 0.64638 0.15668 0.80573 0.0
H392 H 0.63248 0.15559 0.89152 0.0
H393 H 0.70669 0.02694 0.76406 0.0
H394 H 0.57786 0.04497 0.87166 0.0
H395 H 0.67217 0.04249 0.89349 0.0
H396 H 0.47268 0.32912 0.96618 0.0
H397 H 0.40669 0.38655 0.06867 0.0
H398 H 0.46047 0.4081 0.92195 0.0
H399 H 0.46244 0.48921 0.03055 0.0
H400 H 0.43506 0.36544 0.03657 0.0
H401 H 0.47692 0.35997 0.00945 0.0
C402 C 0.47096 0.35295 0.96553 0.0
C403 C 0.46499 0.36539 0.94049 0.0
C404 C 0.44249 0.39304 0.03598 0.0
C405 C 0.47038 0.40086 0.98968 0.0
C406 C 0.42617 0.40497 0.05424 0.0
C407 C 0.4322 0.43941 0.05187 0.0
C408 C 0.46409 0.4156 0.01488 0.0
C409 C 0.45724 0.4624 0.03282 0.0
C410 C 0.47366 0.3706 0.99018 0.0
C411 C 0.46468 0.39728 0.94072 0.0
N412 N 0.47149 0.44973 0.01435 0.0
N413 N 0.46685 0.41367 0.96502 0.0
H414 H 0.86714 0.30823 0.50854 0.0
H415 H 0.00922 0.44701 0.40377 0.0
H416 H 0.94548 0.415 0.53037 0.0
H417 H 0.9601 0.33406 0.39473 0.0
H418 H 0.97063 0.43825 0.44325 0.0
H419 H 0.88698 0.32068 0.46057 0.0
C420 C 0.88844 0.33434 0.50325 0.0
C421 C 0.90541 0.36034 0.52366 0.0
C422 C 0.96773 0.41543 0.43216 0.0
C423 C 0.92743 0.37488 0.46873 0.0
C424 C 0.98945 0.42038 0.40953 0.0
C425 C 0.98795 0.39113 0.39632 0.0
C426 C 0.94438 0.38105 0.44139 0.0
C427 C 0.96222 0.35721 0.40469 0.0
C428 C 0.89945 0.34147 0.47584 0.0
C429 C 0.93184 0.39409 0.51539 0.0
N430 N 0.94167 0.35305 0.42699 0.0
N431 N 0.94238 0.40028 0.48857 0.0
H432 H 0.66593 0.08071 0.9286 0.0
H433 H 0.52226 0.98059 0.04572 0.0
H434 H 0.55857 0.00031 0.91115 0.0
H435 H 0.63104 0.05826 0.06152 0.0
H436 H 0.53156 0.9955 -0.0034 0.0
H437 H 0.6508 0.07894 0.9771 0.0
C438 C 0.63921 0.06221 0.93509 0.0
C439 C 0.61369 0.03978 0.91596 0.0
C440 C 0.55318 0.00987 0.01088 0.0
C441 C 0.59589 0.03829 0.97161 0.0
C442 C 0.54777 0.00176 0.03899 0.0
C443 C 0.57608 0.01806 0.05761 0.0
C444 C 0.58715 0.03434 0.00145 0.0
C445 C 0.60866 0.04486 0.04774 0.0
C446 C 0.63045 0.0616 0.96277 0.0
C447 C 0.57912 0.01757 0.92535 0.0
N448 N 0.61347 0.05176 0.02025 0.0
N449 N 0.57128 0.01709 0.95264 0.0
H450 H 0.68665 0.61815 0.54817 0.0
H451 H 0.54098 0.5776 0.43304 0.0
H452 H 0.58058 0.59484 0.56685 0.0
H453 H 0.65223 0.62515 0.41555 0.0
H454 H 0.5528 0.57207 0.4816 0.0
H455 H 0.67259 0.61224 0.49923 0.0
C456 C 0.66056 0.61252 0.54201 0.0
C457 C 0.63494 0.60773 0.56173 0.0
C458 C 0.57453 0.58312 0.46704 0.0
C459 C 0.61833 0.59951 0.50551 0.0
C460 C 0.56776 0.58574 0.43927 0.0
C461 C 0.59576 0.60195 0.42038 0.0
C462 C 0.60951 0.59674 0.47584 0.0
C463 C 0.63001 0.61267 0.42958 0.0
C464 C 0.65243 0.60859 0.51401 0.0
C465 C 0.60117 0.59891 0.55239 0.0
N466 N 0.636 0.61024 0.45678 0.0
N467 N 0.59383 0.59513 0.52489 0.0
H468 H 0.00988 0.56172 0.07375 0.0
H469 H 0.04684 0.61497 0.91834 0.0
H470 H 0.09211 0.66318 0.04482 0.0
H471 H 0.97586 0.50868 0.94543 0.0
H472 H 0.07549 0.62832 0.96345 0.0
H473 H 0.00586 0.53773 0.02723 0.0
C474 C 0.02707 0.57887 0.0576 0.0
C475 C 0.0503 0.61477 0.06277 0.0
C476 C 0.05447 0.60165 0.95935 0.0
C477 C 0.04642 0.5876 0.00984 0.0
C478 C 0.03858 0.59395 0.9334 0.0
C479 C 0.00884 0.56091 0.92853 0.0
C480 C 0.03959 0.57637 0.98057 0.0
C481 C -0.00128 0.53456 0.94866 0.0
C482 C 0.02505 0.56516 0.03115 0.0
C483 C 0.07264 0.63572 0.04137 0.0
N484 N 0.01326 0.54318 0.97426 0.0
N485 N 0.06982 0.62195 0.0158 0.0
H486 H 0.37364 0.88991 0.49473 0.0
H487 H 0.49328 0.09048 0.53812 0.0
H488 H 0.42871 0.97627 0.4375 0.0
H489 H 0.42443 0.00721 0.59381 0.0
H490 H 0.48427 0.04616 0.50343 0.0
H491 H 0.40596 0.92968 0.53286 0.0
C492 C 0.39284 0.91717 0.49018 0.0
C493 C 0.39785 0.9301 0.46303 0.0
C494 C 0.47167 0.03753 0.52342 0.0
C495 C 0.43497 0.97555 0.50642 0.0
C496 C 0.47673 0.06278 0.54317 0.0
C497 C 0.45879 0.05241 0.56851 0.0
C498 C 0.44825 0.00174 0.52903 0.0
C499 C 0.43844 0.01628 0.57438 0.0
C500 C 0.41141 0.93976 0.51191 0.0
C501 C 0.42382 0.96529 0.45815 0.0
N502 N 0.43312 0.99218 0.55453 0.0
N503 N 0.44098 0.98698 0.47972 0.0
H504 H 0.23517 0.51196 0.04564 0.0
H505 H 0.20057 0.63347 0.14966 0.0
H506 H 0.271 0.53114 0.13037 0.0
H507 H 0.1681 0.61706 0.06413 0.0
H508 H 0.22214 0.59211 0.14414 0.0
H509 H 0.20584 0.54618 0.05326 0.0
C510 C 0.23664 0.52312 0.06592 0.0
C511 C 0.25582 0.51895 0.08734 0.0
C512 C 0.21021 0.59748 0.12659 0.0
C513 C 0.22249 0.55835 0.09614 0.0
C514 C 0.19774 0.621 0.12977 0.0
C515 C 0.18271 0.62896 0.10727 0.0
C516 C 0.20763 0.58177 0.10073 0.0
C517 C 0.18009 0.61225 0.08189 0.0
C518 C 0.21993 0.54272 0.07024 0.0
C519 C 0.25666 0.53386 0.11323 0.0
N520 N 0.19252 0.58953 0.0793 0.0
N521 N 0.24044 0.55311 0.11685 0.0
H522 H 0.57196 0.16502 0.65966 0.0
H523 H 0.77331 0.30731 0.68772 0.0
H524 H 0.61763 0.27738 0.64819 0.0
H525 H 0.73505 0.19693 0.67221 0.0
H526 H 0.71233 0.29481 0.69023 0.0
H527 H 0.62752 0.17537 0.67971 0.0
C528 C 0.59352 0.1919 0.66157 0.0
C529 C 0.59033 0.22036 0.65168 0.0
C530 C 0.71729 0.27316 0.68719 0.0
C531 C 0.65393 0.2323 0.6747 0.0
C532 C 0.75209 0.28018 0.68612 0.0
C533 C 0.75907 0.25313 0.67922 0.0
C534 C 0.68959 0.23884 0.68167 0.0
C535 C 0.73063 0.21853 0.67721 0.0
C536 C 0.62521 0.19776 0.67304 0.0
C537 C 0.61922 0.25461 0.65479 0.0
N538 N 0.69703 0.21242 0.67789 0.0
N539 N 0.64992 0.25961 0.66582 0.0
H540 H 0.47836 0.79165 0.1591 0.0
H541 H 0.46293 0.63562 0.06323 0.0
H542 H 0.55484 0.80349 0.09744 0.0
H543 H 0.38584 0.61956 0.12564 0.0
H544 H 0.49928 0.69634 0.07879 0.0
H545 H 0.44689 0.72757 0.15115 0.0
C546 C 0.48888 0.78071 0.14431 0.0
C547 C 0.51902 0.80288 0.1287 0.0
C548 C 0.4745 0.67958 0.08924 0.0
C549 C 0.48314 0.73002 0.11929 0.0
C550 C 0.4536 0.64493 0.08018 0.0
C551 C 0.4211 0.6226 0.09291 0.0
C552 C 0.46279 0.69229 0.1111 0.0
C553 C 0.41075 0.63587 0.11527 0.0
C554 C 0.47083 0.74421 0.13965 0.0
C555 C 0.53145 0.78742 0.1097 0.0
N556 N 0.43138 0.66999 0.12351 0.0
N557 N 0.51332 0.75207 0.10538 0.0
H558 H 0.80037 0.55846 0.64998 0.0
H559 H 0.72489 0.35275 0.63616 0.0
H560 H 0.69546 0.48308 0.67783 0.0
H561 H 0.83617 0.42733 0.64363 0.0
H562 H 0.71233 0.39992 0.64861 0.0
H563 H 0.81368 0.51065 0.64575 0.0
C564 C 0.7804 0.5319 0.65572 0.0
C565 C 0.7469 0.52466 0.66438 0.0
C566 C 0.73946 0.40579 0.6477 0.0
C567 C 0.76144 0.46973 0.65871 0.0
C568 C 0.74658 0.37905 0.64034 0.0
C569 C 0.78157 0.38629 0.63879 0.0
C570 C 0.76759 0.44001 0.65299 0.0
C571 C 0.80882 0.42064 0.64477 0.0
C572 C 0.78793 0.50462 0.65322 0.0
C573 C 0.72178 0.48977 0.67135 0.0
N574 N 0.80128 0.44628 0.65134 0.0
N575 N 0.72936 0.46341 0.66791 0.0
H576 H 0.39956 0.87785 0.08134 0.0
H577 H 0.23584 0.75537 0.17942 0.0
H578 H 0.40608 0.82013 0.1512 0.0
H579 H 0.23032 0.81705 0.112 0.0
H580 H 0.2991 0.78147 0.17105 0.0
H581 H 0.33768 0.8567 0.0927 0.0
C582 C 0.3879 0.86049 0.0989 0.0
C583 C 0.40804 0.85079 0.11535 0.0
C584 C 0.28411 0.78955 0.15825 0.0
C585 C 0.33745 0.82692 0.12878 0.0
C586 C 0.24801 0.77482 0.16315 0.0
C587 C 0.22768 0.78383 0.14625 0.0
C588 C 0.29995 0.81332 0.13622 0.0
C589 C 0.24489 0.80916 0.12545 0.0
C590 C 0.35268 0.84871 0.10557 0.0
C591 C 0.3917 0.82865 0.13816 0.0
N592 N 0.27995 0.82275 0.12085 0.0
N593 N 0.35739 0.81746 0.14418 0.0
H594 H 0.5752 0.44041 0.58587 0.0
H595 H 0.48941 0.26468 0.67716 0.0
H596 H 0.61555 0.43139 0.66496 0.0
H597 H 0.44893 0.27225 0.59762 0.0
H598 H 0.53099 0.32801 0.67574 0.0
H599 H 0.52572 0.38021 0.59133 0.0
C600 C 0.57381 0.42567 0.60425 0.0
C601 C 0.59957 0.4409 0.62495 0.0
C602 C 0.5127 0.31591 0.65875 0.0
C603 C 0.54277 0.37238 0.63163 0.0
C604 C 0.48872 0.27977 0.65967 0.0
C605 C 0.46605 0.26304 0.63726 0.0
C606 C 0.51412 0.33538 0.63521 0.0
C607 C 0.46624 0.28397 0.61521 0.0
C608 C 0.54536 0.39148 0.60753 0.0
C609 C 0.59611 0.42084 0.64862 0.0
N610 N 0.49032 0.31899 0.61453 0.0
N611 N 0.5683 0.38763 0.65127 0.0
H612 H 0.33373 0.71193 0.37145 0.0
H613 H 0.53838 0.78005 0.36175 0.0
H614 H 0.41208 0.82226 0.37798 0.0
H615 H 0.46083 0.6831 0.32301 0.0
H616 H 0.49266 0.79564 0.36961 0.0
H617 H 0.37995 0.6994 0.35655 0.0
C618 C 0.36071 0.73342 0.36993 0.0
C619 C 0.36925 0.76812 0.37608 0.0
C620 C 0.48576 0.77123 0.35899 0.0
C621 C 0.42197 0.75416 0.35894 0.0
C622 C 0.51182 0.76239 0.35444 0.0
C623 C 0.5033 0.73035 0.34167 0.0
C624 C 0.45078 0.74741 0.35131 0.0
C625 C 0.4685 0.70824 0.33271 0.0
C626 C 0.38694 0.72636 0.36113 0.0
C627 C 0.40447 0.79518 0.37332 0.0
N628 N 0.44331 0.71692 0.33811 0.0
N629 N 0.42962 0.7876 0.36518 0.0
H630 H 0.77259 0.44888 0.84269 0.0
H631 H 0.57136 0.3825 0.87629 0.0
H632 H 0.74284 0.49869 0.90592 0.0
H633 H 0.60795 0.3107 0.85472 0.0
H634 H 0.63293 0.43089 0.8785 0.0
H635 H 0.71045 0.40354 0.8374 0.0
C636 C 0.75291 0.45064 0.8551 0.0
C637 C 0.76276 0.47751 0.87481 0.0
C638 C 0.62739 0.40452 0.87328 0.0
C639 C 0.69197 0.42592 0.86879 0.0
C640 C 0.59246 0.37708 0.87194 0.0
C641 C 0.58489 0.34275 0.86544 0.0
C642 C 0.65473 0.39762 0.86739 0.0
C643 C 0.61294 0.33682 0.86009 0.0
C644 C 0.71759 0.42462 0.85223 0.0
C645 C 0.73626 0.47831 0.89057 0.0
N646 N 0.64673 0.3641 0.86095 0.0
N647 N 0.70194 0.45287 0.88718 0.0
H648 H 0.21997 0.5818 0.38153 0.0
H649 H 0.16367 0.7235 0.37705 0.0
H650 H 0.11161 0.54789 0.36202 0.0
H651 H 0.26033 0.74253 0.33797 0.0
H652 H 0.1425 0.65986 0.37611 0.0
H653 H 0.23549 0.6431 0.3723 0.0
C654 C 0.19947 0.58749 0.37568 0.0
C655 C 0.16451 0.56022 0.37278 0.0
C656 C 0.16796 0.67804 0.36716 0.0
C657 C 0.18184 0.62952 0.36212 0.0
C658 C 0.17995 0.7142 0.36756 0.0
C659 C 0.21379 0.7382 0.35768 0.0
C660 C 0.19051 0.66623 0.35762 0.0
C661 C 0.23401 0.72491 0.34573 0.0
C662 C 0.20833 0.62218 0.37004 0.0
C663 C 0.13881 0.56853 0.36458 0.0
N664 N 0.22243 0.6898 0.34671 0.0
N665 N 0.14788 0.60266 0.35985 0.0
H666 H 0.62943 0.20146 0.80525 0.0
H667 H 0.43276 0.1513 0.84539 0.0
H668 H 0.57291 0.13926 0.87633 0.0
H669 H 0.49862 0.23829 0.7913 0.0
H670 H 0.47953 0.13664 0.8483 0.0
H671 H 0.57826 0.20741 0.79325 0.0
C672 C 0.60635 0.18936 0.81846 0.0
C673 C 0.60553 0.17021 0.84202 0.0
C674 C 0.48351 0.15861 0.83545 0.0
C675 C 0.54687 0.17631 0.82816 0.0
C676 C 0.45666 0.16678 0.83351 0.0
C677 C 0.46206 0.19659 0.8186 0.0
C678 C 0.51588 0.18025 0.82225 0.0
C679 C 0.49345 0.21535 0.80335 0.0
C680 C 0.57719 0.19262 0.81154 0.0
C681 C 0.57496 0.15487 0.85836 0.0
N682 N 0.5195 0.20724 0.80595 0.0
N683 N 0.5468 0.15816 0.85106 0.0
H684 H 0.40803 0.60456 0.32899 0.0
H685 H 0.23724 0.43124 0.38549 0.0
H686 H 0.40809 0.5491 0.40269 0.0
H687 H 0.23585 0.49215 0.31581 0.0
H688 H 0.30076 0.47128 0.38995 0.0
H689 H 0.34577 0.56143 0.3222 0.0
C690 C 0.39498 0.58322 0.34371 0.0
C691 C 0.41338 0.58039 0.36641 0.0
C692 C 0.2866 0.47575 0.37358 0.0
C693 C 0.34186 0.53089 0.35883 0.0
C694 C 0.25034 0.45276 0.3709 0.0
C695 C 0.23112 0.45842 0.35032 0.0
C696 C 0.30382 0.5046 0.35552 0.0
C697 C 0.24955 0.48681 0.33204 0.0
C698 C 0.35936 0.55864 0.33987 0.0
C699 C 0.39487 0.5525 0.38508 0.0
N700 N 0.28481 0.50892 0.33517 0.0
N701 N 0.36015 0.52878 0.38083 0.0
H702 H 0.80874 0.21598 0.83879 0.0
H703 H 0.80015 0.39383 0.8308 0.0
H704 H 0.72736 0.22356 0.79441 0.0
H705 H 0.8686 0.37703 0.88494 0.0
H706 H 0.78011 0.33567 0.81006 0.0
H707 H 0.83877 0.27933 0.84736 0.0
C708 C 0.79758 0.23119 0.83035 0.0
C709 C 0.76535 0.21451 0.81617 0.0
C710 C 0.7997 0.34488 0.82634 0.0
C711 C 0.79913 0.28698 0.82648 0.0
C712 C 0.8112 0.37806 0.83813 0.0
C713 C 0.83578 0.39007 0.85987 0.0
C714 C 0.81312 0.32376 0.83622 0.0
C715 C 0.84911 0.36851 0.86866 0.0
C716 C 0.81462 0.26734 0.83539 0.0
C717 C 0.75219 0.23546 0.80547 0.0
N718 N 0.83752 0.33641 0.85688 0.0
N719 N 0.76885 0.27063 0.81127 0.0
H720 H 0.18095 0.35871 0.28704 0.0
H721 H 0.17724 0.35159 0.12418 0.0
H722 H 0.08657 0.32428 0.23887 0.0
H723 H 0.27016 0.38297 0.1737 0.0
H724 H 0.14073 0.32726 0.16551 0.0
H725 H 0.21071 0.35324 0.24623 0.0
C726 C 0.16639 0.34934 0.26787 0.0
C727 C 0.13164 0.34257 0.266 0.0
C728 C 0.16906 0.33882 0.16726 0.0
C729 C 0.16545 0.33696 0.21912 0.0
C730 C 0.18989 0.35258 0.14363 0.0
C731 C 0.22679 0.37007 0.14575 0.0
C732 C 0.18538 0.3428 0.19306 0.0
C733 C 0.24182 0.37057 0.17143 0.0
C734 C 0.18327 0.34618 0.24458 0.0
C735 C 0.11351 0.32994 0.24097 0.0
N736 N 0.22112 0.3577 0.19417 0.0
N737 N 0.13091 0.32831 0.21824 0.0
H738 H 0.80909 0.1207 0.78873 0.0
H739 H 0.85184 0.18995 0.63846 0.0
H740 H 0.74382 0.06648 0.71864 0.0
H741 H 0.91824 0.24158 0.70879 0.0
H742 H 0.82384 0.13436 0.66405 0.0
H743 H 0.85948 0.15294 0.75785 0.0
C744 C 0.80583 0.11483 0.76681 0.0
C745 C 0.77238 0.09164 0.75599 0.0
C746 C 0.84527 0.15756 0.67366 0.0
C747 C 0.82921 0.12922 0.72042 0.0
C748 C 0.86124 0.18927 0.65903 0.0
C749 C 0.88645 0.22055 0.67192 0.0
C750 C 0.8542 0.15743 0.70153 0.0
C751 C 0.89842 0.2182 0.69827 0.0
C752 C 0.83448 0.13326 0.74915 0.0
C753 C 0.76926 0.08449 0.72761 0.0
N754 N 0.88146 0.18738 0.71254 0.0
N755 N 0.79712 0.10404 0.71062 0.0
H756 H 0.6477 0.87327 0.16025 0.0
H757 H 0.66568 0.75765 0.24367 0.0
H758 H 0.65518 0.93226 0.23376 0.0
H759 H 0.6322 0.80357 0.3073 0.0
H760 H 0.68384 0.81009 0.21525 0.0
H761 H 0.6626 0.83579 0.18729 0.0
C762 C 0.65358 0.87892 0.18202 0.0
C763 C 0.64951 0.90535 0.19493 0.0
C764 C 0.67248 0.80875 0.23539 0.0
C765 C 0.66698 0.86279 0.22627 0.0
C766 C 0.66256 0.77898 0.2518 0.0
C767 C 0.6463 0.77578 0.27748 0.0
C768 C 0.66568 0.83522 0.24472 0.0
C769 C 0.64338 0.80441 0.28717 0.0
C770 C 0.66244 0.85767 0.19753 0.0
C771 C 0.65785 0.91201 0.22306 0.0
N772 N 0.65244 0.83268 0.27061 0.0
N773 N 0.66531 0.89025 0.23795 0.0
H774 H 0.7584 0.68031 0.75989 0.0
H775 H 0.90344 0.6317 0.79608 0.0
H776 H 0.81747 0.65927 0.69891 0.0
H777 H 0.84618 0.65652 0.85621 0.0
H778 H 0.88446 0.65768 0.76008 0.0
H779 H 0.80265 0.68935 0.79441 0.0
C780 C 0.78119 0.67857 0.75355 0.0
C781 C 0.7836 0.66772 0.72675 0.0
C782 C 0.87665 0.65809 0.78126 0.0
C783 C 0.83384 0.67708 0.76629 0.0
C784 C 0.8873 0.64303 0.80178 0.0
C785 C 0.8755 0.64087 0.82907 0.0
C786 C 0.85371 0.67068 0.78808 0.0
C787 C 0.8556 0.65706 0.83547 0.0
C788 C 0.8064 0.6835 0.77334 0.0
C789 C 0.81392 0.66621 0.71966 0.0
N790 N 0.84473 0.67058 0.81503 0.0
N791 N 0.83743 0.66991 0.73949 0.0
H792 H 0.25053 0.9213 0.30239 0.0
H793 H 0.07061 0.75859 0.25304 0.0
H794 H 0.17341 0.84233 0.35679 0.0
H795 H 0.15874 0.82549 0.2007 0.0
H796 H 0.09746 0.80195 0.29055 0.0
H797 H 0.20641 0.90081 0.26574 0.0
C798 C 0.22391 0.90056 0.30699 0.0
C799 C 0.21583 0.88271 0.33238 0.0
C800 C 0.11044 0.80758 0.27061 0.0
C801 C 0.16558 0.85848 0.29034 0.0
C802 C 0.09508 0.78294 0.24927 0.0
C803 C 0.11306 0.78832 0.22416 0.0
C804 C 0.14382 0.83767 0.26657 0.0
C805 C 0.14462 0.82017 0.2201 0.0
C806 C 0.19878 0.8886 0.28594 0.0
C807 C 0.18085 0.85605 0.33717 0.0
N808 N 0.1593 0.84342 0.24123 0.0
N809 N 0.1572 0.84404 0.3161 0.0
H810 H 0.30905 0.08137 0.69939 0.0
H811 H 0.32251 0.25132 0.7625 0.0
H812 H 0.33132 0.17526 0.65473 0.0
H813 H 0.31714 0.16497 0.80924 0.0
H814 H 0.29735 0.21221 0.72278 0.0
H815 H 0.28434 0.09953 0.73729 0.0
C816 C 0.30717 0.10498 0.6971 0.0
C817 C 0.32274 0.12735 0.67441 0.0
C818 C 0.3006 0.20144 0.74198 0.0
C819 C 0.29562 0.14874 0.71755 0.0
C820 C 0.31477 0.22377 0.76477 0.0
C821 C 0.32318 0.21163 0.7888 0.0
C822 C 0.29541 0.16706 0.74325 0.0
C823 C 0.31223 0.17559 0.79065 0.0
C824 C 0.29336 0.11553 0.71876 0.0
C825 C 0.31998 0.15776 0.67227 0.0
N826 N 0.29987 0.15476 0.76788 0.0
N827 N 0.3075 0.16804 0.69388 0.0
H828 H 0.52471 0.55822 0.26374 0.0
H829 H 0.36551 0.53678 0.16994 0.0
H830 H 0.47656 0.62287 0.27364 0.0
H831 H 0.39617 0.45733 0.17577 0.0
H832 H 0.4069 0.56971 0.20709 0.0
H833 H 0.4793 0.52232 0.22989 0.0
C834 C 0.50466 0.56492 0.25875 0.0
C835 C 0.50448 0.59362 0.27149 0.0
C836 C 0.4043 0.54489 0.2004 0.0
C837 C 0.45245 0.55265 0.23285 0.0
C838 C 0.38068 0.52608 0.17921 0.0
C839 C 0.37752 0.49435 0.16964 0.0
C840 C 0.42518 0.53207 0.21187 0.0
C841 C 0.39774 0.48168 0.18248 0.0
C842 C 0.47863 0.54429 0.23956 0.0
C843 C 0.47771 0.60095 0.26436 0.0
N844 N 0.42097 0.50076 0.20275 0.0
N845 N 0.45286 0.5807 0.24541 0.0
H846 H 0.85097 0.48208 0.79372 0.0
H847 H 0.95927 0.45244 0.67393 0.0
H848 H 0.9629 0.5523 0.78285 0.0
H849 H 0.85819 0.37204 0.70535 0.0
H850 H 0.96011 0.49333 0.7092 0.0
H851 H 0.85151 0.44639 0.75542 0.0
C852 C 0.87568 0.49016 0.78314 0.0
C853 C 0.90707 0.5199 0.79182 0.0
C854 C 0.93785 0.46669 0.70826 0.0
C855 C 0.90787 0.47895 0.74782 0.0
C856 C 0.93739 0.44332 0.68825 0.0
C857 C 0.90854 0.40879 0.68655 0.0
C858 C 0.90911 0.45543 0.7264 0.0
C859 C 0.8809 0.39843 0.70564 0.0
C860 C 0.87598 0.46968 0.76128 0.0
C861 C 0.93814 0.52946 0.77691 0.0
N862 N 0.88182 0.42167 0.72459 0.0
N863 N 0.93785 0.50882 0.75571 0.0
H864 H 0.49633 0.97515 0.20715 0.0
H865 H 0.36742 0.83252 0.31539 0.0
H866 H 0.48399 0.87107 0.21195 0.0
H867 H 0.34285 0.90718 0.27824 0.0
H868 H 0.41731 0.85201 0.28362 0.0
H869 H 0.44704 0.95641 0.23962 0.0
C870 C 0.48353 0.94851 0.21527 0.0
C871 C 0.49426 0.92461 0.20693 0.0
C872 C 0.40099 0.86411 0.28246 0.0
C873 C 0.43824 0.90325 0.24399 0.0
C874 C 0.37274 0.85323 0.30068 0.0
C875 C 0.35125 0.86849 0.29948 0.0
C876 C 0.4082 0.89095 0.26331 0.0
C877 C 0.35881 0.89471 0.27967 0.0
C878 C 0.45529 0.93781 0.23357 0.0
C879 C 0.47651 0.89029 0.21785 0.0
N880 N 0.38696 0.90543 0.26247 0.0
N881 N 0.44948 0.88068 0.23597 0.0
H882 H 0.53431 0.35813 0.79637 0.0
H883 H 0.55438 0.52128 0.70855 0.0
H884 H 0.44721 0.35307 0.75091 0.0
H885 H 0.64117 0.50351 0.72477 0.0
H886 H 0.51415 0.46441 0.73061 0.0
H887 H 0.57348 0.41608 0.77627 0.0
C888 C 0.52342 0.36933 0.78223 0.0
C889 C 0.48749 0.35093 0.77537 0.0
C890 C 0.54205 0.47318 0.72943 0.0
C891 C 0.53209 0.4173 0.7524 0.0
C892 C 0.56503 0.50572 0.71716 0.0
C893 C 0.60113 0.51709 0.71491 0.0
C894 C 0.55547 0.45233 0.73991 0.0
C895 C 0.6135 0.4957 0.72606 0.0
C896 C 0.54581 0.4023 0.77066 0.0
C897 C 0.47484 0.36639 0.75656 0.0
N898 N 0.59074 0.46441 0.73812 0.0
N899 N 0.49711 0.39891 0.74585 0.0
H900 H 0.04873 0.59488 0.22371 0.0
H901 H 0.16322 0.51666 0.28386 0.0
H902 H 0.16109 0.64778 0.20915 0.0
H903 H 0.05639 0.45033 0.2552 0.0
H904 H 0.16352 0.56785 0.2628 0.0
H905 H 0.05136 0.5447 0.24303 0.0
C906 C 0.07406 0.59618 0.22491 0.0
C907 C 0.10478 0.62561 0.21482 0.0
C908 C 0.14023 0.54198 0.2609 0.0
C909 C 0.10783 0.56816 0.23687 0.0
C910 C 0.14002 0.5128 0.27282 0.0
C911 C 0.10977 0.47917 0.27115 0.0
C912 C 0.10968 0.53757 0.24784 0.0
C913 C 0.08037 0.47569 0.25679 0.0
C914 C 0.07544 0.56736 0.23568 0.0
C915 C 0.1368 0.62559 0.21669 0.0
N916 N 0.08089 0.50461 0.24601 0.0
N917 N 0.13756 0.59733 0.22764 0.0
H918 H 0.63542 0.14574 0.75645 0.0
H919 H 0.43169 0.07186 0.72045 0.0
H920 H 0.55461 0.03642 0.76527 0.0
H921 H 0.5132 0.18037 0.70905 0.0
H922 H 0.47527 0.05959 0.74144 0.0
H923 H 0.59052 0.15959 0.7413 0.0
C924 C 0.60825 0.12459 0.75504 0.0
C925 C 0.59877 0.08989 0.76229 0.0
C926 C 0.48354 0.0862 0.73466 0.0
C927 C 0.54709 0.10558 0.7451 0.0
C928 C 0.45854 0.09332 0.72302 0.0
C929 C 0.46895 0.12709 0.71273 0.0
C930 C 0.51911 0.11307 0.736 0.0
C931 C 0.50419 0.15382 0.7164 0.0
C932 C 0.58259 0.13255 0.74649 0.0
C933 C 0.5632 0.06351 0.75975 0.0
N934 N 0.52809 0.14616 0.72743 0.0
N935 N 0.53865 0.07193 0.75149 0.0
loop_
_geom_bond_atom_site_label_1
_geom_bond_atom_site_label_2
_geom_bond_distance
_geom_bond_site_symmetry_2
_ccdc_geom_bond_type
C0 C1 1.351 . S
C0 N3 1.368 . S
C0 H5 0.931 . S
C1 C0 1.351 . S
C1 N2 1.373 . S
C1 H29 0.930 . S
N2 C1 1.373 . S
N2 C4 1.340 . S
N3 C0 1.368 . S
N3 C4 1.321 . S
N3 Co6 2.135 . S
C4 N2 1.340 . S
C4 N3 1.321 . S
C4 H28 0.930 . S
H5 C0 0.931 . S
Co6 N3 2.135 . S
Co6 N9 2.121 . S
Co6 O14 2.055 . S
Co6 O17 2.039 . S
Co6 N20 2.140 . S
C7 O8 1.227 . S
C7 O17 1.265 . S
O8 C7 1.227 . S
N9 Co6 2.121 . S
N9 C11 1.375 . S
N9 C12 1.313 . S
C10 C11 1.338 . S
C10 N13 1.377 . S
C10 H30 0.930 . S
C11 N9 1.375 . S
C11 C10 1.338 . S
C11 H15 0.931 . S
C12 N9 1.313 . S
C12 N13 1.344 . S
C12 H16 0.930 . S
N13 C10 1.377 . S
N13 C12 1.344 . S
O14 Co6 2.055 . S
O14 C18 1.253 . S
H15 C11 0.931 . S
H16 C12 0.930 . S
O17 Co6 2.039 . S
O17 C7 1.265 . S
C18 O14 1.253 . S
C18 O19 1.227 . S
O19 C18 1.227 . S
N20 Co6 2.140 . S
N20 C23 1.346 . S
N20 C24 1.345 . S
C21 C22 1.387 . S
C21 C25 1.391 . S
C22 C21 1.387 . S
C22 C23 1.369 . S
C22 H31 0.929 . S
C23 N20 1.346 . S
C23 C22 1.369 . S
C23 H26 0.928 . S
C24 N20 1.345 . S
C24 C25 1.371 . S
C24 H27 0.931 . S
C25 C21 1.391 . S
C25 C24 1.371 . S
C25 H32 0.930 . S
H26 C23 0.928 . S
H27 C24 0.931 . S
H28 C4 0.930 . S
H29 C1 0.930 . S
H30 C10 0.930 . S
H31 C22 0.929 . S
H32 C25 0.930 . S
C33 C34 1.351 . S
C33 N36 1.368 . S
C33 H38 0.931 . S
C34 C33 1.351 . S
C34 N35 1.373 . S
C34 H62 0.930 . S
N35 C34 1.373 . S
N35 C37 1.340 . S
N36 C33 1.368 . S
N36 C37 1.321 . S
N36 Co39 2.135 . S
C37 N35 1.340 . S
C37 N36 1.321 . S
C37 H61 0.930 . S
H38 C33 0.931 . S
Co39 N36 2.135 . S
Co39 N42 2.121 . S
Co39 O47 2.055 . S
Co39 O50 2.039 . S
Co39 N53 2.140 . S
C40 O41 1.227 . S
C40 O50 1.265 . S
O41 C40 1.227 . S
N42 Co39 2.121 . S
N42 C44 1.375 . S
N42 C45 1.313 . S
C43 C44 1.338 . S
C43 N46 1.377 . S
C43 H63 0.930 . S
C44 N42 1.375 . S
C44 C43 1.338 . S
C44 H48 0.931 . S
C45 N42 1.313 . S
C45 N46 1.344 . S
C45 H49 0.930 . S
N46 C43 1.377 . S
N46 C45 1.344 . S
O47 Co39 2.055 . S
O47 C51 1.253 . S
H48 C44 0.931 . S
H49 C45 0.930 . S
O50 Co39 2.039 . S
O50 C40 1.265 . S
C51 O47 1.253 . S
C51 O52 1.227 . S
O52 C51 1.227 . S
N53 Co39 2.140 . S
N53 C56 1.346 . S
N53 C57 1.345 . S
C54 C55 1.387 . S
C54 C58 1.391 . S
C55 C54 1.387 . S
C55 C56 1.369 . S
C55 H64 0.929 . S
C56 N53 1.346 . S
C56 C55 1.369 . S
C56 H59 0.928 . S
C57 N53 1.345 . S
C57 C58 1.371 . S
C57 H60 0.931 . S
C58 C54 1.391 . S
C58 C57 1.371 . S
C58 H65 0.930 . S
H59 C56 0.928 . S
H60 C57 0.931 . S
H61 C37 0.930 . S
H62 C34 0.930 . S
H63 C43 0.930 . S
H64 C55 0.929 . S
H65 C58 0.930 . S
C66 C67 1.351 . S
C66 N69 1.368 . S
C66 H71 0.931 . S
C67 C66 1.351 . S
C67 N68 1.373 . S
C67 H95 0.930 . S
N68 C67 1.373 . S
N68 C70 1.340 . S
N69 C66 1.368 . S
N69 C70 1.321 . S
N69 Co72 2.135 . S
C70 N68 1.340 . S
C70 N69 1.321 . S
C70 H94 0.930 . S
H71 C66 0.931 . S
Co72 N69 2.135 . S
Co72 N75 2.121 . S
Co72 O80 2.055 . S
Co72 O83 2.039 . S
Co72 N86 2.140 . S
C73 O74 1.227 . S
C73 O83 1.265 . S
O74 C73 1.227 . S
N75 Co72 2.121 . S
N75 C77 1.375 . S
N75 C78 1.313 . S
C76 C77 1.338 . S
C76 N79 1.377 . S
C76 H96 0.930 . S
C77 N75 1.375 . S
C77 C76 1.338 . S
C77 H81 0.931 . S
C78 N75 1.313 . S
C78 N79 1.344 . S
C78 H82 0.930 . S
N79 C76 1.377 . S
N79 C78 1.344 . S
O80 Co72 2.055 . S
O80 C84 1.253 . S
H81 C77 0.931 . S
H82 C78 0.930 . S
O83 Co72 2.039 . S
O83 C73 1.265 . S
C84 O80 1.253 . S
C84 O85 1.227 . S
O85 C84 1.227 . S
N86 Co72 2.140 . S
N86 C89 1.346 . S
N86 C90 1.345 . S
C87 C88 1.387 . S
C87 C91 1.391 . S
C88 C87 1.387 . S
C88 C89 1.369 . S
C88 H97 0.929 . S
C89 N86 1.346 . S
C89 C88 1.369 . S
C89 H92 0.928 . S
C90 N86 1.345 . S
C90 C91 1.371 . S
C90 H93 0.931 . S
C91 C87 1.391 . S
C91 C90 1.371 . S
C91 H98 0.930 . S
H92 C89 0.928 . S
H93 C90 0.931 . S
H94 C70 0.930 . S
H95 C67 0.930 . S
H96 C76 0.930 . S
H97 C88 0.929 . S
H98 C91 0.930 . S
C99 C100 1.351 . S
C99 N102 1.368 . S
C99 H104 0.931 . S
C100 C99 1.351 . S
C100 N101 1.373 . S
C100 H128 0.930 . S
N101 C100 1.373 . S
N101 C103 1.340 . S
N102 C99 1.368 . S
N102 C103 1.321 . S
N102 Co105 2.135 . S
C103 N101 1.340 . S
C103 N102 1.321 . S
C103 H127 0.930 . S
H104 C99 0.931 . S
Co105 N102 2.135 . S
Co105 N108 2.121 . S
Co105 O113 2.055 . S
Co105 O116 2.039 . S
Co105 N119 2.140 . S
C106 O107 1.227 . S
C106 O116 1.265 . S
O107 C106 1.227 . S
N108 Co105 2.121 . S
N108 C110 1.375 . S
N108 C111 1.313 . S
C109 C110 1.338 . S
C109 N112 1.377 . S
C109 H129 0.930 . S
C110 N108 1.375 . S
C110 C109 1.338 . S
C110 H114 0.931 . S
C111 N108 1.313 . S
C111 N112 1.344 . S
C111 H115 0.930 . S
N112 C109 1.377 . S
N112 C111 1.344 . S
O113 Co105 2.055 . S
O113 C117 1.253 . S
H114 C110 0.931 . S
H115 C111 0.930 . S
O116 Co105 2.039 . S
O116 C106 1.265 . S
C117 O113 1.253 . S
C117 O118 1.227 . S
O118 C117 1.227 . S
N119 Co105 2.140 . S
N119 C122 1.346 . S
N119 C123 1.345 . S
C120 C121 1.387 . S
C120 C124 1.391 . S
C121 C120 1.387 . S
C121 C122 1.369 . S
C121 H130 0.929 . S
C122 N119 1.346 . S
C122 C121 1.369 . S
C122 H125 0.928 . S
C123 N119 1.345 . S
C123 C124 1.371 . S
C123 H126 0.931 . S
C124 C120 1.391 . S
C124 C123 1.371 . S
C124 H131 0.930 . S
H125 C122 0.928 . S
H126 C123 0.931 . S
H127 C103 0.930 . S
H128 C100 0.930 . S
H129 C109 0.930 . S
H130 C121 0.929 . S
H131 C124 0.930 . S
C132 C133 1.351 . S
C132 N135 1.368 . S
C132 H137 0.931 . S
C133 C132 1.351 . S
C133 N134 1.373 . S
C133 H161 0.930 . S
N134 C133 1.373 . S
N134 C136 1.340 . S
N135 C132 1.368 . S
N135 C136 1.321 . S
N135 Co138 2.135 . S
C136 N134 1.340 . S
C136 N135 1.321 . S
C136 H160 0.930 . S
H137 C132 0.931 . S
Co138 N135 2.135 . S
Co138 N141 2.121 . S
Co138 O146 2.055 . S
Co138 O149 2.039 . S
Co138 N152 2.140 . S
C139 O140 1.227 . S
C139 O149 1.265 . S
O140 C139 1.227 . S
N141 Co138 2.121 . S
N141 C143 1.375 . S
N141 C144 1.313 . S
C142 C143 1.338 . S
C142 N145 1.377 . S
C142 H162 0.930 . S
C143 N141 1.375 . S
C143 C142 1.338 . S
C143 H147 0.931 . S
C144 N141 1.313 . S
C144 N145 1.344 . S
C144 H148 0.930 . S
N145 C142 1.377 . S
N145 C144 1.344 . S
O146 Co138 2.055 . S
O146 C150 1.253 . S
H147 C143 0.931 . S
H148 C144 0.930 . S
O149 Co138 2.039 . S
O149 C139 1.265 . S
C150 O146 1.253 . S
C150 O151 1.227 . S
O151 C150 1.227 . S
N152 Co138 2.140 . S
N152 C155 1.346 . S
N152 C156 1.345 . S
C153 C154 1.387 . S
C153 C157 1.391 . S
C154 C153 1.387 . S
C154 C155 1.369 . S
C154 H163 0.929 . S
C155 N152 1.346 . S
C155 C154 1.369 . S
C155 H158 0.928 . S
C156 N152 1.345 . S
C156 C157 1.371 . S
C156 H159 0.931 . S
C157 C153 1.391 . S
C157 C156 1.371 . S
C157 H164 0.930 . S
H158 C155 0.928 . S
H159 C156 0.931 . S
H160 C136 0.930 . S
H161 C133 0.930 . S
H162 C142 0.930 . S
H163 C154 0.929 . S
H164 C157 0.930 . S
C165 C166 1.351 . S
C165 N168 1.368 . S
C165 H170 0.931 . S
C166 C165 1.351 . S
C166 N167 1.373 . S
C166 H194 0.930 . S
N167 C166 1.373 . S
N167 C169 1.340 . S
N168 C165 1.368 . S
N168 C169 1.321 . S
N168 Co171 2.135 . S
C169 N167 1.340 . S
C169 N168 1.321 . S
C169 H193 0.930 . S
H170 C165 0.931 . S
Co171 N168 2.135 . S
Co171 N174 2.121 . S
Co171 O179 2.055 . S
Co171 O182 2.039 . S
Co171 N185 2.140 . S
C172 O173 1.227 . S
C172 O182 1.265 . S
O173 C172 1.227 . S
N174 Co171 2.121 . S
N174 C176 1.375 . S
N174 C177 1.313 . S
C175 C176 1.338 . S
C175 N178 1.377 . S
C175 H195 0.930 . S
C176 N174 1.375 . S
C176 C175 1.338 . S
C176 H180 0.931 . S
C177 N174 1.313 . S
C177 N178 1.344 . S
C177 H181 0.930 . S
N178 C175 1.377 . S
N178 C177 1.344 . S
O179 Co171 2.055 . S
O179 C183 1.253 . S
H180 C176 0.931 . S
H181 C177 0.930 . S
O182 Co171 2.039 . S
O182 C172 1.265 . S
C183 O179 1.253 . S
C183 O184 1.227 . S
O184 C183 1.227 . S
N185 Co171 2.140 . S
N185 C188 1.346 . S
N185 C189 1.345 . S
C186 C187 1.387 . S
C186 C190 1.391 . S
C187 C186 1.387 . S
C187 C188 1.369 . S
C187 H196 0.929 . S
C188 N185 1.346 . S
C188 C187 1.369 . S
C188 H191 0.928 . S
C189 N185 1.345 . S
C189 C190 1.371 . S
C189 H192 0.931 . S
C190 C186 1.391 . S
C190 C189 1.371 . S
C190 H197 0.930 . S
H191 C188 0.928 . S
H192 C189 0.931 . S
H193 C169 0.930 . S
H194 C166 0.930 . S
H195 C175 0.930 . S
H196 C187 0.929 . S
H197 C190 0.930 . S
C198 C199 1.351 . S
C198 N201 1.368 . S
C198 H203 0.931 . S
C199 C198 1.351 . S
C199 N200 1.373 . S
C199 H227 0.930 . S
N200 C199 1.373 . S
N200 C202 1.340 . S
N201 C198 1.368 . S
N201 C202 1.321 . S
N201 Co204 2.135 . S
C202 N200 1.340 . S
C202 N201 1.321 . S
C202 H226 0.930 . S
H203 C198 0.931 . S
Co204 N201 2.135 . S
Co204 N207 2.121 . S
Co204 O212 2.055 . S
Co204 O215 2.039 . S
Co204 N218 2.140 . S
C205 O206 1.227 . S
C205 O215 1.265 . S
O206 C205 1.227 . S
N207 Co204 2.121 . S
N207 C209 1.375 . S
N207 C210 1.313 . S
C208 C209 1.338 . S
C208 N211 1.377 . S
C208 H228 0.930 . S
C209 N207 1.375 . S
C209 C208 1.338 . S
C209 H213 0.931 . S
C210 N207 1.313 . S
C210 N211 1.344 . S
C210 H214 0.930 . S
N211 C208 1.377 . S
N211 C210 1.344 . S
O212 Co204 2.055 . S
O212 C216 1.253 . S
H213 C209 0.931 . S
H214 C210 0.930 . S
O215 Co204 2.039 . S
O215 C205 1.265 . S
C216 O212 1.253 . S
C216 O217 1.227 . S
O217 C216 1.227 . S
N218 Co204 2.140 . S
N218 C221 1.346 . S
N218 C222 1.345 . S
C219 C220 1.387 . S
C219 C223 1.391 . S
C220 C219 1.387 . S
C220 C221 1.369 . S
C220 H229 0.929 . S
C221 N218 1.346 . S
C221 C220 1.369 . S
C221 H224 0.928 . S
C222 N218 1.345 . S
C222 C223 1.371 . S
C222 H225 0.931 . S
C223 C219 1.391 . S
C223 C222 1.371 . S
C223 H230 0.930 . S
H224 C221 0.928 . S
H225 C222 0.931 . S
H226 C202 0.930 . S
H227 C199 0.930 . S
H228 C208 0.930 . S
H229 C220 0.929 . S
H230 C223 0.930 . S
C231 C232 1.351 . S
C231 N234 1.368 . S
C231 H236 0.931 . S
C232 C231 1.351 . S
C232 N233 1.373 . S
C232 H260 0.930 . S
N233 C232 1.373 . S
N233 C235 1.340 . S
N234 C231 1.368 . S
N234 C235 1.321 . S
N234 Co237 2.135 . S
C235 N233 1.340 . S
C235 N234 1.321 . S
C235 H259 0.930 . S
H236 C231 0.931 . S
Co237 N234 2.135 . S
Co237 N240 2.121 . S
Co237 O245 2.055 . S
Co237 O248 2.039 . S
Co237 N251 2.140 . S
C238 O239 1.227 . S
C238 O248 1.265 . S
O239 C238 1.227 . S
N240 Co237 2.121 . S
N240 C242 1.375 . S
N240 C243 1.313 . S
C241 C242 1.338 . S
C241 N244 1.377 . S
C241 H261 0.930 . S
C242 N240 1.375 . S
C242 C241 1.338 . S
C242 H246 0.931 . S
C243 N240 1.313 . S
C243 N244 1.344 . S
C243 H247 0.930 . S
N244 C241 1.377 . S
N244 C243 1.344 . S
O245 Co237 2.055 . S
O245 C249 1.253 . S
H246 C242 0.931 . S
H247 C243 0.930 . S
O248 Co237 2.039 . S
O248 C238 1.265 . S
C249 O245 1.253 . S
C249 O250 1.227 . S
O250 C249 1.227 . S
N251 Co237 2.140 . S
N251 C254 1.346 . S
N251 C255 1.345 . S
C252 C253 1.387 . S
C252 C256 1.391 . S
C253 C252 1.387 . S
C253 C254 1.369 . S
C253 H262 0.929 . S
C254 N251 1.346 . S
C254 C253 1.369 . S
C254 H257 0.928 . S
C255 N251 1.345 . S
C255 C256 1.371 . S
C255 H258 0.931 . S
C256 C252 1.391 . S
C256 C255 1.371 . S
C256 H263 0.930 . S
H257 C254 0.928 . S
H258 C255 0.931 . S
H259 C235 0.930 . S
H260 C232 0.930 . S
H261 C241 0.930 . S
H262 C253 0.929 . S
H263 C256 0.930 . S
C264 C265 1.351 . S
C264 N267 1.368 . S
C264 H269 0.931 . S
C265 C264 1.351 . S
C265 N266 1.373 . S
C265 H293 0.930 . S
N266 C265 1.373 . S
N266 C268 1.340 . S
N267 C264 1.368 . S
N267 C268 1.321 . S
N267 Co270 2.135 . S
C268 N266 1.340 . S
C268 N267 1.321 . S
C268 H292 0.930 . S
H269 C264 0.931 . S
Co270 N267 2.135 . S
Co270 N273 2.121 . S
Co270 O278 2.055 . S
Co270 O281 2.039 . S
Co270 N284 2.140 . S
C271 O272 1.227 . S
C271 O281 1.265 . S
O272 C271 1.227 . S
N273 Co270 2.121 . S
N273 C275 1.375 . S
N273 C276 1.313 . S
C274 C275 1.338 . S
C274 N277 1.377 . S
C274 H294 0.930 . S
C275 N273 1.375 . S
C275 C274 1.338 . S
C275 H279 0.931 . S
C276 N273 1.313 . S
C276 N277 1.344 . S
C276 H280 0.930 . S
N277 C274 1.377 . S
N277 C276 1.344 . S
O278 Co270 2.055 . S
O278 C282 1.253 . S
H279 C275 0.931 . S
H280 C276 0.930 . S
O281 Co270 2.039 . S
O281 C271 1.265 . S
C282 O278 1.253 . S
C282 O283 1.227 . S
O283 C282 1.227 . S
N284 Co270 2.140 . S
N284 C287 1.346 . S
N284 C288 1.345 . S
C285 C286 1.387 . S
C285 C289 1.391 . S
C286 C285 1.387 . S
C286 C287 1.369 . S
C286 H295 0.929 . S
C287 N284 1.346 . S
C287 C286 1.369 . S
C287 H290 0.928 . S
C288 N284 1.345 . S
C288 C289 1.371 . S
C288 H291 0.931 . S
C289 C285 1.391 . S
C289 C288 1.371 . S
C289 H296 0.930 . S
H290 C287 0.928 . S
H291 C288 0.931 . S
H292 C268 0.930 . S
H293 C265 0.930 . S
H294 C274 0.930 . S
H295 C286 0.929 . S
H296 C289 0.930 . S
C297 C298 1.351 . S
C297 N300 1.368 . S
C297 H302 0.931 . S
C298 C297 1.351 . S
C298 N299 1.373 . S
C298 H326 0.930 . S
N299 C298 1.373 . S
N299 C301 1.340 . S
N300 C297 1.368 . S
N300 C301 1.321 . S
N300 Co303 2.135 . S
C301 N299 1.340 . S
C301 N300 1.321 . S
C301 H325 0.930 . S
H302 C297 0.931 . S
Co303 N300 2.135 . S
Co303 N306 2.121 . S
Co303 O311 2.055 . S
Co303 O314 2.039 . S
Co303 N317 2.140 . S
C304 O305 1.227 . S
C304 O314 1.265 . S
O305 C304 1.227 . S
N306 Co303 2.121 . S
N306 C308 1.375 . S
N306 C309 1.313 . S
C307 C308 1.338 . S
C307 N310 1.377 . S
C307 H327 0.930 . S
C308 N306 1.375 . S
C308 C307 1.338 . S
C308 H312 0.931 . S
C309 N306 1.313 . S
C309 N310 1.344 . S
C309 H313 0.930 . S
N310 C307 1.377 . S
N310 C309 1.344 . S
O311 Co303 2.055 . S
O311 C315 1.253 . S
H312 C308 0.931 . S
H313 C309 0.930 . S
O314 Co303 2.039 . S
O314 C304 1.265 . S
C315 O311 1.253 . S
C315 O316 1.227 . S
O316 C315 1.227 . S
N317 Co303 2.140 . S
N317 C320 1.346 . S
N317 C321 1.345 . S
C318 C319 1.387 . S
C318 C322 1.391 . S
C319 C318 1.387 . S
C319 C320 1.369 . S
C319 H328 0.929 . S
C320 N317 1.346 . S
C320 C319 1.369 . S
C320 H323 0.928 . S
C321 N317 1.345 . S
C321 C322 1.371 . S
C321 H324 0.931 . S
C322 C318 1.391 . S
C322 C321 1.371 . S
C322 H329 0.930 . S
H323 C320 0.928 . S
H324 C321 0.931 . S
H325 C301 0.930 . S
H326 C298 0.930 . S
H327 C307 0.930 . S
H328 C319 0.929 . S
H329 C322 0.930 . S
C330 C331 1.351 . S
C330 N333 1.368 . S
C330 H335 0.931 . S
C331 C330 1.351 . S
C331 N332 1.373 . S
C331 H359 0.930 . S
N332 C331 1.373 . S
N332 C334 1.340 . S
N333 C330 1.368 . S
N333 C334 1.321 . S
N333 Co336 2.135 . S
C334 N332 1.340 . S
C334 N333 1.321 . S
C334 H358 0.930 . S
H335 C330 0.931 . S
Co336 N333 2.135 . S
Co336 N339 2.121 . S
Co336 O344 2.055 . S
Co336 O347 2.039 . S
Co336 N350 2.140 . S
C337 O338 1.227 . S
C337 O347 1.265 . S
O338 C337 1.227 . S
N339 Co336 2.121 . S
N339 C341 1.375 . S
N339 C342 1.313 . S
C340 C341 1.338 . S
C340 N343 1.377 . S
C340 H360 0.930 . S
C341 N339 1.375 . S
C341 C340 1.338 . S
C341 H345 0.931 . S
C342 N339 1.313 . S
C342 N343 1.344 . S
C342 H346 0.930 . S
N343 C340 1.377 . S
N343 C342 1.344 . S
O344 Co336 2.055 . S
O344 C348 1.253 . S
H345 C341 0.931 . S
H346 C342 0.930 . S
O347 Co336 2.039 . S
O347 C337 1.265 . S
C348 O344 1.253 . S
C348 O349 1.227 . S
O349 C348 1.227 . S
N350 Co336 2.140 . S
N350 C353 1.346 . S
N350 C354 1.345 . S
C351 C352 1.387 . S
C351 C355 1.391 . S
C352 C351 1.387 . S
C352 C353 1.369 . S
C352 H361 0.929 . S
C353 N350 1.346 . S
C353 C352 1.369 . S
C353 H356 0.928 . S
C354 N350 1.345 . S
C354 C355 1.371 . S
C354 H357 0.931 . S
C355 C351 1.391 . S
C355 C354 1.371 . S
C355 H362 0.930 . S
H356 C353 0.928 . S
H357 C354 0.931 . S
H358 C334 0.930 . S
H359 C331 0.930 . S
H360 C340 0.930 . S
H361 C352 0.929 . S
H362 C355 0.930 . S
C363 C364 1.351 . S
C363 N366 1.368 . S
C363 H368 0.931 . S
C364 C363 1.351 . S
C364 N365 1.373 . S
C364 H392 0.930 . S
N365 C364 1.373 . S
N365 C367 1.340 . S
N366 C363 1.368 . S
N366 C367 1.321 . S
N366 Co369 2.135 . S
C367 N365 1.340 . S
C367 N366 1.321 . S
C367 H391 0.930 . S
H368 C363 0.931 . S
Co369 N366 2.135 . S
Co369 N372 2.121 . S
Co369 O377 2.055 . S
Co369 O380 2.039 . S
Co369 N383 2.140 . S
C370 O371 1.227 . S
C370 O380 1.265 . S
O371 C370 1.227 . S
N372 Co369 2.121 . S
N372 C374 1.375 . S
N372 C375 1.313 . S
C373 C374 1.338 . S
C373 N376 1.377 . S
C373 H393 0.930 . S
C374 N372 1.375 . S
C374 C373 1.338 . S
C374 H378 0.931 . S
C375 N372 1.313 . S
C375 N376 1.344 . S
C375 H379 0.930 . S
N376 C373 1.377 . S
N376 C375 1.344 . S
O377 Co369 2.055 . S
O377 C381 1.253 . S
H378 C374 0.931 . S
H379 C375 0.930 . S
O380 Co369 2.039 . S
O380 C370 1.265 . S
C381 O377 1.253 . S
C381 O382 1.227 . S
O382 C381 1.227 . S
N383 Co369 2.140 . S
N383 C386 1.346 . S
N383 C387 1.345 . S
C384 C385 1.387 . S
C384 C388 1.391 . S
C385 C384 1.387 . S
C385 C386 1.369 . S
C385 H394 0.929 . S
C386 N383 1.346 . S
C386 C385 1.369 . S
C386 H389 0.928 . S
C387 N383 1.345 . S
C387 C388 1.371 . S
C387 H390 0.931 . S
C388 C384 1.391 . S
C388 C387 1.371 . S
C388 H395 0.930 . S
H389 C386 0.928 . S
H390 C387 0.931 . S
H391 C367 0.930 . S
H392 C364 0.930 . S
H393 C373 0.930 . S
H394 C385 0.929 . S
H395 C388 0.930 . S
H396 C402 0.930 . S
H397 C406 0.930 . S
H398 C411 0.929 . S
H399 C409 0.929 . S
H400 C404 0.929 . S
H401 C410 0.929 . S
C402 H396 0.930 . S
C402 C403 1.367 . S
C402 C410 1.378 . S
C403 C402 1.367 . S
C403 C411 1.433 . S
C404 H400 0.929 . S
C404 C406 1.378 . S
C404 C408 1.350 . S
C405 C408 1.463 1_556 S
C405 C410 1.350 . S
C405 N413 1.427 . S
C406 H397 0.930 . S
C406 C404 1.378 . S
C406 C407 1.367 . S
C407 C406 1.367 . S
C407 C409 1.433 . S
C408 C404 1.350 . S
C408 C405 1.463 1_554 S
C408 N412 1.427 . S
C409 H399 0.929 . S
C409 C407 1.433 . S
C409 N412 1.384 . S
C410 H401 0.929 . S
C410 C402 1.378 . S
C410 C405 1.350 . S
C411 H398 0.929 . S
C411 C403 1.433 . S
C411 N413 1.384 . S
N412 C408 1.427 . S
N412 C409 1.384 . S
N413 C405 1.427 . S
N413 C411 1.384 . S
H414 C420 0.930 . S
H415 C424 0.930 . S
H416 C429 0.929 . S
H417 C427 0.929 . S
H418 C422 0.929 . S
H419 C428 0.929 . S
C420 H414 0.930 . S
C420 C421 1.367 . S
C420 C428 1.378 . S
C421 C420 1.367 . S
C421 C429 1.433 . S
C422 H418 0.929 . S
C422 C424 1.378 . S
C422 C426 1.350 . S
C423 C426 1.463 1_655 S
C423 C428 1.350 . S
C423 N431 1.427 1_655 S
C424 H415 0.930 . S
C424 C422 1.378 . S
C424 C425 1.367 . S
C425 C424 1.367 . S
C425 C427 1.433 . S
C426 C422 1.350 . S
C426 C423 1.463 1_455 S
C426 N430 1.427 1_455 S
C427 H417 0.929 . S
C427 C425 1.433 . S
C427 N430 1.384 1_455 S
C428 H419 0.929 . S
C428 C420 1.378 . S
C428 C423 1.350 . S
C429 H416 0.929 . S
C429 C421 1.433 . S
C429 N431 1.384 1_655 S
N430 C426 1.427 1_655 S
N430 C427 1.384 1_655 S
N431 C423 1.427 1_455 S
N431 C429 1.384 1_455 S
H432 C438 0.930 . S
H433 C442 0.930 . S
H434 C447 0.929 . S
H435 C445 0.929 . S
H436 C440 0.929 . S
H437 C446 0.929 . S
C438 H432 0.930 . S
C438 C439 1.367 . S
C438 C446 1.378 . S
C439 C438 1.367 . S
C439 C447 1.433 . S
C440 H436 0.929 . S
C440 C442 1.378 . S
C440 C444 1.350 . S
C441 C444 1.463 1_546 S
C441 C446 1.350 . S
C441 N449 1.427 1_545 S
C442 H433 0.930 . S
C442 C440 1.378 . S
C442 C443 1.367 . S
C443 C442 1.367 . S
C443 C445 1.433 . S
C444 C440 1.350 . S
C444 C441 1.463 1_564 S
C444 N448 1.427 1_565 S
C445 H435 0.929 . S
C445 C443 1.433 . S
C445 N448 1.384 1_565 S
C446 H437 0.929 . S
C446 C438 1.378 . S
C446 C441 1.350 . S
C447 H434 0.929 . S
C447 C439 1.433 . S
C447 N449 1.384 1_545 S
N448 C444 1.427 1_545 S
N448 C445 1.384 1_545 S
N449 C441 1.427 1_565 S
N449 C447 1.384 1_565 S
H450 C456 0.930 . S
H451 C460 0.930 . S
H452 C465 0.929 . S
H453 C463 0.929 . S
H454 C458 0.929 . S
H455 C464 0.929 . S
C456 H450 0.930 . S
C456 C457 1.367 . S
C456 C464 1.378 . S
C457 C456 1.367 . S
C457 C465 1.433 . S
C458 H454 0.929 . S
C458 C460 1.378 . S
C458 C462 1.350 . S
C459 C462 1.463 . S
C459 C464 1.350 . S
C459 N467 1.427 . S
C460 H451 0.930 . S
C460 C458 1.378 . S
C460 C461 1.367 . S
C461 C460 1.367 . S
C461 C463 1.433 . S
C462 C458 1.350 . S
C462 C459 1.463 . S
C462 N466 1.427 . S
C463 H453 0.929 . S
C463 C461 1.433 . S
C463 N466 1.384 . S
C464 H455 0.929 . S
C464 C456 1.378 . S
C464 C459 1.350 . S
C465 H452 0.929 . S
C465 C457 1.433 . S
C465 N467 1.384 . S
N466 C462 1.427 . S
N466 C463 1.384 . S
N467 C459 1.427 . S
N467 C465 1.384 . S
H468 C474 0.930 1_655 S
H469 C478 0.930 1_455 S
H470 C483 0.929 . S
H471 C481 0.929 . S
H472 C476 0.929 . S
H473 C482 0.929 . S
C474 H468 0.930 1_455 S
C474 C475 1.367 . S
C474 C482 1.378 1_455 S
C475 C474 1.367 . S
C475 C483 1.433 . S
C476 H472 0.929 . S
C476 C478 1.378 1_455 S
C476 C480 1.350 1_455 S
C477 C480 1.463 1_454 S
C477 C482 1.350 1_455 S
C477 N485 1.427 . S
C478 H469 0.930 1_655 S
C478 C476 1.378 1_655 S
C478 C479 1.367 . S
C479 C478 1.367 . S
C479 C481 1.433 . S
C480 C476 1.350 1_655 S
C480 C477 1.463 1_656 S
C480 N484 1.427 . S
C481 H471 0.929 . S
C481 C479 1.433 . S
C481 N484 1.384 . S
C482 H473 0.929 . S
C482 C474 1.378 1_655 S
C482 C477 1.350 1_655 S
C483 H470 0.929 . S
C483 C475 1.433 . S
C483 N485 1.384 . S
N484 C480 1.427 . S
N484 C481 1.384 . S
N485 C477 1.427 . S
N485 C483 1.384 . S
H486 C492 0.930 . S
H487 C496 0.930 . S
H488 C501 0.929 1_545 S
H489 C499 0.929 1_565 S
H490 C494 0.929 . S
H491 C500 0.929 . S
C492 H486 0.930 . S
C492 C493 1.367 . S
C492 C500 1.378 . S
C493 C492 1.367 . S
C493 C501 1.433 . S
C494 H490 0.929 . S
C494 C496 1.378 . S
C494 C498 1.350 . S
C495 C498 1.463 1_565 S
C495 C500 1.350 . S
C495 N503 1.427 1_565 S
C496 H487 0.930 . S
C496 C494 1.378 . S
C496 C497 1.367 . S
C497 C496 1.367 . S
C497 C499 1.433 . S
C498 C494 1.350 . S
C498 C495 1.463 1_545 S
C498 N502 1.427 1_545 S
C499 H489 0.929 1_545 S
C499 C497 1.433 . S
C499 N502 1.384 1_545 S
C500 H491 0.929 . S
C500 C492 1.378 . S
C500 C495 1.350 . S
C501 H488 0.929 1_565 S
C501 C493 1.433 . S
C501 N503 1.384 1_565 S
N502 C498 1.427 1_565 S
N502 C499 1.384 1_565 S
N503 C495 1.427 1_545 S
N503 C501 1.384 1_545 S
H504 C510 0.930 . S
H505 C514 0.930 . S
H506 C519 0.929 . S
H507 C517 0.929 . S
H508 C512 0.929 . S
H509 C518 0.929 . S
C510 H504 0.930 . S
C510 C511 1.367 . S
C510 C518 1.378 . S
C511 C510 1.367 . S
C511 C519 1.433 . S
C512 H508 0.929 . S
C512 C514 1.378 . S
C512 C516 1.350 . S
C513 C516 1.463 . S
C513 C518 1.350 . S
C513 N521 1.427 . S
C514 H505 0.930 . S
C514 C512 1.378 . S
C514 C515 1.367 . S
C515 C514 1.367 . S
C515 C517 1.433 . S
C516 C512 1.350 . S
C516 C513 1.463 . S
C516 N520 1.427 . S
C517 H507 0.929 . S
C517 C515 1.433 . S
C517 N520 1.384 . S
C518 H509 0.929 . S
C518 C510 1.378 . S
C518 C513 1.350 . S
C519 H506 0.929 . S
C519 C511 1.433 . S
C519 N521 1.384 . S
N520 C516 1.427 . S
N520 C517 1.384 . S
N521 C513 1.427 . S
N521 C519 1.384 . S
H522 C528 0.930 . S
H523 C532 0.930 . S
H524 C537 0.929 . S
H525 C535 0.929 . S
H526 C530 0.929 . S
H527 C536 0.929 . S
C528 H522 0.930 . S
C528 C529 1.367 . S
C528 C536 1.378 . S
C529 C528 1.367 . S
C529 C537 1.433 . S
C530 H526 0.929 . S
C530 C532 1.378 . S
C530 C534 1.350 . S
C531 C534 1.463 . S
C531 C536 1.350 . S
C531 N539 1.427 . S
C532 H523 0.930 . S
C532 C530 1.378 . S
C532 C533 1.367 . S
C533 C532 1.367 . S
C533 C535 1.433 . S
C534 C530 1.350 . S
C534 C531 1.463 . S
C534 N538 1.427 . S
C535 H525 0.929 . S
C535 C533 1.433 . S
C535 N538 1.384 . S
C536 H527 0.929 . S
C536 C528 1.378 . S
C536 C531 1.350 . S
C537 H524 0.929 . S
C537 C529 1.433 . S
C537 N539 1.384 . S
N538 C534 1.427 . S
N538 C535 1.384 . S
N539 C531 1.427 . S
N539 C537 1.384 . S
H540 C546 0.930 . S
H541 C550 0.930 . S
H542 C555 0.929 . S
H543 C553 0.929 . S
H544 C548 0.929 . S
H545 C554 0.929 . S
C546 H540 0.930 . S
C546 C547 1.367 . S
C546 C554 1.378 . S
C547 C546 1.367 . S
C547 C555 1.433 . S
C548 H544 0.929 . S
C548 C550 1.378 . S
C548 C552 1.350 . S
C549 C552 1.463 . S
C549 C554 1.350 . S
C549 N557 1.427 . S
C550 H541 0.930 . S
C550 C548 1.378 . S
C550 C551 1.367 . S
C551 C550 1.367 . S
C551 C553 1.433 . S
C552 C548 1.350 . S
C552 C549 1.463 . S
C552 N556 1.427 . S
C553 H543 0.929 . S
C553 C551 1.433 . S
C553 N556 1.384 . S
C554 H545 0.929 . S
C554 C546 1.378 . S
C554 C549 1.350 . S
C555 H542 0.929 . S
C555 C547 1.433 . S
C555 N557 1.384 . S
N556 C552 1.427 . S
N556 C553 1.384 . S
N557 C549 1.427 . S
N557 C555 1.384 . S
H558 C564 0.930 . S
H559 C568 0.930 . S
H560 C573 0.929 . S
H561 C571 0.929 . S
H562 C566 0.929 . S
H563 C572 0.929 . S
C564 H558 0.930 . S
C564 C565 1.367 . S
C564 C572 1.378 . S
C565 C564 1.367 . S
C565 C573 1.433 . S
C566 H562 0.929 . S
C566 C568 1.378 . S
C566 C570 1.350 . S
C567 C570 1.463 . S
C567 C572 1.350 . S
C567 N575 1.427 . S
C568 H559 0.930 . S
C568 C566 1.378 . S
C568 C569 1.367 . S
C569 C568 1.367 . S
C569 C571 1.433 . S
C570 C566 1.350 . S
C570 C567 1.463 . S
C570 N574 1.427 . S
C571 H561 0.929 . S
C571 C569 1.433 . S
C571 N574 1.384 . S
C572 H563 0.929 . S
C572 C564 1.378 . S
C572 C567 1.350 . S
C573 H560 0.929 . S
C573 C565 1.433 . S
C573 N575 1.384 . S
N574 C570 1.427 . S
N574 C571 1.384 . S
N575 C567 1.427 . S
N575 C573 1.384 . S
H576 C582 0.930 . S
H577 C586 0.930 . S
H578 C591 0.929 . S
H579 C589 0.929 . S
H580 C584 0.929 . S
H581 C590 0.929 . S
C582 H576 0.930 . S
C582 C583 1.367 . S
C582 C590 1.378 . S
C583 C582 1.367 . S
C583 C591 1.433 . S
C584 H580 0.929 . S
C584 C586 1.378 . S
C584 C588 1.350 . S
C585 C588 1.463 . S
C585 C590 1.350 . S
C585 N593 1.427 . S
C586 H577 0.930 . S
C586 C584 1.378 . S
C586 C587 1.367 . S
C587 C586 1.367 . S
C587 C589 1.433 . S
C588 C584 1.350 . S
C588 C585 1.463 . S
C588 N592 1.427 . S
C589 H579 0.929 . S
C589 C587 1.433 . S
C589 N592 1.384 . S
C590 H581 0.929 . S
C590 C582 1.378 . S
C590 C585 1.350 . S
C591 H578 0.929 . S
C591 C583 1.433 . S
C591 N593 1.384 . S
N592 C588 1.427 . S
N592 C589 1.384 . S
N593 C585 1.427 . S
N593 C591 1.384 . S
H594 C600 0.930 . S
H595 C604 0.930 . S
H596 C609 0.929 . S
H597 C607 0.929 . S
H598 C602 0.929 . S
H599 C608 0.929 . S
C600 H594 0.930 . S
C600 C601 1.367 . S
C600 C608 1.378 . S
C601 C600 1.367 . S
C601 C609 1.433 . S
C602 H598 0.929 . S
C602 C604 1.378 . S
C602 C606 1.350 . S
C603 C606 1.463 . S
C603 C608 1.350 . S
C603 N611 1.427 . S
C604 H595 0.930 . S
C604 C602 1.378 . S
C604 C605 1.367 . S
C605 C604 1.367 . S
C605 C607 1.433 . S
C606 C602 1.350 . S
C606 C603 1.463 . S
C606 N610 1.427 . S
C607 H597 0.929 . S
C607 C605 1.433 . S
C607 N610 1.384 . S
C608 H599 0.929 . S
C608 C600 1.378 . S
C608 C603 1.350 . S
C609 H596 0.929 . S
C609 C601 1.433 . S
C609 N611 1.384 . S
N610 C606 1.427 . S
N610 C607 1.384 . S
N611 C603 1.427 . S
N611 C609 1.384 . S
H612 C618 0.930 . S
H613 C622 0.930 . S
H614 C627 0.929 . S
H615 C625 0.929 . S
H616 C620 0.929 . S
H617 C626 0.929 . S
C618 H612 0.930 . S
C618 C619 1.367 . S
C618 C626 1.378 . S
C619 C618 1.367 . S
C619 C627 1.433 . S
C620 H616 0.929 . S
C620 C622 1.378 . S
C620 C624 1.350 . S
C621 C624 1.463 . S
C621 C626 1.350 . S
C621 N629 1.427 . S
C622 H613 0.930 . S
C622 C620 1.378 . S
C622 C623 1.367 . S
C623 C622 1.367 . S
C623 C625 1.433 . S
C624 C620 1.350 . S
C624 C621 1.463 . S
C624 N628 1.427 . S
C625 H615 0.929 . S
C625 C623 1.433 . S
C625 N628 1.384 . S
C626 H617 0.929 . S
C626 C618 1.378 . S
C626 C621 1.350 . S
C627 H614 0.929 . S
C627 C619 1.433 . S
C627 N629 1.384 . S
N628 C624 1.427 . S
N628 C625 1.384 . S
N629 C621 1.427 . S
N629 C627 1.384 . S
H630 C636 0.930 . S
H631 C640 0.930 . S
H632 C645 0.929 . S
H633 C643 0.929 . S
H634 C638 0.929 . S
H635 C644 0.929 . S
C636 H630 0.930 . S
C636 C637 1.367 . S
C636 C644 1.378 . S
C637 C636 1.367 . S
C637 C645 1.433 . S
C638 H634 0.929 . S
C638 C640 1.378 . S
C638 C642 1.350 . S
C639 C642 1.463 . S
C639 C644 1.350 . S
C639 N647 1.427 . S
C640 H631 0.930 . S
C640 C638 1.378 . S
C640 C641 1.367 . S
C641 C640 1.367 . S
C641 C643 1.433 . S
C642 C638 1.350 . S
C642 C639 1.463 . S
C642 N646 1.427 . S
C643 H633 0.929 . S
C643 C641 1.433 . S
C643 N646 1.384 . S
C644 H635 0.929 . S
C644 C636 1.378 . S
C644 C639 1.350 . S
C645 H632 0.929 . S
C645 C637 1.433 . S
C645 N647 1.384 . S
N646 C642 1.427 . S
N646 C643 1.384 . S
N647 C639 1.427 . S
N647 C645 1.384 . S
H648 C654 0.930 . S
H649 C658 0.930 . S
H650 C663 0.929 . S
H651 C661 0.929 . S
H652 C656 0.929 . S
H653 C662 0.929 . S
C654 H648 0.930 . S
C654 C655 1.367 . S
C654 C662 1.378 . S
C655 C654 1.367 . S
C655 C663 1.433 . S
C656 H652 0.929 . S
C656 C658 1.378 . S
C656 C660 1.350 . S
C657 C660 1.463 . S
C657 C662 1.350 . S
C657 N665 1.427 . S
C658 H649 0.930 . S
C658 C656 1.378 . S
C658 C659 1.367 . S
C659 C658 1.367 . S
C659 C661 1.433 . S
C660 C656 1.350 . S
C660 C657 1.463 . S
C660 N664 1.427 . S
C661 H651 0.929 . S
C661 C659 1.433 . S
C661 N664 1.384 . S
C662 H653 0.929 . S
C662 C654 1.378 . S
C662 C657 1.350 . S
C663 H650 0.929 . S
C663 C655 1.433 . S
C663 N665 1.384 . S
N664 C660 1.427 . S
N664 C661 1.384 . S
N665 C657 1.427 . S
N665 C663 1.384 . S
H666 C672 0.930 . S
H667 C676 0.930 . S
H668 C681 0.929 . S
H669 C679 0.929 . S
H670 C674 0.929 . S
H671 C680 0.929 . S
C672 H666 0.930 . S
C672 C673 1.367 . S
C672 C680 1.378 . S
C673 C672 1.367 . S
C673 C681 1.433 . S
C674 H670 0.929 . S
C674 C676 1.378 . S
C674 C678 1.350 . S
C675 C678 1.463 . S
C675 C680 1.350 . S
C675 N683 1.427 . S
C676 H667 0.930 . S
C676 C674 1.378 . S
C676 C677 1.367 . S
C677 C676 1.367 . S
C677 C679 1.433 . S
C678 C674 1.350 . S
C678 C675 1.463 . S
C678 N682 1.427 . S
C679 H669 0.929 . S
C679 C677 1.433 . S
C679 N682 1.384 . S
C680 H671 0.929 . S
C680 C672 1.378 . S
C680 C675 1.350 . S
C681 H668 0.929 . S
C681 C673 1.433 . S
C681 N683 1.384 . S
N682 C678 1.427 . S
N682 C679 1.384 . S
N683 C675 1.427 . S
N683 C681 1.384 . S
H684 C690 0.930 . S
H685 C694 0.930 . S
H686 C699 0.929 . S
H687 C697 0.929 . S
H688 C692 0.929 . S
H689 C698 0.929 . S
C690 H684 0.930 . S
C690 C691 1.367 . S
C690 C698 1.378 . S
C691 C690 1.367 . S
C691 C699 1.433 . S
C692 H688 0.929 . S
C692 C694 1.378 . S
C692 C696 1.350 . S
C693 C696 1.463 . S
C693 C698 1.350 . S
C693 N701 1.427 . S
C694 H685 0.930 . S
C694 C692 1.378 . S
C694 C695 1.367 . S
C695 C694 1.367 . S
C695 C697 1.433 . S
C696 C692 1.350 . S
C696 C693 1.463 . S
C696 N700 1.427 . S
C697 H687 0.929 . S
C697 C695 1.433 . S
C697 N700 1.384 . S
C698 H689 0.929 . S
C698 C690 1.378 . S
C698 C693 1.350 . S
C699 H686 0.929 . S
C699 C691 1.433 . S
C699 N701 1.384 . S
N700 C696 1.427 . S
N700 C697 1.384 . S
N701 C693 1.427 . S
N701 C699 1.384 . S
H702 C708 0.930 . S
H703 C712 0.930 . S
H704 C717 0.929 . S
H705 C715 0.929 . S
H706 C710 0.929 . S
H707 C716 0.929 . S
C708 H702 0.930 . S
C708 C709 1.367 . S
C708 C716 1.378 . S
C709 C708 1.367 . S
C709 C717 1.433 . S
C710 H706 0.929 . S
C710 C712 1.378 . S
C710 C714 1.350 . S
C711 C714 1.463 . S
C711 C716 1.350 . S
C711 N719 1.427 . S
C712 H703 0.930 . S
C712 C710 1.378 . S
C712 C713 1.367 . S
C713 C712 1.367 . S
C713 C715 1.433 . S
C714 C710 1.350 . S
C714 C711 1.463 . S
C714 N718 1.427 . S
C715 H705 0.929 . S
C715 C713 1.433 . S
C715 N718 1.384 . S
C716 H707 0.929 . S
C716 C708 1.378 . S
C716 C711 1.350 . S
C717 H704 0.929 . S
C717 C709 1.433 . S
C717 N719 1.384 . S
N718 C714 1.427 . S
N718 C715 1.384 . S
N719 C711 1.427 . S
N719 C717 1.384 . S
H720 C726 0.930 . S
H721 C730 0.930 . S
H722 C735 0.929 . S
H723 C733 0.929 . S
H724 C728 0.929 . S
H725 C734 0.929 . S
C726 H720 0.930 . S
C726 C727 1.367 . S
C726 C734 1.378 . S
C727 C726 1.367 . S
C727 C735 1.433 . S
C728 H724 0.929 . S
C728 C730 1.378 . S
C728 C732 1.350 . S
C729 C732 1.463 . S
C729 C734 1.350 . S
C729 N737 1.427 . S
C730 H721 0.930 . S
C730 C728 1.378 . S
C730 C731 1.367 . S
C731 C730 1.367 . S
C731 C733 1.433 . S
C732 C728 1.350 . S
C732 C729 1.463 . S
C732 N736 1.427 . S
C733 H723 0.929 . S
C733 C731 1.433 . S
C733 N736 1.384 . S
C734 H725 0.929 . S
C734 C726 1.378 . S
C734 C729 1.350 . S
C735 H722 0.929 . S
C735 C727 1.433 . S
C735 N737 1.384 . S
N736 C732 1.427 . S
N736 C733 1.384 . S
N737 C729 1.427 . S
N737 C735 1.384 . S
H738 C744 0.930 . S
H739 C748 0.930 . S
H740 C753 0.929 . S
H741 C751 0.929 . S
H742 C746 0.929 . S
H743 C752 0.929 . S
C744 H738 0.930 . S
C744 C745 1.367 . S
C744 C752 1.378 . S
C745 C744 1.367 . S
C745 C753 1.433 . S
C746 H742 0.929 . S
C746 C748 1.378 . S
C746 C750 1.350 . S
C747 C750 1.463 . S
C747 C752 1.350 . S
C747 N755 1.427 . S
C748 H739 0.930 . S
C748 C746 1.378 . S
C748 C749 1.367 . S
C749 C748 1.367 . S
C749 C751 1.433 . S
C750 C746 1.350 . S
C750 C747 1.463 . S
C750 N754 1.427 . S
C751 H741 0.929 . S
C751 C749 1.433 . S
C751 N754 1.384 . S
C752 H743 0.929 . S
C752 C744 1.378 . S
C752 C747 1.350 . S
C753 H740 0.929 . S
C753 C745 1.433 . S
C753 N755 1.384 . S
N754 C750 1.427 . S
N754 C751 1.384 . S
N755 C747 1.427 . S
N755 C753 1.384 . S
H756 C762 0.930 . S
H757 C766 0.930 . S
H758 C771 0.929 . S
H759 C769 0.929 . S
H760 C764 0.929 . S
H761 C770 0.929 . S
C762 H756 0.930 . S
C762 C763 1.367 . S
C762 C770 1.378 . S
C763 C762 1.367 . S
C763 C771 1.433 . S
C764 H760 0.929 . S
C764 C766 1.378 . S
C764 C768 1.350 . S
C765 C768 1.463 . S
C765 C770 1.350 . S
C765 N773 1.427 . S
C766 H757 0.930 . S
C766 C764 1.378 . S
C766 C767 1.367 . S
C767 C766 1.367 . S
C767 C769 1.433 . S
C768 C764 1.350 . S
C768 C765 1.463 . S
C768 N772 1.427 . S
C769 H759 0.929 . S
C769 C767 1.433 . S
C769 N772 1.384 . S
C770 H761 0.929 . S
C770 C762 1.378 . S
C770 C765 1.350 . S
C771 H758 0.929 . S
C771 C763 1.433 . S
C771 N773 1.384 . S
N772 C768 1.427 . S
N772 C769 1.384 . S
N773 C765 1.427 . S
N773 C771 1.384 . S
H774 C780 0.930 . S
H775 C784 0.930 . S
H776 C789 0.929 . S
H777 C787 0.929 . S
H778 C782 0.929 . S
H779 C788 0.929 . S
C780 H774 0.930 . S
C780 C781 1.367 . S
C780 C788 1.378 . S
C781 C780 1.367 . S
C781 C789 1.433 . S
C782 H778 0.929 . S
C782 C784 1.378 . S
C782 C786 1.350 . S
C783 C786 1.463 . S
C783 C788 1.350 . S
C783 N791 1.427 . S
C784 H775 0.930 . S
C784 C782 1.378 . S
C784 C785 1.367 . S
C785 C784 1.367 . S
C785 C787 1.433 . S
C786 C782 1.350 . S
C786 C783 1.463 . S
C786 N790 1.427 . S
C787 H777 0.929 . S
C787 C785 1.433 . S
C787 N790 1.384 . S
C788 H779 0.929 . S
C788 C780 1.378 . S
C788 C783 1.350 . S
C789 H776 0.929 . S
C789 C781 1.433 . S
C789 N791 1.384 . S
N790 C786 1.427 . S
N790 C787 1.384 . S
N791 C783 1.427 . S
N791 C789 1.384 . S
H792 C798 0.930 . S
H793 C802 0.930 . S
H794 C807 0.929 . S
H795 C805 0.929 . S
H796 C800 0.929 . S
H797 C806 0.929 . S
C798 H792 0.930 . S
C798 C799 1.367 . S
C798 C806 1.378 . S
C799 C798 1.367 . S
C799 C807 1.433 . S
C800 H796 0.929 . S
C800 C802 1.378 . S
C800 C804 1.350 . S
C801 C804 1.463 . S
C801 C806 1.350 . S
C801 N809 1.427 . S
C802 H793 0.930 . S
C802 C800 1.378 . S
C802 C803 1.367 . S
C803 C802 1.367 . S
C803 C805 1.433 . S
C804 C800 1.350 . S
C804 C801 1.463 . S
C804 N808 1.427 . S
C805 H795 0.929 . S
C805 C803 1.433 . S
C805 N808 1.384 . S
C806 H797 0.929 . S
C806 C798 1.378 . S
C806 C801 1.350 . S
C807 H794 0.929 . S
C807 C799 1.433 . S
C807 N809 1.384 . S
N808 C804 1.427 . S
N808 C805 1.384 . S
N809 C801 1.427 . S
N809 C807 1.384 . S
H810 C816 0.930 . S
H811 C820 0.930 . S
H812 C825 0.929 . S
H813 C823 0.929 . S
H814 C818 0.929 . S
H815 C824 0.929 . S
C816 H810 0.930 . S
C816 C817 1.367 . S
C816 C824 1.378 . S
C817 C816 1.367 . S
C817 C825 1.433 . S
C818 H814 0.929 . S
C818 C820 1.378 . S
C818 C822 1.350 . S
C819 C822 1.463 . S
C819 C824 1.350 . S
C819 N827 1.427 . S
C820 H811 0.930 . S
C820 C818 1.378 . S
C820 C821 1.367 . S
C821 C820 1.367 . S
C821 C823 1.433 . S
C822 C818 1.350 . S
C822 C819 1.463 . S
C822 N826 1.427 . S
C823 H813 0.929 . S
C823 C821 1.433 . S
C823 N826 1.384 . S
C824 H815 0.929 . S
C824 C816 1.378 . S
C824 C819 1.350 . S
C825 H812 0.929 . S
C825 C817 1.433 . S
C825 N827 1.384 . S
N826 C822 1.427 . S
N826 C823 1.384 . S
N827 C819 1.427 . S
N827 C825 1.384 . S
H828 C834 0.930 . S
H829 C838 0.930 . S
H830 C843 0.929 . S
H831 C841 0.929 . S
H832 C836 0.929 . S
H833 C842 0.929 . S
C834 H828 0.930 . S
C834 C835 1.367 . S
C834 C842 1.378 . S
C835 C834 1.367 . S
C835 C843 1.433 . S
C836 H832 0.929 . S
C836 C838 1.378 . S
C836 C840 1.350 . S
C837 C840 1.463 . S
C837 C842 1.350 . S
C837 N845 1.427 . S
C838 H829 0.930 . S
C838 C836 1.378 . S
C838 C839 1.367 . S
C839 C838 1.367 . S
C839 C841 1.433 . S
C840 C836 1.350 . S
C840 C837 1.463 . S
C840 N844 1.427 . S
C841 H831 0.929 . S
C841 C839 1.433 . S
C841 N844 1.384 . S
C842 H833 0.929 . S
C842 C834 1.378 . S
C842 C837 1.350 . S
C843 H830 0.929 . S
C843 C835 1.433 . S
C843 N845 1.384 . S
N844 C840 1.427 . S
N844 C841 1.384 . S
N845 C837 1.427 . S
N845 C843 1.384 . S
H846 C852 0.930 . S
H847 C856 0.930 . S
H848 C861 0.929 . S
H849 C859 0.929 . S
H850 C854 0.929 . S
H851 C860 0.929 . S
C852 H846 0.930 . S
C852 C853 1.367 . S
C852 C860 1.378 . S
C853 C852 1.367 . S
C853 C861 1.433 . S
C854 H850 0.929 . S
C854 C856 1.378 . S
C854 C858 1.350 . S
C855 C858 1.463 . S
C855 C860 1.350 . S
C855 N863 1.427 . S
C856 H847 0.930 . S
C856 C854 1.378 . S
C856 C857 1.367 . S
C857 C856 1.367 . S
C857 C859 1.433 . S
C858 C854 1.350 . S
C858 C855 1.463 . S
C858 N862 1.427 . S
C859 H849 0.929 . S
C859 C857 1.433 . S
C859 N862 1.384 . S
C860 H851 0.929 . S
C860 C852 1.378 . S
C860 C855 1.350 . S
C861 H848 0.929 . S
C861 C853 1.433 . S
C861 N863 1.384 . S
N862 C858 1.427 . S
N862 C859 1.384 . S
N863 C855 1.427 . S
N863 C861 1.384 . S
H864 C870 0.930 . S
H865 C874 0.930 . S
H866 C879 0.929 . S
H867 C877 0.929 . S
H868 C872 0.929 . S
H869 C878 0.929 . S
C870 H864 0.930 . S
C870 C871 1.367 . S
C870 C878 1.378 . S
C871 C870 1.367 . S
C871 C879 1.433 . S
C872 H868 0.929 . S
C872 C874 1.378 . S
C872 C876 1.350 . S
C873 C876 1.463 . S
C873 C878 1.350 . S
C873 N881 1.427 . S
C874 H865 0.930 . S
C874 C872 1.378 . S
C874 C875 1.367 . S
C875 C874 1.367 . S
C875 C877 1.433 . S
C876 C872 1.350 . S
C876 C873 1.463 . S
C876 N880 1.427 . S
C877 H867 0.929 . S
C877 C875 1.433 . S
C877 N880 1.384 . S
C878 H869 0.929 . S
C878 C870 1.378 . S
C878 C873 1.350 . S
C879 H866 0.929 . S
C879 C871 1.433 . S
C879 N881 1.384 . S
N880 C876 1.427 . S
N880 C877 1.384 . S
N881 C873 1.427 . S
N881 C879 1.384 . S
H882 C888 0.930 . S
H883 C892 0.930 . S
H884 C897 0.929 . S
H885 C895 0.929 . S
H886 C890 0.929 . S
H887 C896 0.929 . S
C888 H882 0.930 . S
C888 C889 1.367 . S
C888 C896 1.378 . S
C889 C888 1.367 . S
C889 C897 1.433 . S
C890 H886 0.929 . S
C890 C892 1.378 . S
C890 C894 1.350 . S
C891 C894 1.463 . S
C891 C896 1.350 . S
C891 N899 1.427 . S
C892 H883 0.930 . S
C892 C890 1.378 . S
C892 C893 1.367 . S
C893 C892 1.367 . S
C893 C895 1.433 . S
C894 C890 1.350 . S
C894 C891 1.463 . S
C894 N898 1.427 . S
C895 H885 0.929 . S
C895 C893 1.433 . S
C895 N898 1.384 . S
C896 H887 0.929 . S
C896 C888 1.378 . S
C896 C891 1.350 . S
C897 H884 0.929 . S
C897 C889 1.433 . S
C897 N899 1.384 . S
N898 C894 1.427 . S
N898 C895 1.384 . S
N899 C891 1.427 . S
N899 C897 1.384 . S
H900 C906 0.930 . S
H901 C910 0.930 . S
H902 C915 0.929 . S
H903 C913 0.929 . S
H904 C908 0.929 . S
H905 C914 0.929 . S
C906 H900 0.930 . S
C906 C907 1.367 . S
C906 C914 1.378 . S
C907 C906 1.367 . S
C907 C915 1.433 . S
C908 H904 0.929 . S
C908 C910 1.378 . S
C908 C912 1.350 . S
C909 C912 1.463 . S
C909 C914 1.350 . S
C909 N917 1.427 . S
C910 H901 0.930 . S
C910 C908 1.378 . S
C910 C911 1.367 . S
C911 C910 1.367 . S
C911 C913 1.433 . S
C912 C908 1.350 . S
C912 C909 1.463 . S
C912 N916 1.427 . S
C913 H903 0.929 . S
C913 C911 1.433 . S
C913 N916 1.384 . S
C914 H905 0.929 . S
C914 C906 1.378 . S
C914 C909 1.350 . S
C915 H902 0.929 . S
C915 C907 1.433 . S
C915 N917 1.384 . S
N916 C912 1.427 . S
N916 C913 1.384 . S
N917 C909 1.427 . S
N917 C915 1.384 . S
H918 C924 0.930 . S
H919 C928 0.930 . S
H920 C933 0.929 . S
H921 C931 0.929 . S
H922 C926 0.929 . S
H923 C932 0.929 . S
C924 H918 0.930 . S
C924 C925 1.367 . S
C924 C932 1.378 . S
C925 C924 1.367 . S
C925 C933 1.433 . S
C926 H922 0.929 . S
C926 C928 1.378 . S
C926 C930 1.350 . S
C927 C930 1.463 . S
C927 C932 1.350 . S
C927 N935 1.427 . S
C928 H919 0.930 . S
C928 C926 1.378 . S
C928 C929 1.367 . S
C929 C928 1.367 . S
C929 C931 1.433 . S
C930 C926 1.350 . S
C930 C927 1.463 . S
C930 N934 1.427 . S
C931 H921 0.929 . S
C931 C929 1.433 . S
C931 N934 1.384 . S
C932 H923 0.929 . S
C932 C924 1.378 . S
C932 C927 1.350 . S
C933 H920 0.929 . S
C933 C925 1.433 . S
C933 N935 1.384 . S
N934 C930 1.427 . S
N934 C931 1.384 . S
N935 C927 1.427 . S
N935 C933 1.384 . S
C403 C318 0.820 . S
C407 C21 0.833 . S
C421 C54 0.830 . S
C425 C351 0.819 . S
C439 C384 0.830 . S
C443 C87 0.819 . S
C457 C120 0.823 . S
C461 C219 0.819 . S
C475 C153 0.834 . S
C479 C252 0.840 . S
C493 C285 0.818 . S
C497 C186 0.825 . S
C511 C18 1.311 . S
C515 N134 1.168 . S
C529 N167 1.182 . S
C533 C51 1.309 . S
C547 C84 1.310 . S
C551 N2 1.188 . S
C565 C117 1.315 . S
C569 N35 1.161 . S
C583 N68 1.188 . S
C587 C150 1.309 . S
C601 N101 1.181 . S
C605 C183 1.309 . S
C619 N266 1.161 . S
C623 C216 1.315 . S
C637 C249 1.309 . S
C641 N299 1.187 . S
C655 N332 1.162 . S
C659 C282 1.315 . S
C673 N365 1.159 . S
C677 C315 1.314 . S
C691 N200 1.168 . S
C695 C348 1.311 . S
C709 C381 1.314 . S
C713 N233 1.160 . S
C727 N343 0.697 . S
C731 N13 0.727 . S
C745 N376 0.727 . S
C749 N46 0.696 . S
C763 N79 0.685 . S
C767 N211 0.724 . S
C781 N112 0.715 . S
C785 N244 0.679 . S
C799 N277 0.688 . S
C803 N145 0.689 . S
C817 N178 0.688 . S
C821 N310 0.689 . S
C835 C205 0.963 . S
C839 C7 0.959 . S
C853 C238 0.970 . S
C857 C40 0.980 . S
C871 C73 0.973 . S
C875 C271 0.961 . S
C889 C304 0.959 . S
C893 C106 0.968 . S
C907 C139 0.970 . S
C911 C337 0.960 . S
C925 C370 0.977 . S
C929 C172 0.980 . S
