# Generated by pormake.
# Topology ukn, (4)-cn, num edge types: 1
# Building blocks:
#     Node 0, Type 0, BuildingBlock: TATPOV_clean_sbu_0, # of connection points: 4
#     Node 1, Type 0, BuildingBlock: TATPOV_clean_sbu_0, # of connection points: 4
#     Node 2, Type 0, BuildingBlock: TATPOV_clean_sbu_0, # of connection points: 4
#     Node 3, Type 0, BuildingBlock: TATPOV_clean_sbu_0, # of connection points: 4
#     Node 4, Type 0, BuildingBlock: TATPOV_clean_sbu_0, # of connection points: 4
#     Node 5, Type 0, BuildingBlock: TATPOV_clean_sbu_0, # of connection points: 4
#     Node 6, Type 0, BuildingBlock: TATPOV_clean_sbu_0, # of connection points: 4
#     Node 7, Type 0, BuildingBlock: TATPOV_clean_sbu_0, # of connection points: 4
#     Node 8, Type 0, BuildingBlock: TATPOV_clean_sbu_0, # of connection points: 4
#     Node 9, Type 0, BuildingBlock: TATPOV_clean_sbu_0, # of connection points: 4
#     Node 10, Type 0, BuildingBlock: TATPOV_clean_sbu_0, # of connection points: 4
#     Node 11, Type 0, BuildingBlock: TATPOV_clean_sbu_0, # of connection points: 4
#     Node 12, Type 0, BuildingBlock: TATPOV_clean_sbu_0, # of connection points: 4
#     Node 13, Type 0, BuildingBlock: TATPOV_clean_sbu_0, # of connection points: 4
#     Node 14, Type 0, BuildingBlock: TATPOV_clean_sbu_0, # of connection points: 4
#     Node 15, Type 0, BuildingBlock: TATPOV_clean_sbu_0, # of connection points: 4
#     Node 16, Type 0, BuildingBlock: TATPOV_clean_sbu_0, # of connection points: 4
#     Node 17, Type 0, BuildingBlock: TATPOV_clean_sbu_0, # of connection points: 4
#     Node 18, Type 0, BuildingBlock: TATPOV_clean_sbu_0, # of connection points: 4
#     Node 19, Type 0, BuildingBlock: TATPOV_clean_sbu_0, # of connection points: 4
#     Node 20, Type 0, BuildingBlock: TATPOV_clean_sbu_0, # of connection points: 4
#     Node 21, Type 0, BuildingBlock: TATPOV_clean_sbu_0, # of connection points: 4
#     Node 22, Type 0, BuildingBlock: TATPOV_clean_sbu_0, # of connection points: 4
#     Node 23, Type 0, BuildingBlock: TATPOV_clean_sbu_0, # of connection points: 4
#     Node 24, Type 0, BuildingBlock: TATPOV_clean_sbu_0, # of connection points: 4
#     Node 25, Type 0, BuildingBlock: TATPOV_clean_sbu_0, # of connection points: 4
#     Node 26, Type 0, BuildingBlock: TATPOV_clean_sbu_0, # of connection points: 4
#     Node 27, Type 0, BuildingBlock: TATPOV_clean_sbu_0, # of connection points: 4
#     Node 28, Type 0, BuildingBlock: TATPOV_clean_sbu_0, # of connection points: 4
#     Node 29, Type 0, BuildingBlock: TATPOV_clean_sbu_0, # of connection points: 4
#     Node 30, Type 0, BuildingBlock: TATPOV_clean_sbu_0, # of connection points: 4
#     Node 31, Type 0, BuildingBlock: TATPOV_clean_sbu_0, # of connection points: 4
#     Node 32, Type 0, BuildingBlock: TATPOV_clean_sbu_0, # of connection points: 4
#     Node 33, Type 0, BuildingBlock: TATPOV_clean_sbu_0, # of connection points: 4
#     Node 34, Type 0, BuildingBlock: TATPOV_clean_sbu_0, # of connection points: 4
#     Node 35, Type 0, BuildingBlock: TATPOV_clean_sbu_0, # of connection points: 4
#     Edge 36, Type (0, 0), BuildingBlock: OJICUG_clean_linker_0, # of connection points: 2
#     Edge 37, Type (0, 0), BuildingBlock: OJICUG_clean_linker_0, # of connection points: 2
#     Edge 38, Type (0, 0), BuildingBlock: OJICUG_clean_linker_0, # of connection points: 2
#     Edge 39, Type (0, 0), BuildingBlock: OJICUG_clean_linker_0, # of connection points: 2
#     Edge 40, Type (0, 0), BuildingBlock: OJICUG_clean_linker_0, # of connection points: 2
#     Edge 41, Type (0, 0), BuildingBlock: OJICUG_clean_linker_0, # of connection points: 2
#     Edge 42, Type (0, 0), BuildingBlock: OJICUG_clean_linker_0, # of connection points: 2
#     Edge 43, Type (0, 0), BuildingBlock: OJICUG_clean_linker_0, # of connection points: 2
#     Edge 44, Type (0, 0), BuildingBlock: OJICUG_clean_linker_0, # of connection points: 2
#     Edge 45, Type (0, 0), BuildingBlock: OJICUG_clean_linker_0, # of connection points: 2
#     Edge 46, Type (0, 0), BuildingBlock: OJICUG_clean_linker_0, # of connection points: 2
#     Edge 47, Type (0, 0), BuildingBlock: OJICUG_clean_linker_0, # of connection points: 2
#     Edge 48, Type (0, 0), BuildingBlock: OJICUG_clean_linker_0, # of connection points: 2
#     Edge 49, Type (0, 0), BuildingBlock: OJICUG_clean_linker_0, # of connection points: 2
#     Edge 50, Type (0, 0), BuildingBlock: OJICUG_clean_linker_0, # of connection points: 2
#     Edge 51, Type (0, 0), BuildingBlock: OJICUG_clean_linker_0, # of connection points: 2
#     Edge 52, Type (0, 0), BuildingBlock: OJICUG_clean_linker_0, # of connection points: 2
#     Edge 53, Type (0, 0), BuildingBlock: OJICUG_clean_linker_0, # of connection points: 2
#     Edge 54, Type (0, 0), BuildingBlock: OJICUG_clean_linker_0, # of connection points: 2
#     Edge 55, Type (0, 0), BuildingBlock: OJICUG_clean_linker_0, # of connection points: 2
#     Edge 56, Type (0, 0), BuildingBlock: OJICUG_clean_linker_0, # of connection points: 2
#     Edge 57, Type (0, 0), BuildingBlock: OJICUG_clean_linker_0, # of connection points: 2
#     Edge 58, Type (0, 0), BuildingBlock: OJICUG_clean_linker_0, # of connection points: 2
#     Edge 59, Type (0, 0), BuildingBlock: OJICUG_clean_linker_0, # of connection points: 2
#     Edge 60, Type (0, 0), BuildingBlock: OJICUG_clean_linker_0, # of connection points: 2
#     Edge 61, Type (0, 0), BuildingBlock: OJICUG_clean_linker_0, # of connection points: 2
#     Edge 62, Type (0, 0), BuildingBlock: OJICUG_clean_linker_0, # of connection points: 2
#     Edge 63, Type (0, 0), BuildingBlock: OJICUG_clean_linker_0, # of connection points: 2
#     Edge 64, Type (0, 0), BuildingBlock: OJICUG_clean_linker_0, # of connection points: 2
#     Edge 65, Type (0, 0), BuildingBlock: OJICUG_clean_linker_0, # of connection points: 2
#     Edge 66, Type (0, 0), BuildingBlock: OJICUG_clean_linker_0, # of connection points: 2
#     Edge 67, Type (0, 0), BuildingBlock: OJICUG_clean_linker_0, # of connection points: 2
#     Edge 68, Type (0, 0), BuildingBlock: OJICUG_clean_linker_0, # of connection points: 2
#     Edge 69, Type (0, 0), BuildingBlock: OJICUG_clean_linker_0, # of connection points: 2
#     Edge 70, Type (0, 0), BuildingBlock: OJICUG_clean_linker_0, # of connection points: 2
#     Edge 71, Type (0, 0), BuildingBlock: OJICUG_clean_linker_0, # of connection points: 2
#     Edge 72, Type (0, 0), BuildingBlock: OJICUG_clean_linker_0, # of connection points: 2
#     Edge 73, Type (0, 0), BuildingBlock: OJICUG_clean_linker_0, # of connection points: 2
#     Edge 74, Type (0, 0), BuildingBlock: OJICUG_clean_linker_0, # of connection points: 2
#     Edge 75, Type (0, 0), BuildingBlock: OJICUG_clean_linker_0, # of connection points: 2
#     Edge 76, Type (0, 0), BuildingBlock: OJICUG_clean_linker_0, # of connection points: 2
#     Edge 77, Type (0, 0), BuildingBlock: OJICUG_clean_linker_0, # of connection points: 2
#     Edge 78, Type (0, 0), BuildingBlock: OJICUG_clean_linker_0, # of connection points: 2
#     Edge 79, Type (0, 0), BuildingBlock: OJICUG_clean_linker_0, # of connection points: 2
#     Edge 80, Type (0, 0), BuildingBlock: OJICUG_clean_linker_0, # of connection points: 2
#     Edge 81, Type (0, 0), BuildingBlock: OJICUG_clean_linker_0, # of connection points: 2
#     Edge 82, Type (0, 0), BuildingBlock: OJICUG_clean_linker_0, # of connection points: 2
#     Edge 83, Type (0, 0), BuildingBlock: OJICUG_clean_linker_0, # of connection points: 2
#     Edge 84, Type (0, 0), BuildingBlock: OJICUG_clean_linker_0, # of connection points: 2
#     Edge 85, Type (0, 0), BuildingBlock: OJICUG_clean_linker_0, # of connection points: 2
#     Edge 86, Type (0, 0), BuildingBlock: OJICUG_clean_linker_0, # of connection points: 2
#     Edge 87, Type (0, 0), BuildingBlock: OJICUG_clean_linker_0, # of connection points: 2
#     Edge 88, Type (0, 0), BuildingBlock: OJICUG_clean_linker_0, # of connection points: 2
#     Edge 89, Type (0, 0), BuildingBlock: OJICUG_clean_linker_0, # of connection points: 2
#     Edge 90, Type (0, 0), BuildingBlock: OJICUG_clean_linker_0, # of connection points: 2
#     Edge 91, Type (0, 0), BuildingBlock: OJICUG_clean_linker_0, # of connection points: 2
#     Edge 92, Type (0, 0), BuildingBlock: OJICUG_clean_linker_0, # of connection points: 2
#     Edge 93, Type (0, 0), BuildingBlock: OJICUG_clean_linker_0, # of connection points: 2
#     Edge 94, Type (0, 0), BuildingBlock: OJICUG_clean_linker_0, # of connection points: 2
#     Edge 95, Type (0, 0), BuildingBlock: OJICUG_clean_linker_0, # of connection points: 2
#     Edge 96, Type (0, 0), BuildingBlock: OJICUG_clean_linker_0, # of connection points: 2
#     Edge 97, Type (0, 0), BuildingBlock: OJICUG_clean_linker_0, # of connection points: 2
#     Edge 98, Type (0, 0), BuildingBlock: OJICUG_clean_linker_0, # of connection points: 2
#     Edge 99, Type (0, 0), BuildingBlock: OJICUG_clean_linker_0, # of connection points: 2
#     Edge 100, Type (0, 0), BuildingBlock: OJICUG_clean_linker_0, # of connection points: 2
#     Edge 101, Type (0, 0), BuildingBlock: OJICUG_clean_linker_0, # of connection points: 2
#     Edge 102, Type (0, 0), BuildingBlock: OJICUG_clean_linker_0, # of connection points: 2
#     Edge 103, Type (0, 0), BuildingBlock: OJICUG_clean_linker_0, # of connection points: 2
#     Edge 104, Type (0, 0), BuildingBlock: OJICUG_clean_linker_0, # of connection points: 2
#     Edge 105, Type (0, 0), BuildingBlock: OJICUG_clean_linker_0, # of connection points: 2
#     Edge 106, Type (0, 0), BuildingBlock: OJICUG_clean_linker_0, # of connection points: 2
#     Edge 107, Type (0, 0), BuildingBlock: OJICUG_clean_linker_0, # of connection points: 2
# Relax obj value: 0.153
# Max RMSD: 0.151
# Mean RMSD: 0.151
data_MOF--net-ukn--node1-TATPOV_clean_sbu_0--edge1-OJICUG_clean_linker_0
_symmetry_space_group_name_H-M    P1
_symmetry_Int_Tables_number       1
_symmetry_cell_setting            triclinic
loop_
_symmetry_equiv_pos_as_xyz
'x, y, z'
_cell_length_a     80.044201
_cell_length_b     80.344234
_cell_length_c     18.432057
_cell_angle_alpha  89.426613
_cell_angle_beta   89.96463
_cell_angle_gamma 119.98665
loop_
_atom_site_label
_atom_site_type_symbol
_atom_site_fract_x
_atom_site_fract_y
_atom_site_fract_z
_atom_type_partial_charge
Zn0 Zn 0.04364 0.24205 0.982 0.0
Zn1 Zn 0.0484 0.26686 0.08582 0.0
O2 O 0.01883 0.25233 0.06797 0.0
O3 O 0.01597 0.23421 0.97422 0.0
O4 O 0.05316 0.28503 0.16992 0.0
O5 O 0.0531 0.22822 0.04642 0.0
O6 O 0.06092 0.25153 0.12388 0.0
C7 C 0.00859 0.24062 0.01859 0.0
C8 C 0.06769 0.28086 0.93615 0.0
O9 O 0.0634 0.28432 0.99885 0.0
O10 O 0.06182 0.26374 0.91695 0.0
C11 C 0.04564 0.27818 0.23182 0.0
O12 O 0.03398 0.25956 0.23866 0.0
C13 C 0.06127 0.23652 0.10457 0.0
Zn14 Zn 0.70263 0.78932 0.99334 0.0
Zn15 Zn 0.67873 0.76522 0.09461 0.0
O16 O 0.69805 0.75549 0.07362 0.0
O17 O 0.7183 0.77678 0.99401 0.0
O18 O 0.66193 0.74916 0.18004 0.0
O19 O 0.71044 0.81205 0.05521 0.0
O20 O 0.68912 0.79259 0.13561 0.0
C21 C 0.71289 0.76183 0.03236 0.0
C22 C 0.66364 0.76689 0.94384 0.0
O23 O 0.66061 0.75994 0.00817 0.0
O24 O 0.68036 0.77983 0.92427 0.0
C25 C 0.64384 0.73756 0.17707 0.0
O26 O 0.63518 0.73421 0.114 0.0
C27 C 0.70179 0.80947 0.11521 0.0
Zn28 Zn 0.14407 0.89796 0.98687 0.0
Zn29 Zn 0.16878 0.89776 0.08455 0.0
O30 O 0.17874 0.9267 0.06241 0.0
O31 O 0.15712 0.92627 0.98692 0.0
O32 O 0.18542 0.89686 0.16632 0.0
O33 O 0.12155 0.88257 0.05226 0.0
O34 O 0.1416 0.88054 0.12831 0.0
C35 C 0.17248 0.93551 0.02261 0.0
C36 C 0.16628 0.88122 0.93428 0.0
O37 O 0.17351 0.88496 0.99775 0.0
O38 O 0.15344 0.88528 0.91634 0.0
C39 C 0.18451 0.90338 0.228 0.0
O40 O 0.17412 0.9118 0.23452 0.0
C41 C 0.1245 0.87611 0.11074 0.0
Zn42 Zn 0.22253 0.05334 0.03795 0.0
Zn43 Zn 0.24609 0.05666 0.92868 0.0
O44 O 0.22798 0.02714 0.94175 0.0
O45 O 0.20746 0.02525 0.02616 0.0
O46 O 0.26181 0.06097 0.83619 0.0
O47 O 0.21371 0.06982 0.98995 0.0
O48 O 0.23431 0.07379 0.90343 0.0
C49 C 0.21329 0.01721 0.98249 0.0
C50 C 0.26252 0.06942 0.07976 0.0
O51 O 0.26528 0.06758 0.01279 0.0
O52 O 0.24577 0.06448 0.10317 0.0
C53 C 0.27217 0.05419 0.81317 0.0
O54 O 0.27415 0.04169 0.85329 0.0
C55 C 0.22188 0.0775 0.93039 0.0
Zn56 Zn 0.89106 0.17092 0.02661 0.0
Zn57 Zn 0.88737 0.19102 0.92194 0.0
O58 O 0.91703 0.20466 0.93995 0.0
O59 O 0.91876 0.18962 0.03799 0.0
O60 O 0.88383 0.20451 0.83377 0.0
O61 O 0.88178 0.14758 0.96513 0.0
O62 O 0.8736 0.16297 0.88678 0.0
C63 C 0.92681 0.20295 0.99133 0.0
C64 C 0.86789 0.18663 0.06978 0.0
O65 O 0.87272 0.19466 0.00721 0.0
O66 O 0.87292 0.17465 0.08948 0.0
C67 C 0.87789 0.21654 0.83555 0.0
O68 O 0.87464 0.22186 0.8987 0.0
C69 C 0.8733 0.14763 0.90734 0.0
Zn70 Zn 0.78664 0.71712 0.01098 0.0
Zn71 Zn 0.76227 0.69208 0.91509 0.0
O72 O 0.75111 0.70995 0.93802 0.0
O73 O 0.77256 0.73144 0.01197 0.0
O74 O 0.74588 0.67463 0.83379 0.0
O75 O 0.80922 0.72543 0.945 0.0
O76 O 0.78952 0.70307 0.87039 0.0
C77 C 0.75693 0.7248 0.9775 0.0
C78 C 0.76583 0.67804 0.06508 0.0
O79 O 0.75835 0.67445 1.00201 0.0
O80 O 0.77833 0.69502 0.08206 0.0
C81 C 0.74668 0.68223 0.77197 0.0
O82 O 0.75679 0.70103 0.76519 0.0
C83 C 0.80647 0.7162 0.8869 0.0
Zn84 Zn 0.88807 0.70691 0.01389 0.0
Zn85 Zn 0.8868 0.68293 0.91612 0.0
O86 O 0.91626 0.69952 0.94 0.0
O87 O 0.91612 0.71921 0.02227 0.0
O88 O 0.88425 0.66515 0.83328 0.0
O89 O 0.87691 0.71864 0.94947 0.0
O90 O 0.87257 0.6963 0.87173 0.0
C91 C 0.92521 0.71323 0.98478 0.0
C92 C 0.86715 0.66818 0.06417 0.0
O93 O 0.87187 0.66493 1.00195 0.0
O94 O 0.87183 0.68513 0.08198 0.0
C95 C 0.8904 0.67237 0.77039 0.0
O96 O 0.89971 0.69116 0.76265 0.0
C97 C 0.87042 0.71041 0.88965 0.0
Zn98 Zn 0.23537 0.1738 0.04372 0.0
Zn99 Zn 0.25866 0.1925 0.93677 0.0
O100 O 0.24298 0.20655 0.9523 0.0
O101 O 0.22688 0.19283 0.05316 0.0
O102 O 0.27567 0.20513 0.84737 0.0
O103 O 0.22041 0.14988 0.98655 0.0
O104 O 0.24366 0.16406 0.90584 0.0
C105 C 0.23191 0.20557 1.00422 0.0
C106 C 0.27415 0.18917 0.0853 0.0
O107 O 0.27719 0.19671 0.02186 0.0
O108 O 0.25715 0.17748 0.10636 0.0
C109 C 0.29354 0.21765 0.84902 0.0
O110 O 0.30187 0.22387 0.91211 0.0
C111 C 0.22853 0.14911 0.92887 0.0
Zn112 Zn 0.78671 0.05435 0.02754 0.0
Zn113 Zn 0.76397 0.05624 0.9261 0.0
O114 O 0.75276 0.02705 0.9472 0.0
O115 O 0.7731 0.02607 0.02557 0.0
O116 O 0.74828 0.05774 0.84168 0.0
O117 O 0.81036 0.06951 0.9678 0.0
O118 O 0.79199 0.07301 0.88763 0.0
C119 C 0.75806 0.01754 0.98765 0.0
C120 C 0.76495 0.07193 0.07655 0.0
O121 O 0.75856 0.06891 0.01179 0.0
O122 O 0.77713 0.06715 0.09641 0.0
C123 C 0.74972 0.05147 0.78015 0.0
O124 O 0.76046 0.04341 0.77464 0.0
C125 C 0.80864 0.07666 0.90883 0.0
Zn126 Zn 0.70361 0.89866 0.99548 0.0
Zn127 Zn 0.67952 0.89833 0.09554 0.0
O128 O 0.69893 0.92739 0.07506 0.0
O129 O 0.71937 0.9268 0.996 0.0
O130 O 0.66225 0.89738 0.17852 0.0
O131 O 0.71125 0.88338 0.05794 0.0
O132 O 0.68963 0.88097 0.13743 0.0
C133 C 0.71386 0.93611 0.03431 0.0
C134 C 0.66464 0.88226 0.94512 0.0
O135 O 0.66145 0.88588 0.00926 0.0
O136 O 0.68144 0.88622 0.92598 0.0
C137 C 0.66978 0.90332 0.24051 0.0
O138 O 0.68857 0.91117 0.24683 0.0
C139 C 0.70238 0.87688 0.11745 0.0
Zn140 Zn 0.04327 0.78236 0.99359 0.0
Zn141 Zn 0.04589 0.76094 0.09774 0.0
O142 O 0.01626 0.74795 0.07791 0.0
O143 O 0.0151 0.76645 0.99083 0.0
O144 O 0.04893 0.74681 0.18513 0.0
O145 O 0.055 0.80582 0.05331 0.0
O146 O 0.06014 0.78895 0.13571 0.0
C147 C 0.0067 0.75203 0.03265 0.0
C148 C 0.06424 0.76421 0.94823 0.0
O149 O 0.06026 0.75711 0.01238 0.0
O150 O 0.05902 0.77596 0.92737 0.0
C151 C 0.05585 0.73559 0.18272 0.0
O152 O 0.06025 0.7314 0.11939 0.0
C153 C 0.06195 0.80486 0.11368 0.0
Zn154 Zn 0.15335 0.24342 0.98872 0.0
Zn155 Zn 0.17274 0.26783 0.09341 0.0
O156 O 0.1879 0.25353 0.07535 0.0
O157 O 0.17324 0.23576 0.9802 0.0
O158 O 0.1861 0.28557 0.17863 0.0
O159 O 0.1298 0.22901 0.05139 0.0
O160 O 0.14459 0.2523 0.12956 0.0
C161 C 0.18683 0.24211 0.02548 0.0
C162 C 0.16809 0.28229 0.94424 0.0
O163 O 0.17568 0.28564 0.00718 0.0
O164 O 0.15685 0.2652 0.92455 0.0
C165 C 0.18683 0.27838 0.23965 0.0
O166 O 0.17966 0.2597 0.24493 0.0
C167 C 0.12944 0.23717 0.10924 0.0
Zn168 Zn 0.70926 0.57833 0.3234 0.0
Zn169 Zn 0.71305 0.60219 0.42605 0.0
O170 O 0.68354 0.58721 0.40531 0.0
O171 O 0.68169 0.57 0.30995 0.0
O172 O 0.71643 0.61891 0.51346 0.0
O173 O 0.71804 0.56378 0.38651 0.0
O174 O 0.72631 0.58733 0.4631 0.0
C175 C 0.67378 0.57587 0.35422 0.0
C176 C 0.73312 0.61734 0.27944 0.0
O177 O 0.72821 0.62058 0.3413 0.0
O178 O 0.7279 0.60032 0.2608 0.0
C179 C 0.72141 0.63663 0.51096 0.0
O180 O 0.72385 0.64514 0.44746 0.0
C181 C 0.7265 0.57223 0.44402 0.0
Zn182 Zn 0.36487 0.11918 0.32718 0.0
Zn183 Zn 0.34197 0.09526 0.42998 0.0
O184 O 0.36089 0.0852 0.40545 0.0
O185 O 0.37997 0.10609 0.32226 0.0
O186 O 0.32524 0.079 0.51519 0.0
O187 O 0.37411 0.14184 0.39052 0.0
O188 O 0.35358 0.12257 0.47338 0.0
C189 C 0.37512 0.09134 0.36115 0.0
C190 C 0.32556 0.09774 0.28236 0.0
O191 O 0.32308 0.09044 0.34605 0.0
O192 O 0.34214 0.11067 0.26149 0.0
C193 C 0.3131 0.0835 0.53918 0.0
O194 O 0.31144 0.09703 0.50494 0.0
C195 C 0.36639 0.13933 0.45245 0.0
Zn196 Zn 0.81074 0.22944 0.33112 0.0
Zn197 Zn 0.83546 0.22981 0.42922 0.0
O198 O 0.84531 0.25863 0.40488 0.0
O199 O 0.82343 0.25768 0.32947 0.0
O200 O 0.85224 0.22942 0.51143 0.0
O201 O 0.78821 0.21431 0.39636 0.0
O202 O 0.80826 0.21268 0.47362 0.0
C203 C 0.83887 0.26716 0.36449 0.0
C204 C 0.83332 0.21301 0.27981 0.0
O205 O 0.84047 0.21691 0.34339 0.0
O206 O 0.82031 0.21677 0.2614 0.0
C207 C 0.85107 0.23584 0.57298 0.0
O208 O 0.84026 0.24382 0.57919 0.0
C209 C 0.79116 0.20821 0.45569 0.0
Zn210 Zn 0.88939 0.38548 0.33555 0.0
Zn211 Zn 0.91392 0.38544 0.23711 0.0
O212 O 0.89469 0.35656 0.2605 0.0
O213 O 0.87363 0.3573 0.33595 0.0
O214 O 0.93073 0.38585 0.15288 0.0
O215 O 0.8822 0.40089 0.27156 0.0
O216 O 0.90413 0.40293 0.19453 0.0
C217 C 0.87959 0.34793 0.30042 0.0
C218 C 0.92837 0.40181 0.38731 0.0
O219 O 0.93171 0.39809 0.32358 0.0
O220 O 0.91154 0.39792 0.40572 0.0
C221 C 0.9489 0.39272 0.15576 0.0
O222 O 0.9577 0.39881 0.21816 0.0
C223 C 0.89151 0.40736 0.21286 0.0
Zn224 Zn 0.5567 0.5046 0.35249 0.0
Zn225 Zn 0.55293 0.524 0.24698 0.0
O226 O 0.58257 0.53839 0.26662 0.0
O227 O 0.58403 0.52402 0.36704 0.0
O228 O 0.54906 0.53696 0.15786 0.0
O229 O 0.54893 0.48137 0.29205 0.0
O230 O 0.53999 0.49587 0.21262 0.0
C231 C 0.59216 0.53721 0.3199 0.0
C232 C 0.53245 0.51908 0.39291 0.0
O233 O 0.53771 0.52734 0.33085 0.0
O234 O 0.53751 0.50718 0.41324 0.0
C235 C 0.54304 0.54893 0.15917 0.0
O236 O 0.54002 0.55453 0.22211 0.0
C237 C 0.54037 0.48093 0.23385 0.0
Zn238 Zn 0.4511 0.04935 0.34549 0.0
Zn239 Zn 0.42756 0.0239 0.24901 0.0
O240 O 0.41566 0.04121 0.27015 0.0
O241 O 0.43655 0.06322 0.34399 0.0
O242 O 0.41168 0.00636 0.16714 0.0
O243 O 0.47414 0.05793 0.28176 0.0
O244 O 0.45511 0.03529 0.20674 0.0
C245 C 0.42098 0.05611 0.30885 0.0
C246 C 0.43081 0.0102 0.39972 0.0
O247 O 0.42365 0.00641 0.33616 0.0
O248 O 0.44284 0.02732 0.41698 0.0
C249 C 0.41231 0.01397 0.10552 0.0
O250 O 0.42205 0.0328 0.09914 0.0
C251 C 0.47189 0.04859 0.22431 0.0
Zn252 Zn 0.55508 0.03906 0.35227 0.0
Zn253 Zn 0.55223 0.01446 0.25135 0.0
O254 O 0.58187 0.03089 0.27032 0.0
O255 O 0.58332 0.05114 0.35368 0.0
O256 O 0.54888 -0.00349 0.16822 0.0
O257 O 0.543 0.05031 0.28953 0.0
O258 O 0.53798 0.02808 0.21008 0.0
C259 C 0.59157 0.04474 0.31363 0.0
C260 C 0.53406 4e-05 0.40181 0.0
O261 O 0.53789 -0.00333 0.33822 0.0
O262 O 0.53947 0.01709 0.4208 0.0
C263 C 0.55519 0.00366 0.10538 0.0
O264 O 0.56495 0.02245 0.09765 0.0
C265 C 0.53604 0.04218 0.22989 0.0
Zn266 Zn 0.89915 0.49731 0.34607 0.0
Zn267 Zn 0.92288 0.52108 0.24382 0.0
O268 O 0.90424 0.53171 0.26553 0.0
O269 O 0.88477 0.51113 0.34878 0.0
O270 O 0.9403 0.53678 0.15847 0.0
O271 O 0.88971 0.47467 0.28258 0.0
O272 O 0.91099 0.49368 0.20118 0.0
C273 C 0.88995 0.52586 0.30938 0.0
C274 C 0.93799 0.51798 0.39416 0.0
O275 O 0.94082 0.52535 0.33054 0.0
O276 O 0.92128 0.50513 0.41406 0.0
C277 C 0.95866 0.5456 0.16078 0.0
O278 O -0.03289 0.54634 0.22269 0.0
C279 C 0.89777 0.47703 0.22143 0.0
Zn280 Zn 0.45649 0.38724 0.36323 0.0
Zn281 Zn 0.43283 0.38826 0.26295 0.0
O282 O 0.42205 0.35916 0.28521 0.0
O283 O 0.44321 0.35897 0.36156 0.0
O284 O 0.41674 0.38969 0.17963 0.0
O285 O 0.47971 0.4026 0.30142 0.0
O286 O 0.46054 0.40502 0.22202 0.0
C287 C 0.42791 0.35005 0.32524 0.0
C288 C 0.43441 0.40426 0.41377 0.0
O289 O 0.4278 0.40103 0.34932 0.0
O290 O 0.44685 0.39978 0.43313 0.0
C291 C 0.41781 0.38338 0.11768 0.0
O292 O 0.42824 0.37502 0.11096 0.0
C293 C 0.47742 0.40918 0.24201 0.0
Zn294 Zn 0.37459 0.23136 0.34366 0.0
Zn295 Zn 0.35052 0.23142 0.44362 0.0
O296 O 0.37014 0.26038 0.42244 0.0
O297 O 0.39072 0.25949 0.34487 0.0
O298 O 0.33321 0.23066 0.52627 0.0
O299 O 0.3815 0.21547 0.40607 0.0
O300 O 0.35995 0.21349 0.48493 0.0
C301 C 0.38516 0.26895 0.3821 0.0
C302 C 0.33574 0.21578 0.29269 0.0
O303 O 0.33264 0.21937 0.35699 0.0
O304 O 0.35244 0.21946 0.27344 0.0
C305 C 0.34059 0.23689 0.58826 0.0
O306 O 0.35938 0.24495 0.5953 0.0
C307 C 0.37236 0.20892 0.46507 0.0
Zn308 Zn 0.71034 0.11744 0.33252 0.0
Zn309 Zn 0.71134 0.0946 0.43273 0.0
O310 O 0.6819 0.08194 0.40785 0.0
O311 O 0.68233 0.10173 0.32305 0.0
O312 O 0.71368 0.07971 0.51918 0.0
O313 O 0.72124 0.14024 0.39561 0.0
O314 O 0.72552 0.12217 0.47501 0.0
C315 C 0.6731 0.08674 0.36155 0.0
C316 C 0.73138 0.09965 0.28555 0.0
O317 O 0.7264 0.09157 0.34794 0.0
O318 O 0.72685 0.11204 0.26636 0.0
C319 C 0.72237 0.07007 0.51721 0.0
O320 O 0.72881 0.06781 0.45466 0.0
C321 C 0.72767 0.13842 0.45591 0.0
Zn322 Zn 0.81406 0.56781 0.32786 0.0
Zn323 Zn 0.83646 0.5921 0.42761 0.0
O324 O 0.84878 0.57512 0.40478 0.0
O325 O 0.82857 0.55402 0.32677 0.0
O326 O 0.8513 0.60856 0.51431 0.0
O327 O 0.79013 0.55781 0.38673 0.0
O328 O 0.80819 0.57989 0.46531 0.0
C329 C 0.84386 0.56073 0.36343 0.0
C330 C 0.83451 0.6072 0.27784 0.0
O331 O 0.84127 0.61052 0.34207 0.0
O332 O 0.82247 0.59024 0.25893 0.0
C333 C 0.86477 0.62603 0.5108 0.0
O334 O 0.87059 0.63435 0.44684 0.0
C335 C 0.79166 0.56658 0.44504 0.0
Zn336 Zn 0.37494 0.91038 0.65639 0.0
Zn337 Zn 0.37845 0.93401 0.75945 0.0
O338 O 0.34902 0.91909 0.73799 0.0
O339 O 0.34745 0.90224 0.64186 0.0
O340 O 0.38178 0.95069 0.84685 0.0
O341 O 0.38331 0.89558 0.71991 0.0
O342 O 0.39149 0.91902 0.79695 0.0
C343 C 0.33941 0.90794 0.68624 0.0
C344 C 0.3989 0.94938 0.61353 0.0
O345 O 0.39374 0.95247 0.67514 0.0
O346 O 0.39385 0.93241 0.59468 0.0
C347 C 0.38693 0.96845 0.84436 0.0
O348 O 0.38952 -0.02299 0.78088 0.0
C349 C 0.39161 0.90388 0.77786 0.0
Zn350 Zn 0.02837 0.44775 0.64146 0.0
Zn351 Zn 0.00495 0.4265 0.74514 0.0
O352 O 0.02247 0.41453 0.72719 0.0
O353 O 0.03888 0.43037 0.62946 0.0
O354 O -0.01249 0.41172 0.8306 0.0
O355 O 0.04123 0.47086 0.70476 0.0
O356 O 0.01781 0.4543 0.78278 0.0
C357 C 0.0343 0.4171 0.67586 0.0
C358 C -0.01054 0.43015 0.59726 0.0
O359 O -0.01342 0.42204 0.65956 0.0
O360 O 0.00626 0.44293 0.57802 0.0
C361 C -0.00492 0.41343 0.8928 0.0
O362 O 0.01395 0.42353 0.89817 0.0
C363 C 0.03247 0.47008 0.76291 0.0
Zn364 Zn 0.47725 0.56453 0.65204 0.0
Zn365 Zn 0.50062 0.56253 0.752 0.0
O366 O 0.51213 0.59166 0.73049 0.0
O367 O 0.49144 0.59292 0.65465 0.0
O368 O 0.51645 0.5608 0.83514 0.0
O369 O 0.454 0.5494 0.7145 0.0
O370 O 0.47294 0.54622 0.79276 0.0
C371 C 0.50679 0.60129 0.69102 0.0
C372 C 0.49854 0.5465 0.60135 0.0
O373 O 0.5052 0.54952 0.66571 0.0
O374 O 0.48647 0.5515 0.58225 0.0
C375 C 0.51574 0.56765 0.89632 0.0
O376 O 0.50579 0.57655 0.90188 0.0
C377 C 0.45615 0.54246 0.77328 0.0
Zn378 Zn 0.5635 0.72022 0.6834 0.0
Zn379 Zn 0.58741 0.72008 0.5834 0.0
O380 O 0.5676 0.69111 0.60347 0.0
O381 O 0.5474 0.69211 0.68267 0.0
O382 O 0.60465 0.72082 0.50078 0.0
O383 O 0.55622 0.73568 0.62032 0.0
O384 O 0.57763 0.73762 0.54078 0.0
C385 C 0.55263 0.68261 0.64413 0.0
C386 C 0.60238 0.73613 0.73399 0.0
O387 O 0.60548 0.73238 0.66992 0.0
O388 O 0.58566 0.73243 0.75305 0.0
C389 C 0.59715 0.71486 0.43877 0.0
O390 O 0.57837 0.70705 0.43224 0.0
C391 C 0.56503 0.74194 0.56058 0.0
Zn392 Zn 0.22213 0.83721 0.68334 0.0
Zn393 Zn 0.21871 0.85681 0.578 0.0
O394 O 0.24833 0.87072 0.59748 0.0
O395 O 0.2496 0.8561 0.69751 0.0
O396 O 0.21531 0.87011 0.48891 0.0
O397 O 0.21376 0.8138 0.62353 0.0
O398 O 0.20518 0.82858 0.54396 0.0
C399 C 0.25785 0.8693 0.65051 0.0
C400 C 0.19876 0.85264 0.72449 0.0
O401 O 0.20393 0.86072 0.66211 0.0
O402 O 0.20349 0.84047 0.74467 0.0
C403 C 0.21046 0.88297 0.49032 0.0
O404 O 0.20826 0.88916 0.5533 0.0
C405 C 0.20522 0.81348 0.56542 0.0
Zn406 Zn 0.11532 0.38195 0.68569 0.0
Zn407 Zn 0.09674 0.35832 0.57882 0.0
O408 O 0.08127 0.37233 0.5973 0.0
O409 O 0.09535 0.38949 0.69435 0.0
O410 O 0.08444 0.34168 0.48981 0.0
O411 O 0.13945 0.39714 0.62689 0.0
O412 O 0.12529 0.37428 0.5467 0.0
C413 C 0.082 0.38336 0.64813 0.0
C414 C 0.10027 0.34275 0.72695 0.0
O415 O 0.09302 0.33974 0.66344 0.0
O416 O 0.11148 0.35973 0.74786 0.0
C417 C 0.06982 0.32482 0.49133 0.0
O418 O 0.06141 0.31732 0.55392 0.0
C419 C 0.14027 0.38931 0.56884 0.0
Zn420 Zn 0.22553 0.38303 0.69254 0.0
Zn421 Zn 0.2204 0.35858 0.58789 0.0
O422 O 0.24974 0.37169 0.60973 0.0
O423 O 0.25287 0.38988 0.70349 0.0
O424 O 0.21587 0.34177 0.49941 0.0
O425 O 0.21721 0.39826 0.63074 0.0
O426 O 0.20867 0.37494 0.55287 0.0
C427 C 0.25998 0.38293 0.66027 0.0
C428 C 0.20013 0.3439 0.73443 0.0
O429 O 0.20453 0.34047 0.67191 0.0
O430 O 0.20639 0.36103 0.75438 0.0
C431 C 0.21156 0.32422 0.50102 0.0
O432 O 0.21056 0.31594 0.56396 0.0
C433 C 0.20875 0.39013 0.57277 0.0
Zn434 Zn 0.56454 0.82873 0.68563 0.0
Zn435 Zn 0.58823 0.85324 0.58488 0.0
O436 O 0.5686 0.86257 0.60664 0.0
O437 O 0.5487 0.84107 0.6865 0.0
O438 O 0.60501 0.86956 0.49976 0.0
O439 O 0.55682 0.80625 0.62258 0.0
O440 O 0.57808 0.82603 0.54274 0.0
C441 C 0.55384 0.85602 0.64842 0.0
C442 C 0.60341 0.85126 0.73528 0.0
O443 O 0.60633 0.85845 0.67136 0.0
O444 O 0.58678 0.83808 0.75456 0.0
C445 C 0.62321 0.88065 0.50252 0.0
O446 O 0.63194 0.88334 0.56521 0.0
C447 C 0.56548 0.80907 0.5625 0.0
Zn448 Zn 0.1204 0.71933 0.69185 0.0
Zn449 Zn 0.09712 0.72056 0.59015 0.0
O450 O 0.08648 0.69147 0.61082 0.0
O451 O 0.10712 0.69101 0.68914 0.0
O452 O 0.08127 0.72198 0.50631 0.0
O453 O 0.14381 0.73491 0.63097 0.0
O454 O 0.12494 0.73763 0.55094 0.0
C455 C 0.09211 0.68222 0.65117 0.0
C456 C 0.09795 0.73619 0.74078 0.0
O457 O 0.09152 0.73298 0.67608 0.0
O458 O 0.1104 0.73179 0.76073 0.0
C459 C 0.08262 0.71581 0.44447 0.0
O460 O 0.09324 0.70764 0.43824 0.0
C461 C 0.14174 0.74174 0.57177 0.0
Zn462 Zn 0.03915 0.56354 0.64947 0.0
Zn463 Zn 0.01515 0.56228 0.7525 0.0
O464 O 0.03441 0.59144 0.73414 0.0
O465 O 0.055 0.59168 0.65372 0.0
O466 O -0.00199 0.56089 0.83707 0.0
O467 O 0.04674 0.54752 0.70768 0.0
O468 O 0.02543 0.5446 0.78963 0.0
C469 C 0.04935 0.60057 0.69376 0.0
C470 C -4e-05 0.54746 0.60111 0.0
O471 O -0.00311 0.55044 0.66635 0.0
O472 O 0.01675 0.55176 0.58049 0.0
C473 C 0.00554 0.56624 0.89944 0.0
O474 O 0.02426 0.57349 0.90584 0.0
C475 C 0.03799 0.5405 0.76702 0.0
Zn476 Zn 0.37686 0.44667 0.66294 0.0
Zn477 Zn 0.38006 0.42733 0.76851 0.0
O478 O 0.3503 0.41376 0.74988 0.0
O479 O 0.3495 0.42779 0.64749 0.0
O480 O 0.38382 0.41418 0.85785 0.0
O481 O 0.38474 0.47006 0.72216 0.0
O482 O 0.3935 0.45558 0.80238 0.0
C483 C 0.34096 0.41503 0.6958 0.0
C484 C 0.40031 0.43168 0.62173 0.0
O485 O 0.39485 0.42345 0.6838 0.0
O486 O 0.39576 0.44396 0.60152 0.0
C487 C 0.39014 0.40245 0.85618 0.0
O488 O 0.39345 0.39719 0.79302 0.0
C489 C 0.39324 0.47055 0.78054 0.0
Zn490 Zn 0.47887 0.89901 0.66203 0.0
Zn491 Zn 0.50122 0.92316 0.76362 0.0
O492 O 0.51321 0.90589 0.74202 0.0
O493 O 0.49314 0.88493 0.66321 0.0
O494 O 0.516 0.93961 0.85028 0.0
O495 O 0.45495 0.88944 0.72068 0.0
O496 O 0.47297 0.91108 0.80074 0.0
C497 C 0.50823 0.89146 0.70096 0.0
C498 C 0.50003 0.93854 0.61332 0.0
O499 O 0.50644 0.94163 0.67803 0.0
O500 O 0.48795 0.92167 0.59357 0.0
C501 C 0.52952 0.95705 0.84656 0.0
O502 O 0.53545 0.96527 0.7825 0.0
C503 C 0.45644 0.89797 0.77959 0.0
C504 C 0.09089 0.246 0.17722 0.0
C505 C 0.0753 0.23189 0.13764 0.0
H506 H 0.1209 0.25855 0.20091 0.0
C507 C 0.07629 0.21592 0.11278 0.0
H508 H 0.09043 0.25826 0.19873 0.0
C509 C 0.09379 0.21607 0.11413 0.0
C510 C 0.11044 0.2322 0.14025 0.0
H511 H 0.0643 0.20449 0.08407 0.0
H512 H 0.09475 0.20475 0.08638 0.0
C513 C 0.10843 0.24616 0.17852 0.0
C514 C 0.6874 0.82701 0.17464 0.0
C515 C 0.70394 0.82657 0.15209 0.0
H516 H 0.67403 0.84431 0.18283 0.0
C517 C 0.72142 0.84391 0.144 0.0
H518 H 0.67376 0.8138 0.18159 0.0
C519 C 0.72158 0.86131 0.14481 0.0
C520 C 0.70425 0.86149 0.15356 0.0
H521 H 0.73443 0.8439 0.1278 0.0
H522 H 0.73472 0.8743 0.12915 0.0
C523 C 0.68756 0.84452 0.17539 0.0
C524 C 0.09311 0.8259 0.17479 0.0
C525 C 0.07541 0.8231 0.14867 0.0
H526 H 0.1233 0.84589 0.18478 0.0
C527 C 0.07325 0.83917 0.13564 0.0
H528 H 0.09509 0.81374 0.18587 0.0
C529 C 0.08936 0.85755 0.13495 0.0
C530 C 0.10776 0.85998 0.14716 0.0
H531 H 0.05962 0.83736 0.11688 0.0
H532 H 0.08774 0.86944 0.11567 0.0
C533 C 0.1093 0.84437 0.17411 0.0
C534 C 0.20444 0.09579 0.92598 0.0
C535 C 0.21984 0.09358 0.90168 0.0
H536 H 0.19486 0.11555 0.95128 0.0
C537 C 0.23537 0.10899 0.86514 0.0
H538 H 0.19205 0.08401 0.95274 0.0
C539 C 0.23702 0.12716 0.86442 0.0
C540 C 0.22313 0.12999 0.90022 0.0
H541 H 0.24734 0.10762 0.84492 0.0
H542 H 0.25023 0.13927 0.84375 0.0
C543 C 0.20605 0.11388 0.92506 0.0
C544 C 0.84422 0.09451 0.89421 0.0
C545 C 0.82629 0.09254 0.87579 0.0
H546 H 0.87386 0.11408 0.9169 0.0
C547 C 0.82579 0.10828 0.84433 0.0
H548 H 0.84509 0.08248 0.91698 0.0
C549 C 0.84236 0.12648 0.84419 0.0
C550 C 0.85946 0.12896 0.87559 0.0
H551 H 0.81221 0.10713 0.82875 0.0
H552 H 0.84104 0.13879 0.82835 0.0
C553 C 0.86072 0.11263 0.8942 0.0
C554 C 0.84153 0.73399 0.86099 0.0
C555 C 0.82347 0.71757 0.85011 0.0
H556 H 0.87149 0.74464 0.8798 0.0
C557 C 0.82271 0.70073 0.82506 0.0
H558 H 0.84254 0.74728 0.87869 0.0
C559 C 0.83938 0.69921 0.82572 0.0
C560 C 0.85675 0.71454 0.85132 0.0
H561 H 0.80897 0.68792 0.81531 0.0
H562 H 0.83799 0.68527 0.81659 0.0
C563 C 0.85813 0.73248 0.86158 0.0
C564 C 0.75603 0.5485 0.45892 0.0
C565 C 0.77382 0.56443 0.47774 0.0
H566 H 0.72637 0.53833 0.43523 0.0
C567 C 0.77402 0.58039 0.50913 0.0
H568 H 0.75538 0.53579 0.43625 0.0
C569 C 0.75731 0.58184 0.50866 0.0
C570 C 0.74037 0.56733 0.4767 0.0
H571 H 0.78748 0.59279 0.5251 0.0
H572 H 0.75842 0.5953 0.52446 0.0
C573 C 0.73939 0.54995 0.45831 0.0
C574 C 0.35426 0.15814 0.51729 0.0
C575 C 0.36997 0.15654 0.49233 0.0
H576 H 0.34289 0.17707 0.53009 0.0
C577 C 0.38809 0.17318 0.48484 0.0
H578 H 0.34015 0.14547 0.52379 0.0
C579 C 0.38968 0.19122 0.48867 0.0
C580 C 0.37313 0.19271 0.49952 0.0
H581 H 0.40048 0.17225 0.46675 0.0
H582 H 0.40326 0.20374 0.47335 0.0
C583 C 0.35584 0.17628 0.52095 0.0
C584 C 0.75618 0.19072 0.48263 0.0
C585 C 0.77435 0.19246 0.4932 0.0
H586 H 0.72623 0.17135 0.46484 0.0
C587 C 0.77537 0.17644 0.51855 0.0
H588 H 0.755 0.20297 0.46459 0.0
C589 C 0.75881 0.15823 0.5187 0.0
C590 C 0.7413 0.15613 0.49355 0.0
H591 H 0.78921 0.17744 0.52789 0.0
H592 H 0.76037 0.14574 0.52805 0.0
C593 C 0.7397 0.1726 0.48283 0.0
C594 C 0.90977 0.45795 0.15777 0.0
C595 C 0.89411 0.4597 0.18219 0.0
H596 H 0.92103 0.4389 0.14649 0.0
C597 C 0.87594 0.44313 0.18992 0.0
H598 H 0.9239 0.47056 0.15097 0.0
C599 C 0.87427 0.42505 0.18723 0.0
C600 C 0.89079 0.42345 0.17717 0.0
H601 H 0.86357 0.44418 0.20747 0.0
H602 H 0.86066 0.4126 0.20288 0.0
C603 C 0.9081 0.43977 0.15517 0.0
C604 C 0.50964 0.45872 0.17174 0.0
C605 C 0.52705 0.46198 0.20281 0.0
H606 H 0.4796 0.43855 0.15854 0.0
C607 C 0.52903 0.44613 0.22258 0.0
H608 H 0.50778 0.47064 0.15494 0.0
C609 C 0.5129 0.42775 0.22451 0.0
C610 C 0.49465 0.42506 0.20679 0.0
H611 H 0.54244 0.44819 0.24499 0.0
H612 H 0.51432 0.41614 0.24838 0.0
C613 C 0.49345 0.44027 0.17375 0.0
C614 C 0.52373 0.06447 0.2058 0.0
C615 C 0.52232 0.0466 0.19341 0.0
H616 H 0.50825 0.07938 0.22275 0.0
C617 C 0.50508 0.03158 0.16554 0.0
H618 H 0.53701 0.07642 0.22576 0.0
C619 C 0.48852 0.03328 0.1638 0.0
C620 C 0.48921 0.04999 0.19008 0.0
H621 H 0.50368 0.01771 0.15474 0.0
H622 H 0.47483 0.02064 0.15173 0.0
C623 C 0.50725 0.06617 0.20402 0.0
C624 C 0.40423 0.88141 0.79247 0.0
C625 C 0.40527 0.89881 0.81113 0.0
H626 H 0.42016 0.86722 0.77015 0.0
C627 C 0.42217 0.9132 0.8437 0.0
H628 H 0.39123 0.86987 0.76899 0.0
C629 C 0.43883 0.91168 0.84429 0.0
C630 C 0.43862 0.89577 0.8124 0.0
H631 H 0.4233 0.92666 0.85977 0.0
H632 H 0.4523 0.92403 0.86061 0.0
C633 C 0.42083 0.87989 0.79319 0.0
C634 C 0.05584 0.52293 0.7828 0.0
C635 C 0.03955 0.5245 0.79939 0.0
H636 H 0.06645 0.50386 0.75994 0.0
C637 C 0.023 0.50836 0.82754 0.0
H638 H 0.06893 0.53526 0.76246 0.0
C639 C 0.02158 0.49028 0.82616 0.0
C640 C 0.0367 0.48834 0.79654 0.0
H641 H 0.01029 0.50921 0.84141 0.0
H642 H 0.00781 0.47772 0.83924 0.0
C643 C 0.05441 0.50494 0.78129 0.0
C644 C 0.42387 0.49285 0.84306 0.0
C645 C 0.40651 0.48953 0.81139 0.0
H646 H 0.45384 0.51309 0.85721 0.0
C647 C 0.40452 0.50535 0.79113 0.0
H648 H 0.42574 0.48095 0.86024 0.0
C649 C 0.42061 0.52375 0.78942 0.0
C650 C 0.43883 0.52651 0.80789 0.0
H651 H 0.39114 0.50324 0.76828 0.0
H652 H 0.41919 0.53533 0.76524 0.0
C653 C 0.44002 0.51133 0.84134 0.0
C654 C 0.58011 0.79176 0.50318 0.0
C655 C 0.56347 0.79214 0.5248 0.0
H656 H 0.59357 0.77452 0.49611 0.0
C657 C 0.54597 0.77477 0.53184 0.0
H658 H 0.59377 0.805 0.49708 0.0
C659 C 0.54586 0.75739 0.53123 0.0
C660 C 0.56324 0.75727 0.52368 0.0
H661 H 0.53289 0.77473 0.54734 0.0
H662 H 0.53268 0.74437 0.54631 0.0
C663 C 0.58 0.77428 0.50261 0.0
C664 C 0.15803 0.77311 0.50531 0.0
C665 C 0.1591 0.75776 0.53771 0.0
H666 H 0.17257 0.80353 0.48729 0.0
C667 C 0.17727 0.76029 0.55558 0.0
H668 H 0.14424 0.77152 0.4901 0.0
C669 C 0.19348 0.77861 0.55402 0.0
C670 C 0.19168 0.79458 0.53456 0.0
H671 H 0.17857 0.74857 0.57903 0.0
H672 H 0.20685 0.78052 0.57632 0.0
C673 C 0.17432 0.79151 0.50372 0.0
C674 C 0.19353 0.41061 0.56895 0.0
C675 C 0.19474 0.39502 0.54114 0.0
H676 H 0.17484 0.42134 0.59773 0.0
C677 C 0.17935 0.38133 0.49958 0.0
H678 H 0.20536 0.42174 0.59936 0.0
C679 C 0.16177 0.38108 0.49871 0.0
C680 C 0.15949 0.39455 0.53931 0.0
H681 H 0.17998 0.36938 0.47578 0.0
H682 H 0.14944 0.36895 0.4743 0.0
C683 C 0.17598 0.41038 0.56804 0.0
C684 C -0.02373 0.23011 0.07324 0.0
C685 C -0.01205 0.23413 0.01162 0.0
H686 H 0.94738 0.21679 0.11455 0.0
C687 C -0.02052 0.23016 0.9424 0.0
H688 H -0.0175 0.23307 0.12701 0.0
C689 C 0.95949 0.2213 0.93506 0.0
C690 C 0.94773 0.21586 0.99698 0.0
H691 H -0.01171 0.23334 0.89399 0.0
H692 H 0.95322 0.21758 0.88146 0.0
C693 C 0.95625 0.22079 0.06599 0.0
C694 C 0.7545 0.75376 1.00089 0.0
C695 C 0.74518 0.73394 0.98842 0.0
H696 H 0.75141 0.778 0.02556 0.0
C697 C 0.725 0.72295 0.99474 0.0
H698 H 0.77007 0.7625 0.99699 0.0
C699 C 0.71432 0.73178 0.01365 0.0
C700 C 0.72375 0.75169 0.02481 0.0
H701 H 0.71756 0.70756 0.98664 0.0
H702 H 0.69875 0.72322 0.01716 0.0
C703 C 0.74388 0.76258 0.01806 0.0
C704 C 0.17322 0.9663 1.0004 0.0
C705 C 0.18335 0.95651 0.01356 0.0
H706 H 0.17498 -0.00666 0.97937 0.0
C707 C 0.20361 0.96667 0.01094 0.0
H708 H 0.15759 0.95874 1.00157 0.0
C709 C 0.21356 -0.01357 0.9955 0.0
C710 C 0.20332 -0.00381 0.98416 0.0
H711 H 0.21168 0.95931 0.01971 0.0
H712 H 0.22919 -0.00581 0.99531 0.0
C713 C 0.18312 -0.01401 0.9868 0.0
C714 C 0.9562 0.71237 0.99144 0.0
C715 C 0.94618 0.72255 0.99562 0.0
H716 H -0.01636 0.71372 1.00334 0.0
C717 C 0.95604 0.74183 0.01714 0.0
H718 H 0.94881 0.6974 0.97595 0.0
C719 C -0.02443 0.75093 0.03294 0.0
C720 C -0.01435 0.7409 0.02886 0.0
H721 H 0.94868 0.75003 0.02098 0.0
H722 H -0.01706 0.76601 0.04705 0.0
C723 C -0.0241 0.72151 0.00855 0.0
C724 C 0.22059 0.22409 0.07559 0.0
C725 C 0.22386 0.21841 0.00752 0.0
H726 H 0.20651 0.23652 0.13463 0.0
C727 C 0.2169 0.22279 0.94485 0.0
H728 H 0.22595 0.2209 0.12468 0.0
C729 C 0.20544 0.23128 0.9508 0.0
C730 C 0.20119 0.2359 0.01932 0.0
H731 H 0.21919 0.21847 0.89197 0.0
H732 H 0.19933 0.23364 0.90198 0.0
C733 C 0.20952 0.23301 0.08139 0.0
C734 C 0.75559 -0.01408 0.00681 0.0
C735 C 0.74631 -0.00341 0.99557 0.0
H736 H 0.75241 0.95832 0.02864 0.0
C737 C 0.7261 -0.01259 1.00076 0.0
H738 H 0.77117 -0.00726 1.0038 0.0
C739 C 0.71537 0.96775 0.01763 0.0
C740 C 0.72476 0.95711 0.02776 0.0
H741 H 0.71871 -0.0045 0.9936 0.0
H742 H 0.69978 0.96078 0.02059 0.0
C743 C 0.74491 0.96632 0.02183 0.0
C744 C 0.62108 0.55551 0.39675 0.0
C745 C 0.61298 0.55045 0.32709 0.0
H746 H 0.64694 0.56804 0.46005 0.0
C747 C 0.62512 0.556 0.26622 0.0
H748 H 0.61191 0.55142 0.44452 0.0
C749 C 0.64507 0.56509 0.27533 0.0
C750 C 0.65313 0.56914 0.34527 0.0
H751 H 0.61919 0.5522 0.21215 0.0
H752 H 0.65419 0.56836 0.22774 0.0
C753 C 0.64105 0.56502 0.40575 0.0
C754 C 0.3886 0.05327 0.32582 0.0
C755 C 0.40872 0.06474 0.31812 0.0
H756 H 0.36197 0.05276 0.34889 0.0
C757 C 0.41753 0.08463 0.32806 0.0
H758 H 0.38158 0.03783 0.31968 0.0
C759 C 0.40647 0.09302 0.3444 0.0
C760 C 0.38641 0.08166 0.35285 0.0
H761 H 0.43303 0.09373 0.32309 0.0
H762 H 0.41362 0.10848 0.3503 0.0
C763 C 0.37749 0.0617 0.34393 0.0
C764 C 0.83961 0.29784 0.34066 0.0
C765 C 0.84977 0.28803 0.35254 0.0
H766 H 0.84124 0.32454 0.31388 0.0
C767 C 0.8699 0.29783 0.34353 0.0
H768 H 0.82406 0.29051 0.34652 0.0
C769 C 0.87969 0.31723 0.32223 0.0
C770 C 0.86946 0.32702 0.31137 0.0
H771 H 0.87794 0.2904 0.35105 0.0
H772 H 0.89525 0.32468 0.31641 0.0
C773 C 0.84939 0.3172 0.32113 0.0
C774 C 0.64184 0.05515 0.35889 0.0
C775 C 0.65212 0.07524 0.35018 0.0
H776 H 0.6142 0.0293 0.35082 0.0
C777 C 0.64248 0.08466 0.32421 0.0
H778 H 0.64904 0.04757 0.37797 0.0
C779 C 0.62294 0.07436 0.30857 0.0
C780 C 0.61262 0.05438 0.31728 0.0
H781 H 0.65001 0.10013 0.31686 0.0
H782 H 0.61575 0.08209 0.29106 0.0
C783 C 0.62213 0.04471 0.34199 0.0
C784 C 0.87642 0.5636 0.35031 0.0
C785 C 0.8562 0.55221 0.35297 0.0
H786 H 0.90326 0.56421 0.3309 0.0
C787 C 0.84745 0.53261 0.33677 0.0
H788 H 0.88344 0.57884 0.36132 0.0
C789 C 0.85862 0.52442 0.31939 0.0
C790 C 0.87877 0.53569 0.31631 0.0
H791 H 0.83189 0.52356 0.33783 0.0
H792 H 0.85149 0.50913 0.30903 0.0
C793 C 0.88768 0.55539 0.33138 0.0
C794 C 0.42614 0.31878 0.34615 0.0
C795 C 0.41649 0.32912 0.33524 0.0
H796 H 0.42364 0.29157 0.37049 0.0
C797 C 0.39635 0.31974 0.34354 0.0
H798 H 0.4417 0.32577 0.34084 0.0
C799 C 0.38605 0.30024 0.36317 0.0
C800 C 0.39579 0.28992 0.37307 0.0
H801 H 0.38869 0.32759 0.33677 0.0
H802 H 0.37049 0.29311 0.36845 0.0
C803 C 0.41587 0.29932 0.364 0.0
C804 C 0.29087 0.88805 0.59735 0.0
C805 C 0.27866 0.88242 0.65802 0.0
H806 H 0.31999 0.90051 0.55935 0.0
C807 C 0.28667 0.88741 0.72784 0.0
H808 H 0.285 0.88431 0.54317 0.0
C809 C 0.30662 0.89695 0.73718 0.0
C810 C 0.31877 0.90116 0.67689 0.0
H811 H 0.27744 0.88329 0.77545 0.0
H812 H 0.31244 0.89993 0.79159 0.0
C813 C 0.31081 0.89716 0.60679 0.0
C814 C 0.04774 0.40103 0.6008 0.0
C815 C 0.0435 0.4053 0.66992 0.0
H816 H 0.06303 0.39024 0.5396 0.0
C817 C 0.05023 0.40032 0.73177 0.0
H818 H 0.04258 0.4047 0.55229 0.0
C819 C 0.06227 0.39251 0.72433 0.0
C820 C 0.06733 0.38915 0.65505 0.0
H821 H 0.04718 0.40355 0.78546 0.0
H822 H 0.06809 0.38959 0.77277 0.0
C823 C 0.05938 0.39276 0.59342 0.0
C824 C 0.53911 0.63097 0.6778 0.0
C825 C 0.51892 0.62219 0.68217 0.0
H826 H 0.56583 0.65727 0.65885 0.0
C827 C 0.51006 0.63324 0.66998 0.0
H828 H 0.54619 0.6226 0.68575 0.0
C829 C 0.52116 0.6528 0.65504 0.0
C830 C 0.5413 0.66162 0.65015 0.0
H831 H 0.49451 0.62674 0.6724 0.0
H832 H 0.514 0.66112 0.64766 0.0
C833 C 0.55026 0.6506 0.66101 0.0
C834 C 0.30804 0.3996 0.75001 0.0
C835 C 0.31995 0.40287 0.68971 0.0
H836 H 0.27948 0.39088 0.78729 0.0
C837 C 0.31167 0.39731 0.62052 0.0
H838 H 0.31413 0.4039 0.80366 0.0
C839 C 0.29187 0.38967 0.61108 0.0
C840 C 0.28019 0.38795 0.6705 0.0
H841 H 0.32068 0.39972 0.57319 0.0
H842 H 0.28594 0.38624 0.5569 0.0
C843 C 0.2883 0.39238 0.74035 0.0
C844 C 0.52249 0.85448 0.66303 0.0
C845 C 0.54259 0.86575 0.65629 0.0
H846 H 0.49594 0.8539 0.68336 0.0
C847 C 0.55161 0.88564 0.66737 0.0
H848 H 0.51527 0.83906 0.65558 0.0
C849 C 0.54055 0.89409 0.6859 0.0
C850 C 0.52039 0.88272 0.6919 0.0
H851 H 0.56717 0.8945 0.66388 0.0
H852 H 0.54765 0.90948 0.69364 0.0
C853 C 0.51148 0.86291 0.67979 0.0
C854 C 0.05015 0.6319 0.67926 0.0
C855 C 0.05992 0.6216 0.68891 0.0
H856 H 0.05285 0.65944 0.65639 0.0
C857 C 0.08009 0.63123 0.68369 0.0
H858 H 0.03455 0.62461 0.68165 0.0
C859 C 0.09043 0.6509 0.66974 0.0
C860 C 0.08077 0.66123 0.65875 0.0
H861 H 0.08787 0.62348 0.69007 0.0
H862 H 0.10604 0.65805 0.66713 0.0
C863 C 0.06055 0.65163 0.66338 0.0
C864 C 0.08412 0.30762 0.75703 0.0
C865 C 0.09404 0.32677 0.77974 0.0
H866 H 0.06828 0.27801 0.78903 0.0
C867 C 0.09663 0.33065 0.85449 0.0
H868 H 0.08195 0.3042 0.69988 0.0
C869 C 0.08855 0.31571 0.90557 0.0
C870 C 0.07804 0.29659 0.8829 0.0
H871 H 0.1042 0.34529 0.87381 0.0
H872 H 0.09018 0.31916 0.96273 0.0
C873 C 0.07634 0.29265 0.80817 0.0
C874 C 0.62857 0.74955 0.9132 0.0
C875 C 0.64791 0.75938 0.89044 0.0
H876 H 0.59898 0.73471 0.88126 0.0
C877 C 0.65221 0.7617 0.81573 0.0
H878 H 0.62486 0.74759 0.97038 0.0
C879 C 0.63743 0.75407 0.7647 0.0
C880 C 0.61809 0.74432 0.78745 0.0
H881 H 0.66701 0.76913 0.79659 0.0
H882 H 0.64114 0.75591 0.70752 0.0
C883 C 0.61379 0.74225 0.86215 0.0
C884 C 0.18222 0.86239 0.90262 0.0
C885 C 0.17337 0.87282 0.88017 0.0
H886 H 0.19679 0.84748 0.87076 0.0
C887 C 0.17194 0.87573 0.80555 0.0
H888 H 0.18342 0.85985 0.95973 0.0
C889 C 0.17987 0.86889 0.75433 0.0
C890 C 0.18897 0.85869 0.77695 0.0
H891 H 0.16521 0.88379 0.7868 0.0
H892 H 0.17906 0.87176 0.69728 0.0
C893 C 0.18976 0.85522 0.85152 0.0
C894 C 0.29783 0.08722 0.10673 0.0
C895 C 0.27868 0.07688 0.13145 0.0
H896 H 0.32765 0.10212 0.1353 0.0
C897 C 0.27501 0.07358 0.20645 0.0
H898 H 0.3011 0.09001 0.04935 0.0
C899 C 0.2902 0.0803 0.2557 0.0
C900 C 0.30935 0.09073 0.23099 0.0
H901 H 0.26037 0.06557 0.22714 0.0
H902 H 0.28695 0.07742 0.31307 0.0
C903 C 0.31302 0.09421 0.15606 0.0
C904 C 0.85055 0.19538 0.24814 0.0
C905 C 0.84094 0.20508 0.22574 0.0
H906 H 0.86627 0.18163 0.21616 0.0
C907 C 0.83942 0.20793 0.15112 0.0
H908 H 0.85187 0.19293 0.30523 0.0
C909 C 0.84795 0.20174 0.0999 0.0
C910 C 0.85778 0.19225 0.12246 0.0
H911 H 0.83215 0.21547 0.13236 0.0
H912 H 0.84699 0.20451 0.04285 0.0
C913 C 0.85871 0.18885 0.197 0.0
C914 C 0.75258 0.65233 0.24692 0.0
C915 C 0.74324 0.63303 0.22583 0.0
H916 H 0.76742 0.68179 0.21222 0.0
C917 C 0.74245 0.62869 0.15169 0.0
H918 H 0.75342 0.65608 0.30362 0.0
C919 C 0.75011 0.64333 0.09944 0.0
C920 C 0.75906 0.66261 0.12034 0.0
H921 H 0.73528 0.61394 0.13362 0.0
H922 H 0.74881 0.63955 0.04265 0.0
C923 C 0.76062 0.66701 0.19461 0.0
C924 C 0.84786 0.63326 0.09682 0.0
C925 C 0.85748 0.65253 0.1182 0.0
H926 H 0.83273 0.60379 0.13077 0.0
C927 C 0.85867 0.65681 0.19252 0.0
H928 H 0.84669 0.62955 0.03997 0.0
C929 C 0.85096 0.6421 0.2446 0.0
C930 C 0.8416 0.62283 0.22326 0.0
H931 H 0.86609 0.67156 0.21069 0.0
H932 H 0.8525 0.64581 0.3015 0.0
C933 C 0.83982 0.61854 0.14885 0.0
C934 C 0.30935 0.20445 0.11384 0.0
C935 C 0.29006 0.19502 0.13727 0.0
H936 H 0.33901 0.21817 0.14504 0.0
C937 C 0.28592 0.19185 0.21201 0.0
H938 H 0.31293 0.20706 0.05662 0.0
C939 C 0.30077 0.19846 0.26248 0.0
C940 C 0.32005 0.20805 0.23923 0.0
H941 H 0.27118 0.1847 0.23184 0.0
H942 H 0.29714 0.19611 0.31972 0.0
C943 C 0.32423 0.21074 0.16443 0.0
C944 C 0.75871 0.07711 0.20485 0.0
C945 C 0.75747 0.08011 0.13018 0.0
H946 H 0.75126 0.0808 0.31281 0.0
C947 C 0.74841 0.09034 0.10744 0.0
H948 H 0.76557 0.0692 0.22395 0.0
C949 C 0.74051 0.09722 0.15834 0.0
C950 C 0.74119 0.09368 0.2329 0.0
H951 H 0.74732 0.09293 0.0503 0.0
H952 H 0.73337 0.10483 0.13903 0.0
C953 C 0.75048 0.08368 0.25574 0.0
C954 C 0.63848 0.86889 0.76589 0.0
C955 C 0.61914 0.85878 0.78865 0.0
H956 H 0.66806 0.88402 0.79786 0.0
C957 C 0.61485 0.85623 0.86334 0.0
H958 H 0.64219 0.87104 0.70871 0.0
C959 C 0.62961 0.86391 0.91438 0.0
C960 C 0.64895 0.87396 0.89165 0.0
H961 H 0.60004 0.84859 0.88246 0.0
H962 H 0.6259 0.8619 0.97157 0.0
C963 C 0.65326 0.87624 0.81695 0.0
C964 C 0.08071 0.75397 0.77065 0.0
C965 C 0.09028 0.74429 0.79401 0.0
H966 H 0.06526 0.76811 0.80126 0.0
C967 C 0.09192 0.74183 0.86886 0.0
H968 H 0.07931 0.75613 0.71337 0.0
C969 C 0.08364 0.74846 0.91937 0.0
C970 C 0.07389 0.75796 0.89589 0.0
H971 H 0.09917 0.73435 0.88844 0.0
H972 H 0.08478 0.74605 0.97663 0.0
C973 C 0.07275 0.76088 0.82109 0.0
C974 C 0.18313 0.31723 0.91324 0.0
C975 C 0.17392 0.29805 0.89086 0.0
H976 H 0.19829 0.34679 0.881 0.0
C977 C 0.17171 0.29405 0.81617 0.0
H978 H 0.18494 0.32072 0.97035 0.0
C979 C 0.17962 0.30895 0.76487 0.0
C980 C 0.18954 0.32813 0.78732 0.0
H981 H 0.16467 0.27938 0.79721 0.0
H982 H 0.17842 0.30545 0.7078 0.0
C983 C 0.19071 0.33213 0.86193 0.0
C984 C 0.95432 0.41382 0.56708 0.0
C985 C -0.02633 0.42379 0.54445 0.0
H986 H 0.92473 0.39932 0.5347 0.0
C987 C -0.022 0.42703 0.46987 0.0
H988 H 0.9506 0.41115 0.62418 0.0
C989 C 0.96328 0.41999 0.41875 0.0
C990 C 0.94394 0.40992 0.44126 0.0
H991 H -0.00719 0.43458 0.45073 0.0
H992 H -0.03296 0.42241 0.36163 0.0
C993 C 0.93956 0.40713 0.51589 0.0
C994 C 0.5132 0.53502 0.42193 0.0
C995 C 0.52208 0.52461 0.44479 0.0
H996 H 0.49845 0.54986 0.45387 0.0
C997 C 0.52212 0.5205 0.51917 0.0
H998 H 0.51293 0.53836 0.36501 0.0
C999 C 0.51416 0.52733 0.56997 0.0
C1000 C 0.50568 0.53809 0.54736 0.0
H1001 H 0.5289 0.51255 0.53861 0.0
H1002 H 0.51486 0.52436 0.62702 0.0
C1003 C 0.50489 0.54154 0.47279 0.0
C1004 C 0.40857 0.9609 0.48614 0.0
C1005 C 0.40898 0.96516 0.56022 0.0
H1006 H 0.41499 0.97184 0.37723 0.0
C1007 C 0.41775 -0.01557 0.5814 0.0
H1008 H 0.40185 0.94618 0.46799 0.0
C1009 C 0.42554 -0.00085 0.52921 0.0
C1010 C 0.42432 -0.0052 0.45497 0.0
H1011 H 0.41829 -0.01188 0.63806 0.0
H1012 H 0.43187 0.01389 0.54686 0.0
C1013 C 0.416 0.97557 0.43401 0.0
C1014 C 0.50566 0.95026 0.48474 0.0
C1015 C 0.50756 0.95434 0.55933 0.0
H1016 H 0.51272 0.96153 0.37627 0.0
C1017 C 0.5175 0.97355 0.58144 0.0
H1018 H 0.49813 0.93556 0.46602 0.0
C1019 C 0.52562 -0.0116 0.52996 0.0
C1020 C 0.52425 -0.0157 0.45543 0.0
H1021 H 0.51915 -0.02288 0.63849 0.0
H1022 H 0.53343 0.00308 0.54873 0.0
C1023 C 0.51407 0.9651 0.43328 0.0
C1024 C 0.94989 0.52211 0.52148 0.0
C1025 C 0.95392 0.52499 0.44664 0.0
H1026 H 0.96129 0.52717 0.62915 0.0
C1027 C -0.02681 0.53503 0.42303 0.0
H1028 H 0.93515 0.5145 0.54133 0.0
C1029 C -0.01185 0.54205 0.47337 0.0
C1030 C -0.0159 0.53946 0.54824 0.0
H1031 H -0.02328 0.53743 0.36574 0.0
H1032 H 0.00289 0.5498 0.4536 0.0
C1033 C 0.96483 0.52943 0.57183 0.0
C1034 C 0.41818 0.4229 0.44465 0.0
C1035 C 0.42691 0.41238 0.46751 0.0
H1036 H 0.40328 0.43755 0.47574 0.0
C1037 C 0.42774 0.40904 0.54217 0.0
H1038 H 0.41741 0.42576 0.38754 0.0
C1039 C 0.41937 0.41553 0.5929 0.0
C1040 C 0.4104 0.42582 0.56984 0.0
H1041 H 0.43435 0.40089 0.56126 0.0
H1042 H 0.41977 0.41235 0.64992 0.0
C1043 C 0.41018 0.42971 0.49533 0.0
C1044 C 0.06586 0.30997 0.29352 0.0
C1045 C 0.05102 0.29065 0.2968 0.0
H1046 H 0.08347 0.3359 0.35202 0.0
C1047 C 0.04192 0.28298 0.36401 0.0
H1048 H 0.07321 0.31635 0.24274 0.0
C1049 C 0.04776 0.29419 0.42659 0.0
C1050 C 0.06293 0.31335 0.4238 0.0
H1051 H 0.0304 0.26819 0.36865 0.0
H1052 H 0.04056 0.28767 0.47746 0.0
C1053 C 0.07178 0.32117 0.3563 0.0
C1054 C 0.60083 0.71257 0.30468 0.0
C1055 C 0.60941 0.71873 0.37306 0.0
H1056 H 0.6049 0.71348 0.18968 0.0
C1057 C 0.62964 0.72978 0.37686 0.0
H1058 H 0.58531 0.70396 0.29963 0.0
C1059 C 0.64093 0.73527 0.31346 0.0
C1060 C 0.63225 0.72983 0.24484 0.0
H1061 H 0.63673 0.73474 0.4286 0.0
H1062 H 0.65641 0.7443 0.31818 0.0
C1063 C 0.6121 0.71804 0.24144 0.0
C1064 C 0.20104 0.88757 0.29068 0.0
C1065 C 0.19309 0.89969 0.29347 0.0
H1066 H 0.21279 0.87278 0.35037 0.0
C1067 C 0.19216 0.90728 0.36085 0.0
H1068 H 0.20198 0.88147 0.23974 0.0
C1069 C 0.19838 0.90233 0.4242 0.0
C1070 C 0.20563 0.88961 0.42197 0.0
H1071 H 0.1862 0.91673 0.36509 0.0
H1072 H 0.19701 0.90812 0.47526 0.0
C1073 C 0.20721 0.88255 0.35421 0.0
C1074 C 0.30453 0.06165 0.6494 0.0
C1075 C 0.30197 0.07492 0.60738 0.0
H1076 H 0.29717 0.04464 0.74733 0.0
C1077 C 0.28913 0.08075 0.63274 0.0
H1078 H 0.31432 0.05687 0.63155 0.0
C1079 C 0.27941 0.07384 0.69883 0.0
C1080 C 0.28217 0.06084 0.74169 0.0
H1081 H 0.28674 0.09092 0.60199 0.0
H1082 H 0.26982 0.07888 0.71658 0.0
C1083 C 0.29472 0.05467 0.71585 0.0
C1084 C 0.86476 0.235 0.76958 0.0
C1085 C 0.87289 0.22302 0.76722 0.0
H1086 H 0.85169 0.24853 0.71047 0.0
C1087 C 0.87511 0.21646 0.69932 0.0
H1088 H 0.86289 0.2404 0.82074 0.0
C1089 C 0.8687 0.22118 0.63574 0.0
C1090 C 0.85987 0.23253 0.63861 0.0
H1091 H 0.88136 0.20726 0.69538 0.0
H1092 H 0.87014 0.21545 0.58468 0.0
C1093 C 0.85832 0.23967 0.70615 0.0
C1094 C 0.73938 0.67885 0.63882 0.0
C1095 C 0.7383 0.67018 0.70667 0.0
H1096 H 0.73482 0.67514 0.52432 0.0
C1097 C 0.73035 0.65013 0.71021 0.0
H1098 H 0.74534 0.69425 0.63401 0.0
C1099 C 0.72434 0.63913 0.647 0.0
C1100 C 0.72608 0.64793 0.57881 0.0
H1101 H 0.72929 0.64296 0.76153 0.0
H1102 H 0.71875 0.62379 0.65147 0.0
C1103 C 0.73333 0.66788 0.57575 0.0
C1104 C 0.88627 0.65711 0.57383 0.0
C1105 C 0.87264 0.63738 0.57813 0.0
H1106 H 0.90261 0.68349 0.63069 0.0
C1107 C 0.86595 0.62894 0.64714 0.0
H1108 H 0.89181 0.66411 0.52178 0.0
C1109 C 0.87224 0.6401 0.70997 0.0
C1110 C 0.8853 0.65998 0.70526 0.0
H1111 H 0.8555 0.61377 0.65259 0.0
H1112 H 0.8664 0.63324 0.762 0.0
C1113 C 0.89248 0.66825 0.63649 0.0
C1114 C 0.29669 0.21693 0.71307 0.0
C1115 C 0.30524 0.22391 0.78102 0.0
H1116 H 0.30105 0.21566 0.59885 0.0
C1117 C 0.32532 0.23622 0.78386 0.0
H1118 H 0.28126 0.20746 0.70877 0.0
C1119 C 0.33665 0.24087 0.72093 0.0
C1120 C 0.32821 0.23341 0.65335 0.0
H1121 H 0.33242 0.24193 0.83506 0.0
H1122 H 0.35213 0.25003 0.72565 0.0
C1123 C 0.30804 0.22166 0.64995 0.0
C1124 C 0.7306 0.06456 0.71739 0.0
C1125 C 0.74092 0.05464 0.71413 0.0
H1126 H 0.71646 0.07707 0.65805 0.0
C1127 C 0.74371 0.0486 0.64608 0.0
H1128 H 0.72813 0.06938 0.76887 0.0
C1129 C 0.73705 0.05301 0.58266 0.0
C1130 C 0.72736 0.06354 0.58547 0.0
H1131 H 0.75149 0.04085 0.64137 0.0
H1132 H 0.73994 0.04854 0.53116 0.0
C1133 C 0.72387 0.06893 0.65379 0.0
C1134 C 0.66619 0.90541 0.37476 0.0
C1135 C 0.65757 0.89945 0.30635 0.0
H1136 H 0.66219 0.90436 0.48983 0.0
C1137 C 0.63732 0.88864 0.30263 0.0
H1138 H 0.68173 0.91384 0.37979 0.0
C1139 C 0.62605 0.88319 0.36611 0.0
C1140 C 0.63478 0.88841 0.43473 0.0
H1141 H 0.63019 0.88384 0.25087 0.0
H1142 H 0.61054 0.87432 0.36143 0.0
C1143 C 0.65495 0.89996 0.43806 0.0
C1144 C 0.06464 0.73022 0.3824 0.0
C1145 C 0.07397 0.71934 0.37884 0.0
H1146 H 0.05151 0.74382 0.32358 0.0
C1147 C 0.07599 0.71274 0.3108 0.0
H1148 H 0.0628 0.73551 0.43388 0.0
C1149 C 0.06951 0.71748 0.24764 0.0
C1150 C 0.06084 0.72896 0.25074 0.0
H1151 H 0.08301 0.70425 0.30591 0.0
H1152 H 0.07176 0.71251 0.19612 0.0
C1153 C 0.05816 0.73498 0.31908 0.0
C1154 C 0.19508 0.28231 0.37212 0.0
C1155 C 0.19441 0.29054 0.30522 0.0
H1156 H 0.20107 0.28639 0.48578 0.0
C1157 C 0.2003 0.31022 0.30266 0.0
H1158 H 0.19073 0.26722 0.37622 0.0
C1159 C 0.20625 0.32127 0.36582 0.0
C1160 C 0.20647 0.31289 0.43305 0.0
H1161 H 0.19999 0.31705 0.25212 0.0
H1162 H 0.21036 0.3363 0.36208 0.0
C1163 C 0.20103 0.29333 0.43514 0.0
C1164 C 0.96271 0.3972 0.95595 0.0
C1165 C -0.01707 0.40609 0.95942 0.0
H1166 H 0.93607 0.38587 0.015 0.0
C1167 C -0.00837 0.40909 0.02798 0.0
H1168 H 0.95552 0.39462 0.9041 0.0
C1169 C -0.01951 0.40409 0.0915 0.0
C1170 C 0.96036 0.39594 0.08821 0.0
H1171 H 0.00714 0.41581 0.03285 0.0
H1172 H -0.01222 0.40712 0.14326 0.0
C1173 C 0.95155 0.39217 0.01962 0.0
C1174 C 0.53948 0.54803 0.02316 0.0
C1175 C 0.53774 0.55507 0.09071 0.0
H1176 H 0.53404 0.54652 0.90878 0.0
C1177 C 0.52986 0.56726 0.09268 0.0
H1178 H 0.54552 0.53864 0.01953 0.0
C1179 C 0.52327 0.57176 0.02925 0.0
C1180 C 0.52441 0.56421 0.96207 0.0
H1181 H 0.52834 0.57301 0.14358 0.0
H1182 H 0.5169 0.58085 0.03329 0.0
C1183 C 0.53291 0.55256 0.95956 0.0
C1184 C 0.39605 -0.01809 0.04356 0.0
C1185 C 0.404 0.00196 0.04012 0.0
H1186 H 0.38438 0.95558 0.98474 0.0
C1187 C 0.40504 0.01065 0.97235 0.0
H1188 H 0.39501 0.97473 0.09482 0.0
C1189 C 0.39894 -0.00031 0.90926 0.0
C1190 C 0.39167 -0.02026 0.91223 0.0
H1191 H 0.411 0.02605 0.96762 0.0
H1192 H 0.40039 0.00697 0.85788 0.0
C1193 C 0.38998 0.97093 0.98034 0.0
C1194 C 0.55105 -0.01182 0.90913 0.0
C1195 C 0.53735 0.96848 0.91369 0.0
H1196 H 0.56747 0.01462 0.96562 0.0
C1197 C 0.53054 0.96014 0.98274 0.0
H1198 H 0.55668 -0.0049 0.85702 0.0
C1199 C 0.53681 0.97138 0.04537 0.0
C1200 C 0.54998 -0.00877 0.0404 0.0
H1201 H 0.52003 0.945 0.98838 0.0
H1202 H 0.53091 0.96459 0.09745 0.0
C1203 C 0.55725 -0.0006 0.97159 0.0
C1204 C 0.002 0.5677 0.03405 0.0
C1205 C -0.00662 0.56272 0.96527 0.0
H1206 H -0.0021 0.56641 0.14906 0.0
C1207 C -0.02686 0.55341 0.96104 0.0
H1208 H 0.01753 0.57497 0.03955 0.0
C1209 C 0.9618 0.54853 0.02431 0.0
C1210 C -0.02955 0.5528 0.0932 0.0
H1211 H 0.96601 0.5494 0.90898 0.0
H1212 H 0.94624 0.54084 0.01925 0.0
C1213 C -0.0093 0.56279 0.09707 0.0
C1214 C 0.41028 0.37965 0.98467 0.0
C1215 C 0.409 0.38689 0.05236 0.0
H1216 H 0.40525 0.3787 0.8704 0.0
C1217 C 0.40027 0.39833 0.05569 0.0
H1218 H 0.41683 0.37073 0.97993 0.0
C1219 C 0.39361 0.40295 0.99243 0.0
C1220 C 0.39549 0.39621 0.9244 0.0
H1221 H 0.39902 0.40414 0.10686 0.0
H1222 H 0.3874 0.41219 0.99669 0.0
C1223 C 0.40361 0.38423 0.92164 0.0
loop_
_geom_bond_atom_site_label_1
_geom_bond_atom_site_label_2
_geom_bond_distance
_geom_bond_site_symmetry_2
_ccdc_geom_bond_type
Zn0 O3 2.031 . S
Zn0 O5 2.049 . S
Zn0 O10 2.067 . S
Zn1 O2 1.962 . S
Zn1 O4 1.986 . S
Zn1 O6 1.996 . S
Zn1 O9 1.943 . S
O2 Zn1 1.962 . S
O2 C7 1.254 . S
O3 Zn0 2.031 . S
O3 C7 1.269 1_556 S
O4 Zn1 1.986 . S
O4 C11 1.262 . S
O5 Zn0 2.049 . S
O5 C13 1.260 1_556 S
O6 Zn1 1.996 . S
O6 C13 1.257 . S
C7 O2 1.254 . S
C7 O3 1.269 1_554 S
C8 O9 1.249 1_556 S
C8 O10 1.270 . S
O9 Zn1 1.943 . S
O9 C8 1.249 1_554 S
O10 Zn0 2.067 . S
O10 C8 1.270 . S
C11 O4 1.262 . S
C11 O12 1.232 . S
O12 C11 1.232 . S
C13 O5 1.260 1_554 S
C13 O6 1.257 . S
Zn14 O17 2.031 . S
Zn14 O19 2.049 . S
Zn14 O24 2.067 . S
Zn15 O16 1.962 . S
Zn15 O18 1.986 . S
Zn15 O20 1.996 . S
Zn15 O23 1.943 . S
O16 Zn15 1.962 . S
O16 C21 1.254 . S
O17 Zn14 2.031 . S
O17 C21 1.269 1_556 S
O18 Zn15 1.986 . S
O18 C25 1.262 . S
O19 Zn14 2.049 . S
O19 C27 1.260 1_556 S
O20 Zn15 1.996 . S
O20 C27 1.257 . S
C21 O16 1.254 . S
C21 O17 1.269 1_554 S
C22 O23 1.249 1_556 S
C22 O24 1.270 . S
O23 Zn15 1.943 . S
O23 C22 1.249 1_554 S
O24 Zn14 2.067 . S
O24 C22 1.270 . S
C25 O18 1.262 . S
C25 O26 1.232 . S
O26 C25 1.232 . S
C27 O19 1.260 1_554 S
C27 O20 1.257 . S
Zn28 O31 2.031 . S
Zn28 O33 2.049 . S
Zn28 O38 2.067 . S
Zn29 O30 1.962 . S
Zn29 O32 1.986 . S
Zn29 O34 1.996 . S
Zn29 O37 1.943 . S
O30 Zn29 1.962 . S
O30 C35 1.254 . S
O31 Zn28 2.031 . S
O31 C35 1.269 1_556 S
O32 Zn29 1.986 . S
O32 C39 1.262 . S
O33 Zn28 2.049 . S
O33 C41 1.260 1_556 S
O34 Zn29 1.996 . S
O34 C41 1.257 . S
C35 O30 1.254 . S
C35 O31 1.269 1_554 S
C36 O37 1.249 1_556 S
C36 O38 1.270 . S
O37 Zn29 1.943 . S
O37 C36 1.249 1_554 S
O38 Zn28 2.067 . S
O38 C36 1.270 . S
C39 O32 1.262 . S
C39 O40 1.232 . S
O40 C39 1.232 . S
C41 O33 1.260 1_554 S
C41 O34 1.257 . S
Zn42 O45 2.031 . S
Zn42 O47 2.049 . S
Zn42 O52 2.067 . S
Zn43 O44 1.962 . S
Zn43 O46 1.986 . S
Zn43 O48 1.996 . S
Zn43 O51 1.943 . S
O44 Zn43 1.962 . S
O44 C49 1.254 . S
O45 Zn42 2.031 . S
O45 C49 1.269 1_554 S
O46 Zn43 1.986 . S
O46 C53 1.262 . S
O47 Zn42 2.049 . S
O47 C55 1.260 1_554 S
O48 Zn43 1.996 . S
O48 C55 1.257 . S
C49 O44 1.254 . S
C49 O45 1.269 1_556 S
C50 O51 1.249 1_554 S
C50 O52 1.270 . S
O51 Zn43 1.943 . S
O51 C50 1.249 1_556 S
O52 Zn42 2.067 . S
O52 C50 1.270 . S
C53 O46 1.262 . S
C53 O54 1.232 . S
O54 C53 1.232 . S
C55 O47 1.260 1_556 S
C55 O48 1.257 . S
Zn56 O59 2.031 . S
Zn56 O61 2.049 . S
Zn56 O66 2.067 . S
Zn57 O58 1.962 . S
Zn57 O60 1.986 . S
Zn57 O62 1.996 . S
Zn57 O65 1.943 . S
O58 Zn57 1.962 . S
O58 C63 1.254 . S
O59 Zn56 2.031 . S
O59 C63 1.269 1_554 S
O60 Zn57 1.986 . S
O60 C67 1.262 . S
O61 Zn56 2.049 . S
O61 C69 1.260 1_554 S
O62 Zn57 1.996 . S
O62 C69 1.257 . S
C63 O58 1.254 . S
C63 O59 1.269 1_556 S
C64 O65 1.249 1_554 S
C64 O66 1.270 . S
O65 Zn57 1.943 . S
O65 C64 1.249 1_556 S
O66 Zn56 2.067 . S
O66 C64 1.270 . S
C67 O60 1.262 . S
C67 O68 1.232 . S
O68 C67 1.232 . S
C69 O61 1.260 1_556 S
C69 O62 1.257 . S
Zn70 O73 2.031 . S
Zn70 O75 2.049 . S
Zn70 O80 2.067 . S
Zn71 O72 1.962 . S
Zn71 O74 1.986 . S
Zn71 O76 1.996 . S
Zn71 O79 1.943 . S
O72 Zn71 1.962 . S
O72 C77 1.254 . S
O73 Zn70 2.031 . S
O73 C77 1.269 1_554 S
O74 Zn71 1.986 . S
O74 C81 1.262 . S
O75 Zn70 2.049 . S
O75 C83 1.260 1_554 S
O76 Zn71 1.996 . S
O76 C83 1.257 . S
C77 O72 1.254 . S
C77 O73 1.269 1_556 S
C78 O79 1.249 1_554 S
C78 O80 1.270 . S
O79 Zn71 1.943 . S
O79 C78 1.249 1_556 S
O80 Zn70 2.067 . S
O80 C78 1.270 . S
C81 O74 1.262 . S
C81 O82 1.232 . S
O82 C81 1.232 . S
C83 O75 1.260 1_556 S
C83 O76 1.257 . S
Zn84 O87 2.031 . S
Zn84 O89 2.049 . S
Zn84 O94 2.067 . S
Zn85 O86 1.962 . S
Zn85 O88 1.986 . S
Zn85 O90 1.996 . S
Zn85 O93 1.943 . S
O86 Zn85 1.962 . S
O86 C91 1.254 . S
O87 Zn84 2.031 . S
O87 C91 1.269 1_554 S
O88 Zn85 1.986 . S
O88 C95 1.262 . S
O89 Zn84 2.049 . S
O89 C97 1.260 1_554 S
O90 Zn85 1.996 . S
O90 C97 1.257 . S
C91 O86 1.254 . S
C91 O87 1.269 1_556 S
C92 O93 1.249 1_554 S
C92 O94 1.270 . S
O93 Zn85 1.943 . S
O93 C92 1.249 1_556 S
O94 Zn84 2.067 . S
O94 C92 1.270 . S
C95 O88 1.262 . S
C95 O96 1.232 . S
O96 C95 1.232 . S
C97 O89 1.260 1_556 S
C97 O90 1.257 . S
Zn98 O101 2.031 . S
Zn98 O103 2.049 . S
Zn98 O108 2.067 . S
Zn99 O100 1.962 . S
Zn99 O102 1.986 . S
Zn99 O104 1.996 . S
Zn99 O107 1.943 . S
O100 Zn99 1.962 . S
O100 C105 1.254 . S
O101 Zn98 2.031 . S
O101 C105 1.269 1_554 S
O102 Zn99 1.986 . S
O102 C109 1.262 . S
O103 Zn98 2.049 . S
O103 C111 1.260 1_554 S
O104 Zn99 1.996 . S
O104 C111 1.257 . S
C105 O100 1.254 . S
C105 O101 1.269 1_556 S
C106 O107 1.249 1_554 S
C106 O108 1.270 . S
O107 Zn99 1.943 . S
O107 C106 1.249 1_556 S
O108 Zn98 2.067 . S
O108 C106 1.270 . S
C109 O102 1.262 . S
C109 O110 1.232 . S
O110 C109 1.232 . S
C111 O103 1.260 1_556 S
C111 O104 1.257 . S
Zn112 O115 2.031 . S
Zn112 O117 2.049 . S
Zn112 O122 2.067 . S
Zn113 O114 1.962 . S
Zn113 O116 1.986 . S
Zn113 O118 1.996 . S
Zn113 O121 1.943 . S
O114 Zn113 1.962 . S
O114 C119 1.254 . S
O115 Zn112 2.031 . S
O115 C119 1.269 1_554 S
O116 Zn113 1.986 . S
O116 C123 1.262 . S
O117 Zn112 2.049 . S
O117 C125 1.260 1_554 S
O118 Zn113 1.996 . S
O118 C125 1.257 . S
C119 O114 1.254 . S
C119 O115 1.269 1_556 S
C120 O121 1.249 1_554 S
C120 O122 1.270 . S
O121 Zn113 1.943 . S
O121 C120 1.249 1_556 S
O122 Zn112 2.067 . S
O122 C120 1.270 . S
C123 O116 1.262 . S
C123 O124 1.232 . S
O124 C123 1.232 . S
C125 O117 1.260 1_556 S
C125 O118 1.257 . S
Zn126 O129 2.031 . S
Zn126 O131 2.049 . S
Zn126 O136 2.067 . S
Zn127 O128 1.962 . S
Zn127 O130 1.986 . S
Zn127 O132 1.996 . S
Zn127 O135 1.943 . S
O128 Zn127 1.962 . S
O128 C133 1.254 . S
O129 Zn126 2.031 . S
O129 C133 1.269 1_556 S
O130 Zn127 1.986 . S
O130 C137 1.262 . S
O131 Zn126 2.049 . S
O131 C139 1.260 1_556 S
O132 Zn127 1.996 . S
O132 C139 1.257 . S
C133 O128 1.254 . S
C133 O129 1.269 1_554 S
C134 O135 1.249 1_556 S
C134 O136 1.270 . S
O135 Zn127 1.943 . S
O135 C134 1.249 1_554 S
O136 Zn126 2.067 . S
O136 C134 1.270 . S
C137 O130 1.262 . S
C137 O138 1.232 . S
O138 C137 1.232 . S
C139 O131 1.260 1_554 S
C139 O132 1.257 . S
Zn140 O143 2.031 . S
Zn140 O145 2.049 . S
Zn140 O150 2.067 . S
Zn141 O142 1.962 . S
Zn141 O144 1.986 . S
Zn141 O146 1.996 . S
Zn141 O149 1.943 . S
O142 Zn141 1.962 . S
O142 C147 1.254 . S
O143 Zn140 2.031 . S
O143 C147 1.269 1_556 S
O144 Zn141 1.986 . S
O144 C151 1.262 . S
O145 Zn140 2.049 . S
O145 C153 1.260 1_556 S
O146 Zn141 1.996 . S
O146 C153 1.257 . S
C147 O142 1.254 . S
C147 O143 1.269 1_554 S
C148 O149 1.249 1_556 S
C148 O150 1.270 . S
O149 Zn141 1.943 . S
O149 C148 1.249 1_554 S
O150 Zn140 2.067 . S
O150 C148 1.270 . S
C151 O144 1.262 . S
C151 O152 1.232 . S
O152 C151 1.232 . S
C153 O145 1.260 1_554 S
C153 O146 1.257 . S
Zn154 O157 2.031 . S
Zn154 O159 2.049 . S
Zn154 O164 2.067 . S
Zn155 O156 1.962 . S
Zn155 O158 1.986 . S
Zn155 O160 1.996 . S
Zn155 O163 1.943 . S
O156 Zn155 1.962 . S
O156 C161 1.254 . S
O157 Zn154 2.031 . S
O157 C161 1.269 1_556 S
O158 Zn155 1.986 . S
O158 C165 1.262 . S
O159 Zn154 2.049 . S
O159 C167 1.260 1_556 S
O160 Zn155 1.996 . S
O160 C167 1.257 . S
C161 O156 1.254 . S
C161 O157 1.269 1_554 S
C162 O163 1.249 1_556 S
C162 O164 1.270 . S
O163 Zn155 1.943 . S
O163 C162 1.249 1_554 S
O164 Zn154 2.067 . S
O164 C162 1.270 . S
C165 O158 1.262 . S
C165 O166 1.232 . S
O166 C165 1.232 . S
C167 O159 1.260 1_554 S
C167 O160 1.257 . S
Zn168 O171 2.031 . S
Zn168 O173 2.049 . S
Zn168 O178 2.067 . S
Zn169 O170 1.962 . S
Zn169 O172 1.986 . S
Zn169 O174 1.996 . S
Zn169 O177 1.943 . S
O170 Zn169 1.962 . S
O170 C175 1.254 . S
O171 Zn168 2.031 . S
O171 C175 1.269 . S
O172 Zn169 1.986 . S
O172 C179 1.262 . S
O173 Zn168 2.049 . S
O173 C181 1.260 . S
O174 Zn169 1.996 . S
O174 C181 1.257 . S
C175 O170 1.254 . S
C175 O171 1.269 . S
C176 O177 1.249 . S
C176 O178 1.270 . S
O177 Zn169 1.943 . S
O177 C176 1.249 . S
O178 Zn168 2.067 . S
O178 C176 1.270 . S
C179 O172 1.262 . S
C179 O180 1.232 . S
O180 C179 1.232 . S
C181 O173 1.260 . S
C181 O174 1.257 . S
Zn182 O185 2.031 . S
Zn182 O187 2.049 . S
Zn182 O192 2.067 . S
Zn183 O184 1.962 . S
Zn183 O186 1.986 . S
Zn183 O188 1.996 . S
Zn183 O191 1.943 . S
O184 Zn183 1.962 . S
O184 C189 1.254 . S
O185 Zn182 2.031 . S
O185 C189 1.269 . S
O186 Zn183 1.986 . S
O186 C193 1.262 . S
O187 Zn182 2.049 . S
O187 C195 1.260 . S
O188 Zn183 1.996 . S
O188 C195 1.257 . S
C189 O184 1.254 . S
C189 O185 1.269 . S
C190 O191 1.249 . S
C190 O192 1.270 . S
O191 Zn183 1.943 . S
O191 C190 1.249 . S
O192 Zn182 2.067 . S
O192 C190 1.270 . S
C193 O186 1.262 . S
C193 O194 1.232 . S
O194 C193 1.232 . S
C195 O187 1.260 . S
C195 O188 1.257 . S
Zn196 O199 2.031 . S
Zn196 O201 2.049 . S
Zn196 O206 2.067 . S
Zn197 O198 1.962 . S
Zn197 O200 1.986 . S
Zn197 O202 1.996 . S
Zn197 O205 1.943 . S
O198 Zn197 1.962 . S
O198 C203 1.254 . S
O199 Zn196 2.031 . S
O199 C203 1.269 . S
O200 Zn197 1.986 . S
O200 C207 1.262 . S
O201 Zn196 2.049 . S
O201 C209 1.260 . S
O202 Zn197 1.996 . S
O202 C209 1.257 . S
C203 O198 1.254 . S
C203 O199 1.269 . S
C204 O205 1.249 . S
C204 O206 1.270 . S
O205 Zn197 1.943 . S
O205 C204 1.249 . S
O206 Zn196 2.067 . S
O206 C204 1.270 . S
C207 O200 1.262 . S
C207 O208 1.232 . S
O208 C207 1.232 . S
C209 O201 1.260 . S
C209 O202 1.257 . S
Zn210 O213 2.031 . S
Zn210 O215 2.049 . S
Zn210 O220 2.067 . S
Zn211 O212 1.962 . S
Zn211 O214 1.986 . S
Zn211 O216 1.996 . S
Zn211 O219 1.943 . S
O212 Zn211 1.962 . S
O212 C217 1.254 . S
O213 Zn210 2.031 . S
O213 C217 1.269 . S
O214 Zn211 1.986 . S
O214 C221 1.262 . S
O215 Zn210 2.049 . S
O215 C223 1.260 . S
O216 Zn211 1.996 . S
O216 C223 1.257 . S
C217 O212 1.254 . S
C217 O213 1.269 . S
C218 O219 1.249 . S
C218 O220 1.270 . S
O219 Zn211 1.943 . S
O219 C218 1.249 . S
O220 Zn210 2.067 . S
O220 C218 1.270 . S
C221 O214 1.262 . S
C221 O222 1.232 . S
O222 C221 1.232 . S
C223 O215 1.260 . S
C223 O216 1.257 . S
Zn224 O227 2.031 . S
Zn224 O229 2.049 . S
Zn224 O234 2.067 . S
Zn225 O226 1.962 . S
Zn225 O228 1.986 . S
Zn225 O230 1.996 . S
Zn225 O233 1.943 . S
O226 Zn225 1.962 . S
O226 C231 1.254 . S
O227 Zn224 2.031 . S
O227 C231 1.269 . S
O228 Zn225 1.986 . S
O228 C235 1.262 . S
O229 Zn224 2.049 . S
O229 C237 1.260 . S
O230 Zn225 1.996 . S
O230 C237 1.257 . S
C231 O226 1.254 . S
C231 O227 1.269 . S
C232 O233 1.249 . S
C232 O234 1.270 . S
O233 Zn225 1.943 . S
O233 C232 1.249 . S
O234 Zn224 2.067 . S
O234 C232 1.270 . S
C235 O228 1.262 . S
C235 O236 1.232 . S
O236 C235 1.232 . S
C237 O229 1.260 . S
C237 O230 1.257 . S
Zn238 O241 2.031 . S
Zn238 O243 2.049 . S
Zn238 O248 2.067 . S
Zn239 O240 1.962 . S
Zn239 O242 1.986 . S
Zn239 O244 1.996 . S
Zn239 O247 1.943 . S
O240 Zn239 1.962 . S
O240 C245 1.254 . S
O241 Zn238 2.031 . S
O241 C245 1.269 . S
O242 Zn239 1.986 . S
O242 C249 1.262 . S
O243 Zn238 2.049 . S
O243 C251 1.260 . S
O244 Zn239 1.996 . S
O244 C251 1.257 . S
C245 O240 1.254 . S
C245 O241 1.269 . S
C246 O247 1.249 . S
C246 O248 1.270 . S
O247 Zn239 1.943 . S
O247 C246 1.249 . S
O248 Zn238 2.067 . S
O248 C246 1.270 . S
C249 O242 1.262 . S
C249 O250 1.232 . S
O250 C249 1.232 . S
C251 O243 1.260 . S
C251 O244 1.257 . S
Zn252 O255 2.031 . S
Zn252 O257 2.049 . S
Zn252 O262 2.067 . S
Zn253 O254 1.962 . S
Zn253 O256 1.986 . S
Zn253 O258 1.996 . S
Zn253 O261 1.943 . S
O254 Zn253 1.962 . S
O254 C259 1.254 . S
O255 Zn252 2.031 . S
O255 C259 1.269 . S
O256 Zn253 1.986 . S
O256 C263 1.262 . S
O257 Zn252 2.049 . S
O257 C265 1.260 . S
O258 Zn253 1.996 . S
O258 C265 1.257 . S
C259 O254 1.254 . S
C259 O255 1.269 . S
C260 O261 1.249 . S
C260 O262 1.270 . S
O261 Zn253 1.943 . S
O261 C260 1.249 . S
O262 Zn252 2.067 . S
O262 C260 1.270 . S
C263 O256 1.262 . S
C263 O264 1.232 . S
O264 C263 1.232 . S
C265 O257 1.260 . S
C265 O258 1.257 . S
Zn266 O269 2.031 . S
Zn266 O271 2.049 . S
Zn266 O276 2.067 . S
Zn267 O268 1.962 . S
Zn267 O270 1.986 . S
Zn267 O272 1.996 . S
Zn267 O275 1.943 . S
O268 Zn267 1.962 . S
O268 C273 1.254 . S
O269 Zn266 2.031 . S
O269 C273 1.269 . S
O270 Zn267 1.986 . S
O270 C277 1.262 . S
O271 Zn266 2.049 . S
O271 C279 1.260 . S
O272 Zn267 1.996 . S
O272 C279 1.257 . S
C273 O268 1.254 . S
C273 O269 1.269 . S
C274 O275 1.249 . S
C274 O276 1.270 . S
O275 Zn267 1.943 . S
O275 C274 1.249 . S
O276 Zn266 2.067 . S
O276 C274 1.270 . S
C277 O270 1.262 . S
C277 O278 1.232 . S
O278 C277 1.232 . S
C279 O271 1.260 . S
C279 O272 1.257 . S
Zn280 O283 2.031 . S
Zn280 O285 2.049 . S
Zn280 O290 2.067 . S
Zn281 O282 1.962 . S
Zn281 O284 1.986 . S
Zn281 O286 1.996 . S
Zn281 O289 1.943 . S
O282 Zn281 1.962 . S
O282 C287 1.254 . S
O283 Zn280 2.031 . S
O283 C287 1.269 . S
O284 Zn281 1.986 . S
O284 C291 1.262 . S
O285 Zn280 2.049 . S
O285 C293 1.260 . S
O286 Zn281 1.996 . S
O286 C293 1.257 . S
C287 O282 1.254 . S
C287 O283 1.269 . S
C288 O289 1.249 . S
C288 O290 1.270 . S
O289 Zn281 1.943 . S
O289 C288 1.249 . S
O290 Zn280 2.067 . S
O290 C288 1.270 . S
C291 O284 1.262 . S
C291 O292 1.232 . S
O292 C291 1.232 . S
C293 O285 1.260 . S
C293 O286 1.257 . S
Zn294 O297 2.031 . S
Zn294 O299 2.049 . S
Zn294 O304 2.067 . S
Zn295 O296 1.962 . S
Zn295 O298 1.986 . S
Zn295 O300 1.996 . S
Zn295 O303 1.943 . S
O296 Zn295 1.962 . S
O296 C301 1.254 . S
O297 Zn294 2.031 . S
O297 C301 1.269 . S
O298 Zn295 1.986 . S
O298 C305 1.262 . S
O299 Zn294 2.049 . S
O299 C307 1.260 . S
O300 Zn295 1.996 . S
O300 C307 1.257 . S
C301 O296 1.254 . S
C301 O297 1.269 . S
C302 O303 1.249 . S
C302 O304 1.270 . S
O303 Zn295 1.943 . S
O303 C302 1.249 . S
O304 Zn294 2.067 . S
O304 C302 1.270 . S
C305 O298 1.262 . S
C305 O306 1.232 . S
O306 C305 1.232 . S
C307 O299 1.260 . S
C307 O300 1.257 . S
Zn308 O311 2.031 . S
Zn308 O313 2.049 . S
Zn308 O318 2.067 . S
Zn309 O310 1.962 . S
Zn309 O312 1.986 . S
Zn309 O314 1.996 . S
Zn309 O317 1.943 . S
O310 Zn309 1.962 . S
O310 C315 1.254 . S
O311 Zn308 2.031 . S
O311 C315 1.269 . S
O312 Zn309 1.986 . S
O312 C319 1.262 . S
O313 Zn308 2.049 . S
O313 C321 1.260 . S
O314 Zn309 1.996 . S
O314 C321 1.257 . S
C315 O310 1.254 . S
C315 O311 1.269 . S
C316 O317 1.249 . S
C316 O318 1.270 . S
O317 Zn309 1.943 . S
O317 C316 1.249 . S
O318 Zn308 2.067 . S
O318 C316 1.270 . S
C319 O312 1.262 . S
C319 O320 1.232 . S
O320 C319 1.232 . S
C321 O313 1.260 . S
C321 O314 1.257 . S
Zn322 O325 2.031 . S
Zn322 O327 2.049 . S
Zn322 O332 2.067 . S
Zn323 O324 1.962 . S
Zn323 O326 1.986 . S
Zn323 O328 1.996 . S
Zn323 O331 1.943 . S
O324 Zn323 1.962 . S
O324 C329 1.254 . S
O325 Zn322 2.031 . S
O325 C329 1.269 . S
O326 Zn323 1.986 . S
O326 C333 1.262 . S
O327 Zn322 2.049 . S
O327 C335 1.260 . S
O328 Zn323 1.996 . S
O328 C335 1.257 . S
C329 O324 1.254 . S
C329 O325 1.269 . S
C330 O331 1.249 . S
C330 O332 1.270 . S
O331 Zn323 1.943 . S
O331 C330 1.249 . S
O332 Zn322 2.067 . S
O332 C330 1.270 . S
C333 O326 1.262 . S
C333 O334 1.232 . S
O334 C333 1.232 . S
C335 O327 1.260 . S
C335 O328 1.257 . S
Zn336 O339 2.031 . S
Zn336 O341 2.049 . S
Zn336 O346 2.067 . S
Zn337 O338 1.962 . S
Zn337 O340 1.986 . S
Zn337 O342 1.996 . S
Zn337 O345 1.943 . S
O338 Zn337 1.962 . S
O338 C343 1.254 . S
O339 Zn336 2.031 . S
O339 C343 1.269 . S
O340 Zn337 1.986 . S
O340 C347 1.262 . S
O341 Zn336 2.049 . S
O341 C349 1.260 . S
O342 Zn337 1.996 . S
O342 C349 1.257 . S
C343 O338 1.254 . S
C343 O339 1.269 . S
C344 O345 1.249 . S
C344 O346 1.270 . S
O345 Zn337 1.943 . S
O345 C344 1.249 . S
O346 Zn336 2.067 . S
O346 C344 1.270 . S
C347 O340 1.262 . S
C347 O348 1.232 . S
O348 C347 1.232 . S
C349 O341 1.260 . S
C349 O342 1.257 . S
Zn350 O353 2.031 . S
Zn350 O355 2.049 . S
Zn350 O360 2.067 . S
Zn351 O352 1.962 . S
Zn351 O354 1.986 . S
Zn351 O356 1.996 . S
Zn351 O359 1.943 . S
O352 Zn351 1.962 . S
O352 C357 1.254 . S
O353 Zn350 2.031 . S
O353 C357 1.269 . S
O354 Zn351 1.986 . S
O354 C361 1.262 . S
O355 Zn350 2.049 . S
O355 C363 1.260 . S
O356 Zn351 1.996 . S
O356 C363 1.257 . S
C357 O352 1.254 . S
C357 O353 1.269 . S
C358 O359 1.249 . S
C358 O360 1.270 . S
O359 Zn351 1.943 . S
O359 C358 1.249 . S
O360 Zn350 2.067 . S
O360 C358 1.270 . S
C361 O354 1.262 . S
C361 O362 1.232 . S
O362 C361 1.232 . S
C363 O355 1.260 . S
C363 O356 1.257 . S
Zn364 O367 2.031 . S
Zn364 O369 2.049 . S
Zn364 O374 2.067 . S
Zn365 O366 1.962 . S
Zn365 O368 1.986 . S
Zn365 O370 1.996 . S
Zn365 O373 1.943 . S
O366 Zn365 1.962 . S
O366 C371 1.254 . S
O367 Zn364 2.031 . S
O367 C371 1.269 . S
O368 Zn365 1.986 . S
O368 C375 1.262 . S
O369 Zn364 2.049 . S
O369 C377 1.260 . S
O370 Zn365 1.996 . S
O370 C377 1.257 . S
C371 O366 1.254 . S
C371 O367 1.269 . S
C372 O373 1.249 . S
C372 O374 1.270 . S
O373 Zn365 1.943 . S
O373 C372 1.249 . S
O374 Zn364 2.067 . S
O374 C372 1.270 . S
C375 O368 1.262 . S
C375 O376 1.232 . S
O376 C375 1.232 . S
C377 O369 1.260 . S
C377 O370 1.257 . S
Zn378 O381 2.031 . S
Zn378 O383 2.049 . S
Zn378 O388 2.067 . S
Zn379 O380 1.962 . S
Zn379 O382 1.986 . S
Zn379 O384 1.996 . S
Zn379 O387 1.943 . S
O380 Zn379 1.962 . S
O380 C385 1.254 . S
O381 Zn378 2.031 . S
O381 C385 1.269 . S
O382 Zn379 1.986 . S
O382 C389 1.262 . S
O383 Zn378 2.049 . S
O383 C391 1.260 . S
O384 Zn379 1.996 . S
O384 C391 1.257 . S
C385 O380 1.254 . S
C385 O381 1.269 . S
C386 O387 1.249 . S
C386 O388 1.270 . S
O387 Zn379 1.943 . S
O387 C386 1.249 . S
O388 Zn378 2.067 . S
O388 C386 1.270 . S
C389 O382 1.262 . S
C389 O390 1.232 . S
O390 C389 1.232 . S
C391 O383 1.260 . S
C391 O384 1.257 . S
Zn392 O395 2.031 . S
Zn392 O397 2.049 . S
Zn392 O402 2.067 . S
Zn393 O394 1.962 . S
Zn393 O396 1.986 . S
Zn393 O398 1.996 . S
Zn393 O401 1.943 . S
O394 Zn393 1.962 . S
O394 C399 1.254 . S
O395 Zn392 2.031 . S
O395 C399 1.269 . S
O396 Zn393 1.986 . S
O396 C403 1.262 . S
O397 Zn392 2.049 . S
O397 C405 1.260 . S
O398 Zn393 1.996 . S
O398 C405 1.257 . S
C399 O394 1.254 . S
C399 O395 1.269 . S
C400 O401 1.249 . S
C400 O402 1.270 . S
O401 Zn393 1.943 . S
O401 C400 1.249 . S
O402 Zn392 2.067 . S
O402 C400 1.270 . S
C403 O396 1.262 . S
C403 O404 1.232 . S
O404 C403 1.232 . S
C405 O397 1.260 . S
C405 O398 1.257 . S
Zn406 O409 2.031 . S
Zn406 O411 2.049 . S
Zn406 O416 2.067 . S
Zn407 O408 1.962 . S
Zn407 O410 1.986 . S
Zn407 O412 1.996 . S
Zn407 O415 1.943 . S
O408 Zn407 1.962 . S
O408 C413 1.254 . S
O409 Zn406 2.031 . S
O409 C413 1.269 . S
O410 Zn407 1.986 . S
O410 C417 1.262 . S
O411 Zn406 2.049 . S
O411 C419 1.260 . S
O412 Zn407 1.996 . S
O412 C419 1.257 . S
C413 O408 1.254 . S
C413 O409 1.269 . S
C414 O415 1.249 . S
C414 O416 1.270 . S
O415 Zn407 1.943 . S
O415 C414 1.249 . S
O416 Zn406 2.067 . S
O416 C414 1.270 . S
C417 O410 1.262 . S
C417 O418 1.232 . S
O418 C417 1.232 . S
C419 O411 1.260 . S
C419 O412 1.257 . S
Zn420 O423 2.031 . S
Zn420 O425 2.049 . S
Zn420 O430 2.067 . S
Zn421 O422 1.962 . S
Zn421 O424 1.986 . S
Zn421 O426 1.996 . S
Zn421 O429 1.943 . S
O422 Zn421 1.962 . S
O422 C427 1.254 . S
O423 Zn420 2.031 . S
O423 C427 1.269 . S
O424 Zn421 1.986 . S
O424 C431 1.262 . S
O425 Zn420 2.049 . S
O425 C433 1.260 . S
O426 Zn421 1.996 . S
O426 C433 1.257 . S
C427 O422 1.254 . S
C427 O423 1.269 . S
C428 O429 1.249 . S
C428 O430 1.270 . S
O429 Zn421 1.943 . S
O429 C428 1.249 . S
O430 Zn420 2.067 . S
O430 C428 1.270 . S
C431 O424 1.262 . S
C431 O432 1.232 . S
O432 C431 1.232 . S
C433 O425 1.260 . S
C433 O426 1.257 . S
Zn434 O437 2.031 . S
Zn434 O439 2.049 . S
Zn434 O444 2.067 . S
Zn435 O436 1.962 . S
Zn435 O438 1.986 . S
Zn435 O440 1.996 . S
Zn435 O443 1.943 . S
O436 Zn435 1.962 . S
O436 C441 1.254 . S
O437 Zn434 2.031 . S
O437 C441 1.269 . S
O438 Zn435 1.986 . S
O438 C445 1.262 . S
O439 Zn434 2.049 . S
O439 C447 1.260 . S
O440 Zn435 1.996 . S
O440 C447 1.257 . S
C441 O436 1.254 . S
C441 O437 1.269 . S
C442 O443 1.249 . S
C442 O444 1.270 . S
O443 Zn435 1.943 . S
O443 C442 1.249 . S
O444 Zn434 2.067 . S
O444 C442 1.270 . S
C445 O438 1.262 . S
C445 O446 1.232 . S
O446 C445 1.232 . S
C447 O439 1.260 . S
C447 O440 1.257 . S
Zn448 O451 2.031 . S
Zn448 O453 2.049 . S
Zn448 O458 2.067 . S
Zn449 O450 1.962 . S
Zn449 O452 1.986 . S
Zn449 O454 1.996 . S
Zn449 O457 1.943 . S
O450 Zn449 1.962 . S
O450 C455 1.254 . S
O451 Zn448 2.031 . S
O451 C455 1.269 . S
O452 Zn449 1.986 . S
O452 C459 1.262 . S
O453 Zn448 2.049 . S
O453 C461 1.260 . S
O454 Zn449 1.996 . S
O454 C461 1.257 . S
C455 O450 1.254 . S
C455 O451 1.269 . S
C456 O457 1.249 . S
C456 O458 1.270 . S
O457 Zn449 1.943 . S
O457 C456 1.249 . S
O458 Zn448 2.067 . S
O458 C456 1.270 . S
C459 O452 1.262 . S
C459 O460 1.232 . S
O460 C459 1.232 . S
C461 O453 1.260 . S
C461 O454 1.257 . S
Zn462 O465 2.031 . S
Zn462 O467 2.049 . S
Zn462 O472 2.067 . S
Zn463 O464 1.962 . S
Zn463 O466 1.986 . S
Zn463 O468 1.996 . S
Zn463 O471 1.943 . S
O464 Zn463 1.962 . S
O464 C469 1.254 . S
O465 Zn462 2.031 . S
O465 C469 1.269 . S
O466 Zn463 1.986 . S
O466 C473 1.262 . S
O467 Zn462 2.049 . S
O467 C475 1.260 . S
O468 Zn463 1.996 . S
O468 C475 1.257 . S
C469 O464 1.254 . S
C469 O465 1.269 . S
C470 O471 1.249 . S
C470 O472 1.270 . S
O471 Zn463 1.943 . S
O471 C470 1.249 . S
O472 Zn462 2.067 . S
O472 C470 1.270 . S
C473 O466 1.262 . S
C473 O474 1.232 . S
O474 C473 1.232 . S
C475 O467 1.260 . S
C475 O468 1.257 . S
Zn476 O479 2.031 . S
Zn476 O481 2.049 . S
Zn476 O486 2.067 . S
Zn477 O478 1.962 . S
Zn477 O480 1.986 . S
Zn477 O482 1.996 . S
Zn477 O485 1.943 . S
O478 Zn477 1.962 . S
O478 C483 1.254 . S
O479 Zn476 2.031 . S
O479 C483 1.269 . S
O480 Zn477 1.986 . S
O480 C487 1.262 . S
O481 Zn476 2.049 . S
O481 C489 1.260 . S
O482 Zn477 1.996 . S
O482 C489 1.257 . S
C483 O478 1.254 . S
C483 O479 1.269 . S
C484 O485 1.249 . S
C484 O486 1.270 . S
O485 Zn477 1.943 . S
O485 C484 1.249 . S
O486 Zn476 2.067 . S
O486 C484 1.270 . S
C487 O480 1.262 . S
C487 O488 1.232 . S
O488 C487 1.232 . S
C489 O481 1.260 . S
C489 O482 1.257 . S
Zn490 O493 2.031 . S
Zn490 O495 2.049 . S
Zn490 O500 2.067 . S
Zn491 O492 1.962 . S
Zn491 O494 1.986 . S
Zn491 O496 1.996 . S
Zn491 O499 1.943 . S
O492 Zn491 1.962 . S
O492 C497 1.254 . S
O493 Zn490 2.031 . S
O493 C497 1.269 . S
O494 Zn491 1.986 . S
O494 C501 1.262 . S
O495 Zn490 2.049 . S
O495 C503 1.260 . S
O496 Zn491 1.996 . S
O496 C503 1.257 . S
C497 O492 1.254 . S
C497 O493 1.269 . S
C498 O499 1.249 . S
C498 O500 1.270 . S
O499 Zn491 1.943 . S
O499 C498 1.249 . S
O500 Zn490 2.067 . S
O500 C498 1.270 . S
C501 O494 1.262 . S
C501 O502 1.232 . S
O502 C501 1.232 . S
C503 O495 1.260 . S
C503 O496 1.257 . S
C504 C505 1.387 . S
C504 H508 0.950 1_554 S
C504 C513 1.390 . S
C505 C504 1.387 . S
C505 C507 1.387 . S
H506 C513 0.950 1_556 S
C507 C505 1.387 . S
C507 C509 1.390 . S
C507 H511 0.950 . S
H508 C504 0.950 1_556 S
C509 C507 1.390 . S
C509 C510 1.387 . S
C509 H512 0.950 . S
C510 C509 1.387 . S
C510 C513 1.387 . S
H511 C507 0.950 . S
H512 C509 0.950 . S
C513 C504 1.390 . S
C513 H506 0.950 1_554 S
C513 C510 1.387 . S
C514 C515 1.387 . S
C514 H518 0.950 . S
C514 C523 1.390 . S
C515 C514 1.387 . S
C515 C517 1.387 1_554 S
H516 C523 0.950 . S
C517 C515 1.387 1_556 S
C517 C519 1.390 . S
C517 H521 0.950 . S
H518 C514 0.950 . S
C519 C517 1.390 . S
C519 C520 1.387 1_556 S
C519 H522 0.950 . S
C520 C519 1.387 1_554 S
C520 C523 1.387 . S
H521 C517 0.950 . S
H522 C519 0.950 . S
C523 C514 1.390 . S
C523 H516 0.950 . S
C523 C520 1.387 . S
C524 C525 1.387 . S
C524 H528 0.950 . S
C524 C533 1.390 . S
C525 C524 1.387 . S
C525 C527 1.387 1_554 S
H526 C533 0.950 . S
C527 C525 1.387 1_556 S
C527 C529 1.390 . S
C527 H531 0.950 . S
H528 C524 0.950 . S
C529 C527 1.390 . S
C529 C530 1.387 1_556 S
C529 H532 0.950 . S
C530 C529 1.387 1_554 S
C530 C533 1.387 . S
H531 C527 0.950 . S
H532 C529 0.950 . S
C533 C524 1.390 . S
C533 H526 0.950 . S
C533 C530 1.387 . S
C534 C535 1.387 1_554 S
C534 H538 0.950 . S
C534 C543 1.390 . S
C535 C534 1.387 1_556 S
C535 C537 1.387 . S
H536 C543 0.950 . S
C537 C535 1.387 . S
C537 C539 1.390 . S
C537 H541 0.950 . S
H538 C534 0.950 . S
C539 C537 1.390 . S
C539 C540 1.387 . S
C539 H542 0.950 . S
C540 C539 1.387 . S
C540 C543 1.387 1_556 S
H541 C537 0.950 . S
H542 C539 0.950 . S
C543 C534 1.390 . S
C543 H536 0.950 . S
C543 C540 1.387 1_554 S
C544 C545 1.387 1_554 S
C544 H548 0.950 . S
C544 C553 1.390 . S
C545 C544 1.387 1_556 S
C545 C547 1.387 . S
H546 C553 0.950 . S
C547 C545 1.387 . S
C547 C549 1.390 . S
C547 H551 0.950 . S
H548 C544 0.950 . S
C549 C547 1.390 . S
C549 C550 1.387 . S
C549 H552 0.950 . S
C550 C549 1.387 . S
C550 C553 1.387 1_556 S
H551 C547 0.950 . S
H552 C549 0.950 . S
C553 C544 1.390 . S
C553 H546 0.950 . S
C553 C550 1.387 1_554 S
C554 C555 1.387 . S
C554 H558 0.950 . S
C554 C563 1.390 . S
C555 C554 1.387 . S
C555 C557 1.387 . S
H556 C563 0.950 . S
C557 C555 1.387 . S
C557 C559 1.390 . S
C557 H561 0.950 1_556 S
H558 C554 0.950 . S
C559 C557 1.390 . S
C559 C560 1.387 . S
C559 H562 0.950 1_556 S
C560 C559 1.387 . S
C560 C563 1.387 . S
H561 C557 0.950 1_554 S
H562 C559 0.950 1_554 S
C563 C554 1.390 . S
C563 H556 0.950 . S
C563 C560 1.387 . S
C564 C565 1.387 . S
C564 H568 0.950 . S
C564 C573 1.390 . S
C565 C564 1.387 . S
C565 C567 1.387 . S
H566 C573 0.950 . S
C567 C565 1.387 . S
C567 C569 1.390 . S
C567 H571 0.950 . S
H568 C564 0.950 . S
C569 C567 1.390 . S
C569 C570 1.387 . S
C569 H572 0.950 . S
C570 C569 1.387 . S
C570 C573 1.387 . S
H571 C567 0.950 . S
H572 C569 0.950 . S
C573 C564 1.390 . S
C573 H566 0.950 . S
C573 C570 1.387 . S
C574 C575 1.387 . S
C574 H578 0.950 . S
C574 C583 1.390 . S
C575 C574 1.387 . S
C575 C577 1.387 . S
H576 C583 0.950 . S
C577 C575 1.387 . S
C577 C579 1.390 . S
C577 H581 0.950 . S
H578 C574 0.950 . S
C579 C577 1.390 . S
C579 C580 1.387 . S
C579 H582 0.950 . S
C580 C579 1.387 . S
C580 C583 1.387 . S
H581 C577 0.950 . S
H582 C579 0.950 . S
C583 C574 1.390 . S
C583 H576 0.950 . S
C583 C580 1.387 . S
C584 C585 1.387 . S
C584 H588 0.950 . S
C584 C593 1.390 . S
C585 C584 1.387 . S
C585 C587 1.387 . S
H586 C593 0.950 . S
C587 C585 1.387 . S
C587 C589 1.390 . S
C587 H591 0.950 . S
H588 C584 0.950 . S
C589 C587 1.390 . S
C589 C590 1.387 . S
C589 H592 0.950 . S
C590 C589 1.387 . S
C590 C593 1.387 . S
H591 C587 0.950 . S
H592 C589 0.950 . S
C593 C584 1.390 . S
C593 H586 0.950 . S
C593 C590 1.387 . S
C594 C595 1.387 . S
C594 H598 0.950 . S
C594 C603 1.390 . S
C595 C594 1.387 . S
C595 C597 1.387 . S
H596 C603 0.950 . S
C597 C595 1.387 . S
C597 C599 1.390 . S
C597 H601 0.950 . S
H598 C594 0.950 . S
C599 C597 1.390 . S
C599 C600 1.387 . S
C599 H602 0.950 . S
C600 C599 1.387 . S
C600 C603 1.387 . S
H601 C597 0.950 . S
H602 C599 0.950 . S
C603 C594 1.390 . S
C603 H596 0.950 . S
C603 C600 1.387 . S
C604 C605 1.387 . S
C604 H608 0.950 . S
C604 C613 1.390 . S
C605 C604 1.387 . S
C605 C607 1.387 . S
H606 C613 0.950 . S
C607 C605 1.387 . S
C607 C609 1.390 . S
C607 H611 0.950 . S
H608 C604 0.950 . S
C609 C607 1.390 . S
C609 C610 1.387 . S
C609 H612 0.950 . S
C610 C609 1.387 . S
C610 C613 1.387 . S
H611 C607 0.950 . S
H612 C609 0.950 . S
C613 C604 1.390 . S
C613 H606 0.950 . S
C613 C610 1.387 . S
C614 C615 1.387 . S
C614 H618 0.950 . S
C614 C623 1.390 . S
C615 C614 1.387 . S
C615 C617 1.387 . S
H616 C623 0.950 . S
C617 C615 1.387 . S
C617 C619 1.390 . S
C617 H621 0.950 . S
H618 C614 0.950 . S
C619 C617 1.390 . S
C619 C620 1.387 . S
C619 H622 0.950 . S
C620 C619 1.387 . S
C620 C623 1.387 . S
H621 C617 0.950 . S
H622 C619 0.950 . S
C623 C614 1.390 . S
C623 H616 0.950 . S
C623 C620 1.387 . S
C624 C625 1.387 . S
C624 H628 0.950 . S
C624 C633 1.390 . S
C625 C624 1.387 . S
C625 C627 1.387 . S
H626 C633 0.950 . S
C627 C625 1.387 . S
C627 C629 1.390 . S
C627 H631 0.950 . S
H628 C624 0.950 . S
C629 C627 1.390 . S
C629 C630 1.387 . S
C629 H632 0.950 . S
C630 C629 1.387 . S
C630 C633 1.387 . S
H631 C627 0.950 . S
H632 C629 0.950 . S
C633 C624 1.390 . S
C633 H626 0.950 . S
C633 C630 1.387 . S
C634 C635 1.387 . S
C634 H638 0.950 . S
C634 C643 1.390 . S
C635 C634 1.387 . S
C635 C637 1.387 . S
H636 C643 0.950 . S
C637 C635 1.387 . S
C637 C639 1.390 . S
C637 H641 0.950 . S
H638 C634 0.950 . S
C639 C637 1.390 . S
C639 C640 1.387 . S
C639 H642 0.950 . S
C640 C639 1.387 . S
C640 C643 1.387 . S
H641 C637 0.950 . S
H642 C639 0.950 . S
C643 C634 1.390 . S
C643 H636 0.950 . S
C643 C640 1.387 . S
C644 C645 1.387 . S
C644 H648 0.950 . S
C644 C653 1.390 . S
C645 C644 1.387 . S
C645 C647 1.387 . S
H646 C653 0.950 . S
C647 C645 1.387 . S
C647 C649 1.390 . S
C647 H651 0.950 . S
H648 C644 0.950 . S
C649 C647 1.390 . S
C649 C650 1.387 . S
C649 H652 0.950 . S
C650 C649 1.387 . S
C650 C653 1.387 . S
H651 C647 0.950 . S
H652 C649 0.950 . S
C653 C644 1.390 . S
C653 H646 0.950 . S
C653 C650 1.387 . S
C654 C655 1.387 . S
C654 H658 0.950 . S
C654 C663 1.390 . S
C655 C654 1.387 . S
C655 C657 1.387 . S
H656 C663 0.950 . S
C657 C655 1.387 . S
C657 C659 1.390 . S
C657 H661 0.950 . S
H658 C654 0.950 . S
C659 C657 1.390 . S
C659 C660 1.387 . S
C659 H662 0.950 . S
C660 C659 1.387 . S
C660 C663 1.387 . S
H661 C657 0.950 . S
H662 C659 0.950 . S
C663 C654 1.390 . S
C663 H656 0.950 . S
C663 C660 1.387 . S
C664 C665 1.387 . S
C664 H668 0.950 . S
C664 C673 1.390 . S
C665 C664 1.387 . S
C665 C667 1.387 . S
H666 C673 0.950 . S
C667 C665 1.387 . S
C667 C669 1.390 . S
C667 H671 0.950 . S
H668 C664 0.950 . S
C669 C667 1.390 . S
C669 C670 1.387 . S
C669 H672 0.950 . S
C670 C669 1.387 . S
C670 C673 1.387 . S
H671 C667 0.950 . S
H672 C669 0.950 . S
C673 C664 1.390 . S
C673 H666 0.950 . S
C673 C670 1.387 . S
C674 C675 1.387 . S
C674 H678 0.950 . S
C674 C683 1.390 . S
C675 C674 1.387 . S
C675 C677 1.387 . S
H676 C683 0.950 . S
C677 C675 1.387 . S
C677 C679 1.390 . S
C677 H681 0.950 . S
H678 C674 0.950 . S
C679 C677 1.390 . S
C679 C680 1.387 . S
C679 H682 0.950 . S
C680 C679 1.387 . S
C680 C683 1.387 . S
H681 C677 0.950 . S
H682 C679 0.950 . S
C683 C674 1.390 . S
C683 H676 0.950 . S
C683 C680 1.387 . S
C684 C685 1.387 . S
C684 H688 0.950 . S
C684 C693 1.390 1_455 S
C685 C684 1.387 . S
C685 C687 1.387 1_554 S
H686 C693 0.950 . S
C687 C685 1.387 1_556 S
C687 C689 1.390 1_455 S
C687 H691 0.950 . S
H688 C684 0.950 . S
C689 C687 1.390 1_655 S
C689 C690 1.387 . S
C689 H692 0.950 . S
C690 C689 1.387 . S
C690 C693 1.387 1_556 S
H691 C687 0.950 . S
H692 C689 0.950 . S
C693 C684 1.390 1_655 S
C693 H686 0.950 . S
C693 C690 1.387 1_554 S
C694 C695 1.387 . S
C694 H698 0.950 . S
C694 C703 1.390 . S
C695 C694 1.387 . S
C695 C697 1.387 1_556 S
H696 C703 0.950 . S
C697 C695 1.387 1_554 S
C697 C699 1.390 . S
C697 H701 0.950 . S
H698 C694 0.950 . S
C699 C697 1.390 . S
C699 C700 1.387 . S
C699 H702 0.950 . S
C700 C699 1.387 . S
C700 C703 1.387 1_554 S
H701 C697 0.950 . S
H702 C699 0.950 . S
C703 C694 1.390 . S
C703 H696 0.950 . S
C703 C700 1.387 1_556 S
C704 C705 1.387 . S
C704 H708 0.950 . S
C704 C713 1.390 1_564 S
C705 C704 1.387 . S
C705 C707 1.387 . S
H706 C713 0.950 . S
C707 C705 1.387 . S
C707 C709 1.390 1_564 S
C707 H711 0.950 . S
H708 C704 0.950 . S
C709 C707 1.390 1_546 S
C709 C710 1.387 . S
C709 H712 0.950 . S
C710 C709 1.387 . S
C710 C713 1.387 . S
H711 C707 0.950 . S
H712 C709 0.950 . S
C713 C704 1.390 1_546 S
C713 H706 0.950 . S
C713 C710 1.387 . S
C714 C715 1.387 1_554 S
C714 H718 0.950 . S
C714 C723 1.390 1_655 S
C715 C714 1.387 1_556 S
C715 C717 1.387 . S
H716 C723 0.950 . S
C717 C715 1.387 . S
C717 C719 1.390 1_655 S
C717 H721 0.950 . S
H718 C714 0.950 . S
C719 C717 1.390 1_455 S
C719 C720 1.387 1_556 S
C719 H722 0.950 . S
C720 C719 1.387 1_554 S
C720 C723 1.387 . S
H721 C717 0.950 . S
H722 C719 0.950 . S
C723 C714 1.390 1_455 S
C723 H716 0.950 . S
C723 C720 1.387 . S
C724 C725 1.387 1_554 S
C724 H728 0.950 . S
C724 C733 1.390 . S
C725 C724 1.387 1_556 S
C725 C727 1.387 . S
H726 C733 0.950 . S
C727 C725 1.387 . S
C727 C729 1.390 . S
C727 H731 0.950 . S
H728 C724 0.950 . S
C729 C727 1.390 . S
C729 C730 1.387 1_556 S
C729 H732 0.950 . S
C730 C729 1.387 1_554 S
C730 C733 1.387 . S
H731 C727 0.950 . S
H732 C729 0.950 . S
C733 C724 1.390 . S
C733 H726 0.950 . S
C733 C730 1.387 . S
C734 C735 1.387 . S
C734 H738 0.950 . S
C734 C743 1.390 1_546 S
C735 C734 1.387 . S
C735 C737 1.387 . S
H736 C743 0.950 . S
C737 C735 1.387 . S
C737 C739 1.390 1_546 S
C737 H741 0.950 . S
H738 C734 0.950 . S
C739 C737 1.390 1_564 S
C739 C740 1.387 . S
C739 H742 0.950 . S
C740 C739 1.387 . S
C740 C743 1.387 . S
H741 C737 0.950 . S
H742 C739 0.950 . S
C743 C734 1.390 1_564 S
C743 H736 0.950 . S
C743 C740 1.387 . S
C744 C745 1.387 . S
C744 H748 0.950 . S
C744 C753 1.390 . S
C745 C744 1.387 . S
C745 C747 1.387 . S
H746 C753 0.950 . S
C747 C745 1.387 . S
C747 C749 1.390 . S
C747 H751 0.950 . S
H748 C744 0.950 . S
C749 C747 1.390 . S
C749 C750 1.387 . S
C749 H752 0.950 . S
C750 C749 1.387 . S
C750 C753 1.387 . S
H751 C747 0.950 . S
H752 C749 0.950 . S
C753 C744 1.390 . S
C753 H746 0.950 . S
C753 C750 1.387 . S
C754 C755 1.387 . S
C754 H758 0.950 . S
C754 C763 1.390 . S
C755 C754 1.387 . S
C755 C757 1.387 . S
H756 C763 0.950 . S
C757 C755 1.387 . S
C757 C759 1.390 . S
C757 H761 0.950 . S
H758 C754 0.950 . S
C759 C757 1.390 . S
C759 C760 1.387 . S
C759 H762 0.950 . S
C760 C759 1.387 . S
C760 C763 1.387 . S
H761 C757 0.950 . S
H762 C759 0.950 . S
C763 C754 1.390 . S
C763 H756 0.950 . S
C763 C760 1.387 . S
C764 C765 1.387 . S
C764 H768 0.950 . S
C764 C773 1.390 . S
C765 C764 1.387 . S
C765 C767 1.387 . S
H766 C773 0.950 . S
C767 C765 1.387 . S
C767 C769 1.390 . S
C767 H771 0.950 . S
H768 C764 0.950 . S
C769 C767 1.390 . S
C769 C770 1.387 . S
C769 H772 0.950 . S
C770 C769 1.387 . S
C770 C773 1.387 . S
H771 C767 0.950 . S
H772 C769 0.950 . S
C773 C764 1.390 . S
C773 H766 0.950 . S
C773 C770 1.387 . S
C774 C775 1.387 . S
C774 H778 0.950 . S
C774 C783 1.390 . S
C775 C774 1.387 . S
C775 C777 1.387 . S
H776 C783 0.950 . S
C777 C775 1.387 . S
C777 C779 1.390 . S
C777 H781 0.950 . S
H778 C774 0.950 . S
C779 C777 1.390 . S
C779 C780 1.387 . S
C779 H782 0.950 . S
C780 C779 1.387 . S
C780 C783 1.387 . S
H781 C777 0.950 . S
H782 C779 0.950 . S
C783 C774 1.390 . S
C783 H776 0.950 . S
C783 C780 1.387 . S
C784 C785 1.387 . S
C784 H788 0.950 . S
C784 C793 1.390 . S
C785 C784 1.387 . S
C785 C787 1.387 . S
H786 C793 0.950 . S
C787 C785 1.387 . S
C787 C789 1.390 . S
C787 H791 0.950 . S
H788 C784 0.950 . S
C789 C787 1.390 . S
C789 C790 1.387 . S
C789 H792 0.950 . S
C790 C789 1.387 . S
C790 C793 1.387 . S
H791 C787 0.950 . S
H792 C789 0.950 . S
C793 C784 1.390 . S
C793 H786 0.950 . S
C793 C790 1.387 . S
C794 C795 1.387 . S
C794 H798 0.950 . S
C794 C803 1.390 . S
C795 C794 1.387 . S
C795 C797 1.387 . S
H796 C803 0.950 . S
C797 C795 1.387 . S
C797 C799 1.390 . S
C797 H801 0.950 . S
H798 C794 0.950 . S
C799 C797 1.390 . S
C799 C800 1.387 . S
C799 H802 0.950 . S
C800 C799 1.387 . S
C800 C803 1.387 . S
H801 C797 0.950 . S
H802 C799 0.950 . S
C803 C794 1.390 . S
C803 H796 0.950 . S
C803 C800 1.387 . S
C804 C805 1.387 . S
C804 H808 0.950 . S
C804 C813 1.390 . S
C805 C804 1.387 . S
C805 C807 1.387 . S
H806 C813 0.950 . S
C807 C805 1.387 . S
C807 C809 1.390 . S
C807 H811 0.950 . S
H808 C804 0.950 . S
C809 C807 1.390 . S
C809 C810 1.387 . S
C809 H812 0.950 . S
C810 C809 1.387 . S
C810 C813 1.387 . S
H811 C807 0.950 . S
H812 C809 0.950 . S
C813 C804 1.390 . S
C813 H806 0.950 . S
C813 C810 1.387 . S
C814 C815 1.387 . S
C814 H818 0.950 . S
C814 C823 1.390 . S
C815 C814 1.387 . S
C815 C817 1.387 . S
H816 C823 0.950 . S
C817 C815 1.387 . S
C817 C819 1.390 . S
C817 H821 0.950 . S
H818 C814 0.950 . S
C819 C817 1.390 . S
C819 C820 1.387 . S
C819 H822 0.950 . S
C820 C819 1.387 . S
C820 C823 1.387 . S
H821 C817 0.950 . S
H822 C819 0.950 . S
C823 C814 1.390 . S
C823 H816 0.950 . S
C823 C820 1.387 . S
C824 C825 1.387 . S
C824 H828 0.950 . S
C824 C833 1.390 . S
C825 C824 1.387 . S
C825 C827 1.387 . S
H826 C833 0.950 . S
C827 C825 1.387 . S
C827 C829 1.390 . S
C827 H831 0.950 . S
H828 C824 0.950 . S
C829 C827 1.390 . S
C829 C830 1.387 . S
C829 H832 0.950 . S
C830 C829 1.387 . S
C830 C833 1.387 . S
H831 C827 0.950 . S
H832 C829 0.950 . S
C833 C824 1.390 . S
C833 H826 0.950 . S
C833 C830 1.387 . S
C834 C835 1.387 . S
C834 H838 0.950 . S
C834 C843 1.390 . S
C835 C834 1.387 . S
C835 C837 1.387 . S
H836 C843 0.950 . S
C837 C835 1.387 . S
C837 C839 1.390 . S
C837 H841 0.950 . S
H838 C834 0.950 . S
C839 C837 1.390 . S
C839 C840 1.387 . S
C839 H842 0.950 . S
C840 C839 1.387 . S
C840 C843 1.387 . S
H841 C837 0.950 . S
H842 C839 0.950 . S
C843 C834 1.390 . S
C843 H836 0.950 . S
C843 C840 1.387 . S
C844 C845 1.387 . S
C844 H848 0.950 . S
C844 C853 1.390 . S
C845 C844 1.387 . S
C845 C847 1.387 . S
H846 C853 0.950 . S
C847 C845 1.387 . S
C847 C849 1.390 . S
C847 H851 0.950 . S
H848 C844 0.950 . S
C849 C847 1.390 . S
C849 C850 1.387 . S
C849 H852 0.950 . S
C850 C849 1.387 . S
C850 C853 1.387 . S
H851 C847 0.950 . S
H852 C849 0.950 . S
C853 C844 1.390 . S
C853 H846 0.950 . S
C853 C850 1.387 . S
C854 C855 1.387 . S
C854 H858 0.950 . S
C854 C863 1.390 . S
C855 C854 1.387 . S
C855 C857 1.387 . S
H856 C863 0.950 . S
C857 C855 1.387 . S
C857 C859 1.390 . S
C857 H861 0.950 . S
H858 C854 0.950 . S
C859 C857 1.390 . S
C859 C860 1.387 . S
C859 H862 0.950 . S
C860 C859 1.387 . S
C860 C863 1.387 . S
H861 C857 0.950 . S
H862 C859 0.950 . S
C863 C854 1.390 . S
C863 H856 0.950 . S
C863 C860 1.387 . S
C864 C865 1.387 . S
C864 H868 0.950 . S
C864 C873 1.390 . S
C865 C864 1.387 . S
C865 C867 1.387 . S
H866 C873 0.950 . S
C867 C865 1.387 . S
C867 C869 1.390 . S
C867 H871 0.950 . S
H868 C864 0.950 . S
C869 C867 1.390 . S
C869 C870 1.387 . S
C869 H872 0.950 . S
C870 C869 1.387 . S
C870 C873 1.387 . S
H871 C867 0.950 . S
H872 C869 0.950 . S
C873 C864 1.390 . S
C873 H866 0.950 . S
C873 C870 1.387 . S
C874 C875 1.387 . S
C874 H878 0.950 . S
C874 C883 1.390 . S
C875 C874 1.387 . S
C875 C877 1.387 . S
H876 C883 0.950 . S
C877 C875 1.387 . S
C877 C879 1.390 . S
C877 H881 0.950 . S
H878 C874 0.950 . S
C879 C877 1.390 . S
C879 C880 1.387 . S
C879 H882 0.950 . S
C880 C879 1.387 . S
C880 C883 1.387 . S
H881 C877 0.950 . S
H882 C879 0.950 . S
C883 C874 1.390 . S
C883 H876 0.950 . S
C883 C880 1.387 . S
C884 C885 1.387 . S
C884 H888 0.950 . S
C884 C893 1.390 . S
C885 C884 1.387 . S
C885 C887 1.387 . S
H886 C893 0.950 . S
C887 C885 1.387 . S
C887 C889 1.390 . S
C887 H891 0.950 . S
H888 C884 0.950 . S
C889 C887 1.390 . S
C889 C890 1.387 . S
C889 H892 0.950 . S
C890 C889 1.387 . S
C890 C893 1.387 . S
H891 C887 0.950 . S
H892 C889 0.950 . S
C893 C884 1.390 . S
C893 H886 0.950 . S
C893 C890 1.387 . S
C894 C895 1.387 . S
C894 H898 0.950 . S
C894 C903 1.390 . S
C895 C894 1.387 . S
C895 C897 1.387 . S
H896 C903 0.950 . S
C897 C895 1.387 . S
C897 C899 1.390 . S
C897 H901 0.950 . S
H898 C894 0.950 . S
C899 C897 1.390 . S
C899 C900 1.387 . S
C899 H902 0.950 . S
C900 C899 1.387 . S
C900 C903 1.387 . S
H901 C897 0.950 . S
H902 C899 0.950 . S
C903 C894 1.390 . S
C903 H896 0.950 . S
C903 C900 1.387 . S
C904 C905 1.387 . S
C904 H908 0.950 . S
C904 C913 1.390 . S
C905 C904 1.387 . S
C905 C907 1.387 . S
H906 C913 0.950 . S
C907 C905 1.387 . S
C907 C909 1.390 . S
C907 H911 0.950 . S
H908 C904 0.950 . S
C909 C907 1.390 . S
C909 C910 1.387 . S
C909 H912 0.950 . S
C910 C909 1.387 . S
C910 C913 1.387 . S
H911 C907 0.950 . S
H912 C909 0.950 . S
C913 C904 1.390 . S
C913 H906 0.950 . S
C913 C910 1.387 . S
C914 C915 1.387 . S
C914 H918 0.950 . S
C914 C923 1.390 . S
C915 C914 1.387 . S
C915 C917 1.387 . S
H916 C923 0.950 . S
C917 C915 1.387 . S
C917 C919 1.390 . S
C917 H921 0.950 . S
H918 C914 0.950 . S
C919 C917 1.390 . S
C919 C920 1.387 . S
C919 H922 0.950 . S
C920 C919 1.387 . S
C920 C923 1.387 . S
H921 C917 0.950 . S
H922 C919 0.950 . S
C923 C914 1.390 . S
C923 H916 0.950 . S
C923 C920 1.387 . S
C924 C925 1.387 . S
C924 H928 0.950 . S
C924 C933 1.390 . S
C925 C924 1.387 . S
C925 C927 1.387 . S
H926 C933 0.950 . S
C927 C925 1.387 . S
C927 C929 1.390 . S
C927 H931 0.950 . S
H928 C924 0.950 . S
C929 C927 1.390 . S
C929 C930 1.387 . S
C929 H932 0.950 . S
C930 C929 1.387 . S
C930 C933 1.387 . S
H931 C927 0.950 . S
H932 C929 0.950 . S
C933 C924 1.390 . S
C933 H926 0.950 . S
C933 C930 1.387 . S
C934 C935 1.387 . S
C934 H938 0.950 . S
C934 C943 1.390 . S
C935 C934 1.387 . S
C935 C937 1.387 . S
H936 C943 0.950 . S
C937 C935 1.387 . S
C937 C939 1.390 . S
C937 H941 0.950 . S
H938 C934 0.950 . S
C939 C937 1.390 . S
C939 C940 1.387 . S
C939 H942 0.950 . S
C940 C939 1.387 . S
C940 C943 1.387 . S
H941 C937 0.950 . S
H942 C939 0.950 . S
C943 C934 1.390 . S
C943 H936 0.950 . S
C943 C940 1.387 . S
C944 C945 1.387 . S
C944 H948 0.950 . S
C944 C953 1.390 . S
C945 C944 1.387 . S
C945 C947 1.387 . S
H946 C953 0.950 . S
C947 C945 1.387 . S
C947 C949 1.390 . S
C947 H951 0.950 . S
H948 C944 0.950 . S
C949 C947 1.390 . S
C949 C950 1.387 . S
C949 H952 0.950 . S
C950 C949 1.387 . S
C950 C953 1.387 . S
H951 C947 0.950 . S
H952 C949 0.950 . S
C953 C944 1.390 . S
C953 H946 0.950 . S
C953 C950 1.387 . S
C954 C955 1.387 . S
C954 H958 0.950 . S
C954 C963 1.390 . S
C955 C954 1.387 . S
C955 C957 1.387 . S
H956 C963 0.950 . S
C957 C955 1.387 . S
C957 C959 1.390 . S
C957 H961 0.950 . S
H958 C954 0.950 . S
C959 C957 1.390 . S
C959 C960 1.387 . S
C959 H962 0.950 . S
C960 C959 1.387 . S
C960 C963 1.387 . S
H961 C957 0.950 . S
H962 C959 0.950 . S
C963 C954 1.390 . S
C963 H956 0.950 . S
C963 C960 1.387 . S
C964 C965 1.387 . S
C964 H968 0.950 . S
C964 C973 1.390 . S
C965 C964 1.387 . S
C965 C967 1.387 . S
H966 C973 0.950 . S
C967 C965 1.387 . S
C967 C969 1.390 . S
C967 H971 0.950 . S
H968 C964 0.950 . S
C969 C967 1.390 . S
C969 C970 1.387 . S
C969 H972 0.950 . S
C970 C969 1.387 . S
C970 C973 1.387 . S
H971 C967 0.950 . S
H972 C969 0.950 . S
C973 C964 1.390 . S
C973 H966 0.950 . S
C973 C970 1.387 . S
C974 C975 1.387 . S
C974 H978 0.950 . S
C974 C983 1.390 . S
C975 C974 1.387 . S
C975 C977 1.387 . S
H976 C983 0.950 . S
C977 C975 1.387 . S
C977 C979 1.390 . S
C977 H981 0.950 . S
H978 C974 0.950 . S
C979 C977 1.390 . S
C979 C980 1.387 . S
C979 H982 0.950 . S
C980 C979 1.387 . S
C980 C983 1.387 . S
H981 C977 0.950 . S
H982 C979 0.950 . S
C983 C974 1.390 . S
C983 H976 0.950 . S
C983 C980 1.387 . S
C984 C985 1.387 1_655 S
C984 H988 0.950 . S
C984 C993 1.390 . S
C985 C984 1.387 1_455 S
C985 C987 1.387 . S
H986 C993 0.950 . S
C987 C985 1.387 . S
C987 C989 1.390 . S
C987 H991 0.950 . S
H988 C984 0.950 . S
C989 C987 1.390 . S
C989 C990 1.387 1_455 S
C989 H992 0.950 . S
C990 C989 1.387 1_655 S
C990 C993 1.387 . S
H991 C987 0.950 . S
H992 C989 0.950 . S
C993 C984 1.390 . S
C993 H986 0.950 . S
C993 C990 1.387 . S
C994 C995 1.387 . S
C994 H998 0.950 . S
C994 C1003 1.390 . S
C995 C994 1.387 . S
C995 C997 1.387 . S
H996 C1003 0.950 . S
C997 C995 1.387 . S
C997 C999 1.390 . S
C997 H1001 0.950 . S
H998 C994 0.950 . S
C999 C997 1.390 . S
C999 C1000 1.387 . S
C999 H1002 0.950 . S
C1000 C999 1.387 . S
C1000 C1003 1.387 . S
H1001 C997 0.950 . S
H1002 C999 0.950 . S
C1003 C994 1.390 . S
C1003 H996 0.950 . S
C1003 C1000 1.387 . S
C1004 C1005 1.387 . S
C1004 H1008 0.950 . S
C1004 C1013 1.390 1_565 S
C1005 C1004 1.387 . S
C1005 C1007 1.387 . S
H1006 C1013 0.950 . S
C1007 C1005 1.387 . S
C1007 C1009 1.390 1_565 S
C1007 H1011 0.950 . S
H1008 C1004 0.950 . S
C1009 C1007 1.390 1_545 S
C1009 C1010 1.387 . S
C1009 H1012 0.950 . S
C1010 C1009 1.387 . S
C1010 C1013 1.387 . S
H1011 C1007 0.950 . S
H1012 C1009 0.950 . S
C1013 C1004 1.390 1_545 S
C1013 H1006 0.950 . S
C1013 C1010 1.387 . S
C1014 C1015 1.387 . S
C1014 H1018 0.950 . S
C1014 C1023 1.390 1_565 S
C1015 C1014 1.387 . S
C1015 C1017 1.387 . S
H1016 C1023 0.950 . S
C1017 C1015 1.387 . S
C1017 C1019 1.390 1_565 S
C1017 H1021 0.950 . S
H1018 C1014 0.950 . S
C1019 C1017 1.390 1_545 S
C1019 C1020 1.387 . S
C1019 H1022 0.950 . S
C1020 C1019 1.387 . S
C1020 C1023 1.387 . S
H1021 C1017 0.950 . S
H1022 C1019 0.950 . S
C1023 C1014 1.390 1_545 S
C1023 H1016 0.950 . S
C1023 C1020 1.387 . S
C1024 C1025 1.387 . S
C1024 H1028 0.950 . S
C1024 C1033 1.390 . S
C1025 C1024 1.387 . S
C1025 C1027 1.387 1_655 S
H1026 C1033 0.950 . S
C1027 C1025 1.387 1_455 S
C1027 C1029 1.390 . S
C1027 H1031 0.950 . S
H1028 C1024 0.950 . S
C1029 C1027 1.390 . S
C1029 C1030 1.387 . S
C1029 H1032 0.950 . S
C1030 C1029 1.387 . S
C1030 C1033 1.387 1_455 S
H1031 C1027 0.950 . S
H1032 C1029 0.950 . S
C1033 C1024 1.390 . S
C1033 H1026 0.950 . S
C1033 C1030 1.387 1_655 S
C1034 C1035 1.387 . S
C1034 H1038 0.950 . S
C1034 C1043 1.390 . S
C1035 C1034 1.387 . S
C1035 C1037 1.387 . S
H1036 C1043 0.950 . S
C1037 C1035 1.387 . S
C1037 C1039 1.390 . S
C1037 H1041 0.950 . S
H1038 C1034 0.950 . S
C1039 C1037 1.390 . S
C1039 C1040 1.387 . S
C1039 H1042 0.950 . S
C1040 C1039 1.387 . S
C1040 C1043 1.387 . S
H1041 C1037 0.950 . S
H1042 C1039 0.950 . S
C1043 C1034 1.390 . S
C1043 H1036 0.950 . S
C1043 C1040 1.387 . S
C1044 C1045 1.387 . S
C1044 H1048 0.950 . S
C1044 C1053 1.390 . S
C1045 C1044 1.387 . S
C1045 C1047 1.387 . S
H1046 C1053 0.950 . S
C1047 C1045 1.387 . S
C1047 C1049 1.390 . S
C1047 H1051 0.950 . S
H1048 C1044 0.950 . S
C1049 C1047 1.390 . S
C1049 C1050 1.387 . S
C1049 H1052 0.950 . S
C1050 C1049 1.387 . S
C1050 C1053 1.387 . S
H1051 C1047 0.950 . S
H1052 C1049 0.950 . S
C1053 C1044 1.390 . S
C1053 H1046 0.950 . S
C1053 C1050 1.387 . S
C1054 C1055 1.387 . S
C1054 H1058 0.950 . S
C1054 C1063 1.390 . S
C1055 C1054 1.387 . S
C1055 C1057 1.387 . S
H1056 C1063 0.950 . S
C1057 C1055 1.387 . S
C1057 C1059 1.390 . S
C1057 H1061 0.950 . S
H1058 C1054 0.950 . S
C1059 C1057 1.390 . S
C1059 C1060 1.387 . S
C1059 H1062 0.950 . S
C1060 C1059 1.387 . S
C1060 C1063 1.387 . S
H1061 C1057 0.950 . S
H1062 C1059 0.950 . S
C1063 C1054 1.390 . S
C1063 H1056 0.950 . S
C1063 C1060 1.387 . S
C1064 C1065 1.387 . S
C1064 H1068 0.950 . S
C1064 C1073 1.390 . S
C1065 C1064 1.387 . S
C1065 C1067 1.387 . S
H1066 C1073 0.950 . S
C1067 C1065 1.387 . S
C1067 C1069 1.390 . S
C1067 H1071 0.950 . S
H1068 C1064 0.950 . S
C1069 C1067 1.390 . S
C1069 C1070 1.387 . S
C1069 H1072 0.950 . S
C1070 C1069 1.387 . S
C1070 C1073 1.387 . S
H1071 C1067 0.950 . S
H1072 C1069 0.950 . S
C1073 C1064 1.390 . S
C1073 H1066 0.950 . S
C1073 C1070 1.387 . S
C1074 C1075 1.387 . S
C1074 H1078 0.950 . S
C1074 C1083 1.390 . S
C1075 C1074 1.387 . S
C1075 C1077 1.387 . S
H1076 C1083 0.950 . S
C1077 C1075 1.387 . S
C1077 C1079 1.390 . S
C1077 H1081 0.950 . S
H1078 C1074 0.950 . S
C1079 C1077 1.390 . S
C1079 C1080 1.387 . S
C1079 H1082 0.950 . S
C1080 C1079 1.387 . S
C1080 C1083 1.387 . S
H1081 C1077 0.950 . S
H1082 C1079 0.950 . S
C1083 C1074 1.390 . S
C1083 H1076 0.950 . S
C1083 C1080 1.387 . S
C1084 C1085 1.387 . S
C1084 H1088 0.950 . S
C1084 C1093 1.390 . S
C1085 C1084 1.387 . S
C1085 C1087 1.387 . S
H1086 C1093 0.950 . S
C1087 C1085 1.387 . S
C1087 C1089 1.390 . S
C1087 H1091 0.950 . S
H1088 C1084 0.950 . S
C1089 C1087 1.390 . S
C1089 C1090 1.387 . S
C1089 H1092 0.950 . S
C1090 C1089 1.387 . S
C1090 C1093 1.387 . S
H1091 C1087 0.950 . S
H1092 C1089 0.950 . S
C1093 C1084 1.390 . S
C1093 H1086 0.950 . S
C1093 C1090 1.387 . S
C1094 C1095 1.387 . S
C1094 H1098 0.950 . S
C1094 C1103 1.390 . S
C1095 C1094 1.387 . S
C1095 C1097 1.387 . S
H1096 C1103 0.950 . S
C1097 C1095 1.387 . S
C1097 C1099 1.390 . S
C1097 H1101 0.950 . S
H1098 C1094 0.950 . S
C1099 C1097 1.390 . S
C1099 C1100 1.387 . S
C1099 H1102 0.950 . S
C1100 C1099 1.387 . S
C1100 C1103 1.387 . S
H1101 C1097 0.950 . S
H1102 C1099 0.950 . S
C1103 C1094 1.390 . S
C1103 H1096 0.950 . S
C1103 C1100 1.387 . S
C1104 C1105 1.387 . S
C1104 H1108 0.950 . S
C1104 C1113 1.390 . S
C1105 C1104 1.387 . S
C1105 C1107 1.387 . S
H1106 C1113 0.950 . S
C1107 C1105 1.387 . S
C1107 C1109 1.390 . S
C1107 H1111 0.950 . S
H1108 C1104 0.950 . S
C1109 C1107 1.390 . S
C1109 C1110 1.387 . S
C1109 H1112 0.950 . S
C1110 C1109 1.387 . S
C1110 C1113 1.387 . S
H1111 C1107 0.950 . S
H1112 C1109 0.950 . S
C1113 C1104 1.390 . S
C1113 H1106 0.950 . S
C1113 C1110 1.387 . S
C1114 C1115 1.387 . S
C1114 H1118 0.950 . S
C1114 C1123 1.390 . S
C1115 C1114 1.387 . S
C1115 C1117 1.387 . S
H1116 C1123 0.950 . S
C1117 C1115 1.387 . S
C1117 C1119 1.390 . S
C1117 H1121 0.950 . S
H1118 C1114 0.950 . S
C1119 C1117 1.390 . S
C1119 C1120 1.387 . S
C1119 H1122 0.950 . S
C1120 C1119 1.387 . S
C1120 C1123 1.387 . S
H1121 C1117 0.950 . S
H1122 C1119 0.950 . S
C1123 C1114 1.390 . S
C1123 H1116 0.950 . S
C1123 C1120 1.387 . S
C1124 C1125 1.387 . S
C1124 H1128 0.950 . S
C1124 C1133 1.390 . S
C1125 C1124 1.387 . S
C1125 C1127 1.387 . S
H1126 C1133 0.950 . S
C1127 C1125 1.387 . S
C1127 C1129 1.390 . S
C1127 H1131 0.950 . S
H1128 C1124 0.950 . S
C1129 C1127 1.390 . S
C1129 C1130 1.387 . S
C1129 H1132 0.950 . S
C1130 C1129 1.387 . S
C1130 C1133 1.387 . S
H1131 C1127 0.950 . S
H1132 C1129 0.950 . S
C1133 C1124 1.390 . S
C1133 H1126 0.950 . S
C1133 C1130 1.387 . S
C1134 C1135 1.387 . S
C1134 H1138 0.950 . S
C1134 C1143 1.390 . S
C1135 C1134 1.387 . S
C1135 C1137 1.387 . S
H1136 C1143 0.950 . S
C1137 C1135 1.387 . S
C1137 C1139 1.390 . S
C1137 H1141 0.950 . S
H1138 C1134 0.950 . S
C1139 C1137 1.390 . S
C1139 C1140 1.387 . S
C1139 H1142 0.950 . S
C1140 C1139 1.387 . S
C1140 C1143 1.387 . S
H1141 C1137 0.950 . S
H1142 C1139 0.950 . S
C1143 C1134 1.390 . S
C1143 H1136 0.950 . S
C1143 C1140 1.387 . S
C1144 C1145 1.387 . S
C1144 H1148 0.950 . S
C1144 C1153 1.390 . S
C1145 C1144 1.387 . S
C1145 C1147 1.387 . S
H1146 C1153 0.950 . S
C1147 C1145 1.387 . S
C1147 C1149 1.390 . S
C1147 H1151 0.950 . S
H1148 C1144 0.950 . S
C1149 C1147 1.390 . S
C1149 C1150 1.387 . S
C1149 H1152 0.950 . S
C1150 C1149 1.387 . S
C1150 C1153 1.387 . S
H1151 C1147 0.950 . S
H1152 C1149 0.950 . S
C1153 C1144 1.390 . S
C1153 H1146 0.950 . S
C1153 C1150 1.387 . S
C1154 C1155 1.387 . S
C1154 H1158 0.950 . S
C1154 C1163 1.390 . S
C1155 C1154 1.387 . S
C1155 C1157 1.387 . S
H1156 C1163 0.950 . S
C1157 C1155 1.387 . S
C1157 C1159 1.390 . S
C1157 H1161 0.950 . S
H1158 C1154 0.950 . S
C1159 C1157 1.390 . S
C1159 C1160 1.387 . S
C1159 H1162 0.950 . S
C1160 C1159 1.387 . S
C1160 C1163 1.387 . S
H1161 C1157 0.950 . S
H1162 C1159 0.950 . S
C1163 C1154 1.390 . S
C1163 H1156 0.950 . S
C1163 C1160 1.387 . S
C1164 C1165 1.387 1_655 S
C1164 H1168 0.950 . S
C1164 C1173 1.390 1_556 S
C1165 C1164 1.387 1_455 S
C1165 C1167 1.387 . S
H1166 C1173 0.950 . S
C1167 C1165 1.387 . S
C1167 C1169 1.390 1_556 S
C1167 H1171 0.950 . S
H1168 C1164 0.950 . S
C1169 C1167 1.390 1_554 S
C1169 C1170 1.387 1_455 S
C1169 H1172 0.950 . S
C1170 C1169 1.387 1_655 S
C1170 C1173 1.387 . S
H1171 C1167 0.950 . S
H1172 C1169 0.950 . S
C1173 C1164 1.390 1_554 S
C1173 H1166 0.950 . S
C1173 C1170 1.387 . S
C1174 C1175 1.387 . S
C1174 H1178 0.950 . S
C1174 C1183 1.390 1_554 S
C1175 C1174 1.387 . S
C1175 C1177 1.387 . S
H1176 C1183 0.950 . S
C1177 C1175 1.387 . S
C1177 C1179 1.390 1_554 S
C1177 H1181 0.950 . S
H1178 C1174 0.950 . S
C1179 C1177 1.390 1_556 S
C1179 C1180 1.387 . S
C1179 H1182 0.950 . S
C1180 C1179 1.387 . S
C1180 C1183 1.387 . S
H1181 C1177 0.950 . S
H1182 C1179 0.950 . S
C1183 C1174 1.390 1_556 S
C1183 H1176 0.950 . S
C1183 C1180 1.387 . S
C1184 C1185 1.387 . S
C1184 H1188 0.950 . S
C1184 C1193 1.390 1_544 S
C1185 C1184 1.387 . S
C1185 C1187 1.387 . S
H1186 C1193 0.950 . S
C1187 C1185 1.387 . S
C1187 C1189 1.390 1_544 S
C1187 H1191 0.950 . S
H1188 C1184 0.950 . S
C1189 C1187 1.390 1_566 S
C1189 C1190 1.387 . S
C1189 H1192 0.950 . S
C1190 C1189 1.387 . S
C1190 C1193 1.387 . S
H1191 C1187 0.950 . S
H1192 C1189 0.950 . S
C1193 C1184 1.390 1_566 S
C1193 H1186 0.950 . S
C1193 C1190 1.387 . S
C1194 C1195 1.387 . S
C1194 H1198 0.950 . S
C1194 C1203 1.390 1_566 S
C1195 C1194 1.387 . S
C1195 C1197 1.387 . S
H1196 C1203 0.950 . S
C1197 C1195 1.387 . S
C1197 C1199 1.390 1_566 S
C1197 H1201 0.950 . S
H1198 C1194 0.950 . S
C1199 C1197 1.390 1_544 S
C1199 C1200 1.387 . S
C1199 H1202 0.950 . S
C1200 C1199 1.387 . S
C1200 C1203 1.387 . S
H1201 C1197 0.950 . S
H1202 C1199 0.950 . S
C1203 C1194 1.390 1_544 S
C1203 H1196 0.950 . S
C1203 C1200 1.387 . S
C1204 C1205 1.387 . S
C1204 H1208 0.950 . S
C1204 C1213 1.390 1_556 S
C1205 C1204 1.387 . S
C1205 C1207 1.387 1_455 S
H1206 C1213 0.950 . S
C1207 C1205 1.387 1_655 S
C1207 C1209 1.390 1_556 S
C1207 H1211 0.950 . S
H1208 C1204 0.950 . S
C1209 C1207 1.390 1_554 S
C1209 C1210 1.387 . S
C1209 H1212 0.950 . S
C1210 C1209 1.387 . S
C1210 C1213 1.387 1_655 S
H1211 C1207 0.950 . S
H1212 C1209 0.950 . S
C1213 C1204 1.390 1_554 S
C1213 H1206 0.950 . S
C1213 C1210 1.387 1_455 S
C1214 C1215 1.387 . S
C1214 H1218 0.950 . S
C1214 C1223 1.390 1_554 S
C1215 C1214 1.387 . S
C1215 C1217 1.387 . S
H1216 C1223 0.950 . S
C1217 C1215 1.387 . S
C1217 C1219 1.390 1_554 S
C1217 H1221 0.950 . S
H1218 C1214 0.950 . S
C1219 C1217 1.390 1_556 S
C1219 C1220 1.387 . S
C1219 H1222 0.950 . S
C1220 C1219 1.387 . S
C1220 C1223 1.387 . S
H1221 C1217 0.950 . S
H1222 C1219 0.950 . S
C1223 C1214 1.390 1_556 S
C1223 H1216 0.950 . S
C1223 C1220 1.387 . S
C505 C13 1.306 . S
C510 C167 1.309 . S
C515 C27 1.308 . S
C520 C139 1.307 . S
C525 C153 1.307 . S
C530 C41 1.308 . S
C535 C55 1.307 . S
C540 C111 1.308 . S
C545 C125 1.308 . S
C550 C69 1.307 . S
C555 C83 1.309 . S
C560 C97 1.306 . S
C565 C335 1.306 . S
C570 C181 1.309 . S
C575 C195 1.308 . S
C580 C307 1.307 . S
C585 C209 1.307 . S
C590 C321 1.308 . S
C595 C279 1.307 . S
C600 C223 1.308 . S
C605 C237 1.308 . S
C610 C293 1.307 . S
C615 C265 1.306 . S
C620 C251 1.308 . S
C625 C349 1.306 . S
C630 C503 1.308 . S
C635 C475 1.308 . S
C640 C363 1.307 . S
C645 C489 1.307 . S
C650 C377 1.308 . S
C655 C447 1.307 . S
C660 C391 1.308 . S
C665 C461 1.307 . S
C670 C405 1.308 . S
C675 C433 1.306 . S
C680 C419 1.309 . S
C685 C7 1.200 . S
C690 C63 1.200 . S
C695 C77 1.200 . S
C700 C21 1.199 . S
C705 C35 1.199 . S
C710 C49 1.199 . S
C715 C91 1.200 . S
C720 C147 1.199 . S
C725 C105 1.201 . S
C730 C161 1.200 . S
C735 C119 1.201 . S
C740 C133 1.201 . S
C745 C231 1.200 . S
C750 C175 1.200 . S
C755 C245 1.200 . S
C760 C189 1.201 . S
C765 C203 1.199 . S
C770 C217 1.199 . S
C775 C315 1.199 . S
C780 C259 1.200 . S
C785 C329 1.200 . S
C790 C273 1.199 . S
C795 C287 1.201 . S
C800 C301 1.201 . S
C805 C399 1.200 . S
C810 C343 1.200 . S
C815 C357 1.200 . S
C820 C413 1.200 . S
C825 C371 1.201 . S
C830 C385 1.201 . S
C835 C483 1.200 . S
C840 C427 1.200 . S
C845 C441 1.201 . S
C850 C497 1.200 . S
C855 C469 1.199 . S
C860 C455 1.199 . S
C865 C414 1.458 . S
C870 C8 1.458 . S
C875 C22 1.458 . S
C880 C386 1.457 . S
C885 C36 1.459 . S
C890 C400 1.458 . S
C895 C50 1.460 . S
C900 C190 1.458 . S
C905 C204 1.460 . S
C910 C64 1.458 . S
C915 C176 1.459 . S
C920 C78 1.459 . S
C925 C92 1.459 . S
C930 C330 1.459 . S
C935 C106 1.458 . S
C940 C302 1.457 . S
C945 C120 1.460 . S
C950 C316 1.458 . S
C955 C442 1.458 . S
C960 C134 1.460 . S
C965 C456 1.457 . S
C970 C148 1.459 . S
C975 C162 1.459 . S
C980 C428 1.459 . S
C985 C358 1.459 . S
C990 C218 1.457 . S
C995 C232 1.459 . S
C1000 C372 1.459 . S
C1005 C344 1.458 . S
C1010 C246 1.458 . S
C1015 C498 1.459 . S
C1020 C260 1.459 . S
C1025 C274 1.460 . S
C1030 C470 1.458 . S
C1035 C288 1.457 . S
C1040 C484 1.458 . S
C1045 C11 1.546 . S
C1050 C417 1.546 . S
C1055 C389 1.546 . S
C1060 C25 1.546 . S
C1065 C39 1.546 . S
C1070 C403 1.546 . S
C1075 C193 1.546 . S
C1080 C53 1.546 . S
C1085 C67 1.546 . S
C1090 C207 1.546 . S
C1095 C81 1.546 . S
C1100 C179 1.546 . S
C1105 C333 1.546 . S
C1110 C95 1.546 . S
C1115 C109 1.546 . S
C1120 C305 1.546 . S
C1125 C123 1.546 . S
C1130 C319 1.546 . S
C1135 C137 1.546 . S
C1140 C445 1.546 . S
C1145 C459 1.546 . S
C1150 C151 1.546 . S
C1155 C165 1.546 . S
C1160 C431 1.546 . S
C1165 C361 1.546 . S
C1170 C221 1.546 . S
C1175 C235 1.546 . S
C1180 C375 1.546 . S
C1185 C249 1.546 . S
C1190 C347 1.546 . S
C1195 C501 1.546 . S
C1200 C263 1.546 . S
C1205 C473 1.546 . S
C1210 C277 1.546 . S
C1215 C291 1.546 . S
C1220 C487 1.546 . S
