# Generated by pormake.
# Topology afw, (4)-cn, num edge types: 1
# Building blocks:
#     Node 0, Type 0, BuildingBlock: GALJAG_clean_sbu_0, # of connection points: 4
#     Node 1, Type 0, BuildingBlock: GALJAG_clean_sbu_0, # of connection points: 4
#     Node 2, Type 0, BuildingBlock: GALJAG_clean_sbu_0, # of connection points: 4
#     Node 3, Type 0, BuildingBlock: GALJAG_clean_sbu_0, # of connection points: 4
#     Node 4, Type 0, BuildingBlock: GALJAG_clean_sbu_0, # of connection points: 4
#     Node 5, Type 0, BuildingBlock: GALJAG_clean_sbu_0, # of connection points: 4
#     Node 6, Type 0, BuildingBlock: GALJAG_clean_sbu_0, # of connection points: 4
#     Node 7, Type 0, BuildingBlock: GALJAG_clean_sbu_0, # of connection points: 4
#     Node 8, Type 0, BuildingBlock: GALJAG_clean_sbu_0, # of connection points: 4
#     Edge 9, Type (0, 0), BuildingBlock: MIFKUJ_clean_linker_0, # of connection points: 2
#     Edge 10, Type (0, 0), BuildingBlock: MIFKUJ_clean_linker_0, # of connection points: 2
#     Edge 11, Type (0, 0), BuildingBlock: MIFKUJ_clean_linker_0, # of connection points: 2
#     Edge 12, Type (0, 0), BuildingBlock: MIFKUJ_clean_linker_0, # of connection points: 2
#     Edge 13, Type (0, 0), BuildingBlock: MIFKUJ_clean_linker_0, # of connection points: 2
#     Edge 14, Type (0, 0), BuildingBlock: MIFKUJ_clean_linker_0, # of connection points: 2
#     Edge 15, Type (0, 0), BuildingBlock: MIFKUJ_clean_linker_0, # of connection points: 2
#     Edge 16, Type (0, 0), BuildingBlock: MIFKUJ_clean_linker_0, # of connection points: 2
#     Edge 17, Type (0, 0), BuildingBlock: MIFKUJ_clean_linker_0, # of connection points: 2
#     Edge 18, Type (0, 0), BuildingBlock: MIFKUJ_clean_linker_0, # of connection points: 2
#     Edge 19, Type (0, 0), BuildingBlock: MIFKUJ_clean_linker_0, # of connection points: 2
#     Edge 20, Type (0, 0), BuildingBlock: MIFKUJ_clean_linker_0, # of connection points: 2
#     Edge 21, Type (0, 0), BuildingBlock: MIFKUJ_clean_linker_0, # of connection points: 2
#     Edge 22, Type (0, 0), BuildingBlock: MIFKUJ_clean_linker_0, # of connection points: 2
#     Edge 23, Type (0, 0), BuildingBlock: MIFKUJ_clean_linker_0, # of connection points: 2
#     Edge 24, Type (0, 0), BuildingBlock: MIFKUJ_clean_linker_0, # of connection points: 2
#     Edge 25, Type (0, 0), BuildingBlock: MIFKUJ_clean_linker_0, # of connection points: 2
#     Edge 26, Type (0, 0), BuildingBlock: MIFKUJ_clean_linker_0, # of connection points: 2
# Relax obj value: 0.092
# Max RMSD: 0.157
# Mean RMSD: 0.157
data_MOF--net-afw--node1-GALJAG_clean_sbu_0--edge1-MIFKUJ_clean_linker_0
_symmetry_space_group_name_H-M    P1
_symmetry_Int_Tables_number       1
_symmetry_cell_setting            triclinic
loop_
_symmetry_equiv_pos_as_xyz
'x, y, z'
_cell_length_a     59.397993
_cell_length_b     59.399366
_cell_length_c     34.320301
_cell_angle_alpha  90.045642
_cell_angle_beta   89.969511
_cell_angle_gamma 120.01034
loop_
_atom_site_label
_atom_site_type_symbol
_atom_site_fract_x
_atom_site_fract_y
_atom_site_fract_z
_atom_type_partial_charge
In0 In 0.03019 0.21407 0.01652 0.0
O1 O 0.03057 0.23128 0.95706 0.0
O2 O 0.05581 0.25651 0.00132 0.0
C3 C 0.99047 0.16505 0.00914 0.0
C4 C 0.01016 0.23318 0.06817 0.0
C5 C 0.0702 0.2049 0.02062 0.0
O6 O -0.00189 0.18093 0.98105 0.0
O7 O 0.00292 0.17394 0.04046 0.0
O8 O 0.06017 0.20848 0.05079 0.0
O9 O 0.06039 0.2065 0.98894 0.0
C10 C 0.04743 0.25413 0.96691 0.0
O11 O 0.03133 0.23355 0.07461 0.0
O12 O -0.00073 0.22285 0.03634 0.0
In13 In 0.82297 0.84333 0.01792 0.0
O14 O 0.80698 0.8139 0.96784 0.0
O15 O 0.78319 0.82803 0.9911 0.0
C16 C 0.87279 0.85502 0.01233 0.0
C17 C 0.80345 0.81263 0.08115 0.0
C18 C 0.83199 0.89235 0.01166 0.0
O19 O 0.85632 0.84234 0.98606 0.0
O20 O 0.864 0.86157 0.04098 0.0
O21 O 0.82833 0.88098 0.04406 0.0
O22 O 0.83049 0.87877 0.98243 0.0
C23 C 0.78537 0.81317 0.96707 0.0
O24 O 0.7963 0.82856 0.0714 0.0
O25 O 0.82062 0.81266 0.0596 0.0
In26 In 0.19155 0.00375 0.03714 0.0
O27 O 0.20348 0.99009 0.09144 0.0
O28 O 0.21787 0.03061 0.08447 0.0
C29 C 0.14462 0.96156 0.02389 0.0
C30 C 0.22549 0.00065 0.98839 0.0
C31 C 0.18068 0.04258 0.03326 0.0
O32 O 0.15399 0.96828 0.0577 0.0
O33 O 0.1593 0.97562 0.99687 0.0
O34 O 0.2005 0.04409 0.01706 0.0
O35 O 0.16666 0.0217 0.05154 0.0
C36 C 0.21786 0.01279 0.10444 0.0
O37 O 0.21314 0.01197 0.97872 0.0
O38 O 0.22033 0.99074 0.02188 0.0
In39 In 0.68908 0.54728 0.3624 0.0
O40 O 0.67786 0.56851 0.31789 0.0
O41 O 0.71803 0.58207 0.32716 0.0
C42 C 0.64705 0.50012 0.35194 0.0
C43 C 0.68329 0.57376 0.42136 0.0
C44 C 0.72304 0.52984 0.36486 0.0
O45 O 0.65863 0.51532 0.32385 0.0
O46 O 0.65622 0.50911 0.3852 0.0
O47 O 0.71546 0.536 0.3954 0.0
O48 O 0.71429 0.53351 0.33351 0.0
C49 C 0.70108 0.5853 0.31007 0.0
O50 O 0.70532 0.57706 0.41199 0.0
O51 O 0.66446 0.55611 0.40266 0.0
In52 In 0.49332 0.17311 0.34325 0.0
O53 O 0.47238 0.13548 0.30772 0.0
O54 O 0.46408 0.16567 0.29567 0.0
C55 C 0.53918 0.17425 0.34446 0.0
C56 C 0.46413 0.14721 0.40546 0.0
C57 C 0.50922 0.22433 0.3391 0.0
O58 O 0.526 0.16943 0.31351 0.0
O59 O 0.5291 0.17826 0.37404 0.0
O60 O 0.49844 0.21091 0.36903 0.0
O61 O 0.51164 0.21185 0.31127 0.0
C62 C 0.459 0.14276 0.2886 0.0
O63 O 0.45614 0.15678 0.37986 0.0
O64 O 0.48698 0.15164 0.40033 0.0
In65 In 0.85408 0.33263 0.37551 0.0
O66 O 0.87233 0.32958 0.43249 0.0
O67 O 0.88573 0.36705 0.40786 0.0
C68 C 0.80889 0.28759 0.37044 0.0
C69 C 0.885 0.3253 0.32635 0.0
C70 C 0.83451 0.3646 0.37033 0.0
O71 O 0.81999 0.29677 0.40272 0.0
O72 O 0.82097 0.30084 0.34099 0.0
O73 O 0.85121 0.36566 0.34633 0.0
O74 O 0.82792 0.34756 0.39657 0.0
C75 C 0.88792 0.35377 0.43464 0.0
O76 O 0.87642 0.34038 0.31802 0.0
O77 O 0.87776 0.3141 0.35888 0.0
In78 In 0.34729 0.88051 0.66526 0.0
O79 O 0.33697 0.89525 0.6106 0.0
O80 O 0.37637 0.91476 0.62935 0.0
C81 C 0.30376 0.83369 0.67037 0.0
C82 C 0.34128 0.90972 0.7196 0.0
C83 C 0.38426 0.86681 0.66668 0.0
O84 O 0.3135 0.84436 0.63815 0.0
O85 O 0.31568 0.84689 0.69994 0.0
O86 O 0.38454 0.88351 0.68978 0.0
O87 O 0.36564 0.85743 0.64279 0.0
C88 C 0.3598 0.91388 0.60549 0.0
O89 O 0.35459 0.89888 0.72596 0.0
O90 O 0.33078 0.90533 0.68647 0.0
In91 In 0.17634 0.51352 0.66151 0.0
O92 O 0.15564 0.4898 0.6074 0.0
O93 O 0.13927 0.50977 0.63706 0.0
C94 C 0.22448 0.52014 0.65421 0.0
C95 C 0.152 0.47411 0.71206 0.0
C96 C 0.18723 0.56283 0.67143 0.0
O97 O 0.21135 0.51976 0.62504 0.0
O98 O 0.21323 0.51696 0.68653 0.0
O99 O 0.17813 0.54631 0.69868 0.0
O100 O 0.19091 0.55442 0.63967 0.0
C101 C 0.13729 0.49472 0.60969 0.0
O102 O 0.16027 0.49744 0.72215 0.0
O103 O 0.15637 0.47102 0.6771 0.0
In104 In 0.5461 0.704 0.65563 0.0
O105 O 0.56832 0.71939 0.71217 0.0
O106 O 0.56511 0.68464 0.68918 0.0
C107 C 0.49767 0.66243 0.65121 0.0
C108 C 0.57798 0.70749 0.59713 0.0
C109 C 0.53603 0.74339 0.66243 0.0
O110 O 0.51245 0.66626 0.67986 0.0
O111 O 0.50741 0.6794 0.62484 0.0
O112 O 0.54476 0.73932 0.63127 0.0
O113 O 0.53283 0.72792 0.68975 0.0
C114 C 0.57397 0.70166 0.71567 0.0
O115 O 0.58505 0.72461 0.62335 0.0
O116 O 0.55464 0.68951 0.59956 0.0
H117 H 0.13455 0.03903 0.05154 0.0
H118 H 0.12266 0.07277 0.04586 0.0
H119 H 0.19976 0.12687 0.00442 0.0
H120 H 0.21168 0.09287 0.00928 0.0
H121 H 0.17975 0.14725 0.06349 0.0
H122 H 0.15742 0.10483 0.94029 0.0
H123 H 0.13771 0.06828 0.8939 0.0
H124 H 0.06176 0.04626 0.93787 0.0
H125 H 0.08106 0.08234 0.98518 0.0
H126 H 0.09748 0.20137 0.95966 0.0
H127 H 0.12475 0.18139 0.95934 0.0
H128 H 0.11396 0.169 0.08345 0.0
H129 H 0.08701 0.18949 0.08403 0.0
H130 H 0.10738 0.13262 0.97556 0.0
H131 H 0.16416 0.16377 0.12231 0.0
H132 H 0.18603 0.20267 0.16416 0.0
H133 H 0.19736 0.25159 0.06544 0.0
H134 H 0.17591 0.21305 0.02289 0.0
C135 C 0.14899 0.0581 0.04126 0.0
C136 C 0.17399 0.06333 0.0307 0.0
C137 C 0.14217 0.07734 0.03804 0.0
C138 C 0.16034 0.10223 0.02465 0.0
C139 C 0.18553 0.10775 0.01486 0.0
C140 C 0.19224 0.08832 0.01748 0.0
C141 C 0.15254 0.12213 0.02018 0.0
C142 C 0.16402 0.14422 0.04418 0.0
C143 C 0.13243 0.11832 0.99433 0.0
C144 C 0.12073 0.09619 0.96654 0.0
C145 C 0.13654 0.09201 0.94043 0.0
C146 C 0.12544 0.07141 0.9139 0.0
C147 C 0.09851 0.05498 0.91292 0.0
C148 C 0.08262 0.05904 0.93861 0.0
C149 C 0.09364 0.07954 0.96534 0.0
C150 C 0.10137 0.19489 0.98703 0.0
C151 C 0.08995 0.19677 0.02184 0.0
C152 C 0.11694 0.18346 0.98679 0.0
C153 C 0.12137 0.17365 0.02132 0.0
C154 C 0.1111 0.17673 0.05651 0.0
C155 C 0.09561 0.18835 0.05681 0.0
C156 C 0.13402 0.15755 0.01971 0.0
C157 C 0.12332 0.13598 0.99464 0.0
C158 C 0.15509 0.16213 0.04414 0.0
C159 C 0.16821 0.18546 0.06947 0.0
C160 C 0.17142 0.18283 0.10949 0.0
C161 C 0.18372 0.20482 0.13335 0.0
C162 C 0.19301 0.22958 0.11749 0.0
C163 C 0.19007 0.2324 0.07771 0.0
C164 C 0.17779 0.21048 0.05372 0.0
H165 H 0.20252 0.24658 0.13601 0.0
H166 H 0.08995 0.03911 0.89222 0.0
H167 H 0.84596 0.92772 0.07041 0.0
H168 H 0.86535 0.97471 0.06422 0.0
H169 H 0.85541 0.96682 0.93942 0.0
H170 H 0.83674 0.91976 0.94542 0.0
H171 H 0.90277 0.00153 0.95547 0.0
H172 H 0.82057 0.98743 0.99831 0.0
H173 H 0.78144 0.97003 0.03965 0.0
H174 H 0.82856 0.01128 0.13829 0.0
H175 H 0.86802 0.02865 0.09771 0.0
H176 H 0.96284 0.13968 0.9439 0.0
H177 H 0.92859 0.09394 0.93878 0.0
H178 H 0.93546 0.08385 0.06184 0.0
H179 H 0.96941 0.12936 0.06721 0.0
H180 H 0.88451 0.05918 0.03793 0.0
H181 H 0.96624 0.06635 0.99712 0.0
H182 H 0.00564 0.08335 0.95638 0.0
H183 H 0.95836 0.05458 0.85362 0.0
H184 H 0.91867 0.03768 0.89378 0.0
C185 C 0.84745 0.93595 0.04172 0.0
C186 C 0.83998 0.92013 0.00838 0.0
C187 C 0.8584 0.96283 0.03821 0.0
C188 C 0.86165 0.97435 0.00135 0.0
C189 C 0.8531 0.95839 0.96815 0.0
C190 C 0.8424 0.93152 0.97162 0.0
C191 C 0.87646 0.00308 0.99732 0.0
C192 C 0.89832 0.01411 0.97278 0.0
C193 C 0.87102 0.01956 0.02041 0.0
C194 C 0.8473 0.00923 0.04496 0.0
C195 C 0.82262 0.99266 0.02888 0.0
C196 C 0.80037 0.98282 0.05217 0.0
C197 C 0.80252 0.98951 0.09158 0.0
C198 C 0.82692 0.00611 0.10776 0.0
C199 C 0.84924 0.01599 0.0846 0.0
C200 C 0.95687 0.12772 0.96987 0.0
C201 C 0.96891 0.13799 0.00588 0.0
C202 C 0.93734 0.10165 0.96691 0.0
C203 C 0.92964 0.08551 -0.0001 0.0
C204 C 0.94107 0.096 0.03606 0.0
C205 C 0.96058 0.12196 0.03902 0.0
C206 C 0.91088 0.05732 0.99675 0.0
C207 C 0.88843 0.04648 0.01998 0.0
C208 C 0.9157 0.04095 0.97246 0.0
C209 C 0.93953 0.05104 0.94837 0.0
C210 C 0.96427 0.06384 0.96581 0.0
C211 C 0.98664 0.07342 0.94283 0.0
C212 C 0.9845 0.07012 0.90242 0.0
C213 C 0.95998 0.05717 0.88492 0.0
C214 C 0.93755 0.04758 0.90776 0.0
H215 H 0.00185 0.07755 0.88469 0.0
H216 H 0.78527 0.98187 0.10957 0.0
H217 H 0.89602 0.839 0.95856 0.0
H218 H 0.94216 0.85145 0.95545 0.0
H219 H 0.95751 0.89927 0.05768 0.0
H220 H 0.91174 0.88693 0.06107 0.0
H221 H 0.99202 0.92473 0.99793 0.0
H222 H 0.9543 0.84255 0.06619 0.0
H223 H 0.92412 0.79551 0.07387 0.0
H224 H 0.95584 0.78016 0.97147 0.0
H225 H 0.98599 0.82718 0.96288 0.0
H226 H 0.10947 0.92781 0.07659 0.0
H227 H 0.06225 0.90211 0.06805 0.0
H228 H 0.07069 0.92544 0.94755 0.0
H229 H 0.11785 0.95087 0.95563 0.0
H230 H 0.02428 0.86248 0.0119 0.0
H231 H 0.03174 0.95259 0.94091 0.0
H232 H 0.06237 -0.00027 0.93662 0.0
H233 H 0.09061 -0.00083 0.05161 0.0
H234 H 0.05991 0.95209 0.05665 0.0
C235 C 0.90928 0.85212 0.98036 0.0
C236 C 0.90034 0.86203 0.01004 0.0
C237 C 0.93554 0.85913 0.97862 0.0
C238 C 0.95315 0.87622 0.0064 0.0
C239 C 0.94421 0.8861 0.03594 0.0
C240 C 0.91805 0.87897 0.03788 0.0
C241 C 0.98111 0.88446 0.00466 0.0
C242 C -0.001 0.91106 0.00065 0.0
C243 C 0.99022 0.86663 0.00841 0.0
C244 C 0.97219 0.83839 0.01365 0.0
C245 C 0.95468 0.82916 0.04512 0.0
C246 C 0.93761 0.8025 0.04968 0.0
C247 C 0.938 0.78486 0.02311 0.0
C248 C 0.95553 0.79385 0.99199 0.0
C249 C 0.97262 0.8205 0.98728 0.0
C250 C 0.10132 0.92679 0.04798 0.0
C251 C 0.11726 0.94161 0.01692 0.0
C252 C 0.07439 0.91199 0.0431 0.0
C253 C 0.06311 0.91211 0.00728 0.0
C254 C 0.07913 0.92515 0.9754 0.0
C255 C 0.10605 0.93972 0.98013 0.0
C256 C 0.03494 0.90264 0.00516 0.0
C257 C 0.01713 0.87597 0.00847 0.0
C258 C 0.02577 0.92037 0.00121 0.0
C259 C 0.04377 0.94882 0.99893 0.0
C260 C 0.04444 0.96258 0.9653 0.0
C261 C 0.06185 0.98931 0.96273 0.0
C262 C 0.07858 0.00249 0.99374 0.0
C263 C 0.07779 0.98897 0.02749 0.0
C264 C 0.0604 0.96226 0.0302 0.0
H265 H 0.0921 0.02317 0.99169 0.0
H266 H 0.92478 0.76423 0.02669 0.0
H267 H 0.85215 0.40921 0.32773 0.0
H268 H 0.83472 0.43895 0.32748 0.0
H269 H 0.775 0.38908 0.40866 0.0
H270 H 0.79245 0.35953 0.4094 0.0
H271 H 0.75616 0.40515 0.34695 0.0
H272 H 0.82445 0.44168 0.44243 0.0
H273 H 0.86923 0.45881 0.46641 0.0
H274 H 0.89746 0.51955 0.38072 0.0
H275 H 0.85287 0.50253 0.35584 0.0
H276 H 0.7446 0.51963 0.42808 0.0
H277 H 0.76549 0.49296 0.42935 0.0
H278 H 0.75663 0.48317 0.30474 0.0
H279 H 0.73597 0.50985 0.30315 0.0
H280 H 0.80944 0.49667 0.39112 0.0
H281 H 0.73537 0.41704 0.28752 0.0
H282 H 0.68963 0.39802 0.26692 0.0
H283 H 0.6712 0.4217 0.37486 0.0
H284 H 0.71668 0.44034 0.39651 0.0
C285 C 0.83527 0.40459 0.34538 0.0
C286 C 0.82368 0.38214 0.36866 0.0
C287 C 0.82541 0.4216 0.34533 0.0
C288 C 0.80371 0.41625 0.36827 0.0
C289 C 0.79179 0.39355 0.39083 0.0
C290 C 0.80181 0.37674 0.39128 0.0
C291 C 0.7934 0.43433 0.369 0.0
C292 C 0.76782 0.4252 0.35643 0.0
C293 C 0.80856 0.46032 0.38197 0.0
C294 C 0.83536 0.47067 0.39702 0.0
C295 C 0.84024 0.45856 0.42848 0.0
C296 C 0.86558 0.46827 0.44228 0.0
C297 C 0.88619 0.49021 0.42503 0.0
C298 C 0.88148 0.50253 0.39402 0.0
C299 C 0.85618 0.49287 0.38007 0.0
C300 C 0.74748 0.51212 0.40092 0.0
C301 C 0.73854 0.51669 0.36556 0.0
C302 C 0.75942 0.49693 0.40168 0.0
C303 C 0.76226 0.48587 0.3672 0.0
C304 C 0.75433 0.49132 0.3317 0.0
C305 C 0.74262 0.50664 0.33086 0.0
C306 C 0.77233 0.4676 0.36843 0.0
C307 C 0.79784 0.47669 0.38137 0.0
C308 C 0.757 0.44145 0.3561 0.0
C309 C 0.72956 0.4304 0.34341 0.0
C310 C 0.72155 0.41815 0.3069 0.0
C311 C 0.69567 0.4074 0.29506 0.0
C312 C 0.67756 0.40874 0.31951 0.0
C313 C 0.68528 0.42077 0.3559 0.0
C314 C 0.71113 0.43146 0.36795 0.0
H315 H 0.65756 0.40039 0.31027 0.0
H316 H 0.90579 0.49771 0.43576 0.0
H317 H 0.53108 0.25632 0.27665 0.0
H318 H 0.55011 0.30352 0.27454 0.0
H319 H 0.52985 0.30347 0.39533 0.0
H320 H 0.51028 0.25614 0.39738 0.0
H321 H 0.52066 0.33602 0.35503 0.0
H322 H 0.5912 0.31952 0.3676 0.0
H323 H 0.61976 0.30177 0.35169 0.0
H324 H 0.63842 0.34128 0.24154 0.0
H325 H 0.60954 0.35885 0.25644 0.0
H326 H 0.61627 0.46583 0.40757 0.0
H327 H 0.58705 0.41906 0.3998 0.0
H328 H 0.60261 0.42598 0.2763 0.0
H329 H 0.6318 0.47287 0.28382 0.0
H330 H 0.61246 0.39039 0.31341 0.0
H331 H 0.54351 0.40983 0.30622 0.0
H332 H 0.51771 0.42962 0.32779 0.0
H333 H 0.49918 0.38639 0.43464 0.0
H334 H 0.52518 0.36661 0.41397 0.0
C335 C 0.53052 0.26635 0.30268 0.0
C336 C 0.51934 0.2526 0.33725 0.0
C337 C 0.5415 0.29333 0.30148 0.0
C338 C 0.54174 0.30705 0.33494 0.0
C339 C 0.5299 0.29326 0.36918 0.0
C340 C 0.5188 0.26625 0.37035 0.0
C341 C 0.55487 0.33583 0.33452 0.0
C342 C 0.54081 0.34792 0.34624 0.0
C343 C 0.58106 0.35136 0.32243 0.0
C344 C 0.59784 0.34016 0.31289 0.0
C345 C 0.60108 0.32412 0.33974 0.0
C346 C 0.6174 0.31415 0.33095 0.0
C347 C 0.63081 0.3203 0.29555 0.0
C348 C 0.62793 0.33644 0.26888 0.0
C349 C 0.61156 0.34638 0.27746 0.0
C350 C 0.61302 0.45747 0.37863 0.0
C351 C 0.62637 0.47292 0.34631 0.0
C352 C 0.59625 0.43079 0.37422 0.0
C353 C 0.59265 0.41914 0.33746 0.0
C354 C 0.6051 0.43469 0.30487 0.0
C355 C 0.62169 0.46144 0.3092 0.0
C356 C 0.57831 0.39049 0.33393 0.0
C357 C 0.59222 0.37844 0.32167 0.0
C358 C 0.55223 0.3751 0.34619 0.0
C359 C 0.53648 0.38689 0.35865 0.0
C360 C 0.53411 0.4047 0.33446 0.0
C361 C 0.51941 0.41589 0.3465 0.0
C362 C 0.50686 0.40931 0.3826 0.0
C363 C 0.50893 0.39148 0.4067 0.0
C364 C 0.52362 0.38025 0.3948 0.0
H365 H 0.49548 0.41799 0.39187 0.0
H366 H 0.64349 0.31262 0.28886 0.0
H367 H 0.5699 0.17563 0.2837 0.0
H368 H 0.61536 0.18593 0.28759 0.0
H369 H 0.61216 0.18878 0.41299 0.0
H370 H 0.56714 0.17885 0.40932 0.0
H371 H 0.65136 0.23287 0.38276 0.0
H372 H 0.61721 0.14077 0.36797 0.0
H373 H 0.59203 0.09809 0.3359 0.0
H374 H 0.63898 0.12812 0.23307 0.0
H375 H 0.66422 0.17111 0.26433 0.0
H376 H 0.77564 0.261 0.4299 0.0
H377 H 0.72869 0.23185 0.42455 0.0
H378 H 0.73464 0.23555 0.29922 0.0
H379 H 0.78163 0.26462 0.30427 0.0
H380 H 0.69424 0.1864 0.32814 0.0
H381 H 0.72507 0.27803 0.33809 0.0
H382 H 0.75073 0.32172 0.36697 0.0
H383 H 0.70948 0.29353 0.47497 0.0
H384 H 0.68387 0.24953 0.44687 0.0
C385 C 0.57881 0.17799 0.31206 0.0
C386 C 0.56514 0.17676 0.34617 0.0
C387 C 0.6047 0.18376 0.31426 0.0
C388 C 0.61709 0.18814 0.35061 0.0
C389 C 0.60297 0.18556 0.38467 0.0
C390 C 0.57726 0.17991 0.3825 0.0
C391 C 0.64542 0.19823 0.35332 0.0
C392 C 0.66061 0.22243 0.37142 0.0
C393 C 0.65759 0.18508 0.3372 0.0
C394 C 0.64244 0.15924 0.31837 0.0
C395 C 0.62202 0.13835 0.33839 0.0
C396 C 0.60777 0.11408 0.32038 0.0
C397 C 0.61386 0.11042 0.28244 0.0
C398 C 0.63426 0.131 0.26245 0.0
C399 C 0.64856 0.15531 0.28031 0.0
C400 C 0.76708 0.25497 0.40122 0.0
C401 C 0.78216 0.26544 0.3675 0.0
C402 C 0.74028 0.23831 0.39822 0.0
C403 C 0.72826 0.23195 0.36149 0.0
C404 C 0.74361 0.24028 0.32779 0.0
C405 C 0.77041 0.25701 0.33076 0.0
C406 C 0.6998 0.22057 0.35843 0.0
C407 C 0.68477 0.19651 0.33987 0.0
C408 C 0.68763 0.23393 0.37365 0.0
C409 C 0.70277 0.26043 0.39053 0.0
C410 C 0.72163 0.2811 0.3681 0.0
C411 C 0.73614 0.30592 0.38431 0.0
C412 C 0.73179 0.31039 0.42282 0.0
C413 C 0.71286 0.29004 0.44516 0.0
C414 C 0.69834 0.26515 0.42911 0.0
H415 H 0.74302 0.32962 0.43531 0.0
H416 H 0.6028 0.09161 0.26855 0.0
H417 H 0.3818 0.82517 0.62969 0.0
H418 H 0.41266 0.80943 0.63383 0.0
H419 H 0.46122 0.87288 0.71069 0.0
H420 H 0.43015 0.88868 0.70704 0.0
H421 H 0.48895 0.86339 0.65032 0.0
H422 H 0.42655 0.81791 0.75103 0.0
H423 H 0.3835 0.79066 0.78106 0.0
H424 H 0.36874 0.72795 0.7036 0.0
H425 H 0.41152 0.75495 0.67265 0.0
H426 H 0.52196 0.75824 0.72864 0.0
H427 H 0.50279 0.78608 0.73418 0.0
H428 H 0.51182 0.80027 0.61031 0.0
H429 H 0.53152 0.7727 0.6047 0.0
H430 H 0.45832 0.7748 0.70222 0.0
H431 H 0.51381 0.85815 0.59076 0.0
H432 H 0.55841 0.88521 0.56565 0.0
H433 H 0.58937 0.87349 0.67182 0.0
H434 H 0.545 0.84666 0.69778 0.0
C435 C 0.3991 0.83587 0.64733 0.0
C436 C 0.40357 0.85811 0.66814 0.0
C437 C 0.41667 0.82682 0.64972 0.0
C438 C 0.43909 0.83993 0.67272 0.0
C439 C 0.44399 0.86253 0.69279 0.0
C440 C 0.42622 0.87145 0.69079 0.0
C441 C 0.45696 0.82948 0.67633 0.0
C442 C 0.48237 0.84406 0.66178 0.0
C443 C 0.44839 0.80444 0.69183 0.0
C444 C 0.42219 0.78855 0.70932 0.0
C445 C 0.41399 0.79843 0.74004 0.0
C446 C 0.38966 0.78299 0.75732 0.0
C447 C 0.37344 0.75757 0.7443 0.0
C448 C 0.38136 0.74763 0.7137 0.0
C449 C 0.40564 0.76299 0.69628 0.0
C450 C 0.52032 0.76768 0.70267 0.0
C451 C 0.52801 0.76313 0.66616 0.0
C452 C 0.50936 0.78358 0.7059 0.0
C453 C 0.50583 0.79523 0.67269 0.0
C454 C 0.51465 0.79174 0.63641 0.0
C455 C 0.52579 0.7759 0.6332 0.0
C456 C 0.49028 0.80841 0.67547 0.0
C457 C 0.46512 0.79423 0.69103 0.0
C458 C 0.49923 0.83386 0.66123 0.0
C459 C 0.52603 0.85019 0.64606 0.0
C460 C 0.53013 0.86143 0.60882 0.0
C461 C 0.55538 0.87672 0.59442 0.0
C462 C 0.5767 0.881 0.61708 0.0
C463 C 0.57283 0.87007 0.65423 0.0
C464 C 0.54763 0.85478 0.66877 0.0
H465 H 0.59623 0.89283 0.60588 0.0
H466 H 0.35476 0.74551 0.758 0.0
H467 H 0.27715 0.80801 0.73573 0.0
H468 H 0.2472 0.76125 0.7423 0.0
H469 H 0.25279 0.75151 0.61871 0.0
H470 H 0.28203 0.79826 0.6118 0.0
H471 H 0.20489 0.71737 0.64518 0.0
H472 H 0.29425 0.7474 0.68343 0.0
H473 H 0.33342 0.77493 0.72251 0.0
H474 H 0.29091 0.74007 0.8276 0.0
H475 H 0.25128 0.71276 0.78911 0.0
H476 H 0.20223 0.59945 0.61476 0.0
H477 H 0.21291 0.64459 0.6216 0.0
H478 H 0.19611 0.63283 0.74462 0.0
H479 H 0.18537 0.58736 0.73797 0.0
H480 H 0.24283 0.67666 0.72886 0.0
H481 H 0.15512 0.64018 0.68689 0.0
H482 H 0.11673 0.61347 0.64589 0.0
H483 H 0.15677 0.65984 0.54606 0.0
H484 H 0.19557 0.6866 0.58631 0.0
C485 C 0.27147 0.79596 0.70985 0.0
C486 C 0.28221 0.80665 0.67335 0.0
C487 C 0.25439 0.76927 0.71364 0.0
C488 C 0.24825 0.75286 0.68113 0.0
C489 C 0.25734 0.76381 0.64421 0.0
C490 C 0.27415 0.79052 0.64032 0.0
C491 C 0.23524 0.72427 0.6859 0.0
C492 C 0.21312 0.70842 0.66347 0.0
C493 C 0.24571 0.71262 0.71045 0.0
C494 C 0.26975 0.72829 0.73346 0.0
C495 C 0.29324 0.7457 0.71489 0.0
C496 C 0.31549 0.76131 0.73693 0.0
C497 C 0.31462 0.75933 0.77753 0.0
C498 C 0.29152 0.74164 0.79616 0.0
C499 C 0.26915 0.72612 0.77425 0.0
C500 C 0.20065 0.60639 0.64326 0.0
C501 C 0.193 0.58991 0.67586 0.0
C502 C 0.20658 0.63215 0.64707 0.0
C503 C 0.20495 0.64193 0.68351 0.0
C504 C 0.1973 0.62555 0.7162 0.0
C505 C 0.1912 0.59965 0.71236 0.0
C506 C 0.21282 0.66974 0.68739 0.0
C507 C 0.23411 0.68548 0.71134 0.0
C508 C 0.2017 0.68125 0.66397 0.0
C509 C 0.17833 0.66533 0.63963 0.0
C510 C 0.15582 0.64458 0.65614 0.0
C511 C 0.13397 0.62944 0.63303 0.0
C512 C 0.13433 0.63493 0.59339 0.0
C513 C 0.15652 0.65561 0.57678 0.0
C514 C 0.17844 0.6708 0.59975 0.0
H515 H 0.11739 0.62319 0.57554 0.0
H516 H 0.33187 0.77142 0.79456 0.0
H517 H 0.25706 0.53881 0.59145 0.0
H518 H 0.30374 0.55435 0.59063 0.0
H519 H 0.29971 0.52975 0.71 0.0
H520 H 0.25324 0.51489 0.71126 0.0
H521 H 0.33582 0.57785 0.70292 0.0
H522 H 0.31398 0.50025 0.63357 0.0
H523 H 0.29302 0.46654 0.58298 0.0
H524 H 0.33443 0.52322 0.494 0.0
H525 H 0.35538 0.55737 0.54402 0.0
H526 H 0.47116 0.62561 0.70683 0.0
H527 H 0.42484 0.59286 0.70677 0.0
H528 H 0.41673 0.61802 0.59238 0.0
H529 H 0.46297 0.65058 0.59207 0.0
H530 H 0.38726 0.56454 0.60093 0.0
H531 H 0.40339 0.6424 0.67071 0.0
H532 H 0.42408 0.67609 0.72146 0.0
H533 H 0.39257 0.61739 0.81032 0.0
H534 H 0.37196 0.58332 0.76 0.0
C535 C 0.26606 0.53628 0.61724 0.0
C536 C 0.25163 0.52589 0.65152 0.0
C537 C 0.29272 0.54502 0.6167 0.0
C538 C 0.30524 0.54312 0.65024 0.0
C539 C 0.29049 0.53148 0.68383 0.0
C540 C 0.26395 0.523 0.6845 0.0
C541 C 0.33401 0.55592 0.65171 0.0
C542 C 0.347 0.57441 0.6811 0.0
C543 C 0.34867 0.5519 0.62282 0.0
C544 C 0.33611 0.53143 0.59258 0.0
C545 C 0.31847 0.50558 0.6032 0.0
C546 C 0.30662 0.48638 0.57462 0.0
C547 C 0.31235 0.49274 0.5353 0.0
C548 C 0.33 0.51832 0.52447 0.0
C549 C 0.34189 0.5376 0.55294 0.0
C550 C 0.45957 0.62388 0.68145 0.0
C551 C 0.47057 0.64082 0.64964 0.0
C552 C 0.43315 0.60519 0.68146 0.0
C553 C 0.41735 0.60325 0.64974 0.0
C554 C 0.42861 0.6192 0.61711 0.0
C555 C 0.45499 0.63789 0.61709 0.0
C556 C 0.38876 0.58643 0.65186 0.0
C557 C 0.37591 0.56741 0.6231 0.0
C558 C 0.37412 0.58984 0.68138 0.0
C559 C 0.38641 0.61032 0.71161 0.0
C560 C 0.40105 0.63668 0.70106 0.0
C561 C 0.41273 0.65583 0.72974 0.0
C562 C 0.40971 0.64888 0.76908 0.0
C563 C 0.39494 0.62275 0.77983 0.0
C564 C 0.38324 0.60351 0.75125 0.0
H565 H 0.41877 0.66373 0.79125 0.0
H566 H 0.30316 0.47785 0.51322 0.0
H567 H 0.03906 0.25369 0.88861 0.0
H568 H 0.05466 0.2914 0.8453 0.0
H569 H 0.09104 0.34279 0.94293 0.0
H570 H 0.07578 0.30528 0.98627 0.0
H571 H 0.06239 0.35773 0.89244 0.0
H572 H 0.12813 0.33251 0.88723 0.0
H573 H 0.14389 0.30158 0.87745 0.0
H574 H 0.1152 0.28794 0.75996 0.0
H575 H 0.09893 0.31853 0.76925 0.0
H576 H 0.14824 0.47491 0.7915 0.0
H577 H 0.12776 0.43729 0.83523 0.0
H578 H 0.10419 0.38576 0.73594 0.0
H579 H 0.12522 0.42311 0.69246 0.0
H580 H 0.1252 0.37033 0.78762 0.0
H581 H 0.06034 0.39553 0.79011 0.0
H582 H 0.04285 0.42513 0.79846 0.0
H583 H 0.06722 0.43742 0.91812 0.0
H584 H 0.08518 0.40815 0.91034 0.0
C585 C 0.05035 0.27303 0.90079 0.0
C586 C 0.05639 0.27661 0.94068 0.0
C587 C 0.0592 0.29449 0.8761 0.0
C588 C 0.07402 0.31977 0.89105 0.0
C589 C 0.07958 0.32339 0.93097 0.0
C590 C 0.071 0.30197 0.95557 0.0
C591 C 0.08452 0.34248 0.86484 0.0
C592 C 0.07632 0.36072 0.86971 0.0
C593 C 0.10217 0.34586 0.83476 0.0
C594 C 0.11208 0.32759 0.82907 0.0
C595 C 0.12499 0.32275 0.85942 0.0
C596 C 0.13405 0.30531 0.85394 0.0
C597 C 0.13048 0.29275 0.81814 0.0
C598 C 0.11791 0.29766 0.7877 0.0
C599 C 0.10878 0.31505 0.79304 0.0
C600 C 0.13852 0.45554 0.77912 0.0
C601 C 0.13842 0.45187 0.7387 0.0
C602 C 0.12672 0.43408 0.80405 0.0
C603 C 0.1143 0.4087 0.78881 0.0
C604 C 0.11374 0.40514 0.74835 0.0
C605 C 0.12575 0.4265 0.72355 0.0
C606 C 0.10303 0.38576 0.81488 0.0
C607 C 0.11116 0.36743 0.81013 0.0
C608 C 0.08509 0.38219 0.84474 0.0
C609 C 0.07435 0.39985 0.84952 0.0
C610 C 0.06217 0.40472 0.81811 0.0
C611 C 0.05213 0.4214 0.82276 0.0
C612 C 0.05399 0.4332 0.85877 0.0
C613 C 0.06583 0.42829 0.89023 0.0
C614 C 0.07593 0.41164 0.88572 0.0
H615 H 0.04619 0.44611 0.86232 0.0
H616 H 0.13751 0.27926 0.81395 0.0
H617 H 0.78317 0.77629 0.91658 0.0
H618 H 0.74605 0.74628 0.87613 0.0
H619 H 0.7019 0.78065 0.91971 0.0
H620 H 0.73848 0.81018 0.9603 0.0
H621 H 0.673 0.72868 0.91929 0.0
H622 H 0.73229 0.79669 0.83054 0.0
H623 H 0.77385 0.82267 0.79581 0.0
H624 H 0.7664 0.75319 0.74492 0.0
H625 H 0.72493 0.72676 0.7798 0.0
H626 H 0.58745 0.73021 0.78211 0.0
H627 H 0.62134 0.73656 0.8283 0.0
H628 H 0.63491 0.68188 0.76444 0.0
H629 H 0.60058 0.67519 0.71807 0.0
H630 H 0.67948 0.73117 0.77509 0.0
H631 H 0.61378 0.6653 0.85236 0.0
H632 H 0.57134 0.64094 0.88525 0.0
H633 H 0.58978 0.70737 0.95661 0.0
H634 H 0.63218 0.7323 0.92375 0.0
C635 C 0.76553 0.77742 0.91738 0.0
C636 C 0.76371 0.79561 0.94145 0.0
C637 C 0.74437 0.76028 0.89435 0.0
C638 C 0.72123 0.76125 0.89495 0.0
C639 C 0.71949 0.77941 0.91903 0.0
C640 C 0.74049 0.79641 0.94202 0.0
C641 C 0.69878 0.74405 0.87 0.0
C642 C 0.67438 0.72915 0.88775 0.0
C643 C 0.70078 0.74387 0.82893 0.0
C644 C 0.72576 0.75973 0.80824 0.0
C645 C 0.73966 0.78694 0.81226 0.0
C646 C 0.76316 0.80175 0.79249 0.0
C647 C 0.77282 0.78958 0.76831 0.0
C648 C 0.75895 0.76258 0.76377 0.0
C649 C 0.73545 0.74768 0.78353 0.0
C650 C 0.59728 0.71914 0.77833 0.0
C651 C 0.59158 0.70236 0.74642 0.0
C652 C 0.61653 0.72267 0.80482 0.0
C653 C 0.63055 0.70963 0.79974 0.0
C654 C 0.62423 0.69206 0.76877 0.0
C655 C 0.60465 0.68823 0.74245 0.0
C656 C 0.65358 0.71695 0.82438 0.0
C657 C 0.67814 0.72996 0.80664 0.0
C658 C 0.65169 0.71559 0.86543 0.0
C659 C 0.62619 0.70071 0.88544 0.0
C660 C 0.60874 0.67479 0.87487 0.0
C661 C 0.58468 0.66087 0.89355 0.0
C662 C 0.57786 0.67261 0.92298 0.0
C663 C 0.5951 0.6983 0.93382 0.0
C664 C 0.61918 0.71232 0.91522 0.0
H665 H 0.55923 0.66179 0.93741 0.0
H666 H 0.791 0.80108 0.753 0.0
H667 H 0.31954 0.93994 0.70787 0.0
H668 H 0.30891 0.96294 0.75682 0.0
H669 H 0.34364 0.93887 0.84597 0.0
H670 H 0.35422 0.91554 0.79689 0.0
H671 H 0.29482 0.92644 0.86401 0.0
H672 H 0.37137 0.00364 0.82325 0.0
H673 H 0.40247 0.03603 0.77699 0.0
H674 H 0.34307 0.05085 0.73485 0.0
H675 H 0.31158 0.01854 0.78087 0.0
H676 H 0.26112 0.98704 0.00905 0.0
H677 H 0.28903 0.97889 0.96607 0.0
H678 H 0.25921 8e-05 0.86657 0.0
H679 H 0.23171 0.00905 0.90977 0.0
H680 H 0.31055 0.01667 0.85808 0.0
H681 H 0.23329 0.93663 0.8931 0.0
H682 H 0.2016 0.90423 0.93879 0.0
H683 H 0.26183 0.89381 0.98954 0.0
H684 H 0.29396 0.92643 0.94446 0.0
C685 C 0.32521 0.93981 0.73783 0.0
C686 C 0.33741 0.92571 0.74874 0.0
C687 C 0.31936 0.95319 0.76571 0.0
C688 C 0.32566 0.95277 0.80498 0.0
C689 C 0.33872 0.9395 0.81575 0.0
C690 C 0.34471 0.92618 0.78777 0.0
C691 C 0.31575 0.9635 0.83505 0.0
C692 C 0.29879 0.94637 0.8633 0.0
C693 C 0.3203 0.98924 0.83332 0.0
C694 C 0.33909 0.00856 0.80538 0.0
C695 C 0.3649 0.0137 0.80397 0.0
C696 C 0.38262 0.03213 0.77792 0.0
C697 C 0.37475 0.04549 0.753 0.0
C698 C 0.34914 0.04051 0.7542 0.0
C699 C 0.33138 0.02222 0.78037 0.0
C700 C 0.26073 0.99025 0.97805 0.0
C701 C 0.244 -0.00172 0.96257 0.0
C702 C 0.27669 0.98561 0.95357 0.0
C703 C 0.27579 0.98838 0.91311 0.0
C704 C 0.26011 0.99773 0.89774 0.0
C705 C 0.24435 0.00274 0.92235 0.0
C706 C 0.28957 0.97954 0.88676 0.0
C707 C 0.30703 0.99691 0.85914 0.0
C708 C 0.28539 0.95393 0.88882 0.0
C709 C 0.26606 0.93415 0.9157 0.0
C710 C 0.2398 0.92755 0.91418 0.0
C711 C 0.22176 0.90914 0.93994 0.0
C712 C 0.22971 0.89703 0.96712 0.0
C713 C 0.25571 0.90324 0.96852 0.0
C714 C 0.27384 0.92167 0.94286 0.0
H715 H 0.21571 0.88278 0.98705 0.0
H716 H 0.38848 0.05967 0.73273 0.0
H717 H 0.42585 0.15403 0.25059 0.0
H718 H 0.38344 0.12323 0.22371 0.0
H719 H 0.39763 0.06004 0.24637 0.0
H720 H 0.44021 0.09084 0.27457 0.0
H721 H 0.36998 0.05936 0.16996 0.0
H722 H 0.36397 0.06096 0.30763 0.0
H723 H 0.37333 0.08132 0.3726 0.0
H724 H 0.336 0.12459 0.3404 0.0
H725 H 0.32668 0.10455 0.27501 0.0
H726 H 0.23461 0.98105 0.13397 0.0
H727 H 0.27395 0.99477 0.17294 0.0
H728 H 0.28409 0.07171 0.1829 0.0
H729 H 0.245 0.05821 0.14398 0.0
H730 H 0.29863 0.05573 0.2503 0.0
H731 H 0.31076 0.05777 0.10893 0.0
H732 H 0.30209 0.03707 0.04412 0.0
H733 H 0.32816 0.98552 0.08441 0.0
H734 H 0.33653 0.00562 0.1497 0.0
C735 C 0.42027 0.13367 0.24919 0.0
C736 C 0.43624 0.12481 0.26502 0.0
C737 C 0.39602 0.11611 0.23386 0.0
C738 C 0.38739 0.08943 0.2337 0.0
C739 C 0.40403 0.08061 0.24657 0.0
C740 C 0.4283 0.09821 0.26251 0.0
C741 C 0.36003 0.07105 0.22361 0.0
C742 C 0.35427 0.05793 0.18789 0.0
C743 C 0.33969 0.06941 0.24709 0.0
C744 C 0.34483 0.08138 0.28642 0.0
C745 C 0.35794 0.07494 0.3144 0.0
C746 C 0.36321 0.0864 0.35129 0.0
C747 C 0.35535 0.10433 0.36064 0.0
C748 C 0.3421 0.11071 0.33312 0.0
C749 C 0.33677 0.09925 0.29614 0.0
C750 C 0.24477 0.00064 0.14558 0.0
C751 C 0.23699 0.01869 0.13569 0.0
C752 C 0.26728 0.00845 0.16762 0.0
C753 C 0.28207 0.03433 0.18018 0.0
C754 C 0.27295 0.05166 0.17335 0.0
C755 C 0.25065 0.04395 0.15107 0.0
C756 C 0.30853 0.04452 0.19611 0.0
C757 C 0.31418 0.05637 0.23287 0.0
C758 C 0.3287 0.04478 0.17366 0.0
C759 C 0.32397 0.03297 0.13429 0.0
C760 C 0.31445 0.04189 0.10404 0.0
C761 C 0.30961 0.03028 0.06722 0.0
C762 C 0.31453 0.00996 0.06019 0.0
C763 C 0.32432 0.00123 0.08993 0.0
C764 C 0.3291 0.01271 0.12685 0.0
H765 H 0.31084 0.00104 0.03167 0.0
H766 H 0.35947 0.11323 0.38922 0.0
H767 H 0.96444 0.2325 0.05984 0.0
H768 H 0.94594 0.25183 0.10259 0.0
H769 H 0.01192 0.27884 0.17949 0.0
H770 H 0.03081 0.25961 0.13638 0.0
H771 H 0.93098 0.24067 0.17685 0.0
H772 H 0.02243 0.33722 0.22004 0.0
H773 H 0.06543 0.36849 0.19299 0.0
H774 H 0.03566 0.346 0.07683 0.0
H775 H 0.99242 0.31489 0.10317 0.0
H776 H 0.90513 0.29397 0.3403 0.0
H777 H 0.92946 0.28226 0.29549 0.0
H778 H 0.9267 0.33298 0.20815 0.0
H779 H 0.90219 0.34496 0.25315 0.0
H780 H 0.97581 0.33409 0.21315 0.0
H781 H 0.8843 0.27324 0.20008 0.0
H782 H 0.84035 0.24266 0.22462 0.0
H783 H 0.86824 0.19461 0.27345 0.0
H784 H 0.91247 0.22514 0.2497 0.0
C785 C 0.97506 0.24255 0.08584 0.0
C786 C -0.00095 0.24452 0.09486 0.0
C787 C 0.96444 0.25357 0.11022 0.0
C788 C 0.97763 0.26689 0.14401 0.0
C789 C 0.0016 0.26888 0.15326 0.0
C790 C 0.01227 0.25777 0.1288 0.0
C791 C 0.96571 0.27794 0.16993 0.0
C792 C 0.94083 0.26109 0.18477 0.0
C793 C 0.97844 0.30465 0.17982 0.0
C794 C 0.00427 0.32353 0.16363 0.0
C795 C 0.02505 0.33902 0.18873 0.0
C796 C 0.04946 0.35671 0.17352 0.0
C797 C 0.0533 0.35916 0.13322 0.0
C798 C 0.0327 0.344 0.10804 0.0
C799 C 0.00824 0.32632 0.1231 0.0
C800 C 0.90987 0.30286 0.3117 0.0
C801 C 0.9015 0.32014 0.29998 0.0
C802 C 0.92383 0.29618 0.28621 0.0
C803 C 0.92961 0.30659 0.24852 0.0
C804 C 0.92238 0.32479 0.23722 0.0
C805 C 0.9083 0.33148 0.26279 0.0
C806 C 0.94132 0.29671 0.22021 0.0
C807 C 0.96609 0.3137 0.2051 0.0
C808 C 0.92838 0.27017 0.20951 0.0
C809 C 0.90174 0.25159 0.2234 0.0
C810 C 0.8811 0.25625 0.21629 0.0
C811 C 0.85614 0.23891 0.23002 0.0
C812 C 0.85152 0.21673 0.25066 0.0
C813 C 0.87185 0.21181 0.2575 0.0
C814 C 0.89687 0.22911 0.24388 0.0
H815 H 0.83218 0.20333 0.26127 0.0
H816 H 0.07221 0.37285 0.12151 0.0
H817 H 0.66926 0.60338 0.28547 0.0
H818 H 0.68228 0.64467 0.25241 0.0
H819 H 0.76164 0.66087 0.24868 0.0
H820 H 0.74888 0.62005 0.28234 0.0
H821 H 0.75976 0.70203 0.27389 0.0
H822 H 0.72116 0.64042 0.16741 0.0
H823 H 0.68577 0.6023 0.13417 0.0
H824 H 0.63741 0.63694 0.14027 0.0
H825 H 0.67245 0.67515 0.17399 0.0
H826 H 0.82314 0.78583 0.11763 0.0
H827 H 0.80116 0.75054 0.16452 0.0
H828 H 0.73417 0.76074 0.16261 0.0
H829 H 0.75635 0.79654 0.11576 0.0
H830 H 0.72309 0.70929 0.14781 0.0
H831 H 0.7661 0.77481 0.24353 0.0
H832 H 0.80271 0.81308 0.27443 0.0
H833 H 0.84394 0.77128 0.28703 0.0
H834 H 0.80774 0.73285 0.25567 0.0
C835 C 0.6894 0.61561 0.27705 0.0
C836 C 0.70807 0.60851 0.28626 0.0
C837 C 0.69681 0.6392 0.25829 0.0
C838 C 0.72293 0.65583 0.24809 0.0
C839 C 0.74142 0.64841 0.25655 0.0
C840 C 0.73408 0.62501 0.27553 0.0
C841 C 0.7314 0.68121 0.22911 0.0
C842 C 0.75182 0.70361 0.24623 0.0
C843 C 0.72031 0.68342 0.19385 0.0
C844 C 0.69928 0.66047 0.17363 0.0
C845 C 0.7029 0.6398 0.16194 0.0
C846 C 0.68293 0.61821 0.14296 0.0
C847 C 0.65933 0.61716 0.13523 0.0
C848 C 0.65568 0.63775 0.14636 0.0
C849 C 0.67559 0.65938 0.16538 0.0
C850 C 0.80392 0.78088 0.12773 0.0
C851 C 0.79139 0.79382 0.11311 0.0
C852 C 0.79143 0.7608 0.15459 0.0
C853 C 0.76612 0.75316 0.16708 0.0
C854 C 0.75376 0.76649 0.15337 0.0
C855 C 0.76646 0.78693 0.12682 0.0
C856 C 0.75215 0.72981 0.19181 0.0
C857 C 0.73065 0.70781 0.17589 0.0
C858 C 0.76236 0.72791 0.22803 0.0
C859 C 0.78421 0.75096 0.24704 0.0
C860 C 0.78304 0.77382 0.25262 0.0
C861 C 0.80372 0.79554 0.27027 0.0
C862 C 0.82565 0.79462 0.28264 0.0
C863 C 0.82693 0.77196 0.27744 0.0
C864 C 0.80631 0.75018 0.25978 0.0
H865 H 0.84163 0.81146 0.2963 0.0
H866 H 0.64389 0.60043 0.12053 0.0
H867 H 0.11717 0.44721 0.57547 0.0
H868 H 0.07366 0.42133 0.5478 0.0
H869 H 0.06032 0.4859 0.56325 0.0
H870 H 0.10328 0.51124 0.59293 0.0
H871 H 0.02127 0.44546 0.58993 0.0
H872 H 0.06922 0.46366 0.47063 0.0
H873 H 0.10248 0.46572 0.42541 0.0
H874 H 0.06864 0.38282 0.43204 0.0
H875 H 0.03535 0.3803 0.4777 0.0
H876 H 0.9143 0.40407 0.45821 0.0
H877 H 0.95557 0.42559 0.49362 0.0
H878 H 0.95272 0.352 0.50685 0.0
H879 H 0.91101 0.3302 0.47211 0.0
H880 H -0.00137 0.39358 0.46824 0.0
H881 H 0.94804 0.37715 0.58487 0.0
H882 H 0.91429 0.37742 0.62638 0.0
H883 H 0.95319 0.46072 0.61964 0.0
H884 H 0.987 0.46092 0.57761 0.0
C885 C 0.10513 0.45602 0.57211 0.0
C886 C 0.11348 0.48117 0.5862 0.0
C887 C 0.08026 0.44123 0.55627 0.0
C888 C 0.06367 0.45167 0.55324 0.0
C889 C 0.07264 0.47734 0.56554 0.0
C890 C 0.09724 0.49187 0.5822 0.0
C891 C 0.03641 0.43539 0.5398 0.0
C892 C 0.01643 0.43442 0.56302 0.0
C893 C 0.02991 0.42035 0.50526 0.0
C894 C 0.04997 0.42183 0.47793 0.0
C895 C 0.069 0.44589 0.4627 0.0
C896 C 0.08783 0.44714 0.43694 0.0
C897 C 0.08772 0.42443 0.42595 0.0
C898 C 0.06873 0.40041 0.44063 0.0
C899 C 0.04986 0.39905 0.46643 0.0
C900 C 0.92213 0.39239 0.46963 0.0
C901 C 0.90959 0.36553 0.46248 0.0
C902 C 0.94565 0.40468 0.48979 0.0
C903 C 0.95711 0.39033 0.50261 0.0
C904 C 0.94405 0.36331 0.49714 0.0
C905 C 0.92023 0.35091 0.47758 0.0
C906 C 0.98385 0.40409 0.51809 0.0
C907 C 0.00366 0.40456 0.49524 0.0
C908 C 0.99024 0.41909 0.55247 0.0
C909 C 0.96995 0.41902 0.57781 0.0
C910 C 0.94928 0.39551 0.59195 0.0
C911 C 0.93016 0.39558 0.61564 0.0
C912 C 0.93156 0.41907 0.62557 0.0
C913 C 0.95212 0.44254 0.6119 0.0
C914 C 0.97129 0.44257 0.58818 0.0
H915 H 0.91674 0.41908 0.64392 0.0
H916 H 0.10231 0.42543 0.40599 0.0
H917 H 0.63775 0.56988 0.44377 0.0
H918 H 0.63162 0.60397 0.4724 0.0
H919 H 0.7146 0.65323 0.48399 0.0
H920 H 0.72104 0.61908 0.45463 0.0
H921 H 0.67769 0.65096 0.55115 0.0
H922 H 0.69765 0.67023 0.41581 0.0
H923 H 0.69484 0.65876 0.3462 0.0
H924 H 0.61285 0.63133 0.34721 0.0
H925 H 0.61507 0.64215 0.417 0.0
H926 H 0.63114 0.73632 0.59778 0.0
H927 H 0.66094 0.72579 0.56352 0.0
H928 H 0.59593 0.66352 0.50294 0.0
H929 H 0.5663 0.67417 0.53641 0.0
H930 H 0.63837 0.685 0.45726 0.0
H931 H 0.6165 0.65286 0.59178 0.0
H932 H 0.6156 0.65935 0.66262 0.0
H933 H 0.69865 0.70839 0.66343 0.0
H934 H 0.69997 0.7022 0.59242 0.0
C935 C 0.65472 0.5877 0.45316 0.0
C936 C 0.67989 0.59192 0.44665 0.0
C937 C 0.65118 0.60717 0.46939 0.0
C938 C 0.67269 0.63114 0.47962 0.0
C939 C 0.69782 0.63482 0.47603 0.0
C940 C 0.70143 0.6153 0.45942 0.0
C941 C 0.6683 0.65258 0.49107 0.0
C942 C 0.66992 0.65918 0.53053 0.0
C943 C 0.65789 0.66291 0.46404 0.0
C944 C 0.65653 0.65693 0.42175 0.0
C945 C 0.67899 0.6616 0.40126 0.0
C946 C 0.6775 0.65522 0.36175 0.0
C947 C 0.65367 0.64431 0.34231 0.0
C948 C 0.6313 0.63981 0.36231 0.0
C949 C 0.63267 0.6461 0.40184 0.0
C950 C 0.62336 0.72095 0.57619 0.0
C951 C 0.59639 0.70579 0.57013 0.0
C952 C 0.64038 0.71489 0.5568 0.0
C953 C 0.63058 0.69354 0.53129 0.0
C954 C 0.60393 0.68002 0.52258 0.0
C955 C 0.58697 0.68606 0.54186 0.0
C956 C 0.64692 0.68273 0.51764 0.0
C957 C 0.64732 0.6779 0.4777 0.0
C958 C 0.65904 0.67388 0.54426 0.0
C959 C 0.6583 0.67732 0.58687 0.0
C960 C 0.63454 0.66511 0.60709 0.0
C961 C 0.63395 0.66874 0.64724 0.0
C962 C 0.65704 0.68439 0.6675 0.0
C963 C 0.68078 0.69633 0.64767 0.0
C964 C 0.68146 0.69275 0.60749 0.0
H965 H 0.65657 0.68722 0.69857 0.0
H966 H 0.65253 0.63936 0.31175 0.0
H967 H 0.40703 0.95641 0.59237 0.0
H968 H 0.4158 0.99615 0.55877 0.0
H969 H 0.33523 0.96055 0.52499 0.0
H970 H 0.32617 0.92045 0.5588 0.0
H971 H 0.37389 0.99343 0.46593 0.0
H972 H 0.34873 0.99652 0.59726 0.0
H973 H 0.34969 0.9891 0.66779 0.0
H974 H 0.4311 0.04563 0.67124 0.0
H975 H 0.43076 0.05308 0.60058 0.0
H976 H 0.41104 0.12114 0.40757 0.0
H977 H 0.38346 0.08187 0.44577 0.0
H978 H 0.45116 0.0916 0.50705 0.0
H979 H 0.47866 0.13055 0.46907 0.0
H980 H 0.40721 0.06999 0.55381 0.0
H981 H 0.43436 0.06015 0.42418 0.0
H982 H 0.43671 0.06382 0.35256 0.0
H983 H 0.35352 0.01785 0.3454 0.0
H984 H 0.35063 0.01465 0.41712 0.0
C985 C 0.39126 0.95679 0.57712 0.0
C986 C 0.36587 0.93546 0.57851 0.0
C987 C 0.39628 0.97953 0.55809 0.0
C988 C 0.37603 0.98132 0.54019 0.0
C989 C 0.35102 0.95947 0.53895 0.0
C990 C 0.34593 0.93664 0.55817 0.0
C991 C 0.38105 0.00672 0.52532 0.0
C992 C 0.38043 0.01009 0.48509 0.0
C993 C 0.38977 0.02833 0.55058 0.0
C994 C 0.38974 0.02526 0.59354 0.0
C995 C 0.36685 0.00737 0.61305 0.0
C996 C 0.36729 0.00312 0.65303 0.0
C997 C 0.39048 0.01677 0.67389 0.0
C998 C 0.41317 0.03502 0.65497 0.0
C999 C 0.41286 0.03931 0.61497 0.0
C1000 C 0.41986 0.11534 0.43012 0.0
C1001 C 0.44698 0.12851 0.43497 0.0
C1002 C 0.40411 0.09292 0.45179 0.0
C1003 C 0.41539 0.08364 0.47863 0.0
C1004 C 0.44211 0.09841 0.48638 0.0
C1005 C 0.45782 0.1206 0.46455 0.0
C1006 C 0.40068 0.05689 0.49416 0.0
C1007 C 0.39962 0.05323 0.53464 0.0
C1008 C 0.39051 0.035 0.46907 0.0
C1009 C 0.39225 0.03753 0.42603 0.0
C1010 C 0.41654 0.05118 0.40738 0.0
C1011 C 0.41798 0.05314 0.36677 0.0
C1012 C 0.39528 0.04109 0.34447 0.0
C1013 C 0.37109 0.0272 0.36274 0.0
C1014 C 0.36952 0.02542 0.40336 0.0
H1015 H 0.39644 0.04242 0.31304 0.0
H1016 H 0.39087 0.01314 0.70467 0.0
loop_
_geom_bond_atom_site_label_1
_geom_bond_atom_site_label_2
_geom_bond_distance
_geom_bond_site_symmetry_2
_ccdc_geom_bond_type
In0 O1 2.294 1_554 S
In0 O2 2.326 . S
In0 O6 2.266 1_454 S
In0 O7 2.326 1_455 S
In0 O8 2.266 . S
In0 O9 2.326 1_554 S
In0 O11 2.294 . S
In0 O12 2.326 1_455 S
O1 In0 2.294 1_556 S
O1 C10 1.240 . S
O2 In0 2.326 . S
O2 C10 1.252 1_554 S
C3 O6 1.252 1_554 S
C3 O7 1.260 . S
C4 O11 1.284 . S
C4 O12 1.240 1_455 S
C5 O8 1.252 . S
C5 O9 1.260 1_554 S
O6 In0 2.266 1_656 S
O6 C3 1.252 1_556 S
O7 In0 2.326 1_655 S
O7 C3 1.260 . S
O8 In0 2.266 . S
O8 C5 1.252 . S
O9 In0 2.326 1_556 S
O9 C5 1.260 1_556 S
C10 O1 1.240 . S
C10 O2 1.252 1_556 S
O11 In0 2.294 . S
O11 C4 1.284 . S
O12 In0 2.326 1_655 S
O12 C4 1.240 1_655 S
In13 O14 2.294 1_554 S
In13 O15 2.326 . S
In13 O19 2.266 1_554 S
In13 O20 2.326 . S
In13 O21 2.266 . S
In13 O22 2.326 1_554 S
In13 O24 2.294 . S
In13 O25 2.326 . S
O14 In13 2.294 1_556 S
O14 C23 1.240 . S
O15 In13 2.326 . S
O15 C23 1.252 1_554 S
C16 O19 1.252 1_554 S
C16 O20 1.260 . S
C17 O24 1.240 . S
C17 O25 1.252 . S
C18 O21 1.252 . S
C18 O22 1.260 1_554 S
O19 In13 2.266 1_556 S
O19 C16 1.252 1_556 S
O20 In13 2.326 . S
O20 C16 1.260 . S
O21 In13 2.266 . S
O21 C18 1.252 . S
O22 In13 2.326 1_556 S
O22 C18 1.260 1_556 S
C23 O14 1.240 . S
C23 O15 1.252 1_556 S
O24 In13 2.294 . S
O24 C17 1.240 . S
O25 In13 2.326 . S
O25 C17 1.252 . S
In26 O27 2.294 . S
In26 O28 2.326 . S
In26 O32 2.266 1_545 S
In26 O33 2.329 1_554 S
In26 O34 2.266 1_554 S
In26 O35 2.326 . S
In26 O37 2.294 1_554 S
In26 O38 2.326 1_545 S
O27 In26 2.294 . S
O27 C36 1.240 . S
O28 In26 2.326 . S
O28 C36 1.252 . S
C29 O32 1.252 . S
C29 O33 1.248 1_564 S
C30 O37 1.240 . S
C30 O38 1.252 1_546 S
C31 O34 1.252 1_554 S
C31 O35 1.260 . S
O32 In26 2.266 1_565 S
O32 C29 1.252 . S
O33 In26 2.329 1_556 S
O33 C29 1.248 1_546 S
O34 In26 2.266 1_556 S
O34 C31 1.252 1_556 S
O35 In26 2.326 . S
O35 C31 1.260 . S
C36 O27 1.240 . S
C36 O28 1.252 . S
O37 In26 2.294 1_556 S
O37 C30 1.240 . S
O38 In26 2.326 1_565 S
O38 C30 1.252 1_564 S
In39 O40 2.294 . S
In39 O41 2.326 . S
In39 O45 2.266 . S
In39 O46 2.326 . S
In39 O47 2.266 . S
In39 O48 2.326 . S
In39 O50 2.294 . S
In39 O51 2.326 . S
O40 In39 2.294 . S
O40 C49 1.240 . S
O41 In39 2.326 . S
O41 C49 1.252 . S
C42 O45 1.252 . S
C42 O46 1.260 . S
C43 O50 1.240 . S
C43 O51 1.252 . S
C44 O47 1.252 . S
C44 O48 1.260 . S
O45 In39 2.266 . S
O45 C42 1.252 . S
O46 In39 2.326 . S
O46 C42 1.260 . S
O47 In39 2.266 . S
O47 C44 1.252 . S
O48 In39 2.326 . S
O48 C44 1.260 . S
C49 O40 1.240 . S
C49 O41 1.252 . S
O50 In39 2.294 . S
O50 C43 1.240 . S
O51 In39 2.326 . S
O51 C43 1.252 . S
In52 O53 2.294 . S
In52 O54 2.326 . S
In52 O58 2.266 . S
In52 O59 2.326 . S
In52 O60 2.266 . S
In52 O61 2.326 . S
In52 O63 2.294 . S
In52 O64 2.326 . S
O53 In52 2.294 . S
O53 C62 1.240 . S
O54 In52 2.326 . S
O54 C62 1.252 . S
C55 O58 1.252 . S
C55 O59 1.260 . S
C56 O63 1.240 . S
C56 O64 1.252 . S
C57 O60 1.252 . S
C57 O61 1.260 . S
O58 In52 2.266 . S
O58 C55 1.252 . S
O59 In52 2.326 . S
O59 C55 1.260 . S
O60 In52 2.266 . S
O60 C57 1.252 . S
O61 In52 2.326 . S
O61 C57 1.260 . S
C62 O53 1.240 . S
C62 O54 1.252 . S
O63 In52 2.294 . S
O63 C56 1.240 . S
O64 In52 2.326 . S
O64 C56 1.252 . S
In65 O66 2.294 . S
In65 O67 2.326 . S
In65 O71 2.266 . S
In65 O72 2.326 . S
In65 O73 2.266 . S
In65 O74 2.326 . S
In65 O76 2.294 . S
In65 O77 2.326 . S
O66 In65 2.294 . S
O66 C75 1.240 . S
O67 In65 2.326 . S
O67 C75 1.252 . S
C68 O71 1.252 . S
C68 O72 1.260 . S
C69 O76 1.240 . S
C69 O77 1.252 . S
C70 O73 1.252 . S
C70 O74 1.260 . S
O71 In65 2.266 . S
O71 C68 1.252 . S
O72 In65 2.326 . S
O72 C68 1.260 . S
O73 In65 2.266 . S
O73 C70 1.252 . S
O74 In65 2.326 . S
O74 C70 1.260 . S
C75 O66 1.240 . S
C75 O67 1.252 . S
O76 In65 2.294 . S
O76 C69 1.240 . S
O77 In65 2.326 . S
O77 C69 1.252 . S
In78 O79 2.294 . S
In78 O80 2.326 . S
In78 O84 2.266 . S
In78 O85 2.326 . S
In78 O86 2.266 . S
In78 O87 2.326 . S
In78 O89 2.294 . S
In78 O90 2.326 . S
O79 In78 2.294 . S
O79 C88 1.240 . S
O80 In78 2.326 . S
O80 C88 1.252 . S
C81 O84 1.252 . S
C81 O85 1.260 . S
C82 O89 1.240 . S
C82 O90 1.252 . S
C83 O86 1.252 . S
C83 O87 1.260 . S
O84 In78 2.266 . S
O84 C81 1.252 . S
O85 In78 2.326 . S
O85 C81 1.260 . S
O86 In78 2.266 . S
O86 C83 1.252 . S
O87 In78 2.326 . S
O87 C83 1.260 . S
C88 O79 1.240 . S
C88 O80 1.252 . S
O89 In78 2.294 . S
O89 C82 1.240 . S
O90 In78 2.326 . S
O90 C82 1.252 . S
In91 O92 2.294 . S
In91 O93 2.326 . S
In91 O97 2.266 . S
In91 O98 2.326 . S
In91 O99 2.266 . S
In91 O100 2.326 . S
In91 O102 2.294 . S
In91 O103 2.326 . S
O92 In91 2.294 . S
O92 C101 1.240 . S
O93 In91 2.326 . S
O93 C101 1.252 . S
C94 O97 1.252 . S
C94 O98 1.260 . S
C95 O102 1.240 . S
C95 O103 1.252 . S
C96 O99 1.252 . S
C96 O100 1.260 . S
O97 In91 2.266 . S
O97 C94 1.252 . S
O98 In91 2.326 . S
O98 C94 1.260 . S
O99 In91 2.266 . S
O99 C96 1.252 . S
O100 In91 2.326 . S
O100 C96 1.260 . S
C101 O92 1.240 . S
C101 O93 1.252 . S
O102 In91 2.294 . S
O102 C95 1.240 . S
O103 In91 2.326 . S
O103 C95 1.252 . S
In104 O105 2.294 . S
In104 O106 2.326 . S
In104 O110 2.266 . S
In104 O111 2.326 . S
In104 O112 2.266 . S
In104 O113 2.326 . S
In104 O115 2.294 . S
In104 O116 2.326 . S
O105 In104 2.294 . S
O105 C114 1.240 . S
O106 In104 2.326 . S
O106 C114 1.252 . S
C107 O110 1.252 . S
C107 O111 1.260 . S
C108 O115 1.240 . S
C108 O116 1.252 . S
C109 O112 1.252 . S
C109 O113 1.260 . S
O110 In104 2.266 . S
O110 C107 1.252 . S
O111 In104 2.326 . S
O111 C107 1.260 . S
O112 In104 2.266 . S
O112 C109 1.252 . S
O113 In104 2.326 . S
O113 C109 1.260 . S
C114 O105 1.240 . S
C114 O106 1.252 . S
O115 In104 2.294 . S
O115 C108 1.240 . S
O116 In104 2.326 . S
O116 C108 1.252 . S
H117 C135 0.951 . S
H118 C137 0.951 . S
H119 C139 0.950 . S
H120 C140 0.950 . S
H121 C142 0.950 . S
H122 C145 0.950 . S
H123 C146 0.950 . S
H124 C148 0.950 . S
H125 C149 0.950 . S
H126 C150 0.951 . S
H127 C152 0.951 . S
H128 C154 0.950 . S
H129 C155 0.950 . S
H130 C157 0.950 . S
H131 C160 0.950 . S
H132 C161 0.950 . S
H133 C163 0.950 . S
H134 C164 0.950 . S
C135 H117 0.951 . S
C135 C136 1.366 . S
C135 C137 1.388 . S
C136 C135 1.366 . S
C136 C140 1.385 . S
C137 H118 0.951 . S
C137 C135 1.388 . S
C137 C138 1.366 . S
C138 C137 1.366 . S
C138 C139 1.414 . S
C138 C141 1.499 . S
C139 H119 0.950 . S
C139 C138 1.414 . S
C139 C140 1.374 . S
C140 H120 0.950 . S
C140 C136 1.385 . S
C140 C139 1.374 . S
C141 C138 1.499 . S
C141 C142 1.373 . S
C141 C143 1.389 1_554 S
C142 H121 0.950 . S
C142 C141 1.373 . S
C142 C158 1.377 . S
C143 C141 1.389 1_556 S
C143 C144 1.524 . S
C143 C157 1.377 . S
C144 C143 1.524 . S
C144 C145 1.397 . S
C144 C149 1.363 . S
C145 H122 0.950 . S
C145 C144 1.397 . S
C145 C146 1.334 . S
C146 H123 0.950 . S
C146 C145 1.334 . S
C146 C147 1.287 . S
C147 C146 1.287 . S
C147 C148 1.524 . S
C147 H166 0.913 . S
C148 H124 0.950 . S
C148 C147 1.524 . S
C148 C149 1.415 . S
C149 H125 0.950 . S
C149 C144 1.363 . S
C149 C148 1.415 . S
C150 H126 0.951 . S
C150 C151 1.366 . S
C150 C152 1.388 . S
C151 C150 1.366 . S
C151 C155 1.385 . S
C152 H127 0.951 . S
C152 C150 1.388 . S
C152 C153 1.366 . S
C153 C152 1.366 . S
C153 C154 1.414 . S
C153 C156 1.499 . S
C154 H128 0.950 . S
C154 C153 1.414 . S
C154 C155 1.374 . S
C155 H129 0.950 . S
C155 C151 1.385 . S
C155 C154 1.374 . S
C156 C153 1.499 . S
C156 C157 1.373 1_554 S
C156 C158 1.389 . S
C157 H130 0.950 . S
C157 C143 1.377 . S
C157 C156 1.373 1_556 S
C158 C142 1.377 . S
C158 C156 1.389 . S
C158 C159 1.524 . S
C159 C158 1.524 . S
C159 C160 1.397 . S
C159 C164 1.363 . S
C160 H131 0.950 . S
C160 C159 1.397 . S
C160 C161 1.334 . S
C161 H132 0.950 . S
C161 C160 1.334 . S
C161 C162 1.287 . S
C162 C161 1.287 . S
C162 C163 1.524 . S
C162 H165 0.999 . S
C163 H133 0.950 . S
C163 C162 1.524 . S
C163 C164 1.415 . S
C164 H134 0.950 . S
C164 C159 1.363 . S
C164 C163 1.415 . S
H165 C162 0.999 . S
H166 C147 0.913 . S
H167 C185 0.951 . S
H168 C187 0.951 . S
H169 C189 0.950 . S
H170 C190 0.947 1_556 S
H171 C192 0.942 1_565 S
H172 C195 0.950 . S
H173 C196 0.950 . S
H174 C198 0.951 1_545 S
H175 C199 0.950 . S
H176 C200 0.951 . S
H177 C202 0.951 . S
H178 C204 0.950 . S
H179 C205 0.950 . S
H180 C207 0.950 . S
H181 C210 0.950 . S
H182 C211 0.950 . S
H183 C213 0.950 . S
H184 C214 0.950 . S
C185 H167 0.951 . S
C185 C186 1.366 . S
C185 C187 1.388 . S
C186 C185 1.366 . S
C186 C190 1.388 . S
C187 H168 0.951 . S
C187 C185 1.388 . S
C187 C188 1.366 . S
C188 C187 1.366 . S
C188 C189 1.414 1_554 S
C188 C191 1.499 . S
C189 H169 0.950 . S
C189 C188 1.414 1_556 S
C189 C190 1.374 1_556 S
C190 H170 0.947 1_554 S
C190 C186 1.388 . S
C190 C189 1.374 1_554 S
C191 C188 1.499 . S
C191 C192 1.373 1_564 S
C191 C193 1.389 1_565 S
C192 H171 0.942 1_545 S
C192 C191 1.373 1_546 S
C192 C208 1.377 . S
C193 C191 1.389 1_545 S
C193 C194 1.524 . S
C193 C207 1.377 . S
C194 C193 1.524 . S
C194 C195 1.397 1_545 S
C194 C199 1.363 . S
C195 H172 0.950 . S
C195 C194 1.397 1_565 S
C195 C196 1.334 . S
C196 H173 0.950 . S
C196 C195 1.334 . S
C196 C197 1.287 . S
C197 C196 1.287 . S
C197 C198 1.525 . S
C197 H216 0.913 . S
C198 H174 0.951 1_565 S
C198 C197 1.525 . S
C198 C199 1.413 1_565 S
C199 H175 0.950 . S
C199 C194 1.363 . S
C199 C198 1.413 1_545 S
C200 H176 0.951 . S
C200 C201 1.366 1_556 S
C200 C202 1.388 . S
C201 C200 1.366 1_554 S
C201 C205 1.385 . S
C202 H177 0.951 . S
C202 C200 1.388 . S
C202 C203 1.366 1_556 S
C203 C202 1.366 1_554 S
C203 C204 1.414 . S
C203 C206 1.499 . S
C204 H178 0.950 . S
C204 C203 1.414 . S
C204 C205 1.374 . S
C205 H179 0.950 . S
C205 C201 1.385 . S
C205 C204 1.374 . S
C206 C203 1.499 . S
C206 C207 1.373 . S
C206 C208 1.389 1_554 S
C207 H180 0.950 . S
C207 C193 1.377 . S
C207 C206 1.373 . S
C208 C192 1.377 . S
C208 C206 1.389 1_556 S
C208 C209 1.524 . S
C209 C208 1.524 . S
C209 C210 1.397 . S
C209 C214 1.363 . S
C210 H181 0.950 . S
C210 C209 1.397 . S
C210 C211 1.334 . S
C211 H182 0.950 . S
C211 C210 1.334 . S
C211 C212 1.287 . S
C212 C211 1.287 . S
C212 C213 1.524 . S
C212 H215 0.999 . S
C213 H183 0.950 . S
C213 C212 1.524 . S
C213 C214 1.415 . S
C214 H184 0.950 . S
C214 C209 1.363 . S
C214 C213 1.415 . S
H215 C212 0.999 . S
H216 C197 0.913 . S
H217 C235 0.951 . S
H218 C237 0.951 . S
H219 C239 0.950 . S
H220 C240 0.950 . S
H221 C242 0.947 1_656 S
H222 C245 0.950 . S
H223 C246 0.950 . S
H224 C248 0.950 . S
H225 C249 0.952 . S
H226 C250 0.951 1_545 S
H227 C252 0.951 . S
H228 C254 0.950 1_556 S
H229 C255 0.950 1_556 S
H230 C257 0.950 . S
H231 C260 0.950 . S
H232 C261 0.950 . S
H233 C263 0.950 . S
H234 C264 0.950 . S
C235 H217 0.951 . S
C235 C236 1.366 1_556 S
C235 C237 1.388 . S
C236 C235 1.366 1_554 S
C236 C240 1.385 . S
C237 H218 0.951 . S
C237 C235 1.388 . S
C237 C238 1.366 1_556 S
C238 C237 1.366 1_554 S
C238 C239 1.414 . S
C238 C241 1.499 . S
C239 H219 0.950 . S
C239 C238 1.414 . S
C239 C240 1.374 . S
C240 H220 0.950 . S
C240 C236 1.385 . S
C240 C239 1.374 . S
C241 C238 1.499 . S
C241 C242 1.373 1_655 S
C241 C243 1.389 1_655 S
C242 H221 0.947 1_454 S
C242 C241 1.373 1_455 S
C242 C258 1.377 . S
C243 C241 1.389 1_455 S
C243 C244 1.524 1_455 S
C243 C257 1.377 . S
C244 C243 1.524 1_655 S
C244 C245 1.397 . S
C244 C249 1.361 1_655 S
C245 H222 0.950 . S
C245 C244 1.397 . S
C245 C246 1.334 . S
C246 H223 0.950 . S
C246 C245 1.334 . S
C246 C247 1.287 . S
C247 C246 1.287 . S
C247 C248 1.524 . S
C247 H266 0.913 . S
C248 H224 0.950 . S
C248 C247 1.524 . S
C248 C249 1.415 1_655 S
C249 H225 0.952 . S
C249 C244 1.361 1_455 S
C249 C248 1.415 1_455 S
C250 H226 0.951 1_565 S
C250 C251 1.366 . S
C250 C252 1.388 . S
C251 C250 1.366 . S
C251 C255 1.385 . S
C252 H227 0.951 . S
C252 C250 1.388 . S
C252 C253 1.366 . S
C253 C252 1.366 . S
C253 C254 1.414 . S
C253 C256 1.499 . S
C254 H228 0.950 1_554 S
C254 C253 1.414 . S
C254 C255 1.374 . S
C255 H229 0.950 1_554 S
C255 C251 1.385 . S
C255 C254 1.374 . S
C256 C253 1.499 . S
C256 C257 1.373 . S
C256 C258 1.389 . S
C257 H230 0.950 . S
C257 C243 1.377 . S
C257 C256 1.373 . S
C258 C242 1.377 . S
C258 C256 1.389 . S
C258 C259 1.524 1_554 S
C259 C258 1.524 1_556 S
C259 C260 1.397 . S
C259 C264 1.363 1_556 S
C260 H231 0.950 . S
C260 C259 1.397 . S
C260 C261 1.334 1_565 S
C261 H232 0.950 . S
C261 C260 1.334 1_545 S
C261 C262 1.287 . S
C262 C261 1.287 . S
C262 C263 1.524 . S
C262 H265 0.999 . S
C263 H233 0.950 . S
C263 C262 1.524 . S
C263 C264 1.415 1_546 S
C264 H234 0.950 . S
C264 C259 1.363 1_554 S
C264 C263 1.415 1_564 S
H265 C262 0.999 . S
H266 C247 0.913 . S
H267 C285 0.951 . S
H268 C287 0.951 . S
H269 C289 0.950 . S
H270 C290 0.950 . S
H271 C292 0.950 . S
H272 C295 0.950 . S
H273 C296 0.950 . S
H274 C298 0.950 . S
H275 C299 0.950 . S
H276 C300 0.951 . S
H277 C302 0.951 . S
H278 C304 0.950 . S
H279 C305 0.950 . S
H280 C307 0.950 . S
H281 C310 0.950 . S
H282 C311 0.950 . S
H283 C313 0.950 . S
H284 C314 0.950 . S
C285 H267 0.951 . S
C285 C286 1.366 . S
C285 C287 1.388 . S
C286 C285 1.366 . S
C286 C290 1.385 . S
C287 H268 0.951 . S
C287 C285 1.388 . S
C287 C288 1.366 . S
C288 C287 1.366 . S
C288 C289 1.414 . S
C288 C291 1.499 . S
C289 H269 0.950 . S
C289 C288 1.414 . S
C289 C290 1.374 . S
C290 H270 0.950 . S
C290 C286 1.385 . S
C290 C289 1.374 . S
C291 C288 1.499 . S
C291 C292 1.373 . S
C291 C293 1.389 . S
C292 H271 0.950 . S
C292 C291 1.373 . S
C292 C308 1.377 . S
C293 C291 1.389 . S
C293 C294 1.524 . S
C293 C307 1.377 . S
C294 C293 1.524 . S
C294 C295 1.397 . S
C294 C299 1.363 . S
C295 H272 0.950 . S
C295 C294 1.397 . S
C295 C296 1.334 . S
C296 H273 0.950 . S
C296 C295 1.334 . S
C296 C297 1.287 . S
C297 C296 1.287 . S
C297 C298 1.524 . S
C297 H316 0.913 . S
C298 H274 0.950 . S
C298 C297 1.524 . S
C298 C299 1.415 . S
C299 H275 0.950 . S
C299 C294 1.363 . S
C299 C298 1.415 . S
C300 H276 0.951 . S
C300 C301 1.366 . S
C300 C302 1.388 . S
C301 C300 1.366 . S
C301 C305 1.385 . S
C302 H277 0.951 . S
C302 C300 1.388 . S
C302 C303 1.366 . S
C303 C302 1.366 . S
C303 C304 1.414 . S
C303 C306 1.499 . S
C304 H278 0.950 . S
C304 C303 1.414 . S
C304 C305 1.374 . S
C305 H279 0.950 . S
C305 C301 1.385 . S
C305 C304 1.374 . S
C306 C303 1.499 . S
C306 C307 1.373 . S
C306 C308 1.389 . S
C307 H280 0.950 . S
C307 C293 1.377 . S
C307 C306 1.373 . S
C308 C292 1.377 . S
C308 C306 1.389 . S
C308 C309 1.524 . S
C309 C308 1.524 . S
C309 C310 1.397 . S
C309 C314 1.363 . S
C310 H281 0.950 . S
C310 C309 1.397 . S
C310 C311 1.334 . S
C311 H282 0.950 . S
C311 C310 1.334 . S
C311 C312 1.287 . S
C312 C311 1.287 . S
C312 C313 1.524 . S
C312 H315 0.999 . S
C313 H283 0.950 . S
C313 C312 1.524 . S
C313 C314 1.415 . S
C314 H284 0.950 . S
C314 C309 1.363 . S
C314 C313 1.415 . S
H315 C312 0.999 . S
H316 C297 0.913 . S
H317 C335 0.951 . S
H318 C337 0.951 . S
H319 C339 0.950 . S
H320 C340 0.950 . S
H321 C342 0.950 . S
H322 C345 0.950 . S
H323 C346 0.950 . S
H324 C348 0.950 . S
H325 C349 0.950 . S
H326 C350 0.951 . S
H327 C352 0.951 . S
H328 C354 0.950 . S
H329 C355 0.950 . S
H330 C357 0.950 . S
H331 C360 0.950 . S
H332 C361 0.950 . S
H333 C363 0.950 . S
H334 C364 0.950 . S
C335 H317 0.951 . S
C335 C336 1.366 . S
C335 C337 1.388 . S
C336 C335 1.366 . S
C336 C340 1.385 . S
C337 H318 0.951 . S
C337 C335 1.388 . S
C337 C338 1.366 . S
C338 C337 1.366 . S
C338 C339 1.414 . S
C338 C341 1.499 . S
C339 H319 0.950 . S
C339 C338 1.414 . S
C339 C340 1.374 . S
C340 H320 0.950 . S
C340 C336 1.385 . S
C340 C339 1.374 . S
C341 C338 1.499 . S
C341 C342 1.373 . S
C341 C343 1.389 . S
C342 H321 0.950 . S
C342 C341 1.373 . S
C342 C358 1.377 . S
C343 C341 1.389 . S
C343 C344 1.524 . S
C343 C357 1.377 . S
C344 C343 1.524 . S
C344 C345 1.397 . S
C344 C349 1.363 . S
C345 H322 0.950 . S
C345 C344 1.397 . S
C345 C346 1.334 . S
C346 H323 0.950 . S
C346 C345 1.334 . S
C346 C347 1.287 . S
C347 C346 1.287 . S
C347 C348 1.524 . S
C347 H366 0.913 . S
C348 H324 0.950 . S
C348 C347 1.524 . S
C348 C349 1.415 . S
C349 H325 0.950 . S
C349 C344 1.363 . S
C349 C348 1.415 . S
C350 H326 0.951 . S
C350 C351 1.366 . S
C350 C352 1.388 . S
C351 C350 1.366 . S
C351 C355 1.385 . S
C352 H327 0.951 . S
C352 C350 1.388 . S
C352 C353 1.366 . S
C353 C352 1.366 . S
C353 C354 1.414 . S
C353 C356 1.499 . S
C354 H328 0.950 . S
C354 C353 1.414 . S
C354 C355 1.374 . S
C355 H329 0.950 . S
C355 C351 1.385 . S
C355 C354 1.374 . S
C356 C353 1.499 . S
C356 C357 1.373 . S
C356 C358 1.389 . S
C357 H330 0.950 . S
C357 C343 1.377 . S
C357 C356 1.373 . S
C358 C342 1.377 . S
C358 C356 1.389 . S
C358 C359 1.524 . S
C359 C358 1.524 . S
C359 C360 1.397 . S
C359 C364 1.363 . S
C360 H331 0.950 . S
C360 C359 1.397 . S
C360 C361 1.334 . S
C361 H332 0.950 . S
C361 C360 1.334 . S
C361 C362 1.287 . S
C362 C361 1.287 . S
C362 C363 1.524 . S
C362 H365 0.999 . S
C363 H333 0.950 . S
C363 C362 1.524 . S
C363 C364 1.415 . S
C364 H334 0.950 . S
C364 C359 1.363 . S
C364 C363 1.415 . S
H365 C362 0.999 . S
H366 C347 0.913 . S
H367 C385 0.951 . S
H368 C387 0.951 . S
H369 C389 0.950 . S
H370 C390 0.950 . S
H371 C392 0.950 . S
H372 C395 0.950 . S
H373 C396 0.950 . S
H374 C398 0.950 . S
H375 C399 0.950 . S
H376 C400 0.951 . S
H377 C402 0.951 . S
H378 C404 0.950 . S
H379 C405 0.950 . S
H380 C407 0.950 . S
H381 C410 0.950 . S
H382 C411 0.950 . S
H383 C413 0.950 . S
H384 C414 0.950 . S
C385 H367 0.951 . S
C385 C386 1.366 . S
C385 C387 1.388 . S
C386 C385 1.366 . S
C386 C390 1.385 . S
C387 H368 0.951 . S
C387 C385 1.388 . S
C387 C388 1.366 . S
C388 C387 1.366 . S
C388 C389 1.414 . S
C388 C391 1.499 . S
C389 H369 0.950 . S
C389 C388 1.414 . S
C389 C390 1.374 . S
C390 H370 0.950 . S
C390 C386 1.385 . S
C390 C389 1.374 . S
C391 C388 1.499 . S
C391 C392 1.373 . S
C391 C393 1.389 . S
C392 H371 0.950 . S
C392 C391 1.373 . S
C392 C408 1.377 . S
C393 C391 1.389 . S
C393 C394 1.524 . S
C393 C407 1.377 . S
C394 C393 1.524 . S
C394 C395 1.397 . S
C394 C399 1.363 . S
C395 H372 0.950 . S
C395 C394 1.397 . S
C395 C396 1.334 . S
C396 H373 0.950 . S
C396 C395 1.334 . S
C396 C397 1.287 . S
C397 C396 1.287 . S
C397 C398 1.524 . S
C397 H416 0.913 . S
C398 H374 0.950 . S
C398 C397 1.524 . S
C398 C399 1.415 . S
C399 H375 0.950 . S
C399 C394 1.363 . S
C399 C398 1.415 . S
C400 H376 0.951 . S
C400 C401 1.366 . S
C400 C402 1.388 . S
C401 C400 1.366 . S
C401 C405 1.385 . S
C402 H377 0.951 . S
C402 C400 1.388 . S
C402 C403 1.366 . S
C403 C402 1.366 . S
C403 C404 1.414 . S
C403 C406 1.499 . S
C404 H378 0.950 . S
C404 C403 1.414 . S
C404 C405 1.374 . S
C405 H379 0.950 . S
C405 C401 1.385 . S
C405 C404 1.374 . S
C406 C403 1.499 . S
C406 C407 1.373 . S
C406 C408 1.389 . S
C407 H380 0.950 . S
C407 C393 1.377 . S
C407 C406 1.373 . S
C408 C392 1.377 . S
C408 C406 1.389 . S
C408 C409 1.524 . S
C409 C408 1.524 . S
C409 C410 1.397 . S
C409 C414 1.363 . S
C410 H381 0.950 . S
C410 C409 1.397 . S
C410 C411 1.334 . S
C411 H382 0.950 . S
C411 C410 1.334 . S
C411 C412 1.287 . S
C412 C411 1.287 . S
C412 C413 1.524 . S
C412 H415 0.999 . S
C413 H383 0.950 . S
C413 C412 1.524 . S
C413 C414 1.415 . S
C414 H384 0.950 . S
C414 C409 1.363 . S
C414 C413 1.415 . S
H415 C412 0.999 . S
H416 C397 0.913 . S
H417 C435 0.951 . S
H418 C437 0.951 . S
H419 C439 0.950 . S
H420 C440 0.950 . S
H421 C442 0.950 . S
H422 C445 0.950 . S
H423 C446 0.950 . S
H424 C448 0.950 . S
H425 C449 0.950 . S
H426 C450 0.951 . S
H427 C452 0.951 . S
H428 C454 0.950 . S
H429 C455 0.950 . S
H430 C457 0.950 . S
H431 C460 0.950 . S
H432 C461 0.950 . S
H433 C463 0.950 . S
H434 C464 0.950 . S
C435 H417 0.951 . S
C435 C436 1.366 . S
C435 C437 1.388 . S
C436 C435 1.366 . S
C436 C440 1.385 . S
C437 H418 0.951 . S
C437 C435 1.388 . S
C437 C438 1.366 . S
C438 C437 1.366 . S
C438 C439 1.414 . S
C438 C441 1.499 . S
C439 H419 0.950 . S
C439 C438 1.414 . S
C439 C440 1.374 . S
C440 H420 0.950 . S
C440 C436 1.385 . S
C440 C439 1.374 . S
C441 C438 1.499 . S
C441 C442 1.373 . S
C441 C443 1.389 . S
C442 H421 0.950 . S
C442 C441 1.373 . S
C442 C458 1.377 . S
C443 C441 1.389 . S
C443 C444 1.524 . S
C443 C457 1.377 . S
C444 C443 1.524 . S
C444 C445 1.397 . S
C444 C449 1.363 . S
C445 H422 0.950 . S
C445 C444 1.397 . S
C445 C446 1.334 . S
C446 H423 0.950 . S
C446 C445 1.334 . S
C446 C447 1.287 . S
C447 C446 1.287 . S
C447 C448 1.524 . S
C447 H466 0.913 . S
C448 H424 0.950 . S
C448 C447 1.524 . S
C448 C449 1.415 . S
C449 H425 0.950 . S
C449 C444 1.363 . S
C449 C448 1.415 . S
C450 H426 0.951 . S
C450 C451 1.366 . S
C450 C452 1.388 . S
C451 C450 1.366 . S
C451 C455 1.385 . S
C452 H427 0.951 . S
C452 C450 1.388 . S
C452 C453 1.366 . S
C453 C452 1.366 . S
C453 C454 1.414 . S
C453 C456 1.499 . S
C454 H428 0.950 . S
C454 C453 1.414 . S
C454 C455 1.374 . S
C455 H429 0.950 . S
C455 C451 1.385 . S
C455 C454 1.374 . S
C456 C453 1.499 . S
C456 C457 1.373 . S
C456 C458 1.389 . S
C457 H430 0.950 . S
C457 C443 1.377 . S
C457 C456 1.373 . S
C458 C442 1.377 . S
C458 C456 1.389 . S
C458 C459 1.524 . S
C459 C458 1.524 . S
C459 C460 1.397 . S
C459 C464 1.363 . S
C460 H431 0.950 . S
C460 C459 1.397 . S
C460 C461 1.334 . S
C461 H432 0.950 . S
C461 C460 1.334 . S
C461 C462 1.287 . S
C462 C461 1.287 . S
C462 C463 1.524 . S
C462 H465 0.999 . S
C463 H433 0.950 . S
C463 C462 1.524 . S
C463 C464 1.415 . S
C464 H434 0.950 . S
C464 C459 1.363 . S
C464 C463 1.415 . S
H465 C462 0.999 . S
H466 C447 0.913 . S
H467 C485 0.951 . S
H468 C487 0.951 . S
H469 C489 0.950 . S
H470 C490 0.950 . S
H471 C492 0.950 . S
H472 C495 0.950 . S
H473 C496 0.950 . S
H474 C498 0.950 . S
H475 C499 0.950 . S
H476 C500 0.951 . S
H477 C502 0.951 . S
H478 C504 0.950 . S
H479 C505 0.950 . S
H480 C507 0.950 . S
H481 C510 0.950 . S
H482 C511 0.950 . S
H483 C513 0.950 . S
H484 C514 0.950 . S
C485 H467 0.951 . S
C485 C486 1.366 . S
C485 C487 1.388 . S
C486 C485 1.366 . S
C486 C490 1.385 . S
C487 H468 0.951 . S
C487 C485 1.388 . S
C487 C488 1.366 . S
C488 C487 1.366 . S
C488 C489 1.414 . S
C488 C491 1.499 . S
C489 H469 0.950 . S
C489 C488 1.414 . S
C489 C490 1.374 . S
C490 H470 0.950 . S
C490 C486 1.385 . S
C490 C489 1.374 . S
C491 C488 1.499 . S
C491 C492 1.373 . S
C491 C493 1.389 . S
C492 H471 0.950 . S
C492 C491 1.373 . S
C492 C508 1.377 . S
C493 C491 1.389 . S
C493 C494 1.524 . S
C493 C507 1.377 . S
C494 C493 1.524 . S
C494 C495 1.397 . S
C494 C499 1.363 . S
C495 H472 0.950 . S
C495 C494 1.397 . S
C495 C496 1.334 . S
C496 H473 0.950 . S
C496 C495 1.334 . S
C496 C497 1.287 . S
C497 C496 1.287 . S
C497 C498 1.524 . S
C497 H516 0.913 . S
C498 H474 0.950 . S
C498 C497 1.524 . S
C498 C499 1.415 . S
C499 H475 0.950 . S
C499 C494 1.363 . S
C499 C498 1.415 . S
C500 H476 0.951 . S
C500 C501 1.366 . S
C500 C502 1.388 . S
C501 C500 1.366 . S
C501 C505 1.385 . S
C502 H477 0.951 . S
C502 C500 1.388 . S
C502 C503 1.366 . S
C503 C502 1.366 . S
C503 C504 1.414 . S
C503 C506 1.499 . S
C504 H478 0.950 . S
C504 C503 1.414 . S
C504 C505 1.374 . S
C505 H479 0.950 . S
C505 C501 1.385 . S
C505 C504 1.374 . S
C506 C503 1.499 . S
C506 C507 1.373 . S
C506 C508 1.389 . S
C507 H480 0.950 . S
C507 C493 1.377 . S
C507 C506 1.373 . S
C508 C492 1.377 . S
C508 C506 1.389 . S
C508 C509 1.524 . S
C509 C508 1.524 . S
C509 C510 1.397 . S
C509 C514 1.363 . S
C510 H481 0.950 . S
C510 C509 1.397 . S
C510 C511 1.334 . S
C511 H482 0.950 . S
C511 C510 1.334 . S
C511 C512 1.287 . S
C512 C511 1.287 . S
C512 C513 1.524 . S
C512 H515 0.999 . S
C513 H483 0.950 . S
C513 C512 1.524 . S
C513 C514 1.415 . S
C514 H484 0.950 . S
C514 C509 1.363 . S
C514 C513 1.415 . S
H515 C512 0.999 . S
H516 C497 0.913 . S
H517 C535 0.951 . S
H518 C537 0.951 . S
H519 C539 0.950 . S
H520 C540 0.950 . S
H521 C542 0.950 . S
H522 C545 0.950 . S
H523 C546 0.950 . S
H524 C548 0.950 . S
H525 C549 0.950 . S
H526 C550 0.951 . S
H527 C552 0.951 . S
H528 C554 0.950 . S
H529 C555 0.950 . S
H530 C557 0.950 . S
H531 C560 0.950 . S
H532 C561 0.950 . S
H533 C563 0.950 . S
H534 C564 0.950 . S
C535 H517 0.951 . S
C535 C536 1.366 . S
C535 C537 1.388 . S
C536 C535 1.366 . S
C536 C540 1.385 . S
C537 H518 0.951 . S
C537 C535 1.388 . S
C537 C538 1.366 . S
C538 C537 1.366 . S
C538 C539 1.414 . S
C538 C541 1.499 . S
C539 H519 0.950 . S
C539 C538 1.414 . S
C539 C540 1.374 . S
C540 H520 0.950 . S
C540 C536 1.385 . S
C540 C539 1.374 . S
C541 C538 1.499 . S
C541 C542 1.373 . S
C541 C543 1.389 . S
C542 H521 0.950 . S
C542 C541 1.373 . S
C542 C558 1.377 . S
C543 C541 1.389 . S
C543 C544 1.524 . S
C543 C557 1.377 . S
C544 C543 1.524 . S
C544 C545 1.397 . S
C544 C549 1.363 . S
C545 H522 0.950 . S
C545 C544 1.397 . S
C545 C546 1.334 . S
C546 H523 0.950 . S
C546 C545 1.334 . S
C546 C547 1.287 . S
C547 C546 1.287 . S
C547 C548 1.524 . S
C547 H566 0.913 . S
C548 H524 0.950 . S
C548 C547 1.524 . S
C548 C549 1.415 . S
C549 H525 0.950 . S
C549 C544 1.363 . S
C549 C548 1.415 . S
C550 H526 0.951 . S
C550 C551 1.366 . S
C550 C552 1.388 . S
C551 C550 1.366 . S
C551 C555 1.385 . S
C552 H527 0.951 . S
C552 C550 1.388 . S
C552 C553 1.366 . S
C553 C552 1.366 . S
C553 C554 1.414 . S
C553 C556 1.499 . S
C554 H528 0.950 . S
C554 C553 1.414 . S
C554 C555 1.374 . S
C555 H529 0.950 . S
C555 C551 1.385 . S
C555 C554 1.374 . S
C556 C553 1.499 . S
C556 C557 1.373 . S
C556 C558 1.389 . S
C557 H530 0.950 . S
C557 C543 1.377 . S
C557 C556 1.373 . S
C558 C542 1.377 . S
C558 C556 1.389 . S
C558 C559 1.524 . S
C559 C558 1.524 . S
C559 C560 1.397 . S
C559 C564 1.363 . S
C560 H531 0.950 . S
C560 C559 1.397 . S
C560 C561 1.334 . S
C561 H532 0.950 . S
C561 C560 1.334 . S
C561 C562 1.287 . S
C562 C561 1.287 . S
C562 C563 1.524 . S
C562 H565 0.999 . S
C563 H533 0.950 . S
C563 C562 1.524 . S
C563 C564 1.415 . S
C564 H534 0.950 . S
C564 C559 1.363 . S
C564 C563 1.415 . S
H565 C562 0.999 . S
H566 C547 0.913 . S
H567 C585 0.951 . S
H568 C587 0.951 . S
H569 C589 0.950 . S
H570 C590 0.950 . S
H571 C592 0.950 . S
H572 C595 0.950 . S
H573 C596 0.950 . S
H574 C598 0.950 . S
H575 C599 0.950 . S
H576 C600 0.951 . S
H577 C602 0.951 . S
H578 C604 0.950 . S
H579 C605 0.950 . S
H580 C607 0.950 . S
H581 C610 0.950 . S
H582 C611 0.950 . S
H583 C613 0.950 . S
H584 C614 0.950 . S
C585 H567 0.951 . S
C585 C586 1.366 . S
C585 C587 1.388 . S
C586 C585 1.366 . S
C586 C590 1.385 . S
C587 H568 0.951 . S
C587 C585 1.388 . S
C587 C588 1.366 . S
C588 C587 1.366 . S
C588 C589 1.414 . S
C588 C591 1.499 . S
C589 H569 0.950 . S
C589 C588 1.414 . S
C589 C590 1.374 . S
C590 H570 0.950 . S
C590 C586 1.385 . S
C590 C589 1.374 . S
C591 C588 1.499 . S
C591 C592 1.373 . S
C591 C593 1.389 . S
C592 H571 0.950 . S
C592 C591 1.373 . S
C592 C608 1.377 . S
C593 C591 1.389 . S
C593 C594 1.524 . S
C593 C607 1.377 . S
C594 C593 1.524 . S
C594 C595 1.397 . S
C594 C599 1.363 . S
C595 H572 0.950 . S
C595 C594 1.397 . S
C595 C596 1.334 . S
C596 H573 0.950 . S
C596 C595 1.334 . S
C596 C597 1.287 . S
C597 C596 1.287 . S
C597 C598 1.524 . S
C597 H616 0.913 . S
C598 H574 0.950 . S
C598 C597 1.524 . S
C598 C599 1.415 . S
C599 H575 0.950 . S
C599 C594 1.363 . S
C599 C598 1.415 . S
C600 H576 0.951 . S
C600 C601 1.366 . S
C600 C602 1.388 . S
C601 C600 1.366 . S
C601 C605 1.385 . S
C602 H577 0.951 . S
C602 C600 1.388 . S
C602 C603 1.366 . S
C603 C602 1.366 . S
C603 C604 1.414 . S
C603 C606 1.499 . S
C604 H578 0.950 . S
C604 C603 1.414 . S
C604 C605 1.374 . S
C605 H579 0.950 . S
C605 C601 1.385 . S
C605 C604 1.374 . S
C606 C603 1.499 . S
C606 C607 1.373 . S
C606 C608 1.389 . S
C607 H580 0.950 . S
C607 C593 1.377 . S
C607 C606 1.373 . S
C608 C592 1.377 . S
C608 C606 1.389 . S
C608 C609 1.524 . S
C609 C608 1.524 . S
C609 C610 1.397 . S
C609 C614 1.363 . S
C610 H581 0.950 . S
C610 C609 1.397 . S
C610 C611 1.334 . S
C611 H582 0.950 . S
C611 C610 1.334 . S
C611 C612 1.287 . S
C612 C611 1.287 . S
C612 C613 1.524 . S
C612 H615 0.999 . S
C613 H583 0.950 . S
C613 C612 1.524 . S
C613 C614 1.415 . S
C614 H584 0.950 . S
C614 C609 1.363 . S
C614 C613 1.415 . S
H615 C612 0.999 . S
H616 C597 0.913 . S
H617 C635 0.951 . S
H618 C637 0.951 . S
H619 C639 0.950 . S
H620 C640 0.950 . S
H621 C642 0.950 . S
H622 C645 0.950 . S
H623 C646 0.950 . S
H624 C648 0.950 . S
H625 C649 0.950 . S
H626 C650 0.951 . S
H627 C652 0.951 . S
H628 C654 0.950 . S
H629 C655 0.950 . S
H630 C657 0.950 . S
H631 C660 0.950 . S
H632 C661 0.950 . S
H633 C663 0.950 . S
H634 C664 0.950 . S
C635 H617 0.951 . S
C635 C636 1.366 . S
C635 C637 1.388 . S
C636 C635 1.366 . S
C636 C640 1.385 . S
C637 H618 0.951 . S
C637 C635 1.388 . S
C637 C638 1.366 . S
C638 C637 1.366 . S
C638 C639 1.414 . S
C638 C641 1.499 . S
C639 H619 0.950 . S
C639 C638 1.414 . S
C639 C640 1.374 . S
C640 H620 0.950 . S
C640 C636 1.385 . S
C640 C639 1.374 . S
C641 C638 1.499 . S
C641 C642 1.373 . S
C641 C643 1.389 . S
C642 H621 0.950 . S
C642 C641 1.373 . S
C642 C658 1.377 . S
C643 C641 1.389 . S
C643 C644 1.524 . S
C643 C657 1.377 . S
C644 C643 1.524 . S
C644 C645 1.397 . S
C644 C649 1.363 . S
C645 H622 0.950 . S
C645 C644 1.397 . S
C645 C646 1.334 . S
C646 H623 0.950 . S
C646 C645 1.334 . S
C646 C647 1.287 . S
C647 C646 1.287 . S
C647 C648 1.524 . S
C647 H666 0.913 . S
C648 H624 0.950 . S
C648 C647 1.524 . S
C648 C649 1.415 . S
C649 H625 0.950 . S
C649 C644 1.363 . S
C649 C648 1.415 . S
C650 H626 0.951 . S
C650 C651 1.366 . S
C650 C652 1.388 . S
C651 C650 1.366 . S
C651 C655 1.385 . S
C652 H627 0.951 . S
C652 C650 1.388 . S
C652 C653 1.366 . S
C653 C652 1.366 . S
C653 C654 1.414 . S
C653 C656 1.499 . S
C654 H628 0.950 . S
C654 C653 1.414 . S
C654 C655 1.374 . S
C655 H629 0.950 . S
C655 C651 1.385 . S
C655 C654 1.374 . S
C656 C653 1.499 . S
C656 C657 1.373 . S
C656 C658 1.389 . S
C657 H630 0.950 . S
C657 C643 1.377 . S
C657 C656 1.373 . S
C658 C642 1.377 . S
C658 C656 1.389 . S
C658 C659 1.524 . S
C659 C658 1.524 . S
C659 C660 1.397 . S
C659 C664 1.363 . S
C660 H631 0.950 . S
C660 C659 1.397 . S
C660 C661 1.334 . S
C661 H632 0.950 . S
C661 C660 1.334 . S
C661 C662 1.287 . S
C662 C661 1.287 . S
C662 C663 1.524 . S
C662 H665 0.999 . S
C663 H633 0.950 . S
C663 C662 1.524 . S
C663 C664 1.415 . S
C664 H634 0.950 . S
C664 C659 1.363 . S
C664 C663 1.415 . S
H665 C662 0.999 . S
H666 C647 0.913 . S
H667 C685 0.951 . S
H668 C687 0.951 . S
H669 C689 0.950 . S
H670 C690 0.950 . S
H671 C692 0.950 . S
H672 C695 0.950 . S
H673 C696 0.950 . S
H674 C698 0.950 . S
H675 C699 0.950 . S
H676 C700 0.951 . S
H677 C702 0.951 . S
H678 C704 0.950 . S
H679 C705 0.986 . S
H680 C707 0.950 . S
H681 C710 0.950 . S
H682 C711 0.950 . S
H683 C713 0.950 . S
H684 C714 0.950 . S
C685 H667 0.951 . S
C685 C686 1.366 . S
C685 C687 1.388 . S
C686 C685 1.366 . S
C686 C690 1.385 . S
C687 H668 0.951 . S
C687 C685 1.388 . S
C687 C688 1.366 . S
C688 C687 1.366 . S
C688 C689 1.414 . S
C688 C691 1.499 . S
C689 H669 0.950 . S
C689 C688 1.414 . S
C689 C690 1.374 . S
C690 H670 0.950 . S
C690 C686 1.385 . S
C690 C689 1.374 . S
C691 C688 1.499 . S
C691 C692 1.373 . S
C691 C693 1.389 . S
C692 H671 0.950 . S
C692 C691 1.373 . S
C692 C708 1.377 . S
C693 C691 1.389 . S
C693 C694 1.524 . S
C693 C707 1.377 . S
C694 C693 1.524 . S
C694 C695 1.397 . S
C694 C699 1.363 1_565 S
C695 H672 0.950 . S
C695 C694 1.397 . S
C695 C696 1.334 1_565 S
C696 H673 0.950 . S
C696 C695 1.334 1_545 S
C696 C697 1.287 . S
C697 C696 1.287 . S
C697 C698 1.524 . S
C697 H716 0.913 . S
C698 H674 0.950 . S
C698 C697 1.524 . S
C698 C699 1.415 . S
C699 H675 0.950 . S
C699 C694 1.363 1_545 S
C699 C698 1.415 . S
C700 H676 0.951 . S
C700 C701 1.366 . S
C700 C702 1.388 . S
C701 C700 1.366 . S
C701 C705 1.379 1_565 S
C702 H677 0.951 . S
C702 C700 1.388 . S
C702 C703 1.366 . S
C703 C702 1.366 . S
C703 C704 1.414 . S
C703 C706 1.499 . S
C704 H678 0.950 . S
C704 C703 1.414 . S
C704 C705 1.345 1_565 S
C705 H679 0.986 . S
C705 C701 1.379 1_545 S
C705 C704 1.345 1_545 S
C706 C703 1.499 . S
C706 C707 1.373 . S
C706 C708 1.389 . S
C707 H680 0.950 . S
C707 C693 1.377 . S
C707 C706 1.373 . S
C708 C692 1.377 . S
C708 C706 1.389 . S
C708 C709 1.524 . S
C709 C708 1.524 . S
C709 C710 1.397 . S
C709 C714 1.363 . S
C710 H681 0.950 . S
C710 C709 1.397 . S
C710 C711 1.334 . S
C711 H682 0.950 . S
C711 C710 1.334 . S
C711 C712 1.287 . S
C712 C711 1.287 . S
C712 C713 1.524 . S
C712 H715 0.999 . S
C713 H683 0.950 . S
C713 C712 1.524 . S
C713 C714 1.415 . S
C714 H684 0.950 . S
C714 C709 1.363 . S
C714 C713 1.415 . S
H715 C712 0.999 . S
H716 C697 0.913 . S
H717 C735 0.951 . S
H718 C737 0.951 . S
H719 C739 0.950 . S
H720 C740 0.950 . S
H721 C742 0.950 . S
H722 C745 0.950 . S
H723 C746 0.950 . S
H724 C748 0.950 . S
H725 C749 0.950 . S
H726 C750 0.951 . S
H727 C752 0.951 . S
H728 C754 0.950 . S
H729 C755 0.950 . S
H730 C757 0.950 . S
H731 C760 0.950 . S
H732 C761 0.950 . S
H733 C763 0.950 . S
H734 C764 0.950 . S
C735 H717 0.951 . S
C735 C736 1.366 . S
C735 C737 1.388 . S
C736 C735 1.366 . S
C736 C740 1.385 . S
C737 H718 0.951 . S
C737 C735 1.388 . S
C737 C738 1.366 . S
C738 C737 1.366 . S
C738 C739 1.414 . S
C738 C741 1.499 . S
C739 H719 0.950 . S
C739 C738 1.414 . S
C739 C740 1.374 . S
C740 H720 0.950 . S
C740 C736 1.385 . S
C740 C739 1.374 . S
C741 C738 1.499 . S
C741 C742 1.373 . S
C741 C743 1.389 . S
C742 H721 0.950 . S
C742 C741 1.373 . S
C742 C758 1.377 . S
C743 C741 1.389 . S
C743 C744 1.524 . S
C743 C757 1.377 . S
C744 C743 1.524 . S
C744 C745 1.397 . S
C744 C749 1.363 . S
C745 H722 0.950 . S
C745 C744 1.397 . S
C745 C746 1.334 . S
C746 H723 0.950 . S
C746 C745 1.334 . S
C746 C747 1.287 . S
C747 C746 1.287 . S
C747 C748 1.524 . S
C747 H766 0.913 . S
C748 H724 0.950 . S
C748 C747 1.524 . S
C748 C749 1.415 . S
C749 H725 0.950 . S
C749 C744 1.363 . S
C749 C748 1.415 . S
C750 H726 0.951 . S
C750 C751 1.366 . S
C750 C752 1.388 . S
C751 C750 1.366 . S
C751 C755 1.385 . S
C752 H727 0.951 . S
C752 C750 1.388 . S
C752 C753 1.366 . S
C753 C752 1.366 . S
C753 C754 1.414 . S
C753 C756 1.499 . S
C754 H728 0.950 . S
C754 C753 1.414 . S
C754 C755 1.374 . S
C755 H729 0.950 . S
C755 C751 1.385 . S
C755 C754 1.374 . S
C756 C753 1.499 . S
C756 C757 1.373 . S
C756 C758 1.389 . S
C757 H730 0.950 . S
C757 C743 1.377 . S
C757 C756 1.373 . S
C758 C742 1.377 . S
C758 C756 1.389 . S
C758 C759 1.524 . S
C759 C758 1.524 . S
C759 C760 1.397 . S
C759 C764 1.363 . S
C760 H731 0.950 . S
C760 C759 1.397 . S
C760 C761 1.334 . S
C761 H732 0.950 . S
C761 C760 1.334 . S
C761 C762 1.287 . S
C762 C761 1.287 . S
C762 C763 1.524 . S
C762 H765 0.999 . S
C763 H733 0.950 . S
C763 C762 1.524 . S
C763 C764 1.415 . S
C764 H734 0.950 . S
C764 C759 1.363 . S
C764 C763 1.415 . S
H765 C762 0.999 . S
H766 C747 0.913 . S
H767 C785 0.951 1_455 S
H768 C787 0.951 . S
H769 C789 0.950 . S
H770 C790 0.950 . S
H771 C792 0.950 . S
H772 C795 0.950 . S
H773 C796 0.950 . S
H774 C798 0.950 . S
H775 C799 0.950 . S
H776 C800 0.951 . S
H777 C802 0.951 . S
H778 C804 0.950 . S
H779 C805 0.950 . S
H780 C807 0.950 . S
H781 C810 0.950 . S
H782 C811 0.950 . S
H783 C813 0.950 . S
H784 C814 0.950 . S
C785 H767 0.951 1_655 S
C785 C786 1.366 . S
C785 C787 1.388 . S
C786 C785 1.366 . S
C786 C790 1.385 . S
C787 H768 0.951 . S
C787 C785 1.388 . S
C787 C788 1.366 . S
C788 C787 1.366 . S
C788 C789 1.414 . S
C788 C791 1.499 . S
C789 H769 0.950 . S
C789 C788 1.414 . S
C789 C790 1.374 . S
C790 H770 0.950 . S
C790 C786 1.385 . S
C790 C789 1.374 . S
C791 C788 1.499 . S
C791 C792 1.373 . S
C791 C793 1.389 . S
C792 H771 0.950 . S
C792 C791 1.373 . S
C792 C808 1.377 . S
C793 C791 1.389 . S
C793 C794 1.495 1_655 S
C793 C807 1.377 . S
C794 C793 1.495 1_455 S
C794 C795 1.427 . S
C794 C799 1.361 . S
C795 H772 0.950 . S
C795 C794 1.427 . S
C795 C796 1.334 . S
C796 H773 0.950 . S
C796 C795 1.334 . S
C796 C797 1.287 . S
C797 C796 1.287 . S
C797 C798 1.524 . S
C797 H816 0.913 . S
C798 H774 0.950 . S
C798 C797 1.524 . S
C798 C799 1.415 . S
C799 H775 0.950 . S
C799 C794 1.361 . S
C799 C798 1.415 . S
C800 H776 0.951 . S
C800 C801 1.366 . S
C800 C802 1.388 . S
C801 C800 1.366 . S
C801 C805 1.385 . S
C802 H777 0.951 . S
C802 C800 1.388 . S
C802 C803 1.366 . S
C803 C802 1.366 . S
C803 C804 1.414 . S
C803 C806 1.499 . S
C804 H778 0.950 . S
C804 C803 1.414 . S
C804 C805 1.374 . S
C805 H779 0.950 . S
C805 C801 1.385 . S
C805 C804 1.374 . S
C806 C803 1.499 . S
C806 C807 1.373 . S
C806 C808 1.389 . S
C807 H780 0.950 . S
C807 C793 1.377 . S
C807 C806 1.373 . S
C808 C792 1.377 . S
C808 C806 1.389 . S
C808 C809 1.524 . S
C809 C808 1.524 . S
C809 C810 1.397 . S
C809 C814 1.363 . S
C810 H781 0.950 . S
C810 C809 1.397 . S
C810 C811 1.334 . S
C811 H782 0.950 . S
C811 C810 1.334 . S
C811 C812 1.287 . S
C812 C811 1.287 . S
C812 C813 1.524 . S
C812 H815 0.999 . S
C813 H783 0.950 . S
C813 C812 1.524 . S
C813 C814 1.415 . S
C814 H784 0.950 . S
C814 C809 1.363 . S
C814 C813 1.415 . S
H815 C812 0.999 . S
H816 C797 0.913 . S
H817 C835 0.951 . S
H818 C837 0.951 . S
H819 C839 0.950 . S
H820 C840 0.950 . S
H821 C842 0.950 . S
H822 C845 0.950 . S
H823 C846 0.950 . S
H824 C848 0.950 . S
H825 C849 0.950 . S
H826 C850 0.951 . S
H827 C852 0.951 . S
H828 C854 0.950 . S
H829 C855 0.950 . S
H830 C857 0.950 . S
H831 C860 0.950 . S
H832 C861 0.950 . S
H833 C863 0.950 . S
H834 C864 0.950 . S
C835 H817 0.951 . S
C835 C836 1.366 . S
C835 C837 1.388 . S
C836 C835 1.366 . S
C836 C840 1.385 . S
C837 H818 0.951 . S
C837 C835 1.388 . S
C837 C838 1.366 . S
C838 C837 1.366 . S
C838 C839 1.414 . S
C838 C841 1.499 . S
C839 H819 0.950 . S
C839 C838 1.414 . S
C839 C840 1.374 . S
C840 H820 0.950 . S
C840 C836 1.385 . S
C840 C839 1.374 . S
C841 C838 1.499 . S
C841 C842 1.373 . S
C841 C843 1.389 . S
C842 H821 0.950 . S
C842 C841 1.373 . S
C842 C858 1.377 . S
C843 C841 1.389 . S
C843 C844 1.524 . S
C843 C857 1.377 . S
C844 C843 1.524 . S
C844 C845 1.397 . S
C844 C849 1.363 . S
C845 H822 0.950 . S
C845 C844 1.397 . S
C845 C846 1.334 . S
C846 H823 0.950 . S
C846 C845 1.334 . S
C846 C847 1.287 . S
C847 C846 1.287 . S
C847 C848 1.524 . S
C847 H866 0.913 . S
C848 H824 0.950 . S
C848 C847 1.524 . S
C848 C849 1.415 . S
C849 H825 0.950 . S
C849 C844 1.363 . S
C849 C848 1.415 . S
C850 H826 0.951 . S
C850 C851 1.366 . S
C850 C852 1.388 . S
C851 C850 1.366 . S
C851 C855 1.385 . S
C852 H827 0.951 . S
C852 C850 1.388 . S
C852 C853 1.366 . S
C853 C852 1.366 . S
C853 C854 1.414 . S
C853 C856 1.499 . S
C854 H828 0.950 . S
C854 C853 1.414 . S
C854 C855 1.374 . S
C855 H829 0.950 . S
C855 C851 1.385 . S
C855 C854 1.374 . S
C856 C853 1.499 . S
C856 C857 1.373 . S
C856 C858 1.389 . S
C857 H830 0.950 . S
C857 C843 1.377 . S
C857 C856 1.373 . S
C858 C842 1.377 . S
C858 C856 1.389 . S
C858 C859 1.524 . S
C859 C858 1.524 . S
C859 C860 1.397 . S
C859 C864 1.363 . S
C860 H831 0.950 . S
C860 C859 1.397 . S
C860 C861 1.334 . S
C861 H832 0.950 . S
C861 C860 1.334 . S
C861 C862 1.287 . S
C862 C861 1.287 . S
C862 C863 1.524 . S
C862 H865 0.999 . S
C863 H833 0.950 . S
C863 C862 1.524 . S
C863 C864 1.415 . S
C864 H834 0.950 . S
C864 C859 1.363 . S
C864 C863 1.415 . S
H865 C862 0.999 . S
H866 C847 0.913 . S
H867 C885 0.951 . S
H868 C887 0.951 . S
H869 C889 0.950 . S
H870 C890 0.950 . S
H871 C892 0.950 . S
H872 C895 0.950 . S
H873 C896 0.950 . S
H874 C898 0.950 . S
H875 C899 0.950 . S
H876 C900 0.951 . S
H877 C902 0.951 . S
H878 C904 0.950 . S
H879 C905 0.950 . S
H880 C907 0.950 . S
H881 C910 0.950 . S
H882 C911 0.950 . S
H883 C913 0.950 . S
H884 C914 0.950 . S
C885 H867 0.951 . S
C885 C886 1.366 . S
C885 C887 1.388 . S
C886 C885 1.366 . S
C886 C890 1.385 . S
C887 H868 0.951 . S
C887 C885 1.388 . S
C887 C888 1.366 . S
C888 C887 1.366 . S
C888 C889 1.414 . S
C888 C891 1.499 . S
C889 H869 0.950 . S
C889 C888 1.414 . S
C889 C890 1.374 . S
C890 H870 0.950 . S
C890 C886 1.385 . S
C890 C889 1.374 . S
C891 C888 1.499 . S
C891 C892 1.373 . S
C891 C893 1.389 . S
C892 H871 0.950 . S
C892 C891 1.373 . S
C892 C908 1.377 1_455 S
C893 C891 1.389 . S
C893 C894 1.524 . S
C893 C907 1.377 . S
C894 C893 1.524 . S
C894 C895 1.397 . S
C894 C899 1.363 . S
C895 H872 0.950 . S
C895 C894 1.397 . S
C895 C896 1.334 . S
C896 H873 0.950 . S
C896 C895 1.334 . S
C896 C897 1.287 . S
C897 C896 1.287 . S
C897 C898 1.524 . S
C897 H916 0.913 . S
C898 H874 0.950 . S
C898 C897 1.524 . S
C898 C899 1.415 . S
C899 H875 0.950 . S
C899 C894 1.363 . S
C899 C898 1.415 . S
C900 H876 0.951 . S
C900 C901 1.366 . S
C900 C902 1.388 . S
C901 C900 1.366 . S
C901 C905 1.385 . S
C902 H877 0.951 . S
C902 C900 1.388 . S
C902 C903 1.366 . S
C903 C902 1.366 . S
C903 C904 1.414 . S
C903 C906 1.499 . S
C904 H878 0.950 . S
C904 C903 1.414 . S
C904 C905 1.374 . S
C905 H879 0.950 . S
C905 C901 1.385 . S
C905 C904 1.374 . S
C906 C903 1.499 . S
C906 C907 1.373 1_655 S
C906 C908 1.389 . S
C907 H880 0.950 . S
C907 C893 1.377 . S
C907 C906 1.373 1_455 S
C908 C892 1.377 1_655 S
C908 C906 1.389 . S
C908 C909 1.524 . S
C909 C908 1.524 . S
C909 C910 1.397 . S
C909 C914 1.363 . S
C910 H881 0.950 . S
C910 C909 1.397 . S
C910 C911 1.334 . S
C911 H882 0.950 . S
C911 C910 1.334 . S
C911 C912 1.287 . S
C912 C911 1.287 . S
C912 C913 1.524 . S
C912 H915 0.999 . S
C913 H883 0.950 . S
C913 C912 1.524 . S
C913 C914 1.415 . S
C914 H884 0.950 . S
C914 C909 1.363 . S
C914 C913 1.415 . S
H915 C912 0.999 . S
H916 C897 0.913 . S
H917 C935 0.951 . S
H918 C937 0.951 . S
H919 C939 0.950 . S
H920 C940 0.950 . S
H921 C942 0.950 . S
H922 C945 0.950 . S
H923 C946 0.950 . S
H924 C948 0.950 . S
H925 C949 0.950 . S
H926 C950 0.951 . S
H927 C952 0.951 . S
H928 C954 0.950 . S
H929 C955 0.950 . S
H930 C957 0.950 . S
H931 C960 0.950 . S
H932 C961 0.950 . S
H933 C963 0.950 . S
H934 C964 0.950 . S
C935 H917 0.951 . S
C935 C936 1.366 . S
C935 C937 1.388 . S
C936 C935 1.366 . S
C936 C940 1.385 . S
C937 H918 0.951 . S
C937 C935 1.388 . S
C937 C938 1.366 . S
C938 C937 1.366 . S
C938 C939 1.414 . S
C938 C941 1.499 . S
C939 H919 0.950 . S
C939 C938 1.414 . S
C939 C940 1.374 . S
C940 H920 0.950 . S
C940 C936 1.385 . S
C940 C939 1.374 . S
C941 C938 1.499 . S
C941 C942 1.373 . S
C941 C943 1.389 . S
C942 H921 0.950 . S
C942 C941 1.373 . S
C942 C958 1.377 . S
C943 C941 1.389 . S
C943 C944 1.524 . S
C943 C957 1.377 . S
C944 C943 1.524 . S
C944 C945 1.397 . S
C944 C949 1.363 . S
C945 H922 0.950 . S
C945 C944 1.397 . S
C945 C946 1.334 . S
C946 H923 0.950 . S
C946 C945 1.334 . S
C946 C947 1.287 . S
C947 C946 1.287 . S
C947 C948 1.524 . S
C947 H966 0.913 . S
C948 H924 0.950 . S
C948 C947 1.524 . S
C948 C949 1.415 . S
C949 H925 0.950 . S
C949 C944 1.363 . S
C949 C948 1.415 . S
C950 H926 0.951 . S
C950 C951 1.366 . S
C950 C952 1.388 . S
C951 C950 1.366 . S
C951 C955 1.385 . S
C952 H927 0.951 . S
C952 C950 1.388 . S
C952 C953 1.366 . S
C953 C952 1.366 . S
C953 C954 1.414 . S
C953 C956 1.499 . S
C954 H928 0.950 . S
C954 C953 1.414 . S
C954 C955 1.374 . S
C955 H929 0.950 . S
C955 C951 1.385 . S
C955 C954 1.374 . S
C956 C953 1.499 . S
C956 C957 1.373 . S
C956 C958 1.389 . S
C957 H930 0.950 . S
C957 C943 1.377 . S
C957 C956 1.373 . S
C958 C942 1.377 . S
C958 C956 1.389 . S
C958 C959 1.524 . S
C959 C958 1.524 . S
C959 C960 1.397 . S
C959 C964 1.363 . S
C960 H931 0.950 . S
C960 C959 1.397 . S
C960 C961 1.334 . S
C961 H932 0.950 . S
C961 C960 1.334 . S
C961 C962 1.287 . S
C962 C961 1.287 . S
C962 C963 1.524 . S
C962 H965 0.999 . S
C963 H933 0.950 . S
C963 C962 1.524 . S
C963 C964 1.415 . S
C964 H934 0.950 . S
C964 C959 1.363 . S
C964 C963 1.415 . S
H965 C962 0.999 . S
H966 C947 0.913 . S
H967 C985 0.951 . S
H968 C987 0.951 . S
H969 C989 0.950 . S
H970 C990 0.950 . S
H971 C992 0.924 1_565 S
H972 C995 0.950 . S
H973 C996 0.950 . S
H974 C998 0.950 . S
H975 C999 0.950 . S
H976 C1000 0.951 . S
H977 C1002 0.951 . S
H978 C1004 0.950 . S
H979 C1005 0.950 . S
H980 C1007 0.950 . S
H981 C1010 0.950 . S
H982 C1011 0.950 . S
H983 C1013 0.950 . S
H984 C1014 0.950 1_565 S
C985 H967 0.951 . S
C985 C986 1.366 . S
C985 C987 1.388 . S
C986 C985 1.366 . S
C986 C990 1.385 . S
C987 H968 0.951 . S
C987 C985 1.388 . S
C987 C988 1.366 . S
C988 C987 1.366 . S
C988 C989 1.414 . S
C988 C991 1.499 1_565 S
C989 H969 0.950 . S
C989 C988 1.414 . S
C989 C990 1.374 . S
C990 H970 0.950 . S
C990 C986 1.385 . S
C990 C989 1.374 . S
C991 C988 1.499 1_545 S
C991 C992 1.372 . S
C991 C993 1.389 . S
C992 H971 0.924 1_545 S
C992 C991 1.372 . S
C992 C1008 1.405 . S
C993 C991 1.389 . S
C993 C994 1.524 . S
C993 C1007 1.377 . S
C994 C993 1.524 . S
C994 C995 1.397 . S
C994 C999 1.363 . S
C995 H972 0.950 . S
C995 C994 1.397 . S
C995 C996 1.334 . S
C996 H973 0.950 . S
C996 C995 1.334 . S
C996 C997 1.287 . S
C997 C996 1.287 . S
C997 C998 1.524 . S
C997 H1016 0.913 . S
C998 H974 0.950 . S
C998 C997 1.524 . S
C998 C999 1.415 . S
C999 H975 0.950 . S
C999 C994 1.363 . S
C999 C998 1.415 . S
C1000 H976 0.951 . S
C1000 C1001 1.366 . S
C1000 C1002 1.388 . S
C1001 C1000 1.366 . S
C1001 C1005 1.385 . S
C1002 H977 0.951 . S
C1002 C1000 1.388 . S
C1002 C1003 1.366 . S
C1003 C1002 1.366 . S
C1003 C1004 1.414 . S
C1003 C1006 1.499 . S
C1004 H978 0.950 . S
C1004 C1003 1.414 . S
C1004 C1005 1.374 . S
C1005 H979 0.950 . S
C1005 C1001 1.385 . S
C1005 C1004 1.374 . S
C1006 C1003 1.499 . S
C1006 C1007 1.373 . S
C1006 C1008 1.389 . S
C1007 H980 0.950 . S
C1007 C993 1.377 . S
C1007 C1006 1.373 . S
C1008 C992 1.405 . S
C1008 C1006 1.389 . S
C1008 C1009 1.524 . S
C1009 C1008 1.524 . S
C1009 C1010 1.397 . S
C1009 C1014 1.363 . S
C1010 H981 0.950 . S
C1010 C1009 1.397 . S
C1010 C1011 1.334 . S
C1011 H982 0.950 . S
C1011 C1010 1.334 . S
C1011 C1012 1.287 . S
C1012 C1011 1.287 . S
C1012 C1013 1.524 1_545 S
C1012 H1015 0.999 . S
C1013 H983 0.950 . S
C1013 C1012 1.524 1_565 S
C1013 C1014 1.415 1_565 S
C1014 H984 0.950 1_545 S
C1014 C1009 1.363 . S
C1014 C1013 1.415 1_545 S
H1015 C1012 0.999 . S
H1016 C997 0.913 . S
C136 C31 0.970 . S
C151 C5 0.970 . S
C186 C18 0.970 . S
C201 C3 0.970 . S
C236 C16 0.970 . S
C251 C29 0.971 . S
C286 C70 0.970 . S
C301 C44 0.971 . S
C336 C57 0.971 . S
C351 C42 0.970 . S
C386 C55 0.970 . S
C401 C68 0.971 . S
C436 C83 0.970 . S
C451 C109 0.970 . S
C486 C81 0.971 . S
C501 C96 0.970 . S
C536 C94 0.970 . S
C551 C107 0.970 . S
C586 C10 1.393 . S
C601 C95 1.393 . S
C636 C23 1.393 . S
C651 C114 1.393 . S
C686 C82 1.393 . S
C701 C30 1.393 1_565 S
C736 C62 1.393 . S
C751 C36 1.393 . S
C786 C4 1.361 1_655 S
C801 C69 1.393 . S
C836 C49 1.393 . S
C851 C17 1.393 . S
C886 C101 1.393 . S
C901 C75 1.393 . S
C936 C43 1.393 . S
C951 C108 1.393 . S
C986 C88 1.393 . S
C1001 C56 1.393 . S
