# Generated by pormake.
# Topology xfp, (7)-cn, num edge types: 1
# Building blocks:
#     Node 0, Type 0, BuildingBlock: OLANEW_clean_sbu_0, # of connection points: 7
#     Node 1, Type 0, BuildingBlock: OLANEW_clean_sbu_0, # of connection points: 7
#     Node 2, Type 0, BuildingBlock: OLANEW_clean_sbu_0, # of connection points: 7
#     Node 3, Type 0, BuildingBlock: OLANEW_clean_sbu_0, # of connection points: 7
#     Node 4, Type 0, BuildingBlock: OLANEW_clean_sbu_0, # of connection points: 7
#     Node 5, Type 0, BuildingBlock: OLANEW_clean_sbu_0, # of connection points: 7
#     Node 6, Type 0, BuildingBlock: OLANEW_clean_sbu_0, # of connection points: 7
#     Node 7, Type 0, BuildingBlock: OLANEW_clean_sbu_0, # of connection points: 7
#     Node 8, Type 0, BuildingBlock: OLANEW_clean_sbu_0, # of connection points: 7
#     Node 9, Type 0, BuildingBlock: OLANEW_clean_sbu_0, # of connection points: 7
#     Node 10, Type 0, BuildingBlock: OLANEW_clean_sbu_0, # of connection points: 7
#     Node 11, Type 0, BuildingBlock: OLANEW_clean_sbu_0, # of connection points: 7
#     Node 12, Type 0, BuildingBlock: OLANEW_clean_sbu_0, # of connection points: 7
#     Node 13, Type 0, BuildingBlock: OLANEW_clean_sbu_0, # of connection points: 7
#     Node 14, Type 0, BuildingBlock: OLANEW_clean_sbu_0, # of connection points: 7
#     Node 15, Type 0, BuildingBlock: OLANEW_clean_sbu_0, # of connection points: 7
#     Node 16, Type 0, BuildingBlock: OLANEW_clean_sbu_0, # of connection points: 7
#     Node 17, Type 0, BuildingBlock: OLANEW_clean_sbu_0, # of connection points: 7
#     Node 18, Type 0, BuildingBlock: OLANEW_clean_sbu_0, # of connection points: 7
#     Node 19, Type 0, BuildingBlock: OLANEW_clean_sbu_0, # of connection points: 7
#     Node 20, Type 0, BuildingBlock: OLANEW_clean_sbu_0, # of connection points: 7
#     Node 21, Type 0, BuildingBlock: OLANEW_clean_sbu_0, # of connection points: 7
#     Node 22, Type 0, BuildingBlock: OLANEW_clean_sbu_0, # of connection points: 7
#     Node 23, Type 0, BuildingBlock: OLANEW_clean_sbu_0, # of connection points: 7
#     Node 24, Type 0, BuildingBlock: OLANEW_clean_sbu_0, # of connection points: 7
#     Node 25, Type 0, BuildingBlock: OLANEW_clean_sbu_0, # of connection points: 7
#     Node 26, Type 0, BuildingBlock: OLANEW_clean_sbu_0, # of connection points: 7
#     Node 27, Type 0, BuildingBlock: OLANEW_clean_sbu_0, # of connection points: 7
#     Node 28, Type 0, BuildingBlock: OLANEW_clean_sbu_0, # of connection points: 7
#     Node 29, Type 0, BuildingBlock: OLANEW_clean_sbu_0, # of connection points: 7
#     Node 30, Type 0, BuildingBlock: OLANEW_clean_sbu_0, # of connection points: 7
#     Node 31, Type 0, BuildingBlock: OLANEW_clean_sbu_0, # of connection points: 7
#     Edge 32, Type (0, 0), BuildingBlock: AJUNOK_clean_linker_0, # of connection points: 2
#     Edge 33, Type (0, 0), BuildingBlock: AJUNOK_clean_linker_0, # of connection points: 2
#     Edge 34, Type (0, 0), BuildingBlock: AJUNOK_clean_linker_0, # of connection points: 2
#     Edge 35, Type (0, 0), BuildingBlock: AJUNOK_clean_linker_0, # of connection points: 2
#     Edge 36, Type (0, 0), BuildingBlock: AJUNOK_clean_linker_0, # of connection points: 2
#     Edge 37, Type (0, 0), BuildingBlock: AJUNOK_clean_linker_0, # of connection points: 2
#     Edge 38, Type (0, 0), BuildingBlock: AJUNOK_clean_linker_0, # of connection points: 2
#     Edge 39, Type (0, 0), BuildingBlock: AJUNOK_clean_linker_0, # of connection points: 2
#     Edge 40, Type (0, 0), BuildingBlock: AJUNOK_clean_linker_0, # of connection points: 2
#     Edge 41, Type (0, 0), BuildingBlock: AJUNOK_clean_linker_0, # of connection points: 2
#     Edge 42, Type (0, 0), BuildingBlock: AJUNOK_clean_linker_0, # of connection points: 2
#     Edge 43, Type (0, 0), BuildingBlock: AJUNOK_clean_linker_0, # of connection points: 2
#     Edge 44, Type (0, 0), BuildingBlock: AJUNOK_clean_linker_0, # of connection points: 2
#     Edge 45, Type (0, 0), BuildingBlock: AJUNOK_clean_linker_0, # of connection points: 2
#     Edge 46, Type (0, 0), BuildingBlock: AJUNOK_clean_linker_0, # of connection points: 2
#     Edge 47, Type (0, 0), BuildingBlock: AJUNOK_clean_linker_0, # of connection points: 2
#     Edge 48, Type (0, 0), BuildingBlock: AJUNOK_clean_linker_0, # of connection points: 2
#     Edge 49, Type (0, 0), BuildingBlock: AJUNOK_clean_linker_0, # of connection points: 2
#     Edge 50, Type (0, 0), BuildingBlock: AJUNOK_clean_linker_0, # of connection points: 2
#     Edge 51, Type (0, 0), BuildingBlock: AJUNOK_clean_linker_0, # of connection points: 2
#     Edge 52, Type (0, 0), BuildingBlock: AJUNOK_clean_linker_0, # of connection points: 2
#     Edge 53, Type (0, 0), BuildingBlock: AJUNOK_clean_linker_0, # of connection points: 2
#     Edge 54, Type (0, 0), BuildingBlock: AJUNOK_clean_linker_0, # of connection points: 2
#     Edge 55, Type (0, 0), BuildingBlock: AJUNOK_clean_linker_0, # of connection points: 2
#     Edge 56, Type (0, 0), BuildingBlock: AJUNOK_clean_linker_0, # of connection points: 2
#     Edge 57, Type (0, 0), BuildingBlock: AJUNOK_clean_linker_0, # of connection points: 2
#     Edge 58, Type (0, 0), BuildingBlock: AJUNOK_clean_linker_0, # of connection points: 2
#     Edge 59, Type (0, 0), BuildingBlock: AJUNOK_clean_linker_0, # of connection points: 2
#     Edge 60, Type (0, 0), BuildingBlock: AJUNOK_clean_linker_0, # of connection points: 2
#     Edge 61, Type (0, 0), BuildingBlock: AJUNOK_clean_linker_0, # of connection points: 2
#     Edge 62, Type (0, 0), BuildingBlock: AJUNOK_clean_linker_0, # of connection points: 2
#     Edge 63, Type (0, 0), BuildingBlock: AJUNOK_clean_linker_0, # of connection points: 2
#     Edge 64, Type (0, 0), BuildingBlock: AJUNOK_clean_linker_0, # of connection points: 2
#     Edge 65, Type (0, 0), BuildingBlock: AJUNOK_clean_linker_0, # of connection points: 2
#     Edge 66, Type (0, 0), BuildingBlock: AJUNOK_clean_linker_0, # of connection points: 2
#     Edge 67, Type (0, 0), BuildingBlock: AJUNOK_clean_linker_0, # of connection points: 2
#     Edge 68, Type (0, 0), BuildingBlock: AJUNOK_clean_linker_0, # of connection points: 2
#     Edge 69, Type (0, 0), BuildingBlock: AJUNOK_clean_linker_0, # of connection points: 2
#     Edge 70, Type (0, 0), BuildingBlock: AJUNOK_clean_linker_0, # of connection points: 2
#     Edge 71, Type (0, 0), BuildingBlock: AJUNOK_clean_linker_0, # of connection points: 2
#     Edge 72, Type (0, 0), BuildingBlock: AJUNOK_clean_linker_0, # of connection points: 2
#     Edge 73, Type (0, 0), BuildingBlock: AJUNOK_clean_linker_0, # of connection points: 2
#     Edge 74, Type (0, 0), BuildingBlock: AJUNOK_clean_linker_0, # of connection points: 2
#     Edge 75, Type (0, 0), BuildingBlock: AJUNOK_clean_linker_0, # of connection points: 2
#     Edge 76, Type (0, 0), BuildingBlock: AJUNOK_clean_linker_0, # of connection points: 2
#     Edge 77, Type (0, 0), BuildingBlock: AJUNOK_clean_linker_0, # of connection points: 2
#     Edge 78, Type (0, 0), BuildingBlock: AJUNOK_clean_linker_0, # of connection points: 2
#     Edge 79, Type (0, 0), BuildingBlock: AJUNOK_clean_linker_0, # of connection points: 2
#     Edge 80, Type (0, 0), BuildingBlock: AJUNOK_clean_linker_0, # of connection points: 2
#     Edge 81, Type (0, 0), BuildingBlock: AJUNOK_clean_linker_0, # of connection points: 2
#     Edge 82, Type (0, 0), BuildingBlock: AJUNOK_clean_linker_0, # of connection points: 2
#     Edge 83, Type (0, 0), BuildingBlock: AJUNOK_clean_linker_0, # of connection points: 2
#     Edge 84, Type (0, 0), BuildingBlock: AJUNOK_clean_linker_0, # of connection points: 2
#     Edge 85, Type (0, 0), BuildingBlock: AJUNOK_clean_linker_0, # of connection points: 2
#     Edge 86, Type (0, 0), BuildingBlock: AJUNOK_clean_linker_0, # of connection points: 2
#     Edge 87, Type (0, 0), BuildingBlock: AJUNOK_clean_linker_0, # of connection points: 2
#     Edge 88, Type (0, 0), BuildingBlock: AJUNOK_clean_linker_0, # of connection points: 2
#     Edge 89, Type (0, 0), BuildingBlock: AJUNOK_clean_linker_0, # of connection points: 2
#     Edge 90, Type (0, 0), BuildingBlock: AJUNOK_clean_linker_0, # of connection points: 2
#     Edge 91, Type (0, 0), BuildingBlock: AJUNOK_clean_linker_0, # of connection points: 2
#     Edge 92, Type (0, 0), BuildingBlock: AJUNOK_clean_linker_0, # of connection points: 2
#     Edge 93, Type (0, 0), BuildingBlock: AJUNOK_clean_linker_0, # of connection points: 2
#     Edge 94, Type (0, 0), BuildingBlock: AJUNOK_clean_linker_0, # of connection points: 2
#     Edge 95, Type (0, 0), BuildingBlock: AJUNOK_clean_linker_0, # of connection points: 2
#     Edge 96, Type (0, 0), BuildingBlock: AJUNOK_clean_linker_0, # of connection points: 2
#     Edge 97, Type (0, 0), BuildingBlock: AJUNOK_clean_linker_0, # of connection points: 2
#     Edge 98, Type (0, 0), BuildingBlock: AJUNOK_clean_linker_0, # of connection points: 2
#     Edge 99, Type (0, 0), BuildingBlock: AJUNOK_clean_linker_0, # of connection points: 2
#     Edge 100, Type (0, 0), BuildingBlock: AJUNOK_clean_linker_0, # of connection points: 2
#     Edge 101, Type (0, 0), BuildingBlock: AJUNOK_clean_linker_0, # of connection points: 2
#     Edge 102, Type (0, 0), BuildingBlock: AJUNOK_clean_linker_0, # of connection points: 2
#     Edge 103, Type (0, 0), BuildingBlock: AJUNOK_clean_linker_0, # of connection points: 2
#     Edge 104, Type (0, 0), BuildingBlock: AJUNOK_clean_linker_0, # of connection points: 2
#     Edge 105, Type (0, 0), BuildingBlock: AJUNOK_clean_linker_0, # of connection points: 2
#     Edge 106, Type (0, 0), BuildingBlock: AJUNOK_clean_linker_0, # of connection points: 2
#     Edge 107, Type (0, 0), BuildingBlock: AJUNOK_clean_linker_0, # of connection points: 2
#     Edge 108, Type (0, 0), BuildingBlock: AJUNOK_clean_linker_0, # of connection points: 2
#     Edge 109, Type (0, 0), BuildingBlock: AJUNOK_clean_linker_0, # of connection points: 2
#     Edge 110, Type (0, 0), BuildingBlock: AJUNOK_clean_linker_0, # of connection points: 2
#     Edge 111, Type (0, 0), BuildingBlock: AJUNOK_clean_linker_0, # of connection points: 2
#     Edge 112, Type (0, 0), BuildingBlock: AJUNOK_clean_linker_0, # of connection points: 2
#     Edge 113, Type (0, 0), BuildingBlock: AJUNOK_clean_linker_0, # of connection points: 2
#     Edge 114, Type (0, 0), BuildingBlock: AJUNOK_clean_linker_0, # of connection points: 2
#     Edge 115, Type (0, 0), BuildingBlock: AJUNOK_clean_linker_0, # of connection points: 2
#     Edge 116, Type (0, 0), BuildingBlock: AJUNOK_clean_linker_0, # of connection points: 2
#     Edge 117, Type (0, 0), BuildingBlock: AJUNOK_clean_linker_0, # of connection points: 2
#     Edge 118, Type (0, 0), BuildingBlock: AJUNOK_clean_linker_0, # of connection points: 2
#     Edge 119, Type (0, 0), BuildingBlock: AJUNOK_clean_linker_0, # of connection points: 2
#     Edge 120, Type (0, 0), BuildingBlock: AJUNOK_clean_linker_0, # of connection points: 2
#     Edge 121, Type (0, 0), BuildingBlock: AJUNOK_clean_linker_0, # of connection points: 2
#     Edge 122, Type (0, 0), BuildingBlock: AJUNOK_clean_linker_0, # of connection points: 2
#     Edge 123, Type (0, 0), BuildingBlock: AJUNOK_clean_linker_0, # of connection points: 2
#     Edge 124, Type (0, 0), BuildingBlock: AJUNOK_clean_linker_0, # of connection points: 2
#     Edge 125, Type (0, 0), BuildingBlock: AJUNOK_clean_linker_0, # of connection points: 2
#     Edge 126, Type (0, 0), BuildingBlock: AJUNOK_clean_linker_0, # of connection points: 2
#     Edge 127, Type (0, 0), BuildingBlock: AJUNOK_clean_linker_0, # of connection points: 2
#     Edge 128, Type (0, 0), BuildingBlock: AJUNOK_clean_linker_0, # of connection points: 2
#     Edge 129, Type (0, 0), BuildingBlock: AJUNOK_clean_linker_0, # of connection points: 2
#     Edge 130, Type (0, 0), BuildingBlock: AJUNOK_clean_linker_0, # of connection points: 2
#     Edge 131, Type (0, 0), BuildingBlock: AJUNOK_clean_linker_0, # of connection points: 2
#     Edge 132, Type (0, 0), BuildingBlock: AJUNOK_clean_linker_0, # of connection points: 2
#     Edge 133, Type (0, 0), BuildingBlock: AJUNOK_clean_linker_0, # of connection points: 2
#     Edge 134, Type (0, 0), BuildingBlock: AJUNOK_clean_linker_0, # of connection points: 2
#     Edge 135, Type (0, 0), BuildingBlock: AJUNOK_clean_linker_0, # of connection points: 2
#     Edge 136, Type (0, 0), BuildingBlock: AJUNOK_clean_linker_0, # of connection points: 2
#     Edge 137, Type (0, 0), BuildingBlock: AJUNOK_clean_linker_0, # of connection points: 2
#     Edge 138, Type (0, 0), BuildingBlock: AJUNOK_clean_linker_0, # of connection points: 2
#     Edge 139, Type (0, 0), BuildingBlock: AJUNOK_clean_linker_0, # of connection points: 2
#     Edge 140, Type (0, 0), BuildingBlock: AJUNOK_clean_linker_0, # of connection points: 2
#     Edge 141, Type (0, 0), BuildingBlock: AJUNOK_clean_linker_0, # of connection points: 2
#     Edge 142, Type (0, 0), BuildingBlock: AJUNOK_clean_linker_0, # of connection points: 2
#     Edge 143, Type (0, 0), BuildingBlock: AJUNOK_clean_linker_0, # of connection points: 2
# Relax obj value: 0.107
# Max RMSD: 0.172
# Mean RMSD: 0.172
data_MOF--net-xfp--node1-OLANEW_clean_sbu_0--edge1-AJUNOK_clean_linker_0
_symmetry_space_group_name_H-M    P1
_symmetry_Int_Tables_number       1
_symmetry_cell_setting            triclinic
loop_
_symmetry_equiv_pos_as_xyz
'x, y, z'
_cell_length_a     48.347236
_cell_length_b     48.267413
_cell_length_c     65.213537
_cell_angle_alpha  89.940647
_cell_angle_beta   90.011458
_cell_angle_gamma 90.116265
loop_
_atom_site_label
_atom_site_type_symbol
_atom_site_fract_x
_atom_site_fract_y
_atom_site_fract_z
_atom_type_partial_charge
Cd0 Cd 0.37646 0.07074 0.18943 0.0
C1 C 0.39764 0.01713 0.2229 0.0
C2 C 0.4548 0.05646 0.08175 0.0
O3 O 0.47895 0.06562 0.07532 0.0
Cd4 Cd 0.34474 0.03607 0.20255 0.0
C5 C 0.4297 0.06069 0.0696 0.0
C6 C 0.37772 0.06118 0.05096 0.0
C7 C 0.3825 0.04725 0.06944 0.0
N8 N 0.40774 0.04819 0.0777 0.0
C9 C 0.42665 0.07498 0.05105 0.0
C10 C 0.40021 0.07524 0.04177 0.0
Co11 Co 0.41339 0.02821 0.10157 0.0
C12 C 0.36326 0.03087 0.08181 0.0
O13 O 0.33696 0.02807 0.07708 0.0
C14 C 0.35858 0.00463 0.11352 0.0
C15 C 0.34389 0.01956 0.12787 0.0
C16 C 0.33269 0.00619 0.14477 0.0
C17 C 0.33309 0.9773 0.14575 0.0
C18 C 0.34745 0.96169 0.13085 0.0
C19 C 0.36006 0.97585 0.1146 0.0
C20 C 0.3315 0.02188 0.1637 0.0
C21 C 0.47574 0.0345 0.11174 0.0
C22 C 0.49365 0.05631 0.11738 0.0
C23 C 0.48531 0.00723 0.11338 0.0
C24 C 0.51201 0.00175 0.12007 0.0
C25 C 0.53004 0.02338 0.12448 0.0
C26 C 0.52152 0.05116 0.12233 0.0
N27 N 0.45198 0.0406 0.09919 0.0
N28 N 0.3745 0.01941 0.09904 0.0
N29 N 0.40541 0.05906 0.12036 0.0
C30 C 0.40042 0.08664 0.11318 0.0
C31 C 0.42287 0.10429 0.10951 0.0
C32 C 0.37454 0.09306 0.10486 0.0
C33 C 0.42009 0.12732 0.09645 0.0
H34 H 0.44285 0.09894 0.11581 0.0
C35 C 0.39422 0.13278 0.08745 0.0
C36 C 0.37122 0.11593 0.09175 0.0
C37 C 0.44432 0.14509 0.09153 0.0
H38 H 0.35742 0.07908 0.10746 0.0
H39 H 0.39199 0.15017 0.07708 0.0
C40 C 0.34421 0.12129 0.08164 0.0
O41 O 0.4415 0.16693 0.07872 0.0
O42 O 0.46697 0.14007 0.09898 0.0
O43 O 0.32421 0.10656 0.08535 0.0
O44 O 0.34162 0.14232 0.06808 0.0
H45 H 0.45701 0.17876 0.07527 0.0
H46 H 0.32427 0.14602 0.0612 0.0
N47 N 0.41881 0.0081 0.12531 0.0
C48 C 0.42417 0.98118 0.12301 0.0
C49 C 0.42819 0.96498 0.14055 0.0
C50 C 0.42611 0.97807 0.15989 0.0
C51 C 0.41993 0.00663 0.16134 0.0
C52 C 0.41616 0.02149 0.14312 0.0
N53 N 0.42139 0.99368 0.08741 0.0
C54 C 0.4253 0.9728 0.10133 0.0
O55 O 0.43043 0.94717 0.09569 0.0
C56 C 0.40863 0.05086 0.14067 0.0
O57 O 0.34722 0.10865 0.18117 0.0
O58 O 0.39124 0.11878 0.18132 0.0
C59 C 0.42094 0.98869 0.06582 0.0
C60 C 0.39908 0.9737 0.05662 0.0
C61 C 0.40062 0.96666 0.03571 0.0
C62 C 0.42377 0.97451 0.02437 0.0
C63 C 0.4455 0.98869 0.03362 0.0
C64 C 0.44425 0.99566 0.05432 0.0
O65 O 0.40222 0.04271 0.21839 0.0
O66 O 0.37776 0.0048 0.21423 0.0
O67 O 0.35085 0.03939 0.16648 0.0
O68 O 0.31684 0.01377 0.1786 0.0
O69 O 0.40858 0.06833 0.15719 0.0
C70 C 0.32932 0.07628 0.23328 0.0
O71 O 0.31995 0.05228 0.23002 0.0
O72 O 0.34818 0.0863 0.22156 0.0
C73 C 0.36628 0.12649 0.17843 0.0
H74 H 0.3575 0.06111 0.04383 0.0
H75 H 0.44399 0.0854 0.0439 0.0
H76 H 0.39721 0.08612 0.02743 0.0
H77 H 0.34441 0.04197 0.12729 0.0
H78 H 0.32369 0.96736 0.15891 0.0
H79 H 0.37171 0.96496 0.10312 0.0
H80 H 0.4867 0.07746 0.11548 0.0
H81 H 0.4737 0.9901 0.10755 0.0
H82 H 0.55126 0.01788 0.12761 0.0
H83 H 0.43278 0.94311 0.13942 0.0
H84 H 0.42913 0.96607 0.17374 0.0
H85 H 0.41799 0.01658 0.17613 0.0
H86 H 0.38133 0.96746 0.06565 0.0
H87 H 0.42532 0.96871 1.00832 0.0
H88 H 0.46172 0.00567 0.06163 0.0
Cd89 Cd 0.16905 0.13465 0.44078 0.0
C90 C 0.2126 0.15945 0.47188 0.0
C91 C 0.18448 0.20448 0.33055 0.0
O92 O 0.177 0.22748 0.32127 0.0
Cd93 Cd 0.2344 0.09823 0.47289 0.0
C94 C 0.17898 0.17721 0.32146 0.0
C95 C 0.17892 0.12215 0.30827 0.0
C96 C 0.18999 0.12993 0.32723 0.0
N97 N 0.18841 0.15647 0.33295 0.0
C98 C 0.16757 0.17109 0.30225 0.0
C99 C 0.16735 0.14312 0.2958 0.0
Co100 Co 0.20922 0.1664 0.35552 0.0
C101 C 0.20563 0.11308 0.34193 0.0
O102 O 0.20962 0.08634 0.33957 0.0
C103 C 0.23254 0.11555 0.37374 0.0
C104 C 0.2215 0.1075 0.39261 0.0
C105 C 0.23901 0.09666 0.40771 0.0
C106 C 0.26742 0.09421 0.40369 0.0
C107 C 0.2781 0.10217 0.38465 0.0
C108 C 0.26053 0.11308 0.36986 0.0
C109 C 0.22852 0.09012 0.4282 0.0
C110 C 0.19998 0.22862 0.36181 0.0
C111 C 0.17663 0.24594 0.36362 0.0
C112 C 0.22499 0.23738 0.37059 0.0
C113 C 0.22637 0.26178 0.38193 0.0
C114 C 0.20328 0.27882 0.38348 0.0
C115 C 0.17891 0.27196 0.37298 0.0
N116 N 0.19895 0.20452 0.34873 0.0
N117 N 0.21558 0.12737 0.35842 0.0
N118 N 0.17896 0.16402 0.37542 0.0
C119 C 0.1514 0.15511 0.37066 0.0
C120 C 0.12999 0.17446 0.36918 0.0
C121 C 0.14652 0.12754 0.36509 0.0
C122 C 0.10385 0.1665 0.36164 0.0
H123 H 0.13403 0.19578 0.37343 0.0
C124 C 0.09977 0.13904 0.35507 0.0
C125 C 0.12117 0.1195 0.35642 0.0
C126 C 0.08106 0.18694 0.35993 0.0
H127 H 0.16278 0.11247 0.36704 0.0
H128 H 0.08 0.13293 0.34867 0.0
C129 C 0.11744 0.09115 0.34799 0.0
O130 O 0.05643 0.17932 0.35189 0.0
O131 O 0.0844 0.21078 0.36576 0.0
O132 O 0.13675 0.07482 0.34788 0.0
O133 O 0.09281 0.08334 0.34006 0.0
H134 H 0.04129 0.19229 0.3506 0.0
H135 H 0.09 0.06501 0.33441 0.0
N136 N 0.23079 0.17568 0.37781 0.0
C137 C 0.25796 0.1778 0.37443 0.0
C138 C 0.27551 0.18242 0.39115 0.0
C139 C 0.26349 0.18398 0.41088 0.0
C140 C 0.23464 0.1807 0.41351 0.0
C141 C 0.21842 0.17619 0.39606 0.0
N142 N 0.24358 0.16955 0.33968 0.0
C143 C 0.26517 0.17516 0.35263 0.0
O144 O 0.29059 0.17874 0.34593 0.0
C145 C 0.18875 0.16963 0.39495 0.0
O146 O 0.14423 0.10673 0.41687 0.0
O147 O 0.11885 0.13672 0.43295 0.0
C148 C 0.24755 0.16939 0.31784 0.0
C149 C 0.2601 0.1465 0.30804 0.0
C150 C 0.26858 0.14861 0.28738 0.0
C151 C 0.2647 0.17361 0.27693 0.0
C152 C 0.25324 0.19652 0.2867 0.0
C153 C 0.24451 0.19432 0.30708 0.0
O154 O 0.18754 0.16676 0.46904 0.0
O155 O 0.22241 0.14256 0.45917 0.0
O156 O 0.20827 0.10353 0.43548 0.0
O157 O 0.2434 0.07629 0.44055 0.0
O158 O 0.17283 0.17002 0.41209 0.0
C159 C 0.16417 0.08839 0.48484 0.0
O160 O 0.18995 0.0837 0.48692 0.0
O161 O 0.15457 0.10449 0.47089 0.0
C162 C 0.12049 0.11738 0.41967 0.0
H163 H 0.1798 0.1009 0.30304 0.0
H164 H 0.1598 0.18732 0.29235 0.0
H165 H 0.15892 0.13782 0.28094 0.0
H166 H 0.19955 0.10981 0.39547 0.0
H167 H 0.28108 0.08491 0.41494 0.0
H168 H 0.26841 0.1181 0.35475 0.0
H169 H 0.15754 0.24062 0.35586 0.0
H170 H 0.244 0.22678 0.36759 0.0
H171 H 0.20547 0.29879 0.39086 0.0
H172 H 0.29762 0.18456 0.38911 0.0
H173 H 0.27654 0.18739 0.42412 0.0
H174 H 0.22549 0.18131 0.42863 0.0
H175 H 0.26371 0.12756 0.31653 0.0
H176 H 0.27124 0.17548 0.26107 0.0
H177 H 0.23689 0.2125 0.31496 0.0
Cd178 Cd 0.10774 0.92156 0.69184 0.0
C179 C 0.0814 0.96374 0.72271 0.0
C180 C 0.04135 0.93219 0.58059 0.0
O181 O 0.01864 0.9225 0.57207 0.0
Cd182 Cd 0.14245 0.98719 0.72303 0.0
C183 C 0.06861 0.92792 0.57125 0.0
C184 C 0.1235 0.92901 0.55787 0.0
C185 C 0.11527 0.94206 0.576 0.0
N186 N 0.08881 0.94027 0.58169 0.0
C187 C 0.07518 0.91446 0.55289 0.0
C188 C 0.10306 0.91498 0.54629 0.0
Co189 Co 0.07843 0.96094 0.60416 0.0
C190 C 0.13172 0.95885 0.59028 0.0
O191 O 0.15842 0.96299 0.58796 0.0
C192 C 0.12914 0.98659 0.62169 0.0
C193 C 0.13732 0.97534 0.64037 0.0
C194 C 0.14742 0.99268 0.65581 0.0
C195 C 0.15002 0.02116 0.65203 0.0
C196 C 0.14099 0.0327 0.63339 0.0
C197 C 0.13081 0.01496 0.6182 0.0
C198 C 0.15062 0.98213 0.67675 0.0
C199 C 0.01545 0.95465 0.6083 0.0
C200 C -0.00267 0.93283 0.61345 0.0
C201 C 0.0059 0.98195 0.60948 0.0
C202 C 0.97905 0.98755 0.61574 0.0
C203 C 0.96096 0.96598 0.62022 0.0
C204 C 0.9695 0.93817 0.61841 0.0
N205 N 0.04086 0.94865 0.59777 0.0
N206 N 0.11725 0.96932 0.6065 0.0
N207 N 0.08232 0.93076 0.62414 0.0
C208 C 0.09035 0.90302 0.61913 0.0
C209 C 0.0704 0.88206 0.6177 0.0
C210 C 0.11766 0.89757 0.61333 0.0
C211 C 0.07746 0.8558 0.60992 0.0
H212 H 0.04929 0.88659 0.62211 0.0
C213 C 0.10473 0.85103 0.60332 0.0
C214 C 0.12494 0.87188 0.6048 0.0
C215 C 0.05634 0.83355 0.60814 0.0
H216 H 0.13302 0.91372 0.61489 0.0
H217 H 0.11021 0.83108 0.5969 0.0
C218 C 0.15325 0.86719 0.59667 0.0
O219 O 0.06312 0.8088 0.59988 0.0
O220 O 0.03269 0.83744 0.6141 0.0
O221 O 0.17097 0.88518 0.59828 0.0
O222 O 0.1595 0.84319 0.5871 0.0
H223 H 0.04969 0.79402 0.59854 0.0
H224 H 0.1777 0.83986 0.58145 0.0
N225 N 0.06837 0.98199 0.62651 0.0
C226 C 0.0649 0.00903 0.62316 0.0
C227 C 0.05892 0.02619 0.63985 0.0
C228 C 0.0575 0.01395 0.65954 0.0
C229 C 0.06231 0.98528 0.66217 0.0
C230 C 0.06812 0.96946 0.64475 0.0
N231 N 0.0737 0.99514 0.58833 0.0
C232 C 0.06792 0.01657 0.60141 0.0
O233 O 0.06315 0.04185 0.59476 0.0
C234 C 0.07608 0.94012 0.64367 0.0
O235 O 0.14126 0.89157 0.67688 0.0
O236 O 0.10141 0.87218 0.68297 0.0
C237 C 0.07277 -0.00081 0.56651 0.0
C238 C 0.0944 0.01349 0.55633 0.0
C239 C 0.0906 0.02321 0.53609 0.0
C240 C 0.06492 0.01952 0.52668 0.0
C241 C 0.0436 0.00547 0.53656 0.0
C242 C 0.04756 0.99504 0.55636 0.0
O243 O 0.0756 0.93822 0.72022 0.0
O244 O 0.09815 0.97415 0.71007 0.0
O245 O 0.1362 0.96149 0.68243 0.0
O246 O 0.16275 -0.00328 0.69024 0.0
O247 O 0.07559 0.92386 0.6607 0.0
C248 C 0.15374 0.91835 0.7368 0.0
O249 O 0.15912 0.94414 0.73846 0.0
O250 O 0.13714 0.90931 0.72297 0.0
C251 C 0.12602 0.87011 0.67616 0.0
H252 H 0.14474 0.92987 0.55268 0.0
H253 H 0.0594 0.90433 0.54381 0.0
H254 H 0.10873 0.90489 0.5321 0.0
H255 H 0.13496 0.9533 0.64303 0.0
H256 H 0.15887 0.03426 0.66379 0.0
H257 H 0.12389 0.02293 0.60359 0.0
H258 H 0.00436 0.91165 0.61182 0.0
H259 H 0.01801 -0.00103 0.60391 0.0
H260 H 0.93971 0.97145 0.62328 0.0
H261 H 0.05565 0.04819 0.63783 0.0
H262 H 0.05302 0.0267 0.67277 0.0
H263 H 0.06185 0.97599 0.67727 0.0
H264 H 0.11365 0.01755 0.56429 0.0
H265 H 0.06141 0.02769 0.51138 0.0
H266 H 0.03043 0.98538 0.56433 0.0
Cd267 Cd 0.32183 0.85292 0.94129 0.0
C268 C 0.28148 0.83352 0.9742 0.0
C269 C 0.30737 0.78663 0.83076 0.0
O270 O 0.31717 0.76376 0.82261 0.0
Cd271 Cd 0.25861 0.89932 0.9708 0.0
C272 C 0.31209 0.81377 0.82115 0.0
C273 C 0.31124 0.86848 0.80705 0.0
C274 C 0.29873 0.86074 0.82553 0.0
N275 N 0.30081 0.83441 0.8317 0.0
C276 C 0.32517 0.81989 0.80253 0.0
C277 C 0.32482 0.84768 0.79559 0.0
Co278 Co 0.2799 0.82438 0.85411 0.0
C279 C 0.28192 0.87748 0.8396 0.0
O280 O 0.27837 0.9043 0.83738 0.0
C281 C 0.2567 0.87466 0.87243 0.0
C282 C 0.2703 0.88206 0.89057 0.0
C283 C 0.25461 0.88742 0.90804 0.0
C284 C 0.22602 0.88326 0.90762 0.0
C285 C 0.21259 0.8808 0.88882 0.0
C286 C 0.22798 0.87508 0.87132 0.0
C287 C 0.26658 0.89948 0.92644 0.0
C288 C 0.29286 0.76361 0.8628 0.0
C289 C 0.3175 0.74846 0.86532 0.0
C290 C 0.26868 0.75354 0.87213 0.0
C291 C 0.26933 0.72968 0.88422 0.0
C292 C 0.2936 0.71432 0.88585 0.0
C293 C 0.31707 0.7224 0.87475 0.0
N294 N 0.29201 0.78656 0.84854 0.0
N295 N 0.27169 0.86312 0.85596 0.0
N296 N 0.30965 0.82862 0.87438 0.0
C297 C 0.33729 0.83751 0.86974 0.0
C298 C 0.35907 0.81845 0.86966 0.0
C299 C 0.34208 0.86472 0.86317 0.0
C300 C 0.3854 0.82624 0.86238 0.0
H301 H 0.35518 0.79745 0.87475 0.0
C302 C 0.3895 0.85334 0.85501 0.0
C303 C 0.36784 0.87266 0.85513 0.0
C304 C 0.40842 0.80595 0.86177 0.0
H305 H 0.32553 0.87961 0.86393 0.0
H306 H 0.40951 0.85934 0.84898 0.0
C307 C 0.37181 0.9007 0.84616 0.0
O308 O 0.43315 0.81326 0.85373 0.0
O309 O 0.40516 0.78249 0.86844 0.0
O310 O 0.35248 0.91696 0.84528 0.0
O311 O 0.39674 0.90833 0.83866 0.0
H312 H 0.44842 0.80035 0.85309 0.0
H313 H 0.39973 0.92646 0.83269 0.0
N314 N 0.25826 0.81492 0.8763 0.0
C315 C 0.23132 0.81134 0.8726 0.0
C316 C 0.21364 0.80635 0.8892 0.0
C317 C 0.22528 0.80584 0.9091 0.0
C318 C 0.25392 0.81035 0.91204 0.0
C319 C 0.27032 0.8151 0.89471 0.0
N320 N 0.2461 0.81923 0.83781 0.0
C321 C 0.22446 0.81325 0.85066 0.0
O322 O 0.19924 0.80896 0.8438 0.0
C323 C 0.29985 0.8224 0.89383 0.0
O324 O 0.34679 0.87847 0.91644 0.0
O325 O 0.37264 0.85146 0.93488 0.0
C326 C 0.24224 0.82054 0.81588 0.0
C327 C 0.22669 0.84228 0.80691 0.0
C328 C 0.2179 0.84047 0.78627 0.0
C329 C 0.22597 0.81755 0.77462 0.0
C330 C 0.24027 0.79544 0.78346 0.0
C331 C 0.24832 0.79703 0.80411 0.0
O332 O 0.30127 0.81819 0.9682 0.0
O333 O 0.27764 0.85501 0.96377 0.0
O334 O 0.28626 0.88758 0.93559 0.0
O335 O 0.25215 0.91653 0.93664 0.0
O336 O 0.31594 0.82066 0.91087 0.0
C337 C 0.32705 0.90525 0.98304 0.0
O338 O 0.30238 0.91447 0.9832 0.0
O339 O 0.335 0.88525 0.97139 0.0
C340 C 0.3708 0.86942 0.92053 0.0
H341 H 0.31022 0.88959 0.8015 0.0
H342 H 0.33488 0.80384 0.79349 0.0
H343 H 0.33456 0.85297 0.78117 0.0
H344 H 0.29263 0.88347 0.89108 0.0
H345 H 0.21379 0.88808 0.92112 0.0
H346 H 0.21781 0.87274 0.8566 0.0
H347 H 0.33613 0.75482 0.85737 0.0
H348 H 0.24888 0.76261 0.86909 0.0
H349 H 0.29286 0.69437 0.89345 0.0
H350 H 0.19168 0.80324 0.88695 0.0
H351 H 0.21208 0.80228 0.92224 0.0
H352 H 0.26273 0.81065 0.9273 0.0
H353 H 0.2202 0.85961 0.81627 0.0
H354 H 0.22008 0.81641 0.75858 0.0
H355 H 0.25759 0.7792 0.81143 0.0
Cd356 Cd 0.38831 0.91492 0.32934 0.0
C357 C 0.41127 0.9606 0.30003 0.0
C358 C 0.4556 0.93988 0.43926 0.0
O359 O 0.47878 0.9317 0.44789 0.0
Cd360 Cd 0.34662 0.9821 0.30061 0.0
C361 C 0.42872 0.9355 0.44929 0.0
C362 C 0.37405 0.93502 0.46329 0.0
C363 C 0.3814 0.94738 0.44465 0.0
N364 N 0.40779 0.94611 0.43864 0.0
C365 C 0.42302 0.92283 0.46814 0.0
C366 C 0.39526 0.92249 0.47503 0.0
Co367 Co 0.41687 0.96519 0.41514 0.0
C368 C 0.36389 0.96231 0.42985 0.0
O369 O 0.33688 0.96406 0.43168 0.0
C370 C 0.36519 0.98413 0.39552 0.0
C371 C 0.35781 0.96728 0.37885 0.0
C372 C 0.35447 0.9795 0.3596 0.0
C373 C 0.36125 0.00739 0.35702 0.0
C374 C 0.36112 0.02482 0.37407 0.0
C375 C 0.36439 0.01291 0.39353 0.0
C376 C 0.33952 0.96609 0.34285 0.0
C377 C 0.47834 0.95411 0.40696 0.0
C378 C 0.49518 0.93038 0.40496 0.0
C379 C 0.48647 0.97841 0.3968 0.0
C380 C 0.50906 0.9785 0.38355 0.0
C381 C 0.52525 0.95488 0.38146 0.0
C382 C 0.5197 0.93145 0.39352 0.0
N383 N 0.45513 0.95417 0.42098 0.0
N384 N 0.37773 0.97245 0.4132 0.0
N385 N 0.41276 0.93365 0.39656 0.0
C386 C 0.40672 0.90625 0.40368 0.0
C387 C 0.42849 0.88824 0.40822 0.0
C388 C 0.38021 0.9004 0.41114 0.0
C389 C 0.4245 0.86579 0.42168 0.0
H390 H 0.4488 0.89272 0.40212 0.0
C391 C 0.39833 0.86183 0.43062 0.0
C392 C 0.37583 0.87858 0.42503 0.0
C393 C 0.44771 0.84698 0.42691 0.0
H394 H 0.3634 0.91417 0.40733 0.0
H395 H 0.39529 0.84524 0.44161 0.0
C396 C 0.34814 0.87403 0.43434 0.0
O397 O 0.44354 0.82534 0.43971 0.0
O398 O 0.47069 0.85081 0.4196 0.0
O399 O 0.32867 0.88888 0.42963 0.0
O400 O 0.34429 0.85355 0.44819 0.0
H401 H 0.45833 0.81273 0.44327 0.0
H402 H 0.32646 0.85033 0.45451 0.0
N403 N 0.42528 0.98496 0.39183 0.0
C404 C 0.42812 0.01232 0.39414 0.0
C405 C 0.43299 0.0285 0.37668 0.0
C406 C 0.4341 0.01496 0.35746 0.0
C407 C 0.43013 0.98597 0.35601 0.0
C408 C 0.42525 0.97115 0.3741 0.0
N409 N 0.4218 0.00034 0.42966 0.0
C410 C 0.42648 0.02109 0.41575 0.0
O411 O 0.4306 0.04691 0.42139 0.0
C412 C 0.41824 0.94156 0.37654 0.0
O413 O 0.37033 0.88183 0.35386 0.0
O414 O 0.39021 0.86431 0.32695 0.0
C415 C 0.42214 0.00536 0.45143 0.0
C416 C 0.40015 0.01962 0.46099 0.0
C417 C 0.40194 0.02686 0.48189 0.0
C418 C 0.42552 0.01961 0.49305 0.0
C419 C 0.44777 0.00647 0.48358 0.0
C420 C 0.44623 -0.00028 0.4627 0.0
O421 O 0.42158 0.93685 0.30378 0.0
O422 O 0.39189 0.96823 0.31173 0.0
O423 O 0.35049 0.94644 0.33304 0.0
O424 O 0.32224 0.98087 0.3331 0.0
O425 O 0.41951 0.9238 0.3604 0.0
C426 C 0.34027 0.91405 0.2844 0.0
O427 O 0.33413 0.93969 0.28351 0.0
O428 O 0.35716 0.90459 0.29798 0.0
C429 C 0.37727 0.8605 0.34374 0.0
H430 H 0.35288 0.93518 0.46867 0.0
H431 H 0.43934 0.91378 0.47731 0.0
H432 H 0.39024 0.91284 0.48955 0.0
H433 H 0.35517 0.94517 0.38072 0.0
H434 H 0.36013 0.01643 0.34178 0.0
H435 H 0.36597 0.02557 0.40717 0.0
H436 H 0.4909 0.91198 0.41391 0.0
H437 H 0.47681 -0.00213 0.39998 0.0
H438 H 0.544 0.95612 0.37242 0.0
H439 H 0.43576 0.0507 0.3778 0.0
H440 H 0.43774 0.02694 0.34369 0.0
H441 H 0.43053 0.97568 0.34131 0.0
H442 H 0.38206 0.02532 0.45214 0.0
H443 H 0.42711 0.02544 0.50908 0.0
H444 H 0.46401 0.99081 0.45514 0.0
Cd445 Cd 0.32331 0.13651 0.57743 0.0
C446 C 0.27569 0.15823 0.54812 0.0
C447 C 0.30546 0.20093 0.68819 0.0
O448 O 0.31385 0.22378 0.69727 0.0
Cd449 Cd 0.25923 0.09391 0.54873 0.0
C450 C 0.30975 0.17374 0.69771 0.0
C451 C 0.30989 0.11871 0.71105 0.0
C452 C 0.29665 0.12672 0.6929 0.0
N453 N 0.29803 0.15327 0.68719 0.0
C454 C 0.3235 0.16737 0.716 0.0
C455 C 0.32358 0.13944 0.72259 0.0
Co456 Co 0.27815 0.16325 0.66427 0.0
C457 C 0.28047 0.10983 0.67846 0.0
O458 O 0.2778 0.08284 0.6803 0.0
C459 C 0.25579 0.11205 0.64535 0.0
C460 C 0.271 0.10307 0.62842 0.0
C461 C 0.25726 0.09827 0.61003 0.0
C462 C 0.22926 0.10474 0.60825 0.0
C463 C 0.21293 0.11045 0.62555 0.0
C464 C 0.22694 0.11353 0.64439 0.0
C465 C 0.27087 0.08694 0.59197 0.0
C466 C 0.29117 0.22502 0.65657 0.0
C467 C 0.3152 0.2416 0.65532 0.0
C468 C 0.26719 0.23445 0.64666 0.0
C469 C 0.26754 0.25873 0.63502 0.0
C470 C 0.29128 0.2751 0.63427 0.0
C471 C 0.31451 0.2676 0.6458 0.0
N472 N 0.29054 0.20125 0.67017 0.0
N473 N 0.26965 0.12422 0.66231 0.0
N474 N 0.30878 0.15873 0.64491 0.0
C475 C 0.33656 0.15213 0.65083 0.0
C476 C 0.35601 0.17331 0.6535 0.0
C477 C 0.34296 0.12517 0.65717 0.0
C478 C 0.38138 0.16803 0.66333 0.0
H479 H 0.35079 0.19407 0.64863 0.0
C480 C 0.38718 0.141 0.67013 0.0
C481 C 0.36805 0.11943 0.66718 0.0
C482 C 0.40133 0.19083 0.66731 0.0
H483 H 0.32784 0.10892 0.65503 0.0
H484 H 0.4065 0.13682 0.67795 0.0
C485 C 0.37371 0.09131 0.67546 0.0
O486 O 0.42463 0.18594 0.67817 0.0
O487 O 0.39674 0.2142 0.66092 0.0
O488 O 0.35716 0.07246 0.67275 0.0
O489 O 0.39701 0.08644 0.68632 0.0
H490 H 0.43785 0.20051 0.68103 0.0
H491 H 0.40095 0.06836 0.69204 0.0
N492 N 0.25767 0.17259 0.6415 0.0
C493 C 0.23062 0.17647 0.64445 0.0
C494 C 0.21391 0.18197 0.62741 0.0
C495 C 0.22661 0.1827 0.60788 0.0
C496 C 0.25532 0.17786 0.60575 0.0
C497 C 0.27066 0.17238 0.62348 0.0
N498 N 0.24372 0.16876 0.67955 0.0
C499 C 0.22273 0.17483 0.66619 0.0
O500 O 0.19742 0.18005 0.67247 0.0
C501 C 0.30005 0.16489 0.62519 0.0
O502 O 0.35206 0.1056 0.59534 0.0
O503 O 0.37313 0.14311 0.58507 0.0
C504 C 0.23932 0.16892 0.70135 0.0
C505 C 0.22245 0.14852 0.71074 0.0
C506 C 0.21394 0.15168 0.73135 0.0
C507 C 0.22388 0.17424 0.74255 0.0
C508 C 0.2392 0.19498 0.73308 0.0
C509 C 0.2467 0.19255 0.71252 0.0
O510 O 0.30051 0.16679 0.55028 0.0
O511 O 0.26739 0.14026 0.5608 0.0
O512 O 0.28964 0.10072 0.58313 0.0
O513 O 0.25722 0.06996 0.58109 0.0
O514 O 0.31715 0.16707 0.60876 0.0
C515 C 0.32858 0.09119 0.53324 0.0
O516 O 0.30339 0.08345 0.53333 0.0
O517 O 0.33812 0.10929 0.54582 0.0
C518 C 0.37415 0.11984 0.59437 0.0
H519 H 0.30955 0.0974 0.71621 0.0
H520 H 0.33365 0.1833 0.72493 0.0
H521 H 0.33396 0.13393 0.73671 0.0
H522 H 0.29322 0.10071 0.62938 0.0
H523 H 0.22043 0.10368 0.5931 0.0
H524 H 0.21628 0.11812 0.65845 0.0
H525 H 0.33368 0.2359 0.66368 0.0
H526 H 0.24758 0.22466 0.649 0.0
H527 H 0.29034 0.29503 0.62666 0.0
H528 H 0.19192 0.18544 0.62906 0.0
H529 H 0.21422 0.1868 0.5944 0.0
H530 H 0.26502 0.17815 0.59083 0.0
H531 H 0.2149 0.13124 0.70174 0.0
H532 H 0.21866 0.17644 0.75865 0.0
H533 H 0.25664 0.20982 0.70494 0.0
Cd534 Cd 0.10492 0.07396 0.82828 0.0
C535 C 0.08406 0.0278 0.79844 0.0
C536 C 0.03517 0.05684 0.93813 0.0
O537 O 0.01198 0.06515 0.94667 0.0
Cd538 Cd 0.14777 0.00814 0.79935 0.0
C539 C 0.06211 0.06169 0.94796 0.0
C540 C 0.11666 0.06145 0.96222 0.0
C541 C 0.10937 0.04968 0.94339 0.0
N542 N 0.08306 0.05135 0.93721 0.0
C543 C 0.06775 0.07381 0.96701 0.0
C544 C 0.09546 0.07383 0.97401 0.0
Co545 Co 0.07374 0.03103 0.91433 0.0
C546 C 0.1266 0.03387 0.92901 0.0
O547 O 0.1534 0.03064 0.93137 0.0
C548 C 0.12475 0.00921 0.89592 0.0
C549 C 0.133 0.02312 0.87805 0.0
C550 C 0.14048 0.00765 0.86084 0.0
C551 C 0.13743 0.97886 0.86117 0.0
C552 C 0.13282 0.96526 0.87971 0.0
C553 C 0.12568 0.98049 0.89697 0.0
C554 C 0.15288 0.02025 0.84269 0.0
C555 C 0.01241 0.04166 0.90611 0.0
C556 C -0.00425 0.06539 0.90352 0.0
C557 C 0.0041 0.01693 0.89665 0.0
C558 C 0.98144 0.01633 0.88348 0.0
C559 C 0.96531 0.0399 0.88088 0.0
C560 C 0.97094 0.06377 0.89243 0.0
N561 N 0.03561 0.04211 0.92008 0.0
N562 N 0.11266 0.02384 0.9124 0.0
N563 N 0.07766 0.06161 0.89478 0.0
C564 C 0.08615 0.08921 0.89998 0.0
C565 C 0.06665 0.11053 0.90102 0.0
C566 C 0.11352 0.09436 0.90588 0.0
C567 C 0.07421 0.13685 0.90847 0.0
H568 H 0.04552 0.10629 0.89645 0.0
C569 C 0.10154 0.14134 0.91513 0.0
C570 C 0.12132 0.12012 0.91404 0.0
C571 C 0.05357 0.15949 0.90979 0.0
H572 H 0.12864 0.07806 0.90455 0.0
H573 H 0.10741 0.16136 0.92126 0.0
C574 C 0.14976 0.12457 0.92207 0.0
O575 O 0.06081 0.18435 0.91769 0.0
O576 O 0.02989 0.15583 0.90376 0.0
O577 O 0.16706 0.1062 0.92083 0.0
O578 O 0.15658 0.14881 0.93113 0.0
H579 H 0.0477 0.1994 0.91872 0.0
H580 H 0.17488 0.15201 0.93668 0.0
N581 N 0.06509 0.00999 0.89164 0.0
C582 C 0.06234 0.98275 0.89473 0.0
C583 C 0.05814 0.96557 0.87774 0.0
C584 C 0.05761 0.978 0.85809 0.0
C585 C 0.06145 0.00689 0.8558 0.0
C586 C 0.06549 0.02274 0.8735 0.0
N587 N 0.06913 -0.00354 0.92983 0.0
C588 C 0.06402 0.97511 0.91653 0.0
O589 O 0.06016 0.94952 0.92287 0.0
C590 C 0.07246 0.05233 0.87507 0.0
O591 O 0.13506 0.10279 0.84785 0.0
O592 O 0.10023 0.12452 0.83413 0.0
C593 C 0.06966 0.9919 0.95163 0.0
C594 C 0.09183 0.9773 0.96081 0.0
C595 C 0.08982 0.9684 0.98136 0.0
C596 C 0.06581 0.97391 0.99244 0.0
C597 C 0.04365 0.98767 0.98342 0.0
C598 C 0.04557 -0.00321 0.96307 0.0
O599 O 0.07282 0.0513 0.80153 0.0
O600 O 0.10282 0.02112 0.81086 0.0
O601 O 0.14061 0.0397 0.83348 0.0
O602 O 0.17003 0.00606 0.83239 0.0
O603 O 0.07192 0.0689 0.85827 0.0
C604 C 0.15025 0.0771 0.78314 0.0
O605 O 0.15797 0.05185 0.78293 0.0
O606 O 0.13276 0.08617 0.79636 0.0
C607 C 0.12213 0.12536 0.84504 0.0
H608 H 0.13772 0.06068 0.96782 0.0
H609 H 0.05137 0.08243 0.97633 0.0
H610 H 0.1004 0.08289 0.98874 0.0
H611 H 0.13366 0.04552 0.87758 0.0
H612 H 0.14373 0.96672 0.84796 0.0
H613 H 0.12252 0.97016 0.91156 0.0
H614 H 0.00043 0.08422 0.91186 0.0
H615 H 0.0137 -0.00243 0.90032 0.0
H616 H 0.94645 0.03829 0.87199 0.0
H617 H 0.05558 0.94342 0.87951 0.0
H618 H 0.05459 0.96522 0.84465 0.0
H619 H 0.06168 0.01633 0.84076 0.0
H620 H 0.11011 0.97251 0.95191 0.0
H621 H 0.06421 0.96707 1.00827 0.0
H622 H 0.02775 0.00609 0.9558 0.0
Cd623 Cd 0.17007 0.85843 0.07833 0.0
C624 C 0.21295 0.84074 0.04753 0.0
C625 C 0.18268 0.78686 0.18838 0.0
O626 O 0.17403 0.76329 0.19626 0.0
Cd627 Cd 0.23027 0.90907 0.052 0.0
C628 C 0.178 0.81315 0.19902 0.0
C629 C 0.17828 0.86669 0.21521 0.0
C630 C 0.19135 0.86037 0.19667 0.0
N631 N 0.1896 0.83454 0.18946 0.0
C632 C 0.16438 0.81779 0.21764 0.0
C633 C 0.16445 0.84501 0.22565 0.0
Co634 Co 0.21042 0.82642 0.16659 0.0
C635 C 0.20842 0.87823 0.18357 0.0
O636 O 0.21191 0.90483 0.18706 0.0
C637 C 0.23483 0.87902 0.15147 0.0
C638 C 0.22101 0.88994 0.13452 0.0
C639 C 0.23617 0.90102 0.11833 0.0
C640 C 0.26498 0.90117 0.11934 0.0
C641 C 0.2791 0.88809 0.13552 0.0
C642 C 0.26368 0.87823 0.15211 0.0
C643 C 0.22325 0.90699 0.0986 0.0
C644 C 0.1964 0.76584 0.15553 0.0
C645 C 0.17196 0.75002 0.15357 0.0
C646 C 0.22026 0.75646 0.14546 0.0
C647 C 0.2196 0.73247 0.13352 0.0
C648 C 0.19567 0.71637 0.13262 0.0
C649 C 0.17247 0.72396 0.14414 0.0
N650 N 0.19757 0.78814 0.17038 0.0
N651 N 0.21948 0.86527 0.16689 0.0
N652 N 0.18071 0.83299 0.14661 0.0
C653 C 0.1529 0.8406 0.15174 0.0
C654 C 0.13169 0.82084 0.15121 0.0
C655 C 0.14733 0.8673 0.15896 0.0
C656 C 0.10505 0.82741 0.15845 0.0
H657 H 0.13623 0.80024 0.14561 0.0
C658 C 0.10002 0.85411 0.16621 0.0
C659 C 0.12109 0.87418 0.16663 0.0
C660 C 0.08265 0.80632 0.15848 0.0
H661 H 0.16366 0.88259 0.15898 0.0
H662 H 0.07969 0.85925 0.17204 0.0
C663 C 0.11593 0.90193 0.17568 0.0
O664 O 0.05763 0.81244 0.16651 0.0
O665 O 0.0867 0.78328 0.15133 0.0
O666 O 0.13415 0.91954 0.17571 0.0
O667 O 0.09115 0.9078 0.18421 0.0
H668 H 0.04274 0.79901 0.16673 0.0
H669 H 0.08745 0.92565 0.19037 0.0
N670 N 0.23181 0.81889 0.1439 0.0
C671 C 0.25861 0.81422 0.14734 0.0
C672 C 0.27611 0.8104 0.13048 0.0
C673 C 0.26441 0.81201 0.11063 0.0
C674 C 0.23589 0.81741 0.108 0.0
C675 C 0.2197 0.82099 0.12557 0.0
N676 N 0.24415 0.81918 0.18248 0.0
C677 C 0.26551 0.81364 0.1693 0.0
O678 O 0.29073 0.80853 0.17584 0.0
C679 C 0.19028 0.82847 0.12686 0.0
O680 O 0.14022 0.8886 0.09564 0.0
O681 O 0.12004 0.85041 0.08629 0.0
C682 C 0.24867 0.8208 0.20431 0.0
C683 C 0.26596 0.84172 0.21271 0.0
C684 C 0.27565 0.83956 0.2331 0.0
C685 C 0.26703 0.8172 0.24509 0.0
C686 C 0.2503 0.79648 0.23694 0.0
C687 C 0.24119 0.79815 0.21661 0.0
O688 O 0.19427 0.82399 0.05344 0.0
O689 O 0.21251 0.86401 0.05625 0.0
O690 O 0.2051 0.8904 0.0917 0.0
O691 O 0.23509 0.92378 0.08646 0.0
O692 O 0.1738 0.82731 0.10995 0.0
C693 C 0.16436 0.91042 0.03565 0.0
O694 O 0.18785 0.9222 0.03718 0.0
O695 O 0.15724 0.88949 0.04681 0.0
C696 C 0.11852 0.87377 0.09541 0.0
H697 H 0.17903 0.88738 0.22156 0.0
H698 H 0.15441 0.80103 0.22584 0.0
H699 H 0.15425 0.84918 0.24008 0.0
H700 H 0.19868 0.88883 0.13361 0.0
H701 H 0.27631 0.91072 0.10688 0.0
H702 H 0.2739 0.86918 0.16523 0.0
H703 H 0.1535 0.75592 0.16188 0.0
H704 H 0.24 0.76594 0.1479 0.0
H705 H 0.1965 0.69643 0.12504 0.0
H706 H 0.29797 0.80647 0.13251 0.0
H707 H 0.27746 0.80929 0.0973 0.0
H708 H 0.22701 0.81916 0.09282 0.0
H709 H 0.27299 0.85863 0.20309 0.0
H710 H 0.27405 0.81543 0.26085 0.0
H711 H 0.23003 0.7809 0.20999 0.0
Cd712 Cd 0.60811 0.91632 0.82706 0.0
C713 C 0.58401 0.96905 0.7944 0.0
C714 C 0.52999 0.93487 0.93608 0.0
O715 O 0.50604 0.92823 0.9443 0.0
Cd716 Cd 0.63931 0.95209 0.81123 0.0
C717 C 0.55594 0.93007 0.94722 0.0
C718 C 0.60888 0.93036 0.96446 0.0
C719 C 0.60346 0.9422 0.94531 0.0
N720 N 0.57789 0.94037 0.93757 0.0
C721 C 0.55969 0.91785 0.96652 0.0
C722 C 0.58662 0.91778 0.975 0.0
Co723 Co 0.57087 0.96066 0.91413 0.0
C724 C 0.62188 0.95872 0.93232 0.0
O725 O 0.64822 0.96259 0.93648 0.0
C726 C 0.62372 0.98484 0.90019 0.0
C727 C 0.63726 0.9709 0.88476 0.0
C728 C 0.64728 0.98537 0.86787 0.0
C729 C 0.64644 0.01425 0.86759 0.0
C730 C 0.63557 0.02837 0.88452 0.0
C731 C 0.62233 0.01354 0.90007 0.0
C732 C 0.65 0.96991 0.84913 0.0
C733 C 0.51001 0.94705 0.90233 0.0
C734 C 0.4918 0.92397 0.90146 0.0
C735 C 0.50458 0.96931 0.88913 0.0
C736 C 0.48542 0.96685 0.87331 0.0
C737 C 0.46881 0.94341 0.87195 0.0
C738 C 0.46917 0.92368 0.88781 0.0
N739 N 0.53202 0.94849 0.91755 0.0
N740 N 0.60959 0.96939 0.91525 0.0
N741 N 0.57778 0.93013 0.89468 0.0
C742 C 0.5862 0.90269 0.90037 0.0
C743 C 0.56718 0.88081 0.90007 0.0
C744 C 0.61312 0.89801 0.90749 0.0
C745 C 0.57485 0.85432 0.90713 0.0
H746 H 0.54633 0.8847 0.89469 0.0
C747 C 0.60184 0.85013 0.91458 0.0
C748 C 0.62109 0.87193 0.91494 0.0
C749 C 0.55466 0.83111 0.9072 0.0
H750 H 0.62781 0.91481 0.90754 0.0
H751 H 0.60783 0.82989 0.92021 0.0
C752 C 0.64926 0.86762 0.92351 0.0
O753 O 0.56195 0.8061 0.9148 0.0
O754 O 0.53131 0.83446 0.90045 0.0
O755 O 0.66615 0.88652 0.92347 0.0
O756 O 0.65633 0.84285 0.93161 0.0
H757 H 0.54912 0.79069 0.91505 0.0
H758 H 0.67449 0.83966 0.93739 0.0
N759 N 0.56474 0.9815 0.89087 0.0
C760 C 0.56044 0.00857 0.89376 0.0
C761 C 0.55755 0.02565 0.87654 0.0
C762 C 0.55974 0.01334 0.85693 0.0
C763 C 0.56487 0.98464 0.85488 0.0
C764 C 0.56753 0.96882 0.87276 0.0
N765 N 0.56396 0.9951 0.92919 0.0
C766 C 0.55911 0.01617 0.91559 0.0
O767 O 0.55457 0.04174 0.92163 0.0
C768 C 0.57446 0.93919 0.87459 0.0
O769 O 0.63855 0.88565 0.84432 0.0
O770 O 0.59804 0.86784 0.83802 0.0
C771 C 0.56559 0.00013 0.95091 0.0
C772 C 0.58812 0.01486 0.9598 0.0
C773 C 0.58718 0.02266 0.98073 0.0
C774 C 0.56378 0.01591 0.99223 0.0
C775 C 0.54143 0.00233 0.98333 0.0
C776 C 0.54224 0.99452 0.96278 0.0
O777 O 0.58121 0.94297 0.79807 0.0
O778 O 0.60362 0.98204 0.80279 0.0
O779 O 0.63182 0.95134 0.84639 0.0
O780 O 0.66612 0.97718 0.83478 0.0
O781 O 0.57419 0.92225 0.85774 0.0
C782 C 0.65411 0.90864 0.78261 0.0
O783 O 0.66052 0.93401 0.78271 0.0
O784 O 0.63774 0.89879 0.79633 0.0
C785 C 0.62189 0.86535 0.84631 0.0
H786 H 0.6293 0.93132 0.97123 0.0
H787 H 0.54244 0.90913 0.97492 0.0
H788 H 0.59009 0.90862 0.98994 0.0
H789 H 0.63739 0.94848 0.88485 0.0
H790 H 0.65573 0.02562 0.855 0.0
H791 H 0.61455 0.02426 0.91345 0.0
H792 H 0.49407 0.90709 0.9122 0.0
H793 H 0.51378 0.98915 0.89132 0.0
H794 H 0.45363 0.9424 0.85978 0.0
H795 H 0.55385 0.04765 0.87812 0.0
H796 H 0.55769 0.02606 0.84334 0.0
H797 H 0.56704 0.97531 0.83989 0.0
H798 H 0.60586 0.02039 0.95053 0.0
H799 H 0.56239 0.02233 1.00816 0.0
H800 H 0.52421 0.98512 0.95578 0.0
Cd801 Cd 0.82397 0.8579 0.57764 0.0
C802 C 0.77813 0.8348 0.5469 0.0
C803 C 0.80818 0.7892 0.68848 0.0
O804 O 0.81796 0.76699 0.69762 0.0
Cd805 Cd 0.75849 0.89768 0.54709 0.0
C806 C 0.81035 0.81673 0.69785 0.0
C807 C 0.80329 0.8711 0.71155 0.0
C808 C 0.79351 0.86236 0.69242 0.0
N809 N 0.79843 0.83632 0.68654 0.0
C810 C 0.82106 0.82398 0.71706 0.0
C811 C 0.81753 0.85159 0.72382 0.0
Co812 Co 0.78041 0.82461 0.66315 0.0
C813 C 0.77757 0.87779 0.67699 0.0
O814 O 0.77157 0.90422 0.67883 0.0
C815 C 0.7562 0.87302 0.64287 0.0
C816 C 0.77025 0.88218 0.62534 0.0
C817 C 0.75494 0.89015 0.60813 0.0
C818 C 0.72611 0.88733 0.60836 0.0
C819 C 0.7125 0.8818 0.62675 0.0
C820 C 0.72754 0.87285 0.6436 0.0
C821 C 0.76776 0.90329 0.5903 0.0
C822 C 0.79205 0.76285 0.65855 0.0
C823 C 0.81632 0.74766 0.65482 0.0
C824 C 0.76639 0.7509 0.654 0.0
C825 C 0.76491 0.72435 0.64579 0.0
C826 C 0.7889 0.70889 0.64306 0.0
C827 C 0.8149 0.71977 0.64875 0.0
N828 N 0.79357 0.78784 0.67042 0.0
N829 N 0.77085 0.86276 0.65995 0.0
N830 N 0.81179 0.82966 0.64435 0.0
C831 C 0.83915 0.83711 0.6509 0.0
C832 C 0.86056 0.81763 0.65023 0.0
C833 C 0.8432 0.86195 0.66151 0.0
C834 C 0.88534 0.8223 0.66109 0.0
H835 H 0.85738 0.79847 0.64193 0.0
C836 C 0.88786 0.84621 0.67328 0.0
C837 C 0.86657 0.86589 0.67394 0.0
C838 C 0.90811 0.80173 0.66057 0.0
H839 H 0.82733 0.87759 0.66095 0.0
H840 H 0.90627 0.84934 0.68247 0.0
C841 C 0.86802 0.88963 0.68841 0.0
O842 O 0.93163 0.80636 0.67125 0.0
O843 O 0.90579 0.78053 0.65048 0.0
O844 O 0.84945 0.90679 0.6889 0.0
O845 O 0.88972 0.89227 0.70132 0.0
H846 H 0.94676 0.79326 0.67114 0.0
H847 H 0.89092 0.90746 0.71097 0.0
N848 N 0.76143 0.81318 0.64009 0.0
C849 C 0.73431 0.80884 0.64243 0.0
C850 C 0.71826 0.80339 0.62504 0.0
C851 C 0.73159 0.80337 0.60575 0.0
C852 C 0.76023 0.80897 0.6042 0.0
C853 C 0.77493 0.81418 0.62228 0.0
N854 N 0.74546 0.81869 0.67758 0.0
C855 C 0.72526 0.81152 0.66386 0.0
O856 O 0.69976 0.80603 0.66961 0.0
C857 C 0.80381 0.82332 0.62445 0.0
O858 O 0.85105 0.88478 0.60105 0.0
O859 O 0.87443 0.85634 0.58191 0.0
C860 C 0.74032 0.81796 0.69923 0.0
C861 C 0.72646 0.84001 0.7092 0.0
C862 C 0.71697 0.83657 0.72955 0.0
C863 C 0.72009 0.81083 0.739 0.0
C864 C 0.73441 0.78957 0.72948 0.0
C865 C 0.74456 0.793 0.70964 0.0
O866 O 0.80305 0.82695 0.54971 0.0
O867 O 0.76859 0.85196 0.55962 0.0
O868 O 0.78822 0.89215 0.58154 0.0
O869 O 0.75351 0.92022 0.57981 0.0
O870 O 0.82081 0.82406 0.60786 0.0
C871 C 0.82825 0.90306 0.53243 0.0
O872 O 0.80265 0.90923 0.53148 0.0
O873 O 0.83763 0.8864 0.54616 0.0
C874 C 0.87433 0.87449 0.59616 0.0
H875 H 0.79998 0.89206 0.71687 0.0
H876 H 0.83124 0.80884 0.72668 0.0
H877 H 0.82537 0.85771 0.73869 0.0
H878 H 0.79262 0.88355 0.62531 0.0
H879 H 0.71403 0.89466 0.59541 0.0
H880 H 0.7172 0.86907 0.6581 0.0
H881 H 0.83608 0.75706 0.65833 0.0
H882 H 0.74737 0.76098 0.65804 0.0
H883 H 0.78655 0.68765 0.63808 0.0
H884 H 0.69622 0.79977 0.62623 0.0
H885 H 0.71967 0.79953 0.59199 0.0
H886 H 0.7703 0.80973 0.58941 0.0
H887 H 0.72289 0.8593 0.70114 0.0
H888 H 0.71187 0.80739 0.75428 0.0
H889 H 0.75453 0.77582 0.70197 0.0
Cd890 Cd 0.88045 0.07076 0.32736 0.0
C891 C 0.89782 0.01869 0.29309 0.0
C892 C 0.96099 0.05782 0.43571 0.0
O893 O 0.98527 0.06447 0.44339 0.0
Cd894 Cd 0.84268 0.04023 0.31457 0.0
C895 C 0.9355 0.06311 0.44729 0.0
C896 C 0.88334 0.06336 0.46575 0.0
C897 C 0.88795 0.05087 0.44673 0.0
N898 N 0.91317 0.05242 0.43838 0.0
C899 C 0.93257 0.07598 0.46641 0.0
C900 C 0.90602 0.07632 0.47551 0.0
Co901 Co 0.91924 0.03115 0.41532 0.0
C902 C 0.869 0.03376 0.4346 0.0
O903 O 0.84287 0.03009 0.43951 0.0
C904 C 0.86542 0.00619 0.4033 0.0
C905 C 0.85256 0.01951 0.38729 0.0
C906 C 0.8409 0.00426 0.3714 0.0
C907 C 0.83875 0.9755 0.37294 0.0
C908 C 0.84985 0.96207 0.39019 0.0
C909 C 0.86476 0.97747 0.40465 0.0
C910 C 0.83848 0.01834 0.35199 0.0
C911 C 0.97976 0.04424 0.40189 0.0
C912 C -0.00165 0.06697 0.40039 0.0
C913 C 0.98446 0.02159 0.38892 0.0
C914 C 0.00332 0.0233 0.37285 0.0
C915 C 0.02041 0.04635 0.37098 0.0
C916 C 0.02076 0.06642 0.38654 0.0
N917 N 0.95823 0.04352 0.41753 0.0
N918 N 0.88052 0.02224 0.41755 0.0
N919 N 0.91155 0.06091 0.39534 0.0
C920 C 0.90345 0.08853 0.4007 0.0
C921 C 0.92283 0.1101 0.40045 0.0
C922 C 0.87659 0.09359 0.40781 0.0
C923 C 0.91557 0.13669 0.40751 0.0
H924 H 0.94365 0.10586 0.3952 0.0
C925 C 0.88859 0.14131 0.41482 0.0
C926 C 0.86897 0.11983 0.41512 0.0
C927 C 0.93618 0.15953 0.40773 0.0
H928 H 0.86173 0.07692 0.40804 0.0
H929 H 0.88289 0.16164 0.42043 0.0
C930 C 0.84082 0.12461 0.42356 0.0
O931 O 0.92934 0.18456 0.41547 0.0
O932 O 0.95948 0.15584 0.401 0.0
O933 O 0.82363 0.10598 0.4235 0.0
O934 O 0.83407 0.14952 0.43154 0.0
H935 H 0.94246 0.19972 0.41584 0.0
H936 H 0.81591 0.15301 0.43721 0.0
N937 N 0.92432 0.00945 0.39245 0.0
C938 C 0.92851 0.98249 0.3959 0.0
C939 C 0.93093 0.96477 0.37901 0.0
C940 C 0.92844 0.97639 0.35917 0.0
C941 C 0.92344 0.00504 0.35654 0.0
C942 C 0.92123 0.0215 0.3741 0.0
N943 N 0.92698 -0.00257 0.43113 0.0
C944 C 0.93079 0.97577 0.41787 0.0
O945 O 0.9352 0.95035 0.42435 0.0
C946 C 0.91453 0.05124 0.3754 0.0
O947 O 0.84702 0.10089 0.34112 0.0
O948 O 0.88809 0.11926 0.3386 0.0
C949 C 0.92443 0.99295 0.45295 0.0
C950 C 0.90282 0.97623 0.46109 0.0
C951 C 0.90345 0.96766 0.4818 0.0
C952 C 0.92479 0.97715 0.49437 0.0
C953 C 0.94673 0.99234 0.48633 0.0
C954 C 0.9465 0.00048 0.46573 0.0
O955 O 0.90724 0.04144 0.3006 0.0
O956 O 0.87333 0.01123 0.29711 0.0
O957 O 0.85717 0.03609 0.34811 0.0
O958 O 0.81997 0.01254 0.33894 0.0
O959 O 0.91464 0.06766 0.35821 0.0
C960 C 0.83305 0.0836 0.28473 0.0
O961 O 0.81742 0.06495 0.2919 0.0
O962 O 0.85653 0.0884 0.29338 0.0
C963 C 0.863 0.12138 0.34464 0.0
H964 H 0.86323 0.06259 0.47302 0.0
H965 H 0.95016 0.08497 0.47423 0.0
H966 H 0.90319 0.08595 0.49034 0.0
H967 H 0.8541 0.04182 0.38616 0.0
H968 H 0.8284 0.96383 0.36098 0.0
H969 H 0.87419 0.96723 0.4176 0.0
H970 H -0.00336 0.08421 0.41084 0.0
H971 H 0.97497 0.00198 0.39147 0.0
H972 H 0.03546 0.0467 0.3587 0.0
H973 H 0.93466 0.94284 0.38102 0.0
H974 H 0.93022 0.96319 0.34583 0.0
H975 H 0.92104 0.01384 0.34137 0.0
H976 H 0.8865 0.96877 0.4512 0.0
H977 H 0.92531 0.97115 0.51042 0.0
H978 H 0.9644 0.01081 0.45932 0.0
Cd979 Cd 0.66452 0.13266 0.07817 0.0
C980 C 0.71749 0.15238 0.04835 0.0
C981 C 0.68355 0.20786 0.18617 0.0
O982 O 0.67479 0.23133 0.19404 0.0
Cd983 Cd 0.72708 0.08632 0.05225 0.0
C984 C 0.68022 0.18146 0.19717 0.0
C985 C 0.68491 0.12845 0.21413 0.0
C986 C 0.69502 0.13465 0.19456 0.0
N987 N 0.69106 0.16015 0.18705 0.0
C988 C 0.66962 0.17687 0.21686 0.0
C989 C 0.67178 0.14989 0.22522 0.0
Co990 Co 0.71003 0.16866 0.16334 0.0
C991 C 0.71082 0.11697 0.18041 0.0
O992 O 0.71495 0.09041 0.18362 0.0
C993 C 0.73088 0.11687 0.14553 0.0
C994 C 0.71455 0.1081 0.12892 0.0
C995 C 0.72747 0.10232 0.11021 0.0
C996 C 0.75572 0.10772 0.10799 0.0
C997 C 0.77198 0.10974 0.12557 0.0
C998 C 0.75957 0.11621 0.14418 0.0
C999 C 0.71434 0.08573 0.09417 0.0
C1000 C 0.69711 0.22897 0.15311 0.0
C1001 C 0.67289 0.24479 0.15044 0.0
C1002 C 0.72119 0.23732 0.14281 0.0
C1003 C 0.72054 0.25893 0.12866 0.0
C1004 C 0.69647 0.27425 0.12605 0.0
C1005 C 0.67359 0.26915 0.13876 0.0
N1006 N 0.69781 0.20673 0.16793 0.0
N1007 N 0.71869 0.12989 0.16272 0.0
N1008 N 0.67893 0.16263 0.1444 0.0
C1009 C 0.65145 0.15556 0.15092 0.0
C1010 C 0.63001 0.17492 0.14946 0.0
C1011 C 0.64717 0.13109 0.16199 0.0
C1012 C 0.60478 0.17036 0.15978 0.0
H1013 H 0.63345 0.19388 0.14093 0.0
C1014 C 0.60186 0.14675 0.17229 0.0
C1015 C 0.62328 0.12731 0.17386 0.0
C1016 C 0.58189 0.19071 0.15834 0.0
H1017 H 0.6631 0.11553 0.1621 0.0
H1018 H 0.58306 0.14371 0.18104 0.0
C1019 C 0.62135 0.10394 0.18868 0.0
O1020 O 0.55798 0.18623 0.16858 0.0
O1021 O 0.58446 0.21159 0.14789 0.0
O1022 O 0.64059 0.08773 0.19061 0.0
O1023 O 0.59846 0.10059 0.2003 0.0
H1024 H 0.54276 0.19919 0.16787 0.0
H1025 H 0.59688 0.08559 0.21009 0.0
N1026 N 0.72998 0.17653 0.13998 0.0
C1027 C 0.75717 0.18027 0.14248 0.0
C1028 C 0.77361 0.18431 0.12507 0.0
C1029 C 0.76054 0.18373 0.10567 0.0
C1030 C 0.73174 0.179 0.10403 0.0
C1031 C 0.71664 0.17508 0.1221 0.0
N1032 N 0.74476 0.17554 0.17803 0.0
C1033 C 0.76553 0.18016 0.16417 0.0
O1034 O 0.79122 0.18478 0.16988 0.0
C1035 C 0.68728 0.16754 0.12434 0.0
O1036 O 0.63864 0.10621 0.10222 0.0
O1037 O 0.61429 0.13483 0.08377 0.0
C1038 C 0.75025 0.17425 0.19973 0.0
C1039 C 0.7671 0.15298 0.20779 0.0
C1040 C 0.77664 0.15447 0.22814 0.0
C1041 C 0.76815 0.17629 0.24065 0.0
C1042 C 0.75169 0.19749 0.2329 0.0
C1043 C 0.74318 0.19675 0.21232 0.0
O1044 O 0.69197 0.15868 0.05075 0.0
O1045 O 0.72814 0.13532 0.06083 0.0
O1046 O 0.69525 0.09575 0.08335 0.0
O1047 O 0.72831 0.06632 0.0862 0.0
O1048 O 0.6702 0.16725 0.10774 0.0
C1049 C 0.65768 0.08716 0.03464 0.0
O1050 O 0.68257 0.07886 0.03607 0.0
O1051 O 0.64777 0.106 0.04645 0.0
C1052 C 0.61512 0.11646 0.09792 0.0
H1053 H 0.6874 0.10803 0.22075 0.0
H1054 H 0.66066 0.19357 0.22569 0.0
H1055 H 0.66393 0.14579 0.24047 0.0
H1056 H 0.69237 0.1058 0.13057 0.0
H1057 H 0.7658 0.10258 0.0936 0.0
H1058 H 0.77203 0.11915 0.15784 0.0
H1059 H 0.65461 0.24025 0.15944 0.0
H1060 H 0.74094 0.22867 0.14648 0.0
H1061 H 0.69728 0.29267 0.11657 0.0
H1062 H 0.79568 0.1877 0.12636 0.0
H1063 H 0.77273 0.18665 0.09193 0.0
H1064 H 0.72179 0.17807 0.08921 0.0
H1065 H 0.77365 0.13611 0.19799 0.0
H1066 H 0.77533 0.17732 0.25641 0.0
H1067 H 0.73215 0.2142 0.20592 0.0
Cd1068 Cd 0.59961 0.07502 0.69054 0.0
C1069 C 0.57327 0.03108 0.7202 0.0
C1070 C 0.53502 0.05738 0.57987 0.0
O1071 O 0.51194 0.06585 0.57124 0.0
Cd1072 Cd 0.63502 0.00794 0.72207 0.0
C1073 C 0.56207 0.06225 0.57021 0.0
C1074 C 0.61672 0.06171 0.55617 0.0
C1075 C 0.60927 0.05006 0.57502 0.0
N1076 N 0.5829 0.05182 0.58107 0.0
C1077 C 0.5679 0.07426 0.55114 0.0
C1078 C 0.59565 0.07411 0.54424 0.0
Co1079 Co 0.57333 0.03141 0.60386 0.0
C1080 C 0.62636 0.0343 0.58957 0.0
O1081 O 0.65313 0.03084 0.58727 0.0
C1082 C 0.62408 0.00953 0.62269 0.0
C1083 C 0.62953 0.02245 0.64155 0.0
C1084 C 0.63471 0.00596 0.65879 0.0
C1085 C 0.63207 0.97724 0.65726 0.0
C1086 C 0.63169 0.96494 0.638 0.0
C1087 C 0.62653 0.98098 0.62073 0.0
C1088 C 0.64407 0.01728 0.67835 0.0
C1089 C 0.5119 0.04147 0.61158 0.0
C1090 C 0.49518 0.06512 0.61435 0.0
C1091 C 0.50375 0.01661 0.62096 0.0
C1092 C 0.48137 0.01585 0.63438 0.0
C1093 C 0.46526 0.03937 0.63723 0.0
C1094 C 0.47052 0.06329 0.6256 0.0
N1095 N 0.53522 0.04218 0.59773 0.0
N1096 N 0.61232 0.02462 0.60626 0.0
N1097 N 0.57634 0.06207 0.62346 0.0
C1098 C 0.58528 0.08961 0.6185 0.0
C1099 C 0.56615 0.11127 0.61757 0.0
C1100 C 0.61283 0.09448 0.61292 0.0
C1101 C 0.57425 0.13765 0.61052 0.0
H1102 H 0.5449 0.10727 0.62194 0.0
C1103 C 0.60172 0.14185 0.60409 0.0
C1104 C 0.62114 0.12029 0.60508 0.0
C1105 C 0.554 0.16068 0.60937 0.0
H1106 H 0.62771 0.07796 0.61434 0.0
H1107 H 0.60799 0.16192 0.59824 0.0
C1108 C 0.64973 0.12446 0.59727 0.0
O1109 O 0.56168 0.18554 0.60167 0.0
O1110 O 0.53026 0.15732 0.61536 0.0
O1111 O 0.66675 0.10581 0.59849 0.0
O1112 O 0.657 0.14873 0.58842 0.0
H1113 H 0.54882 0.20083 0.60075 0.0
H1114 H 0.6754 0.15175 0.58301 0.0
N1115 N 0.56444 0.01029 0.62647 0.0
C1116 C 0.56218 0.98302 0.62344 0.0
C1117 C 0.55715 0.9659 0.64038 0.0
C1118 C 0.55514 0.97847 0.6599 0.0
C1119 C 0.5583 0.00744 0.66213 0.0
C1120 C 0.56339 0.02319 0.64452 0.0
N1121 N 0.56942 -0.00337 0.5883 0.0
C1122 C 0.56454 0.97528 0.60171 0.0
O1123 O 0.56081 0.94964 0.59546 0.0
C1124 C 0.56987 0.05291 0.64302 0.0
O1125 O 0.63039 0.09971 0.66901 0.0
O1126 O 0.59921 0.12543 0.68374 0.0
C1127 C 0.56981 0.99179 0.56645 0.0
C1128 C 0.59071 0.9751 0.55755 0.0
C1129 C 0.58793 0.96529 0.53722 0.0
C1130 C 0.56498 0.97339 0.5257 0.0
C1131 C 0.54423 0.98965 0.53431 0.0
C1132 C 0.54627 -0.00182 0.55478 0.0
O1133 O 0.56552 0.05601 0.71727 0.0
O1134 O 0.5914 0.02203 0.70812 0.0
O1135 O 0.63163 0.03746 0.68643 0.0
O1136 O 0.65873 0.00214 0.68998 0.0
O1137 O 0.56798 0.06961 0.65971 0.0
C1138 C 0.64554 0.0771 0.73551 0.0
O1139 O 0.65008 0.05122 0.73723 0.0
O1140 O 0.62968 0.0872 0.72158 0.0
C1141 C 0.62027 0.12364 0.67199 0.0
H1142 H 0.63782 0.06081 0.55065 0.0
H1143 H 0.55162 0.08287 0.5417 0.0
H1144 H 0.60072 0.08305 0.52948 0.0
H1145 H 0.62947 0.04481 0.64279 0.0
H1146 H 0.63625 0.9643 0.67054 0.0
H1147 H 0.62564 0.9715 0.60567 0.0
H1148 H 0.49967 0.08404 0.60605 0.0
H1149 H 0.51339 -0.00267 0.61713 0.0
H1150 H 0.44655 0.03761 0.64628 0.0
H1151 H 0.55487 0.94372 0.63864 0.0
H1152 H 0.55133 0.96577 0.67329 0.0
H1153 H 0.55708 0.01705 0.67705 0.0
H1154 H 0.60821 0.96868 0.56676 0.0
H1155 H 0.56283 0.96633 0.50997 0.0
H1156 H 0.52897 0.00862 0.56182 0.0
Cd1157 Cd 0.66535 0.85523 0.4406 0.0
C1158 C 0.7161 0.83646 0.46982 0.0
C1159 C 0.68694 0.7902 0.32861 0.0
O1160 O 0.67954 0.76697 0.31959 0.0
Cd1161 Cd 0.73034 0.90139 0.46671 0.0
C1162 C 0.68176 0.81718 0.319 0.0
C1163 C 0.67993 0.87211 0.30551 0.0
C1164 C 0.69248 0.86475 0.32407 0.0
N1165 N 0.69174 0.83822 0.3299 0.0
C1166 C 0.66896 0.82286 0.30021 0.0
C1167 C 0.66789 0.85076 0.2936 0.0
Co1168 Co 0.71167 0.82905 0.35298 0.0
C1169 C 0.70769 0.88231 0.33867 0.0
O1170 O 0.70901 0.90942 0.33697 0.0
C1171 C 0.73049 0.88106 0.37257 0.0
C1172 C 0.71348 0.88896 0.38891 0.0
C1173 C 0.72486 0.88957 0.4085 0.0
C1174 C 0.75167 0.8799 0.41147 0.0
C1175 C 0.7704 0.88154 0.39525 0.0
C1176 C 0.7592 0.88044 0.37528 0.0
C1177 C 0.71273 0.90519 0.42528 0.0
C1178 C 0.69984 0.76717 0.36094 0.0
C1179 C 0.67582 0.75057 0.36198 0.0
C1180 C 0.72348 0.75816 0.3715 0.0
C1181 C 0.72272 0.7343 0.38361 0.0
C1182 C 0.69894 0.71796 0.38427 0.0
C1183 C 0.67608 0.72504 0.37221 0.0
N1184 N 0.7009 0.79059 0.34703 0.0
N1185 N 0.71876 0.86841 0.35494 0.0
N1186 N 0.68067 0.83242 0.37229 0.0
C1187 C 0.65276 0.83851 0.36634 0.0
C1188 C 0.63348 0.81706 0.36411 0.0
C1189 C 0.64587 0.86527 0.35984 0.0
C1190 C 0.60779 0.82194 0.3546 0.0
H1191 H 0.63901 0.79646 0.36913 0.0
C1192 C 0.60149 0.84881 0.34771 0.0
C1193 C 0.62044 0.87064 0.35024 0.0
C1194 C 0.58797 0.79889 0.35108 0.0
H1195 H 0.66076 0.88175 0.36161 0.0
H1196 H 0.58189 0.85271 0.34018 0.0
C1197 C 0.61417 0.89867 0.34204 0.0
O1198 O 0.56439 0.80339 0.34045 0.0
O1199 O 0.59292 0.77567 0.35761 0.0
O1200 O 0.63048 0.91776 0.34455 0.0
O1201 O 0.59054 0.9032 0.3315 0.0
H1202 H 0.55125 0.78865 0.33786 0.0
H1203 H 0.58619 0.92123 0.32586 0.0
N1204 N 0.73221 0.82039 0.37587 0.0
C1205 C 0.75933 0.81701 0.37301 0.0
C1206 C 0.77589 0.81087 0.39002 0.0
C1207 C 0.76294 0.80896 0.40942 0.0
C1208 C 0.73416 0.81339 0.41149 0.0
C1209 C 0.71898 0.81957 0.39381 0.0
N1210 N 0.74648 0.82485 0.33781 0.0
C1211 C 0.76744 0.81931 0.35134 0.0
O1212 O 0.79291 0.81459 0.34522 0.0
C1213 C 0.68945 0.82652 0.39208 0.0
O1214 O 0.63734 0.88504 0.42132 0.0
O1215 O 0.61521 0.8496 0.43425 0.0
C1216 C 0.75124 0.82321 0.31605 0.0
C1217 C 0.76483 0.84506 0.30549 0.0
C1218 C 0.77516 0.84089 0.28542 0.0
C1219 C 0.77266 0.81455 0.27672 0.0
C1220 C 0.75827 0.79326 0.28654 0.0
C1221 C 0.74797 0.79751 0.30633 0.0
O1222 O 0.69156 0.82712 0.46741 0.0
O1223 O 0.7246 0.85379 0.45667 0.0
O1224 O 0.69487 0.89393 0.43663 0.0
O1225 O 0.72775 0.92369 0.43347 0.0
O1226 O 0.6725 0.82477 0.4087 0.0
C1227 C 0.66086 0.90031 0.4849 0.0
O1228 O 0.68607 0.90768 0.48329 0.0
O1229 O 0.65032 0.88189 0.47293 0.0
C1230 C 0.61477 0.87191 0.42366 0.0
H1231 H 0.67975 0.89337 0.30025 0.0
H1232 H 0.66041 0.80642 0.29087 0.0
H1233 H 0.65818 0.85576 0.27911 0.0
H1234 H 0.6918 0.89341 0.38663 0.0
H1235 H 0.75857 0.87575 0.42692 0.0
H1236 H 0.77217 0.87856 0.36186 0.0
H1237 H 0.6577 0.75591 0.35306 0.0
H1238 H 0.74311 0.76805 0.36943 0.0
H1239 H 0.69959 0.69836 0.39235 0.0
H1240 H 0.79792 0.80761 0.38842 0.0
H1241 H 0.77522 0.8043 0.42286 0.0
H1242 H 0.72431 0.81234 0.42636 0.0
H1243 H 0.76791 0.86477 0.3131 0.0
H1244 H 0.78223 0.81034 0.26201 0.0
H1245 H 0.73839 0.78053 0.31451 0.0
Cd1246 Cd 0.88969 0.91567 0.19056 0.0
C1247 C 0.91893 0.95491 0.22162 0.0
C1248 C 0.95619 0.93375 0.08021 0.0
O1249 O 0.97922 0.92542 0.07147 0.0
Cd1250 Cd 0.86076 0.98307 0.22388 0.0
C1251 C 0.92907 0.92846 0.07077 0.0
C1252 C 0.87422 0.92777 0.05712 0.0
C1253 C 0.88187 0.94057 0.0755 0.0
N1254 N 0.90831 0.93933 0.08141 0.0
C1255 C 0.923 0.91499 0.05229 0.0
C1256 C 0.89517 0.91463 0.04556 0.0
Co1257 Co 0.91782 0.96006 0.10401 0.0
C1258 C 0.86482 0.95676 0.08975 0.0
O1259 O 0.83807 0.96032 0.08731 0.0
C1260 C 0.86704 0.98346 0.12188 0.0
C1261 C 0.8615 0.97212 0.14119 0.0
C1262 C 0.85409 0.98957 0.15742 0.0
C1263 C 0.85233 0.0181 0.15404 0.0
C1264 C 0.85549 0.0288 0.13431 0.0
C1265 C 0.86385 0.01163 0.1184 0.0
C1266 C 0.85026 0.97888 0.17821 0.0
C1267 C 0.97924 0.94922 0.11211 0.0
C1268 C -0.00366 0.92565 0.1145 0.0
C1269 C 0.98643 0.97341 0.12273 0.0
C1270 C 0.00709 0.97314 0.13757 0.0
C1271 C 0.02294 0.94949 0.1405 0.0
C1272 C 0.01983 0.92678 0.12722 0.0
N1273 N 0.95609 0.94908 0.098 0.0
N1274 N 0.87886 0.96698 0.10626 0.0
N1275 N 0.91472 0.92965 0.12391 0.0
C1276 C 0.90561 0.90212 0.11912 0.0
C1277 C 0.92467 0.8804 0.11804 0.0
C1278 C 0.87802 0.89741 0.11361 0.0
C1279 C 0.91641 0.85412 0.1109 0.0
H1280 H 0.94597 0.88427 0.12234 0.0
C1281 C 0.88895 0.85017 0.10438 0.0
C1282 C 0.86965 0.87182 0.10546 0.0
C1283 C 0.93649 0.83095 0.10972 0.0
H1284 H 0.86319 0.91395 0.11526 0.0
H1285 H 0.88258 0.83022 0.09839 0.0
C1286 C 0.84111 0.86798 0.09747 0.0
O1287 O 0.92865 0.8062 0.10196 0.0
O1288 O 0.96023 0.83408 0.11577 0.0
O1289 O 0.8242 0.88671 0.09872 0.0
O1290 O 0.83374 0.84387 0.08845 0.0
H1291 H 0.94139 0.79081 0.10105 0.0
H1292 H 0.81535 0.84103 0.08297 0.0
N1293 N 0.9265 0.98149 0.12646 0.0
C1294 C 0.92856 0.00874 0.12317 0.0
C1295 C 0.933 0.02618 0.13999 0.0
C1296 C 0.93464 0.01396 0.15968 0.0
C1297 C 0.93164 0.985 0.16219 0.0
C1298 C 0.9271 0.9689 0.14469 0.0
N1299 N 0.92165 0.99462 0.0881 0.0
C1300 C 0.92645 0.01615 0.10134 0.0
O1301 O 0.92997 0.04174 0.09488 0.0
C1302 C 0.92074 0.93911 0.14346 0.0
O1303 O 0.86044 0.88966 0.16806 0.0
O1304 O 0.8934 0.86581 0.18209 0.0
C1305 C 0.92115 -0.00075 0.0662 0.0
C1306 C 0.89954 0.01486 0.05699 0.0
C1307 C 0.90202 0.02421 0.03648 0.0
C1308 C 0.92621 0.01843 0.02567 0.0
C1309 C 0.94768 0.00351 0.0346 0.0
C1310 C 0.94515 0.99387 0.05479 0.0
O1311 O 0.92394 0.92928 0.21888 0.0
O1312 O 0.90238 0.9658 0.20917 0.0
O1313 O 0.8632 0.95738 0.18377 0.0
O1314 O 0.83931 0.99411 0.19184 0.0
O1315 O 0.92236 0.92263 0.16035 0.0
C1316 C 0.84187 0.91511 0.23484 0.0
O1317 O 0.8407 0.94103 0.23841 0.0
O1318 O 0.85647 0.90509 0.22017 0.0
C1319 C 0.87286 0.86659 0.16983 0.0
H1320 H 0.85303 0.92814 0.05177 0.0
H1321 H 0.9391 0.90542 0.04324 0.0
H1322 H 0.88993 0.90458 0.03124 0.0
H1323 H 0.86365 0.95004 0.14363 0.0
H1324 H 0.84534 0.03172 0.16621 0.0
H1325 H 0.86581 0.01975 0.10297 0.0
H1326 H 0.99283 0.90737 0.10529 0.0
H1327 H 0.97715 0.99292 0.11909 0.0
H1328 H 0.04014 0.95049 0.15112 0.0
H1329 H 0.9351 0.04835 0.13806 0.0
H1330 H 0.93802 0.02691 0.17298 0.0
H1331 H 0.93254 0.97569 0.17723 0.0
H1332 H 0.88136 0.02014 0.06583 0.0
H1333 H 0.92852 0.02591 0.01005 0.0
H1334 H 0.96262 0.98389 0.06204 0.0
Cd1335 Cd 0.827 0.14155 0.94174 0.0
C1336 C 0.78078 0.16272 0.9724 0.0
C1337 C 0.80562 0.20013 0.82738 0.0
O1338 O 0.81374 0.22275 0.81784 0.0
Cd1339 Cd 0.76178 0.10009 0.97175 0.0
C1340 C 0.81042 0.17258 0.81862 0.0
C1341 C 0.81062 0.11702 0.80661 0.0
C1342 C 0.79848 0.12557 0.82501 0.0
N1343 N 0.79987 0.15236 0.83009 0.0
C1344 C 0.82284 0.16569 0.79993 0.0
C1345 C 0.82306 0.13748 0.79405 0.0
Co1346 Co 0.77973 0.16317 0.85268 0.0
C1347 C 0.78299 0.10915 0.84015 0.0
O1348 O 0.78073 0.08204 0.83918 0.0
C1349 C 0.75986 0.11294 0.87378 0.0
C1350 C 0.77541 0.10779 0.89156 0.0
C1351 C 0.76164 0.10604 0.91033 0.0
C1352 C 0.73347 0.11213 0.9112 0.0
C1353 C 0.71787 0.10925 0.89338 0.0
C1354 C 0.73109 0.11143 0.87443 0.0
C1355 C 0.77413 0.09398 0.92863 0.0
C1356 C 0.79006 0.22533 0.8581 0.0
C1357 C 0.81383 0.24206 0.85975 0.0
C1358 C 0.76522 0.23499 0.86657 0.0
C1359 C 0.76442 0.26002 0.87723 0.0
C1360 C 0.788 0.27657 0.87848 0.0
C1361 C 0.81232 0.26839 0.86852 0.0
N1362 N 0.79069 0.20091 0.84535 0.0
N1363 N 0.77265 0.12417 0.85611 0.0
N1364 N 0.81048 0.16093 0.87236 0.0
C1365 C 0.83827 0.15389 0.86683 0.0
C1366 C 0.85792 0.17481 0.86387 0.0
C1367 C 0.84458 0.12664 0.86122 0.0
C1368 C 0.88348 0.16889 0.85453 0.0
H1369 H 0.85275 0.19581 0.86814 0.0
C1370 C 0.88916 0.14156 0.84839 0.0
C1371 C 0.86976 0.12029 0.85159 0.0
C1372 C 0.90377 0.19133 0.85036 0.0
H1373 H 0.82937 0.11056 0.86363 0.0
H1374 H 0.9086 0.13689 0.8409 0.0
C1375 C 0.87523 0.09182 0.84396 0.0
O1376 O 0.92728 0.1858 0.83995 0.0
O1377 O 0.89928 0.21496 0.85619 0.0
O1378 O 0.85849 0.07323 0.84699 0.0
O1379 O 0.89857 0.08634 0.83332 0.0
H1380 H 0.94074 0.20012 0.83698 0.0
H1381 H 0.90237 0.06802 0.82801 0.0
N1382 N 0.75898 0.17335 0.87514 0.0
C1383 C 0.73177 0.17572 0.87207 0.0
C1384 C 0.71482 0.18167 0.88889 0.0
C1385 C 0.72743 0.18421 0.90838 0.0
C1386 C 0.75627 0.18059 0.91073 0.0
C1387 C 0.77192 0.17475 0.89322 0.0
N1388 N 0.745 0.16655 0.83708 0.0
C1389 C 0.72384 0.17221 0.85042 0.0
O1390 O 0.6983 0.17608 0.8441 0.0
C1391 C 0.80151 0.16776 0.89194 0.0
O1392 O 0.85413 0.11016 0.92315 0.0
O1393 O 0.87689 0.14648 0.93376 0.0
C1394 C 0.7404 0.16674 0.81518 0.0
C1395 C 0.72473 0.14545 0.8057 0.0
C1396 C 0.71629 0.14803 0.785 0.0
C1397 C 0.7239 0.17179 0.77407 0.0
C1398 C 0.73925 0.19294 0.78317 0.0
C1399 C 0.74667 0.19076 0.80389 0.0
O1400 O 0.80551 0.17153 0.97017 0.0
O1401 O 0.77231 0.14562 0.95923 0.0
O1402 O 0.7934 0.10637 0.93782 0.0
O1403 O 0.75968 0.07728 0.93918 0.0
O1404 O 0.81829 0.17015 0.90868 0.0
C1405 C 0.83132 0.09357 0.98587 0.0
O1406 O 0.80572 0.08745 0.98676 0.0
O1407 O 0.84106 0.11095 0.97271 0.0
C1408 C 0.87679 0.12342 0.92416 0.0
H1409 H 0.81016 0.09553 0.80192 0.0
H1410 H 0.83161 0.18147 0.79006 0.0
H1411 H 0.8324 0.13156 0.77963 0.0
H1412 H 0.79767 0.10577 0.89086 0.0
H1413 H 0.72293 0.11155 0.92591 0.0
H1414 H 0.71933 0.11136 0.86028 0.0
H1415 H 0.83285 0.23601 0.85224 0.0
H1416 H 0.74597 0.22458 0.86381 0.0
H1417 H 0.78637 0.29696 0.88528 0.0
H1418 H 0.69271 0.1841 0.88712 0.0
H1419 H 0.71481 0.18858 0.9217 0.0
H1420 H 0.76582 0.1818 0.92571 0.0
H1421 H 0.71871 0.12741 0.81454 0.0
H1422 H 0.71681 0.17444 0.75839 0.0
H1423 H 0.75631 0.20823 0.81139 0.0
Cd1424 Cd 0.88707 0.57323 0.69051 0.0
C1425 C 0.90648 0.52973 0.72048 0.0
C1426 C 0.95264 0.55631 0.57892 0.0
O1427 O 0.97509 0.56543 0.56972 0.0
Cd1428 Cd 0.83928 0.50974 0.7184 0.0
C1429 C 0.92519 0.55994 0.5697 0.0
C1430 C 0.87004 0.5581 0.55689 0.0
C1431 C 0.87874 0.54553 0.57512 0.0
N1432 N 0.90525 0.548 0.58064 0.0
C1433 C 0.91812 0.57299 0.55126 0.0
C1434 C 0.89012 0.57214 0.54497 0.0
Co1435 Co 0.91618 0.52869 0.60364 0.0
C1436 C 0.86264 0.52924 0.58997 0.0
O1437 O 0.83569 0.52604 0.58868 0.0
C1438 C 0.86642 0.50687 0.62385 0.0
C1439 C 0.85826 0.52276 0.64073 0.0
C1440 C 0.85342 0.50949 0.65938 0.0
C1441 C 0.85914 0.48122 0.66133 0.0
C1442 C 0.86098 0.46514 0.64361 0.0
C1443 C 0.86641 0.47808 0.62496 0.0
C1444 C 0.83761 0.52263 0.67569 0.0
C1445 C 0.97795 0.54097 0.60974 0.0
C1446 C 0.99454 0.56492 0.61149 0.0
C1447 C 0.98782 0.51608 0.61807 0.0
C1448 C 0.01284 0.51529 0.62868 0.0
C1449 C 0.02929 0.53894 0.62995 0.0
C1450 C 0.02102 0.56336 0.62008 0.0
N1451 N 0.95358 0.54139 0.59693 0.0
N1452 N 0.87762 0.51979 0.60627 0.0
N1453 N 0.91176 0.55956 0.62287 0.0
C1454 C 0.90392 0.58712 0.61707 0.0
C1455 C 0.92363 0.60838 0.6166 0.0
C1456 C 0.87728 0.59209 0.60955 0.0
C1457 C 0.91707 0.63434 0.60802 0.0
H1458 H 0.9442 0.60434 0.62246 0.0
C1459 C 0.89065 0.63844 0.59948 0.0
C1460 C 0.87064 0.61732 0.60005 0.0
C1461 C 0.93782 0.65704 0.60753 0.0
H1462 H 0.86181 0.57605 0.61078 0.0
H1463 H 0.88559 0.65816 0.59249 0.0
C1464 C 0.84284 0.62169 0.59089 0.0
O1465 O 0.93136 0.68174 0.59902 0.0
O1466 O 0.96084 0.65359 0.61485 0.0
O1467 O 0.82539 0.60333 0.59159 0.0
O1468 O 0.83667 0.64593 0.5816 0.0
H1469 H 0.94454 0.69684 0.59855 0.0
H1470 H 0.81872 0.64916 0.57548 0.0
N1471 N 0.92647 0.50859 0.62649 0.0
C1472 C 0.92957 0.48134 0.6238 0.0
C1473 C 0.93433 0.46462 0.64098 0.0
C1474 C 0.9348 0.47747 0.66045 0.0
C1475 C 0.93033 0.50629 0.66238 0.0
C1476 C 0.92587 0.52167 0.64448 0.0
N1477 N 0.9215 0.49404 0.58868 0.0
C1478 C 0.92724 0.47309 0.60219 0.0
O1479 O 0.93175 0.44752 0.59611 0.0
C1480 C 0.9178 0.5509 0.64264 0.0
O1481 O 0.8692 0.60382 0.66527 0.0
O1482 O 0.89181 0.62382 0.69001 0.0
C1483 C 0.92237 0.48941 0.56698 0.0
C1484 C 0.90095 0.47453 0.55712 0.0
C1485 C 0.90452 0.46543 0.53677 0.0
C1486 C 0.92938 0.47078 0.52672 0.0
C1487 C 0.95048 0.48524 0.53638 0.0
C1488 C 0.94712 0.4946 0.55647 0.0
O1489 O 0.92213 0.54947 0.71477 0.0
O1490 O 0.88439 0.52701 0.71048 0.0
O1491 O 0.84787 0.54247 0.68578 0.0
O1492 O 0.81924 0.50813 0.68455 0.0
O1493 O 0.9183 0.56775 0.65928 0.0
C1494 C 0.83485 0.57771 0.73288 0.0
O1495 O 0.82583 0.55291 0.73311 0.0
O1496 O 0.85427 0.58592 0.72074 0.0
C1497 C 0.878 0.62606 0.67339 0.0
H1498 H 0.84869 0.557 0.55196 0.0
H1499 H 0.93359 0.58325 0.54195 0.0
H1500 H 0.88407 0.58201 0.53076 0.0
H1501 H 0.85557 0.54494 0.63932 0.0
H1502 H 0.85463 0.47088 0.67575 0.0
H1503 H 0.86874 0.46597 0.61107 0.0
H1504 H 0.9882 0.58408 0.60423 0.0
H1505 H 0.97764 0.49674 0.61518 0.0
H1506 H 0.04966 0.53732 0.63674 0.0
H1507 H 0.93713 0.44248 0.63949 0.0
H1508 H 0.93809 0.46504 0.67405 0.0
H1509 H 0.92971 0.51597 0.67732 0.0
H1510 H 0.88208 0.46972 0.56535 0.0
H1511 H 0.93238 0.4636 0.5111 0.0
H1512 H 0.96426 0.50449 0.56425 0.0
Cd1513 Cd 0.66625 0.63172 0.93772 0.0
C1514 C 0.71686 0.65798 0.96986 0.0
C1515 C 0.68571 0.70929 0.83067 0.0
O1516 O 0.67947 0.73392 0.82336 0.0
Cd1517 Cd 0.70396 0.60511 0.95242 0.0
C1518 C 0.68011 0.68413 0.81877 0.0
C1519 C 0.67863 0.63225 0.79988 0.0
C1520 C 0.69076 0.63619 0.81913 0.0
N1521 N 0.68978 0.66134 0.82768 0.0
C1522 C 0.66762 0.68188 0.79946 0.0
C1523 C 0.66666 0.65547 0.79013 0.0
Co1524 Co 0.71032 0.66647 0.85126 0.0
C1525 C 0.70682 0.61649 0.83135 0.0
O1526 O 0.70971 0.59032 0.82621 0.0
C1527 C 0.73337 0.6112 0.86299 0.0
C1528 C 0.71881 0.59731 0.87809 0.0
C1529 C 0.73249 0.58726 0.89528 0.0
C1530 C 0.76128 0.58804 0.896 0.0
C1531 C 0.77645 0.60199 0.88065 0.0
C1532 C 0.76219 0.6128 0.86376 0.0
C1533 C 0.71724 0.58726 0.91445 0.0
C1534 C 0.6971 0.72674 0.86515 0.0
C1535 C 0.67349 0.74408 0.8666 0.0
C1536 C 0.71948 0.73249 0.87812 0.0
C1537 C 0.71731 0.75218 0.89361 0.0
C1538 C 0.69373 0.76849 0.89522 0.0
C1539 C 0.6728 0.76671 0.88029 0.0
N1540 N 0.69907 0.70581 0.84915 0.0
N1541 N 0.71822 0.62729 0.84874 0.0
N1542 N 0.67965 0.65951 0.87055 0.0
C1543 C 0.65189 0.65229 0.86486 0.0
C1544 C 0.63052 0.6717 0.86648 0.0
C1545 C 0.64622 0.62595 0.85691 0.0
C1546 C 0.6036 0.66504 0.85982 0.0
H1547 H 0.63512 0.69206 0.87259 0.0
C1548 C 0.5984 0.63862 0.85156 0.0
C1549 C 0.61962 0.61893 0.85001 0.0
C1550 C 0.58092 0.68564 0.86116 0.0
H1551 H 0.6626 0.61091 0.85598 0.0
H1552 H 0.57778 0.63337 0.84632 0.0
C1553 C 0.61409 0.59123 0.84092 0.0
O1554 O 0.55582 0.67987 0.85306 0.0
O1555 O 0.58477 0.70794 0.86955 0.0
O1556 O 0.63251 0.57396 0.8399 0.0
O1557 O 0.5887 0.58499 0.83357 0.0
H1558 H 0.54076 0.69302 0.85369 0.0
H1559 H 0.58471 0.56713 0.82751 0.0
N1560 N 0.73132 0.67096 0.87456 0.0
C1561 C 0.75828 0.6758 0.87181 0.0
C1562 C 0.77503 0.67954 0.8891 0.0
C1563 C 0.76227 0.67863 0.9086 0.0
C1564 C 0.73349 0.67395 0.91043 0.0
C1565 C 0.71824 0.6695 0.89255 0.0
N1566 N 0.74473 0.67375 0.83641 0.0
C1567 C 0.76585 0.67793 0.85005 0.0
O1568 O 0.79141 0.68263 0.84407 0.0
C1569 C 0.68849 0.66357 0.89059 0.0
O1570 O 0.63571 0.598 0.92553 0.0
O1571 O 0.61752 0.63912 0.92737 0.0
C1572 C 0.74979 0.67258 0.81474 0.0
C1573 C 0.76435 0.65008 0.80584 0.0
C1574 C 0.77299 0.65161 0.78519 0.0
C1575 C 0.76769 0.67562 0.77402 0.0
C1576 C 0.75351 0.6976 0.78275 0.0
C1577 C 0.74448 0.6962 0.80301 0.0
O1578 O 0.69049 0.65612 0.9686 0.0
O1579 O 0.73072 0.64616 0.95601 0.0
O1580 O 0.69907 0.60607 0.91637 0.0
O1581 O 0.72605 0.57442 0.93005 0.0
O1582 O 0.67135 0.66531 0.90723 0.0
C1583 C 0.66217 0.59002 0.98395 0.0
O1584 O 0.68762 0.58466 0.98231 0.0
O1585 O 0.65064 0.60564 0.97051 0.0
C1586 C 0.61505 0.61365 0.92228 0.0
H1587 H 0.67891 0.61221 0.79245 0.0
H1588 H 0.65935 0.69987 0.79169 0.0
H1589 H 0.6573 0.65314 0.77515 0.0
H1590 H 0.69644 0.59775 0.87782 0.0
H1591 H 0.77146 0.5793 0.90928 0.0
H1592 H 0.77326 0.62328 0.85164 0.0
H1593 H 0.65664 0.74125 0.85597 0.0
H1594 H 0.73923 0.72313 0.87589 0.0
H1595 H 0.69329 0.78442 0.90689 0.0
H1596 H 0.79696 0.68359 0.88763 0.0
H1597 H 0.77457 0.68194 0.92225 0.0
H1598 H 0.72343 0.67422 0.92516 0.0
H1599 H 0.76907 0.6319 0.8149 0.0
H1600 H 0.77465 0.67724 0.75822 0.0
H1601 H 0.73471 0.71403 0.80993 0.0
Cd1602 Cd 0.6095 0.41849 0.18957 0.0
C1603 C 0.58258 0.46771 0.22348 0.0
C1604 C 0.53433 0.43675 0.08126 0.0
O1605 O 0.5102 0.42971 0.07351 0.0
Cd1606 Cd 0.63613 0.4554 0.20559 0.0
C1607 C 0.55997 0.43224 0.06971 0.0
C1608 C 0.61249 0.43241 0.05185 0.0
C1609 C 0.60742 0.44485 0.07083 0.0
N1610 N 0.58204 0.44312 0.07885 0.0
C1611 C 0.56335 0.41944 0.05061 0.0
C1612 C 0.59008 0.41934 0.0418 0.0
Co1613 Co 0.5756 0.46321 0.10241 0.0
C1614 C 0.62622 0.46152 0.08346 0.0
O1615 O 0.65257 0.46471 0.07902 0.0
C1616 C 0.63011 0.48708 0.11573 0.0
C1617 C 0.64381 0.47154 0.1304 0.0
C1618 C 0.65478 0.48426 0.14772 0.0
C1619 C 0.6553 0.51301 0.1489 0.0
C1620 C 0.64096 0.52927 0.13443 0.0
C1621 C 0.62895 0.51599 0.11743 0.0
C1622 C 0.65442 0.46856 0.16677 0.0
C1623 C 0.51534 0.44853 0.11531 0.0
C1624 C 0.49793 0.42486 0.11668 0.0
C1625 C 0.50951 0.4709 0.12825 0.0
C1626 C 0.49037 0.46837 0.14406 0.0
C1627 C 0.47445 0.44449 0.14589 0.0
C1628 C 0.47565 0.42387 0.13067 0.0
N1629 N 0.5368 0.45042 0.09971 0.0
N1630 N 0.61452 0.4728 0.10057 0.0
N1631 N 0.58331 0.43259 0.1215 0.0
C1632 C 0.58987 0.40489 0.11523 0.0
C1633 C 0.56926 0.3845 0.11451 0.0
C1634 C 0.61624 0.39902 0.1075 0.0
C1635 C 0.57474 0.35845 0.10569 0.0
H1636 H 0.54879 0.38936 0.12018 0.0
C1637 C 0.60126 0.35302 0.09783 0.0
C1638 C 0.62217 0.37321 0.09864 0.0
C1639 C 0.55273 0.33711 0.10411 0.0
H1640 H 0.63198 0.41487 0.10788 0.0
H1641 H 0.6056 0.33305 0.09097 0.0
C1642 C 0.64987 0.36763 0.08969 0.0
O1643 O 0.55678 0.31415 0.09266 0.0
O1644 O 0.53084 0.34011 0.11319 0.0
O1645 O 0.66809 0.3852 0.0905 0.0
O1646 O 0.65507 0.34315 0.08044 0.0
H1647 H 0.5427 0.29997 0.09142 0.0
H1648 H 0.67292 0.33916 0.07442 0.0
N1649 N 0.57 0.48377 0.12575 0.0
C1650 C 0.56522 0.51077 0.12302 0.0
C1651 C 0.56206 0.52754 0.14035 0.0
C1652 C 0.56425 0.5149 0.15987 0.0
C1653 C 0.56958 0.48619 0.16172 0.0
C1654 C 0.57268 0.47077 0.14373 0.0
N1655 N 0.56737 0.49733 0.08756 0.0
C1656 C 0.56308 0.51841 0.10123 0.0
O1657 O 0.55816 0.54396 0.09526 0.0
C1658 C 0.57942 0.44115 0.14161 0.0
O1659 O 0.64084 0.3856 0.17824 0.0
O1660 O 0.59843 0.37022 0.17976 0.0
C1661 C 0.56901 0.50226 0.06587 0.0
C1662 C 0.591 0.51802 0.05752 0.0
C1663 C 0.59002 0.52668 0.03689 0.0
C1664 C 0.56771 0.51856 0.02469 0.0
C1665 C 0.5454 0.50414 0.03304 0.0
C1666 C 0.54617 0.49576 0.05358 0.0
O1667 O 0.58325 0.4416 0.21977 0.0
O1668 O 0.59801 0.48351 0.21304 0.0
O1669 O 0.63535 0.45061 0.16841 0.0
O1670 O 0.66679 0.47717 0.18263 0.0
O1671 O 0.57768 0.4237 0.15808 0.0
C1672 C 0.65327 0.41295 0.23479 0.0
O1673 O 0.65603 0.43892 0.23594 0.0
O1674 O 0.63947 0.40231 0.21998 0.0
C1675 C 0.62379 0.36594 0.17522 0.0
H1676 H 0.63277 0.43317 0.04485 0.0
H1677 H 0.546 0.4102 0.04264 0.0
H1678 H 0.59329 0.40968 0.02702 0.0
H1679 H 0.6428 0.44918 0.12965 0.0
H1680 H 0.66535 0.52233 0.16201 0.0
H1681 H 0.61822 0.52783 0.10584 0.0
H1682 H 0.50063 0.40815 0.10595 0.0
H1683 H 0.51843 0.49086 0.12583 0.0
H1684 H 0.45911 0.44369 0.15796 0.0
H1685 H 0.55794 0.54948 0.13892 0.0
H1686 H 0.56185 0.52733 0.17356 0.0
H1687 H 0.57141 0.47652 0.17661 0.0
H1688 H 0.60792 0.52456 0.06728 0.0
H1689 H 0.56709 0.52466 1.00867 0.0
H1690 H 0.52827 0.48583 0.06033 0.0
Cd1691 Cd 0.82449 0.35124 0.44206 0.0
C1692 C 0.78039 0.33615 0.47399 0.0
C1693 C 0.80497 0.28398 0.33047 0.0
O1694 O 0.81094 0.2602 0.32172 0.0
Cd1695 Cd 0.76499 0.40548 0.4695 0.0
C1696 C 0.81085 0.31039 0.32009 0.0
C1697 C 0.81248 0.36431 0.30442 0.0
C1698 C 0.80093 0.35834 0.32359 0.0
N1699 N 0.80185 0.33225 0.33053 0.0
C1700 C 0.82265 0.3147 0.30073 0.0
C1701 C 0.82369 0.3421 0.29303 0.0
Co1702 Co 0.78135 0.32471 0.35371 0.0
C1703 C 0.7858 0.37686 0.33746 0.0
O1704 O 0.78365 0.40369 0.33439 0.0
C1705 C 0.7619 0.37775 0.37082 0.0
C1706 C 0.77632 0.38351 0.38896 0.0
C1707 C 0.76132 0.38847 0.4068 0.0
C1708 C 0.73271 0.38525 0.40669 0.0
C1709 C 0.71885 0.38668 0.38802 0.0
C1710 C 0.7333 0.3814 0.36994 0.0
C1711 C 0.77372 0.40034 0.42505 0.0
C1712 C 0.79154 0.26296 0.36365 0.0
C1713 C 0.81403 0.24415 0.36458 0.0
C1714 C 0.76898 0.25798 0.37664 0.0
C1715 C 0.77077 0.23877 0.3925 0.0
C1716 C 0.79375 0.22165 0.39403 0.0
C1717 C 0.81355 0.22152 0.37826 0.0
N1718 N 0.79108 0.28554 0.34888 0.0
N1719 N 0.77543 0.36414 0.35448 0.0
N1720 N 0.81211 0.32822 0.37323 0.0
C1721 C 0.83976 0.33618 0.36783 0.0
C1722 C 0.86078 0.31634 0.36695 0.0
C1723 C 0.84525 0.36338 0.36151 0.0
C1724 C 0.88714 0.32344 0.35937 0.0
H1725 H 0.85626 0.29531 0.37173 0.0
C1726 C 0.892 0.35064 0.35243 0.0
C1727 C 0.87108 0.37073 0.3533 0.0
C1728 C 0.9095 0.30247 0.35822 0.0
H1729 H 0.82919 0.37876 0.36255 0.0
H1730 H 0.91206 0.35616 0.34624 0.0
C1731 C 0.8759 0.39904 0.34502 0.0
O1732 O 0.93438 0.30931 0.35022 0.0
O1733 O 0.90557 0.27891 0.36448 0.0
O1734 O 0.85776 0.41661 0.34605 0.0
O1735 O 0.90024 0.40548 0.336 0.0
H1736 H 0.94925 0.29597 0.3493 0.0
H1737 H 0.90369 0.42369 0.33031 0.0
N1738 N 0.76008 0.31816 0.37667 0.0
C1739 C 0.73278 0.3166 0.37371 0.0
C1740 C 0.71555 0.31352 0.39081 0.0
C1741 C 0.72802 0.31281 0.41042 0.0
C1742 C 0.75702 0.31535 0.41259 0.0
C1743 C 0.77292 0.31824 0.39478 0.0
N1744 N 0.74657 0.32074 0.3384 0.0
C1745 C 0.72511 0.31761 0.35192 0.0
O1746 O 0.69936 0.31459 0.34578 0.0
C1747 C 0.80279 0.32351 0.39306 0.0
O1748 O 0.85343 0.37878 0.42119 0.0
O1749 O 0.87501 0.34599 0.43778 0.0
C1750 C 0.74168 0.31975 0.31662 0.0
C1751 C 0.72796 0.34192 0.3066 0.0
C1752 C 0.71711 0.33841 0.28659 0.0
C1753 C 0.72032 0.31258 0.27714 0.0
C1754 C 0.73549 0.29142 0.28622 0.0
C1755 C 0.74526 0.29455 0.30625 0.0
O1756 O 0.79839 0.31875 0.46795 0.0
O1757 O 0.7823 0.35976 0.46604 0.0
O1758 O 0.79203 0.38736 0.43482 0.0
O1759 O 0.7606 0.41913 0.43447 0.0
O1760 O 0.81943 0.32139 0.40981 0.0
C1761 C 0.83203 0.40472 0.48323 0.0
O1762 O 0.8087 0.41679 0.48247 0.0
O1763 O 0.83835 0.38356 0.47215 0.0
C1764 C 0.87594 0.36657 0.42545 0.0
H1765 H 0.8123 0.38514 0.29826 0.0
H1766 H 0.83025 0.29755 0.29167 0.0
H1767 H 0.83252 0.34601 0.27806 0.0
H1768 H 0.79867 0.38359 0.38933 0.0
H1769 H 0.72114 0.38862 0.42075 0.0
H1770 H 0.72265 0.38064 0.35532 0.0
H1771 H 0.83101 0.24593 0.35389 0.0
H1772 H 0.74952 0.26796 0.37435 0.0
H1773 H 0.79418 0.20627 0.40612 0.0
H1774 H 0.69334 0.31185 0.38913 0.0
H1775 H 0.71521 0.31068 0.42394 0.0
H1776 H 0.76651 0.3156 0.42762 0.0
H1777 H 0.72542 0.36135 0.31464 0.0
H1778 H 0.71119 0.30866 0.26223 0.0
H1779 H 0.75481 0.27714 0.31389 0.0
Cd1780 Cd 0.87881 0.42061 0.83007 0.0
C1781 C 0.90554 0.47141 0.79869 0.0
C1782 C 0.95115 0.43494 0.93944 0.0
O1783 O 0.97457 0.42525 0.94677 0.0
Cd1784 Cd 0.85188 0.45766 0.81429 0.0
C1785 C 0.92527 0.4318 0.95083 0.0
C1786 C 0.87247 0.43382 0.96808 0.0
C1787 C 0.87872 0.4471 0.94958 0.0
N1788 N 0.90425 0.44488 0.94197 0.0
C1789 C 0.92072 0.41809 0.96946 0.0
C1790 C 0.89387 0.41907 0.97802 0.0
Co1791 Co 0.91195 0.46438 0.9182 0.0
C1792 C 0.86082 0.46404 0.93657 0.0
O1793 O 0.83445 0.46793 0.94055 0.0
C1794 C 0.85868 0.48935 0.90428 0.0
C1795 C 0.84503 0.47438 0.88933 0.0
C1796 C 0.83508 0.48772 0.87195 0.0
C1797 C 0.83555 0.51664 0.87105 0.0
C1798 C 0.8486 0.53231 0.88665 0.0
C1799 C 0.86027 0.51814 0.90327 0.0
C1800 C 0.83477 0.47183 0.85299 0.0
C1801 C 0.97405 0.45397 0.909 0.0
C1802 C 0.99123 0.43092 0.90509 0.0
C1803 C 0.98414 0.48049 0.90449 0.0
C1804 C 0.01042 0.48408 0.89624 0.0
C1805 C 0.02755 0.46138 0.89313 0.0
C1806 C 0.01862 0.4345 0.89839 0.0
N1807 N 0.94991 0.45053 0.92175 0.0
N1808 N 0.87334 0.47464 0.91951 0.0
N1809 N 0.90379 0.43368 0.89933 0.0
C1810 C 0.89847 0.40612 0.90637 0.0
C1811 C 0.92057 0.38789 0.9092 0.0
C1812 C 0.8727 0.39992 0.915 0.0
C1813 C 0.91771 0.36447 0.92186 0.0
H1814 H 0.94037 0.393 0.90249 0.0
C1815 C 0.89201 0.35915 0.93119 0.0
C1816 C 0.86925 0.37657 0.92763 0.0
C1817 C 0.94171 0.34613 0.92598 0.0
H1818 H 0.85582 0.41431 0.91287 0.0
H1819 H 0.88971 0.34139 0.94122 0.0
C1820 C 0.84238 0.37117 0.93793 0.0
O1821 O 0.93894 0.32406 0.93858 0.0
O1822 O 0.96415 0.35091 0.91807 0.0
O1823 O 0.82267 0.38651 0.93499 0.0
O1824 O 0.83958 0.34937 0.95079 0.0
H1825 H 0.95431 0.31187 0.94151 0.0
H1826 H 0.82231 0.34558 0.95776 0.0
N1827 N 0.91921 0.48415 0.8946 0.0
C1828 C 0.92472 0.51107 0.89692 0.0
C1829 C 0.92967 0.52712 0.87942 0.0
C1830 C 0.92845 0.51385 0.86011 0.0
C1831 C 0.92219 0.48529 0.85867 0.0
C1832 C 0.91711 0.47069 0.87679 0.0
N1833 N 0.92062 0.49872 0.93246 0.0
C1834 C 0.92553 0.51946 0.91859 0.0
O1835 O 0.93143 0.54493 0.92427 0.0
C1836 C 0.90867 0.44155 0.87916 0.0
O1837 O 0.84929 0.38382 0.83897 0.0
O1838 O 0.89307 0.37267 0.83767 0.0
C1839 C 0.92025 0.5037 0.95406 0.0
C1840 C 0.89983 0.52078 0.96293 0.0
C1841 C 0.90208 0.52875 0.98366 0.0
C1842 C 0.92417 0.51882 0.99531 0.0
C1843 C 0.94454 0.5026 0.98635 0.0
C1844 C 0.94283 0.49523 0.96576 0.0
O1845 O 0.90451 0.44494 0.79982 0.0
O1846 O 0.89231 0.48489 0.81203 0.0
O1847 O 0.85338 0.45341 0.85132 0.0
O1848 O 0.82193 0.48022 0.83725 0.0
O1849 O 0.90936 0.42383 0.86282 0.0
C1850 C 0.83459 0.4157 0.78479 0.0
O1851 O 0.83366 0.44175 0.78283 0.0
O1852 O 0.84728 0.40506 0.80013 0.0
C1853 C 0.86802 0.36557 0.84101 0.0
H1854 H 0.85197 0.43491 0.97469 0.0
H1855 H 0.93727 0.40722 0.97721 0.0
H1856 H 0.88973 0.40866 0.9924 0.0
H1857 H 0.84538 0.45195 0.89005 0.0
H1858 H 0.82704 0.52656 0.85757 0.0
H1859 H 0.87122 0.52903 0.91519 0.0
H1860 H 0.98421 0.41037 0.90926 0.0
H1861 H 0.97327 0.49875 0.90904 0.0
H1862 H 0.04856 0.46549 0.88833 0.0
H1863 H 0.93445 0.54897 0.88057 0.0
H1864 H 0.93233 0.52567 0.84629 0.0
H1865 H 0.9213 0.47503 0.84398 0.0
H1866 H 0.88304 0.52853 0.95357 0.0
H1867 H 0.92615 0.52452 0.01134 0.0
H1868 H 0.95976 0.48425 0.95861 0.0
Cd1869 Cd 0.82057 0.63063 0.08205 0.0
C1870 C 0.77185 0.65362 0.04957 0.0
C1871 C 0.80774 0.70922 0.18782 0.0
O1872 O 0.8155 0.73309 0.19568 0.0
Cd1873 Cd 0.7607 0.58782 0.05648 0.0
C1874 C 0.81321 0.68303 0.19857 0.0
C1875 C 0.81442 0.62957 0.21506 0.0
C1876 C 0.80105 0.63541 0.19654 0.0
N1877 N 0.80201 0.66126 0.18923 0.0
C1878 C 0.82691 0.67888 0.21724 0.0
C1879 C 0.82765 0.65169 0.22537 0.0
Co1880 Co 0.78054 0.66861 0.16655 0.0
C1881 C 0.78416 0.61701 0.18371 0.0
O1882 O 0.78117 0.59042 0.18752 0.0
C1883 C 0.7563 0.61526 0.15228 0.0
C1884 C 0.76925 0.604 0.13513 0.0
C1885 C 0.75345 0.59138 0.11997 0.0
C1886 C 0.72474 0.59019 0.12208 0.0
C1887 C 0.71123 0.60309 0.1386 0.0
C1888 C 0.72747 0.61484 0.15409 0.0
C1889 C 0.76557 0.58379 0.10027 0.0
C1890 C 0.7931 0.72946 0.15474 0.0
C1891 C 0.81682 0.74646 0.15232 0.0
C1892 C 0.7696 0.73599 0.14317 0.0
C1893 C 0.77079 0.75576 0.12764 0.0
C1894 C 0.79464 0.77145 0.12479 0.0
C1895 C 0.81682 0.76918 0.13866 0.0
N1896 N 0.79248 0.70748 0.17002 0.0
N1897 N 0.77243 0.62951 0.16707 0.0
N1898 N 0.81016 0.66269 0.14647 0.0
C1899 C 0.83779 0.65406 0.15129 0.0
C1900 C 0.85948 0.67332 0.15153 0.0
C1901 C 0.84284 0.62662 0.15719 0.0
C1902 C 0.8861 0.66538 0.15806 0.0
H1903 H 0.85534 0.69453 0.14706 0.0
C1904 C 0.8906 0.63791 0.16445 0.0
C1905 C 0.86904 0.6184 0.16417 0.0
C1906 C 0.90912 0.68575 0.15868 0.0
H1907 H 0.82618 0.61175 0.15671 0.0
H1908 H 0.91093 0.63172 0.1697 0.0
C1909 C 0.87371 0.5897 0.17166 0.0
O1910 O 0.93374 0.67867 0.16696 0.0
O1911 O 0.90598 0.70905 0.15172 0.0
O1912 O 0.85497 0.57266 0.17121 0.0
O1913 O 0.89865 0.58228 0.17922 0.0
H1914 H 0.94901 0.69164 0.16759 0.0
H1915 H 0.90209 0.56373 0.18423 0.0
N1916 N 0.75859 0.67518 0.14403 0.0
C1917 C 0.7317 0.67911 0.14765 0.0
C1918 C 0.71392 0.68255 0.1309 0.0
C1919 C 0.72546 0.68145 0.11099 0.0
C1920 C 0.75409 0.6768 0.10819 0.0
C1921 C 0.77054 0.67338 0.12564 0.0
N1922 N 0.74685 0.67487 0.18268 0.0
C1923 C 0.72513 0.67976 0.16966 0.0
O1924 O 0.69985 0.684 0.17638 0.0
C1925 C 0.80018 0.66673 0.1268 0.0
O1926 O 0.8484 0.59904 0.10105 0.0
O1927 O 0.8704 0.63586 0.09112 0.0
C1928 C 0.74267 0.67199 0.20448 0.0
C1929 C 0.72489 0.65122 0.21245 0.0
C1930 C 0.71606 0.65236 0.23306 0.0
C1931 C 0.72623 0.67333 0.24576 0.0
C1932 C 0.7435 0.69403 0.23805 0.0
C1933 C 0.75147 0.69335 0.21739 0.0
O1934 O 0.79787 0.65669 0.05232 0.0
O1935 O 0.7591 0.63785 0.06196 0.0
O1936 O 0.78444 0.59873 0.09246 0.0
O1937 O 0.75285 0.56697 0.08876 0.0
O1938 O 0.81623 0.66698 0.1097 0.0
C1939 C 0.82876 0.58608 0.03915 0.0
O1940 O 0.80459 0.57624 0.04139 0.0
O1941 O 0.83751 0.60613 0.05029 0.0
C1942 C 0.87081 0.61286 0.1008 0.0
H1943 H 0.81424 0.60891 0.22152 0.0
H1944 H 0.8363 0.69597 0.22542 0.0
H1945 H 0.83797 0.6479 0.23982 0.0
H1946 H 0.79141 0.60579 0.13328 0.0
H1947 H 0.71287 0.57985 0.11026 0.0
H1948 H 0.71799 0.62446 0.1672 0.0
H1949 H 0.83444 0.74309 0.16212 0.0
H1950 H 0.74987 0.72705 0.14649 0.0
H1951 H 0.79446 0.78727 0.11302 0.0
H1952 H 0.69201 0.686 0.13307 0.0
H1953 H 0.71223 0.68407 0.09774 0.0
H1954 H 0.76291 0.6757 0.09298 0.0
H1955 H 0.71676 0.63531 0.20244 0.0
H1956 H 0.71921 0.67447 0.26153 0.0
H1957 H 0.76291 0.71056 0.21104 0.0
Cd1958 Cd 0.6111 0.57238 0.3311 0.0
C1959 C 0.58901 0.51823 0.3021 0.0
C1960 C 0.53548 0.55643 0.43956 0.0
O1961 O 0.51293 0.56572 0.44848 0.0
Cd1962 Cd 0.65665 0.51186 0.30529 0.0
C1963 C 0.56287 0.56044 0.44885 0.0
C1964 C 0.61809 0.5596 0.46157 0.0
C1965 C 0.60957 0.5472 0.44324 0.0
N1966 N 0.58302 0.54921 0.4378 0.0
C1967 C 0.56974 0.57335 0.46739 0.0
C1968 C 0.59779 0.57299 0.47363 0.0
Co1969 Co 0.57235 0.52968 0.41492 0.0
C1970 C 0.62579 0.5312 0.42835 0.0
O1971 O 0.65274 0.52815 0.4297 0.0
C1972 C 0.62219 0.50824 0.39466 0.0
C1973 C 0.63404 0.52375 0.37874 0.0
C1974 C 0.64497 0.51 0.36176 0.0
C1975 C 0.64292 0.4811 0.3605 0.0
C1976 C 0.6338 0.46588 0.37739 0.0
C1977 C 0.62148 0.47953 0.39374 0.0
C1978 C 0.66129 0.5246 0.34627 0.0
C1979 C 0.51127 0.5434 0.40767 0.0
C1980 C 0.49565 0.56798 0.40632 0.0
C1981 C 0.50124 0.5197 0.39765 0.0
C1982 C 0.47712 0.5208 0.38591 0.0
C1983 C 0.46156 0.54505 0.38517 0.0
C1984 C 0.46974 0.56806 0.39674 0.0
N1985 N 0.53479 0.54198 0.42136 0.0
N1986 N 0.61084 0.52134 0.41214 0.0
N1987 N 0.57699 0.56044 0.39562 0.0
C1988 C 0.58524 0.58794 0.4013 0.0
C1989 C 0.56541 0.60885 0.40309 0.0
C1990 C 0.61247 0.5931 0.40756 0.0
C1991 C 0.57238 0.63458 0.41185 0.0
H1992 H 0.54447 0.60471 0.39808 0.0
C1993 C 0.59949 0.6389 0.41906 0.0
C1994 C 0.61974 0.61829 0.41688 0.0
C1995 C 0.55143 0.65687 0.41375 0.0
H1996 H 0.62785 0.57717 0.40574 0.0
H1997 H 0.60492 0.65846 0.42614 0.0
C1998 C 0.64821 0.62281 0.42482 0.0
O1999 O 0.55834 0.68143 0.42228 0.0
O2000 O 0.52784 0.65321 0.40755 0.0
O2001 O 0.66581 0.60485 0.4229 0.0
O2002 O 0.65479 0.64672 0.43444 0.0
H2003 H 0.54504 0.69628 0.42364 0.0
H2004 H 0.67314 0.65 0.43986 0.0
N2005 N 0.56234 0.50938 0.39219 0.0
C2006 C 0.55879 0.4822 0.39516 0.0
C2007 C 0.55457 0.46522 0.37806 0.0
C2008 C 0.5551 0.47772 0.35843 0.0
C2009 C 0.56005 0.50646 0.35627 0.0
C2010 C 0.56399 0.52213 0.37406 0.0
N2011 N 0.56725 0.495 0.4303 0.0
C2012 C 0.56072 0.47417 0.41689 0.0
O2013 O 0.55556 0.44874 0.4231 0.0
C2014 C 0.57238 0.55138 0.37577 0.0
O2015 O 0.6298 0.60555 0.35486 0.0
O2016 O 0.60607 0.62239 0.32926 0.0
C2017 C 0.56535 0.49051 0.45211 0.0
C2018 C 0.58678 0.47694 0.46316 0.0
C2019 C 0.58205 0.4675 0.4835 0.0
C2020 C 0.55566 0.47052 0.49186 0.0
C2021 C 0.53489 0.48438 0.48133 0.0
C2022 C 0.53963 0.49429 0.46152 0.0
O2023 O 0.58488 0.54401 0.30542 0.0
O2024 O 0.60719 0.50555 0.31262 0.0
O2025 O 0.65065 0.54411 0.33609 0.0
O2026 O 0.68106 0.51177 0.33787 0.0
O2027 O 0.57427 0.56774 0.35887 0.0
C2028 C 0.65284 0.57943 0.28557 0.0
O2029 O 0.6618 0.55474 0.2868 0.0
O2030 O 0.63519 0.58878 0.29851 0.0
C2031 C 0.62033 0.62656 0.34542 0.0
H2032 H 0.63944 0.55878 0.46651 0.0
H2033 H 0.55412 0.58308 0.4768 0.0
H2034 H 0.60369 0.58271 0.48793 0.0
H2035 H 0.63551 0.54606 0.37982 0.0
H2036 H 0.65302 0.47023 0.34801 0.0
H2037 H 0.61558 0.46794 0.4073 0.0
H2038 H 0.50197 0.58626 0.41473 0.0
H2039 H 0.51052 0.4998 0.39991 0.0
H2040 H 0.44165 0.54469 0.37755 0.0
H2041 H 0.55149 0.44312 0.37972 0.0
H2042 H 0.5522 0.46507 0.34491 0.0
H2043 H 0.56125 0.5159 0.34127 0.0
H2044 H 0.6066 0.47343 0.45588 0.0
H2045 H 0.55123 0.46242 0.50704 0.0
H2046 H 0.5228 0.50363 0.45304 0.0
Cd2047 Cd 0.66748 0.35377 0.57819 0.0
C2048 C 0.70884 0.33618 0.5454 0.0
C2049 C 0.68861 0.28239 0.68884 0.0
O2050 O 0.68163 0.25878 0.69751 0.0
Cd2051 Cd 0.72713 0.40522 0.5474 0.0
C2052 C 0.6831 0.30905 0.69893 0.0
C2053 C 0.68133 0.36355 0.71341 0.0
C2054 C 0.69321 0.3569 0.6945 0.0
N2055 N 0.69244 0.33056 0.6882 0.0
C2056 C 0.67086 0.31403 0.71802 0.0
C2057 C 0.6698 0.34172 0.72513 0.0
Co2058 Co 0.71237 0.32239 0.66493 0.0
C2059 C 0.7079 0.37499 0.67998 0.0
O2060 O 0.71037 0.40189 0.68256 0.0
C2061 C 0.73263 0.37462 0.64693 0.0
C2062 C 0.71889 0.38303 0.62904 0.0
C2063 C 0.7344 0.39261 0.61234 0.0
C2064 C 0.76329 0.39249 0.61345 0.0
C2065 C 0.77651 0.38594 0.6318 0.0
C2066 C 0.76115 0.37649 0.64836 0.0
C2067 C 0.72147 0.40253 0.59346 0.0
C2068 C 0.7019 0.26094 0.65583 0.0
C2069 C 0.6786 0.2433 0.65438 0.0
C2070 C 0.72516 0.25459 0.64388 0.0
C2071 C 0.7241 0.23386 0.62906 0.0
C2072 C 0.70068 0.21728 0.62729 0.0
C2073 C 0.67907 0.22004 0.64149 0.0
N2074 N 0.70253 0.28358 0.67042 0.0
N2075 N 0.71815 0.36167 0.66319 0.0
N2076 N 0.68145 0.32582 0.64583 0.0
C2077 C 0.65408 0.33228 0.65257 0.0
C2078 C 0.63648 0.31064 0.65833 0.0
C2079 C 0.64845 0.35925 0.65922 0.0
C2080 C 0.61464 0.31531 0.67212 0.0
H2081 H 0.64095 0.28992 0.65302 0.0
C2082 C 0.61107 0.34197 0.68037 0.0
C2083 C 0.6275 0.36425 0.67366 0.0
C2084 C 0.59611 0.29229 0.67845 0.0
H2085 H 0.66204 0.3759 0.65452 0.0
H2086 H 0.59506 0.34552 0.69167 0.0
C2087 C 0.62367 0.39234 0.68252 0.0
O2088 O 0.57491 0.29709 0.69146 0.0
O2089 O 0.59976 0.26889 0.67183 0.0
O2090 O 0.63814 0.41167 0.67682 0.0
O2091 O 0.60435 0.39666 0.69714 0.0
H2092 H 0.56247 0.28243 0.69569 0.0
H2093 H 0.60167 0.41473 0.70323 0.0
N2094 N 0.73309 0.31509 0.64189 0.0
C2095 C 0.7604 0.31318 0.64473 0.0
C2096 C 0.77742 0.31049 0.6275 0.0
C2097 C 0.76477 0.31069 0.60793 0.0
C2098 C 0.7358 0.31378 0.60592 0.0
C2099 C 0.72006 0.31618 0.62383 0.0
N2100 N 0.7472 0.31865 0.68013 0.0
C2101 C 0.76836 0.31435 0.66654 0.0
O2102 O 0.79409 0.31103 0.6726 0.0
C2103 C 0.69028 0.32216 0.62582 0.0
O2104 O 0.63363 0.36863 0.60313 0.0
O2105 O 0.61731 0.35114 0.57484 0.0
C2106 C 0.75185 0.31831 0.702 0.0
C2107 C 0.76428 0.34122 0.71204 0.0
C2108 C 0.77318 0.33897 0.73271 0.0
C2109 C 0.76936 0.31356 0.7428 0.0
C2110 C 0.75631 0.29118 0.73335 0.0
C2111 C 0.74813 0.29343 0.7128 0.0
O2112 O 0.69086 0.31975 0.55288 0.0
O2113 O 0.70973 0.35991 0.55331 0.0
O2114 O 0.70239 0.38864 0.58511 0.0
O2115 O 0.73442 0.41991 0.5824 0.0
O2116 O 0.67326 0.32156 0.60921 0.0
C2117 C 0.6591 0.40943 0.53692 0.0
O2118 O 0.6832 0.41973 0.53484 0.0
O2119 O 0.6539 0.38948 0.54953 0.0
C2120 C 0.61277 0.36239 0.59219 0.0
H2121 H 0.68123 0.38463 0.71904 0.0
H2122 H 0.66281 0.29722 0.72727 0.0
H2123 H 0.66056 0.34617 0.73987 0.0
H2124 H 0.69656 0.38204 0.62813 0.0
H2125 H 0.7755 0.40077 0.60088 0.0
H2126 H 0.77118 0.37249 0.66294 0.0
H2127 H 0.66104 0.24609 0.66444 0.0
H2128 H 0.74473 0.26431 0.64655 0.0
H2129 H 0.7011 0.19999 0.61672 0.0
H2130 H 0.79963 0.30866 0.62903 0.0
H2131 H 0.77745 0.30892 0.59432 0.0
H2132 H 0.72623 0.31483 0.59094 0.0
H2133 H 0.76717 0.36036 0.70365 0.0
H2134 H 0.77717 0.31073 0.75825 0.0
H2135 H 0.73954 0.27561 0.70503 0.0
Cd2136 Cd 0.10345 0.42028 0.32845 0.0
C2137 C 0.07859 0.46174 0.29876 0.0
C2138 C 0.03308 0.43734 0.4381 0.0
O2139 O 0.00952 0.43001 0.44664 0.0
Cd2140 Cd 0.14045 0.48659 0.29778 0.0
C2141 C 0.05956 0.43217 0.44839 0.0
C2142 C 0.11378 0.43018 0.46314 0.0
C2143 C 0.10718 0.44314 0.44459 0.0
N2144 N 0.08095 0.44262 0.43817 0.0
C2145 C 0.06446 0.41887 0.46712 0.0
C2146 C 0.09202 0.41776 0.47439 0.0
Co2147 Co 0.07286 0.46276 0.41492 0.0
C2148 C 0.1252 0.45885 0.43068 0.0
O2149 O 0.15194 0.46164 0.43373 0.0
C2150 C 0.12571 0.4863 0.39901 0.0
C2151 C 0.13488 0.47387 0.38099 0.0
C2152 C 0.14607 0.49016 0.36531 0.0
C2153 C 0.14919 0.5187 0.36833 0.0
C2154 C 0.13917 0.53146 0.38618 0.0
C2155 C 0.12768 0.51485 0.40158 0.0
C2156 C 0.14884 0.47886 0.34458 0.0
C2157 C 0.01165 0.44999 0.40513 0.0
C2158 C 0.99489 0.42599 0.40413 0.0
C2159 C 0.00349 0.47327 0.39375 0.0
C2160 C 0.98024 0.47227 0.38108 0.0
C2161 C 0.96364 0.44865 0.3806 0.0
C2162 C 0.96986 0.42612 0.39334 0.0
N2163 N 0.03426 0.45146 0.41973 0.0
N2164 N 0.11208 0.47014 0.41413 0.0
N2165 N 0.0777 0.43199 0.39583 0.0
C2166 C 0.08457 0.40444 0.40212 0.0
C2167 C 0.06345 0.38571 0.40689 0.0
C2168 C 0.11186 0.39832 0.4076 0.0
C2169 C 0.06912 0.36151 0.41814 0.0
H2170 H 0.04247 0.39075 0.40262 0.0
C2171 C 0.09648 0.35617 0.42429 0.0
C2172 C 0.11803 0.37443 0.41904 0.0
C2173 C 0.04643 0.34241 0.42422 0.0
H2174 H 0.12801 0.41307 0.40394 0.0
H2175 H 0.10098 0.33785 0.43329 0.0
C2176 C 0.1466 0.36933 0.4265 0.0
O2177 O 0.05182 0.32018 0.43616 0.0
O2178 O 0.02272 0.34673 0.41855 0.0
O2179 O 0.16544 0.38498 0.42167 0.0
O2180 O 0.15192 0.34758 0.43894 0.0
H2181 H 0.03733 0.30753 0.44037 0.0
H2182 H 0.17032 0.34406 0.44416 0.0
N2183 N 0.06551 0.48343 0.39186 0.0
C2184 C 0.06222 0.51062 0.39464 0.0
C2185 C 0.05833 0.52746 0.3774 0.0
C2186 C 0.0584 0.51469 0.35789 0.0
C2187 C 0.06252 0.4858 0.35597 0.0
C2188 C 0.06646 0.47034 0.37387 0.0
N2189 N 0.06746 0.49742 0.42999 0.0
C2190 C 0.06264 0.51853 0.41641 0.0
O2191 O 0.05839 0.54416 0.42244 0.0
C2192 C 0.07315 0.44072 0.37592 0.0
O2193 O 0.13634 0.3894 0.34292 0.0
O2194 O 0.09639 0.37053 0.33644 0.0
C2195 C 0.06844 0.50227 0.45175 0.0
C2196 C 0.08971 0.51875 0.46044 0.0
C2197 C 0.0877 0.5278 0.48096 0.0
C2198 C 0.06544 0.51892 0.49284 0.0
C2199 C 0.04405 0.50361 0.48423 0.0
C2200 C 0.04533 0.49546 0.46372 0.0
O2201 O 0.06831 0.43794 0.30216 0.0
O2202 O 0.09839 0.46857 0.31019 0.0
O2203 O 0.13324 0.45886 0.33938 0.0
O2204 O 0.16106 0.49299 0.33082 0.0
O2205 O 0.07204 0.42354 0.35949 0.0
C2206 C 0.15028 0.41873 0.2833 0.0
O2207 O 0.15656 0.44433 0.28174 0.0
O2208 O 0.13339 0.41009 0.2971 0.0
C2209 C 0.12095 0.36808 0.34329 0.0
H2210 H 0.13478 0.42995 0.46888 0.0
H2211 H 0.0477 0.40995 0.47594 0.0
H2212 H 0.09643 0.40768 0.48885 0.0
H2213 H 0.13203 0.45179 0.37886 0.0
H2214 H 0.15889 0.53103 0.35645 0.0
H2215 H 0.11986 0.52395 0.41554 0.0
H2216 H -0.0005 0.40813 0.41356 0.0
H2217 H 0.01349 0.49291 0.39554 0.0
H2218 H 0.94439 0.44924 0.37213 0.0
H2219 H 0.05534 0.54958 0.3789 0.0
H2220 H 0.05544 0.52716 0.34427 0.0
H2221 H 0.06286 0.47605 0.34107 0.0
H2222 H 0.10689 0.52551 0.45104 0.0
H2223 H 0.06412 0.52486 0.50887 0.0
H2224 H 0.02761 0.48551 0.4568 0.0
Cd2225 Cd 0.3222 0.36447 0.0817 0.0
C2226 C 0.27092 0.34096 0.04769 0.0
C2227 C 0.30798 0.28899 0.18979 0.0
O2228 O 0.31673 0.26524 0.19727 0.0
Cd2229 Cd 0.28786 0.39634 0.0674 0.0
C2230 C 0.31222 0.31483 0.20105 0.0
C2231 C 0.31132 0.3675 0.21865 0.0
C2232 C 0.29757 0.36163 0.20029 0.0
N2233 N 0.29962 0.33625 0.19233 0.0
C2234 C 0.32656 0.31902 0.21944 0.0
C2235 C 0.32618 0.34582 0.22817 0.0
Co2236 Co 0.27886 0.32884 0.16919 0.0
C2237 C 0.27979 0.3797 0.18803 0.0
O2238 O 0.27626 0.40608 0.19227 0.0
C2239 C 0.25385 0.38268 0.15608 0.0
C2240 C 0.26918 0.39749 0.14189 0.0
C2241 C 0.25643 0.40852 0.12467 0.0
C2242 C 0.22776 0.40742 0.12295 0.0
C2243 C 0.21186 0.39202 0.1371 0.0
C2244 C 0.22514 0.3804 0.15414 0.0
C2245 C 0.27261 0.40983 0.10599 0.0
C2246 C 0.29259 0.26791 0.15748 0.0
C2247 C 0.31648 0.25133 0.15533 0.0
C2248 C 0.26779 0.25828 0.14882 0.0
C2249 C 0.26689 0.23315 0.13828 0.0
C2250 C 0.29027 0.21636 0.13734 0.0
C2251 C 0.31463 0.22454 0.14727 0.0
N2252 N 0.29286 0.29071 0.17191 0.0
N2253 N 0.26832 0.36745 0.17118 0.0
N2254 N 0.30851 0.33731 0.14931 0.0
C2255 C 0.33655 0.34396 0.15461 0.0
C2256 C 0.35759 0.32436 0.15211 0.0
C2257 C 0.3428 0.36981 0.16316 0.0
C2258 C 0.3848 0.3303 0.15849 0.0
H2259 H 0.35252 0.30437 0.14556 0.0
C2260 C 0.39063 0.35626 0.16728 0.0
C2261 C 0.36973 0.37614 0.16974 0.0
C2262 C 0.40707 0.30936 0.15638 0.0
H2263 H 0.32658 0.38495 0.16484 0.0
H2264 H 0.41148 0.36098 0.1723 0.0
C2265 C 0.37594 0.40327 0.17948 0.0
O2266 O 0.43279 0.31487 0.16343 0.0
O2267 O 0.4023 0.28697 0.14836 0.0
O2268 O 0.35778 0.42068 0.18138 0.0
O2269 O 0.40168 0.40884 0.18644 0.0
H2270 H 0.44761 0.3015 0.1623 0.0
H2271 H 0.40613 0.42633 0.19291 0.0
N2272 N 0.25773 0.32205 0.14619 0.0
C2273 C 0.23101 0.31657 0.14942 0.0
C2274 C 0.21367 0.31301 0.13242 0.0
C2275 C 0.22543 0.31568 0.11265 0.0
C2276 C 0.25386 0.32182 0.11024 0.0
C2277 C 0.2699 0.32512 0.12793 0.0
N2278 N 0.24548 0.31966 0.18467 0.0
C2279 C 0.22413 0.3146 0.17135 0.0
O2280 O 0.19895 0.30894 0.17775 0.0
C2281 C 0.29927 0.3329 0.1294 0.0
O2282 O 0.35619 0.39399 0.09564 0.0
O2283 O 0.37015 0.35148 0.09146 0.0
C2284 C 0.24104 0.32107 0.20643 0.0
C2285 C 0.2245 0.34229 0.21496 0.0
C2286 C 0.21567 0.3406 0.23555 0.0
C2287 C 0.22466 0.31839 0.24758 0.0
C2288 C 0.24001 0.29677 0.23909 0.0
C2289 C 0.24829 0.29826 0.21853 0.0
O2290 O 0.29611 0.33685 0.0532 0.0
O2291 O 0.25823 0.36183 0.05464 0.0
O2292 O 0.28991 0.39036 0.10341 0.0
O2293 O 0.26502 0.42457 0.09097 0.0
O2294 O 0.3161 0.33155 0.11257 0.0
C2295 C 0.33023 0.40952 0.03703 0.0
O2296 O 0.30699 0.42041 0.0406 0.0
O2297 O 0.33896 0.39004 0.04877 0.0
C2298 C 0.37499 0.37589 0.09817 0.0
H2299 H 0.31041 0.38788 0.22552 0.0
H2300 H 0.33745 0.30225 0.22692 0.0
H2301 H 0.33699 0.34965 0.24242 0.0
H2302 H 0.29153 0.39743 0.14295 0.0
H2303 H 0.21831 0.41698 0.10968 0.0
H2304 H 0.21341 0.36914 0.16555 0.0
H2305 H 0.3357 0.25758 0.16253 0.0
H2306 H 0.24851 0.26838 0.15158 0.0
H2307 H 0.28835 0.19578 0.13089 0.0
H2308 H 0.19191 0.3084 0.1343 0.0
H2309 H 0.21251 0.31316 0.09923 0.0
H2310 H 0.26279 0.32427 0.09513 0.0
H2311 H 0.2174 0.35912 0.20532 0.0
H2312 H 0.21871 0.31732 0.2636 0.0
H2313 H 0.25866 0.28083 0.2115 0.0
Cd2314 Cd 0.38258 0.57265 0.82691 0.0
C2315 C 0.4078 0.53234 0.796 0.0
C2316 C 0.4559 0.55685 0.93535 0.0
O2317 O 0.48009 0.56401 0.94293 0.0
Cd2318 Cd 0.34819 0.50464 0.79863 0.0
C2319 C 0.43024 0.56238 0.94667 0.0
C2320 C 0.37741 0.5645 0.96397 0.0
C2321 C 0.38254 0.55064 0.94554 0.0
N2322 N 0.40813 0.55122 0.93781 0.0
C2323 C 0.42671 0.57694 0.96504 0.0
C2324 C 0.39987 0.57801 0.97364 0.0
Co2325 Co 0.41433 0.53049 0.91458 0.0
C2326 C 0.36348 0.53416 0.93295 0.0
O2327 O 0.33709 0.5313 0.93733 0.0
C2328 C 0.36037 0.50658 0.90136 0.0
C2329 C 0.35065 0.51943 0.88359 0.0
C2330 C 0.34081 0.50343 0.8673 0.0
C2331 C 0.33935 0.47473 0.86957 0.0
C2332 C 0.35108 0.46147 0.88669 0.0
C2333 C 0.3603 0.47772 0.90305 0.0
C2334 C 0.33955 0.51499 0.84649 0.0
C2335 C 0.47461 0.54343 0.90153 0.0
C2336 C 0.49238 0.56671 0.89984 0.0
C2337 C 0.48011 0.52058 0.88889 0.0
C2338 C 0.49986 0.5221 0.87338 0.0
C2339 C 0.51669 0.54537 0.87166 0.0
C2340 C 0.51535 0.56608 0.88669 0.0
N2341 N 0.45331 0.54228 0.91727 0.0
N2342 N 0.37518 0.52256 0.91597 0.0
N2343 N 0.40768 0.56073 0.89517 0.0
C2344 C 0.40067 0.58843 0.90105 0.0
C2345 C 0.4213 0.60867 0.90272 0.0
C2346 C 0.37386 0.59422 0.90788 0.0
C2347 C 0.41541 0.63458 0.9116 0.0
H2348 H 0.44204 0.60383 0.89761 0.0
C2349 C 0.38857 0.63976 0.91897 0.0
C2350 C 0.36766 0.61964 0.91727 0.0
C2351 C 0.43728 0.65604 0.91362 0.0
H2352 H 0.35806 0.57846 0.9065 0.0
H2353 H 0.38396 0.65947 0.92613 0.0
C2354 C 0.33974 0.62481 0.92597 0.0
O2355 O 0.43151 0.68059 0.92259 0.0
O2356 O 0.46063 0.65167 0.90722 0.0
O2357 O 0.32152 0.60733 0.9244 0.0
O2358 O 0.33437 0.64873 0.93594 0.0
H2359 H 0.44544 0.69488 0.92409 0.0
H2360 H 0.31641 0.65239 0.9419 0.0
N2361 N 0.41964 0.50917 0.89157 0.0
C2362 C 0.42359 0.4821 0.89464 0.0
C2363 C 0.42675 0.46489 0.87755 0.0
C2364 C 0.42562 0.47723 0.85788 0.0
C2365 C 0.42122 0.50604 0.85569 0.0
C2366 C 0.41777 0.52185 0.87345 0.0
N2367 N 0.42151 0.49641 0.92988 0.0
C2368 C 0.42532 0.47491 0.91649 0.0
O2369 O 0.43007 0.44946 0.92277 0.0
C2370 C 0.41145 0.55156 0.87525 0.0
O2371 O 0.35086 0.60748 0.83748 0.0
O2372 O 0.3939 0.62071 0.83665 0.0
C2373 C 0.42134 0.49191 0.95166 0.0
C2374 C 0.39982 0.47639 0.96079 0.0
C2375 C 0.40271 0.46638 0.98093 0.0
C2376 C 0.42638 0.47306 0.99213 0.0
C2377 C 0.44787 0.48815 0.98324 0.0
C2378 C 0.44538 0.49746 0.96295 0.0
O2379 O 0.41554 0.55719 0.79885 0.0
O2380 O 0.3911 0.52278 0.80906 0.0
O2381 O 0.35534 0.53527 0.84221 0.0
O2382 O 0.32872 0.50067 0.83221 0.0
O2383 O 0.41305 0.56852 0.85864 0.0
C2384 C 0.33378 0.57069 0.78286 0.0
O2385 O 0.32924 0.54475 0.78157 0.0
O2386 O 0.35051 0.58059 0.79629 0.0
C2387 C 0.36873 0.62632 0.84047 0.0
H2388 H 0.35697 0.56475 0.97073 0.0
H2389 H 0.44394 0.58702 0.97254 0.0
H2390 H 0.39657 0.58897 0.9879 0.0
H2391 H 0.35275 0.54165 0.88188 0.0
H2392 H 0.33056 0.46264 0.85721 0.0
H2393 H 0.36881 0.46808 0.9166 0.0
H2394 H 0.49021 0.5842 0.91005 0.0
H2395 H 0.47075 0.50088 0.8915 0.0
H2396 H 0.5335 0.54501 0.86068 0.0
H2397 H 0.43026 0.44288 0.87927 0.0
H2398 H 0.42821 0.46451 0.84437 0.0
H2399 H 0.42054 0.51553 0.84072 0.0
H2400 H 0.38171 0.47089 0.95191 0.0
H2401 H 0.4283 0.46599 1.00787 0.0
H2402 H 0.4628 0.50742 0.95556 0.0
Cd2403 Cd 0.16817 0.6374 0.57742 0.0
C2404 C 0.21275 0.65448 0.54662 0.0
C2405 C 0.18722 0.70735 0.68877 0.0
O2406 O 0.18042 0.73084 0.69763 0.0
Cd2407 Cd 0.23111 0.58597 0.5509 0.0
C2408 C 0.18152 0.68057 0.69868 0.0
C2409 C 0.17961 0.626 0.71304 0.0
C2410 C 0.19166 0.6328 0.6942 0.0
N2411 N 0.19095 0.65918 0.68794 0.0
C2412 C 0.16916 0.67544 0.71773 0.0
C2413 C 0.16803 0.64772 0.72477 0.0
Co2414 Co 0.21149 0.66773 0.665 0.0
C2415 C 0.20695 0.61492 0.67994 0.0
O2416 O 0.20894 0.58795 0.68229 0.0
C2417 C 0.23148 0.61573 0.64676 0.0
C2418 C 0.21635 0.60785 0.62938 0.0
C2419 C 0.23048 0.60218 0.61125 0.0
C2420 C 0.25895 0.60677 0.61023 0.0
C2421 C 0.27406 0.60858 0.62841 0.0
C2422 C 0.26026 0.61444 0.64665 0.0
C2423 C 0.21758 0.58753 0.59422 0.0
C2424 C 0.19992 0.72929 0.65583 0.0
C2425 C 0.17647 0.74674 0.65499 0.0
C2426 C 0.22301 0.73662 0.64393 0.0
C2427 C 0.22204 0.75904 0.63045 0.0
C2428 C 0.19879 0.77596 0.62979 0.0
C2429 C 0.17691 0.77126 0.64344 0.0
N2430 N 0.20104 0.70643 0.67031 0.0
N2431 N 0.21805 0.62851 0.66354 0.0
N2432 N 0.18106 0.66389 0.64543 0.0
C2433 C 0.15334 0.65734 0.65148 0.0
C2434 C 0.13497 0.67878 0.65607 0.0
C2435 C 0.14684 0.6302 0.65742 0.0
C2436 C 0.11082 0.67357 0.66747 0.0
H2437 H 0.14032 0.69969 0.6516 0.0
C2438 C 0.10522 0.64639 0.6741 0.0
C2439 C 0.12306 0.62451 0.66906 0.0
C2440 C 0.09199 0.69656 0.67319 0.0
H2441 H 0.16125 0.61377 0.6541 0.0
H2442 H 0.08699 0.64228 0.68327 0.0
C2443 C 0.11769 0.59611 0.67695 0.0
O2444 O 0.06972 0.69159 0.68517 0.0
O2445 O 0.09653 0.72013 0.66716 0.0
O2446 O 0.13317 0.57704 0.67247 0.0
O2447 O 0.09586 0.59121 0.68937 0.0
H2448 H 0.0572 0.70627 0.68912 0.0
H2449 H 0.09216 0.57293 0.69485 0.0
N2450 N 0.23273 0.67551 0.64229 0.0
C2451 C 0.25991 0.67812 0.64552 0.0
C2452 C 0.27726 0.68176 0.62854 0.0
C2453 C 0.26506 0.68185 0.60882 0.0
C2454 C 0.23621 0.67811 0.6064 0.0
C2455 C 0.22015 0.67471 0.62407 0.0
N2456 N 0.24588 0.67198 0.68064 0.0
C2457 C 0.26735 0.6767 0.66739 0.0
O2458 O 0.29293 0.68003 0.67379 0.0
C2459 C 0.19043 0.66821 0.62559 0.0
O2460 O 0.13577 0.61712 0.60076 0.0
O2461 O 0.11747 0.64175 0.57628 0.0
C2462 C 0.25015 0.67072 0.70251 0.0
C2463 C 0.26395 0.6479 0.71155 0.0
C2464 C 0.27248 0.64908 0.73227 0.0
C2465 C 0.26623 0.67258 0.74384 0.0
C2466 C 0.25376 0.69567 0.73488 0.0
C2467 C 0.24567 0.69462 0.71424 0.0
O2468 O 0.19374 0.67085 0.55252 0.0
O2469 O 0.21321 0.63142 0.55561 0.0
O2470 O 0.19883 0.59893 0.58375 0.0
O2471 O 0.23148 0.5686 0.58557 0.0
O2472 O 0.1739 0.66903 0.60873 0.0
C2473 C 0.16454 0.58563 0.53405 0.0
O2474 O 0.18867 0.57506 0.53457 0.0
O2475 O 0.15724 0.60521 0.54636 0.0
C2476 C 0.11423 0.62654 0.59212 0.0
H2477 H 0.17961 0.60491 0.7187 0.0
H2478 H 0.16113 0.69218 0.727 0.0
H2479 H 0.15875 0.64316 0.7395 0.0
H2480 H 0.19406 0.60628 0.62987 0.0
H2481 H 0.2699 0.60213 0.5961 0.0
H2482 H 0.27163 0.61681 0.66087 0.0
H2483 H 0.1589 0.74301 0.66489 0.0
H2484 H 0.24254 0.72661 0.64583 0.0
H2485 H 0.19952 0.79468 0.62064 0.0
H2486 H 0.29938 0.68415 0.63039 0.0
H2487 H 0.27799 0.68438 0.5954 0.0
H2488 H 0.22698 0.67737 0.59129 0.0
H2489 H 0.26915 0.63007 0.70225 0.0
H2490 H 0.27202 0.67324 0.75992 0.0
H2491 H 0.23748 0.71301 0.70697 0.0
Cd2492 Cd 0.11216 0.57076 0.18845 0.0
C2493 C 0.08781 0.51933 0.22248 0.0
C2494 C 0.03091 0.55262 0.0824 0.0
O2495 O 0.00596 0.55728 0.07514 0.0
Cd2496 Cd 0.1415 0.53392 0.20285 0.0
C2497 C 0.05543 0.55863 0.06995 0.0
C2498 C 0.10662 0.56197 0.05026 0.0
C2499 C 0.10358 0.54945 0.06948 0.0
N2500 N 0.07868 0.54945 0.0784 0.0
C2501 C 0.05675 0.57139 0.05066 0.0
C2502 C 0.08282 0.57329 0.04092 0.0
Co2503 Co 0.075 0.52924 0.10233 0.0
C2504 C 0.1241 0.53403 0.08135 0.0
O2505 O 0.1501 0.53182 0.07567 0.0
C2506 C 0.13112 0.50668 0.11238 0.0
C2507 C 0.14511 0.5209 0.12757 0.0
C2508 C 0.15617 0.50665 0.14417 0.0
C2509 C 0.15646 0.47777 0.14401 0.0
C2510 C 0.14294 0.46292 0.12828 0.0
C2511 C 0.13062 0.47775 0.11225 0.0
C2512 C 0.15663 0.52105 0.16373 0.0
C2513 C 0.01457 0.54144 0.11729 0.0
C2514 C 0.99506 0.56348 0.11788 0.0
C2515 C 0.01127 0.52002 0.13163 0.0
C2516 C 0.99209 0.52206 0.14748 0.0
C2517 C 0.97366 0.54411 0.14809 0.0
C2518 C 0.97274 0.5631 0.13179 0.0
N2519 N 0.03531 0.53988 0.10106 0.0
N2520 N 0.11419 0.52208 0.09883 0.0
N2521 N 0.08251 0.56035 0.12094 0.0
C2522 C 0.08891 0.58803 0.11449 0.0
C2523 C 0.06828 0.60831 0.1139 0.0
C2524 C 0.11539 0.59424 0.10709 0.0
C2525 C 0.07394 0.63475 0.1057 0.0
H2526 H 0.04778 0.6032 0.11947 0.0
C2527 C 0.10055 0.64047 0.09802 0.0
C2528 C 0.12142 0.62031 0.09863 0.0
C2529 C 0.05214 0.65635 0.10489 0.0
H2530 H 0.13118 0.57851 0.10752 0.0
H2531 H 0.10503 0.66067 0.09156 0.0
C2532 C 0.14929 0.62627 0.09004 0.0
O2533 O 0.05774 0.68146 0.09666 0.0
O2534 O 0.02902 0.6516 0.11163 0.0
O2535 O 0.16753 0.60879 0.09083 0.0
O2536 O 0.15462 0.65101 0.08115 0.0
H2537 H 0.04386 0.69585 0.09594 0.0
H2538 H 0.17257 0.65524 0.07535 0.0
N2539 N 0.07223 0.50855 0.12601 0.0
C2540 C 0.06832 0.48133 0.12371 0.0
C2541 C 0.06715 0.46463 0.14125 0.0
C2542 C 0.07018 0.4776 0.16056 0.0
C2543 C 0.07434 0.50655 0.16197 0.0
C2544 C 0.07546 0.52185 0.14376 0.0
N2545 N 0.06754 0.49438 0.08824 0.0
C2546 C 0.06485 0.47333 0.10217 0.0
O2547 O 0.0606 0.4475 0.09657 0.0
C2548 C 0.08055 0.55167 0.14118 0.0
O2549 O 0.14164 0.60773 0.17896 0.0
O2550 O 0.09768 0.6182 0.17992 0.0
C2551 C 0.0671 0.48907 0.06668 0.0
C2552 C 0.08958 0.47589 0.05686 0.0
C2553 C 0.08701 0.46732 0.03631 0.0
C2554 C 0.06225 0.47195 0.02593 0.0
C2555 C 0.0402 0.48475 0.03572 0.0
C2556 C 0.04237 0.49302 0.05608 0.0
O2557 O 0.086 0.54518 0.21791 0.0
O2558 O 0.1059 0.50472 0.21366 0.0
O2559 O 0.13801 0.53926 0.16634 0.0
O2560 O 0.16972 0.51147 0.17895 0.0
O2561 O 0.0794 0.56897 0.15765 0.0
C2562 C 0.15761 0.57758 0.23188 0.0
O2563 O 0.16478 0.5525 0.23074 0.0
O2564 O 0.14051 0.58763 0.21894 0.0
C2565 C 0.12261 0.62555 0.1764 0.0
H2566 H 0.12645 0.56249 0.04256 0.0
H2567 H 0.03835 0.57927 0.04324 0.0
H2568 H 0.08444 0.58294 0.02598 0.0
H2569 H 0.14396 0.54327 0.12794 0.0
H2570 H 0.16555 0.46706 0.15696 0.0
H2571 H 0.11959 0.46708 0.10026 0.0
H2572 H -0.00404 0.57998 0.1067 0.0
H2573 H 0.02207 0.50092 0.13036 0.0
H2574 H 0.95835 0.54456 0.16018 0.0
H2575 H 0.06387 0.4425 0.14013 0.0
H2576 H 0.06931 0.46526 0.17441 0.0
H2577 H 0.07682 0.5165 0.17671 0.0
H2578 H 0.10865 0.47219 0.06509 0.0
H2579 H 0.0601 0.46559 0.01003 0.0
H2580 H 0.02467 0.50193 0.06378 0.0
Cd2581 Cd 0.16862 0.36446 0.93668 0.0
C2582 C 0.21814 0.3431 0.97256 0.0
C2583 C 0.18859 0.28089 0.83163 0.0
O2584 O 0.18128 0.25623 0.82493 0.0
Cd2585 Cd 0.20194 0.39823 0.94994 0.0
C2586 C 0.18513 0.30549 0.81871 0.0
C2587 C 0.18804 0.35597 0.79788 0.0
C2588 C 0.19954 0.35242 0.81739 0.0
N2589 N 0.19635 0.32807 0.82689 0.0
C2590 C 0.17321 0.30733 0.79918 0.0
C2591 C 0.17443 0.33308 0.78887 0.0
Co2592 Co 0.21527 0.32329 0.85127 0.0
C2593 C 0.21622 0.37191 0.82937 0.0
O2594 O 0.22052 0.39767 0.82361 0.0
C2595 C 0.23986 0.37815 0.8621 0.0
C2596 C 0.22415 0.39305 0.8759 0.0
C2597 C 0.23661 0.40487 0.89294 0.0
C2598 C 0.26532 0.40454 0.89479 0.0
C2599 C 0.28175 0.38952 0.88079 0.0
C2600 C 0.26858 0.37654 0.86421 0.0
C2601 C 0.22009 0.40735 0.91138 0.0
C2602 C 0.19877 0.26427 0.86651 0.0
C2603 C 0.17468 0.24755 0.86764 0.0
C2604 C 0.22114 0.25729 0.87922 0.0
C2605 C 0.21931 0.23521 0.89298 0.0
C2606 C 0.19593 0.21834 0.89323 0.0
C2607 C 0.17453 0.22302 0.87917 0.0
N2608 N 0.20157 0.28472 0.85024 0.0
N2609 N 0.22582 0.36165 0.84753 0.0
N2610 N 0.18425 0.33335 0.86938 0.0
C2611 C 0.15701 0.33907 0.86187 0.0
C2612 C 0.13624 0.31887 0.86297 0.0
C2613 C 0.15284 0.3627 0.84985 0.0
C2614 C 0.11175 0.32176 0.85145 0.0
H2615 H 0.13976 0.30048 0.87213 0.0
C2616 C 0.10879 0.34477 0.83836 0.0
C2617 C 0.12951 0.36514 0.83721 0.0
C2618 C 0.08974 0.3003 0.8523 0.0
H2619 H 0.16865 0.37851 0.84951 0.0
H2620 H 0.09048 0.34671 0.8289 0.0
C2621 C 0.12728 0.3884 0.82233 0.0
O2622 O 0.06653 0.30316 0.84094 0.0
O2623 O 0.09245 0.2799 0.86325 0.0
O2624 O 0.1453 0.40619 0.82152 0.0
O2625 O 0.10535 0.39003 0.80955 0.0
H2626 H 0.05192 0.28943 0.84123 0.0
H2627 H 0.10353 0.40499 0.79975 0.0
N2628 N 0.23475 0.31915 0.87533 0.0
C2629 C 0.26165 0.31348 0.87342 0.0
C2630 C 0.27773 0.31157 0.89121 0.0
C2631 C 0.26453 0.31583 0.91032 0.0
C2632 C 0.23594 0.32191 0.91131 0.0
C2633 C 0.2212 0.32362 0.89289 0.0
N2634 N 0.24967 0.31308 0.83763 0.0
C2635 C 0.27006 0.3094 0.85194 0.0
O2636 O 0.29577 0.30399 0.84677 0.0
C2637 C 0.19187 0.33082 0.88985 0.0
O2638 O 0.13453 0.39288 0.92108 0.0
O2639 O 0.11974 0.35197 0.93035 0.0
C2640 C 0.2556 0.31419 0.81605 0.0
C2641 C 0.27198 0.33576 0.80762 0.0
C2642 C 0.28073 0.33436 0.787 0.0
C2643 C 0.27204 0.31213 0.77493 0.0
C2644 C 0.25653 0.29067 0.78333 0.0
C2645 C 0.24831 0.29159 0.80381 0.0
O2646 O 0.19431 0.33676 0.96518 0.0
O2647 O 0.22948 0.36565 0.96727 0.0
O2648 O 0.20212 0.38849 0.91435 0.0
O2649 O 0.22762 0.42288 0.92595 0.0
O2650 O 0.1738 0.33067 0.90601 0.0
C2651 C 0.15917 0.41397 0.97835 0.0
O2652 O 0.18041 0.42703 0.97258 0.0
O2653 O 0.15209 0.39152 0.9692 0.0
C2654 C 0.11495 0.37525 0.92173 0.0
H2655 H 0.18983 0.37548 0.78978 0.0
H2656 H 0.1637 0.28949 0.792 0.0
H2657 H 0.16544 0.33511 0.77375 0.0
H2658 H 0.20179 0.39246 0.87468 0.0
H2659 H 0.27443 0.41454 0.90802 0.0
H2660 H 0.28015 0.36434 0.85339 0.0
H2661 H 0.15731 0.2515 0.85759 0.0
H2662 H 0.24088 0.26696 0.87769 0.0
H2663 H 0.19617 0.19972 0.90251 0.0
H2664 H 0.29958 0.30691 0.89044 0.0
H2665 H 0.27644 0.31451 0.92433 0.0
H2666 H 0.22591 0.32548 0.9259 0.0
H2667 H 0.27863 0.35283 0.81719 0.0
H2668 H 0.27822 0.31094 0.75894 0.0
H2669 H 0.23756 0.27408 0.81049 0.0
Cd2670 Cd 0.37796 0.42074 0.68762 0.0
C2671 C 0.3955 0.47565 0.71793 0.0
C2672 C 0.45007 0.43539 0.57716 0.0
O2673 O 0.47203 0.42622 0.5674 0.0
Cd2674 Cd 0.32836 0.47862 0.71347 0.0
C2675 C 0.42226 0.43232 0.56848 0.0
C2676 C 0.36683 0.43574 0.55662 0.0
C2677 C 0.37634 0.44732 0.57498 0.0
N2678 N 0.40294 0.4442 0.57998 0.0
C2679 C 0.41441 0.42035 0.54982 0.0
C2680 C 0.38625 0.42196 0.54402 0.0
Co2681 Co 0.41513 0.46333 0.60273 0.0
C2682 C 0.3612 0.46365 0.59027 0.0
O2683 O 0.33433 0.46759 0.58943 0.0
C2684 C 0.36637 0.48544 0.62415 0.0
C2685 C 0.35429 0.46947 0.63969 0.0
C2686 C 0.34375 0.48265 0.65702 0.0
C2687 C 0.3464 0.51145 0.65902 0.0
C2688 C 0.35594 0.52728 0.64253 0.0
C2689 C 0.36759 0.51406 0.62572 0.0
C2690 C 0.32718 0.46758 0.67208 0.0
C2691 C 0.4771 0.45098 0.60698 0.0
C2692 C 0.49338 0.42697 0.60856 0.0
C2693 C 0.48807 0.47615 0.61408 0.0
C2694 C 0.51411 0.4771 0.62328 0.0
C2695 C 0.53023 0.45326 0.62443 0.0
C2696 C 0.52046 0.42848 0.6159 0.0
N2697 N 0.45192 0.45013 0.59517 0.0
N2698 N 0.37699 0.47283 0.60626 0.0
N2699 N 0.41031 0.43263 0.62205 0.0
C2700 C 0.40234 0.40509 0.61634 0.0
C2701 C 0.42233 0.38428 0.61493 0.0
C2702 C 0.3753 0.39976 0.60971 0.0
C2703 C 0.41568 0.35838 0.60632 0.0
H2704 H 0.44316 0.38864 0.62011 0.0
C2705 C 0.38876 0.35381 0.59883 0.0
C2706 C 0.36837 0.37437 0.60053 0.0
C2707 C 0.43678 0.33617 0.60492 0.0
H2708 H 0.35983 0.4157 0.61121 0.0
H2709 H 0.38358 0.3341 0.59188 0.0
C2710 C 0.3401 0.36955 0.59229 0.0
O2711 O 0.43014 0.31135 0.59669 0.0
O2712 O 0.46026 0.34013 0.61127 0.0
O2713 O 0.32245 0.38757 0.59362 0.0
O2714 O 0.33376 0.34528 0.58309 0.0
H2715 H 0.44354 0.29654 0.59568 0.0
H2716 H 0.31554 0.34179 0.5775 0.0
N2717 N 0.42673 0.48318 0.62536 0.0
C2718 C 0.43059 0.51033 0.62246 0.0
C2719 C 0.43518 0.52721 0.63956 0.0
C2720 C 0.43453 0.51471 0.65917 0.0
C2721 C 0.42904 0.48607 0.66132 0.0
C2722 C 0.42487 0.47047 0.64351 0.0
N2723 N 0.42079 0.49779 0.58753 0.0
C2724 C 0.42798 0.51854 0.60081 0.0
O2725 O 0.43254 0.54408 0.5946 0.0
C2726 C 0.41557 0.44151 0.64187 0.0
O2727 O 0.35511 0.38725 0.66641 0.0
O2728 O 0.38586 0.37084 0.68775 0.0
C2729 C 0.41832 0.50272 0.56588 0.0
C2730 C 0.39663 0.5193 0.55812 0.0
C2731 C 0.39744 0.52856 0.53764 0.0
C2732 C 0.41908 0.52042 0.52497 0.0
C2733 C 0.44072 0.50456 0.5326 0.0
C2734 C 0.44045 0.49575 0.55304 0.0
O2735 O 0.4014 0.45017 0.71467 0.0
O2736 O 0.37741 0.48727 0.70673 0.0
O2737 O 0.33784 0.44819 0.68237 0.0
O2738 O 0.30658 0.47971 0.67997 0.0
O2739 O 0.41369 0.42517 0.65881 0.0
C2740 C 0.33691 0.41087 0.7328 0.0
O2741 O 0.32603 0.43477 0.73134 0.0
O2742 O 0.35562 0.40287 0.7202 0.0
C2743 C 0.36796 0.3665 0.67374 0.0
H2744 H 0.34541 0.43756 0.55202 0.0
H2745 H 0.42945 0.41053 0.53992 0.0
H2746 H 0.3796 0.41298 0.52964 0.0
H2747 H 0.35231 0.44726 0.63799 0.0
H2748 H 0.33651 0.5219 0.67179 0.0
H2749 H 0.37366 0.52609 0.61241 0.0
H2750 H 0.48601 0.40755 0.60225 0.0
H2751 H 0.47791 0.49546 0.6112 0.0
H2752 H 0.55114 0.45477 0.63028 0.0
H2753 H 0.43845 0.54929 0.63792 0.0
H2754 H 0.43758 0.52731 0.6727 0.0
H2755 H 0.4274 0.47671 0.67636 0.0
H2756 H 0.38006 0.52586 0.56818 0.0
H2757 H 0.4195 0.52717 0.50907 0.0
H2758 H 0.45828 0.48515 0.55924 0.0
Cd2759 Cd 0.32103 0.63814 0.44104 0.0
C2760 C 0.27833 0.65911 0.4718 0.0
C2761 C 0.30378 0.69888 0.32776 0.0
O2762 O 0.31201 0.72153 0.31831 0.0
Cd2763 Cd 0.25516 0.59338 0.47003 0.0
C2764 C 0.30793 0.67146 0.31868 0.0
C2765 C 0.30701 0.61622 0.30599 0.0
C2766 C 0.29501 0.62461 0.3245 0.0
N2767 N 0.29698 0.65122 0.32993 0.0
C2768 C 0.32023 0.66474 0.29991 0.0
C2769 C 0.31991 0.63668 0.2937 0.0
Co2770 Co 0.27731 0.66195 0.35283 0.0
C2771 C 0.27898 0.60821 0.33933 0.0
O2772 O 0.27579 0.58124 0.33778 0.0
C2773 C 0.25463 0.6114 0.37246 0.0
C2774 C 0.26959 0.60309 0.38967 0.0
C2775 C 0.25555 0.59877 0.40796 0.0
C2776 C 0.22743 0.60497 0.40932 0.0
C2777 C 0.21135 0.6099 0.39174 0.0
C2778 C 0.22574 0.6126 0.37303 0.0
C2779 C 0.26884 0.5877 0.42623 0.0
C2780 C 0.28862 0.72422 0.35842 0.0
C2781 C 0.31245 0.74088 0.35989 0.0
C2782 C 0.26363 0.7345 0.36625 0.0
C2783 C 0.26271 0.76024 0.37597 0.0
C2784 C 0.28635 0.77677 0.37694 0.0
C2785 C 0.31089 0.76772 0.36775 0.0
N2786 N 0.28937 0.69957 0.34597 0.0
N2787 N 0.26877 0.62302 0.35546 0.0
N2788 N 0.30807 0.65803 0.37222 0.0
C2789 C 0.33585 0.65098 0.36659 0.0
C2790 C 0.35625 0.67153 0.36545 0.0
C2791 C 0.34194 0.62401 0.36015 0.0
C2792 C 0.38252 0.66548 0.3573 0.0
H2793 H 0.35133 0.6923 0.3705 0.0
C2794 C 0.38796 0.63853 0.35017 0.0
C2795 C 0.36775 0.61765 0.35149 0.0
C2796 C 0.40423 0.68721 0.35595 0.0
H2797 H 0.32626 0.60814 0.3615 0.0
H2798 H 0.40798 0.63378 0.34362 0.0
C2799 C 0.37335 0.58952 0.34325 0.0
O2800 O 0.42922 0.68122 0.34782 0.0
O2801 O 0.39968 0.71064 0.36219 0.0
O2802 O 0.35583 0.57129 0.34454 0.0
O2803 O 0.39774 0.58396 0.33403 0.0
H2804 H 0.44368 0.69505 0.34679 0.0
H2805 H 0.4017 0.56585 0.32839 0.0
N2806 N 0.25701 0.67211 0.37554 0.0
C2807 C 0.22992 0.67567 0.37266 0.0
C2808 C 0.21325 0.68136 0.38968 0.0
C2809 C 0.22602 0.68238 0.40918 0.0
C2810 C 0.25473 0.67762 0.41129 0.0
C2811 C 0.27005 0.67221 0.39354 0.0
N2812 N 0.2429 0.6671 0.3377 0.0
C2813 C 0.22191 0.6733 0.35101 0.0
O2814 O 0.19662 0.67853 0.34467 0.0
C2815 C 0.29935 0.66454 0.39188 0.0
O2816 O 0.35335 0.61368 0.42016 0.0
O2817 O 0.37157 0.64419 0.44077 0.0
C2818 C 0.239 0.66951 0.31602 0.0
C2819 C 0.22654 0.64774 0.30498 0.0
C2820 C 0.2178 0.65208 0.28464 0.0
C2821 C 0.22091 0.67832 0.27584 0.0
C2822 C 0.23355 0.69971 0.2866 0.0
C2823 C 0.24247 0.69547 0.30671 0.0
O2824 O 0.299 0.67348 0.46605 0.0
O2825 O 0.27405 0.63733 0.46167 0.0
O2826 O 0.28747 0.60159 0.43514 0.0
O2827 O 0.25478 0.57102 0.43709 0.0
O2828 O 0.31637 0.66677 0.40836 0.0
C2829 C 0.3225 0.58827 0.48508 0.0
O2830 O 0.29742 0.58019 0.48548 0.0
O2831 O 0.33119 0.60665 0.47226 0.0
C2832 C 0.37476 0.62584 0.42692 0.0
H2833 H 0.30609 0.59485 0.30102 0.0
H2834 H 0.32935 0.68056 0.29025 0.0
H2835 H 0.32917 0.63089 0.27922 0.0
H2836 H 0.29186 0.60083 0.38895 0.0
H2837 H 0.21833 0.60416 0.42438 0.0
H2838 H 0.21538 0.61669 0.35876 0.0
H2839 H 0.33171 0.73405 0.35309 0.0
H2840 H 0.24439 0.72407 0.36359 0.0
H2841 H 0.28479 0.79746 0.38323 0.0
H2842 H 0.19122 0.68462 0.38804 0.0
H2843 H 0.21364 0.68649 0.42265 0.0
H2844 H 0.26441 0.6777 0.42625 0.0
H2845 H 0.22316 0.62789 0.31236 0.0
H2846 H 0.21345 0.68224 0.26041 0.0
H2847 H 0.25082 0.71267 0.31539 0.0
C2848 C 0.32309 0.89775 0.15338 0.0
C2849 C 0.3098 0.88791 0.13567 0.0
C2850 C 0.34292 0.91867 0.15152 0.0
C2851 C 0.34758 0.93093 0.13218 0.0
H2852 H 0.31489 0.89349 0.1685 0.0
H2853 H 0.34994 0.92883 0.1654 0.0
S2854 S 0.3336 0.89644 0.08234 0.0
N2855 N 0.31634 0.87808 0.09948 0.0
N2856 N 0.3495 0.92108 0.09538 0.0
C2857 C 0.34167 0.91463 0.11481 0.0
C2858 C 0.3237 0.89154 0.11696 0.0
C2859 C 0.32311 0.05188 0.35926 0.0
C2860 C 0.34672 0.05158 0.37198 0.0
C2861 C 0.30241 0.07095 0.36211 0.0
C2862 C 0.30425 0.0905 0.37781 0.0
H2863 H 0.31845 0.03536 0.3486 0.0
H2864 H 0.28344 0.06811 0.35347 0.0
S2865 S 0.36504 0.10477 0.41061 0.0
N2866 N 0.37378 0.07704 0.39725 0.0
N2867 N 0.33345 0.11313 0.40311 0.0
C2868 C 0.32901 0.0932 0.38881 0.0
C2869 C 0.35065 0.07369 0.38569 0.0
C2870 C 0.15459 0.07047 0.60924 0.0
C2871 C 0.1458 0.06244 0.62891 0.0
C2872 C 0.17086 0.09404 0.60678 0.0
C2873 C 0.18198 0.10739 0.62422 0.0
H2874 H 0.15182 0.05733 0.59597 0.0
H2875 H 0.17805 0.09834 0.59144 0.0
S2876 S 0.14549 0.10868 0.67424 0.0
N2877 N 0.13395 0.08046 0.66269 0.0
N2878 N 0.16731 0.12339 0.65802 0.0
C2879 C 0.16586 0.10531 0.64213 0.0
C2880 C 0.14772 0.08232 0.64458 0.0
C2881 C 0.19807 0.92808 0.88653 0.0
C2882 C 0.1902 0.90016 0.88619 0.0
C2883 C 0.17859 0.94853 0.88547 0.0
C2884 C 0.15062 0.94183 0.88315 0.0
H2885 H 0.21962 0.93416 0.8879 0.0
H2886 H 0.18552 0.96993 0.88586 0.0
S2887 S 0.11947 0.87193 0.88106 0.0
N2888 N 0.15303 0.8663 0.8838 0.0
N2889 N 0.1154 0.90597 0.88042 0.0
C2890 C 0.14212 0.91411 0.88255 0.0
C2891 C 0.16231 0.89284 0.88427 0.0
C2892 C 0.66965 0.09788 0.88231 0.0
C2893 C 0.69276 0.09242 0.89475 0.0
C2894 C 0.6488 0.07791 0.88012 0.0
C2895 C 0.65059 0.0528 0.89087 0.0
H2896 H 0.66871 0.11669 0.87325 0.0
H2897 H 0.6323 0.08129 0.86916 0.0
S2898 S 0.70741 0.02762 0.92402 0.0
N2899 N 0.71664 0.05877 0.91648 0.0
N2900 N 0.67652 0.02324 0.91406 0.0
C2901 C 0.67265 0.0479 0.90422 0.0
C2902 C 0.69411 0.06724 0.90569 0.0
C2903 C 0.64259 0.9154 0.63061 0.0
C2904 C 0.65094 0.94241 0.63556 0.0
C2905 C 0.66253 0.89461 0.62831 0.0
C2906 C 0.69054 0.90096 0.63136 0.0
H2907 H 0.62091 0.91059 0.62831 0.0
H2908 H 0.65626 0.87391 0.62387 0.0
S2909 S 0.72212 0.96893 0.64393 0.0
N2910 N 0.68862 0.9747 0.64247 0.0
N2911 N 0.72563 0.93553 0.63949 0.0
C2912 C 0.69875 0.92786 0.63667 0.0
C2913 C 0.67898 0.94874 0.63833 0.0
C2914 C 0.81839 0.89219 0.38283 0.0
C2915 C 0.79894 0.89248 0.39897 0.0
C2916 C 0.83803 0.91337 0.38092 0.0
C2917 C 0.83962 0.93444 0.39566 0.0
H2918 H 0.81654 0.87751 0.37037 0.0
H2919 H 0.85012 0.91475 0.36696 0.0
S2920 S 0.80148 0.93916 0.44482 0.0
N2921 N 0.78873 0.91188 0.43305 0.0
N2922 N 0.82567 0.95065 0.42932 0.0
C2923 C 0.82444 0.93177 0.41381 0.0
C2924 C 0.80416 0.91076 0.41564 0.0
C2925 C 0.82217 0.09878 0.13012 0.0
C2926 C 0.79482 0.09037 0.12643 0.0
C2927 C 0.84309 0.07882 0.13171 0.0
C2928 C 0.83661 0.0507 0.12905 0.0
H2929 H 0.82711 0.12049 0.13222 0.0
H2930 H 0.86398 0.08514 0.13552 0.0
S2931 S 0.76788 0.01854 0.12127 0.0
N2932 N 0.76217 0.05212 0.12251 0.0
N2933 N 0.80165 0.01531 0.1234 0.0
C2934 C 0.80946 0.04237 0.12512 0.0
C2935 C 0.7884 0.0621 0.12447 0.0
C2936 C 0.79377 0.42913 0.64393 0.0
C2937 C 0.8002 0.40271 0.63676 0.0
C2938 C 0.81416 0.44843 0.64668 0.0
C2939 C 0.84195 0.4419 0.64283 0.0
H2940 H 0.77248 0.43534 0.64653 0.0
H2941 H 0.80784 0.46913 0.65108 0.0
S2942 S 0.86934 0.37503 0.62419 0.0
N2943 N 0.83552 0.3701 0.62586 0.0
N2944 N 0.87519 0.40731 0.6316 0.0
C2945 C 0.84895 0.41533 0.63593 0.0
C2946 C 0.82768 0.39536 0.63285 0.0
C2947 C 0.8221 0.5949 0.86443 0.0
C2948 C 0.80706 0.60306 0.88183 0.0
C2949 C 0.8435 0.57572 0.86661 0.0
C2950 C 0.84787 0.56312 0.88584 0.0
H2951 H 0.8145 0.599 0.84911 0.0
H2952 H 0.85202 0.5666 0.85282 0.0
S2953 S 0.82911 0.59509 0.93572 0.0
N2954 N 0.8108 0.61206 0.91842 0.0
N2955 N 0.8476 0.57231 0.92277 0.0
C2956 C 0.83983 0.57836 0.90326 0.0
C2957 C 0.81991 0.59966 0.90097 0.0
C2958 C 0.66587 0.59809 0.1212 0.0
C2959 C 0.68051 0.60159 0.13976 0.0
C2960 C 0.64713 0.57615 0.11936 0.0
C2961 C 0.64091 0.55993 0.13666 0.0
H2962 H 0.6734 0.60767 0.10723 0.0
H2963 H 0.64164 0.56938 0.10408 0.0
S2964 S 0.65442 0.57918 0.19063 0.0
N2965 N 0.67563 0.59874 0.17698 0.0
N2966 N 0.63582 0.56158 0.17382 0.0
C2967 C 0.64632 0.57173 0.15599 0.0
C2968 C 0.66755 0.59196 0.15768 0.0
C2969 C 0.64936 0.41679 0.374 0.0
C2970 C 0.65167 0.44307 0.383 0.0
C2971 C 0.67075 0.39748 0.37634 0.0
C2972 C 0.69472 0.40468 0.38731 0.0
H2973 H 0.63161 0.41167 0.36458 0.0
H2974 H 0.66907 0.37741 0.36903 0.0
S2975 S 0.71136 0.47275 0.41121 0.0
N2976 N 0.67968 0.47583 0.40235 0.0
N2977 N 0.72042 0.4409 0.40533 0.0
C2978 C 0.69709 0.43125 0.39601 0.0
C2979 C 0.67531 0.45013 0.39427 0.0
C2980 C 0.15252 0.57062 0.40896 0.0
C2981 C 0.14395 0.5614 0.38957 0.0
C2982 C 0.16899 0.5942 0.41064 0.0
C2983 C 0.1804 0.60639 0.3928 0.0
H2984 H 0.14938 0.55832 0.42264 0.0
H2985 H 0.17593 0.5995 0.42586 0.0
S2986 S 0.14487 0.6042 0.34237 0.0
N2987 N 0.13291 0.57697 0.35497 0.0
N2988 N 0.16646 0.61996 0.3582 0.0
C2989 C 0.1646 0.6031 0.37482 0.0
C2990 C 0.1463 0.58012 0.37314 0.0
C2991 C 0.14502 0.41921 0.1482 0.0
C2992 C 0.14289 0.43219 0.12887 0.0
C2993 C 0.16516 0.39889 0.15122 0.0
C2994 C 0.18142 0.39045 0.13453 0.0
H2995 H 0.13588 0.42873 0.16162 0.0
H2996 H 0.17132 0.39429 0.16682 0.0
S2997 S 0.16602 0.40133 0.07977 0.0
N2998 N 0.14712 0.42452 0.09199 0.0
N2999 N 0.18113 0.38259 0.09775 0.0
C3000 C 0.17044 0.39463 0.11483 0.0
C3001 C 0.15201 0.41709 0.11175 0.0
C3002 C 0.32298 0.39549 0.90301 0.0
C3003 C 0.31236 0.38932 0.88337 0.0
C3004 C 0.34155 0.41754 0.90515 0.0
C3005 C 0.35172 0.43076 0.8875 0.0
H3006 H 0.31236 0.38821 0.91663 0.0
H3007 H 0.34378 0.42684 0.92016 0.0
S3008 S 0.34973 0.40316 0.83473 0.0
N3009 N 0.32551 0.38588 0.84726 0.0
N3010 N 0.36485 0.42323 0.85192 0.0
C3011 C 0.35055 0.41583 0.86903 0.0
C3012 C 0.32949 0.39561 0.86657 0.0
C3013 C 0.29437 0.56335 0.62356 0.0
C3014 C 0.29838 0.59095 0.62965 0.0
C3015 C 0.31415 0.54372 0.62716 0.0
C3016 C 0.33866 0.55066 0.63731 0.0
H3017 H 0.27506 0.55633 0.61687 0.0
H3018 H 0.30967 0.52247 0.62282 0.0
S3019 S 0.36015 0.61991 0.65544 0.0
N3020 N 0.32904 0.62478 0.64549 0.0
N3021 N 0.36719 0.58658 0.65265 0.0
C3022 C 0.34373 0.5781 0.6431 0.0
C3023 C 0.32323 0.5986 0.63924 0.0
C3024 C 0.36555 0.96387 1.00821 0.0
C3025 C 0.37895 0.95099 0.02478 0.0
C3026 C 0.3495 0.94856 0.99445 0.0
C3027 C 0.34672 0.91972 0.99649 0.0
H3028 H 0.36819 0.9859 1.00557 0.0
H3029 H 0.33933 0.95935 0.98197 0.0
S3030 S 0.37678 0.87622 0.03761 0.0
N3031 N 0.38791 0.90787 0.04282 0.0
N3032 N 0.35751 0.87892 0.01676 0.0
C3033 C 0.35962 0.90655 0.01312 0.0
C3034 C 0.37577 0.92226 0.02736 0.0
C3035 C 0.28805 0.10325 0.24271 0.0
C3036 C 0.31449 0.0938 0.24804 0.0
C3037 C 0.27238 0.11905 0.25637 0.0
C3038 C 0.28253 0.12602 0.27594 0.0
H3039 H 0.27957 0.09873 0.22769 0.0
H3040 H 0.25256 0.1269 0.25125 0.0
S3041 S 0.34947 0.10339 0.29806 0.0
N3042 N 0.34935 0.0901 0.27469 0.0
N3043 N 0.32 0.12042 0.30049 0.0
C3044 C 0.30846 0.11549 0.28186 0.0
C3045 C 0.32449 0.0993 0.26783 0.0
C3046 C 0.13988 0.07997 0.51826 0.0
C3047 C 0.14509 0.07219 0.49782 0.0
C3048 C 0.12346 0.06328 0.53121 0.0
C3049 C 0.11222 0.03811 0.52415 0.0
H3050 H 0.14835 0.09916 0.52418 0.0
H3051 H 0.11882 0.0705 0.54655 0.0
S3052 S 0.12193 0.00762 0.47241 0.0
N3053 N 0.13893 0.03732 0.47148 0.0
N3054 N 0.10896 0.00559 0.49579 0.0
C3055 C 0.11826 0.02979 0.50394 0.0
C3056 C 0.13445 0.04693 0.49077 0.0
C3057 C 0.19129 0.90748 0.76251 0.0
C3058 C 0.16817 0.89858 0.75092 0.0
C3059 C 0.20642 0.88907 0.77496 0.0
C3060 C 0.19898 0.86102 0.77644 0.0
H3061 H 0.19841 0.92872 0.76146 0.0
H3062 H 0.22477 0.89658 0.78273 0.0
S3063 S 0.13839 0.82758 0.75154 0.0
N3064 N 0.13749 0.85991 0.74328 0.0
N3065 N 0.16543 0.8257 0.76693 0.0
C3066 C 0.17508 0.85214 0.76588 0.0
C3067 C 0.15986 0.87075 0.75305 0.0
C3068 C 0.35142 0.04733 0.52332 0.0
C3069 C 0.34745 0.07574 0.5197 0.0
C3070 C 0.36783 0.03128 0.51023 0.0
C3071 C 0.38036 0.04291 0.49276 0.0
H3072 H 0.34205 0.03751 0.53656 0.0
H3073 H 0.37132 0.00971 0.51405 0.0
S3074 S 0.375 0.11606 0.47588 0.0
N3075 N 0.35638 0.11474 0.49712 0.0
N3076 N 0.38713 0.08443 0.47225 0.0
C3077 C 0.37591 0.07115 0.48864 0.0
C3078 C 0.35949 0.08763 0.5022 0.0
C3079 C 0.199 0.10389 0.74163 0.0
C3080 C 0.19422 0.13251 0.74169 0.0
C3081 C 0.18393 0.08616 0.75454 0.0
C3082 C 0.16353 0.09633 0.76814 0.0
H3083 H 0.21545 0.09529 0.73234 0.0
H3084 H 0.18913 0.06435 0.75432 0.0
S3085 S 0.14078 0.16956 0.7721 0.0
N3086 N 0.16543 0.17001 0.7546 0.0
N3087 N 0.13797 0.13693 0.77944 0.0
C3088 C 0.15755 0.12481 0.76749 0.0
C3089 C 0.17261 0.14279 0.75411 0.0
C3090 C 0.14077 0.95258 0.0232 0.0
C3091 C 0.1446 0.9238 0.02153 0.0
C3092 C 0.12466 0.96716 1.00905 0.0
C3093 C 0.11207 0.95365 0.99242 0.0
H3094 H 0.15016 0.96393 0.03574 0.0
H3095 H 0.12122 0.98909 0.01151 0.0
S3096 S 0.11714 0.87886 0.9802 0.0
N3097 N 0.13569 0.88244 1.00136 0.0
N3098 N 0.10504 0.91 0.97464 0.0
C3099 C 0.11622 0.92498 0.99019 0.0
C3100 C 0.13254 0.90999 1.00479 0.0
C3101 C 0.28723 0.88712 0.24577 0.0
C3102 C 0.29525 0.85957 0.24264 0.0
C3103 C 0.30234 0.90455 0.25892 0.0
C3104 C 0.32603 0.89513 0.2696 0.0
H3105 H 0.26834 0.89481 0.2389 0.0
H3106 H 0.29465 0.92537 0.26127 0.0
S3107 S 0.35711 0.8252 0.2648 0.0
N3108 N 0.32961 0.82414 0.24979 0.0
N3109 N 0.35775 0.85669 0.27468 0.0
C3110 C 0.33491 0.86788 0.26584 0.0
C3111 C 0.31964 0.85023 0.25229 0.0
C3112 C 0.61997 0.02717 0.00994 0.0
C3113 C 0.60923 0.03842 0.99166 0.0
C3114 C 0.63504 0.04342 0.02383 0.0
C3115 C 0.63972 0.07174 0.02022 0.0
H3116 H 0.61572 0.00578 0.01392 0.0
H3117 H 0.64277 0.03381 0.03771 0.0
S3118 S 0.61833 0.11093 0.97402 0.0
N3119 N 0.60577 0.07945 0.9702 0.0
N3120 N 0.63445 0.10999 0.99638 0.0
C3121 C 0.63006 0.08316 1.00174 0.0
C3122 C 0.61478 0.06649 0.98743 0.0
C3123 C 0.67924 0.87181 0.73469 0.0
C3124 C 0.70331 0.85858 0.74181 0.0
C3125 C 0.66283 0.88778 0.74805 0.0
C3126 C 0.6697 0.89027 0.76894 0.0
H3127 H 0.67251 0.86894 0.71899 0.0
H3128 H 0.6445 0.89787 0.74212 0.0
S3129 S 0.73187 0.86222 0.79467 0.0
N3130 N 0.73457 0.85169 0.77068 0.0
N3131 N 0.70285 0.88012 0.79577 0.0
C3132 C 0.69408 0.878 0.77602 0.0
C3133 C 0.71115 0.86262 0.76244 0.0
C3134 C 0.85526 0.9538 0.492 0.0
C3135 C 0.88353 0.94754 0.49095 0.0
C3136 C 0.8375 0.93866 0.50493 0.0
C3137 C 0.84731 0.91677 0.51745 0.0
H3138 H 0.84714 0.97146 0.48371 0.0
H3139 H 0.81605 0.94501 0.50569 0.0
S3140 S 0.91921 0.88989 0.51787 0.0
N3141 N 0.92001 0.91595 0.50147 0.0
N3142 N 0.88698 0.88813 0.52615 0.0
C3143 C 0.87529 0.90931 0.5155 0.0
C3144 C 0.89323 0.92447 0.50213 0.0
C3145 C 0.7843 0.10787 0.24288 0.0
C3146 C 0.79523 0.13364 0.23732 0.0
C3147 C 0.79777 0.09124 0.25734 0.0
C3148 C 0.82263 0.09979 0.2669 0.0
H3149 H 0.76419 0.10149 0.23724 0.0
H3150 H 0.78767 0.07211 0.2618 0.0
S3151 S 0.86178 0.16386 0.25472 0.0
N3152 N 0.83379 0.16572 0.24025 0.0
N3153 N 0.85932 0.13437 0.26749 0.0
C3154 C 0.83496 0.12451 0.26006 0.0
C3155 C 0.82117 0.14147 0.24527 0.0
C3156 C 0.59912 0.92168 0.51796 0.0
C3157 C 0.60826 0.94645 0.52728 0.0
C3158 C 0.61635 0.90636 0.50479 0.0
C3159 C 0.64345 0.91522 0.50036 0.0
H3160 H 0.57805 0.91466 0.52027 0.0
H3161 H 0.60807 0.88788 0.49763 0.0
S3162 S 0.67717 0.9788 0.52126 0.0
N3163 N 0.646 0.97887 0.53155 0.0
N3164 N 0.67862 0.95057 0.50706 0.0
C3165 C 0.65305 0.93959 0.51026 0.0
C3166 C 0.63546 0.95503 0.52366 0.0
C3167 C 0.81153 0.87837 0.28156 0.0
C3168 C 0.78979 0.86265 0.27309 0.0
C3169 C 0.82839 0.89531 0.26908 0.0
C3170 C 0.82458 0.89653 0.24767 0.0
H3171 H 0.81615 0.87686 0.29778 0.0
H3172 H 0.84495 0.90705 0.27616 0.0
S3173 S 0.76868 0.86231 0.21821 0.0
N3174 N 0.76348 0.85232 0.24212 0.0
N3175 N 0.79633 0.88244 0.21879 0.0
C3176 C 0.80252 0.88166 0.23912 0.0
C3177 C 0.78482 0.86524 0.2518 0.0
C3178 C 0.87489 0.06826 0.03098 0.0
C3179 C 0.8806 0.04064 0.02543 0.0
C3180 C 0.85967 0.08588 0.01785 0.0
C3181 C 0.85005 0.07653 0.99867 0.0
H3182 H 0.88305 0.07654 0.04518 0.0
H3183 H 0.85538 0.10689 0.02271 0.0
S3184 S 0.85886 0.006 0.97727 0.0
N3185 N 0.87471 0.00479 0.99969 0.0
N3186 N 0.84653 0.03777 0.97517 0.0
C3187 C 0.8552 0.0489 0.99321 0.0
C3188 C 0.87036 0.03103 1.00652 0.0
C3189 C 0.7064 0.11938 0.75392 0.0
C3190 C 0.69887 0.12721 0.77401 0.0
C3191 C 0.68851 0.10402 0.74139 0.0
C3192 C 0.66239 0.09568 0.74843 0.0
H3193 H 0.72617 0.12574 0.74765 0.0
H3194 H 0.69524 0.09847 0.72609 0.0
S3195 S 0.63282 0.10927 0.79982 0.0
N3196 N 0.66337 0.12474 0.80038 0.0
N3197 N 0.63012 0.09494 0.7769 0.0
C3198 C 0.65476 0.10247 0.76859 0.0
C3199 C 0.67293 0.1184 0.78138 0.0
C3200 C 0.86053 0.44518 0.49175 0.0
C3201 C 0.85253 0.41798 0.4965 0.0
C3202 C 0.87567 0.46104 0.50567 0.0
C3203 C 0.88329 0.45034 0.52493 0.0
H3204 H 0.85468 0.45439 0.47721 0.0
H3205 H 0.88211 0.48168 0.50114 0.0
S3206 S 0.86565 0.38081 0.54522 0.0
N3207 N 0.85168 0.3814 0.52207 0.0
N3208 N 0.88102 0.41116 0.54831 0.0
C3209 C 0.87492 0.42334 0.53009 0.0
C3210 C 0.85939 0.40712 0.5158 0.0
C3211 C 0.83117 0.60694 0.76459 0.0
C3212 C 0.81985 0.59749 0.74597 0.0
C3213 C 0.81521 0.62275 0.7784 0.0
C3214 C 0.78742 0.62914 0.77404 0.0
H3215 H 0.85236 0.60198 0.76852 0.0
H3216 H 0.82491 0.63085 0.79212 0.0
S3217 S 0.74824 0.60861 0.72756 0.0
N3218 N 0.77929 0.59519 0.72414 0.0
N3219 N 0.74935 0.6244 0.74999 0.0
C3220 C 0.77587 0.61909 0.7557 0.0
C3221 C 0.79207 0.60342 0.74169 0.0
C3222 C 0.61821 0.58456 1.00392 0.0
C3223 C 0.64566 0.57635 1.00038 0.0
C3224 C 0.60108 0.56964 0.0173 0.0
C3225 C 0.61057 0.54575 0.02755 0.0
H3226 H 0.60952 0.60204 0.99574 0.0
H3227 H 0.57968 0.57598 0.0188 0.0
S3228 S 0.68123 0.51669 0.02516 0.0
N3229 N 0.68221 0.54383 0.00972 0.0
N3230 N 0.64948 0.51563 0.03447 0.0
C3231 C 0.63833 0.53824 0.02522 0.0
C3232 C 0.65598 0.55353 0.01169 0.0
C3233 C 0.68923 0.37752 0.24042 0.0
C3234 C 0.66931 0.39516 0.24876 0.0
C3235 C 0.70594 0.36123 0.25304 0.0
C3236 C 0.70243 0.36051 0.27459 0.0
H3237 H 0.69231 0.37667 0.22396 0.0
H3238 H 0.72145 0.34854 0.24564 0.0
S3239 S 0.6538 0.40494 0.30391 0.0
N3240 N 0.6484 0.41353 0.2797 0.0
N3241 N 0.67793 0.38072 0.30361 0.0
C3242 C 0.68295 0.37887 0.28317 0.0
C3243 C 0.66671 0.39653 0.2702 0.0
C3244 C 0.89164 0.56885 1.00659 0.0
C3245 C 0.88196 0.54716 0.99398 0.0
C3246 C 0.8742 0.58201 0.0207 0.0
C3247 C 0.84638 0.57398 0.02273 0.0
H3248 H 0.91328 0.57472 1.00627 0.0
H3249 H 0.8829 0.5978 0.03059 0.0
S3250 S 0.81019 0.52086 0.99097 0.0
N3251 N 0.84245 0.52026 0.98277 0.0
N3252 N 0.80936 0.54473 1.00905 0.0
C3253 C 0.83605 0.55363 1.00904 0.0
C3254 C 0.85387 0.54038 0.99466 0.0
C3255 C 0.68699 0.58734 0.25705 0.0
C3256 C 0.66513 0.59759 0.26936 0.0
C3257 C 0.70193 0.60462 0.24371 0.0
C3258 C 0.69556 0.63282 0.24204 0.0
H3259 H 0.69366 0.56602 0.25843 0.0
H3260 H 0.71971 0.59627 0.23574 0.0
S3261 S 0.63725 0.66912 0.26741 0.0
N3262 N 0.63569 0.63723 0.27655 0.0
N3263 N 0.66362 0.66954 0.25133 0.0
C3264 C 0.67231 0.64284 0.25275 0.0
C3265 C 0.65718 0.62532 0.26645 0.0
C3266 C 0.61781 0.43034 0.48986 0.0
C3267 C 0.60329 0.45377 0.49673 0.0
C3268 C 0.6345 0.41482 0.50338 0.0
C3269 C 0.63707 0.422 0.52424 0.0
H3270 H 0.61578 0.42358 0.4741 0.0
H3271 H 0.64559 0.39716 0.49743 0.0
S3272 S 0.60404 0.48172 0.54991 0.0
N3273 N 0.59351 0.48382 0.52587 0.0
N3274 N 0.62412 0.45412 0.55104 0.0
C3275 C 0.62275 0.44528 0.53128 0.0
C3276 C 0.60614 0.4613 0.51759 0.0
C3277 C 0.78148 0.36426 0.76582 0.0
C3278 C 0.78694 0.3619 0.74457 0.0
C3279 C 0.79737 0.38128 0.77861 0.0
C3280 C 0.81854 0.39792 0.77065 0.0
H3281 H 0.76516 0.35217 0.77289 0.0
H3282 H 0.79286 0.38157 0.79489 0.0
S3283 S 0.83963 0.40288 0.71614 0.0
N3284 N 0.81473 0.37936 0.71617 0.0
N3285 N 0.84294 0.41325 0.74016 0.0
C3286 C 0.82316 0.39755 0.74937 0.0
C3287 C 0.80766 0.37927 0.73632 0.0
C3288 C 0.13581 0.5386 0.49222 0.0
C3289 C 0.10807 0.54655 0.49085 0.0
C3290 C 0.15387 0.552 0.50579 0.0
C3291 C 0.14493 0.57387 0.51865 0.0
H3292 H 0.1432 0.52084 0.48368 0.0
H3293 H 0.17486 0.54432 0.50666 0.0
S3294 S 0.07468 0.60471 0.51867 0.0
N3295 N 0.07295 0.57954 0.50159 0.0
N3296 N 0.1067 0.60433 0.52748 0.0
C3297 C 0.11753 0.58308 0.51645 0.0
C3298 C 0.09921 0.56958 0.50244 0.0
C3299 C 0.20236 0.38917 0.2451 0.0
C3300 C 0.19613 0.36079 0.24493 0.0
C3301 C 0.18687 0.40773 0.25707 0.0
C3302 C 0.16455 0.39867 0.26943 0.0
H3303 H 0.22012 0.39691 0.23672 0.0
H3304 H 0.19317 0.42927 0.25714 0.0
S3305 S 0.13773 0.32656 0.27206 0.0
N3306 N 0.16435 0.32477 0.25626 0.0
N3307 N 0.13572 0.35935 0.27909 0.0
C3308 C 0.15728 0.37043 0.2685 0.0
C3309 C 0.1729 0.35163 0.25615 0.0
C3310 C 0.35588 0.45908 0.99586 0.0
C3311 C 0.38193 0.44839 0.99094 0.0
C3312 C 0.33884 0.44558 0.01012 0.0
C3313 C 0.34733 0.42097 0.02007 0.0
H3314 H 0.34941 0.4789 0.9897 0.0
H3315 H 0.31942 0.45536 0.01407 0.0
S3316 S 0.41225 0.38258 0.00978 0.0
N3317 N 0.41424 0.4103 0.99498 0.0
N3318 N 0.38238 0.38494 0.02194 0.0
C3319 C 0.37257 0.40909 0.01407 0.0
C3320 C 0.3898 0.42278 0.99945 0.0
C3321 C 0.31464 0.63488 0.75184 0.0
C3322 C 0.28955 0.62731 0.7423 0.0
C3323 C 0.3289 0.6165 0.76476 0.0
C3324 C 0.31875 0.58966 0.76861 0.0
H3325 H 0.32287 0.6556 0.7498 0.0
H3326 H 0.34787 0.62352 0.77193 0.0
S3327 S 0.25355 0.55998 0.7476 0.0
N3328 N 0.25505 0.59143 0.73767 0.0
N3329 N 0.2817 0.55659 0.76173 0.0
C3330 C 0.29391 0.58166 0.75876 0.0
C3331 C 0.2794 0.6005 0.74564 0.0
C3332 C 0.11961 0.46856 1.00725 0.0
C3333 C 0.10957 0.45437 0.02453 0.0
C3334 C 0.13559 0.45507 0.9925 0.0
C3335 C 0.14178 0.42674 0.99428 0.0
H3336 H 0.11401 0.49003 1.00468 0.0
H3337 H 0.14252 0.46675 0.97926 0.0
S3338 S 0.12172 0.38054 0.03718 0.0
N3339 N 0.10782 0.41076 0.04312 0.0
N3340 N 0.13805 0.38518 0.01516 0.0
C3341 C 0.13254 0.41237 0.01172 0.0
C3342 C 0.11644 0.42628 0.02696 0.0
C3343 C 0.30374 0.40078 0.76155 0.0
C3344 C 0.32609 0.392 0.74912 0.0
C3345 C 0.29054 0.3827 0.77531 0.0
C3346 C 0.2992 0.35516 0.77727 0.0
H3347 H 0.29543 0.42149 0.76003 0.0
H3348 H 0.27235 0.38982 0.78345 0.0
S3349 S 0.35911 0.32267 0.75113 0.0
N3350 N 0.35809 0.35444 0.74173 0.0
N3351 N 0.33339 0.32067 0.76771 0.0
C3352 C 0.32276 0.34666 0.76623 0.0
C3353 C 0.33614 0.36497 0.75212 0.0
C3354 C 0.35097 0.53545 0.52268 0.0
C3355 C 0.37642 0.54683 0.52846 0.0
C3356 C 0.3338 0.54928 0.50878 0.0
C3357 C 0.34148 0.57497 0.50001 0.0
H3358 H 0.34506 0.51499 0.52797 0.0
H3359 H 0.31471 0.53914 0.50435 0.0
S3360 S 0.40565 0.61418 0.51154 0.0
N3361 N 0.4082 0.58567 0.52545 0.0
N3362 N 0.37582 0.61188 0.49928 0.0
C3363 C 0.36656 0.58702 0.50629 0.0
C3364 C 0.38399 0.57293 0.52057 0.0
C3365 C 0.16515 0.59933 0.26617 0.0
C3366 C 0.17298 0.59595 0.24558 0.0
C3367 C 0.18065 0.61643 0.27932 0.0
C3368 C 0.20446 0.63024 0.27218 0.0
H3369 H 0.14682 0.58906 0.272 0.0
H3370 H 0.17345 0.61966 0.29486 0.0
S3371 S 0.23455 0.62561 0.21994 0.0
N3372 N 0.20637 0.60628 0.21891 0.0
N3373 N 0.23611 0.63749 0.24364 0.0
C3374 C 0.21296 0.62584 0.25181 0.0
C3375 C 0.19701 0.60895 0.23847 0.0
C3376 C 0.33667 0.16752 0.1828 0.0
C3377 C 0.35863 0.15487 0.17235 0.0
C3378 C 0.32388 0.19117 0.17496 0.0
C3379 C 0.33227 0.20276 0.15621 0.0
H3380 H 0.32844 0.15829 0.19668 0.0
H3381 H 0.30628 0.19965 0.18311 0.0
S3382 S 0.39128 0.18023 0.12444 0.0
N3383 N 0.39042 0.15755 0.14347 0.0
N3384 N 0.36562 0.20209 0.12849 0.0
C3385 C 0.35533 0.1916 0.14623 0.0
C3386 C 0.36877 0.16759 0.15441 0.0
C3387 C 0.04643 0.10848 0.40021 0.0
C3388 C 0.04695 0.08178 0.3914 0.0
C3389 C 0.0704 0.12044 0.40878 0.0
C3390 C 0.09585 0.10626 0.40872 0.0
H3391 H 0.0272 0.11988 0.40111 0.0
H3392 H 0.06881 0.14061 0.41594 0.0
S3393 S 0.10905 0.03659 0.38673 0.0
N3394 N 0.07584 0.04202 0.38287 0.0
N3395 N 0.12048 0.06491 0.39798 0.0
C3396 C 0.09699 0.08034 0.39896 0.0
C3397 C 0.07271 0.06803 0.39053 0.0
C3398 C 0.13508 0.80241 0.64692 0.0
C3399 C 0.16256 0.79563 0.65186 0.0
C3400 C 0.12263 0.82624 0.65535 0.0
C3401 C 0.13755 0.84375 0.66869 0.0
H3402 H 0.12341 0.78953 0.63641 0.0
H3403 H 0.10165 0.83142 0.65098 0.0
S3404 S 0.20892 0.83286 0.68775 0.0
N3405 N 0.2033 0.80677 0.67196 0.0
N3406 N 0.18027 0.85137 0.68746 0.0
C3407 C 0.16464 0.83648 0.67407 0.0
C3408 C 0.17706 0.81241 0.66573 0.0
C3409 C 0.44497 0.88106 0.90211 0.0
C3410 C 0.44353 0.90752 0.8929 0.0
C3411 C 0.42133 0.86828 0.91058 0.0
C3412 C 0.39532 0.8813 0.90991 0.0
H3413 H 0.46461 0.87046 0.90336 0.0
H3414 H 0.42357 0.84836 0.91804 0.0
S3415 S 0.3798 0.95017 0.8872 0.0
N3416 N 0.41327 0.94602 0.88377 0.0
N3417 N 0.36928 0.92152 0.8985 0.0
C3418 C 0.39334 0.90703 0.89986 0.0
C3419 C 0.41728 0.92022 0.89164 0.0
C3420 C 0.33137 0.79795 0.34114 0.0
C3421 C 0.33176 0.78819 0.36145 0.0
C3422 C 0.34814 0.82013 0.3351 0.0
C3423 C 0.36561 0.83335 0.34924 0.0
H3424 H 0.31703 0.78917 0.33012 0.0
H3425 H 0.34607 0.82813 0.31964 0.0
S3426 S 0.37824 0.81128 0.40283 0.0
N3427 N 0.35374 0.79016 0.39471 0.0
N3428 N 0.38522 0.83253 0.38358 0.0
C3429 C 0.36752 0.82253 0.36922 0.0
C3430 C 0.35057 0.79971 0.37528 0.0
C3431 C 0.40349 0.07905 0.59935 0.0
C3432 C 0.39998 0.10763 0.60209 0.0
C3433 C 0.42632 0.06538 0.60735 0.0
C3434 C 0.44656 0.07961 0.61863 0.0
H3435 H 0.38843 0.06701 0.59083 0.0
H3436 H 0.42827 0.04335 0.6045 0.0
S3437 S 0.44726 0.15468 0.63028 0.0
N3438 N 0.41861 0.15007 0.61681 0.0
N3439 N 0.46218 0.12395 0.63201 0.0
C3440 C 0.44377 0.10834 0.62133 0.0
C3441 C 0.42026 0.12247 0.61303 0.0
C3442 C 0.11871 0.17041 0.86451 0.0
C3443 C 0.13414 0.15145 0.85273 0.0
C3444 C 0.13154 0.19384 0.87336 0.0
C3445 C 0.16001 0.19869 0.87056 0.0
H3446 H 0.09694 0.16669 0.86733 0.0
H3447 H 0.11934 0.20794 0.88255 0.0
S3448 S 0.20829 0.15712 0.83898 0.0
N3449 N 0.17855 0.14038 0.83751 0.0
N3450 N 0.20238 0.18419 0.85377 0.0
C3451 C 0.17513 0.1804 0.85818 0.0
C3452 C 0.16227 0.15679 0.84938 0.0
C3453 C 0.06905 0.92582 0.11745 0.0
C3454 C 0.04488 0.91065 0.12168 0.0
C3455 C 0.09238 0.91329 0.1093 0.0
C3456 C 0.09289 0.88487 0.10474 0.0
H3457 H 0.06973 0.94807 0.11959 0.0
H3458 H 0.10999 0.92648 0.10602 0.0
S3459 S 0.03599 0.83489 0.1147 0.0
N3460 N 0.02325 0.86509 0.12199 0.0
N3461 N 0.06774 0.84115 0.10645 0.0
C3462 C 0.06924 0.86895 0.10942 0.0
C3463 C 0.0451 0.88193 0.11788 0.0
C3464 C 0.66803 0.81804 0.8772 0.0
C3465 C 0.65546 0.79174 0.87567 0.0
C3466 C 0.65607 0.84158 0.86858 0.0
C3467 C 0.631 0.84023 0.85773 0.0
H3468 H 0.68838 0.82052 0.88387 0.0
H3469 H 0.66743 0.86089 0.86973 0.0
S3470 S 0.58596 0.77814 0.85341 0.0
N3471 N 0.61361 0.76692 0.86576 0.0
N3472 N 0.59144 0.8114 0.84887 0.0
C3473 C 0.6167 0.81477 0.85765 0.0
C3474 C 0.62888 0.79053 0.8667 0.0
C3475 C 0.94929 0.89608 0.60141 0.0
C3476 C 0.94823 0.91574 0.61741 0.0
C3477 C 0.92575 0.88091 0.59568 0.0
C3478 C 0.90021 0.88522 0.60546 0.0
H3479 H 0.9676 0.89407 0.59199 0.0
H3480 H 0.9271 0.86745 0.58243 0.0
S3481 S 0.88817 0.92961 0.65103 0.0
N3482 N 0.92121 0.93392 0.64572 0.0
N3483 N 0.87639 0.90735 0.63392 0.0
C3484 C 0.89967 0.90249 0.62285 0.0
C3485 C 0.92386 0.91718 0.6291 0.0
C3486 C 0.86709 0.17141 0.35608 0.0
C3487 C 0.85223 0.14626 0.35549 0.0
C3488 C 0.85535 0.19553 0.36463 0.0
C3489 C 0.82842 0.19529 0.37301 0.0
H3490 H 0.88748 0.17274 0.34929 0.0
H3491 H 0.86711 0.21463 0.36411 0.0
S3492 S 0.7821 0.13374 0.37692 0.0
N3493 N 0.81036 0.12203 0.36587 0.0
N3494 N 0.78795 0.16693 0.38082 0.0
C3495 C 0.8141 0.16978 0.37338 0.0
C3496 C 0.82607 0.14542 0.36491 0.0
C3497 C 0.54079 0.09346 0.10473 0.0
C3498 C 0.54276 0.07367 0.12066 0.0
C3499 C 0.5638 0.10913 0.09853 0.0
C3500 C 0.58978 0.10521 0.10773 0.0
H3501 H 0.52209 0.09535 0.09572 0.0
H3502 H 0.56166 0.1227 0.08539 0.0
S3503 S 0.60463 0.06035 0.15267 0.0
N3504 N 0.57143 0.05561 0.14818 0.0
N3505 N 0.61523 0.08302 0.13541 0.0
C3506 C 0.59137 0.08765 0.12495 0.0
C3507 C 0.56771 0.07246 0.1317 0.0
C3508 C 0.63412 0.19514 0.64916 0.0
C3509 C 0.66316 0.19509 0.64749 0.0
C3510 C 0.61993 0.17191 0.65705 0.0
C3511 C 0.63449 0.14819 0.66351 0.0
H3512 H 0.62245 0.21325 0.64456 0.0
H3513 H 0.59757 0.17245 0.65806 0.0
S3514 S 0.71069 0.1394 0.66462 0.0
N3515 N 0.70584 0.17034 0.65455 0.0
N3516 N 0.67944 0.127 0.66899 0.0
C3517 C 0.66346 0.14824 0.66212 0.0
C3518 C 0.67773 0.17164 0.65423 0.0
C3519 C 0.58621 0.91339 0.41968 0.0
C3520 C 0.58911 0.88484 0.41639 0.0
C3521 C 0.56372 0.92784 0.41189 0.0
C3522 C 0.54326 0.91442 0.4003 0.0
H3523 H 0.60157 0.92477 0.42841 0.0
H3524 H 0.56223 0.94982 0.41509 0.0
S3525 S 0.54124 0.83986 0.387 0.0
N3526 N 0.56985 0.84338 0.40069 0.0
N3527 N 0.5269 0.87092 0.38591 0.0
C3528 C 0.54549 0.88575 0.39701 0.0
C3529 C 0.56865 0.87084 0.40509 0.0
C3530 C 0.82368 0.82046 0.14058 0.0
C3531 C 0.8353 0.79375 0.14229 0.0
C3532 C 0.83685 0.84379 0.14855 0.0
C3533 C 0.86219 0.84176 0.15894 0.0
H3534 H 0.80318 0.82353 0.13435 0.0
H3535 H 0.82616 0.86343 0.14743 0.0
S3536 S 0.90517 0.77842 0.16326 0.0
N3537 N 0.87673 0.76785 0.15158 0.0
N3538 N 0.90094 0.81188 0.1675 0.0
C3539 C 0.87548 0.81584 0.15922 0.0
C3540 C 0.86218 0.79186 0.1507 0.0
C3541 C 0.92651 0.06706 0.91035 0.0
C3542 C 0.94734 0.08072 0.89925 0.0
C3543 C 0.90427 0.08147 0.91852 0.0
C3544 C 0.90195 0.11025 0.91612 0.0
H3545 H 0.92761 0.04491 0.91301 0.0
H3546 H 0.88876 0.06988 0.92695 0.0
S3547 S 0.95082 0.15591 0.88815 0.0
N3548 N 0.96456 0.12466 0.88619 0.0
N3549 N 0.92208 0.15217 0.90165 0.0
C3550 C 0.9227 0.12447 0.90523 0.0
C3551 C 0.94562 0.10958 0.89678 0.0
C3552 C 0.85551 0.65359 0.64586 0.0
C3553 C 0.86941 0.65309 0.66478 0.0
C3554 C 0.84105 0.67698 0.63929 0.0
C3555 C 0.83867 0.70046 0.65191 0.0
H3556 H 0.85394 0.63502 0.63674 0.0
H3557 H 0.82961 0.67564 0.62504 0.0
S3558 S 0.87657 0.71174 0.70099 0.0
N3559 N 0.88474 0.6799 0.69414 0.0
N3560 N 0.8559 0.72338 0.68281 0.0
C3561 C 0.85516 0.70138 0.66985 0.0
C3562 C 0.87075 0.67771 0.67614 0.0
C3563 C 0.5674 0.61921 0.90672 0.0
C3564 C 0.58973 0.60213 0.91256 0.0
C3565 C 0.54347 0.60791 0.89757 0.0
C3566 C 0.54144 0.5793 0.89364 0.0
H3567 H 0.56829 0.64134 0.90939 0.0
H3568 H 0.5264 0.62148 0.89378 0.0
S3569 S 0.59345 0.52556 0.90672 0.0
N3570 N 0.60762 0.555 0.91404 0.0
N3571 N 0.56319 0.53417 0.89707 0.0
C3572 C 0.56367 0.5622 0.89933 0.0
C3573 C 0.58767 0.5735 0.90869 0.0
C3574 C 0.6749 0.31278 0.15768 0.0
C3575 C 0.65885 0.29335 0.14698 0.0
C3576 C 0.66289 0.33539 0.16722 0.0
C3577 C 0.6342 0.33978 0.1665 0.0
H3578 H 0.69712 0.31027 0.15895 0.0
H3579 H 0.67648 0.34966 0.17517 0.0
S3580 S 0.58265 0.29368 0.14164 0.0
N3581 N 0.61269 0.27854 0.13715 0.0
N3582 N 0.58962 0.32206 0.15489 0.0
C3583 C 0.61757 0.3201 0.15633 0.0
C3584 C 0.63002 0.29661 0.14662 0.0
C3585 C 0.94179 0.38191 0.39576 0.0
C3586 C 0.94685 0.4095 0.40166 0.0
C3587 C 0.91942 0.36701 0.40427 0.0
C3588 C 0.90197 0.37945 0.41888 0.0
H3589 H 0.95478 0.3721 0.38436 0.0
H3590 H 0.91521 0.34617 0.39897 0.0
S3591 S 0.90832 0.45014 0.44041 0.0
N3592 N 0.9339 0.44779 0.42375 0.0
N3593 N 0.89212 0.42003 0.43953 0.0
C3594 C 0.90756 0.40658 0.42524 0.0
C3595 C 0.93 0.42156 0.41669 0.0
C3596 C 0.82415 0.30207 0.84177 0.0
C3597 C 0.83094 0.28997 0.86067 0.0
C3598 C 0.83816 0.32544 0.83472 0.0
C3599 C 0.85971 0.33722 0.84619 0.0
H3600 H 0.80686 0.29425 0.83289 0.0
H3601 H 0.83113 0.33524 0.82069 0.0
S3602 S 0.8882 0.3103 0.895 0.0
N3603 N 0.86228 0.28914 0.88967 0.0
N3604 N 0.88932 0.33336 0.87622 0.0
C3605 C 0.86823 0.32402 0.86434 0.0
C3606 C 0.85358 0.30025 0.87168 0.0
C3607 C 0.94602 0.60463 0.11825 0.0
C3608 C 0.94625 0.57771 0.12672 0.0
C3609 C 0.92148 0.61642 0.11045 0.0
C3610 C 0.89625 0.6017 0.11077 0.0
H3611 H 0.96504 0.61644 0.1172 0.0
H3612 H 0.92246 0.63689 0.10367 0.0
S3613 S 0.88527 0.53095 0.13182 0.0
N3614 N 0.91853 0.53698 0.13501 0.0
N3615 N 0.87287 0.55934 0.12128 0.0
C3616 C 0.89602 0.57531 0.11996 0.0
C3617 C 0.92085 0.56329 0.12769 0.0
C3618 C 0.6378 0.69008 0.37675 0.0
C3619 C 0.65818 0.70262 0.36449 0.0
C3620 C 0.62395 0.66615 0.36991 0.0
C3621 C 0.63028 0.65429 0.3508 0.0
H3622 H 0.63322 0.69825 0.39184 0.0
H3623 H 0.60883 0.65639 0.37973 0.0
S3624 S 0.68281 0.67876 0.31367 0.0
N3625 N 0.6842 0.70132 0.33264 0.0
N3626 N 0.65831 0.65646 0.32002 0.0
C3627 C 0.65004 0.6671 0.33831 0.0
C3628 C 0.66402 0.69127 0.34515 0.0
C3629 C 0.55045 0.40807 0.58932 0.0
C3630 C 0.54042 0.40733 0.60952 0.0
C3631 C 0.57257 0.39133 0.58334 0.0
C3632 C 0.58545 0.37358 0.59746 0.0
H3633 H 0.54203 0.42272 0.57838 0.0
H3634 H 0.58087 0.39378 0.568 0.0
S3635 S 0.56219 0.35971 0.65059 0.0
N3636 N 0.54149 0.38455 0.64253 0.0
N3637 N 0.58376 0.35309 0.63153 0.0
C3638 C 0.57421 0.37118 0.61727 0.0
C3639 C 0.55144 0.38811 0.62325 0.0
C3640 C 0.15918 0.33476 0.34255 0.0
C3641 C 0.13273 0.34145 0.34979 0.0
C3642 C 0.1733 0.31178 0.35002 0.0
C3643 C 0.16168 0.29477 0.36522 0.0
H3644 H 0.16929 0.34771 0.3312 0.0
H3645 H 0.19382 0.30752 0.34412 0.0
S3646 S 0.09223 0.30214 0.38839 0.0
N3647 N 0.09461 0.32852 0.37225 0.0
N3648 N 0.12165 0.28489 0.38652 0.0
C3649 C 0.1348 0.30041 0.37213 0.0
C3650 C 0.12017 0.32393 0.36434 0.0
C3651 C 0.4002 0.40791 0.12104 0.0
C3652 C 0.40074 0.38379 0.10908 0.0
C3653 C 0.42425 0.41915 0.1293 0.0
C3654 C 0.45033 0.40674 0.12628 0.0
H3655 H 0.38106 0.41912 0.12339 0.0
H3656 H 0.4222 0.43898 0.13686 0.0
S3657 S 0.46188 0.33905 0.10043 0.0
N3658 N 0.42849 0.34498 0.09735 0.0
N3659 N 0.47408 0.36558 0.11366 0.0
C3660 C 0.45076 0.38084 0.11614 0.0
C3661 C 0.42592 0.36944 0.10745 0.0
C3662 C 0.35587 0.6875 0.87532 0.0
C3663 C 0.3337 0.70044 0.86522 0.0
C3664 C 0.36899 0.66443 0.86643 0.0
C3665 C 0.35972 0.65362 0.84758 0.0
H3666 H 0.36246 0.69469 0.89028 0.0
H3667 H 0.38534 0.65408 0.87478 0.0
S3668 S 0.3035 0.68115 0.81491 0.0
N3669 N 0.30414 0.70178 0.83507 0.0
N3670 N 0.3283 0.65827 0.8188 0.0
C3671 C 0.33832 0.66706 0.83717 0.0
C3672 C 0.32538 0.69054 0.84592 0.0
C3673 C 0.0802 0.58933 0.58812 0.0
C3674 C 0.08737 0.61447 0.59746 0.0
C3675 C 0.05817 0.5735 0.59547 0.0
C3676 C 0.04256 0.58227 0.61241 0.0
H3677 H 0.09253 0.58124 0.57561 0.0
H3678 H 0.05373 0.5538 0.5882 0.0
S3679 S 0.05085 0.64812 0.64068 0.0
N3680 N 0.07611 0.64857 0.62356 0.0
N3681 N 0.03388 0.61874 0.63717 0.0
C3682 C 0.04849 0.60804 0.62128 0.0
C3683 C 0.07123 0.62417 0.61387 0.0
C3684 C 0.13473 0.68779 0.14242 0.0
C3685 C 0.15562 0.7017 0.15334 0.0
C3686 C 0.12189 0.66414 0.15082 0.0
C3687 C 0.13016 0.65369 0.17003 0.0
H3688 H 0.12905 0.69461 0.12716 0.0
H3689 H 0.10676 0.65299 0.14178 0.0
S3690 S 0.18308 0.68332 0.20471 0.0
N3691 N 0.18309 0.70399 0.18453 0.0
N3692 N 0.15931 0.65957 0.19997 0.0
C3693 C 0.15017 0.66809 0.18127 0.0
C3694 C 0.16288 0.6921 0.17297 0.0
C3695 C 0.04 0.39615 0.91917 0.0
C3696 C 0.03939 0.41189 0.90087 0.0
C3697 C 0.06385 0.38152 0.92506 0.0
C3698 C 0.08785 0.38259 0.91298 0.0
H3699 H 0.02302 0.39712 0.92997 0.0
H3700 H 0.06432 0.3716 0.93997 0.0
S3701 S 0.09487 0.41541 0.86194 0.0
N3702 N 0.06291 0.42246 0.86894 0.0
N3703 N 0.10832 0.39683 0.88071 0.0
C3704 C 0.08649 0.39564 0.89378 0.0
C3705 C 0.06205 0.40974 0.88752 0.0
C3706 C 0.36502 0.32773 0.64863 0.0
C3707 C 0.35915 0.33846 0.66817 0.0
C3708 C 0.35171 0.30368 0.64147 0.0
C3709 C 0.33239 0.28979 0.65389 0.0
H3710 H 0.37915 0.33863 0.63865 0.0
H3711 H 0.35573 0.29654 0.62602 0.0
S3712 S 0.30979 0.30998 0.70611 0.0
N3713 N 0.33297 0.33361 0.69966 0.0
N3714 N 0.30818 0.28838 0.68654 0.0
C3715 C 0.32723 0.29987 0.67373 0.0
C3716 C 0.3406 0.32426 0.68085 0.0
C3717 C 0.41412 0.62307 0.40229 0.0
C3718 C 0.40203 0.6154 0.42109 0.0
C3719 C 0.43698 0.6085 0.39444 0.0
C3720 C 0.4481 0.58601 0.40534 0.0
H3721 H 0.4052 0.63966 0.39333 0.0
H3722 H 0.44538 0.61423 0.37963 0.0
S3723 S 0.42344 0.55778 0.45499 0.0
N3724 N 0.40264 0.5841 0.45019 0.0
N3725 N 0.44552 0.55687 0.43569 0.0
C3726 C 0.43654 0.57877 0.42437 0.0
C3727 C 0.41347 0.59346 0.43222 0.0
C3728 C 0.40924 0.95979 0.26163 0.0
C3729 C 0.41475 0.97439 0.27977 0.0
C3730 C 0.40681 0.97368 0.24275 0.0
C3731 C 0.40985 0.00278 0.24113 0.0
H3732 H 0.40488 0.93778 0.26223 0.0
H3733 H 0.40056 0.96166 0.2295 0.0
S3734 S 0.42879 0.04981 0.28385 0.0
N3735 N 0.42623 0.01899 0.29477 0.0
N3736 N 0.4221 0.04502 0.25925 0.0
C3737 C 0.41775 0.01722 0.25893 0.0
C3738 C 0.41987 0.00308 0.27825 0.0
C3739 C 0.25707 0.16254 0.49141 0.0
C3740 C 0.22782 0.16334 0.49158 0.0
C3741 C 0.27264 0.16242 0.50966 0.0
C3742 C 0.25958 0.1625 0.52889 0.0
H3743 H 0.26807 0.16131 0.47696 0.0
H3744 H 0.29496 0.16092 0.50868 0.0
S3745 S 0.18376 0.16485 0.53802 0.0
N3746 N 0.18664 0.16492 0.51278 0.0
N3747 N 0.21569 0.16401 0.54705 0.0
C3748 C 0.23041 0.1638 0.52931 0.0
C3749 C 0.21459 0.16445 0.5107 0.0
C3750 C 0.09043 0.96797 0.76042 0.0
C3751 C 0.07764 0.9781 0.74263 0.0
C3752 C 0.09174 0.98408 0.77836 0.0
C3753 C 0.08023 0.011 0.77935 0.0
H3754 H 0.10063 0.948 0.76018 0.0
H3755 H 0.10244 0.97547 0.7915 0.0
S3756 S 0.04345 0.04642 0.73691 0.0
N3757 N 0.05278 0.01635 0.72703 0.0
N3758 N 0.05458 0.04631 0.76086 0.0
C3759 C 0.06659 0.02093 0.76179 0.0
C3760 C 0.06558 0.00462 0.74342 0.0
C3761 C 0.25012 0.85741 0.02389 0.0
C3762 C 0.23236 0.83572 0.02994 0.0
C3763 C 0.26712 0.85542 1.00668 0.0
C3764 C 0.26786 0.83143 0.9946 0.0
H3765 H 0.25073 0.87663 0.0322 0.0
H3766 H 0.27937 0.87331 1.00249 0.0
S3767 S 0.22856 0.76686 1.00472 0.0
N3768 N 0.21863 0.78803 0.02322 0.0
N3769 N 0.25109 0.78432 0.99063 0.0
C3770 C 0.25165 0.80874 1.00092 0.0
C3771 C 0.23384 0.81086 0.0186 0.0
C3772 C 0.57145 0.97043 0.75734 0.0
C3773 C 0.57102 0.98333 0.77664 0.0
C3774 C 0.57026 0.98615 0.73918 0.0
C3775 C 0.5682 0.01536 0.73953 0.0
H3776 H 0.57545 0.94841 0.7562 0.0
H3777 H 0.57261 0.97542 0.72469 0.0
S3778 S 0.56358 0.05883 0.78613 0.0
N3779 N 0.56622 0.02687 0.795 0.0
N3780 N 0.5636 0.05618 0.76088 0.0
C3781 C 0.5655 0.02827 0.75867 0.0
C3782 C 0.56697 0.01231 0.77718 0.0
C3783 C 0.76077 0.83772 0.48981 0.0
C3784 C 0.73187 0.83299 0.48946 0.0
C3785 C 0.77615 0.8366 0.5082 0.0
C3786 C 0.76317 0.8312 0.52708 0.0
H3787 H 0.77159 0.84278 0.47575 0.0
H3788 H 0.79807 0.84127 0.50775 0.0
S3789 S 0.68833 0.81745 0.53489 0.0
N3790 N 0.69126 0.82216 0.5099 0.0
N3791 N 0.71984 0.82096 0.54433 0.0
C3792 C 0.73444 0.82618 0.52694 0.0
C3793 C 0.71889 0.82678 0.50821 0.0
C3794 C 0.90843 0.97281 0.27742 0.0
C3795 C 0.91271 0.00181 0.27757 0.0
C3796 C 0.91347 0.95676 0.25982 0.0
C3797 C 0.92273 0.96917 0.2416 0.0
H3798 H 0.89902 0.96277 0.29056 0.0
H3799 H 0.90764 0.93508 0.25994 0.0
S3800 S 0.93948 0.04367 0.2343 0.0
N3801 N 0.92904 0.04165 0.25838 0.0
N3802 N 0.93803 0.01177 0.22518 0.0
C3803 C 0.92898 -0.00225 0.24198 0.0
C3804 C 0.92422 0.01399 0.26001 0.0
C3805 C 0.76241 0.1594 0.02935 0.0
C3806 C 0.73314 0.15931 0.02918 0.0
C3807 C 0.77801 0.16241 0.01117 0.0
C3808 C 0.76495 0.16494 0.992 0.0
H3809 H 0.77342 0.1564 0.04365 0.0
H3810 H 0.80035 0.16126 0.01204 0.0
S3811 S 0.68906 0.16634 0.98293 0.0
N3812 N 0.69197 0.16287 1.00803 0.0
N3813 N 0.721 0.16781 0.974 0.0
C3814 C 0.73575 0.16553 0.99168 0.0
C3815 C 0.71993 0.16296 0.01018 0.0
C3816 C 0.88503 0.50066 0.77168 0.0
C3817 C 0.9081 0.48544 0.77848 0.0
C3818 C 0.88547 0.51543 0.75332 0.0
C3819 C 0.90896 0.5159 0.74073 0.0
H3820 H 0.86613 0.50106 0.78062 0.0
H3821 H 0.86705 0.52662 0.74896 0.0
S3822 S 0.97484 0.4792 0.75099 0.0
N3823 N 0.95524 0.4714 0.77099 0.0
N3824 N 0.95604 0.49951 0.73605 0.0
C3825 C 0.93236 0.50088 0.74716 0.0
C3826 C 0.93187 0.48544 0.76607 0.0
C3827 C 0.74645 0.68101 0.02202 0.0
C3828 C 0.75998 0.65661 0.02857 0.0
C3829 C 0.73195 0.68198 1.00307 0.0
C3830 C 0.73039 0.65843 0.99035 0.0
H3831 H 0.74671 0.69922 0.0317 0.0
H3832 H 0.72207 0.70108 0.99839 0.0
S3833 S 0.76095 0.5895 1.00101 0.0
N3834 N 0.77031 0.60886 0.02061 0.0
N3835 N 0.74271 0.61006 0.98615 0.0
C3836 C 0.74358 0.63412 0.997 0.0
C3837 C 0.75844 0.63337 0.01578 0.0
C3838 C 0.57755 0.46294 0.26143 0.0
C3839 C 0.57315 0.47876 0.24358 0.0
C3840 C 0.5804 0.47572 0.28071 0.0
C3841 C 0.5786 0.50476 0.28295 0.0
H3842 H 0.5817 0.44095 0.26028 0.0
H3843 H 0.58595 0.46289 0.29371 0.0
S3844 S 0.56191 0.55475 0.2415 0.0
N3845 N 0.56306 0.52443 0.22984 0.0
N3846 N 0.568 0.54833 0.26595 0.0
C3847 C 0.57102 0.52035 0.26559 0.0
C3848 C 0.56834 0.50736 0.24597 0.0
C3849 C 0.76399 0.31296 0.50704 0.0
C3850 C 0.75948 0.3314 0.49057 0.0
C3851 C 0.74634 0.31286 0.52442 0.0
C3852 C 0.72377 0.33125 0.52583 0.0
H3853 H 0.782 0.29966 0.50701 0.0
H3854 H 0.75132 0.29953 0.53726 0.0
S3855 S 0.70148 0.38149 0.48623 0.0
N3856 N 0.72861 0.36606 0.47611 0.0
N3857 N 0.69729 0.36718 0.509 0.0
C3858 C 0.7185 0.34874 0.50915 0.0
C3859 C 0.73581 0.3484 0.49145 0.0
C3860 C 0.06877 0.46416 0.26091 0.0
C3861 C 0.07357 0.47774 0.27961 0.0
C3862 C 0.07012 0.47867 0.2422 0.0
C3863 C 0.07576 0.50738 0.24149 0.0
H3864 H 0.06613 0.44188 0.26059 0.0
H3865 H 0.06881 0.46693 0.22808 0.0
S3866 S 0.08625 0.55313 0.28648 0.0
N3867 N 0.0815 0.52202 0.29647 0.0
N3868 N 0.08352 0.54917 0.2614 0.0
C3869 C 0.0781 0.52157 0.26022 0.0
C3870 C 0.07723 0.50676 0.27923 0.0
C3871 C 0.27341 0.3268 0.011 0.0
C3872 C 0.25828 0.32746 0.02942 0.0
C3873 C 0.25987 0.32763 0.99188 0.0
C3874 C 0.23075 0.32866 0.99044 0.0
H3875 H 0.29568 0.32933 0.01131 0.0
H3876 H 0.27233 0.33058 0.97823 0.0
S3877 S 0.18184 0.32441 0.03404 0.0
N3878 N 0.21271 0.32438 0.04492 0.0
N3879 N 0.18744 0.32541 1.00906 0.0
C3880 C 0.21553 0.32523 1.00861 0.0
C3881 C 0.22928 0.32478 0.02809 0.0
C3882 C 0.40507 0.5331 0.75749 0.0
C3883 C 0.41013 0.51843 0.77572 0.0
C3884 C 0.40189 0.51915 0.73867 0.0
C3885 C 0.40414 0.49002 0.73723 0.0
H3886 H 0.40188 0.5553 0.75795 0.0
H3887 H 0.39659 0.53126 0.72524 0.0
S3888 S 0.42074 0.44251 0.78029 0.0
N3889 N 0.41951 0.47349 0.791 0.0
N3890 N 0.41438 0.44744 0.75567 0.0
C3891 C 0.41114 0.47539 0.75517 0.0
C3892 C 0.41384 0.48954 0.77439 0.0
C3893 C 0.26892 0.6416 0.50692 0.0
C3894 C 0.26491 0.66235 0.49216 0.0
C3895 C 0.25277 0.64028 0.52473 0.0
C3896 C 0.23136 0.6594 0.52858 0.0
H3897 H 0.28428 0.62572 0.50445 0.0
H3898 H 0.25686 0.62357 0.53535 0.0
S3899 S 0.21368 0.71922 0.4953 0.0
N3900 N 0.23914 0.70362 0.48296 0.0
N3901 N 0.20842 0.70114 0.51649 0.0
C3902 C 0.22791 0.68115 0.51436 0.0
C3903 C 0.24468 0.68257 0.49614 0.0
C3904 C 0.4945 0.97913 0.02585 0.0
C3905 C 0.47032 0.99408 0.02162 0.0
C3906 C 0.51741 0.98136 0.01295 0.0
C3907 C 0.51648 -0.00157 0.99554 0.0
H3908 H 0.49542 0.96524 0.0389 0.0
H3909 H 0.53593 0.96971 0.01654 0.0
S3910 S 0.45845 0.043 0.97886 0.0
N3911 N 0.4469 0.02718 0.99964 0.0
N3912 N 0.49025 0.03149 0.97526 0.0
C3913 C 0.49255 0.01375 0.99136 0.0
C3914 C 0.46932 0.01155 1.0045 0.0
C3915 C 0.22179 0.25962 0.26194 0.0
C3916 C 0.24432 0.27139 0.25131 0.0
C3917 C 0.22504 0.2358 0.27385 0.0
C3918 C 0.25085 0.22282 0.27539 0.0
H3919 H 0.20137 0.2687 0.26082 0.0
H3920 H 0.20711 0.22707 0.28147 0.0
S3921 S 0.31653 0.24593 0.25134 0.0
N3922 N 0.29338 0.26879 0.24362 0.0
N3923 N 0.29958 0.22374 0.266 0.0
C3924 C 0.27362 0.23444 0.26502 0.0
C3925 C 0.2703 0.25875 0.25291 0.0
C3926 C 0.00293 0.02514 0.51833 0.0
C3927 C 0.0174 0.0018 0.52557 0.0
C3928 C 0.98017 0.02214 0.50524 0.0
C3929 C 0.97149 0.99573 0.49906 0.0
H3930 H 0.00957 0.04581 0.52258 0.0
H3931 H 0.96927 0.04042 0.50002 0.0
S3932 S 0.0033 0.92843 0.51297 0.0
N3933 N 0.022 0.95177 0.52527 0.0
N3934 N 0.9793 0.946 0.50051 0.0
C3935 C 0.98582 0.9723 0.50618 0.0
C3936 C 0.00877 0.97537 0.51956 0.0
C3937 C 0.22536 0.73503 0.74791 0.0
C3938 C 0.25092 0.72139 0.74697 0.0
C3939 C 0.22207 0.75876 0.75996 0.0
C3940 C 0.2443 0.76981 0.77135 0.0
H3941 H 0.20768 0.72701 0.73958 0.0
H3942 H 0.20187 0.76842 0.7605 0.0
S3943 S 0.31591 0.74273 0.7729 0.0
N3944 N 0.29916 0.72117 0.75766 0.0
N3945 N 0.29289 0.7659 0.78023 0.0
C3946 C 0.27 0.75649 0.77035 0.0
C3947 C 0.27336 0.73231 0.75813 0.0
C3948 C 0.47132 0.98562 0.51383 0.0
C3949 C 0.47298 0.00145 0.49574 0.0
C3950 C 0.49429 0.98265 0.52672 0.0
C3951 C 0.5195 0.99555 0.52193 0.0
H3952 H 0.45209 0.97552 0.51801 0.0
H3953 H 0.4925 0.96981 0.5403 0.0
S3954 S 0.53408 0.04053 0.47718 0.0
N3955 N 0.50145 0.0311 0.4742 0.0
N3956 N 0.54478 0.02531 0.49845 0.0
C3957 C 0.52138 0.01162 0.50405 0.0
C3958 C 0.49805 0.01461 0.49091 0.0
C3959 C 0.22242 0.23814 0.74913 0.0
C3960 C 0.24457 0.22034 0.74459 0.0
C3961 C 0.22615 0.26079 0.76218 0.0
C3962 C 0.25208 0.26591 0.77098 0.0
H3963 H 0.20208 0.23425 0.74275 0.0
H3964 H 0.20888 0.27443 0.76528 0.0
S3965 S 0.31605 0.22485 0.76444 0.0
N3966 N 0.29278 0.20879 0.75016 0.0
N3967 N 0.29997 0.25164 0.7747 0.0
C3968 C 0.2743 0.24827 0.76658 0.0
C3969 C 0.2705 0.22533 0.75331 0.0
C3970 C 0.98688 0.02189 0.01382 0.0
C3971 C 0.97295 -0.00097 0.02247 0.0
C3972 C 0.00927 0.01812 1.00053 0.0
C3973 C 0.01831 0.99138 0.99553 0.0
H3974 H 0.98031 0.0428 0.01734 0.0
H3975 H 0.0199 0.03613 0.99444 0.0
S3976 S 0.98773 0.92496 0.01303 0.0
N3977 N 0.96896 0.94901 0.02441 0.0
N3978 N 0.01123 0.94178 0.99945 0.0
C3979 C 0.00439 0.96841 1.00388 0.0
C3980 C 0.98168 0.97227 0.01741 0.0
C3981 C 0.26756 0.75446 0.25448 0.0
C3982 C 0.24523 0.77178 0.24945 0.0
C3983 C 0.2639 0.73183 0.26758 0.0
C3984 C 0.23786 0.7261 0.27603 0.0
H3985 H 0.28792 0.75842 0.24816 0.0
H3986 H 0.28127 0.71828 0.27066 0.0
S3987 S 0.17344 0.76621 0.26855 0.0
N3988 N 0.19676 0.78264 0.25453 0.0
N3989 N 0.18968 0.73968 0.27911 0.0
C3990 C 0.21551 0.74351 0.2714 0.0
C3991 C 0.21925 0.76652 0.25806 0.0
C3992 C 0.72191 0.72806 0.76345 0.0
C3993 C 0.74875 0.72205 0.77017 0.0
C3994 C 0.71746 0.74919 0.74922 0.0
C3995 C 0.73979 0.76456 0.74137 0.0
H3996 H 0.70445 0.71608 0.76896 0.0
H3997 H 0.69647 0.75387 0.74454 0.0
S3998 S 0.81366 0.75742 0.75512 0.0
N3999 N 0.79773 0.73321 0.76863 0.0
N4000 N 0.78924 0.77325 0.74186 0.0
C4001 C 0.76664 0.75875 0.74808 0.0
C4002 C 0.77116 0.73739 0.76257 0.0
C4003 C 0.73067 0.24077 0.27876 0.0
C4004 C 0.74158 0.26684 0.27368 0.0
C4005 C 0.73328 0.21841 0.26516 0.0
C4006 C 0.74654 0.22171 0.24606 0.0
H4007 H 0.71957 0.23785 0.29304 0.0
H4008 H 0.72485 0.19844 0.26951 0.0
S4009 S 0.78027 0.28541 0.22655 0.0
N4010 N 0.76738 0.29439 0.24901 0.0
N4011 N 0.77199 0.25247 0.22341 0.0
C4012 C 0.75788 0.24756 0.24107 0.0
C4013 C 0.75551 0.27011 0.25492 0.0
C4014 C 0.74495 0.76861 0.25474 0.0
C4015 C 0.75389 0.76711 0.27524 0.0
C4016 C 0.74262 0.74492 0.24271 0.0
C4017 C 0.74894 0.71872 0.25074 0.0
H4018 H 0.73968 0.78838 0.24789 0.0
H4019 H 0.73511 0.74712 0.22714 0.0
S4020 S 0.77295 0.70331 0.30356 0.0
N4021 N 0.76902 0.7373 0.30315 0.0
N4022 N 0.76438 0.69235 0.28042 0.0
C4023 C 0.75764 0.71674 0.27128 0.0
C4024 C 0.76008 0.74102 0.2836 0.0
C4025 C 0.7369 0.2441 0.77768 0.0
C4026 C 0.74555 0.21795 0.77089 0.0
C4027 C 0.73994 0.26751 0.76517 0.0
C4028 C 0.7518 0.26559 0.74548 0.0
H4029 H 0.72706 0.24637 0.79251 0.0
H4030 H 0.73279 0.28731 0.77091 0.0
S4031 S 0.77932 0.20198 0.72123 0.0
N4032 N 0.76745 0.1915 0.74368 0.0
N4033 N 0.7733 0.23562 0.7202 0.0
C4034 C 0.76085 0.2396 0.73864 0.0
C4035 C 0.75777 0.21578 0.75137 0.0
C4036 C 0.01323 0.47216 0.5038 0.0
C4037 C 0.01939 0.49885 0.49668 0.0
C4038 C 0.99154 0.46801 0.51764 0.0
C4039 C 0.97574 0.4905 0.52472 0.0
H4040 H 0.02545 0.45459 0.49887 0.0
H4041 H 0.98678 0.44712 0.52264 0.0
S4042 S 0.98303 0.56401 0.50965 0.0
N4043 N 0.00781 0.54784 0.49701 0.0
N4044 N 0.96685 0.53988 0.52306 0.0
C4045 C 0.98168 0.51717 0.51761 0.0
C4046 C 0.00359 0.52139 0.5035 0.0
C4047 C 0.48592 0.47 1.00525 0.0
C4048 C 0.47338 0.49255 0.99517 0.0
C4049 C 0.50905 0.47386 0.01782 0.0
C4050 C 0.52036 0.50036 0.02055 0.0
H4051 H 0.47776 0.44922 1.00341 0.0
H4052 H 0.51834 0.45604 0.02521 0.0
S4053 S 0.49415 0.56625 0.99868 0.0
N4054 N 0.47322 0.54223 0.98946 0.0
N4055 N 0.51676 0.54963 0.0131 0.0
C4056 C 0.50787 0.52308 0.01073 0.0
C4057 C 0.48439 0.51912 0.99796 0.0
C4058 C 0.99245 0.4724 0.02564 0.0
C4059 C 0.01529 0.49021 0.02398 0.0
C4060 C 0.96957 0.47592 0.01282 0.0
C4061 C 0.96945 0.49708 0.99807 0.0
H4062 H 0.99248 0.4556 0.03668 0.0
H4063 H 0.95189 0.46225 0.01446 0.0
S4064 S 0.02398 0.54941 0.98855 0.0
N4065 N 0.03639 0.52983 1.00718 0.0
N4066 N 0.99325 0.53645 0.98292 0.0
C4067 C 0.9921 0.51503 0.99643 0.0
C4068 C 0.01518 0.51157 0.0095 0.0
C4069 C 0.49394 0.4675 0.50069 0.0
C4070 C 0.5089 0.48971 0.49212 0.0
C4071 C 0.47199 0.47235 0.51416 0.0
C4072 C 0.46455 0.4995 0.51931 0.0
H4073 H 0.49973 0.44631 0.49732 0.0
H4074 H 0.46077 0.45488 0.52053 0.0
S4075 S 0.49811 0.56443 0.50178 0.0
N4076 N 0.51546 0.53949 0.49024 0.0
N4077 N 0.47389 0.54875 0.51539 0.0
C4078 C 0.47924 0.52182 0.51077 0.0
C4079 C 0.5015 0.51687 0.49713 0.0
loop_
_geom_bond_atom_site_label_1
_geom_bond_atom_site_label_2
_geom_bond_distance
_geom_bond_site_symmetry_2
_ccdc_geom_bond_type
Cd0 O57 2.350 . S
Cd0 O58 2.277 . S
Cd0 O65 2.173 . S
Cd0 O67 2.263 . S
Cd0 O69 2.366 . S
Cd0 O72 2.329 . S
C1 O65 1.277 . S
C1 O66 1.230 . S
C2 O3 1.246 . S
C2 C5 1.481 . S
C2 N27 1.329 . S
O3 C2 1.246 . S
Cd4 O66 2.250 . S
Cd4 O68 2.308 . S
Cd4 O71 2.352 . S
C5 C2 1.481 . S
C5 N8 1.327 . S
C5 C9 1.407 . S
C6 C7 1.346 . S
C6 C10 1.390 . S
C6 H74 0.930 . S
C7 C6 1.346 . S
C7 N8 1.342 . S
C7 C12 1.516 . S
N8 C5 1.327 . S
N8 C7 1.342 . S
N8 Co11 1.864 . S
C9 C5 1.407 . S
C9 C10 1.364 . S
C9 H75 0.930 . S
C10 C6 1.390 . S
C10 C9 1.364 . S
C10 H76 0.931 . S
Co11 N8 1.864 . S
Co11 N27 1.955 . S
Co11 N28 1.958 . S
Co11 N29 1.953 . S
Co11 N47 1.869 . S
Co11 N53 1.974 1_545 S
C12 C7 1.516 . S
C12 O13 1.238 . S
C12 N28 1.324 . S
O13 C12 1.238 . S
C14 C15 1.394 . S
C14 C19 1.395 1_545 S
C14 N28 1.427 . S
C15 C14 1.394 . S
C15 C16 1.380 . S
C15 H77 0.929 . S
C16 C15 1.380 . S
C16 C17 1.384 1_545 S
C16 C20 1.495 . S
C17 C16 1.384 1_565 S
C17 C18 1.382 . S
C17 H78 0.930 . S
C18 C17 1.382 . S
C18 C19 1.398 . S
C19 C14 1.395 1_565 S
C19 C18 1.398 . S
C19 H79 0.930 . S
C20 C16 1.495 . S
C20 O67 1.258 . S
C20 O68 1.274 . S
C21 C22 1.385 . S
C21 C23 1.381 . S
C21 N27 1.432 . S
C22 C21 1.385 . S
C22 C26 1.388 . S
C22 H80 0.929 . S
C23 C21 1.381 . S
C23 C24 1.371 . S
C23 H81 0.932 . S
C24 C23 1.371 . S
C24 C25 1.400 . S
C25 C24 1.400 . S
C25 C26 1.351 . S
C25 H82 0.930 . S
C26 C22 1.388 . S
C26 C25 1.351 . S
N27 C2 1.329 . S
N27 Co11 1.955 . S
N27 C21 1.432 . S
N28 Co11 1.958 . S
N28 C12 1.324 . S
N28 C14 1.427 . S
N29 Co11 1.953 . S
N29 C30 1.436 . S
N29 C56 1.316 . S
C30 N29 1.436 . S
C30 C31 1.421 . S
C30 C32 1.360 . S
C31 C30 1.421 . S
C31 C33 1.379 . S
C31 H34 0.929 . S
C32 C30 1.360 . S
C32 C36 1.393 . S
C32 H38 0.931 . S
C33 C31 1.379 . S
C33 C35 1.417 . S
C33 C37 1.505 . S
H34 C31 0.929 . S
C35 C33 1.417 . S
C35 C36 1.352 . S
C35 H39 0.929 . S
C36 C32 1.393 . S
C36 C35 1.352 . S
C36 C40 1.482 . S
C37 C33 1.505 . S
C37 O41 1.259 . S
C37 O42 1.229 . S
H38 C32 0.931 . S
H39 C35 0.929 . S
C40 C36 1.482 . S
C40 O43 1.207 . S
C40 O44 1.289 . S
O41 C37 1.259 . S
O41 H45 0.822 . S
O42 C37 1.229 . S
O43 C40 1.207 . S
O44 C40 1.289 . S
O44 H46 0.819 . S
H45 O41 0.822 . S
H46 O44 0.819 . S
N47 Co11 1.869 . S
N47 C48 1.330 1_545 S
N47 C52 1.325 . S
C48 N47 1.330 1_565 S
C48 C49 1.359 . S
C48 C54 1.504 . S
C49 C48 1.359 . S
C49 C50 1.366 . S
C49 H83 0.929 . S
C50 C49 1.366 . S
C50 C51 1.415 1_565 S
C50 H84 0.932 . S
C51 C50 1.415 1_545 S
C51 C52 1.366 . S
C51 H85 0.931 . S
C52 N47 1.325 . S
C52 C51 1.366 . S
C52 C56 1.516 . S
N53 Co11 1.974 1_565 S
N53 C54 1.309 . S
N53 C59 1.423 . S
C54 C48 1.504 . S
C54 N53 1.309 . S
C54 O55 1.258 . S
O55 C54 1.258 . S
C56 N29 1.316 . S
C56 C52 1.516 . S
C56 O69 1.263 . S
O57 Cd0 2.350 . S
O57 C73 1.270 . S
O58 Cd0 2.277 . S
O58 C73 1.248 . S
C59 N53 1.423 . S
C59 C60 1.370 . S
C59 C64 1.403 . S
C60 C59 1.370 . S
C60 C61 1.389 . S
C60 H86 0.931 . S
C61 C60 1.389 . S
C61 C62 1.389 . S
C62 C61 1.389 . S
C62 C63 1.379 . S
C62 H87 0.929 . S
C63 C62 1.379 . S
C63 C64 1.405 . S
C64 C59 1.403 . S
C64 C63 1.405 . S
C64 H88 0.932 . S
O65 Cd0 2.173 . S
O65 C1 1.277 . S
O66 C1 1.230 . S
O66 Cd4 2.250 . S
O67 Cd0 2.263 . S
O67 C20 1.258 . S
O68 Cd4 2.308 . S
O68 C20 1.274 . S
O69 Cd0 2.366 . S
O69 C56 1.263 . S
C70 O71 1.235 . S
C70 O72 1.270 . S
O71 Cd4 2.352 . S
O71 C70 1.235 . S
O72 Cd0 2.329 . S
O72 C70 1.270 . S
C73 O57 1.270 . S
C73 O58 1.248 . S
H74 C6 0.930 . S
H75 C9 0.930 . S
H76 C10 0.931 . S
H77 C15 0.929 . S
H78 C17 0.930 . S
H79 C19 0.930 . S
H80 C22 0.929 . S
H81 C23 0.932 . S
H82 C25 0.930 . S
H83 C49 0.929 . S
H84 C50 0.932 . S
H85 C51 0.931 . S
H86 C60 0.931 . S
H87 C62 0.929 . S
H88 C64 0.932 . S
Cd89 O146 2.350 . S
Cd89 O147 2.277 . S
Cd89 O154 2.173 . S
Cd89 O156 2.263 . S
Cd89 O158 2.366 . S
Cd89 O161 2.329 . S
C90 O154 1.277 . S
C90 O155 1.230 . S
C91 O92 1.246 . S
C91 C94 1.481 . S
C91 N116 1.329 . S
O92 C91 1.246 . S
Cd93 O155 2.250 . S
Cd93 O157 2.308 . S
Cd93 O160 2.352 . S
C94 C91 1.481 . S
C94 N97 1.327 . S
C94 C98 1.407 . S
C95 C96 1.346 . S
C95 C99 1.390 . S
C95 H163 0.930 . S
C96 C95 1.346 . S
C96 N97 1.342 . S
C96 C101 1.516 . S
N97 C94 1.327 . S
N97 C96 1.342 . S
N97 Co100 1.864 . S
C98 C94 1.407 . S
C98 C99 1.364 . S
C98 H164 0.930 . S
C99 C95 1.390 . S
C99 C98 1.364 . S
C99 H165 0.931 . S
Co100 N97 1.864 . S
Co100 N116 1.955 . S
Co100 N117 1.958 . S
Co100 N118 1.953 . S
Co100 N136 1.869 . S
Co100 N142 1.974 . S
C101 C96 1.516 . S
C101 O102 1.238 . S
C101 N117 1.324 . S
O102 C101 1.238 . S
C103 C104 1.394 . S
C103 C108 1.395 . S
C103 N117 1.427 . S
C104 C103 1.394 . S
C104 C105 1.380 . S
C104 H166 0.929 . S
C105 C104 1.380 . S
C105 C106 1.384 . S
C105 C109 1.495 . S
C106 C105 1.384 . S
C106 C107 1.382 . S
C106 H167 0.930 . S
C107 C106 1.382 . S
C107 C108 1.398 . S
C108 C103 1.395 . S
C108 C107 1.398 . S
C108 H168 0.930 . S
C109 C105 1.495 . S
C109 O156 1.258 . S
C109 O157 1.274 . S
C110 C111 1.385 . S
C110 C112 1.381 . S
C110 N116 1.432 . S
C111 C110 1.385 . S
C111 C115 1.388 . S
C111 H169 0.929 . S
C112 C110 1.381 . S
C112 C113 1.371 . S
C112 H170 0.932 . S
C113 C112 1.371 . S
C113 C114 1.400 . S
C114 C113 1.400 . S
C114 C115 1.351 . S
C114 H171 0.930 . S
C115 C111 1.388 . S
C115 C114 1.351 . S
N116 C91 1.329 . S
N116 Co100 1.955 . S
N116 C110 1.432 . S
N117 Co100 1.958 . S
N117 C101 1.324 . S
N117 C103 1.427 . S
N118 Co100 1.953 . S
N118 C119 1.436 . S
N118 C145 1.316 . S
C119 N118 1.436 . S
C119 C120 1.421 . S
C119 C121 1.360 . S
C120 C119 1.421 . S
C120 C122 1.379 . S
C120 H123 0.929 . S
C121 C119 1.360 . S
C121 C125 1.393 . S
C121 H127 0.931 . S
C122 C120 1.379 . S
C122 C124 1.417 . S
C122 C126 1.505 . S
H123 C120 0.929 . S
C124 C122 1.417 . S
C124 C125 1.352 . S
C124 H128 0.929 . S
C125 C121 1.393 . S
C125 C124 1.352 . S
C125 C129 1.482 . S
C126 C122 1.505 . S
C126 O130 1.259 . S
C126 O131 1.229 . S
H127 C121 0.931 . S
H128 C124 0.929 . S
C129 C125 1.482 . S
C129 O132 1.207 . S
C129 O133 1.289 . S
O130 C126 1.259 . S
O130 H134 0.822 . S
O131 C126 1.229 . S
O132 C129 1.207 . S
O133 C129 1.289 . S
O133 H135 0.819 . S
H134 O130 0.822 . S
H135 O133 0.819 . S
N136 Co100 1.869 . S
N136 C137 1.330 . S
N136 C141 1.325 . S
C137 N136 1.330 . S
C137 C138 1.359 . S
C137 C143 1.504 . S
C138 C137 1.359 . S
C138 C139 1.366 . S
C138 H172 0.929 . S
C139 C138 1.366 . S
C139 C140 1.415 . S
C139 H173 0.932 . S
C140 C139 1.415 . S
C140 C141 1.366 . S
C140 H174 0.931 . S
C141 N136 1.325 . S
C141 C140 1.366 . S
C141 C145 1.516 . S
N142 Co100 1.974 . S
N142 C143 1.309 . S
N142 C148 1.423 . S
C143 C137 1.504 . S
C143 N142 1.309 . S
C143 O144 1.258 . S
O144 C143 1.258 . S
C145 N118 1.316 . S
C145 C141 1.516 . S
C145 O158 1.263 . S
O146 Cd89 2.350 . S
O146 C162 1.270 . S
O147 Cd89 2.277 . S
O147 C162 1.248 . S
C148 N142 1.423 . S
C148 C149 1.370 . S
C148 C153 1.403 . S
C149 C148 1.370 . S
C149 C150 1.389 . S
C149 H175 0.931 . S
C150 C149 1.389 . S
C150 C151 1.389 . S
C151 C150 1.389 . S
C151 C152 1.379 . S
C151 H176 0.929 . S
C152 C151 1.379 . S
C152 C153 1.405 . S
C153 C148 1.403 . S
C153 C152 1.405 . S
C153 H177 0.932 . S
O154 Cd89 2.173 . S
O154 C90 1.277 . S
O155 C90 1.230 . S
O155 Cd93 2.250 . S
O156 Cd89 2.263 . S
O156 C109 1.258 . S
O157 Cd93 2.308 . S
O157 C109 1.274 . S
O158 Cd89 2.366 . S
O158 C145 1.263 . S
C159 O160 1.235 . S
C159 O161 1.270 . S
O160 Cd93 2.352 . S
O160 C159 1.235 . S
O161 Cd89 2.329 . S
O161 C159 1.270 . S
C162 O146 1.270 . S
C162 O147 1.248 . S
H163 C95 0.930 . S
H164 C98 0.930 . S
H165 C99 0.931 . S
H166 C104 0.929 . S
H167 C106 0.930 . S
H168 C108 0.930 . S
H169 C111 0.929 . S
H170 C112 0.932 . S
H171 C114 0.930 . S
H172 C138 0.929 . S
H173 C139 0.932 . S
H174 C140 0.931 . S
H175 C149 0.931 . S
H176 C151 0.929 . S
H177 C153 0.932 . S
Cd178 O235 2.350 . S
Cd178 O236 2.277 . S
Cd178 O243 2.173 . S
Cd178 O245 2.263 . S
Cd178 O247 2.366 . S
Cd178 O250 2.329 . S
C179 O243 1.277 . S
C179 O244 1.230 . S
C180 O181 1.246 . S
C180 C183 1.481 . S
C180 N205 1.329 . S
O181 C180 1.246 . S
Cd182 O244 2.250 . S
Cd182 O246 2.308 . S
Cd182 O249 2.352 . S
C183 C180 1.481 . S
C183 N186 1.327 . S
C183 C187 1.407 . S
C184 C185 1.346 . S
C184 C188 1.390 . S
C184 H252 0.930 . S
C185 C184 1.346 . S
C185 N186 1.342 . S
C185 C190 1.516 . S
N186 C183 1.327 . S
N186 C185 1.342 . S
N186 Co189 1.864 . S
C187 C183 1.407 . S
C187 C188 1.364 . S
C187 H253 0.930 . S
C188 C184 1.390 . S
C188 C187 1.364 . S
C188 H254 0.931 . S
Co189 N186 1.864 . S
Co189 N205 1.955 . S
Co189 N206 1.958 . S
Co189 N207 1.953 . S
Co189 N225 1.869 . S
Co189 N231 1.974 1_565 S
C190 C185 1.516 . S
C190 O191 1.238 . S
C190 N206 1.324 . S
O191 C190 1.238 . S
C192 C193 1.394 . S
C192 C197 1.395 1_565 S
C192 N206 1.427 . S
C193 C192 1.394 . S
C193 C194 1.380 . S
C193 H255 0.929 . S
C194 C193 1.380 . S
C194 C195 1.384 1_565 S
C194 C198 1.495 . S
C195 C194 1.384 1_545 S
C195 C196 1.382 . S
C195 H256 0.930 . S
C196 C195 1.382 . S
C196 C197 1.398 . S
C197 C192 1.395 1_545 S
C197 C196 1.398 . S
C197 H257 0.930 . S
C198 C194 1.495 . S
C198 O245 1.258 . S
C198 O246 1.274 . S
C199 C200 1.385 . S
C199 C201 1.381 . S
C199 N205 1.432 . S
C200 C199 1.385 . S
C200 C204 1.388 1_455 S
C200 H258 0.929 . S
C201 C199 1.381 . S
C201 C202 1.371 1_455 S
C201 H259 0.932 . S
C202 C201 1.371 1_655 S
C202 C203 1.400 . S
C203 C202 1.400 . S
C203 C204 1.351 . S
C203 H260 0.930 . S
C204 C200 1.388 1_655 S
C204 C203 1.351 . S
N205 C180 1.329 . S
N205 Co189 1.955 . S
N205 C199 1.432 . S
N206 Co189 1.958 . S
N206 C190 1.324 . S
N206 C192 1.427 . S
N207 Co189 1.953 . S
N207 C208 1.436 . S
N207 C234 1.316 . S
C208 N207 1.436 . S
C208 C209 1.421 . S
C208 C210 1.360 . S
C209 C208 1.421 . S
C209 C211 1.379 . S
C209 H212 0.929 . S
C210 C208 1.360 . S
C210 C214 1.393 . S
C210 H216 0.931 . S
C211 C209 1.379 . S
C211 C213 1.417 . S
C211 C215 1.505 . S
H212 C209 0.929 . S
C213 C211 1.417 . S
C213 C214 1.352 . S
C213 H217 0.929 . S
C214 C210 1.393 . S
C214 C213 1.352 . S
C214 C218 1.482 . S
C215 C211 1.505 . S
C215 O219 1.259 . S
C215 O220 1.229 . S
H216 C210 0.931 . S
H217 C213 0.929 . S
C218 C214 1.482 . S
C218 O221 1.207 . S
C218 O222 1.289 . S
O219 C215 1.259 . S
O219 H223 0.822 . S
O220 C215 1.229 . S
O221 C218 1.207 . S
O222 C218 1.289 . S
O222 H224 0.819 . S
H223 O219 0.822 . S
H224 O222 0.819 . S
N225 Co189 1.869 . S
N225 C226 1.330 1_565 S
N225 C230 1.325 . S
C226 N225 1.330 1_545 S
C226 C227 1.359 . S
C226 C232 1.504 . S
C227 C226 1.359 . S
C227 C228 1.366 . S
C227 H261 0.929 . S
C228 C227 1.366 . S
C228 C229 1.415 1_545 S
C228 H262 0.932 . S
C229 C228 1.415 1_565 S
C229 C230 1.366 . S
C229 H263 0.931 . S
C230 N225 1.325 . S
C230 C229 1.366 . S
C230 C234 1.516 . S
N231 Co189 1.974 1_545 S
N231 C232 1.309 . S
N231 C237 1.423 . S
C232 C226 1.504 . S
C232 N231 1.309 . S
C232 O233 1.258 . S
O233 C232 1.258 . S
C234 N207 1.316 . S
C234 C230 1.516 . S
C234 O247 1.263 . S
O235 Cd178 2.350 . S
O235 C251 1.270 . S
O236 Cd178 2.277 . S
O236 C251 1.248 . S
C237 N231 1.423 . S
C237 C238 1.370 . S
C237 C242 1.403 . S
C238 C237 1.370 . S
C238 C239 1.389 . S
C238 H264 0.931 . S
C239 C238 1.389 . S
C239 C240 1.389 . S
C240 C239 1.389 . S
C240 C241 1.379 . S
C240 H265 0.929 . S
C241 C240 1.379 . S
C241 C242 1.405 . S
C242 C237 1.403 . S
C242 C241 1.405 . S
C242 H266 0.932 . S
O243 Cd178 2.173 . S
O243 C179 1.277 . S
O244 C179 1.230 . S
O244 Cd182 2.250 . S
O245 Cd178 2.263 . S
O245 C198 1.258 . S
O246 Cd182 2.308 . S
O246 C198 1.274 . S
O247 Cd178 2.366 . S
O247 C234 1.263 . S
C248 O249 1.235 . S
C248 O250 1.270 . S
O249 Cd182 2.352 . S
O249 C248 1.235 . S
O250 Cd178 2.329 . S
O250 C248 1.270 . S
C251 O235 1.270 . S
C251 O236 1.248 . S
H252 C184 0.930 . S
H253 C187 0.930 . S
H254 C188 0.931 . S
H255 C193 0.929 . S
H256 C195 0.930 . S
H257 C197 0.930 . S
H258 C200 0.929 . S
H259 C201 0.932 . S
H260 C203 0.930 . S
H261 C227 0.929 . S
H262 C228 0.932 . S
H263 C229 0.931 . S
H264 C238 0.931 . S
H265 C240 0.929 . S
H266 C242 0.932 . S
Cd267 O324 2.350 . S
Cd267 O325 2.277 . S
Cd267 O332 2.173 . S
Cd267 O334 2.263 . S
Cd267 O336 2.366 . S
Cd267 O339 2.329 . S
C268 O332 1.277 . S
C268 O333 1.230 . S
C269 O270 1.246 . S
C269 C272 1.481 . S
C269 N294 1.329 . S
O270 C269 1.246 . S
Cd271 O333 2.250 . S
Cd271 O335 2.308 . S
Cd271 O338 2.352 . S
C272 C269 1.481 . S
C272 N275 1.327 . S
C272 C276 1.407 . S
C273 C274 1.346 . S
C273 C277 1.390 . S
C273 H341 0.930 . S
C274 C273 1.346 . S
C274 N275 1.342 . S
C274 C279 1.516 . S
N275 C272 1.327 . S
N275 C274 1.342 . S
N275 Co278 1.864 . S
C276 C272 1.407 . S
C276 C277 1.364 . S
C276 H342 0.930 . S
C277 C273 1.390 . S
C277 C276 1.364 . S
C277 H343 0.931 . S
Co278 N275 1.864 . S
Co278 N294 1.955 . S
Co278 N295 1.958 . S
Co278 N296 1.953 . S
Co278 N314 1.869 . S
Co278 N320 1.974 . S
C279 C274 1.516 . S
C279 O280 1.238 . S
C279 N295 1.324 . S
O280 C279 1.238 . S
C281 C282 1.394 . S
C281 C286 1.395 . S
C281 N295 1.427 . S
C282 C281 1.394 . S
C282 C283 1.380 . S
C282 H344 0.929 . S
C283 C282 1.380 . S
C283 C284 1.384 . S
C283 C287 1.495 . S
C284 C283 1.384 . S
C284 C285 1.382 . S
C284 H345 0.930 . S
C285 C284 1.382 . S
C285 C286 1.398 . S
C286 C281 1.395 . S
C286 C285 1.398 . S
C286 H346 0.930 . S
C287 C283 1.495 . S
C287 O334 1.258 . S
C287 O335 1.274 . S
C288 C289 1.385 . S
C288 C290 1.381 . S
C288 N294 1.432 . S
C289 C288 1.385 . S
C289 C293 1.388 . S
C289 H347 0.929 . S
C290 C288 1.381 . S
C290 C291 1.371 . S
C290 H348 0.932 . S
C291 C290 1.371 . S
C291 C292 1.400 . S
C292 C291 1.400 . S
C292 C293 1.351 . S
C292 H349 0.930 . S
C293 C289 1.388 . S
C293 C292 1.351 . S
N294 C269 1.329 . S
N294 Co278 1.955 . S
N294 C288 1.432 . S
N295 Co278 1.958 . S
N295 C279 1.324 . S
N295 C281 1.427 . S
N296 Co278 1.953 . S
N296 C297 1.436 . S
N296 C323 1.316 . S
C297 N296 1.436 . S
C297 C298 1.421 . S
C297 C299 1.360 . S
C298 C297 1.421 . S
C298 C300 1.379 . S
C298 H301 0.929 . S
C299 C297 1.360 . S
C299 C303 1.393 . S
C299 H305 0.931 . S
C300 C298 1.379 . S
C300 C302 1.417 . S
C300 C304 1.505 . S
H301 C298 0.929 . S
C302 C300 1.417 . S
C302 C303 1.352 . S
C302 H306 0.929 . S
C303 C299 1.393 . S
C303 C302 1.352 . S
C303 C307 1.482 . S
C304 C300 1.505 . S
C304 O308 1.259 . S
C304 O309 1.229 . S
H305 C299 0.931 . S
H306 C302 0.929 . S
C307 C303 1.482 . S
C307 O310 1.207 . S
C307 O311 1.289 . S
O308 C304 1.259 . S
O308 H312 0.822 . S
O309 C304 1.229 . S
O310 C307 1.207 . S
O311 C307 1.289 . S
O311 H313 0.819 . S
H312 O308 0.822 . S
H313 O311 0.819 . S
N314 Co278 1.869 . S
N314 C315 1.330 . S
N314 C319 1.325 . S
C315 N314 1.330 . S
C315 C316 1.359 . S
C315 C321 1.504 . S
C316 C315 1.359 . S
C316 C317 1.366 . S
C316 H350 0.929 . S
C317 C316 1.366 . S
C317 C318 1.415 . S
C317 H351 0.932 . S
C318 C317 1.415 . S
C318 C319 1.366 . S
C318 H352 0.931 . S
C319 N314 1.325 . S
C319 C318 1.366 . S
C319 C323 1.516 . S
N320 Co278 1.974 . S
N320 C321 1.309 . S
N320 C326 1.423 . S
C321 C315 1.504 . S
C321 N320 1.309 . S
C321 O322 1.258 . S
O322 C321 1.258 . S
C323 N296 1.316 . S
C323 C319 1.516 . S
C323 O336 1.263 . S
O324 Cd267 2.350 . S
O324 C340 1.270 . S
O325 Cd267 2.277 . S
O325 C340 1.248 . S
C326 N320 1.423 . S
C326 C327 1.370 . S
C326 C331 1.403 . S
C327 C326 1.370 . S
C327 C328 1.389 . S
C327 H353 0.931 . S
C328 C327 1.389 . S
C328 C329 1.389 . S
C329 C328 1.389 . S
C329 C330 1.379 . S
C329 H354 0.929 . S
C330 C329 1.379 . S
C330 C331 1.405 . S
C331 C326 1.403 . S
C331 C330 1.405 . S
C331 H355 0.932 . S
O332 Cd267 2.173 . S
O332 C268 1.277 . S
O333 C268 1.230 . S
O333 Cd271 2.250 . S
O334 Cd267 2.263 . S
O334 C287 1.258 . S
O335 Cd271 2.308 . S
O335 C287 1.274 . S
O336 Cd267 2.366 . S
O336 C323 1.263 . S
C337 O338 1.235 . S
C337 O339 1.270 . S
O338 Cd271 2.352 . S
O338 C337 1.235 . S
O339 Cd267 2.329 . S
O339 C337 1.270 . S
C340 O324 1.270 . S
C340 O325 1.248 . S
H341 C273 0.930 . S
H342 C276 0.930 . S
H343 C277 0.931 . S
H344 C282 0.929 . S
H345 C284 0.930 . S
H346 C286 0.930 . S
H347 C289 0.929 . S
H348 C290 0.932 . S
H349 C292 0.930 . S
H350 C316 0.929 . S
H351 C317 0.932 . S
H352 C318 0.931 . S
H353 C327 0.931 . S
H354 C329 0.929 . S
H355 C331 0.932 . S
Cd356 O413 2.350 . S
Cd356 O414 2.277 . S
Cd356 O421 2.173 . S
Cd356 O423 2.263 . S
Cd356 O425 2.366 . S
Cd356 O428 2.329 . S
C357 O421 1.277 . S
C357 O422 1.230 . S
C358 O359 1.246 . S
C358 C361 1.481 . S
C358 N383 1.329 . S
O359 C358 1.246 . S
Cd360 O422 2.250 . S
Cd360 O424 2.308 . S
Cd360 O427 2.352 . S
C361 C358 1.481 . S
C361 N364 1.327 . S
C361 C365 1.407 . S
C362 C363 1.346 . S
C362 C366 1.390 . S
C362 H430 0.930 . S
C363 C362 1.346 . S
C363 N364 1.342 . S
C363 C368 1.516 . S
N364 C361 1.327 . S
N364 C363 1.342 . S
N364 Co367 1.864 . S
C365 C361 1.407 . S
C365 C366 1.364 . S
C365 H431 0.930 . S
C366 C362 1.390 . S
C366 C365 1.364 . S
C366 H432 0.931 . S
Co367 N364 1.864 . S
Co367 N383 1.955 . S
Co367 N384 1.958 . S
Co367 N385 1.953 . S
Co367 N403 1.869 . S
Co367 N409 1.974 1_565 S
C368 C363 1.516 . S
C368 O369 1.238 . S
C368 N384 1.324 . S
O369 C368 1.238 . S
C370 C371 1.394 . S
C370 C375 1.395 1_565 S
C370 N384 1.427 . S
C371 C370 1.394 . S
C371 C372 1.380 . S
C371 H433 0.929 . S
C372 C371 1.380 . S
C372 C373 1.384 1_565 S
C372 C376 1.495 . S
C373 C372 1.384 1_545 S
C373 C374 1.382 . S
C373 H434 0.930 . S
C374 C373 1.382 . S
C374 C375 1.398 . S
C375 C370 1.395 1_545 S
C375 C374 1.398 . S
C375 H435 0.930 . S
C376 C372 1.495 . S
C376 O423 1.258 . S
C376 O424 1.274 . S
C377 C378 1.385 . S
C377 C379 1.381 . S
C377 N383 1.432 . S
C378 C377 1.385 . S
C378 C382 1.388 . S
C378 H436 0.929 . S
C379 C377 1.381 . S
C379 C380 1.371 . S
C379 H437 0.932 . S
C380 C379 1.371 . S
C380 C381 1.400 . S
C381 C380 1.400 . S
C381 C382 1.351 . S
C381 H438 0.930 . S
C382 C378 1.388 . S
C382 C381 1.351 . S
N383 C358 1.329 . S
N383 Co367 1.955 . S
N383 C377 1.432 . S
N384 Co367 1.958 . S
N384 C368 1.324 . S
N384 C370 1.427 . S
N385 Co367 1.953 . S
N385 C386 1.436 . S
N385 C412 1.316 . S
C386 N385 1.436 . S
C386 C387 1.421 . S
C386 C388 1.360 . S
C387 C386 1.421 . S
C387 C389 1.379 . S
C387 H390 0.929 . S
C388 C386 1.360 . S
C388 C392 1.393 . S
C388 H394 0.931 . S
C389 C387 1.379 . S
C389 C391 1.417 . S
C389 C393 1.505 . S
H390 C387 0.929 . S
C391 C389 1.417 . S
C391 C392 1.352 . S
C391 H395 0.929 . S
C392 C388 1.393 . S
C392 C391 1.352 . S
C392 C396 1.482 . S
C393 C389 1.505 . S
C393 O397 1.259 . S
C393 O398 1.229 . S
H394 C388 0.931 . S
H395 C391 0.929 . S
C396 C392 1.482 . S
C396 O399 1.207 . S
C396 O400 1.289 . S
O397 C393 1.259 . S
O397 H401 0.822 . S
O398 C393 1.229 . S
O399 C396 1.207 . S
O400 C396 1.289 . S
O400 H402 0.819 . S
H401 O397 0.822 . S
H402 O400 0.819 . S
N403 Co367 1.869 . S
N403 C404 1.330 1_565 S
N403 C408 1.325 . S
C404 N403 1.330 1_545 S
C404 C405 1.359 . S
C404 C410 1.504 . S
C405 C404 1.359 . S
C405 C406 1.366 . S
C405 H439 0.929 . S
C406 C405 1.366 . S
C406 C407 1.415 1_545 S
C406 H440 0.932 . S
C407 C406 1.415 1_565 S
C407 C408 1.366 . S
C407 H441 0.931 . S
C408 N403 1.325 . S
C408 C407 1.366 . S
C408 C412 1.516 . S
N409 Co367 1.974 1_545 S
N409 C410 1.309 . S
N409 C415 1.423 . S
C410 C404 1.504 . S
C410 N409 1.309 . S
C410 O411 1.258 . S
O411 C410 1.258 . S
C412 N385 1.316 . S
C412 C408 1.516 . S
C412 O425 1.263 . S
O413 Cd356 2.350 . S
O413 C429 1.270 . S
O414 Cd356 2.277 . S
O414 C429 1.248 . S
C415 N409 1.423 . S
C415 C416 1.370 . S
C415 C420 1.403 . S
C416 C415 1.370 . S
C416 C417 1.389 . S
C416 H442 0.931 . S
C417 C416 1.389 . S
C417 C418 1.389 . S
C418 C417 1.389 . S
C418 C419 1.379 . S
C418 H443 0.929 . S
C419 C418 1.379 . S
C419 C420 1.405 . S
C420 C415 1.403 . S
C420 C419 1.405 . S
C420 H444 0.932 . S
O421 Cd356 2.173 . S
O421 C357 1.277 . S
O422 C357 1.230 . S
O422 Cd360 2.250 . S
O423 Cd356 2.263 . S
O423 C376 1.258 . S
O424 Cd360 2.308 . S
O424 C376 1.274 . S
O425 Cd356 2.366 . S
O425 C412 1.263 . S
C426 O427 1.235 . S
C426 O428 1.270 . S
O427 Cd360 2.352 . S
O427 C426 1.235 . S
O428 Cd356 2.329 . S
O428 C426 1.270 . S
C429 O413 1.270 . S
C429 O414 1.248 . S
H430 C362 0.930 . S
H431 C365 0.930 . S
H432 C366 0.931 . S
H433 C371 0.929 . S
H434 C373 0.930 . S
H435 C375 0.930 . S
H436 C378 0.929 . S
H437 C379 0.932 . S
H438 C381 0.930 . S
H439 C405 0.929 . S
H440 C406 0.932 . S
H441 C407 0.931 . S
H442 C416 0.931 . S
H443 C418 0.929 . S
H444 C420 0.932 . S
Cd445 O502 2.350 . S
Cd445 O503 2.277 . S
Cd445 O510 2.173 . S
Cd445 O512 2.263 . S
Cd445 O514 2.366 . S
Cd445 O517 2.329 . S
C446 O510 1.277 . S
C446 O511 1.230 . S
C447 O448 1.246 . S
C447 C450 1.481 . S
C447 N472 1.329 . S
O448 C447 1.246 . S
Cd449 O511 2.250 . S
Cd449 O513 2.308 . S
Cd449 O516 2.352 . S
C450 C447 1.481 . S
C450 N453 1.327 . S
C450 C454 1.407 . S
C451 C452 1.346 . S
C451 C455 1.390 . S
C451 H519 0.930 . S
C452 C451 1.346 . S
C452 N453 1.342 . S
C452 C457 1.516 . S
N453 C450 1.327 . S
N453 C452 1.342 . S
N453 Co456 1.864 . S
C454 C450 1.407 . S
C454 C455 1.364 . S
C454 H520 0.930 . S
C455 C451 1.390 . S
C455 C454 1.364 . S
C455 H521 0.931 . S
Co456 N453 1.864 . S
Co456 N472 1.955 . S
Co456 N473 1.958 . S
Co456 N474 1.953 . S
Co456 N492 1.869 . S
Co456 N498 1.974 . S
C457 C452 1.516 . S
C457 O458 1.238 . S
C457 N473 1.324 . S
O458 C457 1.238 . S
C459 C460 1.394 . S
C459 C464 1.395 . S
C459 N473 1.427 . S
C460 C459 1.394 . S
C460 C461 1.380 . S
C460 H522 0.929 . S
C461 C460 1.380 . S
C461 C462 1.384 . S
C461 C465 1.495 . S
C462 C461 1.384 . S
C462 C463 1.382 . S
C462 H523 0.930 . S
C463 C462 1.382 . S
C463 C464 1.398 . S
C464 C459 1.395 . S
C464 C463 1.398 . S
C464 H524 0.930 . S
C465 C461 1.495 . S
C465 O512 1.258 . S
C465 O513 1.274 . S
C466 C467 1.385 . S
C466 C468 1.381 . S
C466 N472 1.432 . S
C467 C466 1.385 . S
C467 C471 1.388 . S
C467 H525 0.929 . S
C468 C466 1.381 . S
C468 C469 1.371 . S
C468 H526 0.932 . S
C469 C468 1.371 . S
C469 C470 1.400 . S
C470 C469 1.400 . S
C470 C471 1.351 . S
C470 H527 0.930 . S
C471 C467 1.388 . S
C471 C470 1.351 . S
N472 C447 1.329 . S
N472 Co456 1.955 . S
N472 C466 1.432 . S
N473 Co456 1.958 . S
N473 C457 1.324 . S
N473 C459 1.427 . S
N474 Co456 1.953 . S
N474 C475 1.436 . S
N474 C501 1.316 . S
C475 N474 1.436 . S
C475 C476 1.421 . S
C475 C477 1.360 . S
C476 C475 1.421 . S
C476 C478 1.379 . S
C476 H479 0.929 . S
C477 C475 1.360 . S
C477 C481 1.393 . S
C477 H483 0.931 . S
C478 C476 1.379 . S
C478 C480 1.417 . S
C478 C482 1.505 . S
H479 C476 0.929 . S
C480 C478 1.417 . S
C480 C481 1.352 . S
C480 H484 0.929 . S
C481 C477 1.393 . S
C481 C480 1.352 . S
C481 C485 1.482 . S
C482 C478 1.505 . S
C482 O486 1.259 . S
C482 O487 1.229 . S
H483 C477 0.931 . S
H484 C480 0.929 . S
C485 C481 1.482 . S
C485 O488 1.207 . S
C485 O489 1.289 . S
O486 C482 1.259 . S
O486 H490 0.822 . S
O487 C482 1.229 . S
O488 C485 1.207 . S
O489 C485 1.289 . S
O489 H491 0.819 . S
H490 O486 0.822 . S
H491 O489 0.819 . S
N492 Co456 1.869 . S
N492 C493 1.330 . S
N492 C497 1.325 . S
C493 N492 1.330 . S
C493 C494 1.359 . S
C493 C499 1.504 . S
C494 C493 1.359 . S
C494 C495 1.366 . S
C494 H528 0.929 . S
C495 C494 1.366 . S
C495 C496 1.415 . S
C495 H529 0.932 . S
C496 C495 1.415 . S
C496 C497 1.366 . S
C496 H530 0.931 . S
C497 N492 1.325 . S
C497 C496 1.366 . S
C497 C501 1.516 . S
N498 Co456 1.974 . S
N498 C499 1.309 . S
N498 C504 1.423 . S
C499 C493 1.504 . S
C499 N498 1.309 . S
C499 O500 1.258 . S
O500 C499 1.258 . S
C501 N474 1.316 . S
C501 C497 1.516 . S
C501 O514 1.263 . S
O502 Cd445 2.350 . S
O502 C518 1.270 . S
O503 Cd445 2.277 . S
O503 C518 1.248 . S
C504 N498 1.423 . S
C504 C505 1.370 . S
C504 C509 1.403 . S
C505 C504 1.370 . S
C505 C506 1.389 . S
C505 H531 0.931 . S
C506 C505 1.389 . S
C506 C507 1.389 . S
C507 C506 1.389 . S
C507 C508 1.379 . S
C507 H532 0.929 . S
C508 C507 1.379 . S
C508 C509 1.405 . S
C509 C504 1.403 . S
C509 C508 1.405 . S
C509 H533 0.932 . S
O510 Cd445 2.173 . S
O510 C446 1.277 . S
O511 C446 1.230 . S
O511 Cd449 2.250 . S
O512 Cd445 2.263 . S
O512 C465 1.258 . S
O513 Cd449 2.308 . S
O513 C465 1.274 . S
O514 Cd445 2.366 . S
O514 C501 1.263 . S
C515 O516 1.235 . S
C515 O517 1.270 . S
O516 Cd449 2.352 . S
O516 C515 1.235 . S
O517 Cd445 2.329 . S
O517 C515 1.270 . S
C518 O502 1.270 . S
C518 O503 1.248 . S
H519 C451 0.930 . S
H520 C454 0.930 . S
H521 C455 0.931 . S
H522 C460 0.929 . S
H523 C462 0.930 . S
H524 C464 0.930 . S
H525 C467 0.929 . S
H526 C468 0.932 . S
H527 C470 0.930 . S
H528 C494 0.929 . S
H529 C495 0.932 . S
H530 C496 0.931 . S
H531 C505 0.931 . S
H532 C507 0.929 . S
H533 C509 0.932 . S
Cd534 O591 2.350 . S
Cd534 O592 2.277 . S
Cd534 O599 2.173 . S
Cd534 O601 2.263 . S
Cd534 O603 2.366 . S
Cd534 O606 2.329 . S
C535 O599 1.277 . S
C535 O600 1.230 . S
C536 O537 1.246 . S
C536 C539 1.481 . S
C536 N561 1.329 . S
O537 C536 1.246 . S
Cd538 O600 2.250 . S
Cd538 O602 2.308 . S
Cd538 O605 2.352 . S
C539 C536 1.481 . S
C539 N542 1.327 . S
C539 C543 1.407 . S
C540 C541 1.346 . S
C540 C544 1.390 . S
C540 H608 0.930 . S
C541 C540 1.346 . S
C541 N542 1.342 . S
C541 C546 1.516 . S
N542 C539 1.327 . S
N542 C541 1.342 . S
N542 Co545 1.864 . S
C543 C539 1.407 . S
C543 C544 1.364 . S
C543 H609 0.930 . S
C544 C540 1.390 . S
C544 C543 1.364 . S
C544 H610 0.931 . S
Co545 N542 1.864 . S
Co545 N561 1.955 . S
Co545 N562 1.958 . S
Co545 N563 1.953 . S
Co545 N581 1.869 . S
Co545 N587 1.974 1_545 S
C546 C541 1.516 . S
C546 O547 1.238 . S
C546 N562 1.324 . S
O547 C546 1.238 . S
C548 C549 1.394 . S
C548 C553 1.395 1_545 S
C548 N562 1.427 . S
C549 C548 1.394 . S
C549 C550 1.380 . S
C549 H611 0.929 . S
C550 C549 1.380 . S
C550 C551 1.384 1_545 S
C550 C554 1.495 . S
C551 C550 1.384 1_565 S
C551 C552 1.382 . S
C551 H612 0.930 . S
C552 C551 1.382 . S
C552 C553 1.398 . S
C553 C548 1.395 1_565 S
C553 C552 1.398 . S
C553 H613 0.930 . S
C554 C550 1.495 . S
C554 O601 1.258 . S
C554 O602 1.274 . S
C555 C556 1.385 . S
C555 C557 1.381 . S
C555 N561 1.432 . S
C556 C555 1.385 . S
C556 C560 1.388 1_455 S
C556 H614 0.929 . S
C557 C555 1.381 . S
C557 C558 1.371 1_455 S
C557 H615 0.932 . S
C558 C557 1.371 1_655 S
C558 C559 1.400 . S
C559 C558 1.400 . S
C559 C560 1.351 . S
C559 H616 0.930 . S
C560 C556 1.388 1_655 S
C560 C559 1.351 . S
N561 C536 1.329 . S
N561 Co545 1.955 . S
N561 C555 1.432 . S
N562 Co545 1.958 . S
N562 C546 1.324 . S
N562 C548 1.427 . S
N563 Co545 1.953 . S
N563 C564 1.436 . S
N563 C590 1.316 . S
C564 N563 1.436 . S
C564 C565 1.421 . S
C564 C566 1.360 . S
C565 C564 1.421 . S
C565 C567 1.379 . S
C565 H568 0.929 . S
C566 C564 1.360 . S
C566 C570 1.393 . S
C566 H572 0.931 . S
C567 C565 1.379 . S
C567 C569 1.417 . S
C567 C571 1.505 . S
H568 C565 0.929 . S
C569 C567 1.417 . S
C569 C570 1.352 . S
C569 H573 0.929 . S
C570 C566 1.393 . S
C570 C569 1.352 . S
C570 C574 1.482 . S
C571 C567 1.505 . S
C571 O575 1.259 . S
C571 O576 1.229 . S
H572 C566 0.931 . S
H573 C569 0.929 . S
C574 C570 1.482 . S
C574 O577 1.207 . S
C574 O578 1.289 . S
O575 C571 1.259 . S
O575 H579 0.822 . S
O576 C571 1.229 . S
O577 C574 1.207 . S
O578 C574 1.289 . S
O578 H580 0.819 . S
H579 O575 0.822 . S
H580 O578 0.819 . S
N581 Co545 1.869 . S
N581 C582 1.330 1_545 S
N581 C586 1.325 . S
C582 N581 1.330 1_565 S
C582 C583 1.359 . S
C582 C588 1.504 . S
C583 C582 1.359 . S
C583 C584 1.366 . S
C583 H617 0.929 . S
C584 C583 1.366 . S
C584 C585 1.415 1_565 S
C584 H618 0.932 . S
C585 C584 1.415 1_545 S
C585 C586 1.366 . S
C585 H619 0.931 . S
C586 N581 1.325 . S
C586 C585 1.366 . S
C586 C590 1.516 . S
N587 Co545 1.974 1_565 S
N587 C588 1.309 . S
N587 C593 1.423 . S
C588 C582 1.504 . S
C588 N587 1.309 . S
C588 O589 1.258 . S
O589 C588 1.258 . S
C590 N563 1.316 . S
C590 C586 1.516 . S
C590 O603 1.263 . S
O591 Cd534 2.350 . S
O591 C607 1.270 . S
O592 Cd534 2.277 . S
O592 C607 1.248 . S
C593 N587 1.423 . S
C593 C594 1.370 . S
C593 C598 1.403 . S
C594 C593 1.370 . S
C594 C595 1.389 . S
C594 H620 0.931 . S
C595 C594 1.389 . S
C595 C596 1.389 . S
C596 C595 1.389 . S
C596 C597 1.379 . S
C596 H621 0.929 . S
C597 C596 1.379 . S
C597 C598 1.405 . S
C598 C593 1.403 . S
C598 C597 1.405 . S
C598 H622 0.932 . S
O599 Cd534 2.173 . S
O599 C535 1.277 . S
O600 C535 1.230 . S
O600 Cd538 2.250 . S
O601 Cd534 2.263 . S
O601 C554 1.258 . S
O602 Cd538 2.308 . S
O602 C554 1.274 . S
O603 Cd534 2.366 . S
O603 C590 1.263 . S
C604 O605 1.235 . S
C604 O606 1.270 . S
O605 Cd538 2.352 . S
O605 C604 1.235 . S
O606 Cd534 2.329 . S
O606 C604 1.270 . S
C607 O591 1.270 . S
C607 O592 1.248 . S
H608 C540 0.930 . S
H609 C543 0.930 . S
H610 C544 0.931 . S
H611 C549 0.929 . S
H612 C551 0.930 . S
H613 C553 0.930 . S
H614 C556 0.929 . S
H615 C557 0.932 . S
H616 C559 0.930 . S
H617 C583 0.929 . S
H618 C584 0.932 . S
H619 C585 0.931 . S
H620 C594 0.931 . S
H621 C596 0.929 . S
H622 C598 0.932 . S
Cd623 O680 2.350 . S
Cd623 O681 2.277 . S
Cd623 O688 2.173 . S
Cd623 O690 2.263 . S
Cd623 O692 2.366 . S
Cd623 O695 2.329 . S
C624 O688 1.277 . S
C624 O689 1.230 . S
C625 O626 1.246 . S
C625 C628 1.481 . S
C625 N650 1.329 . S
O626 C625 1.246 . S
Cd627 O689 2.250 . S
Cd627 O691 2.308 . S
Cd627 O694 2.352 . S
C628 C625 1.481 . S
C628 N631 1.327 . S
C628 C632 1.407 . S
C629 C630 1.346 . S
C629 C633 1.390 . S
C629 H697 0.930 . S
C630 C629 1.346 . S
C630 N631 1.342 . S
C630 C635 1.516 . S
N631 C628 1.327 . S
N631 C630 1.342 . S
N631 Co634 1.864 . S
C632 C628 1.407 . S
C632 C633 1.364 . S
C632 H698 0.930 . S
C633 C629 1.390 . S
C633 C632 1.364 . S
C633 H699 0.931 . S
Co634 N631 1.864 . S
Co634 N650 1.955 . S
Co634 N651 1.958 . S
Co634 N652 1.953 . S
Co634 N670 1.869 . S
Co634 N676 1.974 . S
C635 C630 1.516 . S
C635 O636 1.238 . S
C635 N651 1.324 . S
O636 C635 1.238 . S
C637 C638 1.394 . S
C637 C642 1.395 . S
C637 N651 1.427 . S
C638 C637 1.394 . S
C638 C639 1.380 . S
C638 H700 0.929 . S
C639 C638 1.380 . S
C639 C640 1.384 . S
C639 C643 1.495 . S
C640 C639 1.384 . S
C640 C641 1.382 . S
C640 H701 0.930 . S
C641 C640 1.382 . S
C641 C642 1.398 . S
C642 C637 1.395 . S
C642 C641 1.398 . S
C642 H702 0.930 . S
C643 C639 1.495 . S
C643 O690 1.258 . S
C643 O691 1.274 . S
C644 C645 1.385 . S
C644 C646 1.381 . S
C644 N650 1.432 . S
C645 C644 1.385 . S
C645 C649 1.388 . S
C645 H703 0.929 . S
C646 C644 1.381 . S
C646 C647 1.371 . S
C646 H704 0.932 . S
C647 C646 1.371 . S
C647 C648 1.400 . S
C648 C647 1.400 . S
C648 C649 1.351 . S
C648 H705 0.930 . S
C649 C645 1.388 . S
C649 C648 1.351 . S
N650 C625 1.329 . S
N650 Co634 1.955 . S
N650 C644 1.432 . S
N651 Co634 1.958 . S
N651 C635 1.324 . S
N651 C637 1.427 . S
N652 Co634 1.953 . S
N652 C653 1.436 . S
N652 C679 1.316 . S
C653 N652 1.436 . S
C653 C654 1.421 . S
C653 C655 1.360 . S
C654 C653 1.421 . S
C654 C656 1.379 . S
C654 H657 0.929 . S
C655 C653 1.360 . S
C655 C659 1.393 . S
C655 H661 0.931 . S
C656 C654 1.379 . S
C656 C658 1.417 . S
C656 C660 1.505 . S
H657 C654 0.929 . S
C658 C656 1.417 . S
C658 C659 1.352 . S
C658 H662 0.929 . S
C659 C655 1.393 . S
C659 C658 1.352 . S
C659 C663 1.482 . S
C660 C656 1.505 . S
C660 O664 1.259 . S
C660 O665 1.229 . S
H661 C655 0.931 . S
H662 C658 0.929 . S
C663 C659 1.482 . S
C663 O666 1.207 . S
C663 O667 1.289 . S
O664 C660 1.259 . S
O664 H668 0.822 . S
O665 C660 1.229 . S
O666 C663 1.207 . S
O667 C663 1.289 . S
O667 H669 0.819 . S
H668 O664 0.822 . S
H669 O667 0.819 . S
N670 Co634 1.869 . S
N670 C671 1.330 . S
N670 C675 1.325 . S
C671 N670 1.330 . S
C671 C672 1.359 . S
C671 C677 1.504 . S
C672 C671 1.359 . S
C672 C673 1.366 . S
C672 H706 0.929 . S
C673 C672 1.366 . S
C673 C674 1.415 . S
C673 H707 0.932 . S
C674 C673 1.415 . S
C674 C675 1.366 . S
C674 H708 0.931 . S
C675 N670 1.325 . S
C675 C674 1.366 . S
C675 C679 1.516 . S
N676 Co634 1.974 . S
N676 C677 1.309 . S
N676 C682 1.423 . S
C677 C671 1.504 . S
C677 N676 1.309 . S
C677 O678 1.258 . S
O678 C677 1.258 . S
C679 N652 1.316 . S
C679 C675 1.516 . S
C679 O692 1.263 . S
O680 Cd623 2.350 . S
O680 C696 1.270 . S
O681 Cd623 2.277 . S
O681 C696 1.248 . S
C682 N676 1.423 . S
C682 C683 1.370 . S
C682 C687 1.403 . S
C683 C682 1.370 . S
C683 C684 1.389 . S
C683 H709 0.931 . S
C684 C683 1.389 . S
C684 C685 1.389 . S
C685 C684 1.389 . S
C685 C686 1.379 . S
C685 H710 0.929 . S
C686 C685 1.379 . S
C686 C687 1.405 . S
C687 C682 1.403 . S
C687 C686 1.405 . S
C687 H711 0.932 . S
O688 Cd623 2.173 . S
O688 C624 1.277 . S
O689 C624 1.230 . S
O689 Cd627 2.250 . S
O690 Cd623 2.263 . S
O690 C643 1.258 . S
O691 Cd627 2.308 . S
O691 C643 1.274 . S
O692 Cd623 2.366 . S
O692 C679 1.263 . S
C693 O694 1.235 . S
C693 O695 1.270 . S
O694 Cd627 2.352 . S
O694 C693 1.235 . S
O695 Cd623 2.329 . S
O695 C693 1.270 . S
C696 O680 1.270 . S
C696 O681 1.248 . S
H697 C629 0.930 . S
H698 C632 0.930 . S
H699 C633 0.931 . S
H700 C638 0.929 . S
H701 C640 0.930 . S
H702 C642 0.930 . S
H703 C645 0.929 . S
H704 C646 0.932 . S
H705 C648 0.930 . S
H706 C672 0.929 . S
H707 C673 0.932 . S
H708 C674 0.931 . S
H709 C683 0.931 . S
H710 C685 0.929 . S
H711 C687 0.932 . S
Cd712 O769 2.350 . S
Cd712 O770 2.277 . S
Cd712 O777 2.173 . S
Cd712 O779 2.263 . S
Cd712 O781 2.366 . S
Cd712 O784 2.329 . S
C713 O777 1.277 . S
C713 O778 1.230 . S
C714 O715 1.246 . S
C714 C717 1.481 . S
C714 N739 1.329 . S
O715 C714 1.246 . S
Cd716 O778 2.250 . S
Cd716 O780 2.308 . S
Cd716 O783 2.352 . S
C717 C714 1.481 . S
C717 N720 1.327 . S
C717 C721 1.407 . S
C718 C719 1.346 . S
C718 C722 1.390 . S
C718 H786 0.930 . S
C719 C718 1.346 . S
C719 N720 1.342 . S
C719 C724 1.516 . S
N720 C717 1.327 . S
N720 C719 1.342 . S
N720 Co723 1.864 . S
C721 C717 1.407 . S
C721 C722 1.364 . S
C721 H787 0.930 . S
C722 C718 1.390 . S
C722 C721 1.364 . S
C722 H788 0.931 . S
Co723 N720 1.864 . S
Co723 N739 1.955 . S
Co723 N740 1.958 . S
Co723 N741 1.953 . S
Co723 N759 1.869 . S
Co723 N765 1.974 1_565 S
C724 C719 1.516 . S
C724 O725 1.238 . S
C724 N740 1.324 . S
O725 C724 1.238 . S
C726 C727 1.394 . S
C726 C731 1.395 1_565 S
C726 N740 1.427 . S
C727 C726 1.394 . S
C727 C728 1.380 . S
C727 H789 0.929 . S
C728 C727 1.380 . S
C728 C729 1.384 1_565 S
C728 C732 1.495 . S
C729 C728 1.384 1_545 S
C729 C730 1.382 . S
C729 H790 0.930 . S
C730 C729 1.382 . S
C730 C731 1.398 . S
C731 C726 1.395 1_545 S
C731 C730 1.398 . S
C731 H791 0.930 . S
C732 C728 1.495 . S
C732 O779 1.258 . S
C732 O780 1.274 . S
C733 C734 1.385 . S
C733 C735 1.381 . S
C733 N739 1.432 . S
C734 C733 1.385 . S
C734 C738 1.388 . S
C734 H792 0.929 . S
C735 C733 1.381 . S
C735 C736 1.371 . S
C735 H793 0.932 . S
C736 C735 1.371 . S
C736 C737 1.400 . S
C737 C736 1.400 . S
C737 C738 1.351 . S
C737 H794 0.930 . S
C738 C734 1.388 . S
C738 C737 1.351 . S
N739 C714 1.329 . S
N739 Co723 1.955 . S
N739 C733 1.432 . S
N740 Co723 1.958 . S
N740 C724 1.324 . S
N740 C726 1.427 . S
N741 Co723 1.953 . S
N741 C742 1.436 . S
N741 C768 1.316 . S
C742 N741 1.436 . S
C742 C743 1.421 . S
C742 C744 1.360 . S
C743 C742 1.421 . S
C743 C745 1.379 . S
C743 H746 0.929 . S
C744 C742 1.360 . S
C744 C748 1.393 . S
C744 H750 0.931 . S
C745 C743 1.379 . S
C745 C747 1.417 . S
C745 C749 1.505 . S
H746 C743 0.929 . S
C747 C745 1.417 . S
C747 C748 1.352 . S
C747 H751 0.929 . S
C748 C744 1.393 . S
C748 C747 1.352 . S
C748 C752 1.482 . S
C749 C745 1.505 . S
C749 O753 1.259 . S
C749 O754 1.229 . S
H750 C744 0.931 . S
H751 C747 0.929 . S
C752 C748 1.482 . S
C752 O755 1.207 . S
C752 O756 1.289 . S
O753 C749 1.259 . S
O753 H757 0.822 . S
O754 C749 1.229 . S
O755 C752 1.207 . S
O756 C752 1.289 . S
O756 H758 0.819 . S
H757 O753 0.822 . S
H758 O756 0.819 . S
N759 Co723 1.869 . S
N759 C760 1.330 1_565 S
N759 C764 1.325 . S
C760 N759 1.330 1_545 S
C760 C761 1.359 . S
C760 C766 1.504 . S
C761 C760 1.359 . S
C761 C762 1.366 . S
C761 H795 0.929 . S
C762 C761 1.366 . S
C762 C763 1.415 1_545 S
C762 H796 0.932 . S
C763 C762 1.415 1_565 S
C763 C764 1.366 . S
C763 H797 0.931 . S
C764 N759 1.325 . S
C764 C763 1.366 . S
C764 C768 1.516 . S
N765 Co723 1.974 1_545 S
N765 C766 1.309 . S
N765 C771 1.423 . S
C766 C760 1.504 . S
C766 N765 1.309 . S
C766 O767 1.258 . S
O767 C766 1.258 . S
C768 N741 1.316 . S
C768 C764 1.516 . S
C768 O781 1.263 . S
O769 Cd712 2.350 . S
O769 C785 1.270 . S
O770 Cd712 2.277 . S
O770 C785 1.248 . S
C771 N765 1.423 . S
C771 C772 1.370 . S
C771 C776 1.403 . S
C772 C771 1.370 . S
C772 C773 1.389 . S
C772 H798 0.931 . S
C773 C772 1.389 . S
C773 C774 1.389 . S
C774 C773 1.389 . S
C774 C775 1.379 . S
C774 H799 0.929 . S
C775 C774 1.379 . S
C775 C776 1.405 . S
C776 C771 1.403 . S
C776 C775 1.405 . S
C776 H800 0.932 . S
O777 Cd712 2.173 . S
O777 C713 1.277 . S
O778 C713 1.230 . S
O778 Cd716 2.250 . S
O779 Cd712 2.263 . S
O779 C732 1.258 . S
O780 Cd716 2.308 . S
O780 C732 1.274 . S
O781 Cd712 2.366 . S
O781 C768 1.263 . S
C782 O783 1.235 . S
C782 O784 1.270 . S
O783 Cd716 2.352 . S
O783 C782 1.235 . S
O784 Cd712 2.329 . S
O784 C782 1.270 . S
C785 O769 1.270 . S
C785 O770 1.248 . S
H786 C718 0.930 . S
H787 C721 0.930 . S
H788 C722 0.931 . S
H789 C727 0.929 . S
H790 C729 0.930 . S
H791 C731 0.930 . S
H792 C734 0.929 . S
H793 C735 0.932 . S
H794 C737 0.930 . S
H795 C761 0.929 . S
H796 C762 0.932 . S
H797 C763 0.931 . S
H798 C772 0.931 . S
H799 C774 0.929 . S
H800 C776 0.932 . S
Cd801 O858 2.350 . S
Cd801 O859 2.277 . S
Cd801 O866 2.173 . S
Cd801 O868 2.263 . S
Cd801 O870 2.366 . S
Cd801 O873 2.329 . S
C802 O866 1.277 . S
C802 O867 1.230 . S
C803 O804 1.246 . S
C803 C806 1.481 . S
C803 N828 1.329 . S
O804 C803 1.246 . S
Cd805 O867 2.250 . S
Cd805 O869 2.308 . S
Cd805 O872 2.352 . S
C806 C803 1.481 . S
C806 N809 1.327 . S
C806 C810 1.407 . S
C807 C808 1.346 . S
C807 C811 1.390 . S
C807 H875 0.930 . S
C808 C807 1.346 . S
C808 N809 1.342 . S
C808 C813 1.516 . S
N809 C806 1.327 . S
N809 C808 1.342 . S
N809 Co812 1.864 . S
C810 C806 1.407 . S
C810 C811 1.364 . S
C810 H876 0.930 . S
C811 C807 1.390 . S
C811 C810 1.364 . S
C811 H877 0.931 . S
Co812 N809 1.864 . S
Co812 N828 1.955 . S
Co812 N829 1.958 . S
Co812 N830 1.953 . S
Co812 N848 1.869 . S
Co812 N854 1.974 . S
C813 C808 1.516 . S
C813 O814 1.238 . S
C813 N829 1.324 . S
O814 C813 1.238 . S
C815 C816 1.394 . S
C815 C820 1.395 . S
C815 N829 1.427 . S
C816 C815 1.394 . S
C816 C817 1.380 . S
C816 H878 0.929 . S
C817 C816 1.380 . S
C817 C818 1.384 . S
C817 C821 1.495 . S
C818 C817 1.384 . S
C818 C819 1.382 . S
C818 H879 0.930 . S
C819 C818 1.382 . S
C819 C820 1.398 . S
C820 C815 1.395 . S
C820 C819 1.398 . S
C820 H880 0.930 . S
C821 C817 1.495 . S
C821 O868 1.258 . S
C821 O869 1.274 . S
C822 C823 1.385 . S
C822 C824 1.381 . S
C822 N828 1.432 . S
C823 C822 1.385 . S
C823 C827 1.388 . S
C823 H881 0.929 . S
C824 C822 1.381 . S
C824 C825 1.371 . S
C824 H882 0.932 . S
C825 C824 1.371 . S
C825 C826 1.400 . S
C826 C825 1.400 . S
C826 C827 1.351 . S
C826 H883 0.930 . S
C827 C823 1.388 . S
C827 C826 1.351 . S
N828 C803 1.329 . S
N828 Co812 1.955 . S
N828 C822 1.432 . S
N829 Co812 1.958 . S
N829 C813 1.324 . S
N829 C815 1.427 . S
N830 Co812 1.953 . S
N830 C831 1.436 . S
N830 C857 1.316 . S
C831 N830 1.436 . S
C831 C832 1.421 . S
C831 C833 1.360 . S
C832 C831 1.421 . S
C832 C834 1.379 . S
C832 H835 0.929 . S
C833 C831 1.360 . S
C833 C837 1.393 . S
C833 H839 0.931 . S
C834 C832 1.379 . S
C834 C836 1.417 . S
C834 C838 1.505 . S
H835 C832 0.929 . S
C836 C834 1.417 . S
C836 C837 1.352 . S
C836 H840 0.929 . S
C837 C833 1.393 . S
C837 C836 1.352 . S
C837 C841 1.482 . S
C838 C834 1.505 . S
C838 O842 1.259 . S
C838 O843 1.229 . S
H839 C833 0.931 . S
H840 C836 0.929 . S
C841 C837 1.482 . S
C841 O844 1.207 . S
C841 O845 1.289 . S
O842 C838 1.259 . S
O842 H846 0.822 . S
O843 C838 1.229 . S
O844 C841 1.207 . S
O845 C841 1.289 . S
O845 H847 0.819 . S
H846 O842 0.822 . S
H847 O845 0.819 . S
N848 Co812 1.869 . S
N848 C849 1.330 . S
N848 C853 1.325 . S
C849 N848 1.330 . S
C849 C850 1.359 . S
C849 C855 1.504 . S
C850 C849 1.359 . S
C850 C851 1.366 . S
C850 H884 0.929 . S
C851 C850 1.366 . S
C851 C852 1.415 . S
C851 H885 0.932 . S
C852 C851 1.415 . S
C852 C853 1.366 . S
C852 H886 0.931 . S
C853 N848 1.325 . S
C853 C852 1.366 . S
C853 C857 1.516 . S
N854 Co812 1.974 . S
N854 C855 1.309 . S
N854 C860 1.423 . S
C855 C849 1.504 . S
C855 N854 1.309 . S
C855 O856 1.258 . S
O856 C855 1.258 . S
C857 N830 1.316 . S
C857 C853 1.516 . S
C857 O870 1.263 . S
O858 Cd801 2.350 . S
O858 C874 1.270 . S
O859 Cd801 2.277 . S
O859 C874 1.248 . S
C860 N854 1.423 . S
C860 C861 1.370 . S
C860 C865 1.403 . S
C861 C860 1.370 . S
C861 C862 1.389 . S
C861 H887 0.931 . S
C862 C861 1.389 . S
C862 C863 1.389 . S
C863 C862 1.389 . S
C863 C864 1.379 . S
C863 H888 0.929 . S
C864 C863 1.379 . S
C864 C865 1.405 . S
C865 C860 1.403 . S
C865 C864 1.405 . S
C865 H889 0.932 . S
O866 Cd801 2.173 . S
O866 C802 1.277 . S
O867 C802 1.230 . S
O867 Cd805 2.250 . S
O868 Cd801 2.263 . S
O868 C821 1.258 . S
O869 Cd805 2.308 . S
O869 C821 1.274 . S
O870 Cd801 2.366 . S
O870 C857 1.263 . S
C871 O872 1.235 . S
C871 O873 1.270 . S
O872 Cd805 2.352 . S
O872 C871 1.235 . S
O873 Cd801 2.329 . S
O873 C871 1.270 . S
C874 O858 1.270 . S
C874 O859 1.248 . S
H875 C807 0.930 . S
H876 C810 0.930 . S
H877 C811 0.931 . S
H878 C816 0.929 . S
H879 C818 0.930 . S
H880 C820 0.930 . S
H881 C823 0.929 . S
H882 C824 0.932 . S
H883 C826 0.930 . S
H884 C850 0.929 . S
H885 C851 0.932 . S
H886 C852 0.931 . S
H887 C861 0.931 . S
H888 C863 0.929 . S
H889 C865 0.932 . S
Cd890 O947 2.350 . S
Cd890 O948 2.277 . S
Cd890 O955 2.173 . S
Cd890 O957 2.263 . S
Cd890 O959 2.366 . S
Cd890 O962 2.329 . S
C891 O955 1.277 . S
C891 O956 1.230 . S
C892 O893 1.246 . S
C892 C895 1.481 . S
C892 N917 1.329 . S
O893 C892 1.246 . S
Cd894 O956 2.250 . S
Cd894 O958 2.308 . S
Cd894 O961 2.352 . S
C895 C892 1.481 . S
C895 N898 1.327 . S
C895 C899 1.407 . S
C896 C897 1.346 . S
C896 C900 1.390 . S
C896 H964 0.930 . S
C897 C896 1.346 . S
C897 N898 1.342 . S
C897 C902 1.516 . S
N898 C895 1.327 . S
N898 C897 1.342 . S
N898 Co901 1.864 . S
C899 C895 1.407 . S
C899 C900 1.364 . S
C899 H965 0.930 . S
C900 C896 1.390 . S
C900 C899 1.364 . S
C900 H966 0.931 . S
Co901 N898 1.864 . S
Co901 N917 1.955 . S
Co901 N918 1.958 . S
Co901 N919 1.953 . S
Co901 N937 1.869 . S
Co901 N943 1.974 1_545 S
C902 C897 1.516 . S
C902 O903 1.238 . S
C902 N918 1.324 . S
O903 C902 1.238 . S
C904 C905 1.394 . S
C904 C909 1.395 1_545 S
C904 N918 1.427 . S
C905 C904 1.394 . S
C905 C906 1.380 . S
C905 H967 0.929 . S
C906 C905 1.380 . S
C906 C907 1.384 1_545 S
C906 C910 1.495 . S
C907 C906 1.384 1_565 S
C907 C908 1.382 . S
C907 H968 0.930 . S
C908 C907 1.382 . S
C908 C909 1.398 . S
C909 C904 1.395 1_565 S
C909 C908 1.398 . S
C909 H969 0.930 . S
C910 C906 1.495 . S
C910 O957 1.258 . S
C910 O958 1.274 . S
C911 C912 1.385 . S
C911 C913 1.381 . S
C911 N917 1.432 . S
C912 C911 1.385 . S
C912 C916 1.388 1_655 S
C912 H970 0.929 . S
C913 C911 1.381 . S
C913 C914 1.371 1_655 S
C913 H971 0.932 . S
C914 C913 1.371 1_455 S
C914 C915 1.400 . S
C915 C914 1.400 . S
C915 C916 1.351 . S
C915 H972 0.930 . S
C916 C912 1.388 1_455 S
C916 C915 1.351 . S
N917 C892 1.329 . S
N917 Co901 1.955 . S
N917 C911 1.432 . S
N918 Co901 1.958 . S
N918 C902 1.324 . S
N918 C904 1.427 . S
N919 Co901 1.953 . S
N919 C920 1.436 . S
N919 C946 1.316 . S
C920 N919 1.436 . S
C920 C921 1.421 . S
C920 C922 1.360 . S
C921 C920 1.421 . S
C921 C923 1.379 . S
C921 H924 0.929 . S
C922 C920 1.360 . S
C922 C926 1.393 . S
C922 H928 0.931 . S
C923 C921 1.379 . S
C923 C925 1.417 . S
C923 C927 1.505 . S
H924 C921 0.929 . S
C925 C923 1.417 . S
C925 C926 1.352 . S
C925 H929 0.929 . S
C926 C922 1.393 . S
C926 C925 1.352 . S
C926 C930 1.482 . S
C927 C923 1.505 . S
C927 O931 1.259 . S
C927 O932 1.229 . S
H928 C922 0.931 . S
H929 C925 0.929 . S
C930 C926 1.482 . S
C930 O933 1.207 . S
C930 O934 1.289 . S
O931 C927 1.259 . S
O931 H935 0.822 . S
O932 C927 1.229 . S
O933 C930 1.207 . S
O934 C930 1.289 . S
O934 H936 0.819 . S
H935 O931 0.822 . S
H936 O934 0.819 . S
N937 Co901 1.869 . S
N937 C938 1.330 1_545 S
N937 C942 1.325 . S
C938 N937 1.330 1_565 S
C938 C939 1.359 . S
C938 C944 1.504 . S
C939 C938 1.359 . S
C939 C940 1.366 . S
C939 H973 0.929 . S
C940 C939 1.366 . S
C940 C941 1.415 1_565 S
C940 H974 0.932 . S
C941 C940 1.415 1_545 S
C941 C942 1.366 . S
C941 H975 0.931 . S
C942 N937 1.325 . S
C942 C941 1.366 . S
C942 C946 1.516 . S
N943 Co901 1.974 1_565 S
N943 C944 1.309 . S
N943 C949 1.423 . S
C944 C938 1.504 . S
C944 N943 1.309 . S
C944 O945 1.258 . S
O945 C944 1.258 . S
C946 N919 1.316 . S
C946 C942 1.516 . S
C946 O959 1.263 . S
O947 Cd890 2.350 . S
O947 C963 1.270 . S
O948 Cd890 2.277 . S
O948 C963 1.248 . S
C949 N943 1.423 . S
C949 C950 1.370 . S
C949 C954 1.403 . S
C950 C949 1.370 . S
C950 C951 1.389 . S
C950 H976 0.931 . S
C951 C950 1.389 . S
C951 C952 1.389 . S
C952 C951 1.389 . S
C952 C953 1.379 . S
C952 H977 0.929 . S
C953 C952 1.379 . S
C953 C954 1.405 . S
C954 C949 1.403 . S
C954 C953 1.405 . S
C954 H978 0.932 . S
O955 Cd890 2.173 . S
O955 C891 1.277 . S
O956 C891 1.230 . S
O956 Cd894 2.250 . S
O957 Cd890 2.263 . S
O957 C910 1.258 . S
O958 Cd894 2.308 . S
O958 C910 1.274 . S
O959 Cd890 2.366 . S
O959 C946 1.263 . S
C960 O961 1.235 . S
C960 O962 1.270 . S
O961 Cd894 2.352 . S
O961 C960 1.235 . S
O962 Cd890 2.329 . S
O962 C960 1.270 . S
C963 O947 1.270 . S
C963 O948 1.248 . S
H964 C896 0.930 . S
H965 C899 0.930 . S
H966 C900 0.931 . S
H967 C905 0.929 . S
H968 C907 0.930 . S
H969 C909 0.930 . S
H970 C912 0.929 . S
H971 C913 0.932 . S
H972 C915 0.930 . S
H973 C939 0.929 . S
H974 C940 0.932 . S
H975 C941 0.931 . S
H976 C950 0.931 . S
H977 C952 0.929 . S
H978 C954 0.932 . S
Cd979 O1036 2.350 . S
Cd979 O1037 2.277 . S
Cd979 O1044 2.173 . S
Cd979 O1046 2.263 . S
Cd979 O1048 2.366 . S
Cd979 O1051 2.329 . S
C980 O1044 1.277 . S
C980 O1045 1.230 . S
C981 O982 1.246 . S
C981 C984 1.481 . S
C981 N1006 1.329 . S
O982 C981 1.246 . S
Cd983 O1045 2.250 . S
Cd983 O1047 2.308 . S
Cd983 O1050 2.352 . S
C984 C981 1.481 . S
C984 N987 1.327 . S
C984 C988 1.407 . S
C985 C986 1.346 . S
C985 C989 1.390 . S
C985 H1053 0.930 . S
C986 C985 1.346 . S
C986 N987 1.342 . S
C986 C991 1.516 . S
N987 C984 1.327 . S
N987 C986 1.342 . S
N987 Co990 1.864 . S
C988 C984 1.407 . S
C988 C989 1.364 . S
C988 H1054 0.930 . S
C989 C985 1.390 . S
C989 C988 1.364 . S
C989 H1055 0.931 . S
Co990 N987 1.864 . S
Co990 N1006 1.955 . S
Co990 N1007 1.958 . S
Co990 N1008 1.953 . S
Co990 N1026 1.869 . S
Co990 N1032 1.974 . S
C991 C986 1.516 . S
C991 O992 1.238 . S
C991 N1007 1.324 . S
O992 C991 1.238 . S
C993 C994 1.394 . S
C993 C998 1.395 . S
C993 N1007 1.427 . S
C994 C993 1.394 . S
C994 C995 1.380 . S
C994 H1056 0.929 . S
C995 C994 1.380 . S
C995 C996 1.384 . S
C995 C999 1.495 . S
C996 C995 1.384 . S
C996 C997 1.382 . S
C996 H1057 0.930 . S
C997 C996 1.382 . S
C997 C998 1.398 . S
C998 C993 1.395 . S
C998 C997 1.398 . S
C998 H1058 0.930 . S
C999 C995 1.495 . S
C999 O1046 1.258 . S
C999 O1047 1.274 . S
C1000 C1001 1.385 . S
C1000 C1002 1.381 . S
C1000 N1006 1.432 . S
C1001 C1000 1.385 . S
C1001 C1005 1.388 . S
C1001 H1059 0.929 . S
C1002 C1000 1.381 . S
C1002 C1003 1.371 . S
C1002 H1060 0.932 . S
C1003 C1002 1.371 . S
C1003 C1004 1.400 . S
C1004 C1003 1.400 . S
C1004 C1005 1.351 . S
C1004 H1061 0.930 . S
C1005 C1001 1.388 . S
C1005 C1004 1.351 . S
N1006 C981 1.329 . S
N1006 Co990 1.955 . S
N1006 C1000 1.432 . S
N1007 Co990 1.958 . S
N1007 C991 1.324 . S
N1007 C993 1.427 . S
N1008 Co990 1.953 . S
N1008 C1009 1.436 . S
N1008 C1035 1.316 . S
C1009 N1008 1.436 . S
C1009 C1010 1.421 . S
C1009 C1011 1.360 . S
C1010 C1009 1.421 . S
C1010 C1012 1.379 . S
C1010 H1013 0.929 . S
C1011 C1009 1.360 . S
C1011 C1015 1.393 . S
C1011 H1017 0.931 . S
C1012 C1010 1.379 . S
C1012 C1014 1.417 . S
C1012 C1016 1.505 . S
H1013 C1010 0.929 . S
C1014 C1012 1.417 . S
C1014 C1015 1.352 . S
C1014 H1018 0.929 . S
C1015 C1011 1.393 . S
C1015 C1014 1.352 . S
C1015 C1019 1.482 . S
C1016 C1012 1.505 . S
C1016 O1020 1.259 . S
C1016 O1021 1.229 . S
H1017 C1011 0.931 . S
H1018 C1014 0.929 . S
C1019 C1015 1.482 . S
C1019 O1022 1.207 . S
C1019 O1023 1.289 . S
O1020 C1016 1.259 . S
O1020 H1024 0.822 . S
O1021 C1016 1.229 . S
O1022 C1019 1.207 . S
O1023 C1019 1.289 . S
O1023 H1025 0.819 . S
H1024 O1020 0.822 . S
H1025 O1023 0.819 . S
N1026 Co990 1.869 . S
N1026 C1027 1.330 . S
N1026 C1031 1.325 . S
C1027 N1026 1.330 . S
C1027 C1028 1.359 . S
C1027 C1033 1.504 . S
C1028 C1027 1.359 . S
C1028 C1029 1.366 . S
C1028 H1062 0.929 . S
C1029 C1028 1.366 . S
C1029 C1030 1.415 . S
C1029 H1063 0.932 . S
C1030 C1029 1.415 . S
C1030 C1031 1.366 . S
C1030 H1064 0.931 . S
C1031 N1026 1.325 . S
C1031 C1030 1.366 . S
C1031 C1035 1.516 . S
N1032 Co990 1.974 . S
N1032 C1033 1.309 . S
N1032 C1038 1.423 . S
C1033 C1027 1.504 . S
C1033 N1032 1.309 . S
C1033 O1034 1.258 . S
O1034 C1033 1.258 . S
C1035 N1008 1.316 . S
C1035 C1031 1.516 . S
C1035 O1048 1.263 . S
O1036 Cd979 2.350 . S
O1036 C1052 1.270 . S
O1037 Cd979 2.277 . S
O1037 C1052 1.248 . S
C1038 N1032 1.423 . S
C1038 C1039 1.370 . S
C1038 C1043 1.403 . S
C1039 C1038 1.370 . S
C1039 C1040 1.389 . S
C1039 H1065 0.931 . S
C1040 C1039 1.389 . S
C1040 C1041 1.389 . S
C1041 C1040 1.389 . S
C1041 C1042 1.379 . S
C1041 H1066 0.929 . S
C1042 C1041 1.379 . S
C1042 C1043 1.405 . S
C1043 C1038 1.403 . S
C1043 C1042 1.405 . S
C1043 H1067 0.932 . S
O1044 Cd979 2.173 . S
O1044 C980 1.277 . S
O1045 C980 1.230 . S
O1045 Cd983 2.250 . S
O1046 Cd979 2.263 . S
O1046 C999 1.258 . S
O1047 Cd983 2.308 . S
O1047 C999 1.274 . S
O1048 Cd979 2.366 . S
O1048 C1035 1.263 . S
C1049 O1050 1.235 . S
C1049 O1051 1.270 . S
O1050 Cd983 2.352 . S
O1050 C1049 1.235 . S
O1051 Cd979 2.329 . S
O1051 C1049 1.270 . S
C1052 O1036 1.270 . S
C1052 O1037 1.248 . S
H1053 C985 0.930 . S
H1054 C988 0.930 . S
H1055 C989 0.931 . S
H1056 C994 0.929 . S
H1057 C996 0.930 . S
H1058 C998 0.930 . S
H1059 C1001 0.929 . S
H1060 C1002 0.932 . S
H1061 C1004 0.930 . S
H1062 C1028 0.929 . S
H1063 C1029 0.932 . S
H1064 C1030 0.931 . S
H1065 C1039 0.931 . S
H1066 C1041 0.929 . S
H1067 C1043 0.932 . S
Cd1068 O1125 2.350 . S
Cd1068 O1126 2.277 . S
Cd1068 O1133 2.173 . S
Cd1068 O1135 2.263 . S
Cd1068 O1137 2.366 . S
Cd1068 O1140 2.329 . S
C1069 O1133 1.277 . S
C1069 O1134 1.230 . S
C1070 O1071 1.246 . S
C1070 C1073 1.481 . S
C1070 N1095 1.329 . S
O1071 C1070 1.246 . S
Cd1072 O1134 2.250 . S
Cd1072 O1136 2.308 . S
Cd1072 O1139 2.352 . S
C1073 C1070 1.481 . S
C1073 N1076 1.327 . S
C1073 C1077 1.407 . S
C1074 C1075 1.346 . S
C1074 C1078 1.390 . S
C1074 H1142 0.930 . S
C1075 C1074 1.346 . S
C1075 N1076 1.342 . S
C1075 C1080 1.516 . S
N1076 C1073 1.327 . S
N1076 C1075 1.342 . S
N1076 Co1079 1.864 . S
C1077 C1073 1.407 . S
C1077 C1078 1.364 . S
C1077 H1143 0.930 . S
C1078 C1074 1.390 . S
C1078 C1077 1.364 . S
C1078 H1144 0.931 . S
Co1079 N1076 1.864 . S
Co1079 N1095 1.955 . S
Co1079 N1096 1.958 . S
Co1079 N1097 1.953 . S
Co1079 N1115 1.869 . S
Co1079 N1121 1.974 1_545 S
C1080 C1075 1.516 . S
C1080 O1081 1.238 . S
C1080 N1096 1.324 . S
O1081 C1080 1.238 . S
C1082 C1083 1.394 . S
C1082 C1087 1.395 1_545 S
C1082 N1096 1.427 . S
C1083 C1082 1.394 . S
C1083 C1084 1.380 . S
C1083 H1145 0.929 . S
C1084 C1083 1.380 . S
C1084 C1085 1.384 1_545 S
C1084 C1088 1.495 . S
C1085 C1084 1.384 1_565 S
C1085 C1086 1.382 . S
C1085 H1146 0.930 . S
C1086 C1085 1.382 . S
C1086 C1087 1.398 . S
C1087 C1082 1.395 1_565 S
C1087 C1086 1.398 . S
C1087 H1147 0.930 . S
C1088 C1084 1.495 . S
C1088 O1135 1.258 . S
C1088 O1136 1.274 . S
C1089 C1090 1.385 . S
C1089 C1091 1.381 . S
C1089 N1095 1.432 . S
C1090 C1089 1.385 . S
C1090 C1094 1.388 . S
C1090 H1148 0.929 . S
C1091 C1089 1.381 . S
C1091 C1092 1.371 . S
C1091 H1149 0.932 . S
C1092 C1091 1.371 . S
C1092 C1093 1.400 . S
C1093 C1092 1.400 . S
C1093 C1094 1.351 . S
C1093 H1150 0.930 . S
C1094 C1090 1.388 . S
C1094 C1093 1.351 . S
N1095 C1070 1.329 . S
N1095 Co1079 1.955 . S
N1095 C1089 1.432 . S
N1096 Co1079 1.958 . S
N1096 C1080 1.324 . S
N1096 C1082 1.427 . S
N1097 Co1079 1.953 . S
N1097 C1098 1.436 . S
N1097 C1124 1.316 . S
C1098 N1097 1.436 . S
C1098 C1099 1.421 . S
C1098 C1100 1.360 . S
C1099 C1098 1.421 . S
C1099 C1101 1.379 . S
C1099 H1102 0.929 . S
C1100 C1098 1.360 . S
C1100 C1104 1.393 . S
C1100 H1106 0.931 . S
C1101 C1099 1.379 . S
C1101 C1103 1.417 . S
C1101 C1105 1.505 . S
H1102 C1099 0.929 . S
C1103 C1101 1.417 . S
C1103 C1104 1.352 . S
C1103 H1107 0.929 . S
C1104 C1100 1.393 . S
C1104 C1103 1.352 . S
C1104 C1108 1.482 . S
C1105 C1101 1.505 . S
C1105 O1109 1.259 . S
C1105 O1110 1.229 . S
H1106 C1100 0.931 . S
H1107 C1103 0.929 . S
C1108 C1104 1.482 . S
C1108 O1111 1.207 . S
C1108 O1112 1.289 . S
O1109 C1105 1.259 . S
O1109 H1113 0.822 . S
O1110 C1105 1.229 . S
O1111 C1108 1.207 . S
O1112 C1108 1.289 . S
O1112 H1114 0.819 . S
H1113 O1109 0.822 . S
H1114 O1112 0.819 . S
N1115 Co1079 1.869 . S
N1115 C1116 1.330 1_545 S
N1115 C1120 1.325 . S
C1116 N1115 1.330 1_565 S
C1116 C1117 1.359 . S
C1116 C1122 1.504 . S
C1117 C1116 1.359 . S
C1117 C1118 1.366 . S
C1117 H1151 0.929 . S
C1118 C1117 1.366 . S
C1118 C1119 1.415 1_565 S
C1118 H1152 0.932 . S
C1119 C1118 1.415 1_545 S
C1119 C1120 1.366 . S
C1119 H1153 0.931 . S
C1120 N1115 1.325 . S
C1120 C1119 1.366 . S
C1120 C1124 1.516 . S
N1121 Co1079 1.974 1_565 S
N1121 C1122 1.309 . S
N1121 C1127 1.423 . S
C1122 C1116 1.504 . S
C1122 N1121 1.309 . S
C1122 O1123 1.258 . S
O1123 C1122 1.258 . S
C1124 N1097 1.316 . S
C1124 C1120 1.516 . S
C1124 O1137 1.263 . S
O1125 Cd1068 2.350 . S
O1125 C1141 1.270 . S
O1126 Cd1068 2.277 . S
O1126 C1141 1.248 . S
C1127 N1121 1.423 . S
C1127 C1128 1.370 . S
C1127 C1132 1.403 . S
C1128 C1127 1.370 . S
C1128 C1129 1.389 . S
C1128 H1154 0.931 . S
C1129 C1128 1.389 . S
C1129 C1130 1.389 . S
C1130 C1129 1.389 . S
C1130 C1131 1.379 . S
C1130 H1155 0.929 . S
C1131 C1130 1.379 . S
C1131 C1132 1.405 . S
C1132 C1127 1.403 . S
C1132 C1131 1.405 . S
C1132 H1156 0.932 . S
O1133 Cd1068 2.173 . S
O1133 C1069 1.277 . S
O1134 C1069 1.230 . S
O1134 Cd1072 2.250 . S
O1135 Cd1068 2.263 . S
O1135 C1088 1.258 . S
O1136 Cd1072 2.308 . S
O1136 C1088 1.274 . S
O1137 Cd1068 2.366 . S
O1137 C1124 1.263 . S
C1138 O1139 1.235 . S
C1138 O1140 1.270 . S
O1139 Cd1072 2.352 . S
O1139 C1138 1.235 . S
O1140 Cd1068 2.329 . S
O1140 C1138 1.270 . S
C1141 O1125 1.270 . S
C1141 O1126 1.248 . S
H1142 C1074 0.930 . S
H1143 C1077 0.930 . S
H1144 C1078 0.931 . S
H1145 C1083 0.929 . S
H1146 C1085 0.930 . S
H1147 C1087 0.930 . S
H1148 C1090 0.929 . S
H1149 C1091 0.932 . S
H1150 C1093 0.930 . S
H1151 C1117 0.929 . S
H1152 C1118 0.932 . S
H1153 C1119 0.931 . S
H1154 C1128 0.931 . S
H1155 C1130 0.929 . S
H1156 C1132 0.932 . S
Cd1157 O1214 2.350 . S
Cd1157 O1215 2.277 . S
Cd1157 O1222 2.173 . S
Cd1157 O1224 2.263 . S
Cd1157 O1226 2.366 . S
Cd1157 O1229 2.329 . S
C1158 O1222 1.277 . S
C1158 O1223 1.230 . S
C1159 O1160 1.246 . S
C1159 C1162 1.481 . S
C1159 N1184 1.329 . S
O1160 C1159 1.246 . S
Cd1161 O1223 2.250 . S
Cd1161 O1225 2.308 . S
Cd1161 O1228 2.352 . S
C1162 C1159 1.481 . S
C1162 N1165 1.327 . S
C1162 C1166 1.407 . S
C1163 C1164 1.346 . S
C1163 C1167 1.390 . S
C1163 H1231 0.930 . S
C1164 C1163 1.346 . S
C1164 N1165 1.342 . S
C1164 C1169 1.516 . S
N1165 C1162 1.327 . S
N1165 C1164 1.342 . S
N1165 Co1168 1.864 . S
C1166 C1162 1.407 . S
C1166 C1167 1.364 . S
C1166 H1232 0.930 . S
C1167 C1163 1.390 . S
C1167 C1166 1.364 . S
C1167 H1233 0.931 . S
Co1168 N1165 1.864 . S
Co1168 N1184 1.955 . S
Co1168 N1185 1.958 . S
Co1168 N1186 1.953 . S
Co1168 N1204 1.869 . S
Co1168 N1210 1.974 . S
C1169 C1164 1.516 . S
C1169 O1170 1.238 . S
C1169 N1185 1.324 . S
O1170 C1169 1.238 . S
C1171 C1172 1.394 . S
C1171 C1176 1.395 . S
C1171 N1185 1.427 . S
C1172 C1171 1.394 . S
C1172 C1173 1.380 . S
C1172 H1234 0.929 . S
C1173 C1172 1.380 . S
C1173 C1174 1.384 . S
C1173 C1177 1.495 . S
C1174 C1173 1.384 . S
C1174 C1175 1.382 . S
C1174 H1235 0.930 . S
C1175 C1174 1.382 . S
C1175 C1176 1.398 . S
C1176 C1171 1.395 . S
C1176 C1175 1.398 . S
C1176 H1236 0.930 . S
C1177 C1173 1.495 . S
C1177 O1224 1.258 . S
C1177 O1225 1.274 . S
C1178 C1179 1.385 . S
C1178 C1180 1.381 . S
C1178 N1184 1.432 . S
C1179 C1178 1.385 . S
C1179 C1183 1.388 . S
C1179 H1237 0.929 . S
C1180 C1178 1.381 . S
C1180 C1181 1.371 . S
C1180 H1238 0.932 . S
C1181 C1180 1.371 . S
C1181 C1182 1.400 . S
C1182 C1181 1.400 . S
C1182 C1183 1.351 . S
C1182 H1239 0.930 . S
C1183 C1179 1.388 . S
C1183 C1182 1.351 . S
N1184 C1159 1.329 . S
N1184 Co1168 1.955 . S
N1184 C1178 1.432 . S
N1185 Co1168 1.958 . S
N1185 C1169 1.324 . S
N1185 C1171 1.427 . S
N1186 Co1168 1.953 . S
N1186 C1187 1.436 . S
N1186 C1213 1.316 . S
C1187 N1186 1.436 . S
C1187 C1188 1.421 . S
C1187 C1189 1.360 . S
C1188 C1187 1.421 . S
C1188 C1190 1.379 . S
C1188 H1191 0.929 . S
C1189 C1187 1.360 . S
C1189 C1193 1.393 . S
C1189 H1195 0.931 . S
C1190 C1188 1.379 . S
C1190 C1192 1.417 . S
C1190 C1194 1.505 . S
H1191 C1188 0.929 . S
C1192 C1190 1.417 . S
C1192 C1193 1.352 . S
C1192 H1196 0.929 . S
C1193 C1189 1.393 . S
C1193 C1192 1.352 . S
C1193 C1197 1.482 . S
C1194 C1190 1.505 . S
C1194 O1198 1.259 . S
C1194 O1199 1.229 . S
H1195 C1189 0.931 . S
H1196 C1192 0.929 . S
C1197 C1193 1.482 . S
C1197 O1200 1.207 . S
C1197 O1201 1.289 . S
O1198 C1194 1.259 . S
O1198 H1202 0.822 . S
O1199 C1194 1.229 . S
O1200 C1197 1.207 . S
O1201 C1197 1.289 . S
O1201 H1203 0.819 . S
H1202 O1198 0.822 . S
H1203 O1201 0.819 . S
N1204 Co1168 1.869 . S
N1204 C1205 1.330 . S
N1204 C1209 1.325 . S
C1205 N1204 1.330 . S
C1205 C1206 1.359 . S
C1205 C1211 1.504 . S
C1206 C1205 1.359 . S
C1206 C1207 1.366 . S
C1206 H1240 0.929 . S
C1207 C1206 1.366 . S
C1207 C1208 1.415 . S
C1207 H1241 0.932 . S
C1208 C1207 1.415 . S
C1208 C1209 1.366 . S
C1208 H1242 0.931 . S
C1209 N1204 1.325 . S
C1209 C1208 1.366 . S
C1209 C1213 1.516 . S
N1210 Co1168 1.974 . S
N1210 C1211 1.309 . S
N1210 C1216 1.423 . S
C1211 C1205 1.504 . S
C1211 N1210 1.309 . S
C1211 O1212 1.258 . S
O1212 C1211 1.258 . S
C1213 N1186 1.316 . S
C1213 C1209 1.516 . S
C1213 O1226 1.263 . S
O1214 Cd1157 2.350 . S
O1214 C1230 1.270 . S
O1215 Cd1157 2.277 . S
O1215 C1230 1.248 . S
C1216 N1210 1.423 . S
C1216 C1217 1.370 . S
C1216 C1221 1.403 . S
C1217 C1216 1.370 . S
C1217 C1218 1.389 . S
C1217 H1243 0.931 . S
C1218 C1217 1.389 . S
C1218 C1219 1.389 . S
C1219 C1218 1.389 . S
C1219 C1220 1.379 . S
C1219 H1244 0.929 . S
C1220 C1219 1.379 . S
C1220 C1221 1.405 . S
C1221 C1216 1.403 . S
C1221 C1220 1.405 . S
C1221 H1245 0.932 . S
O1222 Cd1157 2.173 . S
O1222 C1158 1.277 . S
O1223 C1158 1.230 . S
O1223 Cd1161 2.250 . S
O1224 Cd1157 2.263 . S
O1224 C1177 1.258 . S
O1225 Cd1161 2.308 . S
O1225 C1177 1.274 . S
O1226 Cd1157 2.366 . S
O1226 C1213 1.263 . S
C1227 O1228 1.235 . S
C1227 O1229 1.270 . S
O1228 Cd1161 2.352 . S
O1228 C1227 1.235 . S
O1229 Cd1157 2.329 . S
O1229 C1227 1.270 . S
C1230 O1214 1.270 . S
C1230 O1215 1.248 . S
H1231 C1163 0.930 . S
H1232 C1166 0.930 . S
H1233 C1167 0.931 . S
H1234 C1172 0.929 . S
H1235 C1174 0.930 . S
H1236 C1176 0.930 . S
H1237 C1179 0.929 . S
H1238 C1180 0.932 . S
H1239 C1182 0.930 . S
H1240 C1206 0.929 . S
H1241 C1207 0.932 . S
H1242 C1208 0.931 . S
H1243 C1217 0.931 . S
H1244 C1219 0.929 . S
H1245 C1221 0.932 . S
Cd1246 O1303 2.350 . S
Cd1246 O1304 2.277 . S
Cd1246 O1311 2.173 . S
Cd1246 O1313 2.263 . S
Cd1246 O1315 2.366 . S
Cd1246 O1318 2.329 . S
C1247 O1311 1.277 . S
C1247 O1312 1.230 . S
C1248 O1249 1.246 . S
C1248 C1251 1.481 . S
C1248 N1273 1.329 . S
O1249 C1248 1.246 . S
Cd1250 O1312 2.250 . S
Cd1250 O1314 2.308 . S
Cd1250 O1317 2.352 . S
C1251 C1248 1.481 . S
C1251 N1254 1.327 . S
C1251 C1255 1.407 . S
C1252 C1253 1.346 . S
C1252 C1256 1.390 . S
C1252 H1320 0.930 . S
C1253 C1252 1.346 . S
C1253 N1254 1.342 . S
C1253 C1258 1.516 . S
N1254 C1251 1.327 . S
N1254 C1253 1.342 . S
N1254 Co1257 1.864 . S
C1255 C1251 1.407 . S
C1255 C1256 1.364 . S
C1255 H1321 0.930 . S
C1256 C1252 1.390 . S
C1256 C1255 1.364 . S
C1256 H1322 0.931 . S
Co1257 N1254 1.864 . S
Co1257 N1273 1.955 . S
Co1257 N1274 1.958 . S
Co1257 N1275 1.953 . S
Co1257 N1293 1.869 . S
Co1257 N1299 1.974 1_565 S
C1258 C1253 1.516 . S
C1258 O1259 1.238 . S
C1258 N1274 1.324 . S
O1259 C1258 1.238 . S
C1260 C1261 1.394 . S
C1260 C1265 1.395 1_565 S
C1260 N1274 1.427 . S
C1261 C1260 1.394 . S
C1261 C1262 1.380 . S
C1261 H1323 0.929 . S
C1262 C1261 1.380 . S
C1262 C1263 1.384 1_565 S
C1262 C1266 1.495 . S
C1263 C1262 1.384 1_545 S
C1263 C1264 1.382 . S
C1263 H1324 0.930 . S
C1264 C1263 1.382 . S
C1264 C1265 1.398 . S
C1265 C1260 1.395 1_545 S
C1265 C1264 1.398 . S
C1265 H1325 0.930 . S
C1266 C1262 1.495 . S
C1266 O1313 1.258 . S
C1266 O1314 1.274 . S
C1267 C1268 1.385 . S
C1267 C1269 1.381 . S
C1267 N1273 1.432 . S
C1268 C1267 1.385 . S
C1268 C1272 1.388 1_655 S
C1268 H1326 0.929 . S
C1269 C1267 1.381 . S
C1269 C1270 1.371 1_655 S
C1269 H1327 0.932 . S
C1270 C1269 1.371 1_455 S
C1270 C1271 1.400 . S
C1271 C1270 1.400 . S
C1271 C1272 1.351 . S
C1271 H1328 0.930 . S
C1272 C1268 1.388 1_455 S
C1272 C1271 1.351 . S
N1273 C1248 1.329 . S
N1273 Co1257 1.955 . S
N1273 C1267 1.432 . S
N1274 Co1257 1.958 . S
N1274 C1258 1.324 . S
N1274 C1260 1.427 . S
N1275 Co1257 1.953 . S
N1275 C1276 1.436 . S
N1275 C1302 1.316 . S
C1276 N1275 1.436 . S
C1276 C1277 1.421 . S
C1276 C1278 1.360 . S
C1277 C1276 1.421 . S
C1277 C1279 1.379 . S
C1277 H1280 0.929 . S
C1278 C1276 1.360 . S
C1278 C1282 1.393 . S
C1278 H1284 0.931 . S
C1279 C1277 1.379 . S
C1279 C1281 1.417 . S
C1279 C1283 1.505 . S
H1280 C1277 0.929 . S
C1281 C1279 1.417 . S
C1281 C1282 1.352 . S
C1281 H1285 0.929 . S
C1282 C1278 1.393 . S
C1282 C1281 1.352 . S
C1282 C1286 1.482 . S
C1283 C1279 1.505 . S
C1283 O1287 1.259 . S
C1283 O1288 1.229 . S
H1284 C1278 0.931 . S
H1285 C1281 0.929 . S
C1286 C1282 1.482 . S
C1286 O1289 1.207 . S
C1286 O1290 1.289 . S
O1287 C1283 1.259 . S
O1287 H1291 0.822 . S
O1288 C1283 1.229 . S
O1289 C1286 1.207 . S
O1290 C1286 1.289 . S
O1290 H1292 0.819 . S
H1291 O1287 0.822 . S
H1292 O1290 0.819 . S
N1293 Co1257 1.869 . S
N1293 C1294 1.330 1_565 S
N1293 C1298 1.325 . S
C1294 N1293 1.330 1_545 S
C1294 C1295 1.359 . S
C1294 C1300 1.504 . S
C1295 C1294 1.359 . S
C1295 C1296 1.366 . S
C1295 H1329 0.929 . S
C1296 C1295 1.366 . S
C1296 C1297 1.415 1_545 S
C1296 H1330 0.932 . S
C1297 C1296 1.415 1_565 S
C1297 C1298 1.366 . S
C1297 H1331 0.931 . S
C1298 N1293 1.325 . S
C1298 C1297 1.366 . S
C1298 C1302 1.516 . S
N1299 Co1257 1.974 1_545 S
N1299 C1300 1.309 . S
N1299 C1305 1.423 . S
C1300 C1294 1.504 . S
C1300 N1299 1.309 . S
C1300 O1301 1.258 . S
O1301 C1300 1.258 . S
C1302 N1275 1.316 . S
C1302 C1298 1.516 . S
C1302 O1315 1.263 . S
O1303 Cd1246 2.350 . S
O1303 C1319 1.270 . S
O1304 Cd1246 2.277 . S
O1304 C1319 1.248 . S
C1305 N1299 1.423 . S
C1305 C1306 1.370 . S
C1305 C1310 1.403 . S
C1306 C1305 1.370 . S
C1306 C1307 1.389 . S
C1306 H1332 0.931 . S
C1307 C1306 1.389 . S
C1307 C1308 1.389 . S
C1308 C1307 1.389 . S
C1308 C1309 1.379 . S
C1308 H1333 0.929 . S
C1309 C1308 1.379 . S
C1309 C1310 1.405 . S
C1310 C1305 1.403 . S
C1310 C1309 1.405 . S
C1310 H1334 0.932 . S
O1311 Cd1246 2.173 . S
O1311 C1247 1.277 . S
O1312 C1247 1.230 . S
O1312 Cd1250 2.250 . S
O1313 Cd1246 2.263 . S
O1313 C1266 1.258 . S
O1314 Cd1250 2.308 . S
O1314 C1266 1.274 . S
O1315 Cd1246 2.366 . S
O1315 C1302 1.263 . S
C1316 O1317 1.235 . S
C1316 O1318 1.270 . S
O1317 Cd1250 2.352 . S
O1317 C1316 1.235 . S
O1318 Cd1246 2.329 . S
O1318 C1316 1.270 . S
C1319 O1303 1.270 . S
C1319 O1304 1.248 . S
H1320 C1252 0.930 . S
H1321 C1255 0.930 . S
H1322 C1256 0.931 . S
H1323 C1261 0.929 . S
H1324 C1263 0.930 . S
H1325 C1265 0.930 . S
H1326 C1268 0.929 . S
H1327 C1269 0.932 . S
H1328 C1271 0.930 . S
H1329 C1295 0.929 . S
H1330 C1296 0.932 . S
H1331 C1297 0.931 . S
H1332 C1306 0.931 . S
H1333 C1308 0.929 . S
H1334 C1310 0.932 . S
Cd1335 O1392 2.350 . S
Cd1335 O1393 2.277 . S
Cd1335 O1400 2.173 . S
Cd1335 O1402 2.263 . S
Cd1335 O1404 2.366 . S
Cd1335 O1407 2.329 . S
C1336 O1400 1.277 . S
C1336 O1401 1.230 . S
C1337 O1338 1.246 . S
C1337 C1340 1.481 . S
C1337 N1362 1.329 . S
O1338 C1337 1.246 . S
Cd1339 O1401 2.250 . S
Cd1339 O1403 2.308 . S
Cd1339 O1406 2.352 . S
C1340 C1337 1.481 . S
C1340 N1343 1.327 . S
C1340 C1344 1.407 . S
C1341 C1342 1.346 . S
C1341 C1345 1.390 . S
C1341 H1409 0.930 . S
C1342 C1341 1.346 . S
C1342 N1343 1.342 . S
C1342 C1347 1.516 . S
N1343 C1340 1.327 . S
N1343 C1342 1.342 . S
N1343 Co1346 1.864 . S
C1344 C1340 1.407 . S
C1344 C1345 1.364 . S
C1344 H1410 0.930 . S
C1345 C1341 1.390 . S
C1345 C1344 1.364 . S
C1345 H1411 0.931 . S
Co1346 N1343 1.864 . S
Co1346 N1362 1.955 . S
Co1346 N1363 1.958 . S
Co1346 N1364 1.953 . S
Co1346 N1382 1.869 . S
Co1346 N1388 1.974 . S
C1347 C1342 1.516 . S
C1347 O1348 1.238 . S
C1347 N1363 1.324 . S
O1348 C1347 1.238 . S
C1349 C1350 1.394 . S
C1349 C1354 1.395 . S
C1349 N1363 1.427 . S
C1350 C1349 1.394 . S
C1350 C1351 1.380 . S
C1350 H1412 0.929 . S
C1351 C1350 1.380 . S
C1351 C1352 1.384 . S
C1351 C1355 1.495 . S
C1352 C1351 1.384 . S
C1352 C1353 1.382 . S
C1352 H1413 0.930 . S
C1353 C1352 1.382 . S
C1353 C1354 1.398 . S
C1354 C1349 1.395 . S
C1354 C1353 1.398 . S
C1354 H1414 0.930 . S
C1355 C1351 1.495 . S
C1355 O1402 1.258 . S
C1355 O1403 1.274 . S
C1356 C1357 1.385 . S
C1356 C1358 1.381 . S
C1356 N1362 1.432 . S
C1357 C1356 1.385 . S
C1357 C1361 1.388 . S
C1357 H1415 0.929 . S
C1358 C1356 1.381 . S
C1358 C1359 1.371 . S
C1358 H1416 0.932 . S
C1359 C1358 1.371 . S
C1359 C1360 1.400 . S
C1360 C1359 1.400 . S
C1360 C1361 1.351 . S
C1360 H1417 0.930 . S
C1361 C1357 1.388 . S
C1361 C1360 1.351 . S
N1362 C1337 1.329 . S
N1362 Co1346 1.955 . S
N1362 C1356 1.432 . S
N1363 Co1346 1.958 . S
N1363 C1347 1.324 . S
N1363 C1349 1.427 . S
N1364 Co1346 1.953 . S
N1364 C1365 1.436 . S
N1364 C1391 1.316 . S
C1365 N1364 1.436 . S
C1365 C1366 1.421 . S
C1365 C1367 1.360 . S
C1366 C1365 1.421 . S
C1366 C1368 1.379 . S
C1366 H1369 0.929 . S
C1367 C1365 1.360 . S
C1367 C1371 1.393 . S
C1367 H1373 0.931 . S
C1368 C1366 1.379 . S
C1368 C1370 1.417 . S
C1368 C1372 1.505 . S
H1369 C1366 0.929 . S
C1370 C1368 1.417 . S
C1370 C1371 1.352 . S
C1370 H1374 0.929 . S
C1371 C1367 1.393 . S
C1371 C1370 1.352 . S
C1371 C1375 1.482 . S
C1372 C1368 1.505 . S
C1372 O1376 1.259 . S
C1372 O1377 1.229 . S
H1373 C1367 0.931 . S
H1374 C1370 0.929 . S
C1375 C1371 1.482 . S
C1375 O1378 1.207 . S
C1375 O1379 1.289 . S
O1376 C1372 1.259 . S
O1376 H1380 0.822 . S
O1377 C1372 1.229 . S
O1378 C1375 1.207 . S
O1379 C1375 1.289 . S
O1379 H1381 0.819 . S
H1380 O1376 0.822 . S
H1381 O1379 0.819 . S
N1382 Co1346 1.869 . S
N1382 C1383 1.330 . S
N1382 C1387 1.325 . S
C1383 N1382 1.330 . S
C1383 C1384 1.359 . S
C1383 C1389 1.504 . S
C1384 C1383 1.359 . S
C1384 C1385 1.366 . S
C1384 H1418 0.929 . S
C1385 C1384 1.366 . S
C1385 C1386 1.415 . S
C1385 H1419 0.932 . S
C1386 C1385 1.415 . S
C1386 C1387 1.366 . S
C1386 H1420 0.931 . S
C1387 N1382 1.325 . S
C1387 C1386 1.366 . S
C1387 C1391 1.516 . S
N1388 Co1346 1.974 . S
N1388 C1389 1.309 . S
N1388 C1394 1.423 . S
C1389 C1383 1.504 . S
C1389 N1388 1.309 . S
C1389 O1390 1.258 . S
O1390 C1389 1.258 . S
C1391 N1364 1.316 . S
C1391 C1387 1.516 . S
C1391 O1404 1.263 . S
O1392 Cd1335 2.350 . S
O1392 C1408 1.270 . S
O1393 Cd1335 2.277 . S
O1393 C1408 1.248 . S
C1394 N1388 1.423 . S
C1394 C1395 1.370 . S
C1394 C1399 1.403 . S
C1395 C1394 1.370 . S
C1395 C1396 1.389 . S
C1395 H1421 0.931 . S
C1396 C1395 1.389 . S
C1396 C1397 1.389 . S
C1397 C1396 1.389 . S
C1397 C1398 1.379 . S
C1397 H1422 0.929 . S
C1398 C1397 1.379 . S
C1398 C1399 1.405 . S
C1399 C1394 1.403 . S
C1399 C1398 1.405 . S
C1399 H1423 0.932 . S
O1400 Cd1335 2.173 . S
O1400 C1336 1.277 . S
O1401 C1336 1.230 . S
O1401 Cd1339 2.250 . S
O1402 Cd1335 2.263 . S
O1402 C1355 1.258 . S
O1403 Cd1339 2.308 . S
O1403 C1355 1.274 . S
O1404 Cd1335 2.366 . S
O1404 C1391 1.263 . S
C1405 O1406 1.235 . S
C1405 O1407 1.270 . S
O1406 Cd1339 2.352 . S
O1406 C1405 1.235 . S
O1407 Cd1335 2.329 . S
O1407 C1405 1.270 . S
C1408 O1392 1.270 . S
C1408 O1393 1.248 . S
H1409 C1341 0.930 . S
H1410 C1344 0.930 . S
H1411 C1345 0.931 . S
H1412 C1350 0.929 . S
H1413 C1352 0.930 . S
H1414 C1354 0.930 . S
H1415 C1357 0.929 . S
H1416 C1358 0.932 . S
H1417 C1360 0.930 . S
H1418 C1384 0.929 . S
H1419 C1385 0.932 . S
H1420 C1386 0.931 . S
H1421 C1395 0.931 . S
H1422 C1397 0.929 . S
H1423 C1399 0.932 . S
Cd1424 O1481 2.350 . S
Cd1424 O1482 2.277 . S
Cd1424 O1489 2.173 . S
Cd1424 O1491 2.263 . S
Cd1424 O1493 2.366 . S
Cd1424 O1496 2.329 . S
C1425 O1489 1.277 . S
C1425 O1490 1.230 . S
C1426 O1427 1.246 . S
C1426 C1429 1.481 . S
C1426 N1451 1.329 . S
O1427 C1426 1.246 . S
Cd1428 O1490 2.250 . S
Cd1428 O1492 2.308 . S
Cd1428 O1495 2.352 . S
C1429 C1426 1.481 . S
C1429 N1432 1.327 . S
C1429 C1433 1.407 . S
C1430 C1431 1.346 . S
C1430 C1434 1.390 . S
C1430 H1498 0.930 . S
C1431 C1430 1.346 . S
C1431 N1432 1.342 . S
C1431 C1436 1.516 . S
N1432 C1429 1.327 . S
N1432 C1431 1.342 . S
N1432 Co1435 1.864 . S
C1433 C1429 1.407 . S
C1433 C1434 1.364 . S
C1433 H1499 0.930 . S
C1434 C1430 1.390 . S
C1434 C1433 1.364 . S
C1434 H1500 0.931 . S
Co1435 N1432 1.864 . S
Co1435 N1451 1.955 . S
Co1435 N1452 1.958 . S
Co1435 N1453 1.953 . S
Co1435 N1471 1.869 . S
Co1435 N1477 1.974 . S
C1436 C1431 1.516 . S
C1436 O1437 1.238 . S
C1436 N1452 1.324 . S
O1437 C1436 1.238 . S
C1438 C1439 1.394 . S
C1438 C1443 1.395 . S
C1438 N1452 1.427 . S
C1439 C1438 1.394 . S
C1439 C1440 1.380 . S
C1439 H1501 0.929 . S
C1440 C1439 1.380 . S
C1440 C1441 1.384 . S
C1440 C1444 1.495 . S
C1441 C1440 1.384 . S
C1441 C1442 1.382 . S
C1441 H1502 0.930 . S
C1442 C1441 1.382 . S
C1442 C1443 1.398 . S
C1443 C1438 1.395 . S
C1443 C1442 1.398 . S
C1443 H1503 0.930 . S
C1444 C1440 1.495 . S
C1444 O1491 1.258 . S
C1444 O1492 1.274 . S
C1445 C1446 1.385 . S
C1445 C1447 1.381 . S
C1445 N1451 1.432 . S
C1446 C1445 1.385 . S
C1446 C1450 1.388 1_655 S
C1446 H1504 0.929 . S
C1447 C1445 1.381 . S
C1447 C1448 1.371 1_655 S
C1447 H1505 0.932 . S
C1448 C1447 1.371 1_455 S
C1448 C1449 1.400 . S
C1449 C1448 1.400 . S
C1449 C1450 1.351 . S
C1449 H1506 0.930 . S
C1450 C1446 1.388 1_455 S
C1450 C1449 1.351 . S
N1451 C1426 1.329 . S
N1451 Co1435 1.955 . S
N1451 C1445 1.432 . S
N1452 Co1435 1.958 . S
N1452 C1436 1.324 . S
N1452 C1438 1.427 . S
N1453 Co1435 1.953 . S
N1453 C1454 1.436 . S
N1453 C1480 1.316 . S
C1454 N1453 1.436 . S
C1454 C1455 1.421 . S
C1454 C1456 1.360 . S
C1455 C1454 1.421 . S
C1455 C1457 1.379 . S
C1455 H1458 0.929 . S
C1456 C1454 1.360 . S
C1456 C1460 1.393 . S
C1456 H1462 0.931 . S
C1457 C1455 1.379 . S
C1457 C1459 1.417 . S
C1457 C1461 1.505 . S
H1458 C1455 0.929 . S
C1459 C1457 1.417 . S
C1459 C1460 1.352 . S
C1459 H1463 0.929 . S
C1460 C1456 1.393 . S
C1460 C1459 1.352 . S
C1460 C1464 1.482 . S
C1461 C1457 1.505 . S
C1461 O1465 1.259 . S
C1461 O1466 1.229 . S
H1462 C1456 0.931 . S
H1463 C1459 0.929 . S
C1464 C1460 1.482 . S
C1464 O1467 1.207 . S
C1464 O1468 1.289 . S
O1465 C1461 1.259 . S
O1465 H1469 0.822 . S
O1466 C1461 1.229 . S
O1467 C1464 1.207 . S
O1468 C1464 1.289 . S
O1468 H1470 0.819 . S
H1469 O1465 0.822 . S
H1470 O1468 0.819 . S
N1471 Co1435 1.869 . S
N1471 C1472 1.330 . S
N1471 C1476 1.325 . S
C1472 N1471 1.330 . S
C1472 C1473 1.359 . S
C1472 C1478 1.504 . S
C1473 C1472 1.359 . S
C1473 C1474 1.366 . S
C1473 H1507 0.929 . S
C1474 C1473 1.366 . S
C1474 C1475 1.415 . S
C1474 H1508 0.932 . S
C1475 C1474 1.415 . S
C1475 C1476 1.366 . S
C1475 H1509 0.931 . S
C1476 N1471 1.325 . S
C1476 C1475 1.366 . S
C1476 C1480 1.516 . S
N1477 Co1435 1.974 . S
N1477 C1478 1.309 . S
N1477 C1483 1.423 . S
C1478 C1472 1.504 . S
C1478 N1477 1.309 . S
C1478 O1479 1.258 . S
O1479 C1478 1.258 . S
C1480 N1453 1.316 . S
C1480 C1476 1.516 . S
C1480 O1493 1.263 . S
O1481 Cd1424 2.350 . S
O1481 C1497 1.270 . S
O1482 Cd1424 2.277 . S
O1482 C1497 1.248 . S
C1483 N1477 1.423 . S
C1483 C1484 1.370 . S
C1483 C1488 1.403 . S
C1484 C1483 1.370 . S
C1484 C1485 1.389 . S
C1484 H1510 0.931 . S
C1485 C1484 1.389 . S
C1485 C1486 1.389 . S
C1486 C1485 1.389 . S
C1486 C1487 1.379 . S
C1486 H1511 0.929 . S
C1487 C1486 1.379 . S
C1487 C1488 1.405 . S
C1488 C1483 1.403 . S
C1488 C1487 1.405 . S
C1488 H1512 0.932 . S
O1489 Cd1424 2.173 . S
O1489 C1425 1.277 . S
O1490 C1425 1.230 . S
O1490 Cd1428 2.250 . S
O1491 Cd1424 2.263 . S
O1491 C1444 1.258 . S
O1492 Cd1428 2.308 . S
O1492 C1444 1.274 . S
O1493 Cd1424 2.366 . S
O1493 C1480 1.263 . S
C1494 O1495 1.235 . S
C1494 O1496 1.270 . S
O1495 Cd1428 2.352 . S
O1495 C1494 1.235 . S
O1496 Cd1424 2.329 . S
O1496 C1494 1.270 . S
C1497 O1481 1.270 . S
C1497 O1482 1.248 . S
H1498 C1430 0.930 . S
H1499 C1433 0.930 . S
H1500 C1434 0.931 . S
H1501 C1439 0.929 . S
H1502 C1441 0.930 . S
H1503 C1443 0.930 . S
H1504 C1446 0.929 . S
H1505 C1447 0.932 . S
H1506 C1449 0.930 . S
H1507 C1473 0.929 . S
H1508 C1474 0.932 . S
H1509 C1475 0.931 . S
H1510 C1484 0.931 . S
H1511 C1486 0.929 . S
H1512 C1488 0.932 . S
Cd1513 O1570 2.350 . S
Cd1513 O1571 2.277 . S
Cd1513 O1578 2.173 . S
Cd1513 O1580 2.263 . S
Cd1513 O1582 2.366 . S
Cd1513 O1585 2.329 . S
C1514 O1578 1.277 . S
C1514 O1579 1.230 . S
C1515 O1516 1.246 . S
C1515 C1518 1.481 . S
C1515 N1540 1.329 . S
O1516 C1515 1.246 . S
Cd1517 O1579 2.250 . S
Cd1517 O1581 2.308 . S
Cd1517 O1584 2.352 . S
C1518 C1515 1.481 . S
C1518 N1521 1.327 . S
C1518 C1522 1.407 . S
C1519 C1520 1.346 . S
C1519 C1523 1.390 . S
C1519 H1587 0.930 . S
C1520 C1519 1.346 . S
C1520 N1521 1.342 . S
C1520 C1525 1.516 . S
N1521 C1518 1.327 . S
N1521 C1520 1.342 . S
N1521 Co1524 1.864 . S
C1522 C1518 1.407 . S
C1522 C1523 1.364 . S
C1522 H1588 0.930 . S
C1523 C1519 1.390 . S
C1523 C1522 1.364 . S
C1523 H1589 0.931 . S
Co1524 N1521 1.864 . S
Co1524 N1540 1.955 . S
Co1524 N1541 1.958 . S
Co1524 N1542 1.953 . S
Co1524 N1560 1.869 . S
Co1524 N1566 1.974 . S
C1525 C1520 1.516 . S
C1525 O1526 1.238 . S
C1525 N1541 1.324 . S
O1526 C1525 1.238 . S
C1527 C1528 1.394 . S
C1527 C1532 1.395 . S
C1527 N1541 1.427 . S
C1528 C1527 1.394 . S
C1528 C1529 1.380 . S
C1528 H1590 0.929 . S
C1529 C1528 1.380 . S
C1529 C1530 1.384 . S
C1529 C1533 1.495 . S
C1530 C1529 1.384 . S
C1530 C1531 1.382 . S
C1530 H1591 0.930 . S
C1531 C1530 1.382 . S
C1531 C1532 1.398 . S
C1532 C1527 1.395 . S
C1532 C1531 1.398 . S
C1532 H1592 0.930 . S
C1533 C1529 1.495 . S
C1533 O1580 1.258 . S
C1533 O1581 1.274 . S
C1534 C1535 1.385 . S
C1534 C1536 1.381 . S
C1534 N1540 1.432 . S
C1535 C1534 1.385 . S
C1535 C1539 1.388 . S
C1535 H1593 0.929 . S
C1536 C1534 1.381 . S
C1536 C1537 1.371 . S
C1536 H1594 0.932 . S
C1537 C1536 1.371 . S
C1537 C1538 1.400 . S
C1538 C1537 1.400 . S
C1538 C1539 1.351 . S
C1538 H1595 0.930 . S
C1539 C1535 1.388 . S
C1539 C1538 1.351 . S
N1540 C1515 1.329 . S
N1540 Co1524 1.955 . S
N1540 C1534 1.432 . S
N1541 Co1524 1.958 . S
N1541 C1525 1.324 . S
N1541 C1527 1.427 . S
N1542 Co1524 1.953 . S
N1542 C1543 1.436 . S
N1542 C1569 1.316 . S
C1543 N1542 1.436 . S
C1543 C1544 1.421 . S
C1543 C1545 1.360 . S
C1544 C1543 1.421 . S
C1544 C1546 1.379 . S
C1544 H1547 0.929 . S
C1545 C1543 1.360 . S
C1545 C1549 1.393 . S
C1545 H1551 0.931 . S
C1546 C1544 1.379 . S
C1546 C1548 1.417 . S
C1546 C1550 1.505 . S
H1547 C1544 0.929 . S
C1548 C1546 1.417 . S
C1548 C1549 1.352 . S
C1548 H1552 0.929 . S
C1549 C1545 1.393 . S
C1549 C1548 1.352 . S
C1549 C1553 1.482 . S
C1550 C1546 1.505 . S
C1550 O1554 1.259 . S
C1550 O1555 1.229 . S
H1551 C1545 0.931 . S
H1552 C1548 0.929 . S
C1553 C1549 1.482 . S
C1553 O1556 1.207 . S
C1553 O1557 1.289 . S
O1554 C1550 1.259 . S
O1554 H1558 0.822 . S
O1555 C1550 1.229 . S
O1556 C1553 1.207 . S
O1557 C1553 1.289 . S
O1557 H1559 0.819 . S
H1558 O1554 0.822 . S
H1559 O1557 0.819 . S
N1560 Co1524 1.869 . S
N1560 C1561 1.330 . S
N1560 C1565 1.325 . S
C1561 N1560 1.330 . S
C1561 C1562 1.359 . S
C1561 C1567 1.504 . S
C1562 C1561 1.359 . S
C1562 C1563 1.366 . S
C1562 H1596 0.929 . S
C1563 C1562 1.366 . S
C1563 C1564 1.415 . S
C1563 H1597 0.932 . S
C1564 C1563 1.415 . S
C1564 C1565 1.366 . S
C1564 H1598 0.931 . S
C1565 N1560 1.325 . S
C1565 C1564 1.366 . S
C1565 C1569 1.516 . S
N1566 Co1524 1.974 . S
N1566 C1567 1.309 . S
N1566 C1572 1.423 . S
C1567 C1561 1.504 . S
C1567 N1566 1.309 . S
C1567 O1568 1.258 . S
O1568 C1567 1.258 . S
C1569 N1542 1.316 . S
C1569 C1565 1.516 . S
C1569 O1582 1.263 . S
O1570 Cd1513 2.350 . S
O1570 C1586 1.270 . S
O1571 Cd1513 2.277 . S
O1571 C1586 1.248 . S
C1572 N1566 1.423 . S
C1572 C1573 1.370 . S
C1572 C1577 1.403 . S
C1573 C1572 1.370 . S
C1573 C1574 1.389 . S
C1573 H1599 0.931 . S
C1574 C1573 1.389 . S
C1574 C1575 1.389 . S
C1575 C1574 1.389 . S
C1575 C1576 1.379 . S
C1575 H1600 0.929 . S
C1576 C1575 1.379 . S
C1576 C1577 1.405 . S
C1577 C1572 1.403 . S
C1577 C1576 1.405 . S
C1577 H1601 0.932 . S
O1578 Cd1513 2.173 . S
O1578 C1514 1.277 . S
O1579 C1514 1.230 . S
O1579 Cd1517 2.250 . S
O1580 Cd1513 2.263 . S
O1580 C1533 1.258 . S
O1581 Cd1517 2.308 . S
O1581 C1533 1.274 . S
O1582 Cd1513 2.366 . S
O1582 C1569 1.263 . S
C1583 O1584 1.235 . S
C1583 O1585 1.270 . S
O1584 Cd1517 2.352 . S
O1584 C1583 1.235 . S
O1585 Cd1513 2.329 . S
O1585 C1583 1.270 . S
C1586 O1570 1.270 . S
C1586 O1571 1.248 . S
H1587 C1519 0.930 . S
H1588 C1522 0.930 . S
H1589 C1523 0.931 . S
H1590 C1528 0.929 . S
H1591 C1530 0.930 . S
H1592 C1532 0.930 . S
H1593 C1535 0.929 . S
H1594 C1536 0.932 . S
H1595 C1538 0.930 . S
H1596 C1562 0.929 . S
H1597 C1563 0.932 . S
H1598 C1564 0.931 . S
H1599 C1573 0.931 . S
H1600 C1575 0.929 . S
H1601 C1577 0.932 . S
Cd1602 O1659 2.350 . S
Cd1602 O1660 2.277 . S
Cd1602 O1667 2.173 . S
Cd1602 O1669 2.263 . S
Cd1602 O1671 2.366 . S
Cd1602 O1674 2.329 . S
C1603 O1667 1.277 . S
C1603 O1668 1.230 . S
C1604 O1605 1.246 . S
C1604 C1607 1.481 . S
C1604 N1629 1.329 . S
O1605 C1604 1.246 . S
Cd1606 O1668 2.250 . S
Cd1606 O1670 2.308 . S
Cd1606 O1673 2.352 . S
C1607 C1604 1.481 . S
C1607 N1610 1.327 . S
C1607 C1611 1.407 . S
C1608 C1609 1.346 . S
C1608 C1612 1.390 . S
C1608 H1676 0.930 . S
C1609 C1608 1.346 . S
C1609 N1610 1.342 . S
C1609 C1614 1.516 . S
N1610 C1607 1.327 . S
N1610 C1609 1.342 . S
N1610 Co1613 1.864 . S
C1611 C1607 1.407 . S
C1611 C1612 1.364 . S
C1611 H1677 0.930 . S
C1612 C1608 1.390 . S
C1612 C1611 1.364 . S
C1612 H1678 0.931 . S
Co1613 N1610 1.864 . S
Co1613 N1629 1.955 . S
Co1613 N1630 1.958 . S
Co1613 N1631 1.953 . S
Co1613 N1649 1.869 . S
Co1613 N1655 1.974 . S
C1614 C1609 1.516 . S
C1614 O1615 1.238 . S
C1614 N1630 1.324 . S
O1615 C1614 1.238 . S
C1616 C1617 1.394 . S
C1616 C1621 1.395 . S
C1616 N1630 1.427 . S
C1617 C1616 1.394 . S
C1617 C1618 1.380 . S
C1617 H1679 0.929 . S
C1618 C1617 1.380 . S
C1618 C1619 1.384 . S
C1618 C1622 1.495 . S
C1619 C1618 1.384 . S
C1619 C1620 1.382 . S
C1619 H1680 0.930 . S
C1620 C1619 1.382 . S
C1620 C1621 1.398 . S
C1621 C1616 1.395 . S
C1621 C1620 1.398 . S
C1621 H1681 0.930 . S
C1622 C1618 1.495 . S
C1622 O1669 1.258 . S
C1622 O1670 1.274 . S
C1623 C1624 1.385 . S
C1623 C1625 1.381 . S
C1623 N1629 1.432 . S
C1624 C1623 1.385 . S
C1624 C1628 1.388 . S
C1624 H1682 0.929 . S
C1625 C1623 1.381 . S
C1625 C1626 1.371 . S
C1625 H1683 0.932 . S
C1626 C1625 1.371 . S
C1626 C1627 1.400 . S
C1627 C1626 1.400 . S
C1627 C1628 1.351 . S
C1627 H1684 0.930 . S
C1628 C1624 1.388 . S
C1628 C1627 1.351 . S
N1629 C1604 1.329 . S
N1629 Co1613 1.955 . S
N1629 C1623 1.432 . S
N1630 Co1613 1.958 . S
N1630 C1614 1.324 . S
N1630 C1616 1.427 . S
N1631 Co1613 1.953 . S
N1631 C1632 1.436 . S
N1631 C1658 1.316 . S
C1632 N1631 1.436 . S
C1632 C1633 1.421 . S
C1632 C1634 1.360 . S
C1633 C1632 1.421 . S
C1633 C1635 1.379 . S
C1633 H1636 0.929 . S
C1634 C1632 1.360 . S
C1634 C1638 1.393 . S
C1634 H1640 0.931 . S
C1635 C1633 1.379 . S
C1635 C1637 1.417 . S
C1635 C1639 1.505 . S
H1636 C1633 0.929 . S
C1637 C1635 1.417 . S
C1637 C1638 1.352 . S
C1637 H1641 0.929 . S
C1638 C1634 1.393 . S
C1638 C1637 1.352 . S
C1638 C1642 1.482 . S
C1639 C1635 1.505 . S
C1639 O1643 1.259 . S
C1639 O1644 1.229 . S
H1640 C1634 0.931 . S
H1641 C1637 0.929 . S
C1642 C1638 1.482 . S
C1642 O1645 1.207 . S
C1642 O1646 1.289 . S
O1643 C1639 1.259 . S
O1643 H1647 0.822 . S
O1644 C1639 1.229 . S
O1645 C1642 1.207 . S
O1646 C1642 1.289 . S
O1646 H1648 0.819 . S
H1647 O1643 0.822 . S
H1648 O1646 0.819 . S
N1649 Co1613 1.869 . S
N1649 C1650 1.330 . S
N1649 C1654 1.325 . S
C1650 N1649 1.330 . S
C1650 C1651 1.359 . S
C1650 C1656 1.504 . S
C1651 C1650 1.359 . S
C1651 C1652 1.366 . S
C1651 H1685 0.929 . S
C1652 C1651 1.366 . S
C1652 C1653 1.415 . S
C1652 H1686 0.932 . S
C1653 C1652 1.415 . S
C1653 C1654 1.366 . S
C1653 H1687 0.931 . S
C1654 N1649 1.325 . S
C1654 C1653 1.366 . S
C1654 C1658 1.516 . S
N1655 Co1613 1.974 . S
N1655 C1656 1.309 . S
N1655 C1661 1.423 . S
C1656 C1650 1.504 . S
C1656 N1655 1.309 . S
C1656 O1657 1.258 . S
O1657 C1656 1.258 . S
C1658 N1631 1.316 . S
C1658 C1654 1.516 . S
C1658 O1671 1.263 . S
O1659 Cd1602 2.350 . S
O1659 C1675 1.270 . S
O1660 Cd1602 2.277 . S
O1660 C1675 1.248 . S
C1661 N1655 1.423 . S
C1661 C1662 1.370 . S
C1661 C1666 1.403 . S
C1662 C1661 1.370 . S
C1662 C1663 1.389 . S
C1662 H1688 0.931 . S
C1663 C1662 1.389 . S
C1663 C1664 1.389 . S
C1664 C1663 1.389 . S
C1664 C1665 1.379 . S
C1664 H1689 0.929 . S
C1665 C1664 1.379 . S
C1665 C1666 1.405 . S
C1666 C1661 1.403 . S
C1666 C1665 1.405 . S
C1666 H1690 0.932 . S
O1667 Cd1602 2.173 . S
O1667 C1603 1.277 . S
O1668 C1603 1.230 . S
O1668 Cd1606 2.250 . S
O1669 Cd1602 2.263 . S
O1669 C1622 1.258 . S
O1670 Cd1606 2.308 . S
O1670 C1622 1.274 . S
O1671 Cd1602 2.366 . S
O1671 C1658 1.263 . S
C1672 O1673 1.235 . S
C1672 O1674 1.270 . S
O1673 Cd1606 2.352 . S
O1673 C1672 1.235 . S
O1674 Cd1602 2.329 . S
O1674 C1672 1.270 . S
C1675 O1659 1.270 . S
C1675 O1660 1.248 . S
H1676 C1608 0.930 . S
H1677 C1611 0.930 . S
H1678 C1612 0.931 . S
H1679 C1617 0.929 . S
H1680 C1619 0.930 . S
H1681 C1621 0.930 . S
H1682 C1624 0.929 . S
H1683 C1625 0.932 . S
H1684 C1627 0.930 . S
H1685 C1651 0.929 . S
H1686 C1652 0.932 . S
H1687 C1653 0.931 . S
H1688 C1662 0.931 . S
H1689 C1664 0.929 . S
H1690 C1666 0.932 . S
Cd1691 O1748 2.350 . S
Cd1691 O1749 2.277 . S
Cd1691 O1756 2.173 . S
Cd1691 O1758 2.263 . S
Cd1691 O1760 2.366 . S
Cd1691 O1763 2.329 . S
C1692 O1756 1.277 . S
C1692 O1757 1.230 . S
C1693 O1694 1.246 . S
C1693 C1696 1.481 . S
C1693 N1718 1.329 . S
O1694 C1693 1.246 . S
Cd1695 O1757 2.250 . S
Cd1695 O1759 2.308 . S
Cd1695 O1762 2.352 . S
C1696 C1693 1.481 . S
C1696 N1699 1.327 . S
C1696 C1700 1.407 . S
C1697 C1698 1.346 . S
C1697 C1701 1.390 . S
C1697 H1765 0.930 . S
C1698 C1697 1.346 . S
C1698 N1699 1.342 . S
C1698 C1703 1.516 . S
N1699 C1696 1.327 . S
N1699 C1698 1.342 . S
N1699 Co1702 1.864 . S
C1700 C1696 1.407 . S
C1700 C1701 1.364 . S
C1700 H1766 0.930 . S
C1701 C1697 1.390 . S
C1701 C1700 1.364 . S
C1701 H1767 0.931 . S
Co1702 N1699 1.864 . S
Co1702 N1718 1.955 . S
Co1702 N1719 1.958 . S
Co1702 N1720 1.953 . S
Co1702 N1738 1.869 . S
Co1702 N1744 1.974 . S
C1703 C1698 1.516 . S
C1703 O1704 1.238 . S
C1703 N1719 1.324 . S
O1704 C1703 1.238 . S
C1705 C1706 1.394 . S
C1705 C1710 1.395 . S
C1705 N1719 1.427 . S
C1706 C1705 1.394 . S
C1706 C1707 1.380 . S
C1706 H1768 0.929 . S
C1707 C1706 1.380 . S
C1707 C1708 1.384 . S
C1707 C1711 1.495 . S
C1708 C1707 1.384 . S
C1708 C1709 1.382 . S
C1708 H1769 0.930 . S
C1709 C1708 1.382 . S
C1709 C1710 1.398 . S
C1710 C1705 1.395 . S
C1710 C1709 1.398 . S
C1710 H1770 0.930 . S
C1711 C1707 1.495 . S
C1711 O1758 1.258 . S
C1711 O1759 1.274 . S
C1712 C1713 1.385 . S
C1712 C1714 1.381 . S
C1712 N1718 1.432 . S
C1713 C1712 1.385 . S
C1713 C1717 1.388 . S
C1713 H1771 0.929 . S
C1714 C1712 1.381 . S
C1714 C1715 1.371 . S
C1714 H1772 0.932 . S
C1715 C1714 1.371 . S
C1715 C1716 1.400 . S
C1716 C1715 1.400 . S
C1716 C1717 1.351 . S
C1716 H1773 0.930 . S
C1717 C1713 1.388 . S
C1717 C1716 1.351 . S
N1718 C1693 1.329 . S
N1718 Co1702 1.955 . S
N1718 C1712 1.432 . S
N1719 Co1702 1.958 . S
N1719 C1703 1.324 . S
N1719 C1705 1.427 . S
N1720 Co1702 1.953 . S
N1720 C1721 1.436 . S
N1720 C1747 1.316 . S
C1721 N1720 1.436 . S
C1721 C1722 1.421 . S
C1721 C1723 1.360 . S
C1722 C1721 1.421 . S
C1722 C1724 1.379 . S
C1722 H1725 0.929 . S
C1723 C1721 1.360 . S
C1723 C1727 1.393 . S
C1723 H1729 0.931 . S
C1724 C1722 1.379 . S
C1724 C1726 1.417 . S
C1724 C1728 1.505 . S
H1725 C1722 0.929 . S
C1726 C1724 1.417 . S
C1726 C1727 1.352 . S
C1726 H1730 0.929 . S
C1727 C1723 1.393 . S
C1727 C1726 1.352 . S
C1727 C1731 1.482 . S
C1728 C1724 1.505 . S
C1728 O1732 1.259 . S
C1728 O1733 1.229 . S
H1729 C1723 0.931 . S
H1730 C1726 0.929 . S
C1731 C1727 1.482 . S
C1731 O1734 1.207 . S
C1731 O1735 1.289 . S
O1732 C1728 1.259 . S
O1732 H1736 0.822 . S
O1733 C1728 1.229 . S
O1734 C1731 1.207 . S
O1735 C1731 1.289 . S
O1735 H1737 0.819 . S
H1736 O1732 0.822 . S
H1737 O1735 0.819 . S
N1738 Co1702 1.869 . S
N1738 C1739 1.330 . S
N1738 C1743 1.325 . S
C1739 N1738 1.330 . S
C1739 C1740 1.359 . S
C1739 C1745 1.504 . S
C1740 C1739 1.359 . S
C1740 C1741 1.366 . S
C1740 H1774 0.929 . S
C1741 C1740 1.366 . S
C1741 C1742 1.415 . S
C1741 H1775 0.932 . S
C1742 C1741 1.415 . S
C1742 C1743 1.366 . S
C1742 H1776 0.931 . S
C1743 N1738 1.325 . S
C1743 C1742 1.366 . S
C1743 C1747 1.516 . S
N1744 Co1702 1.974 . S
N1744 C1745 1.309 . S
N1744 C1750 1.423 . S
C1745 C1739 1.504 . S
C1745 N1744 1.309 . S
C1745 O1746 1.258 . S
O1746 C1745 1.258 . S
C1747 N1720 1.316 . S
C1747 C1743 1.516 . S
C1747 O1760 1.263 . S
O1748 Cd1691 2.350 . S
O1748 C1764 1.270 . S
O1749 Cd1691 2.277 . S
O1749 C1764 1.248 . S
C1750 N1744 1.423 . S
C1750 C1751 1.370 . S
C1750 C1755 1.403 . S
C1751 C1750 1.370 . S
C1751 C1752 1.389 . S
C1751 H1777 0.931 . S
C1752 C1751 1.389 . S
C1752 C1753 1.389 . S
C1753 C1752 1.389 . S
C1753 C1754 1.379 . S
C1753 H1778 0.929 . S
C1754 C1753 1.379 . S
C1754 C1755 1.405 . S
C1755 C1750 1.403 . S
C1755 C1754 1.405 . S
C1755 H1779 0.932 . S
O1756 Cd1691 2.173 . S
O1756 C1692 1.277 . S
O1757 C1692 1.230 . S
O1757 Cd1695 2.250 . S
O1758 Cd1691 2.263 . S
O1758 C1711 1.258 . S
O1759 Cd1695 2.308 . S
O1759 C1711 1.274 . S
O1760 Cd1691 2.366 . S
O1760 C1747 1.263 . S
C1761 O1762 1.235 . S
C1761 O1763 1.270 . S
O1762 Cd1695 2.352 . S
O1762 C1761 1.235 . S
O1763 Cd1691 2.329 . S
O1763 C1761 1.270 . S
C1764 O1748 1.270 . S
C1764 O1749 1.248 . S
H1765 C1697 0.930 . S
H1766 C1700 0.930 . S
H1767 C1701 0.931 . S
H1768 C1706 0.929 . S
H1769 C1708 0.930 . S
H1770 C1710 0.930 . S
H1771 C1713 0.929 . S
H1772 C1714 0.932 . S
H1773 C1716 0.930 . S
H1774 C1740 0.929 . S
H1775 C1741 0.932 . S
H1776 C1742 0.931 . S
H1777 C1751 0.931 . S
H1778 C1753 0.929 . S
H1779 C1755 0.932 . S
Cd1780 O1837 2.350 . S
Cd1780 O1838 2.277 . S
Cd1780 O1845 2.173 . S
Cd1780 O1847 2.263 . S
Cd1780 O1849 2.366 . S
Cd1780 O1852 2.329 . S
C1781 O1845 1.277 . S
C1781 O1846 1.230 . S
C1782 O1783 1.246 . S
C1782 C1785 1.481 . S
C1782 N1807 1.329 . S
O1783 C1782 1.246 . S
Cd1784 O1846 2.250 . S
Cd1784 O1848 2.308 . S
Cd1784 O1851 2.352 . S
C1785 C1782 1.481 . S
C1785 N1788 1.327 . S
C1785 C1789 1.407 . S
C1786 C1787 1.346 . S
C1786 C1790 1.390 . S
C1786 H1854 0.930 . S
C1787 C1786 1.346 . S
C1787 N1788 1.342 . S
C1787 C1792 1.516 . S
N1788 C1785 1.327 . S
N1788 C1787 1.342 . S
N1788 Co1791 1.864 . S
C1789 C1785 1.407 . S
C1789 C1790 1.364 . S
C1789 H1855 0.930 . S
C1790 C1786 1.390 . S
C1790 C1789 1.364 . S
C1790 H1856 0.931 . S
Co1791 N1788 1.864 . S
Co1791 N1807 1.955 . S
Co1791 N1808 1.958 . S
Co1791 N1809 1.953 . S
Co1791 N1827 1.869 . S
Co1791 N1833 1.974 . S
C1792 C1787 1.516 . S
C1792 O1793 1.238 . S
C1792 N1808 1.324 . S
O1793 C1792 1.238 . S
C1794 C1795 1.394 . S
C1794 C1799 1.395 . S
C1794 N1808 1.427 . S
C1795 C1794 1.394 . S
C1795 C1796 1.380 . S
C1795 H1857 0.929 . S
C1796 C1795 1.380 . S
C1796 C1797 1.384 . S
C1796 C1800 1.495 . S
C1797 C1796 1.384 . S
C1797 C1798 1.382 . S
C1797 H1858 0.930 . S
C1798 C1797 1.382 . S
C1798 C1799 1.398 . S
C1799 C1794 1.395 . S
C1799 C1798 1.398 . S
C1799 H1859 0.930 . S
C1800 C1796 1.495 . S
C1800 O1847 1.258 . S
C1800 O1848 1.274 . S
C1801 C1802 1.385 . S
C1801 C1803 1.381 . S
C1801 N1807 1.432 . S
C1802 C1801 1.385 . S
C1802 C1806 1.388 1_655 S
C1802 H1860 0.929 . S
C1803 C1801 1.381 . S
C1803 C1804 1.371 1_655 S
C1803 H1861 0.932 . S
C1804 C1803 1.371 1_455 S
C1804 C1805 1.400 . S
C1805 C1804 1.400 . S
C1805 C1806 1.351 . S
C1805 H1862 0.930 . S
C1806 C1802 1.388 1_455 S
C1806 C1805 1.351 . S
N1807 C1782 1.329 . S
N1807 Co1791 1.955 . S
N1807 C1801 1.432 . S
N1808 Co1791 1.958 . S
N1808 C1792 1.324 . S
N1808 C1794 1.427 . S
N1809 Co1791 1.953 . S
N1809 C1810 1.436 . S
N1809 C1836 1.316 . S
C1810 N1809 1.436 . S
C1810 C1811 1.421 . S
C1810 C1812 1.360 . S
C1811 C1810 1.421 . S
C1811 C1813 1.379 . S
C1811 H1814 0.929 . S
C1812 C1810 1.360 . S
C1812 C1816 1.393 . S
C1812 H1818 0.931 . S
C1813 C1811 1.379 . S
C1813 C1815 1.417 . S
C1813 C1817 1.505 . S
H1814 C1811 0.929 . S
C1815 C1813 1.417 . S
C1815 C1816 1.352 . S
C1815 H1819 0.929 . S
C1816 C1812 1.393 . S
C1816 C1815 1.352 . S
C1816 C1820 1.482 . S
C1817 C1813 1.505 . S
C1817 O1821 1.259 . S
C1817 O1822 1.229 . S
H1818 C1812 0.931 . S
H1819 C1815 0.929 . S
C1820 C1816 1.482 . S
C1820 O1823 1.207 . S
C1820 O1824 1.289 . S
O1821 C1817 1.259 . S
O1821 H1825 0.822 . S
O1822 C1817 1.229 . S
O1823 C1820 1.207 . S
O1824 C1820 1.289 . S
O1824 H1826 0.819 . S
H1825 O1821 0.822 . S
H1826 O1824 0.819 . S
N1827 Co1791 1.869 . S
N1827 C1828 1.330 . S
N1827 C1832 1.325 . S
C1828 N1827 1.330 . S
C1828 C1829 1.359 . S
C1828 C1834 1.504 . S
C1829 C1828 1.359 . S
C1829 C1830 1.366 . S
C1829 H1863 0.929 . S
C1830 C1829 1.366 . S
C1830 C1831 1.415 . S
C1830 H1864 0.932 . S
C1831 C1830 1.415 . S
C1831 C1832 1.366 . S
C1831 H1865 0.931 . S
C1832 N1827 1.325 . S
C1832 C1831 1.366 . S
C1832 C1836 1.516 . S
N1833 Co1791 1.974 . S
N1833 C1834 1.309 . S
N1833 C1839 1.423 . S
C1834 C1828 1.504 . S
C1834 N1833 1.309 . S
C1834 O1835 1.258 . S
O1835 C1834 1.258 . S
C1836 N1809 1.316 . S
C1836 C1832 1.516 . S
C1836 O1849 1.263 . S
O1837 Cd1780 2.350 . S
O1837 C1853 1.270 . S
O1838 Cd1780 2.277 . S
O1838 C1853 1.248 . S
C1839 N1833 1.423 . S
C1839 C1840 1.370 . S
C1839 C1844 1.403 . S
C1840 C1839 1.370 . S
C1840 C1841 1.389 . S
C1840 H1866 0.931 . S
C1841 C1840 1.389 . S
C1841 C1842 1.389 . S
C1842 C1841 1.389 . S
C1842 C1843 1.379 . S
C1842 H1867 0.929 . S
C1843 C1842 1.379 . S
C1843 C1844 1.405 . S
C1844 C1839 1.403 . S
C1844 C1843 1.405 . S
C1844 H1868 0.932 . S
O1845 Cd1780 2.173 . S
O1845 C1781 1.277 . S
O1846 C1781 1.230 . S
O1846 Cd1784 2.250 . S
O1847 Cd1780 2.263 . S
O1847 C1800 1.258 . S
O1848 Cd1784 2.308 . S
O1848 C1800 1.274 . S
O1849 Cd1780 2.366 . S
O1849 C1836 1.263 . S
C1850 O1851 1.235 . S
C1850 O1852 1.270 . S
O1851 Cd1784 2.352 . S
O1851 C1850 1.235 . S
O1852 Cd1780 2.329 . S
O1852 C1850 1.270 . S
C1853 O1837 1.270 . S
C1853 O1838 1.248 . S
H1854 C1786 0.930 . S
H1855 C1789 0.930 . S
H1856 C1790 0.931 . S
H1857 C1795 0.929 . S
H1858 C1797 0.930 . S
H1859 C1799 0.930 . S
H1860 C1802 0.929 . S
H1861 C1803 0.932 . S
H1862 C1805 0.930 . S
H1863 C1829 0.929 . S
H1864 C1830 0.932 . S
H1865 C1831 0.931 . S
H1866 C1840 0.931 . S
H1867 C1842 0.929 . S
H1868 C1844 0.932 . S
Cd1869 O1926 2.350 . S
Cd1869 O1927 2.277 . S
Cd1869 O1934 2.173 . S
Cd1869 O1936 2.263 . S
Cd1869 O1938 2.366 . S
Cd1869 O1941 2.329 . S
C1870 O1934 1.277 . S
C1870 O1935 1.230 . S
C1871 O1872 1.246 . S
C1871 C1874 1.481 . S
C1871 N1896 1.329 . S
O1872 C1871 1.246 . S
Cd1873 O1935 2.250 . S
Cd1873 O1937 2.308 . S
Cd1873 O1940 2.352 . S
C1874 C1871 1.481 . S
C1874 N1877 1.327 . S
C1874 C1878 1.407 . S
C1875 C1876 1.346 . S
C1875 C1879 1.390 . S
C1875 H1943 0.930 . S
C1876 C1875 1.346 . S
C1876 N1877 1.342 . S
C1876 C1881 1.516 . S
N1877 C1874 1.327 . S
N1877 C1876 1.342 . S
N1877 Co1880 1.864 . S
C1878 C1874 1.407 . S
C1878 C1879 1.364 . S
C1878 H1944 0.930 . S
C1879 C1875 1.390 . S
C1879 C1878 1.364 . S
C1879 H1945 0.931 . S
Co1880 N1877 1.864 . S
Co1880 N1896 1.955 . S
Co1880 N1897 1.958 . S
Co1880 N1898 1.953 . S
Co1880 N1916 1.869 . S
Co1880 N1922 1.974 . S
C1881 C1876 1.516 . S
C1881 O1882 1.238 . S
C1881 N1897 1.324 . S
O1882 C1881 1.238 . S
C1883 C1884 1.394 . S
C1883 C1888 1.395 . S
C1883 N1897 1.427 . S
C1884 C1883 1.394 . S
C1884 C1885 1.380 . S
C1884 H1946 0.929 . S
C1885 C1884 1.380 . S
C1885 C1886 1.384 . S
C1885 C1889 1.495 . S
C1886 C1885 1.384 . S
C1886 C1887 1.382 . S
C1886 H1947 0.930 . S
C1887 C1886 1.382 . S
C1887 C1888 1.398 . S
C1888 C1883 1.395 . S
C1888 C1887 1.398 . S
C1888 H1948 0.930 . S
C1889 C1885 1.495 . S
C1889 O1936 1.258 . S
C1889 O1937 1.274 . S
C1890 C1891 1.385 . S
C1890 C1892 1.381 . S
C1890 N1896 1.432 . S
C1891 C1890 1.385 . S
C1891 C1895 1.388 . S
C1891 H1949 0.929 . S
C1892 C1890 1.381 . S
C1892 C1893 1.371 . S
C1892 H1950 0.932 . S
C1893 C1892 1.371 . S
C1893 C1894 1.400 . S
C1894 C1893 1.400 . S
C1894 C1895 1.351 . S
C1894 H1951 0.930 . S
C1895 C1891 1.388 . S
C1895 C1894 1.351 . S
N1896 C1871 1.329 . S
N1896 Co1880 1.955 . S
N1896 C1890 1.432 . S
N1897 Co1880 1.958 . S
N1897 C1881 1.324 . S
N1897 C1883 1.427 . S
N1898 Co1880 1.953 . S
N1898 C1899 1.436 . S
N1898 C1925 1.316 . S
C1899 N1898 1.436 . S
C1899 C1900 1.421 . S
C1899 C1901 1.360 . S
C1900 C1899 1.421 . S
C1900 C1902 1.379 . S
C1900 H1903 0.929 . S
C1901 C1899 1.360 . S
C1901 C1905 1.393 . S
C1901 H1907 0.931 . S
C1902 C1900 1.379 . S
C1902 C1904 1.417 . S
C1902 C1906 1.505 . S
H1903 C1900 0.929 . S
C1904 C1902 1.417 . S
C1904 C1905 1.352 . S
C1904 H1908 0.929 . S
C1905 C1901 1.393 . S
C1905 C1904 1.352 . S
C1905 C1909 1.482 . S
C1906 C1902 1.505 . S
C1906 O1910 1.259 . S
C1906 O1911 1.229 . S
H1907 C1901 0.931 . S
H1908 C1904 0.929 . S
C1909 C1905 1.482 . S
C1909 O1912 1.207 . S
C1909 O1913 1.289 . S
O1910 C1906 1.259 . S
O1910 H1914 0.822 . S
O1911 C1906 1.229 . S
O1912 C1909 1.207 . S
O1913 C1909 1.289 . S
O1913 H1915 0.819 . S
H1914 O1910 0.822 . S
H1915 O1913 0.819 . S
N1916 Co1880 1.869 . S
N1916 C1917 1.330 . S
N1916 C1921 1.325 . S
C1917 N1916 1.330 . S
C1917 C1918 1.359 . S
C1917 C1923 1.504 . S
C1918 C1917 1.359 . S
C1918 C1919 1.366 . S
C1918 H1952 0.929 . S
C1919 C1918 1.366 . S
C1919 C1920 1.415 . S
C1919 H1953 0.932 . S
C1920 C1919 1.415 . S
C1920 C1921 1.366 . S
C1920 H1954 0.931 . S
C1921 N1916 1.325 . S
C1921 C1920 1.366 . S
C1921 C1925 1.516 . S
N1922 Co1880 1.974 . S
N1922 C1923 1.309 . S
N1922 C1928 1.423 . S
C1923 C1917 1.504 . S
C1923 N1922 1.309 . S
C1923 O1924 1.258 . S
O1924 C1923 1.258 . S
C1925 N1898 1.316 . S
C1925 C1921 1.516 . S
C1925 O1938 1.263 . S
O1926 Cd1869 2.350 . S
O1926 C1942 1.270 . S
O1927 Cd1869 2.277 . S
O1927 C1942 1.248 . S
C1928 N1922 1.423 . S
C1928 C1929 1.370 . S
C1928 C1933 1.403 . S
C1929 C1928 1.370 . S
C1929 C1930 1.389 . S
C1929 H1955 0.931 . S
C1930 C1929 1.389 . S
C1930 C1931 1.389 . S
C1931 C1930 1.389 . S
C1931 C1932 1.379 . S
C1931 H1956 0.929 . S
C1932 C1931 1.379 . S
C1932 C1933 1.405 . S
C1933 C1928 1.403 . S
C1933 C1932 1.405 . S
C1933 H1957 0.932 . S
O1934 Cd1869 2.173 . S
O1934 C1870 1.277 . S
O1935 C1870 1.230 . S
O1935 Cd1873 2.250 . S
O1936 Cd1869 2.263 . S
O1936 C1889 1.258 . S
O1937 Cd1873 2.308 . S
O1937 C1889 1.274 . S
O1938 Cd1869 2.366 . S
O1938 C1925 1.263 . S
C1939 O1940 1.235 . S
C1939 O1941 1.270 . S
O1940 Cd1873 2.352 . S
O1940 C1939 1.235 . S
O1941 Cd1869 2.329 . S
O1941 C1939 1.270 . S
C1942 O1926 1.270 . S
C1942 O1927 1.248 . S
H1943 C1875 0.930 . S
H1944 C1878 0.930 . S
H1945 C1879 0.931 . S
H1946 C1884 0.929 . S
H1947 C1886 0.930 . S
H1948 C1888 0.930 . S
H1949 C1891 0.929 . S
H1950 C1892 0.932 . S
H1951 C1894 0.930 . S
H1952 C1918 0.929 . S
H1953 C1919 0.932 . S
H1954 C1920 0.931 . S
H1955 C1929 0.931 . S
H1956 C1931 0.929 . S
H1957 C1933 0.932 . S
Cd1958 O2015 2.350 . S
Cd1958 O2016 2.277 . S
Cd1958 O2023 2.173 . S
Cd1958 O2025 2.263 . S
Cd1958 O2027 2.366 . S
Cd1958 O2030 2.329 . S
C1959 O2023 1.277 . S
C1959 O2024 1.230 . S
C1960 O1961 1.246 . S
C1960 C1963 1.481 . S
C1960 N1985 1.329 . S
O1961 C1960 1.246 . S
Cd1962 O2024 2.250 . S
Cd1962 O2026 2.308 . S
Cd1962 O2029 2.352 . S
C1963 C1960 1.481 . S
C1963 N1966 1.327 . S
C1963 C1967 1.407 . S
C1964 C1965 1.346 . S
C1964 C1968 1.390 . S
C1964 H2032 0.930 . S
C1965 C1964 1.346 . S
C1965 N1966 1.342 . S
C1965 C1970 1.516 . S
N1966 C1963 1.327 . S
N1966 C1965 1.342 . S
N1966 Co1969 1.864 . S
C1967 C1963 1.407 . S
C1967 C1968 1.364 . S
C1967 H2033 0.930 . S
C1968 C1964 1.390 . S
C1968 C1967 1.364 . S
C1968 H2034 0.931 . S
Co1969 N1966 1.864 . S
Co1969 N1985 1.955 . S
Co1969 N1986 1.958 . S
Co1969 N1987 1.953 . S
Co1969 N2005 1.869 . S
Co1969 N2011 1.974 . S
C1970 C1965 1.516 . S
C1970 O1971 1.238 . S
C1970 N1986 1.324 . S
O1971 C1970 1.238 . S
C1972 C1973 1.394 . S
C1972 C1977 1.395 . S
C1972 N1986 1.427 . S
C1973 C1972 1.394 . S
C1973 C1974 1.380 . S
C1973 H2035 0.929 . S
C1974 C1973 1.380 . S
C1974 C1975 1.384 . S
C1974 C1978 1.495 . S
C1975 C1974 1.384 . S
C1975 C1976 1.382 . S
C1975 H2036 0.930 . S
C1976 C1975 1.382 . S
C1976 C1977 1.398 . S
C1977 C1972 1.395 . S
C1977 C1976 1.398 . S
C1977 H2037 0.930 . S
C1978 C1974 1.495 . S
C1978 O2025 1.258 . S
C1978 O2026 1.274 . S
C1979 C1980 1.385 . S
C1979 C1981 1.381 . S
C1979 N1985 1.432 . S
C1980 C1979 1.385 . S
C1980 C1984 1.388 . S
C1980 H2038 0.929 . S
C1981 C1979 1.381 . S
C1981 C1982 1.371 . S
C1981 H2039 0.932 . S
C1982 C1981 1.371 . S
C1982 C1983 1.400 . S
C1983 C1982 1.400 . S
C1983 C1984 1.351 . S
C1983 H2040 0.930 . S
C1984 C1980 1.388 . S
C1984 C1983 1.351 . S
N1985 C1960 1.329 . S
N1985 Co1969 1.955 . S
N1985 C1979 1.432 . S
N1986 Co1969 1.958 . S
N1986 C1970 1.324 . S
N1986 C1972 1.427 . S
N1987 Co1969 1.953 . S
N1987 C1988 1.436 . S
N1987 C2014 1.316 . S
C1988 N1987 1.436 . S
C1988 C1989 1.421 . S
C1988 C1990 1.360 . S
C1989 C1988 1.421 . S
C1989 C1991 1.379 . S
C1989 H1992 0.929 . S
C1990 C1988 1.360 . S
C1990 C1994 1.393 . S
C1990 H1996 0.931 . S
C1991 C1989 1.379 . S
C1991 C1993 1.417 . S
C1991 C1995 1.505 . S
H1992 C1989 0.929 . S
C1993 C1991 1.417 . S
C1993 C1994 1.352 . S
C1993 H1997 0.929 . S
C1994 C1990 1.393 . S
C1994 C1993 1.352 . S
C1994 C1998 1.482 . S
C1995 C1991 1.505 . S
C1995 O1999 1.259 . S
C1995 O2000 1.229 . S
H1996 C1990 0.931 . S
H1997 C1993 0.929 . S
C1998 C1994 1.482 . S
C1998 O2001 1.207 . S
C1998 O2002 1.289 . S
O1999 C1995 1.259 . S
O1999 H2003 0.822 . S
O2000 C1995 1.229 . S
O2001 C1998 1.207 . S
O2002 C1998 1.289 . S
O2002 H2004 0.819 . S
H2003 O1999 0.822 . S
H2004 O2002 0.819 . S
N2005 Co1969 1.869 . S
N2005 C2006 1.330 . S
N2005 C2010 1.325 . S
C2006 N2005 1.330 . S
C2006 C2007 1.359 . S
C2006 C2012 1.504 . S
C2007 C2006 1.359 . S
C2007 C2008 1.366 . S
C2007 H2041 0.929 . S
C2008 C2007 1.366 . S
C2008 C2009 1.415 . S
C2008 H2042 0.932 . S
C2009 C2008 1.415 . S
C2009 C2010 1.366 . S
C2009 H2043 0.931 . S
C2010 N2005 1.325 . S
C2010 C2009 1.366 . S
C2010 C2014 1.516 . S
N2011 Co1969 1.974 . S
N2011 C2012 1.309 . S
N2011 C2017 1.423 . S
C2012 C2006 1.504 . S
C2012 N2011 1.309 . S
C2012 O2013 1.258 . S
O2013 C2012 1.258 . S
C2014 N1987 1.316 . S
C2014 C2010 1.516 . S
C2014 O2027 1.263 . S
O2015 Cd1958 2.350 . S
O2015 C2031 1.270 . S
O2016 Cd1958 2.277 . S
O2016 C2031 1.248 . S
C2017 N2011 1.423 . S
C2017 C2018 1.370 . S
C2017 C2022 1.403 . S
C2018 C2017 1.370 . S
C2018 C2019 1.389 . S
C2018 H2044 0.931 . S
C2019 C2018 1.389 . S
C2019 C2020 1.389 . S
C2020 C2019 1.389 . S
C2020 C2021 1.379 . S
C2020 H2045 0.929 . S
C2021 C2020 1.379 . S
C2021 C2022 1.405 . S
C2022 C2017 1.403 . S
C2022 C2021 1.405 . S
C2022 H2046 0.932 . S
O2023 Cd1958 2.173 . S
O2023 C1959 1.277 . S
O2024 C1959 1.230 . S
O2024 Cd1962 2.250 . S
O2025 Cd1958 2.263 . S
O2025 C1978 1.258 . S
O2026 Cd1962 2.308 . S
O2026 C1978 1.274 . S
O2027 Cd1958 2.366 . S
O2027 C2014 1.263 . S
C2028 O2029 1.235 . S
C2028 O2030 1.270 . S
O2029 Cd1962 2.352 . S
O2029 C2028 1.235 . S
O2030 Cd1958 2.329 . S
O2030 C2028 1.270 . S
C2031 O2015 1.270 . S
C2031 O2016 1.248 . S
H2032 C1964 0.930 . S
H2033 C1967 0.930 . S
H2034 C1968 0.931 . S
H2035 C1973 0.929 . S
H2036 C1975 0.930 . S
H2037 C1977 0.930 . S
H2038 C1980 0.929 . S
H2039 C1981 0.932 . S
H2040 C1983 0.930 . S
H2041 C2007 0.929 . S
H2042 C2008 0.932 . S
H2043 C2009 0.931 . S
H2044 C2018 0.931 . S
H2045 C2020 0.929 . S
H2046 C2022 0.932 . S
Cd2047 O2104 2.350 . S
Cd2047 O2105 2.277 . S
Cd2047 O2112 2.173 . S
Cd2047 O2114 2.263 . S
Cd2047 O2116 2.366 . S
Cd2047 O2119 2.329 . S
C2048 O2112 1.277 . S
C2048 O2113 1.230 . S
C2049 O2050 1.246 . S
C2049 C2052 1.481 . S
C2049 N2074 1.329 . S
O2050 C2049 1.246 . S
Cd2051 O2113 2.250 . S
Cd2051 O2115 2.308 . S
Cd2051 O2118 2.352 . S
C2052 C2049 1.481 . S
C2052 N2055 1.327 . S
C2052 C2056 1.407 . S
C2053 C2054 1.346 . S
C2053 C2057 1.390 . S
C2053 H2121 0.930 . S
C2054 C2053 1.346 . S
C2054 N2055 1.342 . S
C2054 C2059 1.516 . S
N2055 C2052 1.327 . S
N2055 C2054 1.342 . S
N2055 Co2058 1.864 . S
C2056 C2052 1.407 . S
C2056 C2057 1.364 . S
C2056 H2122 0.930 . S
C2057 C2053 1.390 . S
C2057 C2056 1.364 . S
C2057 H2123 0.931 . S
Co2058 N2055 1.864 . S
Co2058 N2074 1.955 . S
Co2058 N2075 1.958 . S
Co2058 N2076 1.953 . S
Co2058 N2094 1.869 . S
Co2058 N2100 1.974 . S
C2059 C2054 1.516 . S
C2059 O2060 1.238 . S
C2059 N2075 1.324 . S
O2060 C2059 1.238 . S
C2061 C2062 1.394 . S
C2061 C2066 1.395 . S
C2061 N2075 1.427 . S
C2062 C2061 1.394 . S
C2062 C2063 1.380 . S
C2062 H2124 0.929 . S
C2063 C2062 1.380 . S
C2063 C2064 1.384 . S
C2063 C2067 1.495 . S
C2064 C2063 1.384 . S
C2064 C2065 1.382 . S
C2064 H2125 0.930 . S
C2065 C2064 1.382 . S
C2065 C2066 1.398 . S
C2066 C2061 1.395 . S
C2066 C2065 1.398 . S
C2066 H2126 0.930 . S
C2067 C2063 1.495 . S
C2067 O2114 1.258 . S
C2067 O2115 1.274 . S
C2068 C2069 1.385 . S
C2068 C2070 1.381 . S
C2068 N2074 1.432 . S
C2069 C2068 1.385 . S
C2069 C2073 1.388 . S
C2069 H2127 0.929 . S
C2070 C2068 1.381 . S
C2070 C2071 1.371 . S
C2070 H2128 0.932 . S
C2071 C2070 1.371 . S
C2071 C2072 1.400 . S
C2072 C2071 1.400 . S
C2072 C2073 1.351 . S
C2072 H2129 0.930 . S
C2073 C2069 1.388 . S
C2073 C2072 1.351 . S
N2074 C2049 1.329 . S
N2074 Co2058 1.955 . S
N2074 C2068 1.432 . S
N2075 Co2058 1.958 . S
N2075 C2059 1.324 . S
N2075 C2061 1.427 . S
N2076 Co2058 1.953 . S
N2076 C2077 1.436 . S
N2076 C2103 1.316 . S
C2077 N2076 1.436 . S
C2077 C2078 1.421 . S
C2077 C2079 1.360 . S
C2078 C2077 1.421 . S
C2078 C2080 1.379 . S
C2078 H2081 0.929 . S
C2079 C2077 1.360 . S
C2079 C2083 1.393 . S
C2079 H2085 0.931 . S
C2080 C2078 1.379 . S
C2080 C2082 1.417 . S
C2080 C2084 1.505 . S
H2081 C2078 0.929 . S
C2082 C2080 1.417 . S
C2082 C2083 1.352 . S
C2082 H2086 0.929 . S
C2083 C2079 1.393 . S
C2083 C2082 1.352 . S
C2083 C2087 1.482 . S
C2084 C2080 1.505 . S
C2084 O2088 1.259 . S
C2084 O2089 1.229 . S
H2085 C2079 0.931 . S
H2086 C2082 0.929 . S
C2087 C2083 1.482 . S
C2087 O2090 1.207 . S
C2087 O2091 1.289 . S
O2088 C2084 1.259 . S
O2088 H2092 0.822 . S
O2089 C2084 1.229 . S
O2090 C2087 1.207 . S
O2091 C2087 1.289 . S
O2091 H2093 0.819 . S
H2092 O2088 0.822 . S
H2093 O2091 0.819 . S
N2094 Co2058 1.869 . S
N2094 C2095 1.330 . S
N2094 C2099 1.325 . S
C2095 N2094 1.330 . S
C2095 C2096 1.359 . S
C2095 C2101 1.504 . S
C2096 C2095 1.359 . S
C2096 C2097 1.366 . S
C2096 H2130 0.929 . S
C2097 C2096 1.366 . S
C2097 C2098 1.415 . S
C2097 H2131 0.932 . S
C2098 C2097 1.415 . S
C2098 C2099 1.366 . S
C2098 H2132 0.931 . S
C2099 N2094 1.325 . S
C2099 C2098 1.366 . S
C2099 C2103 1.516 . S
N2100 Co2058 1.974 . S
N2100 C2101 1.309 . S
N2100 C2106 1.423 . S
C2101 C2095 1.504 . S
C2101 N2100 1.309 . S
C2101 O2102 1.258 . S
O2102 C2101 1.258 . S
C2103 N2076 1.316 . S
C2103 C2099 1.516 . S
C2103 O2116 1.263 . S
O2104 Cd2047 2.350 . S
O2104 C2120 1.270 . S
O2105 Cd2047 2.277 . S
O2105 C2120 1.248 . S
C2106 N2100 1.423 . S
C2106 C2107 1.370 . S
C2106 C2111 1.403 . S
C2107 C2106 1.370 . S
C2107 C2108 1.389 . S
C2107 H2133 0.931 . S
C2108 C2107 1.389 . S
C2108 C2109 1.389 . S
C2109 C2108 1.389 . S
C2109 C2110 1.379 . S
C2109 H2134 0.929 . S
C2110 C2109 1.379 . S
C2110 C2111 1.405 . S
C2111 C2106 1.403 . S
C2111 C2110 1.405 . S
C2111 H2135 0.932 . S
O2112 Cd2047 2.173 . S
O2112 C2048 1.277 . S
O2113 C2048 1.230 . S
O2113 Cd2051 2.250 . S
O2114 Cd2047 2.263 . S
O2114 C2067 1.258 . S
O2115 Cd2051 2.308 . S
O2115 C2067 1.274 . S
O2116 Cd2047 2.366 . S
O2116 C2103 1.263 . S
C2117 O2118 1.235 . S
C2117 O2119 1.270 . S
O2118 Cd2051 2.352 . S
O2118 C2117 1.235 . S
O2119 Cd2047 2.329 . S
O2119 C2117 1.270 . S
C2120 O2104 1.270 . S
C2120 O2105 1.248 . S
H2121 C2053 0.930 . S
H2122 C2056 0.930 . S
H2123 C2057 0.931 . S
H2124 C2062 0.929 . S
H2125 C2064 0.930 . S
H2126 C2066 0.930 . S
H2127 C2069 0.929 . S
H2128 C2070 0.932 . S
H2129 C2072 0.930 . S
H2130 C2096 0.929 . S
H2131 C2097 0.932 . S
H2132 C2098 0.931 . S
H2133 C2107 0.931 . S
H2134 C2109 0.929 . S
H2135 C2111 0.932 . S
Cd2136 O2193 2.350 . S
Cd2136 O2194 2.277 . S
Cd2136 O2201 2.173 . S
Cd2136 O2203 2.263 . S
Cd2136 O2205 2.366 . S
Cd2136 O2208 2.329 . S
C2137 O2201 1.277 . S
C2137 O2202 1.230 . S
C2138 O2139 1.246 . S
C2138 C2141 1.481 . S
C2138 N2163 1.329 . S
O2139 C2138 1.246 . S
Cd2140 O2202 2.250 . S
Cd2140 O2204 2.308 . S
Cd2140 O2207 2.352 . S
C2141 C2138 1.481 . S
C2141 N2144 1.327 . S
C2141 C2145 1.407 . S
C2142 C2143 1.346 . S
C2142 C2146 1.390 . S
C2142 H2210 0.930 . S
C2143 C2142 1.346 . S
C2143 N2144 1.342 . S
C2143 C2148 1.516 . S
N2144 C2141 1.327 . S
N2144 C2143 1.342 . S
N2144 Co2147 1.864 . S
C2145 C2141 1.407 . S
C2145 C2146 1.364 . S
C2145 H2211 0.930 . S
C2146 C2142 1.390 . S
C2146 C2145 1.364 . S
C2146 H2212 0.931 . S
Co2147 N2144 1.864 . S
Co2147 N2163 1.955 . S
Co2147 N2164 1.958 . S
Co2147 N2165 1.953 . S
Co2147 N2183 1.869 . S
Co2147 N2189 1.974 . S
C2148 C2143 1.516 . S
C2148 O2149 1.238 . S
C2148 N2164 1.324 . S
O2149 C2148 1.238 . S
C2150 C2151 1.394 . S
C2150 C2155 1.395 . S
C2150 N2164 1.427 . S
C2151 C2150 1.394 . S
C2151 C2152 1.380 . S
C2151 H2213 0.929 . S
C2152 C2151 1.380 . S
C2152 C2153 1.384 . S
C2152 C2156 1.495 . S
C2153 C2152 1.384 . S
C2153 C2154 1.382 . S
C2153 H2214 0.930 . S
C2154 C2153 1.382 . S
C2154 C2155 1.398 . S
C2155 C2150 1.395 . S
C2155 C2154 1.398 . S
C2155 H2215 0.930 . S
C2156 C2152 1.495 . S
C2156 O2203 1.258 . S
C2156 O2204 1.274 . S
C2157 C2158 1.385 . S
C2157 C2159 1.381 . S
C2157 N2163 1.432 . S
C2158 C2157 1.385 . S
C2158 C2162 1.388 1_455 S
C2158 H2216 0.929 . S
C2159 C2157 1.381 . S
C2159 C2160 1.371 1_455 S
C2159 H2217 0.932 . S
C2160 C2159 1.371 1_655 S
C2160 C2161 1.400 . S
C2161 C2160 1.400 . S
C2161 C2162 1.351 . S
C2161 H2218 0.930 . S
C2162 C2158 1.388 1_655 S
C2162 C2161 1.351 . S
N2163 C2138 1.329 . S
N2163 Co2147 1.955 . S
N2163 C2157 1.432 . S
N2164 Co2147 1.958 . S
N2164 C2148 1.324 . S
N2164 C2150 1.427 . S
N2165 Co2147 1.953 . S
N2165 C2166 1.436 . S
N2165 C2192 1.316 . S
C2166 N2165 1.436 . S
C2166 C2167 1.421 . S
C2166 C2168 1.360 . S
C2167 C2166 1.421 . S
C2167 C2169 1.379 . S
C2167 H2170 0.929 . S
C2168 C2166 1.360 . S
C2168 C2172 1.393 . S
C2168 H2174 0.931 . S
C2169 C2167 1.379 . S
C2169 C2171 1.417 . S
C2169 C2173 1.505 . S
H2170 C2167 0.929 . S
C2171 C2169 1.417 . S
C2171 C2172 1.352 . S
C2171 H2175 0.929 . S
C2172 C2168 1.393 . S
C2172 C2171 1.352 . S
C2172 C2176 1.482 . S
C2173 C2169 1.505 . S
C2173 O2177 1.259 . S
C2173 O2178 1.229 . S
H2174 C2168 0.931 . S
H2175 C2171 0.929 . S
C2176 C2172 1.482 . S
C2176 O2179 1.207 . S
C2176 O2180 1.289 . S
O2177 C2173 1.259 . S
O2177 H2181 0.822 . S
O2178 C2173 1.229 . S
O2179 C2176 1.207 . S
O2180 C2176 1.289 . S
O2180 H2182 0.819 . S
H2181 O2177 0.822 . S
H2182 O2180 0.819 . S
N2183 Co2147 1.869 . S
N2183 C2184 1.330 . S
N2183 C2188 1.325 . S
C2184 N2183 1.330 . S
C2184 C2185 1.359 . S
C2184 C2190 1.504 . S
C2185 C2184 1.359 . S
C2185 C2186 1.366 . S
C2185 H2219 0.929 . S
C2186 C2185 1.366 . S
C2186 C2187 1.415 . S
C2186 H2220 0.932 . S
C2187 C2186 1.415 . S
C2187 C2188 1.366 . S
C2187 H2221 0.931 . S
C2188 N2183 1.325 . S
C2188 C2187 1.366 . S
C2188 C2192 1.516 . S
N2189 Co2147 1.974 . S
N2189 C2190 1.309 . S
N2189 C2195 1.423 . S
C2190 C2184 1.504 . S
C2190 N2189 1.309 . S
C2190 O2191 1.258 . S
O2191 C2190 1.258 . S
C2192 N2165 1.316 . S
C2192 C2188 1.516 . S
C2192 O2205 1.263 . S
O2193 Cd2136 2.350 . S
O2193 C2209 1.270 . S
O2194 Cd2136 2.277 . S
O2194 C2209 1.248 . S
C2195 N2189 1.423 . S
C2195 C2196 1.370 . S
C2195 C2200 1.403 . S
C2196 C2195 1.370 . S
C2196 C2197 1.389 . S
C2196 H2222 0.931 . S
C2197 C2196 1.389 . S
C2197 C2198 1.389 . S
C2198 C2197 1.389 . S
C2198 C2199 1.379 . S
C2198 H2223 0.929 . S
C2199 C2198 1.379 . S
C2199 C2200 1.405 . S
C2200 C2195 1.403 . S
C2200 C2199 1.405 . S
C2200 H2224 0.932 . S
O2201 Cd2136 2.173 . S
O2201 C2137 1.277 . S
O2202 C2137 1.230 . S
O2202 Cd2140 2.250 . S
O2203 Cd2136 2.263 . S
O2203 C2156 1.258 . S
O2204 Cd2140 2.308 . S
O2204 C2156 1.274 . S
O2205 Cd2136 2.366 . S
O2205 C2192 1.263 . S
C2206 O2207 1.235 . S
C2206 O2208 1.270 . S
O2207 Cd2140 2.352 . S
O2207 C2206 1.235 . S
O2208 Cd2136 2.329 . S
O2208 C2206 1.270 . S
C2209 O2193 1.270 . S
C2209 O2194 1.248 . S
H2210 C2142 0.930 . S
H2211 C2145 0.930 . S
H2212 C2146 0.931 . S
H2213 C2151 0.929 . S
H2214 C2153 0.930 . S
H2215 C2155 0.930 . S
H2216 C2158 0.929 . S
H2217 C2159 0.932 . S
H2218 C2161 0.930 . S
H2219 C2185 0.929 . S
H2220 C2186 0.932 . S
H2221 C2187 0.931 . S
H2222 C2196 0.931 . S
H2223 C2198 0.929 . S
H2224 C2200 0.932 . S
Cd2225 O2282 2.350 . S
Cd2225 O2283 2.277 . S
Cd2225 O2290 2.173 . S
Cd2225 O2292 2.263 . S
Cd2225 O2294 2.366 . S
Cd2225 O2297 2.329 . S
C2226 O2290 1.277 . S
C2226 O2291 1.230 . S
C2227 O2228 1.246 . S
C2227 C2230 1.481 . S
C2227 N2252 1.329 . S
O2228 C2227 1.246 . S
Cd2229 O2291 2.250 . S
Cd2229 O2293 2.308 . S
Cd2229 O2296 2.352 . S
C2230 C2227 1.481 . S
C2230 N2233 1.327 . S
C2230 C2234 1.407 . S
C2231 C2232 1.346 . S
C2231 C2235 1.390 . S
C2231 H2299 0.930 . S
C2232 C2231 1.346 . S
C2232 N2233 1.342 . S
C2232 C2237 1.516 . S
N2233 C2230 1.327 . S
N2233 C2232 1.342 . S
N2233 Co2236 1.864 . S
C2234 C2230 1.407 . S
C2234 C2235 1.364 . S
C2234 H2300 0.930 . S
C2235 C2231 1.390 . S
C2235 C2234 1.364 . S
C2235 H2301 0.931 . S
Co2236 N2233 1.864 . S
Co2236 N2252 1.955 . S
Co2236 N2253 1.958 . S
Co2236 N2254 1.953 . S
Co2236 N2272 1.869 . S
Co2236 N2278 1.974 . S
C2237 C2232 1.516 . S
C2237 O2238 1.238 . S
C2237 N2253 1.324 . S
O2238 C2237 1.238 . S
C2239 C2240 1.394 . S
C2239 C2244 1.395 . S
C2239 N2253 1.427 . S
C2240 C2239 1.394 . S
C2240 C2241 1.380 . S
C2240 H2302 0.929 . S
C2241 C2240 1.380 . S
C2241 C2242 1.384 . S
C2241 C2245 1.495 . S
C2242 C2241 1.384 . S
C2242 C2243 1.382 . S
C2242 H2303 0.930 . S
C2243 C2242 1.382 . S
C2243 C2244 1.398 . S
C2244 C2239 1.395 . S
C2244 C2243 1.398 . S
C2244 H2304 0.930 . S
C2245 C2241 1.495 . S
C2245 O2292 1.258 . S
C2245 O2293 1.274 . S
C2246 C2247 1.385 . S
C2246 C2248 1.381 . S
C2246 N2252 1.432 . S
C2247 C2246 1.385 . S
C2247 C2251 1.388 . S
C2247 H2305 0.929 . S
C2248 C2246 1.381 . S
C2248 C2249 1.371 . S
C2248 H2306 0.932 . S
C2249 C2248 1.371 . S
C2249 C2250 1.400 . S
C2250 C2249 1.400 . S
C2250 C2251 1.351 . S
C2250 H2307 0.930 . S
C2251 C2247 1.388 . S
C2251 C2250 1.351 . S
N2252 C2227 1.329 . S
N2252 Co2236 1.955 . S
N2252 C2246 1.432 . S
N2253 Co2236 1.958 . S
N2253 C2237 1.324 . S
N2253 C2239 1.427 . S
N2254 Co2236 1.953 . S
N2254 C2255 1.436 . S
N2254 C2281 1.316 . S
C2255 N2254 1.436 . S
C2255 C2256 1.421 . S
C2255 C2257 1.360 . S
C2256 C2255 1.421 . S
C2256 C2258 1.379 . S
C2256 H2259 0.929 . S
C2257 C2255 1.360 . S
C2257 C2261 1.393 . S
C2257 H2263 0.931 . S
C2258 C2256 1.379 . S
C2258 C2260 1.417 . S
C2258 C2262 1.505 . S
H2259 C2256 0.929 . S
C2260 C2258 1.417 . S
C2260 C2261 1.352 . S
C2260 H2264 0.929 . S
C2261 C2257 1.393 . S
C2261 C2260 1.352 . S
C2261 C2265 1.482 . S
C2262 C2258 1.505 . S
C2262 O2266 1.259 . S
C2262 O2267 1.229 . S
H2263 C2257 0.931 . S
H2264 C2260 0.929 . S
C2265 C2261 1.482 . S
C2265 O2268 1.207 . S
C2265 O2269 1.289 . S
O2266 C2262 1.259 . S
O2266 H2270 0.822 . S
O2267 C2262 1.229 . S
O2268 C2265 1.207 . S
O2269 C2265 1.289 . S
O2269 H2271 0.819 . S
H2270 O2266 0.822 . S
H2271 O2269 0.819 . S
N2272 Co2236 1.869 . S
N2272 C2273 1.330 . S
N2272 C2277 1.325 . S
C2273 N2272 1.330 . S
C2273 C2274 1.359 . S
C2273 C2279 1.504 . S
C2274 C2273 1.359 . S
C2274 C2275 1.366 . S
C2274 H2308 0.929 . S
C2275 C2274 1.366 . S
C2275 C2276 1.415 . S
C2275 H2309 0.932 . S
C2276 C2275 1.415 . S
C2276 C2277 1.366 . S
C2276 H2310 0.931 . S
C2277 N2272 1.325 . S
C2277 C2276 1.366 . S
C2277 C2281 1.516 . S
N2278 Co2236 1.974 . S
N2278 C2279 1.309 . S
N2278 C2284 1.423 . S
C2279 C2273 1.504 . S
C2279 N2278 1.309 . S
C2279 O2280 1.258 . S
O2280 C2279 1.258 . S
C2281 N2254 1.316 . S
C2281 C2277 1.516 . S
C2281 O2294 1.263 . S
O2282 Cd2225 2.350 . S
O2282 C2298 1.270 . S
O2283 Cd2225 2.277 . S
O2283 C2298 1.248 . S
C2284 N2278 1.423 . S
C2284 C2285 1.370 . S
C2284 C2289 1.403 . S
C2285 C2284 1.370 . S
C2285 C2286 1.389 . S
C2285 H2311 0.931 . S
C2286 C2285 1.389 . S
C2286 C2287 1.389 . S
C2287 C2286 1.389 . S
C2287 C2288 1.379 . S
C2287 H2312 0.929 . S
C2288 C2287 1.379 . S
C2288 C2289 1.405 . S
C2289 C2284 1.403 . S
C2289 C2288 1.405 . S
C2289 H2313 0.932 . S
O2290 Cd2225 2.173 . S
O2290 C2226 1.277 . S
O2291 C2226 1.230 . S
O2291 Cd2229 2.250 . S
O2292 Cd2225 2.263 . S
O2292 C2245 1.258 . S
O2293 Cd2229 2.308 . S
O2293 C2245 1.274 . S
O2294 Cd2225 2.366 . S
O2294 C2281 1.263 . S
C2295 O2296 1.235 . S
C2295 O2297 1.270 . S
O2296 Cd2229 2.352 . S
O2296 C2295 1.235 . S
O2297 Cd2225 2.329 . S
O2297 C2295 1.270 . S
C2298 O2282 1.270 . S
C2298 O2283 1.248 . S
H2299 C2231 0.930 . S
H2300 C2234 0.930 . S
H2301 C2235 0.931 . S
H2302 C2240 0.929 . S
H2303 C2242 0.930 . S
H2304 C2244 0.930 . S
H2305 C2247 0.929 . S
H2306 C2248 0.932 . S
H2307 C2250 0.930 . S
H2308 C2274 0.929 . S
H2309 C2275 0.932 . S
H2310 C2276 0.931 . S
H2311 C2285 0.931 . S
H2312 C2287 0.929 . S
H2313 C2289 0.932 . S
Cd2314 O2371 2.350 . S
Cd2314 O2372 2.277 . S
Cd2314 O2379 2.173 . S
Cd2314 O2381 2.263 . S
Cd2314 O2383 2.366 . S
Cd2314 O2386 2.329 . S
C2315 O2379 1.277 . S
C2315 O2380 1.230 . S
C2316 O2317 1.246 . S
C2316 C2319 1.481 . S
C2316 N2341 1.329 . S
O2317 C2316 1.246 . S
Cd2318 O2380 2.250 . S
Cd2318 O2382 2.308 . S
Cd2318 O2385 2.352 . S
C2319 C2316 1.481 . S
C2319 N2322 1.327 . S
C2319 C2323 1.407 . S
C2320 C2321 1.346 . S
C2320 C2324 1.390 . S
C2320 H2388 0.930 . S
C2321 C2320 1.346 . S
C2321 N2322 1.342 . S
C2321 C2326 1.516 . S
N2322 C2319 1.327 . S
N2322 C2321 1.342 . S
N2322 Co2325 1.864 . S
C2323 C2319 1.407 . S
C2323 C2324 1.364 . S
C2323 H2389 0.930 . S
C2324 C2320 1.390 . S
C2324 C2323 1.364 . S
C2324 H2390 0.931 . S
Co2325 N2322 1.864 . S
Co2325 N2341 1.955 . S
Co2325 N2342 1.958 . S
Co2325 N2343 1.953 . S
Co2325 N2361 1.869 . S
Co2325 N2367 1.974 . S
C2326 C2321 1.516 . S
C2326 O2327 1.238 . S
C2326 N2342 1.324 . S
O2327 C2326 1.238 . S
C2328 C2329 1.394 . S
C2328 C2333 1.395 . S
C2328 N2342 1.427 . S
C2329 C2328 1.394 . S
C2329 C2330 1.380 . S
C2329 H2391 0.929 . S
C2330 C2329 1.380 . S
C2330 C2331 1.384 . S
C2330 C2334 1.495 . S
C2331 C2330 1.384 . S
C2331 C2332 1.382 . S
C2331 H2392 0.930 . S
C2332 C2331 1.382 . S
C2332 C2333 1.398 . S
C2333 C2328 1.395 . S
C2333 C2332 1.398 . S
C2333 H2393 0.930 . S
C2334 C2330 1.495 . S
C2334 O2381 1.258 . S
C2334 O2382 1.274 . S
C2335 C2336 1.385 . S
C2335 C2337 1.381 . S
C2335 N2341 1.432 . S
C2336 C2335 1.385 . S
C2336 C2340 1.388 . S
C2336 H2394 0.929 . S
C2337 C2335 1.381 . S
C2337 C2338 1.371 . S
C2337 H2395 0.932 . S
C2338 C2337 1.371 . S
C2338 C2339 1.400 . S
C2339 C2338 1.400 . S
C2339 C2340 1.351 . S
C2339 H2396 0.930 . S
C2340 C2336 1.388 . S
C2340 C2339 1.351 . S
N2341 C2316 1.329 . S
N2341 Co2325 1.955 . S
N2341 C2335 1.432 . S
N2342 Co2325 1.958 . S
N2342 C2326 1.324 . S
N2342 C2328 1.427 . S
N2343 Co2325 1.953 . S
N2343 C2344 1.436 . S
N2343 C2370 1.316 . S
C2344 N2343 1.436 . S
C2344 C2345 1.421 . S
C2344 C2346 1.360 . S
C2345 C2344 1.421 . S
C2345 C2347 1.379 . S
C2345 H2348 0.929 . S
C2346 C2344 1.360 . S
C2346 C2350 1.393 . S
C2346 H2352 0.931 . S
C2347 C2345 1.379 . S
C2347 C2349 1.417 . S
C2347 C2351 1.505 . S
H2348 C2345 0.929 . S
C2349 C2347 1.417 . S
C2349 C2350 1.352 . S
C2349 H2353 0.929 . S
C2350 C2346 1.393 . S
C2350 C2349 1.352 . S
C2350 C2354 1.482 . S
C2351 C2347 1.505 . S
C2351 O2355 1.259 . S
C2351 O2356 1.229 . S
H2352 C2346 0.931 . S
H2353 C2349 0.929 . S
C2354 C2350 1.482 . S
C2354 O2357 1.207 . S
C2354 O2358 1.289 . S
O2355 C2351 1.259 . S
O2355 H2359 0.822 . S
O2356 C2351 1.229 . S
O2357 C2354 1.207 . S
O2358 C2354 1.289 . S
O2358 H2360 0.819 . S
H2359 O2355 0.822 . S
H2360 O2358 0.819 . S
N2361 Co2325 1.869 . S
N2361 C2362 1.330 . S
N2361 C2366 1.325 . S
C2362 N2361 1.330 . S
C2362 C2363 1.359 . S
C2362 C2368 1.504 . S
C2363 C2362 1.359 . S
C2363 C2364 1.366 . S
C2363 H2397 0.929 . S
C2364 C2363 1.366 . S
C2364 C2365 1.415 . S
C2364 H2398 0.932 . S
C2365 C2364 1.415 . S
C2365 C2366 1.366 . S
C2365 H2399 0.931 . S
C2366 N2361 1.325 . S
C2366 C2365 1.366 . S
C2366 C2370 1.516 . S
N2367 Co2325 1.974 . S
N2367 C2368 1.309 . S
N2367 C2373 1.423 . S
C2368 C2362 1.504 . S
C2368 N2367 1.309 . S
C2368 O2369 1.258 . S
O2369 C2368 1.258 . S
C2370 N2343 1.316 . S
C2370 C2366 1.516 . S
C2370 O2383 1.263 . S
O2371 Cd2314 2.350 . S
O2371 C2387 1.270 . S
O2372 Cd2314 2.277 . S
O2372 C2387 1.248 . S
C2373 N2367 1.423 . S
C2373 C2374 1.370 . S
C2373 C2378 1.403 . S
C2374 C2373 1.370 . S
C2374 C2375 1.389 . S
C2374 H2400 0.931 . S
C2375 C2374 1.389 . S
C2375 C2376 1.389 . S
C2376 C2375 1.389 . S
C2376 C2377 1.379 . S
C2376 H2401 0.929 . S
C2377 C2376 1.379 . S
C2377 C2378 1.405 . S
C2378 C2373 1.403 . S
C2378 C2377 1.405 . S
C2378 H2402 0.932 . S
O2379 Cd2314 2.173 . S
O2379 C2315 1.277 . S
O2380 C2315 1.230 . S
O2380 Cd2318 2.250 . S
O2381 Cd2314 2.263 . S
O2381 C2334 1.258 . S
O2382 Cd2318 2.308 . S
O2382 C2334 1.274 . S
O2383 Cd2314 2.366 . S
O2383 C2370 1.263 . S
C2384 O2385 1.235 . S
C2384 O2386 1.270 . S
O2385 Cd2318 2.352 . S
O2385 C2384 1.235 . S
O2386 Cd2314 2.329 . S
O2386 C2384 1.270 . S
C2387 O2371 1.270 . S
C2387 O2372 1.248 . S
H2388 C2320 0.930 . S
H2389 C2323 0.930 . S
H2390 C2324 0.931 . S
H2391 C2329 0.929 . S
H2392 C2331 0.930 . S
H2393 C2333 0.930 . S
H2394 C2336 0.929 . S
H2395 C2337 0.932 . S
H2396 C2339 0.930 . S
H2397 C2363 0.929 . S
H2398 C2364 0.932 . S
H2399 C2365 0.931 . S
H2400 C2374 0.931 . S
H2401 C2376 0.929 . S
H2402 C2378 0.932 . S
Cd2403 O2460 2.350 . S
Cd2403 O2461 2.277 . S
Cd2403 O2468 2.173 . S
Cd2403 O2470 2.263 . S
Cd2403 O2472 2.366 . S
Cd2403 O2475 2.329 . S
C2404 O2468 1.277 . S
C2404 O2469 1.230 . S
C2405 O2406 1.246 . S
C2405 C2408 1.481 . S
C2405 N2430 1.329 . S
O2406 C2405 1.246 . S
Cd2407 O2469 2.250 . S
Cd2407 O2471 2.308 . S
Cd2407 O2474 2.352 . S
C2408 C2405 1.481 . S
C2408 N2411 1.327 . S
C2408 C2412 1.407 . S
C2409 C2410 1.346 . S
C2409 C2413 1.390 . S
C2409 H2477 0.930 . S
C2410 C2409 1.346 . S
C2410 N2411 1.342 . S
C2410 C2415 1.516 . S
N2411 C2408 1.327 . S
N2411 C2410 1.342 . S
N2411 Co2414 1.864 . S
C2412 C2408 1.407 . S
C2412 C2413 1.364 . S
C2412 H2478 0.930 . S
C2413 C2409 1.390 . S
C2413 C2412 1.364 . S
C2413 H2479 0.931 . S
Co2414 N2411 1.864 . S
Co2414 N2430 1.955 . S
Co2414 N2431 1.958 . S
Co2414 N2432 1.953 . S
Co2414 N2450 1.869 . S
Co2414 N2456 1.974 . S
C2415 C2410 1.516 . S
C2415 O2416 1.238 . S
C2415 N2431 1.324 . S
O2416 C2415 1.238 . S
C2417 C2418 1.394 . S
C2417 C2422 1.395 . S
C2417 N2431 1.427 . S
C2418 C2417 1.394 . S
C2418 C2419 1.380 . S
C2418 H2480 0.929 . S
C2419 C2418 1.380 . S
C2419 C2420 1.384 . S
C2419 C2423 1.495 . S
C2420 C2419 1.384 . S
C2420 C2421 1.382 . S
C2420 H2481 0.930 . S
C2421 C2420 1.382 . S
C2421 C2422 1.398 . S
C2422 C2417 1.395 . S
C2422 C2421 1.398 . S
C2422 H2482 0.930 . S
C2423 C2419 1.495 . S
C2423 O2470 1.258 . S
C2423 O2471 1.274 . S
C2424 C2425 1.385 . S
C2424 C2426 1.381 . S
C2424 N2430 1.432 . S
C2425 C2424 1.385 . S
C2425 C2429 1.388 . S
C2425 H2483 0.929 . S
C2426 C2424 1.381 . S
C2426 C2427 1.371 . S
C2426 H2484 0.932 . S
C2427 C2426 1.371 . S
C2427 C2428 1.400 . S
C2428 C2427 1.400 . S
C2428 C2429 1.351 . S
C2428 H2485 0.930 . S
C2429 C2425 1.388 . S
C2429 C2428 1.351 . S
N2430 C2405 1.329 . S
N2430 Co2414 1.955 . S
N2430 C2424 1.432 . S
N2431 Co2414 1.958 . S
N2431 C2415 1.324 . S
N2431 C2417 1.427 . S
N2432 Co2414 1.953 . S
N2432 C2433 1.436 . S
N2432 C2459 1.316 . S
C2433 N2432 1.436 . S
C2433 C2434 1.421 . S
C2433 C2435 1.360 . S
C2434 C2433 1.421 . S
C2434 C2436 1.379 . S
C2434 H2437 0.929 . S
C2435 C2433 1.360 . S
C2435 C2439 1.393 . S
C2435 H2441 0.931 . S
C2436 C2434 1.379 . S
C2436 C2438 1.417 . S
C2436 C2440 1.505 . S
H2437 C2434 0.929 . S
C2438 C2436 1.417 . S
C2438 C2439 1.352 . S
C2438 H2442 0.929 . S
C2439 C2435 1.393 . S
C2439 C2438 1.352 . S
C2439 C2443 1.482 . S
C2440 C2436 1.505 . S
C2440 O2444 1.259 . S
C2440 O2445 1.229 . S
H2441 C2435 0.931 . S
H2442 C2438 0.929 . S
C2443 C2439 1.482 . S
C2443 O2446 1.207 . S
C2443 O2447 1.289 . S
O2444 C2440 1.259 . S
O2444 H2448 0.822 . S
O2445 C2440 1.229 . S
O2446 C2443 1.207 . S
O2447 C2443 1.289 . S
O2447 H2449 0.819 . S
H2448 O2444 0.822 . S
H2449 O2447 0.819 . S
N2450 Co2414 1.869 . S
N2450 C2451 1.330 . S
N2450 C2455 1.325 . S
C2451 N2450 1.330 . S
C2451 C2452 1.359 . S
C2451 C2457 1.504 . S
C2452 C2451 1.359 . S
C2452 C2453 1.366 . S
C2452 H2486 0.929 . S
C2453 C2452 1.366 . S
C2453 C2454 1.415 . S
C2453 H2487 0.932 . S
C2454 C2453 1.415 . S
C2454 C2455 1.366 . S
C2454 H2488 0.931 . S
C2455 N2450 1.325 . S
C2455 C2454 1.366 . S
C2455 C2459 1.516 . S
N2456 Co2414 1.974 . S
N2456 C2457 1.309 . S
N2456 C2462 1.423 . S
C2457 C2451 1.504 . S
C2457 N2456 1.309 . S
C2457 O2458 1.258 . S
O2458 C2457 1.258 . S
C2459 N2432 1.316 . S
C2459 C2455 1.516 . S
C2459 O2472 1.263 . S
O2460 Cd2403 2.350 . S
O2460 C2476 1.270 . S
O2461 Cd2403 2.277 . S
O2461 C2476 1.248 . S
C2462 N2456 1.423 . S
C2462 C2463 1.370 . S
C2462 C2467 1.403 . S
C2463 C2462 1.370 . S
C2463 C2464 1.389 . S
C2463 H2489 0.931 . S
C2464 C2463 1.389 . S
C2464 C2465 1.389 . S
C2465 C2464 1.389 . S
C2465 C2466 1.379 . S
C2465 H2490 0.929 . S
C2466 C2465 1.379 . S
C2466 C2467 1.405 . S
C2467 C2462 1.403 . S
C2467 C2466 1.405 . S
C2467 H2491 0.932 . S
O2468 Cd2403 2.173 . S
O2468 C2404 1.277 . S
O2469 C2404 1.230 . S
O2469 Cd2407 2.250 . S
O2470 Cd2403 2.263 . S
O2470 C2423 1.258 . S
O2471 Cd2407 2.308 . S
O2471 C2423 1.274 . S
O2472 Cd2403 2.366 . S
O2472 C2459 1.263 . S
C2473 O2474 1.235 . S
C2473 O2475 1.270 . S
O2474 Cd2407 2.352 . S
O2474 C2473 1.235 . S
O2475 Cd2403 2.329 . S
O2475 C2473 1.270 . S
C2476 O2460 1.270 . S
C2476 O2461 1.248 . S
H2477 C2409 0.930 . S
H2478 C2412 0.930 . S
H2479 C2413 0.931 . S
H2480 C2418 0.929 . S
H2481 C2420 0.930 . S
H2482 C2422 0.930 . S
H2483 C2425 0.929 . S
H2484 C2426 0.932 . S
H2485 C2428 0.930 . S
H2486 C2452 0.929 . S
H2487 C2453 0.932 . S
H2488 C2454 0.931 . S
H2489 C2463 0.931 . S
H2490 C2465 0.929 . S
H2491 C2467 0.932 . S
Cd2492 O2549 2.350 . S
Cd2492 O2550 2.277 . S
Cd2492 O2557 2.173 . S
Cd2492 O2559 2.263 . S
Cd2492 O2561 2.366 . S
Cd2492 O2564 2.329 . S
C2493 O2557 1.277 . S
C2493 O2558 1.230 . S
C2494 O2495 1.246 . S
C2494 C2497 1.481 . S
C2494 N2519 1.329 . S
O2495 C2494 1.246 . S
Cd2496 O2558 2.250 . S
Cd2496 O2560 2.308 . S
Cd2496 O2563 2.352 . S
C2497 C2494 1.481 . S
C2497 N2500 1.327 . S
C2497 C2501 1.407 . S
C2498 C2499 1.346 . S
C2498 C2502 1.390 . S
C2498 H2566 0.930 . S
C2499 C2498 1.346 . S
C2499 N2500 1.342 . S
C2499 C2504 1.516 . S
N2500 C2497 1.327 . S
N2500 C2499 1.342 . S
N2500 Co2503 1.864 . S
C2501 C2497 1.407 . S
C2501 C2502 1.364 . S
C2501 H2567 0.930 . S
C2502 C2498 1.390 . S
C2502 C2501 1.364 . S
C2502 H2568 0.931 . S
Co2503 N2500 1.864 . S
Co2503 N2519 1.955 . S
Co2503 N2520 1.958 . S
Co2503 N2521 1.953 . S
Co2503 N2539 1.869 . S
Co2503 N2545 1.974 . S
C2504 C2499 1.516 . S
C2504 O2505 1.238 . S
C2504 N2520 1.324 . S
O2505 C2504 1.238 . S
C2506 C2507 1.394 . S
C2506 C2511 1.395 . S
C2506 N2520 1.427 . S
C2507 C2506 1.394 . S
C2507 C2508 1.380 . S
C2507 H2569 0.929 . S
C2508 C2507 1.380 . S
C2508 C2509 1.384 . S
C2508 C2512 1.495 . S
C2509 C2508 1.384 . S
C2509 C2510 1.382 . S
C2509 H2570 0.930 . S
C2510 C2509 1.382 . S
C2510 C2511 1.398 . S
C2511 C2506 1.395 . S
C2511 C2510 1.398 . S
C2511 H2571 0.930 . S
C2512 C2508 1.495 . S
C2512 O2559 1.258 . S
C2512 O2560 1.274 . S
C2513 C2514 1.385 . S
C2513 C2515 1.381 . S
C2513 N2519 1.432 . S
C2514 C2513 1.385 . S
C2514 C2518 1.388 1_455 S
C2514 H2572 0.929 . S
C2515 C2513 1.381 . S
C2515 C2516 1.371 1_455 S
C2515 H2573 0.932 . S
C2516 C2515 1.371 1_655 S
C2516 C2517 1.400 . S
C2517 C2516 1.400 . S
C2517 C2518 1.351 . S
C2517 H2574 0.930 . S
C2518 C2514 1.388 1_655 S
C2518 C2517 1.351 . S
N2519 C2494 1.329 . S
N2519 Co2503 1.955 . S
N2519 C2513 1.432 . S
N2520 Co2503 1.958 . S
N2520 C2504 1.324 . S
N2520 C2506 1.427 . S
N2521 Co2503 1.953 . S
N2521 C2522 1.436 . S
N2521 C2548 1.316 . S
C2522 N2521 1.436 . S
C2522 C2523 1.421 . S
C2522 C2524 1.360 . S
C2523 C2522 1.421 . S
C2523 C2525 1.379 . S
C2523 H2526 0.929 . S
C2524 C2522 1.360 . S
C2524 C2528 1.393 . S
C2524 H2530 0.931 . S
C2525 C2523 1.379 . S
C2525 C2527 1.417 . S
C2525 C2529 1.505 . S
H2526 C2523 0.929 . S
C2527 C2525 1.417 . S
C2527 C2528 1.352 . S
C2527 H2531 0.929 . S
C2528 C2524 1.393 . S
C2528 C2527 1.352 . S
C2528 C2532 1.482 . S
C2529 C2525 1.505 . S
C2529 O2533 1.259 . S
C2529 O2534 1.229 . S
H2530 C2524 0.931 . S
H2531 C2527 0.929 . S
C2532 C2528 1.482 . S
C2532 O2535 1.207 . S
C2532 O2536 1.289 . S
O2533 C2529 1.259 . S
O2533 H2537 0.822 . S
O2534 C2529 1.229 . S
O2535 C2532 1.207 . S
O2536 C2532 1.289 . S
O2536 H2538 0.819 . S
H2537 O2533 0.822 . S
H2538 O2536 0.819 . S
N2539 Co2503 1.869 . S
N2539 C2540 1.330 . S
N2539 C2544 1.325 . S
C2540 N2539 1.330 . S
C2540 C2541 1.359 . S
C2540 C2546 1.504 . S
C2541 C2540 1.359 . S
C2541 C2542 1.366 . S
C2541 H2575 0.929 . S
C2542 C2541 1.366 . S
C2542 C2543 1.415 . S
C2542 H2576 0.932 . S
C2543 C2542 1.415 . S
C2543 C2544 1.366 . S
C2543 H2577 0.931 . S
C2544 N2539 1.325 . S
C2544 C2543 1.366 . S
C2544 C2548 1.516 . S
N2545 Co2503 1.974 . S
N2545 C2546 1.309 . S
N2545 C2551 1.423 . S
C2546 C2540 1.504 . S
C2546 N2545 1.309 . S
C2546 O2547 1.258 . S
O2547 C2546 1.258 . S
C2548 N2521 1.316 . S
C2548 C2544 1.516 . S
C2548 O2561 1.263 . S
O2549 Cd2492 2.350 . S
O2549 C2565 1.270 . S
O2550 Cd2492 2.277 . S
O2550 C2565 1.248 . S
C2551 N2545 1.423 . S
C2551 C2552 1.370 . S
C2551 C2556 1.403 . S
C2552 C2551 1.370 . S
C2552 C2553 1.389 . S
C2552 H2578 0.931 . S
C2553 C2552 1.389 . S
C2553 C2554 1.389 . S
C2554 C2553 1.389 . S
C2554 C2555 1.379 . S
C2554 H2579 0.929 . S
C2555 C2554 1.379 . S
C2555 C2556 1.405 . S
C2556 C2551 1.403 . S
C2556 C2555 1.405 . S
C2556 H2580 0.932 . S
O2557 Cd2492 2.173 . S
O2557 C2493 1.277 . S
O2558 C2493 1.230 . S
O2558 Cd2496 2.250 . S
O2559 Cd2492 2.263 . S
O2559 C2512 1.258 . S
O2560 Cd2496 2.308 . S
O2560 C2512 1.274 . S
O2561 Cd2492 2.366 . S
O2561 C2548 1.263 . S
C2562 O2563 1.235 . S
C2562 O2564 1.270 . S
O2563 Cd2496 2.352 . S
O2563 C2562 1.235 . S
O2564 Cd2492 2.329 . S
O2564 C2562 1.270 . S
C2565 O2549 1.270 . S
C2565 O2550 1.248 . S
H2566 C2498 0.930 . S
H2567 C2501 0.930 . S
H2568 C2502 0.931 . S
H2569 C2507 0.929 . S
H2570 C2509 0.930 . S
H2571 C2511 0.930 . S
H2572 C2514 0.929 . S
H2573 C2515 0.932 . S
H2574 C2517 0.930 . S
H2575 C2541 0.929 . S
H2576 C2542 0.932 . S
H2577 C2543 0.931 . S
H2578 C2552 0.931 . S
H2579 C2554 0.929 . S
H2580 C2556 0.932 . S
Cd2581 O2638 2.350 . S
Cd2581 O2639 2.277 . S
Cd2581 O2646 2.173 . S
Cd2581 O2648 2.263 . S
Cd2581 O2650 2.366 . S
Cd2581 O2653 2.329 . S
C2582 O2646 1.277 . S
C2582 O2647 1.230 . S
C2583 O2584 1.246 . S
C2583 C2586 1.481 . S
C2583 N2608 1.329 . S
O2584 C2583 1.246 . S
Cd2585 O2647 2.250 . S
Cd2585 O2649 2.308 . S
Cd2585 O2652 2.352 . S
C2586 C2583 1.481 . S
C2586 N2589 1.327 . S
C2586 C2590 1.407 . S
C2587 C2588 1.346 . S
C2587 C2591 1.390 . S
C2587 H2655 0.930 . S
C2588 C2587 1.346 . S
C2588 N2589 1.342 . S
C2588 C2593 1.516 . S
N2589 C2586 1.327 . S
N2589 C2588 1.342 . S
N2589 Co2592 1.864 . S
C2590 C2586 1.407 . S
C2590 C2591 1.364 . S
C2590 H2656 0.930 . S
C2591 C2587 1.390 . S
C2591 C2590 1.364 . S
C2591 H2657 0.931 . S
Co2592 N2589 1.864 . S
Co2592 N2608 1.955 . S
Co2592 N2609 1.958 . S
Co2592 N2610 1.953 . S
Co2592 N2628 1.869 . S
Co2592 N2634 1.974 . S
C2593 C2588 1.516 . S
C2593 O2594 1.238 . S
C2593 N2609 1.324 . S
O2594 C2593 1.238 . S
C2595 C2596 1.394 . S
C2595 C2600 1.395 . S
C2595 N2609 1.427 . S
C2596 C2595 1.394 . S
C2596 C2597 1.380 . S
C2596 H2658 0.929 . S
C2597 C2596 1.380 . S
C2597 C2598 1.384 . S
C2597 C2601 1.495 . S
C2598 C2597 1.384 . S
C2598 C2599 1.382 . S
C2598 H2659 0.930 . S
C2599 C2598 1.382 . S
C2599 C2600 1.398 . S
C2600 C2595 1.395 . S
C2600 C2599 1.398 . S
C2600 H2660 0.930 . S
C2601 C2597 1.495 . S
C2601 O2648 1.258 . S
C2601 O2649 1.274 . S
C2602 C2603 1.385 . S
C2602 C2604 1.381 . S
C2602 N2608 1.432 . S
C2603 C2602 1.385 . S
C2603 C2607 1.388 . S
C2603 H2661 0.929 . S
C2604 C2602 1.381 . S
C2604 C2605 1.371 . S
C2604 H2662 0.932 . S
C2605 C2604 1.371 . S
C2605 C2606 1.400 . S
C2606 C2605 1.400 . S
C2606 C2607 1.351 . S
C2606 H2663 0.930 . S
C2607 C2603 1.388 . S
C2607 C2606 1.351 . S
N2608 C2583 1.329 . S
N2608 Co2592 1.955 . S
N2608 C2602 1.432 . S
N2609 Co2592 1.958 . S
N2609 C2593 1.324 . S
N2609 C2595 1.427 . S
N2610 Co2592 1.953 . S
N2610 C2611 1.436 . S
N2610 C2637 1.316 . S
C2611 N2610 1.436 . S
C2611 C2612 1.421 . S
C2611 C2613 1.360 . S
C2612 C2611 1.421 . S
C2612 C2614 1.379 . S
C2612 H2615 0.929 . S
C2613 C2611 1.360 . S
C2613 C2617 1.393 . S
C2613 H2619 0.931 . S
C2614 C2612 1.379 . S
C2614 C2616 1.417 . S
C2614 C2618 1.505 . S
H2615 C2612 0.929 . S
C2616 C2614 1.417 . S
C2616 C2617 1.352 . S
C2616 H2620 0.929 . S
C2617 C2613 1.393 . S
C2617 C2616 1.352 . S
C2617 C2621 1.482 . S
C2618 C2614 1.505 . S
C2618 O2622 1.259 . S
C2618 O2623 1.229 . S
H2619 C2613 0.931 . S
H2620 C2616 0.929 . S
C2621 C2617 1.482 . S
C2621 O2624 1.207 . S
C2621 O2625 1.289 . S
O2622 C2618 1.259 . S
O2622 H2626 0.822 . S
O2623 C2618 1.229 . S
O2624 C2621 1.207 . S
O2625 C2621 1.289 . S
O2625 H2627 0.819 . S
H2626 O2622 0.822 . S
H2627 O2625 0.819 . S
N2628 Co2592 1.869 . S
N2628 C2629 1.330 . S
N2628 C2633 1.325 . S
C2629 N2628 1.330 . S
C2629 C2630 1.359 . S
C2629 C2635 1.504 . S
C2630 C2629 1.359 . S
C2630 C2631 1.366 . S
C2630 H2664 0.929 . S
C2631 C2630 1.366 . S
C2631 C2632 1.415 . S
C2631 H2665 0.932 . S
C2632 C2631 1.415 . S
C2632 C2633 1.366 . S
C2632 H2666 0.931 . S
C2633 N2628 1.325 . S
C2633 C2632 1.366 . S
C2633 C2637 1.516 . S
N2634 Co2592 1.974 . S
N2634 C2635 1.309 . S
N2634 C2640 1.423 . S
C2635 C2629 1.504 . S
C2635 N2634 1.309 . S
C2635 O2636 1.258 . S
O2636 C2635 1.258 . S
C2637 N2610 1.316 . S
C2637 C2633 1.516 . S
C2637 O2650 1.263 . S
O2638 Cd2581 2.350 . S
O2638 C2654 1.270 . S
O2639 Cd2581 2.277 . S
O2639 C2654 1.248 . S
C2640 N2634 1.423 . S
C2640 C2641 1.370 . S
C2640 C2645 1.403 . S
C2641 C2640 1.370 . S
C2641 C2642 1.389 . S
C2641 H2667 0.931 . S
C2642 C2641 1.389 . S
C2642 C2643 1.389 . S
C2643 C2642 1.389 . S
C2643 C2644 1.379 . S
C2643 H2668 0.929 . S
C2644 C2643 1.379 . S
C2644 C2645 1.405 . S
C2645 C2640 1.403 . S
C2645 C2644 1.405 . S
C2645 H2669 0.932 . S
O2646 Cd2581 2.173 . S
O2646 C2582 1.277 . S
O2647 C2582 1.230 . S
O2647 Cd2585 2.250 . S
O2648 Cd2581 2.263 . S
O2648 C2601 1.258 . S
O2649 Cd2585 2.308 . S
O2649 C2601 1.274 . S
O2650 Cd2581 2.366 . S
O2650 C2637 1.263 . S
C2651 O2652 1.235 . S
C2651 O2653 1.270 . S
O2652 Cd2585 2.352 . S
O2652 C2651 1.235 . S
O2653 Cd2581 2.329 . S
O2653 C2651 1.270 . S
C2654 O2638 1.270 . S
C2654 O2639 1.248 . S
H2655 C2587 0.930 . S
H2656 C2590 0.930 . S
H2657 C2591 0.931 . S
H2658 C2596 0.929 . S
H2659 C2598 0.930 . S
H2660 C2600 0.930 . S
H2661 C2603 0.929 . S
H2662 C2604 0.932 . S
H2663 C2606 0.930 . S
H2664 C2630 0.929 . S
H2665 C2631 0.932 . S
H2666 C2632 0.931 . S
H2667 C2641 0.931 . S
H2668 C2643 0.929 . S
H2669 C2645 0.932 . S
Cd2670 O2727 2.350 . S
Cd2670 O2728 2.277 . S
Cd2670 O2735 2.173 . S
Cd2670 O2737 2.263 . S
Cd2670 O2739 2.366 . S
Cd2670 O2742 2.329 . S
C2671 O2735 1.277 . S
C2671 O2736 1.230 . S
C2672 O2673 1.246 . S
C2672 C2675 1.481 . S
C2672 N2697 1.329 . S
O2673 C2672 1.246 . S
Cd2674 O2736 2.250 . S
Cd2674 O2738 2.308 . S
Cd2674 O2741 2.352 . S
C2675 C2672 1.481 . S
C2675 N2678 1.327 . S
C2675 C2679 1.407 . S
C2676 C2677 1.346 . S
C2676 C2680 1.390 . S
C2676 H2744 0.930 . S
C2677 C2676 1.346 . S
C2677 N2678 1.342 . S
C2677 C2682 1.516 . S
N2678 C2675 1.327 . S
N2678 C2677 1.342 . S
N2678 Co2681 1.864 . S
C2679 C2675 1.407 . S
C2679 C2680 1.364 . S
C2679 H2745 0.930 . S
C2680 C2676 1.390 . S
C2680 C2679 1.364 . S
C2680 H2746 0.931 . S
Co2681 N2678 1.864 . S
Co2681 N2697 1.955 . S
Co2681 N2698 1.958 . S
Co2681 N2699 1.953 . S
Co2681 N2717 1.869 . S
Co2681 N2723 1.974 . S
C2682 C2677 1.516 . S
C2682 O2683 1.238 . S
C2682 N2698 1.324 . S
O2683 C2682 1.238 . S
C2684 C2685 1.394 . S
C2684 C2689 1.395 . S
C2684 N2698 1.427 . S
C2685 C2684 1.394 . S
C2685 C2686 1.380 . S
C2685 H2747 0.929 . S
C2686 C2685 1.380 . S
C2686 C2687 1.384 . S
C2686 C2690 1.495 . S
C2687 C2686 1.384 . S
C2687 C2688 1.382 . S
C2687 H2748 0.930 . S
C2688 C2687 1.382 . S
C2688 C2689 1.398 . S
C2689 C2684 1.395 . S
C2689 C2688 1.398 . S
C2689 H2749 0.930 . S
C2690 C2686 1.495 . S
C2690 O2737 1.258 . S
C2690 O2738 1.274 . S
C2691 C2692 1.385 . S
C2691 C2693 1.381 . S
C2691 N2697 1.432 . S
C2692 C2691 1.385 . S
C2692 C2696 1.388 . S
C2692 H2750 0.929 . S
C2693 C2691 1.381 . S
C2693 C2694 1.371 . S
C2693 H2751 0.932 . S
C2694 C2693 1.371 . S
C2694 C2695 1.400 . S
C2695 C2694 1.400 . S
C2695 C2696 1.351 . S
C2695 H2752 0.930 . S
C2696 C2692 1.388 . S
C2696 C2695 1.351 . S
N2697 C2672 1.329 . S
N2697 Co2681 1.955 . S
N2697 C2691 1.432 . S
N2698 Co2681 1.958 . S
N2698 C2682 1.324 . S
N2698 C2684 1.427 . S
N2699 Co2681 1.953 . S
N2699 C2700 1.436 . S
N2699 C2726 1.316 . S
C2700 N2699 1.436 . S
C2700 C2701 1.421 . S
C2700 C2702 1.360 . S
C2701 C2700 1.421 . S
C2701 C2703 1.379 . S
C2701 H2704 0.929 . S
C2702 C2700 1.360 . S
C2702 C2706 1.393 . S
C2702 H2708 0.931 . S
C2703 C2701 1.379 . S
C2703 C2705 1.417 . S
C2703 C2707 1.505 . S
H2704 C2701 0.929 . S
C2705 C2703 1.417 . S
C2705 C2706 1.352 . S
C2705 H2709 0.929 . S
C2706 C2702 1.393 . S
C2706 C2705 1.352 . S
C2706 C2710 1.482 . S
C2707 C2703 1.505 . S
C2707 O2711 1.259 . S
C2707 O2712 1.229 . S
H2708 C2702 0.931 . S
H2709 C2705 0.929 . S
C2710 C2706 1.482 . S
C2710 O2713 1.207 . S
C2710 O2714 1.289 . S
O2711 C2707 1.259 . S
O2711 H2715 0.822 . S
O2712 C2707 1.229 . S
O2713 C2710 1.207 . S
O2714 C2710 1.289 . S
O2714 H2716 0.819 . S
H2715 O2711 0.822 . S
H2716 O2714 0.819 . S
N2717 Co2681 1.869 . S
N2717 C2718 1.330 . S
N2717 C2722 1.325 . S
C2718 N2717 1.330 . S
C2718 C2719 1.359 . S
C2718 C2724 1.504 . S
C2719 C2718 1.359 . S
C2719 C2720 1.366 . S
C2719 H2753 0.929 . S
C2720 C2719 1.366 . S
C2720 C2721 1.415 . S
C2720 H2754 0.932 . S
C2721 C2720 1.415 . S
C2721 C2722 1.366 . S
C2721 H2755 0.931 . S
C2722 N2717 1.325 . S
C2722 C2721 1.366 . S
C2722 C2726 1.516 . S
N2723 Co2681 1.974 . S
N2723 C2724 1.309 . S
N2723 C2729 1.423 . S
C2724 C2718 1.504 . S
C2724 N2723 1.309 . S
C2724 O2725 1.258 . S
O2725 C2724 1.258 . S
C2726 N2699 1.316 . S
C2726 C2722 1.516 . S
C2726 O2739 1.263 . S
O2727 Cd2670 2.350 . S
O2727 C2743 1.270 . S
O2728 Cd2670 2.277 . S
O2728 C2743 1.248 . S
C2729 N2723 1.423 . S
C2729 C2730 1.370 . S
C2729 C2734 1.403 . S
C2730 C2729 1.370 . S
C2730 C2731 1.389 . S
C2730 H2756 0.931 . S
C2731 C2730 1.389 . S
C2731 C2732 1.389 . S
C2732 C2731 1.389 . S
C2732 C2733 1.379 . S
C2732 H2757 0.929 . S
C2733 C2732 1.379 . S
C2733 C2734 1.405 . S
C2734 C2729 1.403 . S
C2734 C2733 1.405 . S
C2734 H2758 0.932 . S
O2735 Cd2670 2.173 . S
O2735 C2671 1.277 . S
O2736 C2671 1.230 . S
O2736 Cd2674 2.250 . S
O2737 Cd2670 2.263 . S
O2737 C2690 1.258 . S
O2738 Cd2674 2.308 . S
O2738 C2690 1.274 . S
O2739 Cd2670 2.366 . S
O2739 C2726 1.263 . S
C2740 O2741 1.235 . S
C2740 O2742 1.270 . S
O2741 Cd2674 2.352 . S
O2741 C2740 1.235 . S
O2742 Cd2670 2.329 . S
O2742 C2740 1.270 . S
C2743 O2727 1.270 . S
C2743 O2728 1.248 . S
H2744 C2676 0.930 . S
H2745 C2679 0.930 . S
H2746 C2680 0.931 . S
H2747 C2685 0.929 . S
H2748 C2687 0.930 . S
H2749 C2689 0.930 . S
H2750 C2692 0.929 . S
H2751 C2693 0.932 . S
H2752 C2695 0.930 . S
H2753 C2719 0.929 . S
H2754 C2720 0.932 . S
H2755 C2721 0.931 . S
H2756 C2730 0.931 . S
H2757 C2732 0.929 . S
H2758 C2734 0.932 . S
Cd2759 O2816 2.350 . S
Cd2759 O2817 2.277 . S
Cd2759 O2824 2.173 . S
Cd2759 O2826 2.263 . S
Cd2759 O2828 2.366 . S
Cd2759 O2831 2.329 . S
C2760 O2824 1.277 . S
C2760 O2825 1.230 . S
C2761 O2762 1.246 . S
C2761 C2764 1.481 . S
C2761 N2786 1.329 . S
O2762 C2761 1.246 . S
Cd2763 O2825 2.250 . S
Cd2763 O2827 2.308 . S
Cd2763 O2830 2.352 . S
C2764 C2761 1.481 . S
C2764 N2767 1.327 . S
C2764 C2768 1.407 . S
C2765 C2766 1.346 . S
C2765 C2769 1.390 . S
C2765 H2833 0.930 . S
C2766 C2765 1.346 . S
C2766 N2767 1.342 . S
C2766 C2771 1.516 . S
N2767 C2764 1.327 . S
N2767 C2766 1.342 . S
N2767 Co2770 1.864 . S
C2768 C2764 1.407 . S
C2768 C2769 1.364 . S
C2768 H2834 0.930 . S
C2769 C2765 1.390 . S
C2769 C2768 1.364 . S
C2769 H2835 0.931 . S
Co2770 N2767 1.864 . S
Co2770 N2786 1.955 . S
Co2770 N2787 1.958 . S
Co2770 N2788 1.953 . S
Co2770 N2806 1.869 . S
Co2770 N2812 1.974 . S
C2771 C2766 1.516 . S
C2771 O2772 1.238 . S
C2771 N2787 1.324 . S
O2772 C2771 1.238 . S
C2773 C2774 1.394 . S
C2773 C2778 1.395 . S
C2773 N2787 1.427 . S
C2774 C2773 1.394 . S
C2774 C2775 1.380 . S
C2774 H2836 0.929 . S
C2775 C2774 1.380 . S
C2775 C2776 1.384 . S
C2775 C2779 1.495 . S
C2776 C2775 1.384 . S
C2776 C2777 1.382 . S
C2776 H2837 0.930 . S
C2777 C2776 1.382 . S
C2777 C2778 1.398 . S
C2778 C2773 1.395 . S
C2778 C2777 1.398 . S
C2778 H2838 0.930 . S
C2779 C2775 1.495 . S
C2779 O2826 1.258 . S
C2779 O2827 1.274 . S
C2780 C2781 1.385 . S
C2780 C2782 1.381 . S
C2780 N2786 1.432 . S
C2781 C2780 1.385 . S
C2781 C2785 1.388 . S
C2781 H2839 0.929 . S
C2782 C2780 1.381 . S
C2782 C2783 1.371 . S
C2782 H2840 0.932 . S
C2783 C2782 1.371 . S
C2783 C2784 1.400 . S
C2784 C2783 1.400 . S
C2784 C2785 1.351 . S
C2784 H2841 0.930 . S
C2785 C2781 1.388 . S
C2785 C2784 1.351 . S
N2786 C2761 1.329 . S
N2786 Co2770 1.955 . S
N2786 C2780 1.432 . S
N2787 Co2770 1.958 . S
N2787 C2771 1.324 . S
N2787 C2773 1.427 . S
N2788 Co2770 1.953 . S
N2788 C2789 1.436 . S
N2788 C2815 1.316 . S
C2789 N2788 1.436 . S
C2789 C2790 1.421 . S
C2789 C2791 1.360 . S
C2790 C2789 1.421 . S
C2790 C2792 1.379 . S
C2790 H2793 0.929 . S
C2791 C2789 1.360 . S
C2791 C2795 1.393 . S
C2791 H2797 0.931 . S
C2792 C2790 1.379 . S
C2792 C2794 1.417 . S
C2792 C2796 1.505 . S
H2793 C2790 0.929 . S
C2794 C2792 1.417 . S
C2794 C2795 1.352 . S
C2794 H2798 0.929 . S
C2795 C2791 1.393 . S
C2795 C2794 1.352 . S
C2795 C2799 1.482 . S
C2796 C2792 1.505 . S
C2796 O2800 1.259 . S
C2796 O2801 1.229 . S
H2797 C2791 0.931 . S
H2798 C2794 0.929 . S
C2799 C2795 1.482 . S
C2799 O2802 1.207 . S
C2799 O2803 1.289 . S
O2800 C2796 1.259 . S
O2800 H2804 0.822 . S
O2801 C2796 1.229 . S
O2802 C2799 1.207 . S
O2803 C2799 1.289 . S
O2803 H2805 0.819 . S
H2804 O2800 0.822 . S
H2805 O2803 0.819 . S
N2806 Co2770 1.869 . S
N2806 C2807 1.330 . S
N2806 C2811 1.325 . S
C2807 N2806 1.330 . S
C2807 C2808 1.359 . S
C2807 C2813 1.504 . S
C2808 C2807 1.359 . S
C2808 C2809 1.366 . S
C2808 H2842 0.929 . S
C2809 C2808 1.366 . S
C2809 C2810 1.415 . S
C2809 H2843 0.932 . S
C2810 C2809 1.415 . S
C2810 C2811 1.366 . S
C2810 H2844 0.931 . S
C2811 N2806 1.325 . S
C2811 C2810 1.366 . S
C2811 C2815 1.516 . S
N2812 Co2770 1.974 . S
N2812 C2813 1.309 . S
N2812 C2818 1.423 . S
C2813 C2807 1.504 . S
C2813 N2812 1.309 . S
C2813 O2814 1.258 . S
O2814 C2813 1.258 . S
C2815 N2788 1.316 . S
C2815 C2811 1.516 . S
C2815 O2828 1.263 . S
O2816 Cd2759 2.350 . S
O2816 C2832 1.270 . S
O2817 Cd2759 2.277 . S
O2817 C2832 1.248 . S
C2818 N2812 1.423 . S
C2818 C2819 1.370 . S
C2818 C2823 1.403 . S
C2819 C2818 1.370 . S
C2819 C2820 1.389 . S
C2819 H2845 0.931 . S
C2820 C2819 1.389 . S
C2820 C2821 1.389 . S
C2821 C2820 1.389 . S
C2821 C2822 1.379 . S
C2821 H2846 0.929 . S
C2822 C2821 1.379 . S
C2822 C2823 1.405 . S
C2823 C2818 1.403 . S
C2823 C2822 1.405 . S
C2823 H2847 0.932 . S
O2824 Cd2759 2.173 . S
O2824 C2760 1.277 . S
O2825 C2760 1.230 . S
O2825 Cd2763 2.250 . S
O2826 Cd2759 2.263 . S
O2826 C2779 1.258 . S
O2827 Cd2763 2.308 . S
O2827 C2779 1.274 . S
O2828 Cd2759 2.366 . S
O2828 C2815 1.263 . S
C2829 O2830 1.235 . S
C2829 O2831 1.270 . S
O2830 Cd2763 2.352 . S
O2830 C2829 1.235 . S
O2831 Cd2759 2.329 . S
O2831 C2829 1.270 . S
C2832 O2816 1.270 . S
C2832 O2817 1.248 . S
H2833 C2765 0.930 . S
H2834 C2768 0.930 . S
H2835 C2769 0.931 . S
H2836 C2774 0.929 . S
H2837 C2776 0.930 . S
H2838 C2778 0.930 . S
H2839 C2781 0.929 . S
H2840 C2782 0.932 . S
H2841 C2784 0.930 . S
H2842 C2808 0.929 . S
H2843 C2809 0.932 . S
H2844 C2810 0.931 . S
H2845 C2819 0.931 . S
H2846 C2821 0.929 . S
H2847 C2823 0.932 . S
C2848 C2849 1.369 . S
C2848 C2850 1.419 . S
C2848 H2852 0.930 . S
C2849 C2848 1.369 . S
C2849 C2858 1.429 . S
C2850 C2848 1.419 . S
C2850 C2851 1.363 . S
C2850 H2853 0.929 . S
C2851 C2850 1.363 . S
C2851 C2857 1.428 . S
H2852 C2848 0.930 . S
H2853 C2850 0.929 . S
S2854 N2855 1.613 . S
S2854 N2856 1.610 . S
N2855 S2854 1.613 . S
N2855 C2858 1.350 . S
N2856 S2854 1.610 . S
N2856 C2857 1.351 . S
C2857 C2851 1.428 . S
C2857 N2856 1.351 . S
C2857 C2858 1.434 . S
C2858 C2849 1.429 . S
C2858 N2855 1.350 . S
C2858 C2857 1.434 . S
C2859 C2860 1.369 . S
C2859 C2861 1.419 . S
C2859 H2863 0.930 . S
C2860 C2859 1.369 . S
C2860 C2869 1.429 . S
C2861 C2859 1.419 . S
C2861 C2862 1.363 . S
C2861 H2864 0.929 . S
C2862 C2861 1.363 . S
C2862 C2868 1.428 . S
H2863 C2859 0.930 . S
H2864 C2861 0.929 . S
S2865 N2866 1.613 . S
S2865 N2867 1.610 . S
N2866 S2865 1.613 . S
N2866 C2869 1.350 . S
N2867 S2865 1.610 . S
N2867 C2868 1.351 . S
C2868 C2862 1.428 . S
C2868 N2867 1.351 . S
C2868 C2869 1.434 . S
C2869 C2860 1.429 . S
C2869 N2866 1.350 . S
C2869 C2868 1.434 . S
C2870 C2871 1.369 . S
C2870 C2872 1.419 . S
C2870 H2874 0.930 . S
C2871 C2870 1.369 . S
C2871 C2880 1.429 . S
C2872 C2870 1.419 . S
C2872 C2873 1.363 . S
C2872 H2875 0.929 . S
C2873 C2872 1.363 . S
C2873 C2879 1.428 . S
H2874 C2870 0.930 . S
H2875 C2872 0.929 . S
S2876 N2877 1.613 . S
S2876 N2878 1.610 . S
N2877 S2876 1.613 . S
N2877 C2880 1.350 . S
N2878 S2876 1.610 . S
N2878 C2879 1.351 . S
C2879 C2873 1.428 . S
C2879 N2878 1.351 . S
C2879 C2880 1.434 . S
C2880 C2871 1.429 . S
C2880 N2877 1.350 . S
C2880 C2879 1.434 . S
C2881 C2882 1.369 . S
C2881 C2883 1.419 . S
C2881 H2885 0.930 . S
C2882 C2881 1.369 . S
C2882 C2891 1.429 . S
C2883 C2881 1.419 . S
C2883 C2884 1.363 . S
C2883 H2886 0.929 . S
C2884 C2883 1.363 . S
C2884 C2890 1.428 . S
H2885 C2881 0.930 . S
H2886 C2883 0.929 . S
S2887 N2888 1.613 . S
S2887 N2889 1.610 . S
N2888 S2887 1.613 . S
N2888 C2891 1.350 . S
N2889 S2887 1.610 . S
N2889 C2890 1.351 . S
C2890 C2884 1.428 . S
C2890 N2889 1.351 . S
C2890 C2891 1.434 . S
C2891 C2882 1.429 . S
C2891 N2888 1.350 . S
C2891 C2890 1.434 . S
C2892 C2893 1.369 . S
C2892 C2894 1.419 . S
C2892 H2896 0.930 . S
C2893 C2892 1.369 . S
C2893 C2902 1.429 . S
C2894 C2892 1.419 . S
C2894 C2895 1.363 . S
C2894 H2897 0.929 . S
C2895 C2894 1.363 . S
C2895 C2901 1.428 . S
H2896 C2892 0.930 . S
H2897 C2894 0.929 . S
S2898 N2899 1.613 . S
S2898 N2900 1.610 . S
N2899 S2898 1.613 . S
N2899 C2902 1.350 . S
N2900 S2898 1.610 . S
N2900 C2901 1.351 . S
C2901 C2895 1.428 . S
C2901 N2900 1.351 . S
C2901 C2902 1.434 . S
C2902 C2893 1.429 . S
C2902 N2899 1.350 . S
C2902 C2901 1.434 . S
C2903 C2904 1.369 . S
C2903 C2905 1.419 . S
C2903 H2907 0.930 . S
C2904 C2903 1.369 . S
C2904 C2913 1.429 . S
C2905 C2903 1.419 . S
C2905 C2906 1.363 . S
C2905 H2908 0.929 . S
C2906 C2905 1.363 . S
C2906 C2912 1.428 . S
H2907 C2903 0.930 . S
H2908 C2905 0.929 . S
S2909 N2910 1.613 . S
S2909 N2911 1.610 . S
N2910 S2909 1.613 . S
N2910 C2913 1.350 . S
N2911 S2909 1.610 . S
N2911 C2912 1.351 . S
C2912 C2906 1.428 . S
C2912 N2911 1.351 . S
C2912 C2913 1.434 . S
C2913 C2904 1.429 . S
C2913 N2910 1.350 . S
C2913 C2912 1.434 . S
C2914 C2915 1.369 . S
C2914 C2916 1.419 . S
C2914 H2918 0.930 . S
C2915 C2914 1.369 . S
C2915 C2924 1.429 . S
C2916 C2914 1.419 . S
C2916 C2917 1.363 . S
C2916 H2919 0.929 . S
C2917 C2916 1.363 . S
C2917 C2923 1.428 . S
H2918 C2914 0.930 . S
H2919 C2916 0.929 . S
S2920 N2921 1.613 . S
S2920 N2922 1.610 . S
N2921 S2920 1.613 . S
N2921 C2924 1.350 . S
N2922 S2920 1.610 . S
N2922 C2923 1.351 . S
C2923 C2917 1.428 . S
C2923 N2922 1.351 . S
C2923 C2924 1.434 . S
C2924 C2915 1.429 . S
C2924 N2921 1.350 . S
C2924 C2923 1.434 . S
C2925 C2926 1.369 . S
C2925 C2927 1.419 . S
C2925 H2929 0.930 . S
C2926 C2925 1.369 . S
C2926 C2935 1.429 . S
C2927 C2925 1.419 . S
C2927 C2928 1.363 . S
C2927 H2930 0.929 . S
C2928 C2927 1.363 . S
C2928 C2934 1.428 . S
H2929 C2925 0.930 . S
H2930 C2927 0.929 . S
S2931 N2932 1.613 . S
S2931 N2933 1.610 . S
N2932 S2931 1.613 . S
N2932 C2935 1.350 . S
N2933 S2931 1.610 . S
N2933 C2934 1.351 . S
C2934 C2928 1.428 . S
C2934 N2933 1.351 . S
C2934 C2935 1.434 . S
C2935 C2926 1.429 . S
C2935 N2932 1.350 . S
C2935 C2934 1.434 . S
C2936 C2937 1.369 . S
C2936 C2938 1.419 . S
C2936 H2940 0.930 . S
C2937 C2936 1.369 . S
C2937 C2946 1.429 . S
C2938 C2936 1.419 . S
C2938 C2939 1.363 . S
C2938 H2941 0.929 . S
C2939 C2938 1.363 . S
C2939 C2945 1.428 . S
H2940 C2936 0.930 . S
H2941 C2938 0.929 . S
S2942 N2943 1.613 . S
S2942 N2944 1.610 . S
N2943 S2942 1.613 . S
N2943 C2946 1.350 . S
N2944 S2942 1.610 . S
N2944 C2945 1.351 . S
C2945 C2939 1.428 . S
C2945 N2944 1.351 . S
C2945 C2946 1.434 . S
C2946 C2937 1.429 . S
C2946 N2943 1.350 . S
C2946 C2945 1.434 . S
C2947 C2948 1.369 . S
C2947 C2949 1.419 . S
C2947 H2951 0.930 . S
C2948 C2947 1.369 . S
C2948 C2957 1.429 . S
C2949 C2947 1.419 . S
C2949 C2950 1.363 . S
C2949 H2952 0.929 . S
C2950 C2949 1.363 . S
C2950 C2956 1.428 . S
H2951 C2947 0.930 . S
H2952 C2949 0.929 . S
S2953 N2954 1.613 . S
S2953 N2955 1.610 . S
N2954 S2953 1.613 . S
N2954 C2957 1.350 . S
N2955 S2953 1.610 . S
N2955 C2956 1.351 . S
C2956 C2950 1.428 . S
C2956 N2955 1.351 . S
C2956 C2957 1.434 . S
C2957 C2948 1.429 . S
C2957 N2954 1.350 . S
C2957 C2956 1.434 . S
C2958 C2959 1.369 . S
C2958 C2960 1.419 . S
C2958 H2962 0.930 . S
C2959 C2958 1.369 . S
C2959 C2968 1.429 . S
C2960 C2958 1.419 . S
C2960 C2961 1.363 . S
C2960 H2963 0.929 . S
C2961 C2960 1.363 . S
C2961 C2967 1.428 . S
H2962 C2958 0.930 . S
H2963 C2960 0.929 . S
S2964 N2965 1.613 . S
S2964 N2966 1.610 . S
N2965 S2964 1.613 . S
N2965 C2968 1.350 . S
N2966 S2964 1.610 . S
N2966 C2967 1.351 . S
C2967 C2961 1.428 . S
C2967 N2966 1.351 . S
C2967 C2968 1.434 . S
C2968 C2959 1.429 . S
C2968 N2965 1.350 . S
C2968 C2967 1.434 . S
C2969 C2970 1.369 . S
C2969 C2971 1.419 . S
C2969 H2973 0.930 . S
C2970 C2969 1.369 . S
C2970 C2979 1.429 . S
C2971 C2969 1.419 . S
C2971 C2972 1.363 . S
C2971 H2974 0.929 . S
C2972 C2971 1.363 . S
C2972 C2978 1.428 . S
H2973 C2969 0.930 . S
H2974 C2971 0.929 . S
S2975 N2976 1.613 . S
S2975 N2977 1.610 . S
N2976 S2975 1.613 . S
N2976 C2979 1.350 . S
N2977 S2975 1.610 . S
N2977 C2978 1.351 . S
C2978 C2972 1.428 . S
C2978 N2977 1.351 . S
C2978 C2979 1.434 . S
C2979 C2970 1.429 . S
C2979 N2976 1.350 . S
C2979 C2978 1.434 . S
C2980 C2981 1.369 . S
C2980 C2982 1.419 . S
C2980 H2984 0.930 . S
C2981 C2980 1.369 . S
C2981 C2990 1.429 . S
C2982 C2980 1.419 . S
C2982 C2983 1.363 . S
C2982 H2985 0.929 . S
C2983 C2982 1.363 . S
C2983 C2989 1.428 . S
H2984 C2980 0.930 . S
H2985 C2982 0.929 . S
S2986 N2987 1.613 . S
S2986 N2988 1.610 . S
N2987 S2986 1.613 . S
N2987 C2990 1.350 . S
N2988 S2986 1.610 . S
N2988 C2989 1.351 . S
C2989 C2983 1.428 . S
C2989 N2988 1.351 . S
C2989 C2990 1.434 . S
C2990 C2981 1.429 . S
C2990 N2987 1.350 . S
C2990 C2989 1.434 . S
C2991 C2992 1.369 . S
C2991 C2993 1.419 . S
C2991 H2995 0.930 . S
C2992 C2991 1.369 . S
C2992 C3001 1.429 . S
C2993 C2991 1.419 . S
C2993 C2994 1.363 . S
C2993 H2996 0.929 . S
C2994 C2993 1.363 . S
C2994 C3000 1.428 . S
H2995 C2991 0.930 . S
H2996 C2993 0.929 . S
S2997 N2998 1.613 . S
S2997 N2999 1.610 . S
N2998 S2997 1.613 . S
N2998 C3001 1.350 . S
N2999 S2997 1.610 . S
N2999 C3000 1.351 . S
C3000 C2994 1.428 . S
C3000 N2999 1.351 . S
C3000 C3001 1.434 . S
C3001 C2992 1.429 . S
C3001 N2998 1.350 . S
C3001 C3000 1.434 . S
C3002 C3003 1.369 . S
C3002 C3004 1.419 . S
C3002 H3006 0.930 . S
C3003 C3002 1.369 . S
C3003 C3012 1.429 . S
C3004 C3002 1.419 . S
C3004 C3005 1.363 . S
C3004 H3007 0.929 . S
C3005 C3004 1.363 . S
C3005 C3011 1.428 . S
H3006 C3002 0.930 . S
H3007 C3004 0.929 . S
S3008 N3009 1.613 . S
S3008 N3010 1.610 . S
N3009 S3008 1.613 . S
N3009 C3012 1.350 . S
N3010 S3008 1.610 . S
N3010 C3011 1.351 . S
C3011 C3005 1.428 . S
C3011 N3010 1.351 . S
C3011 C3012 1.434 . S
C3012 C3003 1.429 . S
C3012 N3009 1.350 . S
C3012 C3011 1.434 . S
C3013 C3014 1.369 . S
C3013 C3015 1.419 . S
C3013 H3017 0.930 . S
C3014 C3013 1.369 . S
C3014 C3023 1.429 . S
C3015 C3013 1.419 . S
C3015 C3016 1.363 . S
C3015 H3018 0.929 . S
C3016 C3015 1.363 . S
C3016 C3022 1.428 . S
H3017 C3013 0.930 . S
H3018 C3015 0.929 . S
S3019 N3020 1.613 . S
S3019 N3021 1.610 . S
N3020 S3019 1.613 . S
N3020 C3023 1.350 . S
N3021 S3019 1.610 . S
N3021 C3022 1.351 . S
C3022 C3016 1.428 . S
C3022 N3021 1.351 . S
C3022 C3023 1.434 . S
C3023 C3014 1.429 . S
C3023 N3020 1.350 . S
C3023 C3022 1.434 . S
C3024 C3025 1.369 1_556 S
C3024 C3026 1.419 . S
C3024 H3028 0.930 . S
C3025 C3024 1.369 1_554 S
C3025 C3034 1.429 . S
C3026 C3024 1.419 . S
C3026 C3027 1.363 . S
C3026 H3029 0.929 . S
C3027 C3026 1.363 . S
C3027 C3033 1.428 1_556 S
H3028 C3024 0.930 . S
H3029 C3026 0.929 . S
S3030 N3031 1.613 . S
S3030 N3032 1.610 . S
N3031 S3030 1.613 . S
N3031 C3034 1.350 . S
N3032 S3030 1.610 . S
N3032 C3033 1.351 . S
C3033 C3027 1.428 1_554 S
C3033 N3032 1.351 . S
C3033 C3034 1.434 . S
C3034 C3025 1.429 . S
C3034 N3031 1.350 . S
C3034 C3033 1.434 . S
C3035 C3036 1.369 . S
C3035 C3037 1.419 . S
C3035 H3039 0.930 . S
C3036 C3035 1.369 . S
C3036 C3045 1.429 . S
C3037 C3035 1.419 . S
C3037 C3038 1.363 . S
C3037 H3040 0.929 . S
C3038 C3037 1.363 . S
C3038 C3044 1.428 . S
H3039 C3035 0.930 . S
H3040 C3037 0.929 . S
S3041 N3042 1.613 . S
S3041 N3043 1.610 . S
N3042 S3041 1.613 . S
N3042 C3045 1.350 . S
N3043 S3041 1.610 . S
N3043 C3044 1.351 . S
C3044 C3038 1.428 . S
C3044 N3043 1.351 . S
C3044 C3045 1.434 . S
C3045 C3036 1.429 . S
C3045 N3042 1.350 . S
C3045 C3044 1.434 . S
C3046 C3047 1.369 . S
C3046 C3048 1.419 . S
C3046 H3050 0.930 . S
C3047 C3046 1.369 . S
C3047 C3056 1.429 . S
C3048 C3046 1.419 . S
C3048 C3049 1.363 . S
C3048 H3051 0.929 . S
C3049 C3048 1.363 . S
C3049 C3055 1.428 . S
H3050 C3046 0.930 . S
H3051 C3048 0.929 . S
S3052 N3053 1.613 . S
S3052 N3054 1.610 . S
N3053 S3052 1.613 . S
N3053 C3056 1.350 . S
N3054 S3052 1.610 . S
N3054 C3055 1.351 . S
C3055 C3049 1.428 . S
C3055 N3054 1.351 . S
C3055 C3056 1.434 . S
C3056 C3047 1.429 . S
C3056 N3053 1.350 . S
C3056 C3055 1.434 . S
C3057 C3058 1.369 . S
C3057 C3059 1.419 . S
C3057 H3061 0.930 . S
C3058 C3057 1.369 . S
C3058 C3067 1.429 . S
C3059 C3057 1.419 . S
C3059 C3060 1.363 . S
C3059 H3062 0.929 . S
C3060 C3059 1.363 . S
C3060 C3066 1.428 . S
H3061 C3057 0.930 . S
H3062 C3059 0.929 . S
S3063 N3064 1.613 . S
S3063 N3065 1.610 . S
N3064 S3063 1.613 . S
N3064 C3067 1.350 . S
N3065 S3063 1.610 . S
N3065 C3066 1.351 . S
C3066 C3060 1.428 . S
C3066 N3065 1.351 . S
C3066 C3067 1.434 . S
C3067 C3058 1.429 . S
C3067 N3064 1.350 . S
C3067 C3066 1.434 . S
C3068 C3069 1.369 . S
C3068 C3070 1.419 . S
C3068 H3072 0.930 . S
C3069 C3068 1.369 . S
C3069 C3078 1.429 . S
C3070 C3068 1.419 . S
C3070 C3071 1.363 . S
C3070 H3073 0.929 . S
C3071 C3070 1.363 . S
C3071 C3077 1.428 . S
H3072 C3068 0.930 . S
H3073 C3070 0.929 . S
S3074 N3075 1.613 . S
S3074 N3076 1.610 . S
N3075 S3074 1.613 . S
N3075 C3078 1.350 . S
N3076 S3074 1.610 . S
N3076 C3077 1.351 . S
C3077 C3071 1.428 . S
C3077 N3076 1.351 . S
C3077 C3078 1.434 . S
C3078 C3069 1.429 . S
C3078 N3075 1.350 . S
C3078 C3077 1.434 . S
C3079 C3080 1.369 . S
C3079 C3081 1.419 . S
C3079 H3083 0.930 . S
C3080 C3079 1.369 . S
C3080 C3089 1.429 . S
C3081 C3079 1.419 . S
C3081 C3082 1.363 . S
C3081 H3084 0.929 . S
C3082 C3081 1.363 . S
C3082 C3088 1.428 . S
H3083 C3079 0.930 . S
H3084 C3081 0.929 . S
S3085 N3086 1.613 . S
S3085 N3087 1.610 . S
N3086 S3085 1.613 . S
N3086 C3089 1.350 . S
N3087 S3085 1.610 . S
N3087 C3088 1.351 . S
C3088 C3082 1.428 . S
C3088 N3087 1.351 . S
C3088 C3089 1.434 . S
C3089 C3080 1.429 . S
C3089 N3086 1.350 . S
C3089 C3088 1.434 . S
C3090 C3091 1.369 . S
C3090 C3092 1.419 . S
C3090 H3094 0.930 . S
C3091 C3090 1.369 . S
C3091 C3100 1.429 1_554 S
C3092 C3090 1.419 . S
C3092 C3093 1.363 1_554 S
C3092 H3095 0.929 . S
C3093 C3092 1.363 1_556 S
C3093 C3099 1.428 . S
H3094 C3090 0.930 . S
H3095 C3092 0.929 . S
S3096 N3097 1.613 . S
S3096 N3098 1.610 . S
N3097 S3096 1.613 . S
N3097 C3100 1.350 . S
N3098 S3096 1.610 . S
N3098 C3099 1.351 . S
C3099 C3093 1.428 . S
C3099 N3098 1.351 . S
C3099 C3100 1.434 . S
C3100 C3091 1.429 1_556 S
C3100 N3097 1.350 . S
C3100 C3099 1.434 . S
C3101 C3102 1.369 . S
C3101 C3103 1.419 . S
C3101 H3105 0.930 . S
C3102 C3101 1.369 . S
C3102 C3111 1.429 . S
C3103 C3101 1.419 . S
C3103 C3104 1.363 . S
C3103 H3106 0.929 . S
C3104 C3103 1.363 . S
C3104 C3110 1.428 . S
H3105 C3101 0.930 . S
H3106 C3103 0.929 . S
S3107 N3108 1.613 . S
S3107 N3109 1.610 . S
N3108 S3107 1.613 . S
N3108 C3111 1.350 . S
N3109 S3107 1.610 . S
N3109 C3110 1.351 . S
C3110 C3104 1.428 . S
C3110 N3109 1.351 . S
C3110 C3111 1.434 . S
C3111 C3102 1.429 . S
C3111 N3108 1.350 . S
C3111 C3110 1.434 . S
C3112 C3113 1.369 1_554 S
C3112 C3114 1.419 . S
C3112 H3116 0.930 . S
C3113 C3112 1.369 1_556 S
C3113 C3122 1.429 . S
C3114 C3112 1.419 . S
C3114 C3115 1.363 . S
C3114 H3117 0.929 . S
C3115 C3114 1.363 . S
C3115 C3121 1.428 1_554 S
H3116 C3112 0.930 . S
H3117 C3114 0.929 . S
S3118 N3119 1.613 . S
S3118 N3120 1.610 . S
N3119 S3118 1.613 . S
N3119 C3122 1.350 . S
N3120 S3118 1.610 . S
N3120 C3121 1.351 . S
C3121 C3115 1.428 1_556 S
C3121 N3120 1.351 . S
C3121 C3122 1.434 . S
C3122 C3113 1.429 . S
C3122 N3119 1.350 . S
C3122 C3121 1.434 . S
C3123 C3124 1.369 . S
C3123 C3125 1.419 . S
C3123 H3127 0.930 . S
C3124 C3123 1.369 . S
C3124 C3133 1.429 . S
C3125 C3123 1.419 . S
C3125 C3126 1.363 . S
C3125 H3128 0.929 . S
C3126 C3125 1.363 . S
C3126 C3132 1.428 . S
H3127 C3123 0.930 . S
H3128 C3125 0.929 . S
S3129 N3130 1.613 . S
S3129 N3131 1.610 . S
N3130 S3129 1.613 . S
N3130 C3133 1.350 . S
N3131 S3129 1.610 . S
N3131 C3132 1.351 . S
C3132 C3126 1.428 . S
C3132 N3131 1.351 . S
C3132 C3133 1.434 . S
C3133 C3124 1.429 . S
C3133 N3130 1.350 . S
C3133 C3132 1.434 . S
C3134 C3135 1.369 . S
C3134 C3136 1.419 . S
C3134 H3138 0.930 . S
C3135 C3134 1.369 . S
C3135 C3144 1.429 . S
C3136 C3134 1.419 . S
C3136 C3137 1.363 . S
C3136 H3139 0.929 . S
C3137 C3136 1.363 . S
C3137 C3143 1.428 . S
H3138 C3134 0.930 . S
H3139 C3136 0.929 . S
S3140 N3141 1.613 . S
S3140 N3142 1.610 . S
N3141 S3140 1.613 . S
N3141 C3144 1.350 . S
N3142 S3140 1.610 . S
N3142 C3143 1.351 . S
C3143 C3137 1.428 . S
C3143 N3142 1.351 . S
C3143 C3144 1.434 . S
C3144 C3135 1.429 . S
C3144 N3141 1.350 . S
C3144 C3143 1.434 . S
C3145 C3146 1.369 . S
C3145 C3147 1.419 . S
C3145 H3149 0.930 . S
C3146 C3145 1.369 . S
C3146 C3155 1.429 . S
C3147 C3145 1.419 . S
C3147 C3148 1.363 . S
C3147 H3150 0.929 . S
C3148 C3147 1.363 . S
C3148 C3154 1.428 . S
H3149 C3145 0.930 . S
H3150 C3147 0.929 . S
S3151 N3152 1.613 . S
S3151 N3153 1.610 . S
N3152 S3151 1.613 . S
N3152 C3155 1.350 . S
N3153 S3151 1.610 . S
N3153 C3154 1.351 . S
C3154 C3148 1.428 . S
C3154 N3153 1.351 . S
C3154 C3155 1.434 . S
C3155 C3146 1.429 . S
C3155 N3152 1.350 . S
C3155 C3154 1.434 . S
C3156 C3157 1.369 . S
C3156 C3158 1.419 . S
C3156 H3160 0.930 . S
C3157 C3156 1.369 . S
C3157 C3166 1.429 . S
C3158 C3156 1.419 . S
C3158 C3159 1.363 . S
C3158 H3161 0.929 . S
C3159 C3158 1.363 . S
C3159 C3165 1.428 . S
H3160 C3156 0.930 . S
H3161 C3158 0.929 . S
S3162 N3163 1.613 . S
S3162 N3164 1.610 . S
N3163 S3162 1.613 . S
N3163 C3166 1.350 . S
N3164 S3162 1.610 . S
N3164 C3165 1.351 . S
C3165 C3159 1.428 . S
C3165 N3164 1.351 . S
C3165 C3166 1.434 . S
C3166 C3157 1.429 . S
C3166 N3163 1.350 . S
C3166 C3165 1.434 . S
C3167 C3168 1.369 . S
C3167 C3169 1.419 . S
C3167 H3171 0.930 . S
C3168 C3167 1.369 . S
C3168 C3177 1.429 . S
C3169 C3167 1.419 . S
C3169 C3170 1.363 . S
C3169 H3172 0.929 . S
C3170 C3169 1.363 . S
C3170 C3176 1.428 . S
H3171 C3167 0.930 . S
H3172 C3169 0.929 . S
S3173 N3174 1.613 . S
S3173 N3175 1.610 . S
N3174 S3173 1.613 . S
N3174 C3177 1.350 . S
N3175 S3173 1.610 . S
N3175 C3176 1.351 . S
C3176 C3170 1.428 . S
C3176 N3175 1.351 . S
C3176 C3177 1.434 . S
C3177 C3168 1.429 . S
C3177 N3174 1.350 . S
C3177 C3176 1.434 . S
C3178 C3179 1.369 . S
C3178 C3180 1.419 . S
C3178 H3182 0.930 . S
C3179 C3178 1.369 . S
C3179 C3188 1.429 1_554 S
C3180 C3178 1.419 . S
C3180 C3181 1.363 1_554 S
C3180 H3183 0.929 . S
C3181 C3180 1.363 1_556 S
C3181 C3187 1.428 . S
H3182 C3178 0.930 . S
H3183 C3180 0.929 . S
S3184 N3185 1.613 . S
S3184 N3186 1.610 . S
N3185 S3184 1.613 . S
N3185 C3188 1.350 . S
N3186 S3184 1.610 . S
N3186 C3187 1.351 . S
C3187 C3181 1.428 . S
C3187 N3186 1.351 . S
C3187 C3188 1.434 . S
C3188 C3179 1.429 1_556 S
C3188 N3185 1.350 . S
C3188 C3187 1.434 . S
C3189 C3190 1.369 . S
C3189 C3191 1.419 . S
C3189 H3193 0.930 . S
C3190 C3189 1.369 . S
C3190 C3199 1.429 . S
C3191 C3189 1.419 . S
C3191 C3192 1.363 . S
C3191 H3194 0.929 . S
C3192 C3191 1.363 . S
C3192 C3198 1.428 . S
H3193 C3189 0.930 . S
H3194 C3191 0.929 . S
S3195 N3196 1.613 . S
S3195 N3197 1.610 . S
N3196 S3195 1.613 . S
N3196 C3199 1.350 . S
N3197 S3195 1.610 . S
N3197 C3198 1.351 . S
C3198 C3192 1.428 . S
C3198 N3197 1.351 . S
C3198 C3199 1.434 . S
C3199 C3190 1.429 . S
C3199 N3196 1.350 . S
C3199 C3198 1.434 . S
C3200 C3201 1.369 . S
C3200 C3202 1.419 . S
C3200 H3204 0.930 . S
C3201 C3200 1.369 . S
C3201 C3210 1.429 . S
C3202 C3200 1.419 . S
C3202 C3203 1.363 . S
C3202 H3205 0.929 . S
C3203 C3202 1.363 . S
C3203 C3209 1.428 . S
H3204 C3200 0.930 . S
H3205 C3202 0.929 . S
S3206 N3207 1.613 . S
S3206 N3208 1.610 . S
N3207 S3206 1.613 . S
N3207 C3210 1.350 . S
N3208 S3206 1.610 . S
N3208 C3209 1.351 . S
C3209 C3203 1.428 . S
C3209 N3208 1.351 . S
C3209 C3210 1.434 . S
C3210 C3201 1.429 . S
C3210 N3207 1.350 . S
C3210 C3209 1.434 . S
C3211 C3212 1.369 . S
C3211 C3213 1.419 . S
C3211 H3215 0.930 . S
C3212 C3211 1.369 . S
C3212 C3221 1.429 . S
C3213 C3211 1.419 . S
C3213 C3214 1.363 . S
C3213 H3216 0.929 . S
C3214 C3213 1.363 . S
C3214 C3220 1.428 . S
H3215 C3211 0.930 . S
H3216 C3213 0.929 . S
S3217 N3218 1.613 . S
S3217 N3219 1.610 . S
N3218 S3217 1.613 . S
N3218 C3221 1.350 . S
N3219 S3217 1.610 . S
N3219 C3220 1.351 . S
C3220 C3214 1.428 . S
C3220 N3219 1.351 . S
C3220 C3221 1.434 . S
C3221 C3212 1.429 . S
C3221 N3218 1.350 . S
C3221 C3220 1.434 . S
C3222 C3223 1.369 . S
C3222 C3224 1.419 1_556 S
C3222 H3226 0.930 . S
C3223 C3222 1.369 . S
C3223 C3232 1.429 . S
C3224 C3222 1.419 1_554 S
C3224 C3225 1.363 . S
C3224 H3227 0.929 . S
C3225 C3224 1.363 . S
C3225 C3231 1.428 . S
H3226 C3222 0.930 . S
H3227 C3224 0.929 . S
S3228 N3229 1.628 . S
S3228 N3230 1.597 1_556 S
N3229 S3228 1.628 . S
N3229 C3232 1.350 . S
N3230 S3228 1.597 1_554 S
N3230 C3231 1.351 . S
C3231 C3225 1.428 . S
C3231 N3230 1.351 . S
C3231 C3232 1.434 1_554 S
C3232 C3223 1.429 . S
C3232 N3229 1.350 . S
C3232 C3231 1.434 1_556 S
C3233 C3234 1.369 . S
C3233 C3235 1.419 . S
C3233 H3237 0.930 . S
C3234 C3233 1.369 . S
C3234 C3243 1.429 . S
C3235 C3233 1.419 . S
C3235 C3236 1.363 . S
C3235 H3238 0.929 . S
C3236 C3235 1.363 . S
C3236 C3242 1.428 . S
H3237 C3233 0.930 . S
H3238 C3235 0.929 . S
S3239 N3240 1.613 . S
S3239 N3241 1.610 . S
N3240 S3239 1.613 . S
N3240 C3243 1.350 . S
N3241 S3239 1.610 . S
N3241 C3242 1.351 . S
C3242 C3236 1.428 . S
C3242 N3241 1.351 . S
C3242 C3243 1.434 . S
C3243 C3234 1.429 . S
C3243 N3240 1.350 . S
C3243 C3242 1.434 . S
C3244 C3245 1.359 1_554 S
C3244 C3246 1.430 . S
C3244 H3248 0.929 1_554 S
C3245 C3244 1.359 1_556 S
C3245 C3254 1.429 . S
C3246 C3244 1.430 . S
C3246 C3247 1.363 . S
C3246 H3249 0.929 . S
C3247 C3246 1.363 . S
C3247 C3253 1.428 . S
H3248 C3244 0.929 1_556 S
H3249 C3246 0.929 . S
S3250 N3251 1.613 . S
S3250 N3252 1.610 1_556 S
N3251 S3250 1.613 . S
N3251 C3254 1.350 . S
N3252 S3250 1.610 1_554 S
N3252 C3253 1.351 . S
C3253 C3247 1.428 . S
C3253 N3252 1.351 . S
C3253 C3254 1.434 1_554 S
C3254 C3245 1.429 . S
C3254 N3251 1.350 . S
C3254 C3253 1.434 1_556 S
C3255 C3256 1.369 . S
C3255 C3257 1.419 . S
C3255 H3259 0.930 . S
C3256 C3255 1.369 . S
C3256 C3265 1.429 . S
C3257 C3255 1.419 . S
C3257 C3258 1.363 . S
C3257 H3260 0.929 . S
C3258 C3257 1.363 . S
C3258 C3264 1.428 . S
H3259 C3255 0.930 . S
H3260 C3257 0.929 . S
S3261 N3262 1.613 . S
S3261 N3263 1.610 . S
N3262 S3261 1.613 . S
N3262 C3265 1.350 . S
N3263 S3261 1.610 . S
N3263 C3264 1.351 . S
C3264 C3258 1.428 . S
C3264 N3263 1.351 . S
C3264 C3265 1.434 . S
C3265 C3256 1.429 . S
C3265 N3262 1.350 . S
C3265 C3264 1.434 . S
C3266 C3267 1.369 . S
C3266 C3268 1.419 . S
C3266 H3270 0.930 . S
C3267 C3266 1.369 . S
C3267 C3276 1.429 . S
C3268 C3266 1.419 . S
C3268 C3269 1.363 . S
C3268 H3271 0.929 . S
C3269 C3268 1.363 . S
C3269 C3275 1.428 . S
H3270 C3266 0.930 . S
H3271 C3268 0.929 . S
S3272 N3273 1.613 . S
S3272 N3274 1.610 . S
N3273 S3272 1.613 . S
N3273 C3276 1.350 . S
N3274 S3272 1.610 . S
N3274 C3275 1.351 . S
C3275 C3269 1.428 . S
C3275 N3274 1.351 . S
C3275 C3276 1.434 . S
C3276 C3267 1.429 . S
C3276 N3273 1.350 . S
C3276 C3275 1.434 . S
C3277 C3278 1.369 . S
C3277 C3279 1.419 . S
C3277 H3281 0.930 . S
C3278 C3277 1.369 . S
C3278 C3287 1.429 . S
C3279 C3277 1.419 . S
C3279 C3280 1.363 . S
C3279 H3282 0.929 . S
C3280 C3279 1.363 . S
C3280 C3286 1.428 . S
H3281 C3277 0.930 . S
H3282 C3279 0.929 . S
S3283 N3284 1.613 . S
S3283 N3285 1.610 . S
N3284 S3283 1.613 . S
N3284 C3287 1.350 . S
N3285 S3283 1.610 . S
N3285 C3286 1.351 . S
C3286 C3280 1.428 . S
C3286 N3285 1.351 . S
C3286 C3287 1.434 . S
C3287 C3278 1.429 . S
C3287 N3284 1.350 . S
C3287 C3286 1.434 . S
C3288 C3289 1.369 . S
C3288 C3290 1.419 . S
C3288 H3292 0.930 . S
C3289 C3288 1.369 . S
C3289 C3298 1.429 . S
C3290 C3288 1.419 . S
C3290 C3291 1.363 . S
C3290 H3293 0.929 . S
C3291 C3290 1.363 . S
C3291 C3297 1.428 . S
H3292 C3288 0.930 . S
H3293 C3290 0.929 . S
S3294 N3295 1.613 . S
S3294 N3296 1.610 . S
N3295 S3294 1.613 . S
N3295 C3298 1.350 . S
N3296 S3294 1.610 . S
N3296 C3297 1.351 . S
C3297 C3291 1.428 . S
C3297 N3296 1.351 . S
C3297 C3298 1.434 . S
C3298 C3289 1.429 . S
C3298 N3295 1.350 . S
C3298 C3297 1.434 . S
C3299 C3300 1.369 . S
C3299 C3301 1.419 . S
C3299 H3303 0.930 . S
C3300 C3299 1.369 . S
C3300 C3309 1.429 . S
C3301 C3299 1.419 . S
C3301 C3302 1.363 . S
C3301 H3304 0.929 . S
C3302 C3301 1.363 . S
C3302 C3308 1.428 . S
H3303 C3299 0.930 . S
H3304 C3301 0.929 . S
S3305 N3306 1.613 . S
S3305 N3307 1.610 . S
N3306 S3305 1.613 . S
N3306 C3309 1.350 . S
N3307 S3305 1.610 . S
N3307 C3308 1.351 . S
C3308 C3302 1.428 . S
C3308 N3307 1.351 . S
C3308 C3309 1.434 . S
C3309 C3300 1.429 . S
C3309 N3306 1.350 . S
C3309 C3308 1.434 . S
C3310 C3311 1.399 . S
C3310 C3312 1.384 1_556 S
C3310 H3314 0.939 . S
C3311 C3310 1.399 . S
C3311 C3320 1.429 . S
C3312 C3310 1.384 1_554 S
C3312 C3313 1.363 . S
C3312 H3315 0.929 . S
C3313 C3312 1.363 . S
C3313 C3319 1.428 . S
H3314 C3310 0.939 . S
H3315 C3312 0.929 . S
S3316 N3317 1.613 . S
S3316 N3318 1.610 1_556 S
N3317 S3316 1.613 . S
N3317 C3320 1.350 . S
N3318 S3316 1.610 1_554 S
N3318 C3319 1.351 . S
C3319 C3313 1.428 . S
C3319 N3318 1.351 . S
C3319 C3320 1.434 1_554 S
C3320 C3311 1.429 . S
C3320 N3317 1.350 . S
C3320 C3319 1.434 1_556 S
C3321 C3322 1.369 . S
C3321 C3323 1.419 . S
C3321 H3325 0.930 . S
C3322 C3321 1.369 . S
C3322 C3331 1.429 . S
C3323 C3321 1.419 . S
C3323 C3324 1.363 . S
C3323 H3326 0.929 . S
C3324 C3323 1.363 . S
C3324 C3330 1.428 . S
H3325 C3321 0.930 . S
H3326 C3323 0.929 . S
S3327 N3328 1.613 . S
S3327 N3329 1.610 . S
N3328 S3327 1.613 . S
N3328 C3331 1.350 . S
N3329 S3327 1.610 . S
N3329 C3330 1.351 . S
C3330 C3324 1.428 . S
C3330 N3329 1.351 . S
C3330 C3331 1.434 . S
C3331 C3322 1.429 . S
C3331 N3328 1.350 . S
C3331 C3330 1.434 . S
C3332 C3333 1.369 1_556 S
C3332 C3334 1.419 . S
C3332 H3336 0.930 . S
C3333 C3332 1.369 1_554 S
C3333 C3342 1.429 . S
C3334 C3332 1.419 . S
C3334 C3335 1.363 . S
C3334 H3337 0.929 . S
C3335 C3334 1.363 . S
C3335 C3341 1.428 1_556 S
H3336 C3332 0.930 . S
H3337 C3334 0.929 . S
S3338 N3339 1.613 . S
S3338 N3340 1.610 . S
N3339 S3338 1.613 . S
N3339 C3342 1.350 . S
N3340 S3338 1.610 . S
N3340 C3341 1.351 . S
C3341 C3335 1.428 1_554 S
C3341 N3340 1.351 . S
C3341 C3342 1.434 . S
C3342 C3333 1.429 . S
C3342 N3339 1.350 . S
C3342 C3341 1.434 . S
C3343 C3344 1.369 . S
C3343 C3345 1.419 . S
C3343 H3347 0.930 . S
C3344 C3343 1.369 . S
C3344 C3353 1.429 . S
C3345 C3343 1.419 . S
C3345 C3346 1.363 . S
C3345 H3348 0.929 . S
C3346 C3345 1.363 . S
C3346 C3352 1.428 . S
H3347 C3343 0.930 . S
H3348 C3345 0.929 . S
S3349 N3350 1.613 . S
S3349 N3351 1.610 . S
N3350 S3349 1.613 . S
N3350 C3353 1.350 . S
N3351 S3349 1.610 . S
N3351 C3352 1.351 . S
C3352 C3346 1.428 . S
C3352 N3351 1.351 . S
C3352 C3353 1.434 . S
C3353 C3344 1.429 . S
C3353 N3350 1.350 . S
C3353 C3352 1.434 . S
C3354 C3355 1.369 . S
C3354 C3356 1.419 . S
C3354 H3358 0.930 . S
C3355 C3354 1.369 . S
C3355 C3364 1.429 . S
C3356 C3354 1.419 . S
C3356 C3357 1.363 . S
C3356 H3359 0.929 . S
C3357 C3356 1.363 . S
C3357 C3363 1.428 . S
H3358 C3354 0.930 . S
H3359 C3356 0.929 . S
S3360 N3361 1.613 . S
S3360 N3362 1.610 . S
N3361 S3360 1.613 . S
N3361 C3364 1.350 . S
N3362 S3360 1.610 . S
N3362 C3363 1.351 . S
C3363 C3357 1.428 . S
C3363 N3362 1.351 . S
C3363 C3364 1.434 . S
C3364 C3355 1.429 . S
C3364 N3361 1.350 . S
C3364 C3363 1.434 . S
C3365 C3366 1.369 . S
C3365 C3367 1.419 . S
C3365 H3369 0.930 . S
C3366 C3365 1.369 . S
C3366 C3375 1.429 . S
C3367 C3365 1.419 . S
C3367 C3368 1.363 . S
C3367 H3370 0.929 . S
C3368 C3367 1.363 . S
C3368 C3374 1.428 . S
H3369 C3365 0.930 . S
H3370 C3367 0.929 . S
S3371 N3372 1.613 . S
S3371 N3373 1.610 . S
N3372 S3371 1.613 . S
N3372 C3375 1.350 . S
N3373 S3371 1.610 . S
N3373 C3374 1.351 . S
C3374 C3368 1.428 . S
C3374 N3373 1.351 . S
C3374 C3375 1.434 . S
C3375 C3366 1.429 . S
C3375 N3372 1.350 . S
C3375 C3374 1.434 . S
C3376 C3377 1.369 . S
C3376 C3378 1.419 . S
C3376 H3380 0.930 . S
C3377 C3376 1.369 . S
C3377 C3386 1.429 . S
C3378 C3376 1.419 . S
C3378 C3379 1.363 . S
C3378 H3381 0.929 . S
C3379 C3378 1.363 . S
C3379 C3385 1.428 . S
H3380 C3376 0.930 . S
H3381 C3378 0.929 . S
S3382 N3383 1.613 . S
S3382 N3384 1.610 . S
N3383 S3382 1.613 . S
N3383 C3386 1.350 . S
N3384 S3382 1.610 . S
N3384 C3385 1.351 . S
C3385 C3379 1.428 . S
C3385 N3384 1.351 . S
C3385 C3386 1.434 . S
C3386 C3377 1.429 . S
C3386 N3383 1.350 . S
C3386 C3385 1.434 . S
C3387 C3388 1.369 . S
C3387 C3389 1.419 . S
C3387 H3391 0.930 . S
C3388 C3387 1.369 . S
C3388 C3397 1.429 . S
C3389 C3387 1.419 . S
C3389 C3390 1.363 . S
C3389 H3392 0.929 . S
C3390 C3389 1.363 . S
C3390 C3396 1.428 . S
H3391 C3387 0.930 . S
H3392 C3389 0.929 . S
S3393 N3394 1.613 . S
S3393 N3395 1.610 . S
N3394 S3393 1.613 . S
N3394 C3397 1.350 . S
N3395 S3393 1.610 . S
N3395 C3396 1.351 . S
C3396 C3390 1.428 . S
C3396 N3395 1.351 . S
C3396 C3397 1.434 . S
C3397 C3388 1.429 . S
C3397 N3394 1.350 . S
C3397 C3396 1.434 . S
C3398 C3399 1.369 . S
C3398 C3400 1.419 . S
C3398 H3402 0.930 . S
C3399 C3398 1.369 . S
C3399 C3408 1.429 . S
C3400 C3398 1.419 . S
C3400 C3401 1.363 . S
C3400 H3403 0.929 . S
C3401 C3400 1.363 . S
C3401 C3407 1.428 . S
H3402 C3398 0.930 . S
H3403 C3400 0.929 . S
S3404 N3405 1.613 . S
S3404 N3406 1.610 . S
N3405 S3404 1.613 . S
N3405 C3408 1.350 . S
N3406 S3404 1.610 . S
N3406 C3407 1.351 . S
C3407 C3401 1.428 . S
C3407 N3406 1.351 . S
C3407 C3408 1.434 . S
C3408 C3399 1.429 . S
C3408 N3405 1.350 . S
C3408 C3407 1.434 . S
C3409 C3410 1.369 . S
C3409 C3411 1.419 . S
C3409 H3413 0.930 . S
C3410 C3409 1.369 . S
C3410 C3419 1.429 . S
C3411 C3409 1.419 . S
C3411 C3412 1.363 . S
C3411 H3414 0.929 . S
C3412 C3411 1.363 . S
C3412 C3418 1.428 . S
H3413 C3409 0.930 . S
H3414 C3411 0.929 . S
S3415 N3416 1.613 . S
S3415 N3417 1.610 . S
N3416 S3415 1.613 . S
N3416 C3419 1.350 . S
N3417 S3415 1.610 . S
N3417 C3418 1.351 . S
C3418 C3412 1.428 . S
C3418 N3417 1.351 . S
C3418 C3419 1.434 . S
C3419 C3410 1.429 . S
C3419 N3416 1.350 . S
C3419 C3418 1.434 . S
C3420 C3421 1.369 . S
C3420 C3422 1.419 . S
C3420 H3424 0.930 . S
C3421 C3420 1.369 . S
C3421 C3430 1.429 . S
C3422 C3420 1.419 . S
C3422 C3423 1.363 . S
C3422 H3425 0.929 . S
C3423 C3422 1.363 . S
C3423 C3429 1.428 . S
H3424 C3420 0.930 . S
H3425 C3422 0.929 . S
S3426 N3427 1.613 . S
S3426 N3428 1.610 . S
N3427 S3426 1.613 . S
N3427 C3430 1.350 . S
N3428 S3426 1.610 . S
N3428 C3429 1.351 . S
C3429 C3423 1.428 . S
C3429 N3428 1.351 . S
C3429 C3430 1.434 . S
C3430 C3421 1.429 . S
C3430 N3427 1.350 . S
C3430 C3429 1.434 . S
C3431 C3432 1.369 . S
C3431 C3433 1.419 . S
C3431 H3435 0.930 . S
C3432 C3431 1.369 . S
C3432 C3441 1.429 . S
C3433 C3431 1.419 . S
C3433 C3434 1.363 . S
C3433 H3436 0.929 . S
C3434 C3433 1.363 . S
C3434 C3440 1.428 . S
H3435 C3431 0.930 . S
H3436 C3433 0.929 . S
S3437 N3438 1.613 . S
S3437 N3439 1.610 . S
N3438 S3437 1.613 . S
N3438 C3441 1.350 . S
N3439 S3437 1.610 . S
N3439 C3440 1.351 . S
C3440 C3434 1.428 . S
C3440 N3439 1.351 . S
C3440 C3441 1.434 . S
C3441 C3432 1.429 . S
C3441 N3438 1.350 . S
C3441 C3440 1.434 . S
C3442 C3443 1.369 . S
C3442 C3444 1.419 . S
C3442 H3446 0.930 . S
C3443 C3442 1.369 . S
C3443 C3452 1.429 . S
C3444 C3442 1.419 . S
C3444 C3445 1.363 . S
C3444 H3447 0.929 . S
C3445 C3444 1.363 . S
C3445 C3451 1.428 . S
H3446 C3442 0.930 . S
H3447 C3444 0.929 . S
S3448 N3449 1.613 . S
S3448 N3450 1.610 . S
N3449 S3448 1.613 . S
N3449 C3452 1.350 . S
N3450 S3448 1.610 . S
N3450 C3451 1.351 . S
C3451 C3445 1.428 . S
C3451 N3450 1.351 . S
C3451 C3452 1.434 . S
C3452 C3443 1.429 . S
C3452 N3449 1.350 . S
C3452 C3451 1.434 . S
C3453 C3454 1.369 . S
C3453 C3455 1.419 . S
C3453 H3457 0.930 . S
C3454 C3453 1.369 . S
C3454 C3463 1.429 . S
C3455 C3453 1.419 . S
C3455 C3456 1.363 . S
C3455 H3458 0.929 . S
C3456 C3455 1.363 . S
C3456 C3462 1.428 . S
H3457 C3453 0.930 . S
H3458 C3455 0.929 . S
S3459 N3460 1.613 . S
S3459 N3461 1.610 . S
N3460 S3459 1.613 . S
N3460 C3463 1.350 . S
N3461 S3459 1.610 . S
N3461 C3462 1.351 . S
C3462 C3456 1.428 . S
C3462 N3461 1.351 . S
C3462 C3463 1.434 . S
C3463 C3454 1.429 . S
C3463 N3460 1.350 . S
C3463 C3462 1.434 . S
C3464 C3465 1.369 . S
C3464 C3466 1.419 . S
C3464 H3468 0.930 . S
C3465 C3464 1.369 . S
C3465 C3474 1.429 . S
C3466 C3464 1.419 . S
C3466 C3467 1.363 . S
C3466 H3469 0.929 . S
C3467 C3466 1.363 . S
C3467 C3473 1.428 . S
H3468 C3464 0.930 . S
H3469 C3466 0.929 . S
S3470 N3471 1.613 . S
S3470 N3472 1.610 . S
N3471 S3470 1.613 . S
N3471 C3474 1.350 . S
N3472 S3470 1.610 . S
N3472 C3473 1.351 . S
C3473 C3467 1.428 . S
C3473 N3472 1.351 . S
C3473 C3474 1.434 . S
C3474 C3465 1.429 . S
C3474 N3471 1.350 . S
C3474 C3473 1.434 . S
C3475 C3476 1.369 . S
C3475 C3477 1.419 . S
C3475 H3479 0.930 . S
C3476 C3475 1.369 . S
C3476 C3485 1.429 . S
C3477 C3475 1.419 . S
C3477 C3478 1.363 . S
C3477 H3480 0.929 . S
C3478 C3477 1.363 . S
C3478 C3484 1.428 . S
H3479 C3475 0.930 . S
H3480 C3477 0.929 . S
S3481 N3482 1.613 . S
S3481 N3483 1.610 . S
N3482 S3481 1.613 . S
N3482 C3485 1.350 . S
N3483 S3481 1.610 . S
N3483 C3484 1.351 . S
C3484 C3478 1.428 . S
C3484 N3483 1.351 . S
C3484 C3485 1.434 . S
C3485 C3476 1.429 . S
C3485 N3482 1.350 . S
C3485 C3484 1.434 . S
C3486 C3487 1.369 . S
C3486 C3488 1.419 . S
C3486 H3490 0.930 . S
C3487 C3486 1.369 . S
C3487 C3496 1.429 . S
C3488 C3486 1.419 . S
C3488 C3489 1.363 . S
C3488 H3491 0.929 . S
C3489 C3488 1.363 . S
C3489 C3495 1.428 . S
H3490 C3486 0.930 . S
H3491 C3488 0.929 . S
S3492 N3493 1.613 . S
S3492 N3494 1.610 . S
N3493 S3492 1.613 . S
N3493 C3496 1.350 . S
N3494 S3492 1.610 . S
N3494 C3495 1.351 . S
C3495 C3489 1.428 . S
C3495 N3494 1.351 . S
C3495 C3496 1.434 . S
C3496 C3487 1.429 . S
C3496 N3493 1.350 . S
C3496 C3495 1.434 . S
C3497 C3498 1.369 . S
C3497 C3499 1.419 . S
C3497 H3501 0.930 . S
C3498 C3497 1.369 . S
C3498 C3507 1.429 . S
C3499 C3497 1.419 . S
C3499 C3500 1.363 . S
C3499 H3502 0.929 . S
C3500 C3499 1.363 . S
C3500 C3506 1.428 . S
H3501 C3497 0.930 . S
H3502 C3499 0.929 . S
S3503 N3504 1.613 . S
S3503 N3505 1.610 . S
N3504 S3503 1.613 . S
N3504 C3507 1.350 . S
N3505 S3503 1.610 . S
N3505 C3506 1.351 . S
C3506 C3500 1.428 . S
C3506 N3505 1.351 . S
C3506 C3507 1.434 . S
C3507 C3498 1.429 . S
C3507 N3504 1.350 . S
C3507 C3506 1.434 . S
C3508 C3509 1.369 . S
C3508 C3510 1.419 . S
C3508 H3512 0.930 . S
C3509 C3508 1.369 . S
C3509 C3518 1.429 . S
C3510 C3508 1.419 . S
C3510 C3511 1.363 . S
C3510 H3513 0.929 . S
C3511 C3510 1.363 . S
C3511 C3517 1.428 . S
H3512 C3508 0.930 . S
H3513 C3510 0.929 . S
S3514 N3515 1.613 . S
S3514 N3516 1.610 . S
N3515 S3514 1.613 . S
N3515 C3518 1.350 . S
N3516 S3514 1.610 . S
N3516 C3517 1.351 . S
C3517 C3511 1.428 . S
C3517 N3516 1.351 . S
C3517 C3518 1.434 . S
C3518 C3509 1.429 . S
C3518 N3515 1.350 . S
C3518 C3517 1.434 . S
C3519 C3520 1.369 . S
C3519 C3521 1.419 . S
C3519 H3523 0.930 . S
C3520 C3519 1.369 . S
C3520 C3529 1.429 . S
C3521 C3519 1.419 . S
C3521 C3522 1.363 . S
C3521 H3524 0.929 . S
C3522 C3521 1.363 . S
C3522 C3528 1.428 . S
H3523 C3519 0.930 . S
H3524 C3521 0.929 . S
S3525 N3526 1.613 . S
S3525 N3527 1.610 . S
N3526 S3525 1.613 . S
N3526 C3529 1.350 . S
N3527 S3525 1.610 . S
N3527 C3528 1.351 . S
C3528 C3522 1.428 . S
C3528 N3527 1.351 . S
C3528 C3529 1.434 . S
C3529 C3520 1.429 . S
C3529 N3526 1.350 . S
C3529 C3528 1.434 . S
C3530 C3531 1.369 . S
C3530 C3532 1.419 . S
C3530 H3534 0.930 . S
C3531 C3530 1.369 . S
C3531 C3540 1.429 . S
C3532 C3530 1.419 . S
C3532 C3533 1.363 . S
C3532 H3535 0.929 . S
C3533 C3532 1.363 . S
C3533 C3539 1.428 . S
H3534 C3530 0.930 . S
H3535 C3532 0.929 . S
S3536 N3537 1.613 . S
S3536 N3538 1.610 . S
N3537 S3536 1.613 . S
N3537 C3540 1.350 . S
N3538 S3536 1.610 . S
N3538 C3539 1.351 . S
C3539 C3533 1.428 . S
C3539 N3538 1.351 . S
C3539 C3540 1.434 . S
C3540 C3531 1.429 . S
C3540 N3537 1.350 . S
C3540 C3539 1.434 . S
C3541 C3542 1.369 . S
C3541 C3543 1.419 . S
C3541 H3545 0.930 . S
C3542 C3541 1.369 . S
C3542 C3551 1.429 . S
C3543 C3541 1.419 . S
C3543 C3544 1.363 . S
C3543 H3546 0.929 . S
C3544 C3543 1.363 . S
C3544 C3550 1.428 . S
H3545 C3541 0.930 . S
H3546 C3543 0.929 . S
S3547 N3548 1.613 . S
S3547 N3549 1.610 . S
N3548 S3547 1.613 . S
N3548 C3551 1.350 . S
N3549 S3547 1.610 . S
N3549 C3550 1.351 . S
C3550 C3544 1.428 . S
C3550 N3549 1.351 . S
C3550 C3551 1.434 . S
C3551 C3542 1.429 . S
C3551 N3548 1.350 . S
C3551 C3550 1.434 . S
C3552 C3553 1.369 . S
C3552 C3554 1.419 . S
C3552 H3556 0.930 . S
C3553 C3552 1.369 . S
C3553 C3562 1.429 . S
C3554 C3552 1.419 . S
C3554 C3555 1.363 . S
C3554 H3557 0.929 . S
C3555 C3554 1.363 . S
C3555 C3561 1.428 . S
H3556 C3552 0.930 . S
H3557 C3554 0.929 . S
S3558 N3559 1.613 . S
S3558 N3560 1.610 . S
N3559 S3558 1.613 . S
N3559 C3562 1.350 . S
N3560 S3558 1.610 . S
N3560 C3561 1.351 . S
C3561 C3555 1.428 . S
C3561 N3560 1.351 . S
C3561 C3562 1.434 . S
C3562 C3553 1.429 . S
C3562 N3559 1.350 . S
C3562 C3561 1.434 . S
C3563 C3564 1.369 . S
C3563 C3565 1.419 . S
C3563 H3567 0.930 . S
C3564 C3563 1.369 . S
C3564 C3573 1.429 . S
C3565 C3563 1.419 . S
C3565 C3566 1.363 . S
C3565 H3568 0.929 . S
C3566 C3565 1.363 . S
C3566 C3572 1.428 . S
H3567 C3563 0.930 . S
H3568 C3565 0.929 . S
S3569 N3570 1.613 . S
S3569 N3571 1.610 . S
N3570 S3569 1.613 . S
N3570 C3573 1.350 . S
N3571 S3569 1.610 . S
N3571 C3572 1.351 . S
C3572 C3566 1.428 . S
C3572 N3571 1.351 . S
C3572 C3573 1.434 . S
C3573 C3564 1.429 . S
C3573 N3570 1.350 . S
C3573 C3572 1.434 . S
C3574 C3575 1.369 . S
C3574 C3576 1.419 . S
C3574 H3578 0.930 . S
C3575 C3574 1.369 . S
C3575 C3584 1.429 . S
C3576 C3574 1.419 . S
C3576 C3577 1.363 . S
C3576 H3579 0.929 . S
C3577 C3576 1.363 . S
C3577 C3583 1.428 . S
H3578 C3574 0.930 . S
H3579 C3576 0.929 . S
S3580 N3581 1.613 . S
S3580 N3582 1.610 . S
N3581 S3580 1.613 . S
N3581 C3584 1.350 . S
N3582 S3580 1.610 . S
N3582 C3583 1.351 . S
C3583 C3577 1.428 . S
C3583 N3582 1.351 . S
C3583 C3584 1.434 . S
C3584 C3575 1.429 . S
C3584 N3581 1.350 . S
C3584 C3583 1.434 . S
C3585 C3586 1.369 . S
C3585 C3587 1.419 . S
C3585 H3589 0.930 . S
C3586 C3585 1.369 . S
C3586 C3595 1.429 . S
C3587 C3585 1.419 . S
C3587 C3588 1.363 . S
C3587 H3590 0.929 . S
C3588 C3587 1.363 . S
C3588 C3594 1.428 . S
H3589 C3585 0.930 . S
H3590 C3587 0.929 . S
S3591 N3592 1.613 . S
S3591 N3593 1.610 . S
N3592 S3591 1.613 . S
N3592 C3595 1.350 . S
N3593 S3591 1.610 . S
N3593 C3594 1.351 . S
C3594 C3588 1.428 . S
C3594 N3593 1.351 . S
C3594 C3595 1.434 . S
C3595 C3586 1.429 . S
C3595 N3592 1.350 . S
C3595 C3594 1.434 . S
C3596 C3597 1.369 . S
C3596 C3598 1.419 . S
C3596 H3600 0.930 . S
C3597 C3596 1.369 . S
C3597 C3606 1.429 . S
C3598 C3596 1.419 . S
C3598 C3599 1.363 . S
C3598 H3601 0.929 . S
C3599 C3598 1.363 . S
C3599 C3605 1.428 . S
H3600 C3596 0.930 . S
H3601 C3598 0.929 . S
S3602 N3603 1.613 . S
S3602 N3604 1.610 . S
N3603 S3602 1.613 . S
N3603 C3606 1.350 . S
N3604 S3602 1.610 . S
N3604 C3605 1.351 . S
C3605 C3599 1.428 . S
C3605 N3604 1.351 . S
C3605 C3606 1.434 . S
C3606 C3597 1.429 . S
C3606 N3603 1.350 . S
C3606 C3605 1.434 . S
C3607 C3608 1.369 . S
C3607 C3609 1.419 . S
C3607 H3611 0.930 . S
C3608 C3607 1.369 . S
C3608 C3617 1.429 . S
C3609 C3607 1.419 . S
C3609 C3610 1.363 . S
C3609 H3612 0.929 . S
C3610 C3609 1.363 . S
C3610 C3616 1.428 . S
H3611 C3607 0.930 . S
H3612 C3609 0.929 . S
S3613 N3614 1.613 . S
S3613 N3615 1.610 . S
N3614 S3613 1.613 . S
N3614 C3617 1.350 . S
N3615 S3613 1.610 . S
N3615 C3616 1.351 . S
C3616 C3610 1.428 . S
C3616 N3615 1.351 . S
C3616 C3617 1.434 . S
C3617 C3608 1.429 . S
C3617 N3614 1.350 . S
C3617 C3616 1.434 . S
C3618 C3619 1.369 . S
C3618 C3620 1.419 . S
C3618 H3622 0.930 . S
C3619 C3618 1.369 . S
C3619 C3628 1.429 . S
C3620 C3618 1.419 . S
C3620 C3621 1.363 . S
C3620 H3623 0.929 . S
C3621 C3620 1.363 . S
C3621 C3627 1.428 . S
H3622 C3618 0.930 . S
H3623 C3620 0.929 . S
S3624 N3625 1.613 . S
S3624 N3626 1.610 . S
N3625 S3624 1.613 . S
N3625 C3628 1.350 . S
N3626 S3624 1.610 . S
N3626 C3627 1.351 . S
C3627 C3621 1.428 . S
C3627 N3626 1.351 . S
C3627 C3628 1.434 . S
C3628 C3619 1.429 . S
C3628 N3625 1.350 . S
C3628 C3627 1.434 . S
C3629 C3630 1.369 . S
C3629 C3631 1.419 . S
C3629 H3633 0.930 . S
C3630 C3629 1.369 . S
C3630 C3639 1.429 . S
C3631 C3629 1.419 . S
C3631 C3632 1.363 . S
C3631 H3634 0.929 . S
C3632 C3631 1.363 . S
C3632 C3638 1.428 . S
H3633 C3629 0.930 . S
H3634 C3631 0.929 . S
S3635 N3636 1.613 . S
S3635 N3637 1.610 . S
N3636 S3635 1.613 . S
N3636 C3639 1.350 . S
N3637 S3635 1.610 . S
N3637 C3638 1.351 . S
C3638 C3632 1.428 . S
C3638 N3637 1.351 . S
C3638 C3639 1.434 . S
C3639 C3630 1.429 . S
C3639 N3636 1.350 . S
C3639 C3638 1.434 . S
C3640 C3641 1.369 . S
C3640 C3642 1.419 . S
C3640 H3644 0.930 . S
C3641 C3640 1.369 . S
C3641 C3650 1.429 . S
C3642 C3640 1.419 . S
C3642 C3643 1.363 . S
C3642 H3645 0.929 . S
C3643 C3642 1.363 . S
C3643 C3649 1.428 . S
H3644 C3640 0.930 . S
H3645 C3642 0.929 . S
S3646 N3647 1.613 . S
S3646 N3648 1.610 . S
N3647 S3646 1.613 . S
N3647 C3650 1.350 . S
N3648 S3646 1.610 . S
N3648 C3649 1.351 . S
C3649 C3643 1.428 . S
C3649 N3648 1.351 . S
C3649 C3650 1.434 . S
C3650 C3641 1.429 . S
C3650 N3647 1.350 . S
C3650 C3649 1.434 . S
C3651 C3652 1.369 . S
C3651 C3653 1.419 . S
C3651 H3655 0.930 . S
C3652 C3651 1.369 . S
C3652 C3661 1.429 . S
C3653 C3651 1.419 . S
C3653 C3654 1.363 . S
C3653 H3656 0.929 . S
C3654 C3653 1.363 . S
C3654 C3660 1.428 . S
H3655 C3651 0.930 . S
H3656 C3653 0.929 . S
S3657 N3658 1.613 . S
S3657 N3659 1.610 . S
N3658 S3657 1.613 . S
N3658 C3661 1.350 . S
N3659 S3657 1.610 . S
N3659 C3660 1.351 . S
C3660 C3654 1.428 . S
C3660 N3659 1.351 . S
C3660 C3661 1.434 . S
C3661 C3652 1.429 . S
C3661 N3658 1.350 . S
C3661 C3660 1.434 . S
C3662 C3663 1.369 . S
C3662 C3664 1.419 . S
C3662 H3666 0.930 . S
C3663 C3662 1.369 . S
C3663 C3672 1.429 . S
C3664 C3662 1.419 . S
C3664 C3665 1.363 . S
C3664 H3667 0.929 . S
C3665 C3664 1.363 . S
C3665 C3671 1.428 . S
H3666 C3662 0.930 . S
H3667 C3664 0.929 . S
S3668 N3669 1.613 . S
S3668 N3670 1.610 . S
N3669 S3668 1.613 . S
N3669 C3672 1.350 . S
N3670 S3668 1.610 . S
N3670 C3671 1.351 . S
C3671 C3665 1.428 . S
C3671 N3670 1.351 . S
C3671 C3672 1.434 . S
C3672 C3663 1.429 . S
C3672 N3669 1.350 . S
C3672 C3671 1.434 . S
C3673 C3674 1.369 . S
C3673 C3675 1.419 . S
C3673 H3677 0.930 . S
C3674 C3673 1.369 . S
C3674 C3683 1.429 . S
C3675 C3673 1.419 . S
C3675 C3676 1.363 . S
C3675 H3678 0.929 . S
C3676 C3675 1.363 . S
C3676 C3682 1.428 . S
H3677 C3673 0.930 . S
H3678 C3675 0.929 . S
S3679 N3680 1.613 . S
S3679 N3681 1.610 . S
N3680 S3679 1.613 . S
N3680 C3683 1.350 . S
N3681 S3679 1.610 . S
N3681 C3682 1.351 . S
C3682 C3676 1.428 . S
C3682 N3681 1.351 . S
C3682 C3683 1.434 . S
C3683 C3674 1.429 . S
C3683 N3680 1.350 . S
C3683 C3682 1.434 . S
C3684 C3685 1.369 . S
C3684 C3686 1.419 . S
C3684 H3688 0.930 . S
C3685 C3684 1.369 . S
C3685 C3694 1.429 . S
C3686 C3684 1.419 . S
C3686 C3687 1.363 . S
C3686 H3689 0.929 . S
C3687 C3686 1.363 . S
C3687 C3693 1.428 . S
H3688 C3684 0.930 . S
H3689 C3686 0.929 . S
S3690 N3691 1.613 . S
S3690 N3692 1.610 . S
N3691 S3690 1.613 . S
N3691 C3694 1.350 . S
N3692 S3690 1.610 . S
N3692 C3693 1.351 . S
C3693 C3687 1.428 . S
C3693 N3692 1.351 . S
C3693 C3694 1.434 . S
C3694 C3685 1.429 . S
C3694 N3691 1.350 . S
C3694 C3693 1.434 . S
C3695 C3696 1.369 . S
C3695 C3697 1.419 . S
C3695 H3699 0.930 . S
C3696 C3695 1.369 . S
C3696 C3705 1.429 . S
C3697 C3695 1.419 . S
C3697 C3698 1.363 . S
C3697 H3700 0.929 . S
C3698 C3697 1.363 . S
C3698 C3704 1.428 . S
H3699 C3695 0.930 . S
H3700 C3697 0.929 . S
S3701 N3702 1.613 . S
S3701 N3703 1.610 . S
N3702 S3701 1.613 . S
N3702 C3705 1.350 . S
N3703 S3701 1.610 . S
N3703 C3704 1.351 . S
C3704 C3698 1.428 . S
C3704 N3703 1.351 . S
C3704 C3705 1.434 . S
C3705 C3696 1.429 . S
C3705 N3702 1.350 . S
C3705 C3704 1.434 . S
C3706 C3707 1.369 . S
C3706 C3708 1.419 . S
C3706 H3710 0.930 . S
C3707 C3706 1.369 . S
C3707 C3716 1.429 . S
C3708 C3706 1.419 . S
C3708 C3709 1.363 . S
C3708 H3711 0.929 . S
C3709 C3708 1.363 . S
C3709 C3715 1.428 . S
H3710 C3706 0.930 . S
H3711 C3708 0.929 . S
S3712 N3713 1.613 . S
S3712 N3714 1.610 . S
N3713 S3712 1.613 . S
N3713 C3716 1.350 . S
N3714 S3712 1.610 . S
N3714 C3715 1.351 . S
C3715 C3709 1.428 . S
C3715 N3714 1.351 . S
C3715 C3716 1.434 . S
C3716 C3707 1.429 . S
C3716 N3713 1.350 . S
C3716 C3715 1.434 . S
C3717 C3718 1.369 . S
C3717 C3719 1.419 . S
C3717 H3721 0.930 . S
C3718 C3717 1.369 . S
C3718 C3727 1.429 . S
C3719 C3717 1.419 . S
C3719 C3720 1.363 . S
C3719 H3722 0.929 . S
C3720 C3719 1.363 . S
C3720 C3726 1.428 . S
H3721 C3717 0.930 . S
H3722 C3719 0.929 . S
S3723 N3724 1.613 . S
S3723 N3725 1.610 . S
N3724 S3723 1.613 . S
N3724 C3727 1.350 . S
N3725 S3723 1.610 . S
N3725 C3726 1.351 . S
C3726 C3720 1.428 . S
C3726 N3725 1.351 . S
C3726 C3727 1.434 . S
C3727 C3718 1.429 . S
C3727 N3724 1.350 . S
C3727 C3726 1.434 . S
C3728 C3729 1.369 . S
C3728 C3730 1.419 . S
C3728 H3732 0.930 . S
C3729 C3728 1.369 . S
C3729 C3738 1.429 1_565 S
C3730 C3728 1.419 . S
C3730 C3731 1.363 1_565 S
C3730 H3733 0.929 . S
C3731 C3730 1.363 1_545 S
C3731 C3737 1.428 . S
H3732 C3728 0.930 . S
H3733 C3730 0.929 . S
S3734 N3735 1.613 . S
S3734 N3736 1.610 . S
N3735 S3734 1.613 . S
N3735 C3738 1.350 . S
N3736 S3734 1.610 . S
N3736 C3737 1.351 . S
C3737 C3731 1.428 . S
C3737 N3736 1.351 . S
C3737 C3738 1.434 . S
C3738 C3729 1.429 1_545 S
C3738 N3735 1.350 . S
C3738 C3737 1.434 . S
C3739 C3740 1.369 . S
C3739 C3741 1.419 . S
C3739 H3743 0.930 . S
C3740 C3739 1.369 . S
C3740 C3749 1.429 . S
C3741 C3739 1.419 . S
C3741 C3742 1.363 . S
C3741 H3744 0.929 . S
C3742 C3741 1.363 . S
C3742 C3748 1.428 . S
H3743 C3739 0.930 . S
H3744 C3741 0.929 . S
S3745 N3746 1.613 . S
S3745 N3747 1.610 . S
N3746 S3745 1.613 . S
N3746 C3749 1.350 . S
N3747 S3745 1.610 . S
N3747 C3748 1.351 . S
C3748 C3742 1.428 . S
C3748 N3747 1.351 . S
C3748 C3749 1.434 . S
C3749 C3740 1.429 . S
C3749 N3746 1.350 . S
C3749 C3748 1.434 . S
C3750 C3751 1.369 . S
C3750 C3752 1.419 . S
C3750 H3754 0.930 . S
C3751 C3750 1.369 . S
C3751 C3760 1.429 1_565 S
C3752 C3750 1.419 . S
C3752 C3753 1.363 1_565 S
C3752 H3755 0.929 . S
C3753 C3752 1.363 1_545 S
C3753 C3759 1.428 . S
H3754 C3750 0.930 . S
H3755 C3752 0.929 . S
S3756 N3757 1.613 . S
S3756 N3758 1.610 . S
N3757 S3756 1.613 . S
N3757 C3760 1.350 . S
N3758 S3756 1.610 . S
N3758 C3759 1.351 . S
C3759 C3753 1.428 . S
C3759 N3758 1.351 . S
C3759 C3760 1.434 . S
C3760 C3751 1.429 1_545 S
C3760 N3757 1.350 . S
C3760 C3759 1.434 . S
C3761 C3762 1.369 . S
C3761 C3763 1.419 1_554 S
C3761 H3765 0.930 . S
C3762 C3761 1.369 . S
C3762 C3771 1.429 . S
C3763 C3761 1.419 1_556 S
C3763 C3764 1.363 . S
C3763 H3766 0.929 . S
C3764 C3763 1.363 . S
C3764 C3770 1.428 . S
H3765 C3761 0.930 . S
H3766 C3763 0.929 . S
S3767 N3768 1.613 1_556 S
S3767 N3769 1.610 . S
N3768 S3767 1.613 1_554 S
N3768 C3771 1.350 . S
N3769 S3767 1.610 . S
N3769 C3770 1.351 . S
C3770 C3764 1.428 . S
C3770 N3769 1.351 . S
C3770 C3771 1.434 1_556 S
C3771 C3762 1.429 . S
C3771 N3768 1.350 . S
C3771 C3770 1.434 1_554 S
C3772 C3773 1.369 . S
C3772 C3774 1.419 . S
C3772 H3776 0.930 . S
C3773 C3772 1.369 . S
C3773 C3782 1.429 1_565 S
C3774 C3772 1.419 . S
C3774 C3775 1.363 1_565 S
C3774 H3777 0.929 . S
C3775 C3774 1.363 1_545 S
C3775 C3781 1.428 . S
H3776 C3772 0.930 . S
H3777 C3774 0.929 . S
S3778 N3779 1.613 . S
S3778 N3780 1.610 . S
N3779 S3778 1.613 . S
N3779 C3782 1.350 . S
N3780 S3778 1.610 . S
N3780 C3781 1.351 . S
C3781 C3775 1.428 . S
C3781 N3780 1.351 . S
C3781 C3782 1.434 . S
C3782 C3773 1.429 1_545 S
C3782 N3779 1.350 . S
C3782 C3781 1.434 . S
C3783 C3784 1.369 . S
C3783 C3785 1.419 . S
C3783 H3787 0.930 . S
C3784 C3783 1.369 . S
C3784 C3793 1.429 . S
C3785 C3783 1.419 . S
C3785 C3786 1.363 . S
C3785 H3788 0.929 . S
C3786 C3785 1.363 . S
C3786 C3792 1.428 . S
H3787 C3783 0.930 . S
H3788 C3785 0.929 . S
S3789 N3790 1.613 . S
S3789 N3791 1.610 . S
N3790 S3789 1.613 . S
N3790 C3793 1.350 . S
N3791 S3789 1.610 . S
N3791 C3792 1.351 . S
C3792 C3786 1.428 . S
C3792 N3791 1.351 . S
C3792 C3793 1.434 . S
C3793 C3784 1.429 . S
C3793 N3790 1.350 . S
C3793 C3792 1.434 . S
C3794 C3795 1.369 1_565 S
C3794 C3796 1.419 . S
C3794 H3798 0.930 . S
C3795 C3794 1.369 1_545 S
C3795 C3804 1.429 . S
C3796 C3794 1.419 . S
C3796 C3797 1.363 . S
C3796 H3799 0.929 . S
C3797 C3796 1.363 . S
C3797 C3803 1.428 1_565 S
H3798 C3794 0.930 . S
H3799 C3796 0.929 . S
S3800 N3801 1.613 . S
S3800 N3802 1.610 . S
N3801 S3800 1.613 . S
N3801 C3804 1.350 . S
N3802 S3800 1.610 . S
N3802 C3803 1.351 . S
C3803 C3797 1.428 1_545 S
C3803 N3802 1.351 . S
C3803 C3804 1.434 . S
C3804 C3795 1.429 . S
C3804 N3801 1.350 . S
C3804 C3803 1.434 . S
C3805 C3806 1.369 . S
C3805 C3807 1.419 1_554 S
C3805 H3809 0.930 . S
C3806 C3805 1.369 . S
C3806 C3815 1.429 . S
C3807 C3805 1.419 1_556 S
C3807 C3808 1.363 . S
C3807 H3810 0.929 . S
C3808 C3807 1.363 . S
C3808 C3814 1.428 . S
H3809 C3805 0.930 . S
H3810 C3807 0.929 . S
S3811 N3812 1.608 1_556 S
S3811 N3813 1.610 . S
N3812 S3811 1.608 1_554 S
N3812 C3815 1.350 . S
N3813 S3811 1.610 . S
N3813 C3814 1.351 . S
C3814 C3808 1.428 . S
C3814 N3813 1.351 . S
C3814 C3815 1.434 1_556 S
C3815 C3806 1.429 . S
C3815 N3812 1.350 . S
C3815 C3814 1.434 1_554 S
C3816 C3817 1.369 . S
C3816 C3818 1.419 . S
C3816 H3820 0.930 . S
C3817 C3816 1.369 . S
C3817 C3826 1.429 . S
C3818 C3816 1.419 . S
C3818 C3819 1.363 . S
C3818 H3821 0.929 . S
C3819 C3818 1.363 . S
C3819 C3825 1.428 . S
H3820 C3816 0.930 . S
H3821 C3818 0.929 . S
S3822 N3823 1.613 . S
S3822 N3824 1.610 . S
N3823 S3822 1.613 . S
N3823 C3826 1.350 . S
N3824 S3822 1.610 . S
N3824 C3825 1.351 . S
C3825 C3819 1.428 . S
C3825 N3824 1.351 . S
C3825 C3826 1.434 . S
C3826 C3817 1.429 . S
C3826 N3823 1.350 . S
C3826 C3825 1.434 . S
C3827 C3828 1.369 . S
C3827 C3829 1.419 1_554 S
C3827 H3831 0.930 . S
C3828 C3827 1.369 . S
C3828 C3837 1.429 . S
C3829 C3827 1.419 1_556 S
C3829 C3830 1.363 . S
C3829 H3832 0.929 . S
C3830 C3829 1.363 . S
C3830 C3836 1.428 . S
H3831 C3827 0.930 . S
H3832 C3829 0.929 . S
S3833 N3834 1.613 1_556 S
S3833 N3835 1.610 . S
N3834 S3833 1.613 1_554 S
N3834 C3837 1.350 . S
N3835 S3833 1.610 . S
N3835 C3836 1.351 . S
C3836 C3830 1.428 . S
C3836 N3835 1.351 . S
C3836 C3837 1.434 1_556 S
C3837 C3828 1.429 . S
C3837 N3834 1.350 . S
C3837 C3836 1.434 1_554 S
C3838 C3839 1.369 . S
C3838 C3840 1.419 . S
C3838 H3842 0.930 . S
C3839 C3838 1.369 . S
C3839 C3848 1.429 . S
C3840 C3838 1.419 . S
C3840 C3841 1.363 . S
C3840 H3843 0.929 . S
C3841 C3840 1.363 . S
C3841 C3847 1.428 . S
H3842 C3838 0.930 . S
H3843 C3840 0.929 . S
S3844 N3845 1.613 . S
S3844 N3846 1.610 . S
N3845 S3844 1.613 . S
N3845 C3848 1.350 . S
N3846 S3844 1.610 . S
N3846 C3847 1.351 . S
C3847 C3841 1.428 . S
C3847 N3846 1.351 . S
C3847 C3848 1.434 . S
C3848 C3839 1.429 . S
C3848 N3845 1.350 . S
C3848 C3847 1.434 . S
C3849 C3850 1.369 . S
C3849 C3851 1.419 . S
C3849 H3853 0.930 . S
C3850 C3849 1.369 . S
C3850 C3859 1.429 . S
C3851 C3849 1.419 . S
C3851 C3852 1.363 . S
C3851 H3854 0.929 . S
C3852 C3851 1.363 . S
C3852 C3858 1.428 . S
H3853 C3849 0.930 . S
H3854 C3851 0.929 . S
S3855 N3856 1.613 . S
S3855 N3857 1.610 . S
N3856 S3855 1.613 . S
N3856 C3859 1.350 . S
N3857 S3855 1.610 . S
N3857 C3858 1.351 . S
C3858 C3852 1.428 . S
C3858 N3857 1.351 . S
C3858 C3859 1.434 . S
C3859 C3850 1.429 . S
C3859 N3856 1.350 . S
C3859 C3858 1.434 . S
C3860 C3861 1.369 . S
C3860 C3862 1.419 . S
C3860 H3864 0.930 . S
C3861 C3860 1.369 . S
C3861 C3870 1.429 . S
C3862 C3860 1.419 . S
C3862 C3863 1.363 . S
C3862 H3865 0.929 . S
C3863 C3862 1.363 . S
C3863 C3869 1.428 . S
H3864 C3860 0.930 . S
H3865 C3862 0.929 . S
S3866 N3867 1.613 . S
S3866 N3868 1.610 . S
N3867 S3866 1.613 . S
N3867 C3870 1.350 . S
N3868 S3866 1.610 . S
N3868 C3869 1.351 . S
C3869 C3863 1.428 . S
C3869 N3868 1.351 . S
C3869 C3870 1.434 . S
C3870 C3861 1.429 . S
C3870 N3867 1.350 . S
C3870 C3869 1.434 . S
C3871 C3872 1.369 . S
C3871 C3873 1.419 1_554 S
C3871 H3875 0.930 . S
C3872 C3871 1.369 . S
C3872 C3881 1.429 . S
C3873 C3871 1.419 1_556 S
C3873 C3874 1.363 . S
C3873 H3876 0.929 . S
C3874 C3873 1.363 . S
C3874 C3880 1.428 . S
H3875 C3871 0.930 . S
H3876 C3873 0.929 . S
S3877 N3878 1.613 . S
S3877 N3879 1.630 . S
N3878 S3877 1.613 . S
N3878 C3881 1.350 . S
N3879 S3877 1.630 . S
N3879 C3880 1.350 1_554 S
C3880 C3874 1.428 . S
C3880 N3879 1.350 1_556 S
C3880 C3881 1.434 1_556 S
C3881 C3872 1.429 . S
C3881 N3878 1.350 . S
C3881 C3880 1.434 1_554 S
C3882 C3883 1.369 . S
C3882 C3884 1.419 . S
C3882 H3886 0.930 . S
C3883 C3882 1.369 . S
C3883 C3892 1.429 . S
C3884 C3882 1.419 . S
C3884 C3885 1.363 . S
C3884 H3887 0.929 . S
C3885 C3884 1.363 . S
C3885 C3891 1.428 . S
H3886 C3882 0.930 . S
H3887 C3884 0.929 . S
S3888 N3889 1.613 . S
S3888 N3890 1.610 . S
N3889 S3888 1.613 . S
N3889 C3892 1.350 . S
N3890 S3888 1.610 . S
N3890 C3891 1.351 . S
C3891 C3885 1.428 . S
C3891 N3890 1.351 . S
C3891 C3892 1.434 . S
C3892 C3883 1.429 . S
C3892 N3889 1.350 . S
C3892 C3891 1.434 . S
C3893 C3894 1.369 . S
C3893 C3895 1.419 . S
C3893 H3897 0.930 . S
C3894 C3893 1.369 . S
C3894 C3903 1.429 . S
C3895 C3893 1.419 . S
C3895 C3896 1.363 . S
C3895 H3898 0.929 . S
C3896 C3895 1.363 . S
C3896 C3902 1.428 . S
H3897 C3893 0.930 . S
H3898 C3895 0.929 . S
S3899 N3900 1.613 . S
S3899 N3901 1.610 . S
N3900 S3899 1.613 . S
N3900 C3903 1.350 . S
N3901 S3899 1.610 . S
N3901 C3902 1.351 . S
C3902 C3896 1.428 . S
C3902 N3901 1.351 . S
C3902 C3903 1.434 . S
C3903 C3894 1.429 . S
C3903 N3900 1.350 . S
C3903 C3902 1.434 . S
C3904 C3905 1.369 . S
C3904 C3906 1.419 1_554 S
C3904 H3908 0.930 . S
C3905 C3904 1.369 . S
C3905 C3914 1.429 1_565 S
C3906 C3904 1.419 1_556 S
C3906 C3907 1.363 1_565 S
C3906 H3909 0.929 . S
C3907 C3906 1.363 1_545 S
C3907 C3913 1.428 . S
H3908 C3904 0.930 . S
H3909 C3906 0.929 . S
S3910 N3911 1.613 1_556 S
S3910 N3912 1.610 . S
N3911 S3910 1.613 1_554 S
N3911 C3914 1.350 . S
N3912 S3910 1.610 . S
N3912 C3913 1.351 . S
C3913 C3907 1.428 . S
C3913 N3912 1.351 . S
C3913 C3914 1.434 1_556 S
C3914 C3905 1.429 1_545 S
C3914 N3911 1.350 . S
C3914 C3913 1.434 1_554 S
C3915 C3916 1.369 . S
C3915 C3917 1.419 . S
C3915 H3919 0.930 . S
C3916 C3915 1.369 . S
C3916 C3925 1.429 . S
C3917 C3915 1.419 . S
C3917 C3918 1.363 . S
C3917 H3920 0.929 . S
C3918 C3917 1.363 . S
C3918 C3924 1.428 . S
H3919 C3915 0.930 . S
H3920 C3917 0.929 . S
S3921 N3922 1.613 . S
S3921 N3923 1.610 . S
N3922 S3921 1.613 . S
N3922 C3925 1.350 . S
N3923 S3921 1.610 . S
N3923 C3924 1.351 . S
C3924 C3918 1.428 . S
C3924 N3923 1.351 . S
C3924 C3925 1.434 . S
C3925 C3916 1.429 . S
C3925 N3922 1.350 . S
C3925 C3924 1.434 . S
C3926 C3927 1.369 . S
C3926 C3928 1.419 1_455 S
C3926 H3930 0.930 . S
C3927 C3926 1.369 . S
C3927 C3936 1.429 1_545 S
C3928 C3926 1.419 1_655 S
C3928 C3929 1.363 1_545 S
C3928 H3931 0.929 . S
C3929 C3928 1.363 1_565 S
C3929 C3935 1.428 . S
H3930 C3926 0.930 . S
H3931 C3928 0.929 . S
S3932 N3933 1.613 . S
S3932 N3934 1.612 . S
N3933 S3932 1.613 . S
N3933 C3936 1.350 . S
N3934 S3932 1.612 . S
N3934 C3935 1.351 1_455 S
C3935 C3929 1.428 . S
C3935 N3934 1.351 1_655 S
C3935 C3936 1.434 1_655 S
C3936 C3927 1.429 1_565 S
C3936 N3933 1.350 . S
C3936 C3935 1.434 1_455 S
C3937 C3938 1.369 . S
C3937 C3939 1.419 . S
C3937 H3941 0.930 . S
C3938 C3937 1.369 . S
C3938 C3947 1.429 . S
C3939 C3937 1.419 . S
C3939 C3940 1.363 . S
C3939 H3942 0.929 . S
C3940 C3939 1.363 . S
C3940 C3946 1.428 . S
H3941 C3937 0.930 . S
H3942 C3939 0.929 . S
S3943 N3944 1.613 . S
S3943 N3945 1.610 . S
N3944 S3943 1.613 . S
N3944 C3947 1.350 . S
N3945 S3943 1.610 . S
N3945 C3946 1.351 . S
C3946 C3940 1.428 . S
C3946 N3945 1.351 . S
C3946 C3947 1.434 . S
C3947 C3938 1.429 . S
C3947 N3944 1.350 . S
C3947 C3946 1.434 . S
C3948 C3949 1.369 1_565 S
C3948 C3950 1.419 . S
C3948 H3952 0.930 . S
C3949 C3948 1.369 1_545 S
C3949 C3958 1.429 . S
C3950 C3948 1.419 . S
C3950 C3951 1.363 . S
C3950 H3953 0.929 . S
C3951 C3950 1.363 . S
C3951 C3957 1.428 1_565 S
H3952 C3948 0.930 . S
H3953 C3950 0.929 . S
S3954 N3955 1.613 . S
S3954 N3956 1.610 . S
N3955 S3954 1.613 . S
N3955 C3958 1.350 . S
N3956 S3954 1.610 . S
N3956 C3957 1.351 . S
C3957 C3951 1.428 1_545 S
C3957 N3956 1.351 . S
C3957 C3958 1.434 . S
C3958 C3949 1.429 . S
C3958 N3955 1.350 . S
C3958 C3957 1.434 . S
C3959 C3960 1.369 . S
C3959 C3961 1.419 . S
C3959 H3963 0.930 . S
C3960 C3959 1.369 . S
C3960 C3969 1.429 . S
C3961 C3959 1.419 . S
C3961 C3962 1.363 . S
C3961 H3964 0.929 . S
C3962 C3961 1.363 . S
C3962 C3968 1.428 . S
H3963 C3959 0.930 . S
H3964 C3961 0.929 . S
S3965 N3966 1.613 . S
S3965 N3967 1.610 . S
N3966 S3965 1.613 . S
N3966 C3969 1.350 . S
N3967 S3965 1.610 . S
N3967 C3968 1.351 . S
C3968 C3962 1.428 . S
C3968 N3967 1.351 . S
C3968 C3969 1.434 . S
C3969 C3960 1.429 . S
C3969 N3966 1.350 . S
C3969 C3968 1.434 . S
C3970 C3971 1.353 1_455 S
C3970 C3972 1.434 1_554 S
C3970 H3974 0.932 . S
C3971 C3970 1.353 1_655 S
C3971 C3980 1.429 1_545 S
C3972 C3970 1.434 1_556 S
C3972 C3973 1.363 1_545 S
C3972 H3975 0.929 . S
C3973 C3972 1.363 1_565 S
C3973 C3979 1.407 1_455 S
H3974 C3970 0.932 . S
H3975 C3972 0.929 . S
S3976 N3977 1.613 . S
S3976 N3978 1.610 1_554 S
N3977 S3976 1.613 . S
N3977 C3980 1.350 . S
N3978 S3976 1.610 1_556 S
N3978 C3979 1.355 . S
C3979 C3973 1.407 1_655 S
C3979 N3978 1.355 . S
C3979 C3980 1.454 1_556 S
C3980 C3971 1.429 1_565 S
C3980 N3977 1.350 . S
C3980 C3979 1.454 1_554 S
C3981 C3982 1.369 . S
C3981 C3983 1.419 . S
C3981 H3985 0.930 . S
C3982 C3981 1.369 . S
C3982 C3991 1.429 . S
C3983 C3981 1.419 . S
C3983 C3984 1.363 . S
C3983 H3986 0.929 . S
C3984 C3983 1.363 . S
C3984 C3990 1.428 . S
H3985 C3981 0.930 . S
H3986 C3983 0.929 . S
S3987 N3988 1.613 . S
S3987 N3989 1.610 . S
N3988 S3987 1.613 . S
N3988 C3991 1.350 . S
N3989 S3987 1.610 . S
N3989 C3990 1.351 . S
C3990 C3984 1.428 . S
C3990 N3989 1.351 . S
C3990 C3991 1.434 . S
C3991 C3982 1.429 . S
C3991 N3988 1.350 . S
C3991 C3990 1.434 . S
C3992 C3993 1.369 . S
C3992 C3994 1.419 . S
C3992 H3996 0.930 . S
C3993 C3992 1.369 . S
C3993 C4002 1.429 . S
C3994 C3992 1.419 . S
C3994 C3995 1.363 . S
C3994 H3997 0.929 . S
C3995 C3994 1.363 . S
C3995 C4001 1.428 . S
H3996 C3992 0.930 . S
H3997 C3994 0.929 . S
S3998 N3999 1.613 . S
S3998 N4000 1.610 . S
N3999 S3998 1.613 . S
N3999 C4002 1.350 . S
N4000 S3998 1.610 . S
N4000 C4001 1.351 . S
C4001 C3995 1.428 . S
C4001 N4000 1.351 . S
C4001 C4002 1.434 . S
C4002 C3993 1.429 . S
C4002 N3999 1.350 . S
C4002 C4001 1.434 . S
C4003 C4004 1.369 . S
C4003 C4005 1.419 . S
C4003 H4007 0.930 . S
C4004 C4003 1.369 . S
C4004 C4013 1.429 . S
C4005 C4003 1.419 . S
C4005 C4006 1.363 . S
C4005 H4008 0.929 . S
C4006 C4005 1.363 . S
C4006 C4012 1.428 . S
H4007 C4003 0.930 . S
H4008 C4005 0.929 . S
S4009 N4010 1.613 . S
S4009 N4011 1.610 . S
N4010 S4009 1.613 . S
N4010 C4013 1.350 . S
N4011 S4009 1.610 . S
N4011 C4012 1.351 . S
C4012 C4006 1.428 . S
C4012 N4011 1.351 . S
C4012 C4013 1.434 . S
C4013 C4004 1.429 . S
C4013 N4010 1.350 . S
C4013 C4012 1.434 . S
C4014 C4015 1.369 . S
C4014 C4016 1.419 . S
C4014 H4018 0.930 . S
C4015 C4014 1.369 . S
C4015 C4024 1.429 . S
C4016 C4014 1.419 . S
C4016 C4017 1.363 . S
C4016 H4019 0.929 . S
C4017 C4016 1.363 . S
C4017 C4023 1.428 . S
H4018 C4014 0.930 . S
H4019 C4016 0.929 . S
S4020 N4021 1.613 . S
S4020 N4022 1.610 . S
N4021 S4020 1.613 . S
N4021 C4024 1.350 . S
N4022 S4020 1.610 . S
N4022 C4023 1.351 . S
C4023 C4017 1.428 . S
C4023 N4022 1.351 . S
C4023 C4024 1.434 . S
C4024 C4015 1.429 . S
C4024 N4021 1.350 . S
C4024 C4023 1.434 . S
C4025 C4026 1.369 . S
C4025 C4027 1.419 . S
C4025 H4029 0.930 . S
C4026 C4025 1.369 . S
C4026 C4035 1.429 . S
C4027 C4025 1.419 . S
C4027 C4028 1.363 . S
C4027 H4030 0.929 . S
C4028 C4027 1.363 . S
C4028 C4034 1.428 . S
H4029 C4025 0.930 . S
H4030 C4027 0.929 . S
S4031 N4032 1.613 . S
S4031 N4033 1.610 . S
N4032 S4031 1.613 . S
N4032 C4035 1.350 . S
N4033 S4031 1.610 . S
N4033 C4034 1.351 . S
C4034 C4028 1.428 . S
C4034 N4033 1.351 . S
C4034 C4035 1.434 . S
C4035 C4026 1.429 . S
C4035 N4032 1.350 . S
C4035 C4034 1.434 . S
C4036 C4037 1.369 . S
C4036 C4038 1.419 . S
C4036 H4040 0.930 . S
C4037 C4036 1.369 . S
C4037 C4046 1.429 1_455 S
C4038 C4036 1.419 . S
C4038 C4039 1.363 1_455 S
C4038 H4041 0.929 . S
C4039 C4038 1.363 1_655 S
C4039 C4045 1.428 . S
H4040 C4036 0.930 . S
H4041 C4038 0.929 . S
S4042 N4043 1.613 . S
S4042 N4044 1.610 . S
N4043 S4042 1.613 . S
N4043 C4046 1.350 . S
N4044 S4042 1.610 . S
N4044 C4045 1.351 . S
C4045 C4039 1.428 . S
C4045 N4044 1.351 . S
C4045 C4046 1.434 . S
C4046 C4037 1.429 1_655 S
C4046 N4043 1.350 . S
C4046 C4045 1.434 . S
C4047 C4048 1.369 . S
C4047 C4049 1.419 1_556 S
C4047 H4051 0.930 . S
C4048 C4047 1.369 . S
C4048 C4057 1.429 . S
C4049 C4047 1.419 1_554 S
C4049 C4050 1.363 . S
C4049 H4052 0.929 . S
C4050 C4049 1.363 . S
C4050 C4056 1.467 . S
H4051 C4047 0.930 . S
H4052 C4049 0.929 . S
S4053 N4054 1.613 . S
S4053 N4055 1.663 . S
N4054 S4053 1.613 . S
N4054 C4057 1.350 . S
N4055 S4053 1.663 . S
N4055 C4056 1.346 1_556 S
C4056 C4050 1.467 . S
C4056 N4055 1.346 1_554 S
C4056 C4057 1.394 1_554 S
C4057 C4048 1.429 . S
C4057 N4054 1.350 . S
C4057 C4056 1.394 1_556 S
C4058 C4059 1.369 1_655 S
C4058 C4060 1.419 1_554 S
C4058 H4062 0.930 . S
C4059 C4058 1.369 1_455 S
C4059 C4068 1.429 . S
C4060 C4058 1.419 1_556 S
C4060 C4061 1.363 . S
C4060 H4063 0.929 . S
C4061 C4060 1.363 . S
C4061 C4067 1.428 1_655 S
H4062 C4058 0.930 . S
H4063 C4060 0.929 . S
S4064 N4065 1.613 1_556 S
S4064 N4066 1.610 . S
N4065 S4064 1.613 1_554 S
N4065 C4068 1.350 . S
N4066 S4064 1.610 . S
N4066 C4067 1.351 . S
C4067 C4061 1.428 1_455 S
C4067 N4066 1.351 . S
C4067 C4068 1.434 1_556 S
C4068 C4059 1.429 . S
C4068 N4065 1.350 . S
C4068 C4067 1.434 1_554 S
C4069 C4070 1.369 . S
C4069 C4071 1.419 . S
C4069 H4073 0.930 . S
C4070 C4069 1.369 . S
C4070 C4079 1.429 . S
C4071 C4069 1.419 . S
C4071 C4072 1.363 . S
C4071 H4074 0.929 . S
C4072 C4071 1.363 . S
C4072 C4078 1.428 . S
H4073 C4069 0.930 . S
H4074 C4071 0.929 . S
S4075 N4076 1.613 . S
S4075 N4077 1.610 . S
N4076 S4075 1.613 . S
N4076 C4079 1.350 . S
N4077 S4075 1.610 . S
N4077 C4078 1.351 . S
C4078 C4072 1.428 . S
C4078 N4077 1.351 . S
C4078 C4079 1.434 . S
C4079 C4070 1.429 . S
C4079 N4076 1.350 . S
C4079 C4078 1.434 . S
C2849 C641 0.783 . S
C2851 C18 0.790 . S
C2860 C374 0.797 . S
C2862 C107 0.791 . S
C2871 C196 0.793 . S
C2873 C463 0.795 . S
C2882 C285 0.797 . S
C2884 C552 0.793 . S
C2893 C1353 0.778 . S
C2895 C730 0.783 . S
C2904 C1086 0.780 . S
C2906 C819 0.781 . S
C2915 C1175 0.778 . S
C2917 C908 0.784 . S
C2926 C997 0.779 . S
C2928 C1264 0.781 . S
C2937 C2065 0.797 . S
C2939 C1442 0.794 . S
C2948 C1531 0.785 . S
C2950 C1798 0.791 . S
C2959 C1887 0.784 . S
C2961 C1620 0.781 . S
C2970 C1976 0.781 . S
C2972 C1709 0.780 . S
C2981 C2154 0.785 . S
C2983 C2777 0.792 . S
C2992 C2510 0.794 . S
C2994 C2243 0.786 . S
C3003 C2599 0.796 . S
C3005 C2332 0.788 . S
C3014 C2421 0.796 . S
C3016 C2688 0.794 . S
C3025 C61 2.003 . S
C3027 C337 1.827 . S
C3036 C70 1.821 . S
C3038 C150 2.008 . S
C3047 C159 1.822 . S
C3049 C239 2.008 . S
C3058 C248 1.829 . S
C3060 C328 2.004 . S
C3069 C515 1.824 . S
C3071 C417 2.006 . S
C3080 C506 2.005 . S
C3082 C604 1.825 . S
C3091 C693 1.824 . S
C3093 C595 2.006 . S
C3102 C684 2.003 . S
C3104 C426 1.827 . S
C3113 C773 2.007 . S
C3115 C1049 1.823 . S
C3124 C862 2.006 . S
C3126 C782 1.823 . S
C3135 C951 2.003 . S
C3137 C871 1.828 . S
C3146 C1040 2.003 . S
C3148 C960 1.827 . S
C3157 C1129 2.013 . S
C3159 C1227 1.817 . S
C3168 C1218 2.006 . S
C3170 C1316 1.824 . S
C3179 C1307 2.009 . S
C3181 C1405 1.821 . S
C3190 C1396 2.008 . S
C3192 C1138 1.823 . S
C3201 C1761 1.823 . S
C3203 C1485 2.007 . S
C3212 C1494 1.821 . S
C3214 C1574 2.009 . S
C3223 C1583 1.816 . S
C3225 C1663 2.012 . S
C3234 C1672 1.818 . S
C3236 C1752 2.010 . S
C3245 C1841 2.010 . S
C3247 C1939 1.820 . S
C3256 C2028 1.829 . S
C3258 C1930 2.004 . S
C3267 C2019 2.008 . S
C3269 C2117 1.822 . S
C3278 C2108 2.006 . S
C3280 C1850 1.823 . S
C3289 C2197 2.003 . S
C3291 C2473 1.828 . S
C3300 C2286 2.003 . S
C3302 C2206 1.828 . S
C3311 C2375 2.003 . S
C3313 C2295 1.828 . S
C3322 C2464 2.013 . S
C3324 C2384 1.817 . S
C3333 C2553 2.010 . S
C3335 C2651 1.820 . S
C3344 C2740 1.827 . S
C3346 C2642 2.005 . S
C3355 C2731 2.003 . S
C3357 C2829 1.827 . S
C3366 C2562 1.819 . S
C3368 C2820 2.009 . S
C3377 C73 1.638 . S
C3379 C2251 1.470 . S
C3388 C916 1.458 . S
C3390 C162 1.633 . S
C3399 C2429 1.457 . S
C3401 C251 1.633 . S
C3410 C738 1.458 . S
C3412 C340 1.633 . S
C3421 C2785 1.468 . S
C3423 C429 1.637 . S
C3432 C518 1.638 . S
C3434 C1094 1.470 . S
C3443 C607 1.633 . S
C3445 C2607 1.459 . S
C3454 C1272 1.472 . S
C3456 C696 1.638 . S
C3465 C1539 1.465 . S
C3467 C785 1.636 . S
C3476 C204 1.469 . S
C3478 C874 1.637 . S
C3487 C963 1.632 . S
C3489 C1717 1.459 . S
C3498 C26 1.467 . S
C3500 C1052 1.636 . S
C3509 C2073 1.459 . S
C3511 C1141 1.634 . S
C3520 C1230 1.638 . S
C3522 C382 1.470 . S
C3531 C1895 1.464 . S
C3533 C1319 1.635 . S
C3542 C560 1.472 . S
C3544 C1408 1.638 . S
C3553 C1497 1.633 . S
C3555 C827 1.461 . S
C3564 C1586 1.634 . S
C3566 C2340 1.461 . S
C3575 C1005 1.471 . S
C3577 C1675 1.638 . S
C3586 C2162 1.457 . S
C3588 C1764 1.633 . S
C3597 C1361 1.469 . S
C3599 C1853 1.637 . S
C3608 C2518 1.457 . S
C3610 C1942 1.633 . S
C3619 C1183 1.458 . S
C3621 C2031 1.633 . S
C3630 C2696 1.468 . S
C3632 C2120 1.637 . S
C3641 C2209 1.638 . S
C3643 C115 1.469 . S
C3652 C2298 1.637 . S
C3654 C1628 1.468 . S
C3663 C293 1.457 . S
C3665 C2387 1.633 . S
C3674 C2476 1.638 . S
C3676 C1450 1.469 . S
C3685 C649 1.457 . S
C3687 C2565 1.633 . S
C3696 C1806 1.471 . S
C3698 C2654 1.637 . S
C3707 C2743 1.633 . S
C3709 C471 1.460 . S
C3718 C2832 1.633 . S
C3720 C1984 1.459 . S
C3729 C357 2.398 . S
C3731 C1 2.396 . S
C3740 C90 2.396 . S
C3742 C446 2.397 . S
C3751 C179 2.398 . S
C3753 C535 2.396 . S
C3762 C624 2.399 . S
C3764 C268 2.398 . S
C3773 C713 2.397 . S
C3775 C1069 2.394 . S
C3784 C1158 2.394 . S
C3786 C802 2.397 . S
C3795 C891 2.395 . S
C3797 C1247 2.397 . S
C3806 C980 2.393 . S
C3808 C1336 2.396 . S
C3817 C1781 2.399 . S
C3819 C1425 2.398 . S
C3828 C1870 2.390 . S
C3830 C1514 2.392 . S
C3839 C1603 2.397 . S
C3841 C1959 2.395 . S
C3850 C1692 2.391 . S
C3852 C2048 2.392 . S
C3861 C2137 2.398 . S
C3863 C2493 2.395 . S
C3872 C2226 2.398 . S
C3874 C2582 2.395 . S
C3883 C2315 2.399 . S
C3885 C2671 2.396 . S
C3894 C2760 2.399 . S
C3896 C2404 2.398 . S
C3905 C63 1.624 . S
C3907 C775 1.633 . S
C3916 C2288 1.630 . S
C3918 C152 1.628 . S
C3927 C241 1.624 . S
C3929 C953 1.633 . S
C3938 C2466 1.625 . S
C3940 C330 1.632 . S
C3949 C419 1.634 . S
C3951 C1131 1.625 . S
C3960 C508 1.623 . S
C3962 C2644 1.634 . S
C3971 C1309 1.627 . S
C3973 C597 1.631 . S
C3982 C686 1.623 . S
C3984 C2822 1.634 . S
C3993 C1576 1.635 . S
C3995 C864 1.625 . S
C4004 C1754 1.625 . S
C4006 C1042 1.633 . S
C4015 C1220 1.634 . S
C4017 C1932 1.625 . S
C4026 C1398 1.623 . S
C4028 C2110 1.633 . S
C4037 C2199 1.632 . S
C4039 C1487 1.626 . S
C4048 C2377 1.629 . S
C4050 C1665 1.629 . S
C4059 C2555 1.623 . S
C4061 C1843 1.633 . S
C4070 C2021 1.624 . S
C4072 C2733 1.633 . S
