# Generated by pormake.
# Topology wiu, (6)-cn, num edge types: 1
# Building blocks:
#     Node 0, Type 0, BuildingBlock: BETDAH_clean_sbu_0, # of connection points: 6
#     Node 1, Type 0, BuildingBlock: BETDAH_clean_sbu_0, # of connection points: 6
#     Node 2, Type 0, BuildingBlock: BETDAH_clean_sbu_0, # of connection points: 6
#     Node 3, Type 0, BuildingBlock: BETDAH_clean_sbu_0, # of connection points: 6
#     Node 4, Type 0, BuildingBlock: BETDAH_clean_sbu_0, # of connection points: 6
#     Node 5, Type 0, BuildingBlock: BETDAH_clean_sbu_0, # of connection points: 6
#     Node 6, Type 0, BuildingBlock: BETDAH_clean_sbu_0, # of connection points: 6
#     Node 7, Type 0, BuildingBlock: BETDAH_clean_sbu_0, # of connection points: 6
#     Node 8, Type 0, BuildingBlock: BETDAH_clean_sbu_0, # of connection points: 6
#     Node 9, Type 0, BuildingBlock: BETDAH_clean_sbu_0, # of connection points: 6
#     Node 10, Type 0, BuildingBlock: BETDAH_clean_sbu_0, # of connection points: 6
#     Node 11, Type 0, BuildingBlock: BETDAH_clean_sbu_0, # of connection points: 6
#     Node 12, Type 0, BuildingBlock: BETDAH_clean_sbu_0, # of connection points: 6
#     Node 13, Type 0, BuildingBlock: BETDAH_clean_sbu_0, # of connection points: 6
#     Node 14, Type 0, BuildingBlock: BETDAH_clean_sbu_0, # of connection points: 6
#     Node 15, Type 0, BuildingBlock: BETDAH_clean_sbu_0, # of connection points: 6
#     Edge 16, Type (0, 0), BuildingBlock: OJICUG_clean_linker_0, # of connection points: 2
#     Edge 17, Type (0, 0), BuildingBlock: OJICUG_clean_linker_0, # of connection points: 2
#     Edge 18, Type (0, 0), BuildingBlock: OJICUG_clean_linker_0, # of connection points: 2
#     Edge 19, Type (0, 0), BuildingBlock: OJICUG_clean_linker_0, # of connection points: 2
#     Edge 20, Type (0, 0), BuildingBlock: OJICUG_clean_linker_0, # of connection points: 2
#     Edge 21, Type (0, 0), BuildingBlock: OJICUG_clean_linker_0, # of connection points: 2
#     Edge 22, Type (0, 0), BuildingBlock: OJICUG_clean_linker_0, # of connection points: 2
#     Edge 23, Type (0, 0), BuildingBlock: OJICUG_clean_linker_0, # of connection points: 2
#     Edge 24, Type (0, 0), BuildingBlock: OJICUG_clean_linker_0, # of connection points: 2
#     Edge 25, Type (0, 0), BuildingBlock: OJICUG_clean_linker_0, # of connection points: 2
#     Edge 26, Type (0, 0), BuildingBlock: OJICUG_clean_linker_0, # of connection points: 2
#     Edge 27, Type (0, 0), BuildingBlock: OJICUG_clean_linker_0, # of connection points: 2
#     Edge 28, Type (0, 0), BuildingBlock: OJICUG_clean_linker_0, # of connection points: 2
#     Edge 29, Type (0, 0), BuildingBlock: OJICUG_clean_linker_0, # of connection points: 2
#     Edge 30, Type (0, 0), BuildingBlock: OJICUG_clean_linker_0, # of connection points: 2
#     Edge 31, Type (0, 0), BuildingBlock: OJICUG_clean_linker_0, # of connection points: 2
#     Edge 32, Type (0, 0), BuildingBlock: OJICUG_clean_linker_0, # of connection points: 2
#     Edge 33, Type (0, 0), BuildingBlock: OJICUG_clean_linker_0, # of connection points: 2
#     Edge 34, Type (0, 0), BuildingBlock: OJICUG_clean_linker_0, # of connection points: 2
#     Edge 35, Type (0, 0), BuildingBlock: OJICUG_clean_linker_0, # of connection points: 2
#     Edge 36, Type (0, 0), BuildingBlock: OJICUG_clean_linker_0, # of connection points: 2
#     Edge 37, Type (0, 0), BuildingBlock: OJICUG_clean_linker_0, # of connection points: 2
#     Edge 38, Type (0, 0), BuildingBlock: OJICUG_clean_linker_0, # of connection points: 2
#     Edge 39, Type (0, 0), BuildingBlock: OJICUG_clean_linker_0, # of connection points: 2
#     Edge 40, Type (0, 0), BuildingBlock: OJICUG_clean_linker_0, # of connection points: 2
#     Edge 41, Type (0, 0), BuildingBlock: OJICUG_clean_linker_0, # of connection points: 2
#     Edge 42, Type (0, 0), BuildingBlock: OJICUG_clean_linker_0, # of connection points: 2
#     Edge 43, Type (0, 0), BuildingBlock: OJICUG_clean_linker_0, # of connection points: 2
#     Edge 44, Type (0, 0), BuildingBlock: OJICUG_clean_linker_0, # of connection points: 2
#     Edge 45, Type (0, 0), BuildingBlock: OJICUG_clean_linker_0, # of connection points: 2
#     Edge 46, Type (0, 0), BuildingBlock: OJICUG_clean_linker_0, # of connection points: 2
#     Edge 47, Type (0, 0), BuildingBlock: OJICUG_clean_linker_0, # of connection points: 2
#     Edge 48, Type (0, 0), BuildingBlock: OJICUG_clean_linker_0, # of connection points: 2
#     Edge 49, Type (0, 0), BuildingBlock: OJICUG_clean_linker_0, # of connection points: 2
#     Edge 50, Type (0, 0), BuildingBlock: OJICUG_clean_linker_0, # of connection points: 2
#     Edge 51, Type (0, 0), BuildingBlock: OJICUG_clean_linker_0, # of connection points: 2
#     Edge 52, Type (0, 0), BuildingBlock: OJICUG_clean_linker_0, # of connection points: 2
#     Edge 53, Type (0, 0), BuildingBlock: OJICUG_clean_linker_0, # of connection points: 2
#     Edge 54, Type (0, 0), BuildingBlock: OJICUG_clean_linker_0, # of connection points: 2
#     Edge 55, Type (0, 0), BuildingBlock: OJICUG_clean_linker_0, # of connection points: 2
#     Edge 56, Type (0, 0), BuildingBlock: OJICUG_clean_linker_0, # of connection points: 2
#     Edge 57, Type (0, 0), BuildingBlock: OJICUG_clean_linker_0, # of connection points: 2
#     Edge 58, Type (0, 0), BuildingBlock: OJICUG_clean_linker_0, # of connection points: 2
#     Edge 59, Type (0, 0), BuildingBlock: OJICUG_clean_linker_0, # of connection points: 2
#     Edge 60, Type (0, 0), BuildingBlock: OJICUG_clean_linker_0, # of connection points: 2
#     Edge 61, Type (0, 0), BuildingBlock: OJICUG_clean_linker_0, # of connection points: 2
#     Edge 62, Type (0, 0), BuildingBlock: OJICUG_clean_linker_0, # of connection points: 2
#     Edge 63, Type (0, 0), BuildingBlock: OJICUG_clean_linker_0, # of connection points: 2
# Relax obj value: 0.731
# Max RMSD: 0.343
# Mean RMSD: 0.343
data_MOF--net-wiu--node1-BETDAH_clean_sbu_0--edge1-OJICUG_clean_linker_0
_symmetry_space_group_name_H-M    P1
_symmetry_Int_Tables_number       1
_symmetry_cell_setting            triclinic
loop_
_symmetry_equiv_pos_as_xyz
'x, y, z'
_cell_length_a     29.093876
_cell_length_b     29.026887
_cell_length_c     38.54726
_cell_angle_alpha  89.665001
_cell_angle_beta   89.853274
_cell_angle_gamma 89.828879
loop_
_atom_site_label
_atom_site_type_symbol
_atom_site_fract_x
_atom_site_fract_y
_atom_site_fract_z
_atom_type_partial_charge
Ho0 Ho 0.38006 0.20475 0.37319 0.0
Ho1 Ho 0.42073 0.12761 0.34461 0.0
C2 C 0.4225 0.12183 0.42518 0.0
C3 C 0.33939 0.27376 0.40334 0.0
C4 C 0.32913 0.32145 0.39145 0.0
C5 C 0.2867 0.34175 0.39967 0.0
C6 C 0.27481 0.38514 0.38619 0.0
C7 C 0.30513 0.40936 0.36412 0.0
C8 C 0.34815 0.38943 0.35665 0.0
C9 C 0.35991 0.3459 0.37002 0.0
C10 C 0.46468 0.22933 0.34586 0.0
C11 C 0.34618 0.17956 0.2938 0.0
C12 C 0.46068 0.07059 0.30418 0.0
C13 C 0.4373 1.04041 0.2791 0.0
C14 C 0.44552 1.04623 0.2436 0.0
C15 C 0.42147 1.02012 0.21951 0.0
C16 C 0.38862 0.98732 0.23034 0.0
C17 C 0.37979 0.98197 0.26589 0.0
C18 C 0.40357 1.00856 0.29005 0.0
C19 C 0.33411 0.10673 0.36769 0.0
O20 O 0.39173 0.15614 0.42173 0.0
O21 O 0.44594 0.10927 0.39764 0.0
O22 O 0.31748 0.24123 0.38726 0.0
O23 O 0.38245 0.26304 0.40823 0.0
O24 O 0.4258 0.24933 0.33977 0.0
O25 O 0.456 0.19261 0.36335 0.0
O26 O 0.37793 0.14704 0.29677 0.0
O27 O 0.33983 0.20753 0.32081 0.0
O28 O 0.45298 0.06142 0.33686 0.0
O29 O 0.45905 0.11482 0.29727 0.0
O30 O 0.36878 0.07879 0.36881 0.0
O31 O 0.34737 0.14325 0.35341 0.0
H32 H 0.26235 0.32366 0.41609 0.0
H33 H 0.24172 0.39972 0.39303 0.0
H34 H 0.37223 0.40686 0.33964 0.0
H35 H 0.39275 0.33103 0.36305 0.0
H36 H 0.47081 0.07084 0.23447 0.0
H37 H 0.43039 1.02415 1.19236 0.0
H38 H 0.35537 0.95648 0.27498 0.0
H39 H 0.39564 1.00385 0.3173 0.0
Ho40 Ho 0.63217 0.62043 0.62474 0.0
Ho41 Ho 0.70741 0.66314 0.5939 0.0
C42 C 0.71533 0.66537 0.67421 0.0
C43 C 0.56558 0.57893 0.65715 0.0
C44 C 0.51819 0.56837 0.6457 0.0
C45 C 0.49694 0.5273 0.65626 0.0
C46 C 0.4544 0.51447 0.6423 0.0
C47 C 0.4323 0.54237 0.61727 0.0
C48 C 0.45311 0.5842 0.60761 0.0
C49 C 0.49552 0.59699 0.62162 0.0
C50 C 0.60588 0.70519 0.59781 0.0
C51 C 0.65486 0.58577 0.54544 0.0
C52 C 0.75507 0.70432 0.54779 0.0
C53 C 0.77245 0.68144 0.51625 0.0
C54 C 0.75613 0.69581 0.48383 0.0
C55 C 0.76589 0.67014 0.45428 0.0
C56 C 0.79255 0.62961 0.45636 0.0
C57 C 0.80939 0.61535 0.48872 0.0
C58 C 0.79896 0.64071 0.5185 0.0
C59 C 0.73125 0.57811 0.61796 0.0
O60 O 0.68329 0.6324 0.67117 0.0
O61 O 0.72514 0.69048 0.64659 0.0
O62 O 0.59803 0.55728 0.64052 0.0
O63 O 0.57561 0.62227 0.66162 0.0
O64 O 0.58603 0.66619 0.5923 0.0
O65 O 0.64272 0.69652 0.61477 0.0
O66 O 0.6874 0.61743 0.54769 0.0
O67 O 0.62737 0.5799 0.57285 0.0
O68 O 0.77294 0.69059 0.57723 0.0
O69 O 0.71023 0.70852 0.54926 0.0
O70 O 0.75851 0.6134 0.6179 0.0
O71 O 0.69414 0.58969 0.6038 0.0
H72 H 0.51372 0.50462 0.67475 0.0
H73 H 0.439 0.48246 0.65093 0.0
H74 H 0.4374 0.60643 0.58831 0.0
H75 H 0.51106 0.62878 0.6129 0.0
H76 H 0.73505 0.7265 0.48144 0.0
H77 H 0.75375 0.68303 0.4295 0.0
H78 H 0.8308 0.58488 0.49088 0.0
H79 H 0.81116 0.62797 0.54329 0.0
Ho80 Ho 0.21591 0.87691 0.87657 0.0
Ho81 Ho 0.17525 0.95374 0.8464 0.0
C82 C 0.17315 0.96008 0.9272 0.0
C83 C 0.25808 0.80909 0.90706 0.0
C84 C 0.27068 0.76249 0.89438 0.0
C85 C 0.31723 0.74999 0.89176 0.0
C86 C 0.33019 0.70828 0.87644 0.0
C87 C 0.29685 0.67785 0.86358 0.0
C88 C 0.25016 0.68972 0.86712 0.0
C89 C 0.23721 0.73165 0.88217 0.0
C90 C 0.13162 0.85176 0.84877 0.0
C91 C 0.25207 0.90266 0.79715 0.0
C92 C 0.13476 1.01379 0.80847 0.0
C93 C 0.15746 0.05255 0.79032 0.0
C94 C 0.16726 0.04957 0.75484 0.0
C95 C 0.18947 0.08565 0.73778 0.0
C96 C 0.20204 0.12597 0.75574 0.0
C97 C 0.19479 0.12767 0.79169 0.0
C98 C 0.17267 0.09143 0.8088 0.0
C99 C 0.26045 0.97529 0.87123 0.0
O100 O 0.20328 0.92517 0.92469 0.0
O101 O 0.15036 0.97238 0.89931 0.0
O102 O 0.27932 0.84319 0.89196 0.0
O103 O 0.21452 0.81807 0.91166 0.0
O104 O 0.17044 0.83074 0.84451 0.0
O105 O 0.14016 0.88877 0.86548 0.0
O106 O 0.2201 0.93517 0.79924 0.0
O107 O 0.25719 0.87444 0.82442 0.0
O108 O 0.13509 1.01597 0.8422 0.0
O109 O 0.14399 0.97231 0.79714 0.0
O110 O 0.22584 1.00327 0.87076 0.0
O111 O 0.2482 0.93885 0.85678 0.0
H112 H 0.34374 0.77303 0.90094 0.0
H113 H 0.36641 0.6998 0.87471 0.0
H114 H 0.22362 0.66711 0.85745 0.0
H115 H 0.20103 0.74025 0.88353 0.0
H116 H 0.15677 1.01979 0.74004 0.0
H117 H 0.19348 0.08311 0.70993 0.0
H118 H 0.20363 0.15827 0.80616 0.0
H119 H 0.16662 0.09451 0.83643 0.0
Ho120 Ho 0.96238 0.46104 1.12461 0.0
Ho121 Ho 0.88442 0.41925 1.10064 0.0
C122 C 0.88778 0.41688 1.18053 0.0
C123 C 1.03332 0.50214 1.1507 0.0
C124 C 0.07835 0.51441 1.13484 0.0
C125 C 0.08067 0.53993 1.1037 0.0
C126 C 0.12315 0.55111 1.08879 0.0
C127 C 0.16443 0.53668 1.10436 0.0
C128 C 0.16214 0.51026 1.13507 0.0
C129 C 0.11955 0.49943 1.15021 0.0
C130 C 0.98528 0.3745 1.09967 0.0
C131 C 0.93204 0.49347 1.04617 0.0
C132 C 0.81962 0.37816 1.06864 0.0
C133 C 0.78097 0.4001 1.04991 0.0
C134 C 0.78634 0.41546 1.01562 0.0
C135 C 0.7498 0.43638 0.99827 0.0
C136 C 0.70676 0.44226 1.01471 0.0
C137 C 0.70266 0.4302 1.04991 0.0
C138 C 0.73919 0.409 1.06722 0.0
C139 C 0.86378 0.50564 1.12458 0.0
O140 O 0.91689 0.45163 1.17454 0.0
O141 O 0.87791 0.39011 1.15437 0.0
O142 O 0.99732 0.52391 1.1389 0.0
O143 O 1.02525 0.45838 1.15514 0.0
O144 O 1.0042 0.41307 1.09071 0.0
O145 O 0.95014 0.38454 1.11811 0.0
O146 O 0.9004 0.46101 1.05067 0.0
O147 O 0.96173 0.50016 1.07188 0.0
O148 O 0.8192 0.38466 1.10204 0.0
O149 O 0.8609 0.38239 1.0552 0.0
O150 O 0.83783 0.46993 1.12796 0.0
O151 O 0.89855 0.49334 1.1077 0.0
H152 H 0.04965 0.55145 1.09078 0.0
H153 H 0.12371 0.57111 1.06498 0.0
H154 H 0.19333 0.49901 1.14789 0.0
H155 H 0.11881 0.47947 1.17404 0.0
H156 H 0.81834 0.41017 1.00176 0.0
H157 H 0.75454 0.44446 0.97104 0.0
H158 H 0.67022 0.43443 1.0634 0.0
H159 H 0.73428 0.39865 1.09402 0.0
Ho160 Ho 0.66569 0.95072 1.0891 0.0
Ho161 Ho 0.71832 0.88355 1.05328 0.0
C162 C 0.74488 0.90638 1.13646 0.0
C163 C 0.59569 0.98097 1.12271 0.0
C164 C 0.55095 0.95838 1.12876 0.0
C165 C 0.53999 0.94267 1.16211 0.0
C166 C 0.49799 0.92149 1.16858 0.0
C167 C 0.46533 0.916 1.14188 0.0
C168 C 0.47742 0.92938 1.108 0.0
C169 C 0.51987 0.95031 1.10146 0.0
C170 C 0.74658 0.98845 1.06791 0.0
C171 C 0.67632 0.96626 1.0064 0.0
C172 C 0.77211 0.81669 1.03315 0.0
C173 C 0.78768 0.77332 1.04944 0.0
C174 C 0.80819 0.73925 1.02893 0.0
C175 C 0.81848 0.69593 1.04307 0.0
C176 C 0.80852 0.68592 1.07808 0.0
C177 C 0.78882 0.72048 1.09878 0.0
C178 C 0.77818 0.7637 1.08451 0.0
C179 C 0.62712 0.85714 1.06081 0.0
O180 O 0.71483 0.94065 1.13421 0.0
O181 O 0.74802 0.87664 1.10994 0.0
O182 O 0.63098 0.96191 1.13807 0.0
O183 O 0.60476 0.99335 1.09083 0.0
O184 O 0.70947 1.01228 1.07395 0.0
O185 O 0.73916 0.94764 1.07722 0.0
O186 O 0.71122 0.93648 1.00861 0.0
O187 O 0.64796 0.9701 1.03322 0.0
O188 O 0.78706 0.85504 1.04621 0.0
O189 O 0.72841 0.81872 1.02687 0.0
O190 O 0.65049 0.85724 1.03233 0.0
O191 O 0.65281 0.87493 1.08388 0.0
H192 H 0.56349 0.94785 1.1835 0.0
H193 H 0.49002 0.91276 1.19526 0.0
H194 H 0.45304 0.92595 1.08698 0.0
H195 H 0.52776 0.9611 1.07518 0.0
H196 H 0.81533 0.74579 1.00174 0.0
H197 H 0.83414 0.67016 1.02656 0.0
H198 H 0.78038 0.71363 1.12571 0.0
H199 H 0.76147 0.78911 1.10065 0.0
Ho200 Ho 0.38675 0.419 0.83009 0.0
Ho201 Ho 0.46158 0.46276 0.80268 0.0
C202 C 0.43529 0.49504 0.88165 0.0
C203 C 0.32709 0.37595 0.86655 0.0
C204 C 0.29012 0.39752 0.88734 0.0
C205 C 0.2979 0.41025 0.92184 0.0
C206 C 0.26345 0.43209 0.94091 0.0
C207 C 0.22013 0.44156 0.92602 0.0
C208 C 0.21343 0.4312 0.89087 0.0
C209 C 0.24785 0.40925 0.87181 0.0
C210 C 0.36109 0.50502 0.80781 0.0
C211 C 0.38398 0.41823 0.74992 0.0
C212 C 0.52965 0.50485 0.77242 0.0
C213 C 0.57682 0.51499 0.78446 0.0
C214 C 0.5989 0.5553 0.77328 0.0
C215 C 0.64129 0.56801 0.78745 0.0
C216 C 0.66247 0.54079 0.81333 0.0
C217 C 0.64092 0.49956 0.82358 0.0
C218 C 0.59854 0.48689 0.80938 0.0
C219 C 0.48809 0.37725 0.82846 0.0
O220 O 0.40435 0.46174 0.87872 0.0
O221 O 0.46311 0.50251 0.85473 0.0
O222 O 0.32312 0.38159 0.83313 0.0
O223 O 0.36946 0.3816 0.87726 0.0
O224 O 0.33614 0.46843 0.80557 0.0
O225 O 0.39818 0.49369 0.82201 0.0
O226 O 0.41305 0.45323 0.75469 0.0
O227 O 0.37584 0.39117 0.77658 0.0
O228 O 0.49698 0.52605 0.7891 0.0
O229 O 0.51959 0.46174 0.76707 0.0
O230 O 0.50615 0.41646 0.83628 0.0
O231 O 0.45219 0.38606 0.81062 0.0
H232 H 0.3303 0.40253 0.93441 0.0
H233 H 0.26999 0.43846 0.9681 0.0
H234 H 0.18056 0.43768 0.87864 0.0
H235 H 0.24093 0.40084 0.84499 0.0
H236 H 0.58287 0.57751 0.7541 0.0
H237 H 0.65732 0.59944 0.77827 0.0
H238 H 0.65604 0.47774 0.84338 0.0
H239 H 0.58232 0.45562 0.81853 0.0
Ho240 Ho 0.93254 0.12912 0.59036 0.0
Ho241 Ho 0.87945 0.19729 0.55434 0.0
C242 C 0.85599 0.17699 0.63861 0.0
C243 C 1.00277 0.09631 0.62248 0.0
C244 C 1.04128 0.12089 0.6381 0.0
C245 C 1.03554 0.16594 0.65044 0.0
C246 C 0.07355 0.19148 0.6611 0.0
C247 C 0.11798 0.17214 0.66021 0.0
C248 C 0.12317 0.127 0.64712 0.0
C249 C 0.08529 0.10188 0.63607 0.0
C250 C 0.85022 0.09291 0.57133 0.0
C251 C 0.91799 0.11182 0.50793 0.0
C252 C 0.82503 0.26409 0.53508 0.0
C253 C 0.8113 0.30868 0.55078 0.0
C254 C 0.78256 0.31086 0.58016 0.0
C255 C 0.7712 0.35346 0.59492 0.0
C256 C 0.7886 0.39474 0.58082 0.0
C257 C 0.81724 0.39243 0.55145 0.0
C258 C 0.82822 0.34999 0.53654 0.0
C259 C 0.97073 0.22407 0.56194 0.0
O260 O 0.8875 0.14398 0.63716 0.0
O261 O 0.85039 0.20495 0.61102 0.0
O262 O 0.96258 0.10115 0.63736 0.0
O263 O 1.00097 0.10075 0.58882 0.0
O264 O 0.88746 0.06857 0.57571 0.0
O265 O 0.85898 0.13363 0.57992 0.0
O266 O 0.88548 0.14431 0.50984 0.0
O267 O 0.94539 0.10503 0.53491 0.0
O268 O 0.81057 0.22622 0.54961 0.0
O269 O 0.86782 0.26075 0.52582 0.0
O270 O 0.94676 0.22639 0.53391 0.0
O271 O 0.94504 0.20513 0.58483 0.0
H272 H 1.00182 0.18189 0.65095 0.0
H273 H 0.06792 0.22617 0.67036 0.0
H274 H 0.15618 0.10975 0.64672 0.0
H275 H 0.09038 0.0675 0.62591 0.0
H276 H 0.76899 0.27973 0.59188 0.0
H277 H 0.7491 0.35409 0.61756 0.0
H278 H 0.83047 0.42358 0.53952 0.0
H279 H 0.85017 0.34947 0.51379 0.0
Ho280 Ho 0.20334 0.67084 0.33581 0.0
Ho281 Ho 0.13754 0.61489 0.29946 0.0
C282 C 0.15553 0.59321 0.38393 0.0
C283 C 0.23537 0.74225 0.36649 0.0
C284 C 0.21149 0.77932 0.38476 0.0
C285 C 0.1685 0.77164 0.40029 0.0
C286 C 0.14315 0.8085 0.41363 0.0
C287 C 0.16102 0.85356 0.41277 0.0
C288 C 0.20397 0.86073 0.39638 0.0
C289 C 0.22864 0.82407 0.38239 0.0
C290 C 0.24219 0.58885 0.3174 0.0
C291 C 0.22075 0.65542 0.25339 0.0
C292 C 0.07196 0.55918 0.28078 0.0
C293 C 1.02574 0.54993 0.29522 0.0
C294 C 0.99174 0.53034 0.2743 0.0
C295 C 0.94772 0.52185 0.28769 0.0
C296 C 0.93689 0.53262 0.32237 0.0
C297 C 0.97104 0.55245 0.34322 0.0
C298 C 1.01493 0.56129 0.32971 0.0
C299 C 0.10821 0.70616 0.3076 0.0
O300 O 0.1829 0.62974 0.38411 0.0
O301 O 0.13326 0.58244 0.35478 0.0
O302 O 0.23475 0.70139 0.38103 0.0
O303 O 0.22631 0.74118 0.33337 0.0
O304 O 0.2654 0.62662 0.32177 0.0
O305 O 0.2013 0.59706 0.32575 0.0
O306 O 0.19274 0.61938 0.25663 0.0
O307 O 0.22253 0.68566 0.27906 0.0
O308 O 0.10665 0.54689 0.29988 0.0
O309 O 0.07811 0.59981 0.26735 0.0
O310 O 0.10579 0.68201 0.27975 0.0
O311 O 0.12748 0.68045 0.33024 0.0
H312 H 0.15384 0.73737 0.4011 0.0
H313 H 0.10998 0.80137 0.42519 0.0
H314 H 0.22008 0.89426 0.39565 0.0
H315 H 0.26134 0.83066 0.3698 0.0
H316 H 0.99925 0.52151 0.2476 0.0
H317 H 0.92233 0.50612 0.27103 0.0
H318 H 0.96364 0.5616 0.36986 0.0
H319 H 1.04041 0.57704 0.34623 0.0
Ho320 Ho 0.87319 0.70849 0.87414 0.0
Ho321 Ho 0.92304 0.63555 0.84567 0.0
C322 C 0.91502 0.62658 0.92643 0.0
C323 C 0.82733 0.77439 0.90378 0.0
C324 C 0.81926 0.82305 0.89328 0.0
C325 C 0.77556 0.84273 0.89765 0.0
C326 C 0.7659 0.88691 0.88465 0.0
C327 C 0.79972 0.91253 0.86681 0.0
C328 C 0.84393 0.89324 0.86337 0.0
C329 C 0.85354 0.84897 0.87634 0.0
C330 C 0.95855 0.73866 0.85114 0.0
C331 C 0.84622 0.68387 0.79335 0.0
C332 C 0.98691 0.59243 0.81315 0.0
C333 C 1.03561 0.58468 0.82125 0.0
C334 C 0.06389 0.62071 0.83254 0.0
C335 C 0.11104 0.61362 0.83694 0.0
C336 C 0.13075 0.5705 0.82941 0.0
C337 C 0.10107 0.53337 0.82191 0.0
C338 C 0.0541 0.54056 0.81768 0.0
C339 C 0.83748 0.60623 0.86406 0.0
O340 O 0.88068 0.65675 0.92114 0.0
O341 O 0.94394 0.61941 0.90071 0.0
O342 O 0.80851 0.74359 0.88393 0.0
O343 O 0.86914 0.76286 0.91253 0.0
O344 O 0.9193 0.75681 0.8434 0.0
O345 O 0.95012 0.70173 0.86827 0.0
O346 O 0.88005 0.65307 0.79662 0.0
O347 O 0.83666 0.7104 0.8206 0.0
O348 O 0.97485 0.63485 0.80556 0.0
O349 O 0.95784 0.57171 0.83379 0.0
O350 O 0.87409 0.58057 0.86525 0.0
O351 O 0.84842 0.64478 0.85163 0.0
H352 H 0.74854 0.82351 0.91055 0.0
H353 H 0.73173 0.90092 0.88845 0.0
H354 H 0.87076 0.91175 0.8497 0.0
H355 H 0.88756 0.83469 0.87244 0.0
H356 H 0.04994 0.65485 0.83622 0.0
H357 H 0.13247 0.64277 0.84342 0.0
H358 H 0.11421 0.49943 0.81588 0.0
H359 H 1.03258 0.51205 0.80984 0.0
Ho360 Ho 0.1335 0.11573 1.12932 0.0
Ho361 Ho 0.19999 0.17035 1.09367 0.0
C362 C 0.21335 0.15795 1.17652 0.0
C363 C 0.06693 0.06091 1.14782 0.0
C364 C 1.02024 0.05321 1.13344 0.0
C365 C 1.01398 1.0399 1.09871 0.0
C366 C 0.9698 1.03337 1.08534 0.0
C367 C 0.93068 1.04023 1.10623 0.0
C368 C 0.93693 0.05399 1.14086 0.0
C369 C 0.98121 0.06026 1.15431 0.0
C370 C 0.10393 0.20686 1.11957 0.0
C371 C 0.1556 0.09101 1.0461 0.0
C372 C 0.23449 0.24084 1.06227 0.0
C373 C 0.21205 0.28227 1.04848 0.0
C374 C 0.1672 0.28041 1.03536 0.0
C375 C 0.14432 0.32082 1.02563 0.0
C376 C 0.16642 0.3639 1.02762 0.0
C377 C 0.21107 0.36521 1.04206 0.0
C378 C 0.23338 0.32491 1.05246 0.0
C379 C 0.23952 0.0893 1.11462 0.0
O380 O 0.18685 0.12096 1.17305 0.0
O381 O 0.21477 0.18806 1.15053 0.0
O382 O 0.10168 0.04822 1.12889 0.0
O383 O 0.07422 0.10064 1.16208 0.0
O384 O 0.10051 0.18278 1.14759 0.0
O385 O 0.12413 0.18115 1.09755 0.0
O386 O 0.18418 0.12657 1.04616 0.0
O387 O 0.13068 0.08211 1.07457 0.0
O388 O 0.22597 0.20204 1.04654 0.0
O389 O 0.23207 0.23709 1.09592 0.0
O390 O 0.26194 0.1274 1.10955 0.0
O391 O 0.19879 0.09633 1.10528 0.0
H392 H 1.0432 1.03451 1.08173 0.0
H393 H 0.96625 1.02311 1.05851 0.0
H394 H 0.90761 0.05889 1.15782 0.0
H395 H 0.98499 0.07053 1.18113 0.0
H396 H 0.14933 0.24783 1.03346 0.0
H397 H 0.10964 0.3179 1.01588 0.0
H398 H 0.23034 0.3969 1.04382 0.0
H399 H 0.26763 0.32703 1.06333 0.0
Ho400 Ho 0.7194 0.37357 0.37649 0.0
Ho401 Ho 0.67401 0.44718 0.34598 0.0
C402 C 0.67185 0.45463 0.4265 0.0
C403 C 0.76245 0.3068 0.40745 0.0
C404 C 0.77624 0.26101 0.39372 0.0
C405 C 0.79889 0.25727 0.36153 0.0
C406 C 0.80979 0.21409 0.34776 0.0
C407 C 0.79799 0.17337 0.36557 0.0
C408 C 0.77508 0.17706 0.39769 0.0
C409 C 0.76444 0.22043 0.41164 0.0
C410 C 0.63635 0.34432 0.34932 0.0
C411 C 0.75432 0.39794 0.29766 0.0
C412 C 0.63095 0.4937 0.30007 0.0
C413 C 0.65275 0.51237 0.26831 0.0
C414 C 0.64203 0.4929 0.23619 0.0
C415 C 0.66721 0.50459 1.20666 0.0
C416 C 0.70364 0.53639 1.20838 0.0
C417 C 0.71425 0.55627 0.24045 0.0
C418 C 0.68929 0.54413 0.2702 0.0
C419 C 0.75768 0.47521 0.36946 0.0
O420 O 0.70566 0.42343 0.42316 0.0
O421 O 0.64642 0.46409 0.39907 0.0
O422 O 0.78312 0.34255 0.39407 0.0
O423 O 0.71843 0.3139 0.41098 0.0
O424 O 0.67616 0.3259 0.34375 0.0
O425 O 0.64315 0.38123 0.36657 0.0
O426 O 0.72092 0.42897 0.29968 0.0
O427 O 0.76109 0.37071 0.3251 0.0
O428 O 0.64389 0.51188 0.32943 0.0
O429 O 0.62879 0.44864 0.30155 0.0
O430 O 0.7207 0.50024 0.36962 0.0
O431 O 0.74805 0.43727 0.35565 0.0
H432 H 0.80789 0.28774 0.34669 0.0
H433 H 0.82697 0.21259 0.32283 0.0
H434 H 0.76595 0.14642 0.41228 0.0
H435 H 0.7467 0.22226 0.43634 0.0
H436 H 0.61454 0.46798 0.23402 0.0
H437 H 0.6569 0.48987 1.18213 0.0
H438 H 0.74145 0.58152 0.24239 0.0
H439 H 0.69905 0.55926 0.2947 0.0
Ho440 Ho 0.46667 0.96345 0.62738 0.0
Ho441 Ho 0.39152 0.92054 0.59904 0.0
C442 C 0.38696 0.92016 0.67959 0.0
C443 C 0.5347 1.00466 0.65774 0.0
C444 C 0.58298 1.01281 0.64701 0.0
C445 C 0.60377 0.05514 0.65437 0.0
C446 C 0.6474 0.06562 0.64108 0.0
C447 C 0.67126 1.03401 0.61997 0.0
C448 C 0.65097 0.99094 0.61362 0.0
C449 C 0.60725 0.98053 0.6269 0.0
C450 C 0.49351 0.87923 0.59981 0.0
C451 C 0.44315 0.99405 0.54721 0.0
C452 C 0.32956 0.87827 0.56453 0.0
C453 C 0.28959 0.89889 0.54657 0.0
C454 C 0.29211 0.90987 0.51119 0.0
C455 C 0.25425 0.9289 0.49423 0.0
C456 C 0.21271 0.93704 0.51221 0.0
C457 C 0.21129 0.92901 0.54811 0.0
C458 C 0.24923 0.90994 0.5651 0.0
C459 C 0.36837 1.00799 0.62011 0.0
O460 O 0.41656 0.9548 0.67484 0.0
O461 O 0.37974 0.89295 0.65309 0.0
O462 O 0.50386 1.02604 0.63925 0.0
O463 O 0.52274 0.96226 0.66452 0.0
O464 O 0.51264 0.91866 0.59409 0.0
O465 O 0.45709 0.88687 0.61755 0.0
O466 O 0.41639 0.95706 0.54887 0.0
O467 O 0.46558 1.00562 0.57598 0.0
O468 O 0.3288 0.88137 0.59819 0.0
O469 O 0.37027 0.8869 0.55156 0.0
O470 O 0.34153 0.97278 0.62199 0.0
O471 O 0.40491 0.99465 0.60632 0.0
H472 H 0.58578 0.0806 0.66978 0.0
H473 H 0.66232 0.09874 0.64714 0.0
H474 H 0.66817 0.96585 0.59741 0.0
H475 H 0.59201 0.94767 0.62072 0.0
H476 H 0.32288 0.90248 0.49631 0.0
H477 H 0.25658 0.93362 0.46639 0.0
H478 H 0.17981 0.93457 0.56259 0.0
H479 H 0.24633 0.9027 0.59261 0.0
Ho480 Ho 0.1728 0.45042 0.58451 0.0
Ho481 Ho 0.21768 0.37825 0.55299 0.0
C482 C 0.25122 0.39873 0.63289 0.0
C483 C 0.1281 0.49312 0.63116 0.0
C484 C 0.14983 0.50929 0.66326 0.0
C485 C 0.1327 0.4941 0.69522 0.0
C486 C 0.15746 0.50187 0.72547 0.0
C487 C 0.19992 0.52518 0.72445 0.0
C488 C 0.21693 0.54089 0.69252 0.0
C489 C 0.19238 0.53252 0.66209 0.0
C490 C 0.25788 0.47858 0.56396 0.0
C491 C 0.17274 0.46331 0.50429 0.0
C492 C 0.26226 0.31246 0.52226 0.0
C493 C 0.27637 0.2676 0.5372 0.0
C494 C 0.30565 0.23767 0.5191 0.0
C495 C 0.31996 0.19604 0.53446 0.0
C496 C 0.30474 0.1836 0.56796 0.0
C497 C 0.2754 0.21362 0.58585 0.0
C498 C 0.26168 0.25528 0.57075 0.0
C499 C 0.13313 0.34925 0.57783 0.0
O500 O 0.2187 0.43063 0.63093 0.0
O501 O 0.25794 0.37252 0.60506 0.0
O502 O 0.14129 0.51353 0.60247 0.0
O503 O 0.12641 0.44819 0.62838 0.0
O504 O 0.22152 0.50459 0.5637 0.0
O505 O 0.24681 0.43975 0.57581 0.0
O506 O 0.20368 0.42894 0.50624 0.0
O507 O 0.14914 0.47408 0.53229 0.0
O508 O 0.28216 0.34828 0.53569 0.0
O509 O 0.21812 0.31882 0.51902 0.0
O510 O 0.1725 0.33114 0.58524 0.0
O511 O 0.14131 0.38656 0.56109 0.0
H512 H 0.10061 0.47533 0.6967 0.0
H513 H 0.14255 0.4908 0.7499 0.0
H514 H 0.24895 0.55978 0.69119 0.0
H515 H 0.20724 0.54348 0.63761 0.0
H516 H 0.31774 0.24663 0.49334 0.0
H517 H 0.34278 0.17347 0.52014 0.0
H518 H 0.26416 0.20549 0.61192 0.0
H519 H 0.24011 0.27819 0.58563 0.0
Ho520 Ho 0.88876 0.90668 0.33586 0.0
Ho521 Ho 0.95888 0.96119 0.3051 0.0
C522 C 0.9378 0.98332 0.38739 0.0
C523 C 0.85111 0.83836 0.36732 0.0
C524 C 0.84568 0.78963 0.3579 0.0
C525 C 0.88294 0.76312 0.34589 0.0
C526 C 0.87828 0.71555 0.34149 0.0
C527 C 0.83641 0.69371 0.34948 0.0
C528 C 0.7979 0.72168 0.3573 0.0
C529 C 0.80269 0.76899 0.36175 0.0
C530 C 0.85621 0.99238 0.32034 0.0
C531 C 0.87775 0.91806 0.25463 0.0
C532 C 1.02285 1.01132 0.27736 0.0
C533 C 0.06796 1.02599 0.29184 0.0
C534 C 0.07034 0.05987 0.31778 0.0
C535 C 0.11243 0.07149 0.33289 0.0
C536 C 0.15343 0.04961 0.32257 0.0
C537 C 0.15114 1.01592 0.2965 0.0
C538 C 0.10898 1.00439 0.28126 0.0
C539 C 0.99053 0.87464 0.32468 0.0
O540 O 0.91156 0.94569 0.38569 0.0
O541 O 0.95879 0.99733 0.35843 0.0
O542 O 0.89305 0.85211 0.37388 0.0
O543 O 0.82764 0.86787 0.34868 0.0
O544 O 0.83095 0.95554 0.32093 0.0
O545 O 0.89563 0.98163 0.33084 0.0
O546 O 0.90759 0.95257 0.25905 0.0
O547 O 0.87127 0.88874 0.28045 0.0
O548 O 0.98604 1.02849 0.29178 0.0
O549 O 1.01815 0.96753 0.27092 0.0
O550 O 1.0086 0.91354 0.33348 0.0
O551 O 0.95321 0.88405 0.30881 0.0
H552 H 0.91628 0.77864 0.34174 0.0
H553 H 0.9084 0.69546 0.33476 0.0
H554 H 0.76478 0.70692 0.36357 0.0
H555 H 0.77325 0.78905 0.37014 0.0
H556 H 1.03957 0.07718 0.32683 0.0
H557 H 0.11274 0.09731 0.35305 0.0
H558 H 0.18207 0.99891 0.28746 0.0
H559 H 0.10843 0.97822 0.26134 0.0
Ho560 Ho 0.42942 0.63169 1.08088 0.0
Ho561 Ho 0.3772 0.70583 1.05474 0.0
C562 C 0.35341 0.67701 1.13532 0.0
C563 C 0.49618 0.59007 1.11124 0.0
C564 C 0.54529 0.58552 1.1028 0.0
C565 C 0.57124 0.62329 1.09093 0.0
C566 C 0.61913 0.6199 1.08844 0.0
C567 C 0.64168 0.57878 1.098 0.0
C568 C 0.61458 0.53953 1.10529 0.0
C569 C 0.56696 0.54308 1.10798 0.0
C570 C 0.34412 0.60197 1.06311 0.0
C571 C 0.41912 0.62713 1.00027 0.0
C572 C 0.33021 0.77393 1.0289 0.0
C573 C 0.31985 0.82018 1.04346 0.0
C574 C 0.31058 0.82567 1.07908 0.0
C575 C 0.30105 0.8693 1.0928 0.0
C576 C 0.3011 0.9087 1.07138 0.0
C577 C 0.31136 0.90331 1.03588 0.0
C578 C 0.32047 0.85951 1.02208 0.0
C579 C 0.46346 0.73388 1.07627 0.0
O580 O 0.38735 0.64658 1.13087 0.0
O581 O 0.34286 0.70489 1.10893 0.0
O582 O 0.48203 0.63128 1.12013 0.0
O583 O 0.46792 0.56905 1.09038 0.0
O584 O 0.38093 0.57653 1.06174 0.0
O585 O 0.35448 0.64015 1.07619 0.0
O586 O 0.38463 0.65683 1.0065 0.0
O587 O 0.44876 0.61903 1.02528 0.0
O588 O 0.31157 0.73879 1.04475 0.0
O589 O 0.37302 0.76592 1.02077 0.0
O590 O 0.4248 0.75135 1.08635 0.0
O591 O 0.4538 0.69873 1.058 0.0
H592 H 0.55489 0.65614 1.08555 0.0
H593 H 0.63869 0.65051 1.08208 0.0
H594 H 0.63 0.50696 1.11269 0.0
H595 H 0.54735 0.51326 1.11624 0.0
H596 H 0.3106 0.79618 1.09642 0.0
H597 H 0.29388 0.87227 1.12029 0.0
H598 H 0.31131 0.93288 1.01861 0.0
H599 H 0.32785 0.85634 0.99463 0.0
Ho600 Ho 0.70525 0.17663 0.83945 0.0
Ho601 Ho 0.63926 0.1208 0.80301 0.0
C602 C 0.6573 0.09891 0.88763 0.0
C603 C 0.7369 0.2486 0.8697 0.0
C604 C 0.71248 0.28646 0.88663 0.0
C605 C 0.66791 0.28004 0.89972 0.0
C606 C 0.64253 0.31752 0.91198 0.0
C607 C 0.6618 0.36199 0.91245 0.0
C608 C 0.70633 0.36799 0.89837 0.0
C609 C 0.73114 0.33068 0.88543 0.0
C610 C 0.74365 0.09451 0.82106 0.0
C611 C 0.7222 0.16145 0.75662 0.0
C612 C 0.57361 0.06549 0.78429 0.0
C613 C 0.52901 0.05226 0.80031 0.0
C614 C 0.5268 1.02208 0.82898 0.0
C615 C 0.48441 1.0111 0.84424 0.0
C616 C 0.44332 1.03022 0.83133 0.0
C617 C 0.4456 0.06022 0.80261 0.0
C618 C 0.48786 0.0709 0.78721 0.0
C619 C 0.61041 0.21215 0.81121 0.0
O620 O 0.68527 0.13504 0.88773 0.0
O621 O 0.63459 0.08859 0.85851 0.0
O622 O 0.73507 0.2082 0.88492 0.0
O623 O 0.72939 0.24655 0.83639 0.0
O624 O 0.7672 0.13199 0.82586 0.0
O625 O 0.70281 0.10296 0.8294 0.0
O626 O 0.6936 0.1259 0.75975 0.0
O627 O 0.72501 0.19117 0.78261 0.0
O628 O 0.61115 0.05161 0.79938 0.0
O629 O 0.57698 0.10797 0.77389 0.0
O630 O 0.60846 0.18829 0.78315 0.0
O631 O 0.62939 0.18621 0.83383 0.0
H632 H 0.65221 0.24623 0.89955 0.0
H633 H 0.60818 0.31131 0.92171 0.0
H634 H 0.72342 0.40102 0.89873 0.0
H635 H 0.76512 0.33635 0.87467 0.0
H636 H 0.55777 1.00706 0.83978 0.0
H637 H 0.48384 0.98794 0.86636 0.0
H638 H 0.41457 0.07479 0.79156 0.0
H639 H 0.48835 0.09394 0.76499 0.0
C640 C 0.55358 0.23835 0.349 0.0
C641 C 0.50921 0.25806 0.34732 0.0
H642 H 0.62705 0.24901 0.35017 0.0
C643 C 0.50749 0.30705 0.34671 0.0
H644 H 0.55724 0.20122 0.34947 0.0
C645 C 0.54776 0.33484 0.34809 0.0
C646 C 0.59212 0.31516 0.34909 0.0
H647 H 0.47455 0.32437 0.34543 0.0
H648 H 0.54406 0.37197 0.34773 0.0
C649 C 0.59397 0.26618 0.34935 0.0
C650 C 0.59798 0.79428 0.59795 0.0
C651 C 0.57771 0.75018 0.59888 0.0
H652 H 0.58836 0.86801 0.59654 0.0
C653 C 0.52889 0.74928 0.60033 0.0
H654 H 0.63504 0.79723 0.5967 0.0
C655 C 0.50175 0.79023 0.60123 0.0
C656 C 0.52195 0.83434 0.59966 0.0
H657 H 0.51127 0.71649 0.60114 0.0
H658 H 0.4647 0.78725 0.60262 0.0
C659 C 0.57077 0.83524 0.59781 0.0
C660 C 1.04381 0.84168 0.83978 0.0
C661 C 0.08661 0.82392 0.85081 0.0
H662 H 0.97173 0.82943 0.83033 0.0
C663 C 0.08646 0.77744 0.86258 0.0
H664 H 1.04172 0.87685 0.83038 0.0
C665 C 1.04569 0.75025 0.86351 0.0
C666 C 1.00316 0.76742 0.85134 0.0
H667 H 0.11816 0.76194 0.87161 0.0
H668 H 0.04764 0.71563 0.87389 0.0
C669 C 1.00333 0.81399 0.83964 0.0
C670 C 1.02503 0.24817 1.12022 0.0
C671 C 0.07262 0.2485 1.11202 0.0
H672 H 0.96054 0.28576 1.12281 0.0
C673 C 0.0904 0.29084 1.10011 0.0
H674 H 1.0097 0.21694 1.13043 0.0
C675 C 0.06199 0.33033 1.09516 0.0
C676 C 1.01431 0.33013 1.10305 0.0
H677 H 0.12698 0.29411 1.09616 0.0
H678 H 0.07805 0.36181 1.0861 0.0
C679 C 0.99655 0.28798 1.11584 0.0
C680 C 0.57754 0.7882 1.04289 0.0
C681 C 0.58637 0.82431 1.0666 0.0
H682 H 0.53441 0.73129 1.02759 0.0
C683 C 0.55521 0.82844 1.09459 0.0
H684 H 0.60034 0.78315 1.02098 0.0
C685 C 0.51622 0.79899 1.09786 0.0
C686 C 0.50741 0.76299 1.074 0.0
H687 H 0.56029 0.8552 1.11361 0.0
H688 H 0.49262 0.80466 1.11919 0.0
C689 C 0.53947 0.75793 1.04675 0.0
C690 C 0.53147 0.25279 0.8072 0.0
C691 C 0.57807 0.25313 0.81799 0.0
H692 H 0.46692 0.28974 0.80211 0.0
C693 C 0.59393 0.29475 0.83224 0.0
H694 H 0.51765 0.22208 0.79534 0.0
C695 C 0.56458 0.33364 0.83651 0.0
C696 C 0.5179 0.33341 0.8259 0.0
H697 H 0.62985 0.29805 0.83861 0.0
H698 H 0.57916 0.36468 0.84733 0.0
C699 C 0.50206 0.2919 0.81113 0.0
C700 C 0.09102 0.27225 0.58663 0.0
C701 C 0.08978 0.31897 0.57549 0.0
H702 H 0.05694 0.20629 0.58963 0.0
C703 C 0.0479 0.33411 0.5607 0.0
H704 H 0.12234 0.25819 0.59758 0.0
C705 C 1.00947 0.30393 0.5572 0.0
C706 C 1.01089 0.25727 0.56848 0.0
H707 H 1.04491 0.36922 0.55132 0.0
H708 H 0.97845 0.31721 0.54526 0.0
C709 C 0.05283 0.24218 0.58281 0.0
C710 C 0.09224 0.78744 0.33179 0.0
C711 C 0.07689 0.74804 0.3141 0.0
H712 H 0.07814 0.85651 0.34941 0.0
C713 C 1.03203 0.75084 0.29985 0.0
H714 H 0.12712 0.78841 0.34104 0.0
C715 C 1.00376 0.79076 0.30369 0.0
C716 C 1.01905 0.83003 0.32183 0.0
H717 H 1.01869 0.72199 0.28536 0.0
H718 H 0.97007 0.79107 0.29183 0.0
C719 C 0.06402 0.82722 0.33585 0.0
C720 C 0.36416 0.96833 1.17064 0.0
C721 C 0.37202 0.95321 1.20483 0.0
H722 H 0.38967 0.96376 1.11904 0.0
C723 C 0.38599 0.90724 1.20984 0.0
H724 H 0.35036 1.00248 1.16578 0.0
C725 C 0.40729 0.88411 1.18239 0.0
C726 C 0.41638 0.90894 1.15169 0.0
H727 H 0.38977 0.89313 0.23576 0.0
H728 H 0.42675 0.85317 1.1883 0.0
C729 C 0.38663 0.94569 1.14356 0.0
C730 C 0.77901 0.60552 0.39564 0.0
C731 C 0.80945 0.60885 0.42376 0.0
H732 H 0.76664 0.62816 0.34369 0.0
C733 C 0.8565 0.61352 0.41656 0.0
H734 H 0.74281 0.59907 0.40015 0.0
C735 C 0.86995 0.63069 0.38419 0.0
C736 C 0.83572 0.64431 0.36042 0.0
H737 H 0.88143 0.61349 0.43739 0.0
H738 H 0.9049 0.64296 0.38165 0.0
C739 C 0.7928 0.62232 0.3632 0.0
C740 C 0.22874 0.16553 0.70238 0.0
C741 C 0.20909 0.16914 0.73561 0.0
H742 H 0.21234 0.16557 0.64846 0.0
C743 C 0.17456 0.20252 0.74012 0.0
H744 H 0.2582 0.1433 0.69823 0.0
C745 C 0.1471 0.21403 0.71175 0.0
C746 C 0.15671 0.19377 0.6794 0.0
H747 H 0.16126 0.21012 0.76574 0.0
H748 H 0.11443 0.23042 0.71706 0.0
C749 C 0.20188 0.17778 0.67374 0.0
C750 C 0.63274 0.41146 0.9958 0.0
C751 C 0.66504 0.44717 0.99282 0.0
H752 H 0.60513 0.3535 0.97018 0.0
C753 C 0.66912 0.46915 0.96035 0.0
H754 H 0.62505 0.39589 1.02074 0.0
C755 C 0.65703 0.44473 0.9306 0.0
C756 C 0.64116 0.39911 0.93421 0.0
H757 H 0.69058 0.49937 0.95744 0.0
H758 H 0.6685 0.45772 0.90567 0.0
C759 C 0.62133 0.3866 0.96625 0.0
C760 C 0.18703 0.46999 0.98177 0.0
C761 C 0.18002 0.44957 0.9492 0.0
H762 H 0.18274 0.45863 1.03649 0.0
C763 C 0.14296 0.41893 0.94607 0.0
H764 H 0.21247 0.49683 0.98485 0.0
C765 C 0.12711 0.39609 0.97561 0.0
C766 C 0.14869 0.40452 1.0076 0.0
H767 H 0.13326 0.40503 0.92114 0.0
H768 H 0.10574 0.36621 0.9716 0.0
C769 C 0.17034 0.44758 1.01141 0.0
C770 C 0.17045 0.96127 0.45919 0.0
C771 C 0.1695 0.93989 0.492 0.0
H772 H 0.16419 0.94933 0.40478 0.0
C773 C 0.1386 0.90334 0.49699 0.0
H774 H 0.1912 0.99173 0.4549 0.0
C775 C 0.12491 0.87786 0.46832 0.0
C776 C 0.14124 0.89045 0.43519 0.0
H777 H 0.13389 0.88792 0.52241 0.0
H778 H 0.10998 0.8444 0.47333 0.0
C779 C 0.15561 0.93639 0.4304 0.0
C780 C 0.21998 0.50927 0.78554 0.0
C781 C 0.22023 0.54038 0.7575 0.0
H782 H 0.19136 0.49673 0.83566 0.0
C783 C 0.21668 0.58755 0.76469 0.0
H784 H 0.22555 0.47283 0.78117 0.0
C785 C 0.1964 0.60114 0.79584 0.0
C786 C 0.17991 0.56704 0.81884 0.0
H787 H 0.21954 0.61282 0.744 0.0
H788 H 0.18499 0.63656 0.79772 0.0
C789 C 0.20001 0.523 0.8168 0.0
C790 C 0.72936 0.52459 1.14748 0.0
C791 C 0.723 0.55472 1.17554 0.0
H792 H 0.71023 0.51148 1.09503 0.0
C793 C 0.71575 0.6016 1.16824 0.0
H794 H 0.73782 0.48869 1.15208 0.0
C795 C 0.69978 0.61448 1.13546 0.0
C796 C 0.6898 0.57983 1.11119 0.0
H797 H 0.71322 0.62645 1.18903 0.0
H798 H 0.68567 0.64884 1.13261 0.0
C799 C 0.71355 0.53776 1.11467 0.0
C800 C 0.2462 0.46109 0.33619 0.0
C801 C 0.29122 0.45462 0.34849 0.0
H802 H 0.19624 0.50807 0.31576 0.0
C803 C 0.32205 0.49196 0.3464 0.0
H804 H 0.22179 0.433 0.33663 0.0
C805 C 0.30733 0.53531 0.33414 0.0
C806 C 0.26158 0.54207 0.32355 0.0
H807 H 0.35699 0.48824 0.35564 0.0
H808 H 0.33113 0.56392 0.33452 0.0
C809 C 0.23169 0.50409 0.32382 0.0
C810 C 0.38212 0.48074 0.59184 0.0
C811 C 0.38853 0.52722 0.60063 0.0
H812 H 0.33638 0.42948 0.57235 0.0
C813 C 0.3528 0.55876 0.59344 0.0
H814 H 0.4091 0.45561 0.59623 0.0
C815 C 0.31107 0.54377 0.57923 0.0
C816 C 0.30422 0.49693 0.57186 0.0
H817 H 0.35639 0.59479 0.59998 0.0
H818 H 0.28352 0.56848 0.57557 0.0
C819 C 0.34062 0.46585 0.57763 0.0
C820 C 0.28823 0.59249 0.85484 0.0
C821 C 0.31083 0.6339 0.84667 0.0
H822 H 0.28689 0.51912 0.84906 0.0
C823 C 0.3479 0.63269 0.82311 0.0
H824 H 0.26019 0.59201 0.87339 0.0
C825 C 0.36261 0.59092 0.80871 0.0
C826 C 0.34026 0.54964 0.81725 0.0
H827 H 0.36595 0.664 0.81616 0.0
H828 H 0.3923 0.59066 0.79168 0.0
C829 C 0.30306 0.55081 0.84053 0.0
C830 C 0.21642 0.59793 1.08035 0.0
C831 C 0.2096 0.5516 1.0898 0.0
H832 H 0.26427 0.64979 1.06425 0.0
C833 C 0.24673 0.52064 1.08673 0.0
H834 H 0.1887 0.62274 1.08263 0.0
C835 C 0.2901 0.53612 1.07566 0.0
C836 C 0.29726 0.58298 1.06798 0.0
H837 H 0.2424 0.48463 1.09345 0.0
H838 H 0.31843 0.51187 1.07476 0.0
C839 C 0.25972 0.61344 1.06978 0.0
C840 C 0.85381 0.58971 1.13627 0.0
C841 C 0.84322 0.55074 1.11658 0.0
H842 H 0.85051 0.66348 1.13965 0.0
C843 C 0.81873 0.55609 1.08551 0.0
H844 H 0.87342 0.58626 1.16 0.0
C845 C 0.8064 0.59988 1.07356 0.0
C846 C 0.81817 0.63929 1.09255 0.0
H847 H 0.81069 0.52638 1.06975 0.0
H848 H 0.78834 0.60297 1.04911 0.0
C849 C 0.84087 0.63371 1.12454 0.0
C850 C 0.7129 0.60308 0.83739 0.0
C851 C 0.70611 0.5562 0.83004 0.0
H852 H 0.75917 0.65511 0.8548 0.0
C853 C 0.74156 0.52477 0.83829 0.0
H854 H 0.68608 0.62816 0.83233 0.0
C855 C 0.78362 0.54032 0.85167 0.0
C856 C 0.79098 0.58756 0.85715 0.0
H857 H 0.73759 0.4884 0.83304 0.0
H858 H 0.81102 0.51565 0.85609 0.0
C859 C 0.75467 0.61849 0.85076 0.0
C860 C 0.7292 0.44976 0.60366 0.0
C861 C 0.77534 0.44031 0.59544 0.0
H862 H 0.67941 0.50089 0.61766 0.0
C863 C 0.80798 0.4757 0.59906 0.0
H864 H 0.70316 0.42346 0.60091 0.0
C865 C 0.79439 0.5201 0.60902 0.0
C866 C 0.74782 0.53002 0.61519 0.0
H867 H 0.84389 0.46934 0.5933 0.0
H868 H 0.81995 0.54711 0.61002 0.0
C869 C 0.7156 0.49413 0.61327 0.0
C870 C 0.8414 0.48721 0.38105 0.0
C871 C 0.80231 0.49639 0.36096 0.0
H872 H 0.91483 0.49215 0.3848 0.0
C873 C 0.80732 0.51977 0.3292 0.0
H874 H 0.83835 0.46839 0.40529 0.0
C875 C 0.85082 0.53255 0.31713 0.0
C876 C 0.89033 0.52247 0.33669 0.0
H877 H 0.77766 0.52654 0.31303 0.0
H878 H 0.85359 0.54971 0.29218 0.0
C879 C 0.88504 0.50068 0.36922 0.0
C880 C 0.81907 0.99596 0.85316 0.0
C881 C 0.78828 0.95861 0.85133 0.0
H882 H 0.82962 0.06849 0.84452 0.0
C883 C 0.74551 0.96586 0.83526 0.0
H884 H 0.8523 0.99171 0.86538 0.0
C885 C 0.7328 1.00956 0.82317 0.0
C886 C 0.76238 0.04741 0.82676 0.0
H887 H 0.7213 0.93783 0.83257 0.0
H888 H 0.69879 1.01416 0.81228 0.0
C889 C 0.80622 1.03996 0.84103 0.0
C890 C 0.80161 0.0484 1.08958 0.0
C891 C 0.79353 1.00727 1.07157 0.0
H892 H 0.85139 0.09107 1.1149 0.0
C893 C 0.83116 0.97929 1.06266 0.0
H894 H 0.7732 0.0703 1.09729 0.0
C895 C 0.8757 0.99096 1.07279 0.0
C896 C 0.88375 1.03077 1.09245 0.0
H897 H 0.82583 0.9471 1.04917 0.0
H898 H 0.90356 0.96752 1.06668 0.0
C899 C 0.84629 0.0599 1.1001 0.0
C900 C 0.86821 0.07699 0.32485 0.0
C901 C 0.83805 1.03936 0.3268 0.0
H902 H 0.87954 0.14824 0.33579 0.0
C903 C 0.79343 1.04651 0.33981 0.0
H904 H 0.90298 0.0724 0.31533 0.0
C905 C 0.78006 0.09008 0.35203 0.0
C906 C 0.81085 0.12746 0.35106 0.0
H907 H 0.76958 1.01807 0.34203 0.0
H908 H 0.7458 0.09442 0.36258 0.0
C909 C 0.85477 0.12047 0.33667 0.0
C910 C 0.79641 1.02893 0.58945 0.0
C911 C 0.80344 0.07438 0.57783 0.0
H912 H 0.74933 0.98055 0.61235 0.0
C913 C 0.76592 0.105 0.57772 0.0
H914 H 0.82472 1.00464 0.59022 0.0
C915 C 0.72307 0.09147 0.5906 0.0
C916 C 0.71637 1.04679 0.60392 0.0
H917 H 0.77017 0.14026 0.56895 0.0
H918 H 0.69528 0.11638 0.59059 0.0
C919 C 0.75324 1.01524 0.60231 0.0
C920 C 0.36765 0.13039 0.58694 0.0
C921 C 0.32054 0.14017 0.58474 0.0
H922 H 0.41954 0.08207 0.602 0.0
C923 C 0.28895 0.10824 0.59855 0.0
H924 H 0.39273 0.15475 0.57718 0.0
C925 C 0.30421 0.06591 0.61224 0.0
C926 C 0.35141 0.05534 0.6129 0.0
H927 H 0.25238 0.11521 0.59743 0.0
H928 H 0.27916 1.0409 0.62086 0.0
C929 C 0.38287 0.08885 0.60135 0.0
C930 C 0.23259 1.03019 0.34584 0.0
C931 C 0.1985 0.06323 0.33798 0.0
H932 H 0.30208 1.01771 0.36234 0.0
C933 C 0.20834 0.10994 0.34384 0.0
H934 H 0.22596 0.99385 0.34215 0.0
C935 C 0.25158 0.12345 0.35575 0.0
C936 C 0.28628 0.09071 0.36216 0.0
H937 H 0.18326 0.13642 0.33781 0.0
H938 H 0.25852 0.1599 0.3585 0.0
C939 C 0.27601 1.04378 0.35789 0.0
C940 C 0.30049 1.03811 1.08886 0.0
C941 C 0.26042 1.04322 1.10898 0.0
H942 H 0.34435 0.99174 1.06069 0.0
C943 C 0.23571 1.00356 1.11846 0.0
H944 H 0.31987 0.06805 1.08063 0.0
C945 C 0.24994 0.95989 1.10734 0.0
C946 C 0.28867 0.95486 1.08574 0.0
H947 H 0.2043 1.00656 1.13345 0.0
H948 H 0.22931 0.93024 1.11434 0.0
C949 C 0.31412 0.99446 1.07702 0.0
C950 C 0.38807 0.97114 0.85441 0.0
C951 C 0.39795 1.0174 0.84656 0.0
H952 H 0.33677 0.92188 0.8689 0.0
C953 C 0.36321 0.0507 0.85132 0.0
H954 H 0.41384 0.94458 0.8508 0.0
C955 C 0.31899 1.03768 0.86201 0.0
C956 C 0.30859 0.99104 0.86784 0.0
H957 H 0.36991 0.08672 0.84591 0.0
H958 H 0.29244 0.06379 0.86387 0.0
C959 C 0.34389 0.95813 0.86482 0.0
C960 C 0.29075 0.21395 0.24746 0.0
C961 C 0.31105 0.1756 0.26428 0.0
H962 H 0.24574 0.23892 1.20676 0.0
C963 C 0.29693 0.13161 0.25265 0.0
H964 H 0.30011 0.24841 0.25533 0.0
C965 C 0.26429 0.12609 0.22563 0.0
C966 C 0.24503 0.16427 1.20799 0.0
H967 H 0.31094 0.10092 0.26481 0.0
H968 H 0.25516 0.09153 0.21784 0.0
C969 C 0.25923 0.20839 0.21945 0.0
C970 C 0.70545 0.50239 0.47642 0.0
C971 C 0.66669 0.48485 0.45894 0.0
H972 H 0.73217 0.54764 0.5157 0.0
C973 C 0.62324 0.50071 0.47082 0.0
H974 H 0.73959 0.49224 0.46812 0.0
C975 C 0.61881 0.53199 0.49913 0.0
C976 C 0.65774 0.55057 0.51582 0.0
H977 H 0.59234 0.48886 0.45812 0.0
H978 H 0.58478 0.54268 0.50726 0.0
C979 C 0.7011 0.53489 0.50373 0.0
C980 C 0.30481 0.94938 0.75652 0.0
C981 C 0.28827 0.9059 0.76796 0.0
H982 H 0.349 0.98811 0.72184 0.0
C983 C 0.30726 0.86702 0.7512 0.0
H984 H 0.29191 0.98044 0.76863 0.0
C985 C 0.33954 0.87163 0.72339 0.0
C986 C 0.3561 0.91517 0.71199 0.0
H987 H 0.29611 0.83288 0.75886 0.0
H988 H 0.35153 0.84071 0.7106 0.0
C989 C 0.33831 0.95388 0.72967 0.0
C990 C 0.96214 0.58309 0.97318 0.0
C991 C 0.91884 0.59561 0.95903 0.0
H992 H 1.00054 0.54352 1.01126 0.0
C993 C 0.88023 0.57352 0.97402 0.0
H994 H 0.99305 0.59834 0.9625 0.0
C995 C 0.88482 0.54005 1.00112 0.0
C996 C 0.92811 0.5279 1.01554 0.0
H997 H 0.84628 0.5809 0.96393 0.0
H998 H 0.85397 0.52391 1.01112 0.0
C999 C 0.96657 0.551 1.00124 0.0
C1000 C 0.83233 0.95352 1.20359 0.0
C1001 C 0.84714 0.91422 0.22227 0.0
H1002 H 0.78887 0.98193 1.16347 0.0
C1003 C 0.82853 0.87144 1.21147 0.0
H1004 H 0.8449 0.98721 1.2108 0.0
C1005 C 0.79685 0.86817 1.18336 0.0
C1006 C 0.78076 0.90778 1.16566 0.0
H1007 H 0.83841 0.84013 0.22496 0.0
H1008 H 0.78388 0.83462 1.17621 0.0
C1009 C 0.79952 0.95043 1.17639 0.0
C1010 C 0.46585 0.58426 0.9535 0.0
C1011 C 0.42255 0.59725 0.96746 0.0
H1012 H 0.50413 0.54412 0.91595 0.0
C1013 C 0.38375 0.57599 0.95249 0.0
H1014 H 0.49687 0.5989 0.96425 0.0
C1015 C 0.38818 0.54266 0.9256 0.0
C1016 C 0.43152 0.5298 0.91159 0.0
H1017 H 0.34981 0.58377 0.96249 0.0
H1018 H 0.35722 0.52713 0.91547 0.0
C1019 C 0.47016 0.55223 0.92575 0.0
C1020 C 0.76947 0.12792 0.70611 0.0
C1021 C 0.75429 0.16663 0.72504 0.0
H1022 H 0.81298 0.10079 0.66566 0.0
C1023 C 0.77258 0.20983 0.71446 0.0
H1024 H 0.75697 0.09397 0.71304 0.0
C1025 C 0.80425 0.214 0.68621 0.0
C1026 C 0.82055 0.17491 0.66821 0.0
H1027 H 0.76225 0.24073 0.72804 0.0
H1028 H 0.8169 0.24781 0.67911 0.0
C1029 C 0.80221 0.13189 0.67883 0.0
C1030 C 0.16319 0.54349 0.47746 0.0
C1031 C 0.16815 0.49535 0.47264 0.0
H1032 H 0.15641 0.61126 0.45449 0.0
C1033 C 0.16741 0.4798 0.43797 0.0
H1034 H 0.16374 0.55741 0.50346 0.0
C1035 C 0.16108 0.51105 0.40961 0.0
C1036 C 0.15691 0.55932 0.41458 0.0
H1037 H 0.17101 0.44337 0.43271 0.0
H1038 H 0.16081 0.4974 0.38354 0.0
C1039 C 0.15872 0.57473 0.44917 0.0
C1040 C 0.76525 0.71371 0.71563 0.0
C1041 C 0.74561 0.67069 0.70668 0.0
H1042 H 0.81025 0.7522 0.74951 0.0
C1043 C 0.75954 0.63248 0.72709 0.0
H1044 H 0.75619 0.74417 0.70078 0.0
C1045 C 0.79237 0.6369 0.75428 0.0
C1046 C 0.81196 0.67991 0.76318 0.0
H1047 H 0.7462 0.59861 0.72129 0.0
H1048 H 0.80214 0.60631 0.76875 0.0
C1049 C 0.79679 0.71839 0.74367 0.0
C1050 C 0.1667 1.04035 0.95348 0.0
C1051 C 0.16931 0.99203 0.95877 0.0
H1052 H 0.16138 0.10837 0.97557 0.0
C1053 C 0.16614 0.97663 0.99357 0.0
H1054 H 0.1691 0.05423 0.92739 0.0
C1055 C 0.15969 1.00825 1.02151 0.0
C1056 C 0.1576 0.05666 1.01599 0.0
H1057 H 0.1678 0.94009 0.99922 0.0
H1058 H 0.1576 0.99475 1.04772 0.0
C1059 C 0.16197 0.07181 0.98132 0.0
C1060 C 0.84957 0.36963 0.2294 0.0
C1061 C 0.85813 0.41279 1.21326 0.0
H1062 H 0.81232 0.33093 0.26861 0.0
C1063 C 0.83196 0.45045 0.2254 0.0
H1064 H 0.86798 0.33942 0.22055 0.0
C1065 C 0.79823 0.44504 0.25184 0.0
C1066 C 0.78987 0.40203 0.26829 0.0
H1067 H 0.83612 0.48399 1.21335 0.0
H1068 H 0.77865 0.47506 0.25955 0.0
C1069 C 0.81705 0.36458 0.2569 0.0
C1070 C 0.42551 1.01184 0.48299 0.0
C1071 C 0.43972 1.02728 0.51594 0.0
H1072 H 0.4099 1.02843 0.42965 0.0
C1073 C 0.44671 0.07553 0.51901 0.0
H1074 H 0.41911 0.97552 0.47903 0.0
C1075 C 0.4394 0.10665 0.49063 0.0
C1076 C 0.42604 0.09079 0.45754 0.0
H1077 H 0.45722 0.08958 0.54368 0.0
H1078 H 0.44532 0.14308 0.49444 0.0
C1079 C 0.41977 1.0426 0.45446 0.0
C1080 C 0.33785 0.36901 0.70687 0.0
C1081 C 0.35418 0.41279 0.71739 0.0
H1082 H 0.29468 0.32962 0.67221 0.0
C1083 C 0.33677 0.45122 0.69898 0.0
H1084 H 0.34964 0.33836 0.72035 0.0
C1085 C 0.30365 0.44619 0.67219 0.0
C1086 C 0.2872 0.40247 0.66175 0.0
H1087 H 0.34737 0.48558 0.70619 0.0
H1088 H 0.29094 0.47698 0.65936 0.0
C1089 C 0.30589 0.36387 0.67919 0.0
C1090 C 0.92852 1.0312 0.4816 0.0
C1091 C 0.92246 0.07932 0.47671 0.0
H1092 H 0.93662 0.96374 0.45856 0.0
C1093 C 0.92223 0.09508 0.44197 0.0
H1094 H 0.92888 1.01715 0.50769 0.0
C1095 C 0.92885 0.06434 0.41364 0.0
C1096 C 0.93414 1.0161 0.41851 0.0
H1097 H 0.9179 0.1315 0.43661 0.0
H1098 H 0.92882 0.07846 0.38759 0.0
C1099 C 0.93315 1.00025 0.45322 0.0
C1100 C 0.26711 0.70504 1.20996 0.0
C1101 C 0.25336 0.66104 0.22223 0.0
H1102 H 0.30743 0.74487 1.17325 0.0
C1103 C 0.27381 0.62272 1.20571 0.0
H1104 H 0.25273 0.73566 0.22173 0.0
C1105 C 0.30695 0.62814 1.17875 0.0
C1106 C 0.32031 0.6721 1.16621 0.0
H1107 H 0.26499 0.58823 0.2142 0.0
H1108 H 0.32151 0.5975 1.1671 0.0
C1109 C 0.29897 0.71043 1.18207 0.0
C1110 C 0.66135 1.04684 0.98094 0.0
C1111 C 0.67059 0.99945 0.97549 0.0
H1112 H 0.65121 0.11478 0.95873 0.0
C1113 C 0.67379 0.98526 0.94054 0.0
H1114 H 0.6588 0.05969 1.00719 0.0
C1115 C 0.66718 1.01687 0.91249 0.0
C1116 C 0.65891 0.06447 0.91801 0.0
H1117 H 0.68079 0.94944 0.9348 0.0
H1118 H 0.66997 1.00413 0.88622 0.0
C1119 C 0.65675 0.07873 0.95294 0.0
loop_
_geom_bond_atom_site_label_1
_geom_bond_atom_site_label_2
_geom_bond_distance
_geom_bond_site_symmetry_2
_ccdc_geom_bond_type
Ho0 C3 2.811 . S
Ho0 O20 2.322 . S
Ho0 O22 2.378 . S
Ho0 O23 2.524 . S
Ho0 O24 2.381 . S
Ho0 O25 2.669 . S
Ho0 O27 2.346 . S
Ho0 O31 2.305 . S
Ho1 C12 2.811 . S
Ho1 O21 2.346 . S
Ho1 O25 2.305 . S
Ho1 O26 2.322 . S
Ho1 O28 2.378 . S
Ho1 O29 2.524 . S
Ho1 O30 2.381 . S
Ho1 O31 2.669 . S
C2 O20 1.259 . S
C2 O21 1.268 . S
C3 Ho0 2.811 . S
C3 C4 1.488 . S
C3 O22 1.215 . S
C3 O23 1.289 . S
C4 C3 1.488 . S
C4 C5 1.348 . S
C4 C9 1.413 . S
C5 C4 1.348 . S
C5 C6 1.442 . S
C5 H32 0.930 . S
C6 C5 1.442 . S
C6 C7 1.381 . S
C6 H33 0.931 . S
C7 C6 1.381 . S
C7 C8 1.321 . S
C8 C7 1.321 . S
C8 C9 1.403 . S
C8 H34 0.934 . S
C9 C4 1.413 . S
C9 C8 1.403 . S
C9 H35 0.930 . S
C10 O24 1.275 . S
C10 O25 1.256 . S
C11 O26 1.259 . S
C11 O27 1.268 . S
C12 Ho1 2.811 . S
C12 C13 1.488 . S
C12 O28 1.215 . S
C12 O29 1.289 . S
C13 C12 1.488 . S
C13 C14 1.348 . S
C13 C18 1.413 1_545 S
C14 C13 1.348 . S
C14 C15 1.442 . S
C14 H36 0.930 . S
C15 C14 1.442 . S
C15 C16 1.381 1_545 S
C15 H37 0.931 1_554 S
C16 C15 1.381 1_565 S
C16 C17 1.321 . S
C17 C16 1.321 . S
C17 C18 1.403 . S
C17 H38 0.934 . S
C18 C13 1.413 1_565 S
C18 C17 1.403 . S
C18 H39 0.930 . S
C19 O30 1.275 . S
C19 O31 1.256 . S
O20 Ho0 2.322 . S
O20 C2 1.259 . S
O21 Ho1 2.346 . S
O21 C2 1.268 . S
O22 Ho0 2.378 . S
O22 C3 1.215 . S
O23 Ho0 2.524 . S
O23 C3 1.289 . S
O24 Ho0 2.381 . S
O24 C10 1.275 . S
O25 Ho0 2.669 . S
O25 Ho1 2.305 . S
O25 C10 1.256 . S
O26 Ho1 2.322 . S
O26 C11 1.259 . S
O27 Ho0 2.346 . S
O27 C11 1.268 . S
O28 Ho1 2.378 . S
O28 C12 1.215 . S
O29 Ho1 2.524 . S
O29 C12 1.289 . S
O30 Ho1 2.381 . S
O30 C19 1.275 . S
O31 Ho0 2.305 . S
O31 Ho1 2.669 . S
O31 C19 1.256 . S
H32 C5 0.930 . S
H33 C6 0.931 . S
H34 C8 0.934 . S
H35 C9 0.930 . S
H36 C14 0.930 . S
H37 C15 0.931 1_556 S
H38 C17 0.934 . S
H39 C18 0.930 . S
Ho40 C43 2.811 . S
Ho40 O60 2.322 . S
Ho40 O62 2.378 . S
Ho40 O63 2.524 . S
Ho40 O64 2.381 . S
Ho40 O65 2.669 . S
Ho40 O67 2.346 . S
Ho40 O71 2.305 . S
Ho41 C52 2.811 . S
Ho41 O61 2.346 . S
Ho41 O65 2.305 . S
Ho41 O66 2.322 . S
Ho41 O68 2.378 . S
Ho41 O69 2.524 . S
Ho41 O70 2.381 . S
Ho41 O71 2.669 . S
C42 O60 1.259 . S
C42 O61 1.268 . S
C43 Ho40 2.811 . S
C43 C44 1.488 . S
C43 O62 1.215 . S
C43 O63 1.289 . S
C44 C43 1.488 . S
C44 C45 1.348 . S
C44 C49 1.413 . S
C45 C44 1.348 . S
C45 C46 1.442 . S
C45 H72 0.930 . S
C46 C45 1.442 . S
C46 C47 1.381 . S
C46 H73 0.931 . S
C47 C46 1.381 . S
C47 C48 1.321 . S
C48 C47 1.321 . S
C48 C49 1.403 . S
C48 H74 0.934 . S
C49 C44 1.413 . S
C49 C48 1.403 . S
C49 H75 0.930 . S
C50 O64 1.275 . S
C50 O65 1.256 . S
C51 O66 1.259 . S
C51 O67 1.268 . S
C52 Ho41 2.811 . S
C52 C53 1.488 . S
C52 O68 1.215 . S
C52 O69 1.289 . S
C53 C52 1.488 . S
C53 C54 1.348 . S
C53 C58 1.413 . S
C54 C53 1.348 . S
C54 C55 1.442 . S
C54 H76 0.930 . S
C55 C54 1.442 . S
C55 C56 1.381 . S
C55 H77 0.931 . S
C56 C55 1.381 . S
C56 C57 1.321 . S
C57 C56 1.321 . S
C57 C58 1.403 . S
C57 H78 0.934 . S
C58 C53 1.413 . S
C58 C57 1.403 . S
C58 H79 0.930 . S
C59 O70 1.275 . S
C59 O71 1.256 . S
O60 Ho40 2.322 . S
O60 C42 1.259 . S
O61 Ho41 2.346 . S
O61 C42 1.268 . S
O62 Ho40 2.378 . S
O62 C43 1.215 . S
O63 Ho40 2.524 . S
O63 C43 1.289 . S
O64 Ho40 2.381 . S
O64 C50 1.275 . S
O65 Ho40 2.669 . S
O65 Ho41 2.305 . S
O65 C50 1.256 . S
O66 Ho41 2.322 . S
O66 C51 1.259 . S
O67 Ho40 2.346 . S
O67 C51 1.268 . S
O68 Ho41 2.378 . S
O68 C52 1.215 . S
O69 Ho41 2.524 . S
O69 C52 1.289 . S
O70 Ho41 2.381 . S
O70 C59 1.275 . S
O71 Ho40 2.305 . S
O71 Ho41 2.669 . S
O71 C59 1.256 . S
H72 C45 0.930 . S
H73 C46 0.931 . S
H74 C48 0.934 . S
H75 C49 0.930 . S
H76 C54 0.930 . S
H77 C55 0.931 . S
H78 C57 0.934 . S
H79 C58 0.930 . S
Ho80 C83 2.811 . S
Ho80 O100 2.322 . S
Ho80 O102 2.378 . S
Ho80 O103 2.524 . S
Ho80 O104 2.381 . S
Ho80 O105 2.669 . S
Ho80 O107 2.346 . S
Ho80 O111 2.305 . S
Ho81 C92 2.811 . S
Ho81 O101 2.346 . S
Ho81 O105 2.305 . S
Ho81 O106 2.322 . S
Ho81 O108 2.378 . S
Ho81 O109 2.524 . S
Ho81 O110 2.381 . S
Ho81 O111 2.669 . S
C82 O100 1.259 . S
C82 O101 1.268 . S
C83 Ho80 2.811 . S
C83 C84 1.488 . S
C83 O102 1.215 . S
C83 O103 1.289 . S
C84 C83 1.488 . S
C84 C85 1.348 . S
C84 C89 1.413 . S
C85 C84 1.348 . S
C85 C86 1.442 . S
C85 H112 0.930 . S
C86 C85 1.442 . S
C86 C87 1.381 . S
C86 H113 0.931 . S
C87 C86 1.381 . S
C87 C88 1.321 . S
C88 C87 1.321 . S
C88 C89 1.403 . S
C88 H114 0.934 . S
C89 C84 1.413 . S
C89 C88 1.403 . S
C89 H115 0.930 . S
C90 O104 1.275 . S
C90 O105 1.256 . S
C91 O106 1.259 . S
C91 O107 1.268 . S
C92 Ho81 2.811 . S
C92 C93 1.488 . S
C92 O108 1.215 . S
C92 O109 1.289 . S
C93 C92 1.488 . S
C93 C94 1.348 . S
C93 C98 1.413 1_565 S
C94 C93 1.348 . S
C94 C95 1.442 . S
C94 H116 0.930 . S
C95 C94 1.442 . S
C95 C96 1.381 1_565 S
C95 H117 0.931 . S
C96 C95 1.381 1_545 S
C96 C97 1.321 . S
C97 C96 1.321 . S
C97 C98 1.403 . S
C97 H118 0.934 . S
C98 C93 1.413 1_545 S
C98 C97 1.403 . S
C98 H119 0.930 . S
C99 O110 1.275 . S
C99 O111 1.256 . S
O100 Ho80 2.322 . S
O100 C82 1.259 . S
O101 Ho81 2.346 . S
O101 C82 1.268 . S
O102 Ho80 2.378 . S
O102 C83 1.215 . S
O103 Ho80 2.524 . S
O103 C83 1.289 . S
O104 Ho80 2.381 . S
O104 C90 1.275 . S
O105 Ho80 2.669 . S
O105 Ho81 2.305 . S
O105 C90 1.256 . S
O106 Ho81 2.322 . S
O106 C91 1.259 . S
O107 Ho80 2.346 . S
O107 C91 1.268 . S
O108 Ho81 2.378 . S
O108 C92 1.215 . S
O109 Ho81 2.524 . S
O109 C92 1.289 . S
O110 Ho81 2.381 . S
O110 C99 1.275 . S
O111 Ho80 2.305 . S
O111 Ho81 2.669 . S
O111 C99 1.256 . S
H112 C85 0.930 . S
H113 C86 0.931 . S
H114 C88 0.934 . S
H115 C89 0.930 . S
H116 C94 0.930 . S
H117 C95 0.931 . S
H118 C97 0.934 . S
H119 C98 0.930 . S
Ho120 C123 2.811 1_655 S
Ho120 O140 2.322 . S
Ho120 O142 2.378 1_655 S
Ho120 O143 2.524 . S
Ho120 O144 2.381 . S
Ho120 O145 2.669 . S
Ho120 O147 2.346 . S
Ho120 O151 2.305 . S
Ho121 C132 2.811 . S
Ho121 O141 2.346 . S
Ho121 O145 2.305 . S
Ho121 O146 2.322 . S
Ho121 O148 2.378 . S
Ho121 O149 2.524 . S
Ho121 O150 2.381 . S
Ho121 O151 2.669 . S
C122 O140 1.259 . S
C122 O141 1.268 . S
C123 Ho120 2.811 1_455 S
C123 C124 1.488 . S
C123 O142 1.215 . S
C123 O143 1.289 1_455 S
C124 C123 1.488 . S
C124 C125 1.348 . S
C124 C129 1.413 . S
C125 C124 1.348 . S
C125 C126 1.442 . S
C125 H152 0.930 1_455 S
C126 C125 1.442 . S
C126 C127 1.381 . S
C126 H153 0.931 . S
C127 C126 1.381 . S
C127 C128 1.321 . S
C128 C127 1.321 . S
C128 C129 1.403 . S
C128 H154 0.934 . S
C129 C124 1.413 . S
C129 C128 1.403 . S
C129 H155 0.930 . S
C130 O144 1.275 . S
C130 O145 1.256 . S
C131 O146 1.259 . S
C131 O147 1.268 . S
C132 Ho121 2.811 . S
C132 C133 1.488 . S
C132 O148 1.215 . S
C132 O149 1.289 . S
C133 C132 1.488 . S
C133 C134 1.348 . S
C133 C138 1.413 . S
C134 C133 1.348 . S
C134 C135 1.442 . S
C134 H156 0.930 . S
C135 C134 1.442 . S
C135 C136 1.381 . S
C135 H157 0.931 . S
C136 C135 1.381 . S
C136 C137 1.321 . S
C137 C136 1.321 . S
C137 C138 1.403 . S
C137 H158 0.934 . S
C138 C133 1.413 . S
C138 C137 1.403 . S
C138 H159 0.930 . S
C139 O150 1.275 . S
C139 O151 1.256 . S
O140 Ho120 2.322 . S
O140 C122 1.259 . S
O141 Ho121 2.346 . S
O141 C122 1.268 . S
O142 Ho120 2.378 1_455 S
O142 C123 1.215 . S
O143 Ho120 2.524 . S
O143 C123 1.289 1_655 S
O144 Ho120 2.381 . S
O144 C130 1.275 . S
O145 Ho120 2.669 . S
O145 Ho121 2.305 . S
O145 C130 1.256 . S
O146 Ho121 2.322 . S
O146 C131 1.259 . S
O147 Ho120 2.346 . S
O147 C131 1.268 . S
O148 Ho121 2.378 . S
O148 C132 1.215 . S
O149 Ho121 2.524 . S
O149 C132 1.289 . S
O150 Ho121 2.381 . S
O150 C139 1.275 . S
O151 Ho120 2.305 . S
O151 Ho121 2.669 . S
O151 C139 1.256 . S
H152 C125 0.930 1_655 S
H153 C126 0.931 . S
H154 C128 0.934 . S
H155 C129 0.930 . S
H156 C134 0.930 . S
H157 C135 0.931 . S
H158 C137 0.934 . S
H159 C138 0.930 . S
Ho160 C163 2.811 . S
Ho160 O180 2.322 . S
Ho160 O182 2.378 . S
Ho160 O183 2.524 . S
Ho160 O184 2.381 . S
Ho160 O185 2.669 . S
Ho160 O187 2.346 . S
Ho160 O191 2.305 . S
Ho161 C172 2.811 . S
Ho161 O181 2.346 . S
Ho161 O185 2.305 . S
Ho161 O186 2.322 . S
Ho161 O188 2.378 . S
Ho161 O189 2.524 . S
Ho161 O190 2.381 . S
Ho161 O191 2.669 . S
C162 O180 1.259 . S
C162 O181 1.268 . S
C163 Ho160 2.811 . S
C163 C164 1.488 . S
C163 O182 1.215 . S
C163 O183 1.289 . S
C164 C163 1.488 . S
C164 C165 1.348 . S
C164 C169 1.413 1_565 S
C165 C164 1.348 . S
C165 C166 1.442 . S
C165 H192 0.930 . S
C166 C165 1.442 . S
C166 C167 1.381 1_565 S
C166 H193 0.931 1_556 S
C167 C166 1.381 1_545 S
C167 C168 1.321 . S
C168 C167 1.321 . S
C168 C169 1.403 . S
C168 H194 0.934 . S
C169 C164 1.413 1_545 S
C169 C168 1.403 . S
C169 H195 0.930 . S
C170 O184 1.275 . S
C170 O185 1.256 . S
C171 O186 1.259 . S
C171 O187 1.268 . S
C172 Ho161 2.811 . S
C172 C173 1.488 . S
C172 O188 1.215 . S
C172 O189 1.289 . S
C173 C172 1.488 . S
C173 C174 1.348 . S
C173 C178 1.413 . S
C174 C173 1.348 . S
C174 C175 1.442 . S
C174 H196 0.930 . S
C175 C174 1.442 . S
C175 C176 1.381 . S
C175 H197 0.931 . S
C176 C175 1.381 . S
C176 C177 1.321 . S
C177 C176 1.321 . S
C177 C178 1.403 . S
C177 H198 0.934 . S
C178 C173 1.413 . S
C178 C177 1.403 . S
C178 H199 0.930 . S
C179 O190 1.275 . S
C179 O191 1.256 . S
O180 Ho160 2.322 . S
O180 C162 1.259 . S
O181 Ho161 2.346 . S
O181 C162 1.268 . S
O182 Ho160 2.378 . S
O182 C163 1.215 . S
O183 Ho160 2.524 . S
O183 C163 1.289 . S
O184 Ho160 2.381 . S
O184 C170 1.275 . S
O185 Ho160 2.669 . S
O185 Ho161 2.305 . S
O185 C170 1.256 . S
O186 Ho161 2.322 . S
O186 C171 1.259 . S
O187 Ho160 2.346 . S
O187 C171 1.268 . S
O188 Ho161 2.378 . S
O188 C172 1.215 . S
O189 Ho161 2.524 . S
O189 C172 1.289 . S
O190 Ho161 2.381 . S
O190 C179 1.275 . S
O191 Ho160 2.305 . S
O191 Ho161 2.669 . S
O191 C179 1.256 . S
H192 C165 0.930 . S
H193 C166 0.931 1_554 S
H194 C168 0.934 . S
H195 C169 0.930 . S
H196 C174 0.930 . S
H197 C175 0.931 . S
H198 C177 0.934 . S
H199 C178 0.930 . S
Ho200 C203 2.811 . S
Ho200 O220 2.322 . S
Ho200 O222 2.378 . S
Ho200 O223 2.524 . S
Ho200 O224 2.381 . S
Ho200 O225 2.669 . S
Ho200 O227 2.346 . S
Ho200 O231 2.305 . S
Ho201 C212 2.811 . S
Ho201 O221 2.346 . S
Ho201 O225 2.305 . S
Ho201 O226 2.322 . S
Ho201 O228 2.378 . S
Ho201 O229 2.524 . S
Ho201 O230 2.381 . S
Ho201 O231 2.669 . S
C202 O220 1.259 . S
C202 O221 1.268 . S
C203 Ho200 2.811 . S
C203 C204 1.488 . S
C203 O222 1.215 . S
C203 O223 1.289 . S
C204 C203 1.488 . S
C204 C205 1.348 . S
C204 C209 1.413 . S
C205 C204 1.348 . S
C205 C206 1.442 . S
C205 H232 0.930 . S
C206 C205 1.442 . S
C206 C207 1.381 . S
C206 H233 0.931 . S
C207 C206 1.381 . S
C207 C208 1.321 . S
C208 C207 1.321 . S
C208 C209 1.403 . S
C208 H234 0.934 . S
C209 C204 1.413 . S
C209 C208 1.403 . S
C209 H235 0.930 . S
C210 O224 1.275 . S
C210 O225 1.256 . S
C211 O226 1.259 . S
C211 O227 1.268 . S
C212 Ho201 2.811 . S
C212 C213 1.488 . S
C212 O228 1.215 . S
C212 O229 1.289 . S
C213 C212 1.488 . S
C213 C214 1.348 . S
C213 C218 1.413 . S
C214 C213 1.348 . S
C214 C215 1.442 . S
C214 H236 0.930 . S
C215 C214 1.442 . S
C215 C216 1.381 . S
C215 H237 0.931 . S
C216 C215 1.381 . S
C216 C217 1.321 . S
C217 C216 1.321 . S
C217 C218 1.403 . S
C217 H238 0.934 . S
C218 C213 1.413 . S
C218 C217 1.403 . S
C218 H239 0.930 . S
C219 O230 1.275 . S
C219 O231 1.256 . S
O220 Ho200 2.322 . S
O220 C202 1.259 . S
O221 Ho201 2.346 . S
O221 C202 1.268 . S
O222 Ho200 2.378 . S
O222 C203 1.215 . S
O223 Ho200 2.524 . S
O223 C203 1.289 . S
O224 Ho200 2.381 . S
O224 C210 1.275 . S
O225 Ho200 2.669 . S
O225 Ho201 2.305 . S
O225 C210 1.256 . S
O226 Ho201 2.322 . S
O226 C211 1.259 . S
O227 Ho200 2.346 . S
O227 C211 1.268 . S
O228 Ho201 2.378 . S
O228 C212 1.215 . S
O229 Ho201 2.524 . S
O229 C212 1.289 . S
O230 Ho201 2.381 . S
O230 C219 1.275 . S
O231 Ho200 2.305 . S
O231 Ho201 2.669 . S
O231 C219 1.256 . S
H232 C205 0.930 . S
H233 C206 0.931 . S
H234 C208 0.934 . S
H235 C209 0.930 . S
H236 C214 0.930 . S
H237 C215 0.931 . S
H238 C217 0.934 . S
H239 C218 0.930 . S
Ho240 C243 2.811 . S
Ho240 O260 2.322 . S
Ho240 O262 2.378 . S
Ho240 O263 2.524 . S
Ho240 O264 2.381 . S
Ho240 O265 2.669 . S
Ho240 O267 2.346 . S
Ho240 O271 2.305 . S
Ho241 C252 2.811 . S
Ho241 O261 2.346 . S
Ho241 O265 2.305 . S
Ho241 O266 2.322 . S
Ho241 O268 2.378 . S
Ho241 O269 2.524 . S
Ho241 O270 2.381 . S
Ho241 O271 2.669 . S
C242 O260 1.259 . S
C242 O261 1.268 . S
C243 Ho240 2.811 . S
C243 C244 1.488 . S
C243 O262 1.215 . S
C243 O263 1.289 . S
C244 C243 1.488 . S
C244 C245 1.348 . S
C244 C249 1.413 1_545 S
C245 C244 1.348 . S
C245 C246 1.442 . S
C245 H272 0.930 . S
C246 C245 1.442 . S
C246 C247 1.381 1_545 S
C246 H273 0.931 . S
C247 C246 1.381 1_565 S
C247 C248 1.321 . S
C248 C247 1.321 . S
C248 C249 1.403 . S
C248 H274 0.934 . S
C249 C244 1.413 1_565 S
C249 C248 1.403 . S
C249 H275 0.930 . S
C250 O264 1.275 . S
C250 O265 1.256 . S
C251 O266 1.259 . S
C251 O267 1.268 . S
C252 Ho241 2.811 . S
C252 C253 1.488 . S
C252 O268 1.215 . S
C252 O269 1.289 . S
C253 C252 1.488 . S
C253 C254 1.348 . S
C253 C258 1.413 . S
C254 C253 1.348 . S
C254 C255 1.442 . S
C254 H276 0.930 . S
C255 C254 1.442 . S
C255 C256 1.381 . S
C255 H277 0.931 . S
C256 C255 1.381 . S
C256 C257 1.321 . S
C257 C256 1.321 . S
C257 C258 1.403 . S
C257 H278 0.934 . S
C258 C253 1.413 . S
C258 C257 1.403 . S
C258 H279 0.930 . S
C259 O270 1.275 . S
C259 O271 1.256 . S
O260 Ho240 2.322 . S
O260 C242 1.259 . S
O261 Ho241 2.346 . S
O261 C242 1.268 . S
O262 Ho240 2.378 . S
O262 C243 1.215 . S
O263 Ho240 2.524 . S
O263 C243 1.289 . S
O264 Ho240 2.381 . S
O264 C250 1.275 . S
O265 Ho240 2.669 . S
O265 Ho241 2.305 . S
O265 C250 1.256 . S
O266 Ho241 2.322 . S
O266 C251 1.259 . S
O267 Ho240 2.346 . S
O267 C251 1.268 . S
O268 Ho241 2.378 . S
O268 C252 1.215 . S
O269 Ho241 2.524 . S
O269 C252 1.289 . S
O270 Ho241 2.381 . S
O270 C259 1.275 . S
O271 Ho240 2.305 . S
O271 Ho241 2.669 . S
O271 C259 1.256 . S
H272 C245 0.930 . S
H273 C246 0.931 . S
H274 C248 0.934 . S
H275 C249 0.930 . S
H276 C254 0.930 . S
H277 C255 0.931 . S
H278 C257 0.934 . S
H279 C258 0.930 . S
Ho280 C283 2.811 . S
Ho280 O300 2.322 . S
Ho280 O302 2.378 . S
Ho280 O303 2.524 . S
Ho280 O304 2.381 . S
Ho280 O305 2.669 . S
Ho280 O307 2.346 . S
Ho280 O311 2.305 . S
Ho281 C292 2.811 1_455 S
Ho281 O301 2.346 . S
Ho281 O305 2.305 . S
Ho281 O306 2.322 . S
Ho281 O308 2.378 1_455 S
Ho281 O309 2.524 . S
Ho281 O310 2.381 . S
Ho281 O311 2.669 . S
C282 O300 1.259 . S
C282 O301 1.268 . S
C283 Ho280 2.811 . S
C283 C284 1.488 . S
C283 O302 1.215 . S
C283 O303 1.289 . S
C284 C283 1.488 . S
C284 C285 1.348 . S
C284 C289 1.413 . S
C285 C284 1.348 . S
C285 C286 1.442 . S
C285 H312 0.930 . S
C286 C285 1.442 . S
C286 C287 1.381 . S
C286 H313 0.931 . S
C287 C286 1.381 . S
C287 C288 1.321 . S
C288 C287 1.321 . S
C288 C289 1.403 . S
C288 H314 0.934 . S
C289 C284 1.413 . S
C289 C288 1.403 . S
C289 H315 0.930 . S
C290 O304 1.275 . S
C290 O305 1.256 . S
C291 O306 1.259 . S
C291 O307 1.268 . S
C292 Ho281 2.811 1_655 S
C292 C293 1.488 . S
C292 O308 1.215 . S
C292 O309 1.289 1_655 S
C293 C292 1.488 . S
C293 C294 1.348 . S
C293 C298 1.413 . S
C294 C293 1.348 . S
C294 C295 1.442 . S
C294 H316 0.930 1_655 S
C295 C294 1.442 . S
C295 C296 1.381 . S
C295 H317 0.931 . S
C296 C295 1.381 . S
C296 C297 1.321 . S
C297 C296 1.321 . S
C297 C298 1.403 . S
C297 H318 0.934 . S
C298 C293 1.413 . S
C298 C297 1.403 . S
C298 H319 0.930 . S
C299 O310 1.275 . S
C299 O311 1.256 . S
O300 Ho280 2.322 . S
O300 C282 1.259 . S
O301 Ho281 2.346 . S
O301 C282 1.268 . S
O302 Ho280 2.378 . S
O302 C283 1.215 . S
O303 Ho280 2.524 . S
O303 C283 1.289 . S
O304 Ho280 2.381 . S
O304 C290 1.275 . S
O305 Ho280 2.669 . S
O305 Ho281 2.305 . S
O305 C290 1.256 . S
O306 Ho281 2.322 . S
O306 C291 1.259 . S
O307 Ho280 2.346 . S
O307 C291 1.268 . S
O308 Ho281 2.378 1_655 S
O308 C292 1.215 . S
O309 Ho281 2.524 . S
O309 C292 1.289 1_455 S
O310 Ho281 2.381 . S
O310 C299 1.275 . S
O311 Ho280 2.305 . S
O311 Ho281 2.669 . S
O311 C299 1.256 . S
H312 C285 0.930 . S
H313 C286 0.931 . S
H314 C288 0.934 . S
H315 C289 0.930 . S
H316 C294 0.930 1_455 S
H317 C295 0.931 . S
H318 C297 0.934 . S
H319 C298 0.930 . S
Ho320 C323 2.811 . S
Ho320 O340 2.322 . S
Ho320 O342 2.378 . S
Ho320 O343 2.524 . S
Ho320 O344 2.381 . S
Ho320 O345 2.669 . S
Ho320 O347 2.346 . S
Ho320 O351 2.305 . S
Ho321 C332 2.811 . S
Ho321 O341 2.346 . S
Ho321 O345 2.305 . S
Ho321 O346 2.322 . S
Ho321 O348 2.378 . S
Ho321 O349 2.524 . S
Ho321 O350 2.381 . S
Ho321 O351 2.669 . S
C322 O340 1.259 . S
C322 O341 1.268 . S
C323 Ho320 2.811 . S
C323 C324 1.488 . S
C323 O342 1.215 . S
C323 O343 1.289 . S
C324 C323 1.488 . S
C324 C325 1.348 . S
C324 C329 1.413 . S
C325 C324 1.348 . S
C325 C326 1.442 . S
C325 H352 0.930 . S
C326 C325 1.442 . S
C326 C327 1.381 . S
C326 H353 0.931 . S
C327 C326 1.381 . S
C327 C328 1.321 . S
C328 C327 1.321 . S
C328 C329 1.403 . S
C328 H354 0.934 . S
C329 C324 1.413 . S
C329 C328 1.403 . S
C329 H355 0.930 . S
C330 O344 1.275 . S
C330 O345 1.256 . S
C331 O346 1.259 . S
C331 O347 1.268 . S
C332 Ho321 2.811 . S
C332 C333 1.488 . S
C332 O348 1.215 . S
C332 O349 1.289 . S
C333 C332 1.488 . S
C333 C334 1.348 . S
C333 C338 1.413 . S
C334 C333 1.348 . S
C334 C335 1.442 . S
C334 H356 0.930 . S
C335 C334 1.442 . S
C335 C336 1.381 . S
C335 H357 0.931 . S
C336 C335 1.381 . S
C336 C337 1.321 . S
C337 C336 1.321 . S
C337 C338 1.403 . S
C337 H358 0.934 . S
C338 C333 1.413 . S
C338 C337 1.403 . S
C338 H359 0.930 . S
C339 O350 1.275 . S
C339 O351 1.256 . S
O340 Ho320 2.322 . S
O340 C322 1.259 . S
O341 Ho321 2.346 . S
O341 C322 1.268 . S
O342 Ho320 2.378 . S
O342 C323 1.215 . S
O343 Ho320 2.524 . S
O343 C323 1.289 . S
O344 Ho320 2.381 . S
O344 C330 1.275 . S
O345 Ho320 2.669 . S
O345 Ho321 2.305 . S
O345 C330 1.256 . S
O346 Ho321 2.322 . S
O346 C331 1.259 . S
O347 Ho320 2.346 . S
O347 C331 1.268 . S
O348 Ho321 2.378 . S
O348 C332 1.215 . S
O349 Ho321 2.524 . S
O349 C332 1.289 . S
O350 Ho321 2.381 . S
O350 C339 1.275 . S
O351 Ho320 2.305 . S
O351 Ho321 2.669 . S
O351 C339 1.256 . S
H352 C325 0.930 . S
H353 C326 0.931 . S
H354 C328 0.934 . S
H355 C329 0.930 . S
H356 C334 0.930 . S
H357 C335 0.931 . S
H358 C337 0.934 . S
H359 C338 0.930 . S
Ho360 C363 2.811 1_445 S
Ho360 O380 2.322 . S
Ho360 O382 2.378 1_455 S
Ho360 O383 2.524 1_545 S
Ho360 O384 2.381 . S
Ho360 O385 2.669 . S
Ho360 O387 2.346 . S
Ho360 O391 2.305 . S
Ho361 C372 2.811 . S
Ho361 O381 2.346 . S
Ho361 O385 2.305 . S
Ho361 O386 2.322 . S
Ho361 O388 2.378 . S
Ho361 O389 2.524 . S
Ho361 O390 2.381 . S
Ho361 O391 2.669 . S
C362 O380 1.259 . S
C362 O381 1.268 . S
C363 Ho360 2.811 1_665 S
C363 C364 1.488 . S
C363 O382 1.215 1_565 S
C363 O383 1.289 1_655 S
C364 C363 1.488 . S
C364 C365 1.348 . S
C364 C369 1.413 . S
C365 C364 1.348 . S
C365 C366 1.442 . S
C365 H392 0.930 1_655 S
C366 C365 1.442 . S
C366 C367 1.381 . S
C366 H393 0.931 . S
C367 C366 1.381 . S
C367 C368 1.321 . S
C368 C367 1.321 . S
C368 C369 1.403 . S
C368 H394 0.934 . S
C369 C364 1.413 . S
C369 C368 1.403 . S
C369 H395 0.930 1_565 S
C370 O384 1.275 . S
C370 O385 1.256 . S
C371 O386 1.259 . S
C371 O387 1.268 . S
C372 Ho361 2.811 . S
C372 C373 1.488 . S
C372 O388 1.215 . S
C372 O389 1.289 . S
C373 C372 1.488 . S
C373 C374 1.348 . S
C373 C378 1.413 . S
C374 C373 1.348 . S
C374 C375 1.442 . S
C374 H396 0.930 . S
C375 C374 1.442 . S
C375 C376 1.381 . S
C375 H397 0.931 . S
C376 C375 1.381 . S
C376 C377 1.321 . S
C377 C376 1.321 . S
C377 C378 1.403 . S
C377 H398 0.934 . S
C378 C373 1.413 . S
C378 C377 1.403 . S
C378 H399 0.930 . S
C379 O390 1.275 1_565 S
C379 O391 1.256 1_565 S
O380 Ho360 2.322 . S
O380 C362 1.259 . S
O381 Ho361 2.346 . S
O381 C362 1.268 . S
O382 Ho360 2.378 1_655 S
O382 C363 1.215 1_545 S
O383 Ho360 2.524 1_565 S
O383 C363 1.289 1_455 S
O384 Ho360 2.381 . S
O384 C370 1.275 . S
O385 Ho360 2.669 . S
O385 Ho361 2.305 . S
O385 C370 1.256 . S
O386 Ho361 2.322 . S
O386 C371 1.259 . S
O387 Ho360 2.346 . S
O387 C371 1.268 . S
O388 Ho361 2.378 . S
O388 C372 1.215 . S
O389 Ho361 2.524 . S
O389 C372 1.289 . S
O390 Ho361 2.381 . S
O390 C379 1.275 1_545 S
O391 Ho360 2.305 . S
O391 Ho361 2.669 . S
O391 C379 1.256 1_545 S
H392 C365 0.930 1_455 S
H393 C366 0.931 . S
H394 C368 0.934 . S
H395 C369 0.930 1_545 S
H396 C374 0.930 . S
H397 C375 0.931 . S
H398 C377 0.934 . S
H399 C378 0.930 . S
Ho400 C403 2.811 . S
Ho400 O420 2.322 . S
Ho400 O422 2.378 . S
Ho400 O423 2.524 . S
Ho400 O424 2.381 . S
Ho400 O425 2.669 . S
Ho400 O427 2.346 . S
Ho400 O431 2.305 . S
Ho401 C412 2.811 . S
Ho401 O421 2.346 . S
Ho401 O425 2.305 . S
Ho401 O426 2.322 . S
Ho401 O428 2.378 . S
Ho401 O429 2.524 . S
Ho401 O430 2.381 . S
Ho401 O431 2.669 . S
C402 O420 1.259 . S
C402 O421 1.268 . S
C403 Ho400 2.811 . S
C403 C404 1.488 . S
C403 O422 1.215 . S
C403 O423 1.289 . S
C404 C403 1.488 . S
C404 C405 1.348 . S
C404 C409 1.413 . S
C405 C404 1.348 . S
C405 C406 1.442 . S
C405 H432 0.930 . S
C406 C405 1.442 . S
C406 C407 1.381 . S
C406 H433 0.931 . S
C407 C406 1.381 . S
C407 C408 1.321 . S
C408 C407 1.321 . S
C408 C409 1.403 . S
C408 H434 0.934 . S
C409 C404 1.413 . S
C409 C408 1.403 . S
C409 H435 0.930 . S
C410 O424 1.275 . S
C410 O425 1.256 . S
C411 O426 1.259 . S
C411 O427 1.268 . S
C412 Ho401 2.811 . S
C412 C413 1.488 . S
C412 O428 1.215 . S
C412 O429 1.289 . S
C413 C412 1.488 . S
C413 C414 1.348 . S
C413 C418 1.413 . S
C414 C413 1.348 . S
C414 C415 1.442 . S
C414 H436 0.930 . S
C415 C414 1.442 . S
C415 C416 1.381 . S
C415 H437 0.931 1_554 S
C416 C415 1.381 . S
C416 C417 1.321 . S
C417 C416 1.321 . S
C417 C418 1.403 . S
C417 H438 0.934 . S
C418 C413 1.413 . S
C418 C417 1.403 . S
C418 H439 0.930 . S
C419 O430 1.275 . S
C419 O431 1.256 . S
O420 Ho400 2.322 . S
O420 C402 1.259 . S
O421 Ho401 2.346 . S
O421 C402 1.268 . S
O422 Ho400 2.378 . S
O422 C403 1.215 . S
O423 Ho400 2.524 . S
O423 C403 1.289 . S
O424 Ho400 2.381 . S
O424 C410 1.275 . S
O425 Ho400 2.669 . S
O425 Ho401 2.305 . S
O425 C410 1.256 . S
O426 Ho401 2.322 . S
O426 C411 1.259 . S
O427 Ho400 2.346 . S
O427 C411 1.268 . S
O428 Ho401 2.378 . S
O428 C412 1.215 . S
O429 Ho401 2.524 . S
O429 C412 1.289 . S
O430 Ho401 2.381 . S
O430 C419 1.275 . S
O431 Ho400 2.305 . S
O431 Ho401 2.669 . S
O431 C419 1.256 . S
H432 C405 0.930 . S
H433 C406 0.931 . S
H434 C408 0.934 . S
H435 C409 0.930 . S
H436 C414 0.930 . S
H437 C415 0.931 1_556 S
H438 C417 0.934 . S
H439 C418 0.930 . S
Ho440 C443 2.811 1_565 S
Ho440 O460 2.322 . S
Ho440 O462 2.378 . S
Ho440 O463 2.524 1_565 S
Ho440 O464 2.381 . S
Ho440 O465 2.669 . S
Ho440 O467 2.346 . S
Ho440 O471 2.305 . S
Ho441 C452 2.811 . S
Ho441 O461 2.346 . S
Ho441 O465 2.305 . S
Ho441 O466 2.322 . S
Ho441 O468 2.378 . S
Ho441 O469 2.524 . S
Ho441 O470 2.381 . S
Ho441 O471 2.669 . S
C442 O460 1.259 . S
C442 O461 1.268 . S
C443 Ho440 2.811 1_545 S
C443 C444 1.488 . S
C443 O462 1.215 1_545 S
C443 O463 1.289 . S
C444 C443 1.488 . S
C444 C445 1.348 . S
C444 C449 1.413 . S
C445 C444 1.348 . S
C445 C446 1.442 . S
C445 H472 0.930 . S
C446 C445 1.442 . S
C446 C447 1.381 . S
C446 H473 0.931 . S
C447 C446 1.381 . S
C447 C448 1.321 . S
C448 C447 1.321 . S
C448 C449 1.403 . S
C448 H474 0.934 . S
C449 C444 1.413 . S
C449 C448 1.403 . S
C449 H475 0.930 1_545 S
C450 O464 1.275 . S
C450 O465 1.256 . S
C451 O466 1.259 . S
C451 O467 1.268 . S
C452 Ho441 2.811 . S
C452 C453 1.488 . S
C452 O468 1.215 . S
C452 O469 1.289 . S
C453 C452 1.488 . S
C453 C454 1.348 . S
C453 C458 1.413 . S
C454 C453 1.348 . S
C454 C455 1.442 . S
C454 H476 0.930 . S
C455 C454 1.442 . S
C455 C456 1.381 . S
C455 H477 0.931 . S
C456 C455 1.381 . S
C456 C457 1.321 . S
C457 C456 1.321 . S
C457 C458 1.403 . S
C457 H478 0.934 . S
C458 C453 1.413 . S
C458 C457 1.403 . S
C458 H479 0.930 . S
C459 O470 1.275 1_545 S
C459 O471 1.256 1_545 S
O460 Ho440 2.322 . S
O460 C442 1.259 . S
O461 Ho441 2.346 . S
O461 C442 1.268 . S
O462 Ho440 2.378 . S
O462 C443 1.215 1_565 S
O463 Ho440 2.524 1_545 S
O463 C443 1.289 . S
O464 Ho440 2.381 . S
O464 C450 1.275 . S
O465 Ho440 2.669 . S
O465 Ho441 2.305 . S
O465 C450 1.256 . S
O466 Ho441 2.322 . S
O466 C451 1.259 . S
O467 Ho440 2.346 . S
O467 C451 1.268 . S
O468 Ho441 2.378 . S
O468 C452 1.215 . S
O469 Ho441 2.524 . S
O469 C452 1.289 . S
O470 Ho441 2.381 . S
O470 C459 1.275 1_565 S
O471 Ho440 2.305 . S
O471 Ho441 2.669 . S
O471 C459 1.256 1_565 S
H472 C445 0.930 . S
H473 C446 0.931 . S
H474 C448 0.934 . S
H475 C449 0.930 1_565 S
H476 C454 0.930 . S
H477 C455 0.931 . S
H478 C457 0.934 . S
H479 C458 0.930 . S
Ho480 C483 2.811 . S
Ho480 O500 2.322 . S
Ho480 O502 2.378 . S
Ho480 O503 2.524 . S
Ho480 O504 2.381 . S
Ho480 O505 2.669 . S
Ho480 O507 2.346 . S
Ho480 O511 2.305 . S
Ho481 C492 2.811 . S
Ho481 O501 2.346 . S
Ho481 O505 2.305 . S
Ho481 O506 2.322 . S
Ho481 O508 2.378 . S
Ho481 O509 2.524 . S
Ho481 O510 2.381 . S
Ho481 O511 2.669 . S
C482 O500 1.259 . S
C482 O501 1.268 . S
C483 Ho480 2.811 . S
C483 C484 1.488 . S
C483 O502 1.215 . S
C483 O503 1.289 . S
C484 C483 1.488 . S
C484 C485 1.348 . S
C484 C489 1.413 . S
C485 C484 1.348 . S
C485 C486 1.442 . S
C485 H512 0.930 . S
C486 C485 1.442 . S
C486 C487 1.381 . S
C486 H513 0.931 . S
C487 C486 1.381 . S
C487 C488 1.321 . S
C488 C487 1.321 . S
C488 C489 1.403 . S
C488 H514 0.934 . S
C489 C484 1.413 . S
C489 C488 1.403 . S
C489 H515 0.930 . S
C490 O504 1.275 . S
C490 O505 1.256 . S
C491 O506 1.259 . S
C491 O507 1.268 . S
C492 Ho481 2.811 . S
C492 C493 1.488 . S
C492 O508 1.215 . S
C492 O509 1.289 . S
C493 C492 1.488 . S
C493 C494 1.348 . S
C493 C498 1.413 . S
C494 C493 1.348 . S
C494 C495 1.442 . S
C494 H516 0.930 . S
C495 C494 1.442 . S
C495 C496 1.381 . S
C495 H517 0.931 . S
C496 C495 1.381 . S
C496 C497 1.321 . S
C497 C496 1.321 . S
C497 C498 1.403 . S
C497 H518 0.934 . S
C498 C493 1.413 . S
C498 C497 1.403 . S
C498 H519 0.930 . S
C499 O510 1.275 . S
C499 O511 1.256 . S
O500 Ho480 2.322 . S
O500 C482 1.259 . S
O501 Ho481 2.346 . S
O501 C482 1.268 . S
O502 Ho480 2.378 . S
O502 C483 1.215 . S
O503 Ho480 2.524 . S
O503 C483 1.289 . S
O504 Ho480 2.381 . S
O504 C490 1.275 . S
O505 Ho480 2.669 . S
O505 Ho481 2.305 . S
O505 C490 1.256 . S
O506 Ho481 2.322 . S
O506 C491 1.259 . S
O507 Ho480 2.346 . S
O507 C491 1.268 . S
O508 Ho481 2.378 . S
O508 C492 1.215 . S
O509 Ho481 2.524 . S
O509 C492 1.289 . S
O510 Ho481 2.381 . S
O510 C499 1.275 . S
O511 Ho480 2.305 . S
O511 Ho481 2.669 . S
O511 C499 1.256 . S
H512 C485 0.930 . S
H513 C486 0.931 . S
H514 C488 0.934 . S
H515 C489 0.930 . S
H516 C494 0.930 . S
H517 C495 0.931 . S
H518 C497 0.934 . S
H519 C498 0.930 . S
Ho520 C523 2.811 . S
Ho520 O540 2.322 . S
Ho520 O542 2.378 . S
Ho520 O543 2.524 . S
Ho520 O544 2.381 . S
Ho520 O545 2.669 . S
Ho520 O547 2.346 . S
Ho520 O551 2.305 . S
Ho521 C532 2.811 1_665 S
Ho521 O541 2.346 . S
Ho521 O545 2.305 . S
Ho521 O546 2.322 . S
Ho521 O548 2.378 1_655 S
Ho521 O549 2.524 1_565 S
Ho521 O550 2.381 . S
Ho521 O551 2.669 . S
C522 O540 1.259 . S
C522 O541 1.268 . S
C523 Ho520 2.811 . S
C523 C524 1.488 . S
C523 O542 1.215 . S
C523 O543 1.289 . S
C524 C523 1.488 . S
C524 C525 1.348 . S
C524 C529 1.413 . S
C525 C524 1.348 . S
C525 C526 1.442 . S
C525 H552 0.930 . S
C526 C525 1.442 . S
C526 C527 1.381 . S
C526 H553 0.931 . S
C527 C526 1.381 . S
C527 C528 1.321 . S
C528 C527 1.321 . S
C528 C529 1.403 . S
C528 H554 0.934 . S
C529 C524 1.413 . S
C529 C528 1.403 . S
C529 H555 0.930 . S
C530 O544 1.275 1_545 S
C530 O545 1.256 1_545 S
C531 O546 1.259 . S
C531 O547 1.268 . S
C532 Ho521 2.811 1_445 S
C532 C533 1.488 . S
C532 O548 1.215 1_545 S
C532 O549 1.289 1_455 S
C533 C532 1.488 . S
C533 C534 1.348 . S
C533 C538 1.413 . S
C534 C533 1.348 . S
C534 C535 1.442 . S
C534 H556 0.930 1_455 S
C535 C534 1.442 . S
C535 C536 1.381 . S
C535 H557 0.931 . S
C536 C535 1.381 . S
C536 C537 1.321 . S
C537 C536 1.321 . S
C537 C538 1.403 . S
C537 H558 0.934 . S
C538 C533 1.413 . S
C538 C537 1.403 . S
C538 H559 0.930 1_545 S
C539 O550 1.275 . S
C539 O551 1.256 . S
O540 Ho520 2.322 . S
O540 C522 1.259 . S
O541 Ho521 2.346 . S
O541 C522 1.268 . S
O542 Ho520 2.378 . S
O542 C523 1.215 . S
O543 Ho520 2.524 . S
O543 C523 1.289 . S
O544 Ho520 2.381 . S
O544 C530 1.275 1_565 S
O545 Ho520 2.669 . S
O545 Ho521 2.305 . S
O545 C530 1.256 1_565 S
O546 Ho521 2.322 . S
O546 C531 1.259 . S
O547 Ho520 2.346 . S
O547 C531 1.268 . S
O548 Ho521 2.378 1_455 S
O548 C532 1.215 1_565 S
O549 Ho521 2.524 1_545 S
O549 C532 1.289 1_655 S
O550 Ho521 2.381 . S
O550 C539 1.275 . S
O551 Ho520 2.305 . S
O551 Ho521 2.669 . S
O551 C539 1.256 . S
H552 C525 0.930 . S
H553 C526 0.931 . S
H554 C528 0.934 . S
H555 C529 0.930 . S
H556 C534 0.930 1_655 S
H557 C535 0.931 . S
H558 C537 0.934 . S
H559 C538 0.930 1_565 S
Ho560 C563 2.811 . S
Ho560 O580 2.322 . S
Ho560 O582 2.378 . S
Ho560 O583 2.524 . S
Ho560 O584 2.381 . S
Ho560 O585 2.669 . S
Ho560 O587 2.346 . S
Ho560 O591 2.305 . S
Ho561 C572 2.811 . S
Ho561 O581 2.346 . S
Ho561 O585 2.305 . S
Ho561 O586 2.322 . S
Ho561 O588 2.378 . S
Ho561 O589 2.524 . S
Ho561 O590 2.381 . S
Ho561 O591 2.669 . S
C562 O580 1.259 . S
C562 O581 1.268 . S
C563 Ho560 2.811 . S
C563 C564 1.488 . S
C563 O582 1.215 . S
C563 O583 1.289 . S
C564 C563 1.488 . S
C564 C565 1.348 . S
C564 C569 1.413 . S
C565 C564 1.348 . S
C565 C566 1.442 . S
C565 H592 0.930 . S
C566 C565 1.442 . S
C566 C567 1.381 . S
C566 H593 0.931 1_556 S
C567 C566 1.381 . S
C567 C568 1.321 . S
C568 C567 1.321 . S
C568 C569 1.403 . S
C568 H594 0.934 . S
C569 C564 1.413 . S
C569 C568 1.403 . S
C569 H595 0.930 . S
C570 O584 1.275 . S
C570 O585 1.256 . S
C571 O586 1.259 . S
C571 O587 1.268 . S
C572 Ho561 2.811 . S
C572 C573 1.488 . S
C572 O588 1.215 . S
C572 O589 1.289 . S
C573 C572 1.488 . S
C573 C574 1.348 . S
C573 C578 1.413 . S
C574 C573 1.348 . S
C574 C575 1.442 . S
C574 H596 0.930 . S
C575 C574 1.442 . S
C575 C576 1.381 . S
C575 H597 0.931 . S
C576 C575 1.381 . S
C576 C577 1.321 . S
C577 C576 1.321 . S
C577 C578 1.403 . S
C577 H598 0.934 . S
C578 C573 1.413 . S
C578 C577 1.403 . S
C578 H599 0.930 . S
C579 O590 1.275 . S
C579 O591 1.256 . S
O580 Ho560 2.322 . S
O580 C562 1.259 . S
O581 Ho561 2.346 . S
O581 C562 1.268 . S
O582 Ho560 2.378 . S
O582 C563 1.215 . S
O583 Ho560 2.524 . S
O583 C563 1.289 . S
O584 Ho560 2.381 . S
O584 C570 1.275 . S
O585 Ho560 2.669 . S
O585 Ho561 2.305 . S
O585 C570 1.256 . S
O586 Ho561 2.322 . S
O586 C571 1.259 . S
O587 Ho560 2.346 . S
O587 C571 1.268 . S
O588 Ho561 2.378 . S
O588 C572 1.215 . S
O589 Ho561 2.524 . S
O589 C572 1.289 . S
O590 Ho561 2.381 . S
O590 C579 1.275 . S
O591 Ho560 2.305 . S
O591 Ho561 2.669 . S
O591 C579 1.256 . S
H592 C565 0.930 . S
H593 C566 0.931 1_554 S
H594 C568 0.934 . S
H595 C569 0.930 . S
H596 C574 0.930 . S
H597 C575 0.931 . S
H598 C577 0.934 . S
H599 C578 0.930 . S
Ho600 C603 2.811 . S
Ho600 O620 2.322 . S
Ho600 O622 2.378 . S
Ho600 O623 2.524 . S
Ho600 O624 2.381 . S
Ho600 O625 2.669 . S
Ho600 O627 2.346 . S
Ho600 O631 2.305 . S
Ho601 C612 2.811 1_545 S
Ho601 O621 2.346 . S
Ho601 O625 2.305 . S
Ho601 O626 2.322 . S
Ho601 O628 2.378 . S
Ho601 O629 2.524 1_545 S
Ho601 O630 2.381 . S
Ho601 O631 2.669 . S
C602 O620 1.259 . S
C602 O621 1.268 . S
C603 Ho600 2.811 . S
C603 C604 1.488 . S
C603 O622 1.215 . S
C603 O623 1.289 . S
C604 C603 1.488 . S
C604 C605 1.348 . S
C604 C609 1.413 . S
C605 C604 1.348 . S
C605 C606 1.442 . S
C605 H632 0.930 . S
C606 C605 1.442 . S
C606 C607 1.381 . S
C606 H633 0.931 . S
C607 C606 1.381 . S
C607 C608 1.321 . S
C608 C607 1.321 . S
C608 C609 1.403 . S
C608 H634 0.934 . S
C609 C604 1.413 . S
C609 C608 1.403 . S
C609 H635 0.930 . S
C610 O624 1.275 1_565 S
C610 O625 1.256 1_565 S
C611 O626 1.259 . S
C611 O627 1.268 . S
C612 Ho601 2.811 1_565 S
C612 C613 1.488 . S
C612 O628 1.215 1_565 S
C612 O629 1.289 . S
C613 C612 1.488 . S
C613 C614 1.348 . S
C613 C618 1.413 . S
C614 C613 1.348 . S
C614 C615 1.442 . S
C614 H636 0.930 . S
C615 C614 1.442 . S
C615 C616 1.381 . S
C615 H637 0.931 . S
C616 C615 1.381 . S
C616 C617 1.321 . S
C617 C616 1.321 . S
C617 C618 1.403 . S
C617 H638 0.934 . S
C618 C613 1.413 . S
C618 C617 1.403 . S
C618 H639 0.930 1_565 S
C619 O630 1.275 . S
C619 O631 1.256 . S
O620 Ho600 2.322 . S
O620 C602 1.259 . S
O621 Ho601 2.346 . S
O621 C602 1.268 . S
O622 Ho600 2.378 . S
O622 C603 1.215 . S
O623 Ho600 2.524 . S
O623 C603 1.289 . S
O624 Ho600 2.381 . S
O624 C610 1.275 1_545 S
O625 Ho600 2.669 . S
O625 Ho601 2.305 . S
O625 C610 1.256 1_545 S
O626 Ho601 2.322 . S
O626 C611 1.259 . S
O627 Ho600 2.346 . S
O627 C611 1.268 . S
O628 Ho601 2.378 . S
O628 C612 1.215 1_545 S
O629 Ho601 2.524 1_565 S
O629 C612 1.289 . S
O630 Ho601 2.381 . S
O630 C619 1.275 . S
O631 Ho600 2.305 . S
O631 Ho601 2.669 . S
O631 C619 1.256 . S
H632 C605 0.930 . S
H633 C606 0.931 . S
H634 C608 0.934 . S
H635 C609 0.930 . S
H636 C614 0.930 . S
H637 C615 0.931 . S
H638 C617 0.934 . S
H639 C618 0.930 1_545 S
C640 C641 1.387 . S
C640 H644 0.950 . S
C640 C649 1.390 . S
C641 C640 1.387 . S
C641 C643 1.387 . S
H642 C649 0.950 . S
C643 C641 1.387 . S
C643 C645 1.390 . S
C643 H647 0.950 . S
H644 C640 0.950 . S
C645 C643 1.390 . S
C645 C646 1.387 . S
C645 H648 0.950 . S
C646 C645 1.387 . S
C646 C649 1.387 . S
H647 C643 0.950 . S
H648 C645 0.950 . S
C649 C640 1.390 . S
C649 H642 0.950 . S
C649 C646 1.387 . S
C650 C651 1.387 . S
C650 H654 0.950 . S
C650 C659 1.390 . S
C651 C650 1.387 . S
C651 C653 1.387 . S
H652 C659 0.950 . S
C653 C651 1.387 . S
C653 C655 1.390 . S
C653 H657 0.950 . S
H654 C650 0.950 . S
C655 C653 1.390 . S
C655 C656 1.387 . S
C655 H658 0.950 . S
C656 C655 1.387 . S
C656 C659 1.387 . S
H657 C653 0.950 . S
H658 C655 0.950 . S
C659 C650 1.390 . S
C659 H652 0.950 . S
C659 C656 1.387 . S
C660 C661 1.387 . S
C660 H664 0.950 . S
C660 C669 1.390 1_455 S
C661 C660 1.387 . S
C661 C663 1.387 . S
H662 C669 0.950 . S
C663 C661 1.387 . S
C663 C665 1.390 1_455 S
C663 H667 0.950 . S
H664 C660 0.950 . S
C665 C663 1.390 1_655 S
C665 C666 1.387 . S
C665 H668 0.950 . S
C666 C665 1.387 . S
C666 C669 1.387 . S
H667 C663 0.950 . S
H668 C665 0.950 . S
C669 C660 1.390 1_655 S
C669 H662 0.950 . S
C669 C666 1.387 . S
C670 C671 1.387 . S
C670 H674 0.950 . S
C670 C679 1.390 1_455 S
C671 C670 1.387 . S
C671 C673 1.387 . S
H672 C679 0.950 . S
C673 C671 1.387 . S
C673 C675 1.390 1_455 S
C673 H677 0.950 . S
H674 C670 0.950 . S
C675 C673 1.390 1_655 S
C675 C676 1.387 . S
C675 H678 0.950 . S
C676 C675 1.387 . S
C676 C679 1.387 . S
H677 C673 0.950 . S
H678 C675 0.950 . S
C679 C670 1.390 1_655 S
C679 H672 0.950 . S
C679 C676 1.387 . S
C680 C681 1.387 . S
C680 H684 0.950 . S
C680 C689 1.390 . S
C681 C680 1.387 . S
C681 C683 1.387 . S
H682 C689 0.950 . S
C683 C681 1.387 . S
C683 C685 1.390 . S
C683 H687 0.950 . S
H684 C680 0.950 . S
C685 C683 1.390 . S
C685 C686 1.387 . S
C685 H688 0.950 . S
C686 C685 1.387 . S
C686 C689 1.387 . S
H687 C683 0.950 . S
H688 C685 0.950 . S
C689 C680 1.390 . S
C689 H682 0.950 . S
C689 C686 1.387 . S
C690 C691 1.387 . S
C690 H694 0.950 . S
C690 C699 1.390 . S
C691 C690 1.387 . S
C691 C693 1.387 . S
H692 C699 0.950 . S
C693 C691 1.387 . S
C693 C695 1.390 . S
C693 H697 0.950 . S
H694 C690 0.950 . S
C695 C693 1.390 . S
C695 C696 1.387 . S
C695 H698 0.950 . S
C696 C695 1.387 . S
C696 C699 1.387 . S
H697 C693 0.950 . S
H698 C695 0.950 . S
C699 C690 1.390 . S
C699 H692 0.950 . S
C699 C696 1.387 . S
C700 C701 1.387 . S
C700 H704 0.950 . S
C700 C709 1.390 1_455 S
C701 C700 1.387 . S
C701 C703 1.387 . S
H702 C709 0.950 . S
C703 C701 1.387 . S
C703 C705 1.390 1_455 S
C703 H707 0.950 . S
H704 C700 0.950 . S
C705 C703 1.390 1_655 S
C705 C706 1.387 . S
C705 H708 0.950 . S
C706 C705 1.387 . S
C706 C709 1.387 . S
H707 C703 0.950 . S
H708 C705 0.950 . S
C709 C700 1.390 1_655 S
C709 H702 0.950 . S
C709 C706 1.387 . S
C710 C711 1.387 . S
C710 H714 0.950 . S
C710 C719 1.390 1_455 S
C711 C710 1.387 . S
C711 C713 1.387 . S
H712 C719 0.950 . S
C713 C711 1.387 . S
C713 C715 1.390 1_455 S
C713 H717 0.950 . S
H714 C710 0.950 . S
C715 C713 1.390 1_655 S
C715 C716 1.387 . S
C715 H718 0.950 . S
C716 C715 1.387 . S
C716 C719 1.387 . S
H717 C713 0.950 . S
H718 C715 0.950 . S
C719 C710 1.390 1_655 S
C719 H712 0.950 . S
C719 C716 1.387 . S
C720 C721 1.387 1_545 S
C720 H724 0.950 . S
C720 C729 1.390 . S
C721 C720 1.387 1_565 S
C721 C723 1.387 1_556 S
H722 C729 0.950 . S
C723 C721 1.387 1_554 S
C723 C725 1.390 . S
C723 H727 0.950 . S
H724 C720 0.950 . S
C725 C723 1.390 . S
C725 C726 1.387 1_565 S
C725 H728 0.950 . S
C726 C725 1.387 1_545 S
C726 C729 1.387 1_554 S
H727 C723 0.950 . S
H728 C725 0.950 . S
C729 C720 1.390 . S
C729 H722 0.950 . S
C729 C726 1.387 1_556 S
C730 C731 1.387 . S
C730 H734 0.950 . S
C730 C739 1.390 . S
C731 C730 1.387 . S
C731 C733 1.387 . S
H732 C739 0.950 . S
C733 C731 1.387 . S
C733 C735 1.390 . S
C733 H737 0.950 . S
H734 C730 0.950 . S
C735 C733 1.390 . S
C735 C736 1.387 . S
C735 H738 0.950 . S
C736 C735 1.387 . S
C736 C739 1.387 . S
H737 C733 0.950 . S
H738 C735 0.950 . S
C739 C730 1.390 . S
C739 H732 0.950 . S
C739 C736 1.387 . S
C740 C741 1.388 . S
C740 H744 0.950 . S
C740 C749 1.390 1_445 S
C741 C740 1.388 . S
C741 C743 1.387 . S
H742 C749 0.950 . S
C743 C741 1.387 . S
C743 C745 1.390 1_445 S
C743 H747 0.950 . S
H744 C740 0.950 . S
C745 C743 1.390 1_665 S
C745 C746 1.388 . S
C745 H748 0.950 . S
C746 C745 1.388 . S
C746 C749 1.387 . S
H747 C743 0.950 . S
H748 C745 0.950 . S
C749 C740 1.390 1_665 S
C749 H742 0.950 . S
C749 C746 1.387 . S
C750 C751 1.387 . S
C750 H754 0.950 . S
C750 C759 1.390 . S
C751 C750 1.387 . S
C751 C753 1.387 . S
H752 C759 0.950 . S
C753 C751 1.387 . S
C753 C755 1.390 . S
C753 H757 0.950 . S
H754 C750 0.950 . S
C755 C753 1.390 . S
C755 C756 1.387 . S
C755 H758 0.950 . S
C756 C755 1.387 . S
C756 C759 1.387 . S
H757 C753 0.950 . S
H758 C755 0.950 . S
C759 C750 1.390 . S
C759 H752 0.950 . S
C759 C756 1.387 . S
C760 C761 1.387 . S
C760 H764 0.950 . S
C760 C769 1.390 . S
C761 C760 1.387 . S
C761 C763 1.387 . S
H762 C769 0.950 . S
C763 C761 1.387 . S
C763 C765 1.390 . S
C763 H767 0.950 . S
H764 C760 0.950 . S
C765 C763 1.390 . S
C765 C766 1.387 . S
C765 H768 0.950 . S
C766 C765 1.387 . S
C766 C769 1.387 . S
H767 C763 0.950 . S
H768 C765 0.950 . S
C769 C760 1.390 . S
C769 H762 0.950 . S
C769 C766 1.387 . S
C770 C771 1.387 . S
C770 H774 0.950 . S
C770 C779 1.390 . S
C771 C770 1.387 . S
C771 C773 1.387 . S
H772 C779 0.950 . S
C773 C771 1.387 . S
C773 C775 1.390 . S
C773 H777 0.950 . S
H774 C770 0.950 . S
C775 C773 1.390 . S
C775 C776 1.387 . S
C775 H778 0.950 . S
C776 C775 1.387 . S
C776 C779 1.387 . S
H777 C773 0.950 . S
H778 C775 0.950 . S
C779 C770 1.390 . S
C779 H772 0.950 . S
C779 C776 1.387 . S
C780 C781 1.387 . S
C780 H784 0.950 . S
C780 C789 1.390 1_455 S
C781 C780 1.387 . S
C781 C783 1.387 . S
H782 C789 0.950 . S
C783 C781 1.387 . S
C783 C785 1.390 1_455 S
C783 H787 0.950 . S
H784 C780 0.950 . S
C785 C783 1.390 1_655 S
C785 C786 1.387 . S
C785 H788 0.950 . S
C786 C785 1.387 . S
C786 C789 1.387 . S
H787 C783 0.950 . S
H788 C785 0.950 . S
C789 C780 1.390 1_655 S
C789 H782 0.950 . S
C789 C786 1.387 . S
C790 C791 1.387 . S
C790 H794 0.950 . S
C790 C799 1.390 . S
C791 C790 1.387 . S
C791 C793 1.387 1_556 S
H792 C799 0.950 . S
C793 C791 1.387 1_554 S
C793 C795 1.390 . S
C793 H797 0.950 . S
H794 C790 0.950 . S
C795 C793 1.390 . S
C795 C796 1.387 . S
C795 H798 0.950 . S
C796 C795 1.387 . S
C796 C799 1.387 1_554 S
H797 C793 0.950 . S
H798 C795 0.950 . S
C799 C790 1.390 . S
C799 H792 0.950 . S
C799 C796 1.387 1_556 S
C800 C801 1.387 . S
C800 H804 0.950 . S
C800 C809 1.390 . S
C801 C800 1.387 . S
C801 C803 1.387 . S
H802 C809 0.950 . S
C803 C801 1.387 . S
C803 C805 1.390 . S
C803 H807 0.950 . S
H804 C800 0.950 . S
C805 C803 1.390 . S
C805 C806 1.387 . S
C805 H808 0.950 . S
C806 C805 1.387 . S
C806 C809 1.387 . S
H807 C803 0.950 . S
H808 C805 0.950 . S
C809 C800 1.390 . S
C809 H802 0.950 . S
C809 C806 1.387 . S
C810 C811 1.387 . S
C810 H814 0.950 . S
C810 C819 1.390 . S
C811 C810 1.387 . S
C811 C813 1.387 . S
H812 C819 0.950 . S
C813 C811 1.387 . S
C813 C815 1.390 . S
C813 H817 0.950 . S
H814 C810 0.950 . S
C815 C813 1.390 . S
C815 C816 1.387 . S
C815 H818 0.950 . S
C816 C815 1.387 . S
C816 C819 1.387 . S
H817 C813 0.950 . S
H818 C815 0.950 . S
C819 C810 1.390 . S
C819 H812 0.950 . S
C819 C816 1.387 . S
C820 C821 1.387 . S
C820 H824 0.950 . S
C820 C829 1.390 . S
C821 C820 1.387 . S
C821 C823 1.387 . S
H822 C829 0.950 . S
C823 C821 1.387 . S
C823 C825 1.390 . S
C823 H827 0.950 . S
H824 C820 0.950 . S
C825 C823 1.390 . S
C825 C826 1.387 . S
C825 H828 0.950 . S
C826 C825 1.387 . S
C826 C829 1.387 . S
H827 C823 0.950 . S
H828 C825 0.950 . S
C829 C820 1.390 . S
C829 H822 0.950 . S
C829 C826 1.387 . S
C830 C831 1.387 . S
C830 H834 0.950 . S
C830 C839 1.390 . S
C831 C830 1.387 . S
C831 C833 1.387 . S
H832 C839 0.950 . S
C833 C831 1.387 . S
C833 C835 1.390 . S
C833 H837 0.950 . S
H834 C830 0.950 . S
C835 C833 1.390 . S
C835 C836 1.387 . S
C835 H838 0.950 . S
C836 C835 1.387 . S
C836 C839 1.387 . S
H837 C833 0.950 . S
H838 C835 0.950 . S
C839 C830 1.390 . S
C839 H832 0.950 . S
C839 C836 1.387 . S
C840 C841 1.387 . S
C840 H844 0.950 . S
C840 C849 1.390 . S
C841 C840 1.387 . S
C841 C843 1.387 . S
H842 C849 0.950 . S
C843 C841 1.387 . S
C843 C845 1.390 . S
C843 H847 0.950 . S
H844 C840 0.950 . S
C845 C843 1.390 . S
C845 C846 1.387 . S
C845 H848 0.950 . S
C846 C845 1.387 . S
C846 C849 1.387 . S
H847 C843 0.950 . S
H848 C845 0.950 . S
C849 C840 1.390 . S
C849 H842 0.950 . S
C849 C846 1.387 . S
C850 C851 1.387 . S
C850 H854 0.950 . S
C850 C859 1.390 . S
C851 C850 1.387 . S
C851 C853 1.387 . S
H852 C859 0.950 . S
C853 C851 1.387 . S
C853 C855 1.390 . S
C853 H857 0.950 . S
H854 C850 0.950 . S
C855 C853 1.390 . S
C855 C856 1.387 . S
C855 H858 0.950 . S
C856 C855 1.387 . S
C856 C859 1.387 . S
H857 C853 0.950 . S
H858 C855 0.950 . S
C859 C850 1.390 . S
C859 H852 0.950 . S
C859 C856 1.387 . S
C860 C861 1.387 . S
C860 H864 0.950 . S
C860 C869 1.390 . S
C861 C860 1.387 . S
C861 C863 1.387 . S
H862 C869 0.950 . S
C863 C861 1.387 . S
C863 C865 1.390 . S
C863 H867 0.950 . S
H864 C860 0.950 . S
C865 C863 1.390 . S
C865 C866 1.387 . S
C865 H868 0.950 . S
C866 C865 1.387 . S
C866 C869 1.387 . S
H867 C863 0.950 . S
H868 C865 0.950 . S
C869 C860 1.390 . S
C869 H862 0.950 . S
C869 C866 1.387 . S
C870 C871 1.387 . S
C870 H874 0.950 . S
C870 C879 1.390 . S
C871 C870 1.387 . S
C871 C873 1.387 . S
H872 C879 0.950 . S
C873 C871 1.387 . S
C873 C875 1.390 . S
C873 H877 0.950 . S
H874 C870 0.950 . S
C875 C873 1.390 . S
C875 C876 1.387 . S
C875 H878 0.950 . S
C876 C875 1.387 . S
C876 C879 1.387 . S
H877 C873 0.950 . S
H878 C875 0.950 . S
C879 C870 1.390 . S
C879 H872 0.950 . S
C879 C876 1.387 . S
C880 C881 1.387 . S
C880 H884 0.950 . S
C880 C889 1.390 . S
C881 C880 1.387 . S
C881 C883 1.387 . S
H882 C889 0.950 . S
C883 C881 1.387 . S
C883 C885 1.390 . S
C883 H887 0.950 . S
H884 C880 0.950 . S
C885 C883 1.390 . S
C885 C886 1.387 . S
C885 H888 0.950 . S
C886 C885 1.387 . S
C886 C889 1.387 . S
H887 C883 0.950 . S
H888 C885 0.950 . S
C889 C880 1.390 . S
C889 H882 0.950 . S
C889 C886 1.387 . S
C890 C891 1.387 . S
C890 H894 0.950 . S
C890 C899 1.390 . S
C891 C890 1.387 . S
C891 C893 1.387 . S
H892 C899 0.950 . S
C893 C891 1.387 . S
C893 C895 1.390 . S
C893 H897 0.950 . S
H894 C890 0.950 . S
C895 C893 1.390 . S
C895 C896 1.387 . S
C895 H898 0.950 . S
C896 C895 1.387 . S
C896 C899 1.387 . S
H897 C893 0.950 . S
H898 C895 0.950 . S
C899 C890 1.390 . S
C899 H892 0.950 . S
C899 C896 1.387 . S
C900 C901 1.387 . S
C900 H904 0.950 . S
C900 C909 1.390 . S
C901 C900 1.387 . S
C901 C903 1.387 . S
H902 C909 0.950 . S
C903 C901 1.387 . S
C903 C905 1.390 . S
C903 H907 0.950 . S
H904 C900 0.950 . S
C905 C903 1.390 . S
C905 C906 1.387 . S
C905 H908 0.950 . S
C906 C905 1.387 . S
C906 C909 1.387 . S
H907 C903 0.950 . S
H908 C905 0.950 . S
C909 C900 1.390 . S
C909 H902 0.950 . S
C909 C906 1.387 . S
C910 C911 1.387 . S
C910 H914 0.950 . S
C910 C919 1.390 . S
C911 C910 1.387 . S
C911 C913 1.387 . S
H912 C919 0.950 . S
C913 C911 1.387 . S
C913 C915 1.390 . S
C913 H917 0.950 . S
H914 C910 0.950 . S
C915 C913 1.390 . S
C915 C916 1.387 . S
C915 H918 0.950 . S
C916 C915 1.387 . S
C916 C919 1.387 . S
H917 C913 0.950 . S
H918 C915 0.950 . S
C919 C910 1.390 . S
C919 H912 0.950 . S
C919 C916 1.387 . S
C920 C921 1.387 . S
C920 H924 0.950 . S
C920 C929 1.390 . S
C921 C920 1.387 . S
C921 C923 1.387 . S
H922 C929 0.950 . S
C923 C921 1.387 . S
C923 C925 1.390 . S
C923 H927 0.950 . S
H924 C920 0.950 . S
C925 C923 1.390 . S
C925 C926 1.387 . S
C925 H928 0.950 . S
C926 C925 1.387 . S
C926 C929 1.387 . S
H927 C923 0.950 . S
H928 C925 0.950 . S
C929 C920 1.390 . S
C929 H922 0.950 . S
C929 C926 1.387 . S
C930 C931 1.387 . S
C930 H934 0.950 . S
C930 C939 1.390 . S
C931 C930 1.387 . S
C931 C933 1.387 . S
H932 C939 0.950 . S
C933 C931 1.387 . S
C933 C935 1.390 . S
C933 H937 0.950 . S
H934 C930 0.950 . S
C935 C933 1.390 . S
C935 C936 1.387 . S
C935 H938 0.950 . S
C936 C935 1.387 . S
C936 C939 1.387 . S
H937 C933 0.950 . S
H938 C935 0.950 . S
C939 C930 1.390 . S
C939 H932 0.950 . S
C939 C936 1.387 . S
C940 C941 1.387 . S
C940 H944 0.950 . S
C940 C949 1.390 . S
C941 C940 1.387 . S
C941 C943 1.387 . S
H942 C949 0.950 . S
C943 C941 1.387 . S
C943 C945 1.390 . S
C943 H947 0.950 . S
H944 C940 0.950 . S
C945 C943 1.390 . S
C945 C946 1.387 . S
C945 H948 0.950 . S
C946 C945 1.387 . S
C946 C949 1.387 . S
H947 C943 0.950 . S
H948 C945 0.950 . S
C949 C940 1.390 . S
C949 H942 0.950 . S
C949 C946 1.387 . S
C950 C951 1.387 . S
C950 H954 0.950 . S
C950 C959 1.390 . S
C951 C950 1.387 . S
C951 C953 1.387 . S
H952 C959 0.950 . S
C953 C951 1.387 . S
C953 C955 1.390 . S
C953 H957 0.950 . S
H954 C950 0.950 . S
C955 C953 1.390 . S
C955 C956 1.387 . S
C955 H958 0.950 . S
C956 C955 1.387 . S
C956 C959 1.387 . S
H957 C953 0.950 . S
H958 C955 0.950 . S
C959 C950 1.390 . S
C959 H952 0.950 . S
C959 C956 1.387 . S
C960 C961 1.387 . S
C960 H964 0.950 . S
C960 C969 1.390 . S
C961 C960 1.387 . S
C961 C963 1.387 . S
H962 C969 0.950 . S
C963 C961 1.387 . S
C963 C965 1.390 . S
C963 H967 0.950 1_556 S
H964 C960 0.950 . S
C965 C963 1.390 . S
C965 C966 1.387 . S
C965 H968 0.950 . S
C966 C965 1.387 . S
C966 C969 1.387 . S
H967 C963 0.950 1_554 S
H968 C965 0.950 . S
C969 C960 1.390 . S
C969 H962 0.950 . S
C969 C966 1.387 . S
C970 C971 1.387 . S
C970 H974 0.950 . S
C970 C979 1.390 . S
C971 C970 1.387 . S
C971 C973 1.387 . S
H972 C979 0.950 . S
C973 C971 1.387 . S
C973 C975 1.390 . S
C973 H977 0.950 . S
H974 C970 0.950 . S
C975 C973 1.390 . S
C975 C976 1.387 . S
C975 H978 0.950 . S
C976 C975 1.387 . S
C976 C979 1.387 . S
H977 C973 0.950 . S
H978 C975 0.950 . S
C979 C970 1.390 . S
C979 H972 0.950 . S
C979 C976 1.387 . S
C980 C981 1.387 . S
C980 H984 0.950 . S
C980 C989 1.390 . S
C981 C980 1.387 . S
C981 C983 1.387 . S
H982 C989 0.950 . S
C983 C981 1.387 . S
C983 C985 1.390 . S
C983 H987 0.950 . S
H984 C980 0.950 . S
C985 C983 1.390 . S
C985 C986 1.387 . S
C985 H988 0.950 . S
C986 C985 1.387 . S
C986 C989 1.387 . S
H987 C983 0.950 . S
H988 C985 0.950 . S
C989 C980 1.390 . S
C989 H982 0.950 . S
C989 C986 1.387 . S
C990 C991 1.387 . S
C990 H994 0.950 . S
C990 C999 1.390 . S
C991 C990 1.387 . S
C991 C993 1.387 . S
H992 C999 0.950 . S
C993 C991 1.387 . S
C993 C995 1.390 . S
C993 H997 0.950 . S
H994 C990 0.950 . S
C995 C993 1.390 . S
C995 C996 1.387 . S
C995 H998 0.950 . S
C996 C995 1.387 . S
C996 C999 1.387 . S
H997 C993 0.950 . S
H998 C995 0.950 . S
C999 C990 1.390 . S
C999 H992 0.950 . S
C999 C996 1.387 . S
C1000 C1001 1.387 . S
C1000 H1004 0.950 . S
C1000 C1009 1.390 . S
C1001 C1000 1.387 . S
C1001 C1003 1.387 . S
H1002 C1009 0.950 1_556 S
C1003 C1001 1.387 . S
C1003 C1005 1.390 . S
C1003 H1007 0.950 . S
H1004 C1000 0.950 . S
C1005 C1003 1.390 . S
C1005 C1006 1.387 . S
C1005 H1008 0.950 . S
C1006 C1005 1.387 . S
C1006 C1009 1.387 . S
H1007 C1003 0.950 . S
H1008 C1005 0.950 . S
C1009 C1000 1.390 . S
C1009 H1002 0.950 1_554 S
C1009 C1006 1.387 . S
C1010 C1011 1.387 . S
C1010 H1014 0.950 . S
C1010 C1019 1.390 . S
C1011 C1010 1.387 . S
C1011 C1013 1.387 . S
H1012 C1019 0.950 . S
C1013 C1011 1.387 . S
C1013 C1015 1.390 . S
C1013 H1017 0.950 . S
H1014 C1010 0.950 . S
C1015 C1013 1.390 . S
C1015 C1016 1.387 . S
C1015 H1018 0.950 . S
C1016 C1015 1.387 . S
C1016 C1019 1.387 . S
H1017 C1013 0.950 . S
H1018 C1015 0.950 . S
C1019 C1010 1.390 . S
C1019 H1012 0.950 . S
C1019 C1016 1.387 . S
C1020 C1021 1.387 . S
C1020 H1024 0.950 . S
C1020 C1029 1.390 . S
C1021 C1020 1.387 . S
C1021 C1023 1.387 . S
H1022 C1029 0.950 . S
C1023 C1021 1.387 . S
C1023 C1025 1.390 . S
C1023 H1027 0.950 . S
H1024 C1020 0.950 . S
C1025 C1023 1.390 . S
C1025 C1026 1.387 . S
C1025 H1028 0.950 . S
C1026 C1025 1.387 . S
C1026 C1029 1.387 . S
H1027 C1023 0.950 . S
H1028 C1025 0.950 . S
C1029 C1020 1.390 . S
C1029 H1022 0.950 . S
C1029 C1026 1.387 . S
C1030 C1031 1.387 . S
C1030 H1034 0.950 . S
C1030 C1039 1.390 . S
C1031 C1030 1.387 . S
C1031 C1033 1.387 . S
H1032 C1039 0.950 . S
C1033 C1031 1.387 . S
C1033 C1035 1.390 . S
C1033 H1037 0.950 . S
H1034 C1030 0.950 . S
C1035 C1033 1.390 . S
C1035 C1036 1.387 . S
C1035 H1038 0.950 . S
C1036 C1035 1.387 . S
C1036 C1039 1.387 . S
H1037 C1033 0.950 . S
H1038 C1035 0.950 . S
C1039 C1030 1.390 . S
C1039 H1032 0.950 . S
C1039 C1036 1.387 . S
C1040 C1041 1.387 . S
C1040 H1044 0.950 . S
C1040 C1049 1.390 . S
C1041 C1040 1.387 . S
C1041 C1043 1.387 . S
H1042 C1049 0.950 . S
C1043 C1041 1.387 . S
C1043 C1045 1.390 . S
C1043 H1047 0.950 . S
H1044 C1040 0.950 . S
C1045 C1043 1.390 . S
C1045 C1046 1.387 . S
C1045 H1048 0.950 . S
C1046 C1045 1.387 . S
C1046 C1049 1.387 . S
H1047 C1043 0.950 . S
H1048 C1045 0.950 . S
C1049 C1040 1.390 . S
C1049 H1042 0.950 . S
C1049 C1046 1.387 . S
C1050 C1051 1.387 . S
C1050 H1054 0.950 . S
C1050 C1059 1.390 . S
C1051 C1050 1.387 . S
C1051 C1053 1.387 . S
H1052 C1059 0.950 1_545 S
C1053 C1051 1.387 . S
C1053 C1055 1.390 . S
C1053 H1057 0.950 . S
H1054 C1050 0.950 . S
C1055 C1053 1.390 . S
C1055 C1056 1.387 . S
C1055 H1058 0.950 . S
C1056 C1055 1.387 . S
C1056 C1059 1.387 . S
H1057 C1053 0.950 . S
H1058 C1055 0.950 . S
C1059 C1050 1.390 . S
C1059 H1052 0.950 1_565 S
C1059 C1056 1.387 . S
C1060 C1061 1.387 . S
C1060 H1064 0.950 . S
C1060 C1069 1.390 . S
C1061 C1060 1.387 . S
C1061 C1063 1.387 . S
H1062 C1069 0.950 . S
C1063 C1061 1.387 . S
C1063 C1065 1.390 . S
C1063 H1067 0.950 . S
H1064 C1060 0.950 . S
C1065 C1063 1.390 . S
C1065 C1066 1.387 . S
C1065 H1068 0.950 . S
C1066 C1065 1.387 . S
C1066 C1069 1.387 . S
H1067 C1063 0.950 . S
H1068 C1065 0.950 . S
C1069 C1060 1.390 . S
C1069 H1062 0.950 . S
C1069 C1066 1.387 . S
C1070 C1071 1.387 . S
C1070 H1074 0.950 1_545 S
C1070 C1079 1.390 . S
C1071 C1070 1.387 . S
C1071 C1073 1.387 . S
H1072 C1079 0.950 . S
C1073 C1071 1.387 . S
C1073 C1075 1.390 . S
C1073 H1077 0.950 . S
H1074 C1070 0.950 1_565 S
C1075 C1073 1.390 . S
C1075 C1076 1.387 . S
C1075 H1078 0.950 . S
C1076 C1075 1.387 . S
C1076 C1079 1.387 . S
H1077 C1073 0.950 . S
H1078 C1075 0.950 . S
C1079 C1070 1.390 . S
C1079 H1072 0.950 . S
C1079 C1076 1.387 . S
C1080 C1081 1.387 . S
C1080 H1084 0.950 . S
C1080 C1089 1.390 . S
C1081 C1080 1.387 . S
C1081 C1083 1.387 . S
H1082 C1089 0.950 . S
C1083 C1081 1.387 . S
C1083 C1085 1.390 . S
C1083 H1087 0.950 . S
H1084 C1080 0.950 . S
C1085 C1083 1.390 . S
C1085 C1086 1.387 . S
C1085 H1088 0.950 . S
C1086 C1085 1.387 . S
C1086 C1089 1.387 . S
H1087 C1083 0.950 . S
H1088 C1085 0.950 . S
C1089 C1080 1.390 . S
C1089 H1082 0.950 . S
C1089 C1086 1.387 . S
C1090 C1091 1.387 . S
C1090 H1094 0.950 . S
C1090 C1099 1.390 . S
C1091 C1090 1.387 . S
C1091 C1093 1.387 . S
H1092 C1099 0.950 1_565 S
C1093 C1091 1.387 . S
C1093 C1095 1.390 . S
C1093 H1097 0.950 . S
H1094 C1090 0.950 . S
C1095 C1093 1.390 . S
C1095 C1096 1.387 . S
C1095 H1098 0.950 . S
C1096 C1095 1.387 . S
C1096 C1099 1.387 . S
H1097 C1093 0.950 . S
H1098 C1095 0.950 . S
C1099 C1090 1.390 . S
C1099 H1092 0.950 1_545 S
C1099 C1096 1.387 . S
C1100 C1101 1.387 . S
C1100 H1104 0.950 . S
C1100 C1109 1.390 . S
C1101 C1100 1.387 . S
C1101 C1103 1.387 . S
H1102 C1109 0.950 . S
C1103 C1101 1.387 . S
C1103 C1105 1.390 . S
C1103 H1107 0.950 . S
H1104 C1100 0.950 . S
C1105 C1103 1.390 . S
C1105 C1106 1.387 . S
C1105 H1108 0.950 1_554 S
C1106 C1105 1.387 . S
C1106 C1109 1.387 . S
H1107 C1103 0.950 . S
H1108 C1105 0.950 1_556 S
C1109 C1100 1.390 . S
C1109 H1102 0.950 . S
C1109 C1106 1.387 . S
C1110 C1111 1.387 . S
C1110 H1114 0.950 . S
C1110 C1119 1.390 . S
C1111 C1110 1.387 . S
C1111 C1113 1.387 . S
H1112 C1119 0.950 1_545 S
C1113 C1111 1.387 . S
C1113 C1115 1.390 . S
C1113 H1117 0.950 . S
H1114 C1110 0.950 . S
C1115 C1113 1.390 . S
C1115 C1116 1.387 . S
C1115 H1118 0.950 . S
C1116 C1115 1.387 . S
C1116 C1119 1.387 . S
H1117 C1113 0.950 . S
H1118 C1115 0.950 . S
C1119 C1110 1.390 . S
C1119 H1112 0.950 1_565 S
C1119 C1116 1.387 . S
C641 C10 3.032 . S
C646 C410 3.032 . S
C651 C50 3.032 . S
C656 C450 3.032 . S
C661 C90 3.033 . S
C666 C330 3.033 . S
C671 C370 3.033 . S
C676 C130 3.033 . S
C681 C179 3.033 . S
C686 C579 3.033 . S
C691 C619 3.032 . S
C696 C219 3.032 . S
C701 C499 3.033 . S
C706 C259 3.033 . S
C711 C299 3.033 . S
C716 C539 3.033 . S
C721 C16 1.455 1_556 S
C726 C167 1.455 1_554 S
C731 C56 1.455 . S
C736 C527 1.455 . S
C741 C96 1.455 . S
C746 C247 1.455 . S
C751 C136 1.450 . S
C756 C607 1.450 . S
C761 C207 1.450 . S
C766 C376 1.450 . S
C771 C456 1.454 . S
C776 C287 1.454 . S
C781 C487 1.450 . S
C786 C336 1.450 . S
C791 C416 1.455 1_556 S
C796 C567 1.455 1_554 S
C801 C7 1.603 . S
C806 C290 1.889 . S
C811 C47 1.603 . S
C816 C490 1.889 . S
C821 C87 1.608 . S
C826 C210 1.892 . S
C831 C127 1.604 . S
C836 C570 1.889 . S
C841 C139 1.889 . S
C846 C176 1.604 . S
C851 C216 1.608 . S
C856 C339 1.893 . S
C861 C256 1.607 . S
C866 C59 1.892 . S
C871 C419 1.889 . S
C876 C296 1.604 . S
C881 C327 1.609 . S
C886 C610 1.892 . S
C891 C170 1.893 . S
C896 C367 1.608 . S
C901 C530 1.889 . S
C906 C407 1.604 . S
C911 C250 1.893 . S
C916 C447 1.608 . S
C921 C496 1.607 . S
C926 C459 1.891 . S
C931 C536 1.604 . S
C936 C19 1.889 . S
C941 C379 1.889 . S
C946 C576 1.604 . S
C951 C616 1.608 . S
C956 C99 1.893 . S
C961 C11 4.054 1_556 S
C966 C362 4.092 . S
C971 C402 4.094 . S
C976 C51 4.055 . S
C981 C91 4.055 . S
C986 C442 4.093 . S
C991 C322 4.092 . S
C996 C131 4.054 . S
C1001 C531 4.092 . S
C1006 C162 4.054 1_554 S
C1011 C571 4.094 . S
C1016 C202 4.055 . S
C1021 C611 4.092 . S
C1026 C242 4.054 . S
C1031 C491 4.093 . S
C1036 C282 4.055 . S
C1041 C42 4.092 . S
C1046 C331 4.054 . S
C1051 C82 4.093 . S
C1056 C371 4.055 1_565 S
C1061 C122 4.092 . S
C1066 C411 4.054 1_556 S
C1071 C451 4.055 1_545 S
C1076 C2 4.094 . S
C1081 C211 4.093 . S
C1086 C482 4.055 . S
C1091 C251 4.092 . S
C1096 C522 4.054 1_545 S
C1101 C291 4.093 . S
C1106 C562 4.055 1_554 S
C1111 C171 4.092 . S
C1116 C602 4.054 1_565 S
