# Generated by pormake.
# Topology uou, (4)-cn, num edge types: 1
# Building blocks:
#     Node 0, Type 0, BuildingBlock: ICAMEG_clean_sbu_1, # of connection points: 4
#     Node 1, Type 0, BuildingBlock: ICAMEG_clean_sbu_1, # of connection points: 4
#     Node 2, Type 0, BuildingBlock: ICAMEG_clean_sbu_1, # of connection points: 4
#     Node 3, Type 0, BuildingBlock: ICAMEG_clean_sbu_1, # of connection points: 4
#     Node 4, Type 0, BuildingBlock: ICAMEG_clean_sbu_1, # of connection points: 4
#     Node 5, Type 0, BuildingBlock: ICAMEG_clean_sbu_1, # of connection points: 4
#     Node 6, Type 0, BuildingBlock: ICAMEG_clean_sbu_1, # of connection points: 4
#     Node 7, Type 0, BuildingBlock: ICAMEG_clean_sbu_1, # of connection points: 4
#     Node 8, Type 0, BuildingBlock: ICAMEG_clean_sbu_1, # of connection points: 4
#     Node 9, Type 0, BuildingBlock: ICAMEG_clean_sbu_1, # of connection points: 4
#     Node 10, Type 0, BuildingBlock: ICAMEG_clean_sbu_1, # of connection points: 4
#     Node 11, Type 0, BuildingBlock: ICAMEG_clean_sbu_1, # of connection points: 4
#     Node 12, Type 0, BuildingBlock: ICAMEG_clean_sbu_1, # of connection points: 4
#     Node 13, Type 0, BuildingBlock: ICAMEG_clean_sbu_1, # of connection points: 4
#     Node 14, Type 0, BuildingBlock: ICAMEG_clean_sbu_1, # of connection points: 4
#     Node 15, Type 0, BuildingBlock: ICAMEG_clean_sbu_1, # of connection points: 4
#     Edge 16, Type (0, 0), BuildingBlock: CIFDUS_clean_linker_0, # of connection points: 2
#     Edge 17, Type (0, 0), BuildingBlock: CIFDUS_clean_linker_0, # of connection points: 2
#     Edge 18, Type (0, 0), BuildingBlock: CIFDUS_clean_linker_0, # of connection points: 2
#     Edge 19, Type (0, 0), BuildingBlock: CIFDUS_clean_linker_0, # of connection points: 2
#     Edge 20, Type (0, 0), BuildingBlock: CIFDUS_clean_linker_0, # of connection points: 2
#     Edge 21, Type (0, 0), BuildingBlock: CIFDUS_clean_linker_0, # of connection points: 2
#     Edge 22, Type (0, 0), BuildingBlock: CIFDUS_clean_linker_0, # of connection points: 2
#     Edge 23, Type (0, 0), BuildingBlock: CIFDUS_clean_linker_0, # of connection points: 2
#     Edge 24, Type (0, 0), BuildingBlock: CIFDUS_clean_linker_0, # of connection points: 2
#     Edge 25, Type (0, 0), BuildingBlock: CIFDUS_clean_linker_0, # of connection points: 2
#     Edge 26, Type (0, 0), BuildingBlock: CIFDUS_clean_linker_0, # of connection points: 2
#     Edge 27, Type (0, 0), BuildingBlock: CIFDUS_clean_linker_0, # of connection points: 2
#     Edge 28, Type (0, 0), BuildingBlock: CIFDUS_clean_linker_0, # of connection points: 2
#     Edge 29, Type (0, 0), BuildingBlock: CIFDUS_clean_linker_0, # of connection points: 2
#     Edge 30, Type (0, 0), BuildingBlock: CIFDUS_clean_linker_0, # of connection points: 2
#     Edge 31, Type (0, 0), BuildingBlock: CIFDUS_clean_linker_0, # of connection points: 2
#     Edge 32, Type (0, 0), BuildingBlock: CIFDUS_clean_linker_0, # of connection points: 2
#     Edge 33, Type (0, 0), BuildingBlock: CIFDUS_clean_linker_0, # of connection points: 2
#     Edge 34, Type (0, 0), BuildingBlock: CIFDUS_clean_linker_0, # of connection points: 2
#     Edge 35, Type (0, 0), BuildingBlock: CIFDUS_clean_linker_0, # of connection points: 2
#     Edge 36, Type (0, 0), BuildingBlock: CIFDUS_clean_linker_0, # of connection points: 2
#     Edge 37, Type (0, 0), BuildingBlock: CIFDUS_clean_linker_0, # of connection points: 2
#     Edge 38, Type (0, 0), BuildingBlock: CIFDUS_clean_linker_0, # of connection points: 2
#     Edge 39, Type (0, 0), BuildingBlock: CIFDUS_clean_linker_0, # of connection points: 2
#     Edge 40, Type (0, 0), BuildingBlock: CIFDUS_clean_linker_0, # of connection points: 2
#     Edge 41, Type (0, 0), BuildingBlock: CIFDUS_clean_linker_0, # of connection points: 2
#     Edge 42, Type (0, 0), BuildingBlock: CIFDUS_clean_linker_0, # of connection points: 2
#     Edge 43, Type (0, 0), BuildingBlock: CIFDUS_clean_linker_0, # of connection points: 2
#     Edge 44, Type (0, 0), BuildingBlock: CIFDUS_clean_linker_0, # of connection points: 2
#     Edge 45, Type (0, 0), BuildingBlock: CIFDUS_clean_linker_0, # of connection points: 2
#     Edge 46, Type (0, 0), BuildingBlock: CIFDUS_clean_linker_0, # of connection points: 2
#     Edge 47, Type (0, 0), BuildingBlock: CIFDUS_clean_linker_0, # of connection points: 2
# Relax obj value: 0.027
# Max RMSD: 0.081
# Mean RMSD: 0.081
data_MOF--net-uou--node1-ICAMEG_clean_sbu_1--edge1-CIFDUS_clean_linker_0
_symmetry_space_group_name_H-M    P1
_symmetry_Int_Tables_number       1
_symmetry_cell_setting            triclinic
loop_
_symmetry_equiv_pos_as_xyz
'x, y, z'
_cell_length_a     36.612659
_cell_length_b     35.240064
_cell_length_c     51.339579
_cell_angle_alpha  90.029561
_cell_angle_beta   89.831187
_cell_angle_gamma 89.976692
loop_
_atom_site_label
_atom_site_type_symbol
_atom_site_fract_x
_atom_site_fract_y
_atom_site_fract_z
_atom_type_partial_charge
Co0 Co 0.05447 0.06331 0.13239 0.0
Co1 Co 0.13119 0.11252 0.1522 0.0
O2 O 0.10742 0.07193 0.13244 0.0
C3 C 0.03679 0.05968 0.07607 0.0
O4 O 0.01197 0.08577 0.08074 0.0
C5 C 0.17394 0.04333 0.16718 0.0
O6 O 0.14321 0.02448 0.16975 0.0
O7 O 0.10473 0.09697 0.18475 0.0
O8 O 0.0502 0.07741 0.17 0.0
H9 H 0.13365 0.2223 0.21462 0.0
H10 H 0.10372 1.0029 0.11262 0.0
O11 O 0.05779 0.04866 0.09442 0.0
H12 H 0.03831 0.94559 0.1869 0.0
H13 H 0.93997 0.99042 0.11068 0.0
H14 H 0.9901 0.10428 0.15344 0.0
H15 H 0.0255 0.01147 0.17363 0.0
H16 H 1.00636 1.00219 0.11098 0.0
O17 O 0.17333 0.07826 0.16094 0.0
H18 H 0.10485 0.17128 0.18897 0.0
H19 H 0.20822 0.13946 0.15815 0.0
H20 H 0.92355 0.09362 0.15363 0.0
H21 H 0.11702 0.93676 0.12504 0.0
H22 H 0.89806 0.03634 0.13211 0.0
H23 H 0.08429 0.90772 0.16249 0.0
O24 O 0.0454 0.11752 0.12284 0.0
H25 H 0.20215 0.08846 0.06991 0.0
H26 H 0.14761 0.18656 0.12634 0.0
H27 H 0.17874 0.20562 0.08576 0.0
H28 H 0.20643 0.15634 0.05726 0.0
H29 H 0.17025 0.07072 0.1105 0.0
H30 H 0.23817 0.18981 0.18369 0.0
H31 H 0.20078 0.2318 0.21207 0.0
O32 O 0.09086 0.14856 0.1432 0.0
C33 C 0.07142 0.08733 0.18844 0.0
C34 C 0.15022 0.20425 0.20227 0.0
C35 C 0.20889 0.18597 0.18495 0.0
N36 N 0.15477 0.15254 0.17197 0.0
C37 C 0.13405 0.17538 0.18765 0.0
C38 C 0.19178 0.15739 0.17061 0.0
C39 C 0.18789 0.20954 0.20085 0.0
C40 C 0.08902 0.99033 0.12873 0.0
N41 N 0.06368 0.01099 0.14225 0.0
C42 C 0.09682 0.95292 0.13576 0.0
C43 C 0.0785 0.93667 0.15681 0.0
C44 C 0.05272 0.95792 0.17052 0.0
C45 C 0.04567 0.99527 0.16296 0.0
C46 C 0.95073 0.01551 0.12009 0.0
C47 C 0.97922 0.07936 0.14397 0.0
C48 C 0.9883 0.02234 0.12031 0.0
N49 N 1.00211 0.05403 0.1321 0.0
C50 C 0.94151 0.07344 0.14417 0.0
C51 C 0.92724 0.04129 0.13211 0.0
C52 C 0.06092 0.14803 0.13049 0.0
C53 C 0.1901 0.11019 0.08212 0.0
C54 C 0.15902 0.16498 0.11384 0.0
C55 C 0.17689 0.17592 0.09098 0.0
C56 C 0.19247 0.14827 0.07502 0.0
N57 N 0.15668 0.12758 0.12064 0.0
C58 C 0.172 0.10032 0.10513 0.0
Co59 Co 0.50348 0.94458 0.13239 0.0
Co60 Co 0.42252 0.90045 0.14761 0.0
O61 O 0.44991 0.94188 0.13113 0.0
C62 C 0.49327 0.95722 0.07491 0.0
O63 O 0.47615 0.92461 0.07283 0.0
C64 C 0.38114 0.96976 0.16525 0.0
O65 O 0.41201 0.98769 0.16936 0.0
O66 O 0.44735 0.91068 0.18174 0.0
O67 O 0.5045 0.92178 0.16789 0.0
H68 H 0.40963 0.78402 0.20331 0.0
H69 H 0.46114 0.0138 0.11953 0.0
O70 O 0.50462 0.96854 0.09698 0.0
H71 H 0.53044 0.04609 0.19871 0.0
H72 H 0.62548 0.0068 0.11682 0.0
H73 H 0.56252 0.89329 0.15052 0.0
H74 H 0.53657 0.9829 0.17855 0.0
H75 H 0.55829 1.00277 0.11614 0.0
O76 O 0.3814 0.93569 0.15706 0.0
H77 H 0.44291 0.8362 0.1818 0.0
H78 H 0.34397 0.87708 0.14912 0.0
H79 H 0.62974 0.89623 0.15176 0.0
H80 H 0.45455 0.07752 0.13888 0.0
H81 H 0.6617 0.95331 0.1348 0.0
H82 H 0.48927 0.09396 0.17882 0.0
O83 O 0.50776 0.89243 0.11725 0.0
H84 H 0.36023 0.93884 0.06467 0.0
H85 H 0.40458 0.83092 0.11672 0.0
H86 H 0.37635 0.81894 0.07398 0.0
H87 H 0.35383 0.87319 0.04764 0.0
H88 H 0.38909 0.94944 0.1074 0.0
H89 H 0.30958 0.82564 0.17055 0.0
H90 H 0.34247 0.77852 0.19776 0.0
O91 O 0.46157 0.86308 0.13796 0.0
C92 C 0.48166 0.91395 0.18583 0.0
C93 C 0.395 0.80433 0.19146 0.0
C94 C 0.33885 0.82773 0.17311 0.0
N95 N 0.39546 0.85961 0.16414 0.0
C96 C 0.41371 0.8339 0.17918 0.0
C97 C 0.35846 0.85691 0.16112 0.0
C98 C 0.35732 0.80128 0.18836 0.0
C99 C 0.47662 0.02087 0.13675 0.0
N100 N 0.4993 0.99469 0.14782 0.0
C101 C 0.47266 0.05694 0.14769 0.0
C102 C 0.4921 0.06613 0.17012 0.0
C103 C 0.51518 0.03927 0.1813 0.0
C104 C 0.51844 1.00348 0.16984 0.0
C105 C 0.61188 0.98175 0.12423 0.0
C106 C 0.57618 0.91823 0.14314 0.0
C107 C 0.57382 0.97923 0.12381 0.0
N108 N 0.55642 0.94775 0.13324 0.0
C109 C 0.61428 0.91973 0.14387 0.0
C110 C 0.63219 0.95175 0.13434 0.0
C111 C 0.49089 0.8624 0.12443 0.0
C112 C 0.37 0.91496 0.07593 0.0
C113 C 0.39536 0.85463 0.10524 0.0
C114 C 0.37913 0.84769 0.08112 0.0
C115 C 0.36645 0.87813 0.06638 0.0
N116 N 0.39886 0.89081 0.11446 0.0
C117 C 0.38634 0.92078 0.10015 0.0
Co118 Co 0.52696 0.94484 0.3911 0.0
Co119 Co 0.60494 0.89789 0.37096 0.0
O120 O 0.58031 0.93851 0.39057 0.0
C121 C 0.5419 0.94564 0.44847 0.0
O122 O 0.56051 0.91393 0.44616 0.0
C123 C 0.64732 0.96729 0.35494 0.0
O124 O 0.61681 0.98668 0.35313 0.0
O125 O 0.57808 0.91201 0.33828 0.0
O126 O 0.52339 0.92946 0.35398 0.0
H127 H 0.60965 0.78699 0.30951 0.0
H128 H 0.57419 0.00773 0.40918 0.0
O129 O 0.52823 0.96134 0.42844 0.0
H130 H 0.50428 0.06029 0.33559 0.0
H131 H 0.40951 0.01119 0.41475 0.0
H132 H 0.46438 0.90095 0.37022 0.0
H133 H 0.49467 0.99423 0.34984 0.0
H134 H 0.47636 1.00305 0.41334 0.0
O135 O 0.64653 0.9325 0.36149 0.0
H136 H 0.57983 0.83801 0.33467 0.0
H137 H 0.68238 0.87186 0.36542 0.0
H138 H 0.39741 0.90813 0.37098 0.0
H139 H 0.58438 0.0741 0.39576 0.0
H140 H 0.36953 0.96357 0.39339 0.0
H141 H 0.54934 0.10075 0.35866 0.0
O142 O 0.51978 0.89069 0.40167 0.0
H143 H 0.67495 0.92574 0.45276 0.0
H144 H 0.62229 0.82493 0.39798 0.0
H145 H 0.65314 0.80776 0.43893 0.0
H146 H 0.67984 0.85841 0.46663 0.0
H147 H 0.6434 0.94156 0.4118 0.0
H148 H 0.71333 0.82149 0.34036 0.0
H149 H 0.67688 0.77849 0.31225 0.0
O150 O 0.5654 0.86124 0.38033 0.0
C151 C 0.54432 0.92025 0.33519 0.0
C152 C 0.62582 0.80549 0.32173 0.0
C153 C 0.68401 0.8249 0.33901 0.0
N154 N 0.62929 0.85782 0.35158 0.0
C155 C 0.60908 0.83439 0.33607 0.0
C156 C 0.66634 0.85348 0.35307 0.0
C157 C 0.66354 0.80076 0.32326 0.0
C158 C 0.55861 0.01924 0.39317 0.0
N159 N 0.5338 0.99716 0.38037 0.0
C160 C 0.5646 0.05679 0.3856 0.0
C161 C 0.54497 0.0717 0.36475 0.0
C162 C 0.51971 0.049 0.35178 0.0
C163 C 0.51448 0.01157 0.35988 0.0
C164 C 0.42132 0.98688 0.40496 0.0
C165 C 0.45248 0.92516 0.38 0.0
C166 C 0.45917 0.98203 0.40419 0.0
N167 N 0.47431 0.95147 0.39178 0.0
C168 C 0.41453 0.92907 0.38037 0.0
C169 C 0.39891 0.96017 0.39296 0.0
C170 C 0.53577 0.8607 0.39346 0.0
C171 C 0.66336 0.90341 0.4409 0.0
C172 C 0.63334 0.84709 0.41009 0.0
C173 C 0.65104 0.83722 0.43317 0.0
C174 C 0.66607 0.86564 0.44868 0.0
N175 N 0.63066 0.88419 0.40262 0.0
C176 C 0.64549 0.91219 0.41767 0.0
Co177 Co 0.97969 0.05099 0.37669 0.0
Co178 Co 0.90152 0.10133 0.36206 0.0
O179 O 0.92659 0.05855 0.37881 0.0
C180 C 0.97062 0.04502 0.43472 0.0
O181 O 0.95533 0.07873 0.43524 0.0
C182 C 0.85637 0.03394 0.34615 0.0
O183 O 0.8863 0.01427 0.34207 0.0
O184 O 0.92539 0.08911 0.32773 0.0
O185 O 0.98122 0.07056 0.34027 0.0
H186 H 0.89516 0.21732 0.30542 0.0
H187 H 0.93264 0.987 0.39336 0.0
O188 O 0.98034 0.03032 0.41312 0.0
H189 H 0.99564 0.94207 0.31411 0.0
H190 H 0.09681 0.97949 0.39221 0.0
H191 H 0.04189 0.09542 0.35555 0.0
H192 H 1.00768 0.00607 0.33148 0.0
H193 H 0.03021 0.98952 0.39409 0.0
O194 O 0.85842 0.06842 0.35332 0.0
H195 H 0.92547 0.16368 0.32739 0.0
H196 H 0.82429 0.12924 0.36044 0.0
H197 H 0.10858 0.08642 0.35304 0.0
H198 H 0.92011 0.92259 0.37681 0.0
H199 H 0.13648 0.02809 0.37148 0.0
H200 H 0.95164 0.8998 0.33685 0.0
O201 O 0.98871 0.10356 0.38973 0.0
H202 H 0.8384 0.06861 0.44612 0.0
H203 H 0.8864 0.17258 0.3918 0.0
H204 H 0.85914 0.18732 0.4346 0.0
H205 H 0.83479 0.13507 0.46207 0.0
H206 H 0.86638 0.05521 0.40335 0.0
H207 H 0.79284 0.18219 0.33857 0.0
H208 H 0.82836 0.22682 0.31094 0.0
O209 O 0.94266 0.13634 0.37139 0.0
C210 C 0.95884 0.08125 0.32282 0.0
C211 C 0.8794 0.19812 0.31746 0.0
C212 C 0.82196 0.17836 0.33602 0.0
N213 N 0.87674 0.14343 0.34528 0.0
C214 C 0.89643 0.16775 0.33 0.0
C215 C 0.83991 0.14831 0.34826 0.0
C216 C 0.84191 0.2034 0.32054 0.0
C217 C 0.94674 0.97713 0.37612 0.0
N218 N 0.97094 1.00022 0.36347 0.0
C219 C 0.93942 0.94069 0.36677 0.0
C220 C 0.95707 0.92795 0.34433 0.0
C221 C 0.98174 0.95167 0.33154 0.0
C222 C 0.98835 0.98794 0.34143 0.0
C223 C 0.08499 1.00505 0.38413 0.0
C224 C 0.0538 0.06997 0.36359 0.0
C225 C 0.04729 0.01096 0.38522 0.0
N226 N 0.03213 0.04309 0.37495 0.0
C227 C 0.0916 0.06503 0.36213 0.0
C228 C 0.10723 0.03231 0.37248 0.0
C229 C 0.97287 0.13467 0.38375 0.0
C230 C 0.84904 0.09161 0.43439 0.0
C231 C 0.87647 0.1497 0.40383 0.0
C232 C 0.86075 0.15822 0.42795 0.0
C233 C 0.84704 0.1289 0.44333 0.0
N234 N 0.87856 0.11307 0.39525 0.0
C235 C 0.86493 0.0842 0.41015 0.0
Co236 Co 0.97873 0.95022 0.88341 0.0
Co237 Co 0.90049 0.89867 0.87023 0.0
O238 O 0.92604 0.94114 0.88667 0.0
C239 C 1.00187 0.95761 0.93867 0.0
O240 O 0.0269 0.93188 0.93365 0.0
C241 C 0.85732 0.96607 0.85317 0.0
O242 O 0.88806 0.9839 0.84829 0.0
O243 O 0.92361 0.91061 0.83584 0.0
O244 O 0.97889 0.93383 0.84607 0.0
H245 H 0.89205 0.7826 0.81375 0.0
H246 H 0.93083 0.01131 0.90393 0.0
O247 O 0.97923 0.96722 0.92096 0.0
H248 H 0.98756 0.06444 0.82473 0.0
H249 H 0.09443 0.02533 0.89666 0.0
H250 H 0.041 0.90869 0.85985 0.0
H251 H 1.00264 0.99966 0.83926 0.0
H252 H 0.02833 0.01293 0.90044 0.0
O253 O 0.85785 0.93218 0.86167 0.0
H254 H 0.92328 0.83599 0.83537 0.0
H255 H 0.82306 0.87167 0.86934 0.0
H256 H 0.10722 0.91995 0.85561 0.0
H257 H 0.91532 0.07638 0.89024 0.0
H258 H 0.13436 0.97863 0.87411 0.0
H259 H 0.94368 0.10332 0.85033 0.0
O260 O 0.9896 0.89684 0.89411 0.0
H261 H 0.83712 0.93171 0.95416 0.0
H262 H 0.88707 0.82773 0.9006 0.0
H263 H 0.85983 0.81318 0.94343 0.0
H264 H 0.83447 0.86543 0.9705 0.0
H265 H 0.8651 0.94494 0.91134 0.0
H266 H 0.7907 0.81895 0.84786 0.0
H267 H 0.82527 0.77384 0.81993 0.0
O268 O 0.94156 0.86361 0.87906 0.0
C269 C 0.95579 0.92143 0.82958 0.0
C270 C 0.87671 0.802 0.82593 0.0
C271 C 0.81981 0.82244 0.84504 0.0
N272 N 0.87509 0.85677 0.85374 0.0
C273 C 0.89426 0.83221 0.83828 0.0
C274 C 0.83827 0.85232 0.85708 0.0
C275 C 0.83923 0.79713 0.82939 0.0
C276 C 0.94364 0.02297 0.88672 0.0
N277 N 0.96781 1.00175 0.87254 0.0
C278 C 0.9346 0.05978 0.87899 0.0
C279 C 0.95046 0.07485 0.85656 0.0
C280 C 0.97506 0.05303 0.84218 0.0
C281 C 0.98341 0.01631 0.85047 0.0
C282 C 0.08294 0.99963 0.88855 0.0
C283 C 0.05262 0.93423 0.86802 0.0
C284 C 0.04554 0.99243 0.89065 0.0
N285 N 0.03083 0.95999 0.88049 0.0
C286 C 0.09013 0.94048 0.86553 0.0
C287 C 0.10533 0.97342 0.8759 0.0
C288 C 0.97316 0.8656 0.88941 0.0
C289 C 0.84816 0.90871 0.94258 0.0
C290 C 0.87663 0.85061 0.91243 0.0
C291 C 0.86097 0.84221 0.93659 0.0
C292 C 0.8467 0.87152 0.95174 0.0
N293 N 0.87805 0.88715 0.9036 0.0
C294 C 0.86402 0.91603 0.91832 0.0
Co295 Co 0.52662 0.06806 0.87922 0.0
Co296 Co 0.60954 0.11099 0.8682 0.0
O297 O 0.57985 0.07035 0.88353 0.0
C298 C 0.53208 0.05739 0.93715 0.0
O299 O 0.55075 0.08907 0.93916 0.0
C300 C 0.65099 0.04106 0.85268 0.0
O301 O 0.62017 0.02399 0.84695 0.0
O302 O 0.58851 0.10031 0.83295 0.0
O303 O 0.52997 0.08887 0.84319 0.0
H304 H 0.63049 0.22596 0.8123 0.0
H305 H 0.56685 0.9993 0.89601 0.0
O306 O 0.52122 0.04593 0.91499 0.0
H307 H 0.5061 0.96338 0.81403 0.0
H308 H 0.40249 0.00793 0.88886 0.0
H309 H 0.47058 0.11917 0.85664 0.0
H310 H 0.49826 0.02758 0.83231 0.0
H311 H 0.46941 0.01128 0.89349 0.0
O312 O 0.6508 0.07491 0.86127 0.0
H313 H 0.59409 0.17472 0.83226 0.0
H314 H 0.68831 0.13305 0.87098 0.0
H315 H 0.40373 0.11684 0.85142 0.0
H316 H 0.57508 0.93463 0.87857 0.0
H317 H 0.36919 0.06091 0.8676 0.0
H318 H 0.54467 0.91635 0.83724 0.0
O319 O 0.52113 0.12089 0.89297 0.0
H320 H 0.6625 0.07353 0.95458 0.0
H321 H 0.62435 0.1809 0.89956 0.0
H322 H 0.64797 0.19335 0.94365 0.0
H323 H 0.66734 0.13938 0.97149 0.0
H324 H 0.63829 0.06245 0.91044 0.0
H325 H 0.72579 0.18355 0.85118 0.0
H326 H 0.69685 0.23059 0.82172 0.0
O327 O 0.57021 0.14911 0.87517 0.0
C328 C 0.555 0.09607 0.82664 0.0
C329 C 0.6434 0.20568 0.82515 0.0
C330 C 0.6969 0.18184 0.84694 0.0
N331 N 0.63898 0.15102 0.85287 0.0
C332 C 0.62291 0.17666 0.83656 0.0
C333 C 0.67555 0.15322 0.85801 0.0
C334 C 0.68064 0.20824 0.83043 0.0
C335 C 0.55324 0.99145 0.87815 0.0
N336 N 0.532 0.01716 0.86526 0.0
C337 C 0.55812 0.95483 0.86831 0.0
C338 C 0.5411 0.94462 0.8451 0.0
C339 C 0.51948 0.971 0.83206 0.0
C340 C 0.51524 0.00736 0.84247 0.0
C341 C 0.41722 0.03247 0.88174 0.0
C342 C 0.4558 0.0947 0.8637 0.0
C343 C 0.45512 0.0346 0.8844 0.0
N344 N 0.47394 0.06542 0.87535 0.0
C345 C 0.41791 0.09356 0.8607 0.0
C346 C 0.39856 0.06219 0.8698 0.0
C347 C 0.53927 0.15051 0.88664 0.0
C348 C 0.6541 0.09728 0.94265 0.0
C349 C 0.63226 0.15731 0.91165 0.0
C350 C 0.64586 0.16452 0.93655 0.0
C351 C 0.65677 0.13423 0.95214 0.0
N352 N 0.62962 0.12101 0.90249 0.0
C353 C 0.64041 0.09119 0.91763 0.0
Co354 Co 0.48679 0.06348 0.63333 0.0
Co355 Co 0.40396 0.10711 0.64526 0.0
O356 O 0.43354 0.06659 0.62975 0.0
C357 C 0.47759 0.05926 0.57598 0.0
O358 O 0.45669 0.08947 0.57769 0.0
C359 C 0.3613 0.04195 0.66815 0.0
O360 O 0.38997 0.0315 0.6817 0.0
O361 O 0.42646 0.09792 0.68028 0.0
O362 O 0.48403 0.08138 0.6701 0.0
H363 H 0.38259 0.22262 0.70067 0.0
H364 H 0.44524 0.9969 0.61431 0.0
O365 O 0.49133 0.04494 0.59648 0.0
H366 H 0.50728 0.95336 0.69403 0.0
H367 H 0.61004 1.00285 0.62003 0.0
H368 H 0.54377 0.11215 0.65715 0.0
H369 H 0.51556 0.01887 0.67822 0.0
H370 H 0.54304 0.00734 0.61627 0.0
O371 O 0.36338 0.07006 0.65264 0.0
H372 H 0.41936 0.17183 0.68045 0.0
H373 H 0.32476 0.12754 0.64362 0.0
H374 H 0.61072 0.10863 0.66157 0.0
H375 H 0.43642 0.93102 0.62933 0.0
H376 H 0.64432 0.05367 0.64291 0.0
H377 H 0.46755 0.9089 0.66948 0.0
O378 O 0.49281 0.11717 0.62159 0.0
H379 H 0.34793 0.06799 0.56018 0.0
H380 H 0.38858 0.17629 0.61349 0.0
H381 H 0.36342 0.18794 0.56973 0.0
H382 H 0.34281 0.13351 0.54275 0.0
H383 H 0.37367 0.05768 0.60396 0.0
H384 H 0.28693 0.17761 0.66367 0.0
H385 H 0.31586 0.22571 0.69233 0.0
O386 O 0.44259 0.14566 0.63755 0.0
C387 C 0.45969 0.09136 0.68652 0.0
C388 C 0.36968 0.20188 0.68816 0.0
C389 C 0.31598 0.17658 0.66742 0.0
N390 N 0.3743 0.14687 0.66074 0.0
C391 C 0.39038 0.17311 0.6766 0.0
C392 C 0.33754 0.14822 0.65619 0.0
C393 C 0.33224 0.20358 0.68349 0.0
C394 C 0.45906 0.98738 0.6317 0.0
N395 N 0.48105 0.01161 0.64527 0.0
C396 C 0.45389 0.95009 0.64015 0.0
C397 C 0.47133 0.93771 0.6627 0.0
C398 C 0.49361 0.96264 0.67649 0.0
C399 C 0.49813 0.99973 0.66746 0.0
C400 C 0.59571 0.02692 0.62826 0.0
C401 C 0.55816 0.08806 0.64908 0.0
C402 C 0.55778 0.02968 0.62612 0.0
N403 N 0.53948 0.05991 0.63658 0.0
C404 C 0.59609 0.08626 0.6516 0.0
C405 C 0.61493 0.05544 0.64111 0.0
C406 C 0.47421 0.14682 0.62707 0.0
C407 C 0.35682 0.09194 0.57174 0.0
C408 C 0.38002 0.15249 0.60179 0.0
C409 C 0.3656 0.15925 0.57707 0.0
C410 C 0.354 0.12871 0.56196 0.0
N411 N 0.38278 0.11637 0.61123 0.0
C412 C 0.37134 0.08629 0.59656 0.0
Co413 Co 0.01293 0.95709 0.63515 0.0
Co414 Co 0.0974 0.91544 0.64291 0.0
O415 O 0.06576 0.95558 0.62934 0.0
C416 C 0.01575 0.96377 0.57711 0.0
O417 O 0.03502 0.93235 0.57625 0.0
C418 C 0.15786 0.9572 0.6687 0.0
O419 O 0.15147 0.93624 0.68937 0.0
O420 O 0.07778 0.92395 0.67908 0.0
O421 O 0.01888 0.93786 0.67142 0.0
H422 H 0.12599 0.80022 0.69674 0.0
H423 H 0.05125 0.02568 0.61584 0.0
O424 O 1.00541 0.97724 0.59895 0.0
H425 H 0.99336 0.0643 0.69857 0.0
H426 H 0.88735 0.01448 0.62785 0.0
H427 H 0.95907 0.90617 0.66056 0.0
H428 H 0.98622 0.99904 0.682 0.0
H429 H 0.95405 0.01207 0.62127 0.0
O430 O 0.13707 0.95438 0.64883 0.0
H431 H 0.08699 0.85133 0.6794 0.0
H432 H 0.17591 0.89393 0.63487 0.0
H433 H 0.89249 0.9076 0.66778 0.0
H434 H 0.05881 0.09136 0.63158 0.0
H435 H 0.85614 0.96205 0.65135 0.0
H436 H 0.02975 0.11102 0.67324 0.0
O437 O 1.00746 0.90377 0.6226 0.0
H438 H 0.14453 0.95811 0.5557 0.0
H439 H 0.11047 0.84748 0.60915 0.0
H440 H 0.1311 0.8377 0.56391 0.0
H441 H 0.14842 0.8933 0.53685 0.0
H442 H 0.12325 0.96657 0.60095 0.0
H443 H 0.21588 0.84333 0.65177 0.0
H444 H 0.19095 0.79601 0.68294 0.0
O445 O 0.05901 0.87592 0.63668 0.0
C446 C 0.04484 0.92906 0.68678 0.0
C447 C 0.13718 0.82068 0.68318 0.0
C448 C 0.18762 0.84486 0.65793 0.0
N449 N 0.12912 0.87563 0.65617 0.0
C450 C 0.11523 0.84969 0.6733 0.0
C451 C 0.16485 0.87345 0.64843 0.0
C452 C 0.17362 0.81833 0.67542 0.0
C453 C 0.03836 0.0341 0.63391 0.0
N454 N 0.01817 0.00863 0.6479 0.0
C455 C 0.04281 0.07129 0.64276 0.0
C456 C 0.02653 0.08229 0.66615 0.0
C457 C 1.00612 0.05609 0.68037 0.0
C458 C 1.00226 0.01914 0.67092 0.0
C459 C 0.90288 0.99061 0.63511 0.0
C460 C 0.94348 0.93004 0.65345 0.0
C461 C 0.94066 0.98902 0.63136 0.0
N462 N 0.96048 0.95904 0.64059 0.0
C463 C 0.90577 0.93065 0.65755 0.0
C464 C 0.88539 0.96119 0.64831 0.0
C465 C 0.02685 0.87437 0.62717 0.0
C466 C 0.13709 0.93365 0.5673 0.0
C467 C 0.11756 0.87179 0.59745 0.0
C468 C 0.12945 0.86609 0.57188 0.0
C469 C 0.13921 0.89729 0.55672 0.0
N470 N 0.11553 0.90753 0.60771 0.0
C471 C 0.12513 0.93825 0.59297 0.0
Co472 Co 0.53146 0.56155 0.13258 0.0
Co473 Co 0.61549 0.60137 0.14285 0.0
O474 O 0.58436 0.56224 0.12745 0.0
C475 C 0.53726 0.55185 0.07479 0.0
O476 O 0.55849 0.58184 0.0737 0.0
C477 C 0.67628 0.55536 0.16576 0.0
O478 O 0.6688 0.56978 0.18877 0.0
O479 O 0.59559 0.58894 0.17842 0.0
O480 O 0.53634 0.5815 0.16879 0.0
H481 H 0.64276 0.71075 0.20247 0.0
H482 H 0.56961 0.49194 0.11488 0.0
O483 O 0.52469 0.54057 0.09659 0.0
H484 H 0.50771 0.45623 0.19672 0.0
H485 H 0.40513 0.5064 0.12403 0.0
H486 H 0.47771 0.61429 0.15641 0.0
H487 H 0.50206 0.52112 0.17926 0.0
H488 H 0.47205 0.5073 0.11852 0.0
O489 O 0.65554 0.56249 0.14642 0.0
H490 H 0.60414 0.66175 0.1821 0.0
H491 H 0.69418 0.62348 0.1368 0.0
H492 H 0.41091 0.61439 0.16255 0.0
H493 H 0.57569 0.42657 0.13153 0.0
H494 H 0.37413 0.56015 0.14628 0.0
H495 H 0.54463 0.40839 0.17275 0.0
O496 O 0.52781 0.61455 0.11931 0.0
H497 H 0.66274 0.56829 0.05366 0.0
H498 H 0.63016 0.67282 0.1131 0.0
H499 H 0.65147 0.68758 0.06868 0.0
H500 H 0.66809 0.63504 0.03861 0.0
H501 H 0.64071 0.5549 0.09812 0.0
H502 H 0.7338 0.67189 0.15679 0.0
H503 H 0.7081 0.71602 0.18985 0.0
O504 O 0.57675 0.64138 0.13819 0.0
C505 C 0.56198 0.58634 0.18518 0.0
C506 C 0.65428 0.69167 0.18809 0.0
C507 C 0.70538 0.66986 0.16247 0.0
N508 N 0.64686 0.6397 0.15832 0.0
C509 C 0.63254 0.66387 0.17649 0.0
C510 C 0.68282 0.64244 0.15126 0.0
C511 C 0.69094 0.69461 0.18101 0.0
C512 C 0.55583 0.48415 0.13275 0.0
N513 N 0.53536 0.51025 0.14599 0.0
C514 C 0.55945 0.44714 0.14212 0.0
C515 C 0.54204 0.43697 0.16526 0.0
C516 C 0.52134 0.4638 0.17872 0.0
C517 C 0.51832 0.50053 0.16877 0.0
C518 C 0.42085 0.5302 0.1312 0.0
C519 C 0.46193 0.59053 0.14935 0.0
C520 C 0.45875 0.53094 0.12804 0.0
N521 N 0.47881 0.56081 0.13716 0.0
C522 C 0.4241 0.59077 0.15285 0.0
C523 C 0.40348 0.56035 0.1437 0.0
C524 C 0.54623 0.64366 0.12621 0.0
C525 C 0.65556 0.59144 0.06656 0.0
C526 C 0.63678 0.64986 0.10005 0.0
C527 C 0.64913 0.65836 0.07496 0.0
C528 C 0.65851 0.62888 0.05812 0.0
N529 N 0.63388 0.61308 0.1082 0.0
C530 C 0.64313 0.58404 0.0918 0.0
Co531 Co 1.00679 0.44763 0.13382 0.0
Co532 Co 0.92778 0.40183 0.15355 0.0
O533 O 0.95324 0.44216 0.13415 0.0
C534 C 0.99067 0.44906 0.07692 0.0
O535 O 0.9711 0.41809 0.07972 0.0
C536 C 0.87957 0.47181 0.1593 0.0
O537 O 0.902 0.49244 0.14529 0.0
O538 O 0.95496 0.41529 0.18602 0.0
O539 O 0.0102 0.43176 0.17092 0.0
H540 H 0.92247 0.29037 0.21444 0.0
H541 H 0.96227 0.51248 0.11529 0.0
O542 O 1.00571 0.46434 0.09659 0.0
H543 H 0.03165 0.56174 0.19021 0.0
H544 H 0.12539 0.51172 0.11041 0.0
H545 H 0.06856 0.4022 0.1544 0.0
H546 H 0.03932 0.49547 0.17586 0.0
H547 H 0.0584 0.50491 0.11176 0.0
O548 O 0.88684 0.43722 0.16444 0.0
H549 H 0.95263 0.34093 0.1891 0.0
H550 H 0.84993 0.37768 0.16019 0.0
H551 H 0.13565 0.40806 0.15368 0.0
H552 H 0.95413 0.57913 0.12878 0.0
H553 H 0.16451 0.46313 0.13154 0.0
H554 H 0.98886 0.60413 0.16656 0.0
O555 O 0.01287 0.39369 0.12286 0.0
H556 H 0.86002 0.42817 0.06998 0.0
H557 H 0.90826 0.32881 0.12791 0.0
H558 H 0.87674 0.31043 0.08757 0.0
H559 H 0.8521 0.36029 0.05831 0.0
H560 H 0.89219 0.44523 0.11015 0.0
H561 H 0.81866 0.32777 0.18544 0.0
H562 H 0.855 0.28356 0.21271 0.0
O563 O 0.96664 0.36441 0.14357 0.0
C564 C 0.98873 0.42289 0.18945 0.0
C565 C 0.90635 0.30938 0.20256 0.0
C566 C 0.84808 0.33042 0.18633 0.0
N567 N 0.90313 0.36208 0.17303 0.0
C568 C 0.92328 0.338 0.18811 0.0
C569 C 0.86594 0.35872 0.17214 0.0
C570 C 0.86849 0.30561 0.20161 0.0
C571 C 0.97763 0.5232 0.13167 0.0
N572 N 1.00107 0.5 0.14484 0.0
C573 C 0.97284 0.56094 0.13925 0.0
C574 C 0.9923 0.57493 0.16047 0.0
C575 C 0.01627 0.55115 0.17377 0.0
C576 C 0.02034 0.51356 0.16564 0.0
C577 C 0.11315 0.48759 0.12011 0.0
C578 C 0.08088 0.4263 0.14479 0.0
C579 C 0.07521 0.48351 0.12086 0.0
N580 N 0.05954 0.45318 0.13316 0.0
C581 C 0.1189 0.42944 0.14442 0.0
C582 C 0.13508 0.46033 0.13198 0.0
C583 C 0.9963 0.36377 0.13044 0.0
C584 C 0.87032 0.40615 0.08269 0.0
C585 C 0.8977 0.35074 0.11536 0.0
C586 C 0.8798 0.34012 0.09251 0.0
C587 C 0.86597 0.36809 0.07611 0.0
N588 N 0.90154 0.38815 0.12192 0.0
C589 C 0.88837 0.41569 0.10572 0.0
Co590 Co 0.01692 0.43305 0.39497 0.0
Co591 Co 0.09998 0.3951 0.37914 0.0
O592 O 0.07015 0.43266 0.39752 0.0
C593 C 0.02808 0.43862 0.45219 0.0
O594 O 0.04978 0.409 0.45081 0.0
C595 C 0.15852 0.44389 0.35567 0.0
O596 O 0.14913 0.432 0.33238 0.0
O597 O 0.07722 0.41059 0.34521 0.0
O598 O 0.01884 0.41538 0.35815 0.0
H599 H 0.12267 0.29143 0.31386 0.0
H600 H 0.05577 0.50197 0.41296 0.0
O601 O 0.01311 0.45151 0.43171 0.0
H602 H 0.98682 0.54202 0.3353 0.0
H603 H 0.89118 0.48628 0.41122 0.0
H604 H 0.96157 0.38078 0.3728 0.0
H605 H 0.9833 0.476 0.35101 0.0
H606 H 0.95846 0.48593 0.41322 0.0
O607 O 0.13966 0.43433 0.37556 0.0
H608 H 0.08563 0.33831 0.33791 0.0
H609 H 0.17894 0.37281 0.38079 0.0
H610 H 0.89436 0.38015 0.37017 0.0
H611 H 0.05979 0.5684 0.39807 0.0
H612 H 0.85868 0.43319 0.38948 0.0
H613 H 0.02518 0.58877 0.35895 0.0
O614 O 0.01499 0.37917 0.40666 0.0
H615 H 0.15537 0.41946 0.46704 0.0
H616 H 0.11523 0.32093 0.4053 0.0
H617 H 0.14025 0.30195 0.44785 0.0
H618 H 0.16069 0.35142 0.47905 0.0
H619 H 0.12969 0.43716 0.42442 0.0
H620 H 0.21702 0.32646 0.3571 0.0
H621 H 0.18889 0.28531 0.32338 0.0
O622 O 0.06162 0.3548 0.38356 0.0
C623 C 0.04297 0.41215 0.34036 0.0
C624 C 0.13526 0.30922 0.32849 0.0
C625 C 0.18821 0.32888 0.35275 0.0
N626 N 0.13008 0.35837 0.36069 0.0
C627 C 0.11442 0.33583 0.34218 0.0
C628 C 0.16651 0.35515 0.36606 0.0
C629 C 0.1724 0.3058 0.33384 0.0
C630 C 0.04045 0.5107 0.39603 0.0
N631 N 0.01917 0.4852 0.38298 0.0
C632 C 0.04291 0.54831 0.38764 0.0
C633 C 0.02351 0.55972 0.36568 0.0
C634 C 1.002 0.5335 0.35239 0.0
C635 C 1.00019 0.49613 0.36134 0.0
C636 C 0.90642 0.46303 0.4027 0.0
C637 C 0.94628 0.40406 0.38113 0.0
C638 C 0.94453 0.46262 0.40384 0.0
N639 N 0.96397 0.43344 0.39301 0.0
C640 C 0.9082 0.4035 0.37964 0.0
C641 C 0.8882 0.43324 0.39049 0.0
C642 C 0.0325 0.351 0.39711 0.0
C643 C 0.14662 0.39763 0.4536 0.0
C644 C 0.1237 0.34261 0.41883 0.0
C645 C 0.13805 0.3317 0.44286 0.0
C646 C 0.14955 0.35946 0.46034 0.0
N647 N 0.12096 0.3801 0.41232 0.0
C648 C 0.13216 0.40747 0.42939 0.0
Co649 Co 0.48598 0.56044 0.38019 0.0
Co650 Co 0.40525 0.6061 0.36403 0.0
O651 O 0.43242 0.56537 0.38159 0.0
C652 C 0.47105 0.55867 0.43729 0.0
O653 O 0.45068 0.58902 0.43427 0.0
C654 C 0.35877 0.53517 0.35748 0.0
O655 O 0.3828 0.51434 0.36982 0.0
O656 O 0.43108 0.5949 0.33054 0.0
O657 O 0.48719 0.57664 0.3428 0.0
H658 H 0.39463 0.72063 0.3063 0.0
H659 H 0.44347 0.49485 0.40009 0.0
O660 O 0.48672 0.54368 0.41763 0.0
H661 H 0.50869 0.44711 0.32254 0.0
H662 H 0.60616 0.49727 0.39993 0.0
H663 H 0.54622 0.60626 0.35763 0.0
H664 H 0.51631 0.51341 0.33681 0.0
H665 H 0.5391 0.50375 0.40082 0.0
O666 O 0.36458 0.57036 0.3534 0.0
H667 H 0.42706 0.66936 0.32935 0.0
H668 H 0.32667 0.62883 0.36032 0.0
H669 H 0.61333 0.60072 0.35608 0.0
H670 H 0.43549 0.42816 0.38671 0.0
H671 H 0.64374 0.54591 0.37735 0.0
H672 H 0.46812 0.40393 0.34761 0.0
O673 O 0.49229 0.61425 0.3912 0.0
H674 H 0.34159 0.5734 0.44838 0.0
H675 H 0.38581 0.67715 0.3923 0.0
H676 H 0.35593 0.69242 0.43401 0.0
H677 H 0.33334 0.64033 0.46236 0.0
H678 H 0.37213 0.55945 0.40686 0.0
H679 H 0.29315 0.67941 0.33737 0.0
H680 H 0.32719 0.72588 0.31023 0.0
O681 O 0.44373 0.6439 0.37389 0.0
C682 C 0.46437 0.58677 0.32543 0.0
C683 C 0.37951 0.70063 0.31813 0.0
C684 C 0.32254 0.67745 0.33553 0.0
N685 N 0.37884 0.64629 0.34632 0.0
C686 C 0.39773 0.6716 0.3313 0.0
C687 C 0.34167 0.64878 0.34841 0.0
C688 C 0.34166 0.70353 0.32032 0.0
C689 C 0.45796 0.48446 0.38315 0.0
N690 N 0.48017 0.50809 0.3692 0.0
C691 C 0.45324 0.4467 0.37562 0.0
C692 C 0.47152 0.43313 0.35366 0.0
C693 C 0.49424 0.45736 0.33957 0.0
C694 C 0.49828 0.49496 0.34767 0.0
C695 C 0.59323 0.52127 0.39058 0.0
C696 C 0.55923 0.58225 0.36684 0.0
C697 C 0.55527 0.52515 0.39109 0.0
N698 N 0.53873 0.5553 0.37922 0.0
C699 C 0.59725 0.5793 0.36594 0.0
C700 C 0.6143 0.54856 0.3779 0.0
C701 C 0.47451 0.64427 0.3855 0.0
C702 C 0.35103 0.59638 0.43611 0.0
C703 C 0.37616 0.65428 0.40447 0.0
C704 C 0.35917 0.66313 0.42809 0.0
C705 C 0.34649 0.63391 0.44397 0.0
N706 N 0.38025 0.61739 0.39669 0.0
C707 C 0.36813 0.58862 0.41233 0.0
Co708 Co 0.5004 0.45215 0.87646 0.0
Co709 Co 0.41553 0.41274 0.86914 0.0
O710 O 0.44789 0.45166 0.88342 0.0
C711 C 0.49788 0.46083 0.93431 0.0
O712 O 0.47642 0.43103 0.93554 0.0
C713 C 0.35341 0.45863 0.8484 0.0
O714 O 0.35929 0.44388 0.82526 0.0
O715 O 0.43296 0.42522 0.83298 0.0
O716 O 0.49289 0.43293 0.84024 0.0
H717 H 0.38348 0.30378 0.81038 0.0
H718 H 0.46382 0.52163 0.89602 0.0
O719 O 0.50965 0.47243 0.91237 0.0
H720 H 0.52029 0.55853 0.81247 0.0
H721 H 0.62746 0.50649 0.881 0.0
H722 H 0.55217 0.39942 0.85053 0.0
H723 H 0.52683 0.49331 0.82918 0.0
H724 H 0.56098 0.50587 0.88882 0.0
O725 O 0.37549 0.45178 0.86702 0.0
H726 H 0.4237 0.35261 0.82931 0.0
H727 H 0.33737 0.39076 0.87819 0.0
H728 H 0.61849 0.39904 0.84209 0.0
H729 H 0.45691 0.58731 0.88015 0.0
H730 H 0.65663 0.45287 0.85738 0.0
H731 H 0.48523 0.6061 0.83807 0.0
O732 O 0.50475 0.39893 0.88919 0.0
H733 H 0.37452 0.44583 0.95986 0.0
H734 H 0.4032 0.34126 0.89944 0.0
H735 H 0.38506 0.32655 0.94457 0.0
H736 H 0.37042 0.3791 0.97514 0.0
H737 H 0.39338 0.45919 0.91467 0.0
H738 H 0.29618 0.34249 0.8597 0.0
H739 H 0.31921 0.29852 0.82556 0.0
O740 O 0.45427 0.37255 0.87224 0.0
C741 C 0.46596 0.4282 0.82489 0.0
C742 C 0.37312 0.32279 0.82523 0.0
C743 C 0.32413 0.34452 0.85291 0.0
N744 N 0.38293 0.37458 0.8548 0.0
C745 C 0.39577 0.35049 0.83603 0.0
C746 C 0.34757 0.37184 0.86327 0.0
C747 C 0.33706 0.31985 0.83376 0.0
C748 C 0.47641 0.52967 0.87777 0.0
N749 N 0.49585 0.50372 0.86362 0.0
C750 C 0.47232 0.56686 0.86885 0.0
C751 C 0.48819 0.57738 0.84522 0.0
C752 C 0.50785 0.5507 0.83084 0.0
C753 C 0.51137 0.51378 0.84038 0.0
C754 C 0.61114 0.48289 0.87423 0.0
C755 C 0.56854 0.42301 0.85716 0.0
C756 C 0.57349 0.48231 0.87868 0.0
N757 N 0.55267 0.45269 0.87006 0.0
C758 C 0.6061 0.42261 0.85236 0.0
C759 C 0.62748 0.4528 0.86096 0.0
C760 C 0.48563 0.36999 0.88297 0.0
C761 C 0.38083 0.42268 0.94674 0.0
C762 C 0.39739 0.36424 0.91268 0.0
C763 C 0.38686 0.35576 0.93819 0.0
C764 C 0.37859 0.38524 0.95531 0.0
N765 N 0.3996 0.40101 0.9044 0.0
C766 C 0.39144 0.43006 0.92108 0.0
Co767 Co 0.02519 0.56729 0.89147 0.0
Co768 Co 0.10344 0.6109 0.86872 0.0
O769 O 0.07876 0.57108 0.88907 0.0
C770 C 0.04499 0.56346 0.94775 0.0
O771 O 0.06474 0.5943 0.94493 0.0
C772 C 0.15021 0.54021 0.86147 0.0
O773 O 0.12854 0.5199 0.8763 0.0
O774 O 0.074 0.59751 0.83729 0.0
O775 O 0.01932 0.58466 0.85484 0.0
H776 H 0.10634 0.72193 0.80737 0.0
H777 H 0.06911 0.50036 0.90701 0.0
O778 O 0.02866 0.5491 0.92828 0.0
H779 H 0.99235 0.45626 0.83429 0.0
H780 H 0.90667 0.50612 0.91853 0.0
H781 H 0.96332 0.61558 0.87435 0.0
H782 H 0.98787 0.52216 0.85006 0.0
H783 H 0.97362 0.5108 0.91454 0.0
O784 O 0.1431 0.57492 0.85663 0.0
H785 H 0.07715 0.67189 0.83375 0.0
H786 H 0.18109 0.63394 0.85954 0.0
H787 H 0.89625 0.61188 0.87774 0.0
H788 H 0.07414 0.43403 0.89206 0.0
H789 H 0.86747 0.55685 0.89997 0.0
H790 H 0.03566 0.41163 0.85538 0.0
O791 O 0.02173 0.62098 0.90347 0.0
H792 H 0.17656 0.58413 0.94987 0.0
H793 H 0.12519 0.68382 0.8936 0.0
H794 H 0.1596 0.70199 0.93276 0.0
H795 H 0.18582 0.65195 0.96118 0.0
H796 H 0.14153 0.5673 0.91089 0.0
H797 H 0.21139 0.6833 0.8332 0.0
H798 H 0.17393 0.72786 0.80698 0.0
O799 O 0.06577 0.64895 0.87974 0.0
C800 C 0.03964 0.59198 0.83534 0.0
C801 C 0.12295 0.70275 0.81878 0.0
C802 C 0.18191 0.68102 0.83324 0.0
N803 N 0.12734 0.65016 0.84832 0.0
C804 C 0.10657 0.67442 0.83381 0.0
C805 C 0.16459 0.65303 0.84803 0.0
C806 C 0.16088 0.70603 0.81854 0.0
C807 C 0.05215 0.49078 0.89112 0.0
N808 N 0.02839 0.5152 0.87935 0.0
C809 C 0.05518 0.45321 0.8827 0.0
C810 C 0.03361 0.44067 0.8621 0.0
C811 C 1.00934 0.4657 0.85024 0.0
C812 C 1.00708 0.50307 0.85917 0.0
C813 C 0.91887 0.53024 0.9088 0.0
C814 C 0.95104 0.59148 0.884 0.0
C815 C 0.9568 0.53312 0.90655 0.0
N816 N 0.97242 0.56342 0.89419 0.0
C817 C 0.91302 0.58957 0.88588 0.0
C818 C 0.8969 0.5587 0.89837 0.0
C819 C 0.03775 0.65046 0.89456 0.0
C820 C 0.16557 0.60622 0.93751 0.0
C821 C 0.13644 0.66182 0.90578 0.0
C822 C 0.15598 0.67232 0.92797 0.0
C823 C 0.17068 0.64426 0.94389 0.0
N824 N 0.13187 0.62443 0.8994 0.0
C825 C 0.1459 0.59681 0.91516 0.0
Co826 Co 0.98896 0.57289 0.63172 0.0
Co827 Co 0.90856 0.61345 0.65275 0.0
O828 O 0.93527 0.57446 0.63301 0.0
C829 C 0.97055 0.56466 0.57538 0.0
O830 O 0.94949 0.59475 0.57697 0.0
C831 C 0.86314 0.54152 0.65803 0.0
O832 O 0.88627 0.52207 0.64377 0.0
O833 O 0.93701 0.60062 0.68482 0.0
O834 O 0.99292 0.59235 0.668 0.0
H835 H 0.89998 0.7241 0.71422 0.0
H836 H 0.94843 0.50324 0.61704 0.0
O837 O 0.98736 0.55268 0.59538 0.0
H838 H 0.02445 0.46639 0.69201 0.0
H839 H 0.11063 0.51556 0.60789 0.0
H840 H 0.04836 0.62438 0.64896 0.0
H841 H 0.0267 0.53159 0.67477 0.0
H842 H 0.04344 0.51768 0.61062 0.0
O843 O 0.86931 0.57618 0.66369 0.0
H844 H 0.93164 0.6752 0.68823 0.0
H845 H 0.82988 0.63386 0.66058 0.0
H846 H 0.11561 0.62328 0.64682 0.0
H847 H 0.94566 0.43757 0.63349 0.0
H848 H 0.14722 0.56856 0.62615 0.0
H849 H 0.98378 0.4188 0.6713 0.0
O850 O 0.99047 0.62611 0.61865 0.0
H851 H 0.84092 0.58509 0.56941 0.0
H852 H 0.88459 0.68579 0.6281 0.0
H853 H 0.85139 0.7032 0.58828 0.0
H854 H 0.829 0.65264 0.55864 0.0
H855 H 0.87475 0.56905 0.60904 0.0
H856 H 0.79714 0.68202 0.68653 0.0
H857 H 0.83224 0.72771 0.71349 0.0
O858 O 0.9457 0.65277 0.6425 0.0
C859 C 0.9716 0.59775 0.68725 0.0
C860 C 0.88439 0.70442 0.70249 0.0
C861 C 0.82667 0.68075 0.68699 0.0
N862 N 0.88269 0.65185 0.67275 0.0
C863 C 0.90217 0.67674 0.68766 0.0
C864 C 0.84537 0.65344 0.67242 0.0
C865 C 0.84638 0.7064 0.70209 0.0
C866 C 0.9652 0.49527 0.63344 0.0
N867 N 0.98751 0.52133 0.645 0.0
C868 C 0.96347 0.45805 0.6427 0.0
C869 C 0.98484 0.44755 0.66392 0.0
C870 C 1.00763 0.47424 0.67557 0.0
C871 C 1.00863 0.5112 0.66579 0.0
C872 C 0.09719 0.53957 0.61693 0.0
C873 C 0.06187 0.60044 0.63998 0.0
C874 C 0.05912 0.54101 0.61845 0.0
N875 N 0.04192 0.57116 0.62993 0.0
C876 C 0.09998 0.59999 0.6388 0.0
C877 C 0.11769 0.5693 0.62719 0.0
C878 C 0.97359 0.65512 0.62754 0.0
C879 C 0.85021 0.60739 0.58229 0.0
C880 C 0.87507 0.66356 0.61538 0.0
C881 C 0.85618 0.67363 0.59282 0.0
C882 C 0.84362 0.64528 0.57621 0.0
N883 N 0.88111 0.6263 0.62146 0.0
C884 C 0.86919 0.59842 0.60503 0.0
Co885 Co 0.51722 0.44923 0.62593 0.0
Co886 Co 0.60105 0.4082 0.63737 0.0
O887 O 0.57015 0.44647 0.62086 0.0
C888 C 0.52508 0.44823 0.56833 0.0
O889 O 0.54611 0.41832 0.57114 0.0
C890 C 0.661 0.45513 0.66005 0.0
O891 O 0.65249 0.4417 0.68314 0.0
O892 O 0.58091 0.4224 0.67239 0.0
O893 O 0.52206 0.43514 0.66356 0.0
H894 H 0.62773 0.30205 0.69977 0.0
H895 H 0.55665 0.51449 0.60269 0.0
O896 O 0.51101 0.46399 0.58833 0.0
H897 H 0.49687 0.56504 0.68162 0.0
H898 H 0.39238 0.50609 0.61301 0.0
H899 H 0.46229 0.4024 0.65378 0.0
H900 H 0.4896 0.4978 0.66936 0.0
H901 H 0.45924 0.50232 0.6076 0.0
O902 O 0.64119 0.44706 0.64037 0.0
H903 H 0.58933 0.35006 0.67813 0.0
H904 H 0.67963 0.38552 0.63208 0.0
H905 H 0.39552 0.40528 0.65989 0.0
H906 H 0.56436 0.58203 0.6141 0.0
H907 H 0.36009 0.45741 0.63941 0.0
H908 H 0.53436 0.60769 0.65383 0.0
O909 O 0.5117 0.39451 0.61682 0.0
H910 H 0.65026 0.43625 0.54795 0.0
H911 H 0.61426 0.33515 0.60911 0.0
H912 H 0.63588 0.31799 0.56515 0.0
H913 H 0.65419 0.36877 0.53423 0.0
H914 H 0.62793 0.4521 0.59197 0.0
H915 H 0.71903 0.33803 0.6533 0.0
H916 H 0.6931 0.29583 0.68739 0.0
O917 O 0.56232 0.36833 0.63375 0.0
C918 C 0.54788 0.42843 0.67958 0.0
C919 C 0.63935 0.32027 0.68494 0.0
C920 C 0.69059 0.34046 0.65887 0.0
N921 N 0.63218 0.37059 0.65387 0.0
C922 C 0.61773 0.3475 0.67261 0.0
C923 C 0.66815 0.36734 0.64694 0.0
C924 C 0.67602 0.3168 0.67799 0.0
C925 C 0.54333 0.52552 0.61992 0.0
N926 N 0.52254 0.50229 0.63524 0.0
C927 C 0.54788 0.56375 0.62632 0.0
C928 C 0.53107 0.57812 0.64863 0.0
C929 C 0.51004 0.5542 0.66424 0.0
C930 C 0.50611 0.51613 0.65723 0.0
C931 C 0.40751 0.48325 0.62205 0.0
C932 C 0.4471 0.42528 0.64492 0.0
C933 C 0.44537 0.48091 0.61899 0.0
N934 N 0.46468 0.45226 0.63047 0.0
C935 C 0.40928 0.42671 0.64839 0.0
C936 C 0.38942 0.45594 0.63688 0.0
C937 C 0.53056 0.36572 0.6237 0.0
C938 C 0.64239 0.41386 0.56125 0.0
C939 C 0.62175 0.35738 0.5957 0.0
C940 C 0.63421 0.3475 0.57087 0.0
C941 C 0.64453 0.376 0.55355 0.0
N942 N 0.61967 0.39456 0.60313 0.0
C943 C 0.62984 0.42264 0.58625 0.0
H944 H 0.31358 0.93754 0.1676 0.0
H945 H 0.36799 0.04611 0.16994 0.0
H946 H 0.30876 0.07826 0.17171 0.0
H947 H 0.24152 0.07563 0.17049 0.0
H948 H 0.18731 0.9669 0.16876 0.0
H949 H 0.24652 0.93478 0.16898 0.0
C950 C 0.31258 0.96825 0.1686 0.0
C951 C 0.34535 0.98935 0.16843 0.0
C952 C 0.27842 0.98654 0.16966 0.0
C953 C 0.34334 0.02911 0.17005 0.0
C954 C 0.30943 0.04753 0.17097 0.0
C955 C 0.24258 0.04488 0.1703 0.0
C956 C 0.20984 0.02375 0.16946 0.0
C957 C 0.27678 0.02656 0.17047 0.0
C958 C 0.21191 0.98393 0.16945 0.0
C959 C 0.24582 0.96552 0.16948 0.0
H960 H 0.71348 0.93298 0.34851 0.0
H961 H 0.66266 0.04338 0.35235 0.0
H962 H 0.72266 0.07358 0.34887 0.0
H963 H 0.78968 0.0686 0.3468 0.0
H964 H 0.84038 0.95814 0.34251 0.0
H965 H 0.78021 0.92806 0.34393 0.0
C966 C 0.71542 0.96367 0.34849 0.0
C967 C 0.68345 0.98584 0.35089 0.0
C968 C 0.75003 0.98085 0.34644 0.0
C969 C 0.68666 0.02558 0.35052 0.0
C970 C 0.72102 0.04288 0.34861 0.0
C971 C 0.78766 0.03793 0.34603 0.0
C972 C 0.81972 0.0157 0.3447 0.0
C973 C 0.75292 0.02079 0.34687 0.0
C974 C 0.81633 0.97601 0.34349 0.0
C975 C 0.78188 0.95876 0.34441 0.0
H976 H 0.78971 0.93402 0.85081 0.0
H977 H 0.84461 0.04238 0.84969 0.0
H978 H 0.78561 0.0749 0.84868 0.0
H979 H 0.71857 0.07264 0.85005 0.0
H980 H 0.66342 0.96444 0.85003 0.0
H981 H 0.72247 0.93175 0.84939 0.0
C982 C 0.78881 0.96476 0.85023 0.0
C983 C 0.82163 0.98573 0.85051 0.0
C984 C 0.75476 0.98328 0.84951 0.0
C985 C 0.81988 0.02553 0.84945 0.0
C986 C 0.78611 0.04415 0.84897 0.0
C987 C 0.7194 0.04188 0.84983 0.0
C988 C 0.68654 0.02101 0.85032 0.0
C989 C 0.75341 0.02333 0.8493 0.0
C990 C 0.68822 0.9812 0.84965 0.0
C991 C 0.722 0.9625 0.84938 0.0
H992 H 0.21879 0.94985 0.69876 0.0
H993 H 0.17598 0.01176 0.63308 0.0
H994 H 0.23493 0.04321 0.62715 0.0
H995 H 0.29902 0.0521 0.63992 0.0
H996 H 0.3426 0.98846 0.7046 0.0
H997 H 0.28309 0.95858 0.71144 0.0
C998 C 0.22217 0.97057 0.68333 0.0
C999 C 0.19275 0.97865 0.66654 0.0
C1000 C 0.25646 0.98796 0.67966 0.0
C1001 C 0.19798 0.00511 0.64638 0.0
C1002 C 0.23177 0.02302 0.64292 0.0
C1003 C 0.29561 0.03167 0.65553 0.0
C1004 C 0.32546 0.02258 0.67171 0.0
C1005 C 0.26129 0.01444 0.6593 0.0
C1006 C 0.32032 0.99592 0.69175 0.0
C1007 C 0.28619 0.9789 0.69575 0.0
H1008 H 0.83273 0.50533 0.12606 0.0
H1009 H 0.84311 0.46882 0.2057 0.0
H1010 H 0.78085 0.49111 0.21511 0.0
H1011 H 0.7233 0.52164 0.2004 0.0
H1012 H 0.71205 0.55188 0.11933 0.0
H1013 H 0.77425 0.53104 0.11072 0.0
C1014 C 0.82139 0.50263 0.14552 0.0
C1015 C 0.8426 0.48636 0.16534 0.0
C1016 C 0.78518 0.51401 0.15044 0.0
C1017 C 0.82733 0.4818 0.19027 0.0
C1018 C 0.79173 0.4944 0.19559 0.0
C1019 C 0.73439 0.52333 0.18083 0.0
C1020 C 0.71285 0.53841 0.16061 0.0
C1021 C 0.77031 0.51057 0.1758 0.0
C1022 C 0.72769 0.54018 0.1353 0.0
C1023 C 0.76348 0.52851 0.13033 0.0
H1024 H 0.3168 0.4943 0.39032 0.0
H1025 H 0.3177 0.54332 0.31353 0.0
H1026 H 0.25563 0.51949 0.30576 0.0
H1027 H 0.20084 0.48426 0.32113 0.0
H1028 H 0.199 0.44138 0.39989 0.0
H1029 H 0.26115 0.4635 0.40664 0.0
C1030 C 0.30346 0.49939 0.3718 0.0
C1031 C 0.32194 0.51971 0.35229 0.0
C1032 C 0.26735 0.48703 0.36795 0.0
C1033 C 0.30406 0.52726 0.32868 0.0
C1034 C 0.26857 0.51376 0.3243 0.0
C1035 C 0.214 0.48005 0.3398 0.0
C1036 C 0.19511 0.46111 0.35991 0.0
C1037 C 0.24984 0.49362 0.34383 0.0
C1038 C 0.21257 0.4561 0.38407 0.0
C1039 C 0.24834 0.46852 0.38795 0.0
H1040 H 0.19994 0.50887 0.89349 0.0
H1041 H 0.1824 0.54058 0.81353 0.0
H1042 H 0.24407 0.51857 0.80206 0.0
H1043 H 0.30319 0.48987 0.81508 0.0
H1044 H 0.32164 0.46429 0.89623 0.0
H1045 H 0.25996 0.48475 0.90695 0.0
C1046 C 0.20959 0.51052 0.87351 0.0
C1047 C 0.18656 0.52535 0.85422 0.0
C1048 C 0.24548 0.49935 0.86736 0.0
C1049 C 0.19962 0.52864 0.82858 0.0
C1050 C 0.23488 0.51624 0.82208 0.0
C1051 C 0.29378 0.48912 0.83512 0.0
C1052 C 0.31719 0.47548 0.85475 0.0
C1053 C 0.25815 0.50158 0.84134 0.0
C1054 C 0.30452 0.47489 0.88067 0.0
C1055 C 0.26904 0.48633 0.88686 0.0
H1056 H 0.7061 0.48927 0.69563 0.0
H1057 H 0.69866 0.4589 0.61433 0.0
H1058 H 0.76102 0.48046 0.60712 0.0
H1059 H 0.81844 0.50703 0.62377 0.0
H1060 H 0.82492 0.5433 0.70372 0.0
H1061 H 0.76261 0.52014 0.7117 0.0
C1062 C 0.71805 0.48769 0.67631 0.0
C1063 C 0.69756 0.47241 0.6556 0.0
C1064 C 0.75403 0.50077 0.67212 0.0
C1065 C 0.7135 0.47077 0.63064 0.0
C1066 C 0.74937 0.48284 0.62648 0.0
C1067 C 0.80627 0.50942 0.643 0.0
C1068 C 0.82639 0.52592 0.66332 0.0
C1069 C 0.77002 0.49754 0.64709 0.0
C1070 C 0.81002 0.53012 0.68793 0.0
C1071 C 0.77439 0.51705 0.69243 0.0
H1072 H 0.03006 0.0854 0.30807 0.0
H1073 H 0.92089 0.08434 0.27656 0.0
H1074 H 0.94622 0.08604 0.2323 0.0
H1075 H 0.99945 0.08625 0.20273 0.0
H1076 H 0.10835 0.08959 0.23479 0.0
H1077 H 0.08282 0.08851 0.27883 0.0
C1078 C 0.01162 0.08555 0.2916 0.0
C1079 C 0.97347 0.0844 0.29577 0.0
C1080 C 0.02636 0.08683 0.26632 0.0
C1081 C 0.95026 0.08517 0.27403 0.0
C1082 C 0.96478 0.08603 0.24871 0.0
C1083 C 0.01771 0.08672 0.2193 0.0
C1084 C 0.05594 0.08768 0.21531 0.0
C1085 C 1.0028 0.08657 0.24463 0.0
C1086 C 0.07895 0.08878 0.23716 0.0
C1087 C 0.06434 0.08813 0.26238 0.0
H1088 H 0.448 0.92581 0.23283 0.0
H1089 H 0.55046 0.89173 0.19834 0.0
H1090 H 0.579 0.89006 0.24105 0.0
H1091 H 0.57596 0.90089 0.28837 0.0
H1092 H 0.47354 0.93635 0.32264 0.0
H1093 H 0.44449 0.93483 0.28031 0.0
C1094 C 0.4764 0.91754 0.23474 0.0
C1095 C 0.49696 0.90911 0.21235 0.0
C1096 C 0.49303 0.91723 0.25947 0.0
C1097 C 0.53393 0.89873 0.21519 0.0
C1098 C 0.55041 0.89777 0.23966 0.0
C1099 C 0.54732 0.9083 0.2866 0.0
C1100 C 0.52734 0.91896 0.30886 0.0
C1101 C 0.53043 0.90753 0.26196 0.0
C1102 C 0.49002 0.92821 0.30601 0.0
C1103 C 0.47313 0.9273 0.2817 0.0
H1104 H 0.97737 0.91851 0.70751 0.0
H1105 H 0.09044 0.93118 0.72939 0.0
H1106 H 0.07285 0.92966 0.77551 0.0
H1107 H 0.02493 0.92699 0.80946 0.0
H1108 H 0.91223 0.91256 0.78681 0.0
H1109 H 0.93029 0.9126 0.74102 0.0
C1110 C 0.99834 0.92088 0.72228 0.0
C1111 C 0.03524 0.92531 0.71487 0.0
C1112 C 0.98805 0.91982 0.74863 0.0
C1113 C 0.06189 0.92775 0.73444 0.0
C1114 C 0.0518 0.92703 0.76083 0.0
C1115 C 1.00426 0.9238 0.79455 0.0
C1116 C 0.96712 0.92007 0.80172 0.0
C1117 C 0.01489 0.92347 0.76814 0.0
C1118 C 0.94092 0.91554 0.782 0.0
C1119 C 0.95123 0.9156 0.75577 0.0
H1120 H 0.52931 0.09262 0.70505 0.0
H1121 H 0.41676 0.09885 0.73022 0.0
H1122 H 0.43674 0.10236 0.77559 0.0
H1123 H 0.48578 0.10142 0.8079 0.0
H1124 H 0.59838 0.09592 0.78282 0.0
H1125 H 0.57852 0.09476 0.73732 0.0
C1126 C 0.509 0.09481 0.72038 0.0
C1127 C 0.47144 0.09514 0.71411 0.0
C1128 C 0.52068 0.097 0.74637 0.0
C1129 C 0.44575 0.09843 0.73437 0.0
C1130 C 0.45718 0.1004 0.76033 0.0
C1131 C 0.50615 0.10009 0.79256 0.0
C1132 C 0.54365 0.09845 0.7989 0.0
C1133 C 0.49454 0.09937 0.76653 0.0
C1134 C 0.56944 0.0972 0.7786 0.0
C1135 C 0.55806 0.09639 0.75258 0.0
H1136 H 0.49355 0.5965 0.20433 0.0
H1137 H 0.60512 0.58092 0.22912 0.0
H1138 H 0.58476 0.57989 0.27471 0.0
H1139 H 0.53478 0.58128 0.30728 0.0
H1140 H 0.42365 0.59783 0.28147 0.0
H1141 H 0.44458 0.60038 0.23639 0.0
C1142 C 0.51365 0.59293 0.2196 0.0
C1143 C 0.55093 0.58849 0.21313 0.0
C1144 C 0.50176 0.59232 0.24561 0.0
C1145 C 0.57633 0.5844 0.23341 0.0
C1146 C 0.56464 0.58365 0.25949 0.0
C1147 C 0.51506 0.58547 0.29184 0.0
C1148 C 0.4775 0.58908 0.29795 0.0
C1149 C 0.52733 0.5872 0.2658 0.0
C1150 C 0.45259 0.59484 0.27754 0.0
C1151 C 0.46455 0.59631 0.25168 0.0
H1152 H 0.07956 0.42595 0.29448 0.0
H1153 H 0.97456 0.39243 0.3253 0.0
H1154 H 0.94873 0.39234 0.28188 0.0
H1155 H 0.95474 0.4037 0.23507 0.0
H1156 H 0.05927 0.43791 0.20375 0.0
H1157 H 0.08597 0.43577 0.24704 0.0
C1158 C 0.05116 0.41832 0.29162 0.0
C1159 C 0.02915 0.40953 0.31326 0.0
C1160 C 0.03604 0.41869 0.26638 0.0
C1161 C 0.99225 0.39978 0.30914 0.0
C1162 C 0.97729 0.39966 0.28423 0.0
C1163 C 0.98334 0.41073 0.23767 0.0
C1164 C 1.00465 0.42122 0.21605 0.0
C1165 C 0.99874 0.40952 0.26272 0.0
C1166 C 0.04187 0.42994 0.21993 0.0
C1167 C 0.05735 0.42867 0.24476 0.0
H1168 H 0.47983 0.43025 0.70177 0.0
H1169 H 0.59439 0.42345 0.72124 0.0
H1170 H 0.57877 0.42205 0.76749 0.0
H1171 H 0.53312 0.42362 0.80226 0.0
H1172 H 0.41838 0.42918 0.78334 0.0
H1173 H 0.43374 0.42985 0.73685 0.0
C1174 C 0.5015 0.42848 0.71606 0.0
C1175 C 0.53839 0.42722 0.70783 0.0
C1176 C 0.49231 0.42735 0.74271 0.0
C1177 C 0.56586 0.4246 0.72682 0.0
C1178 C 0.55693 0.42378 0.75333 0.0
C1179 C 0.51127 0.42492 0.78809 0.0
C1180 C 0.4745 0.42657 0.79649 0.0
C1181 C 0.52029 0.42526 0.76147 0.0
C1182 C 0.44683 0.4279 0.77759 0.0
C1183 C 0.45564 0.4284 0.75097 0.0
H1184 H 0.07128 0.60271 0.78751 0.0
H1185 H 0.96666 0.5863 0.82497 0.0
H1186 H 0.93622 0.58849 0.78304 0.0
H1187 H 0.93897 0.59308 0.73527 0.0
H1188 H 0.04379 0.60806 0.69788 0.0
H1189 H 0.0739 0.60856 0.73993 0.0
C1190 C 0.04183 0.59967 0.78653 0.0
C1191 C 0.02156 0.59415 0.8095 0.0
C1192 C 0.02424 0.60069 0.76221 0.0
C1193 C 0.98328 0.5904 0.80772 0.0
C1194 C 0.96565 0.59168 0.78367 0.0
C1195 C 0.96833 0.59674 0.73634 0.0
C1196 C 0.98889 0.60034 0.71332 0.0
C1197 C 0.98583 0.59656 0.76073 0.0
C1198 C 0.02707 0.60494 0.71517 0.0
C1199 C 0.04448 0.60525 0.73928 0.0
H1200 H 0.09314 0.21657 0.12306 0.0
H1201 H 0.98757 0.16286 0.12773 0.0
H1202 H 0.95797 0.22511 0.12694 0.0
H1203 H 0.96273 0.29474 0.12874 0.0
H1204 H 0.06834 0.34804 0.12118 0.0
H1205 H 0.09743 0.28575 0.11911 0.0
C1206 C 0.06368 0.21835 0.12364 0.0
C1207 C 0.0427 0.18503 0.12594 0.0
C1208 C 0.04692 0.25415 0.1228 0.0
C1209 C 1.00443 0.18797 0.12614 0.0
C1210 C 0.98749 0.2236 0.12578 0.0
C1211 C 0.99204 0.29284 0.12629 0.0
C1212 C 0.0133 0.32618 0.1255 0.0
C1213 C 1.00855 0.2569 0.12471 0.0
C1214 C 0.05127 0.32299 0.122 0.0
C1215 C 0.06796 0.28733 0.12089 0.0
H1216 H 0.45538 0.79508 0.11998 0.0
H1217 H 0.56327 0.84401 0.11765 0.0
H1218 H 0.59009 0.78042 0.11779 0.0
H1219 H 0.58249 0.71128 0.12257 0.0
H1220 H 0.47437 0.66268 0.12007 0.0
H1221 H 0.44787 0.72613 0.11784 0.0
C1222 C 0.48472 0.79203 0.11901 0.0
C1223 C 0.50719 0.82449 0.1193 0.0
C1224 C 0.49987 0.75544 0.11852 0.0
C1225 C 0.54525 0.81969 0.11773 0.0
C1226 C 0.56061 0.78327 0.1179 0.0
C1227 C 0.5532 0.71437 0.12107 0.0
C1228 C 0.53053 0.68203 0.12182 0.0
C1229 C 0.53815 0.75097 0.11894 0.0
C1230 C 0.49254 0.68689 0.11975 0.0
C1231 C 0.47733 0.72323 0.11847 0.0
H1232 H 0.43991 0.71223 0.39255 0.0
H1233 H 0.54688 0.6607 0.39121 0.0
H1234 H 0.57506 0.72312 0.39535 0.0
H1235 H 0.56936 0.79218 0.39566 0.0
H1236 H 0.46291 0.84428 0.39971 0.0
H1237 H 0.43432 0.78149 0.39857 0.0
C1238 C 0.46935 0.71454 0.39345 0.0
C1239 C 0.49121 0.68172 0.39119 0.0
C1240 C 0.48542 0.75056 0.39627 0.0
C1241 C 0.52936 0.68536 0.39277 0.0
C1242 C 0.54552 0.7211 0.39508 0.0
C1243 C 0.53995 0.78997 0.39671 0.0
C1244 C 0.51838 0.82306 0.39741 0.0
C1245 C 0.52383 0.75388 0.39632 0.0
C1246 C 0.48022 0.81939 0.39906 0.0
C1247 C 0.46386 0.78346 0.39827 0.0
H1248 H 0.06737 0.28341 0.38961 0.0
H1249 H 0.96259 0.3311 0.41046 0.0
H1250 H 0.93542 0.26788 0.40955 0.0
H1251 H 0.94064 0.19996 0.39976 0.0
H1252 H 0.0458 0.1515 0.38186 0.0
H1253 H 0.07396 0.21424 0.38534 0.0
C1254 C 0.03873 0.28007 0.3944 0.0
C1255 C 0.01704 0.31223 0.39982 0.0
C1256 C 0.02339 0.24352 0.39432 0.0
C1257 C 0.97996 0.30704 0.40606 0.0
C1258 C 0.96436 0.27086 0.40551 0.0
C1259 C 0.9697 0.20301 0.39677 0.0
C1260 C 0.99089 0.17117 0.38998 0.0
C1261 C 0.98567 0.23904 0.39915 0.0
C1262 C 0.02879 0.17552 0.3869 0.0
C1263 C 0.04487 0.21145 0.38879 0.0
H1264 H 0.07129 0.71922 0.89053 0.0
H1265 H 0.96785 0.66741 0.90979 0.0
H1266 H 0.93924 0.72997 0.91154 0.0
H1267 H 0.94263 0.79858 0.90372 0.0
H1268 H 0.04645 0.85081 0.88676 0.0
H1269 H 0.07619 0.78868 0.88845 0.0
C1270 C 0.04263 0.72151 0.89553 0.0
C1271 C 0.0217 0.68845 0.89965 0.0
C1272 C 0.02644 0.7576 0.89679 0.0
C1273 C 0.98462 0.69221 0.90635 0.0
C1274 C 0.9682 0.72802 0.90729 0.0
C1275 C 0.97178 0.7965 0.90065 0.0
C1276 C 0.99213 0.82925 0.89463 0.0
C1277 C 0.98867 0.76078 0.90191 0.0
C1278 C 0.0301 0.82608 0.89127 0.0
C1279 C 0.04708 0.79052 0.89213 0.0
H1280 H 0.44888 0.30261 0.88561 0.0
H1281 H 0.55737 0.35029 0.88913 0.0
H1282 H 0.58325 0.28657 0.89189 0.0
H1283 H 0.57518 0.21771 0.89044 0.0
H1284 H 0.46678 0.16976 0.89102 0.0
H1285 H 0.44056 0.23363 0.89008 0.0
C1286 C 0.47812 0.29928 0.88746 0.0
C1287 C 0.50107 0.33144 0.88702 0.0
C1288 C 0.49279 0.26257 0.88977 0.0
C1289 C 0.53898 0.32623 0.88935 0.0
C1290 C 0.55383 0.28975 0.89091 0.0
C1291 C 0.54582 0.22103 0.89086 0.0
C1292 C 0.52306 0.18877 0.89052 0.0
C1293 C 0.53101 0.25775 0.89078 0.0
C1294 C 0.48501 0.19393 0.89117 0.0
C1295 C 0.47 0.23049 0.89052 0.0
H1296 H 0.43873 0.21436 0.62235 0.0
H1297 H 0.54669 0.16513 0.62249 0.0
H1298 H 0.57361 0.22855 0.62103 0.0
H1299 H 0.5663 0.29778 0.62265 0.0
H1300 H 0.45834 0.34681 0.61921 0.0
H1301 H 0.43153 0.28335 0.61898 0.0
C1302 C 0.46814 0.21733 0.62169 0.0
C1303 C 0.49059 0.18485 0.62275 0.0
C1304 C 0.48341 0.25383 0.62044 0.0
C1305 C 0.5287 0.18949 0.62173 0.0
C1306 C 0.54413 0.2258 0.621 0.0
C1307 C 0.53694 0.29475 0.62147 0.0
C1308 C 0.51444 0.32723 0.62109 0.0
C1309 C 0.52173 0.25816 0.62079 0.0
C1310 C 0.47639 0.32246 0.61954 0.0
C1311 C 0.46101 0.28614 0.61947 0.0
H1312 H 0.06251 0.80753 0.61867 0.0
H1313 H 0.95444 0.85505 0.62689 0.0
H1314 H 0.92826 0.79134 0.62669 0.0
H1315 H 0.93672 0.72223 0.62776 0.0
H1316 H 0.04405 0.67479 0.61551 0.0
H1317 H 0.06991 0.73861 0.61341 0.0
C1318 C 0.0332 0.80412 0.62001 0.0
C1319 C 0.0106 0.8362 0.62317 0.0
C1320 C 0.01824 0.76741 0.6193 0.0
C1321 C 0.97258 0.83101 0.62462 0.0
C1322 C 0.95756 0.79452 0.62457 0.0
C1323 C 0.96566 0.72572 0.62425 0.0
C1324 C 0.98842 0.69358 0.62226 0.0
C1325 C 0.98022 0.76251 0.62247 0.0
C1326 C 0.02588 0.69887 0.61737 0.0
C1327 C 0.04072 0.73542 0.61621 0.0
H1328 H 0.05243 0.95259 0.97757 0.0
H1329 H 0.95358 0.01136 0.95591 0.0
H1330 H 0.95657 0.049 0.99576 0.0
H1331 H 0.98709 0.06541 0.0368 0.0
H1332 H 0.08569 0.00647 0.05873 0.0
H1333 H 0.08307 0.96914 0.01867 0.0
C1334 C 0.03138 0.97345 0.9816 0.0
C1335 C 1.00273 0.97891 0.9637 0.0
C1336 C 0.03338 0.9953 1.00455 0.0
C1337 C 0.9759 0.00636 0.96928 0.0
C1338 C 0.97764 0.02805 0.99207 0.0
C1339 C 1.00822 0.04464 0.03276 0.0
C1340 C 0.03665 0.03899 0.0508 0.0
C1341 C 1.00632 0.02289 0.0098 0.0
C1342 C 0.06355 0.01161 0.04523 0.0
C1343 C 0.062 0.9901 0.02233 0.0
H1344 H 0.54327 0.07479 0.98856 0.0
H1345 H 0.49949 0.98779 0.93832 0.0
H1346 H 0.4828 0.94974 0.97607 0.0
H1347 H 0.4808 0.94048 0.02356 0.0
H1348 H 0.52441 0.02756 0.07382 0.0
H1349 H 0.54065 0.06584 0.03608 0.0
C1350 C 0.53014 0.0475 0.98586 0.0
C1351 C 0.52273 0.03437 0.96053 0.0
C1352 C 0.52039 0.02557 1.00776 0.0
C1353 C 0.50555 0.99886 0.95751 0.0
C1354 C 0.49593 0.97693 0.97914 0.0
C1355 C 0.49369 0.96789 0.02628 0.0
C1356 C 0.50137 0.98087 0.05159 0.0
C1357 C 0.50317 0.98996 1.00439 0.0
C1358 C 0.5182 0.01657 0.05463 0.0
C1359 C 0.52758 0.03862 0.03301 0.0
H1360 H 0.52115 0.99802 0.56568 0.0
H1361 H 0.45341 0.08203 0.52815 0.0
H1362 H 0.46815 0.05478 0.48568 0.0
H1363 H 0.49993 0.00738 0.45924 0.0
H1364 H 0.56717 0.92258 0.4963 0.0
H1365 H 0.55311 0.95017 0.53895 0.0
C1366 C 0.50954 0.0104 0.54824 0.0
C1367 C 0.48615 0.04214 0.5502 0.0
C1368 C 0.51814 0.99456 0.52379 0.0
C1369 C 0.47145 0.05769 0.52731 0.0
C1370 C 0.47991 0.04213 0.50297 0.0
C1371 C 0.51166 0.99484 0.47658 0.0
C1372 C 0.53464 0.96283 0.47445 0.0
C1373 C 0.50322 0.01062 0.50099 0.0
C1374 C 0.54944 0.94715 0.49727 0.0
C1375 C 0.54135 0.96291 0.52169 0.0
H1376 H 0.02395 0.93942 0.52685 0.0
H1377 H 0.98303 0.03315 0.57258 0.0
H1378 H 0.9645 0.06603 0.53298 0.0
H1379 H 0.96038 0.06878 0.4851 0.0
H1380 H 1.00074 0.97452 0.43957 0.0
H1381 H 0.01862 0.94153 0.47916 0.0
C1382 C 0.01105 0.96706 0.52818 0.0
C1383 C 1.00506 0.98369 0.55275 0.0
C1384 C 1.00015 0.98585 0.50526 0.0
C1385 C 0.98806 0.01952 0.55399 0.0
C1386 C 0.97738 0.03843 0.53131 0.0
C1387 C 0.97289 0.04094 0.48383 0.0
C1388 C 0.97923 0.0244 0.45926 0.0
C1389 C 0.98329 0.02192 0.5068 0.0
C1390 C 0.99554 0.9882 0.45811 0.0
C1391 C 1.00589 0.9692 0.4808 0.0
H1392 H 0.55722 0.56699 0.02439 0.0
H1393 H 0.49442 0.48869 0.07117 0.0
H1394 H 0.47678 0.45383 0.03226 0.0
H1395 H 0.47867 0.44535 0.98474 0.0
H1396 H 0.54144 0.52354 0.93787 0.0
H1397 H 0.55936 0.55829 0.97682 0.0
C1398 C 0.5397 0.5423 0.02609 0.0
C1399 C 0.52719 0.5307 0.05078 0.0
C1400 C 0.52952 0.52218 1.00352 0.0
C1401 C 0.5045 0.4985 0.0525 0.0
C1402 C 0.49433 0.47842 0.0302 0.0
C1403 C 0.49629 0.46996 0.98302 0.0
C1404 C 0.50863 0.48164 0.95831 0.0
C1405 C 0.5066 0.48999 1.00558 0.0
C1406 C 0.53146 0.51372 0.95657 0.0
C1407 C 0.54179 0.53372 0.97888 0.0
H1408 H 0.03313 0.51003 0.06496 0.0
H1409 H 0.96229 0.42639 0.03005 0.0
H1410 H 0.97362 0.45403 0.9871 0.0
H1411 H 1.00345 0.50178 0.95961 0.0
H1412 H 0.0742 0.58551 0.99451 0.0
H1413 H 0.06324 0.55758 0.03743 0.0
C1414 C 0.02006 0.49776 0.04801 0.0
C1415 C 0.99681 0.46608 0.05081 0.0
C1416 C 0.02681 0.51369 0.02338 0.0
C1417 C 0.98026 0.45069 0.02853 0.0
C1418 C 0.98677 0.46648 1.00394 0.0
C1419 C 0.0166 0.51399 0.97655 0.0
C1420 C 0.03964 0.54584 0.97376 0.0
C1421 C 0.01002 0.49793 1.00116 0.0
C1422 C 0.05638 0.56108 0.99602 0.0
C1423 C 0.05006 0.54514 0.02059 0.0
H1424 H 0.01307 0.50272 0.56656 0.0
H1425 H 0.94113 0.58141 0.52762 0.0
H1426 H 0.95251 0.54906 0.48619 0.0
H1427 H 0.98358 0.4992 0.46108 0.0
H1428 H 0.05582 0.42094 0.50016 0.0
H1429 H 0.04361 0.45268 0.54162 0.0
C1430 C 0.99977 0.51291 0.54906 0.0
C1431 C 0.97631 0.54464 0.55025 0.0
C1432 C 1.00658 0.49433 0.52535 0.0
C1433 C 0.95932 0.55717 0.52731 0.0
C1434 C 0.96586 0.53869 0.50361 0.0
C1435 C 0.99669 0.48897 0.47864 0.0
C1436 C 0.02065 0.45764 0.47745 0.0
C1437 C 0.98957 0.50737 0.5024 0.0
C1438 C 0.03729 0.44491 0.50046 0.0
C1439 C 0.03031 0.46306 0.52419 0.0
H1440 H 0.4816 0.50843 0.55552 0.0
H1441 H 0.55293 0.42398 0.52171 0.0
H1442 H 0.54211 0.4503 0.47844 0.0
H1443 H 0.51297 0.49751 0.45014 0.0
H1444 H 0.44176 0.58217 0.48377 0.0
H1445 H 0.45196 0.55543 0.52707 0.0
C1446 C 0.49478 0.4957 0.5387 0.0
C1447 C 0.51806 0.46416 0.54198 0.0
C1448 C 0.48848 0.51102 0.51378 0.0
C1449 C 0.53484 0.44816 0.51987 0.0
C1450 C 0.52869 0.46323 0.49506 0.0
C1451 C 0.49958 0.51016 0.4669 0.0
C1452 C 0.47665 0.54195 0.46359 0.0
C1453 C 0.50562 0.49468 0.49178 0.0
C1454 C 0.45959 0.55779 0.48564 0.0
C1455 C 0.46542 0.5425 0.51045 0.0
loop_
_geom_bond_atom_site_label_1
_geom_bond_atom_site_label_2
_geom_bond_distance
_geom_bond_site_symmetry_2
_ccdc_geom_bond_type
Co0 O2 2.143 . S
Co0 O8 2.074 . S
Co0 O11 2.093 . S
Co0 O24 2.097 . S
Co0 N41 2.151 1_545 S
Co0 N49 2.214 1_455 S
Co1 O2 2.160 . S
Co1 O7 2.058 . S
Co1 O17 2.057 . S
Co1 O32 2.037 . S
Co1 N36 2.145 . S
Co1 N57 2.257 . S
O2 Co0 2.143 . S
O2 Co1 2.160 . S
C3 O4 1.278 . S
C3 O11 1.224 . S
O4 C3 1.278 . S
C5 O6 1.245 . S
C5 O17 1.232 . S
O6 C5 1.245 . S
O7 Co1 2.058 . S
O7 C33 1.269 . S
O8 Co0 2.074 . S
O8 C33 1.257 . S
H9 C34 0.930 . S
H10 C40 0.930 . S
O11 Co0 2.093 . S
O11 C3 1.224 . S
H12 C44 0.929 . S
H13 C46 0.930 . S
H14 C47 0.930 . S
H15 C45 0.929 . S
H16 C48 0.928 . S
O17 Co1 2.057 . S
O17 C5 1.232 . S
H18 C37 0.929 . S
H19 C38 0.929 . S
H20 C50 0.931 . S
H21 C42 0.929 . S
H22 C51 0.930 . S
H23 C43 0.931 . S
O24 Co0 2.097 . S
O24 C52 1.214 . S
H25 C53 0.929 . S
H26 C54 0.929 . S
H27 C55 0.930 . S
H28 C56 0.929 . S
H29 C58 0.930 . S
H30 C35 0.930 . S
H31 C39 0.930 . S
O32 Co1 2.037 . S
O32 C52 1.234 . S
C33 O7 1.269 . S
C33 O8 1.257 . S
C34 H9 0.930 . S
C34 C37 1.388 . S
C34 C39 1.418 . S
C35 H30 0.930 . S
C35 C38 1.404 . S
C35 C39 1.353 . S
N36 Co1 2.145 . S
N36 C37 1.397 . S
N36 C38 1.334 . S
C37 H18 0.929 . S
C37 C34 1.388 . S
C37 N36 1.397 . S
C38 H19 0.929 . S
C38 C35 1.404 . S
C38 N36 1.334 . S
C39 H31 0.930 . S
C39 C34 1.418 . S
C39 C35 1.353 . S
C40 H10 0.930 . S
C40 N41 1.330 . S
C40 C42 1.446 . S
N41 Co0 2.151 1_565 S
N41 C40 1.330 . S
N41 C45 1.418 1_455 S
C42 H21 0.929 . S
C42 C40 1.446 . S
C42 C43 1.332 1_455 S
C43 H23 0.931 . S
C43 C42 1.332 1_655 S
C43 C44 1.267 . S
C44 H12 0.929 . S
C44 C43 1.267 . S
C44 C45 1.251 . S
C45 H15 0.929 . S
C45 N41 1.418 1_655 S
C45 C44 1.251 . S
C46 H13 0.930 . S
C46 C48 1.406 . S
C46 C51 1.261 . S
C47 H14 0.930 . S
C47 N49 1.325 . S
C47 C50 1.357 . S
C48 H16 0.928 . S
C48 C46 1.406 . S
C48 N49 1.261 . S
N49 Co0 2.214 1_655 S
N49 C47 1.325 . S
N49 C48 1.261 . S
C50 H20 0.931 . S
C50 C47 1.357 . S
C50 C51 1.312 . S
C51 H22 0.930 . S
C51 C46 1.261 . S
C51 C50 1.312 . S
C52 O24 1.214 . S
C52 O32 1.234 . S
C53 H25 0.929 . S
C53 C56 1.391 . S
C53 C58 1.391 . S
C54 H26 0.929 . S
C54 C55 1.390 . S
C54 N57 1.391 . S
C55 H27 0.930 . S
C55 C54 1.390 . S
C55 C56 1.392 . S
C56 H28 0.929 . S
C56 C53 1.391 . S
C56 C55 1.392 . S
N57 Co1 2.257 . S
N57 C54 1.391 . S
N57 C58 1.388 . S
C58 H29 0.930 . S
C58 C53 1.391 . S
C58 N57 1.388 . S
Co59 O61 2.143 . S
Co59 O67 2.074 . S
Co59 O70 2.093 . S
Co59 O83 2.097 . S
Co59 N100 2.151 1_565 S
Co59 N108 2.214 . S
Co60 O61 2.160 . S
Co60 O66 2.058 . S
Co60 O76 2.057 . S
Co60 O91 2.037 . S
Co60 N95 2.145 . S
Co60 N116 2.257 . S
O61 Co59 2.143 . S
O61 Co60 2.160 . S
C62 O63 1.278 . S
C62 O70 1.224 . S
O63 C62 1.278 . S
C64 O65 1.245 . S
C64 O76 1.232 . S
O65 C64 1.245 . S
O66 Co60 2.058 . S
O66 C92 1.269 . S
O67 Co59 2.074 . S
O67 C92 1.257 . S
H68 C93 0.930 . S
H69 C99 0.930 . S
O70 Co59 2.093 . S
O70 C62 1.224 . S
H71 C103 0.929 . S
H72 C105 0.930 . S
H73 C106 0.930 . S
H74 C104 0.929 . S
H75 C107 0.928 . S
O76 Co60 2.057 . S
O76 C64 1.232 . S
H77 C96 0.929 . S
H78 C97 0.929 . S
H79 C109 0.931 . S
H80 C101 0.929 . S
H81 C110 0.930 . S
H82 C102 0.931 . S
O83 Co59 2.097 . S
O83 C111 1.214 . S
H84 C112 0.929 . S
H85 C113 0.929 . S
H86 C114 0.930 . S
H87 C115 0.929 . S
H88 C117 0.930 . S
H89 C94 0.930 . S
H90 C98 0.930 . S
O91 Co60 2.037 . S
O91 C111 1.234 . S
C92 O66 1.269 . S
C92 O67 1.257 . S
C93 H68 0.930 . S
C93 C96 1.388 . S
C93 C98 1.418 . S
C94 H89 0.930 . S
C94 C97 1.404 . S
C94 C98 1.353 . S
N95 Co60 2.145 . S
N95 C96 1.397 . S
N95 C97 1.334 . S
C96 H77 0.929 . S
C96 C93 1.388 . S
C96 N95 1.397 . S
C97 H78 0.929 . S
C97 C94 1.404 . S
C97 N95 1.334 . S
C98 H90 0.930 . S
C98 C93 1.418 . S
C98 C94 1.353 . S
C99 H69 0.930 . S
C99 N100 1.330 . S
C99 C101 1.446 . S
N100 Co59 2.151 1_545 S
N100 C99 1.330 . S
N100 C104 1.418 . S
C101 H80 0.929 . S
C101 C99 1.446 . S
C101 C102 1.332 . S
C102 H82 0.931 . S
C102 C101 1.332 . S
C102 C103 1.267 . S
C103 H71 0.929 . S
C103 C102 1.267 . S
C103 C104 1.251 . S
C104 H74 0.929 . S
C104 N100 1.418 . S
C104 C103 1.251 . S
C105 H72 0.930 . S
C105 C107 1.406 . S
C105 C110 1.261 . S
C106 H73 0.930 . S
C106 N108 1.325 . S
C106 C109 1.357 . S
C107 H75 0.928 . S
C107 C105 1.406 . S
C107 N108 1.261 . S
N108 Co59 2.214 . S
N108 C106 1.325 . S
N108 C107 1.261 . S
C109 H79 0.931 . S
C109 C106 1.357 . S
C109 C110 1.312 . S
C110 H81 0.930 . S
C110 C105 1.261 . S
C110 C109 1.312 . S
C111 O83 1.214 . S
C111 O91 1.234 . S
C112 H84 0.929 . S
C112 C115 1.391 . S
C112 C117 1.391 . S
C113 H85 0.929 . S
C113 C114 1.390 . S
C113 N116 1.391 . S
C114 H86 0.930 . S
C114 C113 1.390 . S
C114 C115 1.392 . S
C115 H87 0.929 . S
C115 C112 1.391 . S
C115 C114 1.392 . S
N116 Co60 2.257 . S
N116 C113 1.391 . S
N116 C117 1.388 . S
C117 H88 0.930 . S
C117 C112 1.391 . S
C117 N116 1.388 . S
Co118 O120 2.143 . S
Co118 O126 2.074 . S
Co118 O129 2.093 . S
Co118 O142 2.097 . S
Co118 N159 2.151 1_565 S
Co118 N167 2.214 . S
Co119 O120 2.160 . S
Co119 O125 2.058 . S
Co119 O135 2.057 . S
Co119 O150 2.037 . S
Co119 N154 2.145 . S
Co119 N175 2.257 . S
O120 Co118 2.143 . S
O120 Co119 2.160 . S
C121 O122 1.278 . S
C121 O129 1.224 . S
O122 C121 1.278 . S
C123 O124 1.245 . S
C123 O135 1.232 . S
O124 C123 1.245 . S
O125 Co119 2.058 . S
O125 C151 1.269 . S
O126 Co118 2.074 . S
O126 C151 1.257 . S
H127 C152 0.930 . S
H128 C158 0.930 . S
O129 Co118 2.093 . S
O129 C121 1.224 . S
H130 C162 0.929 . S
H131 C164 0.930 . S
H132 C165 0.930 . S
H133 C163 0.929 . S
H134 C166 0.928 . S
O135 Co119 2.057 . S
O135 C123 1.232 . S
H136 C155 0.929 . S
H137 C156 0.929 . S
H138 C168 0.931 . S
H139 C160 0.929 . S
H140 C169 0.930 . S
H141 C161 0.931 . S
O142 Co118 2.097 . S
O142 C170 1.214 . S
H143 C171 0.929 . S
H144 C172 0.929 . S
H145 C173 0.930 . S
H146 C174 0.929 . S
H147 C176 0.930 . S
H148 C153 0.930 . S
H149 C157 0.930 . S
O150 Co119 2.037 . S
O150 C170 1.234 . S
C151 O125 1.269 . S
C151 O126 1.257 . S
C152 H127 0.930 . S
C152 C155 1.388 . S
C152 C157 1.418 . S
C153 H148 0.930 . S
C153 C156 1.404 . S
C153 C157 1.353 . S
N154 Co119 2.145 . S
N154 C155 1.397 . S
N154 C156 1.334 . S
C155 H136 0.929 . S
C155 C152 1.388 . S
C155 N154 1.397 . S
C156 H137 0.929 . S
C156 C153 1.404 . S
C156 N154 1.334 . S
C157 H149 0.930 . S
C157 C152 1.418 . S
C157 C153 1.353 . S
C158 H128 0.930 . S
C158 N159 1.330 . S
C158 C160 1.446 . S
N159 Co118 2.151 1_545 S
N159 C158 1.330 . S
N159 C163 1.418 . S
C160 H139 0.929 . S
C160 C158 1.446 . S
C160 C161 1.332 . S
C161 H141 0.931 . S
C161 C160 1.332 . S
C161 C162 1.267 . S
C162 H130 0.929 . S
C162 C161 1.267 . S
C162 C163 1.251 . S
C163 H133 0.929 . S
C163 N159 1.418 . S
C163 C162 1.251 . S
C164 H131 0.930 . S
C164 C166 1.406 . S
C164 C169 1.261 . S
C165 H132 0.930 . S
C165 N167 1.325 . S
C165 C168 1.357 . S
C166 H134 0.928 . S
C166 C164 1.406 . S
C166 N167 1.261 . S
N167 Co118 2.214 . S
N167 C165 1.325 . S
N167 C166 1.261 . S
C168 H138 0.931 . S
C168 C165 1.357 . S
C168 C169 1.312 . S
C169 H140 0.930 . S
C169 C164 1.261 . S
C169 C168 1.312 . S
C170 O142 1.214 . S
C170 O150 1.234 . S
C171 H143 0.929 . S
C171 C174 1.391 . S
C171 C176 1.391 . S
C172 H144 0.929 . S
C172 C173 1.390 . S
C172 N175 1.391 . S
C173 H145 0.930 . S
C173 C172 1.390 . S
C173 C174 1.392 . S
C174 H146 0.929 . S
C174 C171 1.391 . S
C174 C173 1.392 . S
N175 Co119 2.257 . S
N175 C172 1.391 . S
N175 C176 1.388 . S
C176 H147 0.930 . S
C176 C171 1.391 . S
C176 N175 1.388 . S
Co177 O179 2.143 . S
Co177 O185 2.074 . S
Co177 O188 2.093 . S
Co177 O201 2.097 . S
Co177 N218 2.151 1_545 S
Co177 N226 2.214 1_655 S
Co178 O179 2.160 . S
Co178 O184 2.058 . S
Co178 O194 2.057 . S
Co178 O209 2.037 . S
Co178 N213 2.145 . S
Co178 N234 2.257 . S
O179 Co177 2.143 . S
O179 Co178 2.160 . S
C180 O181 1.278 . S
C180 O188 1.224 . S
O181 C180 1.278 . S
C182 O183 1.245 . S
C182 O194 1.232 . S
O183 C182 1.245 . S
O184 Co178 2.058 . S
O184 C210 1.269 . S
O185 Co177 2.074 . S
O185 C210 1.257 . S
H186 C211 0.930 . S
H187 C217 0.930 . S
O188 Co177 2.093 . S
O188 C180 1.224 . S
H189 C221 0.929 . S
H190 C223 0.930 . S
H191 C224 0.930 . S
H192 C222 0.929 . S
H193 C225 0.928 . S
O194 Co178 2.057 . S
O194 C182 1.232 . S
H195 C214 0.929 . S
H196 C215 0.929 . S
H197 C227 0.931 . S
H198 C219 0.929 . S
H199 C228 0.930 . S
H200 C220 0.931 . S
O201 Co177 2.097 . S
O201 C229 1.214 . S
H202 C230 0.929 . S
H203 C231 0.929 . S
H204 C232 0.930 . S
H205 C233 0.929 . S
H206 C235 0.930 . S
H207 C212 0.930 . S
H208 C216 0.930 . S
O209 Co178 2.037 . S
O209 C229 1.234 . S
C210 O184 1.269 . S
C210 O185 1.257 . S
C211 H186 0.930 . S
C211 C214 1.388 . S
C211 C216 1.418 . S
C212 H207 0.930 . S
C212 C215 1.404 . S
C212 C216 1.353 . S
N213 Co178 2.145 . S
N213 C214 1.397 . S
N213 C215 1.334 . S
C214 H195 0.929 . S
C214 C211 1.388 . S
C214 N213 1.397 . S
C215 H196 0.929 . S
C215 C212 1.404 . S
C215 N213 1.334 . S
C216 H208 0.930 . S
C216 C211 1.418 . S
C216 C212 1.353 . S
C217 H187 0.930 . S
C217 N218 1.330 . S
C217 C219 1.446 . S
N218 Co177 2.151 1_565 S
N218 C217 1.330 . S
N218 C222 1.418 1_655 S
C219 H198 0.929 . S
C219 C217 1.446 . S
C219 C220 1.332 1_655 S
C220 H200 0.931 . S
C220 C219 1.332 1_455 S
C220 C221 1.267 . S
C221 H189 0.929 . S
C221 C220 1.267 . S
C221 C222 1.251 . S
C222 H192 0.929 . S
C222 N218 1.418 1_455 S
C222 C221 1.251 . S
C223 H190 0.930 . S
C223 C225 1.406 . S
C223 C228 1.261 . S
C224 H191 0.930 . S
C224 N226 1.325 . S
C224 C227 1.357 . S
C225 H193 0.928 . S
C225 C223 1.406 . S
C225 N226 1.261 . S
N226 Co177 2.214 1_455 S
N226 C224 1.325 . S
N226 C225 1.261 . S
C227 H197 0.931 . S
C227 C224 1.357 . S
C227 C228 1.312 . S
C228 H199 0.930 . S
C228 C223 1.261 . S
C228 C227 1.312 . S
C229 O201 1.214 . S
C229 O209 1.234 . S
C230 H202 0.929 . S
C230 C233 1.391 . S
C230 C235 1.391 . S
C231 H203 0.929 . S
C231 C232 1.390 . S
C231 N234 1.391 . S
C232 H204 0.930 . S
C232 C231 1.390 . S
C232 C233 1.392 . S
C233 H205 0.929 . S
C233 C230 1.391 . S
C233 C232 1.392 . S
N234 Co178 2.257 . S
N234 C231 1.391 . S
N234 C235 1.388 . S
C235 H206 0.930 . S
C235 C230 1.391 . S
C235 N234 1.388 . S
Co236 O238 2.143 . S
Co236 O244 2.074 . S
Co236 O247 2.093 . S
Co236 O260 2.097 . S
Co236 N277 2.151 1_565 S
Co236 N285 2.214 1_655 S
Co237 O238 2.160 . S
Co237 O243 2.058 . S
Co237 O253 2.057 . S
Co237 O268 2.037 . S
Co237 N272 2.145 . S
Co237 N293 2.257 . S
O238 Co236 2.143 . S
O238 Co237 2.160 . S
C239 O240 1.278 . S
C239 O247 1.224 . S
O240 C239 1.278 . S
C241 O242 1.245 . S
C241 O253 1.232 . S
O242 C241 1.245 . S
O243 Co237 2.058 . S
O243 C269 1.269 . S
O244 Co236 2.074 . S
O244 C269 1.257 . S
H245 C270 0.930 . S
H246 C276 0.930 . S
O247 Co236 2.093 . S
O247 C239 1.224 . S
H248 C280 0.929 . S
H249 C282 0.930 . S
H250 C283 0.930 . S
H251 C281 0.929 . S
H252 C284 0.928 . S
O253 Co237 2.057 . S
O253 C241 1.232 . S
H254 C273 0.929 . S
H255 C274 0.929 . S
H256 C286 0.931 . S
H257 C278 0.929 . S
H258 C287 0.930 . S
H259 C279 0.931 . S
O260 Co236 2.097 . S
O260 C288 1.214 . S
H261 C289 0.929 . S
H262 C290 0.929 . S
H263 C291 0.930 . S
H264 C292 0.929 . S
H265 C294 0.930 . S
H266 C271 0.930 . S
H267 C275 0.930 . S
O268 Co237 2.037 . S
O268 C288 1.234 . S
C269 O243 1.269 . S
C269 O244 1.257 . S
C270 H245 0.930 . S
C270 C273 1.388 . S
C270 C275 1.418 . S
C271 H266 0.930 . S
C271 C274 1.404 . S
C271 C275 1.353 . S
N272 Co237 2.145 . S
N272 C273 1.397 . S
N272 C274 1.334 . S
C273 H254 0.929 . S
C273 C270 1.388 . S
C273 N272 1.397 . S
C274 H255 0.929 . S
C274 C271 1.404 . S
C274 N272 1.334 . S
C275 H267 0.930 . S
C275 C270 1.418 . S
C275 C271 1.353 . S
C276 H246 0.930 . S
C276 N277 1.330 . S
C276 C278 1.446 . S
N277 Co236 2.151 1_545 S
N277 C276 1.330 . S
N277 C281 1.418 1_655 S
C278 H257 0.929 . S
C278 C276 1.446 . S
C278 C279 1.332 1_655 S
C279 H259 0.931 . S
C279 C278 1.332 1_455 S
C279 C280 1.267 . S
C280 H248 0.929 . S
C280 C279 1.267 . S
C280 C281 1.251 . S
C281 H251 0.929 . S
C281 N277 1.418 1_455 S
C281 C280 1.251 . S
C282 H249 0.930 . S
C282 C284 1.406 . S
C282 C287 1.261 . S
C283 H250 0.930 . S
C283 N285 1.325 . S
C283 C286 1.357 . S
C284 H252 0.928 . S
C284 C282 1.406 . S
C284 N285 1.261 . S
N285 Co236 2.214 1_455 S
N285 C283 1.325 . S
N285 C284 1.261 . S
C286 H256 0.931 . S
C286 C283 1.357 . S
C286 C287 1.312 . S
C287 H258 0.930 . S
C287 C282 1.261 . S
C287 C286 1.312 . S
C288 O260 1.214 . S
C288 O268 1.234 . S
C289 H261 0.929 . S
C289 C292 1.391 . S
C289 C294 1.391 . S
C290 H262 0.929 . S
C290 C291 1.390 . S
C290 N293 1.391 . S
C291 H263 0.930 . S
C291 C290 1.390 . S
C291 C292 1.392 . S
C292 H264 0.929 . S
C292 C289 1.391 . S
C292 C291 1.392 . S
N293 Co237 2.257 . S
N293 C290 1.391 . S
N293 C294 1.388 . S
C294 H265 0.930 . S
C294 C289 1.391 . S
C294 N293 1.388 . S
Co295 O297 2.143 . S
Co295 O303 2.074 . S
Co295 O306 2.093 . S
Co295 O319 2.097 . S
Co295 N336 2.151 1_545 S
Co295 N344 2.214 . S
Co296 O297 2.160 . S
Co296 O302 2.058 . S
Co296 O312 2.057 . S
Co296 O327 2.037 . S
Co296 N331 2.145 . S
Co296 N352 2.257 . S
O297 Co295 2.143 . S
O297 Co296 2.160 . S
C298 O299 1.278 . S
C298 O306 1.224 . S
O299 C298 1.278 . S
C300 O301 1.245 . S
C300 O312 1.232 . S
O301 C300 1.245 . S
O302 Co296 2.058 . S
O302 C328 1.269 . S
O303 Co295 2.074 . S
O303 C328 1.257 . S
H304 C329 0.930 . S
H305 C335 0.930 . S
O306 Co295 2.093 . S
O306 C298 1.224 . S
H307 C339 0.929 . S
H308 C341 0.930 . S
H309 C342 0.930 . S
H310 C340 0.929 . S
H311 C343 0.928 . S
O312 Co296 2.057 . S
O312 C300 1.232 . S
H313 C332 0.929 . S
H314 C333 0.929 . S
H315 C345 0.931 . S
H316 C337 0.929 . S
H317 C346 0.930 . S
H318 C338 0.931 . S
O319 Co295 2.097 . S
O319 C347 1.214 . S
H320 C348 0.929 . S
H321 C349 0.929 . S
H322 C350 0.930 . S
H323 C351 0.929 . S
H324 C353 0.930 . S
H325 C330 0.930 . S
H326 C334 0.930 . S
O327 Co296 2.037 . S
O327 C347 1.234 . S
C328 O302 1.269 . S
C328 O303 1.257 . S
C329 H304 0.930 . S
C329 C332 1.388 . S
C329 C334 1.418 . S
C330 H325 0.930 . S
C330 C333 1.404 . S
C330 C334 1.353 . S
N331 Co296 2.145 . S
N331 C332 1.397 . S
N331 C333 1.334 . S
C332 H313 0.929 . S
C332 C329 1.388 . S
C332 N331 1.397 . S
C333 H314 0.929 . S
C333 C330 1.404 . S
C333 N331 1.334 . S
C334 H326 0.930 . S
C334 C329 1.418 . S
C334 C330 1.353 . S
C335 H305 0.930 . S
C335 N336 1.330 . S
C335 C337 1.446 . S
N336 Co295 2.151 1_565 S
N336 C335 1.330 . S
N336 C340 1.418 . S
C337 H316 0.929 . S
C337 C335 1.446 . S
C337 C338 1.332 . S
C338 H318 0.931 . S
C338 C337 1.332 . S
C338 C339 1.267 . S
C339 H307 0.929 . S
C339 C338 1.267 . S
C339 C340 1.251 . S
C340 H310 0.929 . S
C340 N336 1.418 . S
C340 C339 1.251 . S
C341 H308 0.930 . S
C341 C343 1.406 . S
C341 C346 1.261 . S
C342 H309 0.930 . S
C342 N344 1.325 . S
C342 C345 1.357 . S
C343 H311 0.928 . S
C343 C341 1.406 . S
C343 N344 1.261 . S
N344 Co295 2.214 . S
N344 C342 1.325 . S
N344 C343 1.261 . S
C345 H315 0.931 . S
C345 C342 1.357 . S
C345 C346 1.312 . S
C346 H317 0.930 . S
C346 C341 1.261 . S
C346 C345 1.312 . S
C347 O319 1.214 . S
C347 O327 1.234 . S
C348 H320 0.929 . S
C348 C351 1.391 . S
C348 C353 1.391 . S
C349 H321 0.929 . S
C349 C350 1.390 . S
C349 N352 1.391 . S
C350 H322 0.930 . S
C350 C349 1.390 . S
C350 C351 1.392 . S
C351 H323 0.929 . S
C351 C348 1.391 . S
C351 C350 1.392 . S
N352 Co296 2.257 . S
N352 C349 1.391 . S
N352 C353 1.388 . S
C353 H324 0.930 . S
C353 C348 1.391 . S
C353 N352 1.388 . S
Co354 O356 2.143 . S
Co354 O362 2.074 . S
Co354 O365 2.093 . S
Co354 O378 2.097 . S
Co354 N395 2.151 1_545 S
Co354 N403 2.214 . S
Co355 O356 2.160 . S
Co355 O361 2.058 . S
Co355 O371 2.057 . S
Co355 O386 2.037 . S
Co355 N390 2.145 . S
Co355 N411 2.257 . S
O356 Co354 2.143 . S
O356 Co355 2.160 . S
C357 O358 1.278 . S
C357 O365 1.224 . S
O358 C357 1.278 . S
C359 O360 1.245 . S
C359 O371 1.232 . S
O360 C359 1.245 . S
O361 Co355 2.058 . S
O361 C387 1.269 . S
O362 Co354 2.074 . S
O362 C387 1.257 . S
H363 C388 0.930 . S
H364 C394 0.930 . S
O365 Co354 2.093 . S
O365 C357 1.224 . S
H366 C398 0.929 . S
H367 C400 0.930 . S
H368 C401 0.930 . S
H369 C399 0.929 . S
H370 C402 0.928 . S
O371 Co355 2.057 . S
O371 C359 1.232 . S
H372 C391 0.929 . S
H373 C392 0.929 . S
H374 C404 0.931 . S
H375 C396 0.929 . S
H376 C405 0.930 . S
H377 C397 0.931 . S
O378 Co354 2.097 . S
O378 C406 1.214 . S
H379 C407 0.929 . S
H380 C408 0.929 . S
H381 C409 0.930 . S
H382 C410 0.929 . S
H383 C412 0.930 . S
H384 C389 0.930 . S
H385 C393 0.930 . S
O386 Co355 2.037 . S
O386 C406 1.234 . S
C387 O361 1.269 . S
C387 O362 1.257 . S
C388 H363 0.930 . S
C388 C391 1.388 . S
C388 C393 1.418 . S
C389 H384 0.930 . S
C389 C392 1.404 . S
C389 C393 1.353 . S
N390 Co355 2.145 . S
N390 C391 1.397 . S
N390 C392 1.334 . S
C391 H372 0.929 . S
C391 C388 1.388 . S
C391 N390 1.397 . S
C392 H373 0.929 . S
C392 C389 1.404 . S
C392 N390 1.334 . S
C393 H385 0.930 . S
C393 C388 1.418 . S
C393 C389 1.353 . S
C394 H364 0.930 . S
C394 N395 1.330 . S
C394 C396 1.446 . S
N395 Co354 2.151 1_565 S
N395 C394 1.330 . S
N395 C399 1.418 . S
C396 H375 0.929 . S
C396 C394 1.446 . S
C396 C397 1.332 . S
C397 H377 0.931 . S
C397 C396 1.332 . S
C397 C398 1.267 . S
C398 H366 0.929 . S
C398 C397 1.267 . S
C398 C399 1.251 . S
C399 H369 0.929 . S
C399 N395 1.418 . S
C399 C398 1.251 . S
C400 H367 0.930 . S
C400 C402 1.406 . S
C400 C405 1.261 . S
C401 H368 0.930 . S
C401 N403 1.325 . S
C401 C404 1.357 . S
C402 H370 0.928 . S
C402 C400 1.406 . S
C402 N403 1.261 . S
N403 Co354 2.214 . S
N403 C401 1.325 . S
N403 C402 1.261 . S
C404 H374 0.931 . S
C404 C401 1.357 . S
C404 C405 1.312 . S
C405 H376 0.930 . S
C405 C400 1.261 . S
C405 C404 1.312 . S
C406 O378 1.214 . S
C406 O386 1.234 . S
C407 H379 0.929 . S
C407 C410 1.391 . S
C407 C412 1.391 . S
C408 H380 0.929 . S
C408 C409 1.390 . S
C408 N411 1.391 . S
C409 H381 0.930 . S
C409 C408 1.390 . S
C409 C410 1.392 . S
C410 H382 0.929 . S
C410 C407 1.391 . S
C410 C409 1.392 . S
N411 Co355 2.257 . S
N411 C408 1.391 . S
N411 C412 1.388 . S
C412 H383 0.930 . S
C412 C407 1.391 . S
C412 N411 1.388 . S
Co413 O415 2.143 . S
Co413 O421 2.074 . S
Co413 O424 2.093 . S
Co413 O437 2.097 . S
Co413 N454 2.151 1_565 S
Co413 N462 2.214 1_455 S
Co414 O415 2.160 . S
Co414 O420 2.058 . S
Co414 O430 2.057 . S
Co414 O445 2.037 . S
Co414 N449 2.145 . S
Co414 N470 2.257 . S
O415 Co413 2.143 . S
O415 Co414 2.160 . S
C416 O417 1.278 . S
C416 O424 1.224 . S
O417 C416 1.278 . S
C418 O419 1.245 . S
C418 O430 1.232 . S
O419 C418 1.245 . S
O420 Co414 2.058 . S
O420 C446 1.269 . S
O421 Co413 2.074 . S
O421 C446 1.257 . S
H422 C447 0.930 . S
H423 C453 0.930 . S
O424 Co413 2.093 . S
O424 C416 1.224 . S
H425 C457 0.929 . S
H426 C459 0.930 . S
H427 C460 0.930 . S
H428 C458 0.929 . S
H429 C461 0.928 . S
O430 Co414 2.057 . S
O430 C418 1.232 . S
H431 C450 0.929 . S
H432 C451 0.929 . S
H433 C463 0.931 . S
H434 C455 0.929 . S
H435 C464 0.930 . S
H436 C456 0.931 . S
O437 Co413 2.097 . S
O437 C465 1.214 . S
H438 C466 0.929 . S
H439 C467 0.929 . S
H440 C468 0.930 . S
H441 C469 0.929 . S
H442 C471 0.930 . S
H443 C448 0.930 . S
H444 C452 0.930 . S
O445 Co414 2.037 . S
O445 C465 1.234 . S
C446 O420 1.269 . S
C446 O421 1.257 . S
C447 H422 0.930 . S
C447 C450 1.388 . S
C447 C452 1.418 . S
C448 H443 0.930 . S
C448 C451 1.404 . S
C448 C452 1.353 . S
N449 Co414 2.145 . S
N449 C450 1.397 . S
N449 C451 1.334 . S
C450 H431 0.929 . S
C450 C447 1.388 . S
C450 N449 1.397 . S
C451 H432 0.929 . S
C451 C448 1.404 . S
C451 N449 1.334 . S
C452 H444 0.930 . S
C452 C447 1.418 . S
C452 C448 1.353 . S
C453 H423 0.930 . S
C453 N454 1.330 . S
C453 C455 1.446 . S
N454 Co413 2.151 1_545 S
N454 C453 1.330 . S
N454 C458 1.418 1_455 S
C455 H434 0.929 . S
C455 C453 1.446 . S
C455 C456 1.332 1_455 S
C456 H436 0.931 . S
C456 C455 1.332 1_655 S
C456 C457 1.267 . S
C457 H425 0.929 . S
C457 C456 1.267 . S
C457 C458 1.251 . S
C458 H428 0.929 . S
C458 N454 1.418 1_655 S
C458 C457 1.251 . S
C459 H426 0.930 . S
C459 C461 1.406 . S
C459 C464 1.261 . S
C460 H427 0.930 . S
C460 N462 1.325 . S
C460 C463 1.357 . S
C461 H429 0.928 . S
C461 C459 1.406 . S
C461 N462 1.261 . S
N462 Co413 2.214 1_655 S
N462 C460 1.325 . S
N462 C461 1.261 . S
C463 H433 0.931 . S
C463 C460 1.357 . S
C463 C464 1.312 . S
C464 H435 0.930 . S
C464 C459 1.261 . S
C464 C463 1.312 . S
C465 O437 1.214 . S
C465 O445 1.234 . S
C466 H438 0.929 . S
C466 C469 1.391 . S
C466 C471 1.391 . S
C467 H439 0.929 . S
C467 C468 1.390 . S
C467 N470 1.391 . S
C468 H440 0.930 . S
C468 C467 1.390 . S
C468 C469 1.392 . S
C469 H441 0.929 . S
C469 C466 1.391 . S
C469 C468 1.392 . S
N470 Co414 2.257 . S
N470 C467 1.391 . S
N470 C471 1.388 . S
C471 H442 0.930 . S
C471 C466 1.391 . S
C471 N470 1.388 . S
Co472 O474 2.143 . S
Co472 O480 2.074 . S
Co472 O483 2.093 . S
Co472 O496 2.097 . S
Co472 N513 2.151 . S
Co472 N521 2.214 . S
Co473 O474 2.160 . S
Co473 O479 2.058 . S
Co473 O489 2.057 . S
Co473 O504 2.037 . S
Co473 N508 2.145 . S
Co473 N529 2.257 . S
O474 Co472 2.143 . S
O474 Co473 2.160 . S
C475 O476 1.278 . S
C475 O483 1.224 . S
O476 C475 1.278 . S
C477 O478 1.245 . S
C477 O489 1.232 . S
O478 C477 1.245 . S
O479 Co473 2.058 . S
O479 C505 1.269 . S
O480 Co472 2.074 . S
O480 C505 1.257 . S
H481 C506 0.930 . S
H482 C512 0.930 . S
O483 Co472 2.093 . S
O483 C475 1.224 . S
H484 C516 0.929 . S
H485 C518 0.930 . S
H486 C519 0.930 . S
H487 C517 0.929 . S
H488 C520 0.928 . S
O489 Co473 2.057 . S
O489 C477 1.232 . S
H490 C509 0.929 . S
H491 C510 0.929 . S
H492 C522 0.931 . S
H493 C514 0.929 . S
H494 C523 0.930 . S
H495 C515 0.931 . S
O496 Co472 2.097 . S
O496 C524 1.214 . S
H497 C525 0.929 . S
H498 C526 0.929 . S
H499 C527 0.930 . S
H500 C528 0.929 . S
H501 C530 0.930 . S
H502 C507 0.930 . S
H503 C511 0.930 . S
O504 Co473 2.037 . S
O504 C524 1.234 . S
C505 O479 1.269 . S
C505 O480 1.257 . S
C506 H481 0.930 . S
C506 C509 1.388 . S
C506 C511 1.418 . S
C507 H502 0.930 . S
C507 C510 1.404 . S
C507 C511 1.353 . S
N508 Co473 2.145 . S
N508 C509 1.397 . S
N508 C510 1.334 . S
C509 H490 0.929 . S
C509 C506 1.388 . S
C509 N508 1.397 . S
C510 H491 0.929 . S
C510 C507 1.404 . S
C510 N508 1.334 . S
C511 H503 0.930 . S
C511 C506 1.418 . S
C511 C507 1.353 . S
C512 H482 0.930 . S
C512 N513 1.330 . S
C512 C514 1.446 . S
N513 Co472 2.151 . S
N513 C512 1.330 . S
N513 C517 1.418 . S
C514 H493 0.929 . S
C514 C512 1.446 . S
C514 C515 1.332 . S
C515 H495 0.931 . S
C515 C514 1.332 . S
C515 C516 1.267 . S
C516 H484 0.929 . S
C516 C515 1.267 . S
C516 C517 1.251 . S
C517 H487 0.929 . S
C517 N513 1.418 . S
C517 C516 1.251 . S
C518 H485 0.930 . S
C518 C520 1.406 . S
C518 C523 1.261 . S
C519 H486 0.930 . S
C519 N521 1.325 . S
C519 C522 1.357 . S
C520 H488 0.928 . S
C520 C518 1.406 . S
C520 N521 1.261 . S
N521 Co472 2.214 . S
N521 C519 1.325 . S
N521 C520 1.261 . S
C522 H492 0.931 . S
C522 C519 1.357 . S
C522 C523 1.312 . S
C523 H494 0.930 . S
C523 C518 1.261 . S
C523 C522 1.312 . S
C524 O496 1.214 . S
C524 O504 1.234 . S
C525 H497 0.929 . S
C525 C528 1.391 . S
C525 C530 1.391 . S
C526 H498 0.929 . S
C526 C527 1.390 . S
C526 N529 1.391 . S
C527 H499 0.930 . S
C527 C526 1.390 . S
C527 C528 1.392 . S
C528 H500 0.929 . S
C528 C525 1.391 . S
C528 C527 1.392 . S
N529 Co473 2.257 . S
N529 C526 1.391 . S
N529 C530 1.388 . S
C530 H501 0.930 . S
C530 C525 1.391 . S
C530 N529 1.388 . S
Co531 O533 2.143 . S
Co531 O539 2.074 . S
Co531 O542 2.093 . S
Co531 O555 2.097 . S
Co531 N572 2.151 . S
Co531 N580 2.214 1_655 S
Co532 O533 2.160 . S
Co532 O538 2.058 . S
Co532 O548 2.057 . S
Co532 O563 2.037 . S
Co532 N567 2.145 . S
Co532 N588 2.257 . S
O533 Co531 2.143 . S
O533 Co532 2.160 . S
C534 O535 1.278 . S
C534 O542 1.224 . S
O535 C534 1.278 . S
C536 O537 1.245 . S
C536 O548 1.232 . S
O537 C536 1.245 . S
O538 Co532 2.058 . S
O538 C564 1.269 . S
O539 Co531 2.074 . S
O539 C564 1.257 . S
H540 C565 0.930 . S
H541 C571 0.930 . S
O542 Co531 2.093 . S
O542 C534 1.224 . S
H543 C575 0.929 . S
H544 C577 0.930 . S
H545 C578 0.930 . S
H546 C576 0.929 . S
H547 C579 0.928 . S
O548 Co532 2.057 . S
O548 C536 1.232 . S
H549 C568 0.929 . S
H550 C569 0.929 . S
H551 C581 0.931 . S
H552 C573 0.929 . S
H553 C582 0.930 . S
H554 C574 0.931 . S
O555 Co531 2.097 . S
O555 C583 1.214 . S
H556 C584 0.929 . S
H557 C585 0.929 . S
H558 C586 0.930 . S
H559 C587 0.929 . S
H560 C589 0.930 . S
H561 C566 0.930 . S
H562 C570 0.930 . S
O563 Co532 2.037 . S
O563 C583 1.234 . S
C564 O538 1.269 . S
C564 O539 1.257 . S
C565 H540 0.930 . S
C565 C568 1.388 . S
C565 C570 1.418 . S
C566 H561 0.930 . S
C566 C569 1.404 . S
C566 C570 1.353 . S
N567 Co532 2.145 . S
N567 C568 1.397 . S
N567 C569 1.334 . S
C568 H549 0.929 . S
C568 C565 1.388 . S
C568 N567 1.397 . S
C569 H550 0.929 . S
C569 C566 1.404 . S
C569 N567 1.334 . S
C570 H562 0.930 . S
C570 C565 1.418 . S
C570 C566 1.353 . S
C571 H541 0.930 . S
C571 N572 1.330 . S
C571 C573 1.446 . S
N572 Co531 2.151 . S
N572 C571 1.330 . S
N572 C576 1.418 1_655 S
C573 H552 0.929 . S
C573 C571 1.446 . S
C573 C574 1.332 1_655 S
C574 H554 0.931 . S
C574 C573 1.332 1_455 S
C574 C575 1.267 . S
C575 H543 0.929 . S
C575 C574 1.267 . S
C575 C576 1.251 . S
C576 H546 0.929 . S
C576 N572 1.418 1_455 S
C576 C575 1.251 . S
C577 H544 0.930 . S
C577 C579 1.406 . S
C577 C582 1.261 . S
C578 H545 0.930 . S
C578 N580 1.325 . S
C578 C581 1.357 . S
C579 H547 0.928 . S
C579 C577 1.406 . S
C579 N580 1.261 . S
N580 Co531 2.214 1_455 S
N580 C578 1.325 . S
N580 C579 1.261 . S
C581 H551 0.931 . S
C581 C578 1.357 . S
C581 C582 1.312 . S
C582 H553 0.930 . S
C582 C577 1.261 . S
C582 C581 1.312 . S
C583 O555 1.214 . S
C583 O563 1.234 . S
C584 H556 0.929 . S
C584 C587 1.391 . S
C584 C589 1.391 . S
C585 H557 0.929 . S
C585 C586 1.390 . S
C585 N588 1.391 . S
C586 H558 0.930 . S
C586 C585 1.390 . S
C586 C587 1.392 . S
C587 H559 0.929 . S
C587 C584 1.391 . S
C587 C586 1.392 . S
N588 Co532 2.257 . S
N588 C585 1.391 . S
N588 C589 1.388 . S
C589 H560 0.930 . S
C589 C584 1.391 . S
C589 N588 1.388 . S
Co590 O592 2.143 . S
Co590 O598 2.074 . S
Co590 O601 2.093 . S
Co590 O614 2.097 . S
Co590 N631 2.151 . S
Co590 N639 2.214 1_455 S
Co591 O592 2.160 . S
Co591 O597 2.058 . S
Co591 O607 2.057 . S
Co591 O622 2.037 . S
Co591 N626 2.145 . S
Co591 N647 2.257 . S
O592 Co590 2.143 . S
O592 Co591 2.160 . S
C593 O594 1.278 . S
C593 O601 1.224 . S
O594 C593 1.278 . S
C595 O596 1.245 . S
C595 O607 1.232 . S
O596 C595 1.245 . S
O597 Co591 2.058 . S
O597 C623 1.269 . S
O598 Co590 2.074 . S
O598 C623 1.257 . S
H599 C624 0.930 . S
H600 C630 0.930 . S
O601 Co590 2.093 . S
O601 C593 1.224 . S
H602 C634 0.929 . S
H603 C636 0.930 . S
H604 C637 0.930 . S
H605 C635 0.929 . S
H606 C638 0.928 . S
O607 Co591 2.057 . S
O607 C595 1.232 . S
H608 C627 0.929 . S
H609 C628 0.929 . S
H610 C640 0.931 . S
H611 C632 0.929 . S
H612 C641 0.930 . S
H613 C633 0.931 . S
O614 Co590 2.097 . S
O614 C642 1.214 . S
H615 C643 0.929 . S
H616 C644 0.929 . S
H617 C645 0.930 . S
H618 C646 0.929 . S
H619 C648 0.930 . S
H620 C625 0.930 . S
H621 C629 0.930 . S
O622 Co591 2.037 . S
O622 C642 1.234 . S
C623 O597 1.269 . S
C623 O598 1.257 . S
C624 H599 0.930 . S
C624 C627 1.388 . S
C624 C629 1.418 . S
C625 H620 0.930 . S
C625 C628 1.404 . S
C625 C629 1.353 . S
N626 Co591 2.145 . S
N626 C627 1.397 . S
N626 C628 1.334 . S
C627 H608 0.929 . S
C627 C624 1.388 . S
C627 N626 1.397 . S
C628 H609 0.929 . S
C628 C625 1.404 . S
C628 N626 1.334 . S
C629 H621 0.930 . S
C629 C624 1.418 . S
C629 C625 1.353 . S
C630 H600 0.930 . S
C630 N631 1.330 . S
C630 C632 1.446 . S
N631 Co590 2.151 . S
N631 C630 1.330 . S
N631 C635 1.418 1_455 S
C632 H611 0.929 . S
C632 C630 1.446 . S
C632 C633 1.332 1_455 S
C633 H613 0.931 . S
C633 C632 1.332 1_655 S
C633 C634 1.267 . S
C634 H602 0.929 . S
C634 C633 1.267 . S
C634 C635 1.251 . S
C635 H605 0.929 . S
C635 N631 1.418 1_655 S
C635 C634 1.251 . S
C636 H603 0.930 . S
C636 C638 1.406 . S
C636 C641 1.261 . S
C637 H604 0.930 . S
C637 N639 1.325 . S
C637 C640 1.357 . S
C638 H606 0.928 . S
C638 C636 1.406 . S
C638 N639 1.261 . S
N639 Co590 2.214 1_655 S
N639 C637 1.325 . S
N639 C638 1.261 . S
C640 H610 0.931 . S
C640 C637 1.357 . S
C640 C641 1.312 . S
C641 H612 0.930 . S
C641 C636 1.261 . S
C641 C640 1.312 . S
C642 O614 1.214 . S
C642 O622 1.234 . S
C643 H615 0.929 . S
C643 C646 1.391 . S
C643 C648 1.391 . S
C644 H616 0.929 . S
C644 C645 1.390 . S
C644 N647 1.391 . S
C645 H617 0.930 . S
C645 C644 1.390 . S
C645 C646 1.392 . S
C646 H618 0.929 . S
C646 C643 1.391 . S
C646 C645 1.392 . S
N647 Co591 2.257 . S
N647 C644 1.391 . S
N647 C648 1.388 . S
C648 H619 0.930 . S
C648 C643 1.391 . S
C648 N647 1.388 . S
Co649 O651 2.143 . S
Co649 O657 2.074 . S
Co649 O660 2.093 . S
Co649 O673 2.097 . S
Co649 N690 2.151 . S
Co649 N698 2.214 . S
Co650 O651 2.160 . S
Co650 O656 2.058 . S
Co650 O666 2.057 . S
Co650 O681 2.037 . S
Co650 N685 2.145 . S
Co650 N706 2.257 . S
O651 Co649 2.143 . S
O651 Co650 2.160 . S
C652 O653 1.278 . S
C652 O660 1.224 . S
O653 C652 1.278 . S
C654 O655 1.245 . S
C654 O666 1.232 . S
O655 C654 1.245 . S
O656 Co650 2.058 . S
O656 C682 1.269 . S
O657 Co649 2.074 . S
O657 C682 1.257 . S
H658 C683 0.930 . S
H659 C689 0.930 . S
O660 Co649 2.093 . S
O660 C652 1.224 . S
H661 C693 0.929 . S
H662 C695 0.930 . S
H663 C696 0.930 . S
H664 C694 0.929 . S
H665 C697 0.928 . S
O666 Co650 2.057 . S
O666 C654 1.232 . S
H667 C686 0.929 . S
H668 C687 0.929 . S
H669 C699 0.931 . S
H670 C691 0.929 . S
H671 C700 0.930 . S
H672 C692 0.931 . S
O673 Co649 2.097 . S
O673 C701 1.214 . S
H674 C702 0.929 . S
H675 C703 0.929 . S
H676 C704 0.930 . S
H677 C705 0.929 . S
H678 C707 0.930 . S
H679 C684 0.930 . S
H680 C688 0.930 . S
O681 Co650 2.037 . S
O681 C701 1.234 . S
C682 O656 1.269 . S
C682 O657 1.257 . S
C683 H658 0.930 . S
C683 C686 1.388 . S
C683 C688 1.418 . S
C684 H679 0.930 . S
C684 C687 1.404 . S
C684 C688 1.353 . S
N685 Co650 2.145 . S
N685 C686 1.397 . S
N685 C687 1.334 . S
C686 H667 0.929 . S
C686 C683 1.388 . S
C686 N685 1.397 . S
C687 H668 0.929 . S
C687 C684 1.404 . S
C687 N685 1.334 . S
C688 H680 0.930 . S
C688 C683 1.418 . S
C688 C684 1.353 . S
C689 H659 0.930 . S
C689 N690 1.330 . S
C689 C691 1.446 . S
N690 Co649 2.151 . S
N690 C689 1.330 . S
N690 C694 1.418 . S
C691 H670 0.929 . S
C691 C689 1.446 . S
C691 C692 1.332 . S
C692 H672 0.931 . S
C692 C691 1.332 . S
C692 C693 1.267 . S
C693 H661 0.929 . S
C693 C692 1.267 . S
C693 C694 1.251 . S
C694 H664 0.929 . S
C694 N690 1.418 . S
C694 C693 1.251 . S
C695 H662 0.930 . S
C695 C697 1.406 . S
C695 C700 1.261 . S
C696 H663 0.930 . S
C696 N698 1.325 . S
C696 C699 1.357 . S
C697 H665 0.928 . S
C697 C695 1.406 . S
C697 N698 1.261 . S
N698 Co649 2.214 . S
N698 C696 1.325 . S
N698 C697 1.261 . S
C699 H669 0.931 . S
C699 C696 1.357 . S
C699 C700 1.312 . S
C700 H671 0.930 . S
C700 C695 1.261 . S
C700 C699 1.312 . S
C701 O673 1.214 . S
C701 O681 1.234 . S
C702 H674 0.929 . S
C702 C705 1.391 . S
C702 C707 1.391 . S
C703 H675 0.929 . S
C703 C704 1.390 . S
C703 N706 1.391 . S
C704 H676 0.930 . S
C704 C703 1.390 . S
C704 C705 1.392 . S
C705 H677 0.929 . S
C705 C702 1.391 . S
C705 C704 1.392 . S
N706 Co650 2.257 . S
N706 C703 1.391 . S
N706 C707 1.388 . S
C707 H678 0.930 . S
C707 C702 1.391 . S
C707 N706 1.388 . S
Co708 O710 2.143 . S
Co708 O716 2.074 . S
Co708 O719 2.093 . S
Co708 O732 2.097 . S
Co708 N749 2.151 . S
Co708 N757 2.214 . S
Co709 O710 2.160 . S
Co709 O715 2.058 . S
Co709 O725 2.057 . S
Co709 O740 2.037 . S
Co709 N744 2.145 . S
Co709 N765 2.257 . S
O710 Co708 2.143 . S
O710 Co709 2.160 . S
C711 O712 1.278 . S
C711 O719 1.224 . S
O712 C711 1.278 . S
C713 O714 1.245 . S
C713 O725 1.232 . S
O714 C713 1.245 . S
O715 Co709 2.058 . S
O715 C741 1.269 . S
O716 Co708 2.074 . S
O716 C741 1.257 . S
H717 C742 0.930 . S
H718 C748 0.930 . S
O719 Co708 2.093 . S
O719 C711 1.224 . S
H720 C752 0.929 . S
H721 C754 0.930 . S
H722 C755 0.930 . S
H723 C753 0.929 . S
H724 C756 0.928 . S
O725 Co709 2.057 . S
O725 C713 1.232 . S
H726 C745 0.929 . S
H727 C746 0.929 . S
H728 C758 0.931 . S
H729 C750 0.929 . S
H730 C759 0.930 . S
H731 C751 0.931 . S
O732 Co708 2.097 . S
O732 C760 1.214 . S
H733 C761 0.929 . S
H734 C762 0.929 . S
H735 C763 0.930 . S
H736 C764 0.929 . S
H737 C766 0.930 . S
H738 C743 0.930 . S
H739 C747 0.930 . S
O740 Co709 2.037 . S
O740 C760 1.234 . S
C741 O715 1.269 . S
C741 O716 1.257 . S
C742 H717 0.930 . S
C742 C745 1.388 . S
C742 C747 1.418 . S
C743 H738 0.930 . S
C743 C746 1.404 . S
C743 C747 1.353 . S
N744 Co709 2.145 . S
N744 C745 1.397 . S
N744 C746 1.334 . S
C745 H726 0.929 . S
C745 C742 1.388 . S
C745 N744 1.397 . S
C746 H727 0.929 . S
C746 C743 1.404 . S
C746 N744 1.334 . S
C747 H739 0.930 . S
C747 C742 1.418 . S
C747 C743 1.353 . S
C748 H718 0.930 . S
C748 N749 1.330 . S
C748 C750 1.446 . S
N749 Co708 2.151 . S
N749 C748 1.330 . S
N749 C753 1.418 . S
C750 H729 0.929 . S
C750 C748 1.446 . S
C750 C751 1.332 . S
C751 H731 0.931 . S
C751 C750 1.332 . S
C751 C752 1.267 . S
C752 H720 0.929 . S
C752 C751 1.267 . S
C752 C753 1.251 . S
C753 H723 0.929 . S
C753 N749 1.418 . S
C753 C752 1.251 . S
C754 H721 0.930 . S
C754 C756 1.406 . S
C754 C759 1.261 . S
C755 H722 0.930 . S
C755 N757 1.325 . S
C755 C758 1.357 . S
C756 H724 0.928 . S
C756 C754 1.406 . S
C756 N757 1.261 . S
N757 Co708 2.214 . S
N757 C755 1.325 . S
N757 C756 1.261 . S
C758 H728 0.931 . S
C758 C755 1.357 . S
C758 C759 1.312 . S
C759 H730 0.930 . S
C759 C754 1.261 . S
C759 C758 1.312 . S
C760 O732 1.214 . S
C760 O740 1.234 . S
C761 H733 0.929 . S
C761 C764 1.391 . S
C761 C766 1.391 . S
C762 H734 0.929 . S
C762 C763 1.390 . S
C762 N765 1.391 . S
C763 H735 0.930 . S
C763 C762 1.390 . S
C763 C764 1.392 . S
C764 H736 0.929 . S
C764 C761 1.391 . S
C764 C763 1.392 . S
N765 Co709 2.257 . S
N765 C762 1.391 . S
N765 C766 1.388 . S
C766 H737 0.930 . S
C766 C761 1.391 . S
C766 N765 1.388 . S
Co767 O769 2.143 . S
Co767 O775 2.074 . S
Co767 O778 2.093 . S
Co767 O791 2.097 . S
Co767 N808 2.151 . S
Co767 N816 2.214 1_455 S
Co768 O769 2.160 . S
Co768 O774 2.058 . S
Co768 O784 2.057 . S
Co768 O799 2.037 . S
Co768 N803 2.145 . S
Co768 N824 2.257 . S
O769 Co767 2.143 . S
O769 Co768 2.160 . S
C770 O771 1.278 . S
C770 O778 1.224 . S
O771 C770 1.278 . S
C772 O773 1.245 . S
C772 O784 1.232 . S
O773 C772 1.245 . S
O774 Co768 2.058 . S
O774 C800 1.269 . S
O775 Co767 2.074 . S
O775 C800 1.257 . S
H776 C801 0.930 . S
H777 C807 0.930 . S
O778 Co767 2.093 . S
O778 C770 1.224 . S
H779 C811 0.929 . S
H780 C813 0.930 . S
H781 C814 0.930 . S
H782 C812 0.929 . S
H783 C815 0.928 . S
O784 Co768 2.057 . S
O784 C772 1.232 . S
H785 C804 0.929 . S
H786 C805 0.929 . S
H787 C817 0.931 . S
H788 C809 0.929 . S
H789 C818 0.930 . S
H790 C810 0.931 . S
O791 Co767 2.097 . S
O791 C819 1.214 . S
H792 C820 0.929 . S
H793 C821 0.929 . S
H794 C822 0.930 . S
H795 C823 0.929 . S
H796 C825 0.930 . S
H797 C802 0.930 . S
H798 C806 0.930 . S
O799 Co768 2.037 . S
O799 C819 1.234 . S
C800 O774 1.269 . S
C800 O775 1.257 . S
C801 H776 0.930 . S
C801 C804 1.388 . S
C801 C806 1.418 . S
C802 H797 0.930 . S
C802 C805 1.404 . S
C802 C806 1.353 . S
N803 Co768 2.145 . S
N803 C804 1.397 . S
N803 C805 1.334 . S
C804 H785 0.929 . S
C804 C801 1.388 . S
C804 N803 1.397 . S
C805 H786 0.929 . S
C805 C802 1.404 . S
C805 N803 1.334 . S
C806 H798 0.930 . S
C806 C801 1.418 . S
C806 C802 1.353 . S
C807 H777 0.930 . S
C807 N808 1.330 . S
C807 C809 1.446 . S
N808 Co767 2.151 . S
N808 C807 1.330 . S
N808 C812 1.418 1_455 S
C809 H788 0.929 . S
C809 C807 1.446 . S
C809 C810 1.332 1_455 S
C810 H790 0.931 . S
C810 C809 1.332 1_655 S
C810 C811 1.267 . S
C811 H779 0.929 . S
C811 C810 1.267 . S
C811 C812 1.251 . S
C812 H782 0.929 . S
C812 N808 1.418 1_655 S
C812 C811 1.251 . S
C813 H780 0.930 . S
C813 C815 1.406 . S
C813 C818 1.261 . S
C814 H781 0.930 . S
C814 N816 1.325 . S
C814 C817 1.357 . S
C815 H783 0.928 . S
C815 C813 1.406 . S
C815 N816 1.261 . S
N816 Co767 2.214 1_655 S
N816 C814 1.325 . S
N816 C815 1.261 . S
C817 H787 0.931 . S
C817 C814 1.357 . S
C817 C818 1.312 . S
C818 H789 0.930 . S
C818 C813 1.261 . S
C818 C817 1.312 . S
C819 O791 1.214 . S
C819 O799 1.234 . S
C820 H792 0.929 . S
C820 C823 1.391 . S
C820 C825 1.391 . S
C821 H793 0.929 . S
C821 C822 1.390 . S
C821 N824 1.391 . S
C822 H794 0.930 . S
C822 C821 1.390 . S
C822 C823 1.392 . S
C823 H795 0.929 . S
C823 C820 1.391 . S
C823 C822 1.392 . S
N824 Co768 2.257 . S
N824 C821 1.391 . S
N824 C825 1.388 . S
C825 H796 0.930 . S
C825 C820 1.391 . S
C825 N824 1.388 . S
Co826 O828 2.143 . S
Co826 O834 2.074 . S
Co826 O837 2.093 . S
Co826 O850 2.097 . S
Co826 N867 2.151 . S
Co826 N875 2.214 1_655 S
Co827 O828 2.160 . S
Co827 O833 2.058 . S
Co827 O843 2.057 . S
Co827 O858 2.037 . S
Co827 N862 2.145 . S
Co827 N883 2.257 . S
O828 Co826 2.143 . S
O828 Co827 2.160 . S
C829 O830 1.278 . S
C829 O837 1.224 . S
O830 C829 1.278 . S
C831 O832 1.245 . S
C831 O843 1.232 . S
O832 C831 1.245 . S
O833 Co827 2.058 . S
O833 C859 1.269 . S
O834 Co826 2.074 . S
O834 C859 1.257 . S
H835 C860 0.930 . S
H836 C866 0.930 . S
O837 Co826 2.093 . S
O837 C829 1.224 . S
H838 C870 0.929 . S
H839 C872 0.930 . S
H840 C873 0.930 . S
H841 C871 0.929 . S
H842 C874 0.928 . S
O843 Co827 2.057 . S
O843 C831 1.232 . S
H844 C863 0.929 . S
H845 C864 0.929 . S
H846 C876 0.931 . S
H847 C868 0.929 . S
H848 C877 0.930 . S
H849 C869 0.931 . S
O850 Co826 2.097 . S
O850 C878 1.214 . S
H851 C879 0.929 . S
H852 C880 0.929 . S
H853 C881 0.930 . S
H854 C882 0.929 . S
H855 C884 0.930 . S
H856 C861 0.930 . S
H857 C865 0.930 . S
O858 Co827 2.037 . S
O858 C878 1.234 . S
C859 O833 1.269 . S
C859 O834 1.257 . S
C860 H835 0.930 . S
C860 C863 1.388 . S
C860 C865 1.418 . S
C861 H856 0.930 . S
C861 C864 1.404 . S
C861 C865 1.353 . S
N862 Co827 2.145 . S
N862 C863 1.397 . S
N862 C864 1.334 . S
C863 H844 0.929 . S
C863 C860 1.388 . S
C863 N862 1.397 . S
C864 H845 0.929 . S
C864 C861 1.404 . S
C864 N862 1.334 . S
C865 H857 0.930 . S
C865 C860 1.418 . S
C865 C861 1.353 . S
C866 H836 0.930 . S
C866 N867 1.330 . S
C866 C868 1.446 . S
N867 Co826 2.151 . S
N867 C866 1.330 . S
N867 C871 1.418 1_655 S
C868 H847 0.929 . S
C868 C866 1.446 . S
C868 C869 1.332 1_655 S
C869 H849 0.931 . S
C869 C868 1.332 1_455 S
C869 C870 1.267 . S
C870 H838 0.929 . S
C870 C869 1.267 . S
C870 C871 1.251 . S
C871 H841 0.929 . S
C871 N867 1.418 1_455 S
C871 C870 1.251 . S
C872 H839 0.930 . S
C872 C874 1.406 . S
C872 C877 1.261 . S
C873 H840 0.930 . S
C873 N875 1.325 . S
C873 C876 1.357 . S
C874 H842 0.928 . S
C874 C872 1.406 . S
C874 N875 1.261 . S
N875 Co826 2.214 1_455 S
N875 C873 1.325 . S
N875 C874 1.261 . S
C876 H846 0.931 . S
C876 C873 1.357 . S
C876 C877 1.312 . S
C877 H848 0.930 . S
C877 C872 1.261 . S
C877 C876 1.312 . S
C878 O850 1.214 . S
C878 O858 1.234 . S
C879 H851 0.929 . S
C879 C882 1.391 . S
C879 C884 1.391 . S
C880 H852 0.929 . S
C880 C881 1.390 . S
C880 N883 1.391 . S
C881 H853 0.930 . S
C881 C880 1.390 . S
C881 C882 1.392 . S
C882 H854 0.929 . S
C882 C879 1.391 . S
C882 C881 1.392 . S
N883 Co827 2.257 . S
N883 C880 1.391 . S
N883 C884 1.388 . S
C884 H855 0.930 . S
C884 C879 1.391 . S
C884 N883 1.388 . S
Co885 O887 2.143 . S
Co885 O893 2.074 . S
Co885 O896 2.093 . S
Co885 O909 2.097 . S
Co885 N926 2.151 . S
Co885 N934 2.214 . S
Co886 O887 2.160 . S
Co886 O892 2.058 . S
Co886 O902 2.057 . S
Co886 O917 2.037 . S
Co886 N921 2.145 . S
Co886 N942 2.257 . S
O887 Co885 2.143 . S
O887 Co886 2.160 . S
C888 O889 1.278 . S
C888 O896 1.224 . S
O889 C888 1.278 . S
C890 O891 1.245 . S
C890 O902 1.232 . S
O891 C890 1.245 . S
O892 Co886 2.058 . S
O892 C918 1.269 . S
O893 Co885 2.074 . S
O893 C918 1.257 . S
H894 C919 0.930 . S
H895 C925 0.930 . S
O896 Co885 2.093 . S
O896 C888 1.224 . S
H897 C929 0.929 . S
H898 C931 0.930 . S
H899 C932 0.930 . S
H900 C930 0.929 . S
H901 C933 0.928 . S
O902 Co886 2.057 . S
O902 C890 1.232 . S
H903 C922 0.929 . S
H904 C923 0.929 . S
H905 C935 0.931 . S
H906 C927 0.929 . S
H907 C936 0.930 . S
H908 C928 0.931 . S
O909 Co885 2.097 . S
O909 C937 1.214 . S
H910 C938 0.929 . S
H911 C939 0.929 . S
H912 C940 0.930 . S
H913 C941 0.929 . S
H914 C943 0.930 . S
H915 C920 0.930 . S
H916 C924 0.930 . S
O917 Co886 2.037 . S
O917 C937 1.234 . S
C918 O892 1.269 . S
C918 O893 1.257 . S
C919 H894 0.930 . S
C919 C922 1.388 . S
C919 C924 1.418 . S
C920 H915 0.930 . S
C920 C923 1.404 . S
C920 C924 1.353 . S
N921 Co886 2.145 . S
N921 C922 1.397 . S
N921 C923 1.334 . S
C922 H903 0.929 . S
C922 C919 1.388 . S
C922 N921 1.397 . S
C923 H904 0.929 . S
C923 C920 1.404 . S
C923 N921 1.334 . S
C924 H916 0.930 . S
C924 C919 1.418 . S
C924 C920 1.353 . S
C925 H895 0.930 . S
C925 N926 1.330 . S
C925 C927 1.446 . S
N926 Co885 2.151 . S
N926 C925 1.330 . S
N926 C930 1.418 . S
C927 H906 0.929 . S
C927 C925 1.446 . S
C927 C928 1.332 . S
C928 H908 0.931 . S
C928 C927 1.332 . S
C928 C929 1.267 . S
C929 H897 0.929 . S
C929 C928 1.267 . S
C929 C930 1.251 . S
C930 H900 0.929 . S
C930 N926 1.418 . S
C930 C929 1.251 . S
C931 H898 0.930 . S
C931 C933 1.406 . S
C931 C936 1.261 . S
C932 H899 0.930 . S
C932 N934 1.325 . S
C932 C935 1.357 . S
C933 H901 0.928 . S
C933 C931 1.406 . S
C933 N934 1.261 . S
N934 Co885 2.214 . S
N934 C932 1.325 . S
N934 C933 1.261 . S
C935 H905 0.931 . S
C935 C932 1.357 . S
C935 C936 1.312 . S
C936 H907 0.930 . S
C936 C931 1.261 . S
C936 C935 1.312 . S
C937 O909 1.214 . S
C937 O917 1.234 . S
C938 H910 0.929 . S
C938 C941 1.391 . S
C938 C943 1.391 . S
C939 H911 0.929 . S
C939 C940 1.390 . S
C939 N942 1.391 . S
C940 H912 0.930 . S
C940 C939 1.390 . S
C940 C941 1.392 . S
C941 H913 0.929 . S
C941 C938 1.391 . S
C941 C940 1.392 . S
N942 Co886 2.257 . S
N942 C939 1.391 . S
N942 C943 1.388 . S
C943 H914 0.930 . S
C943 C938 1.391 . S
C943 N942 1.388 . S
H944 C950 0.930 . S
H945 C953 0.930 . S
H946 C954 0.930 . S
H947 C955 0.930 . S
H948 C958 0.930 . S
H949 C959 0.930 . S
C950 H944 0.930 . S
C950 C951 1.355 . S
C950 C952 1.415 . S
C951 C950 1.355 . S
C951 C953 1.419 . S
C952 C950 1.415 . S
C952 C957 1.425 1_565 S
C952 C959 1.409 . S
C953 H945 0.930 . S
C953 C951 1.419 . S
C953 C954 1.362 1_565 S
C954 H946 0.930 . S
C954 C953 1.362 1_545 S
C954 C957 1.409 . S
C955 H947 0.930 . S
C955 C956 1.355 . S
C955 C957 1.415 . S
C956 C955 1.355 . S
C956 C958 1.419 . S
C957 C952 1.425 1_545 S
C957 C954 1.409 . S
C957 C955 1.415 . S
C958 H948 0.930 . S
C958 C956 1.419 . S
C958 C959 1.362 1_545 S
C959 H949 0.930 . S
C959 C952 1.409 . S
C959 C958 1.362 1_565 S
H960 C966 0.931 . S
H961 C969 0.930 . S
H962 C970 0.930 . S
H963 C971 0.931 . S
H964 C974 0.930 . S
H965 C975 0.930 . S
C966 H960 0.931 . S
C966 C967 1.355 . S
C966 C968 1.415 1_565 S
C967 C966 1.355 . S
C967 C969 1.419 . S
C968 C966 1.415 1_545 S
C968 C973 1.425 1_545 S
C968 C975 1.409 . S
C969 H961 0.930 . S
C969 C967 1.419 . S
C969 C970 1.362 . S
C970 H962 0.930 . S
C970 C969 1.362 . S
C970 C973 1.409 . S
C971 H963 0.931 . S
C971 C972 1.355 . S
C971 C973 1.415 1_545 S
C972 C971 1.355 . S
C972 C974 1.419 . S
C973 C968 1.425 1_565 S
C973 C970 1.409 . S
C973 C971 1.415 1_565 S
C974 H964 0.930 . S
C974 C972 1.419 . S
C974 C975 1.362 . S
C975 H965 0.930 . S
C975 C968 1.409 . S
C975 C974 1.362 . S
H976 C982 0.930 . S
H977 C985 0.930 . S
H978 C986 0.930 . S
H979 C987 0.930 . S
H980 C990 0.930 . S
H981 C991 0.930 . S
C982 H976 0.930 . S
C982 C983 1.355 . S
C982 C984 1.415 . S
C983 C982 1.355 . S
C983 C985 1.419 1_565 S
C984 C982 1.415 . S
C984 C989 1.425 1_565 S
C984 C991 1.409 . S
C985 H977 0.930 . S
C985 C983 1.419 1_545 S
C985 C986 1.362 . S
C986 H978 0.930 . S
C986 C985 1.362 . S
C986 C989 1.409 . S
C987 H979 0.930 . S
C987 C988 1.355 . S
C987 C989 1.415 . S
C988 C987 1.355 . S
C988 C990 1.419 1_545 S
C989 C984 1.425 1_545 S
C989 C986 1.409 . S
C989 C987 1.415 . S
C990 H980 0.930 . S
C990 C988 1.419 1_565 S
C990 C991 1.362 . S
C991 H981 0.930 . S
C991 C984 1.409 . S
C991 C990 1.362 . S
H992 C998 0.930 . S
H993 C1001 0.930 . S
H994 C1002 0.930 . S
H995 C1003 0.930 . S
H996 C1006 0.930 . S
H997 C1007 0.930 . S
C998 H992 0.930 . S
C998 C999 1.355 1_545 S
C998 C1000 1.415 . S
C999 C998 1.355 1_565 S
C999 C1001 1.419 . S
C1000 C998 1.415 . S
C1000 C1005 1.425 1_545 S
C1000 C1007 1.409 . S
C1001 H993 0.930 . S
C1001 C999 1.419 . S
C1001 C1002 1.362 . S
C1002 H994 0.930 . S
C1002 C1001 1.362 . S
C1002 C1005 1.409 . S
C1003 H995 0.930 . S
C1003 C1004 1.355 1_565 S
C1003 C1005 1.415 . S
C1004 C1003 1.355 1_545 S
C1004 C1006 1.419 . S
C1005 C1000 1.425 1_565 S
C1005 C1002 1.409 . S
C1005 C1003 1.415 . S
C1006 H996 0.930 . S
C1006 C1004 1.419 . S
C1006 C1007 1.362 . S
C1007 H997 0.930 . S
C1007 C1000 1.409 . S
C1007 C1006 1.362 . S
H1008 C1014 0.930 . S
H1009 C1017 0.930 . S
H1010 C1018 0.930 . S
H1011 C1019 0.930 . S
H1012 C1022 0.930 . S
H1013 C1023 0.930 . S
C1014 H1008 0.930 . S
C1014 C1015 1.355 . S
C1014 C1016 1.415 . S
C1015 C1014 1.355 . S
C1015 C1017 1.419 . S
C1016 C1014 1.415 . S
C1016 C1021 1.425 . S
C1016 C1023 1.409 . S
C1017 H1009 0.930 . S
C1017 C1015 1.419 . S
C1017 C1018 1.362 . S
C1018 H1010 0.930 . S
C1018 C1017 1.362 . S
C1018 C1021 1.409 . S
C1019 H1011 0.930 . S
C1019 C1020 1.355 . S
C1019 C1021 1.415 . S
C1020 C1019 1.355 . S
C1020 C1022 1.419 . S
C1021 C1016 1.425 . S
C1021 C1018 1.409 . S
C1021 C1019 1.415 . S
C1022 H1012 0.930 . S
C1022 C1020 1.419 . S
C1022 C1023 1.362 . S
C1023 H1013 0.930 . S
C1023 C1016 1.409 . S
C1023 C1022 1.362 . S
H1024 C1030 0.930 . S
H1025 C1033 0.930 . S
H1026 C1034 0.930 . S
H1027 C1035 0.930 . S
H1028 C1038 0.930 . S
H1029 C1039 0.930 . S
C1030 H1024 0.930 . S
C1030 C1031 1.355 . S
C1030 C1032 1.415 . S
C1031 C1030 1.355 . S
C1031 C1033 1.419 . S
C1032 C1030 1.415 . S
C1032 C1037 1.425 . S
C1032 C1039 1.409 . S
C1033 H1025 0.930 . S
C1033 C1031 1.419 . S
C1033 C1034 1.362 . S
C1034 H1026 0.930 . S
C1034 C1033 1.362 . S
C1034 C1037 1.409 . S
C1035 H1027 0.930 . S
C1035 C1036 1.355 . S
C1035 C1037 1.415 . S
C1036 C1035 1.355 . S
C1036 C1038 1.419 . S
C1037 C1032 1.425 . S
C1037 C1034 1.409 . S
C1037 C1035 1.415 . S
C1038 H1028 0.930 . S
C1038 C1036 1.419 . S
C1038 C1039 1.362 . S
C1039 H1029 0.930 . S
C1039 C1032 1.409 . S
C1039 C1038 1.362 . S
H1040 C1046 0.930 . S
H1041 C1049 0.930 . S
H1042 C1050 0.930 . S
H1043 C1051 0.930 . S
H1044 C1054 0.930 . S
H1045 C1055 0.930 . S
C1046 H1040 0.930 . S
C1046 C1047 1.355 . S
C1046 C1048 1.415 . S
C1047 C1046 1.355 . S
C1047 C1049 1.419 . S
C1048 C1046 1.415 . S
C1048 C1053 1.425 . S
C1048 C1055 1.409 . S
C1049 H1041 0.930 . S
C1049 C1047 1.419 . S
C1049 C1050 1.362 . S
C1050 H1042 0.930 . S
C1050 C1049 1.362 . S
C1050 C1053 1.409 . S
C1051 H1043 0.930 . S
C1051 C1052 1.355 . S
C1051 C1053 1.415 . S
C1052 C1051 1.355 . S
C1052 C1054 1.419 . S
C1053 C1048 1.425 . S
C1053 C1050 1.409 . S
C1053 C1051 1.415 . S
C1054 H1044 0.930 . S
C1054 C1052 1.419 . S
C1054 C1055 1.362 . S
C1055 H1045 0.930 . S
C1055 C1048 1.409 . S
C1055 C1054 1.362 . S
H1056 C1062 0.930 . S
H1057 C1065 0.930 . S
H1058 C1066 0.930 . S
H1059 C1067 0.930 . S
H1060 C1070 0.930 . S
H1061 C1071 0.930 . S
C1062 H1056 0.930 . S
C1062 C1063 1.355 . S
C1062 C1064 1.415 . S
C1063 C1062 1.355 . S
C1063 C1065 1.419 . S
C1064 C1062 1.415 . S
C1064 C1069 1.425 . S
C1064 C1071 1.409 . S
C1065 H1057 0.930 . S
C1065 C1063 1.419 . S
C1065 C1066 1.362 . S
C1066 H1058 0.930 . S
C1066 C1065 1.362 . S
C1066 C1069 1.409 . S
C1067 H1059 0.930 . S
C1067 C1068 1.355 . S
C1067 C1069 1.415 . S
C1068 C1067 1.355 . S
C1068 C1070 1.419 . S
C1069 C1064 1.425 . S
C1069 C1066 1.409 . S
C1069 C1067 1.415 . S
C1070 H1060 0.930 . S
C1070 C1068 1.419 . S
C1070 C1071 1.362 . S
C1071 H1061 0.930 . S
C1071 C1064 1.409 . S
C1071 C1070 1.362 . S
H1072 C1078 0.930 1_455 S
H1073 C1081 0.930 . S
H1074 C1082 0.930 . S
H1075 C1083 0.930 1_655 S
H1076 C1086 0.930 . S
H1077 C1087 0.930 . S
C1078 H1072 0.930 1_655 S
C1078 C1079 1.355 . S
C1078 C1080 1.415 1_655 S
C1079 C1078 1.355 . S
C1079 C1081 1.419 . S
C1080 C1078 1.415 1_455 S
C1080 C1085 1.425 1_455 S
C1080 C1087 1.409 . S
C1081 H1073 0.930 . S
C1081 C1079 1.419 . S
C1081 C1082 1.362 . S
C1082 H1074 0.930 . S
C1082 C1081 1.362 . S
C1082 C1085 1.409 . S
C1083 H1075 0.930 1_455 S
C1083 C1084 1.355 . S
C1083 C1085 1.415 1_455 S
C1084 C1083 1.355 . S
C1084 C1086 1.419 . S
C1085 C1080 1.425 1_655 S
C1085 C1082 1.409 . S
C1085 C1083 1.415 1_655 S
C1086 H1076 0.930 . S
C1086 C1084 1.419 . S
C1086 C1087 1.362 . S
C1087 H1077 0.930 . S
C1087 C1080 1.409 . S
C1087 C1086 1.362 . S
H1088 C1094 0.930 . S
H1089 C1097 0.930 . S
H1090 C1098 0.930 . S
H1091 C1099 0.930 . S
H1092 C1102 0.930 . S
H1093 C1103 0.930 . S
C1094 H1088 0.930 . S
C1094 C1095 1.355 . S
C1094 C1096 1.415 . S
C1095 C1094 1.355 . S
C1095 C1097 1.419 . S
C1096 C1094 1.415 . S
C1096 C1101 1.425 . S
C1096 C1103 1.409 . S
C1097 H1089 0.930 . S
C1097 C1095 1.419 . S
C1097 C1098 1.362 . S
C1098 H1090 0.930 . S
C1098 C1097 1.362 . S
C1098 C1101 1.409 . S
C1099 H1091 0.930 . S
C1099 C1100 1.355 . S
C1099 C1101 1.415 . S
C1100 C1099 1.355 . S
C1100 C1102 1.419 . S
C1101 C1096 1.425 . S
C1101 C1098 1.409 . S
C1101 C1099 1.415 . S
C1102 H1092 0.930 . S
C1102 C1100 1.419 . S
C1102 C1103 1.362 . S
C1103 H1093 0.930 . S
C1103 C1096 1.409 . S
C1103 C1102 1.362 . S
H1104 C1110 0.930 . S
H1105 C1113 0.930 . S
H1106 C1114 0.930 . S
H1107 C1115 0.930 . S
H1108 C1118 0.930 . S
H1109 C1119 0.930 1_545 S
C1110 H1104 0.930 . S
C1110 C1111 1.355 . S
C1110 C1112 1.415 . S
C1111 C1110 1.355 . S
C1111 C1113 1.419 . S
C1112 C1110 1.415 . S
C1112 C1117 1.425 1_455 S
C1112 C1119 1.409 . S
C1113 H1105 0.930 . S
C1113 C1111 1.419 . S
C1113 C1114 1.362 1_455 S
C1114 H1106 0.930 . S
C1114 C1113 1.362 1_655 S
C1114 C1117 1.409 . S
C1115 H1107 0.930 . S
C1115 C1116 1.355 . S
C1115 C1117 1.415 . S
C1116 C1115 1.355 . S
C1116 C1118 1.419 . S
C1117 C1112 1.425 1_655 S
C1117 C1114 1.409 . S
C1117 C1115 1.415 . S
C1118 H1108 0.930 . S
C1118 C1116 1.419 . S
C1118 C1119 1.362 1_655 S
C1119 H1109 0.930 1_565 S
C1119 C1112 1.409 . S
C1119 C1118 1.362 1_455 S
H1120 C1126 0.930 . S
H1121 C1129 0.930 . S
H1122 C1130 0.930 . S
H1123 C1131 0.930 . S
H1124 C1134 0.930 . S
H1125 C1135 0.930 . S
C1126 H1120 0.930 . S
C1126 C1127 1.355 . S
C1126 C1128 1.415 . S
C1127 C1126 1.355 . S
C1127 C1129 1.419 . S
C1128 C1126 1.415 . S
C1128 C1133 1.425 . S
C1128 C1135 1.409 . S
C1129 H1121 0.930 . S
C1129 C1127 1.419 . S
C1129 C1130 1.362 . S
C1130 H1122 0.930 . S
C1130 C1129 1.362 . S
C1130 C1133 1.409 . S
C1131 H1123 0.930 . S
C1131 C1132 1.355 . S
C1131 C1133 1.415 . S
C1132 C1131 1.355 . S
C1132 C1134 1.419 . S
C1133 C1128 1.425 . S
C1133 C1130 1.409 . S
C1133 C1131 1.415 . S
C1134 H1124 0.930 . S
C1134 C1132 1.419 . S
C1134 C1135 1.362 . S
C1135 H1125 0.930 . S
C1135 C1128 1.409 . S
C1135 C1134 1.362 . S
H1136 C1142 0.930 . S
H1137 C1145 0.930 . S
H1138 C1146 0.930 . S
H1139 C1147 0.930 . S
H1140 C1150 0.930 . S
H1141 C1151 0.930 . S
C1142 H1136 0.930 . S
C1142 C1143 1.355 . S
C1142 C1144 1.415 . S
C1143 C1142 1.355 . S
C1143 C1145 1.419 . S
C1144 C1142 1.415 . S
C1144 C1149 1.425 . S
C1144 C1151 1.409 . S
C1145 H1137 0.930 . S
C1145 C1143 1.419 . S
C1145 C1146 1.362 . S
C1146 H1138 0.930 . S
C1146 C1145 1.362 . S
C1146 C1149 1.409 . S
C1147 H1139 0.930 . S
C1147 C1148 1.355 . S
C1147 C1149 1.415 . S
C1148 C1147 1.355 . S
C1148 C1150 1.419 . S
C1149 C1144 1.425 . S
C1149 C1146 1.409 . S
C1149 C1147 1.415 . S
C1150 H1140 0.930 . S
C1150 C1148 1.419 . S
C1150 C1151 1.362 . S
C1151 H1141 0.930 . S
C1151 C1144 1.409 . S
C1151 C1150 1.362 . S
H1152 C1158 0.930 . S
H1153 C1161 0.930 . S
H1154 C1162 0.930 . S
H1155 C1163 0.930 . S
H1156 C1166 0.930 . S
H1157 C1167 0.930 . S
C1158 H1152 0.930 . S
C1158 C1159 1.355 . S
C1158 C1160 1.415 . S
C1159 C1158 1.355 . S
C1159 C1161 1.419 1_455 S
C1160 C1158 1.415 . S
C1160 C1165 1.425 1_455 S
C1160 C1167 1.409 . S
C1161 H1153 0.930 . S
C1161 C1159 1.419 1_655 S
C1161 C1162 1.362 . S
C1162 H1154 0.930 . S
C1162 C1161 1.362 . S
C1162 C1165 1.409 . S
C1163 H1155 0.930 . S
C1163 C1164 1.355 . S
C1163 C1165 1.415 . S
C1164 C1163 1.355 . S
C1164 C1166 1.419 1_655 S
C1165 C1160 1.425 1_655 S
C1165 C1162 1.409 . S
C1165 C1163 1.415 . S
C1166 H1156 0.930 . S
C1166 C1164 1.419 1_455 S
C1166 C1167 1.362 . S
C1167 H1157 0.930 . S
C1167 C1160 1.409 . S
C1167 C1166 1.362 . S
H1168 C1174 0.930 . S
H1169 C1177 0.930 . S
H1170 C1178 0.930 . S
H1171 C1179 0.930 . S
H1172 C1182 0.930 . S
H1173 C1183 0.930 . S
C1174 H1168 0.930 . S
C1174 C1175 1.355 . S
C1174 C1176 1.415 . S
C1175 C1174 1.355 . S
C1175 C1177 1.419 . S
C1176 C1174 1.415 . S
C1176 C1181 1.425 . S
C1176 C1183 1.409 . S
C1177 H1169 0.930 . S
C1177 C1175 1.419 . S
C1177 C1178 1.362 . S
C1178 H1170 0.930 . S
C1178 C1177 1.362 . S
C1178 C1181 1.409 . S
C1179 H1171 0.930 . S
C1179 C1180 1.355 . S
C1179 C1181 1.415 . S
C1180 C1179 1.355 . S
C1180 C1182 1.419 . S
C1181 C1176 1.425 . S
C1181 C1178 1.409 . S
C1181 C1179 1.415 . S
C1182 H1172 0.930 . S
C1182 C1180 1.419 . S
C1182 C1183 1.362 . S
C1183 H1173 0.930 . S
C1183 C1176 1.409 . S
C1183 C1182 1.362 . S
H1184 C1190 0.930 . S
H1185 C1193 0.930 . S
H1186 C1194 0.930 . S
H1187 C1195 0.930 . S
H1188 C1198 0.930 . S
H1189 C1199 0.930 . S
C1190 H1184 0.930 . S
C1190 C1191 1.355 . S
C1190 C1192 1.415 . S
C1191 C1190 1.355 . S
C1191 C1193 1.419 1_455 S
C1192 C1190 1.415 . S
C1192 C1197 1.425 1_455 S
C1192 C1199 1.409 . S
C1193 H1185 0.930 . S
C1193 C1191 1.419 1_655 S
C1193 C1194 1.362 . S
C1194 H1186 0.930 . S
C1194 C1193 1.362 . S
C1194 C1197 1.409 . S
C1195 H1187 0.930 . S
C1195 C1196 1.355 . S
C1195 C1197 1.415 . S
C1196 C1195 1.355 . S
C1196 C1198 1.419 1_655 S
C1197 C1192 1.425 1_655 S
C1197 C1194 1.409 . S
C1197 C1195 1.415 . S
C1198 H1188 0.930 . S
C1198 C1196 1.419 1_455 S
C1198 C1199 1.362 . S
C1199 H1189 0.930 . S
C1199 C1192 1.409 . S
C1199 C1198 1.362 . S
H1200 C1206 0.930 . S
H1201 C1209 0.930 . S
H1202 C1210 0.930 . S
H1203 C1211 0.930 . S
H1204 C1214 0.930 . S
H1205 C1215 0.930 . S
C1206 H1200 0.930 . S
C1206 C1207 1.355 . S
C1206 C1208 1.415 . S
C1207 C1206 1.355 . S
C1207 C1209 1.419 1_455 S
C1208 C1206 1.415 . S
C1208 C1213 1.425 1_455 S
C1208 C1215 1.409 . S
C1209 H1201 0.930 . S
C1209 C1207 1.419 1_655 S
C1209 C1210 1.362 . S
C1210 H1202 0.930 . S
C1210 C1209 1.362 . S
C1210 C1213 1.409 . S
C1211 H1203 0.930 . S
C1211 C1212 1.355 . S
C1211 C1213 1.415 . S
C1212 C1211 1.355 . S
C1212 C1214 1.419 1_655 S
C1213 C1208 1.425 1_655 S
C1213 C1210 1.409 . S
C1213 C1211 1.415 . S
C1214 H1204 0.930 . S
C1214 C1212 1.419 1_455 S
C1214 C1215 1.362 . S
C1215 H1205 0.930 . S
C1215 C1208 1.409 . S
C1215 C1214 1.362 . S
H1216 C1222 0.930 . S
H1217 C1225 0.930 . S
H1218 C1226 0.930 . S
H1219 C1227 0.930 . S
H1220 C1230 0.930 . S
H1221 C1231 0.930 . S
C1222 H1216 0.930 . S
C1222 C1223 1.355 . S
C1222 C1224 1.415 . S
C1223 C1222 1.355 . S
C1223 C1225 1.419 . S
C1224 C1222 1.415 . S
C1224 C1229 1.425 . S
C1224 C1231 1.409 . S
C1225 H1217 0.930 . S
C1225 C1223 1.419 . S
C1225 C1226 1.362 . S
C1226 H1218 0.930 . S
C1226 C1225 1.362 . S
C1226 C1229 1.409 . S
C1227 H1219 0.930 . S
C1227 C1228 1.355 . S
C1227 C1229 1.415 . S
C1228 C1227 1.355 . S
C1228 C1230 1.419 . S
C1229 C1224 1.425 . S
C1229 C1226 1.409 . S
C1229 C1227 1.415 . S
C1230 H1220 0.930 . S
C1230 C1228 1.419 . S
C1230 C1231 1.362 . S
C1231 H1221 0.930 . S
C1231 C1224 1.409 . S
C1231 C1230 1.362 . S
H1232 C1238 0.930 . S
H1233 C1241 0.930 . S
H1234 C1242 0.930 . S
H1235 C1243 0.930 . S
H1236 C1246 0.930 . S
H1237 C1247 0.930 . S
C1238 H1232 0.930 . S
C1238 C1239 1.355 . S
C1238 C1240 1.415 . S
C1239 C1238 1.355 . S
C1239 C1241 1.419 . S
C1240 C1238 1.415 . S
C1240 C1245 1.425 . S
C1240 C1247 1.409 . S
C1241 H1233 0.930 . S
C1241 C1239 1.419 . S
C1241 C1242 1.362 . S
C1242 H1234 0.930 . S
C1242 C1241 1.362 . S
C1242 C1245 1.409 . S
C1243 H1235 0.930 . S
C1243 C1244 1.355 . S
C1243 C1245 1.415 . S
C1244 C1243 1.355 . S
C1244 C1246 1.419 . S
C1245 C1240 1.425 . S
C1245 C1242 1.409 . S
C1245 C1243 1.415 . S
C1246 H1236 0.930 . S
C1246 C1244 1.419 . S
C1246 C1247 1.362 . S
C1247 H1237 0.930 . S
C1247 C1240 1.409 . S
C1247 C1246 1.362 . S
H1248 C1254 0.930 . S
H1249 C1257 0.930 . S
H1250 C1258 0.930 . S
H1251 C1259 0.930 . S
H1252 C1262 0.930 . S
H1253 C1263 0.930 . S
C1254 H1248 0.930 . S
C1254 C1255 1.355 . S
C1254 C1256 1.415 . S
C1255 C1254 1.355 . S
C1255 C1257 1.419 1_455 S
C1256 C1254 1.415 . S
C1256 C1261 1.425 1_455 S
C1256 C1263 1.409 . S
C1257 H1249 0.930 . S
C1257 C1255 1.419 1_655 S
C1257 C1258 1.362 . S
C1258 H1250 0.930 . S
C1258 C1257 1.362 . S
C1258 C1261 1.409 . S
C1259 H1251 0.930 . S
C1259 C1260 1.355 . S
C1259 C1261 1.415 . S
C1260 C1259 1.355 . S
C1260 C1262 1.419 1_655 S
C1261 C1256 1.425 1_655 S
C1261 C1258 1.409 . S
C1261 C1259 1.415 . S
C1262 H1252 0.930 . S
C1262 C1260 1.419 1_455 S
C1262 C1263 1.362 . S
C1263 H1253 0.930 . S
C1263 C1256 1.409 . S
C1263 C1262 1.362 . S
H1264 C1270 0.930 . S
H1265 C1273 0.930 . S
H1266 C1274 0.930 . S
H1267 C1275 0.930 . S
H1268 C1278 0.930 . S
H1269 C1279 0.930 . S
C1270 H1264 0.930 . S
C1270 C1271 1.355 . S
C1270 C1272 1.415 . S
C1271 C1270 1.355 . S
C1271 C1273 1.419 1_455 S
C1272 C1270 1.415 . S
C1272 C1277 1.425 1_455 S
C1272 C1279 1.409 . S
C1273 H1265 0.930 . S
C1273 C1271 1.419 1_655 S
C1273 C1274 1.362 . S
C1274 H1266 0.930 . S
C1274 C1273 1.362 . S
C1274 C1277 1.409 . S
C1275 H1267 0.930 . S
C1275 C1276 1.355 . S
C1275 C1277 1.415 . S
C1276 C1275 1.355 . S
C1276 C1278 1.419 1_655 S
C1277 C1272 1.425 1_655 S
C1277 C1274 1.409 . S
C1277 C1275 1.415 . S
C1278 H1268 0.930 . S
C1278 C1276 1.419 1_455 S
C1278 C1279 1.362 . S
C1279 H1269 0.930 . S
C1279 C1272 1.409 . S
C1279 C1278 1.362 . S
H1280 C1286 0.930 . S
H1281 C1289 0.930 . S
H1282 C1290 0.930 . S
H1283 C1291 0.930 . S
H1284 C1294 0.930 . S
H1285 C1295 0.930 . S
C1286 H1280 0.930 . S
C1286 C1287 1.355 . S
C1286 C1288 1.415 . S
C1287 C1286 1.355 . S
C1287 C1289 1.419 . S
C1288 C1286 1.415 . S
C1288 C1293 1.425 . S
C1288 C1295 1.409 . S
C1289 H1281 0.930 . S
C1289 C1287 1.419 . S
C1289 C1290 1.362 . S
C1290 H1282 0.930 . S
C1290 C1289 1.362 . S
C1290 C1293 1.409 . S
C1291 H1283 0.930 . S
C1291 C1292 1.355 . S
C1291 C1293 1.415 . S
C1292 C1291 1.355 . S
C1292 C1294 1.419 . S
C1293 C1288 1.425 . S
C1293 C1290 1.409 . S
C1293 C1291 1.415 . S
C1294 H1284 0.930 . S
C1294 C1292 1.419 . S
C1294 C1295 1.362 . S
C1295 H1285 0.930 . S
C1295 C1288 1.409 . S
C1295 C1294 1.362 . S
H1296 C1302 0.930 . S
H1297 C1305 0.930 . S
H1298 C1306 0.930 . S
H1299 C1307 0.930 . S
H1300 C1310 0.930 . S
H1301 C1311 0.930 . S
C1302 H1296 0.930 . S
C1302 C1303 1.355 . S
C1302 C1304 1.415 . S
C1303 C1302 1.355 . S
C1303 C1305 1.419 . S
C1304 C1302 1.415 . S
C1304 C1309 1.425 . S
C1304 C1311 1.409 . S
C1305 H1297 0.930 . S
C1305 C1303 1.419 . S
C1305 C1306 1.362 . S
C1306 H1298 0.930 . S
C1306 C1305 1.362 . S
C1306 C1309 1.409 . S
C1307 H1299 0.930 . S
C1307 C1308 1.355 . S
C1307 C1309 1.415 . S
C1308 C1307 1.355 . S
C1308 C1310 1.419 . S
C1309 C1304 1.425 . S
C1309 C1306 1.409 . S
C1309 C1307 1.415 . S
C1310 H1300 0.930 . S
C1310 C1308 1.419 . S
C1310 C1311 1.362 . S
C1311 H1301 0.930 . S
C1311 C1304 1.409 . S
C1311 C1310 1.362 . S
H1312 C1318 0.930 . S
H1313 C1321 0.930 . S
H1314 C1322 0.930 . S
H1315 C1323 0.930 . S
H1316 C1326 0.930 . S
H1317 C1327 0.930 . S
C1318 H1312 0.930 . S
C1318 C1319 1.355 . S
C1318 C1320 1.415 . S
C1319 C1318 1.355 . S
C1319 C1321 1.419 1_455 S
C1320 C1318 1.415 . S
C1320 C1325 1.425 1_455 S
C1320 C1327 1.409 . S
C1321 H1313 0.930 . S
C1321 C1319 1.419 1_655 S
C1321 C1322 1.362 . S
C1322 H1314 0.930 . S
C1322 C1321 1.362 . S
C1322 C1325 1.409 . S
C1323 H1315 0.930 . S
C1323 C1324 1.355 . S
C1323 C1325 1.415 . S
C1324 C1323 1.355 . S
C1324 C1326 1.419 1_655 S
C1325 C1320 1.425 1_655 S
C1325 C1322 1.409 . S
C1325 C1323 1.415 . S
C1326 H1316 0.930 . S
C1326 C1324 1.419 1_455 S
C1326 C1327 1.362 . S
C1327 H1317 0.930 . S
C1327 C1320 1.409 . S
C1327 C1326 1.362 . S
H1328 C1334 0.930 . S
H1329 C1337 0.930 . S
H1330 C1338 0.930 . S
H1331 C1339 0.930 . S
H1332 C1342 0.930 . S
H1333 C1343 0.930 . S
C1334 H1328 0.930 . S
C1334 C1335 1.355 . S
C1334 C1336 1.415 1_556 S
C1335 C1334 1.355 . S
C1335 C1337 1.419 1_655 S
C1336 C1334 1.415 1_554 S
C1336 C1341 1.425 1_664 S
C1336 C1343 1.409 . S
C1337 H1329 0.930 . S
C1337 C1335 1.419 1_455 S
C1337 C1338 1.362 1_565 S
C1338 H1330 0.930 . S
C1338 C1337 1.362 1_545 S
C1338 C1341 1.409 . S
C1339 H1331 0.930 . S
C1339 C1340 1.355 . S
C1339 C1341 1.415 1_554 S
C1340 C1339 1.355 . S
C1340 C1342 1.419 1_455 S
C1341 C1336 1.425 1_446 S
C1341 C1338 1.409 . S
C1341 C1339 1.415 1_556 S
C1342 H1332 0.930 . S
C1342 C1340 1.419 1_655 S
C1342 C1343 1.362 1_545 S
C1343 H1333 0.930 . S
C1343 C1336 1.409 . S
C1343 C1342 1.362 1_565 S
H1344 C1350 0.930 . S
H1345 C1353 0.930 . S
H1346 C1354 0.930 1_554 S
H1347 C1355 0.930 . S
H1348 C1358 0.930 . S
H1349 C1359 0.930 1_556 S
C1350 H1344 0.930 . S
C1350 C1351 1.355 1_565 S
C1350 C1352 1.415 . S
C1351 C1350 1.355 1_545 S
C1351 C1353 1.419 . S
C1352 C1350 1.415 . S
C1352 C1357 1.425 1_566 S
C1352 C1359 1.409 1_556 S
C1353 H1345 0.930 . S
C1353 C1351 1.419 . S
C1353 C1354 1.362 . S
C1354 H1346 0.930 1_556 S
C1354 C1353 1.362 . S
C1354 C1357 1.409 1_556 S
C1355 H1347 0.930 . S
C1355 C1356 1.355 1_545 S
C1355 C1357 1.415 . S
C1356 C1355 1.355 1_565 S
C1356 C1358 1.419 . S
C1357 C1352 1.425 1_544 S
C1357 C1354 1.409 1_554 S
C1357 C1355 1.415 . S
C1358 H1348 0.930 . S
C1358 C1356 1.419 . S
C1358 C1359 1.362 . S
C1359 H1349 0.930 1_554 S
C1359 C1352 1.409 1_554 S
C1359 C1358 1.362 . S
H1360 C1366 0.930 . S
H1361 C1369 0.933 . S
H1362 C1370 0.930 . S
H1363 C1371 0.930 . S
H1364 C1374 0.933 . S
H1365 C1375 0.930 . S
C1366 H1360 0.930 . S
C1366 C1367 1.355 . S
C1366 C1368 1.415 . S
C1367 C1366 1.355 . S
C1367 C1369 1.408 1_545 S
C1368 C1366 1.415 . S
C1368 C1373 1.425 1_545 S
C1368 C1375 1.409 . S
C1369 H1361 0.933 . S
C1369 C1367 1.408 1_565 S
C1369 C1370 1.371 . S
C1370 H1362 0.930 . S
C1370 C1369 1.371 . S
C1370 C1373 1.409 . S
C1371 H1363 0.930 . S
C1371 C1372 1.355 . S
C1371 C1373 1.415 . S
C1372 C1371 1.355 . S
C1372 C1374 1.408 1_565 S
C1373 C1368 1.425 1_565 S
C1373 C1370 1.409 . S
C1373 C1371 1.415 . S
C1374 H1364 0.933 . S
C1374 C1372 1.408 1_545 S
C1374 C1375 1.371 . S
C1375 H1365 0.930 . S
C1375 C1368 1.409 . S
C1375 C1374 1.371 . S
H1376 C1382 0.930 . S
H1377 C1385 0.929 1_655 S
H1378 C1386 0.930 . S
H1379 C1387 0.930 . S
H1380 C1390 0.929 1_455 S
H1381 C1391 0.930 . S
C1382 H1376 0.930 . S
C1382 C1383 1.355 1_545 S
C1382 C1384 1.415 . S
C1383 C1382 1.355 1_565 S
C1383 C1385 1.419 . S
C1384 C1382 1.415 . S
C1384 C1389 1.425 1_445 S
C1384 C1391 1.409 . S
C1385 H1377 0.929 1_455 S
C1385 C1383 1.419 . S
C1385 C1386 1.362 1_455 S
C1386 H1378 0.930 . S
C1386 C1385 1.362 1_655 S
C1386 C1389 1.409 . S
C1387 H1379 0.930 . S
C1387 C1388 1.355 1_565 S
C1387 C1389 1.415 . S
C1388 C1387 1.355 1_545 S
C1388 C1390 1.419 . S
C1389 C1384 1.425 1_665 S
C1389 C1386 1.409 . S
C1389 C1387 1.415 . S
C1390 H1380 0.929 1_655 S
C1390 C1388 1.419 . S
C1390 C1391 1.362 1_655 S
C1391 H1381 0.930 . S
C1391 C1384 1.409 . S
C1391 C1390 1.362 1_455 S
H1392 C1398 0.930 . S
H1393 C1401 0.930 . S
H1394 C1402 0.930 1_556 S
H1395 C1403 0.930 . S
H1396 C1406 0.930 . S
H1397 C1407 0.930 1_554 S
C1398 H1392 0.930 . S
C1398 C1399 1.355 . S
C1398 C1400 1.415 . S
C1399 C1398 1.355 . S
C1399 C1401 1.419 . S
C1400 C1398 1.415 . S
C1400 C1405 1.425 1_554 S
C1400 C1407 1.409 1_554 S
C1401 H1393 0.930 . S
C1401 C1399 1.419 . S
C1401 C1402 1.362 . S
C1402 H1394 0.930 1_554 S
C1402 C1401 1.362 . S
C1402 C1405 1.409 1_554 S
C1403 H1395 0.930 . S
C1403 C1404 1.355 . S
C1403 C1405 1.415 . S
C1404 C1403 1.355 . S
C1404 C1406 1.419 . S
C1405 C1400 1.425 1_556 S
C1405 C1402 1.409 1_556 S
C1405 C1403 1.415 . S
C1406 H1396 0.930 . S
C1406 C1404 1.419 . S
C1406 C1407 1.362 . S
C1407 H1397 0.930 1_556 S
C1407 C1400 1.409 1_556 S
C1407 C1406 1.362 . S
H1408 C1414 0.930 . S
H1409 C1417 0.930 . S
H1410 C1418 0.930 . S
H1411 C1419 0.930 . S
H1412 C1422 0.930 . S
H1413 C1423 0.930 . S
C1414 H1408 0.930 . S
C1414 C1415 1.355 1_455 S
C1414 C1416 1.415 . S
C1415 C1414 1.355 1_655 S
C1415 C1417 1.419 . S
C1416 C1414 1.415 . S
C1416 C1421 1.425 1_454 S
C1416 C1423 1.409 . S
C1417 H1409 0.930 . S
C1417 C1415 1.419 . S
C1417 C1418 1.362 1_554 S
C1418 H1410 0.930 . S
C1418 C1417 1.362 1_556 S
C1418 C1421 1.409 . S
C1419 H1411 0.930 . S
C1419 C1420 1.355 1_655 S
C1419 C1421 1.415 . S
C1420 C1419 1.355 1_455 S
C1420 C1422 1.419 . S
C1421 C1416 1.425 1_656 S
C1421 C1418 1.409 . S
C1421 C1419 1.415 . S
C1422 H1412 0.930 . S
C1422 C1420 1.419 . S
C1422 C1423 1.362 1_556 S
C1423 H1413 0.930 . S
C1423 C1416 1.409 . S
C1423 C1422 1.362 1_554 S
H1424 C1430 0.930 . S
H1425 C1433 0.930 . S
H1426 C1434 0.930 . S
H1427 C1435 0.930 . S
H1428 C1438 0.930 . S
H1429 C1439 0.930 . S
C1430 H1424 0.930 . S
C1430 C1431 1.355 1_455 S
C1430 C1432 1.415 . S
C1431 C1430 1.355 1_655 S
C1431 C1433 1.419 . S
C1432 C1430 1.415 . S
C1432 C1437 1.425 1_455 S
C1432 C1439 1.409 . S
C1433 H1425 0.930 . S
C1433 C1431 1.419 . S
C1433 C1434 1.362 . S
C1434 H1426 0.930 . S
C1434 C1433 1.362 . S
C1434 C1437 1.409 . S
C1435 H1427 0.930 . S
C1435 C1436 1.355 1_655 S
C1435 C1437 1.415 . S
C1436 C1435 1.355 1_455 S
C1436 C1438 1.419 . S
C1437 C1432 1.425 1_655 S
C1437 C1434 1.409 . S
C1437 C1435 1.415 . S
C1438 H1428 0.930 . S
C1438 C1436 1.419 . S
C1438 C1439 1.362 . S
C1439 H1429 0.930 . S
C1439 C1432 1.409 . S
C1439 C1438 1.362 . S
H1440 C1446 0.930 . S
H1441 C1449 0.930 . S
H1442 C1450 0.930 . S
H1443 C1451 0.930 . S
H1444 C1454 0.930 . S
H1445 C1455 0.930 . S
C1446 H1440 0.930 . S
C1446 C1447 1.355 . S
C1446 C1448 1.415 . S
C1447 C1446 1.355 . S
C1447 C1449 1.419 . S
C1448 C1446 1.415 . S
C1448 C1453 1.425 . S
C1448 C1455 1.409 . S
C1449 H1441 0.930 . S
C1449 C1447 1.419 . S
C1449 C1450 1.362 . S
C1450 H1442 0.930 . S
C1450 C1449 1.362 . S
C1450 C1453 1.409 . S
C1451 H1443 0.930 . S
C1451 C1452 1.355 . S
C1451 C1453 1.415 . S
C1452 C1451 1.355 . S
C1452 C1454 1.419 . S
C1453 C1448 1.425 . S
C1453 C1450 1.409 . S
C1453 C1451 1.415 . S
C1454 H1444 0.930 . S
C1454 C1452 1.419 . S
C1454 C1455 1.362 . S
C1455 H1445 0.930 . S
C1455 C1448 1.409 . S
C1455 C1454 1.362 . S
C951 C64 1.551 . S
C956 C5 1.551 . S
C967 C123 1.545 . S
C972 C182 1.545 . S
C983 C241 1.560 . S
C988 C300 1.560 . S
C999 C418 1.542 . S
C1004 C359 1.542 . S
C1015 C536 1.549 . S
C1020 C477 1.549 . S
C1031 C654 1.542 . S
C1036 C595 1.542 . S
C1047 C772 1.544 . S
C1052 C713 1.544 . S
C1063 C890 1.544 . S
C1068 C831 1.544 . S
C1079 C210 1.571 . S
C1084 C33 1.566 . S
C1095 C92 1.549 . S
C1100 C151 1.556 . S
C1111 C446 1.554 . S
C1116 C269 1.567 . S
C1127 C387 1.568 . S
C1132 C328 1.555 . S
C1143 C505 1.562 . S
C1148 C682 1.571 . S
C1159 C623 1.554 . S
C1164 C564 1.549 . S
C1175 C918 1.562 . S
C1180 C741 1.571 . S
C1191 C800 1.549 . S
C1196 C859 1.553 . S
C1207 C52 1.575 . S
C1212 C583 1.571 . S
C1223 C111 1.574 . S
C1228 C524 1.569 . S
C1239 C701 1.565 . S
C1244 C170 1.559 . S
C1255 C642 1.577 . S
C1260 C229 1.575 . S
C1271 C819 1.577 . S
C1276 C288 1.575 . S
C1287 C760 1.566 . S
C1292 C347 1.560 . S
C1303 C406 1.568 . S
C1308 C937 1.573 . S
C1319 C465 1.577 . S
C1324 C878 1.574 . S
C1335 C239 1.534 . S
C1340 C3 1.534 . S
C1351 C298 1.520 . S
C1356 C62 1.520 . S
C1367 C357 1.542 . S
C1372 C121 1.542 . S
C1383 C416 1.520 . S
C1388 C180 1.520 . S
C1399 C475 1.524 . S
C1404 C711 1.524 . S
C1415 C534 1.540 . S
C1420 C770 1.540 . S
C1431 C829 1.538 . S
C1436 C593 1.538 . S
C1447 C888 1.539 . S
C1452 C652 1.539 . S
