# Generated by pormake.
# Topology vbb, (4)-cn, num edge types: 1
# Building blocks:
#     Node 0, Type 0, BuildingBlock: KOZSID_clean_sbu_0, # of connection points: 4
#     Node 1, Type 0, BuildingBlock: KOZSID_clean_sbu_0, # of connection points: 4
#     Node 2, Type 0, BuildingBlock: KOZSID_clean_sbu_0, # of connection points: 4
#     Node 3, Type 0, BuildingBlock: KOZSID_clean_sbu_0, # of connection points: 4
#     Node 4, Type 0, BuildingBlock: KOZSID_clean_sbu_0, # of connection points: 4
#     Node 5, Type 0, BuildingBlock: KOZSID_clean_sbu_0, # of connection points: 4
#     Node 6, Type 0, BuildingBlock: KOZSID_clean_sbu_0, # of connection points: 4
#     Node 7, Type 0, BuildingBlock: KOZSID_clean_sbu_0, # of connection points: 4
#     Node 8, Type 0, BuildingBlock: KOZSID_clean_sbu_0, # of connection points: 4
#     Node 9, Type 0, BuildingBlock: KOZSID_clean_sbu_0, # of connection points: 4
#     Node 10, Type 0, BuildingBlock: KOZSID_clean_sbu_0, # of connection points: 4
#     Node 11, Type 0, BuildingBlock: KOZSID_clean_sbu_0, # of connection points: 4
#     Node 12, Type 0, BuildingBlock: KOZSID_clean_sbu_0, # of connection points: 4
#     Node 13, Type 0, BuildingBlock: KOZSID_clean_sbu_0, # of connection points: 4
#     Node 14, Type 0, BuildingBlock: KOZSID_clean_sbu_0, # of connection points: 4
#     Node 15, Type 0, BuildingBlock: KOZSID_clean_sbu_0, # of connection points: 4
#     Node 16, Type 0, BuildingBlock: KOZSID_clean_sbu_0, # of connection points: 4
#     Node 17, Type 0, BuildingBlock: KOZSID_clean_sbu_0, # of connection points: 4
#     Node 18, Type 0, BuildingBlock: KOZSID_clean_sbu_0, # of connection points: 4
#     Node 19, Type 0, BuildingBlock: KOZSID_clean_sbu_0, # of connection points: 4
#     Node 20, Type 0, BuildingBlock: KOZSID_clean_sbu_0, # of connection points: 4
#     Node 21, Type 0, BuildingBlock: KOZSID_clean_sbu_0, # of connection points: 4
#     Node 22, Type 0, BuildingBlock: KOZSID_clean_sbu_0, # of connection points: 4
#     Node 23, Type 0, BuildingBlock: KOZSID_clean_sbu_0, # of connection points: 4
#     Node 24, Type 0, BuildingBlock: KOZSID_clean_sbu_0, # of connection points: 4
#     Node 25, Type 0, BuildingBlock: KOZSID_clean_sbu_0, # of connection points: 4
#     Node 26, Type 0, BuildingBlock: KOZSID_clean_sbu_0, # of connection points: 4
#     Node 27, Type 0, BuildingBlock: KOZSID_clean_sbu_0, # of connection points: 4
#     Node 28, Type 0, BuildingBlock: KOZSID_clean_sbu_0, # of connection points: 4
#     Node 29, Type 0, BuildingBlock: KOZSID_clean_sbu_0, # of connection points: 4
#     Node 30, Type 0, BuildingBlock: KOZSID_clean_sbu_0, # of connection points: 4
#     Node 31, Type 0, BuildingBlock: KOZSID_clean_sbu_0, # of connection points: 4
#     Edge 32, Type (0, 0), BuildingBlock: KIFKEQ_clean_linker_1, # of connection points: 2
#     Edge 33, Type (0, 0), BuildingBlock: KIFKEQ_clean_linker_1, # of connection points: 2
#     Edge 34, Type (0, 0), BuildingBlock: KIFKEQ_clean_linker_1, # of connection points: 2
#     Edge 35, Type (0, 0), BuildingBlock: KIFKEQ_clean_linker_1, # of connection points: 2
#     Edge 36, Type (0, 0), BuildingBlock: KIFKEQ_clean_linker_1, # of connection points: 2
#     Edge 37, Type (0, 0), BuildingBlock: KIFKEQ_clean_linker_1, # of connection points: 2
#     Edge 38, Type (0, 0), BuildingBlock: KIFKEQ_clean_linker_1, # of connection points: 2
#     Edge 39, Type (0, 0), BuildingBlock: KIFKEQ_clean_linker_1, # of connection points: 2
#     Edge 40, Type (0, 0), BuildingBlock: KIFKEQ_clean_linker_1, # of connection points: 2
#     Edge 41, Type (0, 0), BuildingBlock: KIFKEQ_clean_linker_1, # of connection points: 2
#     Edge 42, Type (0, 0), BuildingBlock: KIFKEQ_clean_linker_1, # of connection points: 2
#     Edge 43, Type (0, 0), BuildingBlock: KIFKEQ_clean_linker_1, # of connection points: 2
#     Edge 44, Type (0, 0), BuildingBlock: KIFKEQ_clean_linker_1, # of connection points: 2
#     Edge 45, Type (0, 0), BuildingBlock: KIFKEQ_clean_linker_1, # of connection points: 2
#     Edge 46, Type (0, 0), BuildingBlock: KIFKEQ_clean_linker_1, # of connection points: 2
#     Edge 47, Type (0, 0), BuildingBlock: KIFKEQ_clean_linker_1, # of connection points: 2
#     Edge 48, Type (0, 0), BuildingBlock: KIFKEQ_clean_linker_1, # of connection points: 2
#     Edge 49, Type (0, 0), BuildingBlock: KIFKEQ_clean_linker_1, # of connection points: 2
#     Edge 50, Type (0, 0), BuildingBlock: KIFKEQ_clean_linker_1, # of connection points: 2
#     Edge 51, Type (0, 0), BuildingBlock: KIFKEQ_clean_linker_1, # of connection points: 2
#     Edge 52, Type (0, 0), BuildingBlock: KIFKEQ_clean_linker_1, # of connection points: 2
#     Edge 53, Type (0, 0), BuildingBlock: KIFKEQ_clean_linker_1, # of connection points: 2
#     Edge 54, Type (0, 0), BuildingBlock: KIFKEQ_clean_linker_1, # of connection points: 2
#     Edge 55, Type (0, 0), BuildingBlock: KIFKEQ_clean_linker_1, # of connection points: 2
#     Edge 56, Type (0, 0), BuildingBlock: KIFKEQ_clean_linker_1, # of connection points: 2
#     Edge 57, Type (0, 0), BuildingBlock: KIFKEQ_clean_linker_1, # of connection points: 2
#     Edge 58, Type (0, 0), BuildingBlock: KIFKEQ_clean_linker_1, # of connection points: 2
#     Edge 59, Type (0, 0), BuildingBlock: KIFKEQ_clean_linker_1, # of connection points: 2
#     Edge 60, Type (0, 0), BuildingBlock: KIFKEQ_clean_linker_1, # of connection points: 2
#     Edge 61, Type (0, 0), BuildingBlock: KIFKEQ_clean_linker_1, # of connection points: 2
#     Edge 62, Type (0, 0), BuildingBlock: KIFKEQ_clean_linker_1, # of connection points: 2
#     Edge 63, Type (0, 0), BuildingBlock: KIFKEQ_clean_linker_1, # of connection points: 2
#     Edge 64, Type (0, 0), BuildingBlock: KIFKEQ_clean_linker_1, # of connection points: 2
#     Edge 65, Type (0, 0), BuildingBlock: KIFKEQ_clean_linker_1, # of connection points: 2
#     Edge 66, Type (0, 0), BuildingBlock: KIFKEQ_clean_linker_1, # of connection points: 2
#     Edge 67, Type (0, 0), BuildingBlock: KIFKEQ_clean_linker_1, # of connection points: 2
#     Edge 68, Type (0, 0), BuildingBlock: KIFKEQ_clean_linker_1, # of connection points: 2
#     Edge 69, Type (0, 0), BuildingBlock: KIFKEQ_clean_linker_1, # of connection points: 2
#     Edge 70, Type (0, 0), BuildingBlock: KIFKEQ_clean_linker_1, # of connection points: 2
#     Edge 71, Type (0, 0), BuildingBlock: KIFKEQ_clean_linker_1, # of connection points: 2
#     Edge 72, Type (0, 0), BuildingBlock: KIFKEQ_clean_linker_1, # of connection points: 2
#     Edge 73, Type (0, 0), BuildingBlock: KIFKEQ_clean_linker_1, # of connection points: 2
#     Edge 74, Type (0, 0), BuildingBlock: KIFKEQ_clean_linker_1, # of connection points: 2
#     Edge 75, Type (0, 0), BuildingBlock: KIFKEQ_clean_linker_1, # of connection points: 2
#     Edge 76, Type (0, 0), BuildingBlock: KIFKEQ_clean_linker_1, # of connection points: 2
#     Edge 77, Type (0, 0), BuildingBlock: KIFKEQ_clean_linker_1, # of connection points: 2
#     Edge 78, Type (0, 0), BuildingBlock: KIFKEQ_clean_linker_1, # of connection points: 2
#     Edge 79, Type (0, 0), BuildingBlock: KIFKEQ_clean_linker_1, # of connection points: 2
#     Edge 80, Type (0, 0), BuildingBlock: KIFKEQ_clean_linker_1, # of connection points: 2
#     Edge 81, Type (0, 0), BuildingBlock: KIFKEQ_clean_linker_1, # of connection points: 2
#     Edge 82, Type (0, 0), BuildingBlock: KIFKEQ_clean_linker_1, # of connection points: 2
#     Edge 83, Type (0, 0), BuildingBlock: KIFKEQ_clean_linker_1, # of connection points: 2
#     Edge 84, Type (0, 0), BuildingBlock: KIFKEQ_clean_linker_1, # of connection points: 2
#     Edge 85, Type (0, 0), BuildingBlock: KIFKEQ_clean_linker_1, # of connection points: 2
#     Edge 86, Type (0, 0), BuildingBlock: KIFKEQ_clean_linker_1, # of connection points: 2
#     Edge 87, Type (0, 0), BuildingBlock: KIFKEQ_clean_linker_1, # of connection points: 2
#     Edge 88, Type (0, 0), BuildingBlock: KIFKEQ_clean_linker_1, # of connection points: 2
#     Edge 89, Type (0, 0), BuildingBlock: KIFKEQ_clean_linker_1, # of connection points: 2
#     Edge 90, Type (0, 0), BuildingBlock: KIFKEQ_clean_linker_1, # of connection points: 2
#     Edge 91, Type (0, 0), BuildingBlock: KIFKEQ_clean_linker_1, # of connection points: 2
#     Edge 92, Type (0, 0), BuildingBlock: KIFKEQ_clean_linker_1, # of connection points: 2
#     Edge 93, Type (0, 0), BuildingBlock: KIFKEQ_clean_linker_1, # of connection points: 2
#     Edge 94, Type (0, 0), BuildingBlock: KIFKEQ_clean_linker_1, # of connection points: 2
#     Edge 95, Type (0, 0), BuildingBlock: KIFKEQ_clean_linker_1, # of connection points: 2
# Relax obj value: 0.043
# Max RMSD: 0.155
# Mean RMSD: 0.153
data_MOF--net-vbb--node1-KOZSID_clean_sbu_0--edge1-KIFKEQ_clean_linker_1
_symmetry_space_group_name_H-M    P1
_symmetry_Int_Tables_number       1
_symmetry_cell_setting            triclinic
loop_
_symmetry_equiv_pos_as_xyz
'x, y, z'
_cell_length_a     66.360154
_cell_length_b     41.953848
_cell_length_c     126.31204
_cell_angle_alpha  89.777653
_cell_angle_beta   89.923132
_cell_angle_gamma 89.992292
loop_
_atom_site_label
_atom_site_type_symbol
_atom_site_fract_x
_atom_site_fract_y
_atom_site_fract_z
_atom_type_partial_charge
C0 C 0.49456 0.07285 0.08893 0.0
C1 C 0.48222 0.09878 0.09109 0.0
C2 C 0.47702 0.11179 0.08157 0.0
C3 C 0.48616 0.09285 0.07418 0.0
N4 N 0.49648 0.06814 0.07834 0.0
Co5 Co 0.51063 0.03382 0.07024 0.0
N6 N 0.49962 0.04967 0.05646 0.0
C7 C 0.49037 0.07788 0.05483 0.0
C8 C 0.48487 0.08311 0.04453 0.0
C9 C 0.49102 0.0566 0.03923 0.0
C10 C 0.4999 0.03648 0.04667 0.0
N11 N 0.52444 0.99936 0.06207 0.0
C12 C 0.52227 0.99017 0.0518 0.0
C13 C 0.53502 0.96497 0.04942 0.0
C14 C 0.54574 0.95845 0.05843 0.0
C15 C 0.53893 0.97987 0.0658 0.0
N16 N 0.52196 0.01869 0.0841 0.0
C17 C 0.5368 0.99698 0.08522 0.0
C18 C 0.54297 0.99296 0.0955 0.0
C19 C 0.5317 0.01396 0.10126 0.0
C20 C 0.51917 0.02964 0.09416 0.0
N21 N 0.48694 0.00525 0.072 0.0
C22 C 0.45437 0.96123 0.0726 0.0
C23 C 0.47399 0.95216 0.07542 0.0
C24 C 0.48984 0.97427 0.07511 0.0
C25 C 0.45137 0.99341 0.06981 0.0
C26 C 0.46776 0.01488 0.06954 0.0
N27 N 0.53479 0.06128 0.06838 0.0
C28 C 0.56519 0.07327 0.0585 0.0
C29 C 0.57354 0.0893 0.06718 0.0
C30 C 0.56143 0.09278 0.07621 0.0
C31 C 0.54225 0.07873 0.07663 0.0
C32 C 0.5458 0.05996 0.0592 0.0
H33 H 0.53392 0.08113 0.08384 0.0
H34 H 0.54013 0.0476 0.05238 0.0
H35 H 0.50458 0.9658 0.0772 0.0
H36 H 0.4649 0.03909 0.0671 0.0
C37 C 0.48458 0.09678 0.0633 0.0
C38 C 0.50688 0.05745 0.09711 0.0
C39 C 0.50956 0.00624 0.04389 0.0
C40 C 0.54426 0.98039 0.07648 0.0
H41 H 0.47828 0.10829 0.09878 0.0
H42 H 0.46782 0.13271 0.08021 0.0
H43 H 0.47682 0.10337 0.04131 0.0
H44 H 0.48927 0.05278 0.03082 0.0
H45 H 0.53658 0.95286 0.04191 0.0
H46 H 0.55691 0.93993 0.05952 0.0
H47 H 0.55456 0.97707 0.09843 0.0
H48 H 0.53312 0.01811 0.10968 0.0
H49 H 0.47721 0.92792 0.07786 0.0
H50 H 0.43656 1.00183 0.06754 0.0
H51 H 0.57365 0.07071 0.05121 0.0
H52 H 0.56703 0.10514 0.08312 0.0
C53 C 0.78994 0.18361 0.0889 0.0
C54 C 0.80238 0.15828 0.09165 0.0
C55 C 0.81401 0.15183 0.08294 0.0
C56 C 0.80815 0.17363 0.07542 0.0
N57 N 0.79362 0.19341 0.07887 0.0
Co58 Co 0.78146 0.22894 0.07074 0.0
N59 N 0.78993 0.20989 0.05709 0.0
C60 C 0.80414 0.18723 0.05586 0.0
C61 C 0.80685 0.17842 0.04552 0.0
C62 C 0.79378 0.19702 0.03985 0.0
C63 C 0.78388 0.21646 0.04708 0.0
N64 N 0.76949 0.26471 0.06257 0.0
C65 C 0.76573 0.26746 0.05203 0.0
C66 C 0.75816 0.29747 0.04965 0.0
C67 C 0.7574 0.31404 0.05901 0.0
C68 C 0.76456 0.29336 0.06658 0.0
N69 N 0.77312 0.24726 0.08454 0.0
C70 C 0.76767 0.27769 0.08622 0.0
C71 C 0.7613 0.28269 0.09645 0.0
C72 C 0.76291 0.25362 0.10146 0.0
C73 C 0.77036 0.23238 0.09403 0.0
N74 N 0.80714 0.25313 0.0714 0.0
C75 C 0.84027 0.29587 0.07255 0.0
C76 C 0.83357 0.27877 0.08152 0.0
C77 C 0.81712 0.25755 0.08077 0.0
C78 C 0.8303 0.2899 0.06296 0.0
C79 C 0.81407 0.26857 0.06255 0.0
N80 N 0.75548 0.2061 0.07003 0.0
C81 C 0.71926 0.20835 0.07172 0.0
C82 C 0.71724 0.17658 0.06849 0.0
C83 C 0.7351 0.15961 0.0663 0.0
C84 C 0.75404 0.17478 0.06713 0.0
C85 C 0.73824 0.22253 0.07235 0.0
H86 H 0.76748 0.16134 0.06532 0.0
H87 H 0.73882 0.24711 0.07469 0.0
H88 H 0.81215 0.24535 0.08785 0.0
H89 H 0.80668 0.26561 0.05504 0.0
C90 C 0.81275 0.17212 0.06465 0.0
C91 C 0.77547 0.19863 0.09611 0.0
C92 C 0.77103 0.24347 0.044 0.0
C93 C 0.76451 0.29833 0.07759 0.0
H94 H 0.80293 0.14569 0.09914 0.0
H95 H 0.82471 0.13255 0.08205 0.0
H96 H 0.81686 0.16024 0.04248 0.0
H97 H 0.79216 0.19688 0.03132 0.0
H98 H 0.75398 0.30659 0.04193 0.0
H99 H 0.75193 0.33808 0.06016 0.0
H100 H 0.75503 0.30436 0.09971 0.0
H101 H 0.75872 0.24869 0.10957 0.0
H102 H 0.84086 0.2818 0.08911 0.0
H103 H 0.83445 0.30248 0.05579 0.0
H104 H 0.70623 0.22247 0.07385 0.0
H105 H 0.7345 0.13503 0.06375 0.0
C106 C 0.49663 0.18054 0.17004 0.0
C107 C 0.48407 0.15509 0.16764 0.0
C108 C 0.47306 0.14874 0.17658 0.0
C109 C 0.47938 0.17072 0.18387 0.0
N110 N 0.49363 0.19052 0.18008 0.0
Co111 Co 0.50599 0.22658 0.18779 0.0
N112 N 0.49824 0.20797 0.20169 0.0
C113 C 0.4843 0.18506 0.20326 0.0
C114 C 0.48214 0.17658 0.21368 0.0
C115 C 0.49529 0.19566 0.21906 0.0
C116 C 0.50467 0.21505 0.21157 0.0
N117 N 0.51807 0.26289 0.19557 0.0
C118 C 0.52212 0.26626 0.20605 0.0
C119 C 0.52955 0.29651 0.20813 0.0
C120 C 0.52992 0.31261 0.19863 0.0
C121 C 0.52269 0.29142 0.19129 0.0
N122 N 0.51365 0.24441 0.17376 0.0
C123 C 0.51893 0.2748 0.17181 0.0
C124 C 0.52462 0.27955 0.16145 0.0
C125 C 0.52271 0.25035 0.15663 0.0
C126 C 0.51578 0.2293 0.16431 0.0
N127 N 0.48017 0.25041 0.18724 0.0
C128 C 0.44711 0.29333 0.18605 0.0
C129 C 0.45347 0.27572 0.17717 0.0
C130 C 0.46987 0.25443 0.17794 0.0
C131 C 0.45735 0.28769 0.1956 0.0
C132 C 0.47352 0.26624 0.19605 0.0
N133 N 0.53217 0.20417 0.18835 0.0
C134 C 0.56836 0.20709 0.18639 0.0
C135 C 0.57068 0.17523 0.18951 0.0
C136 C 0.553 0.1579 0.19185 0.0
C137 C 0.53393 0.1728 0.19123 0.0
C138 C 0.54925 0.22094 0.1859 0.0
H139 H 0.52063 0.1591 0.19316 0.0
H140 H 0.54843 0.24553 0.18353 0.0
H141 H 0.47459 0.24189 0.17091 0.0
H142 H 0.48114 0.26355 0.20351 0.0
C143 C 0.47535 0.16953 0.19471 0.0
C144 C 0.51047 0.19556 0.16246 0.0
C145 C 0.51726 0.2426 0.21433 0.0
C146 C 0.52232 0.29586 0.18025 0.0
H147 H 0.48299 0.14238 0.16022 0.0
H148 H 0.46243 0.12948 0.17776 0.0
H149 H 0.47241 0.15834 0.21698 0.0
H150 H 0.49727 0.19591 0.22756 0.0
H151 H 0.53389 0.30608 0.21574 0.0
H152 H 0.53518 0.33668 0.19724 0.0
H153 H 0.53055 0.30119 0.15794 0.0
H154 H 0.52627 0.24521 0.14846 0.0
H155 H 0.44594 0.27843 0.16962 0.0
H156 H 0.45346 0.30062 0.20272 0.0
H157 H 0.58127 0.22148 0.18421 0.0
H158 H 0.55386 0.1332 0.19431 0.0
C159 C 0.787 0.07729 0.16897 0.0
C160 C 0.79935 0.10272 0.16619 0.0
C161 C 0.81066 0.10973 0.17494 0.0
C162 C 0.80471 0.08814 0.18251 0.0
N163 N 0.79043 0.06795 0.17907 0.0
Co164 Co 0.77844 0.03233 0.18727 0.0
N165 N 0.78657 0.05189 0.2009 0.0
C166 C 0.80042 0.0751 0.20209 0.0
C167 C 0.80294 0.08424 0.21241 0.0
C168 C 0.79013 0.06527 0.21811 0.0
C169 C 0.7806 0.04527 0.21093 0.0
N170 N 0.76673 0.99642 0.19551 0.0
C171 C 0.76316 0.99357 0.20608 0.0
C172 C 0.75591 0.96339 0.2085 0.0
C173 C 0.75519 0.94678 0.19916 0.0
C174 C 0.76204 0.96761 0.19155 0.0
N175 N 0.77038 0.01356 0.17349 0.0
C176 C 0.76509 0.98303 0.17188 0.0
C177 C 0.759 0.97763 0.16164 0.0
C178 C 0.76062 0.00656 0.15653 0.0
C179 C 0.76779 0.02809 0.16393 0.0
N180 N 0.80433 0.00866 0.18668 0.0
C181 C 0.83768 0.9663 0.1856 0.0
C182 C 0.83094 0.98319 0.17661 0.0
C183 C 0.81438 0.00421 0.17732 0.0
C184 C 0.82765 0.97233 0.19519 0.0
C185 C 0.81133 0.9935 0.19557 0.0
N186 N 0.75223 0.05462 0.18785 0.0
C187 C 0.71604 0.05176 0.18592 0.0
C188 C 0.71386 0.08406 0.18843 0.0
C189 C 0.73152 0.10132 0.19076 0.0
C190 C 0.75054 0.08622 0.19037 0.0
C191 C 0.7351 0.03767 0.1857 0.0
H192 H 0.76386 0.10004 0.19209 0.0
H193 H 0.73586 0.01278 0.18376 0.0
H194 H 0.80938 0.01621 0.17022 0.0
H195 H 0.80392 0.99655 0.20308 0.0
C196 C 0.80904 0.09014 0.19329 0.0
C197 C 0.77286 0.06178 0.16173 0.0
C198 C 0.7684 0.0176 0.2141 0.0
C199 C 0.76204 0.9625 0.18055 0.0
H200 H 0.80006 0.11501 0.15865 0.0
H201 H 0.82121 0.12921 0.17582 0.0
H202 H 0.81269 0.10279 0.21541 0.0
H203 H 0.7885 0.06546 0.22664 0.0
H204 H 0.75196 0.95417 0.21625 0.0
H205 H 0.74998 0.92258 0.19804 0.0
H206 H 0.75296 0.95577 0.15841 0.0
H207 H 0.75668 0.0112 0.14837 0.0
H208 H 0.83828 0.98016 0.16903 0.0
H209 H 0.83182 0.95993 0.20239 0.0
H210 H 0.703 0.03707 0.18427 0.0
H211 H 0.73071 0.1264 0.1927 0.0
C212 C 0.52025 0.9806 0.91427 0.0
C213 C 0.51448 1.00221 0.90652 0.0
C214 C 0.51255 0.0313 0.91144 0.0
C215 C 0.51728 0.0259 0.9219 0.0
N216 N 0.52199 0.99526 0.9238 0.0
Co217 Co 0.5294 0.97702 0.93777 0.0
N218 N 0.51729 0.01314 0.9456 0.0
C219 C 0.51283 0.04185 0.94142 0.0
C220 C 0.50474 0.06231 0.94876 0.0
C221 C 0.50433 0.04547 0.95813 0.0
C222 C 0.51229 0.01558 0.95601 0.0
N223 N 0.53708 0.9583 0.95162 0.0
C224 C 0.5305 0.9652 0.96149 0.0
C225 C 0.54081 0.94723 0.96902 0.0
C226 C 0.55428 0.92863 0.96363 0.0
C227 C 0.55155 0.93626 0.95317 0.0
N228 N 0.5416 0.94089 0.93 0.0
C229 C 0.55554 0.92059 0.93381 0.0
C230 C 0.56099 0.89763 0.92665 0.0
C231 C 0.54982 0.90397 0.91777 0.0
C232 C 0.53821 0.93067 0.92002 0.0
N233 N 0.5553 1.00061 0.93726 0.0
C234 C 0.58877 0.04266 0.93607 0.0
C235 C 0.57819 0.03779 0.94558 0.0
C236 C 0.56177 0.01677 0.94602 0.0
C237 C 0.58251 0.02482 0.92724 0.0
C238 C 0.56589 1.00395 0.92801 0.0
N239 N 0.5032 0.95483 0.93827 0.0
C240 C 0.48223 0.90877 0.94179 0.0
C241 C 0.46487 0.92561 0.93865 0.0
C242 C 0.46724 0.95735 0.93547 0.0
C243 C 0.48628 0.97143 0.93541 0.0
C244 C 0.50129 0.92374 0.94145 0.0
H245 H 0.48721 0.99601 0.93303 0.0
H246 H 0.51445 0.91025 0.94374 0.0
H247 H 0.55386 0.01461 0.95344 0.0
H248 H 0.56128 0.99117 0.92101 0.0
C249 C 0.51369 0.04678 0.93039 0.0
C250 C 0.52512 0.94684 0.91233 0.0
C251 C 0.51631 0.9909 0.96411 0.0
C252 C 0.5601 0.92014 0.9446 0.0
H253 H 0.51191 0.9974 0.89822 0.0
H254 H 0.50738 0.05335 0.90789 0.0
H255 H 0.49922 0.08626 0.94742 0.0
H256 H 0.49894 0.0543 0.96566 0.0
H257 H 0.53916 0.94793 0.97754 0.0
H258 H 0.5645 0.91114 0.96694 0.0
H259 H 0.57112 0.87775 0.92789 0.0
H260 H 0.5502 0.89041 0.91051 0.0
H261 H 0.58203 0.05096 0.95265 0.0
H262 H 0.59029 0.02699 0.91973 0.0
H263 H 0.48114 0.88412 0.9443 0.0
H264 H 0.45433 0.97154 0.93313 0.0
C265 C 0.26971 0.77839 0.9131 0.0
C266 C 0.27732 0.75746 0.90561 0.0
C267 C 0.27929 0.72835 0.91057 0.0
C268 C 0.27295 0.73302 0.92082 0.0
N269 N 0.26718 0.76327 0.92256 0.0
Co270 Co 0.25874 0.78113 0.9364 0.0
N271 N 0.27123 0.74571 0.9445 0.0
C272 C 0.27662 0.71733 0.94045 0.0
C273 C 0.28477 0.6973 0.94793 0.0
C274 C 0.28419 0.71402 0.95727 0.0
C275 C 0.27557 0.7434 0.95499 0.0
N276 N 0.25004 0.79964 0.95008 0.0
C277 C 0.25608 0.79299 0.96008 0.0
C278 C 0.2449 0.81044 0.96737 0.0
C279 C 0.23141 0.82832 0.96172 0.0
C280 C 0.23497 0.82085 0.95133 0.0
N281 N 0.24612 0.8164 0.92836 0.0
C282 C 0.23119 0.83535 0.93183 0.0
C283 C 0.22506 0.85717 0.92437 0.0
C284 C 0.23692 0.85154 0.91568 0.0
C285 C 0.24974 0.82663 0.91837 0.0
N286 N 0.23338 0.75617 0.93574 0.0
C287 C 0.20108 0.71208 0.93453 0.0
C288 C 0.21101 0.71809 0.94411 0.0
C289 C 0.22686 0.74007 0.94456 0.0
C290 C 0.20708 0.73012 0.92564 0.0
C291 C 0.22321 0.75194 0.92641 0.0
N292 N 0.28446 0.80468 0.93709 0.0
C293 C 0.30439 0.85172 0.94071 0.0
C294 C 0.32219 0.83566 0.93783 0.0
C295 C 0.32057 0.80383 0.93473 0.0
C296 C 0.30182 0.78887 0.93451 0.0
C297 C 0.28563 0.83588 0.94018 0.0
H298 H 0.3015 0.76425 0.93221 0.0
H299 H 0.2721 0.84875 0.94226 0.0
H300 H 0.2343 0.74309 0.95206 0.0
H301 H 0.22791 0.76458 0.91936 0.0
C302 C 0.27654 0.71244 0.92943 0.0
C303 C 0.26429 0.81208 0.91109 0.0
C304 C 0.27028 0.76753 0.96303 0.0
C305 C 0.22619 0.83589 0.94257 0.0
H306 H 0.28141 0.76263 0.8975 0.0
H307 H 0.28581 0.70693 0.90727 0.0
H308 H 0.29097 0.67374 0.94671 0.0
H309 H 0.28935 0.70541 0.96488 0.0
H310 H 0.24585 0.80965 0.97592 0.0
H311 H 0.22049 0.84505 0.96481 0.0
H312 H 0.21394 0.87584 0.92528 0.0
H313 H 0.23619 0.86426 0.90822 0.0
H314 H 0.20672 0.70556 0.95128 0.0
H315 H 0.19991 0.72657 0.91805 0.0
H316 H 0.30492 0.87642 0.94315 0.0
H317 H 0.33385 0.79026 0.93259 0.0
C318 C 0.52089 0.78047 0.84398 0.0
C319 C 0.51492 0.75913 0.85178 0.0
C320 C 0.51298 0.72993 0.84695 0.0
C321 C 0.5179 0.735 0.83649 0.0
N322 N 0.52276 0.76554 0.8345 0.0
Co323 Co 0.53043 0.78334 0.82048 0.0
N324 N 0.51847 0.7469 0.81273 0.0
C325 C 0.51381 0.71842 0.81702 0.0
C326 C 0.50599 0.69756 0.80975 0.0
C327 C 0.50603 0.71383 0.80028 0.0
C328 C 0.514 0.74379 0.80228 0.0
N329 N 0.53832 0.80172 0.80658 0.0
C330 C 0.53226 0.79415 0.79667 0.0
C331 C 0.54275 0.81201 0.78916 0.0
C332 C 0.55579 0.83116 0.79458 0.0
C333 C 0.55268 0.82397 0.80504 0.0
N334 N 0.54253 0.81968 0.8282 0.0
C335 C 0.55643 0.84002 0.82436 0.0
C336 C 0.56173 0.86322 0.83145 0.0
C337 C 0.55049 0.85705 0.84033 0.0
C338 C 0.539 0.83018 0.83815 0.0
N339 N 0.55631 0.75975 0.82112 0.0
C340 C 0.58968 0.71757 0.82239 0.0
C341 C 0.57928 0.72254 0.81285 0.0
C342 C 0.56293 0.74361 0.81237 0.0
C343 C 0.58329 0.73536 0.83122 0.0
C344 C 0.56672 0.75632 0.83041 0.0
N345 N 0.50424 0.80555 0.81985 0.0
C346 C 0.48347 0.8518 0.81632 0.0
C347 C 0.46591 0.83488 0.81914 0.0
C348 C 0.46815 0.80298 0.82221 0.0
C349 C 0.48721 0.78893 0.82249 0.0
C350 C 0.50248 0.83676 0.81678 0.0
H351 H 0.48804 0.76431 0.82484 0.0
H352 H 0.51575 0.85029 0.81467 0.0
H353 H 0.55518 0.74578 0.80493 0.0
H354 H 0.562 0.76909 0.83739 0.0
C355 C 0.51442 0.7139 0.82807 0.0
C356 C 0.52583 0.81422 0.84586 0.0
C357 C 0.51867 0.76769 0.79401 0.0
C358 C 0.56105 0.84031 0.81358 0.0
H359 H 0.51223 0.76419 0.86006 0.0
H360 H 0.50769 0.70801 0.85055 0.0
H361 H 0.50043 0.67368 0.81118 0.0
H362 H 0.50099 0.70453 0.79276 0.0
H363 H 0.54161 0.81076 0.78063 0.0
H364 H 0.56609 0.84857 0.79128 0.0
H365 H 0.57177 0.88319 0.83016 0.0
H366 H 0.55071 0.8709 0.84753 0.0
H367 H 0.5832 0.70937 0.80579 0.0
H368 H 0.59094 0.73307 0.83875 0.0
H369 H 0.48258 0.87656 0.81392 0.0
H370 H 0.45517 0.78857 0.82426 0.0
C371 C 0.27049 0.98359 0.84337 0.0
C372 C 0.27808 0.00497 0.8507 0.0
C373 C 0.27984 0.03385 0.84557 0.0
C374 C 0.2734 0.02858 0.83538 0.0
N375 N 0.26776 0.99818 0.83384 0.0
Co376 Co 0.25913 0.97955 0.82014 0.0
N377 N 0.27108 0.0149 0.81177 0.0
C378 C 0.27628 0.04359 0.81565 0.0
C379 C 0.28399 0.06354 0.80801 0.0
C380 C 0.28332 0.04644 0.79875 0.0
C381 C 0.27509 0.01691 0.80124 0.0
N382 N 0.2504 0.96011 0.80662 0.0
C383 C 0.25622 0.96639 0.79654 0.0
C384 C 0.24516 0.94821 0.78942 0.0
C385 C 0.23196 0.93026 0.79525 0.0
C386 C 0.23557 0.93841 0.80557 0.0
N387 N 0.24686 0.94449 0.82846 0.0
C388 C 0.232 0.92513 0.82518 0.0
C389 C 0.226 0.90375 0.8328 0.0
C390 C 0.23786 0.91009 0.84142 0.0
C391 C 0.25056 0.93495 0.8385 0.0
N392 N 0.23359 1.00405 0.82083 0.0
C393 C 0.2006 0.04686 0.82183 0.0
C394 C 0.20996 0.03958 0.81218 0.0
C395 C 0.22631 0.01847 0.81186 0.0
C396 C 0.20778 0.03124 0.83096 0.0
C397 C 0.22406 0.00972 0.83027 0.0
N398 N 0.28501 0.95648 0.81941 0.0
C399 C 0.30521 0.90943 0.81618 0.0
C400 C 0.32313 0.92657 0.81804 0.0
C401 C 0.32128 0.95874 0.82079 0.0
C402 C 0.30235 0.97306 0.82139 0.0
C403 C 0.28631 0.92484 0.81689 0.0
H404 H 0.30188 0.99785 0.82347 0.0
H405 H 0.27279 0.91133 0.81532 0.0
H406 H 0.23346 0.01479 0.80431 0.0
H407 H 0.22929 0.99832 0.83743 0.0
C408 C 0.27654 0.0489 0.82665 0.0
C409 C 0.26516 0.95 0.84561 0.0
C410 C 0.26992 0.99229 0.79336 0.0
C411 C 0.22696 0.92379 0.81445 0.0
H412 H 0.28221 1.00026 0.85883 0.0
H413 H 0.28622 0.05556 0.84873 0.0
H414 H 0.28999 0.0873 0.80907 0.0
H415 H 0.28819 0.05487 0.79106 0.0
H416 H 0.24595 0.94861 0.78086 0.0
H417 H 0.22115 0.91312 0.79232 0.0
H418 H 0.21497 0.88489 0.83205 0.0
H419 H 0.23723 0.89782 0.84896 0.0
H420 H 0.20519 0.05107 0.80491 0.0
H421 H 0.20089 0.03563 0.83859 0.0
H422 H 0.30575 0.8845 0.81403 0.0
H423 H 0.33442 0.97299 0.8226 0.0
C424 C 0.4999 0.57924 0.58792 0.0
C425 C 0.48865 0.60639 0.59008 0.0
C426 C 0.47784 0.61314 0.58113 0.0
C427 C 0.48313 0.58997 0.57401 0.0
N428 N 0.49659 0.56904 0.57792 0.0
Co429 Co 0.50863 0.53255 0.5702 0.0
N430 N 0.50118 0.55123 0.55627 0.0
C431 C 0.48764 0.5747 0.55467 0.0
C432 C 0.4856 0.58308 0.54423 0.0
C433 C 0.49843 0.56336 0.53888 0.0
C434 C 0.5075 0.54375 0.54639 0.0
N435 N 0.52052 0.49593 0.56247 0.0
C436 C 0.52457 0.49232 0.55199 0.0
C437 C 0.53181 0.46192 0.54996 0.0
C438 C 0.53203 0.44594 0.55947 0.0
C439 C 0.52491 0.46734 0.56678 0.0
N440 N 0.51591 0.51448 0.58424 0.0
C441 C 0.52061 0.48387 0.58623 0.0
C442 C 0.52531 0.47863 0.5967 0.0
C443 C 0.52339 0.50779 0.60155 0.0
C444 C 0.51766 0.52927 0.59375 0.0
N445 N 0.48256 0.50931 0.57072 0.0
C446 C 0.44917 0.46698 0.57191 0.0
C447 C 0.4555 0.4847 0.58077 0.0
C448 C 0.47206 0.50571 0.58 0.0
C449 C 0.45959 0.47227 0.56237 0.0
C450 C 0.47593 0.49343 0.56193 0.0
N451 N 0.53498 0.55445 0.56969 0.0
C452 C 0.57096 0.55195 0.57253 0.0
C453 C 0.57337 0.58364 0.56927 0.0
C454 C 0.55602 0.60043 0.56611 0.0
C455 C 0.53695 0.58551 0.56648 0.0
C456 C 0.55188 0.53787 0.57259 0.0
H457 H 0.52383 0.59907 0.56418 0.0
H458 H 0.5509 0.51332 0.57501 0.0
H459 H 0.47674 0.51834 0.58701 0.0
H460 H 0.48367 0.49582 0.55448 0.0
C461 C 0.47917 0.59104 0.56318 0.0
C462 C 0.51284 0.56302 0.59566 0.0
C463 C 0.51976 0.51581 0.54366 0.0
C464 C 0.52412 0.46279 0.57781 0.0
H465 H 0.48839 0.62012 0.59731 0.0
H466 H 0.46816 0.63353 0.57979 0.0
H467 H 0.47624 0.60173 0.54091 0.0
H468 H 0.50043 0.56292 0.53037 0.0
H469 H 0.53606 0.45214 0.54236 0.0
H470 H 0.53701 0.42173 0.56089 0.0
H471 H 0.53042 0.45662 0.60029 0.0
H472 H 0.52595 0.51274 0.60985 0.0
H473 H 0.44784 0.48228 0.5883 0.0
H474 H 0.45573 0.45925 0.55528 0.0
H475 H 0.58387 0.53781 0.5749 0.0
H476 H 0.55711 0.62504 0.56356 0.0
C477 C 0.78956 0.67906 0.58797 0.0
C478 C 0.80087 0.65192 0.59011 0.0
C479 C 0.81171 0.64546 0.58114 0.0
C480 C 0.80637 0.66877 0.57404 0.0
N481 N 0.79285 0.68952 0.57796 0.0
Co482 Co 0.78073 0.72611 0.57026 0.0
N483 N 0.78819 0.70775 0.55632 0.0
C484 C 0.80181 0.68443 0.5547 0.0
C485 C 0.80382 0.67626 0.54426 0.0
C486 C 0.7909 0.69596 0.53893 0.0
C487 C 0.78179 0.71535 0.54646 0.0
N488 N 0.76875 0.76283 0.56255 0.0
C489 C 0.76465 0.7666 0.55207 0.0
C490 C 0.75735 0.797 0.55004 0.0
C491 C 0.75716 0.81282 0.55955 0.0
C492 C 0.76434 0.79131 0.56685 0.0
N493 N 0.77343 0.74383 0.58431 0.0
C494 C 0.76868 0.77438 0.5863 0.0
C495 C 0.76398 0.77936 0.59678 0.0
C496 C 0.76594 0.75009 0.60163 0.0
C497 C 0.7717 0.72882 0.59382 0.0
N498 N 0.80675 0.74948 0.57072 0.0
C499 C 0.84004 0.79199 0.57181 0.0
C500 C 0.83374 0.77417 0.5807 0.0
C501 C 0.81723 0.75306 0.57998 0.0
C502 C 0.82966 0.78671 0.56229 0.0
C503 C 0.81336 0.76549 0.5619 0.0
N504 N 0.75442 0.70409 0.5698 0.0
C505 C 0.71842 0.70644 0.57266 0.0
C506 C 0.71604 0.67485 0.56937 0.0
C507 C 0.73342 0.65819 0.56619 0.0
C508 C 0.75248 0.67313 0.56656 0.0
C509 C 0.73749 0.72055 0.57272 0.0
H510 H 0.76562 0.65967 0.56425 0.0
H511 H 0.73844 0.74503 0.57516 0.0
H512 H 0.81257 0.74033 0.58701 0.0
H513 H 0.80562 0.76314 0.55447 0.0
C514 C 0.81034 0.66797 0.5632 0.0
C515 C 0.77659 0.69504 0.59572 0.0
C516 C 0.7694 0.74322 0.54375 0.0
C517 C 0.76514 0.79563 0.57788 0.0
H518 H 0.80116 0.638 0.59733 0.0
H519 H 0.82143 0.62515 0.57979 0.0
H520 H 0.81322 0.65774 0.54093 0.0
H521 H 0.78885 0.69653 0.53043 0.0
H522 H 0.75303 0.80689 0.54245 0.0
H523 H 0.75212 0.83697 0.56097 0.0
H524 H 0.75883 0.80127 0.60038 0.0
H525 H 0.7634 0.74494 0.60993 0.0
H526 H 0.84138 0.7766 0.58822 0.0
H527 H 0.83351 0.7998 0.55517 0.0
H528 H 0.7055 0.72049 0.57504 0.0
H529 H 0.73236 0.63366 0.56361 0.0
C530 C 0.5007 0.67842 0.66997 0.0
C531 C 0.48955 0.65124 0.66773 0.0
C532 C 0.47864 0.64426 0.67665 0.0
C533 C 0.48377 0.66734 0.68382 0.0
N534 N 0.49722 0.68844 0.67998 0.0
Co535 Co 0.50892 0.72503 0.68777 0.0
N536 N 0.5013 0.70615 0.70167 0.0
C537 C 0.48787 0.68247 0.7032 0.0
C538 C 0.48568 0.67399 0.71362 0.0
C539 C 0.49828 0.69386 0.71904 0.0
C540 C 0.50738 0.71365 0.71158 0.0
N541 N 0.52041 0.76179 0.69559 0.0
C542 C 0.52424 0.76537 0.70609 0.0
C543 C 0.53125 0.79586 0.70818 0.0
C544 C 0.53154 0.81193 0.69868 0.0
C545 C 0.5247 0.79047 0.69133 0.0
N546 N 0.51645 0.74327 0.67379 0.0
C547 C 0.52107 0.77394 0.67184 0.0
C548 C 0.5259 0.77935 0.6614 0.0
C549 C 0.52415 0.75023 0.6565 0.0
C550 C 0.51838 0.72862 0.66426 0.0
N551 N 0.48275 0.74791 0.68715 0.0
C552 C 0.44923 0.78988 0.68582 0.0
C553 C 0.45585 0.77232 0.67698 0.0
C554 C 0.47248 0.75148 0.67782 0.0
C555 C 0.45941 0.78458 0.69541 0.0
C556 C 0.47582 0.7636 0.69592 0.0
N557 N 0.53536 0.70348 0.6884 0.0
C558 C 0.57152 0.70704 0.68641 0.0
C559 C 0.57403 0.67512 0.68946 0.0
C560 C 0.55648 0.65754 0.69182 0.0
C561 C 0.53735 0.67213 0.69126 0.0
C562 C 0.5523 0.72061 0.68597 0.0
H563 H 0.52418 0.65815 0.69319 0.0
H564 H 0.55125 0.74522 0.68362 0.0
H565 H 0.47739 0.73898 0.67082 0.0
H566 H 0.48339 0.7612 0.70341 0.0
C567 C 0.47963 0.66611 0.69464 0.0
C568 C 0.51364 0.69487 0.66228 0.0
C569 C 0.51946 0.74171 0.71438 0.0
C570 C 0.5242 0.79504 0.68029 0.0
H571 H 0.48939 0.63768 0.66047 0.0
H572 H 0.469 0.62379 0.67793 0.0
H573 H 0.47637 0.65518 0.71689 0.0
H574 H 0.50013 0.69427 0.72755 0.0
H575 H 0.53531 0.80563 0.7158 0.0
H576 H 0.53643 0.8362 0.6973 0.0
H577 H 0.53095 0.80147 0.65784 0.0
H578 H 0.52683 0.74542 0.64821 0.0
H579 H 0.44838 0.77475 0.66941 0.0
H580 H 0.4553 0.79749 0.7025 0.0
H581 H 0.58434 0.72163 0.68424 0.0
H582 H 0.55749 0.63283 0.69427 0.0
C583 C 0.79006 0.57717 0.66964 0.0
C584 C 0.80144 0.60402 0.66722 0.0
C585 C 0.81252 0.61093 0.67605 0.0
C586 C 0.80725 0.58812 0.68336 0.0
N587 N 0.79357 0.56727 0.67968 0.0
Co588 Co 0.78155 0.53121 0.6877 0.0
N589 N 0.7893 0.55039 0.70146 0.0
C590 C 0.80297 0.57375 0.70283 0.0
C591 C 0.80519 0.58255 0.7132 0.0
C592 C 0.79235 0.56323 0.71875 0.0
C593 C 0.78308 0.54341 0.71141 0.0
N594 N 0.76973 0.49497 0.69574 0.0
C595 C 0.76582 0.49184 0.70626 0.0
C596 C 0.7586 0.46155 0.70855 0.0
C597 C 0.75825 0.44515 0.69915 0.0
C598 C 0.76527 0.46621 0.69166 0.0
N599 N 0.77389 0.51272 0.67383 0.0
C600 C 0.76906 0.48209 0.67207 0.0
C601 C 0.76406 0.47657 0.66167 0.0
C602 C 0.76593 0.50557 0.65662 0.0
C603 C 0.77193 0.52723 0.66425 0.0
N604 N 0.80752 0.50773 0.68721 0.0
C605 C 0.84068 0.46496 0.68613 0.0
C606 C 0.83424 0.48236 0.67718 0.0
C607 C 0.81779 0.50359 0.67789 0.0
C608 C 0.83049 0.47079 0.69569 0.0
C609 C 0.81427 0.49217 0.69607 0.0
N610 N 0.75528 0.55332 0.68819 0.0
C611 C 0.71915 0.55053 0.68599 0.0
C612 C 0.7169 0.58272 0.68865 0.0
C613 C 0.7345 0.59988 0.69118 0.0
C614 C 0.75351 0.5848 0.69086 0.0
C615 C 0.73823 0.53645 0.68583 0.0
H616 H 0.76676 0.59856 0.69274 0.0
H617 H 0.73908 0.51164 0.68377 0.0
H618 H 0.81301 0.51595 0.67082 0.0
H619 H 0.8067 0.495 0.70354 0.0
C620 C 0.81141 0.5896 0.69416 0.0
C621 C 0.77678 0.56091 0.66212 0.0
C622 C 0.7707 0.51575 0.71438 0.0
C623 C 0.76577 0.46128 0.68065 0.0
H624 H 0.80162 0.61746 0.65989 0.0
H625 H 0.82234 0.63122 0.67719 0.0
H626 H 0.81469 0.60123 0.71634 0.0
H627 H 0.79046 0.56318 0.72726 0.0
H628 H 0.75443 0.45212 0.71623 0.0
H629 H 0.75319 0.42091 0.69793 0.0
H630 H 0.7588 0.45448 0.65824 0.0
H631 H 0.76317 0.51028 0.64832 0.0
H632 H 0.84174 0.47953 0.66963 0.0
H633 H 0.83444 0.45804 0.70286 0.0
H634 H 0.70616 0.53593 0.68418 0.0
H635 H 0.73365 0.62486 0.69324 0.0
C636 C 0.52158 0.47816 0.41409 0.0
C637 C 0.5156 0.49944 0.40628 0.0
C638 C 0.51351 0.52863 0.41111 0.0
C639 C 0.51836 0.52361 0.42157 0.0
N640 N 0.52332 0.49312 0.42357 0.0
Co641 Co 0.53092 0.47539 0.4376 0.0
N642 N 0.51868 0.51166 0.44533 0.0
C643 C 0.51387 0.54006 0.44103 0.0
C644 C 0.50585 0.56079 0.4483 0.0
C645 C 0.50589 0.54451 0.45777 0.0
C646 C 0.51408 0.51468 0.45577 0.0
N647 N 0.53881 0.45713 0.4515 0.0
C648 C 0.53265 0.46465 0.4614 0.0
C649 C 0.54323 0.447 0.46892 0.0
C650 C 0.55642 0.42803 0.46351 0.0
C651 C 0.5533 0.43511 0.45305 0.0
N652 N 0.54324 0.43918 0.4299 0.0
C653 C 0.55721 0.41901 0.43374 0.0
C654 C 0.56264 0.39584 0.42665 0.0
C655 C 0.55141 0.40186 0.41778 0.0
C656 C 0.5398 0.42862 0.41995 0.0
N657 N 0.5567 0.49931 0.43699 0.0
C658 C 0.59005 0.54165 0.43575 0.0
C659 C 0.57946 0.53679 0.44526 0.0
C660 C 0.56313 0.51565 0.44572 0.0
C661 C 0.58383 0.52369 0.42693 0.0
C662 C 0.56727 0.50269 0.42772 0.0
N663 N 0.50481 0.45286 0.43821 0.0
C664 C 0.48411 0.4066 0.44195 0.0
C665 C 0.46663 0.42303 0.43875 0.0
C666 C 0.46881 0.45469 0.43543 0.0
C667 C 0.48777 0.46907 0.4353 0.0
C668 C 0.50308 0.42185 0.44153 0.0
H669 H 0.48854 0.49358 0.43282 0.0
H670 H 0.51633 0.40864 0.44385 0.0
H671 H 0.55527 0.51354 0.45315 0.0
H672 H 0.56268 0.4898 0.42074 0.0
C673 C 0.51463 0.54464 0.42999 0.0
C674 C 0.5266 0.44443 0.41223 0.0
C675 C 0.51884 0.49086 0.46405 0.0
C676 C 0.5618 0.41884 0.44452 0.0
H677 H 0.51297 0.49433 0.39801 0.0
H678 H 0.50814 0.55048 0.4075 0.0
H679 H 0.50016 0.58459 0.44686 0.0
H680 H 0.50072 0.55372 0.46529 0.0
H681 H 0.54205 0.44826 0.47745 0.0
H682 H 0.56681 0.41079 0.46682 0.0
H683 H 0.57278 0.376 0.42795 0.0
H684 H 0.55173 0.388 0.41058 0.0
H685 H 0.58322 0.55008 0.45231 0.0
H686 H 0.5916 0.52587 0.41943 0.0
H687 H 0.48319 0.38204 0.44456 0.0
H688 H 0.4558 0.46858 0.43305 0.0
C689 C 0.26908 0.27721 0.41395 0.0
C690 C 0.27509 0.25606 0.40616 0.0
C691 C 0.27724 0.22682 0.41101 0.0
C692 C 0.27239 0.23167 0.42147 0.0
N693 N 0.26739 0.26212 0.42345 0.0
Co694 Co 0.25974 0.27961 0.43747 0.0
N695 N 0.27202 0.24327 0.44523 0.0
C696 C 0.27685 0.21493 0.44095 0.0
C697 C 0.28488 0.19411 0.44823 0.0
C698 C 0.28482 0.21026 0.45768 0.0
C699 C 0.27662 0.2401 0.45566 0.0
N700 N 0.25183 0.29763 0.45137 0.0
C701 C 0.25803 0.29003 0.46127 0.0
C702 C 0.24745 0.30754 0.46879 0.0
C703 C 0.23421 0.32653 0.46339 0.0
C704 C 0.23731 0.31959 0.45292 0.0
N705 N 0.24738 0.3159 0.42975 0.0
C706 C 0.23338 0.33597 0.4336 0.0
C707 C 0.22791 0.35921 0.4265 0.0
C708 C 0.23912 0.35336 0.41761 0.0
C709 C 0.25078 0.3266 0.41979 0.0
N710 N 0.234 0.25559 0.43691 0.0
C711 C 0.20145 0.21195 0.43564 0.0
C712 C 0.20728 0.2305 0.42684 0.0
C713 C 0.22352 0.25211 0.42764 0.0
C714 C 0.21161 0.21736 0.4452 0.0
C715 C 0.2276 0.23912 0.44568 0.0
N716 N 0.28583 0.30222 0.43804 0.0
C717 C 0.30648 0.34838 0.44181 0.0
C718 C 0.32399 0.33205 0.43861 0.0
C719 C 0.32184 0.30049 0.43527 0.0
C720 C 0.30288 0.2861 0.43513 0.0
C721 C 0.28752 0.33314 0.44136 0.0
H722 H 0.30214 0.26165 0.43264 0.0
H723 H 0.27425 0.34628 0.44369 0.0
H724 H 0.22807 0.26513 0.42064 0.0
H725 H 0.23525 0.24158 0.45313 0.0
C726 C 0.27612 0.21053 0.42991 0.0
C727 C 0.26397 0.31093 0.41205 0.0
C728 C 0.27188 0.26384 0.46392 0.0
C729 C 0.22879 0.33597 0.44439 0.0
H730 H 0.27769 0.26128 0.39787 0.0
H731 H 0.28262 0.20503 0.40742 0.0
H732 H 0.29059 0.17035 0.4468 0.0
H733 H 0.28999 0.20095 0.4652 0.0
H734 H 0.24866 0.30618 0.47732 0.0
H735 H 0.22381 0.34371 0.46669 0.0
H736 H 0.21774 0.379 0.4278 0.0
H737 H 0.23877 0.36731 0.4104 0.0
H738 H 0.19992 0.22748 0.41927 0.0
H739 H 0.20745 0.20449 0.45232 0.0
H740 H 0.30738 0.37288 0.44443 0.0
H741 H 0.33487 0.28667 0.43289 0.0
C742 C 0.52109 0.27758 0.34398 0.0
C743 C 0.51516 0.25621 0.35178 0.0
C744 C 0.51313 0.22705 0.34693 0.0
C745 C 0.51796 0.23218 0.33646 0.0
N746 N 0.52285 0.26272 0.33448 0.0
Co747 Co 0.53045 0.28058 0.32047 0.0
N748 N 0.51831 0.24432 0.31271 0.0
C749 C 0.51355 0.21586 0.31699 0.0
C750 C 0.50553 0.1952 0.30971 0.0
C751 C 0.50552 0.2116 0.30026 0.0
C752 C 0.51367 0.24142 0.30228 0.0
N753 N 0.53836 0.29896 0.30658 0.0
C754 C 0.53221 0.29152 0.29667 0.0
C755 C 0.5428 0.3092 0.28916 0.0
C756 C 0.55599 0.32814 0.29457 0.0
C757 C 0.55285 0.32099 0.30503 0.0
N758 N 0.54267 0.3168 0.32818 0.0
C759 C 0.55664 0.33702 0.32435 0.0
C760 C 0.56206 0.36011 0.33146 0.0
C761 C 0.55082 0.35399 0.34034 0.0
C762 C 0.53921 0.32726 0.33814 0.0
N763 N 0.55629 0.2568 0.32105 0.0
C764 C 0.58976 0.21472 0.32223 0.0
C765 C 0.57918 0.21953 0.31274 0.0
C766 C 0.56278 0.24054 0.3123 0.0
C767 C 0.58346 0.23258 0.33107 0.0
C768 C 0.56684 0.25346 0.3303 0.0
N769 N 0.5043 0.30299 0.31988 0.0
C770 C 0.48351 0.34907 0.31608 0.0
C771 C 0.46605 0.33254 0.31926 0.0
C772 C 0.46828 0.30093 0.32262 0.0
C773 C 0.48729 0.28668 0.32278 0.0
C774 C 0.50252 0.33396 0.31654 0.0
H775 H 0.48811 0.2622 0.32528 0.0
H776 H 0.51575 0.34725 0.31422 0.0
H777 H 0.55491 0.24263 0.30488 0.0
H778 H 0.5622 0.26629 0.33729 0.0
C779 C 0.5143 0.2112 0.32803 0.0
C780 C 0.52605 0.31132 0.34586 0.0
C781 C 0.51834 0.26541 0.29403 0.0
C782 C 0.5613 0.33725 0.31357 0.0
H783 H 0.51253 0.26123 0.36006 0.0
H784 H 0.50781 0.20514 0.35052 0.0
H785 H 0.49986 0.17138 0.31113 0.0
H786 H 0.50032 0.20247 0.29275 0.0
H787 H 0.54163 0.30799 0.28063 0.0
H788 H 0.56638 0.3454 0.29126 0.0
H789 H 0.57221 0.37995 0.33018 0.0
H790 H 0.55115 0.36772 0.34757 0.0
H791 H 0.58301 0.20631 0.30568 0.0
H792 H 0.59123 0.23043 0.33857 0.0
H793 H 0.48254 0.37361 0.31344 0.0
H794 H 0.4553 0.28696 0.32499 0.0
C795 C 0.26873 0.47847 0.34353 0.0
C796 C 0.27485 0.49974 0.35125 0.0
C797 C 0.27693 0.52891 0.34634 0.0
C798 C 0.27194 0.52389 0.33591 0.0
N799 N 0.2669 0.49341 0.33401 0.0
Co800 Co 0.25911 0.47567 0.32006 0.0
N801 N 0.27129 0.51187 0.31217 0.0
C802 C 0.27619 0.54027 0.31638 0.0
C803 C 0.28412 0.56097 0.30902 0.0
C804 C 0.28391 0.54469 0.2996 0.0
C805 C 0.27572 0.51488 0.3017 0.0
N806 N 0.25104 0.45737 0.30624 0.0
C807 C 0.25709 0.46483 0.29628 0.0
C808 C 0.24643 0.44714 0.28886 0.0
C809 C 0.23329 0.42821 0.29437 0.0
C810 C 0.23652 0.43536 0.3048 0.0
N811 N 0.24682 0.43954 0.32791 0.0
C812 C 0.23277 0.41943 0.32417 0.0
C813 C 0.22735 0.39635 0.33136 0.0
C814 C 0.23868 0.40237 0.34018 0.0
C815 C 0.25035 0.42902 0.33788 0.0
N816 N 0.23337 0.49972 0.32068 0.0
C817 C 0.20095 0.5436 0.32203 0.0
C818 C 0.21096 0.53794 0.31243 0.0
C819 C 0.22688 0.51606 0.31192 0.0
C820 C 0.20685 0.52516 0.33084 0.0
C821 C 0.22302 0.50343 0.33 0.0
N822 N 0.28518 0.45303 0.31943 0.0
C823 C 0.30578 0.40666 0.31583 0.0
C824 C 0.3233 0.42306 0.31894 0.0
C825 C 0.3212 0.45476 0.32214 0.0
C826 C 0.30226 0.46922 0.32224 0.0
C827 C 0.28683 0.42199 0.31623 0.0
H828 H 0.30155 0.49375 0.32463 0.0
H829 H 0.27355 0.4088 0.31398 0.0
H830 H 0.23443 0.51341 0.30443 0.0
H831 H 0.22764 0.49052 0.337 0.0
C832 C 0.27559 0.54487 0.32741 0.0
C833 C 0.26368 0.44477 0.3455 0.0
C834 C 0.27081 0.49109 0.29351 0.0
C835 C 0.22808 0.41918 0.31341 0.0
H836 H 0.27758 0.49465 0.35953 0.0
H837 H 0.28238 0.55074 0.34986 0.0
H838 H 0.28984 0.58476 0.31038 0.0
H839 H 0.28896 0.5539 0.29204 0.0
H840 H 0.2475 0.44836 0.28032 0.0
H841 H 0.22285 0.41097 0.29115 0.0
H842 H 0.21715 0.37656 0.33015 0.0
H843 H 0.2384 0.38859 0.34743 0.0
H844 H 0.20673 0.55072 0.30531 0.0
H845 H 0.1996 0.52838 0.33844 0.0
H846 H 0.30666 0.38206 0.31331 0.0
H847 H 0.33424 0.46861 0.32445 0.0
C848 C 1.00016 0.0776 0.58802 0.0
C849 C 0.98895 0.10476 0.59021 0.0
C850 C 0.97816 0.11167 0.58127 0.0
C851 C 0.98343 0.08857 0.57412 0.0
N852 N 0.99685 0.06753 0.578 0.0
Co853 Co 1.0088 0.03106 0.57024 0.0
N854 N 1.00145 0.05 0.55633 0.0
C855 C 0.98801 0.07362 0.55475 0.0
C856 C 0.98604 0.08218 0.54432 0.0
C857 C 0.99881 0.06242 0.53895 0.0
C858 C 1.00778 0.0426 0.54644 0.0
N859 N 0.02054 0.99441 0.56246 0.0
C860 C 0.02456 0.99087 0.55197 0.0
C861 C 0.03164 0.9604 0.5499 0.0
C862 C 0.03178 0.94431 0.55939 0.0
C863 C 0.02479 0.96572 0.56673 0.0
N864 N 1.01608 0.01282 0.58425 0.0
C865 C 0.02073 0.98218 0.58621 0.0
C866 C 0.02545 0.97681 0.59667 0.0
C867 C 0.0236 0.00593 0.60155 0.0
C868 C 1.01788 0.02751 0.59378 0.0
N869 N 0.98267 0.00799 0.57072 0.0
C870 C 0.94926 0.96568 0.57183 0.0
C871 C 0.95569 0.98304 0.58074 0.0
C872 C 0.97225 1.00407 0.58001 0.0
C873 C 0.95957 0.97135 0.56228 0.0
C874 C 0.97593 0.99247 0.56188 0.0
N875 N 0.03523 0.05275 0.56976 0.0
C876 C 0.07131 0.04952 0.57217 0.0
C877 C 0.0738 0.08154 0.56927 0.0
C878 C 0.05635 0.09885 0.56654 0.0
C879 C 0.03724 0.08409 0.56689 0.0
C880 C 0.05214 0.03573 0.57234 0.0
H881 H 0.02411 0.09798 0.56484 0.0
H882 H 0.0511 0.01101 0.57456 0.0
H883 H 0.977 0.01643 0.58706 0.0
H884 H 0.98361 0.9951 0.55443 0.0
C885 C 0.97953 0.08986 0.56328 0.0
C886 C 1.01308 0.06126 0.59574 0.0
C887 C 0.0199 0.01454 0.54368 0.0
C888 C 0.02407 0.96111 0.57776 0.0
H889 H 0.9887 0.11842 0.59746 0.0
H890 H 0.96854 0.13213 0.57995 0.0
H891 H 0.97675 0.10096 0.54103 0.0
H892 H 1.00083 0.06207 0.53045 0.0
H893 H 0.03584 0.95066 0.54228 0.0
H894 H 0.03667 0.92004 0.56078 0.0
H895 H 0.03051 0.95473 0.60023 0.0
H896 H 0.02617 0.01078 0.60985 0.0
H897 H 0.94812 0.98029 0.58828 0.0
H898 H 0.95561 0.95862 0.55514 0.0
H899 H 0.08418 0.03481 0.57416 0.0
H900 H 0.05739 0.12373 0.5643 0.0
C901 C 0.28935 0.18178 0.58888 0.0
C902 C 0.30178 0.15656 0.59175 0.0
C903 C 0.31342 0.14977 0.58308 0.0
C904 C 0.30757 0.17129 0.57546 0.0
N905 N 0.29304 0.19121 0.57882 0.0
Co906 Co 0.28099 0.22657 0.57055 0.0
N907 N 0.28953 0.20705 0.55697 0.0
C908 C 0.30362 0.18416 0.55586 0.0
C909 C 0.30639 0.17499 0.54556 0.0
C910 C 0.29349 0.1936 0.53979 0.0
C911 C 0.28364 0.21343 0.54692 0.0
N912 N 0.26922 0.26223 0.56223 0.0
C913 C 0.26573 0.26484 0.55166 0.0
C914 C 0.25832 0.29488 0.54918 0.0
C915 C 0.25741 0.31162 0.5585 0.0
C916 C 0.26431 0.29101 0.56615 0.0
N917 N 0.27253 0.24528 0.58427 0.0
C918 C 0.26707 0.27575 0.58585 0.0
C919 C 0.26065 0.28105 0.59605 0.0
C920 C 0.26224 0.25212 0.60116 0.0
C921 C 0.26971 0.23068 0.5938 0.0
N922 N 0.30673 0.25066 0.57121 0.0
C923 C 0.33986 0.29348 0.57235 0.0
C924 C 0.333 0.27668 0.58134 0.0
C925 C 0.31657 0.25542 0.58061 0.0
C926 C 0.33005 0.28712 0.56273 0.0
C927 C 0.31383 0.26576 0.56233 0.0
N928 N 0.25493 0.20388 0.56986 0.0
C929 C 0.21866 0.20645 0.57136 0.0
C930 C 0.21665 0.17425 0.56865 0.0
C931 C 0.23452 0.15699 0.56674 0.0
C932 C 0.25347 0.17223 0.56736 0.0
C933 C 0.23766 0.22063 0.57188 0.0
H934 H 0.26692 0.15854 0.56578 0.0
H935 H 0.23825 0.24544 0.57394 0.0
H936 H 0.31148 0.24349 0.58771 0.0
H937 H 0.30657 0.26251 0.5548 0.0
C938 C 0.31218 0.16934 0.5647 0.0
C939 C 0.27483 0.19701 0.59601 0.0
C940 C 0.27114 0.24069 0.5437 0.0
C941 C 0.26408 0.29621 0.57715 0.0
H942 H 0.30231 0.14424 0.59929 0.0
H943 H 0.32411 0.13045 0.58226 0.0
H944 H 0.31635 0.15663 0.5426 0.0
H945 H 0.29198 0.19327 0.53126 0.0
H946 H 0.25437 0.30391 0.54142 0.0
H947 H 0.25202 0.33574 0.55957 0.0
H948 H 0.2544 0.30283 0.59924 0.0
H949 H 0.25807 0.24742 0.60929 0.0
H950 H 0.34016 0.27999 0.58895 0.0
H951 H 0.33432 0.29943 0.55552 0.0
H952 H 0.20558 0.22084 0.5732 0.0
H953 H 0.23391 0.13205 0.56459 0.0
C954 C 0.99962 0.17765 0.66968 0.0
C955 C 0.98824 0.1508 0.66733 0.0
C956 C 0.97723 0.14375 0.67621 0.0
C957 C 0.98252 0.16648 0.68347 0.0
N958 N 0.99617 0.1874 0.67973 0.0
Co959 Co 1.00818 0.2234 0.68766 0.0
N960 N 1.00058 0.204 0.70146 0.0
C961 C 0.98689 0.18066 0.70292 0.0
C962 C 0.98481 0.17166 0.7133 0.0
C963 C 0.99779 0.19081 0.71877 0.0
C964 C 1.00699 0.21073 0.71138 0.0
N965 N 0.01999 0.25955 0.69563 0.0
C966 C 0.02412 0.26241 0.70612 0.0
C967 C 0.03132 0.29269 0.70836 0.0
C968 C 0.03144 0.30934 0.69896 0.0
C969 C 0.02431 0.28842 0.69151 0.0
N970 N 1.01569 0.24213 0.67375 0.0
C971 C 0.0204 0.27283 0.67194 0.0
C972 C 0.02527 0.27854 0.66151 0.0
C973 C 0.02345 0.2496 0.6565 0.0
C974 C 1.0176 0.22777 0.66417 0.0
N975 N 0.98218 0.2468 0.68723 0.0
C976 C 0.9498 0.29086 0.68612 0.0
C977 C 0.95576 0.27311 0.67721 0.0
C978 C 0.9719 0.25126 0.67794 0.0
C979 C 0.95965 0.28428 0.69571 0.0
C980 C 0.97553 0.26227 0.69611 0.0
N981 N 0.0345 0.20147 0.6881 0.0
C982 C 0.07065 0.20488 0.68606 0.0
C983 C 0.07313 0.17297 0.68911 0.0
C984 C 0.05556 0.15541 0.69146 0.0
C985 C 0.03643 0.17008 0.69092 0.0
C986 C 0.05147 0.21853 0.68565 0.0
H987 H 0.02324 0.15615 0.69285 0.0
H988 H 0.05047 0.24318 0.68336 0.0
H989 H 0.9766 0.23896 0.67085 0.0
H990 H 0.98297 0.25893 0.7036 0.0
C991 C 0.9784 0.1649 0.69429 0.0
C992 C 1.01279 0.19409 0.66209 0.0
C993 C 1.01956 0.23817 0.71426 0.0
C994 C 0.02369 0.29353 0.68049 0.0
H995 H 0.98802 0.13746 0.66002 0.0
H996 H 0.96742 0.12344 0.6774 0.0
H997 H 0.97536 0.15292 0.7165 0.0
H998 H 0.99983 0.19063 0.72727 0.0
H999 H 0.03565 0.30193 0.71601 0.0
H1000 H 0.03644 0.33361 0.69771 0.0
H1001 H 0.03042 0.30073 0.65805 0.0
H1002 H 0.02614 0.24503 0.64819 0.0
H1003 H 0.94862 0.27701 0.66962 0.0
H1004 H 0.95535 0.29649 0.70291 0.0
H1005 H 0.08347 0.21946 0.68388 0.0
H1006 H 0.05654 0.13069 0.6939 0.0
C1007 C 0.28892 0.07414 0.66858 0.0
C1008 C 0.30131 0.09958 0.66586 0.0
C1009 C 0.31273 0.10619 0.67461 0.0
C1010 C 0.30681 0.08438 0.68212 0.0
N1011 N 0.29244 0.06443 0.67863 0.0
Co1012 Co 0.28034 0.02871 0.68672 0.0
N1013 N 0.28849 0.04789 0.7004 0.0
C1014 C 0.30251 0.0708 0.70166 0.0
C1015 C 0.30502 0.07964 0.71201 0.0
C1016 C 0.29202 0.06079 0.71765 0.0
C1017 C 0.28237 0.04118 0.71039 0.0
N1018 N 0.2685 0.99272 0.69485 0.0
C1019 C 0.26471 0.98981 0.70539 0.0
C1020 C 0.25734 0.95965 0.70774 0.0
C1021 C 0.25675 0.94314 0.69837 0.0
C1022 C 0.2638 0.96401 0.69082 0.0
N1023 N 0.27227 0.01033 0.67289 0.0
C1024 C 0.26698 0.97986 0.67119 0.0
C1025 C 0.26081 0.97479 0.66094 0.0
C1026 C 0.2624 1.00389 0.65593 0.0
C1027 C 0.26962 0.02518 0.66339 0.0
N1028 N 0.30617 0.0049 0.68611 0.0
C1029 C 0.3395 0.96251 0.68504 0.0
C1030 C 0.33281 0.97946 0.67605 0.0
C1031 C 0.31627 1.00052 0.67676 0.0
C1032 C 0.32942 0.96847 0.69461 0.0
C1033 C 0.3131 0.98962 0.69499 0.0
N1034 N 0.25421 0.05115 0.68736 0.0
C1035 C 0.21798 0.04832 0.68573 0.0
C1036 C 0.21581 0.08031 0.68866 0.0
C1037 C 0.23358 0.09764 0.69073 0.0
C1038 C 0.25259 0.08263 0.69004 0.0
C1039 C 0.23704 0.03435 0.68517 0.0
H1040 H 0.26596 0.09634 0.69176 0.0
H1041 H 0.23777 0.00966 0.68297 0.0
H1042 H 0.3113 0.0126 0.66966 0.0
H1043 H 0.30563 0.99256 0.70248 0.0
C1044 C 0.3112 0.08599 0.69291 0.0
C1045 C 0.27465 0.05897 0.66132 0.0
C1046 C 0.26978 0.01381 0.71345 0.0
C1047 C 0.26386 0.95912 0.6798 0.0
H1048 H 0.30196 0.11214 0.65837 0.0
H1049 H 0.32334 0.12558 0.67554 0.0
H1050 H 0.31488 0.09795 0.71508 0.0
H1051 H 0.29032 0.06084 0.72617 0.0
H1052 H 0.25319 0.95039 0.71545 0.0
H1053 H 0.25146 0.91901 0.69719 0.0
H1054 H 0.25472 0.95305 0.65765 0.0
H1055 H 0.25837 0.00878 0.6478 0.0
H1056 H 0.34019 0.97644 0.66847 0.0
H1057 H 0.33356 0.956 0.70181 0.0
H1058 H 0.20498 0.03392 0.68376 0.0
H1059 H 0.23283 0.12242 0.69305 0.0
C1060 C 0.02135 0.97917 0.414 0.0
C1061 C 1.01536 1.00067 0.40626 0.0
C1062 C 1.0134 0.02977 0.41117 0.0
C1063 C 1.01834 0.02447 0.4216 0.0
N1064 N 0.02322 0.9939 0.42351 0.0
Co1065 Co 0.0309 0.97578 0.43747 0.0
N1066 N 1.01893 0.01202 0.44534 0.0
C1067 C 1.01426 0.0406 0.44112 0.0
C1068 C 1.00643 0.06127 0.44846 0.0
C1069 C 1.00646 0.04477 0.45789 0.0
C1070 C 1.01445 0.01486 0.4558 0.0
N1071 N 0.0388 0.95706 0.4513 0.0
C1072 C 0.03273 0.96439 0.46124 0.0
C1073 C 0.04326 0.94639 0.46869 0.0
C1074 C 0.05632 0.9274 0.46321 0.0
C1075 C 0.05319 0.93482 0.45277 0.0
N1076 N 0.04303 0.93964 0.42965 0.0
C1077 C 0.05697 0.91928 0.4334 0.0
C1078 C 0.0623 0.89628 0.42623 0.0
C1079 C 0.05104 0.90261 0.4174 0.0
C1080 C 0.03949 0.92937 0.41967 0.0
N1081 N 0.05679 0.99942 0.43687 0.0
C1082 C 0.09027 0.04149 0.43567 0.0
C1083 C 0.07982 0.03636 0.44521 0.0
C1084 C 0.06341 0.01536 0.44564 0.0
C1085 C 0.08386 0.02394 0.4268 0.0
C1086 C 0.06724 1.00305 0.42757 0.0
N1087 N 1.0047 0.95352 0.43807 0.0
C1088 C 0.98393 0.90709 0.44138 0.0
C1089 C 0.96634 0.92411 0.43867 0.0
C1090 C 0.96859 0.95616 0.43577 0.0
C1091 C 0.98765 0.97024 0.43554 0.0
C1092 C 1.00294 0.92218 0.44099 0.0
H1093 H 0.98848 0.99495 0.4333 0.0
H1094 H 1.01621 0.90857 0.44302 0.0
H1095 H 0.05564 0.01305 0.45309 0.0
H1096 H 0.06251 0.99047 0.42056 0.0
C1097 C 1.01486 0.04538 0.43009 0.0
C1098 C 0.02627 0.94545 0.41204 0.0
C1099 C 1.01912 0.99075 0.46399 0.0
C1100 C 0.0616 0.91873 0.44417 0.0
H1101 H 1.01264 0.99578 0.39798 0.0
H1102 H 1.0081 0.05175 0.40763 0.0
H1103 H 1.00085 0.08518 0.4471 0.0
H1104 H 1.00141 0.05387 0.46544 0.0
H1105 H 0.04214 0.94745 0.47723 0.0
H1106 H 0.06666 0.90996 0.46645 0.0
H1107 H 0.07239 0.87633 0.42746 0.0
H1108 H 0.05128 0.88897 0.41015 0.0
H1109 H 0.08374 0.04933 0.4523 0.0
H1110 H 0.09153 0.02634 0.41928 0.0
H1111 H 0.98306 0.88221 0.44364 0.0
H1112 H 0.95561 0.97068 0.43383 0.0
C1113 C 0.76901 0.77754 0.41404 0.0
C1114 C 0.77526 0.75611 0.40638 0.0
C1115 C 0.7772 0.72702 0.41136 0.0
C1116 C 0.77199 0.73225 0.42176 0.0
N1117 N 0.76696 0.76278 0.42357 0.0
Co1118 Co 0.75889 0.78082 0.43744 0.0
N1119 N 0.77084 0.74472 0.44546 0.0
C1120 C 0.77571 0.71618 0.44134 0.0
C1121 C 0.78353 0.69565 0.44878 0.0
C1122 C 0.78328 0.71222 0.45815 0.0
C1123 C 0.77519 0.74201 0.45594 0.0
N1124 N 0.75062 0.79947 0.45118 0.0
C1125 C 0.75656 0.79229 0.46116 0.0
C1126 C 0.74578 0.81012 0.46852 0.0
C1127 C 0.73269 0.82888 0.46293 0.0
C1128 C 0.73606 0.82148 0.45252 0.0
N1129 N 0.74677 0.81679 0.42947 0.0
C1130 C 0.73262 0.83695 0.4331 0.0
C1131 C 0.72733 0.85987 0.42584 0.0
C1132 C 0.73886 0.8537 0.41709 0.0
C1133 C 0.7505 0.82712 0.41949 0.0
N1134 N 0.73313 0.75684 0.43679 0.0
C1135 C 0.70071 0.71298 0.43549 0.0
C1136 C 0.71052 0.71901 0.44511 0.0
C1137 C 0.72645 0.74086 0.4456 0.0
C1138 C 0.7068 0.73105 0.42663 0.0
C1139 C 0.72298 0.75279 0.42744 0.0
N1140 N 0.78499 0.80333 0.43812 0.0
C1141 C 0.80561 0.84968 0.44168 0.0
C1142 C 0.82337 0.83248 0.43945 0.0
C1143 C 0.82121 0.80064 0.43636 0.0
C1144 C 0.80216 0.78669 0.43578 0.0
C1145 C 0.7866 0.83466 0.44099 0.0
H1146 H 0.80143 0.76211 0.43344 0.0
H1147 H 0.77323 0.84824 0.44285 0.0
H1148 H 0.73385 0.74375 0.4531 0.0
H1149 H 0.72775 0.76541 0.42041 0.0
C1150 C 0.77536 0.71137 0.43032 0.0
C1151 C 0.76402 0.81123 0.41198 0.0
C1152 C 0.77033 0.76618 0.46403 0.0
C1153 C 0.72773 0.83743 0.44385 0.0
H1154 H 0.77816 0.76104 0.3981 0.0
H1155 H 0.78267 0.70509 0.40791 0.0
H1156 H 0.78926 0.67181 0.44751 0.0
H1157 H 0.78829 0.70323 0.46574 0.0
H1158 H 0.74675 0.80911 0.47706 0.0
H1159 H 0.72219 0.84617 0.46608 0.0
H1160 H 0.71709 0.87967 0.42696 0.0
H1161 H 0.73871 0.86733 0.4098 0.0
H1162 H 0.70614 0.70652 0.45227 0.0
H1163 H 0.69971 0.72755 0.41901 0.0
H1164 H 0.80638 0.87435 0.44412 0.0
H1165 H 0.83421 0.78637 0.43428 0.0
C1166 C 0.02157 0.77824 0.3439 0.0
C1167 C 1.0155 0.75687 0.35167 0.0
C1168 C 1.01348 0.72773 0.3468 0.0
C1169 C 1.01847 0.73287 0.33636 0.0
N1170 N 0.02343 0.76339 0.33441 0.0
Co1171 Co 0.03122 0.78127 0.32043 0.0
N1172 N 1.01914 0.74507 0.31262 0.0
C1173 C 1.01437 0.71657 0.31686 0.0
C1174 C 1.0064 0.69596 0.30955 0.0
C1175 C 1.00644 0.71243 0.30012 0.0
C1176 C 1.01457 0.74226 0.30217 0.0
N1177 N 0.03923 0.79975 0.30657 0.0
C1178 C 0.03309 0.79245 0.29665 0.0
C1179 C 0.04371 0.8102 0.28917 0.0
C1180 C 0.0569 0.82904 0.29461 0.0
C1181 C 0.05374 0.82176 0.30506 0.0
N1182 N 0.04345 0.81738 0.3282 0.0
C1183 C 0.0575 0.83754 0.32441 0.0
C1184 C 0.06289 0.86058 0.33154 0.0
C1185 C 0.05156 0.85448 0.34039 0.0
C1186 C 0.03992 0.82781 0.33815 0.0
N1187 N 0.05702 0.75738 0.32104 0.0
C1188 C 0.09038 0.71507 0.32221 0.0
C1189 C 0.07992 0.7202 0.3127 0.0
C1190 C 0.06358 0.74132 0.31227 0.0
C1191 C 0.08402 0.73272 0.33108 0.0
C1192 C 0.06745 0.75374 0.33032 0.0
N1193 N 1.0051 0.80376 0.31978 0.0
C1194 C 0.98444 0.85005 0.3161 0.0
C1195 C 0.96672 0.8329 0.31847 0.0
C1196 C 0.96891 0.80111 0.3217 0.0
C1197 C 0.98798 0.78716 0.32227 0.0
C1198 C 1.00346 0.83503 0.31678 0.0
H1199 H 0.98875 0.76263 0.32473 0.0
H1200 H 1.0168 0.84857 0.31481 0.0
H1201 H 0.05581 0.74363 0.30483 0.0
H1202 H 0.06276 0.76641 0.33733 0.0
C1203 C 1.01494 0.71189 0.3279 0.0
C1204 C 0.0266 0.81194 0.34582 0.0
C1205 C 1.01924 0.76635 0.29397 0.0
C1206 C 0.0622 0.83788 0.31363 0.0
H1207 H 1.01278 0.76188 0.35995 0.0
H1208 H 1.0081 0.70583 0.35037 0.0
H1209 H 1.00071 0.67214 0.31094 0.0
H1210 H 1.00128 0.70337 0.29259 0.0
H1211 H 0.04255 0.8091 0.28064 0.0
H1212 H 0.06732 0.84632 0.29134 0.0
H1213 H 0.07307 0.8804 0.33029 0.0
H1214 H 0.05182 0.86822 0.34762 0.0
H1215 H 0.0838 0.70714 0.30561 0.0
H1216 H 0.09169 0.73031 0.3386 0.0
H1217 H 0.98365 0.87468 0.31355 0.0
H1218 H 0.95594 0.78689 0.3239 0.0
C1219 C 0.76915 0.97987 0.34383 0.0
C1220 C 0.77524 1.00114 0.35156 0.0
C1221 C 0.77722 0.03035 0.34666 0.0
C1222 C 0.7722 0.02534 0.33623 0.0
N1223 N 0.76724 0.99485 0.33432 0.0
Co1224 Co 0.75947 0.97711 0.32037 0.0
N1225 N 0.77147 0.01348 0.3125 0.0
C1226 C 0.7762 0.04195 0.31671 0.0
C1227 C 0.78398 0.0628 0.30936 0.0
C1228 C 0.78386 0.04656 0.29993 0.0
C1229 C 0.77587 0.01661 0.30203 0.0
N1230 N 0.75151 0.95874 0.30654 0.0
C1231 C 0.75756 0.96627 0.2966 0.0
C1232 C 0.74702 0.94843 0.28916 0.0
C1233 C 0.73396 0.92935 0.29466 0.0
C1234 C 0.73711 0.93655 0.30509 0.0
N1235 N 0.74729 0.94087 0.32821 0.0
C1236 C 0.73331 0.92064 0.32446 0.0
C1237 C 0.72798 0.89747 0.33163 0.0
C1238 C 0.73929 0.90354 0.34045 0.0
C1239 C 0.75085 0.93033 0.33818 0.0
N1240 N 0.73364 1.00091 0.321 0.0
C1241 C 0.70104 0.04445 0.32232 0.0
C1242 C 0.71103 0.03875 0.31271 0.0
C1243 C 0.72704 0.01704 0.31221 0.0
C1244 C 0.70706 0.02622 0.33114 0.0
C1245 C 0.72332 0.00464 0.33032 0.0
N1246 N 0.78562 0.95472 0.31975 0.0
C1247 C 0.80628 0.9082 0.31649 0.0
C1248 C 0.82391 0.92508 0.31917 0.0
C1249 C 0.82174 0.95713 0.32202 0.0
C1250 C 0.80271 0.97132 0.32224 0.0
C1251 C 0.7873 0.9234 0.31688 0.0
H1252 H 0.80195 0.996 0.32445 0.0
H1253 H 0.774 0.90988 0.31488 0.0
H1254 H 0.73457 0.01438 0.30472 0.0
H1255 H 0.72802 0.99188 0.33734 0.0
C1256 C 0.77567 0.04645 0.32775 0.0
C1257 C 0.76415 0.94614 0.3458 0.0
C1258 C 0.77112 0.99275 0.29383 0.0
C1259 C 0.72868 0.92033 0.31369 0.0
H1260 H 0.77799 0.99602 0.35984 0.0
H1261 H 0.7826 0.05221 0.35019 0.0
H1262 H 0.78958 0.08666 0.31072 0.0
H1263 H 0.78884 0.05586 0.29237 0.0
H1264 H 0.74812 0.94967 0.28062 0.0
H1265 H 0.72361 0.91199 0.29143 0.0
H1266 H 0.71788 0.87757 0.33041 0.0
H1267 H 0.73907 0.88967 0.34769 0.0
H1268 H 0.70671 0.05137 0.30557 0.0
H1269 H 0.69983 0.02948 0.33875 0.0
H1270 H 0.80708 0.88333 0.31427 0.0
H1271 H 0.83475 0.97155 0.32394 0.0
C1272 C 1.00041 0.58113 0.08813 0.0
C1273 C 0.98911 0.60825 0.09026 0.0
C1274 C 0.97837 0.61495 0.08128 0.0
C1275 C 0.98374 0.59178 0.07418 0.0
N1276 N 0.99719 0.57088 0.07812 0.0
Co1277 Co 1.00924 0.53431 0.07046 0.0
N1278 N 1.00187 0.5529 0.0565 0.0
C1279 C 0.98839 0.57642 0.05485 0.0
C1280 C 0.98644 0.58475 0.0444 0.0
C1281 C 0.99926 0.56493 0.03909 0.0
C1282 C 1.00824 0.54531 0.04663 0.0
N1283 N 0.02109 0.49755 0.06277 0.0
C1284 C 0.02515 0.49382 0.0523 0.0
C1285 C 0.03233 0.46336 0.0503 0.0
C1286 C 0.03248 0.44746 0.05983 0.0
C1287 C 0.0254 0.46898 0.06711 0.0
N1288 N 1.01653 0.51638 0.08451 0.0
C1289 C 0.02125 0.4858 0.08654 0.0
C1290 C 0.0259 0.48065 0.09701 0.0
C1291 C 0.02393 0.50984 0.10184 0.0
C1292 C 1.01822 0.53124 0.09401 0.0
N1293 N 0.98316 0.51115 0.07098 0.0
C1294 C 0.94971 0.46899 0.07218 0.0
C1295 C 0.95608 0.48665 0.08104 0.0
C1296 C 0.97268 0.50758 0.08026 0.0
C1297 C 0.96011 0.47426 0.06264 0.0
C1298 C 0.97649 0.49532 0.06219 0.0
N1299 N 0.0356 0.55617 0.06994 0.0
C1300 C 0.0717 0.55326 0.07228 0.0
C1301 C 0.07408 0.58527 0.06933 0.0
C1302 C 0.05655 0.60239 0.06661 0.0
C1303 C 0.0375 0.58748 0.067 0.0
C1304 C 0.05257 0.53932 0.07252 0.0
H1305 H 0.02431 0.60124 0.06495 0.0
H1306 H 0.05162 0.51464 0.0748 0.0
H1307 H 0.97739 0.52018 0.08728 0.0
H1308 H 0.98422 0.4977 0.05474 0.0
C1309 C 0.97986 0.59281 0.06334 0.0
C1310 C 1.0133 0.56497 0.0959 0.0
C1311 C 0.02044 0.51727 0.04395 0.0
C1312 C 0.02467 0.46459 0.07815 0.0
H1313 H 0.98878 0.622 0.09748 0.0
H1314 H 0.96868 0.63532 0.07991 0.0
H1315 H 0.97713 0.60342 0.04106 0.0
H1316 H 1.00132 0.56443 0.03059 0.0
H1317 H 0.03658 0.45348 0.04272 0.0
H1318 H 0.03742 0.42325 0.06128 0.0
H1319 H 0.03098 0.45865 0.10064 0.0
H1320 H 0.02642 0.51484 0.11014 0.0
H1321 H 0.94844 0.48423 0.08857 0.0
H1322 H 0.9562 0.46128 0.05554 0.0
H1323 H 0.08463 0.53867 0.07427 0.0
H1324 H 0.05748 0.62725 0.06433 0.0
C1325 C 0.29004 0.68201 0.08745 0.0
C1326 C 0.30126 0.65492 0.08979 0.0
C1327 C 0.31232 0.64807 0.08093 0.0
C1328 C 0.30722 0.67113 0.07369 0.0
N1329 N 0.29364 0.6921 0.07743 0.0
Co1330 Co 0.28188 0.72853 0.0695 0.0
N1331 N 0.2896 0.70958 0.05569 0.0
C1332 C 0.30316 0.68607 0.05425 0.0
C1333 C 0.30544 0.67757 0.04385 0.0
C1334 C 0.29276 0.69725 0.03835 0.0
C1335 C 0.28349 0.71693 0.04574 0.0
N1336 N 0.27039 0.76518 0.06155 0.0
C1337 C 0.26659 0.76865 0.05103 0.0
C1338 C 0.25958 0.79911 0.04883 0.0
C1339 C 0.25925 0.81527 0.05827 0.0
C1340 C 0.26607 0.79388 0.06571 0.0
N1341 N 0.27416 0.74673 0.08341 0.0
C1342 C 0.26944 0.77737 0.08526 0.0
C1343 C 0.26438 0.7827 0.09567 0.0
C1344 C 0.26608 0.75356 0.10064 0.0
C1345 C 0.27206 0.73201 0.09296 0.0
N1346 N 0.308 0.75163 0.07008 0.0
C1347 C 0.3415 0.79363 0.07117 0.0
C1348 C 0.33446 0.77722 0.0802 0.0
C1349 C 0.31793 0.75617 0.07946 0.0
C1350 C 0.33178 0.78731 0.06155 0.0
C1351 C 0.31524 0.76651 0.06117 0.0
N1352 N 0.25548 0.7068 0.0689 0.0
C1353 C 0.2193 0.71018 0.07082 0.0
C1354 C 0.21688 0.67814 0.06797 0.0
C1355 C 0.23449 0.66061 0.06573 0.0
C1356 C 0.25359 0.67536 0.06622 0.0
C1357 C 0.23847 0.72389 0.0712 0.0
H1358 H 0.26681 0.66141 0.06439 0.0
H1359 H 0.23944 0.74858 0.07341 0.0
H1360 H 0.31281 0.7443 0.08657 0.0
H1361 H 0.30788 0.76355 0.05366 0.0
C1362 C 0.31144 0.66988 0.06288 0.0
C1363 C 0.27684 0.69827 0.09503 0.0
C1364 C 0.27124 0.74478 0.04286 0.0
C1365 C 0.26641 0.79847 0.07674 0.0
H1366 H 0.30132 0.64128 0.09707 0.0
H1367 H 0.32203 0.62766 0.07973 0.0
H1368 H 0.31489 0.65889 0.04066 0.0
H1369 H 0.29097 0.69762 0.02984 0.0
H1370 H 0.2555 0.80879 0.04117 0.0
H1371 H 0.25431 0.83953 0.05956 0.0
H1372 H 0.25921 0.80478 0.09915 0.0
H1373 H 0.26325 0.74869 0.10893 0.0
H1374 H 0.34161 0.78067 0.0878 0.0
H1375 H 0.33638 0.79933 0.05434 0.0
H1376 H 0.20643 0.72476 0.07289 0.0
H1377 H 0.23356 0.63582 0.06344 0.0
C1378 C 0.99852 0.68167 0.16983 0.0
C1379 C 0.98724 0.65465 0.16756 0.0
C1380 C 0.97624 0.64777 0.17646 0.0
C1381 C 0.98145 0.67074 0.18365 0.0
N1382 N 0.99503 0.69167 0.17985 0.0
Co1383 Co 1.00694 0.72799 0.18767 0.0
N1384 N 0.99932 0.70897 0.20153 0.0
C1385 C 0.98573 0.68552 0.20305 0.0
C1386 C 0.98358 0.6769 0.21347 0.0
C1387 C 0.99639 0.69644 0.21889 0.0
C1388 C 1.00557 0.71618 0.21144 0.0
N1389 N 1.01864 0.76449 0.19552 0.0
C1390 C 0.02262 0.7678 0.20601 0.0
C1391 C 0.02974 0.7982 0.20815 0.0
C1392 C 0.02995 0.81447 0.19868 0.0
C1393 C 0.02295 0.79322 0.1913 0.0
N1394 N 1.01447 0.74633 0.17371 0.0
C1395 C 1.01915 0.77699 0.1718 0.0
C1396 C 0.02406 0.78241 0.16136 0.0
C1397 C 0.02229 0.75332 0.15644 0.0
C1398 C 1.01644 0.7317 0.16418 0.0
N1399 N 0.98088 0.7512 0.18714 0.0
C1400 C 0.94822 0.79464 0.18587 0.0
C1401 C 0.9543 0.77672 0.17702 0.0
C1402 C 0.97059 0.75519 0.17782 0.0
C1403 C 0.95812 0.78857 0.19548 0.0
C1404 C 0.97414 0.76686 0.19595 0.0
N1405 N 0.03328 0.70616 0.18822 0.0
C1406 C 0.06944 0.70949 0.1862 0.0
C1407 C 0.07188 0.67755 0.18924 0.0
C1408 C 0.05429 0.66005 0.19159 0.0
C1409 C 0.03519 0.67477 0.19104 0.0
C1410 C 0.05027 0.72318 0.18578 0.0
H1411 H 0.02198 0.66088 0.19297 0.0
H1412 H 0.04929 0.74782 0.18346 0.0
H1413 H 0.97537 0.74274 0.17079 0.0
H1414 H 0.98159 0.76388 0.20345 0.0
C1415 C 0.97733 0.66943 0.19448 0.0
C1416 C 1.01167 0.69796 0.1622 0.0
C1417 C 1.01793 0.74394 0.21425 0.0
C1418 C 0.02239 0.79797 0.18027 0.0
H1419 H 0.98709 0.64109 0.1603 0.0
H1420 H 0.96651 0.6274 0.17771 0.0
H1421 H 0.97417 0.65821 0.21672 0.0
H1422 H 0.99833 0.69665 0.2274 0.0
H1423 H 0.03393 0.80777 0.21578 0.0
H1424 H 0.0349 0.83873 0.19734 0.0
H1425 H 0.02919 0.80451 0.15782 0.0
H1426 H 0.02501 0.74851 0.14815 0.0
H1427 H 0.94712 0.78025 0.16942 0.0
H1428 H 0.95373 0.80095 0.20263 0.0
H1429 H 0.0823 0.72401 0.18404 0.0
H1430 H 0.05524 0.63532 0.19402 0.0
C1431 C 0.28831 0.58114 0.1694 0.0
C1432 C 0.29959 0.60826 0.16717 0.0
C1433 C 0.31037 0.615 0.17612 0.0
C1434 C 0.30504 0.59187 0.18329 0.0
N1435 N 0.29158 0.57094 0.17944 0.0
Co1436 Co 0.27955 0.53444 0.18725 0.0
N1437 N 0.28699 0.55313 0.20114 0.0
C1438 C 0.30046 0.57669 0.20268 0.0
C1439 C 0.30247 0.58508 0.2131 0.0
C1440 C 0.28971 0.56527 0.2185 0.0
C1441 C 0.2807 0.54559 0.21104 0.0
N1442 N 0.26775 0.49773 0.19508 0.0
C1443 C 0.26382 0.494 0.20558 0.0
C1444 C 0.25668 0.46354 0.20768 0.0
C1445 C 0.25641 0.44764 0.1982 0.0
C1446 C 0.2634 0.46915 0.19083 0.0
N1447 N 0.27217 0.51646 0.17325 0.0
C1448 C 0.26742 0.48588 0.17133 0.0
C1449 C 0.26269 0.48067 0.16088 0.0
C1450 C 0.26465 0.50983 0.15596 0.0
C1451 C 0.27043 0.53126 0.1637 0.0
N1452 N 0.3056 0.51116 0.18677 0.0
C1453 C 0.33799 0.46719 0.18562 0.0
C1454 C 0.33205 0.48517 0.17672 0.0
C1455 C 0.3159 0.50699 0.17746 0.0
C1456 C 0.32814 0.47354 0.19521 0.0
C1457 C 0.31225 0.49548 0.19563 0.0
N1458 N 0.2532 0.55628 0.18775 0.0
C1459 C 0.21705 0.55296 0.18576 0.0
C1460 C 0.21458 0.58476 0.18887 0.0
C1461 C 0.23215 0.6022 0.19124 0.0
C1462 C 0.25127 0.58755 0.19063 0.0
C1463 C 0.23624 0.53933 0.18528 0.0
H1464 H 0.26445 0.60139 0.19258 0.0
H1465 H 0.23724 0.51479 0.18292 0.0
H1466 H 0.31122 0.51949 0.17039 0.0
H1467 H 0.30481 0.49857 0.20313 0.0
C1468 C 0.30895 0.593 0.19412 0.0
C1469 C 0.27538 0.56498 0.16169 0.0
C1470 C 0.26861 0.51747 0.21385 0.0
C1471 C 0.26405 0.46472 0.1798 0.0
H1472 H 0.29989 0.62198 0.15991 0.0
H1473 H 0.32005 0.63539 0.17741 0.0
H1474 H 0.3118 0.60378 0.21636 0.0
H1475 H 0.28774 0.56478 0.22701 0.0
H1476 H 0.25253 0.45368 0.21531 0.0
H1477 H 0.25147 0.42342 0.19683 0.0
H1478 H 0.25757 0.45866 0.15734 0.0
H1479 H 0.26211 0.51478 0.14765 0.0
H1480 H 0.33921 0.48147 0.16912 0.0
H1481 H 0.33244 0.46116 0.20241 0.0
H1482 H 0.20421 0.5385 0.18358 0.0
H1483 H 0.23117 0.62681 0.19372 0.0
C1484 C 0.01976 0.481 0.91434 0.0
C1485 C 1.01358 0.50271 0.90671 0.0
C1486 C 1.01203 0.53176 0.91168 0.0
C1487 C 1.01737 0.52622 0.92205 0.0
N1488 N 0.02212 0.49554 0.92385 0.0
Co1489 Co 0.03018 0.47699 0.93767 0.0
N1490 N 1.01892 0.51341 0.94574 0.0
C1491 C 1.01448 0.54225 0.94163 0.0
C1492 C 1.00713 0.56297 0.94909 0.0
C1493 C 1.00724 0.54624 0.95847 0.0
C1494 C 1.0148 0.51615 0.95624 0.0
N1495 N 0.03829 0.45771 0.95138 0.0
C1496 C 0.03258 0.46494 0.96139 0.0
C1497 C 0.04311 0.44646 0.9687 0.0
C1498 C 0.05583 0.4273 0.96306 0.0
C1499 C 0.0525 0.43508 0.95267 0.0
N1500 N 0.0418 0.44084 0.92966 0.0
C1501 C 0.0558 0.42026 0.93322 0.0
C1502 C 0.06086 0.3975 0.92591 0.0
C1503 C 0.04933 0.40423 0.9172 0.0
C1504 C 0.03789 0.43091 0.9197 0.0
N1505 N 0.05625 0.50006 0.93689 0.0
C1506 C 0.08986 0.5418 0.93544 0.0
C1507 C 0.07981 0.53644 0.94508 0.0
C1508 C 0.06335 0.51558 0.94564 0.0
C1509 C 0.083 0.52455 0.92659 0.0
C1510 C 0.06632 0.50385 0.92749 0.0
N1511 N 1.00378 0.45527 0.93842 0.0
C1512 C 0.98275 0.40839 0.94029 0.0
C1513 C 0.96508 0.42651 0.93865 0.0
C1514 C 0.96756 0.45942 0.93712 0.0
C1515 C 0.98675 0.47301 0.93685 0.0
C1516 C 1.00188 0.42323 0.94024 0.0
H1517 H 0.98766 0.49817 0.9353 0.0
H1518 H 1.01512 0.40878 0.94154 0.0
H1519 H 0.05589 0.51309 0.95317 0.0
H1520 H 0.06121 0.49157 0.92049 0.0
C1521 C 1.01456 0.54713 0.9306 0.0
C1522 C 0.02435 0.44721 0.91228 0.0
C1523 C 1.01939 0.49168 0.96432 0.0
C1524 C 0.06065 0.41921 0.94396 0.0
H1525 H 1.01049 0.49799 0.89845 0.0
H1526 H 1.00676 0.5539 0.90824 0.0
H1527 H 1.00174 0.58703 0.94783 0.0
H1528 H 1.00248 0.55531 0.96608 0.0
H1529 H 0.04225 0.44736 0.97725 0.0
H1530 H 0.06611 0.40957 0.96618 0.0
H1531 H 0.07094 0.37745 0.92696 0.0
H1532 H 0.04932 0.39092 0.90988 0.0
H1533 H 0.08408 0.54916 0.95217 0.0
H1534 H 0.09035 0.52709 0.91898 0.0
H1535 H 0.98197 0.38286 0.94146 0.0
H1536 H 0.95476 0.47513 0.93616 0.0
C1537 C 0.76907 0.2774 0.91413 0.0
C1538 C 0.77578 0.25611 0.90654 0.0
C1539 C 0.77798 0.22713 0.91156 0.0
C1540 C 0.77248 0.23229 0.92192 0.0
N1541 N 0.767 0.26265 0.92367 0.0
Co1542 Co 0.75845 0.28058 0.93747 0.0
N1543 N 0.77056 0.2448 0.94559 0.0
C1544 C 0.77572 0.21631 0.94153 0.0
C1545 C 0.78356 0.19599 0.94902 0.0
C1546 C 0.78301 0.21263 0.95837 0.0
C1547 C 0.77473 0.24225 0.95609 0.0
N1548 N 0.74982 0.2992 0.95116 0.0
C1549 C 0.75571 0.29228 0.96117 0.0
C1550 C 0.74473 0.31004 0.96846 0.0
C1551 C 0.73155 0.32846 0.9628 0.0
C1552 C 0.73508 0.32095 0.95242 0.0
N1553 N 0.74606 0.31612 0.9294 0.0
C1554 C 0.73162 0.33592 0.93294 0.0
C1555 C 0.72616 0.35856 0.92563 0.0
C1556 C 0.73787 0.35259 0.91692 0.0
C1557 C 0.7498 0.32641 0.91942 0.0
N1558 N 0.73292 0.25602 0.93674 0.0
C1559 C 0.70043 0.2123 0.93544 0.0
C1560 C 0.71021 0.21834 0.94506 0.0
C1561 C 0.72617 0.24014 0.94555 0.0
C1562 C 0.70665 0.23016 0.92656 0.0
C1563 C 0.72288 0.25181 0.92737 0.0
N1564 N 0.78429 0.30379 0.93823 0.0
C1565 C 0.80398 0.35171 0.94077 0.0
C1566 C 0.82197 0.33469 0.93919 0.0
C1567 C 0.82065 0.30213 0.93709 0.0
C1568 C 0.80183 0.28731 0.93654 0.0
C1569 C 0.78528 0.33574 0.94036 0.0
H1570 H 0.80157 0.26232 0.9347 0.0
H1571 H 0.77164 0.34916 0.94173 0.0
H1572 H 0.73349 0.24316 0.95307 0.0
H1573 H 0.72773 0.26432 0.92033 0.0
C1574 C 0.77578 0.21151 0.93051 0.0
C1575 C 0.76366 0.31088 0.91199 0.0
C1576 C 0.76959 0.26642 0.96413 0.0
C1577 C 0.72666 0.33651 0.94368 0.0
H1578 H 0.77878 0.26105 0.89827 0.0
H1579 H 0.78379 0.20534 0.90816 0.0
H1580 H 0.78954 0.17229 0.9478 0.0
H1581 H 0.78797 0.20381 0.966 0.0
H1582 H 0.74564 0.30917 0.97701 0.0
H1583 H 0.72088 0.34559 0.96589 0.0
H1584 H 0.7157 0.3781 0.92667 0.0
H1585 H 0.73767 0.36612 0.90961 0.0
H1586 H 0.70575 0.20596 0.95223 0.0
H1587 H 0.69958 0.2266 0.91893 0.0
H1588 H 0.80439 0.37703 0.94239 0.0
H1589 H 0.83416 0.28819 0.93574 0.0
C1590 C 1.01627 0.27998 0.84436 0.0
C1591 C 1.00601 0.26177 0.8518 0.0
C1592 C 1.00005 0.2345 0.84677 0.0
C1593 C 1.00693 0.2376 0.83657 0.0
N1594 N 1.01731 0.26489 0.83484 0.0
Co1595 Co 0.02806 0.28038 0.82085 0.0
N1596 N 1.01662 0.24301 0.81304 0.0
C1597 C 1.00802 0.21694 0.81745 0.0
C1598 C 1.00157 0.19514 0.81013 0.0
C1599 C 1.00638 0.20806 0.80048 0.0
C1600 C 1.01556 0.23712 0.80246 0.0
N1601 N 0.03786 0.29719 0.80687 0.0
C1602 C 0.03469 0.28651 0.79689 0.0
C1603 C 0.04454 0.30539 0.78944 0.0
C1604 C 0.0538 0.32923 0.79485 0.0
C1605 C 0.04922 0.32349 0.80525 0.0
N1606 N 0.04008 0.31733 0.82863 0.0
C1607 C 0.0523 0.33998 0.82452 0.0
C1608 C 0.05779 0.36299 0.8316 0.0
C1609 C 0.04837 0.3548 0.84079 0.0
C1610 C 0.0377 0.32694 0.83881 0.0
N1611 N 0.05383 0.25519 0.82279 0.0
C1612 C 0.08792 0.21355 0.82299 0.0
C1613 C 0.08886 0.24373 0.8182 0.0
C1614 C 0.07182 0.26397 0.81819 0.0
C1615 C 0.07006 0.20568 0.82822 0.0
C1616 C 0.05363 0.22661 0.82815 0.0
N1617 N 1.00231 0.30421 0.81892 0.0
C1618 C 0.98311 0.35285 0.81612 0.0
C1619 C 0.96491 0.33666 0.818 0.0
C1620 C 0.96586 0.30397 0.81992 0.0
C1621 C 0.98439 0.2884 0.82022 0.0
C1622 C 1.00163 0.33625 0.81669 0.0
H1623 H 0.98381 0.26345 0.8217 0.0
H1624 H 1.01528 0.34955 0.81545 0.0
H1625 H 0.07356 0.28634 0.81425 0.0
H1626 H 0.04089 0.2185 0.83243 0.0
C1627 C 1.00364 0.21586 0.82833 0.0
C1628 C 0.02484 0.31139 0.8467 0.0
C1629 C 0.0226 0.25873 0.79407 0.0
C1630 C 0.05579 0.34185 0.8137 0.0
H1631 H 1.003 0.26776 0.85997 0.0
H1632 H 0.9914 0.21504 0.85011 0.0
H1633 H 0.99357 0.17308 0.8116 0.0
H1634 H 1.00314 0.19757 0.79286 0.0
H1635 H 0.0451 0.30227 0.78094 0.0
H1636 H 0.06285 0.34839 0.79161 0.0
H1637 H 0.06667 0.38418 0.8301 0.0
H1638 H 0.04881 0.36856 0.84801 0.0
H1639 H 0.10246 0.25134 0.81417 0.0
H1640 H 0.06866 0.18316 0.83239 0.0
H1641 H 0.98308 0.37823 0.81453 0.0
H1642 H 0.95222 0.29029 0.82122 0.0
C1643 C 0.7674 0.48011 0.84403 0.0
C1644 C 0.77335 0.5012 0.85184 0.0
C1645 C 0.77529 0.53057 0.84704 0.0
C1646 C 0.77037 0.52585 0.83658 0.0
N1647 N 0.76552 0.49536 0.83457 0.0
Co1648 Co 0.75792 0.47798 0.82055 0.0
N1649 N 0.77004 0.51451 0.81281 0.0
C1650 C 0.77473 0.54287 0.81711 0.0
C1651 C 0.78273 0.56377 0.80984 0.0
C1652 C 0.78283 0.54764 0.80038 0.0
C1653 C 0.77473 0.51771 0.80238 0.0
N1654 N 0.75005 0.46004 0.80665 0.0
C1655 C 0.75629 0.46772 0.79676 0.0
C1656 C 0.74572 0.45028 0.78923 0.0
C1657 C 0.73247 0.43124 0.79462 0.0
C1658 C 0.73555 0.43809 0.80509 0.0
N1659 N 0.74571 0.44151 0.82824 0.0
C1660 C 0.73174 0.42142 0.8244 0.0
C1661 C 0.72642 0.39798 0.83147 0.0
C1662 C 0.73772 0.40374 0.84032 0.0
C1663 C 0.74925 0.43064 0.83817 0.0
N1664 N 0.73212 0.50177 0.82117 0.0
C1665 C 0.69975 0.54565 0.82254 0.0
C1666 C 0.70555 0.52705 0.83132 0.0
C1667 C 0.7217 0.50529 0.83047 0.0
C1668 C 0.70979 0.54011 0.81294 0.0
C1669 C 0.72569 0.51823 0.81242 0.0
N1670 N 0.78408 0.45569 0.81989 0.0
C1671 C 0.805 0.41 0.81591 0.0
C1672 C 0.8224 0.4266 0.81908 0.0
C1673 C 0.82008 0.45801 0.82253 0.0
C1674 C 0.80103 0.47204 0.82279 0.0
C1675 C 0.78594 0.42488 0.81648 0.0
H1676 H 0.80016 0.4964 0.82534 0.0
H1677 H 0.77274 0.41159 0.81416 0.0
H1678 H 0.72627 0.49225 0.83746 0.0
H1679 H 0.7333 0.51574 0.80494 0.0
C1680 C 0.77398 0.54715 0.82816 0.0
C1681 C 0.76248 0.44628 0.84587 0.0
C1682 C 0.77019 0.49388 0.79414 0.0
C1683 C 0.72709 0.42156 0.81363 0.0
H1684 H 0.77606 0.49587 0.86011 0.0
H1685 H 0.78061 0.55235 0.85065 0.0
H1686 H 0.78837 0.58757 0.81128 0.0
H1687 H 0.78805 0.557 0.79287 0.0
H1688 H 0.74695 0.45172 0.7807 0.0
H1689 H 0.72209 0.41408 0.79131 0.0
H1690 H 0.71633 0.37812 0.83016 0.0
H1691 H 0.7375 0.38959 0.8475 0.0
H1692 H 0.69825 0.53017 0.83892 0.0
H1693 H 0.70562 0.55303 0.80584 0.0
H1694 H 0.80607 0.3856 0.81321 0.0
H1695 H 0.83303 0.47199 0.82489 0.0
H1696 H 0.52405 0.11644 0.09838 0.0
H1697 H 0.49959 0.04147 0.11797 0.0
H1698 H 0.52755 0.15061 0.11389 0.0
H1699 H 0.50363 0.0755 0.13365 0.0
H1700 H 0.52981 0.13882 0.16041 0.0
H1701 H 0.53119 0.10422 0.14481 0.0
H1702 H 0.50149 0.17703 0.12635 0.0
H1703 H 0.49938 0.21097 0.14205 0.0
C1704 C 0.51974 0.10706 0.10605 0.0
C1705 C 0.51151 0.07621 0.10694 0.0
C1706 C 0.52165 0.12673 0.11493 0.0
C1707 C 0.51578 0.11591 0.12501 0.0
C1708 C 0.5084 0.08451 0.126 0.0
C1709 C 0.50612 0.06497 0.11705 0.0
C1710 C 0.52403 0.14769 0.15294 0.0
C1711 C 0.51501 0.17804 0.15241 0.0
C1712 C 0.52461 0.12775 0.14405 0.0
C1713 C 0.51645 0.13782 0.13433 0.0
C1714 C 0.50814 0.16869 0.13368 0.0
C1715 C 0.50718 0.18837 0.14264 0.0
H1716 H 0.75316 0.11823 0.15975 0.0
H1717 H 0.78249 0.04582 0.14115 0.0
H1718 H 0.75074 0.15251 0.14403 0.0
H1719 H 0.77926 0.07944 0.12533 0.0
H1720 H 0.7561 0.14173 0.09751 0.0
H1721 H 0.7523 0.10717 0.11309 0.0
H1722 H 0.77903 0.17995 0.13257 0.0
H1723 H 0.7837 0.21381 0.11692 0.0
C1724 C 0.75845 0.1092 0.15222 0.0
C1725 C 0.76752 0.07892 0.15166 0.0
C1726 C 0.75723 0.12894 0.14324 0.0
C1727 C 0.76477 0.11872 0.13342 0.0
C1728 C 0.77304 0.08786 0.13275 0.0
C1729 C 0.77467 0.06837 0.14179 0.0
C1730 C 0.76074 0.1506 0.10517 0.0
C1731 C 0.76967 0.18093 0.10601 0.0
C1732 C 0.75871 0.13071 0.11407 0.0
C1733 C 0.76529 0.14082 0.12409 0.0
C1734 C 0.77352 0.17164 0.12501 0.0
C1735 C 0.77596 0.19126 0.11605 0.0
H1736 H 0.55206 0.81642 0.86239 0.0
H1737 H 0.49312 0.84811 0.85274 0.0
H1738 H 0.55015 0.85053 0.87808 0.0
H1739 H 0.49089 0.88182 0.86862 0.0
H1740 H 0.49299 0.91146 0.90562 0.0
H1741 H 0.49115 0.87785 0.8897 0.0
H1742 H 0.5495 0.9124 0.87987 0.0
H1743 H 0.55102 0.94637 0.8956 0.0
C1744 C 0.53847 0.83008 0.86381 0.0
C1745 C 0.52269 0.82952 0.85641 0.0
C1746 C 0.53745 0.84988 0.87271 0.0
C1747 C 0.52047 0.86923 0.87453 0.0
C1748 C 0.50417 0.86725 0.86744 0.0
C1749 C 0.50537 0.84783 0.8584 0.0
C1750 C 0.50509 0.91249 0.89987 0.0
C1751 C 0.52205 0.9317 0.90175 0.0
C1752 C 0.50412 0.89313 0.89081 0.0
C1753 C 0.52031 0.89211 0.8836 0.0
C1754 C 0.5369 0.91233 0.88533 0.0
C1755 C 0.53769 0.93206 0.89425 0.0
H1756 H 0.28433 0.89303 0.84732 0.0
H1757 H 0.2565 0.96597 0.86631 0.0
H1758 H 0.28715 0.85861 0.86298 0.0
H1759 H 0.26006 0.93214 0.88206 0.0
H1760 H 0.28316 0.86943 0.90967 0.0
H1761 H 0.28651 0.90417 0.8941 0.0
H1762 H 0.25998 0.83107 0.87467 0.0
H1763 H 0.25585 0.79699 0.89031 0.0
C1764 C 0.27945 0.90212 0.85492 0.0
C1765 C 0.2707 0.93261 0.85561 0.0
C1766 C 0.28089 0.88229 0.86387 0.0
C1767 C 0.27386 0.89258 0.87379 0.0
C1768 C 0.26589 0.92363 0.87457 0.0
C1769 C 0.26408 0.94323 0.86557 0.0
C1770 C 0.27847 0.86054 0.90202 0.0
C1771 C 0.26978 0.83005 0.90119 0.0
C1772 C 0.28023 0.88054 0.89312 0.0
C1773 C 0.27359 0.87041 0.88312 0.0
C1774 C 0.26555 0.83944 0.88222 0.0
C1775 C 0.26341 0.81969 0.89117 0.0
H1776 H 0.48648 0.56533 0.61217 0.0
H1777 H 0.5456 0.59656 0.60258 0.0
H1778 H 0.48839 0.59925 0.6279 0.0
H1779 H 0.54783 0.63012 0.6185 0.0
H1780 H 0.54576 0.65961 0.65545 0.0
H1781 H 0.54754 0.62616 0.63949 0.0
H1782 H 0.48914 0.66086 0.62984 0.0
H1783 H 0.48769 0.69465 0.64562 0.0
C1784 C 0.5001 0.57885 0.61361 0.0
C1785 C 0.51594 0.57821 0.60622 0.0
C1786 C 0.50113 0.59856 0.62253 0.0
C1787 C 0.51816 0.61773 0.62438 0.0
C1788 C 0.53451 0.61567 0.61729 0.0
C1789 C 0.53331 0.59635 0.60824 0.0
C1790 C 0.53364 0.66072 0.64972 0.0
C1791 C 0.5167 0.67993 0.65167 0.0
C1792 C 0.53457 0.64145 0.64064 0.0
C1793 C 0.51835 0.64051 0.63347 0.0
C1794 C 0.50177 0.66072 0.63526 0.0
C1795 C 0.50102 0.68036 0.64421 0.0
H1796 H 0.74459 0.59665 0.65564 0.0
H1797 H 0.8021 0.56106 0.64515 0.0
H1798 H 0.74248 0.63066 0.63974 0.0
H1799 H 0.80033 0.59545 0.62943 0.0
H1800 H 0.80301 0.69226 0.61217 0.0
H1801 H 0.80123 0.65767 0.62783 0.0
H1802 H 0.74175 0.62708 0.61857 0.0
H1803 H 0.74386 0.66128 0.6027 0.0
C1804 C 0.7565 0.59553 0.64978 0.0
C1805 C 0.77339 0.57601 0.65153 0.0
C1806 C 0.75538 0.61512 0.64073 0.0
C1807 C 0.77137 0.61609 0.6334 0.0
C1808 C 0.78788 0.59555 0.63499 0.0
C1809 C 0.7888 0.57557 0.6439 0.0
C1810 C 0.7894 0.67867 0.61363 0.0
C1811 C 0.77352 0.67955 0.60629 0.0
C1812 C 0.78845 0.65859 0.62251 0.0
C1813 C 0.77145 0.63929 0.62437 0.0
C1814 C 0.75505 0.64161 0.61735 0.0
C1815 C 0.75618 0.66131 0.60832 0.0
H1816 H 0.55285 0.44223 0.39567 0.0
H1817 H 0.49397 0.41035 0.40543 0.0
H1818 H 0.55099 0.40807 0.37999 0.0
H1819 H 0.49178 0.37656 0.38956 0.0
H1820 H 0.49387 0.34664 0.3526 0.0
H1821 H 0.49199 0.38038 0.36849 0.0
H1822 H 0.55047 0.34623 0.37823 0.0
H1823 H 0.55202 0.31215 0.36252 0.0
C1824 C 0.53928 0.42851 0.39428 0.0
C1825 C 0.5235 0.42903 0.4017 0.0
C1826 C 0.53829 0.40868 0.38539 0.0
C1827 C 0.52134 0.38926 0.3836 0.0
C1828 C 0.50504 0.39119 0.39072 0.0
C1829 C 0.50621 0.41065 0.39975 0.0
C1830 C 0.506 0.34574 0.35833 0.0
C1831 C 0.52299 0.32661 0.35642 0.0
C1832 C 0.505 0.36516 0.36737 0.0
C1833 C 0.52121 0.36634 0.37455 0.0
C1834 C 0.53785 0.3462 0.37279 0.0
C1835 C 0.53866 0.3264 0.36389 0.0
H1836 H 0.23793 0.4437 0.36228 0.0
H1837 H 0.29597 0.40941 0.35213 0.0
H1838 H 0.23969 0.40942 0.37802 0.0
H1839 H 0.29806 0.37549 0.36805 0.0
H1840 H 0.29651 0.34516 0.40506 0.0
H1841 H 0.2985 0.3791 0.38913 0.0
H1842 H 0.23925 0.34752 0.37986 0.0
H1843 H 0.23757 0.3132 0.39559 0.0
C1844 C 0.25131 0.42944 0.3636 0.0
C1845 C 0.26688 0.42934 0.35606 0.0
C1846 C 0.25224 0.40954 0.37253 0.0
C1847 C 0.26891 0.38941 0.37423 0.0
C1848 C 0.28503 0.39069 0.36697 0.0
C1849 C 0.28391 0.41022 0.35791 0.0
C1850 C 0.28421 0.34488 0.39943 0.0
C1851 C 0.26696 0.32643 0.40148 0.0
C1852 C 0.28527 0.36442 0.39037 0.0
C1853 C 0.2689 0.36638 0.38331 0.0
C1854 C 0.252 0.34689 0.3852 0.0
C1855 C 0.25111 0.32697 0.39412 0.0
H1856 H 0.98678 0.06322 0.61228 0.0
H1857 H 0.04572 0.09515 0.60263 0.0
H1858 H 0.9885 0.09748 0.62794 0.0
H1859 H 0.04776 0.12901 0.61849 0.0
H1860 H 0.0451 0.15886 0.65551 0.0
H1861 H 0.04723 0.12511 0.63963 0.0
H1862 H 0.98907 0.15962 0.62955 0.0
H1863 H 0.98728 0.19376 0.64524 0.0
C1864 C 1.00034 0.07692 0.6137 0.0
C1865 C 1.01618 0.07639 0.60631 0.0
C1866 C 1.00125 0.09683 0.62258 0.0
C1867 C 1.01816 0.1163 0.62439 0.0
C1868 C 0.03453 0.11433 0.61731 0.0
C1869 C 0.03344 0.09482 0.60829 0.0
C1870 C 0.03312 0.15989 0.6497 0.0
C1871 C 1.01614 0.17915 0.65151 0.0
C1872 C 0.03425 0.14044 0.64067 0.0
C1873 C 1.01819 0.13933 0.63341 0.0
C1874 C 1.00158 0.15961 0.63505 0.0
C1875 C 1.00064 0.17946 0.64394 0.0
H1876 H 0.28326 0.21252 0.61676 0.0
H1877 H 0.25532 0.1403 0.59755 0.0
H1878 H 0.27924 0.17849 0.63243 0.0
H1879 H 0.25211 0.10562 0.61313 0.0
H1880 H 0.2836 0.04391 0.64058 0.0
H1881 H 0.27961 0.078 0.62493 0.0
H1882 H 0.25185 0.15038 0.64423 0.0
H1883 H 0.25502 0.11561 0.65979 0.0
C1884 C 0.27556 0.18991 0.61595 0.0
C1885 C 0.26903 0.17954 0.60595 0.0
C1886 C 0.27349 0.17019 0.62491 0.0
C1887 C 0.26538 0.13928 0.62404 0.0
C1888 C 0.25846 0.12922 0.61408 0.0
C1889 C 0.26013 0.14919 0.60518 0.0
C1890 C 0.27578 0.06642 0.64139 0.0
C1891 C 0.26904 0.0766 0.65138 0.0
C1892 C 0.27372 0.08618 0.63244 0.0
C1893 C 0.26542 0.11697 0.63332 0.0
C1894 C 0.25834 0.12687 0.64328 0.0
C1895 C 0.25999 0.10686 0.65216 0.0
H1896 H 0.9941 0.84667 0.35248 0.0
H1897 H 0.05248 0.81347 0.36251 0.0
H1898 H 0.99191 0.88062 0.36831 0.0
H1899 H 0.05062 0.84783 0.37815 0.0
H1900 H 0.05214 0.94442 0.3953 0.0
H1901 H 0.05047 0.91014 0.37965 0.0
H1902 H 0.99189 0.87663 0.38952 0.0
H1903 H 0.99391 0.91051 0.40538 0.0
C1904 C 1.00621 0.84609 0.35821 0.0
C1905 C 0.02337 0.82728 0.35635 0.0
C1906 C 1.00504 0.86565 0.36722 0.0
C1907 C 0.02122 0.86727 0.3744 0.0
C1908 C 0.03802 0.84743 0.3727 0.0
C1909 C 0.039 0.82749 0.36384 0.0
C1910 C 0.03873 0.93028 0.39398 0.0
C1911 C 0.02308 0.93027 0.40148 0.0
C1912 C 0.03785 0.91037 0.3851 0.0
C1913 C 0.02115 0.89035 0.38341 0.0
C1914 C 1.00495 0.89176 0.3906 0.0
C1915 C 1.00602 0.91127 0.39962 0.0
H1916 H 0.79628 0.84699 0.40555 0.0
H1917 H 0.73875 0.81179 0.39502 0.0
H1918 H 0.79848 0.88124 0.3897 0.0
H1919 H 0.7406 0.84647 0.37938 0.0
H1920 H 0.73819 0.94407 0.36248 0.0
H1921 H 0.74003 0.9093 0.3781 0.0
H1922 H 0.79896 0.87735 0.36833 0.0
H1923 H 0.79678 0.91167 0.35249 0.0
C1924 C 0.78438 0.84602 0.39969 0.0
C1925 C 0.76745 0.82655 0.40142 0.0
C1926 C 0.78556 0.86575 0.39068 0.0
C1927 C 0.76958 0.8669 0.38336 0.0
C1928 C 0.75304 0.84641 0.38492 0.0
C1929 C 0.75207 0.82628 0.39379 0.0
C1930 C 0.75171 0.93016 0.36382 0.0
C1931 C 0.7674 0.93068 0.35634 0.0
C1932 C 0.75269 0.90998 0.37268 0.0
C1933 C 0.76954 0.89025 0.37438 0.0
C1934 C 0.78578 0.89222 0.36723 0.0
C1935 C 0.78461 0.912 0.35822 0.0
H1936 H 0.04427 0.66336 0.15565 0.0
H1937 H 0.98606 0.69669 0.1454 0.0
H1938 H 0.0467 0.62957 0.1398 0.0
H1939 H 0.98816 0.66253 0.12973 0.0
H1940 H 0.98684 0.56639 0.11237 0.0
H1941 H 0.98818 0.6006 0.12805 0.0
H1942 H 0.04724 0.63337 0.11872 0.0
H1943 H 0.04559 0.59953 0.10285 0.0
C1944 C 0.03225 0.66402 0.14986 0.0
C1945 C 1.01508 0.68282 0.15166 0.0
C1946 C 0.03356 0.64455 0.14084 0.0
C1947 C 1.0175 0.64302 0.13358 0.0
C1948 C 1.00068 0.66285 0.13523 0.0
C1949 C 0.99956 0.6827 0.14411 0.0
C1950 C 1.00028 0.58036 0.11382 0.0
C1951 C 1.01618 0.58018 0.10647 0.0
C1952 C 1.00097 0.60023 0.12271 0.0
C1953 C 1.01772 0.62003 0.12456 0.0
C1954 C 0.03414 0.61843 0.11751 0.0
C1955 C 0.03328 0.59894 0.10849 0.0
H1956 H 0.30179 0.56648 0.14519 0.0
H1957 H 0.24303 0.59949 0.15465 0.0
H1958 H 0.30041 0.60073 0.12943 0.0
H1959 H 0.24133 0.63335 0.1387 0.0
H1960 H 0.24424 0.66363 0.10169 0.0
H1961 H 0.24184 0.62975 0.11762 0.0
H1962 H 0.3004 0.66264 0.12758 0.0
H1963 H 0.30247 0.69689 0.11184 0.0
C1964 C 0.28834 0.58042 0.14371 0.0
C1965 C 0.27245 0.58018 0.15107 0.0
C1966 C 0.28763 0.60032 0.13477 0.0
C1967 C 0.27086 0.6201 0.13287 0.0
C1968 C 0.25444 0.61844 0.13993 0.0
C1969 C 0.25534 0.59892 0.14901 0.0
C1970 C 0.25627 0.66425 0.10748 0.0
C1971 C 0.27344 0.68308 0.10562 0.0
C1972 C 0.25498 0.64473 0.11654 0.0
C1973 C 0.27106 0.64314 0.12379 0.0
C1974 C 0.28787 0.66299 0.12209 0.0
C1975 C 0.28897 0.6829 0.11316 0.0
H1976 H 0.99118 0.34181 0.85416 0.0
H1977 H 0.05219 0.31772 0.86262 0.0
H1978 H 0.98873 0.37641 0.86983 0.0
H1979 H 0.05002 0.35276 0.87806 0.0
H1980 H 0.04808 0.4498 0.89473 0.0
H1981 H 0.04653 0.41491 0.87921 0.0
H1982 H 0.99127 0.37373 0.891 0.0
H1983 H 0.9932 0.40827 0.90669 0.0
C1984 C 1.00388 0.34341 0.85951 0.0
C1985 C 0.02187 0.32715 0.85721 0.0
C1986 C 1.00254 0.36334 0.86842 0.0
C1987 C 1.01931 0.36778 0.87507 0.0
C1988 C 0.03696 0.35026 0.873 0.0
C1989 C 0.03815 0.32994 0.86424 0.0
C1990 C 0.03533 0.43392 0.89383 0.0
C1991 C 0.0206 0.43202 0.9018 0.0
C1992 C 0.03456 0.41366 0.88504 0.0
C1993 C 1.01888 0.3913 0.88393 0.0
C1994 C 1.0035 0.39071 0.89162 0.0
C1995 C 1.0045 0.41062 0.90053 0.0
H1996 H 0.79535 0.34814 0.9057 0.0
H1997 H 0.7388 0.30997 0.89487 0.0
H1998 H 0.79721 0.38239 0.88984 0.0
H1999 H 0.74029 0.34463 0.87921 0.0
H2000 H 0.73621 0.44237 0.8624 0.0
H2001 H 0.73845 0.40743 0.87796 0.0
H2002 H 0.79818 0.37864 0.86845 0.0
H2003 H 0.7956 0.41311 0.85266 0.0
C2004 C 0.78361 0.34651 0.89978 0.0
C2005 C 0.76705 0.32619 0.90142 0.0
C2006 C 0.78459 0.36624 0.89075 0.0
C2007 C 0.76876 0.36655 0.88334 0.0
C2008 C 0.75261 0.34522 0.88482 0.0
C2009 C 0.75186 0.3251 0.8937 0.0
C2010 C 0.74996 0.42907 0.86377 0.0
C2011 C 0.76577 0.43051 0.85637 0.0
C2012 C 0.75118 0.40881 0.8726 0.0
C2013 C 0.76839 0.38993 0.87437 0.0
C2014 C 0.78472 0.39283 0.8673 0.0
C2015 C 0.78332 0.41268 0.85831 0.0
H2016 H 0.34932 0.83845 0.08664 0.0
H2017 H 0.37221 0.80388 0.05683 0.0
H2018 H 0.37603 0.8787 0.08705 0.0
H2019 H 0.39852 0.84437 0.05712 0.0
H2020 H 0.45586 0.89887 0.06595 0.0
H2021 H 0.42926 0.85892 0.06599 0.0
H2022 H 0.38756 0.92813 0.07853 0.0
H2023 H 0.41445 0.96814 0.07871 0.0
C2024 C 0.3601 0.83921 0.0802 0.0
C2025 C 0.35845 0.81763 0.07171 0.0
C2026 C 0.37533 0.86265 0.08037 0.0
C2027 C 0.38959 0.8651 0.07211 0.0
C2028 C 0.38805 0.84326 0.06369 0.0
C2029 C 0.37275 0.82007 0.06348 0.0
C2030 C 0.44109 0.90567 0.06881 0.0
C2031 C 0.43752 0.93698 0.07238 0.0
C2032 C 0.42567 0.88269 0.06872 0.0
C2033 C 0.40607 0.89 0.07226 0.0
C2034 C 0.40244 0.92132 0.07584 0.0
C2035 C 0.41787 0.94447 0.07584 0.0
H2036 H 0.85035 0.33651 0.08902 0.0
H2037 H 0.86869 0.31119 0.05733 0.0
H2038 H 0.87623 0.37797 0.08936 0.0
H2039 H 0.89407 0.35295 0.05762 0.0
H2040 H 0.9219 0.45263 0.05684 0.0
H2041 H 0.89646 0.41095 0.05732 0.0
H2042 H 0.91297 0.38824 0.08949 0.0
H2043 H 0.9389 0.4296 0.08896 0.0
C2044 C 0.85995 0.3394 0.08215 0.0
C2045 C 0.85705 0.32028 0.07311 0.0
C2046 C 0.87483 0.3634 0.08234 0.0
C2047 C 0.88722 0.3693 0.07347 0.0
C2048 C 0.8846 0.34978 0.06453 0.0
C2049 C 0.86989 0.32568 0.06437 0.0
C2050 C 0.92039 0.43867 0.06401 0.0
C2051 C 0.93287 0.44469 0.07282 0.0
C2052 C 0.90565 0.41462 0.06429 0.0
C2053 C 0.90264 0.39577 0.07341 0.0
C2054 C 0.91467 0.40229 0.08234 0.0
C2055 C 0.92957 0.42624 0.08204 0.0
H2056 H 0.43659 0.33312 0.16933 0.0
H2057 H 0.41932 0.30982 0.20141 0.0
H2058 H 0.41025 0.37365 0.16867 0.0
H2059 H 0.39405 0.35145 0.20099 0.0
H2060 H 0.33744 0.40835 0.19517 0.0
H2061 H 0.3627 0.36654 0.19474 0.0
H2062 H 0.39986 0.42473 0.17427 0.0
H2063 H 0.37411 0.46648 0.17453 0.0
C2064 C 0.4272 0.33642 0.17625 0.0
C2065 C 0.43037 0.31781 0.18543 0.0
C2066 C 0.41218 0.3602 0.17593 0.0
C2067 C 0.39977 0.3663 0.18478 0.0
C2068 C 0.4029 0.34752 0.19392 0.0
C2069 C 0.41778 0.3237 0.19421 0.0
C2070 C 0.35104 0.41245 0.19062 0.0
C2071 C 0.35368 0.44122 0.18499 0.0
C2072 C 0.36569 0.3883 0.19039 0.0
C2073 C 0.38371 0.39196 0.18458 0.0
C2074 C 0.38621 0.42056 0.17877 0.0
C2075 C 0.37141 0.44471 0.17894 0.0
H2076 H 0.86589 0.95118 0.20092 0.0
H2077 H 0.8483 0.9259 0.16913 0.0
H2078 H 0.89146 0.91005 0.2007 0.0
H2079 H 0.87498 0.88595 0.16865 0.0
H2080 H 0.91204 0.7943 0.17491 0.0
H2081 H 0.88595 0.8355 0.1745 0.0
H2082 H 0.92277 0.89504 0.19451 0.0
H2083 H 0.94835 0.85371 0.19512 0.0
C2084 C 0.86742 0.93698 0.19383 0.0
C2085 C 0.85463 0.94215 0.18508 0.0
C2086 C 0.88248 0.91345 0.19364 0.0
C2087 C 0.88563 0.89428 0.18463 0.0
C2088 C 0.87305 0.8997 0.17581 0.0
C2089 C 0.85782 0.92316 0.17603 0.0
C2090 C 0.91458 0.81625 0.17919 0.0
C2091 C 0.93231 0.82027 0.18516 0.0
C2092 C 0.89958 0.84009 0.17893 0.0
C2093 C 0.9019 0.86892 0.18455 0.0
C2094 C 0.91992 0.8731 0.19029 0.0
C2095 C 0.93476 0.84923 0.19063 0.0
H2096 H 0.70017 0.15335 0.94493 0.0
H2097 H 0.66435 0.21293 0.92437 0.0
H2098 H 0.67424 0.11255 0.94456 0.0
H2099 H 0.63797 0.17218 0.92416 0.0
H2100 H 0.59996 0.08175 0.91928 0.0
H2101 H 0.62691 0.12128 0.91856 0.0
H2102 H 0.64253 0.09913 0.95094 0.0
H2103 H 0.61656 0.05853 0.95144 0.0
C2104 C 0.68663 0.15797 0.9404 0.0
C2105 C 0.68441 0.18685 0.93478 0.0
C2106 C 0.6716 0.13442 0.94021 0.0
C2107 C 0.65362 0.13881 0.93444 0.0
C2108 C 0.65155 0.16748 0.92863 0.0
C2109 C 0.66673 0.19104 0.92876 0.0
C2110 C 0.60934 0.08486 0.92621 0.0
C2111 C 0.60582 0.06657 0.93543 0.0
C2112 C 0.62472 0.10805 0.92584 0.0
C2113 C 0.63715 0.11383 0.93469 0.0
C2114 C 0.63366 0.09539 0.94387 0.0
C2115 C 0.6184 0.07218 0.94422 0.0
H2116 H 0.20124 0.65296 0.94389 0.0
H2117 H 0.16481 0.71261 0.92366 0.0
H2118 H 0.17549 0.61188 0.94354 0.0
H2119 H 0.13857 0.67164 0.92349 0.0
H2120 H 0.10051 0.58144 0.91869 0.0
H2121 H 0.1274 0.62104 0.91787 0.0
H2122 H 0.14412 0.59771 0.95001 0.0
H2123 H 0.1183 0.55696 0.95057 0.0
C2124 C 0.1876 0.65754 0.93944 0.0
C2125 C 0.18516 0.6865 0.9339 0.0
C2126 C 0.17267 0.63383 0.93926 0.0
C2127 C 0.15456 0.63816 0.9336 0.0
C2128 C 0.15227 0.66695 0.92788 0.0
C2129 C 0.16735 0.69065 0.92799 0.0
C2130 C 0.11013 0.58428 0.92553 0.0
C2131 C 0.10694 0.56564 0.93471 0.0
C2132 C 0.12547 0.60752 0.92512 0.0
C2133 C 0.13818 0.61304 0.93388 0.0
C2134 C 0.13504 0.5942 0.943 0.0
C2135 C 0.11985 0.57091 0.94339 0.0
H2136 H 0.60041 0.67799 0.83911 0.0
H2137 H 0.61769 0.70195 0.80709 0.0
H2138 H 0.62704 0.63785 0.83975 0.0
H2139 H 0.64331 0.66082 0.8075 0.0
H2140 H 0.70031 0.60512 0.81343 0.0
H2141 H 0.67482 0.64658 0.81398 0.0
H2142 H 0.63753 0.58678 0.83386 0.0
H2143 H 0.66346 0.54531 0.83346 0.0
C2144 C 0.60988 0.67492 0.83221 0.0
C2145 C 0.60663 0.69354 0.82304 0.0
C2146 C 0.62505 0.65141 0.83252 0.0
C2147 C 0.63755 0.64566 0.82368 0.0
C2148 C 0.63437 0.66451 0.81456 0.0
C2149 C 0.61931 0.68802 0.81427 0.0
C2150 C 0.68663 0.60059 0.81788 0.0
C2151 C 0.68398 0.57145 0.82329 0.0
C2152 C 0.67187 0.62453 0.81818 0.0
C2153 C 0.65375 0.62028 0.82385 0.0
C2154 C 0.65125 0.59135 0.82946 0.0
C2155 C 0.66616 0.56739 0.82922 0.0
H2156 H 0.08568 0.14976 0.81872 0.0
H2157 H 0.12873 0.22334 0.82614 0.0
H2158 H 0.11259 0.11018 0.81864 0.0
H2159 H 0.15588 0.1835 0.82604 0.0
H2160 H 0.19454 0.09504 0.83632 0.0
H2161 H 0.16802 0.13577 0.83641 0.0
H2162 H 0.14236 0.09461 0.80823 0.0
H2163 H 0.16868 0.05396 0.80818 0.0
C2164 C 0.10092 0.15754 0.82035 0.0
C2165 C 0.10493 0.18987 0.82248 0.0
C2166 C 0.11643 0.13479 0.82023 0.0
C2167 C 0.13652 0.14344 0.82235 0.0
C2168 C 0.1406 0.17581 0.82446 0.0
C2169 C 0.12506 0.19876 0.82442 0.0
C2170 C 0.18313 0.0945 0.8302 0.0
C2171 C 0.18383 0.07101 0.82225 0.0
C2172 C 0.16803 0.11812 0.83018 0.0
C2173 C 0.15297 0.11868 0.82232 0.0
C2174 C 0.15355 0.09495 0.81447 0.0
C2175 C 0.16877 0.07165 0.8144 0.0
H2176 H 0.42153 0.45019 0.55652 0.0
H2177 H 0.43824 0.42779 0.58874 0.0
H2178 H 0.39615 0.40844 0.55702 0.0
H2179 H 0.41235 0.38638 0.58928 0.0
H2180 H 0.34973 0.33455 0.58874 0.0
H2181 H 0.37558 0.37604 0.58906 0.0
H2182 H 0.39379 0.35039 0.55743 0.0
H2183 H 0.36845 0.30857 0.55716 0.0
C2184 C 0.41997 0.43636 0.56372 0.0
C2185 C 0.43237 0.44259 0.57255 0.0
C2186 C 0.40526 0.41225 0.564 0.0
C2187 C 0.40217 0.39357 0.57315 0.0
C2188 C 0.4141 0.40029 0.5821 0.0
C2189 C 0.42899 0.42428 0.58179 0.0
C2190 C 0.35941 0.33729 0.58189 0.0
C2191 C 0.35661 0.31796 0.57289 0.0
C2192 C 0.37427 0.36133 0.58208 0.0
C2193 C 0.38676 0.36706 0.57323 0.0
C2194 C 0.38424 0.34735 0.56433 0.0
C2195 C 0.36955 0.32322 0.56417 0.0
H2196 H 0.86785 0.80864 0.55641 0.0
H2197 H 0.85067 0.83146 0.58849 0.0
H2198 H 0.8932 0.85044 0.5568 0.0
H2199 H 0.87647 0.87301 0.58891 0.0
H2200 H 0.93877 0.92542 0.58844 0.0
H2201 H 0.91294 0.88389 0.58885 0.0
H2202 H 0.89588 0.90813 0.55688 0.0
H2203 H 0.92125 0.9499 0.55651 0.0
C2204 C 0.8693 0.82259 0.56356 0.0
C2205 C 0.8568 0.81645 0.57238 0.0
C2206 C 0.88399 0.84673 0.56377 0.0
C2207 C 0.88692 0.8656 0.57285 0.0
C2208 C 0.87485 0.85897 0.58179 0.0
C2209 C 0.86001 0.83491 0.58155 0.0
C2210 C 0.92934 0.92234 0.58153 0.0
C2211 C 0.93247 0.94126 0.57241 0.0
C2212 C 0.91449 0.89829 0.58176 0.0
C2213 C 0.90232 0.89214 0.57286 0.0
C2214 C 0.90517 0.91146 0.56383 0.0
C2215 C 0.91987 0.93559 0.56362 0.0
H2216 H 0.42106 0.80612 0.70104 0.0
H2217 H 0.43873 0.82927 0.66899 0.0
H2218 H 0.3956 0.84774 0.70045 0.0
H2219 H 0.41274 0.87053 0.66835 0.0
H2220 H 0.34988 0.92182 0.66862 0.0
H2221 H 0.37587 0.88051 0.66836 0.0
H2222 H 0.39328 0.90588 0.70011 0.0
H2223 H 0.36782 0.94753 0.70032 0.0
C2224 C 0.41969 0.82009 0.69386 0.0
C2225 C 0.43237 0.81413 0.6851 0.0
C2226 C 0.40493 0.84411 0.69352 0.0
C2227 C 0.40209 0.86295 0.68439 0.0
C2228 C 0.41431 0.85648 0.67551 0.0
C2229 C 0.42925 0.83258 0.67588 0.0
C2230 C 0.35942 0.91905 0.6755 0.0
C2231 C 0.35637 0.93823 0.68453 0.0
C2232 C 0.37435 0.89513 0.67536 0.0
C2233 C 0.38664 0.88937 0.68426 0.0
C2234 C 0.38388 0.90895 0.69318 0.0
C2235 C 0.36913 0.93298 0.69329 0.0
H2236 H 0.86846 0.44856 0.70153 0.0
H2237 H 0.8513 0.42503 0.66954 0.0
H2238 H 0.89368 0.40688 0.70126 0.0
H2239 H 0.87763 0.3845 0.66901 0.0
H2240 H 0.91376 0.29179 0.67502 0.0
H2241 H 0.88804 0.33356 0.67468 0.0
H2242 H 0.92499 0.39138 0.69517 0.0
H2243 H 0.95021 0.3495 0.69569 0.0
C2244 C 0.87001 0.43463 0.69438 0.0
C2245 C 0.85744 0.44048 0.68559 0.0
C2246 C 0.88488 0.41078 0.69417 0.0
C2247 C 0.88804 0.39191 0.68509 0.0
C2248 C 0.87567 0.39799 0.67622 0.0
C2249 C 0.86066 0.42179 0.67647 0.0
C2250 C 0.91642 0.31348 0.67942 0.0
C2251 C 0.93409 0.31684 0.68549 0.0
C2252 C 0.90163 0.33765 0.6792 0.0
C2253 C 0.90408 0.36618 0.68498 0.0
C2254 C 0.92203 0.36969 0.69083 0.0
C2255 C 0.93666 0.3455 0.69112 0.0
H2256 H 0.61762 0.55787 0.4512 0.0
H2257 H 0.60136 0.58063 0.41895 0.0
H2258 H 0.64331 0.59886 0.45079 0.0
H2259 H 0.62809 0.62057 0.41832 0.0
H2260 H 0.66478 0.71294 0.42427 0.0
H2261 H 0.6387 0.67171 0.42394 0.0
H2262 H 0.67501 0.61285 0.44457 0.0
H2263 H 0.70064 0.65409 0.44505 0.0
C2264 C 0.61947 0.5715 0.44397 0.0
C2265 C 0.60704 0.56567 0.43514 0.0
C2266 C 0.63459 0.59494 0.44368 0.0
C2267 C 0.63811 0.6134 0.4345 0.0
C2268 C 0.62586 0.60735 0.4256 0.0
C2269 C 0.61062 0.58393 0.42591 0.0
C2270 C 0.66723 0.69112 0.4287 0.0
C2271 C 0.68483 0.68728 0.4348 0.0
C2272 C 0.65224 0.66728 0.42849 0.0
C2273 C 0.6544 0.63867 0.43432 0.0
C2274 C 0.67229 0.63465 0.44019 0.0
C2275 C 0.68715 0.65848 0.44045 0.0
H2276 H 0.1182 0.05674 0.45104 0.0
H2277 H 0.10137 0.08117 0.41902 0.0
H2278 H 0.14403 0.09754 0.4507 0.0
H2279 H 0.1282 0.12095 0.41845 0.0
H2280 H 0.16521 0.21278 0.42471 0.0
H2281 H 0.13901 0.17177 0.42432 0.0
H2282 H 0.17567 0.11156 0.44434 0.0
H2283 H 0.20144 0.15258 0.44487 0.0
C2284 C 0.11996 0.0707 0.44388 0.0
C2285 C 0.10733 0.06539 0.43509 0.0
C2286 C 0.13514 0.09403 0.44362 0.0
C2287 C 0.13852 0.11291 0.43453 0.0
C2288 C 0.12608 0.10738 0.42567 0.0
C2289 C 0.11077 0.08406 0.42594 0.0
C2290 C 0.16772 0.19072 0.42899 0.0
C2291 C 0.18547 0.18643 0.43494 0.0
C2292 C 0.15265 0.167 0.42875 0.0
C2293 C 0.15488 0.13807 0.43439 0.0
C2294 C 0.17291 0.13361 0.44011 0.0
C2295 C 0.18784 0.15731 0.4404 0.0
H2296 H 0.70088 0.10354 0.3129 0.0
H2297 H 0.66497 0.04391 0.33345 0.0
H2298 H 0.67509 0.14454 0.31342 0.0
H2299 H 0.63874 0.0849 0.33383 0.0
H2300 H 0.60108 0.17562 0.33898 0.0
H2301 H 0.62796 0.1359 0.33957 0.0
H2302 H 0.64336 0.15823 0.30715 0.0
H2303 H 0.61749 0.19898 0.30679 0.0
C2304 C 0.68734 0.09893 0.31746 0.0
C2305 C 0.68506 0.06998 0.32303 0.0
C2306 C 0.6724 0.12262 0.31774 0.0
C2307 C 0.65445 0.1183 0.32356 0.0
C2308 C 0.65231 0.08955 0.32932 0.0
C2309 C 0.6674 0.06585 0.32909 0.0
C2310 C 0.6104 0.17251 0.33202 0.0
C2311 C 0.60683 0.19085 0.32283 0.0
C2312 C 0.62573 0.14922 0.33231 0.0
C2313 C 0.63807 0.14342 0.32341 0.0
C2314 C 0.63455 0.16197 0.31426 0.0
C2315 C 0.61935 0.18527 0.31399 0.0
H2316 H 0.20109 0.60287 0.31274 0.0
H2317 H 0.16482 0.54323 0.33311 0.0
H2318 H 0.17549 0.64417 0.31334 0.0
H2319 H 0.13878 0.58451 0.33355 0.0
H2320 H 0.10143 0.67543 0.33887 0.0
H2321 H 0.12814 0.63542 0.3394 0.0
H2322 H 0.1439 0.6585 0.30709 0.0
H2323 H 0.11822 0.69953 0.30679 0.0
C2324 C 0.18751 0.59833 0.31727 0.0
C2325 C 0.18508 0.56929 0.32277 0.0
C2326 C 0.17268 0.62218 0.3176 0.0
C2327 C 0.15469 0.61795 0.32339 0.0
C2328 C 0.15239 0.5891 0.32907 0.0
C2329 C 0.16737 0.56523 0.3288 0.0
C2330 C 0.1108 0.67242 0.33193 0.0
C2331 C 0.10738 0.69105 0.32278 0.0
C2332 C 0.12603 0.64896 0.33218 0.0
C2333 C 0.13842 0.64328 0.32329 0.0
C2334 C 0.13506 0.66213 0.31419 0.0
C2335 C 0.11996 0.6856 0.31396 0.0
H2336 H 0.54175 0.0131 0.03065 0.0
H2337 H 0.47969 0.98315 0.03121 0.0
H2338 H 0.54198 0.00979 0.01133 0.0
H2339 H 0.47947 0.98084 0.01185 0.0
H2340 H 0.49245 0.95455 0.97688 0.0
H2341 H 0.49096 0.95505 0.99624 0.0
H2342 H 0.52934 0.03829 0.99653 0.0
H2343 H 0.53132 0.03674 0.97722 0.0
C2344 C 0.52829 0.00509 0.02661 0.0
C2345 C 0.51081 0.99787 0.03241 0.0
C2346 C 0.52824 1.0038 0.01552 0.0
C2347 C 0.51062 0.99557 0.00993 0.0
C2348 C 0.49336 0.98707 0.01581 0.0
C2349 C 0.49347 0.98821 0.02692 0.0
C2350 C 0.50008 0.97341 0.98112 0.0
C2351 C 0.51163 0.99601 0.97556 0.0
C2352 C 0.49935 0.97366 0.99222 0.0
C2353 C 0.51022 0.99649 0.99805 0.0
C2354 C 0.52109 0.01991 0.99239 0.0
C2355 C 0.5219 0.01952 0.9813 0.0
H2356 H 0.7997 0.272 0.03191 0.0
H2357 H 0.74033 0.23102 0.0302 0.0
H2358 H 0.80101 0.2759 0.01265 0.0
H2359 H 0.7409 0.23634 0.01089 0.0
H2360 H 0.75435 0.21822 0.97641 0.0
H2361 H 0.75476 0.21405 0.99569 0.0
H2362 H 0.79019 0.30043 0.99725 0.0
H2363 H 0.79068 0.30311 0.97795 0.0
C2364 C 0.78667 0.26473 0.02736 0.0
C2365 C 0.76985 0.25147 0.03249 0.0
C2366 C 0.78737 0.2669 0.0163 0.0
C2367 C 0.77114 0.25617 0.01006 0.0
C2368 C 0.75393 0.24415 0.01532 0.0
C2369 C 0.75338 0.24159 0.0264 0.0
C2370 C 0.76282 0.23559 0.9809 0.0
C2371 C 0.77292 0.26053 0.97568 0.0
C2372 C 0.76268 0.23371 0.99199 0.0
C2373 C 0.77229 0.25712 0.99818 0.0
C2374 C 0.78283 0.28163 0.99287 0.0
C2375 C 0.7832 0.28321 0.98178 0.0
H2376 H 0.54794 0.23068 0.22821 0.0
H2377 H 0.4886 0.27168 0.22618 0.0
H2378 H 0.54708 0.23583 0.2475 0.0
H2379 H 0.48696 0.27531 0.24542 0.0
H2380 H 0.49661 0.30147 0.28022 0.0
H2381 H 0.49719 0.2991 0.26093 0.0
H2382 H 0.53313 0.2132 0.26262 0.0
H2383 H 0.53349 0.21714 0.28189 0.0
C2384 C 0.53486 0.24131 0.23193 0.0
C2385 C 0.51848 0.25123 0.22576 0.0
C2386 C 0.53412 0.24371 0.24301 0.0
C2387 C 0.51679 0.25555 0.24818 0.0
C2388 C 0.50068 0.26643 0.24186 0.0
C2389 C 0.50158 0.26446 0.2308 0.0
C2390 C 0.50419 0.28169 0.27642 0.0
C2391 C 0.51466 0.25916 0.28255 0.0
C2392 C 0.50462 0.28031 0.26534 0.0
C2393 C 0.5154 0.25611 0.26006 0.0
C2394 C 0.52507 0.23268 0.26629 0.0
C2395 C 0.52488 0.23439 0.27737 0.0
H2396 H 0.73825 0.02814 0.22844 0.0
H2397 H 0.79831 0.99033 0.22561 0.0
H2398 H 0.74009 0.02273 0.24773 0.0
H2399 H 0.80087 0.9864 0.24483 0.0
H2400 H 0.79289 0.95808 0.27968 0.0
H2401 H 0.79158 0.96128 0.26041 0.0
H2402 H 0.75434 0.04563 0.2627 0.0
H2403 H 0.75479 0.04089 0.28196 0.0
C2404 C 0.75172 0.01821 0.23199 0.0
C2405 C 0.76801 0.00925 0.22559 0.0
C2406 C 0.75301 0.01564 0.24305 0.0
C2407 C 0.77078 0.00453 0.24799 0.0
C2408 C 0.78684 0.99468 0.24145 0.0
C2409 C 0.78541 0.99685 0.23041 0.0
C2410 C 0.78486 0.97771 0.27602 0.0
C2411 C 0.77427 0.99956 0.28231 0.0
C2412 C 0.78401 0.97957 0.26494 0.0
C2413 C 0.77266 1.00356 0.25985 0.0
C2414 C 0.76285 0.02633 0.26623 0.0
C2415 C 0.76348 0.02415 0.27731 0.0
H2416 H 0.25561 0.71897 0.97533 0.0
H2417 H 0.291 0.80487 0.97683 0.0
H2418 H 0.25594 0.71505 0.99461 0.0
H2419 H 0.29043 0.80238 0.99614 0.0
H2420 H 0.29976 0.77427 0.03093 0.0
H2421 H 0.30129 0.77824 0.01166 0.0
H2422 H 0.24155 0.73743 0.00968 0.0
H2423 H 0.24076 0.73212 0.02898 0.0
C2424 C 0.26387 0.73662 0.97981 0.0
C2425 C 0.27371 0.76179 0.97458 0.0
C2426 C 0.26367 0.73488 0.9909 0.0
C2427 C 0.27296 0.75864 0.99708 0.0
C2428 C 0.2833 0.78335 0.99176 0.0
C2429 C 0.28372 0.78481 0.98067 0.0
C2430 C 0.28683 0.76683 0.02632 0.0
C2431 C 0.27004 0.75325 0.03139 0.0
C2432 C 0.28768 0.76899 0.01526 0.0
C2433 C 0.27164 0.75787 0.00896 0.0
C2434 C 0.25444 0.74555 0.01416 0.0
C2435 C 0.25375 0.74303 0.02524 0.0
H2436 H 0.48999 0.76963 0.72599 0.0
H2437 H 0.55006 0.73164 0.72847 0.0
H2438 H 0.48798 0.77405 0.74522 0.0
H2439 H 0.54877 0.73752 0.74773 0.0
H2440 H 0.53478 0.71957 0.78215 0.0
H2441 H 0.53485 0.7148 0.7629 0.0
H2442 H 0.49772 0.79929 0.76062 0.0
H2443 H 0.49679 0.80254 0.7799 0.0
C2444 C 0.50302 0.76321 0.7307 0.0
C2445 C 0.52025 0.75062 0.7258 0.0
C2446 C 0.50191 0.76565 0.74175 0.0
C2447 C 0.51812 0.75584 0.74819 0.0
C2448 C 0.53574 0.74458 0.74315 0.0
C2449 C 0.53671 0.74175 0.73208 0.0
C2450 C 0.52604 0.73635 0.77751 0.0
C2451 C 0.51537 0.76097 0.78252 0.0
C2452 C 0.52645 0.73415 0.76644 0.0
C2453 C 0.51655 0.75693 0.76006 0.0
C2454 C 0.50535 0.781 0.76516 0.0
C2455 C 0.50472 0.78288 0.77623 0.0
H2456 H 0.23924 0.02607 0.72739 0.0
H2457 H 0.29862 0.98524 0.72537 0.0
H2458 H 0.24013 0.02093 0.74671 0.0
H2459 H 0.30026 0.98153 0.74462 0.0
H2460 H 0.29075 0.95524 0.77948 0.0
H2461 H 0.28983 0.95737 0.76018 0.0
H2462 H 0.25424 0.04361 0.76175 0.0
H2463 H 0.25425 0.03998 0.78103 0.0
C2464 C 0.25235 0.01553 0.73112 0.0
C2465 C 0.26873 0.00565 0.72495 0.0
C2466 C 0.25309 0.0131 0.7422 0.0
C2467 C 0.27042 1.00121 0.74737 0.0
C2468 C 0.28655 0.99043 0.74105 0.0
C2469 C 0.28565 0.99248 0.72999 0.0
C2470 C 0.28313 0.97497 0.77565 0.0
C2471 C 0.27293 0.99778 0.78175 0.0
C2472 C 0.28252 0.97624 0.76456 0.0
C2473 C 0.27181 1.00055 0.75925 0.0
C2474 C 0.26227 0.02408 0.76544 0.0
C2475 C 0.26265 0.02251 0.77653 0.0
H2476 H 0.53446 0.53925 0.47593 0.0
H2477 H 0.49716 0.45548 0.47812 0.0
H2478 H 0.53458 0.54367 0.49519 0.0
H2479 H 0.49819 0.45835 0.4974 0.0
H2480 H 0.49061 0.48692 0.53214 0.0
H2481 H 0.48847 0.48279 0.51293 0.0
H2482 H 0.54882 0.52105 0.51024 0.0
H2483 H 0.5502 0.52668 0.5295 0.0
C2484 C 0.52586 0.52223 0.48056 0.0
C2485 C 0.51539 0.49747 0.47553 0.0
C2486 C 0.52632 0.52422 0.49164 0.0
C2487 C 0.51667 0.50108 0.498 0.0
C2488 C 0.50563 0.47691 0.49288 0.0
C2489 C 0.50493 0.47525 0.48181 0.0
C2490 C 0.50353 0.49374 0.5274 0.0
C2491 C 0.52065 0.50677 0.53226 0.0
C2492 C 0.50234 0.49149 0.51635 0.0
C2493 C 0.51837 0.5019 0.50987 0.0
C2494 C 0.53592 0.51353 0.51486 0.0
C2495 C 0.53695 0.5162 0.52592 0.0
H2496 H 0.73897 0.73171 0.52973 0.0
H2497 H 0.7982 0.77283 0.53208 0.0
H2498 H 0.74026 0.73704 0.51044 0.0
H2499 H 0.80028 0.77664 0.51284 0.0
H2500 H 0.79165 0.80241 0.47788 0.0
H2501 H 0.7905 0.80026 0.49717 0.0
H2502 H 0.75462 0.71434 0.49552 0.0
H2503 H 0.75481 0.71808 0.47624 0.0
C2504 C 0.7521 0.74245 0.52608 0.0
C2505 C 0.76833 0.75234 0.53234 0.0
C2506 C 0.7531 0.74494 0.51501 0.0
C2507 C 0.77055 0.75681 0.50993 0.0
C2508 C 0.78648 0.76773 0.51634 0.0
C2509 C 0.78532 0.76568 0.52739 0.0
C2510 C 0.78395 0.78269 0.48169 0.0
C2511 C 0.77366 0.76009 0.47557 0.0
C2512 C 0.78319 0.78143 0.49278 0.0
C2513 C 0.77226 0.75729 0.49806 0.0
C2514 C 0.76278 0.73379 0.49184 0.0
C2515 C 0.76328 0.73539 0.48076 0.0
H2516 H 0.79217 0.45809 0.78043 0.0
H2517 H 0.75512 0.54224 0.78191 0.0
H2518 H 0.79158 0.4604 0.76114 0.0
H2519 H 0.75544 0.5461 0.76262 0.0
H2520 H 0.74018 0.52769 0.72837 0.0
H2521 H 0.74134 0.52302 0.74768 0.0
H2522 H 0.8016 0.48414 0.74548 0.0
H2523 H 0.79968 0.48731 0.72623 0.0
C2524 C 0.78457 0.47784 0.77658 0.0
C2525 C 0.77403 0.50031 0.78266 0.0
C2526 C 0.78412 0.47918 0.76549 0.0
C2527 C 0.77325 0.50327 0.76017 0.0
C2528 C 0.76357 0.5267 0.76634 0.0
C2529 C 0.76377 0.52503 0.77743 0.0
C2530 C 0.75336 0.5173 0.73207 0.0
C2531 C 0.7697 0.5074 0.72586 0.0
C2532 C 0.75427 0.51518 0.74315 0.0
C2533 C 0.77172 0.50364 0.74829 0.0
C2534 C 0.78779 0.4928 0.74194 0.0
C2535 C 0.78673 0.4945 0.73088 0.0
H2536 H 0.25639 0.21541 0.47598 0.0
H2537 H 0.29372 0.29915 0.47781 0.0
H2538 H 0.25645 0.21099 0.49526 0.0
H2539 H 0.29291 0.29624 0.49709 0.0
H2540 H 0.30059 0.26826 0.5319 0.0
H2541 H 0.30276 0.2717 0.51265 0.0
H2542 H 0.24229 0.23388 0.51028 0.0
H2543 H 0.24085 0.22897 0.52959 0.0
C2544 C 0.26504 0.23242 0.48053 0.0
C2545 C 0.27545 0.25718 0.4754 0.0
C2546 C 0.26469 0.23042 0.49162 0.0
C2547 C 0.27442 0.25353 0.49788 0.0
C2548 C 0.28542 0.2777 0.49266 0.0
C2549 C 0.28599 0.27938 0.48157 0.0
C2550 C 0.28767 0.26129 0.52721 0.0
C2551 C 0.27049 0.24863 0.53218 0.0
C2552 C 0.28887 0.26318 0.51616 0.0
C2553 C 0.27279 0.25278 0.50976 0.0
C2554 C 0.25522 0.24139 0.51484 0.0
C2555 C 0.25417 0.2391 0.52592 0.0
H2556 H 0.25488 0.53957 0.28165 0.0
H2557 H 0.29224 0.45593 0.27934 0.0
H2558 H 0.25445 0.54433 0.26238 0.0
H2559 H 0.29091 0.45916 0.26007 0.0
H2560 H 0.29802 0.48859 0.22528 0.0
H2561 H 0.30042 0.48404 0.24449 0.0
H2562 H 0.24003 0.52194 0.2474 0.0
H2563 H 0.23836 0.52796 0.22813 0.0
C2564 C 0.26341 0.52264 0.27699 0.0
C2565 C 0.27399 0.49782 0.28199 0.0
C2566 C 0.26278 0.52483 0.26591 0.0
C2567 C 0.27237 0.50185 0.25952 0.0
C2568 C 0.28351 0.47761 0.26461 0.0
C2569 C 0.28438 0.47574 0.27568 0.0
C2570 C 0.28514 0.49525 0.23007 0.0
C2571 C 0.26792 0.50827 0.22527 0.0
C2572 C 0.28648 0.49276 0.24111 0.0
C2573 C 0.27052 0.50293 0.24766 0.0
C2574 C 0.25288 0.51459 0.24273 0.0
C2575 C 0.25169 0.51749 0.23167 0.0
H2576 H 0.99733 0.95534 0.47801 0.0
H2577 H 0.03506 0.03865 0.47599 0.0
H2578 H 0.99832 0.9579 0.49729 0.0
H2579 H 0.03516 0.04277 0.49525 0.0
H2580 H 0.05047 0.0252 0.52958 0.0
H2581 H 0.04919 0.01981 0.5103 0.0
H2582 H 0.98862 0.98232 0.51283 0.0
H2583 H 0.99065 0.98622 0.53206 0.0
C2584 C 1.0052 0.97494 0.48173 0.0
C2585 C 1.01578 0.99713 0.47551 0.0
C2586 C 1.00587 0.97643 0.49281 0.0
C2587 C 1.01702 1.00039 0.49798 0.0
C2588 C 0.02682 0.02348 0.49166 0.0
C2589 C 0.02638 0.02166 0.48058 0.0
C2590 C 0.03719 0.01495 0.52596 0.0
C2591 C 0.0208 0.00566 0.53226 0.0
C2592 C 0.03621 0.01241 0.51489 0.0
C2593 C 1.01864 1.00106 0.50985 0.0
C2594 C 1.00252 0.9908 0.5163 0.0
C2595 C 1.00364 0.99292 0.52735 0.0
H2596 H 0.05059 0.22546 0.72786 0.0
H2597 H 0.99112 0.26622 0.7265 0.0
H2598 H 0.05023 0.22955 0.74719 0.0
H2599 H 0.98996 0.26873 0.74576 0.0
H2600 H 1.00033 0.29429 0.78042 0.0
H2601 H 1.00045 0.29212 0.76116 0.0
H2602 H 0.03702 0.20681 0.76249 0.0
H2603 H 0.0378 0.2106 0.78181 0.0
C2604 C 0.03759 0.23579 0.73174 0.0
C2605 C 0.02104 0.24603 0.72574 0.0
C2606 C 0.03714 0.23758 0.74284 0.0
C2607 C 0.01994 0.2491 0.7482 0.0
C2608 C 1.00362 0.26014 0.74206 0.0
C2609 C 1.00424 0.25882 0.73098 0.0
C2610 C 1.00801 0.27473 0.77656 0.0
C2611 C 1.01888 0.25245 0.78259 0.0
C2612 C 1.00815 0.27342 0.76548 0.0
C2613 C 1.01893 0.24945 0.7601 0.0
C2614 C 0.02896 0.22615 0.76624 0.0
C2615 C 0.02907 0.22781 0.77734 0.0
H2616 H 0.98912 0.77242 0.22616 0.0
H2617 H 0.04871 0.73231 0.22808 0.0
H2618 H 0.98758 0.77601 0.24541 0.0
H2619 H 0.04793 0.73737 0.24738 0.0
H2620 H 0.0345 0.71828 0.28178 0.0
H2621 H 0.03408 0.71442 0.2625 0.0
H2622 H 0.99793 0.80012 0.26089 0.0
H2623 H 0.99745 0.80245 0.28019 0.0
C2624 C 1.00216 0.76537 0.23076 0.0
C2625 C 1.01911 0.75241 0.22569 0.0
C2626 C 1.00132 0.76732 0.24182 0.0
C2627 C 1.01754 0.75667 0.24811 0.0
C2628 C 0.0349 0.74507 0.24291 0.0
C2629 C 0.03559 0.74271 0.23183 0.0
C2630 C 0.02584 0.73552 0.27728 0.0
C2631 C 1.01559 0.76021 0.28248 0.0
C2632 C 0.02599 0.73384 0.26619 0.0
C2633 C 1.01623 0.75722 0.25999 0.0
C2634 C 1.00543 0.78137 0.26528 0.0
C2635 C 1.00506 0.78273 0.27637 0.0
H2636 H 0.03611 0.53907 0.97624 0.0
H2637 H 0.99769 0.45658 0.97846 0.0
H2638 H 0.03634 0.5435 0.9955 0.0
H2639 H 0.99883 0.45941 0.99774 0.0
H2640 H 0.99106 0.48918 0.03237 0.0
H2641 H 0.98918 0.48458 0.01316 0.0
H2642 H 0.05009 0.52069 0.01064 0.0
H2643 H 0.05123 0.52683 0.0299 0.0
C2644 C 0.02734 0.5223 0.98088 0.0
C2645 C 1.01647 0.49795 0.97587 0.0
C2646 C 0.02784 0.5243 0.99196 0.0
C2647 C 1.01785 0.50156 0.99833 0.0
C2648 C 1.00653 0.47768 0.99322 0.0
C2649 C 1.00578 0.47603 0.98214 0.0
C2650 C 1.00415 0.49545 0.02767 0.0
C2651 C 0.02135 0.50806 0.03256 0.0
C2652 C 1.00311 0.49291 0.01663 0.0
C2653 C 1.01939 0.50258 0.01019 0.0
C2654 C 0.03701 0.51376 0.01523 0.0
C2655 C 0.03789 0.51673 0.02628 0.0
H2656 H 0.58794 0.14646 0.0746 0.0
H2657 H 0.60748 0.05991 0.05934 0.0
H2658 H 0.62263 0.16593 0.07461 0.0
H2659 H 0.64225 0.07954 0.0593 0.0
H2660 H 0.7049 0.11447 0.07257 0.0
H2661 H 0.67064 0.09275 0.0719 0.0
H2662 H 0.64824 0.1842 0.06156 0.0
H2663 H 0.68222 0.20559 0.06188 0.0
C2664 C 0.59962 0.13154 0.07125 0.0
C2665 C 0.59479 0.10162 0.06693 0.0
C2666 C 0.61954 0.14281 0.07119 0.0
C2667 C 0.63533 0.12438 0.06693 0.0
C2668 C 0.63055 0.09433 0.0627 0.0
C2669 C 0.61055 0.08322 0.06263 0.0
C2670 C 0.69276 0.12986 0.07 0.0
C2671 C 0.69655 0.16207 0.06745 0.0
C2672 C 0.67305 0.11739 0.06965 0.0
C2673 C 0.65655 0.13682 0.06682 0.0
C2674 C 0.66043 0.16868 0.06401 0.0
C2675 C 0.68005 0.181 0.06424 0.0
H2676 H 0.58309 0.11416 0.18441 0.0
H2677 H 0.60579 0.20362 0.19623 0.0
H2678 H 0.61725 0.0925 0.18457 0.0
H2679 H 0.63989 0.18266 0.19586 0.0
H2680 H 0.69807 0.12722 0.20268 0.0
H2681 H 0.66369 0.14797 0.20358 0.0
H2682 H 0.64836 0.09527 0.17541 0.0
H2683 H 0.68251 0.07437 0.17462 0.0
C2684 C 0.59529 0.12923 0.18709 0.0
C2685 C 0.59147 0.16085 0.1902 0.0
C2686 C 0.61503 0.11692 0.18704 0.0
C2687 C 0.63163 0.1358 0.19012 0.0
C2688 C 0.62769 0.16713 0.1935 0.0
C2689 C 0.608 0.17937 0.19357 0.0
C2690 C 0.68742 0.12031 0.19662 0.0
C2691 C 0.6932 0.09887 0.18863 0.0
C2692 C 0.6676 0.13221 0.19713 0.0
C2693 C 0.65292 0.1232 0.18963 0.0
C2694 C 0.65889 0.10226 0.18151 0.0
C2695 C 0.67863 0.09032 0.18103 0.0
H2696 H 0.43704 0.92812 0.92277 0.0
H2697 H 0.44591 0.89031 0.95423 0.0
H2698 H 0.40255 0.90803 0.92277 0.0
H2699 H 0.41115 0.87 0.95423 0.0
H2700 H 0.3403 0.87005 0.95377 0.0
H2701 H 0.37495 0.89087 0.95419 0.0
H2702 H 0.38467 0.8563 0.92246 0.0
H2703 H 0.35031 0.83564 0.92207 0.0
C2704 C 0.43163 0.91538 0.92969 0.0
C2705 C 0.44431 0.91084 0.9385 0.0
C2706 C 0.41184 0.90374 0.92967 0.0
C2707 C 0.40395 0.88746 0.93851 0.0
C2708 C 0.41664 0.88271 0.94733 0.0
C2709 C 0.43663 0.89401 0.94728 0.0
C2710 C 0.3498 0.86729 0.94686 0.0
C2711 C 0.3425 0.85123 0.93788 0.0
C2712 C 0.36973 0.87887 0.94713 0.0
C2713 C 0.3827 0.87519 0.93837 0.0
C2714 C 0.37515 0.85978 0.92933 0.0
C2715 C 0.35543 0.84784 0.92912 0.0
H2716 H 0.43511 0.82756 0.83348 0.0
H2717 H 0.44966 0.87548 0.80417 0.0
H2718 H 0.40094 0.84835 0.83263 0.0
H2719 H 0.41526 0.89608 0.8032 0.0
H2720 H 0.35791 0.95342 0.81021 0.0
H2721 H 0.39194 0.93221 0.81054 0.0
H2722 H 0.3695 0.84409 0.82385 0.0
H2723 H 0.33541 0.86611 0.82403 0.0
C2724 C 0.431 0.8424 0.82679 0.0
C2725 C 0.44527 0.84964 0.81886 0.0
C2726 C 0.41125 0.85426 0.82627 0.0
C2727 C 0.40501 0.87376 0.81779 0.0
C2728 C 0.4194 0.88145 0.80994 0.0
C2729 C 0.43923 0.86965 0.81048 0.0
C2730 C 0.36016 0.92956 0.81329 0.0
C2731 C 0.34374 0.91175 0.81724 0.0
C2732 C 0.37979 0.91717 0.81334 0.0
C2733 C 0.38376 0.88637 0.81728 0.0
C2734 C 0.36724 0.86812 0.82092 0.0
C2735 C 0.34755 0.88059 0.8209 0.0
H2736 H 0.69752 0.64023 0.55361 0.0
H2737 H 0.68775 0.67631 0.58512 0.0
H2738 H 0.66295 0.6192 0.5534 0.0
H2739 H 0.65343 0.65531 0.58495 0.0
H2740 H 0.60156 0.58164 0.58504 0.0
H2741 H 0.63588 0.60265 0.58492 0.0
H2742 H 0.62658 0.63985 0.55341 0.0
H2743 H 0.59201 0.61881 0.55356 0.0
C2744 C 0.68808 0.64341 0.56052 0.0
C2745 C 0.69547 0.65997 0.56938 0.0
C2746 C 0.66819 0.63165 0.56037 0.0
C2747 C 0.6553 0.63561 0.56915 0.0
C2748 C 0.66288 0.65163 0.57807 0.0
C2749 C 0.68258 0.66381 0.57815 0.0
C2750 C 0.60678 0.59438 0.57808 0.0
C2751 C 0.59395 0.59851 0.56931 0.0
C2752 C 0.62647 0.60656 0.57803 0.0
C2753 C 0.63412 0.6229 0.56914 0.0
C2754 C 0.62129 0.62715 0.56035 0.0
C2755 C 0.6014 0.61539 0.56048 0.0
H2756 H 0.60928 0.70357 0.69601 0.0
H2757 H 0.58636 0.61412 0.68428 0.0
H2758 H 0.64334 0.68231 0.69569 0.0
H2759 H 0.62044 0.59223 0.68447 0.0
H2760 H 0.68571 0.57342 0.6747 0.0
H2761 H 0.65166 0.5948 0.67534 0.0
H2762 H 0.66677 0.64709 0.70362 0.0
H2763 H 0.70103 0.62581 0.7029 0.0
C2764 C 0.61143 0.67928 0.69337 0.0
C2765 C 0.59485 0.66081 0.69004 0.0
C2766 C 0.63108 0.66688 0.69332 0.0
C2767 C 0.63493 0.63546 0.69 0.0
C2768 C 0.61829 0.6167 0.68691 0.0
C2769 C 0.59859 0.62915 0.68694 0.0
C2770 C 0.6818 0.58935 0.68111 0.0
C2771 C 0.69627 0.59764 0.68879 0.0
C2772 C 0.66213 0.60159 0.6815 0.0
C2773 C 0.65614 0.62258 0.68959 0.0
C2774 C 0.67071 0.6313 0.69719 0.0
C2775 C 0.69046 0.61909 0.69677 0.0
H2776 H 0.43863 0.42443 0.42293 0.0
H2777 H 0.44799 0.38803 0.45452 0.0
H2778 H 0.40428 0.40371 0.42308 0.0
H2779 H 0.41337 0.36713 0.45469 0.0
H2780 H 0.34248 0.36654 0.45443 0.0
H2781 H 0.3771 0.38742 0.45467 0.0
H2782 H 0.38651 0.35182 0.42304 0.0
H2783 H 0.35216 0.33112 0.42282 0.0
C2784 C 0.43336 0.41187 0.42991 0.0
C2785 C 0.44614 0.40792 0.43871 0.0
C2786 C 0.41364 0.39985 0.42998 0.0
C2787 C 0.40592 0.38379 0.43891 0.0
C2788 C 0.41872 0.37963 0.44772 0.0
C2789 C 0.43864 0.39129 0.44758 0.0
C2790 C 0.3519 0.3635 0.44751 0.0
C2791 C 0.34449 0.34715 0.43861 0.0
C2792 C 0.37182 0.37514 0.44768 0.0
C2793 C 0.38471 0.37125 0.43889 0.0
C2794 C 0.37708 0.35547 0.42994 0.0
C2795 C 0.35735 0.34346 0.42983 0.0
H2796 H 0.43779 0.33097 0.335 0.0
H2797 H 0.44755 0.36733 0.30342 0.0
H2798 H 0.40338 0.35147 0.33474 0.0
H2799 H 0.41288 0.388 0.30314 0.0
H2800 H 0.34198 0.38832 0.30321 0.0
H2801 H 0.37662 0.36747 0.30308 0.0
H2802 H 0.38556 0.40338 0.3347 0.0
H2803 H 0.3512 0.42409 0.3348 0.0
C2804 C 0.4326 0.34347 0.328 0.0
C2805 C 0.4455 0.34748 0.31924 0.0
C2806 C 0.41285 0.35536 0.32786 0.0
C2807 C 0.40523 0.37134 0.31891 0.0
C2808 C 0.41814 0.37555 0.31014 0.0
C2809 C 0.43809 0.36403 0.31034 0.0
C2810 C 0.35131 0.39143 0.31016 0.0
C2811 C 0.34377 0.40788 0.31902 0.0
C2812 C 0.37124 0.37981 0.31005 0.0
C2813 C 0.38399 0.38381 0.31887 0.0
C2814 C 0.37623 0.39966 0.32779 0.0
C2815 C 0.3565 0.41166 0.32783 0.0
H2816 H 0.10476 0.07264 0.58343 0.0
H2817 H 0.09013 0.12347 0.55469 0.0
H2818 H 0.13888 0.09378 0.58279 0.0
H2819 H 0.12445 0.14439 0.55394 0.0
H2820 H 0.18159 0.20143 0.56125 0.0
H2821 H 0.14765 0.17993 0.56151 0.0
H2822 H 0.17044 0.09115 0.57411 0.0
H2823 H 0.20444 0.11344 0.57438 0.0
C2824 C 0.10884 0.08816 0.5769 0.0
C2825 C 0.09453 0.09614 0.56909 0.0
C2826 C 0.12856 0.10026 0.57651 0.0
C2827 C 0.13476 0.12075 0.56826 0.0
C2828 C 0.12036 0.12905 0.5605 0.0
C2829 C 0.10056 0.11703 0.56093 0.0
C2830 C 0.17945 0.17739 0.56418 0.0
C2831 C 0.19598 0.15946 0.56793 0.0
C2832 C 0.15985 0.16481 0.56419 0.0
C2833 C 0.15598 0.1337 0.56788 0.0
C2834 C 0.17259 0.1154 0.57137 0.0
C2835 C 0.19225 0.12805 0.57139 0.0
H2836 H 0.20341 0.14137 0.6834 0.0
H2837 H 0.18086 0.05223 0.69586 0.0
H2838 H 0.16927 0.16328 0.68385 0.0
H2839 H 0.14688 0.07393 0.69615 0.0
H2840 H 0.08556 0.11187 0.68409 0.0
H2841 H 0.11974 0.09016 0.68435 0.0
H2842 H 0.14235 0.18016 0.69573 0.0
H2843 H 0.10831 0.20168 0.69564 0.0
C2844 C 0.19128 0.12649 0.68633 0.0
C2845 C 0.19509 0.09482 0.68949 0.0
C2846 C 0.17161 0.13906 0.68657 0.0
C2847 C 0.15512 0.12035 0.68994 0.0
C2848 C 0.15901 0.08892 0.69328 0.0
C2849 C 0.17863 0.07644 0.6931 0.0
C2850 C 0.09774 0.12695 0.68679 0.0
C2851 C 0.09395 0.15873 0.68976 0.0
C2852 C 0.11744 0.1145 0.68691 0.0
C2853 C 0.13399 0.13342 0.68998 0.0
C2854 C 0.13015 0.16499 0.6931 0.0
C2855 C 0.1105 0.17736 0.69304 0.0
H2856 H 0.93536 0.93278 0.42454 0.0
H2857 H 0.95021 0.88188 0.45324 0.0
H2858 H 0.90121 0.91186 0.42528 0.0
H2859 H 0.91584 0.86102 0.45406 0.0
H2860 H 0.85834 0.80443 0.44656 0.0
H2861 H 0.89242 0.82558 0.44631 0.0
H2862 H 0.86987 0.91528 0.43434 0.0
H2863 H 0.83573 0.89346 0.43411 0.0
C2864 C 0.93133 0.91727 0.43108 0.0
C2865 C 0.94569 0.90927 0.43887 0.0
C2866 C 0.9116 0.9053 0.43153 0.0
C2867 C 0.90544 0.88488 0.43979 0.0
C2868 C 0.91991 0.8764 0.4475 0.0
C2869 C 0.93973 0.88834 0.44703 0.0
C2870 C 0.86057 0.82863 0.44379 0.0
C2871 C 0.84409 0.84699 0.44022 0.0
C2872 C 0.88023 0.84097 0.44378 0.0
C2873 C 0.88418 0.87221 0.44024 0.0
C2874 C 0.86763 0.89093 0.43695 0.0
C2875 C 0.84791 0.87854 0.43695 0.0
H2876 H 0.93167 0.80483 0.31157 0.0
H2877 H 0.95445 0.89394 0.32363 0.0
H2878 H 0.89761 0.82609 0.31179 0.0
H2879 H 0.92034 0.91585 0.32339 0.0
H2880 H 0.85493 0.93352 0.33327 0.0
H2881 H 0.88904 0.91243 0.33255 0.0
H2882 H 0.87423 0.86172 0.3039 0.0
H2883 H 0.83992 0.88278 0.3047 0.0
C2884 C 0.92948 0.82907 0.31425 0.0
C2885 C 0.946 0.84743 0.31771 0.0
C2886 C 0.90983 0.84146 0.31425 0.0
C2887 C 0.90595 0.87276 0.31767 0.0
C2888 C 0.92254 0.89147 0.32086 0.0
C2889 C 0.94224 0.87902 0.32087 0.0
C2890 C 0.85892 0.918 0.32677 0.0
C2891 C 0.84453 0.91012 0.319 0.0
C2892 C 0.87862 0.90594 0.32633 0.0
C2893 C 0.88471 0.8855 0.31811 0.0
C2894 C 0.87021 0.87711 0.31043 0.0
C2895 C 0.85042 0.88917 0.31089 0.0
H2896 H 0.18156 0.70611 0.06122 0.0
H2897 H 0.20469 0.61725 0.07355 0.0
H2898 H 0.14756 0.68466 0.06166 0.0
H2899 H 0.17066 0.59514 0.07349 0.0
H2900 H 0.10533 0.57635 0.08332 0.0
H2901 H 0.13937 0.59776 0.08255 0.0
H2902 H 0.12424 0.64905 0.05394 0.0
H2903 H 0.09002 0.62774 0.05478 0.0
C2904 C 0.17947 0.68191 0.06402 0.0
C2905 C 0.1961 0.66367 0.06747 0.0
C2906 C 0.15985 0.66938 0.06413 0.0
C2907 C 0.15607 0.63806 0.06766 0.0
C2908 C 0.17276 0.61953 0.07088 0.0
C2909 C 0.19243 0.6321 0.07078 0.0
C2910 C 0.10923 0.59205 0.07681 0.0
C2911 C 0.09476 0.60006 0.06908 0.0
C2912 C 0.1289 0.60431 0.07635 0.0
C2913 C 0.13488 0.62507 0.06813 0.0
C2914 C 0.12031 0.63347 0.06047 0.0
C2915 C 0.10057 0.62124 0.06096 0.0
H2916 H 0.08421 0.61655 0.18404 0.0
H2917 H 0.10705 0.70589 0.19591 0.0
H2918 H 0.11834 0.59467 0.18426 0.0
H2919 H 0.14104 0.68417 0.19602 0.0
H2920 H 0.20217 0.64599 0.1839 0.0
H2921 H 0.16803 0.66781 0.1843 0.0
H2922 H 0.14543 0.57764 0.19581 0.0
H2923 H 0.17944 0.55597 0.19553 0.0
C2924 C 0.09641 0.63149 0.1868 0.0
C2925 C 0.09267 0.66319 0.18987 0.0
C2926 C 0.11608 0.61892 0.18691 0.0
C2927 C 0.13265 0.63765 0.19008 0.0
C2928 C 0.12885 0.66914 0.19331 0.0
C2929 C 0.10922 0.68164 0.19324 0.0
C2930 C 0.19 0.63088 0.18665 0.0
C2931 C 0.19377 0.59902 0.1896 0.0
C2932 C 0.17032 0.64341 0.18686 0.0
C2933 C 0.15377 0.6245 0.19002 0.0
C2934 C 0.15761 0.59283 0.19312 0.0
C2935 C 0.17724 0.58036 0.19295 0.0
H2936 H 0.85035 0.33079 0.95476 0.0
H2937 H 0.83948 0.37201 0.92406 0.0
H2938 H 0.88448 0.35257 0.95473 0.0
H2939 H 0.87392 0.3921 0.92352 0.0
H2940 H 0.9313 0.44708 0.92774 0.0
H2941 H 0.89732 0.42742 0.92862 0.0
H2942 H 0.91692 0.35022 0.9489 0.0
H2943 H 0.95079 0.37224 0.94899 0.0
C2944 C 0.85533 0.34472 0.94801 0.0
C2945 C 0.84217 0.35025 0.9395 0.0
C2946 C 0.87508 0.35688 0.94788 0.0
C2947 C 0.88246 0.37433 0.93911 0.0
C2948 C 0.86905 0.37962 0.93058 0.0
C2949 C 0.84919 0.36799 0.93082 0.0
C2950 C 0.9285 0.42636 0.93264 0.0
C2951 C 0.94419 0.41194 0.93849 0.0
C2952 C 0.90876 0.41446 0.93295 0.0
C2953 C 0.90385 0.38695 0.93884 0.0
C2954 C 0.91966 0.37184 0.94443 0.0
C2955 C 0.9394 0.38423 0.94432 0.0
H2956 H 0.93721 0.33457 0.83385 0.0
H2957 H 0.94694 0.37426 0.80273 0.0
H2958 H 0.9029 0.35554 0.83393 0.0
H2959 H 0.9123 0.39532 0.80275 0.0
H2960 H 0.84121 0.39373 0.80297 0.0
H2961 H 0.87608 0.37388 0.80254 0.0
H2962 H 0.88503 0.40744 0.83444 0.0
H2963 H 0.85044 0.42712 0.83485 0.0
C2964 C 0.93204 0.3481 0.82705 0.0
C2965 C 0.94485 0.35288 0.8183 0.0
C2966 C 0.91235 0.36016 0.8271 0.0
C2967 C 0.90472 0.37704 0.81833 0.0
C2968 C 0.91761 0.38218 0.8096 0.0
C2969 C 0.93751 0.37047 0.80962 0.0
C2970 C 0.85059 0.39653 0.80991 0.0
C2971 C 0.84299 0.41197 0.81895 0.0
C2972 C 0.87064 0.38552 0.80963 0.0
C2973 C 0.88345 0.38917 0.81844 0.0
C2974 C 0.87564 0.40405 0.82752 0.0
C2975 C 0.85579 0.41542 0.82775 0.0
loop_
_geom_bond_atom_site_label_1
_geom_bond_atom_site_label_2
_geom_bond_distance
_geom_bond_site_symmetry_2
_ccdc_geom_bond_type
C0 C1 1.443 . S
C0 N4 1.376 . S
C0 C38 1.389 . S
C1 C0 1.443 . S
C1 C2 1.340 . S
C1 H41 0.951 . S
C2 C1 1.340 . S
C2 C3 1.439 . S
C2 H42 0.950 . S
C3 C2 1.439 . S
C3 N4 1.374 . S
C3 C37 1.395 . S
N4 C0 1.376 . S
N4 C3 1.374 . S
N4 Co5 2.008 . S
Co5 N4 2.008 . S
Co5 N6 1.995 . S
Co5 N11 2.008 1_545 S
Co5 N16 1.985 1_545 S
Co5 N21 2.282 1_545 S
Co5 N27 2.282 . S
N6 Co5 1.995 . S
N6 C7 1.376 . S
N6 C10 1.383 . S
C7 N6 1.376 . S
C7 C8 1.446 . S
C7 C37 1.391 . S
C8 C7 1.446 . S
C8 C9 1.339 . S
C8 H43 0.949 . S
C9 C8 1.339 . S
C9 C10 1.439 . S
C9 H44 0.950 . S
C10 N6 1.383 . S
C10 C9 1.439 . S
C10 C39 1.392 1_545 S
N11 Co5 2.008 1_565 S
N11 C12 1.376 . S
N11 C15 1.374 . S
C12 N11 1.376 . S
C12 C13 1.443 . S
C12 C39 1.389 . S
C13 C12 1.443 . S
C13 C14 1.340 . S
C13 H45 0.951 . S
C14 C13 1.340 . S
C14 C15 1.439 . S
C14 H46 0.950 . S
C15 N11 1.374 . S
C15 C14 1.439 . S
C15 C40 1.395 . S
N16 Co5 1.985 1_565 S
N16 C17 1.399 . S
N16 C20 1.371 1_565 S
C17 N16 1.399 . S
C17 C18 1.446 . S
C17 C40 1.391 . S
C18 C17 1.446 . S
C18 C19 1.339 . S
C18 H47 0.949 . S
C19 C18 1.339 . S
C19 C20 1.439 1_565 S
C19 H48 0.951 . S
C20 N16 1.371 1_545 S
C20 C19 1.439 1_545 S
C20 C38 1.392 . S
N21 Co5 2.282 1_565 S
N21 C24 1.332 . S
N21 C26 1.332 1_565 S
C22 C23 1.386 . S
C22 C25 1.388 . S
C23 C22 1.386 . S
C23 C24 1.382 . S
C23 H49 0.950 . S
C24 N21 1.332 . S
C24 C23 1.382 . S
C24 H35 0.952 . S
C25 C22 1.388 . S
C25 C26 1.382 1_565 S
C25 H50 0.950 . S
C26 N21 1.332 1_545 S
C26 C25 1.382 1_545 S
C26 H36 0.948 . S
N27 Co5 2.282 . S
N27 C31 1.332 . S
N27 C32 1.332 . S
C28 C29 1.388 . S
C28 C32 1.382 . S
C28 H51 0.950 . S
C29 C28 1.388 . S
C29 C30 1.386 . S
C30 C29 1.386 . S
C30 C31 1.382 . S
C30 H52 0.950 . S
C31 N27 1.332 . S
C31 C30 1.382 . S
C31 H33 0.952 . S
C32 N27 1.332 . S
C32 C28 1.382 . S
C32 H34 0.948 . S
H33 C31 0.952 . S
H34 C32 0.948 . S
H35 C24 0.952 . S
H36 C26 0.948 . S
C37 C3 1.395 . S
C37 C7 1.391 . S
C38 C0 1.389 . S
C38 C20 1.392 . S
C39 C10 1.392 1_565 S
C39 C12 1.389 . S
C40 C15 1.395 . S
C40 C17 1.391 . S
H41 C1 0.951 . S
H42 C2 0.950 . S
H43 C8 0.949 . S
H44 C9 0.950 . S
H45 C13 0.951 . S
H46 C14 0.950 . S
H47 C18 0.949 . S
H48 C19 0.951 . S
H49 C23 0.950 . S
H50 C25 0.950 . S
H51 C28 0.950 . S
H52 C30 0.950 . S
C53 C54 1.443 . S
C53 N57 1.376 . S
C53 C91 1.389 . S
C54 C53 1.443 . S
C54 C55 1.340 . S
C54 H94 0.951 . S
C55 C54 1.340 . S
C55 C56 1.439 . S
C55 H95 0.950 . S
C56 C55 1.439 . S
C56 N57 1.374 . S
C56 C90 1.395 . S
N57 C53 1.376 . S
N57 C56 1.374 . S
N57 Co58 2.008 . S
Co58 N57 2.008 . S
Co58 N59 1.995 . S
Co58 N64 2.008 . S
Co58 N69 1.995 . S
Co58 N74 2.282 . S
Co58 N80 2.282 . S
N59 Co58 1.995 . S
N59 C60 1.376 . S
N59 C63 1.383 . S
C60 N59 1.376 . S
C60 C61 1.446 . S
C60 C90 1.391 . S
C61 C60 1.446 . S
C61 C62 1.339 . S
C61 H96 0.949 . S
C62 C61 1.339 . S
C62 C63 1.439 . S
C62 H97 0.950 . S
C63 N59 1.383 . S
C63 C62 1.439 . S
C63 C92 1.392 . S
N64 Co58 2.008 . S
N64 C65 1.376 . S
N64 C68 1.374 . S
C65 N64 1.376 . S
C65 C66 1.443 . S
C65 C92 1.389 . S
C66 C65 1.443 . S
C66 C67 1.340 . S
C66 H98 0.951 . S
C67 C66 1.340 . S
C67 C68 1.439 . S
C67 H99 0.950 . S
C68 N64 1.374 . S
C68 C67 1.439 . S
C68 C93 1.395 . S
N69 Co58 1.995 . S
N69 C70 1.376 . S
N69 C73 1.383 . S
C70 N69 1.376 . S
C70 C71 1.446 . S
C70 C93 1.391 . S
C71 C70 1.446 . S
C71 C72 1.339 . S
C71 H100 0.949 . S
C72 C71 1.339 . S
C72 C73 1.439 . S
C72 H101 0.950 . S
C73 N69 1.383 . S
C73 C72 1.439 . S
C73 C91 1.392 . S
N74 Co58 2.282 . S
N74 C77 1.332 . S
N74 C79 1.332 . S
C75 C76 1.386 . S
C75 C78 1.388 . S
C76 C75 1.386 . S
C76 C77 1.382 . S
C76 H102 0.950 . S
C77 N74 1.332 . S
C77 C76 1.382 . S
C77 H88 0.952 . S
C78 C75 1.388 . S
C78 C79 1.382 . S
C78 H103 0.950 . S
C79 N74 1.332 . S
C79 C78 1.382 . S
C79 H89 0.948 . S
N80 Co58 2.282 . S
N80 C84 1.332 . S
N80 C85 1.332 . S
C81 C82 1.388 . S
C81 C85 1.382 . S
C81 H104 0.950 . S
C82 C81 1.388 . S
C82 C83 1.386 . S
C83 C82 1.386 . S
C83 C84 1.382 . S
C83 H105 0.950 . S
C84 N80 1.332 . S
C84 C83 1.382 . S
C84 H86 0.952 . S
C85 N80 1.332 . S
C85 C81 1.382 . S
C85 H87 0.948 . S
H86 C84 0.952 . S
H87 C85 0.948 . S
H88 C77 0.952 . S
H89 C79 0.948 . S
C90 C56 1.395 . S
C90 C60 1.391 . S
C91 C53 1.389 . S
C91 C73 1.392 . S
C92 C63 1.392 . S
C92 C65 1.389 . S
C93 C68 1.395 . S
C93 C70 1.391 . S
H94 C54 0.951 . S
H95 C55 0.950 . S
H96 C61 0.949 . S
H97 C62 0.950 . S
H98 C66 0.951 . S
H99 C67 0.950 . S
H100 C71 0.949 . S
H101 C72 0.950 . S
H102 C76 0.950 . S
H103 C78 0.950 . S
H104 C81 0.950 . S
H105 C83 0.950 . S
C106 C107 1.443 . S
C106 N110 1.376 . S
C106 C144 1.389 . S
C107 C106 1.443 . S
C107 C108 1.340 . S
C107 H147 0.951 . S
C108 C107 1.340 . S
C108 C109 1.439 . S
C108 H148 0.950 . S
C109 C108 1.439 . S
C109 N110 1.374 . S
C109 C143 1.395 . S
N110 C106 1.376 . S
N110 C109 1.374 . S
N110 Co111 2.008 . S
Co111 N110 2.008 . S
Co111 N112 1.995 . S
Co111 N117 2.008 . S
Co111 N122 1.995 . S
Co111 N127 2.282 . S
Co111 N133 2.282 . S
N112 Co111 1.995 . S
N112 C113 1.376 . S
N112 C116 1.383 . S
C113 N112 1.376 . S
C113 C114 1.446 . S
C113 C143 1.391 . S
C114 C113 1.446 . S
C114 C115 1.339 . S
C114 H149 0.949 . S
C115 C114 1.339 . S
C115 C116 1.439 . S
C115 H150 0.950 . S
C116 N112 1.383 . S
C116 C115 1.439 . S
C116 C145 1.392 . S
N117 Co111 2.008 . S
N117 C118 1.376 . S
N117 C121 1.374 . S
C118 N117 1.376 . S
C118 C119 1.443 . S
C118 C145 1.389 . S
C119 C118 1.443 . S
C119 C120 1.340 . S
C119 H151 0.951 . S
C120 C119 1.340 . S
C120 C121 1.439 . S
C120 H152 0.950 . S
C121 N117 1.374 . S
C121 C120 1.439 . S
C121 C146 1.395 . S
N122 Co111 1.995 . S
N122 C123 1.376 . S
N122 C126 1.383 . S
C123 N122 1.376 . S
C123 C124 1.446 . S
C123 C146 1.391 . S
C124 C123 1.446 . S
C124 C125 1.339 . S
C124 H153 0.949 . S
C125 C124 1.339 . S
C125 C126 1.439 . S
C125 H154 0.950 . S
C126 N122 1.383 . S
C126 C125 1.439 . S
C126 C144 1.392 . S
N127 Co111 2.282 . S
N127 C130 1.332 . S
N127 C132 1.332 . S
C128 C129 1.386 . S
C128 C131 1.388 . S
C129 C128 1.386 . S
C129 C130 1.382 . S
C129 H155 0.950 . S
C130 N127 1.332 . S
C130 C129 1.382 . S
C130 H141 0.952 . S
C131 C128 1.388 . S
C131 C132 1.382 . S
C131 H156 0.950 . S
C132 N127 1.332 . S
C132 C131 1.382 . S
C132 H142 0.948 . S
N133 Co111 2.282 . S
N133 C137 1.332 . S
N133 C138 1.332 . S
C134 C135 1.388 . S
C134 C138 1.382 . S
C134 H157 0.950 . S
C135 C134 1.388 . S
C135 C136 1.386 . S
C136 C135 1.386 . S
C136 C137 1.382 . S
C136 H158 0.950 . S
C137 N133 1.332 . S
C137 C136 1.382 . S
C137 H139 0.952 . S
C138 N133 1.332 . S
C138 C134 1.382 . S
C138 H140 0.948 . S
H139 C137 0.952 . S
H140 C138 0.948 . S
H141 C130 0.952 . S
H142 C132 0.948 . S
C143 C109 1.395 . S
C143 C113 1.391 . S
C144 C106 1.389 . S
C144 C126 1.392 . S
C145 C116 1.392 . S
C145 C118 1.389 . S
C146 C121 1.395 . S
C146 C123 1.391 . S
H147 C107 0.951 . S
H148 C108 0.950 . S
H149 C114 0.949 . S
H150 C115 0.950 . S
H151 C119 0.951 . S
H152 C120 0.950 . S
H153 C124 0.949 . S
H154 C125 0.950 . S
H155 C129 0.950 . S
H156 C131 0.950 . S
H157 C134 0.950 . S
H158 C136 0.950 . S
C159 C160 1.443 . S
C159 N163 1.376 . S
C159 C197 1.389 . S
C160 C159 1.443 . S
C160 C161 1.340 . S
C160 H200 0.951 . S
C161 C160 1.340 . S
C161 C162 1.439 . S
C161 H201 0.950 . S
C162 C161 1.439 . S
C162 N163 1.374 . S
C162 C196 1.395 . S
N163 C159 1.376 . S
N163 C162 1.374 . S
N163 Co164 2.008 . S
Co164 N163 2.008 . S
Co164 N165 1.995 . S
Co164 N170 2.008 1_545 S
Co164 N175 1.987 1_545 S
Co164 N180 2.282 1_545 S
Co164 N186 2.282 . S
N165 Co164 1.995 . S
N165 C166 1.376 . S
N165 C169 1.383 . S
C166 N165 1.376 . S
C166 C167 1.446 . S
C166 C196 1.391 . S
C167 C166 1.446 . S
C167 C168 1.339 . S
C167 H202 0.949 . S
C168 C167 1.339 . S
C168 C169 1.439 . S
C168 H203 0.950 . S
C169 N165 1.383 . S
C169 C168 1.439 . S
C169 C198 1.392 1_545 S
N170 Co164 2.008 1_565 S
N170 C171 1.376 . S
N170 C174 1.374 . S
C171 N170 1.376 . S
C171 C172 1.443 . S
C171 C198 1.389 . S
C172 C171 1.443 . S
C172 C173 1.340 . S
C172 H204 0.951 . S
C173 C172 1.340 . S
C173 C174 1.439 . S
C173 H205 0.950 . S
C174 N170 1.374 . S
C174 C173 1.439 . S
C174 C199 1.395 . S
N175 Co164 1.987 1_565 S
N175 C176 1.394 . S
N175 C179 1.374 1_565 S
C176 N175 1.394 . S
C176 C177 1.446 . S
C176 C199 1.391 . S
C177 C176 1.446 . S
C177 C178 1.339 . S
C177 H206 0.949 . S
C178 C177 1.339 . S
C178 C179 1.439 1_565 S
C178 H207 0.950 . S
C179 N175 1.374 1_545 S
C179 C178 1.439 1_545 S
C179 C197 1.392 . S
N180 Co164 2.282 1_565 S
N180 C183 1.332 . S
N180 C185 1.332 1_565 S
C181 C182 1.386 . S
C181 C184 1.388 . S
C182 C181 1.386 . S
C182 C183 1.382 . S
C182 H208 0.950 . S
C183 N180 1.332 . S
C183 C182 1.382 . S
C183 H194 0.952 . S
C184 C181 1.388 . S
C184 C185 1.382 1_565 S
C184 H209 0.950 . S
C185 N180 1.332 1_545 S
C185 C184 1.382 1_545 S
C185 H195 0.948 . S
N186 Co164 2.282 . S
N186 C190 1.332 . S
N186 C191 1.332 . S
C187 C188 1.388 . S
C187 C191 1.382 . S
C187 H210 0.950 . S
C188 C187 1.388 . S
C188 C189 1.386 . S
C189 C188 1.386 . S
C189 C190 1.382 . S
C189 H211 0.950 . S
C190 N186 1.332 . S
C190 C189 1.382 . S
C190 H192 0.952 . S
C191 N186 1.332 . S
C191 C187 1.382 . S
C191 H193 0.948 . S
H192 C190 0.952 . S
H193 C191 0.948 . S
H194 C183 0.952 . S
H195 C185 0.948 . S
C196 C162 1.395 . S
C196 C166 1.391 . S
C197 C159 1.389 . S
C197 C179 1.392 . S
C198 C169 1.392 1_565 S
C198 C171 1.389 . S
C199 C174 1.395 . S
C199 C176 1.391 . S
H200 C160 0.951 . S
H201 C161 0.950 . S
H202 C167 0.949 . S
H203 C168 0.950 . S
H204 C172 0.951 . S
H205 C173 0.950 . S
H206 C177 0.949 . S
H207 C178 0.950 . S
H208 C182 0.950 . S
H209 C184 0.950 . S
H210 C187 0.950 . S
H211 C189 0.950 . S
C212 C213 1.442 1_565 S
C212 N216 1.376 . S
C212 C250 1.389 . S
C213 C212 1.442 1_545 S
C213 C214 1.342 . S
C213 H253 0.951 1_545 S
C214 C213 1.342 . S
C214 C215 1.439 . S
C214 H254 0.950 . S
C215 C214 1.439 . S
C215 N216 1.374 1_545 S
C215 C249 1.395 . S
N216 C212 1.376 . S
N216 C215 1.374 1_565 S
N216 Co217 2.008 . S
Co217 N216 2.008 . S
Co217 N218 1.995 1_565 S
Co217 N223 2.008 . S
Co217 N228 1.995 . S
Co217 N233 2.282 1_565 S
Co217 N239 2.282 . S
N218 Co217 1.995 1_545 S
N218 C219 1.376 . S
N218 C222 1.383 . S
C219 N218 1.376 . S
C219 C220 1.446 . S
C219 C249 1.391 . S
C220 C219 1.446 . S
C220 C221 1.339 . S
C220 H255 0.949 . S
C221 C220 1.339 . S
C221 C222 1.439 . S
C221 H256 0.950 . S
C222 N218 1.383 . S
C222 C221 1.439 . S
C222 C251 1.392 . S
N223 Co217 2.008 . S
N223 C224 1.376 . S
N223 C227 1.374 . S
C224 N223 1.376 . S
C224 C225 1.443 . S
C224 C251 1.389 1_565 S
C225 C224 1.443 . S
C225 C226 1.340 . S
C225 H257 0.951 . S
C226 C225 1.340 . S
C226 C227 1.439 . S
C226 H258 0.950 . S
C227 N223 1.374 . S
C227 C226 1.439 . S
C227 C252 1.395 . S
N228 Co217 1.995 . S
N228 C229 1.376 . S
N228 C232 1.383 . S
C229 N228 1.376 . S
C229 C230 1.446 . S
C229 C252 1.391 . S
C230 C229 1.446 . S
C230 C231 1.339 . S
C230 H259 0.949 . S
C231 C230 1.339 . S
C231 C232 1.439 . S
C231 H260 0.950 . S
C232 N228 1.383 . S
C232 C231 1.439 . S
C232 C250 1.392 . S
N233 Co217 2.282 1_545 S
N233 C236 1.332 1_545 S
N233 C238 1.332 . S
C234 C235 1.386 . S
C234 C237 1.388 . S
C235 C234 1.386 . S
C235 C236 1.382 1_545 S
C235 H261 0.950 . S
C236 N233 1.332 1_565 S
C236 C235 1.382 1_565 S
C236 H247 0.952 . S
C237 C234 1.388 . S
C237 C238 1.382 . S
C237 H262 0.950 . S
C238 N233 1.332 . S
C238 C237 1.382 . S
C238 H248 0.948 . S
N239 Co217 2.282 . S
N239 C243 1.332 . S
N239 C244 1.332 . S
C240 C241 1.388 . S
C240 C244 1.382 . S
C240 H263 0.950 . S
C241 C240 1.388 . S
C241 C242 1.386 . S
C242 C241 1.386 . S
C242 C243 1.382 . S
C242 H264 0.950 . S
C243 N239 1.332 . S
C243 C242 1.382 . S
C243 H245 0.952 . S
C244 N239 1.332 . S
C244 C240 1.382 . S
C244 H246 0.948 . S
H245 C243 0.952 . S
H246 C244 0.948 . S
H247 C236 0.952 . S
H248 C238 0.948 . S
C249 C215 1.395 . S
C249 C219 1.391 . S
C250 C212 1.389 . S
C250 C232 1.392 . S
C251 C222 1.392 . S
C251 C224 1.389 1_545 S
C252 C227 1.395 . S
C252 C229 1.391 . S
H253 C213 0.951 1_565 S
H254 C214 0.950 . S
H255 C220 0.949 . S
H256 C221 0.950 . S
H257 C225 0.951 . S
H258 C226 0.950 . S
H259 C230 0.949 . S
H260 C231 0.950 . S
H261 C235 0.950 . S
H262 C237 0.950 . S
H263 C240 0.950 . S
H264 C242 0.950 . S
C265 C266 1.443 . S
C265 N269 1.376 . S
C265 C303 1.389 . S
C266 C265 1.443 . S
C266 C267 1.340 . S
C266 H306 0.951 . S
C267 C266 1.340 . S
C267 C268 1.439 . S
C267 H307 0.950 . S
C268 C267 1.439 . S
C268 N269 1.374 . S
C268 C302 1.395 . S
N269 C265 1.376 . S
N269 C268 1.374 . S
N269 Co270 2.008 . S
Co270 N269 2.008 . S
Co270 N271 1.995 . S
Co270 N276 2.008 . S
Co270 N281 1.995 . S
Co270 N286 2.282 . S
Co270 N292 2.282 . S
N271 Co270 1.995 . S
N271 C272 1.376 . S
N271 C275 1.383 . S
C272 N271 1.376 . S
C272 C273 1.446 . S
C272 C302 1.391 . S
C273 C272 1.446 . S
C273 C274 1.339 . S
C273 H308 0.949 . S
C274 C273 1.339 . S
C274 C275 1.439 . S
C274 H309 0.950 . S
C275 N271 1.383 . S
C275 C274 1.439 . S
C275 C304 1.392 . S
N276 Co270 2.008 . S
N276 C277 1.376 . S
N276 C280 1.374 . S
C277 N276 1.376 . S
C277 C278 1.443 . S
C277 C304 1.389 . S
C278 C277 1.443 . S
C278 C279 1.340 . S
C278 H310 0.951 . S
C279 C278 1.340 . S
C279 C280 1.439 . S
C279 H311 0.950 . S
C280 N276 1.374 . S
C280 C279 1.439 . S
C280 C305 1.395 . S
N281 Co270 1.995 . S
N281 C282 1.376 . S
N281 C285 1.383 . S
C282 N281 1.376 . S
C282 C283 1.446 . S
C282 C305 1.391 . S
C283 C282 1.446 . S
C283 C284 1.339 . S
C283 H312 0.949 . S
C284 C283 1.339 . S
C284 C285 1.439 . S
C284 H313 0.950 . S
C285 N281 1.383 . S
C285 C284 1.439 . S
C285 C303 1.392 . S
N286 Co270 2.282 . S
N286 C289 1.332 . S
N286 C291 1.332 . S
C287 C288 1.386 . S
C287 C290 1.388 . S
C288 C287 1.386 . S
C288 C289 1.382 . S
C288 H314 0.950 . S
C289 N286 1.332 . S
C289 C288 1.382 . S
C289 H300 0.952 . S
C290 C287 1.388 . S
C290 C291 1.382 . S
C290 H315 0.950 . S
C291 N286 1.332 . S
C291 C290 1.382 . S
C291 H301 0.948 . S
N292 Co270 2.282 . S
N292 C296 1.332 . S
N292 C297 1.332 . S
C293 C294 1.388 . S
C293 C297 1.382 . S
C293 H316 0.950 . S
C294 C293 1.388 . S
C294 C295 1.386 . S
C295 C294 1.386 . S
C295 C296 1.382 . S
C295 H317 0.950 . S
C296 N292 1.332 . S
C296 C295 1.382 . S
C296 H298 0.952 . S
C297 N292 1.332 . S
C297 C293 1.382 . S
C297 H299 0.948 . S
H298 C296 0.952 . S
H299 C297 0.948 . S
H300 C289 0.952 . S
H301 C291 0.948 . S
C302 C268 1.395 . S
C302 C272 1.391 . S
C303 C265 1.389 . S
C303 C285 1.392 . S
C304 C275 1.392 . S
C304 C277 1.389 . S
C305 C280 1.395 . S
C305 C282 1.391 . S
H306 C266 0.951 . S
H307 C267 0.950 . S
H308 C273 0.949 . S
H309 C274 0.950 . S
H310 C278 0.951 . S
H311 C279 0.950 . S
H312 C283 0.949 . S
H313 C284 0.950 . S
H314 C288 0.950 . S
H315 C290 0.950 . S
H316 C293 0.950 . S
H317 C295 0.950 . S
C318 C319 1.443 . S
C318 N322 1.376 . S
C318 C356 1.389 . S
C319 C318 1.443 . S
C319 C320 1.340 . S
C319 H359 0.951 . S
C320 C319 1.340 . S
C320 C321 1.439 . S
C320 H360 0.950 . S
C321 C320 1.439 . S
C321 N322 1.374 . S
C321 C355 1.395 . S
N322 C318 1.376 . S
N322 C321 1.374 . S
N322 Co323 2.008 . S
Co323 N322 2.008 . S
Co323 N324 1.995 . S
Co323 N329 2.008 . S
Co323 N334 1.995 . S
Co323 N339 2.282 . S
Co323 N345 2.282 . S
N324 Co323 1.995 . S
N324 C325 1.376 . S
N324 C328 1.383 . S
C325 N324 1.376 . S
C325 C326 1.446 . S
C325 C355 1.391 . S
C326 C325 1.446 . S
C326 C327 1.339 . S
C326 H361 0.949 . S
C327 C326 1.339 . S
C327 C328 1.439 . S
C327 H362 0.950 . S
C328 N324 1.383 . S
C328 C327 1.439 . S
C328 C357 1.392 . S
N329 Co323 2.008 . S
N329 C330 1.376 . S
N329 C333 1.374 . S
C330 N329 1.376 . S
C330 C331 1.443 . S
C330 C357 1.389 . S
C331 C330 1.443 . S
C331 C332 1.340 . S
C331 H363 0.951 . S
C332 C331 1.340 . S
C332 C333 1.439 . S
C332 H364 0.950 . S
C333 N329 1.374 . S
C333 C332 1.439 . S
C333 C358 1.395 . S
N334 Co323 1.995 . S
N334 C335 1.376 . S
N334 C338 1.383 . S
C335 N334 1.376 . S
C335 C336 1.446 . S
C335 C358 1.391 . S
C336 C335 1.446 . S
C336 C337 1.339 . S
C336 H365 0.949 . S
C337 C336 1.339 . S
C337 C338 1.439 . S
C337 H366 0.950 . S
C338 N334 1.383 . S
C338 C337 1.439 . S
C338 C356 1.392 . S
N339 Co323 2.282 . S
N339 C342 1.332 . S
N339 C344 1.332 . S
C340 C341 1.386 . S
C340 C343 1.388 . S
C341 C340 1.386 . S
C341 C342 1.382 . S
C341 H367 0.950 . S
C342 N339 1.332 . S
C342 C341 1.382 . S
C342 H353 0.952 . S
C343 C340 1.388 . S
C343 C344 1.382 . S
C343 H368 0.950 . S
C344 N339 1.332 . S
C344 C343 1.382 . S
C344 H354 0.948 . S
N345 Co323 2.282 . S
N345 C349 1.332 . S
N345 C350 1.332 . S
C346 C347 1.388 . S
C346 C350 1.382 . S
C346 H369 0.950 . S
C347 C346 1.388 . S
C347 C348 1.386 . S
C348 C347 1.386 . S
C348 C349 1.382 . S
C348 H370 0.950 . S
C349 N345 1.332 . S
C349 C348 1.382 . S
C349 H351 0.952 . S
C350 N345 1.332 . S
C350 C346 1.382 . S
C350 H352 0.948 . S
H351 C349 0.952 . S
H352 C350 0.948 . S
H353 C342 0.952 . S
H354 C344 0.948 . S
C355 C321 1.395 . S
C355 C325 1.391 . S
C356 C318 1.389 . S
C356 C338 1.392 . S
C357 C328 1.392 . S
C357 C330 1.389 . S
C358 C333 1.395 . S
C358 C335 1.391 . S
H359 C319 0.951 . S
H360 C320 0.950 . S
H361 C326 0.949 . S
H362 C327 0.950 . S
H363 C331 0.951 . S
H364 C332 0.950 . S
H365 C336 0.949 . S
H366 C337 0.950 . S
H367 C341 0.950 . S
H368 C343 0.950 . S
H369 C346 0.950 . S
H370 C348 0.950 . S
C371 C372 1.445 1_565 S
C371 N375 1.376 . S
C371 C409 1.389 . S
C372 C371 1.445 1_545 S
C372 C373 1.337 . S
C372 H412 0.952 1_545 S
C373 C372 1.337 . S
C373 C374 1.439 . S
C373 H413 0.950 . S
C374 C373 1.439 . S
C374 N375 1.374 1_545 S
C374 C408 1.395 . S
N375 C371 1.376 . S
N375 C374 1.374 1_565 S
N375 Co376 2.008 . S
Co376 N375 2.008 . S
Co376 N377 1.995 1_565 S
Co376 N382 2.008 . S
Co376 N387 1.995 . S
Co376 N392 2.282 1_565 S
Co376 N398 2.282 . S
N377 Co376 1.995 1_545 S
N377 C378 1.376 . S
N377 C381 1.383 . S
C378 N377 1.376 . S
C378 C379 1.446 . S
C378 C408 1.391 . S
C379 C378 1.446 . S
C379 C380 1.339 . S
C379 H414 0.949 . S
C380 C379 1.339 . S
C380 C381 1.439 . S
C380 H415 0.950 . S
C381 N377 1.383 . S
C381 C380 1.439 . S
C381 C410 1.392 . S
N382 Co376 2.008 . S
N382 C383 1.376 . S
N382 C386 1.374 . S
C383 N382 1.376 . S
C383 C384 1.443 . S
C383 C410 1.389 1_565 S
C384 C383 1.443 . S
C384 C385 1.340 . S
C384 H416 0.951 . S
C385 C384 1.340 . S
C385 C386 1.439 . S
C385 H417 0.950 . S
C386 N382 1.374 . S
C386 C385 1.439 . S
C386 C411 1.395 . S
N387 Co376 1.995 . S
N387 C388 1.376 . S
N387 C391 1.383 . S
C388 N387 1.376 . S
C388 C389 1.446 . S
C388 C411 1.391 . S
C389 C388 1.446 . S
C389 C390 1.339 . S
C389 H418 0.949 . S
C390 C389 1.339 . S
C390 C391 1.439 . S
C390 H419 0.950 . S
C391 N387 1.383 . S
C391 C390 1.439 . S
C391 C409 1.392 . S
N392 Co376 2.282 1_545 S
N392 C395 1.332 1_545 S
N392 C397 1.332 . S
C393 C394 1.386 . S
C393 C396 1.388 . S
C394 C393 1.386 . S
C394 C395 1.382 1_545 S
C394 H420 0.950 . S
C395 N392 1.332 1_565 S
C395 C394 1.382 1_565 S
C395 H406 0.952 . S
C396 C393 1.388 . S
C396 C397 1.382 . S
C396 H421 0.950 . S
C397 N392 1.332 . S
C397 C396 1.382 . S
C397 H407 0.948 . S
N398 Co376 2.282 . S
N398 C402 1.332 . S
N398 C403 1.332 . S
C399 C400 1.388 . S
C399 C403 1.382 . S
C399 H422 0.950 . S
C400 C399 1.388 . S
C400 C401 1.386 . S
C401 C400 1.386 . S
C401 C402 1.382 . S
C401 H423 0.950 . S
C402 N398 1.332 . S
C402 C401 1.382 . S
C402 H404 0.952 . S
C403 N398 1.332 . S
C403 C399 1.382 . S
C403 H405 0.948 . S
H404 C402 0.952 . S
H405 C403 0.948 . S
H406 C395 0.952 . S
H407 C397 0.948 . S
C408 C374 1.395 . S
C408 C378 1.391 . S
C409 C371 1.389 . S
C409 C391 1.392 . S
C410 C381 1.392 . S
C410 C383 1.389 1_545 S
C411 C386 1.395 . S
C411 C388 1.391 . S
H412 C372 0.952 1_565 S
H413 C373 0.950 . S
H414 C379 0.949 . S
H415 C380 0.950 . S
H416 C384 0.951 . S
H417 C385 0.950 . S
H418 C389 0.949 . S
H419 C390 0.950 . S
H420 C394 0.950 . S
H421 C396 0.950 . S
H422 C399 0.950 . S
H423 C401 0.950 . S
C424 C425 1.443 . S
C424 N428 1.376 . S
C424 C462 1.389 . S
C425 C424 1.443 . S
C425 C426 1.340 . S
C425 H465 0.951 . S
C426 C425 1.340 . S
C426 C427 1.439 . S
C426 H466 0.950 . S
C427 C426 1.439 . S
C427 N428 1.374 . S
C427 C461 1.395 . S
N428 C424 1.376 . S
N428 C427 1.374 . S
N428 Co429 2.008 . S
Co429 N428 2.008 . S
Co429 N430 1.995 . S
Co429 N435 2.008 . S
Co429 N440 1.995 . S
Co429 N445 2.282 . S
Co429 N451 2.282 . S
N430 Co429 1.995 . S
N430 C431 1.376 . S
N430 C434 1.383 . S
C431 N430 1.376 . S
C431 C432 1.446 . S
C431 C461 1.391 . S
C432 C431 1.446 . S
C432 C433 1.339 . S
C432 H467 0.949 . S
C433 C432 1.339 . S
C433 C434 1.439 . S
C433 H468 0.950 . S
C434 N430 1.383 . S
C434 C433 1.439 . S
C434 C463 1.392 . S
N435 Co429 2.008 . S
N435 C436 1.376 . S
N435 C439 1.374 . S
C436 N435 1.376 . S
C436 C437 1.443 . S
C436 C463 1.389 . S
C437 C436 1.443 . S
C437 C438 1.340 . S
C437 H469 0.951 . S
C438 C437 1.340 . S
C438 C439 1.439 . S
C438 H470 0.950 . S
C439 N435 1.374 . S
C439 C438 1.439 . S
C439 C464 1.395 . S
N440 Co429 1.995 . S
N440 C441 1.376 . S
N440 C444 1.383 . S
C441 N440 1.376 . S
C441 C442 1.446 . S
C441 C464 1.391 . S
C442 C441 1.446 . S
C442 C443 1.339 . S
C442 H471 0.949 . S
C443 C442 1.339 . S
C443 C444 1.439 . S
C443 H472 0.950 . S
C444 N440 1.383 . S
C444 C443 1.439 . S
C444 C462 1.392 . S
N445 Co429 2.282 . S
N445 C448 1.332 . S
N445 C450 1.332 . S
C446 C447 1.386 . S
C446 C449 1.388 . S
C447 C446 1.386 . S
C447 C448 1.382 . S
C447 H473 0.950 . S
C448 N445 1.332 . S
C448 C447 1.382 . S
C448 H459 0.952 . S
C449 C446 1.388 . S
C449 C450 1.382 . S
C449 H474 0.950 . S
C450 N445 1.332 . S
C450 C449 1.382 . S
C450 H460 0.948 . S
N451 Co429 2.282 . S
N451 C455 1.332 . S
N451 C456 1.332 . S
C452 C453 1.388 . S
C452 C456 1.382 . S
C452 H475 0.950 . S
C453 C452 1.388 . S
C453 C454 1.386 . S
C454 C453 1.386 . S
C454 C455 1.382 . S
C454 H476 0.950 . S
C455 N451 1.332 . S
C455 C454 1.382 . S
C455 H457 0.952 . S
C456 N451 1.332 . S
C456 C452 1.382 . S
C456 H458 0.948 . S
H457 C455 0.952 . S
H458 C456 0.948 . S
H459 C448 0.952 . S
H460 C450 0.948 . S
C461 C427 1.395 . S
C461 C431 1.391 . S
C462 C424 1.389 . S
C462 C444 1.392 . S
C463 C434 1.392 . S
C463 C436 1.389 . S
C464 C439 1.395 . S
C464 C441 1.391 . S
H465 C425 0.951 . S
H466 C426 0.950 . S
H467 C432 0.949 . S
H468 C433 0.950 . S
H469 C437 0.951 . S
H470 C438 0.950 . S
H471 C442 0.949 . S
H472 C443 0.950 . S
H473 C447 0.950 . S
H474 C449 0.950 . S
H475 C452 0.950 . S
H476 C454 0.950 . S
C477 C478 1.443 . S
C477 N481 1.376 . S
C477 C515 1.389 . S
C478 C477 1.443 . S
C478 C479 1.340 . S
C478 H518 0.951 . S
C479 C478 1.340 . S
C479 C480 1.439 . S
C479 H519 0.950 . S
C480 C479 1.439 . S
C480 N481 1.374 . S
C480 C514 1.395 . S
N481 C477 1.376 . S
N481 C480 1.374 . S
N481 Co482 2.008 . S
Co482 N481 2.008 . S
Co482 N483 1.995 . S
Co482 N488 2.008 . S
Co482 N493 1.995 . S
Co482 N498 2.282 . S
Co482 N504 2.282 . S
N483 Co482 1.995 . S
N483 C484 1.376 . S
N483 C487 1.383 . S
C484 N483 1.376 . S
C484 C485 1.446 . S
C484 C514 1.391 . S
C485 C484 1.446 . S
C485 C486 1.339 . S
C485 H520 0.949 . S
C486 C485 1.339 . S
C486 C487 1.439 . S
C486 H521 0.950 . S
C487 N483 1.383 . S
C487 C486 1.439 . S
C487 C516 1.392 . S
N488 Co482 2.008 . S
N488 C489 1.376 . S
N488 C492 1.374 . S
C489 N488 1.376 . S
C489 C490 1.443 . S
C489 C516 1.389 . S
C490 C489 1.443 . S
C490 C491 1.340 . S
C490 H522 0.951 . S
C491 C490 1.340 . S
C491 C492 1.439 . S
C491 H523 0.950 . S
C492 N488 1.374 . S
C492 C491 1.439 . S
C492 C517 1.395 . S
N493 Co482 1.995 . S
N493 C494 1.376 . S
N493 C497 1.383 . S
C494 N493 1.376 . S
C494 C495 1.446 . S
C494 C517 1.391 . S
C495 C494 1.446 . S
C495 C496 1.339 . S
C495 H524 0.949 . S
C496 C495 1.339 . S
C496 C497 1.439 . S
C496 H525 0.950 . S
C497 N493 1.383 . S
C497 C496 1.439 . S
C497 C515 1.392 . S
N498 Co482 2.282 . S
N498 C501 1.332 . S
N498 C503 1.332 . S
C499 C500 1.386 . S
C499 C502 1.388 . S
C500 C499 1.386 . S
C500 C501 1.382 . S
C500 H526 0.950 . S
C501 N498 1.332 . S
C501 C500 1.382 . S
C501 H512 0.952 . S
C502 C499 1.388 . S
C502 C503 1.382 . S
C502 H527 0.950 . S
C503 N498 1.332 . S
C503 C502 1.382 . S
C503 H513 0.948 . S
N504 Co482 2.282 . S
N504 C508 1.332 . S
N504 C509 1.332 . S
C505 C506 1.388 . S
C505 C509 1.382 . S
C505 H528 0.950 . S
C506 C505 1.388 . S
C506 C507 1.386 . S
C507 C506 1.386 . S
C507 C508 1.382 . S
C507 H529 0.950 . S
C508 N504 1.332 . S
C508 C507 1.382 . S
C508 H510 0.952 . S
C509 N504 1.332 . S
C509 C505 1.382 . S
C509 H511 0.948 . S
H510 C508 0.952 . S
H511 C509 0.948 . S
H512 C501 0.952 . S
H513 C503 0.948 . S
C514 C480 1.395 . S
C514 C484 1.391 . S
C515 C477 1.389 . S
C515 C497 1.392 . S
C516 C487 1.392 . S
C516 C489 1.389 . S
C517 C492 1.395 . S
C517 C494 1.391 . S
H518 C478 0.951 . S
H519 C479 0.950 . S
H520 C485 0.949 . S
H521 C486 0.950 . S
H522 C490 0.951 . S
H523 C491 0.950 . S
H524 C495 0.949 . S
H525 C496 0.950 . S
H526 C500 0.950 . S
H527 C502 0.950 . S
H528 C505 0.950 . S
H529 C507 0.950 . S
C530 C531 1.443 . S
C530 N534 1.376 . S
C530 C568 1.389 . S
C531 C530 1.443 . S
C531 C532 1.340 . S
C531 H571 0.951 . S
C532 C531 1.340 . S
C532 C533 1.439 . S
C532 H572 0.950 . S
C533 C532 1.439 . S
C533 N534 1.374 . S
C533 C567 1.395 . S
N534 C530 1.376 . S
N534 C533 1.374 . S
N534 Co535 2.008 . S
Co535 N534 2.008 . S
Co535 N536 1.995 . S
Co535 N541 2.008 . S
Co535 N546 1.995 . S
Co535 N551 2.282 . S
Co535 N557 2.282 . S
N536 Co535 1.995 . S
N536 C537 1.376 . S
N536 C540 1.383 . S
C537 N536 1.376 . S
C537 C538 1.446 . S
C537 C567 1.391 . S
C538 C537 1.446 . S
C538 C539 1.339 . S
C538 H573 0.949 . S
C539 C538 1.339 . S
C539 C540 1.439 . S
C539 H574 0.950 . S
C540 N536 1.383 . S
C540 C539 1.439 . S
C540 C569 1.392 . S
N541 Co535 2.008 . S
N541 C542 1.376 . S
N541 C545 1.374 . S
C542 N541 1.376 . S
C542 C543 1.443 . S
C542 C569 1.389 . S
C543 C542 1.443 . S
C543 C544 1.340 . S
C543 H575 0.951 . S
C544 C543 1.340 . S
C544 C545 1.439 . S
C544 H576 0.950 . S
C545 N541 1.374 . S
C545 C544 1.439 . S
C545 C570 1.395 . S
N546 Co535 1.995 . S
N546 C547 1.376 . S
N546 C550 1.383 . S
C547 N546 1.376 . S
C547 C548 1.446 . S
C547 C570 1.391 . S
C548 C547 1.446 . S
C548 C549 1.339 . S
C548 H577 0.949 . S
C549 C548 1.339 . S
C549 C550 1.439 . S
C549 H578 0.950 . S
C550 N546 1.383 . S
C550 C549 1.439 . S
C550 C568 1.392 . S
N551 Co535 2.282 . S
N551 C554 1.332 . S
N551 C556 1.332 . S
C552 C553 1.386 . S
C552 C555 1.388 . S
C553 C552 1.386 . S
C553 C554 1.382 . S
C553 H579 0.950 . S
C554 N551 1.332 . S
C554 C553 1.382 . S
C554 H565 0.952 . S
C555 C552 1.388 . S
C555 C556 1.382 . S
C555 H580 0.950 . S
C556 N551 1.332 . S
C556 C555 1.382 . S
C556 H566 0.948 . S
N557 Co535 2.282 . S
N557 C561 1.332 . S
N557 C562 1.332 . S
C558 C559 1.388 . S
C558 C562 1.382 . S
C558 H581 0.950 . S
C559 C558 1.388 . S
C559 C560 1.386 . S
C560 C559 1.386 . S
C560 C561 1.382 . S
C560 H582 0.950 . S
C561 N557 1.332 . S
C561 C560 1.382 . S
C561 H563 0.952 . S
C562 N557 1.332 . S
C562 C558 1.382 . S
C562 H564 0.948 . S
H563 C561 0.952 . S
H564 C562 0.948 . S
H565 C554 0.952 . S
H566 C556 0.948 . S
C567 C533 1.395 . S
C567 C537 1.391 . S
C568 C530 1.389 . S
C568 C550 1.392 . S
C569 C540 1.392 . S
C569 C542 1.389 . S
C570 C545 1.395 . S
C570 C547 1.391 . S
H571 C531 0.951 . S
H572 C532 0.950 . S
H573 C538 0.949 . S
H574 C539 0.950 . S
H575 C543 0.951 . S
H576 C544 0.950 . S
H577 C548 0.949 . S
H578 C549 0.950 . S
H579 C553 0.950 . S
H580 C555 0.950 . S
H581 C558 0.950 . S
H582 C560 0.950 . S
C583 C584 1.443 . S
C583 N587 1.376 . S
C583 C621 1.389 . S
C584 C583 1.443 . S
C584 C585 1.340 . S
C584 H624 0.951 . S
C585 C584 1.340 . S
C585 C586 1.439 . S
C585 H625 0.950 . S
C586 C585 1.439 . S
C586 N587 1.374 . S
C586 C620 1.395 . S
N587 C583 1.376 . S
N587 C586 1.374 . S
N587 Co588 2.008 . S
Co588 N587 2.008 . S
Co588 N589 1.995 . S
Co588 N594 2.008 . S
Co588 N599 1.995 . S
Co588 N604 2.282 . S
Co588 N610 2.282 . S
N589 Co588 1.995 . S
N589 C590 1.376 . S
N589 C593 1.383 . S
C590 N589 1.376 . S
C590 C591 1.446 . S
C590 C620 1.391 . S
C591 C590 1.446 . S
C591 C592 1.339 . S
C591 H626 0.949 . S
C592 C591 1.339 . S
C592 C593 1.439 . S
C592 H627 0.950 . S
C593 N589 1.383 . S
C593 C592 1.439 . S
C593 C622 1.392 . S
N594 Co588 2.008 . S
N594 C595 1.376 . S
N594 C598 1.374 . S
C595 N594 1.376 . S
C595 C596 1.443 . S
C595 C622 1.389 . S
C596 C595 1.443 . S
C596 C597 1.340 . S
C596 H628 0.951 . S
C597 C596 1.340 . S
C597 C598 1.439 . S
C597 H629 0.950 . S
C598 N594 1.374 . S
C598 C597 1.439 . S
C598 C623 1.395 . S
N599 Co588 1.995 . S
N599 C600 1.376 . S
N599 C603 1.383 . S
C600 N599 1.376 . S
C600 C601 1.446 . S
C600 C623 1.391 . S
C601 C600 1.446 . S
C601 C602 1.339 . S
C601 H630 0.949 . S
C602 C601 1.339 . S
C602 C603 1.439 . S
C602 H631 0.950 . S
C603 N599 1.383 . S
C603 C602 1.439 . S
C603 C621 1.392 . S
N604 Co588 2.282 . S
N604 C607 1.332 . S
N604 C609 1.332 . S
C605 C606 1.386 . S
C605 C608 1.388 . S
C606 C605 1.386 . S
C606 C607 1.382 . S
C606 H632 0.950 . S
C607 N604 1.332 . S
C607 C606 1.382 . S
C607 H618 0.952 . S
C608 C605 1.388 . S
C608 C609 1.382 . S
C608 H633 0.950 . S
C609 N604 1.332 . S
C609 C608 1.382 . S
C609 H619 0.948 . S
N610 Co588 2.282 . S
N610 C614 1.332 . S
N610 C615 1.332 . S
C611 C612 1.388 . S
C611 C615 1.382 . S
C611 H634 0.950 . S
C612 C611 1.388 . S
C612 C613 1.386 . S
C613 C612 1.386 . S
C613 C614 1.382 . S
C613 H635 0.950 . S
C614 N610 1.332 . S
C614 C613 1.382 . S
C614 H616 0.952 . S
C615 N610 1.332 . S
C615 C611 1.382 . S
C615 H617 0.948 . S
H616 C614 0.952 . S
H617 C615 0.948 . S
H618 C607 0.952 . S
H619 C609 0.948 . S
C620 C586 1.395 . S
C620 C590 1.391 . S
C621 C583 1.389 . S
C621 C603 1.392 . S
C622 C593 1.392 . S
C622 C595 1.389 . S
C623 C598 1.395 . S
C623 C600 1.391 . S
H624 C584 0.951 . S
H625 C585 0.950 . S
H626 C591 0.949 . S
H627 C592 0.950 . S
H628 C596 0.951 . S
H629 C597 0.950 . S
H630 C601 0.949 . S
H631 C602 0.950 . S
H632 C606 0.950 . S
H633 C608 0.950 . S
H634 C611 0.950 . S
H635 C613 0.950 . S
C636 C637 1.443 . S
C636 N640 1.376 . S
C636 C674 1.389 . S
C637 C636 1.443 . S
C637 C638 1.340 . S
C637 H677 0.951 . S
C638 C637 1.340 . S
C638 C639 1.439 . S
C638 H678 0.950 . S
C639 C638 1.439 . S
C639 N640 1.374 . S
C639 C673 1.395 . S
N640 C636 1.376 . S
N640 C639 1.374 . S
N640 Co641 2.008 . S
Co641 N640 2.008 . S
Co641 N642 1.995 . S
Co641 N647 2.008 . S
Co641 N652 1.995 . S
Co641 N657 2.282 . S
Co641 N663 2.282 . S
N642 Co641 1.995 . S
N642 C643 1.376 . S
N642 C646 1.383 . S
C643 N642 1.376 . S
C643 C644 1.446 . S
C643 C673 1.391 . S
C644 C643 1.446 . S
C644 C645 1.339 . S
C644 H679 0.949 . S
C645 C644 1.339 . S
C645 C646 1.439 . S
C645 H680 0.950 . S
C646 N642 1.383 . S
C646 C645 1.439 . S
C646 C675 1.392 . S
N647 Co641 2.008 . S
N647 C648 1.376 . S
N647 C651 1.374 . S
C648 N647 1.376 . S
C648 C649 1.443 . S
C648 C675 1.389 . S
C649 C648 1.443 . S
C649 C650 1.340 . S
C649 H681 0.951 . S
C650 C649 1.340 . S
C650 C651 1.439 . S
C650 H682 0.950 . S
C651 N647 1.374 . S
C651 C650 1.439 . S
C651 C676 1.395 . S
N652 Co641 1.995 . S
N652 C653 1.376 . S
N652 C656 1.383 . S
C653 N652 1.376 . S
C653 C654 1.446 . S
C653 C676 1.391 . S
C654 C653 1.446 . S
C654 C655 1.339 . S
C654 H683 0.949 . S
C655 C654 1.339 . S
C655 C656 1.439 . S
C655 H684 0.950 . S
C656 N652 1.383 . S
C656 C655 1.439 . S
C656 C674 1.392 . S
N657 Co641 2.282 . S
N657 C660 1.332 . S
N657 C662 1.332 . S
C658 C659 1.386 . S
C658 C661 1.388 . S
C659 C658 1.386 . S
C659 C660 1.382 . S
C659 H685 0.950 . S
C660 N657 1.332 . S
C660 C659 1.382 . S
C660 H671 0.952 . S
C661 C658 1.388 . S
C661 C662 1.382 . S
C661 H686 0.950 . S
C662 N657 1.332 . S
C662 C661 1.382 . S
C662 H672 0.948 . S
N663 Co641 2.282 . S
N663 C667 1.332 . S
N663 C668 1.332 . S
C664 C665 1.388 . S
C664 C668 1.382 . S
C664 H687 0.950 . S
C665 C664 1.388 . S
C665 C666 1.386 . S
C666 C665 1.386 . S
C666 C667 1.382 . S
C666 H688 0.950 . S
C667 N663 1.332 . S
C667 C666 1.382 . S
C667 H669 0.952 . S
C668 N663 1.332 . S
C668 C664 1.382 . S
C668 H670 0.948 . S
H669 C667 0.952 . S
H670 C668 0.948 . S
H671 C660 0.952 . S
H672 C662 0.948 . S
C673 C639 1.395 . S
C673 C643 1.391 . S
C674 C636 1.389 . S
C674 C656 1.392 . S
C675 C646 1.392 . S
C675 C648 1.389 . S
C676 C651 1.395 . S
C676 C653 1.391 . S
H677 C637 0.951 . S
H678 C638 0.950 . S
H679 C644 0.949 . S
H680 C645 0.950 . S
H681 C649 0.951 . S
H682 C650 0.950 . S
H683 C654 0.949 . S
H684 C655 0.950 . S
H685 C659 0.950 . S
H686 C661 0.950 . S
H687 C664 0.950 . S
H688 C666 0.950 . S
C689 C690 1.443 . S
C689 N693 1.376 . S
C689 C727 1.389 . S
C690 C689 1.443 . S
C690 C691 1.340 . S
C690 H730 0.951 . S
C691 C690 1.340 . S
C691 C692 1.439 . S
C691 H731 0.950 . S
C692 C691 1.439 . S
C692 N693 1.374 . S
C692 C726 1.395 . S
N693 C689 1.376 . S
N693 C692 1.374 . S
N693 Co694 2.008 . S
Co694 N693 2.008 . S
Co694 N695 1.995 . S
Co694 N700 2.008 . S
Co694 N705 1.995 . S
Co694 N710 2.282 . S
Co694 N716 2.282 . S
N695 Co694 1.995 . S
N695 C696 1.376 . S
N695 C699 1.383 . S
C696 N695 1.376 . S
C696 C697 1.446 . S
C696 C726 1.391 . S
C697 C696 1.446 . S
C697 C698 1.339 . S
C697 H732 0.949 . S
C698 C697 1.339 . S
C698 C699 1.439 . S
C698 H733 0.950 . S
C699 N695 1.383 . S
C699 C698 1.439 . S
C699 C728 1.392 . S
N700 Co694 2.008 . S
N700 C701 1.376 . S
N700 C704 1.374 . S
C701 N700 1.376 . S
C701 C702 1.443 . S
C701 C728 1.389 . S
C702 C701 1.443 . S
C702 C703 1.340 . S
C702 H734 0.951 . S
C703 C702 1.340 . S
C703 C704 1.439 . S
C703 H735 0.950 . S
C704 N700 1.374 . S
C704 C703 1.439 . S
C704 C729 1.395 . S
N705 Co694 1.995 . S
N705 C706 1.376 . S
N705 C709 1.383 . S
C706 N705 1.376 . S
C706 C707 1.446 . S
C706 C729 1.391 . S
C707 C706 1.446 . S
C707 C708 1.339 . S
C707 H736 0.949 . S
C708 C707 1.339 . S
C708 C709 1.439 . S
C708 H737 0.950 . S
C709 N705 1.383 . S
C709 C708 1.439 . S
C709 C727 1.392 . S
N710 Co694 2.282 . S
N710 C713 1.332 . S
N710 C715 1.332 . S
C711 C712 1.386 . S
C711 C714 1.388 . S
C712 C711 1.386 . S
C712 C713 1.382 . S
C712 H738 0.950 . S
C713 N710 1.332 . S
C713 C712 1.382 . S
C713 H724 0.952 . S
C714 C711 1.388 . S
C714 C715 1.382 . S
C714 H739 0.950 . S
C715 N710 1.332 . S
C715 C714 1.382 . S
C715 H725 0.948 . S
N716 Co694 2.282 . S
N716 C720 1.332 . S
N716 C721 1.332 . S
C717 C718 1.388 . S
C717 C721 1.382 . S
C717 H740 0.950 . S
C718 C717 1.388 . S
C718 C719 1.386 . S
C719 C718 1.386 . S
C719 C720 1.382 . S
C719 H741 0.950 . S
C720 N716 1.332 . S
C720 C719 1.382 . S
C720 H722 0.952 . S
C721 N716 1.332 . S
C721 C717 1.382 . S
C721 H723 0.948 . S
H722 C720 0.952 . S
H723 C721 0.948 . S
H724 C713 0.952 . S
H725 C715 0.948 . S
C726 C692 1.395 . S
C726 C696 1.391 . S
C727 C689 1.389 . S
C727 C709 1.392 . S
C728 C699 1.392 . S
C728 C701 1.389 . S
C729 C704 1.395 . S
C729 C706 1.391 . S
H730 C690 0.951 . S
H731 C691 0.950 . S
H732 C697 0.949 . S
H733 C698 0.950 . S
H734 C702 0.951 . S
H735 C703 0.950 . S
H736 C707 0.949 . S
H737 C708 0.950 . S
H738 C712 0.950 . S
H739 C714 0.950 . S
H740 C717 0.950 . S
H741 C719 0.950 . S
C742 C743 1.443 . S
C742 N746 1.376 . S
C742 C780 1.389 . S
C743 C742 1.443 . S
C743 C744 1.340 . S
C743 H783 0.951 . S
C744 C743 1.340 . S
C744 C745 1.439 . S
C744 H784 0.950 . S
C745 C744 1.439 . S
C745 N746 1.374 . S
C745 C779 1.395 . S
N746 C742 1.376 . S
N746 C745 1.374 . S
N746 Co747 2.008 . S
Co747 N746 2.008 . S
Co747 N748 1.995 . S
Co747 N753 2.008 . S
Co747 N758 1.995 . S
Co747 N763 2.282 . S
Co747 N769 2.282 . S
N748 Co747 1.995 . S
N748 C749 1.376 . S
N748 C752 1.383 . S
C749 N748 1.376 . S
C749 C750 1.446 . S
C749 C779 1.391 . S
C750 C749 1.446 . S
C750 C751 1.339 . S
C750 H785 0.949 . S
C751 C750 1.339 . S
C751 C752 1.439 . S
C751 H786 0.950 . S
C752 N748 1.383 . S
C752 C751 1.439 . S
C752 C781 1.392 . S
N753 Co747 2.008 . S
N753 C754 1.376 . S
N753 C757 1.374 . S
C754 N753 1.376 . S
C754 C755 1.443 . S
C754 C781 1.389 . S
C755 C754 1.443 . S
C755 C756 1.340 . S
C755 H787 0.951 . S
C756 C755 1.340 . S
C756 C757 1.439 . S
C756 H788 0.950 . S
C757 N753 1.374 . S
C757 C756 1.439 . S
C757 C782 1.395 . S
N758 Co747 1.995 . S
N758 C759 1.376 . S
N758 C762 1.383 . S
C759 N758 1.376 . S
C759 C760 1.446 . S
C759 C782 1.391 . S
C760 C759 1.446 . S
C760 C761 1.339 . S
C760 H789 0.949 . S
C761 C760 1.339 . S
C761 C762 1.439 . S
C761 H790 0.950 . S
C762 N758 1.383 . S
C762 C761 1.439 . S
C762 C780 1.392 . S
N763 Co747 2.282 . S
N763 C766 1.332 . S
N763 C768 1.332 . S
C764 C765 1.386 . S
C764 C767 1.388 . S
C765 C764 1.386 . S
C765 C766 1.382 . S
C765 H791 0.950 . S
C766 N763 1.332 . S
C766 C765 1.382 . S
C766 H777 0.952 . S
C767 C764 1.388 . S
C767 C768 1.382 . S
C767 H792 0.950 . S
C768 N763 1.332 . S
C768 C767 1.382 . S
C768 H778 0.948 . S
N769 Co747 2.282 . S
N769 C773 1.332 . S
N769 C774 1.332 . S
C770 C771 1.388 . S
C770 C774 1.382 . S
C770 H793 0.950 . S
C771 C770 1.388 . S
C771 C772 1.386 . S
C772 C771 1.386 . S
C772 C773 1.382 . S
C772 H794 0.950 . S
C773 N769 1.332 . S
C773 C772 1.382 . S
C773 H775 0.952 . S
C774 N769 1.332 . S
C774 C770 1.382 . S
C774 H776 0.948 . S
H775 C773 0.952 . S
H776 C774 0.948 . S
H777 C766 0.952 . S
H778 C768 0.948 . S
C779 C745 1.395 . S
C779 C749 1.391 . S
C780 C742 1.389 . S
C780 C762 1.392 . S
C781 C752 1.392 . S
C781 C754 1.389 . S
C782 C757 1.395 . S
C782 C759 1.391 . S
H783 C743 0.951 . S
H784 C744 0.950 . S
H785 C750 0.949 . S
H786 C751 0.950 . S
H787 C755 0.951 . S
H788 C756 0.950 . S
H789 C760 0.949 . S
H790 C761 0.950 . S
H791 C765 0.950 . S
H792 C767 0.950 . S
H793 C770 0.950 . S
H794 C772 0.950 . S
C795 C796 1.443 . S
C795 N799 1.376 . S
C795 C833 1.389 . S
C796 C795 1.443 . S
C796 C797 1.340 . S
C796 H836 0.951 . S
C797 C796 1.340 . S
C797 C798 1.439 . S
C797 H837 0.950 . S
C798 C797 1.439 . S
C798 N799 1.374 . S
C798 C832 1.395 . S
N799 C795 1.376 . S
N799 C798 1.374 . S
N799 Co800 2.008 . S
Co800 N799 2.008 . S
Co800 N801 1.995 . S
Co800 N806 2.008 . S
Co800 N811 1.995 . S
Co800 N816 2.282 . S
Co800 N822 2.282 . S
N801 Co800 1.995 . S
N801 C802 1.376 . S
N801 C805 1.383 . S
C802 N801 1.376 . S
C802 C803 1.446 . S
C802 C832 1.391 . S
C803 C802 1.446 . S
C803 C804 1.339 . S
C803 H838 0.949 . S
C804 C803 1.339 . S
C804 C805 1.439 . S
C804 H839 0.950 . S
C805 N801 1.383 . S
C805 C804 1.439 . S
C805 C834 1.392 . S
N806 Co800 2.008 . S
N806 C807 1.376 . S
N806 C810 1.374 . S
C807 N806 1.376 . S
C807 C808 1.443 . S
C807 C834 1.389 . S
C808 C807 1.443 . S
C808 C809 1.340 . S
C808 H840 0.951 . S
C809 C808 1.340 . S
C809 C810 1.439 . S
C809 H841 0.950 . S
C810 N806 1.374 . S
C810 C809 1.439 . S
C810 C835 1.395 . S
N811 Co800 1.995 . S
N811 C812 1.376 . S
N811 C815 1.383 . S
C812 N811 1.376 . S
C812 C813 1.446 . S
C812 C835 1.391 . S
C813 C812 1.446 . S
C813 C814 1.339 . S
C813 H842 0.949 . S
C814 C813 1.339 . S
C814 C815 1.439 . S
C814 H843 0.950 . S
C815 N811 1.383 . S
C815 C814 1.439 . S
C815 C833 1.392 . S
N816 Co800 2.282 . S
N816 C819 1.332 . S
N816 C821 1.332 . S
C817 C818 1.386 . S
C817 C820 1.388 . S
C818 C817 1.386 . S
C818 C819 1.382 . S
C818 H844 0.950 . S
C819 N816 1.332 . S
C819 C818 1.382 . S
C819 H830 0.952 . S
C820 C817 1.388 . S
C820 C821 1.382 . S
C820 H845 0.950 . S
C821 N816 1.332 . S
C821 C820 1.382 . S
C821 H831 0.948 . S
N822 Co800 2.282 . S
N822 C826 1.332 . S
N822 C827 1.332 . S
C823 C824 1.388 . S
C823 C827 1.382 . S
C823 H846 0.950 . S
C824 C823 1.388 . S
C824 C825 1.386 . S
C825 C824 1.386 . S
C825 C826 1.382 . S
C825 H847 0.950 . S
C826 N822 1.332 . S
C826 C825 1.382 . S
C826 H828 0.952 . S
C827 N822 1.332 . S
C827 C823 1.382 . S
C827 H829 0.948 . S
H828 C826 0.952 . S
H829 C827 0.948 . S
H830 C819 0.952 . S
H831 C821 0.948 . S
C832 C798 1.395 . S
C832 C802 1.391 . S
C833 C795 1.389 . S
C833 C815 1.392 . S
C834 C805 1.392 . S
C834 C807 1.389 . S
C835 C810 1.395 . S
C835 C812 1.391 . S
H836 C796 0.951 . S
H837 C797 0.950 . S
H838 C803 0.949 . S
H839 C804 0.950 . S
H840 C808 0.951 . S
H841 C809 0.950 . S
H842 C813 0.949 . S
H843 C814 0.950 . S
H844 C818 0.950 . S
H845 C820 0.950 . S
H846 C823 0.950 . S
H847 C825 0.950 . S
C848 C849 1.443 . S
C848 N852 1.376 . S
C848 C886 1.389 1_655 S
C849 C848 1.443 . S
C849 C850 1.340 . S
C849 H889 0.951 . S
C850 C849 1.340 . S
C850 C851 1.439 . S
C850 H890 0.950 . S
C851 C850 1.439 . S
C851 N852 1.374 . S
C851 C885 1.395 . S
N852 C848 1.376 . S
N852 C851 1.374 . S
N852 Co853 2.008 . S
Co853 N852 2.008 . S
Co853 N854 1.995 . S
Co853 N859 2.008 1_645 S
Co853 N864 1.995 1_655 S
Co853 N869 2.282 1_545 S
Co853 N875 2.282 1_655 S
N854 Co853 1.995 . S
N854 C855 1.376 . S
N854 C858 1.383 . S
C855 N854 1.376 . S
C855 C856 1.446 . S
C855 C885 1.391 . S
C856 C855 1.446 . S
C856 C857 1.339 . S
C856 H891 0.949 . S
C857 C856 1.339 . S
C857 C858 1.439 . S
C857 H892 0.950 . S
C858 N854 1.383 . S
C858 C857 1.439 . S
C858 C887 1.392 1_545 S
N859 Co853 2.008 1_465 S
N859 C860 1.376 . S
N859 C863 1.374 . S
C860 N859 1.376 . S
C860 C861 1.443 . S
C860 C887 1.389 1_455 S
C861 C860 1.443 . S
C861 C862 1.340 . S
C861 H893 0.951 . S
C862 C861 1.340 . S
C862 C863 1.439 . S
C862 H894 0.950 . S
C863 N859 1.374 . S
C863 C862 1.439 . S
C863 C888 1.395 . S
N864 Co853 1.995 1_455 S
N864 C865 1.376 1_545 S
N864 C868 1.383 . S
C865 N864 1.376 1_565 S
C865 C866 1.446 . S
C865 C888 1.391 . S
C866 C865 1.446 . S
C866 C867 1.339 . S
C866 H895 0.949 . S
C867 C866 1.339 . S
C867 C868 1.439 1_565 S
C867 H896 0.950 1_565 S
C868 N864 1.383 . S
C868 C867 1.439 1_545 S
C868 C886 1.392 . S
N869 Co853 2.282 1_565 S
N869 C872 1.332 . S
N869 C874 1.332 1_565 S
C870 C871 1.386 . S
C870 C873 1.388 . S
C871 C870 1.386 . S
C871 C872 1.382 . S
C871 H897 0.950 . S
C872 N869 1.332 . S
C872 C871 1.382 . S
C872 H883 0.952 . S
C873 C870 1.388 . S
C873 C874 1.382 1_565 S
C873 H898 0.950 . S
C874 N869 1.332 1_545 S
C874 C873 1.382 1_545 S
C874 H884 0.948 . S
N875 Co853 2.282 1_455 S
N875 C879 1.332 . S
N875 C880 1.332 . S
C876 C877 1.388 . S
C876 C880 1.382 . S
C876 H899 0.950 . S
C877 C876 1.388 . S
C877 C878 1.386 . S
C878 C877 1.386 . S
C878 C879 1.382 . S
C878 H900 0.950 . S
C879 N875 1.332 . S
C879 C878 1.382 . S
C879 H881 0.952 . S
C880 N875 1.332 . S
C880 C876 1.382 . S
C880 H882 0.948 . S
H881 C879 0.952 . S
H882 C880 0.948 . S
H883 C872 0.952 . S
H884 C874 0.948 . S
C885 C851 1.395 . S
C885 C855 1.391 . S
C886 C848 1.389 1_455 S
C886 C868 1.392 . S
C887 C858 1.392 1_565 S
C887 C860 1.389 1_655 S
C888 C863 1.395 . S
C888 C865 1.391 . S
H889 C849 0.951 . S
H890 C850 0.950 . S
H891 C856 0.949 . S
H892 C857 0.950 . S
H893 C861 0.951 . S
H894 C862 0.950 . S
H895 C866 0.949 . S
H896 C867 0.950 1_545 S
H897 C871 0.950 . S
H898 C873 0.950 . S
H899 C876 0.950 . S
H900 C878 0.950 . S
C901 C902 1.443 . S
C901 N905 1.376 . S
C901 C939 1.389 . S
C902 C901 1.443 . S
C902 C903 1.340 . S
C902 H942 0.951 . S
C903 C902 1.340 . S
C903 C904 1.439 . S
C903 H943 0.950 . S
C904 C903 1.439 . S
C904 N905 1.374 . S
C904 C938 1.395 . S
N905 C901 1.376 . S
N905 C904 1.374 . S
N905 Co906 2.008 . S
Co906 N905 2.008 . S
Co906 N907 1.995 . S
Co906 N912 2.008 . S
Co906 N917 1.995 . S
Co906 N922 2.282 . S
Co906 N928 2.282 . S
N907 Co906 1.995 . S
N907 C908 1.376 . S
N907 C911 1.383 . S
C908 N907 1.376 . S
C908 C909 1.446 . S
C908 C938 1.391 . S
C909 C908 1.446 . S
C909 C910 1.339 . S
C909 H944 0.949 . S
C910 C909 1.339 . S
C910 C911 1.439 . S
C910 H945 0.950 . S
C911 N907 1.383 . S
C911 C910 1.439 . S
C911 C940 1.392 . S
N912 Co906 2.008 . S
N912 C913 1.376 . S
N912 C916 1.374 . S
C913 N912 1.376 . S
C913 C914 1.443 . S
C913 C940 1.389 . S
C914 C913 1.443 . S
C914 C915 1.340 . S
C914 H946 0.951 . S
C915 C914 1.340 . S
C915 C916 1.439 . S
C915 H947 0.950 . S
C916 N912 1.374 . S
C916 C915 1.439 . S
C916 C941 1.395 . S
N917 Co906 1.995 . S
N917 C918 1.376 . S
N917 C921 1.383 . S
C918 N917 1.376 . S
C918 C919 1.446 . S
C918 C941 1.391 . S
C919 C918 1.446 . S
C919 C920 1.339 . S
C919 H948 0.949 . S
C920 C919 1.339 . S
C920 C921 1.439 . S
C920 H949 0.950 . S
C921 N917 1.383 . S
C921 C920 1.439 . S
C921 C939 1.392 . S
N922 Co906 2.282 . S
N922 C925 1.332 . S
N922 C927 1.332 . S
C923 C924 1.386 . S
C923 C926 1.388 . S
C924 C923 1.386 . S
C924 C925 1.382 . S
C924 H950 0.950 . S
C925 N922 1.332 . S
C925 C924 1.382 . S
C925 H936 0.952 . S
C926 C923 1.388 . S
C926 C927 1.382 . S
C926 H951 0.950 . S
C927 N922 1.332 . S
C927 C926 1.382 . S
C927 H937 0.948 . S
N928 Co906 2.282 . S
N928 C932 1.332 . S
N928 C933 1.332 . S
C929 C930 1.388 . S
C929 C933 1.382 . S
C929 H952 0.950 . S
C930 C929 1.388 . S
C930 C931 1.386 . S
C931 C930 1.386 . S
C931 C932 1.382 . S
C931 H953 0.950 . S
C932 N928 1.332 . S
C932 C931 1.382 . S
C932 H934 0.952 . S
C933 N928 1.332 . S
C933 C929 1.382 . S
C933 H935 0.948 . S
H934 C932 0.952 . S
H935 C933 0.948 . S
H936 C925 0.952 . S
H937 C927 0.948 . S
C938 C904 1.395 . S
C938 C908 1.391 . S
C939 C901 1.389 . S
C939 C921 1.392 . S
C940 C911 1.392 . S
C940 C913 1.389 . S
C941 C916 1.395 . S
C941 C918 1.391 . S
H942 C902 0.951 . S
H943 C903 0.950 . S
H944 C909 0.949 . S
H945 C910 0.950 . S
H946 C914 0.951 . S
H947 C915 0.950 . S
H948 C919 0.949 . S
H949 C920 0.950 . S
H950 C924 0.950 . S
H951 C926 0.950 . S
H952 C929 0.950 . S
H953 C931 0.950 . S
C954 C955 1.443 . S
C954 N958 1.376 . S
C954 C992 1.389 1_655 S
C955 C954 1.443 . S
C955 C956 1.340 . S
C955 H995 0.951 . S
C956 C955 1.340 . S
C956 C957 1.439 . S
C956 H996 0.950 . S
C957 C956 1.439 . S
C957 N958 1.374 . S
C957 C991 1.395 . S
N958 C954 1.376 . S
N958 C957 1.374 . S
N958 Co959 2.008 . S
Co959 N958 2.008 . S
Co959 N960 1.995 . S
Co959 N965 2.008 1_655 S
Co959 N970 1.995 1_655 S
Co959 N975 2.282 . S
Co959 N981 2.282 1_655 S
N960 Co959 1.995 . S
N960 C961 1.376 . S
N960 C964 1.383 . S
C961 N960 1.376 . S
C961 C962 1.446 . S
C961 C991 1.391 . S
C962 C961 1.446 . S
C962 C963 1.339 . S
C962 H997 0.949 . S
C963 C962 1.339 . S
C963 C964 1.439 . S
C963 H998 0.950 . S
C964 N960 1.383 . S
C964 C963 1.439 . S
C964 C993 1.392 . S
N965 Co959 2.008 1_455 S
N965 C966 1.376 . S
N965 C969 1.374 . S
C966 N965 1.376 . S
C966 C967 1.443 . S
C966 C993 1.389 1_455 S
C967 C966 1.443 . S
C967 C968 1.340 . S
C967 H999 0.951 . S
C968 C967 1.340 . S
C968 C969 1.439 . S
C968 H1000 0.950 . S
C969 N965 1.374 . S
C969 C968 1.439 . S
C969 C994 1.395 . S
N970 Co959 1.995 1_455 S
N970 C971 1.376 . S
N970 C974 1.383 . S
C971 N970 1.376 . S
C971 C972 1.446 . S
C971 C994 1.391 . S
C972 C971 1.446 . S
C972 C973 1.339 . S
C972 H1001 0.949 . S
C973 C972 1.339 . S
C973 C974 1.439 . S
C973 H1002 0.950 . S
C974 N970 1.383 . S
C974 C973 1.439 . S
C974 C992 1.392 . S
N975 Co959 2.282 . S
N975 C978 1.332 . S
N975 C980 1.332 . S
C976 C977 1.386 . S
C976 C979 1.388 . S
C977 C976 1.386 . S
C977 C978 1.382 . S
C977 H1003 0.950 . S
C978 N975 1.332 . S
C978 C977 1.382 . S
C978 H989 0.952 . S
C979 C976 1.388 . S
C979 C980 1.382 . S
C979 H1004 0.950 . S
C980 N975 1.332 . S
C980 C979 1.382 . S
C980 H990 0.948 . S
N981 Co959 2.282 1_455 S
N981 C985 1.332 . S
N981 C986 1.332 . S
C982 C983 1.388 . S
C982 C986 1.382 . S
C982 H1005 0.950 . S
C983 C982 1.388 . S
C983 C984 1.386 . S
C984 C983 1.386 . S
C984 C985 1.382 . S
C984 H1006 0.950 . S
C985 N981 1.332 . S
C985 C984 1.382 . S
C985 H987 0.952 . S
C986 N981 1.332 . S
C986 C982 1.382 . S
C986 H988 0.948 . S
H987 C985 0.952 . S
H988 C986 0.948 . S
H989 C978 0.952 . S
H990 C980 0.948 . S
C991 C957 1.395 . S
C991 C961 1.391 . S
C992 C954 1.389 1_455 S
C992 C974 1.392 . S
C993 C964 1.392 . S
C993 C966 1.389 1_655 S
C994 C969 1.395 . S
C994 C971 1.391 . S
H995 C955 0.951 . S
H996 C956 0.950 . S
H997 C962 0.949 . S
H998 C963 0.950 . S
H999 C967 0.951 . S
H1000 C968 0.950 . S
H1001 C972 0.949 . S
H1002 C973 0.950 . S
H1003 C977 0.950 . S
H1004 C979 0.950 . S
H1005 C982 0.950 . S
H1006 C984 0.950 . S
C1007 C1008 1.443 . S
C1007 N1011 1.376 . S
C1007 C1045 1.389 . S
C1008 C1007 1.443 . S
C1008 C1009 1.340 . S
C1008 H1048 0.951 . S
C1009 C1008 1.340 . S
C1009 C1010 1.439 . S
C1009 H1049 0.950 . S
C1010 C1009 1.439 . S
C1010 N1011 1.374 . S
C1010 C1044 1.395 . S
N1011 C1007 1.376 . S
N1011 C1010 1.374 . S
N1011 Co1012 2.008 . S
Co1012 N1011 2.008 . S
Co1012 N1013 1.995 . S
Co1012 N1018 2.008 1_545 S
Co1012 N1023 1.995 1_545 S
Co1012 N1028 2.282 1_545 S
Co1012 N1034 2.282 . S
N1013 Co1012 1.995 . S
N1013 C1014 1.376 . S
N1013 C1017 1.383 . S
C1014 N1013 1.376 . S
C1014 C1015 1.446 . S
C1014 C1044 1.391 . S
C1015 C1014 1.446 . S
C1015 C1016 1.339 . S
C1015 H1050 0.949 . S
C1016 C1015 1.339 . S
C1016 C1017 1.439 . S
C1016 H1051 0.950 . S
C1017 N1013 1.383 . S
C1017 C1016 1.439 . S
C1017 C1046 1.392 1_545 S
N1018 Co1012 2.008 1_565 S
N1018 C1019 1.376 . S
N1018 C1022 1.374 . S
C1019 N1018 1.376 . S
C1019 C1020 1.443 . S
C1019 C1046 1.389 . S
C1020 C1019 1.443 . S
C1020 C1021 1.340 . S
C1020 H1052 0.951 . S
C1021 C1020 1.340 . S
C1021 C1022 1.439 . S
C1021 H1053 0.950 . S
C1022 N1018 1.374 . S
C1022 C1021 1.439 . S
C1022 C1047 1.395 . S
N1023 Co1012 1.995 1_565 S
N1023 C1024 1.376 . S
N1023 C1027 1.383 1_565 S
C1024 N1023 1.376 . S
C1024 C1025 1.446 . S
C1024 C1047 1.391 . S
C1025 C1024 1.446 . S
C1025 C1026 1.339 . S
C1025 H1054 0.949 . S
C1026 C1025 1.339 . S
C1026 C1027 1.439 1_565 S
C1026 H1055 0.950 . S
C1027 N1023 1.383 1_545 S
C1027 C1026 1.439 1_545 S
C1027 C1045 1.392 . S
N1028 Co1012 2.282 1_565 S
N1028 C1031 1.332 . S
N1028 C1033 1.332 1_565 S
C1029 C1030 1.386 . S
C1029 C1032 1.388 . S
C1030 C1029 1.386 . S
C1030 C1031 1.382 . S
C1030 H1056 0.950 . S
C1031 N1028 1.332 . S
C1031 C1030 1.382 . S
C1031 H1042 0.952 . S
C1032 C1029 1.388 . S
C1032 C1033 1.382 1_565 S
C1032 H1057 0.950 . S
C1033 N1028 1.332 1_545 S
C1033 C1032 1.382 1_545 S
C1033 H1043 0.948 . S
N1034 Co1012 2.282 . S
N1034 C1038 1.332 . S
N1034 C1039 1.332 . S
C1035 C1036 1.388 . S
C1035 C1039 1.382 . S
C1035 H1058 0.950 . S
C1036 C1035 1.388 . S
C1036 C1037 1.386 . S
C1037 C1036 1.386 . S
C1037 C1038 1.382 . S
C1037 H1059 0.950 . S
C1038 N1034 1.332 . S
C1038 C1037 1.382 . S
C1038 H1040 0.952 . S
C1039 N1034 1.332 . S
C1039 C1035 1.382 . S
C1039 H1041 0.948 . S
H1040 C1038 0.952 . S
H1041 C1039 0.948 . S
H1042 C1031 0.952 . S
H1043 C1033 0.948 . S
C1044 C1010 1.395 . S
C1044 C1014 1.391 . S
C1045 C1007 1.389 . S
C1045 C1027 1.392 . S
C1046 C1017 1.392 1_565 S
C1046 C1019 1.389 . S
C1047 C1022 1.395 . S
C1047 C1024 1.391 . S
H1048 C1008 0.951 . S
H1049 C1009 0.950 . S
H1050 C1015 0.949 . S
H1051 C1016 0.950 . S
H1052 C1020 0.951 . S
H1053 C1021 0.950 . S
H1054 C1025 0.949 . S
H1055 C1026 0.950 . S
H1056 C1030 0.950 . S
H1057 C1032 0.950 . S
H1058 C1035 0.950 . S
H1059 C1037 0.950 . S
C1060 C1061 1.443 . S
C1060 N1064 1.376 . S
C1060 C1098 1.389 . S
C1061 C1060 1.443 . S
C1061 C1062 1.340 1_565 S
C1061 H1101 0.951 . S
C1062 C1061 1.340 1_545 S
C1062 C1063 1.439 . S
C1062 H1102 0.950 . S
C1063 C1062 1.439 . S
C1063 N1064 1.374 1_545 S
C1063 C1097 1.395 . S
N1064 C1060 1.376 . S
N1064 C1063 1.374 1_565 S
N1064 Co1065 2.008 1_655 S
Co1065 N1064 2.008 1_455 S
Co1065 N1066 1.995 1_465 S
Co1065 N1071 2.008 . S
Co1065 N1076 1.995 . S
Co1065 N1081 2.282 1_565 S
Co1065 N1087 2.282 1_455 S
N1066 Co1065 1.995 1_645 S
N1066 C1067 1.376 . S
N1066 C1070 1.383 . S
C1067 N1066 1.376 . S
C1067 C1068 1.446 . S
C1067 C1097 1.391 . S
C1068 C1067 1.446 . S
C1068 C1069 1.339 . S
C1068 H1103 0.949 . S
C1069 C1068 1.339 . S
C1069 C1070 1.439 . S
C1069 H1104 0.950 . S
C1070 N1066 1.383 . S
C1070 C1069 1.439 . S
C1070 C1099 1.392 1_655 S
N1071 Co1065 2.008 . S
N1071 C1072 1.376 . S
N1071 C1075 1.374 . S
C1072 N1071 1.376 . S
C1072 C1073 1.443 . S
C1072 C1099 1.389 1_565 S
C1073 C1072 1.443 . S
C1073 C1074 1.340 . S
C1073 H1105 0.951 . S
C1074 C1073 1.340 . S
C1074 C1075 1.439 . S
C1074 H1106 0.950 . S
C1075 N1071 1.374 . S
C1075 C1074 1.439 . S
C1075 C1100 1.395 . S
N1076 Co1065 1.995 . S
N1076 C1077 1.376 . S
N1076 C1080 1.383 . S
C1077 N1076 1.376 . S
C1077 C1078 1.446 . S
C1077 C1100 1.391 . S
C1078 C1077 1.446 . S
C1078 C1079 1.339 . S
C1078 H1107 0.949 . S
C1079 C1078 1.339 . S
C1079 C1080 1.439 . S
C1079 H1108 0.950 . S
C1080 N1076 1.383 . S
C1080 C1079 1.439 . S
C1080 C1098 1.392 1_455 S
N1081 Co1065 2.282 1_545 S
N1081 C1084 1.332 1_545 S
N1081 C1086 1.332 . S
C1082 C1083 1.386 . S
C1082 C1085 1.388 . S
C1083 C1082 1.386 . S
C1083 C1084 1.382 1_545 S
C1083 H1109 0.947 1_545 S
C1084 N1081 1.332 1_565 S
C1084 C1083 1.382 1_565 S
C1084 H1095 0.952 . S
C1085 C1082 1.388 . S
C1085 C1086 1.382 . S
C1085 H1110 0.950 . S
C1086 N1081 1.332 . S
C1086 C1085 1.382 . S
C1086 H1096 0.948 . S
N1087 Co1065 2.282 1_655 S
N1087 C1091 1.332 . S
N1087 C1092 1.332 . S
C1088 C1089 1.388 . S
C1088 C1092 1.382 . S
C1088 H1111 0.950 . S
C1089 C1088 1.388 . S
C1089 C1090 1.386 . S
C1090 C1089 1.386 . S
C1090 C1091 1.382 . S
C1090 H1112 0.950 . S
C1091 N1087 1.332 . S
C1091 C1090 1.382 . S
C1091 H1093 0.952 . S
C1092 N1087 1.332 . S
C1092 C1088 1.382 . S
C1092 H1094 0.948 . S
H1093 C1091 0.952 . S
H1094 C1092 0.948 . S
H1095 C1084 0.952 . S
H1096 C1086 0.948 . S
C1097 C1063 1.395 . S
C1097 C1067 1.391 . S
C1098 C1060 1.389 . S
C1098 C1080 1.392 1_655 S
C1099 C1070 1.392 1_455 S
C1099 C1072 1.389 1_545 S
C1100 C1075 1.395 . S
C1100 C1077 1.391 . S
H1101 C1061 0.951 . S
H1102 C1062 0.950 . S
H1103 C1068 0.949 . S
H1104 C1069 0.950 . S
H1105 C1073 0.951 . S
H1106 C1074 0.950 . S
H1107 C1078 0.949 . S
H1108 C1079 0.950 . S
H1109 C1083 0.947 1_565 S
H1110 C1085 0.950 . S
H1111 C1088 0.950 . S
H1112 C1090 0.950 . S
C1113 C1114 1.443 . S
C1113 N1117 1.376 . S
C1113 C1151 1.389 . S
C1114 C1113 1.443 . S
C1114 C1115 1.340 . S
C1114 H1154 0.951 . S
C1115 C1114 1.340 . S
C1115 C1116 1.439 . S
C1115 H1155 0.950 . S
C1116 C1115 1.439 . S
C1116 N1117 1.374 . S
C1116 C1150 1.395 . S
N1117 C1113 1.376 . S
N1117 C1116 1.374 . S
N1117 Co1118 2.008 . S
Co1118 N1117 2.008 . S
Co1118 N1119 1.995 . S
Co1118 N1124 2.008 . S
Co1118 N1129 1.995 . S
Co1118 N1134 2.282 . S
Co1118 N1140 2.282 . S
N1119 Co1118 1.995 . S
N1119 C1120 1.376 . S
N1119 C1123 1.383 . S
C1120 N1119 1.376 . S
C1120 C1121 1.446 . S
C1120 C1150 1.391 . S
C1121 C1120 1.446 . S
C1121 C1122 1.339 . S
C1121 H1156 0.949 . S
C1122 C1121 1.339 . S
C1122 C1123 1.439 . S
C1122 H1157 0.950 . S
C1123 N1119 1.383 . S
C1123 C1122 1.439 . S
C1123 C1152 1.392 . S
N1124 Co1118 2.008 . S
N1124 C1125 1.376 . S
N1124 C1128 1.374 . S
C1125 N1124 1.376 . S
C1125 C1126 1.443 . S
C1125 C1152 1.389 . S
C1126 C1125 1.443 . S
C1126 C1127 1.340 . S
C1126 H1158 0.951 . S
C1127 C1126 1.340 . S
C1127 C1128 1.439 . S
C1127 H1159 0.950 . S
C1128 N1124 1.374 . S
C1128 C1127 1.439 . S
C1128 C1153 1.395 . S
N1129 Co1118 1.995 . S
N1129 C1130 1.376 . S
N1129 C1133 1.383 . S
C1130 N1129 1.376 . S
C1130 C1131 1.446 . S
C1130 C1153 1.391 . S
C1131 C1130 1.446 . S
C1131 C1132 1.339 . S
C1131 H1160 0.949 . S
C1132 C1131 1.339 . S
C1132 C1133 1.439 . S
C1132 H1161 0.950 . S
C1133 N1129 1.383 . S
C1133 C1132 1.439 . S
C1133 C1151 1.392 . S
N1134 Co1118 2.282 . S
N1134 C1137 1.332 . S
N1134 C1139 1.332 . S
C1135 C1136 1.386 . S
C1135 C1138 1.388 . S
C1136 C1135 1.386 . S
C1136 C1137 1.382 . S
C1136 H1162 0.950 . S
C1137 N1134 1.332 . S
C1137 C1136 1.382 . S
C1137 H1148 0.952 . S
C1138 C1135 1.388 . S
C1138 C1139 1.382 . S
C1138 H1163 0.950 . S
C1139 N1134 1.332 . S
C1139 C1138 1.382 . S
C1139 H1149 0.948 . S
N1140 Co1118 2.282 . S
N1140 C1144 1.332 . S
N1140 C1145 1.332 . S
C1141 C1142 1.388 . S
C1141 C1145 1.382 . S
C1141 H1164 0.950 . S
C1142 C1141 1.388 . S
C1142 C1143 1.386 . S
C1143 C1142 1.386 . S
C1143 C1144 1.382 . S
C1143 H1165 0.950 . S
C1144 N1140 1.332 . S
C1144 C1143 1.382 . S
C1144 H1146 0.952 . S
C1145 N1140 1.332 . S
C1145 C1141 1.382 . S
C1145 H1147 0.948 . S
H1146 C1144 0.952 . S
H1147 C1145 0.948 . S
H1148 C1137 0.952 . S
H1149 C1139 0.948 . S
C1150 C1116 1.395 . S
C1150 C1120 1.391 . S
C1151 C1113 1.389 . S
C1151 C1133 1.392 . S
C1152 C1123 1.392 . S
C1152 C1125 1.389 . S
C1153 C1128 1.395 . S
C1153 C1130 1.391 . S
H1154 C1114 0.951 . S
H1155 C1115 0.950 . S
H1156 C1121 0.949 . S
H1157 C1122 0.950 . S
H1158 C1126 0.951 . S
H1159 C1127 0.950 . S
H1160 C1131 0.949 . S
H1161 C1132 0.950 . S
H1162 C1136 0.950 . S
H1163 C1138 0.950 . S
H1164 C1141 0.950 . S
H1165 C1143 0.950 . S
C1166 C1167 1.443 . S
C1166 N1170 1.376 . S
C1166 C1204 1.389 . S
C1167 C1166 1.443 . S
C1167 C1168 1.340 . S
C1167 H1207 0.951 . S
C1168 C1167 1.340 . S
C1168 C1169 1.439 . S
C1168 H1208 0.950 . S
C1169 C1168 1.439 . S
C1169 N1170 1.374 . S
C1169 C1203 1.395 . S
N1170 C1166 1.376 . S
N1170 C1169 1.374 . S
N1170 Co1171 2.008 1_655 S
Co1171 N1170 2.008 1_455 S
Co1171 N1172 1.995 1_455 S
Co1171 N1177 2.008 . S
Co1171 N1182 1.995 . S
Co1171 N1187 2.282 . S
Co1171 N1193 2.282 1_455 S
N1172 Co1171 1.995 1_655 S
N1172 C1173 1.376 . S
N1172 C1176 1.383 . S
C1173 N1172 1.376 . S
C1173 C1174 1.446 . S
C1173 C1203 1.391 . S
C1174 C1173 1.446 . S
C1174 C1175 1.339 . S
C1174 H1209 0.949 . S
C1175 C1174 1.339 . S
C1175 C1176 1.439 . S
C1175 H1210 0.950 . S
C1176 N1172 1.383 . S
C1176 C1175 1.439 . S
C1176 C1205 1.392 1_655 S
N1177 Co1171 2.008 . S
N1177 C1178 1.376 . S
N1177 C1181 1.374 . S
C1178 N1177 1.376 . S
C1178 C1179 1.443 . S
C1178 C1205 1.389 . S
C1179 C1178 1.443 . S
C1179 C1180 1.340 . S
C1179 H1211 0.951 . S
C1180 C1179 1.340 . S
C1180 C1181 1.439 . S
C1180 H1212 0.950 . S
C1181 N1177 1.374 . S
C1181 C1180 1.439 . S
C1181 C1206 1.395 . S
N1182 Co1171 1.995 . S
N1182 C1183 1.376 . S
N1182 C1186 1.383 . S
C1183 N1182 1.376 . S
C1183 C1184 1.446 . S
C1183 C1206 1.391 . S
C1184 C1183 1.446 . S
C1184 C1185 1.339 . S
C1184 H1213 0.949 . S
C1185 C1184 1.339 . S
C1185 C1186 1.439 . S
C1185 H1214 0.950 . S
C1186 N1182 1.383 . S
C1186 C1185 1.439 . S
C1186 C1204 1.392 1_455 S
N1187 Co1171 2.282 . S
N1187 C1190 1.332 . S
N1187 C1192 1.332 . S
C1188 C1189 1.386 . S
C1188 C1191 1.388 . S
C1189 C1188 1.386 . S
C1189 C1190 1.382 . S
C1189 H1215 0.950 . S
C1190 N1187 1.332 . S
C1190 C1189 1.382 . S
C1190 H1201 0.952 . S
C1191 C1188 1.388 . S
C1191 C1192 1.382 . S
C1191 H1216 0.950 . S
C1192 N1187 1.332 . S
C1192 C1191 1.382 . S
C1192 H1202 0.948 . S
N1193 Co1171 2.282 1_655 S
N1193 C1197 1.332 . S
N1193 C1198 1.332 . S
C1194 C1195 1.388 . S
C1194 C1198 1.382 . S
C1194 H1217 0.950 . S
C1195 C1194 1.388 . S
C1195 C1196 1.386 . S
C1196 C1195 1.386 . S
C1196 C1197 1.382 . S
C1196 H1218 0.950 . S
C1197 N1193 1.332 . S
C1197 C1196 1.382 . S
C1197 H1199 0.952 . S
C1198 N1193 1.332 . S
C1198 C1194 1.382 . S
C1198 H1200 0.948 . S
H1199 C1197 0.952 . S
H1200 C1198 0.948 . S
H1201 C1190 0.952 . S
H1202 C1192 0.948 . S
C1203 C1169 1.395 . S
C1203 C1173 1.391 . S
C1204 C1166 1.389 . S
C1204 C1186 1.392 1_655 S
C1205 C1176 1.392 1_455 S
C1205 C1178 1.389 . S
C1206 C1181 1.395 . S
C1206 C1183 1.391 . S
H1207 C1167 0.951 . S
H1208 C1168 0.950 . S
H1209 C1174 0.949 . S
H1210 C1175 0.950 . S
H1211 C1179 0.951 . S
H1212 C1180 0.950 . S
H1213 C1184 0.949 . S
H1214 C1185 0.950 . S
H1215 C1189 0.950 . S
H1216 C1191 0.950 . S
H1217 C1194 0.950 . S
H1218 C1196 0.950 . S
C1219 C1220 1.443 1_565 S
C1219 N1223 1.377 1_565 S
C1219 C1257 1.389 . S
C1220 C1219 1.443 1_545 S
C1220 C1221 1.340 . S
C1220 H1260 0.951 1_545 S
C1221 C1220 1.340 . S
C1221 C1222 1.439 . S
C1221 H1261 0.950 . S
C1222 C1221 1.439 . S
C1222 N1223 1.373 . S
C1222 C1256 1.395 . S
N1223 C1219 1.377 1_545 S
N1223 C1222 1.373 . S
N1223 Co1224 2.009 1_545 S
Co1224 N1223 2.009 1_565 S
Co1224 N1225 1.995 1_565 S
Co1224 N1230 2.008 . S
Co1224 N1235 1.995 . S
Co1224 N1240 2.282 1_565 S
Co1224 N1246 2.282 . S
N1225 Co1224 1.995 1_545 S
N1225 C1226 1.376 . S
N1225 C1229 1.383 . S
C1226 N1225 1.376 . S
C1226 C1227 1.446 . S
C1226 C1256 1.391 . S
C1227 C1226 1.446 . S
C1227 C1228 1.339 . S
C1227 H1262 0.949 . S
C1228 C1227 1.339 . S
C1228 C1229 1.439 . S
C1228 H1263 0.950 . S
C1229 N1225 1.383 . S
C1229 C1228 1.439 . S
C1229 C1258 1.392 . S
N1230 Co1224 2.008 . S
N1230 C1231 1.376 . S
N1230 C1234 1.374 . S
C1231 N1230 1.376 . S
C1231 C1232 1.443 . S
C1231 C1258 1.389 1_565 S
C1232 C1231 1.443 . S
C1232 C1233 1.340 . S
C1232 H1264 0.951 . S
C1233 C1232 1.340 . S
C1233 C1234 1.439 . S
C1233 H1265 0.950 . S
C1234 N1230 1.374 . S
C1234 C1233 1.439 . S
C1234 C1259 1.395 . S
N1235 Co1224 1.995 . S
N1235 C1236 1.376 . S
N1235 C1239 1.383 . S
C1236 N1235 1.376 . S
C1236 C1237 1.446 . S
C1236 C1259 1.391 . S
C1237 C1236 1.446 . S
C1237 C1238 1.339 . S
C1237 H1266 0.949 . S
C1238 C1237 1.339 . S
C1238 C1239 1.439 . S
C1238 H1267 0.950 . S
C1239 N1235 1.383 . S
C1239 C1238 1.439 . S
C1239 C1257 1.392 . S
N1240 Co1224 2.282 1_545 S
N1240 C1243 1.332 1_545 S
N1240 C1245 1.332 . S
C1241 C1242 1.386 . S
C1241 C1244 1.388 . S
C1242 C1241 1.386 . S
C1242 C1243 1.382 1_545 S
C1242 H1268 0.950 . S
C1243 N1240 1.332 1_565 S
C1243 C1242 1.382 1_565 S
C1243 H1254 0.952 . S
C1244 C1241 1.388 . S
C1244 C1245 1.382 . S
C1244 H1269 0.950 . S
C1245 N1240 1.332 . S
C1245 C1244 1.382 . S
C1245 H1255 0.948 . S
N1246 Co1224 2.282 . S
N1246 C1250 1.332 . S
N1246 C1251 1.332 . S
C1247 C1248 1.388 . S
C1247 C1251 1.382 . S
C1247 H1270 0.950 . S
C1248 C1247 1.388 . S
C1248 C1249 1.386 . S
C1249 C1248 1.386 . S
C1249 C1250 1.382 . S
C1249 H1271 0.950 . S
C1250 N1246 1.332 . S
C1250 C1249 1.382 . S
C1250 H1252 0.952 . S
C1251 N1246 1.332 . S
C1251 C1247 1.382 . S
C1251 H1253 0.948 . S
H1252 C1250 0.952 . S
H1253 C1251 0.948 . S
H1254 C1243 0.952 . S
H1255 C1245 0.948 . S
C1256 C1222 1.395 . S
C1256 C1226 1.391 . S
C1257 C1219 1.389 . S
C1257 C1239 1.392 . S
C1258 C1229 1.392 . S
C1258 C1231 1.389 1_545 S
C1259 C1234 1.395 . S
C1259 C1236 1.391 . S
H1260 C1220 0.951 1_565 S
H1261 C1221 0.950 . S
H1262 C1227 0.949 . S
H1263 C1228 0.950 . S
H1264 C1232 0.951 . S
H1265 C1233 0.950 . S
H1266 C1237 0.949 . S
H1267 C1238 0.950 . S
H1268 C1242 0.950 . S
H1269 C1244 0.950 . S
H1270 C1247 0.950 . S
H1271 C1249 0.950 . S
C1272 C1273 1.443 . S
C1272 N1276 1.376 . S
C1272 C1310 1.389 1_655 S
C1273 C1272 1.443 . S
C1273 C1274 1.340 . S
C1273 H1313 0.951 . S
C1274 C1273 1.340 . S
C1274 C1275 1.439 . S
C1274 H1314 0.950 . S
C1275 C1274 1.439 . S
C1275 N1276 1.374 . S
C1275 C1309 1.395 . S
N1276 C1272 1.376 . S
N1276 C1275 1.374 . S
N1276 Co1277 2.008 . S
Co1277 N1276 2.008 . S
Co1277 N1278 1.995 . S
Co1277 N1283 2.008 1_655 S
Co1277 N1288 1.995 1_655 S
Co1277 N1293 2.282 . S
Co1277 N1299 2.282 1_655 S
N1278 Co1277 1.995 . S
N1278 C1279 1.376 . S
N1278 C1282 1.383 . S
C1279 N1278 1.376 . S
C1279 C1280 1.446 . S
C1279 C1309 1.391 . S
C1280 C1279 1.446 . S
C1280 C1281 1.339 . S
C1280 H1315 0.949 . S
C1281 C1280 1.339 . S
C1281 C1282 1.439 . S
C1281 H1316 0.950 . S
C1282 N1278 1.383 . S
C1282 C1281 1.439 . S
C1282 C1311 1.392 . S
N1283 Co1277 2.008 1_455 S
N1283 C1284 1.376 . S
N1283 C1287 1.374 . S
C1284 N1283 1.376 . S
C1284 C1285 1.443 . S
C1284 C1311 1.389 1_455 S
C1285 C1284 1.443 . S
C1285 C1286 1.340 . S
C1285 H1317 0.951 . S
C1286 C1285 1.340 . S
C1286 C1287 1.439 . S
C1286 H1318 0.950 . S
C1287 N1283 1.374 . S
C1287 C1286 1.439 . S
C1287 C1312 1.395 . S
N1288 Co1277 1.995 1_455 S
N1288 C1289 1.376 . S
N1288 C1292 1.383 . S
C1289 N1288 1.376 . S
C1289 C1290 1.446 . S
C1289 C1312 1.391 . S
C1290 C1289 1.446 . S
C1290 C1291 1.339 . S
C1290 H1319 0.949 . S
C1291 C1290 1.339 . S
C1291 C1292 1.439 . S
C1291 H1320 0.950 . S
C1292 N1288 1.383 . S
C1292 C1291 1.439 . S
C1292 C1310 1.392 . S
N1293 Co1277 2.282 . S
N1293 C1296 1.332 . S
N1293 C1298 1.332 . S
C1294 C1295 1.386 . S
C1294 C1297 1.388 . S
C1295 C1294 1.386 . S
C1295 C1296 1.382 . S
C1295 H1321 0.950 . S
C1296 N1293 1.332 . S
C1296 C1295 1.382 . S
C1296 H1307 0.952 . S
C1297 C1294 1.388 . S
C1297 C1298 1.382 . S
C1297 H1322 0.950 . S
C1298 N1293 1.332 . S
C1298 C1297 1.382 . S
C1298 H1308 0.948 . S
N1299 Co1277 2.282 1_455 S
N1299 C1303 1.332 . S
N1299 C1304 1.332 . S
C1300 C1301 1.388 . S
C1300 C1304 1.382 . S
C1300 H1323 0.950 . S
C1301 C1300 1.388 . S
C1301 C1302 1.386 . S
C1302 C1301 1.386 . S
C1302 C1303 1.382 . S
C1302 H1324 0.950 . S
C1303 N1299 1.332 . S
C1303 C1302 1.382 . S
C1303 H1305 0.952 . S
C1304 N1299 1.332 . S
C1304 C1300 1.382 . S
C1304 H1306 0.948 . S
H1305 C1303 0.952 . S
H1306 C1304 0.948 . S
H1307 C1296 0.952 . S
H1308 C1298 0.948 . S
C1309 C1275 1.395 . S
C1309 C1279 1.391 . S
C1310 C1272 1.389 1_455 S
C1310 C1292 1.392 . S
C1311 C1282 1.392 . S
C1311 C1284 1.389 1_655 S
C1312 C1287 1.395 . S
C1312 C1289 1.391 . S
H1313 C1273 0.951 . S
H1314 C1274 0.950 . S
H1315 C1280 0.949 . S
H1316 C1281 0.950 . S
H1317 C1285 0.951 . S
H1318 C1286 0.950 . S
H1319 C1290 0.949 . S
H1320 C1291 0.950 . S
H1321 C1295 0.950 . S
H1322 C1297 0.950 . S
H1323 C1300 0.950 . S
H1324 C1302 0.950 . S
C1325 C1326 1.443 . S
C1325 N1329 1.376 . S
C1325 C1363 1.389 . S
C1326 C1325 1.443 . S
C1326 C1327 1.340 . S
C1326 H1366 0.951 . S
C1327 C1326 1.340 . S
C1327 C1328 1.439 . S
C1327 H1367 0.950 . S
C1328 C1327 1.439 . S
C1328 N1329 1.374 . S
C1328 C1362 1.395 . S
N1329 C1325 1.376 . S
N1329 C1328 1.374 . S
N1329 Co1330 2.008 . S
Co1330 N1329 2.008 . S
Co1330 N1331 1.995 . S
Co1330 N1336 2.008 . S
Co1330 N1341 1.995 . S
Co1330 N1346 2.282 . S
Co1330 N1352 2.282 . S
N1331 Co1330 1.995 . S
N1331 C1332 1.376 . S
N1331 C1335 1.383 . S
C1332 N1331 1.376 . S
C1332 C1333 1.446 . S
C1332 C1362 1.391 . S
C1333 C1332 1.446 . S
C1333 C1334 1.339 . S
C1333 H1368 0.949 . S
C1334 C1333 1.339 . S
C1334 C1335 1.439 . S
C1334 H1369 0.950 . S
C1335 N1331 1.383 . S
C1335 C1334 1.439 . S
C1335 C1364 1.392 . S
N1336 Co1330 2.008 . S
N1336 C1337 1.376 . S
N1336 C1340 1.374 . S
C1337 N1336 1.376 . S
C1337 C1338 1.443 . S
C1337 C1364 1.389 . S
C1338 C1337 1.443 . S
C1338 C1339 1.340 . S
C1338 H1370 0.951 . S
C1339 C1338 1.340 . S
C1339 C1340 1.439 . S
C1339 H1371 0.950 . S
C1340 N1336 1.374 . S
C1340 C1339 1.439 . S
C1340 C1365 1.395 . S
N1341 Co1330 1.995 . S
N1341 C1342 1.376 . S
N1341 C1345 1.383 . S
C1342 N1341 1.376 . S
C1342 C1343 1.446 . S
C1342 C1365 1.391 . S
C1343 C1342 1.446 . S
C1343 C1344 1.339 . S
C1343 H1372 0.949 . S
C1344 C1343 1.339 . S
C1344 C1345 1.439 . S
C1344 H1373 0.950 . S
C1345 N1341 1.383 . S
C1345 C1344 1.439 . S
C1345 C1363 1.392 . S
N1346 Co1330 2.282 . S
N1346 C1349 1.332 . S
N1346 C1351 1.332 . S
C1347 C1348 1.386 . S
C1347 C1350 1.388 . S
C1348 C1347 1.386 . S
C1348 C1349 1.382 . S
C1348 H1374 0.950 . S
C1349 N1346 1.332 . S
C1349 C1348 1.382 . S
C1349 H1360 0.952 . S
C1350 C1347 1.388 . S
C1350 C1351 1.382 . S
C1350 H1375 0.950 . S
C1351 N1346 1.332 . S
C1351 C1350 1.382 . S
C1351 H1361 0.948 . S
N1352 Co1330 2.282 . S
N1352 C1356 1.332 . S
N1352 C1357 1.332 . S
C1353 C1354 1.388 . S
C1353 C1357 1.382 . S
C1353 H1376 0.950 . S
C1354 C1353 1.388 . S
C1354 C1355 1.386 . S
C1355 C1354 1.386 . S
C1355 C1356 1.382 . S
C1355 H1377 0.950 . S
C1356 N1352 1.332 . S
C1356 C1355 1.382 . S
C1356 H1358 0.952 . S
C1357 N1352 1.332 . S
C1357 C1353 1.382 . S
C1357 H1359 0.948 . S
H1358 C1356 0.952 . S
H1359 C1357 0.948 . S
H1360 C1349 0.952 . S
H1361 C1351 0.948 . S
C1362 C1328 1.395 . S
C1362 C1332 1.391 . S
C1363 C1325 1.389 . S
C1363 C1345 1.392 . S
C1364 C1335 1.392 . S
C1364 C1337 1.389 . S
C1365 C1340 1.395 . S
C1365 C1342 1.391 . S
H1366 C1326 0.951 . S
H1367 C1327 0.950 . S
H1368 C1333 0.949 . S
H1369 C1334 0.950 . S
H1370 C1338 0.951 . S
H1371 C1339 0.950 . S
H1372 C1343 0.949 . S
H1373 C1344 0.950 . S
H1374 C1348 0.950 . S
H1375 C1350 0.950 . S
H1376 C1353 0.950 . S
H1377 C1355 0.950 . S
C1378 C1379 1.443 . S
C1378 N1382 1.376 . S
C1378 C1416 1.389 1_655 S
C1379 C1378 1.443 . S
C1379 C1380 1.340 . S
C1379 H1419 0.951 . S
C1380 C1379 1.340 . S
C1380 C1381 1.439 . S
C1380 H1420 0.950 . S
C1381 C1380 1.439 . S
C1381 N1382 1.374 . S
C1381 C1415 1.395 . S
N1382 C1378 1.376 . S
N1382 C1381 1.374 . S
N1382 Co1383 2.008 . S
Co1383 N1382 2.008 . S
Co1383 N1384 1.995 . S
Co1383 N1389 2.008 1_655 S
Co1383 N1394 1.995 1_655 S
Co1383 N1399 2.282 . S
Co1383 N1405 2.282 1_655 S
N1384 Co1383 1.995 . S
N1384 C1385 1.376 . S
N1384 C1388 1.383 . S
C1385 N1384 1.376 . S
C1385 C1386 1.446 . S
C1385 C1415 1.391 . S
C1386 C1385 1.446 . S
C1386 C1387 1.339 . S
C1386 H1421 0.949 . S
C1387 C1386 1.339 . S
C1387 C1388 1.439 . S
C1387 H1422 0.950 . S
C1388 N1384 1.383 . S
C1388 C1387 1.439 . S
C1388 C1417 1.392 . S
N1389 Co1383 2.008 1_455 S
N1389 C1390 1.376 . S
N1389 C1393 1.374 . S
C1390 N1389 1.376 . S
C1390 C1391 1.443 . S
C1390 C1417 1.389 1_455 S
C1391 C1390 1.443 . S
C1391 C1392 1.340 . S
C1391 H1423 0.951 . S
C1392 C1391 1.340 . S
C1392 C1393 1.439 . S
C1392 H1424 0.950 . S
C1393 N1389 1.374 . S
C1393 C1392 1.439 . S
C1393 C1418 1.395 . S
N1394 Co1383 1.995 1_455 S
N1394 C1395 1.376 . S
N1394 C1398 1.383 . S
C1395 N1394 1.376 . S
C1395 C1396 1.446 . S
C1395 C1418 1.391 . S
C1396 C1395 1.446 . S
C1396 C1397 1.339 . S
C1396 H1425 0.949 . S
C1397 C1396 1.339 . S
C1397 C1398 1.439 . S
C1397 H1426 0.950 . S
C1398 N1394 1.383 . S
C1398 C1397 1.439 . S
C1398 C1416 1.392 . S
N1399 Co1383 2.282 . S
N1399 C1402 1.332 . S
N1399 C1404 1.332 . S
C1400 C1401 1.386 . S
C1400 C1403 1.388 . S
C1401 C1400 1.386 . S
C1401 C1402 1.382 . S
C1401 H1427 0.950 . S
C1402 N1399 1.332 . S
C1402 C1401 1.382 . S
C1402 H1413 0.952 . S
C1403 C1400 1.388 . S
C1403 C1404 1.382 . S
C1403 H1428 0.950 . S
C1404 N1399 1.332 . S
C1404 C1403 1.382 . S
C1404 H1414 0.948 . S
N1405 Co1383 2.282 1_455 S
N1405 C1409 1.332 . S
N1405 C1410 1.332 . S
C1406 C1407 1.388 . S
C1406 C1410 1.382 . S
C1406 H1429 0.950 . S
C1407 C1406 1.388 . S
C1407 C1408 1.386 . S
C1408 C1407 1.386 . S
C1408 C1409 1.382 . S
C1408 H1430 0.950 . S
C1409 N1405 1.332 . S
C1409 C1408 1.382 . S
C1409 H1411 0.952 . S
C1410 N1405 1.332 . S
C1410 C1406 1.382 . S
C1410 H1412 0.948 . S
H1411 C1409 0.952 . S
H1412 C1410 0.948 . S
H1413 C1402 0.952 . S
H1414 C1404 0.948 . S
C1415 C1381 1.395 . S
C1415 C1385 1.391 . S
C1416 C1378 1.389 1_455 S
C1416 C1398 1.392 . S
C1417 C1388 1.392 . S
C1417 C1390 1.389 1_655 S
C1418 C1393 1.395 . S
C1418 C1395 1.391 . S
H1419 C1379 0.951 . S
H1420 C1380 0.950 . S
H1421 C1386 0.949 . S
H1422 C1387 0.950 . S
H1423 C1391 0.951 . S
H1424 C1392 0.950 . S
H1425 C1396 0.949 . S
H1426 C1397 0.950 . S
H1427 C1401 0.950 . S
H1428 C1403 0.950 . S
H1429 C1406 0.950 . S
H1430 C1408 0.950 . S
C1431 C1432 1.443 . S
C1431 N1435 1.376 . S
C1431 C1469 1.389 . S
C1432 C1431 1.443 . S
C1432 C1433 1.340 . S
C1432 H1472 0.951 . S
C1433 C1432 1.340 . S
C1433 C1434 1.439 . S
C1433 H1473 0.950 . S
C1434 C1433 1.439 . S
C1434 N1435 1.374 . S
C1434 C1468 1.395 . S
N1435 C1431 1.376 . S
N1435 C1434 1.374 . S
N1435 Co1436 2.008 . S
Co1436 N1435 2.008 . S
Co1436 N1437 1.995 . S
Co1436 N1442 2.008 . S
Co1436 N1447 1.995 . S
Co1436 N1452 2.282 . S
Co1436 N1458 2.282 . S
N1437 Co1436 1.995 . S
N1437 C1438 1.376 . S
N1437 C1441 1.383 . S
C1438 N1437 1.376 . S
C1438 C1439 1.446 . S
C1438 C1468 1.391 . S
C1439 C1438 1.446 . S
C1439 C1440 1.339 . S
C1439 H1474 0.949 . S
C1440 C1439 1.339 . S
C1440 C1441 1.439 . S
C1440 H1475 0.950 . S
C1441 N1437 1.383 . S
C1441 C1440 1.439 . S
C1441 C1470 1.392 . S
N1442 Co1436 2.008 . S
N1442 C1443 1.376 . S
N1442 C1446 1.374 . S
C1443 N1442 1.376 . S
C1443 C1444 1.443 . S
C1443 C1470 1.389 . S
C1444 C1443 1.443 . S
C1444 C1445 1.340 . S
C1444 H1476 0.951 . S
C1445 C1444 1.340 . S
C1445 C1446 1.439 . S
C1445 H1477 0.950 . S
C1446 N1442 1.374 . S
C1446 C1445 1.439 . S
C1446 C1471 1.395 . S
N1447 Co1436 1.995 . S
N1447 C1448 1.376 . S
N1447 C1451 1.383 . S
C1448 N1447 1.376 . S
C1448 C1449 1.446 . S
C1448 C1471 1.391 . S
C1449 C1448 1.446 . S
C1449 C1450 1.339 . S
C1449 H1478 0.949 . S
C1450 C1449 1.339 . S
C1450 C1451 1.439 . S
C1450 H1479 0.950 . S
C1451 N1447 1.383 . S
C1451 C1450 1.439 . S
C1451 C1469 1.392 . S
N1452 Co1436 2.282 . S
N1452 C1455 1.332 . S
N1452 C1457 1.332 . S
C1453 C1454 1.386 . S
C1453 C1456 1.388 . S
C1454 C1453 1.386 . S
C1454 C1455 1.382 . S
C1454 H1480 0.950 . S
C1455 N1452 1.332 . S
C1455 C1454 1.382 . S
C1455 H1466 0.952 . S
C1456 C1453 1.388 . S
C1456 C1457 1.382 . S
C1456 H1481 0.950 . S
C1457 N1452 1.332 . S
C1457 C1456 1.382 . S
C1457 H1467 0.948 . S
N1458 Co1436 2.282 . S
N1458 C1462 1.332 . S
N1458 C1463 1.332 . S
C1459 C1460 1.388 . S
C1459 C1463 1.382 . S
C1459 H1482 0.950 . S
C1460 C1459 1.388 . S
C1460 C1461 1.386 . S
C1461 C1460 1.386 . S
C1461 C1462 1.382 . S
C1461 H1483 0.950 . S
C1462 N1458 1.332 . S
C1462 C1461 1.382 . S
C1462 H1464 0.952 . S
C1463 N1458 1.332 . S
C1463 C1459 1.382 . S
C1463 H1465 0.948 . S
H1464 C1462 0.952 . S
H1465 C1463 0.948 . S
H1466 C1455 0.952 . S
H1467 C1457 0.948 . S
C1468 C1434 1.395 . S
C1468 C1438 1.391 . S
C1469 C1431 1.389 . S
C1469 C1451 1.392 . S
C1470 C1441 1.392 . S
C1470 C1443 1.389 . S
C1471 C1446 1.395 . S
C1471 C1448 1.391 . S
H1472 C1432 0.951 . S
H1473 C1433 0.950 . S
H1474 C1439 0.949 . S
H1475 C1440 0.950 . S
H1476 C1444 0.951 . S
H1477 C1445 0.950 . S
H1478 C1449 0.949 . S
H1479 C1450 0.950 . S
H1480 C1454 0.950 . S
H1481 C1456 0.950 . S
H1482 C1459 0.950 . S
H1483 C1461 0.950 . S
C1484 C1485 1.443 . S
C1484 N1488 1.376 . S
C1484 C1522 1.389 . S
C1485 C1484 1.443 . S
C1485 C1486 1.340 . S
C1485 H1525 0.951 . S
C1486 C1485 1.340 . S
C1486 C1487 1.439 . S
C1486 H1526 0.950 . S
C1487 C1486 1.439 . S
C1487 N1488 1.374 . S
C1487 C1521 1.395 . S
N1488 C1484 1.376 . S
N1488 C1487 1.374 . S
N1488 Co1489 2.008 1_655 S
Co1489 N1488 2.008 1_455 S
Co1489 N1490 1.995 1_455 S
Co1489 N1495 2.008 . S
Co1489 N1500 1.995 . S
Co1489 N1505 2.282 . S
Co1489 N1511 2.282 1_455 S
N1490 Co1489 1.995 1_655 S
N1490 C1491 1.376 . S
N1490 C1494 1.383 . S
C1491 N1490 1.376 . S
C1491 C1492 1.446 . S
C1491 C1521 1.391 . S
C1492 C1491 1.446 . S
C1492 C1493 1.339 . S
C1492 H1527 0.949 . S
C1493 C1492 1.339 . S
C1493 C1494 1.439 . S
C1493 H1528 0.950 . S
C1494 N1490 1.383 . S
C1494 C1493 1.439 . S
C1494 C1523 1.392 1_655 S
N1495 Co1489 2.008 . S
N1495 C1496 1.376 . S
N1495 C1499 1.374 . S
C1496 N1495 1.376 . S
C1496 C1497 1.443 . S
C1496 C1523 1.389 . S
C1497 C1496 1.443 . S
C1497 C1498 1.340 . S
C1497 H1529 0.951 . S
C1498 C1497 1.340 . S
C1498 C1499 1.439 . S
C1498 H1530 0.950 . S
C1499 N1495 1.374 . S
C1499 C1498 1.439 . S
C1499 C1524 1.395 . S
N1500 Co1489 1.995 . S
N1500 C1501 1.376 . S
N1500 C1504 1.383 . S
C1501 N1500 1.376 . S
C1501 C1502 1.446 . S
C1501 C1524 1.391 . S
C1502 C1501 1.446 . S
C1502 C1503 1.339 . S
C1502 H1531 0.949 . S
C1503 C1502 1.339 . S
C1503 C1504 1.439 . S
C1503 H1532 0.950 . S
C1504 N1500 1.383 . S
C1504 C1503 1.439 . S
C1504 C1522 1.392 1_455 S
N1505 Co1489 2.282 . S
N1505 C1508 1.332 . S
N1505 C1510 1.332 . S
C1506 C1507 1.386 . S
C1506 C1509 1.388 . S
C1507 C1506 1.386 . S
C1507 C1508 1.382 . S
C1507 H1533 0.950 . S
C1508 N1505 1.332 . S
C1508 C1507 1.382 . S
C1508 H1519 0.952 . S
C1509 C1506 1.388 . S
C1509 C1510 1.382 . S
C1509 H1534 0.950 . S
C1510 N1505 1.332 . S
C1510 C1509 1.382 . S
C1510 H1520 0.948 . S
N1511 Co1489 2.282 1_655 S
N1511 C1515 1.332 . S
N1511 C1516 1.332 . S
C1512 C1513 1.388 . S
C1512 C1516 1.382 . S
C1512 H1535 0.950 . S
C1513 C1512 1.388 . S
C1513 C1514 1.386 . S
C1514 C1513 1.386 . S
C1514 C1515 1.382 . S
C1514 H1536 0.950 . S
C1515 N1511 1.332 . S
C1515 C1514 1.382 . S
C1515 H1517 0.952 . S
C1516 N1511 1.332 . S
C1516 C1512 1.382 . S
C1516 H1518 0.948 . S
H1517 C1515 0.952 . S
H1518 C1516 0.948 . S
H1519 C1508 0.952 . S
H1520 C1510 0.948 . S
C1521 C1487 1.395 . S
C1521 C1491 1.391 . S
C1522 C1484 1.389 . S
C1522 C1504 1.392 1_655 S
C1523 C1494 1.392 1_455 S
C1523 C1496 1.389 . S
C1524 C1499 1.395 . S
C1524 C1501 1.391 . S
H1525 C1485 0.951 . S
H1526 C1486 0.950 . S
H1527 C1492 0.949 . S
H1528 C1493 0.950 . S
H1529 C1497 0.951 . S
H1530 C1498 0.950 . S
H1531 C1502 0.949 . S
H1532 C1503 0.950 . S
H1533 C1507 0.950 . S
H1534 C1509 0.950 . S
H1535 C1512 0.950 . S
H1536 C1514 0.950 . S
C1537 C1538 1.443 . S
C1537 N1541 1.376 . S
C1537 C1575 1.389 . S
C1538 C1537 1.443 . S
C1538 C1539 1.340 . S
C1538 H1578 0.951 . S
C1539 C1538 1.340 . S
C1539 C1540 1.439 . S
C1539 H1579 0.950 . S
C1540 C1539 1.439 . S
C1540 N1541 1.374 . S
C1540 C1574 1.395 . S
N1541 C1537 1.376 . S
N1541 C1540 1.374 . S
N1541 Co1542 2.008 . S
Co1542 N1541 2.008 . S
Co1542 N1543 1.995 . S
Co1542 N1548 2.008 . S
Co1542 N1553 1.995 . S
Co1542 N1558 2.282 . S
Co1542 N1564 2.282 . S
N1543 Co1542 1.995 . S
N1543 C1544 1.376 . S
N1543 C1547 1.383 . S
C1544 N1543 1.376 . S
C1544 C1545 1.446 . S
C1544 C1574 1.391 . S
C1545 C1544 1.446 . S
C1545 C1546 1.339 . S
C1545 H1580 0.949 . S
C1546 C1545 1.339 . S
C1546 C1547 1.439 . S
C1546 H1581 0.950 . S
C1547 N1543 1.383 . S
C1547 C1546 1.439 . S
C1547 C1576 1.392 . S
N1548 Co1542 2.008 . S
N1548 C1549 1.376 . S
N1548 C1552 1.374 . S
C1549 N1548 1.376 . S
C1549 C1550 1.443 . S
C1549 C1576 1.389 . S
C1550 C1549 1.443 . S
C1550 C1551 1.340 . S
C1550 H1582 0.951 . S
C1551 C1550 1.340 . S
C1551 C1552 1.439 . S
C1551 H1583 0.950 . S
C1552 N1548 1.374 . S
C1552 C1551 1.439 . S
C1552 C1577 1.395 . S
N1553 Co1542 1.995 . S
N1553 C1554 1.376 . S
N1553 C1557 1.383 . S
C1554 N1553 1.376 . S
C1554 C1555 1.446 . S
C1554 C1577 1.391 . S
C1555 C1554 1.446 . S
C1555 C1556 1.339 . S
C1555 H1584 0.949 . S
C1556 C1555 1.339 . S
C1556 C1557 1.439 . S
C1556 H1585 0.950 . S
C1557 N1553 1.383 . S
C1557 C1556 1.439 . S
C1557 C1575 1.392 . S
N1558 Co1542 2.282 . S
N1558 C1561 1.332 . S
N1558 C1563 1.332 . S
C1559 C1560 1.386 . S
C1559 C1562 1.388 . S
C1560 C1559 1.386 . S
C1560 C1561 1.382 . S
C1560 H1586 0.950 . S
C1561 N1558 1.332 . S
C1561 C1560 1.382 . S
C1561 H1572 0.952 . S
C1562 C1559 1.388 . S
C1562 C1563 1.382 . S
C1562 H1587 0.950 . S
C1563 N1558 1.332 . S
C1563 C1562 1.382 . S
C1563 H1573 0.948 . S
N1564 Co1542 2.282 . S
N1564 C1568 1.332 . S
N1564 C1569 1.332 . S
C1565 C1566 1.388 . S
C1565 C1569 1.382 . S
C1565 H1588 0.950 . S
C1566 C1565 1.388 . S
C1566 C1567 1.386 . S
C1567 C1566 1.386 . S
C1567 C1568 1.382 . S
C1567 H1589 0.950 . S
C1568 N1564 1.332 . S
C1568 C1567 1.382 . S
C1568 H1570 0.952 . S
C1569 N1564 1.332 . S
C1569 C1565 1.382 . S
C1569 H1571 0.948 . S
H1570 C1568 0.952 . S
H1571 C1569 0.948 . S
H1572 C1561 0.952 . S
H1573 C1563 0.948 . S
C1574 C1540 1.395 . S
C1574 C1544 1.391 . S
C1575 C1537 1.389 . S
C1575 C1557 1.392 . S
C1576 C1547 1.392 . S
C1576 C1549 1.389 . S
C1577 C1552 1.395 . S
C1577 C1554 1.391 . S
H1578 C1538 0.951 . S
H1579 C1539 0.950 . S
H1580 C1545 0.949 . S
H1581 C1546 0.950 . S
H1582 C1550 0.951 . S
H1583 C1551 0.950 . S
H1584 C1555 0.949 . S
H1585 C1556 0.950 . S
H1586 C1560 0.950 . S
H1587 C1562 0.950 . S
H1588 C1565 0.950 . S
H1589 C1567 0.950 . S
C1590 C1591 1.443 . S
C1590 N1594 1.376 . S
C1590 C1628 1.389 . S
C1591 C1590 1.443 . S
C1591 C1592 1.340 . S
C1591 H1631 0.951 . S
C1592 C1591 1.340 . S
C1592 C1593 1.439 . S
C1592 H1632 0.950 . S
C1593 C1592 1.439 . S
C1593 N1594 1.374 . S
C1593 C1627 1.395 . S
N1594 C1590 1.376 . S
N1594 C1593 1.374 . S
N1594 Co1595 2.008 1_655 S
Co1595 N1594 2.008 1_455 S
Co1595 N1596 1.995 1_455 S
Co1595 N1601 2.008 . S
Co1595 N1606 1.995 . S
Co1595 N1611 2.282 . S
Co1595 N1617 2.282 1_455 S
N1596 Co1595 1.995 1_655 S
N1596 C1597 1.376 . S
N1596 C1600 1.383 . S
C1597 N1596 1.376 . S
C1597 C1598 1.446 . S
C1597 C1627 1.391 . S
C1598 C1597 1.446 . S
C1598 C1599 1.339 . S
C1598 H1633 0.949 . S
C1599 C1598 1.339 . S
C1599 C1600 1.439 . S
C1599 H1634 0.950 . S
C1600 N1596 1.383 . S
C1600 C1599 1.439 . S
C1600 C1629 1.392 1_655 S
N1601 Co1595 2.008 . S
N1601 C1602 1.376 . S
N1601 C1605 1.374 . S
C1602 N1601 1.376 . S
C1602 C1603 1.443 . S
C1602 C1629 1.389 . S
C1603 C1602 1.443 . S
C1603 C1604 1.340 . S
C1603 H1635 0.951 . S
C1604 C1603 1.340 . S
C1604 C1605 1.439 . S
C1604 H1636 0.950 . S
C1605 N1601 1.374 . S
C1605 C1604 1.439 . S
C1605 C1630 1.395 . S
N1606 Co1595 1.995 . S
N1606 C1607 1.376 . S
N1606 C1610 1.383 . S
C1607 N1606 1.376 . S
C1607 C1608 1.446 . S
C1607 C1630 1.391 . S
C1608 C1607 1.446 . S
C1608 C1609 1.339 . S
C1608 H1637 0.949 . S
C1609 C1608 1.339 . S
C1609 C1610 1.439 . S
C1609 H1638 0.950 . S
C1610 N1606 1.383 . S
C1610 C1609 1.439 . S
C1610 C1628 1.392 1_455 S
N1611 Co1595 2.282 . S
N1611 C1614 1.332 . S
N1611 C1616 1.332 . S
C1612 C1613 1.386 . S
C1612 C1615 1.388 . S
C1613 C1612 1.386 . S
C1613 C1614 1.382 . S
C1613 H1639 0.950 . S
C1614 N1611 1.332 . S
C1614 C1613 1.382 . S
C1614 H1625 0.952 . S
C1615 C1612 1.388 . S
C1615 C1616 1.382 . S
C1615 H1640 0.950 . S
C1616 N1611 1.332 . S
C1616 C1615 1.382 . S
C1616 H1626 0.948 . S
N1617 Co1595 2.282 1_655 S
N1617 C1621 1.332 . S
N1617 C1622 1.332 . S
C1618 C1619 1.388 . S
C1618 C1622 1.382 . S
C1618 H1641 0.950 . S
C1619 C1618 1.388 . S
C1619 C1620 1.386 . S
C1620 C1619 1.386 . S
C1620 C1621 1.382 . S
C1620 H1642 0.950 . S
C1621 N1617 1.332 . S
C1621 C1620 1.382 . S
C1621 H1623 0.952 . S
C1622 N1617 1.332 . S
C1622 C1618 1.382 . S
C1622 H1624 0.948 . S
H1623 C1621 0.952 . S
H1624 C1622 0.948 . S
H1625 C1614 0.952 . S
H1626 C1616 0.948 . S
C1627 C1593 1.395 . S
C1627 C1597 1.391 . S
C1628 C1590 1.389 . S
C1628 C1610 1.392 1_655 S
C1629 C1600 1.392 1_455 S
C1629 C1602 1.389 . S
C1630 C1605 1.395 . S
C1630 C1607 1.391 . S
H1631 C1591 0.951 . S
H1632 C1592 0.950 . S
H1633 C1598 0.949 . S
H1634 C1599 0.950 . S
H1635 C1603 0.951 . S
H1636 C1604 0.950 . S
H1637 C1608 0.949 . S
H1638 C1609 0.950 . S
H1639 C1613 0.950 . S
H1640 C1615 0.950 . S
H1641 C1618 0.950 . S
H1642 C1620 0.950 . S
C1643 C1644 1.443 . S
C1643 N1647 1.376 . S
C1643 C1681 1.389 . S
C1644 C1643 1.443 . S
C1644 C1645 1.340 . S
C1644 H1684 0.951 . S
C1645 C1644 1.340 . S
C1645 C1646 1.439 . S
C1645 H1685 0.950 . S
C1646 C1645 1.439 . S
C1646 N1647 1.374 . S
C1646 C1680 1.395 . S
N1647 C1643 1.376 . S
N1647 C1646 1.374 . S
N1647 Co1648 2.008 . S
Co1648 N1647 2.008 . S
Co1648 N1649 1.995 . S
Co1648 N1654 2.008 . S
Co1648 N1659 1.995 . S
Co1648 N1664 2.282 . S
Co1648 N1670 2.282 . S
N1649 Co1648 1.995 . S
N1649 C1650 1.376 . S
N1649 C1653 1.383 . S
C1650 N1649 1.376 . S
C1650 C1651 1.446 . S
C1650 C1680 1.391 . S
C1651 C1650 1.446 . S
C1651 C1652 1.339 . S
C1651 H1686 0.949 . S
C1652 C1651 1.339 . S
C1652 C1653 1.439 . S
C1652 H1687 0.950 . S
C1653 N1649 1.383 . S
C1653 C1652 1.439 . S
C1653 C1682 1.392 . S
N1654 Co1648 2.008 . S
N1654 C1655 1.376 . S
N1654 C1658 1.374 . S
C1655 N1654 1.376 . S
C1655 C1656 1.443 . S
C1655 C1682 1.389 . S
C1656 C1655 1.443 . S
C1656 C1657 1.340 . S
C1656 H1688 0.951 . S
C1657 C1656 1.340 . S
C1657 C1658 1.439 . S
C1657 H1689 0.950 . S
C1658 N1654 1.374 . S
C1658 C1657 1.439 . S
C1658 C1683 1.395 . S
N1659 Co1648 1.995 . S
N1659 C1660 1.376 . S
N1659 C1663 1.383 . S
C1660 N1659 1.376 . S
C1660 C1661 1.446 . S
C1660 C1683 1.391 . S
C1661 C1660 1.446 . S
C1661 C1662 1.339 . S
C1661 H1690 0.949 . S
C1662 C1661 1.339 . S
C1662 C1663 1.439 . S
C1662 H1691 0.950 . S
C1663 N1659 1.383 . S
C1663 C1662 1.439 . S
C1663 C1681 1.392 . S
N1664 Co1648 2.282 . S
N1664 C1667 1.332 . S
N1664 C1669 1.332 . S
C1665 C1666 1.386 . S
C1665 C1668 1.388 . S
C1666 C1665 1.386 . S
C1666 C1667 1.382 . S
C1666 H1692 0.950 . S
C1667 N1664 1.332 . S
C1667 C1666 1.382 . S
C1667 H1678 0.952 . S
C1668 C1665 1.388 . S
C1668 C1669 1.382 . S
C1668 H1693 0.950 . S
C1669 N1664 1.332 . S
C1669 C1668 1.382 . S
C1669 H1679 0.948 . S
N1670 Co1648 2.282 . S
N1670 C1674 1.332 . S
N1670 C1675 1.332 . S
C1671 C1672 1.388 . S
C1671 C1675 1.382 . S
C1671 H1694 0.950 . S
C1672 C1671 1.388 . S
C1672 C1673 1.386 . S
C1673 C1672 1.386 . S
C1673 C1674 1.382 . S
C1673 H1695 0.950 . S
C1674 N1670 1.332 . S
C1674 C1673 1.382 . S
C1674 H1676 0.952 . S
C1675 N1670 1.332 . S
C1675 C1671 1.382 . S
C1675 H1677 0.948 . S
H1676 C1674 0.952 . S
H1677 C1675 0.948 . S
H1678 C1667 0.952 . S
H1679 C1669 0.948 . S
C1680 C1646 1.395 . S
C1680 C1650 1.391 . S
C1681 C1643 1.389 . S
C1681 C1663 1.392 . S
C1682 C1653 1.392 . S
C1682 C1655 1.389 . S
C1683 C1658 1.395 . S
C1683 C1660 1.391 . S
H1684 C1644 0.951 . S
H1685 C1645 0.950 . S
H1686 C1651 0.949 . S
H1687 C1652 0.950 . S
H1688 C1656 0.951 . S
H1689 C1657 0.950 . S
H1690 C1661 0.949 . S
H1691 C1662 0.950 . S
H1692 C1666 0.950 . S
H1693 C1668 0.950 . S
H1694 C1671 0.950 . S
H1695 C1673 0.950 . S
H1696 C1704 0.950 . S
H1697 C1709 0.950 . S
H1698 C1706 0.950 . S
H1699 C1708 0.950 . S
H1700 C1710 0.950 . S
H1701 C1712 0.950 . S
H1702 C1714 0.950 . S
H1703 C1715 0.950 . S
C1704 H1696 0.950 . S
C1704 C1705 1.386 . S
C1704 C1706 1.391 . S
C1705 C1704 1.386 . S
C1705 C1709 1.393 . S
C1706 H1698 0.950 . S
C1706 C1704 1.391 . S
C1706 C1707 1.400 . S
C1707 C1706 1.400 . S
C1707 C1708 1.398 . S
C1707 C1713 1.491 . S
C1708 H1699 0.950 . S
C1708 C1707 1.398 . S
C1708 C1709 1.391 . S
C1709 H1697 0.950 . S
C1709 C1705 1.393 . S
C1709 C1708 1.391 . S
C1710 H1700 0.950 . S
C1710 C1711 1.386 . S
C1710 C1712 1.391 . S
C1711 C1710 1.386 . S
C1711 C1715 1.393 . S
C1712 H1701 0.950 . S
C1712 C1710 1.391 . S
C1712 C1713 1.400 . S
C1713 C1707 1.491 . S
C1713 C1712 1.400 . S
C1713 C1714 1.398 . S
C1714 H1702 0.950 . S
C1714 C1713 1.398 . S
C1714 C1715 1.391 . S
C1715 H1703 0.950 . S
C1715 C1711 1.393 . S
C1715 C1714 1.391 . S
H1716 C1724 0.950 . S
H1717 C1729 0.950 . S
H1718 C1726 0.950 . S
H1719 C1728 0.950 . S
H1720 C1730 0.950 . S
H1721 C1732 0.950 . S
H1722 C1734 0.950 . S
H1723 C1735 0.950 . S
C1724 H1716 0.950 . S
C1724 C1725 1.386 . S
C1724 C1726 1.391 . S
C1725 C1724 1.386 . S
C1725 C1729 1.393 . S
C1726 H1718 0.950 . S
C1726 C1724 1.391 . S
C1726 C1727 1.400 . S
C1727 C1726 1.400 . S
C1727 C1728 1.398 . S
C1727 C1733 1.491 . S
C1728 H1719 0.950 . S
C1728 C1727 1.398 . S
C1728 C1729 1.391 . S
C1729 H1717 0.950 . S
C1729 C1725 1.393 . S
C1729 C1728 1.391 . S
C1730 H1720 0.950 . S
C1730 C1731 1.386 . S
C1730 C1732 1.391 . S
C1731 C1730 1.386 . S
C1731 C1735 1.393 . S
C1732 H1721 0.950 . S
C1732 C1730 1.391 . S
C1732 C1733 1.400 . S
C1733 C1727 1.491 . S
C1733 C1732 1.400 . S
C1733 C1734 1.398 . S
C1734 H1722 0.950 . S
C1734 C1733 1.398 . S
C1734 C1735 1.391 . S
C1735 H1723 0.950 . S
C1735 C1731 1.393 . S
C1735 C1734 1.391 . S
H1736 C1744 0.950 . S
H1737 C1749 0.950 . S
H1738 C1746 0.950 . S
H1739 C1748 0.950 . S
H1740 C1750 0.950 . S
H1741 C1752 0.950 . S
H1742 C1754 0.950 . S
H1743 C1755 0.950 . S
C1744 H1736 0.950 . S
C1744 C1745 1.386 . S
C1744 C1746 1.391 . S
C1745 C1744 1.386 . S
C1745 C1749 1.393 . S
C1746 H1738 0.950 . S
C1746 C1744 1.391 . S
C1746 C1747 1.400 . S
C1747 C1746 1.400 . S
C1747 C1748 1.398 . S
C1747 C1753 1.491 . S
C1748 H1739 0.950 . S
C1748 C1747 1.398 . S
C1748 C1749 1.391 . S
C1749 H1737 0.950 . S
C1749 C1745 1.393 . S
C1749 C1748 1.391 . S
C1750 H1740 0.950 . S
C1750 C1751 1.386 . S
C1750 C1752 1.391 . S
C1751 C1750 1.386 . S
C1751 C1755 1.393 . S
C1752 H1741 0.950 . S
C1752 C1750 1.391 . S
C1752 C1753 1.400 . S
C1753 C1747 1.491 . S
C1753 C1752 1.400 . S
C1753 C1754 1.398 . S
C1754 H1742 0.950 . S
C1754 C1753 1.398 . S
C1754 C1755 1.391 . S
C1755 H1743 0.950 . S
C1755 C1751 1.393 . S
C1755 C1754 1.391 . S
H1756 C1764 0.950 . S
H1757 C1769 0.950 . S
H1758 C1766 0.950 . S
H1759 C1768 0.950 . S
H1760 C1770 0.950 . S
H1761 C1772 0.950 . S
H1762 C1774 0.950 . S
H1763 C1775 0.950 . S
C1764 H1756 0.950 . S
C1764 C1765 1.386 . S
C1764 C1766 1.391 . S
C1765 C1764 1.386 . S
C1765 C1769 1.393 . S
C1766 H1758 0.950 . S
C1766 C1764 1.391 . S
C1766 C1767 1.400 . S
C1767 C1766 1.400 . S
C1767 C1768 1.398 . S
C1767 C1773 1.491 . S
C1768 H1759 0.950 . S
C1768 C1767 1.398 . S
C1768 C1769 1.391 . S
C1769 H1757 0.950 . S
C1769 C1765 1.393 . S
C1769 C1768 1.391 . S
C1770 H1760 0.950 . S
C1770 C1771 1.386 . S
C1770 C1772 1.391 . S
C1771 C1770 1.386 . S
C1771 C1775 1.393 . S
C1772 H1761 0.950 . S
C1772 C1770 1.391 . S
C1772 C1773 1.400 . S
C1773 C1767 1.491 . S
C1773 C1772 1.400 . S
C1773 C1774 1.398 . S
C1774 H1762 0.950 . S
C1774 C1773 1.398 . S
C1774 C1775 1.391 . S
C1775 H1763 0.950 . S
C1775 C1771 1.393 . S
C1775 C1774 1.391 . S
H1776 C1784 0.950 . S
H1777 C1789 0.950 . S
H1778 C1786 0.950 . S
H1779 C1788 0.950 . S
H1780 C1790 0.950 . S
H1781 C1792 0.950 . S
H1782 C1794 0.950 . S
H1783 C1795 0.950 . S
C1784 H1776 0.950 . S
C1784 C1785 1.386 . S
C1784 C1786 1.391 . S
C1785 C1784 1.386 . S
C1785 C1789 1.393 . S
C1786 H1778 0.950 . S
C1786 C1784 1.391 . S
C1786 C1787 1.400 . S
C1787 C1786 1.400 . S
C1787 C1788 1.398 . S
C1787 C1793 1.491 . S
C1788 H1779 0.950 . S
C1788 C1787 1.398 . S
C1788 C1789 1.391 . S
C1789 H1777 0.950 . S
C1789 C1785 1.393 . S
C1789 C1788 1.391 . S
C1790 H1780 0.950 . S
C1790 C1791 1.386 . S
C1790 C1792 1.391 . S
C1791 C1790 1.386 . S
C1791 C1795 1.393 . S
C1792 H1781 0.950 . S
C1792 C1790 1.391 . S
C1792 C1793 1.400 . S
C1793 C1787 1.491 . S
C1793 C1792 1.400 . S
C1793 C1794 1.398 . S
C1794 H1782 0.950 . S
C1794 C1793 1.398 . S
C1794 C1795 1.391 . S
C1795 H1783 0.950 . S
C1795 C1791 1.393 . S
C1795 C1794 1.391 . S
H1796 C1804 0.950 . S
H1797 C1809 0.950 . S
H1798 C1806 0.950 . S
H1799 C1808 0.950 . S
H1800 C1810 0.950 . S
H1801 C1812 0.950 . S
H1802 C1814 0.950 . S
H1803 C1815 0.950 . S
C1804 H1796 0.950 . S
C1804 C1805 1.386 . S
C1804 C1806 1.391 . S
C1805 C1804 1.386 . S
C1805 C1809 1.393 . S
C1806 H1798 0.950 . S
C1806 C1804 1.391 . S
C1806 C1807 1.400 . S
C1807 C1806 1.400 . S
C1807 C1808 1.398 . S
C1807 C1813 1.491 . S
C1808 H1799 0.950 . S
C1808 C1807 1.398 . S
C1808 C1809 1.391 . S
C1809 H1797 0.950 . S
C1809 C1805 1.393 . S
C1809 C1808 1.391 . S
C1810 H1800 0.950 . S
C1810 C1811 1.386 . S
C1810 C1812 1.391 . S
C1811 C1810 1.386 . S
C1811 C1815 1.393 . S
C1812 H1801 0.950 . S
C1812 C1810 1.391 . S
C1812 C1813 1.400 . S
C1813 C1807 1.491 . S
C1813 C1812 1.400 . S
C1813 C1814 1.398 . S
C1814 H1802 0.950 . S
C1814 C1813 1.398 . S
C1814 C1815 1.391 . S
C1815 H1803 0.950 . S
C1815 C1811 1.393 . S
C1815 C1814 1.391 . S
H1816 C1824 0.950 . S
H1817 C1829 0.950 . S
H1818 C1826 0.950 . S
H1819 C1828 0.950 . S
H1820 C1830 0.950 . S
H1821 C1832 0.950 . S
H1822 C1834 0.950 . S
H1823 C1835 0.950 . S
C1824 H1816 0.950 . S
C1824 C1825 1.386 . S
C1824 C1826 1.391 . S
C1825 C1824 1.386 . S
C1825 C1829 1.393 . S
C1826 H1818 0.950 . S
C1826 C1824 1.391 . S
C1826 C1827 1.400 . S
C1827 C1826 1.400 . S
C1827 C1828 1.398 . S
C1827 C1833 1.491 . S
C1828 H1819 0.950 . S
C1828 C1827 1.398 . S
C1828 C1829 1.391 . S
C1829 H1817 0.950 . S
C1829 C1825 1.393 . S
C1829 C1828 1.391 . S
C1830 H1820 0.950 . S
C1830 C1831 1.386 . S
C1830 C1832 1.391 . S
C1831 C1830 1.386 . S
C1831 C1835 1.393 . S
C1832 H1821 0.950 . S
C1832 C1830 1.391 . S
C1832 C1833 1.400 . S
C1833 C1827 1.491 . S
C1833 C1832 1.400 . S
C1833 C1834 1.398 . S
C1834 H1822 0.950 . S
C1834 C1833 1.398 . S
C1834 C1835 1.391 . S
C1835 H1823 0.950 . S
C1835 C1831 1.393 . S
C1835 C1834 1.391 . S
H1836 C1844 0.950 . S
H1837 C1849 0.950 . S
H1838 C1846 0.950 . S
H1839 C1848 0.950 . S
H1840 C1850 0.950 . S
H1841 C1852 0.950 . S
H1842 C1854 0.950 . S
H1843 C1855 0.950 . S
C1844 H1836 0.950 . S
C1844 C1845 1.386 . S
C1844 C1846 1.391 . S
C1845 C1844 1.386 . S
C1845 C1849 1.393 . S
C1846 H1838 0.950 . S
C1846 C1844 1.391 . S
C1846 C1847 1.400 . S
C1847 C1846 1.400 . S
C1847 C1848 1.398 . S
C1847 C1853 1.491 . S
C1848 H1839 0.950 . S
C1848 C1847 1.398 . S
C1848 C1849 1.391 . S
C1849 H1837 0.950 . S
C1849 C1845 1.393 . S
C1849 C1848 1.391 . S
C1850 H1840 0.950 . S
C1850 C1851 1.386 . S
C1850 C1852 1.391 . S
C1851 C1850 1.386 . S
C1851 C1855 1.393 . S
C1852 H1841 0.950 . S
C1852 C1850 1.391 . S
C1852 C1853 1.400 . S
C1853 C1847 1.491 . S
C1853 C1852 1.400 . S
C1853 C1854 1.398 . S
C1854 H1842 0.950 . S
C1854 C1853 1.398 . S
C1854 C1855 1.391 . S
C1855 H1843 0.950 . S
C1855 C1851 1.393 . S
C1855 C1854 1.391 . S
H1856 C1864 0.950 . S
H1857 C1869 0.950 . S
H1858 C1866 0.950 . S
H1859 C1868 0.950 . S
H1860 C1870 0.950 . S
H1861 C1872 0.950 . S
H1862 C1874 0.950 . S
H1863 C1875 0.950 . S
C1864 H1856 0.950 . S
C1864 C1865 1.386 1_655 S
C1864 C1866 1.391 . S
C1865 C1864 1.386 1_455 S
C1865 C1869 1.393 . S
C1866 H1858 0.950 . S
C1866 C1864 1.391 . S
C1866 C1867 1.400 1_655 S
C1867 C1866 1.400 1_455 S
C1867 C1868 1.398 . S
C1867 C1873 1.491 . S
C1868 H1859 0.950 . S
C1868 C1867 1.398 . S
C1868 C1869 1.391 . S
C1869 H1857 0.950 . S
C1869 C1865 1.393 . S
C1869 C1868 1.391 . S
C1870 H1860 0.950 . S
C1870 C1871 1.386 . S
C1870 C1872 1.391 . S
C1871 C1870 1.386 . S
C1871 C1875 1.393 1_455 S
C1872 H1861 0.950 . S
C1872 C1870 1.391 . S
C1872 C1873 1.400 . S
C1873 C1867 1.491 . S
C1873 C1872 1.400 . S
C1873 C1874 1.398 1_455 S
C1874 H1862 0.950 . S
C1874 C1873 1.398 1_655 S
C1874 C1875 1.391 . S
C1875 H1863 0.950 . S
C1875 C1871 1.393 1_655 S
C1875 C1874 1.391 . S
H1876 C1884 0.950 . S
H1877 C1889 0.950 . S
H1878 C1886 0.950 . S
H1879 C1888 0.950 . S
H1880 C1890 0.950 . S
H1881 C1892 0.950 . S
H1882 C1894 0.950 . S
H1883 C1895 0.950 . S
C1884 H1876 0.950 . S
C1884 C1885 1.386 . S
C1884 C1886 1.391 . S
C1885 C1884 1.386 . S
C1885 C1889 1.393 . S
C1886 H1878 0.950 . S
C1886 C1884 1.391 . S
C1886 C1887 1.400 . S
C1887 C1886 1.400 . S
C1887 C1888 1.398 . S
C1887 C1893 1.491 . S
C1888 H1879 0.950 . S
C1888 C1887 1.398 . S
C1888 C1889 1.391 . S
C1889 H1877 0.950 . S
C1889 C1885 1.393 . S
C1889 C1888 1.391 . S
C1890 H1880 0.950 . S
C1890 C1891 1.386 . S
C1890 C1892 1.391 . S
C1891 C1890 1.386 . S
C1891 C1895 1.393 . S
C1892 H1881 0.950 . S
C1892 C1890 1.391 . S
C1892 C1893 1.400 . S
C1893 C1887 1.491 . S
C1893 C1892 1.400 . S
C1893 C1894 1.398 . S
C1894 H1882 0.950 . S
C1894 C1893 1.398 . S
C1894 C1895 1.391 . S
C1895 H1883 0.950 . S
C1895 C1891 1.393 . S
C1895 C1894 1.391 . S
H1896 C1904 0.950 . S
H1897 C1909 0.950 . S
H1898 C1906 0.950 . S
H1899 C1908 0.950 . S
H1900 C1910 0.950 . S
H1901 C1912 0.950 . S
H1902 C1914 0.950 . S
H1903 C1915 0.950 . S
C1904 H1896 0.950 . S
C1904 C1905 1.386 . S
C1904 C1906 1.391 . S
C1905 C1904 1.386 . S
C1905 C1909 1.393 1_655 S
C1906 H1898 0.950 . S
C1906 C1904 1.391 . S
C1906 C1907 1.400 . S
C1907 C1906 1.400 . S
C1907 C1908 1.398 1_655 S
C1907 C1913 1.491 . S
C1908 H1899 0.950 . S
C1908 C1907 1.398 1_455 S
C1908 C1909 1.391 . S
C1909 H1897 0.950 . S
C1909 C1905 1.393 1_455 S
C1909 C1908 1.391 . S
C1910 H1900 0.950 . S
C1910 C1911 1.386 1_455 S
C1910 C1912 1.391 . S
C1911 C1910 1.386 1_655 S
C1911 C1915 1.393 . S
C1912 H1901 0.950 . S
C1912 C1910 1.391 . S
C1912 C1913 1.400 1_455 S
C1913 C1907 1.491 . S
C1913 C1912 1.400 1_655 S
C1913 C1914 1.398 . S
C1914 H1902 0.950 . S
C1914 C1913 1.398 . S
C1914 C1915 1.391 . S
C1915 H1903 0.950 . S
C1915 C1911 1.393 . S
C1915 C1914 1.391 . S
H1916 C1924 0.950 . S
H1917 C1929 0.950 . S
H1918 C1926 0.950 . S
H1919 C1928 0.950 . S
H1920 C1930 0.950 . S
H1921 C1932 0.950 . S
H1922 C1934 0.950 . S
H1923 C1935 0.950 . S
C1924 H1916 0.950 . S
C1924 C1925 1.386 . S
C1924 C1926 1.391 . S
C1925 C1924 1.386 . S
C1925 C1929 1.393 . S
C1926 H1918 0.950 . S
C1926 C1924 1.391 . S
C1926 C1927 1.400 . S
C1927 C1926 1.400 . S
C1927 C1928 1.398 . S
C1927 C1933 1.491 . S
C1928 H1919 0.950 . S
C1928 C1927 1.398 . S
C1928 C1929 1.391 . S
C1929 H1917 0.950 . S
C1929 C1925 1.393 . S
C1929 C1928 1.391 . S
C1930 H1920 0.950 . S
C1930 C1931 1.386 . S
C1930 C1932 1.391 . S
C1931 C1930 1.386 . S
C1931 C1935 1.393 . S
C1932 H1921 0.950 . S
C1932 C1930 1.391 . S
C1932 C1933 1.400 . S
C1933 C1927 1.491 . S
C1933 C1932 1.400 . S
C1933 C1934 1.398 . S
C1934 H1922 0.950 . S
C1934 C1933 1.398 . S
C1934 C1935 1.391 . S
C1935 H1923 0.950 . S
C1935 C1931 1.393 . S
C1935 C1934 1.391 . S
H1936 C1944 0.950 . S
H1937 C1949 0.950 . S
H1938 C1946 0.950 . S
H1939 C1948 0.950 . S
H1940 C1950 0.950 . S
H1941 C1952 0.950 . S
H1942 C1954 0.950 . S
H1943 C1955 0.950 . S
C1944 H1936 0.950 . S
C1944 C1945 1.386 . S
C1944 C1946 1.391 . S
C1945 C1944 1.386 . S
C1945 C1949 1.393 1_455 S
C1946 H1938 0.950 . S
C1946 C1944 1.391 . S
C1946 C1947 1.400 . S
C1947 C1946 1.400 . S
C1947 C1948 1.398 1_455 S
C1947 C1953 1.491 . S
C1948 H1939 0.950 . S
C1948 C1947 1.398 1_655 S
C1948 C1949 1.391 . S
C1949 H1937 0.950 . S
C1949 C1945 1.393 1_655 S
C1949 C1948 1.391 . S
C1950 H1940 0.950 . S
C1950 C1951 1.386 1_655 S
C1950 C1952 1.391 . S
C1951 C1950 1.386 1_455 S
C1951 C1955 1.393 . S
C1952 H1941 0.950 . S
C1952 C1950 1.391 . S
C1952 C1953 1.400 1_655 S
C1953 C1947 1.491 . S
C1953 C1952 1.400 1_455 S
C1953 C1954 1.398 . S
C1954 H1942 0.950 . S
C1954 C1953 1.398 . S
C1954 C1955 1.391 . S
C1955 H1943 0.950 . S
C1955 C1951 1.393 . S
C1955 C1954 1.391 . S
H1956 C1964 0.950 . S
H1957 C1969 0.950 . S
H1958 C1966 0.950 . S
H1959 C1968 0.950 . S
H1960 C1970 0.950 . S
H1961 C1972 0.950 . S
H1962 C1974 0.950 . S
H1963 C1975 0.950 . S
C1964 H1956 0.950 . S
C1964 C1965 1.386 . S
C1964 C1966 1.391 . S
C1965 C1964 1.386 . S
C1965 C1969 1.393 . S
C1966 H1958 0.950 . S
C1966 C1964 1.391 . S
C1966 C1967 1.400 . S
C1967 C1966 1.400 . S
C1967 C1968 1.398 . S
C1967 C1973 1.491 . S
C1968 H1959 0.950 . S
C1968 C1967 1.398 . S
C1968 C1969 1.391 . S
C1969 H1957 0.950 . S
C1969 C1965 1.393 . S
C1969 C1968 1.391 . S
C1970 H1960 0.950 . S
C1970 C1971 1.386 . S
C1970 C1972 1.391 . S
C1971 C1970 1.386 . S
C1971 C1975 1.393 . S
C1972 H1961 0.950 . S
C1972 C1970 1.391 . S
C1972 C1973 1.400 . S
C1973 C1967 1.491 . S
C1973 C1972 1.400 . S
C1973 C1974 1.398 . S
C1974 H1962 0.950 . S
C1974 C1973 1.398 . S
C1974 C1975 1.391 . S
C1975 H1963 0.950 . S
C1975 C1971 1.393 . S
C1975 C1974 1.391 . S
H1976 C1984 0.950 . S
H1977 C1989 0.950 . S
H1978 C1986 0.950 . S
H1979 C1988 0.950 . S
H1980 C1990 0.950 . S
H1981 C1992 0.950 . S
H1982 C1994 0.950 . S
H1983 C1995 0.950 . S
C1984 H1976 0.950 . S
C1984 C1985 1.386 . S
C1984 C1986 1.391 . S
C1985 C1984 1.386 . S
C1985 C1989 1.393 1_655 S
C1986 H1978 0.950 . S
C1986 C1984 1.391 . S
C1986 C1987 1.400 . S
C1987 C1986 1.400 . S
C1987 C1988 1.398 1_655 S
C1987 C1993 1.491 . S
C1988 H1979 0.950 . S
C1988 C1987 1.398 1_455 S
C1988 C1989 1.391 . S
C1989 H1977 0.950 . S
C1989 C1985 1.393 1_455 S
C1989 C1988 1.391 . S
C1990 H1980 0.950 . S
C1990 C1991 1.386 1_455 S
C1990 C1992 1.391 . S
C1991 C1990 1.386 1_655 S
C1991 C1995 1.393 . S
C1992 H1981 0.950 . S
C1992 C1990 1.391 . S
C1992 C1993 1.400 1_455 S
C1993 C1987 1.491 . S
C1993 C1992 1.400 1_655 S
C1993 C1994 1.398 . S
C1994 H1982 0.950 . S
C1994 C1993 1.398 . S
C1994 C1995 1.391 . S
C1995 H1983 0.950 . S
C1995 C1991 1.393 . S
C1995 C1994 1.391 . S
H1996 C2004 0.950 . S
H1997 C2009 0.950 . S
H1998 C2006 0.950 . S
H1999 C2008 0.950 . S
H2000 C2010 0.950 . S
H2001 C2012 0.950 . S
H2002 C2014 0.950 . S
H2003 C2015 0.950 . S
C2004 H1996 0.950 . S
C2004 C2005 1.386 . S
C2004 C2006 1.391 . S
C2005 C2004 1.386 . S
C2005 C2009 1.393 . S
C2006 H1998 0.950 . S
C2006 C2004 1.391 . S
C2006 C2007 1.400 . S
C2007 C2006 1.400 . S
C2007 C2008 1.398 . S
C2007 C2013 1.491 . S
C2008 H1999 0.950 . S
C2008 C2007 1.398 . S
C2008 C2009 1.391 . S
C2009 H1997 0.950 . S
C2009 C2005 1.393 . S
C2009 C2008 1.391 . S
C2010 H2000 0.950 . S
C2010 C2011 1.386 . S
C2010 C2012 1.391 . S
C2011 C2010 1.386 . S
C2011 C2015 1.393 . S
C2012 H2001 0.950 . S
C2012 C2010 1.391 . S
C2012 C2013 1.400 . S
C2013 C2007 1.491 . S
C2013 C2012 1.400 . S
C2013 C2014 1.398 . S
C2014 H2002 0.950 . S
C2014 C2013 1.398 . S
C2014 C2015 1.391 . S
C2015 H2003 0.950 . S
C2015 C2011 1.393 . S
C2015 C2014 1.391 . S
H2016 C2024 0.950 . S
H2017 C2029 0.950 . S
H2018 C2026 0.950 . S
H2019 C2028 0.950 . S
H2020 C2030 0.950 . S
H2021 C2032 0.950 . S
H2022 C2034 0.950 . S
H2023 C2035 0.950 . S
C2024 H2016 0.950 . S
C2024 C2025 1.386 . S
C2024 C2026 1.391 . S
C2025 C2024 1.386 . S
C2025 C2029 1.393 . S
C2026 H2018 0.950 . S
C2026 C2024 1.391 . S
C2026 C2027 1.400 . S
C2027 C2026 1.400 . S
C2027 C2028 1.398 . S
C2027 C2033 1.491 . S
C2028 H2019 0.950 . S
C2028 C2027 1.398 . S
C2028 C2029 1.391 . S
C2029 H2017 0.950 . S
C2029 C2025 1.393 . S
C2029 C2028 1.391 . S
C2030 H2020 0.950 . S
C2030 C2031 1.386 . S
C2030 C2032 1.391 . S
C2031 C2030 1.386 . S
C2031 C2035 1.393 . S
C2032 H2021 0.950 . S
C2032 C2030 1.391 . S
C2032 C2033 1.400 . S
C2033 C2027 1.491 . S
C2033 C2032 1.400 . S
C2033 C2034 1.398 . S
C2034 H2022 0.950 . S
C2034 C2033 1.398 . S
C2034 C2035 1.391 . S
C2035 H2023 0.950 . S
C2035 C2031 1.393 . S
C2035 C2034 1.391 . S
H2036 C2044 0.950 . S
H2037 C2049 0.950 . S
H2038 C2046 0.950 . S
H2039 C2048 0.950 . S
H2040 C2050 0.950 . S
H2041 C2052 0.950 . S
H2042 C2054 0.950 . S
H2043 C2055 0.950 . S
C2044 H2036 0.950 . S
C2044 C2045 1.386 . S
C2044 C2046 1.391 . S
C2045 C2044 1.386 . S
C2045 C2049 1.393 . S
C2046 H2038 0.950 . S
C2046 C2044 1.391 . S
C2046 C2047 1.400 . S
C2047 C2046 1.400 . S
C2047 C2048 1.398 . S
C2047 C2053 1.491 . S
C2048 H2039 0.950 . S
C2048 C2047 1.398 . S
C2048 C2049 1.391 . S
C2049 H2037 0.950 . S
C2049 C2045 1.393 . S
C2049 C2048 1.391 . S
C2050 H2040 0.950 . S
C2050 C2051 1.386 . S
C2050 C2052 1.391 . S
C2051 C2050 1.386 . S
C2051 C2055 1.393 . S
C2052 H2041 0.950 . S
C2052 C2050 1.391 . S
C2052 C2053 1.400 . S
C2053 C2047 1.491 . S
C2053 C2052 1.400 . S
C2053 C2054 1.398 . S
C2054 H2042 0.950 . S
C2054 C2053 1.398 . S
C2054 C2055 1.391 . S
C2055 H2043 0.950 . S
C2055 C2051 1.393 . S
C2055 C2054 1.391 . S
H2056 C2064 0.950 . S
H2057 C2069 0.950 . S
H2058 C2066 0.950 . S
H2059 C2068 0.950 . S
H2060 C2070 0.950 . S
H2061 C2072 0.950 . S
H2062 C2074 0.950 . S
H2063 C2075 0.950 . S
C2064 H2056 0.950 . S
C2064 C2065 1.386 . S
C2064 C2066 1.391 . S
C2065 C2064 1.386 . S
C2065 C2069 1.393 . S
C2066 H2058 0.950 . S
C2066 C2064 1.391 . S
C2066 C2067 1.400 . S
C2067 C2066 1.400 . S
C2067 C2068 1.398 . S
C2067 C2073 1.491 . S
C2068 H2059 0.950 . S
C2068 C2067 1.398 . S
C2068 C2069 1.391 . S
C2069 H2057 0.950 . S
C2069 C2065 1.393 . S
C2069 C2068 1.391 . S
C2070 H2060 0.950 . S
C2070 C2071 1.386 . S
C2070 C2072 1.391 . S
C2071 C2070 1.386 . S
C2071 C2075 1.393 . S
C2072 H2061 0.950 . S
C2072 C2070 1.391 . S
C2072 C2073 1.400 . S
C2073 C2067 1.491 . S
C2073 C2072 1.400 . S
C2073 C2074 1.398 . S
C2074 H2062 0.950 . S
C2074 C2073 1.398 . S
C2074 C2075 1.391 . S
C2075 H2063 0.950 . S
C2075 C2071 1.393 . S
C2075 C2074 1.391 . S
H2076 C2084 0.950 . S
H2077 C2089 0.950 . S
H2078 C2086 0.950 . S
H2079 C2088 0.950 . S
H2080 C2090 0.950 . S
H2081 C2092 0.950 . S
H2082 C2094 0.950 . S
H2083 C2095 0.950 . S
C2084 H2076 0.950 . S
C2084 C2085 1.386 . S
C2084 C2086 1.391 . S
C2085 C2084 1.386 . S
C2085 C2089 1.393 . S
C2086 H2078 0.950 . S
C2086 C2084 1.391 . S
C2086 C2087 1.400 . S
C2087 C2086 1.400 . S
C2087 C2088 1.398 . S
C2087 C2093 1.491 . S
C2088 H2079 0.950 . S
C2088 C2087 1.398 . S
C2088 C2089 1.391 . S
C2089 H2077 0.950 . S
C2089 C2085 1.393 . S
C2089 C2088 1.391 . S
C2090 H2080 0.950 . S
C2090 C2091 1.386 . S
C2090 C2092 1.391 . S
C2091 C2090 1.386 . S
C2091 C2095 1.393 . S
C2092 H2081 0.950 . S
C2092 C2090 1.391 . S
C2092 C2093 1.400 . S
C2093 C2087 1.491 . S
C2093 C2092 1.400 . S
C2093 C2094 1.398 . S
C2094 H2082 0.950 . S
C2094 C2093 1.398 . S
C2094 C2095 1.391 . S
C2095 H2083 0.950 . S
C2095 C2091 1.393 . S
C2095 C2094 1.391 . S
H2096 C2104 0.950 . S
H2097 C2109 0.950 . S
H2098 C2106 0.950 . S
H2099 C2108 0.950 . S
H2100 C2110 0.950 . S
H2101 C2112 0.950 . S
H2102 C2114 0.950 . S
H2103 C2115 0.950 . S
C2104 H2096 0.950 . S
C2104 C2105 1.386 . S
C2104 C2106 1.391 . S
C2105 C2104 1.386 . S
C2105 C2109 1.393 . S
C2106 H2098 0.950 . S
C2106 C2104 1.391 . S
C2106 C2107 1.400 . S
C2107 C2106 1.400 . S
C2107 C2108 1.398 . S
C2107 C2113 1.491 . S
C2108 H2099 0.950 . S
C2108 C2107 1.398 . S
C2108 C2109 1.391 . S
C2109 H2097 0.950 . S
C2109 C2105 1.393 . S
C2109 C2108 1.391 . S
C2110 H2100 0.950 . S
C2110 C2111 1.386 . S
C2110 C2112 1.391 . S
C2111 C2110 1.386 . S
C2111 C2115 1.393 . S
C2112 H2101 0.950 . S
C2112 C2110 1.391 . S
C2112 C2113 1.400 . S
C2113 C2107 1.491 . S
C2113 C2112 1.400 . S
C2113 C2114 1.398 . S
C2114 H2102 0.950 . S
C2114 C2113 1.398 . S
C2114 C2115 1.391 . S
C2115 H2103 0.950 . S
C2115 C2111 1.393 . S
C2115 C2114 1.391 . S
H2116 C2124 0.950 . S
H2117 C2129 0.950 . S
H2118 C2126 0.950 . S
H2119 C2128 0.950 . S
H2120 C2130 0.950 . S
H2121 C2132 0.950 . S
H2122 C2134 0.950 . S
H2123 C2135 0.950 . S
C2124 H2116 0.950 . S
C2124 C2125 1.386 . S
C2124 C2126 1.391 . S
C2125 C2124 1.386 . S
C2125 C2129 1.393 . S
C2126 H2118 0.950 . S
C2126 C2124 1.391 . S
C2126 C2127 1.400 . S
C2127 C2126 1.400 . S
C2127 C2128 1.398 . S
C2127 C2133 1.491 . S
C2128 H2119 0.950 . S
C2128 C2127 1.398 . S
C2128 C2129 1.391 . S
C2129 H2117 0.950 . S
C2129 C2125 1.393 . S
C2129 C2128 1.391 . S
C2130 H2120 0.950 . S
C2130 C2131 1.386 . S
C2130 C2132 1.391 . S
C2131 C2130 1.386 . S
C2131 C2135 1.393 . S
C2132 H2121 0.950 . S
C2132 C2130 1.391 . S
C2132 C2133 1.400 . S
C2133 C2127 1.491 . S
C2133 C2132 1.400 . S
C2133 C2134 1.398 . S
C2134 H2122 0.950 . S
C2134 C2133 1.398 . S
C2134 C2135 1.391 . S
C2135 H2123 0.950 . S
C2135 C2131 1.393 . S
C2135 C2134 1.391 . S
H2136 C2144 0.950 . S
H2137 C2149 0.950 . S
H2138 C2146 0.950 . S
H2139 C2148 0.950 . S
H2140 C2150 0.950 . S
H2141 C2152 0.950 . S
H2142 C2154 0.950 . S
H2143 C2155 0.950 . S
C2144 H2136 0.950 . S
C2144 C2145 1.386 . S
C2144 C2146 1.391 . S
C2145 C2144 1.386 . S
C2145 C2149 1.393 . S
C2146 H2138 0.950 . S
C2146 C2144 1.391 . S
C2146 C2147 1.400 . S
C2147 C2146 1.400 . S
C2147 C2148 1.398 . S
C2147 C2153 1.491 . S
C2148 H2139 0.950 . S
C2148 C2147 1.398 . S
C2148 C2149 1.391 . S
C2149 H2137 0.950 . S
C2149 C2145 1.393 . S
C2149 C2148 1.391 . S
C2150 H2140 0.950 . S
C2150 C2151 1.386 . S
C2150 C2152 1.391 . S
C2151 C2150 1.386 . S
C2151 C2155 1.393 . S
C2152 H2141 0.950 . S
C2152 C2150 1.391 . S
C2152 C2153 1.400 . S
C2153 C2147 1.491 . S
C2153 C2152 1.400 . S
C2153 C2154 1.398 . S
C2154 H2142 0.950 . S
C2154 C2153 1.398 . S
C2154 C2155 1.391 . S
C2155 H2143 0.950 . S
C2155 C2151 1.393 . S
C2155 C2154 1.391 . S
H2156 C2164 0.950 . S
H2157 C2169 0.950 . S
H2158 C2166 0.950 . S
H2159 C2168 0.950 . S
H2160 C2170 0.950 . S
H2161 C2172 0.950 . S
H2162 C2174 0.950 . S
H2163 C2175 0.950 . S
C2164 H2156 0.950 . S
C2164 C2165 1.386 . S
C2164 C2166 1.391 . S
C2165 C2164 1.386 . S
C2165 C2169 1.393 . S
C2166 H2158 0.950 . S
C2166 C2164 1.391 . S
C2166 C2167 1.400 . S
C2167 C2166 1.400 . S
C2167 C2168 1.398 . S
C2167 C2173 1.491 . S
C2168 H2159 0.950 . S
C2168 C2167 1.398 . S
C2168 C2169 1.391 . S
C2169 H2157 0.950 . S
C2169 C2165 1.393 . S
C2169 C2168 1.391 . S
C2170 H2160 0.950 . S
C2170 C2171 1.386 . S
C2170 C2172 1.391 . S
C2171 C2170 1.386 . S
C2171 C2175 1.393 . S
C2172 H2161 0.950 . S
C2172 C2170 1.391 . S
C2172 C2173 1.400 . S
C2173 C2167 1.491 . S
C2173 C2172 1.400 . S
C2173 C2174 1.398 . S
C2174 H2162 0.950 . S
C2174 C2173 1.398 . S
C2174 C2175 1.391 . S
C2175 H2163 0.950 . S
C2175 C2171 1.393 . S
C2175 C2174 1.391 . S
H2176 C2184 0.950 . S
H2177 C2189 0.950 . S
H2178 C2186 0.950 . S
H2179 C2188 0.950 . S
H2180 C2190 0.950 . S
H2181 C2192 0.950 . S
H2182 C2194 0.950 . S
H2183 C2195 0.950 . S
C2184 H2176 0.950 . S
C2184 C2185 1.386 . S
C2184 C2186 1.391 . S
C2185 C2184 1.386 . S
C2185 C2189 1.393 . S
C2186 H2178 0.950 . S
C2186 C2184 1.391 . S
C2186 C2187 1.400 . S
C2187 C2186 1.400 . S
C2187 C2188 1.398 . S
C2187 C2193 1.491 . S
C2188 H2179 0.950 . S
C2188 C2187 1.398 . S
C2188 C2189 1.391 . S
C2189 H2177 0.950 . S
C2189 C2185 1.393 . S
C2189 C2188 1.391 . S
C2190 H2180 0.950 . S
C2190 C2191 1.386 . S
C2190 C2192 1.391 . S
C2191 C2190 1.386 . S
C2191 C2195 1.393 . S
C2192 H2181 0.950 . S
C2192 C2190 1.391 . S
C2192 C2193 1.400 . S
C2193 C2187 1.491 . S
C2193 C2192 1.400 . S
C2193 C2194 1.398 . S
C2194 H2182 0.950 . S
C2194 C2193 1.398 . S
C2194 C2195 1.391 . S
C2195 H2183 0.950 . S
C2195 C2191 1.393 . S
C2195 C2194 1.391 . S
H2196 C2204 0.950 . S
H2197 C2209 0.950 . S
H2198 C2206 0.950 . S
H2199 C2208 0.950 . S
H2200 C2210 0.950 . S
H2201 C2212 0.950 . S
H2202 C2214 0.950 . S
H2203 C2215 0.950 . S
C2204 H2196 0.950 . S
C2204 C2205 1.386 . S
C2204 C2206 1.391 . S
C2205 C2204 1.386 . S
C2205 C2209 1.393 . S
C2206 H2198 0.950 . S
C2206 C2204 1.391 . S
C2206 C2207 1.400 . S
C2207 C2206 1.400 . S
C2207 C2208 1.398 . S
C2207 C2213 1.491 . S
C2208 H2199 0.950 . S
C2208 C2207 1.398 . S
C2208 C2209 1.391 . S
C2209 H2197 0.950 . S
C2209 C2205 1.393 . S
C2209 C2208 1.391 . S
C2210 H2200 0.950 . S
C2210 C2211 1.386 . S
C2210 C2212 1.391 . S
C2211 C2210 1.386 . S
C2211 C2215 1.393 . S
C2212 H2201 0.950 . S
C2212 C2210 1.391 . S
C2212 C2213 1.400 . S
C2213 C2207 1.491 . S
C2213 C2212 1.400 . S
C2213 C2214 1.398 . S
C2214 H2202 0.950 . S
C2214 C2213 1.398 . S
C2214 C2215 1.391 . S
C2215 H2203 0.950 . S
C2215 C2211 1.393 . S
C2215 C2214 1.391 . S
H2216 C2224 0.950 . S
H2217 C2229 0.950 . S
H2218 C2226 0.950 . S
H2219 C2228 0.950 . S
H2220 C2230 0.950 . S
H2221 C2232 0.950 . S
H2222 C2234 0.950 . S
H2223 C2235 0.950 . S
C2224 H2216 0.950 . S
C2224 C2225 1.386 . S
C2224 C2226 1.391 . S
C2225 C2224 1.386 . S
C2225 C2229 1.393 . S
C2226 H2218 0.950 . S
C2226 C2224 1.391 . S
C2226 C2227 1.400 . S
C2227 C2226 1.400 . S
C2227 C2228 1.398 . S
C2227 C2233 1.491 . S
C2228 H2219 0.950 . S
C2228 C2227 1.398 . S
C2228 C2229 1.391 . S
C2229 H2217 0.950 . S
C2229 C2225 1.393 . S
C2229 C2228 1.391 . S
C2230 H2220 0.950 . S
C2230 C2231 1.386 . S
C2230 C2232 1.391 . S
C2231 C2230 1.386 . S
C2231 C2235 1.393 . S
C2232 H2221 0.950 . S
C2232 C2230 1.391 . S
C2232 C2233 1.400 . S
C2233 C2227 1.491 . S
C2233 C2232 1.400 . S
C2233 C2234 1.398 . S
C2234 H2222 0.950 . S
C2234 C2233 1.398 . S
C2234 C2235 1.391 . S
C2235 H2223 0.950 . S
C2235 C2231 1.393 . S
C2235 C2234 1.391 . S
H2236 C2244 0.950 . S
H2237 C2249 0.950 . S
H2238 C2246 0.950 . S
H2239 C2248 0.950 . S
H2240 C2250 0.950 . S
H2241 C2252 0.950 . S
H2242 C2254 0.950 . S
H2243 C2255 0.950 . S
C2244 H2236 0.950 . S
C2244 C2245 1.386 . S
C2244 C2246 1.391 . S
C2245 C2244 1.386 . S
C2245 C2249 1.393 . S
C2246 H2238 0.950 . S
C2246 C2244 1.391 . S
C2246 C2247 1.400 . S
C2247 C2246 1.400 . S
C2247 C2248 1.398 . S
C2247 C2253 1.491 . S
C2248 H2239 0.950 . S
C2248 C2247 1.398 . S
C2248 C2249 1.391 . S
C2249 H2237 0.950 . S
C2249 C2245 1.393 . S
C2249 C2248 1.391 . S
C2250 H2240 0.950 . S
C2250 C2251 1.386 . S
C2250 C2252 1.391 . S
C2251 C2250 1.386 . S
C2251 C2255 1.393 . S
C2252 H2241 0.950 . S
C2252 C2250 1.391 . S
C2252 C2253 1.400 . S
C2253 C2247 1.491 . S
C2253 C2252 1.400 . S
C2253 C2254 1.398 . S
C2254 H2242 0.950 . S
C2254 C2253 1.398 . S
C2254 C2255 1.391 . S
C2255 H2243 0.950 . S
C2255 C2251 1.393 . S
C2255 C2254 1.391 . S
H2256 C2264 0.950 . S
H2257 C2269 0.950 . S
H2258 C2266 0.950 . S
H2259 C2268 0.950 . S
H2260 C2270 0.950 . S
H2261 C2272 0.950 . S
H2262 C2274 0.950 . S
H2263 C2275 0.950 . S
C2264 H2256 0.950 . S
C2264 C2265 1.386 . S
C2264 C2266 1.391 . S
C2265 C2264 1.386 . S
C2265 C2269 1.393 . S
C2266 H2258 0.950 . S
C2266 C2264 1.391 . S
C2266 C2267 1.400 . S
C2267 C2266 1.400 . S
C2267 C2268 1.398 . S
C2267 C2273 1.491 . S
C2268 H2259 0.950 . S
C2268 C2267 1.398 . S
C2268 C2269 1.391 . S
C2269 H2257 0.950 . S
C2269 C2265 1.393 . S
C2269 C2268 1.391 . S
C2270 H2260 0.950 . S
C2270 C2271 1.386 . S
C2270 C2272 1.391 . S
C2271 C2270 1.386 . S
C2271 C2275 1.393 . S
C2272 H2261 0.950 . S
C2272 C2270 1.391 . S
C2272 C2273 1.400 . S
C2273 C2267 1.491 . S
C2273 C2272 1.400 . S
C2273 C2274 1.398 . S
C2274 H2262 0.950 . S
C2274 C2273 1.398 . S
C2274 C2275 1.391 . S
C2275 H2263 0.950 . S
C2275 C2271 1.393 . S
C2275 C2274 1.391 . S
H2276 C2284 0.950 . S
H2277 C2289 0.950 . S
H2278 C2286 0.950 . S
H2279 C2288 0.950 . S
H2280 C2290 0.950 . S
H2281 C2292 0.950 . S
H2282 C2294 0.950 . S
H2283 C2295 0.950 . S
C2284 H2276 0.950 . S
C2284 C2285 1.386 . S
C2284 C2286 1.391 . S
C2285 C2284 1.386 . S
C2285 C2289 1.393 . S
C2286 H2278 0.950 . S
C2286 C2284 1.391 . S
C2286 C2287 1.400 . S
C2287 C2286 1.400 . S
C2287 C2288 1.398 . S
C2287 C2293 1.491 . S
C2288 H2279 0.950 . S
C2288 C2287 1.398 . S
C2288 C2289 1.391 . S
C2289 H2277 0.950 . S
C2289 C2285 1.393 . S
C2289 C2288 1.391 . S
C2290 H2280 0.950 . S
C2290 C2291 1.386 . S
C2290 C2292 1.391 . S
C2291 C2290 1.386 . S
C2291 C2295 1.393 . S
C2292 H2281 0.950 . S
C2292 C2290 1.391 . S
C2292 C2293 1.400 . S
C2293 C2287 1.491 . S
C2293 C2292 1.400 . S
C2293 C2294 1.398 . S
C2294 H2282 0.950 . S
C2294 C2293 1.398 . S
C2294 C2295 1.391 . S
C2295 H2283 0.950 . S
C2295 C2291 1.393 . S
C2295 C2294 1.391 . S
H2296 C2304 0.950 . S
H2297 C2309 0.950 . S
H2298 C2306 0.950 . S
H2299 C2308 0.950 . S
H2300 C2310 0.950 . S
H2301 C2312 0.950 . S
H2302 C2314 0.950 . S
H2303 C2315 0.950 . S
C2304 H2296 0.950 . S
C2304 C2305 1.386 . S
C2304 C2306 1.391 . S
C2305 C2304 1.386 . S
C2305 C2309 1.393 . S
C2306 H2298 0.950 . S
C2306 C2304 1.391 . S
C2306 C2307 1.400 . S
C2307 C2306 1.400 . S
C2307 C2308 1.398 . S
C2307 C2313 1.491 . S
C2308 H2299 0.950 . S
C2308 C2307 1.398 . S
C2308 C2309 1.391 . S
C2309 H2297 0.950 . S
C2309 C2305 1.393 . S
C2309 C2308 1.391 . S
C2310 H2300 0.950 . S
C2310 C2311 1.386 . S
C2310 C2312 1.391 . S
C2311 C2310 1.386 . S
C2311 C2315 1.393 . S
C2312 H2301 0.950 . S
C2312 C2310 1.391 . S
C2312 C2313 1.400 . S
C2313 C2307 1.491 . S
C2313 C2312 1.400 . S
C2313 C2314 1.398 . S
C2314 H2302 0.950 . S
C2314 C2313 1.398 . S
C2314 C2315 1.391 . S
C2315 H2303 0.950 . S
C2315 C2311 1.393 . S
C2315 C2314 1.391 . S
H2316 C2324 0.950 . S
H2317 C2329 0.950 . S
H2318 C2326 0.950 . S
H2319 C2328 0.950 . S
H2320 C2330 0.950 . S
H2321 C2332 0.950 . S
H2322 C2334 0.950 . S
H2323 C2335 0.950 . S
C2324 H2316 0.950 . S
C2324 C2325 1.386 . S
C2324 C2326 1.391 . S
C2325 C2324 1.386 . S
C2325 C2329 1.393 . S
C2326 H2318 0.950 . S
C2326 C2324 1.391 . S
C2326 C2327 1.400 . S
C2327 C2326 1.400 . S
C2327 C2328 1.398 . S
C2327 C2333 1.491 . S
C2328 H2319 0.950 . S
C2328 C2327 1.398 . S
C2328 C2329 1.391 . S
C2329 H2317 0.950 . S
C2329 C2325 1.393 . S
C2329 C2328 1.391 . S
C2330 H2320 0.950 . S
C2330 C2331 1.386 . S
C2330 C2332 1.391 . S
C2331 C2330 1.386 . S
C2331 C2335 1.393 . S
C2332 H2321 0.950 . S
C2332 C2330 1.391 . S
C2332 C2333 1.400 . S
C2333 C2327 1.491 . S
C2333 C2332 1.400 . S
C2333 C2334 1.398 . S
C2334 H2322 0.950 . S
C2334 C2333 1.398 . S
C2334 C2335 1.391 . S
C2335 H2323 0.950 . S
C2335 C2331 1.393 . S
C2335 C2334 1.391 . S
H2336 C2344 0.950 . S
H2337 C2349 0.950 . S
H2338 C2346 0.950 . S
H2339 C2348 0.950 . S
H2340 C2350 0.950 . S
H2341 C2352 0.950 . S
H2342 C2354 0.950 . S
H2343 C2355 0.950 . S
C2344 H2336 0.950 . S
C2344 C2345 1.386 1_545 S
C2344 C2346 1.391 . S
C2345 C2344 1.386 1_565 S
C2345 C2349 1.393 . S
C2346 H2338 0.950 . S
C2346 C2344 1.391 . S
C2346 C2347 1.400 1_545 S
C2347 C2346 1.400 1_565 S
C2347 C2348 1.398 . S
C2347 C2353 1.491 1_564 S
C2348 H2339 0.950 . S
C2348 C2347 1.398 . S
C2348 C2349 1.391 . S
C2349 H2337 0.950 . S
C2349 C2345 1.393 . S
C2349 C2348 1.391 . S
C2350 H2340 0.950 . S
C2350 C2351 1.386 1_565 S
C2350 C2352 1.391 . S
C2351 C2350 1.386 1_545 S
C2351 C2355 1.393 . S
C2352 H2341 0.950 . S
C2352 C2350 1.391 . S
C2352 C2353 1.400 1_565 S
C2353 C2347 1.491 1_546 S
C2353 C2352 1.400 1_545 S
C2353 C2354 1.398 . S
C2354 H2342 0.950 . S
C2354 C2353 1.398 . S
C2354 C2355 1.391 . S
C2355 H2343 0.950 . S
C2355 C2351 1.393 . S
C2355 C2354 1.391 . S
H2356 C2364 0.950 . S
H2357 C2369 0.950 . S
H2358 C2366 0.950 . S
H2359 C2368 0.950 . S
H2360 C2370 0.950 . S
H2361 C2372 0.950 . S
H2362 C2374 0.950 . S
H2363 C2375 0.950 . S
C2364 H2356 0.950 . S
C2364 C2365 1.386 . S
C2364 C2366 1.391 . S
C2365 C2364 1.386 . S
C2365 C2369 1.393 . S
C2366 H2358 0.950 . S
C2366 C2364 1.391 . S
C2366 C2367 1.400 . S
C2367 C2366 1.400 . S
C2367 C2368 1.398 . S
C2367 C2373 1.491 1_554 S
C2368 H2359 0.950 . S
C2368 C2367 1.398 . S
C2368 C2369 1.391 . S
C2369 H2357 0.950 . S
C2369 C2365 1.393 . S
C2369 C2368 1.391 . S
C2370 H2360 0.950 . S
C2370 C2371 1.386 . S
C2370 C2372 1.391 . S
C2371 C2370 1.386 . S
C2371 C2375 1.393 . S
C2372 H2361 0.950 . S
C2372 C2370 1.391 . S
C2372 C2373 1.400 . S
C2373 C2367 1.491 1_556 S
C2373 C2372 1.400 . S
C2373 C2374 1.398 . S
C2374 H2362 0.950 . S
C2374 C2373 1.398 . S
C2374 C2375 1.391 . S
C2375 H2363 0.950 . S
C2375 C2371 1.393 . S
C2375 C2374 1.391 . S
H2376 C2384 0.950 . S
H2377 C2389 0.950 . S
H2378 C2386 0.950 . S
H2379 C2388 0.950 . S
H2380 C2390 0.950 . S
H2381 C2392 0.950 . S
H2382 C2394 0.950 . S
H2383 C2395 0.950 . S
C2384 H2376 0.950 . S
C2384 C2385 1.386 . S
C2384 C2386 1.391 . S
C2385 C2384 1.386 . S
C2385 C2389 1.393 . S
C2386 H2378 0.950 . S
C2386 C2384 1.391 . S
C2386 C2387 1.400 . S
C2387 C2386 1.400 . S
C2387 C2388 1.398 . S
C2387 C2393 1.491 . S
C2388 H2379 0.950 . S
C2388 C2387 1.398 . S
C2388 C2389 1.391 . S
C2389 H2377 0.950 . S
C2389 C2385 1.393 . S
C2389 C2388 1.391 . S
C2390 H2380 0.950 . S
C2390 C2391 1.386 . S
C2390 C2392 1.391 . S
C2391 C2390 1.386 . S
C2391 C2395 1.393 . S
C2392 H2381 0.950 . S
C2392 C2390 1.391 . S
C2392 C2393 1.400 . S
C2393 C2387 1.491 . S
C2393 C2392 1.400 . S
C2393 C2394 1.398 . S
C2394 H2382 0.950 . S
C2394 C2393 1.398 . S
C2394 C2395 1.391 . S
C2395 H2383 0.950 . S
C2395 C2391 1.393 . S
C2395 C2394 1.391 . S
H2396 C2404 0.950 . S
H2397 C2409 0.950 . S
H2398 C2406 0.950 . S
H2399 C2408 0.950 . S
H2400 C2410 0.950 . S
H2401 C2412 0.950 . S
H2402 C2414 0.950 . S
H2403 C2415 0.950 . S
C2404 H2396 0.950 . S
C2404 C2405 1.386 1_545 S
C2404 C2406 1.391 . S
C2405 C2404 1.386 1_565 S
C2405 C2409 1.393 . S
C2406 H2398 0.950 . S
C2406 C2404 1.391 . S
C2406 C2407 1.400 1_545 S
C2407 C2406 1.400 1_565 S
C2407 C2408 1.398 . S
C2407 C2413 1.491 1_565 S
C2408 H2399 0.950 . S
C2408 C2407 1.398 . S
C2408 C2409 1.391 . S
C2409 H2397 0.950 . S
C2409 C2405 1.393 . S
C2409 C2408 1.391 . S
C2410 H2400 0.950 . S
C2410 C2411 1.386 1_565 S
C2410 C2412 1.391 . S
C2411 C2410 1.386 1_545 S
C2411 C2415 1.393 . S
C2412 H2401 0.950 . S
C2412 C2410 1.391 . S
C2412 C2413 1.400 1_565 S
C2413 C2407 1.491 1_545 S
C2413 C2412 1.400 1_545 S
C2413 C2414 1.398 . S
C2414 H2402 0.950 . S
C2414 C2413 1.398 . S
C2414 C2415 1.391 . S
C2415 H2403 0.950 . S
C2415 C2411 1.393 . S
C2415 C2414 1.391 . S
H2416 C2424 0.950 . S
H2417 C2429 0.950 . S
H2418 C2426 0.950 . S
H2419 C2428 0.950 . S
H2420 C2430 0.950 . S
H2421 C2432 0.950 . S
H2422 C2434 0.950 . S
H2423 C2435 0.950 . S
C2424 H2416 0.950 . S
C2424 C2425 1.386 . S
C2424 C2426 1.391 . S
C2425 C2424 1.386 . S
C2425 C2429 1.393 . S
C2426 H2418 0.950 . S
C2426 C2424 1.391 . S
C2426 C2427 1.400 . S
C2427 C2426 1.400 . S
C2427 C2428 1.398 . S
C2427 C2433 1.491 1_556 S
C2428 H2419 0.950 . S
C2428 C2427 1.398 . S
C2428 C2429 1.391 . S
C2429 H2417 0.950 . S
C2429 C2425 1.393 . S
C2429 C2428 1.391 . S
C2430 H2420 0.950 . S
C2430 C2431 1.386 . S
C2430 C2432 1.391 . S
C2431 C2430 1.386 . S
C2431 C2435 1.393 . S
C2432 H2421 0.950 . S
C2432 C2430 1.391 . S
C2432 C2433 1.400 . S
C2433 C2427 1.491 1_554 S
C2433 C2432 1.400 . S
C2433 C2434 1.398 . S
C2434 H2422 0.950 . S
C2434 C2433 1.398 . S
C2434 C2435 1.391 . S
C2435 H2423 0.950 . S
C2435 C2431 1.393 . S
C2435 C2434 1.391 . S
H2436 C2444 0.950 . S
H2437 C2449 0.950 . S
H2438 C2446 0.950 . S
H2439 C2448 0.950 . S
H2440 C2450 0.950 . S
H2441 C2452 0.950 . S
H2442 C2454 0.950 . S
H2443 C2455 0.950 . S
C2444 H2436 0.950 . S
C2444 C2445 1.386 . S
C2444 C2446 1.391 . S
C2445 C2444 1.386 . S
C2445 C2449 1.393 . S
C2446 H2438 0.950 . S
C2446 C2444 1.391 . S
C2446 C2447 1.400 . S
C2447 C2446 1.400 . S
C2447 C2448 1.398 . S
C2447 C2453 1.491 . S
C2448 H2439 0.950 . S
C2448 C2447 1.398 . S
C2448 C2449 1.391 . S
C2449 H2437 0.950 . S
C2449 C2445 1.393 . S
C2449 C2448 1.391 . S
C2450 H2440 0.950 . S
C2450 C2451 1.386 . S
C2450 C2452 1.391 . S
C2451 C2450 1.386 . S
C2451 C2455 1.393 . S
C2452 H2441 0.950 . S
C2452 C2450 1.391 . S
C2452 C2453 1.400 . S
C2453 C2447 1.491 . S
C2453 C2452 1.400 . S
C2453 C2454 1.398 . S
C2454 H2442 0.950 . S
C2454 C2453 1.398 . S
C2454 C2455 1.391 . S
C2455 H2443 0.950 . S
C2455 C2451 1.393 . S
C2455 C2454 1.391 . S
H2456 C2464 0.950 . S
H2457 C2469 0.950 . S
H2458 C2466 0.950 . S
H2459 C2468 0.950 . S
H2460 C2470 0.950 . S
H2461 C2472 0.950 . S
H2462 C2474 0.950 . S
H2463 C2475 0.950 . S
C2464 H2456 0.950 . S
C2464 C2465 1.386 1_545 S
C2464 C2466 1.391 . S
C2465 C2464 1.386 1_565 S
C2465 C2469 1.393 . S
C2466 H2458 0.950 . S
C2466 C2464 1.391 . S
C2466 C2467 1.400 1_545 S
C2467 C2466 1.400 1_565 S
C2467 C2468 1.398 . S
C2467 C2473 1.491 1_565 S
C2468 H2459 0.950 . S
C2468 C2467 1.398 . S
C2468 C2469 1.391 . S
C2469 H2457 0.950 . S
C2469 C2465 1.393 . S
C2469 C2468 1.391 . S
C2470 H2460 0.950 . S
C2470 C2471 1.386 1_565 S
C2470 C2472 1.391 . S
C2471 C2470 1.386 1_545 S
C2471 C2475 1.393 . S
C2472 H2461 0.950 . S
C2472 C2470 1.391 . S
C2472 C2473 1.400 1_565 S
C2473 C2467 1.491 1_545 S
C2473 C2472 1.400 1_545 S
C2473 C2474 1.398 . S
C2474 H2462 0.950 . S
C2474 C2473 1.398 . S
C2474 C2475 1.391 . S
C2475 H2463 0.950 . S
C2475 C2471 1.393 . S
C2475 C2474 1.391 . S
H2476 C2484 0.950 . S
H2477 C2489 0.950 . S
H2478 C2486 0.950 . S
H2479 C2488 0.950 . S
H2480 C2490 0.950 . S
H2481 C2492 0.950 . S
H2482 C2494 0.950 . S
H2483 C2495 0.950 . S
C2484 H2476 0.950 . S
C2484 C2485 1.386 . S
C2484 C2486 1.391 . S
C2485 C2484 1.386 . S
C2485 C2489 1.393 . S
C2486 H2478 0.950 . S
C2486 C2484 1.391 . S
C2486 C2487 1.400 . S
C2487 C2486 1.400 . S
C2487 C2488 1.398 . S
C2487 C2493 1.491 . S
C2488 H2479 0.950 . S
C2488 C2487 1.398 . S
C2488 C2489 1.391 . S
C2489 H2477 0.950 . S
C2489 C2485 1.393 . S
C2489 C2488 1.391 . S
C2490 H2480 0.950 . S
C2490 C2491 1.386 . S
C2490 C2492 1.391 . S
C2491 C2490 1.386 . S
C2491 C2495 1.393 . S
C2492 H2481 0.950 . S
C2492 C2490 1.391 . S
C2492 C2493 1.400 . S
C2493 C2487 1.491 . S
C2493 C2492 1.400 . S
C2493 C2494 1.398 . S
C2494 H2482 0.950 . S
C2494 C2493 1.398 . S
C2494 C2495 1.391 . S
C2495 H2483 0.950 . S
C2495 C2491 1.393 . S
C2495 C2494 1.391 . S
H2496 C2504 0.950 . S
H2497 C2509 0.950 . S
H2498 C2506 0.950 . S
H2499 C2508 0.950 . S
H2500 C2510 0.950 . S
H2501 C2512 0.950 . S
H2502 C2514 0.950 . S
H2503 C2515 0.950 . S
C2504 H2496 0.950 . S
C2504 C2505 1.386 . S
C2504 C2506 1.391 . S
C2505 C2504 1.386 . S
C2505 C2509 1.393 . S
C2506 H2498 0.950 . S
C2506 C2504 1.391 . S
C2506 C2507 1.400 . S
C2507 C2506 1.400 . S
C2507 C2508 1.398 . S
C2507 C2513 1.491 . S
C2508 H2499 0.950 . S
C2508 C2507 1.398 . S
C2508 C2509 1.391 . S
C2509 H2497 0.950 . S
C2509 C2505 1.393 . S
C2509 C2508 1.391 . S
C2510 H2500 0.950 . S
C2510 C2511 1.386 . S
C2510 C2512 1.391 . S
C2511 C2510 1.386 . S
C2511 C2515 1.393 . S
C2512 H2501 0.950 . S
C2512 C2510 1.391 . S
C2512 C2513 1.400 . S
C2513 C2507 1.491 . S
C2513 C2512 1.400 . S
C2513 C2514 1.398 . S
C2514 H2502 0.950 . S
C2514 C2513 1.398 . S
C2514 C2515 1.391 . S
C2515 H2503 0.950 . S
C2515 C2511 1.393 . S
C2515 C2514 1.391 . S
H2516 C2524 0.950 . S
H2517 C2529 0.950 . S
H2518 C2526 0.950 . S
H2519 C2528 0.950 . S
H2520 C2530 0.950 . S
H2521 C2532 0.950 . S
H2522 C2534 0.950 . S
H2523 C2535 0.950 . S
C2524 H2516 0.950 . S
C2524 C2525 1.386 . S
C2524 C2526 1.391 . S
C2525 C2524 1.386 . S
C2525 C2529 1.393 . S
C2526 H2518 0.950 . S
C2526 C2524 1.391 . S
C2526 C2527 1.400 . S
C2527 C2526 1.400 . S
C2527 C2528 1.398 . S
C2527 C2533 1.491 . S
C2528 H2519 0.950 . S
C2528 C2527 1.398 . S
C2528 C2529 1.391 . S
C2529 H2517 0.950 . S
C2529 C2525 1.393 . S
C2529 C2528 1.391 . S
C2530 H2520 0.950 . S
C2530 C2531 1.386 . S
C2530 C2532 1.391 . S
C2531 C2530 1.386 . S
C2531 C2535 1.393 . S
C2532 H2521 0.950 . S
C2532 C2530 1.391 . S
C2532 C2533 1.400 . S
C2533 C2527 1.491 . S
C2533 C2532 1.400 . S
C2533 C2534 1.398 . S
C2534 H2522 0.950 . S
C2534 C2533 1.398 . S
C2534 C2535 1.391 . S
C2535 H2523 0.950 . S
C2535 C2531 1.393 . S
C2535 C2534 1.391 . S
H2536 C2544 0.950 . S
H2537 C2549 0.950 . S
H2538 C2546 0.950 . S
H2539 C2548 0.950 . S
H2540 C2550 0.950 . S
H2541 C2552 0.950 . S
H2542 C2554 0.950 . S
H2543 C2555 0.950 . S
C2544 H2536 0.950 . S
C2544 C2545 1.386 . S
C2544 C2546 1.391 . S
C2545 C2544 1.386 . S
C2545 C2549 1.393 . S
C2546 H2538 0.950 . S
C2546 C2544 1.391 . S
C2546 C2547 1.400 . S
C2547 C2546 1.400 . S
C2547 C2548 1.398 . S
C2547 C2553 1.491 . S
C2548 H2539 0.950 . S
C2548 C2547 1.398 . S
C2548 C2549 1.391 . S
C2549 H2537 0.950 . S
C2549 C2545 1.393 . S
C2549 C2548 1.391 . S
C2550 H2540 0.950 . S
C2550 C2551 1.386 . S
C2550 C2552 1.391 . S
C2551 C2550 1.386 . S
C2551 C2555 1.393 . S
C2552 H2541 0.950 . S
C2552 C2550 1.391 . S
C2552 C2553 1.400 . S
C2553 C2547 1.491 . S
C2553 C2552 1.400 . S
C2553 C2554 1.398 . S
C2554 H2542 0.950 . S
C2554 C2553 1.398 . S
C2554 C2555 1.391 . S
C2555 H2543 0.950 . S
C2555 C2551 1.393 . S
C2555 C2554 1.391 . S
H2556 C2564 0.950 . S
H2557 C2569 0.950 . S
H2558 C2566 0.950 . S
H2559 C2568 0.950 . S
H2560 C2570 0.950 . S
H2561 C2572 0.950 . S
H2562 C2574 0.950 . S
H2563 C2575 0.950 . S
C2564 H2556 0.950 . S
C2564 C2565 1.386 . S
C2564 C2566 1.391 . S
C2565 C2564 1.386 . S
C2565 C2569 1.393 . S
C2566 H2558 0.950 . S
C2566 C2564 1.391 . S
C2566 C2567 1.400 . S
C2567 C2566 1.400 . S
C2567 C2568 1.398 . S
C2567 C2573 1.491 . S
C2568 H2559 0.950 . S
C2568 C2567 1.398 . S
C2568 C2569 1.391 . S
C2569 H2557 0.950 . S
C2569 C2565 1.393 . S
C2569 C2568 1.391 . S
C2570 H2560 0.950 . S
C2570 C2571 1.386 . S
C2570 C2572 1.391 . S
C2571 C2570 1.386 . S
C2571 C2575 1.393 . S
C2572 H2561 0.950 . S
C2572 C2570 1.391 . S
C2572 C2573 1.400 . S
C2573 C2567 1.491 . S
C2573 C2572 1.400 . S
C2573 C2574 1.398 . S
C2574 H2562 0.950 . S
C2574 C2573 1.398 . S
C2574 C2575 1.391 . S
C2575 H2563 0.950 . S
C2575 C2571 1.393 . S
C2575 C2574 1.391 . S
H2576 C2584 0.950 . S
H2577 C2589 0.950 . S
H2578 C2586 0.950 . S
H2579 C2588 0.950 . S
H2580 C2590 0.950 . S
H2581 C2592 0.950 . S
H2582 C2594 0.950 . S
H2583 C2595 0.950 . S
C2584 H2576 0.950 . S
C2584 C2585 1.386 1_655 S
C2584 C2586 1.391 . S
C2585 C2584 1.386 1_455 S
C2585 C2589 1.393 1_545 S
C2586 H2578 0.950 . S
C2586 C2584 1.391 . S
C2586 C2587 1.374 1_655 S
C2587 C2586 1.374 1_455 S
C2587 C2588 1.426 1_545 S
C2587 C2593 1.489 1_445 S
C2588 H2579 0.950 . S
C2588 C2587 1.426 1_565 S
C2588 C2589 1.391 . S
C2589 H2577 0.950 . S
C2589 C2585 1.393 1_565 S
C2589 C2588 1.391 . S
C2590 H2580 0.950 . S
C2590 C2591 1.386 1_455 S
C2590 C2592 1.391 . S
C2591 C2590 1.386 1_655 S
C2591 C2595 1.393 1_565 S
C2592 H2581 0.950 . S
C2592 C2590 1.391 . S
C2592 C2593 1.385 1_455 S
C2593 C2587 1.489 1_665 S
C2593 C2592 1.385 1_655 S
C2593 C2594 1.414 1_565 S
C2594 H2582 0.950 . S
C2594 C2593 1.414 1_545 S
C2594 C2595 1.391 . S
C2595 H2583 0.950 . S
C2595 C2591 1.393 1_545 S
C2595 C2594 1.391 . S
H2596 C2604 0.950 . S
H2597 C2609 0.950 . S
H2598 C2606 0.950 . S
H2599 C2608 0.950 . S
H2600 C2610 0.950 . S
H2601 C2612 0.950 . S
H2602 C2614 0.950 . S
H2603 C2615 0.950 . S
C2604 H2596 0.950 . S
C2604 C2605 1.386 1_455 S
C2604 C2606 1.391 . S
C2605 C2604 1.386 1_655 S
C2605 C2609 1.393 . S
C2606 H2598 0.950 . S
C2606 C2604 1.391 . S
C2606 C2607 1.374 1_455 S
C2607 C2606 1.374 1_655 S
C2607 C2608 1.426 . S
C2607 C2613 1.489 1_655 S
C2608 H2599 0.950 . S
C2608 C2607 1.426 . S
C2608 C2609 1.391 . S
C2609 H2597 0.950 . S
C2609 C2605 1.393 . S
C2609 C2608 1.391 . S
C2610 H2600 0.950 . S
C2610 C2611 1.386 1_655 S
C2610 C2612 1.391 . S
C2611 C2610 1.386 1_455 S
C2611 C2615 1.393 . S
C2612 H2601 0.950 . S
C2612 C2610 1.391 . S
C2612 C2613 1.385 1_655 S
C2613 C2607 1.489 1_455 S
C2613 C2612 1.385 1_455 S
C2613 C2614 1.414 . S
C2614 H2602 0.950 . S
C2614 C2613 1.414 . S
C2614 C2615 1.391 . S
C2615 H2603 0.950 . S
C2615 C2611 1.393 . S
C2615 C2614 1.391 . S
H2616 C2624 0.950 . S
H2617 C2629 0.950 . S
H2618 C2626 0.950 . S
H2619 C2628 0.950 . S
H2620 C2630 0.950 . S
H2621 C2632 0.950 . S
H2622 C2634 0.950 . S
H2623 C2635 0.950 . S
C2624 H2616 0.950 . S
C2624 C2625 1.386 . S
C2624 C2626 1.391 . S
C2625 C2624 1.386 . S
C2625 C2629 1.393 1_655 S
C2626 H2618 0.950 . S
C2626 C2624 1.391 . S
C2626 C2627 1.414 . S
C2627 C2626 1.414 . S
C2627 C2628 1.385 1_655 S
C2627 C2633 1.490 1_655 S
C2628 H2619 0.950 . S
C2628 C2627 1.385 1_455 S
C2628 C2629 1.391 . S
C2629 H2617 0.950 . S
C2629 C2625 1.393 1_455 S
C2629 C2628 1.391 . S
C2630 H2620 0.950 . S
C2630 C2631 1.386 . S
C2630 C2632 1.391 . S
C2631 C2630 1.386 . S
C2631 C2635 1.393 1_455 S
C2632 H2621 0.950 . S
C2632 C2630 1.391 . S
C2632 C2633 1.405 . S
C2633 C2627 1.490 1_455 S
C2633 C2632 1.405 . S
C2633 C2634 1.394 1_455 S
C2634 H2622 0.950 . S
C2634 C2633 1.394 1_655 S
C2634 C2635 1.391 . S
C2635 H2623 0.950 . S
C2635 C2631 1.393 1_655 S
C2635 C2634 1.391 . S
H2636 C2644 0.955 . S
H2637 C2649 0.950 . S
H2638 C2646 0.950 . S
H2639 C2648 0.950 . S
H2640 C2650 0.957 . S
H2641 C2652 0.950 . S
H2642 C2654 0.950 . S
H2643 C2655 0.950 . S
C2644 H2636 0.955 . S
C2644 C2645 1.380 1_655 S
C2644 C2646 1.394 . S
C2645 C2644 1.380 1_455 S
C2645 C2649 1.393 . S
C2646 H2638 0.950 . S
C2646 C2644 1.394 . S
C2646 C2647 1.399 1_655 S
C2647 C2646 1.399 1_455 S
C2647 C2648 1.400 . S
C2647 C2653 1.490 1_456 S
C2648 H2639 0.950 . S
C2648 C2647 1.400 . S
C2648 C2649 1.391 . S
C2649 H2637 0.950 . S
C2649 C2645 1.393 . S
C2649 C2648 1.391 . S
C2650 H2640 0.957 . S
C2650 C2651 1.379 1_455 S
C2650 C2652 1.395 . S
C2651 C2650 1.379 1_655 S
C2651 C2655 1.393 . S
C2652 H2641 0.950 . S
C2652 C2650 1.395 . S
C2652 C2653 1.400 1_455 S
C2653 C2647 1.490 1_654 S
C2653 C2652 1.400 1_655 S
C2653 C2654 1.398 . S
C2654 H2642 0.950 . S
C2654 C2653 1.398 . S
C2654 C2655 1.391 . S
C2655 H2643 0.950 . S
C2655 C2651 1.393 . S
C2655 C2654 1.391 . S
H2656 C2664 0.950 . S
H2657 C2669 0.950 . S
H2658 C2666 0.950 . S
H2659 C2668 0.950 . S
H2660 C2670 0.950 . S
H2661 C2672 0.950 . S
H2662 C2674 0.950 . S
H2663 C2675 0.950 . S
C2664 H2656 0.950 . S
C2664 C2665 1.386 . S
C2664 C2666 1.391 . S
C2665 C2664 1.386 . S
C2665 C2669 1.393 . S
C2666 H2658 0.950 . S
C2666 C2664 1.391 . S
C2666 C2667 1.400 . S
C2667 C2666 1.400 . S
C2667 C2668 1.398 . S
C2667 C2673 1.491 . S
C2668 H2659 0.950 . S
C2668 C2667 1.398 . S
C2668 C2669 1.391 . S
C2669 H2657 0.950 . S
C2669 C2665 1.393 . S
C2669 C2668 1.391 . S
C2670 H2660 0.950 . S
C2670 C2671 1.386 . S
C2670 C2672 1.391 . S
C2671 C2670 1.386 . S
C2671 C2675 1.393 . S
C2672 H2661 0.950 . S
C2672 C2670 1.391 . S
C2672 C2673 1.400 . S
C2673 C2667 1.491 . S
C2673 C2672 1.400 . S
C2673 C2674 1.398 . S
C2674 H2662 0.950 . S
C2674 C2673 1.398 . S
C2674 C2675 1.391 . S
C2675 H2663 0.950 . S
C2675 C2671 1.393 . S
C2675 C2674 1.391 . S
H2676 C2684 0.950 . S
H2677 C2689 0.950 . S
H2678 C2686 0.950 . S
H2679 C2688 0.950 . S
H2680 C2690 0.950 . S
H2681 C2692 0.950 . S
H2682 C2694 0.950 . S
H2683 C2695 0.950 . S
C2684 H2676 0.950 . S
C2684 C2685 1.386 . S
C2684 C2686 1.391 . S
C2685 C2684 1.386 . S
C2685 C2689 1.393 . S
C2686 H2678 0.950 . S
C2686 C2684 1.391 . S
C2686 C2687 1.400 . S
C2687 C2686 1.400 . S
C2687 C2688 1.398 . S
C2687 C2693 1.491 . S
C2688 H2679 0.950 . S
C2688 C2687 1.398 . S
C2688 C2689 1.391 . S
C2689 H2677 0.950 . S
C2689 C2685 1.393 . S
C2689 C2688 1.391 . S
C2690 H2680 0.950 . S
C2690 C2691 1.386 . S
C2690 C2692 1.391 . S
C2691 C2690 1.386 . S
C2691 C2695 1.393 . S
C2692 H2681 0.950 . S
C2692 C2690 1.391 . S
C2692 C2693 1.400 . S
C2693 C2687 1.491 . S
C2693 C2692 1.400 . S
C2693 C2694 1.398 . S
C2694 H2682 0.950 . S
C2694 C2693 1.398 . S
C2694 C2695 1.391 . S
C2695 H2683 0.950 . S
C2695 C2691 1.393 . S
C2695 C2694 1.391 . S
H2696 C2704 0.950 . S
H2697 C2709 0.950 . S
H2698 C2706 0.950 . S
H2699 C2708 0.950 . S
H2700 C2710 0.950 . S
H2701 C2712 0.950 . S
H2702 C2714 0.950 . S
H2703 C2715 0.950 . S
C2704 H2696 0.950 . S
C2704 C2705 1.386 . S
C2704 C2706 1.391 . S
C2705 C2704 1.386 . S
C2705 C2709 1.393 . S
C2706 H2698 0.950 . S
C2706 C2704 1.391 . S
C2706 C2707 1.400 . S
C2707 C2706 1.400 . S
C2707 C2708 1.398 . S
C2707 C2713 1.491 . S
C2708 H2699 0.950 . S
C2708 C2707 1.398 . S
C2708 C2709 1.391 . S
C2709 H2697 0.950 . S
C2709 C2705 1.393 . S
C2709 C2708 1.391 . S
C2710 H2700 0.950 . S
C2710 C2711 1.386 . S
C2710 C2712 1.391 . S
C2711 C2710 1.386 . S
C2711 C2715 1.393 . S
C2712 H2701 0.950 . S
C2712 C2710 1.391 . S
C2712 C2713 1.400 . S
C2713 C2707 1.491 . S
C2713 C2712 1.400 . S
C2713 C2714 1.398 . S
C2714 H2702 0.950 . S
C2714 C2713 1.398 . S
C2714 C2715 1.391 . S
C2715 H2703 0.950 . S
C2715 C2711 1.393 . S
C2715 C2714 1.391 . S
H2716 C2724 0.950 . S
H2717 C2729 0.950 . S
H2718 C2726 0.950 . S
H2719 C2728 0.950 . S
H2720 C2730 0.950 . S
H2721 C2732 0.950 . S
H2722 C2734 0.950 . S
H2723 C2735 0.950 . S
C2724 H2716 0.950 . S
C2724 C2725 1.386 . S
C2724 C2726 1.391 . S
C2725 C2724 1.386 . S
C2725 C2729 1.393 . S
C2726 H2718 0.950 . S
C2726 C2724 1.391 . S
C2726 C2727 1.400 . S
C2727 C2726 1.400 . S
C2727 C2728 1.398 . S
C2727 C2733 1.491 . S
C2728 H2719 0.950 . S
C2728 C2727 1.398 . S
C2728 C2729 1.391 . S
C2729 H2717 0.950 . S
C2729 C2725 1.393 . S
C2729 C2728 1.391 . S
C2730 H2720 0.950 . S
C2730 C2731 1.386 . S
C2730 C2732 1.391 . S
C2731 C2730 1.386 . S
C2731 C2735 1.393 . S
C2732 H2721 0.950 . S
C2732 C2730 1.391 . S
C2732 C2733 1.400 . S
C2733 C2727 1.491 . S
C2733 C2732 1.400 . S
C2733 C2734 1.398 . S
C2734 H2722 0.950 . S
C2734 C2733 1.398 . S
C2734 C2735 1.391 . S
C2735 H2723 0.950 . S
C2735 C2731 1.393 . S
C2735 C2734 1.391 . S
H2736 C2744 0.950 . S
H2737 C2749 0.950 . S
H2738 C2746 0.950 . S
H2739 C2748 0.950 . S
H2740 C2750 0.950 . S
H2741 C2752 0.950 . S
H2742 C2754 0.950 . S
H2743 C2755 0.950 . S
C2744 H2736 0.950 . S
C2744 C2745 1.386 . S
C2744 C2746 1.391 . S
C2745 C2744 1.386 . S
C2745 C2749 1.393 . S
C2746 H2738 0.950 . S
C2746 C2744 1.391 . S
C2746 C2747 1.400 . S
C2747 C2746 1.400 . S
C2747 C2748 1.398 . S
C2747 C2753 1.491 . S
C2748 H2739 0.950 . S
C2748 C2747 1.398 . S
C2748 C2749 1.391 . S
C2749 H2737 0.950 . S
C2749 C2745 1.393 . S
C2749 C2748 1.391 . S
C2750 H2740 0.950 . S
C2750 C2751 1.386 . S
C2750 C2752 1.391 . S
C2751 C2750 1.386 . S
C2751 C2755 1.393 . S
C2752 H2741 0.950 . S
C2752 C2750 1.391 . S
C2752 C2753 1.400 . S
C2753 C2747 1.491 . S
C2753 C2752 1.400 . S
C2753 C2754 1.398 . S
C2754 H2742 0.950 . S
C2754 C2753 1.398 . S
C2754 C2755 1.391 . S
C2755 H2743 0.950 . S
C2755 C2751 1.393 . S
C2755 C2754 1.391 . S
H2756 C2764 0.950 . S
H2757 C2769 0.950 . S
H2758 C2766 0.950 . S
H2759 C2768 0.950 . S
H2760 C2770 0.950 . S
H2761 C2772 0.950 . S
H2762 C2774 0.950 . S
H2763 C2775 0.950 . S
C2764 H2756 0.950 . S
C2764 C2765 1.386 . S
C2764 C2766 1.391 . S
C2765 C2764 1.386 . S
C2765 C2769 1.393 . S
C2766 H2758 0.950 . S
C2766 C2764 1.391 . S
C2766 C2767 1.400 . S
C2767 C2766 1.400 . S
C2767 C2768 1.398 . S
C2767 C2773 1.491 . S
C2768 H2759 0.950 . S
C2768 C2767 1.398 . S
C2768 C2769 1.391 . S
C2769 H2757 0.950 . S
C2769 C2765 1.393 . S
C2769 C2768 1.391 . S
C2770 H2760 0.950 . S
C2770 C2771 1.386 . S
C2770 C2772 1.391 . S
C2771 C2770 1.386 . S
C2771 C2775 1.393 . S
C2772 H2761 0.950 . S
C2772 C2770 1.391 . S
C2772 C2773 1.400 . S
C2773 C2767 1.491 . S
C2773 C2772 1.400 . S
C2773 C2774 1.398 . S
C2774 H2762 0.950 . S
C2774 C2773 1.398 . S
C2774 C2775 1.391 . S
C2775 H2763 0.950 . S
C2775 C2771 1.393 . S
C2775 C2774 1.391 . S
H2776 C2784 0.950 . S
H2777 C2789 0.950 . S
H2778 C2786 0.950 . S
H2779 C2788 0.950 . S
H2780 C2790 0.950 . S
H2781 C2792 0.950 . S
H2782 C2794 0.950 . S
H2783 C2795 0.950 . S
C2784 H2776 0.950 . S
C2784 C2785 1.386 . S
C2784 C2786 1.391 . S
C2785 C2784 1.386 . S
C2785 C2789 1.393 . S
C2786 H2778 0.950 . S
C2786 C2784 1.391 . S
C2786 C2787 1.400 . S
C2787 C2786 1.400 . S
C2787 C2788 1.398 . S
C2787 C2793 1.491 . S
C2788 H2779 0.950 . S
C2788 C2787 1.398 . S
C2788 C2789 1.391 . S
C2789 H2777 0.950 . S
C2789 C2785 1.393 . S
C2789 C2788 1.391 . S
C2790 H2780 0.950 . S
C2790 C2791 1.386 . S
C2790 C2792 1.391 . S
C2791 C2790 1.386 . S
C2791 C2795 1.393 . S
C2792 H2781 0.950 . S
C2792 C2790 1.391 . S
C2792 C2793 1.400 . S
C2793 C2787 1.491 . S
C2793 C2792 1.400 . S
C2793 C2794 1.398 . S
C2794 H2782 0.950 . S
C2794 C2793 1.398 . S
C2794 C2795 1.391 . S
C2795 H2783 0.950 . S
C2795 C2791 1.393 . S
C2795 C2794 1.391 . S
H2796 C2804 0.950 . S
H2797 C2809 0.950 . S
H2798 C2806 0.950 . S
H2799 C2808 0.950 . S
H2800 C2810 0.950 . S
H2801 C2812 0.950 . S
H2802 C2814 0.950 . S
H2803 C2815 0.950 . S
C2804 H2796 0.950 . S
C2804 C2805 1.386 . S
C2804 C2806 1.391 . S
C2805 C2804 1.386 . S
C2805 C2809 1.393 . S
C2806 H2798 0.950 . S
C2806 C2804 1.391 . S
C2806 C2807 1.400 . S
C2807 C2806 1.400 . S
C2807 C2808 1.398 . S
C2807 C2813 1.491 . S
C2808 H2799 0.950 . S
C2808 C2807 1.398 . S
C2808 C2809 1.391 . S
C2809 H2797 0.950 . S
C2809 C2805 1.393 . S
C2809 C2808 1.391 . S
C2810 H2800 0.950 . S
C2810 C2811 1.386 . S
C2810 C2812 1.391 . S
C2811 C2810 1.386 . S
C2811 C2815 1.393 . S
C2812 H2801 0.950 . S
C2812 C2810 1.391 . S
C2812 C2813 1.400 . S
C2813 C2807 1.491 . S
C2813 C2812 1.400 . S
C2813 C2814 1.398 . S
C2814 H2802 0.950 . S
C2814 C2813 1.398 . S
C2814 C2815 1.391 . S
C2815 H2803 0.950 . S
C2815 C2811 1.393 . S
C2815 C2814 1.391 . S
H2816 C2824 0.950 . S
H2817 C2829 0.950 . S
H2818 C2826 0.950 . S
H2819 C2828 0.950 . S
H2820 C2830 0.950 . S
H2821 C2832 0.950 . S
H2822 C2834 0.950 . S
H2823 C2835 0.950 . S
C2824 H2816 0.950 . S
C2824 C2825 1.386 . S
C2824 C2826 1.391 . S
C2825 C2824 1.386 . S
C2825 C2829 1.393 . S
C2826 H2818 0.950 . S
C2826 C2824 1.391 . S
C2826 C2827 1.400 . S
C2827 C2826 1.400 . S
C2827 C2828 1.398 . S
C2827 C2833 1.491 . S
C2828 H2819 0.950 . S
C2828 C2827 1.398 . S
C2828 C2829 1.391 . S
C2829 H2817 0.950 . S
C2829 C2825 1.393 . S
C2829 C2828 1.391 . S
C2830 H2820 0.950 . S
C2830 C2831 1.386 . S
C2830 C2832 1.391 . S
C2831 C2830 1.386 . S
C2831 C2835 1.393 . S
C2832 H2821 0.950 . S
C2832 C2830 1.391 . S
C2832 C2833 1.400 . S
C2833 C2827 1.491 . S
C2833 C2832 1.400 . S
C2833 C2834 1.398 . S
C2834 H2822 0.950 . S
C2834 C2833 1.398 . S
C2834 C2835 1.391 . S
C2835 H2823 0.950 . S
C2835 C2831 1.393 . S
C2835 C2834 1.391 . S
H2836 C2844 0.950 . S
H2837 C2849 0.950 . S
H2838 C2846 0.950 . S
H2839 C2848 0.950 . S
H2840 C2850 0.950 . S
H2841 C2852 0.950 . S
H2842 C2854 0.950 . S
H2843 C2855 0.950 . S
C2844 H2836 0.950 . S
C2844 C2845 1.386 . S
C2844 C2846 1.391 . S
C2845 C2844 1.386 . S
C2845 C2849 1.393 . S
C2846 H2838 0.950 . S
C2846 C2844 1.391 . S
C2846 C2847 1.400 . S
C2847 C2846 1.400 . S
C2847 C2848 1.398 . S
C2847 C2853 1.491 . S
C2848 H2839 0.950 . S
C2848 C2847 1.398 . S
C2848 C2849 1.391 . S
C2849 H2837 0.950 . S
C2849 C2845 1.393 . S
C2849 C2848 1.391 . S
C2850 H2840 0.950 . S
C2850 C2851 1.386 . S
C2850 C2852 1.391 . S
C2851 C2850 1.386 . S
C2851 C2855 1.393 . S
C2852 H2841 0.950 . S
C2852 C2850 1.391 . S
C2852 C2853 1.400 . S
C2853 C2847 1.491 . S
C2853 C2852 1.400 . S
C2853 C2854 1.398 . S
C2854 H2842 0.950 . S
C2854 C2853 1.398 . S
C2854 C2855 1.391 . S
C2855 H2843 0.950 . S
C2855 C2851 1.393 . S
C2855 C2854 1.391 . S
H2856 C2864 0.950 . S
H2857 C2869 0.950 . S
H2858 C2866 0.950 . S
H2859 C2868 0.950 . S
H2860 C2870 0.950 . S
H2861 C2872 0.950 . S
H2862 C2874 0.950 . S
H2863 C2875 0.950 . S
C2864 H2856 0.950 . S
C2864 C2865 1.386 . S
C2864 C2866 1.391 . S
C2865 C2864 1.386 . S
C2865 C2869 1.393 . S
C2866 H2858 0.950 . S
C2866 C2864 1.391 . S
C2866 C2867 1.400 . S
C2867 C2866 1.400 . S
C2867 C2868 1.398 . S
C2867 C2873 1.491 . S
C2868 H2859 0.950 . S
C2868 C2867 1.398 . S
C2868 C2869 1.391 . S
C2869 H2857 0.950 . S
C2869 C2865 1.393 . S
C2869 C2868 1.391 . S
C2870 H2860 0.950 . S
C2870 C2871 1.386 . S
C2870 C2872 1.391 . S
C2871 C2870 1.386 . S
C2871 C2875 1.393 . S
C2872 H2861 0.950 . S
C2872 C2870 1.391 . S
C2872 C2873 1.400 . S
C2873 C2867 1.491 . S
C2873 C2872 1.400 . S
C2873 C2874 1.398 . S
C2874 H2862 0.950 . S
C2874 C2873 1.398 . S
C2874 C2875 1.391 . S
C2875 H2863 0.950 . S
C2875 C2871 1.393 . S
C2875 C2874 1.391 . S
H2876 C2884 0.950 . S
H2877 C2889 0.950 . S
H2878 C2886 0.950 . S
H2879 C2888 0.950 . S
H2880 C2890 0.950 . S
H2881 C2892 0.950 . S
H2882 C2894 0.950 . S
H2883 C2895 0.950 . S
C2884 H2876 0.950 . S
C2884 C2885 1.386 . S
C2884 C2886 1.391 . S
C2885 C2884 1.386 . S
C2885 C2889 1.393 . S
C2886 H2878 0.950 . S
C2886 C2884 1.391 . S
C2886 C2887 1.400 . S
C2887 C2886 1.400 . S
C2887 C2888 1.398 . S
C2887 C2893 1.491 . S
C2888 H2879 0.950 . S
C2888 C2887 1.398 . S
C2888 C2889 1.391 . S
C2889 H2877 0.950 . S
C2889 C2885 1.393 . S
C2889 C2888 1.391 . S
C2890 H2880 0.950 . S
C2890 C2891 1.386 . S
C2890 C2892 1.391 . S
C2891 C2890 1.386 . S
C2891 C2895 1.393 . S
C2892 H2881 0.950 . S
C2892 C2890 1.391 . S
C2892 C2893 1.400 . S
C2893 C2887 1.491 . S
C2893 C2892 1.400 . S
C2893 C2894 1.398 . S
C2894 H2882 0.950 . S
C2894 C2893 1.398 . S
C2894 C2895 1.391 . S
C2895 H2883 0.950 . S
C2895 C2891 1.393 . S
C2895 C2894 1.391 . S
H2896 C2904 0.950 . S
H2897 C2909 0.950 . S
H2898 C2906 0.950 . S
H2899 C2908 0.950 . S
H2900 C2910 0.950 . S
H2901 C2912 0.950 . S
H2902 C2914 0.950 . S
H2903 C2915 0.950 . S
C2904 H2896 0.950 . S
C2904 C2905 1.386 . S
C2904 C2906 1.391 . S
C2905 C2904 1.386 . S
C2905 C2909 1.393 . S
C2906 H2898 0.950 . S
C2906 C2904 1.391 . S
C2906 C2907 1.400 . S
C2907 C2906 1.400 . S
C2907 C2908 1.398 . S
C2907 C2913 1.491 . S
C2908 H2899 0.950 . S
C2908 C2907 1.398 . S
C2908 C2909 1.391 . S
C2909 H2897 0.950 . S
C2909 C2905 1.393 . S
C2909 C2908 1.391 . S
C2910 H2900 0.950 . S
C2910 C2911 1.386 . S
C2910 C2912 1.391 . S
C2911 C2910 1.386 . S
C2911 C2915 1.393 . S
C2912 H2901 0.950 . S
C2912 C2910 1.391 . S
C2912 C2913 1.400 . S
C2913 C2907 1.491 . S
C2913 C2912 1.400 . S
C2913 C2914 1.398 . S
C2914 H2902 0.950 . S
C2914 C2913 1.398 . S
C2914 C2915 1.391 . S
C2915 H2903 0.950 . S
C2915 C2911 1.393 . S
C2915 C2914 1.391 . S
H2916 C2924 0.950 . S
H2917 C2929 0.950 . S
H2918 C2926 0.950 . S
H2919 C2928 0.950 . S
H2920 C2930 0.950 . S
H2921 C2932 0.950 . S
H2922 C2934 0.950 . S
H2923 C2935 0.950 . S
C2924 H2916 0.950 . S
C2924 C2925 1.386 . S
C2924 C2926 1.391 . S
C2925 C2924 1.386 . S
C2925 C2929 1.393 . S
C2926 H2918 0.950 . S
C2926 C2924 1.391 . S
C2926 C2927 1.400 . S
C2927 C2926 1.400 . S
C2927 C2928 1.398 . S
C2927 C2933 1.491 . S
C2928 H2919 0.950 . S
C2928 C2927 1.398 . S
C2928 C2929 1.391 . S
C2929 H2917 0.950 . S
C2929 C2925 1.393 . S
C2929 C2928 1.391 . S
C2930 H2920 0.950 . S
C2930 C2931 1.386 . S
C2930 C2932 1.391 . S
C2931 C2930 1.386 . S
C2931 C2935 1.393 . S
C2932 H2921 0.950 . S
C2932 C2930 1.391 . S
C2932 C2933 1.400 . S
C2933 C2927 1.491 . S
C2933 C2932 1.400 . S
C2933 C2934 1.398 . S
C2934 H2922 0.950 . S
C2934 C2933 1.398 . S
C2934 C2935 1.391 . S
C2935 H2923 0.950 . S
C2935 C2931 1.393 . S
C2935 C2934 1.391 . S
H2936 C2944 0.950 . S
H2937 C2949 0.950 . S
H2938 C2946 0.950 . S
H2939 C2948 0.950 . S
H2940 C2950 0.950 . S
H2941 C2952 0.950 . S
H2942 C2954 0.950 . S
H2943 C2955 0.950 . S
C2944 H2936 0.950 . S
C2944 C2945 1.386 . S
C2944 C2946 1.391 . S
C2945 C2944 1.386 . S
C2945 C2949 1.393 . S
C2946 H2938 0.950 . S
C2946 C2944 1.391 . S
C2946 C2947 1.400 . S
C2947 C2946 1.400 . S
C2947 C2948 1.398 . S
C2947 C2953 1.491 . S
C2948 H2939 0.950 . S
C2948 C2947 1.398 . S
C2948 C2949 1.391 . S
C2949 H2937 0.950 . S
C2949 C2945 1.393 . S
C2949 C2948 1.391 . S
C2950 H2940 0.950 . S
C2950 C2951 1.386 . S
C2950 C2952 1.391 . S
C2951 C2950 1.386 . S
C2951 C2955 1.393 . S
C2952 H2941 0.950 . S
C2952 C2950 1.391 . S
C2952 C2953 1.400 . S
C2953 C2947 1.491 . S
C2953 C2952 1.400 . S
C2953 C2954 1.398 . S
C2954 H2942 0.950 . S
C2954 C2953 1.398 . S
C2954 C2955 1.391 . S
C2955 H2943 0.950 . S
C2955 C2951 1.393 . S
C2955 C2954 1.391 . S
H2956 C2964 0.950 . S
H2957 C2969 0.950 . S
H2958 C2966 0.950 . S
H2959 C2968 0.950 . S
H2960 C2970 0.950 . S
H2961 C2972 0.950 . S
H2962 C2974 0.950 . S
H2963 C2975 0.950 . S
C2964 H2956 0.950 . S
C2964 C2965 1.386 . S
C2964 C2966 1.391 . S
C2965 C2964 1.386 . S
C2965 C2969 1.393 . S
C2966 H2958 0.950 . S
C2966 C2964 1.391 . S
C2966 C2967 1.400 . S
C2967 C2966 1.400 . S
C2967 C2968 1.398 . S
C2967 C2973 1.491 . S
C2968 H2959 0.950 . S
C2968 C2967 1.398 . S
C2968 C2969 1.391 . S
C2969 H2957 0.950 . S
C2969 C2965 1.393 . S
C2969 C2968 1.391 . S
C2970 H2960 0.950 . S
C2970 C2971 1.386 . S
C2970 C2972 1.391 . S
C2971 C2970 1.386 . S
C2971 C2975 1.393 . S
C2972 H2961 0.950 . S
C2972 C2970 1.391 . S
C2972 C2973 1.400 . S
C2973 C2967 1.491 . S
C2973 C2972 1.400 . S
C2973 C2974 1.398 . S
C2974 H2962 0.950 . S
C2974 C2973 1.398 . S
C2974 C2975 1.391 . S
C2975 H2963 0.950 . S
C2975 C2971 1.393 . S
C2975 C2974 1.391 . S
C1705 C38 1.817 . S
C1711 C144 1.821 . S
C1725 C197 1.803 . S
C1731 C91 1.808 . S
C1745 C356 1.818 . S
C1751 C250 1.820 . S
C1765 C409 1.814 . S
C1771 C303 1.809 . S
C1785 C462 1.824 . S
C1791 C568 1.826 . S
C1805 C621 1.798 . S
C1811 C515 1.796 . S
C1825 C674 1.820 . S
C1831 C780 1.818 . S
C1845 C833 1.804 . S
C1851 C727 1.806 . S
C1865 C886 1.784 . S
C1871 C992 1.788 . S
C1885 C939 1.817 . S
C1891 C1045 1.812 . S
C1905 C1204 1.794 . S
C1911 C1098 1.791 . S
C1925 C1151 1.827 . S
C1931 C1257 1.828 . S
C1945 C1416 1.775 . S
C1951 C1310 1.774 . S
C1965 C1469 1.820 . S
C1971 C1363 1.822 . S
C1985 C1628 1.790 . S
C1991 C1522 1.793 . S
C2005 C1575 1.828 . S
C2011 C1681 1.826 . S
C2025 C1347 2.028 . S
C2031 C22 2.030 . S
C2045 C75 2.023 . S
C2051 C1294 2.016 . S
C2065 C128 2.028 . S
C2071 C1453 2.030 . S
C2085 C181 2.022 . S
C2091 C1400 2.013 . S
C2105 C1559 2.029 . S
C2111 C234 2.026 . S
C2125 C287 2.021 . S
C2131 C1506 2.014 . S
C2145 C340 2.025 . S
C2151 C1665 2.023 . S
C2165 C1612 2.022 . S
C2171 C393 2.013 . S
C2185 C446 2.026 . S
C2191 C923 2.028 . S
C2205 C499 2.019 . S
C2211 C870 2.014 . S
C2225 C552 2.027 . S
C2231 C1029 2.026 . S
C2245 C605 2.021 . S
C2251 C976 2.013 . S
C2265 C658 2.024 . S
C2271 C1135 2.028 . S
C2285 C1082 2.019 . S
C2291 C711 2.016 . S
C2305 C1241 2.029 . S
C2311 C764 2.025 . S
C2325 C817 2.022 . S
C2331 C1188 2.013 . S
C2345 C39 1.857 . S
C2351 C251 1.850 . S
C2365 C92 1.839 . S
C2371 C1576 1.830 . S
C2385 C145 1.860 . S
C2391 C781 1.853 . S
C2405 C198 1.844 . S
C2411 C1258 1.836 . S
C2425 C304 1.833 . S
C2431 C1364 1.839 . S
C2445 C569 1.847 . S
C2451 C357 1.839 . S
C2465 C1046 1.841 . S
C2471 C410 1.835 . S
C2485 C675 1.854 . S
C2491 C463 1.862 . S
C2505 C516 1.845 . S
C2511 C1152 1.837 . S
C2525 C1682 1.825 . S
C2531 C622 1.834 . S
C2545 C728 1.844 . S
C2551 C940 1.850 . S
C2565 C834 1.846 . S
C2571 C1470 1.852 . S
C2585 C1099 1.806 . S
C2591 C887 1.814 . S
C2605 C993 1.832 . S
C2611 C1629 1.826 . S
C2625 C1417 1.815 . S
C2631 C1205 1.808 . S
C2645 C1523 1.811 . S
C2651 C1311 1.818 . S
C2665 C29 1.057 . S
C2671 C82 1.053 . S
C2685 C135 1.044 . S
C2691 C188 1.041 . S
C2705 C241 1.057 . S
C2711 C294 1.050 . S
C2725 C347 1.056 . S
C2731 C400 1.048 . S
C2745 C506 1.056 . S
C2751 C453 1.056 . S
C2765 C559 1.050 . S
C2771 C612 1.056 . S
C2785 C665 1.057 . S
C2791 C718 1.056 . S
C2805 C771 1.057 . S
C2811 C824 1.052 . S
C2825 C877 1.057 . S
C2831 C930 1.070 . S
C2845 C1036 1.068 . S
C2851 C983 1.067 . S
C2865 C1089 1.072 . S
C2871 C1142 1.076 . S
C2885 C1195 1.068 . S
C2891 C1248 1.067 . S
C2905 C1354 1.066 . S
C2911 C1301 1.077 . S
C2925 C1407 1.063 . S
C2931 C1460 1.064 . S
C2945 C1566 1.061 . S
C2951 C1513 1.065 . S
C2965 C1619 1.071 . S
C2971 C1672 1.078 . S
