# Generated by pormake.
# Topology dmp, (4)-cn, num edge types: 1
# Building blocks:
#     Node 0, Type 0, BuildingBlock: NAHDIM_clean_sbu_0, # of connection points: 4
#     Node 1, Type 0, BuildingBlock: NAHDIM_clean_sbu_0, # of connection points: 4
#     Node 2, Type 0, BuildingBlock: NAHDIM_clean_sbu_0, # of connection points: 4
#     Node 3, Type 0, BuildingBlock: NAHDIM_clean_sbu_0, # of connection points: 4
#     Edge 4, Type (0, 0), BuildingBlock: MIFKUJ_clean_linker_0, # of connection points: 2
#     Edge 5, Type (0, 0), BuildingBlock: MIFKUJ_clean_linker_0, # of connection points: 2
#     Edge 6, Type (0, 0), BuildingBlock: MIFKUJ_clean_linker_0, # of connection points: 2
#     Edge 7, Type (0, 0), BuildingBlock: MIFKUJ_clean_linker_0, # of connection points: 2
#     Edge 8, Type (0, 0), BuildingBlock: MIFKUJ_clean_linker_0, # of connection points: 2
#     Edge 9, Type (0, 0), BuildingBlock: MIFKUJ_clean_linker_0, # of connection points: 2
#     Edge 10, Type (0, 0), BuildingBlock: MIFKUJ_clean_linker_0, # of connection points: 2
#     Edge 11, Type (0, 0), BuildingBlock: MIFKUJ_clean_linker_0, # of connection points: 2
# Relax obj value: 0.250
# Max RMSD: 0.272
# Mean RMSD: 0.272
data_MOF--net-dmp--node1-NAHDIM_clean_sbu_0--edge1-MIFKUJ_clean_linker_0
_symmetry_space_group_name_H-M    P1
_symmetry_Int_Tables_number       1
_symmetry_cell_setting            triclinic
loop_
_symmetry_equiv_pos_as_xyz
'x, y, z'
_cell_length_a     48.220776
_cell_length_b     22.416861
_cell_length_c     24.624136
_cell_angle_alpha  89.986121
_cell_angle_beta   89.910357
_cell_angle_gamma 95.36021
loop_
_atom_site_label
_atom_site_type_symbol
_atom_site_fract_x
_atom_site_fract_y
_atom_site_fract_z
_atom_type_partial_charge
C0 C 0.06091 0.29361 0.32654 0.0
O1 O 0.04612 0.26057 0.29105 0.0
O2 O 0.08373 0.18233 0.23625 0.0
Zn3 Zn 0.10819 0.23514 0.28524 0.0
O4 O 0.13485 0.28689 0.23936 0.0
C5 C 0.12213 0.13304 0.34851 0.0
O6 O 0.09712 0.10973 0.33473 0.0
O7 O 0.08681 0.28855 0.33093 0.0
C8 C 0.15338 0.26448 0.21121 0.0
O9 O 0.15485 0.20625 0.21203 0.0
C10 C 0.07483 0.20355 0.19247 0.0
O11 O 0.0809 0.26062 0.18137 0.0
O12 O 0.13052 0.18559 0.33276 0.0
C13 C 0.43798 0.71398 0.32327 0.0
O14 O 0.45305 0.73862 0.28331 0.0
O15 O 0.41518 0.83673 0.23755 0.0
Zn16 Zn 0.39151 0.77274 0.27746 0.0
O17 O 0.37296 0.71584 0.22322 0.0
C18 C 0.36282 0.85493 0.34556 0.0
O19 O 0.38632 0.88969 0.3453 0.0
O20 O 0.41274 0.72473 0.32828 0.0
C21 C 0.35174 0.72949 0.19719 0.0
O22 O 0.34253 0.78215 0.20508 0.0
C23 C 0.42787 0.82038 0.19565 0.0
O24 O 0.42585 0.76331 0.18259 0.0
O25 O 0.36112 0.80582 0.31967 0.0
C26 C 0.94365 0.72089 0.66833 0.0
O27 O 0.95902 0.75222 0.70413 0.0
O28 O 0.91939 0.81848 0.77189 0.0
Zn29 Zn 0.89575 0.75884 0.72756 0.0
O30 O 0.87625 0.69681 0.77586 0.0
C31 C 0.86568 0.84752 0.66905 0.0
O32 O 0.88905 0.88269 0.66882 0.0
O33 O 0.9173 0.7187 0.67134 0.0
C34 C 0.86062 0.71389 0.81325 0.0
O35 O 0.86018 0.77156 0.82231 0.0
C36 C 0.93253 0.79947 0.81205 0.0
O37 O 0.93089 0.74161 0.82175 0.0
O38 O 0.86494 0.79623 0.69098 0.0
C39 C 0.54744 0.26006 0.64237 0.0
O40 O 0.53346 0.22626 0.67855 0.0
O41 O 0.57385 0.18648 0.75772 0.0
Zn42 Zn 0.59701 0.23357 0.70233 0.0
O43 O 0.61989 0.30175 0.738 0.0
C44 C 0.618 0.12649 0.65825 0.0
O45 O 0.59294 0.10102 0.66903 0.0
O46 O 0.57383 0.26739 0.64484 0.0
C47 C 0.62906 0.30022 0.78629 0.0
O48 O 0.62284 0.25229 0.8162 0.0
C49 C 0.55949 0.21146 0.79286 0.0
O50 O 0.55909 0.26999 0.79215 0.0
O51 O 0.6237 0.1818 0.66837 0.0
H52 H 0.31476 0.78614 0.36872 0.0
H53 H 0.27043 0.82044 0.39698 0.0
H54 H 0.30886 0.00169 0.40754 0.0
H55 H 0.3536 0.96752 0.38017 0.0
H56 H 0.26718 0.97575 0.48626 0.0
H57 H 0.28029 0.95473 0.29148 0.0
H58 H 0.29056 0.89819 0.20906 0.0
H59 H 0.22082 0.76994 0.24257 0.0
H60 H 0.21041 0.8253 0.32573 0.0
H61 H 0.17294 0.17088 0.39051 0.0
H62 H 0.20925 0.1089 0.41814 0.0
H63 H 0.15302 0.94977 0.39424 0.0
H64 H 0.11646 0.0118 0.3658 0.0
H65 H 0.19902 0.94684 0.33557 0.0
H66 H 0.17989 0.9828 0.52014 0.0
H67 H 0.16986 0.04068 0.60177 0.0
H68 H 0.24969 0.14181 0.58824 0.0
H69 H 0.26007 0.08519 0.50601 0.0
C70 C 0.31394 0.83317 0.37806 0.0
C71 C 0.3375 0.87444 0.37116 0.0
C72 C 0.28862 0.85257 0.39442 0.0
C73 C 0.28633 0.91365 0.40338 0.0
C74 C 0.31026 0.95432 0.40071 0.0
C75 C 0.33575 0.93482 0.38477 0.0
C76 C 0.25856 0.93614 0.40778 0.0
C77 C 0.25219 0.96966 0.45346 0.0
C78 C 0.2388 0.92647 0.36552 0.0
C79 C 0.24478 0.89372 0.31511 0.0
C80 C 0.26727 0.91425 0.28145 0.0
C81 C 0.2731 0.88244 0.23461 0.0
C82 C 0.2564 0.83041 0.22068 0.0
C83 C 0.23377 0.81018 0.25349 0.0
C84 C 0.2279 0.84174 0.30047 0.0
C85 C 0.16804 0.12277 0.39228 0.0
C86 C 0.14198 0.09615 0.37515 0.0
C87 C 0.18878 0.08736 0.40864 0.0
C88 C 0.18382 0.0247 0.40843 0.0
C89 C 0.15722 -0.0019 0.3948 0.0
C90 C 0.13637 0.03359 0.37856 0.0
C91 C 0.20761 0.98787 0.4137 0.0
C92 C 0.21346 0.95176 0.36939 0.0
C93 C 0.22679 -0.00456 0.45718 0.0
C94 C 0.2207 0.02985 0.50664 0.0
C95 C 0.19524 0.01769 0.53428 0.0
C96 C 0.1895 0.05024 0.58074 0.0
C97 C 0.20911 0.09495 0.60014 0.0
C98 C 0.23452 0.10715 0.57316 0.0
C99 C 0.24036 0.07475 0.52667 0.0
H100 H 0.20463 0.12008 0.63612 0.0
H101 H 0.26092 0.80589 0.18437 0.0
H102 H 0.15222 0.3836 0.19092 0.0
H103 H 0.1897 0.4525 0.15458 0.0
H104 H 0.23998 0.30542 0.12957 0.0
H105 H 0.20242 0.2358 0.1664 0.0
H106 H 0.26622 0.39293 0.18992 0.0
H107 H 0.22018 0.38341 0.02054 0.0
H108 H 0.18068 0.38234 0.95704 0.0
H109 H 0.16731 0.56206 0.00337 0.0
H110 H 0.20646 0.56398 0.06779 0.0
H111 H 0.36923 0.62814 0.15256 0.0
H112 H 0.33968 0.54125 0.1192 0.0
H113 H 0.267 0.63724 0.14198 0.0
H114 H 0.2965 0.72485 0.17305 0.0
H115 H 0.25877 0.5597 0.05977 0.0
H116 H 0.29356 0.55404 0.24642 0.0
H117 H 0.33134 0.55704 0.31416 0.0
H118 H 0.36379 0.40592 0.23782 0.0
H119 H 0.32632 0.40249 0.16926 0.0
C120 C 0.17104 0.36564 0.1768 0.0
C121 C 0.17451 0.30439 0.18211 0.0
C122 C 0.19236 0.40505 0.15548 0.0
C123 C 0.21754 0.38401 0.13892 0.0
C124 C 0.22062 0.32244 0.14183 0.0
C125 C 0.19917 0.2828 0.16292 0.0
C126 C 0.24164 0.42765 0.12627 0.0
C127 C 0.265 0.42832 0.16017 0.0
C128 C 0.23979 0.47436 0.08816 0.0
C129 C 0.21627 0.47374 0.04918 0.0
C130 C 0.20873 0.42261 0.01747 0.0
C131 C 0.1864 0.42186 0.98125 0.0
C132 C 0.17149 0.47209 0.97619 0.0
C133 C 0.1789 0.5232 0.00729 0.0
C134 C 0.20121 0.52418 0.04359 0.0
C135 C 0.34701 0.63118 0.14895 0.0
C136 C 0.33503 0.68266 0.16641 0.0
C137 C 0.33018 0.58158 0.12988 0.0
C138 C 0.3011 0.58224 0.12955 0.0
C139 C 0.28939 0.63561 0.14213 0.0
C140 C 0.30626 0.68563 0.16015 0.0
C141 C 0.28265 0.52584 0.12478 0.0
C142 C 0.26039 0.52299 0.08793 0.0
C143 C 0.28526 0.47721 0.16061 0.0
C144 C 0.30738 0.47844 0.20245 0.0
C145 C 0.30882 0.5216 0.24403 0.0
C146 C 0.33016 0.52339 0.28253 0.0
C147 C 0.35 0.48181 0.28019 0.0
C148 C 0.34844 0.43817 0.2395 0.0
C149 C 0.32716 0.43626 0.20083 0.0
H150 H 0.36655 0.48333 0.30996 0.0
H151 H 0.1542 0.47141 0.94815 0.0
H152 H 0.61601 0.00445 0.64708 0.0
H153 H 0.65525 0.94534 0.62897 0.0
H154 H 0.70981 0.10811 0.61179 0.0
H155 H 0.67087 0.16726 0.62889 0.0
H156 H 0.72325 0.02466 0.54006 0.0
H157 H 0.70175 0.03536 0.73203 0.0
H158 H 0.67268 0.01959 0.81417 0.0
H159 H 0.6643 0.82985 0.78521 0.0
H160 H 0.69287 0.84465 0.70223 0.0
H161 H 0.85633 0.96033 0.63492 0.0
H162 H 0.81136 -0.00371 0.61252 0.0
H163 H 0.7711 0.8177 0.6342 0.0
H164 H 0.81569 0.78167 0.6573 0.0
H165 H 0.74689 0.89526 0.69342 0.0
H166 H 0.7747 0.88383 0.50864 0.0
H167 H 0.80573 0.90037 0.42932 0.0
H168 H 0.80426 0.09066 0.44645 0.0
H169 H 0.77354 0.07533 0.52638 0.0
C170 C 0.63627 0.0276 0.63849 0.0
C171 C 0.64044 0.09048 0.64024 0.0
C172 C 0.65865 0.99379 0.62824 0.0
C173 C 0.68548 0.02241 0.61987 0.0
C174 C 0.68928 0.08514 0.61823 0.0
C175 C 0.667 0.11888 0.62839 0.0
C176 C 0.71016 0.98791 0.61781 0.0
C177 C 0.72849 -0.00368 0.57353 0.0
C178 C 0.71661 0.94993 0.66101 0.0
C179 C 0.69901 0.94123 0.71037 0.0
C180 C 0.69339 0.99036 0.74276 0.0
C181 C 0.67705 0.98159 0.78954 0.0
C182 C 0.66652 0.92379 0.80474 0.0
C183 C 0.67234 0.87463 0.77323 0.0
C184 C 0.68856 0.8832 0.72628 0.0
C185 C 0.83798 0.92857 0.63393 0.0
C186 C 0.83952 0.86838 0.64845 0.0
C187 C 0.81232 0.94906 0.6208 0.0
C188 C 0.78792 0.90954 0.62145 0.0
C189 C 0.78967 0.8489 0.63343 0.0
C190 C 0.81521 0.82848 0.64673 0.0
C191 C 0.7603 0.93262 0.61604 0.0
C192 C 0.74143 0.92231 0.65918 0.0
C193 C 0.75349 0.96889 0.57194 0.0
C194 C 0.77195 0.97839 0.52379 0.0
C195 C 0.78116 0.92923 0.49577 0.0
C196 C 0.79866 0.93839 0.45064 0.0
C197 C 0.807 -0.00347 0.43292 0.0
C198 C 0.79779 0.04564 0.46023 0.0
C199 C 0.7803 0.03673 0.50542 0.0
H200 H 0.82055 0.00352 0.39796 0.0
H201 H 0.65393 0.91708 0.84105 0.0
H202 H 0.85245 0.59372 0.79437 0.0
H203 H 0.81109 0.52772 0.81645 0.0
H204 H 0.77864 0.66895 0.90938 0.0
H205 H 0.81984 0.73621 0.88609 0.0
H206 H 0.78267 0.48088 0.89872 0.0
H207 H 0.70832 0.66656 0.87937 0.0
H208 H 0.70721 0.76795 0.84056 0.0
H209 H 0.76827 0.72959 0.72159 0.0
H210 H 0.76938 0.62776 0.75911 0.0
H211 H 0.64898 0.31866 0.88978 0.0
H212 H 0.68509 0.39574 0.91978 0.0
H213 H 0.69035 0.46845 0.75733 0.0
H214 H 0.65381 0.39358 0.72784 0.0
H215 H 0.69675 0.55578 0.82482 0.0
H216 H 0.73477 0.36403 0.80579 0.0
H217 H 0.73819 0.2572 0.8262 0.0
H218 H 0.75405 0.30017 0.99392 0.0
H219 H 0.75041 0.40725 0.97452 0.0
C220 C 0.83684 0.61052 0.82048 0.0
C221 C 0.83912 0.67062 0.83743 0.0
C222 C 0.81322 0.57255 0.83333 0.0
C223 C 0.79151 0.59383 0.86359 0.0
C224 C 0.79494 0.65203 0.8851 0.0
C225 C 0.81853 0.69032 0.87187 0.0
C226 C 0.76432 0.55729 0.86627 0.0
C227 C 0.76374 0.49752 0.88349 0.0
C228 C 0.73972 0.57877 0.84555 0.0
C229 C 0.73926 0.63995 0.82268 0.0
C230 C 0.7215 0.67983 0.84495 0.0
C231 C 0.72084 0.73731 0.82312 0.0
C232 C 0.73776 0.75529 0.77881 0.0
C233 C 0.75527 0.71571 0.75606 0.0
C234 C 0.75593 0.65813 0.77761 0.0
C235 C 0.6576 0.35167 0.86074 0.0
C236 C 0.64878 0.34966 0.80631 0.0
C237 C 0.67825 0.39559 0.8779 0.0
C238 C 0.69074 0.43736 0.84063 0.0
C239 C 0.68101 0.43689 0.78693 0.0
C240 C 0.66018 0.39372 0.77001 0.0
C241 C 0.71535 0.47877 0.85548 0.0
C242 C 0.7154 0.5396 0.84184 0.0
C243 C 0.7398 0.45764 0.87715 0.0
C244 C 0.74194 0.3934 0.88888 0.0
C245 C 0.73878 0.35058 0.84709 0.0
C246 C 0.74079 0.29003 0.85845 0.0
C247 C 0.74623 0.27188 0.91137 0.0
C248 C 0.74976 0.31428 0.95299 0.0
C249 C 0.74772 0.37489 0.94185 0.0
H250 H 0.74779 0.22499 0.92009 0.0
H251 H 0.73723 0.7998 0.76201 0.0
H252 H 0.06351 0.0822 0.19881 0.0
H253 H 0.03937 0.01585 0.13196 0.0
H254 H 0.02629 0.16804 0.03112 0.0
H255 H 0.05038 0.23503 0.09792 0.0
H256 H 0.97928 0.08674 0.0405 0.0
H257 H 0.07644 0.0851 -0.0018 0.0
H258 H 0.12578 0.07428 0.01838 0.0
H259 H 0.10465 0.8918 0.06729 0.0
H260 H 0.05509 0.90181 0.04815 0.0
H261 H 0.94027 0.92142 0.8031 0.0
H262 H 0.96485 0.99183 0.86623 0.0
H263 H 0.98473 0.8445 0.96731 0.0
H264 H 0.96059 0.77368 0.904 0.0
H265 H 0.02881 0.926 0.95576 0.0
H266 H 0.93202 0.92717 0.00118 0.0
H267 H 0.88235 0.93694 0.98325 0.0
H268 H 0.90229 0.11864 0.9309 0.0
H269 H 0.95216 0.10966 0.94779 0.0
C270 C 0.05539 0.10167 0.16257 0.0
C271 C 0.05897 0.16383 0.15346 0.0
C272 C 0.0417 0.06366 0.12437 0.0
C273 C 0.0314 0.08711 0.07644 0.0
C274 C 0.03422 0.14922 0.06787 0.0
C275 C 0.04803 0.18732 0.10597 0.0
C276 C 0.01802 0.04652 0.03497 0.0
C277 C 0.99018 0.05213 0.0213 0.0
C278 C 0.03219 0.00068 0.01103 0.0
C279 C 0.06201 0.99439 0.02221 0.0
C280 C 0.08228 0.04281 0.01366 0.0
C281 C 0.1103 0.0368 0.02484 0.0
C282 C 0.11834 0.98243 0.04423 0.0
C283 C 0.09839 0.93391 0.05233 0.0
C284 C 0.07033 0.93971 0.04127 0.0
C285 C 0.94998 0.90396 0.83863 0.0
C286 C 0.94838 0.842 0.84874 0.0
C287 C 0.9639 0.94427 0.87475 0.0
C288 C 0.97625 0.92334 0.92176 0.0
C289 C 0.97526 0.86149 0.93128 0.0
C290 C 0.96141 0.82114 0.89512 0.0
C291 C 0.98997 0.96592 0.9614 0.0
C292 C 0.0179 0.96072 0.97475 0.0
C293 C 0.97583 0.01194 0.98525 0.0
C294 C 0.94585 0.01752 0.97519 0.0
C295 C 0.92584 0.96905 0.98541 0.0
C296 C 0.89765 0.97447 0.97551 0.0
C297 C 0.88918 0.02832 0.9558 0.0
C298 C 0.90888 0.07692 0.94608 0.0
C299 C 0.93711 0.0717 0.95584 0.0
H300 H 0.86734 0.03244 0.94817 0.0
H301 H 0.14004 0.97786 0.05286 0.0
H302 H 0.52744 0.24955 0.87558 0.0
H303 H 0.50373 0.1882 0.94708 0.0
H304 H 0.53427 0.03001 0.87787 0.0
H305 H 0.55758 0.09051 0.80609 0.0
H306 H 0.48021 0.01088 0.90425 0.0
H307 H 0.56475 0.09793 0.98937 0.0
H308 H 0.59834 0.18123 0.019 0.0
H309 H 0.53504 0.25174 0.11634 0.0
H310 H 0.50096 0.16924 0.08666 0.0
H311 H 0.46229 0.79888 0.11168 0.0
H312 H 0.48395 0.8712 0.04684 0.0
H313 H 0.4488 0.01456 0.13209 0.0
H314 H 0.42747 0.9424 0.19811 0.0
H315 H 0.50165 0.04758 0.09914 0.0
H316 H 0.41782 0.95675 0.01822 0.0
H317 H 0.38446 0.87289 0.98892 0.0
H318 H 0.44633 0.80967 0.88333 0.0
H319 H 0.4802 0.89269 0.91259 0.0
C320 C 0.52901 0.20167 0.87552 0.0
C321 C 0.54442 0.17488 0.83528 0.0
C322 C 0.51556 0.16678 0.9165 0.0
C323 C 0.5175 0.10471 0.91799 0.0
C324 C 0.53252 0.07786 0.87741 0.0
C325 C 0.54588 0.11257 0.83648 0.0
C326 C 0.50395 0.0672 0.96167 0.0
C327 C 0.48507 0.01859 0.94683 0.0
C328 C 0.50973 0.07841 0.01725 0.0
C329 C 0.53024 0.12781 0.03532 0.0
C330 C 0.55794 0.13146 0.01675 0.0
C331 C 0.57708 0.17848 0.03361 0.0
C332 C 0.56881 0.22185 0.0694 0.0
C333 C 0.54141 0.21818 0.08854 0.0
C334 C 0.52218 0.17129 0.07174 0.0
C335 C 0.45932 0.84584 0.11694 0.0
C336 C 0.44294 0.86492 0.15962 0.0
C337 C 0.47164 0.88707 0.07975 0.0
C338 C 0.46745 0.94798 0.08405 0.0
C339 C 0.45211 0.96763 0.12794 0.0
C340 C 0.43994 0.92638 0.16553 0.0
C341 C 0.47839 0.99055 0.04156 0.0
C342 C 0.49664 0.04017 0.05659 0.0
C343 C 0.47204 0.98035 0.98604 0.0
C344 C 0.45161 0.93072 0.96791 0.0
C345 C 0.42436 0.92476 0.989 0.0
C346 C 0.40536 0.8774 0.97237 0.0
C347 C 0.41329 0.83592 0.93436 0.0
C348 C 0.44022 0.84181 0.91279 0.0
C349 C 0.45932 0.88905 0.92934 0.0
H350 H 0.39854 0.79927 0.92156 0.0
H351 H 0.58366 0.25822 0.08241 0.0
H352 H 0.91795 0.66164 0.58302 0.0
H353 H 0.93796 0.59405 0.51953 0.0
H354 H 0.0181 0.62934 0.5966 0.0
H355 H -0.0017 0.69808 0.66006 0.0
H356 H 0.02232 0.62326 0.48568 0.0
H357 H 0.97682 0.50588 0.62977 0.0
H358 H 0.93746 0.47196 0.68974 0.0
H359 H 0.88871 0.41139 0.55121 0.0
H360 H 0.92767 0.44574 0.49033 0.0
H361 H 0.08594 0.36743 0.40359 0.0
H362 H 0.06534 0.44425 0.45603 0.0
H363 H 0.98652 0.39976 0.37627 0.0
H364 H 0.00691 0.32193 0.32385 0.0
H365 H 0.98047 0.41234 0.48465 0.0
H366 H 0.02685 0.5248 0.34059 0.0
H367 H 0.06616 0.55882 0.28058 0.0
H368 H 0.11323 0.62859 0.41815 0.0
H369 H 0.07434 0.59419 0.47912 0.0
C370 C 0.9399 0.65548 0.58628 0.0
C371 C 0.9565 0.68459 0.627 0.0
C372 C 0.95126 0.61677 0.54999 0.0
C373 C 0.97934 0.60595 0.55412 0.0
C374 C -0.00368 0.63701 0.59302 0.0
C375 C 0.98498 0.6761 0.62927 0.0
C376 C 0.99058 0.56005 0.51952 0.0
C377 C 0.01341 0.57699 0.48581 0.0
C378 C 0.97842 0.50009 0.5189 0.0
C379 C 0.95506 0.47891 0.55548 0.0
C380 C 0.95764 0.48571 0.61208 0.0
C381 C 0.93541 0.46636 0.64623 0.0
C382 C 0.91058 0.43968 0.62429 0.0
C383 C 0.90795 0.43214 0.56814 0.0
C384 C 0.9301 0.4515 0.5338 0.0
C385 C 0.0642 0.37384 0.39714 0.0
C386 C 0.04806 0.33871 0.35941 0.0
C387 C 0.05253 0.41803 0.42695 0.0
C388 C 0.02456 0.42827 0.41932 0.0
C389 C 0.00821 0.39266 0.38244 0.0
C390 C 0.01988 0.34827 0.35257 0.0
C391 C 0.01234 0.47539 0.4509 0.0
C392 C 0.98932 0.45866 0.48418 0.0
C393 C 0.02434 0.53549 0.45107 0.0
C394 C 0.04775 0.55642 0.41449 0.0
C395 C 0.04566 0.54696 0.35811 0.0
C396 C 0.06786 0.5664 0.32391 0.0
C397 C 0.0922 0.59572 0.34555 0.0
C398 C 0.09437 0.60581 0.40144 0.0
C399 C 0.07225 0.58641 0.43584 0.0
H400 H 0.10936 0.61074 0.319 0.0
H401 H 0.89339 0.42474 0.6508 0.0
H402 H 0.48859 0.66842 0.31658 0.0
H403 H 0.50446 0.58589 0.36966 0.0
H404 H 0.42783 0.57314 0.46139 0.0
H405 H 0.41194 0.65589 0.4092 0.0
H406 H 0.47195 0.56327 0.52616 0.0
H407 H 0.43564 0.47495 0.36188 0.0
H408 H 0.43009 0.46369 0.26281 0.0
H409 H 0.51635 0.43314 0.24736 0.0
H410 H 0.52251 0.44502 0.34636 0.0
H411 H 0.49262 0.28225 0.64332 0.0
H412 H 0.47056 0.3533 0.58573 0.0
H413 H 0.54719 0.38947 0.49599 0.0
H414 H 0.56937 0.31877 0.55316 0.0
H415 H 0.49932 0.38297 0.4302 0.0
H416 H 0.53494 0.47859 0.59627 0.0
H417 H 0.53887 0.48868 0.69577 0.0
H418 H 0.4509 0.50323 0.70761 0.0
H419 H 0.44641 0.49235 0.60817 0.0
C420 C 0.47524 0.64848 0.34842 0.0
C421 C 0.44895 0.6684 0.35845 0.0
C422 C 0.48425 0.60111 0.37843 0.0
C423 C 0.46707 0.57288 0.41873 0.0
C424 C 0.4413 0.59419 0.43025 0.0
C425 C 0.43228 0.64145 0.40031 0.0
C426 C 0.4758 0.52057 0.44847 0.0
C427 C 0.47753 0.52348 0.50524 0.0
C428 C 0.48321 0.46891 0.42102 0.0
C429 C 0.47959 0.46142 0.36149 0.0
C430 C 0.45348 0.46629 0.33732 0.0
C431 C 0.45021 0.45971 0.28118 0.0
C432 C 0.47287 0.44786 0.24879 0.0
C433 C 0.49883 0.44239 0.2725 0.0
C434 C 0.50221 0.44897 0.32864 0.0
C435 C 0.50459 0.30448 0.61067 0.0
C436 C 0.5328 0.29556 0.60312 0.0
C437 C 0.492 0.34511 0.57797 0.0
C438 C 0.50742 0.37698 0.5372 0.0
C439 C 0.53501 0.3653 0.52738 0.0
C440 C 0.54767 0.32514 0.56025 0.0
C441 C 0.49573 0.42611 0.50768 0.0
C442 C 0.49348 0.4226 0.451 0.0
C443 C 0.48756 0.477 0.53522 0.0
C444 C 0.49029 0.48397 0.59491 0.0
C445 C 0.51641 0.48345 0.62015 0.0
C446 C 0.51874 0.4894 0.67651 0.0
C447 C 0.49514 0.49641 0.70801 0.0
C448 C 0.46916 0.49768 0.68317 0.0
C449 C 0.46671 0.49165 0.62683 0.0
H450 H 0.49698 0.50102 0.75164 0.0
H451 H 0.47031 0.44279 0.20532 0.0
loop_
_geom_bond_atom_site_label_1
_geom_bond_atom_site_label_2
_geom_bond_distance
_geom_bond_site_symmetry_2
_ccdc_geom_bond_type
C0 O1 1.160 . S
C0 O7 1.185 . S
O1 C0 1.160 . S
O2 Zn3 1.899 . S
O2 C10 1.284 . S
Zn3 O2 1.899 . S
Zn3 O4 2.032 . S
Zn3 O7 2.086 . S
Zn3 O12 1.977 . S
O4 Zn3 2.032 . S
O4 C8 1.278 . S
C5 O6 1.203 . S
C5 O12 1.267 . S
O6 C5 1.203 . S
O7 C0 1.185 . S
O7 Zn3 2.086 . S
C8 O4 1.278 . S
C8 O9 1.211 . S
O9 C8 1.211 . S
C10 O2 1.284 . S
C10 O11 1.273 . S
O11 C10 1.273 . S
O12 Zn3 1.977 . S
O12 C5 1.267 . S
C13 O14 1.160 . S
C13 O20 1.185 . S
O14 C13 1.160 . S
O15 Zn16 1.899 . S
O15 C23 1.284 . S
Zn16 O15 1.899 . S
Zn16 O17 2.032 . S
Zn16 O20 2.086 . S
Zn16 O25 1.977 . S
O17 Zn16 2.032 . S
O17 C21 1.278 . S
C18 O19 1.203 . S
C18 O25 1.267 . S
O19 C18 1.203 . S
O20 C13 1.185 . S
O20 Zn16 2.086 . S
C21 O17 1.278 . S
C21 O22 1.211 . S
O22 C21 1.211 . S
C23 O15 1.284 . S
C23 O24 1.273 . S
O24 C23 1.273 . S
O25 Zn16 1.977 . S
O25 C18 1.267 . S
C26 O27 1.160 . S
C26 O33 1.185 . S
O27 C26 1.160 . S
O28 Zn29 1.899 . S
O28 C36 1.284 . S
Zn29 O28 1.899 . S
Zn29 O30 2.032 . S
Zn29 O33 2.086 . S
Zn29 O38 1.977 . S
O30 Zn29 2.032 . S
O30 C34 1.278 . S
C31 O32 1.203 . S
C31 O38 1.267 . S
O32 C31 1.203 . S
O33 C26 1.185 . S
O33 Zn29 2.086 . S
C34 O30 1.278 . S
C34 O35 1.211 . S
O35 C34 1.211 . S
C36 O28 1.284 . S
C36 O37 1.273 . S
O37 C36 1.273 . S
O38 Zn29 1.977 . S
O38 C31 1.267 . S
C39 O40 1.160 . S
C39 O46 1.185 . S
O40 C39 1.160 . S
O41 Zn42 1.899 . S
O41 C49 1.284 . S
Zn42 O41 1.899 . S
Zn42 O43 2.032 . S
Zn42 O46 2.086 . S
Zn42 O51 1.977 . S
O43 Zn42 2.032 . S
O43 C47 1.278 . S
C44 O45 1.203 . S
C44 O51 1.267 . S
O45 C44 1.203 . S
O46 C39 1.185 . S
O46 Zn42 2.086 . S
C47 O43 1.278 . S
C47 O48 1.211 . S
O48 C47 1.211 . S
C49 O41 1.284 . S
C49 O50 1.273 . S
O50 C49 1.273 . S
O51 Zn42 1.977 . S
O51 C44 1.267 . S
H52 C70 0.951 . S
H53 C72 0.951 . S
H54 C74 0.950 . S
H55 C75 0.950 . S
H56 C77 0.950 . S
H57 C80 0.950 . S
H58 C81 0.950 . S
H59 C83 0.950 . S
H60 C84 0.950 . S
H61 C85 0.951 . S
H62 C87 0.951 . S
H63 C89 0.950 . S
H64 C90 0.950 . S
H65 C92 0.950 . S
H66 C95 0.950 . S
H67 C96 0.950 . S
H68 C98 0.950 . S
H69 C99 0.950 . S
C70 H52 0.951 . S
C70 C71 1.366 . S
C70 C72 1.388 . S
C71 C70 1.366 . S
C71 C75 1.385 . S
C72 H53 0.951 . S
C72 C70 1.388 . S
C72 C73 1.366 . S
C73 C72 1.366 . S
C73 C74 1.414 . S
C73 C76 1.499 . S
C74 H54 0.950 . S
C74 C73 1.414 . S
C74 C75 1.374 . S
C75 H55 0.950 . S
C75 C71 1.385 . S
C75 C74 1.374 . S
C76 C73 1.499 . S
C76 C77 1.373 . S
C76 C78 1.389 . S
C77 H56 0.950 . S
C77 C76 1.373 . S
C77 C93 1.377 1_565 S
C78 C76 1.389 . S
C78 C79 1.524 . S
C78 C92 1.377 1_565 S
C79 C78 1.524 . S
C79 C80 1.397 1_565 S
C79 C84 1.363 . S
C80 H57 0.950 . S
C80 C79 1.397 1_545 S
C80 C81 1.334 . S
C81 H58 0.950 . S
C81 C80 1.334 . S
C81 C82 1.287 . S
C82 C81 1.287 . S
C82 C83 1.524 1_545 S
C82 H101 0.913 . S
C83 H59 0.950 . S
C83 C82 1.524 1_565 S
C83 C84 1.415 . S
C84 H60 0.950 . S
C84 C79 1.363 . S
C84 C83 1.415 . S
C85 H61 0.951 . S
C85 C86 1.366 . S
C85 C87 1.388 . S
C86 C85 1.366 . S
C86 C90 1.385 . S
C87 H62 0.951 . S
C87 C85 1.388 . S
C87 C88 1.366 . S
C88 C87 1.366 . S
C88 C89 1.414 . S
C88 C91 1.499 . S
C89 H63 0.950 . S
C89 C88 1.414 . S
C89 C90 1.374 . S
C90 H64 0.950 . S
C90 C86 1.385 . S
C90 C89 1.374 . S
C91 C88 1.499 . S
C91 C92 1.373 . S
C91 C93 1.389 . S
C92 H65 0.950 . S
C92 C78 1.377 1_545 S
C92 C91 1.373 . S
C93 C77 1.377 1_545 S
C93 C91 1.389 . S
C93 C94 1.524 . S
C94 C93 1.524 . S
C94 C95 1.397 1_545 S
C94 C99 1.363 . S
C95 H66 0.950 . S
C95 C94 1.397 1_565 S
C95 C96 1.334 . S
C96 H67 0.950 . S
C96 C95 1.334 . S
C96 C97 1.287 . S
C97 C96 1.287 . S
C97 C98 1.524 1_565 S
C97 H100 0.999 . S
C98 H68 0.950 . S
C98 C97 1.524 1_545 S
C98 C99 1.415 . S
C99 H69 0.950 . S
C99 C94 1.363 . S
C99 C98 1.415 . S
H100 C97 0.999 . S
H101 C82 0.913 . S
H102 C120 0.951 . S
H103 C122 0.951 . S
H104 C124 0.950 . S
H105 C125 0.950 . S
H106 C127 0.950 . S
H107 C130 0.950 . S
H108 C131 0.950 . S
H109 C133 0.950 . S
H110 C134 0.950 . S
H111 C135 0.951 . S
H112 C137 0.951 . S
H113 C139 0.950 . S
H114 C140 0.950 . S
H115 C142 0.950 . S
H116 C145 0.950 . S
H117 C146 0.950 . S
H118 C148 0.950 . S
H119 C149 0.950 . S
C120 H102 0.951 . S
C120 C121 1.366 . S
C120 C122 1.388 . S
C121 C120 1.366 . S
C121 C125 1.385 . S
C122 H103 0.951 . S
C122 C120 1.388 . S
C122 C123 1.366 . S
C123 C122 1.366 . S
C123 C124 1.414 . S
C123 C126 1.499 . S
C124 H104 0.950 . S
C124 C123 1.414 . S
C124 C125 1.374 . S
C125 H105 0.950 . S
C125 C121 1.385 . S
C125 C124 1.374 . S
C126 C123 1.499 . S
C126 C127 1.373 . S
C126 C128 1.389 . S
C127 H106 0.950 . S
C127 C126 1.373 . S
C127 C143 1.377 . S
C128 C126 1.389 . S
C128 C129 1.524 . S
C128 C142 1.377 . S
C129 C128 1.524 . S
C129 C130 1.397 . S
C129 C134 1.363 . S
C130 H107 0.950 . S
C130 C129 1.397 . S
C130 C131 1.334 . S
C131 H108 0.950 . S
C131 C130 1.334 . S
C131 C132 1.287 . S
C132 C131 1.287 . S
C132 C133 1.524 . S
C132 H151 0.913 . S
C133 H109 0.950 . S
C133 C132 1.524 . S
C133 C134 1.415 . S
C134 H110 0.950 . S
C134 C129 1.363 . S
C134 C133 1.415 . S
C135 H111 0.951 . S
C135 C136 1.366 . S
C135 C137 1.388 . S
C136 C135 1.366 . S
C136 C140 1.385 . S
C137 H112 0.951 . S
C137 C135 1.388 . S
C137 C138 1.366 . S
C138 C137 1.366 . S
C138 C139 1.414 . S
C138 C141 1.499 . S
C139 H113 0.950 . S
C139 C138 1.414 . S
C139 C140 1.374 . S
C140 H114 0.950 . S
C140 C136 1.385 . S
C140 C139 1.374 . S
C141 C138 1.499 . S
C141 C142 1.373 . S
C141 C143 1.389 . S
C142 H115 0.950 . S
C142 C128 1.377 . S
C142 C141 1.373 . S
C143 C127 1.377 . S
C143 C141 1.389 . S
C143 C144 1.524 . S
C144 C143 1.524 . S
C144 C145 1.397 . S
C144 C149 1.363 . S
C145 H116 0.950 . S
C145 C144 1.397 . S
C145 C146 1.334 . S
C146 H117 0.950 . S
C146 C145 1.334 . S
C146 C147 1.287 . S
C147 C146 1.287 . S
C147 C148 1.524 . S
C147 H150 0.999 . S
C148 H118 0.950 . S
C148 C147 1.524 . S
C148 C149 1.415 . S
C149 H119 0.950 . S
C149 C144 1.363 . S
C149 C148 1.415 . S
H150 C147 0.999 . S
H151 C132 0.913 . S
H152 C170 0.951 . S
H153 C172 0.951 1_565 S
H154 C174 0.950 . S
H155 C175 0.950 . S
H156 C177 0.950 . S
H157 C180 0.950 . S
H158 C181 0.950 . S
H159 C183 0.950 . S
H160 C184 0.950 . S
H161 C185 0.951 . S
H162 C187 0.951 1_545 S
H163 C189 0.950 . S
H164 C190 0.950 . S
H165 C192 0.950 . S
H166 C195 0.950 . S
H167 C196 0.950 . S
H168 C198 0.950 . S
H169 C199 0.950 . S
C170 H152 0.951 . S
C170 C171 1.366 . S
C170 C172 1.388 . S
C171 C170 1.366 . S
C171 C175 1.385 . S
C172 H153 0.951 1_545 S
C172 C170 1.388 . S
C172 C173 1.366 . S
C173 C172 1.366 . S
C173 C174 1.414 . S
C173 C176 1.499 . S
C174 H154 0.950 . S
C174 C173 1.414 . S
C174 C175 1.374 . S
C175 H155 0.950 . S
C175 C171 1.385 . S
C175 C174 1.374 . S
C176 C173 1.499 . S
C176 C177 1.373 . S
C176 C178 1.389 1_545 S
C177 H156 0.950 . S
C177 C176 1.373 . S
C177 C193 1.377 . S
C178 C176 1.389 1_565 S
C178 C179 1.524 . S
C178 C192 1.377 . S
C179 C178 1.524 . S
C179 C180 1.397 1_565 S
C179 C184 1.363 . S
C180 H157 0.950 . S
C180 C179 1.397 1_545 S
C180 C181 1.334 . S
C181 H158 0.950 . S
C181 C180 1.334 . S
C181 C182 1.287 1_545 S
C182 C181 1.287 1_565 S
C182 C183 1.524 . S
C182 H201 0.913 . S
C183 H159 0.950 . S
C183 C182 1.524 . S
C183 C184 1.415 . S
C184 H160 0.950 . S
C184 C179 1.363 . S
C184 C183 1.415 . S
C185 H161 0.951 . S
C185 C186 1.366 . S
C185 C187 1.388 . S
C186 C185 1.366 . S
C186 C190 1.385 . S
C187 H162 0.951 1_565 S
C187 C185 1.388 . S
C187 C188 1.366 . S
C188 C187 1.366 . S
C188 C189 1.414 . S
C188 C191 1.499 . S
C189 H163 0.950 . S
C189 C188 1.414 . S
C189 C190 1.374 . S
C190 H164 0.950 . S
C190 C186 1.385 . S
C190 C189 1.374 . S
C191 C188 1.499 . S
C191 C192 1.373 . S
C191 C193 1.389 1_565 S
C192 H165 0.950 . S
C192 C178 1.377 . S
C192 C191 1.373 . S
C193 C177 1.377 . S
C193 C191 1.389 1_545 S
C193 C194 1.524 . S
C194 C193 1.524 . S
C194 C195 1.397 1_545 S
C194 C199 1.363 . S
C195 H166 0.950 . S
C195 C194 1.397 1_565 S
C195 C196 1.334 . S
C196 H167 0.950 . S
C196 C195 1.334 . S
C196 C197 1.287 1_565 S
C197 C196 1.287 1_545 S
C197 C198 1.524 . S
C197 H200 0.999 . S
C198 H168 0.950 . S
C198 C197 1.524 . S
C198 C199 1.415 . S
C199 H169 0.950 . S
C199 C194 1.363 . S
C199 C198 1.415 . S
H200 C197 0.999 . S
H201 C182 0.913 . S
H202 C220 0.951 . S
H203 C222 0.951 . S
H204 C224 0.950 . S
H205 C225 0.950 . S
H206 C227 0.950 . S
H207 C230 0.950 . S
H208 C231 0.950 . S
H209 C233 0.950 . S
H210 C234 0.950 . S
H211 C235 0.951 . S
H212 C237 0.951 . S
H213 C239 0.950 . S
H214 C240 0.950 . S
H215 C242 0.950 . S
H216 C245 0.950 . S
H217 C246 0.950 . S
H218 C248 0.950 . S
H219 C249 0.950 . S
C220 H202 0.951 . S
C220 C221 1.366 . S
C220 C222 1.388 . S
C221 C220 1.366 . S
C221 C225 1.385 . S
C222 H203 0.951 . S
C222 C220 1.388 . S
C222 C223 1.366 . S
C223 C222 1.366 . S
C223 C224 1.414 . S
C223 C226 1.499 . S
C224 H204 0.950 . S
C224 C223 1.414 . S
C224 C225 1.374 . S
C225 H205 0.950 . S
C225 C221 1.385 . S
C225 C224 1.374 . S
C226 C223 1.499 . S
C226 C227 1.373 . S
C226 C228 1.389 . S
C227 H206 0.950 . S
C227 C226 1.373 . S
C227 C243 1.377 . S
C228 C226 1.389 . S
C228 C229 1.524 . S
C228 C242 1.377 . S
C229 C228 1.524 . S
C229 C230 1.397 . S
C229 C234 1.363 . S
C230 H207 0.950 . S
C230 C229 1.397 . S
C230 C231 1.334 . S
C231 H208 0.950 . S
C231 C230 1.334 . S
C231 C232 1.287 . S
C232 C231 1.287 . S
C232 C233 1.524 . S
C232 H251 0.913 . S
C233 H209 0.950 . S
C233 C232 1.524 . S
C233 C234 1.415 . S
C234 H210 0.950 . S
C234 C229 1.363 . S
C234 C233 1.415 . S
C235 H211 0.951 . S
C235 C236 1.366 . S
C235 C237 1.388 . S
C236 C235 1.366 . S
C236 C240 1.385 . S
C237 H212 0.951 . S
C237 C235 1.388 . S
C237 C238 1.366 . S
C238 C237 1.366 . S
C238 C239 1.414 . S
C238 C241 1.499 . S
C239 H213 0.950 . S
C239 C238 1.414 . S
C239 C240 1.374 . S
C240 H214 0.950 . S
C240 C236 1.385 . S
C240 C239 1.374 . S
C241 C238 1.499 . S
C241 C242 1.373 . S
C241 C243 1.389 . S
C242 H215 0.950 . S
C242 C228 1.377 . S
C242 C241 1.373 . S
C243 C227 1.377 . S
C243 C241 1.389 . S
C243 C244 1.524 . S
C244 C243 1.524 . S
C244 C245 1.397 . S
C244 C249 1.363 . S
C245 H216 0.950 . S
C245 C244 1.397 . S
C245 C246 1.334 . S
C246 H217 0.950 . S
C246 C245 1.334 . S
C246 C247 1.287 . S
C247 C246 1.287 . S
C247 C248 1.524 . S
C247 H250 0.999 . S
C248 H218 0.950 . S
C248 C247 1.524 . S
C248 C249 1.415 . S
C249 H219 0.950 . S
C249 C244 1.363 . S
C249 C248 1.415 . S
H250 C247 0.999 . S
H251 C232 0.913 . S
H252 C270 0.951 . S
H253 C272 0.951 . S
H254 C274 0.950 . S
H255 C275 0.950 . S
H256 C277 0.950 . S
H257 C280 0.950 . S
H258 C281 0.950 . S
H259 C283 0.950 . S
H260 C284 0.950 . S
H261 C285 0.951 . S
H262 C287 0.951 . S
H263 C289 0.950 . S
H264 C290 0.950 . S
H265 C292 0.950 . S
H266 C295 0.950 . S
H267 C296 0.950 . S
H268 C298 0.950 . S
H269 C299 0.950 . S
C270 H252 0.951 . S
C270 C271 1.366 . S
C270 C272 1.388 . S
C271 C270 1.366 . S
C271 C275 1.385 . S
C272 H253 0.951 . S
C272 C270 1.388 . S
C272 C273 1.366 . S
C273 C272 1.366 . S
C273 C274 1.414 . S
C273 C276 1.499 . S
C274 H254 0.950 . S
C274 C273 1.414 . S
C274 C275 1.374 . S
C275 H255 0.950 . S
C275 C271 1.385 . S
C275 C274 1.374 . S
C276 C273 1.499 . S
C276 C277 1.373 1_455 S
C276 C278 1.389 1_545 S
C277 H256 0.950 . S
C277 C276 1.373 1_655 S
C277 C293 1.377 1_554 S
C278 C276 1.389 1_565 S
C278 C279 1.524 1_554 S
C278 C292 1.377 1_554 S
C279 C278 1.524 1_556 S
C279 C280 1.397 1_565 S
C279 C284 1.363 1_556 S
C280 H257 0.950 . S
C280 C279 1.397 1_545 S
C280 C281 1.334 . S
C281 H258 0.950 . S
C281 C280 1.334 . S
C281 C282 1.287 1_545 S
C282 C281 1.287 1_565 S
C282 C283 1.524 1_556 S
C282 H301 0.913 . S
C283 H259 0.950 . S
C283 C282 1.524 1_554 S
C283 C284 1.415 . S
C284 H260 0.950 . S
C284 C279 1.363 1_554 S
C284 C283 1.415 . S
C285 H261 0.951 . S
C285 C286 1.366 . S
C285 C287 1.388 . S
C286 C285 1.366 . S
C286 C290 1.385 . S
C287 H262 0.951 . S
C287 C285 1.388 . S
C287 C288 1.366 . S
C288 C287 1.366 . S
C288 C289 1.414 . S
C288 C291 1.499 . S
C289 H263 0.950 . S
C289 C288 1.414 . S
C289 C290 1.374 . S
C290 H264 0.950 . S
C290 C286 1.385 . S
C290 C289 1.374 . S
C291 C288 1.499 . S
C291 C292 1.373 1_655 S
C291 C293 1.389 1_565 S
C292 H265 0.950 . S
C292 C278 1.377 1_556 S
C292 C291 1.373 1_455 S
C293 C277 1.377 1_556 S
C293 C291 1.389 1_545 S
C293 C294 1.524 1_556 S
C294 C293 1.524 1_554 S
C294 C295 1.397 1_545 S
C294 C299 1.363 1_554 S
C295 H266 0.950 . S
C295 C294 1.397 1_565 S
C295 C296 1.334 . S
C296 H267 0.950 . S
C296 C295 1.334 . S
C296 C297 1.287 1_565 S
C297 C296 1.287 1_545 S
C297 C298 1.524 1_554 S
C297 H300 0.999 . S
C298 H268 0.950 . S
C298 C297 1.524 1_556 S
C298 C299 1.415 . S
C299 H269 0.950 . S
C299 C294 1.363 1_556 S
C299 C298 1.415 . S
H300 C297 0.999 . S
H301 C282 0.913 . S
H302 C320 0.951 . S
H303 C322 0.951 . S
H304 C324 0.950 . S
H305 C325 0.950 . S
H306 C327 0.950 . S
H307 C330 0.950 . S
H308 C331 0.950 . S
H309 C333 0.950 . S
H310 C334 0.950 . S
H311 C335 0.951 . S
H312 C337 0.951 . S
H313 C339 0.950 . S
H314 C340 0.950 . S
H315 C342 0.950 . S
H316 C345 0.950 . S
H317 C346 0.950 . S
H318 C348 0.950 . S
H319 C349 0.950 . S
C320 H302 0.951 . S
C320 C321 1.366 . S
C320 C322 1.388 . S
C321 C320 1.366 . S
C321 C325 1.385 . S
C322 H303 0.951 . S
C322 C320 1.388 . S
C322 C323 1.366 . S
C323 C322 1.366 . S
C323 C324 1.414 . S
C323 C326 1.499 . S
C324 H304 0.950 . S
C324 C323 1.414 . S
C324 C325 1.374 . S
C325 H305 0.950 . S
C325 C321 1.385 . S
C325 C324 1.374 . S
C326 C323 1.499 . S
C326 C327 1.373 1_545 S
C326 C328 1.389 1_556 S
C327 H306 0.950 . S
C327 C326 1.373 1_565 S
C327 C343 1.377 . S
C328 C326 1.389 1_554 S
C328 C329 1.524 . S
C328 C342 1.377 . S
C329 C328 1.524 . S
C329 C330 1.397 . S
C329 C334 1.363 . S
C330 H307 0.950 . S
C330 C329 1.397 . S
C330 C331 1.334 . S
C331 H308 0.950 . S
C331 C330 1.334 . S
C331 C332 1.287 . S
C332 C331 1.287 . S
C332 C333 1.524 . S
C332 H351 0.913 . S
C333 H309 0.950 . S
C333 C332 1.524 . S
C333 C334 1.415 . S
C334 H310 0.950 . S
C334 C329 1.363 . S
C334 C333 1.415 . S
C335 H311 0.951 . S
C335 C336 1.366 . S
C335 C337 1.388 . S
C336 C335 1.366 . S
C336 C340 1.385 . S
C337 H312 0.951 . S
C337 C335 1.388 . S
C337 C338 1.366 . S
C338 C337 1.366 . S
C338 C339 1.414 . S
C338 C341 1.499 . S
C339 H313 0.950 . S
C339 C338 1.414 . S
C339 C340 1.374 . S
C340 H314 0.950 . S
C340 C336 1.385 . S
C340 C339 1.374 . S
C341 C338 1.499 . S
C341 C342 1.373 1_565 S
C341 C343 1.389 1_554 S
C342 H315 0.950 . S
C342 C328 1.377 . S
C342 C341 1.373 1_545 S
C343 C327 1.377 . S
C343 C341 1.389 1_556 S
C343 C344 1.524 . S
C344 C343 1.524 . S
C344 C345 1.397 . S
C344 C349 1.363 . S
C345 H316 0.950 . S
C345 C344 1.397 . S
C345 C346 1.334 . S
C346 H317 0.950 . S
C346 C345 1.334 . S
C346 C347 1.287 . S
C347 C346 1.287 . S
C347 C348 1.524 . S
C347 H350 0.999 . S
C348 H318 0.950 . S
C348 C347 1.524 . S
C348 C349 1.415 . S
C349 H319 0.950 . S
C349 C344 1.363 . S
C349 C348 1.415 . S
H350 C347 0.999 . S
H351 C332 0.913 . S
H352 C370 0.951 . S
H353 C372 0.951 . S
H354 C374 0.950 1_455 S
H355 C375 0.950 . S
H356 C377 0.950 . S
H357 C380 0.950 . S
H358 C381 0.950 . S
H359 C383 0.950 . S
H360 C384 0.950 . S
H361 C385 0.951 . S
H362 C387 0.951 . S
H363 C389 0.950 1_655 S
H364 C390 0.950 . S
H365 C392 0.950 . S
H366 C395 0.950 . S
H367 C396 0.950 . S
H368 C398 0.950 . S
H369 C399 0.950 . S
C370 H352 0.951 . S
C370 C371 1.366 . S
C370 C372 1.388 . S
C371 C370 1.366 . S
C371 C375 1.385 . S
C372 H353 0.951 . S
C372 C370 1.388 . S
C372 C373 1.366 . S
C373 C372 1.366 . S
C373 C374 1.414 . S
C373 C376 1.499 . S
C374 H354 0.950 1_655 S
C374 C373 1.414 . S
C374 C375 1.374 . S
C375 H355 0.950 . S
C375 C371 1.385 . S
C375 C374 1.374 . S
C376 C373 1.499 . S
C376 C377 1.373 1_655 S
C376 C378 1.389 . S
C377 H356 0.950 . S
C377 C376 1.373 1_455 S
C377 C393 1.377 . S
C378 C376 1.389 . S
C378 C379 1.524 . S
C378 C392 1.377 . S
C379 C378 1.524 . S
C379 C380 1.397 . S
C379 C384 1.363 . S
C380 H357 0.950 . S
C380 C379 1.397 . S
C380 C381 1.334 . S
C381 H358 0.950 . S
C381 C380 1.334 . S
C381 C382 1.287 . S
C382 C381 1.287 . S
C382 C383 1.524 . S
C382 H401 0.913 . S
C383 H359 0.950 . S
C383 C382 1.524 . S
C383 C384 1.415 . S
C384 H360 0.950 . S
C384 C379 1.363 . S
C384 C383 1.415 . S
C385 H361 0.951 . S
C385 C386 1.366 . S
C385 C387 1.388 . S
C386 C385 1.366 . S
C386 C390 1.385 . S
C387 H362 0.951 . S
C387 C385 1.388 . S
C387 C388 1.366 . S
C388 C387 1.366 . S
C388 C389 1.414 . S
C388 C391 1.499 . S
C389 H363 0.950 1_455 S
C389 C388 1.414 . S
C389 C390 1.374 . S
C390 H364 0.950 . S
C390 C386 1.385 . S
C390 C389 1.374 . S
C391 C388 1.499 . S
C391 C392 1.373 1_455 S
C391 C393 1.389 . S
C392 H365 0.950 . S
C392 C378 1.377 . S
C392 C391 1.373 1_655 S
C393 C377 1.377 . S
C393 C391 1.389 . S
C393 C394 1.524 . S
C394 C393 1.524 . S
C394 C395 1.397 . S
C394 C399 1.363 . S
C395 H366 0.950 . S
C395 C394 1.397 . S
C395 C396 1.334 . S
C396 H367 0.950 . S
C396 C395 1.334 . S
C396 C397 1.287 . S
C397 C396 1.287 . S
C397 C398 1.524 . S
C397 H400 0.999 . S
C398 H368 0.950 . S
C398 C397 1.524 . S
C398 C399 1.415 . S
C399 H369 0.950 . S
C399 C394 1.363 . S
C399 C398 1.415 . S
H400 C397 0.999 . S
H401 C382 0.913 . S
H402 C420 0.951 . S
H403 C422 0.951 . S
H404 C424 0.950 . S
H405 C425 0.950 . S
H406 C427 0.950 . S
H407 C430 0.950 . S
H408 C431 0.950 . S
H409 C433 0.950 . S
H410 C434 0.950 . S
H411 C435 0.951 . S
H412 C437 0.951 . S
H413 C439 0.950 . S
H414 C440 0.950 . S
H415 C442 0.950 . S
H416 C445 0.950 . S
H417 C446 0.950 . S
H418 C448 0.950 . S
H419 C449 0.950 . S
C420 H402 0.951 . S
C420 C421 1.366 . S
C420 C422 1.388 . S
C421 C420 1.366 . S
C421 C425 1.385 . S
C422 H403 0.951 . S
C422 C420 1.388 . S
C422 C423 1.366 . S
C423 C422 1.366 . S
C423 C424 1.414 . S
C423 C426 1.499 . S
C424 H404 0.950 . S
C424 C423 1.414 . S
C424 C425 1.374 . S
C425 H405 0.950 . S
C425 C421 1.385 . S
C425 C424 1.374 . S
C426 C423 1.499 . S
C426 C427 1.373 . S
C426 C428 1.389 . S
C427 H406 0.950 . S
C427 C426 1.373 . S
C427 C443 1.377 . S
C428 C426 1.389 . S
C428 C429 1.524 . S
C428 C442 1.377 . S
C429 C428 1.524 . S
C429 C430 1.397 . S
C429 C434 1.363 . S
C430 H407 0.950 . S
C430 C429 1.397 . S
C430 C431 1.334 . S
C431 H408 0.950 . S
C431 C430 1.334 . S
C431 C432 1.287 . S
C432 C431 1.287 . S
C432 C433 1.524 . S
C432 H451 0.913 . S
C433 H409 0.950 . S
C433 C432 1.524 . S
C433 C434 1.415 . S
C434 H410 0.950 . S
C434 C429 1.363 . S
C434 C433 1.415 . S
C435 H411 0.951 . S
C435 C436 1.366 . S
C435 C437 1.388 . S
C436 C435 1.366 . S
C436 C440 1.385 . S
C437 H412 0.951 . S
C437 C435 1.388 . S
C437 C438 1.366 . S
C438 C437 1.366 . S
C438 C439 1.414 . S
C438 C441 1.499 . S
C439 H413 0.950 . S
C439 C438 1.414 . S
C439 C440 1.374 . S
C440 H414 0.950 . S
C440 C436 1.385 . S
C440 C439 1.374 . S
C441 C438 1.499 . S
C441 C442 1.373 . S
C441 C443 1.389 . S
C442 H415 0.950 . S
C442 C428 1.377 . S
C442 C441 1.373 . S
C443 C427 1.377 . S
C443 C441 1.389 . S
C443 C444 1.524 . S
C444 C443 1.524 . S
C444 C445 1.397 . S
C444 C449 1.363 . S
C445 H416 0.950 . S
C445 C444 1.397 . S
C445 C446 1.334 . S
C446 H417 0.950 . S
C446 C445 1.334 . S
C446 C447 1.287 . S
C447 C446 1.287 . S
C447 C448 1.524 . S
C447 H450 0.999 . S
C448 H418 0.950 . S
C448 C447 1.524 . S
C448 C449 1.415 . S
C449 H419 0.950 . S
C449 C444 1.363 . S
C449 C448 1.415 . S
H450 C447 0.999 . S
H451 C432 0.913 . S
C71 C18 0.660 . S
C86 C5 0.658 . S
C121 C8 0.527 . S
C136 C21 0.529 . S
C171 C44 0.661 . S
C186 C31 0.658 . S
C221 C34 0.531 . S
C236 C47 0.531 . S
C271 C10 1.541 . S
C286 C36 1.541 . S
C321 C49 1.541 . S
C336 C23 1.541 . S
C371 C26 1.513 . S
C386 C0 1.513 . S
C421 C13 1.513 . S
C436 C39 1.513 . S
