# Generated by pormake.
# Topology wli, (5)-cn, num edge types: 1
# Building blocks:
#     Node 0, Type 0, BuildingBlock: XOMCOT_clean_sbu_1, # of connection points: 5
#     Node 1, Type 0, BuildingBlock: XOMCOT_clean_sbu_1, # of connection points: 5
#     Node 2, Type 0, BuildingBlock: XOMCOT_clean_sbu_1, # of connection points: 5
#     Node 3, Type 0, BuildingBlock: XOMCOT_clean_sbu_1, # of connection points: 5
#     Node 4, Type 0, BuildingBlock: XOMCOT_clean_sbu_1, # of connection points: 5
#     Node 5, Type 0, BuildingBlock: XOMCOT_clean_sbu_1, # of connection points: 5
#     Edge 6, Type (0, 0), BuildingBlock: FUNLAD_clean_linker_0, # of connection points: 2
#     Edge 7, Type (0, 0), BuildingBlock: FUNLAD_clean_linker_0, # of connection points: 2
#     Edge 8, Type (0, 0), BuildingBlock: FUNLAD_clean_linker_0, # of connection points: 2
#     Edge 9, Type (0, 0), BuildingBlock: FUNLAD_clean_linker_0, # of connection points: 2
#     Edge 10, Type (0, 0), BuildingBlock: FUNLAD_clean_linker_0, # of connection points: 2
#     Edge 11, Type (0, 0), BuildingBlock: FUNLAD_clean_linker_0, # of connection points: 2
#     Edge 12, Type (0, 0), BuildingBlock: FUNLAD_clean_linker_0, # of connection points: 2
#     Edge 13, Type (0, 0), BuildingBlock: FUNLAD_clean_linker_0, # of connection points: 2
#     Edge 14, Type (0, 0), BuildingBlock: FUNLAD_clean_linker_0, # of connection points: 2
#     Edge 15, Type (0, 0), BuildingBlock: FUNLAD_clean_linker_0, # of connection points: 2
#     Edge 16, Type (0, 0), BuildingBlock: FUNLAD_clean_linker_0, # of connection points: 2
#     Edge 17, Type (0, 0), BuildingBlock: FUNLAD_clean_linker_0, # of connection points: 2
#     Edge 18, Type (0, 0), BuildingBlock: FUNLAD_clean_linker_0, # of connection points: 2
#     Edge 19, Type (0, 0), BuildingBlock: FUNLAD_clean_linker_0, # of connection points: 2
#     Edge 20, Type (0, 0), BuildingBlock: FUNLAD_clean_linker_0, # of connection points: 2
# Relax obj value: 0.113
# Max RMSD: 0.138
# Mean RMSD: 0.138
data_MOF--net-wli--node1-XOMCOT_clean_sbu_1--edge1-FUNLAD_clean_linker_0
_symmetry_space_group_name_H-M    P1
_symmetry_Int_Tables_number       1
_symmetry_cell_setting            triclinic
loop_
_symmetry_equiv_pos_as_xyz
'x, y, z'
_cell_length_a     40.998502
_cell_length_b     40.947641
_cell_length_c     31.054226
_cell_angle_alpha  89.605466
_cell_angle_beta   89.494428
_cell_angle_gamma 119.97916
loop_
_atom_site_label
_atom_site_type_symbol
_atom_site_fract_x
_atom_site_fract_y
_atom_site_fract_z
_atom_type_partial_charge
C0 C 0.20169 0.48077 0.03611 0.0
C1 C 0.22475 0.51167 0.01078 0.0
N2 N 0.26086 0.52223 0.01939 0.0
N3 N 0.22304 0.47158 0.0604 0.0
C4 C 0.25897 0.49744 0.04976 0.0
H5 H 0.17124 0.46613 0.03718 0.0
Co6 Co 0.20465 0.43279 0.10147 0.0
C7 C 0.26964 0.41808 0.10769 0.0
O8 O 0.26942 0.41713 0.14998 0.0
N9 N 0.18522 0.39378 0.14307 0.0
C10 C 0.15912 0.33662 0.17335 0.0
C11 C 0.18154 0.35921 0.13988 0.0
C12 C 0.16507 0.39155 0.17886 0.0
N13 N 0.14884 0.35709 0.19779 0.0
O14 O 0.23269 0.46909 0.14459 0.0
H15 H 0.19255 0.35031 0.1135 0.0
H16 H 0.16013 0.41385 0.18931 0.0
O17 O 0.24613 0.42428 0.08789 0.0
C18 C 0.21346 0.4844 0.15573 0.0
O19 O 0.18045 0.47228 0.1379 0.0
N20 N 0.17517 0.39839 0.05952 0.0
C21 C 0.12613 0.35166 0.99685 0.0
C22 C 0.16524 0.36801 0.99129 0.0
C23 C 0.18934 0.39155 0.02291 0.0
C24 C 0.1373 0.38261 0.06564 0.0
C25 C 0.11223 0.35891 0.03487 0.0
H26 H 0.2193 0.40528 0.01709 0.0
H27 H 0.12654 0.38925 0.09417 0.0
H28 H 0.28322 0.498 0.06403 0.0
H29 H 0.21555 0.52574 0.98846 0.0
H30 H 0.1501 0.30712 0.17856 0.0
H31 H 0.17717 0.36323 0.9624 0.0
H32 H 0.08232 0.34762 0.04008 0.0
C33 C 0.54641 0.7289 0.70493 0.0
C34 C 0.51515 0.7246 0.68378 0.0
N35 N 0.50866 0.75241 0.69608 0.0
N36 N 0.55972 0.7594 0.73022 0.0
C37 C 0.5361 0.773 0.72438 0.0
H38 H 0.55866 0.71094 0.70219 0.0
Co39 Co 0.60026 0.77648 0.76716 0.0
C40 C 0.62228 0.85885 0.77564 0.0
O41 O 0.62638 0.86001 0.81761 0.0
N42 N 0.64084 0.79258 0.805 0.0
C43 C 0.69727 0.82089 0.83527 0.0
C44 C 0.67579 0.82294 0.80251 0.0
C45 C 0.64198 0.77243 0.83903 0.0
N46 N 0.67592 0.78888 0.85819 0.0
O47 O 0.56704 0.77023 0.81454 0.0
H48 H 0.68548 0.84446 0.77756 0.0
H49 H 0.61849 0.74564 0.8491 0.0
O50 O 0.61216 0.82817 0.7558 0.0
C51 C 0.54986 0.73567 0.82646 0.0
O52 O 0.55753 0.71214 0.80626 0.0
N53 N 0.63138 0.77966 0.72088 0.0
C54 C 0.67062 0.77418 0.65006 0.0
C55 C 0.65579 0.7985 0.64894 0.0
C56 C 0.63604 0.80065 0.68457 0.0
C57 C 0.646 0.75624 0.72286 0.0
C58 C 0.66602 0.75329 0.68791 0.0
H59 H 0.62313 0.81795 0.68206 0.0
H60 H 0.64107 0.73885 0.75126 0.0
H61 H 0.53861 0.7971 0.74138 0.0
H62 H 0.49883 0.70292 0.66076 0.0
H63 H 0.72674 0.84068 0.84057 0.0
H64 H 0.65872 0.81517 0.62041 0.0
H65 H 0.67639 0.73365 0.68989 0.0
C66 C 0.29841 0.82595 0.37135 0.0
C67 C 0.30217 0.79978 0.34746 0.0
N68 N 0.27412 0.76509 0.35891 0.0
N69 N 0.26794 0.80788 0.39743 0.0
C70 C 0.25385 0.77093 0.38935 0.0
H71 H 0.31695 0.85618 0.37026 0.0
Co72 Co 0.25252 0.82962 0.43935 0.0
C73 C 0.17129 0.79664 0.42413 0.0
O74 O 0.17637 0.83048 0.43126 0.0
N75 N 0.23852 0.85164 0.48426 0.0
C76 C 0.21246 0.85682 0.54537 0.0
C77 C 0.20887 0.83359 0.5118 0.0
C78 C 0.26081 0.88501 0.50364 0.0
N79 N 0.24534 0.88921 0.54031 0.0
O80 O 0.25868 0.7993 0.48197 0.0
H81 H 0.18714 0.80436 0.5095 0.0
H82 H 0.28918 0.90471 0.49314 0.0
O83 O 0.19892 0.79066 0.42922 0.0
C84 C 0.2924 0.81849 0.49513 0.0
O85 O 0.31382 0.85245 0.47863 0.0
N86 N 0.25005 0.86156 0.39607 0.0
C87 C 0.2549 0.90918 0.32799 0.0
C88 C 0.23157 0.87002 0.32536 0.0
C89 C 0.23046 0.84679 0.35901 0.0
C90 C 0.27381 0.89952 0.39847 0.0
C91 C 0.27618 0.92385 0.36527 0.0
H92 H 0.21482 0.81669 0.35434 0.0
H93 H 0.29305 0.91115 0.42465 0.0
H94 H 0.22993 0.74873 0.40667 0.0
H95 H 0.32389 0.80595 0.32352 0.0
H96 H 0.19367 0.84932 0.57299 0.0
H97 H 0.21504 0.85718 0.297 0.0
H98 H 0.29611 0.95371 0.36788 0.0
C99 C 0.48992 0.20311 0.96549 0.0
C100 C 0.52072 0.2279 0.98885 0.0
N101 N 0.52851 0.26327 0.97921 0.0
N102 N 0.47807 0.22273 0.9417 0.0
C103 C 0.50213 0.25921 0.95061 0.0
H104 H 0.47779 0.17283 0.96477 0.0
Co105 Co 0.44126 0.20411 0.89996 0.0
C106 C 0.39627 0.24157 0.91633 0.0
O107 O 0.36588 0.2097 0.90691 0.0
N108 N 0.40512 0.18533 0.85549 0.0
C109 C 0.37723 0.18514 0.79403 0.0
C110 C 0.39959 0.20706 0.82684 0.0
C111 C 0.38679 0.15044 0.83822 0.0
N112 N 0.36943 0.1495 0.80107 0.0
O113 O 0.47864 0.23574 0.85814 0.0
H114 H 0.41281 0.23742 0.82832 0.0
H115 H 0.38777 0.12642 0.85087 0.0
O116 O 0.42858 0.24377 0.91409 0.0
C117 C 0.49051 0.21548 0.84057 0.0
O118 O 0.47464 0.1798 0.85229 0.0
N119 N 0.40662 0.1706 0.94145 0.0
C120 C 0.36844 0.11723 0.00692 0.0
C121 C 0.37605 0.15446 0.01111 0.0
C122 C 0.39594 0.18095 0.97844 0.0
C123 C 0.40025 0.13477 0.93761 0.0
C124 C 0.38039 0.10746 0.96921 0.0
H125 H 0.40495 0.21009 0.98464 0.0
H126 H 0.41331 0.12798 0.91158 0.0
H127 H 0.50073 0.28237 0.93554 0.0
H128 H 0.53697 0.22048 0.00989 0.0
H129 H 0.36952 0.19517 0.76571 0.0
H130 H 0.3689 0.16367 0.04052 0.0
H131 H 0.37593 0.07931 0.96487 0.0
C132 C 0.83778 0.29223 0.64119 0.0
C133 C 0.81153 0.29765 0.66305 0.0
N134 N 0.77692 0.27187 0.64963 0.0
N135 N 0.81985 0.26299 0.61433 0.0
C136 C 0.78293 0.2513 0.62001 0.0
H137 H 0.86803 0.30867 0.64443 0.0
Co138 Co 0.84173 0.24496 0.57533 0.0
C139 C 0.78067 0.16299 0.56887 0.0
O140 O 0.78372 0.16123 0.52692 0.0
N141 N 0.86447 0.22759 0.5357 0.0
C142 C 0.89452 0.1997 0.50808 0.0
C143 C 0.87082 0.19844 0.54064 0.0
C144 C 0.88435 0.24591 0.49977 0.0
N145 N 0.90293 0.2296 0.48243 0.0
O146 O 0.81419 0.25192 0.52991 0.0
H147 H 0.86059 0.17875 0.56753 0.0
H148 H 0.88727 0.27214 0.48797 0.0
O149 O 0.80145 0.19383 0.58817 0.0
C150 C 0.83253 0.28677 0.51922 0.0
O151 O 0.8645 0.30846 0.53869 0.0
N152 N 0.87063 0.24149 0.61943 0.0
C153 C 0.91881 0.24511 0.68428 0.0
C154 C 0.87976 0.22101 0.6885 0.0
C155 C 0.85606 0.21975 0.65575 0.0
C156 C 0.90842 0.26516 0.61481 0.0
C157 C 0.93308 0.26719 0.64667 0.0
H158 H 0.82604 0.20219 0.66033 0.0
H159 H 0.9194 0.28309 0.58647 0.0
H160 H 0.761 0.22869 0.60178 0.0
H161 H 0.81759 0.31882 0.68715 0.0
H162 H 0.90555 0.18075 0.50422 0.0
H163 H 0.86758 0.20363 0.7171 0.0
H164 H 0.96292 0.28686 0.64252 0.0
C165 C 0.74516 0.54334 0.30265 0.0
C166 C 0.74177 0.51331 0.32656 0.0
N167 N 0.76956 0.50663 0.3144 0.0
N168 N 0.77513 0.55579 0.27582 0.0
C169 C 0.78928 0.53282 0.28351 0.0
H170 H 0.72667 0.55505 0.30427 0.0
Co171 Co 0.79025 0.5932 0.23367 0.0
C172 C 0.87284 0.63915 0.24202 0.0
O173 O 0.86943 0.66903 0.23525 0.0
N174 N 0.80449 0.62991 0.18862 0.0
C175 C 0.83015 0.65885 0.12598 0.0
C176 C 0.83041 0.63559 0.15782 0.0
C177 C 0.78764 0.6489 0.1733 0.0
N178 N 0.80308 0.66713 0.13556 0.0
O179 O 0.78244 0.55661 0.19123 0.0
H180 H 0.84729 0.62205 0.15733 0.0
H181 H 0.76322 0.64791 0.18787 0.0
O182 O 0.84345 0.60626 0.24147 0.0
C183 C 0.74994 0.54435 0.17521 0.0
O184 O 0.72965 0.5592 0.18822 0.0
N185 N 0.79431 0.62743 0.27679 0.0
C186 C 0.78741 0.66659 0.34653 0.0
C187 C 0.81454 0.65533 0.34643 0.0
C188 C 0.81692 0.63503 0.31184 0.0
C189 C 0.76693 0.63706 0.27714 0.0
C190 C 0.76353 0.65739 0.31112 0.0
H191 H 0.83542 0.62354 0.31482 0.0
H192 H 0.74566 0.62643 0.25275 0.0
H193 H 0.81286 0.53454 0.26563 0.0
H194 H 0.72049 0.49773 0.35101 0.0
H195 H 0.84697 0.66703 0.09664 0.0
H196 H 0.83293 0.66094 0.37358 0.0
H197 H 0.74087 0.66376 0.31087 0.0
C198 C 0.29679 0.72584 0.32334 0.0
C199 C 0.26747 0.72932 0.3426 0.0
C200 C 0.29006 0.69134 0.30666 0.0
C201 C 0.25372 0.65942 0.30887 0.0
C202 C 0.22472 0.66285 0.32891 0.0
C203 C 0.23141 0.69726 0.34541 0.0
C204 C 0.2439 0.62237 0.28966 0.0
C205 C 0.26627 0.6161 0.26282 0.0
C206 C 0.25223 0.58025 0.23872 0.0
C207 C 0.27765 0.5691 0.22367 0.0
C208 C 0.26521 0.53705 0.19793 0.0
C209 C 0.22719 0.51598 0.18633 0.0
H210 H 0.19372 0.56672 0.23685 0.0
C211 C 0.20183 0.52688 0.20196 0.0
C212 C 0.21412 0.55858 0.22753 0.0
H213 H 0.17234 0.51142 0.19355 0.0
H214 H 0.32509 0.7497 0.32132 0.0
H215 H 0.31351 0.69014 0.29226 0.0
H216 H 0.19639 0.6389 0.33109 0.0
H217 H 0.20802 0.69882 0.35954 0.0
H218 H 0.21568 0.5993 0.29669 0.0
H219 H 0.29518 0.63789 0.2567 0.0
H220 H 0.30725 0.58552 0.23134 0.0
H221 H 0.28546 0.5295 0.18607 0.0
C222 C 0.49354 0.73 0.86614 0.0
C223 C 0.52225 0.72097 0.86236 0.0
C224 C 0.46338 0.70982 0.8952 0.0
C225 C 0.46195 0.68072 0.92121 0.0
C226 C 0.49221 0.67388 0.91936 0.0
C227 C 0.52173 0.69339 0.8899 0.0
C228 C 0.42895 0.65555 0.94912 0.0
C229 C 0.39322 0.64551 0.9391 0.0
C230 C 0.35941 0.61467 0.96175 0.0
C231 C 0.32499 0.59732 0.94005 0.0
C232 C 0.29286 0.56715 0.9589 0.0
C233 C 0.29417 0.55356 1.00019 0.0
H234 H 0.38614 0.61485 0.02209 0.0
C235 C 0.32841 0.57134 0.02238 0.0
C236 C 0.36062 0.60165 0.00354 0.0
H237 H 0.33024 0.5622 0.0546 0.0
H238 H 0.49332 0.75109 0.84506 0.0
H239 H 0.44099 0.71653 0.89663 0.0
H240 H 0.49211 0.65199 0.93926 0.0
H241 H 0.54369 0.68605 0.8877 0.0
H242 H 0.43407 0.64127 0.97551 0.0
H243 H 0.38829 0.65766 0.91041 0.0
H244 H 0.32306 0.60666 0.90793 0.0
H245 H 0.26714 0.55402 0.94065 0.0
C246 C 0.34326 0.82881 0.54551 0.0
C247 C 0.30893 0.80358 0.52633 0.0
C248 C 0.36201 0.81573 0.57133 0.0
C249 C 0.34679 0.77688 0.57913 0.0
C250 C 0.31198 0.75156 0.56073 0.0
C251 C 0.29301 0.76479 0.53479 0.0
C252 C 0.36846 0.76228 0.60278 0.0
C253 C 0.39504 0.78306 0.63181 0.0
C254 C 0.42257 0.7732 0.65001 0.0
C255 C 0.45543 0.80216 0.66839 0.0
C256 C 0.48339 0.79531 0.68375 0.0
C257 C 0.47913 0.75912 0.68149 0.0
H258 H 0.39255 0.71328 0.63581 0.0
C259 C 0.44577 0.72981 0.66415 0.0
C260 C 0.41777 0.7367 0.6486 0.0
H261 H 0.44112 0.7014 0.66274 0.0
H262 H 0.35639 0.8589 0.5396 0.0
H263 H 0.38928 0.83628 0.58337 0.0
H264 H 0.2998 0.72146 0.56576 0.0
H265 H 0.26672 0.74467 0.52016 0.0
H266 H 0.36347 0.73456 0.59409 0.0
H267 H 0.39862 0.81018 0.64099 0.0
H268 H 0.45999 0.83057 0.66997 0.0
H269 H 0.50875 0.81871 0.6964 0.0
C270 C 0.5287 0.20572 0.78521 0.0
C271 C 0.52312 0.2309 0.81043 0.0
C272 C 0.56181 0.21802 0.76134 0.0
C273 C 0.59038 0.25613 0.76164 0.0
C274 C 0.58427 0.28167 0.78573 0.0
C275 C 0.55081 0.26924 0.80972 0.0
C276 C 0.62792 0.26899 0.74084 0.0
C277 C 0.63338 0.24977 0.70904 0.0
C278 C 0.67094 0.25733 0.69306 0.0
C279 C 0.67308 0.22807 0.67232 0.0
C280 C 0.70762 0.23282 0.65813 0.0
C281 C 0.74111 0.26723 0.66383 0.0
H282 H 0.70388 0.31567 0.71305 0.0
C283 C 0.73893 0.29688 0.68382 0.0
C284 C 0.70429 0.29203 0.69829 0.0
H285 H 0.76392 0.32405 0.68801 0.0
H286 H 0.50792 0.17594 0.78511 0.0
H287 H 0.56538 0.19692 0.74464 0.0
H288 H 0.60587 0.31112 0.78694 0.0
H289 H 0.54744 0.28922 0.8292 0.0
H290 H 0.65178 0.29381 0.754 0.0
H291 H 0.60918 0.22555 0.69541 0.0
H292 H 0.64792 0.20099 0.66781 0.0
H293 H 0.708 0.20914 0.64343 0.0
C294 C 0.74768 0.44473 0.35074 0.0
C295 C 0.77656 0.47753 0.33061 0.0
C296 C 0.7548 0.41702 0.3674 0.0
C297 C 0.79111 0.42148 0.36428 0.0
C298 C 0.81967 0.45392 0.34339 0.0
C299 C 0.81258 0.48157 0.32691 0.0
C300 C 0.80146 0.39441 0.38357 0.0
C301 C 0.77915 0.36489 0.40978 0.0
C302 C 0.79351 0.34314 0.43404 0.0
C303 C 0.76833 0.30631 0.4491 0.0
C304 C 0.7809 0.28682 0.47535 0.0
C305 C 0.81882 0.30414 0.48746 0.0
H306 H 0.85184 0.38853 0.43621 0.0
C307 C 0.844 0.34056 0.47162 0.0
C308 C 0.83159 0.35985 0.44555 0.0
H309 H 0.87342 0.35485 0.48037 0.0
H310 H 0.71941 0.44026 0.35352 0.0
H311 H 0.73168 0.39246 0.38263 0.0
H312 H 0.84797 0.45838 0.34051 0.0
H313 H 0.83568 0.50652 0.31213 0.0
H314 H 0.82997 0.40036 0.37697 0.0
H315 H 0.74994 0.35688 0.41522 0.0
H316 H 0.73876 0.29286 0.44119 0.0
H317 H 0.76078 0.25889 0.48737 0.0
C318 C 0.5762 0.29925 0.03432 0.0
C319 C 0.55956 0.29807 0.99452 0.0
C320 C 0.60547 0.33323 0.04979 0.0
C321 C 0.61893 0.36684 0.02561 0.0
C322 C 0.60267 0.36551 0.9856 0.0
C323 C 0.57349 0.33158 0.97013 0.0
C324 C 0.64706 0.40424 0.04265 0.0
C325 C 0.67093 0.40927 0.07486 0.0
C326 C 0.69393 0.44626 0.09613 0.0
C327 C 0.7265 0.45354 0.11859 0.0
C328 C 0.74622 0.48647 0.14272 0.0
C329 C 0.73323 0.51231 0.14532 0.0
H330 H 0.65639 0.46807 0.08212 0.0
C331 C 0.70134 0.5055 0.12191 0.0
C332 C 0.68189 0.47293 0.09773 0.0
H333 H 0.69058 0.52486 0.1233 0.0
H334 H 0.56585 0.27412 0.05421 0.0
H335 H 0.61637 0.33312 0.08135 0.0
H336 H 0.61228 0.39096 0.96638 0.0
H337 H 0.56191 0.33171 0.93902 0.0
H338 H 0.6476 0.42872 0.02813 0.0
H339 H 0.67336 0.3856 0.08677 0.0
H340 H 0.73619 0.4333 0.11827 0.0
H341 H 0.77055 0.49085 0.16075 0.0
C342 C 0.93455 0.25182 0.76265 0.0
C343 C 0.94442 0.24921 0.7199 0.0
C344 C 0.96004 0.25937 0.79584 0.0
C345 C 0.99595 0.26416 0.78703 0.0
C346 C 1.00534 0.2605 0.74444 0.0
C347 C 0.97986 0.25302 0.71124 0.0
C348 C 0.02549 0.27664 0.82036 0.0
C349 C 1.01818 0.27341 0.86305 0.0
C350 C 0.04789 0.29147 0.896 0.0
C351 C 0.03934 0.2786 0.93889 0.0
C352 C 0.06516 0.29733 0.97152 0.0
C353 C 0.10006 0.32952 0.96196 0.0
H354 H 0.09053 0.33504 0.85409 0.0
C355 C 0.10896 0.34194 0.91894 0.0
C356 C 0.08318 0.32328 0.88635 0.0
H357 H 0.13526 0.36713 0.9106 0.0
H358 H 0.90774 0.24974 0.77027 0.0
H359 H 0.95192 0.2631 0.82785 0.0
H360 H 0.03283 0.26423 0.73665 0.0
H361 H 0.98814 0.2508 0.67866 0.0
H362 H 0.05446 0.28954 0.80893 0.0
H363 H 0.98928 0.25734 0.87471 0.0
H364 H 1.0123 0.25437 0.94732 0.0
H365 H 0.05759 0.28688 0.00433 0.0
C366 C 0.77357 0.71393 0.38063 0.0
C367 C 0.78153 0.68446 0.38503 0.0
C368 C 0.76581 0.72911 0.4169 0.0
C369 C 0.76539 0.71474 0.45839 0.0
C370 C 0.77453 0.68612 0.46275 0.0
C371 C 0.78237 0.67105 0.42656 0.0
C372 C 0.75511 0.72821 0.49785 0.0
C373 C 0.73397 0.74498 0.49741 0.0
C374 C 0.7198 0.75434 0.53704 0.0
C375 C 0.68808 0.75875 0.53387 0.0
C376 C 0.67255 0.76576 0.57039 0.0
C377 C 0.68854 0.76878 0.61105 0.0
H378 H 0.76181 0.75671 0.58133 0.0
C379 C 0.72093 0.76544 0.61419 0.0
C380 C 0.73657 0.75853 0.57757 0.0
H381 H 0.73428 0.76834 0.64497 0.0
H382 H 0.77337 0.72529 0.34908 0.0
H383 H 0.76031 0.75209 0.4121 0.0
H384 H 0.77465 0.67462 0.49425 0.0
H385 H 0.78796 0.64806 0.43111 0.0
H386 H 0.76261 0.72099 0.52844 0.0
H387 H 0.72382 0.7493 0.46695 0.0
H388 H 0.67467 0.75589 0.50313 0.0
H389 H 0.64735 0.76778 0.56689 0.0
C390 C 0.32197 0.08735 0.06849 0.0
C391 C 0.35177 0.08974 0.04326 0.0
C392 C 0.30689 0.06156 0.10296 0.0
C393 C 0.32159 0.03786 0.11295 0.0
C394 C 0.35121 0.04028 0.08758 0.0
C395 C 0.36627 0.06599 0.05341 0.0
C396 C 0.30669 1.00962 0.14866 0.0
C397 C 0.28721 1.01112 0.18303 0.0
C398 C 0.27572 0.9836 0.21941 0.0
C399 C 0.27298 0.99497 0.26118 0.0
C400 C 0.26528 0.97059 0.29643 0.0
C401 C 0.25987 0.93417 0.29052 0.0
H402 H 0.26887 0.93619 0.18144 0.0
C403 C 0.26096 0.9223 0.24841 0.0
C404 C 0.26845 0.94655 0.21329 0.0
H405 H 0.25719 0.8946 0.24249 0.0
H406 H 0.30996 0.10502 0.0612 0.0
H407 H 0.28345 0.05993 0.12105 0.0
H408 H 0.36311 0.02243 0.0945 0.0
H409 H 0.38975 0.0676 0.03533 0.0
H410 H 0.31451 0.9879 0.14776 0.0
H411 H 0.28225 0.03465 0.18649 0.0
H412 H 0.27789 0.02317 0.26673 0.0
H413 H 0.26396 0.98039 0.32834 0.0
C414 C 0.35789 0.27232 0.931 0.0
C415 C 0.39155 0.27169 0.93673 0.0
C416 C 0.35037 0.29686 0.95453 0.0
C417 C 0.37631 0.32147 0.98467 0.0
C418 C 0.41039 0.32146 0.98973 0.0
C419 C 0.41814 0.29713 0.9657 0.0
C420 C 0.36699 0.34489 0.01345 0.0
C421 C 0.34357 0.35755 1.00173 0.0
C422 C 0.3298 0.37715 0.03081 0.0
C423 C 0.31484 0.39805 0.01208 0.0
C424 C 0.29715 0.41295 0.03738 0.0
C425 C 0.29338 0.40691 0.08222 0.0
H426 H 0.33833 0.35616 0.0917 0.0
C427 C 0.30979 0.38743 0.10141 0.0
C428 C 0.32777 0.37262 0.07599 0.0
H429 H 0.30733 0.38216 0.13583 0.0
H430 H 0.33671 0.25294 0.90915 0.0
H431 H 0.32338 0.29513 0.95037 0.0
H432 H 0.43077 0.33985 0.01294 0.0
H433 H 0.44414 0.29703 0.97127 0.0
H434 H 0.37989 0.35183 0.04493 0.0
H435 H 0.33372 0.3534 0.96877 0.0
H436 H 0.316 0.40213 0.97747 0.0
H437 H 0.28557 0.42845 0.02152 0.0
C438 C 0.7432 0.09218 0.5781 0.0
C439 C 0.75648 0.12835 0.59509 0.0
C440 C 0.72371 0.05982 0.60438 0.0
C441 C 0.71665 0.06285 0.64835 0.0
C442 C 0.72909 0.09905 0.66479 0.0
C443 C 0.7486 0.13127 0.63861 0.0
C444 C 0.69851 0.02971 0.67886 0.0
C445 C 0.67912 0.99324 0.66675 0.0
C446 C 0.66264 0.95999 0.69717 0.0
C447 C 0.63726 0.92427 0.68085 0.0
C448 C 0.62312 0.8918 0.7068 0.0
C449 C 0.63406 0.89397 0.74995 0.0
H450 H 0.69272 0.9889 0.75493 0.0
C451 C 0.65851 0.92971 0.76691 0.0
C452 C 0.67281 0.96232 0.74085 0.0
H453 H 0.66775 0.93241 0.79991 0.0
H454 H 0.749 0.08887 0.54482 0.0
H455 H 0.71546 0.0328 0.59022 0.0
H456 H 0.72419 0.10255 0.69835 0.0
H457 H 0.75796 0.15859 0.65277 0.0
H458 H 0.70103 0.03611 0.71291 0.0
H459 H 0.6744 0.98697 0.63275 0.0
H460 H 0.6287 0.92131 0.64753 0.0
H461 H 0.60394 0.86484 0.69274 0.0
C462 C 0.11962 0.7317 0.4021 0.0
C463 C 0.13895 0.77119 0.3972 0.0
C464 C 0.08886 0.7091 0.37554 0.0
C465 C 0.07816 0.72583 0.34292 0.0
C466 C 0.09829 0.76508 0.33761 0.0
C467 C 0.12781 0.78746 0.36473 0.0
C468 C 0.04663 0.70419 0.31307 0.0
C469 C 1.0123 0.67636 0.32583 0.0
C470 C 0.97803 0.66414 0.29901 0.0
C471 C 0.9455 0.62899 0.30694 0.0
C472 C 0.91155 0.61933 0.28619 0.0
C473 C 0.90942 0.64503 0.2577 0.0
H474 H 0.99959 0.71683 0.26266 0.0
C475 C 0.94221 0.67945 0.24859 0.0
C476 C 0.97594 0.68896 0.26893 0.0
H477 H 0.94146 0.69995 0.22698 0.0
H478 H 0.1279 0.71849 0.42668 0.0
H479 H 0.074 0.67877 0.37994 0.0
H480 H 0.09074 0.77867 0.31267 0.0
H481 H 0.14247 0.81774 0.35962 0.0
H482 H 0.05059 0.71551 0.28053 0.0
H483 H 1.00845 0.66463 0.3582 0.0
H484 H 0.94603 0.60946 0.33024 0.0
H485 H 0.8866 0.59274 0.29428 0.0
C486 C 0.96331 0.24321 0.44837 0.0
C487 C 0.92922 0.24353 0.44659 0.0
C488 C 0.98914 0.25733 0.41384 0.0
C489 C 0.98102 0.27137 0.37643 0.0
C490 C 0.94666 0.2711 0.37443 0.0
C491 C 0.9213 0.25792 0.40942 0.0
C492 C 1.00708 0.28474 0.33843 0.0
C493 C 0.04486 0.30482 0.34199 0.0
C494 C 0.07089 0.31825 0.30396 0.0
C495 C 0.1038 0.35373 0.3049 0.0
C496 C 0.1291 0.36669 0.26984 0.0
C497 C 0.12264 0.34388 0.23372 0.0
H498 H 0.03948 0.26778 0.26622 0.0
C499 C 0.09004 0.30811 0.23304 0.0
C500 C 0.06423 0.29555 0.2676 0.0
H501 H 0.08429 0.29008 0.20548 0.0
H502 H 0.97018 0.23247 0.47675 0.0
H503 H 1.01506 0.2565 0.41608 0.0
H504 H 0.93958 0.28146 0.34585 0.0
H505 H 0.89514 0.25828 0.40721 0.0
H506 H 0.9947 0.27954 0.30664 0.0
H507 H 0.05711 0.31339 0.37368 0.0
H508 H 0.10976 0.37163 0.33267 0.0
H509 H 0.15411 0.39427 0.2712 0.0
C510 C 0.71841 0.79784 0.91922 0.0
C511 C 0.68737 0.77398 0.8938 0.0
C512 C 0.72956 0.78325 0.95344 0.0
C513 C 0.71001 0.74428 0.96299 0.0
C514 C 0.67876 0.72063 0.93797 0.0
C515 C 0.6677 0.73515 0.90379 0.0
C516 C 0.72074 0.72705 0.99879 0.0
C517 C 0.75545 0.74303 0.01589 0.0
C518 C 0.76683 0.72402 0.04887 0.0
C519 C 0.80502 0.73457 0.05156 0.0
C520 C 0.81686 0.71644 0.08054 0.0
C521 C 0.7909 0.68755 0.1081 0.0
H522 H 0.71139 0.68771 0.07738 0.0
C523 C 0.75284 0.67793 0.10673 0.0
C524 C 0.7409 0.69592 0.07743 0.0
H525 H 0.73209 0.65578 0.12743 0.0
H526 H 0.73384 0.82794 0.91309 0.0
H527 H 0.75311 0.80273 0.9726 0.0
H528 H 0.66303 0.69055 0.9445 0.0
H529 H 0.644 0.71564 0.88486 0.0
H530 H 0.69973 0.69881 0.00923 0.0
H531 H 0.77747 0.76983 0.00296 0.0
H532 H 0.82575 0.75641 0.03046 0.0
H533 H 0.84645 0.72495 0.08125 0.0
C534 C 0.36098 0.09027 0.76971 0.0
C535 C 0.3507 0.11826 0.77201 0.0
C536 C 0.34382 0.06084 0.74032 0.0
C537 C 0.31596 0.05874 0.71242 0.0
C538 C 0.3051 0.0862 0.71546 0.0
C539 C 0.32243 0.11576 0.74465 0.0
C540 C 0.297 0.02791 0.68063 0.0
C541 C 0.31326 1.00926 0.66339 0.0
C542 C 0.29483 0.9788 0.63106 0.0
C543 C 0.31755 0.97055 0.60437 0.0
C544 C 0.30147 0.94159 0.5743 0.0
C545 C 0.26213 0.91982 0.57048 0.0
H546 H 0.23681 0.96162 0.64802 0.0
C547 C 0.23935 0.92789 0.59738 0.0
C548 C 0.25543 0.95697 0.62734 0.0
H549 H 0.20898 0.91173 0.5952 0.0
H550 H 0.38281 0.09141 0.79003 0.0
H551 H 0.35224 0.03967 0.73995 0.0
H552 H 0.28341 0.08507 0.69479 0.0
H553 H 0.31355 0.13657 0.746 0.0
H554 H 0.26959 0.022 0.66944 0.0
H555 H 0.34209 0.01774 0.67164 0.0
H556 H 0.34794 0.98655 0.6068 0.0
H557 H 0.31992 0.93579 0.55478 0.0
loop_
_geom_bond_atom_site_label_1
_geom_bond_atom_site_label_2
_geom_bond_distance
_geom_bond_site_symmetry_2
_ccdc_geom_bond_type
C0 C1 1.351 1_554 S
C0 N3 1.368 . S
C0 H5 0.931 . S
C1 C0 1.351 1_556 S
C1 N2 1.373 . S
C1 H29 0.930 . S
N2 C1 1.373 . S
N2 C4 1.339 . S
N3 C0 1.368 . S
N3 C4 1.323 1_554 S
N3 Co6 2.135 . S
C4 N2 1.339 . S
C4 N3 1.323 1_556 S
C4 H28 0.930 1_556 S
H5 C0 0.931 . S
Co6 N3 2.135 . S
Co6 N9 2.121 . S
Co6 O14 2.055 . S
Co6 O17 2.039 . S
Co6 N20 2.140 . S
C7 O8 1.227 . S
C7 O17 1.265 . S
O8 C7 1.227 . S
N9 Co6 2.121 . S
N9 C11 1.375 . S
N9 C12 1.313 . S
C10 C11 1.338 . S
C10 N13 1.377 . S
C10 H30 0.930 . S
C11 N9 1.375 . S
C11 C10 1.338 . S
C11 H15 0.931 . S
C12 N9 1.313 . S
C12 N13 1.344 . S
C12 H16 0.930 . S
N13 C10 1.377 . S
N13 C12 1.344 . S
O14 Co6 2.055 . S
O14 C18 1.253 . S
H15 C11 0.931 . S
H16 C12 0.930 . S
O17 Co6 2.039 . S
O17 C7 1.265 . S
C18 O14 1.253 . S
C18 O19 1.227 . S
O19 C18 1.227 . S
N20 Co6 2.140 . S
N20 C23 1.346 1_554 S
N20 C24 1.345 . S
C21 C22 1.387 . S
C21 C25 1.391 . S
C22 C21 1.387 . S
C22 C23 1.369 . S
C22 H31 0.929 . S
C23 N20 1.346 1_556 S
C23 C22 1.369 . S
C23 H26 0.928 . S
C24 N20 1.345 . S
C24 C25 1.371 1_554 S
C24 H27 0.931 . S
C25 C21 1.391 . S
C25 C24 1.371 1_556 S
C25 H32 0.930 1_556 S
H26 C23 0.928 . S
H27 C24 0.931 . S
H28 C4 0.930 1_554 S
H29 C1 0.930 . S
H30 C10 0.930 . S
H31 C22 0.929 . S
H32 C25 0.930 1_554 S
C33 C34 1.351 . S
C33 N36 1.368 . S
C33 H38 0.931 . S
C34 C33 1.351 . S
C34 N35 1.373 . S
C34 H62 0.930 . S
N35 C34 1.373 . S
N35 C37 1.340 . S
N36 C33 1.368 . S
N36 C37 1.321 . S
N36 Co39 2.135 . S
C37 N35 1.340 . S
C37 N36 1.321 . S
C37 H61 0.930 . S
H38 C33 0.931 . S
Co39 N36 2.135 . S
Co39 N42 2.121 . S
Co39 O47 2.055 . S
Co39 O50 2.039 . S
Co39 N53 2.140 . S
C40 O41 1.227 . S
C40 O50 1.265 . S
O41 C40 1.227 . S
N42 Co39 2.121 . S
N42 C44 1.375 . S
N42 C45 1.313 . S
C43 C44 1.338 . S
C43 N46 1.377 . S
C43 H63 0.930 . S
C44 N42 1.375 . S
C44 C43 1.338 . S
C44 H48 0.931 . S
C45 N42 1.313 . S
C45 N46 1.344 . S
C45 H49 0.930 . S
N46 C43 1.377 . S
N46 C45 1.344 . S
O47 Co39 2.055 . S
O47 C51 1.253 . S
H48 C44 0.931 . S
H49 C45 0.930 . S
O50 Co39 2.039 . S
O50 C40 1.265 . S
C51 O47 1.253 . S
C51 O52 1.227 . S
O52 C51 1.227 . S
N53 Co39 2.140 . S
N53 C56 1.346 . S
N53 C57 1.345 . S
C54 C55 1.387 . S
C54 C58 1.391 . S
C55 C54 1.387 . S
C55 C56 1.369 . S
C55 H64 0.929 . S
C56 N53 1.346 . S
C56 C55 1.369 . S
C56 H59 0.928 . S
C57 N53 1.345 . S
C57 C58 1.371 . S
C57 H60 0.931 . S
C58 C54 1.391 . S
C58 C57 1.371 . S
C58 H65 0.930 . S
H59 C56 0.928 . S
H60 C57 0.931 . S
H61 C37 0.930 . S
H62 C34 0.930 . S
H63 C43 0.930 . S
H64 C55 0.929 . S
H65 C58 0.930 . S
C66 C67 1.351 . S
C66 N69 1.368 . S
C66 H71 0.931 . S
C67 C66 1.351 . S
C67 N68 1.373 . S
C67 H95 0.930 . S
N68 C67 1.373 . S
N68 C70 1.340 . S
N69 C66 1.368 . S
N69 C70 1.321 . S
N69 Co72 2.135 . S
C70 N68 1.340 . S
C70 N69 1.321 . S
C70 H94 0.930 . S
H71 C66 0.931 . S
Co72 N69 2.135 . S
Co72 N75 2.121 . S
Co72 O80 2.055 . S
Co72 O83 2.039 . S
Co72 N86 2.140 . S
C73 O74 1.227 . S
C73 O83 1.265 . S
O74 C73 1.227 . S
N75 Co72 2.121 . S
N75 C77 1.375 . S
N75 C78 1.313 . S
C76 C77 1.338 . S
C76 N79 1.377 . S
C76 H96 0.930 . S
C77 N75 1.375 . S
C77 C76 1.338 . S
C77 H81 0.931 . S
C78 N75 1.313 . S
C78 N79 1.344 . S
C78 H82 0.930 . S
N79 C76 1.377 . S
N79 C78 1.344 . S
O80 Co72 2.055 . S
O80 C84 1.253 . S
H81 C77 0.931 . S
H82 C78 0.930 . S
O83 Co72 2.039 . S
O83 C73 1.265 . S
C84 O80 1.253 . S
C84 O85 1.227 . S
O85 C84 1.227 . S
N86 Co72 2.140 . S
N86 C89 1.346 . S
N86 C90 1.345 . S
C87 C88 1.387 . S
C87 C91 1.391 . S
C88 C87 1.387 . S
C88 C89 1.369 . S
C88 H97 0.929 . S
C89 N86 1.346 . S
C89 C88 1.369 . S
C89 H92 0.928 . S
C90 N86 1.345 . S
C90 C91 1.371 . S
C90 H93 0.931 . S
C91 C87 1.391 . S
C91 C90 1.371 . S
C91 H98 0.930 . S
H92 C89 0.928 . S
H93 C90 0.931 . S
H94 C70 0.930 . S
H95 C67 0.930 . S
H96 C76 0.930 . S
H97 C88 0.929 . S
H98 C91 0.930 . S
C99 C100 1.351 1_556 S
C99 N102 1.368 . S
C99 H104 0.931 . S
C100 C99 1.351 1_554 S
C100 N101 1.373 . S
C100 H128 0.930 . S
N101 C100 1.373 . S
N101 C103 1.339 . S
N102 C99 1.368 . S
N102 C103 1.323 1_556 S
N102 Co105 2.135 . S
C103 N101 1.339 . S
C103 N102 1.323 1_554 S
C103 H127 0.930 1_554 S
H104 C99 0.931 . S
Co105 N102 2.135 . S
Co105 N108 2.121 . S
Co105 O113 2.055 . S
Co105 O116 2.039 . S
Co105 N119 2.140 . S
C106 O107 1.227 . S
C106 O116 1.265 . S
O107 C106 1.227 . S
N108 Co105 2.121 . S
N108 C110 1.375 . S
N108 C111 1.313 . S
C109 C110 1.338 . S
C109 N112 1.377 . S
C109 H129 0.930 . S
C110 N108 1.375 . S
C110 C109 1.338 . S
C110 H114 0.931 . S
C111 N108 1.313 . S
C111 N112 1.344 . S
C111 H115 0.930 . S
N112 C109 1.377 . S
N112 C111 1.344 . S
O113 Co105 2.055 . S
O113 C117 1.253 . S
H114 C110 0.931 . S
H115 C111 0.930 . S
O116 Co105 2.039 . S
O116 C106 1.265 . S
C117 O113 1.253 . S
C117 O118 1.227 . S
O118 C117 1.227 . S
N119 Co105 2.140 . S
N119 C122 1.346 1_556 S
N119 C123 1.345 . S
C120 C121 1.387 . S
C120 C124 1.391 . S
C121 C120 1.387 . S
C121 C122 1.369 . S
C121 H130 0.929 . S
C122 N119 1.346 1_554 S
C122 C121 1.369 . S
C122 H125 0.928 . S
C123 N119 1.345 . S
C123 C124 1.371 1_556 S
C123 H126 0.931 . S
C124 C120 1.391 . S
C124 C123 1.371 1_554 S
C124 H131 0.930 1_554 S
H125 C122 0.928 . S
H126 C123 0.931 . S
H127 C103 0.930 1_556 S
H128 C100 0.930 . S
H129 C109 0.930 . S
H130 C121 0.929 . S
H131 C124 0.930 1_556 S
C132 C133 1.351 . S
C132 N135 1.368 . S
C132 H137 0.931 . S
C133 C132 1.351 . S
C133 N134 1.373 . S
C133 H161 0.930 . S
N134 C133 1.373 . S
N134 C136 1.340 . S
N135 C132 1.368 . S
N135 C136 1.321 . S
N135 Co138 2.135 . S
C136 N134 1.340 . S
C136 N135 1.321 . S
C136 H160 0.930 . S
H137 C132 0.931 . S
Co138 N135 2.135 . S
Co138 N141 2.121 . S
Co138 O146 2.055 . S
Co138 O149 2.039 . S
Co138 N152 2.140 . S
C139 O140 1.227 . S
C139 O149 1.265 . S
O140 C139 1.227 . S
N141 Co138 2.121 . S
N141 C143 1.375 . S
N141 C144 1.313 . S
C142 C143 1.338 . S
C142 N145 1.377 . S
C142 H162 0.930 . S
C143 N141 1.375 . S
C143 C142 1.338 . S
C143 H147 0.931 . S
C144 N141 1.313 . S
C144 N145 1.344 . S
C144 H148 0.930 . S
N145 C142 1.377 . S
N145 C144 1.344 . S
O146 Co138 2.055 . S
O146 C150 1.253 . S
H147 C143 0.931 . S
H148 C144 0.930 . S
O149 Co138 2.039 . S
O149 C139 1.265 . S
C150 O146 1.253 . S
C150 O151 1.227 . S
O151 C150 1.227 . S
N152 Co138 2.140 . S
N152 C155 1.346 . S
N152 C156 1.345 . S
C153 C154 1.387 . S
C153 C157 1.391 . S
C154 C153 1.387 . S
C154 C155 1.369 . S
C154 H163 0.929 . S
C155 N152 1.346 . S
C155 C154 1.369 . S
C155 H158 0.928 . S
C156 N152 1.345 . S
C156 C157 1.371 . S
C156 H159 0.931 . S
C157 C153 1.391 . S
C157 C156 1.371 . S
C157 H164 0.930 . S
H158 C155 0.928 . S
H159 C156 0.931 . S
H160 C136 0.930 . S
H161 C133 0.930 . S
H162 C142 0.930 . S
H163 C154 0.929 . S
H164 C157 0.930 . S
C165 C166 1.351 . S
C165 N168 1.368 . S
C165 H170 0.931 . S
C166 C165 1.351 . S
C166 N167 1.373 . S
C166 H194 0.930 . S
N167 C166 1.373 . S
N167 C169 1.340 . S
N168 C165 1.368 . S
N168 C169 1.321 . S
N168 Co171 2.135 . S
C169 N167 1.340 . S
C169 N168 1.321 . S
C169 H193 0.930 . S
H170 C165 0.931 . S
Co171 N168 2.135 . S
Co171 N174 2.121 . S
Co171 O179 2.055 . S
Co171 O182 2.039 . S
Co171 N185 2.140 . S
C172 O173 1.227 . S
C172 O182 1.265 . S
O173 C172 1.227 . S
N174 Co171 2.121 . S
N174 C176 1.375 . S
N174 C177 1.313 . S
C175 C176 1.338 . S
C175 N178 1.377 . S
C175 H195 0.930 . S
C176 N174 1.375 . S
C176 C175 1.338 . S
C176 H180 0.931 . S
C177 N174 1.313 . S
C177 N178 1.344 . S
C177 H181 0.930 . S
N178 C175 1.377 . S
N178 C177 1.344 . S
O179 Co171 2.055 . S
O179 C183 1.253 . S
H180 C176 0.931 . S
H181 C177 0.930 . S
O182 Co171 2.039 . S
O182 C172 1.265 . S
C183 O179 1.253 . S
C183 O184 1.227 . S
O184 C183 1.227 . S
N185 Co171 2.140 . S
N185 C188 1.346 . S
N185 C189 1.345 . S
C186 C187 1.387 . S
C186 C190 1.391 . S
C187 C186 1.387 . S
C187 C188 1.369 . S
C187 H196 0.929 . S
C188 N185 1.346 . S
C188 C187 1.369 . S
C188 H191 0.928 . S
C189 N185 1.345 . S
C189 C190 1.371 . S
C189 H192 0.931 . S
C190 C186 1.391 . S
C190 C189 1.371 . S
C190 H197 0.930 . S
H191 C188 0.928 . S
H192 C189 0.931 . S
H193 C169 0.930 . S
H194 C166 0.930 . S
H195 C175 0.930 . S
H196 C187 0.929 . S
H197 C190 0.930 . S
C198 C199 1.386 . S
C198 C200 1.383 . S
C198 H214 0.951 . S
C199 C198 1.386 . S
C199 C203 1.383 . S
C200 C198 1.383 . S
C200 C201 1.402 . S
C200 H215 0.951 . S
C201 C200 1.402 . S
C201 C202 1.375 . S
C201 C204 1.481 . S
C202 C201 1.375 . S
C202 C203 1.367 . S
C202 H216 0.951 . S
C203 C199 1.383 . S
C203 C202 1.367 . S
C203 H217 0.950 . S
C204 C201 1.481 . S
C204 C205 1.297 . S
C204 H218 0.950 . S
C205 C204 1.297 . S
C205 C206 1.479 . S
C205 H219 0.950 . S
C206 C205 1.479 . S
C206 C207 1.375 . S
C206 C212 1.404 . S
C207 C206 1.375 . S
C207 C208 1.369 . S
C207 H220 0.950 . S
C208 C207 1.369 . S
C208 C209 1.392 . S
C208 H221 0.951 . S
C209 C208 1.392 . S
C209 C211 1.384 . S
H210 C212 0.949 . S
C211 C209 1.384 . S
C211 C212 1.385 . S
C211 H213 0.950 . S
C212 C206 1.404 . S
C212 H210 0.949 . S
C212 C211 1.385 . S
H213 C211 0.950 . S
H214 C198 0.951 . S
H215 C200 0.951 . S
H216 C202 0.951 . S
H217 C203 0.950 . S
H218 C204 0.950 . S
H219 C205 0.950 . S
H220 C207 0.950 . S
H221 C208 0.951 . S
C222 C223 1.386 . S
C222 C224 1.383 . S
C222 H238 0.951 . S
C223 C222 1.386 . S
C223 C227 1.383 . S
C224 C222 1.383 . S
C224 C225 1.402 . S
C224 H239 0.951 . S
C225 C224 1.402 . S
C225 C226 1.375 . S
C225 C228 1.481 . S
C226 C225 1.375 . S
C226 C227 1.367 . S
C226 H240 0.951 . S
C227 C223 1.383 . S
C227 C226 1.367 . S
C227 H241 0.950 . S
C228 C225 1.481 . S
C228 C229 1.297 . S
C228 H242 0.950 . S
C229 C228 1.297 . S
C229 C230 1.479 . S
C229 H243 0.950 . S
C230 C229 1.479 . S
C230 C231 1.375 . S
C230 C236 1.404 . S
C231 C230 1.375 . S
C231 C232 1.369 . S
C231 H244 0.950 . S
C232 C231 1.369 . S
C232 C233 1.392 . S
C232 H245 0.951 . S
C233 C232 1.392 . S
C233 C235 1.384 . S
H234 C236 0.949 . S
C235 C233 1.384 . S
C235 C236 1.385 . S
C235 H237 0.950 . S
C236 C230 1.404 . S
C236 H234 0.949 . S
C236 C235 1.385 . S
H237 C235 0.950 . S
H238 C222 0.951 . S
H239 C224 0.951 . S
H240 C226 0.951 . S
H241 C227 0.950 . S
H242 C228 0.950 . S
H243 C229 0.950 . S
H244 C231 0.950 . S
H245 C232 0.951 . S
C246 C247 1.386 . S
C246 C248 1.383 . S
C246 H262 0.951 . S
C247 C246 1.386 . S
C247 C251 1.383 . S
C248 C246 1.383 . S
C248 C249 1.402 . S
C248 H263 0.951 . S
C249 C248 1.402 . S
C249 C250 1.375 . S
C249 C252 1.481 . S
C250 C249 1.375 . S
C250 C251 1.367 . S
C250 H264 0.951 . S
C251 C247 1.383 . S
C251 C250 1.367 . S
C251 H265 0.950 . S
C252 C249 1.481 . S
C252 C253 1.297 . S
C252 H266 0.950 . S
C253 C252 1.297 . S
C253 C254 1.479 . S
C253 H267 0.950 . S
C254 C253 1.479 . S
C254 C255 1.375 . S
C254 C260 1.404 . S
C255 C254 1.375 . S
C255 C256 1.369 . S
C255 H268 0.950 . S
C256 C255 1.369 . S
C256 C257 1.392 . S
C256 H269 0.951 . S
C257 C256 1.392 . S
C257 C259 1.384 . S
H258 C260 0.949 . S
C259 C257 1.384 . S
C259 C260 1.385 . S
C259 H261 0.950 . S
C260 C254 1.404 . S
C260 H258 0.949 . S
C260 C259 1.385 . S
H261 C259 0.950 . S
H262 C246 0.951 . S
H263 C248 0.951 . S
H264 C250 0.951 . S
H265 C251 0.950 . S
H266 C252 0.950 . S
H267 C253 0.950 . S
H268 C255 0.950 . S
H269 C256 0.951 . S
C270 C271 1.386 . S
C270 C272 1.383 . S
C270 H286 0.951 . S
C271 C270 1.386 . S
C271 C275 1.383 . S
C272 C270 1.383 . S
C272 C273 1.402 . S
C272 H287 0.951 . S
C273 C272 1.402 . S
C273 C274 1.375 . S
C273 C276 1.481 . S
C274 C273 1.375 . S
C274 C275 1.367 . S
C274 H288 0.951 . S
C275 C271 1.383 . S
C275 C274 1.367 . S
C275 H289 0.950 . S
C276 C273 1.481 . S
C276 C277 1.297 . S
C276 H290 0.950 . S
C277 C276 1.297 . S
C277 C278 1.479 . S
C277 H291 0.950 . S
C278 C277 1.479 . S
C278 C279 1.375 . S
C278 C284 1.404 . S
C279 C278 1.375 . S
C279 C280 1.369 . S
C279 H292 0.950 . S
C280 C279 1.369 . S
C280 C281 1.392 . S
C280 H293 0.951 . S
C281 C280 1.392 . S
C281 C283 1.384 . S
H282 C284 0.949 . S
C283 C281 1.384 . S
C283 C284 1.385 . S
C283 H285 0.950 . S
C284 C278 1.404 . S
C284 H282 0.949 . S
C284 C283 1.385 . S
H285 C283 0.950 . S
H286 C270 0.951 . S
H287 C272 0.951 . S
H288 C274 0.951 . S
H289 C275 0.950 . S
H290 C276 0.950 . S
H291 C277 0.950 . S
H292 C279 0.950 . S
H293 C280 0.951 . S
C294 C295 1.386 . S
C294 C296 1.383 . S
C294 H310 0.951 . S
C295 C294 1.386 . S
C295 C299 1.383 . S
C296 C294 1.383 . S
C296 C297 1.402 . S
C296 H311 0.951 . S
C297 C296 1.402 . S
C297 C298 1.375 . S
C297 C300 1.481 . S
C298 C297 1.375 . S
C298 C299 1.367 . S
C298 H312 0.951 . S
C299 C295 1.383 . S
C299 C298 1.367 . S
C299 H313 0.950 . S
C300 C297 1.481 . S
C300 C301 1.297 . S
C300 H314 0.950 . S
C301 C300 1.297 . S
C301 C302 1.479 . S
C301 H315 0.950 . S
C302 C301 1.479 . S
C302 C303 1.375 . S
C302 C308 1.404 . S
C303 C302 1.375 . S
C303 C304 1.369 . S
C303 H316 0.950 . S
C304 C303 1.369 . S
C304 C305 1.392 . S
C304 H317 0.951 . S
C305 C304 1.392 . S
C305 C307 1.384 . S
H306 C308 0.949 . S
C307 C305 1.384 . S
C307 C308 1.385 . S
C307 H309 0.950 . S
C308 C302 1.404 . S
C308 H306 0.949 . S
C308 C307 1.385 . S
H309 C307 0.950 . S
H310 C294 0.951 . S
H311 C296 0.951 . S
H312 C298 0.951 . S
H313 C299 0.950 . S
H314 C300 0.950 . S
H315 C301 0.950 . S
H316 C303 0.950 . S
H317 C304 0.951 . S
C318 C319 1.386 . S
C318 C320 1.383 . S
C318 H334 0.951 . S
C319 C318 1.386 . S
C319 C323 1.383 . S
C320 C318 1.383 . S
C320 C321 1.402 . S
C320 H335 0.951 . S
C321 C320 1.402 . S
C321 C322 1.375 . S
C321 C324 1.481 . S
C322 C321 1.375 . S
C322 C323 1.367 . S
C322 H336 0.951 . S
C323 C319 1.383 . S
C323 C322 1.367 . S
C323 H337 0.950 . S
C324 C321 1.481 . S
C324 C325 1.297 . S
C324 H338 0.950 . S
C325 C324 1.297 . S
C325 C326 1.479 . S
C325 H339 0.950 . S
C326 C325 1.479 . S
C326 C327 1.375 . S
C326 C332 1.404 . S
C327 C326 1.375 . S
C327 C328 1.369 . S
C327 H340 0.950 . S
C328 C327 1.369 . S
C328 C329 1.392 . S
C328 H341 0.951 . S
C329 C328 1.392 . S
C329 C331 1.384 . S
H330 C332 0.949 . S
C331 C329 1.384 . S
C331 C332 1.385 . S
C331 H333 0.950 . S
C332 C326 1.404 . S
C332 H330 0.949 . S
C332 C331 1.385 . S
H333 C331 0.950 . S
H334 C318 0.951 . S
H335 C320 0.951 . S
H336 C322 0.951 . S
H337 C323 0.950 . S
H338 C324 0.950 . S
H339 C325 0.950 . S
H340 C327 0.950 . S
H341 C328 0.951 . S
C342 C343 1.386 . S
C342 C344 1.383 . S
C342 H358 0.951 . S
C343 C342 1.386 . S
C343 C347 1.383 . S
C344 C342 1.383 . S
C344 C345 1.402 . S
C344 H359 0.951 . S
C345 C344 1.402 . S
C345 C346 1.375 . S
C345 C348 1.481 1_655 S
C346 C345 1.375 . S
C346 C347 1.367 . S
C346 H360 0.951 1_655 S
C347 C343 1.383 . S
C347 C346 1.367 . S
C347 H361 0.950 . S
C348 C345 1.481 1_455 S
C348 C349 1.297 . S
C348 H362 0.950 . S
C349 C348 1.297 . S
C349 C350 1.479 . S
C349 H363 0.950 1_455 S
C350 C349 1.479 . S
C350 C351 1.375 . S
C350 C356 1.404 . S
C351 C350 1.375 . S
C351 C352 1.369 . S
C351 H364 0.950 . S
C352 C351 1.369 . S
C352 C353 1.392 . S
C352 H365 0.951 . S
C353 C352 1.392 . S
C353 C355 1.384 . S
H354 C356 0.949 . S
C355 C353 1.384 . S
C355 C356 1.385 . S
C355 H357 0.950 . S
C356 C350 1.404 . S
C356 H354 0.949 . S
C356 C355 1.385 . S
H357 C355 0.950 . S
H358 C342 0.951 . S
H359 C344 0.951 . S
H360 C346 0.951 1_455 S
H361 C347 0.950 . S
H362 C348 0.950 . S
H363 C349 0.950 1_655 S
H364 C351 0.950 . S
H365 C352 0.951 . S
C366 C367 1.386 . S
C366 C368 1.383 . S
C366 H382 0.951 . S
C367 C366 1.386 . S
C367 C371 1.383 . S
C368 C366 1.383 . S
C368 C369 1.402 . S
C368 H383 0.951 . S
C369 C368 1.402 . S
C369 C370 1.375 . S
C369 C372 1.481 . S
C370 C369 1.375 . S
C370 C371 1.367 . S
C370 H384 0.951 . S
C371 C367 1.383 . S
C371 C370 1.367 . S
C371 H385 0.950 . S
C372 C369 1.481 . S
C372 C373 1.297 . S
C372 H386 0.950 . S
C373 C372 1.297 . S
C373 C374 1.479 . S
C373 H387 0.950 . S
C374 C373 1.479 . S
C374 C375 1.375 . S
C374 C380 1.404 . S
C375 C374 1.375 . S
C375 C376 1.369 . S
C375 H388 0.950 . S
C376 C375 1.369 . S
C376 C377 1.392 . S
C376 H389 0.951 . S
C377 C376 1.392 . S
C377 C379 1.384 . S
H378 C380 0.949 . S
C379 C377 1.384 . S
C379 C380 1.385 . S
C379 H381 0.950 . S
C380 C374 1.404 . S
C380 H378 0.949 . S
C380 C379 1.385 . S
H381 C379 0.950 . S
H382 C366 0.951 . S
H383 C368 0.951 . S
H384 C370 0.951 . S
H385 C371 0.950 . S
H386 C372 0.950 . S
H387 C373 0.950 . S
H388 C375 0.950 . S
H389 C376 0.951 . S
C390 C391 1.386 . S
C390 C392 1.383 . S
C390 H406 0.951 . S
C391 C390 1.386 . S
C391 C395 1.383 . S
C392 C390 1.383 . S
C392 C393 1.402 . S
C392 H407 0.951 . S
C393 C392 1.402 . S
C393 C394 1.375 . S
C393 C396 1.481 1_545 S
C394 C393 1.375 . S
C394 C395 1.367 . S
C394 H408 0.951 1_545 S
C395 C391 1.383 . S
C395 C394 1.367 . S
C395 H409 0.950 . S
C396 C393 1.481 1_565 S
C396 C397 1.297 . S
C396 H410 0.950 . S
C397 C396 1.297 . S
C397 C398 1.479 . S
C397 H411 0.950 1_565 S
C398 C397 1.479 . S
C398 C399 1.375 . S
C398 C404 1.404 . S
C399 C398 1.375 . S
C399 C400 1.369 . S
C399 H412 0.950 . S
C400 C399 1.369 . S
C400 C401 1.392 . S
C400 H413 0.951 . S
C401 C400 1.392 . S
C401 C403 1.384 . S
H402 C404 0.949 . S
C403 C401 1.384 . S
C403 C404 1.385 . S
C403 H405 0.950 . S
C404 C398 1.404 . S
C404 H402 0.949 . S
C404 C403 1.385 . S
H405 C403 0.950 . S
H406 C390 0.951 . S
H407 C392 0.951 . S
H408 C394 0.951 1_565 S
H409 C395 0.950 . S
H410 C396 0.950 . S
H411 C397 0.950 1_545 S
H412 C399 0.950 . S
H413 C400 0.951 . S
C414 C415 1.386 . S
C414 C416 1.383 . S
C414 H430 0.951 . S
C415 C414 1.386 . S
C415 C419 1.383 . S
C416 C414 1.383 . S
C416 C417 1.402 . S
C416 H431 0.951 . S
C417 C416 1.402 . S
C417 C418 1.375 1_556 S
C417 C420 1.481 1_556 S
C418 C417 1.375 1_554 S
C418 C419 1.367 1_554 S
C418 H432 0.951 . S
C419 C415 1.383 . S
C419 C418 1.367 1_556 S
C419 H433 0.950 1_556 S
C420 C417 1.481 1_554 S
C420 C421 1.297 1_554 S
C420 H434 0.950 . S
C421 C420 1.297 1_556 S
C421 C422 1.479 1_556 S
C421 H435 0.950 . S
C422 C421 1.479 1_554 S
C422 C423 1.375 1_554 S
C422 C428 1.404 . S
C423 C422 1.375 1_556 S
C423 C424 1.369 1_556 S
C423 H436 0.950 . S
C424 C423 1.369 1_554 S
C424 C425 1.392 . S
C424 H437 0.951 1_554 S
C425 C424 1.392 . S
C425 C427 1.384 . S
H426 C428 0.949 . S
C427 C425 1.384 . S
C427 C428 1.385 . S
C427 H429 0.950 . S
C428 C422 1.404 . S
C428 H426 0.949 . S
C428 C427 1.385 . S
H429 C427 0.950 . S
H430 C414 0.951 . S
H431 C416 0.951 . S
H432 C418 0.951 . S
H433 C419 0.950 1_554 S
H434 C420 0.950 . S
H435 C421 0.950 . S
H436 C423 0.950 . S
H437 C424 0.951 1_556 S
C438 C439 1.386 . S
C438 C440 1.383 . S
C438 H454 0.951 . S
C439 C438 1.386 . S
C439 C443 1.383 . S
C440 C438 1.383 . S
C440 C441 1.402 . S
C440 H455 0.951 . S
C441 C440 1.402 . S
C441 C442 1.375 . S
C441 C444 1.481 . S
C442 C441 1.375 . S
C442 C443 1.367 . S
C442 H456 0.951 . S
C443 C439 1.383 . S
C443 C442 1.367 . S
C443 H457 0.950 . S
C444 C441 1.481 . S
C444 C445 1.297 1_545 S
C444 H458 0.950 . S
C445 C444 1.297 1_565 S
C445 C446 1.479 . S
C445 H459 0.950 . S
C446 C445 1.479 . S
C446 C447 1.375 . S
C446 C452 1.404 . S
C447 C446 1.375 . S
C447 C448 1.369 . S
C447 H460 0.950 . S
C448 C447 1.369 . S
C448 C449 1.392 . S
C448 H461 0.951 . S
C449 C448 1.392 . S
C449 C451 1.384 . S
H450 C452 0.949 . S
C451 C449 1.384 . S
C451 C452 1.385 . S
C451 H453 0.950 . S
C452 C446 1.404 . S
C452 H450 0.949 . S
C452 C451 1.385 . S
H453 C451 0.950 . S
H454 C438 0.951 . S
H455 C440 0.951 . S
H456 C442 0.951 . S
H457 C443 0.950 . S
H458 C444 0.950 . S
H459 C445 0.950 . S
H460 C447 0.950 . S
H461 C448 0.951 . S
C462 C463 1.386 . S
C462 C464 1.383 . S
C462 H478 0.951 . S
C463 C462 1.386 . S
C463 C467 1.383 . S
C464 C462 1.383 . S
C464 C465 1.402 . S
C464 H479 0.951 . S
C465 C464 1.402 . S
C465 C466 1.375 . S
C465 C468 1.481 . S
C466 C465 1.375 . S
C466 C467 1.367 . S
C466 H480 0.951 . S
C467 C463 1.383 . S
C467 C466 1.367 . S
C467 H481 0.950 . S
C468 C465 1.481 . S
C468 C469 1.297 1_455 S
C468 H482 0.950 . S
C469 C468 1.297 1_655 S
C469 C470 1.479 . S
C469 H483 0.950 . S
C470 C469 1.479 . S
C470 C471 1.375 . S
C470 C476 1.404 . S
C471 C470 1.375 . S
C471 C472 1.369 . S
C471 H484 0.950 . S
C472 C471 1.369 . S
C472 C473 1.392 . S
C472 H485 0.951 . S
C473 C472 1.392 . S
C473 C475 1.384 . S
H474 C476 0.949 . S
C475 C473 1.384 . S
C475 C476 1.385 . S
C475 H477 0.950 . S
C476 C470 1.404 . S
C476 H474 0.949 . S
C476 C475 1.385 . S
H477 C475 0.950 . S
H478 C462 0.951 . S
H479 C464 0.951 . S
H480 C466 0.951 . S
H481 C467 0.950 . S
H482 C468 0.950 . S
H483 C469 0.950 . S
H484 C471 0.950 . S
H485 C472 0.951 . S
C486 C487 1.386 . S
C486 C488 1.383 . S
C486 H502 0.951 . S
C487 C486 1.386 . S
C487 C491 1.383 . S
C488 C486 1.383 . S
C488 C489 1.402 . S
C488 H503 0.951 1_655 S
C489 C488 1.402 . S
C489 C490 1.375 . S
C489 C492 1.481 . S
C490 C489 1.375 . S
C490 C491 1.367 . S
C490 H504 0.951 . S
C491 C487 1.383 . S
C491 C490 1.367 . S
C491 H505 0.950 . S
C492 C489 1.481 . S
C492 C493 1.297 1_655 S
C492 H506 0.950 . S
C493 C492 1.297 1_455 S
C493 C494 1.479 . S
C493 H507 0.950 . S
C494 C493 1.479 . S
C494 C495 1.375 . S
C494 C500 1.404 . S
C495 C494 1.375 . S
C495 C496 1.369 . S
C495 H508 0.950 . S
C496 C495 1.369 . S
C496 C497 1.392 . S
C496 H509 0.951 . S
C497 C496 1.392 . S
C497 C499 1.384 . S
H498 C500 0.949 . S
C499 C497 1.384 . S
C499 C500 1.385 . S
C499 H501 0.950 . S
C500 C494 1.404 . S
C500 H498 0.949 . S
C500 C499 1.385 . S
H501 C499 0.950 . S
H502 C486 0.951 . S
H503 C488 0.951 1_455 S
H504 C490 0.951 . S
H505 C491 0.950 . S
H506 C492 0.950 . S
H507 C493 0.950 . S
H508 C495 0.950 . S
H509 C496 0.951 . S
C510 C511 1.386 . S
C510 C512 1.383 . S
C510 H526 0.951 . S
C511 C510 1.386 . S
C511 C515 1.383 . S
C512 C510 1.383 . S
C512 C513 1.402 . S
C512 H527 0.951 . S
C513 C512 1.402 . S
C513 C514 1.375 . S
C513 C516 1.481 . S
C514 C513 1.375 . S
C514 C515 1.367 . S
C514 H528 0.951 . S
C515 C511 1.383 . S
C515 C514 1.367 . S
C515 H529 0.950 . S
C516 C513 1.481 . S
C516 C517 1.297 1_556 S
C516 H530 0.948 1_556 S
C517 C516 1.297 1_554 S
C517 C518 1.479 . S
C517 H531 0.950 . S
C518 C517 1.479 . S
C518 C519 1.375 . S
C518 C524 1.404 . S
C519 C518 1.375 . S
C519 C520 1.369 . S
C519 H532 0.950 . S
C520 C519 1.369 . S
C520 C521 1.392 . S
C520 H533 0.951 . S
C521 C520 1.392 . S
C521 C523 1.384 . S
H522 C524 0.949 . S
C523 C521 1.384 . S
C523 C524 1.385 . S
C523 H525 0.950 . S
C524 C518 1.404 . S
C524 H522 0.949 . S
C524 C523 1.385 . S
H525 C523 0.950 . S
H526 C510 0.951 . S
H527 C512 0.951 . S
H528 C514 0.951 . S
H529 C515 0.950 . S
H530 C516 0.948 1_554 S
H531 C517 0.950 . S
H532 C519 0.950 . S
H533 C520 0.951 . S
C534 C535 1.386 . S
C534 C536 1.383 . S
C534 H550 0.951 . S
C535 C534 1.386 . S
C535 C539 1.383 . S
C536 C534 1.383 . S
C536 C537 1.402 . S
C536 H551 0.951 . S
C537 C536 1.402 . S
C537 C538 1.375 . S
C537 C540 1.481 1_545 S
C538 C537 1.375 . S
C538 C539 1.367 . S
C538 H552 0.951 1_545 S
C539 C535 1.383 . S
C539 C538 1.367 . S
C539 H553 0.950 . S
C540 C537 1.481 1_565 S
C540 C541 1.297 . S
C540 H554 0.950 . S
C541 C540 1.297 . S
C541 C542 1.479 . S
C541 H555 0.950 1_565 S
C542 C541 1.479 . S
C542 C543 1.375 . S
C542 C548 1.404 . S
C543 C542 1.375 . S
C543 C544 1.369 . S
C543 H556 0.950 . S
C544 C543 1.369 . S
C544 C545 1.392 . S
C544 H557 0.951 . S
C545 C544 1.392 . S
C545 C547 1.384 . S
H546 C548 0.949 . S
C547 C545 1.384 . S
C547 C548 1.385 . S
C547 H549 0.950 . S
C548 C542 1.404 . S
C548 H546 0.949 . S
C548 C547 1.385 . S
H549 C547 0.950 . S
H550 C534 0.951 . S
H551 C536 0.951 . S
H552 C538 0.951 1_565 S
H553 C539 0.950 . S
H554 C540 0.950 . S
H555 C541 0.950 1_545 S
H556 C543 0.950 . S
H557 C544 0.951 . S
C199 N68 1.181 . S
C209 C18 1.198 . S
C223 C51 1.213 . S
C233 N2 1.165 . S
C247 C84 1.216 . S
C257 N35 1.138 . S
C271 C117 1.217 . S
C281 N134 1.125 . S
C295 N167 1.183 . S
C305 C150 1.197 . S
C319 N101 1.110 . S
C329 C183 1.221 . S
C343 C153 0.577 . S
C353 C21 0.564 . S
C367 C186 0.570 . S
C377 C54 0.582 . S
C391 C120 0.579 . S
C401 C87 0.561 . S
C415 C106 1.506 . S
C425 C7 1.498 . S
C439 C139 1.492 . S
C449 C40 1.537 . S
C463 C73 1.518 . S
C473 C172 1.479 . S
C487 N145 2.043 . S
C497 N13 2.029 . S
C511 N46 2.058 . S
C521 N178 2.043 . S
C535 N112 2.052 . S
C545 N79 2.052 . S
