# Generated by pormake.
# Topology uns, (4)-cn, num edge types: 1
# Building blocks:
#     Node 0, Type 0, BuildingBlock: ESEHIV_clean_sbu_0, # of connection points: 4
#     Node 1, Type 0, BuildingBlock: ESEHIV_clean_sbu_0, # of connection points: 4
#     Node 2, Type 0, BuildingBlock: ESEHIV_clean_sbu_0, # of connection points: 4
#     Node 3, Type 0, BuildingBlock: ESEHIV_clean_sbu_0, # of connection points: 4
#     Node 4, Type 0, BuildingBlock: ESEHIV_clean_sbu_0, # of connection points: 4
#     Node 5, Type 0, BuildingBlock: ESEHIV_clean_sbu_0, # of connection points: 4
#     Node 6, Type 0, BuildingBlock: ESEHIV_clean_sbu_0, # of connection points: 4
#     Node 7, Type 0, BuildingBlock: ESEHIV_clean_sbu_0, # of connection points: 4
#     Node 8, Type 0, BuildingBlock: ESEHIV_clean_sbu_0, # of connection points: 4
#     Node 9, Type 0, BuildingBlock: ESEHIV_clean_sbu_0, # of connection points: 4
#     Node 10, Type 0, BuildingBlock: ESEHIV_clean_sbu_0, # of connection points: 4
#     Node 11, Type 0, BuildingBlock: ESEHIV_clean_sbu_0, # of connection points: 4
#     Node 12, Type 0, BuildingBlock: ESEHIV_clean_sbu_0, # of connection points: 4
#     Node 13, Type 0, BuildingBlock: ESEHIV_clean_sbu_0, # of connection points: 4
#     Node 14, Type 0, BuildingBlock: ESEHIV_clean_sbu_0, # of connection points: 4
#     Node 15, Type 0, BuildingBlock: ESEHIV_clean_sbu_0, # of connection points: 4
#     Node 16, Type 0, BuildingBlock: ESEHIV_clean_sbu_0, # of connection points: 4
#     Node 17, Type 0, BuildingBlock: ESEHIV_clean_sbu_0, # of connection points: 4
#     Node 18, Type 0, BuildingBlock: ESEHIV_clean_sbu_0, # of connection points: 4
#     Node 19, Type 0, BuildingBlock: ESEHIV_clean_sbu_0, # of connection points: 4
#     Node 20, Type 0, BuildingBlock: ESEHIV_clean_sbu_0, # of connection points: 4
#     Node 21, Type 0, BuildingBlock: ESEHIV_clean_sbu_0, # of connection points: 4
#     Node 22, Type 0, BuildingBlock: ESEHIV_clean_sbu_0, # of connection points: 4
#     Node 23, Type 0, BuildingBlock: ESEHIV_clean_sbu_0, # of connection points: 4
#     Node 24, Type 0, BuildingBlock: ESEHIV_clean_sbu_0, # of connection points: 4
#     Node 25, Type 0, BuildingBlock: ESEHIV_clean_sbu_0, # of connection points: 4
#     Node 26, Type 0, BuildingBlock: ESEHIV_clean_sbu_0, # of connection points: 4
#     Node 27, Type 0, BuildingBlock: ESEHIV_clean_sbu_0, # of connection points: 4
#     Node 28, Type 0, BuildingBlock: ESEHIV_clean_sbu_0, # of connection points: 4
#     Node 29, Type 0, BuildingBlock: ESEHIV_clean_sbu_0, # of connection points: 4
#     Node 30, Type 0, BuildingBlock: ESEHIV_clean_sbu_0, # of connection points: 4
#     Node 31, Type 0, BuildingBlock: ESEHIV_clean_sbu_0, # of connection points: 4
#     Node 32, Type 0, BuildingBlock: ESEHIV_clean_sbu_0, # of connection points: 4
#     Node 33, Type 0, BuildingBlock: ESEHIV_clean_sbu_0, # of connection points: 4
#     Node 34, Type 0, BuildingBlock: ESEHIV_clean_sbu_0, # of connection points: 4
#     Node 35, Type 0, BuildingBlock: ESEHIV_clean_sbu_0, # of connection points: 4
#     Edge 36, Type (0, 0), BuildingBlock: CIFDUS_clean_linker_0, # of connection points: 2
#     Edge 37, Type (0, 0), BuildingBlock: CIFDUS_clean_linker_0, # of connection points: 2
#     Edge 38, Type (0, 0), BuildingBlock: CIFDUS_clean_linker_0, # of connection points: 2
#     Edge 39, Type (0, 0), BuildingBlock: CIFDUS_clean_linker_0, # of connection points: 2
#     Edge 40, Type (0, 0), BuildingBlock: CIFDUS_clean_linker_0, # of connection points: 2
#     Edge 41, Type (0, 0), BuildingBlock: CIFDUS_clean_linker_0, # of connection points: 2
#     Edge 42, Type (0, 0), BuildingBlock: CIFDUS_clean_linker_0, # of connection points: 2
#     Edge 43, Type (0, 0), BuildingBlock: CIFDUS_clean_linker_0, # of connection points: 2
#     Edge 44, Type (0, 0), BuildingBlock: CIFDUS_clean_linker_0, # of connection points: 2
#     Edge 45, Type (0, 0), BuildingBlock: CIFDUS_clean_linker_0, # of connection points: 2
#     Edge 46, Type (0, 0), BuildingBlock: CIFDUS_clean_linker_0, # of connection points: 2
#     Edge 47, Type (0, 0), BuildingBlock: CIFDUS_clean_linker_0, # of connection points: 2
#     Edge 48, Type (0, 0), BuildingBlock: CIFDUS_clean_linker_0, # of connection points: 2
#     Edge 49, Type (0, 0), BuildingBlock: CIFDUS_clean_linker_0, # of connection points: 2
#     Edge 50, Type (0, 0), BuildingBlock: CIFDUS_clean_linker_0, # of connection points: 2
#     Edge 51, Type (0, 0), BuildingBlock: CIFDUS_clean_linker_0, # of connection points: 2
#     Edge 52, Type (0, 0), BuildingBlock: CIFDUS_clean_linker_0, # of connection points: 2
#     Edge 53, Type (0, 0), BuildingBlock: CIFDUS_clean_linker_0, # of connection points: 2
#     Edge 54, Type (0, 0), BuildingBlock: CIFDUS_clean_linker_0, # of connection points: 2
#     Edge 55, Type (0, 0), BuildingBlock: CIFDUS_clean_linker_0, # of connection points: 2
#     Edge 56, Type (0, 0), BuildingBlock: CIFDUS_clean_linker_0, # of connection points: 2
#     Edge 57, Type (0, 0), BuildingBlock: CIFDUS_clean_linker_0, # of connection points: 2
#     Edge 58, Type (0, 0), BuildingBlock: CIFDUS_clean_linker_0, # of connection points: 2
#     Edge 59, Type (0, 0), BuildingBlock: CIFDUS_clean_linker_0, # of connection points: 2
#     Edge 60, Type (0, 0), BuildingBlock: CIFDUS_clean_linker_0, # of connection points: 2
#     Edge 61, Type (0, 0), BuildingBlock: CIFDUS_clean_linker_0, # of connection points: 2
#     Edge 62, Type (0, 0), BuildingBlock: CIFDUS_clean_linker_0, # of connection points: 2
#     Edge 63, Type (0, 0), BuildingBlock: CIFDUS_clean_linker_0, # of connection points: 2
#     Edge 64, Type (0, 0), BuildingBlock: CIFDUS_clean_linker_0, # of connection points: 2
#     Edge 65, Type (0, 0), BuildingBlock: CIFDUS_clean_linker_0, # of connection points: 2
#     Edge 66, Type (0, 0), BuildingBlock: CIFDUS_clean_linker_0, # of connection points: 2
#     Edge 67, Type (0, 0), BuildingBlock: CIFDUS_clean_linker_0, # of connection points: 2
#     Edge 68, Type (0, 0), BuildingBlock: CIFDUS_clean_linker_0, # of connection points: 2
#     Edge 69, Type (0, 0), BuildingBlock: CIFDUS_clean_linker_0, # of connection points: 2
#     Edge 70, Type (0, 0), BuildingBlock: CIFDUS_clean_linker_0, # of connection points: 2
#     Edge 71, Type (0, 0), BuildingBlock: CIFDUS_clean_linker_0, # of connection points: 2
#     Edge 72, Type (0, 0), BuildingBlock: CIFDUS_clean_linker_0, # of connection points: 2
#     Edge 73, Type (0, 0), BuildingBlock: CIFDUS_clean_linker_0, # of connection points: 2
#     Edge 74, Type (0, 0), BuildingBlock: CIFDUS_clean_linker_0, # of connection points: 2
#     Edge 75, Type (0, 0), BuildingBlock: CIFDUS_clean_linker_0, # of connection points: 2
#     Edge 76, Type (0, 0), BuildingBlock: CIFDUS_clean_linker_0, # of connection points: 2
#     Edge 77, Type (0, 0), BuildingBlock: CIFDUS_clean_linker_0, # of connection points: 2
#     Edge 78, Type (0, 0), BuildingBlock: CIFDUS_clean_linker_0, # of connection points: 2
#     Edge 79, Type (0, 0), BuildingBlock: CIFDUS_clean_linker_0, # of connection points: 2
#     Edge 80, Type (0, 0), BuildingBlock: CIFDUS_clean_linker_0, # of connection points: 2
#     Edge 81, Type (0, 0), BuildingBlock: CIFDUS_clean_linker_0, # of connection points: 2
#     Edge 82, Type (0, 0), BuildingBlock: CIFDUS_clean_linker_0, # of connection points: 2
#     Edge 83, Type (0, 0), BuildingBlock: CIFDUS_clean_linker_0, # of connection points: 2
#     Edge 84, Type (0, 0), BuildingBlock: CIFDUS_clean_linker_0, # of connection points: 2
#     Edge 85, Type (0, 0), BuildingBlock: CIFDUS_clean_linker_0, # of connection points: 2
#     Edge 86, Type (0, 0), BuildingBlock: CIFDUS_clean_linker_0, # of connection points: 2
#     Edge 87, Type (0, 0), BuildingBlock: CIFDUS_clean_linker_0, # of connection points: 2
#     Edge 88, Type (0, 0), BuildingBlock: CIFDUS_clean_linker_0, # of connection points: 2
#     Edge 89, Type (0, 0), BuildingBlock: CIFDUS_clean_linker_0, # of connection points: 2
#     Edge 90, Type (0, 0), BuildingBlock: CIFDUS_clean_linker_0, # of connection points: 2
#     Edge 91, Type (0, 0), BuildingBlock: CIFDUS_clean_linker_0, # of connection points: 2
#     Edge 92, Type (0, 0), BuildingBlock: CIFDUS_clean_linker_0, # of connection points: 2
#     Edge 93, Type (0, 0), BuildingBlock: CIFDUS_clean_linker_0, # of connection points: 2
#     Edge 94, Type (0, 0), BuildingBlock: CIFDUS_clean_linker_0, # of connection points: 2
#     Edge 95, Type (0, 0), BuildingBlock: CIFDUS_clean_linker_0, # of connection points: 2
#     Edge 96, Type (0, 0), BuildingBlock: CIFDUS_clean_linker_0, # of connection points: 2
#     Edge 97, Type (0, 0), BuildingBlock: CIFDUS_clean_linker_0, # of connection points: 2
#     Edge 98, Type (0, 0), BuildingBlock: CIFDUS_clean_linker_0, # of connection points: 2
#     Edge 99, Type (0, 0), BuildingBlock: CIFDUS_clean_linker_0, # of connection points: 2
#     Edge 100, Type (0, 0), BuildingBlock: CIFDUS_clean_linker_0, # of connection points: 2
#     Edge 101, Type (0, 0), BuildingBlock: CIFDUS_clean_linker_0, # of connection points: 2
#     Edge 102, Type (0, 0), BuildingBlock: CIFDUS_clean_linker_0, # of connection points: 2
#     Edge 103, Type (0, 0), BuildingBlock: CIFDUS_clean_linker_0, # of connection points: 2
#     Edge 104, Type (0, 0), BuildingBlock: CIFDUS_clean_linker_0, # of connection points: 2
#     Edge 105, Type (0, 0), BuildingBlock: CIFDUS_clean_linker_0, # of connection points: 2
#     Edge 106, Type (0, 0), BuildingBlock: CIFDUS_clean_linker_0, # of connection points: 2
#     Edge 107, Type (0, 0), BuildingBlock: CIFDUS_clean_linker_0, # of connection points: 2
# Relax obj value: 0.009
# Max RMSD: 0.100
# Mean RMSD: 0.068
data_MOF--net-uns--node1-ESEHIV_clean_sbu_0--edge1-CIFDUS_clean_linker_0
_symmetry_space_group_name_H-M    P1
_symmetry_Int_Tables_number       1
_symmetry_cell_setting            triclinic
loop_
_symmetry_equiv_pos_as_xyz
'x, y, z'
_cell_length_a     58.428226
_cell_length_b     57.257222
_cell_length_c     41.601691
_cell_angle_alpha  94.710283
_cell_angle_beta   90.122203
_cell_angle_gamma 120.52809
loop_
_atom_site_label
_atom_site_type_symbol
_atom_site_fract_x
_atom_site_fract_y
_atom_site_fract_z
_atom_type_partial_charge
Cu0 Cu 0.31035 0.24481 0.0624 0.0
N1 N 0.34529 0.25169 0.06508 0.0
N2 N 0.37876 0.24598 0.0801 0.0
C3 C 0.35238 0.23632 0.08039 0.0
C4 C 0.38869 0.2682 0.06356 0.0
C5 C 0.36796 0.27178 0.05446 0.0
O6 O 0.28751 0.20556 0.05155 0.0
C7 C 0.32277 0.2756 0.12324 0.0
O8 O 0.34064 0.26881 0.12891 0.0
H9 H 0.33836 0.21846 0.09178 0.0
H10 H 0.3694 0.28807 0.04154 0.0
N11 N 0.30408 0.26222 0.03033 0.0
N12 N 0.28413 0.28093 0.00543 0.0
C13 C 0.28451 0.26816 0.03114 0.0
C14 C 0.31662 0.27147 0.0031 0.0
C15 C 0.30439 0.28308 0.98772 0.0
C16 C 0.2951 0.19627 0.02756 0.0
O17 O 0.31595 0.21344 0.01256 0.0
H18 H 0.27104 0.26347 0.0506 0.0
H19 H 0.33335 0.26982 0.99495 0.0
O20 O 0.30402 0.26093 0.10197 0.0
H21 H 0.4095 0.28131 0.05914 0.0
H22 H 0.30979 0.29203 0.96501 0.0
Cu23 Cu 0.84613 0.06734 0.06529 0.0
N24 N 0.82423 0.04896 0.0985 0.0
N25 N 0.78495 1.02481 0.12037 0.0
C26 C 0.79772 0.03368 0.09312 0.0
C27 C 0.80418 0.0348 0.14416 0.0
C28 C 0.82857 0.04956 0.13051 0.0
O29 O 0.83628 0.0391 0.02926 0.0
C30 C 0.84009 0.11098 0.08445 0.0
O31 O 0.84238 0.103 0.11232 0.0
H32 H 0.78786 0.03006 0.06963 0.0
H33 H 0.84786 0.06077 0.14321 0.0
N34 N 0.88289 0.0842 0.07356 0.0
N35 N 0.92514 0.11102 0.06065 0.0
C36 C 0.90004 0.09243 0.04965 0.0
C37 C 0.89766 0.09797 0.10083 0.0
C38 C 0.92376 0.11446 0.09295 0.0
C39 C 0.83687 1.01817 0.0367 0.0
O40 O 0.84478 1.01818 0.0663 0.0
H41 H 0.89367 0.08691 0.02433 0.0
H42 H 0.88974 0.09788 0.12431 0.0
O43 O 0.84048 0.09761 0.0585 0.0
H44 H 0.80084 0.0318 0.16946 0.0
H45 H 0.94011 0.12889 0.1095 0.0
Cu46 Cu 0.98846 0.77245 0.03329 0.0
N47 N 0.97111 0.76244 0.0718 0.0
N48 N 0.93871 0.73748 0.10425 0.0
C49 C 0.94483 0.74525 0.07407 0.0
C50 C 0.96224 0.75053 0.1215 0.0
C51 C 0.9821 0.76546 0.10139 0.0
O52 O 0.96302 0.77236 0.00211 0.0
C53 C 1.01992 0.74955 0.00782 0.0
O54 O 1.03229 0.77105 0.99173 0.0
H55 H 0.9309 0.73712 0.05334 0.0
H56 H 1.00318 0.77594 0.1075 0.0
N57 N 1.01909 0.80742 0.03902 0.0
N58 N 0.05688 0.84419 0.02697 0.0
C59 C 1.03432 0.82138 0.01528 0.0
C60 C 1.03207 0.82259 0.06667 0.0
C61 C 0.05545 0.84513 0.05934 0.0
C62 C 0.95959 0.79276 0.00493 0.0
O63 O 0.9739 0.81281 0.02726 0.0
H64 H 1.02952 0.81423 0.98992 0.0
H65 H 1.02547 0.8176 0.09064 0.0
O66 O 0.99967 0.74569 0.02337 0.0
H67 H 0.9653 0.74858 0.14655 0.0
H68 H 0.07038 0.86076 0.07651 0.0
Cu69 Cu 0.21078 0.24807 0.38915 0.0
N70 N 0.1925 0.24348 0.34988 0.0
N71 N 0.17579 0.25519 0.30971 0.0
C72 C 0.18622 0.26157 0.34042 0.0
C73 C 0.17552 0.23201 0.29953 0.0
C74 C 0.18593 0.22492 0.32427 0.0
O75 O 0.1915 0.25389 0.42396 0.0
C76 C 0.26297 0.29314 0.40895 0.0
O77 O 0.25728 0.28676 0.43867 0.0
H78 H 0.19045 0.2798 0.35544 0.0
H79 H 0.18932 0.208 0.32314 0.0
N80 N 0.21519 0.21855 0.39669 0.0
N81 N 0.23137 0.19534 0.41957 0.0
C82 C 0.23395 0.21995 0.41702 0.0
C83 C 0.20009 0.192 0.38594 0.0
C84 C 0.21012 0.17767 0.39985 0.0
C85 C 0.16679 0.23667 0.42528 0.0
O86 O 0.15555 0.21556 0.40346 0.0
H87 H 0.249 0.23864 0.43021 0.0
H88 H 0.18246 0.18344 0.37008 0.0
O89 O 0.24565 0.27973 0.38596 0.0
H90 H 0.1687 0.2211 0.27576 0.0
H91 H 0.20164 0.15581 0.39688 0.0
Cu92 Cu 0.79702 0.99301 0.48659 0.0
N93 N 0.76973 1.00067 0.49335 0.0
N94 N 0.73867 1.0115 0.48402 0.0
C95 C 0.75934 1.00981 0.47208 0.0
C96 C 0.73619 1.00331 0.514 0.0
C97 C 0.75534 0.99667 0.51967 0.0
O98 O 0.82916 0.02756 0.48066 0.0
C99 C 0.76203 0.94704 0.44539 0.0
O100 O 0.74465 0.94748 0.46501 0.0
H101 H 0.76628 1.01426 0.448 0.0
H102 H 0.75827 0.989 0.54126 0.0
N103 N 0.80299 0.97926 0.52311 0.0
N104 N 0.80953 0.95355 0.55566 0.0
C105 C 0.80247 0.95556 0.52538 0.0
C106 C 0.81076 0.9927 0.55272 0.0
C107 C 0.81476 0.97701 0.57276 0.0
C108 C 0.85219 0.03054 0.48358 0.0
O109 O 0.85414 1.00905 0.48741 0.0
H110 H 0.79718 0.94027 0.50519 0.0
H111 H 0.81384 1.01284 0.55907 0.0
O112 O 0.7865 0.96548 0.44997 0.0
H113 H 0.72159 1.0022 0.53074 0.0
H114 H 0.82177 0.98292 0.59784 0.0
Cu115 Cu 0.08562 0.8289 0.46507 0.0
N116 N 0.11709 0.8278 0.46785 0.0
N117 N 0.15672 0.83575 0.45138 0.0
C118 C 0.13465 0.83675 0.44456 0.0
C119 C 0.1527 0.82557 0.48042 0.0
C120 C 0.12822 0.82073 0.49058 0.0
O121 O 0.09894 0.86797 0.47049 0.0
C122 C 0.06768 0.78651 0.41719 0.0
O123 O 0.08181 0.78095 0.43631 0.0
H124 H 0.13092 0.84371 0.42284 0.0
H125 H 0.11942 0.81307 0.51304 0.0
N126 N 0.06102 0.81214 0.49654 0.0
N127 N 1.02325 0.80046 0.52156 0.0
C128 C 0.04405 0.82014 0.50721 0.0
C129 C 0.05064 0.78649 0.50458 0.0
C130 C 1.02735 0.77924 0.52005 0.0
C131 C 0.11213 0.8788 0.49744 0.0
O132 O 0.11167 0.86266 0.51845 0.0
H133 H 0.04567 0.83913 0.50197 0.0
H134 H 0.05829 0.77325 0.49744 0.0
O135 O 0.06685 0.80822 0.42417 0.0
H136 H 0.1666 0.82233 0.49379 0.0
H137 H 1.0139 0.75954 0.52831 0.0
Cu138 Cu 0.7884 0.82314 0.91631 0.0
N139 N 0.77246 0.82468 0.87784 0.0
N140 N 0.74659 0.83102 0.84398 0.0
C141 C 0.75243 0.82985 0.87509 0.0
C142 C 0.76349 0.82617 0.82658 0.0
C143 C 0.77934 0.82225 0.84746 0.0
O144 O 0.79266 0.85307 0.94713 0.0
C145 C 0.75877 0.76616 0.91167 0.0
O146 O 0.76576 0.7695 0.88165 0.0
H147 H 0.743 0.8336 0.89562 0.0
H148 H 0.79499 0.81819 0.84097 0.0
N149 N 0.82236 0.82795 0.90994 0.0
N150 N 0.86038 0.82816 0.91846 0.0
C151 C 0.83467 0.81745 0.92607 0.0
C152 C 0.8409 0.84573 0.89151 0.0
C153 C 0.86432 0.84599 0.89679 0.0
C154 C 0.80093 0.87661 0.93759 0.0
O155 O 0.80634 0.88017 0.90713 0.0
H156 H 0.82551 0.80362 0.94449 0.0
H157 H 0.83793 0.8586 0.87645 0.0
O158 O 0.76625 0.78722 0.93156 0.0
H159 H 0.7644 0.8255 0.80056 0.0
H160 H 0.88315 0.85908 0.88649 0.0
Cu161 Cu 0.24259 0.97526 0.9262 0.0
N162 N 0.23471 0.9561 0.88518 0.0
N163 N 0.22518 0.92239 0.84666 0.0
C164 C 0.22925 0.93027 0.87866 0.0
C165 C 0.22815 0.94412 0.83256 0.0
C166 C 0.2339 0.96484 0.85639 0.0
O167 O 0.2163 0.95153 0.95501 0.0
C168 C 0.29691 0.99794 0.91893 0.0
O169 O 0.28969 1.00081 0.89029 0.0
H170 H 0.22871 0.91769 0.89704 0.0
H171 H 0.23749 0.98494 0.85301 0.0
N172 N 0.23997 1.00656 0.9266 0.0
N173 N 0.24738 0.04813 0.94298 0.0
C174 C 0.25672 0.03086 0.94301 0.0
C175 C 0.21945 1.00867 0.9156 0.0
C176 C 0.22394 0.0343 0.92576 0.0
C177 C 0.19204 0.93956 0.94466 0.0
O178 O 0.18663 0.94315 0.91545 0.0
H179 H 0.27482 0.03537 0.95593 0.0
H180 H 0.20206 0.9925 0.90196 0.0
O181 O 0.27916 0.98673 0.93935 0.0
H182 H 0.22605 0.9449 0.80687 0.0
H183 H 0.21097 0.04211 0.92102 0.0
Cu184 Cu 0.11205 0.28935 0.94799 0.0
N185 N 0.12463 0.29731 0.9063 0.0
N186 N 0.15007 0.32185 0.86763 0.0
C187 C 0.14173 0.32245 0.89779 0.0
C188 C 0.13701 0.29526 0.85631 0.0
C189 C 0.12138 0.28021 0.88017 0.0
O190 O 0.14083 0.29189 0.9754 0.0
C191 C 0.08203 0.31378 0.94191 0.0
O192 O 0.07647 0.29919 0.91387 0.0
H193 H 0.14854 0.34083 0.91387 0.0
H194 H 0.10929 0.25829 0.87878 0.0
N195 N 0.08373 0.2534 0.94908 0.0
N196 N 0.04881 0.21772 0.96871 0.0
C197 C 0.06351 0.24521 0.96922 0.0
C198 C 0.08191 0.23032 0.93552 0.0
C199 C 0.06032 0.20836 0.94729 0.0
C200 C 0.16562 0.30838 0.97283 0.0
O201 O 0.17317 0.32851 0.9547 0.0
H202 H 0.06038 0.25928 0.98488 0.0
H203 H 0.09625 0.22946 0.91989 0.0
O204 O 0.09832 0.31324 0.96195 0.0
H205 H 0.13962 0.28712 0.8331 0.0
H206 H 0.05465 0.18723 0.94197 0.0
Cu207 Cu 0.8336 0.76352 0.59667 0.0
N208 N 0.83884 0.75054 0.6342 0.0
N209 N 0.84564 0.7235 0.66395 0.0
C210 C 0.84552 0.73122 0.63414 0.0
C211 C 0.83873 0.73869 0.68356 0.0
C212 C 0.83447 0.75527 0.66514 0.0
O213 O 0.86056 0.76447 0.56793 0.0
C214 C 0.77903 0.73853 0.59966 0.0
O215 O 0.78708 0.75651 0.62508 0.0
H216 H 0.84916 0.72226 0.61227 0.0
H217 H 0.82793 0.76919 0.67361 0.0
N218 N 0.83824 0.79861 0.60432 0.0
N219 N 0.83539 0.83565 0.59818 0.0
C220 C 0.82988 0.81085 0.58481 0.0
C221 C 0.84959 0.81636 0.63074 0.0
C222 C 0.84782 0.83911 0.62708 0.0
C223 C 0.88477 0.78229 0.5761 0.0
O224 O 0.88974 0.79999 0.60117 0.0
H225 H 0.81945 0.80148 0.56161 0.0
H226 H 0.85857 0.81303 0.65128 0.0
O227 O 0.79656 0.73805 0.58179 0.0
H228 H 0.83666 0.7378 0.70934 0.0
H229 H 0.8554 0.85698 0.64426 0.0
Cu230 Cu 0.30103 0.09656 0.5635 0.0
N231 N 0.31313 0.12046 0.60156 0.0
N232 N 0.33894 0.15609 0.63724 0.0
C233 C 0.33807 0.14123 0.60977 0.0
C234 C 0.31374 0.14411 0.64679 0.0
C235 C 0.29792 0.12209 0.62488 0.0
O236 O 0.3007 0.11605 0.52688 0.0
C237 C 0.32894 0.07052 0.58129 0.0
O238 O 0.32168 0.07427 0.61021 0.0
H239 H 0.35501 0.14593 0.59533 0.0
H240 H 0.27665 0.10867 0.62543 0.0
N241 N 0.26524 0.06965 0.56563 0.0
N242 N 0.22716 0.02985 0.55569 0.0
C243 C 0.25401 0.0425 0.55869 0.0
C244 C 0.24479 0.0742 0.56711 0.0
C245 C 0.2213 0.04972 0.56105 0.0
C246 C 0.29573 0.13535 0.53154 0.0
O247 O 0.29441 0.14403 0.56128 0.0
H248 H 0.2653 0.03246 0.55398 0.0
H249 H 0.2469 0.09413 0.57069 0.0
O250 O 0.32236 0.079 0.55744 0.0
H251 H 0.30724 0.15087 0.66807 0.0
H252 H 0.20149 0.0468 0.55999 0.0
Cu253 Cu 0.99152 0.23683 0.56528 0.0
N254 N 0.97651 0.2278 0.60518 0.0
N255 N 0.94364 0.2134 0.63949 0.0
C256 C 0.9502 0.21208 0.60859 0.0
C257 C 0.96685 0.23061 0.65628 0.0
C258 C 0.98711 0.23954 0.635 0.0
O259 O 0.96583 0.2077 0.53387 0.0
C260 C 1.01295 0.28889 0.54096 0.0
O261 O 1.02218 0.27911 0.51815 0.0
H262 H 0.9359 0.20162 0.58834 0.0
H263 H 1.00774 0.25488 0.64058 0.0
N264 N 1.02442 0.23861 0.56323 0.0
N265 N 0.05917 0.23771 0.54195 0.0
C266 C 1.0338 0.23165 0.53685 0.0
C267 C 0.04459 0.24958 0.5858 0.0
C268 C 0.06604 0.24903 0.57276 0.0
C269 C 0.96391 0.18456 0.53506 0.0
O270 O 0.98021 0.18271 0.55509 0.0
H271 H 1.0225 0.22321 0.51399 0.0
H272 H 0.04403 0.25806 0.60976 0.0
O273 O 0.9978 0.27325 0.56123 0.0
H274 H 0.96893 0.23716 0.68181 0.0
H275 H 0.08521 0.25649 0.58499 0.0
Cu276 Cu 0.95622 0.58199 0.36108 0.0
N277 N 0.97011 0.57753 0.39926 0.0
N278 N 0.99572 0.56913 0.43093 0.0
C279 C 0.98588 0.56672 0.4006 0.0
C280 C 0.98566 0.58199 0.44937 0.0
C281 C 0.97008 0.58731 0.42978 0.0
O282 O 0.95218 0.55333 0.3289 0.0
C283 C 0.97574 0.6367 0.34489 0.0
O284 O 0.95071 0.63016 0.34358 0.0
H285 H 0.99049 0.55784 0.37947 0.0
H286 H 0.96055 0.59869 0.43713 0.0
N287 N 0.9226 0.57823 0.36516 0.0
N288 N 0.88436 0.5744 0.34812 0.0
C289 C 0.90521 0.5715 0.33997 0.0
C290 C 0.91228 0.58536 0.39037 0.0
C291 C 0.88868 0.58303 0.37992 0.0
C292 C 0.93678 0.529 0.33574 0.0
O293 O 0.92488 0.52521 0.36322 0.0
H294 H 0.90883 0.56644 0.3156 0.0
H295 H 0.92176 0.59304 0.41424 0.0
O296 O 0.98159 0.61857 0.34975 0.0
H297 H 0.99023 0.58832 0.47493 0.0
H298 H 0.87612 0.58805 0.39439 0.0
Cu299 Cu 0.49181 0.39501 0.37064 0.0
N300 N 0.4588 0.39249 0.36767 0.0
N301 N 0.41657 0.37956 0.37705 0.0
C302 C 0.43674 0.37498 0.382 0.0
C303 C 0.42637 0.40082 0.35893 0.0
C304 C 0.4525 0.40889 0.35342 0.0
O305 O 0.48455 0.35781 0.37398 0.0
C306 C 0.51993 0.44702 0.40481 0.0
O307 O 0.51968 0.45449 0.37586 0.0
H308 H 0.43559 0.35925 0.39586 0.0
H309 H 0.46613 0.42588 0.3405 0.0
N310 N 0.5093 0.40745 0.33265 0.0
N311 N 0.54109 0.42705 0.29772 0.0
C312 C 0.53566 0.42055 0.32835 0.0
C313 C 0.49776 0.40538 0.30369 0.0
C314 C 0.51733 0.41764 0.28215 0.0
C315 C 0.49946 0.34889 0.36339 0.0
O316 O 0.52295 0.36614 0.3534 0.0
H317 H 0.55055 0.42562 0.34741 0.0
H318 H 0.47655 0.39564 0.2986 0.0
O319 O 0.51051 0.42175 0.40796 0.0
H320 H 0.41565 0.4103 0.35097 0.0
H321 H 0.51434 0.41923 0.25691 0.0
Cu322 Cu 0.66932 0.12937 0.38829 0.0
N323 N 0.65061 0.12454 0.42625 0.0
N324 N 0.61668 0.10533 0.459 0.0
C325 C 0.624 0.10933 0.4282 0.0
C326 C 0.63971 0.11904 0.47722 0.0
C327 C 0.66055 0.13081 0.45697 0.0
O328 O 0.64608 0.12635 0.35251 0.0
C329 C 0.67054 0.08143 0.39807 0.0
O330 O 0.64673 0.07292 0.40885 0.0
H331 H 0.61038 0.09976 0.40733 0.0
H332 H 0.68153 0.14193 0.46404 0.0
N333 N 0.69931 0.16447 0.3898 0.0
N334 N 0.73715 0.20012 0.37552 0.0
C335 C 0.71991 0.17298 0.37021 0.0
C336 C 0.70371 0.18693 0.40823 0.0
C337 C 0.72698 0.20892 0.39948 0.0
C338 C 0.62425 0.1053 0.34197 0.0
O339 O 0.61743 0.08169 0.35243 0.0
H340 H 0.7216 0.15969 0.35153 0.0
H341 H 0.69054 0.18738 0.42618 0.0
O342 O 0.68228 0.10386 0.38525 0.0
H343 H 0.64153 0.11982 0.50322 0.0
H344 H 0.73559 0.22982 0.40976 0.0
Cu345 Cu 0.89156 0.58262 0.80208 0.0
N346 N 0.87604 0.58655 0.76465 0.0
N347 N 0.86192 0.60737 0.73345 0.0
C348 C 0.86737 0.60431 0.76383 0.0
C349 C 0.86715 0.5907 0.7142 0.0
C350 C 0.87581 0.57788 0.73345 0.0
O351 O 0.8694 0.58245 0.83735 0.0
C352 C 0.94174 0.61148 0.78053 0.0
O353 O 0.92985 0.59066 0.75846 0.0
H354 H 0.86686 0.61628 0.78494 0.0
H355 H 0.88304 0.56461 0.72491 0.0
N356 N 0.8915 0.54961 0.80133 0.0
N357 N 0.89729 0.5171 0.81979 0.0
C358 C 0.89818 0.54103 0.82708 0.0
C359 C 0.88605 0.53031 0.77686 0.0
C360 C 0.88971 0.51034 0.78813 0.0
C361 C 0.86772 0.6025 0.85005 0.0
O362 O 0.88497 0.62724 0.84301 0.0
H363 H 0.90391 0.55238 0.85069 0.0
H364 H 0.87976 0.53051 0.75255 0.0
O365 O 0.92876 0.61239 0.80478 0.0
H366 H 0.86575 0.58865 0.68806 0.0
H367 H 0.8865 0.49199 0.77425 0.0
Cu368 Cu 0.4536 0.32576 0.8049 0.0
N369 N 0.43246 0.33992 0.81975 0.0
N370 N 0.41123 0.36331 0.82292 0.0
C371 C 0.42291 0.35284 0.80333 0.0
C372 C 0.41311 0.35623 0.85256 0.0
C373 C 0.42619 0.34188 0.85053 0.0
O374 O 0.49071 0.35571 0.80924 0.0
C375 C 0.44202 0.28782 0.74962 0.0
O376 O 0.4587 0.28248 0.76387 0.0
H377 H 0.42588 0.35589 0.77799 0.0
H378 H 0.43168 0.33431 0.87034 0.0
N379 N 0.44942 0.29907 0.8314 0.0
N380 N 0.45664 0.27057 0.85764 0.0
C381 C 0.46753 0.29258 0.84051 0.0
C382 C 0.42641 0.28068 0.84321 0.0
C383 C 0.43077 0.26318 0.85943 0.0
C384 C 0.49757 0.37949 0.80177 0.0
O385 O 0.48021 0.38298 0.786 0.0
H386 H 0.48799 0.30317 0.83367 0.0
H387 H 0.40762 0.2798 0.83972 0.0
O388 O 0.43949 0.30752 0.76174 0.0
H389 H 0.40621 0.36173 0.87442 0.0
H390 H 0.41596 0.24626 0.87153 0.0
Cu391 Cu 0.75172 0.1468 0.78269 0.0
N392 N 0.77025 0.15789 0.74504 0.0
N393 N 0.80452 0.17283 0.71268 0.0
C394 C 0.79675 0.17409 0.74303 0.0
C395 C 0.78194 0.15548 0.69483 0.0
C396 C 0.76093 0.14622 0.71484 0.0
O397 O 0.77415 0.17182 0.81948 0.0
C398 C 0.72273 0.09209 0.79983 0.0
O399 O 0.71288 0.10177 0.82191 0.0
H400 H 0.81033 0.18497 0.76374 0.0
H401 H 0.74059 0.13053 0.70825 0.0
N402 N 0.72037 0.14821 0.78099 0.0
N403 N 0.68356 0.14719 0.79805 0.0
C404 C 0.70736 0.15034 0.80672 0.0
C405 C 0.70438 0.14382 0.75506 0.0
C406 C 0.68168 0.14318 0.76549 0.0
C407 C 0.79671 0.17567 0.82872 0.0
O408 O 0.80492 0.15977 0.81541 0.0
H409 H 0.71465 0.15273 0.83142 0.0
H410 H 0.70846 0.14043 0.73035 0.0
O411 O 0.74125 0.10857 0.78309 0.0
H412 H 0.78079 0.14892 0.66943 0.0
H413 H 0.66496 0.13964 0.75029 0.0
Cu414 Cu 0.46788 0.15705 0.25722 0.0
N415 N 0.45498 0.16119 0.21792 0.0
N416 N 0.43774 0.17547 0.18147 0.0
C417 C 0.44144 0.17406 0.2132 0.0
C418 C 0.44929 0.16295 0.16565 0.0
C419 C 0.45986 0.15419 0.18813 0.0
O420 O 0.4774 0.18953 0.28683 0.0
C421 C 0.43055 0.10039 0.2535 0.0
O422 O 0.43411 0.10262 0.2225 0.0
H423 H 0.43524 0.18304 0.23258 0.0
H424 H 0.4708 0.14383 0.18311 0.0
N425 N 0.49993 0.1579 0.24992 0.0
N426 N 0.53599 0.15415 0.25598 0.0
C427 C 0.51123 0.14632 0.26578 0.0
C428 C 0.51809 0.17342 0.22948 0.0
C429 C 0.54024 0.17111 0.23307 0.0
C430 C 0.46205 0.19701 0.29968 0.0
O431 O 0.43616 0.18054 0.29618 0.0
H432 H 0.50207 0.13359 0.28519 0.0
H433 H 0.51573 0.1863 0.21382 0.0
O434 O 0.44274 0.12185 0.27324 0.0
H435 H 0.45004 0.16031 0.13969 0.0
H436 H 0.55835 0.18162 0.22031 0.0
Cu437 Cu 0.89475 0.31258 0.22887 0.0
N438 N 0.88402 0.29181 0.18852 0.0
N439 N 0.86755 0.2553 0.15182 0.0
C440 C 0.86773 0.26462 0.18292 0.0
C441 C 0.88439 0.27774 0.13738 0.0
C442 C 0.89463 0.30003 0.16003 0.0
O443 O 0.86897 0.2924 0.26059 0.0
C444 C 0.95139 0.34275 0.24522 0.0
O445 O 0.9492 0.3645 0.24883 0.0
H446 H 0.85759 0.25178 0.20185 0.0
H447 H 0.90999 0.32055 0.15635 0.0
N448 N 0.89576 0.34571 0.22664 0.0
N449 N 0.90039 0.38628 0.24251 0.0
C450 C 0.89787 0.36308 0.25197 0.0
C451 C 0.89646 0.35815 0.20025 0.0
C452 C 0.89941 0.38318 0.20995 0.0
C453 C 0.8656 0.27048 0.27062 0.0
O454 O 0.88116 0.26127 0.26074 0.0
H455 H 0.89872 0.35924 0.27687 0.0
H456 H 0.89527 0.34989 0.17563 0.0
O457 O 0.93052 0.31934 0.23902 0.0
H458 H 0.88991 0.27809 0.11255 0.0
H459 H 0.90077 0.39795 0.19423 0.0
Cu460 Cu 0.74072 0.59073 0.20677 0.0
N461 N 0.75862 0.60029 0.16868 0.0
N462 N 0.79081 0.62437 0.13584 0.0
C463 C 0.78415 0.61996 0.16672 0.0
C464 C 0.76854 0.60664 0.11764 0.0
C465 C 0.74869 0.59178 0.13802 0.0
O466 O 0.76563 0.59575 0.24164 0.0
C467 C 0.73375 0.63688 0.20909 0.0
O468 O 0.75851 0.65064 0.2007 0.0
H469 H 0.79716 0.63169 0.18768 0.0
H470 H 0.72828 0.57645 0.13106 0.0
N471 N 0.71325 0.5544 0.20293 0.0
N472 N 0.6739 0.51844 0.2117 0.0
C473 C 0.68849 0.5458 0.21267 0.0
C474 C 0.71424 0.53163 0.19517 0.0
C475 C 0.68996 0.50935 0.20082 0.0
C476 C 0.77954 0.58455 0.23655 0.0
O477 O 0.77716 0.57157 0.20808 0.0
H478 H 0.68177 0.55938 0.22206 0.0
H479 H 0.73159 0.53119 0.18712 0.0
O480 O 0.72375 0.61213 0.21472 0.0
H481 H 0.76663 0.60475 0.09154 0.0
H482 H 0.68469 0.48821 0.19786 0.0
Cu483 Cu 0.50977 0.10747 0.92491 0.0
N484 N 0.51965 0.09802 0.96235 0.0
N485 N 0.53096 0.0753 0.99402 0.0
C486 C 0.52433 0.07737 0.96366 0.0
C487 C 0.53038 0.09553 0.01248 0.0
C488 C 0.52343 0.10951 0.99288 0.0
O489 O 0.53371 0.10877 0.89159 0.0
C490 C 0.45556 0.07473 0.9345 0.0
O491 O 0.46383 0.08556 0.96434 0.0
H492 H 0.52252 0.06393 0.9427 0.0
H493 H 0.52123 0.12677 1.00036 0.0
N494 N 0.51247 0.14156 0.93093 0.0
N495 N 0.50393 0.17473 0.92342 0.0
C496 C 0.49617 0.14818 0.9165 0.0
C497 C 0.53125 0.16469 0.94766 0.0
C498 C 0.52604 0.18521 0.94304 0.0
C499 C 0.55863 0.12346 0.89851 0.0
O500 O 0.5667 0.13682 0.92733 0.0
H501 H 0.47938 0.13391 0.90041 0.0
H502 H 0.54777 0.16662 0.9618 0.0
O503 O 0.47262 0.08088 0.91287 0.0
H504 H 0.53496 0.10018 0.03824 0.0
H505 H 0.53762 0.20616 0.95338 0.0
Cu506 Cu 0.94818 0.39154 0.9452 0.0
N507 N 0.95925 0.41512 0.98356 0.0
N508 N 0.97871 0.45447 0.01547 0.0
C509 C 0.9744 0.44245 0.98494 0.0
C510 C 0.96592 0.43375 0.03415 0.0
C511 C 0.95384 0.40952 0.01439 0.0
O512 O 0.94347 0.41121 0.91176 0.0
C513 C 0.9868 0.37651 0.95653 0.0
O514 O 0.98151 0.37909 0.98683 0.0
H515 H 0.98217 0.45326 0.96377 0.0
H516 H 0.94187 0.38927 0.02196 0.0
N517 N 0.91531 0.35963 0.94874 0.0
N518 N 0.87934 0.3183 0.93611 0.0
C519 C 0.90464 0.33619 0.92907 0.0
C520 C 0.89618 0.35639 0.96894 0.0
C521 C 0.87404 0.331 0.96124 0.0
C522 C 0.92946 0.42218 0.91814 0.0
O523 O 0.91847 0.41911 0.94618 0.0
H524 H 0.91477 0.33287 0.90903 0.0
H525 H 0.89786 0.3718 0.98724 0.0
O526 O 0.97483 0.38133 0.9346 0.0
H527 H 0.9649 0.43593 0.06011 0.0
H528 H 0.85529 0.32273 0.97289 0.0
Cu529 Cu 0.65827 0.55007 0.93126 0.0
N530 N 0.64284 0.54716 0.97142 0.0
N531 N 0.614 0.54193 0.00971 0.0
C532 C 0.6185 0.5432 0.97775 0.0
C533 C 0.63644 0.54515 0.02374 0.0
C534 C 0.65407 0.54838 1.00021 0.0
O535 O 0.6317 0.52082 0.9008 0.0
C536 C 0.68312 0.60739 0.93791 0.0
O537 O 0.68641 0.60414 0.96812 0.0
H538 H 0.60457 0.54159 0.95929 0.0
H539 H 0.67376 0.55143 0.00386 0.0
N540 N 0.68732 0.54475 0.93469 0.0
N541 N 0.72608 0.54649 0.92661 0.0
C542 C 0.71098 0.55759 0.92073 0.0
C543 C 0.68757 0.52505 0.94991 0.0
C544 C 0.71136 0.52609 0.94506 0.0
C545 C 0.61447 0.52287 0.88447 0.0
O546 O 0.61498 0.54616 0.887 0.0
H547 H 0.71651 0.57393 0.90551 0.0
H548 H 0.67126 0.5105 0.96303 0.0
O549 O 0.67095 0.58638 0.9176 0.0
H550 H 0.63988 0.54481 0.04921 0.0
H551 H 0.71721 0.51259 0.9541 0.0
Cu552 Cu 0.6026 0.8843 0.72967 0.0
N553 N 0.60882 0.87089 0.76623 0.0
N554 N 0.62967 0.85756 0.79909 0.0
C555 C 0.62751 0.86388 0.76901 0.0
C556 C 0.61139 0.86067 0.81577 0.0
C557 C 0.59868 0.86898 0.79551 0.0
O558 O 0.60658 0.86273 0.69309 0.0
C559 C 0.64861 0.93779 0.71934 0.0
O560 O 0.65408 0.92654 0.69402 0.0
H561 H 0.63955 0.8639 0.74929 0.0
H562 H 0.58376 0.87415 0.80198 0.0
N563 N 0.56852 0.88036 0.72855 0.0
N564 N 0.53449 0.88642 0.71651 0.0
C565 C 0.56084 0.89583 0.71418 0.0
C566 C 0.54636 0.86073 0.74063 0.0
C567 C 0.5254 0.86433 0.73316 0.0
C568 C 0.58674 0.8441 0.67543 0.0
O569 O 0.56352 0.84234 0.67783 0.0
H570 H 0.57414 0.91309 0.7014 0.0
H571 H 0.54541 0.84457 0.75339 0.0
O572 O 0.62832 0.92329 0.7351 0.0
H573 H 0.60804 0.85817 0.84114 0.0
H574 H 0.50499 0.85157 0.73942 0.0
Cu575 Cu 0.16072 0.74031 0.71176 0.0
N576 N 0.12563 0.73314 0.70822 0.0
N577 N 0.08187 0.71451 0.71397 0.0
C578 C 0.10439 0.71551 0.72395 0.0
C579 C 0.08922 0.73221 0.69128 0.0
C580 C 0.11621 0.74382 0.68799 0.0
O581 O 0.16096 0.70625 0.7132 0.0
C582 C 0.16875 0.76909 0.77462 0.0
O583 O 0.1457 0.74847 0.78126 0.0
H584 H 0.10519 0.70273 0.74118 0.0
H585 H 0.12805 0.75854 0.67142 0.0
N586 N 0.17957 0.75695 0.67594 0.0
N587 N 0.2136 0.78482 0.64712 0.0
C588 C 0.20502 0.77767 0.67691 0.0
C589 C 0.17167 0.75062 0.64448 0.0
C590 C 0.19256 0.76777 0.62666 0.0
C591 C 0.14343 0.68479 0.69623 0.0
O592 O 0.12491 0.68581 0.67953 0.0
H593 H 0.21715 0.78684 0.69911 0.0
H594 H 0.15216 0.73456 0.63516 0.0
O595 O 0.17898 0.76771 0.74808 0.0
H596 H 0.07587 0.73602 0.67756 0.0
H597 H 0.19213 0.76768 0.60065 0.0
Cu598 Cu 0.32881 0.47695 0.73766 0.0
N599 N 0.31059 0.47162 0.776 0.0
N600 N 0.27986 0.45012 0.81185 0.0
C601 C 0.28807 0.44858 0.78178 0.0
C602 C 0.29805 0.47525 0.8254 0.0
C603 C 0.31696 0.48838 0.80332 0.0
O604 O 0.30411 0.47291 0.70269 0.0
C605 C 0.35565 0.45364 0.75944 0.0
O606 O 0.36224 0.47427 0.78126 0.0
H607 H 0.27839 0.43079 0.76443 0.0
H608 H 0.33431 0.50857 0.80717 0.0
N609 N 0.3592 0.51195 0.73846 0.0
N610 N 0.39957 0.54584 0.72745 0.0
C611 C 0.38234 0.51861 0.72449 0.0
C612 C 0.3619 0.53576 0.75066 0.0
C613 C 0.3867 0.55662 0.74399 0.0
C614 C 0.29188 0.48593 0.70821 0.0
O615 O 0.29686 0.50069 0.73601 0.0
H616 H 0.38603 0.50381 0.7114 0.0
H617 H 0.34669 0.53792 0.76291 0.0
O618 O 0.3406 0.45048 0.73519 0.0
H619 H 0.29784 0.48367 0.84957 0.0
H620 H 0.3945 0.57811 0.7506 0.0
Cu621 Cu 0.57696 0.93786 0.14712 0.0
N622 N 0.56841 0.9477 0.10896 0.0
N623 N 0.55799 0.97085 0.0769 0.0
C624 C 0.56475 0.96898 0.10726 0.0
C625 C 0.55752 0.94991 0.05877 0.0
C626 C 0.56387 0.93562 0.07863 0.0
O627 O 0.55216 0.93691 0.17931 0.0
C628 C 0.62951 0.96174 0.13599 0.0
O629 O 0.61777 0.94587 0.1093 0.0
H630 H 0.56702 0.98279 0.12804 0.0
H631 H 0.56485 0.91755 0.07155 0.0
N632 N 0.57344 0.90336 0.14213 0.0
N633 N 0.58371 0.87135 0.14915 0.0
C634 C 0.59082 0.89771 0.15559 0.0
C635 C 0.55438 0.87964 0.12675 0.0
C636 C 0.56064 0.85977 0.13113 0.0
C637 C 0.52784 0.9255 0.16923 0.0
O638 O 0.5214 0.91541 0.1389 0.0
H639 H 0.60817 0.91263 0.17046 0.0
H640 H 0.53713 0.87695 0.11348 0.0
O641 O 0.61486 0.96307 0.15794 0.0
H642 H 0.55234 0.94485 0.03314 0.0
H643 H 0.54926 0.83859 0.1216 0.0
Cu644 Cu 0.13195 0.65014 0.10019 0.0
N645 N 0.12938 0.66841 0.06593 0.0
N646 N 0.11392 0.68896 0.0363 0.0
C647 C 0.11238 0.67773 0.06416 0.0
C648 C 0.13272 0.68661 0.01996 0.0
C649 C 0.14211 0.67384 0.03818 0.0
O650 O 0.15053 0.67741 0.1375 0.0
C651 C 0.08417 0.60589 0.07905 0.0
O652 O 0.09626 0.61404 0.05214 0.0
H653 H 0.09919 0.67632 0.0831 0.0
H654 H 0.15689 0.66859 0.03139 0.0
N655 N 0.15004 0.6312 0.09119 0.0
N656 N 0.1576 0.59658 0.09296 0.0
C657 C 0.14251 0.6072 0.10291 0.0
C658 C 0.17091 0.6362 0.0732 0.0
C659 C 0.17552 0.61477 0.07411 0.0
C660 C 0.17115 0.69994 0.13198 0.0
O661 O 0.17858 0.70352 0.10214 0.0
H662 H 0.12581 0.59745 0.11812 0.0
H663 H 0.18205 0.65409 0.06045 0.0
O664 O 0.09577 0.62012 0.10566 0.0
H665 H 0.13892 0.69315 0.99622 0.0
H666 H 0.19108 0.61297 0.06222 0.0
Cu667 Cu 0.42829 0.49323 0.15313 0.0
N668 N 0.4446 0.50096 0.11339 0.0
N669 N 0.47357 0.50876 0.07459 0.0
C670 C 0.46828 0.50379 0.10576 0.0
C671 C 0.4523 0.50892 0.06213 0.0
C672 C 0.43455 0.50415 0.08606 0.0
O673 O 0.45198 0.52027 0.18722 0.0
C674 C 0.39875 0.4371 0.14093 0.0
O675 O 0.39011 0.44424 0.11653 0.0
H676 H 0.48112 0.50162 0.12244 0.0
H677 H 0.41554 0.50295 0.08368 0.0
N678 N 0.39807 0.49672 0.15264 0.0
N679 N 0.35654 0.48788 0.15968 0.0
C680 C 0.3734 0.47832 0.16065 0.0
C681 C 0.39686 0.51887 0.14685 0.0
C682 C 0.37123 0.51346 0.15112 0.0
C683 C 0.47526 0.52609 0.19624 0.0
O684 O 0.48514 0.51152 0.1836 0.0
H685 H 0.36795 0.4584 0.16758 0.0
H686 H 0.41351 0.53768 0.14014 0.0
O687 O 0.41683 0.45571 0.16053 0.0
H688 H 0.44986 0.51253 0.03757 0.0
H689 H 0.36384 0.52703 0.14752 0.0
Cu690 Cu 0.11797 0.50071 0.5826 0.0
N691 N 0.11173 0.51303 0.54515 0.0
N692 N 0.09033 0.52654 0.51348 0.0
C693 C 0.09736 0.52538 0.54407 0.0
C694 C 0.10111 0.51463 0.4946 0.0
C695 C 0.11408 0.50615 0.51417 0.0
O696 O 0.11453 0.52304 0.61832 0.0
C697 C 0.08278 0.44706 0.60292 0.0
O698 O 0.0905 0.45815 0.63277 0.0
H699 H 0.091 0.53199 0.56556 0.0
H700 H 0.12281 0.49404 0.50639 0.0
N701 N 0.15148 0.50369 0.58502 0.0
N702 N 0.18594 0.50153 0.60506 0.0
C703 C 0.16266 0.50031 0.61128 0.0
C704 C 0.16824 0.50713 0.56129 0.0
C705 C 0.1895 0.50579 0.57357 0.0
C706 C 0.13434 0.54655 0.62764 0.0
O707 O 0.15763 0.55377 0.61591 0.0
H708 H 0.15353 0.49644 0.63435 0.0
H709 H 0.16515 0.51012 0.5367 0.0
O710 O 0.09151 0.46202 0.57976 0.0
H711 H 0.0983 0.51052 0.4686 0.0
H712 H 0.20638 0.50807 0.56042 0.0
Cu713 Cu 0.56563 0.63747 0.59311 0.0
N714 N 0.54979 0.6066 0.56224 0.0
N715 N 0.54088 0.57087 0.52684 0.0
C716 C 0.55957 0.59635 0.5392 0.0
C717 C 0.5185 0.56528 0.54182 0.0
C718 C 0.52396 0.58726 0.56321 0.0
O719 O 0.54471 0.62583 0.63136 0.0
C720 C 0.61991 0.64568 0.59496 0.0
O721 O 0.61064 0.62108 0.5806 0.0
H722 H 0.57997 0.60679 0.53225 0.0
H723 H 0.51018 0.58867 0.57943 0.0
N724 N 0.56114 0.66553 0.58 0.0
N725 N 0.56084 0.70466 0.58245 0.0
C726 C 0.56861 0.68952 0.59738 0.0
C727 C 0.54838 0.66553 0.55308 0.0
C728 C 0.5481 0.68956 0.55454 0.0
C729 C 0.53804 0.60337 0.64279 0.0
O730 O 0.549 0.58933 0.63181 0.0
H731 H 0.57856 0.69523 0.62112 0.0
H732 H 0.53935 0.64893 0.5341 0.0
O733 O 0.60399 0.65406 0.60265 0.0
H734 H 0.49957 0.54645 0.5378 0.0
H735 H 0.53891 0.69531 0.53661 0.0
Cu736 Cu 0.42575 0.95331 0.59335 0.0
N737 N 0.44792 0.96734 0.55859 0.0
N738 N 0.48291 0.99427 0.53045 0.0
C739 C 0.47339 0.98814 0.56009 0.0
C740 C 0.46264 0.97665 0.50947 0.0
C741 C 0.44117 0.96012 0.52684 0.0
O742 O 0.44509 0.94581 0.62593 0.0
C743 C 0.40119 0.98296 0.58423 0.0
O744 O 0.39837 0.97061 0.55522 0.0
H745 H 0.48452 0.99918 0.58237 0.0
H746 H 0.42176 0.94431 0.51692 0.0
N747 N 0.39566 0.91936 0.57997 0.0
N748 N 0.35475 0.88238 0.57838 0.0
C749 C 0.37122 0.9081 0.59199 0.0
C750 C 0.39471 0.90007 0.55833 0.0
C751 C 0.36958 0.87739 0.55715 0.0
C752 C 0.46674 0.96276 0.64188 0.0
O753 O 0.47658 0.98896 0.6404 0.0
H754 H 0.36577 0.91851 0.61056 0.0
H755 H 0.4114 0.90208 0.545 0.0
O756 O 0.41309 0.97843 0.60661 0.0
H757 H 0.46327 0.97571 0.48342 0.0
H758 H 0.36307 0.85834 0.54258 0.0
Cu759 Cu 0.14925 0.40806 0.17917 0.0
N760 N 0.14389 0.37258 0.17332 0.0
N761 N 0.14526 0.33603 0.18628 0.0
C762 C 0.15061 0.36145 0.19621 0.0
C763 C 0.13467 0.33094 0.15584 0.0
C764 C 0.13376 0.35344 0.14795 0.0
O765 O 0.18658 0.43132 0.1939 0.0
C766 C 0.09883 0.38668 0.20093 0.0
O767 O 0.09504 0.36969 0.17553 0.0
H768 H 0.15978 0.37215 0.21955 0.0
H769 H 0.12598 0.35548 0.12545 0.0
N770 N 0.14558 0.42244 0.14178 0.0
N771 N 0.14737 0.4544 0.11222 0.0
C772 C 0.14714 0.4468 0.14222 0.0
C773 C 0.14481 0.41424 0.11034 0.0
C774 C 0.1458 0.43381 0.09209 0.0
C775 C 0.20196 0.42778 0.17495 0.0
O776 O 0.19138 0.4104 0.14909 0.0
H777 H 0.14946 0.45932 0.16433 0.0
H778 H 0.14475 0.396 0.10124 0.0
O779 O 0.12234 0.40662 0.20827 0.0
H780 H 0.12774 0.31216 0.14048 0.0
H781 H 0.14588 0.43308 0.06602 0.0
Cu782 Cu 0.6431 0.74782 0.26212 0.0
N783 N 0.66361 0.77159 0.29762 0.0
N784 N 0.68693 0.8085 0.33245 0.0
C785 C 0.66746 0.79619 0.30875 0.0
C786 C 0.69538 0.79092 0.3365 0.0
C787 C 0.68097 0.76823 0.31504 0.0
O788 O 0.62743 0.76356 0.23648 0.0
C789 C 0.66104 0.72269 0.21379 0.0
O790 O 0.63723 0.71134 0.19951 0.0
H791 H 0.65704 0.80534 0.29886 0.0
H792 H 0.68348 0.75075 0.31159 0.0
N793 N 0.61541 0.71576 0.27643 0.0
N794 N 0.5843 0.67173 0.2772 0.0
C795 C 0.60729 0.68992 0.2648 0.0
C796 C 0.59721 0.71386 0.29745 0.0
C797 C 0.57798 0.68676 0.29795 0.0
C798 C 0.64046 0.7865 0.22508 0.0
O799 O 0.66647 0.80069 0.22973 0.0
H800 H 0.61719 0.68456 0.24634 0.0
H801 H 0.59731 0.73109 0.31039 0.0
O802 O 0.66711 0.73952 0.23865 0.0
H803 H 0.71099 0.79433 0.35365 0.0
H804 H 0.56029 0.67889 0.31171 0.0
Cu805 Cu 0.32211 0.8838 0.27095 0.0
N806 N 0.31111 0.87884 0.31352 0.0
N807 N 0.28581 0.86811 0.35639 0.0
C808 C 0.28672 0.871 0.32438 0.0
C809 C 0.31057 0.87462 0.36603 0.0
C810 C 0.32611 0.88136 0.33966 0.0
O811 O 0.29379 0.85564 0.24047 0.0
C812 C 0.34819 0.94155 0.2804 0.0
O813 O 0.35621 0.93769 0.30794 0.0
H814 H 0.26984 0.86681 0.30899 0.0
H815 H 0.34696 0.88762 0.33957 0.0
N816 N 0.35257 0.88093 0.26681 0.0
N817 N 0.39222 0.88867 0.25088 0.0
C818 C 0.37281 0.8947 0.24761 0.0
C819 C 0.3593 0.86546 0.28251 0.0
C820 C 0.38381 0.87032 0.27288 0.0
C821 C 0.27894 0.8309 0.24664 0.0
O822 O 0.2822 0.82381 0.27477 0.0
H823 H 0.37334 0.90898 0.23168 0.0
H824 H 0.34716 0.85151 0.29964 0.0
O825 O 0.33243 0.92078 0.2611 0.0
H826 H 0.31702 0.87473 0.39048 0.0
H827 H 0.39429 0.86055 0.28076 0.0
H828 H 0.36763 0.22214 0.13562 0.0
H829 H 0.42237 0.24569 0.05904 0.0
H830 H 0.44585 0.2259 0.08392 0.0
H831 H 0.45021 0.20111 0.12706 0.0
H832 H 0.39594 0.1785 0.20419 0.0
H833 H 0.37286 0.19873 0.1796 0.0
C834 C 0.3846 0.22278 0.1243 0.0
C835 C 0.39311 0.23514 0.09535 0.0
C836 C 0.39806 0.21156 0.13889 0.0
C837 C 0.41552 0.23639 0.08135 0.0
C838 C 0.42885 0.22497 0.09551 0.0
C839 C 0.43324 0.20049 0.13836 0.0
C840 C 0.42468 0.18813 0.16732 0.0
C841 C 0.4202 0.21236 0.12418 0.0
C842 C 0.40301 0.18801 0.18204 0.0
C843 C 0.38973 0.19946 0.1679 0.0
H844 H 0.81624 0.12904 0.12592 0.0
H845 H 0.8673 0.15225 0.04569 0.0
H846 H 0.87877 0.19977 0.05792 0.0
H847 H 0.87925 0.23511 0.09653 0.0
H848 H 0.8274 0.21095 0.17648 0.0
H849 H 0.81146 0.16339 0.15932 0.0
C850 C 0.82932 0.14442 0.11057 0.0
C851 C 0.84101 0.13727 0.08504 0.0
C852 C 0.83619 0.17159 0.11822 0.0
C853 C 0.85786 0.15725 0.06526 0.0
C854 C 0.86467 0.18446 0.07257 0.0
C855 C 0.86411 0.21961 0.10999 0.0
C856 C 0.85529 0.22706 0.13855 0.0
C857 C 0.85475 0.19201 0.0998 0.0
C858 C 0.8354 0.20622 0.15517 0.0
C859 C 0.82604 0.17886 0.1452 0.0
H860 H 0.83895 0.64498 0.16579 0.0
H861 H 0.79933 0.65044 0.08165 0.0
H862 H 0.84181 0.68657 0.06456 0.0
H863 H 0.89005 0.71716 0.0742 0.0
H864 H 0.92936 0.71035 0.15806 0.0
H865 H 0.88706 0.67497 0.17498 0.0
C866 C 0.83956 0.65419 0.14383 0.0
C867 C 0.81596 0.64503 0.12511 0.0
C868 C 0.864 0.67499 0.13423 0.0
C869 C 0.81721 0.65687 0.09636 0.0
C870 C 0.84149 0.67768 0.0867 0.0
C871 C 0.88955 0.70789 0.09604 0.0
C872 C 0.91325 0.7168 0.11466 0.0
C873 C 0.86503 0.68696 0.1055 0.0
C874 C 0.91174 0.70453 0.14322 0.0
C875 C 0.88745 0.68398 0.15292 0.0
H876 H 0.17267 0.25456 0.24443 0.0
H877 H 0.16195 0.29171 0.33324 0.0
H878 H 0.15164 0.32007 0.30282 0.0
H879 H 0.14598 0.33481 0.25105 0.0
H880 H 0.1559 0.2973 0.16216 0.0
H881 H 0.16555 0.26824 0.1925 0.0
C882 C 0.16779 0.26858 0.25722 0.0
C883 C 0.16838 0.27098 0.29129 0.0
C884 C 0.16163 0.28481 0.2395 0.0
C885 C 0.1622 0.28963 0.30718 0.0
C886 C 0.15613 0.30582 0.28976 0.0
C887 C 0.15041 0.32041 0.23829 0.0
C888 C 0.15031 0.3184 0.2043 0.0
C889 C 0.15598 0.30375 0.25593 0.0
C890 C 0.1556 0.29918 0.18823 0.0
C891 C 0.16127 0.28263 0.20561 0.0
H892 H 0.73796 0.84429 0.35115 0.0
H893 H 0.65893 0.83219 0.35232 0.0
H894 H 0.67569 0.87534 0.3861 0.0
H895 H 0.71228 0.91469 0.41835 0.0
H896 H 0.79164 0.92747 0.41615 0.0
H897 H 0.77538 0.88589 0.37949 0.0
C898 C 0.72448 0.85121 0.35879 0.0
C899 C 0.6972 0.83499 0.3497 0.0
C900 C 0.73432 0.87604 0.378 0.0
C901 C 0.67998 0.84438 0.35905 0.0
C902 C 0.68954 0.86894 0.37845 0.0
C903 C 0.72606 0.90849 0.40963 0.0
C904 C 0.75308 0.92396 0.42019 0.0
C905 C 0.71658 0.88468 0.38853 0.0
C906 C 0.77077 0.91592 0.40835 0.0
C907 C 0.76145 0.89208 0.38754 0.0
H908 H 0.19535 0.82276 0.45528 0.0
H909 H 0.17035 0.86861 0.40249 0.0
H910 H 0.20719 0.88135 0.36759 0.0
H911 H 0.24712 0.88018 0.35181 0.0
H912 H 0.27399 0.83693 0.40607 0.0
H913 H 0.23626 0.82293 0.44072 0.0
C914 C 0.19799 0.83571 0.43639 0.0
C915 C 0.17953 0.84422 0.43157 0.0
C916 C 0.21975 0.84358 0.4165 0.0
C917 C 0.18355 0.861 0.40663 0.0
C918 C 0.20487 0.86857 0.38661 0.0
C919 C 0.24455 0.86752 0.37107 0.0
C920 C 0.26324 0.85953 0.37629 0.0
C921 C 0.22303 0.85991 0.39119 0.0
C922 C 0.25995 0.8435 0.40171 0.0
C923 C 0.23833 0.83543 0.42147 0.0
H924 H 0.67611 0.86731 0.77348 0.0
H925 H 0.62608 0.83181 0.85268 0.0
H926 H 0.65811 0.82096 0.87406 0.0
H927 H 0.7004 0.82113 0.87016 0.0
H928 H 0.7496 0.85581 0.79017 0.0
H929 H 0.71761 0.86678 0.76902 0.0
C930 C 0.6719 0.85692 0.7952 0.0
C931 C 0.64848 0.85053 0.81131 0.0
C932 C 0.69033 0.85044 0.80728 0.0
C933 C 0.64394 0.83741 0.83982 0.0
C934 C 0.66226 0.83103 0.85205 0.0
C935 C 0.70419 0.83123 0.84822 0.0
C936 C 0.72745 0.83752 0.8318 0.0
C937 C 0.68558 0.8375 0.83604 0.0
C938 C 0.73179 0.85034 0.80314 0.0
C939 C 0.71353 0.85678 0.79107 0.0
H940 H 0.1962 0.87314 0.86923 0.0
H941 H 0.24048 0.91304 0.78818 0.0
H942 H 0.22896 0.86904 0.75996 0.0
H943 H 0.20447 0.8192 0.75708 0.0
H944 H 0.15799 0.77875 0.8367 0.0
H945 H 0.17261 0.82292 0.86699 0.0
C946 C 0.20356 0.87218 0.84557 0.0
C947 C 0.2191 0.89635 0.83077 0.0
C948 C 0.19651 0.84669 0.82927 0.0
C949 C 0.22821 0.89475 0.79989 0.0
C950 C 0.22174 0.86959 0.78383 0.0
C951 C 0.19783 0.81998 0.78127 0.0
C952 C 0.1802 0.79563 0.79463 0.0
C953 C 0.20566 0.84542 0.79811 0.0
C954 C 0.17157 0.79714 0.82585 0.0
C955 C 0.17985 0.82241 0.84313 0.0
H956 H 0.19261 0.36674 0.89739 0.0
H957 H 0.15542 0.32727 0.80357 0.0
H958 H 0.1923 0.36391 0.77772 0.0
H959 H 0.23544 0.40689 0.78185 0.0
H960 H 0.27292 0.44538 0.87603 0.0
H961 H 0.23534 0.40978 0.90153 0.0
C962 C 0.19232 0.36632 0.8713 0.0
C963 C 0.17114 0.34426 0.85248 0.0
C964 C 0.21369 0.38735 0.85661 0.0
C965 C 0.17151 0.34386 0.81864 0.0
C966 C 0.19258 0.36486 0.80385 0.0
C967 C 0.23556 0.40747 0.80793 0.0
C968 C 0.25721 0.42903 0.82683 0.0
C969 C 0.21391 0.38661 0.82259 0.0
C970 C 0.25656 0.42943 0.8607 0.0
C971 C 0.23507 0.40891 0.8754 0.0
H972 H 0.82845 0.69409 0.71562 0.0
H973 H 0.87463 0.7053 0.63135 0.0
H974 H 0.88251 0.6692 0.64446 0.0
H975 H 0.87724 0.63497 0.68052 0.0
H976 H 0.83234 0.62468 0.76563 0.0
H977 H 0.82332 0.66003 0.75177 0.0
C978 C 0.84045 0.68888 0.70024 0.0
C979 C 0.85081 0.70251 0.67241 0.0
C980 C 0.84516 0.66817 0.70809 0.0
C981 C 0.86602 0.69502 0.65263 0.0
C982 C 0.87068 0.6744 0.6602 0.0
C983 C 0.86519 0.64022 0.69578 0.0
C984 C 0.8554 0.62712 0.72403 0.0
C985 C 0.86033 0.6608 0.68784 0.0
C986 C 0.84024 0.63456 0.74388 0.0
C987 C 0.83505 0.65475 0.73594 0.0
H988 H 0.44347 0.24605 0.71457 0.0
H989 H 0.39596 0.28394 0.72783 0.0
H990 H 0.36014 0.24683 0.69314 0.0
H991 H 0.34067 0.2016 0.66266 0.0
H992 H 0.38825 0.16428 0.64734 0.0
H993 H 0.42569 0.20311 0.67899 0.0
C994 C 0.42544 0.24641 0.70949 0.0
C995 C 0.42241 0.26772 0.72414 0.0
C996 C 0.4048 0.22492 0.68938 0.0
C997 C 0.39895 0.26789 0.717 0.0
C998 C 0.37831 0.24654 0.69728 0.0
C999 C 0.35933 0.20213 0.66616 0.0
C1000 C 0.36168 0.18004 0.65313 0.0
C1001 C 0.38076 0.22464 0.684 0.0
C1002 C 0.38606 0.1811 0.6572 0.0
C1003 C 0.40738 0.20323 0.67538 0.0
H1004 H 0.92681 0.23448 0.68805 0.0
H1005 H 0.90028 0.16633 0.61567 0.0
H1006 H 0.8545 0.14797 0.63149 0.0
H1007 H 0.82199 0.15134 0.6656 0.0
H1008 H 0.84811 0.21939 0.73801 0.0
H1009 H 0.89411 0.23757 0.72277 0.0
C1010 C 0.91107 0.21543 0.67605 0.0
C1011 C 0.917 0.20181 0.65067 0.0
C1012 C 0.8847 0.20504 0.68518 0.0
C1013 C 0.89624 0.17735 0.63504 0.0
C1014 C 0.87006 0.16681 0.64411 0.0
C1015 C 0.83765 0.17034 0.67779 0.0
C1016 C 0.83152 0.18406 0.7028 0.0
C1017 C 0.86402 0.18061 0.66895 0.0
C1018 C 0.85226 0.20834 0.71881 0.0
C1019 C 0.87857 0.21877 0.71006 0.0
H1020 H 1.00299 0.55775 0.4906 0.0
H1021 H 1.03144 0.56356 0.39428 0.0
H1022 H 0.06352 0.55124 0.41144 0.0
H1023 H 0.08396 0.53925 0.45394 0.0
H1024 H 0.05482 0.53289 0.55009 0.0
H1025 H 1.0234 0.54582 0.53302 0.0
C1026 C 1.01632 0.55655 0.47338 0.0
C1027 C 1.01459 0.56156 0.44112 0.0
C1028 C 1.03492 0.54958 0.48345 0.0
C1029 C 1.03189 0.55946 0.41912 0.0
C1030 C 0.05046 0.55259 0.42899 0.0
C1031 C 0.07068 0.54048 0.47119 0.0
C1032 C 0.07211 0.53505 0.50338 0.0
C1033 C 0.05215 0.54758 0.4611 0.0
C1034 C 0.05478 0.53725 0.52532 0.0
C1035 C 1.0365 0.54447 0.5155 0.0
H1036 H 0.54936 0.50236 0.40675 0.0
H1037 H 0.50476 0.43727 0.46683 0.0
H1038 H 0.50877 0.47038 0.51086 0.0
H1039 H 0.52121 0.51742 0.53042 0.0
H1040 H 0.56677 0.5827 0.47133 0.0
H1041 H 0.56639 0.55006 0.42883 0.0
C1042 C 0.54087 0.49544 0.42966 0.0
C1043 C 0.52655 0.46727 0.43332 0.0
C1044 C 0.54324 0.51464 0.45492 0.0
C1045 C 0.51591 0.45873 0.4633 0.0
C1046 C 0.51804 0.47768 0.48844 0.0
C1047 C 0.53124 0.52446 0.50831 0.0
C1048 C 0.5437 0.55236 0.50374 0.0
C1049 C 0.53103 0.50558 0.48421 0.0
C1050 C 0.55707 0.56136 0.47531 0.0
C1051 C 0.55671 0.54266 0.45101 0.0
H1052 H 0.60343 0.07962 0.51389 0.0
H1053 H 0.56973 0.08962 0.42729 0.0
H1054 H 0.52527 0.056 0.44178 0.0
H1055 H 0.49582 1.02281 0.47831 0.0
H1056 H 0.52915 1.0134 0.56544 0.0
H1057 H 0.57371 0.04807 0.55182 0.0
C1058 C 0.58641 0.07483 0.49837 0.0
C1059 C 0.5902 0.08713 0.46929 0.0
C1060 C 0.56071 0.05548 0.50694 0.0
C1061 C 0.56766 0.08025 0.44947 0.0
C1062 C 0.54212 0.06105 0.45781 0.0
C1063 C 0.51284 0.02825 0.49424 0.0
C1064 C 0.50911 1.01535 0.52276 0.0
C1065 C 0.53842 0.04827 0.48627 0.0
C1066 C 0.53139 1.02309 0.54346 0.0
C1067 C 0.55691 0.04285 0.53559 0.0
H1068 H 0.52585 0.0578 0.05348 0.0
H1069 H 0.55044 0.04822 0.95797 0.0
H1070 H 0.56062 1.01461 0.97507 0.0
H1071 H 0.56311 0.98823 0.01737 0.0
H1072 H 0.53863 0.99802 0.11286 0.0
H1073 H 0.52845 0.03159 0.09573 0.0
C1074 C 0.53367 0.0486 0.03644 0.0
C1075 C 0.53727 0.05562 0.00441 0.0
C1076 C 0.53966 0.02934 0.04649 0.0
C1077 C 0.54706 0.04303 0.98262 0.0
C1078 C 0.55306 1.02387 0.99244 0.0
C1079 C 0.55536 0.99753 0.03438 0.0
C1080 C 0.55179 0.99058 0.06643 0.0
C1081 C 0.5494 1.01682 0.02431 0.0
C1082 C 0.54202 1.0032 0.08821 0.0
C1083 C 0.53601 1.02232 0.07836 0.0
H1084 H 1.00487 0.47958 0.07346 0.0
H1085 H 0.98576 0.49491 0.9801 0.0
H1086 H 1.01407 0.5437 0.99396 0.0
H1087 H 0.0475 0.58172 0.03003 0.0
H1088 H 0.06809 0.56779 0.12317 0.0
H1089 H 1.03526 0.51893 0.11256 0.0
C1090 C 1.00658 0.49361 0.05637 0.0
C1091 C 0.99358 0.4834 0.02542 0.0
C1092 C 1.02305 0.52194 0.06455 0.0
C1093 C 0.99607 0.502 0.00365 0.0
C1094 C 1.0121 0.53 0.01166 0.0
C1095 C 0.04439 0.56808 0.04835 0.0
C1096 C 0.0602 0.57831 0.0773 0.0
C1097 C 1.02616 0.54013 0.04166 0.0
C1098 C 0.05593 0.56046 0.10085 0.0
C1099 C 1.03742 0.53247 0.09455 0.0
H1100 H 0.56374 0.51963 0.98338 0.0
H1101 H 0.61087 0.55559 0.07297 0.0
H1102 H 0.57149 0.54774 0.10101 0.0
H1103 H 0.52353 0.531 0.1005 0.0
H1104 H 0.47638 0.49624 0.01101 0.0
H1105 H 0.51581 0.50374 0.98265 0.0
C1106 C 0.56553 0.52601 0.00895 0.0
C1107 C 0.59048 0.538 0.02587 0.0
C1108 C 0.54268 0.52171 0.02509 0.0
C1109 C 0.59207 0.54584 0.0592 0.0
C1110 C 0.56948 0.54151 0.07535 0.0
C1111 C 0.52184 0.52486 0.07486 0.0
C1112 C 0.49695 0.51301 0.058 0.0
C1113 C 0.54466 0.52936 0.05862 0.0
C1114 C 0.49527 0.50563 0.02459 0.0
C1115 C 0.51784 0.50981 0.00835 0.0
H1116 H 0.22327 0.07183 0.9754 0.0
H1117 H 0.29946 0.08573 0.94568 0.0
H1118 H 0.321 0.13272 0.97038 0.0
H1119 H 0.318 0.17012 0.99869 0.0
H1120 H 0.24259 0.15658 0.03133 0.0
H1121 H 0.22079 0.10902 0.00757 0.0
C1122 C 0.24456 0.08526 0.97437 0.0
C1123 C 0.2598 0.0755 0.9585 0.0
C1124 C 0.25686 0.11215 0.9892 0.0
C1125 C 0.28742 0.09283 0.95781 0.0
C1126 C 0.29969 0.11967 0.97184 0.0
C1127 C 0.29678 0.15674 1.00073 0.0
C1128 C 0.28184 0.16688 0.01643 0.0
C1129 C 0.28459 0.12957 0.98737 0.0
C1130 C 0.25449 0.14921 0.01938 0.0
C1131 C 0.24204 0.1221 0.00564 0.0
H1132 H 1.01011 0.16481 0.95672 0.0
H1133 H 0.03904 0.23438 0.02757 0.0
H1134 H 1.00373 0.20727 0.06276 0.0
H1135 H 0.96435 0.16369 0.07363 0.0
H1136 H 0.9356 0.09413 0.00297 0.0
H1137 H 0.97122 0.12117 0.96785 0.0
C1138 C 1.00887 0.17405 0.97994 0.0
C1139 C 1.02738 0.20175 0.98925 0.0
C1140 C 0.98852 0.15824 1.00028 0.0
C1141 C 1.02501 0.21333 0.01934 0.0
C1142 C 1.00488 0.19773 0.03971 0.0
C1143 C 0.96609 0.15434 0.05077 0.0
C1144 C 0.9473 0.12682 0.04105 0.0
C1145 C 0.98653 0.17014 0.03049 0.0
C1146 C 0.94964 0.11526 0.01097 0.0
C1147 C 0.97004 0.13073 0.99088 0.0
H1148 H 0.95978 0.838 0.9906 0.0
H1149 H 0.913 0.75041 0.97527 0.0
H1150 H 0.87741 0.75338 0.94777 0.0
H1151 H 0.85901 0.78143 0.92947 0.0
H1152 H 0.9078 0.8689 0.9428 0.0
H1153 H 0.94303 0.86553 0.96984 0.0
C1154 C 0.94186 0.81951 0.98108 0.0
C1155 C 0.93904 0.79401 0.98513 0.0
C1156 C 0.92172 0.82142 0.96512 0.0
C1157 C 0.91578 0.7703 0.97233 0.0
C1158 C 0.89535 0.77201 0.95679 0.0
C1159 C 0.87738 0.79963 0.9384 0.0
C1160 C 0.8808 0.82542 0.93432 0.0
C1161 C 0.89795 0.7975 0.95334 0.0
C1162 C 0.9048 0.8489 0.94557 0.0
C1163 C 0.92492 0.84697 0.96105 0.0
H1164 H 0.11269 0.26804 0.53928 0.0
H1165 H 0.04261 0.19827 0.49235 0.0
H1166 H 0.06982 0.19173 0.45234 0.0
H1167 H 0.11334 0.20591 0.43036 0.0
H1168 H 0.1837 0.27593 0.4766 0.0
H1169 H 0.15661 0.28212 0.51734 0.0
C1170 C 0.10342 0.25126 0.5205 0.0
C1171 C 0.07558 0.2337 0.51885 0.0
C1172 C 0.11924 0.24767 0.49741 0.0
C1173 C 0.06388 0.21229 0.49399 0.0
C1174 C 0.07947 0.20845 0.47117 0.0
C1175 C 0.12283 0.22251 0.44938 0.0
C1176 C 0.15057 0.24041 0.45037 0.0
C1177 C 0.10713 0.22607 0.47257 0.0
C1178 C 0.16241 0.26185 0.47518 0.0
C1179 C 0.14692 0.2654 0.49852 0.0
H1180 H 0.82442 0.87098 0.6312 0.0
H1181 H 0.83252 0.84297 0.53493 0.0
H1182 H 0.82429 0.87651 0.51268 0.0
H1183 H 0.81671 0.91539 0.52099 0.0
H1184 H 0.80751 0.94192 0.6178 0.0
H1185 H 0.81461 0.9078 0.63925 0.0
C1186 C 0.82451 0.87228 0.60535 0.0
C1187 C 0.82933 0.85459 0.58484 0.0
C1188 C 0.81973 0.89157 0.59277 0.0
C1189 C 0.82876 0.8562 0.5513 0.0
C1190 C 0.82418 0.8755 0.53858 0.0
C1191 C 0.81595 0.91356 0.54672 0.0
C1192 C 0.81196 0.93176 0.56765 0.0
C1193 C 0.81984 0.89349 0.55911 0.0
C1194 C 0.81117 0.92887 0.60101 0.0
C1195 C 0.81507 0.90915 0.61339 0.0
H1196 H 0.18261 1.00773 0.5167 0.0
H1197 H 0.23032 0.98785 0.5749 0.0
H1198 H 0.19856 0.93926 0.5619 0.0
H1199 H 0.15718 0.9027 0.53493 0.0
H1200 H 0.11002 0.9214 0.47394 0.0
H1201 H 0.14164 0.97037 0.487 0.0
C1202 C 0.18591 0.99269 0.52657 0.0
C1203 C 0.20866 1.0013 0.54698 0.0
C1204 C 0.16772 0.96474 0.51851 0.0
C1205 C 0.21304 0.98167 0.55911 0.0
C1206 C 0.19485 0.95394 0.55177 0.0
C1207 C 0.15368 0.91745 0.52455 0.0
C1208 C 0.13106 0.90847 0.50387 0.0
C1209 C 0.1721 0.94528 0.53167 0.0
C1210 C 0.1272 0.92784 0.49004 0.0
C1211 C 0.14526 0.95578 0.49756 0.0
H1212 H 0.80974 0.926 0.92276 0.0
H1213 H 0.80219 0.88034 0.00367 0.0
H1214 H 0.81205 0.91992 0.04103 0.0
H1215 H 0.82428 0.96777 0.05076 0.0
H1216 H 0.83086 1.01352 0.97038 0.0
H1217 H 0.81976 0.97351 0.9327 0.0
C1218 C 0.81018 0.92465 0.94858 0.0
C1219 C 0.80541 0.90018 0.96035 0.0
C1220 C 0.81573 0.94751 0.96998 0.0
C1221 C 0.80579 0.89881 0.99389 0.0
C1222 C 0.81149 0.92149 0.01528 0.0
C1223 C 0.82328 0.96907 0.02499 0.0
C1224 C 0.82867 0.99378 0.01341 0.0
C1225 C 0.81674 0.94599 0.00359 0.0
C1226 C 0.82686 0.99485 0.97995 0.0
C1227 C 0.82058 0.97197 0.95842 0.0
H1228 H 0.13943 0.91295 0.92795 0.0
H1229 H 0.19466 0.92799 0.007 0.0
H1230 H 0.15739 0.90035 0.04005 0.0
H1231 H 0.10903 0.8714 0.046 0.0
H1232 H 0.05444 0.85678 0.96648 0.0
H1233 H 0.09168 0.88484 0.934 0.0
C1234 C 0.14344 0.91024 0.95241 0.0
C1235 C 0.16986 0.92253 0.96495 0.0
C1236 C 0.12201 0.89442 0.97118 0.0
C1237 C 0.17454 0.91873 0.99671 0.0
C1238 C 0.15323 0.90297 0.01563 0.0
C1239 C 0.10529 0.87466 0.02173 0.0
C1240 C 0.07895 0.86201 0.00868 0.0
C1241 C 0.12687 0.89073 0.0031 0.0
C1242 C 0.07449 0.86605 0.97696 0.0
C1243 C 0.09577 0.88215 0.95842 0.0
H1244 H 0.21796 0.33207 0.95947 0.0
H1245 H 0.15826 0.27024 0.01389 0.0
H1246 H 0.19 0.25682 0.0296 0.0
H1247 H 0.2339 0.26086 0.02525 0.0
H1248 H 0.29311 0.32212 0.96983 0.0
H1249 H 0.26222 0.33721 0.95681 0.0
C1250 C 0.21191 0.31588 0.97512 0.0
C1251 C 0.18567 0.30225 0.9855 0.0
C1252 C 0.23011 0.30787 0.98352 0.0
C1253 C 0.17827 0.28115 0.00555 0.0
C1254 C 0.19641 0.27337 0.01445 0.0
C1255 C 0.24022 0.27773 0.01065 0.0
C1256 C 0.2659 0.29021 0.99846 0.0
C1257 C 0.22227 0.28632 0.00317 0.0
C1258 C 0.27344 0.31181 0.97917 0.0
C1259 C 0.2558 0.3206 0.97187 0.0
H1260 H 0.9363 0.82307 0.5791 0.0
H1261 H 0.88438 0.74016 0.5387 0.0
H1262 H 0.92286 0.73818 0.51865 0.0
H1263 H 0.97175 0.75975 0.51433 0.0
H1264 H 1.02292 0.84313 0.55327 0.0
H1265 H 0.98434 0.8452 0.57231 0.0
C1266 C 0.93333 0.80459 0.5657 0.0
C1267 C 0.90744 0.78176 0.56052 0.0
C1268 C 0.95551 0.80364 0.55425 0.0
C1269 C 0.90401 0.75808 0.54288 0.0
C1270 C 0.92606 0.75689 0.53162 0.0
C1271 C 0.97439 0.77827 0.52716 0.0
C1272 C 1.00021 0.80121 0.53273 0.0
C1273 C 0.95196 0.77944 0.53752 0.0
C1274 C 1.00329 0.82527 0.54874 0.0
C1275 C 0.98123 0.82643 0.55962 0.0
H1276 H 0.24172 0.15409 0.41185 0.0
H1277 H 0.25442 0.22239 0.47766 0.0
H1278 H 0.27768 0.21121 0.51651 0.0
H1279 H 0.292 0.18063 0.53358 0.0
H1280 H 0.2795 0.11182 0.46903 0.0
H1281 H 0.25896 0.12474 0.42792 0.0
C1282 C 0.24962 0.16651 0.43468 0.0
C1283 C 0.24621 0.18907 0.44171 0.0
C1284 C 0.26308 0.1599 0.45719 0.0
C1285 C 0.25693 0.20515 0.47129 0.0
C1286 C 0.27015 0.19867 0.4937 0.0
C1287 C 0.28507 0.16857 0.51038 0.0
C1288 C 0.28719 0.14518 0.50454 0.0
C1289 C 0.27306 0.17594 0.48709 0.0
C1290 C 0.27826 0.12998 0.4742 0.0
C1291 C 0.2663 0.13726 0.45075 0.0
H1292 H 0.85543 0.08014 0.48329 0.0
H1293 H 0.9036 0.04337 0.49279 0.0
H1294 H 0.94277 0.08812 0.50637 0.0
H1295 H 0.96264 0.13708 0.52067 0.0
H1296 H 0.91535 0.17471 0.5119 0.0
H1297 H 0.87674 0.1304 0.49244 0.0
C1298 C 0.87457 0.08194 0.48789 0.0
C1299 C 0.87638 0.05823 0.48736 0.0
C1300 C 0.8972 0.10792 0.49597 0.0
C1301 C 0.90143 0.06109 0.49323 0.0
C1302 C 0.92393 0.08674 0.50107 0.0
C1303 C 0.94398 0.13569 0.51409 0.0
C1304 C 0.94183 0.15914 0.518 0.0
C1305 C 0.92191 0.11019 0.50331 0.0
C1306 C 0.91758 0.15701 0.50903 0.0
C1307 C 0.89545 0.13162 0.49814 0.0
H1308 H 0.90882 0.47589 0.34735 0.0
H1309 H 0.95489 0.52833 0.27499 0.0
H1310 H 0.9473 0.48855 0.23938 0.0
H1311 H 0.92786 0.43881 0.22915 0.0
H1312 H 0.88228 0.3869 0.30207 0.0
H1313 H 0.88957 0.42662 0.33724 0.0
C1314 C 0.9172 0.47871 0.32377 0.0
C1315 C 0.93237 0.50511 0.31386 0.0
C1316 C 0.91289 0.45582 0.30356 0.0
C1317 C 0.94315 0.50827 0.28326 0.0
C1318 C 0.9388 0.48552 0.26287 0.0
C1319 C 0.91931 0.43618 0.2526 0.0
C1320 C 0.90449 0.40986 0.26292 0.0
C1321 C 0.92369 0.45918 0.27278 0.0
C1322 C 0.89397 0.40689 0.29366 0.0
C1323 C 0.89804 0.4296 0.31372 0.0
H1324 H 0.55664 0.46468 0.25553 0.0
H1325 H 0.58323 0.42134 0.31008 0.0
H1326 H 0.62687 0.44494 0.28658 0.0
H1327 H 0.65761 0.47849 0.25083 0.0
H1328 H 0.63193 0.5241 0.19946 0.0
H1329 H 0.58764 0.49898 0.22102 0.0
C1330 C 0.572 0.46035 0.26205 0.0
C1331 C 0.56682 0.44126 0.28431 0.0
C1332 C 0.59708 0.47435 0.24892 0.0
C1333 C 0.58693 0.4361 0.29312 0.0
C1334 C 0.61177 0.44948 0.27959 0.0
C1335 C 0.64214 0.48261 0.24419 0.0
C1336 C 0.64771 0.50279 0.22338 0.0
C1337 C 0.61708 0.46866 0.25747 0.0
C1338 C 0.62786 0.50855 0.2154 0.0
C1339 C 0.60265 0.49423 0.22772 0.0
H1340 H 0.63316 0.14999 0.31328 0.0
H1341 H 0.57124 0.06839 0.32824 0.0
H1342 H 0.5382 0.07618 0.30287 0.0
H1343 H 0.52652 0.1072 0.27862 0.0
H1344 H 0.58901 0.18846 0.26368 0.0
H1345 H 0.62203 0.1798 0.28682 0.0
C1346 C 0.61249 0.13377 0.31073 0.0
C1347 C 0.60477 0.10867 0.3228 0.0
C1348 C 0.59357 0.13843 0.29631 0.0
C1349 C 0.57785 0.08789 0.31909 0.0
C1350 C 0.55887 0.09239 0.30476 0.0
C1351 C 0.54736 0.12295 0.28052 0.0
C1352 C 0.55524 0.14845 0.26944 0.0
C1353 C 0.56642 0.11775 0.29373 0.0
C1354 C 0.5824 0.16858 0.27168 0.0
C1355 C 0.60132 0.16368 0.28504 0.0
H1356 H 0.76616 0.5961 0.9134 0.0
H1357 H 0.74324 0.51148 0.91069 0.0
H1358 H 0.78565 0.52167 0.8889 0.0
H1359 H 0.8287 0.5541 0.8688 0.0
H1360 H 0.85238 0.63896 0.87123 0.0
H1361 H 0.81058 0.62926 0.89508 0.0
C1362 C 0.77047 0.57994 0.90793 0.0
C1363 C 0.75145 0.55305 0.91374 0.0
C1364 C 0.79516 0.58598 0.89545 0.0
C1365 C 0.75753 0.53238 0.90687 0.0
C1366 C 0.7818 0.53817 0.89425 0.0
C1367 C 0.8249 0.57058 0.8748 0.0
C1368 C 0.84378 0.59723 0.86809 0.0
C1369 C 0.80073 0.56485 0.88832 0.0
C1370 C 0.83836 0.61825 0.87616 0.0
C1371 C 0.81433 0.61269 0.88967 0.0
H1372 H 0.43335 0.21755 0.86829 0.0
H1373 H 0.50892 0.29277 0.87515 0.0
H1374 H 0.53044 0.26975 0.89652 0.0
H1375 H 0.52773 0.22805 0.91325 0.0
H1376 H 0.45182 0.15317 0.90667 0.0
H1377 H 0.4305 0.1763 0.88544 0.0
C1378 C 0.45447 0.22905 0.87477 0.0
C1379 C 0.46941 0.25696 0.87019 0.0
C1380 C 0.46669 0.21569 0.8871 0.0
C1381 C 0.49693 0.27127 0.87811 0.0
C1382 C 0.50923 0.25813 0.89052 0.0
C1383 C 0.50649 0.21686 0.90747 0.0
C1384 C 0.49145 0.18884 0.91155 0.0
C1385 C 0.4943 0.23033 0.89515 0.0
C1386 C 0.46398 0.17461 0.90342 0.0
C1387 C 0.45172 0.18787 0.8914 0.0
H1388 H 0.89062 0.28174 0.90638 0.0
H1389 H 0.82626 0.29619 0.92645 0.0
H1390 H 0.7948 0.2528 0.89641 0.0
H1391 H 0.78558 0.21127 0.86285 0.0
H1392 H 0.84964 0.19611 0.84331 0.0
H1393 H 0.88096 0.2389 0.8747 0.0
C1394 C 0.86972 0.27537 0.90408 0.0
C1395 C 0.86089 0.29229 0.91866 0.0
C1396 C 0.85158 0.25014 0.88689 0.0
C1397 C 0.83363 0.28353 0.91581 0.0
C1398 C 0.8156 0.25872 0.89848 0.0
C1399 C 0.80634 0.21718 0.86565 0.0
C1400 C 0.81513 0.20038 0.85057 0.0
C1401 C 0.82434 0.24189 0.88378 0.0
C1402 C 0.84217 0.20847 0.85465 0.0
C1403 C 0.86019 0.23307 0.87251 0.0
H1404 H 0.43582 0.22083 0.32899 0.0
H1405 H 0.51423 0.23777 0.30441 0.0
H1406 H 0.53283 0.28557 0.32385 0.0
H1407 H 0.52664 0.32339 0.34431 0.0
H1408 H 0.4485 0.30687 0.36932 0.0
H1409 H 0.43024 0.25833 0.35364 0.0
C1410 C 0.45702 0.23489 0.32818 0.0
C1411 C 0.47348 0.22552 0.31493 0.0
C1412 C 0.46772 0.26261 0.33941 0.0
C1413 C 0.50096 0.2442 0.31431 0.0
C1414 C 0.51168 0.27167 0.32539 0.0
C1415 C 0.50565 0.30918 0.3467 0.0
C1416 C 0.48901 0.31898 0.35784 0.0
C1417 C 0.49521 0.28122 0.33746 0.0
C1418 C 0.46187 0.30007 0.36087 0.0
C1419 C 0.45135 0.27223 0.35174 0.0
H1420 H 0.77043 0.18529 0.34827 0.0
H1421 H 0.75639 0.25231 0.36279 0.0
H1422 H 0.79517 0.28025 0.33232 0.0
H1423 H 0.83269 0.2855 0.30043 0.0
H1424 H 0.84734 0.21876 0.28673 0.0
H1425 H 0.80891 0.19105 0.3178 0.0
C1426 C 0.77581 0.20597 0.34464 0.0
C1427 C 0.76042 0.21661 0.35782 0.0
C1428 C 0.79834 0.22206 0.32719 0.0
C1429 C 0.76796 0.24364 0.35326 0.0
C1430 C 0.7901 0.25962 0.33567 0.0
C1431 C 0.82755 0.26493 0.30432 0.0
C1432 C 0.84296 0.2543 0.29109 0.0
C1433 C 0.80542 0.24905 0.32242 0.0
C1434 C 0.83598 0.22759 0.2966 0.0
C1435 C 0.8139 0.21164 0.31433 0.0
H1436 H 0.85769 0.60177 0.35375 0.0
H1437 H 0.86466 0.54114 0.29289 0.0
H1438 H 0.83278 0.53906 0.25323 0.0
H1439 H 0.80407 0.55523 0.23497 0.0
H1440 H 0.79586 0.61524 0.29542 0.0
H1441 H 0.82691 0.61659 0.3363 0.0
C1442 C 0.85195 0.58782 0.33206 0.0
C1443 C 0.86379 0.57178 0.32624 0.0
C1444 C 0.8335 0.58672 0.30921 0.0
C1445 C 0.85625 0.55403 0.29776 0.0
C1446 C 0.83793 0.55275 0.2751 0.0
C1447 C 0.80902 0.56866 0.25707 0.0
C1448 C 0.79779 0.58528 0.26199 0.0
C1449 C 0.82671 0.56923 0.28038 0.0
C1450 C 0.80427 0.60229 0.29096 0.0
C1451 C 0.82202 0.60306 0.31434 0.0
H1452 H 0.61238 0.15262 0.90773 0.0
H1453 H 0.54984 0.09879 0.83656 0.0
H1454 H 0.58312 0.10194 0.79871 0.0
H1455 H 0.63008 0.11928 0.78638 0.0
H1456 H 0.69215 0.17307 0.85802 0.0
H1457 H 0.65889 0.17046 0.89519 0.0
C1458 C 0.60592 0.14157 0.88392 0.0
C1459 C 0.57857 0.12545 0.87507 0.0
C1460 C 0.62512 0.1434 0.86238 0.0
C1461 C 0.57072 0.11133 0.84407 0.0
C1462 C 0.58976 0.11313 0.8224 0.0
C1463 C 0.63636 0.13069 0.80996 0.0
C1464 C 0.66368 0.14632 0.81935 0.0
C1465 C 0.61704 0.12906 0.83134 0.0
C1466 C 0.67134 0.16062 0.85027 0.0
C1467 C 0.65231 0.15923 0.87151 0.0
H1468 H 0.91057 0.45633 0.93094 0.0
H1469 H 0.94015 0.42553 0.8537 0.0
H1470 H 0.93267 0.45216 0.81618 0.0
H1471 H 0.91723 0.48405 0.80534 0.0
H1472 H 0.88873 0.51513 0.88353 0.0
H1473 H 0.89645 0.4887 0.92063 0.0
C1474 C 0.91538 0.45534 0.90588 0.0
C1475 C 0.92575 0.43874 0.89515 0.0
C1476 C 0.91125 0.47086 0.88459 0.0
C1477 C 0.93213 0.43808 0.86265 0.0
C1478 C 0.92781 0.45328 0.84117 0.0
C1479 C 0.9126 0.48491 0.83046 0.0
C1480 C 0.90236 0.5016 0.84157 0.0
C1481 C 0.91726 0.46968 0.85184 0.0
C1482 C 0.89687 0.50277 0.87435 0.0
C1483 C 0.90115 0.48751 0.89558 0.0
H1484 H 0.60317 0.46994 0.87996 0.0
H1485 H 0.57729 0.52167 0.84347 0.0
H1486 H 0.54037 0.4823 0.81275 0.0
H1487 H 0.51382 0.43298 0.7986 0.0
H1488 H 0.53837 0.38062 0.8362 0.0
H1489 H 0.57747 0.4204 0.86368 0.0
C1490 C 0.58959 0.47266 0.86509 0.0
C1491 C 0.59305 0.49886 0.86425 0.0
C1492 C 0.56808 0.44976 0.84763 0.0
C1493 C 0.57515 0.50185 0.84481 0.0
C1494 C 0.55397 0.47929 0.82716 0.0
C1495 C 0.52785 0.43019 0.81245 0.0
C1496 C 0.52302 0.4037 0.81528 0.0
C1497 C 0.55002 0.45312 0.82872 0.0
C1498 C 0.54149 0.40068 0.83353 0.0
C1499 C 0.56385 0.42345 0.84938 0.0
H1500 H 0.60112 0.74585 0.62069 0.0
H1501 H 0.5257 0.7211 0.57253 0.0
H1502 H 0.52817 0.76307 0.595 0.0
H1503 H 0.55039 0.80567 0.63058 0.0
H1504 H 0.62609 0.83134 0.67871 0.0
H1505 H 0.62505 0.79052 0.6538 0.0
C1506 C 0.58527 0.7497 0.61514 0.0
C1507 C 0.56319 0.7302 0.59498 0.0
C1508 C 0.5869 0.77414 0.62808 0.0
C1509 C 0.543 0.73574 0.58767 0.0
C1510 C 0.54435 0.75974 0.60066 0.0
C1511 C 0.56686 0.80256 0.63537 0.0
C1512 C 0.58825 0.82162 0.65665 0.0
C1513 C 0.56605 0.77896 0.62112 0.0
C1514 C 0.60943 0.81718 0.66235 0.0
C1515 C 0.60874 0.79368 0.64828 0.0
H1516 H 0.23683 0.78792 0.59004 0.0
H1517 H 0.25013 0.82918 0.68578 0.0
H1518 H 0.2949 0.86345 0.67283 0.0
H1519 H 0.33091 0.88131 0.63466 0.0
H1520 H 0.31691 0.84044 0.53861 0.0
H1521 H 0.27191 0.80674 0.55132 0.0
C1522 C 0.2493 0.80453 0.60802 0.0
C1523 C 0.23989 0.80566 0.63896 0.0
C1524 C 0.2751 0.82435 0.60038 0.0
C1525 C 0.25677 0.82734 0.66195 0.0
C1526 C 0.28242 0.84713 0.6545 0.0
C1527 C 0.31794 0.86525 0.61636 0.0
C1528 C 0.32755 0.86345 0.58573 0.0
C1529 C 0.29189 0.84579 0.62384 0.0
C1530 C 0.31037 0.84219 0.56253 0.0
C1531 C 0.2845 0.82291 0.56973 0.0
H1532 H 0.25701 0.50311 0.71937 0.0
H1533 H 0.28296 0.46721 0.6435 0.0
H1534 H 0.25227 0.46883 0.60454 0.0
H1535 H 0.21858 0.4815 0.59207 0.0
H1536 H 0.19303 0.51686 0.66907 0.0
H1537 H 0.22298 0.51427 0.70756 0.0
C1538 C 0.25603 0.49558 0.69431 0.0
C1539 C 0.27246 0.48522 0.68437 0.0
C1540 C 0.23836 0.49651 0.67224 0.0
C1541 C 0.27057 0.47529 0.65184 0.0
C1542 C 0.25307 0.4763 0.62955 0.0
C1543 C 0.21968 0.48873 0.61725 0.0
C1544 C 0.20353 0.49941 0.62761 0.0
C1545 C 0.237 0.48708 0.63944 0.0
C1546 C 0.20494 0.5083 0.66045 0.0
C1547 C 0.22219 0.50695 0.68248 0.0
H1548 H 0.44053 0.89914 0.27242 0.0
H1549 H 0.39719 0.89947 0.18863 0.0
H1550 H 0.43611 0.91255 0.15654 0.0
H1551 H 0.48143 0.92126 0.15141 0.0
H1552 H 0.52602 0.92258 0.23493 0.0
H1553 H 0.4878 0.91175 0.26818 0.0
C1554 C 0.43972 0.90215 0.24716 0.0
C1555 C 0.41592 0.89814 0.23284 0.0
C1556 C 0.46236 0.90995 0.22888 0.0
C1557 C 0.41526 0.90257 0.20023 0.0
C1558 C 0.43747 0.90992 0.18185 0.0
C1559 C 0.48288 0.91937 0.17697 0.0
C1560 C 0.50642 0.92243 0.19064 0.0
C1561 C 0.46098 0.91331 0.1958 0.0
C1562 C 0.50814 0.92035 0.22386 0.0
C1563 C 0.48623 0.914 0.2428 0.0
H1564 H 0.13485 0.48785 0.14755 0.0
H1565 H 0.16772 0.47919 0.05765 0.0
H1566 H 0.17411 0.52263 0.04377 0.0
H1567 H 0.1705 0.5635 0.05716 0.0
H1568 H 0.13819 0.57207 0.14753 0.0
H1569 H 0.13172 0.52862 0.16117 0.0
C1570 C 0.14362 0.49549 0.12503 0.0
C1571 C 0.15075 0.48003 0.10378 0.0
C1572 C 0.1474 0.52067 0.1172 0.0
C1573 C 0.16167 0.49028 0.07441 0.0
C1574 C 0.16553 0.51532 0.0665 0.0
C1575 C 0.16228 0.55598 0.07995 0.0
C1576 C 0.15477 0.57116 0.10116 0.0
C1577 C 0.15852 0.53075 0.08772 0.0
C1578 C 0.14381 0.56079 0.13045 0.0
C1579 C 0.1402 0.53592 0.13839 0.0
H1580 H 0.53075 0.64082 0.27682 0.0
H1581 H 0.60105 0.63808 0.252 0.0
H1582 H 0.57338 0.5915 0.22696 0.0
H1583 H 0.52914 0.5529 0.2082 0.0
H1584 H 0.4591 0.55651 0.23233 0.0
H1585 H 0.48674 0.60108 0.26208 0.0
C1586 C 0.54009 0.62991 0.26659 0.0
C1587 C 0.568 0.64314 0.26612 0.0
C1588 C 0.52405 0.60322 0.25192 0.0
C1589 C 0.57963 0.62862 0.25228 0.0
C1590 C 0.56381 0.60192 0.23802 0.0
C1591 C 0.5199 0.56323 0.2204 0.0
C1592 C 0.49206 0.55139 0.21779 0.0
C1593 C 0.53598 0.58921 0.23706 0.0
C1594 C 0.48047 0.56518 0.23369 0.0
C1595 C 0.49627 0.59073 0.25071 0.0
H1596 H 0.10354 0.63327 0.6777 0.0
H1597 H 0.18752 0.68018 0.7041 0.0
H1598 H 0.19165 0.64043 0.68794 0.0
H1599 H 0.17221 0.59385 0.66082 0.0
H1600 H 0.08801 0.54685 0.63541 0.0
H1601 H 0.0831 0.58497 0.65707 0.0
C1602 C 0.12269 0.6347 0.68035 0.0
C1603 C 0.14526 0.65979 0.69174 0.0
C1604 C 0.12489 0.61176 0.67102 0.0
C1605 C 0.16985 0.66117 0.69542 0.0
C1606 C 0.17224 0.63846 0.68599 0.0
C1607 C 0.15269 0.59178 0.66052 0.0
C1608 C 0.13055 0.56756 0.64621 0.0
C1609 C 0.15003 0.61387 0.67295 0.0
C1610 C 0.10538 0.56516 0.6463 0.0
C1611 C 0.10259 0.58706 0.65849 0.0
H1612 H 0.43426 0.52835 0.71551 0.0
H1613 H 0.42329 0.59681 0.70842 0.0
H1614 H 0.46613 0.62155 0.68414 0.0
H1615 H 0.50583 0.62306 0.66223 0.0
H1616 H 0.51681 0.55447 0.66851 0.0
H1617 H 0.47516 0.53073 0.69578 0.0
C1618 C 0.44121 0.54864 0.70858 0.0
C1619 C 0.42539 0.56058 0.71381 0.0
C1620 C 0.46601 0.56285 0.69446 0.0
C1621 C 0.43502 0.58713 0.70508 0.0
C1622 C 0.45954 0.6013 0.69099 0.0
C1623 C 0.49934 0.60306 0.66991 0.0
C1624 C 0.51455 0.59064 0.66316 0.0
C1625 C 0.47513 0.58931 0.68531 0.0
C1626 C 0.50563 0.56463 0.67331 0.0
C1627 C 0.48168 0.55093 0.68882 0.0
H1628 H 0.54975 0.93888 0.70883 0.0
H1629 H 0.48353 0.85656 0.69281 0.0
H1630 H 0.45643 0.87282 0.66945 0.0
H1631 H 0.45157 0.91031 0.65244 0.0
H1632 H 0.51734 0.99294 0.66942 0.0
H1633 H 0.5443 0.97678 0.69348 0.0
C1634 C 0.52944 0.92454 0.70009 0.0
C1635 C 0.51877 0.89649 0.7026 0.0
C1636 C 0.51375 0.93411 0.6869 0.0
C1637 C 0.49223 0.87824 0.69152 0.0
C1638 C 0.47671 0.88753 0.67801 0.0
C1639 C 0.47174 0.92485 0.66158 0.0
C1640 C 0.48228 0.95287 0.65898 0.0
C1641 C 0.48722 0.91542 0.67552 0.0
C1642 C 0.50852 0.97129 0.6711 0.0
C1643 C 0.52408 0.96204 0.68479 0.0
H1644 H 0.23367 0.408 0.15948 0.0
H1645 H 0.23567 0.48024 0.20206 0.0
H1646 H 0.28456 0.50558 0.20197 0.0
H1647 H 0.32649 0.50762 0.18555 0.0
H1648 H 0.32304 0.43435 0.1437 0.0
H1649 H 0.27493 0.4089 0.14777 0.0
C1650 C 0.24483 0.42924 0.1691 0.0
C1651 C 0.23118 0.44235 0.1805 0.0
C1652 C 0.27264 0.44349 0.1688 0.0
C1653 C 0.24581 0.46972 0.19329 0.0
C1654 C 0.27371 0.48422 0.19295 0.0
C1655 C 0.31513 0.48608 0.17744 0.0
C1656 C 0.32832 0.47292 0.16413 0.0
C1657 C 0.2873 0.47144 0.18005 0.0
C1658 C 0.31344 0.4449 0.1542 0.0
C1659 C 0.28591 0.43035 0.15639 0.0
H1660 H 0.56279 0.81941 0.1636 0.0
H1661 H 0.63688 0.89497 0.15933 0.0
H1662 H 0.66116 0.8751 0.18134 0.0
H1663 H 0.6613 0.83687 0.20387 0.0
H1664 H 0.58719 0.76134 0.20902 0.0
H1665 H 0.56313 0.78042 0.18438 0.0
C1666 C 0.58427 0.83137 0.16712 0.0
C1667 C 0.59794 0.8587 0.16005 0.0
C1668 C 0.59815 0.81984 0.18008 0.0
C1669 C 0.62579 0.87403 0.16506 0.0
C1670 C 0.63973 0.86265 0.17753 0.0
C1671 C 0.63991 0.82449 0.19942 0.0
C1672 C 0.62613 0.79771 0.20843 0.0
C1673 C 0.6261 0.83568 0.18552 0.0
C1674 C 0.59836 0.78204 0.20247 0.0
C1675 C 0.58454 0.79294 0.18836 0.0
H1676 H 0.23903 0.77907 0.25521 0.0
H1677 H 0.27391 0.83508 0.18225 0.0
H1678 H 0.24322 0.79987 0.14104 0.0
H1679 H 0.20773 0.75279 0.12518 0.0
H1680 H 0.17168 0.69669 0.19771 0.0
H1681 H 0.2014 0.73235 0.23959 0.0
C1682 C 0.23988 0.78365 0.23031 0.0
C1683 C 0.25902 0.8098 0.22193 0.0
C1684 C 0.22194 0.76324 0.20662 0.0
C1685 C 0.25952 0.81528 0.18953 0.0
C1686 C 0.24197 0.79508 0.16588 0.0
C1687 C 0.20623 0.74829 0.15017 0.0
C1688 C 0.18753 0.7219 0.15816 0.0
C1689 C 0.22329 0.76893 0.17407 0.0
C1690 C 0.18579 0.71672 0.19078 0.0
C1691 C 0.20289 0.73713 0.21474 0.0
H1692 H 0.36636 0.31593 0.15894 0.0
H1693 H 0.29601 0.30053 0.10496 0.0
H1694 H 0.31296 0.34931 0.10739 0.0
H1695 H 0.34978 0.3963 0.11938 0.0
H1696 H 0.42018 0.41229 0.17336 0.0
H1697 H 0.40116 0.36328 0.17637 0.0
C1698 C 0.35445 0.32316 0.14823 0.0
C1699 C 0.33007 0.30443 0.13137 0.0
C1700 C 0.36454 0.35138 0.14922 0.0
C1701 C 0.31489 0.31432 0.11792 0.0
C1702 C 0.32466 0.3423 0.11909 0.0
C1703 C 0.36094 0.38908 0.13195 0.0
C1704 C 0.38658 0.40784 0.14561 0.0
C1705 C 0.34983 0.36099 0.13369 0.0
C1706 C 0.4005 0.39823 0.16246 0.0
C1707 C 0.38963 0.37022 0.16414 0.0
H1708 H 0.66189 0.95251 0.09819 0.0
H1709 H 0.66334 1.00143 0.18361 0.0
H1710 H 0.71217 1.02418 0.18809 0.0
H1711 H 0.75477 0.0316 0.1654 0.0
H1712 H 0.75135 0.98231 0.07939 0.0
H1713 H 0.70287 0.95801 0.0776 0.0
C1714 C 0.67274 0.96817 0.11788 0.0
C1715 C 0.65893 0.97548 0.14031 0.0
C1716 C 0.70052 0.981 0.12019 0.0
C1717 C 0.67347 0.99553 0.16589 0.0
C1718 C 0.70139 1.00851 0.16844 0.0
C1719 C 0.74327 1.01523 0.14668 0.0
C1720 C 0.75652 1.00875 0.12243 0.0
C1721 C 0.71518 1.00159 0.14549 0.0
C1722 C 0.74151 0.98772 0.09806 0.0
C1723 C 0.71384 0.97388 0.09703 0.0
H1724 H 0.06622 0.75626 0.98432 0.0
H1725 H 1.00181 0.70531 0.04276 0.0
H1726 H 1.02495 0.68158 0.05616 0.0
H1727 H 0.06463 0.67686 0.05359 0.0
H1728 H 0.12926 0.72865 0.99604 0.0
H1729 H 0.10482 0.75025 0.97992 0.0
C1730 C 0.05701 0.73975 0.99968 0.0
C1731 C 1.03225 0.73271 0.01252 0.0
C1732 C 0.07062 0.72642 0.0077 0.0
C1733 C 1.02079 0.71123 0.03245 0.0
C1734 C 1.0341 0.6977 0.04028 0.0
C1735 C 0.07344 0.69295 0.03765 0.0
C1736 C 0.09891 0.70114 0.02624 0.0
C1737 C 0.05926 0.70545 0.02853 0.0
C1738 C 0.10969 0.72171 0.00505 0.0
C1739 C 0.09574 0.7342 0.9959 0.0
H1740 H 0.30908 0.30857 0.4429 0.0
H1741 H 0.27809 0.32228 0.35677 0.0
H1742 H 0.32325 0.35159 0.34005 0.0
H1743 H 0.37135 0.37073 0.348 0.0
H1744 H 0.40244 0.35545 0.43272 0.0
H1745 H 0.35751 0.32915 0.45176 0.0
C1746 C 0.31227 0.31836 0.42076 0.0
C1747 C 0.29032 0.31335 0.40114 0.0
C1748 C 0.33829 0.33457 0.41081 0.0
C1749 C 0.2947 0.32581 0.37225 0.0
C1750 C 0.3205 0.34251 0.36263 0.0
C1751 C 0.36831 0.36194 0.37082 0.0
C1752 C 0.39018 0.36495 0.38883 0.0
C1753 C 0.34242 0.34663 0.38141 0.0
C1754 C 0.38589 0.35309 0.41816 0.0
C1755 C 0.36022 0.33819 0.42916 0.0
H1756 H 0.65455 0.03952 0.43537 0.0
H1757 H 0.72049 0.0935 0.38086 0.0
H1758 H 0.74712 0.07548 0.40138 0.0
H1759 H 0.75281 0.04687 0.43832 0.0
H1760 H 0.68693 0.99412 0.49365 0.0
H1761 H 0.65934 1.00938 0.46957 0.0
C1762 C 0.67462 0.04714 0.42755 0.0
C1763 C 0.68546 0.06793 0.40662 0.0
C1764 C 0.69003 0.03716 0.44002 0.0
C1765 C 0.71158 0.07752 0.39694 0.0
C1766 C 0.72689 0.06731 0.4088 0.0
C1767 C 0.73233 0.03847 0.44477 0.0
C1768 C 0.72211 1.01957 0.46809 0.0
C1769 C 0.71651 0.04751 0.4309 0.0
C1770 C 0.69553 1.00907 0.47633 0.0
C1771 C 0.67964 1.01766 0.46238 0.0
H1772 H 0.07684 0.74998 0.38455 0.0
H1773 H 1.01767 0.77339 0.39563 0.0
H1774 H 0.98389 0.7292 0.3685 0.0
H1775 H 0.97003 0.68131 0.3514 0.0
H1776 H 1.02939 0.65765 0.34441 0.0
H1777 H 0.06429 0.7046 0.35993 0.0
C1778 C 0.05668 0.74568 0.38021 0.0
C1779 C 0.04963 0.7647 0.39238 0.0
C1780 C 1.03732 0.71997 0.3659 0.0
C1781 C 1.02358 0.75909 0.38637 0.0
C1782 C 1.00422 0.73368 0.37125 0.0
C1783 C 0.99065 0.68651 0.35254 0.0
C1784 C 0.99701 0.66582 0.34734 0.0
C1785 C 1.01063 0.7135 0.36239 0.0
C1786 C 1.02387 0.67303 0.34872 0.0
C1787 C 0.04386 0.69989 0.35765 0.0
H1788 H 0.70392 0.65519 0.97643 0.0
H1789 H 0.68839 0.62254 0.87636 0.0
H1790 H 0.70972 0.66867 0.85962 0.0
H1791 H 0.7342 0.71827 0.87334 0.0
H1792 H 0.74917 0.75102 0.97334 0.0
H1793 H 0.72652 0.70483 0.99014 0.0
C1794 C 0.7051 0.65811 0.95094 0.0
C1795 C 0.69466 0.63533 0.92769 0.0
C1796 C 0.71734 0.68473 0.94147 0.0
C1797 C 0.69621 0.63961 0.89478 0.0
C1798 C 0.70848 0.66602 0.88519 0.0
C1799 C 0.73245 0.71536 0.89884 0.0
C1800 C 0.74356 0.73818 0.92204 0.0
C1801 C 0.71934 0.68873 0.90831 0.0
C1802 C 0.74084 0.73391 0.95495 0.0
C1803 C 0.72794 0.70747 0.96457 0.0
H1804 H 0.33689 1.0134 0.87766 0.0
H1805 H 0.32134 1.00778 0.97894 0.0
H1806 H 0.36909 0.0299 0.99251 0.0
H1807 H 0.41532 0.05312 0.97571 0.0
H1808 H 0.43061 0.05821 0.87429 0.0
H1809 H 0.38281 0.03381 0.86068 0.0
C1810 C 0.3439 1.01687 0.90273 0.0
C1811 C 0.32555 1.00915 0.92728 0.0
C1812 C 0.37133 0.02956 0.91032 0.0
C1813 C 0.33499 1.01352 0.95958 0.0
C1814 C 0.36232 0.02625 0.96735 0.0
C1815 C 0.40822 0.04874 0.95059 0.0
C1816 C 0.42659 0.05769 0.92606 0.0
C1817 C 0.38068 0.03471 0.94294 0.0
C1818 C 0.41698 0.0516 0.89366 0.0
C1819 C 0.38963 0.03772 0.88586 0.0
H1820 H 0.05366 0.32501 0.90064 0.0
H1821 H 0.07854 0.33645 1.00126 0.0
H1822 H 0.05197 0.35771 0.01443 0.0
H1823 H 1.01986 0.3709 0.9976 0.0
H1824 H 0.99561 0.35971 0.89672 0.0
H1825 H 1.02383 0.34056 0.88346 0.0
C1826 C 0.05343 0.33226 0.92549 0.0
C1827 C 0.06797 0.32891 0.94997 0.0
C1828 C 1.0381 0.34441 0.93284 0.0
C1829 C 0.06758 0.33873 0.98193 0.0
C1830 C 0.05229 0.3508 0.98948 0.0
C1831 C 1.02082 0.3644 0.97267 0.0
C1832 C 1.0054 0.36661 0.94821 0.0
C1833 C 1.03718 0.35341 0.96518 0.0
C1834 C 1.00716 0.35827 0.91604 0.0
C1835 C 1.02327 0.34724 0.90844 0.0
H1836 H 0.73848 0.73982 0.62946 0.0
H1837 H 0.75432 0.69234 0.55674 0.0
H1838 H 0.70658 0.65874 0.54981 0.0
H1839 H 0.66019 0.64284 0.56476 0.0
H1840 H 0.64523 0.69177 0.63646 0.0
H1841 H 0.6928 0.72462 0.64363 0.0
C1842 C 0.73159 0.72216 0.61201 0.0
C1843 C 0.75007 0.71864 0.59369 0.0
C1844 C 0.70421 0.70304 0.60815 0.0
C1845 C 0.7406 0.69566 0.57109 0.0
C1846 C 0.71329 0.67637 0.56723 0.0
C1847 C 0.66738 0.66057 0.58215 0.0
C1848 C 0.64908 0.66469 0.60022 0.0
C1849 C 0.69489 0.67978 0.58575 0.0
C1850 C 0.65877 0.68802 0.62228 0.0
C1851 C 0.68601 0.70688 0.62636 0.0
H1852 H 0.3502 0.05482 0.62778 0.0
H1853 H 0.3406 0.05223 0.52437 0.0
H1854 H 0.36259 1.0257 0.5166 0.0
H1855 H 0.38326 1.0021 0.53885 0.0
H1856 H 0.39372 1.00483 0.64206 0.0
H1857 H 0.3728 0.03259 0.65019 0.0
C1858 C 0.35297 0.04854 0.6035 0.0
C1859 C 0.34356 0.05549 0.57667 0.0
C1860 C 0.36577 0.03328 0.59918 0.0
C1861 C 0.34756 0.04726 0.54546 0.0
C1862 C 0.36012 0.03201 0.54099 0.0
C1863 C 0.38106 1.00877 0.56321 0.0
C1864 C 0.38996 1.00116 0.58985 0.0
C1865 C 0.36909 1.02473 0.56764 0.0
C1866 C 0.38711 1.01032 0.62114 0.0
C1867 C 0.37506 0.02615 0.62576 0.0
H1868 H 0.07339 0.41712 0.5449 0.0
H1869 H 0.05439 0.40924 0.64509 0.0
H1870 H 1.02899 0.35963 0.63404 0.0
H1871 H 1.01449 0.31841 0.59664 0.0
H1872 H 1.03602 0.32647 0.49731 0.0
H1873 H 0.05785 0.37603 0.50725 0.0
C1874 C 0.06348 0.40461 0.56431 0.0
C1875 C 0.06585 0.41699 0.59584 0.0
C1876 C 0.04937 0.37606 0.55792 0.0
C1877 C 0.05301 0.40033 0.62065 0.0
C1878 C 1.03845 0.37192 0.61433 0.0
C1879 C 1.0236 0.33098 0.57702 0.0
C1880 C 1.02351 0.31868 0.54619 0.0
C1881 C 1.0368 0.35954 0.58315 0.0
C1882 C 1.03577 0.33536 0.52122 0.0
C1883 C 0.04833 0.36372 0.52692 0.0
H1884 H 0.96154 0.62747 0.72316 0.0
H1885 H 0.98287 0.64533 0.82513 0.0
H1886 H 1.02891 0.67888 0.81359 0.0
H1887 H 0.06351 0.70193 0.77355 0.0
H1888 H 0.04001 0.68494 0.67217 0.0
H1889 H 0.99441 0.65212 0.68427 0.0
C1890 C 0.97624 0.63877 0.74294 0.0
C1891 C 0.96893 0.63376 0.77494 0.0
C1892 C 1.0023 0.65805 0.7361 0.0
C1893 C 0.98804 0.64888 0.8003 0.0
C1894 C 1.01436 0.66792 0.79365 0.0
C1895 C 0.04829 0.69096 0.75428 0.0
C1896 C 0.05504 0.69568 0.72197 0.0
C1897 C 1.02181 0.67245 0.76156 0.0
C1898 C 1.03519 0.6817 0.69714 0.0
C1899 C 1.00916 0.66291 0.70406 0.0
H1900 H 0.38016 0.45231 0.81356 0.0
H1901 H 0.35126 0.41103 0.71802 0.0
H1902 H 0.36637 0.37933 0.72894 0.0
H1903 H 0.3877 0.36325 0.7665 0.0
H1904 H 0.41518 0.40519 0.86201 0.0
H1905 H 0.40058 0.43661 0.85024 0.0
C1906 C 0.37717 0.43647 0.79492 0.0
C1907 C 0.36467 0.43417 0.76492 0.0
C1908 C 0.38558 0.41831 0.8015 0.0
C1909 C 0.36084 0.41331 0.74131 0.0
C1910 C 0.36949 0.39519 0.74758 0.0
C1911 C 0.39052 0.37934 0.7846 0.0
C1912 C 0.40233 0.38167 0.81523 0.0
C1913 C 0.38188 0.39747 0.77768 0.0
C1914 C 0.40572 0.40255 0.83852 0.0
C1915 C 0.39754 0.42069 0.83174 0.0
H1916 H 0.64758 0.96449 0.77601 0.0
H1917 H 0.68922 0.97745 0.68768 0.0
H1918 H 0.71713 0.026 0.7057 0.0
H1919 H 0.72848 0.06517 0.74573 0.0
H1920 H 0.68625 0.05161 0.83369 0.0
H1921 H 0.66013 1.00292 0.81675 0.0
C1922 C 0.66276 0.97787 0.76061 0.0
C1923 C 0.6661 0.96725 0.73036 0.0
C1924 C 0.67878 1.00572 0.77117 0.0
C1925 C 0.68612 0.98498 0.71102 0.0
C1926 C 0.70211 1.01279 0.72133 0.0
C1927 C 0.71383 0.05153 0.76142 0.0
C1928 C 0.70938 0.06217 0.79101 0.0
C1929 C 0.69852 1.02344 0.75129 0.0
C1930 C 0.69013 0.04411 0.81083 0.0
C1931 C 0.67508 1.01621 0.80109 0.0
H1932 H 0.37689 0.98943 0.31871 0.0
H1933 H 0.34489 0.95745 0.22103 0.0
H1934 H 0.36649 1.00371 0.20468 0.0
H1935 H 0.39642 0.05305 0.21732 0.0
H1936 H 0.42807 0.08533 0.31503 0.0
H1937 H 0.40449 0.0392 0.33215 0.0
C1938 C 0.37446 0.99254 0.29386 0.0
C1939 C 0.35935 0.96982 0.2711 0.0
C1940 C 0.38696 1.0193 0.2846 0.0
C1941 C 0.35633 0.97441 0.23909 0.0
C1942 C 0.36877 1.00091 0.22969 0.0
C1943 C 0.39806 0.05008 0.24245 0.0
C1944 C 0.41422 0.07275 0.2648 0.0
C1945 C 0.38443 1.02348 0.25211 0.0
C1946 C 0.41582 0.06838 0.29729 0.0
C1947 C 0.4024 0.04195 0.30707 0.0
H1948 H 0.99995 0.38946 0.25631 0.0
H1949 H 0.96326 0.30312 0.22835 0.0
H1950 H 1.00649 0.3091 0.21563 0.0
H1951 H 0.05357 0.33925 0.20646 0.0
H1952 H 0.091 0.42555 0.23383 0.0
H1953 H 0.04869 0.41914 0.25325 0.0
C1954 C 1.00144 0.37187 0.2479 0.0
C1955 C 0.9782 0.3459 0.24286 0.0
C1956 C 1.02647 0.37548 0.24033 0.0
C1957 C 0.98065 0.32335 0.23228 0.0
C1958 C 1.00541 0.32675 0.22486 0.0
C1959 C 0.05258 0.35664 0.21712 0.0
C1960 C 0.07527 0.38289 0.21836 0.0
C1961 C 1.02826 0.35279 0.22787 0.0
C1962 C 0.07382 0.40515 0.23264 0.0
C1963 C 0.04957 0.40148 0.24351 0.0
H1964 H 0.74921 0.69049 0.20828 0.0
H1965 H 0.6796 0.61038 0.20862 0.0
H1966 H 0.65093 0.62969 0.20588 0.0
H1967 H 0.64549 0.66945 0.20545 0.0
H1968 H 0.7148 0.74991 0.21017 0.0
H1969 H 0.74373 0.73042 0.20812 0.0
C1970 C 0.72778 0.67727 0.20774 0.0
C1971 C 0.71663 0.64905 0.20876 0.0
C1972 C 0.71133 0.68856 0.20663 0.0
C1973 C 0.68878 0.63221 0.20816 0.0
C1974 C 0.67231 0.6432 0.20638 0.0
C1975 C 0.66691 0.68261 0.20524 0.0
C1976 C 0.67809 0.71098 0.20722 0.0
C1977 C 0.68336 0.67133 0.20568 0.0
C1978 C 0.70586 0.72797 0.20812 0.0
C1979 C 0.72235 0.71684 0.20723 0.0
loop_
_geom_bond_atom_site_label_1
_geom_bond_atom_site_label_2
_geom_bond_distance
_geom_bond_site_symmetry_2
_ccdc_geom_bond_type
Cu0 N1 1.999 . S
Cu0 O6 1.974 . S
Cu0 N11 1.985 . S
Cu0 O20 1.959 . S
N1 Cu0 1.999 . S
N1 C3 1.263 . S
N1 C5 1.389 . S
N2 C3 1.358 . S
N2 C4 1.400 . S
C3 N1 1.263 . S
C3 N2 1.358 . S
C3 H9 0.930 . S
C4 N2 1.400 . S
C4 C5 1.351 . S
C4 H21 0.930 . S
C5 N1 1.389 . S
C5 C4 1.351 . S
C5 H10 0.930 . S
O6 Cu0 1.974 . S
O6 C16 1.282 . S
C7 O8 1.261 . S
C7 O20 1.251 . S
O8 C7 1.261 . S
H9 C3 0.930 . S
H10 C5 0.930 . S
N11 Cu0 1.985 . S
N11 C13 1.335 . S
N11 C14 1.390 . S
N12 C13 1.345 . S
N12 C15 1.336 1_554 S
C13 N11 1.335 . S
C13 N12 1.345 . S
C13 H18 0.930 . S
C14 N11 1.390 . S
C14 C15 1.346 1_554 S
C14 H19 0.930 1_554 S
C15 N12 1.336 1_556 S
C15 C14 1.346 1_556 S
C15 H22 0.929 . S
C16 O6 1.282 . S
C16 O17 1.216 . S
O17 C16 1.216 . S
H18 C13 0.930 . S
H19 C14 0.930 1_556 S
O20 Cu0 1.959 . S
O20 C7 1.251 . S
H21 C4 0.930 . S
H22 C15 0.929 . S
Cu23 N24 1.999 . S
Cu23 O29 1.974 . S
Cu23 N34 1.985 . S
Cu23 O43 1.959 . S
N24 Cu23 1.999 . S
N24 C26 1.227 1_545 S
N24 C28 1.389 . S
N25 C26 1.346 . S
N25 C27 1.400 1_565 S
C26 N24 1.227 1_565 S
C26 N25 1.346 . S
C26 H32 0.974 . S
C27 N25 1.400 1_545 S
C27 C28 1.351 . S
C27 H44 0.930 . S
C28 N24 1.389 . S
C28 C27 1.351 . S
C28 H33 0.930 . S
O29 Cu23 1.974 . S
O29 C39 1.282 1_545 S
C30 O31 1.261 . S
C30 O43 1.251 . S
O31 C30 1.261 . S
H32 C26 0.974 . S
H33 C28 0.930 . S
N34 Cu23 1.985 . S
N34 C36 1.335 . S
N34 C37 1.390 . S
N35 C36 1.345 . S
N35 C38 1.336 . S
C36 N34 1.335 . S
C36 N35 1.345 . S
C36 H41 0.930 . S
C37 N34 1.390 . S
C37 C38 1.346 . S
C37 H42 0.930 . S
C38 N35 1.336 . S
C38 C37 1.346 . S
C38 H45 0.929 . S
C39 O29 1.282 1_565 S
C39 O40 1.216 . S
O40 C39 1.216 . S
H41 C36 0.930 . S
H42 C37 0.930 . S
O43 Cu23 1.959 . S
O43 C30 1.251 . S
H44 C27 0.930 . S
H45 C38 0.929 . S
Cu46 N47 1.999 . S
Cu46 O52 1.974 . S
Cu46 N57 1.985 . S
Cu46 O66 1.959 . S
N47 Cu46 1.999 . S
N47 C49 1.263 . S
N47 C51 1.389 . S
N48 C49 1.358 . S
N48 C50 1.400 . S
C49 N47 1.263 . S
C49 N48 1.358 . S
C49 H55 0.930 . S
C50 N48 1.400 . S
C50 C51 1.351 . S
C50 H67 0.930 . S
C51 N47 1.389 . S
C51 C50 1.351 . S
C51 H56 0.930 . S
O52 Cu46 1.974 . S
O52 C62 1.282 . S
C53 O54 1.261 . S
C53 O66 1.251 . S
O54 C53 1.261 . S
H55 C49 0.930 . S
H56 C51 0.930 . S
N57 Cu46 1.985 . S
N57 C59 1.335 1_655 S
N57 C60 1.390 . S
N58 C59 1.345 . S
N58 C61 1.326 1_554 S
C59 N57 1.335 1_455 S
C59 N58 1.345 . S
C59 H64 0.930 . S
C60 N57 1.390 . S
C60 C61 1.337 1_654 S
C60 H65 0.930 . S
C61 N58 1.326 1_556 S
C61 C60 1.337 1_456 S
C61 H68 0.946 . S
C62 O52 1.282 . S
C62 O63 1.216 . S
O63 C62 1.216 . S
H64 C59 0.930 . S
H65 C60 0.930 . S
O66 Cu46 1.959 . S
O66 C53 1.251 . S
H67 C50 0.930 . S
H68 C61 0.946 . S
Cu69 N70 1.999 . S
Cu69 O75 1.974 . S
Cu69 N80 1.985 . S
Cu69 O89 1.959 . S
N70 Cu69 1.999 . S
N70 C72 1.263 . S
N70 C74 1.389 . S
N71 C72 1.358 . S
N71 C73 1.400 . S
C72 N70 1.263 . S
C72 N71 1.358 . S
C72 H78 0.930 . S
C73 N71 1.400 . S
C73 C74 1.351 . S
C73 H90 0.930 . S
C74 N70 1.389 . S
C74 C73 1.351 . S
C74 H79 0.930 . S
O75 Cu69 1.974 . S
O75 C85 1.282 . S
C76 O77 1.261 . S
C76 O89 1.251 . S
O77 C76 1.261 . S
H78 C72 0.930 . S
H79 C74 0.930 . S
N80 Cu69 1.985 . S
N80 C82 1.335 . S
N80 C83 1.390 . S
N81 C82 1.345 . S
N81 C84 1.336 . S
C82 N80 1.335 . S
C82 N81 1.345 . S
C82 H87 0.930 . S
C83 N80 1.390 . S
C83 C84 1.346 . S
C83 H88 0.930 . S
C84 N81 1.336 . S
C84 C83 1.346 . S
C84 H91 0.929 . S
C85 O75 1.282 . S
C85 O86 1.216 . S
O86 C85 1.216 . S
H87 C82 0.930 . S
H88 C83 0.930 . S
O89 Cu69 1.959 . S
O89 C76 1.251 . S
H90 C73 0.930 . S
H91 C84 0.929 . S
Cu92 N93 1.999 . S
Cu92 O98 1.974 . S
Cu92 N103 1.985 . S
Cu92 O112 1.959 . S
N93 Cu92 1.999 . S
N93 C95 1.266 1_565 S
N93 C97 1.389 . S
N94 C95 1.355 . S
N94 C96 1.400 1_545 S
C95 N93 1.266 1_545 S
C95 N94 1.355 . S
C95 H101 0.929 . S
C96 N94 1.400 1_565 S
C96 C97 1.351 . S
C96 H113 0.930 . S
C97 N93 1.389 . S
C97 C96 1.351 . S
C97 H102 0.930 . S
O98 Cu92 1.974 . S
O98 C108 1.282 1_565 S
C99 O100 1.261 . S
C99 O112 1.251 . S
O100 C99 1.261 . S
H101 C95 0.929 . S
H102 C97 0.930 . S
N103 Cu92 1.985 . S
N103 C105 1.335 . S
N103 C106 1.390 . S
N104 C105 1.345 . S
N104 C107 1.336 . S
C105 N103 1.335 . S
C105 N104 1.345 . S
C105 H110 0.930 . S
C106 N103 1.390 . S
C106 C107 1.346 . S
C106 H111 0.930 . S
C107 N104 1.336 . S
C107 C106 1.346 . S
C107 H114 0.929 . S
C108 O98 1.282 1_545 S
C108 O109 1.216 . S
O109 C108 1.216 . S
H110 C105 0.930 . S
H111 C106 0.930 . S
O112 Cu92 1.959 . S
O112 C99 1.251 . S
H113 C96 0.930 . S
H114 C107 0.929 . S
Cu115 N116 1.999 . S
Cu115 O121 1.974 . S
Cu115 N126 1.985 . S
Cu115 O135 1.959 . S
N116 Cu115 1.999 . S
N116 C118 1.263 . S
N116 C120 1.389 . S
N117 C118 1.358 . S
N117 C119 1.400 . S
C118 N116 1.263 . S
C118 N117 1.358 . S
C118 H124 0.930 . S
C119 N117 1.400 . S
C119 C120 1.351 . S
C119 H136 0.930 . S
C120 N116 1.389 . S
C120 C119 1.351 . S
C120 H125 0.930 . S
O121 Cu115 1.974 . S
O121 C131 1.282 . S
C122 O123 1.261 . S
C122 O135 1.251 . S
O123 C122 1.261 . S
H124 C118 0.930 . S
H125 C120 0.930 . S
N126 Cu115 1.985 . S
N126 C128 1.335 1_455 S
N126 C129 1.390 . S
N127 C128 1.345 . S
N127 C130 1.336 . S
C128 N126 1.335 1_655 S
C128 N127 1.345 . S
C128 H133 0.930 . S
C129 N126 1.390 . S
C129 C130 1.346 1_455 S
C129 H134 0.930 . S
C130 N127 1.336 . S
C130 C129 1.346 1_655 S
C130 H137 0.929 . S
C131 O121 1.282 . S
C131 O132 1.216 . S
O132 C131 1.216 . S
H133 C128 0.930 . S
H134 C129 0.930 . S
O135 Cu115 1.959 . S
O135 C122 1.251 . S
H136 C119 0.930 . S
H137 C130 0.929 . S
Cu138 N139 1.999 . S
Cu138 O144 1.974 . S
Cu138 N149 1.985 . S
Cu138 O158 1.959 . S
N139 Cu138 1.999 . S
N139 C141 1.263 . S
N139 C143 1.389 . S
N140 C141 1.358 . S
N140 C142 1.400 . S
C141 N139 1.263 . S
C141 N140 1.358 . S
C141 H147 0.930 . S
C142 N140 1.400 . S
C142 C143 1.351 . S
C142 H159 0.930 . S
C143 N139 1.389 . S
C143 C142 1.351 . S
C143 H148 0.930 . S
O144 Cu138 1.974 . S
O144 C154 1.282 . S
C145 O146 1.261 . S
C145 O158 1.251 . S
O146 C145 1.261 . S
H147 C141 0.930 . S
H148 C143 0.930 . S
N149 Cu138 1.985 . S
N149 C151 1.335 . S
N149 C152 1.390 . S
N150 C151 1.345 . S
N150 C153 1.336 . S
C151 N149 1.335 . S
C151 N150 1.345 . S
C151 H156 0.930 . S
C152 N149 1.390 . S
C152 C153 1.346 . S
C152 H157 0.930 . S
C153 N150 1.336 . S
C153 C152 1.346 . S
C153 H160 0.929 1_556 S
C154 O144 1.282 . S
C154 O155 1.216 . S
O155 C154 1.216 . S
H156 C151 0.930 . S
H157 C152 0.930 . S
O158 Cu138 1.959 . S
O158 C145 1.251 . S
H159 C142 0.930 . S
H160 C153 0.929 1_554 S
Cu161 N162 1.999 . S
Cu161 O167 1.974 . S
Cu161 N172 1.985 . S
Cu161 O181 1.959 . S
N162 Cu161 1.999 . S
N162 C164 1.263 . S
N162 C166 1.389 . S
N163 C164 1.358 . S
N163 C165 1.400 . S
C164 N162 1.263 . S
C164 N163 1.358 . S
C164 H170 0.930 . S
C165 N163 1.400 . S
C165 C166 1.351 . S
C165 H182 0.930 . S
C166 N162 1.389 . S
C166 C165 1.351 . S
C166 H171 0.930 . S
O167 Cu161 1.974 . S
O167 C177 1.282 . S
C168 O169 1.261 . S
C168 O181 1.251 . S
O169 C168 1.261 . S
H170 C164 0.930 . S
H171 C166 0.930 . S
N172 Cu161 1.985 . S
N172 C174 1.335 1_565 S
N172 C175 1.390 . S
N173 C174 1.345 . S
N173 C176 1.336 . S
C174 N172 1.335 1_545 S
C174 N173 1.345 . S
C174 H179 0.930 . S
C175 N172 1.390 . S
C175 C176 1.346 1_565 S
C175 H180 0.930 . S
C176 N173 1.336 . S
C176 C175 1.346 1_545 S
C176 H183 0.929 . S
C177 O167 1.282 . S
C177 O178 1.216 . S
O178 C177 1.216 . S
H179 C174 0.930 . S
H180 C175 0.930 . S
O181 Cu161 1.959 . S
O181 C168 1.251 . S
H182 C165 0.930 . S
H183 C176 0.929 . S
Cu184 N185 1.999 . S
Cu184 O190 1.974 . S
Cu184 N195 1.985 . S
Cu184 O204 1.959 . S
N185 Cu184 1.999 . S
N185 C187 1.263 . S
N185 C189 1.389 . S
N186 C187 1.358 . S
N186 C188 1.400 . S
C187 N185 1.263 . S
C187 N186 1.358 . S
C187 H193 0.930 . S
C188 N186 1.400 . S
C188 C189 1.351 . S
C188 H205 0.930 . S
C189 N185 1.389 . S
C189 C188 1.351 . S
C189 H194 0.930 . S
O190 Cu184 1.974 . S
O190 C200 1.282 . S
C191 O192 1.261 . S
C191 O204 1.251 . S
O192 C191 1.261 . S
H193 C187 0.930 . S
H194 C189 0.930 . S
N195 Cu184 1.985 . S
N195 C197 1.335 1_455 S
N195 C198 1.390 . S
N196 C197 1.345 . S
N196 C199 1.336 1_655 S
C197 N195 1.335 1_655 S
C197 N196 1.345 . S
C197 H202 0.930 . S
C198 N195 1.390 . S
C198 C199 1.346 . S
C198 H203 0.930 . S
C199 N196 1.336 1_455 S
C199 C198 1.346 . S
C199 H206 0.929 . S
C200 O190 1.282 . S
C200 O201 1.216 . S
O201 C200 1.216 . S
H202 C197 0.930 . S
H203 C198 0.930 . S
O204 Cu184 1.959 . S
O204 C191 1.251 . S
H205 C188 0.930 . S
H206 C199 0.929 . S
Cu207 N208 1.999 . S
Cu207 O213 1.974 . S
Cu207 N218 1.985 . S
Cu207 O227 1.959 . S
N208 Cu207 1.999 . S
N208 C210 1.263 . S
N208 C212 1.389 . S
N209 C210 1.358 . S
N209 C211 1.400 . S
C210 N208 1.263 . S
C210 N209 1.358 . S
C210 H216 0.930 . S
C211 N209 1.400 . S
C211 C212 1.351 . S
C211 H228 0.930 . S
C212 N208 1.389 . S
C212 C211 1.351 . S
C212 H217 0.930 . S
O213 Cu207 1.974 . S
O213 C223 1.282 . S
C214 O215 1.261 . S
C214 O227 1.251 . S
O215 C214 1.261 . S
H216 C210 0.930 . S
H217 C212 0.930 . S
N218 Cu207 1.985 . S
N218 C220 1.335 . S
N218 C221 1.390 . S
N219 C220 1.345 . S
N219 C222 1.336 . S
C220 N218 1.335 . S
C220 N219 1.345 . S
C220 H225 0.930 . S
C221 N218 1.390 . S
C221 C222 1.346 . S
C221 H226 0.930 . S
C222 N219 1.336 . S
C222 C221 1.346 . S
C222 H229 0.929 . S
C223 O213 1.282 . S
C223 O224 1.216 . S
O224 C223 1.216 . S
H225 C220 0.930 . S
H226 C221 0.930 . S
O227 Cu207 1.959 . S
O227 C214 1.251 . S
H228 C211 0.930 . S
H229 C222 0.929 . S
Cu230 N231 1.999 . S
Cu230 O236 1.974 . S
Cu230 N241 1.985 . S
Cu230 O250 1.959 . S
N231 Cu230 1.999 . S
N231 C233 1.263 . S
N231 C235 1.389 . S
N232 C233 1.358 . S
N232 C234 1.400 . S
C233 N231 1.263 . S
C233 N232 1.358 . S
C233 H239 0.930 . S
C234 N232 1.400 . S
C234 C235 1.351 . S
C234 H251 0.930 . S
C235 N231 1.389 . S
C235 C234 1.351 . S
C235 H240 0.930 . S
O236 Cu230 1.974 . S
O236 C246 1.282 . S
C237 O238 1.261 . S
C237 O250 1.251 . S
O238 C237 1.261 . S
H239 C233 0.930 . S
H240 C235 0.930 . S
N241 Cu230 1.985 . S
N241 C243 1.335 1_545 S
N241 C244 1.390 . S
N242 C243 1.345 . S
N242 C245 1.336 . S
C243 N241 1.335 1_565 S
C243 N242 1.345 . S
C243 H248 0.930 . S
C244 N241 1.390 . S
C244 C245 1.346 1_545 S
C244 H249 0.930 . S
C245 N242 1.336 . S
C245 C244 1.346 1_565 S
C245 H252 0.929 . S
C246 O236 1.282 . S
C246 O247 1.216 . S
O247 C246 1.216 . S
H248 C243 0.930 . S
H249 C244 0.930 . S
O250 Cu230 1.959 . S
O250 C237 1.251 . S
H251 C234 0.930 . S
H252 C245 0.929 . S
Cu253 N254 1.999 . S
Cu253 O259 1.974 . S
Cu253 N264 1.985 . S
Cu253 O273 1.959 . S
N254 Cu253 1.999 . S
N254 C256 1.263 . S
N254 C258 1.389 . S
N255 C256 1.358 . S
N255 C257 1.400 . S
C256 N254 1.263 . S
C256 N255 1.358 . S
C256 H262 0.930 . S
C257 N255 1.400 . S
C257 C258 1.351 . S
C257 H274 0.930 . S
C258 N254 1.389 . S
C258 C257 1.351 . S
C258 H263 0.930 . S
O259 Cu253 1.974 . S
O259 C269 1.282 . S
C260 O261 1.261 . S
C260 O273 1.251 . S
O261 C260 1.261 . S
H262 C256 0.930 . S
H263 C258 0.930 . S
N264 Cu253 1.985 . S
N264 C266 1.335 1_655 S
N264 C267 1.390 . S
N265 C266 1.345 . S
N265 C268 1.336 1_455 S
C266 N264 1.335 1_455 S
C266 N265 1.345 . S
C266 H271 0.930 . S
C267 N264 1.390 . S
C267 C268 1.346 . S
C267 H272 0.930 . S
C268 N265 1.336 1_655 S
C268 C267 1.346 . S
C268 H275 0.929 . S
C269 O259 1.282 . S
C269 O270 1.216 . S
O270 C269 1.216 . S
H271 C266 0.930 . S
H272 C267 0.930 . S
O273 Cu253 1.959 . S
O273 C260 1.251 . S
H274 C257 0.930 . S
H275 C268 0.929 . S
Cu276 N277 1.999 . S
Cu276 O282 1.974 . S
Cu276 N287 1.985 . S
Cu276 O296 1.959 . S
N277 Cu276 1.999 . S
N277 C279 1.263 . S
N277 C281 1.389 . S
N278 C279 1.358 . S
N278 C280 1.400 . S
C279 N277 1.263 . S
C279 N278 1.358 . S
C279 H285 0.930 . S
C280 N278 1.400 . S
C280 C281 1.351 . S
C280 H297 0.930 . S
C281 N277 1.389 . S
C281 C280 1.351 . S
C281 H286 0.930 . S
O282 Cu276 1.974 . S
O282 C292 1.282 . S
C283 O284 1.261 . S
C283 O296 1.251 . S
O284 C283 1.261 . S
H285 C279 0.930 . S
H286 C281 0.930 . S
N287 Cu276 1.985 . S
N287 C289 1.335 . S
N287 C290 1.390 . S
N288 C289 1.345 . S
N288 C291 1.336 . S
C289 N287 1.335 . S
C289 N288 1.345 . S
C289 H294 0.930 . S
C290 N287 1.390 . S
C290 C291 1.346 . S
C290 H295 0.930 . S
C291 N288 1.336 . S
C291 C290 1.346 . S
C291 H298 0.929 . S
C292 O282 1.282 . S
C292 O293 1.216 . S
O293 C292 1.216 . S
H294 C289 0.930 . S
H295 C290 0.930 . S
O296 Cu276 1.959 . S
O296 C283 1.251 . S
H297 C280 0.930 . S
H298 C291 0.929 . S
Cu299 N300 1.999 . S
Cu299 O305 1.974 . S
Cu299 N310 1.985 . S
Cu299 O319 1.959 . S
N300 Cu299 1.999 . S
N300 C302 1.263 . S
N300 C304 1.389 . S
N301 C302 1.358 . S
N301 C303 1.400 . S
C302 N300 1.263 . S
C302 N301 1.358 . S
C302 H308 0.930 . S
C303 N301 1.400 . S
C303 C304 1.351 . S
C303 H320 0.930 . S
C304 N300 1.389 . S
C304 C303 1.351 . S
C304 H309 0.930 . S
O305 Cu299 1.974 . S
O305 C315 1.282 . S
C306 O307 1.261 . S
C306 O319 1.251 . S
O307 C306 1.261 . S
H308 C302 0.930 . S
H309 C304 0.930 . S
N310 Cu299 1.985 . S
N310 C312 1.335 . S
N310 C313 1.390 . S
N311 C312 1.345 . S
N311 C314 1.336 . S
C312 N310 1.335 . S
C312 N311 1.345 . S
C312 H317 0.930 . S
C313 N310 1.390 . S
C313 C314 1.346 . S
C313 H318 0.930 . S
C314 N311 1.336 . S
C314 C313 1.346 . S
C314 H321 0.929 . S
C315 O305 1.282 . S
C315 O316 1.216 . S
O316 C315 1.216 . S
H317 C312 0.930 . S
H318 C313 0.930 . S
O319 Cu299 1.959 . S
O319 C306 1.251 . S
H320 C303 0.930 . S
H321 C314 0.929 . S
Cu322 N323 1.999 . S
Cu322 O328 1.974 . S
Cu322 N333 1.985 . S
Cu322 O342 1.959 . S
N323 Cu322 1.999 . S
N323 C325 1.263 . S
N323 C327 1.389 . S
N324 C325 1.358 . S
N324 C326 1.400 . S
C325 N323 1.263 . S
C325 N324 1.358 . S
C325 H331 0.930 . S
C326 N324 1.400 . S
C326 C327 1.351 . S
C326 H343 0.930 . S
C327 N323 1.389 . S
C327 C326 1.351 . S
C327 H332 0.930 . S
O328 Cu322 1.974 . S
O328 C338 1.282 . S
C329 O330 1.261 . S
C329 O342 1.251 . S
O330 C329 1.261 . S
H331 C325 0.930 . S
H332 C327 0.930 . S
N333 Cu322 1.985 . S
N333 C335 1.335 . S
N333 C336 1.390 . S
N334 C335 1.345 . S
N334 C337 1.336 . S
C335 N333 1.335 . S
C335 N334 1.345 . S
C335 H340 0.930 . S
C336 N333 1.390 . S
C336 C337 1.346 . S
C336 H341 0.930 . S
C337 N334 1.336 . S
C337 C336 1.346 . S
C337 H344 0.929 . S
C338 O328 1.282 . S
C338 O339 1.216 . S
O339 C338 1.216 . S
H340 C335 0.930 . S
H341 C336 0.930 . S
O342 Cu322 1.959 . S
O342 C329 1.251 . S
H343 C326 0.930 . S
H344 C337 0.929 . S
Cu345 N346 1.999 . S
Cu345 O351 1.974 . S
Cu345 N356 1.985 . S
Cu345 O365 1.959 . S
N346 Cu345 1.999 . S
N346 C348 1.263 . S
N346 C350 1.389 . S
N347 C348 1.358 . S
N347 C349 1.400 . S
C348 N346 1.263 . S
C348 N347 1.358 . S
C348 H354 0.930 . S
C349 N347 1.400 . S
C349 C350 1.351 . S
C349 H366 0.930 . S
C350 N346 1.389 . S
C350 C349 1.351 . S
C350 H355 0.930 . S
O351 Cu345 1.974 . S
O351 C361 1.282 . S
C352 O353 1.261 . S
C352 O365 1.251 . S
O353 C352 1.261 . S
H354 C348 0.930 . S
H355 C350 0.930 . S
N356 Cu345 1.985 . S
N356 C358 1.335 . S
N356 C359 1.390 . S
N357 C358 1.345 . S
N357 C360 1.336 . S
C358 N356 1.335 . S
C358 N357 1.345 . S
C358 H363 0.930 . S
C359 N356 1.390 . S
C359 C360 1.346 . S
C359 H364 0.930 . S
C360 N357 1.336 . S
C360 C359 1.346 . S
C360 H367 0.929 . S
C361 O351 1.282 . S
C361 O362 1.216 . S
O362 C361 1.216 . S
H363 C358 0.930 . S
H364 C359 0.930 . S
O365 Cu345 1.959 . S
O365 C352 1.251 . S
H366 C349 0.930 . S
H367 C360 0.929 . S
Cu368 N369 1.999 . S
Cu368 O374 1.974 . S
Cu368 N379 1.985 . S
Cu368 O388 1.959 . S
N369 Cu368 1.999 . S
N369 C371 1.263 . S
N369 C373 1.389 . S
N370 C371 1.358 . S
N370 C372 1.400 . S
C371 N369 1.263 . S
C371 N370 1.358 . S
C371 H377 0.930 . S
C372 N370 1.400 . S
C372 C373 1.351 . S
C372 H389 0.930 . S
C373 N369 1.389 . S
C373 C372 1.351 . S
C373 H378 0.930 . S
O374 Cu368 1.974 . S
O374 C384 1.282 . S
C375 O376 1.261 . S
C375 O388 1.251 . S
O376 C375 1.261 . S
H377 C371 0.930 . S
H378 C373 0.930 . S
N379 Cu368 1.985 . S
N379 C381 1.335 . S
N379 C382 1.390 . S
N380 C381 1.345 . S
N380 C383 1.336 . S
C381 N379 1.335 . S
C381 N380 1.345 . S
C381 H386 0.930 . S
C382 N379 1.390 . S
C382 C383 1.346 . S
C382 H387 0.930 . S
C383 N380 1.336 . S
C383 C382 1.346 . S
C383 H390 0.929 . S
C384 O374 1.282 . S
C384 O385 1.216 . S
O385 C384 1.216 . S
H386 C381 0.930 . S
H387 C382 0.930 . S
O388 Cu368 1.959 . S
O388 C375 1.251 . S
H389 C372 0.930 . S
H390 C383 0.929 . S
Cu391 N392 1.999 . S
Cu391 O397 1.974 . S
Cu391 N402 1.985 . S
Cu391 O411 1.959 . S
N392 Cu391 1.999 . S
N392 C394 1.263 . S
N392 C396 1.389 . S
N393 C394 1.358 . S
N393 C395 1.400 . S
C394 N392 1.263 . S
C394 N393 1.358 . S
C394 H400 0.930 . S
C395 N393 1.400 . S
C395 C396 1.351 . S
C395 H412 0.930 . S
C396 N392 1.389 . S
C396 C395 1.351 . S
C396 H401 0.930 . S
O397 Cu391 1.974 . S
O397 C407 1.282 . S
C398 O399 1.261 . S
C398 O411 1.251 . S
O399 C398 1.261 . S
H400 C394 0.930 . S
H401 C396 0.930 . S
N402 Cu391 1.985 . S
N402 C404 1.335 . S
N402 C405 1.390 . S
N403 C404 1.345 . S
N403 C406 1.336 . S
C404 N402 1.335 . S
C404 N403 1.345 . S
C404 H409 0.930 . S
C405 N402 1.390 . S
C405 C406 1.346 . S
C405 H410 0.930 . S
C406 N403 1.336 . S
C406 C405 1.346 . S
C406 H413 0.929 . S
C407 O397 1.282 . S
C407 O408 1.216 . S
O408 C407 1.216 . S
H409 C404 0.930 . S
H410 C405 0.930 . S
O411 Cu391 1.959 . S
O411 C398 1.251 . S
H412 C395 0.930 . S
H413 C406 0.929 . S
Cu414 N415 1.999 . S
Cu414 O420 1.974 . S
Cu414 N425 1.985 . S
Cu414 O434 1.959 . S
N415 Cu414 1.999 . S
N415 C417 1.263 . S
N415 C419 1.389 . S
N416 C417 1.358 . S
N416 C418 1.400 . S
C417 N415 1.263 . S
C417 N416 1.358 . S
C417 H423 0.930 . S
C418 N416 1.400 . S
C418 C419 1.351 . S
C418 H435 0.930 . S
C419 N415 1.389 . S
C419 C418 1.351 . S
C419 H424 0.930 . S
O420 Cu414 1.974 . S
O420 C430 1.282 . S
C421 O422 1.261 . S
C421 O434 1.251 . S
O422 C421 1.261 . S
H423 C417 0.930 . S
H424 C419 0.930 . S
N425 Cu414 1.985 . S
N425 C427 1.335 . S
N425 C428 1.390 . S
N426 C427 1.345 . S
N426 C429 1.336 . S
C427 N425 1.335 . S
C427 N426 1.345 . S
C427 H432 0.930 . S
C428 N425 1.390 . S
C428 C429 1.346 . S
C428 H433 0.930 . S
C429 N426 1.336 . S
C429 C428 1.346 . S
C429 H436 0.929 . S
C430 O420 1.282 . S
C430 O431 1.216 . S
O431 C430 1.216 . S
H432 C427 0.930 . S
H433 C428 0.930 . S
O434 Cu414 1.959 . S
O434 C421 1.251 . S
H435 C418 0.930 . S
H436 C429 0.929 . S
Cu437 N438 1.999 . S
Cu437 O443 1.974 . S
Cu437 N448 1.985 . S
Cu437 O457 1.959 . S
N438 Cu437 1.999 . S
N438 C440 1.263 . S
N438 C442 1.389 . S
N439 C440 1.358 . S
N439 C441 1.400 . S
C440 N438 1.263 . S
C440 N439 1.358 . S
C440 H446 0.930 . S
C441 N439 1.400 . S
C441 C442 1.351 . S
C441 H458 0.930 . S
C442 N438 1.389 . S
C442 C441 1.351 . S
C442 H447 0.930 . S
O443 Cu437 1.974 . S
O443 C453 1.282 . S
C444 O445 1.261 . S
C444 O457 1.251 . S
O445 C444 1.261 . S
H446 C440 0.930 . S
H447 C442 0.930 . S
N448 Cu437 1.985 . S
N448 C450 1.335 . S
N448 C451 1.390 . S
N449 C450 1.345 . S
N449 C452 1.336 . S
C450 N448 1.335 . S
C450 N449 1.345 . S
C450 H455 0.930 . S
C451 N448 1.390 . S
C451 C452 1.346 . S
C451 H456 0.930 . S
C452 N449 1.336 . S
C452 C451 1.346 . S
C452 H459 0.929 . S
C453 O443 1.282 . S
C453 O454 1.216 . S
O454 C453 1.216 . S
H455 C450 0.930 . S
H456 C451 0.930 . S
O457 Cu437 1.959 . S
O457 C444 1.251 . S
H458 C441 0.930 . S
H459 C452 0.929 . S
Cu460 N461 1.999 . S
Cu460 O466 1.974 . S
Cu460 N471 1.985 . S
Cu460 O480 1.959 . S
N461 Cu460 1.999 . S
N461 C463 1.263 . S
N461 C465 1.389 . S
N462 C463 1.358 . S
N462 C464 1.400 . S
C463 N461 1.263 . S
C463 N462 1.358 . S
C463 H469 0.930 . S
C464 N462 1.400 . S
C464 C465 1.351 . S
C464 H481 0.930 . S
C465 N461 1.389 . S
C465 C464 1.351 . S
C465 H470 0.930 . S
O466 Cu460 1.974 . S
O466 C476 1.282 . S
C467 O468 1.261 . S
C467 O480 1.251 . S
O468 C467 1.261 . S
H469 C463 0.930 . S
H470 C465 0.930 . S
N471 Cu460 1.985 . S
N471 C473 1.335 . S
N471 C474 1.390 . S
N472 C473 1.345 . S
N472 C475 1.336 . S
C473 N471 1.335 . S
C473 N472 1.345 . S
C473 H478 0.930 . S
C474 N471 1.390 . S
C474 C475 1.346 . S
C474 H479 0.930 . S
C475 N472 1.336 . S
C475 C474 1.346 . S
C475 H482 0.929 . S
C476 O466 1.282 . S
C476 O477 1.216 . S
O477 C476 1.216 . S
H478 C473 0.930 . S
H479 C474 0.930 . S
O480 Cu460 1.959 . S
O480 C467 1.251 . S
H481 C464 0.930 . S
H482 C475 0.929 . S
Cu483 N484 1.999 . S
Cu483 O489 1.974 . S
Cu483 N494 1.985 . S
Cu483 O503 1.959 . S
N484 Cu483 1.999 . S
N484 C486 1.263 . S
N484 C488 1.389 . S
N485 C486 1.358 . S
N485 C487 1.400 . S
C486 N484 1.263 . S
C486 N485 1.358 . S
C486 H492 0.930 . S
C487 N485 1.400 . S
C487 C488 1.351 . S
C487 H504 0.930 1_556 S
C488 N484 1.389 . S
C488 C487 1.351 . S
C488 H493 0.930 . S
O489 Cu483 1.974 . S
O489 C499 1.282 . S
C490 O491 1.261 . S
C490 O503 1.251 . S
O491 C490 1.261 . S
H492 C486 0.930 . S
H493 C488 0.930 . S
N494 Cu483 1.985 . S
N494 C496 1.335 . S
N494 C497 1.390 . S
N495 C496 1.345 . S
N495 C498 1.336 . S
C496 N494 1.335 . S
C496 N495 1.345 . S
C496 H501 0.930 . S
C497 N494 1.390 . S
C497 C498 1.346 . S
C497 H502 0.930 . S
C498 N495 1.336 . S
C498 C497 1.346 . S
C498 H505 0.929 . S
C499 O489 1.282 . S
C499 O500 1.216 . S
O500 C499 1.216 . S
H501 C496 0.930 . S
H502 C497 0.930 . S
O503 Cu483 1.959 . S
O503 C490 1.251 . S
H504 C487 0.930 1_554 S
H505 C498 0.929 . S
Cu506 N507 1.999 . S
Cu506 O512 1.974 . S
Cu506 N517 1.985 . S
Cu506 O526 1.959 . S
N507 Cu506 1.999 . S
N507 C509 1.263 . S
N507 C511 1.389 . S
N508 C509 1.358 . S
N508 C510 1.400 1_556 S
C509 N507 1.263 . S
C509 N508 1.358 . S
C509 H515 0.930 . S
C510 N508 1.400 1_554 S
C510 C511 1.351 1_554 S
C510 H527 0.930 . S
C511 N507 1.389 . S
C511 C510 1.351 1_556 S
C511 H516 0.930 . S
O512 Cu506 1.974 . S
O512 C522 1.282 . S
C513 O514 1.261 . S
C513 O526 1.251 . S
O514 C513 1.261 . S
H515 C509 0.930 . S
H516 C511 0.930 . S
N517 Cu506 1.985 . S
N517 C519 1.335 . S
N517 C520 1.390 . S
N518 C519 1.345 . S
N518 C521 1.336 . S
C519 N517 1.335 . S
C519 N518 1.345 . S
C519 H524 0.930 . S
C520 N517 1.390 . S
C520 C521 1.346 . S
C520 H525 0.930 . S
C521 N518 1.336 . S
C521 C520 1.346 . S
C521 H528 0.929 . S
C522 O512 1.282 . S
C522 O523 1.216 . S
O523 C522 1.216 . S
H524 C519 0.930 . S
H525 C520 0.930 . S
O526 Cu506 1.959 . S
O526 C513 1.251 . S
H527 C510 0.930 . S
H528 C521 0.929 . S
Cu529 N530 1.999 . S
Cu529 O535 1.974 . S
Cu529 N540 1.985 . S
Cu529 O549 1.959 . S
N530 Cu529 1.999 . S
N530 C532 1.263 . S
N530 C534 1.389 . S
N531 C532 1.358 . S
N531 C533 1.400 . S
C532 N530 1.263 . S
C532 N531 1.358 . S
C532 H538 0.930 . S
C533 N531 1.400 . S
C533 C534 1.351 . S
C533 H550 0.932 1_556 S
C534 N530 1.389 . S
C534 C533 1.351 . S
C534 H539 0.930 . S
O535 Cu529 1.974 . S
O535 C545 1.282 . S
C536 O537 1.261 . S
C536 O549 1.251 . S
O537 C536 1.261 . S
H538 C532 0.930 . S
H539 C534 0.930 . S
N540 Cu529 1.985 . S
N540 C542 1.335 . S
N540 C543 1.390 . S
N541 C542 1.345 . S
N541 C544 1.336 . S
C542 N540 1.335 . S
C542 N541 1.345 . S
C542 H547 0.930 . S
C543 N540 1.390 . S
C543 C544 1.346 . S
C543 H548 0.930 . S
C544 N541 1.336 . S
C544 C543 1.346 . S
C544 H551 0.929 . S
C545 O535 1.282 . S
C545 O546 1.216 . S
O546 C545 1.216 . S
H547 C542 0.930 . S
H548 C543 0.930 . S
O549 Cu529 1.959 . S
O549 C536 1.251 . S
H550 C533 0.932 1_554 S
H551 C544 0.929 . S
Cu552 N553 1.999 . S
Cu552 O558 1.974 . S
Cu552 N563 1.985 . S
Cu552 O572 1.959 . S
N553 Cu552 1.999 . S
N553 C555 1.263 . S
N553 C557 1.389 . S
N554 C555 1.358 . S
N554 C556 1.400 . S
C555 N553 1.263 . S
C555 N554 1.358 . S
C555 H561 0.930 . S
C556 N554 1.400 . S
C556 C557 1.351 . S
C556 H573 0.930 . S
C557 N553 1.389 . S
C557 C556 1.351 . S
C557 H562 0.930 . S
O558 Cu552 1.974 . S
O558 C568 1.282 . S
C559 O560 1.261 . S
C559 O572 1.251 . S
O560 C559 1.261 . S
H561 C555 0.930 . S
H562 C557 0.930 . S
N563 Cu552 1.985 . S
N563 C565 1.335 . S
N563 C566 1.390 . S
N564 C565 1.345 . S
N564 C567 1.336 . S
C565 N563 1.335 . S
C565 N564 1.345 . S
C565 H570 0.930 . S
C566 N563 1.390 . S
C566 C567 1.346 . S
C566 H571 0.930 . S
C567 N564 1.336 . S
C567 C566 1.346 . S
C567 H574 0.929 . S
C568 O558 1.282 . S
C568 O569 1.216 . S
O569 C568 1.216 . S
H570 C565 0.930 . S
H571 C566 0.930 . S
O572 Cu552 1.959 . S
O572 C559 1.251 . S
H573 C556 0.930 . S
H574 C567 0.929 . S
Cu575 N576 1.999 . S
Cu575 O581 1.974 . S
Cu575 N586 1.985 . S
Cu575 O595 1.959 . S
N576 Cu575 1.999 . S
N576 C578 1.263 . S
N576 C580 1.389 . S
N577 C578 1.358 . S
N577 C579 1.400 . S
C578 N576 1.263 . S
C578 N577 1.358 . S
C578 H584 0.930 . S
C579 N577 1.400 . S
C579 C580 1.351 . S
C579 H596 0.930 . S
C580 N576 1.389 . S
C580 C579 1.351 . S
C580 H585 0.930 . S
O581 Cu575 1.974 . S
O581 C591 1.282 . S
C582 O583 1.261 . S
C582 O595 1.251 . S
O583 C582 1.261 . S
H584 C578 0.930 . S
H585 C580 0.930 . S
N586 Cu575 1.985 . S
N586 C588 1.335 . S
N586 C589 1.390 . S
N587 C588 1.345 . S
N587 C590 1.336 . S
C588 N586 1.335 . S
C588 N587 1.345 . S
C588 H593 0.930 . S
C589 N586 1.390 . S
C589 C590 1.346 . S
C589 H594 0.930 . S
C590 N587 1.336 . S
C590 C589 1.346 . S
C590 H597 0.929 . S
C591 O581 1.282 . S
C591 O592 1.216 . S
O592 C591 1.216 . S
H593 C588 0.930 . S
H594 C589 0.930 . S
O595 Cu575 1.959 . S
O595 C582 1.251 . S
H596 C579 0.930 . S
H597 C590 0.929 . S
Cu598 N599 1.999 . S
Cu598 O604 1.974 . S
Cu598 N609 1.985 . S
Cu598 O618 1.959 . S
N599 Cu598 1.999 . S
N599 C601 1.263 . S
N599 C603 1.389 . S
N600 C601 1.358 . S
N600 C602 1.400 . S
C601 N599 1.263 . S
C601 N600 1.358 . S
C601 H607 0.930 . S
C602 N600 1.400 . S
C602 C603 1.351 . S
C602 H619 0.930 . S
C603 N599 1.389 . S
C603 C602 1.351 . S
C603 H608 0.930 . S
O604 Cu598 1.974 . S
O604 C614 1.282 . S
C605 O606 1.261 . S
C605 O618 1.251 . S
O606 C605 1.261 . S
H607 C601 0.930 . S
H608 C603 0.930 . S
N609 Cu598 1.985 . S
N609 C611 1.335 . S
N609 C612 1.390 . S
N610 C611 1.345 . S
N610 C613 1.336 . S
C611 N609 1.335 . S
C611 N610 1.345 . S
C611 H616 0.930 . S
C612 N609 1.390 . S
C612 C613 1.346 . S
C612 H617 0.930 . S
C613 N610 1.336 . S
C613 C612 1.346 . S
C613 H620 0.929 . S
C614 O604 1.282 . S
C614 O615 1.216 . S
O615 C614 1.216 . S
H616 C611 0.930 . S
H617 C612 0.930 . S
O618 Cu598 1.959 . S
O618 C605 1.251 . S
H619 C602 0.930 . S
H620 C613 0.929 . S
Cu621 N622 1.999 . S
Cu621 O627 1.974 . S
Cu621 N632 1.985 . S
Cu621 O641 1.959 . S
N622 Cu621 1.999 . S
N622 C624 1.263 . S
N622 C626 1.389 . S
N623 C624 1.358 . S
N623 C625 1.400 . S
C624 N622 1.263 . S
C624 N623 1.358 . S
C624 H630 0.930 . S
C625 N623 1.400 . S
C625 C626 1.351 . S
C625 H642 0.930 . S
C626 N622 1.389 . S
C626 C625 1.351 . S
C626 H631 0.930 . S
O627 Cu621 1.974 . S
O627 C637 1.282 . S
C628 O629 1.261 . S
C628 O641 1.251 . S
O629 C628 1.261 . S
H630 C624 0.930 . S
H631 C626 0.930 . S
N632 Cu621 1.985 . S
N632 C634 1.335 . S
N632 C635 1.390 . S
N633 C634 1.345 . S
N633 C636 1.336 . S
C634 N632 1.335 . S
C634 N633 1.345 . S
C634 H639 0.930 . S
C635 N632 1.390 . S
C635 C636 1.346 . S
C635 H640 0.930 . S
C636 N633 1.336 . S
C636 C635 1.346 . S
C636 H643 0.929 . S
C637 O627 1.282 . S
C637 O638 1.216 . S
O638 C637 1.216 . S
H639 C634 0.930 . S
H640 C635 0.930 . S
O641 Cu621 1.959 . S
O641 C628 1.251 . S
H642 C625 0.930 . S
H643 C636 0.929 . S
Cu644 N645 1.999 . S
Cu644 O650 1.974 . S
Cu644 N655 1.985 . S
Cu644 O664 1.959 . S
N645 Cu644 1.999 . S
N645 C647 1.263 . S
N645 C649 1.389 . S
N646 C647 1.358 . S
N646 C648 1.400 . S
C647 N645 1.263 . S
C647 N646 1.358 . S
C647 H653 0.930 . S
C648 N646 1.400 . S
C648 C649 1.351 . S
C648 H665 0.930 . S
C649 N645 1.389 . S
C649 C648 1.351 . S
C649 H654 0.930 . S
O650 Cu644 1.974 . S
O650 C660 1.282 . S
C651 O652 1.261 . S
C651 O664 1.251 . S
O652 C651 1.261 . S
H653 C647 0.930 . S
H654 C649 0.930 . S
N655 Cu644 1.985 . S
N655 C657 1.335 . S
N655 C658 1.390 . S
N656 C657 1.345 . S
N656 C659 1.336 . S
C657 N655 1.335 . S
C657 N656 1.345 . S
C657 H662 0.930 . S
C658 N655 1.390 . S
C658 C659 1.346 . S
C658 H663 0.930 . S
C659 N656 1.336 . S
C659 C658 1.346 . S
C659 H666 0.929 . S
C660 O650 1.282 . S
C660 O661 1.216 . S
O661 C660 1.216 . S
H662 C657 0.930 . S
H663 C658 0.930 . S
O664 Cu644 1.959 . S
O664 C651 1.251 . S
H665 C648 0.930 . S
H666 C659 0.929 . S
Cu667 N668 1.999 . S
Cu667 O673 1.974 . S
Cu667 N678 1.985 . S
Cu667 O687 1.959 . S
N668 Cu667 1.999 . S
N668 C670 1.263 . S
N668 C672 1.389 . S
N669 C670 1.358 . S
N669 C671 1.400 . S
C670 N668 1.263 . S
C670 N669 1.358 . S
C670 H676 0.930 . S
C671 N669 1.400 . S
C671 C672 1.351 . S
C671 H688 0.930 . S
C672 N668 1.389 . S
C672 C671 1.351 . S
C672 H677 0.930 . S
O673 Cu667 1.974 . S
O673 C683 1.282 . S
C674 O675 1.261 . S
C674 O687 1.251 . S
O675 C674 1.261 . S
H676 C670 0.930 . S
H677 C672 0.930 . S
N678 Cu667 1.985 . S
N678 C680 1.335 . S
N678 C681 1.390 . S
N679 C680 1.345 . S
N679 C682 1.336 . S
C680 N678 1.335 . S
C680 N679 1.345 . S
C680 H685 0.930 . S
C681 N678 1.390 . S
C681 C682 1.346 . S
C681 H686 0.930 . S
C682 N679 1.336 . S
C682 C681 1.346 . S
C682 H689 0.929 . S
C683 O673 1.282 . S
C683 O684 1.216 . S
O684 C683 1.216 . S
H685 C680 0.930 . S
H686 C681 0.930 . S
O687 Cu667 1.959 . S
O687 C674 1.251 . S
H688 C671 0.930 . S
H689 C682 0.929 . S
Cu690 N691 1.999 . S
Cu690 O696 1.974 . S
Cu690 N701 1.985 . S
Cu690 O710 1.959 . S
N691 Cu690 1.999 . S
N691 C693 1.263 . S
N691 C695 1.389 . S
N692 C693 1.358 . S
N692 C694 1.400 . S
C693 N691 1.263 . S
C693 N692 1.358 . S
C693 H699 0.930 . S
C694 N692 1.400 . S
C694 C695 1.351 . S
C694 H711 0.930 . S
C695 N691 1.389 . S
C695 C694 1.351 . S
C695 H700 0.930 . S
O696 Cu690 1.974 . S
O696 C706 1.282 . S
C697 O698 1.261 . S
C697 O710 1.251 . S
O698 C697 1.261 . S
H699 C693 0.930 . S
H700 C695 0.930 . S
N701 Cu690 1.985 . S
N701 C703 1.335 . S
N701 C704 1.390 . S
N702 C703 1.345 . S
N702 C705 1.336 . S
C703 N701 1.335 . S
C703 N702 1.345 . S
C703 H708 0.930 . S
C704 N701 1.390 . S
C704 C705 1.346 . S
C704 H709 0.930 . S
C705 N702 1.336 . S
C705 C704 1.346 . S
C705 H712 0.929 . S
C706 O696 1.282 . S
C706 O707 1.216 . S
O707 C706 1.216 . S
H708 C703 0.930 . S
H709 C704 0.930 . S
O710 Cu690 1.959 . S
O710 C697 1.251 . S
H711 C694 0.930 . S
H712 C705 0.929 . S
Cu713 N714 1.999 . S
Cu713 O719 1.974 . S
Cu713 N724 1.985 . S
Cu713 O733 1.959 . S
N714 Cu713 1.999 . S
N714 C716 1.263 . S
N714 C718 1.389 . S
N715 C716 1.358 . S
N715 C717 1.400 . S
C716 N714 1.263 . S
C716 N715 1.358 . S
C716 H722 0.930 . S
C717 N715 1.400 . S
C717 C718 1.351 . S
C717 H734 0.930 . S
C718 N714 1.389 . S
C718 C717 1.351 . S
C718 H723 0.930 . S
O719 Cu713 1.974 . S
O719 C729 1.282 . S
C720 O721 1.261 . S
C720 O733 1.251 . S
O721 C720 1.261 . S
H722 C716 0.930 . S
H723 C718 0.930 . S
N724 Cu713 1.985 . S
N724 C726 1.335 . S
N724 C727 1.390 . S
N725 C726 1.345 . S
N725 C728 1.336 . S
C726 N724 1.335 . S
C726 N725 1.345 . S
C726 H731 0.930 . S
C727 N724 1.390 . S
C727 C728 1.346 . S
C727 H732 0.930 . S
C728 N725 1.336 . S
C728 C727 1.346 . S
C728 H735 0.929 . S
C729 O719 1.282 . S
C729 O730 1.216 . S
O730 C729 1.216 . S
H731 C726 0.930 . S
H732 C727 0.930 . S
O733 Cu713 1.959 . S
O733 C720 1.251 . S
H734 C717 0.930 . S
H735 C728 0.929 . S
Cu736 N737 1.999 . S
Cu736 O742 1.974 . S
Cu736 N747 1.985 . S
Cu736 O756 1.959 . S
N737 Cu736 1.999 . S
N737 C739 1.263 . S
N737 C741 1.389 . S
N738 C739 1.358 . S
N738 C740 1.400 . S
C739 N737 1.263 . S
C739 N738 1.358 . S
C739 H745 0.930 . S
C740 N738 1.400 . S
C740 C741 1.351 . S
C740 H757 0.930 . S
C741 N737 1.389 . S
C741 C740 1.351 . S
C741 H746 0.930 . S
O742 Cu736 1.974 . S
O742 C752 1.282 . S
C743 O744 1.261 . S
C743 O756 1.251 . S
O744 C743 1.261 . S
H745 C739 0.930 . S
H746 C741 0.930 . S
N747 Cu736 1.985 . S
N747 C749 1.335 . S
N747 C750 1.390 . S
N748 C749 1.345 . S
N748 C751 1.336 . S
C749 N747 1.335 . S
C749 N748 1.345 . S
C749 H754 0.930 . S
C750 N747 1.390 . S
C750 C751 1.346 . S
C750 H755 0.930 . S
C751 N748 1.336 . S
C751 C750 1.346 . S
C751 H758 0.929 . S
C752 O742 1.282 . S
C752 O753 1.216 . S
O753 C752 1.216 . S
H754 C749 0.930 . S
H755 C750 0.930 . S
O756 Cu736 1.959 . S
O756 C743 1.251 . S
H757 C740 0.930 . S
H758 C751 0.929 . S
Cu759 N760 1.999 . S
Cu759 O765 1.974 . S
Cu759 N770 1.985 . S
Cu759 O779 1.959 . S
N760 Cu759 1.999 . S
N760 C762 1.263 . S
N760 C764 1.389 . S
N761 C762 1.358 . S
N761 C763 1.400 . S
C762 N760 1.263 . S
C762 N761 1.358 . S
C762 H768 0.930 . S
C763 N761 1.400 . S
C763 C764 1.351 . S
C763 H780 0.930 . S
C764 N760 1.389 . S
C764 C763 1.351 . S
C764 H769 0.930 . S
O765 Cu759 1.974 . S
O765 C775 1.282 . S
C766 O767 1.261 . S
C766 O779 1.251 . S
O767 C766 1.261 . S
H768 C762 0.930 . S
H769 C764 0.930 . S
N770 Cu759 1.985 . S
N770 C772 1.335 . S
N770 C773 1.390 . S
N771 C772 1.345 . S
N771 C774 1.336 . S
C772 N770 1.335 . S
C772 N771 1.345 . S
C772 H777 0.930 . S
C773 N770 1.390 . S
C773 C774 1.346 . S
C773 H778 0.930 . S
C774 N771 1.336 . S
C774 C773 1.346 . S
C774 H781 0.929 . S
C775 O765 1.282 . S
C775 O776 1.216 . S
O776 C775 1.216 . S
H777 C772 0.930 . S
H778 C773 0.930 . S
O779 Cu759 1.959 . S
O779 C766 1.251 . S
H780 C763 0.930 . S
H781 C774 0.929 . S
Cu782 N783 1.999 . S
Cu782 O788 1.974 . S
Cu782 N793 1.985 . S
Cu782 O802 1.959 . S
N783 Cu782 1.999 . S
N783 C785 1.263 . S
N783 C787 1.389 . S
N784 C785 1.358 . S
N784 C786 1.400 . S
C785 N783 1.263 . S
C785 N784 1.358 . S
C785 H791 0.930 . S
C786 N784 1.400 . S
C786 C787 1.351 . S
C786 H803 0.930 . S
C787 N783 1.389 . S
C787 C786 1.351 . S
C787 H792 0.930 . S
O788 Cu782 1.974 . S
O788 C798 1.282 . S
C789 O790 1.261 . S
C789 O802 1.251 . S
O790 C789 1.261 . S
H791 C785 0.930 . S
H792 C787 0.930 . S
N793 Cu782 1.985 . S
N793 C795 1.335 . S
N793 C796 1.390 . S
N794 C795 1.345 . S
N794 C797 1.336 . S
C795 N793 1.335 . S
C795 N794 1.345 . S
C795 H800 0.930 . S
C796 N793 1.390 . S
C796 C797 1.346 . S
C796 H801 0.930 . S
C797 N794 1.336 . S
C797 C796 1.346 . S
C797 H804 0.929 . S
C798 O788 1.282 . S
C798 O799 1.216 . S
O799 C798 1.216 . S
H800 C795 0.930 . S
H801 C796 0.930 . S
O802 Cu782 1.959 . S
O802 C789 1.251 . S
H803 C786 0.930 . S
H804 C797 0.929 . S
Cu805 N806 1.999 . S
Cu805 O811 1.974 . S
Cu805 N816 1.985 . S
Cu805 O825 1.959 . S
N806 Cu805 1.999 . S
N806 C808 1.263 . S
N806 C810 1.389 . S
N807 C808 1.358 . S
N807 C809 1.400 . S
C808 N806 1.263 . S
C808 N807 1.358 . S
C808 H814 0.930 . S
C809 N807 1.400 . S
C809 C810 1.351 . S
C809 H826 0.930 . S
C810 N806 1.389 . S
C810 C809 1.351 . S
C810 H815 0.930 . S
O811 Cu805 1.974 . S
O811 C821 1.282 . S
C812 O813 1.261 . S
C812 O825 1.251 . S
O813 C812 1.261 . S
H814 C808 0.930 . S
H815 C810 0.930 . S
N816 Cu805 1.985 . S
N816 C818 1.335 . S
N816 C819 1.390 . S
N817 C818 1.345 . S
N817 C820 1.336 . S
C818 N816 1.335 . S
C818 N817 1.345 . S
C818 H823 0.930 . S
C819 N816 1.390 . S
C819 C820 1.346 . S
C819 H824 0.930 . S
C820 N817 1.336 . S
C820 C819 1.346 . S
C820 H827 0.929 . S
C821 O811 1.282 . S
C821 O822 1.216 . S
O822 C821 1.216 . S
H823 C818 0.930 . S
H824 C819 0.930 . S
O825 Cu805 1.959 . S
O825 C812 1.251 . S
H826 C809 0.930 . S
H827 C820 0.929 . S
H828 C834 0.930 . S
H829 C837 0.930 . S
H830 C838 0.930 . S
H831 C839 0.930 . S
H832 C842 0.930 . S
H833 C843 0.930 . S
C834 H828 0.930 . S
C834 C835 1.355 . S
C834 C836 1.415 . S
C835 C834 1.355 . S
C835 C837 1.419 . S
C836 C834 1.415 . S
C836 C841 1.425 . S
C836 C843 1.409 . S
C837 H829 0.930 . S
C837 C835 1.419 . S
C837 C838 1.362 . S
C838 H830 0.930 . S
C838 C837 1.362 . S
C838 C841 1.409 . S
C839 H831 0.930 . S
C839 C840 1.355 . S
C839 C841 1.415 . S
C840 C839 1.355 . S
C840 C842 1.419 . S
C841 C836 1.425 . S
C841 C838 1.409 . S
C841 C839 1.415 . S
C842 H832 0.930 . S
C842 C840 1.419 . S
C842 C843 1.362 . S
C843 H833 0.930 . S
C843 C836 1.409 . S
C843 C842 1.362 . S
H844 C850 0.930 . S
H845 C853 0.930 . S
H846 C854 0.930 . S
H847 C855 0.930 . S
H848 C858 0.930 . S
H849 C859 0.930 . S
C850 H844 0.930 . S
C850 C851 1.355 . S
C850 C852 1.415 . S
C851 C850 1.355 . S
C851 C853 1.419 . S
C852 C850 1.415 . S
C852 C857 1.425 . S
C852 C859 1.409 . S
C853 H845 0.930 . S
C853 C851 1.419 . S
C853 C854 1.362 . S
C854 H846 0.930 . S
C854 C853 1.362 . S
C854 C857 1.409 . S
C855 H847 0.930 . S
C855 C856 1.355 . S
C855 C857 1.415 . S
C856 C855 1.355 . S
C856 C858 1.419 . S
C857 C852 1.425 . S
C857 C854 1.409 . S
C857 C855 1.415 . S
C858 H848 0.930 . S
C858 C856 1.419 . S
C858 C859 1.362 . S
C859 H849 0.930 . S
C859 C852 1.409 . S
C859 C858 1.362 . S
H860 C866 0.930 . S
H861 C869 0.930 . S
H862 C870 0.930 . S
H863 C871 0.930 . S
H864 C874 0.930 . S
H865 C875 0.930 . S
C866 H860 0.930 . S
C866 C867 1.355 . S
C866 C868 1.415 . S
C867 C866 1.355 . S
C867 C869 1.419 . S
C868 C866 1.415 . S
C868 C873 1.425 . S
C868 C875 1.409 . S
C869 H861 0.930 . S
C869 C867 1.419 . S
C869 C870 1.362 . S
C870 H862 0.930 . S
C870 C869 1.362 . S
C870 C873 1.409 . S
C871 H863 0.930 . S
C871 C872 1.355 . S
C871 C873 1.415 . S
C872 C871 1.355 . S
C872 C874 1.419 . S
C873 C868 1.425 . S
C873 C870 1.409 . S
C873 C871 1.415 . S
C874 H864 0.930 . S
C874 C872 1.419 . S
C874 C875 1.362 . S
C875 H865 0.930 . S
C875 C868 1.409 . S
C875 C874 1.362 . S
H876 C882 0.930 . S
H877 C885 0.930 . S
H878 C886 0.930 . S
H879 C887 0.930 . S
H880 C890 0.930 . S
H881 C891 0.930 . S
C882 H876 0.930 . S
C882 C883 1.355 . S
C882 C884 1.415 . S
C883 C882 1.355 . S
C883 C885 1.419 . S
C884 C882 1.415 . S
C884 C889 1.425 . S
C884 C891 1.409 . S
C885 H877 0.930 . S
C885 C883 1.419 . S
C885 C886 1.362 . S
C886 H878 0.930 . S
C886 C885 1.362 . S
C886 C889 1.409 . S
C887 H879 0.930 . S
C887 C888 1.355 . S
C887 C889 1.415 . S
C888 C887 1.355 . S
C888 C890 1.419 . S
C889 C884 1.425 . S
C889 C886 1.409 . S
C889 C887 1.415 . S
C890 H880 0.930 . S
C890 C888 1.419 . S
C890 C891 1.362 . S
C891 H881 0.930 . S
C891 C884 1.409 . S
C891 C890 1.362 . S
H892 C898 0.930 . S
H893 C901 0.930 . S
H894 C902 0.930 . S
H895 C903 0.930 . S
H896 C906 0.930 . S
H897 C907 0.930 . S
C898 H892 0.930 . S
C898 C899 1.355 . S
C898 C900 1.415 . S
C899 C898 1.355 . S
C899 C901 1.419 . S
C900 C898 1.415 . S
C900 C905 1.425 . S
C900 C907 1.409 . S
C901 H893 0.930 . S
C901 C899 1.419 . S
C901 C902 1.362 . S
C902 H894 0.930 . S
C902 C901 1.362 . S
C902 C905 1.409 . S
C903 H895 0.930 . S
C903 C904 1.355 . S
C903 C905 1.415 . S
C904 C903 1.355 . S
C904 C906 1.419 . S
C905 C900 1.425 . S
C905 C902 1.409 . S
C905 C903 1.415 . S
C906 H896 0.930 . S
C906 C904 1.419 . S
C906 C907 1.362 . S
C907 H897 0.930 . S
C907 C900 1.409 . S
C907 C906 1.362 . S
H908 C914 0.930 . S
H909 C917 0.930 . S
H910 C918 0.930 . S
H911 C919 0.930 . S
H912 C922 0.930 . S
H913 C923 0.930 . S
C914 H908 0.930 . S
C914 C915 1.355 . S
C914 C916 1.415 . S
C915 C914 1.355 . S
C915 C917 1.419 . S
C916 C914 1.415 . S
C916 C921 1.425 . S
C916 C923 1.409 . S
C917 H909 0.930 . S
C917 C915 1.419 . S
C917 C918 1.362 . S
C918 H910 0.930 . S
C918 C917 1.362 . S
C918 C921 1.409 . S
C919 H911 0.930 . S
C919 C920 1.355 . S
C919 C921 1.415 . S
C920 C919 1.355 . S
C920 C922 1.419 . S
C921 C916 1.425 . S
C921 C918 1.409 . S
C921 C919 1.415 . S
C922 H912 0.930 . S
C922 C920 1.419 . S
C922 C923 1.362 . S
C923 H913 0.930 . S
C923 C916 1.409 . S
C923 C922 1.362 . S
H924 C930 0.930 . S
H925 C933 0.930 . S
H926 C934 0.930 . S
H927 C935 0.930 . S
H928 C938 0.930 . S
H929 C939 0.930 . S
C930 H924 0.930 . S
C930 C931 1.355 . S
C930 C932 1.415 . S
C931 C930 1.355 . S
C931 C933 1.419 . S
C932 C930 1.415 . S
C932 C937 1.425 . S
C932 C939 1.409 . S
C933 H925 0.930 . S
C933 C931 1.419 . S
C933 C934 1.362 . S
C934 H926 0.930 . S
C934 C933 1.362 . S
C934 C937 1.409 . S
C935 H927 0.930 . S
C935 C936 1.355 . S
C935 C937 1.415 . S
C936 C935 1.355 . S
C936 C938 1.419 . S
C937 C932 1.425 . S
C937 C934 1.409 . S
C937 C935 1.415 . S
C938 H928 0.930 . S
C938 C936 1.419 . S
C938 C939 1.362 . S
C939 H929 0.930 . S
C939 C932 1.409 . S
C939 C938 1.362 . S
H940 C946 0.930 . S
H941 C949 0.930 . S
H942 C950 0.930 . S
H943 C951 0.930 . S
H944 C954 0.930 . S
H945 C955 0.930 . S
C946 H940 0.930 . S
C946 C947 1.355 . S
C946 C948 1.415 . S
C947 C946 1.355 . S
C947 C949 1.419 . S
C948 C946 1.415 . S
C948 C953 1.425 . S
C948 C955 1.409 . S
C949 H941 0.930 . S
C949 C947 1.419 . S
C949 C950 1.362 . S
C950 H942 0.930 . S
C950 C949 1.362 . S
C950 C953 1.409 . S
C951 H943 0.930 . S
C951 C952 1.355 . S
C951 C953 1.415 . S
C952 C951 1.355 . S
C952 C954 1.419 . S
C953 C948 1.425 . S
C953 C950 1.409 . S
C953 C951 1.415 . S
C954 H944 0.930 . S
C954 C952 1.419 . S
C954 C955 1.362 . S
C955 H945 0.930 . S
C955 C948 1.409 . S
C955 C954 1.362 . S
H956 C962 0.930 . S
H957 C965 0.930 . S
H958 C966 0.930 . S
H959 C967 0.930 . S
H960 C970 0.930 . S
H961 C971 0.930 . S
C962 H956 0.930 . S
C962 C963 1.355 . S
C962 C964 1.415 . S
C963 C962 1.355 . S
C963 C965 1.419 . S
C964 C962 1.415 . S
C964 C969 1.425 . S
C964 C971 1.409 . S
C965 H957 0.930 . S
C965 C963 1.419 . S
C965 C966 1.362 . S
C966 H958 0.930 . S
C966 C965 1.362 . S
C966 C969 1.409 . S
C967 H959 0.930 . S
C967 C968 1.355 . S
C967 C969 1.415 . S
C968 C967 1.355 . S
C968 C970 1.419 . S
C969 C964 1.425 . S
C969 C966 1.409 . S
C969 C967 1.415 . S
C970 H960 0.930 . S
C970 C968 1.419 . S
C970 C971 1.362 . S
C971 H961 0.930 . S
C971 C964 1.409 . S
C971 C970 1.362 . S
H972 C978 0.930 . S
H973 C981 0.930 . S
H974 C982 0.930 . S
H975 C983 0.930 . S
H976 C986 0.930 . S
H977 C987 0.930 . S
C978 H972 0.930 . S
C978 C979 1.355 . S
C978 C980 1.415 . S
C979 C978 1.355 . S
C979 C981 1.419 . S
C980 C978 1.415 . S
C980 C985 1.425 . S
C980 C987 1.409 . S
C981 H973 0.930 . S
C981 C979 1.419 . S
C981 C982 1.362 . S
C982 H974 0.930 . S
C982 C981 1.362 . S
C982 C985 1.409 . S
C983 H975 0.930 . S
C983 C984 1.355 . S
C983 C985 1.415 . S
C984 C983 1.355 . S
C984 C986 1.419 . S
C985 C980 1.425 . S
C985 C982 1.409 . S
C985 C983 1.415 . S
C986 H976 0.930 . S
C986 C984 1.419 . S
C986 C987 1.362 . S
C987 H977 0.930 . S
C987 C980 1.409 . S
C987 C986 1.362 . S
H988 C994 0.930 . S
H989 C997 0.930 . S
H990 C998 0.930 . S
H991 C999 0.930 . S
H992 C1002 0.930 . S
H993 C1003 0.930 . S
C994 H988 0.930 . S
C994 C995 1.355 . S
C994 C996 1.415 . S
C995 C994 1.355 . S
C995 C997 1.419 . S
C996 C994 1.415 . S
C996 C1001 1.425 . S
C996 C1003 1.409 . S
C997 H989 0.930 . S
C997 C995 1.419 . S
C997 C998 1.362 . S
C998 H990 0.930 . S
C998 C997 1.362 . S
C998 C1001 1.409 . S
C999 H991 0.930 . S
C999 C1000 1.355 . S
C999 C1001 1.415 . S
C1000 C999 1.355 . S
C1000 C1002 1.419 . S
C1001 C996 1.425 . S
C1001 C998 1.409 . S
C1001 C999 1.415 . S
C1002 H992 0.930 . S
C1002 C1000 1.419 . S
C1002 C1003 1.362 . S
C1003 H993 0.930 . S
C1003 C996 1.409 . S
C1003 C1002 1.362 . S
H1004 C1010 0.930 . S
H1005 C1013 0.930 . S
H1006 C1014 0.930 . S
H1007 C1015 0.930 . S
H1008 C1018 0.930 . S
H1009 C1019 0.930 . S
C1010 H1004 0.930 . S
C1010 C1011 1.355 . S
C1010 C1012 1.415 . S
C1011 C1010 1.355 . S
C1011 C1013 1.419 . S
C1012 C1010 1.415 . S
C1012 C1017 1.425 . S
C1012 C1019 1.409 . S
C1013 H1005 0.930 . S
C1013 C1011 1.419 . S
C1013 C1014 1.362 . S
C1014 H1006 0.930 . S
C1014 C1013 1.362 . S
C1014 C1017 1.409 . S
C1015 H1007 0.930 . S
C1015 C1016 1.355 . S
C1015 C1017 1.415 . S
C1016 C1015 1.355 . S
C1016 C1018 1.419 . S
C1017 C1012 1.425 . S
C1017 C1014 1.409 . S
C1017 C1015 1.415 . S
C1018 H1008 0.930 . S
C1018 C1016 1.419 . S
C1018 C1019 1.362 . S
C1019 H1009 0.930 . S
C1019 C1012 1.409 . S
C1019 C1018 1.362 . S
H1020 C1026 0.930 . S
H1021 C1029 0.930 . S
H1022 C1030 0.930 . S
H1023 C1031 0.930 . S
H1024 C1034 0.930 . S
H1025 C1035 0.930 . S
C1026 H1020 0.930 . S
C1026 C1027 1.355 . S
C1026 C1028 1.415 . S
C1027 C1026 1.355 . S
C1027 C1029 1.419 1_655 S
C1028 C1026 1.415 . S
C1028 C1033 1.425 1_655 S
C1028 C1035 1.409 . S
C1029 H1021 0.930 . S
C1029 C1027 1.419 1_455 S
C1029 C1030 1.362 . S
C1030 H1022 0.930 . S
C1030 C1029 1.362 . S
C1030 C1033 1.409 . S
C1031 H1023 0.930 . S
C1031 C1032 1.355 . S
C1031 C1033 1.415 . S
C1032 C1031 1.355 . S
C1032 C1034 1.419 1_455 S
C1033 C1028 1.425 1_455 S
C1033 C1030 1.409 . S
C1033 C1031 1.415 . S
C1034 H1024 0.930 . S
C1034 C1032 1.419 1_655 S
C1034 C1035 1.362 . S
C1035 H1025 0.930 . S
C1035 C1028 1.409 . S
C1035 C1034 1.362 . S
H1036 C1042 0.930 . S
H1037 C1045 0.930 . S
H1038 C1046 0.930 . S
H1039 C1047 0.930 . S
H1040 C1050 0.930 . S
H1041 C1051 0.930 . S
C1042 H1036 0.930 . S
C1042 C1043 1.355 . S
C1042 C1044 1.415 . S
C1043 C1042 1.355 . S
C1043 C1045 1.419 . S
C1044 C1042 1.415 . S
C1044 C1049 1.425 . S
C1044 C1051 1.409 . S
C1045 H1037 0.930 . S
C1045 C1043 1.419 . S
C1045 C1046 1.362 . S
C1046 H1038 0.930 . S
C1046 C1045 1.362 . S
C1046 C1049 1.409 . S
C1047 H1039 0.930 . S
C1047 C1048 1.355 . S
C1047 C1049 1.415 . S
C1048 C1047 1.355 . S
C1048 C1050 1.419 . S
C1049 C1044 1.425 . S
C1049 C1046 1.409 . S
C1049 C1047 1.415 . S
C1050 H1040 0.930 . S
C1050 C1048 1.419 . S
C1050 C1051 1.362 . S
C1051 H1041 0.930 . S
C1051 C1044 1.409 . S
C1051 C1050 1.362 . S
H1052 C1058 0.930 . S
H1053 C1061 0.930 . S
H1054 C1062 0.930 . S
H1055 C1063 0.940 . S
H1056 C1066 0.930 . S
H1057 C1067 0.930 . S
C1058 H1052 0.930 . S
C1058 C1059 1.355 . S
C1058 C1060 1.415 . S
C1059 C1058 1.355 . S
C1059 C1061 1.419 . S
C1060 C1058 1.415 . S
C1060 C1065 1.425 . S
C1060 C1067 1.409 1_545 S
C1061 H1053 0.930 . S
C1061 C1059 1.419 . S
C1061 C1062 1.362 . S
C1062 H1054 0.930 . S
C1062 C1061 1.362 . S
C1062 C1065 1.409 . S
C1063 H1055 0.940 . S
C1063 C1064 1.343 1_545 S
C1063 C1065 1.417 . S
C1064 C1063 1.343 1_565 S
C1064 C1066 1.419 . S
C1065 C1060 1.425 . S
C1065 C1062 1.409 . S
C1065 C1063 1.417 . S
C1066 H1056 0.930 . S
C1066 C1064 1.419 . S
C1066 C1067 1.362 . S
C1067 H1057 0.930 . S
C1067 C1060 1.409 1_565 S
C1067 C1066 1.362 . S
H1068 C1074 0.930 . S
H1069 C1077 0.930 . S
H1070 C1078 0.906 . S
H1071 C1079 0.930 . S
H1072 C1082 0.930 . S
H1073 C1083 0.930 . S
C1074 H1068 0.930 . S
C1074 C1075 1.355 1_554 S
C1074 C1076 1.415 1_545 S
C1075 C1074 1.355 1_556 S
C1075 C1077 1.419 . S
C1076 C1074 1.415 1_565 S
C1076 C1081 1.425 . S
C1076 C1083 1.409 . S
C1077 H1069 0.930 . S
C1077 C1075 1.419 . S
C1077 C1078 1.365 1_545 S
C1078 H1070 0.906 . S
C1078 C1077 1.365 1_565 S
C1078 C1081 1.408 1_556 S
C1079 H1071 0.930 . S
C1079 C1080 1.355 . S
C1079 C1081 1.415 . S
C1080 C1079 1.355 . S
C1080 C1082 1.419 . S
C1081 C1076 1.425 . S
C1081 C1078 1.408 1_554 S
C1081 C1079 1.415 . S
C1082 H1072 0.930 . S
C1082 C1080 1.419 . S
C1082 C1083 1.362 . S
C1083 H1073 0.930 . S
C1083 C1076 1.409 . S
C1083 C1082 1.362 . S
H1084 C1090 0.930 . S
H1085 C1093 0.930 1_556 S
H1086 C1094 0.930 . S
H1087 C1095 0.930 . S
H1088 C1098 0.930 . S
H1089 C1099 0.930 . S
C1090 H1084 0.930 . S
C1090 C1091 1.355 1_455 S
C1090 C1092 1.415 1_556 S
C1091 C1090 1.355 1_655 S
C1091 C1093 1.420 1_556 S
C1092 C1090 1.415 1_554 S
C1092 C1097 1.425 . S
C1092 C1099 1.409 . S
C1093 H1085 0.930 1_554 S
C1093 C1091 1.420 1_554 S
C1093 C1094 1.361 . S
C1094 H1086 0.930 . S
C1094 C1093 1.361 . S
C1094 C1097 1.409 1_655 S
C1095 H1087 0.930 . S
C1095 C1096 1.355 . S
C1095 C1097 1.415 . S
C1096 C1095 1.355 . S
C1096 C1098 1.419 . S
C1097 C1092 1.425 . S
C1097 C1094 1.409 1_455 S
C1097 C1095 1.415 . S
C1098 H1088 0.930 . S
C1098 C1096 1.419 . S
C1098 C1099 1.362 . S
C1099 H1089 0.930 . S
C1099 C1092 1.409 . S
C1099 C1098 1.362 . S
H1100 C1106 0.930 . S
H1101 C1109 0.930 . S
H1102 C1110 0.930 . S
H1103 C1111 0.930 . S
H1104 C1114 0.930 . S
H1105 C1115 0.930 . S
C1106 H1100 0.930 . S
C1106 C1107 1.355 . S
C1106 C1108 1.415 . S
C1107 C1106 1.355 . S
C1107 C1109 1.419 1_556 S
C1108 C1106 1.415 . S
C1108 C1113 1.425 1_556 S
C1108 C1115 1.409 . S
C1109 H1101 0.930 . S
C1109 C1107 1.419 1_554 S
C1109 C1110 1.362 . S
C1110 H1102 0.930 . S
C1110 C1109 1.362 . S
C1110 C1113 1.409 . S
C1111 H1103 0.930 . S
C1111 C1112 1.355 . S
C1111 C1113 1.415 . S
C1112 C1111 1.355 . S
C1112 C1114 1.419 . S
C1113 C1108 1.425 1_554 S
C1113 C1110 1.409 . S
C1113 C1111 1.415 . S
C1114 H1104 0.930 . S
C1114 C1112 1.419 . S
C1114 C1115 1.362 1_554 S
C1115 H1105 0.930 . S
C1115 C1108 1.409 . S
C1115 C1114 1.362 1_556 S
H1116 C1122 0.930 . S
H1117 C1125 0.930 . S
H1118 C1126 0.930 . S
H1119 C1127 0.930 . S
H1120 C1130 0.930 . S
H1121 C1131 0.930 . S
C1122 H1116 0.930 . S
C1122 C1123 1.355 . S
C1122 C1124 1.415 . S
C1123 C1122 1.355 . S
C1123 C1125 1.419 . S
C1124 C1122 1.415 . S
C1124 C1129 1.425 . S
C1124 C1131 1.409 1_556 S
C1125 H1117 0.930 . S
C1125 C1123 1.419 . S
C1125 C1126 1.362 . S
C1126 H1118 0.930 . S
C1126 C1125 1.362 . S
C1126 C1129 1.409 . S
C1127 H1119 0.930 . S
C1127 C1128 1.355 1_556 S
C1127 C1129 1.415 . S
C1128 C1127 1.355 1_554 S
C1128 C1130 1.419 . S
C1129 C1124 1.425 . S
C1129 C1126 1.409 . S
C1129 C1127 1.415 . S
C1130 H1120 0.930 . S
C1130 C1128 1.419 . S
C1130 C1131 1.362 . S
C1131 H1121 0.930 . S
C1131 C1124 1.409 1_554 S
C1131 C1130 1.362 . S
H1132 C1138 0.930 . S
H1133 C1141 0.930 . S
H1134 C1142 0.930 . S
H1135 C1143 0.930 . S
H1136 C1146 0.930 . S
H1137 C1147 0.930 . S
C1138 H1132 0.930 . S
C1138 C1139 1.355 . S
C1138 C1140 1.415 . S
C1139 C1138 1.355 . S
C1139 C1141 1.419 1_556 S
C1140 C1138 1.415 . S
C1140 C1145 1.425 1_556 S
C1140 C1147 1.409 . S
C1141 H1133 0.930 . S
C1141 C1139 1.419 1_554 S
C1141 C1142 1.362 . S
C1142 H1134 0.930 . S
C1142 C1141 1.362 . S
C1142 C1145 1.409 . S
C1143 H1135 0.930 . S
C1143 C1144 1.355 . S
C1143 C1145 1.415 . S
C1144 C1143 1.355 . S
C1144 C1146 1.419 1_554 S
C1145 C1140 1.425 1_554 S
C1145 C1142 1.409 . S
C1145 C1143 1.415 . S
C1146 H1136 0.930 . S
C1146 C1144 1.419 1_556 S
C1146 C1147 1.362 . S
C1147 H1137 0.930 . S
C1147 C1140 1.409 . S
C1147 C1146 1.362 . S
H1148 C1154 0.930 1_556 S
H1149 C1157 0.930 . S
H1150 C1158 0.930 . S
H1151 C1159 0.930 . S
H1152 C1162 0.930 . S
H1153 C1163 0.930 . S
C1154 H1148 0.930 1_554 S
C1154 C1155 1.355 . S
C1154 C1156 1.415 1_554 S
C1155 C1154 1.355 . S
C1155 C1157 1.419 . S
C1156 C1154 1.415 1_556 S
C1156 C1161 1.425 1_556 S
C1156 C1163 1.409 . S
C1157 H1149 0.930 . S
C1157 C1155 1.419 . S
C1157 C1158 1.362 . S
C1158 H1150 0.930 . S
C1158 C1157 1.362 . S
C1158 C1161 1.409 . S
C1159 H1151 0.930 . S
C1159 C1160 1.355 1_554 S
C1159 C1161 1.415 . S
C1160 C1159 1.355 1_556 S
C1160 C1162 1.419 . S
C1161 C1156 1.425 1_554 S
C1161 C1158 1.409 . S
C1161 C1159 1.415 . S
C1162 H1152 0.930 . S
C1162 C1160 1.419 . S
C1162 C1163 1.362 . S
C1163 H1153 0.930 . S
C1163 C1156 1.409 . S
C1163 C1162 1.362 . S
H1164 C1170 0.930 . S
H1165 C1173 0.930 . S
H1166 C1174 0.930 . S
H1167 C1175 0.930 . S
H1168 C1178 0.930 . S
H1169 C1179 0.930 . S
C1170 H1164 0.930 . S
C1170 C1171 1.355 . S
C1170 C1172 1.415 . S
C1171 C1170 1.355 . S
C1171 C1173 1.419 . S
C1172 C1170 1.415 . S
C1172 C1177 1.425 . S
C1172 C1179 1.409 . S
C1173 H1165 0.930 . S
C1173 C1171 1.419 . S
C1173 C1174 1.362 . S
C1174 H1166 0.930 . S
C1174 C1173 1.362 . S
C1174 C1177 1.409 . S
C1175 H1167 0.930 . S
C1175 C1176 1.355 . S
C1175 C1177 1.415 . S
C1176 C1175 1.355 . S
C1176 C1178 1.419 . S
C1177 C1172 1.425 . S
C1177 C1174 1.409 . S
C1177 C1175 1.415 . S
C1178 H1168 0.930 . S
C1178 C1176 1.419 . S
C1178 C1179 1.362 . S
C1179 H1169 0.930 . S
C1179 C1172 1.409 . S
C1179 C1178 1.362 . S
H1180 C1186 0.930 . S
H1181 C1189 0.930 . S
H1182 C1190 0.930 . S
H1183 C1191 0.930 . S
H1184 C1194 0.930 . S
H1185 C1195 0.930 . S
C1186 H1180 0.930 . S
C1186 C1187 1.355 . S
C1186 C1188 1.415 . S
C1187 C1186 1.355 . S
C1187 C1189 1.419 . S
C1188 C1186 1.415 . S
C1188 C1193 1.425 . S
C1188 C1195 1.409 . S
C1189 H1181 0.930 . S
C1189 C1187 1.419 . S
C1189 C1190 1.362 . S
C1190 H1182 0.930 . S
C1190 C1189 1.362 . S
C1190 C1193 1.409 . S
C1191 H1183 0.930 . S
C1191 C1192 1.355 . S
C1191 C1193 1.415 . S
C1192 C1191 1.355 . S
C1192 C1194 1.419 . S
C1193 C1188 1.425 . S
C1193 C1190 1.409 . S
C1193 C1191 1.415 . S
C1194 H1184 0.930 . S
C1194 C1192 1.419 . S
C1194 C1195 1.362 . S
C1195 H1185 0.930 . S
C1195 C1188 1.409 . S
C1195 C1194 1.362 . S
H1196 C1202 0.930 . S
H1197 C1205 0.930 . S
H1198 C1206 0.930 . S
H1199 C1207 0.930 . S
H1200 C1210 0.930 . S
H1201 C1211 0.930 . S
C1202 H1196 0.930 . S
C1202 C1203 1.355 . S
C1202 C1204 1.415 . S
C1203 C1202 1.355 . S
C1203 C1205 1.419 . S
C1204 C1202 1.415 . S
C1204 C1209 1.425 . S
C1204 C1211 1.409 . S
C1205 H1197 0.930 . S
C1205 C1203 1.419 . S
C1205 C1206 1.362 . S
C1206 H1198 0.930 . S
C1206 C1205 1.362 . S
C1206 C1209 1.409 . S
C1207 H1199 0.930 . S
C1207 C1208 1.355 . S
C1207 C1209 1.415 . S
C1208 C1207 1.355 . S
C1208 C1210 1.419 . S
C1209 C1204 1.425 . S
C1209 C1206 1.409 . S
C1209 C1207 1.415 . S
C1210 H1200 0.930 . S
C1210 C1208 1.419 . S
C1210 C1211 1.362 . S
C1211 H1201 0.930 . S
C1211 C1204 1.409 . S
C1211 C1210 1.362 . S
H1212 C1218 0.930 . S
H1213 C1221 0.930 . S
H1214 C1222 0.930 . S
H1215 C1223 0.930 1_556 S
H1216 C1226 0.930 . S
H1217 C1227 0.930 . S
C1218 H1212 0.930 . S
C1218 C1219 1.355 1_554 S
C1218 C1220 1.415 . S
C1219 C1218 1.355 1_556 S
C1219 C1221 1.419 . S
C1220 C1218 1.415 . S
C1220 C1225 1.425 1_554 S
C1220 C1227 1.409 . S
C1221 H1213 0.930 . S
C1221 C1219 1.419 . S
C1221 C1222 1.362 . S
C1222 H1214 0.930 . S
C1222 C1221 1.362 . S
C1222 C1225 1.409 . S
C1223 H1215 0.930 1_554 S
C1223 C1224 1.355 . S
C1223 C1225 1.415 1_554 S
C1224 C1223 1.355 . S
C1224 C1226 1.419 . S
C1225 C1220 1.425 1_556 S
C1225 C1222 1.409 . S
C1225 C1223 1.415 1_556 S
C1226 H1216 0.930 . S
C1226 C1224 1.419 . S
C1226 C1227 1.362 . S
C1227 H1217 0.930 . S
C1227 C1220 1.409 . S
C1227 C1226 1.362 . S
H1228 C1234 0.930 . S
H1229 C1237 0.930 . S
H1230 C1238 0.930 . S
H1231 C1239 0.930 . S
H1232 C1242 0.930 . S
H1233 C1243 0.930 . S
C1234 H1228 0.930 . S
C1234 C1235 1.355 . S
C1234 C1236 1.415 . S
C1235 C1234 1.355 . S
C1235 C1237 1.419 . S
C1236 C1234 1.415 . S
C1236 C1241 1.425 . S
C1236 C1243 1.409 . S
C1237 H1229 0.930 . S
C1237 C1235 1.419 . S
C1237 C1238 1.362 . S
C1238 H1230 0.930 . S
C1238 C1237 1.362 . S
C1238 C1241 1.409 . S
C1239 H1231 0.930 . S
C1239 C1240 1.355 1_556 S
C1239 C1241 1.415 . S
C1240 C1239 1.355 1_554 S
C1240 C1242 1.419 . S
C1241 C1236 1.425 . S
C1241 C1238 1.409 . S
C1241 C1239 1.415 . S
C1242 H1232 0.930 . S
C1242 C1240 1.419 . S
C1242 C1243 1.362 1_554 S
C1243 H1233 0.930 . S
C1243 C1236 1.409 . S
C1243 C1242 1.362 1_556 S
H1244 C1250 0.930 . S
H1245 C1253 0.930 . S
H1246 C1254 0.930 . S
H1247 C1255 0.930 1_554 S
H1248 C1258 0.930 . S
H1249 C1259 0.930 . S
C1250 H1244 0.930 . S
C1250 C1251 1.355 . S
C1250 C1252 1.415 . S
C1251 C1250 1.355 . S
C1251 C1253 1.419 . S
C1252 C1250 1.415 . S
C1252 C1257 1.425 . S
C1252 C1259 1.409 . S
C1253 H1245 0.930 . S
C1253 C1251 1.419 . S
C1253 C1254 1.362 . S
C1254 H1246 0.930 . S
C1254 C1253 1.362 . S
C1254 C1257 1.409 . S
C1255 H1247 0.930 1_556 S
C1255 C1256 1.355 . S
C1255 C1257 1.415 . S
C1256 C1255 1.355 . S
C1256 C1258 1.419 . S
C1257 C1252 1.425 . S
C1257 C1254 1.409 . S
C1257 C1255 1.415 . S
C1258 H1248 0.930 . S
C1258 C1256 1.419 . S
C1258 C1259 1.362 . S
C1259 H1249 0.930 . S
C1259 C1252 1.409 . S
C1259 C1258 1.362 . S
H1260 C1266 0.930 . S
H1261 C1269 0.930 . S
H1262 C1270 0.930 . S
H1263 C1271 0.930 . S
H1264 C1274 0.930 . S
H1265 C1275 0.930 . S
C1266 H1260 0.930 . S
C1266 C1267 1.355 . S
C1266 C1268 1.415 . S
C1267 C1266 1.355 . S
C1267 C1269 1.419 . S
C1268 C1266 1.415 . S
C1268 C1273 1.425 . S
C1268 C1275 1.409 . S
C1269 H1261 0.930 . S
C1269 C1267 1.419 . S
C1269 C1270 1.362 . S
C1270 H1262 0.930 . S
C1270 C1269 1.362 . S
C1270 C1273 1.409 . S
C1271 H1263 0.930 . S
C1271 C1272 1.355 . S
C1271 C1273 1.415 . S
C1272 C1271 1.355 . S
C1272 C1274 1.419 . S
C1273 C1268 1.425 . S
C1273 C1270 1.409 . S
C1273 C1271 1.415 . S
C1274 H1264 0.930 . S
C1274 C1272 1.419 . S
C1274 C1275 1.362 . S
C1275 H1265 0.930 . S
C1275 C1268 1.409 . S
C1275 C1274 1.362 . S
H1276 C1282 0.930 . S
H1277 C1285 0.930 . S
H1278 C1286 0.930 . S
H1279 C1287 0.930 . S
H1280 C1290 0.930 . S
H1281 C1291 0.930 . S
C1282 H1276 0.930 . S
C1282 C1283 1.355 . S
C1282 C1284 1.415 . S
C1283 C1282 1.355 . S
C1283 C1285 1.419 . S
C1284 C1282 1.415 . S
C1284 C1289 1.425 . S
C1284 C1291 1.409 . S
C1285 H1277 0.930 . S
C1285 C1283 1.419 . S
C1285 C1286 1.362 . S
C1286 H1278 0.930 . S
C1286 C1285 1.362 . S
C1286 C1289 1.409 . S
C1287 H1279 0.930 . S
C1287 C1288 1.355 . S
C1287 C1289 1.415 . S
C1288 C1287 1.355 . S
C1288 C1290 1.419 . S
C1289 C1284 1.425 . S
C1289 C1286 1.409 . S
C1289 C1287 1.415 . S
C1290 H1280 0.930 . S
C1290 C1288 1.419 . S
C1290 C1291 1.362 . S
C1291 H1281 0.930 . S
C1291 C1284 1.409 . S
C1291 C1290 1.362 . S
H1292 C1298 0.930 . S
H1293 C1301 0.930 . S
H1294 C1302 0.930 . S
H1295 C1303 0.930 . S
H1296 C1306 0.930 . S
H1297 C1307 0.930 . S
C1298 H1292 0.930 . S
C1298 C1299 1.355 . S
C1298 C1300 1.415 . S
C1299 C1298 1.355 . S
C1299 C1301 1.419 . S
C1300 C1298 1.415 . S
C1300 C1305 1.425 . S
C1300 C1307 1.409 . S
C1301 H1293 0.930 . S
C1301 C1299 1.419 . S
C1301 C1302 1.362 . S
C1302 H1294 0.930 . S
C1302 C1301 1.362 . S
C1302 C1305 1.409 . S
C1303 H1295 0.930 . S
C1303 C1304 1.355 . S
C1303 C1305 1.415 . S
C1304 C1303 1.355 . S
C1304 C1306 1.419 . S
C1305 C1300 1.425 . S
C1305 C1302 1.409 . S
C1305 C1303 1.415 . S
C1306 H1296 0.930 . S
C1306 C1304 1.419 . S
C1306 C1307 1.362 . S
C1307 H1297 0.930 . S
C1307 C1300 1.409 . S
C1307 C1306 1.362 . S
H1308 C1314 0.930 . S
H1309 C1317 0.930 . S
H1310 C1318 0.930 . S
H1311 C1319 0.930 . S
H1312 C1322 0.930 . S
H1313 C1323 0.930 . S
C1314 H1308 0.930 . S
C1314 C1315 1.355 . S
C1314 C1316 1.415 . S
C1315 C1314 1.355 . S
C1315 C1317 1.419 . S
C1316 C1314 1.415 . S
C1316 C1321 1.425 . S
C1316 C1323 1.409 . S
C1317 H1309 0.930 . S
C1317 C1315 1.419 . S
C1317 C1318 1.362 . S
C1318 H1310 0.930 . S
C1318 C1317 1.362 . S
C1318 C1321 1.409 . S
C1319 H1311 0.930 . S
C1319 C1320 1.355 . S
C1319 C1321 1.415 . S
C1320 C1319 1.355 . S
C1320 C1322 1.419 . S
C1321 C1316 1.425 . S
C1321 C1318 1.409 . S
C1321 C1319 1.415 . S
C1322 H1312 0.930 . S
C1322 C1320 1.419 . S
C1322 C1323 1.362 . S
C1323 H1313 0.930 . S
C1323 C1316 1.409 . S
C1323 C1322 1.362 . S
H1324 C1330 0.930 . S
H1325 C1333 0.930 . S
H1326 C1334 0.930 . S
H1327 C1335 0.930 . S
H1328 C1338 0.930 . S
H1329 C1339 0.930 . S
C1330 H1324 0.930 . S
C1330 C1331 1.355 . S
C1330 C1332 1.415 . S
C1331 C1330 1.355 . S
C1331 C1333 1.419 . S
C1332 C1330 1.415 . S
C1332 C1337 1.425 . S
C1332 C1339 1.409 . S
C1333 H1325 0.930 . S
C1333 C1331 1.419 . S
C1333 C1334 1.362 . S
C1334 H1326 0.930 . S
C1334 C1333 1.362 . S
C1334 C1337 1.409 . S
C1335 H1327 0.930 . S
C1335 C1336 1.355 . S
C1335 C1337 1.415 . S
C1336 C1335 1.355 . S
C1336 C1338 1.419 . S
C1337 C1332 1.425 . S
C1337 C1334 1.409 . S
C1337 C1335 1.415 . S
C1338 H1328 0.930 . S
C1338 C1336 1.419 . S
C1338 C1339 1.362 . S
C1339 H1329 0.930 . S
C1339 C1332 1.409 . S
C1339 C1338 1.362 . S
H1340 C1346 0.930 . S
H1341 C1349 0.930 . S
H1342 C1350 0.930 . S
H1343 C1351 0.930 . S
H1344 C1354 0.930 . S
H1345 C1355 0.930 . S
C1346 H1340 0.930 . S
C1346 C1347 1.355 . S
C1346 C1348 1.415 . S
C1347 C1346 1.355 . S
C1347 C1349 1.419 . S
C1348 C1346 1.415 . S
C1348 C1353 1.425 . S
C1348 C1355 1.409 . S
C1349 H1341 0.930 . S
C1349 C1347 1.419 . S
C1349 C1350 1.362 . S
C1350 H1342 0.930 . S
C1350 C1349 1.362 . S
C1350 C1353 1.409 . S
C1351 H1343 0.930 . S
C1351 C1352 1.355 . S
C1351 C1353 1.415 . S
C1352 C1351 1.355 . S
C1352 C1354 1.419 . S
C1353 C1348 1.425 . S
C1353 C1350 1.409 . S
C1353 C1351 1.415 . S
C1354 H1344 0.930 . S
C1354 C1352 1.419 . S
C1354 C1355 1.362 . S
C1355 H1345 0.930 . S
C1355 C1348 1.409 . S
C1355 C1354 1.362 . S
H1356 C1362 0.930 . S
H1357 C1365 0.930 . S
H1358 C1366 0.930 . S
H1359 C1367 0.930 . S
H1360 C1370 0.930 . S
H1361 C1371 0.930 . S
C1362 H1356 0.930 . S
C1362 C1363 1.355 . S
C1362 C1364 1.415 . S
C1363 C1362 1.355 . S
C1363 C1365 1.419 . S
C1364 C1362 1.415 . S
C1364 C1369 1.425 . S
C1364 C1371 1.409 . S
C1365 H1357 0.930 . S
C1365 C1363 1.419 . S
C1365 C1366 1.362 . S
C1366 H1358 0.930 . S
C1366 C1365 1.362 . S
C1366 C1369 1.409 . S
C1367 H1359 0.930 . S
C1367 C1368 1.355 . S
C1367 C1369 1.415 . S
C1368 C1367 1.355 . S
C1368 C1370 1.419 . S
C1369 C1364 1.425 . S
C1369 C1366 1.409 . S
C1369 C1367 1.415 . S
C1370 H1360 0.930 . S
C1370 C1368 1.419 . S
C1370 C1371 1.362 . S
C1371 H1361 0.930 . S
C1371 C1364 1.409 . S
C1371 C1370 1.362 . S
H1372 C1378 0.930 . S
H1373 C1381 0.930 . S
H1374 C1382 0.930 . S
H1375 C1383 0.930 . S
H1376 C1386 0.930 . S
H1377 C1387 0.930 . S
C1378 H1372 0.930 . S
C1378 C1379 1.355 . S
C1378 C1380 1.415 . S
C1379 C1378 1.355 . S
C1379 C1381 1.419 . S
C1380 C1378 1.415 . S
C1380 C1385 1.425 . S
C1380 C1387 1.409 . S
C1381 H1373 0.930 . S
C1381 C1379 1.419 . S
C1381 C1382 1.362 . S
C1382 H1374 0.930 . S
C1382 C1381 1.362 . S
C1382 C1385 1.409 . S
C1383 H1375 0.930 . S
C1383 C1384 1.355 . S
C1383 C1385 1.415 . S
C1384 C1383 1.355 . S
C1384 C1386 1.419 . S
C1385 C1380 1.425 . S
C1385 C1382 1.409 . S
C1385 C1383 1.415 . S
C1386 H1376 0.930 . S
C1386 C1384 1.419 . S
C1386 C1387 1.362 . S
C1387 H1377 0.930 . S
C1387 C1380 1.409 . S
C1387 C1386 1.362 . S
H1388 C1394 0.930 . S
H1389 C1397 0.930 . S
H1390 C1398 0.930 . S
H1391 C1399 0.930 . S
H1392 C1402 0.930 . S
H1393 C1403 0.930 . S
C1394 H1388 0.930 . S
C1394 C1395 1.355 . S
C1394 C1396 1.415 . S
C1395 C1394 1.355 . S
C1395 C1397 1.419 . S
C1396 C1394 1.415 . S
C1396 C1401 1.425 . S
C1396 C1403 1.409 . S
C1397 H1389 0.930 . S
C1397 C1395 1.419 . S
C1397 C1398 1.362 . S
C1398 H1390 0.930 . S
C1398 C1397 1.362 . S
C1398 C1401 1.409 . S
C1399 H1391 0.930 . S
C1399 C1400 1.355 . S
C1399 C1401 1.415 . S
C1400 C1399 1.355 . S
C1400 C1402 1.419 . S
C1401 C1396 1.425 . S
C1401 C1398 1.409 . S
C1401 C1399 1.415 . S
C1402 H1392 0.930 . S
C1402 C1400 1.419 . S
C1402 C1403 1.362 . S
C1403 H1393 0.930 . S
C1403 C1396 1.409 . S
C1403 C1402 1.362 . S
H1404 C1410 0.930 . S
H1405 C1413 0.930 . S
H1406 C1414 0.930 . S
H1407 C1415 0.930 . S
H1408 C1418 0.930 . S
H1409 C1419 0.930 . S
C1410 H1404 0.930 . S
C1410 C1411 1.355 . S
C1410 C1412 1.415 . S
C1411 C1410 1.355 . S
C1411 C1413 1.419 . S
C1412 C1410 1.415 . S
C1412 C1417 1.425 . S
C1412 C1419 1.409 . S
C1413 H1405 0.930 . S
C1413 C1411 1.419 . S
C1413 C1414 1.362 . S
C1414 H1406 0.930 . S
C1414 C1413 1.362 . S
C1414 C1417 1.409 . S
C1415 H1407 0.930 . S
C1415 C1416 1.355 . S
C1415 C1417 1.415 . S
C1416 C1415 1.355 . S
C1416 C1418 1.419 . S
C1417 C1412 1.425 . S
C1417 C1414 1.409 . S
C1417 C1415 1.415 . S
C1418 H1408 0.930 . S
C1418 C1416 1.419 . S
C1418 C1419 1.362 . S
C1419 H1409 0.930 . S
C1419 C1412 1.409 . S
C1419 C1418 1.362 . S
H1420 C1426 0.930 . S
H1421 C1429 0.930 . S
H1422 C1430 0.930 . S
H1423 C1431 0.930 . S
H1424 C1434 0.930 . S
H1425 C1435 0.930 . S
C1426 H1420 0.930 . S
C1426 C1427 1.355 . S
C1426 C1428 1.415 . S
C1427 C1426 1.355 . S
C1427 C1429 1.419 . S
C1428 C1426 1.415 . S
C1428 C1433 1.425 . S
C1428 C1435 1.409 . S
C1429 H1421 0.930 . S
C1429 C1427 1.419 . S
C1429 C1430 1.362 . S
C1430 H1422 0.930 . S
C1430 C1429 1.362 . S
C1430 C1433 1.409 . S
C1431 H1423 0.930 . S
C1431 C1432 1.355 . S
C1431 C1433 1.415 . S
C1432 C1431 1.355 . S
C1432 C1434 1.419 . S
C1433 C1428 1.425 . S
C1433 C1430 1.409 . S
C1433 C1431 1.415 . S
C1434 H1424 0.930 . S
C1434 C1432 1.419 . S
C1434 C1435 1.362 . S
C1435 H1425 0.930 . S
C1435 C1428 1.409 . S
C1435 C1434 1.362 . S
H1436 C1442 0.930 . S
H1437 C1445 0.930 . S
H1438 C1446 0.930 . S
H1439 C1447 0.930 . S
H1440 C1450 0.930 . S
H1441 C1451 0.930 . S
C1442 H1436 0.930 . S
C1442 C1443 1.355 . S
C1442 C1444 1.415 . S
C1443 C1442 1.355 . S
C1443 C1445 1.419 . S
C1444 C1442 1.415 . S
C1444 C1449 1.425 . S
C1444 C1451 1.409 . S
C1445 H1437 0.930 . S
C1445 C1443 1.419 . S
C1445 C1446 1.362 . S
C1446 H1438 0.930 . S
C1446 C1445 1.362 . S
C1446 C1449 1.409 . S
C1447 H1439 0.930 . S
C1447 C1448 1.355 . S
C1447 C1449 1.415 . S
C1448 C1447 1.355 . S
C1448 C1450 1.419 . S
C1449 C1444 1.425 . S
C1449 C1446 1.409 . S
C1449 C1447 1.415 . S
C1450 H1440 0.930 . S
C1450 C1448 1.419 . S
C1450 C1451 1.362 . S
C1451 H1441 0.930 . S
C1451 C1444 1.409 . S
C1451 C1450 1.362 . S
H1452 C1458 0.930 . S
H1453 C1461 0.930 . S
H1454 C1462 0.930 . S
H1455 C1463 0.930 . S
H1456 C1466 0.930 . S
H1457 C1467 0.930 . S
C1458 H1452 0.930 . S
C1458 C1459 1.355 . S
C1458 C1460 1.415 . S
C1459 C1458 1.355 . S
C1459 C1461 1.419 . S
C1460 C1458 1.415 . S
C1460 C1465 1.425 . S
C1460 C1467 1.409 . S
C1461 H1453 0.930 . S
C1461 C1459 1.419 . S
C1461 C1462 1.362 . S
C1462 H1454 0.930 . S
C1462 C1461 1.362 . S
C1462 C1465 1.409 . S
C1463 H1455 0.930 . S
C1463 C1464 1.355 . S
C1463 C1465 1.415 . S
C1464 C1463 1.355 . S
C1464 C1466 1.419 . S
C1465 C1460 1.425 . S
C1465 C1462 1.409 . S
C1465 C1463 1.415 . S
C1466 H1456 0.930 . S
C1466 C1464 1.419 . S
C1466 C1467 1.362 . S
C1467 H1457 0.930 . S
C1467 C1460 1.409 . S
C1467 C1466 1.362 . S
H1468 C1474 0.930 . S
H1469 C1477 0.930 . S
H1470 C1478 0.930 . S
H1471 C1479 0.930 . S
H1472 C1482 0.930 . S
H1473 C1483 0.930 . S
C1474 H1468 0.930 . S
C1474 C1475 1.355 . S
C1474 C1476 1.415 . S
C1475 C1474 1.355 . S
C1475 C1477 1.419 . S
C1476 C1474 1.415 . S
C1476 C1481 1.425 . S
C1476 C1483 1.409 . S
C1477 H1469 0.930 . S
C1477 C1475 1.419 . S
C1477 C1478 1.362 . S
C1478 H1470 0.930 . S
C1478 C1477 1.362 . S
C1478 C1481 1.409 . S
C1479 H1471 0.930 . S
C1479 C1480 1.355 . S
C1479 C1481 1.415 . S
C1480 C1479 1.355 . S
C1480 C1482 1.419 . S
C1481 C1476 1.425 . S
C1481 C1478 1.409 . S
C1481 C1479 1.415 . S
C1482 H1472 0.930 . S
C1482 C1480 1.419 . S
C1482 C1483 1.362 . S
C1483 H1473 0.930 . S
C1483 C1476 1.409 . S
C1483 C1482 1.362 . S
H1484 C1490 0.930 . S
H1485 C1493 0.930 . S
H1486 C1494 0.930 . S
H1487 C1495 0.930 . S
H1488 C1498 0.930 . S
H1489 C1499 0.930 . S
C1490 H1484 0.930 . S
C1490 C1491 1.355 . S
C1490 C1492 1.415 . S
C1491 C1490 1.355 . S
C1491 C1493 1.419 . S
C1492 C1490 1.415 . S
C1492 C1497 1.425 . S
C1492 C1499 1.409 . S
C1493 H1485 0.930 . S
C1493 C1491 1.419 . S
C1493 C1494 1.362 . S
C1494 H1486 0.930 . S
C1494 C1493 1.362 . S
C1494 C1497 1.409 . S
C1495 H1487 0.930 . S
C1495 C1496 1.355 . S
C1495 C1497 1.415 . S
C1496 C1495 1.355 . S
C1496 C1498 1.419 . S
C1497 C1492 1.425 . S
C1497 C1494 1.409 . S
C1497 C1495 1.415 . S
C1498 H1488 0.930 . S
C1498 C1496 1.419 . S
C1498 C1499 1.362 . S
C1499 H1489 0.930 . S
C1499 C1492 1.409 . S
C1499 C1498 1.362 . S
H1500 C1506 0.930 . S
H1501 C1509 0.930 . S
H1502 C1510 0.930 . S
H1503 C1511 0.930 . S
H1504 C1514 0.930 . S
H1505 C1515 0.930 . S
C1506 H1500 0.930 . S
C1506 C1507 1.355 . S
C1506 C1508 1.415 . S
C1507 C1506 1.355 . S
C1507 C1509 1.419 . S
C1508 C1506 1.415 . S
C1508 C1513 1.425 . S
C1508 C1515 1.409 . S
C1509 H1501 0.930 . S
C1509 C1507 1.419 . S
C1509 C1510 1.362 . S
C1510 H1502 0.930 . S
C1510 C1509 1.362 . S
C1510 C1513 1.409 . S
C1511 H1503 0.930 . S
C1511 C1512 1.355 . S
C1511 C1513 1.415 . S
C1512 C1511 1.355 . S
C1512 C1514 1.419 . S
C1513 C1508 1.425 . S
C1513 C1510 1.409 . S
C1513 C1511 1.415 . S
C1514 H1504 0.930 . S
C1514 C1512 1.419 . S
C1514 C1515 1.362 . S
C1515 H1505 0.930 . S
C1515 C1508 1.409 . S
C1515 C1514 1.362 . S
H1516 C1522 0.930 . S
H1517 C1525 0.930 . S
H1518 C1526 0.930 . S
H1519 C1527 0.930 . S
H1520 C1530 0.930 . S
H1521 C1531 0.930 . S
C1522 H1516 0.930 . S
C1522 C1523 1.355 . S
C1522 C1524 1.415 . S
C1523 C1522 1.355 . S
C1523 C1525 1.419 . S
C1524 C1522 1.415 . S
C1524 C1529 1.425 . S
C1524 C1531 1.409 . S
C1525 H1517 0.930 . S
C1525 C1523 1.419 . S
C1525 C1526 1.362 . S
C1526 H1518 0.930 . S
C1526 C1525 1.362 . S
C1526 C1529 1.409 . S
C1527 H1519 0.930 . S
C1527 C1528 1.355 . S
C1527 C1529 1.415 . S
C1528 C1527 1.355 . S
C1528 C1530 1.419 . S
C1529 C1524 1.425 . S
C1529 C1526 1.409 . S
C1529 C1527 1.415 . S
C1530 H1520 0.930 . S
C1530 C1528 1.419 . S
C1530 C1531 1.362 . S
C1531 H1521 0.930 . S
C1531 C1524 1.409 . S
C1531 C1530 1.362 . S
H1532 C1538 0.930 . S
H1533 C1541 0.930 . S
H1534 C1542 0.930 . S
H1535 C1543 0.930 . S
H1536 C1546 0.930 . S
H1537 C1547 0.930 . S
C1538 H1532 0.930 . S
C1538 C1539 1.355 . S
C1538 C1540 1.415 . S
C1539 C1538 1.355 . S
C1539 C1541 1.419 . S
C1540 C1538 1.415 . S
C1540 C1545 1.425 . S
C1540 C1547 1.409 . S
C1541 H1533 0.930 . S
C1541 C1539 1.419 . S
C1541 C1542 1.362 . S
C1542 H1534 0.930 . S
C1542 C1541 1.362 . S
C1542 C1545 1.409 . S
C1543 H1535 0.930 . S
C1543 C1544 1.355 . S
C1543 C1545 1.415 . S
C1544 C1543 1.355 . S
C1544 C1546 1.419 . S
C1545 C1540 1.425 . S
C1545 C1542 1.409 . S
C1545 C1543 1.415 . S
C1546 H1536 0.930 . S
C1546 C1544 1.419 . S
C1546 C1547 1.362 . S
C1547 H1537 0.930 . S
C1547 C1540 1.409 . S
C1547 C1546 1.362 . S
H1548 C1554 0.930 . S
H1549 C1557 0.930 . S
H1550 C1558 0.930 . S
H1551 C1559 0.930 . S
H1552 C1562 0.930 . S
H1553 C1563 0.930 . S
C1554 H1548 0.930 . S
C1554 C1555 1.355 . S
C1554 C1556 1.415 . S
C1555 C1554 1.355 . S
C1555 C1557 1.419 . S
C1556 C1554 1.415 . S
C1556 C1561 1.425 . S
C1556 C1563 1.409 . S
C1557 H1549 0.930 . S
C1557 C1555 1.419 . S
C1557 C1558 1.362 . S
C1558 H1550 0.930 . S
C1558 C1557 1.362 . S
C1558 C1561 1.409 . S
C1559 H1551 0.930 . S
C1559 C1560 1.355 . S
C1559 C1561 1.415 . S
C1560 C1559 1.355 . S
C1560 C1562 1.419 . S
C1561 C1556 1.425 . S
C1561 C1558 1.409 . S
C1561 C1559 1.415 . S
C1562 H1552 0.930 . S
C1562 C1560 1.419 . S
C1562 C1563 1.362 . S
C1563 H1553 0.930 . S
C1563 C1556 1.409 . S
C1563 C1562 1.362 . S
H1564 C1570 0.930 . S
H1565 C1573 0.930 . S
H1566 C1574 0.930 . S
H1567 C1575 0.930 . S
H1568 C1578 0.930 . S
H1569 C1579 0.930 . S
C1570 H1564 0.930 . S
C1570 C1571 1.355 . S
C1570 C1572 1.415 . S
C1571 C1570 1.355 . S
C1571 C1573 1.419 . S
C1572 C1570 1.415 . S
C1572 C1577 1.425 . S
C1572 C1579 1.409 . S
C1573 H1565 0.930 . S
C1573 C1571 1.419 . S
C1573 C1574 1.362 . S
C1574 H1566 0.930 . S
C1574 C1573 1.362 . S
C1574 C1577 1.409 . S
C1575 H1567 0.930 . S
C1575 C1576 1.355 . S
C1575 C1577 1.415 . S
C1576 C1575 1.355 . S
C1576 C1578 1.419 . S
C1577 C1572 1.425 . S
C1577 C1574 1.409 . S
C1577 C1575 1.415 . S
C1578 H1568 0.930 . S
C1578 C1576 1.419 . S
C1578 C1579 1.362 . S
C1579 H1569 0.930 . S
C1579 C1572 1.409 . S
C1579 C1578 1.362 . S
H1580 C1586 0.930 . S
H1581 C1589 0.930 . S
H1582 C1590 0.930 . S
H1583 C1591 0.930 . S
H1584 C1594 0.930 . S
H1585 C1595 0.930 . S
C1586 H1580 0.930 . S
C1586 C1587 1.355 . S
C1586 C1588 1.415 . S
C1587 C1586 1.355 . S
C1587 C1589 1.419 . S
C1588 C1586 1.415 . S
C1588 C1593 1.425 . S
C1588 C1595 1.409 . S
C1589 H1581 0.930 . S
C1589 C1587 1.419 . S
C1589 C1590 1.362 . S
C1590 H1582 0.930 . S
C1590 C1589 1.362 . S
C1590 C1593 1.409 . S
C1591 H1583 0.930 . S
C1591 C1592 1.355 . S
C1591 C1593 1.415 . S
C1592 C1591 1.355 . S
C1592 C1594 1.419 . S
C1593 C1588 1.425 . S
C1593 C1590 1.409 . S
C1593 C1591 1.415 . S
C1594 H1584 0.930 . S
C1594 C1592 1.419 . S
C1594 C1595 1.362 . S
C1595 H1585 0.930 . S
C1595 C1588 1.409 . S
C1595 C1594 1.362 . S
H1596 C1602 0.930 . S
H1597 C1605 0.930 . S
H1598 C1606 0.930 . S
H1599 C1607 0.930 . S
H1600 C1610 0.930 . S
H1601 C1611 0.930 . S
C1602 H1596 0.930 . S
C1602 C1603 1.355 . S
C1602 C1604 1.415 . S
C1603 C1602 1.355 . S
C1603 C1605 1.419 . S
C1604 C1602 1.415 . S
C1604 C1609 1.425 . S
C1604 C1611 1.409 . S
C1605 H1597 0.930 . S
C1605 C1603 1.419 . S
C1605 C1606 1.362 . S
C1606 H1598 0.930 . S
C1606 C1605 1.362 . S
C1606 C1609 1.409 . S
C1607 H1599 0.930 . S
C1607 C1608 1.355 . S
C1607 C1609 1.415 . S
C1608 C1607 1.355 . S
C1608 C1610 1.419 . S
C1609 C1604 1.425 . S
C1609 C1606 1.409 . S
C1609 C1607 1.415 . S
C1610 H1600 0.930 . S
C1610 C1608 1.419 . S
C1610 C1611 1.362 . S
C1611 H1601 0.930 . S
C1611 C1604 1.409 . S
C1611 C1610 1.362 . S
H1612 C1618 0.930 . S
H1613 C1621 0.930 . S
H1614 C1622 0.930 . S
H1615 C1623 0.930 . S
H1616 C1626 0.930 . S
H1617 C1627 0.930 . S
C1618 H1612 0.930 . S
C1618 C1619 1.355 . S
C1618 C1620 1.415 . S
C1619 C1618 1.355 . S
C1619 C1621 1.419 . S
C1620 C1618 1.415 . S
C1620 C1625 1.425 . S
C1620 C1627 1.409 . S
C1621 H1613 0.930 . S
C1621 C1619 1.419 . S
C1621 C1622 1.362 . S
C1622 H1614 0.930 . S
C1622 C1621 1.362 . S
C1622 C1625 1.409 . S
C1623 H1615 0.930 . S
C1623 C1624 1.355 . S
C1623 C1625 1.415 . S
C1624 C1623 1.355 . S
C1624 C1626 1.419 . S
C1625 C1620 1.425 . S
C1625 C1622 1.409 . S
C1625 C1623 1.415 . S
C1626 H1616 0.930 . S
C1626 C1624 1.419 . S
C1626 C1627 1.362 . S
C1627 H1617 0.930 . S
C1627 C1620 1.409 . S
C1627 C1626 1.362 . S
H1628 C1634 0.930 . S
H1629 C1637 0.930 . S
H1630 C1638 0.930 . S
H1631 C1639 0.930 . S
H1632 C1642 0.930 . S
H1633 C1643 0.930 . S
C1634 H1628 0.930 . S
C1634 C1635 1.355 . S
C1634 C1636 1.415 . S
C1635 C1634 1.355 . S
C1635 C1637 1.419 . S
C1636 C1634 1.415 . S
C1636 C1641 1.425 . S
C1636 C1643 1.409 . S
C1637 H1629 0.930 . S
C1637 C1635 1.419 . S
C1637 C1638 1.362 . S
C1638 H1630 0.930 . S
C1638 C1637 1.362 . S
C1638 C1641 1.409 . S
C1639 H1631 0.930 . S
C1639 C1640 1.355 . S
C1639 C1641 1.415 . S
C1640 C1639 1.355 . S
C1640 C1642 1.419 . S
C1641 C1636 1.425 . S
C1641 C1638 1.409 . S
C1641 C1639 1.415 . S
C1642 H1632 0.930 . S
C1642 C1640 1.419 . S
C1642 C1643 1.362 . S
C1643 H1633 0.930 . S
C1643 C1636 1.409 . S
C1643 C1642 1.362 . S
H1644 C1650 0.930 . S
H1645 C1653 0.930 . S
H1646 C1654 0.930 . S
H1647 C1655 0.930 . S
H1648 C1658 0.930 . S
H1649 C1659 0.930 . S
C1650 H1644 0.930 . S
C1650 C1651 1.355 . S
C1650 C1652 1.415 . S
C1651 C1650 1.355 . S
C1651 C1653 1.419 . S
C1652 C1650 1.415 . S
C1652 C1657 1.425 . S
C1652 C1659 1.409 . S
C1653 H1645 0.930 . S
C1653 C1651 1.419 . S
C1653 C1654 1.362 . S
C1654 H1646 0.930 . S
C1654 C1653 1.362 . S
C1654 C1657 1.409 . S
C1655 H1647 0.930 . S
C1655 C1656 1.355 . S
C1655 C1657 1.415 . S
C1656 C1655 1.355 . S
C1656 C1658 1.419 . S
C1657 C1652 1.425 . S
C1657 C1654 1.409 . S
C1657 C1655 1.415 . S
C1658 H1648 0.930 . S
C1658 C1656 1.419 . S
C1658 C1659 1.362 . S
C1659 H1649 0.930 . S
C1659 C1652 1.409 . S
C1659 C1658 1.362 . S
H1660 C1666 0.930 . S
H1661 C1669 0.930 . S
H1662 C1670 0.930 . S
H1663 C1671 0.930 . S
H1664 C1674 0.930 . S
H1665 C1675 0.930 . S
C1666 H1660 0.930 . S
C1666 C1667 1.355 . S
C1666 C1668 1.415 . S
C1667 C1666 1.355 . S
C1667 C1669 1.419 . S
C1668 C1666 1.415 . S
C1668 C1673 1.425 . S
C1668 C1675 1.409 . S
C1669 H1661 0.930 . S
C1669 C1667 1.419 . S
C1669 C1670 1.362 . S
C1670 H1662 0.930 . S
C1670 C1669 1.362 . S
C1670 C1673 1.409 . S
C1671 H1663 0.930 . S
C1671 C1672 1.355 . S
C1671 C1673 1.415 . S
C1672 C1671 1.355 . S
C1672 C1674 1.419 . S
C1673 C1668 1.425 . S
C1673 C1670 1.409 . S
C1673 C1671 1.415 . S
C1674 H1664 0.930 . S
C1674 C1672 1.419 . S
C1674 C1675 1.362 . S
C1675 H1665 0.930 . S
C1675 C1668 1.409 . S
C1675 C1674 1.362 . S
H1676 C1682 0.930 . S
H1677 C1685 0.930 . S
H1678 C1686 0.930 . S
H1679 C1687 0.930 . S
H1680 C1690 0.930 . S
H1681 C1691 0.930 . S
C1682 H1676 0.930 . S
C1682 C1683 1.355 . S
C1682 C1684 1.415 . S
C1683 C1682 1.355 . S
C1683 C1685 1.419 . S
C1684 C1682 1.415 . S
C1684 C1689 1.425 . S
C1684 C1691 1.409 . S
C1685 H1677 0.930 . S
C1685 C1683 1.419 . S
C1685 C1686 1.362 . S
C1686 H1678 0.930 . S
C1686 C1685 1.362 . S
C1686 C1689 1.409 . S
C1687 H1679 0.930 . S
C1687 C1688 1.355 . S
C1687 C1689 1.415 . S
C1688 C1687 1.355 . S
C1688 C1690 1.419 . S
C1689 C1684 1.425 . S
C1689 C1686 1.409 . S
C1689 C1687 1.415 . S
C1690 H1680 0.930 . S
C1690 C1688 1.419 . S
C1690 C1691 1.362 . S
C1691 H1681 0.930 . S
C1691 C1684 1.409 . S
C1691 C1690 1.362 . S
H1692 C1698 0.930 . S
H1693 C1701 0.930 . S
H1694 C1702 0.930 . S
H1695 C1703 0.930 . S
H1696 C1706 0.930 . S
H1697 C1707 0.930 . S
C1698 H1692 0.930 . S
C1698 C1699 1.355 . S
C1698 C1700 1.415 . S
C1699 C1698 1.355 . S
C1699 C1701 1.419 . S
C1700 C1698 1.415 . S
C1700 C1705 1.425 . S
C1700 C1707 1.409 . S
C1701 H1693 0.930 . S
C1701 C1699 1.419 . S
C1701 C1702 1.362 . S
C1702 H1694 0.930 . S
C1702 C1701 1.362 . S
C1702 C1705 1.409 . S
C1703 H1695 0.930 . S
C1703 C1704 1.355 . S
C1703 C1705 1.415 . S
C1704 C1703 1.355 . S
C1704 C1706 1.419 . S
C1705 C1700 1.425 . S
C1705 C1702 1.409 . S
C1705 C1703 1.415 . S
C1706 H1696 0.930 . S
C1706 C1704 1.419 . S
C1706 C1707 1.362 . S
C1707 H1697 0.930 . S
C1707 C1700 1.409 . S
C1707 C1706 1.362 . S
H1708 C1714 0.930 . S
H1709 C1717 0.930 . S
H1710 C1718 0.930 . S
H1711 C1719 0.930 . S
H1712 C1722 0.930 . S
H1713 C1723 0.930 . S
C1714 H1708 0.930 . S
C1714 C1715 1.355 . S
C1714 C1716 1.415 . S
C1715 C1714 1.355 . S
C1715 C1717 1.419 . S
C1716 C1714 1.415 . S
C1716 C1721 1.425 . S
C1716 C1723 1.409 . S
C1717 H1709 0.930 . S
C1717 C1715 1.419 . S
C1717 C1718 1.362 . S
C1718 H1710 0.930 . S
C1718 C1717 1.362 . S
C1718 C1721 1.409 . S
C1719 H1711 0.930 . S
C1719 C1720 1.355 . S
C1719 C1721 1.415 . S
C1720 C1719 1.355 . S
C1720 C1722 1.419 . S
C1721 C1716 1.425 . S
C1721 C1718 1.409 . S
C1721 C1719 1.415 . S
C1722 H1712 0.930 . S
C1722 C1720 1.419 . S
C1722 C1723 1.362 . S
C1723 H1713 0.930 . S
C1723 C1716 1.409 . S
C1723 C1722 1.362 . S
H1724 C1730 0.930 . S
H1725 C1733 0.930 . S
H1726 C1734 0.930 . S
H1727 C1735 0.930 . S
H1728 C1738 0.930 . S
H1729 C1739 0.930 . S
C1730 H1724 0.930 . S
C1730 C1731 1.355 . S
C1730 C1732 1.415 . S
C1731 C1730 1.355 . S
C1731 C1733 1.419 1_455 S
C1732 C1730 1.415 . S
C1732 C1737 1.425 . S
C1732 C1739 1.409 . S
C1733 H1725 0.930 . S
C1733 C1731 1.419 1_655 S
C1733 C1734 1.362 . S
C1734 H1726 0.930 . S
C1734 C1733 1.362 . S
C1734 C1737 1.409 1_655 S
C1735 H1727 0.930 . S
C1735 C1736 1.355 . S
C1735 C1737 1.415 . S
C1736 C1735 1.355 . S
C1736 C1738 1.419 . S
C1737 C1732 1.425 . S
C1737 C1734 1.409 1_455 S
C1737 C1735 1.415 . S
C1738 H1728 0.930 . S
C1738 C1736 1.419 . S
C1738 C1739 1.362 . S
C1739 H1729 0.930 . S
C1739 C1732 1.409 . S
C1739 C1738 1.362 . S
H1740 C1746 0.930 . S
H1741 C1749 0.930 . S
H1742 C1750 0.930 . S
H1743 C1751 0.930 . S
H1744 C1754 0.930 . S
H1745 C1755 0.930 . S
C1746 H1740 0.930 . S
C1746 C1747 1.355 . S
C1746 C1748 1.415 . S
C1747 C1746 1.355 . S
C1747 C1749 1.419 . S
C1748 C1746 1.415 . S
C1748 C1753 1.425 . S
C1748 C1755 1.409 . S
C1749 H1741 0.930 . S
C1749 C1747 1.419 . S
C1749 C1750 1.362 . S
C1750 H1742 0.930 . S
C1750 C1749 1.362 . S
C1750 C1753 1.409 . S
C1751 H1743 0.930 . S
C1751 C1752 1.355 . S
C1751 C1753 1.415 . S
C1752 C1751 1.355 . S
C1752 C1754 1.419 . S
C1753 C1748 1.425 . S
C1753 C1750 1.409 . S
C1753 C1751 1.415 . S
C1754 H1744 0.930 . S
C1754 C1752 1.419 . S
C1754 C1755 1.362 . S
C1755 H1745 0.930 . S
C1755 C1748 1.409 . S
C1755 C1754 1.362 . S
H1756 C1762 0.930 . S
H1757 C1765 0.930 . S
H1758 C1766 0.930 . S
H1759 C1767 0.930 . S
H1760 C1770 0.930 1_565 S
H1761 C1771 0.930 1_565 S
C1762 H1756 0.930 . S
C1762 C1763 1.355 . S
C1762 C1764 1.415 . S
C1763 C1762 1.355 . S
C1763 C1765 1.419 . S
C1764 C1762 1.415 . S
C1764 C1769 1.425 . S
C1764 C1771 1.409 . S
C1765 H1757 0.930 . S
C1765 C1763 1.419 . S
C1765 C1766 1.362 . S
C1766 H1758 0.930 . S
C1766 C1765 1.362 . S
C1766 C1769 1.409 . S
C1767 H1759 0.930 . S
C1767 C1768 1.355 . S
C1767 C1769 1.415 . S
C1768 C1767 1.355 . S
C1768 C1770 1.419 . S
C1769 C1764 1.425 . S
C1769 C1766 1.409 . S
C1769 C1767 1.415 . S
C1770 H1760 0.930 1_545 S
C1770 C1768 1.419 . S
C1770 C1771 1.362 . S
C1771 H1761 0.930 1_545 S
C1771 C1764 1.409 . S
C1771 C1770 1.362 . S
H1772 C1778 0.930 . S
H1773 C1781 0.930 . S
H1774 C1782 0.930 . S
H1775 C1783 0.930 . S
H1776 C1786 0.930 . S
H1777 C1787 0.930 1_455 S
C1778 H1772 0.930 . S
C1778 C1779 1.355 1_455 S
C1778 C1780 1.415 1_455 S
C1779 C1778 1.355 1_655 S
C1779 C1781 1.419 . S
C1780 C1778 1.415 1_655 S
C1780 C1785 1.425 . S
C1780 C1787 1.409 . S
C1781 H1773 0.930 . S
C1781 C1779 1.419 . S
C1781 C1782 1.362 . S
C1782 H1774 0.930 . S
C1782 C1781 1.362 . S
C1782 C1785 1.409 . S
C1783 H1775 0.930 . S
C1783 C1784 1.355 . S
C1783 C1785 1.415 . S
C1784 C1783 1.355 . S
C1784 C1786 1.419 . S
C1785 C1780 1.425 . S
C1785 C1782 1.409 . S
C1785 C1783 1.415 . S
C1786 H1776 0.930 . S
C1786 C1784 1.419 . S
C1786 C1787 1.362 . S
C1787 H1777 0.930 1_655 S
C1787 C1780 1.409 . S
C1787 C1786 1.362 . S
H1788 C1794 0.930 . S
H1789 C1797 0.930 . S
H1790 C1798 0.930 . S
H1791 C1799 0.930 . S
H1792 C1802 0.930 . S
H1793 C1803 0.930 . S
C1794 H1788 0.930 . S
C1794 C1795 1.355 . S
C1794 C1796 1.415 . S
C1795 C1794 1.355 . S
C1795 C1797 1.419 . S
C1796 C1794 1.415 . S
C1796 C1801 1.425 . S
C1796 C1803 1.409 . S
C1797 H1789 0.930 . S
C1797 C1795 1.419 . S
C1797 C1798 1.362 . S
C1798 H1790 0.930 . S
C1798 C1797 1.362 . S
C1798 C1801 1.409 . S
C1799 H1791 0.930 . S
C1799 C1800 1.355 . S
C1799 C1801 1.415 . S
C1800 C1799 1.355 . S
C1800 C1802 1.419 . S
C1801 C1796 1.425 . S
C1801 C1798 1.409 . S
C1801 C1799 1.415 . S
C1802 H1792 0.930 . S
C1802 C1800 1.419 . S
C1802 C1803 1.362 . S
C1803 H1793 0.930 . S
C1803 C1796 1.409 . S
C1803 C1802 1.362 . S
H1804 C1810 0.930 . S
H1805 C1813 0.930 . S
H1806 C1814 0.930 . S
H1807 C1815 0.930 . S
H1808 C1818 0.930 . S
H1809 C1819 0.930 . S
C1810 H1804 0.930 . S
C1810 C1811 1.355 1_545 S
C1810 C1812 1.415 . S
C1811 C1810 1.355 1_565 S
C1811 C1813 1.419 . S
C1812 C1810 1.415 . S
C1812 C1817 1.425 . S
C1812 C1819 1.409 . S
C1813 H1805 0.930 . S
C1813 C1811 1.419 . S
C1813 C1814 1.362 . S
C1814 H1806 0.930 . S
C1814 C1813 1.362 . S
C1814 C1817 1.409 1_565 S
C1815 H1807 0.930 . S
C1815 C1816 1.355 . S
C1815 C1817 1.415 . S
C1816 C1815 1.355 . S
C1816 C1818 1.419 . S
C1817 C1812 1.425 . S
C1817 C1814 1.409 1_545 S
C1817 C1815 1.415 . S
C1818 H1808 0.930 . S
C1818 C1816 1.419 . S
C1818 C1819 1.362 . S
C1819 H1809 0.930 . S
C1819 C1812 1.409 . S
C1819 C1818 1.362 . S
H1820 C1826 0.930 . S
H1821 C1829 0.930 . S
H1822 C1830 0.930 . S
H1823 C1831 0.930 . S
H1824 C1834 0.930 . S
H1825 C1835 0.930 1_455 S
C1826 H1820 0.930 . S
C1826 C1827 1.345 . S
C1826 C1828 1.415 1_455 S
C1827 C1826 1.345 . S
C1827 C1829 1.386 1_455 S
C1828 C1826 1.415 1_655 S
C1828 C1833 1.425 . S
C1828 C1835 1.409 . S
C1829 H1821 0.930 . S
C1829 C1827 1.386 1_655 S
C1829 C1830 1.362 . S
C1830 H1822 0.930 . S
C1830 C1829 1.362 . S
C1830 C1833 1.409 . S
C1831 H1823 0.930 . S
C1831 C1832 1.355 . S
C1831 C1833 1.415 . S
C1832 C1831 1.355 . S
C1832 C1834 1.419 . S
C1833 C1828 1.425 . S
C1833 C1830 1.409 . S
C1833 C1831 1.415 . S
C1834 H1824 0.930 . S
C1834 C1832 1.419 . S
C1834 C1835 1.362 . S
C1835 H1825 0.930 1_655 S
C1835 C1828 1.409 . S
C1835 C1834 1.362 . S
H1836 C1842 0.930 . S
H1837 C1845 0.930 . S
H1838 C1846 0.930 . S
H1839 C1847 0.930 . S
H1840 C1850 0.930 . S
H1841 C1851 0.930 . S
C1842 H1836 0.930 . S
C1842 C1843 1.355 . S
C1842 C1844 1.415 . S
C1843 C1842 1.355 . S
C1843 C1845 1.419 . S
C1844 C1842 1.415 . S
C1844 C1849 1.425 . S
C1844 C1851 1.409 . S
C1845 H1837 0.930 . S
C1845 C1843 1.419 . S
C1845 C1846 1.362 . S
C1846 H1838 0.930 . S
C1846 C1845 1.362 . S
C1846 C1849 1.409 . S
C1847 H1839 0.930 . S
C1847 C1848 1.355 . S
C1847 C1849 1.415 . S
C1848 C1847 1.355 . S
C1848 C1850 1.419 . S
C1849 C1844 1.425 . S
C1849 C1846 1.409 . S
C1849 C1847 1.415 . S
C1850 H1840 0.930 . S
C1850 C1848 1.419 . S
C1850 C1851 1.362 . S
C1851 H1841 0.930 . S
C1851 C1844 1.409 . S
C1851 C1850 1.362 . S
H1852 C1858 0.930 . S
H1853 C1861 0.930 . S
H1854 C1862 0.930 . S
H1855 C1863 0.930 . S
H1856 C1866 0.930 . S
H1857 C1867 0.927 1_545 S
C1858 H1852 0.930 . S
C1858 C1859 1.358 1_545 S
C1858 C1860 1.415 1_545 S
C1859 C1858 1.358 1_565 S
C1859 C1861 1.433 . S
C1860 C1858 1.415 1_565 S
C1860 C1865 1.425 . S
C1860 C1867 1.408 . S
C1861 H1853 0.930 . S
C1861 C1859 1.433 . S
C1861 C1862 1.362 . S
C1862 H1854 0.930 . S
C1862 C1861 1.362 . S
C1862 C1865 1.409 . S
C1863 H1855 0.930 . S
C1863 C1864 1.355 . S
C1863 C1865 1.415 . S
C1864 C1863 1.355 . S
C1864 C1866 1.419 . S
C1865 C1860 1.425 . S
C1865 C1862 1.409 . S
C1865 C1863 1.415 . S
C1866 H1856 0.930 . S
C1866 C1864 1.419 . S
C1866 C1867 1.367 . S
C1867 H1857 0.927 1_565 S
C1867 C1860 1.408 . S
C1867 C1866 1.367 . S
H1868 C1874 0.930 . S
H1869 C1877 0.930 . S
H1870 C1878 0.930 . S
H1871 C1879 0.930 1_655 S
H1872 C1882 0.930 . S
H1873 C1883 0.930 . S
C1874 H1868 0.930 . S
C1874 C1875 1.355 . S
C1874 C1876 1.415 . S
C1875 C1874 1.355 . S
C1875 C1877 1.419 . S
C1876 C1874 1.415 . S
C1876 C1881 1.425 . S
C1876 C1883 1.409 . S
C1877 H1869 0.930 . S
C1877 C1875 1.419 . S
C1877 C1878 1.362 . S
C1878 H1870 0.930 . S
C1878 C1877 1.362 . S
C1878 C1881 1.409 . S
C1879 H1871 0.930 1_455 S
C1879 C1880 1.355 1_455 S
C1879 C1881 1.415 . S
C1880 C1879 1.355 1_655 S
C1880 C1882 1.419 1_655 S
C1881 C1876 1.425 . S
C1881 C1878 1.409 . S
C1881 C1879 1.415 . S
C1882 H1872 0.930 . S
C1882 C1880 1.419 1_455 S
C1882 C1883 1.362 . S
C1883 H1873 0.930 . S
C1883 C1876 1.409 . S
C1883 C1882 1.362 . S
H1884 C1890 0.930 . S
H1885 C1893 0.930 . S
H1886 C1894 0.930 . S
H1887 C1895 0.930 . S
H1888 C1898 0.930 . S
H1889 C1899 0.930 . S
C1890 H1884 0.930 . S
C1890 C1891 1.355 . S
C1890 C1892 1.415 . S
C1891 C1890 1.355 . S
C1891 C1893 1.419 . S
C1892 C1890 1.415 . S
C1892 C1897 1.425 . S
C1892 C1899 1.409 . S
C1893 H1885 0.930 . S
C1893 C1891 1.419 . S
C1893 C1894 1.362 . S
C1894 H1886 0.930 . S
C1894 C1893 1.362 . S
C1894 C1897 1.409 . S
C1895 H1887 0.930 . S
C1895 C1896 1.355 . S
C1895 C1897 1.415 1_455 S
C1896 C1895 1.355 . S
C1896 C1898 1.419 . S
C1897 C1892 1.425 . S
C1897 C1894 1.409 . S
C1897 C1895 1.415 1_655 S
C1898 H1888 0.930 . S
C1898 C1896 1.419 . S
C1898 C1899 1.362 1_455 S
C1899 H1889 0.930 . S
C1899 C1892 1.409 . S
C1899 C1898 1.362 1_655 S
H1900 C1906 0.930 . S
H1901 C1909 0.930 . S
H1902 C1910 0.930 . S
H1903 C1911 0.930 . S
H1904 C1914 0.930 . S
H1905 C1915 0.930 . S
C1906 H1900 0.930 . S
C1906 C1907 1.355 . S
C1906 C1908 1.415 . S
C1907 C1906 1.355 . S
C1907 C1909 1.419 . S
C1908 C1906 1.415 . S
C1908 C1913 1.425 . S
C1908 C1915 1.409 . S
C1909 H1901 0.930 . S
C1909 C1907 1.419 . S
C1909 C1910 1.362 . S
C1910 H1902 0.930 . S
C1910 C1909 1.362 . S
C1910 C1913 1.409 . S
C1911 H1903 0.930 . S
C1911 C1912 1.355 . S
C1911 C1913 1.415 . S
C1912 C1911 1.355 . S
C1912 C1914 1.419 . S
C1913 C1908 1.425 . S
C1913 C1910 1.409 . S
C1913 C1911 1.415 . S
C1914 H1904 0.930 . S
C1914 C1912 1.419 . S
C1914 C1915 1.362 . S
C1915 H1905 0.930 . S
C1915 C1908 1.409 . S
C1915 C1914 1.362 . S
H1916 C1922 0.930 . S
H1917 C1925 0.930 . S
H1918 C1926 0.930 . S
H1919 C1927 0.930 . S
H1920 C1930 0.930 . S
H1921 C1931 0.930 . S
C1922 H1916 0.930 . S
C1922 C1923 1.355 . S
C1922 C1924 1.415 . S
C1923 C1922 1.355 . S
C1923 C1925 1.419 . S
C1924 C1922 1.415 . S
C1924 C1929 1.425 1_565 S
C1924 C1931 1.409 1_565 S
C1925 H1917 0.930 . S
C1925 C1923 1.419 . S
C1925 C1926 1.362 . S
C1926 H1918 0.930 . S
C1926 C1925 1.362 . S
C1926 C1929 1.409 1_565 S
C1927 H1919 0.930 . S
C1927 C1928 1.355 . S
C1927 C1929 1.415 . S
C1928 C1927 1.355 . S
C1928 C1930 1.419 . S
C1929 C1924 1.425 1_545 S
C1929 C1926 1.409 1_545 S
C1929 C1927 1.415 . S
C1930 H1920 0.930 . S
C1930 C1928 1.419 . S
C1930 C1931 1.362 . S
C1931 H1921 0.930 . S
C1931 C1924 1.409 1_545 S
C1931 C1930 1.362 . S
H1932 C1938 0.930 . S
H1933 C1941 0.930 . S
H1934 C1942 0.930 . S
H1935 C1943 0.930 . S
H1936 C1946 0.930 . S
H1937 C1947 0.930 . S
C1938 H1932 0.930 . S
C1938 C1939 1.355 . S
C1938 C1940 1.415 . S
C1939 C1938 1.355 . S
C1939 C1941 1.419 . S
C1940 C1938 1.415 . S
C1940 C1945 1.425 1_565 S
C1940 C1947 1.409 1_565 S
C1941 H1933 0.930 . S
C1941 C1939 1.419 . S
C1941 C1942 1.362 . S
C1942 H1934 0.930 . S
C1942 C1941 1.362 . S
C1942 C1945 1.409 1_565 S
C1943 H1935 0.930 . S
C1943 C1944 1.355 . S
C1943 C1945 1.415 . S
C1944 C1943 1.355 . S
C1944 C1946 1.419 . S
C1945 C1940 1.425 1_545 S
C1945 C1942 1.409 1_545 S
C1945 C1943 1.415 . S
C1946 H1936 0.930 . S
C1946 C1944 1.419 . S
C1946 C1947 1.362 . S
C1947 H1937 0.930 . S
C1947 C1940 1.409 1_545 S
C1947 C1946 1.362 . S
H1948 C1954 0.930 . S
H1949 C1957 0.930 . S
H1950 C1958 0.930 . S
H1951 C1959 0.930 . S
H1952 C1962 0.930 . S
H1953 C1963 0.930 . S
C1954 H1948 0.930 . S
C1954 C1955 1.355 . S
C1954 C1956 1.415 . S
C1955 C1954 1.355 . S
C1955 C1957 1.419 . S
C1956 C1954 1.415 . S
C1956 C1961 1.425 1_655 S
C1956 C1963 1.409 1_655 S
C1957 H1949 0.930 . S
C1957 C1955 1.419 . S
C1957 C1958 1.362 . S
C1958 H1950 0.930 . S
C1958 C1957 1.362 . S
C1958 C1961 1.409 1_655 S
C1959 H1951 0.930 . S
C1959 C1960 1.355 . S
C1959 C1961 1.415 . S
C1960 C1959 1.355 . S
C1960 C1962 1.419 . S
C1961 C1956 1.425 1_455 S
C1961 C1958 1.409 1_455 S
C1961 C1959 1.415 . S
C1962 H1952 0.930 . S
C1962 C1960 1.419 . S
C1962 C1963 1.362 . S
C1963 H1953 0.930 . S
C1963 C1956 1.409 1_455 S
C1963 C1962 1.362 . S
H1964 C1970 0.930 . S
H1965 C1973 0.930 . S
H1966 C1974 0.930 . S
H1967 C1975 0.930 . S
H1968 C1978 0.930 . S
H1969 C1979 0.930 . S
C1970 H1964 0.930 . S
C1970 C1971 1.355 . S
C1970 C1972 1.415 . S
C1971 C1970 1.355 . S
C1971 C1973 1.419 . S
C1972 C1970 1.415 . S
C1972 C1977 1.425 . S
C1972 C1979 1.409 . S
C1973 H1965 0.930 . S
C1973 C1971 1.419 . S
C1973 C1974 1.362 . S
C1974 H1966 0.930 . S
C1974 C1973 1.362 . S
C1974 C1977 1.409 . S
C1975 H1967 0.930 . S
C1975 C1976 1.355 . S
C1975 C1977 1.415 . S
C1976 C1975 1.355 . S
C1976 C1978 1.419 . S
C1977 C1972 1.425 . S
C1977 C1974 1.409 . S
C1977 C1975 1.415 . S
C1978 H1968 0.930 . S
C1978 C1976 1.419 . S
C1978 C1979 1.362 . S
C1979 H1969 0.930 . S
C1979 C1972 1.409 . S
C1979 C1978 1.362 . S
C835 N2 1.371 . S
C840 N416 1.369 . S
C851 C30 1.413 . S
C856 N439 1.404 . S
C867 N462 1.365 . S
C872 N48 1.364 . S
C883 N71 1.397 . S
C888 N761 1.396 . S
C899 N784 1.385 . S
C904 C99 1.419 . S
C915 N117 1.378 . S
C920 N807 1.376 . S
C931 N554 1.355 . S
C936 N140 1.353 . S
C947 N163 1.348 . S
C952 C582 1.412 . S
C963 N186 1.372 . S
C968 N600 1.371 . S
C979 N209 1.379 . S
C984 N347 1.381 . S
C995 C375 1.410 . S
C1000 N232 1.358 . S
C1011 N255 1.427 . S
C1016 N393 1.429 . S
C1027 N278 1.418 . S
C1032 N692 1.417 . S
C1043 C306 1.410 . S
C1048 N715 1.359 . S
C1059 N324 1.409 . S
C1064 N738 1.409 . S
C1075 N485 1.402 . S
C1080 N623 1.402 . S
C1091 N508 1.374 . S
C1096 C651 1.418 . S
C1107 N531 1.352 . S
C1112 N669 1.354 . S
C1123 N173 1.483 . S
C1128 C16 1.503 . S
C1139 N196 1.513 . S
C1144 N35 1.530 . S
C1155 C62 1.594 . S
C1160 N150 1.561 . S
C1171 N265 1.542 . S
C1176 C85 1.554 . S
C1187 N219 1.525 . S
C1192 N104 1.535 . S
C1203 N242 1.458 . S
C1208 C131 1.489 . S
C1219 C154 1.660 . S
C1224 C39 1.666 . S
C1235 C177 1.629 . S
C1240 N58 1.640 . S
C1251 C200 1.636 . S
C1256 N12 1.645 1_556 S
C1267 C223 1.634 . S
C1272 N127 1.609 . S
C1283 N81 1.630 . S
C1288 C246 1.607 . S
C1299 C108 1.666 . S
C1304 C269 1.659 . S
C1315 C292 1.489 . S
C1320 N449 1.458 . S
C1331 N311 1.560 . S
C1336 N472 1.538 . S
C1347 C338 1.555 . S
C1352 N426 1.520 . S
C1363 N541 1.525 . S
C1368 C361 1.548 . S
C1379 N380 1.539 . S
C1384 N495 1.530 . S
C1395 N518 1.426 . S
C1400 C407 1.448 . S
C1411 C430 1.666 . S
C1416 C315 1.691 . S
C1427 N334 1.593 . S
C1432 C453 1.597 . S
C1443 N288 1.648 . S
C1448 C476 1.645 . S
C1459 C499 1.602 . S
C1464 N403 1.608 . S
C1475 C522 1.574 . S
C1480 N357 1.597 . S
C1491 C545 1.614 . S
C1496 C384 1.672 . S
C1507 N725 1.444 . S
C1512 C568 1.480 . S
C1523 N587 1.545 . S
C1528 N748 1.460 . S
C1539 C614 1.588 . S
C1544 N702 1.553 . S
C1555 N817 1.563 . S
C1560 C637 1.568 . S
C1571 N771 1.465 . S
C1576 N656 1.535 . S
C1587 N794 1.490 . S
C1592 C683 1.504 . S
C1603 C591 1.668 . S
C1608 C706 1.662 . S
C1619 N610 1.588 . S
C1624 C729 1.589 . S
C1635 N564 1.591 . S
C1640 C752 1.602 . S
C1651 C775 1.626 . S
C1656 N679 1.601 . S
C1667 N633 1.629 . S
C1672 C798 1.605 . S
C1683 C821 1.641 . S
C1688 C660 1.662 . S
C1699 C7 1.471 . S
C1704 C674 1.438 . S
C1715 C628 1.556 . S
C1720 N25 1.446 . S
C1731 C53 1.555 1_455 S
C1736 N646 1.498 . S
C1747 C76 1.554 . S
C1752 N301 1.493 . S
C1763 C329 1.584 . S
C1768 N94 1.424 . S
C1779 C122 1.471 1_655 S
C1784 C283 1.448 . S
C1795 C536 1.845 . S
C1800 C145 1.859 . S
C1811 C168 1.872 . S
C1816 C490 1.895 . S
C1827 C191 1.930 . S
C1832 C513 1.853 . S
C1843 C214 1.895 . S
C1848 C720 1.877 . S
C1859 C237 1.868 1_565 S
C1864 C743 1.868 . S
C1875 C697 1.827 . S
C1880 C260 1.843 . S
C1891 C352 1.567 . S
C1896 N577 1.415 . S
C1907 C605 1.553 . S
C1912 N370 1.467 . S
C1923 C559 1.452 . S
C1928 C398 1.449 . S
C1939 C812 1.836 . S
C1944 C421 1.830 . S
C1955 C444 1.876 . S
C1960 C766 1.895 . S
C1971 C467 1.886 . S
C1976 C789 1.853 . S
