# Generated by pormake.
# Topology unc, (4)-cn, num edge types: 1
# Building blocks:
#     Node 0, Type 0, BuildingBlock: GALJAG_clean_sbu_0, # of connection points: 4
#     Node 1, Type 0, BuildingBlock: GALJAG_clean_sbu_0, # of connection points: 4
#     Node 2, Type 0, BuildingBlock: GALJAG_clean_sbu_0, # of connection points: 4
#     Node 3, Type 0, BuildingBlock: GALJAG_clean_sbu_0, # of connection points: 4
#     Edge 4, Type (0, 0), BuildingBlock: FUNLAD_clean_linker_1, # of connection points: 2
#     Edge 5, Type (0, 0), BuildingBlock: FUNLAD_clean_linker_1, # of connection points: 2
#     Edge 6, Type (0, 0), BuildingBlock: FUNLAD_clean_linker_1, # of connection points: 2
#     Edge 7, Type (0, 0), BuildingBlock: FUNLAD_clean_linker_1, # of connection points: 2
#     Edge 8, Type (0, 0), BuildingBlock: FUNLAD_clean_linker_1, # of connection points: 2
#     Edge 9, Type (0, 0), BuildingBlock: FUNLAD_clean_linker_1, # of connection points: 2
#     Edge 10, Type (0, 0), BuildingBlock: FUNLAD_clean_linker_1, # of connection points: 2
#     Edge 11, Type (0, 0), BuildingBlock: FUNLAD_clean_linker_1, # of connection points: 2
# Relax obj value: 0.013
# Max RMSD: 0.034
# Mean RMSD: 0.034
data_MOF--net-unc--node1-GALJAG_clean_sbu_0--edge1-FUNLAD_clean_linker_1
_symmetry_space_group_name_H-M    P1
_symmetry_Int_Tables_number       1
_symmetry_cell_setting            triclinic
loop_
_symmetry_equiv_pos_as_xyz
'x, y, z'
_cell_length_a     32.156552
_cell_length_b     32.678479
_cell_length_c     21.137468
_cell_angle_alpha  90.022457
_cell_angle_beta   90.017097
_cell_angle_gamma 90.02188
loop_
_atom_site_label
_atom_site_type_symbol
_atom_site_fract_x
_atom_site_fract_y
_atom_site_fract_z
_atom_type_partial_charge
In0 In 1.00015 0.68426 0.00722 0.0
O1 O 0.06709 0.70531 0.98989 0.0
O2 O 0.0358 0.72883 0.07056 0.0
C3 C 0.99215 0.62983 0.91229 0.0
C4 C 0.94538 0.74263 0.97258 0.0
C5 C 0.99216 0.63082 0.10375 0.0
O6 O 0.02653 0.64634 0.92586 0.0
O7 O 0.96176 0.64152 0.94527 0.0
O8 O 0.96703 0.65995 0.09562 0.0
O9 O 0.02154 0.62929 0.06443 0.0
C10 C 0.06871 0.72787 0.03817 0.0
O11 O 0.94171 0.72241 0.02307 0.0
O12 O 0.97691 0.73386 0.93967 0.0
In13 In 0.33227 1.00069 0.2418 0.0
O14 O 0.307 0.93484 0.23894 0.0
O15 O 0.27478 0.98131 0.18791 0.0
C16 C 0.39626 0.9985 0.32376 0.0
C17 C 0.28418 0.05704 0.299 0.0
C18 C 0.37691 0.00527 0.13491 0.0
O19 O 0.36615 0.9737 0.32844 0.0
O20 O 0.39344 0.02403 0.27946 0.0
O21 O 0.35058 0.03248 0.14936 0.0
O22 O 0.37933 0.97558 0.17291 0.0
C23 C 0.27674 0.94417 0.20345 0.0
O24 O 0.30658 0.06576 0.25172 0.0
O25 O 0.28645 0.02045 0.31745 0.0
In26 In 0.02541 0.33174 0.50702 0.0
O27 O 0.09174 0.30806 0.52012 0.0
O28 O 0.05406 0.2796 0.45006 0.0
C29 C 0.02652 0.3844 0.6052 0.0
C30 C 0.96383 0.27837 0.5345 0.0
C31 C 0.02496 0.38637 0.41116 0.0
O32 O 0.05471 0.35812 0.59682 0.0
O33 O 0.9975 0.38357 0.56506 0.0
O34 O 0.99205 0.36997 0.43149 0.0
O35 O 0.05778 0.37472 0.43804 0.0
C36 C 0.08893 0.28133 0.4773 0.0
O37 O 0.96804 0.29418 0.48048 0.0
O38 O 0.99066 0.28926 0.57472 0.0
In39 In 0.69021 0.01546 0.74425 0.0
O40 O 0.72414 0.95628 0.71691 0.0
O41 O 0.73447 0.98056 0.80882 0.0
C42 C 0.63141 0.01943 0.6538 0.0
C43 C 0.74171 0.07828 0.71576 0.0
C44 C 0.63647 0.01118 0.84151 0.0
O45 O 0.65589 0.98931 0.65832 0.0
O46 O 0.6377 0.04789 0.69293 0.0
O47 O 0.66698 0.03553 0.84184 0.0
O48 O 0.63407 0.98826 0.79365 0.0
C49 C 0.74263 0.95284 0.76926 0.0
O50 O 0.71781 0.07896 0.76299 0.0
O51 O 0.73938 0.0463 0.68257 0.0
H52 H 0.96123 0.60383 0.18727 0.0
C53 C 0.98662 0.60003 0.15385 0.0
H54 H 0.03557 0.56209 0.12236 0.0
H55 H 1.00848 0.49363 0.41489 0.0
H56 H 0.03423 0.55986 0.44874 0.0
H57 H 0.04691 0.61492 0.37139 0.0
H58 H 0.03399 0.60409 0.25967 0.0
C59 C 1.01129 0.56695 0.15734 0.0
C60 C 1.00398 0.53403 0.2045 0.0
C61 C 1.01239 0.5408 0.26954 0.0
C62 C 1.00637 0.50864 0.3139 0.0
C63 C 0.01379 0.51653 0.37885 0.0
C64 C 0.02825 0.55453 0.39905 0.0
C65 C 0.03536 0.58554 0.35549 0.0
C66 C 0.0276 0.57895 0.29146 0.0
H67 H 0.05572 0.43072 0.34854 0.0
C68 C 0.02564 0.41851 0.36253 0.0
H69 H 0.96046 0.42265 0.35064 0.0
H70 H 0.9842 0.51123 0.08341 0.0
H71 H 0.96081 0.44421 0.04915 0.0
H72 H 0.9519 0.38802 0.12592 0.0
H73 H 0.96625 0.39857 0.23753 0.0
C74 C 0.99084 0.43475 0.33814 0.0
C75 C 0.99332 0.46945 0.29281 0.0
C76 C 0.98443 0.46286 0.22798 0.0
C77 C 0.98987 0.49517 0.18371 0.0
C78 C 0.98095 0.48769 0.11906 0.0
C79 C 0.96742 0.44937 0.09874 0.0
C80 C 0.96238 0.41775 0.14197 0.0
C81 C 0.97073 0.42422 0.20589 0.0
H82 H 0.46211 0.00925 0.34323 0.0
C83 C 0.43354 0.99746 0.36382 0.0
H84 H 0.40458 0.97478 0.44602 0.0
H85 H 0.56774 0.91828 0.58722 0.0
H86 H 0.52719 0.85597 0.58288 0.0
H87 H 0.4616 0.85304 0.52261 0.0
H88 H 0.43571 0.91273 0.4674 0.0
C89 C 0.43308 0.98627 0.42488 0.0
C90 C 0.47179 0.9887 0.464 0.0
C91 C 0.48714 0.95315 0.49457 0.0
C92 C 0.52574 0.95449 0.52763 0.0
C93 C 0.53929 0.91892 0.55997 0.0
C94 C 0.51623 0.88286 0.55807 0.0
C95 C 0.47926 0.88123 0.52423 0.0
C96 C 0.46474 0.91582 0.49276 0.0
H97 H 0.57173 0.04336 0.6198 0.0
C98 C 0.59523 0.02011 0.61121 0.0
H99 H 0.61255 0.96872 0.55728 0.0
H100 H 0.4467 0.0655 0.42724 0.0
H101 H 0.4895 0.12654 0.42358 0.0
H102 H 0.56207 0.12508 0.46154 0.0
H103 H 0.5913 0.06321 0.50641 0.0
C104 C 0.58945 0.99246 0.56497 0.0
C105 C 0.54978 0.99098 0.52808 0.0
C106 C 0.53486 0.02622 0.49598 0.0
C107 C 0.4947 0.02584 0.46784 0.0
C108 C 0.47831 0.0631 0.44425 0.0
C109 C 0.50238 0.09851 0.44258 0.0
C110 C 0.54309 0.09777 0.46436 0.0
C111 C 0.55932 0.06214 0.49072 0.0
H112 H 0.95652 0.58664 0.85337 0.0
C113 C 0.98764 0.59762 0.86419 0.0
H114 H 0.05206 0.58963 0.84808 0.0
H115 H 0.99815 0.40438 0.77268 0.0
H116 H 1.00712 0.39366 0.88535 0.0
H117 H 0.02053 0.45183 0.95698 0.0
H118 H 0.02457 0.52116 0.9163 0.0
C119 C 0.02062 0.57988 0.83676 0.0
C120 C 0.01498 0.5448 0.79301 0.0
C121 C 0.0141 0.50438 0.81721 0.0
C122 C 1.00761 0.47075 0.77563 0.0
C123 C 1.00464 0.43091 0.80163 0.0
C124 C 1.00937 0.42435 0.86638 0.0
C125 C 0.01681 0.4571 0.90673 0.0
C126 C 0.01907 0.49673 0.88274 0.0
H127 H 0.05689 0.41665 0.68446 0.0
C128 C 0.02886 0.41531 0.65578 0.0
H129 H 0.97081 0.44214 0.63508 0.0
H130 H 0.01438 0.6186 0.73225 0.0
H131 H 1.00476 0.62982 0.61967 0.0
H132 H 0.99473 0.57165 0.54694 0.0
H133 H 0.99476 0.50193 0.58588 0.0
C134 C 0.99835 0.44277 0.66489 0.0
C135 C 1.00334 0.47763 0.70961 0.0
C136 C 1.00372 0.51822 0.68564 0.0
C137 C 1.00956 0.55181 0.72747 0.0
C138 C 1.00994 0.59201 0.70246 0.0
C139 C 1.00454 0.59888 0.63796 0.0
C140 C 0.99897 0.56611 0.59699 0.0
C141 C 0.99881 0.5262 0.62014 0.0
H142 H 0.3972 0.03036 0.04264 0.0
C143 C 0.40515 0.00926 0.08047 0.0
H144 H 0.44939 0.96839 0.1181 0.0
H145 H 0.55128 0.9204 0.88056 0.0
H146 H 0.51816 0.85625 0.90775 0.0
H147 H 0.46273 0.85362 0.98827 0.0
H148 H 0.44052 0.91508 0.04264 0.0
C149 C 0.44168 0.98924 0.07976 0.0
C150 C 0.472 0.99241 0.02676 0.0
C151 C 0.48378 0.95634 0.99399 0.0
C152 C 0.51488 0.95806 0.94626 0.0
C153 C 0.52714 0.9212 0.91616 0.0
C154 C 0.50848 0.88404 0.93144 0.0
C155 C 0.47735 0.88254 0.97685 0.0
C156 C 0.46502 0.91811 0.00789 0.0
H157 H 0.61267 0.02385 0.9376 0.0
C158 C 0.60483 0.01092 0.89174 0.0
H159 H 0.55852 0.98459 0.83407 0.0
H160 H 0.46179 0.06664 0.08634 0.0
H161 H 0.49049 0.13162 0.05317 0.0
H162 H 0.53658 0.13602 0.96015 0.0
H163 H 0.5554 0.07514 0.90139 0.0
C164 C 0.56615 0.99713 0.8803 0.0
C165 C 0.53333 0.99605 0.93 0.0
C166 C 0.52008 0.03248 0.96064 0.0
C167 C 0.4908 0.0304 0.01102 0.0
C168 C 0.48161 0.06664 0.04509 0.0
C169 C 0.49823 0.1042 0.02693 0.0
C170 C 0.52436 0.10664 0.97482 0.0
C171 C 0.53525 0.07133 0.94188 0.0
H172 H 0.21743 0.92748 0.15926 0.0
C173 C 0.24514 0.91488 0.1814 0.0
H174 H 0.27689 0.86103 0.20781 0.0
H175 H 0.11429 0.75137 0.21447 0.0
H176 H 0.13938 0.74622 0.32228 0.0
H177 H 0.19932 0.78719 0.35827 0.0
H178 H 0.23489 0.83315 0.28644 0.0
C179 C 0.24959 0.8741 0.18523 0.0
C180 C 0.21607 0.84632 0.16168 0.0
C181 C 0.19539 0.81983 0.20446 0.0
C182 C 0.16018 0.79691 0.18406 0.0
C183 C 0.14062 0.77015 0.22761 0.0
C184 C 0.15478 0.76678 0.28967 0.0
C185 C 0.18856 0.7898 0.3099 0.0
C186 C 0.20872 0.81608 0.26808 0.0
H187 H 0.13486 0.74484 0.02892 0.0
C188 C 0.10654 0.75078 0.05542 0.0
H189 H 0.07855 0.7841 0.12938 0.0
H190 H 0.25455 0.88581 0.06347 0.0
H191 H 0.22806 0.8935 0.95668 0.0
H192 H 0.16172 0.86149 0.92517 0.0
H193 H 0.12237 0.82052 -0.00064 0.0
C194 C 0.10664 0.7788 0.102 0.0
C195 C 0.14515 0.80109 0.12123 0.0
C196 C 0.16626 0.82716 0.07811 0.0
C197 C 0.20279 0.84828 0.09765 0.0
C198 C 0.22528 0.87121 0.05222 0.0
C199 C 0.21063 0.87556 0.99059 0.0
C200 C 0.17342 0.85736 0.97277 0.0
C201 C 0.15133 0.83351 0.0158 0.0
H202 H 0.2317 0.07371 0.3602 0.0
C203 C 0.2554 0.08615 0.32898 0.0
H204 H 0.28046 0.13918 0.28708 0.0
H205 H 0.11684 0.24476 0.30128 0.0
H206 H 0.13168 0.24356 0.189 0.0
H207 H 0.1885 0.201 0.14652 0.0
H208 H 0.23119 0.1599 0.2161 0.0
C209 C 0.25707 0.12667 0.31874 0.0
C210 C 0.2247 0.15456 0.34535 0.0
C211 C 0.19955 0.17794 0.30371 0.0
C212 C 0.16601 0.20159 0.32801 0.0
C213 C 0.1421 0.22546 0.28543 0.0
C214 C 0.15035 0.22519 0.22077 0.0
C215 C 0.18238 0.20129 0.19688 0.0
C216 C 0.20673 0.17786 0.23754 0.0
H217 H 0.15488 0.26277 0.47847 0.0
C218 C 0.12451 0.25561 0.45878 0.0
H219 H 0.09016 0.218 0.39691 0.0
H220 H 0.27256 0.12163 0.43986 0.0
H221 H 0.25593 0.12001 0.55174 0.0
H222 H 0.19223 0.15298 0.5921 0.0
H223 H 0.14569 0.18893 0.52127 0.0
C224 C 0.12039 0.22452 0.41765 0.0
C225 C 0.15692 0.20106 0.39371 0.0
C226 C 0.18228 0.1779 0.43546 0.0
C227 C 0.21725 0.15616 0.41155 0.0
C228 C 0.24415 0.13641 0.45494 0.0
C229 C 0.2352 0.13559 0.51938 0.0
C230 C 0.19948 0.15435 0.54213 0.0
C231 C 0.17319 0.17524 0.50092 0.0
H232 H 0.77076 0.13854 0.73273 0.0
C233 C 0.77076 0.11198 0.70176 0.0
H234 H 0.79904 0.08293 0.62361 0.0
H235 H 0.85621 0.27754 0.58722 0.0
H236 H 0.78337 0.29107 0.56656 0.0
H237 H 0.73085 0.23654 0.57815 0.0
H238 H 0.75081 0.16838 0.61169 0.0
C239 C 0.7977 0.11007 0.65328 0.0
C240 C 0.82932 0.14264 0.64258 0.0
C241 C 0.81729 0.1819 0.62061 0.0
C242 C 0.84785 0.21281 0.61098 0.0
C243 C 0.83464 0.2524 0.59254 0.0
C244 C 0.79284 0.26069 0.58101 0.0
C245 C 0.76325 0.23003 0.58776 0.0
C246 C 0.77513 0.19107 0.60735 0.0
H247 H 0.91065 0.23881 0.50983 0.0
C248 C 0.93023 0.2491 0.54864 0.0
H249 H 0.94324 0.24461 0.64622 0.0
H250 H 0.86268 0.07104 0.68669 0.0
H251 H 0.93574 0.05687 0.70464 0.0
H252 H 0.98905 0.10941 0.68349 0.0
H253 H 0.96963 0.17651 0.64475 0.0
C254 C 0.92321 0.23512 0.60746 0.0
C255 C 0.8906 0.2038 0.62053 0.0
C256 C 0.90255 0.16454 0.64261 0.0
C257 C 0.87189 0.134 0.65381 0.0
C258 C 0.8847 0.09523 0.6766 0.0
C259 C 0.92654 0.08667 0.68723 0.0
C260 C 0.95654 0.11627 0.67541 0.0
C261 C 0.94491 0.15475 0.65328 0.0
H262 H 0.77935 0.8979 0.7448 0.0
C263 C 0.77223 0.91947 0.78242 0.0
H264 H 0.78465 0.93793 0.87618 0.0
H265 H 0.85538 0.746 0.87017 0.0
H266 H 0.78417 0.72559 0.84934 0.0
H267 H 0.72949 0.77733 0.83216 0.0
H268 H 0.74583 0.84968 0.83443 0.0
C269 C 0.79077 0.91567 0.83912 0.0
C270 C 0.82299 0.88394 0.85165 0.0
C271 C 0.81244 0.84175 0.85259 0.0
C272 C 0.84357 0.81195 0.86554 0.0
C273 C 0.83268 0.76997 0.86306 0.0
C274 C 0.79195 0.75781 0.8508 0.0
C275 C 0.7612 0.78693 0.84089 0.0
C276 C 0.77111 0.82843 0.84187 0.0
H277 H 0.88818 0.77888 0.98499 0.0
C278 C 0.91428 0.77332 0.95347 0.0
H279 H 0.94318 0.78925 0.86715 0.0
H280 H 0.85406 0.96204 0.85156 0.0
H281 H 0.92486 0.98235 0.87549 0.0
H282 H 0.97802 0.93079 0.90235 0.0
H283 H 0.96075 0.85855 0.905 0.0
C284 C 0.91673 0.79367 0.89839 0.0
C285 C 0.88469 0.82445 0.8804 0.0
C286 C 0.89526 0.86653 0.8792 0.0
C287 C 0.86443 0.89629 0.86467 0.0
C288 C 0.87602 0.93813 0.86324 0.0
C289 C 0.91661 0.95023 0.8767 0.0
C290 C 0.94655 0.92121 0.89174 0.0
C291 C 0.9362 0.87982 0.89305 0.0
loop_
_geom_bond_atom_site_label_1
_geom_bond_atom_site_label_2
_geom_bond_distance
_geom_bond_site_symmetry_2
_ccdc_geom_bond_type
In0 O1 2.294 1_554 S
In0 O2 2.326 . S
In0 O6 2.266 1_554 S
In0 O7 2.326 1_454 S
In0 O8 2.266 1_455 S
In0 O9 2.326 . S
In0 O11 2.294 1_455 S
In0 O12 2.326 1_454 S
O1 In0 2.294 1_556 S
O1 C10 1.240 1_556 S
O2 In0 2.326 . S
O2 C10 1.252 . S
C3 O6 1.253 . S
C3 O7 1.259 1_455 S
C4 O11 1.240 1_556 S
C4 O12 1.252 . S
C5 O8 1.253 1_455 S
C5 O9 1.259 . S
O6 In0 2.266 1_556 S
O6 C3 1.253 . S
O7 In0 2.326 1_656 S
O7 C3 1.259 1_655 S
O8 In0 2.266 1_655 S
O8 C5 1.253 1_655 S
O9 In0 2.326 . S
O9 C5 1.259 . S
C10 O1 1.240 1_554 S
C10 O2 1.252 . S
O11 In0 2.294 1_655 S
O11 C4 1.240 1_554 S
O12 In0 2.326 1_656 S
O12 C4 1.252 . S
In13 O14 2.294 1_545 S
In13 O15 2.326 1_545 S
In13 O19 2.266 1_545 S
In13 O20 2.326 . S
In13 O21 2.266 . S
In13 O22 2.326 1_545 S
In13 O24 2.294 . S
In13 O25 2.326 . S
O14 In13 2.294 1_565 S
O14 C23 1.240 . S
O15 In13 2.326 1_565 S
O15 C23 1.252 . S
C16 O19 1.253 1_545 S
C16 O20 1.259 . S
C17 O24 1.240 . S
C17 O25 1.252 . S
C18 O21 1.253 . S
C18 O22 1.259 1_545 S
O19 In13 2.266 1_565 S
O19 C16 1.253 1_565 S
O20 In13 2.326 . S
O20 C16 1.259 . S
O21 In13 2.266 . S
O21 C18 1.253 . S
O22 In13 2.326 1_565 S
O22 C18 1.259 1_565 S
C23 O14 1.240 . S
C23 O15 1.252 . S
O24 In13 2.294 . S
O24 C17 1.240 . S
O25 In13 2.326 . S
O25 C17 1.252 . S
In26 O27 2.294 . S
In26 O28 2.326 . S
In26 O32 2.266 . S
In26 O33 2.326 1_455 S
In26 O34 2.266 1_455 S
In26 O35 2.326 . S
In26 O37 2.294 1_455 S
In26 O38 2.326 1_455 S
O27 In26 2.294 . S
O27 C36 1.240 . S
O28 In26 2.326 . S
O28 C36 1.252 . S
C29 O32 1.253 . S
C29 O33 1.259 1_455 S
C30 O37 1.240 . S
C30 O38 1.252 . S
C31 O34 1.253 1_455 S
C31 O35 1.259 . S
O32 In26 2.266 . S
O32 C29 1.253 . S
O33 In26 2.326 1_655 S
O33 C29 1.259 1_655 S
O34 In26 2.266 1_655 S
O34 C31 1.253 1_655 S
O35 In26 2.326 . S
O35 C31 1.259 . S
C36 O27 1.240 . S
C36 O28 1.252 . S
O37 In26 2.294 1_655 S
O37 C30 1.240 . S
O38 In26 2.326 1_655 S
O38 C30 1.252 . S
In39 O40 2.294 1_545 S
In39 O41 2.326 1_545 S
In39 O45 2.266 1_545 S
In39 O46 2.326 . S
In39 O47 2.266 . S
In39 O48 2.326 1_545 S
In39 O50 2.294 . S
In39 O51 2.326 . S
O40 In39 2.294 1_565 S
O40 C49 1.240 . S
O41 In39 2.326 1_565 S
O41 C49 1.252 . S
C42 O45 1.253 1_545 S
C42 O46 1.259 . S
C43 O50 1.240 . S
C43 O51 1.252 . S
C44 O47 1.253 . S
C44 O48 1.259 1_545 S
O45 In39 2.266 1_565 S
O45 C42 1.253 1_565 S
O46 In39 2.326 . S
O46 C42 1.259 . S
O47 In39 2.266 . S
O47 C44 1.253 . S
O48 In39 2.326 1_565 S
O48 C44 1.259 1_565 S
C49 O40 1.240 . S
C49 O41 1.252 . S
O50 In39 2.294 . S
O50 C43 1.240 . S
O51 In39 2.326 . S
O51 C43 1.252 . S
H52 C53 0.951 . S
C53 H52 0.951 . S
C53 C59 1.265 1_655 S
H54 C59 0.950 . S
H55 C63 0.949 . S
H56 C64 0.950 . S
H57 C65 0.951 . S
H58 C66 0.951 . S
C59 C53 1.265 1_455 S
C59 H54 0.950 . S
C59 C60 1.478 . S
C60 C59 1.478 . S
C60 C61 1.397 . S
C60 C77 1.394 1_455 S
C61 C60 1.397 . S
C61 C62 1.438 . S
C61 C66 1.429 . S
C62 C61 1.438 . S
C62 C63 1.428 . S
C62 C75 1.394 1_455 S
C63 H55 0.949 . S
C63 C62 1.428 . S
C63 C64 1.345 . S
C64 H56 0.950 . S
C64 C63 1.345 . S
C64 C65 1.424 . S
C65 H57 0.951 . S
C65 C64 1.424 . S
C65 C66 1.347 . S
C66 H58 0.951 . S
C66 C61 1.429 . S
C66 C65 1.347 . S
H67 C68 0.951 . S
C68 H67 0.951 . S
C68 C74 1.265 1_455 S
H69 C74 0.950 . S
H70 C78 0.949 . S
H71 C79 0.950 . S
H72 C80 0.951 . S
H73 C81 0.951 . S
C74 C68 1.265 1_655 S
C74 H69 0.950 . S
C74 C75 1.478 . S
C75 C62 1.394 1_655 S
C75 C74 1.478 . S
C75 C76 1.397 . S
C76 C75 1.397 . S
C76 C77 1.438 . S
C76 C81 1.429 . S
C77 C60 1.394 1_655 S
C77 C76 1.438 . S
C77 C78 1.428 . S
C78 H70 0.949 . S
C78 C77 1.428 . S
C78 C79 1.345 . S
C79 H71 0.950 . S
C79 C78 1.345 . S
C79 C80 1.424 . S
C80 H72 0.951 . S
C80 C79 1.424 . S
C80 C81 1.347 . S
C81 H73 0.951 . S
C81 C76 1.429 . S
C81 C80 1.347 . S
H82 C83 0.951 . S
C83 H82 0.951 . S
C83 C89 1.265 . S
H84 C89 0.950 . S
H85 C93 0.949 . S
H86 C94 0.950 . S
H87 C95 0.951 . S
H88 C96 0.951 . S
C89 C83 1.265 . S
C89 H84 0.950 . S
C89 C90 1.479 . S
C90 C89 1.479 . S
C90 C91 1.416 . S
C90 C107 1.375 1_565 S
C91 C90 1.416 . S
C91 C92 1.438 . S
C91 C96 1.429 . S
C92 C91 1.438 . S
C92 C93 1.428 . S
C92 C105 1.412 . S
C93 H85 0.949 . S
C93 C92 1.428 . S
C93 C94 1.345 . S
C94 H86 0.950 . S
C94 C93 1.345 . S
C94 C95 1.424 . S
C95 H87 0.951 . S
C95 C94 1.424 . S
C95 C96 1.347 . S
C96 H88 0.951 . S
C96 C91 1.429 . S
C96 C95 1.347 . S
H97 C98 0.951 1_545 S
C98 H97 0.951 1_565 S
C98 C104 1.265 . S
H99 C104 0.950 . S
H100 C108 0.949 . S
H101 C109 0.950 . S
H102 C110 0.951 . S
H103 C111 0.951 . S
C104 C98 1.265 . S
C104 H99 0.950 . S
C104 C105 1.478 . S
C105 C92 1.412 . S
C105 C104 1.478 . S
C105 C106 1.379 1_565 S
C106 C105 1.379 1_545 S
C106 C107 1.438 . S
C106 C111 1.429 . S
C107 C90 1.375 1_545 S
C107 C106 1.438 . S
C107 C108 1.428 . S
C108 H100 0.949 . S
C108 C107 1.428 . S
C108 C109 1.345 . S
C109 H101 0.950 . S
C109 C108 1.345 . S
C109 C110 1.424 . S
C110 H102 0.951 . S
C110 C109 1.424 . S
C110 C111 1.347 . S
C111 H103 0.951 . S
C111 C106 1.429 . S
C111 C110 1.347 . S
H112 C113 0.951 . S
C113 H112 0.951 . S
C113 C119 1.265 1_655 S
H114 C119 0.950 . S
H115 C123 0.949 . S
H116 C124 0.950 . S
H117 C125 0.951 . S
H118 C126 0.951 . S
C119 C113 1.265 1_455 S
C119 H114 0.950 . S
C119 C120 1.478 . S
C120 C119 1.478 . S
C120 C121 1.397 . S
C120 C137 1.394 1_455 S
C121 C120 1.397 . S
C121 C122 1.438 . S
C121 C126 1.429 . S
C122 C121 1.438 . S
C122 C123 1.428 . S
C122 C135 1.394 1_455 S
C123 H115 0.949 . S
C123 C122 1.428 . S
C123 C124 1.345 . S
C124 H116 0.950 . S
C124 C123 1.345 . S
C124 C125 1.424 . S
C125 H117 0.951 . S
C125 C124 1.424 . S
C125 C126 1.347 . S
C126 H118 0.951 . S
C126 C121 1.429 . S
C126 C125 1.347 . S
H127 C128 0.951 . S
C128 H127 0.951 . S
C128 C134 1.265 1_455 S
H129 C134 0.950 . S
H130 C138 0.949 . S
H131 C139 0.950 . S
H132 C140 0.951 . S
H133 C141 0.951 . S
C134 C128 1.265 1_655 S
C134 H129 0.950 . S
C134 C135 1.478 . S
C135 C122 1.394 1_655 S
C135 C134 1.478 . S
C135 C136 1.397 . S
C136 C135 1.397 . S
C136 C137 1.438 . S
C136 C141 1.429 . S
C137 C120 1.394 1_655 S
C137 C136 1.438 . S
C137 C138 1.428 . S
C138 H130 0.949 . S
C138 C137 1.428 . S
C138 C139 1.345 . S
C139 H131 0.950 . S
C139 C138 1.345 . S
C139 C140 1.424 . S
C140 H132 0.951 . S
C140 C139 1.424 . S
C140 C141 1.347 . S
C141 H133 0.951 . S
C141 C136 1.429 . S
C141 C140 1.347 . S
H142 C143 0.951 . S
C143 H142 0.951 . S
C143 C149 1.265 1_545 S
H144 C149 0.950 . S
H145 C153 0.949 . S
H146 C154 0.950 . S
H147 C155 0.951 . S
H148 C156 0.951 . S
C149 C143 1.265 1_565 S
C149 H144 0.950 . S
C149 C150 1.478 . S
C150 C149 1.478 . S
C150 C151 1.397 . S
C150 C167 1.394 1_565 S
C151 C150 1.397 . S
C151 C152 1.438 1_554 S
C151 C156 1.429 . S
C152 C151 1.438 1_556 S
C152 C153 1.428 . S
C152 C165 1.394 1_565 S
C153 H145 0.949 . S
C153 C152 1.428 . S
C153 C154 1.345 . S
C154 H146 0.950 . S
C154 C153 1.345 . S
C154 C155 1.424 1_556 S
C155 H147 0.951 . S
C155 C154 1.424 1_554 S
C155 C156 1.347 . S
C156 H148 0.951 . S
C156 C151 1.429 . S
C156 C155 1.347 . S
H157 C158 0.951 1_565 S
C158 H157 0.951 1_545 S
C158 C164 1.265 . S
H159 C164 0.950 . S
H160 C168 0.949 . S
H161 C169 0.950 . S
H162 C170 0.951 . S
H163 C171 0.951 . S
C164 C158 1.265 . S
C164 H159 0.950 . S
C164 C165 1.478 . S
C165 C152 1.394 1_545 S
C165 C164 1.478 . S
C165 C166 1.397 . S
C166 C165 1.397 . S
C166 C167 1.438 1_556 S
C166 C171 1.429 . S
C167 C150 1.394 1_545 S
C167 C166 1.438 1_554 S
C167 C168 1.428 . S
C168 H160 0.949 . S
C168 C167 1.428 . S
C168 C169 1.345 . S
C169 H161 0.950 . S
C169 C168 1.345 . S
C169 C170 1.424 1_554 S
C170 H162 0.951 . S
C170 C169 1.424 1_556 S
C170 C171 1.347 . S
C171 H163 0.951 . S
C171 C166 1.429 . S
C171 C170 1.347 . S
H172 C173 0.951 . S
C173 H172 0.951 . S
C173 C179 1.265 . S
H174 C179 0.950 . S
H175 C183 0.949 . S
H176 C184 0.950 . S
H177 C185 0.951 . S
H178 C186 0.951 . S
C179 C173 1.265 . S
C179 H174 0.950 . S
C179 C180 1.478 . S
C180 C179 1.478 . S
C180 C181 1.397 . S
C180 C197 1.394 . S
C181 C180 1.397 . S
C181 C182 1.438 . S
C181 C186 1.429 . S
C182 C181 1.438 . S
C182 C183 1.428 . S
C182 C195 1.394 . S
C183 H175 0.949 . S
C183 C182 1.428 . S
C183 C184 1.345 . S
C184 H176 0.950 . S
C184 C183 1.345 . S
C184 C185 1.424 . S
C185 H177 0.951 . S
C185 C184 1.424 . S
C185 C186 1.347 . S
C186 H178 0.951 . S
C186 C181 1.429 . S
C186 C185 1.347 . S
H187 C188 0.951 . S
C188 H187 0.951 . S
C188 C194 1.265 . S
H189 C194 0.950 . S
H190 C198 0.949 . S
H191 C199 0.950 1_556 S
H192 C200 0.951 . S
H193 C201 0.951 . S
C194 C188 1.265 . S
C194 H189 0.950 . S
C194 C195 1.478 . S
C195 C182 1.394 . S
C195 C194 1.478 . S
C195 C196 1.397 . S
C196 C195 1.397 . S
C196 C197 1.438 . S
C196 C201 1.429 . S
C197 C180 1.394 . S
C197 C196 1.438 . S
C197 C198 1.428 . S
C198 H190 0.949 . S
C198 C197 1.428 . S
C198 C199 1.345 . S
C199 H191 0.950 1_554 S
C199 C198 1.345 . S
C199 C200 1.424 1_554 S
C200 H192 0.951 . S
C200 C199 1.424 1_556 S
C200 C201 1.347 1_556 S
C201 H193 0.951 . S
C201 C196 1.429 . S
C201 C200 1.347 1_554 S
H202 C203 0.951 . S
C203 H202 0.951 . S
C203 C209 1.265 . S
H204 C209 0.950 . S
H205 C213 0.949 . S
H206 C214 0.950 . S
H207 C215 0.951 . S
H208 C216 0.951 . S
C209 C203 1.265 . S
C209 H204 0.950 . S
C209 C210 1.478 . S
C210 C209 1.478 . S
C210 C211 1.397 . S
C210 C227 1.394 . S
C211 C210 1.397 . S
C211 C212 1.438 . S
C211 C216 1.429 . S
C212 C211 1.438 . S
C212 C213 1.428 . S
C212 C225 1.394 . S
C213 H205 0.949 . S
C213 C212 1.428 . S
C213 C214 1.345 . S
C214 H206 0.950 . S
C214 C213 1.345 . S
C214 C215 1.424 . S
C215 H207 0.951 . S
C215 C214 1.424 . S
C215 C216 1.347 . S
C216 H208 0.951 . S
C216 C211 1.429 . S
C216 C215 1.347 . S
H217 C218 0.951 . S
C218 H217 0.951 . S
C218 C224 1.265 . S
H219 C224 0.950 . S
H220 C228 0.949 . S
H221 C229 0.950 . S
H222 C230 0.951 . S
H223 C231 0.951 . S
C224 C218 1.265 . S
C224 H219 0.950 . S
C224 C225 1.478 . S
C225 C212 1.394 . S
C225 C224 1.478 . S
C225 C226 1.397 . S
C226 C225 1.397 . S
C226 C227 1.438 . S
C226 C231 1.429 . S
C227 C210 1.394 . S
C227 C226 1.438 . S
C227 C228 1.428 . S
C228 H220 0.949 . S
C228 C227 1.428 . S
C228 C229 1.345 . S
C229 H221 0.950 . S
C229 C228 1.345 . S
C229 C230 1.424 . S
C230 H222 0.951 . S
C230 C229 1.424 . S
C230 C231 1.347 . S
C231 H223 0.951 . S
C231 C226 1.429 . S
C231 C230 1.347 . S
H232 C233 0.951 . S
C233 H232 0.951 . S
C233 C239 1.265 . S
H234 C239 0.950 . S
H235 C243 0.949 . S
H236 C244 0.950 . S
H237 C245 0.951 . S
H238 C246 0.951 . S
C239 C233 1.265 . S
C239 H234 0.950 . S
C239 C240 1.478 . S
C240 C239 1.478 . S
C240 C241 1.397 . S
C240 C257 1.394 . S
C241 C240 1.397 . S
C241 C242 1.438 . S
C241 C246 1.429 . S
C242 C241 1.438 . S
C242 C243 1.428 . S
C242 C255 1.394 . S
C243 H235 0.949 . S
C243 C242 1.428 . S
C243 C244 1.345 . S
C244 H236 0.950 . S
C244 C243 1.345 . S
C244 C245 1.424 . S
C245 H237 0.951 . S
C245 C244 1.424 . S
C245 C246 1.347 . S
C246 H238 0.951 . S
C246 C241 1.429 . S
C246 C245 1.347 . S
H247 C248 0.951 . S
C248 H247 0.951 . S
C248 C254 1.265 . S
H249 C254 0.950 . S
H250 C258 0.949 . S
H251 C259 0.950 . S
H252 C260 0.951 . S
H253 C261 0.951 . S
C254 C248 1.265 . S
C254 H249 0.950 . S
C254 C255 1.478 . S
C255 C242 1.394 . S
C255 C254 1.478 . S
C255 C256 1.397 . S
C256 C255 1.397 . S
C256 C257 1.438 . S
C256 C261 1.429 . S
C257 C240 1.394 . S
C257 C256 1.438 . S
C257 C258 1.428 . S
C258 H250 0.949 . S
C258 C257 1.428 . S
C258 C259 1.345 . S
C259 H251 0.950 . S
C259 C258 1.345 . S
C259 C260 1.424 . S
C260 H252 0.951 . S
C260 C259 1.424 . S
C260 C261 1.347 . S
C261 H253 0.951 . S
C261 C256 1.429 . S
C261 C260 1.347 . S
H262 C263 0.951 . S
C263 H262 0.951 . S
C263 C269 1.265 . S
H264 C269 0.950 . S
H265 C273 0.949 . S
H266 C274 0.950 . S
H267 C275 0.951 . S
H268 C276 0.951 . S
C269 C263 1.265 . S
C269 H264 0.950 . S
C269 C270 1.478 . S
C270 C269 1.478 . S
C270 C271 1.397 . S
C270 C287 1.394 . S
C271 C270 1.397 . S
C271 C272 1.438 . S
C271 C276 1.429 . S
C272 C271 1.438 . S
C272 C273 1.428 . S
C272 C285 1.394 . S
C273 H265 0.949 . S
C273 C272 1.428 . S
C273 C274 1.345 . S
C274 H266 0.950 . S
C274 C273 1.345 . S
C274 C275 1.424 . S
C275 H267 0.951 . S
C275 C274 1.424 . S
C275 C276 1.347 . S
C276 H268 0.951 . S
C276 C271 1.429 . S
C276 C275 1.347 . S
H277 C278 0.951 . S
C278 H277 0.951 . S
C278 C284 1.265 . S
H279 C284 0.950 . S
H280 C288 0.949 . S
H281 C289 0.950 . S
H282 C290 0.951 1_554 S
H283 C291 0.951 . S
C284 C278 1.265 . S
C284 H279 0.950 . S
C284 C285 1.478 . S
C285 C272 1.394 . S
C285 C284 1.478 . S
C285 C286 1.397 . S
C286 C285 1.397 . S
C286 C287 1.438 . S
C286 C291 1.429 . S
C287 C270 1.394 . S
C287 C286 1.438 . S
C287 C288 1.428 . S
C288 H280 0.949 . S
C288 C287 1.428 . S
C288 C289 1.345 . S
C289 H281 0.950 . S
C289 C288 1.345 . S
C289 C290 1.424 . S
C290 H282 0.951 1_556 S
C290 C289 1.424 . S
C290 C291 1.347 . S
C291 H283 0.951 . S
C291 C286 1.429 . S
C291 C290 1.347 . S
C53 C5 1.458 1_655 S
C68 C31 1.449 . S
C83 C16 1.445 1_565 S
C98 C42 1.444 1_565 S
C113 C3 1.445 1_655 S
C128 C29 1.453 . S
C143 C18 1.461 . S
C158 C44 1.459 . S
C173 C23 1.547 . S
C188 C10 1.545 . S
C203 C17 1.548 . S
C218 C36 1.542 . S
C233 C43 1.547 . S
C248 C30 1.548 . S
C263 C49 1.548 . S
C278 C4 1.552 . S
