# Generated by pormake.
# Topology lcy, (6)-cn, num edge types: 1
# Building blocks:
#     Node 0, Type 0, BuildingBlock: FUNLAD_clean_sbu_0, # of connection points: 6
#     Node 1, Type 0, BuildingBlock: FUNLAD_clean_sbu_0, # of connection points: 6
#     Node 2, Type 0, BuildingBlock: FUNLAD_clean_sbu_0, # of connection points: 6
#     Node 3, Type 0, BuildingBlock: FUNLAD_clean_sbu_0, # of connection points: 6
#     Edge 4, Type (0, 0), BuildingBlock: FUNLAD_clean_linker_0, # of connection points: 2
#     Edge 5, Type (0, 0), BuildingBlock: FUNLAD_clean_linker_0, # of connection points: 2
#     Edge 6, Type (0, 0), BuildingBlock: FUNLAD_clean_linker_0, # of connection points: 2
#     Edge 7, Type (0, 0), BuildingBlock: FUNLAD_clean_linker_0, # of connection points: 2
#     Edge 8, Type (0, 0), BuildingBlock: FUNLAD_clean_linker_0, # of connection points: 2
#     Edge 9, Type (0, 0), BuildingBlock: FUNLAD_clean_linker_0, # of connection points: 2
#     Edge 10, Type (0, 0), BuildingBlock: FUNLAD_clean_linker_0, # of connection points: 2
#     Edge 11, Type (0, 0), BuildingBlock: FUNLAD_clean_linker_0, # of connection points: 2
#     Edge 12, Type (0, 0), BuildingBlock: FUNLAD_clean_linker_0, # of connection points: 2
#     Edge 13, Type (0, 0), BuildingBlock: FUNLAD_clean_linker_0, # of connection points: 2
#     Edge 14, Type (0, 0), BuildingBlock: FUNLAD_clean_linker_0, # of connection points: 2
#     Edge 15, Type (0, 0), BuildingBlock: FUNLAD_clean_linker_0, # of connection points: 2
# Relax obj value: 0.606
# Max RMSD: 0.343
# Mean RMSD: 0.314
data_MOF--net-lcy--node1-FUNLAD_clean_sbu_0--edge1-FUNLAD_clean_linker_0
_symmetry_space_group_name_H-M    P1
_symmetry_Int_Tables_number       1
_symmetry_cell_setting            triclinic
loop_
_symmetry_equiv_pos_as_xyz
'x, y, z'
_cell_length_a     31.608408
_cell_length_b     31.611443
_cell_length_c     30.8145
_cell_angle_alpha  81.745796
_cell_angle_beta   81.39482
_cell_angle_gamma 73.732567
loop_
_atom_site_label
_atom_site_type_symbol
_atom_site_fract_x
_atom_site_fract_y
_atom_site_fract_z
_atom_type_partial_charge
C0 C 0.31543 0.45735 0.34237 0.0
N1 N 0.43204 0.47903 0.37253 0.0
C2 C 0.44143 0.49291 0.32917 0.0
C3 C 0.46499 0.52507 0.31709 0.0
C4 C 0.47864 0.54311 0.35003 0.0
C5 C 0.46969 0.52705 0.3943 0.0
C6 C 0.44631 0.49493 0.40484 0.0
Zn7 Zn 0.39308 0.4364 0.39244 0.0
C8 C 0.32621 0.46764 0.47071 0.0
N9 N 0.31158 0.349 0.4396 0.0
C10 C 0.29317 0.33546 0.40868 0.0
C11 C 0.30139 0.33787 0.48347 0.0
C12 C 0.27029 0.31346 0.49773 0.0
C13 C 0.24928 0.301 0.46648 0.0
C14 C 0.26161 0.31155 0.42147 0.0
Zn15 Zn 0.35127 0.39063 0.41868 0.0
O16 O 0.34837 0.47124 0.34688 0.0
C17 C 0.41757 0.35585 0.34429 0.0
O18 O 0.30742 0.42488 0.36882 0.0
H19 H 0.31631 0.34914 0.50746 0.0
H20 H 0.4297 0.47988 0.30404 0.0
H21 H 0.30199 0.3443 0.37397 0.0
O22 O 0.42877 0.39186 0.34308 0.0
O23 O 0.38689 0.34809 0.37315 0.0
H24 H 0.43873 0.4834 0.43912 0.0
O25 O 0.39791 0.3564 0.46639 0.0
O26 O 0.43771 0.4018 0.436 0.0
O27 O 0.31501 0.43327 0.46572 0.0
O28 O 0.35738 0.47825 0.44399 0.0
C29 C 0.43278 0.36978 0.46425 0.0
H30 H 0.47103 0.53682 0.28254 0.0
H31 H 0.48021 0.53961 0.42063 0.0
H32 H 0.26135 0.30611 0.53277 0.0
H33 H 0.24641 0.30205 0.39644 0.0
C34 C 0.78668 0.19636 0.61835 0.0
N35 N 0.87075 0.07305 0.58775 0.0
C36 C 0.83672 0.06599 0.57007 0.0
C37 C 0.84561 0.03843 0.53644 0.0
C38 C 0.8898 0.01759 0.52173 0.0
C39 C 0.92413 0.02467 0.54109 0.0
C40 C 0.91383 0.05309 0.57389 0.0
Zn41 Zn 0.85949 0.11455 0.63511 0.0
C42 C 0.91698 0.17561 0.61459 0.0
N43 N 0.84095 0.2007 0.73499 0.0
C44 C 0.80202 0.23083 0.74651 0.0
C45 C 0.87867 0.19914 0.75217 0.0
C46 C 0.87845 0.22869 0.78162 0.0
C47 C 0.83934 0.2611 0.79281 0.0
C48 C 0.80059 0.26194 0.77521 0.0
Zn49 Zn 0.84774 0.15925 0.68746 0.0
O50 O 0.80795 0.16002 0.60328 0.0
C51 C 0.79159 0.09847 0.70917 0.0
O52 O 0.79765 0.20664 0.65278 0.0
H53 H 0.90961 0.17603 0.74177 0.0
H54 H 0.80279 0.08214 0.58168 0.0
H55 H 0.77241 0.23171 0.7324 0.0
O56 O 0.81283 0.08263 0.67405 0.0
O57 O 0.79899 0.13206 0.72154 0.0
H58 H 0.94047 0.05961 0.58787 0.0
O59 O 0.89587 0.10797 0.72297 0.0
O60 O 0.9094 0.06927 0.66675 0.0
O61 O 0.89777 0.18731 0.65183 0.0
O62 O 0.90647 0.14583 0.59831 0.0
C63 C 0.91692 0.0732 0.70487 0.0
H64 H 0.81838 0.03348 0.52199 0.0
H65 H 0.95855 0.00948 0.53 0.0
H66 H 0.90923 0.2277 0.79371 0.0
H67 H 0.7699 0.28681 0.78293 0.0
C68 C 0.17407 0.57472 0.97638 0.0
N69 N 0.18778 0.69918 0.91774 0.0
C70 C 0.18874 0.709 0.95907 0.0
C71 C 0.21095 0.73966 0.96535 0.0
C72 C 0.23242 0.76046 0.92875 0.0
C73 C 0.23116 0.74945 0.88647 0.0
C74 C 0.2085 0.71861 0.88169 0.0
Zn75 Zn 0.15255 0.65622 0.91008 0.0
C76 C 0.19497 0.59572 0.84173 0.0
N77 N 0.07551 0.56825 0.8992 0.0
C78 C 0.05864 0.54346 0.93366 0.0
C79 C 0.067 0.56797 0.8573 0.0
C80 C 0.04006 0.54274 0.84876 0.0
C81 C 0.02201 0.51675 0.88352 0.0
C82 C 0.0318 0.5172 0.92651 0.0
Zn83 Zn 0.11233 0.60954 0.90806 0.0
O84 O 0.18222 0.61171 0.96204 0.0
C85 C 0.06599 0.67117 0.97131 0.0
O86 O 0.14717 0.56192 0.95757 0.0
H87 H 0.08067 0.58789 0.83033 0.0
H88 H 0.17207 0.69314 0.98726 0.0
H89 H 0.06572 0.54428 0.96676 0.0
O90 O 0.09814 0.68825 0.95676 0.0
O91 O 0.06508 0.63547 0.95793 0.0
H92 H 0.20707 0.71053 0.8491 0.0
O93 O 0.07631 0.66071 0.86133 0.0
O94 O 0.1234 0.70038 0.86027 0.0
O95 O 0.16007 0.58325 0.85596 0.0
O96 O 0.20358 0.62507 0.86078 0.0
C97 C 0.08965 0.69509 0.84669 0.0
H98 H 0.21173 0.7466 0.99859 0.0
H99 H 0.24698 0.76496 0.85734 0.0
H100 H 0.03287 0.54434 0.81521 0.0
H101 H 0.01912 0.49734 0.9543 0.0
C102 C 0.58078 0.00385 0.17907 0.0
N103 N 0.70891 0.92318 0.19799 0.0
C104 C 0.72442 0.95924 0.19751 0.0
C105 C 0.76267 0.95529 0.2169 0.0
C106 C 0.78521 0.91377 0.23668 0.0
C107 C 0.76795 0.87735 0.23728 0.0
C108 C 0.72951 0.88286 0.21782 0.0
Zn109 Zn 0.65863 0.92654 0.16278 0.0
C110 C 0.5982 0.87392 0.20655 0.0
N111 N 0.55815 0.93078 0.08388 0.0
C112 C 0.53068 0.96885 0.06657 0.0
C113 C 0.55535 0.89036 0.0763 0.0
C114 C 0.52485 0.88701 0.04965 0.0
C115 C 0.49635 0.92558 0.03112 0.0
C116 C 0.49896 0.96697 0.04019 0.0
Zn117 Zn 0.60631 0.93105 0.12103 0.0
O118 O 0.61987 0.98524 0.18887 0.0
C119 C 0.66574 0.98203 0.0759 0.0
O120 O 0.56438 0.98645 0.15302 0.0
H121 H 0.57697 0.8605 0.09086 0.0
H122 H 0.70759 0.99088 0.18135 0.0
H123 H 0.53355 1.00063 0.07298 0.0
O124 O 0.68697 0.96488 0.10885 0.0
O125 O 0.62888 0.97464 0.07356 0.0
H126 H 0.71685 0.8545 0.21746 0.0
O127 O 0.65201 0.87677 0.08754 0.0
O128 O 0.69718 0.86964 0.13692 0.0
O129 O 0.58269 0.88681 0.16982 0.0
O130 O 0.63048 0.887 0.21459 0.0
C131 C 0.68819 0.85676 0.10334 0.0
H132 H 0.77427 0.98448 0.21663 0.0
H133 H 0.78436 0.84475 0.25197 0.0
H134 H 0.52318 0.85449 0.04401 0.0
H135 H 0.47729 0.99738 0.02646 0.0
C136 C 0.22326 0.56492 0.03584 0.0
C137 C 0.19196 0.55049 0.01783 0.0
C138 C 0.23581 0.54739 0.07777 0.0
C139 C 0.21719 0.51502 0.10337 0.0
C140 C 0.18766 0.49885 0.08451 0.0
C141 C 0.17498 0.51652 0.04234 0.0
C142 C 0.22871 0.49716 0.14921 0.0
C143 C 0.24137 0.52101 0.17568 0.0
C144 C 0.25631 0.50464 0.22053 0.0
C145 C 0.27813 0.52996 0.2386 0.0
C146 C 0.29537 0.51553 0.27903 0.0
C147 C 0.29083 0.4755 0.30317 0.0
H148 H 0.23293 0.44503 0.23339 0.0
C149 C 0.2672 0.45095 0.28633 0.0
C150 C 0.25025 0.46522 0.24539 0.0
H151 H 0.26331 0.4198 0.30392 0.0
H152 H 0.23751 0.59068 0.01788 0.0
H153 H 0.26018 0.55946 0.0899 0.0
H154 H 0.1733 0.4734 0.10299 0.0
H155 H 0.15075 0.50464 0.02965 0.0
H156 H 0.22615 0.46389 0.16113 0.0
H157 H 0.2421 0.55479 0.16341 0.0
H158 H 0.28311 0.56062 0.22072 0.0
H159 H 0.31332 0.53536 0.29084 0.0
C160 C 0.8305 0.88379 0.29956 0.0
C161 C 0.8252 0.90913 0.25847 0.0
C162 C 0.86386 0.88525 0.32374 0.0
C163 C 0.89254 0.91236 0.30731 0.0
C164 C 0.88977 0.93429 0.26444 0.0
C165 C 0.85644 0.9327 0.24021 0.0
C166 C 0.91771 0.92672 0.33676 0.0
C167 C 0.92025 0.91008 0.37923 0.0
C168 C 0.91781 0.93909 0.41362 0.0
C169 C 0.93499 0.9209 0.45363 0.0
C170 C 0.92681 0.9467 0.48876 0.0
C171 C 0.9002 0.99054 0.4846 0.0
H172 H 0.87705 0.99823 0.37959 0.0
C173 C 0.88341 0.00886 0.44458 0.0
C174 C 0.89223 0.9835 0.40936 0.0
H175 H 0.86304 0.04272 0.44072 0.0
H176 H 0.80696 0.8653 0.31461 0.0
H177 H 0.86426 0.86792 0.35661 0.0
H178 H 0.91143 0.95531 0.25087 0.0
H179 H 0.8539 0.95159 0.20802 0.0
H180 H 0.92611 0.95799 0.32593 0.0
H181 H 0.91679 0.87696 0.39044 0.0
H182 H 0.95395 0.88655 0.45795 0.0
H183 H 0.94002 0.93208 0.51957 0.0
C184 C 0.21074 0.54704 0.7806 0.0
C185 C 0.22117 0.58008 0.79988 0.0
C186 C 0.22975 0.53653 0.73819 0.0
C187 C 0.25967 0.55895 0.71347 0.0
C188 C 0.27206 0.59024 0.7336 0.0
C189 C 0.25285 0.60092 0.77622 0.0
C190 C 0.27871 0.5497 0.66713 0.0
C191 C 0.25655 0.53615 0.63975 0.0
C192 C 0.2742 0.52304 0.59428 0.0
C193 C 0.2507 0.50039 0.57485 0.0
C194 C 0.2666 0.48444 0.53386 0.0
C195 C 0.30633 0.49114 0.5105 0.0
H196 H 0.33202 0.54938 0.58329 0.0
C197 C 0.32897 0.5157 0.52865 0.0
C198 C 0.31321 0.53136 0.5702 0.0
H199 H 0.35984 0.52123 0.51164 0.0
H200 H 0.18685 0.52989 0.79787 0.0
H201 H 0.22073 0.51079 0.72493 0.0
H202 H 0.29559 0.60754 0.71577 0.0
H203 H 0.26164 0.62658 0.78992 0.0
H204 H 0.31126 0.55473 0.65566 0.0
H205 H 0.22332 0.53312 0.65175 0.0
H206 H 0.22039 0.49369 0.59212 0.0
H207 H 0.24823 0.46573 0.52096 0.0
C208 C 0.66042 0.04559 0.01857 0.0
C209 C 0.68549 0.00488 0.03709 0.0
C210 C 0.67223 0.06162 0.97525 0.0
C211 C 0.70816 0.03627 0.94954 0.0
C212 C 0.73498 0.99686 0.969 0.0
C213 C 0.72383 0.9814 0.0128 0.0
C214 C 0.71577 0.051 0.90219 0.0
C215 C 0.72671 0.02269 0.87106 0.0
C216 C 0.73456 0.03818 0.8237 0.0
C217 C 0.71196 0.08074 0.80631 0.0
C218 C 0.72736 0.09888 0.76518 0.0
C219 C 0.76485 0.0744 0.74059 0.0
H220 H 0.78547 0.97843 0.80899 0.0
C221 C 0.78342 0.02975 0.75502 0.0
C222 C 0.76825 0.01168 0.79656 0.0
H223 H 0.81267 0.01046 0.73663 0.0
H224 H 0.63033 0.06369 0.03679 0.0
H225 H 0.65152 0.09236 0.96091 0.0
H226 H 0.76359 0.97736 0.95002 0.0
H227 H 0.74303 0.94947 0.02643 0.0
H228 H 0.71006 0.08644 0.89287 0.0
H229 H 0.73272 0.98724 0.88068 0.0
H230 H 0.6843 0.10117 0.82556 0.0
H231 H 0.71245 0.13333 0.75435 0.0
C232 C 0.98541 0.17173 0.56123 0.0
C233 C 0.95259 0.19507 0.59158 0.0
C234 C 0.0209 0.18878 0.54181 0.0
C235 C 0.02371 0.22981 0.55192 0.0
C236 C 0.99005 0.25386 0.58091 0.0
C237 C 0.95511 0.23638 0.60109 0.0
C238 C 0.06119 0.24842 0.53242 0.0
C239 C 0.10317 0.22307 0.52656 0.0
C240 C 0.14086 0.24238 0.50983 0.0
C241 C 0.1816 0.22424 0.52701 0.0
C242 C 0.21705 0.24314 0.51296 0.0
C243 C 0.21259 0.27978 0.48065 0.0
H244 H 0.10594 0.29269 0.46247 0.0
C245 C 0.17225 0.29702 0.46248 0.0
C246 C 0.13665 0.27863 0.47704 0.0
H247 H 0.16794 0.32537 0.43763 0.0
H248 H 0.98425 0.1398 0.55331 0.0
H249 H 0.04595 0.17 0.51877 0.0
H250 H 0.99139 0.28574 0.58883 0.0
H251 H 0.9301 0.25518 0.62417 0.0
H252 H 0.05452 0.28427 0.52612 0.0
H253 H 0.11052 0.18778 0.53744 0.0
H254 H 0.18565 0.19606 0.55206 0.0
H255 H 0.24796 0.22909 0.52719 0.0
C256 C 0.02285 0.75788 0.83806 0.0
C257 C 0.06367 0.73242 0.81946 0.0
C258 C 0.0045 0.80086 0.81889 0.0
C259 C 0.02652 0.81858 0.78049 0.0
C260 C 0.06551 0.79166 0.76017 0.0
C261 C 0.08441 0.74926 0.77996 0.0
C262 C 0.01051 0.86521 0.76131 0.0
C263 C 0.99335 0.89923 0.7862 0.0
C264 C 0.97932 0.94644 0.76713 0.0
C265 C 0.94794 0.97741 0.79216 0.0
C266 C 0.93039 0.02082 0.77337 0.0
C267 C 0.94407 0.03385 0.72922 0.0
H268 H 0.0217 0.93923 0.70458 0.0
C269 C 0.97809 0.0041 0.7055 0.0
C270 C 0.99586 0.96106 0.72431 0.0
H271 H 0.98942 0.01347 0.67144 0.0
H272 H 0.00686 0.74582 0.86911 0.0
H273 H 0.97381 0.82052 0.8347 0.0
H274 H 0.08282 0.80446 0.73035 0.0
H275 H 0.11641 0.73049 0.76566 0.0
H276 H 0.01557 0.87145 0.72563 0.0
H277 H 0.98861 0.89226 0.8219 0.0
H278 H 0.93522 0.96738 0.82553 0.0
H279 H 0.90382 0.04295 0.79222 0.0
C280 C 0.2985 0.79162 0.91122 0.0
C281 C 0.25669 0.79274 0.93488 0.0
C282 C 0.32281 0.81986 0.91919 0.0
C283 C 0.30561 0.8502 0.95087 0.0
C284 C 0.26333 0.852 0.97366 0.0
C285 C 0.23907 0.82371 0.96572 0.0
C286 C 0.33235 0.87696 0.96445 0.0
C287 C 0.36924 0.88466 0.94046 0.0
C288 C 0.40083 0.9017 0.95947 0.0
C289 C 0.44635 0.88482 0.94696 0.0
C290 C 0.47751 0.89433 0.96897 0.0
C291 C 0.46369 0.92168 1.00331 0.0
H292 H 0.35211 0.94613 1.00135 0.0
C293 C 0.41828 0.94149 0.01355 0.0
C294 C 0.38699 0.93147 0.99189 0.0
H295 H 0.40692 0.96285 0.03981 0.0
H296 H 0.31329 0.76766 0.88774 0.0
H297 H 0.35574 0.81613 0.90176 0.0
H298 H 0.24933 0.8748 0.9984 0.0
H299 H 0.20666 0.8258 0.98408 0.0
H300 H 0.32267 0.88808 0.99713 0.0
H301 H 0.37953 0.87356 0.90788 0.0
H302 H 0.45786 0.86221 0.92178 0.0
H303 H 0.51244 0.87911 0.96018 0.0
C304 C 0.41781 0.28967 0.30935 0.0
C305 C 0.43968 0.32156 0.31413 0.0
C306 C 0.4394 0.25309 0.28666 0.0
C307 C 0.48364 0.24735 0.26755 0.0
C308 C 0.50512 0.28009 0.27088 0.0
C309 C 0.48327 0.31707 0.29372 0.0
C310 C 0.50912 0.20581 0.24784 0.0
C311 C 0.48973 0.1778 0.23404 0.0
C312 C 0.51411 0.13337 0.21995 0.0
C313 C 0.49368 0.11281 0.19465 0.0
C314 C 0.51472 0.0704 0.18208 0.0
C315 C 0.5566 0.04733 0.19494 0.0
H316 H 0.57197 0.12372 0.25425 0.0
C317 C 0.57665 0.06752 0.22103 0.0
C318 C 0.55569 0.10992 0.23346 0.0
H319 H 0.60887 0.0507 0.23168 0.0
H320 H 0.38412 0.29211 0.32458 0.0
H321 H 0.42166 0.2285 0.28623 0.0
H322 H 0.5393 0.27645 0.25678 0.0
H323 H 0.50107 0.34092 0.29707 0.0
H324 H 0.54504 0.19797 0.2453 0.0
H325 H 0.45418 0.18764 0.23257 0.0
H326 H 0.46137 0.12975 0.18428 0.0
H327 H 0.49836 0.05594 0.1619 0.0
C328 C 0.70856 0.24439 0.62537 0.0
C329 C 0.74648 0.22322 0.59859 0.0
C330 C 0.66842 0.26408 0.60753 0.0
C331 C 0.66587 0.26371 0.5624 0.0
C332 C 0.70426 0.24412 0.53546 0.0
C333 C 0.74392 0.22341 0.55347 0.0
C334 C 0.62451 0.28544 0.54183 0.0
C335 C 0.58345 0.28512 0.56157 0.0
C336 C 0.54324 0.30771 0.53908 0.0
C337 C 0.50676 0.28937 0.54426 0.0
C338 C 0.46996 0.30957 0.52087 0.0
C339 C 0.46895 0.34878 0.49247 0.0
H340 H 0.56784 0.36376 0.50863 0.0
C341 C 0.50467 0.36797 0.48927 0.0
C342 C 0.54115 0.34781 0.51216 0.0
H343 H 0.50495 0.39858 0.46842 0.0
H344 H 0.7095 0.24423 0.6604 0.0
H345 H 0.63958 0.27985 0.62889 0.0
H346 H 0.70328 0.24391 0.50049 0.0
H347 H 0.77256 0.20713 0.53214 0.0
H348 H 0.6284 0.30022 0.50787 0.0
H349 H 0.57944 0.26638 0.59365 0.0
H350 H 0.50733 0.25875 0.56536 0.0
H351 H 0.44292 0.29412 0.52431 0.0
C352 C 0.95603 0.48475 0.90451 0.0
C353 C 0.99303 0.48982 0.87456 0.0
C354 C 0.92802 0.46084 0.89483 0.0
C355 C 0.93634 0.44183 0.85482 0.0
C356 C 0.97318 0.44683 0.82506 0.0
C357 C 0.00146 0.47002 0.83497 0.0
C358 C 0.9073 0.41706 0.84239 0.0
C359 C 0.88579 0.39209 0.87168 0.0
C360 C 0.86499 0.36106 0.85654 0.0
C361 C 0.87265 0.31746 0.87704 0.0
C362 C 0.86137 0.28517 0.85796 0.0
C363 C 0.84127 0.29631 0.81869 0.0
H364 H 0.83452 0.40661 0.80334 0.0
C365 C 0.82973 0.34079 0.80058 0.0
C366 C 0.84169 0.37293 0.81924 0.0
H367 H 0.81437 0.35014 0.77023 0.0
H368 H 0.94803 0.50014 0.93496 0.0
H369 H 0.89938 0.45826 0.91812 0.0
H370 H 0.98044 0.43228 0.79412 0.0
H371 H 0.03008 0.47226 0.81148 0.0
H372 H 0.90759 0.41549 0.80731 0.0
H373 H 0.88914 0.38947 0.90662 0.0
H374 H 0.89024 0.30766 0.90601 0.0
H375 H 0.87042 0.25106 0.87258 0.0
C376 C 0.00201 0.73716 0.9814 0.0
C377 C 0.02613 0.69493 0.99783 0.0
C378 C 0.9581 0.75467 0.99922 0.0
C379 C 0.93813 0.73044 0.03427 0.0
C380 C 0.9635 0.68975 0.05266 0.0
C381 C 0.00682 0.67172 0.03404 0.0
C382 C 0.89097 0.74651 0.05229 0.0
C383 C 0.85837 0.766 0.02645 0.0
C384 C 0.81074 0.78242 0.04404 0.0
C385 C 0.78205 0.81472 0.01782 0.0
C386 C 0.73902 0.83573 0.03556 0.0
C387 C 0.72411 0.82467 0.07983 0.0
H388 H 0.81361 0.74193 0.1076 0.0
C389 C 0.75112 0.78954 0.10466 0.0
C390 C 0.79376 0.76822 0.08687 0.0
H391 H 0.74029 0.78052 0.13896 0.0
H392 H 0.016 0.75523 0.9529 0.0
H393 H 0.93959 0.78666 0.9851 0.0
H394 H 0.94896 0.67076 0.07999 0.0
H395 H 0.02463 0.63877 0.04671 0.0
H396 H 0.8833 0.74016 0.08769 0.0
H397 H 0.86712 0.7716 0.99102 0.0
H398 H 0.79386 0.82578 0.98445 0.0
H399 H 0.71912 0.86329 0.01598 0.0
C400 C 0.60911 0.80699 0.26196 0.0
C401 C 0.58066 0.84123 0.2375 0.0
C402 C 0.59377 0.77175 0.28522 0.0
C403 C 0.54955 0.77088 0.28497 0.0
C404 C 0.52052 0.80665 0.26299 0.0
C405 C 0.53608 0.84118 0.23887 0.0
C406 C 0.53306 0.73246 0.30569 0.0
C407 C 0.55736 0.6904 0.30232 0.0
C408 C 0.53834 0.65203 0.31636 0.0
C409 C 0.55312 0.61483 0.29264 0.0
C410 C 0.53387 0.57931 0.30345 0.0
C411 C 0.50004 0.58005 0.33876 0.0
H412 H 0.49374 0.68 0.37193 0.0
C413 C 0.48622 0.61674 0.3633 0.0
C414 C 0.50516 0.65233 0.35227 0.0
H415 H 0.46008 0.61834 0.3906 0.0
H416 H 0.64368 0.80626 0.26122 0.0
H417 H 0.6166 0.74491 0.30271 0.0
H418 H 0.48623 0.80682 0.26268 0.0
H419 H 0.51351 0.86733 0.22034 0.0
H420 H 0.49827 0.73901 0.31891 0.0
H421 H 0.59059 0.68419 0.28464 0.0
H422 H 0.57889 0.6137 0.26502 0.0
H423 H 0.54553 0.55122 0.28433 0.0
loop_
_geom_bond_atom_site_label_1
_geom_bond_atom_site_label_2
_geom_bond_distance
_geom_bond_site_symmetry_2
_ccdc_geom_bond_type
C0 O16 1.251 . S
C0 O18 1.254 . S
N1 C2 1.333 . S
N1 C6 1.307 . S
N1 Zn7 2.020 . S
C2 N1 1.333 . S
C2 C3 1.379 . S
C2 H20 0.952 . S
C3 C2 1.379 . S
C3 C4 1.390 . S
C3 H30 0.949 . S
C4 C3 1.390 . S
C4 C5 1.357 . S
C5 C4 1.357 . S
C5 C6 1.370 . S
C5 H31 0.950 . S
C6 N1 1.307 . S
C6 C5 1.370 . S
C6 H24 0.948 . S
Zn7 N1 2.020 . S
Zn7 O16 2.039 . S
Zn7 O22 2.034 . S
Zn7 O26 2.025 . S
Zn7 O28 2.024 . S
C8 O27 1.246 . S
C8 O28 1.249 . S
N9 C10 1.307 . S
N9 C11 1.333 . S
N9 Zn15 2.020 . S
C10 N9 1.307 . S
C10 C14 1.370 . S
C10 H21 0.948 . S
C11 N9 1.333 . S
C11 C12 1.379 . S
C11 H19 0.952 . S
C12 C11 1.379 . S
C12 C13 1.390 . S
C12 H32 0.949 . S
C13 C12 1.390 . S
C13 C14 1.357 . S
C14 C10 1.370 . S
C14 C13 1.357 . S
C14 H33 0.950 . S
Zn15 N9 2.020 . S
Zn15 O18 2.025 . S
Zn15 O23 2.024 . S
Zn15 O25 2.039 . S
Zn15 O27 2.034 . S
O16 C0 1.251 . S
O16 Zn7 2.039 . S
C17 O22 1.246 . S
C17 O23 1.249 . S
O18 C0 1.254 . S
O18 Zn15 2.025 . S
H19 C11 0.952 . S
H20 C2 0.952 . S
H21 C10 0.948 . S
O22 Zn7 2.034 . S
O22 C17 1.246 . S
O23 Zn15 2.024 . S
O23 C17 1.249 . S
H24 C6 0.948 . S
O25 Zn15 2.039 . S
O25 C29 1.251 . S
O26 Zn7 2.025 . S
O26 C29 1.254 . S
O27 C8 1.246 . S
O27 Zn15 2.034 . S
O28 Zn7 2.024 . S
O28 C8 1.249 . S
C29 O25 1.251 . S
C29 O26 1.254 . S
H30 C3 0.949 . S
H31 C5 0.950 . S
H32 C12 0.949 . S
H33 C14 0.950 . S
C34 O50 1.251 . S
C34 O52 1.254 . S
N35 C36 1.333 . S
N35 C40 1.307 . S
N35 Zn41 2.020 . S
C36 N35 1.333 . S
C36 C37 1.379 . S
C36 H54 0.952 . S
C37 C36 1.379 . S
C37 C38 1.390 . S
C37 H64 0.949 . S
C38 C37 1.390 . S
C38 C39 1.357 . S
C39 C38 1.357 . S
C39 C40 1.370 . S
C39 H65 0.950 1_545 S
C40 N35 1.307 . S
C40 C39 1.370 . S
C40 H58 0.948 . S
Zn41 N35 2.020 . S
Zn41 O50 2.039 . S
Zn41 O56 2.034 . S
Zn41 O60 2.025 . S
Zn41 O62 2.024 . S
C42 O61 1.246 . S
C42 O62 1.249 . S
N43 C44 1.307 . S
N43 C45 1.333 . S
N43 Zn49 2.020 . S
C44 N43 1.307 . S
C44 C48 1.370 . S
C44 H55 0.948 . S
C45 N43 1.333 . S
C45 C46 1.379 . S
C45 H53 0.952 . S
C46 C45 1.379 . S
C46 C47 1.390 . S
C46 H66 0.949 . S
C47 C46 1.390 . S
C47 C48 1.357 . S
C48 C44 1.370 . S
C48 C47 1.357 . S
C48 H67 0.950 . S
Zn49 N43 2.020 . S
Zn49 O52 2.025 . S
Zn49 O57 2.024 . S
Zn49 O59 2.039 . S
Zn49 O61 2.034 . S
O50 C34 1.251 . S
O50 Zn41 2.039 . S
C51 O56 1.246 . S
C51 O57 1.249 . S
O52 C34 1.254 . S
O52 Zn49 2.025 . S
H53 C45 0.952 . S
H54 C36 0.952 . S
H55 C44 0.948 . S
O56 Zn41 2.034 . S
O56 C51 1.246 . S
O57 Zn49 2.024 . S
O57 C51 1.249 . S
H58 C40 0.948 . S
O59 Zn49 2.039 . S
O59 C63 1.251 . S
O60 Zn41 2.025 . S
O60 C63 1.254 . S
O61 C42 1.246 . S
O61 Zn49 2.034 . S
O62 Zn41 2.024 . S
O62 C42 1.249 . S
C63 O59 1.251 . S
C63 O60 1.254 . S
H64 C37 0.949 . S
H65 C39 0.950 1_565 S
H66 C46 0.949 . S
H67 C48 0.950 . S
C68 O84 1.251 . S
C68 O86 1.254 . S
N69 C70 1.333 . S
N69 C74 1.307 . S
N69 Zn75 2.020 . S
C70 N69 1.333 . S
C70 C71 1.379 . S
C70 H88 0.952 . S
C71 C70 1.379 . S
C71 C72 1.390 . S
C71 H98 0.924 1_556 S
C72 C71 1.390 . S
C72 C73 1.357 . S
C73 C72 1.357 . S
C73 C74 1.370 . S
C73 H99 0.950 . S
C74 N69 1.307 . S
C74 C73 1.370 . S
C74 H92 0.948 . S
Zn75 N69 2.020 . S
Zn75 O84 2.039 . S
Zn75 O90 2.034 . S
Zn75 O94 2.025 . S
Zn75 O96 2.024 . S
C76 O95 1.246 . S
C76 O96 1.249 . S
N77 C78 1.307 . S
N77 C79 1.333 . S
N77 Zn83 2.020 . S
C78 N77 1.307 . S
C78 C82 1.370 . S
C78 H89 0.948 . S
C79 N77 1.333 . S
C79 C80 1.379 . S
C79 H87 0.952 . S
C80 C79 1.379 . S
C80 C81 1.390 . S
C80 H100 0.949 . S
C81 C80 1.390 . S
C81 C82 1.357 . S
C82 C78 1.370 . S
C82 C81 1.357 . S
C82 H101 0.950 . S
Zn83 N77 2.020 . S
Zn83 O86 2.025 . S
Zn83 O91 2.024 . S
Zn83 O93 2.039 . S
Zn83 O95 2.034 . S
O84 C68 1.251 . S
O84 Zn75 2.039 . S
C85 O90 1.246 . S
C85 O91 1.249 . S
O86 C68 1.254 . S
O86 Zn83 2.025 . S
H87 C79 0.952 . S
H88 C70 0.952 . S
H89 C78 0.948 . S
O90 Zn75 2.034 . S
O90 C85 1.246 . S
O91 Zn83 2.024 . S
O91 C85 1.249 . S
H92 C74 0.948 . S
O93 Zn83 2.039 . S
O93 C97 1.251 . S
O94 Zn75 2.025 . S
O94 C97 1.254 . S
O95 C76 1.246 . S
O95 Zn83 2.034 . S
O96 Zn75 2.024 . S
O96 C76 1.249 . S
C97 O93 1.251 . S
C97 O94 1.254 . S
H98 C71 0.924 1_554 S
H99 C73 0.950 . S
H100 C80 0.949 . S
H101 C82 0.950 . S
C102 O118 1.251 . S
C102 O120 1.254 . S
N103 C104 1.333 . S
N103 C108 1.307 . S
N103 Zn109 2.020 . S
C104 N103 1.333 . S
C104 C105 1.379 . S
C104 H122 0.952 . S
C105 C104 1.379 . S
C105 C106 1.390 . S
C105 H132 0.949 1_565 S
C106 C105 1.390 . S
C106 C107 1.357 . S
C107 C106 1.357 . S
C107 C108 1.370 . S
C107 H133 0.950 . S
C108 N103 1.307 . S
C108 C107 1.370 . S
C108 H126 0.948 . S
Zn109 N103 2.020 . S
Zn109 O118 2.039 . S
Zn109 O124 2.034 . S
Zn109 O128 2.025 . S
Zn109 O130 2.024 . S
C110 O129 1.246 . S
C110 O130 1.249 . S
N111 C112 1.307 . S
N111 C113 1.333 . S
N111 Zn117 2.020 . S
C112 N111 1.307 . S
C112 C116 1.370 . S
C112 H123 0.948 . S
C113 N111 1.333 . S
C113 C114 1.379 . S
C113 H121 0.952 . S
C114 C113 1.379 . S
C114 C115 1.390 1_554 S
C114 H134 0.949 . S
C115 C114 1.390 1_556 S
C115 C116 1.357 1_556 S
C116 C112 1.370 . S
C116 C115 1.357 1_554 S
C116 H135 0.950 1_554 S
Zn117 N111 2.020 . S
Zn117 O120 2.025 . S
Zn117 O125 2.024 . S
Zn117 O127 2.039 . S
Zn117 O129 2.034 . S
O118 C102 1.251 . S
O118 Zn109 2.039 . S
C119 O124 1.246 . S
C119 O125 1.249 . S
O120 C102 1.254 . S
O120 Zn117 2.025 . S
H121 C113 0.952 . S
H122 C104 0.952 . S
H123 C112 0.948 . S
O124 Zn109 2.034 . S
O124 C119 1.246 . S
O125 Zn117 2.024 . S
O125 C119 1.249 . S
H126 C108 0.948 . S
O127 Zn117 2.039 . S
O127 C131 1.251 . S
O128 Zn109 2.025 . S
O128 C131 1.254 . S
O129 C110 1.246 . S
O129 Zn117 2.034 . S
O130 Zn109 2.024 . S
O130 C110 1.249 . S
C131 O127 1.251 . S
C131 O128 1.254 . S
H132 C105 0.949 1_545 S
H133 C107 0.950 . S
H134 C114 0.949 . S
H135 C116 0.950 1_556 S
C136 C137 1.386 . S
C136 C138 1.383 . S
C136 H152 0.951 . S
C137 C136 1.386 . S
C137 C141 1.383 . S
C138 C136 1.383 . S
C138 C139 1.402 . S
C138 H153 0.951 . S
C139 C138 1.402 . S
C139 C140 1.375 . S
C139 C142 1.481 . S
C140 C139 1.375 . S
C140 C141 1.367 . S
C140 H154 0.951 . S
C141 C137 1.383 . S
C141 C140 1.367 . S
C141 H155 0.950 1_554 S
C142 C139 1.481 . S
C142 C143 1.297 . S
C142 H156 0.950 . S
C143 C142 1.297 . S
C143 C144 1.479 . S
C143 H157 0.950 . S
C144 C143 1.479 . S
C144 C145 1.375 . S
C144 C150 1.404 . S
C145 C144 1.375 . S
C145 C146 1.369 . S
C145 H158 0.950 . S
C146 C145 1.369 . S
C146 C147 1.392 . S
C146 H159 0.951 . S
C147 C146 1.392 . S
C147 C149 1.384 . S
H148 C150 0.949 . S
C149 C147 1.384 . S
C149 C150 1.385 . S
C149 H151 0.950 . S
C150 C144 1.404 . S
C150 H148 0.949 . S
C150 C149 1.385 . S
H151 C149 0.950 . S
H152 C136 0.951 . S
H153 C138 0.951 . S
H154 C140 0.951 . S
H155 C141 0.950 1_556 S
H156 C142 0.950 . S
H157 C143 0.950 . S
H158 C145 0.950 . S
H159 C146 0.951 . S
C160 C161 1.386 . S
C160 C162 1.383 . S
C160 H176 0.951 . S
C161 C160 1.386 . S
C161 C165 1.383 1_565 S
C162 C160 1.383 . S
C162 C163 1.402 . S
C162 H177 0.951 . S
C163 C162 1.402 . S
C163 C164 1.375 1_565 S
C163 C166 1.481 1_565 S
C164 C163 1.375 1_545 S
C164 C165 1.367 . S
C164 H178 0.951 . S
C165 C161 1.383 1_545 S
C165 C164 1.367 . S
C165 H179 0.950 . S
C166 C163 1.481 1_545 S
C166 C167 1.297 1_545 S
C166 H180 0.950 . S
C167 C166 1.297 1_565 S
C167 C168 1.479 . S
C167 H181 0.950 . S
C168 C167 1.479 . S
C168 C169 1.375 . S
C168 C174 1.404 1_565 S
C169 C168 1.375 . S
C169 C170 1.369 . S
C169 H182 0.950 . S
C170 C169 1.369 . S
C170 C171 1.392 1_565 S
C170 H183 0.951 . S
C171 C170 1.392 1_545 S
C171 C173 1.384 . S
H172 C174 0.949 . S
C173 C171 1.384 . S
C173 C174 1.385 . S
C173 H175 0.950 . S
C174 C168 1.404 1_545 S
C174 H172 0.949 . S
C174 C173 1.385 . S
H175 C173 0.950 . S
H176 C160 0.951 . S
H177 C162 0.951 . S
H178 C164 0.951 . S
H179 C165 0.950 . S
H180 C166 0.950 . S
H181 C167 0.950 . S
H182 C169 0.950 . S
H183 C170 0.951 . S
C184 C185 1.386 . S
C184 C186 1.383 . S
C184 H200 0.951 . S
C185 C184 1.386 . S
C185 C189 1.383 . S
C186 C184 1.383 . S
C186 C187 1.402 . S
C186 H201 0.951 . S
C187 C186 1.402 . S
C187 C188 1.375 . S
C187 C190 1.481 . S
C188 C187 1.375 . S
C188 C189 1.367 . S
C188 H202 0.951 . S
C189 C185 1.383 . S
C189 C188 1.367 . S
C189 H203 0.950 . S
C190 C187 1.481 . S
C190 C191 1.297 . S
C190 H204 0.950 . S
C191 C190 1.297 . S
C191 C192 1.479 . S
C191 H205 0.950 . S
C192 C191 1.479 . S
C192 C193 1.375 . S
C192 C198 1.404 . S
C193 C192 1.375 . S
C193 C194 1.369 . S
C193 H206 0.950 . S
C194 C193 1.369 . S
C194 C195 1.392 . S
C194 H207 0.951 . S
C195 C194 1.392 . S
C195 C197 1.384 . S
H196 C198 0.949 . S
C197 C195 1.384 . S
C197 C198 1.385 . S
C197 H199 0.950 . S
C198 C192 1.404 . S
C198 H196 0.949 . S
C198 C197 1.385 . S
H199 C197 0.950 . S
H200 C184 0.951 . S
H201 C186 0.951 . S
H202 C188 0.951 . S
H203 C189 0.950 . S
H204 C190 0.950 . S
H205 C191 0.950 . S
H206 C193 0.950 . S
H207 C194 0.951 . S
C208 C209 1.386 1_545 S
C208 C210 1.383 1_554 S
C208 H224 0.951 . S
C209 C208 1.386 1_565 S
C209 C213 1.383 . S
C210 C208 1.383 1_556 S
C210 C211 1.402 . S
C210 H225 0.951 . S
C211 C210 1.402 . S
C211 C212 1.375 1_545 S
C211 C214 1.481 . S
C212 C211 1.375 1_565 S
C212 C213 1.367 1_556 S
C212 H226 0.951 . S
C213 C209 1.383 . S
C213 C212 1.367 1_554 S
C213 H227 0.950 . S
C214 C211 1.481 . S
C214 C215 1.297 . S
C214 H228 0.950 1_545 S
C215 C214 1.297 . S
C215 C216 1.479 . S
C215 H229 0.950 . S
C216 C215 1.479 . S
C216 C217 1.375 . S
C216 C222 1.404 . S
C217 C216 1.375 . S
C217 C218 1.369 . S
C217 H230 0.950 . S
C218 C217 1.369 . S
C218 C219 1.392 . S
C218 H231 0.951 . S
C219 C218 1.392 . S
C219 C221 1.384 . S
H220 C222 0.949 . S
C221 C219 1.384 . S
C221 C222 1.385 . S
C221 H223 0.950 . S
C222 C216 1.404 . S
C222 H220 0.949 . S
C222 C221 1.385 . S
H223 C221 0.950 . S
H224 C208 0.951 . S
H225 C210 0.951 . S
H226 C212 0.951 . S
H227 C213 0.950 . S
H228 C214 0.950 1_565 S
H229 C215 0.950 . S
H230 C217 0.950 . S
H231 C218 0.951 . S
C232 C233 1.386 . S
C232 C234 1.383 1_655 S
C232 H248 0.951 . S
C233 C232 1.386 . S
C233 C237 1.383 . S
C234 C232 1.383 1_455 S
C234 C235 1.402 . S
C234 H249 0.951 . S
C235 C234 1.402 . S
C235 C236 1.375 1_455 S
C235 C238 1.481 . S
C236 C235 1.375 1_655 S
C236 C237 1.367 . S
C236 H250 0.951 . S
C237 C233 1.383 . S
C237 C236 1.367 . S
C237 H251 0.950 . S
C238 C235 1.481 . S
C238 C239 1.297 . S
C238 H252 0.950 . S
C239 C238 1.297 . S
C239 C240 1.479 . S
C239 H253 0.950 . S
C240 C239 1.479 . S
C240 C241 1.375 . S
C240 C246 1.404 . S
C241 C240 1.375 . S
C241 C242 1.369 . S
C241 H254 0.950 . S
C242 C241 1.369 . S
C242 C243 1.392 . S
C242 H255 0.951 . S
C243 C242 1.392 . S
C243 C245 1.384 . S
H244 C246 0.949 . S
C245 C243 1.384 . S
C245 C246 1.385 . S
C245 H247 0.950 . S
C246 C240 1.404 . S
C246 H244 0.949 . S
C246 C245 1.385 . S
H247 C245 0.950 . S
H248 C232 0.951 . S
H249 C234 0.951 . S
H250 C236 0.951 . S
H251 C237 0.950 . S
H252 C238 0.950 . S
H253 C239 0.950 . S
H254 C241 0.950 . S
H255 C242 0.951 . S
C256 C257 1.386 . S
C256 C258 1.383 . S
C256 H272 0.951 . S
C257 C256 1.386 . S
C257 C261 1.383 . S
C258 C256 1.383 . S
C258 C259 1.402 . S
C258 H273 0.951 1_455 S
C259 C258 1.402 . S
C259 C260 1.375 . S
C259 C262 1.481 . S
C260 C259 1.375 . S
C260 C261 1.367 . S
C260 H274 0.951 . S
C261 C257 1.383 . S
C261 C260 1.367 . S
C261 H275 0.950 . S
C262 C259 1.481 . S
C262 C263 1.297 1_455 S
C262 H276 0.950 . S
C263 C262 1.297 1_655 S
C263 C264 1.479 . S
C263 H277 0.950 . S
C264 C263 1.479 . S
C264 C265 1.375 . S
C264 C270 1.404 . S
C265 C264 1.375 . S
C265 C266 1.369 1_565 S
C265 H278 0.950 . S
C266 C265 1.369 1_545 S
C266 C267 1.392 . S
C266 H279 0.951 . S
C267 C266 1.392 . S
C267 C269 1.384 . S
H268 C270 0.954 . S
C269 C267 1.384 . S
C269 C270 1.385 1_545 S
C269 H271 0.950 . S
C270 C264 1.404 . S
C270 H268 0.954 . S
C270 C269 1.385 1_565 S
H271 C269 0.950 . S
H272 C256 0.951 . S
H273 C258 0.951 1_655 S
H274 C260 0.951 . S
H275 C261 0.950 . S
H276 C262 0.950 . S
H277 C263 0.950 . S
H278 C265 0.950 . S
H279 C266 0.951 . S
C280 C281 1.386 . S
C280 C282 1.383 . S
C280 H296 0.951 . S
C281 C280 1.386 . S
C281 C285 1.383 . S
C282 C280 1.383 . S
C282 C283 1.402 . S
C282 H297 0.951 . S
C283 C282 1.402 . S
C283 C284 1.375 1_556 S
C283 C286 1.481 . S
C284 C283 1.375 1_554 S
C284 C285 1.367 1_554 S
C284 H298 0.951 . S
C285 C281 1.383 . S
C285 C284 1.367 1_556 S
C285 H299 0.950 1_556 S
C286 C283 1.481 . S
C286 C287 1.297 . S
C286 H300 0.950 1_556 S
C287 C286 1.297 . S
C287 C288 1.479 . S
C287 H301 0.950 . S
C288 C287 1.479 . S
C288 C289 1.375 . S
C288 C294 1.404 1_556 S
C289 C288 1.375 . S
C289 C290 1.369 . S
C289 H302 0.950 . S
C290 C289 1.369 . S
C290 C291 1.392 . S
C290 H303 0.951 . S
C291 C290 1.392 . S
C291 C293 1.384 1_556 S
H292 C294 0.949 . S
C293 C291 1.384 1_554 S
C293 C294 1.385 . S
C293 H295 0.950 . S
C294 C288 1.404 1_554 S
C294 H292 0.949 . S
C294 C293 1.385 . S
H295 C293 0.950 . S
H296 C280 0.951 . S
H297 C282 0.951 . S
H298 C284 0.951 . S
H299 C285 0.950 1_554 S
H300 C286 0.950 1_554 S
H301 C287 0.950 . S
H302 C289 0.950 . S
H303 C290 0.951 . S
C304 C305 1.386 . S
C304 C306 1.383 . S
C304 H320 0.951 . S
C305 C304 1.386 . S
C305 C309 1.383 . S
C306 C304 1.383 . S
C306 C307 1.402 . S
C306 H321 0.951 . S
C307 C306 1.402 . S
C307 C308 1.375 . S
C307 C310 1.481 . S
C308 C307 1.375 . S
C308 C309 1.367 . S
C308 H322 0.951 . S
C309 C305 1.383 . S
C309 C308 1.367 . S
C309 H323 0.950 . S
C310 C307 1.481 . S
C310 C311 1.297 . S
C310 H324 0.950 . S
C311 C310 1.297 . S
C311 C312 1.479 . S
C311 H325 0.950 . S
C312 C311 1.479 . S
C312 C313 1.375 . S
C312 C318 1.404 . S
C313 C312 1.375 . S
C313 C314 1.369 . S
C313 H326 0.950 . S
C314 C313 1.369 . S
C314 C315 1.392 . S
C314 H327 0.951 . S
C315 C314 1.392 . S
C315 C317 1.384 . S
H316 C318 0.949 . S
C317 C315 1.384 . S
C317 C318 1.385 . S
C317 H319 0.950 . S
C318 C312 1.404 . S
C318 H316 0.949 . S
C318 C317 1.385 . S
H319 C317 0.950 . S
H320 C304 0.951 . S
H321 C306 0.951 . S
H322 C308 0.951 . S
H323 C309 0.950 . S
H324 C310 0.950 . S
H325 C311 0.950 . S
H326 C313 0.950 . S
H327 C314 0.951 . S
C328 C329 1.386 . S
C328 C330 1.383 . S
C328 H344 0.951 . S
C329 C328 1.386 . S
C329 C333 1.383 . S
C330 C328 1.383 . S
C330 C331 1.402 . S
C330 H345 0.951 . S
C331 C330 1.402 . S
C331 C332 1.375 . S
C331 C334 1.481 . S
C332 C331 1.375 . S
C332 C333 1.367 . S
C332 H346 0.951 . S
C333 C329 1.383 . S
C333 C332 1.367 . S
C333 H347 0.950 . S
C334 C331 1.481 . S
C334 C335 1.297 . S
C334 H348 0.950 . S
C335 C334 1.297 . S
C335 C336 1.479 . S
C335 H349 0.950 . S
C336 C335 1.479 . S
C336 C337 1.375 . S
C336 C342 1.404 . S
C337 C336 1.375 . S
C337 C338 1.369 . S
C337 H350 0.950 . S
C338 C337 1.369 . S
C338 C339 1.392 . S
C338 H351 0.951 . S
C339 C338 1.392 . S
C339 C341 1.384 . S
H340 C342 0.949 . S
C341 C339 1.384 . S
C341 C342 1.385 . S
C341 H343 0.950 . S
C342 C336 1.404 . S
C342 H340 0.949 . S
C342 C341 1.385 . S
H343 C341 0.950 . S
H344 C328 0.951 . S
H345 C330 0.951 . S
H346 C332 0.951 . S
H347 C333 0.950 . S
H348 C334 0.950 . S
H349 C335 0.950 . S
H350 C337 0.950 . S
H351 C338 0.951 . S
C352 C353 1.386 . S
C352 C354 1.383 . S
C352 H368 0.951 . S
C353 C352 1.386 . S
C353 C357 1.383 1_655 S
C354 C352 1.383 . S
C354 C355 1.402 . S
C354 H369 0.951 . S
C355 C354 1.402 . S
C355 C356 1.375 1_655 S
C355 C358 1.481 . S
C356 C355 1.375 1_455 S
C356 C357 1.367 . S
C356 H370 0.951 . S
C357 C353 1.383 1_455 S
C357 C356 1.367 . S
C357 H371 0.950 . S
C358 C355 1.481 . S
C358 C359 1.297 . S
C358 H372 0.950 . S
C359 C358 1.297 . S
C359 C360 1.479 . S
C359 H373 0.950 . S
C360 C359 1.479 . S
C360 C361 1.375 . S
C360 C366 1.404 . S
C361 C360 1.375 . S
C361 C362 1.369 . S
C361 H374 0.950 . S
C362 C361 1.369 . S
C362 C363 1.392 . S
C362 H375 0.951 . S
C363 C362 1.392 . S
C363 C365 1.384 . S
H364 C366 0.949 . S
C365 C363 1.384 . S
C365 C366 1.385 . S
C365 H367 0.950 . S
C366 C360 1.404 . S
C366 H364 0.949 . S
C366 C365 1.385 . S
H367 C365 0.950 . S
H368 C352 0.951 . S
H369 C354 0.951 . S
H370 C356 0.951 . S
H371 C357 0.950 . S
H372 C358 0.950 . S
H373 C359 0.950 . S
H374 C361 0.950 . S
H375 C362 0.951 . S
C376 C377 1.386 . S
C376 C378 1.383 1_455 S
C376 H392 0.951 . S
C377 C376 1.386 . S
C377 C381 1.383 1_455 S
C378 C376 1.383 1_655 S
C378 C379 1.402 . S
C378 H393 0.951 1_556 S
C379 C378 1.402 . S
C379 C380 1.375 . S
C379 C382 1.481 1_556 S
C380 C379 1.375 . S
C380 C381 1.367 . S
C380 H394 0.951 . S
C381 C377 1.383 1_655 S
C381 C380 1.367 . S
C381 H395 0.950 1_655 S
C382 C379 1.481 1_554 S
C382 C383 1.297 . S
C382 H396 0.950 . S
C383 C382 1.297 . S
C383 C384 1.479 . S
C383 H397 0.950 . S
C384 C383 1.479 . S
C384 C385 1.375 . S
C384 C390 1.404 . S
C385 C384 1.375 . S
C385 C386 1.369 . S
C385 H398 0.950 . S
C386 C385 1.369 . S
C386 C387 1.392 . S
C386 H399 0.951 . S
C387 C386 1.392 . S
C387 C389 1.384 . S
H388 C390 0.949 . S
C389 C387 1.384 . S
C389 C390 1.385 . S
C389 H391 0.950 . S
C390 C384 1.404 . S
C390 H388 0.949 . S
C390 C389 1.385 . S
H391 C389 0.950 . S
H392 C376 0.951 . S
H393 C378 0.951 1_554 S
H394 C380 0.951 . S
H395 C381 0.950 1_455 S
H396 C382 0.950 . S
H397 C383 0.950 . S
H398 C385 0.950 . S
H399 C386 0.951 . S
C400 C401 1.386 . S
C400 C402 1.383 . S
C400 H416 0.951 . S
C401 C400 1.386 . S
C401 C405 1.383 . S
C402 C400 1.383 . S
C402 C403 1.402 . S
C402 H417 0.951 . S
C403 C402 1.402 . S
C403 C404 1.375 . S
C403 C406 1.481 . S
C404 C403 1.375 . S
C404 C405 1.367 . S
C404 H418 0.951 . S
C405 C401 1.383 . S
C405 C404 1.367 . S
C405 H419 0.950 . S
C406 C403 1.481 . S
C406 C407 1.297 . S
C406 H420 0.950 . S
C407 C406 1.297 . S
C407 C408 1.479 . S
C407 H421 0.950 . S
C408 C407 1.479 . S
C408 C409 1.375 . S
C408 C414 1.404 . S
C409 C408 1.375 . S
C409 C410 1.369 . S
C409 H422 0.950 . S
C410 C409 1.369 . S
C410 C411 1.392 . S
C410 H423 0.951 . S
C411 C410 1.392 . S
C411 C413 1.384 . S
H412 C414 0.949 . S
C413 C411 1.384 . S
C413 C414 1.385 . S
C413 H415 0.950 . S
C414 C408 1.404 . S
C414 H412 0.949 . S
C414 C413 1.385 . S
H415 C413 0.950 . S
H416 C400 0.951 . S
H417 C402 0.951 . S
H418 C404 0.951 . S
H419 C405 0.950 . S
H420 C406 0.950 . S
H421 C407 0.950 . S
H422 C409 0.950 . S
H423 C410 0.951 . S
C137 C68 2.284 1_554 S
C147 C0 2.281 . S
C161 C106 0.719 . S
C171 C38 0.631 . S
C185 C76 2.171 . S
C195 C8 2.212 . S
C209 C119 0.835 . S
C219 C51 0.821 . S
C233 C42 1.594 . S
C243 C13 1.567 . S
C257 C97 1.000 . S
C267 C63 1.025 . S
C281 C72 0.931 . S
C291 C115 0.888 . S
C305 C17 1.965 . S
C315 C102 1.929 1_545 S
C329 C34 1.941 . S
C339 C29 1.936 . S
C353 C81 0.977 1_655 S
C363 C47 0.871 . S
C377 C85 0.993 . S
C387 C131 1.023 . S
C401 C110 1.509 . S
C411 C4 1.500 . S
