# Generated by pormake.
# Topology uou, (4)-cn, num edge types: 1
# Building blocks:
#     Node 0, Type 0, BuildingBlock: AZAVOO_clean_sbu_0, # of connection points: 4
#     Node 1, Type 0, BuildingBlock: AZAVOO_clean_sbu_0, # of connection points: 4
#     Node 2, Type 0, BuildingBlock: AZAVOO_clean_sbu_0, # of connection points: 4
#     Node 3, Type 0, BuildingBlock: AZAVOO_clean_sbu_0, # of connection points: 4
#     Node 4, Type 0, BuildingBlock: AZAVOO_clean_sbu_0, # of connection points: 4
#     Node 5, Type 0, BuildingBlock: AZAVOO_clean_sbu_0, # of connection points: 4
#     Node 6, Type 0, BuildingBlock: AZAVOO_clean_sbu_0, # of connection points: 4
#     Node 7, Type 0, BuildingBlock: AZAVOO_clean_sbu_0, # of connection points: 4
#     Node 8, Type 0, BuildingBlock: AZAVOO_clean_sbu_0, # of connection points: 4
#     Node 9, Type 0, BuildingBlock: AZAVOO_clean_sbu_0, # of connection points: 4
#     Node 10, Type 0, BuildingBlock: AZAVOO_clean_sbu_0, # of connection points: 4
#     Node 11, Type 0, BuildingBlock: AZAVOO_clean_sbu_0, # of connection points: 4
#     Node 12, Type 0, BuildingBlock: AZAVOO_clean_sbu_0, # of connection points: 4
#     Node 13, Type 0, BuildingBlock: AZAVOO_clean_sbu_0, # of connection points: 4
#     Node 14, Type 0, BuildingBlock: AZAVOO_clean_sbu_0, # of connection points: 4
#     Node 15, Type 0, BuildingBlock: AZAVOO_clean_sbu_0, # of connection points: 4
#     Edge 16, Type (0, 0), BuildingBlock: EZIPEK_clean_linker_0, # of connection points: 2
#     Edge 17, Type (0, 0), BuildingBlock: EZIPEK_clean_linker_0, # of connection points: 2
#     Edge 18, Type (0, 0), BuildingBlock: EZIPEK_clean_linker_0, # of connection points: 2
#     Edge 19, Type (0, 0), BuildingBlock: EZIPEK_clean_linker_0, # of connection points: 2
#     Edge 20, Type (0, 0), BuildingBlock: EZIPEK_clean_linker_0, # of connection points: 2
#     Edge 21, Type (0, 0), BuildingBlock: EZIPEK_clean_linker_0, # of connection points: 2
#     Edge 22, Type (0, 0), BuildingBlock: EZIPEK_clean_linker_0, # of connection points: 2
#     Edge 23, Type (0, 0), BuildingBlock: EZIPEK_clean_linker_0, # of connection points: 2
#     Edge 24, Type (0, 0), BuildingBlock: EZIPEK_clean_linker_0, # of connection points: 2
#     Edge 25, Type (0, 0), BuildingBlock: EZIPEK_clean_linker_0, # of connection points: 2
#     Edge 26, Type (0, 0), BuildingBlock: EZIPEK_clean_linker_0, # of connection points: 2
#     Edge 27, Type (0, 0), BuildingBlock: EZIPEK_clean_linker_0, # of connection points: 2
#     Edge 28, Type (0, 0), BuildingBlock: EZIPEK_clean_linker_0, # of connection points: 2
#     Edge 29, Type (0, 0), BuildingBlock: EZIPEK_clean_linker_0, # of connection points: 2
#     Edge 30, Type (0, 0), BuildingBlock: EZIPEK_clean_linker_0, # of connection points: 2
#     Edge 31, Type (0, 0), BuildingBlock: EZIPEK_clean_linker_0, # of connection points: 2
#     Edge 32, Type (0, 0), BuildingBlock: EZIPEK_clean_linker_0, # of connection points: 2
#     Edge 33, Type (0, 0), BuildingBlock: EZIPEK_clean_linker_0, # of connection points: 2
#     Edge 34, Type (0, 0), BuildingBlock: EZIPEK_clean_linker_0, # of connection points: 2
#     Edge 35, Type (0, 0), BuildingBlock: EZIPEK_clean_linker_0, # of connection points: 2
#     Edge 36, Type (0, 0), BuildingBlock: EZIPEK_clean_linker_0, # of connection points: 2
#     Edge 37, Type (0, 0), BuildingBlock: EZIPEK_clean_linker_0, # of connection points: 2
#     Edge 38, Type (0, 0), BuildingBlock: EZIPEK_clean_linker_0, # of connection points: 2
#     Edge 39, Type (0, 0), BuildingBlock: EZIPEK_clean_linker_0, # of connection points: 2
#     Edge 40, Type (0, 0), BuildingBlock: EZIPEK_clean_linker_0, # of connection points: 2
#     Edge 41, Type (0, 0), BuildingBlock: EZIPEK_clean_linker_0, # of connection points: 2
#     Edge 42, Type (0, 0), BuildingBlock: EZIPEK_clean_linker_0, # of connection points: 2
#     Edge 43, Type (0, 0), BuildingBlock: EZIPEK_clean_linker_0, # of connection points: 2
#     Edge 44, Type (0, 0), BuildingBlock: EZIPEK_clean_linker_0, # of connection points: 2
#     Edge 45, Type (0, 0), BuildingBlock: EZIPEK_clean_linker_0, # of connection points: 2
#     Edge 46, Type (0, 0), BuildingBlock: EZIPEK_clean_linker_0, # of connection points: 2
#     Edge 47, Type (0, 0), BuildingBlock: EZIPEK_clean_linker_0, # of connection points: 2
# Relax obj value: 0.175
# Max RMSD: 0.214
# Mean RMSD: 0.188
data_MOF--net-uou--node1-AZAVOO_clean_sbu_0--edge1-EZIPEK_clean_linker_0
_symmetry_space_group_name_H-M    P1
_symmetry_Int_Tables_number       1
_symmetry_cell_setting            triclinic
loop_
_symmetry_equiv_pos_as_xyz
'x, y, z'
_cell_length_a     29.033201
_cell_length_b     26.816982
_cell_length_c     38.632419
_cell_angle_alpha  90.239491
_cell_angle_beta   90.018929
_cell_angle_gamma 89.976884
loop_
_atom_site_label
_atom_site_type_symbol
_atom_site_fract_x
_atom_site_fract_y
_atom_site_fract_z
_atom_type_partial_charge
Mg0 Mg 0.05657 0.12676 0.13086 0.0
O1 O 0.03308 0.06331 0.1659 0.0
O2 O 0.08507 1.00159 0.16271 0.0
Mg3 Mg 0.14442 0.02848 0.12848 0.0
C4 C 0.04768 0.02014 0.17448 0.0
C5 C 0.98915 0.21003 0.12472 0.0
O6 O 0.02972 0.22899 0.11749 0.0
O7 O 0.03992 0.08106 0.08249 0.0
O8 O 0.098 0.02578 0.08055 0.0
O9 O 0.09576 0.16248 0.17493 0.0
O10 O 0.1229 0.10561 0.13851 0.0
C11 C 0.06189 0.04557 0.06767 0.0
C12 C 0.12913 0.13372 0.16507 0.0
O13 O 0.98615 0.16387 0.1316 0.0
Mg14 Mg 0.35469 0.99224 0.12927 0.0
O15 O 0.40334 0.0143 0.17248 0.0
O16 O 0.41459 0.097 0.17179 0.0
Mg17 Mg 0.36625 0.12916 0.13032 0.0
C18 C 0.42251 0.05368 0.18405 0.0
C19 C 0.38031 0.8906 0.16321 0.0
O20 O 0.3627 0.91311 0.19042 0.0
O21 O 0.40983 1.0087 0.0892 0.0
O22 O 0.40651 0.09208 0.08605 0.0
O23 O 0.29185 1.00157 0.16304 0.0
O24 O 0.32503 0.06137 0.13383 0.0
C25 C 0.42041 0.04984 0.0747 0.0
C26 C 0.29272 0.04813 0.15421 0.0
O27 O 0.3794 0.91204 0.13395 0.0
Mg28 Mg 0.55869 0.88458 0.33676 0.0
O29 O 0.53122 0.94458 0.30046 0.0
O30 O 0.57775 0.01113 0.30439 0.0
Mg31 Mg 0.63734 0.99142 0.34075 0.0
C32 C 0.54249 0.98889 0.29198 0.0
C33 C 0.49879 0.79442 0.34014 0.0
O34 O 0.54099 0.77849 0.34546 0.0
O35 O 0.53526 0.92912 0.38398 0.0
O36 O 0.58855 0.9896 0.38738 0.0
O37 O 0.60375 0.85225 0.29455 0.0
O38 O 0.62329 0.91236 0.33114 0.0
C39 C 0.55358 0.9665 0.39933 0.0
C40 C 0.63386 0.88432 0.30537 0.0
O41 O 0.49207 0.84044 0.33439 0.0
Mg42 Mg 0.86443 0.03016 0.33544 0.0
O43 O 0.91176 1.00239 0.29288 0.0
O44 O 0.92092 0.91969 0.29848 0.0
Mg45 Mg 0.87243 0.8936 0.34187 0.0
C46 C 0.92974 0.96106 0.28359 0.0
C47 C 0.87983 0.14297 0.35012 0.0
O48 O 0.84982 0.1332 0.37462 0.0
O49 O 0.91995 0.0164 0.37558 0.0
O50 O 0.91403 0.93412 0.38419 0.0
O51 O 0.80067 0.02002 0.30277 0.0
O52 O 0.83302 0.9619 0.33422 0.0
C53 C 0.92936 0.97715 0.39273 0.0
C54 C 0.80049 0.97441 0.31373 0.0
O55 O 0.8906 0.10921 0.32846 0.0
Mg56 Mg 0.95737 0.97394 0.87639 0.0
O57 O 0.96568 0.8888 0.88157 0.0
O58 O 0.93383 0.86794 0.93142 0.0
Mg59 Mg 0.9107 0.93917 0.96057 0.0
C60 C 0.95387 0.85543 0.90324 0.0
C61 C 0.95069 0.99399 0.79734 0.0
O62 O 0.91998 0.02622 0.80851 0.0
O63 O 0.87914 0.97137 0.86746 0.0
O64 O 0.8542 0.96249 0.92195 0.0
O65 O 0.02575 0.98596 0.90256 0.0
O66 O 0.95884 0.98343 0.92969 0.0
C67 C 0.84698 0.97226 0.89006 0.0
C68 C 0.0027 0.98808 0.93123 0.0
O69 O 0.97221 0.9669 0.81885 0.0
Mg70 Mg 0.55709 0.06642 0.88636 0.0
O71 O 0.55458 0.15255 0.88931 0.0
O72 O 0.59344 0.17382 0.93636 0.0
Mg73 Mg 0.61189 0.10269 0.96716 0.0
C74 C 0.57088 0.18622 0.90931 0.0
C75 C 0.5591 0.03694 0.80913 0.0
O76 O 0.58679 1.0032 0.82228 0.0
O77 O 0.63453 0.06184 0.87478 0.0
O78 O 0.66462 0.07277 0.92756 0.0
O79 O 0.48923 0.06333 0.91355 0.0
O80 O 0.55654 0.06157 0.94027 0.0
C81 C 0.66853 0.06055 0.89572 0.0
C82 C 0.5123 0.06187 0.94224 0.0
O83 O 0.5406 0.06917 0.82893 0.0
Mg84 Mg 0.45913 0.03134 0.59619 0.0
O85 O 0.48157 0.11318 0.59956 0.0
O86 O 0.44989 0.15425 0.55556 0.0
Mg87 Mg 0.41168 0.09565 0.52148 0.0
C88 C 0.47509 0.15318 0.58263 0.0
C89 C 0.51937 0.03737 0.6625 0.0
O90 O 0.5493 0.05385 0.63977 0.0
O91 O 0.38387 0.04488 0.61124 0.0
O92 O 0.35585 0.07109 0.56052 0.0
O93 O 0.52175 0.01392 0.56463 0.0
O94 O 0.45433 0.0342 0.54219 0.0
C95 C 0.35006 0.0542 0.5911 0.0
C96 C 0.49658 0.02177 0.53749 0.0
O97 O 0.47966 0.02359 0.65254 0.0
Mg98 Mg 0.05601 0.9826 0.58593 0.0
O99 O 0.04533 0.89762 0.59026 0.0
O100 O 0.08491 0.86171 0.54739 0.0
Mg101 Mg 0.11518 0.92468 0.51332 0.0
C102 C 0.05778 0.85893 0.57333 0.0
C103 C -0.00564 0.97518 0.65188 0.0
O104 O 0.96612 0.9544 0.62951 0.0
O105 O 0.13173 0.98239 0.6026 0.0
O106 O 0.16594 0.95612 0.55402 0.0
O107 O -0.0081 0.98679 0.55435 0.0
O108 O 0.06127 0.97724 0.53171 0.0
C109 C 0.16779 0.975 0.5844 0.0
C110 C 0.0174 0.98063 0.52717 0.0
O111 O 0.03337 0.99093 0.64187 0.0
Mg112 Mg 0.55402 0.62447 0.16625 0.0
O113 O 0.52922 0.57436 0.21005 0.0
O114 O 0.57231 0.50487 0.20956 0.0
Mg115 Mg 0.62639 0.5123 0.16678 0.0
C116 C 0.53968 0.53146 0.22187 0.0
C117 C 0.50034 0.71978 0.16426 0.0
O118 O 0.54267 0.73172 0.15562 0.0
O119 O 0.52073 0.57256 0.12639 0.0
O120 O 0.56968 0.50866 0.12555 0.0
O121 O 0.6073 0.66114 0.20044 0.0
O122 O 0.61782 0.59305 0.16896 0.0
C123 C 0.53352 0.53027 0.11424 0.0
C124 C 0.63393 0.62517 0.19041 0.0
O125 O 0.49103 0.67455 0.17099 0.0
Mg126 Mg 0.85677 0.4896 0.12522 0.0
O127 O 0.90817 0.51309 0.16683 0.0
O128 O 0.91465 0.59651 0.16722 0.0
Mg129 Mg 0.8642 0.62672 0.12685 0.0
C130 C 0.92551 0.55345 0.17859 0.0
C131 C 0.86061 0.37062 0.12527 0.0
O132 O 0.81563 0.37306 0.12211 0.0
O133 O 0.9074 0.5088 0.0831 0.0
O134 O 0.90626 0.59239 0.08206 0.0
O135 O 0.79784 0.49466 0.16229 0.0
O136 O 0.82488 0.55733 0.13208 0.0
C137 C 0.91931 0.55029 0.06988 0.0
C138 C 0.7962 0.5417 0.15477 0.0
O139 O 0.88438 0.41029 0.12699 0.0
Mg140 Mg 0.06274 0.39996 0.33839 0.0
O141 O 0.03521 0.4558 0.29917 0.0
O142 O 0.08088 0.52327 0.30069 0.0
Mg143 Mg 0.14024 0.50791 0.33835 0.0
C144 C 0.04609 0.49945 0.28899 0.0
C145 C 0.00422 0.30946 0.3457 0.0
O146 O 0.04637 0.29557 0.35344 0.0
O147 O 0.03827 0.44817 0.38333 0.0
O148 O 0.09176 0.50853 0.3854 0.0
O149 O 0.10926 0.36334 0.29899 0.0
O150 O 0.12722 0.42801 0.33193 0.0
C151 C 0.05668 0.48616 0.39785 0.0
C152 C 0.13904 0.39664 0.30842 0.0
O153 O -0.0032 0.35461 0.33762 0.0
Mg154 Mg 0.34675 0.53143 0.38467 0.0
O155 O 0.40038 0.51102 0.34469 0.0
O156 O 0.4117 0.42842 0.34328 0.0
Mg157 Mg 0.36042 0.39491 0.38197 0.0
C158 C 0.42048 0.47246 0.33272 0.0
C159 C 0.36875 0.63399 0.35224 0.0
O160 O 0.34525 0.61355 0.32682 0.0
O161 O 0.39778 0.51484 0.42754 0.0
O162 O 0.39796 0.43132 0.42792 0.0
O163 O 0.2909 0.52315 0.34529 0.0
O164 O 0.31778 0.46189 0.37691 0.0
C165 C 0.40976 0.47336 0.44088 0.0
C166 C 0.29123 0.47596 0.35234 0.0
O167 O 0.37219 0.61135 0.38096 0.0
Mg168 Mg 0.46069 0.49363 0.90991 0.0
O169 O 0.47996 0.41025 0.90728 0.0
O170 O 0.43698 0.36928 0.94561 0.0
Mg171 Mg 0.39562 0.42838 0.97684 0.0
C172 C 0.46787 0.36989 0.92206 0.0
C173 C 0.52726 0.48306 0.84535 0.0
O174 O 0.55182 0.45556 0.86652 0.0
O175 O 0.38855 0.48485 0.88657 0.0
O176 O 0.34956 0.45762 0.93273 0.0
O177 O 0.51662 0.5072 0.9494 0.0
O178 O 0.44501 0.48703 0.96213 0.0
C179 C 0.35074 0.47618 0.90234 0.0
C180 C 0.48575 0.49751 0.97263 0.0
O181 O 0.49078 0.50423 0.85612 0.0
Mg182 Mg 0.06137 0.54725 0.8844 0.0
O183 O 0.04468 0.63174 0.88747 0.0
O184 O 0.07749 0.66132 0.93573 0.0
Mg185 Mg 0.10809 0.59471 0.96575 0.0
C186 C 0.05291 0.66746 0.90863 0.0
C187 C 0.02616 0.50758 0.81443 0.0
O188 O 0.016 0.4699 0.83464 0.0
O189 O 0.1383 0.55597 0.8733 0.0
O190 O 0.16454 0.57199 0.92659 0.0
O191 O -0.00548 0.53226 0.91044 0.0
O192 O 0.06011 0.54503 0.93811 0.0
C193 C 0.17126 0.55966 0.89502 0.0
C194 C 0.01619 0.53887 0.93941 0.0
O195 O 0.04531 0.54609 0.82707 0.0
Mg196 Mg 0.96362 0.54543 0.59571 0.0
O197 O 0.97668 0.63005 0.59511 0.0
O198 O 0.94005 0.6605 0.54906 0.0
Mg199 Mg 0.9064 0.59472 0.51933 0.0
C200 C 0.9661 0.66636 0.57543 0.0
C201 C 0.98397 0.50352 0.66848 0.0
O202 O 0.97037 0.46256 0.65279 0.0
O203 O 0.88807 0.55018 0.61198 0.0
O204 O 0.8549 0.56896 0.56142 0.0
O205 O 0.02704 0.53392 0.5638 0.0
O206 O 0.95719 0.54303 0.54191 0.0
C207 C 0.85242 0.55467 0.59289 0.0
C208 C 0.00053 0.53677 0.5369 0.0
O209 O 0.98594 0.54413 0.6518 0.0
Mg210 Mg 0.56536 0.45946 0.62093 0.0
O211 O 0.56128 0.37382 0.61907 0.0
O212 O 0.5925 0.3473 0.57007 0.0
Mg213 Mg 0.60857 0.41774 0.53751 0.0
C214 C 0.57268 0.33822 0.5989 0.0
C215 C 0.56496 0.49323 0.69852 0.0
O216 O 0.58039 0.53465 0.68468 0.0
O217 O 0.64392 0.46434 0.62673 0.0
O218 O 0.66668 0.44799 0.57255 0.0
O219 O 0.49433 0.46203 0.59891 0.0
O220 O 0.55772 0.46271 0.56715 0.0
C221 C 0.67505 0.46272 0.6034 0.0
C222 C 0.51339 0.46261 0.5686 0.0
O223 O 0.55601 0.45601 0.67923 0.0
C224 C 0.23364 0.07684 0.19794 0.0
C225 C 0.25722 0.08457 0.16602 0.0
C226 C 0.20771 0.1568 0.15623 0.0
C227 C 0.17577 0.13678 0.1794 0.0
N228 N 0.16046 0.08535 0.22826 0.0
N229 N 0.2605 0.13222 0.11189 0.0
C230 C 0.18991 0.09978 0.20276 0.0
C231 C 0.24389 0.12578 0.1447 0.0
N232 N 0.25292 0.04833 0.22329 0.0
N233 N 0.19935 0.20227 0.14193 0.0
H234 H 0.28095 0.10673 0.0987 0.0
H235 H 0.24843 0.16008 0.09548 0.0
H236 H 0.17072 0.22339 0.14937 0.0
H237 H 0.22293 0.22025 0.12589 0.0
H238 H 0.23824 0.0439 0.24767 0.0
H239 H 0.28612 0.03384 0.22125 0.0
H240 H 0.16693 0.05566 0.24484 0.0
H241 H 0.12879 0.10319 0.23183 0.0
C242 C 0.7132 0.8686 0.31913 0.0
C243 C 0.68197 0.88451 0.29384 0.0
C244 C 0.73987 0.94231 0.27224 0.0
C245 C 0.76343 0.93839 0.30451 0.0
N246 N 0.76505 0.90016 0.362 0.0
N247 N 0.66668 0.93104 0.24248 0.0
C248 C 0.74923 0.9011 0.32864 0.0
C249 C 0.69604 0.91911 0.26868 0.0
N250 N 0.7048 0.82555 0.33667 0.0
N251 N 0.75934 0.96726 0.24523 0.0
H252 H 0.63523 0.91261 0.23936 0.0
H253 H 0.67287 0.95974 0.22501 0.0
H254 H 0.79261 0.98178 0.24639 0.0
H255 H 0.7447 0.96848 0.22063 0.0
H256 H 0.72806 0.81052 0.35437 0.0
H257 H 0.6767 0.80289 0.33043 0.0
H258 H 0.75249 0.87532 0.3804 0.0
H259 H 0.78508 0.92794 0.37323 0.0
C260 C 0.7968 0.04634 0.87788 0.0
C261 C 0.80124 0.99366 0.88101 0.0
C262 C 0.71697 0.98543 0.88199 0.0
C263 C 0.713 0.03824 0.88439 0.0
N264 N 0.74768 0.11952 0.88352 0.0
N265 N 0.76678 0.91248 0.88477 0.0
C266 C 0.75253 0.06886 0.88144 0.0
C267 C 0.76155 0.963 0.88213 0.0
N268 N 0.83505 0.0749 0.87213 0.0
N269 N 0.67809 0.95677 0.88017 0.0
H270 H 0.79886 0.89507 0.88289 0.0
H271 H 0.74002 0.88788 0.89002 0.0
H272 H 0.64494 0.97159 0.88133 0.0
H273 H 0.67826 0.91865 0.87508 0.0
H274 H 0.83393 0.11267 0.86618 0.0
H275 H 0.86824 0.0603 0.87079 0.0
H276 H 0.77505 0.1443 0.88603 0.0
H277 H 0.71555 0.13698 0.8841 0.0
C278 C 0.25032 0.96275 0.60104 0.0
C279 C 0.21282 0.99561 0.59615 0.0
C280 C 0.26559 0.06717 0.60127 0.0
C281 C 0.30358 0.03418 0.59963 0.0
N282 N 0.33237 0.94954 0.59546 0.0
N283 N 0.18431 0.07989 0.59012 0.0
C284 C 0.29612 0.9816 0.59959 0.0
C285 C 0.22014 0.04816 0.59658 0.0
N286 N 0.24196 0.91337 0.60694 0.0
N287 N 0.27321 0.11674 0.60721 0.0
H288 H 0.15047 0.06794 0.58673 0.0
H289 H 0.18849 0.11792 0.58584 0.0
H290 H 0.30626 0.13127 0.61069 0.0
H291 H 0.24699 0.14237 0.61195 0.0
H292 H 0.26744 0.88808 0.61409 0.0
H293 H 0.20864 0.89883 0.60807 0.0
H294 H 0.32838 0.91151 0.59081 0.0
H295 H 0.36657 0.96102 0.59408 0.0
C296 C 0.74417 0.61834 0.15382 0.0
C297 C 0.76254 0.57602 0.17163 0.0
C298 C 0.70257 0.58505 0.21568 0.0
C299 C 0.68374 0.62478 0.19664 0.0
N300 N 0.69819 0.69356 0.15909 0.0
N301 N 0.77004 0.5349 0.22715 0.0
C302 C 0.70982 0.64716 0.17042 0.0
C303 C 0.74545 0.56456 0.20526 0.0
N304 N 0.75453 0.62814 0.11999 0.0
N305 N 0.67813 0.56541 0.24245 0.0
H306 H 0.80296 0.52193 0.22121 0.0
H307 H 0.7601 0.52826 0.25264 0.0
H308 H 0.64763 0.58196 0.25099 0.0
H309 H 0.68726 0.53244 0.25489 0.0
H310 H 0.73846 0.65643 0.10604 0.0
H311 H 0.77389 0.60505 0.10402 0.0
H312 H 0.71789 0.71318 0.14116 0.0
H313 H 0.67163 0.71389 0.17071 0.0
C314 C 0.24503 0.39489 0.34649 0.0
C315 C 0.26327 0.43975 0.33183 0.0
C316 C 0.20935 0.43201 0.28351 0.0
C317 C 0.1883 0.39213 0.30082 0.0
N318 N 0.20053 0.31977 0.3352 0.0
N319 N 0.27749 0.48347 0.27814 0.0
C320 C 0.21271 0.36726 0.32681 0.0
C321 C 0.25045 0.45255 0.29738 0.0
N322 N 0.25363 0.38102 0.37989 0.0
N323 N 0.18822 0.45176 0.25526 0.0
H324 H 0.3096 0.49575 0.28685 0.0
H325 H 0.27063 0.49174 0.25232 0.0
H326 H 0.15898 0.43487 0.24465 0.0
H327 H 0.19882 0.48471 0.24348 0.0
H328 H 0.2369 0.35114 0.39161 0.0
H329 H 0.27321 0.40112 0.3975 0.0
H330 H 0.21885 0.29832 0.35296 0.0
H331 H 0.17487 0.30093 0.32141 0.0
C332 C 0.22416 0.48738 0.88197 0.0
C333 C 0.21757 0.53981 0.88579 0.0
C334 C 0.30086 0.55149 0.89212 0.0
C335 C 0.30734 0.49892 0.8893 0.0
N336 N 0.27784 0.41901 0.87227 0.0
N337 N 0.24948 0.62228 0.88461 0.0
C338 C 0.26974 0.46766 0.88093 0.0
C339 C 0.25605 0.57201 0.8874 0.0
N340 N 0.18704 0.456 0.8819 0.0
N341 N 0.3367 0.58152 0.90184 0.0
H342 H 0.21685 0.63789 0.88117 0.0
H343 H 0.27631 0.64781 0.88231 0.0
H344 H 0.37022 0.56864 0.90533 0.0
H345 H 0.33274 0.61888 0.90866 0.0
H346 H 0.18983 0.41738 0.8836 0.0
H347 H 0.15304 0.46838 0.88235 0.0
H348 H 0.25257 0.39506 0.86276 0.0
H349 H 0.31105 0.40407 0.87147 0.0
C350 C 0.76065 0.4559 0.60966 0.0
C351 C 0.72072 0.48608 0.61007 0.0
C352 C 0.76932 0.56141 0.61051 0.0
C353 C 0.8085 0.5313 0.60431 0.0
N354 N 0.8419 0.44942 0.59615 0.0
N355 N 0.68599 0.56798 0.60994 0.0
C356 C 0.80447 0.47832 0.60403 0.0
C357 C 0.72475 0.53903 0.61092 0.0
N358 N 0.75647 0.4057 0.61474 0.0
N359 N 0.77494 0.61139 0.61608 0.0
H360 H 0.65276 0.55336 0.61085 0.0
H361 H 0.68653 0.60639 0.60619 0.0
H362 H 0.80728 0.6284 0.61576 0.0
H363 H 0.74851 0.63504 0.62402 0.0
H364 H 0.78443 0.38189 0.61813 0.0
H365 H 0.72465 0.38859 0.61887 0.0
H366 H 0.83994 0.41128 0.59126 0.0
H367 H 0.87479 0.46384 0.59216 0.0
C368 C 0.94289 0.97038 0.22018 0.0
C369 C 0.9612 0.96199 0.25367 0.0
C370 C 0.03895 0.98032 0.23307 0.0
C371 C 0.02026 0.99167 0.19996 0.0
N372 N 0.95814 0.9837 0.1591 0.0
N373 N 0.02646 0.94567 0.29032 0.0
C374 C 0.97326 0.98215 0.1926 0.0
C375 C 0.00931 0.96214 0.25944 0.0
N376 N 0.89631 0.96853 0.21514 0.0
N377 N 0.08419 0.99013 0.24011 0.0
H378 H 0.00544 0.93348 0.31046 0.0
H379 H 0.06137 0.94001 0.29503 0.0
H380 H 0.10759 1.00168 0.22144 0.0
H381 H 0.0983 0.98931 0.26487 0.0
H382 H 0.88004 0.98031 0.1926 0.0
H383 H 0.87354 0.95668 0.23432 0.0
H384 H 0.92517 0.97321 0.1514 0.0
H385 H 0.98012 0.9912 0.13838 0.0
C386 C 0.50233 0.04648 0.20728 0.0
C387 C 0.45431 0.04799 0.2135 0.0
C388 C 0.46661 0.02376 0.27385 0.0
C389 C 0.51363 0.01483 0.26617 0.0
N390 N 0.57682 0.01557 0.22553 0.0
N391 N 0.38959 0.03879 0.25192 0.0
C392 C 0.53192 0.02649 0.23304 0.0
C393 C 0.43614 0.03725 0.2467 0.0
N394 N 0.51947 0.06369 0.1766 0.0
N395 N 0.45154 0.02049 0.30731 0.0
H396 H 0.36666 0.05191 0.23326 0.0
H397 H 0.37346 0.02524 0.27403 0.0
H398 H 0.47335 0.0115 0.32785 0.0
H399 H 0.41868 0.03091 0.3153 0.0
H400 H 0.55445 0.06841 0.17172 0.0
H401 H 0.49851 0.07723 0.15683 0.0
H402 H 0.59071 0.01703 0.20072 0.0
H403 H 0.5999 1.00197 0.2438 0.0
C404 C 0.98094 0.02789 0.70459 0.0
C405 C 0.98116 0.98008 0.68873 0.0
C406 C 0.9553 0.94253 0.74308 0.0
C407 C 0.96045 0.98939 0.75986 0.0
N408 N 0.98632 0.07493 0.75801 0.0
N409 N 0.97635 0.89052 0.69421 0.0
C410 C 0.97537 0.03171 0.74101 0.0
C411 C 0.97033 0.93695 0.70828 0.0
N412 N 0.98445 0.06981 0.68474 0.0
N413 N 0.9346 0.90381 0.75993 0.0
H414 H 0.98812 0.88464 0.66902 0.0
H415 H 0.97381 0.85781 0.70852 0.0
H416 H 0.92228 0.90663 0.78522 0.0
H417 H 0.92561 0.87047 0.74777 0.0
H418 H 0.97966 0.1057 0.69453 0.0
H419 H 0.98758 0.06866 0.65786 0.0
H420 H 0.00212 0.10511 0.74597 0.0
H421 H 0.98381 0.07905 0.78479 0.0
C422 C 0.52753 0.99205 0.71872 0.0
C423 C 0.53082 0.03709 0.6998 0.0
C424 C 0.55771 0.08073 0.75184 0.0
C425 C 0.54937 0.03708 0.77153 0.0
N426 N 0.51761 0.95398 0.77487 0.0
N427 N 0.54023 0.12665 0.69967 0.0
C428 C 0.53195 0.9934 0.7553 0.0
C429 C 0.54357 0.08215 0.71667 0.0
N430 N 0.52174 0.94769 0.70169 0.0
N431 N 0.58072 0.12015 0.76627 0.0
H432 H 0.52894 0.12964 0.67413 0.0
H433 H 0.54435 0.16104 0.71191 0.0
H434 H 0.59269 0.12023 0.79172 0.0
H435 H 0.59191 0.15073 0.75202 0.0
H436 H 0.52398 0.91321 0.7139 0.0
H437 H 0.51922 0.94501 0.67481 0.0
H438 H 0.50017 0.92338 0.76458 0.0
H439 H 0.51889 0.95394 0.80185 0.0
C440 C 0.47713 0.4762 0.24412 0.0
C441 C 0.51231 0.51164 0.25086 0.0
C442 C 0.49383 0.5103 0.31262 0.0
C443 C 0.45492 0.4802 0.30523 0.0
N444 N 0.40589 0.43864 0.2637 0.0
N445 N 0.55171 0.56675 0.29051 0.0
C446 C 0.44583 0.46361 0.27097 0.0
C447 C 0.52017 0.52976 0.28488 0.0
N448 N 0.47336 0.45501 0.21198 0.0
N449 N 0.50591 0.5195 0.34627 0.0
H450 H 0.572 0.5816 0.27085 0.0
H451 H 0.55516 0.58556 0.314 0.0
H452 H 0.48757 0.50511 0.36721 0.0
H453 H 0.53635 0.53724 0.35348 0.0
H454 H 0.45174 0.42501 0.20652 0.0
H455 H 0.49434 0.46494 0.19121 0.0
H456 H 0.3946 0.43101 0.23865 0.0
H457 H 0.38202 0.42861 0.28258 0.0
C458 C 0.97213 0.53745 0.26949 0.0
C459 C 0.01774 0.52236 0.26162 0.0
C460 C 0.00551 0.54176 0.20035 0.0
C461 C 0.95829 0.54968 0.20756 0.0
N462 N 0.89566 0.55725 0.24808 0.0
N463 N 0.07873 0.50914 0.22018 0.0
C464 C 0.94139 0.54872 0.24198 0.0
C465 C 0.03497 0.52502 0.22727 0.0
N466 N 0.95877 0.54182 0.30332 0.0
N467 N 0.02198 0.55061 0.16779 0.0
H468 H 0.10175 0.49819 0.23937 0.0
H469 H 0.09162 0.50423 0.19527 0.0
H470 H 0.00094 0.56279 0.14761 0.0
H471 H 0.05677 0.55004 0.16135 0.0
H472 H 0.92736 0.55675 0.31116 0.0
H473 H 0.98081 0.53409 0.32397 0.0
H474 H 0.87965 0.55116 0.27178 0.0
H475 H 0.87303 0.56892 0.22876 0.0
C476 C 0.51159 0.47624 0.74806 0.0
C477 C 0.55593 0.49045 0.73621 0.0
C478 C 0.5812 0.5027 0.79627 0.0
C479 C 0.53821 0.48412 0.80795 0.0
N480 N 0.46713 0.44115 0.79489 0.0
N481 N 0.63583 0.50749 0.749 0.0
C482 C 0.50471 0.46736 0.78382 0.0
C483 C 0.59163 0.50105 0.7603 0.0
N484 N 0.47542 0.47336 0.72546 0.0
N485 N 0.61138 0.52354 0.8193 0.0
H486 H 0.64509 0.50544 0.72295 0.0
H487 H 0.66397 0.51012 0.76563 0.0
H488 H 0.6049 0.5256 0.84582 0.0
H489 H 0.64099 0.54256 0.8118 0.0
H490 H 0.44148 0.46817 0.73344 0.0
H491 H 0.47839 0.48137 0.69917 0.0
H492 H 0.44418 0.4237 0.77801 0.0
H493 H 0.46154 0.43218 0.82079 0.0
C494 C 0.97823 0.53523 0.76425 0.0
C495 C 0.01477 0.50552 0.77721 0.0
C496 C 0.03237 0.47585 0.71856 0.0
C497 C -0.00589 0.50322 0.70594 0.0
N498 N 0.92547 0.55144 0.71696 0.0
N499 N 0.07333 0.44293 0.76822 0.0
C500 C 0.96567 0.53103 0.72882 0.0
C501 C 0.0407 0.4742 0.75481 0.0
N502 N 0.95563 0.56761 0.7858 0.0
N503 N 0.06198 0.45347 0.69574 0.0
H504 H 0.08231 0.44267 0.79436 0.0
H505 H 0.08954 0.415 0.75393 0.0
H506 H 0.05706 0.454 0.669 0.0
H507 H 0.0933 0.4377 0.70291 0.0
H508 H 0.93274 0.5947 0.77711 0.0
H509 H 0.96178 0.56963 0.81237 0.0
H510 H 0.90072 0.5675 0.73301 0.0
H511 H 0.91466 0.54849 0.69128 0.0
C512 C 0.92212 0.25319 0.1535 0.0
C513 C 0.94798 0.24255 0.12314 0.0
C514 C 0.90935 0.31026 0.09225 0.0
C515 C 0.88487 0.32225 0.12293 0.0
N516 N 0.8589 0.29929 0.17983 0.0
N517 N 0.957 0.25038 0.06148 0.0
C518 C 0.888 0.29139 0.15254 0.0
C519 C 0.93859 0.26783 0.09179 0.0
N520 N 0.93214 0.22905 0.18369 0.0
N521 N 0.90561 0.34037 0.06389 0.0
H522 H 0.97772 0.21859 0.06035 0.0
H523 H 0.94835 0.26421 0.0372 0.0
H524 H 0.8823 0.36993 0.06255 0.0
H525 H 0.92693 0.33758 0.04231 0.0
H526 H 0.91783 0.23838 0.20751 0.0
H527 H 0.95681 0.20095 0.18546 0.0
H528 H 0.85631 0.27553 0.20097 0.0
H529 H 0.83442 0.32778 0.18007 0.0
C530 C 0.39427 0.80068 0.14872 0.0
C531 C 0.40739 0.84421 0.16723 0.0
C532 C 0.47464 0.80035 0.19035 0.0
C533 C 0.46532 0.75966 0.16784 0.0
N534 N 0.41851 0.72233 0.12303 0.0
N535 N 0.46349 0.88815 0.20221 0.0
C536 C 0.4254 0.75977 0.1466 0.0
C537 C 0.44825 0.8447 0.18745 0.0
N538 N 0.35172 0.79823 0.13366 0.0
N539 N 0.50831 0.79627 0.21492 0.0
H540 H 0.44592 0.92192 0.20033 0.0
H541 H 0.49572 0.89186 0.2138 0.0
H542 H 0.52796 0.76402 0.21808 0.0
H543 H 0.51357 0.8227 0.23436 0.0
H544 H 0.33823 0.76578 0.12278 0.0
H545 H 0.32811 0.82754 0.13486 0.0
H546 H 0.393 0.72336 0.1041 0.0
H547 H 0.44043 0.69172 0.12058 0.0
C548 C 0.43323 0.67623 0.32059 0.0
C549 C 0.3977 0.67843 0.34587 0.0
C550 C 0.42594 0.75982 0.36577 0.0
C551 C 0.46046 0.75815 0.33978 0.0
N552 N 0.48987 0.72165 0.28717 0.0
N553 N 0.35374 0.72633 0.38713 0.0
C554 C 0.46169 0.71853 0.31543 0.0
C555 C 0.39201 0.72159 0.36678 0.0
N556 N 0.4419 0.6328 0.30305 0.0
N557 N 0.42699 0.79632 0.39057 0.0
H558 H 0.32817 0.69905 0.38826 0.0
H559 H 0.34523 0.75897 0.40035 0.0
H560 H 0.45104 0.82518 0.39062 0.0
H561 H 0.40612 0.79611 0.41248 0.0
H562 H 0.4703 0.62777 0.28698 0.0
H563 H 0.42323 0.6001 0.30669 0.0
H564 H 0.48874 0.69656 0.26653 0.0
H565 H 0.51129 0.75219 0.28275 0.0
C566 C 0.96036 0.24661 0.37958 0.0
C567 C 0.9663 0.27278 0.34812 0.0
C568 C 0.90656 0.22115 0.32099 0.0
C569 C 0.90636 0.19009 0.35064 0.0
N570 N 0.93865 0.169 0.40648 0.0
N571 N 0.94792 0.283 0.2876 0.0
C572 C 0.93435 0.2019 0.3797 0.0
C573 C 0.93975 0.26002 0.31851 0.0
N574 N 0.97904 0.265 0.40951 0.0
N575 N 0.87463 0.21381 0.29546 0.0
H576 H 0.97206 0.31138 0.28455 0.0
H577 H 0.93318 0.27153 0.26435 0.0
H578 H 0.84975 0.18581 0.29666 0.0
H579 H 0.87006 0.23811 0.27478 0.0
H580 H 0.97207 0.25009 0.43381 0.0
H581 H -0.0025 0.29837 0.41046 0.0
H582 H 0.96263 0.17335 0.42633 0.0
H583 H 0.92157 0.13488 0.40735 0.0
C584 C 0.0307 0.7457 0.8758 0.0
C585 C 0.02555 0.71457 0.90522 0.0
C586 C 0.96033 0.76635 0.92455 0.0
C587 C 0.97045 0.80206 0.8987 0.0
N588 N -0.00181 0.81136 0.84021 0.0
N589 N 0.9871 0.69829 0.95977 0.0
C590 C 0.00095 0.78786 0.87145 0.0
C591 C -0.00912 0.72578 0.93018 0.0
N592 N 0.06544 0.73626 0.85281 0.0
N593 N 0.9189 0.76815 0.94129 0.0
H594 H 0.00625 0.6663 0.96472 0.0
H595 H 0.96663 0.7092 0.98063 0.0
H596 H 0.89286 0.79279 0.93401 0.0
H597 H 0.90762 0.74059 0.95821 0.0
H598 H 0.07472 0.76055 0.83307 0.0
H599 H 0.08768 0.7059 0.85526 0.0
H600 H 0.0171 0.80081 0.81851 0.0
H601 H 0.97183 0.8363 0.83431 0.0
C602 C 0.49555 0.29847 0.88382 0.0
C603 C 0.49661 0.32431 0.91606 0.0
C604 C 0.56289 0.27353 0.93351 0.0
C605 C 0.55476 0.23992 0.90578 0.0
N606 N 0.52358 0.22934 0.84837 0.0
N607 N 0.52988 0.33306 0.97323 0.0
C608 C 0.52408 0.25515 0.8789 0.0
C609 C 0.52979 0.31077 0.94137 0.0
N610 N 0.46749 0.31563 0.85804 0.0
N611 N 0.60393 0.27246 0.95075 0.0
H612 H 0.50674 0.36092 0.9804 0.0
H613 H 0.55051 0.32065 0.99354 0.0
H614 H 0.63143 0.25047 0.94235 0.0
H615 H 0.61299 0.29864 0.96957 0.0
H616 H 0.46689 0.30143 0.83297 0.0
H617 H 0.44527 0.34583 0.86146 0.0
H618 H 0.49864 0.23345 0.82928 0.0
H619 H 0.55 0.20489 0.84146 0.0
C620 C 0.48452 0.23583 0.61338 0.0
C621 C 0.50319 0.19786 0.59199 0.0
C622 C 0.5757 0.24528 0.58753 0.0
C623 C 0.55475 0.28599 0.60507 0.0
N624 N 0.50004 0.30732 0.65 0.0
N625 N 0.56741 0.16405 0.55999 0.0
C626 C 0.51224 0.27777 0.62262 0.0
C627 C 0.54939 0.20156 0.57991 0.0
N628 N 0.43986 0.23242 0.62429 0.0
N629 N 0.6217 0.24766 0.5802 0.0
H630 H 0.55017 0.13061 0.55531 0.0
H631 H 0.59851 0.16655 0.54676 0.0
H632 H 0.64208 0.27756 0.58835 0.0
H633 H 0.64074 0.21848 0.56965 0.0
H634 H 0.42237 0.26168 0.63627 0.0
H635 H 0.41918 0.20146 0.6191 0.0
H636 H 0.4709 0.30116 0.66508 0.0
H637 H 0.52265 0.33261 0.66142 0.0
C638 C 0.06027 0.76626 0.58392 0.0
C639 C 0.03395 0.81034 0.57975 0.0
C640 C 0.96302 0.75991 0.58192 0.0
C641 C 0.98955 0.7156 0.58039 0.0
N642 N 0.06469 0.67735 0.5738 0.0
N643 N 0.9594 0.8476 0.56816 0.0
C644 C 0.03859 0.71884 0.58013 0.0
C645 C 0.98499 0.80693 0.57736 0.0
N646 N 0.10605 0.76967 0.59176 0.0
N647 N 0.91675 0.75716 0.58803 0.0
H648 H 0.97354 0.88235 0.56271 0.0
H649 H 0.9244 0.84558 0.56239 0.0
H650 H 0.89971 0.72337 0.59185 0.0
H651 H 0.89638 0.78844 0.59286 0.0
H652 H 0.12608 0.73894 0.59845 0.0
H653 H 0.12276 0.80382 0.59505 0.0
H654 H 0.1001 0.67877 0.56956 0.0
H655 H 0.05081 0.64213 0.56927 0.0
C656 C 0.03849 0.05048 0.9711 0.0
C657 C 0.02448 1.00062 0.96465 0.0
C658 C 0.03237 0.9809 0.02623 0.0
C659 C 0.04831 0.03013 0.0324 0.0
N660 N 0.07668 0.10822 0.00992 0.0
N661 N 0.01714 0.91584 0.98385 0.0
C662 C 0.05436 0.06393 0.00459 0.0
C663 C 0.02417 0.965 0.99162 0.0
N664 N 0.03464 0.08562 0.94569 0.0
N665 N 0.02352 0.95005 0.05352 0.0
H666 H 0.0126 0.90328 0.95849 0.0
H667 H 0.02034 0.88719 0.00179 0.0
H668 H 0.02899 0.96064 0.07921 0.0
H669 H 0.00737 0.91558 0.05097 0.0
H670 H 0.03866 0.12369 0.9502 0.0
H671 H 0.02422 0.0773 0.9205 0.0
H672 H 0.0867 0.13173 0.98991 0.0
H673 H 0.08896 0.11961 0.03407 0.0
C674 C 0.45729 0.01874 0.98235 0.0
C675 C 0.4887 0.05819 0.97616 0.0
C676 C 0.48285 0.08347 0.03687 0.0
C677 C 0.44641 0.04908 0.04171 0.0
N678 N 0.39151 0.99202 0.01554 0.0
N679 N 0.52109 0.13613 -0.0045 0.0
C680 C 0.43158 0.01862 0.01358 0.0
C681 C 0.49891 0.09272 0.00292 0.0
N682 N 0.45271 0.98063 0.95901 0.0
N683 N 0.50258 0.10685 0.06463 0.0
H684 H 0.52835 0.14624 0.97016 0.0
H685 H 0.52623 0.1645 0.01362 0.0
H686 H 0.49283 0.09954 0.0901 0.0
H687 H 0.53183 0.12917 0.06248 0.0
H688 H 0.43359 0.94861 0.96415 0.0
H689 H 0.4716 0.97855 0.9361 0.0
H690 H 0.37731 0.97346 0.99431 0.0
H691 H 0.36969 0.99282 0.03692 0.0
C692 C 0.51241 0.04454 0.47559 0.0
C693 C 0.51289 1.00849 0.50237 0.0
C694 C 0.5423 0.94575 0.46179 0.0
C695 C 0.53746 0.98036 0.43435 0.0
N696 N 0.51135 0.06024 0.41378 0.0
N697 N 0.51814 0.92184 0.51915 0.0
C698 C 0.52068 0.02917 0.44086 0.0
C699 C 0.52508 0.95826 0.49502 0.0
N700 N 0.50558 0.09367 0.48353 0.0
N701 N 0.56509 0.90169 0.4566 0.0
H702 H 0.5046 0.92875 0.54369 0.0
H703 H 0.52153 0.88395 0.51363 0.0
H704 H 0.57897 0.89103 0.43281 0.0
H705 H 0.57413 0.87783 0.47671 0.0
H706 H 0.50945 0.12242 0.46574 0.0
H707 H 0.50007 0.10609 0.50876 0.0
H708 H 0.49467 0.09439 0.4166 0.0
H709 H 0.51659 0.0499 0.38801 0.0
C710 C 0.96785 0.02133 0.48215 0.0
C711 C -0.00319 0.98118 0.49195 0.0
C712 C -0.00967 0.94672 0.43338 0.0
C713 C 0.95532 0.98178 0.42566 0.0
N714 N 0.90318 0.04573 0.447 0.0
N715 N 0.02593 0.8991 0.4788 0.0
C716 C 0.94206 0.01758 0.45108 0.0
C717 C 0.00578 0.94215 0.468 0.0
N718 N 0.96561 0.0636 0.50196 0.0
N719 N 0.00921 0.91814 0.4077 0.0
H720 H 0.03276 0.89274 0.50476 0.0
H721 H 0.02984 0.86781 0.46296 0.0
H722 H -9e-05 0.92184 0.38174 0.0
H723 H 0.0375 0.89494 0.41176 0.0
H724 H 0.9483 0.09563 0.49396 0.0
H725 H 0.98506 0.06867 0.5244 0.0
H726 H 0.89018 0.06869 0.46653 0.0
H727 H 0.88093 0.04225 0.42598 0.0
C728 C 0.53227 0.47117 0.0629 0.0
C729 C 0.51099 0.51017 0.08205 0.0
C730 C 0.46801 0.53511 0.03051 0.0
C731 C 0.49506 0.50168 0.01022 0.0
N732 N 0.55556 0.44005 0.00671 0.0
N733 N 0.44152 0.55816 0.08789 0.0
C734 C 0.52785 0.47014 0.02629 0.0
C735 C 0.47354 0.53595 0.06702 0.0
N736 N 0.55288 0.43263 0.07994 0.0
N737 N 0.43936 0.5686 0.01477 0.0
H738 H 0.44219 0.55411 0.11474 0.0
H739 H 0.41123 0.57416 0.0787 0.0
H740 H 0.43555 0.57099 0.98799 0.0
H741 H 0.42284 0.59739 0.02801 0.0
H742 H 0.56593 0.40112 0.0675 0.0
H743 H 0.55036 0.42858 0.10672 0.0
H744 H 0.58359 0.42071 0.01684 0.0
H745 H 0.55269 0.43708 0.97989 0.0
C746 C 0.98832 0.52523 0.03511 0.0
C747 C 0.9449 0.54913 0.03689 0.0
C748 C 0.95004 0.57056 0.97548 0.0
C749 C -0.00877 0.54209 0.97281 0.0
N750 N 0.04308 0.48212 -0.00134 0.0
N751 N 0.87929 0.58421 0.00706 0.0
C752 C 0.00876 0.51669 0.00226 0.0
C753 C 0.92425 0.56892 0.0066 0.0
N754 N 0.01046 0.51149 0.0648 0.0
N755 N 0.93634 0.60088 0.94902 0.0
H756 H 0.85858 0.58276 0.02907 0.0
H757 H 0.86112 0.59359 0.98475 0.0
H758 H 0.95539 0.60598 0.92648 0.0
H759 H 0.90904 0.62592 0.9512 0.0
H760 H 0.04434 0.49869 0.06519 0.0
H761 H -0.00349 0.51729 0.08938 0.0
H762 H 0.0539 0.45917 0.01878 0.0
H763 H 0.05719 0.47217 0.97481 0.0
C764 C 0.03187 0.47586 0.49394 0.0
C765 C 0.01779 0.52527 0.5018 0.0
C766 C 0.02455 0.54793 0.44057 0.0
C767 C 0.04203 0.49962 0.43331 0.0
N768 N 0.07284 0.42166 0.45447 0.0
N769 N 0.00869 0.61077 0.48436 0.0
C770 C 0.04867 0.46467 0.46037 0.0
C771 C 0.01634 0.56208 0.47558 0.0
N772 N 0.02747 0.43896 0.51807 0.0
N773 N 0.01459 0.57962 0.41399 0.0
H774 H 0.00416 0.6222 0.50995 0.0
H775 H 0.01132 0.64017 0.46696 0.0
H776 H 0.02006 0.57021 0.38807 0.0
H777 H -0.00255 0.61341 0.41735 0.0
H778 H 0.032 0.40129 0.51229 0.0
H779 H 0.01535 0.4452 0.54311 0.0
H780 H 0.0831 0.39771 0.47419 0.0
H781 H 0.08671 0.41211 0.43045 0.0
C782 C 0.49342 0.43051 0.50942 0.0
C783 C 0.48531 0.46499 0.53656 0.0
C784 C 0.42391 0.50293 0.50214 0.0
C785 C 0.43722 0.47323 0.47321 0.0
N786 N 0.49349 0.41768 0.44763 0.0
N787 N 0.44881 0.54143 0.55564 0.0
C788 C 0.47479 0.43979 0.47628 0.0
C789 C 0.45229 0.50347 0.53209 0.0
N790 N 0.51616 0.38712 0.5158 0.0
N791 N 0.38315 0.52843 0.50205 0.0
H792 H 0.46969 0.54414 0.57752 0.0
H793 H 0.42834 0.5728 0.55155 0.0
H794 H 0.35973 0.52696 0.48164 0.0
H795 H 0.37025 0.54656 0.52391 0.0
H796 H 0.52009 0.35894 0.49736 0.0
H797 H 0.52475 0.37681 0.54087 0.0
H798 H 0.52329 0.39602 0.44869 0.0
H799 H 0.48248 0.42563 0.42254 0.0
loop_
_geom_bond_atom_site_label_1
_geom_bond_atom_site_label_2
_geom_bond_distance
_geom_bond_site_symmetry_2
_ccdc_geom_bond_type
Mg0 O1 2.028 . S
Mg0 O7 1.986 . S
Mg0 O9 2.114 . S
Mg0 O10 2.251 1_545 S
Mg0 O13 2.010 . S
O1 Mg0 2.028 . S
O1 C4 1.250 . S
O2 Mg3 2.028 . S
O2 C4 1.248 1_565 S
Mg3 O2 2.028 . S
Mg3 O8 2.032 . S
Mg3 O10 2.079 . S
C4 O1 1.250 . S
C4 O2 1.248 1_545 S
C5 O6 1.264 . S
C5 O13 1.249 . S
O6 C5 1.264 . S
O7 Mg0 1.986 . S
O7 C11 1.246 1_545 S
O8 Mg3 2.032 . S
O8 C11 1.259 . S
O9 Mg0 2.114 . S
O9 C12 1.252 . S
O10 Mg0 2.251 1_565 S
O10 Mg3 2.079 . S
O10 C12 1.273 1_565 S
C11 O7 1.246 1_565 S
C11 O8 1.259 . S
C12 O9 1.252 . S
C12 O10 1.273 1_545 S
O13 Mg0 2.010 . S
O13 C5 1.249 . S
Mg14 O15 2.028 . S
Mg14 O21 1.986 . S
Mg14 O23 2.114 . S
Mg14 O24 2.251 1_565 S
Mg14 O27 2.010 . S
O15 Mg14 2.028 . S
O15 C18 1.250 . S
O16 Mg17 2.028 . S
O16 C18 1.248 1_545 S
Mg17 O16 2.028 . S
Mg17 O22 2.032 . S
Mg17 O24 2.079 . S
C18 O15 1.250 . S
C18 O16 1.248 1_565 S
C19 O20 1.264 . S
C19 O27 1.249 . S
O20 C19 1.264 . S
O21 Mg14 1.986 . S
O21 C25 1.246 1_565 S
O22 Mg17 2.032 . S
O22 C25 1.259 . S
O23 Mg14 2.114 . S
O23 C26 1.252 . S
O24 Mg14 2.251 1_545 S
O24 Mg17 2.079 . S
O24 C26 1.273 1_545 S
C25 O21 1.246 1_545 S
C25 O22 1.259 . S
C26 O23 1.252 . S
C26 O24 1.273 1_565 S
O27 Mg14 2.010 . S
O27 C19 1.249 . S
Mg28 O29 2.028 . S
Mg28 O35 1.986 . S
Mg28 O37 2.114 . S
Mg28 O38 2.251 1_565 S
Mg28 O41 2.010 . S
O29 Mg28 2.028 . S
O29 C32 1.250 . S
O30 Mg31 2.028 . S
O30 C32 1.248 1_545 S
Mg31 O30 2.028 . S
Mg31 O36 2.032 . S
Mg31 O38 2.079 . S
C32 O29 1.250 . S
C32 O30 1.248 1_565 S
C33 O34 1.264 . S
C33 O41 1.249 . S
O34 C33 1.264 . S
O35 Mg28 1.986 . S
O35 C39 1.246 1_565 S
O36 Mg31 2.032 . S
O36 C39 1.259 . S
O37 Mg28 2.114 . S
O37 C40 1.252 . S
O38 Mg28 2.251 1_545 S
O38 Mg31 2.079 . S
O38 C40 1.273 1_545 S
C39 O35 1.246 1_545 S
C39 O36 1.259 . S
C40 O37 1.252 . S
C40 O38 1.273 1_565 S
O41 Mg28 2.010 . S
O41 C33 1.249 . S
Mg42 O43 2.028 . S
Mg42 O49 1.986 . S
Mg42 O51 2.114 . S
Mg42 O52 2.251 1_545 S
Mg42 O55 2.010 . S
O43 Mg42 2.028 . S
O43 C46 1.250 . S
O44 Mg45 2.028 . S
O44 C46 1.248 1_565 S
Mg45 O44 2.028 . S
Mg45 O50 2.032 . S
Mg45 O52 2.079 . S
C46 O43 1.250 . S
C46 O44 1.248 1_545 S
C47 O48 1.264 . S
C47 O55 1.249 . S
O48 C47 1.264 . S
O49 Mg42 1.986 . S
O49 C53 1.246 1_545 S
O50 Mg45 2.032 . S
O50 C53 1.259 . S
O51 Mg42 2.114 . S
O51 C54 1.252 . S
O52 Mg42 2.251 1_565 S
O52 Mg45 2.079 . S
O52 C54 1.273 1_565 S
C53 O49 1.246 1_565 S
C53 O50 1.259 . S
C54 O51 1.252 . S
C54 O52 1.273 1_545 S
O55 Mg42 2.010 . S
O55 C47 1.249 . S
Mg56 O57 2.028 . S
Mg56 O63 1.986 . S
Mg56 O65 2.114 1_655 S
Mg56 O66 2.251 . S
Mg56 O69 2.010 . S
O57 Mg56 2.028 . S
O57 C60 1.250 . S
O58 Mg59 2.028 . S
O58 C60 1.248 . S
Mg59 O58 2.028 . S
Mg59 O64 2.032 . S
Mg59 O66 2.079 . S
C60 O57 1.250 . S
C60 O58 1.248 . S
C61 O62 1.264 1_565 S
C61 O69 1.249 . S
O62 C61 1.264 1_545 S
O63 Mg56 1.986 . S
O63 C67 1.246 . S
O64 Mg59 2.032 . S
O64 C67 1.259 . S
O65 Mg56 2.114 1_455 S
O65 C68 1.252 1_455 S
O66 Mg56 2.251 . S
O66 Mg59 2.079 . S
O66 C68 1.273 . S
C67 O63 1.246 . S
C67 O64 1.259 . S
C68 O65 1.252 1_655 S
C68 O66 1.273 . S
O69 Mg56 2.010 . S
O69 C61 1.249 . S
Mg70 O71 2.028 . S
Mg70 O77 1.986 . S
Mg70 O79 2.114 . S
Mg70 O80 2.251 . S
Mg70 O83 2.010 . S
O71 Mg70 2.028 . S
O71 C74 1.250 . S
O72 Mg73 2.028 . S
O72 C74 1.248 . S
Mg73 O72 2.028 . S
Mg73 O78 2.032 . S
Mg73 O80 2.079 . S
C74 O71 1.250 . S
C74 O72 1.248 . S
C75 O76 1.264 1_545 S
C75 O83 1.249 . S
O76 C75 1.264 1_565 S
O77 Mg70 1.986 . S
O77 C81 1.246 . S
O78 Mg73 2.032 . S
O78 C81 1.259 . S
O79 Mg70 2.114 . S
O79 C82 1.252 . S
O80 Mg70 2.251 . S
O80 Mg73 2.079 . S
O80 C82 1.273 . S
C81 O77 1.246 . S
C81 O78 1.259 . S
C82 O79 1.252 . S
C82 O80 1.273 . S
O83 Mg70 2.010 . S
O83 C75 1.249 . S
Mg84 O85 2.028 . S
Mg84 O91 1.986 . S
Mg84 O93 2.114 . S
Mg84 O94 2.251 . S
Mg84 O97 2.010 . S
O85 Mg84 2.028 . S
O85 C88 1.250 . S
O86 Mg87 2.028 . S
O86 C88 1.248 . S
Mg87 O86 2.028 . S
Mg87 O92 2.032 . S
Mg87 O94 2.079 . S
C88 O85 1.250 . S
C88 O86 1.248 . S
C89 O90 1.264 1_545 S
C89 O97 1.249 . S
O90 C89 1.264 1_565 S
O91 Mg84 1.986 . S
O91 C95 1.246 . S
O92 Mg87 2.032 . S
O92 C95 1.259 . S
O93 Mg84 2.114 . S
O93 C96 1.252 . S
O94 Mg84 2.251 . S
O94 Mg87 2.079 . S
O94 C96 1.273 . S
C95 O91 1.246 . S
C95 O92 1.259 . S
C96 O93 1.252 . S
C96 O94 1.273 . S
O97 Mg84 2.010 . S
O97 C89 1.249 . S
Mg98 O99 2.028 . S
Mg98 O105 1.986 . S
Mg98 O107 2.114 1_455 S
Mg98 O108 2.251 . S
Mg98 O111 2.010 . S
O99 Mg98 2.028 . S
O99 C102 1.250 . S
O100 Mg101 2.028 . S
O100 C102 1.248 . S
Mg101 O100 2.028 . S
Mg101 O106 2.032 . S
Mg101 O108 2.079 . S
C102 O99 1.250 . S
C102 O100 1.248 . S
C103 O104 1.264 1_565 S
C103 O111 1.249 . S
O104 C103 1.264 1_545 S
O105 Mg98 1.986 . S
O105 C109 1.246 . S
O106 Mg101 2.032 . S
O106 C109 1.259 . S
O107 Mg98 2.114 1_655 S
O107 C110 1.252 1_655 S
O108 Mg98 2.251 . S
O108 Mg101 2.079 . S
O108 C110 1.273 . S
C109 O105 1.246 . S
C109 O106 1.259 . S
C110 O107 1.252 1_455 S
C110 O108 1.273 . S
O111 Mg98 2.010 . S
O111 C103 1.249 . S
Mg112 O113 2.028 . S
Mg112 O119 1.986 . S
Mg112 O121 2.114 . S
Mg112 O122 2.251 . S
Mg112 O125 2.010 . S
O113 Mg112 2.028 . S
O113 C116 1.250 . S
O114 Mg115 2.028 . S
O114 C116 1.248 . S
Mg115 O114 2.028 . S
Mg115 O120 2.032 . S
Mg115 O122 2.079 . S
C116 O113 1.250 . S
C116 O114 1.248 . S
C117 O118 1.264 . S
C117 O125 1.249 . S
O118 C117 1.264 . S
O119 Mg112 1.986 . S
O119 C123 1.246 . S
O120 Mg115 2.032 . S
O120 C123 1.259 . S
O121 Mg112 2.114 . S
O121 C124 1.252 . S
O122 Mg112 2.251 . S
O122 Mg115 2.079 . S
O122 C124 1.273 . S
C123 O119 1.246 . S
C123 O120 1.259 . S
C124 O121 1.252 . S
C124 O122 1.273 . S
O125 Mg112 2.010 . S
O125 C117 1.249 . S
Mg126 O127 2.028 . S
Mg126 O133 1.986 . S
Mg126 O135 2.114 . S
Mg126 O136 2.251 . S
Mg126 O139 2.010 . S
O127 Mg126 2.028 . S
O127 C130 1.250 . S
O128 Mg129 2.028 . S
O128 C130 1.248 . S
Mg129 O128 2.028 . S
Mg129 O134 2.032 . S
Mg129 O136 2.079 . S
C130 O127 1.250 . S
C130 O128 1.248 . S
C131 O132 1.264 . S
C131 O139 1.249 . S
O132 C131 1.264 . S
O133 Mg126 1.986 . S
O133 C137 1.246 . S
O134 Mg129 2.032 . S
O134 C137 1.259 . S
O135 Mg126 2.114 . S
O135 C138 1.252 . S
O136 Mg126 2.251 . S
O136 Mg129 2.079 . S
O136 C138 1.273 . S
C137 O133 1.246 . S
C137 O134 1.259 . S
C138 O135 1.252 . S
C138 O136 1.273 . S
O139 Mg126 2.010 . S
O139 C131 1.249 . S
Mg140 O141 2.028 . S
Mg140 O147 1.986 . S
Mg140 O149 2.114 . S
Mg140 O150 2.251 . S
Mg140 O153 2.010 . S
O141 Mg140 2.028 . S
O141 C144 1.250 . S
O142 Mg143 2.028 . S
O142 C144 1.248 . S
Mg143 O142 2.028 . S
Mg143 O148 2.032 . S
Mg143 O150 2.079 . S
C144 O141 1.250 . S
C144 O142 1.248 . S
C145 O146 1.264 . S
C145 O153 1.249 . S
O146 C145 1.264 . S
O147 Mg140 1.986 . S
O147 C151 1.246 . S
O148 Mg143 2.032 . S
O148 C151 1.259 . S
O149 Mg140 2.114 . S
O149 C152 1.252 . S
O150 Mg140 2.251 . S
O150 Mg143 2.079 . S
O150 C152 1.273 . S
C151 O147 1.246 . S
C151 O148 1.259 . S
C152 O149 1.252 . S
C152 O150 1.273 . S
O153 Mg140 2.010 . S
O153 C145 1.249 . S
Mg154 O155 2.028 . S
Mg154 O161 1.986 . S
Mg154 O163 2.114 . S
Mg154 O164 2.251 . S
Mg154 O167 2.010 . S
O155 Mg154 2.028 . S
O155 C158 1.250 . S
O156 Mg157 2.028 . S
O156 C158 1.248 . S
Mg157 O156 2.028 . S
Mg157 O162 2.032 . S
Mg157 O164 2.079 . S
C158 O155 1.250 . S
C158 O156 1.248 . S
C159 O160 1.264 . S
C159 O167 1.249 . S
O160 C159 1.264 . S
O161 Mg154 1.986 . S
O161 C165 1.246 . S
O162 Mg157 2.032 . S
O162 C165 1.259 . S
O163 Mg154 2.114 . S
O163 C166 1.252 . S
O164 Mg154 2.251 . S
O164 Mg157 2.079 . S
O164 C166 1.273 . S
C165 O161 1.246 . S
C165 O162 1.259 . S
C166 O163 1.252 . S
C166 O164 1.273 . S
O167 Mg154 2.010 . S
O167 C159 1.249 . S
Mg168 O169 2.028 . S
Mg168 O175 1.986 . S
Mg168 O177 2.114 . S
Mg168 O178 2.251 . S
Mg168 O181 2.010 . S
O169 Mg168 2.028 . S
O169 C172 1.250 . S
O170 Mg171 2.028 . S
O170 C172 1.248 . S
Mg171 O170 2.028 . S
Mg171 O176 2.032 . S
Mg171 O178 2.079 . S
C172 O169 1.250 . S
C172 O170 1.248 . S
C173 O174 1.264 . S
C173 O181 1.249 . S
O174 C173 1.264 . S
O175 Mg168 1.986 . S
O175 C179 1.246 . S
O176 Mg171 2.032 . S
O176 C179 1.259 . S
O177 Mg168 2.114 . S
O177 C180 1.252 . S
O178 Mg168 2.251 . S
O178 Mg171 2.079 . S
O178 C180 1.273 . S
C179 O175 1.246 . S
C179 O176 1.259 . S
C180 O177 1.252 . S
C180 O178 1.273 . S
O181 Mg168 2.010 . S
O181 C173 1.249 . S
Mg182 O183 2.028 . S
Mg182 O189 1.986 . S
Mg182 O191 2.114 1_455 S
Mg182 O192 2.251 . S
Mg182 O195 2.010 . S
O183 Mg182 2.028 . S
O183 C186 1.250 . S
O184 Mg185 2.028 . S
O184 C186 1.248 . S
Mg185 O184 2.028 . S
Mg185 O190 2.032 . S
Mg185 O192 2.079 . S
C186 O183 1.250 . S
C186 O184 1.248 . S
C187 O188 1.264 . S
C187 O195 1.249 . S
O188 C187 1.264 . S
O189 Mg182 1.986 . S
O189 C193 1.246 . S
O190 Mg185 2.032 . S
O190 C193 1.259 . S
O191 Mg182 2.114 1_655 S
O191 C194 1.252 1_655 S
O192 Mg182 2.251 . S
O192 Mg185 2.079 . S
O192 C194 1.273 . S
C193 O189 1.246 . S
C193 O190 1.259 . S
C194 O191 1.252 1_455 S
C194 O192 1.273 . S
O195 Mg182 2.010 . S
O195 C187 1.249 . S
Mg196 O197 2.028 . S
Mg196 O203 1.986 . S
Mg196 O205 2.114 1_655 S
Mg196 O206 2.251 . S
Mg196 O209 2.010 . S
O197 Mg196 2.028 . S
O197 C200 1.250 . S
O198 Mg199 2.028 . S
O198 C200 1.248 . S
Mg199 O198 2.028 . S
Mg199 O204 2.032 . S
Mg199 O206 2.079 . S
C200 O197 1.250 . S
C200 O198 1.248 . S
C201 O202 1.264 . S
C201 O209 1.249 . S
O202 C201 1.264 . S
O203 Mg196 1.986 . S
O203 C207 1.246 . S
O204 Mg199 2.032 . S
O204 C207 1.259 . S
O205 Mg196 2.114 1_455 S
O205 C208 1.252 1_455 S
O206 Mg196 2.251 . S
O206 Mg199 2.079 . S
O206 C208 1.273 . S
C207 O203 1.246 . S
C207 O204 1.259 . S
C208 O205 1.252 1_655 S
C208 O206 1.273 . S
O209 Mg196 2.010 . S
O209 C201 1.249 . S
Mg210 O211 2.028 . S
Mg210 O217 1.986 . S
Mg210 O219 2.114 . S
Mg210 O220 2.251 . S
Mg210 O223 2.010 . S
O211 Mg210 2.028 . S
O211 C214 1.250 . S
O212 Mg213 2.028 . S
O212 C214 1.248 . S
Mg213 O212 2.028 . S
Mg213 O218 2.032 . S
Mg213 O220 2.079 . S
C214 O211 1.250 . S
C214 O212 1.248 . S
C215 O216 1.264 . S
C215 O223 1.249 . S
O216 C215 1.264 . S
O217 Mg210 1.986 . S
O217 C221 1.246 . S
O218 Mg213 2.032 . S
O218 C221 1.259 . S
O219 Mg210 2.114 . S
O219 C222 1.252 . S
O220 Mg210 2.251 . S
O220 Mg213 2.079 . S
O220 C222 1.273 . S
C221 O217 1.246 . S
C221 O218 1.259 . S
C222 O219 1.252 . S
C222 O220 1.273 . S
O223 Mg210 2.010 . S
O223 C215 1.249 . S
C224 C225 1.363 . S
C224 C230 1.379 . S
C224 N232 1.356 . S
C225 C224 1.363 . S
C225 C231 1.363 1_565 S
C226 C227 1.363 . S
C226 C231 1.379 . S
C226 N233 1.356 . S
C227 C226 1.363 . S
C227 C230 1.363 1_545 S
N228 C230 1.356 . S
N228 H240 0.984 . S
N228 H241 0.985 . S
N229 C231 1.356 . S
N229 H234 0.984 . S
N229 H235 0.985 . S
C230 C224 1.379 . S
C230 C227 1.363 1_565 S
C230 N228 1.356 . S
C231 C225 1.363 1_545 S
C231 C226 1.379 . S
C231 N229 1.356 . S
N232 C224 1.356 . S
N232 H238 0.984 . S
N232 H239 0.984 . S
N233 C226 1.356 . S
N233 H236 0.984 . S
N233 H237 0.985 . S
H234 N229 0.984 . S
H235 N229 0.985 . S
H236 N233 0.984 . S
H237 N233 0.985 . S
H238 N232 0.984 . S
H239 N232 0.984 . S
H240 N228 0.984 . S
H241 N228 0.985 . S
C242 C243 1.363 1_545 S
C242 C248 1.379 . S
C242 N250 1.356 . S
C243 C242 1.363 1_565 S
C243 C249 1.363 . S
C244 C245 1.363 1_565 S
C244 C249 1.379 . S
C244 N251 1.356 . S
C245 C244 1.363 1_545 S
C245 C248 1.363 . S
N246 C248 1.356 . S
N246 H258 0.984 . S
N246 H259 0.985 . S
N247 C249 1.356 . S
N247 H252 0.984 . S
N247 H253 0.985 . S
C248 C242 1.379 . S
C248 C245 1.363 . S
C248 N246 1.356 . S
C249 C243 1.363 . S
C249 C244 1.379 . S
C249 N247 1.356 . S
N250 C242 1.356 . S
N250 H256 0.984 . S
N250 H257 0.984 . S
N251 C244 1.356 . S
N251 H254 0.984 . S
N251 H255 0.985 . S
H252 N247 0.984 . S
H253 N247 0.985 . S
H254 N251 0.984 . S
H255 N251 0.985 . S
H256 N250 0.984 . S
H257 N250 0.984 . S
H258 N246 0.984 . S
H259 N246 0.985 . S
C260 C261 1.363 1_545 S
C260 C266 1.379 . S
C260 N268 1.358 . S
C261 C260 1.363 1_565 S
C261 C267 1.363 . S
C262 C263 1.363 1_565 S
C262 C267 1.379 . S
C262 N269 1.358 . S
C263 C262 1.363 1_545 S
C263 C266 1.363 . S
N264 C266 1.356 . S
N264 H276 0.984 . S
N264 H277 0.985 . S
N265 C267 1.356 . S
N265 H270 0.984 . S
N265 H271 0.985 . S
C266 C260 1.379 . S
C266 C263 1.363 . S
C266 N264 1.356 . S
C267 C261 1.363 . S
C267 C262 1.379 . S
C267 N265 1.356 . S
N268 C260 1.358 . S
N268 H274 0.992 . S
N268 H275 0.976 1_545 S
N269 C262 1.358 . S
N269 H272 0.976 1_565 S
N269 H273 0.992 . S
H270 N265 0.984 . S
H271 N265 0.985 . S
H272 N269 0.976 1_545 S
H273 N269 0.992 . S
H274 N268 0.992 . S
H275 N268 0.976 1_565 S
H276 N264 0.984 . S
H277 N264 0.985 . S
C278 C279 1.363 . S
C278 C284 1.379 . S
C278 N286 1.356 . S
C279 C278 1.363 . S
C279 C285 1.363 1_565 S
C280 C281 1.363 . S
C280 C285 1.379 . S
C280 N287 1.356 . S
C281 C280 1.363 . S
C281 C284 1.363 1_545 S
N282 C284 1.358 . S
N282 H294 0.992 . S
N282 H295 0.976 1_565 S
N283 C285 1.358 . S
N283 H288 0.976 1_545 S
N283 H289 0.992 . S
C284 C278 1.379 . S
C284 C281 1.363 1_565 S
C284 N282 1.358 . S
C285 C279 1.363 1_545 S
C285 C280 1.379 . S
C285 N283 1.358 . S
N286 C278 1.356 . S
N286 H292 0.984 . S
N286 H293 0.984 . S
N287 C280 1.356 . S
N287 H290 0.984 . S
N287 H291 0.985 . S
H288 N283 0.976 1_565 S
H289 N283 0.992 . S
H290 N287 0.984 . S
H291 N287 0.985 . S
H292 N286 0.984 . S
H293 N286 0.984 . S
H294 N282 0.992 . S
H295 N282 0.976 1_545 S
C296 C297 1.363 . S
C296 C302 1.379 . S
C296 N304 1.356 . S
C297 C296 1.363 . S
C297 C303 1.363 . S
C298 C299 1.363 . S
C298 C303 1.379 . S
C298 N305 1.356 . S
C299 C298 1.363 . S
C299 C302 1.363 . S
N300 C302 1.356 . S
N300 H312 0.984 . S
N300 H313 0.985 . S
N301 C303 1.356 . S
N301 H306 0.984 . S
N301 H307 0.985 . S
C302 C296 1.379 . S
C302 C299 1.363 . S
C302 N300 1.356 . S
C303 C297 1.363 . S
C303 C298 1.379 . S
C303 N301 1.356 . S
N304 C296 1.356 . S
N304 H310 0.984 . S
N304 H311 0.984 . S
N305 C298 1.356 . S
N305 H308 0.984 . S
N305 H309 0.985 . S
H306 N301 0.984 . S
H307 N301 0.985 . S
H308 N305 0.984 . S
H309 N305 0.985 . S
H310 N304 0.984 . S
H311 N304 0.984 . S
H312 N300 0.984 . S
H313 N300 0.985 . S
C314 C315 1.363 . S
C314 C320 1.379 . S
C314 N322 1.356 . S
C315 C314 1.363 . S
C315 C321 1.363 . S
C316 C317 1.363 . S
C316 C321 1.379 . S
C316 N323 1.356 . S
C317 C316 1.363 . S
C317 C320 1.363 . S
N318 C320 1.356 . S
N318 H330 0.984 . S
N318 H331 0.985 . S
N319 C321 1.356 . S
N319 H324 0.984 . S
N319 H325 0.985 . S
C320 C314 1.379 . S
C320 C317 1.363 . S
C320 N318 1.356 . S
C321 C315 1.363 . S
C321 C316 1.379 . S
C321 N319 1.356 . S
N322 C314 1.356 . S
N322 H328 0.984 . S
N322 H329 0.984 . S
N323 C316 1.356 . S
N323 H326 0.984 . S
N323 H327 0.985 . S
H324 N319 0.984 . S
H325 N319 0.985 . S
H326 N323 0.984 . S
H327 N323 0.985 . S
H328 N322 0.984 . S
H329 N322 0.984 . S
H330 N318 0.984 . S
H331 N318 0.985 . S
C332 C333 1.363 . S
C332 C338 1.379 . S
C332 N340 1.356 . S
C333 C332 1.363 . S
C333 C339 1.363 . S
C334 C335 1.363 . S
C334 C339 1.379 . S
C334 N341 1.356 . S
C335 C334 1.363 . S
C335 C338 1.363 . S
N336 C338 1.356 . S
N336 H348 0.984 . S
N336 H349 0.985 . S
N337 C339 1.356 . S
N337 H342 0.984 . S
N337 H343 0.985 . S
C338 C332 1.379 . S
C338 C335 1.363 . S
C338 N336 1.356 . S
C339 C333 1.363 . S
C339 C334 1.379 . S
C339 N337 1.356 . S
N340 C332 1.356 . S
N340 H346 0.984 . S
N340 H347 0.984 . S
N341 C334 1.356 . S
N341 H344 0.984 . S
N341 H345 0.985 . S
H342 N337 0.984 . S
H343 N337 0.985 . S
H344 N341 0.984 . S
H345 N341 0.985 . S
H346 N340 0.984 . S
H347 N340 0.984 . S
H348 N336 0.984 . S
H349 N336 0.985 . S
C350 C351 1.363 . S
C350 C356 1.379 . S
C350 N358 1.356 . S
C351 C350 1.363 . S
C351 C357 1.363 . S
C352 C353 1.363 . S
C352 C357 1.379 . S
C352 N359 1.356 . S
C353 C352 1.363 . S
C353 C356 1.363 . S
N354 C356 1.356 . S
N354 H366 0.984 . S
N354 H367 0.985 . S
N355 C357 1.356 . S
N355 H360 0.984 . S
N355 H361 0.985 . S
C356 C350 1.379 . S
C356 C353 1.363 . S
C356 N354 1.356 . S
C357 C351 1.363 . S
C357 C352 1.379 . S
C357 N355 1.356 . S
N358 C350 1.356 . S
N358 H364 0.984 . S
N358 H365 0.984 . S
N359 C352 1.356 . S
N359 H362 0.984 . S
N359 H363 0.985 . S
H360 N355 0.984 . S
H361 N355 0.985 . S
H362 N359 0.984 . S
H363 N359 0.985 . S
H364 N358 0.984 . S
H365 N358 0.984 . S
H366 N354 0.984 . S
H367 N354 0.985 . S
C368 C369 1.363 . S
C368 C374 1.379 . S
C368 N376 1.356 . S
C369 C368 1.363 . S
C369 C375 1.363 1_645 S
C370 C371 1.363 1_565 S
C370 C375 1.379 . S
C370 N377 1.356 . S
C371 C370 1.363 1_545 S
C371 C374 1.363 1_455 S
N372 C374 1.356 . S
N372 H384 0.984 . S
N372 H385 0.985 . S
N373 C375 1.356 . S
N373 H378 0.984 . S
N373 H379 0.985 . S
C374 C368 1.379 . S
C374 C371 1.363 1_655 S
C374 N372 1.356 . S
C375 C369 1.363 1_465 S
C375 C370 1.379 . S
C375 N373 1.356 . S
N376 C368 1.356 . S
N376 H382 0.984 . S
N376 H383 0.984 . S
N377 C370 1.356 . S
N377 H380 0.984 . S
N377 H381 0.985 . S
H378 N373 0.984 . S
H379 N373 0.985 . S
H380 N377 0.984 . S
H381 N377 0.985 . S
H382 N376 0.984 . S
H383 N376 0.984 . S
H384 N372 0.984 . S
H385 N372 0.985 . S
C386 C387 1.363 1_545 S
C386 C392 1.379 . S
C386 N394 1.356 . S
C387 C386 1.363 1_565 S
C387 C393 1.363 . S
C388 C389 1.363 . S
C388 C393 1.379 . S
C388 N395 1.356 . S
C389 C388 1.363 . S
C389 C392 1.363 1_565 S
N390 C392 1.356 . S
N390 H402 0.984 . S
N390 H403 0.985 . S
N391 C393 1.356 . S
N391 H396 0.984 . S
N391 H397 0.985 . S
C392 C386 1.379 . S
C392 C389 1.363 1_545 S
C392 N390 1.356 . S
C393 C387 1.363 . S
C393 C388 1.379 . S
C393 N391 1.356 . S
N394 C386 1.356 . S
N394 H400 0.984 . S
N394 H401 0.984 . S
N395 C388 1.356 . S
N395 H398 0.984 . S
N395 H399 0.985 . S
H396 N391 0.984 . S
H397 N391 0.985 . S
H398 N395 0.984 . S
H399 N395 0.985 . S
H400 N394 0.984 . S
H401 N394 0.984 . S
H402 N390 0.984 . S
H403 N390 0.985 . S
C404 C405 1.363 . S
C404 C410 1.379 . S
C404 N412 1.356 1_565 S
C405 C404 1.363 . S
C405 C411 1.363 1_455 S
C406 C407 1.363 . S
C406 C411 1.379 . S
C406 N413 1.356 . S
C407 C406 1.363 . S
C407 C410 1.363 1_655 S
N408 C410 1.356 1_545 S
N408 H420 0.984 . S
N408 H421 0.985 . S
N409 C411 1.356 . S
N409 H414 0.984 . S
N409 H415 0.985 . S
C410 C404 1.379 . S
C410 C407 1.363 1_455 S
C410 N408 1.356 1_565 S
C411 C405 1.363 1_655 S
C411 C406 1.379 . S
C411 N409 1.356 . S
N412 C404 1.356 1_545 S
N412 H418 0.984 . S
N412 H419 0.984 . S
N413 C406 1.356 . S
N413 H416 0.984 . S
N413 H417 0.985 . S
H414 N409 0.984 . S
H415 N409 0.985 . S
H416 N413 0.984 . S
H417 N413 0.985 . S
H418 N412 0.984 . S
H419 N412 0.984 . S
H420 N408 0.984 . S
H421 N408 0.985 . S
C422 C423 1.363 . S
C422 C428 1.379 . S
C422 N430 1.356 1_545 S
C423 C422 1.363 . S
C423 C429 1.363 . S
C424 C425 1.363 . S
C424 C429 1.379 . S
C424 N431 1.356 . S
C425 C424 1.363 . S
C425 C428 1.363 . S
N426 C428 1.356 1_565 S
N426 H438 0.984 . S
N426 H439 0.985 . S
N427 C429 1.356 . S
N427 H432 0.984 . S
N427 H433 0.985 . S
C428 C422 1.379 . S
C428 C425 1.363 . S
C428 N426 1.356 1_545 S
C429 C423 1.363 . S
C429 C424 1.379 . S
C429 N427 1.356 . S
N430 C422 1.356 1_565 S
N430 H436 0.984 . S
N430 H437 0.984 . S
N431 C424 1.356 . S
N431 H434 0.984 . S
N431 H435 0.985 . S
H432 N427 0.984 . S
H433 N427 0.985 . S
H434 N431 0.984 . S
H435 N431 0.985 . S
H436 N430 0.984 . S
H437 N430 0.984 . S
H438 N426 0.984 . S
H439 N426 0.985 . S
C440 C441 1.363 . S
C440 C446 1.379 . S
C440 N448 1.356 . S
C441 C440 1.363 . S
C441 C447 1.363 . S
C442 C443 1.363 . S
C442 C447 1.379 . S
C442 N449 1.356 . S
C443 C442 1.363 . S
C443 C446 1.363 . S
N444 C446 1.356 . S
N444 H456 0.984 . S
N444 H457 0.985 . S
N445 C447 1.356 . S
N445 H450 0.984 . S
N445 H451 0.985 . S
C446 C440 1.379 . S
C446 C443 1.363 . S
C446 N444 1.356 . S
C447 C441 1.363 . S
C447 C442 1.379 . S
C447 N445 1.356 . S
N448 C440 1.356 . S
N448 H454 0.984 . S
N448 H455 0.984 . S
N449 C442 1.356 . S
N449 H452 0.984 . S
N449 H453 0.985 . S
H450 N445 0.984 . S
H451 N445 0.985 . S
H452 N449 0.984 . S
H453 N449 0.985 . S
H454 N448 0.984 . S
H455 N448 0.984 . S
H456 N444 0.984 . S
H457 N444 0.985 . S
C458 C459 1.363 1_655 S
C458 C464 1.379 . S
C458 N466 1.356 . S
C459 C458 1.363 1_455 S
C459 C465 1.363 . S
C460 C461 1.363 1_455 S
C460 C465 1.379 . S
C460 N467 1.356 . S
C461 C460 1.363 1_655 S
C461 C464 1.363 . S
N462 C464 1.356 . S
N462 H474 0.984 . S
N462 H475 0.985 . S
N463 C465 1.356 . S
N463 H468 0.984 . S
N463 H469 0.985 . S
C464 C458 1.379 . S
C464 C461 1.363 . S
C464 N462 1.356 . S
C465 C459 1.363 . S
C465 C460 1.379 . S
C465 N463 1.356 . S
N466 C458 1.356 . S
N466 H472 0.984 . S
N466 H473 0.984 . S
N467 C460 1.356 . S
N467 H470 0.984 . S
N467 H471 0.985 . S
H468 N463 0.984 . S
H469 N463 0.985 . S
H470 N467 0.984 . S
H471 N467 0.985 . S
H472 N466 0.984 . S
H473 N466 0.984 . S
H474 N462 0.984 . S
H475 N462 0.985 . S
C476 C477 1.363 . S
C476 C482 1.379 . S
C476 N484 1.356 . S
C477 C476 1.363 . S
C477 C483 1.363 . S
C478 C479 1.363 . S
C478 C483 1.379 . S
C478 N485 1.356 . S
C479 C478 1.363 . S
C479 C482 1.363 . S
N480 C482 1.356 . S
N480 H492 0.984 . S
N480 H493 0.985 . S
N481 C483 1.356 . S
N481 H486 0.984 . S
N481 H487 0.985 . S
C482 C476 1.379 . S
C482 C479 1.363 . S
C482 N480 1.356 . S
C483 C477 1.363 . S
C483 C478 1.379 . S
C483 N481 1.356 . S
N484 C476 1.356 . S
N484 H490 0.984 . S
N484 H491 0.984 . S
N485 C478 1.356 . S
N485 H488 0.984 . S
N485 H489 0.985 . S
H486 N481 0.984 . S
H487 N481 0.985 . S
H488 N485 0.984 . S
H489 N485 0.985 . S
H490 N484 0.984 . S
H491 N484 0.984 . S
H492 N480 0.984 . S
H493 N480 0.985 . S
C494 C495 1.363 1_655 S
C494 C500 1.379 . S
C494 N502 1.356 . S
C495 C494 1.363 1_455 S
C495 C501 1.363 . S
C496 C497 1.363 1_455 S
C496 C501 1.379 . S
C496 N503 1.356 . S
C497 C496 1.363 1_655 S
C497 C500 1.363 . S
N498 C500 1.356 . S
N498 H510 0.984 . S
N498 H511 0.985 . S
N499 C501 1.356 . S
N499 H504 0.984 . S
N499 H505 0.985 . S
C500 C494 1.379 . S
C500 C497 1.363 . S
C500 N498 1.356 . S
C501 C495 1.363 . S
C501 C496 1.379 . S
C501 N499 1.356 . S
N502 C494 1.356 . S
N502 H508 0.984 . S
N502 H509 0.984 . S
N503 C496 1.356 . S
N503 H506 0.984 . S
N503 H507 0.985 . S
H504 N499 0.984 . S
H505 N499 0.985 . S
H506 N503 0.984 . S
H507 N503 0.985 . S
H508 N502 0.984 . S
H509 N502 0.984 . S
H510 N498 0.984 . S
H511 N498 0.985 . S
C512 C513 1.363 1_655 S
C512 C518 1.379 . S
C512 N520 1.356 . S
C513 C512 1.363 1_455 S
C513 C519 1.363 . S
C514 C515 1.363 1_455 S
C514 C519 1.379 . S
C514 N521 1.356 . S
C515 C514 1.363 1_655 S
C515 C518 1.363 . S
N516 C518 1.356 . S
N516 H528 0.984 . S
N516 H529 0.985 . S
N517 C519 1.356 . S
N517 H522 0.984 . S
N517 H523 0.985 . S
C518 C512 1.379 . S
C518 C515 1.363 . S
C518 N516 1.356 . S
C519 C513 1.363 . S
C519 C514 1.379 . S
C519 N517 1.356 . S
N520 C512 1.356 . S
N520 H526 0.984 . S
N520 H527 0.984 1_655 S
N521 C514 1.356 . S
N521 H524 0.984 1_455 S
N521 H525 0.985 . S
H522 N517 0.984 . S
H523 N517 0.985 . S
H524 N521 0.984 1_655 S
H525 N521 0.985 . S
H526 N520 0.984 . S
H527 N520 0.984 1_455 S
H528 N516 0.984 . S
H529 N516 0.985 . S
C530 C531 1.363 . S
C530 C536 1.379 . S
C530 N538 1.356 . S
C531 C530 1.363 . S
C531 C537 1.363 . S
C532 C533 1.363 . S
C532 C537 1.379 . S
C532 N539 1.356 . S
C533 C532 1.363 . S
C533 C536 1.363 . S
N534 C536 1.356 . S
N534 H546 0.984 . S
N534 H547 0.985 . S
N535 C537 1.356 . S
N535 H540 0.984 . S
N535 H541 0.985 . S
C536 C530 1.379 . S
C536 C533 1.363 . S
C536 N534 1.356 . S
C537 C531 1.363 . S
C537 C532 1.379 . S
C537 N535 1.356 . S
N538 C530 1.356 . S
N538 H544 0.984 . S
N538 H545 0.984 . S
N539 C532 1.356 . S
N539 H542 0.984 . S
N539 H543 0.985 . S
H540 N535 0.984 . S
H541 N535 0.985 . S
H542 N539 0.984 . S
H543 N539 0.985 . S
H544 N538 0.984 . S
H545 N538 0.984 . S
H546 N534 0.984 . S
H547 N534 0.985 . S
C548 C549 1.363 . S
C548 C554 1.379 . S
C548 N556 1.356 . S
C549 C548 1.363 . S
C549 C555 1.363 . S
C550 C551 1.363 . S
C550 C555 1.379 . S
C550 N557 1.356 . S
C551 C550 1.363 . S
C551 C554 1.363 . S
N552 C554 1.356 . S
N552 H564 0.984 . S
N552 H565 0.985 . S
N553 C555 1.356 . S
N553 H558 0.984 . S
N553 H559 0.985 . S
C554 C548 1.379 . S
C554 C551 1.363 . S
C554 N552 1.356 . S
C555 C549 1.363 . S
C555 C550 1.379 . S
C555 N553 1.356 . S
N556 C548 1.356 . S
N556 H562 0.984 . S
N556 H563 0.984 . S
N557 C550 1.356 . S
N557 H560 0.984 . S
N557 H561 0.985 . S
H558 N553 0.984 . S
H559 N553 0.985 . S
H560 N557 0.984 . S
H561 N557 0.985 . S
H562 N556 0.984 . S
H563 N556 0.984 . S
H564 N552 0.984 . S
H565 N552 0.985 . S
C566 C567 1.363 . S
C566 C572 1.379 . S
C566 N574 1.356 . S
C567 C566 1.363 . S
C567 C573 1.363 1_455 S
C568 C569 1.363 . S
C568 C573 1.379 . S
C568 N575 1.356 . S
C569 C568 1.363 . S
C569 C572 1.363 1_655 S
N570 C572 1.356 . S
N570 H582 0.984 . S
N570 H583 0.985 1_455 S
N571 C573 1.356 . S
N571 H576 0.984 1_655 S
N571 H577 0.985 . S
C572 C566 1.379 . S
C572 C569 1.363 1_455 S
C572 N570 1.356 . S
C573 C567 1.363 1_655 S
C573 C568 1.379 . S
C573 N571 1.356 . S
N574 C566 1.356 . S
N574 H580 0.984 . S
N574 H581 0.984 . S
N575 C568 1.356 . S
N575 H578 0.984 . S
N575 H579 0.985 . S
H576 N571 0.984 1_455 S
H577 N571 0.985 . S
H578 N575 0.984 . S
H579 N575 0.985 . S
H580 N574 0.984 . S
H581 N574 0.984 . S
H582 N570 0.984 . S
H583 N570 0.985 1_655 S
C584 C585 1.363 . S
C584 C590 1.379 . S
C584 N592 1.356 . S
C585 C584 1.363 . S
C585 C591 1.363 1_455 S
C586 C587 1.363 . S
C586 C591 1.379 . S
C586 N593 1.356 . S
C587 C586 1.363 . S
C587 C590 1.363 1_655 S
N588 C590 1.356 . S
N588 H600 0.984 . S
N588 H601 0.985 1_455 S
N589 C591 1.356 . S
N589 H594 0.984 1_655 S
N589 H595 0.985 . S
C590 C584 1.379 . S
C590 C587 1.363 1_455 S
C590 N588 1.356 . S
C591 C585 1.363 1_655 S
C591 C586 1.379 . S
C591 N589 1.356 . S
N592 C584 1.356 . S
N592 H598 0.984 . S
N592 H599 0.984 . S
N593 C586 1.356 . S
N593 H596 0.984 . S
N593 H597 0.985 . S
H594 N589 0.984 1_455 S
H595 N589 0.985 . S
H596 N593 0.984 . S
H597 N593 0.985 . S
H598 N592 0.984 . S
H599 N592 0.984 . S
H600 N588 0.984 . S
H601 N588 0.985 1_655 S
C602 C603 1.363 . S
C602 C608 1.379 . S
C602 N610 1.356 . S
C603 C602 1.363 . S
C603 C609 1.363 . S
C604 C605 1.363 . S
C604 C609 1.379 . S
C604 N611 1.356 . S
C605 C604 1.363 . S
C605 C608 1.363 . S
N606 C608 1.356 . S
N606 H618 0.984 . S
N606 H619 0.985 . S
N607 C609 1.356 . S
N607 H612 0.984 . S
N607 H613 0.985 . S
C608 C602 1.379 . S
C608 C605 1.363 . S
C608 N606 1.356 . S
C609 C603 1.363 . S
C609 C604 1.379 . S
C609 N607 1.356 . S
N610 C602 1.356 . S
N610 H616 0.984 . S
N610 H617 0.984 . S
N611 C604 1.356 . S
N611 H614 0.984 . S
N611 H615 0.985 . S
H612 N607 0.984 . S
H613 N607 0.985 . S
H614 N611 0.984 . S
H615 N611 0.985 . S
H616 N610 0.984 . S
H617 N610 0.984 . S
H618 N606 0.984 . S
H619 N606 0.985 . S
C620 C621 1.363 . S
C620 C626 1.379 . S
C620 N628 1.356 . S
C621 C620 1.363 . S
C621 C627 1.363 . S
C622 C623 1.363 . S
C622 C627 1.379 . S
C622 N629 1.356 . S
C623 C622 1.363 . S
C623 C626 1.363 . S
N624 C626 1.356 . S
N624 H636 0.984 . S
N624 H637 0.985 . S
N625 C627 1.356 . S
N625 H630 0.984 . S
N625 H631 0.985 . S
C626 C620 1.379 . S
C626 C623 1.363 . S
C626 N624 1.356 . S
C627 C621 1.363 . S
C627 C622 1.379 . S
C627 N625 1.356 . S
N628 C620 1.356 . S
N628 H634 0.984 . S
N628 H635 0.984 . S
N629 C622 1.356 . S
N629 H632 0.984 . S
N629 H633 0.985 . S
H630 N625 0.984 . S
H631 N625 0.985 . S
H632 N629 0.984 . S
H633 N629 0.985 . S
H634 N628 0.984 . S
H635 N628 0.984 . S
H636 N624 0.984 . S
H637 N624 0.985 . S
C638 C639 1.363 . S
C638 C644 1.379 . S
C638 N646 1.356 . S
C639 C638 1.363 . S
C639 C645 1.363 1_455 S
C640 C641 1.363 . S
C640 C645 1.379 . S
C640 N647 1.356 . S
C641 C640 1.363 . S
C641 C644 1.363 1_655 S
N642 C644 1.356 . S
N642 H654 0.984 . S
N642 H655 0.985 1_455 S
N643 C645 1.356 . S
N643 H648 0.984 1_655 S
N643 H649 0.985 . S
C644 C638 1.379 . S
C644 C641 1.363 1_455 S
C644 N642 1.356 . S
C645 C639 1.363 1_655 S
C645 C640 1.379 . S
C645 N643 1.356 . S
N646 C638 1.356 . S
N646 H652 0.984 . S
N646 H653 0.984 . S
N647 C640 1.356 . S
N647 H650 0.984 . S
N647 H651 0.985 . S
H648 N643 0.984 1_455 S
H649 N643 0.985 . S
H650 N647 0.984 . S
H651 N647 0.985 . S
H652 N646 0.984 . S
H653 N646 0.984 . S
H654 N642 0.984 . S
H655 N642 0.985 1_655 S
C656 C657 1.363 1_445 S
C656 C662 1.379 1_556 S
C656 N664 1.356 . S
C657 C656 1.363 1_665 S
C657 C663 1.363 . S
C658 C659 1.363 1_655 S
C658 C663 1.379 1_554 S
C658 N665 1.356 . S
C659 C658 1.363 1_455 S
C659 C662 1.363 1_565 S
N660 C662 1.356 . S
N660 H672 0.984 . S
N660 H673 0.985 . S
N661 C663 1.356 . S
N661 H666 0.984 . S
N661 H667 0.985 . S
C662 C656 1.379 1_554 S
C662 C659 1.363 1_545 S
C662 N660 1.356 . S
C663 C657 1.363 . S
C663 C658 1.379 1_556 S
C663 N661 1.356 . S
N664 C656 1.356 . S
N664 H670 0.984 . S
N664 H671 0.984 . S
N665 C658 1.356 . S
N665 H668 0.984 . S
N665 H669 0.985 . S
H666 N661 0.984 . S
H667 N661 0.985 . S
H668 N665 0.984 . S
H669 N665 0.985 . S
H670 N664 0.984 . S
H671 N664 0.984 . S
H672 N660 0.984 . S
H673 N660 0.985 . S
C674 C675 1.363 1_565 S
C674 C680 1.379 1_556 S
C674 N682 1.356 . S
C675 C674 1.363 1_545 S
C675 C681 1.363 . S
C676 C677 1.363 . S
C676 C681 1.379 1_554 S
C676 N683 1.356 . S
C677 C676 1.363 . S
C677 C680 1.363 1_545 S
N678 C680 1.356 . S
N678 H690 0.984 . S
N678 H691 0.985 . S
N679 C681 1.356 . S
N679 H684 0.984 . S
N679 H685 0.985 . S
C680 C674 1.379 1_554 S
C680 C677 1.363 1_565 S
C680 N678 1.356 . S
C681 C675 1.363 . S
C681 C676 1.379 1_556 S
C681 N679 1.356 . S
N682 C674 1.356 . S
N682 H688 0.984 . S
N682 H689 0.984 . S
N683 C676 1.356 . S
N683 H686 0.984 . S
N683 H687 0.985 . S
H684 N679 0.984 . S
H685 N679 0.985 . S
H686 N683 0.984 . S
H687 N683 0.985 . S
H688 N682 0.984 . S
H689 N682 0.984 . S
H690 N678 0.984 . S
H691 N678 0.985 . S
C692 C693 1.363 . S
C692 C698 1.379 . S
C692 N700 1.356 . S
C693 C692 1.363 . S
C693 C699 1.363 1_545 S
C694 C695 1.363 1_565 S
C694 C699 1.379 . S
C694 N701 1.356 . S
C695 C694 1.363 1_545 S
C695 C698 1.363 . S
N696 C698 1.356 . S
N696 H708 0.984 . S
N696 H709 0.985 . S
N697 C699 1.356 . S
N697 H702 0.984 . S
N697 H703 0.985 . S
C698 C692 1.379 . S
C698 C695 1.363 . S
C698 N696 1.356 . S
C699 C693 1.363 1_565 S
C699 C694 1.379 . S
C699 N697 1.356 . S
N700 C692 1.356 . S
N700 H706 0.984 . S
N700 H707 0.984 . S
N701 C694 1.356 . S
N701 H704 0.984 . S
N701 H705 0.985 . S
H702 N697 0.984 . S
H703 N697 0.985 . S
H704 N701 0.984 . S
H705 N701 0.985 . S
H706 N700 0.984 . S
H707 N700 0.984 . S
H708 N696 0.984 . S
H709 N696 0.985 . S
C710 C711 1.363 1_645 S
C710 C716 1.379 . S
C710 N718 1.356 . S
C711 C710 1.363 1_465 S
C711 C717 1.363 . S
C712 C713 1.363 1_455 S
C712 C717 1.379 . S
C712 N719 1.356 . S
C713 C712 1.363 1_655 S
C713 C716 1.363 1_565 S
N714 C716 1.356 . S
N714 H726 0.984 . S
N714 H727 0.985 . S
N715 C717 1.356 . S
N715 H720 0.984 . S
N715 H721 0.985 . S
C716 C710 1.379 . S
C716 C713 1.363 1_545 S
C716 N714 1.356 . S
C717 C711 1.363 . S
C717 C712 1.379 . S
C717 N715 1.356 . S
N718 C710 1.356 . S
N718 H724 0.984 . S
N718 H725 0.984 . S
N719 C712 1.356 . S
N719 H722 0.984 . S
N719 H723 0.985 . S
H720 N715 0.984 . S
H721 N715 0.985 . S
H722 N719 0.984 . S
H723 N719 0.985 . S
H724 N718 0.984 . S
H725 N718 0.984 . S
H726 N714 0.984 . S
H727 N714 0.985 . S
C728 C729 1.363 . S
C728 C734 1.379 1_554 S
C728 N736 1.356 . S
C729 C728 1.363 . S
C729 C735 1.363 . S
C730 C731 1.363 . S
C730 C735 1.379 1_556 S
C730 N737 1.356 . S
C731 C730 1.363 . S
C731 C734 1.363 . S
N732 C734 1.356 . S
N732 H744 0.984 . S
N732 H745 0.985 . S
N733 C735 1.356 . S
N733 H738 0.984 . S
N733 H739 0.985 . S
C734 C728 1.379 1_556 S
C734 C731 1.363 . S
C734 N732 1.356 . S
C735 C729 1.363 . S
C735 C730 1.379 1_554 S
C735 N733 1.356 . S
N736 C728 1.356 . S
N736 H742 0.984 . S
N736 H743 0.984 . S
N737 C730 1.356 . S
N737 H740 0.984 . S
N737 H741 0.985 . S
H738 N733 0.984 . S
H739 N733 0.985 . S
H740 N737 0.984 . S
H741 N737 0.985 . S
H742 N736 0.984 . S
H743 N736 0.984 . S
H744 N732 0.984 . S
H745 N732 0.985 . S
C746 C747 1.363 1_455 S
C746 C752 1.379 1_554 S
C746 N754 1.356 . S
C747 C746 1.363 1_655 S
C747 C753 1.363 . S
C748 C749 1.363 1_655 S
C748 C753 1.379 1_556 S
C748 N755 1.356 . S
C749 C748 1.363 1_455 S
C749 C752 1.363 . S
N750 C752 1.356 . S
N750 H762 0.984 . S
N750 H763 0.985 . S
N751 C753 1.356 . S
N751 H756 0.984 . S
N751 H757 0.985 . S
C752 C746 1.379 1_556 S
C752 C749 1.363 . S
C752 N750 1.356 . S
C753 C747 1.363 . S
C753 C748 1.379 1_554 S
C753 N751 1.356 . S
N754 C746 1.356 . S
N754 H760 0.984 . S
N754 H761 0.984 . S
N755 C748 1.356 . S
N755 H758 0.984 . S
N755 H759 0.985 . S
H756 N751 0.984 . S
H757 N751 0.985 . S
H758 N755 0.984 . S
H759 N755 0.985 . S
H760 N754 0.984 . S
H761 N754 0.984 . S
H762 N750 0.984 . S
H763 N750 0.985 . S
C764 C765 1.363 1_455 S
C764 C770 1.379 . S
C764 N772 1.356 . S
C765 C764 1.363 1_655 S
C765 C771 1.363 . S
C766 C767 1.363 1_655 S
C766 C771 1.379 . S
C766 N773 1.356 . S
C767 C766 1.363 1_455 S
C767 C770 1.363 . S
N768 C770 1.356 . S
N768 H780 0.984 . S
N768 H781 0.985 . S
N769 C771 1.356 . S
N769 H774 0.984 . S
N769 H775 0.985 . S
C770 C764 1.379 . S
C770 C767 1.363 . S
C770 N768 1.356 . S
C771 C765 1.363 . S
C771 C766 1.379 . S
C771 N769 1.356 . S
N772 C764 1.356 . S
N772 H778 0.984 . S
N772 H779 0.984 . S
N773 C766 1.356 . S
N773 H776 0.984 . S
N773 H777 0.985 . S
H774 N769 0.984 . S
H775 N769 0.985 . S
H776 N773 0.984 . S
H777 N773 0.985 . S
H778 N772 0.984 . S
H779 N772 0.984 . S
H780 N768 0.984 . S
H781 N768 0.985 . S
C782 C783 1.363 . S
C782 C788 1.379 . S
C782 N790 1.356 . S
C783 C782 1.363 . S
C783 C789 1.363 . S
C784 C785 1.363 . S
C784 C789 1.379 . S
C784 N791 1.356 . S
C785 C784 1.363 . S
C785 C788 1.363 . S
N786 C788 1.356 . S
N786 H798 0.984 . S
N786 H799 0.985 . S
N787 C789 1.356 . S
N787 H792 0.984 . S
N787 H793 0.985 . S
C788 C782 1.379 . S
C788 C785 1.363 . S
C788 N786 1.356 . S
C789 C783 1.363 . S
C789 C784 1.379 . S
C789 N787 1.356 . S
N790 C782 1.356 . S
N790 H796 0.984 . S
N790 H797 0.984 . S
N791 C784 1.356 . S
N791 H794 0.984 . S
N791 H795 0.985 . S
H792 N787 0.984 . S
H793 N787 0.985 . S
H794 N791 0.984 . S
H795 N791 0.985 . S
H796 N790 0.984 . S
H797 N790 0.984 . S
H798 N786 0.984 . S
H799 N786 0.985 . S
C225 C26 1.482 . S
C227 C12 1.482 . S
C243 C40 1.482 . S
C245 C54 1.482 . S
C261 C67 1.602 . S
C263 C81 1.602 . S
C279 C109 1.602 . S
C281 C95 1.602 . S
C297 C138 1.482 . S
C299 C124 1.482 . S
C315 C166 1.482 . S
C317 C152 1.482 . S
C333 C193 1.602 . S
C335 C179 1.602 . S
C351 C221 1.602 . S
C353 C207 1.602 . S
C369 C46 1.175 . S
C371 C4 1.175 . S
C387 C18 1.175 . S
C389 C32 1.175 . S
C405 C103 1.199 . S
C407 C61 1.199 . S
C423 C89 1.199 . S
C425 C75 1.199 . S
C441 C116 1.175 . S
C443 C158 1.175 . S
C459 C144 1.175 . S
C461 C130 1.175 . S
C477 C215 1.199 . S
C479 C173 1.199 . S
C495 C187 1.199 . S
C497 C201 1.199 . S
C513 C5 1.310 . S
C515 C131 1.310 . S
C531 C19 1.310 . S
C533 C117 1.310 . S
C549 C159 1.310 . S
C551 C33 1.310 . S
C567 C145 1.310 . S
C569 C47 1.310 . S
C585 C186 1.669 . S
C587 C60 1.669 . S
C603 C172 1.669 . S
C605 C74 1.669 . S
C621 C88 1.669 . S
C623 C214 1.669 . S
C639 C102 1.669 . S
C641 C200 1.669 . S
C657 C68 1.321 . S
C659 C11 1.337 . S
C675 C82 1.321 . S
C677 C25 1.337 . S
C693 C96 1.321 . S
C695 C39 1.337 . S
C711 C110 1.321 . S
C713 C53 1.337 . S
C729 C123 1.337 . S
C731 C180 1.321 . S
C747 C137 1.337 . S
C749 C194 1.321 . S
C765 C208 1.321 . S
C767 C151 1.337 . S
C783 C222 1.321 . S
C785 C165 1.337 . S
