# Generated by pormake.
# Topology uns, (4)-cn, num edge types: 1
# Building blocks:
#     Node 0, Type 0, BuildingBlock: MUDLON_clean_sbu_0, # of connection points: 4
#     Node 1, Type 0, BuildingBlock: MUDLON_clean_sbu_0, # of connection points: 4
#     Node 2, Type 0, BuildingBlock: MUDLON_clean_sbu_0, # of connection points: 4
#     Node 3, Type 0, BuildingBlock: MUDLON_clean_sbu_0, # of connection points: 4
#     Node 4, Type 0, BuildingBlock: MUDLON_clean_sbu_0, # of connection points: 4
#     Node 5, Type 0, BuildingBlock: MUDLON_clean_sbu_0, # of connection points: 4
#     Node 6, Type 0, BuildingBlock: MUDLON_clean_sbu_0, # of connection points: 4
#     Node 7, Type 0, BuildingBlock: MUDLON_clean_sbu_0, # of connection points: 4
#     Node 8, Type 0, BuildingBlock: MUDLON_clean_sbu_0, # of connection points: 4
#     Node 9, Type 0, BuildingBlock: MUDLON_clean_sbu_0, # of connection points: 4
#     Node 10, Type 0, BuildingBlock: MUDLON_clean_sbu_0, # of connection points: 4
#     Node 11, Type 0, BuildingBlock: MUDLON_clean_sbu_0, # of connection points: 4
#     Node 12, Type 0, BuildingBlock: MUDLON_clean_sbu_0, # of connection points: 4
#     Node 13, Type 0, BuildingBlock: MUDLON_clean_sbu_0, # of connection points: 4
#     Node 14, Type 0, BuildingBlock: MUDLON_clean_sbu_0, # of connection points: 4
#     Node 15, Type 0, BuildingBlock: MUDLON_clean_sbu_0, # of connection points: 4
#     Node 16, Type 0, BuildingBlock: MUDLON_clean_sbu_0, # of connection points: 4
#     Node 17, Type 0, BuildingBlock: MUDLON_clean_sbu_0, # of connection points: 4
#     Node 18, Type 0, BuildingBlock: MUDLON_clean_sbu_0, # of connection points: 4
#     Node 19, Type 0, BuildingBlock: MUDLON_clean_sbu_0, # of connection points: 4
#     Node 20, Type 0, BuildingBlock: MUDLON_clean_sbu_0, # of connection points: 4
#     Node 21, Type 0, BuildingBlock: MUDLON_clean_sbu_0, # of connection points: 4
#     Node 22, Type 0, BuildingBlock: MUDLON_clean_sbu_0, # of connection points: 4
#     Node 23, Type 0, BuildingBlock: MUDLON_clean_sbu_0, # of connection points: 4
#     Node 24, Type 0, BuildingBlock: MUDLON_clean_sbu_0, # of connection points: 4
#     Node 25, Type 0, BuildingBlock: MUDLON_clean_sbu_0, # of connection points: 4
#     Node 26, Type 0, BuildingBlock: MUDLON_clean_sbu_0, # of connection points: 4
#     Node 27, Type 0, BuildingBlock: MUDLON_clean_sbu_0, # of connection points: 4
#     Node 28, Type 0, BuildingBlock: MUDLON_clean_sbu_0, # of connection points: 4
#     Node 29, Type 0, BuildingBlock: MUDLON_clean_sbu_0, # of connection points: 4
#     Node 30, Type 0, BuildingBlock: MUDLON_clean_sbu_0, # of connection points: 4
#     Node 31, Type 0, BuildingBlock: MUDLON_clean_sbu_0, # of connection points: 4
#     Node 32, Type 0, BuildingBlock: MUDLON_clean_sbu_0, # of connection points: 4
#     Node 33, Type 0, BuildingBlock: MUDLON_clean_sbu_0, # of connection points: 4
#     Node 34, Type 0, BuildingBlock: MUDLON_clean_sbu_0, # of connection points: 4
#     Node 35, Type 0, BuildingBlock: MUDLON_clean_sbu_0, # of connection points: 4
#     Edge 36, Type (0, 0), BuildingBlock: XIVTED_clean_linker_0, # of connection points: 2
#     Edge 37, Type (0, 0), BuildingBlock: XIVTED_clean_linker_0, # of connection points: 2
#     Edge 38, Type (0, 0), BuildingBlock: XIVTED_clean_linker_0, # of connection points: 2
#     Edge 39, Type (0, 0), BuildingBlock: XIVTED_clean_linker_0, # of connection points: 2
#     Edge 40, Type (0, 0), BuildingBlock: XIVTED_clean_linker_0, # of connection points: 2
#     Edge 41, Type (0, 0), BuildingBlock: XIVTED_clean_linker_0, # of connection points: 2
#     Edge 42, Type (0, 0), BuildingBlock: XIVTED_clean_linker_0, # of connection points: 2
#     Edge 43, Type (0, 0), BuildingBlock: XIVTED_clean_linker_0, # of connection points: 2
#     Edge 44, Type (0, 0), BuildingBlock: XIVTED_clean_linker_0, # of connection points: 2
#     Edge 45, Type (0, 0), BuildingBlock: XIVTED_clean_linker_0, # of connection points: 2
#     Edge 46, Type (0, 0), BuildingBlock: XIVTED_clean_linker_0, # of connection points: 2
#     Edge 47, Type (0, 0), BuildingBlock: XIVTED_clean_linker_0, # of connection points: 2
#     Edge 48, Type (0, 0), BuildingBlock: XIVTED_clean_linker_0, # of connection points: 2
#     Edge 49, Type (0, 0), BuildingBlock: XIVTED_clean_linker_0, # of connection points: 2
#     Edge 50, Type (0, 0), BuildingBlock: XIVTED_clean_linker_0, # of connection points: 2
#     Edge 51, Type (0, 0), BuildingBlock: XIVTED_clean_linker_0, # of connection points: 2
#     Edge 52, Type (0, 0), BuildingBlock: XIVTED_clean_linker_0, # of connection points: 2
#     Edge 53, Type (0, 0), BuildingBlock: XIVTED_clean_linker_0, # of connection points: 2
#     Edge 54, Type (0, 0), BuildingBlock: XIVTED_clean_linker_0, # of connection points: 2
#     Edge 55, Type (0, 0), BuildingBlock: XIVTED_clean_linker_0, # of connection points: 2
#     Edge 56, Type (0, 0), BuildingBlock: XIVTED_clean_linker_0, # of connection points: 2
#     Edge 57, Type (0, 0), BuildingBlock: XIVTED_clean_linker_0, # of connection points: 2
#     Edge 58, Type (0, 0), BuildingBlock: XIVTED_clean_linker_0, # of connection points: 2
#     Edge 59, Type (0, 0), BuildingBlock: XIVTED_clean_linker_0, # of connection points: 2
#     Edge 60, Type (0, 0), BuildingBlock: XIVTED_clean_linker_0, # of connection points: 2
#     Edge 61, Type (0, 0), BuildingBlock: XIVTED_clean_linker_0, # of connection points: 2
#     Edge 62, Type (0, 0), BuildingBlock: XIVTED_clean_linker_0, # of connection points: 2
#     Edge 63, Type (0, 0), BuildingBlock: XIVTED_clean_linker_0, # of connection points: 2
#     Edge 64, Type (0, 0), BuildingBlock: XIVTED_clean_linker_0, # of connection points: 2
#     Edge 65, Type (0, 0), BuildingBlock: XIVTED_clean_linker_0, # of connection points: 2
#     Edge 66, Type (0, 0), BuildingBlock: XIVTED_clean_linker_0, # of connection points: 2
#     Edge 67, Type (0, 0), BuildingBlock: XIVTED_clean_linker_0, # of connection points: 2
#     Edge 68, Type (0, 0), BuildingBlock: XIVTED_clean_linker_0, # of connection points: 2
#     Edge 69, Type (0, 0), BuildingBlock: XIVTED_clean_linker_0, # of connection points: 2
#     Edge 70, Type (0, 0), BuildingBlock: XIVTED_clean_linker_0, # of connection points: 2
#     Edge 71, Type (0, 0), BuildingBlock: XIVTED_clean_linker_0, # of connection points: 2
#     Edge 72, Type (0, 0), BuildingBlock: XIVTED_clean_linker_0, # of connection points: 2
#     Edge 73, Type (0, 0), BuildingBlock: XIVTED_clean_linker_0, # of connection points: 2
#     Edge 74, Type (0, 0), BuildingBlock: XIVTED_clean_linker_0, # of connection points: 2
#     Edge 75, Type (0, 0), BuildingBlock: XIVTED_clean_linker_0, # of connection points: 2
#     Edge 76, Type (0, 0), BuildingBlock: XIVTED_clean_linker_0, # of connection points: 2
#     Edge 77, Type (0, 0), BuildingBlock: XIVTED_clean_linker_0, # of connection points: 2
#     Edge 78, Type (0, 0), BuildingBlock: XIVTED_clean_linker_0, # of connection points: 2
#     Edge 79, Type (0, 0), BuildingBlock: XIVTED_clean_linker_0, # of connection points: 2
#     Edge 80, Type (0, 0), BuildingBlock: XIVTED_clean_linker_0, # of connection points: 2
#     Edge 81, Type (0, 0), BuildingBlock: XIVTED_clean_linker_0, # of connection points: 2
#     Edge 82, Type (0, 0), BuildingBlock: XIVTED_clean_linker_0, # of connection points: 2
#     Edge 83, Type (0, 0), BuildingBlock: XIVTED_clean_linker_0, # of connection points: 2
#     Edge 84, Type (0, 0), BuildingBlock: XIVTED_clean_linker_0, # of connection points: 2
#     Edge 85, Type (0, 0), BuildingBlock: XIVTED_clean_linker_0, # of connection points: 2
#     Edge 86, Type (0, 0), BuildingBlock: XIVTED_clean_linker_0, # of connection points: 2
#     Edge 87, Type (0, 0), BuildingBlock: XIVTED_clean_linker_0, # of connection points: 2
#     Edge 88, Type (0, 0), BuildingBlock: XIVTED_clean_linker_0, # of connection points: 2
#     Edge 89, Type (0, 0), BuildingBlock: XIVTED_clean_linker_0, # of connection points: 2
#     Edge 90, Type (0, 0), BuildingBlock: XIVTED_clean_linker_0, # of connection points: 2
#     Edge 91, Type (0, 0), BuildingBlock: XIVTED_clean_linker_0, # of connection points: 2
#     Edge 92, Type (0, 0), BuildingBlock: XIVTED_clean_linker_0, # of connection points: 2
#     Edge 93, Type (0, 0), BuildingBlock: XIVTED_clean_linker_0, # of connection points: 2
#     Edge 94, Type (0, 0), BuildingBlock: XIVTED_clean_linker_0, # of connection points: 2
#     Edge 95, Type (0, 0), BuildingBlock: XIVTED_clean_linker_0, # of connection points: 2
#     Edge 96, Type (0, 0), BuildingBlock: XIVTED_clean_linker_0, # of connection points: 2
#     Edge 97, Type (0, 0), BuildingBlock: XIVTED_clean_linker_0, # of connection points: 2
#     Edge 98, Type (0, 0), BuildingBlock: XIVTED_clean_linker_0, # of connection points: 2
#     Edge 99, Type (0, 0), BuildingBlock: XIVTED_clean_linker_0, # of connection points: 2
#     Edge 100, Type (0, 0), BuildingBlock: XIVTED_clean_linker_0, # of connection points: 2
#     Edge 101, Type (0, 0), BuildingBlock: XIVTED_clean_linker_0, # of connection points: 2
#     Edge 102, Type (0, 0), BuildingBlock: XIVTED_clean_linker_0, # of connection points: 2
#     Edge 103, Type (0, 0), BuildingBlock: XIVTED_clean_linker_0, # of connection points: 2
#     Edge 104, Type (0, 0), BuildingBlock: XIVTED_clean_linker_0, # of connection points: 2
#     Edge 105, Type (0, 0), BuildingBlock: XIVTED_clean_linker_0, # of connection points: 2
#     Edge 106, Type (0, 0), BuildingBlock: XIVTED_clean_linker_0, # of connection points: 2
#     Edge 107, Type (0, 0), BuildingBlock: XIVTED_clean_linker_0, # of connection points: 2
# Relax obj value: 0.027
# Max RMSD: 0.173
# Mean RMSD: 0.173
data_MOF--net-uns--node1-MUDLON_clean_sbu_0--edge1-XIVTED_clean_linker_0
_symmetry_space_group_name_H-M    P1
_symmetry_Int_Tables_number       1
_symmetry_cell_setting            triclinic
loop_
_symmetry_equiv_pos_as_xyz
'x, y, z'
_cell_length_a     58.80779
_cell_length_b     58.98868
_cell_length_c     57.671507
_cell_angle_alpha  89.941362
_cell_angle_beta   89.977405
_cell_angle_gamma 119.93553
loop_
_atom_site_label
_atom_site_type_symbol
_atom_site_fract_x
_atom_site_fract_y
_atom_site_fract_z
_atom_type_partial_charge
Mg0 Mg 0.28451 0.19608 0.06568 0.0
C1 C 0.32728 0.24671 0.08271 0.0
O2 O 0.31482 0.23463 0.10172 0.0
C3 C 0.2678 0.1589 0.02369 0.0
O4 O 0.25398 0.17005 0.01819 0.0
C5 C 0.30852 0.17869 0.10024 0.0
O6 O 0.32149 0.18123 0.08094 0.0
O7 O 0.28878 0.18208 0.09947 0.0
O8 O 0.31926 0.23494 0.06336 0.0
O9 O 0.24999 0.20056 0.06088 0.0
C10 C 0.25254 0.22332 0.06063 0.0
O11 O 0.27561 0.24362 0.06521 0.0
O12 O 0.28292 0.16716 0.04122 0.0
Mg13 Mg 0.83643 0.08837 0.07089 0.0
C14 C 0.80932 0.02901 0.06977 0.0
O15 O 0.78904 0.03173 0.07484 0.0
C16 C 0.85459 0.13206 0.10374 0.0
O17 O 0.85025 0.1413 0.08453 0.0
C18 C 0.8728 0.10273 0.02929 0.0
O19 O 0.8641 0.07745 0.02986 0.0
O20 O 0.86357 0.11248 0.04364 0.0
O21 O 0.832 0.04931 0.06872 0.0
O22 O 0.7971 0.08319 0.06828 0.0
C23 C 0.78544 0.08118 0.08745 0.0
O24 O 0.79809 0.08368 0.10689 0.0
O25 O 0.85184 0.10923 0.10342 0.0
Mg26 Mg 0.93576 0.73821 0.06899 0.0
C27 C 0.98168 0.77592 0.0431 0.0
O28 O 0.96584 0.75877 0.02784 0.0
C29 C 0.92435 0.7288 0.12098 0.0
O30 O 0.94876 0.73387 0.12167 0.0
C31 C 0.91206 0.76193 0.03991 0.0
O32 O 0.92922 0.78137 0.05272 0.0
O33 O 0.90992 0.73949 0.04245 0.0
O34 O 0.97404 0.77342 0.06409 0.0
O35 O 0.94361 0.70576 0.06769 0.0
C36 C 0.96501 0.71121 0.07776 0.0
O37 O 0.98037 0.73528 0.08494 0.0
O38 O 0.91518 0.73181 0.10199 0.0
Mg39 Mg 0.20832 0.28295 0.45723 0.0
C40 C 0.2365 0.2516 0.45644 0.0
O41 O 0.25669 0.27509 0.45306 0.0
C42 C 0.21388 0.29894 0.40655 0.0
O43 O 0.23452 0.29596 0.40829 0.0
C44 C 0.17111 0.29059 0.49029 0.0
O45 O 0.18611 0.3155 0.48527 0.0
O46 O 0.17652 0.27401 0.48165 0.0
O47 O 0.21356 0.24877 0.45715 0.0
O48 O 0.2467 0.3157 0.46623 0.0
C49 C 0.25669 0.33722 0.45512 0.0
O50 O 0.24166 0.34184 0.44138 0.0
O51 O 0.19843 0.29297 0.4238 0.0
Mg52 Mg 0.75394 0.9303 0.45433 0.0
C53 C 0.78764 0.98994 0.45587 0.0
O54 O 0.76583 0.9884 0.44838 0.0
C55 C 0.73044 0.88754 0.42155 0.0
O56 O 0.71655 0.87869 0.44067 0.0
C57 C 0.77213 0.91387 0.49708 0.0
O58 O 0.78851 0.9392 0.49776 0.0
O59 O 0.75416 0.9048 0.48175 0.0
O60 O 0.78865 0.96901 0.45832 0.0
O61 O 0.71948 0.93452 0.4507 0.0
C62 C 0.70968 0.94484 0.46366 0.0
O63 O 0.71955 0.9532 0.4844 0.0
O64 O 0.75072 0.91025 0.42186 0.0
Mg65 Mg 0.09579 0.82023 0.45158 0.0
C66 C 0.10518 0.77363 0.45186 0.0
O67 O 0.12549 0.78898 0.43887 0.0
C68 C 0.12636 0.87545 0.46457 0.0
O69 O 0.11439 0.87522 0.44525 0.0
C70 C 0.10462 0.81036 0.40129 0.0
O71 O 0.0866 0.7863 0.4065 0.0
O72 O 0.11071 0.82843 0.41613 0.0
O73 O 0.09206 0.7829 0.46141 0.0
O74 O 0.05662 0.81525 0.45537 0.0
C75 C 0.03653 0.79243 0.4552 0.0
O76 O 0.03961 0.77229 0.45071 0.0
O77 O 0.12247 0.85373 0.4727 0.0
Mg78 Mg 0.75108 0.82278 0.95304 0.0
C79 C 0.78263 0.79473 0.95605 0.0
O80 O 0.75926 0.7744 0.95256 0.0
C81 C 0.72579 0.84079 0.9199 0.0
O82 O 0.71218 0.83656 0.9391 0.0
C83 C 0.77775 0.86845 0.98452 0.0
O84 O 0.7974 0.86908 0.97312 0.0
O85 O 0.75457 0.85002 0.98026 0.0
O86 O 0.78535 0.81755 0.95563 0.0
O87 O 0.71641 0.78392 0.95496 0.0
C88 C 0.70868 0.77252 0.93544 0.0
O89 O 0.72123 0.78511 0.91663 0.0
O90 O 0.74611 0.83835 0.92039 0.0
Mg91 Mg 0.20054 0.93046 0.94126 0.0
C92 C 0.25318 0.94267 0.96339 0.0
O93 O 0.24719 0.95479 0.97924 0.0
C94 C 0.16299 0.897 0.98224 0.0
O95 O 0.18393 0.90517 0.99531 0.0
C96 C 0.1863 0.89168 0.9051 0.0
O97 O 0.18364 0.87925 0.92473 0.0
O98 O 0.1926 0.91569 0.90591 0.0
O99 O 0.23641 0.92944 0.9479 0.0
O100 O 0.20969 0.97102 0.94595 0.0
C101 C 0.20928 0.97766 0.96687 0.0
O102 O 0.20171 0.95972 0.98312 0.0
O103 O 0.16548 0.90424 0.96115 0.0
Mg104 Mg 0.0952 0.27316 0.94751 0.0
C105 C 0.04264 0.21771 0.94725 0.0
O106 O 0.05264 0.20965 0.93104 0.0
C107 C 0.10421 0.27278 0.89478 0.0
O108 O 0.07888 0.26385 0.89321 0.0
C109 C 0.1179 0.25074 0.97913 0.0
O110 O 0.09904 0.23049 0.96832 0.0
O111 O 0.12137 0.27338 0.97455 0.0
O112 O 0.05604 0.24071 0.95536 0.0
O113 O 0.08932 0.30684 0.944 0.0
C114 C 0.06885 0.30047 0.93195 0.0
O115 O 0.0537 0.27575 0.92652 0.0
O116 O 0.11442 0.27485 0.91467 0.0
Mg117 Mg 0.82829 0.74133 0.56714 0.0
C118 C 0.82789 0.795 0.56986 0.0
O119 O 0.84476 0.80235 0.58704 0.0
C120 C 0.83491 0.73901 0.61996 0.0
O121 O 0.81631 0.74512 0.62107 0.0
C122 C 0.87374 0.76544 0.53504 0.0
O123 O 0.87426 0.78581 0.5448 0.0
O124 O 0.85531 0.74269 0.54048 0.0
O125 O 0.82001 0.77293 0.56027 0.0
O126 O 0.78955 0.70631 0.56784 0.0
C127 C 0.77314 0.71014 0.5791 0.0
O128 O 0.78048 0.73389 0.58638 0.0
O129 O 0.84491 0.73915 0.60036 0.0
Mg130 Mg 0.29304 0.09386 0.56106 0.0
C131 C 0.32632 0.07626 0.5804 0.0
O132 O 0.30625 0.06895 0.59446 0.0
C133 C 0.26962 0.11873 0.53311 0.0
O134 O 0.2499 0.10076 0.54522 0.0
C135 C 0.3173 0.13314 0.59671 0.0
O136 O 0.33237 0.14252 0.5783 0.0
O137 O 0.29602 0.11138 0.59491 0.0
O138 O 0.32697 0.08828 0.56183 0.0
O139 O 0.25931 0.05508 0.5547 0.0
C140 C 0.25599 0.04899 0.53331 0.0
O141 O 0.27207 0.06615 0.51814 0.0
O142 O 0.29214 0.12087 0.53556 0.0
Mg143 Mg 0.93821 0.19951 0.56938 0.0
C144 C 0.99777 0.23001 0.5687 0.0
O145 O 0.99307 0.24811 0.57667 0.0
C146 C 0.89518 0.17954 0.60304 0.0
O147 O 0.8846 0.18119 0.5835 0.0
C148 C 0.9173 0.15178 0.54003 0.0
O149 O 0.93549 0.1505 0.55224 0.0
O150 O 0.91395 0.1713 0.54296 0.0
O151 O 0.97853 0.207 0.56554 0.0
O152 O 0.94056 0.23756 0.56657 0.0
C153 C 0.94204 0.249 0.58571 0.0
O154 O 0.94078 0.23686 0.60517 0.0
O155 O 0.91884 0.18431 0.60266 0.0
Mg156 Mg 0.95161 0.5353 0.39655 0.0
C157 C 0.98489 0.58641 0.41447 0.0
O158 O 0.96485 0.57401 0.42861 0.0
C159 C 0.9298 0.48389 0.37435 0.0
O160 O 0.91307 0.48071 0.39088 0.0
C161 C 0.9782 0.52104 0.43098 0.0
O162 O 0.99176 0.52541 0.41173 0.0
O163 O 0.95711 0.5221 0.4303 0.0
O164 O 0.98543 0.57471 0.39609 0.0
O165 O 0.9171 0.54006 0.39254 0.0
C166 C 0.90541 0.53394 0.37304 0.0
O167 O 0.91365 0.52394 0.357 0.0
O168 O 0.94984 0.50649 0.37159 0.0
Mg169 Mg 0.49682 0.42103 0.40456 0.0
C170 C 0.50603 0.37617 0.39227 0.0
O171 O 0.52906 0.39585 0.38641 0.0
C172 C 0.51326 0.46299 0.43872 0.0
O173 O 0.51018 0.47304 0.41944 0.0
C174 C 0.5276 0.46205 0.36495 0.0
O175 O 0.50921 0.46849 0.36585 0.0
O176 O 0.52607 0.44405 0.37813 0.0
O177 O 0.4894 0.38097 0.40185 0.0
O178 O 0.4578 0.41678 0.40383 0.0
C179 C 0.44612 0.40507 0.42245 0.0
O180 O 0.45854 0.39767 0.4368 0.0
O181 O 0.51082 0.44031 0.43798 0.0
Mg182 Mg 0.60683 0.076 0.40666 0.0
C183 C 0.65526 0.11285 0.38183 0.0
O184 O 0.63829 0.10011 0.36529 0.0
C185 C 0.56406 0.05396 0.43945 0.0
O186 O 0.55367 0.04579 0.41884 0.0
C187 C 0.57494 0.08053 0.36353 0.0
O188 O 0.58396 0.06895 0.34994 0.0
O189 O 0.5815 0.08428 0.38481 0.0
O190 O 0.64755 0.10772 0.4028 0.0
O191 O 0.60614 0.0389 0.40338 0.0
C192 C 0.62427 0.03636 0.39392 0.0
O193 O 0.64191 0.05547 0.38112 0.0
O194 O 0.58868 0.06976 0.44081 0.0
Mg195 Mg 0.87687 0.61783 0.78431 0.0
C196 C 0.89612 0.5849 0.80288 0.0
O197 O 0.90534 0.60559 0.81633 0.0
C198 C 0.85103 0.63858 0.75359 0.0
O199 O 0.84484 0.64283 0.77439 0.0
C200 C 0.83048 0.59055 0.81515 0.0
O201 O 0.82955 0.57141 0.80277 0.0
O202 O 0.84951 0.61366 0.8119 0.0
O203 O 0.88157 0.58334 0.78589 0.0
O204 O 0.91713 0.64977 0.7874 0.0
C205 C 0.92576 0.67179 0.77738 0.0
O206 O 0.90909 0.67776 0.76796 0.0
O207 O 0.8634 0.62606 0.75178 0.0
Mg208 Mg 0.41654 0.26426 0.78298 0.0
C209 C 0.44695 0.32169 0.79367 0.0
O210 O 0.4228 0.31629 0.79781 0.0
C211 C 0.3914 0.22281 0.74869 0.0
O212 O 0.37627 0.21403 0.76712 0.0
C213 C 0.43723 0.24804 0.82421 0.0
O214 O 0.45427 0.27322 0.82394 0.0
O215 O 0.41819 0.23896 0.80993 0.0
O216 O 0.45081 0.30354 0.78625 0.0
O217 O 0.38193 0.26883 0.78226 0.0
C218 C 0.37938 0.27756 0.76279 0.0
O219 O 0.39686 0.28228 0.74653 0.0
O220 O 0.41269 0.24462 0.75011 0.0
Mg221 Mg 0.75966 0.15773 0.78453 0.0
C222 C 0.75308 0.10722 0.76868 0.0
O223 O 0.75243 0.11879 0.74944 0.0
C224 C 0.77775 0.2043 0.81536 0.0
O225 O 0.75631 0.20213 0.80619 0.0
C226 C 0.80232 0.17528 0.75073 0.0
O227 O 0.81251 0.17306 0.77028 0.0
O228 O 0.7791 0.17175 0.75109 0.0
O229 O 0.75673 0.11938 0.78782 0.0
O230 O 0.71955 0.15117 0.78767 0.0
C231 C 0.70021 0.12807 0.79026 0.0
O232 O 0.70436 0.10821 0.78884 0.0
O233 O 0.78425 0.1873 0.81016 0.0
Mg234 Mg 0.42032 0.15849 0.28329 0.0
C235 C 0.45441 0.14396 0.30744 0.0
O236 O 0.43832 0.14419 0.32315 0.0
C237 C 0.39472 0.17468 0.24925 0.0
O238 O 0.38158 0.17134 0.26859 0.0
C239 C 0.44985 0.20648 0.31099 0.0
O240 O 0.46775 0.20574 0.29788 0.0
O241 O 0.4262 0.18795 0.30925 0.0
O242 O 0.4524 0.15016 0.28671 0.0
O243 O 0.38518 0.12014 0.28611 0.0
C244 C 0.38005 0.10766 0.26703 0.0
O245 O 0.39549 0.11906 0.24917 0.0
O246 O 0.41512 0.17238 0.24984 0.0
Mg247 Mg 0.87821 0.26328 0.28934 0.0
C248 C 0.93402 0.28245 0.30799 0.0
O249 O 0.92774 0.29445 0.32377 0.0
C250 C 0.83827 0.23982 0.32921 0.0
O251 O 0.84971 0.26424 0.33623 0.0
C252 C 0.86833 0.22584 0.25302 0.0
O253 O 0.87164 0.21575 0.27217 0.0
O254 O 0.86892 0.24769 0.25428 0.0
O255 O 0.91674 0.26738 0.29362 0.0
O256 O 0.88132 0.30137 0.29513 0.0
C257 C 0.90204 0.32291 0.29055 0.0
O258 O 0.92159 0.32245 0.27998 0.0
O259 O 0.84715 0.23411 0.31136 0.0
Mg260 Mg 0.75611 0.60749 0.2806 0.0
C261 C 0.69616 0.57793 0.28142 0.0
O262 O 0.70021 0.60091 0.27466 0.0
C263 C 0.8028 0.627 0.25138 0.0
O264 O 0.81184 0.63643 0.2721 0.0
C265 C 0.77585 0.57932 0.30732 0.0
O266 O 0.75933 0.5628 0.29203 0.0
O267 O 0.77874 0.6022 0.30815 0.0
O268 O 0.71578 0.57446 0.28364 0.0
O269 O 0.75328 0.6432 0.27913 0.0
C270 C 0.75012 0.64864 0.25838 0.0
O271 O 0.74988 0.63352 0.24159 0.0
O272 O 0.77836 0.6109 0.24915 0.0
Mg273 Mg 0.4899 0.07474 0.90081 0.0
C274 C 0.48952 0.12804 0.90063 0.0
O275 O 0.50892 0.13683 0.91559 0.0
C276 C 0.52411 0.06993 0.93774 0.0
O277 O 0.53716 0.06936 0.91948 0.0
C278 C 0.53582 0.09904 0.86892 0.0
O279 O 0.53574 0.11939 0.87805 0.0
O280 O 0.51765 0.07624 0.87465 0.0
O281 O 0.47962 0.10478 0.89303 0.0
O282 O 0.45165 0.03928 0.90337 0.0
C283 C 0.44091 0.03967 0.92246 0.0
O284 O 0.45361 0.06002 0.93611 0.0
O285 O 0.50565 0.07501 0.93512 0.0
Mg286 Mg 0.95461 0.42417 0.89711 0.0
C287 C 0.98984 0.40487 0.87866 0.0
O288 O 0.9693 0.39116 0.86539 0.0
C289 C 0.93517 0.44661 0.85806 0.0
O290 O 0.92013 0.422 0.85216 0.0
C291 C 0.97969 0.46293 0.93357 0.0
O292 O 0.99095 0.47515 0.9142 0.0
O293 O 0.9609 0.4394 0.93235 0.0
O294 O 0.99007 0.42223 0.8918 0.0
O295 O 0.92257 0.38405 0.89195 0.0
C296 C 0.89817 0.3764 0.89118 0.0
O297 O 0.89025 0.3933 0.89517 0.0
O298 O 0.95123 0.4523 0.8748 0.0
Mg299 Mg 0.60764 0.52972 0.90054 0.0
C300 C 0.66727 0.55717 0.89821 0.0
O301 O 0.66448 0.57726 0.90361 0.0
C302 C 0.56422 0.51131 0.9334 0.0
O303 O 0.55496 0.5152 0.91399 0.0
C304 C 0.58757 0.48532 0.86667 0.0
O305 O 0.60844 0.48529 0.87476 0.0
O306 O 0.58258 0.50283 0.87368 0.0
O307 O 0.64694 0.53452 0.89716 0.0
O308 O 0.61201 0.56867 0.89898 0.0
C309 C 0.61553 0.57993 0.91856 0.0
O310 O 0.61559 0.56733 0.93732 0.0
O311 O 0.58717 0.51418 0.93326 0.0
Mg312 Mg 0.61749 0.86355 0.73517 0.0
C313 C 0.65585 0.91475 0.7524 0.0
O314 O 0.6391 0.90323 0.76941 0.0
C315 C 0.59479 0.82065 0.69816 0.0
O316 O 0.57533 0.82553 0.69908 0.0
C317 C 0.64234 0.84832 0.77033 0.0
O318 O 0.65594 0.85191 0.75123 0.0
O319 O 0.62171 0.85018 0.76926 0.0
O320 O 0.65247 0.90219 0.73355 0.0
O321 O 0.58615 0.87266 0.73019 0.0
C322 C 0.56161 0.85907 0.73391 0.0
O323 O 0.55175 0.83547 0.74273 0.0
O324 O 0.61529 0.83456 0.7102 0.0
Mg325 Mg 0.16256 0.75742 0.72245 0.0
C326 C 0.13922 0.69853 0.72433 0.0
O327 O 0.11862 0.7 0.73096 0.0
C328 C 0.18344 0.80141 0.75652 0.0
O329 O 0.18918 0.81418 0.73674 0.0
C330 C 0.20292 0.77426 0.68403 0.0
O331 O 0.19509 0.74916 0.68484 0.0
O332 O 0.1916 0.78314 0.69695 0.0
O333 O 0.16091 0.71961 0.72124 0.0
O334 O 0.12224 0.74837 0.71705 0.0
C335 C 0.11308 0.76208 0.72553 0.0
O336 O 0.12929 0.78507 0.73444 0.0
O337 O 0.17321 0.77663 0.75613 0.0
Mg338 Mg 0.26484 0.40677 0.73311 0.0
C339 C 0.32443 0.43821 0.73431 0.0
O340 O 0.32117 0.4146 0.73639 0.0
C341 C 0.2172 0.38035 0.76207 0.0
O342 O 0.20829 0.37305 0.74091 0.0
C343 C 0.22867 0.40204 0.69102 0.0
O344 O 0.22336 0.3777 0.68902 0.0
O345 O 0.24449 0.41652 0.70666 0.0
O346 O 0.3043 0.44101 0.73447 0.0
O347 O 0.27019 0.37308 0.72694 0.0
C348 C 0.26843 0.35955 0.74482 0.0
O349 O 0.26132 0.36517 0.76458 0.0
O350 O 0.24138 0.39713 0.76476 0.0
Mg351 Mg 0.53786 0.94782 0.11809 0.0
C352 C 0.54735 0.91048 0.14246 0.0
O353 O 0.54842 0.92731 0.15796 0.0
C354 C 0.53615 0.98167 0.08191 0.0
O355 O 0.54933 0.99745 0.09904 0.0
C356 C 0.49018 0.92295 0.14798 0.0
O357 O 0.48865 0.90288 0.13673 0.0
O358 O 0.50977 0.94559 0.14414 0.0
O359 O 0.54178 0.91299 0.12162 0.0
O360 O 0.57843 0.97882 0.12194 0.0
C361 C 0.59152 0.97975 0.104 0.0
O362 O 0.57942 0.9627 0.08736 0.0
O363 O 0.52686 0.95714 0.08457 0.0
Mg364 Mg 0.08278 0.59112 0.12014 0.0
C365 C 0.11893 0.63858 0.14496 0.0
O366 O 0.10333 0.6222 0.16084 0.0
C367 C 0.06279 0.54868 0.0849 0.0
O368 O 0.05414 0.53549 0.10437 0.0
C369 C 0.11225 0.57325 0.14989 0.0
O370 O 0.1311 0.59295 0.13846 0.0
O371 O 0.08855 0.56708 0.14584 0.0
O372 O 0.11563 0.63105 0.12393 0.0
O373 O 0.049 0.59622 0.1259 0.0
C374 C 0.03051 0.58844 0.11113 0.0
O375 O 0.02957 0.57332 0.09405 0.0
O376 O 0.07748 0.57343 0.08593 0.0
Mg377 Mg 0.4296 0.48932 0.11599 0.0
C378 C 0.4173 0.4382 0.10049 0.0
O379 O 0.41117 0.44902 0.08349 0.0
C380 C 0.45247 0.52621 0.15916 0.0
O381 O 0.4298 0.51108 0.16927 0.0
C382 C 0.46973 0.50336 0.08101 0.0
O383 O 0.4797 0.50054 0.10046 0.0
O384 O 0.44711 0.50129 0.08164 0.0
O385 O 0.4266 0.45117 0.11912 0.0
O386 O 0.38925 0.48092 0.12039 0.0
C387 C 0.38261 0.49736 0.127 0.0
O388 O 0.4008 0.52199 0.12955 0.0
O389 O 0.45678 0.52042 0.139 0.0
Mg390 Mg 0.08646 0.49121 0.61215 0.0
C391 C 0.11721 0.46223 0.61043 0.0
O392 O 0.0955 0.44461 0.60038 0.0
C393 C 0.06278 0.51081 0.57901 0.0
O394 O 0.04979 0.50765 0.59842 0.0
C395 C 0.11297 0.53788 0.64271 0.0
O396 O 0.1327 0.53896 0.63107 0.0
O397 O 0.09 0.51881 0.63901 0.0
O398 O 0.11961 0.48429 0.61571 0.0
O399 O 0.051 0.45293 0.6143 0.0
C400 C 0.0418 0.44171 0.59492 0.0
O401 O 0.05351 0.45406 0.57576 0.0
O402 O 0.08229 0.50703 0.57927 0.0
Mg403 Mg 0.53567 0.59128 0.62415 0.0
C404 C 0.5854 0.58973 0.61205 0.0
O405 O 0.57149 0.57737 0.59376 0.0
C406 C 0.48885 0.57102 0.6555 0.0
O407 O 0.48873 0.59114 0.64582 0.0
C408 C 0.5133 0.54862 0.58929 0.0
O409 O 0.51021 0.53588 0.60881 0.0
O410 O 0.52218 0.57321 0.59018 0.0
O411 O 0.57464 0.59571 0.62827 0.0
O412 O 0.54207 0.63112 0.62768 0.0
C413 C 0.56076 0.646 0.64119 0.0
O414 O 0.5742 0.63654 0.65143 0.0
O415 O 0.5071 0.5663 0.65019 0.0
Mg416 Mg 0.43361 0.94829 0.62454 0.0
C417 C 0.38188 0.8938 0.61976 0.0
O418 O 0.39654 0.88475 0.6113 0.0
C419 C 0.44396 0.95855 0.57274 0.0
O420 O 0.42022 0.95542 0.57315 0.0
C421 C 0.44573 0.91983 0.66261 0.0
O422 O 0.42026 0.90402 0.66139 0.0
O423 O 0.45626 0.94039 0.6501 0.0
O424 O 0.39242 0.91778 0.62537 0.0
O425 O 0.43086 0.98323 0.63096 0.0
C426 C 0.44215 1.00334 0.61797 0.0
O427 O 0.45998 1.00533 0.60312 0.0
O428 O 0.45332 0.9547 0.59123 0.0
Mg429 Mg 0.16932 0.41345 0.24154 0.0
C430 C 0.16765 0.46634 0.24319 0.0
O431 O 0.18936 0.47677 0.25544 0.0
C432 C 0.20122 0.40045 0.27241 0.0
O433 O 0.20496 0.39312 0.25194 0.0
C434 C 0.21172 0.44118 0.20708 0.0
O435 O 0.20978 0.45993 0.21746 0.0
O436 O 0.19569 0.41758 0.21279 0.0
O437 O 0.15712 0.44258 0.23689 0.0
O438 O 0.13142 0.37777 0.24529 0.0
C439 C 0.12235 0.37774 0.26538 0.0
O440 O 0.13663 0.39736 0.27935 0.0
O441 O 0.18871 0.41287 0.27361 0.0
Mg442 Mg 0.61519 0.75613 0.23817 0.0
C443 C 0.65308 0.73986 0.21745 0.0
O444 O 0.6333 0.72508 0.2038 0.0
C445 C 0.61102 0.79005 0.19763 0.0
O446 O 0.62302 0.78135 0.18417 0.0
C447 C 0.64438 0.79349 0.27409 0.0
O448 O 0.65601 0.80435 0.25441 0.0
O449 O 0.62361 0.77114 0.27343 0.0
O450 O 0.65141 0.75605 0.23082 0.0
O451 O 0.58292 0.71585 0.23395 0.0
C452 C 0.57477 0.70952 0.21323 0.0
O453 O 0.58485 0.72763 0.19708 0.0
O454 O 0.60676 0.783 0.2188 0.0
Mg455 Mg 0.26732 0.86456 0.23275 0.0
C456 C 0.32643 0.89268 0.22742 0.0
O457 O 0.32224 0.9125 0.22603 0.0
C458 C 0.22446 0.85216 0.26455 0.0
O459 O 0.22027 0.86295 0.24632 0.0
C460 C 0.24526 0.81425 0.21066 0.0
O461 O 0.25957 0.81425 0.22816 0.0
O462 O 0.24459 0.83513 0.20658 0.0
O463 O 0.3071 0.86996 0.23166 0.0
O464 O 0.27176 0.90355 0.22993 0.0
C465 C 0.27723 0.91548 0.24933 0.0
O466 O 0.27859 0.90322 0.26784 0.0
O467 O 0.2443 0.84888 0.26447 0.0
H468 H 0.29205 0.18059 0.14452 0.0
H469 H 0.41159 0.17393 0.20491 0.0
H470 H 0.35038 0.17141 0.10682 0.0
H471 H 0.352 0.18067 0.24295 0.0
H472 H 0.38996 0.17401 0.16867 0.0
H473 H 0.31357 0.18049 0.18085 0.0
C474 C 0.3092 0.17828 0.14388 0.0
C475 C 0.31942 0.17602 0.12257 0.0
C476 C 0.38168 0.17557 0.18496 0.0
C477 C 0.34436 0.17625 0.16404 0.0
C478 C 0.39413 0.17569 0.20565 0.0
C479 C 0.3836 0.17728 0.22702 0.0
C480 C 0.35854 0.17706 0.18563 0.0
C481 C 0.36081 0.17936 0.2269 0.0
C482 C 0.32158 0.17838 0.16462 0.0
C483 C 0.34181 0.17326 0.12281 0.0
N484 N 0.34903 0.17911 0.20657 0.0
N485 N 0.35355 0.17355 0.14317 0.0
H486 H 0.85899 0.1169 0.14781 0.0
H487 H 0.86571 0.24243 0.20886 0.0
H488 H 0.85972 0.18036 0.10985 0.0
H489 H 0.86556 0.17884 0.2461 0.0
H490 H 0.86371 0.22029 0.17229 0.0
H491 H 0.86244 0.13997 0.18401 0.0
C492 C 0.8601 0.13577 0.14706 0.0
C493 C 0.85902 0.14666 0.12574 0.0
C494 C 0.86409 0.2112 0.18849 0.0
C495 C 0.8627 0.17312 0.16715 0.0
C496 C 0.86513 0.2238 0.20936 0.0
C497 C 0.8658 0.21251 0.2306 0.0
C498 C 0.86371 0.18716 0.18888 0.0
C499 C 0.8651 0.18834 0.23019 0.0
C500 C 0.86196 0.14892 0.16775 0.0
C501 C 0.86045 0.17117 0.12587 0.0
N502 N 0.86413 0.17654 0.20972 0.0
N503 N 0.86211 0.18351 0.14622 0.0
H504 H 0.78908 0.62685 0.2057 0.0
H505 H 0.9376 0.72122 0.16461 0.0
H506 H 0.85618 0.65476 0.25093 0.0
H507 H 0.87053 0.7049 0.1224 0.0
H508 H 0.90797 0.69481 0.19568 0.0
H509 H 0.81857 0.65208 0.17378 0.0
C510 C 0.81002 0.63791 0.20882 0.0
C511 C 0.82019 0.63872 0.23102 0.0
C512 C 0.8997 0.6971 0.17967 0.0
C513 C 0.85395 0.66787 0.19474 0.0
C514 C 0.91664 0.7123 0.16193 0.0
C515 C 0.90659 0.71537 0.14084 0.0
C516 C 0.87242 0.68463 0.17631 0.0
C517 C 0.87919 0.70321 0.13839 0.0
C518 C 0.82682 0.65252 0.19067 0.0
C519 C 0.84746 0.65363 0.23413 0.0
N520 N 0.86307 0.68826 0.15585 0.0
N521 N 0.86334 0.66763 0.21626 0.0
H522 H 0.17929 0.31702 0.40115 0.0
H523 H 0.23371 0.38009 0.27636 0.0
H524 H 0.24309 0.3144 0.36664 0.0
H525 H 0.18026 0.39486 0.31608 0.0
H526 H 0.23714 0.35571 0.3091 0.0
H527 H 0.1781 0.34411 0.36957 0.0
C528 C 0.1929 0.32192 0.38684 0.0
C529 C 0.21128 0.31331 0.38655 0.0
C530 C 0.22486 0.36449 0.31079 0.0
C531 C 0.21017 0.3446 0.35041 0.0
C532 C 0.22297 0.37852 0.29211 0.0
C533 C 0.20666 0.38954 0.29346 0.0
C534 C 0.21009 0.36112 0.33094 0.0
C535 C 0.19319 0.38683 0.31432 0.0
C536 C 0.19234 0.33758 0.3689 0.0
C537 C 0.22855 0.3205 0.36761 0.0
N538 N 0.19498 0.37266 0.33215 0.0
N539 N 0.22754 0.33568 0.35032 0.0
H540 H 0.62845 0.77601 0.31875 0.0
H541 H 0.74887 0.90264 0.37706 0.0
H542 H 0.68863 0.84084 0.2799 0.0
H543 H 0.68822 0.83855 0.41624 0.0
H544 H 0.72823 0.87919 0.3412 0.0
H545 H 0.65068 0.79794 0.35475 0.0
C546 C 0.64624 0.79486 0.31778 0.0
C547 C 0.65663 0.80659 0.29626 0.0
C548 C 0.71953 0.8702 0.35766 0.0
C549 C 0.68229 0.83172 0.33733 0.0
C550 C 0.7314 0.88354 0.37815 0.0
C551 C 0.72022 0.87263 0.3997 0.0
C552 C 0.69629 0.84578 0.35873 0.0
C553 C 0.69749 0.84782 0.40002 0.0
C554 C 0.65899 0.80734 0.33832 0.0
C555 C 0.67984 0.83102 0.29606 0.0
N556 N 0.68623 0.83532 0.37988 0.0
N557 N 0.69185 0.84272 0.31623 0.0
H558 H 0.11373 0.77603 0.37678 0.0
H559 H 0.1973 0.87607 0.2774 0.0
H560 H 0.13299 0.85682 0.37828 0.0
H561 H 0.21241 0.81453 0.29815 0.0
H562 H 0.16771 0.86566 0.31045 0.0
H563 H 0.14366 0.78604 0.34378 0.0
C564 C 0.12398 0.79579 0.36997 0.0
C565 C 0.12079 0.81564 0.38018 0.0
C566 C 0.17753 0.85447 0.30781 0.0
C567 C 0.15489 0.82708 0.34257 0.0
C568 C 0.19434 0.8603 0.28892 0.0
C569 C 0.20729 0.8461 0.28505 0.0
C570 C 0.17313 0.83388 0.32269 0.0
C571 C 0.20287 0.826 0.30062 0.0
C572 C 0.14122 0.80149 0.35134 0.0
C573 C 0.13485 0.84096 0.37089 0.0
N574 N 0.18589 0.82027 0.31869 0.0
N575 N 0.15115 0.84593 0.3525 0.0
H576 H 0.62427 0.84793 0.8145 0.0
H577 H 0.74424 0.84276 0.87571 0.0
H578 H 0.68539 0.84313 0.77721 0.0
H579 H 0.68258 0.84602 0.91354 0.0
H580 H 0.72345 0.84404 0.83938 0.0
H581 H 0.64519 0.84726 0.85106 0.0
C582 C 0.64192 0.8465 0.81399 0.0
C583 C 0.65307 0.84559 0.79274 0.0
C584 C 0.71453 0.84459 0.85564 0.0
C585 C 0.67729 0.84514 0.83446 0.0
C586 C 0.72649 0.84401 0.87639 0.0
C587 C 0.71515 0.84425 0.89773 0.0
C588 C 0.69102 0.8454 0.85618 0.0
C589 C 0.69203 0.84575 0.89752 0.0
C590 C 0.65395 0.84626 0.83486 0.0
C591 C 0.67608 0.84391 0.79314 0.0
N592 N 0.6807 0.84618 0.87711 0.0
N593 N 0.68743 0.84381 0.81362 0.0
H594 H 0.1699 0.84002 0.89861 0.0
H595 H 0.20162 0.85371 0.76267 0.0
H596 H 0.19868 0.91259 0.86102 0.0
H597 H 0.16966 0.78092 0.80043 0.0
H598 H 0.2017 0.87588 0.79845 0.0
H599 H 0.1699 0.81831 0.86273 0.0
C600 C 0.1761 0.85141 0.88276 0.0
C601 C 0.18435 0.87823 0.88287 0.0
C602 C 0.19475 0.85508 0.79893 0.0
C603 C 0.18459 0.85337 0.84156 0.0
C604 C 0.19479 0.84239 0.77851 0.0
C605 C 0.1856 0.81536 0.7785 0.0
C606 C 0.18546 0.84068 0.81957 0.0
C607 C 0.17695 0.80176 0.79958 0.0
C608 C 0.17614 0.83896 0.86225 0.0
C609 C 0.19211 0.89188 0.86175 0.0
N610 N 0.17704 0.81455 0.81922 0.0
N611 N 0.19214 0.87932 0.84195 0.0
H612 H 0.15808 0.30039 0.89333 0.0
H613 H 0.16423 0.34745 0.76203 0.0
H614 H 0.08973 0.27576 0.8502 0.0
H615 H 0.23151 0.37961 0.8074 0.0
H616 H 0.13699 0.31985 0.79373 0.0
H617 H 0.18572 0.32715 0.86131 0.0
C618 C 0.14887 0.30029 0.87704 0.0
C619 C 0.12145 0.2858 0.87452 0.0
C620 C 0.15768 0.33302 0.79683 0.0
C621 C 0.15307 0.31675 0.83785 0.0
C622 C 0.17326 0.34889 0.77874 0.0
C623 C 0.20023 0.36593 0.78204 0.0
C624 C 0.1691 0.33396 0.81844 0.0
C625 C 0.2108 0.36689 0.8041 0.0
C626 C 0.16469 0.31577 0.85881 0.0
C627 C 0.11072 0.28658 0.85299 0.0
N628 N 0.19523 0.35101 0.82142 0.0
N629 N 0.12653 0.30188 0.83556 0.0
H630 H 0.86705 0.71766 0.62241 0.0
H631 H 0.82263 0.66361 0.75168 0.0
H632 H 0.81441 0.73215 0.66377 0.0
H633 H 0.87146 0.64458 0.70954 0.0
H634 H 0.82021 0.68943 0.71977 0.0
H635 H 0.87076 0.69266 0.65459 0.0
C636 C 0.85652 0.71589 0.63834 0.0
C637 C 0.84032 0.72702 0.64031 0.0
C638 C 0.83138 0.67954 0.71741 0.0
C639 C 0.84424 0.69806 0.67715 0.0
C640 C 0.83269 0.66467 0.73563 0.0
C641 C 0.84727 0.65185 0.73332 0.0
C642 C 0.84483 0.68181 0.69665 0.0
C643 C 0.85989 0.654 0.71207 0.0
C644 C 0.85852 0.70143 0.65666 0.0
C645 C 0.82711 0.72394 0.66139 0.0
N646 N 0.85848 0.66881 0.69459 0.0
N647 N 0.82927 0.70968 0.6789 0.0
H648 H 0.41376 0.23828 0.70549 0.0
H649 H 0.29515 0.11672 0.63997 0.0
H650 H 0.34694 0.17605 0.74076 0.0
H651 H 0.36148 0.17987 0.605 0.0
H652 H 0.31365 0.13808 0.67716 0.0
H653 H 0.39528 0.21658 0.66849 0.0
C654 C 0.39534 0.21995 0.70549 0.0
C655 C 0.38189 0.209 0.72628 0.0
C656 C 0.32409 0.14728 0.66132 0.0
C657 C 0.36045 0.18417 0.68397 0.0
C658 C 0.31346 0.13515 0.64008 0.0
C659 C 0.32677 0.14649 0.61932 0.0
C660 C 0.3482 0.1709 0.66178 0.0
C661 C 0.35052 0.17035 0.62054 0.0
C662 C 0.38471 0.20762 0.68435 0.0
C663 C 0.358 0.18526 0.72518 0.0
N664 N 0.36048 0.18169 0.64136 0.0
N665 N 0.34803 0.1737 0.70442 0.0
H666 H 0.91352 0.18332 0.6476 0.0
H667 H 0.78425 0.17195 0.70612 0.0
H668 H 0.84503 0.16986 0.60898 0.0
H669 H 0.85204 0.18369 0.74491 0.0
H670 H 0.80651 0.17191 0.67023 0.0
H671 H 0.89118 0.18308 0.68353 0.0
C672 C 0.89371 0.18003 0.64668 0.0
C673 C 0.88117 0.17662 0.62521 0.0
C674 C 0.81655 0.1746 0.6866 0.0
C675 C 0.85559 0.17669 0.66625 0.0
C676 C 0.80389 0.17479 0.70709 0.0
C677 C 0.81626 0.17782 0.72859 0.0
C678 C 0.84177 0.17747 0.6876 0.0
C679 C 0.84169 0.18124 0.72876 0.0
C680 C 0.881 0.18005 0.66719 0.0
C681 C 0.85552 0.17261 0.6251 0.0
N682 N 0.85354 0.1809 0.70863 0.0
N683 N 0.84365 0.17286 0.64525 0.0
H684 H 0.96053 0.51966 0.47549 0.0
H685 H 0.07996 0.51149 0.53448 0.0
H686 H 0.02152 0.51604 0.43685 0.0
H687 H 0.0207 0.51802 0.57328 0.0
H688 H 0.05895 0.5134 0.49846 0.0
H689 H 0.98177 0.51824 0.5116 0.0
C690 C 0.97823 0.51834 0.47459 0.0
C691 C 0.98924 0.51798 0.4531 0.0
C692 C 0.05062 0.51454 0.51487 0.0
C693 C 1.01382 0.51663 0.49431 0.0
C694 C 0.06271 0.51359 0.53544 0.0
C695 C 0.0521 0.51458 0.55696 0.0
C696 C 0.02771 0.51643 0.5158 0.0
C697 C 0.02959 0.51715 0.55711 0.0
C698 C 0.99045 0.51768 0.4952 0.0
C699 C 1.01232 0.51641 0.453 0.0
N700 N 0.01811 0.51788 0.53689 0.0
N701 N 0.02383 0.51585 0.47324 0.0
H702 H 0.52371 0.51312 0.44513 0.0
H703 H 0.49887 0.49734 0.58214 0.0
H704 H 0.50762 0.44355 0.48307 0.0
H705 H 0.52368 0.56976 0.54537 0.0
H706 H 0.50002 0.47679 0.54581 0.0
H707 H 0.52295 0.53387 0.48148 0.0
C708 C 0.52023 0.50225 0.46115 0.0
C709 C 0.51571 0.47651 0.46102 0.0
C710 C 0.50513 0.49715 0.54565 0.0
C711 C 0.51448 0.50015 0.5028 0.0
C712 C 0.50433 0.5089 0.5664 0.0
C713 C 0.51121 0.53539 0.56687 0.0
C714 C 0.5128 0.5119 0.5251 0.0
C715 C 0.51817 0.54931 0.54586 0.0
C716 C 0.51973 0.51412 0.48191 0.0
C717 C 0.51133 0.46345 0.48233 0.0
N718 N 0.51885 0.53742 0.52587 0.0
N719 N 0.51066 0.47536 0.50234 0.0
H720 H 0.57892 0.05258 0.48459 0.0
H721 H 0.43053 0.96827 0.52993 0.0
H722 H 0.51082 0.02869 0.44137 0.0
H723 H 0.49717 0.9783 0.5696 0.0
H724 H 0.46007 0.9929 0.49813 0.0
H725 H 0.54972 0.02889 0.51724 0.0
C726 C 0.55788 0.04266 0.48205 0.0
C727 C 0.54729 0.04255 0.46021 0.0
C728 C 0.46824 0.98961 0.51375 0.0
C729 C 0.51387 0.01531 0.4973 0.0
C730 C 0.45135 0.97545 0.5319 0.0
C731 C 0.46133 0.97111 0.55247 0.0
C732 C 0.49541 0.99977 0.5162 0.0
C733 C 0.48855 0.98103 0.55402 0.0
C734 C 0.54123 0.02897 0.50061 0.0
C735 C 0.51987 0.0292 0.45784 0.0
N736 N 0.50465 0.99501 0.53619 0.0
N737 N 0.50417 0.01613 0.4761 0.0
H738 H 0.56822 0.07199 0.95547 0.0
H739 H 0.49461 0.96297 0.05147 0.0
H740 H 0.48611 0.04207 0.96992 0.0
H741 H 0.57333 0.02673 0.06231 0.0
H742 H 0.49162 0.98538 0.0164 0.0
H743 H 0.57118 0.04964 0.99036 0.0
C744 C 0.55091 0.06094 0.96611 0.0
C745 C 0.52699 0.05914 0.96 0.0
C746 C 0.50953 0.9943 0.02649 0.0
C747 C 0.53 0.03281 0.99922 0.0
C748 C 0.5113 0.98147 0.0463 0.0
C749 C 0.53419 0.99313 0.05975 0.0
C750 C 0.53107 0.01847 0.01989 0.0
C751 C 0.55526 0.01721 0.05246 0.0
C752 C 0.55259 0.04816 0.9859 0.0
C753 C 0.50504 0.0443 0.97424 0.0
N754 N 0.55328 0.029 0.03294 0.0
N755 N 0.50698 0.03142 0.99305 0.0
H756 H 1.01682 0.51388 0.94093 0.0
H757 H 0.02822 0.49674 0.0774 0.0
H758 H 0.96829 0.44151 0.97748 0.0
H759 H 0.07218 0.57028 0.04123 0.0
H760 H 1.00733 0.47577 0.0409 0.0
H761 H 0.03774 0.53449 0.97742 0.0
C762 C 1.01042 0.50231 0.95667 0.0
C763 C 0.99074 0.47586 0.95609 0.0
C764 C 0.0216 0.49646 0.04091 0.0
C765 C 1.01493 0.49944 0.9981 0.0
C766 C 0.03368 0.50848 0.06176 0.0
C767 C 0.05202 0.53538 0.06244 0.0
C768 C 0.02789 0.5114 0.02051 0.0
C769 C 0.0582 0.54951 0.04157 0.0
C770 C 0.02246 0.51414 0.97753 0.0
C771 C 0.98331 0.46195 0.9771 0.0
N772 N 0.04612 0.53737 0.0215 0.0
N773 N 0.99549 0.47388 0.99724 0.0
H774 H 0.58023 0.51026 0.978 0.0
H775 H 0.45254 0.50258 0.03641 0.0
H776 H 0.51512 0.5047 0.9388 0.0
H777 H 0.51833 0.5091 0.07516 0.0
H778 H 0.47497 0.50321 1.00036 0.0
H779 H 0.5572 0.50864 0.01387 0.0
C780 C 0.56099 0.50842 0.97692 0.0
C781 C 0.54964 0.50765 0.95534 0.0
C782 C 0.48451 0.50458 0.01677 0.0
C783 C 0.52326 0.50611 0.99633 0.0
C784 C 0.47176 0.50436 0.03734 0.0
C785 C 0.48355 0.5058 0.05885 0.0
C786 C 0.50921 0.50623 0.01773 0.0
C787 C 0.50843 0.50791 0.059 0.0
C788 C 0.5479 0.50765 0.99741 0.0
C789 C 0.52469 0.50541 0.95503 0.0
N790 N 0.52037 0.508 0.03881 0.0
N791 N 0.51241 0.50482 0.97518 0.0
H792 H 0.22749 0.99941 1.00908 0.0
H793 H 0.23978 0.13686 0.98373 0.0
H794 H 0.2145 0.0189 0.94006 0.0
H795 H 0.28382 0.1247 0.03735 0.0
H796 H 0.22731 0.09353 0.96788 0.0
H797 H 0.24435 0.04467 0.02074 0.0
C798 C 0.2281 0.01322 0.99635 0.0
C799 C 0.21946 1.00532 0.97356 0.0
C800 C 0.23996 0.10057 0.98294 0.0
C801 C 0.23875 0.05738 0.98692 0.0
C802 C 0.24708 0.12526 0.99202 0.0
C803 C 0.26275 0.1344 0.01201 0.0
C804 C 0.24818 0.08479 0.99421 0.0
C805 C 0.27166 0.11852 0.02197 0.0
C806 C 0.23793 0.03914 1.003 0.0
C807 C 0.22098 0.02421 0.95779 0.0
N808 N 0.26397 0.09441 0.01316 0.0
N809 N 0.2302 0.04939 0.96483 0.0
H810 H 1.00988 0.16492 0.93977 0.0
H811 H 0.89924 0.15633 0.02674 0.0
H812 H 1.01442 0.23095 0.97621 0.0
H813 H 0.89793 0.08837 0.99744 0.0
H814 H 0.93901 0.18425 1.00458 0.0
H815 H 0.96661 0.13681 0.95728 0.0
C816 C 1.00176 0.17353 0.95133 0.0
C817 C 1.01594 0.20031 0.95665 0.0
C818 C 0.92994 0.16323 1.00287 0.0
C819 C 0.96646 0.16833 0.97666 0.0
C820 C 0.90715 0.14725 0.01548 0.0
C821 C 0.89528 0.11993 0.01411 0.0
C822 C 0.94104 0.15186 0.98874 0.0
C823 C 0.90646 0.10933 0.99916 0.0
C824 C 0.97708 0.15748 0.96134 0.0
C825 C 1.00438 0.21039 0.97173 0.0
N826 N 0.92878 0.1253 0.98718 0.0
N827 N 0.98044 0.19443 0.9812 0.0
H828 H 0.86945 0.72558 0.01488 0.0
H829 H 0.83212 0.83168 0.97008 0.0
H830 H 0.91562 0.80844 0.02839 0.0
H831 H 0.78271 0.74849 0.96 0.0
H832 H 0.86551 0.82379 0.98734 0.0
H833 H 0.83987 0.73379 0.99087 0.0
C834 C 0.8735 0.74549 0.01266 0.0
C835 C 0.89492 0.76631 0.02385 0.0
C836 C 0.84745 0.80727 0.98117 0.0
C837 C 0.86119 0.77585 0.99644 0.0
C838 C 0.8284 0.81178 0.97122 0.0
C839 C 0.80444 0.79071 0.96375 0.0
C840 C 0.84254 0.78149 0.98374 0.0
C841 C 0.80079 0.76534 0.96567 0.0
C842 C 0.85659 0.75017 0.99898 0.0
C843 C 0.89922 0.79172 0.02029 0.0
N844 N 0.81951 0.76143 0.97564 0.0
N845 N 0.88247 0.79574 1.00704 0.0
H846 H 1.01493 0.19889 0.54847 0.0
H847 H 0.15456 0.32042 0.5134 0.0
H848 H 0.04181 0.27837 0.56997 0.0
H849 H 0.13267 0.24014 0.49971 0.0
H850 H 0.11366 0.30512 0.53496 0.0
H851 H 0.05824 0.21316 0.53153 0.0
C852 C 0.02998 0.21927 0.54986 0.0
C853 C 0.0246 0.23745 0.56058 0.0
C854 C 0.11786 0.29083 0.52737 0.0
C855 C 0.07418 0.25399 0.54099 0.0
C856 C 0.14124 0.29957 0.51501 0.0
C857 C 0.14709 0.28158 0.50461 0.0
C858 C 0.1 0.26385 0.52924 0.0
C859 C 0.12902 0.25477 0.50738 0.0
C860 C 0.05471 0.22742 0.54014 0.0
C861 C 0.04494 0.26363 0.56183 0.0
N862 N 0.10625 0.24674 0.51927 0.0
N863 N 0.06867 0.27111 0.552 0.0
H864 H 0.7882 0.78246 0.53893 0.0
H865 H 0.80878 0.92676 0.53143 0.0
H866 H 0.84416 0.84626 0.58132 0.0
H867 H 0.74762 0.86026 0.49519 0.0
H868 H 0.82078 0.89759 0.5513 0.0
H869 H 0.77231 0.81059 0.5239 0.0
C870 C 0.79717 0.80241 0.54514 0.0
C871 C 0.81773 0.81203 0.56134 0.0
C872 C 0.80458 0.88934 0.53918 0.0
C873 C 0.79947 0.84453 0.54406 0.0
C874 C 0.79765 0.90598 0.52783 0.0
C875 C 0.77724 0.896 0.51146 0.0
C876 C 0.79113 0.8625 0.53403 0.0
C877 C 0.76352 0.86889 0.5076 0.0
C878 C 0.78798 0.81848 0.53656 0.0
C879 C 0.82835 0.83802 0.56881 0.0
N880 N 0.77087 0.85316 0.51862 0.0
N881 N 0.81922 0.85342 0.55999 0.0
H882 H 0.22792 1.00301 0.55807 0.0
H883 H 0.14285 0.92429 0.44767 0.0
H884 H 0.23648 0.03609 0.48968 0.0
H885 H 0.15064 0.88446 0.50735 0.0
H886 H 0.17263 0.96603 0.46561 0.0
H887 H 0.19519 0.96002 0.54247 0.0
C888 C 0.22277 1.00128 0.53987 0.0
C889 C 0.235 0.02314 0.52512 0.0
C890 C 0.16788 0.94821 0.47484 0.0
C891 C 0.19771 0.97432 0.50731 0.0
C892 C 0.15078 0.92428 0.46461 0.0
C893 C 0.14429 0.90075 0.47594 0.0
C894 C 0.17859 0.94886 0.49674 0.0
C895 C 0.15524 0.90213 0.49794 0.0
C896 C 0.20425 0.97677 0.53098 0.0
C897 C 0.22771 0.01979 0.50167 0.0
N898 N 0.17187 0.92582 0.50766 0.0
N899 N 0.20957 0.99595 0.49356 0.0
H900 H 0.82511 0.90955 0.99749 0.0
H901 H 0.76305 0.98245 0.06794 0.0
H902 H 0.74188 0.87678 1.00823 0.0
H903 H 0.84572 0.01684 0.05306 0.0
H904 H 0.7554 0.94166 0.05018 0.0
H905 H 0.83329 0.94683 0.02153 0.0
C906 C 0.80851 0.91008 1.00502 0.0
C907 C 0.78272 0.89003 1.00065 0.0
C908 C 0.77524 0.95804 0.05098 0.0
C909 C 0.79202 0.93292 0.02826 0.0
C910 C 0.77968 0.98136 0.06119 0.0
C911 C 0.80508 1.00325 0.06186 0.0
C912 C 0.79634 0.9565 0.0413 0.0
C913 C 0.8258 1.00056 0.05288 0.0
C914 C 0.81323 0.93144 0.01878 0.0
C915 C 0.76206 0.8918 0.01103 0.0
N916 N 0.82094 0.97771 0.04283 0.0
N917 N 0.76716 0.91296 0.02423 0.0
H918 H 0.11647 0.87428 0.95887 0.0
H919 H 0.0254 0.80632 0.07002 0.0
H920 H 0.14847 0.88113 0.02754 0.0
H921 H 0.99859 0.79165 0.99908 0.0
H922 H 0.07 0.83699 0.056 0.0
H923 H 0.07263 0.84693 0.97447 0.0
C924 C 0.11432 0.87003 0.97728 0.0
C925 C 0.13631 0.88 0.99188 0.0
C926 C 0.05427 0.8271 0.04357 0.0
C927 C 0.08574 0.8485 0.01 0.0
C928 C 0.02882 0.80975 0.05156 0.0
C929 C 1.00826 0.79633 0.03569 0.0
C930 C 0.05903 0.83115 0.0196 0.0
C931 C 1.01381 0.80139 0.01197 0.0
C932 C 0.08918 0.85435 0.9862 0.0
C933 C 0.13211 0.87377 0.01562 0.0
N934 N 0.03857 0.8183 1.00469 0.0
N935 N 0.10731 0.85841 0.02396 0.0
H936 H 0.11285 0.20445 0.99369 0.0
H937 H 0.25259 0.26962 0.05659 0.0
H938 H 0.16365 0.28793 1.00007 0.0
H939 H 0.20317 0.18651 0.04606 0.0
H940 H 0.2185 0.27661 0.03968 0.0
H941 H 0.14379 0.19763 0.01644 0.0
C942 C 0.13046 0.22141 1.0 0.0
C943 C 0.13572 0.24685 0.99476 0.0
C944 C 0.21502 0.25683 0.04122 0.0
C945 C 0.17148 0.23908 0.02089 0.0
C946 C 0.23447 0.25278 0.05093 0.0
C947 C 0.23086 0.22741 0.05264 0.0
C948 C 0.19171 0.23538 0.0331 0.0
C949 C 0.2069 0.20641 0.04505 0.0
C950 C 0.14817 0.21746 0.01302 0.0
C951 C 0.15882 0.26799 1.00361 0.0
N952 N 0.18835 0.21089 0.0355 0.0
N953 N 0.17594 0.26363 0.0161 0.0
H954 H 0.91464 0.81163 0.51959 0.0
H955 H 0.99054 0.74588 0.46003 0.0
H956 H 0.88294 0.72812 0.5155 0.0
H957 H 0.0233 0.82919 0.46809 0.0
H958 H 0.94925 0.73893 0.47651 0.0
H959 H 0.95256 0.81821 0.49711 0.0
C960 C 0.91554 0.79462 0.51384 0.0
C961 C 0.8956 0.76926 0.51964 0.0
C962 C 0.96539 0.75874 0.47451 0.0
C963 C 0.93926 0.77673 0.49384 0.0
C964 C 0.98901 0.76275 0.46504 0.0
C965 C 1.01057 0.78818 0.46281 0.0
C966 C 0.96325 0.78029 0.48184 0.0
C967 C 1.00731 0.80924 0.46957 0.0
C968 C 0.93727 0.79842 0.50098 0.0
C969 C 0.89786 0.74802 0.51153 0.0
N970 N 0.98419 0.80481 0.4789 0.0
N971 N 0.91939 0.75224 0.49918 0.0
H972 H 0.19975 0.20127 0.46829 0.0
H973 H 0.30645 0.16318 0.51033 0.0
H974 H 0.28325 0.25208 0.45994 0.0
H975 H 0.22304 0.1153 0.52159 0.0
H976 H 0.29839 0.19397 0.48805 0.0
H977 H 0.2079 0.16741 0.48376 0.0
C978 C 0.21979 0.20523 0.46944 0.0
C979 C 0.24084 0.22969 0.46296 0.0
C980 C 0.28186 0.17661 0.49528 0.0
C981 C 0.25037 0.19099 0.48094 0.0
C982 C 0.28646 0.15902 0.50796 0.0
C983 C 0.26542 0.13672 0.51803 0.0
C984 C 0.25605 0.17182 0.4926 0.0
C985 C 0.23991 0.13232 0.51436 0.0
C986 C 0.22445 0.18589 0.47837 0.0
C987 C 0.2664 0.23359 0.46483 0.0
N988 N 0.23598 0.14973 0.50208 0.0
N989 N 0.27045 0.21456 0.47382 0.0
H990 H 0.83474 1.00007 0.47453 0.0
H991 H 0.87508 0.14553 0.51434 0.0
H992 H 0.78995 0.03753 0.45713 0.0
H993 H 0.92008 0.1079 0.53026 0.0
H994 H 0.84536 0.10752 0.49091 0.0
H995 H 0.86799 0.04076 0.49239 0.0
C996 C 0.83201 0.01692 0.47423 0.0
C997 C 0.80939 0.01527 0.4644 0.0
C998 C 0.86184 0.10767 0.49941 0.0
C999 C 0.84736 0.06198 0.48509 0.0
C1000 C 0.87884 0.12939 0.51279 0.0
C1001 C 0.90004 0.12988 0.52443 0.0
C1002 C 0.86604 0.08625 0.49769 0.0
C1003 C 0.90393 0.10838 0.52174 0.0
C1004 C 0.85099 0.04017 0.4845 0.0
C1005 C 0.80699 0.03782 0.46455 0.0
N1006 N 0.88705 0.08745 0.50879 0.0
N1007 N 0.8256 0.06014 0.47489 0.0
H1008 H 0.88588 0.43575 0.37323 0.0
H1009 H 0.94489 0.37227 0.28656 0.0
H1010 H 0.96259 0.48019 0.3421 0.0
H1011 H 0.86688 0.33065 0.31565 0.0
H1012 H 0.9513 0.41246 0.30492 0.0
H1013 H 0.87831 0.39776 0.35073 0.0
C1014 C 0.90117 0.43758 0.3616 0.0
C1015 C 0.925 0.46124 0.35969 0.0
C1016 C 0.93272 0.39458 0.30713 0.0
C1017 C 0.9164 0.41744 0.33374 0.0
C1018 C 0.929 0.37159 0.29661 0.0
C1019 C 0.90532 0.34794 0.29962 0.0
C1020 C 0.91266 0.39393 0.32085 0.0
C1021 C 0.88548 0.34834 0.31286 0.0
C1022 C 0.89679 0.41579 0.34869 0.0
C1023 C 0.94395 0.46235 0.34416 0.0
N1024 N 0.88967 0.37088 0.32306 0.0
N1025 N 0.93931 0.4407 0.33189 0.0
H1026 H 0.56915 0.4537 0.3593 0.0
H1027 H 0.65047 0.57938 0.27843 0.0
H1028 H 0.53957 0.5037 0.33604 0.0
H1029 H 0.68133 0.53115 0.30355 0.0
H1030 H 0.60829 0.54939 0.29624 0.0
H1031 H 0.60873 0.47943 0.33621 0.0
C1032 C 0.57087 0.47001 0.34924 0.0
C1033 C 0.55097 0.47661 0.34978 0.0
C1034 C 0.62419 0.54522 0.29772 0.0
C1035 C 0.59649 0.50627 0.32323 0.0
C1036 C 0.64833 0.56232 0.28748 0.0
C1037 C 0.66963 0.55793 0.2896 0.0
C1038 C 0.6212 0.5235 0.31031 0.0
C1039 C 0.66553 0.53539 0.30149 0.0
C1040 C 0.59354 0.48471 0.33604 0.0
C1041 C 0.55438 0.49791 0.33627 0.0
N1042 N 0.64188 0.51916 0.31154 0.0
N1043 N 0.57673 0.51203 0.32367 0.0
H1044 H 0.54942 0.10034 0.38834 0.0
H1045 H 0.48516 0.13195 0.27941 0.0
H1046 H 0.56058 0.08232 0.31816 0.0
H1047 H 0.46731 0.13728 0.35111 0.0
H1048 H 0.51509 0.11651 0.29217 0.0
H1049 H 0.52143 0.11655 0.37396 0.0
C1050 C 0.54599 0.09976 0.36984 0.0
C1051 C 0.55743 0.08988 0.35446 0.0
C1052 C 0.5046 0.12113 0.30504 0.0
C1053 C 0.52511 0.10864 0.33772 0.0
C1054 C 0.48763 0.13003 0.29778 0.0
C1055 C 0.47364 0.13586 0.31421 0.0
C1056 C 0.50769 0.11827 0.32886 0.0
C1057 C 0.47752 0.13293 0.33778 0.0
C1058 C 0.52991 0.10904 0.36161 0.0
C1059 C 0.55212 0.08967 0.33066 0.0
N1060 N 0.49411 0.12439 0.34433 0.0
N1061 N 0.53636 0.09897 0.32299 0.0
H1062 H 0.71399 0.60332 0.89713 0.0
H1063 H 0.78862 0.54306 0.82664 0.0
H1064 H 0.67976 0.52127 0.88095 0.0
H1065 H 0.82189 0.62567 0.83968 0.0
H1066 H 0.75053 0.53437 0.84998 0.0
H1067 H 0.7553 0.61132 0.87992 0.0
C1068 C 0.7152 0.5869 0.89018 0.0
C1069 C 0.69322 0.56158 0.89035 0.0
C1070 C 0.76621 0.5544 0.84789 0.0
C1071 C 0.7406 0.57072 0.87043 0.0
C1072 C 0.78803 0.55941 0.83454 0.0
C1073 C 0.80847 0.58519 0.83101 0.0
C1074 C 0.76463 0.57529 0.85782 0.0
C1075 C 0.80659 0.6055 0.84186 0.0
C1076 C 0.73884 0.59153 0.8803 0.0
C1077 C 0.6961 0.54112 0.88115 0.0
N1078 N 0.78498 0.60013 0.85463 0.0
N1079 N 0.71926 0.54618 0.87142 0.0
H1080 H 0.47559 0.26123 0.85692 0.0
H1081 H 0.44736 0.11461 0.87228 0.0
H1082 H 0.41077 0.19424 0.8245 0.0
H1083 H 0.50918 0.18061 0.9085 0.0
H1084 H 0.43255 0.14326 0.85614 0.0
H1085 H 0.48675 0.23192 0.8776 0.0
C1086 C 0.46352 0.24033 0.8543 0.0
C1087 C 0.44227 0.23023 0.8388 0.0
C1088 C 0.44927 0.1515 0.8677 0.0
C1089 C 0.45515 0.1965 0.86235 0.0
C1090 C 0.45781 0.13513 0.87693 0.0
C1091 C 0.47969 0.14521 0.89171 0.0
C1092 C 0.46275 0.17827 0.87313 0.0
C1093 C 0.49227 0.17196 0.89716 0.0
C1094 C 0.46996 0.2236 0.86611 0.0
C1095 C 0.42734 0.20295 0.83621 0.0
N1096 N 0.48373 0.18758 0.88776 0.0
N1097 N 0.43419 0.18709 0.8477 0.0
H1098 H 0.84508 0.35414 0.88444 0.0
H1099 H 0.82765 0.22048 0.83164 0.0
H1100 H 0.90822 0.33697 0.88 0.0
H1101 H 0.76688 0.2412 0.83197 0.0
H1102 H 0.85637 0.26099 0.85274 0.0
H1103 H 0.81511 0.31084 0.86867 0.0
C1104 C 0.85263 0.34121 0.88034 0.0
C1105 C 0.87929 0.34935 0.88347 0.0
C1106 C 0.83668 0.25655 0.84831 0.0
C1107 C 0.84499 0.2996 0.86522 0.0
C1108 C 0.82025 0.23338 0.83633 0.0
C1109 C 0.79484 0.22745 0.82987 0.0
C1110 C 0.82763 0.2739 0.85394 0.0
C1111 C 0.78635 0.24497 0.8364 0.0
C1112 C 0.83549 0.31646 0.87127 0.0
C1113 C 0.88786 0.33163 0.87782 0.0
N1114 N 0.8027 0.26737 0.84795 0.0
N1115 N 0.87083 0.30769 0.86888 0.0
H1116 H 0.41796 0.21852 0.3372 0.0
H1117 H 0.53731 0.3589 0.37345 0.0
H1118 H 0.49914 0.24662 0.31987 0.0
H1119 H 0.45703 0.33213 0.39319 0.0
H1120 H 0.52361 0.31614 0.35654 0.0
H1121 H 0.43164 0.25826 0.36027 0.0
C1122 C 0.43864 0.2329 0.33837 0.0
C1123 C 0.45739 0.22928 0.32641 0.0
C1124 C 0.50896 0.31947 0.36472 0.0
C1125 C 0.47316 0.27475 0.35272 0.0
C1126 C 0.51681 0.34394 0.37445 0.0
C1127 C 0.4983 0.34924 0.38464 0.0
C1128 C 0.48231 0.30006 0.36497 0.0
C1129 C 0.472 0.32896 0.38547 0.0
C1130 C 0.44643 0.25559 0.35153 0.0
C1131 C 0.48392 0.24859 0.3286 0.0
N1132 N 0.46475 0.30536 0.37556 0.0
N1133 N 0.49094 0.27044 0.34134 0.0
H1134 H 0.67912 0.11581 0.34072 0.0
H1135 H 0.8145 0.24382 0.3689 0.0
H1136 H 0.69488 0.15094 0.4087 0.0
H1137 H 0.80453 0.19035 0.31362 0.0
H1138 H 0.77071 0.2121 0.38353 0.0
H1139 H 0.72454 0.1453 0.32986 0.0
C1140 C 0.69214 0.12981 0.3534 0.0
C1141 C 0.68309 0.13095 0.37566 0.0
C1142 C 0.77829 0.20726 0.36835 0.0
C1143 C 0.73546 0.16503 0.36319 0.0
C1144 C 0.80326 0.22534 0.35997 0.0
C1145 C 0.8132 0.21984 0.3399 0.0
C1146 C 0.76301 0.18371 0.35637 0.0
C1147 C 0.79774 0.19554 0.3291 0.0
C1148 C 0.71818 0.14656 0.3472 0.0
C1149 C 0.70104 0.1494 0.39136 0.0
N1150 N 0.77337 0.17856 0.3373 0.0
N1151 N 0.72637 0.16591 0.38476 0.0
H1152 H 0.89523 0.57092 0.39202 0.0
H1153 H 0.77268 0.53175 0.30829 0.0
H1154 H 0.86698 0.50941 0.34097 0.0
H1155 H 0.81655 0.60913 0.33773 0.0
H1156 H 0.80201 0.51975 0.32731 0.0
H1157 H 0.8618 0.58172 0.37897 0.0
C1158 C 0.88178 0.55947 0.37833 0.0
C1159 C 0.88391 0.53928 0.36749 0.0
C1160 C 0.8052 0.53934 0.32976 0.0
C1161 C 0.84577 0.55139 0.35268 0.0
C1162 C 0.78838 0.54625 0.31892 0.0
C1163 C 0.79227 0.57164 0.32116 0.0
C1164 C 0.82618 0.55783 0.34313 0.0
C1165 C 0.8129 0.58939 0.33541 0.0
C1166 C 0.86288 0.56576 0.37081 0.0
C1167 C 0.86616 0.52522 0.34972 0.0
N1168 N 0.82923 0.58219 0.34579 0.0
N1169 N 0.84789 0.5315 0.34293 0.0
H1170 H 0.57599 0.14531 0.85269 0.0
H1171 H 0.65529 0.08114 0.79697 0.0
H1172 H 0.54659 0.06209 0.85092 0.0
H1173 H 0.68545 0.1644 0.80095 0.0
H1174 H 0.61379 0.07363 0.81329 0.0
H1175 H 0.61434 0.15235 0.83061 0.0
C1176 C 0.57748 0.12845 0.84754 0.0
C1177 C 0.55802 0.10304 0.85384 0.0
C1178 C 0.62938 0.09355 0.81044 0.0
C1179 C 0.6022 0.11106 0.82849 0.0
C1180 C 0.65314 0.09789 0.80106 0.0
C1181 C 0.67405 0.12348 0.79769 0.0
C1182 C 0.6264 0.11494 0.8166 0.0
C1183 C 0.66996 0.14434 0.80327 0.0
C1184 C 0.59946 0.13252 0.8349 0.0
C1185 C 0.56108 0.08202 0.84651 0.0
N1186 N 0.64671 0.13961 0.81259 0.0
N1187 N 0.58282 0.08651 0.83436 0.0
H1188 H 0.96304 0.49926 0.86622 0.0
H1189 H 0.87479 0.535 0.78462 0.0
H1190 H 0.8993 0.44152 0.8248 0.0
H1191 H 0.93297 0.58796 0.83307 0.0
H1192 H 0.88576 0.50125 0.79569 0.0
H1193 H 0.95488 0.53286 0.85055 0.0
C1194 C 0.94742 0.49363 0.85369 0.0
C1195 C 0.93174 0.46743 0.84697 0.0
C1196 C 0.89615 0.52033 0.80378 0.0
C1197 C 0.92209 0.50602 0.82896 0.0
C1198 C 0.88994 0.53958 0.79744 0.0
C1199 C 0.90284 0.5643 0.80804 0.0
C1200 C 0.91552 0.52598 0.82068 0.0
C1201 C 0.92231 0.56917 0.82454 0.0
C1202 C 0.9427 0.51288 0.84476 0.0
C1203 C 0.91184 0.46145 0.83056 0.0
N1204 N 0.92798 0.55024 0.83034 0.0
N1205 N 0.90747 0.48057 0.82221 0.0
H1206 H 0.59323 0.44577 0.84795 0.0
H1207 H 0.4447 0.36554 0.80441 0.0
H1208 H 0.53908 0.47499 0.85136 0.0
H1209 H 0.49949 0.33743 0.79739 0.0
H1210 H 0.4801 0.40714 0.81867 0.0
H1211 H 0.56047 0.40764 0.82664 0.0
C1212 C 0.57453 0.44431 0.84405 0.0
C1213 C 0.56885 0.46357 0.85165 0.0
C1214 C 0.4845 0.392 0.81385 0.0
C1215 C 0.53111 0.41975 0.8273 0.0
C1216 C 0.46426 0.36818 0.80568 0.0
C1217 C 0.46907 0.34784 0.79985 0.0
C1218 C 0.50982 0.39558 0.81642 0.0
C1219 C 0.49487 0.35253 0.80172 0.0
C1220 C 0.55582 0.42249 0.83186 0.0
C1221 C 0.54431 0.46063 0.84595 0.0
N1222 N 0.51422 0.37582 0.81006 0.0
N1223 N 0.5263 0.43903 0.83431 0.0
H1224 H 0.60423 0.68381 0.663 0.0
H1225 H 0.55321 0.78624 0.67137 0.0
H1226 H 0.53218 0.6704 0.6311 0.0
H1227 H 0.6284 0.80102 0.69686 0.0
H1228 H 0.54589 0.745 0.65467 0.0
H1229 H 0.61396 0.7276 0.67379 0.0
C1230 C 0.59044 0.6901 0.65816 0.0
C1231 C 0.56722 0.67325 0.64624 0.0
C1232 C 0.56409 0.75738 0.66373 0.0
C1233 C 0.57829 0.72372 0.65874 0.0
C1234 C 0.56832 0.78098 0.67327 0.0
C1235 C 0.59142 0.79713 0.68571 0.0
C1236 C 0.583 0.74973 0.66674 0.0
C1237 C 0.61027 0.78924 0.68751 0.0
C1238 C 0.59607 0.71523 0.66431 0.0
C1239 C 0.55028 0.68269 0.64031 0.0
N1240 N 0.60555 0.76606 0.67833 0.0
N1241 N 0.55604 0.70723 0.6468 0.0
H1242 H 0.22759 0.82789 0.68106 0.0
H1243 H 0.35297 0.84035 0.61445 0.0
H1244 H 0.23298 0.76158 0.65664 0.0
H1245 H 0.34656 0.90649 0.6377 0.0
H1246 H 0.30763 0.81125 0.62687 0.0
H1247 H 0.26958 0.85705 0.6623 0.0
C1248 C 0.23743 0.81944 0.67155 0.0
C1249 C 0.22677 0.79221 0.6706 0.0
C1250 C 0.31609 0.83215 0.62909 0.0
C1251 C 0.27506 0.82554 0.64921 0.0
C1252 C 0.34199 0.84879 0.62196 0.0
C1253 C 0.35373 0.87593 0.62518 0.0
C1254 C 0.30181 0.84269 0.63957 0.0
C1255 C 0.33846 0.88571 0.635 0.0
C1256 C 0.26147 0.83611 0.66087 0.0
C1257 C 0.24047 0.78242 0.65798 0.0
N1258 N 0.31342 0.86912 0.64196 0.0
N1259 N 0.26395 0.79905 0.64796 0.0
H1260 H 0.23576 0.45161 0.69057 0.0
H1261 H 0.11709 0.41631 0.60302 0.0
H1262 H 0.19037 0.37603 0.65817 0.0
H1263 H 0.1616 0.49131 0.63658 0.0
H1264 H 0.14624 0.40257 0.6202 0.0
H1265 H 0.21126 0.46757 0.66837 0.0
C1266 C 0.22073 0.43836 0.67869 0.0
C1267 C 0.21504 0.41233 0.67639 0.0
C1268 C 0.14978 0.42211 0.62366 0.0
C1269 C 0.18676 0.43059 0.65086 0.0
C1270 C 0.13316 0.43003 0.6138 0.0
C1271 C 0.13674 0.45498 0.61846 0.0
C1272 C 0.17017 0.4392 0.6384 0.0
C1273 C 0.158 0.47187 0.63253 0.0
C1274 C 0.20673 0.44754 0.66599 0.0
C1275 C 0.1954 0.3962 0.6606 0.0
N1276 N 0.17375 0.4636 0.64213 0.0
N1277 N 0.18189 0.40555 0.64856 0.0
H1278 H 0.34058 0.85542 0.21889 0.0
H1279 H 0.4825 0.96023 0.16954 0.0
H1280 H 0.37177 0.93895 0.22037 0.0
H1281 H 0.44823 0.87668 0.16205 0.0
H1282 H 0.44445 0.95283 0.19269 0.0
H1283 H 0.38235 0.86285 0.20284 0.0
C1284 C 0.3563 0.87531 0.21616 0.0
C1285 C 0.35253 0.89657 0.2208 0.0
C1286 C 0.44536 0.93611 0.18611 0.0
C1287 C 0.40033 0.90522 0.20224 0.0
C1288 C 0.46711 0.94034 0.17292 0.0
C1289 C 0.46848 0.91907 0.16364 0.0
C1290 C 0.42483 0.91042 0.19012 0.0
C1291 C 0.44794 0.8937 0.16865 0.0
C1292 C 0.38011 0.87955 0.20688 0.0
C1293 C 0.37365 0.92193 0.21687 0.0
N1294 N 0.42695 0.89011 0.18141 0.0
N1295 N 0.39651 0.92553 0.20768 0.0
H1296 H 0.11932 0.44996 0.22416 0.0
H1297 H 0.15985 0.58883 0.16971 0.0
H1298 H 0.19216 0.51993 0.24033 0.0
H1299 H 0.08016 0.52449 0.16872 0.0
H1300 H 0.17185 0.56387 0.19571 0.0
H1301 H 0.10425 0.47669 0.20431 0.0
C1302 C 0.13206 0.47099 0.22375 0.0
C1303 C 0.15715 0.48271 0.2338 0.0
C1304 C 0.15169 0.55525 0.18999 0.0
C1305 C 0.14008 0.51341 0.21081 0.0
C1306 C 0.14481 0.56945 0.17504 0.0
C1307 C 0.11898 0.55865 0.16687 0.0
C1308 C 0.1327 0.52983 0.19665 0.0
C1309 C 0.10031 0.53355 0.17456 0.0
C1310 C 0.1234 0.48624 0.21242 0.0
C1311 C 0.17271 0.51005 0.23283 0.0
N1312 N 0.10761 0.51986 0.18882 0.0
N1313 N 0.16405 0.52444 0.22127 0.0
H1314 H 0.56412 0.68944 0.16966 0.0
H1315 H 0.45166 0.54574 0.20247 0.0
H1316 H 0.54388 0.66682 0.24123 0.0
H1317 H 0.49699 0.56527 0.13925 0.0
H1318 H 0.4818 0.58999 0.21711 0.0
H1319 H 0.53542 0.64434 0.15802 0.0
C1320 C 0.55353 0.675 0.18299 0.0
C1321 C 0.55645 0.68201 0.2065 0.0
C1322 C 0.48518 0.58439 0.20014 0.0
C1323 C 0.52332 0.62995 0.19314 0.0
C1324 C 0.46802 0.55918 0.19175 0.0
C1325 C 0.47168 0.55175 0.16952 0.0
C1326 C 0.50583 0.60234 0.18602 0.0
C1327 C 0.49325 0.57001 0.15644 0.0
C1328 C 0.53723 0.64914 0.1763 0.0
C1329 C 0.54223 0.66227 0.22292 0.0
N1330 N 0.50927 0.59444 0.16478 0.0
N1331 N 0.52611 0.63709 0.21592 0.0
H1332 H 0.09456 0.65043 0.72505 0.0
H1333 H 0.15977 0.58091 0.65394 0.0
H1334 H 0.17657 0.68844 0.70644 0.0
H1335 H 0.0766 0.54477 0.66711 0.0
H1336 H 0.16691 0.61842 0.67715 0.0
H1337 H 0.08846 0.60976 0.70824 0.0
C1338 C 0.11138 0.65018 0.71769 0.0
C1339 C 0.1361 0.67302 0.71701 0.0
C1340 C 0.1471 0.60224 0.67511 0.0
C1341 C 0.12915 0.62642 0.69755 0.0
C1342 C 0.14298 0.58075 0.66184 0.0
C1343 C 0.11749 0.55968 0.65838 0.0
C1344 C 0.1256 0.60281 0.68505 0.0
C1345 C 0.09657 0.5606 0.66921 0.0
C1346 C 0.10784 0.62693 0.70801 0.0
C1347 C 0.15714 0.6714 0.70728 0.0
N1348 N 0.10107 0.58188 0.68193 0.0
N1349 N 0.15313 0.64859 0.69779 0.0
H1350 H 0.33783 0.4888 0.72346 0.0
H1351 H 0.4803 0.52536 0.6762 0.0
H1352 H 0.37068 0.43797 0.7298 0.0
H1353 H 0.44722 0.57599 0.66992 0.0
H1354 H 0.44208 0.49487 0.69914 0.0
H1355 H 0.37957 0.52284 0.70747 0.0
C1356 C 0.3539 0.48489 0.7218 0.0
C1357 C 0.35059 0.46035 0.72781 0.0
C1358 C 0.44328 0.51275 0.69289 0.0
C1359 C 0.39844 0.4992 0.70924 0.0
C1360 C 0.46513 0.53019 0.67979 0.0
C1361 C 0.46693 0.55321 0.67094 0.0
C1362 C 0.42302 0.51832 0.69716 0.0
C1363 C 0.44665 0.55842 0.67622 0.0
C1364 C 0.37773 0.50432 0.71257 0.0
C1365 C 0.3722 0.45649 0.72527 0.0
N1366 N 0.42552 0.54107 0.68883 0.0
N1367 N 0.39507 0.47558 0.71599 0.0
H1368 H 0.57629 0.90763 0.71655 0.0
H1369 H 0.42981 0.87542 0.68855 0.0
H1370 H 0.50757 0.83421 0.73415 0.0
H1371 H 0.49926 0.94682 0.66806 0.0
H1372 H 0.45754 0.8615 0.70837 0.0
H1373 H 0.54804 0.92361 0.70182 0.0
C1374 C 0.55523 0.89486 0.71745 0.0
C1375 C 0.54433 0.86941 0.7265 0.0
C1376 C 0.46671 0.88028 0.69967 0.0
C1377 C 0.51172 0.88771 0.70949 0.0
C1378 C 0.45088 0.8883 0.68837 0.0
C1379 C 0.4622 0.9123 0.67647 0.0
C1380 C 0.49412 0.89635 0.69911 0.0
C1381 C 0.48963 0.92813 0.6769 0.0
C1382 C 0.53908 0.90404 0.70899 0.0
C1383 C 0.51687 0.85391 0.72728 0.0
N1384 N 0.50462 0.91982 0.68791 0.0
N1385 N 0.50151 0.86325 0.71876 0.0
H1386 H 0.24559 0.48936 0.18958 0.0
H1387 H 0.34171 0.4468 0.1304 0.0
H1388 H 0.22911 0.40941 0.18822 0.0
H1389 H 0.36103 0.52686 0.14121 0.0
H1390 H 0.29807 0.43206 0.1467 0.0
H1391 H 0.28517 0.50243 0.16699 0.0
C1392 C 0.25016 0.47445 0.18437 0.0
C1393 C 0.23403 0.44823 0.19103 0.0
C1394 C 0.3118 0.45284 0.14533 0.0
C1395 C 0.27976 0.46325 0.16509 0.0
C1396 C 0.33672 0.46131 0.13595 0.0
C1397 C 0.35521 0.48817 0.13454 0.0
C1398 C 0.30521 0.47133 0.15328 0.0
C1399 C 0.34755 0.50599 0.14203 0.0
C1400 C 0.27287 0.48199 0.17146 0.0
C1401 C 0.24097 0.42984 0.18354 0.0
N1402 N 0.32324 0.49726 0.15115 0.0
N1403 N 0.26344 0.43773 0.17111 0.0
H1404 H 0.54892 0.89452 0.18625 0.0
H1405 H 0.61131 0.80549 0.15235 0.0
H1406 H 0.56153 0.88097 0.11511 0.0
H1407 H 0.58833 0.81351 0.22159 0.0
H1408 H 0.59411 0.83319 0.13783 0.0
H1409 H 0.56364 0.86469 0.19888 0.0
C1410 C 0.55467 0.88512 0.17322 0.0
C1411 C 0.55405 0.89035 0.14956 0.0
C1412 C 0.59283 0.8288 0.15618 0.0
C1413 C 0.57131 0.85606 0.16404 0.0
C1414 C 0.60273 0.81309 0.16451 0.0
C1415 C 0.60134 0.80717 0.18827 0.0
C1416 C 0.58158 0.83876 0.17175 0.0
C1417 C 0.58989 0.81749 0.20316 0.0
C1418 C 0.56311 0.86803 0.18048 0.0
C1419 C 0.56162 0.87743 0.13352 0.0
N1420 N 0.58056 0.83274 0.19467 0.0
N1421 N 0.57015 0.861 0.14106 0.0
H1422 H 0.21321 0.80538 0.17245 0.0
H1423 H 0.14429 0.65146 0.18607 0.0
H1424 H 0.23993 0.76662 0.21953 0.0
H1425 H 0.14115 0.68518 0.1206 0.0
H1426 H 0.17666 0.69473 0.19981 0.0
H1427 H 0.18424 0.76281 0.15389 0.0
C1428 C 0.21315 0.78805 0.17877 0.0
C1429 C 0.2289 0.78959 0.19771 0.0
C1430 C 0.16911 0.69275 0.18236 0.0
C1431 C 0.19581 0.74113 0.17682 0.0
C1432 C 0.15055 0.66804 0.17452 0.0
C1433 C 0.14005 0.66475 0.15217 0.0
C1434 C 0.17698 0.71462 0.16796 0.0
C1435 C 0.14894 0.68693 0.13792 0.0
C1436 C 0.19671 0.76385 0.16814 0.0
C1437 C 0.22809 0.76651 0.20512 0.0
N1438 N 0.16673 0.71109 0.14616 0.0
N1439 N 0.21168 0.74333 0.19485 0.0
H1440 H 0.34937 0.2823 0.04717 0.0
H1441 H 0.41423 0.4038 0.13437 0.0
H1442 H 0.35137 0.27476 0.12149 0.0
H1443 H 0.40688 0.41041 0.06056 0.0
H1444 H 0.3984 0.35695 0.12937 0.0
H1445 H 0.37775 0.32968 0.05107 0.0
C1446 C 0.35611 0.29055 0.06425 0.0
C1447 C 0.34765 0.27463 0.08405 0.0
C1448 C 0.40057 0.36876 0.11425 0.0
C1449 C 0.37987 0.32875 0.08871 0.0
C1450 C 0.40966 0.39549 0.11711 0.0
C1451 C 0.41142 0.41089 0.09792 0.0
C1452 C 0.39329 0.3575 0.09205 0.0
C1453 C 0.40536 0.39916 0.07591 0.0
C1454 C 0.37223 0.3176 0.0665 0.0
C1455 C 0.35707 0.28636 0.10577 0.0
N1456 N 0.39634 0.37317 0.07361 0.0
N1457 N 0.37241 0.31272 0.10754 0.0
H1458 H 0.62606 0.01287 0.13691 0.0
H1459 H 0.74979 0.06316 0.05174 0.0
H1460 H 0.62107 0.991 0.06489 0.0
H1461 H 0.75634 0.07835 0.12535 0.0
H1462 H 0.70207 0.04252 0.05512 0.0
H1463 H 0.6734 0.04244 0.13197 0.0
C1464 C 0.63487 0.01444 0.12005 0.0
C1465 C 0.61968 0.99921 0.10138 0.0
C1466 C 0.71398 0.05061 0.07049 0.0
C1467 C 0.67362 0.03292 0.09557 0.0
C1468 C 0.74124 0.06251 0.06854 0.0
C1469 C 0.75705 0.07219 0.08833 0.0
C1470 C 0.70249 0.0484 0.09239 0.0
C1471 C 0.74488 0.07085 0.10966 0.0
C1472 C 0.66186 0.03128 0.11723 0.0
C1473 C 0.63207 1.00209 0.07987 0.0
N1474 N 0.71833 0.05894 0.11117 0.0
N1475 N 0.65828 0.01846 0.0776 0.0
H1476 H 1.00154 0.71545 0.10879 0.0
H1477 H 0.9916 0.5795 0.08 0.0
H1478 H 0.9433 0.6605 0.06144 0.0
H1479 H 0.03319 0.62727 0.139 0.0
H1480 H 0.97206 0.60714 0.07339 0.0
H1481 H 1.01273 0.68254 0.11978 0.0
C1482 C 0.99111 0.69642 0.1006 0.0
C1483 C 0.97158 0.69082 0.08398 0.0
C1484 C 0.98512 0.61127 0.08799 0.0
C1485 C 0.98437 0.65275 0.09666 0.0
C1486 C 0.99626 0.59548 0.09184 0.0
C1487 C 1.0144 0.60129 0.1099 0.0
C1488 C 0.99239 0.63315 0.10218 0.0
C1489 C 0.01954 0.62215 0.12473 0.0
C1490 C 0.99739 0.67751 0.10707 0.0
C1491 C 0.95857 0.66567 0.07424 0.0
N1492 N 1.00891 0.63752 0.12032 0.0
N1493 N 0.96538 0.64757 0.08057 0.0
H1494 H 0.28545 0.37485 0.42268 0.0
H1495 H 0.42011 0.3846 0.4628 0.0
H1496 H 0.29384 0.33562 0.48253 0.0
H1497 H 0.41095 0.41267 0.39625 0.0
H1498 H 0.37547 0.37281 0.47273 0.0
H1499 H 0.33271 0.3952 0.41562 0.0
C1500 C 0.29727 0.37092 0.43463 0.0
C1501 C 0.2856 0.35335 0.45319 0.0
C1502 C 0.38314 0.38161 0.45596 0.0
C1503 C 0.33962 0.37641 0.44501 0.0
C1504 C 0.40872 0.38836 0.45021 0.0
C1505 C 0.41928 0.39938 0.42848 0.0
C1506 C 0.36771 0.3858 0.43992 0.0
C1507 C 0.40355 0.40405 0.41311 0.0
C1508 C 0.32422 0.3824 0.43045 0.0
C1509 C 0.30191 0.3489 0.46796 0.0
N1510 N 0.37843 0.39706 0.41906 0.0
N1511 N 0.32801 0.3602 0.46346 0.0
H1512 H 0.60746 1.00826 0.43428 0.0
H1513 H 0.69469 0.94052 0.4183 0.0
H1514 H 0.65393 0.0182 0.37315 0.0
H1515 H 0.68187 0.96516 0.48517 0.0
H1516 H 0.66868 0.95747 0.4003 0.0
H1517 H 0.62361 0.9809 0.45135 0.0
C1518 C 0.62053 1.00416 0.42418 0.0
C1519 C 0.62951 0.01566 0.40226 0.0
C1520 C 0.67131 0.95886 0.41894 0.0
C1521 C 0.6479 0.98439 0.42174 0.0
C1522 C 0.68608 0.94912 0.42931 0.0
C1523 C 0.69077 0.95168 0.45334 0.0
C1524 C 0.66074 0.97094 0.43265 0.0
C1525 C 0.67896 0.96297 0.46659 0.0
C1526 C 0.62988 0.98875 0.43406 0.0
C1527 C 0.64663 1.00985 0.39012 0.0
N1528 N 0.66456 0.9723 0.45605 0.0
N1529 N 0.65535 0.99467 0.40005 0.0
H1530 H 0.06818 0.73645 0.4802 0.0
H1531 H 0.02883 0.62063 0.38914 0.0
H1532 H 0.11358 0.74541 0.41857 0.0
H1533 H 0.98932 0.61283 0.45427 0.0
H1534 H 0.06225 0.66528 0.40035 0.0
H1535 H 0.0418 0.68976 0.47236 0.0
C1536 C 0.07291 0.72849 0.46524 0.0
C1537 C 0.09302 0.74488 0.44998 0.0
C1538 C 0.04632 0.65365 0.4122 0.0
C1539 C 0.06241 0.69139 0.44048 0.0
C1540 C 0.02723 0.62822 0.40578 0.0
C1541 C 1.00607 0.61305 0.42065 0.0
C1542 C 0.04414 0.66384 0.43362 0.0
C1543 C 1.00506 0.62381 0.44208 0.0
C1544 C 0.05775 0.7018 0.46067 0.0
C1545 C 0.09829 0.73346 0.43084 0.0
N1546 N 0.02367 0.64848 0.44781 0.0
N1547 N 0.0828 0.70746 0.42642 0.0
H1548 H 0.62584 0.61544 0.88348 0.0
H1549 H 0.68496 0.73679 0.97067 0.0
H1550 H 0.62189 0.60784 0.95804 0.0
H1551 H 0.68697 0.74434 0.89613 0.0
H1552 H 0.65674 0.68941 0.96651 0.0
H1553 H 0.6432 0.66254 0.88774 0.0
C1554 C 0.6283 0.62361 0.90072 0.0
C1555 C 0.62275 0.60774 0.92042 0.0
C1556 C 0.66312 0.70149 0.95107 0.0
C1557 C 0.64277 0.66158 0.92547 0.0
C1558 C 0.67917 0.72854 0.95347 0.0
C1559 C 0.68864 0.7445 0.93373 0.0
C1560 C 0.6566 0.69036 0.92879 0.0
C1561 C 0.68044 0.73276 0.91184 0.0
C1562 C 0.63826 0.65051 0.90317 0.0
C1563 C 0.62623 0.61937 0.94235 0.0
N1564 N 0.66515 0.7064 0.90996 0.0
N1565 N 0.63626 0.64558 0.94428 0.0
H1566 H 0.29423 0.96878 0.99336 0.0
H1567 H 0.40195 1.00127 0.89537 0.0
H1568 H 0.27537 0.93248 0.92583 0.0
H1569 H 0.41918 0.03109 0.9653 0.0
H1570 H 0.35624 0.97154 0.90711 0.0
H1571 H 0.34073 0.98703 0.98471 0.0
C1572 C 0.29984 0.96428 0.97685 0.0
C1573 C 0.28085 0.94937 0.96021 0.0
C1574 C 0.37017 0.98438 0.91992 0.0
C1575 C 0.33421 0.97066 0.94992 0.0
C1576 C 0.39623 1.00129 0.91322 0.0
C1577 C 0.41426 0.01898 0.92927 0.0
C1578 C 0.36224 0.98525 0.9428 0.0
C1579 C 0.40585 0.01814 0.95221 0.0
C1580 C 0.32645 0.97478 0.97186 0.0
C1581 C 0.28933 0.94404 0.93915 0.0
N1582 N 0.38048 1.00181 0.95819 0.0
N1583 N 0.31539 0.95504 0.93444 0.0
H1584 H 0.04179 0.29502 0.89264 0.0
H1585 H 0.02821 0.42103 0.91206 0.0
H1586 H 0.08266 0.35016 0.94757 0.0
H1587 H 0.99477 0.36777 0.85446 0.0
H1588 H 0.05285 0.39928 0.92294 0.0
H1589 H 0.02869 0.32467 0.87646 0.0
C1590 C 0.04804 0.31348 0.90134 0.0
C1591 C 0.06297 0.31995 0.92174 0.0
C1592 C 0.04047 0.39267 0.90771 0.0
C1593 C 0.04782 0.35424 0.9032 0.0
C1594 C 0.02645 0.40513 0.9014 0.0
C1595 C 1.00902 0.39592 0.8825 0.0
C1596 C 0.03698 0.37085 0.89505 0.0
C1597 C 1.00765 0.37533 0.86932 0.0
C1598 C 0.04065 0.33053 0.89197 0.0
C1599 C 0.07096 0.34438 0.93191 0.0
N1600 N 0.02114 0.36332 0.87602 0.0
N1601 N 0.06294 0.36056 0.92271 0.0
H1602 H 0.74447 0.66092 0.55974 0.0
H1603 H 0.62162 0.62381 0.64304 0.0
H1604 H 0.7423 0.71026 0.61389 0.0
H1605 H 0.61511 0.58309 0.57902 0.0
H1606 H 0.66897 0.64964 0.63727 0.0
H1607 H 0.69973 0.62695 0.57072 0.0
C1608 C 0.73469 0.66451 0.574 0.0
C1609 C 0.74692 0.68856 0.58569 0.0
C1610 C 0.65721 0.63483 0.62461 0.0
C1611 C 0.69628 0.64992 0.59851 0.0
C1612 C 0.63017 0.61994 0.62798 0.0
C1613 C 0.61428 0.60155 0.6113 0.0
C1614 C 0.66851 0.63134 0.60442 0.0
C1615 C 0.62656 0.59732 0.59219 0.0
C1616 C 0.70924 0.64518 0.58025 0.0
C1617 C 0.73347 0.69219 0.60412 0.0
N1618 N 0.65293 0.61235 0.5891 0.0
N1619 N 0.70894 0.67316 0.6099 0.0
H1620 H 0.36895 0.08329 0.55445 0.0
H1621 H 0.40756 1.00725 0.64714 0.0
H1622 H 0.33126 0.0556 0.62091 0.0
H1623 H 0.44978 0.03798 0.58298 0.0
H1624 H 0.38258 0.0292 0.63923 0.0
H1625 H 0.40139 0.07051 0.56549 0.0
C1626 C 0.36758 0.0747 0.57137 0.0
C1627 C 0.34717 0.07024 0.58665 0.0
C1628 C 0.39752 0.03144 0.62697 0.0
C1629 C 0.38412 0.0557 0.59941 0.0
C1630 C 0.41188 0.01897 0.63156 0.0
C1631 C 0.43064 0.02056 0.61562 0.0
C1632 C 0.40167 0.0454 0.60614 0.0
C1633 C 0.43546 0.03615 0.59574 0.0
C1634 C 0.3861 0.06745 0.57768 0.0
C1635 C 0.34642 0.05916 0.60841 0.0
N1636 N 0.42079 0.04766 0.59139 0.0
N1637 N 0.36447 0.05217 0.61404 0.0
H1638 H 0.018 0.41356 0.55605 0.0
H1639 H 0.94491 0.27757 0.62385 0.0
H1640 H 1.01783 0.40665 0.6306 0.0
H1641 H 0.95638 0.28414 0.54967 0.0
H1642 H 0.96379 0.32485 0.6262 0.0
H1643 H 0.98794 0.3666 0.55332 0.0
C1644 C 1.01142 0.40222 0.5719 0.0
C1645 C 0.02078 0.41403 0.5936 0.0
C1646 C 0.96193 0.31595 0.60938 0.0
C1647 C 0.98634 0.36012 0.59052 0.0
C1648 C 0.9511 0.28892 0.60798 0.0
C1649 C 0.94943 0.2769 0.58654 0.0
C1650 C 0.97121 0.33116 0.5892 0.0
C1651 C 0.95747 0.29259 0.56657 0.0
C1652 C 0.99425 0.37537 0.57029 0.0
C1653 C 1.0113 0.39835 0.61351 0.0
N1654 N 0.9683 0.31898 0.56842 0.0
N1655 N 0.9948 0.37213 0.61147 0.0
H1656 H 0.95322 0.72259 0.76177 0.0
H1657 H 0.07594 0.7103 0.72266 0.0
H1658 H 0.96259 0.65659 0.77947 0.0
H1659 H 0.08529 0.78582 0.73941 0.0
H1660 H 0.03057 0.6896 0.73609 0.0
H1661 H 0.99882 0.74586 0.74774 0.0
C1662 C 0.96492 0.71312 0.76295 0.0
C1663 C 0.95408 0.68762 0.77185 0.0
C1664 C 0.04253 0.71072 0.73667 0.0
C1665 C 1.00569 0.71372 0.75522 0.0
C1666 C 0.06837 0.7226 0.7288 0.0
C1667 C 0.08454 0.74987 0.73004 0.0
C1668 C 0.03255 0.72617 0.74549 0.0
C1669 C 0.07355 0.76473 0.73825 0.0
C1670 C 0.99084 0.72637 0.7549 0.0
C1671 C 0.9701 0.67625 0.77289 0.0
N1672 N 0.04817 0.75268 0.74568 0.0
N1673 N 0.99495 0.68923 0.76439 0.0
H1674 H 0.26409 0.32607 0.77938 0.0
H1675 H 0.36854 0.29404 0.72227 0.0
H1676 H 0.29665 0.35154 0.7109 0.0
H1677 H 0.34303 0.27669 0.79352 0.0
H1678 H 0.33725 0.30904 0.71592 0.0
H1679 H 0.28729 0.30161 0.78257 0.0
C1680 C 0.27584 0.32623 0.76484 0.0
C1681 C 0.27867 0.34116 0.74492 0.0
C1682 C 0.33832 0.30179 0.73291 0.0
C1683 C 0.30552 0.31327 0.74861 0.0
C1684 C 0.35623 0.29321 0.7366 0.0
C1685 C 0.35866 0.28436 0.75858 0.0
C1686 C 0.32265 0.3016 0.75132 0.0
C1687 C 0.34195 0.2835 0.77635 0.0
C1688 C 0.28916 0.31229 0.76674 0.0
C1689 C 0.29397 0.3404 0.7266 0.0
N1690 N 0.32479 0.29223 0.77237 0.0
N1691 N 0.30706 0.32694 0.72899 0.0
H1692 H 0.68706 0.94958 0.71867 0.0
H1693 H 0.73901 0.07201 0.80467 0.0
H1694 H 0.67142 0.94318 0.79222 0.0
H1695 H 0.75034 0.07883 0.73051 0.0
H1696 H 0.72065 0.02463 0.80132 0.0
H1697 H 0.7166 0.99676 0.72348 0.0
C1698 C 0.69011 0.95802 0.73585 0.0
C1699 C 0.67646 0.9425 0.755 0.0
C1700 C 0.72746 0.03655 0.78581 0.0
C1701 C 0.71005 0.99636 0.76065 0.0
C1702 C 0.73805 0.06361 0.78776 0.0
C1703 C 0.74587 0.07934 0.76782 0.0
C1704 C 0.72469 0.0252 0.76378 0.0
C1705 C 0.74419 0.06741 0.74632 0.0
C1706 C 0.70691 0.98495 0.7386 0.0
C1707 C 0.68122 0.95445 0.77689 0.0
N1708 N 0.73355 0.04106 0.74484 0.0
N1709 N 0.69739 0.98065 0.77908 0.0
H1710 H 0.28913 0.95128 0.21416 0.0
H1711 H 0.3514 0.07278 0.30168 0.0
H1712 H 0.28439 0.9437 0.2887 0.0
H1713 H 0.36048 0.0798 0.2273 0.0
H1714 H 0.32061 0.02583 0.29709 0.0
H1715 H 0.30895 0.99874 0.21842 0.0
C1716 C 0.29187 0.95954 0.23139 0.0
C1717 C 0.28545 0.94355 0.2511 0.0
C1718 C 0.32914 0.03773 0.28177 0.0
C1719 C 0.3083 0.99778 0.25614 0.0
C1720 C 0.34664 0.06453 0.2844 0.0
C1721 C 0.35882 0.08014 0.26488 0.0
C1722 C 0.32379 0.02655 0.25947 0.0
C1723 C 0.35188 0.06844 0.24288 0.0
C1724 C 0.30329 0.98664 0.23384 0.0
C1725 C 0.2894 0.95532 0.27302 0.0
N1726 N 0.33505 0.04236 0.24079 0.0
N1727 N 0.3008 0.9817 0.27495 0.0
H1728 H 0.95497 0.26975 0.27111 0.0
H1729 H 0.10252 0.36954 0.30903 0.0
H1730 H 0.9767 0.31353 0.33508 0.0
H1731 H 0.08113 0.34092 0.23902 0.0
H1732 H 0.0572 0.34169 0.32104 0.0
H1733 H 1.00146 0.28838 0.26164 0.0
C1734 C 0.96948 0.28294 0.28337 0.0
C1735 C 0.96187 0.29029 0.30387 0.0
C1736 C 0.06237 0.34129 0.30308 0.0
C1737 C 1.01513 0.31167 0.29301 0.0
C1738 C 0.08831 0.35719 0.29616 0.0
C1739 C 0.09559 0.35788 0.27286 0.0
C1740 C 0.04337 0.32588 0.28663 0.0
C1741 C 0.07634 0.34112 0.25711 0.0
C1742 C 0.99603 0.29365 0.27786 0.0
C1743 C 0.98161 0.30744 0.31903 0.0
N1744 N 0.05098 0.32597 0.26424 0.0
N1745 N 1.00729 0.31767 0.31322 0.0
H1746 H 0.73772 0.67762 0.28822 0.0
H1747 H 0.66829 0.71297 0.18874 0.0
H1748 H 0.74567 0.66526 0.21559 0.0
H1749 H 0.6849 0.75104 0.25544 0.0
H1750 H 0.6974 0.69591 0.19838 0.0
H1751 H 0.71929 0.70546 0.27722 0.0
C1752 C 0.73601 0.68108 0.27003 0.0
C1753 C 0.74289 0.66877 0.25282 0.0
C1754 C 0.69502 0.70834 0.21079 0.0
C1755 C 0.7216 0.70018 0.24017 0.0
C1756 C 0.6784 0.71809 0.20525 0.0
C1757 C 0.67407 0.73335 0.22131 0.0
C1758 C 0.70695 0.71339 0.23275 0.0
C1759 C 0.6877 0.73937 0.2425 0.0
C1760 C 0.72548 0.69693 0.26375 0.0
C1761 C 0.74026 0.67398 0.22949 0.0
N1762 N 0.70317 0.72899 0.24779 0.0
N1763 N 0.72951 0.68893 0.22388 0.0
loop_
_geom_bond_atom_site_label_1
_geom_bond_atom_site_label_2
_geom_bond_distance
_geom_bond_site_symmetry_2
_ccdc_geom_bond_type
Mg0 O7 2.141 . S
Mg0 O8 2.048 . S
Mg0 O9 2.048 . S
Mg0 O12 2.141 . S
C1 O2 1.313 . S
C1 O8 1.195 . S
O2 C1 1.313 . S
C3 O4 1.245 . S
C3 O12 1.289 . S
O4 C3 1.245 . S
C5 O6 1.245 . S
C5 O7 1.289 . S
O6 C5 1.245 . S
O7 Mg0 2.141 . S
O7 C5 1.289 . S
O8 Mg0 2.048 . S
O8 C1 1.195 . S
O9 Mg0 2.048 . S
O9 C10 1.195 . S
C10 O9 1.195 . S
C10 O11 1.313 . S
O11 C10 1.313 . S
O12 Mg0 2.141 . S
O12 C3 1.289 . S
Mg13 O20 2.141 . S
Mg13 O21 2.048 . S
Mg13 O22 2.048 . S
Mg13 O25 2.141 . S
C14 O15 1.313 . S
C14 O21 1.195 . S
O15 C14 1.313 . S
C16 O17 1.245 . S
C16 O25 1.289 . S
O17 C16 1.245 . S
C18 O19 1.245 . S
C18 O20 1.289 . S
O19 C18 1.245 . S
O20 Mg13 2.141 . S
O20 C18 1.289 . S
O21 Mg13 2.048 . S
O21 C14 1.195 . S
O22 Mg13 2.048 . S
O22 C23 1.195 . S
C23 O22 1.195 . S
C23 O24 1.313 . S
O24 C23 1.313 . S
O25 Mg13 2.141 . S
O25 C16 1.289 . S
Mg26 O33 2.141 . S
Mg26 O34 2.048 . S
Mg26 O35 2.048 . S
Mg26 O38 2.141 . S
C27 O28 1.313 . S
C27 O34 1.195 . S
O28 C27 1.313 . S
C29 O30 1.245 . S
C29 O38 1.289 . S
O30 C29 1.245 . S
C31 O32 1.245 . S
C31 O33 1.289 . S
O32 C31 1.245 . S
O33 Mg26 2.141 . S
O33 C31 1.289 . S
O34 Mg26 2.048 . S
O34 C27 1.195 . S
O35 Mg26 2.048 . S
O35 C36 1.195 . S
C36 O35 1.195 . S
C36 O37 1.313 . S
O37 C36 1.313 . S
O38 Mg26 2.141 . S
O38 C29 1.289 . S
Mg39 O46 2.141 . S
Mg39 O47 2.048 . S
Mg39 O48 2.048 . S
Mg39 O51 2.141 . S
C40 O41 1.313 . S
C40 O47 1.195 . S
O41 C40 1.313 . S
C42 O43 1.245 . S
C42 O51 1.289 . S
O43 C42 1.245 . S
C44 O45 1.245 . S
C44 O46 1.289 . S
O45 C44 1.245 . S
O46 Mg39 2.141 . S
O46 C44 1.289 . S
O47 Mg39 2.048 . S
O47 C40 1.195 . S
O48 Mg39 2.048 . S
O48 C49 1.195 . S
C49 O48 1.195 . S
C49 O50 1.313 . S
O50 C49 1.313 . S
O51 Mg39 2.141 . S
O51 C42 1.289 . S
Mg52 O59 2.141 . S
Mg52 O60 2.048 . S
Mg52 O61 2.048 . S
Mg52 O64 2.141 . S
C53 O54 1.313 . S
C53 O60 1.195 . S
O54 C53 1.313 . S
C55 O56 1.245 . S
C55 O64 1.289 . S
O56 C55 1.245 . S
C57 O58 1.245 . S
C57 O59 1.289 . S
O58 C57 1.245 . S
O59 Mg52 2.141 . S
O59 C57 1.289 . S
O60 Mg52 2.048 . S
O60 C53 1.195 . S
O61 Mg52 2.048 . S
O61 C62 1.195 . S
C62 O61 1.195 . S
C62 O63 1.313 . S
O63 C62 1.313 . S
O64 Mg52 2.141 . S
O64 C55 1.289 . S
Mg65 O72 2.141 . S
Mg65 O73 2.048 . S
Mg65 O74 2.048 . S
Mg65 O77 2.141 . S
C66 O67 1.313 . S
C66 O73 1.195 . S
O67 C66 1.313 . S
C68 O69 1.245 . S
C68 O77 1.289 . S
O69 C68 1.245 . S
C70 O71 1.245 . S
C70 O72 1.289 . S
O71 C70 1.245 . S
O72 Mg65 2.141 . S
O72 C70 1.289 . S
O73 Mg65 2.048 . S
O73 C66 1.195 . S
O74 Mg65 2.048 . S
O74 C75 1.195 . S
C75 O74 1.195 . S
C75 O76 1.313 . S
O76 C75 1.313 . S
O77 Mg65 2.141 . S
O77 C68 1.289 . S
Mg78 O85 2.141 . S
Mg78 O86 2.048 . S
Mg78 O87 2.048 . S
Mg78 O90 2.141 . S
C79 O80 1.313 . S
C79 O86 1.195 . S
O80 C79 1.313 . S
C81 O82 1.245 . S
C81 O90 1.289 . S
O82 C81 1.245 . S
C83 O84 1.245 . S
C83 O85 1.289 . S
O84 C83 1.245 . S
O85 Mg78 2.141 . S
O85 C83 1.289 . S
O86 Mg78 2.048 . S
O86 C79 1.195 . S
O87 Mg78 2.048 . S
O87 C88 1.195 . S
C88 O87 1.195 . S
C88 O89 1.313 . S
O89 C88 1.313 . S
O90 Mg78 2.141 . S
O90 C81 1.289 . S
Mg91 O98 2.141 . S
Mg91 O99 2.048 . S
Mg91 O100 2.048 . S
Mg91 O103 2.141 . S
C92 O93 1.313 . S
C92 O99 1.195 . S
O93 C92 1.313 . S
C94 O95 1.245 . S
C94 O103 1.289 . S
O95 C94 1.245 . S
C96 O97 1.245 . S
C96 O98 1.289 . S
O97 C96 1.245 . S
O98 Mg91 2.141 . S
O98 C96 1.289 . S
O99 Mg91 2.048 . S
O99 C92 1.195 . S
O100 Mg91 2.048 . S
O100 C101 1.195 . S
C101 O100 1.195 . S
C101 O102 1.313 . S
O102 C101 1.313 . S
O103 Mg91 2.141 . S
O103 C94 1.289 . S
Mg104 O111 2.141 . S
Mg104 O112 2.048 . S
Mg104 O113 2.048 . S
Mg104 O116 2.141 . S
C105 O106 1.313 . S
C105 O112 1.195 . S
O106 C105 1.313 . S
C107 O108 1.245 . S
C107 O116 1.289 . S
O108 C107 1.245 . S
C109 O110 1.245 . S
C109 O111 1.289 . S
O110 C109 1.245 . S
O111 Mg104 2.141 . S
O111 C109 1.289 . S
O112 Mg104 2.048 . S
O112 C105 1.195 . S
O113 Mg104 2.048 . S
O113 C114 1.195 . S
C114 O113 1.195 . S
C114 O115 1.313 . S
O115 C114 1.313 . S
O116 Mg104 2.141 . S
O116 C107 1.289 . S
Mg117 O124 2.141 . S
Mg117 O125 2.048 . S
Mg117 O126 2.048 . S
Mg117 O129 2.141 . S
C118 O119 1.313 . S
C118 O125 1.195 . S
O119 C118 1.313 . S
C120 O121 1.245 . S
C120 O129 1.289 . S
O121 C120 1.245 . S
C122 O123 1.245 . S
C122 O124 1.289 . S
O123 C122 1.245 . S
O124 Mg117 2.141 . S
O124 C122 1.289 . S
O125 Mg117 2.048 . S
O125 C118 1.195 . S
O126 Mg117 2.048 . S
O126 C127 1.195 . S
C127 O126 1.195 . S
C127 O128 1.313 . S
O128 C127 1.313 . S
O129 Mg117 2.141 . S
O129 C120 1.289 . S
Mg130 O137 2.141 . S
Mg130 O138 2.048 . S
Mg130 O139 2.048 . S
Mg130 O142 2.141 . S
C131 O132 1.313 . S
C131 O138 1.195 . S
O132 C131 1.313 . S
C133 O134 1.245 . S
C133 O142 1.289 . S
O134 C133 1.245 . S
C135 O136 1.245 . S
C135 O137 1.289 . S
O136 C135 1.245 . S
O137 Mg130 2.141 . S
O137 C135 1.289 . S
O138 Mg130 2.048 . S
O138 C131 1.195 . S
O139 Mg130 2.048 . S
O139 C140 1.195 . S
C140 O139 1.195 . S
C140 O141 1.313 . S
O141 C140 1.313 . S
O142 Mg130 2.141 . S
O142 C133 1.289 . S
Mg143 O150 2.141 . S
Mg143 O151 2.048 . S
Mg143 O152 2.048 . S
Mg143 O155 2.141 . S
C144 O145 1.313 . S
C144 O151 1.195 . S
O145 C144 1.313 . S
C146 O147 1.245 . S
C146 O155 1.289 . S
O147 C146 1.245 . S
C148 O149 1.245 . S
C148 O150 1.289 . S
O149 C148 1.245 . S
O150 Mg143 2.141 . S
O150 C148 1.289 . S
O151 Mg143 2.048 . S
O151 C144 1.195 . S
O152 Mg143 2.048 . S
O152 C153 1.195 . S
C153 O152 1.195 . S
C153 O154 1.313 . S
O154 C153 1.313 . S
O155 Mg143 2.141 . S
O155 C146 1.289 . S
Mg156 O163 2.141 . S
Mg156 O164 2.048 . S
Mg156 O165 2.048 . S
Mg156 O168 2.141 . S
C157 O158 1.313 . S
C157 O164 1.195 . S
O158 C157 1.313 . S
C159 O160 1.245 . S
C159 O168 1.289 . S
O160 C159 1.245 . S
C161 O162 1.245 . S
C161 O163 1.289 . S
O162 C161 1.245 . S
O163 Mg156 2.141 . S
O163 C161 1.289 . S
O164 Mg156 2.048 . S
O164 C157 1.195 . S
O165 Mg156 2.048 . S
O165 C166 1.195 . S
C166 O165 1.195 . S
C166 O167 1.313 . S
O167 C166 1.313 . S
O168 Mg156 2.141 . S
O168 C159 1.289 . S
Mg169 O176 2.141 . S
Mg169 O177 2.048 . S
Mg169 O178 2.048 . S
Mg169 O181 2.141 . S
C170 O171 1.313 . S
C170 O177 1.195 . S
O171 C170 1.313 . S
C172 O173 1.245 . S
C172 O181 1.289 . S
O173 C172 1.245 . S
C174 O175 1.245 . S
C174 O176 1.289 . S
O175 C174 1.245 . S
O176 Mg169 2.141 . S
O176 C174 1.289 . S
O177 Mg169 2.048 . S
O177 C170 1.195 . S
O178 Mg169 2.048 . S
O178 C179 1.195 . S
C179 O178 1.195 . S
C179 O180 1.313 . S
O180 C179 1.313 . S
O181 Mg169 2.141 . S
O181 C172 1.289 . S
Mg182 O189 2.141 . S
Mg182 O190 2.048 . S
Mg182 O191 2.048 . S
Mg182 O194 2.141 . S
C183 O184 1.313 . S
C183 O190 1.195 . S
O184 C183 1.313 . S
C185 O186 1.245 . S
C185 O194 1.289 . S
O186 C185 1.245 . S
C187 O188 1.245 . S
C187 O189 1.289 . S
O188 C187 1.245 . S
O189 Mg182 2.141 . S
O189 C187 1.289 . S
O190 Mg182 2.048 . S
O190 C183 1.195 . S
O191 Mg182 2.048 . S
O191 C192 1.195 . S
C192 O191 1.195 . S
C192 O193 1.313 . S
O193 C192 1.313 . S
O194 Mg182 2.141 . S
O194 C185 1.289 . S
Mg195 O202 2.141 . S
Mg195 O203 2.048 . S
Mg195 O204 2.048 . S
Mg195 O207 2.141 . S
C196 O197 1.313 . S
C196 O203 1.195 . S
O197 C196 1.313 . S
C198 O199 1.245 . S
C198 O207 1.289 . S
O199 C198 1.245 . S
C200 O201 1.245 . S
C200 O202 1.289 . S
O201 C200 1.245 . S
O202 Mg195 2.141 . S
O202 C200 1.289 . S
O203 Mg195 2.048 . S
O203 C196 1.195 . S
O204 Mg195 2.048 . S
O204 C205 1.195 . S
C205 O204 1.195 . S
C205 O206 1.313 . S
O206 C205 1.313 . S
O207 Mg195 2.141 . S
O207 C198 1.289 . S
Mg208 O215 2.141 . S
Mg208 O216 2.048 . S
Mg208 O217 2.048 . S
Mg208 O220 2.141 . S
C209 O210 1.313 . S
C209 O216 1.195 . S
O210 C209 1.313 . S
C211 O212 1.245 . S
C211 O220 1.289 . S
O212 C211 1.245 . S
C213 O214 1.245 . S
C213 O215 1.289 . S
O214 C213 1.245 . S
O215 Mg208 2.141 . S
O215 C213 1.289 . S
O216 Mg208 2.048 . S
O216 C209 1.195 . S
O217 Mg208 2.048 . S
O217 C218 1.195 . S
C218 O217 1.195 . S
C218 O219 1.313 . S
O219 C218 1.313 . S
O220 Mg208 2.141 . S
O220 C211 1.289 . S
Mg221 O228 2.141 . S
Mg221 O229 2.048 . S
Mg221 O230 2.048 . S
Mg221 O233 2.141 . S
C222 O223 1.313 . S
C222 O229 1.195 . S
O223 C222 1.313 . S
C224 O225 1.245 . S
C224 O233 1.289 . S
O225 C224 1.245 . S
C226 O227 1.245 . S
C226 O228 1.289 . S
O227 C226 1.245 . S
O228 Mg221 2.141 . S
O228 C226 1.289 . S
O229 Mg221 2.048 . S
O229 C222 1.195 . S
O230 Mg221 2.048 . S
O230 C231 1.195 . S
C231 O230 1.195 . S
C231 O232 1.313 . S
O232 C231 1.313 . S
O233 Mg221 2.141 . S
O233 C224 1.289 . S
Mg234 O241 2.141 . S
Mg234 O242 2.048 . S
Mg234 O243 2.048 . S
Mg234 O246 2.141 . S
C235 O236 1.313 . S
C235 O242 1.195 . S
O236 C235 1.313 . S
C237 O238 1.245 . S
C237 O246 1.289 . S
O238 C237 1.245 . S
C239 O240 1.245 . S
C239 O241 1.289 . S
O240 C239 1.245 . S
O241 Mg234 2.141 . S
O241 C239 1.289 . S
O242 Mg234 2.048 . S
O242 C235 1.195 . S
O243 Mg234 2.048 . S
O243 C244 1.195 . S
C244 O243 1.195 . S
C244 O245 1.313 . S
O245 C244 1.313 . S
O246 Mg234 2.141 . S
O246 C237 1.289 . S
Mg247 O254 2.141 . S
Mg247 O255 2.048 . S
Mg247 O256 2.048 . S
Mg247 O259 2.141 . S
C248 O249 1.313 . S
C248 O255 1.195 . S
O249 C248 1.313 . S
C250 O251 1.245 . S
C250 O259 1.289 . S
O251 C250 1.245 . S
C252 O253 1.245 . S
C252 O254 1.289 . S
O253 C252 1.245 . S
O254 Mg247 2.141 . S
O254 C252 1.289 . S
O255 Mg247 2.048 . S
O255 C248 1.195 . S
O256 Mg247 2.048 . S
O256 C257 1.195 . S
C257 O256 1.195 . S
C257 O258 1.313 . S
O258 C257 1.313 . S
O259 Mg247 2.141 . S
O259 C250 1.289 . S
Mg260 O267 2.141 . S
Mg260 O268 2.048 . S
Mg260 O269 2.048 . S
Mg260 O272 2.141 . S
C261 O262 1.313 . S
C261 O268 1.195 . S
O262 C261 1.313 . S
C263 O264 1.245 . S
C263 O272 1.289 . S
O264 C263 1.245 . S
C265 O266 1.245 . S
C265 O267 1.289 . S
O266 C265 1.245 . S
O267 Mg260 2.141 . S
O267 C265 1.289 . S
O268 Mg260 2.048 . S
O268 C261 1.195 . S
O269 Mg260 2.048 . S
O269 C270 1.195 . S
C270 O269 1.195 . S
C270 O271 1.313 . S
O271 C270 1.313 . S
O272 Mg260 2.141 . S
O272 C263 1.289 . S
Mg273 O280 2.141 . S
Mg273 O281 2.048 . S
Mg273 O282 2.048 . S
Mg273 O285 2.141 . S
C274 O275 1.313 . S
C274 O281 1.195 . S
O275 C274 1.313 . S
C276 O277 1.245 . S
C276 O285 1.289 . S
O277 C276 1.245 . S
C278 O279 1.245 . S
C278 O280 1.289 . S
O279 C278 1.245 . S
O280 Mg273 2.141 . S
O280 C278 1.289 . S
O281 Mg273 2.048 . S
O281 C274 1.195 . S
O282 Mg273 2.048 . S
O282 C283 1.195 . S
C283 O282 1.195 . S
C283 O284 1.313 . S
O284 C283 1.313 . S
O285 Mg273 2.141 . S
O285 C276 1.289 . S
Mg286 O293 2.141 . S
Mg286 O294 2.048 . S
Mg286 O295 2.048 . S
Mg286 O298 2.141 . S
C287 O288 1.313 . S
C287 O294 1.195 . S
O288 C287 1.313 . S
C289 O290 1.245 . S
C289 O298 1.289 . S
O290 C289 1.245 . S
C291 O292 1.245 . S
C291 O293 1.289 . S
O292 C291 1.245 . S
O293 Mg286 2.141 . S
O293 C291 1.289 . S
O294 Mg286 2.048 . S
O294 C287 1.195 . S
O295 Mg286 2.048 . S
O295 C296 1.195 . S
C296 O295 1.195 . S
C296 O297 1.313 . S
O297 C296 1.313 . S
O298 Mg286 2.141 . S
O298 C289 1.289 . S
Mg299 O306 2.141 . S
Mg299 O307 2.048 . S
Mg299 O308 2.048 . S
Mg299 O311 2.141 . S
C300 O301 1.313 . S
C300 O307 1.195 . S
O301 C300 1.313 . S
C302 O303 1.245 . S
C302 O311 1.289 . S
O303 C302 1.245 . S
C304 O305 1.245 . S
C304 O306 1.289 . S
O305 C304 1.245 . S
O306 Mg299 2.141 . S
O306 C304 1.289 . S
O307 Mg299 2.048 . S
O307 C300 1.195 . S
O308 Mg299 2.048 . S
O308 C309 1.195 . S
C309 O308 1.195 . S
C309 O310 1.313 . S
O310 C309 1.313 . S
O311 Mg299 2.141 . S
O311 C302 1.289 . S
Mg312 O319 2.141 . S
Mg312 O320 2.048 . S
Mg312 O321 2.048 . S
Mg312 O324 2.141 . S
C313 O314 1.313 . S
C313 O320 1.195 . S
O314 C313 1.313 . S
C315 O316 1.245 . S
C315 O324 1.289 . S
O316 C315 1.245 . S
C317 O318 1.245 . S
C317 O319 1.289 . S
O318 C317 1.245 . S
O319 Mg312 2.141 . S
O319 C317 1.289 . S
O320 Mg312 2.048 . S
O320 C313 1.195 . S
O321 Mg312 2.048 . S
O321 C322 1.195 . S
C322 O321 1.195 . S
C322 O323 1.313 . S
O323 C322 1.313 . S
O324 Mg312 2.141 . S
O324 C315 1.289 . S
Mg325 O332 2.141 . S
Mg325 O333 2.048 . S
Mg325 O334 2.048 . S
Mg325 O337 2.141 . S
C326 O327 1.313 . S
C326 O333 1.195 . S
O327 C326 1.313 . S
C328 O329 1.245 . S
C328 O337 1.289 . S
O329 C328 1.245 . S
C330 O331 1.245 . S
C330 O332 1.289 . S
O331 C330 1.245 . S
O332 Mg325 2.141 . S
O332 C330 1.289 . S
O333 Mg325 2.048 . S
O333 C326 1.195 . S
O334 Mg325 2.048 . S
O334 C335 1.195 . S
C335 O334 1.195 . S
C335 O336 1.313 . S
O336 C335 1.313 . S
O337 Mg325 2.141 . S
O337 C328 1.289 . S
Mg338 O345 2.141 . S
Mg338 O346 2.048 . S
Mg338 O347 2.048 . S
Mg338 O350 2.141 . S
C339 O340 1.313 . S
C339 O346 1.195 . S
O340 C339 1.313 . S
C341 O342 1.245 . S
C341 O350 1.289 . S
O342 C341 1.245 . S
C343 O344 1.245 . S
C343 O345 1.289 . S
O344 C343 1.245 . S
O345 Mg338 2.141 . S
O345 C343 1.289 . S
O346 Mg338 2.048 . S
O346 C339 1.195 . S
O347 Mg338 2.048 . S
O347 C348 1.195 . S
C348 O347 1.195 . S
C348 O349 1.313 . S
O349 C348 1.313 . S
O350 Mg338 2.141 . S
O350 C341 1.289 . S
Mg351 O358 2.141 . S
Mg351 O359 2.048 . S
Mg351 O360 2.048 . S
Mg351 O363 2.141 . S
C352 O353 1.313 . S
C352 O359 1.195 . S
O353 C352 1.313 . S
C354 O355 1.245 . S
C354 O363 1.289 . S
O355 C354 1.245 . S
C356 O357 1.245 . S
C356 O358 1.289 . S
O357 C356 1.245 . S
O358 Mg351 2.141 . S
O358 C356 1.289 . S
O359 Mg351 2.048 . S
O359 C352 1.195 . S
O360 Mg351 2.048 . S
O360 C361 1.195 . S
C361 O360 1.195 . S
C361 O362 1.313 . S
O362 C361 1.313 . S
O363 Mg351 2.141 . S
O363 C354 1.289 . S
Mg364 O371 2.141 . S
Mg364 O372 2.048 . S
Mg364 O373 2.048 . S
Mg364 O376 2.141 . S
C365 O366 1.313 . S
C365 O372 1.195 . S
O366 C365 1.313 . S
C367 O368 1.245 . S
C367 O376 1.289 . S
O368 C367 1.245 . S
C369 O370 1.245 . S
C369 O371 1.289 . S
O370 C369 1.245 . S
O371 Mg364 2.141 . S
O371 C369 1.289 . S
O372 Mg364 2.048 . S
O372 C365 1.195 . S
O373 Mg364 2.048 . S
O373 C374 1.195 . S
C374 O373 1.195 . S
C374 O375 1.313 . S
O375 C374 1.313 . S
O376 Mg364 2.141 . S
O376 C367 1.289 . S
Mg377 O384 2.141 . S
Mg377 O385 2.048 . S
Mg377 O386 2.048 . S
Mg377 O389 2.141 . S
C378 O379 1.313 . S
C378 O385 1.195 . S
O379 C378 1.313 . S
C380 O381 1.245 . S
C380 O389 1.289 . S
O381 C380 1.245 . S
C382 O383 1.245 . S
C382 O384 1.289 . S
O383 C382 1.245 . S
O384 Mg377 2.141 . S
O384 C382 1.289 . S
O385 Mg377 2.048 . S
O385 C378 1.195 . S
O386 Mg377 2.048 . S
O386 C387 1.195 . S
C387 O386 1.195 . S
C387 O388 1.313 . S
O388 C387 1.313 . S
O389 Mg377 2.141 . S
O389 C380 1.289 . S
Mg390 O397 2.141 . S
Mg390 O398 2.048 . S
Mg390 O399 2.048 . S
Mg390 O402 2.141 . S
C391 O392 1.313 . S
C391 O398 1.195 . S
O392 C391 1.313 . S
C393 O394 1.245 . S
C393 O402 1.289 . S
O394 C393 1.245 . S
C395 O396 1.245 . S
C395 O397 1.289 . S
O396 C395 1.245 . S
O397 Mg390 2.141 . S
O397 C395 1.289 . S
O398 Mg390 2.048 . S
O398 C391 1.195 . S
O399 Mg390 2.048 . S
O399 C400 1.195 . S
C400 O399 1.195 . S
C400 O401 1.313 . S
O401 C400 1.313 . S
O402 Mg390 2.141 . S
O402 C393 1.289 . S
Mg403 O410 2.141 . S
Mg403 O411 2.048 . S
Mg403 O412 2.048 . S
Mg403 O415 2.141 . S
C404 O405 1.313 . S
C404 O411 1.195 . S
O405 C404 1.313 . S
C406 O407 1.245 . S
C406 O415 1.289 . S
O407 C406 1.245 . S
C408 O409 1.245 . S
C408 O410 1.289 . S
O409 C408 1.245 . S
O410 Mg403 2.141 . S
O410 C408 1.289 . S
O411 Mg403 2.048 . S
O411 C404 1.195 . S
O412 Mg403 2.048 . S
O412 C413 1.195 . S
C413 O412 1.195 . S
C413 O414 1.313 . S
O414 C413 1.313 . S
O415 Mg403 2.141 . S
O415 C406 1.289 . S
Mg416 O423 2.141 . S
Mg416 O424 2.048 . S
Mg416 O425 2.048 . S
Mg416 O428 2.141 . S
C417 O418 1.313 . S
C417 O424 1.195 . S
O418 C417 1.313 . S
C419 O420 1.245 . S
C419 O428 1.289 . S
O420 C419 1.245 . S
C421 O422 1.245 . S
C421 O423 1.289 . S
O422 C421 1.245 . S
O423 Mg416 2.141 . S
O423 C421 1.289 . S
O424 Mg416 2.048 . S
O424 C417 1.195 . S
O425 Mg416 2.048 . S
O425 C426 1.195 . S
C426 O425 1.195 . S
C426 O427 1.313 . S
O427 C426 1.313 . S
O428 Mg416 2.141 . S
O428 C419 1.289 . S
Mg429 O436 2.141 . S
Mg429 O437 2.048 . S
Mg429 O438 2.048 . S
Mg429 O441 2.141 . S
C430 O431 1.313 . S
C430 O437 1.195 . S
O431 C430 1.313 . S
C432 O433 1.245 . S
C432 O441 1.289 . S
O433 C432 1.245 . S
C434 O435 1.245 . S
C434 O436 1.289 . S
O435 C434 1.245 . S
O436 Mg429 2.141 . S
O436 C434 1.289 . S
O437 Mg429 2.048 . S
O437 C430 1.195 . S
O438 Mg429 2.048 . S
O438 C439 1.195 . S
C439 O438 1.195 . S
C439 O440 1.313 . S
O440 C439 1.313 . S
O441 Mg429 2.141 . S
O441 C432 1.289 . S
Mg442 O449 2.141 . S
Mg442 O450 2.048 . S
Mg442 O451 2.048 . S
Mg442 O454 2.141 . S
C443 O444 1.313 . S
C443 O450 1.195 . S
O444 C443 1.313 . S
C445 O446 1.245 . S
C445 O454 1.289 . S
O446 C445 1.245 . S
C447 O448 1.245 . S
C447 O449 1.289 . S
O448 C447 1.245 . S
O449 Mg442 2.141 . S
O449 C447 1.289 . S
O450 Mg442 2.048 . S
O450 C443 1.195 . S
O451 Mg442 2.048 . S
O451 C452 1.195 . S
C452 O451 1.195 . S
C452 O453 1.313 . S
O453 C452 1.313 . S
O454 Mg442 2.141 . S
O454 C445 1.289 . S
Mg455 O462 2.141 . S
Mg455 O463 2.048 . S
Mg455 O464 2.048 . S
Mg455 O467 2.141 . S
C456 O457 1.313 . S
C456 O463 1.195 . S
O457 C456 1.313 . S
C458 O459 1.245 . S
C458 O467 1.289 . S
O459 C458 1.245 . S
C460 O461 1.245 . S
C460 O462 1.289 . S
O461 C460 1.245 . S
O462 Mg455 2.141 . S
O462 C460 1.289 . S
O463 Mg455 2.048 . S
O463 C456 1.195 . S
O464 Mg455 2.048 . S
O464 C465 1.195 . S
C465 O464 1.195 . S
C465 O466 1.313 . S
O466 C465 1.313 . S
O467 Mg455 2.141 . S
O467 C458 1.289 . S
H468 C474 0.930 . S
H469 C478 0.930 . S
H470 C483 0.929 . S
H471 C481 0.929 . S
H472 C476 0.929 . S
H473 C482 0.929 . S
C474 H468 0.930 . S
C474 C475 1.367 . S
C474 C482 1.378 . S
C475 C474 1.367 . S
C475 C483 1.433 . S
C476 H472 0.929 . S
C476 C478 1.378 . S
C476 C480 1.350 . S
C477 C480 1.463 . S
C477 C482 1.350 . S
C477 N485 1.427 . S
C478 H469 0.930 . S
C478 C476 1.378 . S
C478 C479 1.367 . S
C479 C478 1.367 . S
C479 C481 1.433 . S
C480 C476 1.350 . S
C480 C477 1.463 . S
C480 N484 1.427 . S
C481 H471 0.929 . S
C481 C479 1.433 . S
C481 N484 1.384 . S
C482 H473 0.929 . S
C482 C474 1.378 . S
C482 C477 1.350 . S
C483 H470 0.929 . S
C483 C475 1.433 . S
C483 N485 1.384 . S
N484 C480 1.427 . S
N484 C481 1.384 . S
N485 C477 1.427 . S
N485 C483 1.384 . S
H486 C492 0.930 . S
H487 C496 0.930 . S
H488 C501 0.929 . S
H489 C499 0.929 . S
H490 C494 0.929 . S
H491 C500 0.929 . S
C492 H486 0.930 . S
C492 C493 1.367 . S
C492 C500 1.378 . S
C493 C492 1.367 . S
C493 C501 1.433 . S
C494 H490 0.929 . S
C494 C496 1.378 . S
C494 C498 1.350 . S
C495 C498 1.463 . S
C495 C500 1.350 . S
C495 N503 1.427 . S
C496 H487 0.930 . S
C496 C494 1.378 . S
C496 C497 1.367 . S
C497 C496 1.367 . S
C497 C499 1.433 . S
C498 C494 1.350 . S
C498 C495 1.463 . S
C498 N502 1.427 . S
C499 H489 0.929 . S
C499 C497 1.433 . S
C499 N502 1.384 . S
C500 H491 0.929 . S
C500 C492 1.378 . S
C500 C495 1.350 . S
C501 H488 0.929 . S
C501 C493 1.433 . S
C501 N503 1.384 . S
N502 C498 1.427 . S
N502 C499 1.384 . S
N503 C495 1.427 . S
N503 C501 1.384 . S
H504 C510 0.930 . S
H505 C514 0.930 . S
H506 C519 0.929 . S
H507 C517 0.929 . S
H508 C512 0.929 . S
H509 C518 0.929 . S
C510 H504 0.930 . S
C510 C511 1.367 . S
C510 C518 1.378 . S
C511 C510 1.367 . S
C511 C519 1.433 . S
C512 H508 0.929 . S
C512 C514 1.378 . S
C512 C516 1.350 . S
C513 C516 1.463 . S
C513 C518 1.350 . S
C513 N521 1.427 . S
C514 H505 0.930 . S
C514 C512 1.378 . S
C514 C515 1.367 . S
C515 C514 1.367 . S
C515 C517 1.433 . S
C516 C512 1.350 . S
C516 C513 1.463 . S
C516 N520 1.427 . S
C517 H507 0.929 . S
C517 C515 1.433 . S
C517 N520 1.384 . S
C518 H509 0.929 . S
C518 C510 1.378 . S
C518 C513 1.350 . S
C519 H506 0.929 . S
C519 C511 1.433 . S
C519 N521 1.384 . S
N520 C516 1.427 . S
N520 C517 1.384 . S
N521 C513 1.427 . S
N521 C519 1.384 . S
H522 C528 0.930 . S
H523 C532 0.930 . S
H524 C537 0.929 . S
H525 C535 0.929 . S
H526 C530 0.929 . S
H527 C536 0.929 . S
C528 H522 0.930 . S
C528 C529 1.367 . S
C528 C536 1.378 . S
C529 C528 1.367 . S
C529 C537 1.433 . S
C530 H526 0.929 . S
C530 C532 1.378 . S
C530 C534 1.350 . S
C531 C534 1.463 . S
C531 C536 1.350 . S
C531 N539 1.427 . S
C532 H523 0.930 . S
C532 C530 1.378 . S
C532 C533 1.367 . S
C533 C532 1.367 . S
C533 C535 1.433 . S
C534 C530 1.350 . S
C534 C531 1.463 . S
C534 N538 1.427 . S
C535 H525 0.929 . S
C535 C533 1.433 . S
C535 N538 1.384 . S
C536 H527 0.929 . S
C536 C528 1.378 . S
C536 C531 1.350 . S
C537 H524 0.929 . S
C537 C529 1.433 . S
C537 N539 1.384 . S
N538 C534 1.427 . S
N538 C535 1.384 . S
N539 C531 1.427 . S
N539 C537 1.384 . S
H540 C546 0.930 . S
H541 C550 0.930 . S
H542 C555 0.929 . S
H543 C553 0.929 . S
H544 C548 0.929 . S
H545 C554 0.929 . S
C546 H540 0.930 . S
C546 C547 1.367 . S
C546 C554 1.378 . S
C547 C546 1.367 . S
C547 C555 1.433 . S
C548 H544 0.929 . S
C548 C550 1.378 . S
C548 C552 1.350 . S
C549 C552 1.463 . S
C549 C554 1.350 . S
C549 N557 1.427 . S
C550 H541 0.930 . S
C550 C548 1.378 . S
C550 C551 1.367 . S
C551 C550 1.367 . S
C551 C553 1.433 . S
C552 C548 1.350 . S
C552 C549 1.463 . S
C552 N556 1.427 . S
C553 H543 0.929 . S
C553 C551 1.433 . S
C553 N556 1.384 . S
C554 H545 0.929 . S
C554 C546 1.378 . S
C554 C549 1.350 . S
C555 H542 0.929 . S
C555 C547 1.433 . S
C555 N557 1.384 . S
N556 C552 1.427 . S
N556 C553 1.384 . S
N557 C549 1.427 . S
N557 C555 1.384 . S
H558 C564 0.930 . S
H559 C568 0.930 . S
H560 C573 0.929 . S
H561 C571 0.929 . S
H562 C566 0.929 . S
H563 C572 0.929 . S
C564 H558 0.930 . S
C564 C565 1.367 . S
C564 C572 1.378 . S
C565 C564 1.367 . S
C565 C573 1.433 . S
C566 H562 0.929 . S
C566 C568 1.378 . S
C566 C570 1.350 . S
C567 C570 1.463 . S
C567 C572 1.350 . S
C567 N575 1.427 . S
C568 H559 0.930 . S
C568 C566 1.378 . S
C568 C569 1.367 . S
C569 C568 1.367 . S
C569 C571 1.433 . S
C570 C566 1.350 . S
C570 C567 1.463 . S
C570 N574 1.427 . S
C571 H561 0.929 . S
C571 C569 1.433 . S
C571 N574 1.384 . S
C572 H563 0.929 . S
C572 C564 1.378 . S
C572 C567 1.350 . S
C573 H560 0.929 . S
C573 C565 1.433 . S
C573 N575 1.384 . S
N574 C570 1.427 . S
N574 C571 1.384 . S
N575 C567 1.427 . S
N575 C573 1.384 . S
H576 C582 0.930 . S
H577 C586 0.930 . S
H578 C591 0.929 . S
H579 C589 0.929 . S
H580 C584 0.929 . S
H581 C590 0.929 . S
C582 H576 0.930 . S
C582 C583 1.367 . S
C582 C590 1.378 . S
C583 C582 1.367 . S
C583 C591 1.433 . S
C584 H580 0.929 . S
C584 C586 1.378 . S
C584 C588 1.350 . S
C585 C588 1.463 . S
C585 C590 1.350 . S
C585 N593 1.427 . S
C586 H577 0.930 . S
C586 C584 1.378 . S
C586 C587 1.367 . S
C587 C586 1.367 . S
C587 C589 1.433 . S
C588 C584 1.350 . S
C588 C585 1.463 . S
C588 N592 1.427 . S
C589 H579 0.929 . S
C589 C587 1.433 . S
C589 N592 1.384 . S
C590 H581 0.929 . S
C590 C582 1.378 . S
C590 C585 1.350 . S
C591 H578 0.929 . S
C591 C583 1.433 . S
C591 N593 1.384 . S
N592 C588 1.427 . S
N592 C589 1.384 . S
N593 C585 1.427 . S
N593 C591 1.384 . S
H594 C600 0.930 . S
H595 C604 0.930 . S
H596 C609 0.929 . S
H597 C607 0.929 . S
H598 C602 0.929 . S
H599 C608 0.929 . S
C600 H594 0.930 . S
C600 C601 1.367 . S
C600 C608 1.378 . S
C601 C600 1.367 . S
C601 C609 1.433 . S
C602 H598 0.929 . S
C602 C604 1.378 . S
C602 C606 1.350 . S
C603 C606 1.463 . S
C603 C608 1.350 . S
C603 N611 1.427 . S
C604 H595 0.930 . S
C604 C602 1.378 . S
C604 C605 1.367 . S
C605 C604 1.367 . S
C605 C607 1.433 . S
C606 C602 1.350 . S
C606 C603 1.463 . S
C606 N610 1.427 . S
C607 H597 0.929 . S
C607 C605 1.433 . S
C607 N610 1.384 . S
C608 H599 0.929 . S
C608 C600 1.378 . S
C608 C603 1.350 . S
C609 H596 0.929 . S
C609 C601 1.433 . S
C609 N611 1.384 . S
N610 C606 1.427 . S
N610 C607 1.384 . S
N611 C603 1.427 . S
N611 C609 1.384 . S
H612 C618 0.930 . S
H613 C622 0.930 . S
H614 C627 0.929 . S
H615 C625 0.929 . S
H616 C620 0.929 . S
H617 C626 0.929 . S
C618 H612 0.930 . S
C618 C619 1.367 . S
C618 C626 1.378 . S
C619 C618 1.367 . S
C619 C627 1.433 . S
C620 H616 0.929 . S
C620 C622 1.378 . S
C620 C624 1.350 . S
C621 C624 1.463 . S
C621 C626 1.350 . S
C621 N629 1.427 . S
C622 H613 0.930 . S
C622 C620 1.378 . S
C622 C623 1.367 . S
C623 C622 1.367 . S
C623 C625 1.433 . S
C624 C620 1.350 . S
C624 C621 1.463 . S
C624 N628 1.427 . S
C625 H615 0.929 . S
C625 C623 1.433 . S
C625 N628 1.384 . S
C626 H617 0.929 . S
C626 C618 1.378 . S
C626 C621 1.350 . S
C627 H614 0.929 . S
C627 C619 1.433 . S
C627 N629 1.384 . S
N628 C624 1.427 . S
N628 C625 1.384 . S
N629 C621 1.427 . S
N629 C627 1.384 . S
H630 C636 0.930 . S
H631 C640 0.930 . S
H632 C645 0.929 . S
H633 C643 0.929 . S
H634 C638 0.929 . S
H635 C644 0.929 . S
C636 H630 0.930 . S
C636 C637 1.367 . S
C636 C644 1.378 . S
C637 C636 1.367 . S
C637 C645 1.433 . S
C638 H634 0.929 . S
C638 C640 1.378 . S
C638 C642 1.350 . S
C639 C642 1.463 . S
C639 C644 1.350 . S
C639 N647 1.427 . S
C640 H631 0.930 . S
C640 C638 1.378 . S
C640 C641 1.367 . S
C641 C640 1.367 . S
C641 C643 1.433 . S
C642 C638 1.350 . S
C642 C639 1.463 . S
C642 N646 1.427 . S
C643 H633 0.929 . S
C643 C641 1.433 . S
C643 N646 1.384 . S
C644 H635 0.929 . S
C644 C636 1.378 . S
C644 C639 1.350 . S
C645 H632 0.929 . S
C645 C637 1.433 . S
C645 N647 1.384 . S
N646 C642 1.427 . S
N646 C643 1.384 . S
N647 C639 1.427 . S
N647 C645 1.384 . S
H648 C654 0.930 . S
H649 C658 0.930 . S
H650 C663 0.929 . S
H651 C661 0.929 . S
H652 C656 0.929 . S
H653 C662 0.929 . S
C654 H648 0.930 . S
C654 C655 1.367 . S
C654 C662 1.378 . S
C655 C654 1.367 . S
C655 C663 1.433 . S
C656 H652 0.929 . S
C656 C658 1.378 . S
C656 C660 1.350 . S
C657 C660 1.463 . S
C657 C662 1.350 . S
C657 N665 1.427 . S
C658 H649 0.930 . S
C658 C656 1.378 . S
C658 C659 1.367 . S
C659 C658 1.367 . S
C659 C661 1.433 . S
C660 C656 1.350 . S
C660 C657 1.463 . S
C660 N664 1.427 . S
C661 H651 0.929 . S
C661 C659 1.433 . S
C661 N664 1.384 . S
C662 H653 0.929 . S
C662 C654 1.378 . S
C662 C657 1.350 . S
C663 H650 0.929 . S
C663 C655 1.433 . S
C663 N665 1.384 . S
N664 C660 1.427 . S
N664 C661 1.384 . S
N665 C657 1.427 . S
N665 C663 1.384 . S
H666 C672 0.930 . S
H667 C676 0.930 . S
H668 C681 0.929 . S
H669 C679 0.929 . S
H670 C674 0.929 . S
H671 C680 0.929 . S
C672 H666 0.930 . S
C672 C673 1.367 . S
C672 C680 1.378 . S
C673 C672 1.367 . S
C673 C681 1.433 . S
C674 H670 0.929 . S
C674 C676 1.378 . S
C674 C678 1.350 . S
C675 C678 1.463 . S
C675 C680 1.350 . S
C675 N683 1.427 . S
C676 H667 0.930 . S
C676 C674 1.378 . S
C676 C677 1.367 . S
C677 C676 1.367 . S
C677 C679 1.433 . S
C678 C674 1.350 . S
C678 C675 1.463 . S
C678 N682 1.427 . S
C679 H669 0.929 . S
C679 C677 1.433 . S
C679 N682 1.384 . S
C680 H671 0.929 . S
C680 C672 1.378 . S
C680 C675 1.350 . S
C681 H668 0.929 . S
C681 C673 1.433 . S
C681 N683 1.384 . S
N682 C678 1.427 . S
N682 C679 1.384 . S
N683 C675 1.427 . S
N683 C681 1.384 . S
H684 C690 0.930 . S
H685 C694 0.930 . S
H686 C699 0.929 . S
H687 C697 0.929 . S
H688 C692 0.929 . S
H689 C698 0.929 . S
C690 H684 0.930 . S
C690 C691 1.367 . S
C690 C698 1.378 . S
C691 C690 1.367 . S
C691 C699 1.433 . S
C692 H688 0.929 . S
C692 C694 1.378 . S
C692 C696 1.350 . S
C693 C696 1.463 1_655 S
C693 C698 1.350 . S
C693 N701 1.427 . S
C694 H685 0.930 . S
C694 C692 1.378 . S
C694 C695 1.367 . S
C695 C694 1.367 . S
C695 C697 1.433 . S
C696 C692 1.350 . S
C696 C693 1.463 1_455 S
C696 N700 1.427 . S
C697 H687 0.929 . S
C697 C695 1.433 . S
C697 N700 1.384 . S
C698 H689 0.929 . S
C698 C690 1.378 . S
C698 C693 1.350 . S
C699 H686 0.929 . S
C699 C691 1.433 . S
C699 N701 1.384 . S
N700 C696 1.427 . S
N700 C697 1.384 . S
N701 C693 1.427 . S
N701 C699 1.384 . S
H702 C708 0.930 . S
H703 C712 0.930 . S
H704 C717 0.929 . S
H705 C715 0.929 . S
H706 C710 0.929 . S
H707 C716 0.929 . S
C708 H702 0.930 . S
C708 C709 1.367 . S
C708 C716 1.378 . S
C709 C708 1.367 . S
C709 C717 1.433 . S
C710 H706 0.929 . S
C710 C712 1.378 . S
C710 C714 1.350 . S
C711 C714 1.463 . S
C711 C716 1.350 . S
C711 N719 1.427 . S
C712 H703 0.930 . S
C712 C710 1.378 . S
C712 C713 1.367 . S
C713 C712 1.367 . S
C713 C715 1.433 . S
C714 C710 1.350 . S
C714 C711 1.463 . S
C714 N718 1.427 . S
C715 H705 0.929 . S
C715 C713 1.433 . S
C715 N718 1.384 . S
C716 H707 0.929 . S
C716 C708 1.378 . S
C716 C711 1.350 . S
C717 H704 0.929 . S
C717 C709 1.433 . S
C717 N719 1.384 . S
N718 C714 1.427 . S
N718 C715 1.384 . S
N719 C711 1.427 . S
N719 C717 1.384 . S
H720 C726 0.930 . S
H721 C730 0.930 . S
H722 C735 0.929 . S
H723 C733 0.929 . S
H724 C728 0.929 . S
H725 C734 0.929 . S
C726 H720 0.930 . S
C726 C727 1.367 . S
C726 C734 1.378 . S
C727 C726 1.367 . S
C727 C735 1.433 . S
C728 H724 0.929 . S
C728 C730 1.378 . S
C728 C732 1.350 . S
C729 C732 1.463 1_545 S
C729 C734 1.350 . S
C729 N737 1.427 . S
C730 H721 0.930 . S
C730 C728 1.378 . S
C730 C731 1.367 . S
C731 C730 1.367 . S
C731 C733 1.433 . S
C732 C728 1.350 . S
C732 C729 1.463 1_565 S
C732 N736 1.427 . S
C733 H723 0.929 . S
C733 C731 1.433 . S
C733 N736 1.384 . S
C734 H725 0.929 . S
C734 C726 1.378 . S
C734 C729 1.350 . S
C735 H722 0.929 . S
C735 C727 1.433 . S
C735 N737 1.384 . S
N736 C732 1.427 . S
N736 C733 1.384 . S
N737 C729 1.427 . S
N737 C735 1.384 . S
H738 C744 0.930 . S
H739 C748 0.930 . S
H740 C753 0.929 1_565 S
H741 C751 0.929 1_545 S
H742 C746 0.929 1_556 S
H743 C752 0.929 1_554 S
C744 H738 0.930 . S
C744 C745 1.367 . S
C744 C752 1.378 . S
C745 C744 1.367 . S
C745 C753 1.433 . S
C746 H742 0.929 1_554 S
C746 C748 1.378 . S
C746 C750 1.350 . S
C747 C750 1.463 1_546 S
C747 C752 1.350 . S
C747 N755 1.427 1_545 S
C748 H739 0.930 . S
C748 C746 1.378 . S
C748 C749 1.367 . S
C749 C748 1.367 . S
C749 C751 1.433 . S
C750 C746 1.350 . S
C750 C747 1.463 1_564 S
C750 N754 1.427 1_565 S
C751 H741 0.929 1_565 S
C751 C749 1.433 . S
C751 N754 1.384 1_565 S
C752 H743 0.929 1_556 S
C752 C744 1.378 . S
C752 C747 1.350 . S
C753 H740 0.929 1_545 S
C753 C745 1.433 . S
C753 N755 1.384 1_545 S
N754 C750 1.427 1_545 S
N754 C751 1.384 1_545 S
N755 C747 1.427 1_565 S
N755 C753 1.384 1_565 S
H756 C762 0.930 . S
H757 C766 0.930 . S
H758 C771 0.929 . S
H759 C769 0.929 . S
H760 C764 0.929 . S
H761 C770 0.929 . S
C762 H756 0.930 . S
C762 C763 1.367 . S
C762 C770 1.378 . S
C763 C762 1.367 . S
C763 C771 1.433 . S
C764 H760 0.929 . S
C764 C766 1.378 . S
C764 C768 1.350 . S
C765 C768 1.463 1_656 S
C765 C770 1.350 . S
C765 N773 1.427 . S
C766 H757 0.930 . S
C766 C764 1.378 . S
C766 C767 1.367 . S
C767 C766 1.367 . S
C767 C769 1.433 . S
C768 C764 1.350 . S
C768 C765 1.463 1_454 S
C768 N772 1.427 . S
C769 H759 0.929 . S
C769 C767 1.433 . S
C769 N772 1.384 . S
C770 H761 0.929 . S
C770 C762 1.378 . S
C770 C765 1.350 . S
C771 H758 0.929 . S
C771 C763 1.433 . S
C771 N773 1.384 . S
N772 C768 1.427 . S
N772 C769 1.384 . S
N773 C765 1.427 . S
N773 C771 1.384 . S
H774 C780 0.930 . S
H775 C784 0.930 . S
H776 C789 0.929 . S
H777 C787 0.929 . S
H778 C782 0.929 . S
H779 C788 0.929 . S
C780 H774 0.930 . S
C780 C781 1.367 . S
C780 C788 1.378 . S
C781 C780 1.367 . S
C781 C789 1.433 . S
C782 H778 0.929 . S
C782 C784 1.378 . S
C782 C786 1.350 . S
C783 C786 1.463 1_556 S
C783 C788 1.350 . S
C783 N791 1.427 . S
C784 H775 0.930 . S
C784 C782 1.378 . S
C784 C785 1.367 . S
C785 C784 1.367 . S
C785 C787 1.433 . S
C786 C782 1.350 . S
C786 C783 1.463 1_554 S
C786 N790 1.427 . S
C787 H777 0.929 . S
C787 C785 1.433 . S
C787 N790 1.384 . S
C788 H779 0.929 . S
C788 C780 1.378 . S
C788 C783 1.350 . S
C789 H776 0.929 . S
C789 C781 1.433 . S
C789 N791 1.384 . S
N790 C786 1.427 . S
N790 C787 1.384 . S
N791 C783 1.427 . S
N791 C789 1.384 . S
H792 C798 0.930 1_564 S
H793 C802 0.930 . S
H794 C807 0.929 . S
H795 C805 0.929 . S
H796 C800 0.929 1_556 S
H797 C806 0.929 . S
C798 H792 0.930 1_546 S
C798 C799 1.366 . S
C798 C806 1.378 1_556 S
C799 C798 1.366 . S
C799 C807 1.449 . S
C800 H796 0.929 1_554 S
C800 C802 1.378 . S
C800 C804 1.350 . S
C801 C804 1.463 . S
C801 C806 1.350 . S
C801 N809 1.427 1_554 S
C802 H793 0.930 . S
C802 C800 1.378 . S
C802 C803 1.367 . S
C803 C802 1.367 . S
C803 C805 1.433 . S
C804 C800 1.350 . S
C804 C801 1.463 . S
C804 N808 1.427 . S
C805 H795 0.929 . S
C805 C803 1.433 . S
C805 N808 1.384 . S
C806 H797 0.929 . S
C806 C798 1.378 1_554 S
C806 C801 1.350 . S
C807 H794 0.929 . S
C807 C799 1.449 . S
C807 N809 1.384 . S
N808 C804 1.427 . S
N808 C805 1.384 . S
N809 C801 1.427 1_556 S
N809 C807 1.384 . S
H810 C816 0.930 . S
H811 C820 0.930 . S
H812 C825 0.929 1_454 S
H813 C823 0.929 . S
H814 C818 0.929 . S
H815 C824 0.929 . S
C816 H810 0.930 . S
C816 C817 1.378 . S
C816 C824 1.378 . S
C817 C816 1.378 . S
C817 C825 1.442 . S
C818 H814 0.929 . S
C818 C820 1.378 . S
C818 C822 1.350 . S
C819 C822 1.477 . S
C819 C824 1.327 1_554 S
C819 N827 1.438 . S
C820 H811 0.930 . S
C820 C818 1.378 . S
C820 C821 1.367 . S
C821 C820 1.367 . S
C821 C823 1.433 . S
C822 C818 1.350 . S
C822 C819 1.477 . S
C822 N826 1.427 . S
C823 H813 0.929 . S
C823 C821 1.433 . S
C823 N826 1.384 . S
C824 H815 0.929 . S
C824 C816 1.378 . S
C824 C819 1.327 1_556 S
C825 H812 0.929 1_656 S
C825 C817 1.442 . S
C825 N827 1.384 1_556 S
N826 C822 1.427 . S
N826 C823 1.384 . S
N827 C819 1.438 . S
N827 C825 1.384 1_554 S
H828 C834 0.930 . S
H829 C838 0.930 . S
H830 C843 0.929 . S
H831 C841 0.929 . S
H832 C836 0.929 . S
H833 C842 0.929 1_556 S
C834 H828 0.930 . S
C834 C835 1.367 . S
C834 C842 1.378 . S
C835 C834 1.367 . S
C835 C843 1.433 . S
C836 H832 0.929 . S
C836 C838 1.378 1_554 S
C836 C840 1.350 . S
C837 C840 1.463 . S
C837 C842 1.350 . S
C837 N845 1.427 . S
C838 H829 0.930 . S
C838 C836 1.378 1_556 S
C838 C839 1.367 . S
C839 C838 1.367 . S
C839 C841 1.433 . S
C840 C836 1.350 . S
C840 C837 1.463 . S
C840 N844 1.427 1_554 S
C841 H831 0.929 . S
C841 C839 1.433 . S
C841 N844 1.384 . S
C842 H833 0.929 1_554 S
C842 C834 1.378 . S
C842 C837 1.350 . S
C843 H830 0.929 . S
C843 C835 1.433 . S
C843 N845 1.384 . S
N844 C840 1.427 1_556 S
N844 C841 1.384 . S
N845 C837 1.427 . S
N845 C843 1.384 . S
H846 C852 0.930 . S
H847 C856 0.930 . S
H848 C861 0.929 . S
H849 C859 0.929 . S
H850 C854 0.929 . S
H851 C860 0.929 . S
C852 H846 0.930 . S
C852 C853 1.369 1_655 S
C852 C860 1.378 1_655 S
C853 C852 1.369 1_455 S
C853 C861 1.437 . S
C854 H850 0.929 . S
C854 C856 1.378 . S
C854 C858 1.350 . S
C855 C858 1.463 . S
C855 C860 1.350 . S
C855 N863 1.427 . S
C856 H847 0.930 . S
C856 C854 1.378 . S
C856 C857 1.367 . S
C857 C856 1.367 . S
C857 C859 1.433 . S
C858 C854 1.350 . S
C858 C855 1.463 . S
C858 N862 1.427 . S
C859 H849 0.929 . S
C859 C857 1.433 . S
C859 N862 1.384 . S
C860 H851 0.929 . S
C860 C852 1.378 1_455 S
C860 C855 1.350 . S
C861 H848 0.929 . S
C861 C853 1.437 . S
C861 N863 1.384 . S
N862 C858 1.427 . S
N862 C859 1.384 . S
N863 C855 1.427 . S
N863 C861 1.384 . S
H864 C870 0.930 . S
H865 C874 0.930 . S
H866 C879 0.929 . S
H867 C877 0.929 . S
H868 C872 0.929 . S
H869 C878 0.929 . S
C870 H864 0.930 . S
C870 C871 1.367 . S
C870 C878 1.378 . S
C871 C870 1.367 . S
C871 C879 1.433 . S
C872 H868 0.929 . S
C872 C874 1.378 . S
C872 C876 1.350 . S
C873 C876 1.463 . S
C873 C878 1.350 . S
C873 N881 1.427 . S
C874 H865 0.930 . S
C874 C872 1.378 . S
C874 C875 1.367 . S
C875 C874 1.367 . S
C875 C877 1.433 . S
C876 C872 1.350 . S
C876 C873 1.463 . S
C876 N880 1.427 . S
C877 H867 0.929 . S
C877 C875 1.433 . S
C877 N880 1.384 . S
C878 H869 0.929 . S
C878 C870 1.378 . S
C878 C873 1.350 . S
C879 H866 0.929 . S
C879 C871 1.433 . S
C879 N881 1.384 . S
N880 C876 1.427 . S
N880 C877 1.384 . S
N881 C873 1.427 . S
N881 C879 1.384 . S
H882 C888 0.930 . S
H883 C892 0.930 . S
H884 C897 0.929 1_545 S
H885 C895 0.929 . S
H886 C890 0.929 . S
H887 C896 0.929 . S
C888 H882 0.930 . S
C888 C889 1.374 . S
C888 C896 1.378 . S
C889 C888 1.374 . S
C889 C897 1.445 . S
C890 H886 0.929 . S
C890 C892 1.378 . S
C890 C894 1.350 . S
C891 C894 1.463 . S
C891 C896 1.350 . S
C891 N899 1.427 . S
C892 H883 0.930 . S
C892 C890 1.378 . S
C892 C893 1.367 . S
C893 C892 1.367 . S
C893 C895 1.433 . S
C894 C890 1.350 . S
C894 C891 1.463 . S
C894 N898 1.427 . S
C895 H885 0.929 . S
C895 C893 1.433 . S
C895 N898 1.384 . S
C896 H887 0.929 . S
C896 C888 1.378 . S
C896 C891 1.350 . S
C897 H884 0.929 1_565 S
C897 C889 1.445 . S
C897 N899 1.384 . S
N898 C894 1.427 . S
N898 C895 1.384 . S
N899 C891 1.427 . S
N899 C897 1.384 . S
H900 C906 0.930 . S
H901 C910 0.930 . S
H902 C915 0.929 . S
H903 C913 0.929 . S
H904 C908 0.929 . S
H905 C914 0.929 1_554 S
C906 H900 0.930 . S
C906 C907 1.367 . S
C906 C914 1.378 . S
C907 C906 1.367 . S
C907 C915 1.433 . S
C908 H904 0.929 . S
C908 C910 1.378 1_556 S
C908 C912 1.350 . S
C909 C912 1.463 . S
C909 C914 1.350 . S
C909 N917 1.427 . S
C910 H901 0.930 . S
C910 C908 1.378 1_554 S
C910 C911 1.367 . S
C911 C910 1.367 . S
C911 C913 1.452 . S
C912 C908 1.350 . S
C912 C909 1.463 . S
C912 N916 1.427 1_556 S
C913 H903 0.929 . S
C913 C911 1.452 . S
C913 N916 1.384 . S
C914 H905 0.929 1_556 S
C914 C906 1.378 . S
C914 C909 1.350 . S
C915 H902 0.929 . S
C915 C907 1.433 . S
C915 N917 1.384 . S
N916 C912 1.427 1_554 S
N916 C913 1.384 . S
N917 C909 1.427 . S
N917 C915 1.384 . S
H918 C924 0.930 . S
H919 C928 0.930 . S
H920 C933 0.929 . S
H921 C931 0.929 1_556 S
H922 C926 0.929 . S
H923 C932 0.929 . S
C924 H918 0.930 . S
C924 C925 1.367 . S
C924 C932 1.378 . S
C925 C924 1.367 . S
C925 C933 1.433 . S
C926 H922 0.929 . S
C926 C928 1.378 . S
C926 C930 1.328 1_554 S
C927 C930 1.476 . S
C927 C932 1.350 . S
C927 N935 1.427 . S
C928 H919 0.930 . S
C928 C926 1.378 . S
C928 C929 1.400 . S
C929 C928 1.400 . S
C929 C931 1.424 1_455 S
C930 C926 1.328 1_556 S
C930 C927 1.476 . S
C930 N934 1.438 . S
C931 H921 0.929 1_554 S
C931 C929 1.424 1_655 S
C931 N934 1.384 1_654 S
C932 H923 0.929 . S
C932 C924 1.378 . S
C932 C927 1.350 . S
C933 H920 0.929 . S
C933 C925 1.433 . S
C933 N935 1.384 . S
N934 C930 1.438 . S
N934 C931 1.384 1_456 S
N935 C927 1.427 . S
N935 C933 1.384 . S
H936 C942 0.930 . S
H937 C946 0.930 . S
H938 C951 0.929 . S
H939 C949 0.929 1_556 S
H940 C944 0.929 . S
H941 C950 0.929 . S
C942 H936 0.930 . S
C942 C943 1.367 . S
C942 C950 1.378 . S
C943 C942 1.367 . S
C943 C951 1.433 . S
C944 H940 0.929 . S
C944 C946 1.378 . S
C944 C948 1.328 1_554 S
C945 C948 1.476 . S
C945 C950 1.350 . S
C945 N953 1.427 . S
C946 H937 0.930 . S
C946 C944 1.378 . S
C946 C947 1.367 . S
C947 C946 1.367 . S
C947 C949 1.433 . S
C948 C944 1.328 1_556 S
C948 C945 1.476 . S
C948 N952 1.438 . S
C949 H939 0.929 1_554 S
C949 C947 1.433 . S
C949 N952 1.384 1_554 S
C950 H941 0.929 . S
C950 C942 1.378 . S
C950 C945 1.350 . S
C951 H938 0.929 . S
C951 C943 1.433 . S
C951 N953 1.384 . S
N952 C948 1.438 . S
N952 C949 1.384 1_556 S
N953 C945 1.427 . S
N953 C951 1.384 . S
H954 C960 0.930 . S
H955 C964 0.930 . S
H956 C969 0.929 . S
H957 C967 0.929 . S
H958 C962 0.929 . S
H959 C968 0.929 . S
C960 H954 0.930 . S
C960 C961 1.367 . S
C960 C968 1.378 . S
C961 C960 1.367 . S
C961 C969 1.433 . S
C962 H958 0.929 . S
C962 C964 1.378 . S
C962 C966 1.350 . S
C963 C966 1.463 . S
C963 C968 1.350 . S
C963 N971 1.427 . S
C964 H955 0.930 . S
C964 C962 1.378 . S
C964 C965 1.394 . S
C965 C964 1.394 . S
C965 C967 1.442 1_655 S
C966 C962 1.350 . S
C966 C963 1.463 . S
C966 N970 1.427 . S
C967 H957 0.929 . S
C967 C965 1.442 1_455 S
C967 N970 1.384 1_455 S
C968 H959 0.929 . S
C968 C960 1.378 . S
C968 C963 1.350 . S
C969 H956 0.929 . S
C969 C961 1.433 . S
C969 N971 1.384 . S
N970 C966 1.427 . S
N970 C967 1.384 1_655 S
N971 C963 1.427 . S
N971 C969 1.384 . S
H972 C978 0.930 . S
H973 C982 0.930 . S
H974 C987 0.929 . S
H975 C985 0.929 . S
H976 C980 0.929 . S
H977 C986 0.929 . S
C978 H972 0.930 . S
C978 C979 1.367 . S
C978 C986 1.378 . S
C979 C978 1.367 . S
C979 C987 1.433 . S
C980 H976 0.929 . S
C980 C982 1.378 . S
C980 C984 1.350 . S
C981 C984 1.463 . S
C981 C986 1.350 . S
C981 N989 1.427 . S
C982 H973 0.930 . S
C982 C980 1.378 . S
C982 C983 1.367 . S
C983 C982 1.367 . S
C983 C985 1.433 . S
C984 C980 1.350 . S
C984 C981 1.463 . S
C984 N988 1.427 . S
C985 H975 0.929 . S
C985 C983 1.433 . S
C985 N988 1.384 . S
C986 H977 0.929 . S
C986 C978 1.378 . S
C986 C981 1.350 . S
C987 H974 0.929 . S
C987 C979 1.433 . S
C987 N989 1.384 . S
N988 C984 1.427 . S
N988 C985 1.384 . S
N989 C981 1.427 . S
N989 C987 1.384 . S
H990 C996 0.930 . S
H991 C1000 0.930 . S
H992 C1005 0.929 . S
H993 C1003 0.929 . S
H994 C998 0.929 . S
H995 C1004 0.929 . S
C996 H990 0.930 . S
C996 C997 1.363 1_565 S
C996 C1004 1.378 1_565 S
C997 C996 1.363 1_545 S
C997 C1005 1.442 . S
C998 H994 0.929 . S
C998 C1000 1.378 . S
C998 C1002 1.350 . S
C999 C1002 1.463 . S
C999 C1004 1.350 . S
C999 N1007 1.427 . S
C1000 H991 0.930 . S
C1000 C998 1.378 . S
C1000 C1001 1.367 . S
C1001 C1000 1.367 . S
C1001 C1003 1.433 . S
C1002 C998 1.350 . S
C1002 C999 1.463 . S
C1002 N1006 1.427 . S
C1003 H993 0.929 . S
C1003 C1001 1.433 . S
C1003 N1006 1.384 . S
C1004 H995 0.929 . S
C1004 C996 1.378 1_545 S
C1004 C999 1.350 . S
C1005 H992 0.929 . S
C1005 C997 1.442 . S
C1005 N1007 1.384 . S
N1006 C1002 1.427 . S
N1006 C1003 1.384 . S
N1007 C999 1.427 . S
N1007 C1005 1.384 . S
H1008 C1014 0.930 . S
H1009 C1018 0.930 . S
H1010 C1023 0.929 . S
H1011 C1021 0.929 . S
H1012 C1016 0.929 . S
H1013 C1022 0.929 . S
C1014 H1008 0.930 . S
C1014 C1015 1.367 . S
C1014 C1022 1.378 . S
C1015 C1014 1.367 . S
C1015 C1023 1.433 . S
C1016 H1012 0.929 . S
C1016 C1018 1.378 . S
C1016 C1020 1.350 . S
C1017 C1020 1.463 . S
C1017 C1022 1.350 . S
C1017 N1025 1.427 . S
C1018 H1009 0.930 . S
C1018 C1016 1.378 . S
C1018 C1019 1.367 . S
C1019 C1018 1.367 . S
C1019 C1021 1.433 . S
C1020 C1016 1.350 . S
C1020 C1017 1.463 . S
C1020 N1024 1.427 . S
C1021 H1011 0.929 . S
C1021 C1019 1.433 . S
C1021 N1024 1.384 . S
C1022 H1013 0.929 . S
C1022 C1014 1.378 . S
C1022 C1017 1.350 . S
C1023 H1010 0.929 . S
C1023 C1015 1.433 . S
C1023 N1025 1.384 . S
N1024 C1020 1.427 . S
N1024 C1021 1.384 . S
N1025 C1017 1.427 . S
N1025 C1023 1.384 . S
H1026 C1032 0.930 . S
H1027 C1036 0.930 . S
H1028 C1041 0.929 . S
H1029 C1039 0.929 . S
H1030 C1034 0.929 . S
H1031 C1040 0.929 . S
C1032 H1026 0.930 . S
C1032 C1033 1.367 . S
C1032 C1040 1.378 . S
C1033 C1032 1.367 . S
C1033 C1041 1.433 . S
C1034 H1030 0.929 . S
C1034 C1036 1.378 . S
C1034 C1038 1.350 . S
C1035 C1038 1.463 . S
C1035 C1040 1.350 . S
C1035 N1043 1.427 . S
C1036 H1027 0.930 . S
C1036 C1034 1.378 . S
C1036 C1037 1.367 . S
C1037 C1036 1.367 . S
C1037 C1039 1.433 . S
C1038 C1034 1.350 . S
C1038 C1035 1.463 . S
C1038 N1042 1.427 . S
C1039 H1029 0.929 . S
C1039 C1037 1.433 . S
C1039 N1042 1.384 . S
C1040 H1031 0.929 . S
C1040 C1032 1.378 . S
C1040 C1035 1.350 . S
C1041 H1028 0.929 . S
C1041 C1033 1.433 . S
C1041 N1043 1.384 . S
N1042 C1038 1.427 . S
N1042 C1039 1.384 . S
N1043 C1035 1.427 . S
N1043 C1041 1.384 . S
H1044 C1050 0.930 . S
H1045 C1054 0.930 . S
H1046 C1059 0.929 . S
H1047 C1057 0.929 . S
H1048 C1052 0.929 . S
H1049 C1058 0.929 . S
C1050 H1044 0.930 . S
C1050 C1051 1.367 . S
C1050 C1058 1.378 . S
C1051 C1050 1.367 . S
C1051 C1059 1.433 . S
C1052 H1048 0.929 . S
C1052 C1054 1.378 . S
C1052 C1056 1.350 . S
C1053 C1056 1.463 . S
C1053 C1058 1.350 . S
C1053 N1061 1.427 . S
C1054 H1045 0.930 . S
C1054 C1052 1.378 . S
C1054 C1055 1.367 . S
C1055 C1054 1.367 . S
C1055 C1057 1.433 . S
C1056 C1052 1.350 . S
C1056 C1053 1.463 . S
C1056 N1060 1.427 . S
C1057 H1047 0.929 . S
C1057 C1055 1.433 . S
C1057 N1060 1.384 . S
C1058 H1049 0.929 . S
C1058 C1050 1.378 . S
C1058 C1053 1.350 . S
C1059 H1046 0.929 . S
C1059 C1051 1.433 . S
C1059 N1061 1.384 . S
N1060 C1056 1.427 . S
N1060 C1057 1.384 . S
N1061 C1053 1.427 . S
N1061 C1059 1.384 . S
H1062 C1068 0.930 . S
H1063 C1072 0.930 . S
H1064 C1077 0.929 . S
H1065 C1075 0.929 . S
H1066 C1070 0.929 . S
H1067 C1076 0.929 . S
C1068 H1062 0.930 . S
C1068 C1069 1.367 . S
C1068 C1076 1.378 . S
C1069 C1068 1.367 . S
C1069 C1077 1.433 . S
C1070 H1066 0.929 . S
C1070 C1072 1.378 . S
C1070 C1074 1.350 . S
C1071 C1074 1.463 . S
C1071 C1076 1.350 . S
C1071 N1079 1.427 . S
C1072 H1063 0.930 . S
C1072 C1070 1.378 . S
C1072 C1073 1.367 . S
C1073 C1072 1.367 . S
C1073 C1075 1.433 . S
C1074 C1070 1.350 . S
C1074 C1071 1.463 . S
C1074 N1078 1.427 . S
C1075 H1065 0.929 . S
C1075 C1073 1.433 . S
C1075 N1078 1.384 . S
C1076 H1067 0.929 . S
C1076 C1068 1.378 . S
C1076 C1071 1.350 . S
C1077 H1064 0.929 . S
C1077 C1069 1.433 . S
C1077 N1079 1.384 . S
N1078 C1074 1.427 . S
N1078 C1075 1.384 . S
N1079 C1071 1.427 . S
N1079 C1077 1.384 . S
H1080 C1086 0.930 . S
H1081 C1090 0.930 . S
H1082 C1095 0.929 . S
H1083 C1093 0.929 . S
H1084 C1088 0.929 . S
H1085 C1094 0.929 . S
C1086 H1080 0.930 . S
C1086 C1087 1.367 . S
C1086 C1094 1.378 . S
C1087 C1086 1.367 . S
C1087 C1095 1.433 . S
C1088 H1084 0.929 . S
C1088 C1090 1.378 . S
C1088 C1092 1.350 . S
C1089 C1092 1.463 . S
C1089 C1094 1.350 . S
C1089 N1097 1.427 . S
C1090 H1081 0.930 . S
C1090 C1088 1.378 . S
C1090 C1091 1.367 . S
C1091 C1090 1.367 . S
C1091 C1093 1.433 . S
C1092 C1088 1.350 . S
C1092 C1089 1.463 . S
C1092 N1096 1.427 . S
C1093 H1083 0.929 . S
C1093 C1091 1.433 . S
C1093 N1096 1.384 . S
C1094 H1085 0.929 . S
C1094 C1086 1.378 . S
C1094 C1089 1.350 . S
C1095 H1082 0.929 . S
C1095 C1087 1.433 . S
C1095 N1097 1.384 . S
N1096 C1092 1.427 . S
N1096 C1093 1.384 . S
N1097 C1089 1.427 . S
N1097 C1095 1.384 . S
H1098 C1104 0.930 . S
H1099 C1108 0.930 . S
H1100 C1113 0.929 . S
H1101 C1111 0.929 . S
H1102 C1106 0.929 . S
H1103 C1112 0.929 . S
C1104 H1098 0.930 . S
C1104 C1105 1.367 . S
C1104 C1112 1.378 . S
C1105 C1104 1.367 . S
C1105 C1113 1.433 . S
C1106 H1102 0.929 . S
C1106 C1108 1.378 . S
C1106 C1110 1.350 . S
C1107 C1110 1.463 . S
C1107 C1112 1.350 . S
C1107 N1115 1.427 . S
C1108 H1099 0.930 . S
C1108 C1106 1.378 . S
C1108 C1109 1.367 . S
C1109 C1108 1.367 . S
C1109 C1111 1.433 . S
C1110 C1106 1.350 . S
C1110 C1107 1.463 . S
C1110 N1114 1.427 . S
C1111 H1101 0.929 . S
C1111 C1109 1.433 . S
C1111 N1114 1.384 . S
C1112 H1103 0.929 . S
C1112 C1104 1.378 . S
C1112 C1107 1.350 . S
C1113 H1100 0.929 . S
C1113 C1105 1.433 . S
C1113 N1115 1.384 . S
N1114 C1110 1.427 . S
N1114 C1111 1.384 . S
N1115 C1107 1.427 . S
N1115 C1113 1.384 . S
H1116 C1122 0.930 . S
H1117 C1126 0.930 . S
H1118 C1131 0.929 . S
H1119 C1129 0.929 . S
H1120 C1124 0.929 . S
H1121 C1130 0.929 . S
C1122 H1116 0.930 . S
C1122 C1123 1.367 . S
C1122 C1130 1.378 . S
C1123 C1122 1.367 . S
C1123 C1131 1.433 . S
C1124 H1120 0.929 . S
C1124 C1126 1.378 . S
C1124 C1128 1.350 . S
C1125 C1128 1.463 . S
C1125 C1130 1.350 . S
C1125 N1133 1.427 . S
C1126 H1117 0.930 . S
C1126 C1124 1.378 . S
C1126 C1127 1.367 . S
C1127 C1126 1.367 . S
C1127 C1129 1.433 . S
C1128 C1124 1.350 . S
C1128 C1125 1.463 . S
C1128 N1132 1.427 . S
C1129 H1119 0.929 . S
C1129 C1127 1.433 . S
C1129 N1132 1.384 . S
C1130 H1121 0.929 . S
C1130 C1122 1.378 . S
C1130 C1125 1.350 . S
C1131 H1118 0.929 . S
C1131 C1123 1.433 . S
C1131 N1133 1.384 . S
N1132 C1128 1.427 . S
N1132 C1129 1.384 . S
N1133 C1125 1.427 . S
N1133 C1131 1.384 . S
H1134 C1140 0.930 . S
H1135 C1144 0.930 . S
H1136 C1149 0.929 . S
H1137 C1147 0.929 . S
H1138 C1142 0.929 . S
H1139 C1148 0.929 . S
C1140 H1134 0.930 . S
C1140 C1141 1.367 . S
C1140 C1148 1.378 . S
C1141 C1140 1.367 . S
C1141 C1149 1.433 . S
C1142 H1138 0.929 . S
C1142 C1144 1.378 . S
C1142 C1146 1.350 . S
C1143 C1146 1.463 . S
C1143 C1148 1.350 . S
C1143 N1151 1.427 . S
C1144 H1135 0.930 . S
C1144 C1142 1.378 . S
C1144 C1145 1.367 . S
C1145 C1144 1.367 . S
C1145 C1147 1.433 . S
C1146 C1142 1.350 . S
C1146 C1143 1.463 . S
C1146 N1150 1.427 . S
C1147 H1137 0.929 . S
C1147 C1145 1.433 . S
C1147 N1150 1.384 . S
C1148 H1139 0.929 . S
C1148 C1140 1.378 . S
C1148 C1143 1.350 . S
C1149 H1136 0.929 . S
C1149 C1141 1.433 . S
C1149 N1151 1.384 . S
N1150 C1146 1.427 . S
N1150 C1147 1.384 . S
N1151 C1143 1.427 . S
N1151 C1149 1.384 . S
H1152 C1158 0.930 . S
H1153 C1162 0.930 . S
H1154 C1167 0.929 . S
H1155 C1165 0.929 . S
H1156 C1160 0.929 . S
H1157 C1166 0.929 . S
C1158 H1152 0.930 . S
C1158 C1159 1.367 . S
C1158 C1166 1.378 . S
C1159 C1158 1.367 . S
C1159 C1167 1.433 . S
C1160 H1156 0.929 . S
C1160 C1162 1.378 . S
C1160 C1164 1.350 . S
C1161 C1164 1.463 . S
C1161 C1166 1.350 . S
C1161 N1169 1.427 . S
C1162 H1153 0.930 . S
C1162 C1160 1.378 . S
C1162 C1163 1.367 . S
C1163 C1162 1.367 . S
C1163 C1165 1.433 . S
C1164 C1160 1.350 . S
C1164 C1161 1.463 . S
C1164 N1168 1.427 . S
C1165 H1155 0.929 . S
C1165 C1163 1.433 . S
C1165 N1168 1.384 . S
C1166 H1157 0.929 . S
C1166 C1158 1.378 . S
C1166 C1161 1.350 . S
C1167 H1154 0.929 . S
C1167 C1159 1.433 . S
C1167 N1169 1.384 . S
N1168 C1164 1.427 . S
N1168 C1165 1.384 . S
N1169 C1161 1.427 . S
N1169 C1167 1.384 . S
H1170 C1176 0.930 . S
H1171 C1180 0.930 . S
H1172 C1185 0.929 . S
H1173 C1183 0.929 . S
H1174 C1178 0.929 . S
H1175 C1184 0.929 . S
C1176 H1170 0.930 . S
C1176 C1177 1.367 . S
C1176 C1184 1.378 . S
C1177 C1176 1.367 . S
C1177 C1185 1.433 . S
C1178 H1174 0.929 . S
C1178 C1180 1.378 . S
C1178 C1182 1.350 . S
C1179 C1182 1.463 . S
C1179 C1184 1.350 . S
C1179 N1187 1.427 . S
C1180 H1171 0.930 . S
C1180 C1178 1.378 . S
C1180 C1181 1.367 . S
C1181 C1180 1.367 . S
C1181 C1183 1.433 . S
C1182 C1178 1.350 . S
C1182 C1179 1.463 . S
C1182 N1186 1.427 . S
C1183 H1173 0.929 . S
C1183 C1181 1.433 . S
C1183 N1186 1.384 . S
C1184 H1175 0.929 . S
C1184 C1176 1.378 . S
C1184 C1179 1.350 . S
C1185 H1172 0.929 . S
C1185 C1177 1.433 . S
C1185 N1187 1.384 . S
N1186 C1182 1.427 . S
N1186 C1183 1.384 . S
N1187 C1179 1.427 . S
N1187 C1185 1.384 . S
H1188 C1194 0.930 . S
H1189 C1198 0.930 . S
H1190 C1203 0.929 . S
H1191 C1201 0.929 . S
H1192 C1196 0.929 . S
H1193 C1202 0.929 . S
C1194 H1188 0.930 . S
C1194 C1195 1.367 . S
C1194 C1202 1.378 . S
C1195 C1194 1.367 . S
C1195 C1203 1.433 . S
C1196 H1192 0.929 . S
C1196 C1198 1.378 . S
C1196 C1200 1.350 . S
C1197 C1200 1.463 . S
C1197 C1202 1.350 . S
C1197 N1205 1.427 . S
C1198 H1189 0.930 . S
C1198 C1196 1.378 . S
C1198 C1199 1.367 . S
C1199 C1198 1.367 . S
C1199 C1201 1.433 . S
C1200 C1196 1.350 . S
C1200 C1197 1.463 . S
C1200 N1204 1.427 . S
C1201 H1191 0.929 . S
C1201 C1199 1.433 . S
C1201 N1204 1.384 . S
C1202 H1193 0.929 . S
C1202 C1194 1.378 . S
C1202 C1197 1.350 . S
C1203 H1190 0.929 . S
C1203 C1195 1.433 . S
C1203 N1205 1.384 . S
N1204 C1200 1.427 . S
N1204 C1201 1.384 . S
N1205 C1197 1.427 . S
N1205 C1203 1.384 . S
H1206 C1212 0.930 . S
H1207 C1216 0.930 . S
H1208 C1221 0.929 . S
H1209 C1219 0.929 . S
H1210 C1214 0.929 . S
H1211 C1220 0.929 . S
C1212 H1206 0.930 . S
C1212 C1213 1.367 . S
C1212 C1220 1.378 . S
C1213 C1212 1.367 . S
C1213 C1221 1.433 . S
C1214 H1210 0.929 . S
C1214 C1216 1.378 . S
C1214 C1218 1.350 . S
C1215 C1218 1.463 . S
C1215 C1220 1.350 . S
C1215 N1223 1.427 . S
C1216 H1207 0.930 . S
C1216 C1214 1.378 . S
C1216 C1217 1.367 . S
C1217 C1216 1.367 . S
C1217 C1219 1.433 . S
C1218 C1214 1.350 . S
C1218 C1215 1.463 . S
C1218 N1222 1.427 . S
C1219 H1209 0.929 . S
C1219 C1217 1.433 . S
C1219 N1222 1.384 . S
C1220 H1211 0.929 . S
C1220 C1212 1.378 . S
C1220 C1215 1.350 . S
C1221 H1208 0.929 . S
C1221 C1213 1.433 . S
C1221 N1223 1.384 . S
N1222 C1218 1.427 . S
N1222 C1219 1.384 . S
N1223 C1215 1.427 . S
N1223 C1221 1.384 . S
H1224 C1230 0.930 . S
H1225 C1234 0.930 . S
H1226 C1239 0.929 . S
H1227 C1237 0.929 . S
H1228 C1232 0.929 . S
H1229 C1238 0.929 . S
C1230 H1224 0.930 . S
C1230 C1231 1.367 . S
C1230 C1238 1.378 . S
C1231 C1230 1.367 . S
C1231 C1239 1.433 . S
C1232 H1228 0.929 . S
C1232 C1234 1.378 . S
C1232 C1236 1.350 . S
C1233 C1236 1.463 . S
C1233 C1238 1.350 . S
C1233 N1241 1.427 . S
C1234 H1225 0.930 . S
C1234 C1232 1.378 . S
C1234 C1235 1.367 . S
C1235 C1234 1.367 . S
C1235 C1237 1.433 . S
C1236 C1232 1.350 . S
C1236 C1233 1.463 . S
C1236 N1240 1.427 . S
C1237 H1227 0.929 . S
C1237 C1235 1.433 . S
C1237 N1240 1.384 . S
C1238 H1229 0.929 . S
C1238 C1230 1.378 . S
C1238 C1233 1.350 . S
C1239 H1226 0.929 . S
C1239 C1231 1.433 . S
C1239 N1241 1.384 . S
N1240 C1236 1.427 . S
N1240 C1237 1.384 . S
N1241 C1233 1.427 . S
N1241 C1239 1.384 . S
H1242 C1248 0.930 . S
H1243 C1252 0.930 . S
H1244 C1257 0.929 . S
H1245 C1255 0.929 . S
H1246 C1250 0.929 . S
H1247 C1256 0.929 . S
C1248 H1242 0.930 . S
C1248 C1249 1.367 . S
C1248 C1256 1.378 . S
C1249 C1248 1.367 . S
C1249 C1257 1.433 . S
C1250 H1246 0.929 . S
C1250 C1252 1.378 . S
C1250 C1254 1.350 . S
C1251 C1254 1.463 . S
C1251 C1256 1.350 . S
C1251 N1259 1.427 . S
C1252 H1243 0.930 . S
C1252 C1250 1.378 . S
C1252 C1253 1.367 . S
C1253 C1252 1.367 . S
C1253 C1255 1.433 . S
C1254 C1250 1.350 . S
C1254 C1251 1.463 . S
C1254 N1258 1.427 . S
C1255 H1245 0.929 . S
C1255 C1253 1.433 . S
C1255 N1258 1.384 . S
C1256 H1247 0.929 . S
C1256 C1248 1.378 . S
C1256 C1251 1.350 . S
C1257 H1244 0.929 . S
C1257 C1249 1.433 . S
C1257 N1259 1.384 . S
N1258 C1254 1.427 . S
N1258 C1255 1.384 . S
N1259 C1251 1.427 . S
N1259 C1257 1.384 . S
H1260 C1266 0.930 . S
H1261 C1270 0.930 . S
H1262 C1275 0.929 . S
H1263 C1273 0.929 . S
H1264 C1268 0.929 . S
H1265 C1274 0.929 . S
C1266 H1260 0.930 . S
C1266 C1267 1.367 . S
C1266 C1274 1.378 . S
C1267 C1266 1.367 . S
C1267 C1275 1.433 . S
C1268 H1264 0.929 . S
C1268 C1270 1.378 . S
C1268 C1272 1.350 . S
C1269 C1272 1.463 . S
C1269 C1274 1.350 . S
C1269 N1277 1.427 . S
C1270 H1261 0.930 . S
C1270 C1268 1.378 . S
C1270 C1271 1.367 . S
C1271 C1270 1.367 . S
C1271 C1273 1.433 . S
C1272 C1268 1.350 . S
C1272 C1269 1.463 . S
C1272 N1276 1.427 . S
C1273 H1263 0.929 . S
C1273 C1271 1.433 . S
C1273 N1276 1.384 . S
C1274 H1265 0.929 . S
C1274 C1266 1.378 . S
C1274 C1269 1.350 . S
C1275 H1262 0.929 . S
C1275 C1267 1.433 . S
C1275 N1277 1.384 . S
N1276 C1272 1.427 . S
N1276 C1273 1.384 . S
N1277 C1269 1.427 . S
N1277 C1275 1.384 . S
H1278 C1284 0.930 . S
H1279 C1288 0.930 . S
H1280 C1293 0.929 . S
H1281 C1291 0.929 . S
H1282 C1286 0.929 . S
H1283 C1292 0.929 . S
C1284 H1278 0.930 . S
C1284 C1285 1.367 . S
C1284 C1292 1.378 . S
C1285 C1284 1.367 . S
C1285 C1293 1.433 . S
C1286 H1282 0.929 . S
C1286 C1288 1.378 . S
C1286 C1290 1.350 . S
C1287 C1290 1.463 . S
C1287 C1292 1.350 . S
C1287 N1295 1.427 . S
C1288 H1279 0.930 . S
C1288 C1286 1.378 . S
C1288 C1289 1.367 . S
C1289 C1288 1.367 . S
C1289 C1291 1.433 . S
C1290 C1286 1.350 . S
C1290 C1287 1.463 . S
C1290 N1294 1.427 . S
C1291 H1281 0.929 . S
C1291 C1289 1.433 . S
C1291 N1294 1.384 . S
C1292 H1283 0.929 . S
C1292 C1284 1.378 . S
C1292 C1287 1.350 . S
C1293 H1280 0.929 . S
C1293 C1285 1.433 . S
C1293 N1295 1.384 . S
N1294 C1290 1.427 . S
N1294 C1291 1.384 . S
N1295 C1287 1.427 . S
N1295 C1293 1.384 . S
H1296 C1302 0.930 . S
H1297 C1306 0.930 . S
H1298 C1311 0.929 . S
H1299 C1309 0.929 . S
H1300 C1304 0.929 . S
H1301 C1310 0.929 . S
C1302 H1296 0.930 . S
C1302 C1303 1.367 . S
C1302 C1310 1.378 . S
C1303 C1302 1.367 . S
C1303 C1311 1.433 . S
C1304 H1300 0.929 . S
C1304 C1306 1.378 . S
C1304 C1308 1.350 . S
C1305 C1308 1.463 . S
C1305 C1310 1.350 . S
C1305 N1313 1.427 . S
C1306 H1297 0.930 . S
C1306 C1304 1.378 . S
C1306 C1307 1.367 . S
C1307 C1306 1.367 . S
C1307 C1309 1.433 . S
C1308 C1304 1.350 . S
C1308 C1305 1.463 . S
C1308 N1312 1.427 . S
C1309 H1299 0.929 . S
C1309 C1307 1.433 . S
C1309 N1312 1.384 . S
C1310 H1301 0.929 . S
C1310 C1302 1.378 . S
C1310 C1305 1.350 . S
C1311 H1298 0.929 . S
C1311 C1303 1.433 . S
C1311 N1313 1.384 . S
N1312 C1308 1.427 . S
N1312 C1309 1.384 . S
N1313 C1305 1.427 . S
N1313 C1311 1.384 . S
H1314 C1320 0.930 . S
H1315 C1324 0.930 . S
H1316 C1329 0.929 . S
H1317 C1327 0.929 . S
H1318 C1322 0.929 . S
H1319 C1328 0.929 . S
C1320 H1314 0.930 . S
C1320 C1321 1.367 . S
C1320 C1328 1.378 . S
C1321 C1320 1.367 . S
C1321 C1329 1.433 . S
C1322 H1318 0.929 . S
C1322 C1324 1.378 . S
C1322 C1326 1.350 . S
C1323 C1326 1.463 . S
C1323 C1328 1.350 . S
C1323 N1331 1.427 . S
C1324 H1315 0.930 . S
C1324 C1322 1.378 . S
C1324 C1325 1.367 . S
C1325 C1324 1.367 . S
C1325 C1327 1.433 . S
C1326 C1322 1.350 . S
C1326 C1323 1.463 . S
C1326 N1330 1.427 . S
C1327 H1317 0.929 . S
C1327 C1325 1.433 . S
C1327 N1330 1.384 . S
C1328 H1319 0.929 . S
C1328 C1320 1.378 . S
C1328 C1323 1.350 . S
C1329 H1316 0.929 . S
C1329 C1321 1.433 . S
C1329 N1331 1.384 . S
N1330 C1326 1.427 . S
N1330 C1327 1.384 . S
N1331 C1323 1.427 . S
N1331 C1329 1.384 . S
H1332 C1338 0.930 . S
H1333 C1342 0.930 . S
H1334 C1347 0.929 . S
H1335 C1345 0.929 . S
H1336 C1340 0.929 . S
H1337 C1346 0.929 . S
C1338 H1332 0.930 . S
C1338 C1339 1.367 . S
C1338 C1346 1.378 . S
C1339 C1338 1.367 . S
C1339 C1347 1.433 . S
C1340 H1336 0.929 . S
C1340 C1342 1.378 . S
C1340 C1344 1.350 . S
C1341 C1344 1.463 . S
C1341 C1346 1.350 . S
C1341 N1349 1.427 . S
C1342 H1333 0.930 . S
C1342 C1340 1.378 . S
C1342 C1343 1.367 . S
C1343 C1342 1.367 . S
C1343 C1345 1.433 . S
C1344 C1340 1.350 . S
C1344 C1341 1.463 . S
C1344 N1348 1.427 . S
C1345 H1335 0.929 . S
C1345 C1343 1.433 . S
C1345 N1348 1.384 . S
C1346 H1337 0.929 . S
C1346 C1338 1.378 . S
C1346 C1341 1.350 . S
C1347 H1334 0.929 . S
C1347 C1339 1.433 . S
C1347 N1349 1.384 . S
N1348 C1344 1.427 . S
N1348 C1345 1.384 . S
N1349 C1341 1.427 . S
N1349 C1347 1.384 . S
H1350 C1356 0.930 . S
H1351 C1360 0.930 . S
H1352 C1365 0.929 . S
H1353 C1363 0.929 . S
H1354 C1358 0.929 . S
H1355 C1364 0.929 . S
C1356 H1350 0.930 . S
C1356 C1357 1.367 . S
C1356 C1364 1.378 . S
C1357 C1356 1.367 . S
C1357 C1365 1.433 . S
C1358 H1354 0.929 . S
C1358 C1360 1.378 . S
C1358 C1362 1.350 . S
C1359 C1362 1.463 . S
C1359 C1364 1.350 . S
C1359 N1367 1.427 . S
C1360 H1351 0.930 . S
C1360 C1358 1.378 . S
C1360 C1361 1.367 . S
C1361 C1360 1.367 . S
C1361 C1363 1.433 . S
C1362 C1358 1.350 . S
C1362 C1359 1.463 . S
C1362 N1366 1.427 . S
C1363 H1353 0.929 . S
C1363 C1361 1.433 . S
C1363 N1366 1.384 . S
C1364 H1355 0.929 . S
C1364 C1356 1.378 . S
C1364 C1359 1.350 . S
C1365 H1352 0.929 . S
C1365 C1357 1.433 . S
C1365 N1367 1.384 . S
N1366 C1362 1.427 . S
N1366 C1363 1.384 . S
N1367 C1359 1.427 . S
N1367 C1365 1.384 . S
H1368 C1374 0.930 . S
H1369 C1378 0.930 . S
H1370 C1383 0.929 . S
H1371 C1381 0.929 . S
H1372 C1376 0.929 . S
H1373 C1382 0.929 . S
C1374 H1368 0.930 . S
C1374 C1375 1.367 . S
C1374 C1382 1.378 . S
C1375 C1374 1.367 . S
C1375 C1383 1.433 . S
C1376 H1372 0.929 . S
C1376 C1378 1.378 . S
C1376 C1380 1.350 . S
C1377 C1380 1.463 . S
C1377 C1382 1.350 . S
C1377 N1385 1.427 . S
C1378 H1369 0.930 . S
C1378 C1376 1.378 . S
C1378 C1379 1.367 . S
C1379 C1378 1.367 . S
C1379 C1381 1.433 . S
C1380 C1376 1.350 . S
C1380 C1377 1.463 . S
C1380 N1384 1.427 . S
C1381 H1371 0.929 . S
C1381 C1379 1.433 . S
C1381 N1384 1.384 . S
C1382 H1373 0.929 . S
C1382 C1374 1.378 . S
C1382 C1377 1.350 . S
C1383 H1370 0.929 . S
C1383 C1375 1.433 . S
C1383 N1385 1.384 . S
N1384 C1380 1.427 . S
N1384 C1381 1.384 . S
N1385 C1377 1.427 . S
N1385 C1383 1.384 . S
H1386 C1392 0.930 . S
H1387 C1396 0.930 . S
H1388 C1401 0.929 . S
H1389 C1399 0.929 . S
H1390 C1394 0.929 . S
H1391 C1400 0.929 . S
C1392 H1386 0.930 . S
C1392 C1393 1.367 . S
C1392 C1400 1.378 . S
C1393 C1392 1.367 . S
C1393 C1401 1.433 . S
C1394 H1390 0.929 . S
C1394 C1396 1.378 . S
C1394 C1398 1.350 . S
C1395 C1398 1.463 . S
C1395 C1400 1.350 . S
C1395 N1403 1.427 . S
C1396 H1387 0.930 . S
C1396 C1394 1.378 . S
C1396 C1397 1.367 . S
C1397 C1396 1.367 . S
C1397 C1399 1.433 . S
C1398 C1394 1.350 . S
C1398 C1395 1.463 . S
C1398 N1402 1.427 . S
C1399 H1389 0.929 . S
C1399 C1397 1.433 . S
C1399 N1402 1.384 . S
C1400 H1391 0.929 . S
C1400 C1392 1.378 . S
C1400 C1395 1.350 . S
C1401 H1388 0.929 . S
C1401 C1393 1.433 . S
C1401 N1403 1.384 . S
N1402 C1398 1.427 . S
N1402 C1399 1.384 . S
N1403 C1395 1.427 . S
N1403 C1401 1.384 . S
H1404 C1410 0.930 . S
H1405 C1414 0.930 . S
H1406 C1419 0.929 . S
H1407 C1417 0.929 . S
H1408 C1412 0.929 . S
H1409 C1418 0.929 . S
C1410 H1404 0.930 . S
C1410 C1411 1.367 . S
C1410 C1418 1.378 . S
C1411 C1410 1.367 . S
C1411 C1419 1.433 . S
C1412 H1408 0.929 . S
C1412 C1414 1.378 . S
C1412 C1416 1.350 . S
C1413 C1416 1.463 . S
C1413 C1418 1.350 . S
C1413 N1421 1.427 . S
C1414 H1405 0.930 . S
C1414 C1412 1.378 . S
C1414 C1415 1.367 . S
C1415 C1414 1.367 . S
C1415 C1417 1.433 . S
C1416 C1412 1.350 . S
C1416 C1413 1.463 . S
C1416 N1420 1.427 . S
C1417 H1407 0.929 . S
C1417 C1415 1.433 . S
C1417 N1420 1.384 . S
C1418 H1409 0.929 . S
C1418 C1410 1.378 . S
C1418 C1413 1.350 . S
C1419 H1406 0.929 . S
C1419 C1411 1.433 . S
C1419 N1421 1.384 . S
N1420 C1416 1.427 . S
N1420 C1417 1.384 . S
N1421 C1413 1.427 . S
N1421 C1419 1.384 . S
H1422 C1428 0.930 . S
H1423 C1432 0.930 . S
H1424 C1437 0.929 . S
H1425 C1435 0.929 . S
H1426 C1430 0.929 . S
H1427 C1436 0.929 . S
C1428 H1422 0.930 . S
C1428 C1429 1.367 . S
C1428 C1436 1.378 . S
C1429 C1428 1.367 . S
C1429 C1437 1.433 . S
C1430 H1426 0.929 . S
C1430 C1432 1.378 . S
C1430 C1434 1.350 . S
C1431 C1434 1.463 . S
C1431 C1436 1.350 . S
C1431 N1439 1.427 . S
C1432 H1423 0.930 . S
C1432 C1430 1.378 . S
C1432 C1433 1.367 . S
C1433 C1432 1.367 . S
C1433 C1435 1.433 . S
C1434 C1430 1.350 . S
C1434 C1431 1.463 . S
C1434 N1438 1.427 . S
C1435 H1425 0.929 . S
C1435 C1433 1.433 . S
C1435 N1438 1.384 . S
C1436 H1427 0.929 . S
C1436 C1428 1.378 . S
C1436 C1431 1.350 . S
C1437 H1424 0.929 . S
C1437 C1429 1.433 . S
C1437 N1439 1.384 . S
N1438 C1434 1.427 . S
N1438 C1435 1.384 . S
N1439 C1431 1.427 . S
N1439 C1437 1.384 . S
H1440 C1446 0.930 . S
H1441 C1450 0.930 . S
H1442 C1455 0.929 . S
H1443 C1453 0.929 . S
H1444 C1448 0.929 . S
H1445 C1454 0.929 . S
C1446 H1440 0.930 . S
C1446 C1447 1.367 . S
C1446 C1454 1.378 . S
C1447 C1446 1.367 . S
C1447 C1455 1.433 . S
C1448 H1444 0.929 . S
C1448 C1450 1.378 . S
C1448 C1452 1.350 . S
C1449 C1452 1.463 . S
C1449 C1454 1.350 . S
C1449 N1457 1.427 . S
C1450 H1441 0.930 . S
C1450 C1448 1.378 . S
C1450 C1451 1.367 . S
C1451 C1450 1.367 . S
C1451 C1453 1.433 . S
C1452 C1448 1.350 . S
C1452 C1449 1.463 . S
C1452 N1456 1.427 . S
C1453 H1443 0.929 . S
C1453 C1451 1.433 . S
C1453 N1456 1.384 . S
C1454 H1445 0.929 . S
C1454 C1446 1.378 . S
C1454 C1449 1.350 . S
C1455 H1442 0.929 . S
C1455 C1447 1.433 . S
C1455 N1457 1.384 . S
N1456 C1452 1.427 . S
N1456 C1453 1.384 . S
N1457 C1449 1.427 . S
N1457 C1455 1.384 . S
H1458 C1464 0.930 . S
H1459 C1468 0.930 . S
H1460 C1473 0.929 . S
H1461 C1471 0.929 . S
H1462 C1466 0.929 . S
H1463 C1472 0.929 . S
C1464 H1458 0.930 . S
C1464 C1465 1.367 . S
C1464 C1472 1.378 . S
C1465 C1464 1.367 . S
C1465 C1473 1.433 . S
C1466 H1462 0.929 . S
C1466 C1468 1.378 . S
C1466 C1470 1.350 . S
C1467 C1470 1.463 . S
C1467 C1472 1.350 . S
C1467 N1475 1.427 . S
C1468 H1459 0.930 . S
C1468 C1466 1.378 . S
C1468 C1469 1.367 1_565 S
C1469 C1468 1.367 1_545 S
C1469 C1471 1.433 . S
C1470 C1466 1.350 . S
C1470 C1467 1.463 . S
C1470 N1474 1.427 1_565 S
C1471 H1461 0.929 . S
C1471 C1469 1.433 . S
C1471 N1474 1.384 . S
C1472 H1463 0.929 . S
C1472 C1464 1.378 . S
C1472 C1467 1.350 . S
C1473 H1460 0.929 . S
C1473 C1465 1.433 . S
C1473 N1475 1.384 . S
N1474 C1470 1.427 1_545 S
N1474 C1471 1.384 . S
N1475 C1467 1.427 . S
N1475 C1473 1.384 . S
H1476 C1482 0.930 . S
H1477 C1486 0.930 . S
H1478 C1491 0.929 . S
H1479 C1489 0.929 . S
H1480 C1484 0.929 . S
H1481 C1490 0.929 . S
C1482 H1476 0.930 . S
C1482 C1483 1.367 1_455 S
C1482 C1490 1.378 . S
C1483 C1482 1.367 1_655 S
C1483 C1491 1.433 . S
C1484 H1480 0.929 . S
C1484 C1486 1.378 . S
C1484 C1488 1.350 . S
C1485 C1488 1.463 . S
C1485 C1490 1.350 . S
C1485 N1493 1.427 1_455 S
C1486 H1477 0.930 . S
C1486 C1484 1.378 . S
C1486 C1487 1.367 . S
C1487 C1486 1.367 . S
C1487 C1489 1.433 . S
C1488 C1484 1.350 . S
C1488 C1485 1.463 . S
C1488 N1492 1.427 . S
C1489 H1479 0.929 . S
C1489 C1487 1.433 . S
C1489 N1492 1.384 . S
C1490 H1481 0.929 . S
C1490 C1482 1.378 . S
C1490 C1485 1.350 . S
C1491 H1478 0.929 . S
C1491 C1483 1.433 . S
C1491 N1493 1.384 . S
N1492 C1488 1.427 . S
N1492 C1489 1.384 . S
N1493 C1485 1.427 1_655 S
N1493 C1491 1.384 . S
H1494 C1500 0.930 . S
H1495 C1504 0.930 . S
H1496 C1509 0.929 . S
H1497 C1507 0.929 . S
H1498 C1502 0.929 . S
H1499 C1508 0.929 . S
C1500 H1494 0.930 . S
C1500 C1501 1.367 . S
C1500 C1508 1.378 . S
C1501 C1500 1.367 . S
C1501 C1509 1.433 . S
C1502 H1498 0.929 . S
C1502 C1504 1.378 . S
C1502 C1506 1.350 . S
C1503 C1506 1.463 . S
C1503 C1508 1.350 . S
C1503 N1511 1.427 . S
C1504 H1495 0.930 . S
C1504 C1502 1.378 . S
C1504 C1505 1.367 . S
C1505 C1504 1.367 . S
C1505 C1507 1.433 . S
C1506 C1502 1.350 . S
C1506 C1503 1.463 . S
C1506 N1510 1.427 . S
C1507 H1497 0.929 . S
C1507 C1505 1.433 . S
C1507 N1510 1.384 . S
C1508 H1499 0.929 . S
C1508 C1500 1.378 . S
C1508 C1503 1.350 . S
C1509 H1496 0.929 . S
C1509 C1501 1.433 . S
C1509 N1511 1.384 . S
N1510 C1506 1.427 . S
N1510 C1507 1.384 . S
N1511 C1503 1.427 . S
N1511 C1509 1.384 . S
H1512 C1518 0.930 . S
H1513 C1522 0.930 . S
H1514 C1527 0.929 . S
H1515 C1525 0.929 . S
H1516 C1520 0.929 . S
H1517 C1526 0.929 . S
C1518 H1512 0.930 . S
C1518 C1519 1.367 . S
C1518 C1526 1.378 . S
C1519 C1518 1.367 . S
C1519 C1527 1.433 . S
C1520 H1516 0.929 . S
C1520 C1522 1.378 1_545 S
C1520 C1524 1.350 . S
C1521 C1524 1.463 . S
C1521 C1526 1.350 . S
C1521 N1529 1.427 . S
C1522 H1513 0.930 . S
C1522 C1520 1.378 1_565 S
C1522 C1523 1.367 . S
C1523 C1522 1.367 . S
C1523 C1525 1.433 . S
C1524 C1520 1.350 . S
C1524 C1521 1.463 . S
C1524 N1528 1.427 . S
C1525 H1515 0.929 . S
C1525 C1523 1.433 . S
C1525 N1528 1.384 1_565 S
C1526 H1517 0.929 . S
C1526 C1518 1.378 . S
C1526 C1521 1.350 . S
C1527 H1514 0.929 . S
C1527 C1519 1.433 . S
C1527 N1529 1.384 . S
N1528 C1524 1.427 . S
N1528 C1525 1.384 1_545 S
N1529 C1521 1.427 . S
N1529 C1527 1.384 . S
H1530 C1536 0.930 . S
H1531 C1540 0.930 . S
H1532 C1545 0.929 . S
H1533 C1543 0.929 . S
H1534 C1538 0.929 . S
H1535 C1544 0.929 . S
C1536 H1530 0.930 . S
C1536 C1537 1.367 . S
C1536 C1544 1.378 1_455 S
C1537 C1536 1.367 . S
C1537 C1545 1.433 . S
C1538 H1534 0.929 . S
C1538 C1540 1.378 . S
C1538 C1542 1.350 . S
C1539 C1542 1.463 . S
C1539 C1544 1.350 . S
C1539 N1547 1.427 1_655 S
C1540 H1531 0.930 . S
C1540 C1538 1.378 . S
C1540 C1541 1.367 . S
C1541 C1540 1.367 . S
C1541 C1543 1.433 . S
C1542 C1538 1.350 . S
C1542 C1539 1.463 . S
C1542 N1546 1.427 . S
C1543 H1533 0.929 . S
C1543 C1541 1.433 . S
C1543 N1546 1.384 . S
C1544 H1535 0.929 . S
C1544 C1536 1.378 1_655 S
C1544 C1539 1.350 . S
C1545 H1532 0.929 . S
C1545 C1537 1.433 . S
C1545 N1547 1.384 . S
N1546 C1542 1.427 . S
N1546 C1543 1.384 . S
N1547 C1539 1.427 1_455 S
N1547 C1545 1.384 . S
H1548 C1554 0.930 . S
H1549 C1558 0.930 . S
H1550 C1563 0.929 . S
H1551 C1561 0.929 . S
H1552 C1556 0.929 . S
H1553 C1562 0.929 . S
C1554 H1548 0.930 . S
C1554 C1555 1.367 . S
C1554 C1562 1.378 . S
C1555 C1554 1.367 . S
C1555 C1563 1.433 . S
C1556 H1552 0.929 . S
C1556 C1558 1.378 . S
C1556 C1560 1.350 . S
C1557 C1560 1.463 . S
C1557 C1562 1.350 . S
C1557 N1565 1.427 . S
C1558 H1549 0.930 . S
C1558 C1556 1.378 . S
C1558 C1559 1.367 . S
C1559 C1558 1.367 . S
C1559 C1561 1.433 . S
C1560 C1556 1.350 . S
C1560 C1557 1.463 . S
C1560 N1564 1.427 . S
C1561 H1551 0.929 . S
C1561 C1559 1.433 . S
C1561 N1564 1.384 . S
C1562 H1553 0.929 . S
C1562 C1554 1.378 . S
C1562 C1557 1.350 . S
C1563 H1550 0.929 . S
C1563 C1555 1.433 . S
C1563 N1565 1.384 . S
N1564 C1560 1.427 . S
N1564 C1561 1.384 . S
N1565 C1557 1.427 . S
N1565 C1563 1.384 . S
H1566 C1572 0.930 . S
H1567 C1576 0.930 . S
H1568 C1581 0.929 . S
H1569 C1579 0.929 . S
H1570 C1574 0.929 . S
H1571 C1580 0.929 . S
C1572 H1566 0.930 . S
C1572 C1573 1.367 1_545 S
C1572 C1580 1.378 . S
C1573 C1572 1.367 1_565 S
C1573 C1581 1.433 . S
C1574 H1570 0.929 . S
C1574 C1576 1.378 . S
C1574 C1578 1.350 . S
C1575 C1578 1.463 . S
C1575 C1580 1.350 . S
C1575 N1583 1.427 1_545 S
C1576 H1567 0.930 . S
C1576 C1574 1.378 . S
C1576 C1577 1.367 . S
C1577 C1576 1.367 . S
C1577 C1579 1.433 . S
C1578 C1574 1.350 . S
C1578 C1575 1.463 . S
C1578 N1582 1.427 . S
C1579 H1569 0.929 . S
C1579 C1577 1.433 . S
C1579 N1582 1.384 . S
C1580 H1571 0.929 . S
C1580 C1572 1.378 . S
C1580 C1575 1.350 . S
C1581 H1568 0.929 . S
C1581 C1573 1.433 . S
C1581 N1583 1.384 . S
N1582 C1578 1.427 . S
N1582 C1579 1.384 . S
N1583 C1575 1.427 1_565 S
N1583 C1581 1.384 . S
H1584 C1590 0.930 . S
H1585 C1594 0.930 . S
H1586 C1599 0.929 . S
H1587 C1597 0.929 . S
H1588 C1592 0.929 . S
H1589 C1598 0.929 . S
C1590 H1584 0.930 . S
C1590 C1591 1.367 . S
C1590 C1598 1.378 1_455 S
C1591 C1590 1.367 . S
C1591 C1599 1.433 . S
C1592 H1588 0.929 . S
C1592 C1594 1.378 . S
C1592 C1596 1.350 . S
C1593 C1596 1.463 . S
C1593 C1598 1.350 . S
C1593 N1601 1.427 . S
C1594 H1585 0.930 . S
C1594 C1592 1.378 . S
C1594 C1595 1.367 . S
C1595 C1594 1.367 . S
C1595 C1597 1.433 . S
C1596 C1592 1.350 . S
C1596 C1593 1.463 . S
C1596 N1600 1.427 . S
C1597 H1587 0.929 . S
C1597 C1595 1.433 . S
C1597 N1600 1.384 . S
C1598 H1589 0.929 . S
C1598 C1590 1.378 1_655 S
C1598 C1593 1.350 . S
C1599 H1586 0.929 . S
C1599 C1591 1.433 . S
C1599 N1601 1.384 1_455 S
N1600 C1596 1.427 . S
N1600 C1597 1.384 . S
N1601 C1593 1.427 . S
N1601 C1599 1.384 1_655 S
H1602 C1608 0.930 . S
H1603 C1612 0.930 . S
H1604 C1617 0.929 . S
H1605 C1615 0.929 . S
H1606 C1610 0.929 . S
H1607 C1616 0.929 . S
C1608 H1602 0.930 . S
C1608 C1609 1.367 . S
C1608 C1616 1.378 . S
C1609 C1608 1.367 . S
C1609 C1617 1.433 . S
C1610 H1606 0.929 . S
C1610 C1612 1.378 . S
C1610 C1614 1.350 . S
C1611 C1614 1.463 . S
C1611 C1616 1.350 . S
C1611 N1619 1.427 . S
C1612 H1603 0.930 . S
C1612 C1610 1.378 . S
C1612 C1613 1.367 . S
C1613 C1612 1.367 . S
C1613 C1615 1.433 . S
C1614 C1610 1.350 . S
C1614 C1611 1.463 . S
C1614 N1618 1.427 . S
C1615 H1605 0.929 . S
C1615 C1613 1.433 . S
C1615 N1618 1.384 . S
C1616 H1607 0.929 . S
C1616 C1608 1.378 . S
C1616 C1611 1.350 . S
C1617 H1604 0.929 . S
C1617 C1609 1.433 . S
C1617 N1619 1.384 . S
N1618 C1614 1.427 . S
N1618 C1615 1.384 . S
N1619 C1611 1.427 . S
N1619 C1617 1.384 . S
H1620 C1626 0.930 . S
H1621 C1630 0.930 . S
H1622 C1635 0.929 . S
H1623 C1633 0.929 . S
H1624 C1628 0.929 . S
H1625 C1634 0.929 . S
C1626 H1620 0.930 . S
C1626 C1627 1.367 1_565 S
C1626 C1634 1.378 . S
C1627 C1626 1.367 1_545 S
C1627 C1635 1.433 . S
C1628 H1624 0.929 . S
C1628 C1630 1.378 . S
C1628 C1632 1.350 . S
C1629 C1632 1.463 . S
C1629 C1634 1.350 . S
C1629 N1637 1.427 1_565 S
C1630 H1621 0.930 . S
C1630 C1628 1.378 . S
C1630 C1631 1.367 . S
C1631 C1630 1.367 . S
C1631 C1633 1.433 . S
C1632 C1628 1.350 . S
C1632 C1629 1.463 . S
C1632 N1636 1.427 . S
C1633 H1623 0.929 . S
C1633 C1631 1.433 . S
C1633 N1636 1.384 . S
C1634 H1625 0.929 . S
C1634 C1626 1.378 . S
C1634 C1629 1.350 . S
C1635 H1622 0.929 . S
C1635 C1627 1.433 . S
C1635 N1637 1.384 . S
N1636 C1632 1.427 . S
N1636 C1633 1.384 . S
N1637 C1629 1.427 1_545 S
N1637 C1635 1.384 . S
H1638 C1644 0.930 . S
H1639 C1648 0.930 . S
H1640 C1653 0.929 . S
H1641 C1651 0.929 . S
H1642 C1646 0.929 . S
H1643 C1652 0.929 . S
C1644 H1638 0.930 . S
C1644 C1645 1.367 . S
C1644 C1652 1.378 . S
C1645 C1644 1.367 . S
C1645 C1653 1.433 . S
C1646 H1642 0.929 . S
C1646 C1648 1.378 . S
C1646 C1650 1.350 1_655 S
C1647 C1650 1.463 . S
C1647 C1652 1.350 . S
C1647 N1655 1.427 . S
C1648 H1639 0.930 . S
C1648 C1646 1.378 . S
C1648 C1649 1.367 . S
C1649 C1648 1.367 . S
C1649 C1651 1.433 1_655 S
C1650 C1646 1.350 1_455 S
C1650 C1647 1.463 . S
C1650 N1654 1.427 . S
C1651 H1641 0.929 . S
C1651 C1649 1.433 1_455 S
C1651 N1654 1.384 . S
C1652 H1643 0.929 . S
C1652 C1644 1.378 . S
C1652 C1647 1.350 . S
C1653 H1640 0.929 . S
C1653 C1645 1.433 . S
C1653 N1655 1.384 . S
N1654 C1650 1.427 . S
N1654 C1651 1.384 . S
N1655 C1647 1.427 . S
N1655 C1653 1.384 . S
H1656 C1662 0.930 . S
H1657 C1666 0.930 . S
H1658 C1671 0.929 . S
H1659 C1669 0.929 . S
H1660 C1664 0.929 . S
H1661 C1670 0.929 . S
C1662 H1656 0.930 . S
C1662 C1663 1.367 . S
C1662 C1670 1.378 . S
C1663 C1662 1.367 . S
C1663 C1671 1.433 . S
C1664 H1660 0.929 . S
C1664 C1666 1.378 . S
C1664 C1668 1.350 . S
C1665 C1668 1.463 1_655 S
C1665 C1670 1.350 . S
C1665 N1673 1.427 . S
C1666 H1657 0.930 . S
C1666 C1664 1.378 . S
C1666 C1667 1.367 . S
C1667 C1666 1.367 . S
C1667 C1669 1.433 . S
C1668 C1664 1.350 . S
C1668 C1665 1.463 1_455 S
C1668 N1672 1.427 . S
C1669 H1659 0.929 . S
C1669 C1667 1.433 . S
C1669 N1672 1.384 . S
C1670 H1661 0.929 . S
C1670 C1662 1.378 . S
C1670 C1665 1.350 . S
C1671 H1658 0.929 . S
C1671 C1663 1.433 . S
C1671 N1673 1.384 . S
N1672 C1668 1.427 . S
N1672 C1669 1.384 . S
N1673 C1665 1.427 . S
N1673 C1671 1.384 . S
H1674 C1680 0.930 . S
H1675 C1684 0.930 . S
H1676 C1689 0.929 . S
H1677 C1687 0.929 . S
H1678 C1682 0.929 . S
H1679 C1688 0.929 . S
C1680 H1674 0.930 . S
C1680 C1681 1.367 . S
C1680 C1688 1.378 . S
C1681 C1680 1.367 . S
C1681 C1689 1.433 . S
C1682 H1678 0.929 . S
C1682 C1684 1.378 . S
C1682 C1686 1.350 . S
C1683 C1686 1.463 . S
C1683 C1688 1.350 . S
C1683 N1691 1.427 . S
C1684 H1675 0.930 . S
C1684 C1682 1.378 . S
C1684 C1685 1.367 . S
C1685 C1684 1.367 . S
C1685 C1687 1.433 . S
C1686 C1682 1.350 . S
C1686 C1683 1.463 . S
C1686 N1690 1.427 . S
C1687 H1677 0.929 . S
C1687 C1685 1.433 . S
C1687 N1690 1.384 . S
C1688 H1679 0.929 . S
C1688 C1680 1.378 . S
C1688 C1683 1.350 . S
C1689 H1676 0.929 . S
C1689 C1681 1.433 . S
C1689 N1691 1.384 . S
N1690 C1686 1.427 . S
N1690 C1687 1.384 . S
N1691 C1683 1.427 . S
N1691 C1689 1.384 . S
H1692 C1698 0.930 . S
H1693 C1702 0.930 . S
H1694 C1707 0.929 . S
H1695 C1705 0.929 . S
H1696 C1700 0.929 . S
H1697 C1706 0.929 . S
C1698 H1692 0.930 . S
C1698 C1699 1.367 . S
C1698 C1706 1.378 . S
C1699 C1698 1.367 . S
C1699 C1707 1.433 . S
C1700 H1696 0.929 . S
C1700 C1702 1.378 . S
C1700 C1704 1.350 . S
C1701 C1704 1.463 1_565 S
C1701 C1706 1.350 . S
C1701 N1709 1.427 . S
C1702 H1693 0.930 . S
C1702 C1700 1.378 . S
C1702 C1703 1.367 . S
C1703 C1702 1.367 . S
C1703 C1705 1.433 . S
C1704 C1700 1.350 . S
C1704 C1701 1.463 1_545 S
C1704 N1708 1.427 . S
C1705 H1695 0.929 . S
C1705 C1703 1.433 . S
C1705 N1708 1.384 . S
C1706 H1697 0.929 . S
C1706 C1698 1.378 . S
C1706 C1701 1.350 . S
C1707 H1694 0.929 . S
C1707 C1699 1.433 . S
C1707 N1709 1.384 . S
N1708 C1704 1.427 . S
N1708 C1705 1.384 . S
N1709 C1701 1.427 . S
N1709 C1707 1.384 . S
H1710 C1716 0.930 . S
H1711 C1720 0.930 . S
H1712 C1725 0.929 . S
H1713 C1723 0.929 . S
H1714 C1718 0.929 . S
H1715 C1724 0.929 . S
C1716 H1710 0.930 . S
C1716 C1717 1.367 . S
C1716 C1724 1.378 . S
C1717 C1716 1.367 . S
C1717 C1725 1.433 . S
C1718 H1714 0.929 . S
C1718 C1720 1.378 . S
C1718 C1722 1.350 . S
C1719 C1722 1.463 1_565 S
C1719 C1724 1.350 . S
C1719 N1727 1.427 . S
C1720 H1711 0.930 . S
C1720 C1718 1.378 . S
C1720 C1721 1.367 . S
C1721 C1720 1.367 . S
C1721 C1723 1.433 . S
C1722 C1718 1.350 . S
C1722 C1719 1.463 1_545 S
C1722 N1726 1.427 . S
C1723 H1713 0.929 . S
C1723 C1721 1.433 . S
C1723 N1726 1.384 . S
C1724 H1715 0.929 . S
C1724 C1716 1.378 . S
C1724 C1719 1.350 . S
C1725 H1712 0.929 . S
C1725 C1717 1.433 . S
C1725 N1727 1.384 . S
N1726 C1722 1.427 . S
N1726 C1723 1.384 . S
N1727 C1719 1.427 . S
N1727 C1725 1.384 . S
H1728 C1734 0.930 . S
H1729 C1738 0.930 . S
H1730 C1743 0.929 . S
H1731 C1741 0.929 . S
H1732 C1736 0.929 . S
H1733 C1742 0.929 . S
C1734 H1728 0.930 . S
C1734 C1735 1.367 . S
C1734 C1742 1.378 . S
C1735 C1734 1.367 . S
C1735 C1743 1.433 . S
C1736 H1732 0.929 . S
C1736 C1738 1.378 . S
C1736 C1740 1.350 . S
C1737 C1740 1.463 1_655 S
C1737 C1742 1.350 . S
C1737 N1745 1.427 . S
C1738 H1729 0.930 . S
C1738 C1736 1.378 . S
C1738 C1739 1.367 . S
C1739 C1738 1.367 . S
C1739 C1741 1.433 . S
C1740 C1736 1.350 . S
C1740 C1737 1.463 1_455 S
C1740 N1744 1.427 . S
C1741 H1731 0.929 . S
C1741 C1739 1.433 . S
C1741 N1744 1.384 . S
C1742 H1733 0.929 . S
C1742 C1734 1.378 . S
C1742 C1737 1.350 . S
C1743 H1730 0.929 . S
C1743 C1735 1.433 . S
C1743 N1745 1.384 . S
N1744 C1740 1.427 . S
N1744 C1741 1.384 . S
N1745 C1737 1.427 . S
N1745 C1743 1.384 . S
H1746 C1752 0.930 . S
H1747 C1756 0.930 . S
H1748 C1761 0.929 . S
H1749 C1759 0.929 . S
H1750 C1754 0.929 . S
H1751 C1760 0.929 . S
C1752 H1746 0.930 . S
C1752 C1753 1.367 . S
C1752 C1760 1.378 . S
C1753 C1752 1.367 . S
C1753 C1761 1.433 . S
C1754 H1750 0.929 . S
C1754 C1756 1.378 . S
C1754 C1758 1.350 . S
C1755 C1758 1.463 . S
C1755 C1760 1.350 . S
C1755 N1763 1.427 . S
C1756 H1747 0.930 . S
C1756 C1754 1.378 . S
C1756 C1757 1.367 . S
C1757 C1756 1.367 . S
C1757 C1759 1.433 . S
C1758 C1754 1.350 . S
C1758 C1755 1.463 . S
C1758 N1762 1.427 . S
C1759 H1749 0.929 . S
C1759 C1757 1.433 . S
C1759 N1762 1.384 . S
C1760 H1751 0.929 . S
C1760 C1752 1.378 . S
C1760 C1755 1.350 . S
C1761 H1748 0.929 . S
C1761 C1753 1.433 . S
C1761 N1763 1.384 . S
N1762 C1758 1.427 . S
N1762 C1759 1.384 . S
N1763 C1755 1.427 . S
N1763 C1761 1.384 . S
C475 C5 1.675 . S
C479 C237 1.675 . S
C493 C16 1.705 . S
C497 C252 1.705 . S
C511 C263 1.674 . S
C515 C29 1.704 . S
C529 C42 1.705 . S
C533 C432 1.669 . S
C547 C447 1.704 . S
C551 C55 1.704 . S
C565 C70 1.672 . S
C569 C458 1.672 . S
C583 C317 1.675 . S
C587 C81 1.675 . S
C601 C96 1.705 . S
C605 C328 1.705 . S
C619 C107 1.677 . S
C623 C341 1.704 . S
C637 C120 1.678 . S
C641 C198 1.704 . S
C655 C211 1.705 . S
C659 C135 1.705 . S
C673 C146 1.675 . S
C677 C226 1.675 . S
C691 C161 1.676 . S
C695 C393 1.676 . S
C709 C172 1.703 . S
C713 C408 1.703 . S
C727 C185 1.704 . S
C731 C419 1.671 . S
C745 C276 1.669 . S
C749 C354 1.705 . S
C763 C291 1.704 . S
C767 C367 1.704 . S
C781 C302 1.676 . S
C785 C382 1.676 . S
C799 C101 1.574 1_545 S
C803 C3 1.593 . S
C817 C105 1.557 1_655 S
C821 C18 1.534 . S
C835 C31 1.533 . S
C839 C79 1.581 . S
C853 C144 1.575 1_455 S
C857 C44 1.525 . S
C871 C118 1.582 . S
C875 C57 1.529 . S
C889 C140 1.574 1_565 S
C893 C68 1.592 . S
C907 C83 1.593 . S
C911 C14 1.568 1_565 S
C925 C94 1.538 . S
C929 C27 1.568 1_455 S
C943 C109 1.593 . S
C947 C10 1.575 . S
C961 C122 1.593 . S
C965 C75 1.543 1_655 S
C979 C40 1.591 . S
C983 C133 1.532 . S
C997 C53 1.587 1_545 S
C1001 C148 1.591 . S
C1015 C159 1.593 . S
C1019 C257 1.588 . S
C1033 C174 1.536 . S
C1037 C261 1.575 . S
C1051 C187 1.537 . S
C1055 C235 1.579 . S
C1069 C300 1.578 . S
C1073 C200 1.527 . S
C1087 C213 1.529 . S
C1091 C274 1.582 . S
C1105 C296 1.588 . S
C1109 C224 1.592 . S
C1123 C239 1.592 . S
C1127 C170 1.588 . S
C1141 C183 1.590 . S
C1145 C250 1.526 . S
C1159 C166 1.580 . S
C1163 C265 1.593 . S
C1177 C278 1.593 . S
C1181 C231 1.576 . S
C1195 C289 1.537 . S
C1199 C196 1.590 . S
C1213 C304 1.593 . S
C1217 C209 1.588 . S
C1231 C413 1.588 . S
C1235 C315 1.593 . S
C1249 C330 1.536 . S
C1253 C417 1.575 . S
C1267 C343 1.539 . S
C1271 C391 1.578 . S
C1285 C456 1.580 . S
C1289 C356 1.535 . S
C1303 C430 1.581 . S
C1307 C369 1.533 . S
C1321 C452 1.588 . S
C1325 C380 1.593 . S
C1339 C326 1.588 . S
C1343 C395 1.593 . S
C1357 C339 1.589 . S
C1361 C406 1.538 . S
C1375 C322 1.580 . S
C1379 C421 1.593 . S
C1393 C434 1.593 . S
C1397 C387 1.581 . S
C1411 C352 1.590 . S
C1415 C445 1.525 . S
C1429 C460 1.593 . S
C1433 C365 1.588 . S
C1447 C1 1.736 . S
C1451 C378 1.736 . S
C1465 C361 1.684 . S
C1469 C23 1.686 . S
C1483 C36 1.676 . S
C1487 C374 1.673 . S
C1501 C49 1.672 . S
C1505 C179 1.675 . S
C1519 C192 1.686 . S
C1523 C62 1.687 . S
C1537 C66 1.736 . S
C1541 C157 1.736 . S
C1555 C309 1.737 . S
C1559 C88 1.736 . S
C1573 C92 1.674 . S
C1577 C283 1.737 . S
C1591 C114 1.744 . S
C1595 C287 1.687 . S
C1609 C127 1.739 . S
C1613 C404 1.679 . S
C1627 C131 1.677 . S
C1631 C426 1.738 . S
C1645 C400 1.742 . S
C1649 C153 1.743 . S
C1663 C205 1.680 . S
C1667 C335 1.684 . S
C1681 C348 1.674 . S
C1685 C218 1.672 . S
C1699 C313 1.736 . S
C1703 C222 1.736 . S
C1717 C465 1.736 . S
C1721 C244 1.736 . S
C1735 C248 1.686 . S
C1739 C439 1.744 . S
C1753 C270 1.736 . S
C1757 C443 1.672 . S
