# Generated by pormake.
# Topology fcu, (12)-cn, num edge types: 1
# Building blocks:
#     Node 0, Type 0, BuildingBlock: UKIBUN_clean_sbu_0, # of connection points: 12
#     Node 1, Type 0, BuildingBlock: UKIBUN_clean_sbu_0, # of connection points: 12
#     Node 2, Type 0, BuildingBlock: UKIBUN_clean_sbu_0, # of connection points: 12
#     Node 3, Type 0, BuildingBlock: UKIBUN_clean_sbu_0, # of connection points: 12
#     Edge 4, Type (0, 0), BuildingBlock: TEMPAE_clean_linker_10, # of connection points: 2
#     Edge 5, Type (0, 0), BuildingBlock: TEMPAE_clean_linker_10, # of connection points: 2
#     Edge 6, Type (0, 0), BuildingBlock: TEMPAE_clean_linker_10, # of connection points: 2
#     Edge 7, Type (0, 0), BuildingBlock: TEMPAE_clean_linker_10, # of connection points: 2
#     Edge 8, Type (0, 0), BuildingBlock: TEMPAE_clean_linker_10, # of connection points: 2
#     Edge 9, Type (0, 0), BuildingBlock: TEMPAE_clean_linker_10, # of connection points: 2
#     Edge 10, Type (0, 0), BuildingBlock: TEMPAE_clean_linker_10, # of connection points: 2
#     Edge 11, Type (0, 0), BuildingBlock: TEMPAE_clean_linker_10, # of connection points: 2
#     Edge 12, Type (0, 0), BuildingBlock: TEMPAE_clean_linker_10, # of connection points: 2
#     Edge 13, Type (0, 0), BuildingBlock: TEMPAE_clean_linker_10, # of connection points: 2
#     Edge 14, Type (0, 0), BuildingBlock: TEMPAE_clean_linker_10, # of connection points: 2
#     Edge 15, Type (0, 0), BuildingBlock: TEMPAE_clean_linker_10, # of connection points: 2
#     Edge 16, Type (0, 0), BuildingBlock: TEMPAE_clean_linker_10, # of connection points: 2
#     Edge 17, Type (0, 0), BuildingBlock: TEMPAE_clean_linker_10, # of connection points: 2
#     Edge 18, Type (0, 0), BuildingBlock: TEMPAE_clean_linker_10, # of connection points: 2
#     Edge 19, Type (0, 0), BuildingBlock: TEMPAE_clean_linker_10, # of connection points: 2
#     Edge 20, Type (0, 0), BuildingBlock: TEMPAE_clean_linker_10, # of connection points: 2
#     Edge 21, Type (0, 0), BuildingBlock: TEMPAE_clean_linker_10, # of connection points: 2
#     Edge 22, Type (0, 0), BuildingBlock: TEMPAE_clean_linker_10, # of connection points: 2
#     Edge 23, Type (0, 0), BuildingBlock: TEMPAE_clean_linker_10, # of connection points: 2
#     Edge 24, Type (0, 0), BuildingBlock: TEMPAE_clean_linker_10, # of connection points: 2
#     Edge 25, Type (0, 0), BuildingBlock: TEMPAE_clean_linker_10, # of connection points: 2
#     Edge 26, Type (0, 0), BuildingBlock: TEMPAE_clean_linker_10, # of connection points: 2
#     Edge 27, Type (0, 0), BuildingBlock: TEMPAE_clean_linker_10, # of connection points: 2
# Relax obj value: 0.006
# Max RMSD: 0.049
# Mean RMSD: 0.049
data_MOF--net-fcu--node1-UKIBUN_clean_sbu_0--edge1-TEMPAE_clean_linker_10
_symmetry_space_group_name_H-M    P1
_symmetry_Int_Tables_number       1
_symmetry_cell_setting            triclinic
loop_
_symmetry_equiv_pos_as_xyz
'x, y, z'
_cell_length_a     26.745237
_cell_length_b     26.743771
_cell_length_c     26.753978
_cell_angle_alpha  89.991296
_cell_angle_beta   90.000487
_cell_angle_gamma 89.9918
loop_
_atom_site_label
_atom_site_type_symbol
_atom_site_fract_x
_atom_site_fract_y
_atom_site_fract_z
_atom_type_partial_charge
C0 C 0.99382 0.11352 0.11126 0.0
C1 C 0.87976 0.11222 0.99538 0.0
O2 O 0.03923 0.03893 0.03738 0.0
O3 O 0.95508 0.95364 0.03644 0.0
O4 O 0.03962 0.9543 0.03758 0.0
O5 O 0.95454 0.03818 0.03597 0.0
Hf6 Hf 0.99641 0.99653 0.08456 0.0
O7 O 0.04035 0.0385 0.95271 0.0
Hf8 Hf -0.00288 0.0861 0.99427 0.0
O9 O 0.04091 0.95396 0.95314 0.0
Hf10 Hf 0.08777 -0.00329 0.9959 0.0
O11 O 0.95584 0.03782 0.95158 0.0
Hf12 Hf -0.00167 0.90607 0.99487 0.0
Hf13 Hf 0.90765 0.99539 0.99323 0.0
O14 O 0.95627 0.95327 0.95176 0.0
Hf15 Hf -0.00094 0.99566 0.90455 0.0
C16 C 0.88156 0.87799 0.99016 0.0
C17 C 0.11393 0.11403 0.9942 0.0
C18 C 0.11559 0.87968 -0.00226 0.0
C19 C 0.11313 -0.00052 0.11344 0.0
O20 O 0.06697 0.00049 0.12742 0.0
O21 O 0.92451 0.99577 0.1252 0.0
C22 C 0.87882 0.99338 0.10992 0.0
O23 O 0.92847 -0.00322 0.86168 0.0
O24 O 0.00142 0.86407 0.92372 0.0
O25 O 0.99629 0.8646 0.06626 0.0
O26 O 0.07093 0.99077 0.86403 0.0
O27 O -0.00309 0.12755 0.9229 0.0
O28 O -0.003 0.12817 0.06543 0.0
O29 O 0.86541 0.06623 -0.00262 0.0
O30 O 0.86654 0.92381 0.98823 0.0
C31 C 0.11664 0.99211 0.8794 0.0
O32 O 0.13002 0.9257 -0.00114 0.0
O33 O 0.12907 0.06825 0.99326 0.0
C34 C 0.88239 -0.00058 0.87568 0.0
O35 O 0.00254 0.06685 0.86258 0.0
O36 O -0.00067 0.92548 0.12663 0.0
O37 O 0.99192 0.06771 0.1261 0.0
O38 O 0.99633 0.92445 0.86299 0.0
O39 O 0.86703 0.00039 0.9214 0.0
O40 O 0.13067 0.99539 0.9254 0.0
C41 C -0.00097 0.87867 0.87782 0.0
O42 O 0.12846 -0.00242 0.06775 0.0
O43 O 0.06796 0.12847 0.99566 0.0
O44 O 0.86483 0.99155 0.0638 0.0
O45 O 0.06979 0.86472 0.9957 0.0
O46 O 0.9275 0.86373 0.99365 0.0
O47 O 0.9255 0.1273 0.99274 0.0
C48 C 2e-05 0.11281 0.8771 0.0
C49 C -0.00207 0.87952 0.11208 0.0
C50 C 0.00049 0.61354 0.61135 0.0
C51 C 0.88452 0.61714 0.49601 0.0
O52 O 0.04066 0.5371 0.53744 0.0
O53 O 0.95322 0.45544 0.53609 0.0
O54 O 0.03768 0.4525 0.53765 0.0
O55 O 0.95599 0.53986 0.53585 0.0
Hf56 Hf 0.9961 0.49648 0.58447 0.0
O57 O 0.04205 0.53677 0.45301 0.0
Hf58 Hf 0.00064 0.58609 0.49438 0.0
O59 O 0.03924 0.45226 0.453 0.0
Hf60 Hf 0.0876 0.49291 0.49618 0.0
O61 O 0.95753 0.53973 0.45134 0.0
Hf62 Hf 0.99461 0.40614 0.49469 0.0
Hf63 Hf 0.90761 0.4991 0.49274 0.0
O64 O 0.95474 0.45516 0.45152 0.0
Hf65 Hf -0.00076 0.49593 0.40448 0.0
C66 C 0.87664 0.38294 0.49148 0.0
C67 C 0.11872 0.60906 0.4942 0.0
C68 C 0.11076 0.37493 0.49641 0.0
C69 C 0.11268 0.49375 0.61367 0.0
O70 O 0.06662 0.49763 0.62747 0.0
O71 O 0.92412 0.49815 0.62498 0.0
C72 C 0.87846 0.49771 0.60944 0.0
O73 O 0.92879 0.49608 0.36137 0.0
O74 O 0.99438 0.36414 0.42363 0.0
O75 O 0.9924 0.36455 0.566 0.0
O76 O 0.07126 0.49596 0.36408 0.0
O77 O -0.00179 0.62783 0.42321 0.0
O78 O 0.00463 0.62791 0.5655 0.0
O79 O 0.8683 0.5718 0.49296 0.0
O80 O 0.86353 0.42929 0.48885 0.0
C81 C 0.11678 0.49264 0.37963 0.0
O82 O 0.12688 0.42035 0.49803 0.0
O83 O 0.13178 0.56275 0.49775 0.0
C84 C 0.88276 0.49996 0.3752 0.0
O85 O 0.00152 0.5672 0.36265 0.0
O86 O -0.00281 0.42528 0.62642 0.0
O87 O 0.99559 0.56783 0.62593 0.0
O88 O -0.0025 0.42455 0.36286 0.0
O89 O 0.86729 0.50299 0.42076 0.0
O90 O 0.13066 0.48991 0.42572 0.0
C91 C 0.99555 0.37865 0.37766 0.0
O92 O 0.12802 0.49041 0.56809 0.0
O93 O 0.07336 0.62523 0.49106 0.0
O94 O 0.86453 0.49725 0.56325 0.0
O95 O 0.06437 0.36181 0.49448 0.0
O96 O 0.92199 0.36684 0.49486 0.0
O97 O 0.93089 0.63024 0.49808 0.0
C98 C -0.00013 0.61313 0.37733 0.0
C99 C 0.99484 0.37936 0.61181 0.0
C100 C 0.49347 0.11362 0.61146 0.0
C101 C 0.37614 0.10871 0.4948 0.0
O102 O 0.53886 0.04012 0.53616 0.0
O103 O 0.45766 0.95224 0.53776 0.0
O104 O 0.54212 0.95591 0.53627 0.0
O105 O 0.45429 0.03711 0.53764 0.0
Hf106 Hf 0.4988 0.99639 0.58468 0.0
O107 O 0.5376 0.04009 0.45153 0.0
Hf108 Hf 0.49419 0.08619 0.49445 0.0
O109 O 0.54086 0.95544 0.45169 0.0
Hf110 Hf 0.58761 -0.00028 0.49303 0.0
O111 O 0.45304 0.03666 0.45322 0.0
Hf112 Hf 0.50133 0.90619 0.49494 0.0
Hf113 Hf 0.40764 0.9927 0.49636 0.0
O114 O 0.45637 0.95223 0.45334 0.0
Hf115 Hf 0.49605 0.99611 0.40474 0.0
C116 C 0.38533 0.87449 0.4967 0.0
C117 C 0.61007 0.11777 0.49043 0.0
C118 C 0.61961 0.88395 0.49693 0.0
C119 C 0.61629 0.0019 0.60983 0.0
O120 O 0.57075 -0.00226 0.62517 0.0
O121 O 0.42836 0.99117 0.62769 0.0
C122 C 0.3822 0.99126 0.61365 0.0
O123 O 0.42394 -0.0014 0.36453 0.0
O124 O 0.50493 0.86456 0.4237 0.0
O125 O 0.50343 0.86457 0.56637 0.0
O126 O 0.56641 -0.0022 0.36146 0.0
O127 O 0.49176 0.12785 0.42312 0.0
O128 O 0.49353 0.12816 0.56549 0.0
O129 O 0.3631 0.06235 0.49737 0.0
O130 O 0.36895 0.91978 0.49944 0.0
C131 C 0.61255 -0.00298 0.37544 0.0
O132 O 0.63247 0.93036 0.4944 0.0
O133 O 0.62639 0.07246 0.48774 0.0
C134 C 0.37842 0.99453 0.37991 0.0
O135 O 0.49597 0.06716 0.36275 0.0
O136 O 0.50146 0.92544 0.62668 0.0
O137 O 0.49467 0.06772 0.62633 0.0
O138 O 0.49419 0.9246 0.36336 0.0
O139 O 0.36461 0.99002 0.42588 0.0
O140 O 0.62811 0.99658 0.42107 0.0
C141 C 0.49964 0.87894 0.37798 0.0
O142 O 0.63025 0.0047 0.56372 0.0
O143 O 0.5638 0.13073 0.49454 0.0
O144 O 0.36683 0.99291 0.56802 0.0
O145 O 0.57429 0.86744 0.49796 0.0
O146 O 0.43172 0.86158 0.49348 0.0
O147 O 0.42141 0.12515 0.49271 0.0
C148 C 0.49347 0.11308 0.37724 0.0
C149 C 0.50317 0.87946 0.61227 0.0
C150 C 0.49908 0.6126 0.11237 0.0
C151 C 0.38186 0.6142 -0.00303 0.0
O152 O 0.54123 0.53769 0.0364 0.0
O153 O 0.45576 0.45392 0.03729 0.0
O154 O 0.54029 0.45309 0.03586 0.0
O155 O 0.45657 0.53844 0.03769 0.0
Hf156 Hf 0.49921 0.49557 0.08452 0.0
O157 O 0.53956 0.53811 0.95185 0.0
Hf158 Hf 0.49874 0.58609 0.99512 0.0
O159 O 0.5387 0.45374 0.95116 0.0
Hf160 Hf 0.5877 0.49512 0.99295 0.0
O161 O 0.45487 0.53923 0.9533 0.0
Hf162 Hf 0.49683 0.40607 0.994 0.0
Hf163 Hf 0.40763 0.49675 0.99609 0.0
O164 O 0.45427 0.45446 0.95273 0.0
Hf165 Hf 0.49585 0.4969 0.90453 0.0
C166 C 0.37952 0.37985 0.99423 0.0
C167 C 0.616 0.61187 0.99171 0.0
C168 C 0.61362 0.37771 0.99543 0.0
C169 C 0.61681 0.49708 0.10956 0.0
O170 O 0.57117 0.49483 0.12498 0.0
O171 O 0.4287 0.49549 0.12755 0.0
C172 C 0.38252 0.49411 0.11367 0.0
O173 O 0.42403 0.4997 0.86396 0.0
O174 O 0.49718 0.36486 0.92247 0.0
O175 O 0.49482 0.36395 0.06507 0.0
O176 O 0.56643 0.4977 0.86155 0.0
O177 O 0.50274 0.62836 0.92428 0.0
O178 O 0.49976 0.62755 0.06653 0.0
O179 O 0.36676 0.56846 -0.00045 0.0
O180 O 0.3652 0.42591 0.99426 0.0
C181 C 0.61251 0.49402 0.87536 0.0
O182 O 0.62877 0.4235 -0.00339 0.0
O183 O 0.63007 0.56589 0.98786 0.0
C184 C 0.37841 0.49819 0.87946 0.0
O185 O 0.49523 0.56847 0.86334 0.0
O186 O 0.50053 0.42415 0.12592 0.0
O187 O 0.49838 0.56657 0.12681 0.0
O188 O 0.49221 0.42591 0.86234 0.0
O189 O 0.36447 0.49645 0.92559 0.0
O190 O 0.62797 0.49088 0.92094 0.0
C191 C 0.49421 0.37992 0.87677 0.0
O192 O 0.63071 0.4988 0.0634 0.0
O193 O 0.57047 0.62694 -0.00332 0.0
O194 O 0.36709 0.4936 0.06798 0.0
O195 O 0.56758 0.3635 0.99344 0.0
O196 O 0.42534 0.36479 0.99448 0.0
O197 O 0.42782 0.62849 0.99365 0.0
C198 C 0.49962 0.61406 0.87837 0.0
C199 C 0.49744 0.37842 0.11099 0.0
C200 C 0.03042 0.1887 0.15132 0.0
C201 C 0.99296 0.15227 0.15003 0.0
C202 C 0.03128 0.22487 0.18921 0.0
C203 C 0.99244 0.22573 0.2252 0.0
C204 C 0.95392 0.18942 0.22337 0.0
C205 C 0.95521 0.1524 0.18623 0.0
C206 C 0.0737 0.26211 0.19055 0.0
C207 C 0.91136 0.18974 0.26045 0.0
C208 C 0.01545 0.29239 0.34822 0.0
C209 C 0.99442 0.33948 0.33884 0.0
C210 C 0.01516 0.255 0.31148 0.0
C211 C 0.99228 0.26465 0.26475 0.0
C212 C 0.97041 0.31193 0.25532 0.0
C213 C 0.97221 0.349 0.29235 0.0
C214 C 0.04048 0.20566 0.32219 0.0
C215 C 0.94473 0.3232 0.20633 0.0
H216 H 0.05974 0.18808 0.12338 0.0
H217 H 0.92619 0.12413 0.18483 0.0
H218 H 0.0601 0.299 0.17732 0.0
H219 H 0.08787 0.26707 0.22922 0.0
H220 H 0.10533 0.25035 0.16642 0.0
H221 H 0.88266 0.16101 0.25172 0.0
H222 H 0.92592 0.18268 0.29862 0.0
H223 H 0.89313 0.22703 0.26088 0.0
H224 H 0.03311 0.28511 0.38396 0.0
H225 H 0.95554 0.38524 0.28518 0.0
H226 H 0.07182 0.20002 0.29558 0.0
H227 H 0.01386 0.17435 0.31666 0.0
H228 H 0.05542 0.20367 0.36087 0.0
H229 H 0.97084 0.31704 0.17473 0.0
H230 H 0.93072 0.36225 0.20447 0.0
H231 H 0.91271 0.29732 0.20111 0.0
C232 C 0.7943 0.96793 0.14038 0.0
C233 C 0.83933 0.99347 0.14843 0.0
C234 C 0.75668 0.96758 0.17694 0.0
C235 C 0.76388 0.99452 0.22193 0.0
C236 C 0.80904 0.02095 0.22991 0.0
C237 C 0.8465 0.01959 0.19328 0.0
C238 C 0.70956 0.93787 0.16772 0.0
C239 C 0.81757 0.05115 0.27685 0.0
C240 C 0.64863 0.03046 0.29656 0.0
C241 C 0.65072 0.99614 0.336 0.0
C242 C 0.68564 0.03082 0.2594 0.0
C243 C 0.7244 0.99473 0.26095 0.0
C244 C 0.72582 0.95919 0.30019 0.0
C245 C 0.68941 0.96099 0.33785 0.0
C246 C 0.68357 0.07006 0.21886 0.0
C247 C 0.7658 0.91937 0.30252 0.0
H248 H 0.78887 0.9474 0.10585 0.0
H249 H 0.8811 0.03981 0.19934 0.0
H250 H 0.70428 0.91003 0.19804 0.0
H251 H 0.67661 0.96303 0.16824 0.0
H252 H 0.71038 0.91786 0.13133 0.0
H253 H 0.85477 0.06962 0.27721 0.0
H254 H 0.78824 0.08031 0.28031 0.0
H255 H 0.81463 0.02672 0.31023 0.0
H256 H 0.61871 0.0578 0.29554 0.0
H257 H 0.69055 0.93425 0.36827 0.0
H258 H 0.67728 0.05195 0.18211 0.0
H259 H 0.71974 0.09027 0.21663 0.0
H260 H 0.6533 0.09776 0.22531 0.0
H261 H 0.76912 0.90003 0.26597 0.0
H262 H 0.75795 0.89101 0.33182 0.0
H263 H 0.80248 0.93692 0.31066 0.0
C264 C 0.9663 0.79945 0.14715 0.0
C265 C -0.00181 0.84077 0.15104 0.0
C266 C 0.96559 0.76254 0.18436 0.0
C267 C -0.00112 0.76631 0.22535 0.0
C268 C 0.03177 0.80767 0.22896 0.0
C269 C 0.0304 0.84494 0.19209 0.0
C270 C 0.92906 0.71971 0.17994 0.0
C271 C 0.06871 0.81227 0.27141 0.0
C272 C 0.97072 0.69537 0.34485 0.0
C273 C -0.0004 0.65213 0.33849 0.0
C274 C 0.96959 0.73258 0.30795 0.0
C275 C -0.00075 0.72695 0.26447 0.0
C276 C 0.02898 0.68358 0.2582 0.0
C277 C 0.02824 0.6463 0.29506 0.0
C278 C 0.93621 0.77757 0.31521 0.0
C279 C 0.06211 0.67691 0.21298 0.0
H280 H 0.94116 0.7966 0.11549 0.0
H281 H 0.05533 0.87682 0.1947 0.0
H282 H 0.94969 0.68401 0.17547 0.0
H283 H 0.90642 0.71662 0.21457 0.0
H284 H 0.90334 0.72425 0.14767 0.0
H285 H 0.09285 0.84588 0.26775 0.0
H286 H 0.04853 0.81438 0.30757 0.0
H287 H 0.09293 0.7786 0.27279 0.0
H288 H 0.94818 0.69958 0.37829 0.0
H289 H 0.05088 0.613 0.29041 0.0
H290 H 0.90986 0.78089 0.28334 0.0
H291 H 0.95903 0.81218 0.31595 0.0
H292 H 0.91426 0.77543 0.3504 0.0
H293 H 0.03972 0.67972 0.17821 0.0
H294 H 0.08179 0.64033 0.21311 0.0
H295 H 0.09043 0.70722 0.21186 0.0
C296 C 0.29906 0.96215 0.34366 0.0
C297 C 0.33889 0.99605 0.34179 0.0
C298 C 0.26177 0.96261 0.30677 0.0
C299 C 0.26369 -0.00104 0.26829 0.0
C300 C 0.30331 0.03409 0.2671 0.0
C301 C 0.34096 0.03163 0.30347 0.0
C302 C 0.2209 0.92367 0.30843 0.0
C303 C 0.30597 0.07414 0.22738 0.0
C304 C 0.19668 0.97406 0.1459 0.0
C305 C 0.15163 -0.00012 0.15292 0.0
C306 C 0.23329 0.9731 0.18337 0.0
C307 C 0.225 -0.00053 0.2285 0.0
C308 C 0.17989 0.02632 0.23547 0.0
C309 C 0.14339 0.02564 0.19779 0.0
C310 C 0.2804 0.94308 0.17502 0.0
C311 C 0.17039 0.05608 0.28248 0.0
H312 H 0.29782 0.93449 0.37328 0.0
H313 H 0.37164 0.05814 0.30251 0.0
H314 H 0.18382 0.94205 0.311 0.0
H315 H 0.22122 0.90147 0.27339 0.0
H316 H 0.22511 0.89772 0.3406 0.0
H317 H 0.33772 0.10026 0.23341 0.0
H318 H 0.31019 0.05667 0.19002 0.0
H319 H 0.2707 0.096 0.22686 0.0
H320 H 0.20288 0.9537 0.11142 0.0
H321 H 0.10872 0.046 0.20306 0.0
H322 H 0.28138 0.91122 0.20159 0.0
H323 H 0.31398 0.96627 0.1823 0.0
H324 H 0.28285 0.92818 0.13637 0.0
H325 H 0.17031 0.03087 0.3154 0.0
H326 H 0.13417 0.0764 0.28126 0.0
H327 H 0.20088 0.08364 0.28817 0.0
C328 C 0.96559 0.84217 0.79924 0.0
C329 C -0.00041 0.83991 0.83895 0.0
C330 C 0.96534 0.8052 0.76209 0.0
C331 C 0.0012 0.76627 0.76395 0.0
C332 C 0.03638 0.76458 0.80349 0.0
C333 C 0.0345 0.801 0.84113 0.0
C334 C 0.92652 0.80758 0.72116 0.0
C335 C 0.07594 0.72436 0.80606 0.0
C336 C 0.97483 0.64521 0.69515 0.0
C337 C 0.00103 0.65251 0.65037 0.0
C338 C 0.97431 0.68212 0.73233 0.0
C339 C 0.00146 0.72692 0.72486 0.0
C340 C 0.02862 0.73421 0.68002 0.0
C341 C 0.02759 0.69709 0.64299 0.0
C342 C 0.94406 0.6735 0.77922 0.0
C343 C 0.05909 0.78096 0.67138 0.0
H344 H 0.93848 0.87229 0.7979 0.0
H345 H 0.06105 0.79976 0.87171 0.0
H346 H 0.94506 0.81303 0.68448 0.0
H347 H 0.90563 0.77177 0.71922 0.0
H348 H 0.89937 0.83846 0.72698 0.0
H349 H 0.10413 0.73203 0.83555 0.0
H350 H 0.05813 0.68777 0.81406 0.0
H351 H 0.09551 0.72093 0.76965 0.0
H352 H 0.9539 0.61096 0.70077 0.0
H353 H 0.04829 0.7026 0.60858 0.0
H354 H 0.91452 0.70249 0.7823 0.0
H355 H 0.96825 0.67696 0.8127 0.0
H356 H 0.92607 0.63608 0.77973 0.0
H357 H 0.03433 0.81423 0.67163 0.0
H358 H 0.0796 0.77999 0.63527 0.0
H359 H 0.08656 0.78584 0.7021 0.0
C360 C 0.19883 0.01974 0.84581 0.0
C361 C 0.15617 0.98975 0.84125 0.0
C362 C 0.23617 0.01906 0.80906 0.0
C363 C 0.23124 0.98648 0.76763 0.0
C364 C 0.18887 0.95496 0.7637 0.0
C365 C 0.15134 0.95761 0.80022 0.0
C366 C 0.2801 0.05422 0.81385 0.0
C367 C 0.18312 0.91862 0.72087 0.0
C368 C 0.30017 0.0183 0.64801 0.0
C369 C 0.34368 0.98959 0.65288 0.0
C370 C 0.26333 0.01777 0.68523 0.0
C371 C 0.26964 0.98666 0.72759 0.0
C372 C 0.31299 0.95655 0.73203 0.0
C373 C 0.35001 0.95909 0.69496 0.0
C374 C 0.21827 0.05139 0.67976 0.0
C375 C 0.32027 0.92173 0.77587 0.0
H376 H 0.20232 0.04475 0.8775 0.0
H377 H 0.11853 0.93397 0.79714 0.0
H378 H 0.31582 0.03347 0.8103 0.0
H379 H 0.2789 0.08209 0.78313 0.0
H380 H 0.28015 0.07446 0.85009 0.0
H381 H 0.14965 0.89437 0.72516 0.0
H382 H 0.17987 0.93939 0.68513 0.0
H383 H 0.21677 0.89448 0.71808 0.0
H384 H 0.2955 0.04207 0.61553 0.0
H385 H 0.38348 0.93647 0.69835 0.0
H386 H 0.21915 0.08054 0.70927 0.0
H387 H 0.18323 0.0298 0.68477 0.0
H388 H 0.21703 0.07006 0.64272 0.0
H389 H 0.32521 0.94382 0.8106 0.0
H390 H 0.35338 0.89714 0.77104 0.0
H391 H 0.28668 0.89791 0.78102 0.0
C392 C 0.96382 0.29924 0.6475 0.0
C393 C 0.99587 0.3405 0.65067 0.0
C394 C 0.96422 0.26209 0.68451 0.0
C395 C -0.00126 0.26561 0.72451 0.0
C396 C 0.03187 0.30684 0.72725 0.0
C397 C 0.02942 0.34431 0.69065 0.0
C398 C 0.92738 0.21944 0.68112 0.0
C399 C 0.07002 0.31123 0.76864 0.0
C400 C 0.97209 0.19558 0.84486 0.0
C401 C 0.00015 0.15184 0.83819 0.0
C402 C 0.97103 0.23279 0.80796 0.0
C403 C -0.00033 0.22651 0.76391 0.0
C404 C 0.02882 0.18277 0.75738 0.0
C405 C 0.02814 0.14556 0.79437 0.0
C406 C 0.93847 0.27829 0.81571 0.0
C407 C 0.06097 0.17547 0.71156 0.0
H408 H 0.93771 0.29662 0.6166 0.0
H409 H 0.05455 0.37608 0.69263 0.0
H410 H 0.94767 0.18344 0.67772 0.0
H411 H 0.90467 0.21756 0.71579 0.0
H412 H 0.90175 0.22332 0.64869 0.0
H413 H 0.0945 0.34449 0.76408 0.0
H414 H 0.05084 0.31388 0.80531 0.0
H415 H 0.09382 0.27725 0.76963 0.0
H416 H 0.95006 0.20024 0.87855 0.0
H417 H 0.05025 0.11193 0.78944 0.0
H418 H 0.90831 0.27875 0.78722 0.0
H419 H 0.96061 0.313 0.81079 0.0
H420 H 0.92111 0.27895 0.85341 0.0
H421 H 0.03718 0.17452 0.67762 0.0
H422 H 0.08308 0.14033 0.71323 0.0
H423 H 0.08711 0.20743 0.70737 0.0
C424 C 0.65242 0.97074 0.6896 0.0
C425 C 0.65563 0.00276 0.6483 0.0
C426 C 0.68994 0.97027 0.7262 0.0
C427 C 0.73072 0.00379 0.72208 0.0
C428 C 0.73364 0.03684 0.68078 0.0
C429 C 0.69638 0.03533 0.64386 0.0
C430 C 0.68622 0.93352 0.76893 0.0
C431 C 0.77589 0.07397 0.67579 0.0
C432 C 0.80121 0.03077 0.84223 0.0
C433 C 0.84412 0.00135 0.83611 0.0
C434 C 0.76459 0.03302 0.80475 0.0
C435 C 0.77044 0.00393 0.76089 0.0
C436 C 0.81368 0.974 0.75468 0.0
C437 C 0.85036 0.9736 0.79214 0.0
C438 C 0.71971 0.06651 0.81205 0.0
C439 C 0.82063 0.94143 0.70909 0.0
H440 H 0.62104 0.94524 0.69268 0.0
H441 H 0.69853 0.06033 0.61202 0.0
H442 H 0.7202 0.90973 0.77011 0.0
H443 H 0.68419 0.95388 0.80498 0.0
H444 H 0.6529 0.90891 0.76575 0.0
H445 H 0.77162 0.09834 0.64242 0.0
H446 H 0.7777 0.09795 0.7096 0.0
H447 H 0.81209 0.05393 0.67299 0.0
H448 H 0.79669 0.05267 0.87605 0.0
H449 H 0.88341 0.95057 0.78759 0.0
H450 H 0.68516 0.04363 0.81364 0.0
H451 H 0.71589 0.09238 0.77984 0.0
H452 H 0.7223 0.08896 0.8469 0.0
H453 H 0.79101 0.91238 0.70816 0.0
H454 H 0.85765 0.92261 0.70867 0.0
H455 H 0.81687 0.96396 0.6745 0.0
C456 C 0.29506 0.34972 0.96884 0.0
C457 C 0.34029 0.34117 0.99383 0.0
C458 C 0.25775 0.31295 0.96745 0.0
C459 C 0.26549 0.26712 0.9928 0.0
C460 C 0.31081 0.25863 0.0188 0.0
C461 C 0.348 0.29555 0.0184 0.0
C462 C 0.21053 0.32282 0.93809 0.0
C463 C 0.31962 0.211 0.04783 0.0
C464 C 0.15029 0.19245 0.02803 0.0
C465 C 0.15235 0.1532 0.99354 0.0
C466 C 0.18719 0.22965 0.0285 0.0
C467 C 0.226 0.22818 0.99253 0.0
C468 C 0.22731 0.18928 0.95663 0.0
C469 C 0.19093 0.15156 0.95825 0.0
C470 C 0.18517 0.26991 0.06802 0.0
C471 C 0.26701 0.18753 0.91655 0.0
H472 H 0.28921 0.38486 0.94956 0.0
H473 H 0.38279 0.28912 0.03817 0.0
H474 H 0.20972 0.29811 0.90477 0.0
H475 H 0.17694 0.31409 0.96076 0.0
H476 H 0.20793 0.36228 0.92542 0.0
H477 H 0.35766 0.20947 0.06445 0.0
H478 H 0.29167 0.208 0.07835 0.0
H479 H 0.31464 0.17798 0.02328 0.0
H480 H 0.12042 0.19334 0.05537 0.0
H481 H 0.19196 0.12134 0.93128 0.0
H482 H 0.18825 0.30753 0.05084 0.0
H483 H 0.21733 0.26544 0.09386 0.0
H484 H 0.15007 0.26841 0.09008 0.0
H485 H 0.26974 0.22424 0.89738 0.0
H486 H 0.25927 0.15826 0.88814 0.0
H487 H 0.30393 0.17973 0.93374 0.0
C488 C 0.3025 0.64923 0.03045 0.0
C489 C 0.34331 0.65339 -0.00205 0.0
C490 C 0.26562 0.68646 0.03208 0.0
C491 C 0.26898 0.72783 -0.0008 0.0
C492 C 0.30993 0.73182 0.96587 0.0
C493 C 0.34712 0.69486 0.96623 0.0
C494 C 0.22318 0.6816 0.06902 0.0
C495 C 0.31405 0.77469 0.92933 0.0
C496 C 0.14878 0.79723 0.97015 0.0
C497 C 0.15465 0.84086 -0.00151 0.0
C498 C 0.18596 0.76028 0.96967 0.0
C499 C 0.22934 0.76667 -0.0007 0.0
C500 C 0.23493 0.81024 0.02884 0.0
C501 C 0.19781 0.84728 0.02743 0.0
C502 C 0.17925 0.71498 0.93664 0.0
C503 C 0.27991 0.81754 0.06216 0.0
H504 H 0.29994 0.61726 0.05527 0.0
H505 H 0.37861 0.69771 0.94084 0.0
H506 H 0.22118 0.71552 0.09283 0.0
H507 H 0.1871 0.67862 0.04879 0.0
H508 H 0.22736 0.64833 0.09355 0.0
H509 H 0.34765 0.7716 0.9051 0.0
H510 H 0.28033 0.7759 0.90519 0.0
H511 H 0.3158 0.8107 0.94981 0.0
H512 H 0.11554 0.79249 0.94747 0.0
H513 H 0.20207 0.88085 0.04973 0.0
H514 H 0.18488 0.6801 0.95833 0.0
H515 H 0.20779 0.71553 0.90653 0.0
H516 H 0.14159 0.71371 0.9192 0.0
H517 H 0.28434 0.78494 0.08746 0.0
H518 H 0.27695 0.85192 0.08521 0.0
H519 H 0.31429 0.82002 0.03913 0.0
C520 C 0.64545 0.29435 0.96878 0.0
C521 C 0.65208 0.33833 0.99644 0.0
C522 C 0.68221 0.25698 0.96851 0.0
C523 C 0.72594 0.26333 -0.00234 0.0
C524 C 0.73228 0.30725 0.02653 0.0
C525 C 0.69554 0.34462 0.02498 0.0
C526 C 0.67478 0.21129 0.93616 0.0
C527 C 0.77776 0.31467 0.05917 0.0
C528 C 0.80017 0.14656 0.02909 0.0
C529 C 0.84059 0.15076 0.9961 0.0
C530 C 0.76292 0.18344 0.03065 0.0
C531 C 0.7655 0.22442 -0.0028 0.0
C532 C 0.80587 0.22822 0.96316 0.0
C533 C 0.84349 0.19172 0.96366 0.0
C534 C 0.7211 0.17879 0.0683 0.0
C535 C 0.80915 0.27062 0.92601 0.0
H536 H 0.61197 0.28971 0.9464 0.0
H537 H 0.70036 0.37845 0.0468 0.0
H538 H 0.70428 0.20996 0.90702 0.0
H539 H 0.67835 0.17678 0.95885 0.0
H540 H 0.63768 0.21108 0.9175 0.0
H541 H 0.77566 0.3497 0.08141 0.0
H542 H 0.78194 0.28262 0.0852 0.0
H543 H 0.81191 0.31599 0.0357 0.0
H544 H 0.79831 0.11493 0.05441 0.0
H545 H 0.87465 0.19456 0.93789 0.0
H546 H 0.68465 0.17602 0.04873 0.0
H547 H 0.71971 0.21274 0.09212 0.0
H548 H 0.72555 0.14552 0.0928 0.0
H549 H 0.77395 0.2733 0.9042 0.0
H550 H 0.84079 0.26591 0.89956 0.0
H551 H 0.81399 0.30658 0.94609 0.0
C552 C 0.79949 0.84506 0.96039 0.0
C553 C 0.84311 0.83854 0.98866 0.0
C554 C 0.76278 0.80763 0.95865 0.0
C555 C 0.76936 0.7634 0.98701 0.0
C556 C 0.81332 0.75674 0.01573 0.0
C557 C 0.84996 0.79421 0.01574 0.0
C558 C 0.717 0.8154 0.9265 0.0
C559 C 0.8211 0.71066 0.04745 0.0
C560 C 0.65268 0.69137 0.02289 0.0
C561 C 0.65512 0.65046 0.99035 0.0
C562 C 0.69002 0.72814 0.0226 0.0
C563 C 0.7297 0.7246 0.98774 0.0
C564 C 0.73177 0.68374 0.95412 0.0
C565 C 0.69478 0.64663 0.9564 0.0
C566 C 0.68727 0.77045 0.05988 0.0
C567 C 0.77287 0.67937 0.91566 0.0
H568 H 0.79445 0.87914 0.93901 0.0
H569 H 0.88353 0.78932 0.03793 0.0
H570 H 0.71239 0.78349 0.90039 0.0
H571 H 0.6831 0.81678 0.95034 0.0
H572 H 0.71904 0.85051 0.90439 0.0
H573 H 0.85869 0.70984 0.06507 0.0
H574 H 0.79241 0.70945 0.0774 0.0
H575 H 0.8165 0.67637 0.02461 0.0
H576 H 0.62208 0.694 0.04935 0.0
H577 H 0.69625 0.61512 0.93093 0.0
H578 H 0.68313 0.80658 0.03997 0.0
H579 H 0.72244 0.77239 0.0818 0.0
H580 H 0.65547 0.76616 0.08622 0.0
H581 H 0.77387 0.71351 0.8921 0.0
H582 H 0.76794 0.6463 0.89099 0.0
H583 H 0.80967 0.67638 0.93454 0.0
C584 C 0.64583 0.52581 0.79451 0.0
C585 C 0.65074 0.49398 0.83579 0.0
C586 C 0.68271 0.52733 0.75726 0.0
C587 C 0.72458 0.49509 0.76077 0.0
C588 C 0.72916 0.46218 0.802 0.0
C589 C 0.6925 0.4626 0.83949 0.0
C590 C 0.67725 0.56395 0.71462 0.0
C591 C 0.77262 0.42637 0.80639 0.0
C592 C 0.79621 0.46785 0.64132 0.0
C593 C 0.83892 0.49747 0.64773 0.0
C594 C 0.75891 0.46621 0.67816 0.0
C595 C 0.76388 0.49614 0.72155 0.0
C596 C 0.80654 0.5269 0.72764 0.0
C597 C 0.84401 0.52656 0.69096 0.0
C598 C 0.7146 0.43195 0.67098 0.0
C599 C 0.8125 0.56035 0.77274 0.0
H600 H 0.61372 0.55046 0.79202 0.0
H601 H 0.696 0.43774 0.87133 0.0
H602 H 0.71031 0.58899 0.71322 0.0
H603 H 0.67573 0.54359 0.67855 0.0
H604 H 0.64306 0.5873 0.71811 0.0
H605 H 0.76944 0.40169 0.83965 0.0
H606 H 0.7749 0.40264 0.77244 0.0
H607 H 0.80817 0.44754 0.80902 0.0
H608 H 0.79259 0.44503 0.60801 0.0
H609 H 0.87692 0.54976 0.69562 0.0
H610 H 0.67953 0.45408 0.67034 0.0
H611 H 0.71189 0.40552 0.70285 0.0
H612 H 0.71711 0.41006 0.63577 0.0
H613 H 0.77938 0.58506 0.77661 0.0
H614 H 0.84652 0.58403 0.77039 0.0
H615 H 0.8148 0.53734 0.80715 0.0
C616 C 0.14417 0.52145 0.69686 0.0
C617 C 0.15105 0.49339 0.65318 0.0
C618 C 0.18104 0.52259 0.7341 0.0
C619 C 0.22513 0.49395 0.72793 0.0
C620 C 0.23174 0.46468 0.68434 0.0
C621 C 0.19486 0.4653 0.64711 0.0
C622 C 0.17312 0.55493 0.77969 0.0
C623 C 0.27761 0.43249 0.67719 0.0
C624 C 0.34193 0.52967 0.79992 0.0
C625 C 0.33904 0.49756 0.84113 0.0
C626 C 0.30465 0.52935 0.76306 0.0
C627 C 0.26459 0.49494 0.76689 0.0
C628 C 0.26225 0.46159 0.80793 0.0
C629 C 0.29907 0.46403 0.84516 0.0
C630 C 0.30778 0.5662 0.72039 0.0
C631 C 0.22103 0.42328 0.81257 0.0
H632 H 0.11042 0.54348 0.70138 0.0
H633 H 0.19993 0.44316 0.61355 0.0
H634 H 0.17293 0.53139 0.81381 0.0
H635 H 0.20443 0.5819 0.78349 0.0
H636 H 0.13743 0.57614 0.77802 0.0
H637 H 0.27619 0.41064 0.64192 0.0
H638 H 0.31163 0.4562 0.67668 0.0
H639 H 0.28146 0.40611 0.70899 0.0
H640 H 0.37287 0.55568 0.79706 0.0
H641 H 0.29733 0.43884 0.87683 0.0
H642 H 0.27465 0.59118 0.72107 0.0
H643 H 0.30737 0.54621 0.68408 0.0
H644 H 0.34205 0.58952 0.72223 0.0
H645 H 0.18562 0.44224 0.82291 0.0
H646 H 0.22957 0.39473 0.84147 0.0
H647 H 0.21476 0.40393 0.77642 0.0
C648 C 0.19369 0.45602 0.34245 0.0
C649 C 0.15621 0.49252 0.34149 0.0
C650 C 0.23085 0.45488 0.30545 0.0
C651 C 0.2313 0.49224 0.2679 0.0
C652 C 0.19404 0.52989 0.26763 0.0
C653 C 0.1563 0.52897 0.30398 0.0
C654 C 0.26919 0.41342 0.30617 0.0
C655 C 0.19409 0.57119 0.22911 0.0
C656 C 0.35326 0.5161 0.19949 0.0
C657 C 0.34417 0.49305 0.15332 0.0
C658 C 0.31677 0.51625 0.23714 0.0
C659 C 0.27056 0.49186 0.22867 0.0
C660 C 0.26152 0.46776 0.18243 0.0
C661 C 0.29826 0.46916 0.14505 0.0
C662 C 0.32725 0.54344 0.28549 0.0
C663 C 0.21314 0.44039 0.17249 0.0
H664 H 0.19317 0.42771 0.37148 0.0
H665 H 0.12738 0.55739 0.30376 0.0
H666 H 0.26813 0.39263 0.27028 0.0
H667 H 0.30727 0.42937 0.31 0.0
H668 H 0.26286 0.38659 0.33725 0.0
H669 H 0.16542 0.60016 0.2371 0.0
H670 H 0.23131 0.58945 0.22766 0.0
H671 H 0.18664 0.5553 0.19155 0.0
H672 H 0.38856 0.53498 0.20582 0.0
H673 H 0.29133 0.45088 0.10954 0.0
H674 H 0.3213 0.51819 0.31784 0.0
H675 H 0.30081 0.57516 0.28958 0.0
H676 H 0.36603 0.55819 0.28717 0.0
H677 H 0.20662 0.41193 0.20196 0.0
H678 H 0.21302 0.42148 0.13551 0.0
H679 H 0.18136 0.467 0.17379 0.0
C680 C 0.64993 0.47098 0.19259 0.0
C681 C 0.6563 0.49767 0.14796 0.0
C682 C 0.68725 0.47084 0.22938 0.0
C683 C 0.73136 0.49908 0.22175 0.0
C684 C 0.73772 0.52659 0.17697 0.0
C685 C 0.70032 0.525 0.14025 0.0
C686 C 0.67973 0.43999 0.27608 0.0
C687 C 0.78368 0.55818 0.16815 0.0
C688 C 0.80465 0.53407 0.33797 0.0
C689 C 0.8446 0.50034 0.33568 0.0
C690 C 0.7681 0.53489 0.3004 0.0
C691 C 0.77079 0.49988 0.26077 0.0
C692 C 0.81079 0.46523 0.25878 0.0
C693 C 0.84779 0.46651 0.29589 0.0
C694 C 0.72666 0.57315 0.30311 0.0
C695 C 0.8142 0.4265 0.21785 0.0
H696 H 0.61607 0.44945 0.19834 0.0
H697 H 0.70503 0.54602 0.10591 0.0
H698 H 0.70988 0.41163 0.27915 0.0
H699 H 0.6821 0.46413 0.30969 0.0
H700 H 0.64307 0.42048 0.27638 0.0
H701 H 0.78209 0.57862 0.13202 0.0
H702 H 0.78795 0.58579 0.19882 0.0
H703 H 0.81755 0.53425 0.16833 0.0
H704 H 0.80254 0.56041 0.3687 0.0
H705 H 0.87856 0.44016 0.29454 0.0
H706 H 0.69026 0.55407 0.30862 0.0
H707 H 0.72429 0.59423 0.26745 0.0
H708 H 0.73224 0.60016 0.33412 0.0
H709 H 0.77879 0.40499 0.21551 0.0
H710 H 0.84547 0.39987 0.22397 0.0
H711 H 0.81973 0.44519 0.18126 0.0
C712 C 0.3534 0.79254 0.4659 0.0
C713 C 0.34775 0.83425 0.49705 0.0
C714 C 0.31679 0.75498 0.46445 0.0
C715 C 0.27445 0.75865 0.49605 0.0
C716 C 0.26929 0.80019 0.52848 0.0
C717 C 0.30568 0.83793 0.528 0.0
C718 C 0.32293 0.71192 0.42844 0.0
C719 C 0.22535 0.80478 0.56367 0.0
C720 C 0.15483 0.68946 0.46397 0.0
C721 C 0.15895 0.64671 0.49395 0.0
C722 C 0.19279 0.72564 0.46338 0.0
C723 C 0.23506 0.71952 0.49469 0.0
C724 C 0.23918 0.67653 0.52534 0.0
C725 C 0.20134 0.64022 0.52403 0.0
C726 C 0.18767 0.77035 0.42926 0.0
C727 C 0.28305 0.66934 0.56015 0.0
H728 H 0.38579 0.79002 0.44165 0.0
H729 H 0.30163 0.87006 0.55241 0.0
H730 H 0.32375 0.67603 0.44919 0.0
H731 H 0.29048 0.71046 0.40263 0.0
H732 H 0.3577 0.71502 0.40591 0.0
H733 H 0.22829 0.83809 0.58832 0.0
H734 H 0.19011 0.8075 0.54199 0.0
H735 H 0.22261 0.77087 0.58744 0.0
H736 H 0.12221 0.6942 0.44035 0.0
H737 H 0.20426 0.60731 0.54754 0.0
H738 H 0.22103 0.77343 0.40479 0.0
H739 H 0.18567 0.80513 0.45176 0.0
H740 H 0.15378 0.76815 0.40534 0.0
H741 H 0.31842 0.66868 0.53853 0.0
H742 H 0.28024 0.63414 0.58205 0.0
H743 H 0.2854 0.70124 0.58658 0.0
C744 C 0.13925 0.28945 0.47194 0.0
C745 C 0.14863 0.33482 0.49646 0.0
C746 C 0.17559 0.25165 0.47051 0.0
C747 C 0.22186 0.25912 0.49509 0.0
C748 C 0.23119 0.30456 0.52057 0.0
C749 C 0.19462 0.3421 0.52048 0.0
C750 C 0.16482 0.20413 0.44199 0.0
C751 C 0.27959 0.31333 0.5483 0.0
C752 C 0.29799 0.14459 0.52994 0.0
C753 C 0.33605 0.14616 0.49411 0.0
C754 C 0.26075 0.18149 0.53103 0.0
C755 C 0.2607 0.21949 0.49414 0.0
C756 C 0.29841 0.22028 0.45698 0.0
C757 C 0.33627 0.18402 0.45801 0.0
C758 C 0.2219 0.18017 0.57198 0.0
C759 C 0.29894 0.25948 0.41634 0.0
H760 H 0.10388 0.28393 0.45293 0.0
H761 H 0.20178 0.37698 0.53986 0.0
H762 H 0.19282 0.19929 0.41176 0.0
H763 H 0.1681 0.17133 0.46714 0.0
H764 H 0.12689 0.20414 0.42511 0.0
H765 H 0.28086 0.3507 0.56638 0.0
H766 H 0.28451 0.28427 0.5775 0.0
H767 H 0.31171 0.31019 0.52227 0.0
H768 H 0.29827 0.11533 0.55798 0.0
H769 H 0.36567 0.18475 0.43011 0.0
H770 H 0.18462 0.17223 0.55566 0.0
H771 H 0.21956 0.21707 0.59081 0.0
H772 H 0.23026 0.15126 0.60056 0.0
H773 H 0.26209 0.26087 0.39731 0.0
H774 H 0.32833 0.25222 0.3879 0.0
H775 H 0.30565 0.29687 0.43297 0.0
C776 C 0.85366 0.69905 0.52803 0.0
C777 C 0.84687 0.6573 0.49715 0.0
C778 C 0.81752 0.73704 0.53015 0.0
C779 C 0.77452 0.73377 0.49943 0.0
C780 C 0.76798 0.69199 0.46758 0.0
C781 C 0.80395 0.65386 0.46738 0.0
C782 C 0.82505 0.78032 0.56561 0.0
C783 C 0.72329 0.68785 0.43332 0.0
C784 C 0.65569 0.80482 0.53008 0.0
C785 C 0.66003 0.84662 0.49887 0.0
C786 C 0.69368 0.76873 0.53209 0.0
C787 C 0.73604 0.77378 0.50071 0.0
C788 C 0.74065 0.81614 0.46927 0.0
C789 C 0.70282 0.85249 0.46929 0.0
C790 C 0.6882 0.72499 0.56737 0.0
C791 C 0.78457 0.82228 0.43432 0.0
H792 H 0.88673 0.70141 0.55138 0.0
H793 H 0.799 0.62172 0.44318 0.0
H794 H 0.82693 0.8159 0.54438 0.0
H795 H 0.79272 0.78315 0.59147 0.0
H796 H 0.85978 0.77645 0.58809 0.0
H797 H 0.72365 0.65277 0.41114 0.0
H798 H 0.68818 0.68913 0.45534 0.0
H799 H 0.72264 0.7201 0.40721 0.0
H800 H 0.62283 0.80069 0.55343 0.0
H801 H 0.706 0.8848 0.44505 0.0
H802 H 0.72293 0.7198 0.58948 0.0
H803 H 0.68201 0.69022 0.54565 0.0
H804 H 0.65639 0.72996 0.59359 0.0
H805 H 0.82033 0.81623 0.4544 0.0
H806 H 0.78545 0.85989 0.41675 0.0
H807 H 0.78229 0.79373 0.40431 0.0
C808 C 0.68779 0.15521 0.45567 0.0
C809 C 0.64753 0.158 0.489 0.0
C810 C 0.72409 0.19301 0.45424 0.0
C811 C 0.72077 0.23354 0.48815 0.0
C812 C 0.68024 0.2363 0.5221 0.0
C813 C 0.64355 0.19883 0.52151 0.0
C814 C 0.76608 0.18944 0.41666 0.0
C815 C 0.67617 0.27824 0.55968 0.0
C816 C 0.84174 0.30093 0.51846 0.0
C817 C 0.83657 0.34511 0.49078 0.0
C818 C 0.80394 0.26464 0.51849 0.0
C819 C 0.76057 0.27224 0.48912 0.0
C820 C 0.75539 0.31659 0.46065 0.0
C821 C 0.79324 0.35288 0.46238 0.0
C822 C 0.81021 0.2184 0.55033 0.0
C823 C 0.71023 0.32539 0.42792 0.0
H824 H 0.69047 0.12373 0.43025 0.0
H825 H 0.61251 0.20064 0.5475 0.0
H826 H 0.76793 0.22421 0.39408 0.0
H827 H 0.80237 0.18562 0.43637 0.0
H828 H 0.76154 0.15711 0.39097 0.0
H829 H 0.64348 0.27369 0.58486 0.0
H830 H 0.71057 0.27992 0.58283 0.0
H831 H 0.67278 0.3146 0.54003 0.0
H832 H 0.87505 0.29515 0.54083 0.0
H833 H 0.78944 0.38689 0.44063 0.0
H834 H 0.80853 0.18441 0.52665 0.0
H835 H 0.77914 0.21588 0.5777 0.0
H836 H 0.84621 0.21827 0.57103 0.0
H837 H 0.70626 0.29432 0.40071 0.0
H838 H 0.71265 0.36119 0.40697 0.0
H839 H 0.67583 0.32591 0.45105 0.0
C840 C 0.45781 0.34354 0.79936 0.0
C841 C 0.4932 0.34124 0.83783 0.0
C842 C 0.45582 0.30619 0.76259 0.0
C843 C 0.49127 0.26682 0.76355 0.0
C844 C 0.52766 0.26499 0.80197 0.0
C845 C 0.52756 0.30181 0.83926 0.0
C846 C 0.41568 0.30869 0.72296 0.0
C847 C 0.56698 0.22447 0.80343 0.0
C848 C 0.46636 0.1451 0.69497 0.0
C849 C 0.49226 0.15286 0.65012 0.0
C850 C 0.46468 0.18241 0.73181 0.0
C851 C 0.49076 0.22785 0.72404 0.0
C852 C 0.51718 0.23571 0.67886 0.0
C853 C 0.5171 0.1983 0.64216 0.0
C854 C 0.43489 0.17331 0.77888 0.0
C855 C 0.54656 0.28307 0.66976 0.0
H856 H 0.43102 0.37398 0.79873 0.0
H857 H 0.5551 0.30046 0.86898 0.0
H858 H 0.43302 0.31241 0.68549 0.0
H859 H 0.39368 0.2735 0.7229 0.0
H860 H 0.38973 0.34061 0.72876 0.0
H861 H 0.59459 0.23042 0.83386 0.0
H862 H 0.54895 0.18754 0.809 0.0
H863 H 0.58726 0.22299 0.76727 0.0
H864 H 0.44668 0.11014 0.70088 0.0
H865 H 0.53747 0.20414 0.60762 0.0
H866 H 0.40745 0.20394 0.78445 0.0
H867 H 0.46014 0.17326 0.81176 0.0
H868 H 0.41445 0.13715 0.77787 0.0
H869 H 0.52264 0.31641 0.67577 0.0
H870 H 0.56213 0.28477 0.63131 0.0
H871 H 0.5779 0.28532 0.69685 0.0
C872 C 0.52827 0.79493 0.64315 0.0
C873 C 0.50448 0.84085 0.65166 0.0
C874 C 0.52974 0.75808 0.68044 0.0
C875 C 0.50588 0.76707 0.72682 0.0
C876 C 0.48173 0.81335 0.73556 0.0
C877 C 0.4818 0.8499 0.69803 0.0
C878 C 0.55712 0.70972 0.67036 0.0
C879 C 0.45459 0.82376 0.78397 0.0
C880 C 0.46574 0.65353 0.80154 0.0
C881 C 0.50136 0.65304 0.8398 0.0
C882 C 0.46636 0.69098 0.7649 0.0
C883 C 0.50472 0.72748 0.76567 0.0
C884 C 0.54143 0.72644 0.80381 0.0
C885 C 0.53876 0.68962 0.84107 0.0
C886 C 0.42583 0.69169 0.72561 0.0
C887 C 0.58356 0.76402 0.80513 0.0
H888 H 0.5463 0.78805 0.60753 0.0
H889 H 0.46307 0.88523 0.7046 0.0
H890 H 0.58861 0.70572 0.69708 0.0
H891 H 0.53186 0.67736 0.6762 0.0
H892 H 0.57218 0.70791 0.63171 0.0
H893 H 0.44116 0.863 0.78635 0.0
H894 H 0.42192 0.79839 0.78722 0.0
H895 H 0.47929 0.81628 0.81641 0.0
H896 H 0.43673 0.62522 0.80098 0.0
H897 H 0.56651 0.68872 0.87063 0.0
H898 H 0.4424 0.68491 0.68821 0.0
H899 H 0.40761 0.72896 0.72451 0.0
H900 H 0.39671 0.66294 0.73257 0.0
H901 H 0.60454 0.76296 0.76935 0.0
H902 H 0.61007 0.75691 0.83631 0.0
H903 H 0.56825 0.80234 0.80925 0.0
C904 C 0.52633 0.69559 0.14473 0.0
C905 C 0.49901 0.65141 0.15146 0.0
C906 C 0.52705 0.73267 0.18178 0.0
C907 C 0.49868 0.72585 0.22594 0.0
C908 C 0.47033 0.68162 0.23253 0.0
C909 C 0.47146 0.64453 0.19547 0.0
C910 C 0.55874 0.77876 0.17398 0.0
C911 C 0.43846 0.6737 0.27846 0.0
C912 C 0.53257 0.79945 0.34239 0.0
C913 C 0.49944 0.83988 0.33924 0.0
C914 C 0.53318 0.76232 0.30537 0.0
C915 C 0.49872 0.76504 0.26526 0.0
C916 C 0.46454 0.8054 0.2625 0.0
C917 C 0.46586 0.84283 0.29918 0.0
C918 C 0.57105 0.72057 0.30887 0.0
C919 C 0.42638 0.80886 0.22102 0.0
H920 H 0.54796 0.70071 0.11084 0.0
H921 H 0.44992 0.61054 0.20043 0.0
H922 H 0.53562 0.81297 0.17776 0.0
H923 H 0.58817 0.78049 0.20316 0.0
H924 H 0.57697 0.7792 0.13669 0.0
H925 H 0.41682 0.6383 0.2767 0.0
H926 H 0.4624 0.67287 0.3123 0.0
H927 H 0.41191 0.70528 0.28292 0.0
H928 H 0.55874 0.79748 0.37329 0.0
H929 H 0.43991 0.87393 0.29715 0.0
H930 H 0.59427 0.71967 0.2745 0.0
H931 H 0.55165 0.68402 0.31156 0.0
H932 H 0.59613 0.72469 0.34172 0.0
H933 H 0.44555 0.81173 0.18437 0.0
H934 H 0.40123 0.84165 0.22539 0.0
H935 H 0.40326 0.77441 0.22016 0.0
C936 C 0.51901 0.14421 0.29326 0.0
C937 C 0.49298 0.15184 0.33807 0.0
C938 C 0.51982 0.18106 0.25602 0.0
C939 C 0.49295 0.22607 0.2634 0.0
C940 C 0.46576 0.23356 0.30819 0.0
C941 C 0.46666 0.19656 0.34534 0.0
C942 C 0.5503 0.17226 0.20932 0.0
C943 C 0.43534 0.28038 0.31665 0.0
C944 C 0.53002 0.34144 0.18974 0.0
C945 C 0.49638 0.33951 0.14973 0.0
C946 C 0.52976 0.30429 0.22673 0.0
C947 C 0.49377 0.26552 0.22439 0.0
C948 C 0.45897 0.26414 0.18451 0.0
C949 C 0.46134 0.30074 0.14705 0.0
C950 C 0.56823 0.3063 0.26801 0.0
C951 C 0.41927 0.2241 0.18141 0.0
H952 H 0.53968 0.10978 0.28776 0.0
H953 H 0.44608 0.20226 0.37978 0.0
H954 H 0.52682 0.17741 0.17555 0.0
H955 H 0.58101 0.2001 0.20735 0.0
H956 H 0.56683 0.13417 0.20824 0.0
H957 H 0.41628 0.28036 0.35355 0.0
H958 H 0.4597 0.31385 0.31436 0.0
H959 H 0.40664 0.28401 0.2869 0.0
H960 H 0.55724 0.37144 0.19147 0.0
H961 H 0.43506 0.29975 0.11622 0.0
H962 H 0.58943 0.27065 0.26941 0.0
H963 H 0.54938 0.31088 0.30465 0.0
H964 H 0.59512 0.33755 0.26297 0.0
H965 H 0.43705 0.18726 0.17459 0.0
H966 H 0.39197 0.23142 0.15098 0.0
H967 H 0.39866 0.22143 0.21732 0.0
loop_
_geom_bond_atom_site_label_1
_geom_bond_atom_site_label_2
_geom_bond_distance
_geom_bond_site_symmetry_2
_ccdc_geom_bond_type
C0 O28 1.281 . S
C0 O37 1.281 . S
C1 O29 1.281 . S
C1 O47 1.281 . S
O2 Hf6 2.202 . S
O2 Hf8 2.202 . S
O2 Hf10 2.202 . S
O3 Hf6 2.202 1_665 S
O3 Hf12 2.202 1_655 S
O3 Hf13 2.202 1_565 S
O4 Hf6 2.072 1_565 S
O4 Hf10 2.072 1_565 S
O4 Hf12 2.072 . S
O5 Hf6 2.072 1_655 S
O5 Hf8 2.072 1_655 S
O5 Hf13 2.072 . S
Hf6 O2 2.202 . S
Hf6 O3 2.202 1_445 S
Hf6 O4 2.072 1_545 S
Hf6 O5 2.072 1_455 S
Hf6 O20 2.209 1_545 S
Hf6 O21 2.209 1_455 S
Hf6 O36 2.209 1_545 S
Hf6 O37 2.209 1_455 S
O7 Hf8 2.072 1_556 S
O7 Hf10 2.072 1_556 S
O7 Hf15 2.072 . S
Hf8 O2 2.202 . S
Hf8 O5 2.072 1_455 S
Hf8 O7 2.072 1_554 S
Hf8 O11 2.202 1_454 S
Hf8 O27 2.209 1_554 S
Hf8 O28 2.209 1_455 S
Hf8 O43 2.209 1_554 S
Hf8 O47 2.209 1_455 S
O9 Hf10 2.202 1_566 S
O9 Hf12 2.202 1_556 S
O9 Hf15 2.202 1_565 S
Hf10 O2 2.202 . S
Hf10 O4 2.072 1_545 S
Hf10 O7 2.072 1_554 S
Hf10 O9 2.202 1_544 S
Hf10 O32 2.209 1_545 S
Hf10 O33 2.209 1_554 S
Hf10 O40 2.209 1_554 S
Hf10 O42 2.209 1_545 S
O11 Hf8 2.202 1_656 S
O11 Hf13 2.202 1_556 S
O11 Hf15 2.202 1_655 S
Hf12 O3 2.202 1_455 S
Hf12 O4 2.072 . S
Hf12 O9 2.202 1_554 S
Hf12 O14 2.072 1_454 S
Hf12 O24 2.209 1_454 S
Hf12 O25 2.209 . S
Hf12 O45 2.209 . S
Hf12 O46 2.209 1_454 S
Hf13 O3 2.202 1_545 S
Hf13 O5 2.072 . S
Hf13 O11 2.202 1_554 S
Hf13 O14 2.072 1_544 S
Hf13 O29 2.209 . S
Hf13 O30 2.209 1_544 S
Hf13 O39 2.209 1_544 S
Hf13 O44 2.209 . S
O14 Hf12 2.072 1_656 S
O14 Hf13 2.072 1_566 S
O14 Hf15 2.072 1_665 S
Hf15 O7 2.072 . S
Hf15 O9 2.202 1_545 S
Hf15 O11 2.202 1_455 S
Hf15 O14 2.072 1_445 S
Hf15 O23 2.209 1_445 S
Hf15 O26 2.209 . S
Hf15 O35 2.209 . S
Hf15 O38 2.209 1_445 S
C16 O30 1.281 . S
C16 O46 1.281 . S
C17 O33 1.281 . S
C17 O43 1.281 . S
C18 O32 1.281 . S
C18 O45 1.281 . S
C19 O20 1.281 . S
C19 O42 1.281 . S
O20 Hf6 2.209 1_565 S
O20 C19 1.281 . S
O21 Hf6 2.209 1_655 S
O21 C22 1.281 . S
C22 O21 1.281 . S
C22 O44 1.281 . S
O23 Hf15 2.209 1_665 S
O23 C34 1.281 . S
O24 Hf12 2.209 1_656 S
O24 C41 1.281 . S
O25 Hf12 2.209 . S
O25 C49 1.281 . S
O26 Hf15 2.209 . S
O26 C31 1.281 . S
O27 Hf8 2.209 1_556 S
O27 C48 1.281 . S
O28 C0 1.281 . S
O28 Hf8 2.209 1_655 S
O29 C1 1.281 . S
O29 Hf13 2.209 . S
O30 Hf13 2.209 1_566 S
O30 C16 1.281 . S
C31 O26 1.281 . S
C31 O40 1.281 . S
O32 Hf10 2.209 1_565 S
O32 C18 1.281 . S
O33 Hf10 2.209 1_556 S
O33 C17 1.281 . S
C34 O23 1.281 . S
C34 O39 1.281 . S
O35 Hf15 2.209 . S
O35 C48 1.281 . S
O36 Hf6 2.209 1_565 S
O36 C49 1.281 . S
O37 C0 1.281 . S
O37 Hf6 2.209 1_655 S
O38 Hf15 2.209 1_665 S
O38 C41 1.281 . S
O39 Hf13 2.209 1_566 S
O39 C34 1.281 . S
O40 Hf10 2.209 1_556 S
O40 C31 1.281 . S
C41 O24 1.281 . S
C41 O38 1.281 . S
O42 Hf10 2.209 1_565 S
O42 C19 1.281 . S
O43 Hf8 2.209 1_556 S
O43 C17 1.281 . S
O44 Hf13 2.209 . S
O44 C22 1.281 . S
O45 Hf12 2.209 . S
O45 C18 1.281 . S
O46 Hf12 2.209 1_656 S
O46 C16 1.281 . S
O47 C1 1.281 . S
O47 Hf8 2.209 1_655 S
C48 O27 1.281 . S
C48 O35 1.281 . S
C49 O25 1.281 . S
C49 O36 1.281 . S
C50 O78 1.281 . S
C50 O87 1.281 . S
C51 O79 1.281 . S
C51 O97 1.281 . S
O52 Hf56 2.202 . S
O52 Hf58 2.202 . S
O52 Hf60 2.202 . S
O53 Hf56 2.202 1_655 S
O53 Hf62 2.202 1_655 S
O53 Hf63 2.202 . S
O54 Hf56 2.072 . S
O54 Hf60 2.072 . S
O54 Hf62 2.072 . S
O55 Hf56 2.072 1_655 S
O55 Hf58 2.072 1_655 S
O55 Hf63 2.072 . S
Hf56 O52 2.202 . S
Hf56 O53 2.202 1_455 S
Hf56 O54 2.072 . S
Hf56 O55 2.072 1_455 S
Hf56 O70 2.209 . S
Hf56 O71 2.209 1_455 S
Hf56 O86 2.209 . S
Hf56 O87 2.209 1_455 S
O57 Hf58 2.072 . S
O57 Hf60 2.072 . S
O57 Hf65 2.072 . S
Hf58 O52 2.202 . S
Hf58 O55 2.072 1_455 S
Hf58 O57 2.072 . S
Hf58 O61 2.202 1_455 S
Hf58 O77 2.209 . S
Hf58 O78 2.209 1_455 S
Hf58 O93 2.209 . S
Hf58 O97 2.209 1_455 S
O59 Hf60 2.202 . S
O59 Hf62 2.202 . S
O59 Hf65 2.202 . S
Hf60 O52 2.202 . S
Hf60 O54 2.072 . S
Hf60 O57 2.072 . S
Hf60 O59 2.202 . S
Hf60 O82 2.209 . S
Hf60 O83 2.209 . S
Hf60 O90 2.209 . S
Hf60 O92 2.209 . S
O61 Hf58 2.202 1_655 S
O61 Hf63 2.202 . S
O61 Hf65 2.202 1_655 S
Hf62 O53 2.202 1_455 S
Hf62 O54 2.072 . S
Hf62 O59 2.202 . S
Hf62 O64 2.072 1_455 S
Hf62 O74 2.209 1_455 S
Hf62 O75 2.209 . S
Hf62 O95 2.209 . S
Hf62 O96 2.209 1_455 S
Hf63 O53 2.202 . S
Hf63 O55 2.072 . S
Hf63 O61 2.202 . S
Hf63 O64 2.072 . S
Hf63 O79 2.209 . S
Hf63 O80 2.209 . S
Hf63 O89 2.209 . S
Hf63 O94 2.209 . S
O64 Hf62 2.072 1_655 S
O64 Hf63 2.072 . S
O64 Hf65 2.072 1_655 S
Hf65 O57 2.072 . S
Hf65 O59 2.202 . S
Hf65 O61 2.202 1_455 S
Hf65 O64 2.072 1_455 S
Hf65 O73 2.209 1_455 S
Hf65 O76 2.209 . S
Hf65 O85 2.209 . S
Hf65 O88 2.209 1_455 S
C66 O80 1.281 . S
C66 O96 1.281 . S
C67 O83 1.281 . S
C67 O93 1.281 . S
C68 O82 1.281 . S
C68 O95 1.281 . S
C69 O70 1.281 . S
C69 O92 1.281 . S
O70 Hf56 2.209 . S
O70 C69 1.281 . S
O71 Hf56 2.209 1_655 S
O71 C72 1.281 . S
C72 O71 1.281 . S
C72 O94 1.281 . S
O73 Hf65 2.209 1_655 S
O73 C84 1.281 . S
O74 Hf62 2.209 1_655 S
O74 C91 1.281 . S
O75 Hf62 2.209 . S
O75 C99 1.281 . S
O76 Hf65 2.209 . S
O76 C81 1.281 . S
O77 Hf58 2.209 . S
O77 C98 1.281 . S
O78 C50 1.281 . S
O78 Hf58 2.209 1_655 S
O79 C51 1.281 . S
O79 Hf63 2.209 . S
O80 Hf63 2.209 . S
O80 C66 1.281 . S
C81 O76 1.281 . S
C81 O90 1.281 . S
O82 Hf60 2.209 . S
O82 C68 1.281 . S
O83 Hf60 2.209 . S
O83 C67 1.281 . S
C84 O73 1.281 . S
C84 O89 1.281 . S
O85 Hf65 2.209 . S
O85 C98 1.281 . S
O86 Hf56 2.209 . S
O86 C99 1.281 . S
O87 C50 1.281 . S
O87 Hf56 2.209 1_655 S
O88 Hf65 2.209 1_655 S
O88 C91 1.281 . S
O89 Hf63 2.209 . S
O89 C84 1.281 . S
O90 Hf60 2.209 . S
O90 C81 1.281 . S
C91 O74 1.281 . S
C91 O88 1.281 . S
O92 Hf60 2.209 . S
O92 C69 1.281 . S
O93 Hf58 2.209 . S
O93 C67 1.281 . S
O94 Hf63 2.209 . S
O94 C72 1.281 . S
O95 Hf62 2.209 . S
O95 C68 1.281 . S
O96 Hf62 2.209 1_655 S
O96 C66 1.281 . S
O97 C51 1.281 . S
O97 Hf58 2.209 1_655 S
C98 O77 1.281 . S
C98 O85 1.281 . S
C99 O75 1.281 . S
C99 O86 1.281 . S
C100 O128 1.281 . S
C100 O137 1.281 . S
C101 O129 1.281 . S
C101 O147 1.281 . S
O102 Hf106 2.202 . S
O102 Hf108 2.202 . S
O102 Hf110 2.202 . S
O103 Hf106 2.202 1_565 S
O103 Hf112 2.202 . S
O103 Hf113 2.202 1_565 S
O104 Hf106 2.072 1_565 S
O104 Hf110 2.072 1_565 S
O104 Hf112 2.072 . S
O105 Hf106 2.072 . S
O105 Hf108 2.072 . S
O105 Hf113 2.072 . S
Hf106 O102 2.202 . S
Hf106 O103 2.202 1_545 S
Hf106 O104 2.072 1_545 S
Hf106 O105 2.072 . S
Hf106 O120 2.209 1_545 S
Hf106 O121 2.209 . S
Hf106 O136 2.209 1_545 S
Hf106 O137 2.209 . S
O107 Hf108 2.072 . S
O107 Hf110 2.072 . S
O107 Hf115 2.072 . S
Hf108 O102 2.202 . S
Hf108 O105 2.072 . S
Hf108 O107 2.072 . S
Hf108 O111 2.202 . S
Hf108 O127 2.209 . S
Hf108 O128 2.209 . S
Hf108 O143 2.209 . S
Hf108 O147 2.209 . S
O109 Hf110 2.202 1_565 S
O109 Hf112 2.202 . S
O109 Hf115 2.202 1_565 S
Hf110 O102 2.202 . S
Hf110 O104 2.072 1_545 S
Hf110 O107 2.072 . S
Hf110 O109 2.202 1_545 S
Hf110 O132 2.209 1_545 S
Hf110 O133 2.209 . S
Hf110 O140 2.209 . S
Hf110 O142 2.209 1_545 S
O111 Hf108 2.202 . S
O111 Hf113 2.202 . S
O111 Hf115 2.202 . S
Hf112 O103 2.202 . S
Hf112 O104 2.072 . S
Hf112 O109 2.202 . S
Hf112 O114 2.072 . S
Hf112 O124 2.209 . S
Hf112 O125 2.209 . S
Hf112 O145 2.209 . S
Hf112 O146 2.209 . S
Hf113 O103 2.202 1_545 S
Hf113 O105 2.072 . S
Hf113 O111 2.202 . S
Hf113 O114 2.072 1_545 S
Hf113 O129 2.209 . S
Hf113 O130 2.209 1_545 S
Hf113 O139 2.209 1_545 S
Hf113 O144 2.209 . S
O114 Hf112 2.072 . S
O114 Hf113 2.072 1_565 S
O114 Hf115 2.072 1_565 S
Hf115 O107 2.072 . S
Hf115 O109 2.202 1_545 S
Hf115 O111 2.202 . S
Hf115 O114 2.072 1_545 S
Hf115 O123 2.209 1_545 S
Hf115 O126 2.209 . S
Hf115 O135 2.209 . S
Hf115 O138 2.209 1_545 S
C116 O130 1.281 . S
C116 O146 1.281 . S
C117 O133 1.281 . S
C117 O143 1.281 . S
C118 O132 1.281 . S
C118 O145 1.281 . S
C119 O120 1.281 . S
C119 O142 1.281 . S
O120 Hf106 2.209 1_565 S
O120 C119 1.281 . S
O121 Hf106 2.209 . S
O121 C122 1.281 . S
C122 O121 1.281 . S
C122 O144 1.281 . S
O123 Hf115 2.209 1_565 S
O123 C134 1.281 . S
O124 Hf112 2.209 . S
O124 C141 1.281 . S
O125 Hf112 2.209 . S
O125 C149 1.281 . S
O126 Hf115 2.209 . S
O126 C131 1.281 . S
O127 Hf108 2.209 . S
O127 C148 1.281 . S
O128 C100 1.281 . S
O128 Hf108 2.209 . S
O129 C101 1.281 . S
O129 Hf113 2.209 . S
O130 Hf113 2.209 1_565 S
O130 C116 1.281 . S
C131 O126 1.281 . S
C131 O140 1.281 . S
O132 Hf110 2.209 1_565 S
O132 C118 1.281 . S
O133 Hf110 2.209 . S
O133 C117 1.281 . S
C134 O123 1.281 . S
C134 O139 1.281 . S
O135 Hf115 2.209 . S
O135 C148 1.281 . S
O136 Hf106 2.209 1_565 S
O136 C149 1.281 . S
O137 C100 1.281 . S
O137 Hf106 2.209 . S
O138 Hf115 2.209 1_565 S
O138 C141 1.281 . S
O139 Hf113 2.209 1_565 S
O139 C134 1.281 . S
O140 Hf110 2.209 . S
O140 C131 1.281 . S
C141 O124 1.281 . S
C141 O138 1.281 . S
O142 Hf110 2.209 1_565 S
O142 C119 1.281 . S
O143 Hf108 2.209 . S
O143 C117 1.281 . S
O144 Hf113 2.209 . S
O144 C122 1.281 . S
O145 Hf112 2.209 . S
O145 C118 1.281 . S
O146 Hf112 2.209 . S
O146 C116 1.281 . S
O147 C101 1.281 . S
O147 Hf108 2.209 . S
C148 O127 1.281 . S
C148 O135 1.281 . S
C149 O125 1.281 . S
C149 O136 1.281 . S
C150 O178 1.281 . S
C150 O187 1.281 . S
C151 O179 1.281 . S
C151 O197 1.281 . S
O152 Hf156 2.202 . S
O152 Hf158 2.202 . S
O152 Hf160 2.202 . S
O153 Hf156 2.202 . S
O153 Hf162 2.202 . S
O153 Hf163 2.202 . S
O154 Hf156 2.072 . S
O154 Hf160 2.072 . S
O154 Hf162 2.072 . S
O155 Hf156 2.072 . S
O155 Hf158 2.072 . S
O155 Hf163 2.072 . S
Hf156 O152 2.202 . S
Hf156 O153 2.202 . S
Hf156 O154 2.072 . S
Hf156 O155 2.072 . S
Hf156 O170 2.209 . S
Hf156 O171 2.209 . S
Hf156 O186 2.209 . S
Hf156 O187 2.209 . S
O157 Hf158 2.072 1_556 S
O157 Hf160 2.072 1_556 S
O157 Hf165 2.072 . S
Hf158 O152 2.202 . S
Hf158 O155 2.072 . S
Hf158 O157 2.072 1_554 S
Hf158 O161 2.202 1_554 S
Hf158 O177 2.209 1_554 S
Hf158 O178 2.209 . S
Hf158 O193 2.209 1_554 S
Hf158 O197 2.209 . S
O159 Hf160 2.202 1_556 S
O159 Hf162 2.202 1_556 S
O159 Hf165 2.202 . S
Hf160 O152 2.202 . S
Hf160 O154 2.072 . S
Hf160 O157 2.072 1_554 S
Hf160 O159 2.202 1_554 S
Hf160 O182 2.209 . S
Hf160 O183 2.209 1_554 S
Hf160 O190 2.209 1_554 S
Hf160 O192 2.209 . S
O161 Hf158 2.202 1_556 S
O161 Hf163 2.202 1_556 S
O161 Hf165 2.202 . S
Hf162 O153 2.202 . S
Hf162 O154 2.072 . S
Hf162 O159 2.202 1_554 S
Hf162 O164 2.072 1_554 S
Hf162 O174 2.209 1_554 S
Hf162 O175 2.209 . S
Hf162 O195 2.209 . S
Hf162 O196 2.209 1_554 S
Hf163 O153 2.202 . S
Hf163 O155 2.072 . S
Hf163 O161 2.202 1_554 S
Hf163 O164 2.072 1_554 S
Hf163 O179 2.209 . S
Hf163 O180 2.209 1_554 S
Hf163 O189 2.209 1_554 S
Hf163 O194 2.209 . S
O164 Hf162 2.072 1_556 S
O164 Hf163 2.072 1_556 S
O164 Hf165 2.072 . S
Hf165 O157 2.072 . S
Hf165 O159 2.202 . S
Hf165 O161 2.202 . S
Hf165 O164 2.072 . S
Hf165 O173 2.209 . S
Hf165 O176 2.209 . S
Hf165 O185 2.209 . S
Hf165 O188 2.209 . S
C166 O180 1.281 . S
C166 O196 1.281 . S
C167 O183 1.281 . S
C167 O193 1.281 . S
C168 O182 1.281 . S
C168 O195 1.281 . S
C169 O170 1.281 . S
C169 O192 1.281 . S
O170 Hf156 2.209 . S
O170 C169 1.281 . S
O171 Hf156 2.209 . S
O171 C172 1.281 . S
C172 O171 1.281 . S
C172 O194 1.281 . S
O173 Hf165 2.209 . S
O173 C184 1.281 . S
O174 Hf162 2.209 1_556 S
O174 C191 1.281 . S
O175 Hf162 2.209 . S
O175 C199 1.281 . S
O176 Hf165 2.209 . S
O176 C181 1.281 . S
O177 Hf158 2.209 1_556 S
O177 C198 1.281 . S
O178 C150 1.281 . S
O178 Hf158 2.209 . S
O179 C151 1.281 . S
O179 Hf163 2.209 . S
O180 Hf163 2.209 1_556 S
O180 C166 1.281 . S
C181 O176 1.281 . S
C181 O190 1.281 . S
O182 Hf160 2.209 . S
O182 C168 1.281 . S
O183 Hf160 2.209 1_556 S
O183 C167 1.281 . S
C184 O173 1.281 . S
C184 O189 1.281 . S
O185 Hf165 2.209 . S
O185 C198 1.281 . S
O186 Hf156 2.209 . S
O186 C199 1.281 . S
O187 C150 1.281 . S
O187 Hf156 2.209 . S
O188 Hf165 2.209 . S
O188 C191 1.281 . S
O189 Hf163 2.209 1_556 S
O189 C184 1.281 . S
O190 Hf160 2.209 1_556 S
O190 C181 1.281 . S
C191 O174 1.281 . S
C191 O188 1.281 . S
O192 Hf160 2.209 . S
O192 C169 1.281 . S
O193 Hf158 2.209 1_556 S
O193 C167 1.281 . S
O194 Hf163 2.209 . S
O194 C172 1.281 . S
O195 Hf162 2.209 . S
O195 C168 1.281 . S
O196 Hf162 2.209 1_556 S
O196 C166 1.281 . S
O197 C151 1.281 . S
O197 Hf158 2.209 . S
C198 O177 1.281 . S
C198 O185 1.281 . S
C199 O175 1.281 . S
C199 O186 1.281 . S
C200 C201 1.391 1_455 S
C200 C202 1.394 . S
C200 H216 0.931 . S
C201 C200 1.391 1_655 S
C201 C205 1.376 . S
C202 C200 1.394 . S
C202 C203 1.369 1_455 S
C202 C206 1.531 . S
C203 C202 1.369 1_655 S
C203 C204 1.410 . S
C203 C211 1.503 . S
C204 C203 1.410 . S
C204 C205 1.392 . S
C204 C207 1.511 . S
C205 C201 1.376 . S
C205 C204 1.392 . S
C205 H217 0.929 . S
C206 C202 1.531 . S
C206 H218 0.960 . S
C206 H219 0.962 . S
C206 H220 0.960 . S
C207 C204 1.511 . S
C207 H221 0.961 . S
C207 H222 0.961 . S
C207 H223 0.961 . S
C208 C209 1.365 1_455 S
C208 C210 1.363 1_455 S
C208 H224 0.937 . S
C209 C208 1.365 1_655 S
C209 C213 1.408 . S
C210 C208 1.363 1_655 S
C210 C211 1.371 . S
C210 C214 1.523 1_655 S
C211 C203 1.503 . S
C211 C210 1.371 . S
C211 C212 1.403 . S
C212 C211 1.403 . S
C212 C213 1.404 . S
C212 C215 1.539 . S
C213 C209 1.408 . S
C213 C212 1.404 . S
C213 H225 0.930 . S
C214 C210 1.523 1_455 S
C214 H226 0.956 . S
C214 H227 0.961 1_455 S
C214 H228 0.961 . S
C215 C212 1.539 . S
C215 H229 0.958 . S
C215 H230 0.961 . S
C215 H231 0.960 . S
H216 C200 0.931 . S
H217 C205 0.929 . S
H218 C206 0.960 . S
H219 C206 0.962 . S
H220 C206 0.960 . S
H221 C207 0.961 . S
H222 C207 0.961 . S
H223 C207 0.961 . S
H224 C208 0.937 . S
H225 C213 0.930 . S
H226 C214 0.956 . S
H227 C214 0.961 1_655 S
H228 C214 0.961 . S
H229 C215 0.958 . S
H230 C215 0.961 . S
H231 C215 0.960 . S
C232 C233 1.391 1_565 S
C232 C234 1.394 . S
C232 H248 0.931 . S
C233 C232 1.391 1_545 S
C233 C237 1.376 . S
C234 C232 1.394 . S
C234 C235 1.369 . S
C234 C238 1.531 . S
C235 C234 1.369 . S
C235 C236 1.410 1_565 S
C235 C243 1.503 1_565 S
C236 C235 1.410 1_545 S
C236 C237 1.392 . S
C236 C239 1.511 . S
C237 C233 1.376 . S
C237 C236 1.392 . S
C237 H249 0.929 . S
C238 C234 1.531 . S
C238 H250 0.960 . S
C238 H251 0.962 . S
C238 H252 0.960 . S
C239 C236 1.511 . S
C239 H253 0.961 . S
C239 H254 0.961 . S
C239 H255 0.961 . S
C240 C241 1.370 . S
C240 C242 1.363 . S
C240 H256 0.931 . S
C241 C240 1.370 . S
C241 C245 1.408 1_545 S
C242 C240 1.363 . S
C242 C243 1.370 . S
C242 C246 1.524 . S
C243 C235 1.503 1_545 S
C243 C242 1.370 . S
C243 C244 1.403 1_545 S
C244 C243 1.403 1_565 S
C244 C245 1.404 . S
C244 C247 1.539 . S
C245 C241 1.408 1_565 S
C245 C244 1.404 . S
C245 H257 0.930 . S
C246 C242 1.524 . S
C246 H258 0.956 . S
C246 H259 0.961 . S
C246 H260 0.961 . S
C247 C244 1.539 . S
C247 H261 0.958 . S
C247 H262 0.961 . S
C247 H263 0.960 . S
H248 C232 0.931 . S
H249 C237 0.929 . S
H250 C238 0.960 . S
H251 C238 0.962 . S
H252 C238 0.960 . S
H253 C239 0.961 . S
H254 C239 0.961 . S
H255 C239 0.961 . S
H256 C240 0.931 . S
H257 C245 0.930 . S
H258 C246 0.956 . S
H259 C246 0.961 . S
H260 C246 0.961 . S
H261 C247 0.958 . S
H262 C247 0.961 . S
H263 C247 0.960 . S
C264 C265 1.391 1_655 S
C264 C266 1.394 . S
C264 H280 0.931 . S
C265 C264 1.391 1_455 S
C265 C269 1.376 . S
C266 C264 1.394 . S
C266 C267 1.369 1_655 S
C266 C270 1.531 . S
C267 C266 1.369 1_455 S
C267 C268 1.410 . S
C267 C275 1.503 . S
C268 C267 1.410 . S
C268 C269 1.392 . S
C268 C271 1.511 . S
C269 C265 1.376 . S
C269 C268 1.392 . S
C269 H281 0.929 . S
C270 C266 1.531 . S
C270 H282 0.960 . S
C270 H283 0.962 . S
C270 H284 0.960 . S
C271 C268 1.511 . S
C271 H285 0.961 . S
C271 H286 0.961 . S
C271 H287 0.961 . S
C272 C273 1.370 1_655 S
C272 C274 1.363 . S
C272 H288 0.931 . S
C273 C272 1.370 1_455 S
C273 C277 1.408 . S
C274 C272 1.363 . S
C274 C275 1.370 1_655 S
C274 C278 1.524 . S
C275 C267 1.503 . S
C275 C274 1.370 1_455 S
C275 C276 1.403 . S
C276 C275 1.403 . S
C276 C277 1.404 . S
C276 C279 1.539 . S
C277 C273 1.408 . S
C277 C276 1.404 . S
C277 H289 0.930 . S
C278 C274 1.524 . S
C278 H290 0.956 . S
C278 H291 0.961 . S
C278 H292 0.961 . S
C279 C276 1.539 . S
C279 H293 0.958 . S
C279 H294 0.961 . S
C279 H295 0.960 . S
H280 C264 0.931 . S
H281 C269 0.929 . S
H282 C270 0.960 . S
H283 C270 0.962 . S
H284 C270 0.960 . S
H285 C271 0.961 . S
H286 C271 0.961 . S
H287 C271 0.961 . S
H288 C272 0.931 . S
H289 C277 0.930 . S
H290 C278 0.956 . S
H291 C278 0.961 . S
H292 C278 0.961 . S
H293 C279 0.958 . S
H294 C279 0.961 . S
H295 C279 0.960 . S
C296 C297 1.391 . S
C296 C298 1.394 . S
C296 H312 0.931 . S
C297 C296 1.391 . S
C297 C301 1.376 1_565 S
C298 C296 1.394 . S
C298 C299 1.369 . S
C298 C302 1.531 . S
C299 C298 1.369 . S
C299 C300 1.410 1_565 S
C299 C307 1.503 . S
C300 C299 1.410 1_545 S
C300 C301 1.392 . S
C300 C303 1.511 . S
C301 C297 1.376 1_545 S
C301 C300 1.392 . S
C301 H313 0.929 . S
C302 C298 1.531 . S
C302 H314 0.960 . S
C302 H315 0.962 . S
C302 H316 0.960 . S
C303 C300 1.511 . S
C303 H317 0.961 . S
C303 H318 0.961 . S
C303 H319 0.961 . S
C304 C305 1.370 . S
C304 C306 1.363 . S
C304 H320 0.931 . S
C305 C304 1.370 . S
C305 C309 1.408 1_565 S
C306 C304 1.363 . S
C306 C307 1.370 . S
C306 C310 1.524 . S
C307 C299 1.503 . S
C307 C306 1.370 . S
C307 C308 1.403 1_565 S
C308 C307 1.403 1_545 S
C308 C309 1.404 . S
C308 C311 1.539 . S
C309 C305 1.408 1_545 S
C309 C308 1.404 . S
C309 H321 0.930 . S
C310 C306 1.524 . S
C310 H322 0.956 . S
C310 H323 0.961 . S
C310 H324 0.961 . S
C311 C308 1.539 . S
C311 H325 0.958 1_545 S
C311 H326 0.961 . S
C311 H327 0.960 . S
H312 C296 0.931 . S
H313 C301 0.929 . S
H314 C302 0.960 . S
H315 C302 0.962 . S
H316 C302 0.960 . S
H317 C303 0.961 . S
H318 C303 0.961 . S
H319 C303 0.961 . S
H320 C304 0.931 . S
H321 C309 0.930 . S
H322 C310 0.956 . S
H323 C310 0.961 . S
H324 C310 0.961 . S
H325 C311 0.958 1_565 S
H326 C311 0.961 . S
H327 C311 0.960 . S
C328 C329 1.391 . S
C328 C330 1.394 . S
C328 H344 0.931 . S
C329 C328 1.391 . S
C329 C333 1.376 1_655 S
C330 C328 1.394 . S
C330 C331 1.369 . S
C330 C334 1.531 . S
C331 C330 1.369 . S
C331 C332 1.410 1_655 S
C331 C339 1.503 . S
C332 C331 1.410 1_455 S
C332 C333 1.392 . S
C332 C335 1.511 . S
C333 C329 1.376 1_455 S
C333 C332 1.392 . S
C333 H345 0.929 . S
C334 C330 1.531 . S
C334 H346 0.960 . S
C334 H347 0.962 . S
C334 H348 0.960 . S
C335 C332 1.511 . S
C335 H349 0.961 . S
C335 H350 0.961 . S
C335 H351 0.961 . S
C336 C337 1.370 . S
C336 C338 1.363 . S
C336 H352 0.931 . S
C337 C336 1.370 . S
C337 C341 1.408 1_655 S
C338 C336 1.363 . S
C338 C339 1.370 . S
C338 C342 1.524 . S
C339 C331 1.503 . S
C339 C338 1.370 . S
C339 C340 1.403 1_655 S
C340 C339 1.403 1_455 S
C340 C341 1.404 . S
C340 C343 1.539 . S
C341 C337 1.408 1_455 S
C341 C340 1.404 . S
C341 H353 0.930 . S
C342 C338 1.524 . S
C342 H354 0.956 . S
C342 H355 0.961 . S
C342 H356 0.961 . S
C343 C340 1.539 . S
C343 H357 0.958 . S
C343 H358 0.961 . S
C343 H359 0.960 . S
H344 C328 0.931 . S
H345 C333 0.929 . S
H346 C334 0.960 . S
H347 C334 0.962 . S
H348 C334 0.960 . S
H349 C335 0.961 . S
H350 C335 0.961 . S
H351 C335 0.961 . S
H352 C336 0.931 . S
H353 C341 0.930 . S
H354 C342 0.956 . S
H355 C342 0.961 . S
H356 C342 0.961 . S
H357 C343 0.958 . S
H358 C343 0.961 . S
H359 C343 0.960 . S
C360 C361 1.391 . S
C360 C362 1.394 . S
C360 H376 0.931 . S
C361 C360 1.391 . S
C361 C365 1.376 1_545 S
C362 C360 1.394 . S
C362 C363 1.369 . S
C362 C366 1.531 . S
C363 C362 1.369 . S
C363 C364 1.410 1_545 S
C363 C371 1.503 . S
C364 C363 1.410 1_565 S
C364 C365 1.392 . S
C364 C367 1.511 . S
C365 C361 1.376 1_565 S
C365 C364 1.392 . S
C365 H377 0.929 . S
C366 C362 1.531 . S
C366 H378 0.960 . S
C366 H379 0.962 . S
C366 H380 0.960 . S
C367 C364 1.511 . S
C367 H381 0.961 . S
C367 H382 0.961 . S
C367 H383 0.961 . S
C368 C369 1.370 . S
C368 C370 1.363 . S
C368 H384 0.931 . S
C369 C368 1.370 . S
C369 C373 1.408 1_545 S
C370 C368 1.363 . S
C370 C371 1.370 . S
C370 C374 1.524 . S
C371 C363 1.503 . S
C371 C370 1.370 . S
C371 C372 1.403 1_545 S
C372 C371 1.403 1_565 S
C372 C373 1.404 . S
C372 C375 1.539 . S
C373 C369 1.408 1_565 S
C373 C372 1.404 . S
C373 H385 0.930 . S
C374 C370 1.524 . S
C374 H386 0.956 . S
C374 H387 0.961 . S
C374 H388 0.961 . S
C375 C372 1.539 . S
C375 H389 0.958 . S
C375 H390 0.961 . S
C375 H391 0.960 . S
H376 C360 0.931 . S
H377 C365 0.929 . S
H378 C366 0.960 . S
H379 C366 0.962 . S
H380 C366 0.960 . S
H381 C367 0.961 . S
H382 C367 0.961 . S
H383 C367 0.961 . S
H384 C368 0.931 . S
H385 C373 0.930 . S
H386 C374 0.956 . S
H387 C374 0.961 . S
H388 C374 0.961 . S
H389 C375 0.958 . S
H390 C375 0.961 . S
H391 C375 0.960 . S
C392 C393 1.391 1_655 S
C392 C394 1.394 . S
C392 H408 0.931 . S
C393 C392 1.391 1_455 S
C393 C397 1.376 . S
C394 C392 1.394 . S
C394 C395 1.369 1_655 S
C394 C398 1.531 . S
C395 C394 1.369 1_455 S
C395 C396 1.410 . S
C395 C403 1.503 . S
C396 C395 1.410 . S
C396 C397 1.392 . S
C396 C399 1.511 . S
C397 C393 1.376 . S
C397 C396 1.392 . S
C397 H409 0.929 . S
C398 C394 1.531 . S
C398 H410 0.960 . S
C398 H411 0.962 . S
C398 H412 0.960 . S
C399 C396 1.511 . S
C399 H413 0.961 . S
C399 H414 0.961 . S
C399 H415 0.961 . S
C400 C401 1.370 1_655 S
C400 C402 1.363 . S
C400 H416 0.931 . S
C401 C400 1.370 1_455 S
C401 C405 1.408 . S
C402 C400 1.363 . S
C402 C403 1.370 1_655 S
C402 C406 1.524 . S
C403 C395 1.503 . S
C403 C402 1.370 1_455 S
C403 C404 1.403 . S
C404 C403 1.403 . S
C404 C405 1.404 . S
C404 C407 1.539 . S
C405 C401 1.408 . S
C405 C404 1.404 . S
C405 H417 0.930 . S
C406 C402 1.524 . S
C406 H418 0.956 . S
C406 H419 0.961 1_655 S
C406 H420 0.961 . S
C407 C404 1.539 . S
C407 H421 0.958 . S
C407 H422 0.961 . S
C407 H423 0.960 . S
H408 C392 0.931 . S
H409 C397 0.929 . S
H410 C398 0.960 . S
H411 C398 0.962 . S
H412 C398 0.960 . S
H413 C399 0.961 . S
H414 C399 0.961 . S
H415 C399 0.961 . S
H416 C400 0.931 . S
H417 C405 0.930 . S
H418 C406 0.956 . S
H419 C406 0.961 1_455 S
H420 C406 0.961 . S
H421 C407 0.958 . S
H422 C407 0.961 . S
H423 C407 0.960 . S
C424 C425 1.391 . S
C424 C426 1.394 . S
C424 H440 0.931 . S
C425 C424 1.391 . S
C425 C429 1.376 1_565 S
C426 C424 1.394 . S
C426 C427 1.369 . S
C426 C430 1.531 . S
C427 C426 1.369 . S
C427 C428 1.410 1_565 S
C427 C435 1.503 . S
C428 C427 1.410 1_545 S
C428 C429 1.392 . S
C428 C431 1.511 . S
C429 C425 1.376 1_545 S
C429 C428 1.392 . S
C429 H441 0.929 . S
C430 C426 1.531 . S
C430 H442 0.960 . S
C430 H443 0.962 . S
C430 H444 0.960 . S
C431 C428 1.511 . S
C431 H445 0.961 . S
C431 H446 0.961 . S
C431 H447 0.961 . S
C432 C433 1.370 1_545 S
C432 C434 1.363 . S
C432 H448 0.931 . S
C433 C432 1.370 1_565 S
C433 C437 1.408 . S
C434 C432 1.363 . S
C434 C435 1.370 1_545 S
C434 C438 1.524 . S
C435 C427 1.503 . S
C435 C434 1.370 1_565 S
C435 C436 1.403 . S
C436 C435 1.403 . S
C436 C437 1.404 . S
C436 C439 1.539 . S
C437 C433 1.408 . S
C437 C436 1.404 . S
C437 H449 0.930 . S
C438 C434 1.524 . S
C438 H450 0.956 . S
C438 H451 0.961 . S
C438 H452 0.961 . S
C439 C436 1.539 . S
C439 H453 0.958 . S
C439 H454 0.961 . S
C439 H455 0.960 . S
H440 C424 0.931 . S
H441 C429 0.929 . S
H442 C430 0.960 . S
H443 C430 0.962 . S
H444 C430 0.960 . S
H445 C431 0.961 . S
H446 C431 0.961 . S
H447 C431 0.961 . S
H448 C432 0.931 . S
H449 C437 0.930 . S
H450 C438 0.956 . S
H451 C438 0.961 . S
H452 C438 0.961 . S
H453 C439 0.958 . S
H454 C439 0.961 . S
H455 C439 0.960 . S
C456 C457 1.391 . S
C456 C458 1.394 . S
C456 H472 0.931 . S
C457 C456 1.391 . S
C457 C461 1.376 1_556 S
C458 C456 1.394 . S
C458 C459 1.369 . S
C458 C462 1.531 . S
C459 C458 1.369 . S
C459 C460 1.410 1_556 S
C459 C467 1.503 . S
C460 C459 1.410 1_554 S
C460 C461 1.392 . S
C460 C463 1.511 . S
C461 C457 1.376 1_554 S
C461 C460 1.392 . S
C461 H473 0.929 . S
C462 C458 1.531 . S
C462 H474 0.960 . S
C462 H475 0.962 . S
C462 H476 0.960 . S
C463 C460 1.511 . S
C463 H477 0.961 . S
C463 H478 0.961 . S
C463 H479 0.961 . S
C464 C465 1.370 1_554 S
C464 C466 1.363 . S
C464 H480 0.931 . S
C465 C464 1.370 1_556 S
C465 C469 1.408 . S
C466 C464 1.363 . S
C466 C467 1.370 1_554 S
C466 C470 1.524 . S
C467 C459 1.503 . S
C467 C466 1.370 1_556 S
C467 C468 1.403 . S
C468 C467 1.403 . S
C468 C469 1.404 . S
C468 C471 1.539 . S
C469 C465 1.408 . S
C469 C468 1.404 . S
C469 H481 0.930 . S
C470 C466 1.524 . S
C470 H482 0.956 . S
C470 H483 0.961 . S
C470 H484 0.961 . S
C471 C468 1.539 . S
C471 H485 0.958 . S
C471 H486 0.961 . S
C471 H487 0.960 . S
H472 C456 0.931 . S
H473 C461 0.929 . S
H474 C462 0.960 . S
H475 C462 0.962 . S
H476 C462 0.960 . S
H477 C463 0.961 . S
H478 C463 0.961 . S
H479 C463 0.961 . S
H480 C464 0.931 . S
H481 C469 0.930 . S
H482 C470 0.956 . S
H483 C470 0.961 . S
H484 C470 0.961 . S
H485 C471 0.958 . S
H486 C471 0.961 . S
H487 C471 0.960 . S
C488 C489 1.391 . S
C488 C490 1.394 . S
C488 H504 0.931 . S
C489 C488 1.391 . S
C489 C493 1.376 . S
C490 C488 1.394 . S
C490 C491 1.369 . S
C490 C494 1.531 . S
C491 C490 1.369 . S
C491 C492 1.410 . S
C491 C499 1.503 . S
C492 C491 1.410 . S
C492 C493 1.392 . S
C492 C495 1.511 1_554 S
C493 C489 1.376 . S
C493 C492 1.392 . S
C493 H505 0.929 1_554 S
C494 C490 1.531 . S
C494 H506 0.960 . S
C494 H507 0.962 . S
C494 H508 0.960 . S
C495 C492 1.511 1_556 S
C495 H509 0.961 . S
C495 H510 0.961 . S
C495 H511 0.961 1_556 S
C496 C497 1.370 1_556 S
C496 C498 1.363 . S
C496 H512 0.931 . S
C497 C496 1.370 1_554 S
C497 C501 1.408 . S
C498 C496 1.363 . S
C498 C499 1.370 1_556 S
C498 C502 1.524 . S
C499 C491 1.503 . S
C499 C498 1.370 1_554 S
C499 C500 1.403 . S
C500 C499 1.403 . S
C500 C501 1.404 . S
C500 C503 1.539 . S
C501 C497 1.408 . S
C501 C500 1.404 . S
C501 H513 0.930 . S
C502 C498 1.524 . S
C502 H514 0.956 . S
C502 H515 0.961 . S
C502 H516 0.961 . S
C503 C500 1.539 . S
C503 H517 0.958 . S
C503 H518 0.961 . S
C503 H519 0.960 . S
H504 C488 0.931 . S
H505 C493 0.929 1_556 S
H506 C494 0.960 . S
H507 C494 0.962 . S
H508 C494 0.960 . S
H509 C495 0.961 . S
H510 C495 0.961 . S
H511 C495 0.961 1_554 S
H512 C496 0.931 . S
H513 C501 0.930 . S
H514 C502 0.956 . S
H515 C502 0.961 . S
H516 C502 0.961 . S
H517 C503 0.958 . S
H518 C503 0.961 . S
H519 C503 0.960 . S
C520 C521 1.391 1_556 S
C520 C522 1.394 . S
C520 H536 0.931 . S
C521 C520 1.391 1_554 S
C521 C525 1.376 . S
C522 C520 1.394 . S
C522 C523 1.376 . S
C522 C526 1.531 . S
C523 C522 1.376 . S
C523 C524 1.402 1_556 S
C523 C531 1.503 1_556 S
C524 C523 1.402 1_554 S
C524 C525 1.392 . S
C524 C527 1.511 . S
C525 C521 1.376 . S
C525 C524 1.392 . S
C525 H537 0.929 . S
C526 C522 1.531 . S
C526 H538 0.960 . S
C526 H539 0.962 . S
C526 H540 0.960 . S
C527 C524 1.511 . S
C527 H541 0.961 . S
C527 H542 0.961 . S
C527 H543 0.961 . S
C528 C529 1.370 . S
C528 C530 1.363 . S
C528 H544 0.931 . S
C529 C528 1.370 . S
C529 C533 1.408 1_554 S
C530 C528 1.363 . S
C530 C531 1.370 . S
C530 C534 1.524 . S
C531 C523 1.503 1_554 S
C531 C530 1.370 . S
C531 C532 1.403 1_554 S
C532 C531 1.403 1_556 S
C532 C533 1.404 . S
C532 C535 1.539 . S
C533 C529 1.408 1_556 S
C533 C532 1.404 . S
C533 H545 0.930 . S
C534 C530 1.524 . S
C534 H546 0.956 . S
C534 H547 0.961 . S
C534 H548 0.961 . S
C535 C532 1.539 . S
C535 H549 0.958 . S
C535 H550 0.961 . S
C535 H551 0.960 . S
H536 C520 0.931 . S
H537 C525 0.929 . S
H538 C526 0.960 . S
H539 C526 0.962 . S
H540 C526 0.960 . S
H541 C527 0.961 . S
H542 C527 0.961 . S
H543 C527 0.961 . S
H544 C528 0.931 . S
H545 C533 0.930 . S
H546 C534 0.956 . S
H547 C534 0.961 . S
H548 C534 0.961 . S
H549 C535 0.958 . S
H550 C535 0.961 . S
H551 C535 0.960 . S
C552 C553 1.391 . S
C552 C554 1.394 . S
C552 H568 0.931 . S
C553 C552 1.391 . S
C553 C557 1.376 1_556 S
C554 C552 1.394 . S
C554 C555 1.369 . S
C554 C558 1.531 . S
C555 C554 1.369 . S
C555 C556 1.410 1_556 S
C555 C563 1.503 . S
C556 C555 1.410 1_554 S
C556 C557 1.392 . S
C556 C559 1.511 . S
C557 C553 1.376 1_554 S
C557 C556 1.392 . S
C557 H569 0.929 . S
C558 C554 1.531 . S
C558 H570 0.960 . S
C558 H571 0.962 . S
C558 H572 0.960 . S
C559 C556 1.511 . S
C559 H573 0.961 . S
C559 H574 0.961 . S
C559 H575 0.961 . S
C560 C561 1.370 1_554 S
C560 C562 1.363 . S
C560 H576 0.931 . S
C561 C560 1.370 1_556 S
C561 C565 1.408 . S
C562 C560 1.363 . S
C562 C563 1.370 1_554 S
C562 C566 1.524 . S
C563 C555 1.503 . S
C563 C562 1.370 1_556 S
C563 C564 1.403 . S
C564 C563 1.403 . S
C564 C565 1.404 . S
C564 C567 1.539 . S
C565 C561 1.408 . S
C565 C564 1.404 . S
C565 H577 0.930 . S
C566 C562 1.524 . S
C566 H578 0.956 . S
C566 H579 0.961 . S
C566 H580 0.961 . S
C567 C564 1.539 . S
C567 H581 0.958 . S
C567 H582 0.961 . S
C567 H583 0.960 . S
H568 C552 0.931 . S
H569 C557 0.929 . S
H570 C558 0.960 . S
H571 C558 0.962 . S
H572 C558 0.960 . S
H573 C559 0.961 . S
H574 C559 0.961 . S
H575 C559 0.961 . S
H576 C560 0.931 . S
H577 C565 0.930 . S
H578 C566 0.956 . S
H579 C566 0.961 . S
H580 C566 0.961 . S
H581 C567 0.958 . S
H582 C567 0.961 . S
H583 C567 0.960 . S
C584 C585 1.391 . S
C584 C586 1.394 . S
C584 H600 0.931 . S
C585 C584 1.391 . S
C585 C589 1.376 . S
C586 C584 1.394 . S
C586 C587 1.369 . S
C586 C590 1.531 . S
C587 C586 1.369 . S
C587 C588 1.410 . S
C587 C595 1.503 . S
C588 C587 1.410 . S
C588 C589 1.392 . S
C588 C591 1.511 . S
C589 C585 1.376 . S
C589 C588 1.392 . S
C589 H601 0.929 . S
C590 C586 1.531 . S
C590 H602 0.960 . S
C590 H603 0.962 . S
C590 H604 0.960 . S
C591 C588 1.511 . S
C591 H605 0.961 . S
C591 H606 0.961 . S
C591 H607 0.961 . S
C592 C593 1.370 . S
C592 C594 1.363 . S
C592 H608 0.931 . S
C593 C592 1.370 . S
C593 C597 1.408 . S
C594 C592 1.363 . S
C594 C595 1.370 . S
C594 C598 1.524 . S
C595 C587 1.503 . S
C595 C594 1.370 . S
C595 C596 1.403 . S
C596 C595 1.403 . S
C596 C597 1.404 . S
C596 C599 1.539 . S
C597 C593 1.408 . S
C597 C596 1.404 . S
C597 H609 0.930 . S
C598 C594 1.524 . S
C598 H610 0.956 . S
C598 H611 0.961 . S
C598 H612 0.961 . S
C599 C596 1.539 . S
C599 H613 0.958 . S
C599 H614 0.961 . S
C599 H615 0.960 . S
H600 C584 0.931 . S
H601 C589 0.929 . S
H602 C590 0.960 . S
H603 C590 0.962 . S
H604 C590 0.960 . S
H605 C591 0.961 . S
H606 C591 0.961 . S
H607 C591 0.961 . S
H608 C592 0.931 . S
H609 C597 0.930 . S
H610 C598 0.956 . S
H611 C598 0.961 . S
H612 C598 0.961 . S
H613 C599 0.958 . S
H614 C599 0.961 . S
H615 C599 0.960 . S
C616 C617 1.391 . S
C616 C618 1.394 . S
C616 H632 0.931 . S
C617 C616 1.391 . S
C617 C621 1.376 . S
C618 C616 1.394 . S
C618 C619 1.369 . S
C618 C622 1.531 . S
C619 C618 1.369 . S
C619 C620 1.410 . S
C619 C627 1.503 . S
C620 C619 1.410 . S
C620 C621 1.392 . S
C620 C623 1.511 . S
C621 C617 1.376 . S
C621 C620 1.392 . S
C621 H633 0.929 . S
C622 C618 1.531 . S
C622 H634 0.960 . S
C622 H635 0.962 . S
C622 H636 0.960 . S
C623 C620 1.511 . S
C623 H637 0.961 . S
C623 H638 0.961 . S
C623 H639 0.961 . S
C624 C625 1.370 . S
C624 C626 1.363 . S
C624 H640 0.931 . S
C625 C624 1.370 . S
C625 C629 1.408 . S
C626 C624 1.363 . S
C626 C627 1.370 . S
C626 C630 1.524 . S
C627 C619 1.503 . S
C627 C626 1.370 . S
C627 C628 1.403 . S
C628 C627 1.403 . S
C628 C629 1.404 . S
C628 C631 1.539 . S
C629 C625 1.408 . S
C629 C628 1.404 . S
C629 H641 0.930 . S
C630 C626 1.524 . S
C630 H642 0.956 . S
C630 H643 0.961 . S
C630 H644 0.961 . S
C631 C628 1.539 . S
C631 H645 0.958 . S
C631 H646 0.961 . S
C631 H647 0.960 . S
H632 C616 0.931 . S
H633 C621 0.929 . S
H634 C622 0.960 . S
H635 C622 0.962 . S
H636 C622 0.960 . S
H637 C623 0.961 . S
H638 C623 0.961 . S
H639 C623 0.961 . S
H640 C624 0.931 . S
H641 C629 0.930 . S
H642 C630 0.956 . S
H643 C630 0.961 . S
H644 C630 0.961 . S
H645 C631 0.958 . S
H646 C631 0.961 . S
H647 C631 0.960 . S
C648 C649 1.391 . S
C648 C650 1.394 . S
C648 H664 0.931 . S
C649 C648 1.391 . S
C649 C653 1.376 . S
C650 C648 1.394 . S
C650 C651 1.369 . S
C650 C654 1.531 . S
C651 C650 1.369 . S
C651 C652 1.410 . S
C651 C659 1.503 . S
C652 C651 1.410 . S
C652 C653 1.392 . S
C652 C655 1.511 . S
C653 C649 1.376 . S
C653 C652 1.392 . S
C653 H665 0.929 . S
C654 C650 1.531 . S
C654 H666 0.960 . S
C654 H667 0.962 . S
C654 H668 0.960 . S
C655 C652 1.511 . S
C655 H669 0.961 . S
C655 H670 0.961 . S
C655 H671 0.961 . S
C656 C657 1.370 . S
C656 C658 1.363 . S
C656 H672 0.931 . S
C657 C656 1.370 . S
C657 C661 1.408 . S
C658 C656 1.363 . S
C658 C659 1.370 . S
C658 C662 1.524 . S
C659 C651 1.503 . S
C659 C658 1.370 . S
C659 C660 1.403 . S
C660 C659 1.403 . S
C660 C661 1.404 . S
C660 C663 1.539 . S
C661 C657 1.408 . S
C661 C660 1.404 . S
C661 H673 0.930 . S
C662 C658 1.524 . S
C662 H674 0.956 . S
C662 H675 0.961 . S
C662 H676 0.961 . S
C663 C660 1.539 . S
C663 H677 0.958 . S
C663 H678 0.961 . S
C663 H679 0.960 . S
H664 C648 0.931 . S
H665 C653 0.929 . S
H666 C654 0.960 . S
H667 C654 0.962 . S
H668 C654 0.960 . S
H669 C655 0.961 . S
H670 C655 0.961 . S
H671 C655 0.961 . S
H672 C656 0.931 . S
H673 C661 0.930 . S
H674 C662 0.956 . S
H675 C662 0.961 . S
H676 C662 0.961 . S
H677 C663 0.958 . S
H678 C663 0.961 . S
H679 C663 0.960 . S
C680 C681 1.391 . S
C680 C682 1.394 . S
C680 H696 0.931 . S
C681 C680 1.391 . S
C681 C685 1.376 . S
C682 C680 1.394 . S
C682 C683 1.369 . S
C682 C686 1.531 . S
C683 C682 1.369 . S
C683 C684 1.410 . S
C683 C691 1.503 . S
C684 C683 1.410 . S
C684 C685 1.392 . S
C684 C687 1.511 . S
C685 C681 1.376 . S
C685 C684 1.392 . S
C685 H697 0.929 . S
C686 C682 1.531 . S
C686 H698 0.960 . S
C686 H699 0.962 . S
C686 H700 0.960 . S
C687 C684 1.511 . S
C687 H701 0.961 . S
C687 H702 0.961 . S
C687 H703 0.961 . S
C688 C689 1.370 . S
C688 C690 1.363 . S
C688 H704 0.931 . S
C689 C688 1.370 . S
C689 C693 1.408 . S
C690 C688 1.363 . S
C690 C691 1.370 . S
C690 C694 1.524 . S
C691 C683 1.503 . S
C691 C690 1.370 . S
C691 C692 1.403 . S
C692 C691 1.403 . S
C692 C693 1.404 . S
C692 C695 1.539 . S
C693 C689 1.408 . S
C693 C692 1.404 . S
C693 H705 0.930 . S
C694 C690 1.524 . S
C694 H706 0.956 . S
C694 H707 0.961 . S
C694 H708 0.961 . S
C695 C692 1.539 . S
C695 H709 0.958 . S
C695 H710 0.961 . S
C695 H711 0.960 . S
H696 C680 0.931 . S
H697 C685 0.929 . S
H698 C686 0.960 . S
H699 C686 0.962 . S
H700 C686 0.960 . S
H701 C687 0.961 . S
H702 C687 0.961 . S
H703 C687 0.961 . S
H704 C688 0.931 . S
H705 C693 0.930 . S
H706 C694 0.956 . S
H707 C694 0.961 . S
H708 C694 0.961 . S
H709 C695 0.958 . S
H710 C695 0.961 . S
H711 C695 0.960 . S
C712 C713 1.391 . S
C712 C714 1.394 . S
C712 H728 0.931 . S
C713 C712 1.391 . S
C713 C717 1.376 . S
C714 C712 1.394 . S
C714 C715 1.369 . S
C714 C718 1.531 . S
C715 C714 1.369 . S
C715 C716 1.410 . S
C715 C723 1.503 . S
C716 C715 1.410 . S
C716 C717 1.392 . S
C716 C719 1.511 . S
C717 C713 1.376 . S
C717 C716 1.392 . S
C717 H729 0.929 . S
C718 C714 1.531 . S
C718 H730 0.960 . S
C718 H731 0.962 . S
C718 H732 0.960 . S
C719 C716 1.511 . S
C719 H733 0.961 . S
C719 H734 0.961 . S
C719 H735 0.961 . S
C720 C721 1.370 . S
C720 C722 1.363 . S
C720 H736 0.931 . S
C721 C720 1.370 . S
C721 C725 1.408 . S
C722 C720 1.363 . S
C722 C723 1.370 . S
C722 C726 1.524 . S
C723 C715 1.503 . S
C723 C722 1.370 . S
C723 C724 1.403 . S
C724 C723 1.403 . S
C724 C725 1.404 . S
C724 C727 1.539 . S
C725 C721 1.408 . S
C725 C724 1.404 . S
C725 H737 0.930 . S
C726 C722 1.524 . S
C726 H738 0.956 . S
C726 H739 0.961 . S
C726 H740 0.961 . S
C727 C724 1.539 . S
C727 H741 0.958 . S
C727 H742 0.961 . S
C727 H743 0.960 . S
H728 C712 0.931 . S
H729 C717 0.929 . S
H730 C718 0.960 . S
H731 C718 0.962 . S
H732 C718 0.960 . S
H733 C719 0.961 . S
H734 C719 0.961 . S
H735 C719 0.961 . S
H736 C720 0.931 . S
H737 C725 0.930 . S
H738 C726 0.956 . S
H739 C726 0.961 . S
H740 C726 0.961 . S
H741 C727 0.958 . S
H742 C727 0.961 . S
H743 C727 0.960 . S
C744 C745 1.391 . S
C744 C746 1.394 . S
C744 H760 0.931 . S
C745 C744 1.391 . S
C745 C749 1.376 . S
C746 C744 1.394 . S
C746 C747 1.369 . S
C746 C750 1.531 . S
C747 C746 1.369 . S
C747 C748 1.410 . S
C747 C755 1.503 . S
C748 C747 1.410 . S
C748 C749 1.392 . S
C748 C751 1.511 . S
C749 C745 1.376 . S
C749 C748 1.392 . S
C749 H761 0.929 . S
C750 C746 1.531 . S
C750 H762 0.960 . S
C750 H763 0.962 . S
C750 H764 0.960 . S
C751 C748 1.511 . S
C751 H765 0.961 . S
C751 H766 0.961 . S
C751 H767 0.961 . S
C752 C753 1.370 . S
C752 C754 1.363 . S
C752 H768 0.931 . S
C753 C752 1.370 . S
C753 C757 1.408 . S
C754 C752 1.363 . S
C754 C755 1.370 . S
C754 C758 1.524 . S
C755 C747 1.503 . S
C755 C754 1.370 . S
C755 C756 1.403 . S
C756 C755 1.403 . S
C756 C757 1.404 . S
C756 C759 1.539 . S
C757 C753 1.408 . S
C757 C756 1.404 . S
C757 H769 0.930 . S
C758 C754 1.524 . S
C758 H770 0.956 . S
C758 H771 0.961 . S
C758 H772 0.961 . S
C759 C756 1.539 . S
C759 H773 0.958 . S
C759 H774 0.961 . S
C759 H775 0.960 . S
H760 C744 0.931 . S
H761 C749 0.929 . S
H762 C750 0.960 . S
H763 C750 0.962 . S
H764 C750 0.960 . S
H765 C751 0.961 . S
H766 C751 0.961 . S
H767 C751 0.961 . S
H768 C752 0.931 . S
H769 C757 0.930 . S
H770 C758 0.956 . S
H771 C758 0.961 . S
H772 C758 0.961 . S
H773 C759 0.958 . S
H774 C759 0.961 . S
H775 C759 0.960 . S
C776 C777 1.391 . S
C776 C778 1.394 . S
C776 H792 0.931 . S
C777 C776 1.391 . S
C777 C781 1.376 . S
C778 C776 1.394 . S
C778 C779 1.369 . S
C778 C782 1.531 . S
C779 C778 1.369 . S
C779 C780 1.410 . S
C779 C787 1.503 . S
C780 C779 1.410 . S
C780 C781 1.392 . S
C780 C783 1.511 . S
C781 C777 1.376 . S
C781 C780 1.392 . S
C781 H793 0.929 . S
C782 C778 1.531 . S
C782 H794 0.960 . S
C782 H795 0.962 . S
C782 H796 0.960 . S
C783 C780 1.511 . S
C783 H797 0.961 . S
C783 H798 0.961 . S
C783 H799 0.961 . S
C784 C785 1.370 . S
C784 C786 1.363 . S
C784 H800 0.931 . S
C785 C784 1.370 . S
C785 C789 1.408 . S
C786 C784 1.363 . S
C786 C787 1.370 . S
C786 C790 1.524 . S
C787 C779 1.503 . S
C787 C786 1.370 . S
C787 C788 1.403 . S
C788 C787 1.403 . S
C788 C789 1.404 . S
C788 C791 1.539 . S
C789 C785 1.408 . S
C789 C788 1.404 . S
C789 H801 0.930 . S
C790 C786 1.524 . S
C790 H802 0.956 . S
C790 H803 0.961 . S
C790 H804 0.961 . S
C791 C788 1.539 . S
C791 H805 0.958 . S
C791 H806 0.961 . S
C791 H807 0.960 . S
H792 C776 0.931 . S
H793 C781 0.929 . S
H794 C782 0.960 . S
H795 C782 0.962 . S
H796 C782 0.960 . S
H797 C783 0.961 . S
H798 C783 0.961 . S
H799 C783 0.961 . S
H800 C784 0.931 . S
H801 C789 0.930 . S
H802 C790 0.956 . S
H803 C790 0.961 . S
H804 C790 0.961 . S
H805 C791 0.958 . S
H806 C791 0.961 . S
H807 C791 0.960 . S
C808 C809 1.391 . S
C808 C810 1.394 . S
C808 H824 0.931 . S
C809 C808 1.391 . S
C809 C813 1.376 . S
C810 C808 1.394 . S
C810 C811 1.369 . S
C810 C814 1.531 . S
C811 C810 1.369 . S
C811 C812 1.410 . S
C811 C819 1.503 . S
C812 C811 1.410 . S
C812 C813 1.392 . S
C812 C815 1.511 . S
C813 C809 1.376 . S
C813 C812 1.392 . S
C813 H825 0.929 . S
C814 C810 1.531 . S
C814 H826 0.960 . S
C814 H827 0.962 . S
C814 H828 0.960 . S
C815 C812 1.511 . S
C815 H829 0.961 . S
C815 H830 0.961 . S
C815 H831 0.961 . S
C816 C817 1.370 . S
C816 C818 1.363 . S
C816 H832 0.931 . S
C817 C816 1.370 . S
C817 C821 1.408 . S
C818 C816 1.363 . S
C818 C819 1.370 . S
C818 C822 1.524 . S
C819 C811 1.503 . S
C819 C818 1.370 . S
C819 C820 1.403 . S
C820 C819 1.403 . S
C820 C821 1.404 . S
C820 C823 1.539 . S
C821 C817 1.408 . S
C821 C820 1.404 . S
C821 H833 0.930 . S
C822 C818 1.524 . S
C822 H834 0.956 . S
C822 H835 0.961 . S
C822 H836 0.961 . S
C823 C820 1.539 . S
C823 H837 0.958 . S
C823 H838 0.961 . S
C823 H839 0.960 . S
H824 C808 0.931 . S
H825 C813 0.929 . S
H826 C814 0.960 . S
H827 C814 0.962 . S
H828 C814 0.960 . S
H829 C815 0.961 . S
H830 C815 0.961 . S
H831 C815 0.961 . S
H832 C816 0.931 . S
H833 C821 0.930 . S
H834 C822 0.956 . S
H835 C822 0.961 . S
H836 C822 0.961 . S
H837 C823 0.958 . S
H838 C823 0.961 . S
H839 C823 0.960 . S
C840 C841 1.391 . S
C840 C842 1.394 . S
C840 H856 0.931 . S
C841 C840 1.391 . S
C841 C845 1.376 . S
C842 C840 1.394 . S
C842 C843 1.369 . S
C842 C846 1.531 . S
C843 C842 1.369 . S
C843 C844 1.410 . S
C843 C851 1.503 . S
C844 C843 1.410 . S
C844 C845 1.392 . S
C844 C847 1.511 . S
C845 C841 1.376 . S
C845 C844 1.392 . S
C845 H857 0.929 . S
C846 C842 1.531 . S
C846 H858 0.960 . S
C846 H859 0.962 . S
C846 H860 0.960 . S
C847 C844 1.511 . S
C847 H861 0.961 . S
C847 H862 0.961 . S
C847 H863 0.961 . S
C848 C849 1.370 . S
C848 C850 1.363 . S
C848 H864 0.931 . S
C849 C848 1.370 . S
C849 C853 1.408 . S
C850 C848 1.363 . S
C850 C851 1.370 . S
C850 C854 1.524 . S
C851 C843 1.503 . S
C851 C850 1.370 . S
C851 C852 1.403 . S
C852 C851 1.403 . S
C852 C853 1.404 . S
C852 C855 1.539 . S
C853 C849 1.408 . S
C853 C852 1.404 . S
C853 H865 0.930 . S
C854 C850 1.524 . S
C854 H866 0.956 . S
C854 H867 0.961 . S
C854 H868 0.961 . S
C855 C852 1.539 . S
C855 H869 0.958 . S
C855 H870 0.961 . S
C855 H871 0.960 . S
H856 C840 0.931 . S
H857 C845 0.929 . S
H858 C846 0.960 . S
H859 C846 0.962 . S
H860 C846 0.960 . S
H861 C847 0.961 . S
H862 C847 0.961 . S
H863 C847 0.961 . S
H864 C848 0.931 . S
H865 C853 0.930 . S
H866 C854 0.956 . S
H867 C854 0.961 . S
H868 C854 0.961 . S
H869 C855 0.958 . S
H870 C855 0.961 . S
H871 C855 0.960 . S
C872 C873 1.391 . S
C872 C874 1.394 . S
C872 H888 0.931 . S
C873 C872 1.391 . S
C873 C877 1.376 . S
C874 C872 1.394 . S
C874 C875 1.369 . S
C874 C878 1.531 . S
C875 C874 1.369 . S
C875 C876 1.410 . S
C875 C883 1.503 . S
C876 C875 1.410 . S
C876 C877 1.392 . S
C876 C879 1.511 . S
C877 C873 1.376 . S
C877 C876 1.392 . S
C877 H889 0.929 . S
C878 C874 1.531 . S
C878 H890 0.960 . S
C878 H891 0.962 . S
C878 H892 0.960 . S
C879 C876 1.511 . S
C879 H893 0.961 . S
C879 H894 0.961 . S
C879 H895 0.961 . S
C880 C881 1.370 . S
C880 C882 1.363 . S
C880 H896 0.931 . S
C881 C880 1.370 . S
C881 C885 1.408 . S
C882 C880 1.363 . S
C882 C883 1.370 . S
C882 C886 1.524 . S
C883 C875 1.503 . S
C883 C882 1.370 . S
C883 C884 1.403 . S
C884 C883 1.403 . S
C884 C885 1.404 . S
C884 C887 1.539 . S
C885 C881 1.408 . S
C885 C884 1.404 . S
C885 H897 0.930 . S
C886 C882 1.524 . S
C886 H898 0.956 . S
C886 H899 0.961 . S
C886 H900 0.961 . S
C887 C884 1.539 . S
C887 H901 0.958 . S
C887 H902 0.961 . S
C887 H903 0.960 . S
H888 C872 0.931 . S
H889 C877 0.929 . S
H890 C878 0.960 . S
H891 C878 0.962 . S
H892 C878 0.960 . S
H893 C879 0.961 . S
H894 C879 0.961 . S
H895 C879 0.961 . S
H896 C880 0.931 . S
H897 C885 0.930 . S
H898 C886 0.956 . S
H899 C886 0.961 . S
H900 C886 0.961 . S
H901 C887 0.958 . S
H902 C887 0.961 . S
H903 C887 0.960 . S
C904 C905 1.391 . S
C904 C906 1.394 . S
C904 H920 0.931 . S
C905 C904 1.391 . S
C905 C909 1.376 . S
C906 C904 1.394 . S
C906 C907 1.369 . S
C906 C910 1.531 . S
C907 C906 1.369 . S
C907 C908 1.410 . S
C907 C915 1.503 . S
C908 C907 1.410 . S
C908 C909 1.392 . S
C908 C911 1.511 . S
C909 C905 1.376 . S
C909 C908 1.392 . S
C909 H921 0.929 . S
C910 C906 1.531 . S
C910 H922 0.960 . S
C910 H923 0.962 . S
C910 H924 0.960 . S
C911 C908 1.511 . S
C911 H925 0.961 . S
C911 H926 0.961 . S
C911 H927 0.961 . S
C912 C913 1.370 . S
C912 C914 1.363 . S
C912 H928 0.931 . S
C913 C912 1.370 . S
C913 C917 1.408 . S
C914 C912 1.363 . S
C914 C915 1.370 . S
C914 C918 1.524 . S
C915 C907 1.503 . S
C915 C914 1.370 . S
C915 C916 1.403 . S
C916 C915 1.403 . S
C916 C917 1.404 . S
C916 C919 1.539 . S
C917 C913 1.408 . S
C917 C916 1.404 . S
C917 H929 0.930 . S
C918 C914 1.524 . S
C918 H930 0.956 . S
C918 H931 0.961 . S
C918 H932 0.961 . S
C919 C916 1.539 . S
C919 H933 0.958 . S
C919 H934 0.961 . S
C919 H935 0.960 . S
H920 C904 0.931 . S
H921 C909 0.929 . S
H922 C910 0.960 . S
H923 C910 0.962 . S
H924 C910 0.960 . S
H925 C911 0.961 . S
H926 C911 0.961 . S
H927 C911 0.961 . S
H928 C912 0.931 . S
H929 C917 0.930 . S
H930 C918 0.956 . S
H931 C918 0.961 . S
H932 C918 0.961 . S
H933 C919 0.958 . S
H934 C919 0.961 . S
H935 C919 0.960 . S
C936 C937 1.391 . S
C936 C938 1.394 . S
C936 H952 0.931 . S
C937 C936 1.391 . S
C937 C941 1.376 . S
C938 C936 1.394 . S
C938 C939 1.369 . S
C938 C942 1.531 . S
C939 C938 1.369 . S
C939 C940 1.410 . S
C939 C947 1.503 . S
C940 C939 1.410 . S
C940 C941 1.392 . S
C940 C943 1.511 . S
C941 C937 1.376 . S
C941 C940 1.392 . S
C941 H953 0.929 . S
C942 C938 1.531 . S
C942 H954 0.960 . S
C942 H955 0.962 . S
C942 H956 0.960 . S
C943 C940 1.511 . S
C943 H957 0.961 . S
C943 H958 0.961 . S
C943 H959 0.961 . S
C944 C945 1.370 . S
C944 C946 1.363 . S
C944 H960 0.931 . S
C945 C944 1.370 . S
C945 C949 1.408 . S
C946 C944 1.363 . S
C946 C947 1.370 . S
C946 C950 1.524 . S
C947 C939 1.503 . S
C947 C946 1.370 . S
C947 C948 1.403 . S
C948 C947 1.403 . S
C948 C949 1.404 . S
C948 C951 1.539 . S
C949 C945 1.408 . S
C949 C948 1.404 . S
C949 H961 0.930 . S
C950 C946 1.524 . S
C950 H962 0.956 . S
C950 H963 0.961 . S
C950 H964 0.961 . S
C951 C948 1.539 . S
C951 H965 0.958 . S
C951 H966 0.961 . S
C951 H967 0.960 . S
H952 C936 0.931 . S
H953 C941 0.929 . S
H954 C942 0.960 . S
H955 C942 0.962 . S
H956 C942 0.960 . S
H957 C943 0.961 . S
H958 C943 0.961 . S
H959 C943 0.961 . S
H960 C944 0.931 . S
H961 C949 0.930 . S
H962 C950 0.956 . S
H963 C950 0.961 . S
H964 C950 0.961 . S
H965 C951 0.958 . S
H966 C951 0.961 . S
H967 C951 0.960 . S
C201 C0 1.493 . S
C209 C91 1.492 . S
C233 C22 1.488 . S
C241 C131 1.494 . S
C265 C49 1.494 . S
C273 C98 1.496 . S
C297 C134 1.491 . S
C305 C19 1.491 . S
C329 C41 1.490 . S
C337 C50 1.498 . S
C361 C31 1.490 . S
C369 C122 1.495 . S
C393 C99 1.493 . S
C401 C48 1.496 . S
C425 C119 1.495 . S
C433 C34 1.500 . S
C457 C166 1.495 . S
C465 C17 1.493 . S
C489 C151 1.495 . S
C497 C18 1.497 . S
C521 C168 1.488 . S
C529 C1 1.494 . S
C553 C16 1.495 . S
C561 C167 1.501 . S
C585 C181 1.494 . S
C593 C72 1.500 . S
C617 C69 1.496 . S
C625 C184 1.497 . S
C649 C81 1.492 . S
C657 C172 1.492 . S
C681 C169 1.495 . S
C689 C84 1.497 . S
C713 C116 1.490 . S
C721 C67 1.494 . S
C745 C68 1.488 . S
C753 C101 1.490 . S
C777 C51 1.488 . S
C785 C118 1.498 . S
C809 C117 1.492 . S
C817 C66 1.496 . S
C841 C191 1.491 . S
C849 C100 1.495 . S
C873 C149 1.496 . S
C881 C198 1.501 . S
C905 C150 1.495 . S
C913 C141 1.497 . S
C937 C148 1.489 . S
C945 C199 1.490 . S
