# Generated by pormake.
# Topology wju, (5)-cn, num edge types: 1
# Building blocks:
#     Node 0, Type 0, BuildingBlock: XOMCOT_clean_sbu_1, # of connection points: 5
#     Node 1, Type 0, BuildingBlock: XOMCOT_clean_sbu_1, # of connection points: 5
#     Node 2, Type 0, BuildingBlock: XOMCOT_clean_sbu_1, # of connection points: 5
#     Node 3, Type 0, BuildingBlock: XOMCOT_clean_sbu_1, # of connection points: 5
#     Node 4, Type 0, BuildingBlock: XOMCOT_clean_sbu_1, # of connection points: 5
#     Node 5, Type 0, BuildingBlock: XOMCOT_clean_sbu_1, # of connection points: 5
#     Node 6, Type 0, BuildingBlock: XOMCOT_clean_sbu_1, # of connection points: 5
#     Node 7, Type 0, BuildingBlock: XOMCOT_clean_sbu_1, # of connection points: 5
#     Node 8, Type 0, BuildingBlock: XOMCOT_clean_sbu_1, # of connection points: 5
#     Node 9, Type 0, BuildingBlock: XOMCOT_clean_sbu_1, # of connection points: 5
#     Node 10, Type 0, BuildingBlock: XOMCOT_clean_sbu_1, # of connection points: 5
#     Node 11, Type 0, BuildingBlock: XOMCOT_clean_sbu_1, # of connection points: 5
#     Edge 12, Type (0, 0), BuildingBlock: ZUJKAS_clean_linker_0, # of connection points: 2
#     Edge 13, Type (0, 0), BuildingBlock: ZUJKAS_clean_linker_0, # of connection points: 2
#     Edge 14, Type (0, 0), BuildingBlock: ZUJKAS_clean_linker_0, # of connection points: 2
#     Edge 15, Type (0, 0), BuildingBlock: ZUJKAS_clean_linker_0, # of connection points: 2
#     Edge 16, Type (0, 0), BuildingBlock: ZUJKAS_clean_linker_0, # of connection points: 2
#     Edge 17, Type (0, 0), BuildingBlock: ZUJKAS_clean_linker_0, # of connection points: 2
#     Edge 18, Type (0, 0), BuildingBlock: ZUJKAS_clean_linker_0, # of connection points: 2
#     Edge 19, Type (0, 0), BuildingBlock: ZUJKAS_clean_linker_0, # of connection points: 2
#     Edge 20, Type (0, 0), BuildingBlock: ZUJKAS_clean_linker_0, # of connection points: 2
#     Edge 21, Type (0, 0), BuildingBlock: ZUJKAS_clean_linker_0, # of connection points: 2
#     Edge 22, Type (0, 0), BuildingBlock: ZUJKAS_clean_linker_0, # of connection points: 2
#     Edge 23, Type (0, 0), BuildingBlock: ZUJKAS_clean_linker_0, # of connection points: 2
#     Edge 24, Type (0, 0), BuildingBlock: ZUJKAS_clean_linker_0, # of connection points: 2
#     Edge 25, Type (0, 0), BuildingBlock: ZUJKAS_clean_linker_0, # of connection points: 2
#     Edge 26, Type (0, 0), BuildingBlock: ZUJKAS_clean_linker_0, # of connection points: 2
#     Edge 27, Type (0, 0), BuildingBlock: ZUJKAS_clean_linker_0, # of connection points: 2
#     Edge 28, Type (0, 0), BuildingBlock: ZUJKAS_clean_linker_0, # of connection points: 2
#     Edge 29, Type (0, 0), BuildingBlock: ZUJKAS_clean_linker_0, # of connection points: 2
#     Edge 30, Type (0, 0), BuildingBlock: ZUJKAS_clean_linker_0, # of connection points: 2
#     Edge 31, Type (0, 0), BuildingBlock: ZUJKAS_clean_linker_0, # of connection points: 2
#     Edge 32, Type (0, 0), BuildingBlock: ZUJKAS_clean_linker_0, # of connection points: 2
#     Edge 33, Type (0, 0), BuildingBlock: ZUJKAS_clean_linker_0, # of connection points: 2
#     Edge 34, Type (0, 0), BuildingBlock: ZUJKAS_clean_linker_0, # of connection points: 2
#     Edge 35, Type (0, 0), BuildingBlock: ZUJKAS_clean_linker_0, # of connection points: 2
#     Edge 36, Type (0, 0), BuildingBlock: ZUJKAS_clean_linker_0, # of connection points: 2
#     Edge 37, Type (0, 0), BuildingBlock: ZUJKAS_clean_linker_0, # of connection points: 2
#     Edge 38, Type (0, 0), BuildingBlock: ZUJKAS_clean_linker_0, # of connection points: 2
#     Edge 39, Type (0, 0), BuildingBlock: ZUJKAS_clean_linker_0, # of connection points: 2
#     Edge 40, Type (0, 0), BuildingBlock: ZUJKAS_clean_linker_0, # of connection points: 2
#     Edge 41, Type (0, 0), BuildingBlock: ZUJKAS_clean_linker_0, # of connection points: 2
# Relax obj value: 0.079
# Max RMSD: 0.118
# Mean RMSD: 0.118
data_MOF--net-wju--node1-XOMCOT_clean_sbu_1--edge1-ZUJKAS_clean_linker_0
_symmetry_space_group_name_H-M    P1
_symmetry_Int_Tables_number       1
_symmetry_cell_setting            triclinic
loop_
_symmetry_equiv_pos_as_xyz
'x, y, z'
_cell_length_a     35.43916
_cell_length_b     35.446233
_cell_length_c     127.80793
_cell_angle_alpha  89.93513
_cell_angle_beta   89.82439
_cell_angle_gamma 119.97887
loop_
_atom_site_label
_atom_site_type_symbol
_atom_site_fract_x
_atom_site_fract_y
_atom_site_fract_z
_atom_type_partial_charge
C0 C 0.2518 0.12887 0.11349 0.0
C1 C 0.24719 0.13044 0.12411 0.0
N2 N 0.28039 0.12888 0.12879 0.0
N3 N 0.2876 0.12607 0.1114 0.0
C4 C 0.30427 0.12573 0.1209 0.0
H5 H 0.23152 0.13185 0.10763 0.0
Co6 Co 0.30884 0.13254 0.09779 0.0
C7 C 0.38281 0.11643 0.09829 0.0
O8 O 0.4036 0.15124 0.09237 0.0
N9 N 0.32938 0.13961 0.08359 0.0
C10 C 0.35948 0.16768 0.06809 0.0
C11 C 0.3561 0.17686 0.07835 0.0
C12 C 0.31749 0.10817 0.07621 0.0
N13 N 0.33474 0.12444 0.06667 0.0
O14 O 0.25839 0.07745 0.09443 0.0
H15 H 0.37272 0.20915 0.08163 0.0
H16 H 0.29526 0.07402 0.07771 0.0
O17 O 0.34395 0.1045 0.10144 0.0
C18 C 0.23139 0.08427 0.08931 0.0
O19 O 0.24437 0.12386 0.08587 0.0
N20 N 0.35266 0.18861 0.10142 0.0
C21 C 0.39617 0.27457 0.10841 0.0
C22 C 0.41042 0.24559 0.11137 0.0
C23 C 0.3875 0.20221 0.10798 0.0
C24 C 0.33821 0.21632 0.09867 0.0
C25 C 0.35984 0.25945 0.10188 0.0
H26 H 0.3965 0.17954 0.11109 0.0
H27 H 0.30903 0.20438 0.09401 0.0
H28 H 0.33469 0.12607 0.12201 0.0
H29 H 0.22201 0.13381 0.12808 0.0
H30 H 0.37871 0.19135 0.06214 0.0
H31 H 0.43767 0.25578 0.11665 0.0
H32 H 0.34776 0.28064 0.09935 0.0
C33 C 0.11237 0.24469 0.44558 0.0
C34 C 0.1037 0.23955 0.4561 0.0
N35 N 0.13891 0.27016 0.46121 0.0
N36 N 0.15294 0.27826 0.44397 0.0
C37 C 0.16864 0.29306 0.45367 0.0
H38 H 0.08982 0.2262 0.43942 0.0
Co39 Co 0.17215 0.2986 0.4305 0.0
C40 C 0.26248 0.37115 0.43208 0.0
O41 O 0.25061 0.39238 0.42572 0.0
N42 N 0.19021 0.31817 0.41635 0.0
C43 C 0.19994 0.34962 0.40066 0.0
C44 C 0.18424 0.34695 0.41061 0.0
C45 C 0.20998 0.30405 0.40953 0.0
N46 N 0.21585 0.32239 0.39995 0.0
O47 O 0.17614 0.24718 0.42804 0.0
H48 H 0.16983 0.36568 0.41332 0.0
H49 H 0.21965 0.28042 0.4115 0.0
O50 O 0.23419 0.33251 0.43509 0.0
C51 C 0.14343 0.21993 0.42268 0.0
O52 O 0.11844 0.23314 0.41835 0.0
N53 N 0.16081 0.3438 0.43321 0.0
C54 C 0.12201 0.39343 0.43788 0.0
C55 C 0.16192 0.40338 0.44243 0.0
C56 C 0.18061 0.37763 0.4401 0.0
C57 C 0.12088 0.33242 0.42926 0.0
C58 C 0.1014 0.35727 0.43128 0.0
H59 H 0.20977 0.38392 0.44418 0.0
H60 H 0.10402 0.30349 0.4245 0.0
H61 H 0.20009 0.32143 0.45515 0.0
H62 H 0.07338 0.21566 0.45972 0.0
H63 H 0.19842 0.36912 0.39432 0.0
H64 H 0.1781 0.43026 0.44784 0.0
H65 H 0.0697 0.34735 0.42796 0.0
C66 C 0.86082 0.12214 0.7798 0.0
C67 C 0.85533 0.11158 0.79023 0.0
N68 N 0.87008 0.14854 0.79578 0.0
N69 N 0.87892 0.16558 0.7787 0.0
C70 C 0.88478 0.18104 0.78861 0.0
H71 H 0.85058 0.09941 0.77336 0.0
Co72 Co 0.88383 0.18977 0.76549 0.0
C73 C 0.905 0.28036 0.76917 0.0
O74 O 0.87164 0.27178 0.76321 0.0
N75 N 0.88861 0.21332 0.75156 0.0
C76 C 0.8743 0.23425 0.73628 0.0
C77 C 0.85868 0.21835 0.74608 0.0
C78 C 0.92241 0.22684 0.7447 0.0
N79 N 0.91429 0.23933 0.73537 0.0
O80 O 0.93752 0.18953 0.76372 0.0
H81 H 0.82725 0.21171 0.74891 0.0
H82 H 0.9526 0.22759 0.74643 0.0
O83 O 0.91437 0.25042 0.77115 0.0
C84 C 0.92906 0.15548 0.7585 0.0
O85 O 0.89065 0.13332 0.75407 0.0
N86 N 0.82804 0.1821 0.76751 0.0
C87 C 0.73965 0.14716 0.77168 0.0
C88 C 0.77076 0.18111 0.77782 0.0
C89 C 0.81505 0.19796 0.77567 0.0
C90 C 0.79797 0.14777 0.76181 0.0
C91 C 0.75363 0.13072 0.76354 0.0
H92 H 0.83864 0.22207 0.78089 0.0
H93 H 0.80871 0.133 0.75599 0.0
H94 H 0.89706 0.21493 0.79052 0.0
H95 H 0.84069 0.07905 0.79349 0.0
H96 H 0.85696 0.24044 0.73017 0.0
H97 H 0.76095 0.19357 0.78439 0.0
H98 H 0.73048 0.1034 0.75889 0.0
C99 C 0.75618 0.87907 0.1143 0.0
C100 C 0.76265 0.88072 0.1249 0.0
N101 N 0.73029 0.88374 0.12965 0.0
N102 N 0.72019 0.88152 0.11228 0.0
C103 C 0.70487 0.88418 0.12181 0.0
H104 H 0.77579 0.87494 0.10841 0.0
Co105 Co 0.69921 0.87625 0.09872 0.0
C106 C 0.62685 0.89475 0.09959 0.0
O107 O 0.60494 0.85977 0.09384 0.0
N108 N 0.67891 0.87074 0.08457 0.0
C109 C 0.64758 0.84554 0.06905 0.0
C110 C 0.65056 0.83464 0.0792 0.0
C111 C 0.69235 0.90316 0.07736 0.0
N112 N 0.67421 0.88861 0.06787 0.0
O113 O 0.75082 0.9307 0.09538 0.0
H114 H 0.63259 0.80204 0.08231 0.0
H115 H 0.71541 0.93697 0.07897 0.0
O116 O 0.6657 0.90584 0.10252 0.0
C117 C 0.77711 0.9231 0.09014 0.0
O118 O 0.76305 0.88345 0.08664 0.0
N119 N 0.65411 0.82062 0.1023 0.0
C120 C 0.60691 0.73397 0.10887 0.0
C121 C 0.59568 0.76459 0.11243 0.0
C122 C 0.62036 0.80817 0.10921 0.0
C123 C 0.66598 0.79146 0.09905 0.0
C124 C 0.64236 0.74798 0.10201 0.0
H125 H 0.61349 0.83182 0.11269 0.0
H126 H 0.69449 0.80239 0.09414 0.0
H127 H 0.6754 0.88565 0.12301 0.0
H128 H 0.7882 0.878 0.12883 0.0
H129 H 0.62838 0.82319 0.06291 0.0
H130 H 0.56934 0.75539 0.11798 0.0
H131 H 0.65218 0.72563 0.09899 0.0
C132 C 0.87465 0.74051 0.4479 0.0
C133 C 0.88123 0.74677 0.45848 0.0
N134 N 0.84478 0.71711 0.46345 0.0
N135 N 0.83412 0.70731 0.44613 0.0
C136 C 0.81657 0.69352 0.45578 0.0
H137 H 0.89843 0.75832 0.44186 0.0
Co138 Co 0.81523 0.68744 0.43262 0.0
C139 C 0.72435 0.61607 0.43461 0.0
O140 O 0.7356 0.59321 0.42864 0.0
N141 N 0.79708 0.66815 0.41843 0.0
C142 C 0.78459 0.63486 0.40293 0.0
C143 C 0.79872 0.63618 0.41297 0.0
C144 C 0.78142 0.68548 0.41134 0.0
N145 N 0.77408 0.66615 0.40188 0.0
O146 O 0.81337 0.74001 0.43009 0.0
H147 H 0.80882 0.6142 0.41598 0.0
H148 H 0.7756 0.71205 0.413 0.0
O149 O 0.75296 0.65508 0.43719 0.0
C150 C 0.84741 0.7664 0.42491 0.0
O151 O 0.87203 0.75185 0.42098 0.0
N152 N 0.82477 0.64105 0.43539 0.0
C153 C 0.86022 0.5884 0.43997 0.0
C154 C 0.82215 0.58158 0.44504 0.0
C155 C 0.80514 0.60878 0.44273 0.0
C156 C 0.8632 0.64955 0.43094 0.0
C157 C 0.88088 0.62302 0.43289 0.0
H158 H 0.7773 0.60473 0.44712 0.0
H159 H 0.88024 0.67738 0.4258 0.0
H160 H 0.78412 0.66642 0.45716 0.0
H161 H 0.91122 0.77027 0.46222 0.0
H162 H 0.78343 0.61335 0.39677 0.0
H163 H 0.80608 0.55591 0.45081 0.0
H164 H 0.91125 0.63037 0.42912 0.0
C165 C 0.13999 0.88923 0.78043 0.0
C166 C 0.14075 0.89659 0.79097 0.0
N167 N 0.13421 0.86053 0.7961 0.0
N168 N 0.13279 0.84865 0.7788 0.0
C169 C 0.12929 0.83177 0.78851 0.0
H170 H 0.14605 0.91266 0.7743 0.0
Co171 Co 0.13517 0.82968 0.76539 0.0
C172 C 0.12013 0.74039 0.76769 0.0
O173 O 0.15475 0.75299 0.76179 0.0
N174 N 0.13791 0.81162 0.75127 0.0
C175 C 0.16148 0.80126 0.7359 0.0
C176 C 0.17263 0.81466 0.74603 0.0
C177 C 0.10584 0.79559 0.74396 0.0
N178 N 0.11949 0.78975 0.73449 0.0
O179 O 0.07946 0.82461 0.76278 0.0
H180 H 0.20442 0.8252 0.74927 0.0
H181 H 0.07326 0.78949 0.74545 0.0
O182 O 0.10793 0.76784 0.77013 0.0
C183 C 0.08574 0.85838 0.7577 0.0
O184 O 0.1246 0.88412 0.75371 0.0
N185 N 0.19196 0.84236 0.76827 0.0
C186 C 0.27969 0.88521 0.77383 0.0
C187 C 0.25001 0.84543 0.77857 0.0
C188 C 0.20592 0.82483 0.77581 0.0
C189 C 0.22028 0.88138 0.76381 0.0
C190 C 0.26428 0.9027 0.76624 0.0
H191 H 0.18305 0.79627 0.78014 0.0
H192 H 0.20825 0.89632 0.75838 0.0
H193 H 0.12444 0.79957 0.78996 0.0
H194 H 0.1478 0.92706 0.79455 0.0
H195 H 0.18306 0.80023 0.73005 0.0
H196 H 0.26033 0.83147 0.78469 0.0
H197 H 0.28588 0.93312 0.76231 0.0
C198 C 0.89425 0.76905 0.58822 0.0
C199 C 0.89433 0.77173 0.57753 0.0
N200 N 0.88939 0.73439 0.57353 0.0
N201 N 0.88993 0.73048 0.59107 0.0
C202 C 0.88663 0.70972 0.58192 0.0
H203 H 0.89538 0.79309 0.59359 0.0
Co204 Co 0.88361 0.7136 0.60507 0.0
C205 C 0.9009 0.64044 0.6068 0.0
O206 O 0.86958 0.62377 0.61382 0.0
N207 N 0.87675 0.69787 0.61963 0.0
C208 C 0.84888 0.67399 0.63553 0.0
C209 C 0.83941 0.67545 0.6252 0.0
C210 C 0.90852 0.70945 0.6269 0.0
N211 N 0.89243 0.69582 0.63667 0.0
O212 O 0.93933 0.7643 0.60784 0.0
H213 H 0.80682 0.66054 0.62214 0.0
H214 H 0.94288 0.72874 0.6251 0.0
O215 O 0.91037 0.67664 0.60234 0.0
C216 C 0.93353 0.79273 0.6126 0.0
O217 O 0.89418 0.78139 0.61596 0.0
N218 N 0.82744 0.6691 0.60205 0.0
C219 C 0.73856 0.61645 0.59893 0.0
C220 C 0.76726 0.60168 0.59613 0.0
C221 C 0.81209 0.629 0.59761 0.0
C222 C 0.80026 0.68518 0.60379 0.0
C223 C 0.75566 0.65922 0.60249 0.0
H224 H 0.8339 0.61788 0.59507 0.0
H225 H 0.81345 0.71811 0.60665 0.0
H226 H 0.88122 0.67691 0.58143 0.0
H227 H 0.89561 0.79829 0.57305 0.0
H228 H 0.82516 0.65796 0.6417 0.0
H229 H 0.75516 0.56929 0.59299 0.0
H230 H 0.73467 0.67241 0.60432 0.0
C231 C 0.13037 0.86923 0.92309 0.0
C232 C 0.12176 0.86797 0.91261 0.0
N233 N 0.15855 0.87867 0.90722 0.0
N234 N 0.17244 0.88082 0.92442 0.0
C235 C 0.18899 0.88653 0.9146 0.0
H236 H 0.10697 0.8606 0.92938 0.0
Co237 Co 0.19379 0.88058 0.93768 0.0
C238 C 0.28316 0.8968 0.9343 0.0
O239 O 0.27182 0.86168 0.9399 0.0
N240 N 0.21444 0.88009 0.95166 0.0
C241 C 0.22909 0.85888 0.96685 0.0
C242 C 0.21552 0.84707 0.95675 0.0
C243 C 0.22838 0.91195 0.95902 0.0
N244 N 0.23669 0.89961 0.96836 0.0
O245 O 0.19755 0.93583 0.9401 0.0
H246 H 0.20751 0.81597 0.95345 0.0
H247 H 0.23113 0.94331 0.95769 0.0
O248 O 0.25512 0.90882 0.93243 0.0
C249 C 0.1636 0.92886 0.94522 0.0
O250 O 0.13882 0.89007 0.94934 0.0
N251 N 0.18216 0.82386 0.935 0.0
C252 C 0.13991 0.73591 0.92956 0.0
C253 C 0.17756 0.76633 0.92417 0.0
C254 C 0.19783 0.81042 0.92689 0.0
C255 C 0.14526 0.79476 0.94016 0.0
C256 C 0.12441 0.75065 0.93779 0.0
H257 H 0.22442 0.83375 0.92209 0.0
H258 H 0.13138 0.80621 0.94604 0.0
H259 H 0.22225 0.89505 0.91291 0.0
H260 H 0.09014 0.85782 0.90924 0.0
H261 H 0.2329 0.8387 0.97262 0.0
H262 H 0.18988 0.75659 0.91756 0.0
H263 H 0.09568 0.72849 0.94223 0.0
C264 C 0.27676 0.11718 0.25608 0.0
C265 C 0.27197 0.10739 0.24562 0.0
N266 N 0.2947 0.14471 0.24017 0.0
N267 N 0.30247 0.16048 0.2573 0.0
C268 C 0.31251 0.17665 0.24743 0.0
H269 H 0.26399 0.09396 0.26245 0.0
Co270 Co 0.32205 0.1836 0.27054 0.0
C271 C 0.39141 0.27453 0.26695 0.0
O272 O 0.41673 0.2655 0.2726 0.0
N273 N 0.34118 0.20606 0.2845 0.0
C274 C 0.37677 0.22594 0.29973 0.0
C275 C 0.37656 0.21125 0.28981 0.0
C276 C 0.32068 0.2184 0.29158 0.0
N277 N 0.34141 0.23013 0.30088 0.0
O278 O 0.26826 0.18343 0.27256 0.0
H279 H 0.40158 0.20535 0.28678 0.0
H280 H 0.29095 0.21882 0.29002 0.0
O281 O 0.35199 0.24468 0.26511 0.0
C282 C 0.24235 0.14898 0.27767 0.0
O283 O 0.25805 0.12581 0.28186 0.0
N284 N 0.37007 0.17598 0.26828 0.0
C285 C 0.42325 0.14115 0.26375 0.0
C286 C 0.42589 0.17533 0.2577 0.0
C287 C 0.39866 0.19221 0.26005 0.0
C288 C 0.36603 0.14143 0.2739 0.0
C289 C 0.39323 0.12442 0.27199 0.0
H290 H 0.39911 0.21667 0.25493 0.0
H291 H 0.34077 0.12644 0.27979 0.0
H292 H 0.33465 0.21058 0.24561 0.0
H293 H 0.25413 0.07511 0.24227 0.0
H294 H 0.4005 0.23179 0.30575 0.0
H295 H 0.44788 0.18797 0.25106 0.0
H296 H 0.38934 0.09696 0.27658 0.0
C297 C 0.16323 0.2846 0.58905 0.0
C298 C 0.16783 0.27754 0.5787 0.0
N299 N 0.14477 0.2908 0.57295 0.0
N300 N 0.13749 0.30238 0.5899 0.0
C301 C 0.12596 0.30502 0.57995 0.0
H302 H 0.17926 0.27897 0.59556 0.0
Co303 Co 0.12872 0.32223 0.60274 0.0
C304 C 0.11179 0.39186 0.59357 0.0
O305 O 0.15212 0.42283 0.59501 0.0
N306 N 0.11927 0.34122 0.61597 0.0
C307 C 0.1193 0.38318 0.62897 0.0
C308 C 0.13007 0.38224 0.61869 0.0
C309 C 0.10202 0.31791 0.62489 0.0
N310 N 0.10171 0.34264 0.63292 0.0
O311 O 0.07414 0.26903 0.60381 0.0
H312 H 0.14623 0.41041 0.6137 0.0
H313 H 0.09077 0.2836 0.62564 0.0
O314 O 0.09979 0.35222 0.59602 0.0
C315 C 0.083 0.24168 0.60801 0.0
O316 O 0.12253 0.25579 0.6116 0.0
N317 N 0.18592 0.37068 0.60182 0.0
C318 C 0.27652 0.42014 0.60003 0.0
C319 C 0.2499 0.41581 0.59152 0.0
C320 C 0.20486 0.39031 0.59252 0.0
C321 C 0.21158 0.37548 0.61024 0.0
C322 C 0.25684 0.40062 0.60957 0.0
H323 H 0.18537 0.38502 0.58562 0.0
H324 H 0.19733 0.35708 0.61733 0.0
H325 H 0.1067 0.31979 0.57783 0.0
H326 H 0.18758 0.26466 0.57562 0.0
H327 H 0.12418 0.41174 0.63317 0.0
H328 H 0.26378 0.43037 0.58401 0.0
H329 H 0.27624 0.40203 0.61625 0.0
C330 C 0.89792 0.14563 0.92357 0.0
C331 C 0.90638 0.14696 0.91307 0.0
N332 N 0.86935 0.13572 0.90779 0.0
N333 N 0.85575 0.13352 0.92503 0.0
C334 C 0.83897 0.12762 0.91527 0.0
H335 H 0.92137 0.15419 0.9298 0.0
Co336 Co 0.83453 0.13232 0.93841 0.0
C337 C 0.74449 0.1145 0.93598 0.0
O338 O 0.75589 0.14809 0.94212 0.0
N339 N 0.81407 0.13119 0.9525 0.0
C340 C 0.7985 0.14923 0.96803 0.0
C341 C 0.8154 0.16401 0.95824 0.0
C342 C 0.79591 0.09664 0.95918 0.0
N343 N 0.78651 0.10691 0.96865 0.0
O344 O 0.83173 0.07732 0.94052 0.0
H345 H 0.82678 0.19683 0.95558 0.0
H346 H 0.78949 0.06433 0.95719 0.0
O347 O 0.77295 0.10376 0.93339 0.0
C348 C 0.86499 0.0836 0.94579 0.0
O349 O 0.88917 0.12177 0.95018 0.0
N350 N 0.84493 0.1888 0.936 0.0
C351 C 0.88225 0.27716 0.93146 0.0
C352 C 0.84539 0.24645 0.926 0.0
C353 C 0.8274 0.20211 0.92831 0.0
C354 C 0.88222 0.21825 0.94089 0.0
C355 C 0.90065 0.26261 0.93899 0.0
H356 H 0.80082 0.17867 0.92358 0.0
H357 H 0.89794 0.20695 0.94629 0.0
H358 H 0.80547 0.11836 0.91369 0.0
H359 H 0.93794 0.15715 0.9096 0.0
H360 H 0.79613 0.16845 0.9743 0.0
H361 H 0.83128 0.25657 0.91987 0.0
H362 H 0.93015 0.28524 0.94307 0.0
C363 C 0.7683 0.87857 0.25521 0.0
C364 C 0.77371 0.88418 0.24459 0.0
N365 N 0.73991 0.85007 0.2399 0.0
N366 N 0.73151 0.84087 0.25731 0.0
C367 C 0.71475 0.82411 0.2478 0.0
H368 H 0.78897 0.90153 0.26107 0.0
Co369 Co 0.71077 0.82534 0.27094 0.0
C370 C 0.63615 0.73597 0.27022 0.0
O371 O 0.61612 0.75006 0.27637 0.0
N372 N 0.69076 0.81084 0.28518 0.0
C373 C 0.65995 0.80564 0.30079 0.0
C374 C 0.66371 0.82022 0.29068 0.0
C375 C 0.70282 0.79035 0.29228 0.0
N376 N 0.68485 0.78717 0.30182 0.0
O377 O 0.76114 0.82001 0.27398 0.0
H378 H 0.64704 0.83635 0.28769 0.0
H379 H 0.72473 0.7782 0.29056 0.0
O380 O 0.67508 0.76259 0.26706 0.0
C381 C 0.78841 0.85322 0.27922 0.0
O382 O 0.77574 0.87966 0.28294 0.0
N383 N 0.66696 0.83807 0.26763 0.0
C384 C 0.62163 0.87987 0.26147 0.0
C385 C 0.60884 0.83768 0.25792 0.0
C386 C 0.63253 0.81755 0.26094 0.0
C387 C 0.68042 0.87945 0.27085 0.0
C388 C 0.65772 0.90047 0.26811 0.0
H389 H 0.62431 0.78669 0.25746 0.0
H390 H 0.70939 0.89631 0.27559 0.0
H391 H 0.68422 0.7942 0.24669 0.0
H392 H 0.79937 0.91245 0.24064 0.0
H393 H 0.64142 0.80963 0.307 0.0
H394 H 0.58199 0.82114 0.25252 0.0
H395 H 0.66873 0.93284 0.27113 0.0
H396 H 0.30557 0.03801 0.06363 0.0
H397 H 0.28982 0.99975 0.04684 0.0
H398 H 0.32795 0.12011 0.03054 0.0
H399 H 0.34293 0.15833 0.04714 0.0
H400 H 0.23032 0.99537 0.03089 0.0
H401 H 0.40053 0.07286 1.01615 0.0
H402 H 0.38753 0.07388 0.02979 0.0
H403 H 0.38367 0.11024 0.02061 0.0
C404 C 0.31051 0.05637 0.05649 0.0
C405 C 0.32599 0.10149 0.05681 0.0
C406 C 0.30166 0.03446 0.04689 0.0
C407 C 0.30845 0.05725 0.03744 0.0
C408 C 0.32347 0.10206 0.03773 0.0
H409 H 0.27434 0.98737 0.97127 0.0
H410 H 0.29049 0.02594 0.988 0.0
C411 C 0.33216 0.12391 0.04728 0.0
C412 C 0.29859 0.03419 0.02725 0.0
H413 H 0.34471 0.03001 1.00407 0.0
C414 C 0.25533 1.00269 0.02505 0.0
C415 C 0.33123 0.04417 0.0196 0.0
C416 C 0.37843 0.07686 0.02165 0.0
C417 C 0.24369 0.98136 1.01534 0.0
C418 C 0.27639 0.99106 1.0077 0.0
C419 C 0.31966 0.02266 1.0099 0.0
C420 C 0.26653 0.96783 0.99752 0.0
C421 C 0.19629 0.94939 1.01327 0.0
C422 C 0.24833 0.92249 0.99728 0.0
C423 C 0.23872 0.90035 0.98776 0.0
C424 C 0.24757 0.92304 0.97818 0.0
C425 C 0.26653 0.96868 0.97844 0.0
C426 C 0.27603 0.99084 0.98801 0.0
H427 H 0.17455 0.95532 0.01845 0.0
H428 H 0.18771 0.95115 1.005 0.0
H429 H 0.18983 0.91588 1.01483 0.0
H430 H 0.24156 0.90409 1.00449 0.0
H431 H 0.22372 0.86528 0.98797 0.0
H432 H 0.2601 0.37761 0.38411 0.0
H433 H 0.27977 0.35933 0.36729 0.0
H434 H 0.22608 0.22603 0.3774 0.0
H435 H 0.2067 0.2444 0.39435 0.0
H436 H 0.30289 0.25547 0.36689 0.0
H437 H 0.19364 0.29409 0.34418 0.0
H438 H 0.23155 0.33904 0.35202 0.0
H439 H 0.19116 0.28959 0.35827 0.0
C440 C 0.25253 0.34442 0.38276 0.0
C441 C 0.23149 0.31236 0.39051 0.0
C442 C 0.26359 0.33395 0.37312 0.0
C443 C 0.25331 0.29105 0.37097 0.0
C444 C 0.23395 0.25928 0.37885 0.0
H445 H 0.25827 0.19942 0.30754 0.0
H446 H 0.23509 0.21231 0.32463 0.0
C447 C 0.22314 0.26984 0.38855 0.0
C448 C 0.26285 0.27959 0.36048 0.0
H449 H 0.24594 0.28496 0.33433 0.0
C450 C 0.29021 0.26164 0.35977 0.0
C451 C 0.24556 0.28677 0.35119 0.0
C452 C 0.21348 0.30299 0.35143 0.0
C453 C 0.30196 0.2521 0.35003 0.0
C454 C 0.28675 0.26172 0.34073 0.0
C455 C 0.25816 0.27822 0.34145 0.0
C456 C 0.30055 0.25535 0.33018 0.0
C457 C 0.33018 0.23135 0.34983 0.0
C458 C 0.34489 0.27636 0.32748 0.0
C459 C 0.35812 0.26899 0.31776 0.0
C460 C 0.32729 0.24093 0.31045 0.0
C461 C 0.28276 0.22143 0.31297 0.0
C462 C 0.26952 0.22857 0.32276 0.0
H463 H 0.32771 0.21407 0.35729 0.0
H464 H 0.32109 0.20783 0.34329 0.0
H465 H 0.36472 0.25708 0.34878 0.0
H466 H 0.36937 0.29829 0.33293 0.0
H467 H 0.39259 0.28509 0.31596 0.0
H468 H 0.96664 0.20894 0.72847 0.0
H469 H 1.00317 0.22357 0.71137 0.0
H470 H 0.95702 0.31225 0.70389 0.0
H471 H 0.92014 0.29722 0.72084 0.0
H472 H 0.93929 0.25369 0.68849 0.0
H473 H 0.11293 0.32772 0.7 0.0
H474 H 0.07748 0.2753 0.70573 0.0
H475 H 0.07089 0.32091 0.70909 0.0
C476 C 0.96515 0.23224 0.72325 0.0
C477 C 0.94045 0.25187 0.72597 0.0
C478 C 0.98602 0.24059 0.71348 0.0
C479 C 0.98307 0.26922 0.70635 0.0
C480 C 0.95964 0.28991 0.70923 0.0
H481 H 0.1252 0.39345 0.6503 0.0
H482 H 0.09619 0.37184 0.66795 0.0
C483 C 0.93857 0.28131 0.71892 0.0
C484 C 1.00187 0.27593 0.69562 0.0
H485 H 0.09716 0.31403 0.68195 0.0
C486 C 0.97382 0.26677 0.68706 0.0
C487 C 0.04693 0.29318 0.69376 0.0
C488 C 0.07895 0.30525 0.70261 0.0
C489 C 0.98956 0.27507 0.67673 0.0
C490 C 0.03458 0.29206 0.67485 0.0
C491 C 0.06261 0.30065 0.68339 0.0
C492 C 0.05356 0.30401 0.66414 0.0
C493 C 0.95799 0.26714 0.66797 0.0
C494 C 0.03988 0.27294 0.6561 0.0
C495 C 0.05597 0.28536 0.6459 0.0
C496 C 0.0864 0.3291 0.64353 0.0
C497 C 0.10112 0.35972 0.65171 0.0
C498 C 0.08488 0.34732 0.66187 0.0
H499 H 0.92709 0.26423 0.6709 0.0
H500 H 0.97248 0.29387 0.6621 0.0
H501 H 0.94993 0.23625 0.66397 0.0
H502 H 0.01638 0.23913 0.6577 0.0
H503 H 0.04376 0.26081 0.63985 0.0
H504 H 0.80549 0.04558 0.97519 0.0
H505 H 0.78476 0.00659 0.99198 0.0
H506 H 0.71019 0.06871 0.99974 0.0
H507 H 0.73188 0.10845 0.98314 0.0
H508 H 0.76044 0.07469 1.01553 0.0
H509 H 0.67376 0.90353 1.00195 0.0
H510 H 0.72824 0.93398 0.9969 0.0
H511 H 0.68838 0.94882 0.99321 0.0
C512 C 0.78398 0.05015 0.98041 0.0
C513 C 0.77026 0.07999 0.97788 0.0
C514 C 0.77207 0.02783 0.99 0.0
C515 C 0.74548 0.03429 0.99712 0.0
C516 C 0.73079 0.06319 0.99442 0.0
H517 H 0.61889 0.87507 0.05195 0.0
H518 H 0.63669 0.91216 0.03497 0.0
C519 C 0.74314 0.08586 0.98493 0.0
C520 C 0.73485 0.0131 1.00762 0.0
H521 H 0.69021 0.91471 0.02011 0.0
C522 C 0.74488 0.03966 1.01652 0.0
C523 C 0.71416 0.96737 1.00894 0.0
C524 C 0.70009 0.93672 0.99974 0.0
C525 C 0.73496 0.02192 0.02666 0.0
C526 C 0.7156 0.97631 0.028 0.0
C527 C 0.70539 0.9497 0.01911 0.0
C528 C 0.70477 0.95532 0.03853 0.0
C529 C 0.7443 0.05224 0.0358 0.0
C530 C 0.73698 0.96725 0.04623 0.0
C531 C 0.72666 0.94644 0.056 0.0
C532 C 0.68412 0.91268 0.05818 0.0
C533 C 0.65196 0.90083 0.05047 0.0
C534 C 0.66214 0.92199 0.04077 0.0
H535 H 0.74648 0.08332 0.03332 0.0
H536 H 0.71875 0.037 0.04194 0.0
H537 H 0.77607 0.0602 0.03929 0.0
H538 H 0.77036 0.992 0.04462 0.0
H539 H 0.7523 0.95565 0.06171 0.0
H540 H 0.62771 0.74483 0.31746 0.0
H541 H 0.64338 0.72435 0.3345 0.0
H542 H 0.7774 0.77531 0.32523 0.0
H543 H 0.76137 0.79472 0.30803 0.0
H544 H 0.7489 0.70145 0.3357 0.0
H545 H 0.70393 0.80671 0.35808 0.0
H546 H 0.65972 0.76815 0.35019 0.0
H547 H 0.70902 0.80937 0.34402 0.0
C548 C 0.66046 0.75152 0.31906 0.0
C549 C 0.69338 0.77161 0.31145 0.0
C550 C 0.6695 0.74012 0.32883 0.0
C551 C 0.71189 0.74945 0.33129 0.0
C552 C 0.74452 0.76812 0.32356 0.0
H553 H 0.7978 0.74787 0.39539 0.0
H554 H 0.7838 0.76913 0.3782 0.0
C555 C 0.73532 0.77899 0.31372 0.0
C556 C 0.72203 0.73949 0.3419 0.0
H557 H 0.71299 0.75464 0.36801 0.0
C558 C 0.74128 0.71331 0.34276 0.0
C559 C 0.71303 0.75572 0.35114 0.0
C560 C 0.69574 0.78693 0.35082 0.0
C561 C 0.75068 0.70198 0.35256 0.0
C562 C 0.73924 0.71604 0.36181 0.0
C563 C 0.7211 0.7432 0.36095 0.0
C564 C 0.74602 0.7031 0.37243 0.0
C565 C 0.7736 0.67578 0.35286 0.0
C566 C 0.72832 0.65895 0.37506 0.0
C567 C 0.73663 0.64687 0.38483 0.0
C568 C 0.76199 0.67861 0.39227 0.0
C569 C 0.77789 0.72272 0.38984 0.0
C570 C 0.77008 0.73486 0.38 0.0
H571 H 0.79222 0.67982 0.34553 0.0
H572 H 0.79639 0.68538 0.35956 0.0
H573 H 0.74903 0.64071 0.35367 0.0
H574 H 0.70836 0.63374 0.36953 0.0
H575 H 0.72341 0.61263 0.38656 0.0
H576 H 0.03136 0.75057 0.73165 0.0
H577 H 0.99255 0.73314 0.71498 0.0
H578 H 0.11417 0.78302 0.69833 0.0
H579 H 0.1534 0.80174 0.71478 0.0
H580 H 0.00997 0.79639 0.69769 0.0
H581 H 0.03296 0.65804 0.68607 0.0
H582 H 0.03727 0.67586 0.69948 0.0
H583 H 0.0809 0.7065 0.69041 0.0
C584 C 0.05005 0.75804 0.72449 0.0
C585 C 0.09579 0.77752 0.7247 0.0
C586 C 0.02769 0.7478 0.71495 0.0
C587 C 0.05048 0.75629 0.70544 0.0
C588 C 0.09589 0.77547 0.70559 0.0
H589 H 0.97764 0.71892 0.63947 0.0
H590 H 0.01705 0.73541 0.65608 0.0
C591 C 0.11829 0.78602 0.71508 0.0
C592 C 0.02724 0.74684 0.6953 0.0
H593 H 1.00277 0.68391 0.67338 0.0
C594 C 0.0081 0.77162 0.69239 0.0
C595 C 0.02547 0.71496 0.68837 0.0
C596 C 0.04494 0.68699 0.69122 0.0
C597 C 0.98767 0.76576 0.68265 0.0
C598 C 0.98529 0.73339 0.67574 0.0
C599 C 1.00462 0.70872 0.67866 0.0
C600 C 0.96168 0.72374 0.66562 0.0
C601 C 0.9698 0.79511 0.67975 0.0
C602 C 0.91738 0.71115 0.66546 0.0
C603 C 0.89496 0.70222 0.656 0.0
C604 C 0.91604 0.70497 0.64643 0.0
C605 C 0.96039 0.71697 0.64662 0.0
C606 C 0.98293 0.72614 0.65613 0.0
H607 H 0.98593 0.82606 0.68423 0.0
H608 H 0.974 0.80298 0.67127 0.0
H609 H 0.9345 0.77837 0.68163 0.0
H610 H 0.89999 0.70809 0.67268 0.0
H611 H 0.86111 0.69366 0.65625 0.0
H612 H 0.66273 0.98249 0.10386 0.0
H613 H 0.62289 0.02236 0.10638 0.0
H614 H 0.50093 0.90158 0.10456 0.0
H615 H 0.54008 0.86205 0.10201 0.0
H616 H 0.56084 0.01963 0.09118 0.0
H617 H 0.4835 0.96276 0.13015 0.0
H618 H 0.53059 0.95943 0.12604 0.0
H619 H 0.47725 0.92013 0.12149 0.0
C620 C 0.62748 0.96448 0.10424 0.0
C621 C 0.6046 0.91916 0.10271 0.0
C622 C 0.60473 0.98724 0.10564 0.0
C623 C 0.55883 0.96491 0.10577 0.0
C624 C 0.53622 0.91951 0.10467 0.0
H625 H 0.35026 0.02904 0.10269 0.0
H626 H 0.39306 0.99217 0.10516 0.0
C627 C 0.55876 0.89698 0.10314 0.0
C628 C 0.53412 0.9888 0.10598 0.0
H629 H 0.45549 0.99819 0.11943 0.0
C630 C 0.53825 0.01542 0.09742 0.0
C631 C 0.50393 0.98258 0.11402 0.0
C632 C 0.49867 0.95496 0.1235 0.0
C633 C 0.51245 0.03518 0.09655 0.0
C634 C 0.48241 0.0293 0.10463 0.0
C635 C 0.4784 1.00278 0.11323 0.0
C636 C 0.45582 0.05133 0.1043 0.0
C637 C 0.51664 0.06096 0.08677 0.0
C638 C 0.47659 0.09682 0.10347 0.0
C639 C 0.45239 0.11763 0.10197 0.0
C640 C 0.40662 0.09366 0.10147 0.0
C641 C 0.38545 0.04835 0.10304 0.0
C642 C 0.40992 0.02731 0.10441 0.0
H643 H 0.53048 0.05139 0.08016 0.0
H644 H 0.48461 0.0565 0.08435 0.0
H645 H 0.53896 0.09608 0.08831 0.0
H646 H 0.51179 0.11629 0.1037 0.0
H647 H 0.46974 0.15268 0.10097 0.0
H648 H 0.3187 0.45817 0.43197 0.0
H649 H 0.39626 0.49682 0.43574 0.0
H650 H 0.38919 0.37578 0.44431 0.0
H651 H 0.31056 0.33626 0.44042 0.0
H652 H 0.44595 0.50392 0.45366 0.0
H653 H 0.48015 0.42422 0.42036 0.0
H654 H 0.42827 0.42153 0.42199 0.0
H655 H 0.44193 0.38847 0.43001 0.0
C656 C 0.33335 0.43954 0.43473 0.0
C657 C 0.3084 0.39391 0.43576 0.0
C658 C 0.37783 0.46189 0.43693 0.0
C659 C 0.39881 0.43929 0.44016 0.0
C660 C 0.37379 0.39388 0.44168 0.0
H661 H 0.6768 0.5326 0.44097 0.0
H662 H 0.59845 0.49063 0.44409 0.0
C663 C 0.32884 0.37134 0.43953 0.0
C664 C 0.44717 0.46354 0.44124 0.0
H665 H 0.54015 0.47709 0.42967 0.0
C666 C 0.46663 0.49781 0.44849 0.0
C667 C 0.47417 0.45591 0.43443 0.0
C668 C 0.4553 0.42081 0.42619 0.0
C669 C 0.51226 0.52448 0.44912 0.0
C670 C 0.53922 0.51736 0.44216 0.0
C671 C 0.51965 0.48266 0.43502 0.0
C672 C 0.58776 0.54514 0.442 0.0
C673 C 0.53106 0.55968 0.45732 0.0
C674 C 0.60854 0.5904 0.44014 0.0
C675 C 0.65389 0.61483 0.43853 0.0
C676 C 0.67891 0.59415 0.43855 0.0
C677 C 0.65831 0.54942 0.44089 0.0
C678 C 0.61343 0.52531 0.44264 0.0
H679 H 0.50784 0.55258 0.46389 0.0
H680 H 0.56193 0.56361 0.46051 0.0
H681 H 0.53804 0.59106 0.45373 0.0
H682 H 0.58952 0.60646 0.43939 0.0
H683 H 0.66884 0.6491 0.43659 0.0
H684 H 0.03463 0.68954 0.77429 0.0
H685 H 0.99675 0.6109 0.77824 0.0
H686 H 0.11651 0.60964 0.77329 0.0
H687 H 0.15412 0.68718 0.76947 0.0
H688 H 0.98929 0.54751 0.76414 0.0
H689 H 0.0715 0.53834 0.79999 0.0
H690 H 0.07466 0.58831 0.7956 0.0
H691 H 0.10925 0.57018 0.78985 0.0
C692 C 0.05295 0.67258 0.77429 0.0
C693 C 0.09732 0.69462 0.77152 0.0
C694 C 0.03131 0.62766 0.77651 0.0
C695 C 0.0539 0.60435 0.77621 0.0
C696 C 0.09849 0.62684 0.77382 0.0
H697 H 0.99376 0.33563 0.77016 0.0
H698 H 0.03049 0.4149 0.77318 0.0
C699 C 0.11988 0.6713 0.77152 0.0
C700 C 0.03066 0.55597 0.77726 0.0
H701 H 0.03289 0.47217 0.79008 0.0
C702 C 0.99833 0.53105 0.76993 0.0
C703 C 0.04288 0.53439 0.78471 0.0
C704 C 0.07619 0.55918 0.79305 0.0
C705 C 0.97895 0.48545 0.76961 0.0
C706 C 0.99151 0.46387 0.77697 0.0
C707 C 0.02339 0.48867 0.78441 0.0
C708 C 0.97124 0.41554 0.777 0.0
C709 C 0.94616 0.46087 0.76113 0.0
C710 C 0.92629 0.38941 0.7787 0.0
C711 C 0.90552 0.34459 0.77695 0.0
C712 C 0.92926 0.32468 0.77364 0.0
C713 C 0.9748 0.3501 0.77282 0.0
C714 C 0.99569 0.39536 0.77447 0.0
H715 H 0.94828 0.48263 0.75462 0.0
H716 H 0.95094 0.43449 0.75789 0.0
H717 H 0.91282 0.44579 0.76449 0.0
H718 H 0.90688 0.40404 0.78085 0.0
H719 H 0.87036 0.32572 0.77767 0.0
H720 H 0.12522 0.45997 0.5814 0.0
H721 H 0.08303 0.49727 0.58151 0.0
H722 H 0.98516 0.39508 0.60078 0.0
H723 H 0.02778 0.35763 0.60079 0.0
H724 H 0.99667 0.47817 0.57687 0.0
H725 H 0.03524 0.50524 0.61928 0.0
H726 H 0.06118 0.48481 0.61062 0.0
H727 H 0.0067 0.44922 0.61527 0.0
C728 C 0.09404 0.44472 0.5854 0.0
C729 C 0.07993 0.40603 0.59115 0.0
C730 C 0.06998 0.46615 0.58546 0.0
C731 C 0.03146 0.44951 0.59134 0.0
C732 C 0.01522 0.40884 0.59633 0.0
H733 H 0.87867 0.55943 0.61366 0.0
H734 H 0.91019 0.51484 0.60898 0.0
C735 C 0.03928 0.38717 0.59623 0.0
C736 C 0.01149 0.47724 0.59315 0.0
H737 H 0.99325 0.53359 0.61227 0.0
C738 C 0.99571 0.49019 0.58461 0.0
C739 C 0.01108 0.49361 0.60323 0.0
C740 C 0.02977 0.48293 0.61263 0.0
C741 C 0.97834 0.51802 0.58593 0.0
C742 C 0.97757 0.534 0.59602 0.0
C743 C 0.99382 0.52137 0.60453 0.0
C744 C 0.95765 0.56159 0.59819 0.0
C745 C 0.96003 0.52924 0.57656 0.0
C746 C 0.97376 0.60314 0.59367 0.0
C747 C 0.95547 0.62916 0.59633 0.0
C748 C 0.92109 0.61412 0.60362 0.0
C749 C 0.9052 0.57244 0.60805 0.0
C750 C 0.92318 0.54665 0.60537 0.0
H751 H 0.95427 0.50691 0.5699 0.0
H752 H 0.9289 0.52792 0.57859 0.0
H753 H 0.98351 0.56289 0.57396 0.0
H754 H 1.00092 0.61577 0.58825 0.0
H755 H 0.96851 0.66106 0.59278 0.0
H756 H 0.68819 0.14514 0.93546 0.0
H757 H 0.61067 0.10567 0.93174 0.0
H758 H 0.61822 0.99115 0.92412 0.0
H759 H 0.69682 0.03079 0.92803 0.0
H760 H 0.56058 0.06256 0.91444 0.0
H761 H 0.52758 0.94894 0.94777 0.0
H762 H 0.57964 0.99766 0.94593 0.0
H763 H 0.56494 0.95052 0.93801 0.0
C764 C 0.67366 0.1116 0.93292 0.0
C765 C 0.69874 0.09093 0.93219 0.0
C766 C 0.62917 0.08912 0.93074 0.0
C767 C 0.60829 0.04522 0.92782 0.0
C768 C 0.63348 0.02485 0.92654 0.0
H769 H 0.33006 0.86094 0.92736 0.0
H770 H 0.40822 0.89715 0.924 0.0
C771 C 0.67844 0.04758 0.9287 0.0
C772 C 0.55987 0.0209 0.92681 0.0
H773 H 0.46726 0.94144 0.93852 0.0
C774 C 0.54011 0.03575 0.91963 0.0
C775 C 0.5331 0.98624 0.93365 0.0
C776 C 0.55218 0.96997 0.94185 0.0
C777 C 0.49448 0.01693 0.91912 0.0
C778 C 0.46778 0.98284 0.92611 0.0
C779 C 0.48759 0.96754 0.93315 0.0
C780 C 0.41929 0.9623 0.92641 0.0
C781 C 0.47534 0.03354 0.91104 0.0
C782 C 0.39879 0.98684 0.92854 0.0
C783 C 0.35355 0.96602 0.93032 0.0
C784 C 0.32836 0.92036 0.93018 0.0
C785 C 0.34866 0.8962 0.92755 0.0
C786 C 0.39343 0.91688 0.92566 0.0
H787 H 0.49834 0.04994 0.90444 0.0
H788 H 0.44441 0.00666 0.90787 0.0
H789 H 0.46833 0.05771 0.91473 0.0
H790 H 0.41799 0.02185 0.92937 0.0
H791 H 0.33887 0.98537 0.93248 0.0
H792 H 0.35321 0.32559 0.2655 0.0
H793 H 0.39165 0.40512 0.2628 0.0
H794 H 0.51156 0.40464 0.25737 0.0
H795 H 0.47363 0.32603 0.26004 0.0
H796 H 0.46071 0.46089 0.27595 0.0
H797 H 0.51684 0.48856 0.23471 0.0
H798 H 0.4731 0.43687 0.23935 0.0
H799 H 0.52891 0.45166 0.24158 0.0
C800 C 0.38738 0.34237 0.26335 0.0
C801 C 0.41041 0.31967 0.26295 0.0
C802 C 0.40941 0.38779 0.26188 0.0
C803 C 0.45452 0.41092 0.25978 0.0
C804 C 0.47674 0.38766 0.25877 0.0
H805 H 0.6668 0.68155 0.26373 0.0
H806 H 0.62271 0.60254 0.26044 0.0
C807 C 0.45498 0.34265 0.26036 0.0
C808 C 0.47975 0.45946 0.26003 0.0
H809 H 0.55291 0.54967 0.24623 0.0
C810 C 0.48036 0.48032 0.2694 0.0
C811 C 0.50614 0.48481 0.25155 0.0
C812 C 0.50602 0.46441 0.24119 0.0
C813 C 0.50722 0.52552 0.27062 0.0
C814 C 0.53359 0.55099 0.26215 0.0
C815 C 0.53288 0.53022 0.25274 0.0
C816 C 0.56068 0.59932 0.26291 0.0
C817 C 0.50801 0.54543 0.28111 0.0
C818 C 0.54053 0.62393 0.26497 0.0
C819 C 0.56543 0.66851 0.26691 0.0
C820 C 0.61125 0.68994 0.2667 0.0
C821 C 0.63161 0.66595 0.26397 0.0
C822 C 0.60644 0.62086 0.26211 0.0
H823 H 0.49609 0.52073 0.28748 0.0
H824 H 0.54141 0.57173 0.28309 0.0
H825 H 0.48641 0.55972 0.28085 0.0
H826 H 0.50534 0.60838 0.26536 0.0
H827 H 0.54858 0.68608 0.2688 0.0
H828 H 0.30559 0.08904 0.22792 0.0
H829 H 0.31266 0.09113 0.2089 0.0
H830 H 0.3058 0.20927 0.20802 0.0
H831 H 0.30002 0.2078 0.22721 0.0
H832 H 0.25505 0.08395 0.19509 0.0
H833 H 0.40572 0.24189 0.18838 0.0
H834 H 0.3898 0.21742 0.2012 0.0
H835 H 0.36575 0.24744 0.19581 0.0
C836 C 0.30592 0.11564 0.22367 0.0
C837 C 0.30197 0.14814 0.22903 0.0
C838 C 0.31009 0.11689 0.2128 0.0
C839 C 0.31018 0.15054 0.20698 0.0
C840 C 0.30693 0.18352 0.21232 0.0
H841 H 0.26555 0.17882 0.14223 0.0
H842 H 0.27689 0.18451 0.16114 0.0
C843 C 0.30338 0.18259 0.22327 0.0
C844 C 0.31048 0.14896 0.19532 0.0
H845 H 0.36172 0.20765 0.17333 0.0
C846 C 0.27877 0.11086 0.19036 0.0
C847 C 0.34141 0.18401 0.1891 0.0
C848 C 0.37786 0.22482 0.19389 0.0
C849 C 0.27652 0.10723 0.17942 0.0
C850 C 0.30673 0.14257 0.17323 0.0
C851 C 0.33868 0.18056 0.17812 0.0
C852 C 0.30352 0.14142 0.16166 0.0
C853 C 0.24111 0.06608 0.17449 0.0
C854 C 0.31547 0.11582 0.15566 0.0
C855 C 0.30909 0.11255 0.14479 0.0
C856 C 0.29015 0.1344 0.13982 0.0
C857 C 0.27941 0.16092 0.14586 0.0
C858 C 0.2862 0.16452 0.15665 0.0
H859 H 0.21756 0.04329 0.18037 0.0
H860 H 0.2231 0.07409 0.16862 0.0
H861 H 0.25601 0.04923 0.17033 0.0
H862 H 0.32901 0.09781 0.15941 0.0
H863 H 0.31762 0.09192 0.14033 0.0
H864 H 0.21031 0.29962 0.47357 0.0
H865 H 0.2125 0.3074 0.49273 0.0
H866 H 0.07606 0.26825 0.49295 0.0
H867 H 0.07366 0.25989 0.47398 0.0
H868 H 0.19349 0.35699 0.5062 0.0
H869 H 0.0788 0.18134 0.51303 0.0
H870 H 0.10372 0.20251 0.50046 0.0
H871 H 0.05702 0.20613 0.50458 0.0
C872 C 0.18097 0.29296 0.47773 0.0
C873 C 0.14164 0.27831 0.47231 0.0
C874 C 0.18217 0.29731 0.48866 0.0
C875 C 0.14412 0.28725 0.4943 0.0
C876 C 0.10547 0.2748 0.48881 0.0
H877 H 0.07927 0.28297 0.56052 0.0
H878 H 0.07923 0.28523 0.54128 0.0
C879 C 0.10416 0.27008 0.47796 0.0
C880 C 0.14434 0.28912 0.50593 0.0
H881 H 0.09541 0.22788 0.52775 0.0
C882 C 0.17222 0.32873 0.51091 0.0
C883 C 0.11656 0.25217 0.51209 0.0
C884 C 0.08765 0.20803 0.50728 0.0
C885 C 0.17249 0.33253 0.52187 0.0
C886 C 0.14438 0.29571 0.52799 0.0
C887 C 0.11655 0.25616 0.52302 0.0
C888 C 0.14497 0.29681 0.53959 0.0
C889 C 0.20244 0.376 0.52683 0.0
C890 C 0.18177 0.30237 0.54498 0.0
C891 C 0.18172 0.3008 0.5559 0.0
C892 C 0.14483 0.29363 0.56168 0.0
C893 C 0.10817 0.28875 0.55628 0.0
C894 C 0.1081 0.28992 0.54531 0.0
H895 H 0.21428 0.40309 0.52107 0.0
H896 H 0.18574 0.38258 0.53334 0.0
H897 H 0.23118 0.37554 0.5301 0.0
H898 H 0.21033 0.30717 0.54073 0.0
H899 H 0.21072 0.30535 0.55982 0.0
H900 H 0.92799 0.21121 0.80874 0.0
H901 H 0.92489 0.21082 0.828 0.0
H902 H 0.80055 0.09214 0.82721 0.0
H903 H 0.80408 0.092 0.80813 0.0
H904 H 0.8673 0.21059 0.84262 0.0
H905 H 0.87132 0.05656 0.84512 0.0
H906 H 0.88213 0.08701 0.8331 0.0
H907 H 0.82692 0.0516 0.83739 0.0
C908 C 0.89995 0.18533 0.81272 0.0
C909 C 0.86673 0.15118 0.80697 0.0
C910 C 0.89817 0.18506 0.82369 0.0
C911 C 0.863 0.15079 0.82906 0.0
C912 C 0.82866 0.11815 0.82327 0.0
H913 H 0.80928 0.14525 0.89652 0.0
H914 H 0.80535 0.14858 0.87742 0.0
C915 C 0.83068 0.11813 0.81236 0.0
C916 C 0.86264 0.14809 0.84069 0.0
H917 H 0.85606 0.08175 0.86087 0.0
C918 C 0.86497 0.1825 0.84663 0.0
C919 C 0.86015 0.11165 0.84592 0.0
C920 C 0.86043 0.07481 0.84007 0.0
C921 C 0.86446 0.18128 0.85764 0.0
C922 C 0.86057 0.14418 0.86286 0.0
C923 C 0.85848 0.10994 0.8569 0.0
C924 C 0.86149 0.14115 0.87447 0.0
C925 C 0.86934 0.22023 0.86358 0.0
C926 C 0.89311 0.13404 0.87918 0.0
C927 C 0.89483 0.13118 0.89004 0.0
C928 C 0.86509 0.13559 0.89653 0.0
C929 C 0.83266 0.14163 0.8918 0.0
C930 C 0.83078 0.14421 0.88087 0.0
H931 H 0.88311 0.24984 0.85857 0.0
H932 H 0.83684 0.21339 0.86637 0.0
H933 H 0.8907 0.22718 0.87049 0.0
H934 H 0.9169 0.13109 0.87444 0.0
H935 H 0.91966 0.12554 0.89334 0.0
H936 H 0.65294 0.8459 0.1401 0.0
H937 H 0.64257 0.83823 0.1592 0.0
H938 H 0.78185 0.91018 0.16339 0.0
H939 H 0.79223 0.91841 0.14448 0.0
H940 H 0.6753 0.79754 0.17286 0.0
H941 H 0.73863 0.96983 0.18372 0.0
H942 H 0.72207 0.95012 0.17055 0.0
H943 H 0.77504 0.9629 0.1752 0.0
C944 C 0.68121 0.86083 0.14513 0.0
C945 C 0.72342 0.88279 0.1408 0.0
C946 C 0.67528 0.85616 0.15602 0.0
C947 C 0.71143 0.87401 0.16273 0.0
C948 C 0.75345 0.89673 0.15839 0.0
H949 H 0.79914 0.88026 0.22424 0.0
H950 H 0.78529 0.88225 0.20561 0.0
C951 C 0.75936 0.90112 0.14757 0.0
C952 C 0.70615 0.86726 0.17424 0.0
H953 H 0.73813 0.92262 0.19733 0.0
C954 C 0.68818 0.82475 0.17824 0.0
C955 C 0.72285 0.90279 0.18125 0.0
C956 C 0.74033 0.94894 0.17747 0.0
C957 C 0.68905 0.81715 0.18903 0.0
C958 C 0.70802 0.85295 0.19596 0.0
C959 C 0.72393 0.89521 0.19199 0.0
C960 C 0.71514 0.84799 0.2072 0.0
C961 C 0.67186 0.77119 0.19291 0.0
C962 C 0.68021 0.82738 0.21429 0.0
C963 C 0.6881 0.8263 0.22502 0.0
C964 C 0.73106 0.84607 0.22881 0.0
C965 C 0.76574 0.86531 0.2216 0.0
C966 C 0.75787 0.86638 0.21095 0.0
H967 H 0.66361 0.7477 0.18638 0.0
H968 H 0.69623 0.76943 0.19801 0.0
H969 H 0.64201 0.76108 0.19765 0.0
H970 H 0.64697 0.81342 0.21159 0.0
H971 H 0.66071 0.81169 0.23037 0.0
H972 H 0.88098 0.77925 0.47824 0.0
H973 H 0.87883 0.76879 0.49715 0.0
H974 H 0.79446 0.63053 0.49315 0.0
H975 H 0.79719 0.64083 0.47406 0.0
H976 H 0.80621 0.73079 0.51098 0.0
H977 H 0.8975 0.64051 0.51078 0.0
H978 H 0.89696 0.67145 0.4996 0.0
H979 H 0.84987 0.62 0.50266 0.0
C980 C 0.86199 0.74659 0.48137 0.0
C981 C 0.83958 0.71084 0.47464 0.0
C982 C 0.86063 0.74067 0.49219 0.0
C983 C 0.83704 0.69884 0.49656 0.0
C984 C 0.81342 0.66304 0.48992 0.0
H985 H 0.83852 0.6542 0.56495 0.0
H986 H 0.82141 0.63822 0.54624 0.0
C987 C 0.8146 0.66901 0.47904 0.0
C988 C 0.83802 0.69359 0.50808 0.0
H989 H 0.88161 0.65934 0.52719 0.0
C990 C 0.82209 0.71457 0.51453 0.0
C991 C 0.85866 0.67231 0.51271 0.0
C992 C 0.87703 0.64992 0.50613 0.0
C993 C 0.82768 0.71629 0.52542 0.0
C994 C 0.85033 0.69705 0.52999 0.0
C995 C 0.86432 0.6741 0.52364 0.0
C996 C 0.86353 0.70469 0.54115 0.0
C997 C 0.8104 0.73984 0.53194 0.0
C998 C 0.89402 0.74686 0.54439 0.0
C999 C 0.90395 0.75592 0.55497 0.0
C1000 C 0.88363 0.72302 0.56257 0.0
C1001 C 0.85483 0.68016 0.55927 0.0
C1002 C 0.84486 0.67106 0.54861 0.0
H1003 H 0.78455 0.74285 0.52778 0.0
H1004 H 0.79704 0.72272 0.5395 0.0
H1005 H 0.83741 0.77315 0.53368 0.0
H1006 H 0.90936 0.77311 0.53874 0.0
H1007 H 0.92688 0.78905 0.55723 0.0
H1008 H 0.10807 0.88796 0.89273 0.0
H1009 H 0.10918 0.87886 0.87386 0.0
H1010 H 0.21896 0.85886 0.87693 0.0
H1011 H 0.21733 0.86653 0.89599 0.0
H1012 H 0.22056 0.92321 0.86004 0.0
H1013 H 0.07642 0.75629 0.85942 0.0
H1014 H 0.07152 0.79548 0.86739 0.0
H1015 H 0.11018 0.77896 0.87087 0.0
C1016 C 0.13231 0.88127 0.88946 0.0
C1017 C 0.16225 0.87742 0.89596 0.0
C1018 C 0.13295 0.87623 0.87865 0.0
C1019 C 0.1637 0.86755 0.87404 0.0
C1020 C 0.19477 0.86526 0.88038 0.0
H1021 H 0.15562 0.80695 0.80669 0.0
H1022 H 0.16531 0.80522 0.82568 0.0
C1023 C 0.19397 0.86998 0.89126 0.0
C1024 C 0.16289 0.86107 0.86257 0.0
H1025 H 0.09926 0.79347 0.84307 0.0
C1026 C 0.1945 0.89457 0.85632 0.0
C1027 C 0.12894 0.82357 0.85776 0.0
C1028 C 0.0949 0.78625 0.86417 0.0
C1029 C 0.19176 0.89243 0.84534 0.0
C1030 C 0.15652 0.85594 0.84054 0.0
C1031 C 0.12615 0.82146 0.84678 0.0
C1032 C 0.14879 0.85495 0.82913 0.0
C1033 C 0.22588 0.92971 0.83893 0.0
C1034 C 0.13506 0.88248 0.82486 0.0
C1035 C 0.1289 0.88311 0.8141 0.0
C1036 C 0.13663 0.85641 0.80731 0.0
C1037 C 0.14911 0.82775 0.81166 0.0
C1038 C 0.15497 0.82693 0.8225 0.0
H1039 H 0.25555 0.95068 0.84358 0.0
H1040 H 0.23524 0.91737 0.83199 0.0
H1041 H 0.21232 0.95009 0.8361 0.0
H1042 H 0.12938 0.90378 0.82988 0.0
H1043 H 0.11833 0.90484 0.8111 0.0
H1044 H 0.64072 0.68216 0.11414 0.0
H1045 H 0.60127 0.60371 0.11702 0.0
H1046 H 0.47924 0.60262 0.11504 0.0
H1047 H 0.51862 0.68113 0.11153 0.0
H1048 H 0.54324 0.54798 0.13111 0.0
H1049 H 0.46713 0.52034 0.09182 0.0
H1050 H 0.50997 0.57304 0.09596 0.0
H1051 H 0.45484 0.55308 0.1003 0.0
C1052 C 0.60545 0.66527 0.11426 0.0
C1053 C 0.58277 0.68771 0.1123 0.0
C1054 C 0.58296 0.62046 0.11603 0.0
C1055 C 0.53733 0.59715 0.11598 0.0
C1056 C 0.51451 0.61987 0.11484 0.0
H1057 H 0.35737 0.31909 0.11575 0.0
H1058 H 0.39176 0.39712 0.1192 0.0
C1059 C 0.53704 0.66479 0.11295 0.0
C1060 C 0.51418 0.54891 0.11638 0.0
H1061 H 0.4476 0.45824 0.10218 0.0
C1062 C 0.52215 0.52832 0.12481 0.0
C1063 C 0.48715 0.52336 0.10808 0.0
C1064 C 0.47952 0.54349 0.09848 0.0
C1065 C 0.50373 0.48285 0.12514 0.0
C1066 C 0.47673 0.45758 0.11686 0.0
C1067 C 0.46824 0.47797 0.10853 0.0
C1068 C 0.4573 0.40981 0.11647 0.0
C1069 C 0.51308 0.46195 0.13429 0.0
C1070 C 0.48304 0.39115 0.114 0.0
C1071 C 0.46343 0.34653 0.1119 0.0
C1072 C 0.41784 0.32019 0.11218 0.0
C1073 C 0.39252 0.33874 0.11526 0.0
C1074 C 0.41207 0.38319 0.11731 0.0
H1075 H 0.52932 0.48529 0.14079 0.0
H1076 H 0.4824 0.43382 0.13726 0.0
H1077 H 0.53468 0.44944 0.13168 0.0
H1078 H 0.51804 0.41143 0.1132 0.0
H1079 H 0.48371 0.33317 0.10951 0.0
H1080 H 0.10911 0.41949 0.45712 0.0
H1081 H 0.06234 0.45068 0.46111 0.0
H1082 H 0.0378 0.45367 0.42818 0.0
H1083 H 0.08446 0.42308 0.42415 0.0
H1084 H 0.06331 0.53084 0.45247 0.0
H1085 H 0.91571 0.37417 0.44278 0.0
H1086 H 0.96722 0.37816 0.44598 0.0
H1087 H 0.95826 0.3926 0.43311 0.0
C1088 C 0.09446 0.42775 0.45074 0.0
C1089 C 0.09994 0.41847 0.44033 0.0
C1090 C 0.06764 0.44525 0.45303 0.0
C1091 C 0.04606 0.45351 0.44494 0.0
C1092 C 0.0536 0.44669 0.43453 0.0
H1093 H 0.88778 0.55001 0.42594 0.0
H1094 H 0.92966 0.51367 0.42943 0.0
C1095 C 0.08025 0.42929 0.43224 0.0
C1096 C 0.01411 0.46759 0.44719 0.0
H1097 H 0.90781 0.43751 0.44289 0.0
C1098 C 0.02908 0.51026 0.45064 0.0
C1099 C 0.96952 0.44037 0.44484 0.0
C1100 C 0.95152 0.39361 0.44156 0.0
C1101 C 1.00101 0.52751 0.45104 0.0
C1102 C 0.95704 0.50109 0.448 0.0
C1103 C 0.94157 0.45761 0.44519 0.0
C1104 C 0.92842 0.51964 0.44626 0.0
C1105 C 0.01906 0.5746 0.45401 0.0
C1106 C 0.91289 0.53385 0.45461 0.0
C1107 C 0.8887 0.55447 0.45262 0.0
C1108 C 0.88012 0.5613 0.44227 0.0
C1109 C 0.89428 0.54541 0.43398 0.0
C1110 C 0.91807 0.52464 0.43596 0.0
H1111 H 0.05484 0.5917 0.45527 0.0
H1112 H 0.01182 0.59197 0.4478 0.0
H1113 H 1.00316 0.57647 0.46133 0.0
H1114 H 0.92031 0.52985 0.46261 0.0
H1115 H 0.87834 0.56669 0.45913 0.0
H1116 H 0.33066 0.97295 0.77651 0.0
H1117 H 0.40914 0.01434 0.77893 0.0
H1118 H 0.41268 0.89476 0.78145 0.0
H1119 H 0.334 0.85285 0.77833 0.0
H1120 H 0.46564 0.02118 0.79355 0.0
H1121 H 0.49347 0.95279 0.7571 0.0
H1122 H 0.44037 0.94337 0.76082 0.0
H1123 H 0.4626 0.91311 0.76698 0.0
C1124 C 0.34808 0.95533 0.7775 0.0
C1125 C 0.32626 0.9096 0.7769 0.0
C1126 C 0.39293 0.97909 0.77902 0.0
C1127 C 0.41694 0.95769 0.78011 0.0
C1128 C 0.3949 0.91194 0.78034 0.0
H1129 H 0.70005 0.11097 0.79023 0.0
H1130 H 0.62162 0.06482 0.79341 0.0
C1131 C 0.34989 0.88803 0.77867 0.0
C1132 C 0.46514 0.98382 0.78022 0.0
H1133 H 0.55533 0.00444 0.76611 0.0
C1134 C 0.48539 0.01739 0.7876 0.0
C1135 C 0.49067 0.97915 0.77234 0.0
C1136 C 0.47076 0.94546 0.7638 0.0
C1137 C 0.5303 0.0472 0.78715 0.0
C1138 C 0.55573 0.04245 0.77928 0.0
C1139 C 0.53569 0.00803 0.77212 0.0
C1140 C 0.60282 0.07377 0.7779 0.0
C1141 C 0.54964 0.08451 0.79481 0.0
C1142 C 0.61827 0.09411 0.76814 0.0
C1143 C 0.66288 0.11972 0.76628 0.0
C1144 C 0.69279 0.12588 0.77418 0.0
C1145 C 0.67742 0.1072 0.78408 0.0
C1146 C 0.6327 0.08093 0.7859 0.0
H1147 H 0.52426 0.09006 0.79842 0.0
H1148 H 0.56599 0.07689 0.80118 0.0
H1149 H 0.57423 0.11513 0.79093 0.0
H1150 H 0.59579 0.08909 0.76186 0.0
H1151 H 0.6741 0.13379 0.75858 0.0
H1152 H 0.69013 0.56605 0.58248 0.0
H1153 H 0.61019 0.52791 0.58095 0.0
H1154 H 0.6005 0.56587 0.61245 0.0
H1155 H 0.67971 0.60356 0.61404 0.0
H1156 H 0.53924 0.46077 0.59563 0.0
H1157 H 0.54492 0.61979 0.59205 0.0
H1158 H 0.59152 0.61338 0.5894 0.0
H1159 H 0.57602 0.61589 0.60266 0.0
C1160 C 0.67074 0.56541 0.58912 0.0
C1161 C 0.69086 0.58816 0.59832 0.0
C1162 C 0.62532 0.54385 0.58823 0.0
C1163 C 0.59989 0.54493 0.59653 0.0
C1164 C 0.61983 0.56538 0.60592 0.0
H1165 H 0.34037 0.47491 0.61349 0.0
H1166 H 0.41899 0.50412 0.6117 0.0
C1167 C 0.66494 0.58686 0.6068 0.0
C1168 C 0.55266 0.52702 0.59536 0.0
H1169 H 0.47553 0.5577 0.59537 0.0
C1170 C 0.52513 0.48176 0.59541 0.0
C1171 C 0.53477 0.55479 0.5951 0.0
C1172 C 0.56326 0.6037 0.59471 0.0
C1173 C 0.4797 0.46343 0.59569 0.0
C1174 C 0.46183 0.49131 0.59575 0.0
C1175 C 0.48948 0.53654 0.59537 0.0
C1176 C 0.41454 0.47429 0.59664 0.0
C1177 C 0.45125 0.41457 0.59635 0.0
C1178 C 0.38639 0.44867 0.58867 0.0
C1179 C 0.34161 0.4319 0.58968 0.0
C1180 C 0.32429 0.44075 0.59866 0.0
C1181 C 0.35276 0.46729 0.60653 0.0
C1182 C 0.39757 0.48405 0.6055 0.0
H1183 H 0.47024 0.39841 0.59838 0.0
H1184 H 0.42509 0.40539 0.60228 0.0
H1185 H 0.43554 0.40193 0.58866 0.0
H1186 H 0.39904 0.44138 0.58171 0.0
H1187 H 0.32047 0.41105 0.58355 0.0
H1188 H 0.17238 0.68362 0.92316 0.0
H1189 H 0.13106 0.60558 0.91927 0.0
H1190 H 0.01107 0.60496 0.92558 0.0
H1191 H 0.05161 0.68283 0.92877 0.0
H1192 H 0.08407 0.54411 0.93248 0.0
H1193 H 0.97552 0.53087 0.90023 0.0
H1194 H 0.02165 0.58236 0.90398 0.0
H1195 H 0.97012 0.56138 0.9107 0.0
C1196 C 0.13714 0.66704 0.92343 0.0
C1197 C 0.11537 0.6894 0.9264 0.0
C1198 C 0.11357 0.62242 0.92125 0.0
C1199 C 0.06787 0.59944 0.92198 0.0
C1200 C 0.04615 0.62201 0.92468 0.0
H1201 H 0.90513 0.34381 0.94504 0.0
H1202 H 0.95077 0.42169 0.94144 0.0
C1203 C 0.06955 0.66652 0.92673 0.0
C1204 C 0.04298 0.55126 0.92119 0.0
H1205 H 0.94884 0.46683 0.91153 0.0
C1206 C 0.05501 0.52723 0.92773 0.0
C1207 C 1.00543 0.52897 0.91486 0.0
C1208 C 0.9928 0.55234 0.90697 0.0
C1209 C 0.02912 0.48191 0.92861 0.0
C1210 C 0.98937 0.46019 0.92306 0.0
C1211 C 0.97875 0.4837 0.91599 0.0
C1212 C 0.95781 0.41352 0.9249 0.0
C1213 C 0.04442 0.45787 0.93559 0.0
C1214 C 0.94432 0.38341 0.91666 0.0
C1215 C 0.91747 0.3389 0.91868 0.0
C1216 C 0.90398 0.32409 0.92896 0.0
C1217 C 0.91556 0.3545 0.93707 0.0
C1218 C 0.94187 0.39886 0.93504 0.0
H1219 H 0.08046 0.47595 0.93636 0.0
H1220 H 0.0303 0.45455 0.94352 0.0
H1221 H 0.03409 0.4248 0.93254 0.0
H1222 H 0.95591 0.39417 0.90876 0.0
H1223 H 0.9091 0.31595 0.91231 0.0
H1224 H 0.6573 0.96593 0.2564 0.0
H1225 H 0.61956 0.0068 0.25409 0.0
H1226 H 0.49582 0.88761 0.25598 0.0
H1227 H 0.53352 0.84658 0.25906 0.0
H1228 H 0.56363 0.00907 0.24075 0.0
H1229 H 0.48498 0.95509 0.27981 0.0
H1230 H 0.52631 0.94357 0.27527 0.0
H1231 H 0.47114 0.91163 0.27072 0.0
C1232 C 0.62202 0.94832 0.25641 0.0
C1233 C 0.5984 0.90314 0.25827 0.0
C1234 C 0.60048 0.97172 0.25494 0.0
C1235 C 0.55487 0.95044 0.25515 0.0
C1236 C 0.53108 0.90485 0.2561 0.0
H1237 H 0.42082 0.10009 0.24562 0.0
H1238 H 0.45256 0.05348 0.24245 0.0
C1239 C 0.55267 0.88137 0.25774 0.0
C1240 C 0.53301 0.9768 0.2552 0.0
H1241 H 0.46997 1.00277 0.27037 0.0
C1242 C 0.54291 0.00759 0.24719 0.0
C1243 C 0.50657 0.97523 0.26371 0.0
C1244 C 0.49688 0.94493 0.27291 0.0
C1245 C 0.52804 0.0376 0.24758 0.0
C1246 C 0.50146 0.03582 0.25606 0.0
C1247 C 0.49047 0.00415 0.26389 0.0
C1248 C 0.48593 0.06739 0.25733 0.0
C1249 C 0.54255 0.07202 0.23916 0.0
C1250 C 0.49403 0.0906 0.26674 0.0
C1251 C 0.47523 0.11636 0.26863 0.0
C1252 C 0.44859 0.11989 0.26107 0.0
C1253 C 0.44198 0.09835 0.25147 0.0
C1254 C 0.46016 0.07186 0.24965 0.0
H1255 H 0.57211 0.07653 0.23501 0.0
H1256 H 0.51619 0.06189 0.23331 0.0
H1257 H 0.54959 0.10382 0.24248 0.0
H1258 H 0.51383 0.08767 0.27278 0.0
H1259 H 0.48045 0.13256 0.27611 0.0
H1260 H 0.17955 0.03641 0.10565 0.0
H1261 H 0.10017 0.00608 0.10674 0.0
H1262 H 0.09773 0.03525 0.07409 0.0
H1263 H 0.17679 0.06634 0.07304 0.0
H1264 H 0.0648 0.06988 0.09824 0.0
H1265 H 0.99035 0.90256 0.08177 0.0
H1266 H 0.04141 0.92724 0.08877 0.0
H1267 H 0.03941 0.94506 0.07577 0.0
C1268 C 0.16174 0.03456 0.09862 0.0
C1269 C 0.18412 0.05316 0.08922 0.0
C1270 C 0.11655 0.01779 0.09928 0.0
C1271 C 0.09323 0.01866 0.0905 0.0
C1272 C 0.11513 0.03417 0.08093 0.0
H1273 H 0.83071 0.94185 0.07352 0.0
H1274 H 0.90932 0.97052 0.0741 0.0
C1275 C 0.16019 0.05154 0.08032 0.0
C1276 C 0.04713 0.00779 0.09141 0.0
H1277 H 0.94382 0.93131 0.08457 0.0
C1278 C 0.03812 0.03941 0.09537 0.0
C1279 C 0.01276 0.96836 0.08754 0.0
C1280 C 0.02106 0.93356 0.08324 0.0
C1281 C 0.99562 0.03313 0.09525 0.0
C1282 C 0.96105 0.99369 0.09128 0.0
C1283 C 0.97019 0.9617 0.08756 0.0
C1284 C 0.91522 0.98472 0.09068 0.0
C1285 C 0.9886 0.06955 0.09898 0.0
C1286 C 0.89247 0.98525 0.09968 0.0
C1287 C 0.84754 0.97007 0.09927 0.0
C1288 C 0.82458 0.95326 0.0899 0.0
C1289 C 0.84779 0.95525 0.0808 0.0
C1290 C 0.89264 0.97111 0.08117 0.0
H1291 H 0.01934 0.10145 0.0988 0.0
H1292 H 0.964 0.07203 0.09413 0.0
H1293 H 0.97671 0.06303 0.10719 0.0
H1294 H 0.90873 0.99467 0.10717 0.0
H1295 H 0.83022 0.96778 0.10645 0.0
H1296 H 0.13569 0.1708 0.43989 0.0
H1297 H 0.08645 0.09169 0.44156 0.0
H1298 H 0.06047 0.08371 0.40847 0.0
H1299 H 0.10869 0.16251 0.40683 0.0
H1300 H 0.99167 0.05366 0.43388 0.0
H1301 H 0.08195 0.97846 0.41627 0.0
H1302 H 0.10917 0.03172 0.42226 0.0
H1303 H 0.08561 0.02478 0.40951 0.0
C1304 C 0.12088 0.15181 0.43292 0.0
C1305 C 0.12639 0.17255 0.4232 0.0
C1306 C 0.09236 0.10678 0.4339 0.0
C1307 C 0.06982 0.08192 0.42513 0.0
C1308 C 0.07778 0.10223 0.41531 0.0
H1309 H 0.88038 0.8209 0.4084 0.0
H1310 H 0.93094 0.89936 0.40911 0.0
C1311 C 0.10555 0.14716 0.41437 0.0
C1312 C 0.0347 0.03584 0.42626 0.0
H1313 H 1.00618 0.93251 0.41893 0.0
C1314 C 0.99484 0.02695 0.43074 0.0
C1315 C 0.03891 1.00134 0.42205 0.0
C1316 C 0.08125 0.00923 0.4173 0.0
C1317 C 0.95846 0.98456 0.43077 0.0
C1318 C 0.96242 0.94997 0.42641 0.0
C1319 C 1.00284 0.95892 0.4222 0.0
C1320 C 0.92526 0.90434 0.42586 0.0
C1321 C 0.91576 0.97768 0.43506 0.0
C1322 C 0.90333 0.88115 0.43495 0.0
C1323 C 0.87327 0.83633 0.43448 0.0
C1324 C 0.86541 0.81394 0.42495 0.0
C1325 C 0.88538 0.83759 0.41581 0.0
C1326 C 0.91469 0.88233 0.41624 0.0
H1327 H 0.91487 0.00856 0.43525 0.0
H1328 H 0.88789 0.95355 0.43033 0.0
H1329 H 0.91148 0.9652 0.4432 0.0
H1330 H 0.91145 0.89697 0.44251 0.0
H1331 H 0.8593 0.8186 0.44169 0.0
H1332 H 0.94737 0.11796 0.74242 0.0
H1333 H 0.97242 0.06518 0.74371 0.0
H1334 H 0.99307 0.0898 0.77683 0.0
H1335 H 0.96901 0.14384 0.77548 0.0
H1336 H 0.05536 0.07427 0.7675 0.0
H1337 H 0.8894 0.9464 0.75624 0.0
H1338 H 0.91375 0.98916 0.74669 0.0
H1339 H 0.9022 1.00095 0.75962 0.0
C1340 C 0.95871 0.1132 0.74991 0.0
C1341 C 0.95654 0.1351 0.75884 0.0
C1342 C 0.97238 0.08256 0.75067 0.0
C1343 C 0.98316 0.07239 0.76043 0.0
C1344 C 0.98441 0.09676 0.76924 0.0
H1345 H 0.03843 0.8601 0.77447 0.0
H1346 H 0.00785 0.90873 0.77634 0.0
C1347 C 0.97121 0.12801 0.76844 0.0
C1348 C 0.99064 0.03476 0.76141 0.0
H1349 H 0.94478 0.92632 0.75567 0.0
C1350 C 0.03096 0.04181 0.76507 0.0
C1351 C 0.95852 0.99212 0.75838 0.0
C1352 C 0.91338 0.98153 0.75512 0.0
C1353 C 0.04078 0.00794 0.76523 0.0
C1354 C 0.00954 0.96607 0.76165 0.0
C1355 C 0.96867 0.95853 0.75838 0.0
C1356 C 0.02066 0.93122 0.76029 0.0
C1357 C 0.08511 0.01728 0.76883 0.0
C1358 C 0.03609 0.92649 0.75055 0.0
C1359 C 0.05343 0.89894 0.74948 0.0
C1360 C 0.05513 0.87515 0.75809 0.0
C1361 C 0.03656 0.87728 0.76765 0.0
C1362 C 0.01963 0.90541 0.76876 0.0
H1363 H 0.10576 0.05149 0.77146 0.0
H1364 H 0.08146 0.99514 0.77539 0.0
H1365 H 0.10208 0.01086 0.76235 0.0
H1366 H 0.03709 0.94609 0.74393 0.0
H1367 H 0.06804 0.89829 0.74207 0.0
H1368 H 0.951 0.85111 0.62796 0.0
H1369 H 0.9819 0.92959 0.62562 0.0
H1370 H 0.01445 0.91904 0.59364 0.0
H1371 H 0.98416 0.84019 0.59602 0.0
H1372 H 0.06965 1.00244 0.61613 0.0
H1373 H 0.91736 0.96 0.59439 0.0
H1374 H 0.92017 0.92212 0.60337 0.0
H1375 H 0.94768 0.93331 0.59101 0.0
C1376 C 0.9665 0.86583 0.62057 0.0
C1377 C 0.96543 0.83971 0.61219 0.0
C1378 C 0.98379 0.91057 0.61922 0.0
C1379 C 0.99974 0.92987 0.60942 0.0
C1380 C 1.00202 0.90457 0.60125 0.0
H1381 H 0.05231 0.19044 0.59079 0.0
H1382 H 0.02972 0.11263 0.59031 0.0
C1383 C 0.98525 0.8597 0.60266 0.0
C1384 C 0.00949 0.9752 0.60762 0.0
H1385 H 0.96394 0.03386 0.59834 0.0
C1386 C 0.04687 0.00945 0.61213 0.0
C1387 C 0.97965 0.98413 0.6024 0.0
C1388 C 0.93878 0.94812 0.59751 0.0
C1389 C 0.05493 0.05246 0.6117 0.0
C1390 C 0.02397 0.0612 0.60694 0.0
C1391 C 0.98733 0.02708 0.60209 0.0
C1392 C 0.02903 0.10547 0.60714 0.0
C1393 C 0.09671 0.08816 0.61633 0.0
C1394 C 0.03309 0.12638 0.61674 0.0
C1395 C 0.04591 0.17058 0.61701 0.0
C1396 C 0.05368 0.19432 0.60769 0.0
C1397 C 0.04534 0.17247 0.59808 0.0
C1398 C 0.03306 0.12821 0.5978 0.0
H1399 H 0.12212 0.07857 0.6167 0.0
H1400 H 0.10967 0.11874 0.61172 0.0
H1401 H 0.09036 0.09478 0.62444 0.0
H1402 H 0.02898 0.10919 0.62405 0.0
H1403 H 0.05286 0.18697 0.6245 0.0
H1404 H 0.8748 0.0439 0.92853 0.0
H1405 H 0.92471 0.01472 0.92698 0.0
H1406 H 0.94871 0.0313 0.96016 0.0
H1407 H 0.89976 0.06108 0.96169 0.0
H1408 H 0.01831 0.07007 0.93451 0.0
H1409 H 0.92863 0.90586 0.95276 0.0
H1410 H 0.90128 0.93205 0.94687 0.0
H1411 H 0.92552 0.94864 0.95956 0.0
C1412 C 0.88934 0.03954 0.93553 0.0
C1413 C 0.88295 0.05402 0.94526 0.0
C1414 C 0.91826 0.02345 0.93462 0.0
C1415 C 0.94037 0.02085 0.94346 0.0
C1416 C 0.93171 0.03266 0.95326 0.0
H1417 H 0.13085 0.95242 0.96138 0.0
H1418 H 0.0801 0.98 0.9602 0.0
C1419 C 0.90353 0.04938 0.95414 0.0
C1420 C 0.97559 0.00991 0.94245 0.0
H1421 H 1.00473 0.93614 0.95038 0.0
C1422 C 0.01532 0.04055 0.93784 0.0
C1423 C 0.97164 0.97164 0.9469 0.0
C1424 C 0.92941 0.93738 0.95175 0.0
C1425 C 0.05184 0.03471 0.93796 0.0
C1426 C 0.04818 0.99672 0.9426 0.0
C1427 C 0.00786 0.9655 0.94691 0.0
C1428 C 0.08555 0.98861 0.94338 0.0
C1429 C 0.09439 0.07018 0.93351 0.0
C1430 C 0.10744 0.98634 0.9344 0.0
C1431 C 0.13761 0.97175 0.93514 0.0
C1432 C 0.14567 0.95846 0.94483 0.0
C1433 C 0.12576 0.96319 0.95385 0.0
C1434 C 0.09632 0.97843 0.95315 0.0
H1435 H 0.09503 0.10178 0.933 0.0
H1436 H 0.12236 0.07469 0.93833 0.0
H1437 H 0.09874 0.06103 0.92548 0.0
H1438 H 0.09916 0.99305 0.92674 0.0
H1439 H 0.15149 0.9671 0.92802 0.0
H1440 H 0.19018 0.13922 0.261 0.0
H1441 H 0.11104 0.08856 0.2601 0.0
H1442 H 0.10863 0.06234 0.2931 0.0
H1443 H 0.18741 0.112 0.29398 0.0
H1444 H 0.07517 0.99182 0.26887 0.0
H1445 H 1.00168 0.08537 0.28561 0.0
H1446 H 0.05322 0.11142 0.2787 0.0
H1447 H 0.05009 0.09135 0.29174 0.0
C1448 C 0.17236 0.12393 0.26812 0.0
C1449 C 0.19464 0.12991 0.2776 0.0
C1450 C 0.12736 0.09462 0.26757 0.0
C1451 C 0.10411 0.07168 0.27653 0.0
C1452 C 0.12595 0.07985 0.28612 0.0
H1453 H 0.84379 0.88714 0.29544 0.0
H1454 H 0.92243 0.93626 0.29423 0.0
C1455 C 0.17083 0.10844 0.28663 0.0
C1456 C 0.05799 0.03639 0.27587 0.0
H1457 H 0.95527 0.00967 0.28347 0.0
C1458 C 0.04872 0.99567 0.27194 0.0
C1459 C 0.02388 0.04153 0.27999 0.0
C1460 C 0.03235 0.08477 0.28421 0.0
C1461 C 1.00627 0.95943 0.27236 0.0
C1462 C 0.97205 0.96437 0.27661 0.0
C1463 C 0.9814 0.00559 0.28028 0.0
C1464 C 0.92635 0.92753 0.27758 0.0
C1465 C 0.99894 0.9159 0.26863 0.0
C1466 C 0.90252 0.90417 0.26875 0.0
C1467 C 0.85756 0.87489 0.26952 0.0
C1468 C 0.83568 0.86933 0.27908 0.0
C1469 C 0.86001 0.89041 0.28801 0.0
C1470 C 0.90488 0.91893 0.28729 0.0
H1471 H 0.02973 0.91483 0.2685 0.0
H1472 H 0.975 0.88902 0.27369 0.0
H1473 H 0.98599 0.91015 0.26054 0.0
H1474 H 0.91795 0.9107 0.26112 0.0
H1475 H 0.8394 0.85991 0.26246 0.0
loop_
_geom_bond_atom_site_label_1
_geom_bond_atom_site_label_2
_geom_bond_distance
_geom_bond_site_symmetry_2
_ccdc_geom_bond_type
C0 C1 1.351 . S
C0 N3 1.368 . S
C0 H5 0.931 . S
C1 C0 1.351 . S
C1 N2 1.373 . S
C1 H29 0.930 . S
N2 C1 1.373 . S
N2 C4 1.340 . S
N3 C0 1.368 . S
N3 C4 1.321 . S
N3 Co6 2.135 . S
C4 N2 1.340 . S
C4 N3 1.321 . S
C4 H28 0.930 . S
H5 C0 0.931 . S
Co6 N3 2.135 . S
Co6 N9 2.121 . S
Co6 O14 2.055 . S
Co6 O17 2.039 . S
Co6 N20 2.140 . S
C7 O8 1.227 . S
C7 O17 1.265 . S
O8 C7 1.227 . S
N9 Co6 2.121 . S
N9 C11 1.375 . S
N9 C12 1.313 . S
C10 C11 1.338 . S
C10 N13 1.377 . S
C10 H30 0.930 . S
C11 N9 1.375 . S
C11 C10 1.338 . S
C11 H15 0.931 . S
C12 N9 1.313 . S
C12 N13 1.344 . S
C12 H16 0.930 . S
N13 C10 1.377 . S
N13 C12 1.344 . S
O14 Co6 2.055 . S
O14 C18 1.253 . S
H15 C11 0.931 . S
H16 C12 0.930 . S
O17 Co6 2.039 . S
O17 C7 1.265 . S
C18 O14 1.253 . S
C18 O19 1.227 . S
O19 C18 1.227 . S
N20 Co6 2.140 . S
N20 C23 1.346 . S
N20 C24 1.345 . S
C21 C22 1.387 . S
C21 C25 1.391 . S
C22 C21 1.387 . S
C22 C23 1.369 . S
C22 H31 0.929 . S
C23 N20 1.346 . S
C23 C22 1.369 . S
C23 H26 0.928 . S
C24 N20 1.345 . S
C24 C25 1.371 . S
C24 H27 0.931 . S
C25 C21 1.391 . S
C25 C24 1.371 . S
C25 H32 0.930 . S
H26 C23 0.928 . S
H27 C24 0.931 . S
H28 C4 0.930 . S
H29 C1 0.930 . S
H30 C10 0.930 . S
H31 C22 0.929 . S
H32 C25 0.930 . S
C33 C34 1.351 . S
C33 N36 1.368 . S
C33 H38 0.931 . S
C34 C33 1.351 . S
C34 N35 1.373 . S
C34 H62 0.930 . S
N35 C34 1.373 . S
N35 C37 1.340 . S
N36 C33 1.368 . S
N36 C37 1.321 . S
N36 Co39 2.135 . S
C37 N35 1.340 . S
C37 N36 1.321 . S
C37 H61 0.930 . S
H38 C33 0.931 . S
Co39 N36 2.135 . S
Co39 N42 2.121 . S
Co39 O47 2.055 . S
Co39 O50 2.039 . S
Co39 N53 2.140 . S
C40 O41 1.227 . S
C40 O50 1.265 . S
O41 C40 1.227 . S
N42 Co39 2.121 . S
N42 C44 1.375 . S
N42 C45 1.313 . S
C43 C44 1.338 . S
C43 N46 1.377 . S
C43 H63 0.930 . S
C44 N42 1.375 . S
C44 C43 1.338 . S
C44 H48 0.931 . S
C45 N42 1.313 . S
C45 N46 1.344 . S
C45 H49 0.930 . S
N46 C43 1.377 . S
N46 C45 1.344 . S
O47 Co39 2.055 . S
O47 C51 1.253 . S
H48 C44 0.931 . S
H49 C45 0.930 . S
O50 Co39 2.039 . S
O50 C40 1.265 . S
C51 O47 1.253 . S
C51 O52 1.227 . S
O52 C51 1.227 . S
N53 Co39 2.140 . S
N53 C56 1.346 . S
N53 C57 1.345 . S
C54 C55 1.387 . S
C54 C58 1.391 . S
C55 C54 1.387 . S
C55 C56 1.369 . S
C55 H64 0.929 . S
C56 N53 1.346 . S
C56 C55 1.369 . S
C56 H59 0.928 . S
C57 N53 1.345 . S
C57 C58 1.371 . S
C57 H60 0.931 . S
C58 C54 1.391 . S
C58 C57 1.371 . S
C58 H65 0.930 . S
H59 C56 0.928 . S
H60 C57 0.931 . S
H61 C37 0.930 . S
H62 C34 0.930 . S
H63 C43 0.930 . S
H64 C55 0.929 . S
H65 C58 0.930 . S
C66 C67 1.351 . S
C66 N69 1.368 . S
C66 H71 0.931 . S
C67 C66 1.351 . S
C67 N68 1.373 . S
C67 H95 0.930 . S
N68 C67 1.373 . S
N68 C70 1.340 . S
N69 C66 1.368 . S
N69 C70 1.321 . S
N69 Co72 2.135 . S
C70 N68 1.340 . S
C70 N69 1.321 . S
C70 H94 0.930 . S
H71 C66 0.931 . S
Co72 N69 2.135 . S
Co72 N75 2.121 . S
Co72 O80 2.055 . S
Co72 O83 2.039 . S
Co72 N86 2.140 . S
C73 O74 1.227 . S
C73 O83 1.265 . S
O74 C73 1.227 . S
N75 Co72 2.121 . S
N75 C77 1.375 . S
N75 C78 1.313 . S
C76 C77 1.338 . S
C76 N79 1.377 . S
C76 H96 0.930 . S
C77 N75 1.375 . S
C77 C76 1.338 . S
C77 H81 0.931 . S
C78 N75 1.313 . S
C78 N79 1.344 . S
C78 H82 0.930 . S
N79 C76 1.377 . S
N79 C78 1.344 . S
O80 Co72 2.055 . S
O80 C84 1.253 . S
H81 C77 0.931 . S
H82 C78 0.930 . S
O83 Co72 2.039 . S
O83 C73 1.265 . S
C84 O80 1.253 . S
C84 O85 1.227 . S
O85 C84 1.227 . S
N86 Co72 2.140 . S
N86 C89 1.346 . S
N86 C90 1.345 . S
C87 C88 1.387 . S
C87 C91 1.391 . S
C88 C87 1.387 . S
C88 C89 1.369 . S
C88 H97 0.929 . S
C89 N86 1.346 . S
C89 C88 1.369 . S
C89 H92 0.928 . S
C90 N86 1.345 . S
C90 C91 1.371 . S
C90 H93 0.931 . S
C91 C87 1.391 . S
C91 C90 1.371 . S
C91 H98 0.930 . S
H92 C89 0.928 . S
H93 C90 0.931 . S
H94 C70 0.930 . S
H95 C67 0.930 . S
H96 C76 0.930 . S
H97 C88 0.929 . S
H98 C91 0.930 . S
C99 C100 1.351 . S
C99 N102 1.368 . S
C99 H104 0.931 . S
C100 C99 1.351 . S
C100 N101 1.373 . S
C100 H128 0.930 . S
N101 C100 1.373 . S
N101 C103 1.340 . S
N102 C99 1.368 . S
N102 C103 1.321 . S
N102 Co105 2.135 . S
C103 N101 1.340 . S
C103 N102 1.321 . S
C103 H127 0.930 . S
H104 C99 0.931 . S
Co105 N102 2.135 . S
Co105 N108 2.121 . S
Co105 O113 2.055 . S
Co105 O116 2.039 . S
Co105 N119 2.140 . S
C106 O107 1.227 . S
C106 O116 1.265 . S
O107 C106 1.227 . S
N108 Co105 2.121 . S
N108 C110 1.375 . S
N108 C111 1.313 . S
C109 C110 1.338 . S
C109 N112 1.377 . S
C109 H129 0.930 . S
C110 N108 1.375 . S
C110 C109 1.338 . S
C110 H114 0.931 . S
C111 N108 1.313 . S
C111 N112 1.344 . S
C111 H115 0.930 . S
N112 C109 1.377 . S
N112 C111 1.344 . S
O113 Co105 2.055 . S
O113 C117 1.253 . S
H114 C110 0.931 . S
H115 C111 0.930 . S
O116 Co105 2.039 . S
O116 C106 1.265 . S
C117 O113 1.253 . S
C117 O118 1.227 . S
O118 C117 1.227 . S
N119 Co105 2.140 . S
N119 C122 1.346 . S
N119 C123 1.345 . S
C120 C121 1.387 . S
C120 C124 1.391 . S
C121 C120 1.387 . S
C121 C122 1.369 . S
C121 H130 0.929 . S
C122 N119 1.346 . S
C122 C121 1.369 . S
C122 H125 0.928 . S
C123 N119 1.345 . S
C123 C124 1.371 . S
C123 H126 0.931 . S
C124 C120 1.391 . S
C124 C123 1.371 . S
C124 H131 0.930 . S
H125 C122 0.928 . S
H126 C123 0.931 . S
H127 C103 0.930 . S
H128 C100 0.930 . S
H129 C109 0.930 . S
H130 C121 0.929 . S
H131 C124 0.930 . S
C132 C133 1.351 . S
C132 N135 1.368 . S
C132 H137 0.931 . S
C133 C132 1.351 . S
C133 N134 1.373 . S
C133 H161 0.930 . S
N134 C133 1.373 . S
N134 C136 1.340 . S
N135 C132 1.368 . S
N135 C136 1.321 . S
N135 Co138 2.135 . S
C136 N134 1.340 . S
C136 N135 1.321 . S
C136 H160 0.930 . S
H137 C132 0.931 . S
Co138 N135 2.135 . S
Co138 N141 2.121 . S
Co138 O146 2.055 . S
Co138 O149 2.039 . S
Co138 N152 2.140 . S
C139 O140 1.227 . S
C139 O149 1.265 . S
O140 C139 1.227 . S
N141 Co138 2.121 . S
N141 C143 1.375 . S
N141 C144 1.313 . S
C142 C143 1.338 . S
C142 N145 1.377 . S
C142 H162 0.930 . S
C143 N141 1.375 . S
C143 C142 1.338 . S
C143 H147 0.931 . S
C144 N141 1.313 . S
C144 N145 1.344 . S
C144 H148 0.930 . S
N145 C142 1.377 . S
N145 C144 1.344 . S
O146 Co138 2.055 . S
O146 C150 1.253 . S
H147 C143 0.931 . S
H148 C144 0.930 . S
O149 Co138 2.039 . S
O149 C139 1.265 . S
C150 O146 1.253 . S
C150 O151 1.227 . S
O151 C150 1.227 . S
N152 Co138 2.140 . S
N152 C155 1.346 . S
N152 C156 1.345 . S
C153 C154 1.387 . S
C153 C157 1.391 . S
C154 C153 1.387 . S
C154 C155 1.369 . S
C154 H163 0.929 . S
C155 N152 1.346 . S
C155 C154 1.369 . S
C155 H158 0.928 . S
C156 N152 1.345 . S
C156 C157 1.371 . S
C156 H159 0.931 . S
C157 C153 1.391 . S
C157 C156 1.371 . S
C157 H164 0.930 . S
H158 C155 0.928 . S
H159 C156 0.931 . S
H160 C136 0.930 . S
H161 C133 0.930 . S
H162 C142 0.930 . S
H163 C154 0.929 . S
H164 C157 0.930 . S
C165 C166 1.351 . S
C165 N168 1.368 . S
C165 H170 0.931 . S
C166 C165 1.351 . S
C166 N167 1.373 . S
C166 H194 0.930 . S
N167 C166 1.373 . S
N167 C169 1.340 . S
N168 C165 1.368 . S
N168 C169 1.321 . S
N168 Co171 2.135 . S
C169 N167 1.340 . S
C169 N168 1.321 . S
C169 H193 0.930 . S
H170 C165 0.931 . S
Co171 N168 2.135 . S
Co171 N174 2.121 . S
Co171 O179 2.055 . S
Co171 O182 2.039 . S
Co171 N185 2.140 . S
C172 O173 1.227 . S
C172 O182 1.265 . S
O173 C172 1.227 . S
N174 Co171 2.121 . S
N174 C176 1.375 . S
N174 C177 1.313 . S
C175 C176 1.338 . S
C175 N178 1.377 . S
C175 H195 0.930 . S
C176 N174 1.375 . S
C176 C175 1.338 . S
C176 H180 0.931 . S
C177 N174 1.313 . S
C177 N178 1.344 . S
C177 H181 0.930 . S
N178 C175 1.377 . S
N178 C177 1.344 . S
O179 Co171 2.055 . S
O179 C183 1.253 . S
H180 C176 0.931 . S
H181 C177 0.930 . S
O182 Co171 2.039 . S
O182 C172 1.265 . S
C183 O179 1.253 . S
C183 O184 1.227 . S
O184 C183 1.227 . S
N185 Co171 2.140 . S
N185 C188 1.346 . S
N185 C189 1.345 . S
C186 C187 1.387 . S
C186 C190 1.391 . S
C187 C186 1.387 . S
C187 C188 1.369 . S
C187 H196 0.929 . S
C188 N185 1.346 . S
C188 C187 1.369 . S
C188 H191 0.928 . S
C189 N185 1.345 . S
C189 C190 1.371 . S
C189 H192 0.931 . S
C190 C186 1.391 . S
C190 C189 1.371 . S
C190 H197 0.930 . S
H191 C188 0.928 . S
H192 C189 0.931 . S
H193 C169 0.930 . S
H194 C166 0.930 . S
H195 C175 0.930 . S
H196 C187 0.929 . S
H197 C190 0.930 . S
C198 C199 1.351 . S
C198 N201 1.368 . S
C198 H203 0.931 . S
C199 C198 1.351 . S
C199 N200 1.373 . S
C199 H227 0.930 . S
N200 C199 1.373 . S
N200 C202 1.340 . S
N201 C198 1.368 . S
N201 C202 1.321 . S
N201 Co204 2.135 . S
C202 N200 1.340 . S
C202 N201 1.321 . S
C202 H226 0.930 . S
H203 C198 0.931 . S
Co204 N201 2.135 . S
Co204 N207 2.121 . S
Co204 O212 2.055 . S
Co204 O215 2.039 . S
Co204 N218 2.140 . S
C205 O206 1.227 . S
C205 O215 1.265 . S
O206 C205 1.227 . S
N207 Co204 2.121 . S
N207 C209 1.375 . S
N207 C210 1.313 . S
C208 C209 1.338 . S
C208 N211 1.377 . S
C208 H228 0.930 . S
C209 N207 1.375 . S
C209 C208 1.338 . S
C209 H213 0.931 . S
C210 N207 1.313 . S
C210 N211 1.344 . S
C210 H214 0.930 . S
N211 C208 1.377 . S
N211 C210 1.344 . S
O212 Co204 2.055 . S
O212 C216 1.253 . S
H213 C209 0.931 . S
H214 C210 0.930 . S
O215 Co204 2.039 . S
O215 C205 1.265 . S
C216 O212 1.253 . S
C216 O217 1.227 . S
O217 C216 1.227 . S
N218 Co204 2.140 . S
N218 C221 1.346 . S
N218 C222 1.345 . S
C219 C220 1.387 . S
C219 C223 1.391 . S
C220 C219 1.387 . S
C220 C221 1.369 . S
C220 H229 0.929 . S
C221 N218 1.346 . S
C221 C220 1.369 . S
C221 H224 0.928 . S
C222 N218 1.345 . S
C222 C223 1.371 . S
C222 H225 0.931 . S
C223 C219 1.391 . S
C223 C222 1.371 . S
C223 H230 0.930 . S
H224 C221 0.928 . S
H225 C222 0.931 . S
H226 C202 0.930 . S
H227 C199 0.930 . S
H228 C208 0.930 . S
H229 C220 0.929 . S
H230 C223 0.930 . S
C231 C232 1.351 . S
C231 N234 1.368 . S
C231 H236 0.931 . S
C232 C231 1.351 . S
C232 N233 1.373 . S
C232 H260 0.930 . S
N233 C232 1.373 . S
N233 C235 1.340 . S
N234 C231 1.368 . S
N234 C235 1.321 . S
N234 Co237 2.135 . S
C235 N233 1.340 . S
C235 N234 1.321 . S
C235 H259 0.930 . S
H236 C231 0.931 . S
Co237 N234 2.135 . S
Co237 N240 2.121 . S
Co237 O245 2.055 . S
Co237 O248 2.039 . S
Co237 N251 2.140 . S
C238 O239 1.227 . S
C238 O248 1.265 . S
O239 C238 1.227 . S
N240 Co237 2.121 . S
N240 C242 1.375 . S
N240 C243 1.313 . S
C241 C242 1.338 . S
C241 N244 1.377 . S
C241 H261 0.930 . S
C242 N240 1.375 . S
C242 C241 1.338 . S
C242 H246 0.931 . S
C243 N240 1.313 . S
C243 N244 1.344 . S
C243 H247 0.930 . S
N244 C241 1.377 . S
N244 C243 1.344 . S
O245 Co237 2.055 . S
O245 C249 1.253 . S
H246 C242 0.931 . S
H247 C243 0.930 . S
O248 Co237 2.039 . S
O248 C238 1.265 . S
C249 O245 1.253 . S
C249 O250 1.227 . S
O250 C249 1.227 . S
N251 Co237 2.140 . S
N251 C254 1.346 . S
N251 C255 1.345 . S
C252 C253 1.387 . S
C252 C256 1.391 . S
C253 C252 1.387 . S
C253 C254 1.369 . S
C253 H262 0.929 . S
C254 N251 1.346 . S
C254 C253 1.369 . S
C254 H257 0.928 . S
C255 N251 1.345 . S
C255 C256 1.371 . S
C255 H258 0.931 . S
C256 C252 1.391 . S
C256 C255 1.371 . S
C256 H263 0.930 . S
H257 C254 0.928 . S
H258 C255 0.931 . S
H259 C235 0.930 . S
H260 C232 0.930 . S
H261 C241 0.930 . S
H262 C253 0.929 . S
H263 C256 0.930 . S
C264 C265 1.351 . S
C264 N267 1.368 . S
C264 H269 0.931 . S
C265 C264 1.351 . S
C265 N266 1.373 . S
C265 H293 0.930 . S
N266 C265 1.373 . S
N266 C268 1.340 . S
N267 C264 1.368 . S
N267 C268 1.321 . S
N267 Co270 2.135 . S
C268 N266 1.340 . S
C268 N267 1.321 . S
C268 H292 0.930 . S
H269 C264 0.931 . S
Co270 N267 2.135 . S
Co270 N273 2.121 . S
Co270 O278 2.055 . S
Co270 O281 2.039 . S
Co270 N284 2.140 . S
C271 O272 1.227 . S
C271 O281 1.265 . S
O272 C271 1.227 . S
N273 Co270 2.121 . S
N273 C275 1.375 . S
N273 C276 1.313 . S
C274 C275 1.338 . S
C274 N277 1.377 . S
C274 H294 0.930 . S
C275 N273 1.375 . S
C275 C274 1.338 . S
C275 H279 0.931 . S
C276 N273 1.313 . S
C276 N277 1.344 . S
C276 H280 0.930 . S
N277 C274 1.377 . S
N277 C276 1.344 . S
O278 Co270 2.055 . S
O278 C282 1.253 . S
H279 C275 0.931 . S
H280 C276 0.930 . S
O281 Co270 2.039 . S
O281 C271 1.265 . S
C282 O278 1.253 . S
C282 O283 1.227 . S
O283 C282 1.227 . S
N284 Co270 2.140 . S
N284 C287 1.346 . S
N284 C288 1.345 . S
C285 C286 1.387 . S
C285 C289 1.391 . S
C286 C285 1.387 . S
C286 C287 1.369 . S
C286 H295 0.929 . S
C287 N284 1.346 . S
C287 C286 1.369 . S
C287 H290 0.928 . S
C288 N284 1.345 . S
C288 C289 1.371 . S
C288 H291 0.931 . S
C289 C285 1.391 . S
C289 C288 1.371 . S
C289 H296 0.930 . S
H290 C287 0.928 . S
H291 C288 0.931 . S
H292 C268 0.930 . S
H293 C265 0.930 . S
H294 C274 0.930 . S
H295 C286 0.929 . S
H296 C289 0.930 . S
C297 C298 1.351 . S
C297 N300 1.368 . S
C297 H302 0.931 . S
C298 C297 1.351 . S
C298 N299 1.373 . S
C298 H326 0.930 . S
N299 C298 1.373 . S
N299 C301 1.340 . S
N300 C297 1.368 . S
N300 C301 1.321 . S
N300 Co303 2.135 . S
C301 N299 1.340 . S
C301 N300 1.321 . S
C301 H325 0.930 . S
H302 C297 0.931 . S
Co303 N300 2.135 . S
Co303 N306 2.121 . S
Co303 O311 2.055 . S
Co303 O314 2.039 . S
Co303 N317 2.140 . S
C304 O305 1.227 . S
C304 O314 1.265 . S
O305 C304 1.227 . S
N306 Co303 2.121 . S
N306 C308 1.375 . S
N306 C309 1.313 . S
C307 C308 1.338 . S
C307 N310 1.377 . S
C307 H327 0.930 . S
C308 N306 1.375 . S
C308 C307 1.338 . S
C308 H312 0.931 . S
C309 N306 1.313 . S
C309 N310 1.344 . S
C309 H313 0.930 . S
N310 C307 1.377 . S
N310 C309 1.344 . S
O311 Co303 2.055 . S
O311 C315 1.253 . S
H312 C308 0.931 . S
H313 C309 0.930 . S
O314 Co303 2.039 . S
O314 C304 1.265 . S
C315 O311 1.253 . S
C315 O316 1.227 . S
O316 C315 1.227 . S
N317 Co303 2.140 . S
N317 C320 1.346 . S
N317 C321 1.345 . S
C318 C319 1.387 . S
C318 C322 1.391 . S
C319 C318 1.387 . S
C319 C320 1.369 . S
C319 H328 0.929 . S
C320 N317 1.346 . S
C320 C319 1.369 . S
C320 H323 0.928 . S
C321 N317 1.345 . S
C321 C322 1.371 . S
C321 H324 0.931 . S
C322 C318 1.391 . S
C322 C321 1.371 . S
C322 H329 0.930 . S
H323 C320 0.928 . S
H324 C321 0.931 . S
H325 C301 0.930 . S
H326 C298 0.930 . S
H327 C307 0.930 . S
H328 C319 0.929 . S
H329 C322 0.930 . S
C330 C331 1.351 . S
C330 N333 1.368 . S
C330 H335 0.931 . S
C331 C330 1.351 . S
C331 N332 1.373 . S
C331 H359 0.930 . S
N332 C331 1.373 . S
N332 C334 1.340 . S
N333 C330 1.368 . S
N333 C334 1.321 . S
N333 Co336 2.135 . S
C334 N332 1.340 . S
C334 N333 1.321 . S
C334 H358 0.930 . S
H335 C330 0.931 . S
Co336 N333 2.135 . S
Co336 N339 2.121 . S
Co336 O344 2.055 . S
Co336 O347 2.039 . S
Co336 N350 2.140 . S
C337 O338 1.227 . S
C337 O347 1.265 . S
O338 C337 1.227 . S
N339 Co336 2.121 . S
N339 C341 1.375 . S
N339 C342 1.313 . S
C340 C341 1.338 . S
C340 N343 1.377 . S
C340 H360 0.930 . S
C341 N339 1.375 . S
C341 C340 1.338 . S
C341 H345 0.931 . S
C342 N339 1.313 . S
C342 N343 1.344 . S
C342 H346 0.930 . S
N343 C340 1.377 . S
N343 C342 1.344 . S
O344 Co336 2.055 . S
O344 C348 1.253 . S
H345 C341 0.931 . S
H346 C342 0.930 . S
O347 Co336 2.039 . S
O347 C337 1.265 . S
C348 O344 1.253 . S
C348 O349 1.227 . S
O349 C348 1.227 . S
N350 Co336 2.140 . S
N350 C353 1.346 . S
N350 C354 1.345 . S
C351 C352 1.387 . S
C351 C355 1.391 . S
C352 C351 1.387 . S
C352 C353 1.369 . S
C352 H361 0.929 . S
C353 N350 1.346 . S
C353 C352 1.369 . S
C353 H356 0.928 . S
C354 N350 1.345 . S
C354 C355 1.371 . S
C354 H357 0.931 . S
C355 C351 1.391 . S
C355 C354 1.371 . S
C355 H362 0.930 . S
H356 C353 0.928 . S
H357 C354 0.931 . S
H358 C334 0.930 . S
H359 C331 0.930 . S
H360 C340 0.930 . S
H361 C352 0.929 . S
H362 C355 0.930 . S
C363 C364 1.351 . S
C363 N366 1.368 . S
C363 H368 0.931 . S
C364 C363 1.351 . S
C364 N365 1.373 . S
C364 H392 0.930 . S
N365 C364 1.373 . S
N365 C367 1.340 . S
N366 C363 1.368 . S
N366 C367 1.321 . S
N366 Co369 2.135 . S
C367 N365 1.340 . S
C367 N366 1.321 . S
C367 H391 0.930 . S
H368 C363 0.931 . S
Co369 N366 2.135 . S
Co369 N372 2.121 . S
Co369 O377 2.055 . S
Co369 O380 2.039 . S
Co369 N383 2.140 . S
C370 O371 1.227 . S
C370 O380 1.265 . S
O371 C370 1.227 . S
N372 Co369 2.121 . S
N372 C374 1.375 . S
N372 C375 1.313 . S
C373 C374 1.338 . S
C373 N376 1.377 . S
C373 H393 0.930 . S
C374 N372 1.375 . S
C374 C373 1.338 . S
C374 H378 0.931 . S
C375 N372 1.313 . S
C375 N376 1.344 . S
C375 H379 0.930 . S
N376 C373 1.377 . S
N376 C375 1.344 . S
O377 Co369 2.055 . S
O377 C381 1.253 . S
H378 C374 0.931 . S
H379 C375 0.930 . S
O380 Co369 2.039 . S
O380 C370 1.265 . S
C381 O377 1.253 . S
C381 O382 1.227 . S
O382 C381 1.227 . S
N383 Co369 2.140 . S
N383 C386 1.346 . S
N383 C387 1.345 . S
C384 C385 1.387 . S
C384 C388 1.391 . S
C385 C384 1.387 . S
C385 C386 1.369 . S
C385 H394 0.929 . S
C386 N383 1.346 . S
C386 C385 1.369 . S
C386 H389 0.928 . S
C387 N383 1.345 . S
C387 C388 1.371 . S
C387 H390 0.931 . S
C388 C384 1.391 . S
C388 C387 1.371 . S
C388 H395 0.930 . S
H389 C386 0.928 . S
H390 C387 0.931 . S
H391 C367 0.930 . S
H392 C364 0.930 . S
H393 C373 0.930 . S
H394 C385 0.929 . S
H395 C388 0.930 . S
H396 C404 0.929 . S
H397 C406 0.930 1_565 S
H398 C408 0.930 . S
H399 C411 0.929 . S
H400 C414 0.930 . S
H401 C416 0.960 1_556 S
H402 C416 0.960 . S
H403 C416 0.960 . S
C404 H396 0.929 . S
C404 C405 1.377 . S
C404 C406 1.384 . S
C405 C404 1.377 . S
C405 C411 1.390 . S
C406 H397 0.930 1_545 S
C406 C404 1.384 . S
C406 C407 1.372 . S
C407 C406 1.372 . S
C407 C408 1.400 . S
C407 C412 1.490 . S
C408 H398 0.930 . S
C408 C407 1.400 . S
C408 C411 1.386 . S
H409 C425 0.930 . S
H410 C426 0.931 1_545 S
C411 H399 0.929 . S
C411 C405 1.390 . S
C411 C408 1.386 . S
C412 C407 1.490 . S
C412 C414 1.395 1_545 S
C412 C415 1.403 . S
H413 C419 0.930 . S
C414 H400 0.930 . S
C414 C412 1.395 1_565 S
C414 C417 1.403 1_554 S
C415 C412 1.403 . S
C415 C416 1.524 . S
C415 C419 1.400 1_554 S
C416 H401 0.960 1_554 S
C416 H402 0.960 . S
C416 H403 0.960 . S
C416 C415 1.524 . S
C417 C414 1.403 1_556 S
C417 C418 1.392 . S
C417 C421 1.495 . S
C418 C417 1.392 . S
C418 C419 1.385 1_565 S
C418 C420 1.478 . S
C419 H413 0.930 . S
C419 C415 1.400 1_556 S
C419 C418 1.385 1_545 S
C420 C418 1.478 . S
C420 C422 1.381 . S
C420 C426 1.383 . S
C421 C417 1.495 . S
C421 H427 0.959 1_556 S
C421 H428 0.961 . S
C421 H429 0.960 . S
C422 C420 1.381 . S
C422 C423 1.394 . S
C422 H430 0.930 . S
C423 C422 1.394 . S
C423 C424 1.383 . S
C423 H431 0.929 . S
C424 C423 1.383 . S
C424 C425 1.377 . S
C425 H409 0.930 . S
C425 C424 1.377 . S
C425 C426 1.379 . S
C426 H410 0.931 1_565 S
C426 C420 1.383 . S
C426 C425 1.379 . S
H427 C421 0.959 1_554 S
H428 C421 0.961 . S
H429 C421 0.960 . S
H430 C422 0.930 . S
H431 C423 0.929 . S
H432 C440 0.929 . S
H433 C442 0.930 . S
H434 C444 0.930 . S
H435 C447 0.929 . S
H436 C450 0.930 . S
H437 C452 0.960 . S
H438 C452 0.960 . S
H439 C452 0.960 . S
C440 H432 0.929 . S
C440 C441 1.377 . S
C440 C442 1.384 . S
C441 C440 1.377 . S
C441 C447 1.390 . S
C442 H433 0.930 . S
C442 C440 1.384 . S
C442 C443 1.372 . S
C443 C442 1.372 . S
C443 C444 1.400 . S
C443 C448 1.490 . S
C444 H434 0.930 . S
C444 C443 1.400 . S
C444 C447 1.386 . S
H445 C461 0.930 . S
H446 C462 0.931 . S
C447 H435 0.929 . S
C447 C441 1.390 . S
C447 C444 1.386 . S
C448 C443 1.490 . S
C448 C450 1.395 . S
C448 C451 1.403 . S
H449 C455 0.930 . S
C450 H436 0.930 . S
C450 C448 1.395 . S
C450 C453 1.403 . S
C451 C448 1.403 . S
C451 C452 1.524 . S
C451 C455 1.400 . S
C452 H437 0.960 . S
C452 H438 0.960 . S
C452 H439 0.960 . S
C452 C451 1.524 . S
C453 C450 1.403 . S
C453 C454 1.392 . S
C453 C457 1.495 . S
C454 C453 1.392 . S
C454 C455 1.385 . S
C454 C456 1.478 . S
C455 H449 0.930 . S
C455 C451 1.400 . S
C455 C454 1.385 . S
C456 C454 1.478 . S
C456 C458 1.381 . S
C456 C462 1.383 . S
C457 C453 1.495 . S
C457 H463 0.959 . S
C457 H464 0.961 . S
C457 H465 0.960 . S
C458 C456 1.381 . S
C458 C459 1.394 . S
C458 H466 0.930 . S
C459 C458 1.394 . S
C459 C460 1.383 . S
C459 H467 0.929 . S
C460 C459 1.383 . S
C460 C461 1.377 . S
C461 H445 0.930 . S
C461 C460 1.377 . S
C461 C462 1.379 . S
C462 H446 0.931 . S
C462 C456 1.383 . S
C462 C461 1.379 . S
H463 C457 0.959 . S
H464 C457 0.961 . S
H465 C457 0.960 . S
H466 C458 0.930 . S
H467 C459 0.929 . S
H468 C476 0.929 . S
H469 C478 0.930 . S
H470 C480 0.930 . S
H471 C483 0.929 . S
H472 C486 0.930 . S
H473 C488 0.960 . S
H474 C488 0.960 . S
H475 C488 0.960 . S
C476 H468 0.929 . S
C476 C477 1.377 . S
C476 C478 1.384 . S
C477 C476 1.377 . S
C477 C483 1.390 . S
C478 H469 0.930 . S
C478 C476 1.384 . S
C478 C479 1.372 . S
C479 C478 1.372 . S
C479 C480 1.400 . S
C479 C484 1.490 . S
C480 H470 0.930 . S
C480 C479 1.400 . S
C480 C483 1.386 . S
H481 C497 0.930 . S
H482 C498 0.931 . S
C483 H471 0.929 . S
C483 C477 1.390 . S
C483 C480 1.386 . S
C484 C479 1.490 . S
C484 C486 1.395 . S
C484 C487 1.403 1_655 S
H485 C491 0.930 . S
C486 H472 0.930 . S
C486 C484 1.395 . S
C486 C489 1.403 . S
C487 C484 1.403 1_455 S
C487 C488 1.524 . S
C487 C491 1.400 . S
C488 H473 0.960 . S
C488 H474 0.960 . S
C488 H475 0.960 . S
C488 C487 1.524 . S
C489 C486 1.403 . S
C489 C490 1.392 1_655 S
C489 C493 1.495 . S
C490 C489 1.392 1_455 S
C490 C491 1.385 . S
C490 C492 1.478 . S
C491 H485 0.930 . S
C491 C487 1.400 . S
C491 C490 1.385 . S
C492 C490 1.478 . S
C492 C494 1.381 . S
C492 C498 1.383 . S
C493 C489 1.495 . S
C493 H499 0.959 . S
C493 H500 0.961 . S
C493 H501 0.960 . S
C494 C492 1.381 . S
C494 C495 1.394 . S
C494 H502 0.930 . S
C495 C494 1.394 . S
C495 C496 1.383 . S
C495 H503 0.929 . S
C496 C495 1.383 . S
C496 C497 1.377 . S
C497 H481 0.930 . S
C497 C496 1.377 . S
C497 C498 1.379 . S
C498 H482 0.931 . S
C498 C492 1.383 . S
C498 C497 1.379 . S
H499 C493 0.959 . S
H500 C493 0.961 . S
H501 C493 0.960 . S
H502 C494 0.930 . S
H503 C495 0.929 . S
H504 C512 0.929 . S
H505 C514 0.930 . S
H506 C516 0.930 . S
H507 C519 0.929 . S
H508 C522 0.935 . S
H509 C524 0.960 . S
H510 C524 0.960 . S
H511 C524 0.960 . S
C512 H504 0.929 . S
C512 C513 1.377 . S
C512 C514 1.384 . S
C513 C512 1.377 . S
C513 C519 1.390 . S
C514 H505 0.930 . S
C514 C512 1.384 . S
C514 C515 1.372 . S
C515 C514 1.372 . S
C515 C516 1.400 . S
C515 C520 1.490 . S
C516 H506 0.930 . S
C516 C515 1.400 . S
C516 C519 1.386 . S
H517 C533 0.930 . S
H518 C534 0.931 . S
C519 H507 0.929 . S
C519 C513 1.390 . S
C519 C516 1.386 . S
C520 C515 1.490 . S
C520 C522 1.424 . S
C520 C523 1.403 1_545 S
H521 C527 0.930 . S
C522 H508 0.935 . S
C522 C520 1.424 . S
C522 C525 1.370 1_556 S
C523 C520 1.403 1_565 S
C523 C524 1.524 . S
C523 C527 1.400 1_556 S
C524 H509 0.960 . S
C524 H510 0.960 . S
C524 H511 0.960 . S
C524 C523 1.524 . S
C525 C522 1.370 1_554 S
C525 C526 1.392 1_545 S
C525 C529 1.495 . S
C526 C525 1.392 1_565 S
C526 C527 1.385 . S
C526 C528 1.478 . S
C527 H521 0.930 . S
C527 C523 1.400 1_554 S
C527 C526 1.385 . S
C528 C526 1.478 . S
C528 C530 1.381 . S
C528 C534 1.383 . S
C529 C525 1.495 . S
C529 H535 0.959 . S
C529 H536 0.961 . S
C529 H537 0.960 . S
C530 C528 1.381 . S
C530 C531 1.394 . S
C530 H538 0.930 . S
C531 C530 1.394 . S
C531 C532 1.383 . S
C531 H539 0.929 . S
C532 C531 1.383 . S
C532 C533 1.377 . S
C533 H517 0.930 . S
C533 C532 1.377 . S
C533 C534 1.379 . S
C534 H518 0.931 . S
C534 C528 1.383 . S
C534 C533 1.379 . S
H535 C529 0.959 . S
H536 C529 0.961 . S
H537 C529 0.960 . S
H538 C530 0.930 . S
H539 C531 0.929 . S
H540 C548 0.929 . S
H541 C550 0.930 . S
H542 C552 0.930 . S
H543 C555 0.929 . S
H544 C558 0.930 . S
H545 C560 0.960 . S
H546 C560 0.960 . S
H547 C560 0.960 . S
C548 H540 0.929 . S
C548 C549 1.377 . S
C548 C550 1.384 . S
C549 C548 1.377 . S
C549 C555 1.390 . S
C550 H541 0.930 . S
C550 C548 1.384 . S
C550 C551 1.372 . S
C551 C550 1.372 . S
C551 C552 1.400 . S
C551 C556 1.490 . S
C552 H542 0.930 . S
C552 C551 1.400 . S
C552 C555 1.386 . S
H553 C569 0.930 . S
H554 C570 0.931 . S
C555 H543 0.929 . S
C555 C549 1.390 . S
C555 C552 1.386 . S
C556 C551 1.490 . S
C556 C558 1.395 . S
C556 C559 1.403 . S
H557 C563 0.930 . S
C558 H544 0.930 . S
C558 C556 1.395 . S
C558 C561 1.403 . S
C559 C556 1.403 . S
C559 C560 1.524 . S
C559 C563 1.400 . S
C560 H545 0.960 . S
C560 H546 0.960 . S
C560 H547 0.960 . S
C560 C559 1.524 . S
C561 C558 1.403 . S
C561 C562 1.392 . S
C561 C565 1.495 . S
C562 C561 1.392 . S
C562 C563 1.385 . S
C562 C564 1.478 . S
C563 H557 0.930 . S
C563 C559 1.400 . S
C563 C562 1.385 . S
C564 C562 1.478 . S
C564 C566 1.381 . S
C564 C570 1.383 . S
C565 C561 1.495 . S
C565 H571 0.959 . S
C565 H572 0.961 . S
C565 H573 0.960 . S
C566 C564 1.381 . S
C566 C567 1.394 . S
C566 H574 0.930 . S
C567 C566 1.394 . S
C567 C568 1.383 . S
C567 H575 0.929 . S
C568 C567 1.383 . S
C568 C569 1.377 . S
C569 H553 0.930 . S
C569 C568 1.377 . S
C569 C570 1.379 . S
C570 H554 0.931 . S
C570 C564 1.383 . S
C570 C569 1.379 . S
H571 C565 0.959 . S
H572 C565 0.961 . S
H573 C565 0.960 . S
H574 C566 0.930 . S
H575 C567 0.929 . S
H576 C584 0.929 . S
H577 C586 0.930 1_655 S
H578 C588 0.930 . S
H579 C591 0.929 . S
H580 C594 0.930 . S
H581 C596 0.960 . S
H582 C596 0.960 . S
H583 C596 0.960 . S
C584 H576 0.929 . S
C584 C585 1.377 . S
C584 C586 1.384 . S
C585 C584 1.377 . S
C585 C591 1.390 . S
C586 H577 0.930 1_455 S
C586 C584 1.384 . S
C586 C587 1.372 . S
C587 C586 1.372 . S
C587 C588 1.400 . S
C587 C592 1.490 . S
C588 H578 0.930 . S
C588 C587 1.400 . S
C588 C591 1.386 . S
H589 C605 0.930 . S
H590 C606 0.931 1_455 S
C591 H579 0.929 . S
C591 C585 1.390 . S
C591 C588 1.386 . S
C592 C587 1.490 . S
C592 C594 1.395 1_455 S
C592 C595 1.403 . S
H593 C599 0.930 . S
C594 H580 0.930 . S
C594 C592 1.395 1_655 S
C594 C597 1.403 . S
C595 C592 1.403 . S
C595 C596 1.524 . S
C595 C599 1.400 . S
C596 H581 0.960 . S
C596 H582 0.960 . S
C596 H583 0.960 . S
C596 C595 1.524 . S
C597 C594 1.403 . S
C597 C598 1.392 . S
C597 C601 1.495 . S
C598 C597 1.392 . S
C598 C599 1.385 1_655 S
C598 C600 1.478 . S
C599 H593 0.930 . S
C599 C595 1.400 . S
C599 C598 1.385 1_455 S
C600 C598 1.478 . S
C600 C602 1.381 . S
C600 C606 1.383 . S
C601 C597 1.495 . S
C601 H607 0.959 . S
C601 H608 0.961 . S
C601 H609 0.960 . S
C602 C600 1.381 . S
C602 C603 1.394 . S
C602 H610 0.930 . S
C603 C602 1.394 . S
C603 C604 1.383 . S
C603 H611 0.929 . S
C604 C603 1.383 . S
C604 C605 1.377 . S
C605 H589 0.930 . S
C605 C604 1.377 . S
C605 C606 1.379 . S
C606 H590 0.931 1_655 S
C606 C600 1.383 . S
C606 C605 1.379 . S
H607 C601 0.959 . S
H608 C601 0.961 . S
H609 C601 0.960 . S
H610 C602 0.930 . S
H611 C603 0.929 . S
H612 C620 0.929 . S
H613 C622 0.930 1_545 S
H614 C624 0.930 . S
H615 C627 0.929 . S
H616 C630 0.930 . S
H617 C632 0.960 . S
H618 C632 0.960 . S
H619 C632 0.960 . S
C620 H612 0.929 . S
C620 C621 1.377 . S
C620 C622 1.384 . S
C621 C620 1.377 . S
C621 C627 1.390 . S
C622 H613 0.930 1_565 S
C622 C620 1.384 . S
C622 C623 1.372 . S
C623 C622 1.372 . S
C623 C624 1.400 . S
C623 C628 1.490 . S
C624 H614 0.930 . S
C624 C623 1.400 . S
C624 C627 1.386 . S
H625 C641 0.930 . S
H626 C642 0.931 1_565 S
C627 H615 0.929 . S
C627 C621 1.390 . S
C627 C624 1.386 . S
C628 C623 1.490 . S
C628 C630 1.395 1_565 S
C628 C631 1.403 . S
H629 C635 0.930 . S
C630 H616 0.930 . S
C630 C628 1.395 1_545 S
C630 C633 1.403 . S
C631 C628 1.403 . S
C631 C632 1.524 . S
C631 C635 1.400 . S
C632 H617 0.960 . S
C632 H618 0.960 . S
C632 H619 0.960 . S
C632 C631 1.524 . S
C633 C630 1.403 . S
C633 C634 1.392 . S
C633 C637 1.495 . S
C634 C633 1.392 . S
C634 C635 1.385 1_545 S
C634 C636 1.478 . S
C635 H629 0.930 . S
C635 C631 1.400 . S
C635 C634 1.385 1_565 S
C636 C634 1.478 . S
C636 C638 1.381 . S
C636 C642 1.383 . S
C637 C633 1.495 . S
C637 H643 0.959 . S
C637 H644 0.961 . S
C637 H645 0.960 . S
C638 C636 1.381 . S
C638 C639 1.394 . S
C638 H646 0.930 . S
C639 C638 1.394 . S
C639 C640 1.383 . S
C639 H647 0.929 . S
C640 C639 1.383 . S
C640 C641 1.377 . S
C641 H625 0.930 . S
C641 C640 1.377 . S
C641 C642 1.379 . S
C642 H626 0.931 1_545 S
C642 C636 1.383 . S
C642 C641 1.379 . S
H643 C637 0.959 . S
H644 C637 0.961 . S
H645 C637 0.960 . S
H646 C638 0.930 . S
H647 C639 0.929 . S
H648 C656 0.929 . S
H649 C658 0.930 . S
H650 C660 0.930 . S
H651 C663 0.929 . S
H652 C666 0.930 . S
H653 C668 0.960 . S
H654 C668 0.960 . S
H655 C668 0.960 . S
C656 H648 0.929 . S
C656 C657 1.377 . S
C656 C658 1.384 . S
C657 C656 1.377 . S
C657 C663 1.390 . S
C658 H649 0.930 . S
C658 C656 1.384 . S
C658 C659 1.372 . S
C659 C658 1.372 . S
C659 C660 1.400 . S
C659 C664 1.490 . S
C660 H650 0.930 . S
C660 C659 1.400 . S
C660 C663 1.386 . S
H661 C677 0.930 . S
H662 C678 0.931 . S
C663 H651 0.929 . S
C663 C657 1.390 . S
C663 C660 1.386 . S
C664 C659 1.490 . S
C664 C666 1.395 . S
C664 C667 1.403 . S
H665 C671 0.930 . S
C666 H652 0.930 . S
C666 C664 1.395 . S
C666 C669 1.403 . S
C667 C664 1.403 . S
C667 C668 1.524 . S
C667 C671 1.400 . S
C668 H653 0.960 . S
C668 H654 0.960 . S
C668 H655 0.960 . S
C668 C667 1.524 . S
C669 C666 1.403 . S
C669 C670 1.392 . S
C669 C673 1.495 . S
C670 C669 1.392 . S
C670 C671 1.385 . S
C670 C672 1.478 . S
C671 H665 0.930 . S
C671 C667 1.400 . S
C671 C670 1.385 . S
C672 C670 1.478 . S
C672 C674 1.381 . S
C672 C678 1.383 . S
C673 C669 1.495 . S
C673 H679 0.959 . S
C673 H680 0.961 . S
C673 H681 0.960 . S
C674 C672 1.381 . S
C674 C675 1.394 . S
C674 H682 0.930 . S
C675 C674 1.394 . S
C675 C676 1.383 . S
C675 H683 0.929 . S
C676 C675 1.383 . S
C676 C677 1.377 . S
C677 H661 0.930 . S
C677 C676 1.377 . S
C677 C678 1.379 . S
C678 H662 0.931 . S
C678 C672 1.383 . S
C678 C677 1.379 . S
H679 C673 0.959 . S
H680 C673 0.961 . S
H681 C673 0.960 . S
H682 C674 0.930 . S
H683 C675 0.929 . S
H684 C692 0.929 . S
H685 C694 0.930 1_655 S
H686 C696 0.930 . S
H687 C699 0.929 . S
H688 C702 0.930 . S
H689 C704 0.960 . S
H690 C704 0.960 . S
H691 C704 0.960 . S
C692 H684 0.929 . S
C692 C693 1.377 . S
C692 C694 1.384 . S
C693 C692 1.377 . S
C693 C699 1.390 . S
C694 H685 0.930 1_455 S
C694 C692 1.384 . S
C694 C695 1.372 . S
C695 C694 1.372 . S
C695 C696 1.400 . S
C695 C700 1.490 . S
C696 H686 0.930 . S
C696 C695 1.400 . S
C696 C699 1.386 . S
H697 C713 0.930 . S
H698 C714 0.931 1_455 S
C699 H687 0.929 . S
C699 C693 1.390 . S
C699 C696 1.386 . S
C700 C695 1.490 . S
C700 C702 1.395 1_455 S
C700 C703 1.403 . S
H701 C707 0.939 . S
C702 H688 0.930 . S
C702 C700 1.395 1_655 S
C702 C705 1.403 . S
C703 C700 1.403 . S
C703 C704 1.524 . S
C703 C707 1.399 . S
C704 H689 0.960 . S
C704 H690 0.960 . S
C704 H691 0.960 . S
C704 C703 1.524 . S
C705 C702 1.403 . S
C705 C706 1.392 . S
C705 C709 1.495 . S
C706 C705 1.392 . S
C706 C707 1.379 1_655 S
C706 C708 1.478 . S
C707 H701 0.939 . S
C707 C703 1.399 . S
C707 C706 1.379 1_455 S
C708 C706 1.478 . S
C708 C710 1.381 . S
C708 C714 1.383 . S
C709 C705 1.495 . S
C709 H715 0.959 . S
C709 H716 0.961 . S
C709 H717 0.960 . S
C710 C708 1.381 . S
C710 C711 1.394 . S
C710 H718 0.930 . S
C711 C710 1.394 . S
C711 C712 1.383 . S
C711 H719 0.929 . S
C712 C711 1.383 . S
C712 C713 1.377 . S
C713 H697 0.930 . S
C713 C712 1.377 . S
C713 C714 1.379 . S
C714 H698 0.931 1_655 S
C714 C708 1.383 . S
C714 C713 1.379 . S
H715 C709 0.959 . S
H716 C709 0.961 . S
H717 C709 0.960 . S
H718 C710 0.930 . S
H719 C711 0.929 . S
H720 C728 0.929 . S
H721 C730 0.930 . S
H722 C732 0.930 . S
H723 C735 0.929 . S
H724 C738 0.930 . S
H725 C740 0.960 . S
H726 C740 0.960 . S
H727 C740 0.960 . S
C728 H720 0.929 . S
C728 C729 1.377 . S
C728 C730 1.384 . S
C729 C728 1.377 . S
C729 C735 1.390 . S
C730 H721 0.930 . S
C730 C728 1.384 . S
C730 C731 1.372 . S
C731 C730 1.372 . S
C731 C732 1.400 . S
C731 C736 1.490 . S
C732 H722 0.930 . S
C732 C731 1.400 . S
C732 C735 1.386 . S
H733 C749 0.930 . S
H734 C750 0.931 . S
C735 H723 0.929 . S
C735 C729 1.390 . S
C735 C732 1.386 . S
C736 C731 1.490 . S
C736 C738 1.395 1_455 S
C736 C739 1.403 . S
H737 C743 0.930 . S
C738 H724 0.930 . S
C738 C736 1.395 1_655 S
C738 C741 1.403 . S
C739 C736 1.403 . S
C739 C740 1.524 . S
C739 C743 1.400 . S
C740 H725 0.960 . S
C740 H726 0.960 . S
C740 H727 0.960 . S
C740 C739 1.524 . S
C741 C738 1.403 . S
C741 C742 1.392 . S
C741 C745 1.495 . S
C742 C741 1.392 . S
C742 C743 1.385 1_655 S
C742 C744 1.478 . S
C743 H737 0.930 . S
C743 C739 1.400 . S
C743 C742 1.385 1_455 S
C744 C742 1.478 . S
C744 C746 1.381 . S
C744 C750 1.383 . S
C745 C741 1.495 . S
C745 H751 0.959 . S
C745 H752 0.961 . S
C745 H753 0.960 . S
C746 C744 1.381 . S
C746 C747 1.394 . S
C746 H754 0.930 . S
C747 C746 1.394 . S
C747 C748 1.383 . S
C747 H755 0.929 . S
C748 C747 1.383 . S
C748 C749 1.377 . S
C749 H733 0.930 . S
C749 C748 1.377 . S
C749 C750 1.379 . S
C750 H734 0.931 . S
C750 C744 1.383 . S
C750 C749 1.379 . S
H751 C745 0.959 . S
H752 C745 0.961 . S
H753 C745 0.960 . S
H754 C746 0.930 . S
H755 C747 0.929 . S
H756 C764 0.929 . S
H757 C766 0.930 . S
H758 C768 0.930 . S
H759 C771 0.929 . S
H760 C774 0.930 . S
H761 C776 0.960 . S
H762 C776 0.960 . S
H763 C776 0.960 . S
C764 H756 0.929 . S
C764 C765 1.377 . S
C764 C766 1.384 . S
C765 C764 1.377 . S
C765 C771 1.390 . S
C766 H757 0.930 . S
C766 C764 1.384 . S
C766 C767 1.372 . S
C767 C766 1.372 . S
C767 C768 1.400 . S
C767 C772 1.490 . S
C768 H758 0.930 . S
C768 C767 1.400 . S
C768 C771 1.386 . S
H769 C785 0.930 . S
H770 C786 0.931 . S
C771 H759 0.929 . S
C771 C765 1.390 . S
C771 C768 1.386 . S
C772 C767 1.490 . S
C772 C774 1.395 . S
C772 C775 1.403 1_545 S
H773 C779 0.930 . S
C774 H760 0.930 . S
C774 C772 1.395 . S
C774 C777 1.403 . S
C775 C772 1.403 1_565 S
C775 C776 1.524 . S
C775 C779 1.400 . S
C776 H761 0.960 . S
C776 H762 0.960 . S
C776 H763 0.960 . S
C776 C775 1.524 . S
C777 C774 1.403 . S
C777 C778 1.392 1_545 S
C777 C781 1.495 . S
C778 C777 1.392 1_565 S
C778 C779 1.385 . S
C778 C780 1.478 . S
C779 H773 0.930 . S
C779 C775 1.400 . S
C779 C778 1.385 . S
C780 C778 1.478 . S
C780 C782 1.381 . S
C780 C786 1.383 . S
C781 C777 1.495 . S
C781 H787 0.959 . S
C781 H788 0.961 . S
C781 H789 0.960 . S
C782 C780 1.381 . S
C782 C783 1.394 . S
C782 H790 0.930 . S
C783 C782 1.394 . S
C783 C784 1.383 . S
C783 H791 0.929 . S
C784 C783 1.383 . S
C784 C785 1.377 . S
C785 H769 0.930 . S
C785 C784 1.377 . S
C785 C786 1.379 . S
C786 H770 0.931 . S
C786 C780 1.383 . S
C786 C785 1.379 . S
H787 C781 0.959 . S
H788 C781 0.961 . S
H789 C781 0.960 . S
H790 C782 0.930 . S
H791 C783 0.929 . S
H792 C800 0.929 . S
H793 C802 0.930 . S
H794 C804 0.930 . S
H795 C807 0.929 . S
H796 C810 0.930 . S
H797 C812 0.960 . S
H798 C812 0.960 . S
H799 C812 0.960 . S
C800 H792 0.929 . S
C800 C801 1.377 . S
C800 C802 1.384 . S
C801 C800 1.377 . S
C801 C807 1.390 . S
C802 H793 0.930 . S
C802 C800 1.384 . S
C802 C803 1.372 . S
C803 C802 1.372 . S
C803 C804 1.400 . S
C803 C808 1.490 . S
C804 H794 0.930 . S
C804 C803 1.400 . S
C804 C807 1.386 . S
H805 C821 0.930 . S
H806 C822 0.931 . S
C807 H795 0.929 . S
C807 C801 1.390 . S
C807 C804 1.386 . S
C808 C803 1.490 . S
C808 C810 1.395 . S
C808 C811 1.403 . S
H809 C815 0.930 . S
C810 H796 0.930 . S
C810 C808 1.395 . S
C810 C813 1.403 . S
C811 C808 1.403 . S
C811 C812 1.524 . S
C811 C815 1.400 . S
C812 H797 0.960 . S
C812 H798 0.960 . S
C812 H799 0.960 . S
C812 C811 1.524 . S
C813 C810 1.403 . S
C813 C814 1.392 . S
C813 C817 1.495 . S
C814 C813 1.392 . S
C814 C815 1.385 . S
C814 C816 1.478 . S
C815 H809 0.930 . S
C815 C811 1.400 . S
C815 C814 1.385 . S
C816 C814 1.478 . S
C816 C818 1.381 . S
C816 C822 1.383 . S
C817 C813 1.495 . S
C817 H823 0.959 . S
C817 H824 0.961 . S
C817 H825 0.960 . S
C818 C816 1.381 . S
C818 C819 1.394 . S
C818 H826 0.930 . S
C819 C818 1.394 . S
C819 C820 1.383 . S
C819 H827 0.929 . S
C820 C819 1.383 . S
C820 C821 1.377 . S
C821 H805 0.930 . S
C821 C820 1.377 . S
C821 C822 1.379 . S
C822 H806 0.931 . S
C822 C816 1.383 . S
C822 C821 1.379 . S
H823 C817 0.959 . S
H824 C817 0.961 . S
H825 C817 0.960 . S
H826 C818 0.930 . S
H827 C819 0.929 . S
H828 C836 0.929 . S
H829 C838 0.930 . S
H830 C840 0.930 . S
H831 C843 0.929 . S
H832 C846 0.930 . S
H833 C848 0.960 . S
H834 C848 0.960 . S
H835 C848 0.960 . S
C836 H828 0.929 . S
C836 C837 1.377 . S
C836 C838 1.384 . S
C837 C836 1.377 . S
C837 C843 1.390 . S
C838 H829 0.930 . S
C838 C836 1.384 . S
C838 C839 1.372 . S
C839 C838 1.372 . S
C839 C840 1.400 . S
C839 C844 1.490 . S
C840 H830 0.930 . S
C840 C839 1.400 . S
C840 C843 1.386 . S
H841 C857 0.930 . S
H842 C858 0.931 . S
C843 H831 0.929 . S
C843 C837 1.390 . S
C843 C840 1.386 . S
C844 C839 1.490 . S
C844 C846 1.395 . S
C844 C847 1.403 . S
H845 C851 0.930 . S
C846 H832 0.930 . S
C846 C844 1.395 . S
C846 C849 1.403 . S
C847 C844 1.403 . S
C847 C848 1.524 . S
C847 C851 1.400 . S
C848 H833 0.960 . S
C848 H834 0.960 . S
C848 H835 0.960 . S
C848 C847 1.524 . S
C849 C846 1.403 . S
C849 C850 1.392 . S
C849 C853 1.495 . S
C850 C849 1.392 . S
C850 C851 1.385 . S
C850 C852 1.478 . S
C851 H845 0.930 . S
C851 C847 1.400 . S
C851 C850 1.385 . S
C852 C850 1.478 . S
C852 C854 1.381 . S
C852 C858 1.383 . S
C853 C849 1.495 . S
C853 H859 0.959 . S
C853 H860 0.961 . S
C853 H861 0.960 . S
C854 C852 1.381 . S
C854 C855 1.394 . S
C854 H862 0.930 . S
C855 C854 1.394 . S
C855 C856 1.383 . S
C855 H863 0.929 . S
C856 C855 1.383 . S
C856 C857 1.377 . S
C857 H841 0.930 . S
C857 C856 1.377 . S
C857 C858 1.379 . S
C858 H842 0.931 . S
C858 C852 1.383 . S
C858 C857 1.379 . S
H859 C853 0.959 . S
H860 C853 0.961 . S
H861 C853 0.960 . S
H862 C854 0.930 . S
H863 C855 0.929 . S
H864 C872 0.929 . S
H865 C874 0.930 . S
H866 C876 0.930 . S
H867 C879 0.929 . S
H868 C882 0.930 . S
H869 C884 0.960 . S
H870 C884 0.960 . S
H871 C884 0.960 . S
C872 H864 0.929 . S
C872 C873 1.377 . S
C872 C874 1.384 . S
C873 C872 1.377 . S
C873 C879 1.390 . S
C874 H865 0.930 . S
C874 C872 1.384 . S
C874 C875 1.372 . S
C875 C874 1.372 . S
C875 C876 1.400 . S
C875 C880 1.490 . S
C876 H866 0.930 . S
C876 C875 1.400 . S
C876 C879 1.386 . S
H877 C893 0.930 . S
H878 C894 0.931 . S
C879 H867 0.929 . S
C879 C873 1.390 . S
C879 C876 1.386 . S
C880 C875 1.490 . S
C880 C882 1.395 . S
C880 C883 1.403 . S
H881 C887 0.930 . S
C882 H868 0.930 . S
C882 C880 1.395 . S
C882 C885 1.403 . S
C883 C880 1.403 . S
C883 C884 1.524 . S
C883 C887 1.400 . S
C884 H869 0.960 . S
C884 H870 0.960 . S
C884 H871 0.960 . S
C884 C883 1.524 . S
C885 C882 1.403 . S
C885 C886 1.392 . S
C885 C889 1.495 . S
C886 C885 1.392 . S
C886 C887 1.385 . S
C886 C888 1.478 . S
C887 H881 0.930 . S
C887 C883 1.400 . S
C887 C886 1.385 . S
C888 C886 1.478 . S
C888 C890 1.381 . S
C888 C894 1.383 . S
C889 C885 1.495 . S
C889 H895 0.959 . S
C889 H896 0.961 . S
C889 H897 0.960 . S
C890 C888 1.381 . S
C890 C891 1.394 . S
C890 H898 0.930 . S
C891 C890 1.394 . S
C891 C892 1.383 . S
C891 H899 0.929 . S
C892 C891 1.383 . S
C892 C893 1.377 . S
C893 H877 0.930 . S
C893 C892 1.377 . S
C893 C894 1.379 . S
C894 H878 0.931 . S
C894 C888 1.383 . S
C894 C893 1.379 . S
H895 C889 0.959 . S
H896 C889 0.961 . S
H897 C889 0.960 . S
H898 C890 0.930 . S
H899 C891 0.929 . S
H900 C908 0.929 . S
H901 C910 0.930 . S
H902 C912 0.930 . S
H903 C915 0.929 . S
H904 C918 0.930 . S
H905 C920 0.960 . S
H906 C920 0.960 . S
H907 C920 0.960 . S
C908 H900 0.929 . S
C908 C909 1.377 . S
C908 C910 1.384 . S
C909 C908 1.377 . S
C909 C915 1.390 . S
C910 H901 0.930 . S
C910 C908 1.384 . S
C910 C911 1.372 . S
C911 C910 1.372 . S
C911 C912 1.400 . S
C911 C916 1.490 . S
C912 H902 0.930 . S
C912 C911 1.400 . S
C912 C915 1.386 . S
H913 C929 0.930 . S
H914 C930 0.931 . S
C915 H903 0.929 . S
C915 C909 1.390 . S
C915 C912 1.386 . S
C916 C911 1.490 . S
C916 C918 1.395 . S
C916 C919 1.403 . S
H917 C923 0.930 . S
C918 H904 0.930 . S
C918 C916 1.395 . S
C918 C921 1.403 . S
C919 C916 1.403 . S
C919 C920 1.524 . S
C919 C923 1.400 . S
C920 H905 0.960 . S
C920 H906 0.960 . S
C920 H907 0.960 . S
C920 C919 1.524 . S
C921 C918 1.403 . S
C921 C922 1.392 . S
C921 C925 1.495 . S
C922 C921 1.392 . S
C922 C923 1.385 . S
C922 C924 1.478 . S
C923 H917 0.930 . S
C923 C919 1.400 . S
C923 C922 1.385 . S
C924 C922 1.478 . S
C924 C926 1.381 . S
C924 C930 1.383 . S
C925 C921 1.495 . S
C925 H931 0.959 . S
C925 H932 0.961 . S
C925 H933 0.960 . S
C926 C924 1.381 . S
C926 C927 1.394 . S
C926 H934 0.930 . S
C927 C926 1.394 . S
C927 C928 1.383 . S
C927 H935 0.929 . S
C928 C927 1.383 . S
C928 C929 1.377 . S
C929 H913 0.930 . S
C929 C928 1.377 . S
C929 C930 1.379 . S
C930 H914 0.931 . S
C930 C924 1.383 . S
C930 C929 1.379 . S
H931 C925 0.959 . S
H932 C925 0.961 . S
H933 C925 0.960 . S
H934 C926 0.930 . S
H935 C927 0.929 . S
H936 C944 0.929 . S
H937 C946 0.930 . S
H938 C948 0.930 . S
H939 C951 0.929 . S
H940 C954 0.930 . S
H941 C956 0.960 . S
H942 C956 0.960 . S
H943 C956 0.960 . S
C944 H936 0.929 . S
C944 C945 1.377 . S
C944 C946 1.384 . S
C945 C944 1.377 . S
C945 C951 1.390 . S
C946 H937 0.930 . S
C946 C944 1.384 . S
C946 C947 1.372 . S
C947 C946 1.372 . S
C947 C948 1.400 . S
C947 C952 1.490 . S
C948 H938 0.930 . S
C948 C947 1.400 . S
C948 C951 1.386 . S
H949 C965 0.930 . S
H950 C966 0.931 . S
C951 H939 0.929 . S
C951 C945 1.390 . S
C951 C948 1.386 . S
C952 C947 1.490 . S
C952 C954 1.395 . S
C952 C955 1.403 . S
H953 C959 0.930 . S
C954 H940 0.930 . S
C954 C952 1.395 . S
C954 C957 1.403 . S
C955 C952 1.403 . S
C955 C956 1.524 . S
C955 C959 1.400 . S
C956 H941 0.960 . S
C956 H942 0.960 . S
C956 H943 0.960 . S
C956 C955 1.524 . S
C957 C954 1.403 . S
C957 C958 1.392 . S
C957 C961 1.495 . S
C958 C957 1.392 . S
C958 C959 1.385 . S
C958 C960 1.478 . S
C959 H953 0.930 . S
C959 C955 1.400 . S
C959 C958 1.385 . S
C960 C958 1.478 . S
C960 C962 1.381 . S
C960 C966 1.383 . S
C961 C957 1.495 . S
C961 H967 0.959 . S
C961 H968 0.961 . S
C961 H969 0.960 . S
C962 C960 1.381 . S
C962 C963 1.394 . S
C962 H970 0.930 . S
C963 C962 1.394 . S
C963 C964 1.383 . S
C963 H971 0.929 . S
C964 C963 1.383 . S
C964 C965 1.377 . S
C965 H949 0.930 . S
C965 C964 1.377 . S
C965 C966 1.379 . S
C966 H950 0.931 . S
C966 C960 1.383 . S
C966 C965 1.379 . S
H967 C961 0.959 . S
H968 C961 0.961 . S
H969 C961 0.960 . S
H970 C962 0.930 . S
H971 C963 0.929 . S
H972 C980 0.929 . S
H973 C982 0.930 . S
H974 C984 0.930 . S
H975 C987 0.929 . S
H976 C990 0.930 . S
H977 C992 0.960 . S
H978 C992 0.960 . S
H979 C992 0.960 . S
C980 H972 0.929 . S
C980 C981 1.377 . S
C980 C982 1.384 . S
C981 C980 1.377 . S
C981 C987 1.390 . S
C982 H973 0.930 . S
C982 C980 1.384 . S
C982 C983 1.372 . S
C983 C982 1.372 . S
C983 C984 1.400 . S
C983 C988 1.490 . S
C984 H974 0.930 . S
C984 C983 1.400 . S
C984 C987 1.386 . S
H985 C1001 0.930 . S
H986 C1002 0.931 . S
C987 H975 0.929 . S
C987 C981 1.390 . S
C987 C984 1.386 . S
C988 C983 1.490 . S
C988 C990 1.395 . S
C988 C991 1.403 . S
H989 C995 0.930 . S
C990 H976 0.930 . S
C990 C988 1.395 . S
C990 C993 1.403 . S
C991 C988 1.403 . S
C991 C992 1.524 . S
C991 C995 1.400 . S
C992 H977 0.960 . S
C992 H978 0.960 . S
C992 H979 0.960 . S
C992 C991 1.524 . S
C993 C990 1.403 . S
C993 C994 1.392 . S
C993 C997 1.495 . S
C994 C993 1.392 . S
C994 C995 1.385 . S
C994 C996 1.478 . S
C995 H989 0.930 . S
C995 C991 1.400 . S
C995 C994 1.385 . S
C996 C994 1.478 . S
C996 C998 1.381 . S
C996 C1002 1.383 . S
C997 C993 1.495 . S
C997 H1003 0.959 . S
C997 H1004 0.961 . S
C997 H1005 0.960 . S
C998 C996 1.381 . S
C998 C999 1.394 . S
C998 H1006 0.930 . S
C999 C998 1.394 . S
C999 C1000 1.383 . S
C999 H1007 0.929 . S
C1000 C999 1.383 . S
C1000 C1001 1.377 . S
C1001 H985 0.930 . S
C1001 C1000 1.377 . S
C1001 C1002 1.379 . S
C1002 H986 0.931 . S
C1002 C996 1.383 . S
C1002 C1001 1.379 . S
H1003 C997 0.959 . S
H1004 C997 0.961 . S
H1005 C997 0.960 . S
H1006 C998 0.930 . S
H1007 C999 0.929 . S
H1008 C1016 0.929 . S
H1009 C1018 0.930 . S
H1010 C1020 0.930 . S
H1011 C1023 0.929 . S
H1012 C1026 0.930 . S
H1013 C1028 0.960 . S
H1014 C1028 0.960 . S
H1015 C1028 0.960 . S
C1016 H1008 0.929 . S
C1016 C1017 1.377 . S
C1016 C1018 1.384 . S
C1017 C1016 1.377 . S
C1017 C1023 1.390 . S
C1018 H1009 0.930 . S
C1018 C1016 1.384 . S
C1018 C1019 1.372 . S
C1019 C1018 1.372 . S
C1019 C1020 1.400 . S
C1019 C1024 1.490 . S
C1020 H1010 0.930 . S
C1020 C1019 1.400 . S
C1020 C1023 1.386 . S
H1021 C1037 0.930 . S
H1022 C1038 0.931 . S
C1023 H1011 0.929 . S
C1023 C1017 1.390 . S
C1023 C1020 1.386 . S
C1024 C1019 1.490 . S
C1024 C1026 1.395 . S
C1024 C1027 1.403 . S
H1025 C1031 0.930 . S
C1026 H1012 0.930 . S
C1026 C1024 1.395 . S
C1026 C1029 1.403 . S
C1027 C1024 1.403 . S
C1027 C1028 1.524 . S
C1027 C1031 1.400 . S
C1028 H1013 0.960 . S
C1028 H1014 0.960 . S
C1028 H1015 0.960 . S
C1028 C1027 1.524 . S
C1029 C1026 1.403 . S
C1029 C1030 1.392 . S
C1029 C1033 1.495 . S
C1030 C1029 1.392 . S
C1030 C1031 1.385 . S
C1030 C1032 1.478 . S
C1031 H1025 0.930 . S
C1031 C1027 1.400 . S
C1031 C1030 1.385 . S
C1032 C1030 1.478 . S
C1032 C1034 1.381 . S
C1032 C1038 1.383 . S
C1033 C1029 1.495 . S
C1033 H1039 0.959 . S
C1033 H1040 0.961 . S
C1033 H1041 0.960 . S
C1034 C1032 1.381 . S
C1034 C1035 1.394 . S
C1034 H1042 0.930 . S
C1035 C1034 1.394 . S
C1035 C1036 1.383 . S
C1035 H1043 0.929 . S
C1036 C1035 1.383 . S
C1036 C1037 1.377 . S
C1037 H1021 0.930 . S
C1037 C1036 1.377 . S
C1037 C1038 1.379 . S
C1038 H1022 0.931 . S
C1038 C1032 1.383 . S
C1038 C1037 1.379 . S
H1039 C1033 0.959 . S
H1040 C1033 0.961 . S
H1041 C1033 0.960 . S
H1042 C1034 0.930 . S
H1043 C1035 0.929 . S
H1044 C1052 0.929 . S
H1045 C1054 0.930 . S
H1046 C1056 0.930 . S
H1047 C1059 0.929 . S
H1048 C1062 0.930 . S
H1049 C1064 0.960 . S
H1050 C1064 0.960 . S
H1051 C1064 0.960 . S
C1052 H1044 0.929 . S
C1052 C1053 1.377 . S
C1052 C1054 1.384 . S
C1053 C1052 1.377 . S
C1053 C1059 1.390 . S
C1054 H1045 0.930 . S
C1054 C1052 1.384 . S
C1054 C1055 1.372 . S
C1055 C1054 1.372 . S
C1055 C1056 1.400 . S
C1055 C1060 1.490 . S
C1056 H1046 0.930 . S
C1056 C1055 1.400 . S
C1056 C1059 1.386 . S
H1057 C1073 0.930 . S
H1058 C1074 0.931 . S
C1059 H1047 0.929 . S
C1059 C1053 1.390 . S
C1059 C1056 1.386 . S
C1060 C1055 1.490 . S
C1060 C1062 1.395 . S
C1060 C1063 1.403 . S
H1061 C1067 0.930 . S
C1062 H1048 0.930 . S
C1062 C1060 1.395 . S
C1062 C1065 1.403 . S
C1063 C1060 1.403 . S
C1063 C1064 1.524 . S
C1063 C1067 1.400 . S
C1064 H1049 0.960 . S
C1064 H1050 0.960 . S
C1064 H1051 0.960 . S
C1064 C1063 1.524 . S
C1065 C1062 1.403 . S
C1065 C1066 1.392 . S
C1065 C1069 1.495 . S
C1066 C1065 1.392 . S
C1066 C1067 1.385 . S
C1066 C1068 1.478 . S
C1067 H1061 0.930 . S
C1067 C1063 1.400 . S
C1067 C1066 1.385 . S
C1068 C1066 1.478 . S
C1068 C1070 1.381 . S
C1068 C1074 1.383 . S
C1069 C1065 1.495 . S
C1069 H1075 0.959 . S
C1069 H1076 0.961 . S
C1069 H1077 0.960 . S
C1070 C1068 1.381 . S
C1070 C1071 1.394 . S
C1070 H1078 0.930 . S
C1071 C1070 1.394 . S
C1071 C1072 1.383 . S
C1071 H1079 0.929 . S
C1072 C1071 1.383 . S
C1072 C1073 1.377 . S
C1073 H1057 0.930 . S
C1073 C1072 1.377 . S
C1073 C1074 1.379 . S
C1074 H1058 0.931 . S
C1074 C1068 1.383 . S
C1074 C1073 1.379 . S
H1075 C1069 0.959 . S
H1076 C1069 0.961 . S
H1077 C1069 0.960 . S
H1078 C1070 0.930 . S
H1079 C1071 0.929 . S
H1080 C1088 0.929 . S
H1081 C1090 0.930 . S
H1082 C1092 0.930 . S
H1083 C1095 0.929 . S
H1084 C1098 0.930 . S
H1085 C1100 0.960 . S
H1086 C1100 0.960 . S
H1087 C1100 0.960 . S
C1088 H1080 0.929 . S
C1088 C1089 1.377 . S
C1088 C1090 1.384 . S
C1089 C1088 1.377 . S
C1089 C1095 1.390 . S
C1090 H1081 0.930 . S
C1090 C1088 1.384 . S
C1090 C1091 1.372 . S
C1091 C1090 1.372 . S
C1091 C1092 1.400 . S
C1091 C1096 1.490 . S
C1092 H1082 0.930 . S
C1092 C1091 1.400 . S
C1092 C1095 1.386 . S
H1093 C1109 0.930 . S
H1094 C1110 0.931 . S
C1095 H1083 0.929 . S
C1095 C1089 1.390 . S
C1095 C1092 1.386 . S
C1096 C1091 1.490 . S
C1096 C1098 1.395 . S
C1096 C1099 1.403 1_455 S
H1097 C1103 0.930 . S
C1098 H1084 0.930 . S
C1098 C1096 1.395 . S
C1098 C1101 1.403 . S
C1099 C1096 1.403 1_655 S
C1099 C1100 1.524 . S
C1099 C1103 1.400 . S
C1100 H1085 0.960 . S
C1100 H1086 0.960 . S
C1100 H1087 0.960 . S
C1100 C1099 1.524 . S
C1101 C1098 1.403 . S
C1101 C1102 1.392 1_455 S
C1101 C1105 1.495 . S
C1102 C1101 1.392 1_655 S
C1102 C1103 1.385 . S
C1102 C1104 1.478 . S
C1103 H1097 0.930 . S
C1103 C1099 1.400 . S
C1103 C1102 1.385 . S
C1104 C1102 1.478 . S
C1104 C1106 1.381 . S
C1104 C1110 1.383 . S
C1105 C1101 1.495 . S
C1105 H1111 0.959 . S
C1105 H1112 0.961 . S
C1105 H1113 0.960 . S
C1106 C1104 1.381 . S
C1106 C1107 1.394 . S
C1106 H1114 0.930 . S
C1107 C1106 1.394 . S
C1107 C1108 1.383 . S
C1107 H1115 0.929 . S
C1108 C1107 1.383 . S
C1108 C1109 1.377 . S
C1109 H1093 0.930 . S
C1109 C1108 1.377 . S
C1109 C1110 1.379 . S
C1110 H1094 0.931 . S
C1110 C1104 1.383 . S
C1110 C1109 1.379 . S
H1111 C1105 0.959 . S
H1112 C1105 0.961 . S
H1113 C1105 0.960 . S
H1114 C1106 0.930 . S
H1115 C1107 0.929 . S
H1116 C1124 0.929 . S
H1117 C1126 0.930 1_545 S
H1118 C1128 0.930 . S
H1119 C1131 0.929 . S
H1120 C1134 0.930 . S
H1121 C1136 0.960 . S
H1122 C1136 0.960 . S
H1123 C1136 0.960 . S
C1124 H1116 0.929 . S
C1124 C1125 1.377 . S
C1124 C1126 1.384 . S
C1125 C1124 1.377 . S
C1125 C1131 1.390 . S
C1126 H1117 0.930 1_565 S
C1126 C1124 1.384 . S
C1126 C1127 1.372 . S
C1127 C1126 1.372 . S
C1127 C1128 1.400 . S
C1127 C1132 1.490 . S
C1128 H1118 0.930 . S
C1128 C1127 1.400 . S
C1128 C1131 1.386 . S
H1129 C1145 0.930 . S
H1130 C1146 0.931 . S
C1131 H1119 0.929 . S
C1131 C1125 1.390 . S
C1131 C1128 1.386 . S
C1132 C1127 1.490 . S
C1132 C1134 1.395 1_565 S
C1132 C1135 1.403 . S
H1133 C1139 0.930 . S
C1134 H1120 0.930 . S
C1134 C1132 1.395 1_545 S
C1134 C1137 1.403 . S
C1135 C1132 1.403 . S
C1135 C1136 1.524 . S
C1135 C1139 1.400 . S
C1136 H1121 0.960 . S
C1136 H1122 0.960 . S
C1136 H1123 0.960 . S
C1136 C1135 1.524 . S
C1137 C1134 1.403 . S
C1137 C1138 1.392 . S
C1137 C1141 1.495 . S
C1138 C1137 1.392 . S
C1138 C1139 1.385 1_545 S
C1138 C1140 1.478 . S
C1139 H1133 0.930 . S
C1139 C1135 1.400 . S
C1139 C1138 1.385 1_565 S
C1140 C1138 1.478 . S
C1140 C1142 1.381 . S
C1140 C1146 1.383 . S
C1141 C1137 1.495 . S
C1141 H1147 0.959 . S
C1141 H1148 0.961 . S
C1141 H1149 0.960 . S
C1142 C1140 1.381 . S
C1142 C1143 1.394 . S
C1142 H1150 0.930 . S
C1143 C1142 1.394 . S
C1143 C1144 1.383 . S
C1143 H1151 0.929 . S
C1144 C1143 1.383 . S
C1144 C1145 1.377 . S
C1145 H1129 0.930 . S
C1145 C1144 1.377 . S
C1145 C1146 1.379 . S
C1146 H1130 0.931 . S
C1146 C1140 1.383 . S
C1146 C1145 1.379 . S
H1147 C1141 0.959 . S
H1148 C1141 0.961 . S
H1149 C1141 0.960 . S
H1150 C1142 0.930 . S
H1151 C1143 0.929 . S
H1152 C1160 0.929 . S
H1153 C1162 0.930 . S
H1154 C1164 0.930 . S
H1155 C1167 0.929 . S
H1156 C1170 0.930 . S
H1157 C1172 0.960 . S
H1158 C1172 0.960 . S
H1159 C1172 0.960 . S
C1160 H1152 0.929 . S
C1160 C1161 1.377 . S
C1160 C1162 1.384 . S
C1161 C1160 1.377 . S
C1161 C1167 1.390 . S
C1162 H1153 0.930 . S
C1162 C1160 1.384 . S
C1162 C1163 1.372 . S
C1163 C1162 1.372 . S
C1163 C1164 1.400 . S
C1163 C1168 1.490 . S
C1164 H1154 0.930 . S
C1164 C1163 1.400 . S
C1164 C1167 1.386 . S
H1165 C1181 0.930 . S
H1166 C1182 0.931 . S
C1167 H1155 0.929 . S
C1167 C1161 1.390 . S
C1167 C1164 1.386 . S
C1168 C1163 1.490 . S
C1168 C1170 1.395 . S
C1168 C1171 1.403 . S
H1169 C1175 0.930 . S
C1170 H1156 0.930 . S
C1170 C1168 1.395 . S
C1170 C1173 1.403 . S
C1171 C1168 1.403 . S
C1171 C1172 1.524 . S
C1171 C1175 1.400 . S
C1172 H1157 0.960 . S
C1172 H1158 0.960 . S
C1172 H1159 0.960 . S
C1172 C1171 1.524 . S
C1173 C1170 1.403 . S
C1173 C1174 1.392 . S
C1173 C1177 1.495 . S
C1174 C1173 1.392 . S
C1174 C1175 1.385 . S
C1174 C1176 1.478 . S
C1175 H1169 0.930 . S
C1175 C1171 1.400 . S
C1175 C1174 1.385 . S
C1176 C1174 1.478 . S
C1176 C1178 1.381 . S
C1176 C1182 1.383 . S
C1177 C1173 1.495 . S
C1177 H1183 0.959 . S
C1177 H1184 0.961 . S
C1177 H1185 0.960 . S
C1178 C1176 1.381 . S
C1178 C1179 1.394 . S
C1178 H1186 0.930 . S
C1179 C1178 1.394 . S
C1179 C1180 1.383 . S
C1179 H1187 0.929 . S
C1180 C1179 1.383 . S
C1180 C1181 1.377 . S
C1181 H1165 0.930 . S
C1181 C1180 1.377 . S
C1181 C1182 1.379 . S
C1182 H1166 0.931 . S
C1182 C1176 1.383 . S
C1182 C1181 1.379 . S
H1183 C1177 0.959 . S
H1184 C1177 0.961 . S
H1185 C1177 0.960 . S
H1186 C1178 0.930 . S
H1187 C1179 0.929 . S
H1188 C1196 0.929 . S
H1189 C1198 0.930 . S
H1190 C1200 0.930 . S
H1191 C1203 0.929 . S
H1192 C1206 0.930 . S
H1193 C1208 0.960 . S
H1194 C1208 0.960 . S
H1195 C1208 0.960 . S
C1196 H1188 0.929 . S
C1196 C1197 1.377 . S
C1196 C1198 1.384 . S
C1197 C1196 1.377 . S
C1197 C1203 1.390 . S
C1198 H1189 0.930 . S
C1198 C1196 1.384 . S
C1198 C1199 1.372 . S
C1199 C1198 1.372 . S
C1199 C1200 1.400 . S
C1199 C1204 1.490 . S
C1200 H1190 0.930 . S
C1200 C1199 1.400 . S
C1200 C1203 1.386 . S
H1201 C1217 0.930 . S
H1202 C1218 0.931 . S
C1203 H1191 0.929 . S
C1203 C1197 1.390 . S
C1203 C1200 1.386 . S
C1204 C1199 1.490 . S
C1204 C1206 1.395 . S
C1204 C1207 1.403 1_455 S
H1205 C1211 0.930 . S
C1206 H1192 0.930 . S
C1206 C1204 1.395 . S
C1206 C1209 1.403 . S
C1207 C1204 1.403 1_655 S
C1207 C1208 1.524 . S
C1207 C1211 1.400 . S
C1208 H1193 0.960 . S
C1208 H1194 0.960 . S
C1208 H1195 0.960 . S
C1208 C1207 1.524 . S
C1209 C1206 1.403 . S
C1209 C1210 1.392 1_455 S
C1209 C1213 1.495 . S
C1210 C1209 1.392 1_655 S
C1210 C1211 1.385 . S
C1210 C1212 1.478 . S
C1211 H1205 0.930 . S
C1211 C1207 1.400 . S
C1211 C1210 1.385 . S
C1212 C1210 1.478 . S
C1212 C1214 1.381 . S
C1212 C1218 1.383 . S
C1213 C1209 1.495 . S
C1213 H1219 0.959 . S
C1213 H1220 0.961 . S
C1213 H1221 0.960 . S
C1214 C1212 1.381 . S
C1214 C1215 1.394 . S
C1214 H1222 0.930 . S
C1215 C1214 1.394 . S
C1215 C1216 1.383 . S
C1215 H1223 0.929 . S
C1216 C1215 1.383 . S
C1216 C1217 1.377 . S
C1217 H1201 0.930 . S
C1217 C1216 1.377 . S
C1217 C1218 1.379 . S
C1218 H1202 0.931 . S
C1218 C1212 1.383 . S
C1218 C1217 1.379 . S
H1219 C1213 0.959 . S
H1220 C1213 0.961 . S
H1221 C1213 0.960 . S
H1222 C1214 0.930 . S
H1223 C1215 0.929 . S
H1224 C1232 0.929 . S
H1225 C1234 0.930 . S
H1226 C1236 0.930 . S
H1227 C1239 0.929 . S
H1228 C1242 0.930 . S
H1229 C1244 0.960 . S
H1230 C1244 0.960 . S
H1231 C1244 0.960 . S
C1232 H1224 0.929 . S
C1232 C1233 1.377 . S
C1232 C1234 1.384 . S
C1233 C1232 1.377 . S
C1233 C1239 1.390 . S
C1234 H1225 0.930 . S
C1234 C1232 1.384 . S
C1234 C1235 1.372 . S
C1235 C1234 1.372 . S
C1235 C1236 1.400 . S
C1235 C1240 1.490 . S
C1236 H1226 0.930 . S
C1236 C1235 1.400 . S
C1236 C1239 1.386 . S
H1237 C1253 0.930 . S
H1238 C1254 0.931 . S
C1239 H1227 0.929 . S
C1239 C1233 1.390 . S
C1239 C1236 1.386 . S
C1240 C1235 1.490 . S
C1240 C1242 1.395 1_565 S
C1240 C1243 1.403 . S
H1241 C1247 0.930 . S
C1242 H1228 0.930 . S
C1242 C1240 1.395 1_545 S
C1242 C1245 1.403 . S
C1243 C1240 1.403 . S
C1243 C1244 1.524 . S
C1243 C1247 1.400 . S
C1244 H1229 0.960 . S
C1244 H1230 0.960 . S
C1244 H1231 0.960 . S
C1244 C1243 1.524 . S
C1245 C1242 1.403 . S
C1245 C1246 1.392 . S
C1245 C1249 1.495 . S
C1246 C1245 1.392 . S
C1246 C1247 1.385 1_545 S
C1246 C1248 1.478 . S
C1247 H1241 0.930 . S
C1247 C1243 1.400 . S
C1247 C1246 1.385 1_565 S
C1248 C1246 1.478 . S
C1248 C1250 1.381 . S
C1248 C1254 1.383 . S
C1249 C1245 1.495 . S
C1249 H1255 0.959 . S
C1249 H1256 0.961 . S
C1249 H1257 0.960 . S
C1250 C1248 1.381 . S
C1250 C1251 1.394 . S
C1250 H1258 0.930 . S
C1251 C1250 1.394 . S
C1251 C1252 1.383 . S
C1251 H1259 0.929 . S
C1252 C1251 1.383 . S
C1252 C1253 1.377 . S
C1253 H1237 0.930 . S
C1253 C1252 1.377 . S
C1253 C1254 1.379 . S
C1254 H1238 0.931 . S
C1254 C1248 1.383 . S
C1254 C1253 1.379 . S
H1255 C1249 0.959 . S
H1256 C1249 0.961 . S
H1257 C1249 0.960 . S
H1258 C1250 0.930 . S
H1259 C1251 0.929 . S
H1260 C1268 0.929 . S
H1261 C1270 0.930 . S
H1262 C1272 0.930 . S
H1263 C1275 0.929 . S
H1264 C1278 0.930 . S
H1265 C1280 0.960 . S
H1266 C1280 0.960 . S
H1267 C1280 0.960 . S
C1268 H1260 0.929 . S
C1268 C1269 1.377 . S
C1268 C1270 1.384 . S
C1269 C1268 1.377 . S
C1269 C1275 1.390 . S
C1270 H1261 0.930 . S
C1270 C1268 1.384 . S
C1270 C1271 1.372 . S
C1271 C1270 1.372 . S
C1271 C1272 1.400 . S
C1271 C1276 1.490 . S
C1272 H1262 0.930 . S
C1272 C1271 1.400 . S
C1272 C1275 1.386 . S
H1273 C1289 0.930 . S
H1274 C1290 0.931 . S
C1275 H1263 0.929 . S
C1275 C1269 1.390 . S
C1275 C1272 1.386 . S
C1276 C1271 1.490 . S
C1276 C1278 1.395 . S
C1276 C1279 1.403 1_545 S
H1277 C1283 0.930 . S
C1278 H1264 0.930 . S
C1278 C1276 1.395 . S
C1278 C1281 1.403 1_455 S
C1279 C1276 1.403 1_565 S
C1279 C1280 1.524 . S
C1279 C1283 1.400 1_455 S
C1280 H1265 0.960 . S
C1280 H1266 0.960 . S
C1280 H1267 0.960 . S
C1280 C1279 1.524 . S
C1281 C1278 1.403 1_655 S
C1281 C1282 1.392 1_545 S
C1281 C1285 1.495 . S
C1282 C1281 1.392 1_565 S
C1282 C1283 1.385 . S
C1282 C1284 1.478 . S
C1283 H1277 0.930 . S
C1283 C1279 1.400 1_655 S
C1283 C1282 1.385 . S
C1284 C1282 1.478 . S
C1284 C1286 1.381 . S
C1284 C1290 1.383 . S
C1285 C1281 1.495 . S
C1285 H1291 0.959 . S
C1285 H1292 0.961 . S
C1285 H1293 0.960 . S
C1286 C1284 1.381 . S
C1286 C1287 1.394 . S
C1286 H1294 0.930 . S
C1287 C1286 1.394 . S
C1287 C1288 1.383 . S
C1287 H1295 0.929 . S
C1288 C1287 1.383 . S
C1288 C1289 1.377 . S
C1289 H1273 0.930 . S
C1289 C1288 1.377 . S
C1289 C1290 1.379 . S
C1290 H1274 0.931 . S
C1290 C1284 1.383 . S
C1290 C1289 1.379 . S
H1291 C1285 0.959 . S
H1292 C1285 0.961 . S
H1293 C1285 0.960 . S
H1294 C1286 0.930 . S
H1295 C1287 0.929 . S
H1296 C1304 0.929 . S
H1297 C1306 0.930 . S
H1298 C1308 0.930 . S
H1299 C1311 0.929 . S
H1300 C1314 0.930 . S
H1301 C1316 0.960 . S
H1302 C1316 0.960 . S
H1303 C1316 0.960 . S
C1304 H1296 0.929 . S
C1304 C1305 1.377 . S
C1304 C1306 1.384 . S
C1305 C1304 1.377 . S
C1305 C1311 1.390 . S
C1306 H1297 0.930 . S
C1306 C1304 1.384 . S
C1306 C1307 1.372 . S
C1307 C1306 1.372 . S
C1307 C1308 1.400 . S
C1307 C1312 1.490 . S
C1308 H1298 0.930 . S
C1308 C1307 1.400 . S
C1308 C1311 1.386 . S
H1309 C1325 0.930 . S
H1310 C1326 0.931 . S
C1311 H1299 0.929 . S
C1311 C1305 1.390 . S
C1311 C1308 1.386 . S
C1312 C1307 1.490 . S
C1312 C1314 1.395 1_455 S
C1312 C1315 1.403 . S
H1313 C1319 0.930 . S
C1314 H1300 0.930 . S
C1314 C1312 1.395 1_655 S
C1314 C1317 1.403 1_545 S
C1315 C1312 1.403 . S
C1315 C1316 1.524 . S
C1315 C1319 1.400 1_545 S
C1316 H1301 0.960 . S
C1316 H1302 0.960 . S
C1316 H1303 0.960 . S
C1316 C1315 1.524 . S
C1317 C1314 1.403 1_565 S
C1317 C1318 1.392 . S
C1317 C1321 1.495 . S
C1318 C1317 1.392 . S
C1318 C1319 1.385 1_655 S
C1318 C1320 1.478 . S
C1319 H1313 0.930 . S
C1319 C1315 1.400 1_565 S
C1319 C1318 1.385 1_455 S
C1320 C1318 1.478 . S
C1320 C1322 1.381 . S
C1320 C1326 1.383 . S
C1321 C1317 1.495 . S
C1321 H1327 0.959 . S
C1321 H1328 0.961 . S
C1321 H1329 0.960 . S
C1322 C1320 1.381 . S
C1322 C1323 1.394 . S
C1322 H1330 0.930 . S
C1323 C1322 1.394 . S
C1323 C1324 1.383 . S
C1323 H1331 0.929 . S
C1324 C1323 1.383 . S
C1324 C1325 1.377 . S
C1325 H1309 0.930 . S
C1325 C1324 1.377 . S
C1325 C1326 1.379 . S
C1326 H1310 0.931 . S
C1326 C1320 1.383 . S
C1326 C1325 1.379 . S
H1327 C1321 0.959 . S
H1328 C1321 0.961 . S
H1329 C1321 0.960 . S
H1330 C1322 0.930 . S
H1331 C1323 0.929 . S
H1332 C1340 0.929 . S
H1333 C1342 0.930 1_455 S
H1334 C1344 0.930 . S
H1335 C1347 0.929 . S
H1336 C1350 0.930 . S
H1337 C1352 0.960 . S
H1338 C1352 0.960 . S
H1339 C1352 0.960 . S
C1340 H1332 0.929 . S
C1340 C1341 1.377 . S
C1340 C1342 1.384 . S
C1341 C1340 1.377 . S
C1341 C1347 1.390 . S
C1342 H1333 0.930 1_655 S
C1342 C1340 1.384 . S
C1342 C1343 1.372 . S
C1343 C1342 1.372 . S
C1343 C1344 1.400 . S
C1343 C1348 1.490 . S
C1344 H1334 0.930 . S
C1344 C1343 1.400 . S
C1344 C1347 1.386 . S
H1345 C1361 0.930 . S
H1346 C1362 0.931 . S
C1347 H1335 0.929 . S
C1347 C1341 1.390 . S
C1347 C1344 1.386 . S
C1348 C1343 1.490 . S
C1348 C1350 1.395 1_655 S
C1348 C1351 1.403 1_545 S
H1349 C1355 0.930 . S
C1350 H1336 0.930 . S
C1350 C1348 1.395 1_455 S
C1350 C1353 1.403 . S
C1351 C1348 1.403 1_565 S
C1351 C1352 1.524 . S
C1351 C1355 1.400 . S
C1352 H1337 0.960 . S
C1352 H1338 0.960 . S
C1352 H1339 0.960 . S
C1352 C1351 1.524 . S
C1353 C1350 1.403 . S
C1353 C1354 1.392 1_545 S
C1353 C1357 1.495 . S
C1354 C1353 1.392 1_565 S
C1354 C1355 1.385 1_455 S
C1354 C1356 1.478 . S
C1355 H1349 0.930 . S
C1355 C1351 1.400 . S
C1355 C1354 1.385 1_655 S
C1356 C1354 1.478 . S
C1356 C1358 1.381 . S
C1356 C1362 1.383 . S
C1357 C1353 1.495 . S
C1357 H1363 0.959 . S
C1357 H1364 0.961 . S
C1357 H1365 0.960 . S
C1358 C1356 1.381 . S
C1358 C1359 1.394 . S
C1358 H1366 0.930 . S
C1359 C1358 1.394 . S
C1359 C1360 1.383 . S
C1359 H1367 0.929 . S
C1360 C1359 1.383 . S
C1360 C1361 1.377 . S
C1361 H1345 0.930 . S
C1361 C1360 1.377 . S
C1361 C1362 1.379 . S
C1362 H1346 0.931 . S
C1362 C1356 1.383 . S
C1362 C1361 1.379 . S
H1363 C1357 0.959 . S
H1364 C1357 0.961 . S
H1365 C1357 0.960 . S
H1366 C1358 0.930 . S
H1367 C1359 0.929 . S
H1368 C1376 0.929 . S
H1369 C1378 0.930 . S
H1370 C1380 0.930 1_455 S
H1371 C1383 0.929 . S
H1372 C1386 0.930 . S
H1373 C1388 0.960 . S
H1374 C1388 0.960 . S
H1375 C1388 0.960 . S
C1376 H1368 0.929 . S
C1376 C1377 1.377 . S
C1376 C1378 1.384 . S
C1377 C1376 1.377 . S
C1377 C1383 1.390 . S
C1378 H1369 0.930 . S
C1378 C1376 1.384 . S
C1378 C1379 1.372 . S
C1379 C1378 1.372 . S
C1379 C1380 1.400 . S
C1379 C1384 1.490 . S
C1380 H1370 0.930 1_655 S
C1380 C1379 1.400 . S
C1380 C1383 1.386 . S
H1381 C1397 0.930 . S
H1382 C1398 0.931 . S
C1383 H1371 0.929 . S
C1383 C1377 1.390 . S
C1383 C1380 1.386 . S
C1384 C1379 1.490 . S
C1384 C1386 1.395 . S
C1384 C1387 1.403 . S
H1385 C1391 0.930 . S
C1386 H1372 0.930 . S
C1386 C1384 1.395 . S
C1386 C1389 1.403 1_665 S
C1387 C1384 1.403 . S
C1387 C1388 1.524 . S
C1387 C1391 1.400 1_665 S
C1388 H1373 0.960 . S
C1388 H1374 0.960 . S
C1388 H1375 0.960 . S
C1388 C1387 1.524 . S
C1389 C1386 1.403 1_445 S
C1389 C1390 1.392 . S
C1389 C1393 1.495 . S
C1390 C1389 1.392 . S
C1390 C1391 1.385 . S
C1390 C1392 1.478 . S
C1391 H1385 0.930 . S
C1391 C1387 1.400 1_445 S
C1391 C1390 1.385 . S
C1392 C1390 1.478 . S
C1392 C1394 1.381 . S
C1392 C1398 1.383 . S
C1393 C1389 1.495 . S
C1393 H1399 0.959 . S
C1393 H1400 0.961 . S
C1393 H1401 0.960 . S
C1394 C1392 1.381 . S
C1394 C1395 1.394 . S
C1394 H1402 0.930 1_455 S
C1395 C1394 1.394 . S
C1395 C1396 1.383 . S
C1395 H1403 0.929 . S
C1396 C1395 1.383 . S
C1396 C1397 1.377 . S
C1397 H1381 0.930 . S
C1397 C1396 1.377 . S
C1397 C1398 1.379 . S
C1398 H1382 0.931 . S
C1398 C1392 1.383 . S
C1398 C1397 1.379 . S
H1399 C1393 0.959 . S
H1400 C1393 0.961 . S
H1401 C1393 0.960 . S
H1402 C1394 0.930 1_655 S
H1403 C1395 0.929 . S
H1404 C1412 0.929 . S
H1405 C1414 0.930 . S
H1406 C1416 0.930 1_565 S
H1407 C1419 0.929 . S
H1408 C1422 0.930 . S
H1409 C1424 0.960 . S
H1410 C1424 0.960 . S
H1411 C1424 0.960 . S
C1412 H1404 0.929 . S
C1412 C1413 1.377 . S
C1412 C1414 1.384 . S
C1413 C1412 1.377 . S
C1413 C1419 1.390 . S
C1414 H1405 0.930 . S
C1414 C1412 1.384 . S
C1414 C1415 1.372 . S
C1415 C1414 1.372 . S
C1415 C1416 1.400 . S
C1415 C1420 1.490 . S
C1416 H1406 0.930 1_545 S
C1416 C1415 1.400 . S
C1416 C1419 1.386 . S
H1417 C1433 0.930 . S
H1418 C1434 0.931 . S
C1419 H1407 0.929 . S
C1419 C1413 1.390 . S
C1419 C1416 1.386 . S
C1420 C1415 1.490 . S
C1420 C1422 1.395 1_655 S
C1420 C1423 1.403 1_545 S
H1421 C1427 0.930 . S
C1422 H1408 0.930 . S
C1422 C1420 1.395 1_455 S
C1422 C1425 1.403 . S
C1423 C1420 1.403 1_565 S
C1423 C1424 1.524 . S
C1423 C1427 1.400 . S
C1424 H1409 0.960 . S
C1424 H1410 0.960 . S
C1424 H1411 0.960 . S
C1424 C1423 1.524 . S
C1425 C1422 1.403 . S
C1425 C1426 1.392 1_545 S
C1425 C1429 1.495 . S
C1426 C1425 1.392 1_565 S
C1426 C1427 1.385 1_455 S
C1426 C1428 1.478 . S
C1427 H1421 0.930 . S
C1427 C1423 1.400 . S
C1427 C1426 1.385 1_655 S
C1428 C1426 1.478 . S
C1428 C1430 1.381 . S
C1428 C1434 1.383 . S
C1429 C1425 1.495 . S
C1429 H1435 0.959 . S
C1429 H1436 0.961 . S
C1429 H1437 0.960 . S
C1430 C1428 1.381 . S
C1430 C1431 1.394 . S
C1430 H1438 0.930 1_565 S
C1431 C1430 1.394 . S
C1431 C1432 1.383 . S
C1431 H1439 0.929 . S
C1432 C1431 1.383 . S
C1432 C1433 1.377 . S
C1433 H1417 0.930 . S
C1433 C1432 1.377 . S
C1433 C1434 1.379 . S
C1434 H1418 0.931 . S
C1434 C1428 1.383 . S
C1434 C1433 1.379 . S
H1435 C1429 0.959 . S
H1436 C1429 0.961 . S
H1437 C1429 0.960 . S
H1438 C1430 0.930 1_545 S
H1439 C1431 0.929 . S
H1440 C1448 0.929 . S
H1441 C1450 0.930 . S
H1442 C1452 0.930 . S
H1443 C1455 0.929 . S
H1444 C1458 0.930 . S
H1445 C1460 0.960 . S
H1446 C1460 0.960 . S
H1447 C1460 0.960 . S
C1448 H1440 0.929 . S
C1448 C1449 1.377 . S
C1448 C1450 1.384 . S
C1449 C1448 1.377 . S
C1449 C1455 1.390 . S
C1450 H1441 0.930 . S
C1450 C1448 1.384 . S
C1450 C1451 1.372 . S
C1451 C1450 1.372 . S
C1451 C1452 1.400 . S
C1451 C1456 1.490 . S
C1452 H1442 0.930 . S
C1452 C1451 1.400 . S
C1452 C1455 1.386 . S
H1453 C1469 0.930 . S
H1454 C1470 0.931 . S
C1455 H1443 0.929 . S
C1455 C1449 1.390 . S
C1455 C1452 1.386 . S
C1456 C1451 1.490 . S
C1456 C1458 1.395 1_545 S
C1456 C1459 1.403 . S
H1457 C1463 0.930 . S
C1458 H1444 0.930 . S
C1458 C1456 1.395 1_565 S
C1458 C1461 1.403 1_455 S
C1459 C1456 1.403 . S
C1459 C1460 1.524 . S
C1459 C1463 1.400 1_455 S
C1460 H1445 0.960 . S
C1460 H1446 0.960 . S
C1460 H1447 0.960 . S
C1460 C1459 1.524 . S
C1461 C1458 1.403 1_655 S
C1461 C1462 1.392 . S
C1461 C1465 1.495 . S
C1462 C1461 1.392 . S
C1462 C1463 1.385 1_565 S
C1462 C1464 1.478 . S
C1463 H1457 0.930 . S
C1463 C1459 1.400 1_655 S
C1463 C1462 1.385 1_545 S
C1464 C1462 1.478 . S
C1464 C1466 1.381 . S
C1464 C1470 1.383 . S
C1465 C1461 1.495 . S
C1465 H1471 0.959 . S
C1465 H1472 0.961 . S
C1465 H1473 0.960 . S
C1466 C1464 1.381 . S
C1466 C1467 1.394 . S
C1466 H1474 0.930 . S
C1467 C1466 1.394 . S
C1467 C1468 1.383 . S
C1467 H1475 0.929 . S
C1468 C1467 1.383 . S
C1468 C1469 1.377 . S
C1469 H1453 0.930 . S
C1469 C1468 1.377 . S
C1469 C1470 1.379 . S
C1470 H1454 0.931 . S
C1470 C1464 1.383 . S
C1470 C1469 1.379 . S
H1471 C1465 0.959 . S
H1472 C1465 0.961 . S
H1473 C1465 0.960 . S
H1474 C1466 0.930 . S
H1475 C1467 0.929 . S
C405 N13 1.577 . S
C424 N244 1.604 . S
C441 N46 1.582 . S
C460 N277 1.579 . S
C477 N79 1.586 . S
C496 N310 1.565 . S
C513 N343 1.586 . S
C532 N112 1.568 . S
C549 N376 1.582 . S
C568 N145 1.578 . S
C585 N178 1.578 . S
C604 N211 1.604 . S
C621 C106 1.668 . S
C640 C7 1.660 . S
C657 C40 1.667 . S
C676 C139 1.668 . S
C693 C172 1.668 . S
C712 C73 1.662 . S
C729 C304 1.666 . S
C748 C205 1.660 . S
C765 C337 1.668 . S
C784 C238 1.669 . S
C801 C271 1.668 . S
C820 C370 1.663 . S
C837 N266 1.519 . S
C856 N2 1.496 . S
C873 N35 1.513 . S
C892 N299 1.536 . S
C909 N68 1.509 . S
C928 N332 1.518 . S
C945 N101 1.517 . S
C964 N365 1.536 . S
C981 N134 1.510 . S
C1000 N200 1.495 . S
C1017 N233 1.509 . S
C1036 N167 1.504 . S
C1053 C120 1.227 . S
C1072 C21 1.217 . S
C1089 C54 1.225 . S
C1108 C153 1.222 . S
C1125 C186 1.227 . S
C1144 C87 1.219 . S
C1161 C219 1.224 . S
C1180 C318 1.224 . S
C1197 C252 1.225 . S
C1216 C351 1.225 . S
C1233 C384 1.227 . S
C1252 C285 1.220 . S
C1269 C18 0.977 . S
C1288 C117 0.982 . S
C1305 C51 0.978 . S
C1324 C150 0.981 . S
C1341 C84 0.976 . S
C1360 C183 0.969 . S
C1377 C216 0.975 . S
C1396 C315 0.973 . S
C1413 C348 0.976 . S
C1432 C249 0.981 . S
C1449 C282 0.978 . S
C1468 C381 0.982 . S
