# Generated by pormake.
# Topology swi, (7)-cn, num edge types: 1
# Building blocks:
#     Node 0, Type 0, BuildingBlock: HICVOG_clean_sbu_0, # of connection points: 7
#     Node 1, Type 0, BuildingBlock: HICVOG_clean_sbu_0, # of connection points: 7
#     Node 2, Type 0, BuildingBlock: HICVOG_clean_sbu_0, # of connection points: 7
#     Node 3, Type 0, BuildingBlock: HICVOG_clean_sbu_0, # of connection points: 7
#     Node 4, Type 0, BuildingBlock: HICVOG_clean_sbu_0, # of connection points: 7
#     Node 5, Type 0, BuildingBlock: HICVOG_clean_sbu_0, # of connection points: 7
#     Node 6, Type 0, BuildingBlock: HICVOG_clean_sbu_0, # of connection points: 7
#     Node 7, Type 0, BuildingBlock: HICVOG_clean_sbu_0, # of connection points: 7
#     Node 8, Type 0, BuildingBlock: HICVOG_clean_sbu_0, # of connection points: 7
#     Node 9, Type 0, BuildingBlock: HICVOG_clean_sbu_0, # of connection points: 7
#     Node 10, Type 0, BuildingBlock: HICVOG_clean_sbu_0, # of connection points: 7
#     Node 11, Type 0, BuildingBlock: HICVOG_clean_sbu_0, # of connection points: 7
#     Edge 12, Type (0, 0), BuildingBlock: KIFKEQ_clean_linker_1, # of connection points: 2
#     Edge 13, Type (0, 0), BuildingBlock: KIFKEQ_clean_linker_1, # of connection points: 2
#     Edge 14, Type (0, 0), BuildingBlock: KIFKEQ_clean_linker_1, # of connection points: 2
#     Edge 15, Type (0, 0), BuildingBlock: KIFKEQ_clean_linker_1, # of connection points: 2
#     Edge 16, Type (0, 0), BuildingBlock: KIFKEQ_clean_linker_1, # of connection points: 2
#     Edge 17, Type (0, 0), BuildingBlock: KIFKEQ_clean_linker_1, # of connection points: 2
#     Edge 18, Type (0, 0), BuildingBlock: KIFKEQ_clean_linker_1, # of connection points: 2
#     Edge 19, Type (0, 0), BuildingBlock: KIFKEQ_clean_linker_1, # of connection points: 2
#     Edge 20, Type (0, 0), BuildingBlock: KIFKEQ_clean_linker_1, # of connection points: 2
#     Edge 21, Type (0, 0), BuildingBlock: KIFKEQ_clean_linker_1, # of connection points: 2
#     Edge 22, Type (0, 0), BuildingBlock: KIFKEQ_clean_linker_1, # of connection points: 2
#     Edge 23, Type (0, 0), BuildingBlock: KIFKEQ_clean_linker_1, # of connection points: 2
#     Edge 24, Type (0, 0), BuildingBlock: KIFKEQ_clean_linker_1, # of connection points: 2
#     Edge 25, Type (0, 0), BuildingBlock: KIFKEQ_clean_linker_1, # of connection points: 2
#     Edge 26, Type (0, 0), BuildingBlock: KIFKEQ_clean_linker_1, # of connection points: 2
#     Edge 27, Type (0, 0), BuildingBlock: KIFKEQ_clean_linker_1, # of connection points: 2
#     Edge 28, Type (0, 0), BuildingBlock: KIFKEQ_clean_linker_1, # of connection points: 2
#     Edge 29, Type (0, 0), BuildingBlock: KIFKEQ_clean_linker_1, # of connection points: 2
#     Edge 30, Type (0, 0), BuildingBlock: KIFKEQ_clean_linker_1, # of connection points: 2
#     Edge 31, Type (0, 0), BuildingBlock: KIFKEQ_clean_linker_1, # of connection points: 2
#     Edge 32, Type (0, 0), BuildingBlock: KIFKEQ_clean_linker_1, # of connection points: 2
#     Edge 33, Type (0, 0), BuildingBlock: KIFKEQ_clean_linker_1, # of connection points: 2
#     Edge 34, Type (0, 0), BuildingBlock: KIFKEQ_clean_linker_1, # of connection points: 2
#     Edge 35, Type (0, 0), BuildingBlock: KIFKEQ_clean_linker_1, # of connection points: 2
#     Edge 36, Type (0, 0), BuildingBlock: KIFKEQ_clean_linker_1, # of connection points: 2
#     Edge 37, Type (0, 0), BuildingBlock: KIFKEQ_clean_linker_1, # of connection points: 2
#     Edge 38, Type (0, 0), BuildingBlock: KIFKEQ_clean_linker_1, # of connection points: 2
#     Edge 39, Type (0, 0), BuildingBlock: KIFKEQ_clean_linker_1, # of connection points: 2
#     Edge 40, Type (0, 0), BuildingBlock: KIFKEQ_clean_linker_1, # of connection points: 2
#     Edge 41, Type (0, 0), BuildingBlock: KIFKEQ_clean_linker_1, # of connection points: 2
#     Edge 42, Type (0, 0), BuildingBlock: KIFKEQ_clean_linker_1, # of connection points: 2
#     Edge 43, Type (0, 0), BuildingBlock: KIFKEQ_clean_linker_1, # of connection points: 2
#     Edge 44, Type (0, 0), BuildingBlock: KIFKEQ_clean_linker_1, # of connection points: 2
#     Edge 45, Type (0, 0), BuildingBlock: KIFKEQ_clean_linker_1, # of connection points: 2
#     Edge 46, Type (0, 0), BuildingBlock: KIFKEQ_clean_linker_1, # of connection points: 2
#     Edge 47, Type (0, 0), BuildingBlock: KIFKEQ_clean_linker_1, # of connection points: 2
#     Edge 48, Type (0, 0), BuildingBlock: KIFKEQ_clean_linker_1, # of connection points: 2
#     Edge 49, Type (0, 0), BuildingBlock: KIFKEQ_clean_linker_1, # of connection points: 2
#     Edge 50, Type (0, 0), BuildingBlock: KIFKEQ_clean_linker_1, # of connection points: 2
#     Edge 51, Type (0, 0), BuildingBlock: KIFKEQ_clean_linker_1, # of connection points: 2
#     Edge 52, Type (0, 0), BuildingBlock: KIFKEQ_clean_linker_1, # of connection points: 2
#     Edge 53, Type (0, 0), BuildingBlock: KIFKEQ_clean_linker_1, # of connection points: 2
# Relax obj value: 0.315
# Max RMSD: 0.249
# Mean RMSD: 0.249
data_MOF--net-swi--node1-HICVOG_clean_sbu_0--edge1-KIFKEQ_clean_linker_1
_symmetry_space_group_name_H-M    P1
_symmetry_Int_Tables_number       1
_symmetry_cell_setting            triclinic
loop_
_symmetry_equiv_pos_as_xyz
'x, y, z'
_cell_length_a     40.977074
_cell_length_b     40.906003
_cell_length_c     39.387883
_cell_angle_alpha  89.960571
_cell_angle_beta   90.002384
_cell_angle_gamma 120.02337
loop_
_atom_site_label
_atom_site_type_symbol
_atom_site_fract_x
_atom_site_fract_y
_atom_site_fract_z
_atom_type_partial_charge
Zn0 Zn 0.42695 0.11924 0.97783 0.0
C1 C 0.49872 0.13448 0.05623 0.0
N2 N 0.50461 0.10973 0.03906 0.0
C3 C 0.48048 0.10011 1.01298 0.0
N4 N 0.46093 0.11894 1.0135 0.0
N5 N 0.47232 0.14003 0.04143 0.0
C6 C 0.48656 0.24345 0.08963 0.0
O7 O 0.45074 0.23358 0.09086 0.0
O8 O 0.38413 0.06527 0.97196 0.0
Zn9 Zn 0.45321 0.16839 0.06502 0.0
N10 N 0.4543 0.13797 0.93496 0.0
C11 C 0.51086 0.15932 0.90323 0.0
C12 C 0.49079 0.14628 0.93342 0.0
C13 C 0.43784 0.14485 0.90781 0.0
N14 N 0.49435 0.16554 0.87609 0.0
C15 C 0.45848 0.15929 0.87749 0.0
O16 O 0.41897 0.17894 0.03732 0.0
C17 C 0.40195 0.17372 1.00922 0.0
O18 O 0.40374 0.15284 0.98617 0.0
H19 H 0.50453 0.14366 0.95563 0.0
H20 H 0.40921 0.13942 0.90995 0.0
C21 C 0.43298 0.16005 0.13609 0.0
C22 C 0.41103 0.14124 0.1648 0.0
C23 C 0.37926 0.08501 0.13198 0.0
C24 C 0.40018 0.1043 0.10341 0.0
N25 N 0.42647 0.14146 0.10593 0.0
N26 N 0.3849 0.1039 0.16174 0.0
H27 H 0.45504 0.18911 0.13761 0.0
C28 C 0.35564 0.05357 0.9914 0.0
O29 O 0.35502 0.07697 1.01389 0.0
O30 O 0.49553 0.21961 0.07909 0.0
H31 H 0.3954 0.08991 0.07932 0.0
H32 H 0.53972 0.16538 0.9016 0.0
H33 H 0.35824 0.05539 0.13039 0.0
Zn34 Zn 0.29077 0.45285 0.06032 0.0
C35 C 0.38401 0.47836 1.00523 0.0
N36 N 0.39999 0.50275 0.03096 0.0
C37 C 0.37036 0.49742 0.04945 0.0
N38 N 0.3376 0.47093 0.03576 0.0
N39 N 0.34578 0.45926 1.0072 0.0
C40 C 0.30715 0.35692 0.98652 0.0
O41 O 0.28669 0.3585 1.01147 0.0
O42 O 0.28361 0.49624 0.0726 0.0
Zn43 Zn 0.31016 0.42636 0.97208 0.0
N44 N 0.29198 0.42899 0.10245 0.0
C45 C 0.30996 0.39056 0.1332 0.0
C46 C 0.30937 0.40817 0.10312 0.0
C47 C 0.27504 0.43298 0.13069 0.0
N48 N 0.29291 0.3943 0.16131 0.0
C49 C 0.27512 0.41494 0.16124 0.0
O50 O 0.25397 0.40365 0.98245 0.0
C51 C 0.23203 0.40084 1.00659 0.0
O52 O 0.2444 0.41725 0.03489 0.0
H53 H 0.3226 0.40531 0.08042 0.0
H54 H 0.2621 0.45032 0.12904 0.0
C55 C 0.29524 0.43866 0.90242 0.0
C56 C 0.30097 0.46038 0.87286 0.0
C57 C 0.35147 0.51311 0.90022 0.0
C58 C 0.34487 0.49191 0.92969 0.0
N59 N 0.31794 0.4548 0.93 0.0
N60 N 0.32945 0.49694 0.87262 0.0
H61 H 0.27291 0.40948 0.90364 0.0
C62 C 0.27502 0.51142 0.04879 0.0
O63 O 0.27305 0.49917 1.0176 0.0
O64 O 0.32063 0.38339 0.96467 0.0
H65 H 0.36059 0.50523 0.95233 0.0
H66 H 0.32374 0.3739 0.13422 0.0
H67 H 0.37333 0.54249 0.89954 0.0
Zn68 Zn 0.8849 0.30892 0.97917 0.0
C69 C 0.86119 0.36257 0.05421 0.0
N70 N 0.88657 0.39401 0.03833 0.0
C71 C 0.90058 0.38107 1.01443 0.0
N72 N 0.88368 0.3427 1.01485 0.0
N73 N 0.86003 0.3317 0.04105 0.0
C74 C 0.75672 0.23877 0.08725 0.0
O75 O 0.76595 0.2123 0.08624 0.0
O76 O 0.9391 0.32154 0.97224 0.0
Zn77 Zn 0.83371 0.28433 0.06588 0.0
N78 N 0.86462 0.31605 0.93642 0.0
C79 C 0.84263 0.35081 0.90469 0.0
C80 C 0.85637 0.34431 0.93472 0.0
C81 C 0.85712 0.29216 0.90955 0.0
N82 N 0.83588 0.3276 0.87783 0.0
C83 C 0.84216 0.29796 0.87934 0.0
O84 O 0.8267 0.23997 0.03946 0.0
C85 C 0.83333 0.22889 1.01157 0.0
O86 O 0.8535 0.25206 0.98847 0.0
H87 H 0.85968 0.36127 0.95664 0.0
H88 H 0.86263 0.26898 0.91173 0.0
C89 C 0.83988 0.2711 0.13699 0.0
C90 C 0.85865 0.27287 0.16757 0.0
C91 C 0.91719 0.30963 0.13901 0.0
C92 C 0.89828 0.30732 0.10889 0.0
N93 N 0.86004 0.28785 0.1083 0.0
N94 N 0.89707 0.29239 0.16741 0.0
H95 H 0.80964 0.2572 0.13597 0.0
C96 C 0.95722 0.32282 0.99888 0.0
O97 O 0.94002 0.31608 0.02832 0.0
O98 O 0.78124 0.27237 0.07923 0.0
H99 H 0.91389 0.32114 0.0862 0.0
H100 H 0.8366 0.37365 0.90297 0.0
H101 H 0.94766 0.32503 0.13984 0.0
Zn102 Zn 0.55378 0.83525 0.06227 0.0
C103 C 0.52351 0.90237 1.01184 0.0
N104 N 0.49793 0.8899 0.03692 0.0
C105 C 0.50417 0.86473 0.05302 0.0
N106 N 0.53258 0.86211 0.03872 0.0
N107 N 0.54427 0.88482 1.01181 0.0
C108 C 0.64819 0.95195 0.98984 0.0
O109 O 0.64848 0.92858 1.01258 0.0
O110 O 0.51344 0.78259 0.07566 0.0
Zn111 Zn 0.5782 0.88589 0.97549 0.0
N112 N 0.57853 0.86161 0.104 0.0
C113 C 0.62286 0.91792 0.13215 0.0
C114 C 0.60369 0.89918 0.10273 0.0
C115 C 0.57152 0.84202 0.13369 0.0
N116 N 0.61662 0.89816 0.16151 0.0
C117 C 0.59161 0.86039 0.16334 0.0
O118 O 0.60271 0.85358 0.9832 0.0
C119 C 0.60666 0.83404 1.00628 0.0
O120 O 0.59028 0.82802 0.0348 0.0
H121 H 0.6089 0.91433 0.079 0.0
H122 H 0.55044 0.81254 0.13409 0.0
C123 C 0.56706 0.85977 0.90554 0.0
C124 C 0.54631 0.8451 0.87528 0.0
C125 C 0.49402 0.84525 0.90103 0.0
C126 C 0.51421 0.85856 0.93113 0.0
N127 N 0.55068 0.86686 0.93265 0.0
N128 N 0.51044 0.83883 0.87395 0.0
H129 H 0.5957 0.86524 0.90763 0.0
C130 C 0.52295 0.75878 0.08505 0.0
O131 O 0.55889 0.76905 0.08574 0.0
O132 O 0.62017 0.94012 0.96982 0.0
H133 H 0.50054 0.86139 0.95327 0.0
H134 H 0.64297 0.94787 0.13157 0.0
H135 H 0.46516 0.83918 0.89944 0.0
Zn136 Zn 0.6935 0.57736 0.9748 0.0
C137 C 0.63207 0.50419 0.0506 0.0
N138 N 0.60267 0.49813 0.03138 0.0
C139 C 0.61878 0.52329 1.00617 0.0
N140 N 0.65692 0.54346 1.00907 0.0
N141 N 0.66476 0.53184 0.03784 0.0
C142 C 0.725 0.49062 0.05222 0.0
O143 O 0.72683 0.5025 1.02089 0.0
O144 O 0.6839 0.62067 0.96727 0.0
Zn145 Zn 0.71078 0.55009 0.06369 0.0
N146 N 0.68722 0.55008 0.93227 0.0
C147 C 0.65481 0.49252 0.90131 0.0
C148 C 0.66059 0.51289 0.93116 0.0
C149 C 0.71029 0.56717 0.90507 0.0
N150 N 0.6772 0.50963 0.8741 0.0
C151 C 0.70531 0.54634 0.87507 0.0
O152 O 0.75776 0.58604 0.03931 0.0
C153 C 0.77074 0.60302 1.0113 0.0
O154 O 0.74918 0.60046 0.9869 0.0
H155 H 0.64436 0.49887 0.95342 0.0
H156 H 0.73224 0.59646 0.90688 0.0
C157 C 0.72599 0.56981 0.13422 0.0
C158 C 0.72398 0.58607 0.16525 0.0
C159 C 0.6852 0.60636 0.13803 0.0
C160 C 0.68747 0.59032 0.1076 0.0
N161 N 0.70786 0.57252 0.10623 0.0
N162 N 0.70337 0.60388 0.16589 0.0
H163 H 0.74119 0.55468 0.13204 0.0
C164 C 0.68357 0.63765 0.99417 0.0
O165 O 0.68958 0.62613 1.02342 0.0
O166 O 0.71751 0.50667 0.07598 0.0
H167 H 0.67299 0.59186 0.08524 0.0
H168 H 0.63321 0.46307 0.9 0.0
H169 H 0.66907 0.62067 0.13958 0.0
Zn170 Zn 0.1652 0.71983 0.06592 0.0
C171 C 0.09764 0.62379 1.01418 0.0
N172 N 0.11111 0.61006 0.03787 0.0
C173 C 0.13696 0.64102 0.05399 0.0
N174 N 0.13866 0.67241 0.04124 0.0
N175 N 0.11524 0.66217 1.01497 0.0
C176 C 0.04887 0.69859 0.99484 0.0
O177 O 0.07112 0.71994 1.01931 0.0
O178 O 0.21661 0.73 0.07909 0.0
Zn179 Zn 0.11552 0.69671 0.97955 0.0
N180 N 0.13934 0.71696 0.10811 0.0
C181 C 0.0825 0.69386 0.13953 0.0
C182 C 0.10112 0.69674 0.10909 0.0
C183 C 0.15984 0.73474 0.13635 0.0
N184 N 0.10287 0.7114 0.16773 0.0
C185 C 0.14124 0.73208 0.16724 0.0
O186 O 0.14817 0.75364 0.98868 0.0
C187 C 0.16809 0.77662 1.01198 0.0
O188 O 0.17371 0.76522 0.04016 0.0
H189 H 0.08534 0.68282 0.08644 0.0
H190 H 0.19025 0.75007 0.13471 0.0
C191 C 0.14216 0.71243 0.90961 0.0
C192 C 0.15694 0.70642 0.87939 0.0
C193 C 0.15714 0.6541 0.90524 0.0
C194 C 0.14364 0.66085 0.93528 0.0
N195 N 0.13512 0.68893 0.93673 0.0
N196 N 0.16346 0.67693 0.87813 0.0
H197 H 0.1365 0.73552 0.91163 0.0
C198 C 0.24258 0.74492 0.05707 0.0
O199 O 0.23455 0.75216 0.02667 0.0
O200 O 0.06175 0.68482 0.97326 0.0
H201 H 0.14075 0.64426 0.95742 0.0
H202 H 0.05206 0.67773 0.1408 0.0
H203 H 0.16338 0.63138 0.9037 0.0
Zn204 Zn 0.83588 0.55558 0.48676 0.0
C205 C 0.90342 0.52579 0.53654 0.0
N206 N 0.88924 0.4986 0.51287 0.0
C207 C 0.86349 0.50423 0.49723 0.0
N208 N 0.86244 0.53411 0.51032 0.0
N209 N 0.88634 0.54701 0.53626 0.0
C210 C 0.95537 0.65503 0.58946 0.0
O211 O 0.93162 0.66312 0.60441 0.0
O212 O 0.78438 0.51463 0.4737 0.0
Zn213 Zn 0.88849 0.58242 0.57167 0.0
N214 N 0.86116 0.57943 0.44456 0.0
C215 C 0.91735 0.61813 0.41366 0.0
C216 C 0.8993 0.60086 0.44391 0.0
C217 C 0.84018 0.57448 0.41612 0.0
N218 N 0.89648 0.61341 0.38535 0.0
C219 C 0.85812 0.59211 0.38537 0.0
O220 O 0.85692 0.60783 0.56375 0.0
C221 C 0.83538 0.61002 0.54165 0.0
O222 O 0.82795 0.59202 0.51385 0.0
H223 H 0.91545 0.60443 0.46673 0.0
H224 H 0.80998 0.55666 0.41774 0.0
C225 C 0.86299 0.57251 0.64208 0.0
C226 C 0.84867 0.55206 0.67256 0.0
C227 C 0.84863 0.49942 0.64727 0.0
C228 C 0.86153 0.51927 0.61695 0.0
N229 N 0.8699 0.55583 0.61509 0.0
N230 N 0.84249 0.51618 0.67424 0.0
H231 H 0.86823 0.60111 0.63972 0.0
C232 C 0.75836 0.50347 0.49566 0.0
O233 O 0.76633 0.51845 0.52617 0.0
O234 O 0.943 0.62294 0.5755 0.0
H235 H 0.8639 0.50523 0.5949 0.0
H236 H 0.94774 0.63528 0.41266 0.0
H237 H 0.84256 0.47052 0.64911 0.0
Zn238 Zn 0.30883 0.88783 0.57565 0.0
C239 C 0.3611 0.86376 0.49996 0.0
N240 N 0.39247 0.88783 0.51669 0.0
C241 C 0.37968 0.90141 0.54108 0.0
N242 N 0.34157 0.88553 0.54014 0.0
N243 N 0.33042 0.86303 0.51318 0.0
C244 C 0.25391 0.75995 0.49623 0.0
O245 O 0.24662 0.76731 0.52687 0.0
O246 O 0.32416 0.94257 0.58053 0.0
Zn247 Zn 0.28278 0.83872 0.48877 0.0
N248 N 0.3154 0.86743 0.61864 0.0
C249 C 0.34811 0.84288 0.64997 0.0
C250 C 0.34209 0.85702 0.61996 0.0
C251 C 0.29233 0.86146 0.64585 0.0
N252 N 0.32578 0.83768 0.67717 0.0
C253 C 0.29751 0.84596 0.67603 0.0
O254 O 0.23855 0.83226 0.51523 0.0
C255 C 0.22845 0.83891 0.54366 0.0
O256 O 0.25234 0.85817 0.56655 0.0
H257 H 0.35807 0.85882 0.59774 0.0
H258 H 0.27015 0.86841 0.64392 0.0
C259 C 0.26801 0.84459 0.41857 0.0
C260 C 0.27222 0.86297 0.38713 0.0
C261 C 0.31349 0.92157 0.41414 0.0
C262 C 0.30951 0.90306 0.44487 0.0
N263 N 0.28693 0.86502 0.44649 0.0
N264 N 0.29499 0.90123 0.38622 0.0
H265 H 0.24993 0.81449 0.42131 0.0
C266 C 0.30423 0.95502 0.59381 0.0
O267 O 0.27156 0.93118 0.60748 0.0
O268 O 0.27009 0.78667 0.47503 0.0
H269 H 0.3244 0.91875 0.46726 0.0
H270 H 0.36978 0.83518 0.65139 0.0
H271 H 0.33136 0.95189 0.41237 0.0
Zn272 Zn 0.44796 0.28135 0.48849 0.0
C273 C 0.47743 0.37922 0.53804 0.0
N274 N 0.50287 0.39231 0.51285 0.0
C275 C 0.49679 0.36082 0.49701 0.0
N276 N 0.46862 0.32974 0.51159 0.0
N277 N 0.45689 0.34087 0.53835 0.0
C278 C 0.36322 0.31829 0.55535 0.0
O279 O 0.37211 0.30791 0.52692 0.0
O280 O 0.48873 0.26945 0.47579 0.0
Zn281 Zn 0.42336 0.30842 0.57502 0.0
N282 N 0.42423 0.28315 0.44604 0.0
C283 C 0.38698 0.30289 0.41555 0.0
C284 C 0.40424 0.30142 0.44555 0.0
C285 C 0.4282 0.26679 0.41734 0.0
N286 N 0.39044 0.28606 0.38715 0.0
C287 C 0.41054 0.26774 0.38693 0.0
O288 O 0.39769 0.2519 0.56685 0.0
C289 C 0.39407 0.22777 0.5446 0.0
O290 O 0.41122 0.23764 0.51633 0.0
H291 H 0.40203 0.31499 0.46822 0.0
H292 H 0.44554 0.25392 0.41812 0.0
C293 C 0.43585 0.29363 0.64461 0.0
C294 C 0.45743 0.29957 0.67427 0.0
C295 C 0.50985 0.35063 0.64706 0.0
C296 C 0.48878 0.34385 0.61753 0.0
N297 N 0.45189 0.31648 0.61707 0.0
N298 N 0.49378 0.32842 0.67461 0.0
H299 H 0.40682 0.27103 0.64333 0.0
C300 C 0.47972 0.2359 0.46759 0.0
O301 O 0.44398 0.20956 0.46795 0.0
O302 O 0.38194 0.32101 0.58197 0.0
H303 H 0.50206 0.35977 0.59498 0.0
H304 H 0.37095 0.31734 0.41481 0.0
H305 H 0.53907 0.3728 0.64784 0.0
Zn306 Zn 0.11676 0.42528 0.57031 0.0
C307 C 0.13589 0.49796 0.49186 0.0
N308 N 0.11075 0.50409 0.50804 0.0
C309 C 0.09893 0.47896 0.5335 0.0
N310 N 0.11679 0.45849 0.53366 0.0
N311 N 0.139 0.46989 0.50644 0.0
C312 C 0.24321 0.48097 0.46182 0.0
O313 O 0.23388 0.4452 0.46187 0.0
O314 O 0.0629 0.38338 0.57809 0.0
Zn315 Zn 0.16602 0.44897 0.48269 0.0
N316 N 0.13745 0.45405 0.61224 0.0
C317 C 0.1606 0.51189 0.64243 0.0
C318 C 0.14635 0.4908 0.61288 0.0
C319 C 0.14481 0.43821 0.6396 0.0
N320 N 0.16726 0.49599 0.66981 0.0
C321 C 0.16036 0.45981 0.66927 0.0
O322 O 0.17295 0.4117 0.50969 0.0
C323 C 0.16721 0.39568 0.53842 0.0
O324 O 0.14833 0.40032 0.56166 0.0
H325 H 0.14318 0.50393 0.59047 0.0
H326 H 0.13882 0.4093 0.63818 0.0
C327 C 0.16095 0.43066 0.41132 0.0
C328 C 0.14265 0.41287 0.38082 0.0
C329 C 0.08379 0.38773 0.40949 0.0
C330 C 0.10226 0.40496 0.43959 0.0
N331 N 0.14046 0.42582 0.44008 0.0
N332 N 0.10428 0.39193 0.38104 0.0
H333 H 0.19106 0.44863 0.41224 0.0
C334 C 0.0452 0.3656 0.55161 0.0
O335 O 0.06274 0.37538 0.52229 0.0
O336 O 0.21866 0.48981 0.47018 0.0
H337 H 0.08634 0.40192 0.46237 0.0
H338 H 0.16716 0.54099 0.64336 0.0
H339 H 0.05336 0.371 0.40873 0.0
Zn340 Zn 0.71261 0.16297 0.48887 0.0
C341 C 0.61861 0.09446 0.5428 0.0
N342 N 0.6031 0.10351 0.51713 0.0
C343 C 0.63304 0.12819 0.49914 0.0
N344 N 0.66553 0.13403 0.51306 0.0
N345 N 0.65687 0.11356 0.54131 0.0
C346 C 0.69533 0.04949 0.56114 0.0
O347 O 0.7157 0.07196 0.53634 0.0
O348 O 0.71985 0.21363 0.47674 0.0
Zn349 Zn 0.69202 0.11555 0.57662 0.0
N350 N 0.71173 0.13813 0.44669 0.0
C351 C 0.69454 0.08177 0.41615 0.0
C352 C 0.69485 0.09991 0.44616 0.0
C353 C 0.72842 0.15914 0.41839 0.0
N354 N 0.71135 0.10264 0.38798 0.0
C355 C 0.72862 0.14108 0.38789 0.0
O356 O 0.74828 0.14933 0.56683 0.0
C357 C 0.77055 0.1689 0.54302 0.0
O358 O 0.75862 0.17344 0.51468 0.0
H359 H 0.68183 0.08377 0.46891 0.0
H360 H 0.74097 0.18941 0.41996 0.0
C361 C 0.7067 0.14181 0.64659 0.0
C362 C 0.70076 0.15719 0.67645 0.0
C363 C 0.64978 0.15885 0.64955 0.0
C364 C 0.65658 0.14488 0.61982 0.0
N365 N 0.68388 0.13529 0.61911 0.0
N366 N 0.67194 0.16469 0.67703 0.0
H367 H 0.72929 0.13541 0.64508 0.0
C368 C 0.7282 0.23722 0.50065 0.0
O369 O 0.73021 0.22681 0.5318 0.0
O370 O 0.68169 0.06201 0.58323 0.0
H371 H 0.64072 0.14251 0.59729 0.0
H372 H 0.68118 0.05132 0.41524 0.0
H373 H 0.62764 0.16591 0.65053 0.0
Zn374 Zn 0.57759 0.69281 0.57242 0.0
C375 C 0.50304 0.63435 0.49629 0.0
N376 N 0.49732 0.60416 0.51416 0.0
C377 C 0.52243 0.61932 0.53944 0.0
N378 N 0.54238 0.6577 0.53786 0.0
N379 N 0.5304 0.66668 0.50992 0.0
C380 C 0.4904 0.72887 0.49733 0.0
O381 O 0.50231 0.73019 0.52856 0.0
O382 O 0.61899 0.67971 0.577 0.0
Zn383 Zn 0.54913 0.71379 0.48561 0.0
N384 N 0.55121 0.6857 0.61579 0.0
C385 C 0.49459 0.6514 0.64772 0.0
C386 C 0.51453 0.65791 0.61753 0.0
C387 C 0.56802 0.70931 0.64275 0.0
N388 N 0.51144 0.6743 0.67467 0.0
C389 C 0.5475 0.70361 0.67311 0.0
O390 O 0.58482 0.75962 0.51155 0.0
C391 C 0.60295 0.77178 0.53913 0.0
O392 O 0.60162 0.7494 0.56234 0.0
H393 H 0.50048 0.64142 0.59548 0.0
H394 H 0.59677 0.73229 0.64048 0.0
C395 C 0.56919 0.7298 0.41518 0.0
C396 C 0.58676 0.72915 0.38455 0.0
C397 C 0.61009 0.69329 0.41248 0.0
C398 C 0.59288 0.69435 0.44262 0.0
N399 N 0.57281 0.71251 0.44339 0.0
N400 N 0.60666 0.7106 0.38438 0.0
H401 H 0.5524 0.74334 0.41682 0.0
C402 C 0.65212 0.70075 0.58852 0.0
O403 O 0.6615 0.7343 0.60048 0.0
O404 O 0.50613 0.7213 0.47334 0.0
H405 H 0.59541 0.6808 0.46528 0.0
H406 H 0.46558 0.62888 0.64948 0.0
H407 H 0.62614 0.67888 0.41138 0.0
H408 H 0.2898 0.0222 0.02705 0.0
H409 H 0.35022 0.99495 0.9529 0.0
H410 H 0.2399 0.95644 0.02835 0.0
H411 H 0.30023 0.92868 0.95463 0.0
H412 H 0.19422 0.83228 0.05925 0.0
H413 H 0.23635 0.89942 0.05089 0.0
H414 H 0.23234 0.8824 0.94242 0.0
H415 H 0.18997 0.81439 0.95089 0.0
C416 C 0.2924 0.00222 1.01087 0.0
C417 C 0.32423 0.01386 0.99009 0.0
C418 C 0.26376 0.96444 1.01168 0.0
C419 C 0.26616 0.93719 0.9918 0.0
C420 C 0.29732 0.94899 0.97004 0.0
C421 C 0.32609 0.98694 0.96921 0.0
C422 C 0.20178 0.84282 0.03352 0.0
C423 C 0.18873 0.81794 1.00574 0.0
C424 C 0.22587 0.88144 0.02872 0.0
C425 C 0.23784 0.89637 0.99598 0.0
C426 C 0.22388 0.87172 0.96798 0.0
C427 C 0.19931 0.83287 0.9728 0.0
H428 H 0.27719 0.29375 1.02596 0.0
H429 H 0.35724 0.34986 0.94494 0.0
H430 H 0.29492 0.24526 0.02814 0.0
H431 H 0.3755 0.30133 0.94756 0.0
H432 H 0.37715 0.20437 0.05664 0.0
H433 H 0.35105 0.24539 0.04789 0.0
H434 H 0.35509 0.23303 0.93931 0.0
H435 H 0.38202 0.19188 0.94815 0.0
C436 C 0.29847 0.29566 1.00845 0.0
C437 C 0.31603 0.32592 0.98548 0.0
C438 C 0.3087 0.26785 1.00978 0.0
C439 C 0.33691 0.26957 0.98827 0.0
C440 C 0.35346 0.29899 0.9643 0.0
C441 C 0.34314 0.32691 0.96293 0.0
C442 C 0.3722 0.21001 0.03084 0.0
C443 C 0.3818 0.19488 1.0031 0.0
C444 C 0.35695 0.23341 1.02582 0.0
C445 C 0.35091 0.24252 0.99289 0.0
C446 C 0.35966 0.22675 0.965 0.0
C447 C 0.37474 0.20292 0.97006 0.0
H448 H 0.00772 0.34775 0.05053 0.0
H449 H 0.99699 0.31943 0.94402 0.0
H450 H 0.0728 0.36261 0.04961 0.0
H451 H 0.06221 0.33255 0.94329 0.0
H452 H 0.19368 0.40057 0.94958 0.0
H453 H 0.12648 0.37979 0.94569 0.0
H454 H 0.11047 0.33541 0.04785 0.0
H455 H 0.17766 0.35828 0.05215 0.0
C456 C 0.01921 0.34426 0.02692 0.0
C457 C 0.99712 0.33222 0.9974 0.0
C458 C 0.05659 0.35245 0.02643 0.0
C459 C 0.07291 0.34815 0.99652 0.0
C460 C 0.05083 0.33642 0.96678 0.0
C461 C 0.01339 0.32877 0.96717 0.0
C462 C 0.17551 0.38572 0.97088 0.0
C463 C 0.19082 0.38128 1.00127 0.0
C464 C 0.13695 0.37378 0.96872 0.0
C465 C 0.11292 0.35664 0.99675 0.0
C466 C 0.12811 0.34971 1.02614 0.0
C467 C 0.1666 0.36235 0.02852 0.0
H468 H 0.65388 0.01052 0.95107 0.0
H469 H 0.71341 0.98337 1.02631 0.0
H470 H 0.70363 0.07685 0.95315 0.0
H471 H 0.76309 0.04921 0.02795 0.0
H472 H 0.80721 0.17314 0.05882 0.0
H473 H 0.7658 0.10593 0.05022 0.0
H474 H 0.77161 0.1233 0.94169 0.0
H475 H 0.81318 0.19136 0.95041 0.0
C476 C 0.67778 0.01858 0.96769 0.0
C477 C 0.67945 0.99169 0.98878 0.0
C478 C 0.70641 0.05654 0.96871 0.0
C479 C 0.73724 0.06837 0.99088 0.0
C480 C 0.73948 0.04116 1.01097 0.0
C481 C 0.71097 0.00335 1.00997 0.0
C482 C 0.8002 0.16266 0.03304 0.0
C483 C 0.81345 0.18764 1.0053 0.0
C484 C 0.77654 0.12401 0.0281 0.0
C485 C 0.76528 0.10919 0.99526 0.0
C486 C 0.77954 0.13392 0.96732 0.0
C487 C 0.80365 0.1728 0.97228 0.0
H488 H 0.68628 0.6806 0.93935 0.0
H489 H 0.66278 0.66581 0.04688 0.0
H490 H 0.67463 0.73375 0.93911 0.0
H491 H 0.64946 0.71714 0.04649 0.0
H492 H 0.65359 0.82574 0.04903 0.0
H493 H 0.67754 0.78234 0.04325 0.0
H494 H 0.62713 0.75056 0.94349 0.0
H495 H 0.60528 0.7961 0.94873 0.0
C496 C 0.67842 0.68858 0.96286 0.0
C497 C 0.67574 0.66924 0.99318 0.0
C498 C 0.67162 0.71895 0.96273 0.0
C499 C 0.66159 0.73028 0.99287 0.0
C500 C 0.65831 0.71026 1.02296 0.0
C501 C 0.66561 0.68043 1.02316 0.0
C502 C 0.64859 0.81019 1.02551 0.0
C503 C 0.62754 0.81408 0.99939 0.0
C504 C 0.66183 0.78489 1.02232 0.0
C505 C 0.65333 0.76194 0.99332 0.0
C506 C 0.63432 0.7677 0.96619 0.0
C507 C 0.62179 0.79382 0.96911 0.0
H508 H 0.01499 0.72742 0.03474 0.0
H509 H 0.99255 0.64919 0.95239 0.0
H510 H 0.9488 0.70975 0.03587 0.0
H511 H 0.92592 0.63103 0.95394 0.0
H512 H 0.81111 0.62509 0.95163 0.0
H513 H 0.87935 0.65243 0.94483 0.0
H514 H 0.89171 0.65323 0.05378 0.0
H515 H 0.82428 0.62664 0.06059 0.0
C516 C 0.99597 0.70654 1.01675 0.0
C517 C 0.00903 0.68949 0.99367 0.0
C518 C 0.95797 0.69635 1.01747 0.0
C519 C 0.932 0.66876 0.99519 0.0
C520 C 0.94525 0.65263 0.97124 0.0
C521 C 0.98339 0.66287 0.9705 0.0
C522 C 0.82855 0.63174 0.97409 0.0
C523 C 0.81222 0.6236 1.00665 0.0
C524 C 0.86756 0.64707 0.97019 0.0
C525 C 0.89097 0.65495 0.99876 0.0
C526 C 0.87465 0.64797 0.03124 0.0
C527 C 0.83586 0.63248 0.03513 0.0
H528 H 0.00935 0.64917 0.55411 0.0
H529 H 0.99291 0.72645 0.61681 0.0
H530 H 0.07447 0.69759 0.54459 0.0
H531 H 0.05875 0.77527 0.60709 0.0
H532 H 0.19368 0.83078 0.6055 0.0
H533 H 0.12693 0.78832 0.61869 0.0
H534 H 0.10438 0.7594 0.5126 0.0
H535 H 0.17041 0.8014 0.49931 0.0
C536 C 0.01963 0.67641 0.56606 0.0
C537 C 0.99576 0.68396 0.58604 0.0
C538 C 0.05695 0.70427 0.5604 0.0
C539 C 0.0715 0.74036 0.57471 0.0
C540 C 0.0482 0.74768 0.59572 0.0
C541 C 0.01054 0.71977 0.60119 0.0
C542 C 0.17431 0.81598 0.58491 0.0
C543 C 0.18753 0.81915 0.55139 0.0
C544 C 0.13614 0.79166 0.59251 0.0
C545 C 0.1107 0.77005 0.56674 0.0
C546 C 0.12353 0.7751 0.53306 0.0
C547 C 0.1614 0.79937 0.52547 0.0
H548 H 0.36522 0.00899 0.55955 0.0
H549 H 0.27019 0.99285 0.61997 0.0
H550 H 0.38228 0.07417 0.54929 0.0
H551 H 0.28764 0.05879 0.60955 0.0
H552 H 0.36783 0.19411 0.60689 0.0
H553 H 0.34351 0.12752 0.62118 0.0
H554 H 0.34983 0.10302 0.51562 0.0
H555 H 0.37363 0.16887 0.5012 0.0
C556 C 0.3481 0.01937 0.5709 0.0
C557 C 0.31616 0.99555 0.59039 0.0
C558 C 0.35777 0.05671 0.56481 0.0
C559 C 0.33595 0.07131 0.57822 0.0
C560 C 0.30487 0.04813 0.59887 0.0
C561 C 0.2949 0.01045 0.60475 0.0
C562 C 0.36326 0.17435 0.58665 0.0
C563 C 0.37325 0.18696 0.55295 0.0
C564 C 0.34939 0.13629 0.59487 0.0
C565 C 0.34553 0.11038 0.56957 0.0
C566 C 0.35331 0.12258 0.53571 0.0
C567 C 0.36687 0.16034 0.52748 0.0
H568 H 0.32132 0.31874 0.60965 0.0
H569 H 0.33566 0.33802 0.50155 0.0
H570 H 0.26852 0.33077 0.60856 0.0
H571 H 0.28488 0.35205 0.50053 0.0
H572 H 0.17674 0.34885 0.49627 0.0
H573 H 0.22038 0.32537 0.50316 0.0
H574 H 0.2508 0.3769 0.60262 0.0
H575 H 0.20491 0.39801 0.59633 0.0
C576 C 0.31337 0.32588 0.58574 0.0
C577 C 0.33237 0.32712 0.55564 0.0
C578 C 0.28318 0.3329 0.58508 0.0
C579 C 0.2718 0.34188 0.55436 0.0
C580 C 0.29169 0.34397 0.52452 0.0
C581 C 0.32122 0.3363 0.52511 0.0
C582 C 0.19205 0.35419 0.51995 0.0
C583 C 0.18757 0.37524 0.54572 0.0
C584 C 0.21755 0.34127 0.52378 0.0
C585 C 0.24018 0.35016 0.55305 0.0
C586 C 0.23393 0.36933 0.57975 0.0
C587 C 0.20759 0.38146 0.57621 0.0
H588 H 0.80826 0.20771 0.59993 0.0
H589 H 0.82525 0.17948 0.49847 0.0
H590 H 0.87551 0.25402 0.60415 0.0
H591 H 0.89249 0.22362 0.50319 0.0
H592 H 0.99534 0.33878 0.49957 0.0
H593 H 0.93027 0.28845 0.50044 0.0
H594 H 0.9397 0.27117 0.60754 0.0
H595 H 0.00492 0.32345 0.60681 0.0
C596 C 0.82667 0.21057 0.57899 0.0
C597 C 0.81165 0.19033 0.54877 0.0
C598 C 0.86525 0.23712 0.58134 0.0
C599 C 0.88956 0.24341 0.55368 0.0
C600 C 0.87463 0.22074 0.52456 0.0
C601 C 0.83612 0.195 0.52195 0.0
C602 C 0.98359 0.32425 0.52334 0.0
C603 C 0.00535 0.33497 0.55307 0.0
C604 C 0.94622 0.29498 0.52382 0.0
C605 C 0.92959 0.27495 0.55394 0.0
C606 C 0.95133 0.28595 0.58389 0.0
C607 C 0.98877 0.31584 0.58349 0.0
H608 H 0.62484 0.81056 0.59973 0.0
H609 H 0.6263 0.82679 0.49122 0.0
H610 H 0.65139 0.87868 0.60815 0.0
H611 H 0.65214 0.89402 0.49958 0.0
H612 H 0.72492 0.01696 0.52049 0.0
H613 H 0.70819 0.95097 0.51821 0.0
H614 H 0.62953 0.92542 0.60064 0.0
H615 H 0.64678 0.99195 0.60334 0.0
C616 C 0.63137 0.82866 0.57771 0.0
C617 C 0.62341 0.81321 0.5448 0.0
C618 C 0.64622 0.86759 0.58254 0.0
C619 C 0.65385 0.89182 0.55454 0.0
C620 C 0.64708 0.87636 0.52171 0.0
C621 C 0.63203 0.83767 0.51692 0.0
C622 C 0.70428 0.99742 0.53837 0.0
C623 C 0.68695 0.00974 0.5619 0.0
C624 C 0.69461 0.9595 0.53699 0.0
C625 C 0.66727 0.9328 0.55903 0.0
C626 C 0.65094 0.94531 0.58349 0.0
C627 C 0.66066 0.98339 0.5849 0.0
H628 H 0.83146 0.64176 0.60235 0.0
H629 H 0.79101 0.62309 0.4988 0.0
H630 H 0.78882 0.66577 0.6162 0.0
H631 H 0.74887 0.64666 0.51274 0.0
H632 H 0.64323 0.63639 0.55925 0.0
H633 H 0.69065 0.61834 0.54979 0.0
H634 H 0.77358 0.71921 0.601 0.0
H635 H 0.72575 0.73759 0.61063 0.0
C636 C 0.81407 0.64336 0.58244 0.0
C637 C 0.81445 0.63009 0.54953 0.0
C638 C 0.78966 0.65705 0.5904 0.0
C639 C 0.76506 0.65741 0.56568 0.0
C640 C 0.76693 0.64599 0.53249 0.0
C641 C 0.79132 0.63264 0.5245 0.0
C642 C 0.6714 0.65471 0.56877 0.0
C643 C 0.68064 0.68861 0.58547 0.0
C644 C 0.69868 0.64442 0.56317 0.0
C645 C 0.73595 0.66762 0.57426 0.0
C646 C 0.74506 0.70081 0.59218 0.0
C647 C 0.71769 0.71133 0.59757 0.0
H648 H 0.42669 0.20968 0.37802 0.0
H649 H 0.39948 0.28404 0.32219 0.0
H650 H 0.43037 0.18136 0.32513 0.0
H651 H 0.40127 0.25422 0.2695 0.0
H652 H 0.43904 0.21772 0.17686 0.0
H653 H 0.4421 0.24824 0.23036 0.0
H654 H 0.3911 0.14025 0.28126 0.0
H655 H 0.38979 0.10967 0.22791 0.0
C656 C 0.42188 0.22046 0.35463 0.0
C657 C 0.41335 0.24986 0.35472 0.0
C658 C 0.42342 0.20363 0.32413 0.0
C659 C 0.41622 0.21544 0.29284 0.0
C660 C 0.40766 0.24473 0.29293 0.0
C661 C 0.40625 0.26164 0.32336 0.0
C662 C 0.42932 0.20032 0.1994 0.0
C663 C 0.41465 0.16097 0.19777 0.0
C664 C 0.43049 0.21794 0.23022 0.0
C665 C 0.41674 0.19683 0.26031 0.0
C666 C 0.40244 0.15761 0.25879 0.0
C667 C 0.40139 0.13997 0.22801 0.0
H668 H 0.21832 0.43398 0.37172 0.0
H669 H 0.11465 0.39772 0.31616 0.0
H670 H 0.25053 0.43789 0.31917 0.0
H671 H 0.14669 0.39951 0.26375 0.0
H672 H 0.22054 0.43621 0.17014 0.0
H673 H 0.19122 0.4389 0.22263 0.0
H674 H 0.25555 0.39897 0.27786 0.0
H675 H 0.28662 0.39827 0.22574 0.0
C676 C 0.20221 0.42719 0.34848 0.0
C677 C 0.1636 0.41605 0.34862 0.0
C678 C 0.22079 0.42884 0.31812 0.0
C679 C 0.20137 0.41897 0.28696 0.0
C680 C 0.16288 0.40793 0.28704 0.0
C681 C 0.14433 0.40654 0.31735 0.0
C682 C 0.22931 0.42876 0.19336 0.0
C683 C 0.2567 0.41748 0.19326 0.0
C684 C 0.21184 0.42975 0.22365 0.0
C685 C 0.22087 0.41918 0.25473 0.0
C686 C 0.2482 0.40797 0.25465 0.0
C687 C 0.26583 0.40721 0.22448 0.0
H688 H 0.88674 0.28709 0.23223 0.0
H689 H 0.78392 0.2156 0.17687 0.0
H690 H 0.8554 0.2564 0.28479 0.0
H691 H 0.75233 0.18685 0.22954 0.0
H692 H 0.71838 0.11237 0.32368 0.0
H693 H 0.74897 0.14422 0.27143 0.0
H694 H 0.81017 0.24966 0.32571 0.0
H695 H 0.78138 0.21765 0.37837 0.0
C696 C 0.85738 0.2652 0.2311 0.0
C697 C 0.83814 0.25449 0.19982 0.0
C698 C 0.83923 0.2478 0.26149 0.0
C699 C 0.80115 0.21911 0.26168 0.0
C700 C 0.78177 0.20851 0.23052 0.0
C701 C 0.79997 0.2257 0.20007 0.0
C702 C 0.73838 0.14237 0.32473 0.0
C703 C 0.74679 0.16209 0.35576 0.0
C704 C 0.75573 0.1608 0.29445 0.0
C705 C 0.78204 0.1997 0.29405 0.0
C706 C 0.79037 0.21961 0.32494 0.0
C707 C 0.77318 0.20111 0.35533 0.0
H708 H 0.5999 0.71483 0.31985 0.0
H709 H 0.56932 0.78651 0.37585 0.0
H710 H 0.59931 0.74573 0.26751 0.0
H711 H 0.56688 0.81596 0.32314 0.0
H712 H 0.60978 0.89027 0.22729 0.0
H713 H 0.60689 0.85854 0.2804 0.0
H714 H 0.55986 0.75207 0.22741 0.0
H715 H 0.56461 0.78376 0.17423 0.0
C716 C 0.59262 0.73686 0.32114 0.0
C717 C 0.58433 0.74761 0.3525 0.0
C718 C 0.59191 0.7544 0.29087 0.0
C719 C 0.58281 0.78331 0.29084 0.0
C720 C 0.5743 0.79403 0.32209 0.0
C721 C 0.57515 0.77656 0.35248 0.0
C722 C 0.59873 0.86006 0.22685 0.0
C723 C 0.58712 0.83987 0.19609 0.0
C724 C 0.59675 0.84174 0.25752 0.0
C725 C 0.58311 0.80262 0.25842 0.0
C726 C 0.57095 0.78229 0.22779 0.0
C727 C 0.5731 0.80059 0.19711 0.0
H728 H 0.71122 0.60123 0.22989 0.0
H729 H 0.78113 0.56814 0.17417 0.0
H730 H 0.74264 0.60148 0.28204 0.0
H731 H 0.81092 0.56644 0.22671 0.0
H732 H 0.8864 0.60889 0.32081 0.0
H733 H 0.85417 0.60625 0.26834 0.0
H734 H 0.74935 0.5634 0.32319 0.0
H735 H 0.78165 0.56798 0.37587 0.0
C736 C 0.73296 0.59359 0.22857 0.0
C737 C 0.74303 0.58439 0.19726 0.0
C738 C 0.75081 0.59336 0.25879 0.0
C739 C 0.77933 0.58378 0.2589 0.0
C740 C 0.78936 0.57434 0.22774 0.0
C741 C 0.77165 0.57479 0.19738 0.0
C742 C 0.85646 0.5989 0.32191 0.0
C743 C 0.83699 0.58841 0.35311 0.0
C744 C 0.83781 0.59703 0.29153 0.0
C745 C 0.79898 0.5845 0.29124 0.0
C746 C 0.77935 0.57362 0.32229 0.0
C747 C 0.79802 0.57572 0.35275 0.0
H748 H 0.21075 0.7971 0.17496 0.0
H749 H 0.11824 0.70985 0.23243 0.0
H750 H 0.24268 0.8272 0.22771 0.0
H751 H 0.14989 0.74058 0.28511 0.0
H752 H 0.23585 0.78549 0.37235 0.0
H753 H 0.20543 0.75439 0.31983 0.0
H754 H 0.23523 0.86204 0.27502 0.0
H755 H 0.26534 0.89359 0.32766 0.0
C756 C 0.19732 0.78397 0.19872 0.0
C757 C 0.16193 0.75062 0.19921 0.0
C758 C 0.2155 0.80161 0.22907 0.0
C759 C 0.19891 0.78636 0.26075 0.0
C760 C 0.16374 0.75291 0.26124 0.0
C761 C 0.14544 0.73543 0.23094 0.0
C762 C 0.23565 0.80289 0.35181 0.0
C763 C 0.25295 0.84249 0.35505 0.0
C764 C 0.21816 0.78479 0.32138 0.0
C765 C 0.21779 0.80563 0.29311 0.0
C766 C 0.23531 0.84507 0.29611 0.0
C767 C 0.25251 0.86317 0.32655 0.0
H768 H 0.53959 0.68406 0.73962 0.0
H769 H 0.58662 0.78125 0.67353 0.0
H770 H 0.55072 0.72477 0.78861 0.0
H771 H 0.59748 0.82221 0.72275 0.0
H772 H 0.58658 0.80778 0.87463 0.0
H773 H 0.59833 0.7784 0.82542 0.0
H774 H 0.54883 0.82634 0.75971 0.0
H775 H 0.53687 0.85528 0.8087 0.0
C776 C 0.55329 0.71431 0.73572 0.0
C777 C 0.56232 0.72943 0.70275 0.0
C778 C 0.55981 0.73767 0.76382 0.0
C779 C 0.57485 0.77674 0.75961 0.0
C780 C 0.58574 0.79219 0.7268 0.0
C781 C 0.57983 0.7688 0.69866 0.0
C782 C 0.57931 0.81299 0.84955 0.0
C783 C 0.56084 0.83392 0.84553 0.0
C784 C 0.58575 0.79592 0.82141 0.0
C785 C 0.57444 0.79996 0.78863 0.0
C786 C 0.55827 0.82297 0.78447 0.0
C787 C 0.55124 0.83941 0.81259 0.0
H788 H 0.68526 0.53586 0.80864 0.0
H789 H 0.78263 0.58974 0.87405 0.0
H790 H 0.72625 0.54937 0.75945 0.0
H791 H 0.82386 0.60298 0.82464 0.0
H792 H 0.86141 0.54537 0.73903 0.0
H793 H 0.83145 0.5558 0.7881 0.0
H794 H 0.77809 0.59958 0.72222 0.0
H795 H 0.80862 0.5895 0.67293 0.0
C796 C 0.71552 0.55148 0.81236 0.0
C797 C 0.73069 0.56179 0.8452 0.0
C798 C 0.73903 0.55939 0.78413 0.0
C799 C 0.77833 0.57717 0.78812 0.0
C800 C 0.79367 0.58919 0.82078 0.0
C801 C 0.77009 0.58188 0.84903 0.0
C802 C 0.84421 0.55832 0.73514 0.0
C803 C 0.83747 0.5667 0.70216 0.0
C804 C 0.82714 0.56443 0.76327 0.0
C805 C 0.80225 0.57837 0.75907 0.0
C806 C 0.79706 0.5887 0.72624 0.0
C807 C 0.81478 0.58323 0.69806 0.0
H808 H 0.19502 0.78407 0.87843 0.0
H809 H 0.14556 0.68645 0.81295 0.0
H810 H 0.22445 0.82485 0.82894 0.0
H811 H 0.17444 0.72701 0.76368 0.0
H812 H 0.22009 0.8096 0.67715 0.0
H813 H 0.17937 0.78058 0.72673 0.0
H814 H 0.27731 0.82899 0.79172 0.0
H815 H 0.31778 0.85742 0.74235 0.0
C816 C 0.18938 0.77146 0.85339 0.0
C817 C 0.16792 0.73204 0.84955 0.0
C818 C 0.20646 0.79477 0.82509 0.0
C819 C 0.20185 0.77917 0.79236 0.0
C820 C 0.17826 0.74001 0.78841 0.0
C821 C 0.16183 0.71673 0.81668 0.0
C822 C 0.23274 0.81502 0.70216 0.0
C823 C 0.27213 0.83585 0.7059 0.0
C824 C 0.20947 0.79816 0.73051 0.0
C825 C 0.22512 0.80239 0.76317 0.0
C826 C 0.26429 0.82547 0.76704 0.0
C827 C 0.28751 0.84166 0.73872 0.0
H828 H 0.46666 0.1478 0.81097 0.0
H829 H 0.41942 0.19773 0.87689 0.0
H830 H 0.45486 0.17677 0.76184 0.0
H831 H 0.40797 0.22724 0.82755 0.0
H832 H 0.46843 0.32038 0.7405 0.0
H833 H 0.45713 0.28009 0.78994 0.0
H834 H 0.40543 0.18155 0.72558 0.0
H835 H 0.41637 0.22204 0.67595 0.0
C836 C 0.45284 0.1642 0.81483 0.0
C837 C 0.44389 0.17039 0.84777 0.0
C838 C 0.44592 0.18067 0.78665 0.0
C839 C 0.43057 0.20439 0.7908 0.0
C840 C 0.41988 0.20913 0.82359 0.0
C841 C 0.42616 0.192 0.85179 0.0
C842 C 0.45368 0.29003 0.73704 0.0
C843 C 0.44321 0.27439 0.70437 0.0
C844 C 0.44705 0.26693 0.76539 0.0
C845 C 0.43048 0.22763 0.76168 0.0
C846 C 0.41831 0.21175 0.72921 0.0
C847 C 0.4243 0.2349 0.70084 0.0
H848 H 0.22361 0.41947 0.87129 0.0
H849 H 0.32174 0.47111 0.80659 0.0
H850 H 0.18318 0.40841 0.82167 0.0
H851 H 0.28149 0.45961 0.75714 0.0
H852 H 0.14981 0.46954 0.73565 0.0
H853 H 0.17894 0.45827 0.78496 0.0
H854 H 0.2282 0.40961 0.71992 0.0
H855 H 0.19843 0.42042 0.67043 0.0
C856 C 0.23643 0.42726 0.84637 0.0
C857 C 0.27585 0.44607 0.84278 0.0
C858 C 0.21332 0.4212 0.81801 0.0
C859 C 0.22916 0.43318 0.78549 0.0
C860 C 0.26837 0.44968 0.78173 0.0
C861 C 0.29145 0.4564 0.81008 0.0
C862 C 0.16598 0.45545 0.732 0.0
C863 C 0.17171 0.44575 0.69921 0.0
C864 C 0.18254 0.44885 0.76027 0.0
C865 C 0.20594 0.43312 0.75634 0.0
C866 C 0.21032 0.42179 0.72371 0.0
C867 C 0.19306 0.42772 0.69543 0.0
H868 H 0.80288 0.22034 0.87904 0.0
H869 H 0.85398 0.31738 0.8128 0.0
H870 H 0.77287 0.17936 0.82981 0.0
H871 H 0.82455 0.27663 0.7638 0.0
H872 H 0.77818 0.19319 0.67799 0.0
H873 H 0.81876 0.22232 0.72755 0.0
H874 H 0.72053 0.17606 0.79215 0.0
H875 H 0.68015 0.14742 0.74278 0.0
C876 C 0.80874 0.23274 0.85389 0.0
C877 C 0.83084 0.27207 0.84974 0.0
C878 C 0.79132 0.20934 0.82575 0.0
C879 C 0.79626 0.22475 0.79289 0.0
C880 C 0.82046 0.26377 0.78864 0.0
C881 C 0.83721 0.28716 0.81675 0.0
C882 C 0.76539 0.18827 0.70292 0.0
C883 C 0.72595 0.16794 0.70652 0.0
C884 C 0.78859 0.2052 0.73125 0.0
C885 C 0.77286 0.20156 0.76379 0.0
C886 C 0.7336 0.17909 0.76757 0.0
C887 C 0.71044 0.16282 0.73925 0.0
H888 H 0.69692 0.16893 0.09951 0.0
H889 H 0.7291 0.28685 0.09725 0.0
H890 H 0.63178 0.15178 0.1077 0.0
H891 H 0.66338 0.26971 0.10596 0.0
H892 H 0.54672 0.20826 0.04611 0.0
H893 H 0.61063 0.24097 0.0677 0.0
H894 H 0.58161 0.15061 0.13961 0.0
H895 H 0.51755 0.11747 0.11696 0.0
C896 C 0.69017 0.19131 0.10141 0.0
C897 C 0.71803 0.22919 0.09675 0.0
C898 C 0.65272 0.18151 0.10661 0.0
C899 C 0.64216 0.20937 0.10742 0.0
C900 C 0.67048 0.24753 0.10507 0.0
C901 C 0.70807 0.25734 0.09984 0.0
C902 C 0.55332 0.19666 0.06808 0.0
C903 C 0.52731 0.16054 0.08007 0.0
C904 C 0.59021 0.21527 0.08035 0.0
C905 C 0.60159 0.19781 0.10467 0.0
C906 C 0.57392 0.16431 0.12021 0.0
C907 C 0.53709 0.14556 0.10767 0.0
H908 H 0.53409 0.69998 0.09963 0.0
H909 H 0.44655 0.72895 0.0906 0.0
H910 H 0.48671 0.63393 0.10551 0.0
H911 H 0.39875 0.66254 0.09723 0.0
H912 H 0.35077 0.54878 0.03452 0.0
H913 H 0.38043 0.61219 0.05692 0.0
H914 H 0.43521 0.58124 0.13395 0.0
H915 H 0.40448 0.51693 0.11119 0.0
C916 C 0.50468 0.69234 0.09963 0.0
C917 C 0.49406 0.71959 0.09369 0.0
C918 C 0.47739 0.65438 0.10349 0.0
C919 C 0.43879 0.64277 0.10164 0.0
C920 C 0.42822 0.67047 0.09832 0.0
C921 C 0.45559 0.70849 0.09435 0.0
C922 C 0.3666 0.55464 0.05793 0.0
C923 C 0.37425 0.52768 0.0719 0.0
C924 C 0.38426 0.59136 0.07056 0.0
C925 C 0.41079 0.60208 0.09692 0.0
C926 C 0.41532 0.57397 0.11329 0.0
C927 C 0.39739 0.53705 0.10063 0.0
H928 H 0.78904 0.32246 0.03421 0.0
H929 H 0.86223 0.40562 0.10698 0.0
H930 H 0.74201 0.34111 0.043 0.0
H931 H 0.81603 0.42599 0.11451 0.0
H932 H 0.73348 0.46612 0.11453 0.0
H933 H 0.75411 0.42048 0.1261 0.0
H934 H 0.75371 0.40018 1.01835 0.0
H935 H 0.73289 0.44502 1.00696 0.0
C936 C 0.79404 0.3431 0.05375 0.0
C937 C 0.82885 0.36205 0.07056 0.0
C938 C 0.76741 0.35436 0.05825 0.0
C939 C 0.77573 0.38562 0.07876 0.0
C940 C 0.80866 0.40165 0.09866 0.0
C941 C 0.83516 0.38999 0.09444 0.0
C942 C 0.73713 0.45128 0.09342 0.0
C943 C 0.73235 0.45962 0.05976 0.0
C944 C 0.74886 0.42516 0.10009 0.0
C945 C 0.75557 0.40675 0.07321 0.0
C946 C 0.74824 0.41336 0.03976 0.0
C947 C 0.73679 0.43951 0.03312 0.0
H948 H 0.46783 0.87095 0.10796 0.0
H949 H 0.4681 0.79121 0.03664 0.0
H950 H 0.40075 0.82861 0.11811 0.0
H951 H 0.40192 0.74807 0.04807 0.0
H952 H 0.29555 0.75288 1.01157 0.0
H953 H 0.35995 0.76881 1.0228 0.0
H954 H 0.34018 0.76711 0.13074 0.0
H955 H 0.27485 0.7508 0.11932 0.0
C956 C 0.4542 0.84317 0.09645 0.0
C957 C 0.47321 0.83407 0.07196 0.0
C958 C 0.41574 0.8189 0.10218 0.0
C959 C 0.39603 0.78547 0.08322 0.0
C960 C 0.4164 0.77393 0.06266 0.0
C961 C 0.4546 0.79834 0.05666 0.0
C962 C 0.30472 0.75543 0.03772 0.0
C963 C 0.2805 0.75129 0.06453 0.0
C964 C 0.3415 0.76397 0.04423 0.0
C965 C 0.35504 0.7689 0.07774 0.0
C966 C 0.33038 0.76331 0.10473 0.0
C967 C 0.29318 0.75415 0.09817 0.0
H968 H 0.5634 0.27419 0.08956 0.0
H969 H 0.47566 0.30073 0.11019 0.0
H970 H 0.61079 0.34085 0.09547 0.0
H971 H 0.52246 0.36695 0.11495 0.0
H972 H 0.60271 0.48489 0.11444 0.0
H973 H 0.57578 0.42128 0.13858 0.0
H974 H 0.62347 0.38973 0.05555 0.0
H975 H 0.64947 0.45237 0.03203 0.0
C976 C 0.55427 0.29413 0.09585 0.0
C977 C 0.51574 0.28238 0.09848 0.0
C978 C 0.58141 0.3323 0.09932 0.0
C979 C 0.57048 0.35942 0.10522 0.0
C980 C 0.53212 0.34701 0.11075 0.0
C981 C 0.5051 0.30894 0.1075 0.0
C982 C 0.609 0.46475 0.10264 0.0
C983 C 0.62911 0.47364 0.07207 0.0
C984 C 0.59334 0.42828 0.11616 0.0
C985 C 0.59701 0.40016 0.09878 0.0
C986 C 0.62044 0.41055 0.07004 0.0
C987 C 0.63578 0.44673 0.05659 0.0
H988 H 0.26695 0.5368 0.11094 0.0
H989 H 0.26292 0.55386 1.00307 0.0
H990 H 0.24492 0.58146 0.12213 0.0
H991 H 0.2406 0.59749 1.01405 0.0
H992 H 0.20643 0.67567 0.02828 0.0
H993 H 0.25342 0.65705 0.03625 0.0
H994 H 0.1833 0.57735 0.11314 0.0
H995 H 0.13817 0.59953 0.1075 0.0
C996 C 0.26192 0.55049 0.08967 0.0
C997 C 0.26616 0.54149 0.05608 0.0
C998 C 0.2493 0.576 0.09611 0.0
C999 C 0.24113 0.59316 0.06907 0.0
C1000 C 0.24731 0.58546 0.0356 0.0
C1001 C 0.25969 0.55999 0.02921 0.0
C1002 C 0.20284 0.65695 0.04917 0.0
C1003 C 0.16965 0.64052 0.06848 0.0
C1004 C 0.22919 0.64525 0.053 0.0
C1005 C 0.22164 0.61502 0.07468 0.0
C1006 C 0.19013 0.6009 0.09636 0.0
C1007 C 0.16425 0.61359 0.09321 0.0
H1008 H 0.86191 0.46269 0.44278 0.0
H1009 H 0.79397 0.46913 0.52294 0.0
H1010 H 0.81693 0.39536 0.43661 0.0
H1011 H 0.74704 0.40345 0.51447 0.0
H1012 H 0.73962 0.29123 0.5467 0.0
H1013 H 0.7606 0.35702 0.53605 0.0
H1014 H 0.75583 0.33734 0.42785 0.0
H1015 H 0.73517 0.27082 0.43871 0.0
C1016 C 0.83589 0.45036 0.45716 0.0
C1017 C 0.83061 0.47147 0.48238 0.0
C1018 C 0.81008 0.41177 0.45372 0.0
C1019 C 0.77875 0.39392 0.47556 0.0
C1020 C 0.77117 0.41624 0.49762 0.0
C1021 C 0.79747 0.45433 0.50175 0.0
C1022 C 0.74247 0.30069 0.52061 0.0
C1023 C 0.73633 0.276 0.4936 0.0
C1024 C 0.75405 0.33844 0.51442 0.0
C1025 C 0.75975 0.3525 0.481 0.0
C1026 C 0.75182 0.32738 0.45384 0.0
C1027 C 0.74002 0.28936 0.46008 0.0
H1028 H 0.40139 0.86466 0.44485 0.0
H1029 H 0.32412 0.79251 0.52166 0.0
H1030 H 0.42242 0.81903 0.43605 0.0
H1031 H 0.34145 0.74505 0.51033 0.0
H1032 H 0.44579 0.73707 0.54336 0.0
H1033 H 0.4007 0.75761 0.53301 0.0
H1034 H 0.41916 0.75814 0.42487 0.0
H1035 H 0.46525 0.73787 0.43545 0.0
C1036 C 0.38675 0.83769 0.45781 0.0
C1037 C 0.36005 0.83141 0.48299 0.0
C1038 C 0.39875 0.81149 0.45283 0.0
C1039 C 0.3841 0.77876 0.47307 0.0
C1040 C 0.35366 0.77026 0.49472 0.0
C1041 C 0.3427 0.79693 0.50046 0.0
C1042 C 0.43988 0.74097 0.51733 0.0
C1043 C 0.45954 0.73654 0.4903 0.0
C1044 C 0.41354 0.75226 0.51128 0.0
C1045 C 0.40616 0.7594 0.478 0.0
C1046 C 0.42435 0.75299 0.45075 0.0
C1047 C 0.45072 0.74145 0.45684 0.0
H1048 H 0.72695 0.47691 0.43318 0.0
H1049 H 0.70452 0.45886 0.54079 0.0
H1050 H 0.66181 0.42773 0.42117 0.0
H1051 H 0.64028 0.41026 0.52897 0.0
H1052 H 0.53294 0.32391 0.51451 0.0
H1053 H 0.5992 0.34722 0.50377 0.0
H1054 H 0.6008 0.42831 0.43259 0.0
H1055 H 0.53354 0.40317 0.44196 0.0
C1056 C 0.70828 0.46205 0.45419 0.0
C1057 C 0.72044 0.47202 0.48794 0.0
C1058 C 0.67119 0.43392 0.44729 0.0
C1059 C 0.64612 0.41493 0.47406 0.0
C1060 C 0.65909 0.42379 0.50772 0.0
C1061 C 0.69577 0.4521 0.51456 0.0
C1062 C 0.54654 0.34439 0.49436 0.0
C1063 C 0.52797 0.36122 0.4785 0.0
C1064 C 0.5848 0.35836 0.48875 0.0
C1065 C 0.60528 0.39021 0.4681 0.0
C1066 C 0.58569 0.40365 0.44861 0.0
C1067 C 0.54715 0.38923 0.45389 0.0
H1068 H 0.24998 0.73033 0.43306 0.0
H1069 H 0.2422 0.70407 0.54008 0.0
H1070 H 0.23406 0.66544 0.41944 0.0
H1071 H 0.22673 0.64009 0.52663 0.0
H1072 H 0.20892 0.5341 0.5093 0.0
H1073 H 0.25115 0.60096 0.50014 0.0
H1074 H 0.1718 0.60319 0.42946 0.0
H1075 H 0.13031 0.5354 0.43732 0.0
C1076 C 0.24537 0.71085 0.45361 0.0
C1077 C 0.24672 0.72192 0.48763 0.0
C1078 C 0.23646 0.67393 0.44579 0.0
C1079 C 0.22965 0.64793 0.47193 0.0
C1080 C 0.23263 0.65969 0.50589 0.0
C1081 C 0.2409 0.6962 0.51364 0.0
C1082 C 0.20196 0.54802 0.48953 0.0
C1083 C 0.16667 0.52944 0.4735 0.0
C1084 C 0.22583 0.58662 0.48485 0.0
C1085 C 0.2142 0.60733 0.46487 0.0
C1086 C 0.18149 0.58787 0.44501 0.0
C1087 C 0.15776 0.54902 0.44939 0.0
H1088 H 0.55605 0.28338 0.46204 0.0
H1089 H 0.46933 0.16643 0.45226 0.0
H1090 H 0.60431 0.26566 0.45442 0.0
H1091 H 0.51716 0.14867 0.44526 0.0
H1092 H 0.59978 0.11523 0.43712 0.0
H1093 H 0.56895 0.14911 0.41543 0.0
H1094 H 0.62302 0.23295 0.4941 0.0
H1095 H 0.65267 0.19883 0.51552 0.0
C1096 C 0.54727 0.25399 0.45791 0.0
C1097 C 0.50891 0.22621 0.45865 0.0
C1098 C 0.57491 0.24385 0.45335 0.0
C1099 C 0.56469 0.20572 0.44942 0.0
C1100 C 0.52619 0.17837 0.44773 0.0
C1101 C 0.49865 0.1885 0.45225 0.0
C1102 C 0.60674 0.14216 0.44827 0.0
C1103 C 0.6296 0.15522 0.47722 0.0
C1104 C 0.58877 0.16132 0.43621 0.0
C1105 C 0.59301 0.19342 0.45338 0.0
C1106 C 0.61941 0.2087 0.47988 0.0
C1107 C 0.63708 0.18945 0.49195 0.0
H1108 H 0.45168 0.65323 0.51291 0.0
H1109 H 0.48408 0.60294 0.43348 0.0
H1110 H 0.38835 0.62392 0.4906 0.0
H1111 H 0.41978 0.57237 0.41093 0.0
H1112 H 0.30253 0.47116 0.4463 0.0
H1113 H 0.3681 0.51948 0.43996 0.0
H1114 H 0.33773 0.60612 0.45008 0.0
H1115 H 0.27179 0.55739 0.45701 0.0
C1116 C 0.44594 0.63831 0.48899 0.0
C1117 C 0.47302 0.63146 0.47418 0.0
C1118 C 0.40929 0.62085 0.47639 0.0
C1119 C 0.39876 0.59521 0.44928 0.0
C1120 C 0.42696 0.59162 0.43213 0.0
C1121 C 0.46385 0.60944 0.44469 0.0
C1122 C 0.30966 0.50048 0.44661 0.0
C1123 C 0.28208 0.51045 0.45311 0.0
C1124 C 0.34732 0.5283 0.44247 0.0
C1125 C 0.35828 0.56678 0.44466 0.0
C1126 C 0.33025 0.57674 0.44862 0.0
C1127 C 0.29251 0.54882 0.4528 0.0
H1128 H 0.42537 0.02745 1.0026 0.0
H1129 H 0.53671 0.11161 0.97048 0.0
H1130 H 0.43867 0.97799 0.98598 0.0
H1131 H 0.54954 0.06261 0.9519 0.0
H1132 H 0.46703 0.89171 0.97005 0.0
H1133 H 0.45424 0.94083 0.95172 0.0
H1134 H 0.56496 0.02524 0.98625 0.0
H1135 H 0.57825 0.97563 1.00261 0.0
C1136 C 0.45164 0.03536 0.98965 0.0
C1137 C 0.47962 0.07345 0.9873 0.0
C1138 C 0.45962 0.00695 0.98035 0.0
C1139 C 0.49574 0.01616 0.96827 0.0
C1140 C 0.52182 0.05431 0.96183 0.0
C1141 C 0.51402 0.08254 0.97162 0.0
C1142 C 0.48965 0.92079 0.97146 0.0
C1143 C 0.52404 0.92977 0.98709 0.0
C1144 C 0.48191 0.94908 0.96174 0.0
C1145 C 0.50798 0.98718 0.96831 0.0
C1146 C 0.54404 0.99631 0.98052 0.0
C1147 C 0.55199 0.96783 0.9897 0.0
H1148 H 0.42552 0.5339 0.96073 0.0
H1149 H 0.40123 0.4234 0.99321 0.0
H1150 H 0.48682 0.54751 0.94019 0.0
H1151 H 0.46357 0.43757 0.97461 0.0
H1152 H 0.60115 0.57799 0.99497 0.0
H1153 H 0.53915 0.56399 0.97578 0.0
H1154 H 0.51692 0.45493 0.93983 0.0
H1155 H 0.57824 0.46859 0.96064 0.0
C1156 C 0.43226 0.51147 0.96144 0.0
C1157 C 0.40813 0.47722 0.97805 0.0
C1158 C 0.46802 0.51972 0.95047 0.0
C1159 C 0.48093 0.49429 0.95666 0.0
C1160 C 0.45487 0.45804 0.96923 0.0
C1161 C 0.41873 0.44958 0.97971 0.0
C1162 C 0.58406 0.55215 0.98093 0.0
C1163 C 0.59492 0.52473 0.9789 0.0
C1164 C 0.54805 0.54373 0.97015 0.0
C1165 C 0.52232 0.50773 0.95695 0.0
C1166 C 0.53547 0.48253 0.95055 0.0
C1167 C 0.57119 0.4908 0.96172 0.0
H1168 H 0.88969 0.42581 0.97135 0.0
H1169 H 0.97451 0.40143 1.00732 0.0
H1170 H 0.93822 0.48847 0.95384 0.0
H1171 H 0.0234 0.46466 0.99084 0.0
H1172 H 0.02416 0.60485 1.00644 0.0
H1173 H 0.97487 0.54151 0.99047 0.0
H1174 H 0.05941 0.5169 0.95323 0.0
H1175 H 0.10827 0.57942 0.97047 0.0
C1176 C 0.91889 0.43297 0.97355 0.0
C1177 C 0.92823 0.40811 0.98991 0.0
C1178 C 0.94676 0.46939 0.96424 0.0
C1179 C 0.98479 0.48218 0.97153 0.0
C1180 C 0.99446 0.4559 0.9845 0.0
C1181 C 0.96641 0.41923 0.99363 0.0
C1182 C 0.032 0.58674 0.99291 0.0
C1183 C 0.0701 0.59749 0.98924 0.0
C1184 C 0.00374 0.55007 0.98403 0.0
C1185 C 0.01315 0.52355 0.97123 0.0
C1186 C 0.05107 0.53615 0.96362 0.0
C1187 C 0.07915 0.57251 0.97273 0.0
H1188 H 0.97718 0.57984 0.54234 0.0
H1189 H 0.8935 0.47096 0.58031 0.0
H1190 H 0.02661 0.56619 0.55825 0.0
H1191 H 0.94251 0.45774 0.59775 0.0
H1192 H 0.11185 0.53636 0.5751 0.0
H1193 H 0.06413 0.55091 0.59385 0.0
H1194 H 0.97747 0.44031 0.56113 0.0
H1195 H 0.02561 0.42547 0.54381 0.0
C1196 C 0.96953 0.55423 0.5564 0.0
C1197 C 0.93149 0.52699 0.56076 0.0
C1198 C 0.99786 0.54601 0.56525 0.0
C1199 C 0.98858 0.51034 0.57871 0.0
C1200 C 0.95075 0.48512 0.58686 0.0
C1201 C 0.92259 0.49316 0.57763 0.0
C1202 C 0.08261 0.51411 0.57425 0.0
C1203 C 0.07256 0.47926 0.55885 0.0
C1204 C 0.05514 0.52287 0.58421 0.0
C1205 C 0.01683 0.49728 0.57833 0.0
C1206 C 0.00664 0.46081 0.56639 0.0
C1207 C 0.03428 0.45192 0.55675 0.0
H1208 H 0.60137 0.02205 0.55353 0.0
H1209 H 0.576 0.10709 0.58702 0.0
H1210 H 0.53854 0.97313 0.57038 0.0
H1211 H 0.51409 0.05858 0.60575 0.0
H1212 H 0.42315 0.88845 0.58401 0.0
H1213 H 0.48479 0.93619 0.60431 0.0
H1214 H 0.46241 0.02316 0.56907 0.0
H1215 H 0.40002 0.97497 0.55034 0.0
C1216 C 0.58345 0.03024 0.5669 0.0
C1217 C 0.59394 0.06842 0.56935 0.0
C1218 C 0.54703 0.00214 0.57633 0.0
C1219 C 0.52058 0.01184 0.58864 0.0
C1220 C 0.53322 0.05 0.59562 0.0
C1221 C 0.5693 0.07793 0.58573 0.0
C1222 C 0.4304 0.91779 0.58278 0.0
C1223 C 0.40631 0.92799 0.56633 0.0
C1224 C 0.46621 0.94525 0.59374 0.0
C1225 C 0.47926 0.98367 0.58766 0.0
C1226 C 0.45351 0.99394 0.57455 0.0
C1227 C 0.41735 0.96631 0.56403 0.0
H1228 H 0.46827 0.57632 0.5845 0.0
H1229 H 0.57693 0.60103 0.54708 0.0
H1230 H 0.45514 0.51418 0.6027 0.0
H1231 H 0.56364 0.53837 0.56399 0.0
H1232 H 0.42384 0.39899 0.54789 0.0
H1233 H 0.43811 0.46173 0.56588 0.0
H1234 H 0.54824 0.48562 0.59957 0.0
H1235 H 0.53439 0.42375 0.57998 0.0
C1236 C 0.49053 0.56948 0.58229 0.0
C1237 C 0.52423 0.59415 0.56522 0.0
C1238 C 0.48253 0.5333 0.59193 0.0
C1239 C 0.50778 0.52063 0.58412 0.0
C1240 C 0.54344 0.54697 0.57076 0.0
C1241 C 0.55153 0.58338 0.56142 0.0
C1242 C 0.45009 0.41674 0.56109 0.0
C1243 C 0.47755 0.40597 0.56322 0.0
C1244 C 0.45861 0.45308 0.57119 0.0
C1245 C 0.4948 0.47929 0.58363 0.0
C1246 C 0.52043 0.46662 0.58955 0.0
C1247 C 0.51208 0.43063 0.57905 0.0
loop_
_geom_bond_atom_site_label_1
_geom_bond_atom_site_label_2
_geom_bond_distance
_geom_bond_site_symmetry_2
_ccdc_geom_bond_type
Zn0 N4 2.020 . S
Zn0 O8 2.019 . S
Zn0 N10 2.119 . S
Zn0 O18 1.975 . S
C1 N2 1.343 . S
C1 N5 1.336 . S
N2 C1 1.343 . S
N2 C3 1.325 1_554 S
C3 N2 1.325 1_556 S
C3 N4 1.336 . S
N4 Zn0 2.020 . S
N4 C3 1.336 . S
N4 N5 1.354 1_556 S
N5 C1 1.336 . S
N5 N4 1.354 1_554 S
N5 Zn9 2.020 . S
C6 O7 1.244 1_554 S
C6 O30 1.257 . S
O7 C6 1.244 1_556 S
O8 Zn0 2.019 . S
O8 C28 1.257 . S
Zn9 N5 2.020 . S
Zn9 O16 1.975 . S
Zn9 N25 2.119 . S
Zn9 O30 2.019 . S
N10 Zn0 2.119 . S
N10 C12 1.334 . S
N10 C13 1.328 . S
C11 C12 1.391 . S
C11 N14 1.329 . S
C11 H32 0.930 . S
C12 N10 1.334 . S
C12 C11 1.391 . S
C12 H19 0.930 . S
C13 N10 1.328 . S
C13 C15 1.392 . S
C13 H20 0.930 . S
N14 C11 1.329 . S
N14 C15 1.331 . S
C15 C13 1.392 . S
C15 N14 1.331 . S
O16 Zn9 1.975 . S
O16 C17 1.251 1_554 S
C17 O16 1.251 1_556 S
C17 O18 1.253 . S
O18 Zn0 1.975 . S
O18 C17 1.253 . S
H19 C12 0.930 . S
H20 C13 0.930 . S
C21 C22 1.392 . S
C21 N25 1.328 . S
C21 H27 0.930 . S
C22 C21 1.392 . S
C22 N26 1.331 . S
C23 C24 1.391 . S
C23 N26 1.329 . S
C23 H33 0.930 . S
C24 C23 1.391 . S
C24 N25 1.334 . S
C24 H31 0.930 . S
N25 Zn9 2.119 . S
N25 C21 1.328 . S
N25 C24 1.334 . S
N26 C22 1.331 . S
N26 C23 1.329 . S
H27 C21 0.930 . S
C28 O8 1.257 . S
C28 O29 1.244 1_556 S
O29 C28 1.244 1_554 S
O30 C6 1.257 . S
O30 Zn9 2.019 . S
H31 C24 0.930 . S
H32 C11 0.930 . S
H33 C23 0.930 . S
Zn34 N38 2.020 . S
Zn34 O42 2.019 . S
Zn34 N44 2.119 . S
Zn34 O52 1.975 . S
C35 N36 1.325 1_556 S
C35 N39 1.336 . S
N36 C35 1.325 1_554 S
N36 C37 1.343 . S
C37 N36 1.343 . S
C37 N38 1.336 . S
N38 Zn34 2.020 . S
N38 C37 1.336 . S
N38 N39 1.354 1_554 S
N39 C35 1.336 . S
N39 N38 1.354 1_556 S
N39 Zn43 2.020 . S
C40 O41 1.244 1_556 S
C40 O64 1.257 . S
O41 C40 1.244 1_554 S
O42 Zn34 2.019 . S
O42 C62 1.257 . S
Zn43 N39 2.020 . S
Zn43 O50 1.975 . S
Zn43 N59 2.119 . S
Zn43 O64 2.019 . S
N44 Zn34 2.119 . S
N44 C46 1.334 . S
N44 C47 1.328 . S
C45 C46 1.391 . S
C45 N48 1.329 . S
C45 H66 0.930 . S
C46 N44 1.334 . S
C46 C45 1.391 . S
C46 H53 0.930 . S
C47 N44 1.328 . S
C47 C49 1.392 . S
C47 H54 0.930 . S
N48 C45 1.329 . S
N48 C49 1.331 . S
C49 C47 1.392 . S
C49 N48 1.331 . S
O50 Zn43 1.975 . S
O50 C51 1.253 . S
C51 O50 1.253 . S
C51 O52 1.251 1_556 S
O52 Zn34 1.975 . S
O52 C51 1.251 1_554 S
H53 C46 0.930 . S
H54 C47 0.930 . S
C55 C56 1.392 . S
C55 N59 1.328 . S
C55 H61 0.930 . S
C56 C55 1.392 . S
C56 N60 1.331 . S
C57 C58 1.391 . S
C57 N60 1.329 . S
C57 H67 0.930 . S
C58 C57 1.391 . S
C58 N59 1.334 . S
C58 H65 0.930 . S
N59 Zn43 2.119 . S
N59 C55 1.328 . S
N59 C58 1.334 . S
N60 C56 1.331 . S
N60 C57 1.329 . S
H61 C55 0.930 . S
C62 O42 1.257 . S
C62 O63 1.244 1_554 S
O63 C62 1.244 1_556 S
O64 C40 1.257 . S
O64 Zn43 2.019 . S
H65 C58 0.930 . S
H66 C45 0.930 . S
H67 C57 0.930 . S
Zn68 N72 2.020 . S
Zn68 O76 2.019 . S
Zn68 N78 2.119 . S
Zn68 O86 1.975 . S
C69 N70 1.343 . S
C69 N73 1.336 . S
N70 C69 1.343 . S
N70 C71 1.325 1_554 S
C71 N70 1.325 1_556 S
C71 N72 1.336 . S
N72 Zn68 2.020 . S
N72 C71 1.336 . S
N72 N73 1.354 1_556 S
N73 C69 1.336 . S
N73 N72 1.354 1_554 S
N73 Zn77 2.020 . S
C74 O75 1.244 1_554 S
C74 O98 1.257 . S
O75 C74 1.244 1_556 S
O76 Zn68 2.019 . S
O76 C96 1.257 . S
Zn77 N73 2.020 . S
Zn77 O84 1.975 . S
Zn77 N93 2.119 . S
Zn77 O98 2.019 . S
N78 Zn68 2.119 . S
N78 C80 1.334 . S
N78 C81 1.328 . S
C79 C80 1.391 . S
C79 N82 1.329 . S
C79 H100 0.930 . S
C80 N78 1.334 . S
C80 C79 1.391 . S
C80 H87 0.930 . S
C81 N78 1.328 . S
C81 C83 1.392 . S
C81 H88 0.930 . S
N82 C79 1.329 . S
N82 C83 1.331 . S
C83 C81 1.392 . S
C83 N82 1.331 . S
O84 Zn77 1.975 . S
O84 C85 1.251 1_554 S
C85 O84 1.251 1_556 S
C85 O86 1.253 . S
O86 Zn68 1.975 . S
O86 C85 1.253 . S
H87 C80 0.930 . S
H88 C81 0.930 . S
C89 C90 1.392 . S
C89 N93 1.328 . S
C89 H95 0.930 . S
C90 C89 1.392 . S
C90 N94 1.331 . S
C91 C92 1.391 . S
C91 N94 1.329 . S
C91 H101 0.930 . S
C92 C91 1.391 . S
C92 N93 1.334 . S
C92 H99 0.930 . S
N93 Zn77 2.119 . S
N93 C89 1.328 . S
N93 C92 1.334 . S
N94 C90 1.331 . S
N94 C91 1.329 . S
H95 C89 0.930 . S
C96 O76 1.257 . S
C96 O97 1.244 1_556 S
O97 C96 1.244 1_554 S
O98 C74 1.257 . S
O98 Zn77 2.019 . S
H99 C92 0.930 . S
H100 C79 0.930 . S
H101 C91 0.930 . S
Zn102 N106 2.020 . S
Zn102 O110 2.019 . S
Zn102 N112 2.119 . S
Zn102 O120 1.975 . S
C103 N104 1.325 1_556 S
C103 N107 1.336 . S
N104 C103 1.325 1_554 S
N104 C105 1.343 . S
C105 N104 1.343 . S
C105 N106 1.336 . S
N106 Zn102 2.020 . S
N106 C105 1.336 . S
N106 N107 1.354 1_554 S
N107 C103 1.336 . S
N107 N106 1.354 1_556 S
N107 Zn111 2.020 . S
C108 O109 1.244 1_556 S
C108 O132 1.257 . S
O109 C108 1.244 1_554 S
O110 Zn102 2.019 . S
O110 C130 1.257 . S
Zn111 N107 2.020 . S
Zn111 O118 1.975 . S
Zn111 N127 2.119 . S
Zn111 O132 2.019 . S
N112 Zn102 2.119 . S
N112 C114 1.334 . S
N112 C115 1.328 . S
C113 C114 1.391 . S
C113 N116 1.329 . S
C113 H134 0.930 . S
C114 N112 1.334 . S
C114 C113 1.391 . S
C114 H121 0.930 . S
C115 N112 1.328 . S
C115 C117 1.392 . S
C115 H122 0.930 . S
N116 C113 1.329 . S
N116 C117 1.331 . S
C117 C115 1.392 . S
C117 N116 1.331 . S
O118 Zn111 1.975 . S
O118 C119 1.253 . S
C119 O118 1.253 . S
C119 O120 1.251 1_556 S
O120 Zn102 1.975 . S
O120 C119 1.251 1_554 S
H121 C114 0.930 . S
H122 C115 0.930 . S
C123 C124 1.392 . S
C123 N127 1.328 . S
C123 H129 0.930 . S
C124 C123 1.392 . S
C124 N128 1.331 . S
C125 C126 1.391 . S
C125 N128 1.329 . S
C125 H135 0.930 . S
C126 C125 1.391 . S
C126 N127 1.334 . S
C126 H133 0.930 . S
N127 Zn111 2.119 . S
N127 C123 1.328 . S
N127 C126 1.334 . S
N128 C124 1.331 . S
N128 C125 1.329 . S
H129 C123 0.930 . S
C130 O110 1.257 . S
C130 O131 1.244 1_554 S
O131 C130 1.244 1_556 S
O132 C108 1.257 . S
O132 Zn111 2.019 . S
H133 C126 0.930 . S
H134 C113 0.930 . S
H135 C125 0.930 . S
Zn136 N140 2.020 . S
Zn136 O144 2.019 . S
Zn136 N146 2.119 . S
Zn136 O154 1.975 . S
C137 N138 1.343 . S
C137 N141 1.336 . S
N138 C137 1.343 . S
N138 C139 1.325 1_554 S
C139 N138 1.325 1_556 S
C139 N140 1.336 . S
N140 Zn136 2.020 . S
N140 C139 1.336 . S
N140 N141 1.354 1_556 S
N141 C137 1.336 . S
N141 N140 1.354 1_554 S
N141 Zn145 2.020 . S
C142 O143 1.244 1_554 S
C142 O166 1.257 . S
O143 C142 1.244 1_556 S
O144 Zn136 2.019 . S
O144 C164 1.257 . S
Zn145 N141 2.020 . S
Zn145 O152 1.975 . S
Zn145 N161 2.119 . S
Zn145 O166 2.019 . S
N146 Zn136 2.119 . S
N146 C148 1.334 . S
N146 C149 1.328 . S
C147 C148 1.391 . S
C147 N150 1.329 . S
C147 H168 0.930 . S
C148 N146 1.334 . S
C148 C147 1.391 . S
C148 H155 0.930 . S
C149 N146 1.328 . S
C149 C151 1.392 . S
C149 H156 0.930 . S
N150 C147 1.329 . S
N150 C151 1.331 . S
C151 C149 1.392 . S
C151 N150 1.331 . S
O152 Zn145 1.975 . S
O152 C153 1.251 1_554 S
C153 O152 1.251 1_556 S
C153 O154 1.253 . S
O154 Zn136 1.975 . S
O154 C153 1.253 . S
H155 C148 0.930 . S
H156 C149 0.930 . S
C157 C158 1.392 . S
C157 N161 1.328 . S
C157 H163 0.930 . S
C158 C157 1.392 . S
C158 N162 1.331 . S
C159 C160 1.391 . S
C159 N162 1.329 . S
C159 H169 0.930 . S
C160 C159 1.391 . S
C160 N161 1.334 . S
C160 H167 0.930 . S
N161 Zn145 2.119 . S
N161 C157 1.328 . S
N161 C160 1.334 . S
N162 C158 1.331 . S
N162 C159 1.329 . S
H163 C157 0.930 . S
C164 O144 1.257 . S
C164 O165 1.244 1_556 S
O165 C164 1.244 1_554 S
O166 C142 1.257 . S
O166 Zn145 2.019 . S
H167 C160 0.930 . S
H168 C147 0.930 . S
H169 C159 0.930 . S
Zn170 N174 2.020 . S
Zn170 O178 2.019 . S
Zn170 N180 2.119 . S
Zn170 O188 1.975 . S
C171 N172 1.325 1_556 S
C171 N175 1.336 . S
N172 C171 1.325 1_554 S
N172 C173 1.343 . S
C173 N172 1.343 . S
C173 N174 1.336 . S
N174 Zn170 2.020 . S
N174 C173 1.336 . S
N174 N175 1.354 1_554 S
N175 C171 1.336 . S
N175 N174 1.354 1_556 S
N175 Zn179 2.020 . S
C176 O177 1.244 1_556 S
C176 O200 1.257 . S
O177 C176 1.244 1_554 S
O178 Zn170 2.019 . S
O178 C198 1.257 . S
Zn179 N175 2.020 . S
Zn179 O186 1.975 . S
Zn179 N195 2.119 . S
Zn179 O200 2.019 . S
N180 Zn170 2.119 . S
N180 C182 1.334 . S
N180 C183 1.328 . S
C181 C182 1.391 . S
C181 N184 1.329 . S
C181 H202 0.930 . S
C182 N180 1.334 . S
C182 C181 1.391 . S
C182 H189 0.930 . S
C183 N180 1.328 . S
C183 C185 1.392 . S
C183 H190 0.930 . S
N184 C181 1.329 . S
N184 C185 1.331 . S
C185 C183 1.392 . S
C185 N184 1.331 . S
O186 Zn179 1.975 . S
O186 C187 1.253 . S
C187 O186 1.253 . S
C187 O188 1.251 1_556 S
O188 Zn170 1.975 . S
O188 C187 1.251 1_554 S
H189 C182 0.930 . S
H190 C183 0.930 . S
C191 C192 1.392 . S
C191 N195 1.328 . S
C191 H197 0.930 . S
C192 C191 1.392 . S
C192 N196 1.331 . S
C193 C194 1.391 . S
C193 N196 1.329 . S
C193 H203 0.930 . S
C194 C193 1.391 . S
C194 N195 1.334 . S
C194 H201 0.930 . S
N195 Zn179 2.119 . S
N195 C191 1.328 . S
N195 C194 1.334 . S
N196 C192 1.331 . S
N196 C193 1.329 . S
H197 C191 0.930 . S
C198 O178 1.257 . S
C198 O199 1.244 1_554 S
O199 C198 1.244 1_556 S
O200 C176 1.257 . S
O200 Zn179 2.019 . S
H201 C194 0.930 . S
H202 C181 0.930 . S
H203 C193 0.930 . S
Zn204 N208 2.020 . S
Zn204 O212 2.019 . S
Zn204 N214 2.119 . S
Zn204 O222 1.975 . S
C205 N206 1.334 . S
C205 N209 1.336 . S
N206 C205 1.334 . S
N206 C207 1.334 . S
C207 N206 1.334 . S
C207 N208 1.336 . S
N208 Zn204 2.020 . S
N208 C207 1.336 . S
N208 N209 1.354 . S
N209 C205 1.336 . S
N209 N208 1.354 . S
N209 Zn213 2.020 . S
C210 O211 1.244 . S
C210 O234 1.257 . S
O211 C210 1.244 . S
O212 Zn204 2.019 . S
O212 C232 1.257 . S
Zn213 N209 2.020 . S
Zn213 O220 1.975 . S
Zn213 N229 2.119 . S
Zn213 O234 2.019 . S
N214 Zn204 2.119 . S
N214 C216 1.334 . S
N214 C217 1.328 . S
C215 C216 1.391 . S
C215 N218 1.329 . S
C215 H236 0.930 . S
C216 N214 1.334 . S
C216 C215 1.391 . S
C216 H223 0.930 . S
C217 N214 1.328 . S
C217 C219 1.392 . S
C217 H224 0.930 . S
N218 C215 1.329 . S
N218 C219 1.331 . S
C219 C217 1.392 . S
C219 N218 1.331 . S
O220 Zn213 1.975 . S
O220 C221 1.252 . S
C221 O220 1.252 . S
C221 O222 1.252 . S
O222 Zn204 1.975 . S
O222 C221 1.252 . S
H223 C216 0.930 . S
H224 C217 0.930 . S
C225 C226 1.392 . S
C225 N229 1.328 . S
C225 H231 0.930 . S
C226 C225 1.392 . S
C226 N230 1.331 . S
C227 C228 1.391 . S
C227 N230 1.329 . S
C227 H237 0.930 . S
C228 C227 1.391 . S
C228 N229 1.334 . S
C228 H235 0.930 . S
N229 Zn213 2.119 . S
N229 C225 1.328 . S
N229 C228 1.334 . S
N230 C226 1.331 . S
N230 C227 1.329 . S
H231 C225 0.930 . S
C232 O212 1.257 . S
C232 O233 1.244 . S
O233 C232 1.244 . S
O234 C210 1.257 . S
O234 Zn213 2.019 . S
H235 C228 0.930 . S
H236 C215 0.930 . S
H237 C227 0.930 . S
Zn238 N242 2.020 . S
Zn238 O246 2.019 . S
Zn238 N248 2.119 . S
Zn238 O256 1.975 . S
C239 N240 1.334 . S
C239 N243 1.336 . S
N240 C239 1.334 . S
N240 C241 1.334 . S
C241 N240 1.334 . S
C241 N242 1.336 . S
N242 Zn238 2.020 . S
N242 C241 1.336 . S
N242 N243 1.354 . S
N243 C239 1.336 . S
N243 N242 1.354 . S
N243 Zn247 2.020 . S
C244 O245 1.244 . S
C244 O268 1.257 . S
O245 C244 1.244 . S
O246 Zn238 2.019 . S
O246 C266 1.257 . S
Zn247 N243 2.020 . S
Zn247 O254 1.975 . S
Zn247 N263 2.119 . S
Zn247 O268 2.019 . S
N248 Zn238 2.119 . S
N248 C250 1.334 . S
N248 C251 1.328 . S
C249 C250 1.391 . S
C249 N252 1.329 . S
C249 H270 0.930 . S
C250 N248 1.334 . S
C250 C249 1.391 . S
C250 H257 0.930 . S
C251 N248 1.328 . S
C251 C253 1.392 . S
C251 H258 0.930 . S
N252 C249 1.329 . S
N252 C253 1.331 . S
C253 C251 1.392 . S
C253 N252 1.331 . S
O254 Zn247 1.975 . S
O254 C255 1.252 . S
C255 O254 1.252 . S
C255 O256 1.252 . S
O256 Zn238 1.975 . S
O256 C255 1.252 . S
H257 C250 0.930 . S
H258 C251 0.930 . S
C259 C260 1.392 . S
C259 N263 1.328 . S
C259 H265 0.930 . S
C260 C259 1.392 . S
C260 N264 1.331 . S
C261 C262 1.391 . S
C261 N264 1.329 . S
C261 H271 0.930 . S
C262 C261 1.391 . S
C262 N263 1.334 . S
C262 H269 0.930 . S
N263 Zn247 2.119 . S
N263 C259 1.328 . S
N263 C262 1.334 . S
N264 C260 1.331 . S
N264 C261 1.329 . S
H265 C259 0.930 . S
C266 O246 1.257 . S
C266 O267 1.244 . S
O267 C266 1.244 . S
O268 C244 1.257 . S
O268 Zn247 2.019 . S
H269 C262 0.930 . S
H270 C249 0.930 . S
H271 C261 0.930 . S
Zn272 N276 2.020 . S
Zn272 O280 2.019 . S
Zn272 N282 2.119 . S
Zn272 O290 1.975 . S
C273 N274 1.334 . S
C273 N277 1.336 . S
N274 C273 1.334 . S
N274 C275 1.334 . S
C275 N274 1.334 . S
C275 N276 1.336 . S
N276 Zn272 2.020 . S
N276 C275 1.336 . S
N276 N277 1.354 . S
N277 C273 1.336 . S
N277 N276 1.354 . S
N277 Zn281 2.020 . S
C278 O279 1.244 . S
C278 O302 1.257 . S
O279 C278 1.244 . S
O280 Zn272 2.019 . S
O280 C300 1.257 . S
Zn281 N277 2.020 . S
Zn281 O288 1.975 . S
Zn281 N297 2.119 . S
Zn281 O302 2.019 . S
N282 Zn272 2.119 . S
N282 C284 1.334 . S
N282 C285 1.328 . S
C283 C284 1.391 . S
C283 N286 1.329 . S
C283 H304 0.930 . S
C284 N282 1.334 . S
C284 C283 1.391 . S
C284 H291 0.930 . S
C285 N282 1.328 . S
C285 C287 1.392 . S
C285 H292 0.930 . S
N286 C283 1.329 . S
N286 C287 1.331 . S
C287 C285 1.392 . S
C287 N286 1.331 . S
O288 Zn281 1.975 . S
O288 C289 1.252 . S
C289 O288 1.252 . S
C289 O290 1.252 . S
O290 Zn272 1.975 . S
O290 C289 1.252 . S
H291 C284 0.930 . S
H292 C285 0.930 . S
C293 C294 1.392 . S
C293 N297 1.328 . S
C293 H299 0.930 . S
C294 C293 1.392 . S
C294 N298 1.331 . S
C295 C296 1.391 . S
C295 N298 1.329 . S
C295 H305 0.930 . S
C296 C295 1.391 . S
C296 N297 1.334 . S
C296 H303 0.930 . S
N297 Zn281 2.119 . S
N297 C293 1.328 . S
N297 C296 1.334 . S
N298 C294 1.331 . S
N298 C295 1.329 . S
H299 C293 0.930 . S
C300 O280 1.257 . S
C300 O301 1.244 . S
O301 C300 1.244 . S
O302 C278 1.257 . S
O302 Zn281 2.019 . S
H303 C296 0.930 . S
H304 C283 0.930 . S
H305 C295 0.930 . S
Zn306 N310 2.020 . S
Zn306 O314 2.019 . S
Zn306 N316 2.119 . S
Zn306 O324 1.975 . S
C307 N308 1.334 . S
C307 N311 1.336 . S
N308 C307 1.334 . S
N308 C309 1.334 . S
C309 N308 1.334 . S
C309 N310 1.336 . S
N310 Zn306 2.020 . S
N310 C309 1.336 . S
N310 N311 1.354 . S
N311 C307 1.336 . S
N311 N310 1.354 . S
N311 Zn315 2.020 . S
C312 O313 1.244 . S
C312 O336 1.257 . S
O313 C312 1.244 . S
O314 Zn306 2.019 . S
O314 C334 1.257 . S
Zn315 N311 2.020 . S
Zn315 O322 1.975 . S
Zn315 N331 2.119 . S
Zn315 O336 2.019 . S
N316 Zn306 2.119 . S
N316 C318 1.334 . S
N316 C319 1.328 . S
C317 C318 1.391 . S
C317 N320 1.329 . S
C317 H338 0.930 . S
C318 N316 1.334 . S
C318 C317 1.391 . S
C318 H325 0.930 . S
C319 N316 1.328 . S
C319 C321 1.392 . S
C319 H326 0.930 . S
N320 C317 1.329 . S
N320 C321 1.331 . S
C321 C319 1.392 . S
C321 N320 1.331 . S
O322 Zn315 1.975 . S
O322 C323 1.252 . S
C323 O322 1.252 . S
C323 O324 1.252 . S
O324 Zn306 1.975 . S
O324 C323 1.252 . S
H325 C318 0.930 . S
H326 C319 0.930 . S
C327 C328 1.392 . S
C327 N331 1.328 . S
C327 H333 0.930 . S
C328 C327 1.392 . S
C328 N332 1.331 . S
C329 C330 1.391 . S
C329 N332 1.329 . S
C329 H339 0.930 . S
C330 C329 1.391 . S
C330 N331 1.334 . S
C330 H337 0.930 . S
N331 Zn315 2.119 . S
N331 C327 1.328 . S
N331 C330 1.334 . S
N332 C328 1.331 . S
N332 C329 1.329 . S
H333 C327 0.930 . S
C334 O314 1.257 . S
C334 O335 1.244 . S
O335 C334 1.244 . S
O336 C312 1.257 . S
O336 Zn315 2.019 . S
H337 C330 0.930 . S
H338 C317 0.930 . S
H339 C329 0.930 . S
Zn340 N344 2.020 . S
Zn340 O348 2.019 . S
Zn340 N350 2.119 . S
Zn340 O358 1.975 . S
C341 N342 1.334 . S
C341 N345 1.336 . S
N342 C341 1.334 . S
N342 C343 1.334 . S
C343 N342 1.334 . S
C343 N344 1.336 . S
N344 Zn340 2.020 . S
N344 C343 1.336 . S
N344 N345 1.354 . S
N345 C341 1.336 . S
N345 N344 1.354 . S
N345 Zn349 2.020 . S
C346 O347 1.244 . S
C346 O370 1.257 . S
O347 C346 1.244 . S
O348 Zn340 2.019 . S
O348 C368 1.257 . S
Zn349 N345 2.020 . S
Zn349 O356 1.975 . S
Zn349 N365 2.119 . S
Zn349 O370 2.019 . S
N350 Zn340 2.119 . S
N350 C352 1.334 . S
N350 C353 1.328 . S
C351 C352 1.391 . S
C351 N354 1.329 . S
C351 H372 0.930 . S
C352 N350 1.334 . S
C352 C351 1.391 . S
C352 H359 0.930 . S
C353 N350 1.328 . S
C353 C355 1.392 . S
C353 H360 0.930 . S
N354 C351 1.329 . S
N354 C355 1.331 . S
C355 C353 1.392 . S
C355 N354 1.331 . S
O356 Zn349 1.975 . S
O356 C357 1.252 . S
C357 O356 1.252 . S
C357 O358 1.252 . S
O358 Zn340 1.975 . S
O358 C357 1.252 . S
H359 C352 0.930 . S
H360 C353 0.930 . S
C361 C362 1.392 . S
C361 N365 1.328 . S
C361 H367 0.930 . S
C362 C361 1.392 . S
C362 N366 1.331 . S
C363 C364 1.391 . S
C363 N366 1.329 . S
C363 H373 0.930 . S
C364 C363 1.391 . S
C364 N365 1.334 . S
C364 H371 0.930 . S
N365 Zn349 2.119 . S
N365 C361 1.328 . S
N365 C364 1.334 . S
N366 C362 1.331 . S
N366 C363 1.329 . S
H367 C361 0.930 . S
C368 O348 1.257 . S
C368 O369 1.244 . S
O369 C368 1.244 . S
O370 C346 1.257 . S
O370 Zn349 2.019 . S
H371 C364 0.930 . S
H372 C351 0.930 . S
H373 C363 0.930 . S
Zn374 N378 2.020 . S
Zn374 O382 2.019 . S
Zn374 N384 2.119 . S
Zn374 O392 1.975 . S
C375 N376 1.334 . S
C375 N379 1.336 . S
N376 C375 1.334 . S
N376 C377 1.334 . S
C377 N376 1.334 . S
C377 N378 1.336 . S
N378 Zn374 2.020 . S
N378 C377 1.336 . S
N378 N379 1.354 . S
N379 C375 1.336 . S
N379 N378 1.354 . S
N379 Zn383 2.020 . S
C380 O381 1.244 . S
C380 O404 1.257 . S
O381 C380 1.244 . S
O382 Zn374 2.019 . S
O382 C402 1.257 . S
Zn383 N379 2.020 . S
Zn383 O390 1.975 . S
Zn383 N399 2.119 . S
Zn383 O404 2.019 . S
N384 Zn374 2.119 . S
N384 C386 1.334 . S
N384 C387 1.328 . S
C385 C386 1.391 . S
C385 N388 1.329 . S
C385 H406 0.930 . S
C386 N384 1.334 . S
C386 C385 1.391 . S
C386 H393 0.930 . S
C387 N384 1.328 . S
C387 C389 1.392 . S
C387 H394 0.930 . S
N388 C385 1.329 . S
N388 C389 1.331 . S
C389 C387 1.392 . S
C389 N388 1.331 . S
O390 Zn383 1.975 . S
O390 C391 1.252 . S
C391 O390 1.252 . S
C391 O392 1.252 . S
O392 Zn374 1.975 . S
O392 C391 1.252 . S
H393 C386 0.930 . S
H394 C387 0.930 . S
C395 C396 1.392 . S
C395 N399 1.328 . S
C395 H401 0.930 . S
C396 C395 1.392 . S
C396 N400 1.331 . S
C397 C398 1.391 . S
C397 N400 1.329 . S
C397 H407 0.930 . S
C398 C397 1.391 . S
C398 N399 1.334 . S
C398 H405 0.930 . S
N399 Zn383 2.119 . S
N399 C395 1.328 . S
N399 C398 1.334 . S
N400 C396 1.331 . S
N400 C397 1.329 . S
H401 C395 0.930 . S
C402 O382 1.257 . S
C402 O403 1.244 . S
O403 C402 1.244 . S
O404 C380 1.257 . S
O404 Zn383 2.019 . S
H405 C398 0.930 . S
H406 C385 0.930 . S
H407 C397 0.930 . S
H408 C416 0.950 . S
H409 C421 0.950 . S
H410 C418 0.950 . S
H411 C420 0.950 . S
H412 C422 0.950 . S
H413 C424 0.950 . S
H414 C426 0.950 . S
H415 C427 0.950 . S
C416 H408 0.950 . S
C416 C417 1.386 . S
C416 C418 1.391 1_545 S
C417 C416 1.386 . S
C417 C421 1.393 . S
C418 H410 0.950 . S
C418 C416 1.391 1_565 S
C418 C419 1.400 . S
C419 C418 1.400 . S
C419 C420 1.398 . S
C419 C425 1.491 . S
C420 H411 0.950 . S
C420 C419 1.398 . S
C420 C421 1.391 1_565 S
C421 H409 0.950 . S
C421 C417 1.393 . S
C421 C420 1.391 1_545 S
C422 H412 0.950 . S
C422 C423 1.383 1_556 S
C422 C424 1.391 . S
C423 C422 1.383 1_554 S
C423 C427 1.394 . S
C424 H413 0.950 . S
C424 C422 1.391 . S
C424 C425 1.400 . S
C425 C419 1.491 . S
C425 C424 1.400 . S
C425 C426 1.398 . S
C426 H414 0.950 . S
C426 C425 1.398 . S
C426 C427 1.391 1_556 S
C427 H415 0.950 . S
C427 C423 1.394 . S
C427 C426 1.391 1_554 S
H428 C436 0.950 . S
H429 C441 0.950 . S
H430 C438 0.950 1_554 S
H431 C440 0.950 . S
H432 C442 0.950 . S
H433 C444 0.950 . S
H434 C446 0.950 . S
H435 C447 0.950 . S
C436 H428 0.950 . S
C436 C437 1.386 . S
C436 C438 1.391 . S
C437 C436 1.386 . S
C437 C441 1.393 . S
C438 H430 0.950 1_556 S
C438 C436 1.391 . S
C438 C439 1.400 . S
C439 C438 1.400 . S
C439 C440 1.398 . S
C439 C445 1.491 . S
C440 H431 0.950 . S
C440 C439 1.398 . S
C440 C441 1.391 . S
C441 H429 0.950 . S
C441 C437 1.393 . S
C441 C440 1.391 . S
C442 H432 0.950 . S
C442 C443 1.379 1_556 S
C442 C444 1.391 . S
C443 C442 1.379 1_554 S
C443 C447 1.398 . S
C444 H433 0.950 . S
C444 C442 1.391 . S
C444 C445 1.400 . S
C445 C439 1.491 . S
C445 C444 1.400 . S
C445 C446 1.398 1_556 S
C446 H434 0.950 . S
C446 C445 1.398 1_554 S
C446 C447 1.391 . S
C447 H435 0.950 . S
C447 C443 1.398 . S
C447 C446 1.391 . S
H448 C456 0.950 . S
H449 C461 0.950 . S
H450 C458 0.950 . S
H451 C460 0.950 . S
H452 C462 0.950 . S
H453 C464 0.950 . S
H454 C466 0.950 . S
H455 C467 0.950 . S
C456 H448 0.950 . S
C456 C457 1.386 1_554 S
C456 C458 1.391 1_655 S
C457 C456 1.386 1_556 S
C457 C461 1.393 . S
C458 H450 0.950 . S
C458 C456 1.391 1_455 S
C458 C459 1.400 1_554 S
C459 C458 1.400 1_556 S
C459 C460 1.398 . S
C459 C465 1.491 . S
C460 H451 0.950 . S
C460 C459 1.398 . S
C460 C461 1.391 1_455 S
C461 H449 0.950 . S
C461 C457 1.393 . S
C461 C460 1.391 1_655 S
C462 H452 0.950 . S
C462 C463 1.386 . S
C462 C464 1.391 . S
C463 C462 1.386 . S
C463 C467 1.393 1_556 S
C464 H453 0.950 . S
C464 C462 1.391 . S
C464 C465 1.400 . S
C465 C459 1.491 . S
C465 C464 1.400 . S
C465 C466 1.398 1_556 S
C466 H454 0.950 . S
C466 C465 1.398 1_554 S
C466 C467 1.391 . S
C467 H455 0.950 . S
C467 C463 1.393 1_554 S
C467 C466 1.391 . S
H468 C476 0.950 . S
H469 C481 0.950 . S
H470 C478 0.950 . S
H471 C480 0.950 1_554 S
H472 C482 0.950 . S
H473 C484 0.948 1_554 S
H474 C486 0.950 . S
H475 C487 0.950 . S
C476 H468 0.950 . S
C476 C477 1.386 . S
C476 C478 1.391 1_565 S
C477 C476 1.386 . S
C477 C481 1.393 . S
C478 H470 0.950 . S
C478 C476 1.391 1_545 S
C478 C479 1.400 . S
C479 C478 1.400 . S
C479 C480 1.398 . S
C479 C485 1.491 . S
C480 H471 0.950 1_556 S
C480 C479 1.398 . S
C480 C481 1.391 1_545 S
C481 H469 0.950 . S
C481 C477 1.393 . S
C481 C480 1.391 1_565 S
C482 H472 0.950 . S
C482 C483 1.386 1_554 S
C482 C484 1.390 1_554 S
C483 C482 1.386 1_556 S
C483 C487 1.393 . S
C484 H473 0.948 1_556 S
C484 C482 1.390 1_556 S
C484 C485 1.404 . S
C485 C479 1.491 . S
C485 C484 1.404 . S
C485 C486 1.398 . S
C486 H474 0.950 . S
C486 C485 1.398 . S
C486 C487 1.391 . S
C487 H475 0.950 . S
C487 C483 1.393 . S
C487 C486 1.391 . S
H488 C496 0.950 . S
H489 C501 0.950 . S
H490 C498 0.950 . S
H491 C500 0.950 . S
H492 C502 0.950 . S
H493 C504 0.950 . S
H494 C506 0.950 . S
H495 C507 0.950 . S
C496 H488 0.950 . S
C496 C497 1.386 . S
C496 C498 1.391 . S
C497 C496 1.386 . S
C497 C501 1.393 1_556 S
C498 H490 0.950 . S
C498 C496 1.391 . S
C498 C499 1.400 . S
C499 C498 1.400 . S
C499 C500 1.398 1_556 S
C499 C505 1.491 . S
C500 H491 0.950 . S
C500 C499 1.398 1_554 S
C500 C501 1.391 . S
C501 H489 0.950 . S
C501 C497 1.393 1_554 S
C501 C500 1.391 . S
C502 H492 0.950 . S
C502 C503 1.383 . S
C502 C504 1.391 . S
C503 C502 1.383 . S
C503 C507 1.395 1_554 S
C504 H493 0.950 . S
C504 C502 1.391 . S
C504 C505 1.400 1_554 S
C505 C499 1.491 . S
C505 C504 1.400 1_556 S
C505 C506 1.398 . S
C506 H494 0.950 . S
C506 C505 1.398 . S
C506 C507 1.391 . S
C507 H495 0.950 . S
C507 C503 1.395 1_556 S
C507 C506 1.391 . S
H508 C516 0.950 . S
H509 C521 0.950 . S
H510 C518 0.950 . S
H511 C520 0.950 . S
H512 C522 0.950 . S
H513 C524 0.950 . S
H514 C526 0.950 . S
H515 C527 0.950 . S
C516 H508 0.950 . S
C516 C517 1.386 1_554 S
C516 C518 1.391 1_455 S
C517 C516 1.386 1_556 S
C517 C521 1.393 . S
C518 H510 0.950 . S
C518 C516 1.391 1_655 S
C518 C519 1.400 1_554 S
C519 C518 1.400 1_556 S
C519 C520 1.398 . S
C519 C525 1.491 . S
C520 H511 0.950 . S
C520 C519 1.398 . S
C520 C521 1.391 1_655 S
C521 H509 0.950 . S
C521 C517 1.393 . S
C521 C520 1.391 1_455 S
C522 H512 0.950 . S
C522 C523 1.386 . S
C522 C524 1.391 . S
C523 C522 1.386 . S
C523 C527 1.393 1_556 S
C524 H513 0.950 . S
C524 C522 1.391 . S
C524 C525 1.400 . S
C525 C519 1.491 . S
C525 C524 1.400 . S
C525 C526 1.398 1_556 S
C526 H514 0.950 . S
C526 C525 1.398 1_554 S
C526 C527 1.391 . S
C527 H515 0.950 . S
C527 C523 1.393 1_554 S
C527 C526 1.391 . S
H528 C536 0.950 . S
H529 C541 0.950 . S
H530 C538 0.950 . S
H531 C540 0.950 . S
H532 C542 0.950 . S
H533 C544 0.950 . S
H534 C546 0.950 . S
H535 C547 0.950 . S
C536 H528 0.950 . S
C536 C537 1.386 . S
C536 C538 1.391 1_655 S
C537 C536 1.386 . S
C537 C541 1.393 . S
C538 H530 0.950 . S
C538 C536 1.391 1_455 S
C538 C539 1.400 . S
C539 C538 1.400 . S
C539 C540 1.398 . S
C539 C545 1.491 . S
C540 H531 0.950 . S
C540 C539 1.398 . S
C540 C541 1.391 1_455 S
C541 H529 0.950 . S
C541 C537 1.393 . S
C541 C540 1.391 1_655 S
C542 H532 0.950 . S
C542 C543 1.386 . S
C542 C544 1.391 . S
C543 C542 1.386 . S
C543 C547 1.393 . S
C544 H533 0.950 . S
C544 C542 1.391 . S
C544 C545 1.400 . S
C545 C539 1.491 . S
C545 C544 1.400 . S
C545 C546 1.398 . S
C546 H534 0.950 . S
C546 C545 1.398 . S
C546 C547 1.391 . S
C547 H535 0.950 . S
C547 C543 1.393 . S
C547 C546 1.391 . S
H548 C556 0.950 . S
H549 C561 0.950 . S
H550 C558 0.950 . S
H551 C560 0.950 . S
H552 C562 0.950 . S
H553 C564 0.950 . S
H554 C566 0.950 . S
H555 C567 0.950 . S
C556 H548 0.950 . S
C556 C557 1.386 . S
C556 C558 1.391 1_565 S
C557 C556 1.386 . S
C557 C561 1.393 . S
C558 H550 0.950 . S
C558 C556 1.391 1_545 S
C558 C559 1.400 . S
C559 C558 1.400 . S
C559 C560 1.398 . S
C559 C565 1.491 . S
C560 H551 0.950 . S
C560 C559 1.398 . S
C560 C561 1.391 1_545 S
C561 H549 0.950 . S
C561 C557 1.393 . S
C561 C560 1.391 1_565 S
C562 H552 0.950 . S
C562 C563 1.386 . S
C562 C564 1.391 . S
C563 C562 1.386 . S
C563 C567 1.393 . S
C564 H553 0.950 . S
C564 C562 1.391 . S
C564 C565 1.400 . S
C565 C559 1.491 . S
C565 C564 1.400 . S
C565 C566 1.398 . S
C566 H554 0.950 . S
C566 C565 1.398 . S
C566 C567 1.391 . S
C567 H555 0.950 . S
C567 C563 1.393 . S
C567 C566 1.391 . S
H568 C576 0.950 . S
H569 C581 0.950 . S
H570 C578 0.950 . S
H571 C580 0.950 . S
H572 C582 0.950 . S
H573 C584 0.950 . S
H574 C586 0.950 . S
H575 C587 0.950 . S
C576 H568 0.950 . S
C576 C577 1.386 . S
C576 C578 1.391 . S
C577 C576 1.386 . S
C577 C581 1.393 . S
C578 H570 0.950 . S
C578 C576 1.391 . S
C578 C579 1.400 . S
C579 C578 1.400 . S
C579 C580 1.398 . S
C579 C585 1.491 . S
C580 H571 0.950 . S
C580 C579 1.398 . S
C580 C581 1.391 . S
C581 H569 0.950 . S
C581 C577 1.393 . S
C581 C580 1.391 . S
C582 H572 0.950 . S
C582 C583 1.386 . S
C582 C584 1.391 . S
C583 C582 1.386 . S
C583 C587 1.393 . S
C584 H573 0.950 . S
C584 C582 1.391 . S
C584 C585 1.400 . S
C585 C579 1.491 . S
C585 C584 1.400 . S
C585 C586 1.398 . S
C586 H574 0.950 . S
C586 C585 1.398 . S
C586 C587 1.391 . S
C587 H575 0.950 . S
C587 C583 1.393 . S
C587 C586 1.391 . S
H588 C596 0.950 . S
H589 C601 0.950 . S
H590 C598 0.950 . S
H591 C600 0.950 . S
H592 C602 0.950 . S
H593 C604 0.950 . S
H594 C606 0.950 . S
H595 C607 0.950 . S
C596 H588 0.950 . S
C596 C597 1.386 . S
C596 C598 1.391 . S
C597 C596 1.386 . S
C597 C601 1.393 . S
C598 H590 0.950 . S
C598 C596 1.391 . S
C598 C599 1.400 . S
C599 C598 1.400 . S
C599 C600 1.398 . S
C599 C605 1.491 . S
C600 H591 0.950 . S
C600 C599 1.398 . S
C600 C601 1.391 . S
C601 H589 0.950 . S
C601 C597 1.393 . S
C601 C600 1.391 . S
C602 H592 0.950 . S
C602 C603 1.386 . S
C602 C604 1.391 1_455 S
C603 C602 1.386 . S
C603 C607 1.393 . S
C604 H593 0.950 . S
C604 C602 1.391 1_655 S
C604 C605 1.400 . S
C605 C599 1.491 . S
C605 C604 1.400 . S
C605 C606 1.398 . S
C606 H594 0.950 . S
C606 C605 1.398 . S
C606 C607 1.391 1_655 S
C607 H595 0.950 . S
C607 C603 1.393 . S
C607 C606 1.391 1_455 S
H608 C616 0.950 . S
H609 C621 0.950 . S
H610 C618 0.950 . S
H611 C620 0.950 . S
H612 C622 0.950 . S
H613 C624 0.950 . S
H614 C626 0.950 . S
H615 C627 0.950 . S
C616 H608 0.950 . S
C616 C617 1.386 . S
C616 C618 1.391 . S
C617 C616 1.386 . S
C617 C621 1.393 . S
C618 H610 0.950 . S
C618 C616 1.391 . S
C618 C619 1.400 . S
C619 C618 1.400 . S
C619 C620 1.398 . S
C619 C625 1.491 . S
C620 H611 0.950 . S
C620 C619 1.398 . S
C620 C621 1.391 . S
C621 H609 0.950 . S
C621 C617 1.393 . S
C621 C620 1.391 . S
C622 H612 0.950 . S
C622 C623 1.386 . S
C622 C624 1.391 1_545 S
C623 C622 1.386 . S
C623 C627 1.393 . S
C624 H613 0.950 . S
C624 C622 1.391 1_565 S
C624 C625 1.400 . S
C625 C619 1.491 . S
C625 C624 1.400 . S
C625 C626 1.398 . S
C626 H614 0.950 . S
C626 C625 1.398 . S
C626 C627 1.391 1_565 S
C627 H615 0.950 . S
C627 C623 1.393 . S
C627 C626 1.391 1_545 S
H628 C636 0.950 . S
H629 C641 0.950 . S
H630 C638 0.950 . S
H631 C640 0.950 . S
H632 C642 0.950 . S
H633 C644 0.950 . S
H634 C646 0.950 . S
H635 C647 0.950 . S
C636 H628 0.950 . S
C636 C637 1.386 . S
C636 C638 1.391 . S
C637 C636 1.386 . S
C637 C641 1.393 . S
C638 H630 0.950 . S
C638 C636 1.391 . S
C638 C639 1.400 . S
C639 C638 1.400 . S
C639 C640 1.398 . S
C639 C645 1.491 . S
C640 H631 0.950 . S
C640 C639 1.398 . S
C640 C641 1.391 . S
C641 H629 0.950 . S
C641 C637 1.393 . S
C641 C640 1.391 . S
C642 H632 0.950 . S
C642 C643 1.386 . S
C642 C644 1.391 . S
C643 C642 1.386 . S
C643 C647 1.393 . S
C644 H633 0.950 . S
C644 C642 1.391 . S
C644 C645 1.400 . S
C645 C639 1.491 . S
C645 C644 1.400 . S
C645 C646 1.398 . S
C646 H634 0.950 . S
C646 C645 1.398 . S
C646 C647 1.391 . S
C647 H635 0.950 . S
C647 C643 1.393 . S
C647 C646 1.391 . S
H648 C656 0.950 . S
H649 C661 0.950 . S
H650 C658 0.950 . S
H651 C660 0.950 . S
H652 C662 0.950 . S
H653 C664 0.950 . S
H654 C666 0.950 . S
H655 C667 0.950 . S
C656 H648 0.950 . S
C656 C657 1.386 . S
C656 C658 1.391 . S
C657 C656 1.386 . S
C657 C661 1.393 . S
C658 H650 0.950 . S
C658 C656 1.391 . S
C658 C659 1.400 . S
C659 C658 1.400 . S
C659 C660 1.398 . S
C659 C665 1.491 . S
C660 H651 0.950 . S
C660 C659 1.398 . S
C660 C661 1.391 . S
C661 H649 0.950 . S
C661 C657 1.393 . S
C661 C660 1.391 . S
C662 H652 0.950 . S
C662 C663 1.386 . S
C662 C664 1.391 . S
C663 C662 1.386 . S
C663 C667 1.393 . S
C664 H653 0.950 . S
C664 C662 1.391 . S
C664 C665 1.400 . S
C665 C659 1.491 . S
C665 C664 1.400 . S
C665 C666 1.398 . S
C666 H654 0.950 . S
C666 C665 1.398 . S
C666 C667 1.391 . S
C667 H655 0.950 . S
C667 C663 1.393 . S
C667 C666 1.391 . S
H668 C676 0.950 . S
H669 C681 0.950 . S
H670 C678 0.950 . S
H671 C680 0.950 . S
H672 C682 0.950 . S
H673 C684 0.950 . S
H674 C686 0.950 . S
H675 C687 0.950 . S
C676 H668 0.950 . S
C676 C677 1.386 . S
C676 C678 1.391 . S
C677 C676 1.386 . S
C677 C681 1.393 . S
C678 H670 0.950 . S
C678 C676 1.391 . S
C678 C679 1.400 . S
C679 C678 1.400 . S
C679 C680 1.398 . S
C679 C685 1.491 . S
C680 H671 0.950 . S
C680 C679 1.398 . S
C680 C681 1.391 . S
C681 H669 0.950 . S
C681 C677 1.393 . S
C681 C680 1.391 . S
C682 H672 0.950 . S
C682 C683 1.386 . S
C682 C684 1.391 . S
C683 C682 1.386 . S
C683 C687 1.393 . S
C684 H673 0.950 . S
C684 C682 1.391 . S
C684 C685 1.400 . S
C685 C679 1.491 . S
C685 C684 1.400 . S
C685 C686 1.398 . S
C686 H674 0.950 . S
C686 C685 1.398 . S
C686 C687 1.391 . S
C687 H675 0.950 . S
C687 C683 1.393 . S
C687 C686 1.391 . S
H688 C696 0.950 . S
H689 C701 0.950 . S
H690 C698 0.950 . S
H691 C700 0.950 . S
H692 C702 0.950 . S
H693 C704 0.950 . S
H694 C706 0.950 . S
H695 C707 0.950 . S
C696 H688 0.950 . S
C696 C697 1.386 . S
C696 C698 1.391 . S
C697 C696 1.386 . S
C697 C701 1.393 . S
C698 H690 0.950 . S
C698 C696 1.391 . S
C698 C699 1.400 . S
C699 C698 1.400 . S
C699 C700 1.398 . S
C699 C705 1.491 . S
C700 H691 0.950 . S
C700 C699 1.398 . S
C700 C701 1.391 . S
C701 H689 0.950 . S
C701 C697 1.393 . S
C701 C700 1.391 . S
C702 H692 0.950 . S
C702 C703 1.386 . S
C702 C704 1.391 . S
C703 C702 1.386 . S
C703 C707 1.393 . S
C704 H693 0.950 . S
C704 C702 1.391 . S
C704 C705 1.400 . S
C705 C699 1.491 . S
C705 C704 1.400 . S
C705 C706 1.398 . S
C706 H694 0.950 . S
C706 C705 1.398 . S
C706 C707 1.391 . S
C707 H695 0.950 . S
C707 C703 1.393 . S
C707 C706 1.391 . S
H708 C716 0.950 . S
H709 C721 0.950 . S
H710 C718 0.950 . S
H711 C720 0.950 . S
H712 C722 0.950 . S
H713 C724 0.950 . S
H714 C726 0.950 . S
H715 C727 0.950 . S
C716 H708 0.950 . S
C716 C717 1.386 . S
C716 C718 1.391 . S
C717 C716 1.386 . S
C717 C721 1.393 . S
C718 H710 0.950 . S
C718 C716 1.391 . S
C718 C719 1.400 . S
C719 C718 1.400 . S
C719 C720 1.398 . S
C719 C725 1.491 . S
C720 H711 0.950 . S
C720 C719 1.398 . S
C720 C721 1.391 . S
C721 H709 0.950 . S
C721 C717 1.393 . S
C721 C720 1.391 . S
C722 H712 0.950 . S
C722 C723 1.386 . S
C722 C724 1.391 . S
C723 C722 1.386 . S
C723 C727 1.393 . S
C724 H713 0.950 . S
C724 C722 1.391 . S
C724 C725 1.400 . S
C725 C719 1.491 . S
C725 C724 1.400 . S
C725 C726 1.398 . S
C726 H714 0.950 . S
C726 C725 1.398 . S
C726 C727 1.391 . S
C727 H715 0.950 . S
C727 C723 1.393 . S
C727 C726 1.391 . S
H728 C736 0.950 . S
H729 C741 0.950 . S
H730 C738 0.950 . S
H731 C740 0.950 . S
H732 C742 0.950 . S
H733 C744 0.950 . S
H734 C746 0.950 . S
H735 C747 0.950 . S
C736 H728 0.950 . S
C736 C737 1.386 . S
C736 C738 1.391 . S
C737 C736 1.386 . S
C737 C741 1.393 . S
C738 H730 0.950 . S
C738 C736 1.391 . S
C738 C739 1.400 . S
C739 C738 1.400 . S
C739 C740 1.398 . S
C739 C745 1.491 . S
C740 H731 0.950 . S
C740 C739 1.398 . S
C740 C741 1.391 . S
C741 H729 0.950 . S
C741 C737 1.393 . S
C741 C740 1.391 . S
C742 H732 0.950 . S
C742 C743 1.386 . S
C742 C744 1.391 . S
C743 C742 1.386 . S
C743 C747 1.393 . S
C744 H733 0.950 . S
C744 C742 1.391 . S
C744 C745 1.400 . S
C745 C739 1.491 . S
C745 C744 1.400 . S
C745 C746 1.398 . S
C746 H734 0.950 . S
C746 C745 1.398 . S
C746 C747 1.391 . S
C747 H735 0.950 . S
C747 C743 1.393 . S
C747 C746 1.391 . S
H748 C756 0.950 . S
H749 C761 0.950 . S
H750 C758 0.950 . S
H751 C760 0.950 . S
H752 C762 0.950 . S
H753 C764 0.950 . S
H754 C766 0.950 . S
H755 C767 0.950 . S
C756 H748 0.950 . S
C756 C757 1.386 . S
C756 C758 1.391 . S
C757 C756 1.386 . S
C757 C761 1.393 . S
C758 H750 0.950 . S
C758 C756 1.391 . S
C758 C759 1.400 . S
C759 C758 1.400 . S
C759 C760 1.398 . S
C759 C765 1.491 . S
C760 H751 0.950 . S
C760 C759 1.398 . S
C760 C761 1.391 . S
C761 H749 0.950 . S
C761 C757 1.393 . S
C761 C760 1.391 . S
C762 H752 0.950 . S
C762 C763 1.386 . S
C762 C764 1.391 . S
C763 C762 1.386 . S
C763 C767 1.393 . S
C764 H753 0.950 . S
C764 C762 1.391 . S
C764 C765 1.400 . S
C765 C759 1.491 . S
C765 C764 1.400 . S
C765 C766 1.398 . S
C766 H754 0.950 . S
C766 C765 1.398 . S
C766 C767 1.391 . S
C767 H755 0.950 . S
C767 C763 1.393 . S
C767 C766 1.391 . S
H768 C776 0.950 . S
H769 C781 0.950 . S
H770 C778 0.950 . S
H771 C780 0.950 . S
H772 C782 0.950 . S
H773 C784 0.950 . S
H774 C786 0.950 . S
H775 C787 0.950 . S
C776 H768 0.950 . S
C776 C777 1.386 . S
C776 C778 1.391 . S
C777 C776 1.386 . S
C777 C781 1.393 . S
C778 H770 0.950 . S
C778 C776 1.391 . S
C778 C779 1.400 . S
C779 C778 1.400 . S
C779 C780 1.398 . S
C779 C785 1.491 . S
C780 H771 0.950 . S
C780 C779 1.398 . S
C780 C781 1.391 . S
C781 H769 0.950 . S
C781 C777 1.393 . S
C781 C780 1.391 . S
C782 H772 0.950 . S
C782 C783 1.386 . S
C782 C784 1.391 . S
C783 C782 1.386 . S
C783 C787 1.393 . S
C784 H773 0.950 . S
C784 C782 1.391 . S
C784 C785 1.400 . S
C785 C779 1.491 . S
C785 C784 1.400 . S
C785 C786 1.398 . S
C786 H774 0.950 . S
C786 C785 1.398 . S
C786 C787 1.391 . S
C787 H775 0.950 . S
C787 C783 1.393 . S
C787 C786 1.391 . S
H788 C796 0.950 . S
H789 C801 0.950 . S
H790 C798 0.950 . S
H791 C800 0.950 . S
H792 C802 0.950 . S
H793 C804 0.950 . S
H794 C806 0.950 . S
H795 C807 0.950 . S
C796 H788 0.950 . S
C796 C797 1.386 . S
C796 C798 1.391 . S
C797 C796 1.386 . S
C797 C801 1.393 . S
C798 H790 0.950 . S
C798 C796 1.391 . S
C798 C799 1.400 . S
C799 C798 1.400 . S
C799 C800 1.398 . S
C799 C805 1.491 . S
C800 H791 0.950 . S
C800 C799 1.398 . S
C800 C801 1.391 . S
C801 H789 0.950 . S
C801 C797 1.393 . S
C801 C800 1.391 . S
C802 H792 0.950 . S
C802 C803 1.386 . S
C802 C804 1.391 . S
C803 C802 1.386 . S
C803 C807 1.393 . S
C804 H793 0.950 . S
C804 C802 1.391 . S
C804 C805 1.400 . S
C805 C799 1.491 . S
C805 C804 1.400 . S
C805 C806 1.398 . S
C806 H794 0.950 . S
C806 C805 1.398 . S
C806 C807 1.391 . S
C807 H795 0.950 . S
C807 C803 1.393 . S
C807 C806 1.391 . S
H808 C816 0.950 . S
H809 C821 0.950 . S
H810 C818 0.950 . S
H811 C820 0.950 . S
H812 C822 0.950 . S
H813 C824 0.950 . S
H814 C826 0.950 . S
H815 C827 0.950 . S
C816 H808 0.950 . S
C816 C817 1.386 . S
C816 C818 1.391 . S
C817 C816 1.386 . S
C817 C821 1.393 . S
C818 H810 0.950 . S
C818 C816 1.391 . S
C818 C819 1.400 . S
C819 C818 1.400 . S
C819 C820 1.398 . S
C819 C825 1.491 . S
C820 H811 0.950 . S
C820 C819 1.398 . S
C820 C821 1.391 . S
C821 H809 0.950 . S
C821 C817 1.393 . S
C821 C820 1.391 . S
C822 H812 0.950 . S
C822 C823 1.386 . S
C822 C824 1.391 . S
C823 C822 1.386 . S
C823 C827 1.393 . S
C824 H813 0.950 . S
C824 C822 1.391 . S
C824 C825 1.400 . S
C825 C819 1.491 . S
C825 C824 1.400 . S
C825 C826 1.398 . S
C826 H814 0.950 . S
C826 C825 1.398 . S
C826 C827 1.391 . S
C827 H815 0.950 . S
C827 C823 1.393 . S
C827 C826 1.391 . S
H828 C836 0.950 . S
H829 C841 0.950 . S
H830 C838 0.950 . S
H831 C840 0.950 . S
H832 C842 0.950 . S
H833 C844 0.950 . S
H834 C846 0.950 . S
H835 C847 0.950 . S
C836 H828 0.950 . S
C836 C837 1.386 . S
C836 C838 1.391 . S
C837 C836 1.386 . S
C837 C841 1.393 . S
C838 H830 0.950 . S
C838 C836 1.391 . S
C838 C839 1.400 . S
C839 C838 1.400 . S
C839 C840 1.398 . S
C839 C845 1.491 . S
C840 H831 0.950 . S
C840 C839 1.398 . S
C840 C841 1.391 . S
C841 H829 0.950 . S
C841 C837 1.393 . S
C841 C840 1.391 . S
C842 H832 0.950 . S
C842 C843 1.386 . S
C842 C844 1.391 . S
C843 C842 1.386 . S
C843 C847 1.393 . S
C844 H833 0.950 . S
C844 C842 1.391 . S
C844 C845 1.400 . S
C845 C839 1.491 . S
C845 C844 1.400 . S
C845 C846 1.398 . S
C846 H834 0.950 . S
C846 C845 1.398 . S
C846 C847 1.391 . S
C847 H835 0.950 . S
C847 C843 1.393 . S
C847 C846 1.391 . S
H848 C856 0.950 . S
H849 C861 0.950 . S
H850 C858 0.950 . S
H851 C860 0.950 . S
H852 C862 0.950 . S
H853 C864 0.950 . S
H854 C866 0.950 . S
H855 C867 0.950 . S
C856 H848 0.950 . S
C856 C857 1.386 . S
C856 C858 1.391 . S
C857 C856 1.386 . S
C857 C861 1.393 . S
C858 H850 0.950 . S
C858 C856 1.391 . S
C858 C859 1.400 . S
C859 C858 1.400 . S
C859 C860 1.398 . S
C859 C865 1.491 . S
C860 H851 0.950 . S
C860 C859 1.398 . S
C860 C861 1.391 . S
C861 H849 0.950 . S
C861 C857 1.393 . S
C861 C860 1.391 . S
C862 H852 0.950 . S
C862 C863 1.386 . S
C862 C864 1.391 . S
C863 C862 1.386 . S
C863 C867 1.393 . S
C864 H853 0.950 . S
C864 C862 1.391 . S
C864 C865 1.400 . S
C865 C859 1.491 . S
C865 C864 1.400 . S
C865 C866 1.398 . S
C866 H854 0.950 . S
C866 C865 1.398 . S
C866 C867 1.391 . S
C867 H855 0.950 . S
C867 C863 1.393 . S
C867 C866 1.391 . S
H868 C876 0.950 . S
H869 C881 0.950 . S
H870 C878 0.950 . S
H871 C880 0.950 . S
H872 C882 0.950 . S
H873 C884 0.950 . S
H874 C886 0.950 . S
H875 C887 0.950 . S
C876 H868 0.950 . S
C876 C877 1.386 . S
C876 C878 1.391 . S
C877 C876 1.386 . S
C877 C881 1.393 . S
C878 H870 0.950 . S
C878 C876 1.391 . S
C878 C879 1.400 . S
C879 C878 1.400 . S
C879 C880 1.398 . S
C879 C885 1.491 . S
C880 H871 0.950 . S
C880 C879 1.398 . S
C880 C881 1.391 . S
C881 H869 0.950 . S
C881 C877 1.393 . S
C881 C880 1.391 . S
C882 H872 0.950 . S
C882 C883 1.386 . S
C882 C884 1.391 . S
C883 C882 1.386 . S
C883 C887 1.393 . S
C884 H873 0.950 . S
C884 C882 1.391 . S
C884 C885 1.400 . S
C885 C879 1.491 . S
C885 C884 1.400 . S
C885 C886 1.398 . S
C886 H874 0.950 . S
C886 C885 1.398 . S
C886 C887 1.391 . S
C887 H875 0.950 . S
C887 C883 1.393 . S
C887 C886 1.391 . S
H888 C896 0.950 . S
H889 C901 0.950 . S
H890 C898 0.950 . S
H891 C900 0.950 . S
H892 C902 0.950 . S
H893 C904 0.950 . S
H894 C906 0.950 . S
H895 C907 0.950 . S
C896 H888 0.950 . S
C896 C897 1.386 . S
C896 C898 1.391 . S
C897 C896 1.386 . S
C897 C901 1.393 . S
C898 H890 0.950 . S
C898 C896 1.391 . S
C898 C899 1.400 . S
C899 C898 1.400 . S
C899 C900 1.398 . S
C899 C905 1.491 . S
C900 H891 0.950 . S
C900 C899 1.398 . S
C900 C901 1.391 . S
C901 H889 0.950 . S
C901 C897 1.393 . S
C901 C900 1.391 . S
C902 H892 0.950 . S
C902 C903 1.386 . S
C902 C904 1.391 . S
C903 C902 1.386 . S
C903 C907 1.393 . S
C904 H893 0.950 . S
C904 C902 1.391 . S
C904 C905 1.400 . S
C905 C899 1.491 . S
C905 C904 1.400 . S
C905 C906 1.398 . S
C906 H894 0.950 . S
C906 C905 1.398 . S
C906 C907 1.391 . S
C907 H895 0.950 . S
C907 C903 1.393 . S
C907 C906 1.391 . S
H908 C916 0.950 . S
H909 C921 0.950 . S
H910 C918 0.950 . S
H911 C920 0.950 . S
H912 C922 0.950 . S
H913 C924 0.950 . S
H914 C926 0.950 . S
H915 C927 0.950 . S
C916 H908 0.950 . S
C916 C917 1.386 . S
C916 C918 1.391 . S
C917 C916 1.386 . S
C917 C921 1.393 . S
C918 H910 0.950 . S
C918 C916 1.391 . S
C918 C919 1.400 . S
C919 C918 1.400 . S
C919 C920 1.398 . S
C919 C925 1.491 . S
C920 H911 0.950 . S
C920 C919 1.398 . S
C920 C921 1.391 . S
C921 H909 0.950 . S
C921 C917 1.393 . S
C921 C920 1.391 . S
C922 H912 0.950 . S
C922 C923 1.386 . S
C922 C924 1.391 . S
C923 C922 1.386 . S
C923 C927 1.393 . S
C924 H913 0.950 . S
C924 C922 1.391 . S
C924 C925 1.400 . S
C925 C919 1.491 . S
C925 C924 1.400 . S
C925 C926 1.398 . S
C926 H914 0.950 . S
C926 C925 1.398 . S
C926 C927 1.391 . S
C927 H915 0.950 . S
C927 C923 1.393 . S
C927 C926 1.391 . S
H928 C936 0.950 . S
H929 C941 0.950 . S
H930 C938 0.950 . S
H931 C940 0.950 . S
H932 C942 0.950 . S
H933 C944 0.950 . S
H934 C946 0.950 . S
H935 C947 0.950 . S
C936 H928 0.950 . S
C936 C937 1.386 1_556 S
C936 C938 1.391 . S
C937 C936 1.386 1_554 S
C937 C941 1.393 . S
C938 H930 0.950 . S
C938 C936 1.391 . S
C938 C939 1.400 1_556 S
C939 C938 1.400 1_554 S
C939 C940 1.398 . S
C939 C945 1.491 . S
C940 H931 0.950 . S
C940 C939 1.398 . S
C940 C941 1.391 . S
C941 H929 0.950 . S
C941 C937 1.393 . S
C941 C940 1.391 . S
C942 H932 0.950 . S
C942 C943 1.386 . S
C942 C944 1.391 . S
C943 C942 1.386 . S
C943 C947 1.393 1_554 S
C944 H933 0.950 . S
C944 C942 1.391 . S
C944 C945 1.400 . S
C945 C939 1.491 . S
C945 C944 1.400 . S
C945 C946 1.398 1_554 S
C946 H934 0.950 . S
C946 C945 1.398 1_556 S
C946 C947 1.391 . S
C947 H935 0.950 . S
C947 C943 1.393 1_556 S
C947 C946 1.391 . S
H948 C956 0.950 . S
H949 C961 0.950 . S
H950 C958 0.950 . S
H951 C960 0.950 . S
H952 C962 0.950 . S
H953 C964 0.950 . S
H954 C966 0.950 . S
H955 C967 0.950 . S
C956 H948 0.950 . S
C956 C957 1.386 . S
C956 C958 1.391 . S
C957 C956 1.386 . S
C957 C961 1.393 1_554 S
C958 H950 0.950 . S
C958 C956 1.391 . S
C958 C959 1.400 . S
C959 C958 1.400 . S
C959 C960 1.398 1_554 S
C959 C965 1.491 . S
C960 H951 0.950 . S
C960 C959 1.398 1_556 S
C960 C961 1.391 . S
C961 H949 0.950 . S
C961 C957 1.393 1_556 S
C961 C960 1.391 . S
C962 H952 0.950 . S
C962 C963 1.386 1_556 S
C962 C964 1.391 . S
C963 C962 1.386 1_554 S
C963 C967 1.393 . S
C964 H953 0.950 . S
C964 C962 1.391 . S
C964 C965 1.400 1_556 S
C965 C959 1.491 . S
C965 C964 1.400 1_554 S
C965 C966 1.398 . S
C966 H954 0.950 . S
C966 C965 1.398 . S
C966 C967 1.391 . S
C967 H955 0.950 . S
C967 C963 1.393 . S
C967 C966 1.391 . S
H968 C976 0.950 . S
H969 C981 0.950 . S
H970 C978 0.950 . S
H971 C980 0.950 . S
H972 C982 0.950 . S
H973 C984 0.950 . S
H974 C986 0.950 . S
H975 C987 0.950 . S
C976 H968 0.950 . S
C976 C977 1.386 . S
C976 C978 1.391 . S
C977 C976 1.386 . S
C977 C981 1.393 . S
C978 H970 0.950 . S
C978 C976 1.391 . S
C978 C979 1.400 . S
C979 C978 1.400 . S
C979 C980 1.398 . S
C979 C985 1.491 . S
C980 H971 0.950 . S
C980 C979 1.398 . S
C980 C981 1.391 . S
C981 H969 0.950 . S
C981 C977 1.393 . S
C981 C980 1.391 . S
C982 H972 0.950 . S
C982 C983 1.386 . S
C982 C984 1.391 . S
C983 C982 1.386 . S
C983 C987 1.393 . S
C984 H973 0.950 . S
C984 C982 1.391 . S
C984 C985 1.400 . S
C985 C979 1.491 . S
C985 C984 1.400 . S
C985 C986 1.398 . S
C986 H974 0.950 . S
C986 C985 1.398 . S
C986 C987 1.391 . S
C987 H975 0.950 . S
C987 C983 1.393 . S
C987 C986 1.391 . S
H988 C996 0.950 . S
H989 C1001 0.950 . S
H990 C998 0.950 . S
H991 C1000 0.950 . S
H992 C1002 0.950 . S
H993 C1004 0.950 . S
H994 C1006 0.950 . S
H995 C1007 0.950 . S
C996 H988 0.950 . S
C996 C997 1.386 . S
C996 C998 1.391 . S
C997 C996 1.386 . S
C997 C1001 1.393 1_554 S
C998 H990 0.950 . S
C998 C996 1.391 . S
C998 C999 1.400 . S
C999 C998 1.400 . S
C999 C1000 1.398 1_554 S
C999 C1005 1.491 . S
C1000 H991 0.950 . S
C1000 C999 1.398 1_556 S
C1000 C1001 1.391 . S
C1001 H989 0.950 . S
C1001 C997 1.393 1_556 S
C1001 C1000 1.391 . S
C1002 H992 0.950 . S
C1002 C1003 1.386 1_556 S
C1002 C1004 1.391 . S
C1003 C1002 1.386 1_554 S
C1003 C1007 1.393 . S
C1004 H993 0.950 . S
C1004 C1002 1.391 . S
C1004 C1005 1.400 1_556 S
C1005 C999 1.491 . S
C1005 C1004 1.400 1_554 S
C1005 C1006 1.398 . S
C1006 H994 0.950 . S
C1006 C1005 1.398 . S
C1006 C1007 1.391 . S
C1007 H995 0.950 . S
C1007 C1003 1.393 . S
C1007 C1006 1.391 . S
H1008 C1016 0.950 . S
H1009 C1021 0.950 . S
H1010 C1018 0.950 . S
H1011 C1020 0.950 . S
H1012 C1022 0.950 . S
H1013 C1024 0.950 . S
H1014 C1026 0.950 . S
H1015 C1027 0.950 . S
C1016 H1008 0.950 . S
C1016 C1017 1.386 . S
C1016 C1018 1.391 . S
C1017 C1016 1.386 . S
C1017 C1021 1.393 . S
C1018 H1010 0.950 . S
C1018 C1016 1.391 . S
C1018 C1019 1.400 . S
C1019 C1018 1.400 . S
C1019 C1020 1.398 . S
C1019 C1025 1.491 . S
C1020 H1011 0.950 . S
C1020 C1019 1.398 . S
C1020 C1021 1.391 . S
C1021 H1009 0.950 . S
C1021 C1017 1.393 . S
C1021 C1020 1.391 . S
C1022 H1012 0.950 . S
C1022 C1023 1.386 . S
C1022 C1024 1.391 . S
C1023 C1022 1.386 . S
C1023 C1027 1.393 . S
C1024 H1013 0.950 . S
C1024 C1022 1.391 . S
C1024 C1025 1.400 . S
C1025 C1019 1.491 . S
C1025 C1024 1.400 . S
C1025 C1026 1.398 . S
C1026 H1014 0.950 . S
C1026 C1025 1.398 . S
C1026 C1027 1.391 . S
C1027 H1015 0.950 . S
C1027 C1023 1.393 . S
C1027 C1026 1.391 . S
H1028 C1036 0.950 . S
H1029 C1041 0.950 . S
H1030 C1038 0.950 . S
H1031 C1040 0.950 . S
H1032 C1042 0.950 . S
H1033 C1044 0.950 . S
H1034 C1046 0.950 . S
H1035 C1047 0.950 . S
C1036 H1028 0.950 . S
C1036 C1037 1.386 . S
C1036 C1038 1.391 . S
C1037 C1036 1.386 . S
C1037 C1041 1.393 . S
C1038 H1030 0.950 . S
C1038 C1036 1.391 . S
C1038 C1039 1.400 . S
C1039 C1038 1.400 . S
C1039 C1040 1.398 . S
C1039 C1045 1.491 . S
C1040 H1031 0.950 . S
C1040 C1039 1.398 . S
C1040 C1041 1.391 . S
C1041 H1029 0.950 . S
C1041 C1037 1.393 . S
C1041 C1040 1.391 . S
C1042 H1032 0.950 . S
C1042 C1043 1.386 . S
C1042 C1044 1.391 . S
C1043 C1042 1.386 . S
C1043 C1047 1.393 . S
C1044 H1033 0.950 . S
C1044 C1042 1.391 . S
C1044 C1045 1.400 . S
C1045 C1039 1.491 . S
C1045 C1044 1.400 . S
C1045 C1046 1.398 . S
C1046 H1034 0.950 . S
C1046 C1045 1.398 . S
C1046 C1047 1.391 . S
C1047 H1035 0.950 . S
C1047 C1043 1.393 . S
C1047 C1046 1.391 . S
H1048 C1056 0.950 . S
H1049 C1061 0.950 . S
H1050 C1058 0.950 . S
H1051 C1060 0.950 . S
H1052 C1062 0.950 . S
H1053 C1064 0.950 . S
H1054 C1066 0.950 . S
H1055 C1067 0.950 . S
C1056 H1048 0.950 . S
C1056 C1057 1.386 . S
C1056 C1058 1.391 . S
C1057 C1056 1.386 . S
C1057 C1061 1.393 . S
C1058 H1050 0.950 . S
C1058 C1056 1.391 . S
C1058 C1059 1.400 . S
C1059 C1058 1.400 . S
C1059 C1060 1.398 . S
C1059 C1065 1.491 . S
C1060 H1051 0.950 . S
C1060 C1059 1.398 . S
C1060 C1061 1.391 . S
C1061 H1049 0.950 . S
C1061 C1057 1.393 . S
C1061 C1060 1.391 . S
C1062 H1052 0.950 . S
C1062 C1063 1.386 . S
C1062 C1064 1.391 . S
C1063 C1062 1.386 . S
C1063 C1067 1.393 . S
C1064 H1053 0.950 . S
C1064 C1062 1.391 . S
C1064 C1065 1.400 . S
C1065 C1059 1.491 . S
C1065 C1064 1.400 . S
C1065 C1066 1.398 . S
C1066 H1054 0.950 . S
C1066 C1065 1.398 . S
C1066 C1067 1.391 . S
C1067 H1055 0.950 . S
C1067 C1063 1.393 . S
C1067 C1066 1.391 . S
H1068 C1076 0.950 . S
H1069 C1081 0.950 . S
H1070 C1078 0.950 . S
H1071 C1080 0.950 . S
H1072 C1082 0.950 . S
H1073 C1084 0.950 . S
H1074 C1086 0.950 . S
H1075 C1087 0.950 . S
C1076 H1068 0.950 . S
C1076 C1077 1.386 . S
C1076 C1078 1.391 . S
C1077 C1076 1.386 . S
C1077 C1081 1.393 . S
C1078 H1070 0.950 . S
C1078 C1076 1.391 . S
C1078 C1079 1.400 . S
C1079 C1078 1.400 . S
C1079 C1080 1.398 . S
C1079 C1085 1.491 . S
C1080 H1071 0.950 . S
C1080 C1079 1.398 . S
C1080 C1081 1.391 . S
C1081 H1069 0.950 . S
C1081 C1077 1.393 . S
C1081 C1080 1.391 . S
C1082 H1072 0.950 . S
C1082 C1083 1.386 . S
C1082 C1084 1.391 . S
C1083 C1082 1.386 . S
C1083 C1087 1.393 . S
C1084 H1073 0.950 . S
C1084 C1082 1.391 . S
C1084 C1085 1.400 . S
C1085 C1079 1.491 . S
C1085 C1084 1.400 . S
C1085 C1086 1.398 . S
C1086 H1074 0.950 . S
C1086 C1085 1.398 . S
C1086 C1087 1.391 . S
C1087 H1075 0.950 . S
C1087 C1083 1.393 . S
C1087 C1086 1.391 . S
H1088 C1096 0.950 . S
H1089 C1101 0.950 . S
H1090 C1098 0.950 . S
H1091 C1100 0.950 . S
H1092 C1102 0.950 . S
H1093 C1104 0.950 . S
H1094 C1106 0.950 . S
H1095 C1107 0.950 . S
C1096 H1088 0.950 . S
C1096 C1097 1.386 . S
C1096 C1098 1.391 . S
C1097 C1096 1.386 . S
C1097 C1101 1.393 . S
C1098 H1090 0.950 . S
C1098 C1096 1.391 . S
C1098 C1099 1.400 . S
C1099 C1098 1.400 . S
C1099 C1100 1.398 . S
C1099 C1105 1.491 . S
C1100 H1091 0.950 . S
C1100 C1099 1.398 . S
C1100 C1101 1.391 . S
C1101 H1089 0.950 . S
C1101 C1097 1.393 . S
C1101 C1100 1.391 . S
C1102 H1092 0.950 . S
C1102 C1103 1.386 . S
C1102 C1104 1.391 . S
C1103 C1102 1.386 . S
C1103 C1107 1.393 . S
C1104 H1093 0.950 . S
C1104 C1102 1.391 . S
C1104 C1105 1.400 . S
C1105 C1099 1.491 . S
C1105 C1104 1.400 . S
C1105 C1106 1.398 . S
C1106 H1094 0.950 . S
C1106 C1105 1.398 . S
C1106 C1107 1.391 . S
C1107 H1095 0.950 . S
C1107 C1103 1.393 . S
C1107 C1106 1.391 . S
H1108 C1116 0.950 . S
H1109 C1121 0.950 . S
H1110 C1118 0.950 . S
H1111 C1120 0.950 . S
H1112 C1122 0.950 . S
H1113 C1124 0.950 . S
H1114 C1126 0.950 . S
H1115 C1127 0.950 . S
C1116 H1108 0.950 . S
C1116 C1117 1.386 . S
C1116 C1118 1.391 . S
C1117 C1116 1.386 . S
C1117 C1121 1.393 . S
C1118 H1110 0.950 . S
C1118 C1116 1.391 . S
C1118 C1119 1.400 . S
C1119 C1118 1.400 . S
C1119 C1120 1.398 . S
C1119 C1125 1.491 . S
C1120 H1111 0.950 . S
C1120 C1119 1.398 . S
C1120 C1121 1.391 . S
C1121 H1109 0.950 . S
C1121 C1117 1.393 . S
C1121 C1120 1.391 . S
C1122 H1112 0.950 . S
C1122 C1123 1.386 . S
C1122 C1124 1.391 . S
C1123 C1122 1.386 . S
C1123 C1127 1.393 . S
C1124 H1113 0.950 . S
C1124 C1122 1.391 . S
C1124 C1125 1.400 . S
C1125 C1119 1.491 . S
C1125 C1124 1.400 . S
C1125 C1126 1.398 . S
C1126 H1114 0.950 . S
C1126 C1125 1.398 . S
C1126 C1127 1.391 . S
C1127 H1115 0.950 . S
C1127 C1123 1.393 . S
C1127 C1126 1.391 . S
H1128 C1136 0.942 1_554 S
H1129 C1141 0.950 . S
H1130 C1138 0.950 . S
H1131 C1140 0.950 . S
H1132 C1142 0.950 . S
H1133 C1144 0.950 . S
H1134 C1146 0.950 . S
H1135 C1147 0.950 . S
C1136 H1128 0.942 1_556 S
C1136 C1137 1.386 . S
C1136 C1138 1.391 . S
C1137 C1136 1.386 . S
C1137 C1141 1.393 . S
C1138 H1130 0.950 . S
C1138 C1136 1.391 . S
C1138 C1139 1.400 . S
C1139 C1138 1.400 . S
C1139 C1140 1.398 1_545 S
C1139 C1145 1.491 1_545 S
C1140 H1131 0.950 . S
C1140 C1139 1.398 1_565 S
C1140 C1141 1.391 1_565 S
C1141 H1129 0.950 . S
C1141 C1137 1.393 . S
C1141 C1140 1.391 1_545 S
C1142 H1132 0.950 . S
C1142 C1143 1.386 . S
C1142 C1144 1.391 . S
C1143 C1142 1.386 . S
C1143 C1147 1.393 . S
C1144 H1133 0.950 . S
C1144 C1142 1.391 . S
C1144 C1145 1.400 . S
C1145 C1139 1.491 1_565 S
C1145 C1144 1.400 . S
C1145 C1146 1.398 1_565 S
C1146 H1134 0.950 . S
C1146 C1145 1.398 1_545 S
C1146 C1147 1.391 1_545 S
C1147 H1135 0.950 . S
C1147 C1143 1.393 . S
C1147 C1146 1.391 1_565 S
H1148 C1156 0.950 . S
H1149 C1161 0.950 . S
H1150 C1158 0.950 . S
H1151 C1160 0.950 . S
H1152 C1162 0.950 . S
H1153 C1164 0.950 . S
H1154 C1166 0.950 . S
H1155 C1167 0.950 . S
C1156 H1148 0.950 . S
C1156 C1157 1.386 . S
C1156 C1158 1.391 . S
C1157 C1156 1.386 . S
C1157 C1161 1.393 1_556 S
C1158 H1150 0.950 . S
C1158 C1156 1.391 . S
C1158 C1159 1.400 . S
C1159 C1158 1.400 . S
C1159 C1160 1.398 1_556 S
C1159 C1165 1.491 . S
C1160 H1151 0.950 . S
C1160 C1159 1.398 1_554 S
C1160 C1161 1.391 . S
C1161 H1149 0.950 . S
C1161 C1157 1.393 1_554 S
C1161 C1160 1.391 . S
C1162 H1152 0.950 . S
C1162 C1163 1.386 1_554 S
C1162 C1164 1.391 . S
C1163 C1162 1.386 1_556 S
C1163 C1167 1.393 . S
C1164 H1153 0.950 . S
C1164 C1162 1.391 . S
C1164 C1165 1.400 1_554 S
C1165 C1159 1.491 . S
C1165 C1164 1.400 1_556 S
C1165 C1166 1.398 . S
C1166 H1154 0.950 . S
C1166 C1165 1.398 . S
C1166 C1167 1.391 . S
C1167 H1155 0.950 . S
C1167 C1163 1.393 . S
C1167 C1166 1.391 . S
H1168 C1176 0.950 . S
H1169 C1181 0.950 . S
H1170 C1178 0.950 . S
H1171 C1180 0.950 . S
H1172 C1182 0.950 . S
H1173 C1184 0.950 . S
H1174 C1186 0.950 . S
H1175 C1187 0.950 . S
C1176 H1168 0.950 . S
C1176 C1177 1.386 . S
C1176 C1178 1.391 . S
C1177 C1176 1.386 . S
C1177 C1181 1.393 1_556 S
C1178 H1170 0.950 . S
C1178 C1176 1.391 . S
C1178 C1179 1.400 . S
C1179 C1178 1.400 . S
C1179 C1180 1.398 1_556 S
C1179 C1185 1.491 1_655 S
C1180 H1171 0.950 . S
C1180 C1179 1.398 1_554 S
C1180 C1181 1.391 . S
C1181 H1169 0.950 . S
C1181 C1177 1.393 1_554 S
C1181 C1180 1.391 . S
C1182 H1172 0.950 . S
C1182 C1183 1.386 1_554 S
C1182 C1184 1.391 . S
C1183 C1182 1.386 1_556 S
C1183 C1187 1.393 . S
C1184 H1173 0.950 . S
C1184 C1182 1.391 . S
C1184 C1185 1.400 1_554 S
C1185 C1179 1.491 1_455 S
C1185 C1184 1.400 1_556 S
C1185 C1186 1.398 . S
C1186 H1174 0.950 . S
C1186 C1185 1.398 . S
C1186 C1187 1.391 . S
C1187 H1175 0.950 . S
C1187 C1183 1.393 . S
C1187 C1186 1.391 . S
H1188 C1196 0.950 . S
H1189 C1201 0.950 . S
H1190 C1198 0.950 . S
H1191 C1200 0.949 1_455 S
H1192 C1202 0.950 . S
H1193 C1204 0.950 . S
H1194 C1206 0.949 1_655 S
H1195 C1207 0.950 . S
C1196 H1188 0.950 . S
C1196 C1197 1.386 . S
C1196 C1198 1.391 . S
C1197 C1196 1.386 . S
C1197 C1201 1.393 . S
C1198 H1190 0.950 . S
C1198 C1196 1.391 . S
C1198 C1199 1.400 . S
C1199 C1198 1.400 . S
C1199 C1200 1.398 . S
C1199 C1205 1.491 1_655 S
C1200 H1191 0.949 1_655 S
C1200 C1199 1.398 . S
C1200 C1201 1.391 . S
C1201 H1189 0.950 . S
C1201 C1197 1.393 . S
C1201 C1200 1.391 . S
C1202 H1192 0.950 . S
C1202 C1203 1.386 . S
C1202 C1204 1.391 . S
C1203 C1202 1.386 . S
C1203 C1207 1.393 . S
C1204 H1193 0.950 . S
C1204 C1202 1.391 . S
C1204 C1205 1.400 . S
C1205 C1199 1.491 1_455 S
C1205 C1204 1.400 . S
C1205 C1206 1.398 . S
C1206 H1194 0.949 1_455 S
C1206 C1205 1.398 . S
C1206 C1207 1.391 . S
C1207 H1195 0.950 . S
C1207 C1203 1.393 . S
C1207 C1206 1.391 . S
H1208 C1216 0.950 . S
H1209 C1221 0.950 . S
H1210 C1218 0.950 . S
H1211 C1220 0.950 1_565 S
H1212 C1222 0.950 . S
H1213 C1224 0.950 . S
H1214 C1226 0.950 1_545 S
H1215 C1227 0.950 . S
C1216 H1208 0.950 . S
C1216 C1217 1.386 . S
C1216 C1218 1.391 . S
C1217 C1216 1.386 . S
C1217 C1221 1.393 . S
C1218 H1210 0.950 . S
C1218 C1216 1.391 . S
C1218 C1219 1.400 . S
C1219 C1218 1.400 . S
C1219 C1220 1.398 . S
C1219 C1225 1.491 1_545 S
C1220 H1211 0.950 1_545 S
C1220 C1219 1.398 . S
C1220 C1221 1.391 . S
C1221 H1209 0.950 . S
C1221 C1217 1.393 . S
C1221 C1220 1.391 . S
C1222 H1212 0.950 . S
C1222 C1223 1.386 . S
C1222 C1224 1.391 . S
C1223 C1222 1.386 . S
C1223 C1227 1.393 . S
C1224 H1213 0.950 . S
C1224 C1222 1.391 . S
C1224 C1225 1.400 . S
C1225 C1219 1.491 1_565 S
C1225 C1224 1.400 . S
C1225 C1226 1.398 . S
C1226 H1214 0.950 1_565 S
C1226 C1225 1.398 . S
C1226 C1227 1.391 . S
C1227 H1215 0.950 . S
C1227 C1223 1.393 . S
C1227 C1226 1.391 . S
H1228 C1236 0.950 . S
H1229 C1241 0.950 . S
H1230 C1238 0.950 . S
H1231 C1240 0.950 . S
H1232 C1242 0.950 . S
H1233 C1244 0.950 . S
H1234 C1246 0.950 . S
H1235 C1247 0.950 . S
C1236 H1228 0.950 . S
C1236 C1237 1.386 . S
C1236 C1238 1.391 . S
C1237 C1236 1.386 . S
C1237 C1241 1.393 . S
C1238 H1230 0.950 . S
C1238 C1236 1.391 . S
C1238 C1239 1.400 . S
C1239 C1238 1.400 . S
C1239 C1240 1.398 . S
C1239 C1245 1.491 . S
C1240 H1231 0.950 . S
C1240 C1239 1.398 . S
C1240 C1241 1.391 . S
C1241 H1229 0.950 . S
C1241 C1237 1.393 . S
C1241 C1240 1.391 . S
C1242 H1232 0.950 . S
C1242 C1243 1.386 . S
C1242 C1244 1.391 . S
C1243 C1242 1.386 . S
C1243 C1247 1.393 . S
C1244 H1233 0.950 . S
C1244 C1242 1.391 . S
C1244 C1245 1.400 . S
C1245 C1239 1.491 . S
C1245 C1244 1.400 . S
C1245 C1246 1.398 . S
C1246 H1234 0.950 . S
C1246 C1245 1.398 . S
C1246 C1247 1.391 . S
C1247 H1235 0.950 . S
C1247 C1243 1.393 . S
C1247 C1246 1.391 . S
C417 C28 0.797 . S
C423 C187 0.796 1_554 S
C437 C40 0.801 . S
C443 C17 0.794 1_554 S
C457 C96 0.798 . S
C463 C51 0.781 . S
C477 C108 0.784 . S
C483 C85 0.790 . S
C497 C164 0.781 . S
C503 C119 0.806 1_554 S
C517 C176 0.802 . S
C523 C153 0.780 . S
C537 C210 0.795 . S
C543 C255 0.782 . S
C557 C266 0.794 . S
C563 C289 0.783 . S
C577 C278 0.787 . S
C583 C323 0.804 . S
C597 C357 0.804 . S
C603 C334 0.775 . S
C617 C391 0.806 . S
C623 C346 0.782 . S
C637 C221 0.790 . S
C643 C402 0.805 . S
C657 C287 1.605 . S
C663 C22 1.613 . S
C677 C328 1.605 . S
C683 C49 1.613 . S
C697 C90 1.617 . S
C703 C355 1.601 . S
C717 C396 1.599 . S
C723 C117 1.588 . S
C737 C158 1.605 . S
C743 C219 1.586 . S
C757 C185 1.592 . S
C763 C260 1.594 . S
C777 C389 2.134 . S
C783 C124 2.135 . S
C797 C151 2.128 . S
C803 C226 2.114 . S
C817 C192 2.106 . S
C823 C253 2.125 . S
C837 C15 2.125 . S
C843 C294 2.112 . S
C857 C56 2.108 . S
C863 C321 2.110 . S
C877 C83 2.106 . S
C883 C362 2.124 . S
C897 C74 1.056 . S
C903 C1 0.957 . S
C917 C130 1.055 . S
C923 C37 0.952 . S
C937 C69 0.989 . S
C943 C142 1.058 . S
C957 C105 0.959 . S
C963 C198 1.052 . S
C977 C6 1.055 . S
C983 C137 1.001 . S
C997 C62 1.052 . S
C1003 C173 0.954 . S
C1017 C207 0.969 . S
C1023 C368 1.052 . S
C1037 C239 0.972 . S
C1043 C380 1.052 . S
C1057 C232 1.052 . S
C1063 C275 0.955 . S
C1077 C244 1.052 . S
C1083 C307 0.967 . S
C1097 C300 1.055 . S
C1103 C343 1.000 . S
C1117 C375 0.987 . S
C1123 C312 1.053 . S
C1137 C3 2.358 . S
C1143 C103 2.371 . S
C1157 C35 2.346 . S
C1163 C139 2.355 . S
C1177 C71 2.350 . S
C1183 C171 2.347 . S
C1197 C205 2.368 . S
C1203 C309 2.371 . S
C1217 C341 2.367 . S
C1223 C241 2.372 . S
C1237 C377 2.346 . S
C1243 C273 2.354 . S
