# Generated by pormake.
# Topology dia, (4)-cn, num edge types: 1
# Building blocks:
#     Node 0, Type 0, BuildingBlock: NAHDIM_clean_sbu_0, # of connection points: 4
#     Node 1, Type 0, BuildingBlock: NAHDIM_clean_sbu_0, # of connection points: 4
#     Node 2, Type 0, BuildingBlock: NAHDIM_clean_sbu_0, # of connection points: 4
#     Node 3, Type 0, BuildingBlock: NAHDIM_clean_sbu_0, # of connection points: 4
#     Node 4, Type 0, BuildingBlock: NAHDIM_clean_sbu_0, # of connection points: 4
#     Node 5, Type 0, BuildingBlock: NAHDIM_clean_sbu_0, # of connection points: 4
#     Node 6, Type 0, BuildingBlock: NAHDIM_clean_sbu_0, # of connection points: 4
#     Node 7, Type 0, BuildingBlock: NAHDIM_clean_sbu_0, # of connection points: 4
#     Edge 8, Type (0, 0), BuildingBlock: UVAHIK_clean_linker_0, # of connection points: 2
#     Edge 9, Type (0, 0), BuildingBlock: UVAHIK_clean_linker_0, # of connection points: 2
#     Edge 10, Type (0, 0), BuildingBlock: UVAHIK_clean_linker_0, # of connection points: 2
#     Edge 11, Type (0, 0), BuildingBlock: UVAHIK_clean_linker_0, # of connection points: 2
#     Edge 12, Type (0, 0), BuildingBlock: UVAHIK_clean_linker_0, # of connection points: 2
#     Edge 13, Type (0, 0), BuildingBlock: UVAHIK_clean_linker_0, # of connection points: 2
#     Edge 14, Type (0, 0), BuildingBlock: UVAHIK_clean_linker_0, # of connection points: 2
#     Edge 15, Type (0, 0), BuildingBlock: UVAHIK_clean_linker_0, # of connection points: 2
#     Edge 16, Type (0, 0), BuildingBlock: UVAHIK_clean_linker_0, # of connection points: 2
#     Edge 17, Type (0, 0), BuildingBlock: UVAHIK_clean_linker_0, # of connection points: 2
#     Edge 18, Type (0, 0), BuildingBlock: UVAHIK_clean_linker_0, # of connection points: 2
#     Edge 19, Type (0, 0), BuildingBlock: UVAHIK_clean_linker_0, # of connection points: 2
#     Edge 20, Type (0, 0), BuildingBlock: UVAHIK_clean_linker_0, # of connection points: 2
#     Edge 21, Type (0, 0), BuildingBlock: UVAHIK_clean_linker_0, # of connection points: 2
#     Edge 22, Type (0, 0), BuildingBlock: UVAHIK_clean_linker_0, # of connection points: 2
#     Edge 23, Type (0, 0), BuildingBlock: UVAHIK_clean_linker_0, # of connection points: 2
# Relax obj value: 0.005
# Max RMSD: 0.035
# Mean RMSD: 0.035
data_MOF--net-dia--node1-NAHDIM_clean_sbu_0--edge1-UVAHIK_clean_linker_0
_symmetry_space_group_name_H-M    P1
_symmetry_Int_Tables_number       1
_symmetry_cell_setting            triclinic
loop_
_symmetry_equiv_pos_as_xyz
'x, y, z'
_cell_length_a     48.453976
_cell_length_b     43.993067
_cell_length_c     43.999252
_cell_angle_alpha  88.87147
_cell_angle_beta   93.289441
_cell_angle_gamma 93.25545
loop_
_atom_site_label
_atom_site_type_symbol
_atom_site_fract_x
_atom_site_fract_y
_atom_site_fract_z
_atom_type_partial_charge
C0 C 0.07643 0.14555 0.66641 0.0
O1 O 0.06944 0.11658 0.66217 0.0
O2 O 0.13957 0.10224 0.65379 0.0
Zn3 Zn 0.11875 0.132 0.62689 0.0
O4 O 0.09162 0.10991 0.59735 0.0
C5 C 0.16855 0.15185 0.59618 0.0
O6 O 0.17627 0.12436 0.60333 0.0
O7 O 0.09728 0.1575 0.65349 0.0
C8 C 0.09806 0.10105 0.57149 0.0
O9 O 0.12355 0.10616 0.5632 0.0
C10 C 0.14654 0.07667 0.64468 0.0
O11 O 0.13994 0.06862 0.6165 0.0
O12 O 0.1452 0.15985 0.604 0.0
C13 C 0.91627 0.32963 0.84944 0.0
O14 O 0.92275 0.33305 0.87863 0.0
O15 O 0.85436 0.34314 0.89282 0.0
Zn16 Zn 0.87499 0.37018 0.86316 0.0
O17 O 0.90277 0.39888 0.88554 0.0
C18 C 0.82617 0.40336 0.84529 0.0
O19 O 0.82081 0.39954 0.87407 0.0
O20 O 0.89603 0.3435 0.83729 0.0
C21 C 0.89785 0.42538 0.89406 0.0
O22 O 0.87314 0.43564 0.88825 0.0
C23 C 0.84786 0.35188 0.9187 0.0
O24 O 0.85492 0.37982 0.92723 0.0
O25 O 0.84802 0.393 0.83576 0.0
C26 C 0.58586 0.14745 0.17342 0.0
O27 O 0.58888 0.11851 0.17996 0.0
O28 O 0.64099 0.10456 0.15251 0.0
Zn29 Zn 0.62032 0.13405 0.12519 0.0
O30 O 0.59344 0.11114 0.09598 0.0
C31 C 0.66936 0.15209 0.0929 0.0
O32 O 0.67465 0.12331 0.09704 0.0
O33 O 0.59788 0.15952 0.15088 0.0
C34 C 0.59843 0.10409 0.06903 0.0
O35 O 0.62271 0.11187 0.05856 0.0
C36 C 0.64703 0.07855 0.14364 0.0
O37 O 0.63964 0.07023 0.1157 0.0
O38 O 0.64738 0.16173 0.10284 0.0
C39 C 0.91169 0.82741 0.34917 0.0
O40 O 0.91773 0.83045 0.37849 0.0
O41 O 0.85059 0.84138 0.39333 0.0
Zn42 Zn 0.87033 0.86803 0.36253 0.0
O43 O 0.89789 0.89799 0.38351 0.0
C44 C 0.82072 0.89986 0.3445 0.0
O45 O 0.8153 0.89597 0.37325 0.0
O46 O 0.8916 0.84139 0.33684 0.0
C47 C 0.89212 0.92405 0.39248 0.0
O48 O 0.86672 0.93284 0.38818 0.0
C49 C 0.84447 0.85083 0.4191 0.0
O50 O 0.85133 0.87911 0.42661 0.0
O51 O 0.84276 0.88987 0.33506 0.0
C52 C 0.08068 0.65142 0.16795 0.0
O53 O 0.07656 0.62169 0.16654 0.0
O54 O 0.14395 0.61103 0.15586 0.0
Zn55 Zn 0.12211 0.63865 0.12765 0.0
O56 O 0.09587 0.61495 0.09843 0.0
C57 C 0.17192 0.6554 0.09766 0.0
O58 O 0.17792 0.62777 0.10663 0.0
O59 O 0.09969 0.66451 0.15287 0.0
C60 C 0.10385 0.59756 0.07835 0.0
O61 O 0.13045 0.59422 0.07637 0.0
C62 C 0.14027 0.58223 0.15784 0.0
O63 O 0.12029 0.56831 0.14109 0.0
O64 O 0.14886 0.66537 0.10407 0.0
C65 C 0.40511 0.31791 0.34544 0.0
O66 O 0.40043 0.30946 0.37357 0.0
O67 O 0.35061 0.33946 0.3888 0.0
Zn68 Zn 0.37242 0.36701 0.36077 0.0
O69 O 0.39886 0.39443 0.38598 0.0
C70 C 0.3399 0.41808 0.34101 0.0
O71 O 0.35169 0.43081 0.36558 0.0
O72 O 0.39479 0.34199 0.33454 0.0
C73 C 0.4134 0.41582 0.37385 0.0
O74 O 0.41079 0.42038 0.34425 0.0
C75 C 0.33342 0.35049 0.40573 0.0
O76 O 0.33015 0.37993 0.40462 0.0
O77 O 0.34583 0.3913 0.33439 0.0
C78 C 0.41736 0.82815 0.84824 0.0
O79 O 0.42282 0.83302 0.87739 0.0
O80 O 0.35186 0.84096 0.8879 0.0
Zn81 Zn 0.37403 0.86708 0.85886 0.0
O82 O 0.40018 0.89759 0.88102 0.0
C83 C 0.32619 0.8998 0.84066 0.0
O84 O 0.32151 0.89577 0.86961 0.0
O85 O 0.39675 0.84035 0.83481 0.0
C86 C 0.3932 0.91479 0.9018 0.0
O87 O 0.36751 0.91299 0.90999 0.0
C88 C 0.35903 0.83601 0.91572 0.0
O89 O 0.38269 0.84807 0.92716 0.0
O90 O 0.34765 0.88925 0.83042 0.0
C91 C 0.60138 0.65968 0.67833 0.0
O92 O 0.62407 0.64929 0.69146 0.0
O93 O 0.63951 0.6001 0.65268 0.0
Zn94 Zn 0.6196 0.6302 0.62524 0.0
O95 O 0.59451 0.60821 0.59357 0.0
C96 C 0.67031 0.65032 0.59698 0.0
O97 O 0.67638 0.62184 0.60165 0.0
O98 O 0.59555 0.65447 0.65032 0.0
C99 C 0.60202 0.60051 0.56773 0.0
O100 O 0.62763 0.60687 0.56045 0.0
C101 C 0.64659 0.57453 0.6437 0.0
O102 O 0.6405 0.5666 0.61538 0.0
O103 O 0.64734 0.65903 0.60523 0.0
C104 C 0.29595 0.34208 0.44234 0.0
C105 C 0.31717 0.33044 0.42628 0.0
C106 C 0.28033 0.32312 0.46147 0.0
C107 C 0.28159 0.25125 0.50538 0.0
H108 H 0.2017 0.25515 0.50062 0.0
C109 C 0.21001 0.16262 0.56545 0.0
C110 C 0.18637 0.17289 0.5782 0.0
C111 C 0.22639 0.18221 0.54767 0.0
C112 C 0.22401 0.25406 0.50259 0.0
H113 H 0.33882 0.28984 0.41795 0.0
H114 H 0.31154 0.25676 0.45146 0.0
H115 H 0.22956 0.28874 0.46833 0.0
H116 H 0.16169 0.21199 0.58284 0.0
H117 H 0.19058 0.24635 0.55241 0.0
H118 H 0.27613 0.21679 0.53982 0.0
C119 C 0.3071 0.28059 0.4493 0.0
C120 C 0.23995 0.27327 0.48402 0.0
C121 C 0.3226 0.2995 0.42998 0.0
C122 C 0.17968 0.20331 0.57316 0.0
C123 C 0.19615 0.22296 0.55556 0.0
C124 C 0.26566 0.23216 0.52412 0.0
C125 C 0.28572 0.29218 0.46513 0.0
C126 C 0.26889 0.272 0.48515 0.0
C127 C 0.2196 0.2126 0.5424 0.0
C128 C 0.23666 0.23327 0.52289 0.0
H129 H 0.29126 0.36582 0.44003 0.0
H130 H 0.26417 0.33275 0.47363 0.0
H131 H 0.3039 0.25006 0.50701 0.0
H132 H 0.21568 0.13927 0.56878 0.0
H133 H 0.24406 0.17333 0.53755 0.0
C134 C 0.67766 0.53134 0.65268 0.0
C135 C 0.66316 0.55487 0.66438 0.0
C136 C 0.69452 0.51379 0.672 0.0
C137 C 0.7061 0.48829 0.75102 0.0
H138 H 0.78177 0.47948 0.72975 0.0
C139 C 0.78698 0.43756 0.83577 0.0
C140 C 0.80708 0.41981 0.82429 0.0
C141 C 0.76902 0.45331 0.816 0.0
C142 C 0.76059 0.48121 0.73584 0.0
H143 H 0.65438 0.57797 0.70556 0.0
H144 H 0.6835 0.54687 0.73938 0.0
H145 H 0.75055 0.50741 0.69556 0.0
H146 H 0.82386 0.4042 0.78309 0.0
H147 H 0.79196 0.43078 0.74856 0.0
H148 H 0.71575 0.46162 0.79093 0.0
C149 C 0.68189 0.54218 0.71524 0.0
C150 C 0.74276 0.49734 0.71627 0.0
C151 C 0.66535 0.56004 0.69587 0.0
C152 C 0.80872 0.41791 0.79263 0.0
C153 C 0.7905 0.43332 0.77283 0.0
C154 C 0.7238 0.47179 0.77041 0.0
C155 C 0.69687 0.51913 0.70343 0.0
C156 C 0.71542 0.50119 0.72377 0.0
C157 C 0.77048 0.45134 0.78425 0.0
C158 C 0.75136 0.46822 0.7632 0.0
H159 H 0.67644 0.52684 0.62852 0.0
H160 H 0.70571 0.49599 0.66239 0.0
H161 H 0.68501 0.49067 0.75715 0.0
H162 H 0.78534 0.43966 0.86008 0.0
H163 H 0.75428 0.46739 0.8257 0.0
C164 C 0.58388 0.07436 0.02223 0.0
C165 C 0.57725 0.0865 0.05003 0.0
C166 C 0.56401 0.05703 0.00475 0.0
C167 C 0.48882 0.04175 0.9918 0.0
H168 H 0.50907 0.96495 0.96016 0.0
C169 C 0.40736 0.95251 0.94249 0.0
C170 C 0.41407 0.93594 0.91722 0.0
C171 C 0.42729 0.97192 0.95749 0.0
C172 C 0.50315 0.98654 0.96841 0.0
H173 H 0.54443 0.09036 0.08107 0.0
H174 H 0.50979 0.06023 0.05049 0.0
H175 H 0.54389 0.99729 0.98809 0.0
H176 H 0.44687 0.92718 0.88752 0.0
H177 H 0.48145 0.96145 0.91329 0.0
H178 H 0.44813 0.03115 0.97205 0.0
C179 C 0.53032 0.06421 0.04218 0.0
C180 C 0.52311 0.00504 0.98446 0.0
C181 C 0.55023 0.08131 0.05977 0.0
C182 C 0.44106 0.93949 0.90704 0.0
C183 C 0.46094 0.95901 0.92193 0.0
C184 C 0.46889 0.02336 0.97558 0.0
C185 C 0.53705 0.05173 0.01459 0.0
C186 C 0.51611 0.03272 0.99651 0.0
C187 C 0.45436 0.97533 0.94746 0.0
C188 C 0.47575 0.99541 0.96387 0.0
H189 H 0.60451 0.07796 0.01409 0.0
H190 H 0.56971 0.0479 0.98344 0.0
H191 H 0.48293 0.06318 0.00049 0.0
H192 H 0.38679 0.95021 0.95098 0.0
H193 H 0.4216 0.98379 0.97733 0.0
C194 C 0.9223 0.80559 0.29921 0.0
C195 C 0.92848 0.80857 0.33066 0.0
C196 C 0.9385 0.78829 0.28166 0.0
C197 C 0.98821 0.72751 0.28733 0.0
H198 H 0.00786 0.75819 0.20774 0.0
C199 C 0.04206 0.6548 0.203 0.0
C200 C 0.06329 0.66935 0.18668 0.0
C201 C 0.02554 0.67167 0.22059 0.0
C202 C 0.00272 0.74941 0.23001 0.0
H203 H 0.95647 0.79557 0.36834 0.0
H204 H 0.98485 0.76562 0.33766 0.0
H205 H 0.9794 0.78789 0.23861 0.0
H206 H 0.08389 0.71305 0.17613 0.0
H207 H 0.05522 0.74244 0.20707 0.0
H208 H 0.01198 0.68931 0.27898 0.0
C209 C 0.96728 0.77638 0.32663 0.0
C210 C 0.98613 0.76625 0.24754 0.0
C211 C 0.95109 0.79369 0.34419 0.0
C212 C 0.06766 0.70115 0.18836 0.0
C213 C 0.05112 0.71802 0.20595 0.0
C214 C 0.00477 0.71064 0.26978 0.0
C215 C 0.96123 0.77356 0.29515 0.0
C216 C 0.9787 0.75552 0.27642 0.0
C217 C 0.02986 0.70348 0.22226 0.0
C218 C 0.01224 0.72141 0.24092 0.0
H219 H 0.90496 0.81668 0.28808 0.0
H220 H 0.93306 0.78624 0.25754 0.0
H221 H 0.98263 0.71846 0.30935 0.0
H222 H 0.03809 0.63035 0.20213 0.0
H223 H 0.00911 0.65982 0.23256 0.0
C224 C 0.30812 0.91595 0.78865 0.0
C225 C 0.30692 0.91688 0.82046 0.0
C226 C 0.2899 0.93226 0.7697 0.0
C227 C 0.24847 -0.00109 0.76805 0.0
H228 H 0.20715 0.96021 0.69986 0.0
C229 C 0.16556 0.06186 0.69661 0.0
C230 C 0.16334 0.05701 0.6651 0.0
C231 C 0.18213 0.04387 0.71579 0.0
C232 C 0.2188 0.97153 0.71852 0.0
H233 H 0.28576 0.93569 0.85734 0.0
H234 H 0.25428 0.96456 0.82418 0.0
H235 H 0.23851 0.93071 0.73249 0.0
H236 H 0.17673 0.02951 0.62892 0.0
H237 H 0.20636 -0.00117 0.66213 0.0
H238 H 0.22961 0.03993 0.75381 0.0
C239 C 0.26925 0.95111 0.81398 0.0
C240 C 0.23667 0.95456 0.73726 0.0
C241 C 0.28718 0.93447 0.83292 0.0
C242 C 0.17787 0.03366 0.65316 0.0
C243 C 0.19476 0.01594 0.67227 0.0
C244 C 0.23091 0.016 0.74911 0.0
C245 C 0.27043 0.95015 0.78221 0.0
C246 C 0.25159 0.96808 0.76223 0.0
C247 C 0.19721 0.02088 0.70384 0.0
C248 C 0.21577 0.00253 0.72412 0.0
H249 H 0.32307 0.90254 0.77839 0.0
H250 H 0.29133 0.93131 0.74525 0.0
H251 H 0.26001 0.00997 0.78696 0.0
H252 H 0.15441 0.07952 0.70651 0.0
H253 H 0.18301 0.04794 0.74002 0.0
C254 C 0.91305 0.47068 0.92569 0.0
C255 C 0.91958 0.44405 0.91122 0.0
C256 C 0.93345 0.48779 0.94266 0.0
C257 C 0.00287 0.48178 0.98174 0.0
H258 H 0.0025 0.5699 0.98209 0.0
C259 C 0.09145 0.55761 0.03932 0.0
C260 C 0.08329 0.58069 0.05796 0.0
C261 C 0.07189 0.5413 0.02051 0.0
C262 C 0.00274 0.54529 0.98234 0.0
H263 H 0.95278 0.41484 0.9026 0.0
H264 H 0.98847 0.44507 0.93146 0.0
H265 H 0.96778 0.5409 0.95048 0.0
H266 H 0.04825 0.60501 0.07119 0.0
H267 H 0.01419 0.57665 0.03817 0.0
H268 H 0.03809 0.48632 0.01337 0.0
C269 C 0.96746 0.45239 0.9304 0.0
C270 C 0.98281 0.52864 0.96431 0.0
C271 C 0.94702 0.43514 0.91368 0.0
C272 C 0.05521 0.58734 0.05713 0.0
C273 C 0.03572 0.57124 0.0381 0.0
C274 C 0.02295 0.49845 -0.00046 0.0
C275 C 0.96091 0.47881 0.94531 0.0
C276 C 0.98252 0.49665 0.96391 0.0
C277 C 0.04384 0.54795 0.01972 0.0
C278 C 0.02299 0.53036 0.00015 0.0
H279 H 0.89206 0.47808 0.92437 0.0
H280 H 0.92753 0.50774 0.95419 0.0
H281 H 0.00302 0.45717 0.98246 0.0
H282 H 0.11292 0.55193 0.03943 0.0
H283 H 0.07875 0.52362 0.00639 0.0
C284 C 0.43152 0.31144 0.29886 0.0
C285 C 0.42289 0.30011 0.32708 0.0
C286 C 0.44901 0.29501 0.282 0.0
C287 C 0.47217 0.21798 0.27151 0.0
H288 H 0.53574 0.26011 0.23679 0.0
C289 C 0.55674 0.15297 0.21797 0.0
C290 C 0.56792 0.16542 0.19141 0.0
C291 C 0.53922 0.1696 0.23457 0.0
C292 C 0.51789 0.24805 0.24598 0.0
H293 H 0.42557 0.26248 0.35954 0.0
H294 H 0.45597 0.23377 0.33001 0.0
H295 H 0.50425 0.28863 0.26507 0.0
H296 H 0.56951 0.20516 0.16144 0.0
H297 H 0.53854 0.23393 0.19002 0.0
H298 H 0.48551 0.17747 0.25219 0.0
C299 C 0.44914 0.25531 0.32092 0.0
C300 C 0.49988 0.2644 0.26221 0.0
C301 C 0.43184 0.27185 0.33789 0.0
C302 C 0.56135 0.19495 0.1819 0.0
C303 C 0.54368 0.21152 0.19839 0.0
C304 C 0.49006 0.20165 0.2551 0.0
C305 C 0.45803 0.2668 0.29289 0.0
C306 C 0.47689 0.24952 0.27523 0.0
C307 C 0.53232 0.19901 0.22488 0.0
C308 C 0.51321 0.21646 0.24222 0.0
H309 H 0.42499 0.33315 0.28989 0.0
H310 H 0.45531 0.30427 0.26032 0.0
H311 H 0.4544 0.20598 0.28095 0.0
H312 H 0.56152 0.13034 0.22602 0.0
H313 H 0.53125 0.15946 0.25515 0.0
C314 C 0.82655 0.79899 0.43563 0.0
C315 C 0.82845 0.83066 0.4397 0.0
C316 C 0.81076 0.78002 0.45461 0.0
C317 C 0.75097 0.77927 0.50071 0.0
H318 H 0.7805 0.70707 0.5392 0.0
C319 C 0.68686 0.70321 0.58208 0.0
C320 C 0.68948 0.67163 0.58104 0.0
C321 C 0.70479 0.72323 0.56656 0.0
C322 C 0.77175 0.72689 0.5283 0.0
H323 H 0.81536 0.86729 0.46686 0.0
H324 H 0.78727 0.8341 0.49962 0.0
H325 H 0.80999 0.74056 0.50842 0.0
H326 H 0.71277 0.63621 0.56278 0.0
H327 H 0.74328 0.67089 0.5348 0.0
H328 H 0.71247 0.76527 0.51939 0.0
C329 C 0.79818 0.82404 0.48185 0.0
C330 C 0.78874 0.74612 0.51082 0.0
C331 C 0.81435 0.84297 0.46321 0.0
C332 C 0.71038 0.66046 0.56422 0.0
C333 C 0.72802 0.68042 0.54832 0.0
C334 C 0.73384 0.75982 0.51778 0.0
C335 C 0.79621 0.79242 0.47767 0.0
C336 C 0.77848 0.77244 0.49683 0.0
C337 C 0.72547 0.7121 0.54925 0.0
C338 C 0.74397 0.7333 0.53175 0.0
H339 H 0.83725 0.78884 0.41775 0.0
H340 H 0.8094 0.75571 0.45082 0.0
H341 H 0.74249 0.79928 0.48985 0.0
H342 H 0.67108 0.71249 0.59507 0.0
H343 H 0.70249 0.74746 0.56832 0.0
C344 C 0.17823 0.57959 0.19862 0.0
C345 C 0.15938 0.5646 0.17772 0.0
C346 C 0.19719 0.56323 0.21647 0.0
C347 C 0.21222 0.48521 0.24388 0.0
H348 H 0.28645 0.52172 0.25837 0.0
C349 C 0.30313 0.41936 0.29859 0.0
C350 C 0.31945 0.43451 0.32169 0.0
C351 C 0.28339 0.43482 0.28083 0.0
C352 C 0.26575 0.51134 0.2547 0.0
H353 H 0.14549 0.52061 0.15934 0.0
H354 H 0.17902 0.49211 0.18999 0.0
H355 H 0.2522 0.54924 0.22786 0.0
H356 H 0.32801 0.4778 0.3441 0.0
H357 H 0.29373 0.50478 0.31292 0.0
H358 H 0.22611 0.44706 0.27042 0.0
C359 C 0.17882 0.51646 0.19303 0.0
C360 C 0.24606 0.52713 0.23731 0.0
C361 C 0.15966 0.53281 0.17534 0.0
C362 C 0.31578 0.46547 0.32649 0.0
C363 C 0.29625 0.48098 0.30855 0.0
C364 C 0.23202 0.46929 0.26108 0.0
C365 C 0.19797 0.53151 0.21365 0.0
C366 C 0.21898 0.51437 0.23184 0.0
C367 C 0.27979 0.4658 0.28561 0.0
C368 C 0.25893 0.48229 0.2668 0.0
H369 H 0.17841 0.60404 0.20119 0.0
H370 H 0.21121 0.57551 0.23256 0.0
H371 H 0.19149 0.47485 0.24049 0.0
H372 H 0.30543 0.39549 0.29436 0.0
H373 H 0.27115 0.42263 0.26313 0.0
C374 C 0.81669 0.34283 0.96178 0.0
C375 C 0.83118 0.33122 0.93824 0.0
C376 C 0.79982 0.32346 0.97927 0.0
C377 C 0.76382 0.24648 0.97808 0.0
H378 H 0.75597 0.26178 0.06357 0.0
C379 C 0.70847 0.16087 0.05853 0.0
C380 C 0.68843 0.17277 0.07611 0.0
C381 C 0.72622 0.18028 0.04217 0.0
C382 C 0.75789 0.25739 0.03967 0.0
H383 H 0.84015 0.29013 0.91518 0.0
H384 H 0.81165 0.25618 0.94635 0.0
H385 H 0.78717 0.2951 0.03458 0.0
H386 H 0.67155 0.21435 0.09073 0.0
H387 H 0.703 0.24833 0.06247 0.0
H388 H 0.73501 0.20827 0.98355 0.0
C389 C 0.81248 0.28035 0.95075 0.0
C390 C 0.77566 0.27652 0.02298 0.0
C391 C 0.829 0.29978 0.93298 0.0
C392 C 0.68674 0.20451 0.07731 0.0
C393 C 0.70479 0.22395 0.0613 0.0
C394 C 0.74639 0.22714 0.99488 0.0
C395 C 0.79738 0.29196 0.97389 0.0
C396 C 0.77881 0.27137 0.99191 0.0
C397 C 0.72456 0.21198 0.04342 0.0
C398 C 0.7432 0.23246 0.02578 0.0
H399 H 0.81782 0.36701 0.96623 0.0
H400 H 0.78822 0.33335 0.99653 0.0
H401 H 0.76518 0.24213 0.95409 0.0
H402 H 0.71026 0.13651 0.05711 0.0
H403 H 0.74142 0.17051 0.02871 0.0
C404 C 0.80353 0.91478 0.29187 0.0
C405 C 0.8018 0.91654 0.32353 0.0
C406 C 0.78581 0.93085 0.27209 0.0
C407 C 0.72045 0.97196 0.26952 0.0
H408 H 0.74896 0.0073 0.19538 0.0
C409 C 0.66584 0.06357 0.19562 0.0
C410 C 0.66332 0.05846 0.16413 0.0
C411 C 0.68176 0.04496 0.21488 0.0
C412 C 0.74069 0.99733 0.21589 0.0
H413 H 0.78031 0.93669 0.35934 0.0
H414 H 0.75014 0.96558 0.32501 0.0
H415 H 0.77886 0.97768 0.22948 0.0
H416 H 0.67544 0.02987 0.12811 0.0
H417 H 0.70371 0.99773 0.1618 0.0
H418 H 0.68254 0.9927 0.25618 0.0
C419 C 0.76456 0.95111 0.31528 0.0
C420 C 0.75775 0.98022 0.23541 0.0
C421 C 0.78201 0.93469 0.33502 0.0
C422 C 0.67695 0.03433 0.15229 0.0
C423 C 0.69322 0.01604 0.17151 0.0
C424 C 0.70354 0.98946 0.2502 0.0
C425 C 0.76622 0.94942 0.28353 0.0
C426 C 0.74787 0.96729 0.2625 0.0
C427 C 0.69579 0.02121 0.20296 0.0
C428 C 0.71351 0.00228 0.22322 0.0
H429 H 0.81844 0.90077 0.28232 0.0
H430 H 0.78737 0.92848 0.24781 0.0
H431 H 0.71191 0.9619 0.28983 0.0
H432 H 0.65551 0.08194 0.2054 0.0
H433 H 0.68356 0.04952 0.23904 0.0
C434 C 0.94176 0.93823 0.40711 0.0
C435 C 0.91362 0.94373 0.40873 0.0
C436 C 0.96207 0.95638 0.42304 0.0
C437 C 0.97331 0.02992 0.46395 0.0
H438 H 0.03779 0.99147 0.49984 0.0
C439 C 0.04888 0.08515 0.55632 0.0
C440 C 0.07723 0.08436 0.55136 0.0
C441 C 0.02919 0.06904 0.53754 0.0
C442 C 0.01999 0.00253 0.48971 0.0
H443 H 0.88464 0.97246 0.42837 0.0
H444 H 0.91991 0.00338 0.45707 0.0
H445 H 0.00273 0.96122 0.47001 0.0
H446 H 0.10719 0.06605 0.5229 0.0
H447 H 0.07271 0.03735 0.49046 0.0
H448 H 0.99033 0.071 0.48481 0.0
C449 C 0.92647 0.98567 0.44282 0.0
C450 C -7e-05 0.98527 0.47248 0.0
C451 C 0.90619 0.96781 0.4265 0.0
C452 C 0.08549 0.06715 0.52724 0.0
C453 C 0.06582 0.05063 0.50877 0.0
C454 C 0.99318 0.04705 0.48159 0.0
C455 C 0.9547 0.98016 0.44138 0.0
C456 C 0.97629 -0.00128 0.45935 0.0
C457 C 0.0375 0.05144 0.51376 0.0
C458 C 0.01669 0.03349 0.49461 0.0
H459 H 0.94813 0.91999 0.39338 0.0
H460 H 0.98358 0.95181 0.42082 0.0
H461 H 0.95571 0.04125 0.45375 0.0
H462 H 0.04188 0.09828 0.57468 0.0
H463 H 0.00748 0.06984 0.54197 0.0
C464 C 0.92516 0.3058 0.7999 0.0
C465 C 0.93247 0.31014 0.83096 0.0
C466 C 0.94061 0.28758 0.78243 0.0
C467 C 0.00945 0.25644 0.78007 0.0
H468 H 0.97223 0.20071 0.72185 0.0
C469 C 0.06794 0.19488 0.69088 0.0
C470 C 0.06009 0.16408 0.68572 0.0
C471 C 0.0524 0.21241 0.70895 0.0
C472 C 0.98292 0.21601 0.73816 0.0
H473 H 0.96171 0.29863 0.86804 0.0
H474 H 0.98857 0.26673 0.83757 0.0
H475 H 0.94491 0.23144 0.75308 0.0
H476 H 0.0298 0.12751 0.6956 0.0
H477 H 0.00278 0.15809 0.72725 0.0
H478 H 0.04745 0.24075 0.76542 0.0
C479 C 0.97104 0.27766 0.82667 0.0
C480 C 0.96728 0.23385 0.75581 0.0
C481 C 0.95554 0.29582 0.84416 0.0
C482 C 0.03639 0.15118 0.69906 0.0
C483 C 0.0208 0.16875 0.71707 0.0
C484 C 0.02509 0.23868 0.76235 0.0
C485 C 0.96377 0.27337 0.7956 0.0
C486 C 0.98037 0.25427 0.77696 0.0
C487 C 0.02863 0.19956 0.72219 0.0
C488 C 0.012 0.21828 0.74118 0.0
H489 H 0.90753 0.31655 0.78901 0.0
H490 H 0.93467 0.285 0.75847 0.0
H491 H 0.02015 0.27217 0.79596 0.0
H492 H 0.08605 0.20554 0.68089 0.0
H493 H 0.05878 0.23618 0.71217 0.0
C494 C 0.55861 0.68861 0.68175 0.0
C495 C 0.58251 0.67681 0.69601 0.0
C496 C 0.54061 0.70447 0.69847 0.0
C497 C 0.53721 0.74651 0.76989 0.0
H498 H 0.45789 0.73307 0.75442 0.0
C499 C 0.45872 0.79679 0.84598 0.0
C500 C 0.43552 0.80954 0.83116 0.0
C501 C 0.47636 0.77995 0.82977 0.0
C502 C 0.47998 0.73729 0.7588 0.0
H503 H 0.60621 0.6724 0.73907 0.0
H504 H 0.57464 0.6998 0.7683 0.0
H505 H 0.48937 0.70504 0.72565 0.0
H506 H 0.41252 0.81433 0.78771 0.0
H507 H 0.44345 0.7851 0.75938 0.0
H508 H 0.52782 0.77876 0.80304 0.0
C509 C 0.57001 0.69714 0.74409 0.0
C510 C 0.49803 0.72124 0.7423 0.0
C511 C 0.58804 0.68129 0.72736 0.0
C512 C 0.43019 0.80478 0.79983 0.0
C513 C 0.44783 0.78789 0.78362 0.0
C514 C 0.51916 0.76252 0.78641 0.0
C515 C 0.54606 0.70888 0.72985 0.0
C516 C 0.52686 0.72571 0.74761 0.0
C517 C 0.47121 0.77544 0.79837 0.0
C518 C 0.49035 0.75813 0.78102 0.0
H519 H 0.55377 0.68566 0.65761 0.0
H520 H 0.52257 0.7136 0.68671 0.0
H521 H 0.5593 0.75084 0.77421 0.0
H522 H 0.46337 0.79992 0.87012 0.0
H523 H 0.49398 0.7703 0.84188 0.0
C524 C 0.21539 0.66179 0.06961 0.0
C525 C 0.19168 0.67436 0.07995 0.0
C526 C 0.23391 0.67941 0.05248 0.0
C527 C 0.25768 0.75826 0.03529 0.0
H528 H 0.28371 0.72391 0.96233 0.0
C529 C 0.34553 0.81598 0.96683 0.0
C530 C 0.34049 0.81726 0.93507 0.0
C531 C 0.32763 0.79867 0.98506 0.0
C532 C 0.27656 0.73382 0.9826 0.0
H533 H 0.16897 0.71543 0.08073 0.0
H534 H 0.20148 0.74626 0.05086 0.0
H535 H 0.25168 0.69367 0.99321 0.0
H536 H 0.31282 0.80123 0.8975 0.0
H537 H 0.2818 0.77086 0.9293 0.0
H538 H 0.2825 0.79849 0.02452 0.0
C539 C 0.20571 0.72276 0.05612 0.0
C540 C 0.25842 0.71644 0.00039 0.0
C541 C 0.18704 0.70506 0.07306 0.0
C542 C 0.31731 0.80072 0.9219 0.0
C543 C 0.2996 0.7832 0.94008 0.0
C544 C 0.27606 0.77555 0.01762 0.0
C545 C 0.22925 0.71005 0.04551 0.0
C546 C 0.24871 0.72851 0.02686 0.0
C547 C 0.30453 0.78206 0.97184 0.0
C548 C 0.28556 0.76355 0.99102 0.0
H549 H 0.21961 0.63823 0.07455 0.0
H550 H 0.25203 0.6691 0.04488 0.0
H551 H 0.25069 0.76804 0.0557 0.0
H552 H 0.36318 0.82852 0.97767 0.0
H553 H 0.33204 0.798 0.00947 0.0
C554 C 0.4399 0.42698 0.42317 0.0
C555 C 0.43264 0.43561 0.393 0.0
C556 C 0.45804 0.44562 0.44136 0.0
C557 C 0.51076 0.51009 0.43732 0.0
H558 H 0.49898 0.5146 0.52347 0.0
C559 C 0.59181 0.5681 0.52188 0.0
C560 C 0.5823 0.58349 0.54657 0.0
C561 C 0.57327 0.55107 0.50256 0.0
C562 C 0.50242 0.51397 0.4994 0.0
H563 H 0.43848 0.47067 0.35827 0.0
H564 H 0.46948 0.50369 0.39028 0.0
H565 H 0.46679 0.48387 0.49097 0.0
H566 H 0.54581 0.59387 0.56985 0.0
H567 H 0.51337 0.56507 0.53562 0.0
H568 H 0.54581 0.54116 0.44559 0.0
C569 C 0.46174 0.48216 0.39972 0.0
C570 C 0.48416 0.49589 0.4808 0.0
C571 C 0.44384 0.46331 0.3814 0.0
C572 C 0.55381 0.58201 0.55118 0.0
C573 C 0.53523 0.56532 0.53164 0.0
C574 C 0.52887 0.52846 0.45589 0.0
C575 C 0.4691 0.47354 0.42995 0.0
C576 C 0.48819 0.4935 0.44955 0.0
C577 C 0.54473 0.54935 0.50725 0.0
C578 C 0.52504 0.53049 0.48722 0.0
H579 H 0.43179 0.40563 0.43269 0.0
H580 H 0.46365 0.43789 0.46429 0.0
H581 H 0.51473 0.50857 0.41345 0.0
H582 H 0.61368 0.56866 0.51784 0.0
H583 H 0.58143 0.53871 0.48434 0.0
loop_
_geom_bond_atom_site_label_1
_geom_bond_atom_site_label_2
_geom_bond_distance
_geom_bond_site_symmetry_2
_ccdc_geom_bond_type
C0 O1 1.160 . S
C0 O7 1.185 . S
O1 C0 1.160 . S
O2 Zn3 1.899 . S
O2 C10 1.284 . S
Zn3 O2 1.899 . S
Zn3 O4 2.032 . S
Zn3 O7 2.086 . S
Zn3 O12 1.977 . S
O4 Zn3 2.032 . S
O4 C8 1.278 . S
C5 O6 1.203 . S
C5 O12 1.267 . S
O6 C5 1.203 . S
O7 C0 1.185 . S
O7 Zn3 2.086 . S
C8 O4 1.278 . S
C8 O9 1.211 . S
O9 C8 1.211 . S
C10 O2 1.284 . S
C10 O11 1.273 . S
O11 C10 1.273 . S
O12 Zn3 1.977 . S
O12 C5 1.267 . S
C13 O14 1.160 . S
C13 O20 1.185 . S
O14 C13 1.160 . S
O15 Zn16 1.899 . S
O15 C23 1.284 . S
Zn16 O15 1.899 . S
Zn16 O17 2.032 . S
Zn16 O20 2.086 . S
Zn16 O25 1.977 . S
O17 Zn16 2.032 . S
O17 C21 1.278 . S
C18 O19 1.203 . S
C18 O25 1.267 . S
O19 C18 1.203 . S
O20 C13 1.185 . S
O20 Zn16 2.086 . S
C21 O17 1.278 . S
C21 O22 1.211 . S
O22 C21 1.211 . S
C23 O15 1.284 . S
C23 O24 1.273 . S
O24 C23 1.273 . S
O25 Zn16 1.977 . S
O25 C18 1.267 . S
C26 O27 1.160 . S
C26 O33 1.185 . S
O27 C26 1.160 . S
O28 Zn29 1.899 . S
O28 C36 1.284 . S
Zn29 O28 1.899 . S
Zn29 O30 2.032 . S
Zn29 O33 2.086 . S
Zn29 O38 1.977 . S
O30 Zn29 2.032 . S
O30 C34 1.278 . S
C31 O32 1.203 . S
C31 O38 1.267 . S
O32 C31 1.203 . S
O33 C26 1.185 . S
O33 Zn29 2.086 . S
C34 O30 1.278 . S
C34 O35 1.211 . S
O35 C34 1.211 . S
C36 O28 1.284 . S
C36 O37 1.273 . S
O37 C36 1.273 . S
O38 Zn29 1.977 . S
O38 C31 1.267 . S
C39 O40 1.160 . S
C39 O46 1.185 . S
O40 C39 1.160 . S
O41 Zn42 1.899 . S
O41 C49 1.284 . S
Zn42 O41 1.899 . S
Zn42 O43 2.032 . S
Zn42 O46 2.086 . S
Zn42 O51 1.977 . S
O43 Zn42 2.032 . S
O43 C47 1.278 . S
C44 O45 1.203 . S
C44 O51 1.267 . S
O45 C44 1.203 . S
O46 C39 1.185 . S
O46 Zn42 2.086 . S
C47 O43 1.278 . S
C47 O48 1.211 . S
O48 C47 1.211 . S
C49 O41 1.284 . S
C49 O50 1.273 . S
O50 C49 1.273 . S
O51 Zn42 1.977 . S
O51 C44 1.267 . S
C52 O53 1.160 . S
C52 O59 1.185 . S
O53 C52 1.160 . S
O54 Zn55 1.899 . S
O54 C62 1.284 . S
Zn55 O54 1.899 . S
Zn55 O56 2.032 . S
Zn55 O59 2.086 . S
Zn55 O64 1.977 . S
O56 Zn55 2.032 . S
O56 C60 1.278 . S
C57 O58 1.203 . S
C57 O64 1.267 . S
O58 C57 1.203 . S
O59 C52 1.185 . S
O59 Zn55 2.086 . S
C60 O56 1.278 . S
C60 O61 1.211 . S
O61 C60 1.211 . S
C62 O54 1.284 . S
C62 O63 1.273 . S
O63 C62 1.273 . S
O64 Zn55 1.977 . S
O64 C57 1.267 . S
C65 O66 1.160 . S
C65 O72 1.185 . S
O66 C65 1.160 . S
O67 Zn68 1.899 . S
O67 C75 1.284 . S
Zn68 O67 1.899 . S
Zn68 O69 2.032 . S
Zn68 O72 2.086 . S
Zn68 O77 1.977 . S
O69 Zn68 2.032 . S
O69 C73 1.278 . S
C70 O71 1.203 . S
C70 O77 1.267 . S
O71 C70 1.203 . S
O72 C65 1.185 . S
O72 Zn68 2.086 . S
C73 O69 1.278 . S
C73 O74 1.211 . S
O74 C73 1.211 . S
C75 O67 1.284 . S
C75 O76 1.273 . S
O76 C75 1.273 . S
O77 Zn68 1.977 . S
O77 C70 1.267 . S
C78 O79 1.160 . S
C78 O85 1.185 . S
O79 C78 1.160 . S
O80 Zn81 1.899 . S
O80 C88 1.284 . S
Zn81 O80 1.899 . S
Zn81 O82 2.032 . S
Zn81 O85 2.086 . S
Zn81 O90 1.977 . S
O82 Zn81 2.032 . S
O82 C86 1.278 . S
C83 O84 1.203 . S
C83 O90 1.267 . S
O84 C83 1.203 . S
O85 C78 1.185 . S
O85 Zn81 2.086 . S
C86 O82 1.278 . S
C86 O87 1.211 . S
O87 C86 1.211 . S
C88 O80 1.284 . S
C88 O89 1.273 . S
O89 C88 1.273 . S
O90 Zn81 1.977 . S
O90 C83 1.267 . S
C91 O92 1.160 . S
C91 O98 1.185 . S
O92 C91 1.160 . S
O93 Zn94 1.899 . S
O93 C101 1.284 . S
Zn94 O93 1.899 . S
Zn94 O95 2.032 . S
Zn94 O98 2.086 . S
Zn94 O103 1.977 . S
O95 Zn94 2.032 . S
O95 C99 1.278 . S
C96 O97 1.203 . S
C96 O103 1.267 . S
O97 C96 1.203 . S
O98 C91 1.185 . S
O98 Zn94 2.086 . S
C99 O95 1.278 . S
C99 O100 1.211 . S
O100 C99 1.211 . S
C101 O93 1.284 . S
C101 O102 1.273 . S
O102 C101 1.273 . S
O103 Zn94 1.977 . S
O103 C96 1.267 . S
C104 C105 1.349 . S
C104 C106 1.327 . S
C104 H129 0.950 . S
C105 C104 1.349 . S
C105 C121 1.349 . S
C106 C104 1.327 . S
C106 C125 1.429 . S
C106 H130 0.950 . S
C107 C124 1.574 . S
C107 C126 1.368 . S
C107 H131 0.949 . S
H108 C112 0.949 . S
C109 C110 1.349 . S
C109 C111 1.327 . S
C109 H132 0.950 . S
C110 C109 1.349 . S
C110 C122 1.349 . S
C111 C109 1.327 . S
C111 C127 1.429 . S
C111 H133 0.950 . S
C112 H108 0.949 . S
C112 C120 1.574 . S
C112 C128 1.368 . S
H113 C121 0.950 . S
H114 C119 0.950 . S
H115 C120 0.949 . S
H116 C122 0.950 . S
H117 C123 0.950 . S
H118 C124 0.949 . S
C119 H114 0.950 . S
C119 C121 1.327 . S
C119 C125 1.429 . S
C120 C112 1.574 . S
C120 H115 0.949 . S
C120 C126 1.368 . S
C121 C105 1.349 . S
C121 H113 0.950 . S
C121 C119 1.327 . S
C122 C110 1.349 . S
C122 H116 0.950 . S
C122 C123 1.327 . S
C123 H117 0.950 . S
C123 C122 1.327 . S
C123 C127 1.429 . S
C124 C107 1.574 . S
C124 H118 0.949 . S
C124 C128 1.368 . S
C125 C106 1.429 . S
C125 C119 1.429 . S
C125 C126 1.523 . S
C126 C107 1.368 . S
C126 C120 1.368 . S
C126 C125 1.523 . S
C127 C111 1.429 . S
C127 C123 1.429 . S
C127 C128 1.523 . S
C128 C112 1.368 . S
C128 C124 1.368 . S
C128 C127 1.523 . S
H129 C104 0.950 . S
H130 C106 0.950 . S
H131 C107 0.949 . S
H132 C109 0.950 . S
H133 C111 0.950 . S
C134 C135 1.349 . S
C134 C136 1.327 . S
C134 H159 0.950 . S
C135 C134 1.349 . S
C135 C151 1.349 . S
C136 C134 1.327 . S
C136 C155 1.429 . S
C136 H160 0.950 . S
C137 C154 1.574 . S
C137 C156 1.368 . S
C137 H161 0.949 . S
H138 C142 0.949 . S
C139 C140 1.349 . S
C139 C141 1.327 . S
C139 H162 0.950 . S
C140 C139 1.349 . S
C140 C152 1.349 . S
C141 C139 1.327 . S
C141 C157 1.429 . S
C141 H163 0.950 . S
C142 H138 0.949 . S
C142 C150 1.574 . S
C142 C158 1.368 . S
H143 C151 0.950 . S
H144 C149 0.950 . S
H145 C150 0.949 . S
H146 C152 0.950 . S
H147 C153 0.950 . S
H148 C154 0.949 . S
C149 H144 0.950 . S
C149 C151 1.327 . S
C149 C155 1.429 . S
C150 C142 1.574 . S
C150 H145 0.949 . S
C150 C156 1.368 . S
C151 C135 1.349 . S
C151 H143 0.950 . S
C151 C149 1.327 . S
C152 C140 1.349 . S
C152 H146 0.950 . S
C152 C153 1.327 . S
C153 H147 0.950 . S
C153 C152 1.327 . S
C153 C157 1.429 . S
C154 C137 1.574 . S
C154 H148 0.949 . S
C154 C158 1.368 . S
C155 C136 1.429 . S
C155 C149 1.429 . S
C155 C156 1.523 . S
C156 C137 1.368 . S
C156 C150 1.368 . S
C156 C155 1.523 . S
C157 C141 1.429 . S
C157 C153 1.429 . S
C157 C158 1.523 . S
C158 C142 1.368 . S
C158 C154 1.368 . S
C158 C157 1.523 . S
H159 C134 0.950 . S
H160 C136 0.950 . S
H161 C137 0.949 . S
H162 C139 0.950 . S
H163 C141 0.950 . S
C164 C165 1.349 . S
C164 C166 1.327 . S
C164 H189 0.950 . S
C165 C164 1.349 . S
C165 C181 1.349 . S
C166 C164 1.327 . S
C166 C185 1.429 . S
C166 H190 0.950 . S
C167 C184 1.574 . S
C167 C186 1.368 1_556 S
C167 H191 0.949 . S
H168 C172 0.949 . S
C169 C170 1.349 . S
C169 C171 1.327 . S
C169 H192 0.950 . S
C170 C169 1.349 . S
C170 C182 1.349 . S
C171 C169 1.327 . S
C171 C187 1.429 . S
C171 H193 0.950 . S
C172 H168 0.949 . S
C172 C180 1.574 . S
C172 C188 1.368 1_554 S
H173 C181 0.950 . S
H174 C179 0.950 . S
H175 C180 0.949 . S
H176 C182 0.950 . S
H177 C183 0.950 . S
H178 C184 0.949 . S
C179 H174 0.950 . S
C179 C181 1.327 . S
C179 C185 1.429 . S
C180 C172 1.574 . S
C180 H175 0.949 . S
C180 C186 1.368 1_565 S
C181 C165 1.349 . S
C181 H173 0.950 . S
C181 C179 1.327 . S
C182 C170 1.349 . S
C182 H176 0.950 . S
C182 C183 1.327 . S
C183 H177 0.950 . S
C183 C182 1.327 . S
C183 C187 1.429 . S
C184 C167 1.574 . S
C184 H178 0.949 . S
C184 C188 1.368 1_545 S
C185 C166 1.429 . S
C185 C179 1.429 . S
C185 C186 1.523 . S
C186 C167 1.368 1_554 S
C186 C180 1.368 1_545 S
C186 C185 1.523 . S
C187 C171 1.429 . S
C187 C183 1.429 . S
C187 C188 1.523 . S
C188 C172 1.368 1_556 S
C188 C184 1.368 1_565 S
C188 C187 1.523 . S
H189 C164 0.950 . S
H190 C166 0.950 . S
H191 C167 0.949 . S
H192 C169 0.950 . S
H193 C171 0.950 . S
C194 C195 1.349 . S
C194 C196 1.327 . S
C194 H219 0.950 . S
C195 C194 1.349 . S
C195 C211 1.349 . S
C196 C194 1.327 . S
C196 C215 1.429 . S
C196 H220 0.950 . S
C197 C214 1.574 1_655 S
C197 C216 1.368 . S
C197 H221 0.949 . S
H198 C202 0.949 . S
C199 C200 1.349 . S
C199 C201 1.327 . S
C199 H222 0.950 . S
C200 C199 1.349 . S
C200 C212 1.349 . S
C201 C199 1.327 . S
C201 C217 1.429 . S
C201 H223 0.950 . S
C202 H198 0.949 . S
C202 C210 1.574 1_455 S
C202 C218 1.368 . S
H203 C211 0.950 . S
H204 C209 0.950 . S
H205 C210 0.949 . S
H206 C212 0.950 . S
H207 C213 0.950 . S
H208 C214 0.949 . S
C209 H204 0.950 . S
C209 C211 1.327 . S
C209 C215 1.429 . S
C210 C202 1.574 1_655 S
C210 H205 0.949 . S
C210 C216 1.368 . S
C211 C195 1.349 . S
C211 H203 0.950 . S
C211 C209 1.327 . S
C212 C200 1.349 . S
C212 H206 0.950 . S
C212 C213 1.327 . S
C213 H207 0.950 . S
C213 C212 1.327 . S
C213 C217 1.429 . S
C214 C197 1.574 1_455 S
C214 H208 0.949 . S
C214 C218 1.368 . S
C215 C196 1.429 . S
C215 C209 1.429 . S
C215 C216 1.523 . S
C216 C197 1.368 . S
C216 C210 1.368 . S
C216 C215 1.523 . S
C217 C201 1.429 . S
C217 C213 1.429 . S
C217 C218 1.523 . S
C218 C202 1.368 . S
C218 C214 1.368 . S
C218 C217 1.523 . S
H219 C194 0.950 . S
H220 C196 0.950 . S
H221 C197 0.949 . S
H222 C199 0.950 . S
H223 C201 0.950 . S
C224 C225 1.349 . S
C224 C226 1.327 . S
C224 H249 0.950 . S
C225 C224 1.349 . S
C225 C241 1.349 . S
C226 C224 1.327 . S
C226 C245 1.429 . S
C226 H250 0.950 . S
C227 C244 1.574 . S
C227 C246 1.368 1_545 S
C227 H251 0.949 . S
H228 C232 0.949 . S
C229 C230 1.349 . S
C229 C231 1.327 . S
C229 H252 0.950 . S
C230 C229 1.349 . S
C230 C242 1.349 . S
C231 C229 1.327 . S
C231 C247 1.429 . S
C231 H253 0.950 . S
C232 H228 0.949 . S
C232 C240 1.574 . S
C232 C248 1.368 1_565 S
H233 C241 0.950 . S
H234 C239 0.950 . S
H235 C240 0.949 . S
H236 C242 0.950 . S
H237 C243 0.950 . S
H238 C244 0.949 . S
C239 H234 0.950 . S
C239 C241 1.327 . S
C239 C245 1.429 . S
C240 C232 1.574 . S
C240 H235 0.949 . S
C240 C246 1.368 . S
C241 C225 1.349 . S
C241 H233 0.950 . S
C241 C239 1.327 . S
C242 C230 1.349 . S
C242 H236 0.950 . S
C242 C243 1.327 . S
C243 H237 0.950 . S
C243 C242 1.327 . S
C243 C247 1.429 . S
C244 C227 1.574 . S
C244 H238 0.949 . S
C244 C248 1.368 . S
C245 C226 1.429 . S
C245 C239 1.429 . S
C245 C246 1.523 . S
C246 C227 1.368 1_565 S
C246 C240 1.368 . S
C246 C245 1.523 . S
C247 C231 1.429 . S
C247 C243 1.429 . S
C247 C248 1.523 . S
C248 C232 1.368 1_545 S
C248 C244 1.368 . S
C248 C247 1.523 . S
H249 C224 0.950 . S
H250 C226 0.950 . S
H251 C227 0.949 . S
H252 C229 0.950 . S
H253 C231 0.950 . S
C254 C255 1.349 . S
C254 C256 1.327 . S
C254 H279 0.950 . S
C255 C254 1.349 . S
C255 C271 1.349 . S
C256 C254 1.327 . S
C256 C275 1.429 . S
C256 H280 0.950 . S
C257 C274 1.572 1_655 S
C257 C276 1.370 1_554 S
C257 H281 0.950 . S
H258 C262 0.950 . S
C259 C260 1.349 . S
C259 C261 1.327 . S
C259 H282 0.950 . S
C260 C259 1.349 . S
C260 C272 1.349 . S
C261 C259 1.327 . S
C261 C277 1.429 . S
C261 H283 0.950 . S
C262 H258 0.950 . S
C262 C270 1.572 1_455 S
C262 C278 1.370 1_556 S
H263 C271 0.950 . S
H264 C269 0.950 . S
H265 C270 0.949 . S
H266 C272 0.950 . S
H267 C273 0.950 . S
H268 C274 0.949 . S
C269 H264 0.950 . S
C269 C271 1.327 . S
C269 C275 1.429 . S
C270 C262 1.572 1_655 S
C270 H265 0.949 . S
C270 C276 1.368 . S
C271 C255 1.349 . S
C271 H263 0.950 . S
C271 C269 1.327 . S
C272 C260 1.349 . S
C272 H266 0.950 . S
C272 C273 1.327 . S
C273 H267 0.950 . S
C273 C272 1.327 . S
C273 C277 1.429 . S
C274 C257 1.572 1_455 S
C274 H268 0.949 . S
C274 C278 1.368 . S
C275 C256 1.429 . S
C275 C269 1.429 . S
C275 C276 1.523 . S
C276 C257 1.370 1_556 S
C276 C270 1.368 . S
C276 C275 1.523 . S
C277 C261 1.429 . S
C277 C273 1.429 . S
C277 C278 1.523 . S
C278 C262 1.370 1_554 S
C278 C274 1.368 . S
C278 C277 1.523 . S
H279 C254 0.950 . S
H280 C256 0.950 . S
H281 C257 0.950 . S
H282 C259 0.950 . S
H283 C261 0.950 . S
C284 C285 1.349 . S
C284 C286 1.327 . S
C284 H309 0.950 . S
C285 C284 1.349 . S
C285 C301 1.349 . S
C286 C284 1.327 . S
C286 C305 1.429 . S
C286 H310 0.950 . S
C287 C304 1.574 . S
C287 C306 1.368 . S
C287 H311 0.949 . S
H288 C292 0.949 . S
C289 C290 1.349 . S
C289 C291 1.327 . S
C289 H312 0.950 . S
C290 C289 1.349 . S
C290 C302 1.349 . S
C291 C289 1.327 . S
C291 C307 1.429 . S
C291 H313 0.950 . S
C292 H288 0.949 . S
C292 C300 1.574 . S
C292 C308 1.368 . S
H293 C301 0.950 . S
H294 C299 0.950 . S
H295 C300 0.949 . S
H296 C302 0.950 . S
H297 C303 0.950 . S
H298 C304 0.949 . S
C299 H294 0.950 . S
C299 C301 1.327 . S
C299 C305 1.429 . S
C300 C292 1.574 . S
C300 H295 0.949 . S
C300 C306 1.368 . S
C301 C285 1.349 . S
C301 H293 0.950 . S
C301 C299 1.327 . S
C302 C290 1.349 . S
C302 H296 0.950 . S
C302 C303 1.327 . S
C303 H297 0.950 . S
C303 C302 1.327 . S
C303 C307 1.429 . S
C304 C287 1.574 . S
C304 H298 0.949 . S
C304 C308 1.368 . S
C305 C286 1.429 . S
C305 C299 1.429 . S
C305 C306 1.523 . S
C306 C287 1.368 . S
C306 C300 1.368 . S
C306 C305 1.523 . S
C307 C291 1.429 . S
C307 C303 1.429 . S
C307 C308 1.523 . S
C308 C292 1.368 . S
C308 C304 1.368 . S
C308 C307 1.523 . S
H309 C284 0.950 . S
H310 C286 0.950 . S
H311 C287 0.949 . S
H312 C289 0.950 . S
H313 C291 0.950 . S
C314 C315 1.349 . S
C314 C316 1.327 . S
C314 H339 0.950 . S
C315 C314 1.349 . S
C315 C331 1.349 . S
C316 C314 1.327 . S
C316 C335 1.429 . S
C316 H340 0.950 . S
C317 C334 1.574 . S
C317 C336 1.368 . S
C317 H341 0.949 . S
H318 C322 0.949 . S
C319 C320 1.349 . S
C319 C321 1.327 . S
C319 H342 0.950 . S
C320 C319 1.349 . S
C320 C332 1.349 . S
C321 C319 1.327 . S
C321 C337 1.429 . S
C321 H343 0.950 . S
C322 H318 0.949 . S
C322 C330 1.574 . S
C322 C338 1.368 . S
H323 C331 0.950 . S
H324 C329 0.950 . S
H325 C330 0.949 . S
H326 C332 0.950 . S
H327 C333 0.950 . S
H328 C334 0.949 . S
C329 H324 0.950 . S
C329 C331 1.327 . S
C329 C335 1.429 . S
C330 C322 1.574 . S
C330 H325 0.949 . S
C330 C336 1.368 . S
C331 C315 1.349 . S
C331 H323 0.950 . S
C331 C329 1.327 . S
C332 C320 1.349 . S
C332 H326 0.950 . S
C332 C333 1.327 . S
C333 H327 0.950 . S
C333 C332 1.327 . S
C333 C337 1.429 . S
C334 C317 1.574 . S
C334 H328 0.949 . S
C334 C338 1.368 . S
C335 C316 1.429 . S
C335 C329 1.429 . S
C335 C336 1.523 . S
C336 C317 1.368 . S
C336 C330 1.368 . S
C336 C335 1.523 . S
C337 C321 1.429 . S
C337 C333 1.429 . S
C337 C338 1.523 . S
C338 C322 1.368 . S
C338 C334 1.368 . S
C338 C337 1.523 . S
H339 C314 0.950 . S
H340 C316 0.950 . S
H341 C317 0.949 . S
H342 C319 0.950 . S
H343 C321 0.950 . S
C344 C345 1.349 . S
C344 C346 1.327 . S
C344 H369 0.950 . S
C345 C344 1.349 . S
C345 C361 1.349 . S
C346 C344 1.327 . S
C346 C365 1.429 . S
C346 H370 0.950 . S
C347 C364 1.574 . S
C347 C366 1.368 . S
C347 H371 0.949 . S
H348 C352 0.949 . S
C349 C350 1.349 . S
C349 C351 1.327 . S
C349 H372 0.950 . S
C350 C349 1.349 . S
C350 C362 1.349 . S
C351 C349 1.327 . S
C351 C367 1.429 . S
C351 H373 0.950 . S
C352 H348 0.949 . S
C352 C360 1.574 . S
C352 C368 1.368 . S
H353 C361 0.950 . S
H354 C359 0.950 . S
H355 C360 0.949 . S
H356 C362 0.950 . S
H357 C363 0.950 . S
H358 C364 0.949 . S
C359 H354 0.950 . S
C359 C361 1.327 . S
C359 C365 1.429 . S
C360 C352 1.574 . S
C360 H355 0.949 . S
C360 C366 1.368 . S
C361 C345 1.349 . S
C361 H353 0.950 . S
C361 C359 1.327 . S
C362 C350 1.349 . S
C362 H356 0.950 . S
C362 C363 1.327 . S
C363 H357 0.950 . S
C363 C362 1.327 . S
C363 C367 1.429 . S
C364 C347 1.574 . S
C364 H358 0.949 . S
C364 C368 1.368 . S
C365 C346 1.429 . S
C365 C359 1.429 . S
C365 C366 1.523 . S
C366 C347 1.368 . S
C366 C360 1.368 . S
C366 C365 1.523 . S
C367 C351 1.429 . S
C367 C363 1.429 . S
C367 C368 1.523 . S
C368 C352 1.368 . S
C368 C364 1.368 . S
C368 C367 1.523 . S
H369 C344 0.950 . S
H370 C346 0.950 . S
H371 C347 0.949 . S
H372 C349 0.950 . S
H373 C351 0.950 . S
C374 C375 1.349 . S
C374 C376 1.327 . S
C374 H399 0.950 . S
C375 C374 1.349 . S
C375 C391 1.349 . S
C376 C374 1.327 . S
C376 C395 1.429 . S
C376 H400 0.950 . S
C377 C394 1.574 . S
C377 C396 1.368 . S
C377 H401 0.949 . S
H378 C382 0.949 . S
C379 C380 1.349 . S
C379 C381 1.327 . S
C379 H402 0.950 . S
C380 C379 1.349 . S
C380 C392 1.349 . S
C381 C379 1.327 . S
C381 C397 1.429 . S
C381 H403 0.950 . S
C382 H378 0.949 . S
C382 C390 1.574 . S
C382 C398 1.368 . S
H383 C391 0.950 . S
H384 C389 0.950 . S
H385 C390 0.949 . S
H386 C392 0.950 . S
H387 C393 0.950 . S
H388 C394 0.949 . S
C389 H384 0.950 . S
C389 C391 1.327 . S
C389 C395 1.429 . S
C390 C382 1.574 . S
C390 H385 0.949 . S
C390 C396 1.368 1_554 S
C391 C375 1.349 . S
C391 H383 0.950 . S
C391 C389 1.327 . S
C392 C380 1.349 . S
C392 H386 0.950 . S
C392 C393 1.327 . S
C393 H387 0.950 . S
C393 C392 1.327 . S
C393 C397 1.429 . S
C394 C377 1.574 . S
C394 H388 0.949 . S
C394 C398 1.368 1_556 S
C395 C376 1.429 . S
C395 C389 1.429 . S
C395 C396 1.523 . S
C396 C377 1.368 . S
C396 C390 1.368 1_556 S
C396 C395 1.523 . S
C397 C381 1.429 . S
C397 C393 1.429 . S
C397 C398 1.523 . S
C398 C382 1.368 . S
C398 C394 1.368 1_554 S
C398 C397 1.523 . S
H399 C374 0.950 . S
H400 C376 0.950 . S
H401 C377 0.949 . S
H402 C379 0.950 . S
H403 C381 0.950 . S
C404 C405 1.349 . S
C404 C406 1.327 . S
C404 H429 0.950 . S
C405 C404 1.349 . S
C405 C421 1.349 . S
C406 C404 1.327 . S
C406 C425 1.429 . S
C406 H430 0.950 . S
C407 C424 1.574 1_565 S
C407 C426 1.368 . S
C407 H431 0.949 . S
H408 C412 0.949 . S
C409 C410 1.349 . S
C409 C411 1.327 . S
C409 H432 0.950 . S
C410 C409 1.349 . S
C410 C422 1.349 . S
C411 C409 1.327 . S
C411 C427 1.429 . S
C411 H433 0.950 . S
C412 H408 0.949 . S
C412 C420 1.574 1_545 S
C412 C428 1.368 . S
H413 C421 0.950 . S
H414 C419 0.950 . S
H415 C420 0.949 . S
H416 C422 0.950 . S
H417 C423 0.950 . S
H418 C424 0.949 . S
C419 H414 0.950 . S
C419 C421 1.327 . S
C419 C425 1.429 . S
C420 C412 1.574 1_565 S
C420 H415 0.949 . S
C420 C426 1.368 . S
C421 C405 1.349 . S
C421 H413 0.950 . S
C421 C419 1.327 . S
C422 C410 1.349 . S
C422 H416 0.950 . S
C422 C423 1.327 . S
C423 H417 0.950 . S
C423 C422 1.327 . S
C423 C427 1.429 . S
C424 C407 1.574 1_545 S
C424 H418 0.949 . S
C424 C428 1.368 . S
C425 C406 1.429 . S
C425 C419 1.429 . S
C425 C426 1.523 . S
C426 C407 1.368 . S
C426 C420 1.368 . S
C426 C425 1.523 . S
C427 C411 1.429 . S
C427 C423 1.429 . S
C427 C428 1.523 . S
C428 C412 1.368 . S
C428 C424 1.368 . S
C428 C427 1.523 . S
H429 C404 0.950 . S
H430 C406 0.950 . S
H431 C407 0.949 . S
H432 C409 0.950 . S
H433 C411 0.950 . S
C434 C435 1.349 . S
C434 C436 1.327 . S
C434 H459 0.950 . S
C435 C434 1.349 . S
C435 C451 1.349 . S
C436 C434 1.327 . S
C436 C455 1.429 . S
C436 H460 0.950 . S
C437 C454 1.574 . S
C437 C456 1.368 1_545 S
C437 H461 0.949 . S
H438 C442 0.949 . S
C439 C440 1.349 . S
C439 C441 1.327 . S
C439 H462 0.950 . S
C440 C439 1.349 . S
C440 C452 1.349 . S
C441 C439 1.327 . S
C441 C457 1.429 . S
C441 H463 0.950 . S
C442 H438 0.949 . S
C442 C450 1.574 . S
C442 C458 1.368 1_565 S
H443 C451 0.950 . S
H444 C449 0.950 . S
H445 C450 0.949 . S
H446 C452 0.950 . S
H447 C453 0.950 . S
H448 C454 0.949 . S
C449 H444 0.950 . S
C449 C451 1.327 . S
C449 C455 1.429 . S
C450 C442 1.574 . S
C450 H445 0.949 . S
C450 C456 1.368 1_455 S
C451 C435 1.349 . S
C451 H443 0.950 . S
C451 C449 1.327 . S
C452 C440 1.349 . S
C452 H446 0.950 . S
C452 C453 1.327 . S
C453 H447 0.950 . S
C453 C452 1.327 . S
C453 C457 1.429 . S
C454 C437 1.574 . S
C454 H448 0.949 . S
C454 C458 1.368 1_655 S
C455 C436 1.429 . S
C455 C449 1.429 . S
C455 C456 1.523 . S
C456 C437 1.368 1_565 S
C456 C450 1.368 1_655 S
C456 C455 1.523 . S
C457 C441 1.429 . S
C457 C453 1.429 . S
C457 C458 1.523 . S
C458 C442 1.368 1_545 S
C458 C454 1.368 1_455 S
C458 C457 1.523 . S
H459 C434 0.950 . S
H460 C436 0.950 . S
H461 C437 0.949 . S
H462 C439 0.950 . S
H463 C441 0.950 . S
C464 C465 1.349 . S
C464 C466 1.327 . S
C464 H489 0.950 . S
C465 C464 1.349 . S
C465 C481 1.349 . S
C466 C464 1.327 . S
C466 C485 1.429 . S
C466 H490 0.950 . S
C467 C484 1.574 . S
C467 C486 1.368 1_455 S
C467 H491 0.949 . S
H468 C472 0.949 . S
C469 C470 1.349 . S
C469 C471 1.327 . S
C469 H492 0.950 . S
C470 C469 1.349 . S
C470 C482 1.349 . S
C471 C469 1.327 . S
C471 C487 1.429 . S
C471 H493 0.950 . S
C472 H468 0.949 . S
C472 C480 1.574 . S
C472 C488 1.368 1_655 S
H473 C481 0.950 . S
H474 C479 0.950 . S
H475 C480 0.949 . S
H476 C482 0.950 . S
H477 C483 0.950 . S
H478 C484 0.949 . S
C479 H474 0.950 . S
C479 C481 1.327 . S
C479 C485 1.429 . S
C480 C472 1.574 . S
C480 H475 0.949 . S
C480 C486 1.368 . S
C481 C465 1.349 . S
C481 H473 0.950 . S
C481 C479 1.327 . S
C482 C470 1.349 . S
C482 H476 0.950 . S
C482 C483 1.327 . S
C483 H477 0.950 . S
C483 C482 1.327 . S
C483 C487 1.429 . S
C484 C467 1.574 . S
C484 H478 0.949 . S
C484 C488 1.368 . S
C485 C466 1.429 . S
C485 C479 1.429 . S
C485 C486 1.523 . S
C486 C467 1.368 1_655 S
C486 C480 1.368 . S
C486 C485 1.523 . S
C487 C471 1.429 . S
C487 C483 1.429 . S
C487 C488 1.523 . S
C488 C472 1.368 1_455 S
C488 C484 1.368 . S
C488 C487 1.523 . S
H489 C464 0.950 . S
H490 C466 0.950 . S
H491 C467 0.949 . S
H492 C469 0.950 . S
H493 C471 0.950 . S
C494 C495 1.349 . S
C494 C496 1.327 . S
C494 H519 0.950 . S
C495 C494 1.349 . S
C495 C511 1.349 . S
C496 C494 1.327 . S
C496 C515 1.429 . S
C496 H520 0.950 . S
C497 C514 1.574 . S
C497 C516 1.368 . S
C497 H521 0.949 . S
H498 C502 0.949 . S
C499 C500 1.349 . S
C499 C501 1.327 . S
C499 H522 0.950 . S
C500 C499 1.349 . S
C500 C512 1.349 . S
C501 C499 1.327 . S
C501 C517 1.429 . S
C501 H523 0.950 . S
C502 H498 0.949 . S
C502 C510 1.574 . S
C502 C518 1.368 . S
H503 C511 0.950 . S
H504 C509 0.950 . S
H505 C510 0.949 . S
H506 C512 0.950 . S
H507 C513 0.950 . S
H508 C514 0.949 . S
C509 H504 0.950 . S
C509 C511 1.327 . S
C509 C515 1.429 . S
C510 C502 1.574 . S
C510 H505 0.949 . S
C510 C516 1.368 . S
C511 C495 1.349 . S
C511 H503 0.950 . S
C511 C509 1.327 . S
C512 C500 1.349 . S
C512 H506 0.950 . S
C512 C513 1.327 . S
C513 H507 0.950 . S
C513 C512 1.327 . S
C513 C517 1.429 . S
C514 C497 1.574 . S
C514 H508 0.949 . S
C514 C518 1.368 . S
C515 C496 1.429 . S
C515 C509 1.429 . S
C515 C516 1.523 . S
C516 C497 1.368 . S
C516 C510 1.368 . S
C516 C515 1.523 . S
C517 C501 1.429 . S
C517 C513 1.429 . S
C517 C518 1.523 . S
C518 C502 1.368 . S
C518 C514 1.368 . S
C518 C517 1.523 . S
H519 C494 0.950 . S
H520 C496 0.950 . S
H521 C497 0.949 . S
H522 C499 0.950 . S
H523 C501 0.950 . S
C524 C525 1.349 . S
C524 C526 1.327 . S
C524 H549 0.950 . S
C525 C524 1.349 . S
C525 C541 1.349 . S
C526 C524 1.327 . S
C526 C545 1.429 . S
C526 H550 0.950 . S
C527 C544 1.567 1_554 S
C527 C546 1.368 . S
C527 H551 0.949 . S
H528 C532 0.949 . S
C529 C530 1.349 . S
C529 C531 1.327 . S
C529 H552 0.950 . S
C530 C529 1.349 . S
C530 C542 1.349 . S
C531 C529 1.327 . S
C531 C547 1.429 . S
C531 H553 0.950 . S
C532 H528 0.949 . S
C532 C540 1.574 . S
C532 C548 1.368 . S
H533 C541 0.950 . S
H534 C539 0.950 . S
H535 C540 0.949 . S
H536 C542 0.950 . S
H537 C543 0.950 . S
H538 C544 0.948 1_554 S
C539 H534 0.950 . S
C539 C541 1.327 . S
C539 C545 1.429 . S
C540 C532 1.574 . S
C540 H535 0.949 . S
C540 C546 1.368 1_556 S
C541 C525 1.349 . S
C541 H533 0.950 . S
C541 C539 1.327 . S
C542 C530 1.349 . S
C542 H536 0.950 . S
C542 C543 1.327 . S
C543 H537 0.950 . S
C543 C542 1.327 . S
C543 C547 1.429 . S
C544 C527 1.567 1_556 S
C544 H538 0.948 1_556 S
C544 C548 1.376 . S
C545 C526 1.429 . S
C545 C539 1.429 . S
C545 C546 1.523 . S
C546 C527 1.368 . S
C546 C540 1.368 1_554 S
C546 C545 1.523 . S
C547 C531 1.429 . S
C547 C543 1.429 . S
C547 C548 1.523 . S
C548 C532 1.368 . S
C548 C544 1.376 . S
C548 C547 1.523 . S
H549 C524 0.950 . S
H550 C526 0.950 . S
H551 C527 0.949 . S
H552 C529 0.950 . S
H553 C531 0.950 . S
C554 C555 1.349 . S
C554 C556 1.327 . S
C554 H579 0.950 . S
C555 C554 1.349 . S
C555 C571 1.349 . S
C556 C554 1.327 . S
C556 C575 1.429 . S
C556 H580 0.950 . S
C557 C574 1.574 . S
C557 C576 1.368 . S
C557 H581 0.949 . S
H558 C562 0.949 . S
C559 C560 1.349 . S
C559 C561 1.327 . S
C559 H582 0.950 . S
C560 C559 1.349 . S
C560 C572 1.349 . S
C561 C559 1.327 . S
C561 C577 1.429 . S
C561 H583 0.950 . S
C562 H558 0.949 . S
C562 C570 1.574 . S
C562 C578 1.368 . S
H563 C571 0.950 . S
H564 C569 0.950 . S
H565 C570 0.949 . S
H566 C572 0.950 . S
H567 C573 0.950 . S
H568 C574 0.949 . S
C569 H564 0.950 . S
C569 C571 1.327 . S
C569 C575 1.429 . S
C570 C562 1.574 . S
C570 H565 0.949 . S
C570 C576 1.368 . S
C571 C555 1.349 . S
C571 H563 0.950 . S
C571 C569 1.327 . S
C572 C560 1.349 . S
C572 H566 0.950 . S
C572 C573 1.327 . S
C573 H567 0.950 . S
C573 C572 1.327 . S
C573 C577 1.429 . S
C574 C557 1.574 . S
C574 H568 0.949 . S
C574 C578 1.368 . S
C575 C556 1.429 . S
C575 C569 1.429 . S
C575 C576 1.523 . S
C576 C557 1.368 . S
C576 C570 1.368 . S
C576 C575 1.523 . S
C577 C561 1.429 . S
C577 C573 1.429 . S
C577 C578 1.523 . S
C578 C562 1.368 . S
C578 C574 1.368 . S
C578 C577 1.523 . S
H579 C554 0.950 . S
H580 C556 0.950 . S
H581 C557 0.949 . S
H582 C559 0.950 . S
H583 C561 0.950 . S
C105 C75 1.486 . S
C110 C5 1.478 . S
C135 C101 1.486 . S
C140 C18 1.478 . S
C165 C34 1.473 . S
C170 C86 1.473 . S
C195 C39 1.481 . S
C200 C52 1.481 . S
C225 C83 1.478 . S
C230 C10 1.486 . S
C255 C21 1.473 . S
C260 C60 1.473 . S
C285 C65 1.481 . S
C290 C26 1.481 . S
C315 C49 1.486 . S
C320 C96 1.478 . S
C345 C62 1.486 . S
C350 C70 1.478 . S
C375 C23 1.486 . S
C380 C31 1.478 . S
C405 C44 1.478 . S
C410 C36 1.486 . S
C435 C47 1.473 . S
C440 C8 1.473 . S
C465 C13 1.481 . S
C470 C0 1.481 . S
C495 C91 1.481 . S
C500 C78 1.481 . S
C525 C57 1.478 . S
C530 C88 1.486 . S
C555 C73 1.473 . S
C560 C99 1.473 . S
