# Generated by pormake.
# Topology uof, (4)-cn, num edge types: 1
# Building blocks:
#     Node 0, Type 0, BuildingBlock: CEKHIL_clean_sbu_0, # of connection points: 4
#     Node 1, Type 0, BuildingBlock: CEKHIL_clean_sbu_0, # of connection points: 4
#     Node 2, Type 0, BuildingBlock: CEKHIL_clean_sbu_0, # of connection points: 4
#     Node 3, Type 0, BuildingBlock: CEKHIL_clean_sbu_0, # of connection points: 4
#     Node 4, Type 0, BuildingBlock: CEKHIL_clean_sbu_0, # of connection points: 4
#     Node 5, Type 0, BuildingBlock: CEKHIL_clean_sbu_0, # of connection points: 4
#     Node 6, Type 0, BuildingBlock: CEKHIL_clean_sbu_0, # of connection points: 4
#     Node 7, Type 0, BuildingBlock: CEKHIL_clean_sbu_0, # of connection points: 4
#     Node 8, Type 0, BuildingBlock: CEKHIL_clean_sbu_0, # of connection points: 4
#     Node 9, Type 0, BuildingBlock: CEKHIL_clean_sbu_0, # of connection points: 4
#     Node 10, Type 0, BuildingBlock: CEKHIL_clean_sbu_0, # of connection points: 4
#     Node 11, Type 0, BuildingBlock: CEKHIL_clean_sbu_0, # of connection points: 4
#     Edge 12, Type (0, 0), BuildingBlock: ZUJKAS_clean_linker_0, # of connection points: 2
#     Edge 13, Type (0, 0), BuildingBlock: ZUJKAS_clean_linker_0, # of connection points: 2
#     Edge 14, Type (0, 0), BuildingBlock: ZUJKAS_clean_linker_0, # of connection points: 2
#     Edge 15, Type (0, 0), BuildingBlock: ZUJKAS_clean_linker_0, # of connection points: 2
#     Edge 16, Type (0, 0), BuildingBlock: ZUJKAS_clean_linker_0, # of connection points: 2
#     Edge 17, Type (0, 0), BuildingBlock: ZUJKAS_clean_linker_0, # of connection points: 2
#     Edge 18, Type (0, 0), BuildingBlock: ZUJKAS_clean_linker_0, # of connection points: 2
#     Edge 19, Type (0, 0), BuildingBlock: ZUJKAS_clean_linker_0, # of connection points: 2
#     Edge 20, Type (0, 0), BuildingBlock: ZUJKAS_clean_linker_0, # of connection points: 2
#     Edge 21, Type (0, 0), BuildingBlock: ZUJKAS_clean_linker_0, # of connection points: 2
#     Edge 22, Type (0, 0), BuildingBlock: ZUJKAS_clean_linker_0, # of connection points: 2
#     Edge 23, Type (0, 0), BuildingBlock: ZUJKAS_clean_linker_0, # of connection points: 2
#     Edge 24, Type (0, 0), BuildingBlock: ZUJKAS_clean_linker_0, # of connection points: 2
#     Edge 25, Type (0, 0), BuildingBlock: ZUJKAS_clean_linker_0, # of connection points: 2
#     Edge 26, Type (0, 0), BuildingBlock: ZUJKAS_clean_linker_0, # of connection points: 2
#     Edge 27, Type (0, 0), BuildingBlock: ZUJKAS_clean_linker_0, # of connection points: 2
#     Edge 28, Type (0, 0), BuildingBlock: ZUJKAS_clean_linker_0, # of connection points: 2
#     Edge 29, Type (0, 0), BuildingBlock: ZUJKAS_clean_linker_0, # of connection points: 2
#     Edge 30, Type (0, 0), BuildingBlock: ZUJKAS_clean_linker_0, # of connection points: 2
#     Edge 31, Type (0, 0), BuildingBlock: ZUJKAS_clean_linker_0, # of connection points: 2
#     Edge 32, Type (0, 0), BuildingBlock: ZUJKAS_clean_linker_0, # of connection points: 2
#     Edge 33, Type (0, 0), BuildingBlock: ZUJKAS_clean_linker_0, # of connection points: 2
#     Edge 34, Type (0, 0), BuildingBlock: ZUJKAS_clean_linker_0, # of connection points: 2
#     Edge 35, Type (0, 0), BuildingBlock: ZUJKAS_clean_linker_0, # of connection points: 2
# Relax obj value: 0.203
# Max RMSD: 0.143
# Mean RMSD: 0.143
data_MOF--net-uof--node1-CEKHIL_clean_sbu_0--edge1-ZUJKAS_clean_linker_0
_symmetry_space_group_name_H-M    P1
_symmetry_Int_Tables_number       1
_symmetry_cell_setting            triclinic
loop_
_symmetry_equiv_pos_as_xyz
'x, y, z'
_cell_length_a     41.53743
_cell_length_b     41.492837
_cell_length_c     81.256431
_cell_angle_alpha  89.992935
_cell_angle_beta   90.000818
_cell_angle_gamma 119.96407
loop_
_atom_site_label
_atom_site_type_symbol
_atom_site_fract_x
_atom_site_fract_y
_atom_site_fract_z
_atom_type_partial_charge
Co0 Co 0.22968 0.30893 0.22407 0.0
O1 O 0.17645 0.27594 0.22472 0.0
O2 O 0.20399 0.32967 0.21164 0.0
C3 C 0.24094 0.3043 0.25103 0.0
O4 O 0.28438 0.35067 0.22106 0.0
Co5 Co 0.28344 0.27875 0.23244 0.0
O6 O 0.32043 0.33222 0.23409 0.0
C7 C 0.2398 0.2567 0.20176 0.0
C8 C 0.17326 0.29907 0.21505 0.0
C9 C 0.316 0.3571 0.227 0.0
O10 O 0.23102 0.28206 0.20372 0.0
O11 O 0.25824 0.24948 0.21227 0.0
O12 O 0.22976 0.32728 0.24654 0.0
O13 O 0.24152 0.28339 0.23951 0.0
Co14 Co 0.92173 0.23027 0.56546 0.0
O15 O 0.89394 0.17636 0.56533 0.0
O16 O 0.88833 0.21134 0.54646 0.0
C17 C 0.91514 0.23728 0.59265 0.0
O18 O 0.94512 0.28714 0.56191 0.0
Co19 Co 0.99368 0.27324 0.5869 0.0
O20 O 0.9871 0.31631 0.58209 0.0
C21 C 0.99367 0.23269 0.55706 0.0
C22 C 0.87901 0.17801 0.55157 0.0
C23 C 0.96743 0.31677 0.57016 0.0
O24 O 0.96207 0.22832 0.55245 0.0
O25 O 0.00913 0.24729 0.57079 0.0
O26 O 0.88882 0.23259 0.58252 0.0
O27 O 0.94211 0.23498 0.58626 0.0
Co28 Co 0.69698 0.9182 0.89101 0.0
O29 O 0.73014 0.89805 0.89097 0.0
O30 O 0.67666 0.87287 0.87777 0.0
C31 C 0.7016 0.93188 0.91825 0.0
O32 O 0.65514 0.9313 0.88866 0.0
Co33 Co 0.72683 1.00135 0.90082 0.0
O34 O 0.67334 0.98474 0.90258 0.0
C35 C 0.74689 0.98271 0.86887 0.0
C36 C 0.7072 0.87246 0.88099 0.0
C37 C 0.64862 0.9561 0.89506 0.0
O38 O 0.72336 0.94805 0.87094 0.0
O39 O 0.75389 0.00782 0.87966 0.0
O40 O 0.67877 0.89809 0.91329 0.0
O41 O 0.72238 0.95433 0.90696 0.0
Co42 Co 0.77867 0.69582 0.22342 0.0
O43 O 0.8321 0.72764 0.22417 0.0
O44 O 0.8034 0.67391 0.21111 0.0
C45 C 0.7675 0.7013 0.25032 0.0
O46 O 0.72359 0.65506 0.22041 0.0
Co47 Co 0.72667 0.72829 0.23133 0.0
O48 O 0.6887 0.67517 0.23327 0.0
C49 C 0.76963 0.74799 0.20048 0.0
C50 C 0.83457 0.70401 0.21456 0.0
C51 C 0.69229 0.64963 0.22633 0.0
O52 O 0.77824 0.72265 0.20288 0.0
O53 O 0.75144 0.75605 0.21078 0.0
O54 O 0.77787 0.67759 0.246 0.0
O55 O 0.76766 0.72235 0.23868 0.0
Co56 Co 0.10054 0.78334 0.55931 0.0
O57 O 0.12082 0.83674 0.55954 0.0
O58 O 0.14448 0.80852 0.54517 0.0
C59 C 0.08996 0.77428 0.58681 0.0
O60 O 0.08714 0.72821 0.55652 0.0
Co61 Co 0.01878 0.72995 0.57096 0.0
O62 O 0.03576 0.69327 0.57173 0.0
C63 C 0.03356 0.7698 0.53936 0.0
C64 C 0.14542 0.83952 0.54894 0.0
C65 C 0.06334 0.69701 0.56337 0.0
O66 O 0.06832 0.78029 0.54017 0.0
O67 O 0.01012 0.75178 0.55074 0.0
O68 O 0.12307 0.78505 0.58102 0.0
O69 O 0.06634 0.77263 0.57616 0.0
Co70 Co 0.31301 0.08551 0.88904 0.0
O71 O 0.2807 0.10665 0.88961 0.0
O72 O 0.33388 0.13143 0.87618 0.0
C73 C 0.30879 0.07069 0.91615 0.0
O74 O 0.35413 0.0715 0.88613 0.0
Co75 Co 0.28174 1.00167 0.89798 0.0
O76 O 0.33496 0.01718 0.89949 0.0
C77 C 0.25983 0.02268 0.86712 0.0
C78 C 0.30373 0.13237 0.87971 0.0
C79 C 0.36006 0.04605 0.89225 0.0
O80 O 0.28545 0.05673 0.86891 0.0
O81 O 0.25241 0.99724 0.87779 0.0
O82 O 0.33196 0.10454 0.91137 0.0
O83 O 0.28748 0.04889 0.9048 0.0
Co84 Co 0.70147 0.78616 0.44236 0.0
O85 O 0.73293 0.83977 0.44216 0.0
O86 O 0.68239 0.80982 0.45726 0.0
C87 C 0.70135 0.7778 0.41473 0.0
O88 O 0.66167 0.73051 0.44537 0.0
Co89 Co 0.73167 0.73521 0.42926 0.0
O90 O 0.67849 0.69685 0.42941 0.0
C91 C 0.75748 0.77414 0.46106 0.0
C92 C 0.71146 0.84144 0.4533 0.0
C93 C 0.65488 0.69958 0.43842 0.0
O94 O 0.73269 0.78401 0.46078 0.0
O95 O 0.76287 0.75676 0.44935 0.0
O96 O 0.67843 0.78716 0.42115 0.0
O97 O 0.72461 0.77696 0.42488 0.0
Co98 Co 0.92722 0.69443 0.77787 0.0
O99 O 0.90698 0.72756 0.77712 0.0
O100 O 0.88072 0.67382 0.7902 0.0
C101 C 0.94368 0.6993 0.75097 0.0
O102 O 0.93977 0.65229 0.78086 0.0
Co103 Co 0.01123 0.72428 0.77003 0.0
O104 O 0.99495 0.67084 0.76846 0.0
C105 C 0.98891 0.74693 0.80029 0.0
C106 C 0.88055 0.7044 0.78673 0.0
C107 C 0.96519 0.64587 0.77518 0.0
O108 O 0.95503 0.72108 0.79834 0.0
O109 O 0.01474 0.75424 0.78987 0.0
O110 O 0.90942 0.67649 0.75531 0.0
O111 O 0.96498 0.71996 0.76259 0.0
Co112 Co 0.22773 0.9172 0.10849 0.0
O113 O 0.17417 0.89461 0.10805 0.0
O114 O 0.20432 0.87314 0.12255 0.0
C115 C 0.23731 0.92839 0.08108 0.0
O116 O 0.28324 0.93309 0.11157 0.0
Co117 Co 0.27813 0.9999 0.09738 0.0
O118 O 0.31674 0.98543 0.0967 0.0
C119 C 0.2371 0.98247 0.12869 0.0
C120 C 0.17267 0.87068 0.11875 0.0
C121 C 0.31408 0.95808 0.10493 0.0
O122 O 0.22863 0.94824 0.12769 0.0
O123 O 0.25451 0.00668 0.11748 0.0
O124 O 0.22775 0.89547 0.08682 0.0
O125 O 0.23733 0.95135 0.0917 0.0
Co126 Co 0.31855 0.23471 0.44306 0.0
O127 O 0.29059 0.18088 0.44265 0.0
O128 O 0.33906 0.21355 0.45862 0.0
C129 C 0.32098 0.24387 0.41542 0.0
O130 O 0.35474 0.2914 0.44628 0.0
Co131 Co 0.28096 0.27842 0.42913 0.0
O132 O 0.33129 0.32152 0.43191 0.0
C133 C 0.25576 0.23815 0.46039 0.0
C134 C 0.31192 0.18094 0.45431 0.0
C135 C 0.35709 0.3217 0.44046 0.0
O136 O 0.28413 0.23352 0.46089 0.0
O137 O 0.24811 0.25263 0.4482 0.0
O138 O 0.34468 0.23626 0.42238 0.0
O139 O 0.29537 0.24169 0.42497 0.0
Co140 Co 0.09644 0.31323 0.76802 0.0
O141 O 0.12288 0.28581 0.76844 0.0
O142 O 0.13192 0.32959 0.78626 0.0
C143 C 0.10012 0.32292 0.74051 0.0
O144 O 0.07497 0.34839 0.77108 0.0
Co145 Co 0.02237 0.28351 0.7481 0.0
O146 O 0.03182 0.33472 0.75138 0.0
C147 C 0.02348 0.24854 0.7796 0.0
C148 C 0.13968 0.30416 0.78162 0.0
C149 C 0.05274 0.35577 0.76281 0.0
O150 O 0.05712 0.27401 0.78259 0.0
O151 O 1.00599 0.24645 0.76632 0.0
O152 O 0.12783 0.34535 0.74985 0.0
O153 O 0.07341 0.29497 0.74781 0.0
Co154 Co 0.77788 0.08499 0.11073 0.0
O155 O 0.83119 0.10557 0.11032 0.0
O156 O 0.80285 0.12972 0.12431 0.0
C157 C 0.7679 0.07285 0.08341 0.0
O158 O 0.72296 0.07139 0.11373 0.0
Co159 Co 0.72473 1.00228 0.10025 0.0
O160 O 0.68747 0.01851 0.09949 0.0
C161 C 0.76761 0.01992 0.13108 0.0
C162 C 0.83383 0.13058 0.12067 0.0
C163 C 0.69154 0.04683 0.10736 0.0
O164 O 0.77591 0.05411 0.13019 0.0
O165 O 0.74974 0.99575 0.11992 0.0
O166 O 0.77874 0.10628 0.08886 0.0
O167 O 0.76682 0.04979 0.09427 0.0
H168 H 0.84974 0.18661 0.14311 0.0
H169 H 0.90748 0.22309 0.15878 0.0
H170 H 0.9557 0.16509 0.13426 0.0
H171 H 0.89896 0.12972 0.11831 0.0
H172 H 0.94033 0.20231 0.1806 0.0
H173 H 0.03982 0.26859 0.12967 0.0
H174 H 0.99024 0.24486 0.12647 0.0
H175 H 0.01457 0.21907 0.12724 0.0
C176 C 0.87293 0.18219 0.14083 0.0
C177 C 0.8697 0.15548 0.12926 0.0
C178 C 0.90596 0.20297 0.14987 0.0
C179 C 0.93657 0.19757 0.14757 0.0
C180 C 0.93324 0.1709 0.13599 0.0
H181 H 0.1083 0.23288 0.21727 0.0
H182 H 0.05133 0.21186 0.20154 0.0
C183 C 0.90049 0.15042 0.12688 0.0
C184 C 0.97109 0.21799 0.15786 0.0
H185 H 0.06617 0.26631 0.15574 0.0
C186 C 0.9678 0.21668 0.17511 0.0
C187 C 1.00721 0.23754 0.15089 0.0
C188 C 0.01318 0.24297 0.13255 0.0
C189 C 0.99928 0.23282 0.18546 0.0
C190 C 0.03542 0.25001 0.17847 0.0
C191 C 0.0387 0.25274 0.16123 0.0
C192 C 0.06998 0.26397 0.18873 0.0
C193 C 0.9933 0.23145 0.20382 0.0
C194 C 0.10037 0.3002 0.18665 0.0
C195 C 0.13353 0.31228 0.19557 0.0
C196 C 0.13712 0.28838 0.20678 0.0
C197 C 0.10651 0.25235 0.20897 0.0
C198 C 0.07362 0.24026 0.19999 0.0
H199 H 0.96652 0.23001 0.20684 0.0
H200 H 0.99219 0.20606 0.20887 0.0
H201 H 0.0161 0.25613 0.21005 0.0
H202 H 0.0986 0.3191 0.17799 0.0
H203 H 0.15658 0.34005 0.19343 0.0
H204 H 0.84754 0.17136 0.52084 0.0
H205 H 0.8145 0.11493 0.50393 0.0
H206 H 0.82533 0.05034 0.54282 0.0
H207 H 0.85838 0.10631 0.55963 0.0
H208 H 0.84679 0.03642 0.51323 0.0
H209 H 0.70897 0.02589 0.50659 0.0
H210 H 0.74754 0.07008 0.50063 0.0
H211 H 0.7426 0.05545 0.52175 0.0
C212 C 0.84238 0.14504 0.52589 0.0
C213 C 0.85561 0.14356 0.54167 0.0
C214 C 0.82331 0.11266 0.51621 0.0
C215 C 0.81693 0.078 0.52209 0.0
C216 C 0.82967 0.07651 0.53794 0.0
H217 H 0.67974 0.8532 0.48092 0.0
H218 H 0.70392 0.9106 0.49725 0.0
C219 C 0.84856 0.10871 0.54759 0.0
C220 C 0.79907 0.04363 0.51154 0.0
H221 H 0.71967 0.9844 0.4904 0.0
C222 C 0.81898 0.02513 0.50827 0.0
C223 C 0.76254 0.02833 0.50515 0.0
C224 C 0.73893 0.04568 0.5088 0.0
C225 C 0.80378 0.99238 0.49873 0.0
C226 C 0.76766 0.97762 0.49195 0.0
C227 C 0.74744 0.99573 0.49542 0.0
C228 C 0.75078 0.94349 0.48127 0.0
C229 C 0.82643 0.97347 0.49627 0.0
C230 C 0.76816 0.9429 0.46653 0.0
C231 C 0.7544 0.9102 0.45719 0.0
C232 C 0.72262 0.87709 0.46223 0.0
C233 C 0.70418 0.8781 0.47661 0.0
C234 C 0.71806 0.91096 0.48599 0.0
H235 H 0.84864 0.9822 0.50569 0.0
H236 H 0.80857 0.94274 0.49676 0.0
H237 H 0.83994 0.9811 0.484 0.0
H238 H 0.79293 0.96767 0.46236 0.0
H239 H 0.76932 0.91069 0.44618 0.0
H240 H 0.7643 0.86026 0.88857 0.0
H241 H 0.78807 0.82691 0.87247 0.0
H242 H 0.7005 0.79668 0.83695 0.0
H243 H 0.67587 0.82933 0.85334 0.0
H244 H 0.71412 0.73953 0.8418 0.0
H245 H 0.84775 0.86885 0.83111 0.0
H246 H 0.83793 0.8589 0.85259 0.0
H247 H 0.80822 0.86908 0.84015 0.0
C248 C 0.74973 0.84614 0.87745 0.0
C249 C 0.7182 0.84771 0.87225 0.0
C250 C 0.76363 0.8273 0.86813 0.0
C251 C 0.74685 0.81002 0.85318 0.0
C252 C 0.71427 0.80999 0.84834 0.0
H253 H 0.86924 0.76204 0.77882 0.0
H254 H 0.83384 0.78478 0.79404 0.0
C255 C 0.70009 0.82862 0.85777 0.0
C256 C 0.76399 0.79307 0.84247 0.0
H257 H 0.84528 0.81237 0.82348 0.0
C258 C 0.74276 0.75553 0.83774 0.0
C259 C 0.8012 0.8139 0.83681 0.0
C260 C 0.82499 0.855 0.84027 0.0
C261 C 0.75786 0.73819 0.82791 0.0
C262 C 0.7956 0.75862 0.82288 0.0
C263 C 0.81652 0.79634 0.82738 0.0
C264 C 0.81409 0.74202 0.81278 0.0
C265 C 0.73283 0.69835 0.82271 0.0
C266 C 0.81466 0.70988 0.81794 0.0
C267 C 0.83457 0.6964 0.80903 0.0
C268 C 0.85494 0.71507 0.79488 0.0
C269 C 0.85379 0.74679 0.78959 0.0
C270 C 0.83362 0.75998 0.79837 0.0
H271 H 0.70311 0.69071 0.82301 0.0
H272 H 0.73968 0.6933 0.81012 0.0
H273 H 0.73641 0.67969 0.83137 0.0
H274 H 0.80082 0.69588 0.8292 0.0
H275 H 0.83528 0.67227 0.81364 0.0
H276 H 0.84655 0.67097 0.18762 0.0
H277 H 0.90413 0.6939 0.17175 0.0
H278 H 0.96144 0.78298 0.20667 0.0
H279 H 0.9039 0.76084 0.22225 0.0
H280 H 0.97562 0.81002 0.17679 0.0
H281 H 0.99731 0.68884 0.17756 0.0
H282 H 0.95255 0.67757 0.16968 0.0
H283 H 0.96403 0.69188 0.19079 0.0
C284 C 0.87161 0.69496 0.19212 0.0
C285 C 0.8705 0.7139 0.20629 0.0
C286 C 0.90469 0.70806 0.18303 0.0
C287 C 0.93761 0.7401 0.18801 0.0
C288 C 0.93666 0.75825 0.20247 0.0
H289 H 0.16238 0.82941 0.14689 0.0
H290 H 0.10547 0.79644 0.16345 0.0
C291 C 0.90364 0.7454 0.21145 0.0
C292 C 0.97223 0.75654 0.17766 0.0
H293 H 0.03462 0.73752 0.15868 0.0
C294 C 0.9885 0.79407 0.17292 0.0
C295 C 0.98966 0.73617 0.17268 0.0
C296 C 0.97524 0.69651 0.17807 0.0
C297 C 0.02103 0.81153 0.16329 0.0
C298 C 0.03761 0.79078 0.15773 0.0
C299 C 0.0218 0.75342 0.16269 0.0
C300 C 0.07142 0.80768 0.14691 0.0
C301 C 0.03775 0.85242 0.15948 0.0
C302 C 0.07119 0.82387 0.13174 0.0
C303 C 0.10368 0.84283 0.1223 0.0
C304 C 0.13727 0.84569 0.12763 0.0
C305 C 0.13705 0.82769 0.14236 0.0
C306 C 0.10448 0.80889 0.15188 0.0
H307 H 0.02859 0.86644 0.16844 0.0
H308 H 0.06858 0.86682 0.15959 0.0
H309 H 0.02858 0.85566 0.14707 0.0
H310 H 0.04596 0.82257 0.12733 0.0
H311 H 0.10264 0.8561 0.11099 0.0
H312 H 0.25992 0.10992 0.4459 0.0
H313 H 0.23757 0.05315 0.46211 0.0
H314 H 0.31797 0.11475 0.49985 0.0
H315 H 0.34099 0.172 0.48348 0.0
H316 H 0.30966 0.04371 0.49443 0.0
H317 H 0.17215 0.03279 0.50254 0.0
H318 H 0.1853 0.03491 0.48136 0.0
H319 H 0.21187 0.07417 0.49462 0.0
C320 C 0.27327 0.11149 0.45756 0.0
C321 C 0.30223 0.14579 0.46337 0.0
C322 C 0.2602 0.07888 0.4669 0.0
C323 C 0.27538 0.07954 0.48244 0.0
C324 C 0.30552 0.11338 0.48797 0.0
H325 H 0.15556 0.90813 0.55655 0.0
H326 H 0.18976 0.96612 0.54115 0.0
C327 C 0.31876 0.14616 0.47856 0.0
C328 C 0.25873 0.04526 0.49304 0.0
H329 H 0.17708 0.98069 0.51098 0.0
C330 C 0.28071 0.03001 0.4981 0.0
C331 C 0.22103 0.02744 0.49811 0.0
C332 C 0.19626 0.04331 0.49403 0.0
C333 C 0.2659 0.99724 0.50772 0.0
C334 C 0.22781 0.97868 0.51228 0.0
C335 C 0.20612 0.99441 0.50744 0.0
C336 C 0.20982 0.94353 0.52237 0.0
C337 C 0.29146 0.98329 0.51319 0.0
C338 C 0.20973 0.91105 0.51721 0.0
C339 C 0.19028 0.87761 0.52617 0.0
C340 C 0.17007 0.87569 0.54042 0.0
C341 C 0.17082 0.9084 0.5457 0.0
C342 C 0.19035 0.94173 0.53682 0.0
H343 H 0.32105 0.00571 0.51286 0.0
H344 H 0.28465 0.97177 0.52586 0.0
H345 H 0.28827 0.96086 0.50475 0.0
H346 H 0.22367 0.91113 0.50595 0.0
H347 H 0.18998 0.85295 0.5216 0.0
H348 H 0.33817 0.17992 0.85358 0.0
H349 H 0.31515 0.21462 0.83771 0.0
H350 H 0.22193 0.17666 0.87074 0.0
H351 H 0.24433 0.14153 0.88638 0.0
H352 H 0.19891 0.1657 0.83963 0.0
H353 H 0.31492 0.31069 0.84545 0.0
H354 H 0.32909 0.27924 0.83762 0.0
H355 H 0.31127 0.27344 0.85825 0.0
C356 C 0.31318 0.17959 0.85767 0.0
C357 C 0.29326 0.15796 0.87135 0.0
C358 C 0.30004 0.19959 0.84858 0.0
C359 C 0.26684 0.19875 0.85303 0.0
C360 C 0.24757 0.17797 0.86697 0.0
H361 H 0.17096 0.32941 0.81231 0.0
H362 H 0.20303 0.30547 0.82959 0.0
C363 C 0.26057 0.15792 0.87599 0.0
C364 C 0.25054 0.21705 0.84264 0.0
H365 H 0.26802 0.30002 0.82573 0.0
C366 C 0.2141 0.19512 0.83667 0.0
C367 C 0.26993 0.25558 0.83884 0.0
C368 C 0.30832 0.28124 0.84549 0.0
C369 C 0.19686 0.21027 0.82692 0.0
C370 C 0.21666 0.24849 0.82263 0.0
C371 C 0.25286 0.27067 0.82882 0.0
C372 C 0.20007 0.26551 0.81166 0.0
C373 C 0.15718 0.18516 0.82153 0.0
C374 C 0.18869 0.25204 0.79561 0.0
C375 C 0.1704 0.26564 0.78574 0.0
C376 C 0.16318 0.29339 0.79157 0.0
C377 C 0.17604 0.3081 0.80739 0.0
C378 C 0.19437 0.29437 0.8173 0.0
H379 H 0.1428 0.16002 0.82943 0.0
H380 H 0.14117 0.20003 0.82182 0.0
H381 H 0.15697 0.17579 0.80872 0.0
H382 H 0.19338 0.23041 0.79077 0.0
H383 H 0.16116 0.25372 0.77361 0.0
H384 H 0.66005 0.61077 0.19799 0.0
H385 H 0.59446 0.56193 0.19488 0.0
H386 H 0.58033 0.55979 0.24752 0.0
H387 H 0.64506 0.60899 0.25056 0.0
H388 H 0.54719 0.49006 0.20699 0.0
H389 H 0.5052 0.58802 0.23143 0.0
H390 H 0.55246 0.60273 0.22557 0.0
H391 H 0.53504 0.5817 0.24538 0.0
C392 C 0.64317 0.59891 0.20889 0.0
C393 C 0.6576 0.61348 0.22452 0.0
C394 C 0.60561 0.57131 0.20711 0.0
C395 C 0.58209 0.55798 0.22094 0.0
C396 C 0.59753 0.57036 0.23663 0.0
H397 H 0.36583 0.3966 0.25063 0.0
H398 H 0.42914 0.44837 0.24687 0.0
C399 C 0.63468 0.59809 0.23838 0.0
C400 C 0.54113 0.53279 0.21915 0.0
H401 H 0.45762 0.52377 0.23048 0.0
C402 C 0.52758 0.49765 0.21186 0.0
C403 C 0.51536 0.54279 0.22533 0.0
C404 C 0.52771 0.58102 0.2322 0.0
C405 C 0.48921 0.47159 0.21149 0.0
C406 C 0.46374 0.48097 0.21848 0.0
C407 C 0.47715 0.51658 0.22515 0.0
C408 C 0.42372 0.45286 0.22063 0.0
C409 C 0.47614 0.4335 0.20433 0.0
C410 C 0.39902 0.43921 0.20722 0.0
C411 C 0.36232 0.40993 0.20942 0.0
C412 C 0.35011 0.39375 0.22503 0.0
C413 C 0.37441 0.4088 0.2385 0.0
C414 C 0.41067 0.43821 0.23635 0.0
H415 H 0.49963 0.42951 0.20057 0.0
H416 H 0.45883 0.41173 0.21346 0.0
H417 H 0.45853 0.42945 0.19339 0.0
H418 H 0.40849 0.45032 0.195 0.0
H419 H 0.3444 0.39841 0.1988 0.0
H420 H 0.05633 0.6484 0.58701 0.0
H421 H 0.04131 0.584 0.58341 0.0
H422 H 0.05494 0.60068 0.53093 0.0
H423 H 0.07069 0.66595 0.5346 0.0
H424 H 0.9789 0.53394 0.56564 0.0
H425 H 0.10612 0.5391 0.54058 0.0
H426 H 0.10758 0.57819 0.55108 0.0
H427 H 0.09023 0.56714 0.53042 0.0
C428 C 0.05745 0.63877 0.57474 0.0
C429 C 0.0651 0.66239 0.56111 0.0
C430 C 0.04853 0.60179 0.57268 0.0
C431 C 0.0468 0.58721 0.55691 0.0
C432 C 0.05654 0.61128 0.54326 0.0
H433 H 0.96637 0.34598 0.53958 0.0
H434 H 0.98251 0.41075 0.53352 0.0
C435 C 0.06579 0.64868 0.54535 0.0
C436 C 0.03133 0.54619 0.55502 0.0
H437 H 0.0539 0.47974 0.54496 0.0
C438 C 0.99524 0.52217 0.56093 0.0
C439 C 0.05233 0.53058 0.54873 0.0
C440 C 0.09132 0.55492 0.54241 0.0
C441 C 0.98025 0.48338 0.56134 0.0
C442 C 1.00189 0.46788 0.55584 0.0
C443 C 0.03726 0.4916 0.54914 0.0
C444 C 0.99016 0.42806 0.55903 0.0
C445 C 0.9416 0.45924 0.56809 0.0
C446 C 0.98873 0.41619 0.5753 0.0
C447 C 0.97983 0.37967 0.57873 0.0
C448 C 0.9718 0.35373 0.566 0.0
C449 C 0.97202 0.36515 0.54966 0.0
C450 C 0.98154 0.4022 0.54619 0.0
H451 H 0.92508 0.47358 0.56761 0.0
H452 H 0.92662 0.43269 0.56116 0.0
H453 H 0.94352 0.4525 0.58115 0.0
H454 H 0.99543 0.43556 0.58541 0.0
H455 H 0.9799 0.37187 0.59146 0.0
H456 H 0.40152 0.04127 0.91657 0.0
H457 H 0.45074 0.0257 0.91384 0.0
H458 H 0.44672 0.03372 0.86103 0.0
H459 H 0.3979 0.05047 0.86385 0.0
H460 H 0.43962 0.96296 0.89909 0.0
H461 H 0.5579 0.08405 0.86858 0.0
H462 H 0.52005 0.08694 0.87798 0.0
H463 H 0.51413 0.06572 0.85811 0.0
C464 C 0.41222 0.04121 0.90441 0.0
C465 C 0.39635 0.04773 0.89044 0.0
C466 C 0.4401 0.03189 0.90284 0.0
C467 C 0.45262 0.02842 0.88724 0.0
C468 C 0.43816 0.03683 0.87323 0.0
H469 H 0.60876 0.94568 0.8666 0.0
H470 H 0.5575 0.95885 0.86277 0.0
C471 C 0.41037 0.04663 0.87483 0.0
C472 C 0.47791 0.01254 0.88588 0.0
H473 H 0.56385 0.03087 0.87288 0.0
C474 C 0.46672 0.97786 0.89328 0.0
C475 C 0.51316 0.03157 0.87815 0.0
C476 C 0.52729 0.06927 0.87036 0.0
C477 C 0.49 0.96228 0.89358 0.0
C478 C 0.52566 0.98183 0.88635 0.0
C479 C 0.53641 0.01579 0.87836 0.0
C480 C 0.55354 0.9695 0.88855 0.0
C481 C 0.47646 0.92516 0.90186 0.0
C482 C 0.56775 0.97031 0.9043 0.0
C483 C 0.59686 0.96297 0.90647 0.0
C484 C 0.61225 0.95419 0.89297 0.0
C485 C 0.59685 0.9515 0.87727 0.0
C486 C 0.56792 0.95947 0.87505 0.0
H487 H 0.44567 0.90928 0.90284 0.0
H488 H 0.48582 0.90811 0.89504 0.0
H489 H 0.48811 0.92977 0.91449 0.0
H490 H 0.55748 0.97836 0.91487 0.0
H491 H 0.60856 0.96582 0.91866 0.0
H492 H 0.61224 0.64821 0.4158 0.0
H493 H 0.56294 0.58426 0.42061 0.0
H494 H 0.57143 0.60502 0.47289 0.0
H495 H 0.62019 0.66986 0.46796 0.0
H496 H 0.56964 0.53193 0.43634 0.0
H497 H 0.46061 0.54973 0.4676 0.0
H498 H 0.49963 0.58765 0.45733 0.0
H499 H 0.50528 0.57297 0.47742 0.0
C500 C 0.60277 0.63947 0.42829 0.0
C501 C 0.6197 0.66424 0.44148 0.0
C502 C 0.57482 0.60272 0.43106 0.0
C503 C 0.56321 0.58944 0.44712 0.0
C504 C 0.57921 0.61452 0.46035 0.0
H505 H 0.42406 0.34123 0.45651 0.0
H506 H 0.47676 0.40469 0.46104 0.0
C507 C 0.607 0.6517 0.45754 0.0
C508 C 0.53586 0.54897 0.44972 0.0
H509 H 0.44898 0.48843 0.46441 0.0
C510 C 0.54336 0.52244 0.44261 0.0
C511 C 0.50155 0.53633 0.45794 0.0
C512 C 0.49101 0.56308 0.4654 0.0
C513 C 0.51709 0.4841 0.44285 0.0
C514 C 0.48246 0.47156 0.45073 0.0
C515 C 0.47561 0.49791 0.45848 0.0
C516 C 0.45094 0.43252 0.44889 0.0
C517 C 0.5258 0.45758 0.43383 0.0
C518 C 0.41874 0.42689 0.44085 0.0
C519 C 0.38894 0.39114 0.43833 0.0
C520 C 0.39002 0.35935 0.44378 0.0
C521 C 0.42217 0.36484 0.45207 0.0
C522 C 0.45239 0.40114 0.4546 0.0
H523 H 0.55125 0.47239 0.42616 0.0
H524 H 0.53019 0.44014 0.4429 0.0
H525 H 0.50224 0.43877 0.42577 0.0
H526 H 0.41675 0.45037 0.43626 0.0
H527 H 0.36491 0.38866 0.43197 0.0
H528 H 0.96537 0.60323 0.75028 0.0
H529 H 0.97876 0.55229 0.75203 0.0
H530 H 0.97647 0.55686 0.80502 0.0
H531 H 0.96201 0.60751 0.80321 0.0
H532 H 0.04279 0.56241 0.76583 0.0
H533 H 0.92214 0.44484 0.79703 0.0
H534 H 0.9195 0.48316 0.78792 0.0
H535 H 0.94211 0.48891 0.80742 0.0
C536 C 0.96616 0.59227 0.7623 0.0
C537 C 0.96192 0.60879 0.7766 0.0
C538 C 0.97422 0.56341 0.7633 0.0
C539 C 0.97869 0.55055 0.77865 0.0
C540 C 0.97252 0.56569 0.79302 0.0
H541 H 0.06034 0.39047 0.79283 0.0
H542 H 0.04582 0.44014 0.79893 0.0
C543 C 0.96404 0.59452 0.792 0.0
C544 C 0.9936 0.52438 0.7793 0.0
H545 H 0.97333 0.43683 0.79084 0.0
C546 C 0.0276 0.53504 0.7714 0.0
C547 C 0.9742 0.48879 0.78675 0.0
C548 C 0.93733 0.47546 0.79517 0.0
C549 C 0.04205 0.51088 0.77027 0.0
C550 C 0.02195 0.47478 0.7771 0.0
C551 C 0.98878 0.46455 0.78565 0.0
C552 C 0.03277 0.44612 0.77373 0.0
C553 C 0.07849 0.52392 0.76148 0.0
C554 C 0.03061 0.43328 0.75758 0.0
C555 C 0.03867 0.40511 0.75412 0.0
C556 C 0.0493 0.38899 0.7667 0.0
C557 C 0.05261 0.40257 0.78286 0.0
C558 C 0.04402 0.43069 0.78637 0.0
H559 H 0.09522 0.55478 0.76098 0.0
H560 H 0.09513 0.51314 0.76759 0.0
H561 H 0.07288 0.51334 0.74865 0.0
H562 H 0.02175 0.4445 0.74765 0.0
H563 H 0.03589 0.39541 0.74154 0.0
H564 H 0.34436 0.95065 0.13386 0.0
H565 H 0.40994 0.96827 0.13814 0.0
H566 H 0.42919 0.98459 0.08588 0.0
H567 H 0.36452 0.96802 0.08167 0.0
H568 H 0.45934 0.94509 0.12598 0.0
H569 H 0.5014 0.08719 0.10444 0.0
H570 H 0.45388 0.05363 0.1095 0.0
H571 H 0.47277 0.05236 0.08972 0.0
C572 C 0.3624 0.95691 0.12328 0.0
C573 C 0.34939 0.95799 0.10743 0.0
C574 C 0.39994 0.96732 0.12574 0.0
C575 C 0.42483 0.9789 0.11237 0.0
C576 C 0.41089 0.97686 0.09644 0.0
H577 H 0.64271 0.03976 0.08382 0.0
H578 H 0.57914 0.02738 0.08766 0.0
C579 C 0.37378 0.96693 0.09402 0.0
C580 C 0.46565 0.99497 0.11485 0.0
H581 H 0.54943 0.07107 0.10519 0.0
C582 C 0.47906 0.97287 0.12173 0.0
C583 C 0.49153 0.03146 0.10947 0.0
C584 C 0.47919 0.05769 0.10303 0.0
C585 C 0.51748 0.98544 0.1224 0.0
C586 C 0.54313 0.02107 0.11614 0.0
C587 C 0.52979 0.04375 0.10996 0.0
C588 C 0.5833 0.03341 0.11412 0.0
C589 C 0.53043 0.95986 0.12901 0.0
C590 C 0.60742 0.04259 0.12768 0.0
C591 C 0.64427 0.0505 0.12546 0.0
C592 C 0.65726 0.04892 0.10966 0.0
C593 C 0.63354 0.04154 0.09611 0.0
C594 C 0.59713 0.03421 0.09829 0.0
H595 H 0.50688 0.93187 0.13212 0.0
H596 H 0.54846 0.95668 0.11983 0.0
H597 H 0.54725 0.9722 0.14028 0.0
H598 H 0.59737 0.04241 0.14 0.0
H599 H 0.66173 0.0554 0.13614 0.0
H600 H 0.27438 0.0408 0.1492 0.0
H601 H 0.24693 0.0721 0.16432 0.0
H602 H 0.13718 0.98371 0.15159 0.0
H603 H 0.16469 0.95136 0.13704 0.0
H604 H 0.17067 0.06552 0.13761 0.0
H605 H 0.17137 0.05224 0.20555 0.0
H606 H 0.21054 0.05433 0.19507 0.0
H607 H 0.16487 0.01534 0.19165 0.0
C608 C 0.24443 0.02714 0.15043 0.0
C609 C 0.22154 0.99382 0.14212 0.0
C610 C 0.22876 0.04496 0.15901 0.0
C611 C 0.19012 0.03008 0.159 0.0
C612 C 0.16703 0.99524 0.15185 0.0
H613 H 0.16643 0.21456 0.19566 0.0
H614 H 0.13759 0.15363 0.18204 0.0
C615 C 0.18274 0.97682 0.14364 0.0
C616 C 0.17581 0.05506 0.16319 0.0
H617 H 0.17927 0.11013 0.19489 0.0
C618 C 0.17086 0.07444 0.15018 0.0
C619 C 0.17616 0.06643 0.17955 0.0
C620 C 0.18073 0.04585 0.19381 0.0
C621 C 0.17095 0.10778 0.15305 0.0
C622 C 0.17551 0.1213 0.16927 0.0
C623 C 0.17573 0.09949 0.18243 0.0
C624 C 0.18945 0.1609 0.17259 0.0
C625 C 0.16991 0.13022 0.1387 0.0
C626 C 0.22777 0.18545 0.17105 0.0
C627 C 0.24431 0.21963 0.1791 0.0
C628 C 0.22249 0.22989 0.1884 0.0
C629 C 0.18361 0.2073 0.18827 0.0
C630 C 0.16714 0.17252 0.1806 0.0
H631 H 0.15803 0.11273 0.12754 0.0
H632 H 0.15332 0.14367 0.1418 0.0
H633 H 0.19865 0.15254 0.13583 0.0
H634 H 0.24536 0.17659 0.16505 0.0
H635 H 0.27435 0.23649 0.17927 0.0
H636 H 0.96345 0.17228 0.53643 0.0
H637 H 0.99718 0.14581 0.52209 0.0
H638 H 0.10103 0.23657 0.5398 0.0
H639 H 0.06783 0.26221 0.55432 0.0
H640 H 0.04734 0.17297 0.49837 0.0
H641 H 0.11532 0.15098 0.55152 0.0
H642 H 0.07596 0.15802 0.55382 0.0
H643 H 0.12268 0.19722 0.55293 0.0
C644 C 0.9935 0.18651 0.53713 0.0
C645 C 0.01313 0.21906 0.54656 0.0
C646 C 0.01262 0.17117 0.52914 0.0
C647 C 0.05146 0.18832 0.53052 0.0
C648 C 0.07095 0.2218 0.53926 0.0
H649 H 0.22115 0.27249 0.47314 0.0
H650 H 0.16673 0.2451 0.49095 0.0
C651 C 0.05201 0.23679 0.54733 0.0
C652 C 0.07288 0.17414 0.52164 0.0
H653 H 0.1547 0.17457 0.52603 0.0
C654 C 0.06988 0.17161 0.50446 0.0
C655 C 0.10161 0.17101 0.52953 0.0
C656 C 0.10369 0.16899 0.548 0.0
C657 C 0.09818 0.17208 0.49495 0.0
C658 C 0.13022 0.176 0.50289 0.0
C659 C 0.13048 0.1726 0.52001 0.0
C660 C 0.16587 0.19285 0.49405 0.0
C661 C 0.09546 0.17238 0.47645 0.0
C662 C 0.18469 0.17331 0.49092 0.0
C663 C 0.2164 0.1893 0.4809 0.0
C664 C 0.22906 0.22472 0.474 0.0
C665 C 0.21163 0.24503 0.47822 0.0
C666 C 0.18047 0.22933 0.48826 0.0
H667 H 0.06601 0.15679 0.47236 0.0
H668 H 0.1075 0.20154 0.47213 0.0
H669 H 0.111 0.16009 0.47057 0.0
H670 H 0.17394 0.1453 0.49554 0.0
H671 H 0.22943 0.17313 0.47767 0.0
H672 H 0.95625 0.227 0.79248 0.0
H673 H 0.91559 0.16772 0.80598 0.0
H674 H 1.00375 0.14127 0.80536 0.0
H675 H 0.04516 0.20166 0.79225 0.0
H676 H 0.8996 0.10064 0.78877 0.0
H677 H 0.95575 0.10859 0.852 0.0
H678 H 0.96653 0.15026 0.84068 0.0
H679 H 0.98664 0.12267 0.83455 0.0
C680 C 0.96729 0.2091 0.79579 0.0
C681 C 1.00361 0.21862 0.79149 0.0
C682 C 0.94408 0.17522 0.80335 0.0
C683 C 0.95664 0.1501 0.80646 0.0
C684 C 0.99373 0.16048 0.80313 0.0
H685 H 0.78376 0.95009 0.8559 0.0
H686 H 0.83633 0.97954 0.83661 0.0
C687 C 0.01732 0.19491 0.79577 0.0
C688 C 0.92927 0.11217 0.81177 0.0
H689 H 0.89544 0.05982 0.84644 0.0
C690 C 0.89912 0.09103 0.80124 0.0
C691 C 0.92915 0.09957 0.82791 0.0
C692 C 0.96112 0.1213 0.83954 0.0
C693 C 0.86701 0.05977 0.80704 0.0
C694 C 0.86536 0.04953 0.82366 0.0
C695 C 0.89706 0.06798 0.83365 0.0
C696 C 0.82943 0.02704 0.83192 0.0
C697 C 0.83387 0.03987 0.79582 0.0
C698 C 0.8079 0.04371 0.83517 0.0
C699 C 0.77869 0.02754 0.84634 0.0
C700 C 0.77024 0.99413 0.85414 0.0
C701 C 0.78966 0.97571 0.84981 0.0
C702 C 0.81963 0.99245 0.83889 0.0
H703 H 0.84232 0.044 0.78267 0.0
H704 H 0.81827 0.0096 0.79856 0.0
H705 H 0.8149 0.05112 0.79781 0.0
H706 H 0.81548 0.07068 0.83001 0.0
H707 H 0.76413 0.0422 0.84963 0.0
H708 H 0.73318 0.96141 0.15179 0.0
H709 H 0.76282 0.92958 0.16466 0.0
H710 H 0.87044 0.01875 0.14988 0.0
H711 H 0.84088 0.05163 0.13762 0.0
H712 H 0.82893 0.93308 0.13491 0.0
H713 H 0.85258 0.95386 0.2023 0.0
H714 H 0.81157 0.95311 0.19455 0.0
H715 H 0.85661 0.99009 0.18857 0.0
C716 C 0.76325 0.97517 0.15217 0.0
C717 C 0.78487 0.00885 0.14387 0.0
C718 C 0.78015 0.957 0.15943 0.0
C719 C 0.81869 0.97191 0.1581 0.0
C720 C 0.84071 0.00717 0.15113 0.0
H721 H 0.84275 0.78824 0.1934 0.0
H722 H 0.8719 0.84772 0.17858 0.0
C723 C 0.82382 0.02592 0.14425 0.0
C724 C 0.83351 0.94673 0.16071 0.0
H725 H 0.84056 0.89494 0.19138 0.0
C726 C 0.83312 0.92551 0.14718 0.0
C727 C 0.83905 0.93726 0.17667 0.0
C728 C 0.84029 0.95989 0.1914 0.0
C729 C 0.83335 0.89218 0.14948 0.0
C730 C 0.8344 0.88042 0.16563 0.0
C731 C 0.83978 0.90416 0.17896 0.0
C732 C 0.81997 0.84087 0.16943 0.0
C733 C 0.82874 0.86797 0.13483 0.0
C734 C 0.7814 0.81687 0.16848 0.0
C735 C 0.76473 0.78358 0.17724 0.0
C736 C 0.78658 0.77358 0.18667 0.0
C737 C 0.8255 0.79532 0.18595 0.0
C738 C 0.84217 0.82926 0.17757 0.0
H739 H 0.83903 0.88472 0.12338 0.0
H740 H 0.84373 0.85237 0.13675 0.0
H741 H 0.79879 0.84749 0.13317 0.0
H742 H 0.76383 0.82571 0.16245 0.0
H743 H 0.73467 0.76735 0.17783 0.0
H744 H 0.77568 0.73181 0.47964 0.0
H745 H 0.8324 0.75436 0.4959 0.0
H746 H 0.85881 0.86763 0.48749 0.0
H747 H 0.80098 0.84492 0.47164 0.0
H748 H 0.90992 0.83863 0.47414 0.0
H749 H 0.87774 0.81565 0.5408 0.0
H750 H 0.84409 0.77969 0.52767 0.0
H751 H 0.85056 0.82581 0.52649 0.0
C752 C 0.79272 0.76139 0.48195 0.0
C753 C 0.78418 0.78671 0.47459 0.0
C754 C 0.82504 0.77426 0.49118 0.0
C755 C 0.84955 0.81258 0.49284 0.0
C756 C 0.8399 0.83797 0.48643 0.0
H757 H 0.06147 0.84129 0.52966 0.0
H758 H 0.02503 0.86541 0.51596 0.0
C759 C 0.80692 0.825 0.4775 0.0
C760 C 0.88742 0.82486 0.49869 0.0
H761 H 0.93033 0.81085 0.53126 0.0
C762 C 0.9152 0.83416 0.48677 0.0
C763 C 0.89389 0.81885 0.51512 0.0
C764 C 0.8651 0.80974 0.52833 0.0
C765 C 0.94774 0.83338 0.49056 0.0
C766 C 0.9523 0.82346 0.5066 0.0
C767 C 0.92645 0.81829 0.51892 0.0
C768 C 0.97893 0.8109 0.51023 0.0
C769 C 0.97533 0.83958 0.47717 0.0
C770 C 0.96561 0.77251 0.51066 0.0
C771 C 0.98595 0.75878 0.51859 0.0
C772 C 0.02008 0.78338 0.52592 0.0
C773 C 0.0354 0.82192 0.52381 0.0
C774 C 0.01461 0.83571 0.51613 0.0
H775 H 0.97036 0.85169 0.46592 0.0
H776 H 1.00407 0.85838 0.48161 0.0
H777 H 0.97319 0.81259 0.47391 0.0
H778 H 0.93799 0.75309 0.50617 0.0
H779 H 0.97359 0.72901 0.52025 0.0
H780 H 0.23899 0.96703 0.84503 0.0
H781 H 0.17925 0.93643 0.83076 0.0
H782 H 0.15773 0.02296 0.84681 0.0
H783 H 0.21852 0.05467 0.86049 0.0
H784 H 0.11235 0.94366 0.86059 0.0
H785 H 0.11664 0.95196 0.79247 0.0
H786 H 0.15504 0.94996 0.80162 0.0
H787 H 0.1494 0.98951 0.80549 0.0
C788 C 0.22249 0.98062 0.84463 0.0
C789 C 0.2331 0.01307 0.85371 0.0
C790 C 0.1884 0.96318 0.83652 0.0
C791 C 0.16424 0.97753 0.83779 0.0
C792 C 0.17629 0.01183 0.84556 0.0
H793 H 0.95619 0.78813 0.8054 0.0
H794 H 0.98736 0.8502 0.81797 0.0
C795 C 0.21099 0.02991 0.85328 0.0
C796 C 0.1245 0.95207 0.83463 0.0
H797 H 0.06924 0.894 0.80448 0.0
C798 C 0.10205 0.93364 0.84829 0.0
C799 C 0.11133 0.93926 0.81862 0.0
C800 C 0.13422 0.95888 0.80367 0.0
C801 C 0.06882 0.89983 0.84638 0.0
C802 C 0.05789 0.88482 0.83048 0.0
C803 C 0.07785 0.90572 0.81671 0.0
C804 C 0.03264 0.84476 0.82797 0.0
C805 C 0.04753 0.87855 0.86139 0.0
C806 C 0.04705 0.82084 0.83018 0.0
C807 C 0.02992 0.78597 0.82271 0.0
C808 C 0.99771 0.77439 0.81332 0.0
C809 C 0.98074 0.7964 0.81287 0.0
C810 C 0.99853 0.83184 0.81994 0.0
H811 H 0.05373 0.89719 0.87218 0.0
H812 H 0.01715 0.86374 0.85897 0.0
H813 H 0.05552 0.85743 0.8645 0.0
H814 H 0.07365 0.83066 0.83619 0.0
H815 H 0.04364 0.76959 0.82298 0.0
H816 H 0.35285 0.22978 0.38856 0.0
H817 H 0.34852 0.24504 0.35956 0.0
H818 H 0.28984 0.30126 0.37468 0.0
H819 H 0.29332 0.2858 0.40311 0.0
H820 H 0.27368 0.22221 0.34423 0.0
H821 H 0.37157 0.37448 0.34152 0.0
H822 H 0.37608 0.34452 0.35638 0.0
H823 H 0.34182 0.35835 0.35929 0.0
C824 C 0.33969 0.24597 0.38566 0.0
C825 C 0.32338 0.25647 0.39816 0.0
C826 C 0.33717 0.25461 0.36914 0.0
C827 C 0.3192 0.27466 0.36503 0.0
C828 C 0.3043 0.28629 0.37758 0.0
H829 H 0.23822 0.33939 0.27949 0.0
H830 H 0.25861 0.33295 0.30718 0.0
C831 C 0.30619 0.27717 0.3939 0.0
C832 C 0.3122 0.28049 0.34769 0.0
H833 H 0.32739 0.3483 0.31977 0.0
C834 C 0.28587 0.24967 0.33874 0.0
C835 C 0.32744 0.31646 0.34078 0.0
C836 C 0.35602 0.35042 0.34991 0.0
C837 C 0.2736 0.25391 0.32321 0.0
C838 C 0.28891 0.28992 0.31622 0.0
C839 C 0.31561 0.32075 0.32512 0.0
C840 C 0.2782 0.29575 0.29949 0.0
C841 C 0.24326 0.21985 0.31474 0.0
C842 C 0.28331 0.27785 0.28597 0.0
C843 C 0.27138 0.28111 0.27035 0.0
C844 C 0.25467 0.30299 0.26773 0.0
C845 C 0.25084 0.32222 0.28114 0.0
C846 C 0.26252 0.31859 0.29692 0.0
H847 H 0.22693 0.1971 0.32365 0.0
H848 H 0.22394 0.22637 0.30802 0.0
H849 H 0.25597 0.20936 0.30575 0.0
H850 H 0.29622 0.26092 0.28752 0.0
H851 H 0.27511 0.26608 0.26034 0.0
H852 H 0.91634 0.2 0.61932 0.0
H853 H 0.94881 0.22858 0.64496 0.0
H854 H 0.96078 0.33347 0.62968 0.0
H855 H 0.92741 0.30451 0.60397 0.0
H856 H 0.02861 0.30241 0.63765 0.0
H857 H 0.93459 0.31143 0.68401 0.0
H858 H 0.91663 0.27263 0.66989 0.0
H859 H 0.93031 0.31822 0.66231 0.0
C860 C 0.92394 0.22859 0.62185 0.0
C861 C 0.91879 0.24988 0.60983 0.0
C862 C 0.9429 0.24502 0.63642 0.0
C863 C 0.95733 0.28314 0.63918 0.0
C864 C 0.94955 0.30391 0.62783 0.0
H865 H 0.09577 0.38177 0.72782 0.0
H866 H 0.06634 0.38139 0.70141 0.0
C867 C 0.93014 0.28727 0.61325 0.0
C868 C 0.98519 0.30152 0.65244 0.0
H869 H 0.99399 0.32453 0.69318 0.0
C870 C 0.02131 0.30798 0.64972 0.0
C871 C 0.97567 0.30901 0.66808 0.0
C872 C 0.93724 0.30264 0.67141 0.0
C873 C 0.04762 0.31992 0.66247 0.0
C874 C 0.03738 0.32498 0.67845 0.0
C875 C 1.00191 0.32071 0.68093 0.0
C876 C 0.06084 0.32932 0.69307 0.0
C877 C 0.08582 0.32591 0.6588 0.0
C878 C 0.06838 0.30079 0.69696 0.0
C879 C 0.08511 0.30108 0.71189 0.0
C880 C 0.09503 0.33004 0.72322 0.0
C881 C 0.08953 0.35979 0.71902 0.0
C882 C 0.07225 0.35929 0.70407 0.0
H883 H 0.09345 0.33366 0.6457 0.0
H884 H 0.10725 0.34796 0.66674 0.0
H885 H 0.08601 0.29963 0.66108 0.0
H886 H 0.05912 0.27695 0.68892 0.0
H887 H 0.08803 0.27729 0.71508 0.0
H888 H 0.77899 0.1155 0.05566 0.0
H889 H 0.76272 0.09297 0.0271 0.0
H890 H 0.7135 0.97979 0.0442 0.0
H891 H 0.72998 1.0017 0.07234 0.0
H892 H 0.78762 0.04251 0.01179 0.0
H893 H 0.63426 0.98172 0.01228 0.0
H894 H 0.66465 0.01791 0.02639 0.0
H895 H 0.65393 0.9708 0.02966 0.0
C896 C 0.76427 0.08585 0.0533 0.0
C897 C 0.75579 0.06045 0.06628 0.0
C898 C 0.75502 0.07303 0.03703 0.0
C899 C 0.7365 0.03467 0.0336 0.0
C900 C 0.72724 0.00942 0.04659 0.0
H901 H 0.66904 0.89144 0.94651 0.0
H902 H 0.67655 0.91595 0.97475 0.0
C903 C 0.73688 0.02213 0.06271 0.0
C904 C 0.7294 0.02058 0.01645 0.0
H905 H 0.66001 0.96674 0.98943 0.0
C906 C 0.75978 0.02633 0.0068 0.0
C907 C 0.69298 0.99875 0.01017 0.0
C908 C 0.65948 0.99201 0.02007 0.0
C909 C 0.75475 0.01032 0.99111 0.0
C910 C 0.71831 0.98885 0.98468 0.0
C911 C 0.68788 0.98312 0.99435 0.0
C912 C 0.71165 0.97358 0.96767 0.0
C913 C 0.78854 0.0157 0.9818 0.0
C914 C 0.7279 0.99779 0.95434 0.0
C915 C 0.72405 0.98393 0.93841 0.0
C916 C 0.70315 0.94546 0.93528 0.0
C917 C 0.6854 0.92116 0.94853 0.0
C918 C 0.68967 0.93515 0.96463 0.0
H919 H 0.81207 0.02218 0.99024 0.0
H920 H 0.78231 0.99054 0.97456 0.0
H921 H 0.79772 0.03944 0.97319 0.0
H922 H 0.74407 0.02756 0.95627 0.0
H923 H 0.73788 1.0036 0.92854 0.0
H924 H 0.7699 0.66688 0.27905 0.0
H925 H 0.75083 0.67518 0.30668 0.0
H926 H 0.71513 0.74838 0.28652 0.0
H927 H 0.73503 0.74131 0.25935 0.0
H928 H 0.75791 0.77889 0.31255 0.0
H929 H 0.64996 0.63458 0.32811 0.0
H930 H 0.6938 0.63887 0.32262 0.0
H931 H 0.66794 0.64832 0.30751 0.0
C932 C 0.75765 0.68442 0.28054 0.0
C933 C 0.75406 0.70342 0.26699 0.0
C934 C 0.74649 0.68894 0.2963 0.0
C935 C 0.73107 0.7121 0.29868 0.0
C936 C 0.72684 0.73035 0.28505 0.0
H937 H 0.65655 0.77613 0.38907 0.0
H938 H 0.65891 0.7588 0.36018 0.0
C939 C 0.73826 0.72618 0.26946 0.0
C940 C 0.72169 0.71977 0.31539 0.0
H941 H 0.6709 0.67893 0.3501 0.0
C942 C 0.73848 0.75699 0.32064 0.0
C943 C 0.69616 0.6913 0.32596 0.0
C944 C 0.67562 0.65105 0.32073 0.0
C945 C 0.73131 0.76637 0.33628 0.0
C946 C 0.70682 0.73788 0.347 0.0
C947 C 0.68944 0.70072 0.34174 0.0
C948 C 0.70286 0.74613 0.36438 0.0
C949 C 0.75088 0.8066 0.34154 0.0
C950 C 0.72663 0.74462 0.37613 0.0
C951 C 0.72558 0.75468 0.39238 0.0
C952 C 0.70052 0.76634 0.39736 0.0
C953 C 0.67612 0.76727 0.38562 0.0
C954 C 0.67737 0.75731 0.36918 0.0
H955 H 0.76772 0.82571 0.33147 0.0
H956 H 0.73018 0.81433 0.34574 0.0
H957 H 0.76946 0.81057 0.35211 0.0
H958 H 0.74663 0.73632 0.37263 0.0
H959 H 0.74491 0.75368 0.40102 0.0
H960 H 0.13321 0.78233 0.61412 0.0
H961 H 0.11141 0.7648 0.64273 0.0
H962 H 0.99831 0.72153 0.62666 0.0
H963 H 0.01946 0.73924 0.59856 0.0
H964 H 0.06424 0.79096 0.66002 0.0
H965 H 0.99653 0.6371 0.65597 0.0
H966 H 0.03271 0.66789 0.64196 0.0
H967 H 0.98612 0.6593 0.63946 0.0
C968 C 0.10372 0.76872 0.61671 0.0
C969 C 0.07814 0.76211 0.60402 0.0
C970 C 0.09131 0.75873 0.63302 0.0
C971 C 0.05316 0.74136 0.63674 0.0
C972 C 0.02775 0.73426 0.62404 0.0
H973 H 0.90573 0.67076 0.72182 0.0
H974 H 0.93283 0.68 0.69405 0.0
C975 C 0.04005 0.7446 0.60792 0.0
C976 C 0.0394 0.73296 0.65394 0.0
H977 H 0.98181 0.66168 0.67943 0.0
C978 C 0.04669 0.76272 0.66439 0.0
C979 C 0.01583 0.69609 0.65943 0.0
C980 C 1.00745 0.66316 0.64869 0.0
C981 C 0.03028 0.75667 0.68004 0.0
C982 C 1.00673 0.71973 0.6856 0.0
C983 C 0.99975 0.68993 0.67518 0.0
C984 C 0.98992 0.71174 0.70235 0.0
C985 C 0.03725 0.79004 0.69018 0.0
C986 C 0.01289 0.72539 0.71622 0.0
C987 C 0.99757 0.7206 0.7319 0.0
C988 C 0.9588 0.70127 0.73422 0.0
C989 C 0.93566 0.68586 0.72042 0.0
C990 C 0.95113 0.69113 0.70458 0.0
H991 H 0.04589 0.81503 0.68237 0.0
H992 H 0.01209 0.78455 0.69722 0.0
H993 H 0.06002 0.79659 0.69905 0.0
H994 H 0.04284 0.74035 0.7149 0.0
H995 H 0.01634 0.73253 0.74222 0.0
H996 H 0.22971 0.88562 0.05372 0.0
H997 H 0.24689 0.90772 0.02514 0.0
H998 H 0.28985 0.02073 0.04144 0.0
H999 H 0.27237 0.99923 0.06956 0.0
H1000 H 0.21982 0.95654 0.00864 0.0
H1001 H 0.37355 0.02102 0.01119 0.0
H1002 H 0.34287 0.98405 0.02493 0.0
H1003 H 0.35183 0.03058 0.02819 0.0
C1004 C 0.2432 0.91516 0.05119 0.0
C1005 C 0.24968 0.9406 0.06394 0.0
C1006 C 0.25299 0.92774 0.0349 0.0
C1007 C 0.27006 0.96593 0.03125 0.0
C1008 C 0.27724 0.99125 0.04401 0.0
H1009 H 0.33998 0.11021 0.94473 0.0
H1010 H 0.33162 0.08475 0.97281 0.0
C1011 C 0.26704 0.97877 0.06013 0.0
C1012 C 0.2779 0.9797 0.01405 0.0
H1013 H 0.34844 0.03481 0.98775 0.0
C1014 C 0.24789 0.97323 0.00396 0.0
C1015 C 0.31458 1.00221 0.00818 0.0
C1016 C 0.34768 0.00982 0.0186 0.0
C1017 C 0.25355 0.98924 0.98824 0.0
C1018 C 0.29029 0.01147 0.98222 0.0
C1019 C 0.32034 0.01782 0.99233 0.0
C1020 C 0.29773 0.02726 0.96529 0.0
C1021 C 0.22005 0.98319 0.97848 0.0
C1022 C 0.28254 1.00347 0.95174 0.0
C1023 C 0.28683 0.01787 0.93589 0.0
C1024 C 0.30718 0.05648 0.93306 0.0
C1025 C 0.32406 0.08038 0.94652 0.0
C1026 C 0.3193 0.06585 0.96254 0.0
H1027 H 0.19584 0.97597 0.98659 0.0
H1028 H 0.22612 0.00831 0.97124 0.0
H1029 H 0.21196 0.9597 0.96981 0.0
H1030 H 0.26676 0.9736 0.95346 0.0
H1031 H 0.27373 0.99851 0.92585 0.0
loop_
_geom_bond_atom_site_label_1
_geom_bond_atom_site_label_2
_geom_bond_distance
_geom_bond_site_symmetry_2
_ccdc_geom_bond_type
Co0 O1 2.216 . S
Co0 O2 2.091 . S
Co0 O4 2.004 . S
Co0 O10 2.021 . S
Co0 O12 2.137 . S
Co0 O13 2.244 . S
O1 Co0 2.216 . S
O1 C8 1.247 . S
O2 Co0 2.091 . S
O2 C8 1.261 . S
C3 O12 1.247 . S
C3 O13 1.272 . S
O4 Co0 2.004 . S
O4 C9 1.259 . S
Co5 O6 2.061 . S
Co5 O11 2.052 . S
Co5 O13 2.135 . S
O6 Co5 2.061 . S
O6 C9 1.235 . S
C7 O10 1.238 . S
C7 O11 1.241 . S
C8 O1 1.247 . S
C8 O2 1.261 . S
C9 O4 1.259 . S
C9 O6 1.235 . S
O10 Co0 2.021 . S
O10 C7 1.238 . S
O11 Co5 2.052 . S
O11 C7 1.241 . S
O12 Co0 2.137 . S
O12 C3 1.247 . S
O13 Co0 2.244 . S
O13 C3 1.272 . S
O13 Co5 2.135 . S
Co14 O15 2.216 . S
Co14 O16 2.091 . S
Co14 O18 2.004 . S
Co14 O24 2.021 . S
Co14 O26 2.137 . S
Co14 O27 2.244 . S
O15 Co14 2.216 . S
O15 C22 1.247 . S
O16 Co14 2.091 . S
O16 C22 1.261 . S
C17 O26 1.247 . S
C17 O27 1.272 . S
O18 Co14 2.004 . S
O18 C23 1.259 . S
Co19 O20 2.061 1_455 S
Co19 O25 2.052 . S
Co19 O27 2.135 1_455 S
O20 Co19 2.061 1_655 S
O20 C23 1.235 . S
C21 O24 1.238 1_455 S
C21 O25 1.241 . S
C22 O15 1.247 . S
C22 O16 1.261 . S
C23 O18 1.259 . S
C23 O20 1.235 . S
O24 Co14 2.021 . S
O24 C21 1.238 1_655 S
O25 Co19 2.052 . S
O25 C21 1.241 . S
O26 Co14 2.137 . S
O26 C17 1.247 . S
O27 Co14 2.244 . S
O27 C17 1.272 . S
O27 Co19 2.135 1_655 S
Co28 O29 2.216 . S
Co28 O30 2.091 . S
Co28 O32 2.004 . S
Co28 O38 2.021 . S
Co28 O40 2.137 . S
Co28 O41 2.244 . S
O29 Co28 2.216 . S
O29 C36 1.247 . S
O30 Co28 2.091 . S
O30 C36 1.261 . S
C31 O40 1.247 . S
C31 O41 1.272 . S
O32 Co28 2.004 . S
O32 C37 1.259 . S
Co33 O34 2.061 1_545 S
Co33 O39 2.052 . S
Co33 O41 2.135 1_545 S
O34 Co33 2.061 1_565 S
O34 C37 1.235 . S
C35 O38 1.238 1_545 S
C35 O39 1.241 . S
C36 O29 1.247 . S
C36 O30 1.261 . S
C37 O32 1.259 . S
C37 O34 1.235 . S
O38 Co28 2.021 . S
O38 C35 1.238 1_565 S
O39 Co33 2.052 . S
O39 C35 1.241 . S
O40 Co28 2.137 . S
O40 C31 1.247 . S
O41 Co28 2.244 . S
O41 C31 1.272 . S
O41 Co33 2.135 1_565 S
Co42 O43 2.216 . S
Co42 O44 2.091 . S
Co42 O46 2.004 . S
Co42 O52 2.021 . S
Co42 O54 2.137 . S
Co42 O55 2.244 . S
O43 Co42 2.216 . S
O43 C50 1.247 . S
O44 Co42 2.091 . S
O44 C50 1.261 . S
C45 O54 1.247 . S
C45 O55 1.272 . S
O46 Co42 2.004 . S
O46 C51 1.259 . S
Co47 O48 2.061 . S
Co47 O53 2.052 . S
Co47 O55 2.135 . S
O48 Co47 2.061 . S
O48 C51 1.235 . S
C49 O52 1.238 . S
C49 O53 1.241 . S
C50 O43 1.247 . S
C50 O44 1.261 . S
C51 O46 1.259 . S
C51 O48 1.235 . S
O52 Co42 2.021 . S
O52 C49 1.238 . S
O53 Co47 2.052 . S
O53 C49 1.241 . S
O54 Co42 2.137 . S
O54 C45 1.247 . S
O55 Co42 2.244 . S
O55 C45 1.272 . S
O55 Co47 2.135 . S
Co56 O57 2.216 . S
Co56 O58 2.091 . S
Co56 O60 2.004 . S
Co56 O66 2.021 . S
Co56 O68 2.137 . S
Co56 O69 2.244 . S
O57 Co56 2.216 . S
O57 C64 1.247 . S
O58 Co56 2.091 . S
O58 C64 1.261 . S
C59 O68 1.247 . S
C59 O69 1.272 . S
O60 Co56 2.004 . S
O60 C65 1.259 . S
Co61 O62 2.061 1_655 S
Co61 O67 2.052 . S
Co61 O69 2.135 1_655 S
O62 Co61 2.061 1_455 S
O62 C65 1.235 . S
C63 O66 1.238 1_655 S
C63 O67 1.241 . S
C64 O57 1.247 . S
C64 O58 1.261 . S
C65 O60 1.259 . S
C65 O62 1.235 . S
O66 Co56 2.021 . S
O66 C63 1.238 1_455 S
O67 Co61 2.052 . S
O67 C63 1.241 . S
O68 Co56 2.137 . S
O68 C59 1.247 . S
O69 Co56 2.244 . S
O69 C59 1.272 . S
O69 Co61 2.135 1_455 S
Co70 O71 2.216 . S
Co70 O72 2.091 . S
Co70 O74 2.004 . S
Co70 O80 2.021 . S
Co70 O82 2.137 . S
Co70 O83 2.244 . S
O71 Co70 2.216 . S
O71 C78 1.247 . S
O72 Co70 2.091 . S
O72 C78 1.261 . S
C73 O82 1.247 . S
C73 O83 1.272 . S
O74 Co70 2.004 . S
O74 C79 1.259 . S
Co75 O76 2.061 1_565 S
Co75 O81 2.052 . S
Co75 O83 2.135 1_565 S
O76 Co75 2.061 1_545 S
O76 C79 1.235 . S
C77 O80 1.238 1_565 S
C77 O81 1.241 . S
C78 O71 1.247 . S
C78 O72 1.261 . S
C79 O74 1.259 . S
C79 O76 1.235 . S
O80 Co70 2.021 . S
O80 C77 1.238 1_545 S
O81 Co75 2.052 . S
O81 C77 1.241 . S
O82 Co70 2.137 . S
O82 C73 1.247 . S
O83 Co70 2.244 . S
O83 C73 1.272 . S
O83 Co75 2.135 1_545 S
Co84 O85 2.216 . S
Co84 O86 2.091 . S
Co84 O88 2.004 . S
Co84 O94 2.021 . S
Co84 O96 2.137 . S
Co84 O97 2.244 . S
O85 Co84 2.216 . S
O85 C92 1.247 . S
O86 Co84 2.091 . S
O86 C92 1.261 . S
C87 O96 1.247 . S
C87 O97 1.272 . S
O88 Co84 2.004 . S
O88 C93 1.259 . S
Co89 O90 2.061 . S
Co89 O95 2.052 . S
Co89 O97 2.135 . S
O90 Co89 2.061 . S
O90 C93 1.235 . S
C91 O94 1.238 . S
C91 O95 1.241 . S
C92 O85 1.247 . S
C92 O86 1.261 . S
C93 O88 1.259 . S
C93 O90 1.235 . S
O94 Co84 2.021 . S
O94 C91 1.238 . S
O95 Co89 2.052 . S
O95 C91 1.241 . S
O96 Co84 2.137 . S
O96 C87 1.247 . S
O97 Co84 2.244 . S
O97 C87 1.272 . S
O97 Co89 2.135 . S
Co98 O99 2.216 . S
Co98 O100 2.091 . S
Co98 O102 2.004 . S
Co98 O108 2.021 . S
Co98 O110 2.137 . S
Co98 O111 2.244 . S
O99 Co98 2.216 . S
O99 C106 1.247 . S
O100 Co98 2.091 . S
O100 C106 1.261 . S
C101 O110 1.247 . S
C101 O111 1.272 . S
O102 Co98 2.004 . S
O102 C107 1.259 . S
Co103 O104 2.061 1_455 S
Co103 O109 2.052 . S
Co103 O111 2.135 1_455 S
O104 Co103 2.061 1_655 S
O104 C107 1.235 . S
C105 O108 1.238 1_455 S
C105 O109 1.241 . S
C106 O99 1.247 . S
C106 O100 1.261 . S
C107 O102 1.259 . S
C107 O104 1.235 . S
O108 Co98 2.021 . S
O108 C105 1.238 1_655 S
O109 Co103 2.052 . S
O109 C105 1.241 . S
O110 Co98 2.137 . S
O110 C101 1.247 . S
O111 Co98 2.244 . S
O111 C101 1.272 . S
O111 Co103 2.135 1_655 S
Co112 O113 2.216 . S
Co112 O114 2.091 . S
Co112 O116 2.004 . S
Co112 O122 2.021 . S
Co112 O124 2.137 . S
Co112 O125 2.244 . S
O113 Co112 2.216 . S
O113 C120 1.247 . S
O114 Co112 2.091 . S
O114 C120 1.261 . S
C115 O124 1.247 . S
C115 O125 1.272 . S
O116 Co112 2.004 . S
O116 C121 1.259 . S
Co117 O118 2.061 1_545 S
Co117 O123 2.052 . S
Co117 O125 2.135 1_545 S
O118 Co117 2.061 1_565 S
O118 C121 1.235 . S
C119 O122 1.238 1_545 S
C119 O123 1.241 . S
C120 O113 1.247 . S
C120 O114 1.261 . S
C121 O116 1.259 . S
C121 O118 1.235 . S
O122 Co112 2.021 . S
O122 C119 1.238 1_565 S
O123 Co117 2.052 . S
O123 C119 1.241 . S
O124 Co112 2.137 . S
O124 C115 1.247 . S
O125 Co112 2.244 . S
O125 C115 1.272 . S
O125 Co117 2.135 1_565 S
Co126 O127 2.216 . S
Co126 O128 2.091 . S
Co126 O130 2.004 . S
Co126 O136 2.021 . S
Co126 O138 2.137 . S
Co126 O139 2.244 . S
O127 Co126 2.216 . S
O127 C134 1.247 . S
O128 Co126 2.091 . S
O128 C134 1.261 . S
C129 O138 1.247 . S
C129 O139 1.272 . S
O130 Co126 2.004 . S
O130 C135 1.259 . S
Co131 O132 2.061 . S
Co131 O137 2.052 . S
Co131 O139 2.135 . S
O132 Co131 2.061 . S
O132 C135 1.235 . S
C133 O136 1.238 . S
C133 O137 1.241 . S
C134 O127 1.247 . S
C134 O128 1.261 . S
C135 O130 1.259 . S
C135 O132 1.235 . S
O136 Co126 2.021 . S
O136 C133 1.238 . S
O137 Co131 2.052 . S
O137 C133 1.241 . S
O138 Co126 2.137 . S
O138 C129 1.247 . S
O139 Co126 2.244 . S
O139 C129 1.272 . S
O139 Co131 2.135 . S
Co140 O141 2.216 . S
Co140 O142 2.091 . S
Co140 O144 2.004 . S
Co140 O150 2.021 . S
Co140 O152 2.137 . S
Co140 O153 2.244 . S
O141 Co140 2.216 . S
O141 C148 1.247 . S
O142 Co140 2.091 . S
O142 C148 1.261 . S
C143 O152 1.247 . S
C143 O153 1.272 . S
O144 Co140 2.004 . S
O144 C149 1.259 . S
Co145 O146 2.061 1_655 S
Co145 O151 2.052 . S
Co145 O153 2.135 1_655 S
O146 Co145 2.061 1_455 S
O146 C149 1.235 . S
C147 O150 1.238 1_655 S
C147 O151 1.241 . S
C148 O141 1.247 . S
C148 O142 1.261 . S
C149 O144 1.259 . S
C149 O146 1.235 . S
O150 Co140 2.021 . S
O150 C147 1.238 1_455 S
O151 Co145 2.052 . S
O151 C147 1.241 . S
O152 Co140 2.137 . S
O152 C143 1.247 . S
O153 Co140 2.244 . S
O153 C143 1.272 . S
O153 Co145 2.135 1_455 S
Co154 O155 2.216 . S
Co154 O156 2.091 . S
Co154 O158 2.004 . S
Co154 O164 2.021 . S
Co154 O166 2.137 . S
Co154 O167 2.244 . S
O155 Co154 2.216 . S
O155 C162 1.247 . S
O156 Co154 2.091 . S
O156 C162 1.261 . S
C157 O166 1.247 . S
C157 O167 1.272 . S
O158 Co154 2.004 . S
O158 C163 1.259 . S
Co159 O160 2.061 1_565 S
Co159 O165 2.052 . S
Co159 O167 2.135 1_565 S
O160 Co159 2.061 1_545 S
O160 C163 1.235 . S
C161 O164 1.238 1_565 S
C161 O165 1.241 . S
C162 O155 1.247 . S
C162 O156 1.261 . S
C163 O158 1.259 . S
C163 O160 1.235 . S
O164 Co154 2.021 . S
O164 C161 1.238 1_545 S
O165 Co159 2.052 . S
O165 C161 1.241 . S
O166 Co154 2.137 . S
O166 C157 1.247 . S
O167 Co154 2.244 . S
O167 C157 1.272 . S
O167 Co159 2.135 1_545 S
H168 C176 0.929 . S
H169 C178 0.930 . S
H170 C180 0.930 . S
H171 C183 0.929 . S
H172 C186 0.930 . S
H173 C188 0.960 1_455 S
H174 C188 0.960 . S
H175 C188 0.960 . S
C176 H168 0.929 . S
C176 C177 1.377 . S
C176 C178 1.384 . S
C177 C176 1.377 . S
C177 C183 1.390 . S
C178 H169 0.930 . S
C178 C176 1.384 . S
C178 C179 1.372 . S
C179 C178 1.372 . S
C179 C180 1.400 . S
C179 C184 1.490 . S
C180 H170 0.930 . S
C180 C179 1.400 . S
C180 C183 1.386 . S
H181 C197 0.930 . S
H182 C198 0.931 . S
C183 H171 0.929 . S
C183 C177 1.390 . S
C183 C180 1.386 . S
C184 C179 1.490 . S
C184 C186 1.395 . S
C184 C187 1.403 . S
H185 C191 0.930 . S
C186 H172 0.930 . S
C186 C184 1.395 . S
C186 C189 1.403 1_655 S
C187 C184 1.403 . S
C187 C188 1.524 . S
C187 C191 1.400 1_655 S
C188 H173 0.960 1_655 S
C188 H174 0.960 . S
C188 H175 0.960 . S
C188 C187 1.524 . S
C189 C186 1.403 1_455 S
C189 C190 1.392 . S
C189 C193 1.495 . S
C190 C189 1.392 . S
C190 C191 1.385 . S
C190 C192 1.478 . S
C191 H185 0.930 . S
C191 C187 1.400 1_455 S
C191 C190 1.385 . S
C192 C190 1.478 . S
C192 C194 1.381 . S
C192 C198 1.383 . S
C193 C189 1.495 . S
C193 H199 0.959 1_455 S
C193 H200 0.961 . S
C193 H201 0.960 . S
C194 C192 1.381 . S
C194 C195 1.394 . S
C194 H202 0.930 . S
C195 C194 1.394 . S
C195 C196 1.383 . S
C195 H203 0.929 . S
C196 C195 1.383 . S
C196 C197 1.377 . S
C197 H181 0.930 . S
C197 C196 1.377 . S
C197 C198 1.379 . S
C198 H182 0.931 . S
C198 C192 1.383 . S
C198 C197 1.379 . S
H199 C193 0.959 1_655 S
H200 C193 0.961 . S
H201 C193 0.960 . S
H202 C194 0.930 . S
H203 C195 0.929 . S
H204 C212 0.929 . S
H205 C214 0.930 . S
H206 C216 0.930 . S
H207 C219 0.929 . S
H208 C222 0.930 . S
H209 C224 0.960 1_565 S
H210 C224 0.960 . S
H211 C224 0.960 . S
C212 H204 0.929 . S
C212 C213 1.377 . S
C212 C214 1.384 . S
C213 C212 1.377 . S
C213 C219 1.390 . S
C214 H205 0.930 . S
C214 C212 1.384 . S
C214 C215 1.372 . S
C215 C214 1.372 . S
C215 C216 1.400 . S
C215 C220 1.490 . S
C216 H206 0.930 . S
C216 C215 1.400 . S
C216 C219 1.386 . S
H217 C233 0.930 . S
H218 C234 0.931 . S
C219 H207 0.929 . S
C219 C213 1.390 . S
C219 C216 1.386 . S
C220 C215 1.490 . S
C220 C222 1.395 . S
C220 C223 1.403 . S
H221 C227 0.930 . S
C222 H208 0.930 . S
C222 C220 1.395 . S
C222 C225 1.426 . S
C223 C220 1.403 . S
C223 C224 1.524 . S
C223 C227 1.400 1_545 S
C224 H209 0.960 1_545 S
C224 H210 0.960 . S
C224 H211 0.960 . S
C224 C223 1.524 . S
C225 C222 1.426 . S
C225 C226 1.375 1_545 S
C225 C229 1.490 . S
C226 C225 1.375 1_565 S
C226 C227 1.385 . S
C226 C228 1.478 . S
C227 H221 0.930 . S
C227 C223 1.400 1_565 S
C227 C226 1.385 . S
C228 C226 1.478 . S
C228 C230 1.381 . S
C228 C234 1.383 . S
C229 C225 1.490 . S
C229 H235 0.959 . S
C229 H236 0.961 1_545 S
C229 H237 0.960 1_545 S
C230 C228 1.381 . S
C230 C231 1.394 . S
C230 H238 0.930 . S
C231 C230 1.394 . S
C231 C232 1.383 . S
C231 H239 0.929 . S
C232 C231 1.383 . S
C232 C233 1.377 . S
C233 H217 0.930 . S
C233 C232 1.377 . S
C233 C234 1.379 . S
C234 H218 0.931 . S
C234 C228 1.383 . S
C234 C233 1.379 . S
H235 C229 0.959 . S
H236 C229 0.961 1_565 S
H237 C229 0.960 1_565 S
H238 C230 0.930 . S
H239 C231 0.929 . S
H240 C248 0.929 . S
H241 C250 0.930 . S
H242 C252 0.930 . S
H243 C255 0.929 . S
H244 C258 0.930 . S
H245 C260 0.960 . S
H246 C260 0.960 . S
H247 C260 0.960 . S
C248 H240 0.929 . S
C248 C249 1.377 . S
C248 C250 1.384 . S
C249 C248 1.377 . S
C249 C255 1.390 . S
C250 H241 0.930 . S
C250 C248 1.384 . S
C250 C251 1.372 . S
C251 C250 1.372 . S
C251 C252 1.400 . S
C251 C256 1.490 . S
C252 H242 0.930 . S
C252 C251 1.400 . S
C252 C255 1.386 . S
H253 C269 0.930 . S
H254 C270 0.931 . S
C255 H243 0.929 . S
C255 C249 1.390 . S
C255 C252 1.386 . S
C256 C251 1.490 . S
C256 C258 1.395 . S
C256 C259 1.403 . S
H257 C263 0.930 . S
C258 H244 0.930 . S
C258 C256 1.395 . S
C258 C261 1.403 . S
C259 C256 1.403 . S
C259 C260 1.524 . S
C259 C263 1.400 . S
C260 H245 0.960 . S
C260 H246 0.960 . S
C260 H247 0.960 . S
C260 C259 1.524 . S
C261 C258 1.403 . S
C261 C262 1.392 . S
C261 C265 1.495 . S
C262 C261 1.392 . S
C262 C263 1.385 . S
C262 C264 1.478 . S
C263 H257 0.930 . S
C263 C259 1.400 . S
C263 C262 1.385 . S
C264 C262 1.478 . S
C264 C266 1.381 . S
C264 C270 1.383 . S
C265 C261 1.495 . S
C265 H271 0.959 . S
C265 H272 0.961 . S
C265 H273 0.960 . S
C266 C264 1.381 . S
C266 C267 1.394 . S
C266 H274 0.930 . S
C267 C266 1.394 . S
C267 C268 1.383 . S
C267 H275 0.929 . S
C268 C267 1.383 . S
C268 C269 1.377 . S
C269 H253 0.930 . S
C269 C268 1.377 . S
C269 C270 1.379 . S
C270 H254 0.931 . S
C270 C264 1.383 . S
C270 C269 1.379 . S
H271 C265 0.959 . S
H272 C265 0.961 . S
H273 C265 0.960 . S
H274 C266 0.930 . S
H275 C267 0.929 . S
H276 C284 0.929 . S
H277 C286 0.930 . S
H278 C288 0.930 . S
H279 C291 0.929 . S
H280 C294 0.930 . S
H281 C296 0.960 1_455 S
H282 C296 0.960 . S
H283 C296 0.960 . S
C284 H276 0.929 . S
C284 C285 1.377 . S
C284 C286 1.384 . S
C285 C284 1.377 . S
C285 C291 1.390 . S
C286 H277 0.930 . S
C286 C284 1.384 . S
C286 C287 1.372 . S
C287 C286 1.372 . S
C287 C288 1.400 . S
C287 C292 1.490 . S
C288 H278 0.930 . S
C288 C287 1.400 . S
C288 C291 1.386 . S
H289 C305 0.930 . S
H290 C306 0.931 . S
C291 H279 0.929 . S
C291 C285 1.390 . S
C291 C288 1.386 . S
C292 C287 1.490 . S
C292 C294 1.395 . S
C292 C295 1.403 . S
H293 C299 0.930 . S
C294 H280 0.930 . S
C294 C292 1.395 . S
C294 C297 1.403 1_655 S
C295 C292 1.403 . S
C295 C296 1.524 . S
C295 C299 1.400 1_655 S
C296 H281 0.960 1_655 S
C296 H282 0.960 . S
C296 H283 0.960 . S
C296 C295 1.524 . S
C297 C294 1.403 1_455 S
C297 C298 1.392 . S
C297 C301 1.495 . S
C298 C297 1.392 . S
C298 C299 1.385 . S
C298 C300 1.478 . S
C299 H293 0.930 . S
C299 C295 1.400 1_455 S
C299 C298 1.385 . S
C300 C298 1.478 . S
C300 C302 1.381 . S
C300 C306 1.383 . S
C301 C297 1.495 . S
C301 H307 0.959 1_455 S
C301 H308 0.961 . S
C301 H309 0.960 . S
C302 C300 1.381 . S
C302 C303 1.394 . S
C302 H310 0.930 . S
C303 C302 1.394 . S
C303 C304 1.383 . S
C303 H311 0.929 . S
C304 C303 1.383 . S
C304 C305 1.377 . S
C305 H289 0.930 . S
C305 C304 1.377 . S
C305 C306 1.379 . S
C306 H290 0.931 . S
C306 C300 1.383 . S
C306 C305 1.379 . S
H307 C301 0.959 1_655 S
H308 C301 0.961 . S
H309 C301 0.960 . S
H310 C302 0.930 . S
H311 C303 0.929 . S
H312 C320 0.929 . S
H313 C322 0.930 . S
H314 C324 0.930 . S
H315 C327 0.929 . S
H316 C330 0.930 . S
H317 C332 0.960 . S
H318 C332 0.960 . S
H319 C332 0.960 . S
C320 H312 0.929 . S
C320 C321 1.377 . S
C320 C322 1.384 . S
C321 C320 1.377 . S
C321 C327 1.390 . S
C322 H313 0.930 . S
C322 C320 1.384 . S
C322 C323 1.372 . S
C323 C322 1.372 . S
C323 C324 1.400 . S
C323 C328 1.490 . S
C324 H314 0.930 . S
C324 C323 1.400 . S
C324 C327 1.386 . S
H325 C341 0.930 . S
H326 C342 0.931 . S
C327 H315 0.929 . S
C327 C321 1.390 . S
C327 C324 1.386 . S
C328 C323 1.490 . S
C328 C330 1.395 . S
C328 C331 1.403 . S
H329 C335 0.930 . S
C330 H316 0.930 . S
C330 C328 1.395 . S
C330 C333 1.403 1_545 S
C331 C328 1.403 . S
C331 C332 1.524 . S
C331 C335 1.400 1_545 S
C332 H317 0.960 . S
C332 H318 0.960 . S
C332 H319 0.960 . S
C332 C331 1.524 . S
C333 C330 1.403 1_565 S
C333 C334 1.392 . S
C333 C337 1.495 . S
C334 C333 1.392 . S
C334 C335 1.385 . S
C334 C336 1.478 . S
C335 H329 0.930 . S
C335 C331 1.400 1_565 S
C335 C334 1.385 . S
C336 C334 1.478 . S
C336 C338 1.381 . S
C336 C342 1.383 . S
C337 C333 1.495 . S
C337 H343 0.959 . S
C337 H344 0.961 . S
C337 H345 0.960 . S
C338 C336 1.381 . S
C338 C339 1.394 . S
C338 H346 0.930 . S
C339 C338 1.394 . S
C339 C340 1.383 . S
C339 H347 0.929 . S
C340 C339 1.383 . S
C340 C341 1.377 . S
C341 H325 0.930 . S
C341 C340 1.377 . S
C341 C342 1.379 . S
C342 H326 0.931 . S
C342 C336 1.383 . S
C342 C341 1.379 . S
H343 C337 0.959 . S
H344 C337 0.961 . S
H345 C337 0.960 . S
H346 C338 0.930 . S
H347 C339 0.929 . S
H348 C356 0.929 . S
H349 C358 0.930 . S
H350 C360 0.930 . S
H351 C363 0.929 . S
H352 C366 0.930 . S
H353 C368 0.960 . S
H354 C368 0.960 . S
H355 C368 0.960 . S
C356 H348 0.929 . S
C356 C357 1.377 . S
C356 C358 1.384 . S
C357 C356 1.377 . S
C357 C363 1.390 . S
C358 H349 0.930 . S
C358 C356 1.384 . S
C358 C359 1.372 . S
C359 C358 1.372 . S
C359 C360 1.400 . S
C359 C364 1.490 . S
C360 H350 0.930 . S
C360 C359 1.400 . S
C360 C363 1.386 . S
H361 C377 0.930 . S
H362 C378 0.931 . S
C363 H351 0.929 . S
C363 C357 1.390 . S
C363 C360 1.386 . S
C364 C359 1.490 . S
C364 C366 1.395 . S
C364 C367 1.403 . S
H365 C371 0.930 . S
C366 H352 0.930 . S
C366 C364 1.395 . S
C366 C369 1.403 . S
C367 C364 1.403 . S
C367 C368 1.524 . S
C367 C371 1.400 . S
C368 H353 0.960 . S
C368 H354 0.960 . S
C368 H355 0.960 . S
C368 C367 1.524 . S
C369 C366 1.403 . S
C369 C370 1.392 . S
C369 C373 1.495 . S
C370 C369 1.392 . S
C370 C371 1.385 . S
C370 C372 1.478 . S
C371 H365 0.930 . S
C371 C367 1.400 . S
C371 C370 1.385 . S
C372 C370 1.478 . S
C372 C374 1.381 . S
C372 C378 1.383 . S
C373 C369 1.495 . S
C373 H379 0.959 . S
C373 H380 0.961 . S
C373 H381 0.960 . S
C374 C372 1.381 . S
C374 C375 1.394 . S
C374 H382 0.930 . S
C375 C374 1.394 . S
C375 C376 1.383 . S
C375 H383 0.929 . S
C376 C375 1.383 . S
C376 C377 1.377 . S
C377 H361 0.930 . S
C377 C376 1.377 . S
C377 C378 1.379 . S
C378 H362 0.931 . S
C378 C372 1.383 . S
C378 C377 1.379 . S
H379 C373 0.959 . S
H380 C373 0.961 . S
H381 C373 0.960 . S
H382 C374 0.930 . S
H383 C375 0.929 . S
H384 C392 0.929 . S
H385 C394 0.930 . S
H386 C396 0.930 . S
H387 C399 0.929 . S
H388 C402 0.930 . S
H389 C404 0.960 . S
H390 C404 0.960 . S
H391 C404 0.960 . S
C392 H384 0.929 . S
C392 C393 1.377 . S
C392 C394 1.384 . S
C393 C392 1.377 . S
C393 C399 1.390 . S
C394 H385 0.930 . S
C394 C392 1.384 . S
C394 C395 1.372 . S
C395 C394 1.372 . S
C395 C396 1.400 . S
C395 C400 1.490 . S
C396 H386 0.930 . S
C396 C395 1.400 . S
C396 C399 1.386 . S
H397 C413 0.930 . S
H398 C414 0.931 . S
C399 H387 0.929 . S
C399 C393 1.390 . S
C399 C396 1.386 . S
C400 C395 1.490 . S
C400 C402 1.395 . S
C400 C403 1.403 . S
H401 C407 0.930 . S
C402 H388 0.930 . S
C402 C400 1.395 . S
C402 C405 1.403 . S
C403 C400 1.403 . S
C403 C404 1.524 . S
C403 C407 1.400 . S
C404 H389 0.960 . S
C404 H390 0.960 . S
C404 H391 0.960 . S
C404 C403 1.524 . S
C405 C402 1.403 . S
C405 C406 1.392 . S
C405 C409 1.495 . S
C406 C405 1.392 . S
C406 C407 1.385 . S
C406 C408 1.478 . S
C407 H401 0.930 . S
C407 C403 1.400 . S
C407 C406 1.385 . S
C408 C406 1.478 . S
C408 C410 1.381 . S
C408 C414 1.383 . S
C409 C405 1.495 . S
C409 H415 0.959 . S
C409 H416 0.961 . S
C409 H417 0.960 . S
C410 C408 1.381 . S
C410 C411 1.394 . S
C410 H418 0.930 . S
C411 C410 1.394 . S
C411 C412 1.383 . S
C411 H419 0.929 . S
C412 C411 1.383 . S
C412 C413 1.377 . S
C413 H397 0.930 . S
C413 C412 1.377 . S
C413 C414 1.379 . S
C414 H398 0.931 . S
C414 C408 1.383 . S
C414 C413 1.379 . S
H415 C409 0.959 . S
H416 C409 0.961 . S
H417 C409 0.960 . S
H418 C410 0.930 . S
H419 C411 0.929 . S
H420 C428 0.920 1_655 S
H421 C430 0.930 1_655 S
H422 C432 0.930 . S
H423 C435 0.929 . S
H424 C438 0.930 . S
H425 C440 0.960 . S
H426 C440 0.960 . S
H427 C440 0.960 . S
C428 H420 0.920 1_455 S
C428 C429 1.377 . S
C428 C430 1.384 . S
C429 C428 1.377 . S
C429 C435 1.390 . S
C430 H421 0.930 1_455 S
C430 C428 1.384 . S
C430 C431 1.372 . S
C431 C430 1.372 . S
C431 C432 1.400 . S
C431 C436 1.490 . S
C432 H422 0.930 . S
C432 C431 1.400 . S
C432 C435 1.386 . S
H433 C449 0.930 . S
H434 C450 0.931 1_455 S
C435 H423 0.929 . S
C435 C429 1.390 . S
C435 C432 1.386 . S
C436 C431 1.490 . S
C436 C438 1.395 1_455 S
C436 C439 1.403 . S
H437 C443 0.930 . S
C438 H424 0.930 . S
C438 C436 1.395 1_655 S
C438 C441 1.403 . S
C439 C436 1.403 . S
C439 C440 1.524 . S
C439 C443 1.400 . S
C440 H425 0.960 . S
C440 H426 0.960 . S
C440 H427 0.960 . S
C440 C439 1.524 . S
C441 C438 1.403 . S
C441 C442 1.392 . S
C441 C445 1.495 . S
C442 C441 1.392 . S
C442 C443 1.385 1_655 S
C442 C444 1.478 . S
C443 H437 0.930 . S
C443 C439 1.400 . S
C443 C442 1.385 1_455 S
C444 C442 1.478 . S
C444 C446 1.381 . S
C444 C450 1.383 . S
C445 C441 1.495 . S
C445 H451 0.959 . S
C445 H452 0.961 . S
C445 H453 0.960 . S
C446 C444 1.381 . S
C446 C447 1.394 . S
C446 H454 0.930 . S
C447 C446 1.394 . S
C447 C448 1.383 . S
C447 H455 0.929 . S
C448 C447 1.383 . S
C448 C449 1.377 . S
C449 H433 0.930 . S
C449 C448 1.377 . S
C449 C450 1.379 . S
C450 H434 0.931 1_655 S
C450 C444 1.383 . S
C450 C449 1.379 . S
H451 C445 0.959 . S
H452 C445 0.961 . S
H453 C445 0.960 . S
H454 C446 0.930 . S
H455 C447 0.929 . S
H456 C464 0.929 . S
H457 C466 0.930 . S
H458 C468 0.930 . S
H459 C471 0.929 . S
H460 C474 0.930 . S
H461 C476 0.960 . S
H462 C476 0.960 . S
H463 C476 0.960 . S
C464 H456 0.929 . S
C464 C465 1.377 . S
C464 C466 1.384 . S
C465 C464 1.377 . S
C465 C471 1.390 . S
C466 H457 0.930 . S
C466 C464 1.384 . S
C466 C467 1.372 . S
C467 C466 1.372 . S
C467 C468 1.400 . S
C467 C472 1.490 . S
C468 H458 0.930 . S
C468 C467 1.400 . S
C468 C471 1.386 . S
H469 C485 0.930 . S
H470 C486 0.931 . S
C471 H459 0.929 . S
C471 C465 1.390 . S
C471 C468 1.386 . S
C472 C467 1.490 . S
C472 C474 1.395 1_545 S
C472 C475 1.403 . S
H473 C479 0.930 . S
C474 H460 0.930 . S
C474 C472 1.395 1_565 S
C474 C477 1.403 . S
C475 C472 1.403 . S
C475 C476 1.524 . S
C475 C479 1.400 . S
C476 H461 0.960 . S
C476 H462 0.960 . S
C476 H463 0.960 . S
C476 C475 1.524 . S
C477 C474 1.403 . S
C477 C478 1.392 . S
C477 C481 1.495 . S
C478 C477 1.392 . S
C478 C479 1.385 1_565 S
C478 C480 1.478 . S
C479 H473 0.930 . S
C479 C475 1.400 . S
C479 C478 1.385 1_545 S
C480 C478 1.478 . S
C480 C482 1.381 . S
C480 C486 1.383 . S
C481 C477 1.495 . S
C481 H487 0.959 . S
C481 H488 0.961 . S
C481 H489 0.960 . S
C482 C480 1.381 . S
C482 C483 1.394 . S
C482 H490 0.930 . S
C483 C482 1.394 . S
C483 C484 1.383 . S
C483 H491 0.929 . S
C484 C483 1.383 . S
C484 C485 1.377 . S
C485 H469 0.930 . S
C485 C484 1.377 . S
C485 C486 1.379 . S
C486 H470 0.931 . S
C486 C480 1.383 . S
C486 C485 1.379 . S
H487 C481 0.959 . S
H488 C481 0.961 . S
H489 C481 0.960 . S
H490 C482 0.930 . S
H491 C483 0.929 . S
H492 C500 0.929 . S
H493 C502 0.930 . S
H494 C504 0.930 . S
H495 C507 0.929 . S
H496 C510 0.930 . S
H497 C512 0.960 . S
H498 C512 0.960 . S
H499 C512 0.960 . S
C500 H492 0.929 . S
C500 C501 1.377 . S
C500 C502 1.384 . S
C501 C500 1.377 . S
C501 C507 1.390 . S
C502 H493 0.930 . S
C502 C500 1.384 . S
C502 C503 1.372 . S
C503 C502 1.372 . S
C503 C504 1.400 . S
C503 C508 1.490 . S
C504 H494 0.930 . S
C504 C503 1.400 . S
C504 C507 1.386 . S
H505 C521 0.930 . S
H506 C522 0.931 . S
C507 H495 0.929 . S
C507 C501 1.390 . S
C507 C504 1.386 . S
C508 C503 1.490 . S
C508 C510 1.395 . S
C508 C511 1.403 . S
H509 C515 0.930 . S
C510 H496 0.930 . S
C510 C508 1.395 . S
C510 C513 1.403 . S
C511 C508 1.403 . S
C511 C512 1.524 . S
C511 C515 1.400 . S
C512 H497 0.960 . S
C512 H498 0.960 . S
C512 H499 0.960 . S
C512 C511 1.524 . S
C513 C510 1.403 . S
C513 C514 1.392 . S
C513 C517 1.495 . S
C514 C513 1.392 . S
C514 C515 1.385 . S
C514 C516 1.478 . S
C515 H509 0.930 . S
C515 C511 1.400 . S
C515 C514 1.385 . S
C516 C514 1.478 . S
C516 C518 1.381 . S
C516 C522 1.383 . S
C517 C513 1.495 . S
C517 H523 0.959 . S
C517 H524 0.961 . S
C517 H525 0.960 . S
C518 C516 1.381 . S
C518 C519 1.394 . S
C518 H526 0.930 . S
C519 C518 1.394 . S
C519 C520 1.383 . S
C519 H527 0.929 . S
C520 C519 1.383 . S
C520 C521 1.377 . S
C521 H505 0.930 . S
C521 C520 1.377 . S
C521 C522 1.379 . S
C522 H506 0.931 . S
C522 C516 1.383 . S
C522 C521 1.379 . S
H523 C517 0.959 . S
H524 C517 0.961 . S
H525 C517 0.960 . S
H526 C518 0.930 . S
H527 C519 0.929 . S
H528 C536 0.929 . S
H529 C538 0.930 . S
H530 C540 0.930 . S
H531 C543 0.929 1_455 S
H532 C546 0.930 . S
H533 C548 0.960 . S
H534 C548 0.960 . S
H535 C548 0.960 . S
C536 H528 0.929 . S
C536 C537 1.377 . S
C536 C538 1.384 . S
C537 C536 1.377 . S
C537 C543 1.390 . S
C538 H529 0.930 . S
C538 C536 1.384 . S
C538 C539 1.372 . S
C539 C538 1.372 . S
C539 C540 1.400 1_655 S
C539 C544 1.490 . S
C540 H530 0.930 . S
C540 C539 1.400 1_455 S
C540 C543 1.386 1_455 S
H541 C557 0.930 . S
H542 C558 0.931 . S
C543 H531 0.929 1_655 S
C543 C537 1.390 . S
C543 C540 1.386 1_655 S
C544 C539 1.490 . S
C544 C546 1.395 . S
C544 C547 1.403 . S
H545 C551 0.933 . S
C546 H532 0.930 . S
C546 C544 1.395 . S
C546 C549 1.403 1_655 S
C547 C544 1.403 . S
C547 C548 1.524 . S
C547 C551 1.393 1_655 S
C548 H533 0.960 . S
C548 H534 0.960 . S
C548 H535 0.960 . S
C548 C547 1.524 . S
C549 C546 1.403 1_455 S
C549 C550 1.392 . S
C549 C553 1.495 . S
C550 C549 1.392 . S
C550 C551 1.389 . S
C550 C552 1.478 . S
C551 H545 0.933 . S
C551 C547 1.393 1_455 S
C551 C550 1.389 . S
C552 C550 1.478 . S
C552 C554 1.381 1_455 S
C552 C558 1.383 . S
C553 C549 1.495 . S
C553 H559 0.959 . S
C553 H560 0.961 . S
C553 H561 0.961 . S
C554 C552 1.381 1_655 S
C554 C555 1.394 1_655 S
C554 H562 0.930 . S
C555 C554 1.394 1_455 S
C555 C556 1.383 . S
C555 H563 0.929 1_455 S
C556 C555 1.383 . S
C556 C557 1.377 . S
C557 H541 0.930 . S
C557 C556 1.377 . S
C557 C558 1.379 . S
C558 H542 0.931 . S
C558 C552 1.383 . S
C558 C557 1.379 . S
H559 C553 0.959 . S
H560 C553 0.961 . S
H561 C553 0.961 . S
H562 C554 0.930 . S
H563 C555 0.929 1_655 S
H564 C572 0.929 . S
H565 C574 0.930 . S
H566 C576 0.930 1_545 S
H567 C579 0.929 . S
H568 C582 0.930 . S
H569 C584 0.960 . S
H570 C584 0.960 . S
H571 C584 0.960 . S
C572 H564 0.929 . S
C572 C573 1.377 . S
C572 C574 1.384 . S
C573 C572 1.377 . S
C573 C579 1.390 . S
C574 H565 0.930 . S
C574 C572 1.384 . S
C574 C575 1.372 . S
C575 C574 1.372 . S
C575 C576 1.400 . S
C575 C580 1.490 . S
C576 H566 0.930 1_565 S
C576 C575 1.400 . S
C576 C579 1.386 . S
H577 C593 0.930 . S
H578 C594 0.931 . S
C579 H567 0.929 . S
C579 C573 1.390 . S
C579 C576 1.386 . S
C580 C575 1.490 . S
C580 C582 1.395 . S
C580 C583 1.403 1_565 S
H581 C587 0.930 . S
C582 H568 0.930 . S
C582 C580 1.395 . S
C582 C585 1.403 . S
C583 C580 1.403 1_545 S
C583 C584 1.524 . S
C583 C587 1.400 . S
C584 H569 0.960 . S
C584 H570 0.960 . S
C584 H571 0.960 . S
C584 C583 1.524 . S
C585 C582 1.403 . S
C585 C586 1.392 1_565 S
C585 C589 1.495 . S
C586 C585 1.392 1_545 S
C586 C587 1.385 . S
C586 C588 1.478 . S
C587 H581 0.930 . S
C587 C583 1.400 . S
C587 C586 1.385 . S
C588 C586 1.478 . S
C588 C590 1.381 . S
C588 C594 1.383 . S
C589 C585 1.495 . S
C589 H595 0.959 . S
C589 H596 0.961 . S
C589 H597 0.960 . S
C590 C588 1.381 . S
C590 C591 1.394 . S
C590 H598 0.930 1_545 S
C591 C590 1.394 . S
C591 C592 1.383 . S
C591 H599 0.929 . S
C592 C591 1.383 . S
C592 C593 1.377 . S
C593 H577 0.930 . S
C593 C592 1.377 . S
C593 C594 1.379 . S
C594 H578 0.931 . S
C594 C588 1.383 . S
C594 C593 1.379 . S
H595 C589 0.959 . S
H596 C589 0.961 . S
H597 C589 0.960 . S
H598 C590 0.930 1_565 S
H599 C591 0.929 . S
H600 C608 0.929 . S
H601 C610 0.930 . S
H602 C612 0.930 . S
H603 C615 0.929 1_565 S
H604 C618 0.930 . S
H605 C620 0.960 . S
H606 C620 0.960 . S
H607 C620 0.960 . S
C608 H600 0.929 . S
C608 C609 1.377 . S
C608 C610 1.384 . S
C609 C608 1.377 . S
C609 C615 1.390 . S
C610 H601 0.930 . S
C610 C608 1.384 . S
C610 C611 1.372 . S
C611 C610 1.372 . S
C611 C612 1.400 . S
C611 C616 1.490 . S
C612 H602 0.930 . S
C612 C611 1.400 . S
C612 C615 1.386 . S
H613 C629 0.930 . S
H614 C630 0.931 . S
C615 H603 0.929 1_545 S
C615 C609 1.390 . S
C615 C612 1.386 . S
C616 C611 1.490 . S
C616 C618 1.395 . S
C616 C619 1.403 . S
H617 C623 0.930 . S
C618 H604 0.930 . S
C618 C616 1.395 . S
C618 C621 1.403 . S
C619 C616 1.403 . S
C619 C620 1.524 . S
C619 C623 1.400 . S
C620 H605 0.960 . S
C620 H606 0.960 . S
C620 H607 0.960 . S
C620 C619 1.524 . S
C621 C618 1.403 . S
C621 C622 1.392 . S
C621 C625 1.495 . S
C622 C621 1.392 . S
C622 C623 1.385 . S
C622 C624 1.478 . S
C623 H617 0.930 . S
C623 C619 1.400 . S
C623 C622 1.385 . S
C624 C622 1.478 . S
C624 C626 1.381 . S
C624 C630 1.383 . S
C625 C621 1.495 . S
C625 H631 0.959 . S
C625 H632 0.961 . S
C625 H633 0.960 . S
C626 C624 1.381 . S
C626 C627 1.394 . S
C626 H634 0.930 . S
C627 C626 1.394 . S
C627 C628 1.383 . S
C627 H635 0.929 . S
C628 C627 1.383 . S
C628 C629 1.377 . S
C629 H613 0.930 . S
C629 C628 1.377 . S
C629 C630 1.379 . S
C630 H614 0.931 . S
C630 C624 1.383 . S
C630 C629 1.379 . S
H631 C625 0.959 . S
H632 C625 0.961 . S
H633 C625 0.960 . S
H634 C626 0.930 . S
H635 C627 0.929 . S
H636 C644 0.929 . S
H637 C646 0.930 . S
H638 C648 0.930 . S
H639 C651 0.929 . S
H640 C654 0.930 . S
H641 C656 0.960 . S
H642 C656 0.960 . S
H643 C656 0.960 . S
C644 H636 0.929 . S
C644 C645 1.377 . S
C644 C646 1.384 . S
C645 C644 1.377 . S
C645 C651 1.390 . S
C646 H637 0.930 . S
C646 C644 1.384 . S
C646 C647 1.372 . S
C647 C646 1.372 . S
C647 C648 1.400 . S
C647 C652 1.490 . S
C648 H638 0.930 . S
C648 C647 1.400 . S
C648 C651 1.386 . S
H649 C665 0.930 . S
H650 C666 0.931 . S
C651 H639 0.929 . S
C651 C645 1.390 . S
C651 C648 1.386 . S
C652 C647 1.490 . S
C652 C654 1.395 . S
C652 C655 1.403 . S
H653 C659 0.930 . S
C654 H640 0.930 . S
C654 C652 1.395 . S
C654 C657 1.403 . S
C655 C652 1.403 . S
C655 C656 1.524 . S
C655 C659 1.400 . S
C656 H641 0.960 . S
C656 H642 0.960 . S
C656 H643 0.960 . S
C656 C655 1.524 . S
C657 C654 1.403 . S
C657 C658 1.392 . S
C657 C661 1.495 . S
C658 C657 1.392 . S
C658 C659 1.385 . S
C658 C660 1.478 . S
C659 H653 0.930 . S
C659 C655 1.400 . S
C659 C658 1.385 . S
C660 C658 1.478 . S
C660 C662 1.381 . S
C660 C666 1.383 . S
C661 C657 1.495 . S
C661 H667 0.959 . S
C661 H668 0.961 . S
C661 H669 0.960 . S
C662 C660 1.381 . S
C662 C663 1.394 . S
C662 H670 0.930 . S
C663 C662 1.394 . S
C663 C664 1.383 . S
C663 H671 0.929 . S
C664 C663 1.383 . S
C664 C665 1.377 . S
C665 H649 0.930 . S
C665 C664 1.377 . S
C665 C666 1.379 . S
C666 H650 0.931 . S
C666 C660 1.383 . S
C666 C665 1.379 . S
H667 C661 0.959 . S
H668 C661 0.961 . S
H669 C661 0.960 . S
H670 C662 0.930 . S
H671 C663 0.929 . S
H672 C680 0.929 . S
H673 C682 0.930 . S
H674 C684 0.930 . S
H675 C687 0.929 . S
H676 C690 0.930 . S
H677 C692 0.960 . S
H678 C692 0.960 . S
H679 C692 0.960 . S
C680 H672 0.929 . S
C680 C681 1.377 . S
C680 C682 1.384 . S
C681 C680 1.377 . S
C681 C687 1.390 . S
C682 H673 0.930 . S
C682 C680 1.384 . S
C682 C683 1.372 . S
C683 C682 1.372 . S
C683 C684 1.400 . S
C683 C688 1.490 . S
C684 H674 0.930 . S
C684 C683 1.400 . S
C684 C687 1.386 . S
H685 C701 0.930 1_565 S
H686 C702 0.931 . S
C687 H675 0.929 . S
C687 C681 1.390 . S
C687 C684 1.386 . S
C688 C683 1.490 . S
C688 C690 1.395 . S
C688 C691 1.403 . S
H689 C695 0.930 . S
C690 H676 0.930 . S
C690 C688 1.395 . S
C690 C693 1.403 . S
C691 C688 1.403 . S
C691 C692 1.524 . S
C691 C695 1.400 . S
C692 H677 0.960 . S
C692 H678 0.960 . S
C692 H679 0.960 . S
C692 C691 1.524 . S
C693 C690 1.403 . S
C693 C694 1.392 . S
C693 C697 1.495 . S
C694 C693 1.392 . S
C694 C695 1.385 . S
C694 C696 1.478 . S
C695 H689 0.930 . S
C695 C691 1.400 . S
C695 C694 1.385 . S
C696 C694 1.478 . S
C696 C698 1.381 . S
C696 C702 1.383 . S
C697 C693 1.495 . S
C697 H703 0.959 . S
C697 H704 0.961 . S
C697 H705 0.960 . S
C698 C696 1.381 . S
C698 C699 1.394 . S
C698 H706 0.930 . S
C699 C698 1.394 . S
C699 C700 1.383 . S
C699 H707 0.929 . S
C700 C699 1.383 . S
C700 C701 1.377 . S
C701 H685 0.930 1_545 S
C701 C700 1.377 . S
C701 C702 1.379 . S
C702 H686 0.931 . S
C702 C696 1.383 . S
C702 C701 1.379 . S
H703 C697 0.959 . S
H704 C697 0.961 . S
H705 C697 0.960 . S
H706 C698 0.930 . S
H707 C699 0.929 . S
H708 C716 0.929 . S
H709 C718 0.930 . S
H710 C720 0.930 . S
H711 C723 0.929 . S
H712 C726 0.930 . S
H713 C728 0.960 . S
H714 C728 0.960 . S
H715 C728 0.960 . S
C716 H708 0.929 . S
C716 C717 1.377 . S
C716 C718 1.384 . S
C717 C716 1.377 . S
C717 C723 1.390 . S
C718 H709 0.930 . S
C718 C716 1.384 . S
C718 C719 1.372 . S
C719 C718 1.372 . S
C719 C720 1.400 . S
C719 C724 1.490 . S
C720 H710 0.930 . S
C720 C719 1.400 . S
C720 C723 1.386 . S
H721 C737 0.930 . S
H722 C738 0.931 . S
C723 H711 0.929 . S
C723 C717 1.390 . S
C723 C720 1.386 . S
C724 C719 1.490 . S
C724 C726 1.395 . S
C724 C727 1.403 . S
H725 C731 0.930 . S
C726 H712 0.930 . S
C726 C724 1.395 . S
C726 C729 1.403 . S
C727 C724 1.403 . S
C727 C728 1.524 . S
C727 C731 1.400 . S
C728 H713 0.960 . S
C728 H714 0.960 . S
C728 H715 0.960 . S
C728 C727 1.524 . S
C729 C726 1.403 . S
C729 C730 1.392 . S
C729 C733 1.495 . S
C730 C729 1.392 . S
C730 C731 1.385 . S
C730 C732 1.478 . S
C731 H725 0.930 . S
C731 C727 1.400 . S
C731 C730 1.385 . S
C732 C730 1.478 . S
C732 C734 1.381 . S
C732 C738 1.383 . S
C733 C729 1.495 . S
C733 H739 0.959 . S
C733 H740 0.961 . S
C733 H741 0.960 . S
C734 C732 1.381 . S
C734 C735 1.394 . S
C734 H742 0.930 . S
C735 C734 1.394 . S
C735 C736 1.383 . S
C735 H743 0.929 . S
C736 C735 1.383 . S
C736 C737 1.377 . S
C737 H721 0.930 . S
C737 C736 1.377 . S
C737 C738 1.379 . S
C738 H722 0.931 . S
C738 C732 1.383 . S
C738 C737 1.379 . S
H739 C733 0.959 . S
H740 C733 0.961 . S
H741 C733 0.960 . S
H742 C734 0.930 . S
H743 C735 0.929 . S
H744 C752 0.929 . S
H745 C754 0.930 . S
H746 C756 0.930 . S
H747 C759 0.929 . S
H748 C762 0.930 . S
H749 C764 0.960 . S
H750 C764 0.960 . S
H751 C764 0.960 . S
C752 H744 0.929 . S
C752 C753 1.377 . S
C752 C754 1.384 . S
C753 C752 1.377 . S
C753 C759 1.390 . S
C754 H745 0.930 . S
C754 C752 1.384 . S
C754 C755 1.372 . S
C755 C754 1.372 . S
C755 C756 1.400 . S
C755 C760 1.490 . S
C756 H746 0.930 . S
C756 C755 1.400 . S
C756 C759 1.386 . S
H757 C773 0.930 . S
H758 C774 0.931 . S
C759 H747 0.929 . S
C759 C753 1.390 . S
C759 C756 1.386 . S
C760 C755 1.490 . S
C760 C762 1.395 . S
C760 C763 1.403 . S
H761 C767 0.930 . S
C762 H748 0.930 . S
C762 C760 1.395 . S
C762 C765 1.403 . S
C763 C760 1.403 . S
C763 C764 1.524 . S
C763 C767 1.400 . S
C764 H749 0.960 . S
C764 H750 0.960 . S
C764 H751 0.960 . S
C764 C763 1.524 . S
C765 C762 1.403 . S
C765 C766 1.392 . S
C765 C769 1.495 . S
C766 C765 1.392 . S
C766 C767 1.385 . S
C766 C768 1.478 . S
C767 H761 0.930 . S
C767 C763 1.400 . S
C767 C766 1.385 . S
C768 C766 1.478 . S
C768 C770 1.381 . S
C768 C774 1.383 . S
C769 C765 1.495 . S
C769 H775 0.959 . S
C769 H776 0.961 . S
C769 H777 0.960 . S
C770 C768 1.381 . S
C770 C771 1.394 . S
C770 H778 0.930 . S
C771 C770 1.394 . S
C771 C772 1.383 . S
C771 H779 0.929 1_655 S
C772 C771 1.383 . S
C772 C773 1.377 . S
C773 H757 0.930 . S
C773 C772 1.377 . S
C773 C774 1.379 . S
C774 H758 0.931 . S
C774 C768 1.383 . S
C774 C773 1.379 . S
H775 C769 0.959 . S
H776 C769 0.961 . S
H777 C769 0.960 . S
H778 C770 0.930 . S
H779 C771 0.929 1_455 S
H780 C788 0.929 . S
H781 C790 0.930 . S
H782 C792 0.930 . S
H783 C795 0.929 1_545 S
H784 C798 0.930 . S
H785 C800 0.960 . S
H786 C800 0.960 . S
H787 C800 0.960 . S
C788 H780 0.929 . S
C788 C789 1.377 . S
C788 C790 1.384 . S
C789 C788 1.377 . S
C789 C795 1.390 . S
C790 H781 0.930 . S
C790 C788 1.384 . S
C790 C791 1.372 . S
C791 C790 1.372 . S
C791 C792 1.400 . S
C791 C796 1.490 . S
C792 H782 0.930 . S
C792 C791 1.400 . S
C792 C795 1.386 . S
H793 C809 0.930 . S
H794 C810 0.931 . S
C795 H783 0.929 1_565 S
C795 C789 1.390 . S
C795 C792 1.386 . S
C796 C791 1.490 . S
C796 C798 1.395 . S
C796 C799 1.403 . S
H797 C803 0.930 . S
C798 H784 0.930 . S
C798 C796 1.395 . S
C798 C801 1.403 . S
C799 C796 1.403 . S
C799 C800 1.524 . S
C799 C803 1.400 . S
C800 H785 0.960 . S
C800 H786 0.960 . S
C800 H787 0.960 . S
C800 C799 1.524 . S
C801 C798 1.403 . S
C801 C802 1.392 . S
C801 C805 1.495 . S
C802 C801 1.392 . S
C802 C803 1.385 . S
C802 C804 1.478 . S
C803 H797 0.930 . S
C803 C799 1.400 . S
C803 C802 1.385 . S
C804 C802 1.478 . S
C804 C806 1.381 . S
C804 C810 1.383 . S
C805 C801 1.495 . S
C805 H811 0.959 . S
C805 H812 0.961 . S
C805 H813 0.960 . S
C806 C804 1.381 . S
C806 C807 1.394 . S
C806 H814 0.930 . S
C807 C806 1.394 . S
C807 C808 1.383 . S
C807 H815 0.929 . S
C808 C807 1.383 . S
C808 C809 1.377 . S
C809 H793 0.930 . S
C809 C808 1.377 . S
C809 C810 1.379 . S
C810 H794 0.931 . S
C810 C804 1.383 . S
C810 C809 1.379 . S
H811 C805 0.959 . S
H812 C805 0.961 . S
H813 C805 0.960 . S
H814 C806 0.930 . S
H815 C807 0.929 . S
H816 C824 0.929 . S
H817 C826 0.930 . S
H818 C828 0.930 . S
H819 C831 0.929 . S
H820 C834 0.930 . S
H821 C836 0.960 . S
H822 C836 0.960 . S
H823 C836 0.960 . S
C824 H816 0.929 . S
C824 C825 1.377 . S
C824 C826 1.384 . S
C825 C824 1.377 . S
C825 C831 1.390 . S
C826 H817 0.930 . S
C826 C824 1.384 . S
C826 C827 1.372 . S
C827 C826 1.372 . S
C827 C828 1.400 . S
C827 C832 1.490 . S
C828 H818 0.930 . S
C828 C827 1.400 . S
C828 C831 1.386 . S
H829 C845 0.930 . S
H830 C846 0.931 . S
C831 H819 0.929 . S
C831 C825 1.390 . S
C831 C828 1.386 . S
C832 C827 1.490 . S
C832 C834 1.395 . S
C832 C835 1.403 . S
H833 C839 0.930 . S
C834 H820 0.930 . S
C834 C832 1.395 . S
C834 C837 1.403 . S
C835 C832 1.403 . S
C835 C836 1.524 . S
C835 C839 1.400 . S
C836 H821 0.960 . S
C836 H822 0.960 . S
C836 H823 0.960 . S
C836 C835 1.524 . S
C837 C834 1.403 . S
C837 C838 1.392 . S
C837 C841 1.495 . S
C838 C837 1.392 . S
C838 C839 1.385 . S
C838 C840 1.478 . S
C839 H833 0.930 . S
C839 C835 1.400 . S
C839 C838 1.385 . S
C840 C838 1.478 . S
C840 C842 1.381 . S
C840 C846 1.383 . S
C841 C837 1.495 . S
C841 H847 0.959 . S
C841 H848 0.961 . S
C841 H849 0.960 . S
C842 C840 1.381 . S
C842 C843 1.394 . S
C842 H850 0.930 . S
C843 C842 1.394 . S
C843 C844 1.383 . S
C843 H851 0.929 . S
C844 C843 1.383 . S
C844 C845 1.377 . S
C845 H829 0.930 . S
C845 C844 1.377 . S
C845 C846 1.379 . S
C846 H830 0.931 . S
C846 C840 1.383 . S
C846 C845 1.379 . S
H847 C841 0.959 . S
H848 C841 0.961 . S
H849 C841 0.960 . S
H850 C842 0.930 . S
H851 C843 0.929 . S
H852 C860 0.929 . S
H853 C862 0.930 . S
H854 C864 0.930 . S
H855 C867 0.929 . S
H856 C870 0.930 . S
H857 C872 0.960 . S
H858 C872 0.960 . S
H859 C872 0.960 . S
C860 H852 0.929 . S
C860 C861 1.377 . S
C860 C862 1.384 . S
C861 C860 1.377 . S
C861 C867 1.390 . S
C862 H853 0.930 . S
C862 C860 1.384 . S
C862 C863 1.372 . S
C863 C862 1.372 . S
C863 C864 1.400 . S
C863 C868 1.490 . S
C864 H854 0.930 . S
C864 C863 1.400 . S
C864 C867 1.386 . S
H865 C881 0.930 . S
H866 C882 0.931 . S
C867 H855 0.929 . S
C867 C861 1.390 . S
C867 C864 1.386 . S
C868 C863 1.490 . S
C868 C870 1.395 1_655 S
C868 C871 1.403 . S
H869 C875 0.930 . S
C870 H856 0.930 . S
C870 C868 1.395 1_455 S
C870 C873 1.403 . S
C871 C868 1.403 . S
C871 C872 1.524 . S
C871 C875 1.400 . S
C872 H857 0.960 . S
C872 H858 0.960 . S
C872 H859 0.960 . S
C872 C871 1.524 . S
C873 C870 1.403 . S
C873 C874 1.392 . S
C873 C877 1.495 . S
C874 C873 1.392 . S
C874 C875 1.385 1_455 S
C874 C876 1.478 . S
C875 H869 0.930 . S
C875 C871 1.400 . S
C875 C874 1.385 1_655 S
C876 C874 1.478 . S
C876 C878 1.381 . S
C876 C882 1.383 . S
C877 C873 1.495 . S
C877 H883 0.959 . S
C877 H884 0.961 . S
C877 H885 0.960 . S
C878 C876 1.381 . S
C878 C879 1.394 . S
C878 H886 0.930 . S
C879 C878 1.394 . S
C879 C880 1.383 . S
C879 H887 0.929 . S
C880 C879 1.383 . S
C880 C881 1.377 . S
C881 H865 0.930 . S
C881 C880 1.377 . S
C881 C882 1.379 . S
C882 H866 0.931 . S
C882 C876 1.383 . S
C882 C881 1.379 . S
H883 C877 0.959 . S
H884 C877 0.961 . S
H885 C877 0.960 . S
H886 C878 0.930 . S
H887 C879 0.929 . S
H888 C896 0.929 . S
H889 C898 0.930 . S
H890 C900 0.930 . S
H891 C903 0.929 1_565 S
H892 C906 0.930 . S
H893 C908 0.960 . S
H894 C908 0.960 . S
H895 C908 0.960 . S
C896 H888 0.929 . S
C896 C897 1.377 . S
C896 C898 1.384 . S
C897 C896 1.377 . S
C897 C903 1.390 . S
C898 H889 0.930 . S
C898 C896 1.384 . S
C898 C899 1.372 . S
C899 C898 1.372 . S
C899 C900 1.400 1_545 S
C899 C904 1.490 . S
C900 H890 0.930 . S
C900 C899 1.400 1_565 S
C900 C903 1.386 1_565 S
H901 C917 0.930 . S
H902 C918 0.931 . S
C903 H891 0.929 1_545 S
C903 C897 1.390 . S
C903 C900 1.386 1_545 S
C904 C899 1.490 . S
C904 C906 1.395 . S
C904 C907 1.403 1_545 S
H905 C911 0.930 . S
C906 H892 0.930 . S
C906 C904 1.395 . S
C906 C909 1.403 1_554 S
C907 C904 1.403 1_565 S
C907 C908 1.524 . S
C907 C911 1.400 1_554 S
C908 H893 0.960 . S
C908 H894 0.960 . S
C908 H895 0.960 . S
C908 C907 1.524 . S
C909 C906 1.403 1_556 S
C909 C910 1.392 1_545 S
C909 C913 1.495 . S
C910 C909 1.392 1_565 S
C910 C911 1.385 . S
C910 C912 1.478 . S
C911 H905 0.930 . S
C911 C907 1.400 1_556 S
C911 C910 1.385 . S
C912 C910 1.478 . S
C912 C914 1.381 1_565 S
C912 C918 1.383 . S
C913 C909 1.495 . S
C913 H919 0.959 . S
C913 H920 0.961 . S
C913 H921 0.960 . S
C914 C912 1.381 1_545 S
C914 C915 1.394 1_545 S
C914 H922 0.930 . S
C915 C914 1.394 1_565 S
C915 C916 1.383 . S
C915 H923 0.929 1_565 S
C916 C915 1.383 . S
C916 C917 1.377 . S
C917 H901 0.930 . S
C917 C916 1.377 . S
C917 C918 1.379 . S
C918 H902 0.931 . S
C918 C912 1.383 . S
C918 C917 1.379 . S
H919 C913 0.959 . S
H920 C913 0.961 . S
H921 C913 0.960 . S
H922 C914 0.930 . S
H923 C915 0.929 1_545 S
H924 C932 0.929 . S
H925 C934 0.930 . S
H926 C936 0.930 . S
H927 C939 0.929 . S
H928 C942 0.930 . S
H929 C944 0.960 . S
H930 C944 0.960 . S
H931 C944 0.960 . S
C932 H924 0.929 . S
C932 C933 1.377 . S
C932 C934 1.384 . S
C933 C932 1.377 . S
C933 C939 1.390 . S
C934 H925 0.930 . S
C934 C932 1.384 . S
C934 C935 1.372 . S
C935 C934 1.372 . S
C935 C936 1.400 . S
C935 C940 1.490 . S
C936 H926 0.930 . S
C936 C935 1.400 . S
C936 C939 1.386 . S
H937 C953 0.930 . S
H938 C954 0.931 . S
C939 H927 0.929 . S
C939 C933 1.390 . S
C939 C936 1.386 . S
C940 C935 1.490 . S
C940 C942 1.395 . S
C940 C943 1.403 . S
H941 C947 0.930 . S
C942 H928 0.930 . S
C942 C940 1.395 . S
C942 C945 1.403 . S
C943 C940 1.403 . S
C943 C944 1.524 . S
C943 C947 1.400 . S
C944 H929 0.960 . S
C944 H930 0.960 . S
C944 H931 0.960 . S
C944 C943 1.524 . S
C945 C942 1.403 . S
C945 C946 1.392 . S
C945 C949 1.495 . S
C946 C945 1.392 . S
C946 C947 1.385 . S
C946 C948 1.478 . S
C947 H941 0.930 . S
C947 C943 1.400 . S
C947 C946 1.385 . S
C948 C946 1.478 . S
C948 C950 1.381 . S
C948 C954 1.383 . S
C949 C945 1.495 . S
C949 H955 0.959 . S
C949 H956 0.961 . S
C949 H957 0.960 . S
C950 C948 1.381 . S
C950 C951 1.394 . S
C950 H958 0.930 . S
C951 C950 1.394 . S
C951 C952 1.383 . S
C951 H959 0.929 . S
C952 C951 1.383 . S
C952 C953 1.377 . S
C953 H937 0.930 . S
C953 C952 1.377 . S
C953 C954 1.379 . S
C954 H938 0.931 . S
C954 C948 1.383 . S
C954 C953 1.379 . S
H955 C949 0.959 . S
H956 C949 0.961 . S
H957 C949 0.960 . S
H958 C950 0.930 . S
H959 C951 0.929 . S
H960 C968 0.929 . S
H961 C970 0.930 . S
H962 C972 0.930 . S
H963 C975 0.929 1_655 S
H964 C978 0.930 . S
H965 C980 0.960 . S
H966 C980 0.960 . S
H967 C980 0.960 . S
C968 H960 0.929 . S
C968 C969 1.377 . S
C968 C970 1.384 . S
C969 C968 1.377 . S
C969 C975 1.390 . S
C970 H961 0.930 . S
C970 C968 1.384 . S
C970 C971 1.372 . S
C971 C970 1.372 . S
C971 C972 1.400 1_455 S
C971 C976 1.490 . S
C972 H962 0.930 . S
C972 C971 1.400 1_655 S
C972 C975 1.386 1_655 S
H973 C989 0.930 . S
H974 C990 0.931 . S
C975 H963 0.929 1_455 S
C975 C969 1.390 . S
C975 C972 1.386 1_455 S
C976 C971 1.490 . S
C976 C978 1.395 . S
C976 C979 1.403 1_455 S
H977 C983 0.930 . S
C978 H964 0.930 . S
C978 C976 1.395 . S
C978 C981 1.403 . S
C979 C976 1.403 1_655 S
C979 C980 1.524 . S
C979 C983 1.400 . S
C980 H965 0.960 . S
C980 H966 0.960 . S
C980 H967 0.960 . S
C980 C979 1.524 . S
C981 C978 1.403 . S
C981 C982 1.392 1_455 S
C981 C985 1.495 . S
C982 C981 1.392 1_655 S
C982 C983 1.385 . S
C982 C984 1.478 . S
C983 H977 0.930 . S
C983 C979 1.400 . S
C983 C982 1.385 . S
C984 C982 1.478 . S
C984 C986 1.381 1_655 S
C984 C990 1.383 . S
C985 C981 1.495 . S
C985 H991 0.959 . S
C985 H992 0.961 . S
C985 H993 0.960 . S
C986 C984 1.381 1_455 S
C986 C987 1.394 1_455 S
C986 H994 0.930 . S
C987 C986 1.394 1_655 S
C987 C988 1.383 . S
C987 H995 0.929 1_655 S
C988 C987 1.383 . S
C988 C989 1.377 . S
C989 H973 0.930 . S
C989 C988 1.377 . S
C989 C990 1.379 . S
C990 H974 0.931 . S
C990 C984 1.383 . S
C990 C989 1.379 . S
H991 C985 0.959 . S
H992 C985 0.961 . S
H993 C985 0.960 . S
H994 C986 0.930 . S
H995 C987 0.929 1_455 S
H996 C1004 0.929 . S
H997 C1006 0.930 . S
H998 C1008 0.930 . S
H999 C1011 0.929 1_545 S
H1000 C1014 0.930 . S
H1001 C1016 0.960 . S
H1002 C1016 0.960 . S
H1003 C1016 0.960 . S
C1004 H996 0.929 . S
C1004 C1005 1.377 . S
C1004 C1006 1.384 . S
C1005 C1004 1.377 . S
C1005 C1011 1.390 . S
C1006 H997 0.930 . S
C1006 C1004 1.384 . S
C1006 C1007 1.372 . S
C1007 C1006 1.372 . S
C1007 C1008 1.400 1_565 S
C1007 C1012 1.490 . S
C1008 H998 0.930 . S
C1008 C1007 1.400 1_545 S
C1008 C1011 1.386 1_545 S
H1009 C1025 0.930 . S
H1010 C1026 0.931 . S
C1011 H999 0.929 1_565 S
C1011 C1005 1.390 . S
C1011 C1008 1.386 1_565 S
C1012 C1007 1.490 . S
C1012 C1014 1.395 . S
C1012 C1015 1.403 1_565 S
H1013 C1019 0.930 . S
C1014 H1000 0.930 . S
C1014 C1012 1.395 . S
C1014 C1017 1.403 1_554 S
C1015 C1012 1.403 1_545 S
C1015 C1016 1.524 . S
C1015 C1019 1.400 1_554 S
C1016 H1001 0.960 . S
C1016 H1002 0.960 . S
C1016 H1003 0.960 . S
C1016 C1015 1.524 . S
C1017 C1014 1.403 1_556 S
C1017 C1018 1.392 1_565 S
C1017 C1021 1.495 . S
C1018 C1017 1.392 1_545 S
C1018 C1019 1.385 . S
C1018 C1020 1.478 . S
C1019 H1013 0.930 . S
C1019 C1015 1.400 1_556 S
C1019 C1018 1.385 . S
C1020 C1018 1.478 . S
C1020 C1022 1.381 1_545 S
C1020 C1026 1.383 . S
C1021 C1017 1.495 . S
C1021 H1027 0.959 . S
C1021 H1028 0.961 . S
C1021 H1029 0.960 . S
C1022 C1020 1.381 1_565 S
C1022 C1023 1.394 1_565 S
C1022 H1030 0.930 . S
C1023 C1022 1.394 1_545 S
C1023 C1024 1.383 . S
C1023 H1031 0.929 1_545 S
C1024 C1023 1.383 . S
C1024 C1025 1.377 . S
C1025 H1009 0.930 . S
C1025 C1024 1.377 . S
C1025 C1026 1.379 . S
C1026 H1010 0.931 . S
C1026 C1020 1.383 . S
C1026 C1025 1.379 . S
H1027 C1021 0.959 . S
H1028 C1021 0.961 . S
H1029 C1021 0.960 . S
H1030 C1022 0.930 . S
H1031 C1023 0.929 1_565 S
C177 C162 1.719 . S
C196 C8 1.723 . S
C213 C22 1.719 . S
C232 C92 1.716 . S
C249 C36 1.717 . S
C268 C106 1.719 . S
C285 C50 1.717 . S
C304 C120 1.710 . S
C321 C134 1.717 . S
C340 C64 1.718 . S
C357 C78 1.716 . S
C376 C148 1.705 . S
C393 C51 1.132 . S
C412 C9 1.104 . S
C429 C65 1.129 . S
C448 C23 1.159 . S
C465 C79 1.132 . S
C484 C37 1.151 . S
C501 C93 1.138 . S
C520 C135 1.113 . S
C537 C107 1.138 . S
C556 C149 1.117 . S
C573 C121 1.133 . S
C592 C163 1.103 . S
C609 C119 0.343 . S
C628 C7 0.450 . S
C645 C21 0.331 . S
C664 C133 0.366 . S
C681 C147 0.369 . S
C700 C35 0.388 . S
C717 C161 0.370 . S
C736 C49 0.385 . S
C753 C91 0.332 . S
C772 C63 0.421 . S
C789 C77 0.345 . S
C808 C105 0.451 . S
C825 C129 1.664 . S
C844 C3 1.661 . S
C861 C17 1.664 . S
C880 C143 1.668 . S
C897 C157 1.663 . S
C916 C31 1.655 . S
C933 C45 1.665 . S
C952 C87 1.665 . S
C969 C59 1.663 . S
C988 C101 1.655 . S
C1005 C115 1.663 . S
C1024 C73 1.655 . S
