# Generated by pormake.
# Topology rob, (6)-cn, num edge types: 1
# Building blocks:
#     Node 0, Type 0, BuildingBlock: HISSIN_clean_sbu_0, # of connection points: 6
#     Node 1, Type 0, BuildingBlock: HISSIN_clean_sbu_0, # of connection points: 6
#     Node 2, Type 0, BuildingBlock: HISSIN_clean_sbu_0, # of connection points: 6
#     Node 3, Type 0, BuildingBlock: HISSIN_clean_sbu_0, # of connection points: 6
#     Edge 4, Type (0, 0), BuildingBlock: MIFKUJ_clean_linker_0, # of connection points: 2
#     Edge 5, Type (0, 0), BuildingBlock: MIFKUJ_clean_linker_0, # of connection points: 2
#     Edge 6, Type (0, 0), BuildingBlock: MIFKUJ_clean_linker_0, # of connection points: 2
#     Edge 7, Type (0, 0), BuildingBlock: MIFKUJ_clean_linker_0, # of connection points: 2
#     Edge 8, Type (0, 0), BuildingBlock: MIFKUJ_clean_linker_0, # of connection points: 2
#     Edge 9, Type (0, 0), BuildingBlock: MIFKUJ_clean_linker_0, # of connection points: 2
#     Edge 10, Type (0, 0), BuildingBlock: MIFKUJ_clean_linker_0, # of connection points: 2
#     Edge 11, Type (0, 0), BuildingBlock: MIFKUJ_clean_linker_0, # of connection points: 2
#     Edge 12, Type (0, 0), BuildingBlock: MIFKUJ_clean_linker_0, # of connection points: 2
#     Edge 13, Type (0, 0), BuildingBlock: MIFKUJ_clean_linker_0, # of connection points: 2
#     Edge 14, Type (0, 0), BuildingBlock: MIFKUJ_clean_linker_0, # of connection points: 2
#     Edge 15, Type (0, 0), BuildingBlock: MIFKUJ_clean_linker_0, # of connection points: 2
# Relax obj value: 0.030
# Max RMSD: 0.124
# Mean RMSD: 0.124
data_MOF--net-rob--node1-HISSIN_clean_sbu_0--edge1-MIFKUJ_clean_linker_0
_symmetry_space_group_name_H-M    P1
_symmetry_Int_Tables_number       1
_symmetry_cell_setting            triclinic
loop_
_symmetry_equiv_pos_as_xyz
'x, y, z'
_cell_length_a     19.493568
_cell_length_b     34.217843
_cell_length_c     44.814653
_cell_angle_alpha  94.531164
_cell_angle_beta   89.996439
_cell_angle_gamma 89.986774
loop_
_atom_site_label
_atom_site_type_symbol
_atom_site_fract_x
_atom_site_fract_y
_atom_site_fract_z
_atom_type_partial_charge
Eu0 Eu 0.17638 0.26751 0.04297 0.0
Eu1 Eu 0.30744 0.22433 1.0071 0.0
C2 C 0.17257 0.17738 0.02152 0.0
C3 C 0.05508 0.29473 0.10671 0.0
C4 C 0.05488 0.25749 0.11789 0.0
C5 C 0.0198 0.32335 0.15568 0.0
C6 C 0.03669 0.2532 0.14767 0.0
C7 C 0.0374 0.32755 0.12584 0.0
C8 C 0.01911 0.2861 0.16705 0.0
C9 C 0.0785 0.30007 0.07598 0.0
O10 O 0.25295 0.26016 0.97433 0.0
O11 O 0.14457 0.2621 0.99436 0.0
C12 C 0.18642 0.26462 0.9716 0.0
O13 O 0.2452 0.31438 0.02685 0.0
O14 O 0.35724 0.17322 0.98389 0.0
O15 O 0.40707 0.22978 0.98582 0.0
O16 O 0.34407 0.28015 0.03171 0.0
C17 C 0.31205 0.31359 0.03015 0.0
O18 O 0.25238 0.25337 0.0782 0.0
O19 O 0.31832 0.20488 0.05391 0.0
O20 O 0.21527 0.18503 1.00013 0.0
O21 O 0.13942 0.31536 0.07394 0.0
O22 O 0.06837 0.27092 0.05583 0.0
O23 O 0.16324 0.20258 0.04473 0.0
C24 C 0.41907 0.1895 0.94127 0.0
C25 C 0.37784 0.20968 0.9219 0.0
C26 C 0.48705 0.1639 0.89872 0.0
C27 C 0.39168 0.20745 0.8912 0.0
C28 C 0.47327 0.16629 0.92946 0.0
C29 C 0.44697 0.18485 0.87922 0.0
C30 C 0.40719 0.19384 0.9738 0.0
C31 C 0.29628 0.22428 0.07861 0.0
H32 H 0.06933 0.2317 0.1037 0.0
H33 H 0.00799 0.34948 0.16997 0.0
H34 H 0.03597 0.22401 0.1554 0.0
H35 H 0.03836 0.3566 0.11782 0.0
H36 H 0.33571 0.22779 0.93059 0.0
H37 H 0.52929 0.14569 0.89024 0.0
H38 H 0.36021 0.22435 0.87701 0.0
H39 H 0.50546 0.1504 0.94407 0.0
Eu40 Eu 0.6894 0.75681 0.02379 0.0
Eu41 Eu 0.82507 0.71774 0.98895 0.0
C42 C 0.69728 0.66656 1.00401 0.0
C43 C 0.57173 0.78769 0.08851 0.0
C44 C 0.50924 0.77429 0.09935 0.0
C45 C 0.61059 0.80208 0.13985 0.0
C46 C 0.49779 0.77423 0.13013 0.0
C47 C 0.62234 0.80173 0.10901 0.0
C48 C 0.54854 0.7878 0.15071 0.0
C49 C 0.58526 0.78336 0.05602 0.0
O50 O 0.74531 0.72551 0.95346 0.0
O51 O 0.67576 0.77327 0.97633 0.0
C52 C 0.69808 0.75279 0.95216 0.0
O53 O 0.77575 0.80036 0.0296 0.0
O54 O 0.86953 0.67075 0.95937 0.0
O55 O 0.93281 0.71984 0.97563 0.0
O56 O 0.82846 0.78274 0.98521 0.0
C57 C 0.81684 0.80856 1.0078 0.0
O58 O 0.74849 0.72606 0.05819 0.0
O59 O 0.85657 0.7259 0.03776 0.0
O60 O 0.76416 0.66871 1.00683 0.0
O61 O 0.63191 0.80601 0.04557 0.0
O62 O 0.59016 0.74733 0.04448 0.0
O63 O 0.66113 0.69827 1.00101 0.0
C64 C 0.94934 0.69406 0.92576 0.0
C65 C 0.91033 0.71733 0.90767 0.0
C66 C 0.02712 0.67882 0.88407 0.0
C67 C 0.92924 0.72107 0.87791 0.0
C68 C 0.00793 0.67495 0.91383 0.0
C69 C 0.98779 0.70177 0.86568 0.0
C70 C 0.92773 0.68895 0.95671 0.0
C71 C 0.81539 0.72345 0.06084 0.0
H72 H 0.46978 0.76302 0.08396 0.0
H73 H 0.65079 0.81239 0.1552 0.0
H74 H 0.44921 0.76342 0.13786 0.0
H75 H 0.67151 0.81162 0.10123 0.0
H76 H 0.86498 0.73244 0.91653 0.0
H77 H 0.07202 0.66321 0.8753 0.0
H78 H 0.89824 0.73933 0.86456 0.0
H79 H 0.03847 0.65675 0.92742 0.0
Eu80 Eu 0.20607 0.73017 0.49031 0.0
Eu81 Eu 0.33169 0.77896 0.52656 0.0
C82 C 0.20064 0.82202 0.50222 0.0
C83 C 0.0838 0.70006 0.42678 0.0
C84 C 0.09908 0.73363 0.41193 0.0
C85 C 0.02484 0.67244 0.38217 0.0
C86 C 0.07724 0.73662 0.38243 0.0
C87 C 0.04652 0.66955 0.41171 0.0
C88 C 0.04002 0.70599 0.36706 0.0
C89 C 0.10891 0.69603 0.45745 0.0
O90 O 0.27753 0.74605 0.56086 0.0
O91 O 0.17145 0.73868 0.53887 0.0
C92 C 0.21142 0.73946 0.56265 0.0
O93 O 0.26717 0.68406 0.51156 0.0
O94 O 0.36096 0.82794 0.55814 0.0
O95 O 0.43913 0.78873 0.53904 0.0
O96 O 0.36972 0.71716 0.51625 0.0
C97 C 0.33399 0.6845 0.51548 0.0
O98 O 0.29417 0.73441 0.4582 0.0
O99 O 0.34726 0.79037 0.47807 0.0
O100 O 0.23926 0.81826 0.52573 0.0
O101 O 0.17061 0.68176 0.45945 0.0
O102 O 0.09843 0.72585 0.47694 0.0
O103 O 0.19578 0.79347 0.48115 0.0
C104 C 0.45102 0.81276 0.58994 0.0
C105 C 0.45597 0.7758 0.60138 0.0
C106 C 0.48521 0.84335 0.63847 0.0
C107 C 0.47579 0.77266 0.63111 0.0
C108 C 0.46607 0.84645 0.60866 0.0
C109 C 0.49002 0.80643 0.65006 0.0
C110 C 0.42467 0.81681 0.55949 0.0
C111 C 0.33572 0.76418 0.45556 0.0
H112 H 0.1282 0.75746 0.42312 0.0
H113 H 0.99734 0.64799 0.37099 0.0
H114 H 0.08917 0.76309 0.37174 0.0
H115 H 0.03483 0.64326 0.42269 0.0
H116 H 0.4433 0.74939 0.58753 0.0
H117 H 0.49635 0.86985 0.65248 0.0
H118 H 0.47822 0.74386 0.6395 0.0
H119 H 0.46184 0.87524 0.60034 0.0
Eu120 Eu 0.66268 0.22475 0.5066 0.0
Eu121 Eu 0.80153 0.25913 0.54237 0.0
C122 C 0.6765 0.31428 0.52875 0.0
C123 C 0.53736 0.19567 0.44263 0.0
C124 C 0.51316 0.22793 0.42809 0.0
C125 C 0.52239 0.1546 0.39612 0.0
C126 C 0.49395 0.2236 0.39802 0.0
C127 C 0.54156 0.15891 0.42632 0.0
C128 C 0.49798 0.18688 0.38168 0.0
C129 C 0.55628 0.20024 0.47478 0.0
O130 O 0.72384 0.25062 0.57841 0.0
O131 O 0.6468 0.20808 0.55388 0.0
C132 C 0.67249 0.22572 0.57859 0.0
O133 O 0.74672 0.17984 0.49922 0.0
O134 O 0.85259 0.3058 0.56978 0.0
O135 O 0.90821 0.25248 0.55649 0.0
O136 O 0.80029 0.1937 0.54395 0.0
C137 C 0.78796 0.16962 0.52036 0.0
O138 O 0.72442 0.25616 0.47324 0.0
O139 O 0.83188 0.25071 0.49362 0.0
O140 O 0.74337 0.31069 0.5267 0.0
O141 O 0.60299 0.17675 0.48414 0.0
O142 O 0.56359 0.23599 0.4867 0.0
O143 O 0.6373 0.28337 0.52984 0.0
C144 C 0.92917 0.28228 0.60502 0.0
C145 C 0.88038 0.28181 0.62805 0.0
C146 C 0.01987 0.27721 0.64174 0.0
C147 C 0.90114 0.27948 0.6577 0.0
C148 C 0.99899 0.27977 0.61206 0.0
C149 C 0.9712 0.27722 0.66499 0.0
C150 C 0.90753 0.28504 0.57371 0.0
C151 C 0.7916 0.2562 0.47079 0.0
H152 H 0.50889 0.25667 0.43992 0.0
H153 H 0.52557 0.12585 0.38422 0.0
H154 H 0.47653 0.24923 0.38747 0.0
H155 H 0.55933 0.13341 0.43695 0.0
H156 H 0.82609 0.28356 0.62316 0.0
H157 H 0.07415 0.27485 0.6464 0.0
H158 H 0.86216 0.28013 0.67495 0.0
H159 H 0.0374 0.27975 0.59458 0.0
H160 H 0.56029 0.65262 0.9974 0.0
H161 H 0.49906 0.59171 1.00337 0.0
H162 H 0.69007 0.53414 0.02093 0.0
H163 H 0.75235 0.59518 0.01465 0.0
H164 H 0.60623 0.48854 0.98341 0.0
H165 H 0.58692 0.56327 0.07791 0.0
H166 H 0.56146 0.62204 0.11151 0.0
H167 H 0.35106 0.618 0.08309 0.0
H168 H 0.37551 0.55957 0.04891 0.0
H169 H 0.45006 0.32229 0.03865 0.0
H170 H 0.518 0.3818 0.03608 0.0
H171 H 0.33438 0.44701 0.01939 0.0
H172 H 0.26563 0.38762 0.02235 0.0
H173 H 0.41896 0.48793 0.05845 0.0
H174 H 0.43915 0.41533 0.96248 0.0
H175 H 0.46438 0.35723 0.92814 0.0
H176 H 0.67296 0.35773 0.95897 0.0
H177 H 0.64865 0.41549 0.99389 0.0
C178 C 0.58955 0.62702 1.00239 0.0
C179 C 0.66124 0.62882 1.00575 0.0
C180 C 0.55433 0.59226 1.00592 0.0
C181 C 0.58992 0.55865 1.0131 0.0
C182 C 0.66169 0.55988 0.01554 0.0
C183 C 0.69713 0.59475 1.01197 0.0
C184 C 0.55168 0.52245 0.01831 0.0
C185 C 0.56606 0.48818 1.00015 0.0
C186 C 0.49835 0.52236 0.03976 0.0
C187 C 0.48322 0.5572 0.06064 0.0
C188 C 0.53532 0.57506 0.07866 0.0
C189 C 0.52106 0.60831 0.09783 0.0
C190 C 0.45473 0.6238 0.09938 0.0
C191 C 0.40245 0.606 0.08183 0.0
C192 C 0.41647 0.57279 0.06257 0.0
C193 C 0.42394 0.34931 0.0346 0.0
C194 C 0.35243 0.35017 0.03047 0.0
C195 C 0.46294 0.38327 0.03305 0.0
C196 C 0.43134 0.41865 0.02709 0.0
C197 C 0.35976 0.41993 0.02393 0.0
C198 C 0.32059 0.38596 0.02556 0.0
C199 C 0.47314 0.45408 0.02338 0.0
C200 C 0.45942 0.48822 0.04184 0.0
C201 C 0.52703 0.45406 1.00218 0.0
C202 C 0.54187 0.41949 0.98104 0.0
C203 C 0.49025 0.40287 0.96212 0.0
C204 C 0.5044 0.37002 0.94253 0.0
C205 C 0.57018 0.35373 0.94144 0.0
C206 C 0.622 0.37033 0.95989 0.0
C207 C 0.60806 0.40313 0.97958 0.0
H208 H 0.58104 0.3283 0.92625 0.0
H209 H 0.44381 0.64957 0.11422 0.0
H210 H 0.46772 0.67448 0.53168 0.0
H211 H 0.52844 0.61279 0.5361 0.0
H212 H 0.34432 0.54846 0.51088 0.0
H213 H 0.28272 0.61003 0.50702 0.0
H214 H 0.40563 0.51729 0.55595 0.0
H215 H 0.47609 0.55907 0.46083 0.0
H216 H 0.52381 0.605 0.42653 0.0
H217 H 0.71514 0.60719 0.47411 0.0
H218 H 0.66819 0.56167 0.50898 0.0
H219 H 0.54318 0.33034 0.51669 0.0
H220 H 0.4888 0.39433 0.51606 0.0
H221 H 0.68089 0.45062 0.54081 0.0
H222 H 0.73655 0.3863 0.54037 0.0
H223 H 0.61952 0.4875 0.49855 0.0
H224 H 0.54651 0.4406 0.59218 0.0
H225 H 0.49573 0.39232 0.62376 0.0
H226 H 0.30493 0.39806 0.57641 0.0
H227 H 0.35489 0.44587 0.54423 0.0
C228 C 0.44006 0.64722 0.52707 0.0
C229 C 0.37043 0.64717 0.51881 0.0
C230 C 0.47496 0.61197 0.52953 0.0
C231 C 0.4412 0.57601 0.52339 0.0
C232 C 0.37141 0.57589 0.51567 0.0
C233 C 0.33631 0.61112 0.51342 0.0
C234 C 0.47852 0.53845 0.52492 0.0
C235 C 0.45206 0.51062 0.54319 0.0
C236 C 0.5399 0.5301 0.50875 0.0
C237 C 0.56838 0.55729 0.48771 0.0
C238 C 0.52817 0.56958 0.46412 0.0
C239 C 0.5551 0.5955 0.44455 0.0
C240 C 0.6224 0.60909 0.44819 0.0
C241 C 0.66298 0.59669 0.47135 0.0
C242 C 0.63625 0.57081 0.49101 0.0
C243 C 0.57391 0.3563 0.52215 0.0
C244 C 0.64405 0.3533 0.52885 0.0
C245 C 0.54262 0.39291 0.52189 0.0
C246 C 0.58035 0.4273 0.52905 0.0
C247 C 0.65068 0.42445 0.5354 0.0
C248 C 0.68237 0.38773 0.5352 0.0
C249 C 0.54634 0.46616 0.52943 0.0
C250 C 0.57345 0.49428 0.51154 0.0
C251 C 0.48515 0.47464 0.54574 0.0
C252 C 0.45464 0.44664 0.56566 0.0
C253 C 0.49382 0.43145 0.58843 0.0
C254 C 0.46516 0.40415 0.60643 0.0
C255 C 0.39717 0.39207 0.60204 0.0
C256 C 0.35759 0.40742 0.57976 0.0
C257 C 0.38603 0.43465 0.56166 0.0
H258 H 0.37501 0.37081 0.61585 0.0
H259 H 0.64316 0.62917 0.43302 0.0
H260 H 0.0712 0.15492 0.05864 0.0
H261 H 0.00871 0.09294 0.05545 0.0
H262 H 0.12498 0.05305 0.97695 0.0
H263 H 0.18686 0.11537 0.97957 0.0
H264 H 0.99233 0.03482 0.96979 0.0
H265 H 0.16297 0.02134 0.04547 0.0
H266 H 0.22685 0.04069 0.09178 0.0
H267 H 0.0414 0.03547 0.14303 0.0
H268 H 0.9762 0.01662 0.09693 0.0
H269 H 0.91441 0.83258 0.96952 0.0
H270 H 0.97271 0.8958 0.97158 0.0
H271 H 0.85525 0.93522 0.04985 0.0
H272 H 0.7976 0.87164 0.04838 0.0
H273 H 0.98761 0.95392 0.05693 0.0
H274 H 0.81743 0.96613 0.98045 0.0
H275 H 0.75566 0.94526 0.93386 0.0
H276 H 0.94256 0.95146 0.88376 0.0
H277 H 0.00567 0.97189 0.93012 0.0
C278 C 0.08355 0.133 0.04067 0.0
C279 C 0.13431 0.13998 0.01945 0.0
C280 C 0.04787 0.09753 0.03894 0.0
C281 C 0.06286 0.06818 0.0162 0.0
C282 C 0.1127 0.0753 0.9947 0.0
C283 C 0.14815 0.11088 0.9963 0.0
C284 C 0.02692 0.02993 0.01501 0.0
C285 C 0.99195 0.01689 0.98871 0.0
C286 C 0.0254 0.00692 0.03991 0.0
C287 C 0.0646 0.01793 0.0677 0.0
C288 C 0.13572 0.02459 0.06658 0.0
C289 C 0.17218 0.03543 0.0928 0.0
C290 C 0.13817 0.03941 0.12032 0.0
C291 C 0.06766 0.03243 0.12169 0.0
C292 C 0.03094 0.02163 0.09553 0.0
C293 C 0.90074 0.8547 0.98714 0.0
C294 C 0.85119 0.84712 1.00875 0.0
C295 C 0.93397 0.8909 0.9882 0.0
C296 C 0.91765 0.9204 1.01063 0.0
C297 C 0.86848 0.91287 0.03232 0.0
C298 C 0.83549 0.87656 0.0314 0.0
C299 C 0.9528 0.95887 1.01176 0.0
C300 C 0.98776 0.97191 0.03804 0.0
C301 C 0.95451 0.98177 0.9868 0.0
C302 C 0.91638 0.97025 0.95881 0.0
C303 C 0.84544 0.96285 0.95952 0.0
C304 C 0.81018 0.95112 0.93315 0.0
C305 C 0.84519 0.94696 0.90588 0.0
C306 C 0.91551 0.95467 0.90491 0.0
C307 C 0.95103 0.96638 0.93121 0.0
H308 H 0.81782 0.93783 0.8855 0.0
H309 H 0.16648 0.04782 0.14059 0.0
H310 H 0.88234 0.14128 0.55815 0.0
H311 H 0.94973 0.08131 0.55039 0.0
H312 H 0.84623 0.05246 0.46648 0.0
H313 H 0.77788 0.1125 0.47412 0.0
H314 H 0.86236 0.98816 0.49939 0.0
H315 H 0.00168 0.08956 0.46476 0.0
H316 H 0.05833 0.15414 0.46723 0.0
H317 H 0.17514 0.12436 0.54345 0.0
H318 H 0.11834 0.0598 0.54174 0.0
H319 H 0.10965 0.83883 0.45836 0.0
H320 H 0.03789 0.89734 0.45687 0.0
H321 H 0.12565 0.94462 0.54044 0.0
H322 H 0.1981 0.88671 0.54192 0.0
H323 H 0.11617 -0.00031 0.501 0.0
H324 H 0.96825 0.89999 0.53744 0.0
H325 H 0.91028 0.83575 0.53455 0.0
H326 H 0.80949 0.86251 0.45343 0.0
H327 H 0.86766 0.92674 0.45563 0.0
C328 C 0.87341 0.12213 0.53812 0.0
C329 C 0.82502 0.13183 0.51665 0.0
C330 C 0.91221 0.08792 0.53367 0.0
C331 C 0.90366 0.06281 0.50764 0.0
C332 C 0.85375 0.0716 0.48664 0.0
C333 C 0.81489 0.10593 0.49104 0.0
C334 C 0.94818 0.0279 0.50227 0.0
C335 C 0.91785 0.99063 0.49922 0.0
C336 C 0.02053 0.03125 0.50228 0.0
C337 C 0.05531 0.06993 0.50326 0.0
C338 C 0.03907 0.09688 0.48219 0.0
C339 C 0.07126 0.13347 0.48343 0.0
C340 C 0.12021 0.14337 0.50552 0.0
C341 C 0.13717 0.11666 0.52636 0.0
C342 C 0.10504 0.08004 0.52525 0.0
C343 C 0.11397 0.86179 0.47634 0.0
C344 C 0.15941 0.85803 0.50034 0.0
C345 C 0.0727 0.89511 0.4755 0.0
C346 C 0.0759 0.9251 0.49872 0.0
C347 C 0.12233 0.9218 0.5223 0.0
C348 C 0.16359 0.88859 0.52315 0.0
C349 C 0.03046 0.95985 0.49891 0.0
C350 C 0.06068 -0.00283 0.50088 0.0
C351 C 0.95807 0.9565 0.49776 0.0
C352 C 0.92291 0.91797 0.49651 0.0
C353 C 0.93416 0.89204 0.51886 0.0
C354 C 0.9012 0.85566 0.51737 0.0
C355 C 0.8564 0.845 0.49377 0.0
C356 C 0.84432 0.87077 0.47166 0.0
C357 C 0.87724 0.90717 0.47302 0.0
H358 H 0.83092 0.81683 0.49266 0.0
H359 H 0.14508 0.17172 0.50645 0.0
H360 H 0.38682 0.21965 0.35601 0.0
H361 H 0.3565 0.21671 0.3031 0.0
H362 H 0.53 0.14126 0.28184 0.0
H363 H 0.56201 0.14512 0.33486 0.0
H364 H 0.52285 0.19826 0.24449 0.0
H365 H 0.36599 0.10585 0.28018 0.0
H366 H 0.27675 0.08053 0.3125 0.0
H367 H 0.13577 0.16791 0.28622 0.0
H368 H 0.22472 0.19457 0.25444 0.0
H369 H 0.40202 0.17472 0.09166 0.0
H370 H 0.44048 0.15895 0.14157 0.0
H371 H 0.28308 0.23423 0.18213 0.0
H372 H 0.24429 0.24973 0.133 0.0
H373 H 0.28828 0.16593 0.20747 0.0
H374 H 0.44823 0.26447 0.17911 0.0
H375 H 0.53616 0.29198 0.1472 0.0
H376 H 0.66862 0.19435 0.1598 0.0
H377 H 0.58097 0.16597 0.19147 0.0
C378 C 0.41864 0.20244 0.34011 0.0
C379 C 0.47692 0.18265 0.34968 0.0
C380 C 0.40082 0.20046 0.30987 0.0
C381 C 0.44047 0.17834 0.2885 0.0
C382 C 0.49843 0.1583 0.29796 0.0
C383 C 0.51629 0.16024 0.32828 0.0
C384 C 0.42268 0.17766 0.25623 0.0
C385 C 0.47196 0.19037 0.23627 0.0
C386 C 0.3559 0.16803 0.24558 0.0
C387 C 0.30239 0.15241 0.26506 0.0
C388 C 0.31625 0.11999 0.28155 0.0
C389 C 0.26567 0.1054 0.29979 0.0
C390 C 0.20072 0.12271 0.30151 0.0
C391 C 0.18618 0.15462 0.28495 0.0
C392 C 0.23671 0.16951 0.26684 0.0
C393 C 0.37563 0.18779 0.11124 0.0
C394 C 0.32043 0.21369 0.10829 0.0
C395 C 0.39775 0.17886 0.13971 0.0
C396 C 0.36482 0.1956 0.16557 0.0
C397 C 0.3092 0.22092 0.16253 0.0
C398 C 0.28738 0.22994 0.13431 0.0
C399 C 0.38779 0.18752 0.19605 0.0
C400 C 0.33948 0.17313 0.21565 0.0
C401 C 0.45515 0.19589 0.20641 0.0
C402 C 0.50769 0.21283 0.18729 0.0
C403 C 0.49583 0.24867 0.17483 0.0
C404 C 0.54566 0.26446 0.15684 0.0
C405 C 0.60783 0.24485 0.15138 0.0
C406 C 0.62036 0.20945 0.16398 0.0
C407 C 0.57063 0.1935 0.18194 0.0
H408 H 0.64638 0.25714 0.13747 0.0
H409 H 0.16159 0.11131 0.31559 0.0
H410 H 0.49904 0.72645 0.17943 0.0
H411 H 0.47325 0.72465 0.23265 0.0
H412 H 0.54536 0.84362 0.24899 0.0
H413 H 0.57265 0.84525 0.19564 0.0
H414 H 0.58346 0.80067 0.29369 0.0
H415 H 0.3739 0.82302 0.24205 0.0
H416 H 0.28519 0.81009 0.20331 0.0
H417 H 0.24455 0.69772 0.23589 0.0
H418 H 0.33398 0.70965 0.27452 0.0
H419 H 0.40679 0.82699 0.43607 0.0
H420 H 0.45333 0.83333 0.38578 0.0
H421 H 0.38729 0.71553 0.35867 0.0
H422 H 0.33997 0.70924 0.40823 0.0
H423 H 0.34605 0.76391 0.31979 0.0
H424 H 0.56014 0.73993 0.36964 0.0
H425 H 0.65105 0.75219 0.40751 0.0
H426 H 0.68205 0.86763 0.37873 0.0
H427 H 0.59074 0.85619 0.3409 0.0
C428 C 0.5094 0.75223 0.19437 0.0
C429 C 0.53684 0.78621 0.18333 0.0
C430 C 0.49472 0.75117 0.22478 0.0
C431 C 0.5059 0.78431 0.24474 0.0
C432 C 0.53596 0.81777 0.234 0.0
C433 C 0.55143 0.8187 0.20354 0.0
C434 C 0.48346 0.78437 0.27646 0.0
C435 C 0.53135 0.79309 0.29945 0.0
C436 C 0.41556 0.77419 0.284 0.0
C437 C 0.36114 0.7671 0.26101 0.0
C438 C 0.34641 0.79544 0.24083 0.0
C439 C 0.29598 0.78829 0.2189 0.0
C440 C 0.25945 0.75307 0.21709 0.0
C441 C 0.27303 0.72496 0.23729 0.0
C442 C 0.32357 0.73191 0.25922 0.0
C443 C 0.40286 0.80234 0.41945 0.0
C444 C 0.36912 0.76774 0.42614 0.0
C445 C 0.42975 0.80594 0.39075 0.0
C446 C 0.42394 0.77486 0.3684 0.0
C447 C 0.39209 0.73999 0.37543 0.0
C448 C 0.36499 0.73647 0.40387 0.0
C449 C 0.44651 0.77903 0.33711 0.0
C450 C 0.39827 0.77145 0.31412 0.0
C451 C 0.51393 0.79026 0.32968 0.0
C452 C 0.56808 0.79736 0.35269 0.0
C453 C 0.58588 0.76806 0.37159 0.0
C454 C 0.6376 0.77483 0.39299 0.0
C455 C 0.67216 0.81072 0.39559 0.0
C456 C 0.65512 0.83989 0.37676 0.0
C457 C 0.6034 0.83328 0.35533 0.0
H458 H 0.71224 0.81588 0.41215 0.0
H459 H 0.2206 0.74759 0.20005 0.0
H460 H 0.73501 0.71673 0.89807 0.0
H461 H 0.69366 0.72983 0.84869 0.0
H462 H 0.55727 0.81869 0.88818 0.0
H463 H 0.59825 0.80554 0.93825 0.0
H464 H 0.49565 0.77109 0.8418 0.0
H465 H 0.6999 0.84737 0.85704 0.0
H466 H 0.82074 0.85878 0.87153 0.0
H467 H 0.88535 0.7737 0.80173 0.0
H468 H 0.7651 0.76121 0.78711 0.0
H469 H 0.43993 0.84914 0.6995 0.0
H470 H 0.47038 0.84328 0.75205 0.0
H471 H 0.6125 0.75052 0.72508 0.0
H472 H 0.58238 0.7563 0.67253 0.0
H473 H 0.66763 0.80649 0.76679 0.0
H474 H 0.46367 0.7283 0.75306 0.0
H475 H 0.34316 0.71564 0.73888 0.0
H476 H 0.27701 0.8041 0.80601 0.0
H477 H 0.39748 0.81793 0.82018 0.0
C478 C 0.69602 0.73902 0.89648 0.0
C479 C 0.67029 0.76025 0.92227 0.0
C480 C 0.67251 0.74651 0.86811 0.0
C481 C 0.62299 0.77557 0.8647 0.0
C482 C 0.59566 0.7962 0.89033 0.0
C483 C 0.61932 0.78873 0.9189 0.0
C484 C 0.60177 0.7847 0.83417 0.0
C485 C 0.53291 0.77959 0.82553 0.0
C486 C 0.65066 0.79516 0.81283 0.0
C487 C 0.72335 0.80314 0.82113 0.0
C488 C 0.73989 0.83089 0.8449 0.0
C489 C 0.80834 0.83754 0.85314 0.0
C490 C 0.86074 0.81679 0.83765 0.0
C491 C 0.84476 0.78947 0.81386 0.0
C492 C 0.77649 0.78271 0.8055 0.0
C493 C 0.47795 0.82766 0.70479 0.0
C494 C 0.5088 0.80316 0.68191 0.0
C495 C 0.49496 0.82419 0.7348 0.0
C496 C 0.54344 0.79633 0.74247 0.0
C497 C 0.57491 0.77218 0.71965 0.0
C498 C 0.55738 0.77534 0.68968 0.0
C499 C 0.56169 0.79233 0.77425 0.0
C500 C 0.63012 0.79846 0.78312 0.0
C501 C 0.51228 0.78293 0.79575 0.0
C502 C 0.43973 0.77451 0.78742 0.0
C503 C 0.42351 0.74535 0.76461 0.0
C504 C 0.35516 0.7379 0.75661 0.0
C505 C 0.3024 0.75911 0.77148 0.0
C506 C 0.31794 0.78775 0.79446 0.0
C507 C 0.38627 0.79542 0.80248 0.0
H508 H 0.24952 0.7533 0.76523 0.0
H509 H 0.91373 0.82195 0.84401 0.0
H510 H 0.54062 0.20483 0.59168 0.0
H511 H 0.4933 0.19405 0.64128 0.0
H512 H 0.69236 0.21641 0.68093 0.0
H513 H 0.73938 0.22811 0.63186 0.0
H514 H 0.62066 0.14607 0.69829 0.0
H515 H 0.59125 0.28529 0.69111 0.0
H516 H 0.54981 0.34537 0.66998 0.0
H517 H 0.34183 0.30556 0.67639 0.0
H518 H 0.38226 0.24487 0.69698 0.0
H519 H 0.57448 0.18609 0.8537 0.0
H520 H 0.60329 0.18707 0.80083 0.0
H521 H 0.38828 0.18467 0.77813 0.0
H522 H 0.35877 0.18318 0.83114 0.0
H523 H 0.4571 0.23991 0.74967 0.0
H524 H 0.48512 0.10398 0.76259 0.0
H525 H 0.52666 0.04607 0.7866 0.0
H526 H 0.73501 0.0787 0.76991 0.0
H527 H 0.69476 0.13717 0.74617 0.0
C528 C 0.5742 0.20728 0.61099 0.0
C529 C 0.64358 0.21745 0.60795 0.0
C530 C 0.54712 0.20126 0.63925 0.0
C531 C 0.58942 0.20451 0.66469 0.0
C532 C 0.65895 0.21377 0.66155 0.0
C533 C 0.68561 0.22061 0.63353 0.0
C534 C 0.56162 0.19864 0.69478 0.0
C535 C 0.58495 0.16657 0.7096 0.0
C536 C 0.51381 0.2249 0.70914 0.0
C537 C 0.48978 0.26036 0.69529 0.0
C538 C 0.53678 0.28905 0.68755 0.0
C539 C 0.51348 0.32327 0.67577 0.0
C540 C 0.44326 0.32926 0.67187 0.0
C541 C 0.39622 0.30087 0.67943 0.0
C542 C 0.41929 0.26655 0.69114 0.0
C543 C 0.53318 0.18506 0.83749 0.0
C544 C 0.46426 0.18429 0.84677 0.0
C545 C 0.54979 0.18574 0.80722 0.0
C546 C 0.49798 0.18551 0.78545 0.0
C547 C 0.42909 0.18487 0.79454 0.0
C548 C 0.41236 0.18413 0.82488 0.0
C549 C 0.51619 0.18735 0.75339 0.0
C550 C 0.49137 0.21877 0.73818 0.0
C551 C 0.56237 0.16034 0.73862 0.0
C552 C 0.58689 0.12514 0.75279 0.0
C553 C 0.53982 0.09898 0.76424 0.0
C554 C 0.56313 0.06602 0.77777 0.0
C555 C 0.63343 0.05875 0.77983 0.0
C556 C 0.68057 0.08439 0.76831 0.0
C557 C 0.65753 0.11742 0.75478 0.0
H558 H 0.65138 0.03321 0.79031 0.0
H559 H 0.42528 0.35605 0.66324 0.0
H560 H 0.94356 0.74337 0.08249 0.0
H561 H 0.9848 0.74128 0.13399 0.0
H562 H 0.79275 0.68994 0.1587 0.0
H563 H 0.75051 0.69366 0.10782 0.0
H564 H 0.82317 0.74317 0.19904 0.0
H565 H 0.95393 0.63733 0.14937 0.0
H566 H 0.03396 0.6065 0.11189 0.0
H567 H 0.19262 0.68657 0.14327 0.0
H568 H 0.11308 0.71821 0.18062 0.0
H569 H 0.91909 0.68074 0.34048 0.0
H570 H 0.88433 0.68381 0.2884 0.0
H571 H 0.07417 0.7419 0.26976 0.0
H572 H 0.11077 0.73724 0.32149 0.0
H573 H 0.04751 0.68797 0.22653 0.0
H574 H 0.91593 0.79094 0.27846 0.0
H575 H 0.83502 0.82023 0.3162 0.0
H576 H 0.67537 0.7437 0.2806 0.0
H577 H 0.7556 0.71345 0.24297 0.0
C578 C 0.91056 0.73121 0.09886 0.0
C579 C 0.84384 0.71864 0.09105 0.0
C580 C 0.93422 0.72991 0.12834 0.0
C581 C 0.89227 0.71506 0.1504 0.0
C582 C 0.82619 0.70171 0.1423 0.0
C583 C 0.80215 0.70369 0.11309 0.0
C584 C 0.91551 0.71468 0.18217 0.0
C585 C 0.87185 0.73054 0.20501 0.0
C586 C 0.97989 0.69931 0.19017 0.0
C587 C 0.02745 0.68035 0.1676 0.0
C588 C 0.00572 0.64854 0.14811 0.0
C589 C 0.051 0.63089 0.12691 0.0
C590 C 0.11829 0.64462 0.12514 0.0
C591 C 0.14048 0.67598 0.14462 0.0
C592 C 0.09536 0.69376 0.16581 0.0
C593 C 0.95382 0.69389 0.3253 0.0
C594 C 0.0178 0.7088 0.33537 0.0
C595 C 0.93343 0.69608 0.29552 0.0
C596 C 0.97605 0.71368 0.27513 0.0
C597 C 0.04008 0.72841 0.28504 0.0
C598 C 0.06068 0.72605 0.31478 0.0
C599 C 0.95468 0.71588 0.24333 0.0
C600 C 0.99879 0.70053 0.22052 0.0
C601 C 0.89041 0.73142 0.23537 0.0
C602 C 0.8421 0.74961 0.25808 0.0
C603 C 0.86377 0.78009 0.27884 0.0
C604 C 0.81798 0.79691 0.30019 0.0
C605 C 0.75019 0.78374 0.30085 0.0
C606 C 0.72795 0.75381 0.28011 0.0
C607 C 0.77356 0.73682 0.25876 0.0
H608 H 0.71489 0.79677 0.31739 0.0
H609 H 0.15326 0.63091 0.10873 0.0
H610 H 0.74784 0.30418 0.42916 0.0
H611 H 0.79301 0.30905 0.37873 0.0
H612 H 0.94527 0.22118 0.39418 0.0
H613 H 0.90317 0.21862 0.44553 0.0
H614 H 0.00105 0.27004 0.36266 0.0
H615 H 0.78362 0.20332 0.35355 0.0
H616 H 0.65921 0.19505 0.36123 0.0
H617 H 0.61885 0.29789 0.31507 0.0
H618 H 0.74288 0.30723 0.30761 0.0
H619 H 0.0726 0.23507 0.20568 0.0
H620 H 0.03872 0.22739 0.25738 0.0
H621 H 0.89118 0.32075 0.25288 0.0
H622 H 0.92148 0.32689 0.20078 0.0
H623 H 0.8356 0.26341 0.2784 0.0
H624 H 0.05503 0.33 0.28864 0.0
H625 H 0.17947 0.33688 0.2806 0.0
H626 H 0.21653 0.23147 0.32405 0.0
H627 H 0.09215 0.22343 0.33173 0.0
C628 C 0.7914 0.28623 0.42182 0.0
C629 C 0.82189 0.26091 0.4411 0.0
C630 C 0.81683 0.28869 0.39287 0.0
C631 C 0.87126 0.2645 0.38208 0.0
C632 C 0.903 0.23998 0.40175 0.0
C633 C 0.87895 0.2385 0.43109 0.0
C634 C 0.8944 0.26449 0.3503 0.0
C635 C 0.96484 0.26802 0.34423 0.0
C636 C 0.84741 0.2622 0.32605 0.0
C637 C 0.77266 0.25614 0.33022 0.0
C638 C 0.74823 0.22427 0.34517 0.0
C639 C 0.67776 0.21941 0.34949 0.0
C640 C 0.63126 0.246 0.33869 0.0
C641 C 0.65499 0.27737 0.32345 0.0
C642 C 0.72532 0.28246 0.31917 0.0
C643 C 0.03233 0.25368 0.21553 0.0
C644 C 0.99992 0.28169 0.19888 0.0
C645 C 0.01367 0.2496 0.24532 0.0
C646 C 0.96301 0.27387 0.25929 0.0
C647 C 0.93061 0.30175 0.24271 0.0
C648 C 0.9486 0.30553 0.21291 0.0
C649 C 0.94186 0.26991 0.29087 0.0
C650 C 0.87177 0.2653 0.29686 0.0
C651 C 0.98924 0.27083 0.31491 0.0
C652 C 0.06411 0.27587 0.31042 0.0
C653 C 0.08962 0.30808 0.29623 0.0
C654 C 0.16018 0.31218 0.29174 0.0
C655 C 0.20583 0.2845 0.30167 0.0
C656 C 0.18107 0.25279 0.31626 0.0
C657 C 0.11054 0.24843 0.32066 0.0
H658 H 0.26042 0.2877 0.29816 0.0
H659 H 0.57682 0.2424 0.34208 0.0
H660 H 0.0826 0.3126 0.69328 0.0
H661 H 0.11717 0.31042 0.74552 0.0
H662 H 0.94356 0.23679 0.76131 0.0
H663 H 0.9095 0.23784 0.7089 0.0
H664 H 0.95788 0.29836 0.80482 0.0
H665 H 0.10013 0.19704 0.75619 0.0
H666 H 0.18489 0.16867 0.71978 0.0
H667 H 0.33431 0.25337 0.75311 0.0
H668 H 0.25043 0.28235 0.78958 0.0
H669 H 0.05967 0.24477 0.94908 0.0
H670 H 0.02015 0.24794 0.89751 0.0
H671 H 0.21115 0.30251 0.87517 0.0
H672 H 0.25199 0.29741 0.92616 0.0
H673 H 0.18559 0.24974 0.83449 0.0
H674 H 0.04706 0.35237 0.88254 0.0
H675 H 0.96462 0.38223 0.91937 0.0
H676 H 0.81043 0.29971 0.88729 0.0
H677 H 0.89223 0.26903 0.85051 0.0
C678 C 0.05226 0.29539 0.70768 0.0
C679 C 0.9932 0.27536 0.69674 0.0
C680 C 0.07198 0.29435 0.73761 0.0
C681 C 0.0331 0.2733 0.75728 0.0
C682 C 0.97414 0.25334 0.74654 0.0
C683 C 0.95461 0.25414 0.71657 0.0
C684 C 0.05337 0.27263 0.78917 0.0
C685 C 0.00735 0.28733 0.81141 0.0
C686 C 0.11857 0.25919 0.79767 0.0
C687 C 0.16876 0.24209 0.77542 0.0
C688 C 0.15089 0.20982 0.75557 0.0
C689 C 0.19888 0.19354 0.73498 0.0
C690 C 0.26499 0.20918 0.73412 0.0
C691 C 0.2832 0.2412 0.7538 0.0
C692 C 0.23549 0.25753 0.77447 0.0
C693 C 0.0927 0.25796 0.93323 0.0
C694 C 0.15882 0.2709 0.94163 0.0
C695 C 0.07001 0.25991 0.90374 0.0
C696 C 0.11226 0.27589 0.88233 0.0
C697 C 0.17755 0.28991 0.8911 0.0
C698 C 0.20078 0.28715 0.92033 0.0
C699 C 0.09053 0.27606 0.85044 0.0
C700 C 0.13617 0.26105 0.8281 0.0
C701 C 0.02531 0.28972 0.84188 0.0
C702 C 0.97601 0.30817 0.86396 0.0
C703 C 0.99573 0.34041 0.88349 0.0
C704 C 0.94909 0.35751 0.90433 0.0
C705 C 0.88239 0.34281 0.90572 0.0
C706 C 0.86214 0.31103 0.88622 0.0
C707 C 0.9086 0.2938 0.86535 0.0
H708 H 0.84635 0.35609 0.92187 0.0
H709 H 0.30214 0.1964 0.71826 0.0
H710 H 0.28177 0.73603 0.61498 0.0
H711 H 0.2366 0.72742 0.66453 0.0
H712 H 0.03126 0.71966 0.62876 0.0
H713 H 0.07626 0.72881 0.57856 0.0
H714 H 0.03811 0.76747 0.68085 0.0
H715 H 0.11247 0.63829 0.6478 0.0
H716 H 0.19298 0.58808 0.62634 0.0
H717 H 0.33373 0.6161 0.69857 0.0
H718 H 0.2544 0.66681 0.72028 0.0
H719 H 0.90347 0.70019 0.81665 0.0
H720 H 0.93558 0.70635 0.76444 0.0
H721 H 0.1484 0.7162 0.79017 0.0
H722 H 0.11656 0.71095 0.84252 0.0
H723 H 0.1298 0.66417 0.7416 0.0
H724 H 0.065 0.79707 0.77118 0.0
H725 H 0.99135 0.85157 0.79133 0.0
H726 H 0.83639 0.81773 0.72626 0.0
H727 H 0.9092 0.76299 0.70572 0.0
C728 C 0.22692 0.73233 0.6174 0.0
C729 C 0.18267 0.73295 0.59259 0.0
C730 C 0.2012 0.72725 0.64588 0.0
C731 C 0.13063 0.72234 0.65037 0.0
C732 C 0.08598 0.72321 0.62579 0.0
C733 C 0.11179 0.72829 0.5971 0.0
C734 C 0.10422 0.71708 0.68096 0.0
C735 C 0.057 0.74437 0.69392 0.0
C736 C 0.1303 0.68756 0.69833 0.0
C737 C 0.17776 0.65668 0.68551 0.0
C738 C 0.16081 0.63396 0.659 0.0
C739 C 0.20619 0.60535 0.6468 0.0
C740 C 0.26852 0.59898 0.66103 0.0
C741 C 0.28548 0.6211 0.68754 0.0
C742 C 0.24029 0.64976 0.69982 0.0
C743 C 0.95706 0.70417 0.81127 0.0
C744 C 0.00738 0.7053 0.83384 0.0
C745 C 0.97533 0.70761 0.78138 0.0
C746 C 0.04435 0.71209 0.77339 0.0
C747 C 0.0948 0.71282 0.7958 0.0
C748 C 0.07653 0.70961 0.82571 0.0
C749 C 0.06426 0.71481 0.74158 0.0
C750 C 0.11026 0.68699 0.7284 0.0
C751 C 0.03727 0.74389 0.72408 0.0
C752 C 0.99227 0.77576 0.73709 0.0
C753 C 0.01498 0.80106 0.76134 0.0
C754 C 0.97362 0.83217 0.77267 0.0
C755 C 0.90941 0.83824 0.75996 0.0
C756 C 0.88629 0.81311 0.73598 0.0
C757 C 0.92762 0.78209 0.72444 0.0
H758 H 0.87735 0.86224 0.76886 0.0
H759 H 0.3036 0.57683 0.65154 0.0
loop_
_geom_bond_atom_site_label_1
_geom_bond_atom_site_label_2
_geom_bond_distance
_geom_bond_site_symmetry_2
_ccdc_geom_bond_type
Eu0 C9 2.828 . S
Eu0 O11 2.392 1_554 S
Eu0 O13 2.418 . S
Eu0 O18 2.373 . S
Eu0 O21 2.488 . S
Eu0 O22 2.471 . S
Eu0 O23 2.349 . S
Eu1 O10 2.373 . S
Eu1 O14 2.488 . S
Eu1 O15 2.471 . S
Eu1 O16 2.349 . S
Eu1 O19 2.392 1_556 S
Eu1 O20 2.418 . S
Eu1 C30 2.828 . S
C2 O20 1.244 . S
C2 O23 1.265 1_556 S
C3 C4 1.379 . S
C3 C7 1.373 . S
C3 C9 1.505 . S
C4 C3 1.379 . S
C4 C6 1.369 . S
C4 H32 0.930 . S
C5 C7 1.383 . S
C5 C8 1.382 . S
C5 H33 0.930 . S
C6 C4 1.369 . S
C6 C8 1.392 . S
C6 H34 0.930 . S
C7 C3 1.373 . S
C7 C5 1.383 . S
C7 H35 0.931 . S
C8 C5 1.382 . S
C8 C6 1.392 . S
C9 Eu0 2.828 . S
C9 C3 1.505 . S
C9 O21 1.249 . S
C9 O22 1.244 . S
O10 Eu1 2.373 . S
O10 C12 1.258 . S
O11 Eu0 2.392 1_556 S
O11 C12 1.242 . S
C12 O10 1.258 . S
C12 O11 1.242 . S
O13 Eu0 2.418 . S
O13 C17 1.244 . S
O14 Eu1 2.488 . S
O14 C30 1.249 . S
O15 Eu1 2.471 . S
O15 C30 1.244 . S
O16 Eu1 2.349 . S
O16 C17 1.265 1_556 S
C17 O13 1.244 . S
C17 O16 1.265 1_554 S
O18 Eu0 2.373 . S
O18 C31 1.258 . S
O19 Eu1 2.392 1_554 S
O19 C31 1.242 . S
O20 Eu1 2.418 . S
O20 C2 1.244 . S
O21 Eu0 2.488 . S
O21 C9 1.249 . S
O22 Eu0 2.471 . S
O22 C9 1.244 . S
O23 Eu0 2.349 . S
O23 C2 1.265 1_554 S
C24 C25 1.379 . S
C24 C28 1.373 . S
C24 C30 1.505 . S
C25 C24 1.379 . S
C25 C27 1.369 . S
C25 H36 0.930 . S
C26 C28 1.383 . S
C26 C29 1.382 . S
C26 H37 0.930 . S
C27 C25 1.369 . S
C27 C29 1.392 . S
C27 H38 0.930 . S
C28 C24 1.373 . S
C28 C26 1.383 . S
C28 H39 0.931 . S
C29 C26 1.382 . S
C29 C27 1.392 . S
C30 Eu1 2.828 . S
C30 O14 1.249 . S
C30 O15 1.244 . S
C30 C24 1.505 . S
C31 O18 1.258 . S
C31 O19 1.242 . S
H32 C4 0.930 . S
H33 C5 0.930 . S
H34 C6 0.930 . S
H35 C7 0.931 . S
H36 C25 0.930 . S
H37 C26 0.930 . S
H38 C27 0.930 . S
H39 C28 0.931 . S
Eu40 C49 2.828 . S
Eu40 O51 2.392 1_554 S
Eu40 O53 2.418 . S
Eu40 O58 2.373 . S
Eu40 O61 2.488 . S
Eu40 O62 2.471 . S
Eu40 O63 2.349 . S
Eu41 O50 2.373 . S
Eu41 O54 2.488 . S
Eu41 O55 2.471 . S
Eu41 O56 2.349 . S
Eu41 O59 2.392 1_556 S
Eu41 O60 2.418 . S
Eu41 C70 2.828 . S
C42 O60 1.244 . S
C42 O63 1.265 1_556 S
C43 C44 1.379 . S
C43 C47 1.373 . S
C43 C49 1.505 . S
C44 C43 1.379 . S
C44 C46 1.369 . S
C44 H72 0.930 . S
C45 C47 1.383 . S
C45 C48 1.382 . S
C45 H73 0.930 . S
C46 C44 1.369 . S
C46 C48 1.392 . S
C46 H74 0.930 . S
C47 C43 1.373 . S
C47 C45 1.383 . S
C47 H75 0.931 . S
C48 C45 1.382 . S
C48 C46 1.392 . S
C49 Eu40 2.828 . S
C49 C43 1.505 . S
C49 O61 1.249 . S
C49 O62 1.244 . S
O50 Eu41 2.373 . S
O50 C52 1.258 . S
O51 Eu40 2.392 1_556 S
O51 C52 1.242 . S
C52 O50 1.258 . S
C52 O51 1.242 . S
O53 Eu40 2.418 . S
O53 C57 1.244 . S
O54 Eu41 2.488 . S
O54 C70 1.249 . S
O55 Eu41 2.471 . S
O55 C70 1.244 . S
O56 Eu41 2.349 . S
O56 C57 1.265 1_556 S
C57 O53 1.244 . S
C57 O56 1.265 1_554 S
O58 Eu40 2.373 . S
O58 C71 1.258 . S
O59 Eu41 2.392 1_554 S
O59 C71 1.242 . S
O60 Eu41 2.418 . S
O60 C42 1.244 . S
O61 Eu40 2.488 . S
O61 C49 1.249 . S
O62 Eu40 2.471 . S
O62 C49 1.244 . S
O63 Eu40 2.349 . S
O63 C42 1.265 1_554 S
C64 C65 1.379 . S
C64 C68 1.373 . S
C64 C70 1.505 . S
C65 C64 1.379 . S
C65 C67 1.369 . S
C65 H76 0.930 . S
C66 C68 1.383 . S
C66 C69 1.382 . S
C66 H77 0.930 . S
C67 C65 1.369 . S
C67 C69 1.392 . S
C67 H78 0.930 . S
C68 C64 1.373 . S
C68 C66 1.383 . S
C68 H79 0.931 . S
C69 C66 1.382 . S
C69 C67 1.392 . S
C70 Eu41 2.828 . S
C70 O54 1.249 . S
C70 O55 1.244 . S
C70 C64 1.505 . S
C71 O58 1.258 . S
C71 O59 1.242 . S
H72 C44 0.930 . S
H73 C45 0.930 . S
H74 C46 0.930 . S
H75 C47 0.931 . S
H76 C65 0.930 . S
H77 C66 0.930 . S
H78 C67 0.930 . S
H79 C68 0.931 . S
Eu80 C89 2.828 . S
Eu80 O91 2.392 . S
Eu80 O93 2.418 . S
Eu80 O98 2.373 . S
Eu80 O101 2.488 . S
Eu80 O102 2.471 . S
Eu80 O103 2.349 . S
Eu81 O90 2.373 . S
Eu81 O94 2.488 . S
Eu81 O95 2.471 . S
Eu81 O96 2.349 . S
Eu81 O99 2.392 . S
Eu81 O100 2.418 . S
Eu81 C110 2.828 . S
C82 O100 1.244 . S
C82 O103 1.265 . S
C83 C84 1.379 . S
C83 C87 1.373 . S
C83 C89 1.505 . S
C84 C83 1.379 . S
C84 C86 1.369 . S
C84 H112 0.930 . S
C85 C87 1.383 . S
C85 C88 1.382 . S
C85 H113 0.930 . S
C86 C84 1.369 . S
C86 C88 1.392 . S
C86 H114 0.930 . S
C87 C83 1.373 . S
C87 C85 1.383 . S
C87 H115 0.931 . S
C88 C85 1.382 . S
C88 C86 1.392 . S
C89 Eu80 2.828 . S
C89 C83 1.505 . S
C89 O101 1.249 . S
C89 O102 1.244 . S
O90 Eu81 2.373 . S
O90 C92 1.258 . S
O91 Eu80 2.392 . S
O91 C92 1.242 . S
C92 O90 1.258 . S
C92 O91 1.242 . S
O93 Eu80 2.418 . S
O93 C97 1.244 . S
O94 Eu81 2.488 . S
O94 C110 1.249 . S
O95 Eu81 2.471 . S
O95 C110 1.244 . S
O96 Eu81 2.349 . S
O96 C97 1.265 . S
C97 O93 1.244 . S
C97 O96 1.265 . S
O98 Eu80 2.373 . S
O98 C111 1.258 . S
O99 Eu81 2.392 . S
O99 C111 1.242 . S
O100 Eu81 2.418 . S
O100 C82 1.244 . S
O101 Eu80 2.488 . S
O101 C89 1.249 . S
O102 Eu80 2.471 . S
O102 C89 1.244 . S
O103 Eu80 2.349 . S
O103 C82 1.265 . S
C104 C105 1.379 . S
C104 C108 1.373 . S
C104 C110 1.505 . S
C105 C104 1.379 . S
C105 C107 1.369 . S
C105 H116 0.930 . S
C106 C108 1.383 . S
C106 C109 1.382 . S
C106 H117 0.930 . S
C107 C105 1.369 . S
C107 C109 1.392 . S
C107 H118 0.930 . S
C108 C104 1.373 . S
C108 C106 1.383 . S
C108 H119 0.931 . S
C109 C106 1.382 . S
C109 C107 1.392 . S
C110 Eu81 2.828 . S
C110 O94 1.249 . S
C110 O95 1.244 . S
C110 C104 1.505 . S
C111 O98 1.258 . S
C111 O99 1.242 . S
H112 C84 0.930 . S
H113 C85 0.930 . S
H114 C86 0.930 . S
H115 C87 0.931 . S
H116 C105 0.930 . S
H117 C106 0.930 . S
H118 C107 0.930 . S
H119 C108 0.931 . S
Eu120 C129 2.828 . S
Eu120 O131 2.392 . S
Eu120 O133 2.418 . S
Eu120 O138 2.373 . S
Eu120 O141 2.488 . S
Eu120 O142 2.471 . S
Eu120 O143 2.349 . S
Eu121 O130 2.373 . S
Eu121 O134 2.488 . S
Eu121 O135 2.471 . S
Eu121 O136 2.349 . S
Eu121 O139 2.392 . S
Eu121 O140 2.418 . S
Eu121 C150 2.828 . S
C122 O140 1.244 . S
C122 O143 1.265 . S
C123 C124 1.379 . S
C123 C127 1.373 . S
C123 C129 1.505 . S
C124 C123 1.379 . S
C124 C126 1.369 . S
C124 H152 0.930 . S
C125 C127 1.383 . S
C125 C128 1.382 . S
C125 H153 0.930 . S
C126 C124 1.369 . S
C126 C128 1.392 . S
C126 H154 0.930 . S
C127 C123 1.373 . S
C127 C125 1.383 . S
C127 H155 0.931 . S
C128 C125 1.382 . S
C128 C126 1.392 . S
C129 Eu120 2.828 . S
C129 C123 1.505 . S
C129 O141 1.249 . S
C129 O142 1.244 . S
O130 Eu121 2.373 . S
O130 C132 1.258 . S
O131 Eu120 2.392 . S
O131 C132 1.242 . S
C132 O130 1.258 . S
C132 O131 1.242 . S
O133 Eu120 2.418 . S
O133 C137 1.244 . S
O134 Eu121 2.488 . S
O134 C150 1.249 . S
O135 Eu121 2.471 . S
O135 C150 1.244 . S
O136 Eu121 2.349 . S
O136 C137 1.265 . S
C137 O133 1.244 . S
C137 O136 1.265 . S
O138 Eu120 2.373 . S
O138 C151 1.258 . S
O139 Eu121 2.392 . S
O139 C151 1.242 . S
O140 Eu121 2.418 . S
O140 C122 1.244 . S
O141 Eu120 2.488 . S
O141 C129 1.249 . S
O142 Eu120 2.471 . S
O142 C129 1.244 . S
O143 Eu120 2.349 . S
O143 C122 1.265 . S
C144 C145 1.379 . S
C144 C148 1.373 . S
C144 C150 1.505 . S
C145 C144 1.379 . S
C145 C147 1.369 . S
C145 H156 0.930 . S
C146 C148 1.383 . S
C146 C149 1.382 . S
C146 H157 0.930 . S
C147 C145 1.369 . S
C147 C149 1.392 . S
C147 H158 0.930 . S
C148 C144 1.373 . S
C148 C146 1.383 . S
C148 H159 0.931 . S
C149 C146 1.382 . S
C149 C147 1.392 . S
C150 Eu121 2.828 . S
C150 O134 1.249 . S
C150 O135 1.244 . S
C150 C144 1.505 . S
C151 O138 1.258 . S
C151 O139 1.242 . S
H152 C124 0.930 . S
H153 C125 0.930 . S
H154 C126 0.930 . S
H155 C127 0.931 . S
H156 C145 0.930 . S
H157 C146 0.930 . S
H158 C147 0.930 . S
H159 C148 0.931 . S
H160 C178 0.951 . S
H161 C180 0.951 . S
H162 C182 0.950 . S
H163 C183 0.950 . S
H164 C185 0.950 . S
H165 C188 0.950 . S
H166 C189 0.950 . S
H167 C191 0.950 . S
H168 C192 0.950 . S
H169 C193 0.951 . S
H170 C195 0.951 . S
H171 C197 0.950 . S
H172 C198 0.950 . S
H173 C200 0.950 . S
H174 C203 0.950 . S
H175 C204 0.950 . S
H176 C206 0.950 . S
H177 C207 0.950 . S
C178 H160 0.951 . S
C178 C179 1.366 . S
C178 C180 1.388 . S
C179 C178 1.366 . S
C179 C183 1.385 . S
C180 H161 0.951 . S
C180 C178 1.388 . S
C180 C181 1.366 . S
C181 C180 1.366 . S
C181 C182 1.414 . S
C181 C184 1.499 . S
C182 H162 0.950 . S
C182 C181 1.414 . S
C182 C183 1.374 . S
C183 H163 0.950 . S
C183 C179 1.385 . S
C183 C182 1.374 . S
C184 C181 1.499 . S
C184 C185 1.373 1_554 S
C184 C186 1.389 . S
C185 H164 0.950 . S
C185 C184 1.373 1_556 S
C185 C201 1.377 . S
C186 C184 1.389 . S
C186 C187 1.524 . S
C186 C200 1.377 . S
C187 C186 1.524 . S
C187 C188 1.397 . S
C187 C192 1.363 . S
C188 H165 0.950 . S
C188 C187 1.397 . S
C188 C189 1.334 . S
C189 H166 0.950 . S
C189 C188 1.334 . S
C189 C190 1.287 . S
C190 C189 1.287 . S
C190 C191 1.524 . S
C190 H209 0.913 . S
C191 H167 0.950 . S
C191 C190 1.524 . S
C191 C192 1.415 . S
C192 H168 0.950 . S
C192 C187 1.363 . S
C192 C191 1.415 . S
C193 H169 0.951 . S
C193 C194 1.366 . S
C193 C195 1.388 . S
C194 C193 1.366 . S
C194 C198 1.385 . S
C195 H170 0.951 . S
C195 C193 1.388 . S
C195 C196 1.367 . S
C196 C195 1.367 . S
C196 C197 1.414 . S
C196 C199 1.498 . S
C197 H171 0.950 . S
C197 C196 1.414 . S
C197 C198 1.374 . S
C198 H172 0.950 . S
C198 C194 1.385 . S
C198 C197 1.374 . S
C199 C196 1.498 . S
C199 C200 1.380 . S
C199 C201 1.383 1_554 S
C200 H173 0.950 . S
C200 C186 1.377 . S
C200 C199 1.380 . S
C201 C185 1.377 . S
C201 C199 1.383 1_556 S
C201 C202 1.524 . S
C202 C201 1.524 . S
C202 C203 1.397 . S
C202 C207 1.363 . S
C203 H174 0.950 . S
C203 C202 1.397 . S
C203 C204 1.334 . S
C204 H175 0.950 . S
C204 C203 1.334 . S
C204 C205 1.287 . S
C205 C204 1.287 . S
C205 C206 1.524 . S
C205 H208 0.999 . S
C206 H176 0.950 . S
C206 C205 1.524 . S
C206 C207 1.415 . S
C207 H177 0.950 . S
C207 C202 1.363 . S
C207 C206 1.415 . S
H208 C205 0.999 . S
H209 C190 0.913 . S
H210 C228 0.951 . S
H211 C230 0.951 . S
H212 C232 0.950 . S
H213 C233 0.950 . S
H214 C235 0.950 . S
H215 C238 0.950 . S
H216 C239 0.950 . S
H217 C241 0.950 . S
H218 C242 0.950 . S
H219 C243 0.951 . S
H220 C245 0.951 . S
H221 C247 0.950 . S
H222 C248 0.950 . S
H223 C250 0.950 . S
H224 C253 0.950 . S
H225 C254 0.950 . S
H226 C256 0.950 . S
H227 C257 0.950 . S
C228 H210 0.951 . S
C228 C229 1.366 . S
C228 C230 1.388 . S
C229 C228 1.366 . S
C229 C233 1.385 . S
C230 H211 0.951 . S
C230 C228 1.388 . S
C230 C231 1.366 . S
C231 C230 1.366 . S
C231 C232 1.414 . S
C231 C234 1.499 . S
C232 H212 0.950 . S
C232 C231 1.414 . S
C232 C233 1.374 . S
C233 H213 0.950 . S
C233 C229 1.385 . S
C233 C232 1.374 . S
C234 C231 1.499 . S
C234 C235 1.373 . S
C234 C236 1.389 . S
C235 H214 0.950 . S
C235 C234 1.373 . S
C235 C251 1.377 . S
C236 C234 1.389 . S
C236 C237 1.524 . S
C236 C250 1.377 . S
C237 C236 1.524 . S
C237 C238 1.397 . S
C237 C242 1.363 . S
C238 H215 0.950 . S
C238 C237 1.397 . S
C238 C239 1.334 . S
C239 H216 0.950 . S
C239 C238 1.334 . S
C239 C240 1.287 . S
C240 C239 1.287 . S
C240 C241 1.524 . S
C240 H259 0.913 . S
C241 H217 0.950 . S
C241 C240 1.524 . S
C241 C242 1.415 . S
C242 H218 0.950 . S
C242 C237 1.363 . S
C242 C241 1.415 . S
C243 H219 0.951 . S
C243 C244 1.366 . S
C243 C245 1.388 . S
C244 C243 1.366 . S
C244 C248 1.385 . S
C245 H220 0.951 . S
C245 C243 1.388 . S
C245 C246 1.366 . S
C246 C245 1.366 . S
C246 C247 1.414 . S
C246 C249 1.499 . S
C247 H221 0.950 . S
C247 C246 1.414 . S
C247 C248 1.374 . S
C248 H222 0.950 . S
C248 C244 1.385 . S
C248 C247 1.374 . S
C249 C246 1.499 . S
C249 C250 1.373 . S
C249 C251 1.389 . S
C250 H223 0.950 . S
C250 C236 1.377 . S
C250 C249 1.373 . S
C251 C235 1.377 . S
C251 C249 1.389 . S
C251 C252 1.524 . S
C252 C251 1.524 . S
C252 C253 1.397 . S
C252 C257 1.363 . S
C253 H224 0.950 . S
C253 C252 1.397 . S
C253 C254 1.334 . S
C254 H225 0.950 . S
C254 C253 1.334 . S
C254 C255 1.287 . S
C255 C254 1.287 . S
C255 C256 1.524 . S
C255 H258 0.999 . S
C256 H226 0.950 . S
C256 C255 1.524 . S
C256 C257 1.415 . S
C257 H227 0.950 . S
C257 C252 1.363 . S
C257 C256 1.415 . S
H258 C255 0.999 . S
H259 C240 0.913 . S
H260 C278 0.951 . S
H261 C280 0.951 . S
H262 C282 0.950 . S
H263 C283 0.950 . S
H264 C285 0.950 . S
H265 C288 0.950 . S
H266 C289 0.950 . S
H267 C291 0.950 . S
H268 C292 0.950 . S
H269 C293 0.951 . S
H270 C295 0.951 . S
H271 C297 0.950 . S
H272 C298 0.950 . S
H273 C300 0.950 . S
H274 C303 0.950 . S
H275 C304 0.950 . S
H276 C306 0.950 . S
H277 C307 0.950 . S
C278 H260 0.951 . S
C278 C279 1.366 . S
C278 C280 1.388 . S
C279 C278 1.366 . S
C279 C283 1.385 1_554 S
C280 H261 0.951 . S
C280 C278 1.388 . S
C280 C281 1.366 . S
C281 C280 1.366 . S
C281 C282 1.414 1_554 S
C281 C284 1.499 . S
C282 H262 0.950 . S
C282 C281 1.414 1_556 S
C282 C283 1.374 . S
C283 H263 0.950 . S
C283 C279 1.385 1_556 S
C283 C282 1.374 . S
C284 C281 1.499 . S
C284 C285 1.373 1_554 S
C284 C286 1.389 1_455 S
C285 H264 0.950 . S
C285 C284 1.373 1_556 S
C285 C301 1.377 1_545 S
C286 C284 1.389 1_655 S
C286 C287 1.524 . S
C286 C300 1.377 1_545 S
C287 C286 1.524 . S
C287 C288 1.397 1_655 S
C287 C292 1.363 . S
C288 H265 0.950 . S
C288 C287 1.397 1_455 S
C288 C289 1.334 . S
C289 H266 0.950 . S
C289 C288 1.334 . S
C289 C290 1.279 1_455 S
C290 C289 1.279 1_655 S
C290 C291 1.532 . S
C290 H309 0.913 1_655 S
C291 H267 0.950 . S
C291 C290 1.532 . S
C291 C292 1.415 . S
C292 H268 0.950 . S
C292 C287 1.363 . S
C292 C291 1.415 . S
C293 H269 0.951 . S
C293 C294 1.366 1_556 S
C293 C295 1.388 . S
C294 C293 1.366 1_554 S
C294 C298 1.385 . S
C295 H270 0.951 . S
C295 C293 1.388 . S
C295 C296 1.363 1_556 S
C296 C295 1.363 1_554 S
C296 C297 1.419 . S
C296 C299 1.499 . S
C297 H271 0.950 . S
C297 C296 1.419 . S
C297 C298 1.374 . S
C298 H272 0.950 . S
C298 C294 1.385 . S
C298 C297 1.374 . S
C299 C296 1.499 . S
C299 C300 1.391 . S
C299 C301 1.371 1_654 S
C300 H273 0.950 . S
C300 C286 1.377 1_565 S
C300 C299 1.391 . S
C301 C285 1.377 1_565 S
C301 C299 1.371 1_456 S
C301 C302 1.524 . S
C302 C301 1.524 . S
C302 C303 1.397 1_455 S
C302 C307 1.363 . S
C303 H274 0.950 . S
C303 C302 1.397 1_655 S
C303 C304 1.334 . S
C304 H275 0.950 . S
C304 C303 1.334 . S
C304 C305 1.279 1_655 S
C305 C304 1.279 1_455 S
C305 C306 1.532 . S
C305 H308 0.999 . S
C306 H276 0.950 . S
C306 C305 1.532 . S
C306 C307 1.415 . S
C307 H277 0.950 . S
C307 C302 1.363 . S
C307 C306 1.415 . S
H308 C305 0.999 . S
H309 C290 0.913 1_455 S
H310 C328 0.951 . S
H311 C330 0.951 . S
H312 C332 0.950 . S
H313 C333 0.950 . S
H314 C335 0.950 . S
H315 C338 0.950 1_655 S
H316 C339 0.950 . S
H317 C341 0.950 . S
H318 C342 0.950 . S
H319 C343 0.951 . S
H320 C345 0.951 . S
H321 C347 0.950 . S
H322 C348 0.950 . S
H323 C350 0.950 . S
H324 C353 0.950 1_455 S
H325 C354 0.950 . S
H326 C356 0.950 . S
H327 C357 0.950 . S
C328 H310 0.951 . S
C328 C329 1.366 . S
C328 C330 1.388 . S
C329 C328 1.366 . S
C329 C333 1.385 . S
C330 H311 0.951 . S
C330 C328 1.388 . S
C330 C331 1.366 . S
C331 C330 1.366 . S
C331 C332 1.414 . S
C331 C334 1.499 . S
C332 H312 0.950 . S
C332 C331 1.414 . S
C332 C333 1.374 . S
C333 H313 0.950 . S
C333 C329 1.385 . S
C333 C332 1.374 . S
C334 C331 1.499 . S
C334 C335 1.373 . S
C334 C336 1.389 1_655 S
C335 H314 0.950 . S
C335 C334 1.373 . S
C335 C351 1.377 1_545 S
C336 C334 1.389 1_455 S
C336 C337 1.524 . S
C336 C350 1.377 1_545 S
C337 C336 1.524 . S
C337 C338 1.397 . S
C337 C342 1.363 . S
C338 H315 0.950 1_455 S
C338 C337 1.397 . S
C338 C339 1.334 . S
C339 H316 0.950 . S
C339 C338 1.334 . S
C339 C340 1.287 . S
C340 C339 1.287 . S
C340 C341 1.524 . S
C340 H359 0.913 . S
C341 H317 0.950 . S
C341 C340 1.524 . S
C341 C342 1.415 . S
C342 H318 0.950 . S
C342 C337 1.363 . S
C342 C341 1.415 . S
C343 H319 0.951 . S
C343 C344 1.366 . S
C343 C345 1.388 . S
C344 C343 1.366 . S
C344 C348 1.385 . S
C345 H320 0.951 . S
C345 C343 1.388 . S
C345 C346 1.366 . S
C346 C345 1.366 . S
C346 C347 1.414 . S
C346 C349 1.499 . S
C347 H321 0.950 . S
C347 C346 1.414 . S
C347 C348 1.374 . S
C348 H322 0.950 . S
C348 C344 1.385 . S
C348 C347 1.374 . S
C349 C346 1.499 . S
C349 C350 1.373 . S
C349 C351 1.389 1_455 S
C350 H323 0.950 . S
C350 C336 1.377 1_565 S
C350 C349 1.373 . S
C351 C335 1.377 1_565 S
C351 C349 1.389 1_655 S
C351 C352 1.524 . S
C352 C351 1.524 . S
C352 C353 1.397 . S
C352 C357 1.363 . S
C353 H324 0.950 1_655 S
C353 C352 1.397 . S
C353 C354 1.334 . S
C354 H325 0.950 . S
C354 C353 1.334 . S
C354 C355 1.287 . S
C355 C354 1.287 . S
C355 C356 1.524 . S
C355 H358 0.999 . S
C356 H326 0.950 . S
C356 C355 1.524 . S
C356 C357 1.415 . S
C357 H327 0.950 . S
C357 C352 1.363 . S
C357 C356 1.415 . S
H358 C355 0.999 . S
H359 C340 0.913 . S
H360 C378 0.951 . S
H361 C380 0.951 . S
H362 C382 0.950 . S
H363 C383 0.950 . S
H364 C385 0.950 . S
H365 C388 0.950 . S
H366 C389 0.950 . S
H367 C391 0.950 . S
H368 C392 0.950 . S
H369 C393 0.951 . S
H370 C395 0.951 . S
H371 C397 0.950 . S
H372 C398 0.950 . S
H373 C400 0.950 . S
H374 C403 0.950 . S
H375 C404 0.950 . S
H376 C406 0.950 . S
H377 C407 0.950 . S
C378 H360 0.951 . S
C378 C379 1.366 . S
C378 C380 1.388 . S
C379 C378 1.366 . S
C379 C383 1.385 . S
C380 H361 0.951 . S
C380 C378 1.388 . S
C380 C381 1.366 . S
C381 C380 1.366 . S
C381 C382 1.414 . S
C381 C384 1.499 . S
C382 H362 0.950 . S
C382 C381 1.414 . S
C382 C383 1.374 . S
C383 H363 0.950 . S
C383 C379 1.385 . S
C383 C382 1.374 . S
C384 C381 1.499 . S
C384 C385 1.373 . S
C384 C386 1.389 . S
C385 H364 0.950 . S
C385 C384 1.373 . S
C385 C401 1.377 . S
C386 C384 1.389 . S
C386 C387 1.524 . S
C386 C400 1.377 . S
C387 C386 1.524 . S
C387 C388 1.397 . S
C387 C392 1.363 . S
C388 H365 0.950 . S
C388 C387 1.397 . S
C388 C389 1.334 . S
C389 H366 0.950 . S
C389 C388 1.334 . S
C389 C390 1.287 . S
C390 C389 1.287 . S
C390 C391 1.524 . S
C390 H409 0.913 . S
C391 H367 0.950 . S
C391 C390 1.524 . S
C391 C392 1.415 . S
C392 H368 0.950 . S
C392 C387 1.363 . S
C392 C391 1.415 . S
C393 H369 0.951 . S
C393 C394 1.366 . S
C393 C395 1.388 . S
C394 C393 1.366 . S
C394 C398 1.385 . S
C395 H370 0.951 . S
C395 C393 1.388 . S
C395 C396 1.366 . S
C396 C395 1.366 . S
C396 C397 1.414 . S
C396 C399 1.499 . S
C397 H371 0.950 . S
C397 C396 1.414 . S
C397 C398 1.374 . S
C398 H372 0.950 . S
C398 C394 1.385 . S
C398 C397 1.374 . S
C399 C396 1.499 . S
C399 C400 1.373 . S
C399 C401 1.389 . S
C400 H373 0.950 . S
C400 C386 1.377 . S
C400 C399 1.373 . S
C401 C385 1.377 . S
C401 C399 1.389 . S
C401 C402 1.524 . S
C402 C401 1.524 . S
C402 C403 1.397 . S
C402 C407 1.363 . S
C403 H374 0.950 . S
C403 C402 1.397 . S
C403 C404 1.334 . S
C404 H375 0.950 . S
C404 C403 1.334 . S
C404 C405 1.287 . S
C405 C404 1.287 . S
C405 C406 1.524 . S
C405 H408 0.999 . S
C406 H376 0.950 . S
C406 C405 1.524 . S
C406 C407 1.415 . S
C407 H377 0.950 . S
C407 C402 1.363 . S
C407 C406 1.415 . S
H408 C405 0.999 . S
H409 C390 0.913 . S
H410 C428 0.951 . S
H411 C430 0.951 . S
H412 C432 0.950 . S
H413 C433 0.950 . S
H414 C435 0.950 . S
H415 C438 0.950 . S
H416 C439 0.950 . S
H417 C441 0.950 . S
H418 C442 0.950 . S
H419 C443 0.951 . S
H420 C445 0.951 . S
H421 C447 0.950 . S
H422 C448 0.950 . S
H423 C450 0.950 . S
H424 C453 0.950 . S
H425 C454 0.950 . S
H426 C456 0.950 . S
H427 C457 0.950 . S
C428 H410 0.951 . S
C428 C429 1.366 . S
C428 C430 1.388 . S
C429 C428 1.366 . S
C429 C433 1.385 . S
C430 H411 0.951 . S
C430 C428 1.388 . S
C430 C431 1.366 . S
C431 C430 1.366 . S
C431 C432 1.414 . S
C431 C434 1.499 . S
C432 H412 0.950 . S
C432 C431 1.414 . S
C432 C433 1.374 . S
C433 H413 0.950 . S
C433 C429 1.385 . S
C433 C432 1.374 . S
C434 C431 1.499 . S
C434 C435 1.373 . S
C434 C436 1.389 . S
C435 H414 0.950 . S
C435 C434 1.373 . S
C435 C451 1.377 . S
C436 C434 1.389 . S
C436 C437 1.524 . S
C436 C450 1.377 . S
C437 C436 1.524 . S
C437 C438 1.397 . S
C437 C442 1.363 . S
C438 H415 0.950 . S
C438 C437 1.397 . S
C438 C439 1.334 . S
C439 H416 0.950 . S
C439 C438 1.334 . S
C439 C440 1.287 . S
C440 C439 1.287 . S
C440 C441 1.524 . S
C440 H459 0.913 . S
C441 H417 0.950 . S
C441 C440 1.524 . S
C441 C442 1.415 . S
C442 H418 0.950 . S
C442 C437 1.363 . S
C442 C441 1.415 . S
C443 H419 0.951 . S
C443 C444 1.366 . S
C443 C445 1.388 . S
C444 C443 1.366 . S
C444 C448 1.385 . S
C445 H420 0.951 . S
C445 C443 1.388 . S
C445 C446 1.366 . S
C446 C445 1.366 . S
C446 C447 1.414 . S
C446 C449 1.499 . S
C447 H421 0.950 . S
C447 C446 1.414 . S
C447 C448 1.374 . S
C448 H422 0.950 . S
C448 C444 1.385 . S
C448 C447 1.374 . S
C449 C446 1.499 . S
C449 C450 1.373 . S
C449 C451 1.389 . S
C450 H423 0.950 . S
C450 C436 1.377 . S
C450 C449 1.373 . S
C451 C435 1.377 . S
C451 C449 1.389 . S
C451 C452 1.524 . S
C452 C451 1.524 . S
C452 C453 1.397 . S
C452 C457 1.363 . S
C453 H424 0.950 . S
C453 C452 1.397 . S
C453 C454 1.334 . S
C454 H425 0.950 . S
C454 C453 1.334 . S
C454 C455 1.287 . S
C455 C454 1.287 . S
C455 C456 1.524 . S
C455 H458 0.999 . S
C456 H426 0.950 . S
C456 C455 1.524 . S
C456 C457 1.415 . S
C457 H427 0.950 . S
C457 C452 1.363 . S
C457 C456 1.415 . S
H458 C455 0.999 . S
H459 C440 0.913 . S
H460 C478 0.951 . S
H461 C480 0.951 . S
H462 C482 0.950 . S
H463 C483 0.950 . S
H464 C485 0.950 . S
H465 C488 0.950 . S
H466 C489 0.950 . S
H467 C491 0.950 . S
H468 C492 0.950 . S
H469 C493 0.951 . S
H470 C495 0.951 . S
H471 C497 0.950 . S
H472 C498 0.950 . S
H473 C500 0.950 . S
H474 C503 0.950 . S
H475 C504 0.950 . S
H476 C506 0.950 . S
H477 C507 0.950 . S
C478 H460 0.951 . S
C478 C479 1.366 . S
C478 C480 1.388 . S
C479 C478 1.366 . S
C479 C483 1.385 . S
C480 H461 0.951 . S
C480 C478 1.388 . S
C480 C481 1.366 . S
C481 C480 1.366 . S
C481 C482 1.414 . S
C481 C484 1.499 . S
C482 H462 0.950 . S
C482 C481 1.414 . S
C482 C483 1.374 . S
C483 H463 0.950 . S
C483 C479 1.385 . S
C483 C482 1.374 . S
C484 C481 1.499 . S
C484 C485 1.373 . S
C484 C486 1.389 . S
C485 H464 0.950 . S
C485 C484 1.373 . S
C485 C501 1.377 . S
C486 C484 1.389 . S
C486 C487 1.524 . S
C486 C500 1.377 . S
C487 C486 1.524 . S
C487 C488 1.397 . S
C487 C492 1.363 . S
C488 H465 0.950 . S
C488 C487 1.397 . S
C488 C489 1.334 . S
C489 H466 0.950 . S
C489 C488 1.334 . S
C489 C490 1.287 . S
C490 C489 1.287 . S
C490 C491 1.524 . S
C490 H509 0.913 . S
C491 H467 0.950 . S
C491 C490 1.524 . S
C491 C492 1.415 . S
C492 H468 0.950 . S
C492 C487 1.363 . S
C492 C491 1.415 . S
C493 H469 0.951 . S
C493 C494 1.366 . S
C493 C495 1.388 . S
C494 C493 1.366 . S
C494 C498 1.385 . S
C495 H470 0.951 . S
C495 C493 1.388 . S
C495 C496 1.366 . S
C496 C495 1.366 . S
C496 C497 1.414 . S
C496 C499 1.499 . S
C497 H471 0.950 . S
C497 C496 1.414 . S
C497 C498 1.374 . S
C498 H472 0.950 . S
C498 C494 1.385 . S
C498 C497 1.374 . S
C499 C496 1.499 . S
C499 C500 1.373 . S
C499 C501 1.389 . S
C500 H473 0.950 . S
C500 C486 1.377 . S
C500 C499 1.373 . S
C501 C485 1.377 . S
C501 C499 1.389 . S
C501 C502 1.524 . S
C502 C501 1.524 . S
C502 C503 1.397 . S
C502 C507 1.363 . S
C503 H474 0.950 . S
C503 C502 1.397 . S
C503 C504 1.334 . S
C504 H475 0.950 . S
C504 C503 1.334 . S
C504 C505 1.287 . S
C505 C504 1.287 . S
C505 C506 1.524 . S
C505 H508 0.999 . S
C506 H476 0.950 . S
C506 C505 1.524 . S
C506 C507 1.415 . S
C507 H477 0.950 . S
C507 C502 1.363 . S
C507 C506 1.415 . S
H508 C505 0.999 . S
H509 C490 0.913 . S
H510 C528 0.951 . S
H511 C530 0.951 . S
H512 C532 0.950 . S
H513 C533 0.950 . S
H514 C535 0.950 . S
H515 C538 0.950 . S
H516 C539 0.950 . S
H517 C541 0.950 . S
H518 C542 0.950 . S
H519 C543 0.951 . S
H520 C545 0.951 . S
H521 C547 0.950 . S
H522 C548 0.950 . S
H523 C550 0.950 . S
H524 C553 0.950 . S
H525 C554 0.950 . S
H526 C556 0.950 . S
H527 C557 0.950 . S
C528 H510 0.951 . S
C528 C529 1.366 . S
C528 C530 1.388 . S
C529 C528 1.366 . S
C529 C533 1.385 . S
C530 H511 0.951 . S
C530 C528 1.388 . S
C530 C531 1.366 . S
C531 C530 1.366 . S
C531 C532 1.414 . S
C531 C534 1.499 . S
C532 H512 0.950 . S
C532 C531 1.414 . S
C532 C533 1.374 . S
C533 H513 0.950 . S
C533 C529 1.385 . S
C533 C532 1.374 . S
C534 C531 1.499 . S
C534 C535 1.373 . S
C534 C536 1.389 . S
C535 H514 0.950 . S
C535 C534 1.373 . S
C535 C551 1.377 . S
C536 C534 1.389 . S
C536 C537 1.524 . S
C536 C550 1.377 . S
C537 C536 1.524 . S
C537 C538 1.397 . S
C537 C542 1.363 . S
C538 H515 0.950 . S
C538 C537 1.397 . S
C538 C539 1.334 . S
C539 H516 0.950 . S
C539 C538 1.334 . S
C539 C540 1.287 . S
C540 C539 1.287 . S
C540 C541 1.524 . S
C540 H559 0.913 . S
C541 H517 0.950 . S
C541 C540 1.524 . S
C541 C542 1.415 . S
C542 H518 0.950 . S
C542 C537 1.363 . S
C542 C541 1.415 . S
C543 H519 0.951 . S
C543 C544 1.366 . S
C543 C545 1.388 . S
C544 C543 1.366 . S
C544 C548 1.385 . S
C545 H520 0.951 . S
C545 C543 1.388 . S
C545 C546 1.366 . S
C546 C545 1.366 . S
C546 C547 1.414 . S
C546 C549 1.499 . S
C547 H521 0.950 . S
C547 C546 1.414 . S
C547 C548 1.374 . S
C548 H522 0.950 . S
C548 C544 1.385 . S
C548 C547 1.374 . S
C549 C546 1.499 . S
C549 C550 1.373 . S
C549 C551 1.389 . S
C550 H523 0.950 . S
C550 C536 1.377 . S
C550 C549 1.373 . S
C551 C535 1.377 . S
C551 C549 1.389 . S
C551 C552 1.524 . S
C552 C551 1.524 . S
C552 C553 1.397 . S
C552 C557 1.363 . S
C553 H524 0.950 . S
C553 C552 1.397 . S
C553 C554 1.334 . S
C554 H525 0.950 . S
C554 C553 1.334 . S
C554 C555 1.287 . S
C555 C554 1.287 . S
C555 C556 1.524 . S
C555 H558 0.999 . S
C556 H526 0.950 . S
C556 C555 1.524 . S
C556 C557 1.415 . S
C557 H527 0.950 . S
C557 C552 1.363 . S
C557 C556 1.415 . S
H558 C555 0.999 . S
H559 C540 0.913 . S
H560 C578 0.951 . S
H561 C580 0.951 . S
H562 C582 0.950 . S
H563 C583 0.950 . S
H564 C585 0.950 . S
H565 C588 0.950 . S
H566 C589 0.950 . S
H567 C591 0.950 . S
H568 C592 0.950 . S
H569 C593 0.951 . S
H570 C595 0.951 . S
H571 C597 0.950 . S
H572 C598 0.950 . S
H573 C600 0.950 1_455 S
H574 C603 0.950 . S
H575 C604 0.950 . S
H576 C606 0.950 . S
H577 C607 0.950 . S
C578 H560 0.951 . S
C578 C579 1.366 . S
C578 C580 1.388 . S
C579 C578 1.366 . S
C579 C583 1.385 . S
C580 H561 0.951 . S
C580 C578 1.388 . S
C580 C581 1.366 . S
C581 C580 1.366 . S
C581 C582 1.414 . S
C581 C584 1.499 . S
C582 H562 0.950 . S
C582 C581 1.414 . S
C582 C583 1.374 . S
C583 H563 0.950 . S
C583 C579 1.385 . S
C583 C582 1.374 . S
C584 C581 1.499 . S
C584 C585 1.373 . S
C584 C586 1.389 . S
C585 H564 0.950 . S
C585 C584 1.373 . S
C585 C601 1.377 . S
C586 C584 1.389 . S
C586 C587 1.524 1_655 S
C586 C600 1.377 . S
C587 C586 1.524 1_455 S
C587 C588 1.397 . S
C587 C592 1.363 . S
C588 H565 0.950 . S
C588 C587 1.397 . S
C588 C589 1.334 . S
C589 H566 0.950 . S
C589 C588 1.334 . S
C589 C590 1.287 . S
C590 C589 1.287 . S
C590 C591 1.524 . S
C590 H609 0.913 . S
C591 H567 0.950 . S
C591 C590 1.524 . S
C591 C592 1.415 . S
C592 H568 0.950 . S
C592 C587 1.363 . S
C592 C591 1.415 . S
C593 H569 0.951 . S
C593 C594 1.366 1_655 S
C593 C595 1.388 . S
C594 C593 1.366 1_455 S
C594 C598 1.385 . S
C595 H570 0.951 . S
C595 C593 1.388 . S
C595 C596 1.366 . S
C596 C595 1.366 . S
C596 C597 1.414 1_655 S
C596 C599 1.499 . S
C597 H571 0.950 . S
C597 C596 1.414 1_455 S
C597 C598 1.374 . S
C598 H572 0.950 . S
C598 C594 1.385 . S
C598 C597 1.374 . S
C599 C596 1.499 . S
C599 C600 1.373 . S
C599 C601 1.389 . S
C600 H573 0.950 1_655 S
C600 C586 1.377 . S
C600 C599 1.373 . S
C601 C585 1.377 . S
C601 C599 1.389 . S
C601 C602 1.524 . S
C602 C601 1.524 . S
C602 C603 1.397 . S
C602 C607 1.363 . S
C603 H574 0.950 . S
C603 C602 1.397 . S
C603 C604 1.334 . S
C604 H575 0.950 . S
C604 C603 1.334 . S
C604 C605 1.287 . S
C605 C604 1.287 . S
C605 C606 1.524 . S
C605 H608 0.999 . S
C606 H576 0.950 . S
C606 C605 1.524 . S
C606 C607 1.415 . S
C607 H577 0.950 . S
C607 C602 1.363 . S
C607 C606 1.415 . S
H608 C605 0.999 . S
H609 C590 0.913 . S
H610 C628 0.951 . S
H611 C630 0.951 . S
H612 C632 0.950 . S
H613 C633 0.950 . S
H614 C635 0.950 1_455 S
H615 C638 0.950 . S
H616 C639 0.950 . S
H617 C641 0.950 . S
H618 C642 0.950 . S
H619 C643 0.951 . S
H620 C645 0.951 . S
H621 C647 0.950 . S
H622 C648 0.950 . S
H623 C650 0.950 . S
H624 C653 0.950 . S
H625 C654 0.950 . S
H626 C656 0.950 . S
H627 C657 0.950 . S
C628 H610 0.951 . S
C628 C629 1.366 . S
C628 C630 1.388 . S
C629 C628 1.366 . S
C629 C633 1.385 . S
C630 H611 0.951 . S
C630 C628 1.388 . S
C630 C631 1.366 . S
C631 C630 1.366 . S
C631 C632 1.414 . S
C631 C634 1.499 . S
C632 H612 0.950 . S
C632 C631 1.414 . S
C632 C633 1.374 . S
C633 H613 0.950 . S
C633 C629 1.385 . S
C633 C632 1.374 . S
C634 C631 1.499 . S
C634 C635 1.373 . S
C634 C636 1.389 . S
C635 H614 0.950 1_655 S
C635 C634 1.373 . S
C635 C651 1.376 . S
C636 C634 1.389 . S
C636 C637 1.524 . S
C636 C650 1.377 . S
C637 C636 1.524 . S
C637 C638 1.397 . S
C637 C642 1.363 . S
C638 H615 0.950 . S
C638 C637 1.397 . S
C638 C639 1.334 . S
C639 H616 0.950 . S
C639 C638 1.334 . S
C639 C640 1.287 . S
C640 C639 1.287 . S
C640 C641 1.524 . S
C640 H659 0.913 . S
C641 H617 0.950 . S
C641 C640 1.524 . S
C641 C642 1.415 . S
C642 H618 0.950 . S
C642 C637 1.363 . S
C642 C641 1.415 . S
C643 H619 0.951 . S
C643 C644 1.366 . S
C643 C645 1.388 . S
C644 C643 1.366 . S
C644 C648 1.385 1_455 S
C645 H620 0.951 . S
C645 C643 1.388 . S
C645 C646 1.366 1_455 S
C646 C645 1.366 1_655 S
C646 C647 1.414 . S
C646 C649 1.499 . S
C647 H621 0.950 . S
C647 C646 1.414 . S
C647 C648 1.374 . S
C648 H622 0.950 . S
C648 C644 1.385 1_655 S
C648 C647 1.374 . S
C649 C646 1.499 . S
C649 C650 1.373 . S
C649 C651 1.388 . S
C650 H623 0.950 . S
C650 C636 1.377 . S
C650 C649 1.373 . S
C651 C635 1.376 . S
C651 C649 1.388 . S
C651 C652 1.526 1_655 S
C652 C651 1.526 1_455 S
C652 C653 1.397 . S
C652 C657 1.363 . S
C653 H624 0.950 . S
C653 C652 1.397 . S
C653 C654 1.334 . S
C654 H625 0.950 . S
C654 C653 1.334 . S
C654 C655 1.287 . S
C655 C654 1.287 . S
C655 C656 1.524 . S
C655 H658 0.999 . S
C656 H626 0.950 . S
C656 C655 1.524 . S
C656 C657 1.415 . S
C657 H627 0.950 . S
C657 C652 1.363 . S
C657 C656 1.415 . S
H658 C655 0.999 . S
H659 C640 0.913 . S
H660 C678 0.951 . S
H661 C680 0.951 . S
H662 C682 0.950 . S
H663 C683 0.950 . S
H664 C685 0.950 1_655 S
H665 C688 0.950 . S
H666 C689 0.950 . S
H667 C691 0.950 . S
H668 C692 0.950 . S
H669 C693 0.951 . S
H670 C695 0.951 . S
H671 C697 0.950 . S
H672 C698 0.950 . S
H673 C700 0.950 . S
H674 C703 0.950 . S
H675 C704 0.950 . S
H676 C706 0.950 . S
H677 C707 0.950 . S
C678 H660 0.951 . S
C678 C679 1.366 . S
C678 C680 1.388 1_655 S
C679 C678 1.366 . S
C679 C683 1.385 . S
C680 H661 0.951 . S
C680 C678 1.388 1_455 S
C680 C681 1.366 . S
C681 C680 1.366 . S
C681 C682 1.414 . S
C681 C684 1.499 . S
C682 H662 0.950 . S
C682 C681 1.414 . S
C682 C683 1.374 1_455 S
C683 H663 0.950 . S
C683 C679 1.385 . S
C683 C682 1.374 1_655 S
C684 C681 1.499 . S
C684 C685 1.373 . S
C684 C686 1.389 . S
C685 H664 0.950 1_455 S
C685 C684 1.373 . S
C685 C701 1.377 . S
C686 C684 1.389 . S
C686 C687 1.524 . S
C686 C700 1.377 . S
C687 C686 1.524 . S
C687 C688 1.397 . S
C687 C692 1.363 . S
C688 H665 0.950 . S
C688 C687 1.397 . S
C688 C689 1.334 . S
C689 H666 0.950 . S
C689 C688 1.334 . S
C689 C690 1.287 . S
C690 C689 1.287 . S
C690 C691 1.524 . S
C690 H709 0.913 . S
C691 H667 0.950 . S
C691 C690 1.524 . S
C691 C692 1.415 . S
C692 H668 0.950 . S
C692 C687 1.363 . S
C692 C691 1.415 . S
C693 H669 0.951 . S
C693 C694 1.366 . S
C693 C695 1.388 . S
C694 C693 1.366 . S
C694 C698 1.385 . S
C695 H670 0.951 . S
C695 C693 1.388 . S
C695 C696 1.366 . S
C696 C695 1.366 . S
C696 C697 1.414 . S
C696 C699 1.499 . S
C697 H671 0.950 . S
C697 C696 1.414 . S
C697 C698 1.374 . S
C698 H672 0.950 . S
C698 C694 1.385 . S
C698 C697 1.374 . S
C699 C696 1.499 . S
C699 C700 1.373 . S
C699 C701 1.389 . S
C700 H673 0.950 . S
C700 C686 1.377 . S
C700 C699 1.373 . S
C701 C685 1.377 . S
C701 C699 1.389 . S
C701 C702 1.524 1_455 S
C702 C701 1.524 1_655 S
C702 C703 1.397 . S
C702 C707 1.363 . S
C703 H674 0.950 . S
C703 C702 1.397 . S
C703 C704 1.334 . S
C704 H675 0.950 . S
C704 C703 1.334 . S
C704 C705 1.287 . S
C705 C704 1.287 . S
C705 C706 1.524 . S
C705 H708 0.999 . S
C706 H676 0.950 . S
C706 C705 1.524 . S
C706 C707 1.415 . S
C707 H677 0.950 . S
C707 C702 1.363 . S
C707 C706 1.415 . S
H708 C705 0.999 . S
H709 C690 0.913 . S
H710 C728 0.951 . S
H711 C730 0.951 . S
H712 C732 0.950 . S
H713 C733 0.950 . S
H714 C735 0.950 . S
H715 C738 0.950 . S
H716 C739 0.950 . S
H717 C741 0.950 . S
H718 C742 0.950 . S
H719 C743 0.951 . S
H720 C745 0.951 . S
H721 C747 0.950 . S
H722 C748 0.950 . S
H723 C750 0.950 . S
H724 C753 0.950 . S
H725 C754 0.950 . S
H726 C756 0.950 . S
H727 C757 0.950 1_655 S
C728 H710 0.951 . S
C728 C729 1.366 . S
C728 C730 1.388 . S
C729 C728 1.366 . S
C729 C733 1.385 . S
C730 H711 0.951 . S
C730 C728 1.388 . S
C730 C731 1.366 . S
C731 C730 1.366 . S
C731 C732 1.414 . S
C731 C734 1.499 . S
C732 H712 0.950 . S
C732 C731 1.414 . S
C732 C733 1.374 . S
C733 H713 0.950 . S
C733 C729 1.385 . S
C733 C732 1.374 . S
C734 C731 1.499 . S
C734 C735 1.373 . S
C734 C736 1.389 . S
C735 H714 0.950 . S
C735 C734 1.373 . S
C735 C751 1.377 . S
C736 C734 1.389 . S
C736 C737 1.524 . S
C736 C750 1.377 . S
C737 C736 1.524 . S
C737 C738 1.397 . S
C737 C742 1.363 . S
C738 H715 0.950 . S
C738 C737 1.397 . S
C738 C739 1.334 . S
C739 H716 0.950 . S
C739 C738 1.334 . S
C739 C740 1.287 . S
C740 C739 1.287 . S
C740 C741 1.524 . S
C740 H759 0.913 . S
C741 H717 0.950 . S
C741 C740 1.524 . S
C741 C742 1.415 . S
C742 H718 0.950 . S
C742 C737 1.363 . S
C742 C741 1.415 . S
C743 H719 0.951 . S
C743 C744 1.366 . S
C743 C745 1.388 . S
C744 C743 1.366 . S
C744 C748 1.385 1_655 S
C745 H720 0.951 . S
C745 C743 1.388 . S
C745 C746 1.366 1_655 S
C746 C745 1.366 1_455 S
C746 C747 1.414 . S
C746 C749 1.499 . S
C747 H721 0.950 . S
C747 C746 1.414 . S
C747 C748 1.374 . S
C748 H722 0.950 . S
C748 C744 1.385 1_455 S
C748 C747 1.374 . S
C749 C746 1.499 . S
C749 C750 1.373 . S
C749 C751 1.389 . S
C750 H723 0.950 . S
C750 C736 1.377 . S
C750 C749 1.373 . S
C751 C735 1.377 . S
C751 C749 1.389 . S
C751 C752 1.524 . S
C752 C751 1.524 . S
C752 C753 1.397 . S
C752 C757 1.363 . S
C753 H724 0.950 . S
C753 C752 1.397 . S
C753 C754 1.334 . S
C754 H725 0.950 . S
C754 C753 1.334 . S
C754 C755 1.287 . S
C755 C754 1.287 . S
C755 C756 1.524 1_455 S
C755 H758 0.999 . S
C756 H726 0.950 . S
C756 C755 1.524 1_655 S
C756 C757 1.415 1_655 S
C757 H727 0.950 1_455 S
C757 C752 1.363 . S
C757 C756 1.415 1_455 S
H758 C755 0.999 . S
H759 C740 0.913 . S
C179 C42 1.503 1_554 S
C194 C17 1.503 . S
C229 C97 1.503 . S
C244 C122 1.503 . S
C279 C2 1.503 1_554 S
C294 C57 1.503 . S
C329 C137 1.503 . S
C344 C82 1.503 . S
C379 C128 1.220 . S
C394 C31 1.219 . S
C429 C48 1.220 . S
C444 C111 1.219 . S
C479 C52 1.219 . S
C494 C109 1.220 . S
C529 C132 1.219 . S
C544 C29 1.220 . S
C579 C71 1.219 . S
C594 C88 1.220 . S
C629 C151 1.219 . S
C644 C8 1.220 . S
C679 C149 1.220 . S
C694 C12 1.219 . S
C729 C92 1.219 . S
C744 C69 1.220 . S
