# Generated by pormake.
# Topology snl, (6)-cn, num edge types: 1
# Building blocks:
#     Node 0, Type 0, BuildingBlock: MIDCAF_clean_sbu_0, # of connection points: 6
#     Node 1, Type 0, BuildingBlock: MIDCAF_clean_sbu_0, # of connection points: 6
#     Node 2, Type 0, BuildingBlock: MIDCAF_clean_sbu_0, # of connection points: 6
#     Node 3, Type 0, BuildingBlock: MIDCAF_clean_sbu_0, # of connection points: 6
#     Node 4, Type 0, BuildingBlock: MIDCAF_clean_sbu_0, # of connection points: 6
#     Node 5, Type 0, BuildingBlock: MIDCAF_clean_sbu_0, # of connection points: 6
#     Node 6, Type 0, BuildingBlock: MIDCAF_clean_sbu_0, # of connection points: 6
#     Node 7, Type 0, BuildingBlock: MIDCAF_clean_sbu_0, # of connection points: 6
#     Node 8, Type 0, BuildingBlock: MIDCAF_clean_sbu_0, # of connection points: 6
#     Node 9, Type 0, BuildingBlock: MIDCAF_clean_sbu_0, # of connection points: 6
#     Node 10, Type 0, BuildingBlock: MIDCAF_clean_sbu_0, # of connection points: 6
#     Node 11, Type 0, BuildingBlock: MIDCAF_clean_sbu_0, # of connection points: 6
#     Node 12, Type 0, BuildingBlock: MIDCAF_clean_sbu_0, # of connection points: 6
#     Node 13, Type 0, BuildingBlock: MIDCAF_clean_sbu_0, # of connection points: 6
#     Node 14, Type 0, BuildingBlock: MIDCAF_clean_sbu_0, # of connection points: 6
#     Node 15, Type 0, BuildingBlock: MIDCAF_clean_sbu_0, # of connection points: 6
#     Edge 16, Type (0, 0), None
#     Edge 17, Type (0, 0), None
#     Edge 18, Type (0, 0), None
#     Edge 19, Type (0, 0), None
#     Edge 20, Type (0, 0), None
#     Edge 21, Type (0, 0), None
#     Edge 22, Type (0, 0), None
#     Edge 23, Type (0, 0), None
#     Edge 24, Type (0, 0), None
#     Edge 25, Type (0, 0), None
#     Edge 26, Type (0, 0), None
#     Edge 27, Type (0, 0), None
#     Edge 28, Type (0, 0), None
#     Edge 29, Type (0, 0), None
#     Edge 30, Type (0, 0), None
#     Edge 31, Type (0, 0), None
#     Edge 32, Type (0, 0), None
#     Edge 33, Type (0, 0), None
#     Edge 34, Type (0, 0), None
#     Edge 35, Type (0, 0), None
#     Edge 36, Type (0, 0), None
#     Edge 37, Type (0, 0), None
#     Edge 38, Type (0, 0), None
#     Edge 39, Type (0, 0), None
#     Edge 40, Type (0, 0), None
#     Edge 41, Type (0, 0), None
#     Edge 42, Type (0, 0), None
#     Edge 43, Type (0, 0), None
#     Edge 44, Type (0, 0), None
#     Edge 45, Type (0, 0), None
#     Edge 46, Type (0, 0), None
#     Edge 47, Type (0, 0), None
#     Edge 48, Type (0, 0), None
#     Edge 49, Type (0, 0), None
#     Edge 50, Type (0, 0), None
#     Edge 51, Type (0, 0), None
#     Edge 52, Type (0, 0), None
#     Edge 53, Type (0, 0), None
#     Edge 54, Type (0, 0), None
#     Edge 55, Type (0, 0), None
#     Edge 56, Type (0, 0), None
#     Edge 57, Type (0, 0), None
#     Edge 58, Type (0, 0), None
#     Edge 59, Type (0, 0), None
#     Edge 60, Type (0, 0), None
#     Edge 61, Type (0, 0), None
#     Edge 62, Type (0, 0), None
#     Edge 63, Type (0, 0), None
# Relax obj value: 0.110
# Max RMSD: 0.168
# Mean RMSD: 0.168
data_MOF--net-snl--node1-MIDCAF_clean_sbu_0--edge1-none
_symmetry_space_group_name_H-M    P1
_symmetry_Int_Tables_number       1
_symmetry_cell_setting            triclinic
loop_
_symmetry_equiv_pos_as_xyz
'x, y, z'
_cell_length_a     28.076776
_cell_length_b     27.201005
_cell_length_c     7.4720238
_cell_angle_alpha  90.826434
_cell_angle_beta   93.871047
_cell_angle_gamma 91.292493
loop_
_atom_site_label
_atom_site_type_symbol
_atom_site_fract_x
_atom_site_fract_y
_atom_site_fract_z
_atom_type_partial_charge
Zn0 Zn 0.11042 0.57967 0.26427 0.0
Zn1 Zn 0.2024 0.68964 0.92325 0.0
Zn2 Zn 0.14254 0.64009 0.07817 0.0
C3 C 0.11948 0.74571 0.92624 0.0
C4 C 0.2492 0.67361 0.23393 0.0
O5 O 0.13019 0.56897 0.93066 0.0
O6 O 0.08789 0.52617 0.11786 0.0
C7 C 0.04754 0.66075 0.22433 0.0
O8 O 0.10252 0.70801 0.00489 0.0
O9 O 0.16242 0.74676 0.88632 0.0
O10 O 0.25755 0.69475 0.09084 0.0
O11 O 0.20794 0.65367 0.25565 0.0
O12 O 0.06185 0.62543 0.31752 0.0
O13 O 0.07305 0.67608 0.09983 0.0
O14 O 0.17413 0.62975 0.37033 0.0
O15 O 0.14606 0.56037 0.48183 0.0
C16 C 0.17101 0.59923 0.50258 0.0
O17 O 0.15781 0.60388 0.81574 0.0
O18 O 0.21063 0.65428 0.70241 0.0
C19 C 0.10647 0.52983 0.97087 0.0
C20 C 0.18371 0.61679 0.68606 0.0
Zn21 Zn 0.64366 0.9282 0.34617 0.0
Zn22 Zn 0.49401 0.91739 0.9349 0.0
Zn23 Zn 0.59145 0.90478 0.10855 0.0
C24 C 0.49871 0.85108 0.18865 0.0
C25 C 0.55386 1.00131 0.14749 0.0
O26 O 0.66772 0.89047 0.07489 0.0
O27 O 0.70508 0.94933 0.2406 0.0
C28 C 0.64278 0.82472 0.28527 0.0
O29 O 0.53472 0.87357 0.26937 0.0
O30 O 0.50196 0.84563 0.02206 0.0
O31 O 0.51435 0.97866 0.10275 0.0
O32 O 0.5937 0.98091 0.12828 0.0
O33 O 0.64197 0.85523 0.41406 0.0
O34 O 0.63704 0.84103 0.12538 0.0
O35 O 0.55876 0.91256 0.37592 0.0
O36 O 0.61102 0.96212 0.53171 0.0
C37 C 0.57207 0.93745 0.52055 0.0
O38 O 0.57154 0.92199 0.8307 0.0
O39 O 0.50223 0.92764 0.67648 0.0
C40 C 0.70635 0.91465 0.12614 0.0
C41 C 0.54721 0.93038 0.6834 0.0
Zn42 Zn 0.51824 0.43594 0.8844 0.0
Zn43 Zn 0.3491 0.41218 0.4044 0.0
Zn44 Zn 0.4043 0.40866 0.66757 0.0
C45 C 0.42092 0.43673 0.25 0.0
C46 C 0.36659 0.31587 0.52651 0.0
O47 O 0.4341 0.42432 0.94402 0.0
O48 O 0.49698 0.43722 0.13444 0.0
C49 C 0.44106 0.50685 0.76726 0.0
O50 O 0.43524 0.42029 0.40495 0.0
O51 O 0.37803 0.4489 0.21673 0.0
O52 O 0.36517 0.33917 0.38119 0.0
O53 O 0.36836 0.34012 0.67534 0.0
O54 O 0.48508 0.49638 0.75932 0.0
O55 O 0.41206 0.4741 0.81912 0.0
O56 O 0.4625 0.38782 0.5126 0.0
O57 O 0.49962 0.36858 0.76304 0.0
C58 C 0.50066 0.37282 0.59549 0.0
O59 O 0.32912 0.38568 0.69112 0.0
O60 O 0.28212 0.4194 0.47962 0.0
C61 C 0.4521 0.43347 0.1043 0.0
C62 C 0.28719 0.39398 0.61996 0.0
Zn63 Zn 0.79183 0.19333 0.02682 0.0
Zn64 Zn 0.88139 0.06823 0.69568 0.0
Zn65 Zn 0.84873 0.1371 0.87076 0.0
C66 C 0.82371 0.10066 0.4446 0.0
C67 C 0.95089 0.14892 0.75535 0.0
O68 O 0.8332 0.10483 0.13101 0.0
O69 O 0.78993 0.16066 0.25898 0.0
C70 C 0.74178 0.16708 0.71907 0.0
O71 O 0.81746 0.1273 0.58604 0.0
O72 O 0.85083 0.06452 0.45471 0.0
O73 O 0.94333 0.10519 0.69927 0.0
O74 O 0.91835 0.17176 0.83314 0.0
O75 O 0.73432 0.18954 0.86244 0.0
O76 O 0.78286 0.14859 0.69634 0.0
O77 O 0.89295 0.20699 0.92929 0.0
O78 O 0.83521 0.25174 0.02638 0.0
C79 C 0.87805 0.24851 -0.01313 0.0
O80 O 0.85438 0.06588 0.035 0.0
O81 O 0.87528 1.01004 0.83946 0.0
C82 C 0.81161 0.12069 0.26715 0.0
C83 C 0.86306 0.02061 -0.00622 0.0
Zn84 Zn 0.06268 0.43518 0.52024 0.0
Zn85 Zn 0.20543 0.33289 0.00711 0.0
Zn86 Zn 0.14107 0.37872 0.81121 0.0
C87 C 0.17256 0.40666 0.21849 0.0
C88 C 0.1321 0.26665 0.95614 0.0
O89 O 0.16059 0.3968 0.5288 0.0
O90 O 0.11305 0.44555 0.35876 0.0
C91 C 0.10469 0.48623 0.86004 0.0
O92 O 0.15277 0.41962 0.0657 0.0
O93 O 0.19873 0.3697 0.22924 0.0
O94 O 0.17591 0.26631 0.0064 0.0
O95 O 0.11367 0.30521 0.885 0.0
O96 O 0.07795 0.48583 0.71673 0.0
O97 O 0.12634 0.44816 0.92081 0.0
O98 O 0.07605 0.33279 0.81656 0.0
O99 O 0.05893 0.36087 0.55778 0.0
C100 C 0.04338 0.34478 0.70063 0.0
O101 O 0.2031 0.38193 0.65389 0.0
O102 O 0.25611 0.354 0.85846 0.0
C103 C 0.15066 0.42109 0.38228 0.0
C104 C 0.24654 0.37494 0.71136 0.0
Zn105 Zn 0.94613 0.91735 0.3415 0.0
Zn106 Zn 0.81482 0.84384 0.93945 0.0
Zn107 Zn 0.86275 0.87654 0.16822 0.0
C108 C 0.87649 0.89619 0.76807 0.0
C109 C 0.84752 0.7667 0.10653 0.0
O110 O 0.87645 0.88975 0.45605 0.0
O111 O 0.93933 0.92647 0.60141 0.0
C112 C 0.86809 0.98106 0.12565 0.0
O113 O 0.90049 0.88813 0.91836 0.0
O114 O 0.83221 0.88769 0.75275 0.0
O115 O 0.8425 0.77878 0.94446 0.0
O116 O 0.84601 0.7998 0.2291 0.0
O117 O 0.91089 0.97166 0.18227 0.0
O118 O 0.83511 0.94742 0.12791 0.0
O119 O 0.93109 0.86559 0.04015 0.0
O120 O 0.94009 0.83956 0.30513 0.0
C121 C 0.95751 0.84258 0.15608 0.0
O122 O 0.79265 0.91514 0.12932 0.0
O123 O 0.75074 0.85123 0.01551 0.0
C124 C 0.89889 0.90509 0.6024 0.0
C125 C 0.75194 0.89383 0.08419 0.0
Zn126 Zn 0.32812 0.70599 0.73542 0.0
Zn127 Zn 0.43291 0.58227 0.34144 0.0
Zn128 Zn 0.39432 0.64497 0.48419 0.0
C129 C 0.37287 0.60487 0.07659 0.0
C130 C 0.49779 0.65836 0.40739 0.0
O131 O 0.38338 0.61978 0.76738 0.0
O132 O 0.32054 0.65021 0.89486 0.0
C133 C 0.28744 0.67266 0.37347 0.0
O134 O 0.35635 0.62373 0.21948 0.0
O135 O 0.41199 0.58316 0.08786 0.0
O136 O 0.49668 0.61203 0.40639 0.0
O137 O 0.459 0.68196 0.41329 0.0
O138 O 0.28394 0.69943 0.51166 0.0
O139 O 0.32568 0.64959 0.34335 0.0
O140 O 0.42575 0.71924 0.4735 0.0
O141 O 0.39938 0.72348 0.73362 0.0
C142 C 0.41225 0.74653 0.59932 0.0
O143 O 0.41594 0.58581 0.66942 0.0
O144 O 0.41958 0.52459 0.47402 0.0
C145 C 0.35544 0.6218 0.89903 0.0
C146 C 0.4224 0.54015 0.63338 0.0
Zn147 Zn 0.66819 0.1953 0.20655 0.0
Zn148 Zn 0.53299 0.09011 0.57338 0.0
Zn149 Zn 0.59472 0.14381 0.45193 0.0
C150 C 0.49159 0.17642 0.5503 0.0
C151 C 0.55279 0.04117 0.27936 0.0
O152 O 0.66344 0.14532 0.60101 0.0
O153 O 0.7111 0.18964 0.43443 0.0
C154 C 0.58984 0.24543 0.33619 0.0
O155 O 0.53587 0.18852 0.54176 0.0
O156 O 0.47814 0.13265 0.51839 0.0
O157 O 0.53255 0.03218 0.42085 0.0
O158 O 0.57515 0.08245 0.26197 0.0
O159 O 0.5997 0.21965 0.20303 0.0
O160 O 0.57433 0.22115 0.46535 0.0
O161 O 0.60112 0.11816 0.15915 0.0
O162 O 0.66863 0.13921 0.03598 0.0
C163 C 0.62853 0.11704 0.02509 0.0
O164 O 0.62897 0.11883 0.70571 0.0
O165 O 0.56391 0.09132 0.82574 0.0
C166 C 0.70408 0.16584 0.57503 0.0
C167 C 0.60755 0.1042 0.84355 0.0
Zn168 Zn 0.94711 0.45597 0.76824 0.0
Zn169 Zn 0.82687 0.33451 0.16358 0.0
Zn170 Zn 0.90426 0.39021 0.92087 0.0
C171 C 0.86102 0.41845 0.33712 0.0
C172 C 0.91008 0.29142 0.03716 0.0
O173 O 0.86917 0.40865 0.65307 0.0
O174 O 0.91168 0.46772 0.53509 0.0
C175 C 0.94231 0.49338 0.10309 0.0
O176 O 0.89022 0.41831 0.2082 0.0
O177 O 0.82383 0.39144 0.32715 0.0
O178 O 0.89717 0.31848 0.16211 0.0
O179 O 0.93115 0.31455 0.91723 0.0
O180 O 0.95981 0.50521 0.95876 0.0
O181 O 0.9199 0.45186 0.11425 0.0
O182 O 0.96936 0.35061 0.85139 0.0
O183 O 1.00068 0.41556 0.72618 0.0
C184 C 0.00304 0.37111 0.76799 0.0
O185 O 0.83642 0.38354 0.76716 0.0
O186 O 0.78624 0.34151 0.93171 0.0
C187 C 0.87838 0.43583 0.51839 0.0
C188 C 0.79513 0.36408 0.79034 0.0
Zn189 Zn 0.44958 0.12016 0.87937 0.0
Zn190 Zn 0.2936 0.1867 0.42019 0.0
Zn191 Zn 0.35921 0.15522 0.61394 0.0
C192 C 0.33491 0.12763 0.19947 0.0
C193 C 0.34885 0.26604 0.51938 0.0
O194 O 0.34036 0.13607 0.88624 0.0
O195 O 0.40341 0.1119 0.06063 0.0
C196 C 0.40308 0.05232 0.58737 0.0
O197 O 0.35449 0.11461 0.35311 0.0
O198 O 0.30516 0.16138 0.19049 0.0
O199 O 0.30629 0.25743 0.46127 0.0
O200 O 0.37665 0.23107 0.5659 0.0
O201 O 0.43417 0.06118 0.71523 0.0
O202 O 0.37727 0.08591 0.51376 0.0
O203 O 0.41843 0.20892 0.60289 0.0
O204 O 0.46749 0.19238 0.82646 0.0
C205 C 0.46182 0.20456 0.66437 0.0
O206 O 0.29404 0.15609 0.75526 0.0
O207 O 0.24046 0.15788 0.524 0.0
C208 C 0.35927 0.11985 0.03649 0.0
C209 C 0.25045 0.15364 0.68863 0.0
Zn210 Zn 0.54614 0.61097 0.08657 0.0
Zn211 Zn 0.69159 0.70035 0.53611 0.0
Zn212 Zn 0.64286 0.66485 0.29112 0.0
C213 C 0.63094 0.65078 0.71373 0.0
C214 C 0.65507 0.7742 0.32693 0.0
O215 O 0.61871 0.64796 0.02179 0.0
O216 O 0.56282 0.61546 0.83266 0.0
C217 C 0.63752 0.55569 0.26242 0.0
O218 O 0.61125 0.65261 0.55264 0.0
O219 O 0.67337 0.66562 0.74771 0.0
O220 O 0.66402 0.76477 0.49021 0.0
O221 O 0.6545 0.73965 0.20915 0.0
O222 O 0.59295 0.56146 0.22167 0.0
O223 O 0.66774 0.59217 0.26162 0.0
O224 O 0.57924 0.66797 0.42927 0.0
O225 O 0.54059 0.68326 0.17793 0.0
C226 C 0.54043 0.68113 0.34576 0.0
O227 O 0.71049 0.62606 0.31374 0.0
O228 O 0.75359 0.68571 0.45255 0.0
C229 C 0.60301 0.63718 0.86137 0.0
C230 C 0.75124 0.64514 0.36866 0.0
Zn231 Zn 0.16237 0.85497 0.82169 0.0
Zn232 Zn 0.05852 0.93264 0.23911 0.0
Zn233 Zn 0.10587 0.89381 0.03717 0.0
C234 C 0.00903 0.85379 0.17137 0.0
C235 C 0.05136 0.98658 0.94863 0.0
O236 O 0.17184 0.88751 0.19638 0.0
O237 O 0.21291 0.84347 0.00924 0.0
C238 C 0.09169 0.78915 0.87674 0.0
O239 O 0.03499 0.85525 0.03729 0.0
O240 O 0.02497 0.87373 0.31672 0.0
O241 O 0.02505 0.97635 0.07316 0.0
O242 O 0.08639 0.95956 0.91196 0.0
O243 O 0.10608 0.81005 0.74044 0.0
O244 O 0.08138 0.81721 0.00586 0.0
O245 O 0.11659 0.93096 0.76671 0.0
O246 O 0.18138 0.90249 0.65077 0.0
C247 C 0.14588 0.92976 0.63856 0.0
O248 O 0.13909 0.9132 0.32177 0.0
O249 O 0.09205 0.96767 0.43885 0.0
C250 C 0.21024 0.86612 0.15636 0.0
C251 C 0.12842 0.94165 0.45471 0.0
Zn252 Zn 0.85321 0.61329 0.07774 0.0
Zn253 Zn 0.00342 0.60549 0.49538 0.0
Zn254 Zn 0.90824 0.63122 0.31894 0.0
C255 C 0.00103 0.6802 0.26679 0.0
C256 C 0.94227 0.53128 0.24379 0.0
O257 O 0.83474 0.64909 0.36155 0.0
O258 O 0.79537 0.59063 0.20018 0.0
C259 C 0.85688 0.71506 0.14228 0.0
O260 O 0.96538 0.66339 0.16766 0.0
O261 O 0.99481 0.67938 0.43205 0.0
O262 O 0.98259 0.54814 0.31011 0.0
O263 O 0.90435 0.55598 0.25415 0.0
O264 O 0.85487 0.68541 0.0105 0.0
O265 O 0.865 0.69777 0.29992 0.0
O266 O 0.94015 0.6234 0.05151 0.0
O267 O 0.88391 0.57928 0.89175 0.0
C268 C 0.92444 0.60087 0.90466 0.0
O269 O 0.92804 0.61469 0.59604 0.0
O270 O 0.99439 0.59445 0.75067 0.0
C271 C 0.79579 0.62489 0.31678 0.0
C272 C 0.95046 0.60353 0.74445 0.0
Zn273 Zn 0.04179 0.10075 0.6022 0.0
Zn274 Zn 0.18289 0.18032 0.16966 0.0
Zn275 Zn 0.10035 0.13188 0.83719 0.0
C276 C 0.10153 0.22455 -0.00525 0.0
C277 C 0.21099 0.15354 0.80114 0.0
O278 O 0.08339 0.06572 0.94648 0.0
O279 O 0.02244 0.0454 0.75202 0.0
C280 C 0.99558 0.17252 0.70651 0.0
O281 O 0.07519 0.20514 0.86762 0.0
O282 O 0.11464 0.19613 0.11861 0.0
O283 O 0.21985 0.17025 0.95885 0.0
O284 O 0.1688 0.14102 0.73419 0.0
O285 O 0.00491 0.16156 0.54892 0.0
O286 O 0.03057 0.17174 0.82629 0.0
O287 O 0.1327 0.11317 0.5722 0.0
O288 O 0.07429 0.07486 0.407 0.0
C289 C 0.11695 0.08985 0.42566 0.0
O290 O 0.11384 0.09881 0.11258 0.0
O291 O 0.18212 0.11481 0.27667 0.0
C292 C 0.05064 0.03557 0.88445 0.0
C293 C 0.1413 0.09434 0.25873 0.0
Zn294 Zn 0.61534 0.46459 0.6398 0.0
Zn295 Zn 0.70845 0.34248 0.33131 0.0
Zn296 Zn 0.65221 0.39871 0.49214 0.0
C297 C 0.68496 0.41361 0.0891 0.0
C298 C 0.62208 0.28836 0.37718 0.0
O299 O 0.6859 0.41102 0.76899 0.0
O300 O 0.63146 0.45465 0.89491 0.0
C301 C 0.64839 0.51461 0.38233 0.0
O302 O 0.66288 0.42827 0.22536 0.0
O303 O 0.71133 0.37682 0.10115 0.0
O304 O 0.66353 0.28566 0.32259 0.0
O305 O 0.60856 0.32887 0.44696 0.0
O306 O 0.64541 0.52413 0.5461 0.0
O307 O 0.64567 0.46914 0.32811 0.0
O308 O 0.5825 0.36765 0.53495 0.0
O309 O 0.54974 0.44036 0.54377 0.0
C310 C 0.5452 0.39397 0.538 0.0
O311 O 0.7185 0.38676 0.66454 0.0
O312 O 0.76418 0.34051 0.50374 0.0
C313 C 0.66906 0.43029 0.91006 0.0
C314 C 0.75798 0.36453 0.64503 0.0
Zn315 Zn 0.30319 0.84687 0.57241 0.0
Zn316 Zn 0.39436 0.95048 0.22215 0.0
Zn317 Zn 0.36001 0.89656 0.4151 0.0
C318 C 0.3304 0.93685 -0.00278 0.0
C319 C 0.45207 0.87008 0.23415 0.0
O320 O 0.34538 0.9334 0.68174 0.0
O321 O 0.29696 0.8788 0.79763 0.0
C322 C 0.25057 0.86483 0.28574 0.0
O323 O 0.32646 0.90599 0.12802 0.0
O324 O 0.35513 0.97583 0.02148 0.0
O325 O 0.43489 0.90142 0.12872 0.0
O326 O 0.43084 0.86112 0.37801 0.0
O327 O 0.24387 0.8456 0.43354 0.0
O328 O 0.29203 0.8823 0.25013 0.0
O329 O 0.40082 0.82877 0.48262 0.0
O330 O 0.34056 0.78753 0.58793 0.0
C331 C 0.38346 0.78926 0.54858 0.0
O332 O 0.37305 0.96964 0.54653 0.0
O333 O 0.42602 1.00034 0.36829 0.0
C334 C 0.32062 0.91846 0.81258 0.0
C335 C 0.40223 1.00429 0.50356 0.0
loop_
_geom_bond_atom_site_label_1
_geom_bond_atom_site_label_2
_geom_bond_distance
_geom_bond_site_symmetry_2
_ccdc_geom_bond_type
Zn0 O6 1.920 . S
Zn0 O12 1.898 . S
Zn0 O15 1.905 . S
Zn1 O9 1.905 . S
Zn1 O10 1.898 1_556 S
Zn1 O18 1.920 . S
Zn2 O5 2.080 . S
Zn2 O8 2.114 . S
Zn2 O11 2.120 . S
Zn2 O13 2.120 . S
Zn2 O14 2.114 . S
Zn2 O17 2.080 1_554 S
C3 O8 1.166 . S
C3 O9 1.182 1_554 S
C4 O10 1.167 . S
C4 O11 1.299 . S
O5 Zn2 2.080 . S
O5 C19 1.305 . S
O6 Zn0 1.920 . S
O6 C19 1.234 . S
C7 O12 1.167 . S
C7 O13 1.299 . S
O8 Zn2 2.114 . S
O8 C3 1.166 . S
O9 Zn1 1.905 . S
O9 C3 1.182 1_556 S
O10 Zn1 1.898 1_554 S
O10 C4 1.167 . S
O11 Zn2 2.120 . S
O11 C4 1.299 . S
O12 Zn0 1.898 . S
O12 C7 1.167 . S
O13 Zn2 2.120 . S
O13 C7 1.299 . S
O14 Zn2 2.114 . S
O14 C16 1.166 . S
O15 Zn0 1.905 . S
O15 C16 1.182 . S
C16 O14 1.166 . S
C16 O15 1.182 . S
O17 Zn2 2.080 1_556 S
O17 C20 1.305 . S
O18 Zn1 1.920 . S
O18 C20 1.234 . S
C19 O5 1.305 . S
C19 O6 1.234 . S
C20 O17 1.305 . S
C20 O18 1.234 . S
Zn21 O27 1.920 . S
Zn21 O33 1.898 . S
Zn21 O36 1.905 . S
Zn22 O30 1.905 . S
Zn22 O31 1.898 . S
Zn22 O39 1.920 1_554 S
Zn23 O26 2.080 . S
Zn23 O29 2.114 . S
Zn23 O32 2.120 . S
Zn23 O34 2.120 . S
Zn23 O35 2.114 . S
Zn23 O38 2.080 . S
C24 O29 1.166 . S
C24 O30 1.182 . S
C25 O31 1.167 . S
C25 O32 1.299 . S
O26 Zn23 2.080 . S
O26 C40 1.305 . S
O27 Zn21 1.920 . S
O27 C40 1.234 . S
C28 O33 1.167 . S
C28 O34 1.299 . S
O29 Zn23 2.114 . S
O29 C24 1.166 . S
O30 Zn22 1.905 . S
O30 C24 1.182 . S
O31 Zn22 1.898 . S
O31 C25 1.167 . S
O32 Zn23 2.120 . S
O32 C25 1.299 . S
O33 Zn21 1.898 . S
O33 C28 1.167 . S
O34 Zn23 2.120 . S
O34 C28 1.299 . S
O35 Zn23 2.114 . S
O35 C37 1.166 . S
O36 Zn21 1.905 . S
O36 C37 1.182 . S
C37 O35 1.166 . S
C37 O36 1.182 . S
O38 Zn23 2.080 . S
O38 C41 1.305 1_554 S
O39 Zn22 1.920 1_556 S
O39 C41 1.234 . S
C40 O26 1.305 . S
C40 O27 1.234 . S
C41 O38 1.305 1_556 S
C41 O39 1.234 . S
Zn42 O48 1.920 1_556 S
Zn42 O54 1.898 . S
Zn42 O57 1.905 . S
Zn43 O51 1.905 . S
Zn43 O52 1.898 . S
Zn43 O60 1.920 . S
Zn44 O47 2.080 . S
Zn44 O50 2.114 . S
Zn44 O53 2.120 . S
Zn44 O55 2.120 . S
Zn44 O56 2.114 . S
Zn44 O59 2.080 . S
C45 O50 1.166 . S
C45 O51 1.182 . S
C46 O52 1.167 . S
C46 O53 1.299 . S
O47 Zn44 2.080 . S
O47 C61 1.305 1_556 S
O48 Zn42 1.920 1_554 S
O48 C61 1.234 . S
C49 O54 1.167 . S
C49 O55 1.299 . S
O50 Zn44 2.114 . S
O50 C45 1.166 . S
O51 Zn43 1.905 . S
O51 C45 1.182 . S
O52 Zn43 1.898 . S
O52 C46 1.167 . S
O53 Zn44 2.120 . S
O53 C46 1.299 . S
O54 Zn42 1.898 . S
O54 C49 1.167 . S
O55 Zn44 2.120 . S
O55 C49 1.299 . S
O56 Zn44 2.114 . S
O56 C58 1.166 . S
O57 Zn42 1.905 . S
O57 C58 1.182 . S
C58 O56 1.166 . S
C58 O57 1.182 . S
O59 Zn44 2.080 . S
O59 C62 1.305 . S
O60 Zn43 1.920 . S
O60 C62 1.234 . S
C61 O47 1.305 1_554 S
C61 O48 1.234 . S
C62 O59 1.305 . S
C62 O60 1.234 . S
Zn63 O69 1.920 . S
Zn63 O75 1.898 1_554 S
Zn63 O78 1.905 . S
Zn64 O72 1.905 . S
Zn64 O73 1.898 . S
Zn64 O81 1.920 . S
Zn65 O68 2.080 1_556 S
Zn65 O71 2.114 . S
Zn65 O74 2.120 . S
Zn65 O76 2.120 . S
Zn65 O77 2.114 . S
Zn65 O80 2.080 . S
C66 O71 1.166 . S
C66 O72 1.182 . S
C67 O73 1.167 . S
C67 O74 1.299 . S
O68 Zn65 2.080 1_554 S
O68 C82 1.305 . S
O69 Zn63 1.920 . S
O69 C82 1.234 . S
C70 O75 1.167 . S
C70 O76 1.299 . S
O71 Zn65 2.114 . S
O71 C66 1.166 . S
O72 Zn64 1.905 . S
O72 C66 1.182 . S
O73 Zn64 1.898 . S
O73 C67 1.167 . S
O74 Zn65 2.120 . S
O74 C67 1.299 . S
O75 Zn63 1.898 1_556 S
O75 C70 1.167 . S
O76 Zn65 2.120 . S
O76 C70 1.299 . S
O77 Zn65 2.114 . S
O77 C79 1.166 . S
O78 Zn63 1.905 . S
O78 C79 1.182 1_554 S
C79 O77 1.166 . S
C79 O78 1.182 1_556 S
O80 Zn65 2.080 . S
O80 C83 1.305 . S
O81 Zn64 1.920 . S
O81 C83 1.234 . S
C82 O68 1.305 . S
C82 O69 1.234 . S
C83 O80 1.305 . S
C83 O81 1.234 . S
Zn84 O90 1.920 . S
Zn84 O96 1.898 . S
Zn84 O99 1.905 . S
Zn85 O93 1.905 . S
Zn85 O94 1.898 . S
Zn85 O102 1.920 1_554 S
Zn86 O89 2.080 . S
Zn86 O92 2.114 1_556 S
Zn86 O95 2.120 . S
Zn86 O97 2.120 . S
Zn86 O98 2.114 . S
Zn86 O101 2.080 . S
C87 O92 1.166 . S
C87 O93 1.182 . S
C88 O94 1.167 1_556 S
C88 O95 1.299 . S
O89 Zn86 2.080 . S
O89 C103 1.305 . S
O90 Zn84 1.920 . S
O90 C103 1.234 . S
C91 O96 1.167 . S
C91 O97 1.299 . S
O92 Zn86 2.114 1_554 S
O92 C87 1.166 . S
O93 Zn85 1.905 . S
O93 C87 1.182 . S
O94 Zn85 1.898 . S
O94 C88 1.167 1_554 S
O95 Zn86 2.120 . S
O95 C88 1.299 . S
O96 Zn84 1.898 . S
O96 C91 1.167 . S
O97 Zn86 2.120 . S
O97 C91 1.299 . S
O98 Zn86 2.114 . S
O98 C100 1.166 . S
O99 Zn84 1.905 . S
O99 C100 1.182 . S
C100 O98 1.166 . S
C100 O99 1.182 . S
O101 Zn86 2.080 . S
O101 C104 1.305 . S
O102 Zn85 1.920 1_556 S
O102 C104 1.234 . S
C103 O89 1.305 . S
C103 O90 1.234 . S
C104 O101 1.305 . S
C104 O102 1.234 . S
Zn105 O111 1.920 . S
Zn105 O117 1.898 . S
Zn105 O120 1.905 . S
Zn106 O114 1.905 . S
Zn106 O115 1.898 . S
Zn106 O123 1.920 1_556 S
Zn107 O110 2.080 . S
Zn107 O113 2.114 1_554 S
Zn107 O116 2.120 . S
Zn107 O118 2.120 . S
Zn107 O119 2.114 . S
Zn107 O122 2.080 . S
C108 O113 1.166 . S
C108 O114 1.182 . S
C109 O115 1.167 1_554 S
C109 O116 1.299 . S
O110 Zn107 2.080 . S
O110 C124 1.305 . S
O111 Zn105 1.920 . S
O111 C124 1.234 . S
C112 O117 1.167 . S
C112 O118 1.299 . S
O113 Zn107 2.114 1_556 S
O113 C108 1.166 . S
O114 Zn106 1.905 . S
O114 C108 1.182 . S
O115 Zn106 1.898 . S
O115 C109 1.167 1_556 S
O116 Zn107 2.120 . S
O116 C109 1.299 . S
O117 Zn105 1.898 . S
O117 C112 1.167 . S
O118 Zn107 2.120 . S
O118 C112 1.299 . S
O119 Zn107 2.114 . S
O119 C121 1.166 . S
O120 Zn105 1.905 . S
O120 C121 1.182 . S
C121 O119 1.166 . S
C121 O120 1.182 . S
O122 Zn107 2.080 . S
O122 C125 1.305 . S
O123 Zn106 1.920 1_554 S
O123 C125 1.234 . S
C124 O110 1.305 . S
C124 O111 1.234 . S
C125 O122 1.305 . S
C125 O123 1.234 . S
Zn126 O132 1.920 . S
Zn126 O138 1.898 . S
Zn126 O141 1.905 . S
Zn127 O135 1.905 1_554 S
Zn127 O136 1.898 . S
Zn127 O144 1.920 . S
Zn128 O131 2.080 . S
Zn128 O134 2.114 . S
Zn128 O137 2.120 . S
Zn128 O139 2.120 . S
Zn128 O140 2.114 . S
Zn128 O143 2.080 . S
C129 O134 1.166 1_556 S
C129 O135 1.182 . S
C130 O136 1.167 . S
C130 O137 1.299 . S
O131 Zn128 2.080 . S
O131 C145 1.305 . S
O132 Zn126 1.920 . S
O132 C145 1.234 . S
C133 O138 1.167 . S
C133 O139 1.299 . S
O134 Zn128 2.114 . S
O134 C129 1.166 1_554 S
O135 Zn127 1.905 1_556 S
O135 C129 1.182 . S
O136 Zn127 1.898 . S
O136 C130 1.167 . S
O137 Zn128 2.120 . S
O137 C130 1.299 . S
O138 Zn126 1.898 . S
O138 C133 1.167 . S
O139 Zn128 2.120 . S
O139 C133 1.299 . S
O140 Zn128 2.114 . S
O140 C142 1.166 . S
O141 Zn126 1.905 . S
O141 C142 1.182 . S
C142 O140 1.166 . S
C142 O141 1.182 . S
O143 Zn128 2.080 . S
O143 C146 1.305 . S
O144 Zn127 1.920 . S
O144 C146 1.234 . S
C145 O131 1.305 . S
C145 O132 1.234 . S
C146 O143 1.305 . S
C146 O144 1.234 . S
Zn147 O153 1.920 . S
Zn147 O159 1.898 . S
Zn147 O162 1.905 . S
Zn148 O156 1.905 . S
Zn148 O157 1.898 . S
Zn148 O165 1.920 1_556 S
Zn149 O152 2.080 . S
Zn149 O155 2.114 . S
Zn149 O158 2.120 . S
Zn149 O160 2.120 . S
Zn149 O161 2.114 . S
Zn149 O164 2.080 . S
C150 O155 1.166 . S
C150 O156 1.182 . S
C151 O157 1.167 . S
C151 O158 1.299 . S
O152 Zn149 2.080 . S
O152 C166 1.305 . S
O153 Zn147 1.920 . S
O153 C166 1.234 . S
C154 O159 1.167 . S
C154 O160 1.299 . S
O155 Zn149 2.114 . S
O155 C150 1.166 . S
O156 Zn148 1.905 . S
O156 C150 1.182 . S
O157 Zn148 1.898 . S
O157 C151 1.167 . S
O158 Zn149 2.120 . S
O158 C151 1.299 . S
O159 Zn147 1.898 . S
O159 C154 1.167 . S
O160 Zn149 2.120 . S
O160 C154 1.299 . S
O161 Zn149 2.114 . S
O161 C163 1.166 . S
O162 Zn147 1.905 . S
O162 C163 1.182 . S
C163 O161 1.166 . S
C163 O162 1.182 . S
O164 Zn149 2.080 . S
O164 C167 1.305 1_556 S
O165 Zn148 1.920 1_554 S
O165 C167 1.234 . S
C166 O152 1.305 . S
C166 O153 1.234 . S
C167 O164 1.305 1_554 S
C167 O165 1.234 . S
Zn168 O174 1.920 . S
Zn168 O180 1.898 . S
Zn168 O183 1.905 . S
Zn169 O177 1.905 . S
Zn169 O178 1.898 . S
Zn169 O186 1.920 1_554 S
Zn170 O173 2.080 . S
Zn170 O176 2.114 1_556 S
Zn170 O179 2.120 . S
Zn170 O181 2.120 . S
Zn170 O182 2.114 . S
Zn170 O185 2.080 . S
C171 O176 1.166 . S
C171 O177 1.182 . S
C172 O178 1.167 1_556 S
C172 O179 1.299 . S
O173 Zn170 2.080 . S
O173 C187 1.305 . S
O174 Zn168 1.920 . S
O174 C187 1.234 . S
C175 O180 1.167 . S
C175 O181 1.299 . S
O176 Zn170 2.114 1_554 S
O176 C171 1.166 . S
O177 Zn169 1.905 . S
O177 C171 1.182 . S
O178 Zn169 1.898 . S
O178 C172 1.167 1_554 S
O179 Zn170 2.120 . S
O179 C172 1.299 . S
O180 Zn168 1.898 . S
O180 C175 1.167 . S
O181 Zn170 2.120 . S
O181 C175 1.299 . S
O182 Zn170 2.114 . S
O182 C184 1.166 . S
O183 Zn168 1.905 . S
O183 C184 1.182 . S
C184 O182 1.166 . S
C184 O183 1.182 . S
O185 Zn170 2.080 . S
O185 C188 1.305 . S
O186 Zn169 1.920 1_556 S
O186 C188 1.234 . S
C187 O173 1.305 . S
C187 O174 1.234 . S
C188 O185 1.305 . S
C188 O186 1.234 . S
Zn189 O195 1.920 1_556 S
Zn189 O201 1.898 . S
Zn189 O204 1.905 . S
Zn190 O198 1.905 . S
Zn190 O199 1.898 . S
Zn190 O207 1.920 . S
Zn191 O194 2.080 . S
Zn191 O197 2.114 . S
Zn191 O200 2.120 . S
Zn191 O202 2.120 . S
Zn191 O203 2.114 . S
Zn191 O206 2.080 . S
C192 O197 1.166 . S
C192 O198 1.182 . S
C193 O199 1.167 . S
C193 O200 1.299 . S
O194 Zn191 2.080 . S
O194 C208 1.305 1_556 S
O195 Zn189 1.920 1_554 S
O195 C208 1.234 . S
C196 O201 1.167 . S
C196 O202 1.299 . S
O197 Zn191 2.114 . S
O197 C192 1.166 . S
O198 Zn190 1.905 . S
O198 C192 1.182 . S
O199 Zn190 1.898 . S
O199 C193 1.167 . S
O200 Zn191 2.120 . S
O200 C193 1.299 . S
O201 Zn189 1.898 . S
O201 C196 1.167 . S
O202 Zn191 2.120 . S
O202 C196 1.299 . S
O203 Zn191 2.114 . S
O203 C205 1.166 . S
O204 Zn189 1.905 . S
O204 C205 1.182 . S
C205 O203 1.166 . S
C205 O204 1.182 . S
O206 Zn191 2.080 . S
O206 C209 1.305 . S
O207 Zn190 1.920 . S
O207 C209 1.234 . S
C208 O194 1.305 1_554 S
C208 O195 1.234 . S
C209 O206 1.305 . S
C209 O207 1.234 . S
Zn210 O216 1.920 1_554 S
Zn210 O222 1.898 . S
Zn210 O225 1.905 . S
Zn211 O219 1.905 . S
Zn211 O220 1.898 . S
Zn211 O228 1.920 . S
Zn212 O215 2.080 . S
Zn212 O218 2.114 . S
Zn212 O221 2.120 . S
Zn212 O223 2.120 . S
Zn212 O224 2.114 . S
Zn212 O227 2.080 . S
C213 O218 1.166 . S
C213 O219 1.182 . S
C214 O220 1.167 . S
C214 O221 1.299 . S
O215 Zn212 2.080 . S
O215 C229 1.305 1_554 S
O216 Zn210 1.920 1_556 S
O216 C229 1.234 . S
C217 O222 1.167 . S
C217 O223 1.299 . S
O218 Zn212 2.114 . S
O218 C213 1.166 . S
O219 Zn211 1.905 . S
O219 C213 1.182 . S
O220 Zn211 1.898 . S
O220 C214 1.167 . S
O221 Zn212 2.120 . S
O221 C214 1.299 . S
O222 Zn210 1.898 . S
O222 C217 1.167 . S
O223 Zn212 2.120 . S
O223 C217 1.299 . S
O224 Zn212 2.114 . S
O224 C226 1.166 . S
O225 Zn210 1.905 . S
O225 C226 1.182 . S
C226 O224 1.166 . S
C226 O225 1.182 . S
O227 Zn212 2.080 . S
O227 C230 1.305 . S
O228 Zn211 1.920 . S
O228 C230 1.234 . S
C229 O215 1.305 1_556 S
C229 O216 1.234 . S
C230 O227 1.305 . S
C230 O228 1.234 . S
Zn231 O237 1.920 1_556 S
Zn231 O243 1.898 . S
Zn231 O246 1.905 . S
Zn232 O240 1.905 . S
Zn232 O241 1.898 . S
Zn232 O249 1.920 . S
Zn233 O236 2.080 . S
Zn233 O239 2.114 . S
Zn233 O242 2.120 . S
Zn233 O244 2.120 . S
Zn233 O245 2.114 1_554 S
Zn233 O248 2.080 . S
C234 O239 1.166 . S
C234 O240 1.182 . S
C235 O241 1.167 . S
C235 O242 1.299 . S
O236 Zn233 2.080 . S
O236 C250 1.305 . S
O237 Zn231 1.920 1_554 S
O237 C250 1.234 . S
C238 O243 1.167 1_554 S
C238 O244 1.299 . S
O239 Zn233 2.114 . S
O239 C234 1.166 . S
O240 Zn232 1.905 . S
O240 C234 1.182 . S
O241 Zn232 1.898 . S
O241 C235 1.167 . S
O242 Zn233 2.120 . S
O242 C235 1.299 . S
O243 Zn231 1.898 . S
O243 C238 1.167 1_556 S
O244 Zn233 2.120 . S
O244 C238 1.299 . S
O245 Zn233 2.114 1_556 S
O245 C247 1.166 . S
O246 Zn231 1.905 . S
O246 C247 1.182 . S
C247 O245 1.166 . S
C247 O246 1.182 . S
O248 Zn233 2.080 . S
O248 C251 1.305 . S
O249 Zn232 1.920 . S
O249 C251 1.234 . S
C250 O236 1.305 . S
C250 O237 1.234 . S
C251 O248 1.305 . S
C251 O249 1.234 . S
Zn252 O258 1.920 1_556 S
Zn252 O264 1.898 . S
Zn252 O267 1.905 . S
Zn253 O261 1.905 . S
Zn253 O262 1.898 . S
Zn253 O270 1.920 . S
Zn254 O257 2.080 . S
Zn254 O260 2.114 . S
Zn254 O263 2.120 . S
Zn254 O265 2.120 . S
Zn254 O266 2.114 1_554 S
Zn254 O269 2.080 . S
C255 O260 1.166 . S
C255 O261 1.182 . S
C256 O262 1.167 . S
C256 O263 1.299 . S
O257 Zn254 2.080 . S
O257 C271 1.305 . S
O258 Zn252 1.920 1_554 S
O258 C271 1.234 . S
C259 O264 1.167 1_554 S
C259 O265 1.299 . S
O260 Zn254 2.114 . S
O260 C255 1.166 . S
O261 Zn253 1.905 . S
O261 C255 1.182 . S
O262 Zn253 1.898 . S
O262 C256 1.167 . S
O263 Zn254 2.120 . S
O263 C256 1.299 . S
O264 Zn252 1.898 . S
O264 C259 1.167 1_556 S
O265 Zn254 2.120 . S
O265 C259 1.299 . S
O266 Zn254 2.114 1_556 S
O266 C268 1.166 . S
O267 Zn252 1.905 . S
O267 C268 1.182 . S
C268 O266 1.166 . S
C268 O267 1.182 . S
O269 Zn254 2.080 . S
O269 C272 1.305 . S
O270 Zn253 1.920 . S
O270 C272 1.234 . S
C271 O257 1.305 . S
C271 O258 1.234 . S
C272 O269 1.305 . S
C272 O270 1.234 . S
Zn273 O279 1.920 . S
Zn273 O285 1.898 . S
Zn273 O288 1.905 . S
Zn274 O282 1.905 . S
Zn274 O283 1.898 1_554 S
Zn274 O291 1.920 . S
Zn275 O278 2.080 . S
Zn275 O281 2.114 . S
Zn275 O284 2.120 . S
Zn275 O286 2.120 . S
Zn275 O287 2.114 . S
Zn275 O290 2.080 1_556 S
C276 O281 1.166 . S
C276 O282 1.182 1_556 S
C277 O283 1.167 . S
C277 O284 1.299 . S
O278 Zn275 2.080 . S
O278 C292 1.305 . S
O279 Zn273 1.920 . S
O279 C292 1.234 . S
C280 O285 1.167 . S
C280 O286 1.299 . S
O281 Zn275 2.114 . S
O281 C276 1.166 . S
O282 Zn274 1.905 . S
O282 C276 1.182 1_554 S
O283 Zn274 1.898 1_556 S
O283 C277 1.167 . S
O284 Zn275 2.120 . S
O284 C277 1.299 . S
O285 Zn273 1.898 . S
O285 C280 1.167 . S
O286 Zn275 2.120 . S
O286 C280 1.299 . S
O287 Zn275 2.114 . S
O287 C289 1.166 . S
O288 Zn273 1.905 . S
O288 C289 1.182 . S
C289 O287 1.166 . S
C289 O288 1.182 . S
O290 Zn275 2.080 1_554 S
O290 C293 1.305 . S
O291 Zn274 1.920 . S
O291 C293 1.234 . S
C292 O278 1.305 . S
C292 O279 1.234 . S
C293 O290 1.305 . S
C293 O291 1.234 . S
Zn294 O300 1.920 1_556 S
Zn294 O306 1.898 . S
Zn294 O309 1.905 . S
Zn295 O303 1.905 . S
Zn295 O304 1.898 . S
Zn295 O312 1.920 . S
Zn296 O299 2.080 . S
Zn296 O302 2.114 . S
Zn296 O305 2.120 . S
Zn296 O307 2.120 . S
Zn296 O308 2.114 . S
Zn296 O311 2.080 . S
C297 O302 1.166 . S
C297 O303 1.182 . S
C298 O304 1.167 . S
C298 O305 1.299 . S
O299 Zn296 2.080 . S
O299 C313 1.305 1_556 S
O300 Zn294 1.920 1_554 S
O300 C313 1.234 . S
C301 O306 1.167 . S
C301 O307 1.299 . S
O302 Zn296 2.114 . S
O302 C297 1.166 . S
O303 Zn295 1.905 . S
O303 C297 1.182 . S
O304 Zn295 1.898 . S
O304 C298 1.167 . S
O305 Zn296 2.120 . S
O305 C298 1.299 . S
O306 Zn294 1.898 . S
O306 C301 1.167 . S
O307 Zn296 2.120 . S
O307 C301 1.299 . S
O308 Zn296 2.114 . S
O308 C310 1.166 . S
O309 Zn294 1.905 . S
O309 C310 1.182 . S
C310 O308 1.166 . S
C310 O309 1.182 . S
O311 Zn296 2.080 . S
O311 C314 1.305 . S
O312 Zn295 1.920 . S
O312 C314 1.234 . S
C313 O299 1.305 1_554 S
C313 O300 1.234 . S
C314 O311 1.305 . S
C314 O312 1.234 . S
Zn315 O321 1.920 . S
Zn315 O327 1.898 . S
Zn315 O330 1.905 . S
Zn316 O324 1.905 1_554 S
Zn316 O325 1.898 . S
Zn316 O333 1.920 . S
Zn317 O320 2.080 . S
Zn317 O323 2.114 . S
Zn317 O326 2.120 . S
Zn317 O328 2.120 . S
Zn317 O329 2.114 . S
Zn317 O332 2.080 . S
C318 O323 1.166 1_556 S
C318 O324 1.182 . S
C319 O325 1.167 . S
C319 O326 1.299 . S
O320 Zn317 2.080 . S
O320 C334 1.305 . S
O321 Zn315 1.920 . S
O321 C334 1.234 . S
C322 O327 1.167 . S
C322 O328 1.299 . S
O323 Zn317 2.114 . S
O323 C318 1.166 1_554 S
O324 Zn316 1.905 1_556 S
O324 C318 1.182 . S
O325 Zn316 1.898 . S
O325 C319 1.167 . S
O326 Zn317 2.120 . S
O326 C319 1.299 . S
O327 Zn315 1.898 . S
O327 C322 1.167 . S
O328 Zn317 2.120 . S
O328 C322 1.299 . S
O329 Zn317 2.114 . S
O329 C331 1.166 . S
O330 Zn315 1.905 . S
O330 C331 1.182 . S
C331 O329 1.166 . S
C331 O330 1.182 . S
O332 Zn317 2.080 . S
O332 C335 1.305 . S
O333 Zn316 1.920 . S
O333 C335 1.234 . S
C334 O320 1.305 . S
C334 O321 1.234 . S
C335 O332 1.305 . S
C335 O333 1.234 . S
C20 C16 1.876 . S
C41 C37 1.882 . S
C45 C61 1.874 . S
C66 C82 1.877 . S
C87 C103 1.864 . S
C108 C124 1.871 . S
C145 C129 1.870 . S
C167 C163 1.873 . S
C171 C187 1.863 . S
C192 C208 1.876 . S
C229 C213 1.883 . S
C251 C247 1.864 . S
C268 C272 1.883 . S
C289 C293 1.888 . S
C297 C313 1.871 . S
C318 C334 1.860 . S
C3 C238 0.926 . S
C24 C319 0.905 . S
C46 C193 0.892 . S
C67 C280 0.850 1_655 S
C88 C276 0.946 . S
C234 C121 0.976 1_455 S
C142 C331 0.981 . S
C150 C205 0.952 . S
C79 C172 0.938 . S
C28 C214 0.876 . S
C259 C109 0.889 . S
C154 C298 0.883 . S
C184 C100 0.978 1_655 S
C130 C226 0.905 . S
C58 C310 0.958 . S
C7 C255 0.897 1_455 S
C19 C91 1.408 1_554 S
C40 C125 1.406 . S
C49 C146 1.408 . S
C70 C166 1.426 . S
C256 C175 1.428 1_554 S
C277 C209 1.426 . S
C217 C301 1.413 . S
C322 C250 1.413 . S
C25 C151 1.418 1_565 S
C104 C62 1.406 . S
C112 C83 1.400 1_564 S
C4 C133 1.447 . S
C335 C196 1.406 1_565 S
C271 C230 1.397 . S
C292 C235 1.420 1_546 S
C314 C188 1.414 . S
