# Generated by pormake.
# Topology ske, (6)-cn, num edge types: 1
# Building blocks:
#     Node 0, Type 0, BuildingBlock: KUMBUR_clean_sbu_1, # of connection points: 6
#     Node 1, Type 0, BuildingBlock: KUMBUR_clean_sbu_1, # of connection points: 6
#     Node 2, Type 0, BuildingBlock: KUMBUR_clean_sbu_1, # of connection points: 6
#     Node 3, Type 0, BuildingBlock: KUMBUR_clean_sbu_1, # of connection points: 6
#     Node 4, Type 0, BuildingBlock: KUMBUR_clean_sbu_1, # of connection points: 6
#     Node 5, Type 0, BuildingBlock: KUMBUR_clean_sbu_1, # of connection points: 6
#     Node 6, Type 0, BuildingBlock: KUMBUR_clean_sbu_1, # of connection points: 6
#     Node 7, Type 0, BuildingBlock: KUMBUR_clean_sbu_1, # of connection points: 6
#     Edge 8, Type (0, 0), BuildingBlock: XUDNAN_clean_linker_2, # of connection points: 2
#     Edge 9, Type (0, 0), BuildingBlock: XUDNAN_clean_linker_2, # of connection points: 2
#     Edge 10, Type (0, 0), BuildingBlock: XUDNAN_clean_linker_2, # of connection points: 2
#     Edge 11, Type (0, 0), BuildingBlock: XUDNAN_clean_linker_2, # of connection points: 2
#     Edge 12, Type (0, 0), BuildingBlock: XUDNAN_clean_linker_2, # of connection points: 2
#     Edge 13, Type (0, 0), BuildingBlock: XUDNAN_clean_linker_2, # of connection points: 2
#     Edge 14, Type (0, 0), BuildingBlock: XUDNAN_clean_linker_2, # of connection points: 2
#     Edge 15, Type (0, 0), BuildingBlock: XUDNAN_clean_linker_2, # of connection points: 2
#     Edge 16, Type (0, 0), BuildingBlock: XUDNAN_clean_linker_2, # of connection points: 2
#     Edge 17, Type (0, 0), BuildingBlock: XUDNAN_clean_linker_2, # of connection points: 2
#     Edge 18, Type (0, 0), BuildingBlock: XUDNAN_clean_linker_2, # of connection points: 2
#     Edge 19, Type (0, 0), BuildingBlock: XUDNAN_clean_linker_2, # of connection points: 2
#     Edge 20, Type (0, 0), BuildingBlock: XUDNAN_clean_linker_2, # of connection points: 2
#     Edge 21, Type (0, 0), BuildingBlock: XUDNAN_clean_linker_2, # of connection points: 2
#     Edge 22, Type (0, 0), BuildingBlock: XUDNAN_clean_linker_2, # of connection points: 2
#     Edge 23, Type (0, 0), BuildingBlock: XUDNAN_clean_linker_2, # of connection points: 2
#     Edge 24, Type (0, 0), BuildingBlock: XUDNAN_clean_linker_2, # of connection points: 2
#     Edge 25, Type (0, 0), BuildingBlock: XUDNAN_clean_linker_2, # of connection points: 2
#     Edge 26, Type (0, 0), BuildingBlock: XUDNAN_clean_linker_2, # of connection points: 2
#     Edge 27, Type (0, 0), BuildingBlock: XUDNAN_clean_linker_2, # of connection points: 2
#     Edge 28, Type (0, 0), BuildingBlock: XUDNAN_clean_linker_2, # of connection points: 2
#     Edge 29, Type (0, 0), BuildingBlock: XUDNAN_clean_linker_2, # of connection points: 2
#     Edge 30, Type (0, 0), BuildingBlock: XUDNAN_clean_linker_2, # of connection points: 2
#     Edge 31, Type (0, 0), BuildingBlock: XUDNAN_clean_linker_2, # of connection points: 2
# Relax obj value: 0.217
# Max RMSD: 0.232
# Mean RMSD: 0.230
data_MOF--net-ske--node1-KUMBUR_clean_sbu_1--edge1-XUDNAN_clean_linker_2
_symmetry_space_group_name_H-M    P1
_symmetry_Int_Tables_number       1
_symmetry_cell_setting            triclinic
loop_
_symmetry_equiv_pos_as_xyz
'x, y, z'
_cell_length_a     98.831432
_cell_length_b     29.655184
_cell_length_c     15.096973
_cell_angle_alpha  97.858516
_cell_angle_beta   89.967038
_cell_angle_gamma 89.987448
loop_
_atom_site_label
_atom_site_type_symbol
_atom_site_fract_x
_atom_site_fract_y
_atom_site_fract_z
_atom_type_partial_charge
Tb0 Tb 0.15123 0.25328 0.56592 0.0
C1 C 0.09985 0.2278 0.75573 0.0
N2 N 0.1043 0.20806 0.67406 0.0
C3 C 0.09852 0.13436 0.71225 0.0
C4 C 0.09505 0.20131 0.81995 0.0
C5 C 0.10282 0.16214 0.64995 0.0
C6 C 0.09483 0.15395 0.79813 0.0
C7 C 0.09453 0.29685 0.85591 0.0
C8 C 0.09962 0.27499 0.77401 0.0
C9 C 0.0898 0.27053 0.92 0.0
C10 C 0.09022 0.2229 0.90256 0.0
Tb11 Tb 0.11108 0.25846 0.57994 0.0
N12 N 0.10459 0.29947 0.71141 0.0
C13 C 0.09428 0.34452 0.87056 0.0
C14 C 0.10393 0.34592 0.72378 0.0
C15 C 0.09896 0.36914 0.80407 0.0
H16 H 0.1044 0.14651 0.58209 0.0
H17 H 0.09862 0.40596 0.81432 0.0
H18 H 0.15981 0.34571 0.47924 0.0
H19 H 0.16688 0.07798 0.47084 0.0
H20 H 0.10725 0.36499 0.67173 0.0
H21 H 0.09039 0.36261 0.93256 0.0
H22 H 0.15964 0.14435 0.57654 0.0
H23 H 0.0977 0.09793 0.69312 0.0
H24 H 0.0857 0.28666 0.98303 0.0
H25 H 0.08648 0.20309 0.9526 0.0
H26 H 0.16863 0.36459 0.3352 0.0
H27 H 0.09127 0.13238 0.8457 0.0
H28 H 0.1725 0.08709 0.31446 0.0
N29 N 0.1604 0.27431 0.43851 0.0
C30 C 0.16442 0.24005 0.37511 0.0
C31 C 0.16742 0.32938 0.34536 0.0
C32 C 0.16942 0.24896 0.29191 0.0
C33 C 0.16251 0.31869 0.42691 0.0
C34 C 0.17067 0.29435 0.27691 0.0
N35 N 0.15969 0.18991 0.4787 0.0
C36 C 0.16158 0.1486 0.50769 0.0
C37 C 0.16845 0.15954 0.33347 0.0
C38 C 0.16383 0.19616 0.3955 0.0
C39 C 0.16905 0.11621 0.36012 0.0
C40 C 0.16589 0.11094 0.4483 0.0
H41 H 0.17444 0.30269 0.21375 0.0
H42 H 0.17699 0.21839 0.16271 0.0
H43 H 0.1762 0.13994 0.19929 0.0
O44 O 0.17152 0.23886 0.59548 0.0
O45 O 0.14015 0.27056 0.44613 0.0
O46 O 0.11943 0.23477 0.44416 0.0
O47 O 0.16168 0.29829 0.6622 0.0
O48 O 0.13987 0.19246 0.59404 0.0
O49 O 0.11984 0.19348 0.51735 0.0
O50 O 0.09719 0.30102 0.52578 0.0
O51 O 0.12416 0.28013 0.70017 0.0
O52 O 0.14153 0.22989 0.68304 0.0
O53 O 0.09103 0.23576 0.55634 0.0
O54 O 0.12051 0.31926 0.53953 0.0
O55 O 0.14214 0.3221 0.60102 0.0
C56 C 0.12975 0.25082 0.40193 0.0
C57 C 0.18552 0.30223 0.64184 0.0
C58 C 0.21013 0.30994 0.65997 0.0
C59 C 0.20937 0.35221 0.62765 0.0
C60 C 0.18509 0.34476 0.61102 0.0
C61 C 0.19696 0.36932 0.60336 0.0
C62 C 0.19807 0.28501 0.6664 0.0
C63 C 0.13019 0.17124 0.54509 0.0
C64 C 0.17301 0.27587 0.65103 0.0
C65 C 0.17328 0.2124 0.22764 0.0
C66 C 0.17279 0.16772 0.2484 0.0
C67 C 0.13273 0.25362 0.73579 0.0
C68 C 0.07953 0.26416 0.43929 0.0
C69 C 0.05789 0.26599 0.36197 0.0
C70 C 0.0646 0.25371 0.28007 0.0
C71 C 0.08603 0.25164 0.35695 0.0
C72 C 0.06542 0.2707 0.44173 0.0
C73 C 0.07856 0.24629 0.27779 0.0
C74 C 0.13157 0.34159 0.56766 0.0
C75 C 0.08735 0.27182 0.52284 0.0
H76 H 0.21834 0.37274 0.62313 0.0
H77 H 0.17558 0.35936 0.5939 0.0
H78 H 0.19652 0.40212 0.57962 0.0
H79 H 0.19842 0.25219 0.69034 0.0
H80 H 0.05901 0.24997 0.21775 0.0
H81 H 0.09687 0.24647 0.35379 0.0
H82 H 0.06038 0.28084 0.50517 0.0
H83 H 0.08363 0.23688 0.21435 0.0
Tb84 Tb 0.90445 0.25518 0.54527 0.0
C85 C 0.85091 0.33162 0.40285 0.0
N86 N 0.85586 0.33769 0.48763 0.0
C87 C 0.85057 0.4174 0.50066 0.0
C88 C 0.84586 0.36839 0.36281 0.0
C89 C 0.8552 0.37961 0.53809 0.0
C90 C 0.84605 0.41189 0.4122 0.0
C91 C 0.84389 0.27892 0.27389 0.0
C92 C 0.8499 0.28771 0.3589 0.0
C93 C 0.8392 0.31552 0.23236 0.0
C94 C 0.84026 0.36021 0.2765 0.0
Tb95 Tb 0.86369 0.27364 0.54107 0.0
N96 N 0.85434 0.25322 0.40239 0.0
C97 C 0.84241 0.23358 0.23474 0.0
C98 C 0.8521 0.20887 0.3672 0.0
C99 C 0.84639 0.19842 0.28207 0.0
H100 H 0.85841 0.38404 0.60721 0.0
H101 H 0.84496 0.16327 0.25331 0.0
H102 H 0.91028 0.1502 0.58326 0.0
H103 H 0.91252 0.41937 0.74888 0.0
H104 H 0.85499 0.18169 0.40416 0.0
H105 H 0.83788 0.22536 0.16917 0.0
H106 H 0.90866 0.36929 0.60905 0.0
H107 H 0.85039 0.45067 0.54031 0.0
H108 H 0.83455 0.3096 0.16684 0.0
H109 H 0.83638 0.38804 0.24434 0.0
H110 H 0.91875 0.1121 0.70837 0.0
H111 H 0.84232 0.44113 0.38377 0.0
H112 H 0.9178 0.38675 0.88696 0.0
N113 N 0.91129 0.21651 0.6571 0.0
C114 C 0.91481 0.24244 0.73494 0.0
C115 C 0.9176 0.14872 0.71682 0.0
C116 C 0.91944 0.22211 0.8084 0.0
C117 C 0.9128 0.17032 0.64628 0.0
C118 C 0.92086 0.17468 0.79839 0.0
N119 N 0.90892 0.30787 0.66851 0.0
C120 C 0.9096 0.35402 0.66931 0.0
C121 C 0.91638 0.31707 0.82262 0.0
C122 C 0.91322 0.28939 0.74165 0.0
C123 C 0.91549 0.36431 0.82603 0.0
C124 C 0.91239 0.38284 0.74846 0.0
H125 H 0.92441 0.15778 0.85325 0.0
H126 H 0.92567 0.23456 0.94716 0.0
H127 H 0.92301 0.31765 0.95965 0.0
O128 O 0.92396 0.2822 0.53177 0.0
O129 O 0.89078 0.23325 0.64787 0.0
O130 O 0.87417 0.28685 0.67198 0.0
O131 O 0.91987 0.21208 0.48651 0.0
O132 O 0.89688 0.31784 0.49945 0.0
O133 O 0.87794 0.32888 0.58591 0.0
O134 O 0.84876 0.22975 0.58354 0.0
O135 O 0.87378 0.2634 0.40775 0.0
O136 O 0.89722 0.25273 0.40673 0.0
O137 O 0.84654 0.30169 0.61087 0.0
O138 O 0.8709 0.2023 0.54082 0.0
O139 O 0.89331 0.19387 0.48758 0.0
C140 C 0.88259 0.25839 0.70302 0.0
C141 C 0.93691 0.24737 0.41056 0.0
C142 C 0.95867 0.26112 0.34179 0.0
C143 C 0.95233 0.25515 0.25751 0.0
C144 C 0.93082 0.24175 0.32584 0.0
C145 C 0.93853 0.24545 0.24978 0.0
C146 C 0.95087 0.25672 0.41826 0.0
C147 C 0.8866 0.34348 0.53012 0.0
C148 C 0.92885 0.24424 0.49153 0.0
C149 C 0.92225 0.24957 0.88957 0.0
C150 C 0.92067 0.29688 0.89678 0.0
C151 C 0.88552 0.2566 0.36599 0.0
C152 C 0.82633 0.25981 0.58571 0.0
C153 C 0.80238 0.24434 0.61157 0.0
C154 C 0.79926 0.25708 0.52775 0.0
C155 C 0.8227 0.27354 0.50372 0.0
C156 C 0.81601 0.24576 0.64085 0.0
C157 C 0.80936 0.27179 0.47452 0.0
C158 C 0.88127 0.17746 0.50504 0.0
C159 C 0.84072 0.2629 0.61481 0.0
H160 H 0.95809 0.25783 0.19736 0.0
H161 H 0.92012 0.23447 0.31837 0.0
H162 H 0.93378 0.24096 0.18457 0.0
H163 H 0.95557 0.26158 0.48376 0.0
H164 H 0.78889 0.25662 0.50427 0.0
H165 H 0.8301 0.28673 0.46279 0.0
H166 H 0.81851 0.23614 0.70559 0.0
H167 H 0.80681 0.28253 0.41086 0.0
Tb168 Tb 0.15244 0.74527 0.48065 0.0
C169 C 0.09957 0.76481 0.2954 0.0
N170 N 0.10348 0.79074 0.3724 0.0
C171 C 0.09581 0.85818 0.31671 0.0
C172 C 0.09405 0.78501 0.22426 0.0
C173 C 0.1014 0.83668 0.38504 0.0
C174 C 0.09219 0.83229 0.23578 0.0
C175 C 0.09795 0.69031 0.20722 0.0
C176 C 0.10155 0.71799 0.28728 0.0
C177 C 0.09281 0.71041 0.13515 0.0
C178 C 0.0908 0.75759 0.14379 0.0
Tb179 Tb 0.11136 0.75198 0.48136 0.0
N180 N 0.10657 0.69958 0.35858 0.0
C181 C 0.09922 0.64311 0.20286 0.0
C182 C 0.10629 0.65338 0.35742 0.0
C183 C 0.10312 0.62457 0.27896 0.0
H184 H 0.10403 0.85669 0.44791 0.0
H185 H 0.10329 0.58801 0.27812 0.0
H186 H 0.15982 0.63559 0.42342 0.0
H187 H 0.16813 0.86734 0.76064 0.0
H188 H 0.10783 0.63816 0.41724 0.0
H189 H 0.09658 0.62066 0.14258 0.0
H190 H 0.15749 0.84265 0.61395 0.0
H191 H 0.09431 0.89468 0.32647 0.0
H192 H 0.09009 0.68965 0.07298 0.0
H193 H 0.0867 0.77252 0.08792 0.0
H194 H 0.17001 0.57381 0.49563 0.0
H195 H 0.08798 0.8491 0.18268 0.0
H196 H 0.17895 0.81061 0.84379 0.0
N197 N 0.16255 0.68585 0.53663 0.0
C198 C 0.16847 0.69625 0.61813 0.0
C199 C 0.16953 0.60803 0.5312 0.0
C200 C 0.17481 0.6625 0.66074 0.0
C201 C 0.16354 0.6429 0.49111 0.0
C202 C 0.17506 0.61775 0.61685 0.0
N203 N 0.16193 0.77252 0.61548 0.0
C204 C 0.16214 0.81765 0.64985 0.0
C205 C 0.1746 0.75372 0.74187 0.0
C206 C 0.16844 0.74121 0.65807 0.0
C207 C 0.17434 0.7996 0.77938 0.0
C208 C 0.1682 0.83173 0.73275 0.0
H209 H 0.17977 0.59074 0.64751 0.0
H210 H 0.18571 0.64911 0.77902 0.0
H211 H 0.18551 0.72898 0.85001 0.0
O212 O 0.16379 0.79141 0.41647 0.0
O213 O 0.14279 0.75272 0.61531 0.0
O214 O 0.11909 0.75058 0.61708 0.0
O215 O 0.17157 0.72487 0.42607 0.0
O216 O 0.1432 0.81276 0.47739 0.0
O217 O 0.12153 0.81551 0.54092 0.0
O218 O 0.09228 0.72179 0.49647 0.0
O219 O 0.12413 0.77447 0.37424 0.0
O220 O 0.14186 0.72494 0.35187 0.0
O221 O 0.09553 0.79208 0.54402 0.0
O222 O 0.12066 0.68941 0.5193 0.0
O223 O 0.1396 0.68701 0.43232 0.0
C224 C 0.13102 0.75237 0.65703 0.0
C225 C 0.18776 0.78411 0.42761 0.0
C226 C 0.2125 0.7841 0.4067 0.0
C227 C 0.21331 0.82278 0.47173 0.0
C228 C 0.18899 0.82302 0.49146 0.0
C229 C 0.20167 0.84192 0.5136 0.0
C230 C 0.1996 0.76467 0.38549 0.0
C231 C 0.13267 0.83526 0.51573 0.0
C232 C 0.17422 0.76443 0.40278 0.0
C233 C 0.18085 0.67461 0.74493 0.0
C234 C 0.18077 0.72013 0.78528 0.0
C235 C 0.13271 0.75058 0.31944 0.0
C236 C 0.07818 0.75476 0.6144 0.0
C237 C 0.05577 0.74245 0.67697 0.0
C238 C 0.0617 0.74564 0.7623 0.0
C239 C 0.0838 0.75771 0.70025 0.0
C240 C 0.0641 0.74754 0.603 0.0
C241 C 0.07557 0.75342 0.77374 0.0
C242 C 0.13147 0.66763 0.48472 0.0
C243 C 0.08684 0.75896 0.53623 0.0
H244 H 0.223 0.83801 0.49134 0.0
H245 H 0.18016 0.83922 0.52384 0.0
H246 H 0.20247 0.87173 0.56344 0.0
H247 H 0.19871 0.73501 0.33527 0.0
H248 H 0.05556 0.74189 0.82034 0.0
H249 H 0.09455 0.76328 0.71043 0.0
H250 H 0.05971 0.74472 0.53667 0.0
H251 H 0.07997 0.75575 0.83985 0.0
Tb252 Tb 0.90125 0.76705 0.48944 0.0
C253 C 0.84969 0.72989 0.68022 0.0
N254 N 0.85384 0.70711 0.60046 0.0
C255 C 0.84818 0.63585 0.64928 0.0
C256 C 0.84493 0.70619 0.7488 0.0
C257 C 0.85299 0.66076 0.58357 0.0
C258 C 0.84416 0.65862 0.73233 0.0
C259 C 0.84731 0.80154 0.77763 0.0
C260 C 0.85104 0.777 0.69448 0.0
C261 C 0.84264 0.77806 0.84646 0.0
C262 C 0.84143 0.73054 0.83203 0.0
Tb263 Tb 0.86113 0.75123 0.49769 0.0
N264 N 0.85592 0.79864 0.62689 0.0
C265 C 0.84815 0.84902 0.78866 0.0
C266 C 0.85535 0.8451 0.63487 0.0
C267 C 0.85191 0.87089 0.71633 0.0
H268 H 0.85589 0.643 0.51912 0.0
H269 H 0.85181 0.9077 0.7225 0.0
H270 H 0.90756 0.87865 0.53558 0.0
H271 H 0.91297 0.64316 0.20256 0.0
H272 H 0.85685 0.86288 0.57828 0.0
H273 H 0.84539 0.86913 0.85147 0.0
H274 H 0.90374 0.66906 0.35206 0.0
H275 H 0.84756 0.59912 0.63583 0.0
H276 H 0.83984 0.79638 0.91092 0.0
H277 H 0.83784 0.71294 0.88584 0.0
H278 H 0.91761 0.9384 0.45791 0.0
H279 H 0.84057 0.63917 0.78338 0.0
H280 H 0.9242 0.69802 0.117 0.0
N281 N 0.91033 0.82603 0.42607 0.0
C282 C 0.91602 0.81421 0.34403 0.0
C283 C 0.91713 0.90368 0.42479 0.0
C284 C 0.92234 0.84698 0.29863 0.0
C285 C 0.91116 0.86987 0.46787 0.0
C286 C 0.9227 0.89225 0.33966 0.0
N287 N 0.90875 0.73863 0.34961 0.0
C288 C 0.90821 0.69367 0.31491 0.0
C289 C 0.92109 0.75543 0.22004 0.0
C290 C 0.91543 0.76896 0.30517 0.0
C291 C 0.92002 0.70975 0.18247 0.0
C292 C 0.91362 0.67872 0.23036 0.0
H293 H 0.92742 0.91846 0.30678 0.0
H294 H 0.93309 0.8582 0.17837 0.0
H295 H 0.93205 0.77809 0.10986 0.0
O296 O 0.91645 0.72229 0.52326 0.0
O297 O 0.89007 0.77373 0.36312 0.0
O298 O 0.86954 0.73539 0.36171 0.0
O299 O 0.91977 0.79424 0.54121 0.0
O300 O 0.89351 0.69733 0.50083 0.0
O301 O 0.87204 0.69033 0.43598 0.0
O302 O 0.84359 0.78652 0.46689 0.0
O303 O 0.87417 0.73241 0.60615 0.0
O304 O 0.89226 0.78119 0.62535 0.0
O305 O 0.84381 0.71386 0.45023 0.0
O306 O 0.86938 0.81554 0.46218 0.0
O307 O 0.88875 0.82523 0.54644 0.0
C308 C 0.87962 0.75314 0.32039 0.0
C309 C 0.93368 0.75128 0.62543 0.0
C310 C 0.95619 0.74054 0.68754 0.0
C311 C 0.95029 0.74324 0.77296 0.0
C312 C 0.92806 0.75407 0.71121 0.0
C313 C 0.93637 0.75025 0.78462 0.0
C314 C 0.94778 0.74508 0.61387 0.0
C315 C 0.88318 0.67253 0.46514 0.0
C316 C 0.92509 0.75484 0.54697 0.0
C317 C 0.92815 0.83353 0.2142 0.0
C318 C 0.92757 0.78787 0.17518 0.0
C319 C 0.88301 0.75615 0.65867 0.0
C320 C 0.8281 0.74858 0.36254 0.0
C321 C 0.8054 0.74393 0.29531 0.0
C322 C 0.81144 0.74587 0.21134 0.0
C323 C 0.83383 0.75043 0.27824 0.0
C324 C 0.81394 0.74556 0.37085 0.0
C325 C 0.8255 0.74917 0.20315 0.0
C326 C 0.87919 0.84177 0.49945 0.0
C327 C 0.83663 0.74973 0.44297 0.0
H328 H 0.95649 0.73981 0.83084 0.0
H329 H 0.91728 0.75907 0.72125 0.0
H330 H 0.93199 0.75234 0.85081 0.0
H331 H 0.95215 0.74259 0.54746 0.0
H332 H 0.80533 0.74392 0.15143 0.0
H333 H 0.84469 0.75279 0.27056 0.0
H334 H 0.8096 0.74482 0.43659 0.0
H335 H 0.82998 0.75041 0.13806 0.0
Tb336 Tb 0.65522 0.75577 0.02079 0.0
C337 C 0.60273 0.74131 0.21591 0.0
N338 N 0.60778 0.71446 0.14318 0.0
C339 C 0.60037 0.64756 0.20183 0.0
C340 C 0.59653 0.722 0.28584 0.0
C341 C 0.60643 0.66825 0.13404 0.0
C342 C 0.59536 0.67453 0.27789 0.0
C343 C 0.59904 0.817 0.2957 0.0
C344 C 0.60385 0.78835 0.2199 0.0
C345 C 0.5931 0.79784 0.36645 0.0
C346 C 0.59164 0.75055 0.36083 0.0
Tb347 Tb 0.61486 0.75176 0.03034 0.0
N348 N 0.60915 0.80588 0.14835 0.0
C349 C 0.59986 0.86412 0.29686 0.0
C350 C 0.60877 0.8519 0.14651 0.0
C351 C 0.60459 0.8816 0.22149 0.0
H352 H 0.6098 0.64746 0.07379 0.0
H353 H 0.60459 0.91799 0.2199 0.0
H354 H 0.66378 0.86579 0.07131 0.0
H355 H 0.67222 0.62956 0.75232 0.0
H356 H 0.61101 0.86645 0.08679 0.0
H357 H 0.59634 0.88725 0.35402 0.0
H358 H 0.66236 0.65683 0.90104 0.0
H359 H 0.59938 0.6109 0.19475 0.0
H360 H 0.58929 0.81937 0.42493 0.0
H361 H 0.58674 0.73638 0.41499 0.0
H362 H 0.6729 0.92611 0.99106 0.0
H363 H 0.59055 0.65838 0.32991 0.0
H364 H 0.68031 0.68514 0.65583 0.0
N365 N 0.66469 0.81444 0.95775 0.0
C366 C 0.66971 0.80306 0.87383 0.0
C367 C 0.67191 0.89172 0.95686 0.0
C368 C 0.67547 0.83608 0.82642 0.0
C369 C 0.66652 0.85753 1.00164 0.0
C370 C 0.67619 0.88113 0.86828 0.0
N371 N 0.66433 0.72681 0.88599 0.0
C372 C 0.66585 0.68114 0.85891 0.0
C373 C 0.67539 0.74382 0.75228 0.0
C374 C 0.66968 0.75765 0.83711 0.0
C375 C 0.67599 0.6972 0.72074 0.0
C376 C 0.67142 0.6657 0.77501 0.0
H377 H 0.68048 0.9076 0.83401 0.0
H378 H 0.68492 0.84782 0.70196 0.0
H379 H 0.68487 0.76698 0.63705 0.0
O380 O 0.66599 0.71332 0.09744 0.0
O381 O 0.64441 0.73523 0.89187 0.0
O382 O 0.62297 0.76731 0.89972 0.0
O383 O 0.6757 0.77032 0.05239 0.0
O384 O 0.64588 0.6887 0.03333 0.0
O385 O 0.62468 0.68983 0.96695 0.0
O386 O 0.59493 0.77563 0.02106 0.0
O387 O 0.62769 0.73358 0.1428 0.0
O388 O 0.64521 0.7834 0.14713 0.0
O389 O 0.6004 0.70862 0.95954 0.0
O390 O 0.6235 0.81337 0.98874 0.0
O391 O 0.64371 0.81911 0.06511 0.0
C392 C 0.63398 0.75282 0.85386 0.0
C393 C 0.6843 0.74722 0.18449 0.0
C394 C 0.70526 0.74887 0.27193 0.0
C395 C 0.69779 0.76497 0.34916 0.0
C396 C 0.67716 0.76348 0.26249 0.0
C397 C 0.68387 0.77242 0.34424 0.0
C398 C 0.69843 0.74048 0.18915 0.0
C399 C 0.6352 0.66788 0.99342 0.0
C400 C 0.67712 0.73684 0.09829 0.0
C401 C 0.68061 0.82287 0.73991 0.0
C402 C 0.68058 0.77681 0.70294 0.0
C403 C 0.63649 0.76047 0.18965 0.0
C404 C 0.58099 0.7425 0.90339 0.0
C405 C 0.55735 0.74249 0.85461 0.0
C406 C 0.56182 0.75118 0.76996 0.0
C407 C 0.58523 0.7512 0.81885 0.0
C408 C 0.56711 0.73833 0.92103 0.0
C409 C 0.57564 0.7555 0.75247 0.0
C410 C 0.63427 0.83669 0.01829 0.0
C411 C 0.59067 0.73811 0.97548 0.0
H412 H 0.70275 0.77189 0.41357 0.0
H413 H 0.66638 0.76896 0.26001 0.0
H414 H 0.67825 0.78487 0.4042 0.0
H415 H 0.70402 0.72769 0.12912 0.0
H416 H 0.55466 0.75394 0.7167 0.0
H417 H 0.59589 0.75465 0.80437 0.0
H418 H 0.56393 0.73239 0.9872 0.0
H419 H 0.57893 0.76204 0.68702 0.0
Tb420 Tb 0.40097 0.75367 0.06428 0.0
C421 C 0.34723 0.85042 0.96853 0.0
N422 N 0.3524 0.8442 0.04913 0.0
C423 C 0.34833 0.92269 0.10485 0.0
C424 C 0.34292 0.89368 0.95144 0.0
C425 C 0.35244 0.87901 0.11851 0.0
C426 C 0.34383 0.9303 0.02037 0.0
C427 C 0.33913 0.81675 0.82302 0.0
C428 C 0.34538 0.8126 0.90534 0.0
C429 C 0.3355 0.86011 0.80339 0.0
C430 C 0.33741 0.89855 0.86745 0.0
Tb431 Tb 0.36009 0.77274 0.06105 0.0
N432 N 0.34908 0.77137 0.92679 0.0
C433 C 0.33639 0.7771 0.76417 0.0
C434 C 0.34564 0.7323 0.87199 0.0
C435 C 0.33949 0.73467 0.78933 0.0
H436 H 0.35598 0.87317 0.18379 0.0
H437 H 0.33726 0.70379 0.74476 0.0
H438 H 0.41026 0.6571 0.1271 0.0
H439 H 0.41101 0.92734 0.2208 0.0
H440 H 0.34854 0.69954 0.88939 0.0
H441 H 0.33161 0.77881 0.70013 0.0
H442 H 0.40764 0.86777 0.09394 0.0
H443 H 0.34868 0.95043 0.15936 0.0
H444 H 0.33086 0.86413 0.73991 0.0
H445 H 0.33421 0.93162 0.85244 0.0
H446 H 0.41831 0.6293 0.26525 0.0
H447 H 0.34067 0.96417 1.00996 0.0
H448 H 0.41348 0.90713 0.37336 0.0
N449 N 0.40829 0.72555 0.1883 0.0
C450 C 0.41052 0.75619 0.26203 0.0
C451 C 0.41604 0.66502 0.26551 0.0
C452 C 0.41499 0.74206 0.34248 0.0
C453 C 0.4114 0.68069 0.18766 0.0
C454 C 0.41768 0.69575 0.34367 0.0
N455 N 0.40544 0.81405 0.17425 0.0
C456 C 0.40745 0.85826 0.16033 0.0
C457 C 0.4114 0.83484 0.32997 0.0
C458 C 0.40865 0.80189 0.25553 0.0
C459 C 0.41138 0.88074 0.31808 0.0
C460 C 0.40988 0.89233 0.23221 0.0
H461 H 0.42117 0.68352 0.40409 0.0
H462 H 0.41993 0.76432 0.48141 0.0
H463 H 0.41684 0.84572 0.47043 0.0
O464 O 0.42144 0.77275 0.05844 0.0
O465 O 0.38694 0.73075 0.16437 0.0
O466 O 0.37085 0.78608 0.19075 0.0
O467 O 0.41481 0.70827 0.99263 0.0
O468 O 0.39328 0.81393 1.01101 0.0
O469 O 0.37529 0.82462 0.10398 0.0
O470 O 0.35005 0.72583 0.1315 0.0
O471 O 0.3695 0.75981 0.92581 0.0
O472 O 0.39316 0.75132 0.92605 0.0
O473 O 0.34013 0.78694 0.10684 0.0
O474 O 0.3667 0.70097 0.02637 0.0
O475 O 0.39029 0.68867 0.03215 0.0
C476 C 0.37891 0.75616 0.2207 0.0
C477 C 0.43421 0.74087 0.93415 0.0
C478 C 0.45742 0.74216 0.87718 0.0
C479 C 0.4522 0.75146 0.79476 0.0
C480 C 0.42926 0.75039 0.85175 0.0
C481 C 0.43825 0.7556 0.78244 0.0
C482 C 0.44825 0.73701 0.94671 0.0
C483 C 0.38309 0.83921 0.04371 0.0
C484 C 0.42503 0.7356 1.00884 0.0
C485 C 0.41677 0.77454 0.41838 0.0
C486 C 0.41493 0.82087 0.41222 0.0
C487 C 0.38134 0.75312 0.88464 0.0
C488 C 0.32616 0.72275 0.11053 0.0
C489 C 0.30199 0.70672 0.13041 0.0
C490 C 0.30263 0.67416 0.05336 0.0
C491 C 0.32646 0.68871 0.03636 0.0
C492 C 0.31382 0.7319 0.1577 0.0
C493 C 0.31475 0.66522 1.00714 0.0
C494 C 0.37762 0.67437 0.01993 0.0
C495 C 0.3387 0.74854 0.13777 0.0
H496 H 0.45887 0.75486 0.73915 0.0
H497 H 0.41849 0.75378 0.84107 0.0
H498 H 0.43439 0.76271 0.7187 0.0
H499 H 0.45199 0.73053 1.01126 0.0
H500 H 0.29372 0.655 0.02929 0.0
H501 H 0.33579 0.67999 1.00125 0.0
H502 H 0.31353 0.7574 0.21637 0.0
H503 H 0.3151 0.63948 0.94898 0.0
Tb504 Tb 0.65583 0.25339 1.0145 0.0
C505 C 0.60059 0.19607 0.82457 0.0
N506 N 0.60446 0.23792 0.86386 0.0
C507 C 0.59554 0.27135 0.74021 0.0
C508 C 0.59479 0.18968 0.73869 0.0
C509 C 0.6012 0.27582 0.82594 0.0
C510 C 0.59256 0.22798 0.69563 0.0
C511 C 0.59687 0.11682 0.83894 0.0
C512 C 0.6016 0.16041 0.87401 0.0
C513 C 0.59196 0.10925 0.75072 0.0
C514 C 0.5909 0.14569 0.70066 0.0
Tb515 Tb 0.61466 0.24113 1.0003 0.0
N516 N 0.60606 0.16961 0.95952 0.0
C517 C 0.59668 0.08288 0.89493 0.0
C518 C 0.60482 0.13779 0.01654 0.0
C519 C 0.60042 0.09368 0.98464 0.0
H520 H 0.60341 0.3092 0.86099 0.0
H521 H 0.59989 0.06811 0.02927 0.0
H522 H 0.66326 0.14251 1.00741 0.0
H523 H 0.67166 0.39426 0.25536 0.0
H524 H 0.60758 0.14612 0.08619 0.0
H525 H 0.59317 0.04884 0.87059 0.0
H526 H 0.6635 0.35686 0.10877 0.0
H527 H 0.59343 0.30128 0.70879 0.0
H528 H 0.58846 0.07582 0.72191 0.0
H529 H 0.58662 0.1398 0.63402 0.0
H530 H 0.66921 0.09025 0.11379 0.0
H531 H 0.58807 0.22461 0.62963 0.0
H532 H 0.67633 0.34813 0.3768 0.0
N533 N 0.66143 0.20066 0.10689 0.0
C534 C 0.66498 0.21805 0.19175 0.0
C535 C 0.66758 0.12591 0.13755 0.0
C536 C 0.66886 0.18955 0.2549 0.0
C537 C 0.66385 0.15568 0.07756 0.0
C538 C 0.66962 0.14266 0.22744 0.0
N539 N 0.66303 0.29079 0.14817 0.0
C540 C 0.66527 0.33668 0.16188 0.0
C541 C 0.67081 0.28443 0.29715 0.0
C542 C 0.66605 0.26473 0.21267 0.0
C543 C 0.67267 0.33167 0.31283 0.0
C544 C 0.67002 0.35784 0.24452 0.0
H545 H 0.67265 0.11957 0.27354 0.0
H546 H 0.67554 0.18757 0.3911 0.0
H547 H 0.67718 0.27085 0.42827 0.0
O548 O 0.67221 0.29307 0.97853 0.0
O549 O 0.64203 0.28093 0.12642 0.0
O550 O 0.6244 0.23106 0.12849 0.0
O551 O 0.67366 0.22088 0.96163 0.0
O552 O 0.64652 0.31796 0.9942 0.0
O553 O 0.62275 0.3097 0.98859 0.0
O554 O 0.59382 0.2351 0.0305 0.0
O555 O 0.62482 0.24195 0.86882 0.0
O556 O 0.648 0.25863 0.87948 0.0
O557 O 0.60536 0.29536 0.08377 0.0
O558 O 0.6279 0.18956 0.04368 0.0
O559 O 0.64606 0.18989 0.95179 0.0
C560 C 0.63356 0.25806 0.17157 0.0
C561 C 0.69414 0.26133 0.98929 0.0
C562 C 0.71856 0.25427 0.96077 0.0
C563 C 0.72088 0.26539 0.05311 0.0
C564 C 0.69684 0.27253 0.08077 0.0
C565 C 0.71009 0.27446 0.11236 0.0
C566 C 0.70506 0.25209 0.92934 0.0
C567 C 0.63409 0.33377 0.98831 0.0
C568 C 0.68005 0.25842 0.95557 0.0
C569 C 0.67274 0.20895 0.34132 0.0
C570 C 0.67375 0.25635 0.36235 0.0
C571 C 0.63662 0.25106 0.83358 0.0
C572 C 0.58134 0.29507 0.12408 0.0
C573 C 0.55662 0.30364 0.13677 0.0
C574 C 0.55859 0.3369 0.21162 0.0
C575 C 0.58286 0.32878 0.19818 0.0
C576 C 0.56814 0.28212 0.09389 0.0
C577 C 0.57157 0.34923 0.24186 0.0
C578 C 0.63655 0.16759 0.98852 0.0
C579 C 0.59364 0.275 0.07802 0.0
H580 H 0.73105 0.26641 0.07996 0.0
H581 H 0.68878 0.27977 0.1282 0.0
H582 H 0.71201 0.28286 0.18328 0.0
H583 H 0.70304 0.24369 0.85845 0.0
H584 H 0.55004 0.35336 0.24751 0.0
H585 H 0.59283 0.33926 0.22276 0.0
H586 H 0.56685 0.25658 0.03594 0.0
H587 H 0.57287 0.37496 0.29938 0.0
Tb588 Tb 0.3991 0.2555 0.98071 0.0
C589 C 0.34958 0.20104 0.16424 0.0
N590 N 0.3531 0.18779 0.07753 0.0
C591 C 0.34835 0.11005 0.09502 0.0
C592 C 0.34613 0.16898 0.22135 0.0
C593 C 0.35157 0.14327 0.04099 0.0
C594 C 0.34594 0.12282 0.18615 0.0
C595 C 0.34448 0.26269 0.28244 0.0
C596 C 0.34866 0.24712 0.1944 0.0
C597 C 0.34174 0.23094 0.34114 0.0
C598 C 0.34255 0.18415 0.31063 0.0
Tb599 Tb 0.35906 0.24551 0.9981 0.0
N600 N 0.35186 0.27681 0.13667 0.0
C601 C 0.34304 0.30965 0.30817 0.0
C602 C 0.34955 0.32242 0.15911 0.0
C603 C 0.34536 0.33958 0.24576 0.0
H604 H 0.35268 0.13311 0.9699 0.0
H605 H 0.34395 0.37582 0.26438 0.0
H606 H 0.40434 0.35335 0.90667 0.0
H607 H 0.41722 0.0859 0.85347 0.0
H608 H 0.35138 0.34549 0.11083 0.0
H609 H 0.33983 0.32304 0.37527 0.0
H610 H 0.40991 0.14674 0.97081 0.0
H611 H 0.34753 0.07471 0.06597 0.0
H612 H 0.33872 0.24218 0.40961 0.0
H613 H 0.34007 0.16002 0.35594 0.0
H614 H 0.41166 0.38 0.7656 0.0
H615 H 0.34338 0.09704 0.22773 0.0
H616 H 0.42107 0.10257 0.69927 0.0
N617 N 0.40623 0.28329 0.85505 0.0
C618 C 0.41055 0.25224 0.78643 0.0
C619 C 0.41126 0.34394 0.77033 0.0
C620 C 0.41466 0.26564 0.70466 0.0
C621 C 0.40712 0.32885 0.84993 0.0
C622 C 0.41488 0.31217 0.69697 0.0
N623 N 0.4078 0.19655 0.88199 0.0
C624 C 0.41084 0.15424 0.90305 0.0
C625 C 0.41578 0.17379 0.73122 0.0
C626 C 0.41104 0.20712 0.79974 0.0
C627 C 0.41748 0.12925 0.75006 0.0
C628 C 0.41529 0.1197 0.83696 0.0
H629 H 0.41812 0.32395 0.63555 0.0
H630 H 0.42166 0.24174 0.57034 0.0
H631 H 0.42267 0.16117 0.59364 0.0
O632 O 0.42036 0.24635 0.99849 0.0
O633 O 0.38623 0.27075 0.86615 0.0
O634 O 0.36805 0.22269 0.86391 0.0
O635 O 0.40943 0.30331 0.07129 0.0
O636 O 0.39038 0.19092 1.01431 0.0
O637 O 0.37024 0.18484 0.93751 0.0
O638 O 0.34526 0.28675 0.93959 0.0
O639 O 0.37177 0.27242 0.11707 0.0
O640 O 0.3912 0.23115 0.10347 0.0
O641 O 0.33908 0.22217 0.97302 0.0
O642 O 0.36646 0.31076 0.96601 0.0
O643 O 0.38835 0.32107 0.02189 0.0
C644 C 0.37709 0.24454 0.82088 0.0
C645 C 0.43348 0.30033 0.10439 0.0
C646 C 0.45822 0.30571 0.12098 0.0
C647 C 0.45633 0.33719 0.19865 0.0
C648 C 0.43208 0.33215 0.18181 0.0
C649 C 0.4434 0.35016 0.2286 0.0
C650 C 0.44666 0.28662 0.07445 0.0
C651 C 0.38067 0.16605 0.9723 0.0
C652 C 0.42101 0.28287 0.05643 0.0
C653 C 0.41866 0.23229 0.63435 0.0
C654 C 0.41919 0.1864 0.64755 0.0
C655 C 0.38133 0.25024 0.15422 0.0
C656 C 0.32786 0.24853 0.85238 0.0
C657 C 0.30618 0.24609 0.77311 0.0
C658 C 0.31314 0.23253 0.6924 0.0
C659 C 0.33455 0.23506 0.77114 0.0
C660 C 0.31371 0.25394 0.85317 0.0
C661 C 0.32719 0.22713 0.69163 0.0
C662 C 0.37667 0.33717 0.99604 0.0
C663 C 0.33546 0.25746 0.93683 0.0
H664 H 0.46492 0.35171 0.23701 0.0
H665 H 0.42216 0.34312 0.20675 0.0
H666 H 0.44215 0.37444 0.28844 0.0
H667 H 0.44791 0.26236 1.0145 0.0
H668 H 0.30771 0.2255 0.62976 0.0
H669 H 0.34542 0.23077 0.76915 0.0
H670 H 0.30861 0.26493 0.91603 0.0
H671 H 0.3324 0.21665 0.6291 0.0
H672 H 0.23502 0.31593 0.58044 0.0
H673 H 0.21553 0.2664 0.80613 0.0
H674 H 0.23786 0.24382 0.85966 0.0
H675 H 0.26111 0.22979 0.54411 0.0
H676 H 0.27376 0.26925 0.51596 0.0
H677 H 0.25617 0.27901 0.4937 0.0
H678 H 0.25778 0.35917 0.5863 0.0
H679 H 0.27534 0.34951 0.6095 0.0
H680 H 0.26364 0.36464 0.70035 0.0
H681 H 0.26277 0.22969 0.89177 0.0
H682 H 0.28769 0.22187 0.89502 0.0
H683 H 0.29059 0.28354 0.65103 0.0
C684 C 0.2354 0.30038 0.64123 0.0
C685 C 0.22345 0.29308 0.68904 0.0
C686 C 0.22447 0.2719 0.76753 0.0
C687 C 0.23714 0.25926 0.79889 0.0
C688 C 0.24872 0.2679 0.75101 0.0
C689 C 0.24792 0.28773 0.67351 0.0
C690 C 0.26183 0.29414 0.63496 0.0
C691 C 0.2633 0.26639 0.54166 0.0
C692 C 0.26482 0.34488 0.63268 0.0
C693 C 0.27062 0.27496 0.7029 0.0
C694 C 0.26291 0.26 0.76947 0.0
C695 C 0.26888 0.24124 0.83978 0.0
C696 C 0.28307 0.23725 0.84141 0.0
C697 C 0.29116 0.25189 0.77312 0.0
C698 C 0.28475 0.27129 0.70354 0.0
H699 H 0.74305 0.29879 0.96528 0.0
H700 H 0.72076 0.18715 0.81632 0.0
H701 H 0.74073 0.16821 0.71966 0.0
H702 H 0.76066 0.33343 0.77973 0.0
H703 H 0.77607 0.34725 0.84132 0.0
H704 H 0.76007 0.35108 0.89879 0.0
H705 H 0.76905 0.29668 1.00586 0.0
H706 H 0.78503 0.29217 0.94767 0.0
H707 H 0.77553 0.24154 0.96015 0.0
H708 H 0.76305 0.16188 0.63853 0.0
H709 H 0.78521 0.1735 0.56899 0.0
H710 H 0.79322 0.28817 0.77226 0.0
C711 C 0.74238 0.27005 0.91288 0.0
C712 C 0.73031 0.24428 0.89893 0.0
C713 C 0.72981 0.20765 0.82808 0.0
C714 C 0.74117 0.19633 0.77342 0.0
C715 C 0.75297 0.22187 0.79043 0.0
C716 C 0.75361 0.25825 0.8579 0.0
C717 C 0.76734 0.2813 0.86018 0.0
C718 C 0.76595 0.33121 0.844 0.0
C719 C 0.77467 0.2777 0.94874 0.0
C720 C 0.7743 0.25261 0.78246 0.0
C721 C 0.76586 0.21816 0.74388 0.0
C722 C 0.76977 0.18842 0.66872 0.0
C723 C 0.7824 0.19503 0.63007 0.0
C724 C 0.79099 0.23106 0.66644 0.0
C725 C 0.78701 0.25953 0.74487 0.0
H726 H 0.28763 0.78531 0.1965 0.0
H727 H 0.28685 0.63813 0.1805 0.0
H728 H 0.26408 0.64199 0.24728 0.0
H729 H 0.26919 0.80773 0.41198 0.0
H730 H 0.26007 0.8556 0.37991 0.0
H731 H 0.27669 0.84184 0.33482 0.0
H732 H 0.26703 0.83747 0.17452 0.0
H733 H 0.25037 0.85063 0.21907 0.0
H734 H 0.2531 0.79967 0.14132 0.0
H735 H 0.24078 0.66051 0.30631 0.0
H736 H 0.21926 0.69366 0.36794 0.0
H737 H 0.23471 0.82902 0.34881 0.0
C738 C 0.28275 0.75405 0.20874 0.0
C739 C 0.28904 0.71132 0.18237 0.0
C740 C 0.28222 0.6712 0.19891 0.0
C741 C 0.26926 0.673 0.23697 0.0
C742 C 0.26315 0.71528 0.25934 0.0
C743 C 0.26971 0.75522 0.24722 0.0
C744 C 0.26066 0.79606 0.27671 0.0
C745 C 0.26703 0.82714 0.35554 0.0
C746 C 0.25761 0.82251 0.19821 0.0
C747 C 0.24802 0.77266 0.30586 0.0
C748 C 0.24969 0.72605 0.29502 0.0
C749 C 0.23938 0.69705 0.31568 0.0
C750 C 0.22712 0.71618 0.34993 0.0
C751 C 0.22521 0.76398 0.3637 0.0
C752 C 0.23585 0.79238 0.34035 0.0
H753 H 0.72677 0.78086 0.18042 0.0
H754 H 0.71703 0.69652 0.38468 0.0
H755 H 0.74138 0.68523 0.41095 0.0
H756 H 0.75704 0.71764 0.09274 0.0
H757 H 0.7662 0.76829 0.07574 0.0
H758 H 0.748 0.76735 0.06849 0.0
H759 H 0.74682 0.83856 0.18839 0.0
H760 H 0.765 0.83946 0.19668 0.0
H761 H 0.75485 0.83733 0.29525 0.0
H762 H 0.76673 0.68488 0.41902 0.0
H763 H 0.79139 0.69425 0.4065 0.0
H764 H 0.78508 0.78183 0.20181 0.0
C765 C 0.7298 0.75942 0.2295 0.0
C766 C 0.72 0.73938 0.28037 0.0
C767 C 0.72436 0.71223 0.34517 0.0
C768 C 0.73817 0.70559 0.3605 0.0
C769 C 0.74759 0.72652 0.31083 0.0
C770 C 0.74363 0.75281 0.24644 0.0
C771 C 0.7559 0.77283 0.20509 0.0
C772 C 0.75684 0.75548 0.10454 0.0
C773 C 0.75562 0.82515 0.22242 0.0
C774 C 0.76731 0.75377 0.25643 0.0
C775 C 0.76227 0.72705 0.31683 0.0
C776 C 0.77079 0.70582 0.372 0.0
C777 C 0.78484 0.71175 0.36493 0.0
C778 C 0.79035 0.73897 0.30345 0.0
C779 C 0.78133 0.76031 0.24881 0.0
H780 H 0.13223 0.91072 0.64883 0.0
H781 H 0.13238 0.87125 0.36202 0.0
H782 H 0.13095 0.95183 0.3389 0.0
H783 H 0.11028 0.01003 0.65769 0.0
H784 H 0.11997 0.04455 0.74246 0.0
H785 H 0.11991 0.98349 0.73782 0.0
H786 H 0.14609 0.98252 0.72776 0.0
H787 H 0.14618 0.04359 0.73257 0.0
H788 H 0.15432 0.00852 0.6409 0.0
H789 H 0.12818 0.03634 0.34624 0.0
H790 H 0.12751 0.12015 0.38296 0.0
H791 H 0.13273 0.10823 0.66358 0.0
C792 C 0.13183 0.91928 0.58142 0.0
C793 C 0.13198 0.88459 0.50676 0.0
C794 C 0.1319 0.89712 0.41969 0.0
C795 C 0.13114 0.94289 0.40602 0.0
C796 C 0.13092 0.97634 0.48037 0.0
C797 C 0.13156 0.96537 0.56647 0.0
C798 C 0.13217 0.00858 0.63393 0.0
C799 C 0.11985 0.01184 0.6967 0.0
C800 C 0.14548 0.01093 0.68693 0.0
C801 C 0.13165 0.04519 0.57228 0.0
C802 C 0.13066 0.02563 0.48407 0.0
C803 C 0.1292 0.05204 0.41495 0.0
C804 C 0.12883 0.09964 0.43627 0.0
C805 C 0.13036 0.12067 0.52549 0.0
C806 C 0.13183 0.09299 0.59445 0.0
H807 H 0.88519 0.42672 0.64112 0.0
H808 H 0.88651 0.36681 0.36316 0.0
H809 H 0.88517 0.44346 0.31655 0.0
H810 H 0.86277 0.52271 0.61512 0.0
H811 H 0.87186 0.56224 0.69486 0.0
H812 H 0.87175 0.50246 0.70584 0.0
H813 H 0.89799 0.50233 0.70506 0.0
H814 H 0.89807 0.56197 0.69307 0.0
H815 H 0.90689 0.52169 0.61302 0.0
H816 H 0.88299 0.52708 0.29966 0.0
H817 H 0.88235 0.61132 0.31362 0.0
H818 H 0.88512 0.61929 0.60164 0.0
C819 C 0.8851 0.42992 0.57054 0.0
C820 C 0.88572 0.39059 0.50539 0.0
C821 C 0.88588 0.39627 0.41387 0.0
C822 C 0.88512 0.43977 0.38688 0.0
C823 C 0.88454 0.47787 0.45226 0.0
C824 C 0.88471 0.47351 0.54233 0.0
C825 C 0.88481 0.52034 0.59861 0.0
C826 C 0.87204 0.52733 0.65708 0.0
C827 C 0.89771 0.52697 0.65583 0.0
C828 C 0.88474 0.55156 0.52625 0.0
C829 C 0.88431 0.52622 0.44234 0.0
C830 C 0.8835 0.54717 0.36503 0.0
C831 C 0.88316 0.59506 0.37345 0.0
C832 C 0.88397 0.62187 0.45829 0.0
C833 C 0.8848 0.59967 0.53571 0.0
H834 H 0.88523 0.9192 0.62002 0.0
H835 H 0.87296 0.87541 0.34618 0.0
H836 H 0.87218 0.95554 0.31828 0.0
H837 H 0.8637 0.01876 0.65373 0.0
H838 H 0.87571 0.05371 0.72183 0.0
H839 H 0.87587 0.99281 0.71996 0.0
H840 H 0.90112 0.99014 0.67309 0.0
H841 H 0.90097 0.05109 0.67632 0.0
H842 H 0.90623 0.01522 0.57606 0.0
H843 H 0.87289 0.04096 0.31873 0.0
H844 H 0.87448 0.1251 0.34935 0.0
H845 H 0.88524 0.11574 0.62432 0.0
C846 C 0.8825 0.92661 0.55408 0.0
C847 C 0.87924 0.8908 0.48497 0.0
C848 C 0.87548 0.90206 0.40012 0.0
C849 C 0.87505 0.94758 0.38356 0.0
C850 C 0.87822 0.98209 0.45284 0.0
C851 C 0.88182 0.97226 0.53664 0.0
C852 C 0.88434 0.01609 0.59993 0.0
C853 C 0.8743 0.0206 0.67852 0.0
C854 C 0.89904 0.01825 0.63329 0.0
C855 C 0.88165 0.05197 0.53864 0.0
C856 C 0.87819 0.03148 0.45388 0.0
C857 C 0.87549 0.05729 0.38506 0.0
C858 C 0.87636 0.10509 0.403 0.0
C859 C 0.87975 0.12696 0.48927 0.0
C860 C 0.88243 0.09992 0.55796 0.0
H861 H 0.12827 0.61662 0.62454 0.0
H862 H 0.13629 0.60457 0.33992 0.0
H863 H 0.13769 0.52103 0.3324 0.0
H864 H 0.15152 0.52632 0.66641 0.0
H865 H 0.14094 0.50566 0.74952 0.0
H866 H 0.14023 0.56474 0.73341 0.0
H867 H 0.11443 0.55808 0.70632 0.0
H868 H 0.11499 0.49904 0.72263 0.0
H869 H 0.10801 0.5149 0.62102 0.0
H870 H 0.13719 0.43874 0.35306 0.0
H871 H 0.13597 0.36282 0.40227 0.0
H872 H 0.12983 0.42538 0.67574 0.0
C873 C 0.13026 0.59621 0.56075 0.0
C874 C 0.13214 0.61716 0.48259 0.0
C875 C 0.13488 0.58937 0.40057 0.0
C876 C 0.13568 0.54183 0.39566 0.0
C877 C 0.13389 0.52218 0.47364 0.0
C878 C 0.13135 0.54837 0.55491 0.0
C879 C 0.13014 0.51823 0.6287 0.0
C880 C 0.14137 0.5294 0.69866 0.0
C881 C 0.11605 0.52285 0.67223 0.0
C882 C 0.13215 0.47106 0.57585 0.0
C883 C 0.13424 0.4744 0.48638 0.0
C884 C 0.13575 0.43582 0.42311 0.0
C885 C 0.13506 0.39277 0.45162 0.0
C886 C 0.13313 0.38817 0.54278 0.0
C887 C 0.13166 0.42794 0.60588 0.0
H888 H 0.64822 0.60402 0.08312 0.0
H889 H 0.62058 0.61669 0.86445 0.0
H890 H 0.6176 0.53363 0.83957 0.0
H891 H 0.66412 0.49718 0.98404 0.0
H892 H 0.66512 0.47438 0.08859 0.0
H893 H 0.66567 0.53506 0.08764 0.0
H894 H 0.6454 0.54515 0.19718 0.0
H895 H 0.64474 0.4845 0.19805 0.0
H896 H 0.62992 0.51449 0.16824 0.0
H897 H 0.61666 0.44962 0.84076 0.0
H898 H 0.6187 0.3692 0.86508 0.0
H899 H 0.6467 0.40854 0.0827 0.0
C900 C 0.64173 0.58917 0.02915 0.0
C901 C 0.63466 0.61716 0.97566 0.0
C902 C 0.62608 0.59628 0.90668 0.0
C903 C 0.62431 0.54897 0.89183 0.0
C904 C 0.63116 0.52245 0.94648 0.0
C905 C 0.63975 0.54159 1.01358 0.0
C906 C 0.64554 0.50492 0.06409 0.0
C907 C 0.66104 0.50276 0.05554 0.0
C908 C 0.64114 0.51274 0.16273 0.0
C909 C 0.63894 0.46244 1.01431 0.0
C910 C 0.63062 0.47353 0.94708 0.0
C911 C 0.62316 0.44051 0.89317 0.0
C912 C 0.62427 0.3949 0.90794 0.0
C913 C 0.63281 0.38246 0.9757 0.0
C914 C 0.64025 0.41684 0.02945 0.0
H915 H 0.38381 0.92261 0.15182 0.0
H916 H 0.37957 0.86057 0.87678 0.0
H917 H 0.37783 0.93682 0.82851 0.0
H918 H 0.36215 0.02171 0.14165 0.0
H919 H 0.37305 0.06039 0.21104 0.0
H920 H 0.37256 1.00103 0.22534 0.0
H921 H 0.39833 0.99625 0.20342 0.0
H922 H 0.39915 0.05499 0.186 0.0
H923 H 0.4058 0.01133 0.10245 0.0
H924 H 0.37609 0.02059 0.81094 0.0
H925 H 0.37657 0.10478 0.82333 0.0
H926 H 0.38547 0.11301 0.10577 0.0
C927 C 0.38241 0.92525 0.08162 0.0
C928 C 0.38154 0.88562 0.01778 0.0
C929 C 0.38001 0.89042 0.92647 0.0
C930 C 0.37903 0.93364 0.89864 0.0
C931 C 0.38004 0.97211 0.96278 0.0
C932 C 0.38189 0.9684 0.05233 0.0
C933 C 0.38365 0.01523 0.10653 0.0
C934 C 0.37217 0.02518 0.17523 0.0
C935 C 0.39757 0.01969 0.15222 0.0
C936 C 0.38261 0.04568 0.03352 0.0
C937 C 0.3802 0.02016 0.95143 0.0
C938 C 0.37813 0.0408 0.87477 0.0
C939 C 0.37844 0.08862 0.8823 0.0
C940 C 0.3812 0.11546 0.96521 0.0
C941 C 0.3835 0.09347 0.0414 0.0
H942 H 0.39488 0.40933 0.04288 0.0
H943 H 0.354 0.37983 0.94563 0.0
H944 H 0.35022 0.46081 0.9386 0.0
H945 H 0.3866 0.51661 0.1801 0.0
H946 H 0.40203 0.54463 0.1547 0.0
H947 H 0.40177 0.48377 0.15329 0.0
H948 H 0.41075 0.4728 0.99068 0.0
H949 H 0.41102 0.53363 0.99157 0.0
H950 H 0.40172 0.49807 0.90611 0.0
H951 H 0.35036 0.54541 0.94259 0.0
H952 H 0.35467 0.62798 0.95822 0.0
H953 H 0.39545 0.60524 0.04904 0.0
C954 C 0.38514 0.41987 0.02018 0.0
C955 C 0.37479 0.38739 0.99475 0.0
C956 C 0.36219 0.40325 0.96558 0.0
C957 C 0.35989 0.44954 0.96119 0.0
C958 C 0.37024 0.48042 0.98602 0.0
C959 C 0.38263 0.46645 1.01509 0.0
C960 C 0.39196 0.5073 0.03778 0.0
C961 C 0.39582 0.51343 0.13738 0.0
C962 C 0.40461 0.50266 0.97795 0.0
C963 C 0.38288 0.546 1.01644 0.0
C964 C 0.37037 0.5296 0.98711 0.0
C965 C 0.36015 0.55864 0.96533 0.0
C966 C 0.36269 0.60572 0.97452 0.0
C967 C 0.3754 0.6238 1.00484 0.0
C968 C 0.38564 0.59304 0.02512 0.0
H969 H 0.63675 0.11069 0.1179 0.0
H970 H 0.63609 0.1108 0.83094 0.0
H971 H 0.6352 0.02643 0.80858 0.0
H972 H 0.65937 0.01316 0.11289 0.0
H973 H 0.65116 0.99096 0.20427 0.0
H974 H 0.6509 0.05123 0.19911 0.0
H975 H 0.62477 0.05118 0.20716 0.0
H976 H 0.62495 0.99086 0.21277 0.0
H977 H 0.61531 0.01297 0.127 0.0
H978 H 0.63167 0.94317 0.81927 0.0
H979 H 0.63009 0.86551 0.85892 0.0
H980 H 0.63826 0.91639 0.13592 0.0
C981 C 0.6365 0.09275 0.05042 0.0
C982 C 0.6365 0.11705 0.97576 0.0
C983 C 0.63619 0.09271 0.88861 0.0
C984 C 0.63563 0.04489 0.8755 0.0
C985 C 0.63579 0.02186 0.95029 0.0
C986 C 0.63655 0.04486 0.03608 0.0
C987 C 0.63724 0.01156 0.10445 0.0
C988 C 0.65046 0.01711 0.15831 0.0
C989 C 0.62483 0.01697 0.16652 0.0
C990 C 0.6369 0.96628 0.0436 0.0
C991 C 0.63559 0.97326 0.95524 0.0
C992 C 0.63336 0.93724 0.88756 0.0
C993 C 0.63271 0.89305 0.91036 0.0
C994 C 0.63514 0.88444 0.99885 0.0
C995 C 0.63713 0.92175 0.06678 0.0
H996 H 0.12543 0.31332 0.28059 0.0
H997 H 0.13567 0.17243 0.29286 0.0
H998 H 0.13709 0.15839 0.12779 0.0
H999 H 0.10475 0.2937 0.0852 0.0
H1000 H 0.11027 0.34247 0.0349 0.0
H1001 H 0.11062 0.34401 0.15455 0.0
H1002 H 0.13591 0.36288 0.16128 0.0
H1003 H 0.13593 0.36381 0.04212 0.0
H1004 H 0.14761 0.3276 0.09115 0.0
H1005 H 0.13785 0.15955 0.95965 0.0
H1006 H 0.13773 0.17491 0.80328 0.0
H1007 H 0.12628 0.315 0.89172 0.0
C1008 C 0.12796 0.27952 0.24843 0.0
C1009 C 0.13023 0.24363 0.30074 0.0
C1010 C 0.13356 0.20011 0.25518 0.0
C1011 C 0.13449 0.19196 0.16095 0.0
C1012 C 0.13205 0.22767 0.1113 0.0
C1013 C 0.12888 0.27071 0.15341 0.0
C1014 C 0.12668 0.30294 0.08349 0.0
C1015 C 0.11221 0.32192 0.08976 0.0
C1016 C 0.13716 0.34161 0.09521 0.0
C1017 C 0.12898 0.27129 0.99544 0.0
C1018 C 0.1322 0.22812 1.01382 0.0
C1019 C 0.13528 0.19322 0.94492 0.0
C1020 C 0.13521 0.20237 0.85564 0.0
C1021 C 0.13195 0.24607 0.83344 0.0
C1022 C 0.12866 0.28098 0.90528 0.0
H1023 H 0.87636 0.31489 0.24685 0.0
H1024 H 0.89469 0.18286 0.25625 0.0
H1025 H 0.89471 0.1685 0.09089 0.0
H1026 H 0.8557 0.28821 0.05326 0.0
H1027 H 0.85926 0.33846 1.00222 0.0
H1028 H 0.86021 0.34082 0.12176 0.0
H1029 H 0.88468 0.36898 0.12637 0.0
H1030 H 0.88396 0.36983 1.00728 0.0
H1031 H 0.89714 0.33843 0.05428 0.0
H1032 H 0.89169 0.16635 0.92432 0.0
H1033 H 0.88907 0.18017 0.76838 0.0
H1034 H 0.87545 0.31778 0.85911 0.0
C1035 C 0.88041 0.28304 0.21399 0.0
C1036 C 0.88548 0.24975 0.26527 0.0
C1037 C 0.89075 0.20875 0.21907 0.0
C1038 C 0.89075 0.20027 0.12488 0.0
C1039 C 0.88577 0.23359 0.07635 0.0
C1040 C 0.88098 0.27467 0.11906 0.0
C1041 C 0.8772 0.30581 0.04981 0.0
C1042 C 0.86218 0.31905 0.05721 0.0
C1043 C 0.88628 0.34829 0.06007 0.0
C1044 C 0.88014 0.27524 0.96181 0.0
C1045 C 0.88498 0.23363 0.97939 0.0
C1046 C 0.88811 0.1991 0.91019 0.0
C1047 C 0.88661 0.20742 0.82119 0.0
C1048 C 0.88233 0.25036 0.79997 0.0
C1049 C 0.8788 0.28456 0.87212 0.0
H1050 H 0.14344 0.69622 0.16563 0.0
H1051 H 0.12237 0.82311 0.25018 0.0
H1052 H 0.11973 0.83555 0.09464 0.0
H1053 H 0.16196 0.73975 0.97884 0.0
H1054 H 0.1609 0.6861 0.90687 0.0
H1055 H 0.16125 0.68723 0.02645 0.0
H1056 H 0.13894 0.64054 1.01478 0.0
H1057 H 0.13851 0.64109 0.89556 0.0
H1058 H 0.12431 0.66254 0.96366 0.0
H1059 H 0.11748 0.83274 0.93011 0.0
H1060 H 0.11844 0.81948 0.76518 0.0
H1061 H 0.14312 0.69949 0.77628 0.0
C1062 C 0.13841 0.72684 0.15135 0.0
C1063 C 0.1328 0.75816 0.22213 0.0
C1064 C 0.12646 0.79786 0.19905 0.0
C1065 C 0.12493 0.80545 0.10996 0.0
C1066 C 0.13014 0.7737 0.04224 0.0
C1067 C 0.13703 0.73559 0.06121 0.0
C1068 C 0.14191 0.70792 0.97379 0.0
C1069 C 0.15743 0.70512 0.9714 0.0
C1070 C 0.13554 0.66018 0.96123 0.0
C1071 C 0.13659 0.73639 0.90379 0.0
C1072 C 0.12965 0.7738 0.9456 0.0
C1073 C 0.12308 0.80398 0.89668 0.0
C1074 C 0.12366 0.79614 0.80279 0.0
C1075 C 0.13096 0.75892 0.7574 0.0
C1076 C 0.13762 0.7287 0.80898 0.0
H1077 H 0.89137 0.81387 0.81426 0.0
H1078 H 0.87536 0.67924 0.72372 0.0
H1079 H 0.8725 0.66566 0.87921 0.0
H1080 H 0.91038 0.77912 1.00596 0.0
H1081 H 0.90699 0.83205 0.07684 0.0
H1082 H 0.90788 0.83073 0.95739 0.0
H1083 H 0.88399 0.86715 0.96189 0.0
H1084 H 0.88303 0.86669 0.08101 0.0
H1085 H 0.87009 0.839 1.00896 0.0
H1086 H 0.86955 0.66765 0.04415 0.0
H1087 H 0.86955 0.68118 0.20898 0.0
H1088 H 0.88952 0.81096 0.20238 0.0
C1089 C 0.88746 0.78133 0.82729 0.0
C1090 C 0.88333 0.748 0.7553 0.0
C1091 C 0.87831 0.7059 0.77641 0.0
C1092 C 0.87667 0.69768 0.86517 0.0
C1093 C 0.88037 0.73141 0.93424 0.0
C1094 C 0.88593 0.7721 0.9169 0.0
C1095 C 0.8893 0.80183 1.00512 0.0
C1096 C 0.90456 0.81147 1.01172 0.0
C1097 C 0.88112 0.84631 1.0148 0.0
C1098 C 0.88479 0.77144 0.07401 0.0
C1099 C 0.87945 0.73132 0.03088 0.0
C1100 C 0.87389 0.69869 0.07863 0.0
C1101 C 0.87386 0.7068 0.17266 0.0
C1102 C 0.87958 0.74692 0.21961 0.0
C1103 C 0.88519 0.77965 0.16895 0.0
H1104 H 0.62662 0.70213 0.30932 0.0
H1105 H 0.64704 0.83116 0.30308 0.0
H1106 H 0.6488 0.84146 0.46725 0.0
H1107 H 0.60713 0.73654 0.51512 0.0
H1108 H 0.60907 0.68336 0.55868 0.0
H1109 H 0.60921 0.68399 0.43994 0.0
H1110 H 0.63238 0.64434 0.42631 0.0
H1111 H 0.63229 0.64264 0.54523 0.0
H1112 H 0.64626 0.66856 0.49429 0.0
H1113 H 0.64909 0.83798 0.63348 0.0
H1114 H 0.64658 0.82277 0.7889 0.0
H1115 H 0.62507 0.69805 0.69759 0.0
C1116 C 0.6313 0.73283 0.34254 0.0
C1117 C 0.63673 0.76585 0.29139 0.0
C1118 C 0.64289 0.80511 0.33896 0.0
C1119 C 0.64393 0.81136 0.43294 0.0
C1120 C 0.63866 0.77832 0.4809 0.0
C1121 C 0.63236 0.73987 0.43773 0.0
C1122 C 0.62774 0.70963 0.50699 0.0
C1123 C 0.61236 0.70305 0.5049 0.0
C1124 C 0.63511 0.66355 0.49231 0.0
C1125 C 0.6321 0.73763 0.59505 0.0
C1126 C 0.63856 0.77682 0.57779 0.0
C1127 C 0.64383 0.80771 0.64728 0.0
C1128 C 0.64227 0.79893 0.7361 0.0
C1129 C 0.6353 0.76004 0.75699 0.0
C1130 C 0.63024 0.72865 0.68464 0.0
H1131 H 0.37044 0.80818 0.76454 0.0
H1132 H 0.39258 0.68283 0.77456 0.0
H1133 H 0.39291 0.66884 0.60915 0.0
H1134 H 0.35081 0.77543 0.56569 0.0
H1135 H 0.35299 0.82787 0.51936 0.0
H1136 H 0.35357 0.82805 0.63865 0.0
H1137 H 0.37717 0.86531 0.6467 0.0
H1138 H 0.37663 0.86659 0.52771 0.0
H1139 H 0.39058 0.83944 0.57624 0.0
H1140 H 0.38937 0.66536 0.44212 0.0
H1141 H 0.38649 0.67889 0.28623 0.0
H1142 H 0.37026 0.81313 0.37707 0.0
C1143 C 0.37542 0.77791 0.73199 0.0
C1144 C 0.38143 0.74632 0.78361 0.0
C1145 C 0.38787 0.70736 0.73737 0.0
C1146 C 0.38806 0.69909 0.64308 0.0
C1147 C 0.38213 0.73076 0.59436 0.0
C1148 C 0.37625 0.77009 0.63705 0.0
C1149 C 0.3717 0.80029 0.56783 0.0
C1150 C 0.35635 0.80837 0.57322 0.0
C1151 C 0.37948 0.8456 0.58039 0.0
C1152 C 0.37563 0.77128 0.47971 0.0
C1153 C 0.38139 0.73095 0.49731 0.0
C1154 C 0.3852 0.69736 0.42802 0.0
C1155 C 0.38358 0.70556 0.33899 0.0
C1156 C 0.37863 0.74772 0.31771 0.0
C1157 C 0.37429 0.78072 0.38997 0.0
H1158 H 0.62553 0.19919 0.29312 0.0
H1159 H 0.64184 0.33389 0.28146 0.0
H1160 H 0.64479 0.34501 0.44515 0.0
H1161 H 0.60639 0.2322 0.50243 0.0
H1162 H 0.60933 0.17859 0.54304 0.0
H1163 H 0.60873 0.18103 0.42454 0.0
H1164 H 0.63242 0.14352 0.4082 0.0
H1165 H 0.63312 0.14204 0.52707 0.0
H1166 H 0.64636 0.16987 0.47266 0.0
H1167 H 0.64764 0.33991 0.6101 0.0
H1168 H 0.64721 0.32359 0.76626 0.0
H1169 H 0.6266 0.19604 0.68077 0.0
C1170 C 0.62962 0.23119 0.32516 0.0
C1171 C 0.63387 0.26521 0.27283 0.0
C1172 C 0.63894 0.30668 0.31856 0.0
C1173 C 0.64059 0.31343 0.41214 0.0
C1174 C 0.63676 0.27891 0.46126 0.0
C1175 C 0.63108 0.23894 0.4198 0.0
C1176 C 0.62736 0.20821 0.48982 0.0
C1177 C 0.61204 0.19951 0.48997 0.0
C1178 C 0.63529 0.16324 0.47345 0.0
C1179 C 0.63188 0.23707 0.57672 0.0
C1180 C 0.6375 0.27739 0.55789 0.0
C1181 C 0.64309 0.30871 0.6255 0.0
C1182 C 0.64286 0.29903 0.71433 0.0
C1183 C 0.63685 0.25871 0.73677 0.0
C1184 C 0.63118 0.22741 0.66641 0.0
H1185 H 0.38031 0.31315 0.31279 0.0
H1186 H 0.37998 0.16878 0.21793 0.0
H1187 H 0.37833 0.15212 0.37347 0.0
H1188 H 0.40155 0.30416 0.5061 0.0
H1189 H 0.39308 0.34864 0.57912 0.0
H1190 H 0.39329 0.34992 0.46014 0.0
H1191 H 0.36714 0.35333 0.45777 0.0
H1192 H 0.36688 0.3528 0.57706 0.0
H1193 H 0.35753 0.31058 0.50448 0.0
H1194 H 0.37585 0.15083 0.54267 0.0
H1195 H 0.37505 0.16454 0.70808 0.0
H1196 H 0.37957 0.30928 0.7011 0.0
C1197 C 0.37987 0.27803 0.32488 0.0
C1198 C 0.38029 0.2421 0.25148 0.0
C1199 C 0.37983 0.19682 0.27161 0.0
C1200 C 0.3788 0.18707 0.36046 0.0
C1201 C 0.37852 0.22292 0.43104 0.0
C1202 C 0.37923 0.26759 0.41446 0.0
C1203 C 0.37945 0.29954 0.50342 0.0
C1204 C 0.39263 0.32722 0.51277 0.0
C1205 C 0.36701 0.33095 0.51112 0.0
C1206 C 0.37879 0.26603 0.57231 0.0
C1207 C 0.37798 0.222 0.52862 0.0
C1208 C 0.37661 0.18523 0.57706 0.0
C1209 C 0.37611 0.19334 0.6716 0.0
C1210 C 0.3773 0.23785 0.71905 0.0
C1211 C 0.37874 0.27469 0.66773 0.0
H1212 H 0.03729 0.22624 0.44777 0.0
H1213 H 0.04545 0.3284 0.27498 0.0
H1214 H 0.02096 0.34309 0.26408 0.0
H1215 H 0.00882 0.17917 0.3298 0.0
H1216 H 0.99928 0.16835 0.42649 0.0
H1217 H 0.01748 0.16954 0.43064 0.0
H1218 H 0.01659 0.23134 0.56931 0.0
H1219 H 0.99836 0.23027 0.56567 0.0
H1220 H 1.00727 0.28315 0.56375 0.0
H1221 H 0.99596 0.34275 0.26104 0.0
H1222 H 0.97154 0.32622 0.26283 0.0
H1223 H 0.97883 0.22294 0.43494 0.0
C1224 C 0.03386 0.25232 0.40931 0.0
C1225 C 0.04321 0.27648 0.36248 0.0
C1226 C 0.03842 0.30964 0.31118 0.0
C1227 C 0.02455 0.31833 0.30499 0.0
C1228 C 0.01556 0.29345 0.35031 0.0
C1229 C 0.01996 0.2611 0.40157 0.0
C1230 C 0.00801 0.23681 0.4375 0.0
C1231 C 0.00842 0.18543 0.40407 0.0
C1232 C 0.00753 0.24595 0.54016 0.0
C1233 C 0.99627 0.2598 0.39639 0.0
C1234 C 1.00092 0.29276 0.34742 0.0
C1235 C 0.99218 0.31727 0.29966 0.0
C1236 C 0.97833 0.30746 0.30065 0.0
C1237 C 0.97328 0.27325 0.34869 0.0
C1238 C 0.98238 0.24967 0.39852 0.0
H1239 H 0.9763 0.78999 0.61521 0.0
H1240 H 0.96935 0.668 0.7375 0.0
H1241 H 0.99385 0.65195 0.7331 0.0
H1242 H 1.00532 0.74504 0.47064 0.0
H1243 H 0.01437 0.79829 0.48797 0.0
H1244 H 0.99613 0.79796 0.49066 0.0
H1245 H 0.99652 0.84489 0.64828 0.0
H1246 H 0.01473 0.84532 0.64607 0.0
H1247 H 1.00595 0.82398 0.73644 0.0
H1248 H 0.01887 0.65192 0.72855 0.0
H1249 H 0.04331 0.66866 0.72664 0.0
H1250 H 0.0351 0.79098 0.6081 0.0
C1251 C 0.97997 0.75944 0.63916 0.0
C1252 C 0.97091 0.72998 0.67629 0.0
C1253 C 0.97609 0.6909 0.70883 0.0
C1254 C 0.99 0.68144 0.70627 0.0
C1255 C 0.9987 0.71142 0.67108 0.0
C1256 C 0.99396 0.74965 0.63792 0.0
C1257 C 1.00573 0.7778 0.60991 0.0
C1258 C 1.00536 0.77989 0.50878 0.0
C1259 C 1.00573 0.82583 0.66339 0.0
C1260 C 0.01777 0.74998 0.63478 0.0
C1261 C 0.01339 0.71156 0.66891 0.0
C1262 C 0.02243 0.6816 0.70104 0.0
C1263 C 0.0363 0.69141 0.69985 0.0
C1264 C 0.04111 0.73085 0.66676 0.0
C1265 C 0.03171 0.76015 0.6323 0.0
H1266 H 0.5359 0.79091 0.79794 0.0
H1267 H 0.54529 0.68201 0.95315 0.0
H1268 H 0.52095 0.67251 0.98203 0.0
H1269 H 0.50768 0.83866 0.93309 0.0
H1270 H 0.49803 0.85112 0.83809 0.0
H1271 H 0.51625 0.85088 0.83362 0.0
H1272 H 0.51553 0.79174 0.69038 0.0
H1273 H 0.49732 0.79178 0.69443 0.0
H1274 H 0.50648 0.73907 0.6921 0.0
H1275 H 0.49532 0.67246 0.98799 0.0
H1276 H 0.4707 0.68186 0.97043 0.0
H1277 H 0.47808 0.79112 0.8121 0.0
C1278 C 0.53287 0.76491 0.83775 0.0
C1279 C 0.54261 0.7373 0.87334 0.0
C1280 C 0.53812 0.70412 0.92613 0.0
C1281 C 0.52428 0.69827 0.94258 0.0
C1282 C 0.51498 0.72586 0.90594 0.0
C1283 C 0.5191 0.75858 0.85477 0.0
C1284 C 0.50707 0.78306 0.82125 0.0
C1285 C 0.50727 0.83395 0.85878 0.0
C1286 C 0.50657 0.77597 0.71845 0.0
C1287 C 0.49552 0.75863 0.86054 0.0
C1288 C 0.50029 0.72589 0.90952 0.0
C1289 C 0.49149 0.69828 0.95037 0.0
C1290 C 0.47749 0.7041 0.94042 0.0
C1291 C 0.47234 0.73732 0.88998 0.0
C1292 C 0.48159 0.76505 0.85026 0.0
H1293 H 0.47898 0.36484 0.10739 0.0
H1294 H 0.4697 0.22078 0.07199 0.0
H1295 H 0.49419 0.20319 0.05192 0.0
H1296 H 0.50843 0.36012 0.95313 0.0
H1297 H 0.51724 0.40351 0.0264 0.0
H1298 H 0.49902 0.40369 0.02212 0.0
H1299 H 0.49808 0.40314 0.19361 0.0
H1300 H 0.51624 0.40265 0.1984 0.0
H1301 H 0.5067 0.35868 0.24161 0.0
H1302 H 0.52053 0.20266 0.05724 0.0
H1303 H 0.54489 0.21919 0.08641 0.0
H1304 H 0.53615 0.36371 0.11879 0.0
C1305 C 0.48205 0.32952 0.09331 0.0
C1306 C 0.4724 0.29418 0.09123 0.0
C1307 C 0.47687 0.24844 0.0728 0.0
C1308 C 0.49079 0.2382 0.06176 0.0
C1309 C 0.5001 0.27409 0.06827 0.0
C1310 C 0.4958 0.31888 0.08258 0.0
C1311 C 0.50762 0.35153 0.09505 0.0
C1312 C 0.50811 0.38147 0.01966 0.0
C1313 C 0.50712 0.38069 0.18764 0.0
C1314 C 0.51933 0.31837 0.08829 0.0
C1315 C 0.51491 0.27378 0.07177 0.0
C1316 C 0.52404 0.23753 0.06886 0.0
C1317 C 0.53789 0.2472 0.08517 0.0
C1318 C 0.54247 0.29275 0.10527 0.0
C1319 C 0.53302 0.32849 0.10416 0.0
loop_
_geom_bond_atom_site_label_1
_geom_bond_atom_site_label_2
_geom_bond_distance
_geom_bond_site_symmetry_2
_ccdc_geom_bond_type
Tb0 N29 2.617 . S
Tb0 N35 2.572 . S
Tb0 O44 2.465 . S
Tb0 O45 2.387 . S
Tb0 O47 2.428 . S
Tb0 O48 2.308 . S
Tb0 O52 2.349 . S
Tb0 O55 2.393 . S
Tb0 C64 2.802 . S
C1 N2 1.379 . S
C1 C4 1.416 . S
C1 C8 1.424 . S
N2 C1 1.379 . S
N2 C5 1.334 . S
N2 Tb11 2.617 . S
C3 C5 1.390 . S
C3 C6 1.339 . S
C3 H23 0.930 . S
C4 C1 1.416 . S
C4 C6 1.416 . S
C4 C10 1.448 . S
C5 N2 1.334 . S
C5 C3 1.390 . S
C5 H16 0.930 . S
C6 C3 1.339 . S
C6 C4 1.416 . S
C6 H27 0.930 . S
C7 C8 1.413 . S
C7 C9 1.427 . S
C7 C13 1.416 . S
C8 C1 1.424 . S
C8 C7 1.413 . S
C8 N12 1.361 . S
C9 C7 1.427 . S
C9 C10 1.328 . S
C9 H24 0.929 . S
C10 C4 1.448 . S
C10 C9 1.328 . S
C10 H25 0.930 . S
Tb11 N2 2.617 . S
Tb11 N12 2.572 . S
Tb11 O46 2.349 . S
Tb11 O49 2.393 . S
Tb11 O50 2.465 . S
Tb11 O51 2.387 . S
Tb11 O53 2.428 . S
Tb11 O54 2.308 . S
Tb11 C75 2.802 . S
N12 C8 1.361 . S
N12 Tb11 2.572 . S
N12 C14 1.340 . S
C13 C7 1.416 . S
C13 C15 1.332 . S
C13 H21 0.931 . S
C14 N12 1.340 . S
C14 C15 1.407 . S
C14 H20 0.930 . S
C15 C13 1.332 . S
C15 C14 1.407 . S
C15 H17 0.929 . S
H16 C5 0.930 . S
H17 C15 0.929 . S
H18 C33 0.930 . S
H19 C40 0.929 . S
H20 C14 0.930 . S
H21 C13 0.931 . S
H22 C36 0.930 . S
H23 C3 0.930 . S
H24 C9 0.929 . S
H25 C10 0.930 . S
H26 C31 0.930 . S
H27 C6 0.930 . S
H28 C39 0.931 . S
N29 Tb0 2.617 . S
N29 C30 1.379 . S
N29 C33 1.334 . S
C30 N29 1.379 . S
C30 C32 1.416 . S
C30 C38 1.424 . S
C31 H26 0.930 . S
C31 C33 1.390 . S
C31 C34 1.339 . S
C32 C30 1.416 . S
C32 C34 1.416 . S
C32 C65 1.448 . S
C33 H18 0.930 . S
C33 N29 1.334 . S
C33 C31 1.390 . S
C34 C31 1.339 . S
C34 C32 1.416 . S
C34 H41 0.930 . S
N35 Tb0 2.572 . S
N35 C36 1.340 . S
N35 C38 1.361 . S
C36 H22 0.930 . S
C36 N35 1.340 . S
C36 C40 1.407 . S
C37 C38 1.413 . S
C37 C39 1.416 . S
C37 C66 1.427 . S
C38 C30 1.424 . S
C38 N35 1.361 . S
C38 C37 1.413 . S
C39 H28 0.931 . S
C39 C37 1.416 . S
C39 C40 1.332 . S
C40 H19 0.929 . S
C40 C36 1.407 . S
C40 C39 1.332 . S
H41 C34 0.930 . S
H42 C65 0.930 . S
H43 C66 0.929 . S
O44 Tb0 2.465 . S
O44 C64 1.264 . S
O45 Tb0 2.387 . S
O45 C56 1.264 . S
O46 Tb11 2.349 . S
O46 C56 1.243 . S
O47 Tb0 2.428 . S
O47 C64 1.256 . S
O48 Tb0 2.308 . S
O48 C63 1.266 . S
O49 Tb11 2.393 . S
O49 C63 1.248 . S
O50 Tb11 2.465 . S
O50 C75 1.264 . S
O51 Tb11 2.387 . S
O51 C67 1.264 . S
O52 Tb0 2.349 . S
O52 C67 1.243 . S
O53 Tb11 2.428 . S
O53 C75 1.256 . S
O54 Tb11 2.308 . S
O54 C74 1.266 . S
O55 Tb0 2.393 . S
O55 C74 1.248 . S
C56 O45 1.264 . S
C56 O46 1.243 . S
C57 C60 1.399 . S
C57 C62 1.383 . S
C57 C64 1.496 . S
C58 C59 1.399 . S
C58 C62 1.389 . S
C59 C58 1.399 . S
C59 C61 1.380 . S
C59 H76 0.929 . S
C60 C57 1.399 . S
C60 C61 1.392 . S
C60 H77 0.929 . S
C61 C59 1.380 . S
C61 C60 1.392 . S
C61 H78 0.929 . S
C62 C57 1.383 . S
C62 C58 1.389 . S
C62 H79 0.931 . S
C63 O48 1.266 . S
C63 O49 1.248 . S
C64 Tb0 2.802 . S
C64 O44 1.264 . S
C64 O47 1.256 . S
C64 C57 1.496 . S
C65 C32 1.448 . S
C65 H42 0.930 . S
C65 C66 1.328 . S
C66 C37 1.427 . S
C66 H43 0.929 . S
C66 C65 1.328 . S
C67 O51 1.264 . S
C67 O52 1.243 . S
C68 C71 1.399 . S
C68 C72 1.383 . S
C68 C75 1.496 . S
C69 C70 1.399 . S
C69 C72 1.389 . S
C70 C69 1.399 . S
C70 C73 1.380 . S
C70 H80 0.929 . S
C71 C68 1.399 . S
C71 C73 1.392 . S
C71 H81 0.929 . S
C72 C68 1.383 . S
C72 C69 1.389 . S
C72 H82 0.931 . S
C73 C70 1.380 . S
C73 C71 1.392 . S
C73 H83 0.929 . S
C74 O54 1.266 . S
C74 O55 1.248 . S
C75 Tb11 2.802 . S
C75 O50 1.264 . S
C75 O53 1.256 . S
C75 C68 1.496 . S
H76 C59 0.929 . S
H77 C60 0.929 . S
H78 C61 0.929 . S
H79 C62 0.931 . S
H80 C70 0.929 . S
H81 C71 0.929 . S
H82 C72 0.931 . S
H83 C73 0.929 . S
Tb84 N113 2.617 . S
Tb84 N119 2.572 . S
Tb84 O128 2.465 . S
Tb84 O129 2.387 . S
Tb84 O131 2.428 . S
Tb84 O132 2.308 . S
Tb84 O136 2.349 . S
Tb84 O139 2.393 . S
Tb84 C148 2.802 . S
C85 N86 1.379 . S
C85 C88 1.416 . S
C85 C92 1.424 . S
N86 C85 1.379 . S
N86 C89 1.334 . S
N86 Tb95 2.617 . S
C87 C89 1.390 . S
C87 C90 1.339 . S
C87 H107 0.930 . S
C88 C85 1.416 . S
C88 C90 1.416 . S
C88 C94 1.448 . S
C89 N86 1.334 . S
C89 C87 1.390 . S
C89 H100 0.930 . S
C90 C87 1.339 . S
C90 C88 1.416 . S
C90 H111 0.930 . S
C91 C92 1.413 . S
C91 C93 1.427 . S
C91 C97 1.416 . S
C92 C85 1.424 . S
C92 C91 1.413 . S
C92 N96 1.361 . S
C93 C91 1.427 . S
C93 C94 1.328 . S
C93 H108 0.929 . S
C94 C88 1.448 . S
C94 C93 1.328 . S
C94 H109 0.930 . S
Tb95 N86 2.617 . S
Tb95 N96 2.572 . S
Tb95 O130 2.349 . S
Tb95 O133 2.393 . S
Tb95 O134 2.465 . S
Tb95 O135 2.387 . S
Tb95 O137 2.428 . S
Tb95 O138 2.308 . S
Tb95 C159 2.802 . S
N96 C92 1.361 . S
N96 Tb95 2.572 . S
N96 C98 1.340 . S
C97 C91 1.416 . S
C97 C99 1.332 . S
C97 H105 0.931 . S
C98 N96 1.340 . S
C98 C99 1.407 . S
C98 H104 0.930 . S
C99 C97 1.332 . S
C99 C98 1.407 . S
C99 H101 0.929 . S
H100 C89 0.930 . S
H101 C99 0.929 . S
H102 C117 0.930 . S
H103 C124 0.929 . S
H104 C98 0.930 . S
H105 C97 0.931 . S
H106 C120 0.930 . S
H107 C87 0.930 . S
H108 C93 0.929 . S
H109 C94 0.930 . S
H110 C115 0.930 . S
H111 C90 0.930 . S
H112 C123 0.931 . S
N113 Tb84 2.617 . S
N113 C114 1.379 . S
N113 C117 1.334 . S
C114 N113 1.379 . S
C114 C116 1.416 . S
C114 C122 1.424 . S
C115 H110 0.930 . S
C115 C117 1.390 . S
C115 C118 1.339 . S
C116 C114 1.416 . S
C116 C118 1.416 . S
C116 C149 1.448 . S
C117 H102 0.930 . S
C117 N113 1.334 . S
C117 C115 1.390 . S
C118 C115 1.339 . S
C118 C116 1.416 . S
C118 H125 0.930 . S
N119 Tb84 2.572 . S
N119 C120 1.340 . S
N119 C122 1.361 . S
C120 H106 0.930 . S
C120 N119 1.340 . S
C120 C124 1.407 . S
C121 C122 1.413 . S
C121 C123 1.416 . S
C121 C150 1.427 . S
C122 C114 1.424 . S
C122 N119 1.361 . S
C122 C121 1.413 . S
C123 H112 0.931 . S
C123 C121 1.416 . S
C123 C124 1.332 . S
C124 H103 0.929 . S
C124 C120 1.407 . S
C124 C123 1.332 . S
H125 C118 0.930 . S
H126 C149 0.930 . S
H127 C150 0.929 . S
O128 Tb84 2.465 . S
O128 C148 1.264 . S
O129 Tb84 2.387 . S
O129 C140 1.264 . S
O130 Tb95 2.349 . S
O130 C140 1.243 . S
O131 Tb84 2.428 . S
O131 C148 1.256 . S
O132 Tb84 2.308 . S
O132 C147 1.266 . S
O133 Tb95 2.393 . S
O133 C147 1.248 . S
O134 Tb95 2.465 . S
O134 C159 1.264 . S
O135 Tb95 2.387 . S
O135 C151 1.264 . S
O136 Tb84 2.349 . S
O136 C151 1.243 . S
O137 Tb95 2.428 . S
O137 C159 1.256 . S
O138 Tb95 2.308 . S
O138 C158 1.266 . S
O139 Tb84 2.393 . S
O139 C158 1.248 . S
C140 O129 1.264 . S
C140 O130 1.243 . S
C141 C144 1.399 . S
C141 C146 1.383 . S
C141 C148 1.496 . S
C142 C143 1.399 . S
C142 C146 1.389 . S
C143 C142 1.399 . S
C143 C145 1.380 . S
C143 H160 0.929 . S
C144 C141 1.399 . S
C144 C145 1.392 . S
C144 H161 0.929 . S
C145 C143 1.380 . S
C145 C144 1.392 . S
C145 H162 0.929 . S
C146 C141 1.383 . S
C146 C142 1.389 . S
C146 H163 0.931 . S
C147 O132 1.266 . S
C147 O133 1.248 . S
C148 Tb84 2.802 . S
C148 O128 1.264 . S
C148 O131 1.256 . S
C148 C141 1.496 . S
C149 C116 1.448 . S
C149 H126 0.930 . S
C149 C150 1.328 . S
C150 C121 1.427 . S
C150 H127 0.929 . S
C150 C149 1.328 . S
C151 O135 1.264 . S
C151 O136 1.243 . S
C152 C155 1.399 . S
C152 C156 1.383 . S
C152 C159 1.496 . S
C153 C154 1.399 . S
C153 C156 1.389 . S
C154 C153 1.399 . S
C154 C157 1.380 . S
C154 H164 0.929 . S
C155 C152 1.399 . S
C155 C157 1.392 . S
C155 H165 0.929 . S
C156 C152 1.383 . S
C156 C153 1.389 . S
C156 H166 0.931 . S
C157 C154 1.380 . S
C157 C155 1.392 . S
C157 H167 0.929 . S
C158 O138 1.266 . S
C158 O139 1.248 . S
C159 Tb95 2.802 . S
C159 O134 1.264 . S
C159 O137 1.256 . S
C159 C152 1.496 . S
H160 C143 0.929 . S
H161 C144 0.929 . S
H162 C145 0.929 . S
H163 C146 0.931 . S
H164 C154 0.929 . S
H165 C155 0.929 . S
H166 C156 0.931 . S
H167 C157 0.929 . S
Tb168 N197 2.617 . S
Tb168 N203 2.572 . S
Tb168 O212 2.465 . S
Tb168 O213 2.387 . S
Tb168 O215 2.428 . S
Tb168 O216 2.308 . S
Tb168 O220 2.349 . S
Tb168 O223 2.393 . S
Tb168 C232 2.802 . S
C169 N170 1.379 . S
C169 C172 1.416 . S
C169 C176 1.424 . S
N170 C169 1.379 . S
N170 C173 1.334 . S
N170 Tb179 2.617 . S
C171 C173 1.390 . S
C171 C174 1.339 . S
C171 H191 0.930 . S
C172 C169 1.416 . S
C172 C174 1.416 . S
C172 C178 1.448 . S
C173 N170 1.334 . S
C173 C171 1.390 . S
C173 H184 0.930 . S
C174 C171 1.339 . S
C174 C172 1.416 . S
C174 H195 0.930 . S
C175 C176 1.413 . S
C175 C177 1.427 . S
C175 C181 1.416 . S
C176 C169 1.424 . S
C176 C175 1.413 . S
C176 N180 1.361 . S
C177 C175 1.427 . S
C177 C178 1.328 . S
C177 H192 0.929 . S
C178 C172 1.448 . S
C178 C177 1.328 . S
C178 H193 0.930 . S
Tb179 N170 2.617 . S
Tb179 N180 2.572 . S
Tb179 O214 2.349 . S
Tb179 O217 2.393 . S
Tb179 O218 2.465 . S
Tb179 O219 2.387 . S
Tb179 O221 2.428 . S
Tb179 O222 2.308 . S
Tb179 C243 2.802 . S
N180 C176 1.361 . S
N180 Tb179 2.572 . S
N180 C182 1.340 . S
C181 C175 1.416 . S
C181 C183 1.332 . S
C181 H189 0.931 . S
C182 N180 1.340 . S
C182 C183 1.407 . S
C182 H188 0.930 . S
C183 C181 1.332 . S
C183 C182 1.407 . S
C183 H185 0.929 . S
H184 C173 0.930 . S
H185 C183 0.929 . S
H186 C201 0.930 . S
H187 C208 0.929 . S
H188 C182 0.930 . S
H189 C181 0.931 . S
H190 C204 0.930 . S
H191 C171 0.930 . S
H192 C177 0.929 . S
H193 C178 0.930 . S
H194 C199 0.930 . S
H195 C174 0.930 . S
H196 C207 0.931 . S
N197 Tb168 2.617 . S
N197 C198 1.379 . S
N197 C201 1.334 . S
C198 N197 1.379 . S
C198 C200 1.416 . S
C198 C206 1.424 . S
C199 H194 0.930 . S
C199 C201 1.390 . S
C199 C202 1.339 . S
C200 C198 1.416 . S
C200 C202 1.416 . S
C200 C233 1.448 . S
C201 H186 0.930 . S
C201 N197 1.334 . S
C201 C199 1.390 . S
C202 C199 1.339 . S
C202 C200 1.416 . S
C202 H209 0.930 . S
N203 Tb168 2.572 . S
N203 C204 1.340 . S
N203 C206 1.361 . S
C204 H190 0.930 . S
C204 N203 1.340 . S
C204 C208 1.407 . S
C205 C206 1.413 . S
C205 C207 1.416 . S
C205 C234 1.427 . S
C206 C198 1.424 . S
C206 N203 1.361 . S
C206 C205 1.413 . S
C207 H196 0.931 . S
C207 C205 1.416 . S
C207 C208 1.332 . S
C208 H187 0.929 . S
C208 C204 1.407 . S
C208 C207 1.332 . S
H209 C202 0.930 . S
H210 C233 0.930 . S
H211 C234 0.929 . S
O212 Tb168 2.465 . S
O212 C232 1.264 . S
O213 Tb168 2.387 . S
O213 C224 1.264 . S
O214 Tb179 2.349 . S
O214 C224 1.243 . S
O215 Tb168 2.428 . S
O215 C232 1.256 . S
O216 Tb168 2.308 . S
O216 C231 1.266 . S
O217 Tb179 2.393 . S
O217 C231 1.248 . S
O218 Tb179 2.465 . S
O218 C243 1.264 . S
O219 Tb179 2.387 . S
O219 C235 1.264 . S
O220 Tb168 2.349 . S
O220 C235 1.243 . S
O221 Tb179 2.428 . S
O221 C243 1.256 . S
O222 Tb179 2.308 . S
O222 C242 1.266 . S
O223 Tb168 2.393 . S
O223 C242 1.248 . S
C224 O213 1.264 . S
C224 O214 1.243 . S
C225 C228 1.399 . S
C225 C230 1.383 . S
C225 C232 1.496 . S
C226 C227 1.399 . S
C226 C230 1.389 . S
C227 C226 1.399 . S
C227 C229 1.380 . S
C227 H244 0.929 . S
C228 C225 1.399 . S
C228 C229 1.392 . S
C228 H245 0.929 . S
C229 C227 1.380 . S
C229 C228 1.392 . S
C229 H246 0.929 . S
C230 C225 1.383 . S
C230 C226 1.389 . S
C230 H247 0.931 . S
C231 O216 1.266 . S
C231 O217 1.248 . S
C232 Tb168 2.802 . S
C232 O212 1.264 . S
C232 O215 1.256 . S
C232 C225 1.496 . S
C233 C200 1.448 . S
C233 H210 0.930 . S
C233 C234 1.328 . S
C234 C205 1.427 . S
C234 H211 0.929 . S
C234 C233 1.328 . S
C235 O219 1.264 . S
C235 O220 1.243 . S
C236 C239 1.399 . S
C236 C240 1.383 . S
C236 C243 1.496 . S
C237 C238 1.399 . S
C237 C240 1.389 . S
C238 C237 1.399 . S
C238 C241 1.380 . S
C238 H248 0.929 . S
C239 C236 1.399 . S
C239 C241 1.392 . S
C239 H249 0.929 . S
C240 C236 1.383 . S
C240 C237 1.389 . S
C240 H250 0.931 . S
C241 C238 1.380 . S
C241 C239 1.392 . S
C241 H251 0.929 . S
C242 O222 1.266 . S
C242 O223 1.248 . S
C243 Tb179 2.802 . S
C243 O218 1.264 . S
C243 O221 1.256 . S
C243 C236 1.496 . S
H244 C227 0.929 . S
H245 C228 0.929 . S
H246 C229 0.929 . S
H247 C230 0.931 . S
H248 C238 0.929 . S
H249 C239 0.929 . S
H250 C240 0.931 . S
H251 C241 0.929 . S
Tb252 N281 2.617 . S
Tb252 N287 2.572 . S
Tb252 O296 2.465 . S
Tb252 O297 2.387 . S
Tb252 O299 2.428 . S
Tb252 O300 2.308 . S
Tb252 O304 2.349 . S
Tb252 O307 2.393 . S
Tb252 C316 2.802 . S
C253 N254 1.379 . S
C253 C256 1.416 . S
C253 C260 1.424 . S
N254 C253 1.379 . S
N254 C257 1.334 . S
N254 Tb263 2.617 . S
C255 C257 1.390 . S
C255 C258 1.339 . S
C255 H275 0.930 . S
C256 C253 1.416 . S
C256 C258 1.416 . S
C256 C262 1.448 . S
C257 N254 1.334 . S
C257 C255 1.390 . S
C257 H268 0.930 . S
C258 C255 1.339 . S
C258 C256 1.416 . S
C258 H279 0.930 . S
C259 C260 1.413 . S
C259 C261 1.427 . S
C259 C265 1.416 . S
C260 C253 1.424 . S
C260 C259 1.413 . S
C260 N264 1.361 . S
C261 C259 1.427 . S
C261 C262 1.328 . S
C261 H276 0.929 . S
C262 C256 1.448 . S
C262 C261 1.328 . S
C262 H277 0.930 . S
Tb263 N254 2.617 . S
Tb263 N264 2.572 . S
Tb263 O298 2.349 . S
Tb263 O301 2.393 . S
Tb263 O302 2.465 . S
Tb263 O303 2.387 . S
Tb263 O305 2.428 . S
Tb263 O306 2.308 . S
Tb263 C327 2.802 . S
N264 C260 1.361 . S
N264 Tb263 2.572 . S
N264 C266 1.340 . S
C265 C259 1.416 . S
C265 C267 1.332 . S
C265 H273 0.931 . S
C266 N264 1.340 . S
C266 C267 1.407 . S
C266 H272 0.930 . S
C267 C265 1.332 . S
C267 C266 1.407 . S
C267 H269 0.929 . S
H268 C257 0.930 . S
H269 C267 0.929 . S
H270 C285 0.930 . S
H271 C292 0.929 . S
H272 C266 0.930 . S
H273 C265 0.931 . S
H274 C288 0.930 . S
H275 C255 0.930 . S
H276 C261 0.929 . S
H277 C262 0.930 . S
H278 C283 0.930 . S
H279 C258 0.930 . S
H280 C291 0.931 . S
N281 Tb252 2.617 . S
N281 C282 1.379 . S
N281 C285 1.334 . S
C282 N281 1.379 . S
C282 C284 1.416 . S
C282 C290 1.424 . S
C283 H278 0.930 . S
C283 C285 1.390 . S
C283 C286 1.339 . S
C284 C282 1.416 . S
C284 C286 1.416 . S
C284 C317 1.448 . S
C285 H270 0.930 . S
C285 N281 1.334 . S
C285 C283 1.390 . S
C286 C283 1.339 . S
C286 C284 1.416 . S
C286 H293 0.930 . S
N287 Tb252 2.572 . S
N287 C288 1.340 . S
N287 C290 1.361 . S
C288 H274 0.930 . S
C288 N287 1.340 . S
C288 C292 1.407 . S
C289 C290 1.413 . S
C289 C291 1.416 . S
C289 C318 1.427 . S
C290 C282 1.424 . S
C290 N287 1.361 . S
C290 C289 1.413 . S
C291 H280 0.931 . S
C291 C289 1.416 . S
C291 C292 1.332 . S
C292 H271 0.929 . S
C292 C288 1.407 . S
C292 C291 1.332 . S
H293 C286 0.930 . S
H294 C317 0.930 . S
H295 C318 0.929 . S
O296 Tb252 2.465 . S
O296 C316 1.264 . S
O297 Tb252 2.387 . S
O297 C308 1.264 . S
O298 Tb263 2.349 . S
O298 C308 1.243 . S
O299 Tb252 2.428 . S
O299 C316 1.256 . S
O300 Tb252 2.308 . S
O300 C315 1.266 . S
O301 Tb263 2.393 . S
O301 C315 1.248 . S
O302 Tb263 2.465 . S
O302 C327 1.264 . S
O303 Tb263 2.387 . S
O303 C319 1.264 . S
O304 Tb252 2.349 . S
O304 C319 1.243 . S
O305 Tb263 2.428 . S
O305 C327 1.256 . S
O306 Tb263 2.308 . S
O306 C326 1.266 . S
O307 Tb252 2.393 . S
O307 C326 1.248 . S
C308 O297 1.264 . S
C308 O298 1.243 . S
C309 C312 1.399 . S
C309 C314 1.383 . S
C309 C316 1.496 . S
C310 C311 1.399 . S
C310 C314 1.389 . S
C311 C310 1.399 . S
C311 C313 1.380 . S
C311 H328 0.929 . S
C312 C309 1.399 . S
C312 C313 1.392 . S
C312 H329 0.929 . S
C313 C311 1.380 . S
C313 C312 1.392 . S
C313 H330 0.929 . S
C314 C309 1.383 . S
C314 C310 1.389 . S
C314 H331 0.931 . S
C315 O300 1.266 . S
C315 O301 1.248 . S
C316 Tb252 2.802 . S
C316 O296 1.264 . S
C316 O299 1.256 . S
C316 C309 1.496 . S
C317 C284 1.448 . S
C317 H294 0.930 . S
C317 C318 1.328 . S
C318 C289 1.427 . S
C318 H295 0.929 . S
C318 C317 1.328 . S
C319 O303 1.264 . S
C319 O304 1.243 . S
C320 C323 1.399 . S
C320 C324 1.383 . S
C320 C327 1.496 . S
C321 C322 1.399 . S
C321 C324 1.389 . S
C322 C321 1.399 . S
C322 C325 1.380 . S
C322 H332 0.929 . S
C323 C320 1.399 . S
C323 C325 1.392 . S
C323 H333 0.929 . S
C324 C320 1.383 . S
C324 C321 1.389 . S
C324 H334 0.931 . S
C325 C322 1.380 . S
C325 C323 1.392 . S
C325 H335 0.929 . S
C326 O306 1.266 . S
C326 O307 1.248 . S
C327 Tb263 2.802 . S
C327 O302 1.264 . S
C327 O305 1.256 . S
C327 C320 1.496 . S
H328 C311 0.929 . S
H329 C312 0.929 . S
H330 C313 0.929 . S
H331 C314 0.931 . S
H332 C322 0.929 . S
H333 C323 0.929 . S
H334 C324 0.931 . S
H335 C325 0.929 . S
Tb336 N365 2.617 . S
Tb336 N371 2.572 . S
Tb336 O380 2.465 1_556 S
Tb336 O381 2.387 . S
Tb336 O383 2.428 1_556 S
Tb336 O384 2.308 . S
Tb336 O388 2.349 1_556 S
Tb336 O391 2.393 1_556 S
Tb336 C400 2.802 1_556 S
C337 N338 1.379 . S
C337 C340 1.416 . S
C337 C344 1.424 . S
N338 C337 1.379 . S
N338 C341 1.334 . S
N338 Tb347 2.617 . S
C339 C341 1.390 . S
C339 C342 1.339 . S
C339 H359 0.930 . S
C340 C337 1.416 . S
C340 C342 1.416 . S
C340 C346 1.448 . S
C341 N338 1.334 . S
C341 C339 1.390 . S
C341 H352 0.930 . S
C342 C339 1.339 . S
C342 C340 1.416 . S
C342 H363 0.930 . S
C343 C344 1.413 . S
C343 C345 1.427 . S
C343 C349 1.416 . S
C344 C337 1.424 . S
C344 C343 1.413 . S
C344 N348 1.361 . S
C345 C343 1.427 . S
C345 C346 1.328 . S
C345 H360 0.929 . S
C346 C340 1.448 . S
C346 C345 1.328 . S
C346 H361 0.930 . S
Tb347 N338 2.617 . S
Tb347 N348 2.572 . S
Tb347 O382 2.349 1_554 S
Tb347 O385 2.393 1_554 S
Tb347 O386 2.465 1_554 S
Tb347 O387 2.387 . S
Tb347 O389 2.428 1_554 S
Tb347 O390 2.308 . S
Tb347 C411 2.802 1_554 S
N348 C344 1.361 . S
N348 Tb347 2.572 . S
N348 C350 1.340 . S
C349 C343 1.416 . S
C349 C351 1.332 . S
C349 H357 0.931 . S
C350 N348 1.340 . S
C350 C351 1.407 . S
C350 H356 0.930 . S
C351 C349 1.332 . S
C351 C350 1.407 . S
C351 H353 0.929 . S
H352 C341 0.930 . S
H353 C351 0.929 . S
H354 C369 0.930 . S
H355 C376 0.929 . S
H356 C350 0.930 . S
H357 C349 0.931 . S
H358 C372 0.930 . S
H359 C339 0.930 . S
H360 C345 0.929 . S
H361 C346 0.930 . S
H362 C367 0.930 . S
H363 C342 0.930 . S
H364 C375 0.931 . S
N365 Tb336 2.617 . S
N365 C366 1.379 . S
N365 C369 1.334 . S
C366 N365 1.379 . S
C366 C368 1.416 . S
C366 C374 1.424 . S
C367 H362 0.930 . S
C367 C369 1.390 . S
C367 C370 1.339 . S
C368 C366 1.416 . S
C368 C370 1.416 . S
C368 C401 1.448 . S
C369 H354 0.930 . S
C369 N365 1.334 . S
C369 C367 1.390 . S
C370 C367 1.339 . S
C370 C368 1.416 . S
C370 H377 0.930 . S
N371 Tb336 2.572 . S
N371 C372 1.340 . S
N371 C374 1.361 . S
C372 H358 0.930 . S
C372 N371 1.340 . S
C372 C376 1.407 . S
C373 C374 1.413 . S
C373 C375 1.416 . S
C373 C402 1.427 . S
C374 C366 1.424 . S
C374 N371 1.361 . S
C374 C373 1.413 . S
C375 H364 0.931 . S
C375 C373 1.416 . S
C375 C376 1.332 . S
C376 H355 0.929 . S
C376 C372 1.407 . S
C376 C375 1.332 . S
H377 C370 0.930 . S
H378 C401 0.930 . S
H379 C402 0.929 . S
O380 Tb336 2.465 1_554 S
O380 C400 1.264 . S
O381 Tb336 2.387 . S
O381 C392 1.264 . S
O382 Tb347 2.349 1_556 S
O382 C392 1.243 . S
O383 Tb336 2.428 1_554 S
O383 C400 1.256 . S
O384 Tb336 2.308 . S
O384 C399 1.266 . S
O385 Tb347 2.393 1_556 S
O385 C399 1.248 . S
O386 Tb347 2.465 1_556 S
O386 C411 1.264 . S
O387 Tb347 2.387 . S
O387 C403 1.264 . S
O388 Tb336 2.349 1_554 S
O388 C403 1.243 . S
O389 Tb347 2.428 1_556 S
O389 C411 1.256 . S
O390 Tb347 2.308 . S
O390 C410 1.266 . S
O391 Tb336 2.393 1_554 S
O391 C410 1.248 . S
C392 O381 1.264 . S
C392 O382 1.243 . S
C393 C396 1.399 . S
C393 C398 1.383 . S
C393 C400 1.496 . S
C394 C395 1.399 . S
C394 C398 1.389 . S
C395 C394 1.399 . S
C395 C397 1.380 . S
C395 H412 0.929 . S
C396 C393 1.399 . S
C396 C397 1.392 . S
C396 H413 0.929 . S
C397 C395 1.380 . S
C397 C396 1.392 . S
C397 H414 0.929 . S
C398 C393 1.383 . S
C398 C394 1.389 . S
C398 H415 0.931 . S
C399 O384 1.266 . S
C399 O385 1.248 . S
C400 Tb336 2.802 1_554 S
C400 O380 1.264 . S
C400 O383 1.256 . S
C400 C393 1.496 . S
C401 C368 1.448 . S
C401 H378 0.930 . S
C401 C402 1.328 . S
C402 C373 1.427 . S
C402 H379 0.929 . S
C402 C401 1.328 . S
C403 O387 1.264 . S
C403 O388 1.243 . S
C404 C407 1.399 . S
C404 C408 1.383 . S
C404 C411 1.496 . S
C405 C406 1.399 . S
C405 C408 1.389 . S
C406 C405 1.399 . S
C406 C409 1.380 . S
C406 H416 0.929 . S
C407 C404 1.399 . S
C407 C409 1.392 . S
C407 H417 0.929 . S
C408 C404 1.383 . S
C408 C405 1.389 . S
C408 H418 0.931 . S
C409 C406 1.380 . S
C409 C407 1.392 . S
C409 H419 0.929 . S
C410 O390 1.266 . S
C410 O391 1.248 . S
C411 Tb347 2.802 1_556 S
C411 O386 1.264 . S
C411 O389 1.256 . S
C411 C404 1.496 . S
H412 C395 0.929 . S
H413 C396 0.929 . S
H414 C397 0.929 . S
H415 C398 0.931 . S
H416 C406 0.929 . S
H417 C407 0.929 . S
H418 C408 0.931 . S
H419 C409 0.929 . S
Tb420 N449 2.617 . S
Tb420 N455 2.572 . S
Tb420 O464 2.465 1_554 S
Tb420 O465 2.387 . S
Tb420 O467 2.428 1_554 S
Tb420 O468 2.308 . S
Tb420 O472 2.349 1_554 S
Tb420 O475 2.393 1_554 S
Tb420 C484 2.802 1_554 S
C421 N422 1.379 . S
C421 C424 1.416 . S
C421 C428 1.424 . S
N422 C421 1.379 . S
N422 C425 1.334 . S
N422 Tb431 2.617 . S
C423 C425 1.390 . S
C423 C426 1.339 . S
C423 H443 0.930 . S
C424 C421 1.416 . S
C424 C426 1.416 . S
C424 C430 1.448 . S
C425 N422 1.334 . S
C425 C423 1.390 . S
C425 H436 0.930 . S
C426 C423 1.339 . S
C426 C424 1.416 . S
C426 H447 0.930 . S
C427 C428 1.413 . S
C427 C429 1.427 . S
C427 C433 1.416 . S
C428 C421 1.424 . S
C428 C427 1.413 . S
C428 N432 1.361 . S
C429 C427 1.427 . S
C429 C430 1.328 . S
C429 H444 0.929 . S
C430 C424 1.448 . S
C430 C429 1.328 . S
C430 H445 0.930 . S
Tb431 N422 2.617 . S
Tb431 N432 2.572 . S
Tb431 O466 2.349 1_556 S
Tb431 O469 2.393 1_556 S
Tb431 O470 2.465 1_556 S
Tb431 O471 2.387 . S
Tb431 O473 2.428 1_556 S
Tb431 O474 2.308 . S
Tb431 C495 2.802 1_556 S
N432 C428 1.361 . S
N432 Tb431 2.572 . S
N432 C434 1.340 . S
C433 C427 1.416 . S
C433 C435 1.332 . S
C433 H441 0.931 . S
C434 N432 1.340 . S
C434 C435 1.407 . S
C434 H440 0.930 . S
C435 C433 1.332 . S
C435 C434 1.407 . S
C435 H437 0.929 . S
H436 C425 0.930 . S
H437 C435 0.929 . S
H438 C453 0.930 . S
H439 C460 0.929 . S
H440 C434 0.930 . S
H441 C433 0.931 . S
H442 C456 0.930 . S
H443 C423 0.930 . S
H444 C429 0.929 . S
H445 C430 0.930 . S
H446 C451 0.930 . S
H447 C426 0.930 . S
H448 C459 0.931 . S
N449 Tb420 2.617 . S
N449 C450 1.379 . S
N449 C453 1.334 . S
C450 N449 1.379 . S
C450 C452 1.416 . S
C450 C458 1.424 . S
C451 H446 0.930 . S
C451 C453 1.390 . S
C451 C454 1.339 . S
C452 C450 1.416 . S
C452 C454 1.416 . S
C452 C485 1.448 . S
C453 H438 0.930 . S
C453 N449 1.334 . S
C453 C451 1.390 . S
C454 C451 1.339 . S
C454 C452 1.416 . S
C454 H461 0.930 . S
N455 Tb420 2.572 . S
N455 C456 1.340 . S
N455 C458 1.361 . S
C456 H442 0.930 . S
C456 N455 1.340 . S
C456 C460 1.407 . S
C457 C458 1.413 . S
C457 C459 1.416 . S
C457 C486 1.427 . S
C458 C450 1.424 . S
C458 N455 1.361 . S
C458 C457 1.413 . S
C459 H448 0.931 . S
C459 C457 1.416 . S
C459 C460 1.332 . S
C460 H439 0.929 . S
C460 C456 1.407 . S
C460 C459 1.332 . S
H461 C454 0.930 . S
H462 C485 0.930 . S
H463 C486 0.929 . S
O464 Tb420 2.465 1_556 S
O464 C484 1.264 . S
O465 Tb420 2.387 . S
O465 C476 1.264 . S
O466 Tb431 2.349 1_554 S
O466 C476 1.243 . S
O467 Tb420 2.428 1_556 S
O467 C484 1.256 . S
O468 Tb420 2.308 . S
O468 C483 1.266 . S
O469 Tb431 2.393 1_554 S
O469 C483 1.248 . S
O470 Tb431 2.465 1_554 S
O470 C495 1.264 . S
O471 Tb431 2.387 . S
O471 C487 1.264 . S
O472 Tb420 2.349 1_556 S
O472 C487 1.243 . S
O473 Tb431 2.428 1_554 S
O473 C495 1.256 . S
O474 Tb431 2.308 . S
O474 C494 1.266 . S
O475 Tb420 2.393 1_556 S
O475 C494 1.248 . S
C476 O465 1.264 . S
C476 O466 1.243 . S
C477 C480 1.399 . S
C477 C482 1.383 . S
C477 C484 1.496 . S
C478 C479 1.399 . S
C478 C482 1.389 . S
C479 C478 1.399 . S
C479 C481 1.380 . S
C479 H496 0.929 . S
C480 C477 1.399 . S
C480 C481 1.392 . S
C480 H497 0.929 . S
C481 C479 1.380 . S
C481 C480 1.392 . S
C481 H498 0.929 . S
C482 C477 1.383 . S
C482 C478 1.389 . S
C482 H499 0.931 . S
C483 O468 1.266 . S
C483 O469 1.248 . S
C484 Tb420 2.802 1_556 S
C484 O464 1.264 . S
C484 O467 1.256 . S
C484 C477 1.496 . S
C485 C452 1.448 . S
C485 H462 0.930 . S
C485 C486 1.328 . S
C486 C457 1.427 . S
C486 H463 0.929 . S
C486 C485 1.328 . S
C487 O471 1.264 . S
C487 O472 1.243 . S
C488 C491 1.399 . S
C488 C492 1.383 . S
C488 C495 1.496 . S
C489 C490 1.399 . S
C489 C492 1.389 . S
C490 C489 1.399 . S
C490 C493 1.380 . S
C490 H500 0.929 . S
C491 C488 1.399 . S
C491 C493 1.392 . S
C491 H501 0.929 . S
C492 C488 1.383 . S
C492 C489 1.389 . S
C492 H502 0.931 . S
C493 C490 1.380 . S
C493 C491 1.392 . S
C493 H503 0.929 . S
C494 O474 1.266 . S
C494 O475 1.248 . S
C495 Tb431 2.802 1_554 S
C495 O470 1.264 . S
C495 O473 1.256 . S
C495 C488 1.496 . S
H496 C479 0.929 . S
H497 C480 0.929 . S
H498 C481 0.929 . S
H499 C482 0.931 . S
H500 C490 0.929 . S
H501 C491 0.929 . S
H502 C492 0.931 . S
H503 C493 0.929 . S
Tb504 N533 2.617 . S
Tb504 N539 2.572 . S
Tb504 O548 2.465 1_554 S
Tb504 O549 2.387 . S
Tb504 O551 2.428 1_554 S
Tb504 O552 2.308 . S
Tb504 O556 2.349 1_554 S
Tb504 O559 2.393 1_554 S
Tb504 C568 2.802 1_554 S
C505 N506 1.379 . S
C505 C508 1.416 . S
C505 C512 1.424 . S
N506 C505 1.379 . S
N506 C509 1.334 . S
N506 Tb515 2.617 . S
C507 C509 1.390 . S
C507 C510 1.339 . S
C507 H527 0.930 . S
C508 C505 1.416 . S
C508 C510 1.416 . S
C508 C514 1.448 . S
C509 N506 1.334 . S
C509 C507 1.390 . S
C509 H520 0.930 . S
C510 C507 1.339 . S
C510 C508 1.416 . S
C510 H531 0.930 . S
C511 C512 1.413 . S
C511 C513 1.427 . S
C511 C517 1.416 . S
C512 C505 1.424 . S
C512 C511 1.413 . S
C512 N516 1.361 . S
C513 C511 1.427 . S
C513 C514 1.328 . S
C513 H528 0.929 . S
C514 C508 1.448 . S
C514 C513 1.328 . S
C514 H529 0.930 . S
Tb515 N506 2.617 . S
Tb515 N516 2.572 . S
Tb515 O550 2.349 1_556 S
Tb515 O553 2.393 1_556 S
Tb515 O554 2.465 1_556 S
Tb515 O555 2.387 . S
Tb515 O557 2.428 1_556 S
Tb515 O558 2.308 . S
Tb515 C579 2.802 1_556 S
N516 C512 1.361 . S
N516 Tb515 2.572 . S
N516 C518 1.340 . S
C517 C511 1.416 . S
C517 C519 1.332 . S
C517 H525 0.931 . S
C518 N516 1.340 . S
C518 C519 1.407 . S
C518 H524 0.930 . S
C519 C517 1.332 . S
C519 C518 1.407 . S
C519 H521 0.929 . S
H520 C509 0.930 . S
H521 C519 0.929 . S
H522 C537 0.930 . S
H523 C544 0.929 . S
H524 C518 0.930 . S
H525 C517 0.931 . S
H526 C540 0.930 . S
H527 C507 0.930 . S
H528 C513 0.929 . S
H529 C514 0.930 . S
H530 C535 0.930 . S
H531 C510 0.930 . S
H532 C543 0.931 . S
N533 Tb504 2.617 . S
N533 C534 1.379 . S
N533 C537 1.334 . S
C534 N533 1.379 . S
C534 C536 1.416 . S
C534 C542 1.424 . S
C535 H530 0.930 . S
C535 C537 1.390 . S
C535 C538 1.339 . S
C536 C534 1.416 . S
C536 C538 1.416 . S
C536 C569 1.448 . S
C537 H522 0.930 . S
C537 N533 1.334 . S
C537 C535 1.390 . S
C538 C535 1.339 . S
C538 C536 1.416 . S
C538 H545 0.930 . S
N539 Tb504 2.572 . S
N539 C540 1.340 . S
N539 C542 1.361 . S
C540 H526 0.930 . S
C540 N539 1.340 . S
C540 C544 1.407 . S
C541 C542 1.413 . S
C541 C543 1.416 . S
C541 C570 1.427 . S
C542 C534 1.424 . S
C542 N539 1.361 . S
C542 C541 1.413 . S
C543 H532 0.931 . S
C543 C541 1.416 . S
C543 C544 1.332 . S
C544 H523 0.929 . S
C544 C540 1.407 . S
C544 C543 1.332 . S
H545 C538 0.930 . S
H546 C569 0.930 . S
H547 C570 0.929 . S
O548 Tb504 2.465 1_556 S
O548 C568 1.264 . S
O549 Tb504 2.387 . S
O549 C560 1.264 . S
O550 Tb515 2.349 1_554 S
O550 C560 1.243 . S
O551 Tb504 2.428 1_556 S
O551 C568 1.256 . S
O552 Tb504 2.308 . S
O552 C567 1.266 . S
O553 Tb515 2.393 1_554 S
O553 C567 1.248 . S
O554 Tb515 2.465 1_554 S
O554 C579 1.264 . S
O555 Tb515 2.387 . S
O555 C571 1.264 . S
O556 Tb504 2.349 1_556 S
O556 C571 1.243 . S
O557 Tb515 2.428 1_554 S
O557 C579 1.256 . S
O558 Tb515 2.308 . S
O558 C578 1.266 . S
O559 Tb504 2.393 1_556 S
O559 C578 1.248 . S
C560 O549 1.264 . S
C560 O550 1.243 . S
C561 C564 1.399 . S
C561 C566 1.383 . S
C561 C568 1.496 . S
C562 C563 1.399 . S
C562 C566 1.389 . S
C563 C562 1.399 . S
C563 C565 1.380 . S
C563 H580 0.929 . S
C564 C561 1.399 . S
C564 C565 1.392 . S
C564 H581 0.929 . S
C565 C563 1.380 . S
C565 C564 1.392 . S
C565 H582 0.929 . S
C566 C561 1.383 . S
C566 C562 1.389 . S
C566 H583 0.931 . S
C567 O552 1.266 . S
C567 O553 1.248 . S
C568 Tb504 2.802 1_556 S
C568 O548 1.264 . S
C568 O551 1.256 . S
C568 C561 1.496 . S
C569 C536 1.448 . S
C569 H546 0.930 . S
C569 C570 1.328 . S
C570 C541 1.427 . S
C570 H547 0.929 . S
C570 C569 1.328 . S
C571 O555 1.264 . S
C571 O556 1.243 . S
C572 C575 1.399 . S
C572 C576 1.383 . S
C572 C579 1.496 . S
C573 C574 1.399 . S
C573 C576 1.389 . S
C574 C573 1.399 . S
C574 C577 1.380 . S
C574 H584 0.929 . S
C575 C572 1.399 . S
C575 C577 1.392 . S
C575 H585 0.929 . S
C576 C572 1.383 . S
C576 C573 1.389 . S
C576 H586 0.931 . S
C577 C574 1.380 . S
C577 C575 1.392 . S
C577 H587 0.929 . S
C578 O558 1.266 . S
C578 O559 1.248 . S
C579 Tb515 2.802 1_554 S
C579 O554 1.264 . S
C579 O557 1.256 . S
C579 C572 1.496 . S
H580 C563 0.929 . S
H581 C564 0.929 . S
H582 C565 0.929 . S
H583 C566 0.931 . S
H584 C574 0.929 . S
H585 C575 0.929 . S
H586 C576 0.931 . S
H587 C577 0.929 . S
Tb588 N617 2.617 . S
Tb588 N623 2.572 . S
Tb588 O632 2.465 1_556 S
Tb588 O633 2.387 . S
Tb588 O635 2.428 1_556 S
Tb588 O636 2.308 . S
Tb588 O640 2.349 1_556 S
Tb588 O643 2.393 1_556 S
Tb588 C652 2.802 1_556 S
C589 N590 1.379 . S
C589 C592 1.416 . S
C589 C596 1.424 . S
N590 C589 1.379 . S
N590 C593 1.334 . S
N590 Tb599 2.617 . S
C591 C593 1.390 . S
C591 C594 1.339 . S
C591 H611 0.930 . S
C592 C589 1.416 . S
C592 C594 1.416 . S
C592 C598 1.448 . S
C593 N590 1.334 . S
C593 C591 1.390 . S
C593 H604 0.930 . S
C594 C591 1.339 . S
C594 C592 1.416 . S
C594 H615 0.930 . S
C595 C596 1.413 . S
C595 C597 1.427 . S
C595 C601 1.416 . S
C596 C589 1.424 . S
C596 C595 1.413 . S
C596 N600 1.361 . S
C597 C595 1.427 . S
C597 C598 1.328 . S
C597 H612 0.929 . S
C598 C592 1.448 . S
C598 C597 1.328 . S
C598 H613 0.930 . S
Tb599 N590 2.617 . S
Tb599 N600 2.572 . S
Tb599 O634 2.349 1_554 S
Tb599 O637 2.393 1_554 S
Tb599 O638 2.465 1_554 S
Tb599 O639 2.387 . S
Tb599 O641 2.428 1_554 S
Tb599 O642 2.308 . S
Tb599 C663 2.802 1_554 S
N600 C596 1.361 . S
N600 Tb599 2.572 . S
N600 C602 1.340 . S
C601 C595 1.416 . S
C601 C603 1.332 . S
C601 H609 0.931 . S
C602 N600 1.340 . S
C602 C603 1.407 . S
C602 H608 0.930 . S
C603 C601 1.332 . S
C603 C602 1.407 . S
C603 H605 0.929 . S
H604 C593 0.930 . S
H605 C603 0.929 . S
H606 C621 0.930 . S
H607 C628 0.929 . S
H608 C602 0.930 . S
H609 C601 0.931 . S
H610 C624 0.930 . S
H611 C591 0.930 . S
H612 C597 0.929 . S
H613 C598 0.930 . S
H614 C619 0.930 . S
H615 C594 0.930 . S
H616 C627 0.931 . S
N617 Tb588 2.617 . S
N617 C618 1.379 . S
N617 C621 1.334 . S
C618 N617 1.379 . S
C618 C620 1.416 . S
C618 C626 1.424 . S
C619 H614 0.930 . S
C619 C621 1.390 . S
C619 C622 1.339 . S
C620 C618 1.416 . S
C620 C622 1.416 . S
C620 C653 1.448 . S
C621 H606 0.930 . S
C621 N617 1.334 . S
C621 C619 1.390 . S
C622 C619 1.339 . S
C622 C620 1.416 . S
C622 H629 0.930 . S
N623 Tb588 2.572 . S
N623 C624 1.340 . S
N623 C626 1.361 . S
C624 H610 0.930 . S
C624 N623 1.340 . S
C624 C628 1.407 . S
C625 C626 1.413 . S
C625 C627 1.416 . S
C625 C654 1.427 . S
C626 C618 1.424 . S
C626 N623 1.361 . S
C626 C625 1.413 . S
C627 H616 0.931 . S
C627 C625 1.416 . S
C627 C628 1.332 . S
C628 H607 0.929 . S
C628 C624 1.407 . S
C628 C627 1.332 . S
H629 C622 0.930 . S
H630 C653 0.930 . S
H631 C654 0.929 . S
O632 Tb588 2.465 1_554 S
O632 C652 1.264 . S
O633 Tb588 2.387 . S
O633 C644 1.264 . S
O634 Tb599 2.349 1_556 S
O634 C644 1.243 . S
O635 Tb588 2.428 1_554 S
O635 C652 1.256 . S
O636 Tb588 2.308 . S
O636 C651 1.266 . S
O637 Tb599 2.393 1_556 S
O637 C651 1.248 . S
O638 Tb599 2.465 1_556 S
O638 C663 1.264 . S
O639 Tb599 2.387 . S
O639 C655 1.264 . S
O640 Tb588 2.349 1_554 S
O640 C655 1.243 . S
O641 Tb599 2.428 1_556 S
O641 C663 1.256 . S
O642 Tb599 2.308 . S
O642 C662 1.266 . S
O643 Tb588 2.393 1_554 S
O643 C662 1.248 . S
C644 O633 1.264 . S
C644 O634 1.243 . S
C645 C648 1.399 . S
C645 C650 1.383 . S
C645 C652 1.496 . S
C646 C647 1.399 . S
C646 C650 1.389 . S
C647 C646 1.399 . S
C647 C649 1.380 . S
C647 H664 0.929 . S
C648 C645 1.399 . S
C648 C649 1.392 . S
C648 H665 0.929 . S
C649 C647 1.380 . S
C649 C648 1.392 . S
C649 H666 0.929 . S
C650 C645 1.383 . S
C650 C646 1.389 . S
C650 H667 0.931 . S
C651 O636 1.266 . S
C651 O637 1.248 . S
C652 Tb588 2.802 1_554 S
C652 O632 1.264 . S
C652 O635 1.256 . S
C652 C645 1.496 . S
C653 C620 1.448 . S
C653 H630 0.930 . S
C653 C654 1.328 . S
C654 C625 1.427 . S
C654 H631 0.929 . S
C654 C653 1.328 . S
C655 O639 1.264 . S
C655 O640 1.243 . S
C656 C659 1.399 . S
C656 C660 1.383 . S
C656 C663 1.496 . S
C657 C658 1.399 . S
C657 C660 1.389 . S
C658 C657 1.399 . S
C658 C661 1.380 . S
C658 H668 0.929 . S
C659 C656 1.399 . S
C659 C661 1.392 . S
C659 H669 0.929 . S
C660 C656 1.383 . S
C660 C657 1.389 . S
C660 H670 0.931 . S
C661 C658 1.380 . S
C661 C659 1.392 . S
C661 H671 0.929 . S
C662 O642 1.266 . S
C662 O643 1.248 . S
C663 Tb599 2.802 1_556 S
C663 O638 1.264 . S
C663 O641 1.256 . S
C663 C656 1.496 . S
H664 C647 0.929 . S
H665 C648 0.929 . S
H666 C649 0.929 . S
H667 C650 0.931 . S
H668 C658 0.929 . S
H669 C659 0.929 . S
H670 C660 0.931 . S
H671 C661 0.929 . S
H672 C684 0.930 . S
H673 C686 0.930 . S
H674 C687 0.930 . S
H675 C691 0.959 . S
H676 C691 0.959 . S
H677 C691 0.961 . S
H678 C692 0.960 . S
H679 C692 0.961 . S
H680 C692 0.959 . S
H681 C695 0.929 . S
H682 C696 0.931 . S
H683 C698 0.930 . S
C684 H672 0.930 . S
C684 C685 1.399 . S
C684 C689 1.399 . S
C685 C684 1.399 . S
C685 C686 1.376 . S
C686 H673 0.930 . S
C686 C685 1.376 . S
C686 C687 1.388 . S
C687 H674 0.930 . S
C687 C686 1.388 . S
C687 C688 1.390 . S
C688 C687 1.390 . S
C688 C689 1.394 . S
C688 C694 1.465 . S
C689 C684 1.399 . S
C689 C688 1.394 . S
C689 C690 1.516 . S
C690 C689 1.516 . S
C690 C691 1.502 . S
C690 C692 1.561 . S
C690 C693 1.526 . S
C691 H675 0.959 . S
C691 H676 0.959 . S
C691 H677 0.961 . S
C691 C690 1.502 . S
C692 H678 0.960 . S
C692 H679 0.961 . S
C692 H680 0.959 . S
C692 C690 1.561 . S
C693 C690 1.526 . S
C693 C694 1.396 . S
C693 C698 1.390 . S
C694 C688 1.465 . S
C694 C693 1.396 . S
C694 C695 1.399 . S
C695 H681 0.929 . S
C695 C694 1.399 . S
C695 C696 1.385 . S
C696 H682 0.931 . S
C696 C695 1.385 . S
C696 C697 1.389 . S
C697 C696 1.389 . S
C697 C698 1.387 . S
C698 H683 0.930 . S
C698 C693 1.390 . S
C698 C697 1.387 . S
H699 C711 0.930 . S
H700 C713 0.930 . S
H701 C714 0.930 . S
H702 C718 0.959 . S
H703 C718 0.959 . S
H704 C718 0.961 . S
H705 C719 0.960 . S
H706 C719 0.961 . S
H707 C719 0.959 . S
H708 C722 0.929 . S
H709 C723 0.931 . S
H710 C725 0.930 . S
C711 H699 0.930 . S
C711 C712 1.399 . S
C711 C716 1.399 . S
C712 C711 1.399 . S
C712 C713 1.376 . S
C713 H700 0.930 . S
C713 C712 1.376 . S
C713 C714 1.388 . S
C714 H701 0.930 . S
C714 C713 1.388 . S
C714 C715 1.390 . S
C715 C714 1.390 . S
C715 C716 1.394 . S
C715 C721 1.465 . S
C716 C711 1.399 . S
C716 C715 1.394 . S
C716 C717 1.516 . S
C717 C716 1.516 . S
C717 C718 1.502 . S
C717 C719 1.561 . S
C717 C720 1.526 . S
C718 H702 0.959 . S
C718 H703 0.959 . S
C718 H704 0.961 . S
C718 C717 1.502 . S
C719 H705 0.960 . S
C719 H706 0.961 . S
C719 H707 0.959 . S
C719 C717 1.561 . S
C720 C717 1.526 . S
C720 C721 1.396 . S
C720 C725 1.390 . S
C721 C715 1.465 . S
C721 C720 1.396 . S
C721 C722 1.399 . S
C722 H708 0.929 . S
C722 C721 1.399 . S
C722 C723 1.385 . S
C723 H709 0.931 . S
C723 C722 1.385 . S
C723 C724 1.389 . S
C724 C723 1.389 . S
C724 C725 1.387 . S
C725 H710 0.930 . S
C725 C720 1.390 . S
C725 C724 1.387 . S
H726 C738 0.930 . S
H727 C740 0.930 . S
H728 C741 0.930 . S
H729 C745 0.959 . S
H730 C745 0.959 . S
H731 C745 0.961 . S
H732 C746 0.960 . S
H733 C746 0.961 . S
H734 C746 0.959 . S
H735 C749 0.929 . S
H736 C750 0.931 . S
H737 C752 0.930 . S
C738 H726 0.930 . S
C738 C739 1.399 . S
C738 C743 1.399 . S
C739 C738 1.399 . S
C739 C740 1.376 . S
C740 H727 0.930 . S
C740 C739 1.376 . S
C740 C741 1.388 . S
C741 H728 0.930 . S
C741 C740 1.388 . S
C741 C742 1.390 . S
C742 C741 1.390 . S
C742 C743 1.394 . S
C742 C748 1.465 . S
C743 C738 1.399 . S
C743 C742 1.394 . S
C743 C744 1.516 . S
C744 C743 1.516 . S
C744 C745 1.502 . S
C744 C746 1.561 . S
C744 C747 1.526 . S
C745 H729 0.959 . S
C745 H730 0.959 . S
C745 H731 0.961 . S
C745 C744 1.502 . S
C746 H732 0.960 . S
C746 H733 0.961 . S
C746 H734 0.959 . S
C746 C744 1.561 . S
C747 C744 1.526 . S
C747 C748 1.396 . S
C747 C752 1.390 . S
C748 C742 1.465 . S
C748 C747 1.396 . S
C748 C749 1.399 . S
C749 H735 0.929 . S
C749 C748 1.399 . S
C749 C750 1.385 . S
C750 H736 0.931 . S
C750 C749 1.385 . S
C750 C751 1.389 . S
C751 C750 1.389 . S
C751 C752 1.387 . S
C752 H737 0.930 . S
C752 C747 1.390 . S
C752 C751 1.387 . S
H753 C765 0.930 . S
H754 C767 0.930 . S
H755 C768 0.930 . S
H756 C772 0.959 . S
H757 C772 0.959 . S
H758 C772 0.961 . S
H759 C773 0.960 . S
H760 C773 0.961 . S
H761 C773 0.959 . S
H762 C776 0.929 . S
H763 C777 0.931 . S
H764 C779 0.930 . S
C765 H753 0.930 . S
C765 C766 1.399 . S
C765 C770 1.399 . S
C766 C765 1.399 . S
C766 C767 1.376 . S
C767 H754 0.930 . S
C767 C766 1.376 . S
C767 C768 1.388 . S
C768 H755 0.930 . S
C768 C767 1.388 . S
C768 C769 1.390 . S
C769 C768 1.390 . S
C769 C770 1.394 . S
C769 C775 1.465 . S
C770 C765 1.399 . S
C770 C769 1.394 . S
C770 C771 1.516 . S
C771 C770 1.516 . S
C771 C772 1.502 . S
C771 C773 1.561 . S
C771 C774 1.526 . S
C772 H756 0.959 . S
C772 H757 0.959 . S
C772 H758 0.961 . S
C772 C771 1.502 . S
C773 H759 0.960 . S
C773 H760 0.961 . S
C773 H761 0.959 . S
C773 C771 1.561 . S
C774 C771 1.526 . S
C774 C775 1.396 . S
C774 C779 1.390 . S
C775 C769 1.465 . S
C775 C774 1.396 . S
C775 C776 1.399 . S
C776 H762 0.929 . S
C776 C775 1.399 . S
C776 C777 1.385 . S
C777 H763 0.931 . S
C777 C776 1.385 . S
C777 C778 1.389 . S
C778 C777 1.389 . S
C778 C779 1.387 . S
C779 H764 0.930 . S
C779 C774 1.390 . S
C779 C778 1.387 . S
H780 C792 0.930 . S
H781 C794 0.930 . S
H782 C795 0.930 . S
H783 C799 0.959 . S
H784 C799 0.959 . S
H785 C799 0.961 1_565 S
H786 C800 0.974 . S
H787 C800 0.961 . S
H788 C800 0.959 . S
H789 C803 0.929 . S
H790 C804 0.931 . S
H791 C806 0.930 . S
C792 H780 0.930 . S
C792 C793 1.399 . S
C792 C797 1.399 . S
C793 C792 1.399 . S
C793 C794 1.376 . S
C794 H781 0.930 . S
C794 C793 1.376 . S
C794 C795 1.388 . S
C795 H782 0.930 . S
C795 C794 1.388 . S
C795 C796 1.390 . S
C796 C795 1.390 . S
C796 C797 1.394 . S
C796 C802 1.465 1_565 S
C797 C792 1.399 . S
C797 C796 1.394 . S
C797 C798 1.516 1_565 S
C798 C797 1.516 1_545 S
C798 C799 1.502 . S
C798 C800 1.561 . S
C798 C801 1.526 . S
C799 H783 0.959 . S
C799 H784 0.959 . S
C799 H785 0.961 1_545 S
C799 C798 1.502 . S
C800 H786 0.974 . S
C800 H787 0.961 . S
C800 H788 0.959 . S
C800 C798 1.561 . S
C801 C798 1.526 . S
C801 C802 1.396 . S
C801 C806 1.390 . S
C802 C796 1.465 1_545 S
C802 C801 1.396 . S
C802 C803 1.399 . S
C803 H789 0.929 . S
C803 C802 1.399 . S
C803 C804 1.385 . S
C804 H790 0.931 . S
C804 C803 1.385 . S
C804 C805 1.389 . S
C805 C804 1.389 . S
C805 C806 1.387 . S
C806 H791 0.930 . S
C806 C801 1.390 . S
C806 C805 1.387 . S
H807 C819 0.930 . S
H808 C821 0.930 . S
H809 C822 0.930 . S
H810 C826 0.959 . S
H811 C826 0.959 . S
H812 C826 0.961 . S
H813 C827 0.960 . S
H814 C827 0.961 . S
H815 C827 0.959 . S
H816 C830 0.929 . S
H817 C831 0.931 . S
H818 C833 0.930 . S
C819 H807 0.930 . S
C819 C820 1.399 . S
C819 C824 1.399 . S
C820 C819 1.399 . S
C820 C821 1.376 . S
C821 H808 0.930 . S
C821 C820 1.376 . S
C821 C822 1.388 . S
C822 H809 0.930 . S
C822 C821 1.388 . S
C822 C823 1.390 . S
C823 C822 1.390 . S
C823 C824 1.394 . S
C823 C829 1.465 . S
C824 C819 1.399 . S
C824 C823 1.394 . S
C824 C825 1.516 . S
C825 C824 1.516 . S
C825 C826 1.502 . S
C825 C827 1.561 . S
C825 C828 1.526 . S
C826 H810 0.959 . S
C826 H811 0.959 . S
C826 H812 0.961 . S
C826 C825 1.502 . S
C827 H813 0.960 . S
C827 H814 0.961 . S
C827 H815 0.959 . S
C827 C825 1.561 . S
C828 C825 1.526 . S
C828 C829 1.396 . S
C828 C833 1.390 . S
C829 C823 1.465 . S
C829 C828 1.396 . S
C829 C830 1.399 . S
C830 H816 0.929 . S
C830 C829 1.399 . S
C830 C831 1.385 . S
C831 H817 0.931 . S
C831 C830 1.385 . S
C831 C832 1.389 . S
C832 C831 1.389 . S
C832 C833 1.387 . S
C833 H818 0.930 . S
C833 C828 1.390 . S
C833 C832 1.387 . S
H834 C846 0.930 . S
H835 C848 0.930 . S
H836 C849 0.930 . S
H837 C853 0.959 . S
H838 C853 0.959 . S
H839 C853 0.961 1_565 S
H840 C854 0.972 . S
H841 C854 0.961 . S
H842 C854 0.959 . S
H843 C857 0.929 . S
H844 C858 0.931 . S
H845 C860 0.930 . S
C846 H834 0.930 . S
C846 C847 1.399 . S
C846 C851 1.399 . S
C847 C846 1.399 . S
C847 C848 1.376 . S
C848 H835 0.930 . S
C848 C847 1.376 . S
C848 C849 1.388 . S
C849 H836 0.930 . S
C849 C848 1.388 . S
C849 C850 1.390 . S
C850 C849 1.390 . S
C850 C851 1.394 . S
C850 C856 1.465 1_565 S
C851 C846 1.399 . S
C851 C850 1.394 . S
C851 C852 1.516 1_565 S
C852 C851 1.516 1_545 S
C852 C853 1.502 . S
C852 C854 1.561 . S
C852 C855 1.526 . S
C853 H837 0.959 . S
C853 H838 0.959 . S
C853 H839 0.961 1_545 S
C853 C852 1.502 . S
C854 H840 0.972 . S
C854 H841 0.961 . S
C854 H842 0.959 . S
C854 C852 1.561 . S
C855 C852 1.526 . S
C855 C856 1.396 . S
C855 C860 1.390 . S
C856 C850 1.465 1_545 S
C856 C855 1.396 . S
C856 C857 1.399 . S
C857 H843 0.929 . S
C857 C856 1.399 . S
C857 C858 1.385 . S
C858 H844 0.931 . S
C858 C857 1.385 . S
C858 C859 1.389 . S
C859 C858 1.389 . S
C859 C860 1.387 . S
C860 H845 0.930 . S
C860 C855 1.390 . S
C860 C859 1.387 . S
H861 C873 0.930 . S
H862 C875 0.930 . S
H863 C876 0.930 . S
H864 C880 0.959 . S
H865 C880 0.959 . S
H866 C880 0.961 . S
H867 C881 0.960 . S
H868 C881 0.961 . S
H869 C881 0.959 . S
H870 C884 0.929 . S
H871 C885 0.931 . S
H872 C887 0.930 . S
C873 H861 0.930 . S
C873 C874 1.399 . S
C873 C878 1.399 . S
C874 C873 1.399 . S
C874 C875 1.376 . S
C875 H862 0.930 . S
C875 C874 1.376 . S
C875 C876 1.388 . S
C876 H863 0.930 . S
C876 C875 1.388 . S
C876 C877 1.390 . S
C877 C876 1.390 . S
C877 C878 1.394 . S
C877 C883 1.465 . S
C878 C873 1.399 . S
C878 C877 1.394 . S
C878 C879 1.516 . S
C879 C878 1.516 . S
C879 C880 1.502 . S
C879 C881 1.561 . S
C879 C882 1.526 . S
C880 H864 0.959 . S
C880 H865 0.959 . S
C880 H866 0.961 . S
C880 C879 1.502 . S
C881 H867 0.960 . S
C881 H868 0.961 . S
C881 H869 0.959 . S
C881 C879 1.561 . S
C882 C879 1.526 . S
C882 C883 1.396 . S
C882 C887 1.390 . S
C883 C877 1.465 . S
C883 C882 1.396 . S
C883 C884 1.399 . S
C884 H870 0.929 . S
C884 C883 1.399 . S
C884 C885 1.385 . S
C885 H871 0.931 . S
C885 C884 1.385 . S
C885 C886 1.389 . S
C886 C885 1.389 . S
C886 C887 1.387 . S
C887 H872 0.930 . S
C887 C882 1.390 . S
C887 C886 1.387 . S
H888 C900 0.930 . S
H889 C902 0.930 . S
H890 C903 0.930 . S
H891 C907 0.959 . S
H892 C907 0.959 . S
H893 C907 0.961 . S
H894 C908 0.960 . S
H895 C908 0.961 . S
H896 C908 0.959 . S
H897 C911 0.929 . S
H898 C912 0.931 . S
H899 C914 0.930 . S
C900 H888 0.930 . S
C900 C901 1.399 1_554 S
C900 C905 1.399 . S
C901 C900 1.399 1_556 S
C901 C902 1.376 . S
C902 H889 0.930 . S
C902 C901 1.376 . S
C902 C903 1.388 . S
C903 H890 0.930 . S
C903 C902 1.388 . S
C903 C904 1.390 . S
C904 C903 1.390 . S
C904 C905 1.394 1_556 S
C904 C910 1.465 . S
C905 C900 1.399 . S
C905 C904 1.394 1_554 S
C905 C906 1.516 . S
C906 C905 1.516 . S
C906 C907 1.502 . S
C906 C908 1.561 . S
C906 C909 1.526 . S
C907 H891 0.959 . S
C907 H892 0.959 . S
C907 H893 0.961 . S
C907 C906 1.502 . S
C908 H894 0.960 . S
C908 H895 0.961 . S
C908 H896 0.959 . S
C908 C906 1.561 . S
C909 C906 1.526 . S
C909 C910 1.396 1_554 S
C909 C914 1.390 . S
C910 C904 1.465 . S
C910 C909 1.396 1_556 S
C910 C911 1.399 . S
C911 H897 0.929 . S
C911 C910 1.399 . S
C911 C912 1.385 . S
C912 H898 0.931 . S
C912 C911 1.385 . S
C912 C913 1.380 1_556 S
C913 C912 1.380 1_554 S
C913 C914 1.393 . S
C914 H899 0.930 . S
C914 C909 1.390 . S
C914 C913 1.393 . S
H915 C927 0.930 . S
H916 C929 0.930 . S
H917 C930 0.930 . S
H918 C934 0.959 . S
H919 C934 0.959 . S
H920 C934 0.961 1_565 S
H921 C935 0.960 1_565 S
H922 C935 0.961 . S
H923 C935 0.959 . S
H924 C938 0.929 . S
H925 C939 0.931 . S
H926 C941 0.930 . S
C927 H915 0.930 . S
C927 C928 1.399 . S
C927 C932 1.399 . S
C928 C927 1.399 . S
C928 C929 1.376 1_554 S
C929 H916 0.930 . S
C929 C928 1.376 1_556 S
C929 C930 1.388 . S
C930 H917 0.930 . S
C930 C929 1.388 . S
C930 C931 1.390 . S
C931 C930 1.390 . S
C931 C932 1.394 1_556 S
C931 C937 1.465 1_565 S
C932 C927 1.399 . S
C932 C931 1.394 1_554 S
C932 C933 1.516 1_565 S
C933 C932 1.516 1_545 S
C933 C934 1.502 . S
C933 C935 1.561 . S
C933 C936 1.526 . S
C934 H918 0.959 . S
C934 H919 0.959 . S
C934 H920 0.961 1_545 S
C934 C933 1.502 . S
C935 H921 0.960 1_545 S
C935 H922 0.961 . S
C935 H923 0.959 . S
C935 C933 1.561 . S
C936 C933 1.526 . S
C936 C937 1.396 1_554 S
C936 C941 1.390 . S
C937 C931 1.465 1_545 S
C937 C936 1.396 1_556 S
C937 C938 1.399 . S
C938 H924 0.929 . S
C938 C937 1.399 . S
C938 C939 1.385 . S
C939 H925 0.931 . S
C939 C938 1.385 . S
C939 C940 1.389 . S
C940 C939 1.389 . S
C940 C941 1.387 1_556 S
C941 H926 0.930 . S
C941 C936 1.390 . S
C941 C940 1.387 1_554 S
H942 C954 0.930 . S
H943 C956 0.930 . S
H944 C957 0.930 . S
H945 C961 0.959 . S
H946 C961 0.959 . S
H947 C961 0.961 . S
H948 C962 0.960 . S
H949 C962 0.961 . S
H950 C962 0.959 . S
H951 C965 0.929 . S
H952 C966 0.931 . S
H953 C968 0.930 . S
C954 H942 0.930 . S
C954 C955 1.407 . S
C954 C959 1.399 . S
C955 C954 1.407 . S
C955 C956 1.363 1_554 S
C956 H943 0.930 . S
C956 C955 1.363 1_556 S
C956 C957 1.388 . S
C957 H944 0.930 . S
C957 C956 1.388 . S
C957 C958 1.390 . S
C958 C957 1.390 . S
C958 C959 1.394 1_556 S
C958 C964 1.465 . S
C959 C954 1.399 . S
C959 C958 1.394 1_554 S
C959 C960 1.516 . S
C960 C959 1.516 . S
C960 C961 1.502 . S
C960 C962 1.561 . S
C960 C963 1.526 . S
C961 H945 0.959 . S
C961 H946 0.959 . S
C961 H947 0.961 . S
C961 C960 1.502 . S
C962 H948 0.960 . S
C962 H949 0.961 . S
C962 H950 0.959 . S
C962 C960 1.561 . S
C963 C960 1.526 . S
C963 C964 1.396 1_554 S
C963 C968 1.390 . S
C964 C958 1.465 . S
C964 C963 1.396 1_556 S
C964 C965 1.399 . S
C965 H951 0.929 . S
C965 C964 1.399 . S
C965 C966 1.385 . S
C966 H952 0.931 . S
C966 C965 1.385 . S
C966 C967 1.389 . S
C967 C966 1.389 . S
C967 C968 1.387 1_556 S
C968 H953 0.930 . S
C968 C963 1.390 . S
C968 C967 1.387 1_554 S
H969 C981 0.930 . S
H970 C983 0.930 . S
H971 C984 0.930 . S
H972 C988 0.959 1_565 S
H973 C988 0.959 1_565 S
H974 C988 0.961 . S
H975 C989 0.960 . S
H976 C989 0.961 1_565 S
H977 C989 0.959 . S
H978 C992 0.929 . S
H979 C993 0.931 . S
H980 C995 0.930 . S
C981 H969 0.930 . S
C981 C982 1.399 1_554 S
C981 C986 1.399 . S
C982 C981 1.399 1_556 S
C982 C983 1.376 . S
C983 H970 0.930 . S
C983 C982 1.376 . S
C983 C984 1.388 . S
C984 H971 0.930 . S
C984 C983 1.388 . S
C984 C985 1.390 . S
C985 C984 1.390 . S
C985 C986 1.394 1_556 S
C985 C991 1.465 1_545 S
C986 C981 1.399 . S
C986 C985 1.394 1_554 S
C986 C987 1.516 . S
C987 C986 1.516 . S
C987 C988 1.502 . S
C987 C989 1.561 . S
C987 C990 1.526 1_545 S
C988 H972 0.959 1_545 S
C988 H973 0.959 1_545 S
C988 H974 0.961 . S
C988 C987 1.502 . S
C989 H975 0.960 . S
C989 H976 0.961 1_545 S
C989 H977 0.959 . S
C989 C987 1.561 . S
C990 C987 1.526 1_565 S
C990 C991 1.396 1_554 S
C990 C995 1.390 . S
C991 C985 1.465 1_565 S
C991 C990 1.396 1_556 S
C991 C992 1.399 . S
C992 H978 0.929 . S
C992 C991 1.399 . S
C992 C993 1.385 . S
C993 H979 0.931 . S
C993 C992 1.385 . S
C993 C994 1.389 1_556 S
C994 C993 1.389 1_554 S
C994 C995 1.387 . S
C995 H980 0.930 . S
C995 C990 1.390 . S
C995 C994 1.387 . S
H996 C1008 0.930 . S
H997 C1010 0.930 . S
H998 C1011 0.930 . S
H999 C1015 0.959 . S
H1000 C1015 0.959 . S
H1001 C1015 0.961 1_554 S
H1002 C1016 0.960 . S
H1003 C1016 0.961 1_556 S
H1004 C1016 0.959 . S
H1005 C1019 0.929 . S
H1006 C1020 0.931 . S
H1007 C1022 0.930 . S
C1008 H996 0.930 . S
C1008 C1009 1.399 . S
C1008 C1013 1.399 . S
C1009 C1008 1.399 . S
C1009 C1010 1.376 . S
C1010 H997 0.930 . S
C1010 C1009 1.376 . S
C1010 C1011 1.388 . S
C1011 H998 0.930 . S
C1011 C1010 1.388 . S
C1011 C1012 1.390 . S
C1012 C1011 1.390 . S
C1012 C1013 1.394 . S
C1012 C1018 1.465 1_554 S
C1013 C1008 1.399 . S
C1013 C1012 1.394 . S
C1013 C1014 1.516 1_554 S
C1014 C1013 1.516 1_556 S
C1014 C1015 1.502 . S
C1014 C1016 1.561 1_556 S
C1014 C1017 1.526 . S
C1015 H999 0.959 . S
C1015 H1000 0.959 . S
C1015 H1001 0.961 1_556 S
C1015 C1014 1.502 . S
C1016 H1002 0.960 . S
C1016 H1003 0.961 1_554 S
C1016 H1004 0.959 . S
C1016 C1014 1.561 1_554 S
C1017 C1014 1.526 . S
C1017 C1018 1.396 . S
C1017 C1022 1.390 . S
C1018 C1012 1.465 1_556 S
C1018 C1017 1.396 . S
C1018 C1019 1.399 . S
C1019 H1005 0.929 . S
C1019 C1018 1.399 . S
C1019 C1020 1.385 . S
C1020 H1006 0.931 . S
C1020 C1019 1.385 . S
C1020 C1021 1.389 . S
C1021 C1020 1.389 . S
C1021 C1022 1.387 . S
C1022 H1007 0.930 . S
C1022 C1017 1.390 . S
C1022 C1021 1.387 . S
H1023 C1035 0.930 . S
H1024 C1037 0.930 . S
H1025 C1038 0.930 . S
H1026 C1042 0.959 . S
H1027 C1042 0.959 1_556 S
H1028 C1042 0.961 . S
H1029 C1043 0.960 . S
H1030 C1043 0.961 1_556 S
H1031 C1043 0.959 . S
H1032 C1046 0.929 . S
H1033 C1047 0.931 . S
H1034 C1049 0.930 . S
C1035 H1023 0.930 . S
C1035 C1036 1.399 . S
C1035 C1040 1.399 . S
C1036 C1035 1.399 . S
C1036 C1037 1.376 . S
C1037 H1024 0.930 . S
C1037 C1036 1.376 . S
C1037 C1038 1.388 . S
C1038 H1025 0.930 . S
C1038 C1037 1.388 . S
C1038 C1039 1.390 . S
C1039 C1038 1.390 . S
C1039 C1040 1.394 . S
C1039 C1045 1.465 1_554 S
C1040 C1035 1.399 . S
C1040 C1039 1.394 . S
C1040 C1041 1.516 . S
C1041 C1040 1.516 . S
C1041 C1042 1.502 . S
C1041 C1043 1.561 . S
C1041 C1044 1.526 1_554 S
C1042 H1026 0.959 . S
C1042 H1027 0.959 1_554 S
C1042 H1028 0.961 . S
C1042 C1041 1.502 . S
C1043 H1029 0.960 . S
C1043 H1030 0.961 1_554 S
C1043 H1031 0.959 . S
C1043 C1041 1.561 . S
C1044 C1041 1.526 1_556 S
C1044 C1045 1.396 . S
C1044 C1049 1.390 . S
C1045 C1039 1.465 1_556 S
C1045 C1044 1.396 . S
C1045 C1046 1.399 . S
C1046 H1032 0.929 . S
C1046 C1045 1.399 . S
C1046 C1047 1.385 . S
C1047 H1033 0.931 . S
C1047 C1046 1.385 . S
C1047 C1048 1.389 . S
C1048 C1047 1.389 . S
C1048 C1049 1.387 . S
C1049 H1034 0.930 . S
C1049 C1044 1.390 . S
C1049 C1048 1.387 . S
H1050 C1062 0.930 . S
H1051 C1064 0.930 . S
H1052 C1065 0.930 . S
H1053 C1069 0.959 1_554 S
H1054 C1069 0.962 . S
H1055 C1069 0.958 1_554 S
H1056 C1070 0.960 1_554 S
H1057 C1070 0.961 . S
H1058 C1070 0.959 . S
H1059 C1073 0.929 . S
H1060 C1074 0.931 . S
H1061 C1076 0.930 . S
C1062 H1050 0.930 . S
C1062 C1063 1.399 . S
C1062 C1067 1.399 . S
C1063 C1062 1.399 . S
C1063 C1064 1.376 . S
C1064 H1051 0.930 . S
C1064 C1063 1.376 . S
C1064 C1065 1.388 . S
C1065 H1052 0.930 . S
C1065 C1064 1.388 . S
C1065 C1066 1.390 . S
C1066 C1065 1.390 . S
C1066 C1067 1.394 . S
C1066 C1072 1.465 1_554 S
C1067 C1062 1.399 . S
C1067 C1066 1.394 . S
C1067 C1068 1.528 . S
C1068 C1067 1.528 . S
C1068 C1069 1.500 1_554 S
C1068 C1070 1.560 1_554 S
C1068 C1071 1.517 1_554 S
C1069 H1053 0.959 1_556 S
C1069 H1054 0.962 . S
C1069 H1055 0.958 1_556 S
C1069 C1068 1.500 1_556 S
C1070 H1056 0.960 1_556 S
C1070 H1057 0.961 . S
C1070 H1058 0.959 . S
C1070 C1068 1.560 1_556 S
C1071 C1068 1.517 1_556 S
C1071 C1072 1.396 . S
C1071 C1076 1.390 . S
C1072 C1066 1.465 1_556 S
C1072 C1071 1.396 . S
C1072 C1073 1.399 . S
C1073 H1059 0.929 . S
C1073 C1072 1.399 . S
C1073 C1074 1.385 . S
C1074 H1060 0.931 . S
C1074 C1073 1.385 . S
C1074 C1075 1.389 . S
C1075 C1074 1.389 . S
C1075 C1076 1.387 . S
C1076 H1061 0.930 . S
C1076 C1071 1.390 . S
C1076 C1075 1.387 . S
H1077 C1089 0.930 . S
H1078 C1091 0.930 . S
H1079 C1092 0.930 . S
H1080 C1096 0.959 . S
H1081 C1096 0.959 . S
H1082 C1096 0.961 . S
H1083 C1097 0.960 . S
H1084 C1097 0.961 . S
H1085 C1097 0.959 . S
H1086 C1100 0.929 . S
H1087 C1101 0.931 . S
H1088 C1103 0.930 . S
C1089 H1077 0.930 . S
C1089 C1090 1.399 . S
C1089 C1094 1.399 . S
C1090 C1089 1.399 . S
C1090 C1091 1.376 . S
C1091 H1078 0.930 . S
C1091 C1090 1.376 . S
C1091 C1092 1.388 . S
C1092 H1079 0.930 . S
C1092 C1091 1.388 . S
C1092 C1093 1.390 . S
C1093 C1092 1.390 . S
C1093 C1094 1.394 . S
C1093 C1099 1.465 1_556 S
C1094 C1089 1.399 . S
C1094 C1093 1.394 . S
C1094 C1095 1.516 1_556 S
C1095 C1094 1.516 1_554 S
C1095 C1096 1.502 . S
C1095 C1097 1.561 . S
C1095 C1098 1.526 . S
C1096 H1080 0.959 . S
C1096 H1081 0.959 . S
C1096 H1082 0.961 . S
C1096 C1095 1.502 . S
C1097 H1083 0.960 . S
C1097 H1084 0.961 . S
C1097 H1085 0.959 . S
C1097 C1095 1.561 . S
C1098 C1095 1.526 . S
C1098 C1099 1.396 . S
C1098 C1103 1.390 . S
C1099 C1093 1.465 1_554 S
C1099 C1098 1.396 . S
C1099 C1100 1.399 . S
C1100 H1086 0.929 . S
C1100 C1099 1.399 . S
C1100 C1101 1.385 . S
C1101 H1087 0.931 . S
C1101 C1100 1.385 . S
C1101 C1102 1.389 . S
C1102 C1101 1.389 . S
C1102 C1103 1.387 . S
C1103 H1088 0.930 . S
C1103 C1098 1.390 . S
C1103 C1102 1.387 . S
H1104 C1116 0.930 . S
H1105 C1118 0.930 . S
H1106 C1119 0.930 . S
H1107 C1123 0.959 . S
H1108 C1123 0.959 . S
H1109 C1123 0.961 . S
H1110 C1124 0.960 . S
H1111 C1124 0.961 . S
H1112 C1124 0.959 . S
H1113 C1127 0.929 . S
H1114 C1128 0.931 . S
H1115 C1130 0.930 . S
C1116 H1104 0.930 . S
C1116 C1117 1.399 . S
C1116 C1121 1.399 . S
C1117 C1116 1.399 . S
C1117 C1118 1.376 . S
C1118 H1105 0.930 . S
C1118 C1117 1.376 . S
C1118 C1119 1.388 . S
C1119 H1106 0.930 . S
C1119 C1118 1.388 . S
C1119 C1120 1.390 . S
C1120 C1119 1.390 . S
C1120 C1121 1.394 . S
C1120 C1126 1.465 . S
C1121 C1116 1.399 . S
C1121 C1120 1.394 . S
C1121 C1122 1.516 . S
C1122 C1121 1.516 . S
C1122 C1123 1.502 . S
C1122 C1124 1.561 . S
C1122 C1125 1.526 . S
C1123 H1107 0.959 . S
C1123 H1108 0.959 . S
C1123 H1109 0.961 . S
C1123 C1122 1.502 . S
C1124 H1110 0.960 . S
C1124 H1111 0.961 . S
C1124 H1112 0.959 . S
C1124 C1122 1.561 . S
C1125 C1122 1.526 . S
C1125 C1126 1.396 . S
C1125 C1130 1.390 . S
C1126 C1120 1.465 . S
C1126 C1125 1.396 . S
C1126 C1127 1.399 . S
C1127 H1113 0.929 . S
C1127 C1126 1.399 . S
C1127 C1128 1.385 . S
C1128 H1114 0.931 . S
C1128 C1127 1.385 . S
C1128 C1129 1.389 . S
C1129 C1128 1.389 . S
C1129 C1130 1.387 . S
C1130 H1115 0.930 . S
C1130 C1125 1.390 . S
C1130 C1129 1.387 . S
H1131 C1143 0.930 . S
H1132 C1145 0.930 . S
H1133 C1146 0.930 . S
H1134 C1150 0.959 . S
H1135 C1150 0.959 . S
H1136 C1150 0.961 . S
H1137 C1151 0.960 . S
H1138 C1151 0.961 . S
H1139 C1151 0.959 . S
H1140 C1154 0.929 . S
H1141 C1155 0.931 . S
H1142 C1157 0.930 . S
C1143 H1131 0.930 . S
C1143 C1144 1.399 . S
C1143 C1148 1.399 . S
C1144 C1143 1.399 . S
C1144 C1145 1.376 . S
C1145 H1132 0.930 . S
C1145 C1144 1.376 . S
C1145 C1146 1.388 . S
C1146 H1133 0.930 . S
C1146 C1145 1.388 . S
C1146 C1147 1.390 . S
C1147 C1146 1.390 . S
C1147 C1148 1.394 . S
C1147 C1153 1.465 . S
C1148 C1143 1.399 . S
C1148 C1147 1.394 . S
C1148 C1149 1.516 . S
C1149 C1148 1.516 . S
C1149 C1150 1.502 . S
C1149 C1151 1.561 . S
C1149 C1152 1.526 . S
C1150 H1134 0.959 . S
C1150 H1135 0.959 . S
C1150 H1136 0.961 . S
C1150 C1149 1.502 . S
C1151 H1137 0.960 . S
C1151 H1138 0.961 . S
C1151 H1139 0.959 . S
C1151 C1149 1.561 . S
C1152 C1149 1.526 . S
C1152 C1153 1.396 . S
C1152 C1157 1.390 . S
C1153 C1147 1.465 . S
C1153 C1152 1.396 . S
C1153 C1154 1.399 . S
C1154 H1140 0.929 . S
C1154 C1153 1.399 . S
C1154 C1155 1.385 . S
C1155 H1141 0.931 . S
C1155 C1154 1.385 . S
C1155 C1156 1.389 . S
C1156 C1155 1.389 . S
C1156 C1157 1.387 . S
C1157 H1142 0.930 . S
C1157 C1152 1.390 . S
C1157 C1156 1.387 . S
H1158 C1170 0.930 . S
H1159 C1172 0.930 . S
H1160 C1173 0.930 . S
H1161 C1177 0.959 . S
H1162 C1177 0.959 . S
H1163 C1177 0.961 . S
H1164 C1178 0.960 . S
H1165 C1178 0.961 . S
H1166 C1178 0.959 . S
H1167 C1181 0.929 . S
H1168 C1182 0.931 . S
H1169 C1184 0.930 . S
C1170 H1158 0.930 . S
C1170 C1171 1.399 . S
C1170 C1175 1.399 . S
C1171 C1170 1.399 . S
C1171 C1172 1.376 . S
C1172 H1159 0.930 . S
C1172 C1171 1.376 . S
C1172 C1173 1.388 . S
C1173 H1160 0.930 . S
C1173 C1172 1.388 . S
C1173 C1174 1.390 . S
C1174 C1173 1.390 . S
C1174 C1175 1.394 . S
C1174 C1180 1.465 . S
C1175 C1170 1.399 . S
C1175 C1174 1.394 . S
C1175 C1176 1.516 . S
C1176 C1175 1.516 . S
C1176 C1177 1.502 . S
C1176 C1178 1.561 . S
C1176 C1179 1.526 . S
C1177 H1161 0.959 . S
C1177 H1162 0.959 . S
C1177 H1163 0.961 . S
C1177 C1176 1.502 . S
C1178 H1164 0.960 . S
C1178 H1165 0.961 . S
C1178 H1166 0.959 . S
C1178 C1176 1.561 . S
C1179 C1176 1.526 . S
C1179 C1180 1.396 . S
C1179 C1184 1.390 . S
C1180 C1174 1.465 . S
C1180 C1179 1.396 . S
C1180 C1181 1.399 . S
C1181 H1167 0.929 . S
C1181 C1180 1.399 . S
C1181 C1182 1.385 . S
C1182 H1168 0.931 . S
C1182 C1181 1.385 . S
C1182 C1183 1.389 . S
C1183 C1182 1.389 . S
C1183 C1184 1.387 . S
C1184 H1169 0.930 . S
C1184 C1179 1.390 . S
C1184 C1183 1.387 . S
H1185 C1197 0.930 . S
H1186 C1199 0.930 . S
H1187 C1200 0.930 . S
H1188 C1204 0.959 . S
H1189 C1204 0.959 . S
H1190 C1204 0.961 . S
H1191 C1205 0.960 . S
H1192 C1205 0.961 . S
H1193 C1205 0.959 . S
H1194 C1208 0.929 . S
H1195 C1209 0.931 . S
H1196 C1211 0.930 . S
C1197 H1185 0.930 . S
C1197 C1198 1.399 . S
C1197 C1202 1.399 . S
C1198 C1197 1.399 . S
C1198 C1199 1.376 . S
C1199 H1186 0.930 . S
C1199 C1198 1.376 . S
C1199 C1200 1.388 . S
C1200 H1187 0.930 . S
C1200 C1199 1.388 . S
C1200 C1201 1.390 . S
C1201 C1200 1.390 . S
C1201 C1202 1.394 . S
C1201 C1207 1.465 . S
C1202 C1197 1.399 . S
C1202 C1201 1.394 . S
C1202 C1203 1.516 . S
C1203 C1202 1.516 . S
C1203 C1204 1.502 . S
C1203 C1205 1.561 . S
C1203 C1206 1.526 . S
C1204 H1188 0.959 . S
C1204 H1189 0.959 . S
C1204 H1190 0.961 . S
C1204 C1203 1.502 . S
C1205 H1191 0.960 . S
C1205 H1192 0.961 . S
C1205 H1193 0.959 . S
C1205 C1203 1.561 . S
C1206 C1203 1.526 . S
C1206 C1207 1.396 . S
C1206 C1211 1.390 . S
C1207 C1201 1.465 . S
C1207 C1206 1.396 . S
C1207 C1208 1.399 . S
C1208 H1194 0.929 . S
C1208 C1207 1.399 . S
C1208 C1209 1.385 . S
C1209 H1195 0.931 . S
C1209 C1208 1.385 . S
C1209 C1210 1.389 . S
C1210 C1209 1.389 . S
C1210 C1211 1.387 . S
C1211 H1196 0.930 . S
C1211 C1206 1.390 . S
C1211 C1210 1.387 . S
H1212 C1224 0.930 . S
H1213 C1226 0.930 . S
H1214 C1227 0.930 . S
H1215 C1231 0.961 . S
H1216 C1231 0.975 . S
H1217 C1231 0.943 1_455 S
H1218 C1232 0.961 1_455 S
H1219 C1232 0.960 . S
H1220 C1232 0.955 . S
H1221 C1235 0.929 . S
H1222 C1236 0.931 . S
H1223 C1238 0.930 . S
C1224 H1212 0.930 . S
C1224 C1225 1.399 . S
C1224 C1229 1.399 . S
C1225 C1224 1.399 . S
C1225 C1226 1.376 . S
C1226 H1213 0.930 . S
C1226 C1225 1.376 . S
C1226 C1227 1.388 . S
C1227 H1214 0.930 . S
C1227 C1226 1.388 . S
C1227 C1228 1.390 . S
C1228 C1227 1.390 . S
C1228 C1229 1.394 . S
C1228 C1234 1.465 1_455 S
C1229 C1224 1.399 . S
C1229 C1228 1.394 . S
C1229 C1230 1.520 1_455 S
C1230 C1229 1.520 1_655 S
C1230 C1231 1.502 . S
C1230 C1232 1.561 . S
C1230 C1233 1.522 . S
C1231 H1215 0.961 . S
C1231 H1216 0.975 . S
C1231 H1217 0.943 1_655 S
C1231 C1230 1.502 . S
C1232 H1218 0.961 1_655 S
C1232 H1219 0.960 . S
C1232 H1220 0.955 . S
C1232 C1230 1.561 . S
C1233 C1230 1.522 . S
C1233 C1234 1.396 . S
C1233 C1238 1.390 . S
C1234 C1228 1.465 1_655 S
C1234 C1233 1.396 . S
C1234 C1235 1.399 . S
C1235 H1221 0.929 . S
C1235 C1234 1.399 . S
C1235 C1236 1.385 . S
C1236 H1222 0.931 . S
C1236 C1235 1.385 . S
C1236 C1237 1.389 . S
C1237 C1236 1.389 . S
C1237 C1238 1.387 . S
C1238 H1223 0.930 . S
C1238 C1233 1.390 . S
C1238 C1237 1.387 . S
H1239 C1251 0.930 . S
H1240 C1253 0.930 . S
H1241 C1254 0.930 . S
H1242 C1258 0.961 . S
H1243 C1258 0.975 . S
H1244 C1258 0.943 1_655 S
H1245 C1259 0.961 1_655 S
H1246 C1259 0.960 . S
H1247 C1259 0.955 . S
H1248 C1262 0.929 . S
H1249 C1263 0.931 . S
H1250 C1265 0.930 . S
C1251 H1239 0.930 . S
C1251 C1252 1.399 . S
C1251 C1256 1.399 . S
C1252 C1251 1.399 . S
C1252 C1253 1.376 . S
C1253 H1240 0.930 . S
C1253 C1252 1.376 . S
C1253 C1254 1.388 . S
C1254 H1241 0.930 . S
C1254 C1253 1.388 . S
C1254 C1255 1.390 . S
C1255 C1254 1.390 . S
C1255 C1256 1.394 . S
C1255 C1261 1.465 1_655 S
C1256 C1251 1.399 . S
C1256 C1255 1.394 . S
C1256 C1257 1.520 1_655 S
C1257 C1256 1.520 1_455 S
C1257 C1258 1.502 . S
C1257 C1259 1.561 . S
C1257 C1260 1.522 . S
C1258 H1242 0.961 . S
C1258 H1243 0.975 . S
C1258 H1244 0.943 1_455 S
C1258 C1257 1.502 . S
C1259 H1245 0.961 1_455 S
C1259 H1246 0.960 . S
C1259 H1247 0.955 . S
C1259 C1257 1.561 . S
C1260 C1257 1.522 . S
C1260 C1261 1.396 . S
C1260 C1265 1.390 . S
C1261 C1255 1.465 1_455 S
C1261 C1260 1.396 . S
C1261 C1262 1.399 . S
C1262 H1248 0.929 . S
C1262 C1261 1.399 . S
C1262 C1263 1.385 . S
C1263 H1249 0.931 . S
C1263 C1262 1.385 . S
C1263 C1264 1.389 . S
C1264 C1263 1.389 . S
C1264 C1265 1.387 . S
C1265 H1250 0.930 . S
C1265 C1260 1.390 . S
C1265 C1264 1.387 . S
H1266 C1278 0.930 . S
H1267 C1280 0.930 . S
H1268 C1281 0.930 . S
H1269 C1285 0.959 . S
H1270 C1285 0.959 . S
H1271 C1285 0.961 . S
H1272 C1286 0.960 . S
H1273 C1286 0.961 . S
H1274 C1286 0.959 . S
H1275 C1289 0.929 . S
H1276 C1290 0.931 . S
H1277 C1292 0.930 . S
C1278 H1266 0.930 . S
C1278 C1279 1.399 . S
C1278 C1283 1.399 . S
C1279 C1278 1.399 . S
C1279 C1280 1.376 . S
C1280 H1267 0.930 . S
C1280 C1279 1.376 . S
C1280 C1281 1.388 . S
C1281 H1268 0.930 . S
C1281 C1280 1.388 . S
C1281 C1282 1.390 . S
C1282 C1281 1.390 . S
C1282 C1283 1.394 . S
C1282 C1288 1.465 . S
C1283 C1278 1.399 . S
C1283 C1282 1.394 . S
C1283 C1284 1.516 . S
C1284 C1283 1.516 . S
C1284 C1285 1.502 . S
C1284 C1286 1.561 . S
C1284 C1287 1.526 . S
C1285 H1269 0.959 . S
C1285 H1270 0.959 . S
C1285 H1271 0.961 . S
C1285 C1284 1.502 . S
C1286 H1272 0.960 . S
C1286 H1273 0.961 . S
C1286 H1274 0.959 . S
C1286 C1284 1.561 . S
C1287 C1284 1.526 . S
C1287 C1288 1.396 . S
C1287 C1292 1.390 . S
C1288 C1282 1.465 . S
C1288 C1287 1.396 . S
C1288 C1289 1.399 . S
C1289 H1275 0.929 . S
C1289 C1288 1.399 . S
C1289 C1290 1.385 . S
C1290 H1276 0.931 . S
C1290 C1289 1.385 . S
C1290 C1291 1.389 . S
C1291 C1290 1.389 . S
C1291 C1292 1.387 . S
C1292 H1277 0.930 . S
C1292 C1287 1.390 . S
C1292 C1291 1.387 . S
H1293 C1305 0.930 . S
H1294 C1307 0.930 . S
H1295 C1308 0.930 . S
H1296 C1312 0.959 . S
H1297 C1312 0.959 1_556 S
H1298 C1312 0.961 1_556 S
H1299 C1313 0.960 . S
H1300 C1313 0.961 . S
H1301 C1313 0.959 1_554 S
H1302 C1316 0.929 . S
H1303 C1317 0.931 . S
H1304 C1319 0.930 . S
C1305 H1293 0.930 . S
C1305 C1306 1.399 . S
C1305 C1310 1.399 . S
C1306 C1305 1.399 . S
C1306 C1307 1.376 . S
C1307 H1294 0.930 . S
C1307 C1306 1.376 . S
C1307 C1308 1.388 . S
C1308 H1295 0.930 . S
C1308 C1307 1.388 . S
C1308 C1309 1.390 . S
C1309 C1308 1.390 . S
C1309 C1310 1.394 . S
C1309 C1315 1.465 . S
C1310 C1305 1.399 . S
C1310 C1309 1.394 . S
C1310 C1311 1.516 . S
C1311 C1310 1.516 . S
C1311 C1312 1.502 . S
C1311 C1313 1.561 1_554 S
C1311 C1314 1.526 . S
C1312 H1296 0.959 . S
C1312 H1297 0.959 1_554 S
C1312 H1298 0.961 1_554 S
C1312 C1311 1.502 . S
C1313 H1299 0.960 . S
C1313 H1300 0.961 . S
C1313 H1301 0.959 1_556 S
C1313 C1311 1.561 1_556 S
C1314 C1311 1.526 . S
C1314 C1315 1.396 . S
C1314 C1319 1.390 . S
C1315 C1309 1.465 . S
C1315 C1314 1.396 . S
C1315 C1316 1.399 . S
C1316 H1302 0.929 . S
C1316 C1315 1.399 . S
C1316 C1317 1.385 . S
C1317 H1303 0.931 . S
C1317 C1316 1.385 . S
C1317 C1318 1.389 . S
C1318 C1317 1.389 . S
C1318 C1319 1.387 . S
C1319 H1304 0.930 . S
C1319 C1314 1.390 . S
C1319 C1318 1.387 . S
C685 C58 1.585 . S
C697 C657 1.479 . S
C712 C562 1.484 . S
C724 C153 1.576 . S
C739 C489 1.578 . S
C751 C226 1.483 . S
C766 C394 1.594 . S
C778 C321 1.473 . S
C793 C231 2.448 . S
C805 C63 2.442 . S
C820 C147 0.721 . S
C832 C315 0.670 . S
C847 C326 2.416 . S
C859 C158 2.418 . S
C874 C242 0.682 . S
C886 C74 0.706 . S
C901 C399 2.420 . S
C913 C567 2.434 . S
C928 C483 0.676 . S
C940 C651 0.632 . S
C955 C662 2.433 . S
C967 C494 2.427 . S
C982 C578 0.686 . S
C994 C410 0.688 . S
C1009 C56 1.766 . S
C1021 C67 1.752 . S
C1036 C151 1.784 . S
C1048 C140 1.739 . S
C1063 C235 1.751 . S
C1075 C224 1.779 . S
C1090 C319 1.739 . S
C1102 C308 1.786 . S
C1117 C403 1.785 . S
C1129 C392 1.739 . S
C1144 C487 1.783 . S
C1156 C476 1.739 . S
C1171 C560 1.760 . S
C1183 C571 1.757 . S
C1198 C655 1.739 . S
C1210 C644 1.786 . S
C1225 C69 2.032 . S
C1237 C142 2.038 . S
C1252 C310 2.011 . S
C1264 C237 2.024 . S
C1279 C405 1.951 . S
C1291 C478 1.963 . S
C1306 C646 1.962 . S
C1318 C573 1.977 . S
