# Generated by pormake.
# Topology ukm, (4)-cn, num edge types: 1
# Building blocks:
#     Node 0, Type 0, BuildingBlock: QUQFOY_clean_sbu_3, # of connection points: 4
#     Node 1, Type 0, BuildingBlock: QUQFOY_clean_sbu_3, # of connection points: 4
#     Node 2, Type 0, BuildingBlock: QUQFOY_clean_sbu_3, # of connection points: 4
#     Node 3, Type 0, BuildingBlock: QUQFOY_clean_sbu_3, # of connection points: 4
#     Node 4, Type 0, BuildingBlock: QUQFOY_clean_sbu_3, # of connection points: 4
#     Node 5, Type 0, BuildingBlock: QUQFOY_clean_sbu_3, # of connection points: 4
#     Node 6, Type 0, BuildingBlock: QUQFOY_clean_sbu_3, # of connection points: 4
#     Node 7, Type 0, BuildingBlock: QUQFOY_clean_sbu_3, # of connection points: 4
#     Node 8, Type 0, BuildingBlock: QUQFOY_clean_sbu_3, # of connection points: 4
#     Node 9, Type 0, BuildingBlock: QUQFOY_clean_sbu_3, # of connection points: 4
#     Node 10, Type 0, BuildingBlock: QUQFOY_clean_sbu_3, # of connection points: 4
#     Node 11, Type 0, BuildingBlock: QUQFOY_clean_sbu_3, # of connection points: 4
#     Node 12, Type 0, BuildingBlock: QUQFOY_clean_sbu_3, # of connection points: 4
#     Node 13, Type 0, BuildingBlock: QUQFOY_clean_sbu_3, # of connection points: 4
#     Node 14, Type 0, BuildingBlock: QUQFOY_clean_sbu_3, # of connection points: 4
#     Node 15, Type 0, BuildingBlock: QUQFOY_clean_sbu_3, # of connection points: 4
#     Node 16, Type 0, BuildingBlock: QUQFOY_clean_sbu_3, # of connection points: 4
#     Node 17, Type 0, BuildingBlock: QUQFOY_clean_sbu_3, # of connection points: 4
#     Node 18, Type 0, BuildingBlock: QUQFOY_clean_sbu_3, # of connection points: 4
#     Node 19, Type 0, BuildingBlock: QUQFOY_clean_sbu_3, # of connection points: 4
#     Node 20, Type 0, BuildingBlock: QUQFOY_clean_sbu_3, # of connection points: 4
#     Node 21, Type 0, BuildingBlock: QUQFOY_clean_sbu_3, # of connection points: 4
#     Node 22, Type 0, BuildingBlock: QUQFOY_clean_sbu_3, # of connection points: 4
#     Node 23, Type 0, BuildingBlock: QUQFOY_clean_sbu_3, # of connection points: 4
#     Node 24, Type 0, BuildingBlock: QUQFOY_clean_sbu_3, # of connection points: 4
#     Node 25, Type 0, BuildingBlock: QUQFOY_clean_sbu_3, # of connection points: 4
#     Node 26, Type 0, BuildingBlock: QUQFOY_clean_sbu_3, # of connection points: 4
#     Node 27, Type 0, BuildingBlock: QUQFOY_clean_sbu_3, # of connection points: 4
#     Node 28, Type 0, BuildingBlock: QUQFOY_clean_sbu_3, # of connection points: 4
#     Node 29, Type 0, BuildingBlock: QUQFOY_clean_sbu_3, # of connection points: 4
#     Node 30, Type 0, BuildingBlock: QUQFOY_clean_sbu_3, # of connection points: 4
#     Node 31, Type 0, BuildingBlock: QUQFOY_clean_sbu_3, # of connection points: 4
#     Edge 32, Type (0, 0), BuildingBlock: XUDNAN_clean_linker_2, # of connection points: 2
#     Edge 33, Type (0, 0), BuildingBlock: XUDNAN_clean_linker_2, # of connection points: 2
#     Edge 34, Type (0, 0), BuildingBlock: XUDNAN_clean_linker_2, # of connection points: 2
#     Edge 35, Type (0, 0), BuildingBlock: XUDNAN_clean_linker_2, # of connection points: 2
#     Edge 36, Type (0, 0), BuildingBlock: XUDNAN_clean_linker_2, # of connection points: 2
#     Edge 37, Type (0, 0), BuildingBlock: XUDNAN_clean_linker_2, # of connection points: 2
#     Edge 38, Type (0, 0), BuildingBlock: XUDNAN_clean_linker_2, # of connection points: 2
#     Edge 39, Type (0, 0), BuildingBlock: XUDNAN_clean_linker_2, # of connection points: 2
#     Edge 40, Type (0, 0), BuildingBlock: XUDNAN_clean_linker_2, # of connection points: 2
#     Edge 41, Type (0, 0), BuildingBlock: XUDNAN_clean_linker_2, # of connection points: 2
#     Edge 42, Type (0, 0), BuildingBlock: XUDNAN_clean_linker_2, # of connection points: 2
#     Edge 43, Type (0, 0), BuildingBlock: XUDNAN_clean_linker_2, # of connection points: 2
#     Edge 44, Type (0, 0), BuildingBlock: XUDNAN_clean_linker_2, # of connection points: 2
#     Edge 45, Type (0, 0), BuildingBlock: XUDNAN_clean_linker_2, # of connection points: 2
#     Edge 46, Type (0, 0), BuildingBlock: XUDNAN_clean_linker_2, # of connection points: 2
#     Edge 47, Type (0, 0), BuildingBlock: XUDNAN_clean_linker_2, # of connection points: 2
#     Edge 48, Type (0, 0), BuildingBlock: XUDNAN_clean_linker_2, # of connection points: 2
#     Edge 49, Type (0, 0), BuildingBlock: XUDNAN_clean_linker_2, # of connection points: 2
#     Edge 50, Type (0, 0), BuildingBlock: XUDNAN_clean_linker_2, # of connection points: 2
#     Edge 51, Type (0, 0), BuildingBlock: XUDNAN_clean_linker_2, # of connection points: 2
#     Edge 52, Type (0, 0), BuildingBlock: XUDNAN_clean_linker_2, # of connection points: 2
#     Edge 53, Type (0, 0), BuildingBlock: XUDNAN_clean_linker_2, # of connection points: 2
#     Edge 54, Type (0, 0), BuildingBlock: XUDNAN_clean_linker_2, # of connection points: 2
#     Edge 55, Type (0, 0), BuildingBlock: XUDNAN_clean_linker_2, # of connection points: 2
#     Edge 56, Type (0, 0), BuildingBlock: XUDNAN_clean_linker_2, # of connection points: 2
#     Edge 57, Type (0, 0), BuildingBlock: XUDNAN_clean_linker_2, # of connection points: 2
#     Edge 58, Type (0, 0), BuildingBlock: XUDNAN_clean_linker_2, # of connection points: 2
#     Edge 59, Type (0, 0), BuildingBlock: XUDNAN_clean_linker_2, # of connection points: 2
#     Edge 60, Type (0, 0), BuildingBlock: XUDNAN_clean_linker_2, # of connection points: 2
#     Edge 61, Type (0, 0), BuildingBlock: XUDNAN_clean_linker_2, # of connection points: 2
#     Edge 62, Type (0, 0), BuildingBlock: XUDNAN_clean_linker_2, # of connection points: 2
#     Edge 63, Type (0, 0), BuildingBlock: XUDNAN_clean_linker_2, # of connection points: 2
#     Edge 64, Type (0, 0), BuildingBlock: XUDNAN_clean_linker_2, # of connection points: 2
#     Edge 65, Type (0, 0), BuildingBlock: XUDNAN_clean_linker_2, # of connection points: 2
#     Edge 66, Type (0, 0), BuildingBlock: XUDNAN_clean_linker_2, # of connection points: 2
#     Edge 67, Type (0, 0), BuildingBlock: XUDNAN_clean_linker_2, # of connection points: 2
#     Edge 68, Type (0, 0), BuildingBlock: XUDNAN_clean_linker_2, # of connection points: 2
#     Edge 69, Type (0, 0), BuildingBlock: XUDNAN_clean_linker_2, # of connection points: 2
#     Edge 70, Type (0, 0), BuildingBlock: XUDNAN_clean_linker_2, # of connection points: 2
#     Edge 71, Type (0, 0), BuildingBlock: XUDNAN_clean_linker_2, # of connection points: 2
#     Edge 72, Type (0, 0), BuildingBlock: XUDNAN_clean_linker_2, # of connection points: 2
#     Edge 73, Type (0, 0), BuildingBlock: XUDNAN_clean_linker_2, # of connection points: 2
#     Edge 74, Type (0, 0), BuildingBlock: XUDNAN_clean_linker_2, # of connection points: 2
#     Edge 75, Type (0, 0), BuildingBlock: XUDNAN_clean_linker_2, # of connection points: 2
#     Edge 76, Type (0, 0), BuildingBlock: XUDNAN_clean_linker_2, # of connection points: 2
#     Edge 77, Type (0, 0), BuildingBlock: XUDNAN_clean_linker_2, # of connection points: 2
#     Edge 78, Type (0, 0), BuildingBlock: XUDNAN_clean_linker_2, # of connection points: 2
#     Edge 79, Type (0, 0), BuildingBlock: XUDNAN_clean_linker_2, # of connection points: 2
#     Edge 80, Type (0, 0), BuildingBlock: XUDNAN_clean_linker_2, # of connection points: 2
#     Edge 81, Type (0, 0), BuildingBlock: XUDNAN_clean_linker_2, # of connection points: 2
#     Edge 82, Type (0, 0), BuildingBlock: XUDNAN_clean_linker_2, # of connection points: 2
#     Edge 83, Type (0, 0), BuildingBlock: XUDNAN_clean_linker_2, # of connection points: 2
#     Edge 84, Type (0, 0), BuildingBlock: XUDNAN_clean_linker_2, # of connection points: 2
#     Edge 85, Type (0, 0), BuildingBlock: XUDNAN_clean_linker_2, # of connection points: 2
#     Edge 86, Type (0, 0), BuildingBlock: XUDNAN_clean_linker_2, # of connection points: 2
#     Edge 87, Type (0, 0), BuildingBlock: XUDNAN_clean_linker_2, # of connection points: 2
#     Edge 88, Type (0, 0), BuildingBlock: XUDNAN_clean_linker_2, # of connection points: 2
#     Edge 89, Type (0, 0), BuildingBlock: XUDNAN_clean_linker_2, # of connection points: 2
#     Edge 90, Type (0, 0), BuildingBlock: XUDNAN_clean_linker_2, # of connection points: 2
#     Edge 91, Type (0, 0), BuildingBlock: XUDNAN_clean_linker_2, # of connection points: 2
#     Edge 92, Type (0, 0), BuildingBlock: XUDNAN_clean_linker_2, # of connection points: 2
#     Edge 93, Type (0, 0), BuildingBlock: XUDNAN_clean_linker_2, # of connection points: 2
#     Edge 94, Type (0, 0), BuildingBlock: XUDNAN_clean_linker_2, # of connection points: 2
#     Edge 95, Type (0, 0), BuildingBlock: XUDNAN_clean_linker_2, # of connection points: 2
# Relax obj value: 0.274
# Max RMSD: 0.197
# Mean RMSD: 0.197
data_MOF--net-ukm--node1-QUQFOY_clean_sbu_3--edge1-XUDNAN_clean_linker_2
_symmetry_space_group_name_H-M    P1
_symmetry_Int_Tables_number       1
_symmetry_cell_setting            triclinic
loop_
_symmetry_equiv_pos_as_xyz
'x, y, z'
_cell_length_a     26.060663
_cell_length_b     103.95581
_cell_length_c     42.430374
_cell_angle_alpha  90.132771
_cell_angle_beta   89.984753
_cell_angle_gamma 90.002402
loop_
_atom_site_label
_atom_site_type_symbol
_atom_site_fract_x
_atom_site_fract_y
_atom_site_fract_z
_atom_type_partial_charge
C0 C 0.06997 0.25339 0.36329 0.0
O1 O 0.02716 0.2588 0.36843 0.0
Cd2 Cd 0.01699 0.28169 0.36318 0.0
O3 O 0.10887 0.26005 0.35577 0.0
Cd4 Cd 0.12594 0.28283 0.34599 0.0
C5 C 0.04263 0.28485 0.28585 0.0
O6 O 0.08364 0.29449 0.38883 0.0
O7 O 0.1 0.30503 0.346 0.0
O8 O 0.20924 0.28382 0.37173 0.0
C9 C 0.08958 0.30527 0.37518 0.0
O10 O 0.00709 0.28546 0.30636 0.0
C11 C 0.23486 0.28545 0.34663 0.0
O12 O 0.08898 0.28311 0.29409 0.0
O13 O 0.20998 0.28553 0.32093 0.0
C14 C 0.21074 0.95439 0.31316 0.0
O15 O 0.24771 0.9472 0.30472 0.0
Cd16 Cd 0.24977 0.9243 0.30713 0.0
O17 O 0.17044 0.94964 0.32558 0.0
Cd18 Cd 0.13807 0.92815 0.34088 0.0
C19 C 0.14025 0.91862 0.26433 0.0
O20 O 0.21944 0.91878 0.35835 0.0
O21 O 0.15637 0.90577 0.35148 0.0
O22 O 0.0916 0.93765 0.38611 0.0
C23 C 0.20285 0.90736 0.35915 0.0
O24 O 0.1889 0.91765 0.26624 0.0
C25 C 0.05051 0.93147 0.38038 0.0
O26 O 0.1138 0.92288 0.2873 0.0
O27 O 0.05066 0.92402 0.35668 0.0
C28 C 0.95138 0.93091 0.97016 0.0
O29 O 0.91829 0.92217 0.97485 0.0
Cd30 Cd 0.94338 0.90034 0.98407 0.0
O31 O -0.00105 0.92818 0.9693 0.0
Cd32 Cd 0.0564 0.90951 0.97362 0.0
C33 C 0.0202 0.90406 0.04878 0.0
O34 O 0.00467 0.89442 0.94405 0.0
O35 O 0.06574 0.88609 0.97198 0.0
O36 O 0.11207 0.91597 0.93 0.0
C37 C 0.03127 0.88465 0.95116 0.0
O38 O 0.97771 0.89997 0.03785 0.0
C39 C 0.15061 0.91853 0.94716 0.0
O40 O 0.05447 0.90853 0.0305 0.0
O41 O 0.14568 0.91675 0.97659 0.0
C42 C 0.18897 0.28119 0.99181 0.0
O43 O 0.20425 0.29233 -0.00025 0.0
Cd44 Cd 0.1497 0.31039 0.00695 0.0
O45 O 0.142 0.27915 0.98485 0.0
Cd46 Cd 0.06126 0.29178 0.9801 0.0
C47 C 0.06146 0.29692 0.05823 0.0
O48 O 0.09821 0.31163 0.96118 0.0
O49 O 0.02116 0.31292 0.97985 0.0
O50 O 0.03545 0.28479 0.92755 0.0
C51 C 0.05795 0.31824 0.9653 0.0
O52 O 0.0984 0.30461 0.0527 0.0
C53 C 0.99294 0.27998 0.93609 0.0
O54 O 0.04084 0.29044 0.03611 0.0
O55 O 0.98386 0.27972 0.9655 0.0
C56 C 0.01454 0.68368 0.67129 0.0
O57 O 0.04868 0.67497 0.67051 0.0
Cd58 Cd 0.03038 0.65241 0.67637 0.0
O59 O 0.96738 0.68071 0.67408 0.0
Cd60 Cd 0.91539 0.6611 0.67905 0.0
C61 C 0.97201 0.65259 0.74799 0.0
O62 O 0.96012 0.64637 0.64275 0.0
O63 O 0.90366 0.63842 0.67488 0.0
O64 O 0.84598 0.66758 0.64346 0.0
C65 C 0.93302 0.63686 0.6514 0.0
O66 O 0.01125 0.64922 0.73212 0.0
C67 C 0.81161 0.66784 0.66467 0.0
O68 O 0.93354 0.65776 0.73457 0.0
O69 O 0.82603 0.66558 0.6927 0.0
C70 C 0.68424 0.02772 0.6416 0.0
O71 O 0.65393 0.0373 0.64158 0.0
Cd72 Cd 0.67959 0.05953 0.64257 0.0
O73 O 0.73267 0.02937 0.64038 0.0
Cd74 Cd 0.79571 0.04702 0.63726 0.0
C75 C 0.75542 0.05843 0.70875 0.0
O76 O 0.74688 0.06216 0.60523 0.0
O77 O 0.81664 0.06923 0.62646 0.0
O78 O 0.85327 0.03634 0.59956 0.0
C79 C 0.77764 0.07145 0.60953 0.0
O80 O 0.71461 0.06247 0.69552 0.0
C81 C 0.89182 0.03642 0.61793 0.0
O82 O 0.78903 0.05213 0.69329 0.0
O83 O 0.88484 0.04099 0.64539 0.0
C84 C 0.92261 0.02457 0.97928 0.0
O85 O 0.96513 0.0298 0.97242 0.0
Cd86 Cd 0.97141 0.05273 0.97401 0.0
O87 O 0.88559 0.03132 0.98968 0.0
Cd88 Cd 0.86417 0.05347 0.00545 0.0
C89 C 0.86627 0.06067 0.92872 0.0
O90 O 0.94826 0.0597 0.02652 0.0
O91 O 0.89489 0.07505 0.01648 0.0
O92 O 0.82229 0.04192 0.04836 0.0
C93 C 0.93708 0.07154 0.02855 0.0
O94 O 0.91486 0.0597 0.93098 0.0
C95 C 0.78332 0.0492 0.04972 0.0
O96 O 0.83759 0.05856 0.95239 0.0
O97 O 0.78201 0.05865 0.03082 0.0
C98 C 0.85806 0.7067 0.98992 0.0
O99 O 0.81805 0.6998 0.99245 0.0
Cd100 Cd 0.81432 0.67889 0.0152 0.0
O101 O 0.90043 0.70315 0.0022 0.0
Cd102 Cd 0.93261 0.68474 0.03383 0.0
C103 C 0.91121 0.66627 0.96954 0.0
O104 O 0.85589 0.68023 0.06519 0.0
O105 O 0.91212 0.66513 0.06147 0.0
O106 O 0.98809 0.6987 0.06657 0.0
C107 C 0.87082 0.66918 0.07362 0.0
O108 O 0.86365 0.66648 0.97655 0.0
C109 C 0.02689 0.69135 0.06407 0.0
O110 O 0.94387 0.67258 0.98563 0.0
O111 O 0.02176 0.68136 0.04713 0.0
C112 C 0.04973 0.77444 0.72615 0.0
O113 O 0.0058 0.77951 0.72955 0.0
Cd114 Cd -0.00148 0.80157 0.7455 0.0
O115 O 0.08992 0.7807 0.73354 0.0
Cd116 Cd 0.11333 0.80167 0.75654 0.0
C117 C 0.07392 0.81594 0.69004 0.0
O118 O 0.04404 0.80493 0.79461 0.0
O119 O 0.08641 0.82184 0.78017 0.0
O120 O 0.17125 0.7905 0.79193 0.0
C121 C 0.05498 0.81667 0.7991 0.0
O122 O 0.02844 0.81408 0.70002 0.0
C123 C 0.21122 0.79679 0.78465 0.0
O124 O 0.11229 0.81184 0.70555 0.0
O125 O 0.20607 0.80548 0.76385 0.0
C126 C 0.19384 0.44133 0.81867 0.0
O127 O 0.22375 0.43173 0.81713 0.0
Cd128 Cd 0.18816 0.41061 0.81071 0.0
O129 O 0.14555 0.43967 0.81969 0.0
Cd130 Cd 0.08411 0.42194 0.82173 0.0
C131 C 0.11028 0.41495 0.74685 0.0
O132 O 0.12826 0.40519 0.85212 0.0
O133 O 0.06337 0.39968 0.82292 0.0
O134 O 0.04138 0.43106 0.86743 0.0
C135 C 0.09328 0.39709 0.84554 0.0
O136 O 0.15188 0.41028 0.75759 0.0
C137 C 0.99662 0.43068 0.8557 0.0
O138 O 0.07814 0.42041 0.76503 0.0
O139 O 0.99307 0.42726 0.82702 0.0
C140 C 0.03849 0.43036 0.43348 0.0
O141 O 0.01879 0.41929 0.42967 0.0
Cd142 Cd 0.06307 0.39986 0.44212 0.0
O143 O 0.08573 0.4316 0.4408 0.0
Cd144 Cd 0.16548 0.41929 0.45049 0.0
C145 C 0.10382 0.40983 0.51654 0.0
O146 O 0.14571 0.40092 0.4191 0.0
O147 O 0.20481 0.39788 0.45373 0.0
O148 O 0.21756 0.43158 0.41375 0.0
C149 C 0.17684 0.39322 0.43206 0.0
O150 O 0.07461 0.40308 0.4989 0.0
C151 C 0.24986 0.43545 0.4341 0.0
O152 O 0.13938 0.41685 0.50514 0.0
O153 O 0.2425 0.43197 0.46245 0.0
C154 C 0.31097 0.78372 0.45632 0.0
O155 O 0.34001 0.79304 0.46444 0.0
Cd156 Cd 0.33934 0.81615 0.45487 0.0
O157 O 0.27154 0.78546 0.43896 0.0
Cd158 Cd 0.22804 0.80391 0.41491 0.0
C159 C 0.2222 0.82172 0.48643 0.0
O160 O 0.29923 0.81736 0.40593 0.0
O161 O 0.2497 0.81651 0.36629 0.0
O162 O 0.17256 0.79161 0.37946 0.0
C163 C 0.28813 0.82176 0.37924 0.0
O164 O 0.27052 0.82335 0.48878 0.0
C165 C 0.1319 0.79754 0.38776 0.0
O166 O 0.20269 0.81549 0.4634 0.0
O167 O 0.13622 0.80602 0.40928 0.0
C168 C 0.0492 0.17245 0.25344 0.0
O169 O 0.06058 0.16094 0.26112 0.0
Cd170 Cd 0.03631 0.13969 0.24006 0.0
O171 O 0.02004 0.17492 0.23008 0.0
Cd172 Cd 0.9699 0.16129 0.19558 0.0
C173 C 0.9191 0.14464 0.26215 0.0
O174 O 0.02513 0.14298 0.18498 0.0
O175 O -3e-05 0.15355 0.14436 0.0
O176 O 0.92494 0.17917 0.16988 0.0
C177 C 0.02142 0.14359 0.15529 0.0
O178 O 0.95454 0.13642 0.26617 0.0
C179 C 0.88519 0.17236 0.16438 0.0
O180 O 0.92253 0.15308 0.24067 0.0
O181 O 0.88525 0.16078 0.174 0.0
C182 C 0.73517 0.53702 0.13581 0.0
O183 O 0.69488 0.54387 0.13593 0.0
Cd184 Cd 0.69746 0.56626 0.15128 0.0
O185 O 0.7783 0.54193 0.14277 0.0
Cd186 Cd 0.81612 0.56223 0.15925 0.0
C187 C 0.7429 0.56114 0.22504 0.0
O188 O 0.76859 0.57845 0.12951 0.0
O189 O 0.8075 0.58459 0.17219 0.0
O190 O 0.89498 0.5597 0.12801 0.0
C191 C 0.78243 0.58757 0.14768 0.0
O192 O 0.70459 0.56484 0.20877 0.0
C193 C 0.92418 0.55849 0.15183 0.0
O194 O 0.78594 0.55879 0.2121 0.0
O195 O 0.90323 0.5594 0.17876 0.0
C196 C 0.88164 0.51183 0.49359 0.0
O197 O 0.91516 0.52057 0.49 0.0
Cd198 Cd 0.90413 0.54304 0.49767 0.0
O199 O 0.83706 0.51447 0.50423 0.0
Cd200 Cd 0.79202 0.53419 0.52287 0.0
C201 C 0.79858 0.54645 0.44954 0.0
O202 O 0.86435 0.54525 0.54731 0.0
O203 O 0.79618 0.55655 0.53906 0.0
O204 O 0.75364 0.52481 0.56993 0.0
C205 C 0.84081 0.5558 0.55076 0.0
O206 O 0.84569 0.5487 0.45531 0.0
C207 C 0.70784 0.52765 0.56237 0.0
O208 O 0.77028 0.54074 0.46956 0.0
O209 O 0.70111 0.53261 0.53536 0.0
C210 C 0.72646 0.21104 0.52604 0.0
O211 O 0.68644 0.20453 0.51991 0.0
Cd212 Cd 0.69043 0.18091 0.51956 0.0
O213 O 0.76954 0.20553 0.52877 0.0
Cd214 Cd 0.80834 0.18477 0.52318 0.0
C215 C 0.75667 0.17477 0.45351 0.0
O216 O 0.75049 0.17216 0.55759 0.0
O217 O 0.81304 0.16248 0.5332 0.0
O218 O 0.8766 0.19073 0.55991 0.0
C219 C 0.77576 0.16189 0.5523 0.0
O220 O 0.71486 0.17272 0.46809 0.0
C221 C 0.9116 0.191 0.5391 0.0
O222 O 0.79413 0.1804 0.46703 0.0
O223 O 0.89859 0.18823 0.51106 0.0
C224 C 0.54629 0.28419 0.71782 0.0
O225 O 0.50563 0.29031 0.72469 0.0
Cd226 Cd 0.50841 0.31087 0.75055 0.0
O227 O 0.58958 0.28808 0.72789 0.0
Cd228 Cd 0.62552 0.30504 0.7619 0.0
C229 C 0.59866 0.3249 0.70197 0.0
O230 O 0.55595 0.31015 0.79865 0.0
O231 O 0.61335 0.32486 0.79066 0.0
O232 O 0.66357 0.2886 0.79469 0.0
C233 C 0.57447 0.32105 0.806 0.0
O234 O 0.55266 0.32424 0.71203 0.0
C235 C 0.70943 0.29261 0.79283 0.0
O236 O 0.63425 0.31827 0.71468 0.0
O237 O 0.71718 0.30246 0.77566 0.0
C238 C 0.62956 0.94861 0.75507 0.0
O239 O 0.67273 0.94335 0.76038 0.0
Cd240 Cd 0.68766 0.92482 0.79353 0.0
O241 O 0.58914 0.94453 0.76859 0.0
Cd242 Cd 0.5659 0.92731 0.80539 0.0
C243 C 0.6076 0.9043 0.75425 0.0
O244 O 0.6403 0.92689 0.84126 0.0
O245 O 0.58686 0.91095 0.84221 0.0
O246 O 0.50852 0.94025 0.83778 0.0
C247 C 0.6257 0.91647 0.85396 0.0
O248 O 0.65301 0.90697 0.76324 0.0
C249 C 0.46888 0.93351 0.83217 0.0
O250 O 0.56933 0.91082 0.76408 0.0
O251 O 0.47379 0.92433 0.81255 0.0
C252 C 0.52411 0.93443 0.53227 0.0
O253 O 0.48663 0.92783 0.52206 0.0
Cd254 Cd 0.49595 0.90884 0.49092 0.0
O255 O 0.56993 0.93157 0.52462 0.0
Cd256 Cd 0.61125 0.91459 0.4925 0.0
C257 C 0.56812 0.89291 0.54488 0.0
O258 O 0.5532 0.9124 0.44697 0.0
O259 O 0.60212 0.89627 0.45849 0.0
O260 O 0.67411 0.9306 0.47442 0.0
C261 C 0.57232 0.90166 0.43904 0.0
O262 O 0.52499 0.89359 0.53091 0.0
C263 C 0.7125 0.92322 0.47791 0.0
O264 O 0.60546 0.90003 0.53666 0.0
O265 O 0.70388 0.91207 0.48877 0.0
C266 C 0.76008 0.29945 0.45615 0.0
O267 O 0.79801 0.30707 0.45922 0.0
Cd268 Cd 0.80179 0.32945 0.44338 0.0
O269 O 0.71875 0.30309 0.44293 0.0
Cd270 Cd 0.679 0.32206 0.41939 0.0
C271 C 0.6996 0.33824 0.48966 0.0
O272 O 0.75545 0.33047 0.39528 0.0
O273 O 0.68592 0.34112 0.38671 0.0
O274 O 0.63071 0.30899 0.38172 0.0
C275 C 0.73424 0.34038 0.38381 0.0
O276 O 0.74775 0.33852 0.48448 0.0
C277 C 0.58716 0.31221 0.39278 0.0
O278 O 0.66862 0.33289 0.47039 0.0
O279 O 0.58677 0.32006 0.4158 0.0
C280 C 0.5536 0.69503 0.2305 0.0
O281 O 0.58151 0.68505 0.23399 0.0
Cd282 Cd 0.57315 0.66273 0.21754 0.0
O283 O 0.51168 0.69469 0.2149 0.0
Cd284 Cd 0.46005 0.67838 0.18754 0.0
C285 C 0.46007 0.65834 0.25508 0.0
O286 O 0.52699 0.66483 0.17079 0.0
O287 O 0.47384 0.66857 0.13403 0.0
O288 O 0.40193 0.69467 0.16553 0.0
C289 C 0.51185 0.66206 0.14349 0.0
O290 O 0.50774 0.65566 0.25391 0.0
C291 C 0.36291 0.68728 0.16693 0.0
O292 O 0.439 0.66566 0.23476 0.0
O293 O 0.36942 0.67616 0.17872 0.0
C294 C 0.29677 0.04251 0.25135 0.0
O295 O 0.27263 0.05292 0.25622 0.0
Cd296 Cd 0.31163 0.0733 0.24751 0.0
O297 O 0.34276 0.04275 0.24113 0.0
Cd298 Cd 0.40461 0.06006 0.22827 0.0
C299 C 0.40235 0.07002 0.3028 0.0
O300 O 0.34831 0.07265 0.19515 0.0
O301 O 0.41189 0.08311 0.21519 0.0
O302 O 0.44691 0.04554 0.19021 0.0
C303 C 0.37774 0.0823 0.194 0.0
O304 O 0.36531 0.0772 0.29442 0.0
C305 C 0.49113 0.05037 0.19462 0.0
O306 O 0.42125 0.06186 0.28382 0.0
O307 O 0.49509 0.05905 0.2155 0.0
C308 C 0.45924 0.01854 0.60831 0.0
O309 O 0.49371 0.02712 0.61031 0.0
Cd310 Cd 0.47482 0.04973 0.60294 0.0
O311 O 0.41392 0.02141 0.59979 0.0
Cd312 Cd 0.36585 0.04014 0.58205 0.0
C313 C 0.4459 0.0503 0.52491 0.0
O314 O 0.39159 0.05551 0.6229 0.0
O315 O 0.35608 0.06305 0.58065 0.0
O316 O 0.28495 0.03381 0.60656 0.0
C317 C 0.37292 0.06506 0.60822 0.0
O318 O 0.4737 0.05482 0.54697 0.0
C319 C 0.26015 0.03262 0.58098 0.0
O320 O 0.4078 0.043 0.53086 0.0
O321 O 0.28489 0.03459 0.55565 0.0
C322 C 0.30639 0.69502 0.5326 0.0
O323 O 0.26198 0.69013 0.52991 0.0
Cd324 Cd 0.24804 0.66729 0.52872 0.0
O325 O 0.34542 0.68788 0.53664 0.0
Cd326 Cd 0.36854 0.66519 0.5427 0.0
C327 C 0.3306 0.65983 0.46796 0.0
O328 O 0.29371 0.65663 0.56998 0.0
O329 O 0.34175 0.64303 0.54475 0.0
O330 O 0.4198 0.6696 0.58935 0.0
C331 C 0.30368 0.64504 0.56271 0.0
O332 O 0.28484 0.6606 0.4784 0.0
C333 C 0.46259 0.66633 0.5775 0.0
O334 O 0.36898 0.66193 0.4859 0.0
O335 O 0.46192 0.66225 0.54921 0.0
C336 C 0.59652 0.78219 0.30522 0.0
O337 O 0.55531 0.78868 0.30427 0.0
Cd338 Cd 0.55426 0.81092 0.28976 0.0
O339 O 0.63964 0.78749 0.29991 0.0
Cd340 Cd 0.67836 0.80835 0.28714 0.0
C341 C 0.61356 0.80768 0.21792 0.0
O342 O 0.62168 0.82182 0.31748 0.0
O343 O 0.66912 0.83175 0.28355 0.0
O344 O 0.74993 0.80553 0.32382 0.0
C345 C 0.63574 0.83237 0.30529 0.0
O346 O 0.57243 0.80986 0.23327 0.0
C347 C 0.78397 0.80462 0.30249 0.0
O348 O 0.65639 0.80637 0.23195 0.0
O349 O 0.76908 0.80584 0.27415 0.0
C350 C 0.73999 0.45938 0.25359 0.0
O351 O 0.77415 0.45064 0.25479 0.0
Cd352 Cd 0.77914 0.43152 0.28669 0.0
O353 O 0.70095 0.45913 0.27177 0.0
Cd354 Cd 0.66422 0.44445 0.31165 0.0
C355 C 0.66685 0.41948 0.25722 0.0
O356 O 0.74339 0.4374 0.33567 0.0
O357 O 0.67551 0.42829 0.35277 0.0
O358 O 0.61687 0.45914 0.34698 0.0
C359 C 0.72406 0.42862 0.35248 0.0
O360 O 0.71527 0.41826 0.26022 0.0
C361 C 0.57329 0.45472 0.3387 0.0
O362 O 0.64229 0.4283 0.27174 0.0
O363 O 0.57291 0.4462 0.31721 0.0
C364 C 0.49712 0.43854 0.99198 0.0
O365 O 0.45425 0.43283 0.99399 0.0
Cd366 Cd 0.45483 0.40953 -0.00568 0.0
O367 O 0.53809 0.43204 0.98906 0.0
Cd368 Cd 0.56971 0.41002 0.98477 0.0
C369 C 0.5286 0.40229 0.05751 0.0
O370 O 0.50462 0.40015 0.95089 0.0
O371 O 0.55556 0.38738 0.97657 0.0
O372 O 0.63238 0.41566 0.94396 0.0
C373 C 0.52137 0.38883 0.95565 0.0
O374 O 0.48279 0.40296 0.04728 0.0
C375 C 0.67112 0.41459 0.9619 0.0
O376 O 0.56651 0.4049 0.03985 0.0
O377 O 0.6628 0.41084 0.98988 0.0
C378 C 0.76192 0.78905 0.90722 0.0
O379 O 0.7878 0.79873 0.91622 0.0
Cd380 Cd 0.75276 0.81866 0.93395 0.0
O381 O 0.71327 0.78975 0.9045 0.0
Cd382 Cd 0.64529 0.8062 0.91152 0.0
C383 C 0.66861 0.80713 0.9897 0.0
O384 O 0.69061 0.82578 0.89683 0.0
O385 O 0.62436 0.82807 0.92691 0.0
O386 O 0.58796 0.80349 0.8655 0.0
C387 C 0.65995 0.83327 0.91105 0.0
O388 O 0.70934 0.81348 0.9838 0.0
C389 C 0.55226 0.79831 0.88149 0.0
O390 O 0.64056 0.80281 0.96756 0.0
O391 O 0.56062 0.79665 0.91063 0.0
C392 C 0.45998 0.20187 0.62908 0.0
O393 O 0.48798 0.19213 0.62367 0.0
Cd394 Cd 0.46086 0.17145 0.64305 0.0
O395 O 0.41454 0.20043 0.63941 0.0
Cd396 Cd 0.34932 0.18429 0.65159 0.0
C397 C 0.41871 0.18175 0.71704 0.0
O398 O 0.37799 0.16457 0.62616 0.0
O399 O 0.32941 0.16294 0.66757 0.0
O400 O 0.29805 0.1919 0.60847 0.0
C401 C 0.35411 0.15743 0.64564 0.0
O402 O 0.45082 0.1761 0.69903 0.0
C403 C 0.25747 0.19385 0.62431 0.0
O404 O 0.37694 0.18646 0.70635 0.0
O405 O 0.25966 0.19171 0.65384 0.0
C406 C 0.24192 0.52954 0.74907 0.0
O407 O 0.19958 0.53555 0.74995 0.0
Cd408 Cd 0.19588 0.55787 0.73537 0.0
O409 O 0.28184 0.53497 0.73833 0.0
Cd410 Cd 0.30927 0.55531 0.71553 0.0
C411 C 0.28681 0.57038 0.78426 0.0
O412 O 0.23456 0.56162 0.68413 0.0
O413 O 0.28929 0.57648 0.69697 0.0
O414 O 0.36132 0.54594 0.67309 0.0
C415 C 0.25023 0.57311 0.68115 0.0
O416 O 0.23901 0.56918 0.7788 0.0
C417 C 0.40393 0.54857 0.6861 0.0
O418 O 0.32002 0.56577 0.76547 0.0
O419 O 0.40236 0.55475 0.7119 0.0
C420 C 0.47481 0.53051 0.04363 0.0
O421 O 0.50969 0.53901 0.04164 0.0
Cd422 Cd 0.50433 0.56174 0.05036 0.0
O423 O 0.42924 0.53353 0.05175 0.0
Cd424 Cd 0.38387 0.55384 0.06527 0.0
C425 C 0.41233 0.56796 -0.00501 0.0
O426 O 0.45096 0.56497 0.09473 0.0
O427 O 0.38681 0.57638 0.07957 0.0
O428 O 0.32572 0.54601 0.10661 0.0
C429 C 0.42972 0.57591 0.09351 0.0
O430 O 0.4579 0.56991 0.00478 0.0
C431 C 0.28508 0.54846 0.09113 0.0
O432 O 0.38026 0.56153 0.01129 0.0
O433 O 0.29088 0.55282 0.06344 0.0
C434 C 0.36615 0.19897 0.01881 0.0
O435 O 0.33264 0.19016 0.01686 0.0
Cd436 Cd 0.35504 0.16829 0.01065 0.0
O437 O 0.41375 0.19619 0.02017 0.0
Cd438 Cd 0.46722 0.17637 0.02151 0.0
C439 C 0.43311 0.17234 0.94628 0.0
O440 O 0.41143 0.16331 0.05383 0.0
O441 O 0.46462 0.15273 0.02466 0.0
O442 O 0.52209 0.18723 0.06045 0.0
C443 C 0.43327 0.15277 0.04748 0.0
O444 O 0.39037 0.1683 0.95693 0.0
C445 C 0.56358 0.18254 0.04974 0.0
O446 O 0.46799 0.17626 0.96487 0.0
O447 O 0.56025 0.17536 0.02563 0.0
H448 H 0.13054 0.38045 0.3838 0.0
H449 H 0.20411 0.37456 0.47436 0.0
H450 H 0.18097 0.35151 0.47228 0.0
H451 H 0.02556 0.35856 0.39467 0.0
H452 H 0.02656 0.35284 0.35454 0.0
H453 H 0.04756 0.36895 0.3635 0.0
H454 H 0.13546 0.36447 0.33693 0.0
H455 H 0.11424 0.34847 0.32726 0.0
H456 H 0.17268 0.35076 0.34929 0.0
H457 H 0.14781 0.32916 0.46065 0.0
H458 H 0.12065 0.30861 0.43618 0.0
H459 H 0.07212 0.32925 0.35264 0.0
C460 C 0.14202 0.37429 0.40311 0.0
C461 C 0.16894 0.37925 0.42925 0.0
C462 C 0.18368 0.37091 0.454 0.0
C463 C 0.17022 0.35785 0.4532 0.0
C464 C 0.14247 0.35332 0.4274 0.0
C465 C 0.12947 0.36124 0.40252 0.0
C466 C 0.10231 0.3539 0.37669 0.0
C467 C 0.04723 0.35886 0.3721 0.0
C468 C 0.13302 0.35443 0.34573 0.0
C469 C 0.10255 0.34056 0.39075 0.0
C470 C 0.12486 0.34044 0.42029 0.0
C471 C 0.13021 0.32912 0.43756 0.0
C472 C 0.11427 0.31753 0.42364 0.0
C473 C 0.09426 0.31743 0.39265 0.0
C474 C 0.08707 0.32911 0.37646 0.0
H475 H 0.1959 0.88647 0.32181 0.0
H476 H 0.28834 0.90352 0.39566 0.0
H477 H 0.34039 0.88355 0.39839 0.0
H478 H 0.18145 0.85775 0.35261 0.0
H479 H 0.18522 0.84858 0.31655 0.0
H480 H 0.1655 0.86505 0.31536 0.0
H481 H 0.23834 0.86995 0.27544 0.0
H482 H 0.25873 0.85338 0.27694 0.0
H483 H 0.30381 0.86609 0.28533 0.0
H484 H 0.36583 0.86051 0.40214 0.0
H485 H 0.36049 0.83697 0.40776 0.0
H486 H 0.25593 0.83525 0.32852 0.0
C487 C 0.22798 0.88609 0.33801 0.0
C488 C 0.23803 0.89634 0.35883 0.0
C489 C 0.28028 0.89566 0.37959 0.0
C490 C 0.31017 0.88443 0.38104 0.0
C491 C 0.29812 0.87423 0.36081 0.0
C492 C 0.25847 0.8751 0.33925 0.0
C493 C 0.24831 0.86239 0.32314 0.0
C494 C 0.19185 0.8582 0.32722 0.0
C495 C 0.26321 0.86299 0.28814 0.0
C496 C 0.28476 0.85387 0.34126 0.0
C497 C 0.31451 0.86092 0.36216 0.0
C498 C 0.34425 0.85492 0.38516 0.0
C499 C 0.34098 0.84152 0.38819 0.0
C500 C 0.30755 0.83434 0.36859 0.0
C501 C 0.28233 0.8405 0.34346 0.0
H502 H 0.00402 0.88119 0.89027 0.0
H503 H 0.04393 0.8605 0.97533 0.0
H504 H 0.0374 0.83987 0.94626 0.0
H505 H 0.91907 0.85622 0.85336 0.0
H506 H 0.94446 0.8595 0.81468 0.0
H507 H 0.94037 0.87222 0.84354 0.0
H508 H 0.03765 0.87675 0.83691 0.0
H509 H 0.04197 0.86413 0.80808 0.0
H510 H 0.08287 0.86382 0.84233 0.0
H511 H 0.03441 0.82183 0.90692 0.0
H512 H 0.04899 0.80831 0.85962 0.0
H513 H 0.02066 0.84127 0.79983 0.0
C514 C 0.00974 0.87227 0.90294 0.0
C515 C 0.02351 0.87231 0.93501 0.0
C516 C 0.03283 0.86056 0.95073 0.0
C517 C 0.02875 0.84884 0.93449 0.0
C518 C 0.01598 0.84911 0.90257 0.0
C519 C 0.00726 0.86056 0.88689 0.0
C520 C 0.00276 0.85851 0.85172 0.0
C521 C 0.94843 0.8618 0.84015 0.0
C522 C 0.04377 0.86625 0.83373 0.0
C523 C 0.0127 0.84421 0.84986 0.0
C524 C 0.01809 0.83886 0.8795 0.0
C525 C 0.02974 0.82588 0.88363 0.0
C526 C 0.03781 0.81828 0.85673 0.0
C527 C 0.03579 0.82384 0.8264 0.0
C528 C 0.02198 0.83685 0.82292 0.0
H529 H 0.15789 0.37983 0.87363 0.0
H530 H -0.00177 0.39111 0.86564 0.0
H531 H 0.97316 0.37349 0.90128 0.0
H532 H 0.13358 0.3467 0.86895 0.0
H533 H 0.1833 0.34199 0.8961 0.0
H534 H 0.18983 0.3566 0.87383 0.0
H535 H 0.20184 0.3695 0.92567 0.0
H536 H 0.19517 0.3549 0.94813 0.0
H537 H 0.15389 0.36843 0.95619 0.0
H538 H 0.96443 0.35417 0.93459 0.0
H539 H 0.97159 0.33287 0.95979 0.0
H540 H 0.13616 0.33326 0.94374 0.0
C541 C 0.11788 0.37865 0.87993 0.0
C542 C 0.07988 0.38673 0.86723 0.0
C543 C 0.0277 0.38489 0.8752 0.0
C544 C 0.01317 0.37502 0.8956 0.0
C545 C 0.05134 0.36705 0.90748 0.0
C546 C 0.10256 0.36864 0.89975 0.0
C547 C 0.13496 0.35785 0.91293 0.0
C548 C 0.16198 0.35034 0.88637 0.0
C549 C 0.17375 0.36298 0.93718 0.0
C550 C 0.09373 0.34985 0.92859 0.0
C551 C 0.04598 0.35549 0.92577 0.0
C552 C 0.00162 0.34968 0.93724 0.0
C553 C 0.00604 0.33761 0.95149 0.0
C554 C 0.05435 0.33147 0.95358 0.0
C555 C 0.09875 0.33778 0.94246 0.0
H556 H 0.79426 0.57608 0.5789 0.0
H557 H 0.94371 0.56103 0.5531 0.0
H558 H 0.985 0.58072 0.57431 0.0
H559 H 0.81861 0.60927 0.56199 0.0
H560 H 0.7827 0.61503 0.59548 0.0
H561 H 0.76553 0.60002 0.57706 0.0
H562 H 0.77477 0.58831 0.63069 0.0
H563 H 0.79169 0.60329 0.64929 0.0
H564 H 0.83405 0.58964 0.65235 0.0
H565 H 0.00863 0.60273 0.59674 0.0
H566 H 0.01333 0.62386 0.62423 0.0
H567 H 0.84865 0.62299 0.63839 0.0
C568 C 0.83574 0.57696 0.57762 0.0
C569 C 0.86598 0.56717 0.56425 0.0
C570 C 0.92008 0.56848 0.56336 0.0
C571 C 0.94365 0.57964 0.57516 0.0
C572 C 0.91255 0.58919 0.58808 0.0
C573 C 0.85979 0.58784 0.58978 0.0
C574 C 0.83493 0.59911 0.60616 0.0
C575 C 0.79829 0.60628 0.58383 0.0
C576 C 0.80725 0.59483 0.63642 0.0
C577 C 0.88185 0.60705 0.61348 0.0
C578 C 0.92628 0.60134 0.60243 0.0
C579 C 0.97414 0.60723 0.60573 0.0
C580 C 0.9765 0.61919 0.62118 0.0
C581 C 0.9314 0.62482 0.63354 0.0
C582 C 0.88371 0.61871 0.62947 0.0
H583 H 0.84452 0.0911 0.60228 0.0
H584 H 0.68268 0.08168 0.59666 0.0
H585 H 0.66262 0.10461 0.58615 0.0
H586 H 0.83191 0.12181 0.63996 0.0
H587 H 0.88322 0.12902 0.61765 0.0
H588 H 0.88414 0.11202 0.62572 0.0
H589 H 0.89116 0.10704 0.56591 0.0
H590 H 0.89128 0.12401 0.55776 0.0
H591 H 0.84443 0.11371 0.53924 0.0
H592 H 0.66133 0.12898 0.57716 0.0
H593 H 0.68017 0.15166 0.56271 0.0
H594 H 0.84286 0.14412 0.57259 0.0
C595 C 0.80483 0.09386 0.59881 0.0
C596 C 0.7651 0.08471 0.60037 0.0
C597 C 0.71367 0.0886 0.59537 0.0
C598 C 0.70193 0.10159 0.58971 0.0
C599 C 0.74216 0.11044 0.58892 0.0
C600 C 0.79263 0.10665 0.59282 0.0
C601 C 0.82933 0.11776 0.5892 0.0
C602 C 0.85887 0.1203 0.61997 0.0
C603 C 0.86619 0.11549 0.56137 0.0
C604 C 0.79179 0.12843 0.58237 0.0
C605 C 0.74156 0.12416 0.58286 0.0
C606 C 0.70051 0.13242 0.57674 0.0
C607 C 0.71142 0.14527 0.56885 0.0
C608 C 0.76285 0.1495 0.5667 0.0
C609 C 0.80319 0.14106 0.57421 0.0
H610 H 0.99344 0.14034 0.09439 0.0
H611 H 0.07537 0.12179 0.17067 0.0
H612 H 0.07793 0.10159 0.13988 0.0
H613 H 0.91083 0.11676 0.08321 0.0
H614 H 0.90499 0.11801 0.04099 0.0
H615 H 0.92355 0.13182 0.06367 0.0
H616 H 0.0064 0.13425 0.03045 0.0
H617 H 0.98769 0.12051 0.00713 0.0
H618 H 0.04944 0.12078 0.02625 0.0
H619 H 0.05639 0.08258 0.10587 0.0
H620 H 0.01051 0.06657 0.07307 0.0
H621 H 0.93758 0.09748 0.02134 0.0
C622 C 0.01411 0.13221 0.104 0.0
C623 C 0.03476 0.13265 0.13469 0.0
C624 C 0.05987 0.12168 0.14699 0.0
C625 C 0.06159 0.11018 0.12962 0.0
C626 C 0.03805 0.10985 0.10008 0.0
C627 C 0.0151 0.12065 0.08729 0.0
C628 C 0.98451 0.11736 0.05807 0.0
C629 C 0.92765 0.12121 0.06175 0.0
C630 C 0.00846 0.12359 0.02874 0.0
C631 C 0.99113 0.10294 0.05749 0.0
C632 C 0.02352 0.09879 0.08121 0.0
C633 C 0.03185 0.08574 0.08683 0.0
C634 C 0.00557 0.07672 0.06817 0.0
C635 C 0.97052 0.08084 0.04482 0.0
C636 C 0.96434 0.09409 0.03899 0.0
H637 H 0.77684 0.59886 0.09014 0.0
H638 H 0.76659 0.60672 0.19017 0.0
H639 H 0.7661 0.63002 0.17951 0.0
H640 H 0.86743 0.61972 0.0756 0.0
H641 H 0.84652 0.62513 0.03736 0.0
H642 H 0.82786 0.60954 0.05115 0.0
H643 H 0.73204 0.61535 0.04327 0.0
H644 H 0.75048 0.63104 0.02914 0.0
H645 H 0.70622 0.62961 0.0616 0.0
H646 H 0.78671 0.65176 0.15987 0.0
H647 H 0.83131 0.66975 0.13307 0.0
H648 H 0.83378 0.64777 0.04638 0.0
C649 C 0.77191 0.60553 0.10954 0.0
C650 C 0.77118 0.60111 0.14084 0.0
C651 C 0.76685 0.61001 0.16596 0.0
C652 C 0.76611 0.62325 0.1601 0.0
C653 C 0.76985 0.62741 0.129 0.0
C654 C 0.77235 0.61879 0.10405 0.0
C655 C 0.78644 0.62553 0.07369 0.0
C656 C 0.83494 0.61963 0.05863 0.0
C657 C 0.74108 0.62538 0.05056 0.0
C658 C 0.79615 0.63897 0.08602 0.0
C659 C 0.78405 0.64004 0.11766 0.0
C660 C 0.79502 0.65117 0.13492 0.0
C661 C 0.82041 0.6613 0.11967 0.0
C662 C 0.8354 0.65999 0.08789 0.0
C663 C 0.82183 0.64892 0.07068 0.0
H664 H 0.53359 0.38749 0.89258 0.0
H665 H 0.48434 0.36561 0.97374 0.0
H666 H 0.4784 0.34598 0.94076 0.0
H667 H 0.46327 0.3686 0.82943 0.0
H668 H 0.51743 0.36976 0.80316 0.0
H669 H 0.50427 0.38256 0.83073 0.0
H670 H 0.5966 0.3805 0.85283 0.0
H671 H 0.60986 0.36763 0.82573 0.0
H672 H 0.61829 0.36516 0.86744 0.0
H673 H 0.48882 0.32835 0.90083 0.0
H674 H 0.52154 0.31393 0.85879 0.0
H675 H 0.57265 0.34714 0.80576 0.0
C676 C 0.51916 0.37868 0.90287 0.0
C677 C 0.5077 0.37801 0.93521 0.0
C678 C 0.4919 0.36625 0.94868 0.0
C679 C 0.48839 0.3551 0.93014 0.0
C680 C 0.50171 0.35591 0.89838 0.0
C681 C 0.51701 0.36741 0.88487 0.0
C682 C 0.53788 0.36535 0.85198 0.0
C683 C 0.50365 0.37196 0.82737 0.0
C684 C 0.59396 0.36993 0.84938 0.0
C685 C 0.53393 0.35087 0.8496 0.0
C686 C 0.51144 0.34563 0.87612 0.0
C687 C 0.50592 0.33236 0.87979 0.0
C688 C 0.5246 0.32425 0.8559 0.0
C689 C 0.54972 0.32948 0.82932 0.0
C690 C 0.55365 0.34293 0.82598 0.0
H691 H 0.71276 0.84832 0.86982 0.0
H692 H 0.62947 0.8494 0.95816 0.0
H693 H 0.63988 0.87291 0.96043 0.0
H694 H 0.79792 0.87836 0.88548 0.0
H695 H 0.79166 0.88313 0.84485 0.0
H696 H 0.79337 0.8663 0.85502 0.0
H697 H 0.7068 0.86268 0.82611 0.0
H698 H 0.70568 0.87932 0.81551 0.0
H699 H 0.65226 0.87247 0.83665 0.0
H700 H 0.63902 0.89558 0.94747 0.0
H701 H 0.61654 0.91493 0.9171 0.0
H702 H 0.70018 0.90021 0.83692 0.0
C703 C 0.69848 0.85352 0.89014 0.0
C704 C 0.67055 0.84713 0.91383 0.0
C705 C 0.65095 0.85417 0.93971 0.0
C706 C 0.6574 0.86751 0.94144 0.0
C707 C 0.68361 0.87367 0.91713 0.0
C708 C 0.70386 0.8669 0.89187 0.0
C709 C 0.72065 0.87589 0.86581 0.0
C710 C 0.77939 0.87592 0.86262 0.0
C711 C 0.69474 0.87239 0.83421 0.0
C712 C 0.70156 0.8886 0.8789 0.0
C713 C 0.68288 0.88721 0.90929 0.0
C714 C 0.65518 0.89696 0.92422 0.0
C715 C 0.64281 0.90798 0.90694 0.0
C716 C 0.65817 0.90908 0.87523 0.0
C717 C 0.69043 0.89972 0.86171 0.0
H718 H 0.57279 0.83645 0.35534 0.0
H719 H 0.64823 0.85608 0.27812 0.0
H720 H 0.61683 0.87691 0.29851 0.0
H721 H 0.46148 0.86028 0.36582 0.0
H722 H 0.4649 0.8584 0.40799 0.0
H723 H 0.47975 0.84502 0.38246 0.0
H724 H 0.56849 0.84265 0.40971 0.0
H725 H 0.55348 0.8559 0.43512 0.0
H726 H 0.61088 0.85635 0.41141 0.0
H727 H 0.59282 0.89549 0.3323 0.0
H728 H 0.58778 0.90978 0.37896 0.0
H729 H 0.53102 0.87811 0.43486 0.0
C730 C 0.58122 0.8451 0.34214 0.0
C731 C 0.6127 0.84469 0.31516 0.0
C732 C 0.62399 0.8562 0.29886 0.0
C733 C 0.60581 0.86806 0.31006 0.0
C734 C 0.57611 0.8682 0.33742 0.0
C735 C 0.56383 0.85697 0.35321 0.0
C736 C 0.53973 0.85974 0.3849 0.0
C737 C 0.4831 0.85562 0.38529 0.0
C738 C 0.57 0.85329 0.41183 0.0
C739 C 0.54457 0.87423 0.38572 0.0
C740 C 0.56329 0.87901 0.35754 0.0
C741 C 0.57678 0.89194 0.35414 0.0
C742 C 0.57365 0.9 0.38063 0.0
C743 C 0.55833 0.89496 0.41 0.0
C744 C 0.54154 0.88214 0.41223 0.0
H745 H 0.71738 0.35498 0.33297 0.0
H746 H 0.81081 0.35221 0.41682 0.0
H747 H 0.83531 0.37509 0.41131 0.0
H748 H 0.80093 0.38101 0.29146 0.0
H749 H 0.74399 0.38848 0.27598 0.0
H750 H 0.7467 0.37123 0.28029 0.0
H751 H 0.66412 0.37164 0.31397 0.0
H752 H 0.66028 0.38872 0.30967 0.0
H753 H 0.66146 0.38175 0.34854 0.0
H754 H 0.82875 0.39922 0.40517 0.0
H755 H 0.79671 0.42148 0.39637 0.0
H756 H 0.70838 0.408 0.31669 0.0
C757 C 0.7454 0.35906 0.34899 0.0
C758 C 0.76292 0.35194 0.37494 0.0
C759 C 0.79814 0.35751 0.3963 0.0
C760 C 0.81203 0.37051 0.39339 0.0
C761 C 0.79126 0.37761 0.36857 0.0
C762 C 0.75984 0.37192 0.34614 0.0
C763 C 0.73621 0.38179 0.32452 0.0
C764 C 0.75829 0.38054 0.29108 0.0
C765 C 0.67708 0.38092 0.32423 0.0
C766 C 0.75473 0.39396 0.34021 0.0
C767 C 0.78782 0.39148 0.36495 0.0
C768 C 0.80434 0.4013 0.38519 0.0
C769 C 0.78589 0.41387 0.38022 0.0
C770 C 0.75082 0.4163 0.35561 0.0
C771 C 0.73629 0.40632 0.33509 0.0
H772 H 0.40793 0.59967 0.0708 0.0
H773 H 0.51763 0.57899 0.12846 0.0
H774 H 0.56491 0.59933 0.13798 0.0
H775 H 0.50159 0.62328 0.03694 0.0
H776 H 0.45432 0.63594 0.03775 0.0
H777 H 0.43467 0.61949 0.03152 0.0
H778 H 0.37216 0.62106 0.07904 0.0
H779 H 0.39091 0.63749 0.08488 0.0
H780 H 0.39652 0.62617 0.11683 0.0
H781 H 0.59061 0.62227 0.14808 0.0
H782 H 0.58814 0.64541 0.161 0.0
H783 H 0.46509 0.65077 0.09359 0.0
C784 C 0.44229 0.59936 0.08513 0.0
C785 C 0.45898 0.58782 0.09917 0.0
C786 C 0.5042 0.58779 0.11761 0.0
C787 C 0.53151 0.59925 0.12284 0.0
C788 C 0.51368 0.61053 0.10876 0.0
C789 C 0.47022 0.61061 0.0901 0.0
C790 C 0.45564 0.62406 0.08024 0.0
C791 C 0.46195 0.62579 0.04449 0.0
C792 C 0.40061 0.62738 0.09092 0.0
C793 C 0.49547 0.63169 0.09814 0.0
C794 C 0.52954 0.62373 0.11381 0.0
C795 C 0.56506 0.6286 0.13533 0.0
C796 C 0.5635 0.64178 0.14246 0.0
C797 C 0.52642 0.64985 0.12822 0.0
C798 C 0.49445 0.64487 0.10437 0.0
H799 H 0.42436 0.14957 0.11046 0.0
H800 H 0.4115 0.12945 0.02127 0.0
H801 H 0.38685 0.10951 0.0495 0.0
H802 H 0.48555 0.12383 0.15001 0.0
H803 H 0.45555 0.12702 0.18751 0.0
H804 H 0.46576 0.13995 0.16009 0.0
H805 H 0.36871 0.14542 0.16201 0.0
H806 H 0.35817 0.13244 0.18932 0.0
H807 H 0.32227 0.13309 0.15306 0.0
H808 H 0.36323 0.09199 0.08761 0.0
H809 H 0.35633 0.07707 0.13277 0.0
H810 H 0.3949 0.10814 0.19685 0.0
C811 C 0.41563 0.14098 0.09698 0.0
C812 C 0.4189 0.14094 0.06387 0.0
C813 C 0.4088 0.12955 0.04674 0.0
C814 C 0.39449 0.11827 0.06253 0.0
C815 C 0.39161 0.11858 0.09534 0.0
C816 C 0.40291 0.12957 0.11239 0.0
C817 C 0.40241 0.12704 0.14747 0.0
C818 C 0.45547 0.12961 0.16212 0.0
C819 C 0.36038 0.13497 0.16393 0.0
C820 C 0.38953 0.11287 0.14752 0.0
C821 C 0.38201 0.10826 0.11727 0.0
C822 C 0.36917 0.09547 0.11139 0.0
C823 C 0.3651 0.08711 0.1371 0.0
C824 C 0.37525 0.09154 0.16802 0.0
C825 C 0.38711 0.10458 0.17332 0.0
H826 H 0.37879 0.08709 0.57429 0.0
H827 H 0.37394 0.07255 0.67001 0.0
H828 H 0.37298 0.09493 0.69032 0.0
H829 H 0.46275 0.11461 0.59156 0.0
H830 H 0.43062 0.12482 0.56351 0.0
H831 H 0.43357 0.1077 0.55692 0.0
H832 H 0.33442 0.10691 0.55247 0.0
H833 H 0.33108 0.12399 0.55923 0.0
H834 H 0.29579 0.11315 0.58428 0.0
H835 H 0.36304 0.11858 0.69938 0.0
H836 H 0.35299 0.14216 0.69739 0.0
H837 H 0.37066 0.14125 0.59573 0.0
C838 C 0.37791 0.08863 0.59955 0.0
C839 C 0.37599 0.0782 0.62072 0.0
C840 C 0.37546 0.08049 0.65355 0.0
C841 C 0.37487 0.09312 0.66522 0.0
C842 C 0.37597 0.10322 0.64363 0.0
C843 C 0.37837 0.10111 0.61152 0.0
C844 C 0.37869 0.1136 0.5933 0.0
C845 C 0.42944 0.11528 0.57526 0.0
C846 C 0.33222 0.11446 0.57102 0.0
C847 C 0.37441 0.1231 0.62015 0.0
C848 C 0.37276 0.1169 0.64897 0.0
C849 C 0.36519 0.12356 0.67705 0.0
C850 C 0.35921 0.13692 0.67564 0.0
C851 C 0.36141 0.14344 0.64639 0.0
C852 C 0.36966 0.13647 0.61837 0.0
H853 H 0.25968 0.6419 0.61992 0.0
H854 H 0.27725 0.62397 0.52846 0.0
H855 H 0.23542 0.60431 0.54822 0.0
H856 H 0.30362 0.61795 0.65988 0.0
H857 H 0.26258 0.619 0.69403 0.0
H858 H 0.27353 0.63298 0.67052 0.0
H859 H 0.17547 0.63563 0.66253 0.0
H860 H 0.16427 0.62149 0.68615 0.0
H861 H 0.13834 0.62246 0.64685 0.0
H862 H 0.21293 0.58542 0.57954 0.0
H863 H 0.22411 0.56866 0.6201 0.0
H864 H 0.22832 0.59798 0.6925 0.0
C865 C 0.25222 0.63401 0.60385 0.0
C866 C 0.27079 0.63438 0.57277 0.0
C867 C 0.26276 0.62381 0.5524 0.0
C868 C 0.23847 0.61267 0.56333 0.0
C869 C 0.22288 0.61225 0.59475 0.0
C870 C 0.22948 0.62268 0.6148 0.0
C871 C 0.2213 0.61888 0.64883 0.0
C872 C 0.26805 0.62239 0.66947 0.0
C873 C 0.1719 0.62498 0.66185 0.0
C874 C 0.21512 0.60449 0.64504 0.0
C875 C 0.21268 0.60096 0.61361 0.0
C876 C 0.21337 0.58807 0.60422 0.0
C877 C 0.21969 0.5786 0.62734 0.0
C878 C 0.22684 0.58218 0.65911 0.0
C879 C 0.22207 0.59515 0.66822 0.0
H880 H 0.49419 0.31126 0.422 0.0
H881 H 0.57148 0.30125 0.33475 0.0
H882 H 0.48963 0.29287 0.31325 0.0
H883 H 0.41287 0.28318 0.42452 0.0
H884 H 0.35914 0.29179 0.44102 0.0
H885 H 0.42363 0.29708 0.44913 0.0
H886 H 0.40143 0.31976 0.42781 0.0
H887 H 0.3369 0.31455 0.41968 0.0
H888 H 0.37546 0.32136 0.38864 0.0
H889 H 0.39769 0.28673 0.30055 0.0
H890 H 0.30456 0.28194 0.29904 0.0
H891 H 0.29028 0.29468 0.39607 0.0
C892 C 0.4939 0.30732 0.39834 0.0
C893 C 0.53893 0.30697 0.3799 0.0
C894 C 0.53726 0.3016 0.34922 0.0
C895 C 0.49102 0.29684 0.33683 0.0
C896 C 0.4472 0.29737 0.35566 0.0
C897 C 0.44846 0.30235 0.38589 0.0
C898 C 0.39645 0.30161 0.40157 0.0
C899 C 0.39815 0.29289 0.43078 0.0
C900 C 0.37639 0.31513 0.4099 0.0
C901 C 0.36546 0.29557 0.37533 0.0
C902 C 0.3952 0.29328 0.34893 0.0
C903 C 0.37418 0.28833 0.32122 0.0
C904 C 0.32137 0.28566 0.32055 0.0
C905 C 0.29059 0.28779 0.34756 0.0
C906 C 0.31313 0.29273 0.37527 0.0
H907 H 0.97974 0.91299 0.39215 0.0
H908 H 0.01674 0.95281 0.41241 0.0
H909 H 0.9344 0.95514 0.44133 0.0
H910 H 0.84728 0.91676 0.37962 0.0
H911 H 0.82946 0.90193 0.39862 0.0
H912 H 0.89157 0.90344 0.38047 0.0
H913 H 0.93536 0.89727 0.43316 0.0
H914 H 0.87332 0.89566 0.45146 0.0
H915 H 0.92062 0.90627 0.46839 0.0
H916 H 0.84313 0.95344 0.46294 0.0
H917 H 0.75615 0.94717 0.48123 0.0
H918 H 0.78459 0.90797 0.45099 0.0
C919 C 0.97067 0.92218 0.40291 0.0
C920 C 0.00414 0.93276 0.39999 0.0
C921 C 0.99144 0.94459 0.41456 0.0
C922 C 0.94479 0.946 0.43088 0.0
C923 C 0.91215 0.93538 0.43292 0.0
C924 C 0.92513 0.92363 0.41985 0.0
C925 C 0.88401 0.91365 0.42553 0.0
C926 C 0.86177 0.90866 0.3942 0.0
C927 C 0.90456 0.90256 0.44585 0.0
C928 C 0.84525 0.92165 0.44337 0.0
C929 C 0.86171 0.93421 0.44711 0.0
C930 C 0.83035 0.94358 0.46074 0.0
C931 C 0.78109 0.93996 0.47093 0.0
C932 C 0.76439 0.92707 0.46798 0.0
C933 C 0.79705 0.91783 0.45422 0.0
H934 H 0.3745 0.92293 0.82028 0.0
H935 H 0.45619 0.94755 0.88603 0.0
H936 H 0.38105 0.94749 0.92143 0.0
H937 H 0.24549 0.93747 0.83403 0.0
H938 H 0.2138 0.92214 0.83011 0.0
H939 H 0.27202 0.92528 0.80851 0.0
H940 H 0.3132 0.90492 0.83291 0.0
H941 H 0.25551 0.90181 0.85489 0.0
H942 H 0.31596 0.90334 0.87519 0.0
H943 H 0.30277 0.94205 0.95306 0.0
H944 H 0.22167 0.93387 0.97578 0.0
H945 H 0.18843 0.91402 0.88811 0.0
C946 C 0.37608 0.92857 0.84175 0.0
C947 C 0.42112 0.93525 0.85042 0.0
C948 C 0.42192 0.94244 0.87881 0.0
C949 C 0.3795 0.94243 0.89913 0.0
C950 C 0.3363 0.93538 0.8904 0.0
C951 C 0.3338 0.92882 0.86207 0.0
C952 C 0.28354 0.92163 0.85882 0.0
C953 C 0.25183 0.92695 0.83123 0.0
C954 C 0.29263 0.90706 0.85525 0.0
C955 C 0.25893 0.92482 0.8902 0.0
C956 C 0.29007 0.93273 0.90813 0.0
C957 C 0.2775 0.9361 0.93899 0.0
C958 C 0.23164 0.93134 0.95177 0.0
C959 C 0.19875 0.92346 0.93353 0.0
C960 C 0.21249 0.92024 0.90232 0.0
H961 H 0.81172 0.2992 0.79528 0.0
H962 H 0.7 0.27252 0.83368 0.0
H963 H 0.76541 0.26401 0.86993 0.0
H964 H 0.92556 0.2772 0.80293 0.0
H965 H 0.96731 0.29034 0.81357 0.0
H966 H 0.9139 0.29307 0.78743 0.0
H967 H 0.88031 0.31102 0.82456 0.0
H968 H 0.93347 0.30835 0.85071 0.0
H969 H 0.86873 0.30739 0.86549 0.0
H970 H 0.83757 0.261 0.90786 0.0
H971 H 0.91298 0.26315 0.94291 0.0
H972 H 0.98007 0.29062 0.87819 0.0
C973 C 0.80142 0.29135 0.81075 0.0
C974 C 0.75073 0.28653 0.81159 0.0
C975 C 0.73859 0.27636 0.83249 0.0
C976 C 0.77556 0.27141 0.85316 0.0
C977 C 0.8248 0.27659 0.85234 0.0
C978 C 0.83806 0.28621 0.83138 0.0
C979 C 0.89252 0.29077 0.837 0.0
C980 C 0.92685 0.28765 0.80854 0.0
C981 C 0.89379 0.30523 0.84492 0.0
C982 C 0.90687 0.28264 0.86527 0.0
C983 C 0.86743 0.27444 0.8736 0.0
C984 C 0.86935 0.2671 0.90108 0.0
C985 C 0.91222 0.26838 0.92086 0.0
C986 C 0.95271 0.27682 0.91287 0.0
C987 C 0.95046 0.28376 0.88431 0.0
H988 H 0.76574 0.66554 0.60684 0.0
H989 H 0.73356 0.67378 0.70519 0.0
H990 H 0.64091 0.67491 0.69313 0.0
H991 H 0.66513 0.68577 0.57284 0.0
H992 H 0.65067 0.67438 0.54199 0.0
H993 H 0.71464 0.67528 0.55794 0.0
H994 H 0.7113 0.65094 0.57087 0.0
H995 H 0.64719 0.64999 0.55523 0.0
H996 H 0.65988 0.64482 0.595 0.0
H997 H 0.55188 0.67433 0.67087 0.0
H998 H 0.47216 0.67202 0.64005 0.0
H999 H 0.56183 0.66334 0.5564 0.0
C1000 C 0.73927 0.66783 0.62572 0.0
C1001 C 0.75682 0.66971 0.65691 0.0
C1002 C 0.72092 0.67239 0.68111 0.0
C1003 C 0.66826 0.67304 0.67449 0.0
C1004 C 0.65213 0.67091 0.6436 0.0
C1005 C 0.68652 0.66836 0.61959 0.0
C1006 C 0.65894 0.66577 0.58876 0.0
C1007 C 0.67319 0.67591 0.56392 0.0
C1008 C 0.66999 0.65207 0.57678 0.0
C1009 C 0.60364 0.66719 0.59923 0.0
C1010 C 0.60064 0.67024 0.63091 0.0
C1011 C 0.55373 0.67198 0.64604 0.0
C1012 C 0.50866 0.67063 0.62832 0.0
C1013 C 0.51072 0.66747 0.59583 0.0
C1014 C 0.55897 0.66571 0.58121 0.0
H1015 H 0.97978 0.0354 0.65294 0.0
H1016 H 0.92097 0.02881 0.5586 0.0
H1017 H 0.00926 0.02484 0.5396 0.0
H1018 H 0.08672 0.05279 0.63116 0.0
H1019 H 0.12885 0.0463 0.66082 0.0
H1020 H 0.06085 0.04687 0.66778 0.0
H1021 H 0.05988 0.02232 0.67831 0.0
H1022 H 0.12812 0.02168 0.67154 0.0
H1023 H 0.08568 0.01147 0.64914 0.0
H1024 H 0.10477 0.02437 0.52975 0.0
H1025 H 0.19923 0.02667 0.53029 0.0
H1026 H 0.19484 0.0331 0.63133 0.0
C1027 C 0.98527 0.03283 0.62842 0.0
C1028 C 0.94346 0.03238 0.60726 0.0
C1029 C 0.95238 0.02913 0.57528 0.0
C1030 C 0.00241 0.02686 0.56428 0.0
C1031 C 0.04294 0.02772 0.58563 0.0
C1032 C 0.0348 0.03049 0.61712 0.0
C1033 C 0.08497 0.03173 0.63483 0.0
C1034 C 0.09066 0.04522 0.64949 0.0
C1035 C 0.08995 0.02117 0.65994 0.0
C1036 C 0.12272 0.02967 0.6082 0.0
C1037 C 0.09782 0.02727 0.58003 0.0
C1038 C 0.12469 0.02601 0.55177 0.0
C1039 C 0.1783 0.02737 0.55229 0.0
C1040 C 0.2044 0.02996 0.58088 0.0
C1041 C 0.17611 0.0309 0.60919 0.0
H1042 H 0.55823 0.06711 0.16886 0.0
H1043 H 0.52092 0.02654 0.1736 0.0
H1044 H 0.59449 0.02162 0.1383 0.0
H1045 H 0.58763 0.06684 0.08658 0.0
H1046 H 0.63775 0.07871 0.08984 0.0
H1047 H 0.58523 0.07878 0.11742 0.0
H1048 H 0.64953 0.07743 0.16389 0.0
H1049 H 0.70229 0.07736 0.13646 0.0
H1050 H 0.69593 0.06457 0.16481 0.0
H1051 H 0.67452 0.02135 0.104 0.0
H1052 H 0.74737 0.0258 0.06811 0.0
H1053 H 0.72472 0.06677 0.08128 0.0
C1054 C 0.56608 0.05717 0.16276 0.0
C1055 C 0.53494 0.04714 0.17428 0.0
C1056 C 0.54496 0.0343 0.16513 0.0
C1057 C 0.58658 0.03145 0.14523 0.0
C1058 C 0.61665 0.04161 0.13418 0.0
C1059 C 0.60624 0.05423 0.14221 0.0
C1060 C 0.64164 0.06348 0.12538 0.0
C1061 C 0.61124 0.07248 0.10351 0.0
C1062 C 0.67428 0.07116 0.14905 0.0
C1063 C 0.67408 0.05411 0.10677 0.0
C1064 C 0.65973 0.04152 0.11258 0.0
C1065 C 0.68567 0.03117 0.09903 0.0
C1066 C 0.72699 0.03377 0.0788 0.0
C1067 C 0.74103 0.04661 0.07182 0.0
C1068 C 0.71417 0.05687 0.08595 0.0
H1069 H 0.09575 0.67358 0.08383 0.0
H1070 H 0.06692 0.71465 0.08267 0.0
H1071 H 0.15013 0.71841 0.10972 0.0
H1072 H 0.15236 0.67298 0.16155 0.0
H1073 H 0.1975 0.66052 0.15132 0.0
H1074 H 0.13636 0.66131 0.13165 0.0
H1075 H 0.18251 0.66215 0.07754 0.0
H1076 H 0.24375 0.66137 0.09703 0.0
H1077 H 0.22998 0.67442 0.07046 0.0
H1078 H 0.24035 0.7174 0.13399 0.0
H1079 H 0.32461 0.71165 0.15738 0.0
H1080 H 0.28842 0.6712 0.14585 0.0
C1081 C 0.10698 0.68338 0.0892 0.0
C1082 C 0.07541 0.69385 0.08091 0.0
C1083 C 0.09082 0.70651 0.08882 0.0
C1084 C 0.13796 0.70872 0.10409 0.0
C1085 C 0.16843 0.69813 0.11179 0.0
C1086 C 0.15302 0.68571 0.10498 0.0
C1087 C 0.19159 0.67592 0.11637 0.0
C1088 C 0.16804 0.66717 0.14173 0.0
C1089 C 0.21323 0.668 0.0887 0.0
C1090 C 0.23176 0.68475 0.1302 0.0
C1091 C 0.21817 0.69754 0.12717 0.0
C1092 C 0.25096 0.70741 0.13687 0.0
C1093 C 0.2987 0.70407 0.15003 0.0
C1094 C 0.31259 0.691 0.15378 0.0
C1095 C 0.27843 0.68128 0.14384 0.0
H1096 H 0.50575 0.80871 0.82929 0.0
H1097 H 0.48496 0.78048 0.90337 0.0
H1098 H 0.39754 0.77599 0.88398 0.0
H1099 H 0.38171 0.82178 0.83476 0.0
H1100 H 0.37379 0.82457 0.79313 0.0
H1101 H 0.43704 0.82453 0.81016 0.0
H1102 H 0.46552 0.80687 0.77065 0.0
H1103 H 0.40236 0.80692 0.75335 0.0
H1104 H 0.42935 0.79213 0.76795 0.0
H1105 H 0.31123 0.77552 0.85923 0.0
H1106 H 0.22999 0.77937 0.83115 0.0
H1107 H 0.30455 0.80848 0.77391 0.0
C1108 C 0.48316 0.80137 0.84089 0.0
C1109 C 0.5022 0.79483 0.8676 0.0
C1110 C 0.47111 0.78555 0.88277 0.0
C1111 C 0.42149 0.78291 0.8719 0.0
C1112 C 0.40337 0.7897 0.84594 0.0
C1113 C 0.43311 0.79875 0.83059 0.0
C1114 C 0.40278 0.80538 0.80479 0.0
C1115 C 0.39859 0.81992 0.81111 0.0
C1116 C 0.42642 0.80266 0.77226 0.0
C1117 C 0.35124 0.79877 0.80841 0.0
C1118 C 0.35273 0.78967 0.83206 0.0
C1119 C 0.30963 0.78255 0.84049 0.0
C1120 C 0.26362 0.78483 0.82441 0.0
C1121 C 0.26089 0.79422 0.80031 0.0
C1122 C 0.30548 0.80121 0.79213 0.0
H1123 H 0.7062 0.41694 0.90121 0.0
H1124 H 0.75311 0.42064 -0.00105 0.0
H1125 H 0.83902 0.42778 0.98181 0.0
H1126 H 0.82433 0.40373 0.87429 0.0
H1127 H 0.82245 0.41172 0.83666 0.0
H1128 H 0.7636 0.40793 0.85677 0.0
H1129 H 0.73678 0.43192 0.85394 0.0
H1130 H 0.79603 0.4358 0.83421 0.0
H1131 H 0.77868 0.44407 0.87004 0.0
H1132 H 0.92001 0.43399 0.95436 0.0
H1133 H 0.99414 0.43614 0.91867 0.0
H1134 H 0.89579 0.4277 0.83866 0.0
C1135 C 0.73449 0.41934 0.91897 0.0
C1136 C 0.72302 0.41831 0.95139 0.0
C1137 C 0.7612 0.42133 0.97397 0.0
C1138 C 0.80992 0.42551 0.96448 0.0
C1139 C 0.81993 0.42651 0.93233 0.0
C1140 C 0.78359 0.42334 0.9099 0.0
C1141 C 0.80554 0.42428 0.87692 0.0
C1142 C 0.8039 0.41113 0.86019 0.0
C1143 C 0.77759 0.43464 0.85765 0.0
C1144 C 0.86006 0.42831 0.88437 0.0
C1145 C 0.86725 0.42977 0.91644 0.0
C1146 C 0.91484 0.43295 0.92918 0.0
C1147 C 0.95669 0.4342 0.90868 0.0
C1148 C 0.95074 0.43213 0.87587 0.0
C1149 C 0.90144 0.4295 0.86357 0.0
H1150 H 0.4758 0.45112 0.31792 0.0
H1151 H 0.56318 0.46448 0.39848 0.0
H1152 H 0.48421 0.4643 0.43085 0.0
H1153 H 0.35074 0.46812 0.33917 0.0
H1154 H 0.31405 0.45467 0.32458 0.0
H1155 H 0.37447 0.45875 0.30647 0.0
H1156 H 0.40652 0.43548 0.3159 0.0
H1157 H 0.34685 0.43137 0.33444 0.0
H1158 H 0.40632 0.42907 0.35536 0.0
H1159 H 0.40083 0.45796 0.45666 0.0
H1160 H 0.31891 0.44784 0.47251 0.0
H1161 H 0.28572 0.43929 0.37453 0.0
C1162 C 0.47791 0.4545 0.34205 0.0
C1163 C 0.52544 0.45786 0.35572 0.0
C1164 C 0.52698 0.46204 0.38746 0.0
C1165 C 0.48231 0.46193 0.40603 0.0
C1166 C 0.43642 0.45788 0.39224 0.0
C1167 C 0.43375 0.45454 0.3607 0.0
C1168 C 0.38149 0.44922 0.35221 0.0
C1169 C 0.35353 0.45823 0.32925 0.0
C1170 C 0.38559 0.43548 0.33871 0.0
C1171 C 0.35614 0.4493 0.38426 0.0
C1172 C 0.38802 0.45449 0.40702 0.0
C1173 C 0.37499 0.45422 0.43891 0.0
C1174 C 0.32852 0.44839 0.44772 0.0
C1175 C 0.29576 0.44289 0.42471 0.0
C1176 C 0.30943 0.44365 0.39259 0.0
H1177 H 0.8335 0.80894 0.35843 0.0
H1178 H 0.85648 0.7941 0.26384 0.0
H1179 H 0.94659 0.78893 0.27693 0.0
H1180 H 0.95516 0.82437 0.36402 0.0
H1181 H 0.9634 0.82096 0.40535 0.0
H1182 H 0.89988 0.82253 0.38918 0.0
H1183 H 0.87661 0.79992 0.41047 0.0
H1184 H 0.94027 0.79824 0.4265 0.0
H1185 H 0.91564 0.78629 0.39965 0.0
H1186 H 0.0343 0.78545 0.30037 0.0
H1187 H 0.1157 0.78628 0.33026 0.0
H1188 H 0.03646 0.80456 0.40838 0.0
C1189 C 0.85744 0.80452 0.34057 0.0
C1190 C 0.83807 0.80184 0.31019 0.0
C1191 C 0.87069 0.79624 0.28726 0.0
C1192 C 0.92176 0.79319 0.29454 0.0
C1193 C 0.9397 0.79593 0.32475 0.0
C1194 C 0.90873 0.80163 0.34727 0.0
C1195 C 0.93835 0.80441 0.37721 0.0
C1196 C 0.93926 0.81893 0.38434 0.0
C1197 C 0.9164 0.79675 0.4051 0.0
C1198 C 0.99093 0.79951 0.36791 0.0
C1199 C 0.99071 0.79443 0.33778 0.0
C1200 C 0.03496 0.7894 0.32399 0.0
C1201 C 0.08094 0.78986 0.34118 0.0
C1202 C 0.08236 0.7955 0.37157 0.0
C1203 C 0.03654 0.8002 0.38518 0.0
H1204 H 0.82703 0.1592 0.12261 0.0
H1205 H 0.84363 0.19661 0.16668 0.0
H1206 H 0.76408 0.20399 0.13996 0.0
H1207 H 0.77991 0.17133 0.04686 0.0
H1208 H 0.73753 0.1578 0.04136 0.0
H1209 H 0.79634 0.15586 0.06316 0.0
H1210 H 0.7449 0.14707 0.11077 0.0
H1211 H 0.68599 0.14902 0.08922 0.0
H1212 H 0.69357 0.15659 0.1272 0.0
H1213 H 0.67671 0.20608 0.11308 0.0
H1214 H 0.595 0.20362 0.08362 0.0
H1215 H 0.64211 0.16554 0.05352 0.0
C1216 C 0.81412 0.16899 0.12639 0.0
C1217 C 0.84086 0.17735 0.14677 0.0
C1218 C 0.82343 0.19012 0.15101 0.0
C1219 C 0.77836 0.19435 0.13602 0.0
C1220 C 0.75232 0.18576 0.11636 0.0
C1221 C 0.77028 0.17343 0.11104 0.0
C1222 C 0.73572 0.16603 0.0889 0.0
C1223 C 0.76407 0.16256 0.05825 0.0
C1224 C 0.71375 0.15397 0.105 0.0
C1225 C 0.69456 0.17598 0.08316 0.0
C1226 C 0.7044 0.18728 0.09936 0.0
C1227 C 0.66924 0.1974 0.09972 0.0
C1228 C 0.62298 0.19592 0.08307 0.0
C1229 C 0.61298 0.1845 0.06591 0.0
C1230 C 0.6495 0.17451 0.06577 0.0
H1231 H 0.19248 0.55252 0.0624 0.0
H1232 H 0.261 0.54234 0.15219 0.0
H1233 H 0.17534 0.54306 0.17716 0.0
H1234 H 0.10404 0.57489 0.09166 0.0
H1235 H 0.05304 0.57061 0.06492 0.0
H1236 H 0.11885 0.56822 0.05346 0.0
H1237 H 0.10071 0.54411 0.04257 0.0
H1238 H 0.03462 0.54645 0.05367 0.0
H1239 H 0.07261 0.53434 0.07309 0.0
H1240 H 0.08353 0.54678 0.19316 0.0
H1241 H 0.99127 0.55172 0.19841 0.0
H1242 H 0.98253 0.5591 0.0979 0.0
C1243 C 0.18942 0.55022 0.08721 0.0
C1244 C 0.23343 0.54735 0.10536 0.0
C1245 C 0.22779 0.54449 0.13779 0.0
C1246 C 0.17932 0.54491 0.15219 0.0
C1247 C 0.13691 0.54809 0.13376 0.0
C1248 C 0.1414 0.55054 0.10189 0.0
C1249 C 0.09012 0.55413 0.08757 0.0
C1250 C 0.09163 0.56777 0.07359 0.0
C1251 C 0.07354 0.54416 0.06276 0.0
C1252 C 0.0562 0.55357 0.1165 0.0
C1253 C 0.08392 0.55006 0.14289 0.0
C1254 C 0.06133 0.54939 0.17259 0.0
C1255 C 0.00895 0.55228 0.17535 0.0
C1256 C 0.97966 0.55576 0.14856 0.0
C1257 C 0.00379 0.55639 0.11878 0.0
H1258 H 0.60499 0.5309 0.55145 0.0
H1259 H 0.71571 0.52375 0.62578 0.0
H1260 H 0.64819 0.5272 0.66565 0.0
H1261 H 0.54086 0.55584 0.58746 0.0
H1262 H 0.47731 0.55144 0.57463 0.0
H1263 H 0.53221 0.54679 0.55155 0.0
H1264 H 0.50495 0.52286 0.55466 0.0
H1265 H 0.44931 0.52745 0.57729 0.0
H1266 H 0.49337 0.51565 0.5926 0.0
H1267 H 0.57311 0.53488 0.69709 0.0
H1268 H 0.49121 0.54309 0.71846 0.0
H1269 H 0.42728 0.54394 0.6241 0.0
C1270 C 0.61467 0.52969 0.57608 0.0
C1271 C 0.66558 0.52705 0.58553 0.0
C1272 C 0.67689 0.52567 0.61799 0.0
C1273 C 0.63884 0.52767 0.64083 0.0
C1274 C 0.58953 0.5308 0.63077 0.0
C1275 C 0.57698 0.53148 0.59917 0.0
C1276 C 0.52157 0.53551 0.5947 0.0
C1277 C 0.51781 0.54814 0.57598 0.0
C1278 C 0.49046 0.52472 0.57888 0.0
C1279 C 0.50549 0.53741 0.62868 0.0
C1280 C 0.54538 0.53469 0.64909 0.0
C1281 C 0.54121 0.53675 0.68144 0.0
C1282 C 0.49477 0.54152 0.6933 0.0
C1283 C 0.453 0.54403 0.67291 0.0
C1284 C 0.45843 0.54189 0.64022 0.0
H1285 H 0.95634 0.19099 0.59752 0.0
H1286 H 0.98782 0.19805 0.49861 0.0
H1287 H 0.07847 0.2025 0.51143 0.0
H1288 H 0.04793 0.2149 0.63035 0.0
H1289 H 0.06619 0.20447 0.66231 0.0
H1290 H 0.00231 0.20359 0.64616 0.0
H1291 H 0.01442 0.17922 0.63551 0.0
H1292 H 0.07811 0.18002 0.65169 0.0
H1293 H 0.06844 0.17387 0.61237 0.0
H1294 H 0.1661 0.20425 0.5338 0.0
H1295 H 0.24654 0.20181 0.56361 0.0
H1296 H 0.1594 0.19316 0.64816 0.0
C1297 C 0.98214 0.19373 0.57868 0.0
C1298 C 0.96512 0.19427 0.5471 0.0
C1299 C 0.00013 0.19761 0.52297 0.0
C1300 C 0.05157 0.20023 0.53005 0.0
C1301 C 0.06732 0.19947 0.56136 0.0
C1302 C 0.03377 0.19625 0.5853 0.0
C1303 C 0.06161 0.19485 0.61646 0.0
C1304 C 0.04342 0.20506 0.64022 0.0
C1305 C 0.05528 0.18118 0.62977 0.0
C1306 C 0.11631 0.19737 0.60607 0.0
C1307 C 0.1185 0.20026 0.57431 0.0
C1308 C 0.16489 0.20216 0.55876 0.0
C1309 C 0.21038 0.20073 0.57591 0.0
C1310 C 0.2092 0.19733 0.60823 0.0
C1311 C 0.16146 0.19595 0.62363 0.0
H1312 H 0.98686 0.19191 0.2707 0.0
H1313 H 0.13914 0.17637 0.28595 0.0
H1314 H 0.15793 0.19426 0.32315 0.0
H1315 H 0.01834 0.22435 0.27078 0.0
H1316 H 0.9613 0.22944 0.29136 0.0
H1317 H 0.96022 0.21501 0.26803 0.0
H1318 H 0.92906 0.20219 0.31675 0.0
H1319 H 0.93087 0.21659 0.34042 0.0
H1320 H 0.96624 0.20256 0.35258 0.0
H1321 H 0.16274 0.21544 0.35267 0.0
H1322 H 0.15299 0.23772 0.37249 0.0
H1323 H 0.99433 0.23783 0.34196 0.0
C1324 C 0.02424 0.19229 0.28184 0.0
C1325 C 0.06209 0.183 0.27513 0.0
C1326 C 0.11001 0.18355 0.29067 0.0
C1327 C 0.12075 0.19359 0.31192 0.0
C1328 C 0.08244 0.20267 0.31796 0.0
C1329 C 0.03492 0.20197 0.30362 0.0
C1330 C 0.00076 0.21306 0.31311 0.0
C1331 C 0.98424 0.22093 0.2841 0.0
C1332 C 0.95397 0.20831 0.33184 0.0
C1333 C 0.03725 0.2205 0.33393 0.0
C1334 C 0.08411 0.21434 0.33667 0.0
C1335 C 0.12583 0.22019 0.35146 0.0
C1336 C 0.11996 0.23281 0.3627 0.0
C1337 C 0.0726 0.23934 0.35934 0.0
C1338 C 0.03036 0.23289 0.34588 0.0
H1339 H 0.29214 0.96767 0.28884 0.0
H1340 H 0.13614 0.97263 0.32293 0.0
H1341 H 0.14024 -0.0043 0.30936 0.0
H1342 H 0.34071 -0.002 0.31706 0.0
H1343 H 0.38172 0.00034 0.28334 0.0
H1344 H 0.3663 0.9843 0.29619 0.0
H1345 H 0.33216 0.97891 0.2403 0.0
H1346 H 0.34698 -0.00503 0.22737 0.0
H1347 H 0.2827 -0.0112 0.22318 0.0
H1348 H 0.16115 0.01813 0.29129 0.0
H1349 H 0.19875 0.03852 0.27261 0.0
H1350 H 0.34075 0.01859 0.25027 0.0
C1351 C 0.25881 0.97359 0.29363 0.0
C1352 C 0.21377 0.96833 0.30692 0.0
C1353 C 0.17111 0.97644 0.31281 0.0
C1354 C 0.173 -0.01046 0.30509 0.0
C1355 C 0.2178 -0.00566 0.29159 0.0
C1356 C 0.26003 0.98663 0.28612 0.0
C1357 C 0.30368 -0.00587 0.27156 0.0
C1358 C 0.35087 -0.0058 0.29335 0.0
C1359 C 0.31714 -0.01111 0.23865 0.0
C1360 C 0.27936 0.00729 0.26959 0.0
C1361 C 0.22981 0.00722 0.2812 0.0
C1362 C 0.19991 0.01831 0.28214 0.0
C1363 C 0.2216 0.02983 0.27141 0.0
C1364 C 0.27268 0.03015 0.25992 0.0
C1365 C 0.30152 0.01867 0.25872 0.0
H1366 H 0.99648 0.00647 0.96668 0.0
H1367 H 0.83313 0.01097 0.98391 0.0
H1368 H 0.82165 -0.0125 0.97928 0.0
H1369 H 0.98668 0.97991 0.91034 0.0
H1370 H 0.04302 0.97196 0.92538 0.0
H1371 H 0.03786 -0.01077 0.92761 0.0
H1372 H 0.05281 -0.01168 0.98798 0.0
H1373 H 0.05811 0.97109 0.98591 0.0
H1374 H 0.01179 0.97838 0.01195 0.0
H1375 H 0.82845 0.96354 0.97552 0.0
H1376 H 0.8538 0.94065 0.97485 0.0
H1377 H 0.01267 0.95191 0.96057 0.0
C1378 C 0.95819 0.00255 0.9691 0.0
C1379 C 0.91571 0.01055 0.97555 0.0
C1380 C 0.86631 0.00502 0.97896 0.0
C1381 C 0.85931 -0.00829 0.97624 0.0
C1382 C 0.90206 0.98408 0.97009 0.0
C1383 C 0.95054 -0.01071 0.96662 0.0
C1384 C 0.99051 0.97891 0.96193 0.0
C1385 C 0.01601 0.98008 0.92937 0.0
C1386 C 0.03065 0.97919 0.98853 0.0
C1387 C 0.957 0.96706 0.96386 0.0
C1388 C 0.90605 0.97025 0.96824 0.0
C1389 C 0.86818 0.9609 0.97185 0.0
C1390 C 0.88296 0.94794 0.97143 0.0
C1391 C 0.93519 0.94448 0.96763 0.0
C1392 C 0.97239 0.95421 0.96335 0.0
H1393 H 0.26896 0.20789 0.00902 0.0
H1394 H 0.42593 0.22067 0.02355 0.0
H1395 H 0.39813 0.24321 0.0163 0.0
H1396 H 0.23798 0.23023 0.94847 0.0
H1397 H 0.17289 0.23257 0.96166 0.0
H1398 H 0.20483 0.21751 0.96887 0.0
H1399 H 0.187 0.21975 0.02876 0.0
H1400 H 0.15442 0.23474 0.0217 0.0
H1401 H 0.20713 0.23412 0.04916 0.0
H1402 H 0.35293 0.26428 0.0071 0.0
H1403 H 0.29331 0.2824 -0.00109 0.0
H1404 H 0.1668 0.25547 0.98924 0.0
C1405 C 0.29758 0.21541 0.01098 0.0
C1406 C 0.34963 0.21253 0.01694 0.0
C1407 C 0.3858 0.22266 0.01907 0.0
C1408 C 0.37043 0.23548 0.01488 0.0
C1409 C 0.3189 0.23793 0.00849 0.0
C1410 C 0.28303 0.22818 0.00669 0.0
C1411 C 0.23009 0.23331 -0.00058 0.0
C1412 C 0.21031 0.2281 0.96772 0.0
C1413 C 0.19246 0.23031 0.02637 0.0
C1414 C 0.24166 0.24752 -0.00245 0.0
C1415 C 0.29308 0.25 0.00278 0.0
C1416 C 0.31261 0.26246 0.00291 0.0
C1417 C 0.27844 0.27268 -0.00182 0.0
C1418 C 0.2254 0.27035 0.99334 0.0
C1419 C 0.20715 0.25757 0.99255 0.0
H1420 H 0.95201 0.70456 0.67946 0.0
H1421 H 0.11162 0.69374 0.66646 0.0
H1422 H 0.13752 0.71631 0.67521 0.0
H1423 H 0.96098 0.73685 0.64312 0.0
H1424 H 0.91728 0.74373 0.67145 0.0
H1425 H 0.91105 0.72708 0.66017 0.0
H1426 H 0.91719 0.72042 0.71888 0.0
H1427 H 0.924 0.737 0.73032 0.0
H1428 H 0.97193 0.72543 0.74181 0.0
H1429 H 0.14662 0.73944 0.69103 0.0
H1430 H 0.13816 0.76168 0.71071 0.0
H1431 H 0.97246 0.75727 0.71345 0.0
C1432 C 0.99234 0.70696 0.67768 0.0
C1433 C 0.02977 0.69738 0.67218 0.0
C1434 C 0.08221 0.70092 0.67053 0.0
C1435 C 0.09731 0.71371 0.67545 0.0
C1436 C 0.05949 0.72283 0.68178 0.0
C1437 C 0.00804 0.71964 0.68261 0.0
C1438 C 0.97528 0.73104 0.69201 0.0
C1439 C 0.93901 0.7349 0.66507 0.0
C1440 C 0.94537 0.7283 0.72256 0.0
C1441 C 0.01647 0.74107 0.69719 0.0
C1442 C 0.06473 0.73617 0.69093 0.0
C1443 C 0.10899 0.74343 0.69559 0.0
C1444 C 0.10376 0.75604 0.70693 0.0
C1445 C 0.05462 0.76123 0.71357 0.0
C1446 C 0.01052 0.75363 0.70837 0.0
H1447 H 0.70778 0.96011 0.72232 0.0
H1448 H 0.54294 0.96161 0.73693 0.0
H1449 H 0.53732 0.9802 0.70109 0.0
H1450 H 0.72911 -0.00736 0.72483 0.0
H1451 H 0.77804 -0.00709 0.6948 0.0
H1452 H 0.76779 0.97857 0.71747 0.0
H1453 H 0.75415 0.96561 0.66588 0.0
H1454 H 0.76373 0.98 0.64295 0.0
H1455 H 0.70589 0.97069 0.63817 0.0
H1456 H 0.55099 0.00023 0.66998 0.0
H1457 H 0.58333 0.02052 0.64747 0.0
H1458 H 0.73892 0.00572 0.65224 0.0
C1459 C 0.67035 0.9642 0.7176 0.0
C1460 C 0.62586 0.95941 0.73253 0.0
C1461 C 0.57766 0.96512 0.72586 0.0
C1462 C 0.57398 0.97562 0.70533 0.0
C1463 C 0.61873 0.98023 0.69143 0.0
C1464 C 0.66598 0.97466 0.69714 0.0
C1465 C 0.7088 0.98215 0.68162 0.0
C1466 C 0.74821 0.98685 0.70614 0.0
C1467 C 0.73465 0.97413 0.6556 0.0
C1468 C 0.67857 -0.0068 0.66778 0.0
C1469 C 0.62657 -0.00821 0.67312 0.0
C1470 C 0.59151 0.00135 0.66513 0.0
C1471 C 0.61028 0.01285 0.65235 0.0
C1472 C 0.66369 0.01472 0.64806 0.0
C1473 C 0.69784 0.00454 0.65479 0.0
H1474 H 0.71649 0.76546 0.91066 0.0
H1475 H 0.865 0.78414 0.9042 0.0
H1476 H 0.90736 0.76373 0.91814 0.0
H1477 H 0.73971 0.74971 0.97708 0.0
H1478 H 0.70589 0.73504 0.96798 0.0
H1479 H 0.6873 0.74981 0.94934 0.0
H1480 H 0.70012 0.73964 0.89412 0.0
H1481 H 0.71751 0.72465 0.91255 0.0
H1482 H 0.76031 0.73202 0.88453 0.0
H1483 H 0.93193 0.74303 0.94358 0.0
H1484 H 0.93735 0.72282 0.97391 0.0
H1485 H 0.77262 0.71783 0.96444 0.0
C1486 C 0.75802 0.76512 0.91064 0.0
C1487 C 0.78744 0.77637 0.90623 0.0
C1488 C 0.84169 0.77561 0.90735 0.0
C1489 C 0.86613 0.76406 0.91526 0.0
C1490 C 0.83578 0.75334 0.92164 0.0
C1491 C 0.7829 0.75369 0.91877 0.0
C1492 C 0.75865 0.74143 0.93086 0.0
C1493 C 0.72069 0.74418 0.95791 0.0
C1494 C 0.73262 0.73399 0.9039 0.0
C1495 C 0.80582 0.73446 0.94255 0.0
C1496 C 0.85002 0.74137 0.93658 0.0
C1497 C 0.89774 0.73737 0.9477 0.0
C1498 C 0.90037 0.72595 0.96517 0.0
C1499 C 0.85545 0.71873 0.97151 0.0
C1500 C 0.80777 0.72305 0.95976 0.0
H1501 H 0.16526 0.5147 0.77434 0.0
H1502 H 0.32816 0.51461 0.75257 0.0
H1503 H 0.33571 0.49274 0.77428 0.0
H1504 H 0.17423 0.49629 0.84779 0.0
H1505 H 0.11555 0.48765 0.84019 0.0
H1506 H 0.12363 0.50375 0.82537 0.0
H1507 H 0.10458 0.49574 0.76861 0.0
H1508 H 0.09592 0.47968 0.78332 0.0
H1509 H 0.14187 0.48269 0.75244 0.0
H1510 H 0.32456 0.47038 0.79491 0.0
H1511 H 0.29401 0.44873 0.80976 0.0
H1512 H 0.13899 0.46367 0.8186 0.0
C1513 C 0.2026 0.51013 0.77435 0.0
C1514 C 0.24606 0.51638 0.76178 0.0
C1515 C 0.29422 0.51002 0.76207 0.0
C1516 C 0.29905 0.49763 0.77454 0.0
C1517 C 0.25545 0.49176 0.7868 0.0
C1518 C 0.20814 0.49778 0.78673 0.0
C1519 C 0.16666 0.48906 0.7994 0.0
C1520 C 0.14368 0.49451 0.83001 0.0
C1521 C 0.12482 0.48665 0.77445 0.0
C1522 C 0.19779 0.47706 0.8057 0.0
C1523 C 0.24905 0.47886 0.79875 0.0
C1524 C 0.28461 0.46888 0.80081 0.0
C1525 C 0.26692 0.45663 0.80932 0.0
C1526 C 0.21414 0.45451 0.81536 0.0
C1527 C 0.17964 0.46498 0.81439 0.0
H1528 H 0.06742 0.45546 0.44034 0.0
H1529 H 0.93328 0.43099 0.43031 0.0
H1530 H 0.87743 0.44949 0.44278 0.0
H1531 H 0.02588 0.47212 0.50559 0.0
H1532 H 0.05214 0.48748 0.49427 0.0
H1533 H 0.08139 0.47287 0.48028 0.0
H1534 H 0.07065 0.48034 0.4224 0.0
H1535 H 0.04235 0.49513 0.43622 0.0
H1536 H 0.0082 0.48515 0.40847 0.0
H1537 H 0.83722 0.47 0.46321 0.0
H1538 H 0.81543 0.49161 0.48386 0.0
H1539 H 0.97644 0.50226 0.47996 0.0
C1540 C 0.02626 0.45403 0.43991 0.0
C1541 C 0.00479 0.44177 0.43439 0.0
C1542 C 0.95068 0.44032 0.43431 0.0
C1543 C 0.9186 0.45075 0.44151 0.0
C1544 C 0.94126 0.46256 0.44833 0.0
C1545 C 0.99381 0.46431 0.44697 0.0
C1546 C 0.00892 0.47775 0.45685 0.0
C1547 C 0.04414 0.47753 0.48598 0.0
C1548 C 0.03399 0.48502 0.42934 0.0
C1549 C 0.95679 0.48321 0.46476 0.0
C1550 C 0.91816 0.47435 0.45971 0.0
C1551 C 0.86707 0.47709 0.4668 0.0
C1552 C 0.85513 0.48933 0.47876 0.0
C1553 C 0.8942 0.49862 0.48338 0.0
C1554 C 0.94561 0.49542 0.47644 0.0
H1555 H 0.2397 0.71209 0.50568 0.0
H1556 H 0.39121 0.70923 0.54764 0.0
H1557 H 0.40845 0.73183 0.53347 0.0
H1558 H 0.27702 0.73017 0.44017 0.0
H1559 H 0.22005 0.73998 0.43886 0.0
H1560 H 0.21711 0.72403 0.45517 0.0
H1561 H 0.1806 0.73314 0.50748 0.0
H1562 H 0.18259 0.74911 0.49116 0.0
H1563 H 0.21481 0.74575 0.5278 0.0
H1564 H 0.41108 0.75427 0.51204 0.0
H1565 H 0.39767 0.7753 0.48645 0.0
H1566 H 0.24556 0.76312 0.45701 0.0
C1567 C 0.27604 0.7163 0.51255 0.0
C1568 C 0.31401 0.70894 0.52791 0.0
C1569 C 0.36152 0.71472 0.53592 0.0
C1570 C 0.37169 0.72754 0.52797 0.0
C1571 C 0.33401 0.7344 0.51197 0.0
C1572 C 0.28702 0.72903 0.50453 0.0
C1573 C 0.25414 0.73827 0.48586 0.0
C1574 C 0.24136 0.73278 0.45308 0.0
C1575 C 0.20514 0.74178 0.50418 0.0
C1576 C 0.29028 0.7496 0.48358 0.0
C1577 C 0.33599 0.74722 0.49898 0.0
C1578 C 0.37536 0.75627 0.50002 0.0
C1579 C 0.36745 0.76817 0.48532 0.0
C1580 C 0.32069 0.77084 0.4696 0.0
C1581 C 0.28193 0.76135 0.46857 0.0
H1582 H 0.67086 0.47857 0.24048 0.0
H1583 H 0.81661 0.46252 0.21003 0.0
H1584 H 0.82078 0.47847 0.16727 0.0
H1585 H 0.62265 0.48715 0.16073 0.0
H1586 H 0.59379 0.50184 0.1748 0.0
H1587 H 0.59851 0.4881 0.20049 0.0
H1588 H 0.64724 0.50181 0.24204 0.0
H1589 H 0.64131 0.51557 0.21684 0.0
H1590 H 0.7038 0.51055 0.23024 0.0
H1591 H 0.81513 0.49758 0.13268 0.0
H1592 H 0.80459 0.51976 0.11316 0.0
H1593 H 0.66077 0.52295 0.16375 0.0
C1594 C 0.70343 0.47831 0.22464 0.0
C1595 C 0.74337 0.46927 0.22865 0.0
C1596 C 0.78548 0.46935 0.2075 0.0
C1597 C 0.78795 0.47828 0.18288 0.0
C1598 C 0.74775 0.48699 0.17945 0.0
C1599 C 0.7064 0.48712 0.19985 0.0
C1600 C 0.67097 0.49831 0.1931 0.0
C1601 C 0.61836 0.49356 0.18159 0.0
C1602 C 0.66558 0.50708 0.22226 0.0
C1603 C 0.70028 0.50485 0.16679 0.0
C1604 C 0.74386 0.49798 0.15875 0.0
C1605 C 0.78052 0.5029 0.13811 0.0
C1606 C 0.7741 0.51546 0.12695 0.0
C1607 C 0.73139 0.52292 0.13648 0.0
C1608 C 0.69269 0.51727 0.15514 0.0
H1609 H 0.6692 0.2275 0.48974 0.0
H1610 H 0.7864 0.22626 0.56222 0.0
H1611 H 0.80453 0.24924 0.55397 0.0
H1612 H 0.73566 0.24607 0.43796 0.0
H1613 H 0.68287 0.25569 0.42397 0.0
H1614 H 0.67113 0.23982 0.43917 0.0
H1615 H 0.60684 0.24895 0.48006 0.0
H1616 H 0.61722 0.26485 0.46439 0.0
H1617 H 0.62656 0.26185 0.50582 0.0
H1618 H 0.82084 0.27085 0.53189 0.0
H1619 H 0.82507 0.29127 0.50253 0.0
H1620 H 0.69661 0.27893 0.44467 0.0
C1621 C 0.6969 0.23225 0.50482 0.0
C1622 C 0.72617 0.22519 0.52676 0.0
C1623 C 0.76344 0.23157 0.54539 0.0
C1624 C 0.77411 0.2446 0.54084 0.0
C1625 C 0.74689 0.25114 0.51771 0.0
C1626 C 0.70819 0.24531 0.50048 0.0
C1627 C 0.68772 0.25432 0.47541 0.0
C1628 C 0.6948 0.24863 0.44218 0.0
C1629 C 0.63123 0.2577 0.48182 0.0
C1630 C 0.7223 0.26586 0.48057 0.0
C1631 C 0.75605 0.26381 0.50511 0.0
C1632 C 0.79392 0.27271 0.51303 0.0
C1633 C 0.79644 0.28421 0.49597 0.0
C1634 C 0.76112 0.28671 0.47139 0.0
C1635 C 0.72389 0.27734 0.46351 0.0
H1636 H 0.46025 0.27205 0.69563 0.0
H1637 H 0.62665 0.27006 0.69447 0.0
H1638 H 0.62225 0.25036 0.66211 0.0
H1639 H 0.43953 0.2397 0.70649 0.0
H1640 H 0.38297 0.23877 0.68214 0.0
H1641 H 0.39978 0.2537 0.70082 0.0
H1642 H 0.39926 0.26497 0.64631 0.0
H1643 H 0.38303 0.24996 0.62744 0.0
H1644 H 0.43897 0.25879 0.61496 0.0
H1645 H 0.59981 0.22957 0.63552 0.0
H1646 H 0.56113 0.20868 0.62123 0.0
H1647 H 0.40966 0.22449 0.63903 0.0
C1648 C 0.49581 0.26762 0.6881 0.0
C1649 C 0.54374 0.27262 0.69755 0.0
C1650 C 0.5894 0.26641 0.68754 0.0
C1651 C 0.58734 0.25527 0.6689 0.0
C1652 C 0.53939 0.25052 0.66023 0.0
C1653 C 0.49445 0.2565 0.66955 0.0
C1654 C 0.44787 0.24875 0.66005 0.0
C1655 C 0.41569 0.245 0.6891 0.0
C1656 C 0.41538 0.25605 0.63574 0.0
C1657 C 0.47367 0.23718 0.6453 0.0
C1658 C 0.52643 0.2385 0.64491 0.0
C1659 C 0.55851 0.22851 0.63516 0.0
C1660 C 0.53617 0.21668 0.62698 0.0
C1661 C 0.48236 0.21494 0.62903 0.0
C1662 C 0.45086 0.22553 0.63692 0.0
H1663 H 0.54628 0.00614 0.58965 0.0
H1664 H 0.39846 0.00026 0.63403 0.0
H1665 H 0.40874 0.97683 0.62857 0.0
H1666 H 0.53122 0.98573 0.53209 0.0
H1667 H 0.59493 0.97903 0.52988 0.0
H1668 H 0.58565 -0.0052 0.54615 0.0
H1669 H 0.62986 -0.01196 0.59831 0.0
H1670 H 0.64103 0.97232 0.58158 0.0
H1671 H 0.60794 0.97386 0.61867 0.0
H1672 H 0.4224 0.95556 0.60601 0.0
H1673 H 0.44263 0.93711 0.57171 0.0
H1674 H 0.58276 0.956 0.5417 0.0
C1675 C 0.51755 -0.00017 0.59969 0.0
C1676 C 0.47187 0.00489 0.61253 0.0
C1677 C 0.43389 -0.00351 0.62436 0.0
C1678 C 0.43955 0.98317 0.6215 0.0
C1679 C 0.48355 0.97844 0.6069 0.0
C1680 C 0.52258 0.98647 0.59677 0.0
C1681 C 0.5618 0.97909 0.57743 0.0
C1682 C 0.56873 0.98502 0.54445 0.0
C1683 C 0.6132 0.97828 0.59506 0.0
C1684 C 0.53607 0.96604 0.57577 0.0
C1685 C 0.49174 0.9658 0.59368 0.0
C1686 C 0.45784 0.95545 0.59272 0.0
C1687 C 0.4693 0.94509 0.57286 0.0
C1688 C 0.51428 0.94516 0.55418 0.0
C1689 C 0.54861 0.95563 0.55621 0.0
H1690 H 0.51611 0.76693 0.28863 0.0
H1691 H 0.67315 0.76569 0.32235 0.0
H1692 H 0.67616 0.74235 0.31168 0.0
H1693 H 0.47736 0.73344 0.31425 0.0
H1694 H 0.43999 0.73124 0.2789 0.0
H1695 H 0.44631 0.74704 0.29612 0.0
H1696 H 0.47995 0.75561 0.24269 0.0
H1697 H 0.47516 0.73984 0.22552 0.0
H1698 H 0.53562 0.74826 0.22497 0.0
H1699 H 0.66699 0.72022 0.28949 0.0
H1700 H 0.64456 0.70047 0.26017 0.0
H1701 H 0.49481 0.71659 0.23875 0.0
C1702 C 0.5503 0.76164 0.29514 0.0
C1703 C 0.59421 0.76805 0.30664 0.0
C1704 C 0.63895 0.7609 0.31379 0.0
C1705 C 0.64101 0.74766 0.30779 0.0
C1706 C 0.59801 0.74176 0.29469 0.0
C1707 C 0.55321 0.74847 0.28884 0.0
C1708 C 0.51476 0.7403 0.27111 0.0
C1709 C 0.46677 0.73786 0.29131 0.0
C1710 C 0.50059 0.74637 0.23919 0.0
C1711 C 0.54574 0.72814 0.26676 0.0
C1712 C 0.59327 0.72908 0.28098 0.0
C1713 C 0.62955 0.71928 0.27871 0.0
C1714 C 0.61658 0.70815 0.26182 0.0
C1715 C 0.568 0.707 0.24708 0.0
C1716 C 0.53232 0.71717 0.24966 0.0
H1717 H 0.42235 0.45574 0.0108 0.0
H1718 H 0.5812 0.4533 0.98019 0.0
H1719 H 0.59172 0.47649 0.98959 0.0
H1720 H 0.39673 0.48767 0.97723 0.0
H1721 H 0.35692 0.49257 0.00987 0.0
H1722 H 0.36061 0.47584 -0.00109 0.0
H1723 H 0.38788 0.4701 0.0559 0.0
H1724 H 0.38482 0.48682 0.06695 0.0
H1725 H 0.44319 0.47786 0.07299 0.0
H1726 H 0.58745 0.49939 0.00507 0.0
H1727 H 0.567 0.52131 0.0229 0.0
H1728 H 0.41067 0.50937 0.04343 0.0
C1729 C 0.45905 0.46013 0.0056 0.0
C1730 C 0.50093 0.45269 -0.00523 0.0
C1731 C 0.54855 0.45878 0.98857 0.0
C1732 C 0.55498 0.47196 0.99382 0.0
C1733 C 0.51343 0.47895 0.00519 0.0
C1734 C 0.46625 0.47333 0.01076 0.0
C1735 C 0.42842 0.48308 0.02375 0.0
C1736 C 0.38299 0.4849 0.00108 0.0
C1737 C 0.41001 0.47923 0.05686 0.0
C1738 C 0.46204 0.49498 0.02493 0.0
C1739 C 0.51088 0.49233 0.01408 0.0
C1740 C 0.54922 0.50163 0.01341 0.0
C1741 C 0.5372 0.51405 0.02372 0.0
C1742 C 0.48717 0.5171 0.03456 0.0
C1743 C 0.44924 0.50737 0.03528 0.0
H1744 H 0.10534 0.29549 0.24247 0.0
H1745 H 0.95471 0.27838 0.25353 0.0
H1746 H 0.94016 0.28037 0.19586 0.0
H1747 H 0.06834 0.31859 0.18203 0.0
H1748 H 0.12907 0.3172 0.16197 0.0
H1749 H 0.12564 0.31483 0.20396 0.0
H1750 H 0.16774 0.29236 0.19752 0.0
H1751 H 0.17113 0.29464 0.15557 0.0
H1752 H 0.13889 0.28074 0.17137 0.0
H1753 H 0.94695 0.28254 0.13576 0.0
H1754 H 0.97132 0.28624 0.07999 0.0
H1755 H 0.11528 0.30303 0.11091 0.0
C1756 C 0.06913 0.29222 0.2328 0.0
C1757 C 0.03128 0.28668 0.25219 0.0
C1758 C 0.98412 0.28267 0.23888 0.0
C1759 C 0.97563 0.28374 0.20625 0.0
C1760 C 0.01432 0.28909 0.18766 0.0
C1761 C 0.05977 0.29345 0.20067 0.0
C1762 C 0.0956 0.29876 0.176 0.0
C1763 C 0.1052 0.3132 0.18131 0.0
C1764 C 0.14631 0.29117 0.17507 0.0
C1765 C 0.06394 0.29643 0.14682 0.0
C1766 C 0.0172 0.29083 0.1538 0.0
C1767 C 0.98309 0.28711 0.13011 0.0
C1768 C 0.99729 0.28921 0.09855 0.0
C1769 C 0.04492 0.29504 0.09117 0.0
C1770 C 0.0782 0.29875 0.11575 0.0
H1771 H 0.1107 0.90883 0.07937 0.0
H1772 H 0.95044 0.89955 0.09588 0.0
H1773 H 0.96488 0.90119 0.15327 0.0
H1774 H 0.16191 0.8914 0.14737 0.0
H1775 H 0.21048 0.90335 0.15494 0.0
H1776 H 0.18813 0.90065 0.11529 0.0
H1777 H 0.1652 0.92482 0.11039 0.0
H1778 H 0.18722 0.9276 0.15002 0.0
H1779 H 0.12288 0.93207 0.13899 0.0
H1780 H 0.99494 0.90575 0.20832 0.0
H1781 H 0.03981 0.91165 0.25755 0.0
H1782 H 0.18104 0.91712 0.205 0.0
C1783 C 0.07869 0.907 0.09502 0.0
C1784 C 0.02938 0.90409 0.08314 0.0
C1785 C 0.98858 0.90176 0.10444 0.0
C1786 C 0.99639 0.90267 0.13707 0.0
C1787 C 0.0453 0.90577 0.14793 0.0
C1788 C 0.08589 0.90776 0.12757 0.0
C1789 C 0.13434 0.91131 0.14521 0.0
C1790 C 0.17618 0.90106 0.14042 0.0
C1791 C 0.15351 0.92475 0.13558 0.0
C1792 C 0.1144 0.91127 0.17867 0.0
C1793 C 0.06295 0.90806 0.17974 0.0
C1794 C 0.03538 0.90811 0.20785 0.0
C1795 C 0.06111 0.91152 0.23563 0.0
C1796 C 0.11391 0.91475 0.23505 0.0
C1797 C 0.14085 0.91451 0.2062 0.0
H1798 H 0.88935 0.65417 0.78737 0.0
H1799 H 0.05373 0.64744 0.78666 0.0
H1800 H 0.05377 0.64686 0.84485 0.0
H1801 H 0.88694 0.67538 0.84878 0.0
H1802 H 0.8276 0.66982 0.86581 0.0
H1803 H 0.83932 0.66765 0.82443 0.0
H1804 H 0.82398 0.64312 0.83021 0.0
H1805 H 0.81222 0.64523 0.87178 0.0
H1806 H 0.86078 0.63411 0.85857 0.0
H1807 H 0.03822 0.65065 0.90232 0.0
H1808 H 0.00776 0.65789 0.95458 0.0
H1809 H 0.85301 0.66106 0.9178 0.0
C1810 C 0.92522 0.6523 0.79941 0.0
C1811 C 0.97155 0.65088 0.78253 0.0
C1812 C 0.01772 0.64851 0.79914 0.0
C1813 C 0.01809 0.64812 0.83217 0.0
C1814 C 0.97186 0.64987 0.84813 0.0
C1815 C 0.92615 0.65174 0.83227 0.0
C1816 C 0.88248 0.65444 0.85481 0.0
C1817 C 0.85768 0.6676 0.84805 0.0
C1818 C 0.84251 0.64357 0.85378 0.0
C1819 C 0.91124 0.65448 0.88575 0.0
C1820 C 0.96264 0.65165 0.88149 0.0
C1821 C -0.00214 0.65254 0.90611 0.0
C1822 C 0.98027 0.6567 0.93565 0.0
C1823 C 0.92797 0.65988 0.94025 0.0
C1824 C 0.89294 0.65837 0.91518 0.0
H1825 H 0.84386 0.05499 0.74266 0.0
H1826 H 0.68571 0.06767 0.75156 0.0
H1827 H 0.69883 0.07123 0.80852 0.0
H1828 H 0.85001 0.03782 0.81381 0.0
H1829 H 0.91512 0.04238 0.8228 0.0
H1830 H 0.89412 0.04163 0.78245 0.0
H1831 H 0.92241 0.0653 0.77426 0.0
H1832 H 0.94342 0.06613 0.81468 0.0
H1833 H 0.89766 0.07766 0.79998 0.0
H1834 H 0.72704 0.07167 0.86507 0.0
H1835 H 0.76907 0.0694 0.91696 0.0
H1836 H 0.90955 0.05728 0.87061 0.0
C1837 C 0.81204 0.05861 0.7565 0.0
C1838 C 0.76372 0.06102 0.74265 0.0
C1839 C 0.72313 0.06578 0.76162 0.0
C1840 C 0.7302 0.06785 0.79399 0.0
C1841 C 0.77823 0.06527 0.80692 0.0
C1842 C 0.81856 0.06085 0.78873 0.0
C1843 C 0.86586 0.05844 0.80853 0.0
C1844 C 0.8822 0.04423 0.80679 0.0
C1845 C 0.90994 0.06742 0.79878 0.0
C1846 C 0.84544 0.0619 0.84083 0.0
C1847 C 0.79488 0.06586 0.8394 0.0
C1848 C 0.76685 0.06876 0.86646 0.0
C1849 C 0.79099 0.06742 0.8958 0.0
C1850 C 0.84267 0.06328 0.89777 0.0
C1851 C 0.87032 0.0607 0.86983 0.0
H1852 H 0.16414 0.8249 0.66631 0.0
H1853 H 0.00364 0.8195 0.64272 0.0
H1854 H 0.02246 0.825 0.58736 0.0
H1855 H 0.19113 0.85127 0.60575 0.0
H1856 H 0.25423 0.84478 0.59865 0.0
H1857 H 0.22595 0.84367 0.63735 0.0
H1858 H 0.23957 0.81897 0.63654 0.0
H1859 H 0.26736 0.81997 0.59797 0.0
H1860 H 0.21292 0.80962 0.60464 0.0
H1861 H 0.06159 0.82594 0.53375 0.0
H1862 H 0.11702 0.82318 0.48705 0.0
H1863 H 0.25165 0.82865 0.54569 0.0
C1864 C 0.13261 0.82533 0.64972 0.0
C1865 C 0.0825 0.82176 0.65876 0.0
C1866 C 0.04231 0.82229 0.63635 0.0
C1867 C 0.05263 0.82543 0.60485 0.0
C1868 C 0.10307 0.82828 0.59636 0.0
C1869 C 0.14225 0.82851 0.61834 0.0
C1870 C 0.19403 0.83021 0.6028 0.0
C1871 C 0.21772 0.84326 0.61166 0.0
C1872 C 0.23054 0.81903 0.61096 0.0
C1873 C 0.17833 0.82991 0.56852 0.0
C1874 C 0.12563 0.82909 0.56522 0.0
C1875 C 0.10275 0.82698 0.53596 0.0
C1876 C 0.13457 0.82535 0.50958 0.0
C1877 C 0.18866 0.82579 0.51272 0.0
C1878 C 0.21046 0.82855 0.5424 0.0
H1879 H 0.17873 0.4153 0.69819 0.0
H1880 H 0.01634 0.41232 0.71949 0.0
H1881 H 0.99726 0.41004 0.66265 0.0
H1882 H 0.16235 0.4347 0.62883 0.0
H1883 H 0.21495 0.42735 0.60788 0.0
H1884 H 0.21595 0.42812 0.65028 0.0
H1885 H 0.22787 0.40339 0.65281 0.0
H1886 H 0.22678 0.40254 0.61041 0.0
H1887 H 0.18234 0.39306 0.63318 0.0
H1888 H 0.99643 0.40724 0.60404 0.0
H1889 H 0.0126 0.4065 0.54668 0.0
H1890 H 0.17476 0.41311 0.56337 0.0
C1891 C 0.13922 0.4141 0.69082 0.0
C1892 C 0.09894 0.41387 0.71303 0.0
C1893 C 0.04762 0.41252 0.70268 0.0
C1894 C 0.03648 0.41116 0.67055 0.0
C1895 C 0.07709 0.4114 0.6492 0.0
C1896 C 0.12734 0.41303 0.65883 0.0
C1897 C 0.16355 0.41361 0.63098 0.0
C1898 C 0.19079 0.42673 0.6294 0.0
C1899 C 0.20242 0.40249 0.63191 0.0
C1900 C 0.12581 0.41198 0.60419 0.0
C1901 C 0.07626 0.41053 0.61525 0.0
C1902 C 0.03497 0.40847 0.59504 0.0
C1903 C 0.04454 0.40801 0.56259 0.0
C1904 C 0.09481 0.40984 0.55075 0.0
C1905 C 0.13588 0.41184 0.57185 0.0
H1906 H 0.90376 0.16695 0.29193 0.0
H1907 H 0.85347 0.12724 0.29029 0.0
H1908 H 0.79561 0.13169 0.33575 0.0
H1909 H 0.91513 0.16835 0.37367 0.0
H1910 H 0.8973 0.18507 0.37636 0.0
H1911 H 0.92668 0.17899 0.34098 0.0
H1912 H 0.84885 0.18746 0.3085 0.0
H1913 H 0.81974 0.1934 0.34422 0.0
H1914 H 0.78491 0.18246 0.31907 0.0
H1915 H 0.74637 0.1406 0.3828 0.0
H1916 H 0.72068 0.1518 0.43188 0.0
H1917 H 0.81241 0.18479 0.40507 0.0
C1918 C 0.87934 0.15929 0.30058 0.0
C1919 C 0.88151 0.14687 0.28729 0.0
C1920 C 0.85125 0.13687 0.29999 0.0
C1921 C 0.81831 0.13935 0.3256 0.0
C1922 C 0.81735 0.15176 0.33836 0.0
C1923 C 0.84786 0.16149 0.32651 0.0
C1924 C 0.84599 0.17343 0.34687 0.0
C1925 C 0.89942 0.17664 0.36026 0.0
C1926 C 0.82351 0.18486 0.32857 0.0
C1927 C 0.80982 0.16893 0.37235 0.0
C1928 C 0.79257 0.15655 0.36665 0.0
C1929 C 0.75952 0.1503 0.38741 0.0
C1930 C 0.74495 0.15675 0.41509 0.0
C1931 C 0.7646 0.16914 0.42204 0.0
C1932 C 0.79673 0.17535 0.40016 0.0
H1933 H 0.85332 0.55263 0.39721 0.0
H1934 H 0.69745 0.54734 0.4309 0.0
H1935 H 0.66468 0.55164 0.37714 0.0
H1936 H 0.82744 0.57793 0.34073 0.0
H1937 H 0.873 0.57164 0.31268 0.0
H1938 H 0.88301 0.56921 0.35424 0.0
H1939 H 0.88839 0.54457 0.34496 0.0
H1940 H 0.87815 0.54691 0.30345 0.0
H1941 H 0.83622 0.53644 0.32538 0.0
H1942 H 0.64997 0.55592 0.31862 0.0
H1943 H 0.65506 0.55891 0.26073 0.0
H1944 H 0.82119 0.56038 0.26712 0.0
C1945 C 0.81219 0.55258 0.39353 0.0
C1946 C 0.77788 0.54976 0.41826 0.0
C1947 C 0.7244 0.54953 0.41224 0.0
C1948 C 0.70547 0.55198 0.38185 0.0
C1949 C 0.74061 0.55456 0.35789 0.0
C1950 C 0.79285 0.55483 0.36349 0.0
C1951 C 0.82304 0.55704 0.33367 0.0
C1952 C 0.85339 0.56971 0.33545 0.0
C1953 C 0.85851 0.54556 0.32645 0.0
C1954 C 0.77971 0.5579 0.31024 0.0
C1955 C 0.73235 0.55659 0.32452 0.0
C1956 C 0.68687 0.55698 0.30722 0.0
C1957 C 0.6901 0.55869 0.27443 0.0
C1958 C 0.7385 0.5598 0.25949 0.0
C1959 C 0.78361 0.55946 0.2778 0.0
H1960 H 0.75034 0.3367 0.54518 0.0
H1961 H 0.60446 0.34767 0.50431 0.0
H1962 H 0.56774 0.35005 0.55773 0.0
H1963 H 0.70058 0.31627 0.59704 0.0
H1964 H 0.74494 0.31917 0.62887 0.0
H1965 H 0.76435 0.32214 0.58898 0.0
H1966 H 0.78739 0.34569 0.60331 0.0
H1967 H 0.76845 0.34275 0.64355 0.0
H1968 H 0.74002 0.35583 0.62186 0.0
H1969 H 0.54294 0.34738 0.61367 0.0
H1970 H 0.52966 0.33851 0.66669 0.0
H1971 H 0.69049 0.32775 0.67103 0.0
C1972 C 0.71141 0.34022 0.54756 0.0
C1973 C 0.68042 0.34227 0.52078 0.0
C1974 C 0.62892 0.34624 0.52464 0.0
C1975 C 0.60791 0.34767 0.55488 0.0
C1976 C 0.63887 0.345 0.58088 0.0
C1977 C 0.68963 0.34136 0.57751 0.0
C1978 C 0.71192 0.3367 0.60841 0.0
C1979 C 0.73154 0.32275 0.60564 0.0
C1980 C 0.75446 0.34579 0.61997 0.0
C1981 C 0.665 0.33758 0.62928 0.0
C1982 C 0.6238 0.3428 0.61324 0.0
C1983 C 0.57513 0.3435 0.62665 0.0
C1984 C 0.56797 0.33838 0.65681 0.0
C1985 C 0.60906 0.33238 0.67303 0.0
C1986 C 0.65848 0.33238 0.6594 0.0
H1987 H 0.49674 0.89182 0.59058 0.0
H1988 H 0.65063 0.8796 0.56702 0.0
H1989 H 0.6665 0.8742 0.62269 0.0
H1990 H 0.52965 0.90977 0.64744 0.0
H1991 H 0.47681 0.90724 0.67417 0.0
H1992 H 0.46811 0.90445 0.63295 0.0
H1993 H 0.4387 0.8811 0.6439 0.0
H1994 H 0.4467 0.88387 0.68561 0.0
H1995 H 0.47882 0.87054 0.66682 0.0
H1996 H 0.67559 0.87664 0.67936 0.0
H1997 H 0.67933 0.88768 0.73053 0.0
H1998 H 0.52142 0.89994 0.71915 0.0
C1999 C 0.53246 0.8872 0.59703 0.0
C2000 C 0.57214 0.88584 0.57472 0.0
C2001 C 0.61955 0.88046 0.58386 0.0
C2002 C 0.62871 0.87733 0.61544 0.0
C2003 C 0.59024 0.87978 0.63756 0.0
C2004 C 0.54265 0.88451 0.62869 0.0
C2005 C 0.51284 0.88942 0.65696 0.0
C2006 C 0.49599 0.90355 0.6526 0.0
C2007 C 0.46653 0.88071 0.66372 0.0
C2008 C 0.55315 0.88807 0.68241 0.0
C2009 C 0.59642 0.88186 0.67111 0.0
C2010 C 0.64147 0.88118 0.68874 0.0
C2011 C 0.64334 0.88758 0.71777 0.0
C2012 C 0.60071 0.89477 0.72867 0.0
C2013 C 0.55431 0.89438 0.71157 0.0
H2014 H 0.42201 0.65491 0.43838 0.0
H2015 H 0.25813 0.65799 0.42143 0.0
H2016 H 0.27276 0.65447 0.36468 0.0
H2017 H 0.46109 0.67212 0.37373 0.0
H2018 H 0.51678 0.66244 0.36514 0.0
H2019 H 0.49264 0.66331 0.40474 0.0
H2020 H 0.48488 0.63845 0.40617 0.0
H2021 H 0.50886 0.63751 0.36637 0.0
H2022 H 0.44812 0.63027 0.37623 0.0
H2023 H 0.30597 0.65396 0.30956 0.0
H2024 H 0.35565 0.65634 0.26031 0.0
H2025 H 0.49721 0.65255 0.31326 0.0
C2026 C 0.38907 0.6546 0.42284 0.0
C2027 C 0.33897 0.65674 0.43436 0.0
C2028 C 0.29692 0.65634 0.41319 0.0
C2029 C 0.30478 0.65429 0.38091 0.0
C2030 C 0.35478 0.65244 0.37026 0.0
C2031 C 0.39618 0.65245 0.39063 0.0
C2032 C 0.44636 0.65132 0.37295 0.0
C2033 C 0.48123 0.66299 0.37952 0.0
C2034 C 0.47365 0.63863 0.38091 0.0
C2035 C 0.42686 0.65128 0.33939 0.0
C2036 C 0.37388 0.65177 0.33831 0.0
C2037 C 0.34739 0.65326 0.31002 0.0
C2038 C 0.37588 0.65463 0.2822 0.0
C2039 C 0.43018 0.65445 0.28297 0.0
C2040 C 0.45573 0.65235 0.31183 0.0
H2041 H 0.43062 0.03714 0.46982 0.0
H2042 H 0.47572 0.07428 0.50738 0.0
H2043 H 0.4748 0.08341 0.45365 0.0
H2044 H 0.50784 0.0399 0.39598 0.0
H2045 H 0.45996 0.03152 0.37316 0.0
H2046 H 0.46841 0.02778 0.41429 0.0
H2047 H 0.37197 0.03239 0.42413 0.0
H2048 H 0.36336 0.03629 0.3832 0.0
H2049 H 0.34573 0.04779 0.41314 0.0
H2050 H 0.4546 0.08918 0.39718 0.0
H2051 H 0.43013 0.09027 0.34063 0.0
H2052 H 0.40805 0.04897 0.33945 0.0
C2053 C 0.44144 0.04711 0.46655 0.0
C2054 C 0.4533 0.05502 0.49255 0.0
C2055 C 0.46709 0.06804 0.4876 0.0
C2056 C 0.46641 0.07332 0.45723 0.0
C2057 C 0.45324 0.06535 0.43209 0.0
C2058 C 0.4424 0.05243 0.43632 0.0
C2059 C 0.42872 0.04599 0.40547 0.0
C2060 C 0.46863 0.03569 0.39671 0.0
C2061 C 0.37421 0.04029 0.40657 0.0
C2062 C 0.43158 0.05739 0.38347 0.0
C2063 C 0.44536 0.06851 0.39923 0.0
C2064 C 0.44526 0.08048 0.38435 0.0
C2065 C 0.43112 0.08105 0.35242 0.0
C2066 C 0.41848 0.06968 0.33589 0.0
C2067 C 0.4191 0.05774 0.35154 0.0
H2068 H 0.72552 0.81027 0.04354 0.0
H2069 H 0.57317 0.80018 0.01016 0.0
H2070 H 0.54278 0.79877 0.06507 0.0
H2071 H 0.72386 0.78901 0.11207 0.0
H2072 H 0.7589 0.80022 0.13636 0.0
H2073 H 0.76906 0.79996 0.09437 0.0
H2074 H 0.74726 0.82427 0.09166 0.0
H2075 H 0.73671 0.82459 0.13358 0.0
H2076 H 0.68689 0.82991 0.10719 0.0
H2077 H 0.52733 0.8001 0.12327 0.0
H2078 H 0.52985 0.8023 0.18127 0.0
H2079 H 0.693 0.81055 0.17654 0.0
C2080 C 0.68589 0.80767 0.04779 0.0
C2081 C 0.6517 0.80537 0.0226 0.0
C2082 C 0.60014 0.80193 0.02911 0.0
C2083 C 0.58244 0.80114 0.0602 0.0
C2084 C 0.61694 0.80364 0.08447 0.0
C2085 C 0.66773 0.80666 0.07867 0.0
C2086 C 0.69683 0.80896 0.10899 0.0
C2087 C 0.73969 0.79894 0.11319 0.0
C2088 C 0.71816 0.82275 0.11043 0.0
C2089 C 0.65421 0.80701 0.13269 0.0
C2090 C 0.60838 0.80399 0.11808 0.0
C2091 C 0.56311 0.8023 0.13504 0.0
C2092 C 0.56486 0.80364 0.1679 0.0
C2093 C 0.61166 0.80652 0.18333 0.0
C2094 C 0.6568 0.80819 0.16541 0.0
H2095 H 0.48954 0.41364 0.10999 0.0
H2096 H 0.59484 0.3842 0.07799 0.0
H2097 H 0.628 0.38177 0.13208 0.0
H2098 H 0.57473 0.4295 0.15245 0.0
H2099 H 0.53388 0.43439 0.18461 0.0
H2100 H 0.50639 0.43095 0.14679 0.0
H2101 H 0.44591 0.41408 0.172 0.0
H2102 H 0.4731 0.41756 0.21018 0.0
H2103 H 0.47253 0.40128 0.19546 0.0
H2104 H 0.66369 0.3861 0.18423 0.0
H2105 H 0.70045 0.39709 0.23038 0.0
H2106 H 0.57388 0.42418 0.22985 0.0
C2107 C 0.51756 0.40622 0.11496 0.0
C2108 C 0.539 0.39888 0.09035 0.0
C2109 C 0.57753 0.38972 0.09691 0.0
C2110 C 0.59635 0.38824 0.12755 0.0
C2111 C 0.57638 0.39608 0.15125 0.0
C2112 C 0.53752 0.40485 0.14542 0.0
C2113 C 0.52983 0.41379 0.17329 0.0
C2114 C 0.53667 0.42799 0.16369 0.0
C2115 C 0.47721 0.41154 0.18865 0.0
C2116 C 0.57282 0.40929 0.19461 0.0
C2117 C 0.59813 0.39881 0.18188 0.0
C2118 C 0.64331 0.39405 0.19498 0.0
C2119 C 0.66407 0.40039 0.22115 0.0
C2120 C 0.63979 0.41141 0.23387 0.0
C2121 C 0.59262 0.41559 0.2211 0.0
H2122 H 0.35061 0.18048 0.76618 0.0
H2123 H 0.51277 0.18336 0.74409 0.0
H2124 H 0.53391 0.18143 0.80055 0.0
H2125 H 0.35464 0.19778 0.84172 0.0
H2126 H 0.30863 0.18721 0.85997 0.0
H2127 H 0.3061 0.19003 0.81812 0.0
H2128 H 0.31152 0.16546 0.80817 0.0
H2129 H 0.31486 0.16258 0.84995 0.0
H2130 H 0.36445 0.15647 0.82435 0.0
H2131 H 0.53791 0.17839 0.85855 0.0
H2132 H 0.52444 0.17479 0.9154 0.0
H2133 H 0.35991 0.17277 0.89985 0.0
C2134 C 0.39042 0.18101 0.7734 0.0
C2135 C 0.43011 0.18219 0.75097 0.0
C2136 C 0.48188 0.1825 0.76104 0.0
C2137 C 0.49425 0.1814 0.79299 0.0
C2138 C 0.45439 0.17989 0.81448 0.0
C2139 C 0.40353 0.17971 0.80522 0.0
C2140 C 0.36837 0.17726 0.833 0.0
C2141 C 0.33231 0.18876 0.83853 0.0
C2142 C 0.33802 0.16469 0.82859 0.0
C2143 C 0.40751 0.17605 0.85921 0.0
C2144 C 0.45684 0.17768 0.84799 0.0
C2145 C 0.49948 0.17711 0.86769 0.0
C2146 C 0.49144 0.17503 0.89989 0.0
C2147 C 0.44119 0.17343 0.91198 0.0
C2148 C 0.39881 0.17381 0.89124 0.0
H2149 H 0.31896 0.56529 0.96621 0.0
H2150 H 0.47059 0.58179 0.95332 0.0
H2151 H 0.44685 0.58834 0.89952 0.0
H2152 H 0.31006 0.55124 0.89468 0.0
H2153 H 0.24263 0.55418 0.88852 0.0
H2154 H 0.26753 0.55323 0.92787 0.0
H2155 H 0.23054 0.57584 0.94025 0.0
H2156 H 0.20558 0.57687 0.9007 0.0
H2157 H 0.24749 0.58927 0.91556 0.0
H2158 H 0.41381 0.58924 0.84511 0.0
H2159 H 0.37378 0.58425 0.79384 0.0
H2160 H 0.24215 0.56801 0.84182 0.0
C2161 C 0.34676 0.57058 0.95239 0.0
C2162 C 0.39665 0.57301 0.96396 0.0
C2163 C 0.43211 0.57982 0.94498 0.0
C2164 C 0.41885 0.58368 0.91446 0.0
C2165 C 0.36978 0.58083 0.90346 0.0
C2166 C 0.33408 0.57453 0.92194 0.0
C2167 C 0.28631 0.57121 0.90334 0.0
C2168 C 0.2761 0.55661 0.90361 0.0
C2169 C 0.23973 0.57875 0.9157 0.0
C2170 C 0.30211 0.57586 0.87101 0.0
C2171 C 0.34996 0.58164 0.87175 0.0
C2172 C 0.37572 0.58511 0.84429 0.0
C2173 C 0.35284 0.5822 0.81531 0.0
C2174 C 0.30469 0.57594 0.81412 0.0
C2175 C 0.27821 0.57319 0.84225 0.0
loop_
_geom_bond_atom_site_label_1
_geom_bond_atom_site_label_2
_geom_bond_distance
_geom_bond_site_symmetry_2
_ccdc_geom_bond_type
C0 O1 1.306 . S
C0 O3 1.160 . S
O1 C0 1.306 . S
O1 Cd2 2.228 1_455 S
Cd2 O1 2.228 1_655 S
Cd2 O6 2.273 1_655 S
Cd2 O10 2.277 1_655 S
O3 C0 1.160 . S
O3 Cd4 2.203 . S
Cd4 O3 2.203 . S
Cd4 O6 2.411 . S
Cd4 O7 2.333 . S
Cd4 O8 2.352 . S
Cd4 O12 2.277 . S
Cd4 O13 2.356 . S
C5 O10 1.209 . S
C5 O12 1.226 . S
O6 Cd2 2.273 1_455 S
O6 Cd4 2.411 . S
O6 C9 1.320 . S
O7 Cd4 2.333 . S
O7 C9 1.214 . S
O8 Cd4 2.352 . S
O8 C11 1.258 . S
C9 O6 1.320 . S
C9 O7 1.214 . S
O10 Cd2 2.277 1_455 S
O10 C5 1.209 . S
C11 O8 1.258 . S
C11 O13 1.282 . S
O12 Cd4 2.277 . S
O12 C5 1.226 . S
O13 Cd4 2.356 . S
O13 C11 1.282 . S
C14 O15 1.306 . S
C14 O17 1.160 . S
O15 C14 1.306 . S
O15 Cd16 2.228 . S
Cd16 O15 2.228 . S
Cd16 O20 2.273 . S
Cd16 O24 2.277 . S
O17 C14 1.160 . S
O17 Cd18 2.203 . S
Cd18 O17 2.203 . S
Cd18 O20 2.411 . S
Cd18 O21 2.333 . S
Cd18 O22 2.352 . S
Cd18 O26 2.277 . S
Cd18 O27 2.356 . S
C19 O24 1.209 . S
C19 O26 1.226 . S
O20 Cd16 2.273 . S
O20 Cd18 2.411 . S
O20 C23 1.320 . S
O21 Cd18 2.333 . S
O21 C23 1.214 . S
O22 Cd18 2.352 . S
O22 C25 1.258 . S
C23 O20 1.320 . S
C23 O21 1.214 . S
O24 Cd16 2.277 . S
O24 C19 1.209 . S
C25 O22 1.258 . S
C25 O27 1.282 . S
O26 Cd18 2.277 . S
O26 C19 1.226 . S
O27 Cd18 2.356 . S
O27 C25 1.282 . S
C28 O29 1.306 . S
C28 O31 1.160 . S
O29 C28 1.306 . S
O29 Cd30 2.228 1_455 S
Cd30 O29 2.228 1_655 S
Cd30 O34 2.273 1_655 S
Cd30 O38 2.277 1_656 S
O31 C28 1.160 . S
O31 Cd32 2.203 . S
Cd32 O31 2.203 . S
Cd32 O34 2.411 . S
Cd32 O35 2.333 . S
Cd32 O36 2.352 . S
Cd32 O40 2.277 1_556 S
Cd32 O41 2.356 . S
C33 O38 1.209 . S
C33 O40 1.226 . S
O34 Cd30 2.273 1_455 S
O34 Cd32 2.411 . S
O34 C37 1.320 . S
O35 Cd32 2.333 . S
O35 C37 1.214 . S
O36 Cd32 2.352 . S
O36 C39 1.258 . S
C37 O34 1.320 . S
C37 O35 1.214 . S
O38 Cd30 2.277 1_454 S
O38 C33 1.209 . S
C39 O36 1.258 . S
C39 O41 1.282 . S
O40 Cd32 2.277 1_554 S
O40 C33 1.226 . S
O41 Cd32 2.356 . S
O41 C39 1.282 . S
C42 O43 1.306 . S
C42 O45 1.160 . S
O43 C42 1.306 . S
O43 Cd44 2.228 . S
Cd44 O43 2.228 . S
Cd44 O48 2.273 . S
Cd44 O52 2.277 1_556 S
O45 C42 1.160 . S
O45 Cd46 2.203 . S
Cd46 O45 2.203 . S
Cd46 O48 2.411 . S
Cd46 O49 2.333 . S
Cd46 O50 2.352 . S
Cd46 O54 2.277 1_556 S
Cd46 O55 2.356 . S
C47 O52 1.209 . S
C47 O54 1.226 . S
O48 Cd44 2.273 . S
O48 Cd46 2.411 . S
O48 C51 1.320 . S
O49 Cd46 2.333 . S
O49 C51 1.214 . S
O50 Cd46 2.352 . S
O50 C53 1.258 . S
C51 O48 1.320 . S
C51 O49 1.214 . S
O52 Cd44 2.277 1_554 S
O52 C47 1.209 . S
C53 O50 1.258 . S
C53 O55 1.282 . S
O54 Cd46 2.277 1_554 S
O54 C47 1.226 . S
O55 Cd46 2.356 . S
O55 C53 1.282 . S
C56 O57 1.306 . S
C56 O59 1.160 . S
O57 C56 1.306 . S
O57 Cd58 2.228 1_655 S
Cd58 O57 2.228 1_455 S
Cd58 O62 2.273 1_455 S
Cd58 O66 2.277 1_455 S
O59 C56 1.160 . S
O59 Cd60 2.203 . S
Cd60 O59 2.203 . S
Cd60 O62 2.411 . S
Cd60 O63 2.333 . S
Cd60 O64 2.352 . S
Cd60 O68 2.277 . S
Cd60 O69 2.356 . S
C61 O66 1.209 . S
C61 O68 1.226 . S
O62 Cd58 2.273 1_655 S
O62 Cd60 2.411 . S
O62 C65 1.320 . S
O63 Cd60 2.333 . S
O63 C65 1.214 . S
O64 Cd60 2.352 . S
O64 C67 1.258 . S
C65 O62 1.320 . S
C65 O63 1.214 . S
O66 Cd58 2.277 1_655 S
O66 C61 1.209 . S
C67 O64 1.258 . S
C67 O69 1.282 . S
O68 Cd60 2.277 . S
O68 C61 1.226 . S
O69 Cd60 2.356 . S
O69 C67 1.282 . S
C70 O71 1.306 . S
C70 O73 1.160 . S
O71 C70 1.306 . S
O71 Cd72 2.228 . S
Cd72 O71 2.228 . S
Cd72 O76 2.273 . S
Cd72 O80 2.277 . S
O73 C70 1.160 . S
O73 Cd74 2.203 . S
Cd74 O73 2.203 . S
Cd74 O76 2.411 . S
Cd74 O77 2.333 . S
Cd74 O78 2.352 . S
Cd74 O82 2.277 . S
Cd74 O83 2.356 . S
C75 O80 1.209 . S
C75 O82 1.226 . S
O76 Cd72 2.273 . S
O76 Cd74 2.411 . S
O76 C79 1.320 . S
O77 Cd74 2.333 . S
O77 C79 1.214 . S
O78 Cd74 2.352 . S
O78 C81 1.258 . S
C79 O76 1.320 . S
C79 O77 1.214 . S
O80 Cd72 2.277 . S
O80 C75 1.209 . S
C81 O78 1.258 . S
C81 O83 1.282 . S
O82 Cd74 2.277 . S
O82 C75 1.226 . S
O83 Cd74 2.356 . S
O83 C81 1.282 . S
C84 O85 1.306 . S
C84 O87 1.160 . S
O85 C84 1.306 . S
O85 Cd86 2.228 1_655 S
Cd86 O85 2.228 1_455 S
Cd86 O90 2.273 1_455 S
Cd86 O94 2.277 1_454 S
O87 C84 1.160 . S
O87 Cd88 2.203 . S
Cd88 O87 2.203 . S
Cd88 O90 2.411 . S
Cd88 O91 2.333 . S
Cd88 O92 2.352 . S
Cd88 O96 2.277 1_554 S
Cd88 O97 2.356 . S
C89 O94 1.209 . S
C89 O96 1.226 . S
O90 Cd86 2.273 1_655 S
O90 Cd88 2.411 . S
O90 C93 1.320 . S
O91 Cd88 2.333 . S
O91 C93 1.214 . S
O92 Cd88 2.352 . S
O92 C95 1.258 . S
C93 O90 1.320 . S
C93 O91 1.214 . S
O94 Cd86 2.277 1_656 S
O94 C89 1.209 . S
C95 O92 1.258 . S
C95 O97 1.282 . S
O96 Cd88 2.277 1_556 S
O96 C89 1.226 . S
O97 Cd88 2.356 . S
O97 C95 1.282 . S
C98 O99 1.306 . S
C98 O101 1.160 . S
O99 C98 1.306 . S
O99 Cd100 2.228 . S
Cd100 O99 2.228 . S
Cd100 O104 2.273 . S
Cd100 O108 2.277 1_554 S
O101 C98 1.160 . S
O101 Cd102 2.203 . S
Cd102 O101 2.203 . S
Cd102 O104 2.411 . S
Cd102 O105 2.333 . S
Cd102 O106 2.352 . S
Cd102 O110 2.277 1_554 S
Cd102 O111 2.356 . S
C103 O108 1.209 . S
C103 O110 1.226 . S
O104 Cd100 2.273 . S
O104 Cd102 2.411 . S
O104 C107 1.320 . S
O105 Cd102 2.333 . S
O105 C107 1.214 . S
O106 Cd102 2.352 . S
O106 C109 1.258 . S
C107 O104 1.320 . S
C107 O105 1.214 . S
O108 Cd100 2.277 1_556 S
O108 C103 1.209 . S
C109 O106 1.258 . S
C109 O111 1.282 . S
O110 Cd102 2.277 1_556 S
O110 C103 1.226 . S
O111 Cd102 2.356 . S
O111 C109 1.282 . S
C112 O113 1.306 . S
C112 O115 1.160 . S
O113 C112 1.306 . S
O113 Cd114 2.228 1_455 S
Cd114 O113 2.228 1_655 S
Cd114 O118 2.273 1_655 S
Cd114 O122 2.277 1_655 S
O115 C112 1.160 . S
O115 Cd116 2.203 . S
Cd116 O115 2.203 . S
Cd116 O118 2.411 . S
Cd116 O119 2.333 . S
Cd116 O120 2.352 . S
Cd116 O124 2.277 . S
Cd116 O125 2.356 . S
C117 O122 1.209 . S
C117 O124 1.226 . S
O118 Cd114 2.273 1_455 S
O118 Cd116 2.411 . S
O118 C121 1.320 . S
O119 Cd116 2.333 . S
O119 C121 1.214 . S
O120 Cd116 2.352 . S
O120 C123 1.258 . S
C121 O118 1.320 . S
C121 O119 1.214 . S
O122 Cd114 2.277 1_455 S
O122 C117 1.209 . S
C123 O120 1.258 . S
C123 O125 1.282 . S
O124 Cd116 2.277 . S
O124 C117 1.226 . S
O125 Cd116 2.356 . S
O125 C123 1.282 . S
C126 O127 1.306 . S
C126 O129 1.160 . S
O127 C126 1.306 . S
O127 Cd128 2.228 . S
Cd128 O127 2.228 . S
Cd128 O132 2.273 . S
Cd128 O136 2.277 . S
O129 C126 1.160 . S
O129 Cd130 2.203 . S
Cd130 O129 2.203 . S
Cd130 O132 2.411 . S
Cd130 O133 2.333 . S
Cd130 O134 2.352 . S
Cd130 O138 2.277 . S
Cd130 O139 2.356 . S
C131 O136 1.209 . S
C131 O138 1.226 . S
O132 Cd128 2.273 . S
O132 Cd130 2.411 . S
O132 C135 1.320 . S
O133 Cd130 2.333 . S
O133 C135 1.214 . S
O134 Cd130 2.352 . S
O134 C137 1.258 . S
C135 O132 1.320 . S
C135 O133 1.214 . S
O136 Cd128 2.277 . S
O136 C131 1.209 . S
C137 O134 1.258 . S
C137 O139 1.282 . S
O138 Cd130 2.277 . S
O138 C131 1.226 . S
O139 Cd130 2.356 . S
O139 C137 1.282 . S
C140 O141 1.306 . S
C140 O143 1.160 . S
O141 C140 1.306 . S
O141 Cd142 2.228 1_455 S
Cd142 O141 2.228 1_655 S
Cd142 O146 2.273 1_655 S
Cd142 O150 2.277 1_655 S
O143 C140 1.160 . S
O143 Cd144 2.203 . S
Cd144 O143 2.203 . S
Cd144 O146 2.411 . S
Cd144 O147 2.333 . S
Cd144 O148 2.352 . S
Cd144 O152 2.277 . S
Cd144 O153 2.356 . S
C145 O150 1.209 . S
C145 O152 1.226 . S
O146 Cd142 2.273 1_455 S
O146 Cd144 2.411 . S
O146 C149 1.320 . S
O147 Cd144 2.333 . S
O147 C149 1.214 . S
O148 Cd144 2.352 . S
O148 C151 1.258 . S
C149 O146 1.320 . S
C149 O147 1.214 . S
O150 Cd142 2.277 1_455 S
O150 C145 1.209 . S
C151 O148 1.258 . S
C151 O153 1.282 . S
O152 Cd144 2.277 . S
O152 C145 1.226 . S
O153 Cd144 2.356 . S
O153 C151 1.282 . S
C154 O155 1.306 . S
C154 O157 1.160 . S
O155 C154 1.306 . S
O155 Cd156 2.228 . S
Cd156 O155 2.228 . S
Cd156 O160 2.273 . S
Cd156 O164 2.277 . S
O157 C154 1.160 . S
O157 Cd158 2.203 . S
Cd158 O157 2.203 . S
Cd158 O160 2.411 . S
Cd158 O161 2.333 . S
Cd158 O162 2.352 . S
Cd158 O166 2.277 . S
Cd158 O167 2.356 . S
C159 O164 1.209 . S
C159 O166 1.226 . S
O160 Cd156 2.273 . S
O160 Cd158 2.411 . S
O160 C163 1.320 . S
O161 Cd158 2.333 . S
O161 C163 1.214 . S
O162 Cd158 2.352 . S
O162 C165 1.258 . S
C163 O160 1.320 . S
C163 O161 1.214 . S
O164 Cd156 2.277 . S
O164 C159 1.209 . S
C165 O162 1.258 . S
C165 O167 1.282 . S
O166 Cd158 2.277 . S
O166 C159 1.226 . S
O167 Cd158 2.356 . S
O167 C165 1.282 . S
C168 O169 1.306 . S
C168 O171 1.160 . S
O169 C168 1.306 . S
O169 Cd170 2.228 1_655 S
Cd170 O169 2.228 1_455 S
Cd170 O174 2.273 1_455 S
Cd170 O178 2.277 1_455 S
O171 C168 1.160 . S
O171 Cd172 2.203 . S
Cd172 O171 2.203 . S
Cd172 O174 2.411 . S
Cd172 O175 2.333 . S
Cd172 O176 2.352 . S
Cd172 O180 2.277 . S
Cd172 O181 2.356 . S
C173 O178 1.209 . S
C173 O180 1.226 . S
O174 Cd170 2.273 1_655 S
O174 Cd172 2.411 . S
O174 C177 1.320 . S
O175 Cd172 2.333 . S
O175 C177 1.214 . S
O176 Cd172 2.352 . S
O176 C179 1.258 . S
C177 O174 1.320 . S
C177 O175 1.214 . S
O178 Cd170 2.277 1_655 S
O178 C173 1.209 . S
C179 O176 1.258 . S
C179 O181 1.282 . S
O180 Cd172 2.277 . S
O180 C173 1.226 . S
O181 Cd172 2.356 . S
O181 C179 1.282 . S
C182 O183 1.306 . S
C182 O185 1.160 . S
O183 C182 1.306 . S
O183 Cd184 2.228 . S
Cd184 O183 2.228 . S
Cd184 O188 2.273 . S
Cd184 O192 2.277 . S
O185 C182 1.160 . S
O185 Cd186 2.203 . S
Cd186 O185 2.203 . S
Cd186 O188 2.411 . S
Cd186 O189 2.333 . S
Cd186 O190 2.352 . S
Cd186 O194 2.277 . S
Cd186 O195 2.356 . S
C187 O192 1.209 . S
C187 O194 1.226 . S
O188 Cd184 2.273 . S
O188 Cd186 2.411 . S
O188 C191 1.320 . S
O189 Cd186 2.333 . S
O189 C191 1.214 . S
O190 Cd186 2.352 . S
O190 C193 1.258 . S
C191 O188 1.320 . S
C191 O189 1.214 . S
O192 Cd184 2.277 . S
O192 C187 1.209 . S
C193 O190 1.258 . S
C193 O195 1.282 . S
O194 Cd186 2.277 . S
O194 C187 1.226 . S
O195 Cd186 2.356 . S
O195 C193 1.282 . S
C196 O197 1.306 . S
C196 O199 1.160 . S
O197 C196 1.306 . S
O197 Cd198 2.228 1_655 S
Cd198 O197 2.228 1_455 S
Cd198 O202 2.273 1_455 S
Cd198 O206 2.277 1_455 S
O199 C196 1.160 . S
O199 Cd200 2.203 . S
Cd200 O199 2.203 . S
Cd200 O202 2.411 . S
Cd200 O203 2.333 . S
Cd200 O204 2.352 . S
Cd200 O208 2.277 . S
Cd200 O209 2.356 . S
C201 O206 1.209 . S
C201 O208 1.226 . S
O202 Cd198 2.273 1_655 S
O202 Cd200 2.411 . S
O202 C205 1.320 . S
O203 Cd200 2.333 . S
O203 C205 1.214 . S
O204 Cd200 2.352 . S
O204 C207 1.258 . S
C205 O202 1.320 . S
C205 O203 1.214 . S
O206 Cd198 2.277 1_655 S
O206 C201 1.209 . S
C207 O204 1.258 . S
C207 O209 1.282 . S
O208 Cd200 2.277 . S
O208 C201 1.226 . S
O209 Cd200 2.356 . S
O209 C207 1.282 . S
C210 O211 1.306 . S
C210 O213 1.160 . S
O211 C210 1.306 . S
O211 Cd212 2.228 . S
Cd212 O211 2.228 . S
Cd212 O216 2.273 . S
Cd212 O220 2.277 . S
O213 C210 1.160 . S
O213 Cd214 2.203 . S
Cd214 O213 2.203 . S
Cd214 O216 2.411 . S
Cd214 O217 2.333 . S
Cd214 O218 2.352 . S
Cd214 O222 2.277 . S
Cd214 O223 2.356 . S
C215 O220 1.209 . S
C215 O222 1.226 . S
O216 Cd212 2.273 . S
O216 Cd214 2.411 . S
O216 C219 1.320 . S
O217 Cd214 2.333 . S
O217 C219 1.214 . S
O218 Cd214 2.352 . S
O218 C221 1.258 . S
C219 O216 1.320 . S
C219 O217 1.214 . S
O220 Cd212 2.277 . S
O220 C215 1.209 . S
C221 O218 1.258 . S
C221 O223 1.282 . S
O222 Cd214 2.277 . S
O222 C215 1.226 . S
O223 Cd214 2.356 . S
O223 C221 1.282 . S
C224 O225 1.306 . S
C224 O227 1.160 . S
O225 C224 1.306 . S
O225 Cd226 2.228 . S
Cd226 O225 2.228 . S
Cd226 O230 2.273 . S
Cd226 O234 2.277 . S
O227 C224 1.160 . S
O227 Cd228 2.203 . S
Cd228 O227 2.203 . S
Cd228 O230 2.411 . S
Cd228 O231 2.333 . S
Cd228 O232 2.352 . S
Cd228 O236 2.277 . S
Cd228 O237 2.356 . S
C229 O234 1.209 . S
C229 O236 1.226 . S
O230 Cd226 2.273 . S
O230 Cd228 2.411 . S
O230 C233 1.320 . S
O231 Cd228 2.333 . S
O231 C233 1.214 . S
O232 Cd228 2.352 . S
O232 C235 1.258 . S
C233 O230 1.320 . S
C233 O231 1.214 . S
O234 Cd226 2.277 . S
O234 C229 1.209 . S
C235 O232 1.258 . S
C235 O237 1.282 . S
O236 Cd228 2.277 . S
O236 C229 1.226 . S
O237 Cd228 2.356 . S
O237 C235 1.282 . S
C238 O239 1.306 . S
C238 O241 1.160 . S
O239 C238 1.306 . S
O239 Cd240 2.228 . S
Cd240 O239 2.228 . S
Cd240 O244 2.273 . S
Cd240 O248 2.277 . S
O241 C238 1.160 . S
O241 Cd242 2.203 . S
Cd242 O241 2.203 . S
Cd242 O244 2.411 . S
Cd242 O245 2.333 . S
Cd242 O246 2.352 . S
Cd242 O250 2.277 . S
Cd242 O251 2.356 . S
C243 O248 1.209 . S
C243 O250 1.226 . S
O244 Cd240 2.273 . S
O244 Cd242 2.411 . S
O244 C247 1.320 . S
O245 Cd242 2.333 . S
O245 C247 1.214 . S
O246 Cd242 2.352 . S
O246 C249 1.258 . S
C247 O244 1.320 . S
C247 O245 1.214 . S
O248 Cd240 2.277 . S
O248 C243 1.209 . S
C249 O246 1.258 . S
C249 O251 1.282 . S
O250 Cd242 2.277 . S
O250 C243 1.226 . S
O251 Cd242 2.356 . S
O251 C249 1.282 . S
C252 O253 1.306 . S
C252 O255 1.160 . S
O253 C252 1.306 . S
O253 Cd254 2.228 . S
Cd254 O253 2.228 . S
Cd254 O258 2.273 . S
Cd254 O262 2.277 . S
O255 C252 1.160 . S
O255 Cd256 2.203 . S
Cd256 O255 2.203 . S
Cd256 O258 2.411 . S
Cd256 O259 2.333 . S
Cd256 O260 2.352 . S
Cd256 O264 2.277 . S
Cd256 O265 2.356 . S
C257 O262 1.209 . S
C257 O264 1.226 . S
O258 Cd254 2.273 . S
O258 Cd256 2.411 . S
O258 C261 1.320 . S
O259 Cd256 2.333 . S
O259 C261 1.214 . S
O260 Cd256 2.352 . S
O260 C263 1.258 . S
C261 O258 1.320 . S
C261 O259 1.214 . S
O262 Cd254 2.277 . S
O262 C257 1.209 . S
C263 O260 1.258 . S
C263 O265 1.282 . S
O264 Cd256 2.277 . S
O264 C257 1.226 . S
O265 Cd256 2.356 . S
O265 C263 1.282 . S
C266 O267 1.306 . S
C266 O269 1.160 . S
O267 C266 1.306 . S
O267 Cd268 2.228 . S
Cd268 O267 2.228 . S
Cd268 O272 2.273 . S
Cd268 O276 2.277 . S
O269 C266 1.160 . S
O269 Cd270 2.203 . S
Cd270 O269 2.203 . S
Cd270 O272 2.411 . S
Cd270 O273 2.333 . S
Cd270 O274 2.352 . S
Cd270 O278 2.277 . S
Cd270 O279 2.356 . S
C271 O276 1.209 . S
C271 O278 1.226 . S
O272 Cd268 2.273 . S
O272 Cd270 2.411 . S
O272 C275 1.320 . S
O273 Cd270 2.333 . S
O273 C275 1.214 . S
O274 Cd270 2.352 . S
O274 C277 1.258 . S
C275 O272 1.320 . S
C275 O273 1.214 . S
O276 Cd268 2.277 . S
O276 C271 1.209 . S
C277 O274 1.258 . S
C277 O279 1.282 . S
O278 Cd270 2.277 . S
O278 C271 1.226 . S
O279 Cd270 2.356 . S
O279 C277 1.282 . S
C280 O281 1.306 . S
C280 O283 1.160 . S
O281 C280 1.306 . S
O281 Cd282 2.228 . S
Cd282 O281 2.228 . S
Cd282 O286 2.273 . S
Cd282 O290 2.277 . S
O283 C280 1.160 . S
O283 Cd284 2.203 . S
Cd284 O283 2.203 . S
Cd284 O286 2.411 . S
Cd284 O287 2.333 . S
Cd284 O288 2.352 . S
Cd284 O292 2.277 . S
Cd284 O293 2.356 . S
C285 O290 1.209 . S
C285 O292 1.226 . S
O286 Cd282 2.273 . S
O286 Cd284 2.411 . S
O286 C289 1.320 . S
O287 Cd284 2.333 . S
O287 C289 1.214 . S
O288 Cd284 2.352 . S
O288 C291 1.258 . S
C289 O286 1.320 . S
C289 O287 1.214 . S
O290 Cd282 2.277 . S
O290 C285 1.209 . S
C291 O288 1.258 . S
C291 O293 1.282 . S
O292 Cd284 2.277 . S
O292 C285 1.226 . S
O293 Cd284 2.356 . S
O293 C291 1.282 . S
C294 O295 1.306 . S
C294 O297 1.160 . S
O295 C294 1.306 . S
O295 Cd296 2.228 . S
Cd296 O295 2.228 . S
Cd296 O300 2.273 . S
Cd296 O304 2.277 . S
O297 C294 1.160 . S
O297 Cd298 2.203 . S
Cd298 O297 2.203 . S
Cd298 O300 2.411 . S
Cd298 O301 2.333 . S
Cd298 O302 2.352 . S
Cd298 O306 2.277 . S
Cd298 O307 2.356 . S
C299 O304 1.209 . S
C299 O306 1.226 . S
O300 Cd296 2.273 . S
O300 Cd298 2.411 . S
O300 C303 1.320 . S
O301 Cd298 2.333 . S
O301 C303 1.214 . S
O302 Cd298 2.352 . S
O302 C305 1.258 . S
C303 O300 1.320 . S
C303 O301 1.214 . S
O304 Cd296 2.277 . S
O304 C299 1.209 . S
C305 O302 1.258 . S
C305 O307 1.282 . S
O306 Cd298 2.277 . S
O306 C299 1.226 . S
O307 Cd298 2.356 . S
O307 C305 1.282 . S
C308 O309 1.306 . S
C308 O311 1.160 . S
O309 C308 1.306 . S
O309 Cd310 2.228 . S
Cd310 O309 2.228 . S
Cd310 O314 2.273 . S
Cd310 O318 2.277 . S
O311 C308 1.160 . S
O311 Cd312 2.203 . S
Cd312 O311 2.203 . S
Cd312 O314 2.411 . S
Cd312 O315 2.333 . S
Cd312 O316 2.352 . S
Cd312 O320 2.277 . S
Cd312 O321 2.356 . S
C313 O318 1.209 . S
C313 O320 1.226 . S
O314 Cd310 2.273 . S
O314 Cd312 2.411 . S
O314 C317 1.320 . S
O315 Cd312 2.333 . S
O315 C317 1.214 . S
O316 Cd312 2.352 . S
O316 C319 1.258 . S
C317 O314 1.320 . S
C317 O315 1.214 . S
O318 Cd310 2.277 . S
O318 C313 1.209 . S
C319 O316 1.258 . S
C319 O321 1.282 . S
O320 Cd312 2.277 . S
O320 C313 1.226 . S
O321 Cd312 2.356 . S
O321 C319 1.282 . S
C322 O323 1.306 . S
C322 O325 1.160 . S
O323 C322 1.306 . S
O323 Cd324 2.228 . S
Cd324 O323 2.228 . S
Cd324 O328 2.273 . S
Cd324 O332 2.277 . S
O325 C322 1.160 . S
O325 Cd326 2.203 . S
Cd326 O325 2.203 . S
Cd326 O328 2.411 . S
Cd326 O329 2.333 . S
Cd326 O330 2.352 . S
Cd326 O334 2.277 . S
Cd326 O335 2.356 . S
C327 O332 1.209 . S
C327 O334 1.226 . S
O328 Cd324 2.273 . S
O328 Cd326 2.411 . S
O328 C331 1.320 . S
O329 Cd326 2.333 . S
O329 C331 1.214 . S
O330 Cd326 2.352 . S
O330 C333 1.258 . S
C331 O328 1.320 . S
C331 O329 1.214 . S
O332 Cd324 2.277 . S
O332 C327 1.209 . S
C333 O330 1.258 . S
C333 O335 1.282 . S
O334 Cd326 2.277 . S
O334 C327 1.226 . S
O335 Cd326 2.356 . S
O335 C333 1.282 . S
C336 O337 1.306 . S
C336 O339 1.160 . S
O337 C336 1.306 . S
O337 Cd338 2.228 . S
Cd338 O337 2.228 . S
Cd338 O342 2.273 . S
Cd338 O346 2.277 . S
O339 C336 1.160 . S
O339 Cd340 2.203 . S
Cd340 O339 2.203 . S
Cd340 O342 2.411 . S
Cd340 O343 2.333 . S
Cd340 O344 2.352 . S
Cd340 O348 2.277 . S
Cd340 O349 2.356 . S
C341 O346 1.209 . S
C341 O348 1.226 . S
O342 Cd338 2.273 . S
O342 Cd340 2.411 . S
O342 C345 1.320 . S
O343 Cd340 2.333 . S
O343 C345 1.214 . S
O344 Cd340 2.352 . S
O344 C347 1.258 . S
C345 O342 1.320 . S
C345 O343 1.214 . S
O346 Cd338 2.277 . S
O346 C341 1.209 . S
C347 O344 1.258 . S
C347 O349 1.282 . S
O348 Cd340 2.277 . S
O348 C341 1.226 . S
O349 Cd340 2.356 . S
O349 C347 1.282 . S
C350 O351 1.306 . S
C350 O353 1.160 . S
O351 C350 1.306 . S
O351 Cd352 2.228 . S
Cd352 O351 2.228 . S
Cd352 O356 2.273 . S
Cd352 O360 2.277 . S
O353 C350 1.160 . S
O353 Cd354 2.203 . S
Cd354 O353 2.203 . S
Cd354 O356 2.411 . S
Cd354 O357 2.333 . S
Cd354 O358 2.352 . S
Cd354 O362 2.277 . S
Cd354 O363 2.356 . S
C355 O360 1.209 . S
C355 O362 1.226 . S
O356 Cd352 2.273 . S
O356 Cd354 2.411 . S
O356 C359 1.320 . S
O357 Cd354 2.333 . S
O357 C359 1.214 . S
O358 Cd354 2.352 . S
O358 C361 1.258 . S
C359 O356 1.320 . S
C359 O357 1.214 . S
O360 Cd352 2.277 . S
O360 C355 1.209 . S
C361 O358 1.258 . S
C361 O363 1.282 . S
O362 Cd354 2.277 . S
O362 C355 1.226 . S
O363 Cd354 2.356 . S
O363 C361 1.282 . S
C364 O365 1.306 . S
C364 O367 1.160 . S
O365 C364 1.306 . S
O365 Cd366 2.228 . S
Cd366 O365 2.228 . S
Cd366 O370 2.273 . S
Cd366 O374 2.277 1_556 S
O367 C364 1.160 . S
O367 Cd368 2.203 . S
Cd368 O367 2.203 . S
Cd368 O370 2.411 . S
Cd368 O371 2.333 . S
Cd368 O372 2.352 . S
Cd368 O376 2.277 1_556 S
Cd368 O377 2.356 . S
C369 O374 1.209 . S
C369 O376 1.226 . S
O370 Cd366 2.273 . S
O370 Cd368 2.411 . S
O370 C373 1.320 . S
O371 Cd368 2.333 . S
O371 C373 1.214 . S
O372 Cd368 2.352 . S
O372 C375 1.258 . S
C373 O370 1.320 . S
C373 O371 1.214 . S
O374 Cd366 2.277 1_554 S
O374 C369 1.209 . S
C375 O372 1.258 . S
C375 O377 1.282 . S
O376 Cd368 2.277 1_554 S
O376 C369 1.226 . S
O377 Cd368 2.356 . S
O377 C375 1.282 . S
C378 O379 1.306 . S
C378 O381 1.160 . S
O379 C378 1.306 . S
O379 Cd380 2.228 . S
Cd380 O379 2.228 . S
Cd380 O384 2.273 . S
Cd380 O388 2.277 1_556 S
O381 C378 1.160 . S
O381 Cd382 2.203 . S
Cd382 O381 2.203 . S
Cd382 O384 2.411 . S
Cd382 O385 2.333 . S
Cd382 O386 2.352 . S
Cd382 O390 2.277 1_556 S
Cd382 O391 2.356 . S
C383 O388 1.209 . S
C383 O390 1.226 . S
O384 Cd380 2.273 . S
O384 Cd382 2.411 . S
O384 C387 1.320 . S
O385 Cd382 2.333 . S
O385 C387 1.214 . S
O386 Cd382 2.352 . S
O386 C389 1.258 . S
C387 O384 1.320 . S
C387 O385 1.214 . S
O388 Cd380 2.277 1_554 S
O388 C383 1.209 . S
C389 O386 1.258 . S
C389 O391 1.282 . S
O390 Cd382 2.277 1_554 S
O390 C383 1.226 . S
O391 Cd382 2.356 . S
O391 C389 1.282 . S
C392 O393 1.306 . S
C392 O395 1.160 . S
O393 C392 1.306 . S
O393 Cd394 2.228 . S
Cd394 O393 2.228 . S
Cd394 O398 2.273 . S
Cd394 O402 2.277 . S
O395 C392 1.160 . S
O395 Cd396 2.203 . S
Cd396 O395 2.203 . S
Cd396 O398 2.411 . S
Cd396 O399 2.333 . S
Cd396 O400 2.352 . S
Cd396 O404 2.277 . S
Cd396 O405 2.356 . S
C397 O402 1.209 . S
C397 O404 1.226 . S
O398 Cd394 2.273 . S
O398 Cd396 2.411 . S
O398 C401 1.320 . S
O399 Cd396 2.333 . S
O399 C401 1.214 . S
O400 Cd396 2.352 . S
O400 C403 1.258 . S
C401 O398 1.320 . S
C401 O399 1.214 . S
O402 Cd394 2.277 . S
O402 C397 1.209 . S
C403 O400 1.258 . S
C403 O405 1.282 . S
O404 Cd396 2.277 . S
O404 C397 1.226 . S
O405 Cd396 2.356 . S
O405 C403 1.282 . S
C406 O407 1.306 . S
C406 O409 1.160 . S
O407 C406 1.306 . S
O407 Cd408 2.228 . S
Cd408 O407 2.228 . S
Cd408 O412 2.273 . S
Cd408 O416 2.277 . S
O409 C406 1.160 . S
O409 Cd410 2.203 . S
Cd410 O409 2.203 . S
Cd410 O412 2.411 . S
Cd410 O413 2.333 . S
Cd410 O414 2.352 . S
Cd410 O418 2.277 . S
Cd410 O419 2.356 . S
C411 O416 1.209 . S
C411 O418 1.226 . S
O412 Cd408 2.273 . S
O412 Cd410 2.411 . S
O412 C415 1.320 . S
O413 Cd410 2.333 . S
O413 C415 1.214 . S
O414 Cd410 2.352 . S
O414 C417 1.258 . S
C415 O412 1.320 . S
C415 O413 1.214 . S
O416 Cd408 2.277 . S
O416 C411 1.209 . S
C417 O414 1.258 . S
C417 O419 1.282 . S
O418 Cd410 2.277 . S
O418 C411 1.226 . S
O419 Cd410 2.356 . S
O419 C417 1.282 . S
C420 O421 1.306 . S
C420 O423 1.160 . S
O421 C420 1.306 . S
O421 Cd422 2.228 . S
Cd422 O421 2.228 . S
Cd422 O426 2.273 . S
Cd422 O430 2.277 1_554 S
O423 C420 1.160 . S
O423 Cd424 2.203 . S
Cd424 O423 2.203 . S
Cd424 O426 2.411 . S
Cd424 O427 2.333 . S
Cd424 O428 2.352 . S
Cd424 O432 2.277 1_554 S
Cd424 O433 2.356 . S
C425 O430 1.209 . S
C425 O432 1.226 . S
O426 Cd422 2.273 . S
O426 Cd424 2.411 . S
O426 C429 1.320 . S
O427 Cd424 2.333 . S
O427 C429 1.214 . S
O428 Cd424 2.352 . S
O428 C431 1.258 . S
C429 O426 1.320 . S
C429 O427 1.214 . S
O430 Cd422 2.277 1_556 S
O430 C425 1.209 . S
C431 O428 1.258 . S
C431 O433 1.282 . S
O432 Cd424 2.277 1_556 S
O432 C425 1.226 . S
O433 Cd424 2.356 . S
O433 C431 1.282 . S
C434 O435 1.306 . S
C434 O437 1.160 . S
O435 C434 1.306 . S
O435 Cd436 2.228 . S
Cd436 O435 2.228 . S
Cd436 O440 2.273 . S
Cd436 O444 2.277 1_554 S
O437 C434 1.160 . S
O437 Cd438 2.203 . S
Cd438 O437 2.203 . S
Cd438 O440 2.411 . S
Cd438 O441 2.333 . S
Cd438 O442 2.352 . S
Cd438 O446 2.277 1_554 S
Cd438 O447 2.356 . S
C439 O444 1.209 . S
C439 O446 1.226 . S
O440 Cd436 2.273 . S
O440 Cd438 2.411 . S
O440 C443 1.320 . S
O441 Cd438 2.333 . S
O441 C443 1.214 . S
O442 Cd438 2.352 . S
O442 C445 1.258 . S
C443 O440 1.320 . S
C443 O441 1.214 . S
O444 Cd436 2.277 1_556 S
O444 C439 1.209 . S
C445 O442 1.258 . S
C445 O447 1.282 . S
O446 Cd438 2.277 1_556 S
O446 C439 1.226 . S
O447 Cd438 2.356 . S
O447 C445 1.282 . S
H448 C460 0.930 . S
H449 C462 0.930 . S
H450 C463 0.930 . S
H451 C467 0.967 . S
H452 C467 0.961 . S
H453 C467 0.964 . S
H454 C468 0.960 . S
H455 C468 0.961 . S
H456 C468 0.959 . S
H457 C471 0.929 . S
H458 C472 0.931 . S
H459 C474 0.930 . S
C460 H448 0.930 . S
C460 C461 1.399 . S
C460 C465 1.399 . S
C461 C460 1.399 . S
C461 C462 1.376 . S
C462 H449 0.930 . S
C462 C461 1.376 . S
C462 C463 1.388 . S
C463 H450 0.930 . S
C463 C462 1.388 . S
C463 C464 1.390 . S
C464 C463 1.390 . S
C464 C465 1.394 . S
C464 C470 1.465 . S
C465 C460 1.399 . S
C465 C464 1.394 . S
C465 C466 1.516 . S
C466 C465 1.516 . S
C466 C467 1.490 1_455 S
C466 C468 1.561 . S
C466 C469 1.526 . S
C467 H451 0.967 . S
C467 H452 0.961 . S
C467 H453 0.964 . S
C467 C466 1.490 1_655 S
C468 H454 0.960 . S
C468 H455 0.961 . S
C468 H456 0.959 . S
C468 C466 1.561 . S
C469 C466 1.526 . S
C469 C470 1.396 . S
C469 C474 1.390 . S
C470 C464 1.465 . S
C470 C469 1.396 . S
C470 C471 1.399 . S
C471 H457 0.929 . S
C471 C470 1.399 . S
C471 C472 1.385 . S
C472 H458 0.931 . S
C472 C471 1.385 . S
C472 C473 1.389 . S
C473 C472 1.389 . S
C473 C474 1.387 . S
C474 H459 0.930 . S
C474 C469 1.390 . S
C474 C473 1.387 . S
H475 C487 0.930 . S
H476 C489 0.930 . S
H477 C490 0.930 . S
H478 C494 0.959 . S
H479 C494 0.959 . S
H480 C494 0.961 . S
H481 C495 0.960 . S
H482 C495 0.961 . S
H483 C495 0.959 . S
H484 C498 0.929 . S
H485 C499 0.931 . S
H486 C501 0.930 . S
C487 H475 0.930 . S
C487 C488 1.399 . S
C487 C492 1.399 . S
C488 C487 1.399 . S
C488 C489 1.376 . S
C489 H476 0.930 . S
C489 C488 1.376 . S
C489 C490 1.388 . S
C490 H477 0.930 . S
C490 C489 1.388 . S
C490 C491 1.390 . S
C491 C490 1.390 . S
C491 C492 1.394 . S
C491 C497 1.465 . S
C492 C487 1.399 . S
C492 C491 1.394 . S
C492 C493 1.516 . S
C493 C492 1.516 . S
C493 C494 1.502 . S
C493 C495 1.561 . S
C493 C496 1.526 . S
C494 H478 0.959 . S
C494 H479 0.959 . S
C494 H480 0.961 . S
C494 C493 1.502 . S
C495 H481 0.960 . S
C495 H482 0.961 . S
C495 H483 0.959 . S
C495 C493 1.561 . S
C496 C493 1.526 . S
C496 C497 1.396 . S
C496 C501 1.390 . S
C497 C491 1.465 . S
C497 C496 1.396 . S
C497 C498 1.399 . S
C498 H484 0.929 . S
C498 C497 1.399 . S
C498 C499 1.385 . S
C499 H485 0.931 . S
C499 C498 1.385 . S
C499 C500 1.389 . S
C500 C499 1.389 . S
C500 C501 1.387 . S
C501 H486 0.930 . S
C501 C496 1.390 . S
C501 C500 1.387 . S
H502 C514 0.930 . S
H503 C516 0.930 . S
H504 C517 0.930 . S
H505 C521 0.959 . S
H506 C521 0.959 . S
H507 C521 0.961 . S
H508 C522 0.960 . S
H509 C522 0.961 . S
H510 C522 0.959 . S
H511 C525 0.929 . S
H512 C526 0.931 . S
H513 C528 0.930 . S
C514 H502 0.930 . S
C514 C515 1.399 . S
C514 C519 1.399 . S
C515 C514 1.399 . S
C515 C516 1.376 . S
C516 H503 0.930 . S
C516 C515 1.376 . S
C516 C517 1.388 . S
C517 H504 0.930 . S
C517 C516 1.388 . S
C517 C518 1.390 . S
C518 C517 1.390 . S
C518 C519 1.394 . S
C518 C524 1.465 . S
C519 C514 1.399 . S
C519 C518 1.394 . S
C519 C520 1.516 . S
C520 C519 1.516 . S
C520 C521 1.502 . S
C520 C522 1.561 . S
C520 C523 1.526 . S
C521 H505 0.959 . S
C521 H506 0.959 . S
C521 H507 0.961 . S
C521 C520 1.502 . S
C522 H508 0.960 . S
C522 H509 0.961 . S
C522 H510 0.959 . S
C522 C520 1.561 . S
C523 C520 1.526 . S
C523 C524 1.396 . S
C523 C528 1.390 . S
C524 C518 1.465 . S
C524 C523 1.396 . S
C524 C525 1.399 . S
C525 H511 0.929 . S
C525 C524 1.399 . S
C525 C526 1.385 . S
C526 H512 0.931 . S
C526 C525 1.385 . S
C526 C527 1.389 . S
C527 C526 1.389 . S
C527 C528 1.387 . S
C528 H513 0.930 . S
C528 C523 1.390 . S
C528 C527 1.387 . S
H529 C541 0.930 . S
H530 C543 0.930 . S
H531 C544 0.930 . S
H532 C548 0.959 . S
H533 C548 0.959 . S
H534 C548 0.961 . S
H535 C549 0.960 . S
H536 C549 0.961 . S
H537 C549 0.959 . S
H538 C552 0.929 . S
H539 C553 0.931 . S
H540 C555 0.930 . S
C541 H529 0.930 . S
C541 C542 1.399 . S
C541 C546 1.399 . S
C542 C541 1.399 . S
C542 C543 1.376 . S
C543 H530 0.930 . S
C543 C542 1.376 . S
C543 C544 1.388 . S
C544 H531 0.930 . S
C544 C543 1.388 . S
C544 C545 1.390 . S
C545 C544 1.390 . S
C545 C546 1.394 . S
C545 C551 1.465 . S
C546 C541 1.399 . S
C546 C545 1.394 . S
C546 C547 1.516 . S
C547 C546 1.516 . S
C547 C548 1.502 . S
C547 C549 1.561 . S
C547 C550 1.526 . S
C548 H532 0.959 . S
C548 H533 0.959 . S
C548 H534 0.961 . S
C548 C547 1.502 . S
C549 H535 0.960 . S
C549 H536 0.961 . S
C549 H537 0.959 . S
C549 C547 1.561 . S
C550 C547 1.526 . S
C550 C551 1.396 . S
C550 C555 1.390 . S
C551 C545 1.465 . S
C551 C550 1.396 . S
C551 C552 1.399 . S
C552 H538 0.929 . S
C552 C551 1.399 . S
C552 C553 1.385 . S
C553 H539 0.931 . S
C553 C552 1.385 . S
C553 C554 1.389 . S
C554 C553 1.389 . S
C554 C555 1.387 . S
C555 H540 0.930 . S
C555 C550 1.390 . S
C555 C554 1.387 . S
H556 C568 0.930 . S
H557 C570 0.930 1_455 S
H558 C571 0.930 1_455 S
H559 C575 0.959 . S
H560 C575 0.959 . S
H561 C575 0.961 . S
H562 C576 0.960 . S
H563 C576 0.961 . S
H564 C576 0.959 . S
H565 C579 0.929 1_455 S
H566 C580 0.931 1_455 S
H567 C582 0.930 . S
C568 H556 0.930 . S
C568 C569 1.399 . S
C568 C573 1.399 . S
C569 C568 1.399 . S
C569 C570 1.376 . S
C570 H557 0.930 1_655 S
C570 C569 1.376 . S
C570 C571 1.388 . S
C571 H558 0.930 1_655 S
C571 C570 1.388 . S
C571 C572 1.390 . S
C572 C571 1.390 . S
C572 C573 1.394 . S
C572 C578 1.465 . S
C573 C568 1.399 . S
C573 C572 1.394 . S
C573 C574 1.516 . S
C574 C573 1.516 . S
C574 C575 1.502 . S
C574 C576 1.561 . S
C574 C577 1.526 . S
C575 H559 0.959 . S
C575 H560 0.959 . S
C575 H561 0.961 . S
C575 C574 1.502 . S
C576 H562 0.960 . S
C576 H563 0.961 . S
C576 H564 0.959 . S
C576 C574 1.561 . S
C577 C574 1.526 . S
C577 C578 1.396 . S
C577 C582 1.390 . S
C578 C572 1.465 . S
C578 C577 1.396 . S
C578 C579 1.399 . S
C579 H565 0.929 1_655 S
C579 C578 1.399 . S
C579 C580 1.385 . S
C580 H566 0.931 1_655 S
C580 C579 1.385 . S
C580 C581 1.389 . S
C581 C580 1.389 . S
C581 C582 1.387 . S
C582 H567 0.930 . S
C582 C577 1.390 . S
C582 C581 1.387 . S
H583 C595 0.930 . S
H584 C597 0.930 . S
H585 C598 0.930 . S
H586 C602 0.959 . S
H587 C602 0.959 . S
H588 C602 0.961 . S
H589 C603 0.960 . S
H590 C603 0.961 . S
H591 C603 0.959 . S
H592 C606 0.929 . S
H593 C607 0.931 . S
H594 C609 0.930 . S
C595 H583 0.930 . S
C595 C596 1.399 . S
C595 C600 1.399 . S
C596 C595 1.399 . S
C596 C597 1.376 . S
C597 H584 0.930 . S
C597 C596 1.376 . S
C597 C598 1.388 . S
C598 H585 0.930 . S
C598 C597 1.388 . S
C598 C599 1.390 . S
C599 C598 1.390 . S
C599 C600 1.394 . S
C599 C605 1.465 . S
C600 C595 1.399 . S
C600 C599 1.394 . S
C600 C601 1.516 . S
C601 C600 1.516 . S
C601 C602 1.502 . S
C601 C603 1.561 . S
C601 C604 1.526 . S
C602 H586 0.959 . S
C602 H587 0.959 . S
C602 H588 0.961 . S
C602 C601 1.502 . S
C603 H589 0.960 . S
C603 H590 0.961 . S
C603 H591 0.959 . S
C603 C601 1.561 . S
C604 C601 1.526 . S
C604 C605 1.396 . S
C604 C609 1.390 . S
C605 C599 1.465 . S
C605 C604 1.396 . S
C605 C606 1.399 . S
C606 H592 0.929 . S
C606 C605 1.399 . S
C606 C607 1.385 . S
C607 H593 0.931 . S
C607 C606 1.385 . S
C607 C608 1.389 . S
C608 C607 1.389 . S
C608 C609 1.387 . S
C609 H594 0.930 . S
C609 C604 1.390 . S
C609 C608 1.387 . S
H610 C622 0.930 . S
H611 C624 0.930 . S
H612 C625 0.930 . S
H613 C629 0.959 . S
H614 C629 0.959 . S
H615 C629 0.961 . S
H616 C630 0.960 . S
H617 C630 0.961 . S
H618 C630 0.959 . S
H619 C633 0.929 . S
H620 C634 0.931 . S
H621 C636 0.930 . S
C622 H610 0.930 . S
C622 C623 1.399 . S
C622 C627 1.399 . S
C623 C622 1.399 . S
C623 C624 1.376 . S
C624 H611 0.930 . S
C624 C623 1.376 . S
C624 C625 1.388 . S
C625 H612 0.930 . S
C625 C624 1.388 . S
C625 C626 1.390 . S
C626 C625 1.390 . S
C626 C627 1.394 . S
C626 C632 1.465 . S
C627 C622 1.399 . S
C627 C626 1.394 . S
C627 C628 1.516 . S
C628 C627 1.516 . S
C628 C629 1.502 . S
C628 C630 1.561 . S
C628 C631 1.526 . S
C629 H613 0.959 . S
C629 H614 0.959 . S
C629 H615 0.961 . S
C629 C628 1.502 . S
C630 H616 0.960 . S
C630 H617 0.961 . S
C630 H618 0.959 . S
C630 C628 1.561 . S
C631 C628 1.526 . S
C631 C632 1.396 . S
C631 C636 1.390 . S
C632 C626 1.465 . S
C632 C631 1.396 . S
C632 C633 1.399 . S
C633 H619 0.929 . S
C633 C632 1.399 . S
C633 C634 1.385 . S
C634 H620 0.931 . S
C634 C633 1.385 . S
C634 C635 1.389 . S
C635 C634 1.389 . S
C635 C636 1.387 . S
C636 H621 0.930 . S
C636 C631 1.390 . S
C636 C635 1.387 . S
H637 C649 0.930 . S
H638 C651 0.930 . S
H639 C652 0.930 . S
H640 C656 0.959 . S
H641 C656 0.959 . S
H642 C656 0.961 . S
H643 C657 0.960 . S
H644 C657 0.961 . S
H645 C657 0.959 . S
H646 C660 0.929 . S
H647 C661 0.931 . S
H648 C663 0.930 . S
C649 H637 0.930 . S
C649 C650 1.399 . S
C649 C654 1.399 . S
C650 C649 1.399 . S
C650 C651 1.376 . S
C651 H638 0.930 . S
C651 C650 1.376 . S
C651 C652 1.388 . S
C652 H639 0.930 . S
C652 C651 1.388 . S
C652 C653 1.390 . S
C653 C652 1.390 . S
C653 C654 1.394 . S
C653 C659 1.465 . S
C654 C649 1.399 . S
C654 C653 1.394 . S
C654 C655 1.516 . S
C655 C654 1.516 . S
C655 C656 1.502 . S
C655 C657 1.561 . S
C655 C658 1.526 . S
C656 H640 0.959 . S
C656 H641 0.959 . S
C656 H642 0.961 . S
C656 C655 1.502 . S
C657 H643 0.960 . S
C657 H644 0.961 . S
C657 H645 0.959 . S
C657 C655 1.561 . S
C658 C655 1.526 . S
C658 C659 1.396 . S
C658 C663 1.390 . S
C659 C653 1.465 . S
C659 C658 1.396 . S
C659 C660 1.399 . S
C660 H646 0.929 . S
C660 C659 1.399 . S
C660 C661 1.385 . S
C661 H647 0.931 . S
C661 C660 1.385 . S
C661 C662 1.389 . S
C662 C661 1.389 . S
C662 C663 1.387 . S
C663 H648 0.930 . S
C663 C658 1.390 . S
C663 C662 1.387 . S
H664 C676 0.930 . S
H665 C678 0.930 . S
H666 C679 0.930 . S
H667 C683 0.959 . S
H668 C683 0.959 . S
H669 C683 0.961 . S
H670 C684 0.960 . S
H671 C684 0.961 . S
H672 C684 0.959 . S
H673 C687 0.929 . S
H674 C688 0.931 . S
H675 C690 0.930 . S
C676 H664 0.930 . S
C676 C677 1.399 . S
C676 C681 1.399 . S
C677 C676 1.399 . S
C677 C678 1.376 . S
C678 H665 0.930 . S
C678 C677 1.376 . S
C678 C679 1.388 . S
C679 H666 0.930 . S
C679 C678 1.388 . S
C679 C680 1.390 . S
C680 C679 1.390 . S
C680 C681 1.394 . S
C680 C686 1.465 . S
C681 C676 1.399 . S
C681 C680 1.394 . S
C681 C682 1.516 . S
C682 C681 1.516 . S
C682 C683 1.502 . S
C682 C684 1.561 . S
C682 C685 1.526 . S
C683 H667 0.959 . S
C683 H668 0.959 . S
C683 H669 0.961 . S
C683 C682 1.502 . S
C684 H670 0.960 . S
C684 H671 0.961 . S
C684 H672 0.959 . S
C684 C682 1.561 . S
C685 C682 1.526 . S
C685 C686 1.396 . S
C685 C690 1.390 . S
C686 C680 1.465 . S
C686 C685 1.396 . S
C686 C687 1.399 . S
C687 H673 0.929 . S
C687 C686 1.399 . S
C687 C688 1.385 . S
C688 H674 0.931 . S
C688 C687 1.385 . S
C688 C689 1.389 . S
C689 C688 1.389 . S
C689 C690 1.387 . S
C690 H675 0.930 . S
C690 C685 1.390 . S
C690 C689 1.387 . S
H691 C703 0.930 . S
H692 C705 0.930 . S
H693 C706 0.930 . S
H694 C710 0.959 . S
H695 C710 0.959 . S
H696 C710 0.961 . S
H697 C711 0.960 . S
H698 C711 0.961 . S
H699 C711 0.959 . S
H700 C714 0.929 . S
H701 C715 0.931 . S
H702 C717 0.930 . S
C703 H691 0.930 . S
C703 C704 1.399 . S
C703 C708 1.399 . S
C704 C703 1.399 . S
C704 C705 1.376 . S
C705 H692 0.930 . S
C705 C704 1.376 . S
C705 C706 1.388 . S
C706 H693 0.930 . S
C706 C705 1.388 . S
C706 C707 1.390 . S
C707 C706 1.390 . S
C707 C708 1.394 . S
C707 C713 1.465 . S
C708 C703 1.399 . S
C708 C707 1.394 . S
C708 C709 1.516 . S
C709 C708 1.516 . S
C709 C710 1.502 . S
C709 C711 1.561 . S
C709 C712 1.526 . S
C710 H694 0.959 . S
C710 H695 0.959 . S
C710 H696 0.961 . S
C710 C709 1.502 . S
C711 H697 0.960 . S
C711 H698 0.961 . S
C711 H699 0.959 . S
C711 C709 1.561 . S
C712 C709 1.526 . S
C712 C713 1.396 . S
C712 C717 1.390 . S
C713 C707 1.465 . S
C713 C712 1.396 . S
C713 C714 1.399 . S
C714 H700 0.929 . S
C714 C713 1.399 . S
C714 C715 1.385 . S
C715 H701 0.931 . S
C715 C714 1.385 . S
C715 C716 1.389 . S
C716 C715 1.389 . S
C716 C717 1.387 . S
C717 H702 0.930 . S
C717 C712 1.390 . S
C717 C716 1.387 . S
H718 C730 0.930 . S
H719 C732 0.930 . S
H720 C733 0.930 . S
H721 C737 0.959 . S
H722 C737 0.959 . S
H723 C737 0.961 . S
H724 C738 0.960 . S
H725 C738 0.961 . S
H726 C738 0.959 . S
H727 C741 0.929 . S
H728 C742 0.931 . S
H729 C744 0.930 . S
C730 H718 0.930 . S
C730 C731 1.399 . S
C730 C735 1.399 . S
C731 C730 1.399 . S
C731 C732 1.376 . S
C732 H719 0.930 . S
C732 C731 1.376 . S
C732 C733 1.388 . S
C733 H720 0.930 . S
C733 C732 1.388 . S
C733 C734 1.390 . S
C734 C733 1.390 . S
C734 C735 1.394 . S
C734 C740 1.465 . S
C735 C730 1.399 . S
C735 C734 1.394 . S
C735 C736 1.516 . S
C736 C735 1.516 . S
C736 C737 1.502 . S
C736 C738 1.561 . S
C736 C739 1.526 . S
C737 H721 0.959 . S
C737 H722 0.959 . S
C737 H723 0.961 . S
C737 C736 1.502 . S
C738 H724 0.960 . S
C738 H725 0.961 . S
C738 H726 0.959 . S
C738 C736 1.561 . S
C739 C736 1.526 . S
C739 C740 1.396 . S
C739 C744 1.390 . S
C740 C734 1.465 . S
C740 C739 1.396 . S
C740 C741 1.399 . S
C741 H727 0.929 . S
C741 C740 1.399 . S
C741 C742 1.385 . S
C742 H728 0.931 . S
C742 C741 1.385 . S
C742 C743 1.389 . S
C743 C742 1.389 . S
C743 C744 1.387 . S
C744 H729 0.930 . S
C744 C739 1.390 . S
C744 C743 1.387 . S
H745 C757 0.930 . S
H746 C759 0.930 . S
H747 C760 0.930 . S
H748 C764 0.959 . S
H749 C764 0.959 . S
H750 C764 0.961 . S
H751 C765 0.960 . S
H752 C765 0.961 . S
H753 C765 0.959 . S
H754 C768 0.929 . S
H755 C769 0.931 . S
H756 C771 0.930 . S
C757 H745 0.930 . S
C757 C758 1.399 . S
C757 C762 1.399 . S
C758 C757 1.399 . S
C758 C759 1.376 . S
C759 H746 0.930 . S
C759 C758 1.376 . S
C759 C760 1.388 . S
C760 H747 0.930 . S
C760 C759 1.388 . S
C760 C761 1.390 . S
C761 C760 1.390 . S
C761 C762 1.394 . S
C761 C767 1.465 . S
C762 C757 1.399 . S
C762 C761 1.394 . S
C762 C763 1.516 . S
C763 C762 1.516 . S
C763 C764 1.502 . S
C763 C765 1.561 . S
C763 C766 1.526 . S
C764 H748 0.959 . S
C764 H749 0.959 . S
C764 H750 0.961 . S
C764 C763 1.502 . S
C765 H751 0.960 . S
C765 H752 0.961 . S
C765 H753 0.959 . S
C765 C763 1.561 . S
C766 C763 1.526 . S
C766 C767 1.396 . S
C766 C771 1.390 . S
C767 C761 1.465 . S
C767 C766 1.396 . S
C767 C768 1.399 . S
C768 H754 0.929 . S
C768 C767 1.399 . S
C768 C769 1.385 . S
C769 H755 0.931 . S
C769 C768 1.385 . S
C769 C770 1.389 . S
C770 C769 1.389 . S
C770 C771 1.387 . S
C771 H756 0.930 . S
C771 C766 1.390 . S
C771 C770 1.387 . S
H772 C784 0.930 . S
H773 C786 0.930 . S
H774 C787 0.930 . S
H775 C791 0.959 . S
H776 C791 0.959 . S
H777 C791 0.961 . S
H778 C792 0.960 . S
H779 C792 0.961 . S
H780 C792 0.959 . S
H781 C795 0.929 . S
H782 C796 0.931 . S
H783 C798 0.930 . S
C784 H772 0.930 . S
C784 C785 1.399 . S
C784 C789 1.399 . S
C785 C784 1.399 . S
C785 C786 1.376 . S
C786 H773 0.930 . S
C786 C785 1.376 . S
C786 C787 1.388 . S
C787 H774 0.930 . S
C787 C786 1.388 . S
C787 C788 1.390 . S
C788 C787 1.390 . S
C788 C789 1.394 . S
C788 C794 1.465 . S
C789 C784 1.399 . S
C789 C788 1.394 . S
C789 C790 1.516 . S
C790 C789 1.516 . S
C790 C791 1.502 . S
C790 C792 1.561 . S
C790 C793 1.526 . S
C791 H775 0.959 . S
C791 H776 0.959 . S
C791 H777 0.961 . S
C791 C790 1.502 . S
C792 H778 0.960 . S
C792 H779 0.961 . S
C792 H780 0.959 . S
C792 C790 1.561 . S
C793 C790 1.526 . S
C793 C794 1.396 . S
C793 C798 1.390 . S
C794 C788 1.465 . S
C794 C793 1.396 . S
C794 C795 1.399 . S
C795 H781 0.929 . S
C795 C794 1.399 . S
C795 C796 1.385 . S
C796 H782 0.931 . S
C796 C795 1.385 . S
C796 C797 1.389 . S
C797 C796 1.389 . S
C797 C798 1.387 . S
C798 H783 0.930 . S
C798 C793 1.390 . S
C798 C797 1.387 . S
H799 C811 0.930 . S
H800 C813 0.930 . S
H801 C814 0.930 . S
H802 C818 0.959 . S
H803 C818 0.959 . S
H804 C818 0.961 . S
H805 C819 0.960 . S
H806 C819 0.961 . S
H807 C819 0.959 . S
H808 C822 0.929 . S
H809 C823 0.931 . S
H810 C825 0.930 . S
C811 H799 0.930 . S
C811 C812 1.399 . S
C811 C816 1.399 . S
C812 C811 1.399 . S
C812 C813 1.376 . S
C813 H800 0.930 . S
C813 C812 1.376 . S
C813 C814 1.388 . S
C814 H801 0.930 . S
C814 C813 1.388 . S
C814 C815 1.390 . S
C815 C814 1.390 . S
C815 C816 1.394 . S
C815 C821 1.465 . S
C816 C811 1.399 . S
C816 C815 1.394 . S
C816 C817 1.516 . S
C817 C816 1.516 . S
C817 C818 1.502 . S
C817 C819 1.561 . S
C817 C820 1.526 . S
C818 H802 0.959 . S
C818 H803 0.959 . S
C818 H804 0.961 . S
C818 C817 1.502 . S
C819 H805 0.960 . S
C819 H806 0.961 . S
C819 H807 0.959 . S
C819 C817 1.561 . S
C820 C817 1.526 . S
C820 C821 1.396 . S
C820 C825 1.390 . S
C821 C815 1.465 . S
C821 C820 1.396 . S
C821 C822 1.399 . S
C822 H808 0.929 . S
C822 C821 1.399 . S
C822 C823 1.385 . S
C823 H809 0.931 . S
C823 C822 1.385 . S
C823 C824 1.389 . S
C824 C823 1.389 . S
C824 C825 1.387 . S
C825 H810 0.930 . S
C825 C820 1.390 . S
C825 C824 1.387 . S
H826 C838 0.930 . S
H827 C840 0.930 . S
H828 C841 0.930 . S
H829 C845 0.959 . S
H830 C845 0.959 . S
H831 C845 0.961 . S
H832 C846 0.960 . S
H833 C846 0.961 . S
H834 C846 0.959 . S
H835 C849 0.929 . S
H836 C850 0.931 . S
H837 C852 0.930 . S
C838 H826 0.930 . S
C838 C839 1.399 . S
C838 C843 1.399 . S
C839 C838 1.399 . S
C839 C840 1.376 . S
C840 H827 0.930 . S
C840 C839 1.376 . S
C840 C841 1.388 . S
C841 H828 0.930 . S
C841 C840 1.388 . S
C841 C842 1.390 . S
C842 C841 1.390 . S
C842 C843 1.394 . S
C842 C848 1.465 . S
C843 C838 1.399 . S
C843 C842 1.394 . S
C843 C844 1.516 . S
C844 C843 1.516 . S
C844 C845 1.502 . S
C844 C846 1.561 . S
C844 C847 1.526 . S
C845 H829 0.959 . S
C845 H830 0.959 . S
C845 H831 0.961 . S
C845 C844 1.502 . S
C846 H832 0.960 . S
C846 H833 0.961 . S
C846 H834 0.959 . S
C846 C844 1.561 . S
C847 C844 1.526 . S
C847 C848 1.396 . S
C847 C852 1.390 . S
C848 C842 1.465 . S
C848 C847 1.396 . S
C848 C849 1.399 . S
C849 H835 0.929 . S
C849 C848 1.399 . S
C849 C850 1.385 . S
C850 H836 0.931 . S
C850 C849 1.385 . S
C850 C851 1.389 . S
C851 C850 1.389 . S
C851 C852 1.387 . S
C852 H837 0.930 . S
C852 C847 1.390 . S
C852 C851 1.387 . S
H853 C865 0.930 . S
H854 C867 0.930 . S
H855 C868 0.930 . S
H856 C872 0.959 . S
H857 C872 0.959 . S
H858 C872 0.961 . S
H859 C873 0.960 . S
H860 C873 0.961 . S
H861 C873 0.959 . S
H862 C876 0.929 . S
H863 C877 0.931 . S
H864 C879 0.930 . S
C865 H853 0.930 . S
C865 C866 1.399 . S
C865 C870 1.399 . S
C866 C865 1.399 . S
C866 C867 1.376 . S
C867 H854 0.930 . S
C867 C866 1.376 . S
C867 C868 1.388 . S
C868 H855 0.930 . S
C868 C867 1.388 . S
C868 C869 1.390 . S
C869 C868 1.390 . S
C869 C870 1.394 . S
C869 C875 1.465 . S
C870 C865 1.399 . S
C870 C869 1.394 . S
C870 C871 1.516 . S
C871 C870 1.516 . S
C871 C872 1.502 . S
C871 C873 1.561 . S
C871 C874 1.526 . S
C872 H856 0.959 . S
C872 H857 0.959 . S
C872 H858 0.961 . S
C872 C871 1.502 . S
C873 H859 0.960 . S
C873 H860 0.961 . S
C873 H861 0.959 . S
C873 C871 1.561 . S
C874 C871 1.526 . S
C874 C875 1.396 . S
C874 C879 1.390 . S
C875 C869 1.465 . S
C875 C874 1.396 . S
C875 C876 1.399 . S
C876 H862 0.929 . S
C876 C875 1.399 . S
C876 C877 1.385 . S
C877 H863 0.931 . S
C877 C876 1.385 . S
C877 C878 1.389 . S
C878 C877 1.389 . S
C878 C879 1.387 . S
C879 H864 0.930 . S
C879 C874 1.390 . S
C879 C878 1.387 . S
H880 C892 0.930 . S
H881 C894 0.930 . S
H882 C895 0.930 . S
H883 C899 0.959 . S
H884 C899 0.959 . S
H885 C899 0.961 . S
H886 C900 0.960 . S
H887 C900 0.961 . S
H888 C900 0.959 . S
H889 C903 0.929 . S
H890 C904 0.931 . S
H891 C906 0.930 . S
C892 H880 0.930 . S
C892 C893 1.399 . S
C892 C897 1.399 . S
C893 C892 1.399 . S
C893 C894 1.376 . S
C894 H881 0.930 . S
C894 C893 1.376 . S
C894 C895 1.388 . S
C895 H882 0.930 . S
C895 C894 1.388 . S
C895 C896 1.390 . S
C896 C895 1.390 . S
C896 C897 1.394 . S
C896 C902 1.465 . S
C897 C892 1.399 . S
C897 C896 1.394 . S
C897 C898 1.516 . S
C898 C897 1.516 . S
C898 C899 1.502 . S
C898 C900 1.561 . S
C898 C901 1.526 . S
C899 H883 0.959 . S
C899 H884 0.959 . S
C899 H885 0.961 . S
C899 C898 1.502 . S
C900 H886 0.960 . S
C900 H887 0.961 . S
C900 H888 0.959 . S
C900 C898 1.561 . S
C901 C898 1.526 . S
C901 C902 1.396 . S
C901 C906 1.390 . S
C902 C896 1.465 . S
C902 C901 1.396 . S
C902 C903 1.399 . S
C903 H889 0.929 . S
C903 C902 1.399 . S
C903 C904 1.385 . S
C904 H890 0.931 . S
C904 C903 1.385 . S
C904 C905 1.389 . S
C905 C904 1.389 . S
C905 C906 1.387 . S
C906 H891 0.930 . S
C906 C901 1.390 . S
C906 C905 1.387 . S
H907 C919 0.930 . S
H908 C921 0.930 1_455 S
H909 C922 0.930 . S
H910 C926 0.959 . S
H911 C926 0.959 . S
H912 C926 0.961 . S
H913 C927 0.960 . S
H914 C927 0.961 . S
H915 C927 0.959 . S
H916 C930 0.929 . S
H917 C931 0.931 . S
H918 C933 0.930 . S
C919 H907 0.930 . S
C919 C920 1.399 1_655 S
C919 C924 1.399 . S
C920 C919 1.399 1_455 S
C920 C921 1.376 1_455 S
C921 H908 0.930 1_655 S
C921 C920 1.376 1_655 S
C921 C922 1.388 . S
C922 H909 0.930 . S
C922 C921 1.388 . S
C922 C923 1.390 . S
C923 C922 1.390 . S
C923 C924 1.394 . S
C923 C929 1.465 . S
C924 C919 1.399 . S
C924 C923 1.394 . S
C924 C925 1.516 . S
C925 C924 1.516 . S
C925 C926 1.502 . S
C925 C927 1.561 . S
C925 C928 1.526 . S
C926 H910 0.959 . S
C926 H911 0.959 . S
C926 H912 0.961 . S
C926 C925 1.502 . S
C927 H913 0.960 . S
C927 H914 0.961 . S
C927 H915 0.959 . S
C927 C925 1.561 . S
C928 C925 1.526 . S
C928 C929 1.396 . S
C928 C933 1.390 . S
C929 C923 1.465 . S
C929 C928 1.396 . S
C929 C930 1.399 . S
C930 H916 0.929 . S
C930 C929 1.399 . S
C930 C931 1.385 . S
C931 H917 0.931 . S
C931 C930 1.385 . S
C931 C932 1.389 . S
C932 C931 1.389 . S
C932 C933 1.387 . S
C933 H918 0.930 . S
C933 C928 1.390 . S
C933 C932 1.387 . S
H934 C946 0.930 . S
H935 C948 0.930 . S
H936 C949 0.930 . S
H937 C953 0.959 . S
H938 C953 0.959 . S
H939 C953 0.961 . S
H940 C954 0.960 . S
H941 C954 0.961 . S
H942 C954 0.959 . S
H943 C957 0.929 . S
H944 C958 0.931 . S
H945 C960 0.930 . S
C946 H934 0.930 . S
C946 C947 1.399 . S
C946 C951 1.399 . S
C947 C946 1.399 . S
C947 C948 1.376 . S
C948 H935 0.930 . S
C948 C947 1.376 . S
C948 C949 1.388 . S
C949 H936 0.930 . S
C949 C948 1.388 . S
C949 C950 1.390 . S
C950 C949 1.390 . S
C950 C951 1.394 . S
C950 C956 1.465 . S
C951 C946 1.399 . S
C951 C950 1.394 . S
C951 C952 1.516 . S
C952 C951 1.516 . S
C952 C953 1.502 . S
C952 C954 1.561 . S
C952 C955 1.526 . S
C953 H937 0.959 . S
C953 H938 0.959 . S
C953 H939 0.961 . S
C953 C952 1.502 . S
C954 H940 0.960 . S
C954 H941 0.961 . S
C954 H942 0.959 . S
C954 C952 1.561 . S
C955 C952 1.526 . S
C955 C956 1.396 . S
C955 C960 1.390 . S
C956 C950 1.465 . S
C956 C955 1.396 . S
C956 C957 1.399 . S
C957 H943 0.929 . S
C957 C956 1.399 . S
C957 C958 1.385 . S
C958 H944 0.931 . S
C958 C957 1.385 . S
C958 C959 1.389 . S
C959 C958 1.389 . S
C959 C960 1.387 . S
C960 H945 0.930 . S
C960 C955 1.390 . S
C960 C959 1.387 . S
H961 C973 0.930 . S
H962 C975 0.930 . S
H963 C976 0.930 . S
H964 C980 0.959 . S
H965 C980 0.959 . S
H966 C980 0.961 . S
H967 C981 0.960 . S
H968 C981 0.961 . S
H969 C981 0.959 . S
H970 C984 0.929 . S
H971 C985 0.931 . S
H972 C987 0.930 . S
C973 H961 0.930 . S
C973 C974 1.399 . S
C973 C978 1.399 . S
C974 C973 1.399 . S
C974 C975 1.376 . S
C975 H962 0.930 . S
C975 C974 1.376 . S
C975 C976 1.388 . S
C976 H963 0.930 . S
C976 C975 1.388 . S
C976 C977 1.390 . S
C977 C976 1.390 . S
C977 C978 1.394 . S
C977 C983 1.465 . S
C978 C973 1.399 . S
C978 C977 1.394 . S
C978 C979 1.516 . S
C979 C978 1.516 . S
C979 C980 1.502 . S
C979 C981 1.561 . S
C979 C982 1.526 . S
C980 H964 0.959 . S
C980 H965 0.959 . S
C980 H966 0.961 . S
C980 C979 1.502 . S
C981 H967 0.960 . S
C981 H968 0.961 . S
C981 H969 0.959 . S
C981 C979 1.561 . S
C982 C979 1.526 . S
C982 C983 1.396 . S
C982 C987 1.390 . S
C983 C977 1.465 . S
C983 C982 1.396 . S
C983 C984 1.399 . S
C984 H970 0.929 . S
C984 C983 1.399 . S
C984 C985 1.385 . S
C985 H971 0.931 . S
C985 C984 1.385 . S
C985 C986 1.391 . S
C986 C985 1.391 . S
C986 C987 1.389 . S
C987 H972 0.930 . S
C987 C982 1.390 . S
C987 C986 1.389 . S
H988 C1000 0.930 . S
H989 C1002 0.930 . S
H990 C1003 0.930 . S
H991 C1007 0.959 . S
H992 C1007 0.959 . S
H993 C1007 0.961 . S
H994 C1008 0.960 . S
H995 C1008 0.961 . S
H996 C1008 0.959 . S
H997 C1011 0.929 . S
H998 C1012 0.931 . S
H999 C1014 0.930 . S
C1000 H988 0.930 . S
C1000 C1001 1.399 . S
C1000 C1005 1.399 . S
C1001 C1000 1.399 . S
C1001 C1002 1.376 . S
C1002 H989 0.930 . S
C1002 C1001 1.376 . S
C1002 C1003 1.388 . S
C1003 H990 0.930 . S
C1003 C1002 1.388 . S
C1003 C1004 1.390 . S
C1004 C1003 1.390 . S
C1004 C1005 1.394 . S
C1004 C1010 1.465 . S
C1005 C1000 1.399 . S
C1005 C1004 1.394 . S
C1005 C1006 1.516 . S
C1006 C1005 1.516 . S
C1006 C1007 1.502 . S
C1006 C1008 1.561 . S
C1006 C1009 1.526 . S
C1007 H991 0.959 . S
C1007 H992 0.959 . S
C1007 H993 0.961 . S
C1007 C1006 1.502 . S
C1008 H994 0.960 . S
C1008 H995 0.961 . S
C1008 H996 0.959 . S
C1008 C1006 1.561 . S
C1009 C1006 1.526 . S
C1009 C1010 1.396 . S
C1009 C1014 1.390 . S
C1010 C1004 1.465 . S
C1010 C1009 1.396 . S
C1010 C1011 1.399 . S
C1011 H997 0.929 . S
C1011 C1010 1.399 . S
C1011 C1012 1.385 . S
C1012 H998 0.931 . S
C1012 C1011 1.385 . S
C1012 C1013 1.389 . S
C1013 C1012 1.389 . S
C1013 C1014 1.387 . S
C1014 H999 0.930 . S
C1014 C1009 1.390 . S
C1014 C1013 1.387 . S
H1015 C1027 0.930 . S
H1016 C1029 0.930 1_655 S
H1017 C1030 0.930 . S
H1018 C1034 0.959 . S
H1019 C1034 0.959 . S
H1020 C1034 0.961 . S
H1021 C1035 0.960 . S
H1022 C1035 0.961 . S
H1023 C1035 0.959 . S
H1024 C1038 0.929 . S
H1025 C1039 0.931 . S
H1026 C1041 0.930 . S
C1027 H1015 0.930 . S
C1027 C1028 1.399 1_455 S
C1027 C1032 1.399 . S
C1028 C1027 1.399 1_655 S
C1028 C1029 1.376 1_655 S
C1029 H1016 0.930 1_455 S
C1029 C1028 1.376 1_455 S
C1029 C1030 1.388 . S
C1030 H1017 0.930 . S
C1030 C1029 1.388 . S
C1030 C1031 1.390 . S
C1031 C1030 1.390 . S
C1031 C1032 1.394 . S
C1031 C1037 1.465 . S
C1032 C1027 1.399 . S
C1032 C1031 1.394 . S
C1032 C1033 1.516 . S
C1033 C1032 1.516 . S
C1033 C1034 1.502 . S
C1033 C1035 1.561 . S
C1033 C1036 1.526 . S
C1034 H1018 0.959 . S
C1034 H1019 0.959 . S
C1034 H1020 0.961 . S
C1034 C1033 1.502 . S
C1035 H1021 0.960 . S
C1035 H1022 0.961 . S
C1035 H1023 0.959 . S
C1035 C1033 1.561 . S
C1036 C1033 1.526 . S
C1036 C1037 1.396 . S
C1036 C1041 1.390 . S
C1037 C1031 1.465 . S
C1037 C1036 1.396 . S
C1037 C1038 1.399 . S
C1038 H1024 0.929 . S
C1038 C1037 1.399 . S
C1038 C1039 1.385 . S
C1039 H1025 0.931 . S
C1039 C1038 1.385 . S
C1039 C1040 1.389 . S
C1040 C1039 1.389 . S
C1040 C1041 1.387 . S
C1041 H1026 0.930 . S
C1041 C1036 1.390 . S
C1041 C1040 1.387 . S
H1042 C1054 0.930 . S
H1043 C1056 0.930 . S
H1044 C1057 0.930 . S
H1045 C1061 0.959 . S
H1046 C1061 0.959 . S
H1047 C1061 0.961 . S
H1048 C1062 0.960 . S
H1049 C1062 0.961 . S
H1050 C1062 0.959 . S
H1051 C1065 0.929 . S
H1052 C1066 0.931 . S
H1053 C1068 0.930 . S
C1054 H1042 0.930 . S
C1054 C1055 1.399 . S
C1054 C1059 1.399 . S
C1055 C1054 1.399 . S
C1055 C1056 1.376 . S
C1056 H1043 0.930 . S
C1056 C1055 1.376 . S
C1056 C1057 1.388 . S
C1057 H1044 0.930 . S
C1057 C1056 1.388 . S
C1057 C1058 1.390 . S
C1058 C1057 1.390 . S
C1058 C1059 1.394 . S
C1058 C1064 1.465 . S
C1059 C1054 1.399 . S
C1059 C1058 1.394 . S
C1059 C1060 1.516 . S
C1060 C1059 1.516 . S
C1060 C1061 1.502 . S
C1060 C1062 1.561 . S
C1060 C1063 1.526 . S
C1061 H1045 0.959 . S
C1061 H1046 0.959 . S
C1061 H1047 0.961 . S
C1061 C1060 1.502 . S
C1062 H1048 0.960 . S
C1062 H1049 0.961 . S
C1062 H1050 0.959 . S
C1062 C1060 1.561 . S
C1063 C1060 1.526 . S
C1063 C1064 1.396 . S
C1063 C1068 1.390 . S
C1064 C1058 1.465 . S
C1064 C1063 1.396 . S
C1064 C1065 1.399 . S
C1065 H1051 0.929 . S
C1065 C1064 1.399 . S
C1065 C1066 1.385 . S
C1066 H1052 0.931 . S
C1066 C1065 1.385 . S
C1066 C1067 1.389 . S
C1067 C1066 1.389 . S
C1067 C1068 1.387 . S
C1068 H1053 0.930 . S
C1068 C1063 1.390 . S
C1068 C1067 1.387 . S
H1069 C1081 0.930 . S
H1070 C1083 0.930 . S
H1071 C1084 0.930 . S
H1072 C1088 0.959 . S
H1073 C1088 0.959 . S
H1074 C1088 0.961 . S
H1075 C1089 0.960 . S
H1076 C1089 0.961 . S
H1077 C1089 0.959 . S
H1078 C1092 0.929 . S
H1079 C1093 0.931 . S
H1080 C1095 0.930 . S
C1081 H1069 0.930 . S
C1081 C1082 1.407 . S
C1081 C1086 1.399 . S
C1082 C1081 1.407 . S
C1082 C1083 1.382 . S
C1083 H1070 0.930 . S
C1083 C1082 1.382 . S
C1083 C1084 1.388 . S
C1084 H1071 0.930 . S
C1084 C1083 1.388 . S
C1084 C1085 1.390 . S
C1085 C1084 1.390 . S
C1085 C1086 1.394 . S
C1085 C1091 1.465 . S
C1086 C1081 1.399 . S
C1086 C1085 1.394 . S
C1086 C1087 1.516 . S
C1087 C1086 1.516 . S
C1087 C1088 1.502 . S
C1087 C1089 1.561 . S
C1087 C1090 1.526 . S
C1088 H1072 0.959 . S
C1088 H1073 0.959 . S
C1088 H1074 0.961 . S
C1088 C1087 1.502 . S
C1089 H1075 0.960 . S
C1089 H1076 0.961 . S
C1089 H1077 0.959 . S
C1089 C1087 1.561 . S
C1090 C1087 1.526 . S
C1090 C1091 1.396 . S
C1090 C1095 1.390 . S
C1091 C1085 1.465 . S
C1091 C1090 1.396 . S
C1091 C1092 1.399 . S
C1092 H1078 0.929 . S
C1092 C1091 1.399 . S
C1092 C1093 1.385 . S
C1093 H1079 0.931 . S
C1093 C1092 1.385 . S
C1093 C1094 1.389 . S
C1094 C1093 1.389 . S
C1094 C1095 1.387 . S
C1095 H1080 0.930 . S
C1095 C1090 1.390 . S
C1095 C1094 1.387 . S
H1096 C1108 0.930 . S
H1097 C1110 0.930 . S
H1098 C1111 0.930 . S
H1099 C1115 0.959 . S
H1100 C1115 0.959 . S
H1101 C1115 0.961 . S
H1102 C1116 0.960 . S
H1103 C1116 0.961 . S
H1104 C1116 0.959 . S
H1105 C1119 0.929 . S
H1106 C1120 0.931 . S
H1107 C1122 0.930 . S
C1108 H1096 0.930 . S
C1108 C1109 1.399 . S
C1108 C1113 1.399 . S
C1109 C1108 1.399 . S
C1109 C1110 1.376 . S
C1110 H1097 0.930 . S
C1110 C1109 1.376 . S
C1110 C1111 1.388 . S
C1111 H1098 0.930 . S
C1111 C1110 1.388 . S
C1111 C1112 1.390 . S
C1112 C1111 1.390 . S
C1112 C1113 1.394 . S
C1112 C1118 1.465 . S
C1113 C1108 1.399 . S
C1113 C1112 1.394 . S
C1113 C1114 1.516 . S
C1114 C1113 1.516 . S
C1114 C1115 1.502 . S
C1114 C1116 1.561 . S
C1114 C1117 1.526 . S
C1115 H1099 0.959 . S
C1115 H1100 0.959 . S
C1115 H1101 0.961 . S
C1115 C1114 1.502 . S
C1116 H1102 0.960 . S
C1116 H1103 0.961 . S
C1116 H1104 0.959 . S
C1116 C1114 1.561 . S
C1117 C1114 1.526 . S
C1117 C1118 1.396 . S
C1117 C1122 1.390 . S
C1118 C1112 1.465 . S
C1118 C1117 1.396 . S
C1118 C1119 1.399 . S
C1119 H1105 0.929 . S
C1119 C1118 1.399 . S
C1119 C1120 1.385 . S
C1120 H1106 0.931 . S
C1120 C1119 1.385 . S
C1120 C1121 1.389 . S
C1121 C1120 1.389 . S
C1121 C1122 1.387 . S
C1122 H1107 0.930 . S
C1122 C1117 1.390 . S
C1122 C1121 1.387 . S
H1123 C1135 0.930 . S
H1124 C1137 0.930 . S
H1125 C1138 0.930 . S
H1126 C1142 0.959 . S
H1127 C1142 0.959 . S
H1128 C1142 0.961 . S
H1129 C1143 0.960 . S
H1130 C1143 0.961 . S
H1131 C1143 0.959 . S
H1132 C1146 0.929 . S
H1133 C1147 0.931 1_455 S
H1134 C1149 0.930 . S
C1135 H1123 0.930 . S
C1135 C1136 1.399 . S
C1135 C1140 1.399 . S
C1136 C1135 1.399 . S
C1136 C1137 1.376 . S
C1137 H1124 0.930 . S
C1137 C1136 1.376 . S
C1137 C1138 1.388 . S
C1138 H1125 0.930 . S
C1138 C1137 1.388 . S
C1138 C1139 1.390 . S
C1139 C1138 1.390 . S
C1139 C1140 1.394 . S
C1139 C1145 1.465 . S
C1140 C1135 1.399 . S
C1140 C1139 1.394 . S
C1140 C1141 1.516 . S
C1141 C1140 1.516 . S
C1141 C1142 1.502 . S
C1141 C1143 1.561 . S
C1141 C1144 1.526 . S
C1142 H1126 0.959 . S
C1142 H1127 0.959 . S
C1142 H1128 0.961 . S
C1142 C1141 1.502 . S
C1143 H1129 0.960 . S
C1143 H1130 0.961 . S
C1143 H1131 0.959 . S
C1143 C1141 1.561 . S
C1144 C1141 1.526 . S
C1144 C1145 1.396 . S
C1144 C1149 1.390 . S
C1145 C1139 1.465 . S
C1145 C1144 1.396 . S
C1145 C1146 1.399 . S
C1146 H1132 0.929 . S
C1146 C1145 1.399 . S
C1146 C1147 1.385 . S
C1147 H1133 0.931 1_655 S
C1147 C1146 1.385 . S
C1147 C1148 1.384 1_655 S
C1148 C1147 1.384 1_455 S
C1148 C1149 1.373 1_455 S
C1149 H1134 0.930 . S
C1149 C1144 1.390 . S
C1149 C1148 1.373 1_655 S
H1150 C1162 0.930 . S
H1151 C1164 0.930 . S
H1152 C1165 0.930 . S
H1153 C1169 0.959 . S
H1154 C1169 0.959 . S
H1155 C1169 0.961 . S
H1156 C1170 0.960 . S
H1157 C1170 0.961 . S
H1158 C1170 0.959 . S
H1159 C1173 0.929 . S
H1160 C1174 0.931 . S
H1161 C1176 0.930 . S
C1162 H1150 0.930 . S
C1162 C1163 1.399 . S
C1162 C1167 1.399 . S
C1163 C1162 1.399 . S
C1163 C1164 1.376 . S
C1164 H1151 0.930 . S
C1164 C1163 1.376 . S
C1164 C1165 1.388 . S
C1165 H1152 0.930 . S
C1165 C1164 1.388 . S
C1165 C1166 1.390 . S
C1166 C1165 1.390 . S
C1166 C1167 1.394 . S
C1166 C1172 1.465 . S
C1167 C1162 1.399 . S
C1167 C1166 1.394 . S
C1167 C1168 1.516 . S
C1168 C1167 1.516 . S
C1168 C1169 1.502 . S
C1168 C1170 1.561 . S
C1168 C1171 1.526 . S
C1169 H1153 0.959 . S
C1169 H1154 0.959 . S
C1169 H1155 0.961 . S
C1169 C1168 1.502 . S
C1170 H1156 0.960 . S
C1170 H1157 0.961 . S
C1170 H1158 0.959 . S
C1170 C1168 1.561 . S
C1171 C1168 1.526 . S
C1171 C1172 1.396 . S
C1171 C1176 1.390 . S
C1172 C1166 1.465 . S
C1172 C1171 1.396 . S
C1172 C1173 1.399 . S
C1173 H1159 0.929 . S
C1173 C1172 1.399 . S
C1173 C1174 1.385 . S
C1174 H1160 0.931 . S
C1174 C1173 1.385 . S
C1174 C1175 1.389 . S
C1175 C1174 1.389 . S
C1175 C1176 1.387 . S
C1176 H1161 0.930 . S
C1176 C1171 1.390 . S
C1176 C1175 1.387 . S
H1177 C1189 0.930 . S
H1178 C1191 0.930 . S
H1179 C1192 0.930 . S
H1180 C1196 0.959 . S
H1181 C1196 0.959 . S
H1182 C1196 0.961 . S
H1183 C1197 0.960 . S
H1184 C1197 0.961 . S
H1185 C1197 0.959 . S
H1186 C1200 0.929 . S
H1187 C1201 0.931 1_455 S
H1188 C1203 0.930 . S
C1189 H1177 0.930 . S
C1189 C1190 1.399 . S
C1189 C1194 1.399 . S
C1190 C1189 1.399 . S
C1190 C1191 1.376 . S
C1191 H1178 0.930 . S
C1191 C1190 1.376 . S
C1191 C1192 1.388 . S
C1192 H1179 0.930 . S
C1192 C1191 1.388 . S
C1192 C1193 1.390 . S
C1193 C1192 1.390 . S
C1193 C1194 1.394 . S
C1193 C1199 1.465 . S
C1194 C1189 1.399 . S
C1194 C1193 1.394 . S
C1194 C1195 1.516 . S
C1195 C1194 1.516 . S
C1195 C1196 1.502 . S
C1195 C1197 1.561 . S
C1195 C1198 1.526 . S
C1196 H1180 0.959 . S
C1196 H1181 0.959 . S
C1196 H1182 0.961 . S
C1196 C1195 1.502 . S
C1197 H1183 0.960 . S
C1197 H1184 0.961 . S
C1197 H1185 0.959 . S
C1197 C1195 1.561 . S
C1198 C1195 1.526 . S
C1198 C1199 1.396 . S
C1198 C1203 1.390 . S
C1199 C1193 1.465 . S
C1199 C1198 1.396 . S
C1199 C1200 1.399 . S
C1200 H1186 0.929 . S
C1200 C1199 1.399 . S
C1200 C1201 1.385 . S
C1201 H1187 0.931 1_655 S
C1201 C1200 1.385 . S
C1201 C1202 1.384 1_655 S
C1202 C1201 1.384 1_455 S
C1202 C1203 1.373 1_455 S
C1203 H1188 0.930 . S
C1203 C1198 1.390 . S
C1203 C1202 1.373 1_655 S
H1204 C1216 0.930 . S
H1205 C1218 0.930 . S
H1206 C1219 0.930 . S
H1207 C1223 0.959 . S
H1208 C1223 0.959 . S
H1209 C1223 0.961 . S
H1210 C1224 0.960 . S
H1211 C1224 0.961 . S
H1212 C1224 0.959 . S
H1213 C1227 0.929 . S
H1214 C1228 0.931 . S
H1215 C1230 0.930 . S
C1216 H1204 0.930 . S
C1216 C1217 1.399 . S
C1216 C1221 1.399 . S
C1217 C1216 1.399 . S
C1217 C1218 1.376 . S
C1218 H1205 0.930 . S
C1218 C1217 1.376 . S
C1218 C1219 1.388 . S
C1219 H1206 0.930 . S
C1219 C1218 1.388 . S
C1219 C1220 1.390 . S
C1220 C1219 1.390 . S
C1220 C1221 1.394 . S
C1220 C1226 1.465 . S
C1221 C1216 1.399 . S
C1221 C1220 1.394 . S
C1221 C1222 1.516 . S
C1222 C1221 1.516 . S
C1222 C1223 1.502 . S
C1222 C1224 1.561 . S
C1222 C1225 1.526 . S
C1223 H1207 0.959 . S
C1223 H1208 0.959 . S
C1223 H1209 0.961 . S
C1223 C1222 1.502 . S
C1224 H1210 0.960 . S
C1224 H1211 0.961 . S
C1224 H1212 0.959 . S
C1224 C1222 1.561 . S
C1225 C1222 1.526 . S
C1225 C1226 1.396 . S
C1225 C1230 1.390 . S
C1226 C1220 1.465 . S
C1226 C1225 1.396 . S
C1226 C1227 1.399 . S
C1227 H1213 0.929 . S
C1227 C1226 1.399 . S
C1227 C1228 1.385 . S
C1228 H1214 0.931 . S
C1228 C1227 1.385 . S
C1228 C1229 1.389 . S
C1229 C1228 1.389 . S
C1229 C1230 1.387 . S
C1230 H1215 0.930 . S
C1230 C1225 1.390 . S
C1230 C1229 1.387 . S
H1231 C1243 0.930 . S
H1232 C1245 0.930 . S
H1233 C1246 0.930 . S
H1234 C1250 0.959 . S
H1235 C1250 0.959 . S
H1236 C1250 0.961 . S
H1237 C1251 0.960 . S
H1238 C1251 0.961 . S
H1239 C1251 0.959 . S
H1240 C1254 0.929 . S
H1241 C1255 0.931 . S
H1242 C1257 0.930 . S
C1243 H1231 0.930 . S
C1243 C1244 1.399 . S
C1243 C1248 1.399 . S
C1244 C1243 1.399 . S
C1244 C1245 1.376 . S
C1245 H1232 0.930 . S
C1245 C1244 1.376 . S
C1245 C1246 1.388 . S
C1246 H1233 0.930 . S
C1246 C1245 1.388 . S
C1246 C1247 1.390 . S
C1247 C1246 1.390 . S
C1247 C1248 1.394 . S
C1247 C1253 1.465 . S
C1248 C1243 1.399 . S
C1248 C1247 1.394 . S
C1248 C1249 1.516 . S
C1249 C1248 1.516 . S
C1249 C1250 1.502 . S
C1249 C1251 1.561 . S
C1249 C1252 1.526 . S
C1250 H1234 0.959 . S
C1250 H1235 0.959 . S
C1250 H1236 0.961 . S
C1250 C1249 1.502 . S
C1251 H1237 0.960 . S
C1251 H1238 0.961 . S
C1251 H1239 0.959 . S
C1251 C1249 1.561 . S
C1252 C1249 1.526 . S
C1252 C1253 1.396 . S
C1252 C1257 1.390 . S
C1253 C1247 1.465 . S
C1253 C1252 1.396 . S
C1253 C1254 1.399 . S
C1254 H1240 0.929 . S
C1254 C1253 1.399 . S
C1254 C1255 1.385 . S
C1255 H1241 0.931 . S
C1255 C1254 1.385 . S
C1255 C1256 1.389 . S
C1256 C1255 1.389 . S
C1256 C1257 1.387 . S
C1257 H1242 0.930 . S
C1257 C1252 1.390 . S
C1257 C1256 1.387 . S
H1258 C1270 0.930 . S
H1259 C1272 0.930 . S
H1260 C1273 0.930 . S
H1261 C1277 0.959 . S
H1262 C1277 0.959 . S
H1263 C1277 0.961 . S
H1264 C1278 0.960 . S
H1265 C1278 0.961 . S
H1266 C1278 0.959 . S
H1267 C1281 0.929 . S
H1268 C1282 0.931 . S
H1269 C1284 0.930 . S
C1270 H1258 0.930 . S
C1270 C1271 1.399 . S
C1270 C1275 1.399 . S
C1271 C1270 1.399 . S
C1271 C1272 1.376 . S
C1272 H1259 0.930 . S
C1272 C1271 1.376 . S
C1272 C1273 1.388 . S
C1273 H1260 0.930 . S
C1273 C1272 1.388 . S
C1273 C1274 1.390 . S
C1274 C1273 1.390 . S
C1274 C1275 1.394 . S
C1274 C1280 1.465 . S
C1275 C1270 1.399 . S
C1275 C1274 1.394 . S
C1275 C1276 1.516 . S
C1276 C1275 1.516 . S
C1276 C1277 1.502 . S
C1276 C1278 1.561 . S
C1276 C1279 1.526 . S
C1277 H1261 0.959 . S
C1277 H1262 0.959 . S
C1277 H1263 0.961 . S
C1277 C1276 1.502 . S
C1278 H1264 0.960 . S
C1278 H1265 0.961 . S
C1278 H1266 0.959 . S
C1278 C1276 1.561 . S
C1279 C1276 1.526 . S
C1279 C1280 1.396 . S
C1279 C1284 1.390 . S
C1280 C1274 1.465 . S
C1280 C1279 1.396 . S
C1280 C1281 1.399 . S
C1281 H1267 0.929 . S
C1281 C1280 1.399 . S
C1281 C1282 1.385 . S
C1282 H1268 0.931 . S
C1282 C1281 1.385 . S
C1282 C1283 1.389 . S
C1283 C1282 1.389 . S
C1283 C1284 1.387 . S
C1284 H1269 0.930 . S
C1284 C1279 1.390 . S
C1284 C1283 1.387 . S
H1285 C1297 0.930 . S
H1286 C1299 0.930 . S
H1287 C1300 0.930 . S
H1288 C1304 0.959 . S
H1289 C1304 0.959 . S
H1290 C1304 0.961 . S
H1291 C1305 0.960 . S
H1292 C1305 0.961 . S
H1293 C1305 0.959 . S
H1294 C1308 0.929 . S
H1295 C1309 0.931 . S
H1296 C1311 0.930 . S
C1297 H1285 0.930 . S
C1297 C1298 1.409 . S
C1297 C1302 1.399 . S
C1298 C1297 1.409 . S
C1298 C1299 1.385 . S
C1299 H1286 0.930 . S
C1299 C1298 1.385 . S
C1299 C1300 1.388 . S
C1300 H1287 0.930 . S
C1300 C1299 1.388 . S
C1300 C1301 1.390 . S
C1301 C1300 1.390 . S
C1301 C1302 1.394 . S
C1301 C1307 1.465 . S
C1302 C1297 1.399 . S
C1302 C1301 1.394 . S
C1302 C1303 1.516 . S
C1303 C1302 1.516 . S
C1303 C1304 1.502 . S
C1303 C1305 1.561 . S
C1303 C1306 1.526 . S
C1304 H1288 0.959 . S
C1304 H1289 0.959 . S
C1304 H1290 0.961 . S
C1304 C1303 1.502 . S
C1305 H1291 0.960 . S
C1305 H1292 0.961 . S
C1305 H1293 0.959 . S
C1305 C1303 1.561 . S
C1306 C1303 1.526 . S
C1306 C1307 1.396 . S
C1306 C1311 1.390 . S
C1307 C1301 1.465 . S
C1307 C1306 1.396 . S
C1307 C1308 1.399 . S
C1308 H1294 0.929 . S
C1308 C1307 1.399 . S
C1308 C1309 1.385 . S
C1309 H1295 0.931 . S
C1309 C1308 1.385 . S
C1309 C1310 1.389 . S
C1310 C1309 1.389 . S
C1310 C1311 1.387 . S
C1311 H1296 0.930 . S
C1311 C1306 1.390 . S
C1311 C1310 1.387 . S
H1312 C1324 0.930 . S
H1313 C1326 0.930 . S
H1314 C1327 0.930 . S
H1315 C1331 0.959 . S
H1316 C1331 0.959 . S
H1317 C1331 0.961 . S
H1318 C1332 0.960 . S
H1319 C1332 0.961 . S
H1320 C1332 0.959 1_455 S
H1321 C1335 0.929 . S
H1322 C1336 0.931 . S
H1323 C1338 0.930 1_655 S
C1324 H1312 0.930 . S
C1324 C1325 1.399 . S
C1324 C1329 1.399 . S
C1325 C1324 1.399 . S
C1325 C1326 1.376 1_655 S
C1326 H1313 0.930 . S
C1326 C1325 1.376 1_455 S
C1326 C1327 1.388 . S
C1327 H1314 0.930 . S
C1327 C1326 1.388 . S
C1327 C1328 1.390 . S
C1328 C1327 1.390 . S
C1328 C1329 1.394 1_455 S
C1328 C1334 1.465 . S
C1329 C1324 1.399 . S
C1329 C1328 1.394 1_655 S
C1329 C1330 1.516 . S
C1330 C1329 1.516 . S
C1330 C1331 1.502 . S
C1330 C1332 1.561 . S
C1330 C1333 1.526 1_655 S
C1331 H1315 0.959 . S
C1331 H1316 0.959 . S
C1331 H1317 0.961 . S
C1331 C1330 1.502 . S
C1332 H1318 0.960 . S
C1332 H1319 0.961 . S
C1332 H1320 0.959 1_655 S
C1332 C1330 1.561 . S
C1333 C1330 1.526 1_455 S
C1333 C1334 1.396 . S
C1333 C1338 1.390 . S
C1334 C1328 1.465 . S
C1334 C1333 1.396 . S
C1334 C1335 1.399 . S
C1335 H1321 0.929 . S
C1335 C1334 1.399 . S
C1335 C1336 1.385 . S
C1336 H1322 0.931 . S
C1336 C1335 1.385 . S
C1336 C1337 1.389 . S
C1337 C1336 1.389 . S
C1337 C1338 1.387 . S
C1338 H1323 0.930 1_455 S
C1338 C1333 1.390 . S
C1338 C1337 1.387 . S
H1339 C1351 0.930 . S
H1340 C1353 0.930 . S
H1341 C1354 0.930 1_545 S
H1342 C1358 0.959 . S
H1343 C1358 0.959 . S
H1344 C1358 0.961 . S
H1345 C1359 0.960 . S
H1346 C1359 0.961 . S
H1347 C1359 0.959 . S
H1348 C1362 0.929 . S
H1349 C1363 0.931 . S
H1350 C1365 0.930 . S
C1351 H1339 0.930 . S
C1351 C1352 1.399 . S
C1351 C1356 1.399 . S
C1352 C1351 1.399 . S
C1352 C1353 1.376 . S
C1353 H1340 0.930 . S
C1353 C1352 1.376 . S
C1353 C1354 1.388 . S
C1354 H1341 0.930 1_565 S
C1354 C1353 1.388 . S
C1354 C1355 1.390 . S
C1355 C1354 1.390 . S
C1355 C1356 1.394 . S
C1355 C1361 1.465 1_565 S
C1356 C1351 1.399 . S
C1356 C1355 1.394 . S
C1356 C1357 1.516 . S
C1357 C1356 1.516 . S
C1357 C1358 1.502 . S
C1357 C1359 1.561 . S
C1357 C1360 1.526 1_565 S
C1358 H1342 0.959 . S
C1358 H1343 0.959 . S
C1358 H1344 0.961 . S
C1358 C1357 1.502 . S
C1359 H1345 0.960 . S
C1359 H1346 0.961 . S
C1359 H1347 0.959 . S
C1359 C1357 1.561 . S
C1360 C1357 1.526 1_545 S
C1360 C1361 1.396 . S
C1360 C1365 1.390 . S
C1361 C1355 1.465 1_545 S
C1361 C1360 1.396 . S
C1361 C1362 1.399 . S
C1362 H1348 0.929 . S
C1362 C1361 1.399 . S
C1362 C1363 1.385 . S
C1363 H1349 0.931 . S
C1363 C1362 1.385 . S
C1363 C1364 1.389 . S
C1364 C1363 1.389 . S
C1364 C1365 1.387 . S
C1365 H1350 0.930 . S
C1365 C1360 1.390 . S
C1365 C1364 1.387 . S
H1366 C1378 0.930 1_455 S
H1367 C1380 0.930 . S
H1368 C1381 0.930 1_565 S
H1369 C1385 0.959 1_655 S
H1370 C1385 0.959 . S
H1371 C1385 0.961 . S
H1372 C1386 0.960 . S
H1373 C1386 0.961 . S
H1374 C1386 0.959 1_554 S
H1375 C1389 0.929 . S
H1376 C1390 0.931 . S
H1377 C1392 0.930 . S
C1378 H1366 0.930 1_655 S
C1378 C1379 1.399 . S
C1378 C1383 1.399 1_655 S
C1379 C1378 1.399 . S
C1379 C1380 1.376 . S
C1380 H1367 0.930 . S
C1380 C1379 1.376 . S
C1380 C1381 1.388 . S
C1381 H1368 0.930 1_545 S
C1381 C1380 1.388 . S
C1381 C1382 1.390 . S
C1382 C1381 1.390 . S
C1382 C1383 1.394 1_655 S
C1382 C1388 1.468 1_545 S
C1383 C1378 1.399 1_455 S
C1383 C1382 1.394 1_455 S
C1383 C1384 1.516 1_554 S
C1384 C1383 1.516 1_556 S
C1384 C1385 1.502 . S
C1384 C1386 1.561 . S
C1384 C1387 1.526 1_545 S
C1385 H1369 0.959 1_455 S
C1385 H1370 0.959 . S
C1385 H1371 0.961 . S
C1385 C1384 1.502 . S
C1386 H1372 0.960 . S
C1386 H1373 0.961 . S
C1386 H1374 0.959 1_556 S
C1386 C1384 1.561 . S
C1387 C1384 1.526 1_565 S
C1387 C1388 1.391 1_456 S
C1387 C1392 1.390 . S
C1388 C1382 1.468 1_565 S
C1388 C1387 1.391 1_654 S
C1388 C1389 1.401 . S
C1389 H1375 0.929 . S
C1389 C1388 1.401 . S
C1389 C1390 1.385 1_654 S
C1390 H1376 0.931 . S
C1390 C1389 1.385 1_456 S
C1390 C1391 1.389 . S
C1391 C1390 1.389 . S
C1391 C1392 1.387 . S
C1392 H1377 0.930 . S
C1392 C1387 1.390 . S
C1392 C1391 1.387 . S
H1393 C1405 0.930 1_556 S
H1394 C1407 0.930 . S
H1395 C1408 0.930 . S
H1396 C1412 0.959 . S
H1397 C1412 0.959 . S
H1398 C1412 0.961 . S
H1399 C1413 0.960 . S
H1400 C1413 0.961 . S
H1401 C1413 0.959 . S
H1402 C1416 0.929 . S
H1403 C1417 0.931 1_554 S
H1404 C1419 0.930 . S
C1405 H1393 0.930 1_554 S
C1405 C1406 1.399 . S
C1405 C1410 1.397 1_554 S
C1406 C1405 1.399 . S
C1406 C1407 1.376 . S
C1407 H1394 0.930 . S
C1407 C1406 1.376 . S
C1407 C1408 1.388 . S
C1408 H1395 0.930 . S
C1408 C1407 1.388 . S
C1408 C1409 1.390 . S
C1409 C1408 1.390 . S
C1409 C1410 1.388 1_554 S
C1409 C1415 1.465 . S
C1410 C1405 1.397 1_556 S
C1410 C1409 1.388 1_556 S
C1410 C1411 1.523 . S
C1411 C1410 1.523 . S
C1411 C1412 1.502 . S
C1411 C1413 1.561 . S
C1411 C1414 1.526 . S
C1412 H1396 0.959 . S
C1412 H1397 0.959 . S
C1412 H1398 0.961 . S
C1412 C1411 1.502 . S
C1413 H1399 0.960 . S
C1413 H1400 0.961 . S
C1413 H1401 0.959 . S
C1413 C1411 1.561 . S
C1414 C1411 1.526 . S
C1414 C1415 1.396 1_556 S
C1414 C1419 1.390 . S
C1415 C1409 1.465 . S
C1415 C1414 1.396 1_554 S
C1415 C1416 1.399 . S
C1416 H1402 0.929 . S
C1416 C1415 1.399 . S
C1416 C1417 1.385 1_554 S
C1417 H1403 0.931 1_556 S
C1417 C1416 1.385 1_556 S
C1417 C1418 1.389 . S
C1418 C1417 1.389 . S
C1418 C1419 1.387 . S
C1419 H1404 0.930 . S
C1419 C1414 1.390 . S
C1419 C1418 1.387 . S
H1420 C1432 0.930 . S
H1421 C1434 0.930 . S
H1422 C1435 0.930 . S
H1423 C1439 0.959 . S
H1424 C1439 0.959 . S
H1425 C1439 0.961 . S
H1426 C1440 0.960 . S
H1427 C1440 0.961 . S
H1428 C1440 0.959 . S
H1429 C1443 0.929 . S
H1430 C1444 0.931 . S
H1431 C1446 0.930 . S
C1432 H1420 0.930 . S
C1432 C1433 1.399 . S
C1432 C1437 1.399 . S
C1433 C1432 1.399 . S
C1433 C1434 1.376 . S
C1434 H1421 0.930 . S
C1434 C1433 1.376 . S
C1434 C1435 1.388 . S
C1435 H1422 0.930 . S
C1435 C1434 1.388 . S
C1435 C1436 1.390 . S
C1436 C1435 1.390 . S
C1436 C1437 1.394 . S
C1436 C1442 1.465 1_655 S
C1437 C1432 1.399 . S
C1437 C1436 1.394 . S
C1437 C1438 1.516 . S
C1438 C1437 1.516 . S
C1438 C1439 1.502 1_655 S
C1438 C1440 1.561 . S
C1438 C1441 1.526 1_655 S
C1439 H1423 0.959 . S
C1439 H1424 0.959 . S
C1439 H1425 0.961 . S
C1439 C1438 1.502 1_455 S
C1440 H1426 0.960 . S
C1440 H1427 0.961 . S
C1440 H1428 0.959 . S
C1440 C1438 1.561 . S
C1441 C1438 1.526 1_455 S
C1441 C1442 1.396 . S
C1441 C1446 1.390 . S
C1442 C1436 1.465 1_455 S
C1442 C1441 1.396 . S
C1442 C1443 1.399 . S
C1443 H1429 0.929 . S
C1443 C1442 1.399 . S
C1443 C1444 1.385 . S
C1444 H1430 0.931 . S
C1444 C1443 1.385 . S
C1444 C1445 1.389 . S
C1445 C1444 1.389 . S
C1445 C1446 1.387 . S
C1446 H1431 0.930 . S
C1446 C1441 1.390 . S
C1446 C1445 1.387 . S
H1447 C1459 0.930 . S
H1448 C1461 0.930 . S
H1449 C1462 0.930 1_545 S
H1450 C1466 0.959 . S
H1451 C1466 0.959 . S
H1452 C1466 0.961 . S
H1453 C1467 0.960 . S
H1454 C1467 0.961 . S
H1455 C1467 0.959 . S
H1456 C1470 0.929 . S
H1457 C1471 0.931 . S
H1458 C1473 0.930 . S
C1459 H1447 0.930 . S
C1459 C1460 1.399 . S
C1459 C1464 1.399 . S
C1460 C1459 1.399 . S
C1460 C1461 1.376 . S
C1461 H1448 0.930 . S
C1461 C1460 1.376 . S
C1461 C1462 1.388 . S
C1462 H1449 0.930 1_565 S
C1462 C1461 1.388 . S
C1462 C1463 1.390 . S
C1463 C1462 1.390 . S
C1463 C1464 1.394 . S
C1463 C1469 1.465 1_565 S
C1464 C1459 1.399 . S
C1464 C1463 1.394 . S
C1464 C1465 1.516 . S
C1465 C1464 1.516 . S
C1465 C1466 1.502 . S
C1465 C1467 1.561 . S
C1465 C1468 1.526 1_565 S
C1466 H1450 0.959 . S
C1466 H1451 0.959 . S
C1466 H1452 0.961 . S
C1466 C1465 1.502 . S
C1467 H1453 0.960 . S
C1467 H1454 0.961 . S
C1467 H1455 0.959 . S
C1467 C1465 1.561 . S
C1468 C1465 1.526 1_545 S
C1468 C1469 1.396 . S
C1468 C1473 1.390 . S
C1469 C1463 1.465 1_545 S
C1469 C1468 1.396 . S
C1469 C1470 1.399 . S
C1470 H1456 0.929 . S
C1470 C1469 1.399 . S
C1470 C1471 1.385 . S
C1471 H1457 0.931 . S
C1471 C1470 1.385 . S
C1471 C1472 1.389 . S
C1472 C1471 1.389 . S
C1472 C1473 1.387 . S
C1473 H1458 0.930 . S
C1473 C1468 1.390 . S
C1473 C1472 1.387 . S
H1474 C1486 0.930 . S
H1475 C1488 0.930 . S
H1476 C1489 0.930 . S
H1477 C1493 0.959 . S
H1478 C1493 0.959 . S
H1479 C1493 0.961 . S
H1480 C1494 0.960 . S
H1481 C1494 0.961 1_554 S
H1482 C1494 0.959 . S
H1483 C1497 0.932 . S
H1484 C1498 0.931 . S
H1485 C1500 0.930 . S
C1486 H1474 0.930 . S
C1486 C1487 1.399 . S
C1486 C1491 1.399 . S
C1487 C1486 1.399 . S
C1487 C1488 1.376 . S
C1488 H1475 0.930 . S
C1488 C1487 1.376 . S
C1488 C1489 1.388 . S
C1489 H1476 0.930 . S
C1489 C1488 1.388 . S
C1489 C1490 1.390 . S
C1490 C1489 1.390 . S
C1490 C1491 1.394 . S
C1490 C1496 1.477 . S
C1491 C1486 1.399 . S
C1491 C1490 1.394 . S
C1491 C1492 1.516 1_556 S
C1492 C1491 1.516 1_554 S
C1492 C1493 1.502 . S
C1492 C1494 1.561 1_554 S
C1492 C1495 1.526 . S
C1493 H1477 0.959 . S
C1493 H1478 0.959 . S
C1493 H1479 0.961 . S
C1493 C1492 1.502 . S
C1494 H1480 0.960 . S
C1494 H1481 0.961 1_556 S
C1494 H1482 0.959 . S
C1494 C1492 1.561 1_556 S
C1495 C1492 1.526 . S
C1495 C1496 1.383 1_554 S
C1495 C1500 1.390 . S
C1496 C1490 1.477 . S
C1496 C1495 1.383 1_556 S
C1496 C1497 1.399 . S
C1497 H1483 0.932 . S
C1497 C1496 1.399 . S
C1497 C1498 1.382 1_556 S
C1498 H1484 0.931 . S
C1498 C1497 1.382 1_554 S
C1498 C1499 1.389 . S
C1499 C1498 1.389 . S
C1499 C1500 1.387 . S
C1500 H1485 0.930 . S
C1500 C1495 1.390 . S
C1500 C1499 1.387 . S
H1501 C1513 0.930 . S
H1502 C1515 0.930 . S
H1503 C1516 0.930 . S
H1504 C1520 0.959 . S
H1505 C1520 0.959 . S
H1506 C1520 0.961 . S
H1507 C1521 0.960 . S
H1508 C1521 0.961 . S
H1509 C1521 0.959 . S
H1510 C1524 0.929 . S
H1511 C1525 0.931 . S
H1512 C1527 0.930 . S
C1513 H1501 0.930 . S
C1513 C1514 1.399 . S
C1513 C1518 1.399 . S
C1514 C1513 1.399 . S
C1514 C1515 1.376 . S
C1515 H1502 0.930 . S
C1515 C1514 1.376 . S
C1515 C1516 1.388 . S
C1516 H1503 0.930 . S
C1516 C1515 1.388 . S
C1516 C1517 1.390 . S
C1517 C1516 1.390 . S
C1517 C1518 1.394 . S
C1517 C1523 1.465 . S
C1518 C1513 1.399 . S
C1518 C1517 1.394 . S
C1518 C1519 1.516 . S
C1519 C1518 1.516 . S
C1519 C1520 1.502 . S
C1519 C1521 1.561 . S
C1519 C1522 1.526 . S
C1520 H1504 0.959 . S
C1520 H1505 0.959 . S
C1520 H1506 0.961 . S
C1520 C1519 1.502 . S
C1521 H1507 0.960 . S
C1521 H1508 0.961 . S
C1521 H1509 0.959 . S
C1521 C1519 1.561 . S
C1522 C1519 1.526 . S
C1522 C1523 1.396 . S
C1522 C1527 1.390 . S
C1523 C1517 1.465 . S
C1523 C1522 1.396 . S
C1523 C1524 1.399 . S
C1524 H1510 0.929 . S
C1524 C1523 1.399 . S
C1524 C1525 1.385 . S
C1525 H1511 0.931 . S
C1525 C1524 1.385 . S
C1525 C1526 1.389 . S
C1526 C1525 1.389 . S
C1526 C1527 1.387 . S
C1527 H1512 0.930 . S
C1527 C1522 1.390 . S
C1527 C1526 1.387 . S
H1528 C1540 0.930 . S
H1529 C1542 0.930 . S
H1530 C1543 0.930 . S
H1531 C1547 0.959 . S
H1532 C1547 0.959 . S
H1533 C1547 0.961 . S
H1534 C1548 0.960 . S
H1535 C1548 0.961 . S
H1536 C1548 0.959 . S
H1537 C1551 0.929 . S
H1538 C1552 0.931 . S
H1539 C1554 0.930 . S
C1540 H1528 0.930 . S
C1540 C1541 1.399 . S
C1540 C1545 1.399 . S
C1541 C1540 1.399 . S
C1541 C1542 1.376 1_455 S
C1542 H1529 0.930 . S
C1542 C1541 1.376 1_655 S
C1542 C1543 1.388 . S
C1543 H1530 0.930 . S
C1543 C1542 1.388 . S
C1543 C1544 1.390 . S
C1544 C1543 1.390 . S
C1544 C1545 1.394 1_655 S
C1544 C1550 1.465 . S
C1545 C1540 1.399 . S
C1545 C1544 1.394 1_455 S
C1545 C1546 1.516 . S
C1546 C1545 1.516 . S
C1546 C1547 1.502 . S
C1546 C1548 1.561 . S
C1546 C1549 1.526 . S
C1547 H1531 0.959 . S
C1547 H1532 0.959 . S
C1547 H1533 0.961 . S
C1547 C1546 1.502 . S
C1548 H1534 0.960 . S
C1548 H1535 0.961 . S
C1548 H1536 0.959 . S
C1548 C1546 1.561 . S
C1549 C1546 1.526 . S
C1549 C1550 1.396 1_455 S
C1549 C1554 1.390 . S
C1550 C1544 1.465 . S
C1550 C1549 1.396 1_655 S
C1550 C1551 1.399 . S
C1551 H1537 0.929 . S
C1551 C1550 1.399 . S
C1551 C1552 1.385 . S
C1552 H1538 0.931 . S
C1552 C1551 1.385 . S
C1552 C1553 1.389 . S
C1553 C1552 1.389 . S
C1553 C1554 1.387 1_655 S
C1554 H1539 0.930 . S
C1554 C1549 1.390 . S
C1554 C1553 1.387 1_455 S
H1555 C1567 0.930 . S
H1556 C1569 0.930 . S
H1557 C1570 0.930 . S
H1558 C1574 0.959 . S
H1559 C1574 0.959 . S
H1560 C1574 0.961 . S
H1561 C1575 0.960 . S
H1562 C1575 0.961 . S
H1563 C1575 0.959 . S
H1564 C1578 0.929 . S
H1565 C1579 0.931 . S
H1566 C1581 0.930 . S
C1567 H1555 0.930 . S
C1567 C1568 1.399 . S
C1567 C1572 1.399 . S
C1568 C1567 1.399 . S
C1568 C1569 1.376 . S
C1569 H1556 0.930 . S
C1569 C1568 1.376 . S
C1569 C1570 1.388 . S
C1570 H1557 0.930 . S
C1570 C1569 1.388 . S
C1570 C1571 1.390 . S
C1571 C1570 1.390 . S
C1571 C1572 1.394 . S
C1571 C1577 1.465 . S
C1572 C1567 1.399 . S
C1572 C1571 1.394 . S
C1572 C1573 1.516 . S
C1573 C1572 1.516 . S
C1573 C1574 1.502 . S
C1573 C1575 1.561 . S
C1573 C1576 1.526 . S
C1574 H1558 0.959 . S
C1574 H1559 0.959 . S
C1574 H1560 0.961 . S
C1574 C1573 1.502 . S
C1575 H1561 0.960 . S
C1575 H1562 0.961 . S
C1575 H1563 0.959 . S
C1575 C1573 1.561 . S
C1576 C1573 1.526 . S
C1576 C1577 1.396 . S
C1576 C1581 1.390 . S
C1577 C1571 1.465 . S
C1577 C1576 1.396 . S
C1577 C1578 1.399 . S
C1578 H1564 0.929 . S
C1578 C1577 1.399 . S
C1578 C1579 1.385 . S
C1579 H1565 0.931 . S
C1579 C1578 1.385 . S
C1579 C1580 1.389 . S
C1580 C1579 1.389 . S
C1580 C1581 1.387 . S
C1581 H1566 0.930 . S
C1581 C1576 1.390 . S
C1581 C1580 1.387 . S
H1582 C1594 0.930 . S
H1583 C1596 0.930 . S
H1584 C1597 0.930 . S
H1585 C1601 0.959 . S
H1586 C1601 0.959 . S
H1587 C1601 0.961 . S
H1588 C1602 0.960 . S
H1589 C1602 0.961 . S
H1590 C1602 0.959 . S
H1591 C1605 0.929 . S
H1592 C1606 0.931 . S
H1593 C1608 0.930 . S
C1594 H1582 0.930 . S
C1594 C1595 1.399 . S
C1594 C1599 1.399 . S
C1595 C1594 1.399 . S
C1595 C1596 1.376 . S
C1596 H1583 0.930 . S
C1596 C1595 1.376 . S
C1596 C1597 1.388 . S
C1597 H1584 0.930 . S
C1597 C1596 1.388 . S
C1597 C1598 1.390 . S
C1598 C1597 1.390 . S
C1598 C1599 1.394 . S
C1598 C1604 1.465 . S
C1599 C1594 1.399 . S
C1599 C1598 1.394 . S
C1599 C1600 1.516 . S
C1600 C1599 1.516 . S
C1600 C1601 1.502 . S
C1600 C1602 1.561 . S
C1600 C1603 1.526 . S
C1601 H1585 0.959 . S
C1601 H1586 0.959 . S
C1601 H1587 0.961 . S
C1601 C1600 1.502 . S
C1602 H1588 0.960 . S
C1602 H1589 0.961 . S
C1602 H1590 0.959 . S
C1602 C1600 1.561 . S
C1603 C1600 1.526 . S
C1603 C1604 1.396 . S
C1603 C1608 1.390 . S
C1604 C1598 1.465 . S
C1604 C1603 1.396 . S
C1604 C1605 1.399 . S
C1605 H1591 0.929 . S
C1605 C1604 1.399 . S
C1605 C1606 1.385 . S
C1606 H1592 0.931 . S
C1606 C1605 1.385 . S
C1606 C1607 1.389 . S
C1607 C1606 1.389 . S
C1607 C1608 1.387 . S
C1608 H1593 0.930 . S
C1608 C1603 1.390 . S
C1608 C1607 1.387 . S
H1609 C1621 0.930 . S
H1610 C1623 0.930 . S
H1611 C1624 0.930 . S
H1612 C1628 0.959 . S
H1613 C1628 0.959 . S
H1614 C1628 0.961 . S
H1615 C1629 0.960 . S
H1616 C1629 0.961 . S
H1617 C1629 0.959 . S
H1618 C1632 0.929 . S
H1619 C1633 0.931 . S
H1620 C1635 0.930 . S
C1621 H1609 0.930 . S
C1621 C1622 1.399 . S
C1621 C1626 1.399 . S
C1622 C1621 1.399 . S
C1622 C1623 1.376 . S
C1623 H1610 0.930 . S
C1623 C1622 1.376 . S
C1623 C1624 1.388 . S
C1624 H1611 0.930 . S
C1624 C1623 1.388 . S
C1624 C1625 1.390 . S
C1625 C1624 1.390 . S
C1625 C1626 1.394 . S
C1625 C1631 1.465 . S
C1626 C1621 1.399 . S
C1626 C1625 1.394 . S
C1626 C1627 1.516 . S
C1627 C1626 1.516 . S
C1627 C1628 1.502 . S
C1627 C1629 1.561 . S
C1627 C1630 1.526 . S
C1628 H1612 0.959 . S
C1628 H1613 0.959 . S
C1628 H1614 0.961 . S
C1628 C1627 1.502 . S
C1629 H1615 0.960 . S
C1629 H1616 0.961 . S
C1629 H1617 0.959 . S
C1629 C1627 1.561 . S
C1630 C1627 1.526 . S
C1630 C1631 1.396 . S
C1630 C1635 1.390 . S
C1631 C1625 1.465 . S
C1631 C1630 1.396 . S
C1631 C1632 1.399 . S
C1632 H1618 0.929 . S
C1632 C1631 1.399 . S
C1632 C1633 1.385 . S
C1633 H1619 0.931 . S
C1633 C1632 1.385 . S
C1633 C1634 1.389 . S
C1634 C1633 1.389 . S
C1634 C1635 1.387 . S
C1635 H1620 0.930 . S
C1635 C1630 1.390 . S
C1635 C1634 1.387 . S
H1636 C1648 0.930 . S
H1637 C1650 0.930 . S
H1638 C1651 0.930 . S
H1639 C1655 0.959 . S
H1640 C1655 0.959 . S
H1641 C1655 0.961 . S
H1642 C1656 0.960 . S
H1643 C1656 0.961 . S
H1644 C1656 0.959 . S
H1645 C1659 0.929 . S
H1646 C1660 0.931 . S
H1647 C1662 0.930 . S
C1648 H1636 0.930 . S
C1648 C1649 1.399 . S
C1648 C1653 1.399 . S
C1649 C1648 1.399 . S
C1649 C1650 1.376 . S
C1650 H1637 0.930 . S
C1650 C1649 1.376 . S
C1650 C1651 1.388 . S
C1651 H1638 0.930 . S
C1651 C1650 1.388 . S
C1651 C1652 1.390 . S
C1652 C1651 1.390 . S
C1652 C1653 1.394 . S
C1652 C1658 1.465 . S
C1653 C1648 1.399 . S
C1653 C1652 1.394 . S
C1653 C1654 1.516 . S
C1654 C1653 1.516 . S
C1654 C1655 1.502 . S
C1654 C1656 1.561 . S
C1654 C1657 1.526 . S
C1655 H1639 0.959 . S
C1655 H1640 0.959 . S
C1655 H1641 0.961 . S
C1655 C1654 1.502 . S
C1656 H1642 0.960 . S
C1656 H1643 0.961 . S
C1656 H1644 0.959 . S
C1656 C1654 1.561 . S
C1657 C1654 1.526 . S
C1657 C1658 1.396 . S
C1657 C1662 1.390 . S
C1658 C1652 1.465 . S
C1658 C1657 1.396 . S
C1658 C1659 1.399 . S
C1659 H1645 0.929 . S
C1659 C1658 1.399 . S
C1659 C1660 1.385 . S
C1660 H1646 0.931 . S
C1660 C1659 1.385 . S
C1660 C1661 1.389 . S
C1661 C1660 1.389 . S
C1661 C1662 1.387 . S
C1662 H1647 0.930 . S
C1662 C1657 1.390 . S
C1662 C1661 1.387 . S
H1663 C1675 0.930 . S
H1664 C1677 0.930 . S
H1665 C1678 0.930 . S
H1666 C1682 0.959 . S
H1667 C1682 0.959 . S
H1668 C1682 0.961 . S
H1669 C1683 0.991 . S
H1670 C1683 0.944 1_565 S
H1671 C1683 0.936 1_565 S
H1672 C1686 0.929 . S
H1673 C1687 0.931 . S
H1674 C1689 0.930 . S
C1675 H1663 0.930 . S
C1675 C1676 1.399 . S
C1675 C1680 1.399 . S
C1676 C1675 1.399 . S
C1676 C1677 1.376 . S
C1677 H1664 0.930 . S
C1677 C1676 1.376 . S
C1677 C1678 1.388 . S
C1678 H1665 0.930 . S
C1678 C1677 1.388 . S
C1678 C1679 1.390 . S
C1679 C1678 1.390 . S
C1679 C1680 1.394 . S
C1679 C1685 1.465 1_545 S
C1680 C1675 1.399 . S
C1680 C1679 1.394 . S
C1680 C1681 1.516 . S
C1681 C1680 1.516 . S
C1681 C1682 1.502 . S
C1681 C1683 1.571 . S
C1681 C1684 1.526 1_545 S
C1682 H1666 0.959 . S
C1682 H1667 0.959 . S
C1682 H1668 0.961 . S
C1682 C1681 1.502 . S
C1683 H1669 0.991 . S
C1683 H1670 0.944 1_545 S
C1683 H1671 0.936 1_545 S
C1683 C1681 1.571 . S
C1684 C1681 1.526 1_565 S
C1684 C1685 1.396 . S
C1684 C1689 1.390 . S
C1685 C1679 1.465 1_565 S
C1685 C1684 1.396 . S
C1685 C1686 1.399 . S
C1686 H1672 0.929 . S
C1686 C1685 1.399 . S
C1686 C1687 1.385 . S
C1687 H1673 0.931 . S
C1687 C1686 1.385 . S
C1687 C1688 1.389 . S
C1688 C1687 1.389 . S
C1688 C1689 1.387 . S
C1689 H1674 0.930 . S
C1689 C1684 1.390 . S
C1689 C1688 1.387 . S
H1690 C1702 0.930 . S
H1691 C1704 0.930 . S
H1692 C1705 0.930 . S
H1693 C1709 0.959 . S
H1694 C1709 0.959 . S
H1695 C1709 0.961 . S
H1696 C1710 0.960 . S
H1697 C1710 0.961 . S
H1698 C1710 0.959 . S
H1699 C1713 0.929 . S
H1700 C1714 0.931 . S
H1701 C1716 0.930 . S
C1702 H1690 0.930 . S
C1702 C1703 1.399 . S
C1702 C1707 1.399 . S
C1703 C1702 1.399 . S
C1703 C1704 1.376 . S
C1704 H1691 0.930 . S
C1704 C1703 1.376 . S
C1704 C1705 1.388 . S
C1705 H1692 0.930 . S
C1705 C1704 1.388 . S
C1705 C1706 1.390 . S
C1706 C1705 1.390 . S
C1706 C1707 1.394 . S
C1706 C1712 1.465 . S
C1707 C1702 1.399 . S
C1707 C1706 1.394 . S
C1707 C1708 1.516 . S
C1708 C1707 1.516 . S
C1708 C1709 1.502 . S
C1708 C1710 1.561 . S
C1708 C1711 1.526 . S
C1709 H1693 0.959 . S
C1709 H1694 0.959 . S
C1709 H1695 0.961 . S
C1709 C1708 1.502 . S
C1710 H1696 0.960 . S
C1710 H1697 0.961 . S
C1710 H1698 0.959 . S
C1710 C1708 1.561 . S
C1711 C1708 1.526 . S
C1711 C1712 1.396 . S
C1711 C1716 1.390 . S
C1712 C1706 1.465 . S
C1712 C1711 1.396 . S
C1712 C1713 1.399 . S
C1713 H1699 0.929 . S
C1713 C1712 1.399 . S
C1713 C1714 1.385 . S
C1714 H1700 0.931 . S
C1714 C1713 1.385 . S
C1714 C1715 1.389 . S
C1715 C1714 1.389 . S
C1715 C1716 1.387 . S
C1716 H1701 0.930 . S
C1716 C1711 1.390 . S
C1716 C1715 1.387 . S
H1717 C1729 0.930 . S
H1718 C1731 0.935 . S
H1719 C1732 0.930 . S
H1720 C1736 0.959 . S
H1721 C1736 0.959 . S
H1722 C1736 0.961 . S
H1723 C1737 0.960 . S
H1724 C1737 0.961 . S
H1725 C1737 0.959 . S
H1726 C1740 0.929 . S
H1727 C1741 0.931 . S
H1728 C1743 0.939 . S
C1729 H1717 0.930 . S
C1729 C1730 1.399 . S
C1729 C1734 1.399 . S
C1730 C1729 1.399 . S
C1730 C1731 1.376 . S
C1731 H1718 0.935 . S
C1731 C1730 1.376 . S
C1731 C1732 1.388 1_556 S
C1732 H1719 0.930 . S
C1732 C1731 1.388 1_554 S
C1732 C1733 1.390 . S
C1733 C1732 1.390 . S
C1733 C1734 1.394 1_554 S
C1733 C1739 1.465 . S
C1734 C1729 1.399 . S
C1734 C1733 1.394 1_556 S
C1734 C1735 1.516 . S
C1735 C1734 1.516 . S
C1735 C1736 1.502 . S
C1735 C1737 1.561 . S
C1735 C1738 1.526 1_556 S
C1736 H1720 0.959 . S
C1736 H1721 0.959 . S
C1736 H1722 0.961 . S
C1736 C1735 1.502 . S
C1737 H1723 0.960 . S
C1737 H1724 0.961 . S
C1737 H1725 0.959 . S
C1737 C1735 1.561 . S
C1738 C1735 1.526 1_554 S
C1738 C1739 1.396 . S
C1738 C1743 1.390 . S
C1739 C1733 1.465 . S
C1739 C1738 1.396 . S
C1739 C1740 1.399 . S
C1740 H1726 0.929 . S
C1740 C1739 1.399 . S
C1740 C1741 1.385 . S
C1741 H1727 0.931 . S
C1741 C1740 1.385 . S
C1741 C1742 1.389 . S
C1742 C1741 1.389 . S
C1742 C1743 1.387 . S
C1743 H1728 0.939 . S
C1743 C1738 1.390 . S
C1743 C1742 1.387 . S
H1744 C1756 0.930 . S
H1745 C1758 0.930 . S
H1746 C1759 0.930 . S
H1747 C1763 0.959 . S
H1748 C1763 0.959 . S
H1749 C1763 0.961 . S
H1750 C1764 0.960 . S
H1751 C1764 0.961 . S
H1752 C1764 0.959 . S
H1753 C1767 0.929 . S
H1754 C1768 0.931 . S
H1755 C1770 0.930 . S
C1756 H1744 0.930 . S
C1756 C1757 1.399 . S
C1756 C1761 1.399 . S
C1757 C1756 1.399 . S
C1757 C1758 1.376 . S
C1758 H1745 0.930 . S
C1758 C1757 1.376 . S
C1758 C1759 1.388 . S
C1759 H1746 0.930 . S
C1759 C1758 1.388 . S
C1759 C1760 1.390 . S
C1760 C1759 1.390 . S
C1760 C1761 1.394 . S
C1760 C1766 1.465 . S
C1761 C1756 1.399 . S
C1761 C1760 1.394 . S
C1761 C1762 1.516 . S
C1762 C1761 1.516 . S
C1762 C1763 1.502 . S
C1762 C1764 1.561 . S
C1762 C1765 1.526 . S
C1763 H1747 0.959 . S
C1763 H1748 0.959 . S
C1763 H1749 0.961 . S
C1763 C1762 1.502 . S
C1764 H1750 0.960 . S
C1764 H1751 0.961 . S
C1764 H1752 0.959 . S
C1764 C1762 1.561 . S
C1765 C1762 1.526 . S
C1765 C1766 1.396 . S
C1765 C1770 1.390 . S
C1766 C1760 1.465 . S
C1766 C1765 1.396 . S
C1766 C1767 1.399 . S
C1767 H1753 0.929 . S
C1767 C1766 1.399 . S
C1767 C1768 1.385 . S
C1768 H1754 0.931 . S
C1768 C1767 1.385 . S
C1768 C1769 1.389 . S
C1769 C1768 1.389 . S
C1769 C1770 1.387 . S
C1770 H1755 0.930 . S
C1770 C1765 1.390 . S
C1770 C1769 1.387 . S
H1771 C1783 0.930 . S
H1772 C1785 0.930 . S
H1773 C1786 0.930 . S
H1774 C1790 0.959 . S
H1775 C1790 0.959 . S
H1776 C1790 0.961 . S
H1777 C1791 0.960 . S
H1778 C1791 0.961 . S
H1779 C1791 0.959 . S
H1780 C1794 0.929 . S
H1781 C1795 0.931 . S
H1782 C1797 0.930 . S
C1783 H1771 0.930 . S
C1783 C1784 1.399 . S
C1783 C1788 1.399 . S
C1784 C1783 1.399 . S
C1784 C1785 1.376 . S
C1785 H1772 0.930 . S
C1785 C1784 1.376 . S
C1785 C1786 1.388 . S
C1786 H1773 0.930 . S
C1786 C1785 1.388 . S
C1786 C1787 1.390 . S
C1787 C1786 1.390 . S
C1787 C1788 1.394 . S
C1787 C1793 1.465 . S
C1788 C1783 1.399 . S
C1788 C1787 1.394 . S
C1788 C1789 1.516 . S
C1789 C1788 1.516 . S
C1789 C1790 1.502 . S
C1789 C1791 1.561 . S
C1789 C1792 1.526 . S
C1790 H1774 0.959 . S
C1790 H1775 0.959 . S
C1790 H1776 0.961 . S
C1790 C1789 1.502 . S
C1791 H1777 0.960 . S
C1791 H1778 0.961 . S
C1791 H1779 0.959 . S
C1791 C1789 1.561 . S
C1792 C1789 1.526 . S
C1792 C1793 1.396 . S
C1792 C1797 1.390 . S
C1793 C1787 1.465 . S
C1793 C1792 1.396 . S
C1793 C1794 1.399 . S
C1794 H1780 0.929 . S
C1794 C1793 1.399 . S
C1794 C1795 1.385 . S
C1795 H1781 0.931 . S
C1795 C1794 1.385 . S
C1795 C1796 1.389 . S
C1796 C1795 1.389 . S
C1796 C1797 1.387 . S
C1797 H1782 0.930 . S
C1797 C1792 1.390 . S
C1797 C1796 1.387 . S
H1798 C1810 0.930 . S
H1799 C1812 0.930 . S
H1800 C1813 0.930 . S
H1801 C1817 0.959 . S
H1802 C1817 0.959 . S
H1803 C1817 0.961 . S
H1804 C1818 0.960 . S
H1805 C1818 0.961 . S
H1806 C1818 0.959 . S
H1807 C1821 0.929 . S
H1808 C1822 0.931 . S
H1809 C1824 0.930 . S
C1810 H1798 0.930 . S
C1810 C1811 1.399 . S
C1810 C1815 1.399 . S
C1811 C1810 1.399 . S
C1811 C1812 1.376 . S
C1812 H1799 0.930 . S
C1812 C1811 1.376 . S
C1812 C1813 1.388 . S
C1813 H1800 0.930 . S
C1813 C1812 1.388 . S
C1813 C1814 1.390 . S
C1814 C1813 1.390 . S
C1814 C1815 1.394 . S
C1814 C1820 1.465 . S
C1815 C1810 1.399 . S
C1815 C1814 1.394 . S
C1815 C1816 1.516 . S
C1816 C1815 1.516 . S
C1816 C1817 1.502 . S
C1816 C1818 1.561 . S
C1816 C1819 1.526 . S
C1817 H1801 0.959 . S
C1817 H1802 0.959 . S
C1817 H1803 0.961 . S
C1817 C1816 1.502 . S
C1818 H1804 0.960 . S
C1818 H1805 0.961 . S
C1818 H1806 0.959 . S
C1818 C1816 1.561 . S
C1819 C1816 1.526 . S
C1819 C1820 1.396 . S
C1819 C1824 1.390 . S
C1820 C1814 1.465 . S
C1820 C1819 1.396 . S
C1820 C1821 1.399 . S
C1821 H1807 0.929 . S
C1821 C1820 1.399 . S
C1821 C1822 1.385 . S
C1822 H1808 0.931 . S
C1822 C1821 1.385 . S
C1822 C1823 1.389 . S
C1823 C1822 1.389 . S
C1823 C1824 1.387 . S
C1824 H1809 0.930 . S
C1824 C1819 1.390 . S
C1824 C1823 1.387 . S
H1825 C1837 0.930 . S
H1826 C1839 0.930 . S
H1827 C1840 0.930 . S
H1828 C1844 0.959 . S
H1829 C1844 0.959 . S
H1830 C1844 0.961 . S
H1831 C1845 0.960 . S
H1832 C1845 0.961 . S
H1833 C1845 0.959 . S
H1834 C1848 0.929 . S
H1835 C1849 0.931 . S
H1836 C1851 0.930 . S
C1837 H1825 0.930 . S
C1837 C1838 1.399 . S
C1837 C1842 1.399 . S
C1838 C1837 1.399 . S
C1838 C1839 1.376 . S
C1839 H1826 0.930 . S
C1839 C1838 1.376 . S
C1839 C1840 1.388 . S
C1840 H1827 0.930 . S
C1840 C1839 1.388 . S
C1840 C1841 1.390 . S
C1841 C1840 1.390 . S
C1841 C1842 1.394 . S
C1841 C1847 1.465 . S
C1842 C1837 1.399 . S
C1842 C1841 1.394 . S
C1842 C1843 1.516 . S
C1843 C1842 1.516 . S
C1843 C1844 1.502 . S
C1843 C1845 1.561 . S
C1843 C1846 1.526 . S
C1844 H1828 0.959 . S
C1844 H1829 0.959 . S
C1844 H1830 0.961 . S
C1844 C1843 1.502 . S
C1845 H1831 0.960 . S
C1845 H1832 0.961 . S
C1845 H1833 0.959 . S
C1845 C1843 1.561 . S
C1846 C1843 1.526 . S
C1846 C1847 1.396 . S
C1846 C1851 1.390 . S
C1847 C1841 1.465 . S
C1847 C1846 1.396 . S
C1847 C1848 1.399 . S
C1848 H1834 0.929 . S
C1848 C1847 1.399 . S
C1848 C1849 1.385 . S
C1849 H1835 0.931 . S
C1849 C1848 1.385 . S
C1849 C1850 1.389 . S
C1850 C1849 1.389 . S
C1850 C1851 1.387 . S
C1851 H1836 0.930 . S
C1851 C1846 1.390 . S
C1851 C1850 1.387 . S
H1852 C1864 0.930 . S
H1853 C1866 0.930 . S
H1854 C1867 0.930 . S
H1855 C1871 0.959 . S
H1856 C1871 0.959 . S
H1857 C1871 0.961 . S
H1858 C1872 0.960 . S
H1859 C1872 0.961 . S
H1860 C1872 0.959 . S
H1861 C1875 0.929 . S
H1862 C1876 0.931 . S
H1863 C1878 0.930 . S
C1864 H1852 0.930 . S
C1864 C1865 1.399 . S
C1864 C1869 1.399 . S
C1865 C1864 1.399 . S
C1865 C1866 1.376 . S
C1866 H1853 0.930 . S
C1866 C1865 1.376 . S
C1866 C1867 1.388 . S
C1867 H1854 0.930 . S
C1867 C1866 1.388 . S
C1867 C1868 1.390 . S
C1868 C1867 1.390 . S
C1868 C1869 1.394 . S
C1868 C1874 1.465 . S
C1869 C1864 1.399 . S
C1869 C1868 1.394 . S
C1869 C1870 1.516 . S
C1870 C1869 1.516 . S
C1870 C1871 1.502 . S
C1870 C1872 1.561 . S
C1870 C1873 1.526 . S
C1871 H1855 0.959 . S
C1871 H1856 0.959 . S
C1871 H1857 0.961 . S
C1871 C1870 1.502 . S
C1872 H1858 0.960 . S
C1872 H1859 0.961 . S
C1872 H1860 0.959 . S
C1872 C1870 1.561 . S
C1873 C1870 1.526 . S
C1873 C1874 1.396 . S
C1873 C1878 1.390 . S
C1874 C1868 1.465 . S
C1874 C1873 1.396 . S
C1874 C1875 1.399 . S
C1875 H1861 0.929 . S
C1875 C1874 1.399 . S
C1875 C1876 1.385 . S
C1876 H1862 0.931 . S
C1876 C1875 1.385 . S
C1876 C1877 1.389 . S
C1877 C1876 1.389 . S
C1877 C1878 1.387 . S
C1878 H1863 0.930 . S
C1878 C1873 1.390 . S
C1878 C1877 1.387 . S
H1879 C1891 0.930 . S
H1880 C1893 0.930 . S
H1881 C1894 0.930 . S
H1882 C1898 0.959 . S
H1883 C1898 0.959 . S
H1884 C1898 0.961 . S
H1885 C1899 0.960 . S
H1886 C1899 0.961 . S
H1887 C1899 0.959 . S
H1888 C1902 0.929 . S
H1889 C1903 0.931 . S
H1890 C1905 0.930 . S
C1891 H1879 0.930 . S
C1891 C1892 1.399 . S
C1891 C1896 1.399 . S
C1892 C1891 1.399 . S
C1892 C1893 1.376 . S
C1893 H1880 0.930 . S
C1893 C1892 1.376 . S
C1893 C1894 1.388 . S
C1894 H1881 0.930 . S
C1894 C1893 1.388 . S
C1894 C1895 1.390 . S
C1895 C1894 1.390 . S
C1895 C1896 1.394 . S
C1895 C1901 1.465 . S
C1896 C1891 1.399 . S
C1896 C1895 1.394 . S
C1896 C1897 1.516 . S
C1897 C1896 1.516 . S
C1897 C1898 1.502 . S
C1897 C1899 1.561 . S
C1897 C1900 1.526 . S
C1898 H1882 0.959 . S
C1898 H1883 0.959 . S
C1898 H1884 0.961 . S
C1898 C1897 1.502 . S
C1899 H1885 0.960 . S
C1899 H1886 0.961 . S
C1899 H1887 0.959 . S
C1899 C1897 1.561 . S
C1900 C1897 1.526 . S
C1900 C1901 1.396 . S
C1900 C1905 1.390 . S
C1901 C1895 1.465 . S
C1901 C1900 1.396 . S
C1901 C1902 1.399 . S
C1902 H1888 0.929 . S
C1902 C1901 1.399 . S
C1902 C1903 1.385 . S
C1903 H1889 0.931 . S
C1903 C1902 1.385 . S
C1903 C1904 1.389 . S
C1904 C1903 1.389 . S
C1904 C1905 1.387 . S
C1905 H1890 0.930 . S
C1905 C1900 1.390 . S
C1905 C1904 1.387 . S
H1906 C1918 0.930 . S
H1907 C1920 0.930 . S
H1908 C1921 0.930 . S
H1909 C1925 0.959 . S
H1910 C1925 0.959 . S
H1911 C1925 0.961 . S
H1912 C1926 0.960 . S
H1913 C1926 0.961 . S
H1914 C1926 0.959 . S
H1915 C1929 0.929 . S
H1916 C1930 0.931 . S
H1917 C1932 0.930 . S
C1918 H1906 0.930 . S
C1918 C1919 1.399 . S
C1918 C1923 1.399 . S
C1919 C1918 1.399 . S
C1919 C1920 1.376 . S
C1920 H1907 0.930 . S
C1920 C1919 1.376 . S
C1920 C1921 1.388 . S
C1921 H1908 0.930 . S
C1921 C1920 1.388 . S
C1921 C1922 1.390 . S
C1922 C1921 1.390 . S
C1922 C1923 1.394 . S
C1922 C1928 1.465 . S
C1923 C1918 1.399 . S
C1923 C1922 1.394 . S
C1923 C1924 1.516 . S
C1924 C1923 1.516 . S
C1924 C1925 1.502 . S
C1924 C1926 1.561 . S
C1924 C1927 1.526 . S
C1925 H1909 0.959 . S
C1925 H1910 0.959 . S
C1925 H1911 0.961 . S
C1925 C1924 1.502 . S
C1926 H1912 0.960 . S
C1926 H1913 0.961 . S
C1926 H1914 0.959 . S
C1926 C1924 1.561 . S
C1927 C1924 1.526 . S
C1927 C1928 1.396 . S
C1927 C1932 1.390 . S
C1928 C1922 1.465 . S
C1928 C1927 1.396 . S
C1928 C1929 1.399 . S
C1929 H1915 0.929 . S
C1929 C1928 1.399 . S
C1929 C1930 1.385 . S
C1930 H1916 0.931 . S
C1930 C1929 1.385 . S
C1930 C1931 1.389 . S
C1931 C1930 1.389 . S
C1931 C1932 1.387 . S
C1932 H1917 0.930 . S
C1932 C1927 1.390 . S
C1932 C1931 1.387 . S
H1933 C1945 0.930 . S
H1934 C1947 0.930 . S
H1935 C1948 0.930 . S
H1936 C1952 0.959 . S
H1937 C1952 0.959 . S
H1938 C1952 0.961 . S
H1939 C1953 0.960 . S
H1940 C1953 0.961 . S
H1941 C1953 0.959 . S
H1942 C1956 0.929 . S
H1943 C1957 0.931 . S
H1944 C1959 0.930 . S
C1945 H1933 0.930 . S
C1945 C1946 1.399 . S
C1945 C1950 1.399 . S
C1946 C1945 1.399 . S
C1946 C1947 1.376 . S
C1947 H1934 0.930 . S
C1947 C1946 1.376 . S
C1947 C1948 1.388 . S
C1948 H1935 0.930 . S
C1948 C1947 1.388 . S
C1948 C1949 1.390 . S
C1949 C1948 1.390 . S
C1949 C1950 1.394 . S
C1949 C1955 1.465 . S
C1950 C1945 1.399 . S
C1950 C1949 1.394 . S
C1950 C1951 1.516 . S
C1951 C1950 1.516 . S
C1951 C1952 1.502 . S
C1951 C1953 1.561 . S
C1951 C1954 1.526 . S
C1952 H1936 0.959 . S
C1952 H1937 0.959 . S
C1952 H1938 0.961 . S
C1952 C1951 1.502 . S
C1953 H1939 0.960 . S
C1953 H1940 0.961 . S
C1953 H1941 0.959 . S
C1953 C1951 1.561 . S
C1954 C1951 1.526 . S
C1954 C1955 1.396 . S
C1954 C1959 1.390 . S
C1955 C1949 1.465 . S
C1955 C1954 1.396 . S
C1955 C1956 1.399 . S
C1956 H1942 0.929 . S
C1956 C1955 1.399 . S
C1956 C1957 1.385 . S
C1957 H1943 0.931 . S
C1957 C1956 1.385 . S
C1957 C1958 1.389 . S
C1958 C1957 1.389 . S
C1958 C1959 1.387 . S
C1959 H1944 0.930 . S
C1959 C1954 1.390 . S
C1959 C1958 1.387 . S
H1960 C1972 0.930 . S
H1961 C1974 0.930 . S
H1962 C1975 0.930 . S
H1963 C1979 0.959 . S
H1964 C1979 0.959 . S
H1965 C1979 0.961 . S
H1966 C1980 0.960 . S
H1967 C1980 0.961 . S
H1968 C1980 0.959 . S
H1969 C1983 0.929 . S
H1970 C1984 0.931 . S
H1971 C1986 0.930 . S
C1972 H1960 0.930 . S
C1972 C1973 1.399 . S
C1972 C1977 1.399 . S
C1973 C1972 1.399 . S
C1973 C1974 1.376 . S
C1974 H1961 0.930 . S
C1974 C1973 1.376 . S
C1974 C1975 1.388 . S
C1975 H1962 0.930 . S
C1975 C1974 1.388 . S
C1975 C1976 1.390 . S
C1976 C1975 1.390 . S
C1976 C1977 1.394 . S
C1976 C1982 1.465 . S
C1977 C1972 1.399 . S
C1977 C1976 1.394 . S
C1977 C1978 1.516 . S
C1978 C1977 1.516 . S
C1978 C1979 1.502 . S
C1978 C1980 1.561 . S
C1978 C1981 1.526 . S
C1979 H1963 0.959 . S
C1979 H1964 0.959 . S
C1979 H1965 0.961 . S
C1979 C1978 1.502 . S
C1980 H1966 0.960 . S
C1980 H1967 0.961 . S
C1980 H1968 0.959 . S
C1980 C1978 1.561 . S
C1981 C1978 1.526 . S
C1981 C1982 1.396 . S
C1981 C1986 1.390 . S
C1982 C1976 1.465 . S
C1982 C1981 1.396 . S
C1982 C1983 1.399 . S
C1983 H1969 0.929 . S
C1983 C1982 1.399 . S
C1983 C1984 1.385 . S
C1984 H1970 0.931 . S
C1984 C1983 1.385 . S
C1984 C1985 1.389 . S
C1985 C1984 1.389 . S
C1985 C1986 1.387 . S
C1986 H1971 0.930 . S
C1986 C1981 1.390 . S
C1986 C1985 1.387 . S
H1987 C1999 0.930 . S
H1988 C2001 0.930 . S
H1989 C2002 0.930 . S
H1990 C2006 0.959 . S
H1991 C2006 0.959 . S
H1992 C2006 0.961 . S
H1993 C2007 0.960 . S
H1994 C2007 0.961 . S
H1995 C2007 0.959 . S
H1996 C2010 0.929 . S
H1997 C2011 0.931 . S
H1998 C2013 0.930 . S
C1999 H1987 0.930 . S
C1999 C2000 1.399 . S
C1999 C2004 1.399 . S
C2000 C1999 1.399 . S
C2000 C2001 1.376 . S
C2001 H1988 0.930 . S
C2001 C2000 1.376 . S
C2001 C2002 1.388 . S
C2002 H1989 0.930 . S
C2002 C2001 1.388 . S
C2002 C2003 1.390 . S
C2003 C2002 1.390 . S
C2003 C2004 1.394 . S
C2003 C2009 1.465 . S
C2004 C1999 1.399 . S
C2004 C2003 1.394 . S
C2004 C2005 1.516 . S
C2005 C2004 1.516 . S
C2005 C2006 1.502 . S
C2005 C2007 1.561 . S
C2005 C2008 1.526 . S
C2006 H1990 0.959 . S
C2006 H1991 0.959 . S
C2006 H1992 0.961 . S
C2006 C2005 1.502 . S
C2007 H1993 0.960 . S
C2007 H1994 0.961 . S
C2007 H1995 0.959 . S
C2007 C2005 1.561 . S
C2008 C2005 1.526 . S
C2008 C2009 1.396 . S
C2008 C2013 1.390 . S
C2009 C2003 1.465 . S
C2009 C2008 1.396 . S
C2009 C2010 1.399 . S
C2010 H1996 0.929 . S
C2010 C2009 1.399 . S
C2010 C2011 1.385 . S
C2011 H1997 0.931 . S
C2011 C2010 1.385 . S
C2011 C2012 1.389 . S
C2012 C2011 1.389 . S
C2012 C2013 1.387 . S
C2013 H1998 0.930 . S
C2013 C2008 1.390 . S
C2013 C2012 1.387 . S
H2014 C2026 0.930 . S
H2015 C2028 0.930 . S
H2016 C2029 0.930 . S
H2017 C2033 0.959 . S
H2018 C2033 0.959 . S
H2019 C2033 0.961 . S
H2020 C2034 0.960 . S
H2021 C2034 0.961 . S
H2022 C2034 0.959 . S
H2023 C2037 0.929 . S
H2024 C2038 0.931 . S
H2025 C2040 0.930 . S
C2026 H2014 0.930 . S
C2026 C2027 1.399 . S
C2026 C2031 1.399 . S
C2027 C2026 1.399 . S
C2027 C2028 1.376 . S
C2028 H2015 0.930 . S
C2028 C2027 1.376 . S
C2028 C2029 1.388 . S
C2029 H2016 0.930 . S
C2029 C2028 1.388 . S
C2029 C2030 1.390 . S
C2030 C2029 1.390 . S
C2030 C2031 1.394 . S
C2030 C2036 1.465 . S
C2031 C2026 1.399 . S
C2031 C2030 1.394 . S
C2031 C2032 1.516 . S
C2032 C2031 1.516 . S
C2032 C2033 1.502 . S
C2032 C2034 1.561 . S
C2032 C2035 1.526 . S
C2033 H2017 0.959 . S
C2033 H2018 0.959 . S
C2033 H2019 0.961 . S
C2033 C2032 1.502 . S
C2034 H2020 0.960 . S
C2034 H2021 0.961 . S
C2034 H2022 0.959 . S
C2034 C2032 1.561 . S
C2035 C2032 1.526 . S
C2035 C2036 1.396 . S
C2035 C2040 1.390 . S
C2036 C2030 1.465 . S
C2036 C2035 1.396 . S
C2036 C2037 1.399 . S
C2037 H2023 0.929 . S
C2037 C2036 1.399 . S
C2037 C2038 1.385 . S
C2038 H2024 0.931 . S
C2038 C2037 1.385 . S
C2038 C2039 1.389 . S
C2039 C2038 1.389 . S
C2039 C2040 1.387 . S
C2040 H2025 0.930 . S
C2040 C2035 1.390 . S
C2040 C2039 1.387 . S
H2041 C2053 0.930 . S
H2042 C2055 0.930 . S
H2043 C2056 0.930 . S
H2044 C2060 0.959 . S
H2045 C2060 0.959 . S
H2046 C2060 0.961 . S
H2047 C2061 0.960 . S
H2048 C2061 0.961 . S
H2049 C2061 0.959 . S
H2050 C2064 0.929 . S
H2051 C2065 0.931 . S
H2052 C2067 0.930 . S
C2053 H2041 0.930 . S
C2053 C2054 1.399 . S
C2053 C2058 1.399 . S
C2054 C2053 1.399 . S
C2054 C2055 1.376 . S
C2055 H2042 0.930 . S
C2055 C2054 1.376 . S
C2055 C2056 1.388 . S
C2056 H2043 0.930 . S
C2056 C2055 1.388 . S
C2056 C2057 1.390 . S
C2057 C2056 1.390 . S
C2057 C2058 1.394 . S
C2057 C2063 1.465 . S
C2058 C2053 1.399 . S
C2058 C2057 1.394 . S
C2058 C2059 1.516 . S
C2059 C2058 1.516 . S
C2059 C2060 1.502 . S
C2059 C2061 1.561 . S
C2059 C2062 1.526 . S
C2060 H2044 0.959 . S
C2060 H2045 0.959 . S
C2060 H2046 0.961 . S
C2060 C2059 1.502 . S
C2061 H2047 0.960 . S
C2061 H2048 0.961 . S
C2061 H2049 0.959 . S
C2061 C2059 1.561 . S
C2062 C2059 1.526 . S
C2062 C2063 1.396 . S
C2062 C2067 1.390 . S
C2063 C2057 1.465 . S
C2063 C2062 1.396 . S
C2063 C2064 1.399 . S
C2064 H2050 0.929 . S
C2064 C2063 1.399 . S
C2064 C2065 1.385 . S
C2065 H2051 0.931 . S
C2065 C2064 1.385 . S
C2065 C2066 1.389 . S
C2066 C2065 1.389 . S
C2066 C2067 1.387 . S
C2067 H2052 0.930 . S
C2067 C2062 1.390 . S
C2067 C2066 1.387 . S
H2068 C2080 0.930 . S
H2069 C2082 0.930 . S
H2070 C2083 0.930 . S
H2071 C2087 0.959 . S
H2072 C2087 0.959 . S
H2073 C2087 0.961 . S
H2074 C2088 0.960 . S
H2075 C2088 0.961 . S
H2076 C2088 0.959 . S
H2077 C2091 0.929 . S
H2078 C2092 0.931 . S
H2079 C2094 0.930 . S
C2080 H2068 0.930 . S
C2080 C2081 1.399 . S
C2080 C2085 1.399 . S
C2081 C2080 1.399 . S
C2081 C2082 1.376 . S
C2082 H2069 0.930 . S
C2082 C2081 1.376 . S
C2082 C2083 1.388 . S
C2083 H2070 0.930 . S
C2083 C2082 1.388 . S
C2083 C2084 1.390 . S
C2084 C2083 1.390 . S
C2084 C2085 1.394 . S
C2084 C2090 1.465 . S
C2085 C2080 1.399 . S
C2085 C2084 1.394 . S
C2085 C2086 1.516 . S
C2086 C2085 1.516 . S
C2086 C2087 1.502 . S
C2086 C2088 1.561 . S
C2086 C2089 1.526 . S
C2087 H2071 0.959 . S
C2087 H2072 0.959 . S
C2087 H2073 0.961 . S
C2087 C2086 1.502 . S
C2088 H2074 0.960 . S
C2088 H2075 0.961 . S
C2088 H2076 0.959 . S
C2088 C2086 1.561 . S
C2089 C2086 1.526 . S
C2089 C2090 1.396 . S
C2089 C2094 1.390 . S
C2090 C2084 1.465 . S
C2090 C2089 1.396 . S
C2090 C2091 1.399 . S
C2091 H2077 0.929 . S
C2091 C2090 1.399 . S
C2091 C2092 1.385 . S
C2092 H2078 0.931 . S
C2092 C2091 1.385 . S
C2092 C2093 1.389 . S
C2093 C2092 1.389 . S
C2093 C2094 1.387 . S
C2094 H2079 0.930 . S
C2094 C2089 1.390 . S
C2094 C2093 1.387 . S
H2095 C2107 0.930 . S
H2096 C2109 0.930 . S
H2097 C2110 0.930 . S
H2098 C2114 0.959 . S
H2099 C2114 0.959 . S
H2100 C2114 0.961 . S
H2101 C2115 0.960 . S
H2102 C2115 0.961 . S
H2103 C2115 0.959 . S
H2104 C2118 0.929 . S
H2105 C2119 0.931 . S
H2106 C2121 0.930 . S
C2107 H2095 0.930 . S
C2107 C2108 1.399 . S
C2107 C2112 1.399 . S
C2108 C2107 1.399 . S
C2108 C2109 1.376 . S
C2109 H2096 0.930 . S
C2109 C2108 1.376 . S
C2109 C2110 1.388 . S
C2110 H2097 0.930 . S
C2110 C2109 1.388 . S
C2110 C2111 1.390 . S
C2111 C2110 1.390 . S
C2111 C2112 1.394 . S
C2111 C2117 1.465 . S
C2112 C2107 1.399 . S
C2112 C2111 1.394 . S
C2112 C2113 1.516 . S
C2113 C2112 1.516 . S
C2113 C2114 1.502 . S
C2113 C2115 1.561 . S
C2113 C2116 1.526 . S
C2114 H2098 0.959 . S
C2114 H2099 0.959 . S
C2114 H2100 0.961 . S
C2114 C2113 1.502 . S
C2115 H2101 0.960 . S
C2115 H2102 0.961 . S
C2115 H2103 0.959 . S
C2115 C2113 1.561 . S
C2116 C2113 1.526 . S
C2116 C2117 1.396 . S
C2116 C2121 1.390 . S
C2117 C2111 1.465 . S
C2117 C2116 1.396 . S
C2117 C2118 1.399 . S
C2118 H2104 0.929 . S
C2118 C2117 1.399 . S
C2118 C2119 1.385 . S
C2119 H2105 0.931 . S
C2119 C2118 1.385 . S
C2119 C2120 1.389 . S
C2120 C2119 1.389 . S
C2120 C2121 1.387 . S
C2121 H2106 0.930 . S
C2121 C2116 1.390 . S
C2121 C2120 1.387 . S
H2122 C2134 0.930 . S
H2123 C2136 0.930 . S
H2124 C2137 0.930 . S
H2125 C2141 0.959 . S
H2126 C2141 0.959 . S
H2127 C2141 0.961 . S
H2128 C2142 0.960 . S
H2129 C2142 0.961 . S
H2130 C2142 0.959 . S
H2131 C2145 0.929 . S
H2132 C2146 0.931 . S
H2133 C2148 0.930 . S
C2134 H2122 0.930 . S
C2134 C2135 1.399 . S
C2134 C2139 1.399 . S
C2135 C2134 1.399 . S
C2135 C2136 1.376 . S
C2136 H2123 0.930 . S
C2136 C2135 1.376 . S
C2136 C2137 1.388 . S
C2137 H2124 0.930 . S
C2137 C2136 1.388 . S
C2137 C2138 1.390 . S
C2138 C2137 1.390 . S
C2138 C2139 1.394 . S
C2138 C2144 1.465 . S
C2139 C2134 1.399 . S
C2139 C2138 1.394 . S
C2139 C2140 1.516 . S
C2140 C2139 1.516 . S
C2140 C2141 1.502 . S
C2140 C2142 1.561 . S
C2140 C2143 1.526 . S
C2141 H2125 0.959 . S
C2141 H2126 0.959 . S
C2141 H2127 0.961 . S
C2141 C2140 1.502 . S
C2142 H2128 0.960 . S
C2142 H2129 0.961 . S
C2142 H2130 0.959 . S
C2142 C2140 1.561 . S
C2143 C2140 1.526 . S
C2143 C2144 1.396 . S
C2143 C2148 1.390 . S
C2144 C2138 1.465 . S
C2144 C2143 1.396 . S
C2144 C2145 1.399 . S
C2145 H2131 0.929 . S
C2145 C2144 1.399 . S
C2145 C2146 1.385 . S
C2146 H2132 0.931 . S
C2146 C2145 1.385 . S
C2146 C2147 1.389 . S
C2147 C2146 1.389 . S
C2147 C2148 1.387 . S
C2148 H2133 0.930 . S
C2148 C2143 1.390 . S
C2148 C2147 1.387 . S
H2149 C2161 0.930 . S
H2150 C2163 0.930 . S
H2151 C2164 0.930 . S
H2152 C2168 0.959 . S
H2153 C2168 0.959 . S
H2154 C2168 0.961 . S
H2155 C2169 0.960 . S
H2156 C2169 0.961 . S
H2157 C2169 0.959 . S
H2158 C2172 0.929 . S
H2159 C2173 0.931 . S
H2160 C2175 0.930 . S
C2161 H2149 0.930 . S
C2161 C2162 1.399 . S
C2161 C2166 1.399 . S
C2162 C2161 1.399 . S
C2162 C2163 1.376 . S
C2163 H2150 0.930 . S
C2163 C2162 1.376 . S
C2163 C2164 1.388 . S
C2164 H2151 0.930 . S
C2164 C2163 1.388 . S
C2164 C2165 1.390 . S
C2165 C2164 1.390 . S
C2165 C2166 1.394 . S
C2165 C2171 1.465 . S
C2166 C2161 1.399 . S
C2166 C2165 1.394 . S
C2166 C2167 1.516 . S
C2167 C2166 1.516 . S
C2167 C2168 1.502 . S
C2167 C2169 1.561 . S
C2167 C2170 1.526 . S
C2168 H2152 0.959 . S
C2168 H2153 0.959 . S
C2168 H2154 0.961 . S
C2168 C2167 1.502 . S
C2169 H2155 0.960 . S
C2169 H2156 0.961 . S
C2169 H2157 0.959 . S
C2169 C2167 1.561 . S
C2170 C2167 1.526 . S
C2170 C2171 1.396 . S
C2170 C2175 1.390 . S
C2171 C2165 1.465 . S
C2171 C2170 1.396 . S
C2171 C2172 1.399 . S
C2172 H2158 0.929 . S
C2172 C2171 1.399 . S
C2172 C2173 1.385 . S
C2173 H2159 0.931 . S
C2173 C2172 1.385 . S
C2173 C2174 1.389 . S
C2174 C2173 1.389 . S
C2174 C2175 1.387 . S
C2175 H2160 0.930 . S
C2175 C2170 1.390 . S
C2175 C2174 1.387 . S
C461 C149 1.231 . S
C473 C9 1.220 . S
C488 C23 1.279 . S
C500 C163 1.287 . S
C515 C37 1.250 . S
C527 C121 1.236 . S
C542 C135 1.247 . S
C554 C51 1.262 . S
C569 C205 1.276 . S
C581 C65 1.291 . S
C596 C79 1.260 . S
C608 C219 1.289 . S
C623 C177 1.291 . S
C635 C93 1.266 . S
C650 C191 1.281 . S
C662 C107 1.246 . S
C677 C373 1.236 . S
C689 C233 1.224 . S
C704 C387 1.229 . S
C716 C247 1.219 . S
C731 C345 1.234 . S
C743 C261 1.223 . S
C758 C275 1.233 . S
C770 C359 1.222 . S
C785 C429 1.214 . S
C797 C289 1.245 . S
C812 C443 1.268 . S
C824 C303 1.230 . S
C839 C317 1.211 . S
C851 C401 1.236 . S
C866 C331 1.284 . S
C878 C415 1.250 . S
C893 C277 1.326 . S
C905 C11 1.298 . S
C920 C25 1.320 . S
C932 C263 1.313 . S
C947 C249 1.326 . S
C959 C39 1.291 . S
C974 C235 1.326 . S
C986 C53 1.297 1_655 S
C1001 C67 1.286 . S
C1013 C333 1.323 . S
C1028 C81 1.302 . S
C1040 C319 1.259 . S
C1055 C305 1.288 . S
C1067 C95 1.322 . S
C1082 C109 1.277 1_455 S
C1094 C291 1.321 . S
C1109 C389 1.256 . S
C1121 C123 1.291 . S
C1136 C375 1.259 . S
C1148 C137 1.298 . S
C1163 C361 1.326 . S
C1175 C151 1.289 . S
C1190 C347 1.259 . S
C1202 C165 1.297 . S
C1217 C179 1.291 . S
C1229 C445 1.320 . S
C1244 C431 1.325 . S
C1256 C193 1.281 1_455 S
C1271 C207 1.298 . S
C1283 C417 1.260 . S
C1298 C221 1.269 1_455 S
C1310 C403 1.323 . S
C1325 C168 1.348 . S
C1337 C0 1.289 . S
C1352 C14 1.356 . S
C1364 C294 1.283 . S
C1379 C84 1.366 . S
C1391 C28 1.285 . S
C1406 C434 1.365 . S
C1418 C42 1.278 . S
C1433 C56 1.279 . S
C1445 C112 1.367 . S
C1460 C238 1.358 . S
C1472 C70 1.282 . S
C1487 C378 1.357 . S
C1499 C98 1.299 . S
C1514 C406 1.360 . S
C1526 C126 1.281 . S
C1541 C140 1.338 . S
C1553 C196 1.322 . S
C1568 C322 1.367 . S
C1580 C154 1.281 . S
C1595 C350 1.302 . S
C1607 C182 1.355 . S
C1622 C210 1.359 . S
C1634 C266 1.281 . S
C1649 C224 1.360 . S
C1661 C392 1.280 . S
C1676 C308 1.341 . S
C1688 C252 1.319 . S
C1703 C336 1.352 . S
C1715 C280 1.286 . S
C1730 C364 1.278 . S
C1742 C420 1.362 . S
C1757 C5 1.024 . S
C1769 C47 1.052 . S
C1784 C33 1.092 . S
C1796 C19 1.064 . S
C1811 C61 1.056 . S
C1823 C103 1.087 . S
C1838 C75 1.082 . S
C1850 C89 1.025 . S
C1865 C117 1.082 . S
C1877 C159 1.035 . S
C1892 C131 1.024 . S
C1904 C145 1.057 . S
C1919 C173 1.053 . S
C1931 C215 1.088 . S
C1946 C201 1.052 . S
C1958 C187 1.089 . S
C1973 C271 1.024 . S
C1985 C229 1.056 . S
C2000 C257 1.026 . S
C2012 C243 1.069 . S
C2027 C327 1.085 . S
C2039 C285 1.026 . S
C2054 C313 1.054 . S
C2066 C299 1.088 . S
C2081 C383 1.024 . S
C2093 C341 1.059 . S
C2108 C369 1.092 . S
C2120 C355 1.064 . S
C2135 C397 1.063 . S
C2147 C439 1.028 . S
C2162 C425 1.073 . S
C2174 C411 1.025 . S
