# Generated by pormake.
# Topology vby, (6)-cn, num edge types: 1
# Building blocks:
#     Node 0, Type 0, BuildingBlock: CUKXOW_clean_sbu_0, # of connection points: 6
#     Node 1, Type 0, BuildingBlock: CUKXOW_clean_sbu_0, # of connection points: 6
#     Node 2, Type 0, BuildingBlock: CUKXOW_clean_sbu_0, # of connection points: 6
#     Node 3, Type 0, BuildingBlock: CUKXOW_clean_sbu_0, # of connection points: 6
#     Node 4, Type 0, BuildingBlock: CUKXOW_clean_sbu_0, # of connection points: 6
#     Node 5, Type 0, BuildingBlock: CUKXOW_clean_sbu_0, # of connection points: 6
#     Node 6, Type 0, BuildingBlock: CUKXOW_clean_sbu_0, # of connection points: 6
#     Node 7, Type 0, BuildingBlock: CUKXOW_clean_sbu_0, # of connection points: 6
#     Edge 8, Type (0, 0), BuildingBlock: XUDNAN_clean_linker_2, # of connection points: 2
#     Edge 9, Type (0, 0), BuildingBlock: XUDNAN_clean_linker_2, # of connection points: 2
#     Edge 10, Type (0, 0), BuildingBlock: XUDNAN_clean_linker_2, # of connection points: 2
#     Edge 11, Type (0, 0), BuildingBlock: XUDNAN_clean_linker_2, # of connection points: 2
#     Edge 12, Type (0, 0), BuildingBlock: XUDNAN_clean_linker_2, # of connection points: 2
#     Edge 13, Type (0, 0), BuildingBlock: XUDNAN_clean_linker_2, # of connection points: 2
#     Edge 14, Type (0, 0), BuildingBlock: XUDNAN_clean_linker_2, # of connection points: 2
#     Edge 15, Type (0, 0), BuildingBlock: XUDNAN_clean_linker_2, # of connection points: 2
#     Edge 16, Type (0, 0), BuildingBlock: XUDNAN_clean_linker_2, # of connection points: 2
#     Edge 17, Type (0, 0), BuildingBlock: XUDNAN_clean_linker_2, # of connection points: 2
#     Edge 18, Type (0, 0), BuildingBlock: XUDNAN_clean_linker_2, # of connection points: 2
#     Edge 19, Type (0, 0), BuildingBlock: XUDNAN_clean_linker_2, # of connection points: 2
#     Edge 20, Type (0, 0), BuildingBlock: XUDNAN_clean_linker_2, # of connection points: 2
#     Edge 21, Type (0, 0), BuildingBlock: XUDNAN_clean_linker_2, # of connection points: 2
#     Edge 22, Type (0, 0), BuildingBlock: XUDNAN_clean_linker_2, # of connection points: 2
#     Edge 23, Type (0, 0), BuildingBlock: XUDNAN_clean_linker_2, # of connection points: 2
#     Edge 24, Type (0, 0), BuildingBlock: XUDNAN_clean_linker_2, # of connection points: 2
#     Edge 25, Type (0, 0), BuildingBlock: XUDNAN_clean_linker_2, # of connection points: 2
#     Edge 26, Type (0, 0), BuildingBlock: XUDNAN_clean_linker_2, # of connection points: 2
#     Edge 27, Type (0, 0), BuildingBlock: XUDNAN_clean_linker_2, # of connection points: 2
#     Edge 28, Type (0, 0), BuildingBlock: XUDNAN_clean_linker_2, # of connection points: 2
#     Edge 29, Type (0, 0), BuildingBlock: XUDNAN_clean_linker_2, # of connection points: 2
#     Edge 30, Type (0, 0), BuildingBlock: XUDNAN_clean_linker_2, # of connection points: 2
#     Edge 31, Type (0, 0), BuildingBlock: XUDNAN_clean_linker_2, # of connection points: 2
# Relax obj value: 0.105
# Max RMSD: 0.176
# Mean RMSD: 0.176
data_MOF--net-vby--node1-CUKXOW_clean_sbu_0--edge1-XUDNAN_clean_linker_2
_symmetry_space_group_name_H-M    P1
_symmetry_Int_Tables_number       1
_symmetry_cell_setting            triclinic
loop_
_symmetry_equiv_pos_as_xyz
'x, y, z'
_cell_length_a     18.035245
_cell_length_b     52.768056
_cell_length_c     29.872432
_cell_angle_alpha  104.98572
_cell_angle_beta   90.265779
_cell_angle_gamma 89.825109
loop_
_atom_site_label
_atom_site_type_symbol
_atom_site_fract_x
_atom_site_fract_y
_atom_site_fract_z
_atom_type_partial_charge
Tb0 Tb 0.99217 0.38629 0.01671 0.0
C1 C 0.06614 0.39919 0.11577 0.0
Tb2 Tb 0.15797 0.39816 0.02416 0.0
O3 O 0.0235 0.34694 0.97452 0.0
O4 O 0.09088 0.3666 0.02838 0.0
O5 O 1.00382 0.39481 0.09132 0.0
C6 C 0.30198 0.38687 0.01711 0.0
O7 O 0.13279 0.39958 0.09671 0.0
C8 C 0.09131 0.44285 0.03303 0.0
C9 C 0.06745 0.39644 0.9305 0.0
O10 O 0.27248 0.40626 0.0478 0.0
O11 O 0.25037 0.37374 0.99058 0.0
O12 O 0.16269 0.44001 0.03499 0.0
O13 O 0.0597 0.4206 0.02652 0.0
O14 O 0.13329 0.39425 0.9498 0.0
O15 O 1.0043 0.39704 0.95273 0.0
C16 C 0.84517 0.38028 0.01851 0.0
O17 O 0.89331 0.36172 1.00489 0.0
O18 O 0.87966 0.40255 0.03187 0.0
C19 C 0.08506 0.34598 0.99647 0.0
Tb20 Tb 0.86566 0.6593 0.00851 0.0
C21 C 0.94846 0.66299 0.10516 0.0
Tb22 Tb 0.03464 0.66994 0.01761 0.0
O23 O 0.86408 0.61668 0.99964 0.0
O24 O 0.96252 0.63759 0.00854 0.0
O25 O 0.88415 0.661 0.08228 0.0
C26 C 0.18002 0.67315 0.03191 0.0
O27 O 0.01303 0.66578 0.08627 0.0
C28 C 0.95106 0.70857 1.00361 0.0
C29 C 0.96656 0.65181 0.9197 0.0
O30 O 0.13119 0.689 0.05603 0.0
O31 O 0.14703 0.65533 0.99987 0.0
O32 O 0.0194 0.70459 0.99048 0.0
O33 O 0.93514 0.69267 0.02707 0.0
O34 O 0.0242 0.64937 0.94579 0.0
O35 O 0.90034 0.66008 0.93773 0.0
C36 C 0.72165 0.67022 0.01796 0.0
O37 O 0.75134 0.65404 0.98211 0.0
O38 O 0.773 0.6804 0.04743 0.0
C39 C 0.93558 0.61498 1.00388 0.0
Tb40 Tb 0.99902 0.67536 0.5216 0.0
C41 C 0.06261 0.6548 0.42222 0.0
Tb42 Tb 0.16823 0.66019 0.50999 0.0
O43 O 0.02192 0.71127 0.49805 0.0
O44 O 0.10298 0.69408 0.52919 0.0
O45 O 1.00419 0.65567 0.44917 0.0
C46 C 0.31208 0.67154 0.51769 0.0
O47 O 0.13148 0.65996 0.43881 0.0
C48 C 0.08977 0.61837 0.5084 0.0
C49 C 0.08736 0.666 0.60776 0.0
O50 O 0.28329 0.65191 0.48688 0.0
O51 O 0.26004 0.6846 0.54344 0.0
O52 O 0.16161 0.61806 0.50344 0.0
O53 O 0.06706 0.64159 0.51222 0.0
O54 O 0.15077 0.66198 0.58389 0.0
O55 O 0.02305 0.67105 0.59017 0.0
C56 C 0.85359 0.67963 0.53479 0.0
O57 O 0.90246 0.69636 0.55686 0.0
O58 O 0.8867 0.66041 0.50567 0.0
C59 C 0.09182 0.71162 0.50861 0.0
Tb60 Tb 0.85189 0.40636 0.52473 0.0
C61 C 0.95433 0.41074 0.4413 0.0
Tb62 Tb 0.01849 0.39467 0.52693 0.0
O63 O 0.84661 0.44859 0.54723 0.0
O64 O 0.94954 0.42918 0.54124 0.0
O65 O 0.88636 0.40501 0.45305 0.0
C66 C 0.16452 0.38804 0.51403 0.0
O67 O 0.01205 0.41154 0.46891 0.0
C68 C 0.92489 0.35441 0.51403 0.0
C69 C 0.93773 0.40866 0.61993 0.0
O70 O 0.11373 0.38018 0.48269 0.0
O71 O 0.13317 0.39968 0.55303 0.0
O72 O 0.98694 0.35547 0.53642 0.0
O73 O 0.92126 0.37427 0.49888 0.0
O74 O 1.00124 0.41039 0.59932 0.0
O75 O 0.87392 0.40274 0.59652 0.0
C76 C 0.70669 0.39695 0.5127 0.0
O77 O 0.74619 0.39251 0.54635 0.0
O78 O 0.7488 0.40652 0.48613 0.0
C79 C 0.91803 0.45156 0.55077 0.0
Tb80 Tb 0.48721 0.88503 1.00488 0.0
C81 C 0.55341 0.88842 0.10177 0.0
Tb82 Tb 0.65508 0.89895 0.02061 0.0
O83 O 0.51883 0.84492 0.00809 0.0
O84 O 0.59111 0.86777 0.9817 0.0
O85 O 0.49329 0.89151 0.0784 0.0
C86 C 0.80042 0.88987 0.02041 0.0
O87 O 0.62202 0.88837 0.08501 0.0
C88 C 0.5767 0.94171 0.05022 0.0
C89 C 0.57336 0.9023 0.92663 0.0
O90 O 0.74972 0.87529 0.03176 0.0
O91 O 0.7694 0.90978 0.00973 0.0
O92 O 0.64847 0.94081 0.05385 0.0
O93 O 0.55321 0.91864 0.0329 0.0
O94 O 0.63781 0.90169 0.94869 0.0
O95 O 0.50832 0.89775 0.94336 0.0
C96 C 0.34109 0.88026 0.99142 0.0
O97 O 0.3751 0.90184 0.01187 0.0
O98 O 0.38942 0.86164 0.97793 0.0
C99 C 0.58444 0.8461 0.99115 0.0
Tb100 Tb 0.37444 0.1519 0.99639 0.0
C101 C 0.44176 0.16933 0.10115 0.0
Tb102 Tb 0.53497 0.16704 0.01376 0.0
O103 O 0.39769 0.11031 0.97471 0.0
O104 O 0.46677 0.1353 0.02332 0.0
O105 O 0.3819 0.1647 0.0736 0.0
C106 C 0.68333 0.17148 0.01641 0.0
O107 O 0.50959 0.16853 0.08441 0.0
C108 C 0.44071 0.20456 0.00619 0.0
C109 C 0.48134 0.14413 0.91085 0.0
O110 O 0.63623 0.19069 0.02457 0.0
O111 O 0.64693 0.14954 0.00701 0.0
O112 O 0.49771 0.20884 0.03366 0.0
O113 O 0.4425 0.18106 0.98391 0.0
O114 O 0.53736 0.14694 0.94046 0.0
O115 O 0.41144 0.14885 0.92503 0.0
C116 C 0.22816 0.16105 0.99846 0.0
O117 O 0.25899 0.13816 0.98249 0.0
O118 O 0.27955 0.17835 0.01289 0.0
C119 C 0.45839 0.1118 0.99909 0.0
Tb120 Tb 0.47999 0.17468 0.52358 0.0
C121 C 0.53833 0.16279 0.42098 0.0
Tb122 Tb 0.64769 0.16041 0.50175 0.0
O123 O 0.48815 0.21681 0.52317 0.0
O124 O 0.57839 0.19268 0.51354 0.0
O125 O 0.48296 0.16136 0.44905 0.0
C126 C 0.79513 0.15764 0.49754 0.0
O127 O 0.60836 0.16693 0.43563 0.0
C128 C 0.55655 0.12051 0.49462 0.0
C129 C 0.58433 0.17131 0.60662 0.0
O130 O 0.7496 0.13901 0.47857 0.0
O131 O 0.75772 0.17835 0.51863 0.0
O132 O 0.61593 0.11977 0.46993 0.0
O133 O 0.55353 0.1428 0.523 0.0
O134 O 0.64285 0.16607 0.57807 0.0
O135 O 0.51603 0.17484 0.59249 0.0
C136 C 0.33645 0.164 0.52472 0.0
O137 O 0.36738 0.18532 0.54973 0.0
O138 O 0.38628 0.14906 0.49987 0.0
C139 C 0.55949 0.21581 0.51621 0.0
Tb140 Tb 0.36622 0.90131 0.52267 0.0
C141 C 0.44751 0.89474 0.42541 0.0
Tb142 Tb 0.53429 0.89263 0.51188 0.0
O143 O 0.3569 0.94343 0.53115 0.0
O144 O 0.45956 0.92483 0.52065 0.0
O145 O 0.38703 0.88922 0.44686 0.0
C146 C 0.68014 0.88924 0.52278 0.0
O147 O 0.51101 0.90138 0.44736 0.0
C148 C 0.4497 0.84993 0.49451 0.0
C149 C 0.46979 0.91288 0.6108 0.0
O150 O 0.64837 0.89846 0.49108 0.0
O151 O 0.62999 0.88215 0.54794 0.0
O152 O 0.51285 0.85126 0.47487 0.0
O153 O 0.44047 0.87099 0.52495 0.0
O154 O 0.52583 0.9143 0.58338 0.0
O155 O 0.40331 0.90427 0.59421 0.0
C156 C 0.22206 0.89222 0.52991 0.0
O157 O 0.26786 0.89987 0.56418 0.0
O158 O 0.25738 0.88929 0.49115 0.0
C159 C 0.4274 0.94675 0.52659 0.0
H160 H 0.41654 0.41745 0.06074 0.0
H161 H 0.36675 0.34346 0.96183 0.0
H162 H 0.50064 0.33316 0.95395 0.0
H163 H 0.57713 0.43177 1.00084 0.0
H164 H 0.62774 0.44688 0.05304 0.0
H165 H 0.52792 0.44778 0.05292 0.0
H166 H 0.52574 0.42631 0.12173 0.0
H167 H 0.6256 0.42529 0.122 0.0
H168 H 0.57328 0.39559 0.11665 0.0
H169 H 0.63851 0.3305 0.95821 0.0
H170 H 0.77348 0.33722 0.96836 0.0
H171 H 0.7353 0.41452 0.05993 0.0
C172 C 0.43401 0.39903 0.03766 0.0
C173 C 0.38173 0.381 0.01235 0.0
C174 C 0.40625 0.35736 0.98176 0.0
C175 C 0.482 0.35135 0.97715 0.0
C176 C 0.53228 0.36946 1.00276 0.0
C177 C 0.50953 0.39298 0.03194 0.0
C178 C 0.57529 0.40958 0.05362 0.0
C179 C 0.57711 0.43553 0.03922 0.0
C180 C 0.57493 0.41447 0.10665 0.0
C181 C 0.63857 0.39168 0.0321 0.0
C182 C 0.61232 0.36851 1.00339 0.0
C183 C 0.65979 0.34861 0.98035 0.0
C184 C 0.73625 0.35258 0.98644 0.0
C185 C 0.76441 0.37641 0.01473 0.0
C186 C 0.71498 0.39619 0.03791 0.0
H187 H 0.28783 0.64693 0.97425 0.0
H188 H 0.25287 0.70596 0.10365 0.0
H189 H 0.38841 0.71188 0.11353 0.0
H190 H 0.45195 0.61779 0.00902 0.0
H191 H 0.49626 0.61261 0.95342 0.0
H192 H 0.39661 0.6127 0.95705 0.0
H193 H 0.39016 0.6492 0.91336 0.0
H194 H 0.48982 0.6493 0.90977 0.0
H195 H 0.44074 0.67927 0.93565 0.0
H196 H 0.52623 0.71098 0.10985 0.0
H197 H 0.65936 0.70382 0.09253 0.0
H198 H 0.60526 0.64659 0.96381 0.0
C199 C 0.30892 0.66097 1.00476 0.0
C200 C 0.26051 0.67594 0.03837 0.0
C201 C 0.28951 0.69432 0.07764 0.0
C202 C 0.36619 0.69781 0.08349 0.0
C203 C 0.41259 0.68289 0.04954 0.0
C204 C 0.38524 0.66489 0.01089 0.0
C205 C 0.44723 0.65167 0.97928 0.0
C206 C 0.44805 0.62193 0.97443 0.0
C207 C 0.44163 0.65773 0.9317 0.0
C208 C 0.51375 0.66496 0.00637 0.0
C209 C 0.49239 0.68285 0.04683 0.0
C210 C 0.54371 0.69714 0.0782 0.0
C211 C 0.61905 0.69291 0.06808 0.0
C212 C 0.64211 0.67482 0.0267 0.0
C213 C 0.58884 0.66074 0.99541 0.0
H214 H 0.74722 0.64688 0.48684 0.0
H215 H 0.77857 0.71968 0.59297 0.0
H216 H 0.64264 0.72601 0.59852 0.0
H217 H 0.59331 0.6685 0.42945 0.0
H218 H 0.54583 0.63744 0.41731 0.0
H219 H 0.64546 0.63849 0.42191 0.0
H220 H 0.64051 0.6131 0.48541 0.0
H221 H 0.54092 0.61181 0.4808 0.0
H222 H 0.5844 0.62562 0.53616 0.0
H223 H 0.50454 0.72452 0.59215 0.0
H224 H 0.37186 0.71454 0.57659 0.0
H225 H 0.43014 0.64272 0.47424 0.0
C226 C 0.72533 0.66409 0.51136 0.0
C227 C 0.77287 0.68283 0.53955 0.0
C228 C 0.74268 0.70513 0.57117 0.0
C229 C 0.66576 0.7089 0.57445 0.0
C230 C 0.62028 0.69018 0.54583 0.0
C231 C 0.6488 0.66816 0.51503 0.0
C232 C 0.58773 0.65097 0.48841 0.0
C233 C 0.59345 0.64873 0.43618 0.0
C234 C 0.58845 0.62377 0.49831 0.0
C235 C 0.52033 0.66672 0.5092 0.0
C236 C 0.54045 0.68931 0.54213 0.0
C237 C 0.48806 0.7069 0.56648 0.0
C238 C 0.41298 0.70108 0.5574 0.0
C239 C 0.39123 0.67788 0.5243 0.0
C240 C 0.44553 0.66064 0.49957 0.0
H241 H 0.59728 0.39888 0.57701 0.0
H242 H 0.63774 0.38317 0.42944 0.0
H243 H 0.50373 0.37599 0.41387 0.0
H244 H 0.44156 0.35318 0.57153 0.0
H245 H 0.39101 0.37547 0.61718 0.0
H246 H 0.49089 0.37637 0.61668 0.0
H247 H 0.48654 0.4258 0.61924 0.0
H248 H 0.38677 0.42505 0.61961 0.0
H249 H 0.43458 0.4364 0.57562 0.0
H250 H 0.3663 0.37194 0.41417 0.0
H251 H 0.23201 0.37435 0.43029 0.0
H252 H 0.27798 0.39609 0.57798 0.0
C253 C 0.57771 0.39345 0.54148 0.0
C254 C 0.62733 0.39127 0.50428 0.0
C255 C 0.60019 0.38483 0.45827 0.0
C256 C 0.52437 0.38062 0.44912 0.0
C257 C 0.47643 0.38333 0.48649 0.0
C258 C 0.50172 0.38981 0.5318 0.0
C259 C 0.43756 0.39373 0.5656 0.0
C260 C 0.44044 0.37347 0.59445 0.0
C261 C 0.43631 0.42192 0.59685 0.0
C262 C 0.37242 0.38872 0.53219 0.0
C263 C 0.39633 0.3823 0.48675 0.0
C264 C 0.34683 0.37691 0.44959 0.0
C265 C 0.27074 0.37832 0.45908 0.0
C266 C 0.24492 0.38546 0.50531 0.0
C267 C 0.29643 0.39063 0.54232 0.0
H268 H 0.91473 0.92261 0.01388 0.0
H269 H 0.86502 0.8429 0.01809 0.0
H270 H 0.99756 0.83119 0.00617 0.0
H271 H 0.0598 0.90774 0.92847 0.0
H272 H 0.11661 0.9353 0.95691 0.0
H273 H 0.01731 0.93718 0.96339 0.0
H274 H 0.03193 0.94868 0.05273 0.0
H275 H 0.13121 0.94707 0.04652 0.0
H276 H 0.08517 0.92726 0.07885 0.0
H277 H 0.13424 0.82787 0.99089 0.0
H278 H 0.26896 0.83439 0.98433 0.0
H279 H 0.23198 0.91725 0.99755 0.0
C280 C 0.93197 0.90272 0.01227 0.0
C281 C 0.87995 0.88351 0.01624 0.0
C282 C 0.9042 0.85778 0.01467 0.0
C283 C 0.97923 0.85096 0.0078 0.0
C284 C 0.02921 0.87027 1.00349 0.0
C285 C 1.00691 0.89575 0.00652 0.0
C286 C 0.07249 0.91309 1.00342 0.0
C287 C 0.06615 0.92396 0.96049 0.0
C288 C 0.08067 0.93533 0.04805 0.0
C289 C 0.13517 0.89341 0.99835 0.0
C290 C 0.10873 0.86872 0.9975 0.0
C291 C 0.15569 0.84714 0.99186 0.0
C292 C 0.23195 0.851 0.98792 0.0
C293 C 0.26038 0.87631 0.99064 0.0
C294 C 0.21138 0.89773 0.9956 0.0
H295 H 0.10991 0.12656 0.98124 0.0
H296 H 0.16568 0.20933 0.02293 0.0
H297 H 0.03293 0.22065 0.03163 0.0
H298 H 0.94323 0.13348 0.91589 0.0
H299 H 0.89266 0.10851 0.93415 0.0
H300 H 0.99227 0.1067 0.92995 0.0
H301 H 1.00075 0.10467 0.01554 0.0
H302 H 0.90122 0.10658 0.02005 0.0
H303 H 0.95794 0.13015 0.06005 0.0
H304 H 0.89551 0.22332 0.03728 0.0
H305 H 0.76007 0.21717 0.03848 0.0
H306 H 0.79028 0.13277 0.99389 0.0
C307 C 0.0939 0.14703 0.99188 0.0
C308 C 0.14796 0.16709 1.00144 0.0
C309 C 0.12515 0.19366 0.01555 0.0
C310 C 0.04987 0.2003 0.02057 0.0
C311 C 0.99787 0.18015 0.01141 0.0
C312 C 0.01857 0.15405 0.99727 0.0
C313 C 0.95095 0.13634 0.99032 0.0
C314 C 0.94441 0.12031 0.93955 0.0
C315 C 0.95285 0.11838 0.02347 0.0
C316 C 0.8893 0.15657 1.00296 0.0
C317 C 0.91788 0.18171 0.01492 0.0
C318 C 0.8724 0.20375 0.02794 0.0
C319 C 0.79556 0.20005 0.02856 0.0
C320 C 0.7648 0.17454 0.01636 0.0
C321 C 0.81239 0.15251 1.0035 0.0
H322 H 0.21919 0.19645 0.56087 0.0
H323 H 0.27465 0.11811 0.47888 0.0
H324 H 0.14213 0.10817 0.46468 0.0
H325 H 0.04945 0.17767 0.61277 0.0
H326 H 1.00021 0.20705 0.61021 0.0
H327 H 0.09963 0.20768 0.61672 0.0
H328 H 0.11174 0.2254 0.5438 0.0
H329 H 0.01244 0.22465 0.53723 0.0
H330 H 0.07017 0.20737 0.49 0.0
H331 H 1.00687 0.10727 0.45475 0.0
H332 H 0.87212 0.11454 0.45328 0.0
H333 H 0.9003 0.19312 0.54254 0.0
C334 C 0.20306 0.17711 0.54062 0.0
C335 C 0.2568 0.15799 0.52098 0.0
C336 C 0.23415 0.13299 0.49421 0.0
C337 C 0.15909 0.12716 0.48592 0.0
C338 C 0.1074 0.14652 0.50478 0.0
C339 C 0.12791 0.17091 0.53192 0.0
C340 C 0.06045 0.18827 0.54679 0.0
C341 C 0.05194 0.19559 0.59977 0.0
C342 C 0.06396 0.21287 0.52833 0.0
C343 C 0.99932 0.16988 0.52314 0.0
C344 C 0.02803 0.14593 0.49916 0.0
C345 C 0.98346 0.12584 0.47364 0.0
C346 C 0.90709 0.1302 0.4729 0.0
C347 C 0.87612 0.15443 0.49756 0.0
C348 C 0.92278 0.17453 0.52301 0.0
H349 H 0.79338 0.89336 0.46388 0.0
H350 H 0.7469 0.88068 0.59882 0.0
H351 H 0.88098 0.87789 0.61354 0.0
H352 H 0.95211 0.84822 0.43868 0.0
H353 H 1.00301 0.86851 0.40943 0.0
H354 H 0.90308 0.86881 0.40874 0.0
H355 H 0.90364 0.91926 0.44285 0.0
H356 H 1.00345 0.91908 0.4436 0.0
H357 H 0.95299 0.93312 0.49616 0.0
H358 H 0.01844 0.87949 0.61611 0.0
H359 H 0.15301 0.88377 0.60501 0.0
H360 H 0.11215 0.89267 0.46668 0.0
C361 C 0.81171 0.88992 0.49639 0.0
C362 C 0.76028 0.88733 0.53036 0.0
C363 C 0.78575 0.88269 0.5724 0.0
C364 C 0.86165 0.88104 0.58105 0.0
C365 C 0.91115 0.88369 0.54697 0.0
C366 C 0.88748 0.88779 0.5053 0.0
C367 C 0.95268 0.89009 0.47479 0.0
C368 C 0.9527 0.86756 0.43027 0.0
C369 C 0.9532 0.91699 0.46372 0.0
C370 C 0.0165 0.88741 0.50641 0.0
C371 C 0.99113 0.88367 0.54783 0.0
C372 C 0.03914 0.88208 0.58364 0.0
C373 C 0.11525 0.88463 0.57712 0.0
C374 C 0.14233 0.8884 0.53499 0.0
C375 C 0.09253 0.88945 0.49898 0.0
H376 H 0.90132 0.56403 0.96292 0.0
H377 H 0.05075 0.61307 0.0625 0.0
H378 H 0.09454 0.57394 0.08618 0.0
H379 H 0.85093 0.51915 0.02752 0.0
H380 H 0.8527 0.49031 0.97944 0.0
H381 H 0.83255 0.5219 0.96958 0.0
H382 H 0.94045 0.51629 0.91083 0.0
H383 H 0.95951 0.48437 0.91951 0.0
H384 H 0.03199 0.5086 0.92803 0.0
H385 H 0.11455 0.53068 0.10295 0.0
H386 H 0.13459 0.48415 0.09978 0.0
H387 H 0.98024 0.46143 0.98472 0.0
C388 C 0.94436 0.56635 0.98907 0.0
C389 C 0.97295 0.59147 0.011 0.0
C390 C 0.02892 0.59396 0.04506 0.0
C391 C 0.05329 0.57189 0.05906 0.0
C392 C 0.02213 0.54751 0.03789 0.0
C393 C 0.97082 0.5444 1.0025 0.0
C394 C 0.9496 0.5157 0.98373 0.0
C395 C 0.86649 0.51154 0.99048 0.0
C396 C 0.97172 0.50565 0.93249 0.0
C397 C 0.99647 0.50314 0.01451 0.0
C398 C 0.03648 0.52208 0.04609 0.0
C399 C 0.08399 0.51569 0.07822 0.0
C400 C 0.09438 0.48921 0.0764 0.0
C401 C 0.05827 0.46927 0.04242 0.0
C402 C 1.00684 0.47629 0.01186 0.0
H403 H 0.03708 0.46819 0.50768 0.0
H404 H 0.86751 0.49446 0.61177 0.0
H405 H 0.89104 0.54038 0.61151 0.0
H406 H 0.16366 0.52631 0.55102 0.0
H407 H 0.18974 0.52647 0.49292 0.0
H408 H 0.16609 0.49602 0.50603 0.0
H409 H 0.06856 0.48777 0.4404 0.0
H410 H 0.08842 0.51868 0.42831 0.0
H411 H 0.99512 0.51123 0.44213 0.0
H412 H 0.91852 0.58271 0.59137 0.0
H413 H 0.96805 0.61986 0.564 0.0
H414 H 0.12309 0.56692 0.4757 0.0
C415 C 1.00772 0.48373 0.53195 0.0
C416 C 0.95133 0.47789 0.56032 0.0
C417 C 0.91173 0.49865 0.59031 0.0
C418 C 0.92413 0.52478 0.59009 0.0
C419 C 0.97684 0.52993 0.55984 0.0
C420 C 0.01965 0.51014 0.53226 0.0
C421 C 0.07082 0.52114 0.50182 0.0
C422 C 0.15242 0.51726 0.51367 0.0
C423 C 0.05469 0.50898 0.45012 0.0
C424 C 0.04888 0.5499 0.516 0.0
C425 C 0.99395 0.55454 0.54911 0.0
C426 C 0.96242 0.57941 0.56593 0.0
C427 C 0.99004 0.60033 0.54981 0.0
C428 C 0.04902 0.59616 0.51777 0.0
C429 C 0.07774 0.57057 0.50021 0.0
H430 H 0.49451 0.95878 0.98629 0.0
H431 H 0.58138 0.98202 0.12625 0.0
H432 H 0.55864 1.02853 0.12897 0.0
H433 H 0.57797 1.00739 0.94836 0.0
H434 H 0.50353 1.01367 0.9122 0.0
H435 H 0.51239 0.98187 0.92337 0.0
H436 H 0.37868 0.98494 0.95541 0.0
H437 H 0.36827 1.01641 0.94292 0.0
H438 H 0.35141 1.0132 1.00063 0.0
H439 H 0.54616 0.07245 0.11226 0.0
H440 H 0.52437 0.11114 0.08168 0.0
H441 H 0.44493 0.06007 0.95236 0.0
C442 C 0.50443 0.97361 0.01835 0.0
C443 C 0.53728 0.96686 0.05673 0.0
C444 C 0.55398 0.98684 0.09714 0.0
C445 C 0.54211 1.01332 0.09877 0.0
C446 C 0.51365 1.01955 0.05952 0.0
C447 C 0.49326 1.0003 0.0204 0.0
C448 C 0.46895 1.01248 0.98184 0.0
C449 C 0.51869 1.0033 0.93893 0.0
C450 C 0.38694 1.0064 0.96949 0.0
C451 C 0.48047 0.04141 1.00511 0.0
C452 C 0.5066 0.04504 0.04984 0.0
C453 C 0.52454 0.0699 0.07753 0.0
C454 C 0.51283 0.09176 0.05969 0.0
C455 C 0.483 0.08863 0.01468 0.0
C456 C 0.46777 0.06305 0.98693 0.0
H457 H 0.57624 0.06933 0.445 0.0
H458 H 0.47366 0.11767 0.56927 0.0
H459 H 0.44275 0.07789 0.59417 0.0
H460 H 0.44128 1.01625 0.42621 0.0
H461 H 0.50959 0.99102 0.40514 0.0
H462 H 0.52312 1.02338 0.39729 0.0
H463 H 0.65065 1.02568 0.43845 0.0
H464 H 0.63639 0.99357 0.44745 0.0
H465 H 0.65562 1.02108 0.49614 0.0
H466 H 0.42573 0.03369 0.60683 0.0
H467 H 0.40465 0.9868 0.6008 0.0
H468 H 0.51619 0.966 0.46812 0.0
C469 C 0.54639 0.07147 0.47714 0.0
C470 C 0.5275 0.09659 0.50533 0.0
C471 C 0.48847 0.09864 0.54711 0.0
C472 C 0.47133 0.07617 0.56175 0.0
C473 C 0.49305 0.05179 0.53403 0.0
C474 C 0.52825 0.04917 0.49212 0.0
C475 C 0.54277 1.02046 0.46824 0.0
C476 C 0.50172 1.0123 0.42146 0.0
C477 C 0.62634 1.01488 0.46223 0.0
C478 C 0.50989 1.00737 0.50325 0.0
C479 C 0.48261 1.02596 0.5412 0.0
C480 C 0.44717 1.01897 0.57748 0.0
C481 C 0.43607 0.99232 0.57396 0.0
C482 C 0.46042 0.97295 0.53461 0.0
C483 C 0.49953 0.98046 0.49929 0.0
H484 H 0.20245 0.33839 0.05126 0.0
H485 H 0.08067 0.30143 0.92592 0.0
H486 H 0.16049 0.26216 0.91469 0.0
H487 H 0.38756 0.31104 0.01169 0.0
H488 H 0.41102 0.30776 0.06848 0.0
H489 H 0.34738 0.33307 0.06235 0.0
H490 H 0.25288 0.31393 0.11136 0.0
H491 H 0.31646 0.28793 0.11389 0.0
H492 H 0.22445 0.28016 0.09071 0.0
H493 H 0.25078 0.22682 0.91735 0.0
H494 H 0.34582 0.19692 0.93362 0.0
H495 H 0.4108 0.25553 0.05832 0.0
C496 C 0.19318 0.32209 0.02122 0.0
C497 C 0.13547 0.32298 0.98922 0.0
C498 C 0.12452 0.3012 0.95071 0.0
C499 C 0.16966 0.27882 0.94406 0.0
C500 C 0.22559 0.27846 0.9763 0.0
C501 C 0.23777 0.29948 0.01414 0.0
C502 C 0.30028 0.29346 0.04433 0.0
C503 C 0.36535 0.31251 0.04689 0.0
C504 C 0.27179 0.2939 0.09296 0.0
C505 C 0.32151 0.26584 0.01737 0.0
C506 C 0.2775 0.2577 0.97826 0.0
C507 C 0.28561 0.23301 0.94781 0.0
C508 C 0.33993 0.21613 0.95744 0.0
C509 C 0.38585 0.22381 0.99729 0.0
C510 C 0.37674 0.24914 0.02754 0.0
H511 H 0.59563 0.80396 0.02996 0.0
H512 H 0.70822 0.84311 0.93872 0.0
H513 H 0.81196 0.81165 0.93053 0.0
H514 H 0.75509 0.78965 0.09035 0.0
H515 H 0.72365 0.75761 0.09273 0.0
H516 H 0.65722 0.78274 0.09015 0.0
H517 H 0.59802 0.75127 0.0187 0.0
H518 H 0.66687 0.72633 0.01776 0.0
H519 H 0.65287 0.73841 0.96744 0.0
H520 H 0.90601 0.77703 0.93445 0.0
H521 H 0.98241 0.741 0.94886 0.0
H522 H 0.81148 0.72441 0.03873 0.0
C523 C 0.64199 0.80576 0.00809 0.0
C524 C 0.64413 0.82609 0.9852 0.0
C525 C 0.70561 0.82777 0.95676 0.0
C526 C 0.76481 0.80996 0.95184 0.0
C527 C 0.7619 0.79046 0.97552 0.0
C528 C 0.70202 0.78814 1.00293 0.0
C529 C 0.71293 0.76523 0.02432 0.0
C530 C 0.7122 0.77437 0.07755 0.0
C531 C 0.65403 0.74409 0.00598 0.0
C532 C 0.78937 0.75568 0.00615 0.0
C533 C 0.81609 0.77034 0.97754 0.0
C534 C 0.88543 0.76535 0.95663 0.0
C535 C 0.92855 0.74486 0.96513 0.0
C536 C 0.90275 0.72964 0.99458 0.0
C537 C 0.83217 0.73525 0.01536 0.0
H538 H 0.09367 0.76557 0.52844 0.0
H539 H 0.22172 0.69639 0.46345 0.0
H540 H 0.32382 0.72414 0.44949 0.0
H541 H 0.15742 0.80534 0.45243 0.0
H542 H 0.16384 0.83545 0.49712 0.0
H543 H 0.096 0.81125 0.50155 0.0
H544 H 0.14602 0.80885 0.581 0.0
H545 H 0.21225 0.83406 0.57946 0.0
H546 H 0.24352 0.80317 0.58808 0.0
H547 H 0.41355 0.75938 0.44345 0.0
H548 H 0.48767 0.79962 0.45066 0.0
H549 H 0.30694 0.84637 0.52449 0.0
C550 C 0.14283 0.75637 0.51063 0.0
C551 C 0.14977 0.72873 0.49698 0.0
C552 C 0.21528 0.7174 0.47449 0.0
C553 C 0.27358 0.73307 0.46616 0.0
C554 C 0.26587 0.76022 0.48071 0.0
C555 C 0.20236 0.77185 0.5027 0.0
C556 C 0.21008 0.80153 0.51672 0.0
C557 C 0.1534 0.81412 0.49042 0.0
C558 C 0.20253 0.81254 0.56945 0.0
C559 C 0.28861 0.80463 0.50065 0.0
C560 C 0.31899 0.78057 0.47891 0.0
C561 C 0.39038 0.77835 0.46048 0.0
C562 C 0.4321 0.8013 0.46473 0.0
C563 C 0.40311 0.82611 0.48813 0.0
C564 C 0.33035 0.82771 0.50625 0.0
H565 H 0.91811 0.30934 0.54635 0.0
H566 H 0.7971 0.35394 0.46652 0.0
H567 H 0.69139 0.32384 0.45933 0.0
H568 H 0.85358 0.24556 0.4753 0.0
H569 H 0.84831 0.23086 0.52328 0.0
H570 H 0.91489 0.25643 0.52431 0.0
H571 H 0.86231 0.28359 0.60249 0.0
H572 H 0.79605 0.25805 0.60203 0.0
H573 H 0.76463 0.29115 0.60721 0.0
H574 H 0.59544 0.29095 0.46479 0.0
H575 H 0.51961 0.25395 0.47526 0.0
H576 H 0.70458 0.22691 0.54382 0.0
C577 C 0.86933 0.31266 0.52736 0.0
C578 C 0.86491 0.33456 0.50828 0.0
C579 C 0.80081 0.33788 0.48278 0.0
C580 C 0.74055 0.32074 0.47817 0.0
C581 C 0.74578 0.29968 0.49798 0.0
C582 C 0.8089 0.29516 0.52127 0.0
C583 C 0.80046 0.27023 0.53736 0.0
C584 C 0.85777 0.24954 0.51364 0.0
C585 C 0.80619 0.27612 0.59043 0.0
C586 C 0.72231 0.26193 0.52043 0.0
C587 C 0.69181 0.2794 0.49811 0.0
C588 C 0.61908 0.27687 0.48152 0.0
C589 C 0.57636 0.25587 0.48771 0.0
C590 C 0.60676 0.23737 0.50945 0.0
C591 C 0.6808 0.24039 0.52589 0.0
H592 H 0.9547 0.38367 0.16509 0.0
H593 H 0.16293 0.42623 0.18142 0.0
H594 H 0.14828 0.43724 0.26646 0.0
H595 H 0.85728 0.42647 0.26159 0.0
H596 H 0.81205 0.40001 0.27857 0.0
H597 H 0.83634 0.39637 0.21877 0.0
H598 H 0.9113 0.35434 0.21817 0.0
H599 H 0.88645 0.35766 0.27772 0.0
H600 H 0.9827 0.35559 0.26113 0.0
H601 H 0.11214 0.44363 0.34832 0.0
H602 H 0.0666 0.44028 0.42367 0.0
H603 H 0.88224 0.39233 0.35642 0.0
C604 C 0.99713 0.39538 0.18659 0.0
C605 C 0.05992 0.40425 0.16668 0.0
C606 C 0.11468 0.41917 0.19592 0.0
C607 C 0.10644 0.4257 0.2442 0.0
C608 C 0.04346 0.41697 0.26264 0.0
C609 C 0.99029 0.40178 0.23491 0.0
C610 C 0.93038 0.39355 0.26391 0.0
C611 C 0.85452 0.40478 0.25517 0.0
C612 C 0.92759 0.3635 0.25469 0.0
C613 C 0.95862 0.40634 0.31241 0.0
C614 C 0.02331 0.42008 0.31052 0.0
C615 C 0.06159 0.43297 0.35024 0.0
C616 C 0.03491 0.431 0.39297 0.0
C617 C 0.97058 0.41613 0.39607 0.0
C618 C 0.93075 0.40418 0.35524 0.0
H619 H 0.05343 0.68211 0.17154 0.0
H620 H 0.85137 0.63605 0.14611 0.0
H621 H 0.86625 0.62603 0.22218 0.0
H622 H 0.15541 0.64139 0.22879 0.0
H623 H 0.19817 0.66826 0.27065 0.0
H624 H 0.17207 0.67202 0.21441 0.0
H625 H 0.09228 0.7127 0.25264 0.0
H626 H 0.11931 0.70939 0.30895 0.0
H627 H 0.02243 0.71008 0.29418 0.0
H628 H 0.90541 0.61977 0.29889 0.0
H629 H 0.95436 0.6229 0.37707 0.0
H630 H 0.12997 0.67429 0.35476 0.0
C631 C 0.01192 0.67007 0.18212 0.0
C632 C 0.95109 0.65981 0.15292 0.0
C633 C 0.89785 0.6443 0.1681 0.0
C634 C 0.90638 0.63829 0.21099 0.0
C635 C 0.96804 0.64817 0.23833 0.0
C636 C 0.01913 0.66415 0.22497 0.0
C637 C 0.07888 0.67305 0.26166 0.0
C638 C 0.15568 0.66308 0.24273 0.0
C639 C 0.07814 0.70308 0.28048 0.0
C640 C 0.05338 0.65958 0.29797 0.0
C641 C 0.98989 0.64505 0.28331 0.0
C642 C 0.95483 0.63115 0.31077 0.0
C643 C 0.98333 0.63301 0.35511 0.0
C644 C 0.04605 0.64883 0.372 0.0
C645 C 0.08282 0.66171 0.34251 0.0
H646 H 0.90744 0.67662 0.85644 0.0
H647 H 0.06429 0.61665 0.87069 0.0
H648 H 0.11389 0.61444 0.79323 0.0
H649 H 0.87453 0.64909 0.72938 0.0
H650 H 0.86768 0.68123 0.71921 0.0
H651 H 0.83968 0.67627 0.77415 0.0
H652 H 0.92971 0.71309 0.81592 0.0
H653 H 0.95929 0.71772 0.76109 0.0
H654 H 0.02665 0.71058 0.80091 0.0
H655 H 0.15659 0.62201 0.71833 0.0
H656 H 0.1756 0.63402 0.64441 0.0
H657 H 0.98974 0.68802 0.67677 0.0
C658 C 0.95034 0.66241 0.84249 0.0
C659 C 0.98186 0.64677 0.86955 0.0
C660 C 0.03934 0.62885 0.85056 0.0
C661 C 0.06819 0.62749 0.80663 0.0
C662 C 0.03866 0.64403 0.78169 0.0
C663 C 0.97989 0.66071 0.79829 0.0
C664 C 0.95993 0.67676 0.76452 0.0
C665 C 0.88076 0.67045 0.74569 0.0
C666 C 0.96948 0.70628 0.78697 0.0
C667 C 0.0174 0.66677 0.72706 0.0
C668 C 0.0626 0.64803 0.73783 0.0
C669 C 0.12107 0.63648 0.7092 0.0
C670 C 0.1321 0.64364 0.66758 0.0
C671 C 0.08444 0.66197 0.65492 0.0
C672 C 0.02711 0.6739 0.68551 0.0
H673 H 0.89246 0.37818 0.67759 0.0
H674 H 1.00109 0.45105 0.67577 0.0
H675 H 0.04857 0.45532 0.75479 0.0
H676 H 0.84405 0.39903 0.80545 0.0
H677 H 0.85983 0.36641 0.8119 0.0
H678 H 0.82656 0.37093 0.7575 0.0
H679 H 0.93708 0.3433 0.71604 0.0
H680 H 0.97214 0.33944 0.77042 0.0
H681 H 0.03042 0.3533 0.73402 0.0
H682 H 0.10112 0.44827 0.82812 0.0
H683 H 0.13262 0.43519 0.89989 0.0
H684 H 0.98484 0.36858 0.85792 0.0
C685 C 0.92309 0.39562 0.69484 0.0
C686 C 0.94235 0.41449 0.67092 0.0
C687 C 0.98502 0.43658 0.69386 0.0
C688 C 0.01287 0.43906 0.73856 0.0
C689 C 0.99683 0.41942 0.76031 0.0
C690 C 0.95092 0.39857 0.74006 0.0
C691 C 0.94427 0.37994 0.771 0.0
C692 C 0.8639 0.37903 0.78745 0.0
C693 C 0.97268 0.35237 0.74638 0.0
C694 C 0.99515 0.39322 0.8108 0.0
C695 C 0.02556 0.41581 0.80364 0.0
C696 C 0.07692 0.4308 0.83448 0.0
C697 C 0.09548 0.42304 0.87472 0.0
C698 C 0.06203 0.40074 0.88383 0.0
C699 C 0.01179 0.38556 0.85128 0.0
H700 H 0.61793 0.9104 0.18741 0.0
H701 H 0.45256 0.85448 0.11708 0.0
H702 H 0.40587 0.85031 0.19213 0.0
H703 H 0.65262 0.87895 0.28384 0.0
H704 H 0.66348 0.91005 0.32599 0.0
H705 H 0.68843 0.90679 0.26643 0.0
H706 H 0.60062 0.94548 0.26452 0.0
H707 H 0.57416 0.94846 0.32371 0.0
H708 H 0.5042 0.94366 0.27904 0.0
H709 H 0.36848 0.85525 0.27432 0.0
H710 H 0.3546 0.86474 0.35954 0.0
H711 H 0.54398 0.91705 0.37694 0.0
C712 C 0.57361 0.8967 0.18801 0.0
C713 C 0.53903 0.88264 0.14663 0.0
C714 C 0.4798 0.86536 0.14858 0.0
C715 C 0.45265 0.86292 0.19099 0.0
C716 C 0.48545 0.87783 0.23134 0.0
C717 C 0.54547 0.89403 0.2304 0.0
C718 C 0.56878 0.90837 0.27914 0.0
C719 C 0.64802 0.90056 0.28946 0.0
C720 C 0.56148 0.93826 0.28704 0.0
C721 C 0.51198 0.89793 0.30715 0.0
C722 C 0.46417 0.88045 0.27895 0.0
C723 C 0.40606 0.86871 0.29693 0.0
C724 C 0.39807 0.87438 0.34527 0.0
C725 C 0.44828 0.89148 0.37479 0.0
C726 C 0.505 0.90369 0.35525 0.0
H727 H 0.54355 0.18928 0.16888 0.0
H728 H 0.32917 0.1508 0.14526 0.0
H729 H 0.33311 0.14465 0.22454 0.0
H730 H 0.62483 0.14821 0.22979 0.0
H731 H 0.67515 0.17351 0.27065 0.0
H732 H 0.6531 0.17748 0.214 0.0
H733 H 0.58646 0.22146 0.2506 0.0
H734 H 0.60983 0.21798 0.30742 0.0
H735 H 0.51452 0.2225 0.29274 0.0
H736 H 0.36635 0.1384 0.30173 0.0
H737 H 0.41641 0.13807 0.37795 0.0
H738 H 0.60959 0.18161 0.35356 0.0
C739 C 0.49657 0.18008 0.18074 0.0
C740 C 0.43582 0.17053 0.15095 0.0
C741 C 0.37569 0.15853 0.16764 0.0
C742 C 0.37786 0.15475 0.21243 0.0
C743 C 0.44011 0.16336 0.24006 0.0
C744 C 0.49767 0.1763 0.22534 0.0
C745 C 0.55877 0.18315 0.26162 0.0
C746 C 0.6323 0.16978 0.24287 0.0
C747 C 0.56791 0.21305 0.27914 0.0
C748 C 0.52717 0.17159 0.29888 0.0
C749 C 0.45885 0.16018 0.28538 0.0
C750 C 0.41911 0.14763 0.31299 0.0
C751 C 0.4484 0.14754 0.35628 0.0
C752 C 0.51676 0.16009 0.37207 0.0
C753 C 0.55748 0.1718 0.34246 0.0
H754 H 0.41145 0.16528 0.84745 0.0
H755 H 0.60015 0.11777 0.86574 0.0
H756 H 0.65138 0.12119 0.791 0.0
H757 H 0.39638 0.14022 0.72017 0.0
H758 H 0.37154 0.17206 0.71307 0.0
H759 H 0.347 0.16324 0.76542 0.0
H760 H 0.41455 0.20483 0.81334 0.0
H761 H 0.44129 0.21332 0.76106 0.0
H762 H 0.51104 0.20958 0.8023 0.0
H763 H 0.6864 0.13244 0.71655 0.0
H764 H 0.69385 0.14615 0.64342 0.0
H765 H 0.48512 0.18787 0.67662 0.0
C766 C 0.4621 0.15482 0.83487 0.0
C767 C 0.50141 0.14098 0.86195 0.0
C768 C 0.5689 0.12827 0.84516 0.0
C769 C 0.5987 0.13025 0.80296 0.0
C770 C 0.56047 0.14512 0.77808 0.0
C771 C 0.49308 0.15684 0.79303 0.0
C772 C 0.46458 0.17251 0.76072 0.0
C773 C 0.3905 0.16133 0.73852 0.0
C774 C 0.45747 0.20179 0.78588 0.0
C775 C 0.5265 0.16784 0.72547 0.0
C776 C 0.58146 0.15206 0.73602 0.0
C777 C 0.64359 0.14479 0.70784 0.0
C778 C 0.64787 0.15292 0.66666 0.0
C779 C 0.59026 0.16811 0.65426 0.0
C780 C 0.53026 0.17629 0.68502 0.0
H781 H 0.39949 0.89485 0.67817 0.0
H782 H 0.58103 0.94396 0.65594 0.0
H783 H 0.62652 0.94765 0.73517 0.0
H784 H 0.37126 0.92862 0.80297 0.0
H785 H 0.35116 0.8982 0.81724 0.0
H786 H 0.32815 0.90206 0.7606 0.0
H787 H 0.40476 0.86035 0.72333 0.0
H788 H 0.42924 0.85667 0.77978 0.0
H789 H 0.50097 0.85878 0.7391 0.0
H790 H 0.6611 0.94181 0.81372 0.0
H791 H 0.67281 0.93062 0.88924 0.0
H792 H 0.46857 0.88599 0.85993 0.0
C793 C 0.44731 0.90706 0.69054 0.0
C794 C 0.48659 0.91911 0.66092 0.0
C795 C 0.55007 0.93447 0.67803 0.0
C796 C 0.57651 0.9367 0.723 0.0
C797 C 0.53861 0.92362 0.75069 0.0
C798 C 0.47463 0.90949 0.73548 0.0
C799 C 0.44655 0.89627 0.77137 0.0
C800 C 0.36973 0.90693 0.7891 0.0
C801 C 0.44535 0.86625 0.75224 0.0
C802 C 0.50542 0.90477 0.80849 0.0
C803 C 0.55816 0.92051 0.79605 0.0
C804 C 0.61957 0.92976 0.82419 0.0
C805 C 0.62624 0.92314 0.86672 0.0
C806 C 0.57155 0.9076 0.88048 0.0
C807 C 0.51093 0.8982 0.85065 0.0
loop_
_geom_bond_atom_site_label_1
_geom_bond_atom_site_label_2
_geom_bond_distance
_geom_bond_site_symmetry_2
_ccdc_geom_bond_type
Tb0 O3 2.453 1_655 S
Tb0 O4 2.596 1_656 S
Tb0 O5 2.374 1_656 S
Tb0 O13 2.343 1_656 S
Tb0 O15 2.353 1_655 S
Tb0 O17 2.427 . S
Tb0 O18 2.513 1_556 S
C1 O5 1.251 . S
C1 O7 1.263 . S
Tb2 O4 2.343 . S
Tb2 O7 2.353 . S
Tb2 O10 2.427 . S
Tb2 O11 2.513 1_554 S
Tb2 O12 2.453 . S
Tb2 O13 2.596 . S
Tb2 O14 2.374 1_554 S
O3 Tb0 2.453 1_455 S
O3 C19 1.243 1_556 S
O4 Tb0 2.596 1_454 S
O4 Tb2 2.343 . S
O4 C19 1.258 . S
O5 Tb0 2.374 1_454 S
O5 C1 1.251 . S
C6 O10 1.275 . S
C6 O11 1.246 1_554 S
O7 C1 1.263 . S
O7 Tb2 2.353 . S
C8 O12 1.245 . S
C8 O13 1.259 . S
C9 O14 1.250 . S
C9 O15 1.263 . S
O10 Tb2 2.427 . S
O10 C6 1.275 . S
O11 Tb2 2.513 1_556 S
O11 C6 1.246 1_556 S
O12 Tb2 2.453 . S
O12 C8 1.245 . S
O13 Tb0 2.343 1_454 S
O13 Tb2 2.596 . S
O13 C8 1.259 . S
O14 Tb2 2.374 1_556 S
O14 C9 1.250 . S
O15 Tb0 2.353 1_455 S
O15 C9 1.263 . S
C16 O17 1.275 1_554 S
C16 O18 1.246 . S
O17 Tb0 2.427 . S
O17 C16 1.275 1_556 S
O18 Tb0 2.513 1_554 S
O18 C16 1.246 . S
C19 O3 1.243 1_554 S
C19 O4 1.258 . S
Tb20 O23 2.453 1_554 S
Tb20 O24 2.596 . S
Tb20 O25 2.374 . S
Tb20 O33 2.343 . S
Tb20 O35 2.353 1_554 S
Tb20 O37 2.427 1_554 S
Tb20 O38 2.513 . S
C21 O25 1.251 . S
C21 O27 1.263 . S
Tb22 O24 2.343 1_455 S
Tb22 O27 2.353 1_455 S
Tb22 O30 2.427 . S
Tb22 O31 2.513 1_554 S
Tb22 O32 2.453 1_455 S
Tb22 O33 2.596 1_455 S
Tb22 O34 2.374 1_454 S
O23 Tb20 2.453 1_556 S
O23 C39 1.245 1_556 S
O24 Tb20 2.596 . S
O24 Tb22 2.343 1_655 S
O24 C39 1.259 . S
O25 Tb20 2.374 . S
O25 C21 1.251 . S
C26 O30 1.275 . S
C26 O31 1.246 1_554 S
O27 C21 1.263 . S
O27 Tb22 2.353 1_655 S
C28 O32 1.245 . S
C28 O33 1.259 . S
C29 O34 1.250 . S
C29 O35 1.263 . S
O30 Tb22 2.427 . S
O30 C26 1.275 . S
O31 Tb22 2.513 1_556 S
O31 C26 1.246 1_556 S
O32 Tb22 2.453 1_655 S
O32 C28 1.245 . S
O33 Tb20 2.343 . S
O33 Tb22 2.596 1_655 S
O33 C28 1.259 . S
O34 Tb22 2.374 1_656 S
O34 C29 1.250 . S
O35 Tb20 2.353 1_556 S
O35 C29 1.263 . S
C36 O37 1.275 1_554 S
C36 O38 1.246 . S
O37 Tb20 2.427 1_556 S
O37 C36 1.275 1_556 S
O38 Tb20 2.513 . S
O38 C36 1.246 . S
C39 O23 1.245 1_554 S
C39 O24 1.259 . S
Tb40 O43 2.453 1_655 S
Tb40 O44 2.596 1_655 S
Tb40 O45 2.374 1_655 S
Tb40 O53 2.343 1_655 S
Tb40 O55 2.353 1_655 S
Tb40 O57 2.427 . S
Tb40 O58 2.513 . S
C41 O45 1.251 . S
C41 O47 1.263 . S
Tb42 O44 2.343 . S
Tb42 O47 2.353 . S
Tb42 O50 2.427 . S
Tb42 O51 2.513 . S
Tb42 O52 2.453 . S
Tb42 O53 2.596 . S
Tb42 O54 2.374 . S
O43 Tb40 2.453 1_455 S
O43 C59 1.245 . S
O44 Tb40 2.596 1_455 S
O44 Tb42 2.343 . S
O44 C59 1.259 . S
O45 Tb40 2.374 1_455 S
O45 C41 1.251 . S
C46 O50 1.275 . S
C46 O51 1.246 . S
O47 C41 1.263 . S
O47 Tb42 2.353 . S
C48 O52 1.245 . S
C48 O53 1.259 . S
C49 O54 1.250 . S
C49 O55 1.263 . S
O50 Tb42 2.427 . S
O50 C46 1.275 . S
O51 Tb42 2.513 . S
O51 C46 1.246 . S
O52 Tb42 2.453 . S
O52 C48 1.245 . S
O53 Tb40 2.343 1_455 S
O53 Tb42 2.596 . S
O53 C48 1.259 . S
O54 Tb42 2.374 . S
O54 C49 1.250 . S
O55 Tb40 2.353 1_455 S
O55 C49 1.263 . S
C56 O57 1.275 . S
C56 O58 1.246 . S
O57 Tb40 2.427 . S
O57 C56 1.275 . S
O58 Tb40 2.513 . S
O58 C56 1.246 . S
C59 O43 1.245 . S
C59 O44 1.259 . S
Tb60 O63 2.453 . S
Tb60 O64 2.596 . S
Tb60 O65 2.374 . S
Tb60 O73 2.343 . S
Tb60 O75 2.353 . S
Tb60 O77 2.427 . S
Tb60 O78 2.513 . S
C61 O65 1.251 . S
C61 O67 1.263 . S
Tb62 O64 2.343 1_455 S
Tb62 O67 2.353 1_455 S
Tb62 O70 2.427 . S
Tb62 O71 2.513 . S
Tb62 O72 2.453 1_455 S
Tb62 O73 2.596 1_455 S
Tb62 O74 2.374 1_455 S
O63 Tb60 2.453 . S
O63 C79 1.245 . S
O64 Tb60 2.596 . S
O64 Tb62 2.343 1_655 S
O64 C79 1.259 . S
O65 Tb60 2.374 . S
O65 C61 1.251 . S
C66 O70 1.275 . S
C66 O71 1.246 . S
O67 C61 1.263 . S
O67 Tb62 2.353 1_655 S
C68 O72 1.245 . S
C68 O73 1.259 . S
C69 O74 1.250 . S
C69 O75 1.263 . S
O70 Tb62 2.427 . S
O70 C66 1.275 . S
O71 Tb62 2.513 . S
O71 C66 1.246 . S
O72 Tb62 2.453 1_655 S
O72 C68 1.245 . S
O73 Tb60 2.343 . S
O73 Tb62 2.596 1_655 S
O73 C68 1.259 . S
O74 Tb62 2.374 1_655 S
O74 C69 1.250 . S
O75 Tb60 2.353 . S
O75 C69 1.263 . S
C76 O77 1.275 . S
C76 O78 1.246 . S
O77 Tb60 2.427 . S
O77 C76 1.275 . S
O78 Tb60 2.513 . S
O78 C76 1.246 . S
C79 O63 1.245 . S
C79 O64 1.259 . S
Tb80 O83 2.453 . S
Tb80 O84 2.596 1_556 S
Tb80 O85 2.374 1_556 S
Tb80 O93 2.343 1_556 S
Tb80 O95 2.353 . S
Tb80 O97 2.427 . S
Tb80 O98 2.513 1_556 S
C81 O85 1.251 . S
C81 O87 1.263 . S
Tb82 O84 2.343 . S
Tb82 O87 2.353 . S
Tb82 O90 2.427 . S
Tb82 O91 2.513 1_554 S
Tb82 O92 2.453 . S
Tb82 O93 2.596 . S
Tb82 O94 2.374 1_554 S
O83 Tb80 2.453 . S
O83 C99 1.243 1_556 S
O84 Tb80 2.596 1_554 S
O84 Tb82 2.343 . S
O84 C99 1.258 . S
O85 Tb80 2.374 1_554 S
O85 C81 1.251 . S
C86 O90 1.275 . S
C86 O91 1.246 1_554 S
O87 C81 1.263 . S
O87 Tb82 2.353 . S
C88 O92 1.245 . S
C88 O93 1.259 . S
C89 O94 1.250 . S
C89 O95 1.263 . S
O90 Tb82 2.427 . S
O90 C86 1.275 . S
O91 Tb82 2.513 1_556 S
O91 C86 1.246 1_556 S
O92 Tb82 2.453 . S
O92 C88 1.245 . S
O93 Tb80 2.343 1_554 S
O93 Tb82 2.596 . S
O93 C88 1.259 . S
O94 Tb82 2.374 1_556 S
O94 C89 1.250 . S
O95 Tb80 2.353 . S
O95 C89 1.263 . S
C96 O97 1.275 1_554 S
C96 O98 1.246 . S
O97 Tb80 2.427 . S
O97 C96 1.275 1_556 S
O98 Tb80 2.513 1_554 S
O98 C96 1.246 . S
C99 O83 1.243 1_554 S
C99 O84 1.258 . S
Tb100 O103 2.453 1_554 S
Tb100 O104 2.596 . S
Tb100 O105 2.374 . S
Tb100 O113 2.343 . S
Tb100 O115 2.353 1_554 S
Tb100 O117 2.427 1_554 S
Tb100 O118 2.513 . S
C101 O105 1.251 . S
C101 O107 1.263 . S
Tb102 O104 2.343 . S
Tb102 O107 2.353 . S
Tb102 O110 2.427 . S
Tb102 O111 2.513 1_554 S
Tb102 O112 2.453 . S
Tb102 O113 2.596 . S
Tb102 O114 2.374 1_554 S
O103 Tb100 2.453 1_556 S
O103 C119 1.245 1_556 S
O104 Tb100 2.596 . S
O104 Tb102 2.343 . S
O104 C119 1.259 . S
O105 Tb100 2.374 . S
O105 C101 1.251 . S
C106 O110 1.275 . S
C106 O111 1.246 1_554 S
O107 C101 1.263 . S
O107 Tb102 2.353 . S
C108 O112 1.245 . S
C108 O113 1.259 . S
C109 O114 1.250 . S
C109 O115 1.263 . S
O110 Tb102 2.427 . S
O110 C106 1.275 . S
O111 Tb102 2.513 1_556 S
O111 C106 1.246 1_556 S
O112 Tb102 2.453 . S
O112 C108 1.245 . S
O113 Tb100 2.343 . S
O113 Tb102 2.596 . S
O113 C108 1.259 . S
O114 Tb102 2.374 1_556 S
O114 C109 1.250 . S
O115 Tb100 2.353 1_556 S
O115 C109 1.263 . S
C116 O117 1.275 1_554 S
C116 O118 1.246 . S
O117 Tb100 2.427 1_556 S
O117 C116 1.275 1_556 S
O118 Tb100 2.513 . S
O118 C116 1.246 . S
C119 O103 1.245 1_554 S
C119 O104 1.259 . S
Tb120 O123 2.453 . S
Tb120 O124 2.596 . S
Tb120 O125 2.374 . S
Tb120 O133 2.343 . S
Tb120 O135 2.353 . S
Tb120 O137 2.427 . S
Tb120 O138 2.513 . S
C121 O125 1.251 . S
C121 O127 1.263 . S
Tb122 O124 2.343 . S
Tb122 O127 2.353 . S
Tb122 O130 2.427 . S
Tb122 O131 2.513 . S
Tb122 O132 2.453 . S
Tb122 O133 2.596 . S
Tb122 O134 2.374 . S
O123 Tb120 2.453 . S
O123 C139 1.245 . S
O124 Tb120 2.596 . S
O124 Tb122 2.343 . S
O124 C139 1.259 . S
O125 Tb120 2.374 . S
O125 C121 1.251 . S
C126 O130 1.275 . S
C126 O131 1.246 . S
O127 C121 1.263 . S
O127 Tb122 2.353 . S
C128 O132 1.245 . S
C128 O133 1.259 . S
C129 O134 1.250 . S
C129 O135 1.263 . S
O130 Tb122 2.427 . S
O130 C126 1.275 . S
O131 Tb122 2.513 . S
O131 C126 1.246 . S
O132 Tb122 2.453 . S
O132 C128 1.245 . S
O133 Tb120 2.343 . S
O133 Tb122 2.596 . S
O133 C128 1.259 . S
O134 Tb122 2.374 . S
O134 C129 1.250 . S
O135 Tb120 2.353 . S
O135 C129 1.263 . S
C136 O137 1.275 . S
C136 O138 1.246 . S
O137 Tb120 2.427 . S
O137 C136 1.275 . S
O138 Tb120 2.513 . S
O138 C136 1.246 . S
C139 O123 1.245 . S
C139 O124 1.259 . S
Tb140 O143 2.453 . S
Tb140 O144 2.596 . S
Tb140 O145 2.374 . S
Tb140 O153 2.343 . S
Tb140 O155 2.353 . S
Tb140 O157 2.427 . S
Tb140 O158 2.513 . S
C141 O145 1.251 . S
C141 O147 1.263 . S
Tb142 O144 2.343 . S
Tb142 O147 2.353 . S
Tb142 O150 2.427 . S
Tb142 O151 2.513 . S
Tb142 O152 2.453 . S
Tb142 O153 2.596 . S
Tb142 O154 2.374 . S
O143 Tb140 2.453 . S
O143 C159 1.245 . S
O144 Tb140 2.596 . S
O144 Tb142 2.343 . S
O144 C159 1.259 . S
O145 Tb140 2.374 . S
O145 C141 1.251 . S
C146 O150 1.275 . S
C146 O151 1.246 . S
O147 C141 1.263 . S
O147 Tb142 2.353 . S
C148 O152 1.245 . S
C148 O153 1.259 . S
C149 O154 1.250 . S
C149 O155 1.263 . S
O150 Tb142 2.427 . S
O150 C146 1.275 . S
O151 Tb142 2.513 . S
O151 C146 1.246 . S
O152 Tb142 2.453 . S
O152 C148 1.245 . S
O153 Tb140 2.343 . S
O153 Tb142 2.596 . S
O153 C148 1.259 . S
O154 Tb142 2.374 . S
O154 C149 1.250 . S
O155 Tb140 2.353 . S
O155 C149 1.263 . S
C156 O157 1.275 . S
C156 O158 1.246 . S
O157 Tb140 2.427 . S
O157 C156 1.275 . S
O158 Tb140 2.513 . S
O158 C156 1.246 . S
C159 O143 1.245 . S
C159 O144 1.259 . S
H160 C172 0.930 . S
H161 C174 0.930 . S
H162 C175 0.930 . S
H163 C179 0.959 . S
H164 C179 0.959 . S
H165 C179 0.961 . S
H166 C180 0.960 . S
H167 C180 0.961 . S
H168 C180 0.959 . S
H169 C183 0.929 . S
H170 C184 0.931 . S
H171 C186 0.930 . S
C172 H160 0.930 . S
C172 C173 1.399 . S
C172 C177 1.399 . S
C173 C172 1.399 . S
C173 C174 1.376 1_554 S
C174 H161 0.930 . S
C174 C173 1.376 1_556 S
C174 C175 1.388 . S
C175 H162 0.930 . S
C175 C174 1.388 . S
C175 C176 1.390 . S
C176 C175 1.390 . S
C176 C177 1.394 1_556 S
C176 C182 1.465 . S
C177 C172 1.399 . S
C177 C176 1.394 1_554 S
C177 C178 1.516 . S
C178 C177 1.516 . S
C178 C179 1.502 . S
C178 C180 1.561 . S
C178 C181 1.526 . S
C179 H163 0.959 . S
C179 H164 0.959 . S
C179 H165 0.961 . S
C179 C178 1.502 . S
C180 H166 0.960 . S
C180 H167 0.961 . S
C180 H168 0.959 . S
C180 C178 1.561 . S
C181 C178 1.526 . S
C181 C182 1.396 1_554 S
C181 C186 1.390 . S
C182 C176 1.465 . S
C182 C181 1.396 1_556 S
C182 C183 1.399 . S
C183 H169 0.929 . S
C183 C182 1.399 . S
C183 C184 1.385 . S
C184 H170 0.931 . S
C184 C183 1.385 . S
C184 C185 1.389 1_556 S
C185 C184 1.389 1_554 S
C185 C186 1.387 . S
C186 H171 0.930 . S
C186 C181 1.390 . S
C186 C185 1.387 . S
H187 C199 0.930 . S
H188 C201 0.930 . S
H189 C202 0.930 . S
H190 C206 0.959 . S
H191 C206 0.959 . S
H192 C206 0.961 . S
H193 C207 0.960 . S
H194 C207 0.961 . S
H195 C207 0.959 1_554 S
H196 C210 0.929 . S
H197 C211 0.931 . S
H198 C213 0.930 . S
C199 H187 0.930 . S
C199 C200 1.399 1_556 S
C199 C204 1.399 . S
C200 C199 1.399 1_554 S
C200 C201 1.376 . S
C201 H188 0.930 . S
C201 C200 1.376 . S
C201 C202 1.388 . S
C202 H189 0.930 . S
C202 C201 1.388 . S
C202 C203 1.390 . S
C203 C202 1.390 . S
C203 C204 1.394 1_554 S
C203 C209 1.465 . S
C204 C199 1.399 . S
C204 C203 1.394 1_556 S
C204 C205 1.516 . S
C205 C204 1.516 . S
C205 C206 1.502 . S
C205 C207 1.561 . S
C205 C208 1.526 . S
C206 H190 0.959 . S
C206 H191 0.959 . S
C206 H192 0.961 . S
C206 C205 1.502 . S
C207 H193 0.960 . S
C207 H194 0.961 . S
C207 H195 0.959 1_556 S
C207 C205 1.561 . S
C208 C205 1.526 . S
C208 C209 1.396 1_556 S
C208 C213 1.390 . S
C209 C203 1.465 . S
C209 C208 1.396 1_554 S
C209 C210 1.399 . S
C210 H196 0.929 . S
C210 C209 1.399 . S
C210 C211 1.385 . S
C211 H197 0.931 . S
C211 C210 1.385 . S
C211 C212 1.389 . S
C212 C211 1.389 . S
C212 C213 1.387 1_554 S
C213 H198 0.930 . S
C213 C208 1.390 . S
C213 C212 1.387 1_556 S
H214 C226 0.930 . S
H215 C228 0.930 . S
H216 C229 0.930 . S
H217 C233 0.959 . S
H218 C233 0.959 . S
H219 C233 0.961 . S
H220 C234 0.960 . S
H221 C234 0.961 . S
H222 C234 0.959 . S
H223 C237 0.929 . S
H224 C238 0.931 . S
H225 C240 0.930 . S
C226 H214 0.930 . S
C226 C227 1.399 . S
C226 C231 1.399 . S
C227 C226 1.399 . S
C227 C228 1.376 . S
C228 H215 0.930 . S
C228 C227 1.376 . S
C228 C229 1.388 . S
C229 H216 0.930 . S
C229 C228 1.388 . S
C229 C230 1.390 . S
C230 C229 1.390 . S
C230 C231 1.394 . S
C230 C236 1.465 . S
C231 C226 1.399 . S
C231 C230 1.394 . S
C231 C232 1.516 . S
C232 C231 1.516 . S
C232 C233 1.502 . S
C232 C234 1.561 . S
C232 C235 1.526 . S
C233 H217 0.959 . S
C233 H218 0.959 . S
C233 H219 0.961 . S
C233 C232 1.502 . S
C234 H220 0.960 . S
C234 H221 0.961 . S
C234 H222 0.959 . S
C234 C232 1.561 . S
C235 C232 1.526 . S
C235 C236 1.396 . S
C235 C240 1.390 . S
C236 C230 1.465 . S
C236 C235 1.396 . S
C236 C237 1.399 . S
C237 H223 0.929 . S
C237 C236 1.399 . S
C237 C238 1.385 . S
C238 H224 0.931 . S
C238 C237 1.385 . S
C238 C239 1.389 . S
C239 C238 1.389 . S
C239 C240 1.387 . S
C240 H225 0.930 . S
C240 C235 1.390 . S
C240 C239 1.387 . S
H241 C253 0.930 . S
H242 C255 0.930 . S
H243 C256 0.930 . S
H244 C260 0.959 . S
H245 C260 0.959 . S
H246 C260 0.961 . S
H247 C261 0.960 . S
H248 C261 0.961 . S
H249 C261 0.959 . S
H250 C264 0.929 . S
H251 C265 0.931 . S
H252 C267 0.930 . S
C253 H241 0.930 . S
C253 C254 1.399 . S
C253 C258 1.399 . S
C254 C253 1.399 . S
C254 C255 1.376 . S
C255 H242 0.930 . S
C255 C254 1.376 . S
C255 C256 1.388 . S
C256 H243 0.930 . S
C256 C255 1.388 . S
C256 C257 1.390 . S
C257 C256 1.390 . S
C257 C258 1.394 . S
C257 C263 1.465 . S
C258 C253 1.399 . S
C258 C257 1.394 . S
C258 C259 1.516 . S
C259 C258 1.516 . S
C259 C260 1.502 . S
C259 C261 1.561 . S
C259 C262 1.526 . S
C260 H244 0.959 . S
C260 H245 0.959 . S
C260 H246 0.961 . S
C260 C259 1.502 . S
C261 H247 0.960 . S
C261 H248 0.961 . S
C261 H249 0.959 . S
C261 C259 1.561 . S
C262 C259 1.526 . S
C262 C263 1.396 . S
C262 C267 1.390 . S
C263 C257 1.465 . S
C263 C262 1.396 . S
C263 C264 1.399 . S
C264 H250 0.929 . S
C264 C263 1.399 . S
C264 C265 1.385 . S
C265 H251 0.931 . S
C265 C264 1.385 . S
C265 C266 1.389 . S
C266 C265 1.389 . S
C266 C267 1.387 . S
C267 H252 0.930 . S
C267 C262 1.390 . S
C267 C266 1.387 . S
H268 C280 0.930 . S
H269 C282 0.930 . S
H270 C283 0.930 1_455 S
H271 C287 0.959 . S
H272 C287 0.959 . S
H273 C287 0.961 . S
H274 C288 0.960 1_655 S
H275 C288 0.961 . S
H276 C288 0.943 1_554 S
H277 C291 0.929 . S
H278 C292 0.931 . S
H279 C294 0.930 . S
C280 H268 0.930 . S
C280 C281 1.399 1_556 S
C280 C285 1.399 . S
C281 C280 1.399 1_554 S
C281 C282 1.376 . S
C282 H269 0.930 . S
C282 C281 1.376 . S
C282 C283 1.388 . S
C283 H270 0.930 1_655 S
C283 C282 1.388 . S
C283 C284 1.390 1_655 S
C284 C283 1.390 1_455 S
C284 C285 1.394 1_454 S
C284 C290 1.465 . S
C285 C280 1.399 . S
C285 C284 1.394 1_656 S
C285 C286 1.516 1_655 S
C286 C285 1.516 1_455 S
C286 C287 1.502 . S
C286 C288 1.561 . S
C286 C289 1.526 . S
C287 H271 0.959 . S
C287 H272 0.959 . S
C287 H273 0.961 . S
C287 C286 1.502 . S
C288 H274 0.960 1_455 S
C288 H275 0.961 . S
C288 H276 0.943 1_556 S
C288 C286 1.561 . S
C289 C286 1.526 . S
C289 C290 1.396 1_556 S
C289 C294 1.390 . S
C290 C284 1.465 . S
C290 C289 1.396 1_554 S
C290 C291 1.399 . S
C291 H277 0.929 . S
C291 C290 1.399 . S
C291 C292 1.385 . S
C292 H278 0.931 . S
C292 C291 1.385 . S
C292 C293 1.389 . S
C293 C292 1.389 . S
C293 C294 1.387 1_554 S
C294 H279 0.930 . S
C294 C289 1.390 . S
C294 C293 1.387 1_556 S
H295 C307 0.930 . S
H296 C309 0.930 . S
H297 C310 0.930 . S
H298 C314 0.959 . S
H299 C314 0.959 . S
H300 C314 0.961 . S
H301 C315 0.960 . S
H302 C315 0.961 . S
H303 C315 0.959 . S
H304 C318 0.929 . S
H305 C319 0.931 . S
H306 C321 0.930 . S
C307 H295 0.930 . S
C307 C308 1.399 1_556 S
C307 C312 1.391 1_455 S
C308 C307 1.399 1_554 S
C308 C309 1.376 . S
C309 H296 0.930 . S
C309 C308 1.376 . S
C309 C310 1.388 . S
C310 H297 0.930 . S
C310 C309 1.388 . S
C310 C311 1.390 1_455 S
C311 C310 1.390 1_655 S
C311 C312 1.395 1_554 S
C311 C317 1.465 . S
C312 C307 1.391 1_655 S
C312 C311 1.395 1_556 S
C312 C313 1.523 . S
C313 C312 1.523 . S
C313 C314 1.502 . S
C313 C315 1.561 . S
C313 C316 1.526 . S
C314 H298 0.959 . S
C314 H299 0.959 . S
C314 H300 0.961 . S
C314 C313 1.502 . S
C315 H301 0.960 . S
C315 H302 0.961 . S
C315 H303 0.959 . S
C315 C313 1.561 . S
C316 C313 1.526 . S
C316 C317 1.396 1_556 S
C316 C321 1.390 . S
C317 C311 1.465 . S
C317 C316 1.396 1_554 S
C317 C318 1.399 . S
C318 H304 0.929 . S
C318 C317 1.399 . S
C318 C319 1.385 . S
C319 H305 0.931 . S
C319 C318 1.385 . S
C319 C320 1.389 . S
C320 C319 1.389 . S
C320 C321 1.387 1_554 S
C321 H306 0.930 . S
C321 C316 1.390 . S
C321 C320 1.387 1_556 S
H322 C334 0.930 . S
H323 C336 0.930 . S
H324 C337 0.930 . S
H325 C341 0.959 . S
H326 C341 0.959 . S
H327 C341 0.961 . S
H328 C342 0.960 . S
H329 C342 0.961 . S
H330 C342 0.959 . S
H331 C345 0.929 . S
H332 C346 0.931 . S
H333 C348 0.930 . S
C334 H322 0.930 . S
C334 C335 1.399 . S
C334 C339 1.399 . S
C335 C334 1.399 . S
C335 C336 1.376 . S
C336 H323 0.930 . S
C336 C335 1.376 . S
C336 C337 1.388 . S
C337 H324 0.930 . S
C337 C336 1.388 . S
C337 C338 1.390 . S
C338 C337 1.390 . S
C338 C339 1.394 . S
C338 C344 1.465 . S
C339 C334 1.399 . S
C339 C338 1.394 . S
C339 C340 1.516 . S
C340 C339 1.516 . S
C340 C341 1.502 . S
C340 C342 1.561 . S
C340 C343 1.526 1_455 S
C341 H325 0.959 . S
C341 H326 0.959 . S
C341 H327 0.961 . S
C341 C340 1.502 . S
C342 H328 0.960 . S
C342 H329 0.961 . S
C342 H330 0.959 . S
C342 C340 1.561 . S
C343 C340 1.526 1_655 S
C343 C344 1.396 1_655 S
C343 C348 1.390 . S
C344 C338 1.465 . S
C344 C343 1.396 1_455 S
C344 C345 1.399 1_455 S
C345 H331 0.929 . S
C345 C344 1.399 1_655 S
C345 C346 1.385 . S
C346 H332 0.931 . S
C346 C345 1.385 . S
C346 C347 1.389 . S
C347 C346 1.389 . S
C347 C348 1.387 . S
C348 H333 0.930 . S
C348 C343 1.390 . S
C348 C347 1.387 . S
H349 C361 0.930 . S
H350 C363 0.930 . S
H351 C364 0.930 . S
H352 C368 0.959 . S
H353 C368 0.959 . S
H354 C368 0.961 . S
H355 C369 0.960 . S
H356 C369 0.961 1_455 S
H357 C369 0.959 . S
H358 C372 0.929 . S
H359 C373 0.931 . S
H360 C375 0.930 . S
C361 H349 0.930 . S
C361 C362 1.399 . S
C361 C366 1.399 . S
C362 C361 1.399 . S
C362 C363 1.376 . S
C363 H350 0.930 . S
C363 C362 1.376 . S
C363 C364 1.388 . S
C364 H351 0.930 . S
C364 C363 1.388 . S
C364 C365 1.390 . S
C365 C364 1.390 . S
C365 C366 1.394 . S
C365 C371 1.465 . S
C366 C361 1.399 . S
C366 C365 1.394 . S
C366 C367 1.516 . S
C367 C366 1.516 . S
C367 C368 1.502 . S
C367 C369 1.561 . S
C367 C370 1.526 1_655 S
C368 H352 0.959 . S
C368 H353 0.959 . S
C368 H354 0.961 . S
C368 C367 1.502 . S
C369 H355 0.960 . S
C369 H356 0.961 1_655 S
C369 H357 0.959 . S
C369 C367 1.561 . S
C370 C367 1.526 1_455 S
C370 C371 1.396 1_455 S
C370 C375 1.390 . S
C371 C365 1.465 . S
C371 C370 1.396 1_655 S
C371 C372 1.399 1_655 S
C372 H358 0.929 . S
C372 C371 1.399 1_455 S
C372 C373 1.385 . S
C373 H359 0.931 . S
C373 C372 1.385 . S
C373 C374 1.389 . S
C374 C373 1.389 . S
C374 C375 1.387 . S
C375 H360 0.930 . S
C375 C370 1.390 . S
C375 C374 1.387 . S
H376 C388 0.930 1_655 S
H377 C390 0.930 . S
H378 C391 0.930 . S
H379 C395 0.959 . S
H380 C395 0.959 . S
H381 C395 0.961 . S
H382 C396 0.960 . S
H383 C396 0.961 . S
H384 C396 0.959 . S
H385 C399 0.929 . S
H386 C400 0.931 . S
H387 C402 0.930 . S
C388 H376 0.930 1_455 S
C388 C389 1.399 1_556 S
C388 C393 1.399 . S
C389 C388 1.399 1_554 S
C389 C390 1.376 . S
C390 H377 0.930 . S
C390 C389 1.376 . S
C390 C391 1.388 . S
C391 H378 0.930 . S
C391 C390 1.388 . S
C391 C392 1.390 . S
C392 C391 1.390 . S
C392 C393 1.394 1_554 S
C392 C398 1.465 . S
C393 C388 1.399 . S
C393 C392 1.394 1_556 S
C393 C394 1.516 1_455 S
C394 C393 1.516 1_655 S
C394 C395 1.502 . S
C394 C396 1.561 1_655 S
C394 C397 1.526 . S
C395 H379 0.959 . S
C395 H380 0.959 . S
C395 H381 0.961 . S
C395 C394 1.502 . S
C396 H382 0.960 . S
C396 H383 0.961 . S
C396 H384 0.959 . S
C396 C394 1.561 1_455 S
C397 C394 1.526 . S
C397 C398 1.396 1_656 S
C397 C402 1.390 . S
C398 C392 1.465 . S
C398 C397 1.396 1_454 S
C398 C399 1.399 . S
C399 H385 0.929 . S
C399 C398 1.399 . S
C399 C400 1.385 . S
C400 H386 0.931 . S
C400 C399 1.385 . S
C400 C401 1.389 1_455 S
C401 C400 1.389 1_655 S
C401 C402 1.387 1_554 S
C402 H387 0.930 . S
C402 C397 1.390 . S
C402 C401 1.387 1_556 S
H403 C415 0.930 . S
H404 C417 0.930 . S
H405 C418 0.930 . S
H406 C422 0.959 . S
H407 C422 0.959 . S
H408 C422 0.961 . S
H409 C423 0.960 . S
H410 C423 0.961 . S
H411 C423 0.959 . S
H412 C426 0.929 . S
H413 C427 0.931 . S
H414 C429 0.930 . S
C415 H403 0.930 . S
C415 C416 1.399 . S
C415 C420 1.399 . S
C416 C415 1.399 . S
C416 C417 1.376 1_455 S
C417 H404 0.930 . S
C417 C416 1.376 1_655 S
C417 C418 1.388 . S
C418 H405 0.930 . S
C418 C417 1.388 . S
C418 C419 1.390 . S
C419 C418 1.390 . S
C419 C420 1.394 1_655 S
C419 C425 1.465 . S
C420 C415 1.399 . S
C420 C419 1.394 1_455 S
C420 C421 1.516 . S
C421 C420 1.516 . S
C421 C422 1.502 . S
C421 C423 1.561 1_455 S
C421 C424 1.526 . S
C422 H406 0.959 . S
C422 H407 0.959 . S
C422 H408 0.961 . S
C422 C421 1.502 . S
C423 H409 0.960 . S
C423 H410 0.961 . S
C423 H411 0.959 . S
C423 C421 1.561 1_655 S
C424 C421 1.526 . S
C424 C425 1.396 1_455 S
C424 C429 1.390 . S
C425 C419 1.465 . S
C425 C424 1.396 1_655 S
C425 C426 1.399 . S
C426 H412 0.929 . S
C426 C425 1.399 . S
C426 C427 1.385 . S
C427 H413 0.931 . S
C427 C426 1.385 . S
C427 C428 1.389 . S
C428 C427 1.389 . S
C428 C429 1.387 1_655 S
C429 H414 0.930 . S
C429 C424 1.390 . S
C429 C428 1.387 1_455 S
H430 C442 0.930 . S
H431 C444 0.930 . S
H432 C445 0.930 . S
H433 C449 0.959 . S
H434 C449 0.959 . S
H435 C449 0.961 . S
H436 C450 0.960 . S
H437 C450 0.961 . S
H438 C450 0.959 . S
H439 C453 0.929 . S
H440 C454 0.931 . S
H441 C456 0.930 . S
C442 H430 0.930 . S
C442 C443 1.399 1_556 S
C442 C447 1.399 . S
C443 C442 1.399 1_554 S
C443 C444 1.376 . S
C444 H431 0.930 . S
C444 C443 1.376 . S
C444 C445 1.388 . S
C445 H432 0.930 . S
C445 C444 1.388 . S
C445 C446 1.390 . S
C446 C445 1.390 . S
C446 C447 1.394 1_554 S
C446 C452 1.465 1_565 S
C447 C442 1.399 . S
C447 C446 1.394 1_556 S
C447 C448 1.516 . S
C448 C447 1.516 . S
C448 C449 1.502 . S
C448 C450 1.561 . S
C448 C451 1.526 1_565 S
C449 H433 0.959 . S
C449 H434 0.959 . S
C449 H435 0.961 . S
C449 C448 1.502 . S
C450 H436 0.960 . S
C450 H437 0.961 . S
C450 H438 0.959 . S
C450 C448 1.561 . S
C451 C448 1.526 1_545 S
C451 C452 1.396 1_556 S
C451 C456 1.390 . S
C452 C446 1.465 1_545 S
C452 C451 1.396 1_554 S
C452 C453 1.399 . S
C453 H439 0.929 . S
C453 C452 1.399 . S
C453 C454 1.385 . S
C454 H440 0.931 . S
C454 C453 1.385 . S
C454 C455 1.389 . S
C455 C454 1.389 . S
C455 C456 1.387 1_554 S
C456 H441 0.930 . S
C456 C451 1.390 . S
C456 C455 1.387 1_556 S
H457 C469 0.930 . S
H458 C471 0.930 . S
H459 C472 0.930 . S
H460 C476 0.959 . S
H461 C476 0.959 . S
H462 C476 0.961 . S
H463 C477 0.953 1_545 S
H464 C477 0.961 . S
H465 C477 0.959 . S
H466 C480 0.929 . S
H467 C481 0.931 . S
H468 C483 0.930 . S
C469 H457 0.930 . S
C469 C470 1.399 . S
C469 C474 1.399 . S
C470 C469 1.399 . S
C470 C471 1.376 . S
C471 H458 0.930 . S
C471 C470 1.376 . S
C471 C472 1.388 . S
C472 H459 0.930 . S
C472 C471 1.388 . S
C472 C473 1.390 . S
C473 C472 1.390 . S
C473 C474 1.394 . S
C473 C479 1.465 1_545 S
C474 C469 1.399 . S
C474 C473 1.394 . S
C474 C475 1.516 1_545 S
C475 C474 1.516 1_565 S
C475 C476 1.502 . S
C475 C477 1.561 . S
C475 C478 1.526 . S
C476 H460 0.959 . S
C476 H461 0.959 . S
C476 H462 0.961 . S
C476 C475 1.502 . S
C477 H463 0.953 1_565 S
C477 H464 0.961 . S
C477 H465 0.959 . S
C477 C475 1.561 . S
C478 C475 1.526 . S
C478 C479 1.396 . S
C478 C483 1.390 . S
C479 C473 1.465 1_565 S
C479 C478 1.396 . S
C479 C480 1.399 . S
C480 H466 0.929 . S
C480 C479 1.399 . S
C480 C481 1.385 . S
C481 H467 0.931 . S
C481 C480 1.385 . S
C481 C482 1.389 . S
C482 C481 1.389 . S
C482 C483 1.387 . S
C483 H468 0.930 . S
C483 C478 1.390 . S
C483 C482 1.387 . S
H484 C496 0.930 . S
H485 C498 0.930 . S
H486 C499 0.930 . S
H487 C503 0.959 . S
H488 C503 0.959 . S
H489 C503 0.961 . S
H490 C504 0.960 . S
H491 C504 0.961 . S
H492 C504 0.959 . S
H493 C507 0.929 . S
H494 C508 0.931 . S
H495 C510 0.930 . S
C496 H484 0.930 . S
C496 C497 1.399 . S
C496 C501 1.399 . S
C497 C496 1.399 . S
C497 C498 1.376 1_554 S
C498 H485 0.930 . S
C498 C497 1.376 1_556 S
C498 C499 1.388 . S
C499 H486 0.930 . S
C499 C498 1.388 . S
C499 C500 1.390 . S
C500 C499 1.390 . S
C500 C501 1.394 1_556 S
C500 C506 1.465 . S
C501 C496 1.399 . S
C501 C500 1.394 1_554 S
C501 C502 1.516 . S
C502 C501 1.516 . S
C502 C503 1.502 . S
C502 C504 1.561 . S
C502 C505 1.526 . S
C503 H487 0.959 . S
C503 H488 0.959 . S
C503 H489 0.961 . S
C503 C502 1.502 . S
C504 H490 0.960 . S
C504 H491 0.961 . S
C504 H492 0.959 . S
C504 C502 1.561 . S
C505 C502 1.526 . S
C505 C506 1.396 1_554 S
C505 C510 1.390 . S
C506 C500 1.465 . S
C506 C505 1.396 1_556 S
C506 C507 1.399 . S
C507 H493 0.929 . S
C507 C506 1.399 . S
C507 C508 1.385 . S
C508 H494 0.931 . S
C508 C507 1.385 . S
C508 C509 1.389 1_556 S
C509 C508 1.389 1_554 S
C509 C510 1.387 . S
C510 H495 0.930 . S
C510 C505 1.390 . S
C510 C509 1.387 . S
H511 C523 0.929 1_556 S
H512 C525 0.930 . S
H513 C526 0.930 . S
H514 C530 0.959 . S
H515 C530 0.959 . S
H516 C530 0.961 . S
H517 C531 0.960 . S
H518 C531 0.961 . S
H519 C531 0.959 . S
H520 C534 0.929 . S
H521 C535 0.931 . S
H522 C537 0.930 . S
C523 H511 0.929 1_554 S
C523 C524 1.396 . S
C523 C528 1.403 . S
C524 C523 1.396 . S
C524 C525 1.376 . S
C525 H512 0.930 . S
C525 C524 1.376 . S
C525 C526 1.388 . S
C526 H513 0.930 . S
C526 C525 1.388 . S
C526 C527 1.390 . S
C527 C526 1.390 . S
C527 C528 1.394 . S
C527 C533 1.465 . S
C528 C523 1.403 . S
C528 C527 1.394 . S
C528 C529 1.516 1_554 S
C529 C528 1.516 1_556 S
C529 C530 1.502 1_556 S
C529 C531 1.561 . S
C529 C532 1.526 1_556 S
C530 H514 0.959 . S
C530 H515 0.959 . S
C530 H516 0.961 . S
C530 C529 1.502 1_554 S
C531 H517 0.960 . S
C531 H518 0.961 . S
C531 H519 0.959 . S
C531 C529 1.561 . S
C532 C529 1.526 1_554 S
C532 C533 1.396 . S
C532 C537 1.390 . S
C533 C527 1.465 . S
C533 C532 1.396 . S
C533 C534 1.399 . S
C534 H520 0.929 . S
C534 C533 1.399 . S
C534 C535 1.385 . S
C535 H521 0.931 . S
C535 C534 1.385 . S
C535 C536 1.389 . S
C536 C535 1.389 . S
C536 C537 1.387 . S
C537 H522 0.930 . S
C537 C532 1.390 . S
C537 C536 1.387 . S
H538 C550 0.930 . S
H539 C552 0.930 . S
H540 C553 0.930 . S
H541 C557 0.959 . S
H542 C557 0.959 . S
H543 C557 0.961 . S
H544 C558 0.960 . S
H545 C558 0.961 . S
H546 C558 0.959 . S
H547 C561 0.929 . S
H548 C562 0.931 . S
H549 C564 0.930 . S
C550 H538 0.930 . S
C550 C551 1.399 . S
C550 C555 1.399 . S
C551 C550 1.399 . S
C551 C552 1.376 . S
C552 H539 0.930 . S
C552 C551 1.376 . S
C552 C553 1.388 . S
C553 H540 0.930 . S
C553 C552 1.388 . S
C553 C554 1.390 . S
C554 C553 1.390 . S
C554 C555 1.394 . S
C554 C560 1.465 . S
C555 C550 1.399 . S
C555 C554 1.394 . S
C555 C556 1.516 . S
C556 C555 1.516 . S
C556 C557 1.502 . S
C556 C558 1.561 . S
C556 C559 1.526 . S
C557 H541 0.959 . S
C557 H542 0.959 . S
C557 H543 0.961 . S
C557 C556 1.502 . S
C558 H544 0.960 . S
C558 H545 0.961 . S
C558 H546 0.959 . S
C558 C556 1.561 . S
C559 C556 1.526 . S
C559 C560 1.396 . S
C559 C564 1.390 . S
C560 C554 1.465 . S
C560 C559 1.396 . S
C560 C561 1.399 . S
C561 H547 0.929 . S
C561 C560 1.399 . S
C561 C562 1.385 . S
C562 H548 0.931 . S
C562 C561 1.385 . S
C562 C563 1.389 . S
C563 C562 1.389 . S
C563 C564 1.387 . S
C564 H549 0.930 . S
C564 C559 1.390 . S
C564 C563 1.387 . S
H565 C577 0.930 . S
H566 C579 0.930 . S
H567 C580 0.930 . S
H568 C584 0.959 . S
H569 C584 0.959 . S
H570 C584 0.961 . S
H571 C585 0.960 . S
H572 C585 0.961 . S
H573 C585 0.959 . S
H574 C588 0.929 . S
H575 C589 0.931 . S
H576 C591 0.930 . S
C577 H565 0.930 . S
C577 C578 1.399 . S
C577 C582 1.399 . S
C578 C577 1.399 . S
C578 C579 1.376 . S
C579 H566 0.930 . S
C579 C578 1.376 . S
C579 C580 1.388 . S
C580 H567 0.930 . S
C580 C579 1.388 . S
C580 C581 1.390 . S
C581 C580 1.390 . S
C581 C582 1.394 . S
C581 C587 1.465 . S
C582 C577 1.399 . S
C582 C581 1.394 . S
C582 C583 1.516 . S
C583 C582 1.516 . S
C583 C584 1.502 . S
C583 C585 1.561 . S
C583 C586 1.526 . S
C584 H568 0.959 . S
C584 H569 0.959 . S
C584 H570 0.961 . S
C584 C583 1.502 . S
C585 H571 0.960 . S
C585 H572 0.961 . S
C585 H573 0.959 . S
C585 C583 1.561 . S
C586 C583 1.526 . S
C586 C587 1.396 . S
C586 C591 1.390 . S
C587 C581 1.465 . S
C587 C586 1.396 . S
C587 C588 1.399 . S
C588 H574 0.929 . S
C588 C587 1.399 . S
C588 C589 1.385 . S
C589 H575 0.931 . S
C589 C588 1.385 . S
C589 C590 1.389 . S
C590 C589 1.389 . S
C590 C591 1.387 . S
C591 H576 0.930 . S
C591 C586 1.390 . S
C591 C590 1.387 . S
H592 C604 0.930 1_655 S
H593 C606 0.930 . S
H594 C607 0.930 . S
H595 C611 0.959 . S
H596 C611 0.959 . S
H597 C611 0.961 . S
H598 C612 0.960 . S
H599 C612 0.961 1_655 S
H600 C612 0.959 . S
H601 C615 0.929 . S
H602 C616 0.931 . S
H603 C618 0.930 . S
C604 H592 0.930 1_455 S
C604 C605 1.399 . S
C604 C609 1.399 . S
C605 C604 1.399 . S
C605 C606 1.376 . S
C606 H593 0.930 . S
C606 C605 1.376 . S
C606 C607 1.388 . S
C607 H594 0.930 . S
C607 C606 1.388 . S
C607 C608 1.390 . S
C608 C607 1.390 . S
C608 C609 1.394 . S
C608 C614 1.465 . S
C609 C604 1.399 . S
C609 C608 1.394 . S
C609 C610 1.516 1_455 S
C610 C609 1.516 1_655 S
C610 C611 1.502 . S
C610 C612 1.561 1_655 S
C610 C613 1.526 . S
C611 H595 0.959 . S
C611 H596 0.959 . S
C611 H597 0.961 . S
C611 C610 1.502 . S
C612 H598 0.960 . S
C612 H599 0.961 1_455 S
C612 H600 0.959 . S
C612 C610 1.561 1_455 S
C613 C610 1.526 . S
C613 C614 1.396 1_655 S
C613 C618 1.390 . S
C614 C608 1.465 . S
C614 C613 1.396 1_455 S
C614 C615 1.399 . S
C615 H601 0.929 . S
C615 C614 1.399 . S
C615 C616 1.385 . S
C616 H602 0.931 . S
C616 C615 1.385 . S
C616 C617 1.389 1_455 S
C617 C616 1.389 1_655 S
C617 C618 1.387 . S
C618 H603 0.930 . S
C618 C613 1.390 . S
C618 C617 1.387 . S
H619 C631 0.930 . S
H620 C633 0.930 . S
H621 C634 0.930 . S
H622 C638 0.959 . S
H623 C638 0.959 . S
H624 C638 0.961 . S
H625 C639 0.960 . S
H626 C639 0.961 . S
H627 C639 0.959 . S
H628 C642 0.926 1_655 S
H629 C643 0.931 . S
H630 C645 0.930 . S
C631 H619 0.930 . S
C631 C632 1.399 . S
C631 C636 1.399 . S
C632 C631 1.399 . S
C632 C633 1.376 . S
C633 H620 0.930 . S
C633 C632 1.376 . S
C633 C634 1.388 . S
C634 H621 0.930 . S
C634 C633 1.388 . S
C634 C635 1.390 . S
C635 C634 1.390 . S
C635 C636 1.394 . S
C635 C641 1.462 1_655 S
C636 C631 1.399 . S
C636 C635 1.394 . S
C636 C637 1.516 1_655 S
C637 C636 1.516 1_455 S
C637 C638 1.502 . S
C637 C639 1.561 1_455 S
C637 C640 1.526 . S
C638 H622 0.959 . S
C638 H623 0.959 . S
C638 H624 0.961 . S
C638 C637 1.502 . S
C639 H625 0.960 . S
C639 H626 0.961 . S
C639 H627 0.959 . S
C639 C637 1.561 1_655 S
C640 C637 1.526 . S
C640 C641 1.400 . S
C640 C645 1.390 . S
C641 C635 1.462 1_455 S
C641 C640 1.400 . S
C641 C642 1.399 . S
C642 H628 0.926 1_455 S
C642 C641 1.399 . S
C642 C643 1.389 . S
C643 H629 0.931 . S
C643 C642 1.389 . S
C643 C644 1.389 . S
C644 C643 1.389 . S
C644 C645 1.387 . S
C645 H630 0.930 . S
C645 C640 1.390 . S
C645 C644 1.387 . S
H646 C658 0.930 . S
H647 C660 0.929 1_455 S
H648 C661 0.930 . S
H649 C665 0.959 . S
H650 C665 0.959 . S
H651 C665 0.961 . S
H652 C666 0.960 1_655 S
H653 C666 0.961 . S
H654 C666 0.959 . S
H655 C669 0.929 . S
H656 C670 0.931 . S
H657 C672 0.930 1_655 S
C658 H646 0.930 . S
C658 C659 1.399 . S
C658 C663 1.399 . S
C659 C658 1.399 . S
C659 C660 1.376 . S
C660 H647 0.929 1_655 S
C660 C659 1.376 . S
C660 C661 1.388 1_655 S
C661 H648 0.930 . S
C661 C660 1.388 1_455 S
C661 C662 1.390 . S
C662 C661 1.390 . S
C662 C663 1.394 1_455 S
C662 C668 1.465 . S
C663 C658 1.399 . S
C663 C662 1.394 1_655 S
C663 C664 1.516 . S
C664 C663 1.516 . S
C664 C665 1.502 . S
C664 C666 1.561 1_655 S
C664 C667 1.526 1_655 S
C665 H649 0.959 . S
C665 H650 0.959 . S
C665 H651 0.961 . S
C665 C664 1.502 . S
C666 H652 0.960 1_455 S
C666 H653 0.961 . S
C666 H654 0.959 . S
C666 C664 1.561 1_455 S
C667 C664 1.526 1_455 S
C667 C668 1.396 . S
C667 C672 1.390 . S
C668 C662 1.465 . S
C668 C667 1.396 . S
C668 C669 1.399 . S
C669 H655 0.929 . S
C669 C668 1.399 . S
C669 C670 1.385 . S
C670 H656 0.931 . S
C670 C669 1.385 . S
C670 C671 1.389 . S
C671 C670 1.389 . S
C671 C672 1.387 . S
C672 H657 0.930 1_455 S
C672 C667 1.390 . S
C672 C671 1.387 . S
H673 C685 0.930 . S
H674 C687 0.930 1_455 S
H675 C688 0.930 . S
H676 C692 0.959 . S
H677 C692 0.959 . S
H678 C692 0.961 . S
H679 C693 0.960 1_655 S
H680 C693 0.961 . S
H681 C693 0.959 . S
H682 C696 0.929 . S
H683 C697 0.931 . S
H684 C699 0.930 1_655 S
C685 H673 0.930 . S
C685 C686 1.399 . S
C685 C690 1.399 . S
C686 C685 1.399 . S
C686 C687 1.376 . S
C687 H674 0.930 1_655 S
C687 C686 1.376 . S
C687 C688 1.388 1_655 S
C688 H675 0.930 . S
C688 C687 1.388 1_455 S
C688 C689 1.390 . S
C689 C688 1.390 . S
C689 C690 1.394 1_455 S
C689 C695 1.465 . S
C690 C685 1.399 . S
C690 C689 1.394 1_655 S
C690 C691 1.516 . S
C691 C690 1.516 . S
C691 C692 1.502 . S
C691 C693 1.561 1_655 S
C691 C694 1.526 1_655 S
C692 H676 0.959 . S
C692 H677 0.959 . S
C692 H678 0.961 . S
C692 C691 1.502 . S
C693 H679 0.960 1_455 S
C693 H680 0.961 . S
C693 H681 0.959 . S
C693 C691 1.561 1_455 S
C694 C691 1.526 1_455 S
C694 C695 1.396 . S
C694 C699 1.390 . S
C695 C689 1.465 . S
C695 C694 1.396 . S
C695 C696 1.399 . S
C696 H682 0.929 . S
C696 C695 1.399 . S
C696 C697 1.385 . S
C697 H683 0.931 . S
C697 C696 1.385 . S
C697 C698 1.389 . S
C698 C697 1.389 . S
C698 C699 1.387 . S
C699 H684 0.930 1_455 S
C699 C694 1.390 . S
C699 C698 1.387 . S
H700 C712 0.930 . S
H701 C714 0.930 . S
H702 C715 0.930 . S
H703 C719 0.959 . S
H704 C719 0.959 . S
H705 C719 0.961 . S
H706 C720 0.960 . S
H707 C720 0.961 . S
H708 C720 0.959 . S
H709 C723 0.929 . S
H710 C724 0.931 . S
H711 C726 0.930 . S
C712 H700 0.930 . S
C712 C713 1.399 . S
C712 C717 1.399 . S
C713 C712 1.399 . S
C713 C714 1.376 . S
C714 H701 0.930 . S
C714 C713 1.376 . S
C714 C715 1.388 . S
C715 H702 0.930 . S
C715 C714 1.388 . S
C715 C716 1.390 . S
C716 C715 1.390 . S
C716 C717 1.394 . S
C716 C722 1.465 . S
C717 C712 1.399 . S
C717 C716 1.394 . S
C717 C718 1.516 . S
C718 C717 1.516 . S
C718 C719 1.502 . S
C718 C720 1.561 . S
C718 C721 1.526 . S
C719 H703 0.959 . S
C719 H704 0.959 . S
C719 H705 0.961 . S
C719 C718 1.502 . S
C720 H706 0.960 . S
C720 H707 0.961 . S
C720 H708 0.959 . S
C720 C718 1.561 . S
C721 C718 1.526 . S
C721 C722 1.396 . S
C721 C726 1.390 . S
C722 C716 1.465 . S
C722 C721 1.396 . S
C722 C723 1.399 . S
C723 H709 0.929 . S
C723 C722 1.399 . S
C723 C724 1.385 . S
C724 H710 0.931 . S
C724 C723 1.385 . S
C724 C725 1.389 . S
C725 C724 1.389 . S
C725 C726 1.387 . S
C726 H711 0.930 . S
C726 C721 1.390 . S
C726 C725 1.387 . S
H727 C739 0.930 . S
H728 C741 0.930 . S
H729 C742 0.930 . S
H730 C746 0.959 . S
H731 C746 0.959 . S
H732 C746 0.961 . S
H733 C747 0.960 . S
H734 C747 0.961 . S
H735 C747 0.959 . S
H736 C750 0.929 . S
H737 C751 0.931 . S
H738 C753 0.930 . S
C739 H727 0.930 . S
C739 C740 1.399 . S
C739 C744 1.399 . S
C740 C739 1.399 . S
C740 C741 1.376 . S
C741 H728 0.930 . S
C741 C740 1.376 . S
C741 C742 1.388 . S
C742 H729 0.930 . S
C742 C741 1.388 . S
C742 C743 1.390 . S
C743 C742 1.390 . S
C743 C744 1.394 . S
C743 C749 1.465 . S
C744 C739 1.399 . S
C744 C743 1.394 . S
C744 C745 1.516 . S
C745 C744 1.516 . S
C745 C746 1.502 . S
C745 C747 1.561 . S
C745 C748 1.526 . S
C746 H730 0.959 . S
C746 H731 0.959 . S
C746 H732 0.961 . S
C746 C745 1.502 . S
C747 H733 0.960 . S
C747 H734 0.961 . S
C747 H735 0.959 . S
C747 C745 1.561 . S
C748 C745 1.526 . S
C748 C749 1.396 . S
C748 C753 1.390 . S
C749 C743 1.465 . S
C749 C748 1.396 . S
C749 C750 1.399 . S
C750 H736 0.929 . S
C750 C749 1.399 . S
C750 C751 1.385 . S
C751 H737 0.931 . S
C751 C750 1.385 . S
C751 C752 1.389 . S
C752 C751 1.389 . S
C752 C753 1.387 . S
C753 H738 0.930 . S
C753 C748 1.390 . S
C753 C752 1.387 . S
H754 C766 0.930 . S
H755 C768 0.930 . S
H756 C769 0.930 . S
H757 C773 0.959 . S
H758 C773 0.959 . S
H759 C773 0.961 . S
H760 C774 0.960 . S
H761 C774 0.961 . S
H762 C774 0.959 . S
H763 C777 0.929 . S
H764 C778 0.931 . S
H765 C780 0.930 . S
C766 H754 0.930 . S
C766 C767 1.399 . S
C766 C771 1.399 . S
C767 C766 1.399 . S
C767 C768 1.376 . S
C768 H755 0.930 . S
C768 C767 1.376 . S
C768 C769 1.388 . S
C769 H756 0.930 . S
C769 C768 1.388 . S
C769 C770 1.390 . S
C770 C769 1.390 . S
C770 C771 1.394 . S
C770 C776 1.465 . S
C771 C766 1.399 . S
C771 C770 1.394 . S
C771 C772 1.516 . S
C772 C771 1.516 . S
C772 C773 1.502 . S
C772 C774 1.561 . S
C772 C775 1.526 . S
C773 H757 0.959 . S
C773 H758 0.959 . S
C773 H759 0.961 . S
C773 C772 1.502 . S
C774 H760 0.960 . S
C774 H761 0.961 . S
C774 H762 0.959 . S
C774 C772 1.561 . S
C775 C772 1.526 . S
C775 C776 1.396 . S
C775 C780 1.390 . S
C776 C770 1.465 . S
C776 C775 1.396 . S
C776 C777 1.399 . S
C777 H763 0.929 . S
C777 C776 1.399 . S
C777 C778 1.385 . S
C778 H764 0.931 . S
C778 C777 1.385 . S
C778 C779 1.389 . S
C779 C778 1.389 . S
C779 C780 1.387 . S
C780 H765 0.930 . S
C780 C775 1.390 . S
C780 C779 1.387 . S
H781 C793 0.930 . S
H782 C795 0.930 . S
H783 C796 0.930 . S
H784 C800 0.959 . S
H785 C800 0.959 . S
H786 C800 0.961 . S
H787 C801 0.960 . S
H788 C801 0.961 . S
H789 C801 0.959 . S
H790 C804 0.929 . S
H791 C805 0.931 . S
H792 C807 0.930 . S
C793 H781 0.930 . S
C793 C794 1.399 . S
C793 C798 1.399 . S
C794 C793 1.399 . S
C794 C795 1.376 . S
C795 H782 0.930 . S
C795 C794 1.376 . S
C795 C796 1.388 . S
C796 H783 0.930 . S
C796 C795 1.388 . S
C796 C797 1.390 . S
C797 C796 1.390 . S
C797 C798 1.394 . S
C797 C803 1.465 . S
C798 C793 1.399 . S
C798 C797 1.394 . S
C798 C799 1.516 . S
C799 C798 1.516 . S
C799 C800 1.502 . S
C799 C801 1.561 . S
C799 C802 1.526 . S
C800 H784 0.959 . S
C800 H785 0.959 . S
C800 H786 0.961 . S
C800 C799 1.502 . S
C801 H787 0.960 . S
C801 H788 0.961 . S
C801 H789 0.959 . S
C801 C799 1.561 . S
C802 C799 1.526 . S
C802 C803 1.396 . S
C802 C807 1.390 . S
C803 C797 1.465 . S
C803 C802 1.396 . S
C803 C804 1.399 . S
C804 H790 0.929 . S
C804 C803 1.399 . S
C804 C805 1.385 . S
C805 H791 0.931 . S
C805 C804 1.385 . S
C805 C806 1.389 . S
C806 C805 1.389 . S
C806 C807 1.387 . S
C807 H792 0.930 . S
C807 C802 1.390 . S
C807 C806 1.387 . S
C173 C6 1.671 . S
C185 C16 1.600 . S
C200 C26 1.638 . S
C212 C36 1.615 . S
C227 C56 1.651 . S
C239 C46 1.627 . S
C254 C76 1.591 . S
C266 C66 1.667 . S
C281 C86 1.641 . S
C293 C96 1.612 . S
C308 C116 1.599 . S
C320 C106 1.657 . S
C335 C136 1.608 . S
C347 C126 1.645 . S
C362 C146 1.643 . S
C374 C156 1.635 . S
C389 C39 1.628 1_455 S
C401 C8 1.542 1_655 S
C416 C79 1.523 1_455 S
C428 C48 1.622 1_655 S
C443 C88 1.608 . S
C455 C119 1.567 . S
C470 C128 1.556 . S
C482 C159 1.584 . S
C497 C19 1.493 . S
C509 C108 1.557 . S
C524 C99 1.553 . S
C536 C28 1.495 . S
C551 C59 1.556 . S
C563 C148 1.501 . S
C578 C68 1.535 . S
C590 C139 1.526 . S
C605 C1 1.584 . S
C617 C61 1.612 . S
C632 C21 1.618 . S
C644 C41 1.543 . S
C659 C29 1.534 . S
C671 C49 1.619 . S
C686 C69 1.534 . S
C698 C9 1.619 . S
C713 C81 1.534 . S
C725 C141 1.608 . S
C740 C101 1.616 . S
C752 C121 1.536 . S
C767 C109 1.542 . S
C779 C129 1.618 . S
C794 C149 1.535 . S
C806 C89 1.619 . S
