# Generated by pormake.
# Topology ums, (4)-cn, num edge types: 1
# Building blocks:
#     Node 0, Type 0, BuildingBlock: QUQFOY_clean_sbu_3, # of connection points: 4
#     Node 1, Type 0, BuildingBlock: QUQFOY_clean_sbu_3, # of connection points: 4
#     Node 2, Type 0, BuildingBlock: QUQFOY_clean_sbu_3, # of connection points: 4
#     Node 3, Type 0, BuildingBlock: QUQFOY_clean_sbu_3, # of connection points: 4
#     Node 4, Type 0, BuildingBlock: QUQFOY_clean_sbu_3, # of connection points: 4
#     Node 5, Type 0, BuildingBlock: QUQFOY_clean_sbu_3, # of connection points: 4
#     Node 6, Type 0, BuildingBlock: QUQFOY_clean_sbu_3, # of connection points: 4
#     Node 7, Type 0, BuildingBlock: QUQFOY_clean_sbu_3, # of connection points: 4
#     Node 8, Type 0, BuildingBlock: QUQFOY_clean_sbu_3, # of connection points: 4
#     Node 9, Type 0, BuildingBlock: QUQFOY_clean_sbu_3, # of connection points: 4
#     Node 10, Type 0, BuildingBlock: QUQFOY_clean_sbu_3, # of connection points: 4
#     Node 11, Type 0, BuildingBlock: QUQFOY_clean_sbu_3, # of connection points: 4
#     Node 12, Type 0, BuildingBlock: QUQFOY_clean_sbu_3, # of connection points: 4
#     Node 13, Type 0, BuildingBlock: QUQFOY_clean_sbu_3, # of connection points: 4
#     Node 14, Type 0, BuildingBlock: QUQFOY_clean_sbu_3, # of connection points: 4
#     Node 15, Type 0, BuildingBlock: QUQFOY_clean_sbu_3, # of connection points: 4
#     Node 16, Type 0, BuildingBlock: QUQFOY_clean_sbu_3, # of connection points: 4
#     Node 17, Type 0, BuildingBlock: QUQFOY_clean_sbu_3, # of connection points: 4
#     Node 18, Type 0, BuildingBlock: QUQFOY_clean_sbu_3, # of connection points: 4
#     Node 19, Type 0, BuildingBlock: QUQFOY_clean_sbu_3, # of connection points: 4
#     Node 20, Type 0, BuildingBlock: QUQFOY_clean_sbu_3, # of connection points: 4
#     Node 21, Type 0, BuildingBlock: QUQFOY_clean_sbu_3, # of connection points: 4
#     Node 22, Type 0, BuildingBlock: QUQFOY_clean_sbu_3, # of connection points: 4
#     Node 23, Type 0, BuildingBlock: QUQFOY_clean_sbu_3, # of connection points: 4
#     Node 24, Type 0, BuildingBlock: QUQFOY_clean_sbu_3, # of connection points: 4
#     Node 25, Type 0, BuildingBlock: QUQFOY_clean_sbu_3, # of connection points: 4
#     Node 26, Type 0, BuildingBlock: QUQFOY_clean_sbu_3, # of connection points: 4
#     Node 27, Type 0, BuildingBlock: QUQFOY_clean_sbu_3, # of connection points: 4
#     Node 28, Type 0, BuildingBlock: QUQFOY_clean_sbu_3, # of connection points: 4
#     Node 29, Type 0, BuildingBlock: QUQFOY_clean_sbu_3, # of connection points: 4
#     Node 30, Type 0, BuildingBlock: QUQFOY_clean_sbu_3, # of connection points: 4
#     Node 31, Type 0, BuildingBlock: QUQFOY_clean_sbu_3, # of connection points: 4
#     Node 32, Type 0, BuildingBlock: QUQFOY_clean_sbu_3, # of connection points: 4
#     Node 33, Type 0, BuildingBlock: QUQFOY_clean_sbu_3, # of connection points: 4
#     Node 34, Type 0, BuildingBlock: QUQFOY_clean_sbu_3, # of connection points: 4
#     Node 35, Type 0, BuildingBlock: QUQFOY_clean_sbu_3, # of connection points: 4
#     Edge 36, Type (0, 0), BuildingBlock: CIFDUS_clean_linker_0, # of connection points: 2
#     Edge 37, Type (0, 0), BuildingBlock: CIFDUS_clean_linker_0, # of connection points: 2
#     Edge 38, Type (0, 0), BuildingBlock: CIFDUS_clean_linker_0, # of connection points: 2
#     Edge 39, Type (0, 0), BuildingBlock: CIFDUS_clean_linker_0, # of connection points: 2
#     Edge 40, Type (0, 0), BuildingBlock: CIFDUS_clean_linker_0, # of connection points: 2
#     Edge 41, Type (0, 0), BuildingBlock: CIFDUS_clean_linker_0, # of connection points: 2
#     Edge 42, Type (0, 0), BuildingBlock: CIFDUS_clean_linker_0, # of connection points: 2
#     Edge 43, Type (0, 0), BuildingBlock: CIFDUS_clean_linker_0, # of connection points: 2
#     Edge 44, Type (0, 0), BuildingBlock: CIFDUS_clean_linker_0, # of connection points: 2
#     Edge 45, Type (0, 0), BuildingBlock: CIFDUS_clean_linker_0, # of connection points: 2
#     Edge 46, Type (0, 0), BuildingBlock: CIFDUS_clean_linker_0, # of connection points: 2
#     Edge 47, Type (0, 0), BuildingBlock: CIFDUS_clean_linker_0, # of connection points: 2
#     Edge 48, Type (0, 0), BuildingBlock: CIFDUS_clean_linker_0, # of connection points: 2
#     Edge 49, Type (0, 0), BuildingBlock: CIFDUS_clean_linker_0, # of connection points: 2
#     Edge 50, Type (0, 0), BuildingBlock: CIFDUS_clean_linker_0, # of connection points: 2
#     Edge 51, Type (0, 0), BuildingBlock: CIFDUS_clean_linker_0, # of connection points: 2
#     Edge 52, Type (0, 0), BuildingBlock: CIFDUS_clean_linker_0, # of connection points: 2
#     Edge 53, Type (0, 0), BuildingBlock: CIFDUS_clean_linker_0, # of connection points: 2
#     Edge 54, Type (0, 0), BuildingBlock: CIFDUS_clean_linker_0, # of connection points: 2
#     Edge 55, Type (0, 0), BuildingBlock: CIFDUS_clean_linker_0, # of connection points: 2
#     Edge 56, Type (0, 0), BuildingBlock: CIFDUS_clean_linker_0, # of connection points: 2
#     Edge 57, Type (0, 0), BuildingBlock: CIFDUS_clean_linker_0, # of connection points: 2
#     Edge 58, Type (0, 0), BuildingBlock: CIFDUS_clean_linker_0, # of connection points: 2
#     Edge 59, Type (0, 0), BuildingBlock: CIFDUS_clean_linker_0, # of connection points: 2
#     Edge 60, Type (0, 0), BuildingBlock: CIFDUS_clean_linker_0, # of connection points: 2
#     Edge 61, Type (0, 0), BuildingBlock: CIFDUS_clean_linker_0, # of connection points: 2
#     Edge 62, Type (0, 0), BuildingBlock: CIFDUS_clean_linker_0, # of connection points: 2
#     Edge 63, Type (0, 0), BuildingBlock: CIFDUS_clean_linker_0, # of connection points: 2
#     Edge 64, Type (0, 0), BuildingBlock: CIFDUS_clean_linker_0, # of connection points: 2
#     Edge 65, Type (0, 0), BuildingBlock: CIFDUS_clean_linker_0, # of connection points: 2
#     Edge 66, Type (0, 0), BuildingBlock: CIFDUS_clean_linker_0, # of connection points: 2
#     Edge 67, Type (0, 0), BuildingBlock: CIFDUS_clean_linker_0, # of connection points: 2
#     Edge 68, Type (0, 0), BuildingBlock: CIFDUS_clean_linker_0, # of connection points: 2
#     Edge 69, Type (0, 0), BuildingBlock: CIFDUS_clean_linker_0, # of connection points: 2
#     Edge 70, Type (0, 0), BuildingBlock: CIFDUS_clean_linker_0, # of connection points: 2
#     Edge 71, Type (0, 0), BuildingBlock: CIFDUS_clean_linker_0, # of connection points: 2
#     Edge 72, Type (0, 0), BuildingBlock: CIFDUS_clean_linker_0, # of connection points: 2
#     Edge 73, Type (0, 0), BuildingBlock: CIFDUS_clean_linker_0, # of connection points: 2
#     Edge 74, Type (0, 0), BuildingBlock: CIFDUS_clean_linker_0, # of connection points: 2
#     Edge 75, Type (0, 0), BuildingBlock: CIFDUS_clean_linker_0, # of connection points: 2
#     Edge 76, Type (0, 0), BuildingBlock: CIFDUS_clean_linker_0, # of connection points: 2
#     Edge 77, Type (0, 0), BuildingBlock: CIFDUS_clean_linker_0, # of connection points: 2
#     Edge 78, Type (0, 0), BuildingBlock: CIFDUS_clean_linker_0, # of connection points: 2
#     Edge 79, Type (0, 0), BuildingBlock: CIFDUS_clean_linker_0, # of connection points: 2
#     Edge 80, Type (0, 0), BuildingBlock: CIFDUS_clean_linker_0, # of connection points: 2
#     Edge 81, Type (0, 0), BuildingBlock: CIFDUS_clean_linker_0, # of connection points: 2
#     Edge 82, Type (0, 0), BuildingBlock: CIFDUS_clean_linker_0, # of connection points: 2
#     Edge 83, Type (0, 0), BuildingBlock: CIFDUS_clean_linker_0, # of connection points: 2
#     Edge 84, Type (0, 0), BuildingBlock: CIFDUS_clean_linker_0, # of connection points: 2
#     Edge 85, Type (0, 0), BuildingBlock: CIFDUS_clean_linker_0, # of connection points: 2
#     Edge 86, Type (0, 0), BuildingBlock: CIFDUS_clean_linker_0, # of connection points: 2
#     Edge 87, Type (0, 0), BuildingBlock: CIFDUS_clean_linker_0, # of connection points: 2
#     Edge 88, Type (0, 0), BuildingBlock: CIFDUS_clean_linker_0, # of connection points: 2
#     Edge 89, Type (0, 0), BuildingBlock: CIFDUS_clean_linker_0, # of connection points: 2
#     Edge 90, Type (0, 0), BuildingBlock: CIFDUS_clean_linker_0, # of connection points: 2
#     Edge 91, Type (0, 0), BuildingBlock: CIFDUS_clean_linker_0, # of connection points: 2
#     Edge 92, Type (0, 0), BuildingBlock: CIFDUS_clean_linker_0, # of connection points: 2
#     Edge 93, Type (0, 0), BuildingBlock: CIFDUS_clean_linker_0, # of connection points: 2
#     Edge 94, Type (0, 0), BuildingBlock: CIFDUS_clean_linker_0, # of connection points: 2
#     Edge 95, Type (0, 0), BuildingBlock: CIFDUS_clean_linker_0, # of connection points: 2
#     Edge 96, Type (0, 0), BuildingBlock: CIFDUS_clean_linker_0, # of connection points: 2
#     Edge 97, Type (0, 0), BuildingBlock: CIFDUS_clean_linker_0, # of connection points: 2
#     Edge 98, Type (0, 0), BuildingBlock: CIFDUS_clean_linker_0, # of connection points: 2
#     Edge 99, Type (0, 0), BuildingBlock: CIFDUS_clean_linker_0, # of connection points: 2
#     Edge 100, Type (0, 0), BuildingBlock: CIFDUS_clean_linker_0, # of connection points: 2
#     Edge 101, Type (0, 0), BuildingBlock: CIFDUS_clean_linker_0, # of connection points: 2
#     Edge 102, Type (0, 0), BuildingBlock: CIFDUS_clean_linker_0, # of connection points: 2
#     Edge 103, Type (0, 0), BuildingBlock: CIFDUS_clean_linker_0, # of connection points: 2
#     Edge 104, Type (0, 0), BuildingBlock: CIFDUS_clean_linker_0, # of connection points: 2
#     Edge 105, Type (0, 0), BuildingBlock: CIFDUS_clean_linker_0, # of connection points: 2
#     Edge 106, Type (0, 0), BuildingBlock: CIFDUS_clean_linker_0, # of connection points: 2
#     Edge 107, Type (0, 0), BuildingBlock: CIFDUS_clean_linker_0, # of connection points: 2
# Relax obj value: 0.190
# Max RMSD: 0.142
# Mean RMSD: 0.142
data_MOF--net-ums--node1-QUQFOY_clean_sbu_3--edge1-CIFDUS_clean_linker_0
_symmetry_space_group_name_H-M    P1
_symmetry_Int_Tables_number       1
_symmetry_cell_setting            triclinic
loop_
_symmetry_equiv_pos_as_xyz
'x, y, z'
_cell_length_a     93.367094
_cell_length_b     93.297289
_cell_length_c     21.193333
_cell_angle_alpha  90.005516
_cell_angle_beta   90.000124
_cell_angle_gamma 119.74837
loop_
_atom_site_label
_atom_site_type_symbol
_atom_site_fract_x
_atom_site_fract_y
_atom_site_fract_z
_atom_type_partial_charge
C0 C 0.17481 0.28098 0.1982 0.0
O1 O 0.17002 0.28581 0.24561 0.0
Cd2 Cd 0.14562 0.26575 0.30009 0.0
O3 O 0.16929 0.26563 0.18891 0.0
Cd4 Cd 0.1524 0.23815 0.23776 0.0
C5 C 0.12414 0.24453 0.16481 0.0
O6 O 0.14934 0.24456 0.3459 0.0
O7 O 0.13069 0.22072 0.31156 0.0
O8 O 0.17817 0.2383 0.24687 0.0
C9 C 0.13627 0.23096 0.35684 0.0
O10 O 0.12669 0.25441 0.21052 0.0
C11 C 0.17306 0.22392 0.22475 0.0
O12 O 0.1321 0.23669 0.16065 0.0
O13 O 0.15804 0.21588 0.20722 0.0
C14 C 0.67922 0.88533 0.20123 0.0
O15 O 0.67386 0.87399 0.24252 0.0
Cd16 Cd 0.69323 0.8698 0.30229 0.0
O17 O 0.69444 0.89635 0.19996 0.0
Cd18 Cd 0.72032 0.90622 0.26266 0.0
C19 C 0.72059 0.87575 0.17975 0.0
O20 O 0.70911 0.8939 0.36476 0.0
O21 O 0.73464 0.90111 0.34936 0.0
O22 O 0.72085 0.93245 0.26955 0.0
C23 C 0.72243 0.89539 0.38674 0.0
O24 O 0.70903 0.86614 0.21686 0.0
C25 C 0.73594 0.94127 0.25455 0.0
O26 O 0.72725 0.89136 0.18527 0.0
O27 O 0.7439 0.93377 0.2431 0.0
C28 C 0.08043 0.78388 0.20113 0.0
O29 O 0.09195 0.78879 0.24158 0.0
Cd30 Cd 0.09818 0.81186 0.30827 0.0
O31 O 0.07025 0.78924 0.20242 0.0
Cd32 Cd 0.06311 0.80667 0.27074 0.0
C33 C 0.09549 0.83744 0.19562 0.0
O34 O 0.07445 0.80475 0.37195 0.0
O35 O 0.06995 0.82516 0.36156 0.0
O36 O 0.03495 0.78367 0.27587 0.0
C37 C 0.07425 0.817 0.39697 0.0
O38 O 0.10438 0.83388 0.23073 0.0
C39 C 0.02815 0.79217 0.26226 0.0
O40 O 0.07982 0.82928 0.19954 0.0
O41 O 0.03765 0.80746 0.25189 0.0
C42 C 0.28649 0.18793 0.26619 0.0
O43 O 0.29254 0.18396 0.22027 0.0
Cd44 Cd 0.27577 0.16036 0.15664 0.0
O45 O 0.27088 0.18135 0.27255 0.0
Cd46 Cd 0.24523 0.16253 0.21181 0.0
C47 C 0.25214 0.13375 0.27722 0.0
O48 O 0.25579 0.16491 0.10509 0.0
O49 O 0.23272 0.1429 0.12495 0.0
O50 O 0.23779 0.18404 0.20854 0.0
C51 C 0.24361 0.1517 0.08469 0.0
O52 O 0.26358 0.1383 0.2362 0.0
C53 C 0.22299 0.17498 0.22671 0.0
O54 O 0.24336 0.1407 0.28047 0.0
O55 O 0.21858 0.16008 0.24031 0.0
C56 C 0.78012 0.09167 0.24559 0.0
O57 O 0.78534 0.10174 0.19966 0.0
Cd58 Cd 0.80967 0.10718 0.1422 0.0
O59 O 0.78594 0.08207 0.25564 0.0
Cd60 Cd 0.80493 0.07379 0.20602 0.0
C61 C 0.83374 0.10947 0.27109 0.0
O62 O 0.80573 0.08214 0.09673 0.0
O63 O 0.82586 0.07869 0.12738 0.0
O64 O 0.7824 0.0455 0.20384 0.0
C65 C 0.81897 0.08213 0.08297 0.0
O66 O 0.83043 0.11659 0.22667 0.0
C67 C 0.79036 0.0393 0.22966 0.0
O68 O 0.82598 0.09379 0.27621 0.0
O69 O 0.80519 0.04924 0.24564 0.0
C70 C 0.87277 0.67931 0.27036 0.0
O71 O 0.86167 0.67672 0.23014 0.0
Cd72 Cd 0.85932 0.69951 0.19252 0.0
O73 O 0.88427 0.69397 0.28192 0.0
Cd74 Cd 0.89496 0.72256 0.24015 0.0
C75 C 0.86524 0.72051 0.33428 0.0
O76 O 0.88388 0.71674 0.13387 0.0
O77 O 0.88915 0.74037 0.17101 0.0
O78 O 0.9212 0.72349 0.22441 0.0
C79 C 0.88517 0.73072 0.12399 0.0
O80 O 0.85541 0.71149 0.29094 0.0
C81 C 0.93001 0.73781 0.24752 0.0
O82 O 0.88071 0.72621 0.32887 0.0
O83 O 0.92251 0.74513 0.26771 0.0
C84 C 0.78405 0.68555 0.81042 0.0
O85 O 0.79942 0.69315 0.80086 0.0
Cd86 Cd 0.80323 0.71994 0.7633 0.0
O87 O 0.77651 0.69331 0.79771 0.0
Cd88 Cd 0.79954 0.72083 0.7631 0.0
C89 C 0.82812 0.73437 0.85894 0.0
O90 O 0.80047 0.71558 0.65014 0.0
O91 O 0.82428 0.72458 0.69122 0.0
O92 O 0.77892 0.72922 0.74859 0.0
C93 C 0.81542 0.71976 0.64196 0.0
O94 O 0.83207 0.73884 0.8023 0.0
C95 C 0.78844 0.74446 0.75949 0.0
O96 O 0.81305 0.72454 0.86992 0.0
O97 O 0.80341 0.74897 0.77177 0.0
C98 C 0.28341 0.0897 0.75858 0.0
O99 O 0.28812 0.10066 0.7159 0.0
Cd100 Cd 0.26837 0.10473 0.65811 0.0
O101 O 0.26824 0.07873 0.76356 0.0
Cd102 Cd 0.24158 0.0687 0.7061 0.0
C103 C 0.24259 0.10049 0.784 0.0
O104 O 0.25099 0.08006 0.60125 0.0
O105 O 0.22598 0.07355 0.62417 0.0
O106 O 0.23994 0.04195 0.69816 0.0
C107 C 0.23746 0.07889 0.58355 0.0
O108 O 0.25356 0.10962 0.74402 0.0
C109 C 0.22531 0.0337 0.71922 0.0
O110 O 0.23611 0.08483 0.78214 0.0
O111 O 0.21812 0.04175 0.7343 0.0
C112 C 0.87709 0.18724 0.74654 0.0
O113 O 0.86728 0.1824 0.6998 0.0
Cd114 Cd 0.86158 0.15809 0.64167 0.0
O115 O 0.88647 0.18118 0.75674 0.0
Cd116 Cd 0.89471 0.16223 0.70603 0.0
C117 C 0.85883 0.13373 0.77048 0.0
O118 O 0.88651 0.16175 0.59681 0.0
O119 O 0.88936 0.14122 0.627 0.0
O120 O 0.92317 0.18447 0.70367 0.0
C121 C 0.88618 0.14836 0.58273 0.0
O122 O 0.8519 0.13728 0.72603 0.0
C123 C 0.92919 0.17626 0.72881 0.0
O124 O 0.87449 0.14123 0.77582 0.0
O125 O 0.91907 0.16148 0.74492 0.0
C126 C 0.69354 0.79566 0.65156 0.0
O127 O 0.69028 0.78901 0.70553 0.0
Cd128 Cd 0.71619 0.81184 0.74777 0.0
O129 O 0.70754 0.80839 0.64453 0.0
Cd130 Cd 0.72638 0.81647 0.74456 0.0
C131 C 0.73183 0.84556 0.67118 0.0
O132 O 0.71116 0.81443 0.84962 0.0
O133 O 0.73485 0.83611 0.83569 0.0
O134 O 0.72448 0.78937 0.75057 0.0
C135 C 0.72257 0.82788 0.87175 0.0
O136 O 0.71806 0.83707 0.69851 0.0
C137 C 0.73993 0.79484 0.75007 0.0
O138 O 0.74241 0.84095 0.67832 0.0
O139 O 0.74919 0.81043 0.74758 0.0
C140 C 0.17685 0.88331 0.70107 0.0
O141 O 0.17287 0.87247 0.74389 0.0
Cd142 Cd 0.15017 0.86634 0.81211 0.0
O143 O 0.17109 0.89318 0.70158 0.0
Cd144 Cd 0.15443 0.90114 0.77048 0.0
C145 C 0.12404 0.86787 0.69836 0.0
O146 O 0.15726 0.89064 0.87179 0.0
O147 O 0.13653 0.89469 0.86323 0.0
O148 O 0.17762 0.92917 0.7709 0.0
C149 C 0.14503 0.89063 0.89786 0.0
O150 O 0.1281 0.85946 0.73407 0.0
C151 C 0.16922 0.93604 0.75676 0.0
O152 O 0.13166 0.88358 0.70137 0.0
O153 O 0.15381 0.92663 0.74879 0.0
C154 C 0.07576 0.27865 0.64766 0.0
O155 O 0.0738 0.28131 0.70479 0.0
Cd156 Cd 0.06894 0.25367 0.73426 0.0
O157 O 0.07311 0.26432 0.6338 0.0
Cd158 Cd 0.06261 0.24242 0.72367 0.0
C159 C 0.0876 0.24042 0.64572 0.0
O160 O 0.07536 0.25208 0.83596 0.0
O161 O 0.07356 0.22982 0.79756 0.0
O162 O 0.03713 0.24338 0.73909 0.0
C163 C 0.07747 0.23976 0.8437 0.0
O164 O 0.09223 0.25295 0.68081 0.0
C165 C 0.02753 0.22802 0.73084 0.0
O166 O 0.07236 0.22979 0.64569 0.0
O167 O 0.03421 0.21928 0.71954 0.0
C168 C 0.84116 0.61647 0.54824 0.0
O169 O 0.83484 0.62082 0.59202 0.0
Cd170 Cd 0.81002 0.60143 0.64373 0.0
O171 O 0.8359 0.60123 0.53691 0.0
Cd172 Cd 0.81642 0.57373 0.58389 0.0
C173 C 0.78759 0.57966 0.5121 0.0
O174 O 0.81586 0.58188 0.69206 0.0
O175 O 0.79577 0.55809 0.6659 0.0
O176 O 0.839 0.56785 0.58703 0.0
C177 C 0.80303 0.56877 0.70877 0.0
O178 O 0.79011 0.58997 0.55612 0.0
C179 C 0.83105 0.55366 0.56186 0.0
O180 O 0.79577 0.57207 0.5098 0.0
O181 O 0.81623 0.54883 0.54574 0.0
C182 C 0.33895 0.21015 0.57531 0.0
O183 O 0.33391 0.19996 0.62083 0.0
Cd184 Cd 0.3524 0.19355 0.6765 0.0
O185 O 0.35437 0.21933 0.56533 0.0
Cd186 Cd 0.38149 0.22662 0.61398 0.0
C187 C 0.37352 0.19086 0.54559 0.0
O188 O 0.37406 0.21791 0.72284 0.0
O189 O 0.39705 0.22029 0.69026 0.0
O190 O 0.38723 0.25482 0.62322 0.0
C191 C 0.387 0.2172 0.73534 0.0
O192 O 0.36315 0.18402 0.59023 0.0
C193 C 0.40132 0.26144 0.59714 0.0
O194 O 0.38193 0.20655 0.54092 0.0
O195 O 0.40625 0.25176 0.57708 0.0
C196 C 0.75061 0.11798 0.54804 0.0
O197 O 0.76035 0.12287 0.59499 0.0
Cd198 Cd 0.76568 0.14708 0.65316 0.0
O199 O 0.74115 0.12394 0.53761 0.0
Cd200 Cd 0.73257 0.14273 0.5873 0.0
C201 C 0.76861 0.17145 0.52427 0.0
O202 O 0.74053 0.14323 0.69683 0.0
O203 O 0.73741 0.16358 0.66669 0.0
O204 O 0.70415 0.12038 0.58753 0.0
C205 C 0.74072 0.15655 0.71095 0.0
O206 O 0.77552 0.16797 0.56901 0.0
C207 C 0.69828 0.12846 0.56017 0.0
O208 O 0.75296 0.16384 0.5185 0.0
O209 O 0.70845 0.14327 0.54461 0.0
C210 C 0.93029 0.50898 0.66739 0.0
O211 O 0.93403 0.51571 0.61357 0.0
Cd212 Cd 0.90911 0.49242 0.56737 0.0
O213 O 0.91648 0.4959 0.67235 0.0
Cd214 Cd 0.89878 0.48747 0.56927 0.0
C215 C 0.89369 0.45858 0.64314 0.0
O216 O 0.91503 0.48999 0.46632 0.0
O217 O 0.89149 0.46798 0.47859 0.0
O218 O 0.89968 0.51412 0.56241 0.0
C219 C 0.90397 0.47641 0.44363 0.0
O220 O 0.90762 0.46748 0.6174 0.0
C221 C 0.88415 0.50808 0.56013 0.0
O222 O 0.88284 0.46277 0.63455 0.0
O223 O 0.87537 0.49242 0.5614 0.0
C224 C 0.43701 0.41315 0.62502 0.0
O225 O 0.44049 0.42276 0.57805 0.0
Cd226 Cd 0.46342 0.42785 0.51313 0.0
O227 O 0.44325 0.40376 0.63003 0.0
Cd228 Cd 0.45998 0.39443 0.56964 0.0
C229 C 0.4895 0.42955 0.63494 0.0
O230 O 0.45728 0.40256 0.464 0.0
O231 O 0.47836 0.39941 0.47939 0.0
O232 O 0.43549 0.36762 0.57474 0.0
C233 C 0.46983 0.40256 0.44116 0.0
O234 O 0.48514 0.43658 0.59361 0.0
C235 C 0.44274 0.3596 0.58888 0.0
O236 O 0.48234 0.41383 0.6383 0.0
O237 O 0.45835 0.36783 0.59532 0.0
C238 C 0.55301 0.02908 0.64276 0.0
O239 O 0.55535 0.02496 0.58853 0.0
Cd240 Cd 0.5591 0.05101 0.54421 0.0
O241 O 0.55507 0.04349 0.64861 0.0
Cd242 Cd 0.56502 0.06161 0.54643 0.0
C243 C 0.54193 0.06785 0.62074 0.0
O244 O 0.55132 0.04588 0.44247 0.0
O245 O 0.55331 0.06967 0.45593 0.0
O246 O 0.59057 0.06028 0.54057 0.0
C247 C 0.54913 0.05725 0.42031 0.0
O248 O 0.53639 0.05384 0.59485 0.0
C249 C 0.60013 0.07581 0.53953 0.0
O250 O 0.55704 0.0782 0.61196 0.0
O251 O 0.59337 0.08475 0.54048 0.0
C252 C 0.4474 0.01716 0.07846 0.0
O253 O 0.45424 0.01229 0.03875 0.0
Cd254 Cd 0.47877 0.03145 0.98493 0.0
O255 O 0.45189 0.03246 0.08334 0.0
Cd256 Cd 0.47047 0.05929 0.02835 0.0
C257 C 0.4998 0.0567 0.11221 0.0
O258 O 0.47135 0.04847 0.92513 0.0
O259 O 0.49045 0.07348 0.94226 0.0
O260 O 0.44676 0.06359 0.02215 0.0
C261 C 0.48355 0.06151 0.90393 0.0
O262 O 0.49787 0.0454 0.07353 0.0
C263 C 0.45445 0.07846 0.04119 0.0
O264 O 0.49129 0.06388 0.10695 0.0
O265 O 0.46963 0.08445 0.05434 0.0
C266 C 0.94921 0.4213 0.10444 0.0
O267 O 0.95353 0.4324 0.06247 0.0
Cd268 Cd 0.93313 0.4357 0.0073 0.0
O269 O 0.93419 0.40989 0.1093 0.0
Cd270 Cd 0.90746 0.39914 0.05046 0.0
C271 C 0.90684 0.4293 0.13428 0.0
O272 O 0.91773 0.41111 0.94732 0.0
O273 O 0.89225 0.40364 0.9649 0.0
O274 O 0.9072 0.37298 0.04361 0.0
C275 C 0.9042 0.40924 0.92629 0.0
O276 O 0.9179 0.43906 0.09581 0.0
C277 C 0.89212 0.36407 0.05864 0.0
O278 O 0.90057 0.41373 0.12907 0.0
O279 O 0.88412 0.37149 0.07075 0.0
C280 C 0.53614 0.50899 0.12656 0.0
O281 O 0.52485 0.50358 0.08506 0.0
Cd282 Cd 0.51877 0.47913 0.02596 0.0
O283 O 0.54624 0.50354 0.1291 0.0
Cd284 Cd 0.55345 0.48514 0.06767 0.0
C285 C 0.52138 0.45563 0.14706 0.0
O286 O 0.54164 0.48308 0.96218 0.0
O287 O 0.546 0.46333 0.99031 0.0
O288 O 0.5817 0.50766 0.05413 0.0
C289 C 0.54152 0.46979 0.94764 0.0
O290 O 0.51245 0.45831 0.10867 0.0
C291 C 0.58841 0.49979 0.07663 0.0
O292 O 0.53705 0.46411 0.14434 0.0
O293 O 0.57882 0.48511 0.09524 0.0
C294 C 0.33665 0.1135 0.0689 0.0
O295 O 0.33182 0.11824 0.11645 0.0
Cd296 Cd 0.35135 0.14169 0.17662 0.0
O297 O 0.35196 0.11876 0.06011 0.0
Cd298 Cd 0.37917 0.13536 0.11282 0.0
C299 C 0.37428 0.1656 0.04883 0.0
O300 O 0.37156 0.13636 0.22174 0.0
O301 O 0.39569 0.15559 0.19288 0.0
O302 O 0.38177 0.11075 0.11214 0.0
C303 C 0.38503 0.14917 0.23639 0.0
O304 O 0.36385 0.16253 0.09295 0.0
C305 C 0.3961 0.11759 0.08793 0.0
O306 O 0.38169 0.15728 0.04336 0.0
O307 O 0.4027 0.13288 0.07483 0.0
C308 C 0.8473 0.21327 0.0486 0.0
O309 O 0.84195 0.20312 0.09422 0.0
Cd310 Cd 0.81752 0.19765 0.15093 0.0
O311 O 0.84154 0.22293 0.03856 0.0
Cd312 Cd 0.8225 0.23117 0.08821 0.0
C313 C 0.79368 0.19575 0.02162 0.0
O314 O 0.82152 0.2226 0.19731 0.0
O315 O 0.8014 0.22602 0.16639 0.0
O316 O 0.84521 0.25935 0.09301 0.0
C317 C 0.80828 0.2226 0.21092 0.0
O318 O 0.79694 0.18856 0.06598 0.0
C319 C 0.83745 0.26585 0.06787 0.0
O320 O 0.80148 0.21144 0.0168 0.0
O321 O 0.82267 0.25612 0.05063 0.0
C322 C 0.7338 0.60238 0.00725 0.0
O323 O 0.72473 0.5995 0.05508 0.0
Cd324 Cd 0.72532 0.57361 0.07846 0.0
O325 O 0.73739 0.59143 -0.00723 0.0
Cd326 Cd 0.72209 0.56667 0.07098 0.0
C327 C 0.74271 0.56013 0.98732 0.0
O328 O 0.73385 0.57664 0.18166 0.0
O329 O 0.73416 0.55511 0.14774 0.0
O330 O 0.69348 0.54397 0.0699 0.0
C331 C 0.73728 0.56534 0.19233 0.0
O332 O 0.74899 0.57277 0.02249 0.0
C333 C 0.68674 0.55283 0.0762 0.0
O334 O 0.72726 0.5508 -0.00914 0.0
O335 O 0.69632 0.5683 0.08072 0.0
C336 C 0.50484 0.95464 0.88094 0.0
O337 O 0.49794 0.95956 0.92019 0.0
Cd338 Cd 0.47501 0.94141 0.98322 0.0
O339 O 0.50075 0.9394 0.87816 0.0
Cd340 Cd 0.48212 0.9132 0.93675 0.0
C341 C 0.45105 0.91524 0.8637 0.0
O342 O 0.48412 0.92527 0.03977 0.0
O343 O 0.46379 0.90061 0.02937 0.0
O344 O 0.50515 0.90785 0.93817 0.0
C345 C 0.4722 0.91281 0.06536 0.0
O346 O 0.45369 0.92665 0.90293 0.0
C347 C 0.49681 0.89286 0.92106 0.0
O348 O 0.45985 0.90831 0.86454 0.0
O349 O 0.48154 0.88727 0.91073 0.0
C350 C 0.00503 0.54322 0.90953 0.0
O351 O 0.0011 0.53306 0.95491 0.0
Cd352 Cd 0.02128 0.53005 0.01425 0.0
O353 O 0.0201 0.55393 0.89978 0.0
Cd354 Cd 0.04799 0.56431 0.94678 0.0
C355 C 0.04344 0.52905 0.8841 0.0
O356 O 0.0409 0.55621 0.05575 0.0
O357 O 0.06517 0.5614 0.02768 0.0
O358 O 0.05002 0.59121 0.94578 0.0
C359 C 0.05449 0.55721 0.07115 0.0
O360 O 0.03362 0.52181 0.92994 0.0
C361 C 0.06423 0.59884 0.92066 0.0
O362 O 0.05029 0.54467 0.87713 0.0
O363 O 0.07107 0.59037 0.90694 0.0
C364 C 0.40993 0.45519 0.88167 0.0
O365 O 0.42041 0.45865 0.92555 0.0
Cd366 Cd 0.42865 0.48257 0.98994 0.0
O367 O 0.40166 0.46267 0.87779 0.0
Cd368 Cd 0.39635 0.4825 0.93708 0.0
C369 C 0.43241 0.50978 0.8698 0.0
O370 O 0.4046 0.47924 0.04194 0.0
O371 O 0.40313 0.50134 0.02615 0.0
O372 O 0.36827 0.46047 0.94122 0.0
C373 C 0.40559 0.49231 0.06435 0.0
O374 O 0.4389 0.50453 0.90999 0.0
C375 C 0.36171 0.4688 0.92253 0.0
O376 O 0.4168 0.50377 0.86774 0.0
O377 O 0.37141 0.4839 0.90894 0.0
C378 C 0.60937 0.85134 0.94292 0.0
O379 O 0.61543 0.84676 0.89894 0.0
Cd380 Cd 0.59719 0.82436 0.83274 0.0
O381 O 0.59398 0.84652 0.94406 0.0
Cd382 Cd 0.56885 0.83144 0.87627 0.0
C383 C 0.56904 0.79971 0.94845 0.0
O384 O 0.58121 0.83315 0.77387 0.0
O385 O 0.55619 0.81326 0.78448 0.0
O386 O 0.56758 0.85677 0.87531 0.0
C387 C 0.56856 0.82127 0.74873 0.0
O388 O 0.58107 0.8029 0.91161 0.0
C389 C 0.5524 0.85015 0.88948 0.0
O390 O 0.56191 0.80833 0.94662 0.0
O391 O 0.54465 0.83459 0.89762 0.0
C392 C 0.1121 0.74888 0.93189 0.0
O393 O 0.11628 0.75985 0.88945 0.0
Cd394 Cd 0.13918 0.76607 0.8222 0.0
O395 O 0.11784 0.73899 0.93151 0.0
Cd396 Cd 0.13485 0.73126 0.8631 0.0
C397 C 0.16511 0.76439 0.93646 0.0
O398 O 0.13229 0.74194 0.76167 0.0
O399 O 0.15309 0.73804 0.77114 0.0
O400 O 0.11177 0.70313 0.86073 0.0
C401 C 0.14463 0.74206 0.73611 0.0
O402 O 0.16114 0.77285 0.90066 0.0
C403 C 0.12015 0.69628 0.87536 0.0
O404 O 0.15746 0.74869 0.93326 0.0
O405 O 0.13551 0.70575 0.88455 0.0
C406 C 0.20982 0.35411 0.95291 0.0
O407 O 0.20016 0.34818 0.90602 0.0
Cd408 Cd 0.19554 0.3661 0.83878 0.0
O409 O 0.2195 0.36963 0.95774 0.0
Cd410 Cd 0.22907 0.3953 0.89444 0.0
C411 C 0.19457 0.39187 0.95619 0.0
O412 O 0.22082 0.38454 0.78833 0.0
O413 O 0.22459 0.409 0.80483 0.0
O414 O 0.25579 0.39736 0.89784 0.0
C415 C 0.22134 0.39742 0.76609 0.0
O416 O 0.18726 0.38034 0.91579 0.0
C417 C 0.26379 0.4125 0.9131 0.0
O418 O 0.21026 0.39969 0.96044 0.0
O419 O 0.25556 0.41989 0.92104 0.0
C420 C 0.12097 0.35885 0.43255 0.0
O421 O 0.12872 0.35548 0.39132 0.0
Cd422 Cd 0.15212 0.37584 0.33518 0.0
O423 O 0.12403 0.37369 0.44019 0.0
Cd424 Cd 0.14163 0.40131 0.38871 0.0
C425 C 0.17273 0.40018 0.46418 0.0
O426 O 0.14385 0.39305 0.28216 0.0
O427 O 0.16246 0.4176 0.30875 0.0
O428 O 0.11755 0.40487 0.3805 0.0
C429 C 0.15616 0.4067 0.26604 0.0
O430 O 0.17158 0.38998 0.42173 0.0
C431 C 0.12458 0.41938 0.4032 0.0
O432 O 0.16298 0.40605 0.46464 0.0
O433 O 0.13951 0.4254 0.42042 0.0
C434 C 0.61598 0.76422 0.42436 0.0
O435 O 0.61931 0.77574 0.38513 0.0
Cd436 Cd 0.59868 0.77746 0.32541 0.0
O437 O 0.60135 0.75197 0.4285 0.0
Cd438 Cd 0.57405 0.74114 0.37391 0.0
C439 C 0.57213 0.77205 0.44892 0.0
O440 O 0.5846 0.75186 0.2699 0.0
O441 O 0.55901 0.74436 0.28355 0.0
O442 O 0.5736 0.7148 0.37388 0.0
C443 C 0.57116 0.74947 0.24611 0.0
O444 O 0.58274 0.78157 0.40867 0.0
C445 C 0.55864 0.70622 0.39075 0.0
O446 O 0.56689 0.75658 0.4481 0.0
O447 O 0.55075 0.71389 0.40008 0.0
C448 C 0.20798 0.84802 0.43073 0.0
O449 O 0.19652 0.84302 0.39 0.0
Cd450 Cd 0.19091 0.82004 0.32365 0.0
O451 O 0.21834 0.84288 0.42958 0.0
Cd452 Cd 0.22642 0.82606 0.36267 0.0
C453 C 0.19421 0.79501 0.43767 0.0
O454 O 0.21502 0.82768 0.26154 0.0
O455 O 0.22053 0.80791 0.27099 0.0
O456 O 0.25385 0.85013 0.35927 0.0
C457 C 0.21569 0.81572 0.23611 0.0
O458 O 0.18521 0.79836 0.40222 0.0
C459 C 0.26143 0.84253 0.37494 0.0
O460 O 0.20987 0.80332 0.43383 0.0
O461 O 0.2527 0.82709 0.38465 0.0
C462 C 0.00451 0.45115 0.40824 0.0
O463 O -0.00013 0.45631 0.45512 0.0
Cd464 Cd 0.01955 0.48054 0.51106 0.0
O465 O 0.01981 0.45672 0.39777 0.0
Cd466 Cd 0.04728 0.47465 0.44654 0.0
C467 C 0.04139 0.50397 0.38048 0.0
O468 O 0.04038 0.47608 0.5561 0.0
O469 O 0.06393 0.49569 0.52366 0.0
O470 O 0.05025 0.4503 0.44821 0.0
C471 C 0.0538 0.48917 0.56877 0.0
O472 O 0.03115 0.50089 0.42534 0.0
C473 C 0.06467 0.45724 0.42488 0.0
O474 O 0.04907 0.49591 0.37489 0.0
O475 O 0.07111 0.47244 0.41053 0.0
C476 C 0.50744 0.55183 0.37826 0.0
O477 O 0.50208 0.54135 0.42281 0.0
Cd478 Cd 0.47922 0.5378 0.48612 0.0
O479 O 0.50323 0.5629 0.3747 0.0
Cd480 Cd 0.48768 0.57338 0.43839 0.0
C481 C 0.45612 0.54149 0.36573 0.0
O482 O 0.48619 0.5623 0.5444 0.0
O483 O 0.46731 0.56823 0.51989 0.0
O484 O 0.51129 0.60143 0.444 0.0
C485 C 0.47366 0.5633 0.56138 0.0
O486 O 0.45829 0.53234 0.40478 0.0
C487 C 0.50344 0.60831 0.42274 0.0
O488 O 0.46541 0.5571 0.36652 0.0
O489 O 0.48841 0.5989 0.40818 0.0
C490 C 0.41547 0.96197 0.38063 0.0
O491 O 0.42647 0.96614 0.42286 0.0
Cd492 Cd 0.42894 0.94605 0.48389 0.0
O493 O 0.40384 0.94703 0.3759 0.0
Cd494 Cd 0.39308 0.9204 0.43606 0.0
C495 C 0.42422 0.9186 0.36418 0.0
O496 O 0.40355 0.9314 0.54027 0.0
O497 O 0.3969 0.90599 0.52673 0.0
O498 O 0.36585 0.91806 0.43564 0.0
C499 C 0.40164 0.91812 0.56411 0.0
O500 O 0.43368 0.92983 0.40273 0.0
C501 C 0.35819 0.90309 0.41777 0.0
O502 O 0.40871 0.91298 0.3653 0.0
O503 O 0.36678 0.89618 0.40818 0.0
H504 H 0.23039 0.20689 0.21909 0.0
H505 H 0.18939 0.1574 0.23882 0.0
H506 H 0.17011 0.16802 0.23647 0.0
H507 H 0.16495 0.19154 0.22868 0.0
H508 H 0.20633 0.24099 0.21452 0.0
H509 H 0.22539 0.23021 0.21411 0.0
C510 C 0.21724 0.19841 0.22304 0.0
C511 C 0.21134 0.18139 0.22903 0.0
C512 C 0.20628 0.2046 0.22215 0.0
C513 C 0.19426 0.17058 0.23444 0.0
C514 C 0.18322 0.17664 0.2328 0.0
C515 C 0.17813 0.19989 0.22497 0.0
C516 C 0.18424 0.21701 0.22119 0.0
C517 C 0.18909 0.19363 0.22642 0.0
C518 C 0.20135 0.22776 0.21744 0.0
C519 C 0.21226 0.22162 0.2173 0.0
H520 H 0.75783 0.01666 0.22747 0.0
H521 H 0.80593 0.02156 0.25214 0.0
H522 H 0.79337 -0.00844 0.26109 0.0
H523 H 0.76867 0.96387 0.25968 0.0
H524 H 0.72058 0.95932 0.24025 0.0
H525 H 0.73318 -0.01075 0.23134 0.0
C526 C 0.76556 0.01116 0.23495 0.0
C527 C 0.78277 0.02128 0.23876 0.0
C528 C 0.75826 -0.00603 0.24075 0.0
C529 C 0.79263 0.01402 0.24914 0.0
C530 C 0.78547 -0.00313 0.25403 0.0
C531 C 0.76098 0.96946 0.25341 0.0
C532 C 0.74374 0.95941 0.25016 0.0
C533 C 0.7683 -0.01328 0.24947 0.0
C534 C 0.73389 0.9668 0.24288 0.0
C535 C 0.74108 0.9839 0.23772 0.0
H536 H 0.95242 0.77046 0.25865 0.0
H537 H 0.94824 0.72244 0.24186 0.0
H538 H -0.02177 0.73501 0.24578 0.0
H539 H 0.00563 0.75961 0.25368 0.0
H540 H 0.01003 0.80781 0.26462 0.0
H541 H -0.02002 0.79523 0.26302 0.0
C542 C 0.9581 0.76277 0.25609 0.0
C543 C 0.94816 0.74555 0.25034 0.0
C544 C 0.97537 0.77011 0.25709 0.0
C545 C 0.95565 0.73573 0.24625 0.0
C546 C 0.97279 0.7429 0.24854 0.0
C547 C 1e-05 0.76736 0.25575 0.0
C548 C 0.01002 0.7846 0.25954 0.0
C549 C -0.01723 0.76007 0.25387 0.0
C550 C 0.00257 0.7945 0.26155 0.0
C551 C -0.0146 0.78731 0.26081 0.0
H552 H 0.75667 0.73722 0.74907 0.0
H553 H 0.8062 0.77818 0.76831 0.0
H554 H 0.79561 0.7975 0.76687 0.0
H555 H 0.77217 0.80267 0.76005 0.0
H556 H 0.72272 0.76134 0.74305 0.0
H557 H 0.73343 0.74227 0.7438 0.0
C558 C 0.76518 0.75037 0.75283 0.0
C559 C 0.78219 0.75626 0.75857 0.0
C560 C 0.75901 0.76135 0.75246 0.0
C561 C 0.79303 0.77334 0.76381 0.0
C562 C 0.78699 0.78439 0.76297 0.0
C563 C 0.76375 0.78949 0.75652 0.0
C564 C 0.74667 0.78346 0.75142 0.0
C565 C 0.76999 0.77853 0.75732 0.0
C566 C 0.73592 0.76634 0.74711 0.0
C567 C 0.74202 0.7554 0.74745 0.0
H568 H 0.19252 0.01203 0.73348 0.0
H569 H 0.2399 0.0147 0.71961 0.0
H570 H 0.22674 -0.01522 0.73092 0.0
H571 H 0.20184 0.95788 0.74458 0.0
H572 H 0.15423 0.95482 0.75352 0.0
H573 H 0.16739 -0.01514 0.74415 0.0
C574 C 0.19994 0.00604 0.7331 0.0
C575 C 0.21716 0.01556 0.72598 0.0
C576 C 0.19226 -0.01122 0.73861 0.0
C577 C 0.22662 0.00764 0.72492 0.0
C578 C 0.21911 -0.00946 0.73146 0.0
C579 C 0.19434 0.96379 0.74458 0.0
C580 C 0.1771 0.95416 0.75003 0.0
C581 C 0.20195 0.98099 0.73831 0.0
C582 C 0.16754 0.96197 0.74931 0.0
C583 C 0.17505 0.97914 0.74407 0.0
H584 H 0.00421 0.19568 0.74502 0.0
H585 H 0.01025 0.24432 0.72149 0.0
H586 H -0.01963 0.23264 0.72053 0.0
H587 H 0.95255 0.20858 0.72288 0.0
H588 H 0.94624 0.15997 0.75058 0.0
H589 H 0.97619 0.17166 0.75399 0.0
C590 C -0.00104 0.2037 0.73979 0.0
C591 C 0.00942 0.22082 0.73283 0.0
C592 C -0.01826 0.19692 0.74013 0.0
C593 C 0.00247 0.2311 0.72688 0.0
C594 C -0.01462 0.22443 0.72623 0.0
C595 C 0.95773 0.20055 0.72998 0.0
C596 C 0.94721 0.18343 0.73603 0.0
C597 C 0.97491 0.20736 0.73233 0.0
C598 C 0.95409 0.1732 0.74586 0.0
C599 C 0.97121 0.17987 0.74756 0.0
H600 H 0.86331 0.5627 0.57447 0.0
H601 H 0.81564 0.52084 0.53202 0.0
H602 H 0.8279 0.503 0.52647 0.0
H603 H 0.85204 0.49914 0.53786 0.0
H604 H 0.89972 0.54131 0.57804 0.0
H605 H 0.88756 0.55917 0.58016 0.0
C606 C 0.8556 0.54968 0.56374 0.0
C607 C 0.83858 0.54308 0.55411 0.0
C608 C 0.86272 0.53954 0.56042 0.0
C609 C 0.82879 0.52622 0.53966 0.0
C610 C 0.83578 0.51601 0.53666 0.0
C611 C 0.85976 0.51224 0.54687 0.0
C612 C 0.87673 0.51886 0.55818 0.0
C613 C 0.85271 0.5225 0.54764 0.0
C614 C 0.88661 0.53589 0.56924 0.0
C615 C 0.87967 0.54612 0.57057 0.0
H616 H 0.39153 0.28389 0.61722 0.0
H617 H 0.43408 0.27977 0.56623 0.0
H618 H 0.45101 0.30991 0.56244 0.0
H619 H 0.4536 0.33752 0.5732 0.0
H620 H 0.41042 0.34106 0.61908 0.0
H621 H 0.39391 0.31107 0.62592 0.0
C622 C 0.40451 0.28956 0.60523 0.0
C623 C 0.41154 0.27961 0.59214 0.0
C624 C 0.41408 0.30682 0.6026 0.0
C625 C 0.42835 0.28716 0.57629 0.0
C626 C 0.43805 0.30439 0.57436 0.0
C627 C 0.44061 0.33169 0.5852 0.0
C628 C 0.43325 0.34147 0.59597 0.0
C629 C 0.43105 0.31436 0.58755 0.0
C630 C 0.41636 0.33378 0.61056 0.0
C631 C 0.4069 0.31664 0.61442 0.0
H632 H 0.67504 0.09611 0.56775 0.0
H633 H 0.6813 0.14423 0.52752 0.0
H634 H 0.65145 0.13215 0.51583 0.0
H635 H 0.62347 0.10801 0.52142 0.0
H636 H 0.61749 0.05987 0.55914 0.0
H637 H 0.64733 0.07187 0.56712 0.0
C638 C 0.66988 0.10395 0.55618 0.0
C639 C 0.68035 0.12105 0.549 0.0
C640 C 0.65275 0.09692 0.5492 0.0
C641 C 0.6735 0.13102 0.53334 0.0
C642 C 0.65643 0.12413 0.52681 0.0
C643 C 0.62871 0.10014 0.53107 0.0
C644 C 0.61826 0.08309 0.54008 0.0
C645 C 0.64592 0.10711 0.53531 0.0
C646 C 0.62525 0.07303 0.55205 0.0
C647 C 0.64232 0.07989 0.55679 0.0
H648 H 0.42152 0.06701 0.04704 0.0
H649 H 0.46859 0.11194 0.0515 0.0
H650 H 0.45469 0.12815 0.0634 0.0
H651 H 0.42909 0.12949 0.07438 0.0
H652 H 0.38221 0.08432 0.07641 0.0
H653 H 0.39609 0.06829 0.05993 0.0
C654 C 0.42874 0.08036 0.05038 0.0
C655 C 0.44605 0.08827 0.04818 0.0
C656 C 0.42069 0.08956 0.05841 0.0
C657 C 0.45524 0.10555 0.05321 0.0
C658 C 0.4473 0.11483 0.05991 0.0
C659 C 0.42194 0.11615 0.07083 0.0
C660 C 0.40466 0.1081 0.07635 0.0
C661 C 0.43003 0.10696 0.06277 0.0
C662 C 0.39554 0.09079 0.07244 0.0
C663 C 0.40345 0.08161 0.06297 0.0
H664 H 0.86997 0.28842 0.07535 0.0
H665 H 0.82215 0.28389 0.04634 0.0
H666 H 0.8348 0.31396 0.04248 0.0
H667 H 0.85947 0.34159 0.04931 0.0
H668 H 0.90735 0.34587 0.07287 0.0
H669 H 0.89465 0.31585 0.07719 0.0
C670 C 0.86232 0.29401 0.06799 0.0
C671 C 0.84515 0.28396 0.06145 0.0
C672 C 0.86968 0.31126 0.06519 0.0
C673 C 0.83541 0.29137 0.05135 0.0
C674 C 0.84262 0.30856 0.04941 0.0
C675 C 0.86709 0.33592 0.05559 0.0
C676 C 0.88429 0.34591 0.06129 0.0
C677 C 0.85974 0.31863 0.05671 0.0
C678 C 0.89407 0.33843 0.06844 0.0
C679 C 0.88682 0.32127 0.07093 0.0
H680 H 0.61139 0.5322 0.06462 0.0
H681 H 0.60607 0.48412 0.09686 0.0
H682 H 0.63604 0.49629 0.09967 0.0
H683 H 0.66375 0.52053 0.09122 0.0
H684 H 0.66907 0.56874 0.063 0.0
H685 H 0.6391 0.55659 0.06055 0.0
C686 C 0.6168 0.52439 0.07228 0.0
C687 C 0.60654 0.50728 0.08016 0.0
C688 C 0.63403 0.53149 0.07456 0.0
C689 C 0.61371 0.49733 0.09069 0.0
C690 C 0.63084 0.50428 0.09219 0.0
C691 C 0.65835 0.52837 0.08459 0.0
C692 C 0.66861 0.54549 0.07697 0.0
C693 C 0.64112 0.52132 0.0839 0.0
C694 C 0.66144 0.55552 0.06902 0.0
C695 C 0.6443 0.54858 0.06748 0.0
H696 H 0.52948 0.90299 0.91916 0.0
H697 H 0.4815 0.85933 0.907 0.0
H698 H 0.49441 0.84214 0.89749 0.0
H699 H 0.51944 0.83955 0.89284 0.0
H700 H 0.5673 0.88351 0.90094 0.0
H701 H 0.55432 0.90051 0.91194 0.0
C702 C 0.52183 0.88971 0.91448 0.0
C703 C 0.50456 0.88245 0.91403 0.0
C704 C 0.52933 0.87994 0.90837 0.0
C705 C 0.49484 0.86523 0.90741 0.0
C706 C 0.50221 0.85539 0.90209 0.0
C707 C 0.527 0.85285 0.89718 0.0
C708 C 0.5443 0.86025 0.89629 0.0
C709 C 0.51945 0.86261 0.90261 0.0
C710 C 0.55395 0.8775 0.90138 0.0
C711 C 0.54655 0.88725 0.90774 0.0
H712 H 0.09703 0.62039 0.90447 0.0
H713 H 0.04953 0.6176 0.91174 0.0
H714 H 0.0626 0.64738 0.89644 0.0
H715 H 0.08749 0.67428 0.88348 0.0
H716 H 0.13525 0.6776 0.8819 0.0
H717 H 0.12216 0.64759 0.89262 0.0
C718 C 0.08957 0.62631 0.90226 0.0
C719 C 0.07234 0.61681 0.90903 0.0
C720 C 0.09721 0.64354 0.89481 0.0
C721 C 0.06282 0.62465 0.90681 0.0
C722 C 0.07028 0.64168 0.89805 0.0
C723 C 0.09504 0.66844 0.88526 0.0
C724 C 0.11231 0.67814 0.88175 0.0
C725 C 0.08746 0.65126 0.89242 0.0
C726 C 0.12193 0.6704 0.88467 0.0
C727 C 0.11445 0.65324 0.89068 0.0
H728 H 0.28558 0.44556 0.90555 0.0
H729 H 0.28257 0.39832 0.93391 0.0
H730 H 0.31254 0.41166 0.93927 0.0
H731 H 0.33948 0.43645 0.93416 0.0
H732 H 0.34323 0.48385 0.90201 0.0
H733 H 0.31307 0.47073 0.89927 0.0
C734 C 0.29153 0.43825 0.91341 0.0
C735 C 0.2819 0.421 0.91957 0.0
C736 C 0.30885 0.44599 0.91518 0.0
C737 C 0.28972 0.41162 0.92894 0.0
C738 C 0.30685 0.41922 0.93195 0.0
C739 C 0.33374 0.44395 0.92653 0.0
C740 C 0.34357 0.4611 0.91839 0.0
C741 C 0.31651 0.43635 0.92471 0.0
C742 C 0.33591 0.47061 0.90821 0.0
C743 C 0.31868 0.46312 0.90687 0.0
H744 H 0.09783 0.46953 0.42372 0.0
H745 H 0.05136 0.42418 0.40907 0.0
H746 H 0.06581 0.40848 0.39975 0.0
H747 H 0.0916 0.40756 0.39774 0.0
H748 H 0.13808 0.45263 0.4194 0.0
H749 H 0.12371 0.46851 0.42443 0.0
C750 C 0.09091 0.45623 0.41799 0.0
C751 C 0.07359 0.44801 0.41664 0.0
C752 C 0.09929 0.44723 0.41441 0.0
C753 C 0.06472 0.43076 0.41022 0.0
C754 C 0.07297 0.42177 0.40493 0.0
C755 C 0.09858 0.42086 0.40352 0.0
C756 C 0.11587 0.42892 0.40804 0.0
C757 C 0.09024 0.42987 0.40737 0.0
C758 C 0.12475 0.44614 0.41606 0.0
C759 C 0.11655 0.45523 0.41871 0.0
H760 H 0.53622 0.63072 0.42376 0.0
H761 H 0.48824 0.62653 0.40654 0.0
H762 H 0.50103 0.65648 0.39708 0.0
H763 H 0.52587 0.6839 0.39331 0.0
H764 H 0.57389 0.68799 0.40495 0.0
H765 H 0.56109 0.65808 0.41708 0.0
C766 C 0.52858 0.63638 0.41801 0.0
C767 C 0.51132 0.62643 0.41606 0.0
C768 C 0.53602 0.6536 0.41165 0.0
C769 C 0.50157 0.63391 0.40803 0.0
C770 C 0.50886 0.65105 0.40276 0.0
C771 C 0.53351 0.67824 0.39874 0.0
C772 C 0.55079 0.68813 0.39855 0.0
C773 C 0.52608 0.66101 0.40451 0.0
C774 C 0.56055 0.68062 0.40489 0.0
C775 C 0.55325 0.66353 0.41188 0.0
H776 H 0.33795 0.86996 0.40643 0.0
H777 H 0.33786 0.91617 0.40964 0.0
H778 H 0.30797 0.9015 0.39523 0.0
H779 H 0.28187 0.87559 0.38252 0.0
H780 H 0.28166 0.82924 0.38399 0.0
H781 H 0.31167 0.84392 0.39581 0.0
C782 C 0.33138 0.87681 0.40378 0.0
C783 C 0.34011 0.89412 0.40887 0.0
C784 C 0.31416 0.86828 0.39643 0.0
C785 C 0.33143 0.90283 0.40594 0.0
C786 C 0.31434 0.89446 0.39764 0.0
C787 C 0.2884 0.8687 0.38524 0.0
C788 C 0.27957 0.85136 0.38212 0.0
C789 C 0.30559 0.87719 0.39293 0.0
C790 C 0.28817 0.84259 0.38633 0.0
C791 C 0.30533 0.85098 0.39301 0.0
H792 H 0.08235 0.2555 0.95632 0.0
H793 H 0.08954 0.21878 0.86027 0.0
H794 H 0.10373 0.21615 0.9525 0.0
H795 H 0.11555 0.22548 0.05828 0.0
H796 H 0.10778 0.26185 0.15474 0.0
H797 H 0.09225 0.26321 0.06506 0.0
C798 C 0.08694 0.24686 0.95575 0.0
C799 C 0.08503 0.23748 0.90137 0.0
C800 C 0.09501 0.24533 0.0091 0.0
C801 C 0.09089 0.2262 0.90155 0.0
C802 C 0.09903 0.22469 0.95424 0.0
C803 C 0.11031 0.23357 0.06001 0.0
C804 C 0.113 0.24364 0.11313 0.0
C805 C 0.10137 0.23436 0.00802 0.0
C806 C 0.10601 0.25398 0.11451 0.0
C807 C 0.09714 0.25484 0.06307 0.0
H808 H 0.70411 0.84409 0.13782 0.0
H809 H 0.74659 0.8916 0.0981 0.0
H810 H 0.75159 0.88065 0.00092 0.0
H811 H 0.74266 0.85812 0.92339 0.0
H812 H 0.69938 0.81113 0.96169 0.0
H813 H 0.69596 0.82137 0.06326 0.0
C814 C 0.71462 0.85203 0.10848 0.0
C815 C 0.72493 0.86867 0.12529 0.0
C816 C 0.71718 0.84578 0.05198 0.0
C817 C 0.73842 0.87875 0.0863 0.0
C818 C 0.74126 0.87252 0.03058 0.0
C819 C 0.73257 0.85009 0.95422 0.0
C820 C 0.72124 0.83392 0.93482 0.0
C821 C 0.73052 0.85614 0.0123 0.0
C822 C 0.70821 0.82366 0.97528 0.0
C823 C 0.70625 0.8295 0.03343 0.0
H824 H 0.12724 0.85171 0.15471 0.0
H825 H 0.0813 0.85113 0.12233 0.0
H826 H 0.09318 0.86893 0.03034 0.0
H827 H 0.11573 0.88251 0.9537 0.0
H828 H 0.16114 0.88185 0.98326 0.0
H829 H 0.15038 0.8668 0.08201 0.0
C830 C 0.11989 0.85567 0.12818 0.0
C831 C 0.10336 0.84999 0.14527 0.0
C832 C 0.12666 0.86558 0.07444 0.0
C833 C 0.09402 0.85523 0.11008 0.0
C834 C 0.10079 0.86538 0.05734 0.0
C835 C 0.12336 0.87926 0.98213 0.0
C836 C 0.13917 0.88319 0.96088 0.0
C837 C 0.11696 0.8703 0.03822 0.0
C838 C 0.14888 0.87888 -0.00169 0.0
C839 C 0.14273 0.87025 0.05477 0.0
H840 H 0.25889 0.08922 0.48515 0.0
H841 H 0.21352 0.08605 0.54904 0.0
H842 H 0.21341 0.10183 0.45732 0.0
H843 H 0.22741 0.11845 0.36359 0.0
H844 H 0.27262 0.12124 0.29927 0.0
H845 H 0.27145 0.10358 0.38606 0.0
C846 C 0.24889 0.09184 0.47864 0.0
C847 C 0.23635 0.08663 0.52422 0.0
C848 C 0.2489 0.10093 0.42583 0.0
C849 C 0.22337 0.08996 0.51478 0.0
C850 C 0.22332 0.09904 0.46243 0.0
C851 C 0.23692 0.11506 0.36814 0.0
C852 C 0.25017 0.12134 0.32526 0.0
C853 C 0.23621 0.10489 0.41835 0.0
C854 C 0.26228 0.11665 0.33159 0.0
C855 C 0.26168 0.10658 0.38141 0.0
H856 H 0.84732 0.09928 0.36182 0.0
H857 H 0.84725 0.14262 0.29086 0.0
H858 H 0.86457 0.15884 0.37871 0.0
H859 H 0.8778 0.16018 0.48039 0.0
H860 H 0.87803 0.11688 0.55086 0.0
H861 H 0.86275 0.10128 0.45824 0.0
C862 C 0.85122 0.1123 0.36522 0.0
C863 C 0.84582 0.11964 0.32018 0.0
C864 C 0.86116 0.12158 0.41597 0.0
C865 C 0.85116 0.13661 0.32493 0.0
C866 C 0.86103 0.14591 0.37531 0.0
C867 C 0.87467 0.14739 0.47512 0.0
C868 C 0.87887 0.13967 0.52283 0.0
C869 C 0.86581 0.13844 0.42182 0.0
C870 C 0.87487 0.12312 0.51501 0.0
C871 C 0.86608 0.11415 0.46213 0.0
H872 H 0.84763 0.73257 0.60971 0.0
H873 H 0.79833 0.70587 0.5336 0.0
H874 H 0.8094 0.70444 0.43074 0.0
H875 H 0.83304 0.70996 0.36345 0.0
H876 H 0.88237 0.73698 0.43972 0.0
H877 H 0.87131 0.73923 0.54109 0.0
C878 C 0.83931 0.72645 0.57059 0.0
C879 C 0.82218 0.71923 0.5794 0.0
C880 C 0.84576 0.72577 0.51148 0.0
C881 C 0.81157 0.71148 0.5281 0.0
C882 C 0.81789 0.71066 0.46925 0.0
C883 C 0.8414 0.71647 0.40203 0.0
C884 C 0.85852 0.72322 0.39379 0.0
C885 C 0.83496 0.71767 0.4605 0.0
C886 C 0.86914 0.73164 0.44447 0.0
C887 C 0.86283 0.7329 0.50268 0.0
H888 H 0.85409 0.72934 0.85952 0.0
H889 H 0.82869 0.74822 0.97188 0.0
H890 H 0.84618 0.75117 0.06277 0.0
H891 H 0.86637 0.7452 0.11327 0.0
H892 H 0.88872 0.7224 0.0048 0.0
H893 H 0.87496 0.72421 0.90923 0.0
C894 C 0.85274 0.73449 0.90357 0.0
C895 C 0.8404 0.73882 0.90928 0.0
C896 C 0.86217 0.73522 0.95637 0.0
C897 C 0.8383 0.74501 0.96673 0.0
C898 C 0.84821 0.74659 0.01861 0.0
C899 C 0.86846 0.74096 0.06835 0.0
C900 C 0.87858 0.73378 0.06559 0.0
C901 C 0.85986 0.74129 0.01449 0.0
C902 C 0.88096 0.72798 0.00767 0.0
C903 C 0.87308 0.72899 0.95319 0.0
H904 H 0.25878 0.13284 0.8179 0.0
H905 H 0.21763 0.08551 0.87018 0.0
H906 H 0.21337 0.09766 0.96537 0.0
H907 H 0.22289 0.12108 0.03826 0.0
H908 H 0.26491 0.16801 0.98837 0.0
H909 H 0.26717 0.15666 0.88743 0.0
C910 C 0.24871 0.12521 0.84956 0.0
C911 C 0.23861 0.10826 0.83704 0.0
C912 C 0.24657 0.13218 0.90494 0.0
C913 C 0.22566 0.09857 0.8788 0.0
C914 C 0.22323 0.1055 0.93334 0.0
C915 C 0.23242 0.12889 0.005 0.0
C916 C 0.2438 0.14533 0.02102 0.0
C917 C 0.23386 0.12219 0.94762 0.0
C918 C 0.25607 0.15528 0.97737 0.0
C919 C 0.25738 0.14879 0.91966 0.0
H920 H 0.80755 0.09067 0.97981 0.0
H921 H 0.85026 0.08961 0.05188 0.0
H922 H 0.86609 0.10451 0.95908 0.0
H923 H 0.86851 0.11987 0.86202 0.0
H924 H 0.82574 0.12076 0.78944 0.0
H925 H 0.80925 0.10378 0.87747 0.0
C926 C 0.82027 0.09354 0.97485 0.0
C927 C 0.82776 0.08922 0.02305 0.0
C928 C 0.82934 0.10217 0.92143 0.0
C929 C 0.84421 0.09287 0.01565 0.0
C930 C 0.8533 0.10144 0.96266 0.0
C931 C 0.85554 0.11622 0.86509 0.0
C932 C 0.84845 0.12177 0.81955 0.0
C933 C 0.84611 0.10648 0.91597 0.0
C934 C 0.83156 0.11674 0.82389 0.0
C935 C 0.82211 0.10706 0.8744 0.0
H936 H 0.74782 0.89281 0.43803 0.0
H937 H 0.69783 0.88168 0.47414 0.0
H938 H 0.69719 0.867 0.5703 0.0
H939 H 0.70973 0.85502 0.63798 0.0
H940 H 0.75925 0.86498 0.60003 0.0
H941 H 0.76127 0.88267 0.51141 0.0
C942 C 0.73686 0.88734 0.46734 0.0
C943 C 0.72283 0.88818 0.4485 0.0
C944 C 0.73647 0.87868 0.52218 0.0
C945 C 0.70875 0.8811 0.48721 0.0
C946 C 0.70836 0.8727 0.54224 0.0
C947 C 0.72109 0.86128 0.61108 0.0
C948 C 0.73427 0.85857 0.62536 0.0
C949 C 0.722 0.87107 0.55931 0.0
C950 C 0.7489 0.86681 0.58998 0.0
C951 C 0.75002 0.87686 0.53906 0.0
H952 H 0.08031 0.84569 0.45302 0.0
H953 H 0.08417 0.80197 0.48313 0.0
H954 H 0.09831 0.81316 0.58322 0.0
H955 H 0.1117 0.83632 0.65713 0.0
H956 H 0.1091 0.88065 0.62428 0.0
H957 H 0.09215 0.86815 0.53074 0.0
C958 C 0.08408 0.83852 0.48179 0.0
C959 C 0.08131 0.82308 0.46036 0.0
C960 C 0.09247 0.84516 0.53873 0.0
C961 C 0.08625 0.81394 0.4983 0.0
C962 C 0.09434 0.82034 0.55555 0.0
C963 C 0.1072 0.84317 0.63021 0.0
C964 C 0.11176 0.85945 0.64761 0.0
C965 C 0.09783 0.83608 0.57555 0.0
C966 C 0.10587 0.86814 0.61184 0.0
C967 C 0.09621 0.86102 0.55819 0.0
H968 H 0.08152 0.21622 0.56005 0.0
H969 H 0.12041 0.26228 0.63432 0.0
H970 H 0.13939 0.26265 0.55474 0.0
H971 H 0.14426 0.25132 0.45812 0.0
H972 H 0.10545 0.20541 0.38274 0.0
H973 H 0.08726 0.20348 0.46898 0.0
C974 C 0.0942 0.22622 0.55932 0.0
C975 C 0.09945 0.23929 0.60261 0.0
C976 C 0.10508 0.22645 0.51295 0.0
C977 C 0.11597 0.25211 0.60128 0.0
C978 C 0.12686 0.25237 0.55567 0.0
C979 C 0.1319 0.24078 0.461 0.0
C980 C 0.12617 0.22865 0.41366 0.0
C981 C 0.12144 0.23982 0.51034 0.0
C982 C 0.11015 0.21499 0.41837 0.0
C983 C 0.0997 0.21389 0.46758 0.0
H984 H 0.77799 0.55783 0.41437 0.0
H985 H 0.77117 0.59674 0.49305 0.0
H986 H 0.75438 0.59521 0.40243 0.0
H987 H 0.74307 0.58407 0.29765 0.0
H988 H 0.7498 0.54513 0.21919 0.0
H989 H 0.76512 0.54542 0.31301 0.0
C990 C 0.77273 0.56589 0.41205 0.0
C991 C 0.77598 0.57747 0.46035 0.0
C992 C 0.76313 0.56502 0.3596 0.0
C993 C 0.76893 0.58773 0.4566 0.0
C994 C 0.75935 0.58691 0.40463 0.0
C995 C 0.74779 0.57557 0.30129 0.0
C996 C 0.74541 0.5647 0.2513 0.0
C997 C 0.75661 0.57581 0.35536 0.0
C998 C 0.7515 0.55367 0.25692 0.0
C999 C 0.7603 0.55384 0.31051 0.0
H1000 H 0.36462 0.13864 0.33815 0.0
H1001 H 0.40916 0.18033 0.26721 0.0
H1002 H 0.41006 0.19672 0.35839 0.0
H1003 H 0.39703 0.19989 0.45419 0.0
H1004 H 0.35272 0.158 0.52574 0.0
H1005 H 0.35301 0.14107 0.43881 0.0
C1006 C 0.37463 0.15125 0.34301 0.0
C1007 C 0.38668 0.15829 0.29559 0.0
C1008 C 0.37507 0.16065 0.39552 0.0
C1009 C 0.39966 0.17461 0.30287 0.0
C1010 C 0.40016 0.18403 0.35492 0.0
C1011 C 0.38752 0.18703 0.45105 0.0
C1012 C 0.3748 0.18032 0.49614 0.0
C1013 C 0.38774 0.17729 0.40087 0.0
C1014 C 0.36266 0.16355 0.49169 0.0
C1015 C 0.36277 0.15383 0.44183 0.0
H1016 H 0.81979 0.21435 0.31452 0.0
H1017 H 0.77694 0.21504 0.24179 0.0
H1018 H 0.76118 0.20029 0.33493 0.0
H1019 H 0.75886 0.18514 0.43244 0.0
H1020 H 0.80174 0.18459 0.50569 0.0
H1021 H 0.81819 0.20149 0.41735 0.0
C1022 C 0.80706 0.21143 0.3194 0.0
C1023 C 0.7995 0.2156 0.27093 0.0
C1024 C 0.79802 0.2029 0.37303 0.0
C1025 C 0.78304 0.21189 0.27823 0.0
C1026 C 0.77399 0.20341 0.33143 0.0
C1027 C 0.77184 0.18885 0.42946 0.0
C1028 C 0.77898 0.18342 0.47525 0.0
C1029 C 0.78124 0.19852 0.3784 0.0
C1030 C 0.79589 0.18853 0.47103 0.0
C1031 C 0.80531 0.19815 0.42036 0.0
H1032 H 0.91566 0.44878 0.67395 0.0
H1033 H 0.86654 0.43944 0.71608 0.0
H1034 H 0.86481 0.42186 0.80469 0.0
H1035 H 0.87854 0.41179 0.87715 0.0
H1036 H 0.92813 0.42229 0.83639 0.0
H1037 H 0.92834 0.43671 0.74018 0.0
C1038 C 0.90445 0.44268 0.70178 0.0
C1039 C 0.89131 0.44556 0.68874 0.0
C1040 C 0.90371 0.43296 0.75347 0.0
C1041 C 0.87686 0.43749 0.72518 0.0
C1042 C 0.8759 0.42751 0.77611 0.0
C1043 C 0.88931 0.41705 0.84678 0.0
C1044 C 0.90338 0.41614 0.86439 0.0
C1045 C 0.88945 0.42557 0.79185 0.0
C1046 C 0.9172 0.42294 0.82432 0.0
C1047 C 0.91734 0.4312 0.76925 0.0
H1048 H 0.5329 0.48104 0.84385 0.0
H1049 H 0.53291 0.43805 0.91885 0.0
H1050 H 0.51787 0.42205 0.82654 0.0
H1051 H 0.50289 0.41965 0.72823 0.0
H1052 H 0.50331 0.46282 0.65233 0.0
H1053 H 0.52013 0.47929 0.74053 0.0
C1054 C 0.52973 0.46822 0.83969 0.0
C1055 C 0.53386 0.46073 0.88854 0.0
C1056 C 0.52111 0.45905 0.78627 0.0
C1057 C 0.52982 0.44413 0.88211 0.0
C1058 C 0.52118 0.43493 0.82933 0.0
C1059 C 0.50682 0.4327 0.73051 0.0
C1060 C 0.50165 0.43988 0.68386 0.0
C1061 C 0.51649 0.44217 0.78164 0.0
C1062 C 0.50702 0.45688 0.68752 0.0
C1063 C 0.5166 0.46635 0.73819 0.0
H1064 H 0.51016 0.0469 0.65364 0.0
H1065 H 0.551 0.09554 0.69205 0.0
H1066 H 0.53582 0.09852 0.78037 0.0
H1067 H 0.51216 0.08606 0.85343 0.0
H1068 H 0.47188 0.037 0.81609 0.0
H1069 H 0.48561 0.03549 0.72056 0.0
C1070 C 0.51566 0.05828 0.68061 0.0
C1071 C 0.53176 0.07092 0.66652 0.0
C1072 C 0.50703 0.05976 0.73209 0.0
C1073 C 0.53865 0.0856 0.70193 0.0
C1074 C 0.53001 0.08727 0.7527 0.0
C1075 C 0.5063 0.07512 0.82395 0.0
C1076 C 0.4911 0.06158 0.84236 0.0
C1077 C 0.51438 0.07424 0.76932 0.0
C1078 C 0.48363 0.04754 0.80341 0.0
C1079 C 0.49148 0.04666 0.74873 0.0
H1080 H 0.5135 0.03879 0.15574 0.0
H1081 H 0.51072 0.08281 0.19359 0.0
H1082 H 0.52651 0.08734 0.29064 0.0
H1083 H 0.53964 0.07788 0.36808 0.0
H1084 H 0.54137 0.03324 0.332 0.0
H1085 H 0.52749 0.02991 0.23099 0.0
C1086 C 0.51652 0.0495 0.18472 0.0
C1087 C 0.51089 0.06042 0.16732 0.0
C1088 C 0.52531 0.05185 0.24117 0.0
C1089 C 0.51484 0.07417 0.20585 0.0
C1090 C 0.52385 0.07676 0.26149 0.0
C1091 C 0.53708 0.06749 0.33791 0.0
C1092 C 0.54147 0.05579 0.35772 0.0
C1093 C 0.5289 0.06553 0.28017 0.0
C1094 C 0.53806 0.04238 0.31807 0.0
C1095 C 0.53013 0.04047 0.26024 0.0
H1096 H 0.92351 0.46077 0.17826 0.0
H1097 H 0.88084 0.41322 0.21552 0.0
H1098 H 0.87568 0.42389 0.31309 0.0
H1099 H 0.8843 0.44623 0.39106 0.0
H1100 H 0.92775 0.49331 0.35554 0.0
H1101 H 0.93156 0.48329 0.25405 0.0
C1102 C 0.91294 0.45278 0.20719 0.0
C1103 C 0.90258 0.43621 0.18949 0.0
C1104 C 0.91027 0.45886 0.26393 0.0
C1105 C 0.88903 0.42602 0.228 0.0
C1106 C 0.88609 0.43209 0.28393 0.0
C1107 C 0.89454 0.45433 0.36091 0.0
C1108 C 0.90576 0.47047 0.38098 0.0
C1109 C 0.8968 0.44841 0.30291 0.0
C1110 C 0.91898 0.4808 0.3414 0.0
C1111 C 0.92117 0.47509 0.2833 0.0
H1112 H 0.5002 0.41205 0.39293 0.0
H1113 H 0.45367 0.40902 0.34819 0.0
H1114 H 0.46516 0.42384 0.24955 0.0
H1115 H 0.48907 0.43986 0.18132 0.0
H1116 H 0.53601 0.44414 0.22886 0.0
H1117 H 0.52366 0.42653 0.32087 0.0
C1118 C 0.4925 0.41443 0.36118 0.0
C1119 C 0.47615 0.40956 0.37806 0.0
C1120 C 0.4993 0.4233 0.3053 0.0
C1121 C 0.46634 0.41274 0.33644 0.0
C1122 C 0.4729 0.42124 0.2801 0.0
C1123 C 0.49657 0.43678 0.21127 0.0
C1124 C 0.51348 0.44344 0.19844 0.0
C1125 C 0.48948 0.42693 0.26484 0.0
C1126 C 0.52299 0.4393 0.23787 0.0
C1127 C 0.51594 0.42923 0.29057 0.0
H1128 H 0.36836 0.2106 0.84115 0.0
H1129 H 0.40927 0.20724 0.7628 0.0
H1130 H 0.4098 0.19201 0.85551 0.0
H1131 H 0.3971 0.17758 0.95442 0.0
H1132 H 0.35631 0.18116 0.03301 0.0
H1133 H 0.35744 0.1985 0.94505 0.0
C1134 C 0.3775 0.20668 0.84469 0.0
C1135 C 0.3886 0.20985 0.79483 0.0
C1136 C 0.37773 0.19789 0.89806 0.0
C1137 C 0.40051 0.20488 0.80039 0.0
C1138 C 0.4008 0.19612 0.85333 0.0
C1139 C 0.38858 0.1823 0.9527 0.0
C1140 C 0.37652 0.17788 -8e-05 0.0
C1141 C 0.38923 0.19223 0.90178 0.0
C1142 C 0.36569 0.18428 -0.00275 0.0
C1143 C 0.36627 0.19416 0.94679 0.0
H1144 H 0.74917 0.14485 0.81344 0.0
H1145 H 0.74906 0.18813 0.74216 0.0
H1146 H 0.7646 0.20388 0.83419 0.0
H1147 H 0.78018 0.20598 0.93044 0.0
H1148 H 0.78004 0.16259 0.00215 0.0
H1149 H 0.76256 0.1463 0.91479 0.0
C1150 C 0.75238 0.15768 0.81841 0.0
C1151 C 0.74814 0.16534 0.77063 0.0
C1152 C 0.76138 0.1667 0.87136 0.0
C1153 C 0.75225 0.18193 0.77807 0.0
C1154 C 0.76119 0.19098 0.83061 0.0
C1155 C 0.77621 0.19293 0.92729 0.0
C1156 C 0.78159 0.1856 0.97246 0.0
C1157 C 0.76615 0.1836 0.87683 0.0
C1158 C 0.77615 0.16861 0.968 0.0
C1159 C 0.76618 0.15926 0.9179 0.0
H1160 H 0.77532 0.57978 0.96317 0.0
H1161 H 0.73246 0.5346 0.90366 0.0
H1162 H 0.74801 0.53238 0.81512 0.0
H1163 H 0.77286 0.5448 0.74875 0.0
H1164 H 0.81532 0.59054 0.80655 0.0
H1165 H 0.80087 0.59091 0.90193 0.0
C1166 C 0.76944 0.56931 0.9314 0.0
C1167 C 0.75272 0.55746 0.93965 0.0
C1168 C 0.77834 0.56828 0.87996 0.0
C1169 C 0.7453 0.54394 0.89817 0.0
C1170 C 0.75416 0.54269 0.8474 0.0
C1171 C 0.77903 0.55473 0.78262 0.0
C1172 C 0.79506 0.56772 0.77019 0.0
C1173 C 0.77055 0.55502 0.83689 0.0
C1174 C 0.80292 0.58045 0.81472 0.0
C1175 C 0.79467 0.5807 0.86926 0.0
H1176 H 0.4093 0.89575 0.61302 0.0
H1177 H 0.40839 0.9404 0.65813 0.0
H1178 H 0.42189 0.9423 0.75887 0.0
H1179 H 0.43633 0.93286 0.829 0.0
H1180 H 0.43894 0.88923 0.78121 0.0
H1181 H 0.42224 0.88525 0.68712 0.0
C1182 C 0.41183 0.90575 0.64534 0.0
C1183 C 0.40795 0.91798 0.62797 0.0
C1184 C 0.42 0.90701 0.70255 0.0
C1185 C 0.41137 0.9309 0.67022 0.0
C1186 C 0.4191 0.932 0.72781 0.0
C1187 C 0.43303 0.92231 0.79866 0.0
C1188 C 0.43897 0.91142 0.81206 0.0
C1189 C 0.42383 0.92036 0.74375 0.0
C1190 C 0.43461 0.89786 0.7719 0.0
C1191 C 0.42509 0.89559 0.71796 0.0
H1192 H 0.06562 0.53949 0.78733 0.0
H1193 H 0.0255 0.49561 0.87015 0.0
H1194 H 0.02597 0.47914 0.78192 0.0
H1195 H 0.03601 0.47758 0.67656 0.0
H1196 H 0.0764 0.52126 0.59429 0.0
H1197 H 0.07765 0.53733 0.68709 0.0
C1198 C 0.05711 0.5263 0.78645 0.0
C1199 C 0.04542 0.51888 0.83495 0.0
C1200 C 0.0574 0.51684 0.73541 0.0
C1201 C 0.03461 0.50171 0.83339 0.0
C1202 C 0.0348 0.49225 0.78277 0.0
C1203 C 0.0452 0.49057 0.6793 0.0
C1204 C 0.05593 0.49825 0.62832 0.0
C1205 C 0.04587 0.49975 0.7328 0.0
C1206 C 0.06793 0.51505 0.6328 0.0
C1207 C 0.06862 0.52428 0.68578 0.0
H1208 H 0.42392 0.52586 0.78287 0.0
H1209 H 0.46499 0.52062 0.84697 0.0
H1210 H 0.48175 0.53759 0.75951 0.0
H1211 H 0.48411 0.55209 0.6599 0.0
H1212 H 0.44319 0.55765 0.59655 0.0
H1213 H 0.42716 0.54254 0.68864 0.0
C1214 C 0.43659 0.52857 0.77814 0.0
C1215 C 0.44308 0.52179 0.8212 0.0
C1216 C 0.44621 0.53833 0.72751 0.0
C1217 C 0.4596 0.52559 0.81454 0.0
C1218 C 0.46922 0.53527 0.76431 0.0
C1219 C 0.47175 0.55014 0.6666 0.0
C1220 C 0.46482 0.55583 0.621 0.0
C1221 C 0.46255 0.54141 0.71976 0.0
C1222 C 0.44883 0.55334 0.63071 0.0
C1223 C 0.43961 0.54465 0.68334 0.0
H1224 H 0.58588 0.78409 0.98154 0.0
H1225 H 0.5429 0.7877 0.03057 0.0
H1226 H 0.53862 0.7707 0.12409 0.0
H1227 H 0.54888 0.75741 0.19797 0.0
H1228 H 0.59296 0.75563 0.15124 0.0
H1229 H 0.59491 0.76919 0.05066 0.0
C1230 C 0.5754 0.78095 0.01197 0.0
C1231 C 0.56481 0.78729 -0.00084 0.0
C1232 C 0.57329 0.77161 0.06657 0.0
C1233 C 0.55131 0.78308 0.0394 0.0
C1234 C 0.54888 0.7734 0.09306 0.0
C1235 C 0.55875 0.75975 0.16523 0.0
C1236 C 0.57084 0.75564 0.18216 0.0
C1237 C 0.56006 0.76799 0.10807 0.0
C1238 C 0.58359 0.7588 0.13949 0.0
C1239 C 0.58472 0.76657 0.08198 0.0
H1240 H 0.20925 0.78676 0.18108 0.0
H1241 H 0.20583 0.83068 0.1496 0.0
H1242 H 0.19144 0.81932 0.05011 0.0
H1243 H 0.17774 0.79603 0.97704 0.0
H1244 H 0.17982 0.75148 0.01122 0.0
H1245 H 0.19699 0.76407 0.10422 0.0
C1246 C 0.20553 0.79393 0.15209 0.0
C1247 C 0.2085 0.80949 0.17298 0.0
C1248 C 0.19696 0.78719 0.09552 0.0
C1249 C 0.2036 0.81862 0.13484 0.0
C1250 C 0.19535 0.81214 0.07794 0.0
C1251 C 0.18216 0.78914 0.00416 0.0
C1252 C 0.17741 0.77279 0.98725 0.0
C1253 C 0.19167 0.7963 0.05849 0.0
C1254 C 0.18321 0.76405 0.02327 0.0
C1255 C 0.193 0.77123 0.07661 0.0
H1256 H 0.20523 0.41602 0.04598 0.0
H1257 H 0.16122 0.37403 0.97277 0.0
H1258 H 0.14517 0.37581 0.05975 0.0
H1259 H 0.14412 0.38741 0.16228 0.0
H1260 H 0.18789 0.42952 0.23559 0.0
H1261 H 0.20345 0.42965 0.14268 0.0
C1262 C 0.19209 0.4074 0.04854 0.0
C1263 C 0.18454 0.39476 0.00329 0.0
C1264 C 0.18287 0.40841 0.09902 0.0
C1265 C 0.16743 0.38382 0.00704 0.0
C1266 C 0.15821 0.38478 0.05698 0.0
C1267 C 0.15702 0.39674 0.15753 0.0
C1268 C 0.1649 0.40828 0.20608 0.0
C1269 C 0.16589 0.39672 0.10413 0.0
C1270 C 0.18155 0.42044 0.19896 0.0
C1271 C 0.19048 0.42048 0.14596 0.0
H1272 H 0.21259 0.41901 0.71868 0.0
H1273 H 0.21609 0.37592 0.67008 0.0
H1274 H 0.20297 0.37417 0.56844 0.0
H1275 H 0.18821 0.38327 0.49824 0.0
H1276 H 0.18304 0.42524 0.55005 0.0
H1277 H 0.19928 0.42913 0.6454 0.0
C1278 C 0.21069 0.40936 0.68549 0.0
C1279 C 0.2152 0.39754 0.70201 0.0
C1280 C 0.20276 0.40818 0.62792 0.0
C1281 C 0.21262 0.3851 0.6586 0.0
C1282 C 0.20511 0.38408 0.60053 0.0
C1283 C 0.19085 0.39344 0.52981 0.0
C1284 C 0.18435 0.4039 0.5172 0.0
C1285 C 0.19978 0.39532 0.58538 0.0
C1286 C 0.18782 0.41695 0.55886 0.0
C1287 C 0.19707 0.41917 0.61344 0.0
H1288 H 0.54871 0.79069 0.69945 0.0
H1289 H 0.59073 0.83818 0.65609 0.0
H1290 H 0.59436 0.82752 0.55573 0.0
H1291 H 0.58718 0.80419 0.48506 0.0
H1292 H 0.54637 0.75613 0.53139 0.0
H1293 H 0.54059 0.76757 0.62546 0.0
C1294 C 0.55851 0.79876 0.66759 0.0
C1295 C 0.56948 0.81519 0.68526 0.0
C1296 C 0.5608 0.79242 0.61068 0.0
C1297 C 0.58219 0.82547 0.6437 0.0
C1298 C 0.58428 0.81938 0.58634 0.0
C1299 C 0.57684 0.79624 0.51512 0.0
C1300 C 0.56726 0.7793 0.50122 0.0
C1301 C 0.57389 0.80279 0.57001 0.0
C1302 C 0.554 0.76919 0.54108 0.0
C1303 C 0.5507 0.77572 0.59498 0.0
H1304 H 0.17415 0.75051 0.68134 0.0
H1305 H 0.12847 0.75048 0.64963 0.0
H1306 H 0.13924 0.76539 0.55063 0.0
H1307 H 0.1624 0.78049 0.47809 0.0
H1308 H 0.20861 0.78179 0.51245 0.0
H1309 H 0.19679 0.76418 0.60497 0.0
C1310 C 0.16648 0.75359 0.6524 0.0
C1311 C 0.15057 0.74949 0.6731 0.0
C1312 C 0.17287 0.76246 0.59612 0.0
C1313 C 0.14079 0.75358 0.63501 0.0
C1314 C 0.14695 0.76212 0.57839 0.0
C1315 C 0.16983 0.77673 0.50516 0.0
C1316 C 0.18641 0.78255 0.48843 0.0
C1317 C 0.16309 0.76693 0.55918 0.0
C1318 C 0.19585 0.77758 0.52437 0.0
C1319 C 0.18911 0.76753 0.57742 0.0
H1320 H 0.0346 0.5487 0.1738 0.0
H1321 H 0.07802 0.54909 0.10163 0.0
H1322 H 0.07843 0.53344 0.19327 0.0
H1323 H 0.06505 0.51761 0.28928 0.0
H1324 H 0.02183 0.51765 0.36177 0.0
H1325 H 0.02287 0.53524 0.27497 0.0
C1326 C 0.04427 0.54553 0.17852 0.0
C1327 C 0.05613 0.54988 0.13065 0.0
C1328 C 0.04442 0.53649 0.23119 0.0
C1329 C 0.06869 0.54585 0.13772 0.0
C1330 C 0.0689 0.53683 0.18999 0.0
C1331 C 0.05595 0.52159 0.28639 0.0
C1332 C 0.04328 0.51613 0.33161 0.0
C1333 C 0.0566 0.53175 0.23627 0.0
C1334 C 0.0317 0.52159 0.32758 0.0
C1335 C 0.03224 0.53163 0.27779 0.0
H1336 H 0.4144 0.52217 0.11612 0.0
H1337 H 0.4115 0.47544 0.15618 0.0
H1338 H 0.42521 0.48604 0.25738 0.0
H1339 H 0.44042 0.50937 0.32912 0.0
H1340 H 0.44463 0.55656 0.28624 0.0
H1341 H 0.42781 0.5449 0.19186 0.0
C1342 C 0.41658 0.51424 0.14733 0.0
C1343 C 0.41211 0.49811 0.12841 0.0
C1344 C 0.42477 0.52052 0.20481 0.0
C1345 C 0.41496 0.48796 0.16945 0.0
C1346 C 0.42281 0.49401 0.2273 0.0
C1347 C 0.43743 0.51705 0.29978 0.0
C1348 C 0.44389 0.53384 0.31445 0.0
C1349 C 0.42812 0.51039 0.24472 0.0
C1350 C 0.43992 0.54362 0.27575 0.0
C1351 C 0.43033 0.53698 0.22168 0.0
H1352 H 0.442 0.89306 0.11764 0.0
H1353 H 0.48958 0.93554 0.15577 0.0
H1354 H 0.47937 0.93993 0.25579 0.0
H1355 H 0.45628 0.93341 0.32702 0.0
H1356 H 0.40822 0.89193 0.28604 0.0
H1357 H 0.41931 0.88536 0.19305 0.0
C1358 C 0.4502 0.90312 0.14832 0.0
C1359 C 0.46648 0.91403 0.12914 0.0
C1360 C 0.44413 0.90583 0.2051 0.0
C1361 C 0.47694 0.92704 0.16928 0.0
C1362 C 0.47112 0.92958 0.22646 0.0
C1363 C 0.44827 0.92276 0.29841 0.0
C1364 C 0.43142 0.91325 0.31333 0.0
C1365 C 0.45462 0.9193 0.24408 0.0
C1366 C 0.42122 0.89954 0.27544 0.0
C1367 C 0.42754 0.89578 0.22215 0.0
H1368 H 0.20012 0.3215 0.94756 0.0
H1369 H 0.21557 0.36213 0.07742 0.0
H1370 H 0.20771 0.34313 0.16669 0.0
H1371 H 0.19306 0.31457 0.20686 0.0
H1372 H 0.17848 0.27411 0.0764 0.0
H1373 H 0.18963 0.29344 0.98874 0.0
C1374 C 0.20204 0.3262 -0.00455 0.0
C1375 C 0.20818 0.34312 0.00592 0.0
C1376 C 0.19754 0.31522 0.04653 0.0
C1377 C 0.21084 0.34913 0.06815 0.0
C1378 C 0.20625 0.33826 0.11924 0.0
C1379 C 0.19262 0.31001 0.15941 0.0
C1380 C 0.18469 0.29291 0.14822 0.0
C1381 C 0.19907 0.32121 0.1089 0.0
C1382 C 0.18443 0.2872 0.08651 0.0
C1383 C 0.19072 0.29825 0.03612 0.0
H1384 H 0.64581 0.87153 0.20339 0.0
H1385 H 0.6881 0.89629 0.08092 0.0
H1386 H 0.67 0.88937 0.98933 0.0
H1387 H 0.6423 0.87305 0.94301 0.0
H1388 H 0.59993 0.84928 0.0655 0.0
H1389 H 0.61787 0.85923 0.15805 0.0
C1390 C 0.65103 0.87568 0.15676 0.0
C1391 C 0.66825 0.88419 0.14882 0.0
C1392 C 0.64054 0.87172 0.10424 0.0
C1393 C 0.67487 0.88971 0.08831 0.0
C1394 C 0.66454 0.88566 0.0358 0.0
C1395 C 0.637 0.87035 0.99001 0.0
C1396 C 0.61987 0.86028 -0.00251 0.0
C1397 C 0.64738 0.87618 0.04302 0.0
C1398 C 0.6131 0.85702 0.05854 0.0
C1399 C 0.62336 0.86261 0.11151 0.0
H1400 H 0.09058 0.76052 0.93674 0.0
H1401 H 0.11328 0.73919 0.05204 0.0
H1402 H 0.1036 0.74643 0.14733 0.0
H1403 H 0.09243 0.76263 0.19752 0.0
H1404 H 0.06907 0.7833 0.08233 0.0
H1405 H 0.075 0.77228 0.98757 0.0
C1406 C 0.09306 0.75712 0.98271 0.0
C1407 C 0.10285 0.74957 0.98736 0.0
C1408 C 0.08749 0.76136 0.03738 0.0
C1409 C 0.1058 0.74503 0.04713 0.0
C1410 C 0.10037 0.74929 0.10174 0.0
C1411 C 0.08833 0.7644 0.15178 0.0
C1412 C 0.08057 0.77399 0.14683 0.0
C1413 C 0.09179 0.75804 0.09742 0.0
C1414 C 0.07509 0.77599 0.08743 0.0
C1415 C 0.07859 0.7698 0.03311 0.0
H1416 H 0.27918 0.18711 0.39059 0.0
H1417 H 0.31908 0.21096 0.25712 0.0
H1418 H 0.33888 0.22258 0.34361 0.0
H1419 H 0.3452 0.22205 0.45545 0.0
H1420 H 0.3055 0.19606 0.58831 0.0
H1421 H 0.28531 0.18944 0.50411 0.0
C1422 C 0.29215 0.19525 0.38049 0.0
C1423 C 0.29767 0.19807 0.31755 0.0
C1424 C 0.30355 0.20131 0.43045 0.0
C1425 C 0.31454 0.20851 0.3052 0.0
C1426 C 0.32588 0.2151 0.35464 0.0
C1427 C 0.33213 0.21529 0.46639 0.0
C1428 C 0.32689 0.20939 0.52802 0.0
C1429 C 0.32059 0.21099 0.41731 0.0
C1430 C 0.30988 0.20062 0.54118 0.0
C1431 C 0.29832 0.19677 0.49297 0.0
H1432 H 0.74298 0.11592 0.42371 0.0
H1433 H 0.7628 0.09697 0.56383 0.0
H1434 H 0.77122 0.08447 0.48093 0.0
H1435 H 0.77677 0.08275 0.36887 0.0
H1436 H 0.75942 0.10419 0.22907 0.0
H1437 H 0.746 0.11166 0.31142 0.0
C1438 C 0.74875 0.10869 0.43624 0.0
C1439 C 0.75236 0.10747 0.49983 0.0
C1440 C 0.75419 0.10215 0.3882 0.0
C1441 C 0.75998 0.09818 0.5152 0.0
C1442 C 0.76485 0.09109 0.46779 0.0
C1443 C 0.76969 0.08868 0.35621 0.0
C1444 C 0.76919 0.09301 0.29297 0.0
C1445 C 0.7626 0.09356 0.40408 0.0
C1446 C 0.76009 0.10082 0.27745 0.0
C1447 C 0.75246 0.10515 0.32456 0.0
H1448 H 0.88174 0.68105 0.39254 0.0
H1449 H 0.8582 0.64666 0.23988 0.0
H1450 H 0.84898 0.6235 0.31322 0.0
H1451 H 0.84362 0.61345 0.42249 0.0
H1452 H 0.86416 0.64819 0.57592 0.0
H1453 H 0.87879 0.67077 0.50087 0.0
C1454 C 0.87501 0.66847 0.3751 0.0
C1455 C 0.87059 0.66553 0.31105 0.0
C1456 C 0.86904 0.65529 0.418 0.0
C1457 C 0.86167 0.64919 0.28912 0.0
C1458 C 0.85634 0.63596 0.33107 0.0
C1459 C 0.8517 0.62589 0.43941 0.0
C1460 C 0.85282 0.62921 0.50446 0.0
C1461 C 0.85936 0.6389 0.39594 0.0
C1462 C 0.8631 0.64541 0.52594 0.0
C1463 C 0.87139 0.65831 0.48306 0.0
H1464 H 0.75575 0.67138 0.87898 0.0
H1465 H 0.79373 0.6625 0.80544 0.0
H1466 H 0.78091 0.63552 0.857 0.0
H1467 H 0.75967 0.61504 0.92667 0.0
H1468 H 0.72286 0.62468 0.0073 0.0
H1469 H 0.73443 0.65078 0.94936 0.0
C1470 C 0.76109 0.66343 0.87376 0.0
C1471 C 0.7756 0.66884 0.83824 0.0
C1472 C 0.75393 0.64815 0.90515 0.0
C1473 C 0.78256 0.65858 0.83258 0.0
C1474 C 0.77525 0.64317 0.86208 0.0
C1475 C 0.75411 0.6228 0.93123 0.0
C1476 C 0.74041 0.61793 0.97104 0.0
C1477 C 0.76105 0.63792 0.89905 0.0
C1478 C 0.73344 0.62819 0.97703 0.0
C1479 C 0.74004 0.64309 0.94387 0.0
H1480 H 0.34305 0.11284 0.94466 0.0
H1481 H 0.3033 0.09327 0.08002 0.0
H1482 H 0.28315 0.08173 -0.00565 0.0
H1483 H 0.27685 0.08053 0.88121 0.0
H1484 H 0.31667 0.10283 0.74666 0.0
H1485 H 0.33678 0.10979 0.83158 0.0
C1486 C 0.32999 0.10571 0.95552 0.0
C1487 C 0.32467 0.10393 0.01861 0.0
C1488 C 0.31849 0.09975 0.906 0.0
C1489 C 0.3077 0.09485 0.03182 0.0
C1490 C 0.29618 0.0883 0.98285 0.0
C1491 C 0.28992 0.08655 0.87036 0.0
C1492 C 0.29529 0.09117 0.8078 0.0
C1493 C 0.30142 0.09116 0.91973 0.0
C1494 C 0.31226 0.0992 0.79449 0.0
C1495 C 0.32375 0.10322 0.84304 0.0
H1496 H 0.88452 0.18903 0.87099 0.0
H1497 H 0.86533 0.2086 0.73082 0.0
H1498 H 0.85691 0.22108 0.81375 0.0
H1499 H 0.85109 0.22257 0.92566 0.0
H1500 H 0.86779 0.20053 0.06544 0.0
H1501 H 0.88131 0.19311 0.9833 0.0
C1502 C 0.8789 0.19641 0.85848 0.0
C1503 C 0.87546 0.1978 0.79485 0.0
C1504 C 0.87345 0.20293 0.90652 0.0
C1505 C 0.86802 0.20726 0.77948 0.0
C1506 C 0.86314 0.21435 0.82691 0.0
C1507 C 0.85804 0.21652 0.93838 0.0
C1508 C 0.85833 0.212 0.00152 0.0
C1509 C 0.86519 0.21168 0.89061 0.0
C1510 C 0.86729 0.20404 0.01712 0.0
C1511 C 0.87498 0.19975 0.97013 0.0
H1512 H 0.66188 0.76975 0.6525 0.0
H1513 H 0.69788 0.80849 0.53357 0.0
H1514 H 0.67735 0.80116 0.45085 0.0
H1515 H 0.64881 0.78543 0.41545 0.0
H1516 H 0.61236 0.7468 0.53316 0.0
H1517 H 0.63348 0.75225 0.61262 0.0
C1518 C 0.66526 0.77644 0.60819 0.0
C1519 C 0.68136 0.78975 0.59958 0.0
C1520 C 0.65331 0.77225 0.56062 0.0
C1521 C 0.68557 0.79826 0.54173 0.0
C1522 C 0.67382 0.7941 0.4943 0.0
C1523 C 0.64547 0.77808 0.4582 0.0
C1524 C 0.62899 0.76586 0.46862 0.0
C1525 C 0.6576 0.78138 0.50378 0.0
C1526 C 0.62496 0.75631 0.52396 0.0
C1527 C 0.63702 0.75948 0.56958 0.0
H1528 H 0.19852 0.87189 0.69526 0.0
H1529 H 0.17494 0.89246 0.5808 0.0
H1530 H 0.18424 0.88496 0.48512 0.0
H1531 H 0.19543 0.86881 0.43465 0.0
H1532 H 0.21972 0.84897 0.54907 0.0
H1533 H 0.21402 0.86014 0.64387 0.0
C1534 C 0.19575 0.87506 0.64935 0.0
C1535 C 0.18585 0.88247 0.64509 0.0
C1536 C 0.20111 0.87068 0.59448 0.0
C1537 C 0.18253 0.88673 0.58539 0.0
C1538 C 0.18773 0.88233 0.53058 0.0
C1539 C 0.19976 0.86724 0.48022 0.0
C1540 C 0.20773 0.85785 0.48498 0.0
C1541 C 0.19646 0.87372 0.53461 0.0
C1542 C 0.21351 0.85612 0.54413 0.0
C1543 C 0.21016 0.86241 0.59848 0.0
H1544 H 0.10716 0.3259 0.41506 0.0
H1545 H 0.10963 0.362 0.54843 0.0
H1546 H 0.09482 0.34018 0.62645 0.0
H1547 H 0.08347 0.31104 0.65986 0.0
H1548 H 0.0815 0.27548 0.52445 0.0
H1549 H 0.09377 0.29688 0.44455 0.0
C1550 C 0.1043 0.32901 0.46093 0.0
C1551 C 0.10966 0.34558 0.47604 0.0
C1552 C 0.09599 0.31648 0.50562 0.0
C1553 C 0.10565 0.34934 0.53548 0.0
C1554 C 0.09728 0.33687 0.58031 0.0
C1555 C 0.08558 0.30797 0.61269 0.0
C1556 C 0.08172 0.29168 0.59859 0.0
C1557 C 0.09275 0.32043 0.56645 0.0
C1558 C 0.08443 0.2879 0.537 0.0
C1559 C 0.09147 0.30015 0.49107 0.0
H1560 H 0.97212 0.52143 0.91443 0.0
H1561 H 0.00925 0.56038 0.79965 0.0
H1562 H -0.01098 0.55406 0.71587 0.0
H1563 H 0.96143 0.53567 0.67118 0.0
H1564 H 0.92475 0.49639 0.78622 0.0
H1565 H 0.94415 0.5047 0.87365 0.0
C1566 C 0.97578 0.52871 0.8715 0.0
C1567 C -0.00775 0.54124 0.86326 0.0
C1568 C 0.96418 0.52484 0.82309 0.0
C1569 C -0.00332 0.55061 0.80733 0.0
C1570 C -0.01487 0.54696 0.75916 0.0
C1571 C 0.95764 0.52906 0.71562 0.0
C1572 C 0.94171 0.51533 0.72182 0.0
C1573 C 0.96895 0.53381 0.76585 0.0
C1574 C 0.93696 0.50694 0.77988 0.0
C1575 C 0.94806 0.51167 0.83003 0.0
H1576 H 0.41939 0.43193 0.88455 0.0
H1577 H 0.39883 0.45404 0.76187 0.0
H1578 H 0.40321 0.44072 0.67072 0.0
H1579 H 0.41697 0.42657 0.6246 0.0
H1580 H 0.43734 0.40428 0.74732 0.0
H1581 H 0.42862 0.41359 0.83959 0.0
C1582 C 0.41556 0.43356 0.83802 0.0
C1583 C 0.40912 0.44422 0.82982 0.0
C1584 C 0.4182 0.42594 0.78568 0.0
C1585 C 0.40393 0.44598 0.76946 0.0
C1586 C 0.40651 0.43844 0.71717 0.0
C1587 C 0.41916 0.42343 0.67154 0.0
C1588 C 0.42808 0.41505 0.67906 0.0
C1589 C 0.41426 0.42896 0.72448 0.0
C1590 C 0.43058 0.41081 0.74013 0.0
C1591 C 0.42571 0.41624 0.79304 0.0
H1592 H 0.52016 -0.01205 0.88761 0.0
H1593 H 0.51571 0.94822 0.76983 0.0
H1594 H 0.53161 0.96802 0.68676 0.0
H1595 H 0.54431 -0.00361 0.64384 0.0
H1596 H 0.548 0.03567 0.76292 0.0
H1597 H 0.53492 0.01626 0.8491 0.0
C1598 C 0.5228 0.9836 0.84407 0.0
C1599 C 0.51657 0.96661 0.83468 0.0
C1600 C 0.53171 -0.00502 0.79641 0.0
C1601 C 0.52033 0.96123 0.77827 0.0
C1602 C 0.52934 0.97255 0.73059 0.0
C1603 C 0.54245 0.00072 0.68893 0.0
C1604 C 0.54697 0.01744 0.69658 0.0
C1605 C 0.53472 -0.01059 0.73851 0.0
C1606 C 0.54454 0.02286 0.75544 0.0
C1607 C 0.53703 0.01177 0.80487 0.0
H1608 H 0.44355 0.02308 0.20054 0.0
H1609 H 0.4263 0.98428 0.06152 0.0
H1610 H 0.41202 0.96357 0.1436 0.0
H1611 H 0.40823 0.95636 0.25624 0.0
H1612 H 0.42843 -0.00491 0.39572 0.0
H1613 H 0.43752 0.01595 0.31255 0.0
C1614 C 0.43627 0.01012 0.18806 0.0
C1615 C 0.43598 0.00519 0.12519 0.0
C1616 C 0.42878 -0.00174 0.23589 0.0
C1617 C 0.42673 -0.01165 0.10972 0.0
C1618 C 0.41862 0.97651 0.15665 0.0
C1619 C 0.4142 0.96936 0.26837 0.0
C1620 C 0.41768 0.97421 0.33187 0.0
C1621 C 0.42011 0.98128 0.22017 0.0
C1622 C 0.42568 -0.00891 0.34704 0.0
C1623 C 0.43093 0.00301 0.29952 0.0
H1624 H 0.01003 0.44781 0.28508 0.0
H1625 H 0.97128 0.43101 0.4242 0.0
H1626 H 0.95053 0.41757 0.34157 0.0
H1627 H 0.9434 0.4141 0.22873 0.0
H1628 H -0.01777 0.43371 0.0897 0.0
H1629 H 0.00296 0.44229 0.17315 0.0
C1630 C -0.00293 0.44088 0.29756 0.0
C1631 C -0.0078 0.44048 0.36067 0.0
C1632 C -0.01479 0.43379 0.24957 0.0
C1633 C 0.97534 0.43158 0.37592 0.0
C1634 C 0.96347 0.42393 0.32866 0.0
C1635 C 0.95639 0.41984 0.21676 0.0
C1636 C 0.96132 0.42327 0.15329 0.0
C1637 C 0.96825 0.42545 0.26513 0.0
C1638 C -0.02182 0.43098 0.13832 0.0
C1639 C -0.00998 0.43595 0.186 0.0
H1640 H 0.52493 0.53096 0.12126 0.0
H1641 H 0.54657 0.5107 0.24755 0.0
H1642 H 0.54123 0.5238 0.33722 0.0
H1643 H 0.52706 0.53789 0.3811 0.0
H1644 H 0.50658 0.55928 0.25466 0.0
H1645 H 0.51508 0.54915 0.16389 0.0
C1646 C 0.52876 0.5297 0.16827 0.0
C1647 C 0.53592 0.51969 0.1778 0.0
C1648 C 0.52577 0.53738 0.21973 0.0
C1649 C 0.54103 0.51833 0.23886 0.0
C1650 C 0.53788 0.52573 0.29031 0.0
C1651 C 0.52481 0.54066 0.33363 0.0
C1652 C 0.51604 0.54916 0.32468 0.0
C1653 C 0.52977 0.53483 0.28154 0.0
C1654 C 0.51334 0.5528 0.26291 0.0
C1655 C 0.51807 0.54688 0.2109 0.0
loop_
_geom_bond_atom_site_label_1
_geom_bond_atom_site_label_2
_geom_bond_distance
_geom_bond_site_symmetry_2
_ccdc_geom_bond_type
C0 O1 1.306 . S
C0 O3 1.160 . S
O1 C0 1.306 . S
O1 Cd2 2.228 . S
Cd2 O1 2.228 . S
Cd2 O6 2.273 . S
Cd2 O10 2.277 . S
O3 C0 1.160 . S
O3 Cd4 2.203 . S
Cd4 O3 2.203 . S
Cd4 O6 2.411 . S
Cd4 O7 2.333 . S
Cd4 O8 2.352 . S
Cd4 O12 2.277 . S
Cd4 O13 2.356 . S
C5 O10 1.209 . S
C5 O12 1.226 . S
O6 Cd2 2.273 . S
O6 Cd4 2.411 . S
O6 C9 1.320 . S
O7 Cd4 2.333 . S
O7 C9 1.214 . S
O8 Cd4 2.352 . S
O8 C11 1.258 . S
C9 O6 1.320 . S
C9 O7 1.214 . S
O10 Cd2 2.277 . S
O10 C5 1.209 . S
C11 O8 1.258 . S
C11 O13 1.282 . S
O12 Cd4 2.277 . S
O12 C5 1.226 . S
O13 Cd4 2.356 . S
O13 C11 1.282 . S
C14 O15 1.306 . S
C14 O17 1.160 . S
O15 C14 1.306 . S
O15 Cd16 2.228 . S
Cd16 O15 2.228 . S
Cd16 O20 2.273 . S
Cd16 O24 2.277 . S
O17 C14 1.160 . S
O17 Cd18 2.203 . S
Cd18 O17 2.203 . S
Cd18 O20 2.411 . S
Cd18 O21 2.333 . S
Cd18 O22 2.352 . S
Cd18 O26 2.277 . S
Cd18 O27 2.356 . S
C19 O24 1.209 . S
C19 O26 1.226 . S
O20 Cd16 2.273 . S
O20 Cd18 2.411 . S
O20 C23 1.320 . S
O21 Cd18 2.333 . S
O21 C23 1.214 . S
O22 Cd18 2.352 . S
O22 C25 1.258 . S
C23 O20 1.320 . S
C23 O21 1.214 . S
O24 Cd16 2.277 . S
O24 C19 1.209 . S
C25 O22 1.258 . S
C25 O27 1.282 . S
O26 Cd18 2.277 . S
O26 C19 1.226 . S
O27 Cd18 2.356 . S
O27 C25 1.282 . S
C28 O29 1.306 . S
C28 O31 1.160 . S
O29 C28 1.306 . S
O29 Cd30 2.228 . S
Cd30 O29 2.228 . S
Cd30 O34 2.273 . S
Cd30 O38 2.277 . S
O31 C28 1.160 . S
O31 Cd32 2.203 . S
Cd32 O31 2.203 . S
Cd32 O34 2.411 . S
Cd32 O35 2.333 . S
Cd32 O36 2.352 . S
Cd32 O40 2.277 . S
Cd32 O41 2.356 . S
C33 O38 1.209 . S
C33 O40 1.226 . S
O34 Cd30 2.273 . S
O34 Cd32 2.411 . S
O34 C37 1.320 . S
O35 Cd32 2.333 . S
O35 C37 1.214 . S
O36 Cd32 2.352 . S
O36 C39 1.258 . S
C37 O34 1.320 . S
C37 O35 1.214 . S
O38 Cd30 2.277 . S
O38 C33 1.209 . S
C39 O36 1.258 . S
C39 O41 1.282 . S
O40 Cd32 2.277 . S
O40 C33 1.226 . S
O41 Cd32 2.356 . S
O41 C39 1.282 . S
C42 O43 1.306 . S
C42 O45 1.160 . S
O43 C42 1.306 . S
O43 Cd44 2.228 . S
Cd44 O43 2.228 . S
Cd44 O48 2.273 . S
Cd44 O52 2.277 . S
O45 C42 1.160 . S
O45 Cd46 2.203 . S
Cd46 O45 2.203 . S
Cd46 O48 2.411 . S
Cd46 O49 2.333 . S
Cd46 O50 2.352 . S
Cd46 O54 2.277 . S
Cd46 O55 2.356 . S
C47 O52 1.209 . S
C47 O54 1.226 . S
O48 Cd44 2.273 . S
O48 Cd46 2.411 . S
O48 C51 1.320 . S
O49 Cd46 2.333 . S
O49 C51 1.214 . S
O50 Cd46 2.352 . S
O50 C53 1.258 . S
C51 O48 1.320 . S
C51 O49 1.214 . S
O52 Cd44 2.277 . S
O52 C47 1.209 . S
C53 O50 1.258 . S
C53 O55 1.282 . S
O54 Cd46 2.277 . S
O54 C47 1.226 . S
O55 Cd46 2.356 . S
O55 C53 1.282 . S
C56 O57 1.306 . S
C56 O59 1.160 . S
O57 C56 1.306 . S
O57 Cd58 2.228 . S
Cd58 O57 2.228 . S
Cd58 O62 2.273 . S
Cd58 O66 2.277 . S
O59 C56 1.160 . S
O59 Cd60 2.203 . S
Cd60 O59 2.203 . S
Cd60 O62 2.411 . S
Cd60 O63 2.333 . S
Cd60 O64 2.352 . S
Cd60 O68 2.277 . S
Cd60 O69 2.356 . S
C61 O66 1.209 . S
C61 O68 1.226 . S
O62 Cd58 2.273 . S
O62 Cd60 2.411 . S
O62 C65 1.320 . S
O63 Cd60 2.333 . S
O63 C65 1.214 . S
O64 Cd60 2.352 . S
O64 C67 1.258 . S
C65 O62 1.320 . S
C65 O63 1.214 . S
O66 Cd58 2.277 . S
O66 C61 1.209 . S
C67 O64 1.258 . S
C67 O69 1.282 . S
O68 Cd60 2.277 . S
O68 C61 1.226 . S
O69 Cd60 2.356 . S
O69 C67 1.282 . S
C70 O71 1.306 . S
C70 O73 1.160 . S
O71 C70 1.306 . S
O71 Cd72 2.228 . S
Cd72 O71 2.228 . S
Cd72 O76 2.273 . S
Cd72 O80 2.277 . S
O73 C70 1.160 . S
O73 Cd74 2.203 . S
Cd74 O73 2.203 . S
Cd74 O76 2.411 . S
Cd74 O77 2.333 . S
Cd74 O78 2.352 . S
Cd74 O82 2.277 . S
Cd74 O83 2.356 . S
C75 O80 1.209 . S
C75 O82 1.226 . S
O76 Cd72 2.273 . S
O76 Cd74 2.411 . S
O76 C79 1.320 . S
O77 Cd74 2.333 . S
O77 C79 1.214 . S
O78 Cd74 2.352 . S
O78 C81 1.258 . S
C79 O76 1.320 . S
C79 O77 1.214 . S
O80 Cd72 2.277 . S
O80 C75 1.209 . S
C81 O78 1.258 . S
C81 O83 1.282 . S
O82 Cd74 2.277 . S
O82 C75 1.226 . S
O83 Cd74 2.356 . S
O83 C81 1.282 . S
C84 O85 1.306 . S
C84 O87 1.160 . S
O85 C84 1.306 . S
O85 Cd86 2.228 . S
Cd86 O85 2.228 . S
Cd86 O90 2.273 . S
Cd86 O94 2.277 . S
O87 C84 1.160 . S
O87 Cd88 2.203 . S
Cd88 O87 2.203 . S
Cd88 O90 2.411 . S
Cd88 O91 2.333 . S
Cd88 O92 2.352 . S
Cd88 O96 2.277 . S
Cd88 O97 2.356 . S
C89 O94 1.209 . S
C89 O96 1.226 . S
O90 Cd86 2.273 . S
O90 Cd88 2.411 . S
O90 C93 1.320 . S
O91 Cd88 2.333 . S
O91 C93 1.214 . S
O92 Cd88 2.352 . S
O92 C95 1.258 . S
C93 O90 1.320 . S
C93 O91 1.214 . S
O94 Cd86 2.277 . S
O94 C89 1.209 . S
C95 O92 1.258 . S
C95 O97 1.282 . S
O96 Cd88 2.277 . S
O96 C89 1.226 . S
O97 Cd88 2.356 . S
O97 C95 1.282 . S
C98 O99 1.306 . S
C98 O101 1.160 . S
O99 C98 1.306 . S
O99 Cd100 2.228 . S
Cd100 O99 2.228 . S
Cd100 O104 2.273 . S
Cd100 O108 2.277 . S
O101 C98 1.160 . S
O101 Cd102 2.203 . S
Cd102 O101 2.203 . S
Cd102 O104 2.411 . S
Cd102 O105 2.333 . S
Cd102 O106 2.352 . S
Cd102 O110 2.277 . S
Cd102 O111 2.356 . S
C103 O108 1.209 . S
C103 O110 1.226 . S
O104 Cd100 2.273 . S
O104 Cd102 2.411 . S
O104 C107 1.320 . S
O105 Cd102 2.333 . S
O105 C107 1.214 . S
O106 Cd102 2.352 . S
O106 C109 1.258 . S
C107 O104 1.320 . S
C107 O105 1.214 . S
O108 Cd100 2.277 . S
O108 C103 1.209 . S
C109 O106 1.258 . S
C109 O111 1.282 . S
O110 Cd102 2.277 . S
O110 C103 1.226 . S
O111 Cd102 2.356 . S
O111 C109 1.282 . S
C112 O113 1.306 . S
C112 O115 1.160 . S
O113 C112 1.306 . S
O113 Cd114 2.228 . S
Cd114 O113 2.228 . S
Cd114 O118 2.273 . S
Cd114 O122 2.277 . S
O115 C112 1.160 . S
O115 Cd116 2.203 . S
Cd116 O115 2.203 . S
Cd116 O118 2.411 . S
Cd116 O119 2.333 . S
Cd116 O120 2.352 . S
Cd116 O124 2.277 . S
Cd116 O125 2.356 . S
C117 O122 1.209 . S
C117 O124 1.226 . S
O118 Cd114 2.273 . S
O118 Cd116 2.411 . S
O118 C121 1.320 . S
O119 Cd116 2.333 . S
O119 C121 1.214 . S
O120 Cd116 2.352 . S
O120 C123 1.258 . S
C121 O118 1.320 . S
C121 O119 1.214 . S
O122 Cd114 2.277 . S
O122 C117 1.209 . S
C123 O120 1.258 . S
C123 O125 1.282 . S
O124 Cd116 2.277 . S
O124 C117 1.226 . S
O125 Cd116 2.356 . S
O125 C123 1.282 . S
C126 O127 1.306 . S
C126 O129 1.160 . S
O127 C126 1.306 . S
O127 Cd128 2.228 . S
Cd128 O127 2.228 . S
Cd128 O132 2.273 . S
Cd128 O136 2.277 . S
O129 C126 1.160 . S
O129 Cd130 2.203 . S
Cd130 O129 2.203 . S
Cd130 O132 2.411 . S
Cd130 O133 2.333 . S
Cd130 O134 2.352 . S
Cd130 O138 2.277 . S
Cd130 O139 2.356 . S
C131 O136 1.209 . S
C131 O138 1.226 . S
O132 Cd128 2.273 . S
O132 Cd130 2.411 . S
O132 C135 1.320 . S
O133 Cd130 2.333 . S
O133 C135 1.214 . S
O134 Cd130 2.352 . S
O134 C137 1.258 . S
C135 O132 1.320 . S
C135 O133 1.214 . S
O136 Cd128 2.277 . S
O136 C131 1.209 . S
C137 O134 1.258 . S
C137 O139 1.282 . S
O138 Cd130 2.277 . S
O138 C131 1.226 . S
O139 Cd130 2.356 . S
O139 C137 1.282 . S
C140 O141 1.306 . S
C140 O143 1.160 . S
O141 C140 1.306 . S
O141 Cd142 2.228 . S
Cd142 O141 2.228 . S
Cd142 O146 2.273 . S
Cd142 O150 2.277 . S
O143 C140 1.160 . S
O143 Cd144 2.203 . S
Cd144 O143 2.203 . S
Cd144 O146 2.411 . S
Cd144 O147 2.333 . S
Cd144 O148 2.352 . S
Cd144 O152 2.277 . S
Cd144 O153 2.356 . S
C145 O150 1.209 . S
C145 O152 1.226 . S
O146 Cd142 2.273 . S
O146 Cd144 2.411 . S
O146 C149 1.320 . S
O147 Cd144 2.333 . S
O147 C149 1.214 . S
O148 Cd144 2.352 . S
O148 C151 1.258 . S
C149 O146 1.320 . S
C149 O147 1.214 . S
O150 Cd142 2.277 . S
O150 C145 1.209 . S
C151 O148 1.258 . S
C151 O153 1.282 . S
O152 Cd144 2.277 . S
O152 C145 1.226 . S
O153 Cd144 2.356 . S
O153 C151 1.282 . S
C154 O155 1.306 . S
C154 O157 1.160 . S
O155 C154 1.306 . S
O155 Cd156 2.228 . S
Cd156 O155 2.228 . S
Cd156 O160 2.273 . S
Cd156 O164 2.277 . S
O157 C154 1.160 . S
O157 Cd158 2.203 . S
Cd158 O157 2.203 . S
Cd158 O160 2.411 . S
Cd158 O161 2.333 . S
Cd158 O162 2.352 . S
Cd158 O166 2.277 . S
Cd158 O167 2.356 . S
C159 O164 1.209 . S
C159 O166 1.226 . S
O160 Cd156 2.273 . S
O160 Cd158 2.411 . S
O160 C163 1.320 . S
O161 Cd158 2.333 . S
O161 C163 1.214 . S
O162 Cd158 2.352 . S
O162 C165 1.258 . S
C163 O160 1.320 . S
C163 O161 1.214 . S
O164 Cd156 2.277 . S
O164 C159 1.209 . S
C165 O162 1.258 . S
C165 O167 1.282 . S
O166 Cd158 2.277 . S
O166 C159 1.226 . S
O167 Cd158 2.356 . S
O167 C165 1.282 . S
C168 O169 1.306 . S
C168 O171 1.160 . S
O169 C168 1.306 . S
O169 Cd170 2.228 . S
Cd170 O169 2.228 . S
Cd170 O174 2.273 . S
Cd170 O178 2.277 . S
O171 C168 1.160 . S
O171 Cd172 2.203 . S
Cd172 O171 2.203 . S
Cd172 O174 2.411 . S
Cd172 O175 2.333 . S
Cd172 O176 2.352 . S
Cd172 O180 2.277 . S
Cd172 O181 2.356 . S
C173 O178 1.209 . S
C173 O180 1.226 . S
O174 Cd170 2.273 . S
O174 Cd172 2.411 . S
O174 C177 1.320 . S
O175 Cd172 2.333 . S
O175 C177 1.214 . S
O176 Cd172 2.352 . S
O176 C179 1.258 . S
C177 O174 1.320 . S
C177 O175 1.214 . S
O178 Cd170 2.277 . S
O178 C173 1.209 . S
C179 O176 1.258 . S
C179 O181 1.282 . S
O180 Cd172 2.277 . S
O180 C173 1.226 . S
O181 Cd172 2.356 . S
O181 C179 1.282 . S
C182 O183 1.306 . S
C182 O185 1.160 . S
O183 C182 1.306 . S
O183 Cd184 2.228 . S
Cd184 O183 2.228 . S
Cd184 O188 2.273 . S
Cd184 O192 2.277 . S
O185 C182 1.160 . S
O185 Cd186 2.203 . S
Cd186 O185 2.203 . S
Cd186 O188 2.411 . S
Cd186 O189 2.333 . S
Cd186 O190 2.352 . S
Cd186 O194 2.277 . S
Cd186 O195 2.356 . S
C187 O192 1.209 . S
C187 O194 1.226 . S
O188 Cd184 2.273 . S
O188 Cd186 2.411 . S
O188 C191 1.320 . S
O189 Cd186 2.333 . S
O189 C191 1.214 . S
O190 Cd186 2.352 . S
O190 C193 1.258 . S
C191 O188 1.320 . S
C191 O189 1.214 . S
O192 Cd184 2.277 . S
O192 C187 1.209 . S
C193 O190 1.258 . S
C193 O195 1.282 . S
O194 Cd186 2.277 . S
O194 C187 1.226 . S
O195 Cd186 2.356 . S
O195 C193 1.282 . S
C196 O197 1.306 . S
C196 O199 1.160 . S
O197 C196 1.306 . S
O197 Cd198 2.228 . S
Cd198 O197 2.228 . S
Cd198 O202 2.273 . S
Cd198 O206 2.277 . S
O199 C196 1.160 . S
O199 Cd200 2.203 . S
Cd200 O199 2.203 . S
Cd200 O202 2.411 . S
Cd200 O203 2.333 . S
Cd200 O204 2.352 . S
Cd200 O208 2.277 . S
Cd200 O209 2.356 . S
C201 O206 1.209 . S
C201 O208 1.226 . S
O202 Cd198 2.273 . S
O202 Cd200 2.411 . S
O202 C205 1.320 . S
O203 Cd200 2.333 . S
O203 C205 1.214 . S
O204 Cd200 2.352 . S
O204 C207 1.258 . S
C205 O202 1.320 . S
C205 O203 1.214 . S
O206 Cd198 2.277 . S
O206 C201 1.209 . S
C207 O204 1.258 . S
C207 O209 1.282 . S
O208 Cd200 2.277 . S
O208 C201 1.226 . S
O209 Cd200 2.356 . S
O209 C207 1.282 . S
C210 O211 1.306 . S
C210 O213 1.160 . S
O211 C210 1.306 . S
O211 Cd212 2.228 . S
Cd212 O211 2.228 . S
Cd212 O216 2.273 . S
Cd212 O220 2.277 . S
O213 C210 1.160 . S
O213 Cd214 2.203 . S
Cd214 O213 2.203 . S
Cd214 O216 2.411 . S
Cd214 O217 2.333 . S
Cd214 O218 2.352 . S
Cd214 O222 2.277 . S
Cd214 O223 2.356 . S
C215 O220 1.209 . S
C215 O222 1.226 . S
O216 Cd212 2.273 . S
O216 Cd214 2.411 . S
O216 C219 1.320 . S
O217 Cd214 2.333 . S
O217 C219 1.214 . S
O218 Cd214 2.352 . S
O218 C221 1.258 . S
C219 O216 1.320 . S
C219 O217 1.214 . S
O220 Cd212 2.277 . S
O220 C215 1.209 . S
C221 O218 1.258 . S
C221 O223 1.282 . S
O222 Cd214 2.277 . S
O222 C215 1.226 . S
O223 Cd214 2.356 . S
O223 C221 1.282 . S
C224 O225 1.306 . S
C224 O227 1.160 . S
O225 C224 1.306 . S
O225 Cd226 2.228 . S
Cd226 O225 2.228 . S
Cd226 O230 2.273 . S
Cd226 O234 2.277 . S
O227 C224 1.160 . S
O227 Cd228 2.203 . S
Cd228 O227 2.203 . S
Cd228 O230 2.411 . S
Cd228 O231 2.333 . S
Cd228 O232 2.352 . S
Cd228 O236 2.277 . S
Cd228 O237 2.356 . S
C229 O234 1.209 . S
C229 O236 1.226 . S
O230 Cd226 2.273 . S
O230 Cd228 2.411 . S
O230 C233 1.320 . S
O231 Cd228 2.333 . S
O231 C233 1.214 . S
O232 Cd228 2.352 . S
O232 C235 1.258 . S
C233 O230 1.320 . S
C233 O231 1.214 . S
O234 Cd226 2.277 . S
O234 C229 1.209 . S
C235 O232 1.258 . S
C235 O237 1.282 . S
O236 Cd228 2.277 . S
O236 C229 1.226 . S
O237 Cd228 2.356 . S
O237 C235 1.282 . S
C238 O239 1.306 . S
C238 O241 1.160 . S
O239 C238 1.306 . S
O239 Cd240 2.228 . S
Cd240 O239 2.228 . S
Cd240 O244 2.273 . S
Cd240 O248 2.277 . S
O241 C238 1.160 . S
O241 Cd242 2.203 . S
Cd242 O241 2.203 . S
Cd242 O244 2.411 . S
Cd242 O245 2.333 . S
Cd242 O246 2.352 . S
Cd242 O250 2.277 . S
Cd242 O251 2.356 . S
C243 O248 1.209 . S
C243 O250 1.226 . S
O244 Cd240 2.273 . S
O244 Cd242 2.411 . S
O244 C247 1.320 . S
O245 Cd242 2.333 . S
O245 C247 1.214 . S
O246 Cd242 2.352 . S
O246 C249 1.258 . S
C247 O244 1.320 . S
C247 O245 1.214 . S
O248 Cd240 2.277 . S
O248 C243 1.209 . S
C249 O246 1.258 . S
C249 O251 1.282 . S
O250 Cd242 2.277 . S
O250 C243 1.226 . S
O251 Cd242 2.356 . S
O251 C249 1.282 . S
C252 O253 1.306 . S
C252 O255 1.160 . S
O253 C252 1.306 . S
O253 Cd254 2.228 . S
Cd254 O253 2.228 . S
Cd254 O258 2.273 . S
Cd254 O262 2.277 . S
O255 C252 1.160 . S
O255 Cd256 2.203 . S
Cd256 O255 2.203 . S
Cd256 O258 2.411 . S
Cd256 O259 2.333 . S
Cd256 O260 2.352 . S
Cd256 O264 2.277 . S
Cd256 O265 2.356 . S
C257 O262 1.209 . S
C257 O264 1.226 . S
O258 Cd254 2.273 . S
O258 Cd256 2.411 . S
O258 C261 1.320 . S
O259 Cd256 2.333 . S
O259 C261 1.214 . S
O260 Cd256 2.352 . S
O260 C263 1.258 . S
C261 O258 1.320 . S
C261 O259 1.214 . S
O262 Cd254 2.277 . S
O262 C257 1.209 . S
C263 O260 1.258 . S
C263 O265 1.282 . S
O264 Cd256 2.277 . S
O264 C257 1.226 . S
O265 Cd256 2.356 . S
O265 C263 1.282 . S
C266 O267 1.306 . S
C266 O269 1.160 . S
O267 C266 1.306 . S
O267 Cd268 2.228 . S
Cd268 O267 2.228 . S
Cd268 O272 2.273 . S
Cd268 O276 2.277 . S
O269 C266 1.160 . S
O269 Cd270 2.203 . S
Cd270 O269 2.203 . S
Cd270 O272 2.411 . S
Cd270 O273 2.333 . S
Cd270 O274 2.352 . S
Cd270 O278 2.277 . S
Cd270 O279 2.356 . S
C271 O276 1.209 . S
C271 O278 1.226 . S
O272 Cd268 2.273 . S
O272 Cd270 2.411 . S
O272 C275 1.320 . S
O273 Cd270 2.333 . S
O273 C275 1.214 . S
O274 Cd270 2.352 . S
O274 C277 1.258 . S
C275 O272 1.320 . S
C275 O273 1.214 . S
O276 Cd268 2.277 . S
O276 C271 1.209 . S
C277 O274 1.258 . S
C277 O279 1.282 . S
O278 Cd270 2.277 . S
O278 C271 1.226 . S
O279 Cd270 2.356 . S
O279 C277 1.282 . S
C280 O281 1.306 . S
C280 O283 1.160 . S
O281 C280 1.306 . S
O281 Cd282 2.228 . S
Cd282 O281 2.228 . S
Cd282 O286 2.273 . S
Cd282 O290 2.277 . S
O283 C280 1.160 . S
O283 Cd284 2.203 . S
Cd284 O283 2.203 . S
Cd284 O286 2.411 . S
Cd284 O287 2.333 . S
Cd284 O288 2.352 . S
Cd284 O292 2.277 . S
Cd284 O293 2.356 . S
C285 O290 1.209 . S
C285 O292 1.226 . S
O286 Cd282 2.273 . S
O286 Cd284 2.411 . S
O286 C289 1.320 . S
O287 Cd284 2.333 . S
O287 C289 1.214 . S
O288 Cd284 2.352 . S
O288 C291 1.258 . S
C289 O286 1.320 . S
C289 O287 1.214 . S
O290 Cd282 2.277 . S
O290 C285 1.209 . S
C291 O288 1.258 . S
C291 O293 1.282 . S
O292 Cd284 2.277 . S
O292 C285 1.226 . S
O293 Cd284 2.356 . S
O293 C291 1.282 . S
C294 O295 1.306 . S
C294 O297 1.160 . S
O295 C294 1.306 . S
O295 Cd296 2.228 1_556 S
Cd296 O295 2.228 1_554 S
Cd296 O300 2.273 . S
Cd296 O304 2.277 1_554 S
O297 C294 1.160 . S
O297 Cd298 2.203 . S
Cd298 O297 2.203 . S
Cd298 O300 2.411 1_556 S
Cd298 O301 2.333 1_556 S
Cd298 O302 2.352 1_556 S
Cd298 O306 2.277 . S
Cd298 O307 2.356 . S
C299 O304 1.209 . S
C299 O306 1.226 . S
O300 Cd296 2.273 . S
O300 Cd298 2.411 1_554 S
O300 C303 1.320 . S
O301 Cd298 2.333 1_554 S
O301 C303 1.214 . S
O302 Cd298 2.352 1_554 S
O302 C305 1.258 . S
C303 O300 1.320 . S
C303 O301 1.214 . S
O304 Cd296 2.277 1_556 S
O304 C299 1.209 . S
C305 O302 1.258 . S
C305 O307 1.282 1_554 S
O306 Cd298 2.277 . S
O306 C299 1.226 . S
O307 Cd298 2.356 . S
O307 C305 1.282 1_556 S
C308 O309 1.306 . S
C308 O311 1.160 . S
O309 C308 1.306 . S
O309 Cd310 2.228 1_556 S
Cd310 O309 2.228 1_554 S
Cd310 O314 2.273 . S
Cd310 O318 2.277 1_554 S
O311 C308 1.160 . S
O311 Cd312 2.203 . S
Cd312 O311 2.203 . S
Cd312 O314 2.411 1_556 S
Cd312 O315 2.333 1_556 S
Cd312 O316 2.352 1_556 S
Cd312 O320 2.277 . S
Cd312 O321 2.356 . S
C313 O318 1.209 . S
C313 O320 1.226 . S
O314 Cd310 2.273 . S
O314 Cd312 2.411 1_554 S
O314 C317 1.320 . S
O315 Cd312 2.333 1_554 S
O315 C317 1.214 . S
O316 Cd312 2.352 1_554 S
O316 C319 1.258 . S
C317 O314 1.320 . S
C317 O315 1.214 . S
O318 Cd310 2.277 1_556 S
O318 C313 1.209 . S
C319 O316 1.258 . S
C319 O321 1.282 1_554 S
O320 Cd312 2.277 . S
O320 C313 1.226 . S
O321 Cd312 2.356 . S
O321 C319 1.282 1_556 S
C322 O323 1.306 . S
C322 O325 1.160 . S
O323 C322 1.306 . S
O323 Cd324 2.228 1_556 S
Cd324 O323 2.228 1_554 S
Cd324 O328 2.273 . S
Cd324 O332 2.277 1_554 S
O325 C322 1.160 . S
O325 Cd326 2.203 . S
Cd326 O325 2.203 . S
Cd326 O328 2.411 1_556 S
Cd326 O329 2.333 1_556 S
Cd326 O330 2.352 1_556 S
Cd326 O334 2.277 . S
Cd326 O335 2.356 . S
C327 O332 1.209 . S
C327 O334 1.226 . S
O328 Cd324 2.273 . S
O328 Cd326 2.411 1_554 S
O328 C331 1.320 . S
O329 Cd326 2.333 1_554 S
O329 C331 1.214 . S
O330 Cd326 2.352 1_554 S
O330 C333 1.258 . S
C331 O328 1.320 . S
C331 O329 1.214 . S
O332 Cd324 2.277 1_556 S
O332 C327 1.209 . S
C333 O330 1.258 . S
C333 O335 1.282 1_554 S
O334 Cd326 2.277 . S
O334 C327 1.226 . S
O335 Cd326 2.356 . S
O335 C333 1.282 1_556 S
C336 O337 1.306 . S
C336 O339 1.160 . S
O337 C336 1.306 . S
O337 Cd338 2.228 . S
Cd338 O337 2.228 . S
Cd338 O342 2.273 . S
Cd338 O346 2.277 . S
O339 C336 1.160 . S
O339 Cd340 2.203 . S
Cd340 O339 2.203 . S
Cd340 O342 2.411 . S
Cd340 O343 2.333 . S
Cd340 O344 2.352 . S
Cd340 O348 2.277 . S
Cd340 O349 2.356 . S
C341 O346 1.209 . S
C341 O348 1.226 . S
O342 Cd338 2.273 . S
O342 Cd340 2.411 . S
O342 C345 1.320 . S
O343 Cd340 2.333 . S
O343 C345 1.214 . S
O344 Cd340 2.352 . S
O344 C347 1.258 . S
C345 O342 1.320 . S
C345 O343 1.214 . S
O346 Cd338 2.277 . S
O346 C341 1.209 . S
C347 O344 1.258 . S
C347 O349 1.282 . S
O348 Cd340 2.277 . S
O348 C341 1.226 . S
O349 Cd340 2.356 . S
O349 C347 1.282 . S
C350 O351 1.306 . S
C350 O353 1.160 . S
O351 C350 1.306 . S
O351 Cd352 2.228 . S
Cd352 O351 2.228 . S
Cd352 O356 2.273 . S
Cd352 O360 2.277 . S
O353 C350 1.160 . S
O353 Cd354 2.203 . S
Cd354 O353 2.203 . S
Cd354 O356 2.411 . S
Cd354 O357 2.333 . S
Cd354 O358 2.352 . S
Cd354 O362 2.277 . S
Cd354 O363 2.356 . S
C355 O360 1.209 . S
C355 O362 1.226 . S
O356 Cd352 2.273 . S
O356 Cd354 2.411 . S
O356 C359 1.320 . S
O357 Cd354 2.333 . S
O357 C359 1.214 . S
O358 Cd354 2.352 . S
O358 C361 1.258 . S
C359 O356 1.320 . S
C359 O357 1.214 . S
O360 Cd352 2.277 . S
O360 C355 1.209 . S
C361 O358 1.258 . S
C361 O363 1.282 . S
O362 Cd354 2.277 . S
O362 C355 1.226 . S
O363 Cd354 2.356 . S
O363 C361 1.282 . S
C364 O365 1.306 . S
C364 O367 1.160 . S
O365 C364 1.306 . S
O365 Cd366 2.228 . S
Cd366 O365 2.228 . S
Cd366 O370 2.273 . S
Cd366 O374 2.277 . S
O367 C364 1.160 . S
O367 Cd368 2.203 . S
Cd368 O367 2.203 . S
Cd368 O370 2.411 . S
Cd368 O371 2.333 . S
Cd368 O372 2.352 . S
Cd368 O376 2.277 . S
Cd368 O377 2.356 . S
C369 O374 1.209 . S
C369 O376 1.226 . S
O370 Cd366 2.273 . S
O370 Cd368 2.411 . S
O370 C373 1.320 . S
O371 Cd368 2.333 . S
O371 C373 1.214 . S
O372 Cd368 2.352 . S
O372 C375 1.258 . S
C373 O370 1.320 . S
C373 O371 1.214 . S
O374 Cd366 2.277 . S
O374 C369 1.209 . S
C375 O372 1.258 . S
C375 O377 1.282 . S
O376 Cd368 2.277 . S
O376 C369 1.226 . S
O377 Cd368 2.356 . S
O377 C375 1.282 . S
C378 O379 1.306 . S
C378 O381 1.160 . S
O379 C378 1.306 . S
O379 Cd380 2.228 1_554 S
Cd380 O379 2.228 1_556 S
Cd380 O384 2.273 . S
Cd380 O388 2.277 1_556 S
O381 C378 1.160 . S
O381 Cd382 2.203 . S
Cd382 O381 2.203 . S
Cd382 O384 2.411 1_554 S
Cd382 O385 2.333 1_554 S
Cd382 O386 2.352 1_554 S
Cd382 O390 2.277 . S
Cd382 O391 2.356 . S
C383 O388 1.209 . S
C383 O390 1.226 . S
O384 Cd380 2.273 . S
O384 Cd382 2.411 1_556 S
O384 C387 1.320 . S
O385 Cd382 2.333 1_556 S
O385 C387 1.214 . S
O386 Cd382 2.352 1_556 S
O386 C389 1.258 . S
C387 O384 1.320 . S
C387 O385 1.214 . S
O388 Cd380 2.277 1_554 S
O388 C383 1.209 . S
C389 O386 1.258 . S
C389 O391 1.282 1_556 S
O390 Cd382 2.277 . S
O390 C383 1.226 . S
O391 Cd382 2.356 . S
O391 C389 1.282 1_554 S
C392 O393 1.306 . S
C392 O395 1.160 . S
O393 C392 1.306 . S
O393 Cd394 2.228 1_554 S
Cd394 O393 2.228 1_556 S
Cd394 O398 2.273 . S
Cd394 O402 2.277 1_556 S
O395 C392 1.160 . S
O395 Cd396 2.203 . S
Cd396 O395 2.203 . S
Cd396 O398 2.411 1_554 S
Cd396 O399 2.333 1_554 S
Cd396 O400 2.352 1_554 S
Cd396 O404 2.277 . S
Cd396 O405 2.356 . S
C397 O402 1.209 . S
C397 O404 1.226 . S
O398 Cd394 2.273 . S
O398 Cd396 2.411 1_556 S
O398 C401 1.320 . S
O399 Cd396 2.333 1_556 S
O399 C401 1.214 . S
O400 Cd396 2.352 1_556 S
O400 C403 1.258 . S
C401 O398 1.320 . S
C401 O399 1.214 . S
O402 Cd394 2.277 1_554 S
O402 C397 1.209 . S
C403 O400 1.258 . S
C403 O405 1.282 1_556 S
O404 Cd396 2.277 . S
O404 C397 1.226 . S
O405 Cd396 2.356 . S
O405 C403 1.282 1_554 S
C406 O407 1.306 . S
C406 O409 1.160 . S
O407 C406 1.306 . S
O407 Cd408 2.228 1_554 S
Cd408 O407 2.228 1_556 S
Cd408 O412 2.273 . S
Cd408 O416 2.277 1_556 S
O409 C406 1.160 . S
O409 Cd410 2.203 . S
Cd410 O409 2.203 . S
Cd410 O412 2.411 1_554 S
Cd410 O413 2.333 1_554 S
Cd410 O414 2.352 1_554 S
Cd410 O418 2.277 . S
Cd410 O419 2.356 . S
C411 O416 1.209 . S
C411 O418 1.226 . S
O412 Cd408 2.273 . S
O412 Cd410 2.411 1_556 S
O412 C415 1.320 . S
O413 Cd410 2.333 1_556 S
O413 C415 1.214 . S
O414 Cd410 2.352 1_556 S
O414 C417 1.258 . S
C415 O412 1.320 . S
C415 O413 1.214 . S
O416 Cd408 2.277 1_554 S
O416 C411 1.209 . S
C417 O414 1.258 . S
C417 O419 1.282 1_556 S
O418 Cd410 2.277 . S
O418 C411 1.226 . S
O419 Cd410 2.356 . S
O419 C417 1.282 1_554 S
C420 O421 1.306 . S
C420 O423 1.160 . S
O421 C420 1.306 . S
O421 Cd422 2.228 . S
Cd422 O421 2.228 . S
Cd422 O426 2.273 . S
Cd422 O430 2.277 . S
O423 C420 1.160 . S
O423 Cd424 2.203 . S
Cd424 O423 2.203 . S
Cd424 O426 2.411 . S
Cd424 O427 2.333 . S
Cd424 O428 2.352 . S
Cd424 O432 2.277 . S
Cd424 O433 2.356 . S
C425 O430 1.209 . S
C425 O432 1.226 . S
O426 Cd422 2.273 . S
O426 Cd424 2.411 . S
O426 C429 1.320 . S
O427 Cd424 2.333 . S
O427 C429 1.214 . S
O428 Cd424 2.352 . S
O428 C431 1.258 . S
C429 O426 1.320 . S
C429 O427 1.214 . S
O430 Cd422 2.277 . S
O430 C425 1.209 . S
C431 O428 1.258 . S
C431 O433 1.282 . S
O432 Cd424 2.277 . S
O432 C425 1.226 . S
O433 Cd424 2.356 . S
O433 C431 1.282 . S
C434 O435 1.306 . S
C434 O437 1.160 . S
O435 C434 1.306 . S
O435 Cd436 2.228 . S
Cd436 O435 2.228 . S
Cd436 O440 2.273 . S
Cd436 O444 2.277 . S
O437 C434 1.160 . S
O437 Cd438 2.203 . S
Cd438 O437 2.203 . S
Cd438 O440 2.411 . S
Cd438 O441 2.333 . S
Cd438 O442 2.352 . S
Cd438 O446 2.277 . S
Cd438 O447 2.356 . S
C439 O444 1.209 . S
C439 O446 1.226 . S
O440 Cd436 2.273 . S
O440 Cd438 2.411 . S
O440 C443 1.320 . S
O441 Cd438 2.333 . S
O441 C443 1.214 . S
O442 Cd438 2.352 . S
O442 C445 1.258 . S
C443 O440 1.320 . S
C443 O441 1.214 . S
O444 Cd436 2.277 . S
O444 C439 1.209 . S
C445 O442 1.258 . S
C445 O447 1.282 . S
O446 Cd438 2.277 . S
O446 C439 1.226 . S
O447 Cd438 2.356 . S
O447 C445 1.282 . S
C448 O449 1.306 . S
C448 O451 1.160 . S
O449 C448 1.306 . S
O449 Cd450 2.228 . S
Cd450 O449 2.228 . S
Cd450 O454 2.273 . S
Cd450 O458 2.277 . S
O451 C448 1.160 . S
O451 Cd452 2.203 . S
Cd452 O451 2.203 . S
Cd452 O454 2.411 . S
Cd452 O455 2.333 . S
Cd452 O456 2.352 . S
Cd452 O460 2.277 . S
Cd452 O461 2.356 . S
C453 O458 1.209 . S
C453 O460 1.226 . S
O454 Cd450 2.273 . S
O454 Cd452 2.411 . S
O454 C457 1.320 . S
O455 Cd452 2.333 . S
O455 C457 1.214 . S
O456 Cd452 2.352 . S
O456 C459 1.258 . S
C457 O454 1.320 . S
C457 O455 1.214 . S
O458 Cd450 2.277 . S
O458 C453 1.209 . S
C459 O456 1.258 . S
C459 O461 1.282 . S
O460 Cd452 2.277 . S
O460 C453 1.226 . S
O461 Cd452 2.356 . S
O461 C459 1.282 . S
C462 O463 1.306 . S
C462 O465 1.160 . S
O463 C462 1.306 . S
O463 Cd464 2.228 . S
Cd464 O463 2.228 . S
Cd464 O468 2.273 . S
Cd464 O472 2.277 . S
O465 C462 1.160 . S
O465 Cd466 2.203 . S
Cd466 O465 2.203 . S
Cd466 O468 2.411 . S
Cd466 O469 2.333 . S
Cd466 O470 2.352 . S
Cd466 O474 2.277 . S
Cd466 O475 2.356 . S
C467 O472 1.209 . S
C467 O474 1.226 . S
O468 Cd464 2.273 . S
O468 Cd466 2.411 . S
O468 C471 1.320 . S
O469 Cd466 2.333 . S
O469 C471 1.214 . S
O470 Cd466 2.352 . S
O470 C473 1.258 . S
C471 O468 1.320 . S
C471 O469 1.214 . S
O472 Cd464 2.277 . S
O472 C467 1.209 . S
C473 O470 1.258 . S
C473 O475 1.282 . S
O474 Cd466 2.277 . S
O474 C467 1.226 . S
O475 Cd466 2.356 . S
O475 C473 1.282 . S
C476 O477 1.306 . S
C476 O479 1.160 . S
O477 C476 1.306 . S
O477 Cd478 2.228 . S
Cd478 O477 2.228 . S
Cd478 O482 2.273 . S
Cd478 O486 2.277 . S
O479 C476 1.160 . S
O479 Cd480 2.203 . S
Cd480 O479 2.203 . S
Cd480 O482 2.411 . S
Cd480 O483 2.333 . S
Cd480 O484 2.352 . S
Cd480 O488 2.277 . S
Cd480 O489 2.356 . S
C481 O486 1.209 . S
C481 O488 1.226 . S
O482 Cd478 2.273 . S
O482 Cd480 2.411 . S
O482 C485 1.320 . S
O483 Cd480 2.333 . S
O483 C485 1.214 . S
O484 Cd480 2.352 . S
O484 C487 1.258 . S
C485 O482 1.320 . S
C485 O483 1.214 . S
O486 Cd478 2.277 . S
O486 C481 1.209 . S
C487 O484 1.258 . S
C487 O489 1.282 . S
O488 Cd480 2.277 . S
O488 C481 1.226 . S
O489 Cd480 2.356 . S
O489 C487 1.282 . S
C490 O491 1.306 . S
C490 O493 1.160 . S
O491 C490 1.306 . S
O491 Cd492 2.228 . S
Cd492 O491 2.228 . S
Cd492 O496 2.273 . S
Cd492 O500 2.277 . S
O493 C490 1.160 . S
O493 Cd494 2.203 . S
Cd494 O493 2.203 . S
Cd494 O496 2.411 . S
Cd494 O497 2.333 . S
Cd494 O498 2.352 . S
Cd494 O502 2.277 . S
Cd494 O503 2.356 . S
C495 O500 1.209 . S
C495 O502 1.226 . S
O496 Cd492 2.273 . S
O496 Cd494 2.411 . S
O496 C499 1.320 . S
O497 Cd494 2.333 . S
O497 C499 1.214 . S
O498 Cd494 2.352 . S
O498 C501 1.258 . S
C499 O496 1.320 . S
C499 O497 1.214 . S
O500 Cd492 2.277 . S
O500 C495 1.209 . S
C501 O498 1.258 . S
C501 O503 1.282 . S
O502 Cd494 2.277 . S
O502 C495 1.226 . S
O503 Cd494 2.356 . S
O503 C501 1.282 . S
H504 C510 0.930 . S
H505 C513 0.930 . S
H506 C514 0.930 . S
H507 C515 0.930 . S
H508 C518 0.930 . S
H509 C519 0.930 . S
C510 H504 0.930 . S
C510 C511 1.355 . S
C510 C512 1.415 . S
C511 C510 1.355 . S
C511 C513 1.419 . S
C512 C510 1.415 . S
C512 C517 1.425 . S
C512 C519 1.409 . S
C513 H505 0.930 . S
C513 C511 1.419 . S
C513 C514 1.362 . S
C514 H506 0.930 . S
C514 C513 1.362 . S
C514 C517 1.409 . S
C515 H507 0.930 . S
C515 C516 1.355 . S
C515 C517 1.415 . S
C516 C515 1.355 . S
C516 C518 1.419 . S
C517 C512 1.425 . S
C517 C514 1.409 . S
C517 C515 1.415 . S
C518 H508 0.930 . S
C518 C516 1.419 . S
C518 C519 1.362 . S
C519 H509 0.930 . S
C519 C512 1.409 . S
C519 C518 1.362 . S
H520 C526 0.930 . S
H521 C529 0.930 . S
H522 C530 0.930 . S
H523 C531 0.930 . S
H524 C534 0.930 . S
H525 C535 0.930 . S
C526 H520 0.930 . S
C526 C527 1.355 . S
C526 C528 1.425 . S
C527 C526 1.355 . S
C527 C529 1.419 . S
C528 C526 1.425 . S
C528 C533 1.423 1_545 S
C528 C535 1.400 1_545 S
C529 H521 0.930 . S
C529 C527 1.419 . S
C529 C530 1.362 . S
C530 H522 0.930 . S
C530 C529 1.362 . S
C530 C533 1.401 1_545 S
C531 H523 0.930 . S
C531 C532 1.355 . S
C531 C533 1.424 . S
C532 C531 1.355 . S
C532 C534 1.419 . S
C533 C528 1.423 1_565 S
C533 C530 1.401 1_565 S
C533 C531 1.424 . S
C534 H524 0.930 . S
C534 C532 1.419 . S
C534 C535 1.362 . S
C535 H525 0.930 . S
C535 C528 1.400 1_565 S
C535 C534 1.362 . S
H536 C542 0.930 . S
H537 C545 0.930 . S
H538 C546 0.930 . S
H539 C547 0.930 . S
H540 C550 0.930 . S
H541 C551 0.930 . S
C542 H536 0.930 . S
C542 C543 1.355 . S
C542 C544 1.415 . S
C543 C542 1.355 . S
C543 C545 1.419 . S
C544 C542 1.415 . S
C544 C549 1.425 1_655 S
C544 C551 1.409 1_655 S
C545 H537 0.930 . S
C545 C543 1.419 . S
C545 C546 1.362 . S
C546 H538 0.930 . S
C546 C545 1.362 . S
C546 C549 1.409 1_655 S
C547 H539 0.930 . S
C547 C548 1.355 . S
C547 C549 1.415 . S
C548 C547 1.355 . S
C548 C550 1.419 . S
C549 C544 1.425 1_455 S
C549 C546 1.409 1_455 S
C549 C547 1.415 . S
C550 H540 0.930 . S
C550 C548 1.419 . S
C550 C551 1.362 . S
C551 H541 0.930 . S
C551 C544 1.409 1_455 S
C551 C550 1.362 . S
H552 C558 0.930 . S
H553 C561 0.930 . S
H554 C562 0.930 . S
H555 C563 0.930 . S
H556 C566 0.930 . S
H557 C567 0.930 . S
C558 H552 0.930 . S
C558 C559 1.355 . S
C558 C560 1.415 . S
C559 C558 1.355 . S
C559 C561 1.419 . S
C560 C558 1.415 . S
C560 C565 1.425 . S
C560 C567 1.409 . S
C561 H553 0.930 . S
C561 C559 1.419 . S
C561 C562 1.362 . S
C562 H554 0.930 . S
C562 C561 1.362 . S
C562 C565 1.409 . S
C563 H555 0.930 . S
C563 C564 1.355 . S
C563 C565 1.415 . S
C564 C563 1.355 . S
C564 C566 1.419 . S
C565 C560 1.425 . S
C565 C562 1.409 . S
C565 C563 1.415 . S
C566 H556 0.930 . S
C566 C564 1.419 . S
C566 C567 1.362 . S
C567 H557 0.930 . S
C567 C560 1.409 . S
C567 C566 1.362 . S
H568 C574 0.930 . S
H569 C577 0.930 . S
H570 C578 0.930 . S
H571 C579 0.930 . S
H572 C582 0.930 . S
H573 C583 0.930 . S
C574 H568 0.930 . S
C574 C575 1.355 . S
C574 C576 1.415 . S
C575 C574 1.355 . S
C575 C577 1.419 . S
C576 C574 1.415 . S
C576 C581 1.425 1_545 S
C576 C583 1.409 1_545 S
C577 H569 0.930 . S
C577 C575 1.419 . S
C577 C578 1.362 . S
C578 H570 0.930 . S
C578 C577 1.362 . S
C578 C581 1.409 1_545 S
C579 H571 0.930 . S
C579 C580 1.355 . S
C579 C581 1.415 . S
C580 C579 1.355 . S
C580 C582 1.419 . S
C581 C576 1.425 1_565 S
C581 C578 1.409 1_565 S
C581 C579 1.415 . S
C582 H572 0.930 . S
C582 C580 1.419 . S
C582 C583 1.362 . S
C583 H573 0.930 . S
C583 C576 1.409 1_565 S
C583 C582 1.362 . S
H584 C590 0.930 . S
H585 C593 0.930 . S
H586 C594 0.930 . S
H587 C595 0.930 . S
H588 C598 0.930 . S
H589 C599 0.930 . S
C590 H584 0.930 . S
C590 C591 1.355 . S
C590 C592 1.478 . S
C591 C590 1.355 . S
C591 C593 1.419 . S
C592 C590 1.478 . S
C592 C597 1.369 1_455 S
C592 C599 1.379 1_455 S
C593 H585 0.930 . S
C593 C591 1.419 . S
C593 C594 1.362 . S
C594 H586 0.930 . S
C594 C593 1.362 . S
C594 C597 1.378 1_455 S
C595 H587 0.930 . S
C595 C596 1.355 . S
C595 C597 1.478 . S
C596 C595 1.355 . S
C596 C598 1.419 . S
C597 C592 1.369 1_655 S
C597 C594 1.378 1_655 S
C597 C595 1.478 . S
C598 H588 0.930 . S
C598 C596 1.419 . S
C598 C599 1.362 . S
C599 H589 0.930 . S
C599 C592 1.379 1_655 S
C599 C598 1.362 . S
H600 C606 0.930 . S
H601 C609 0.930 . S
H602 C610 0.930 . S
H603 C611 0.930 . S
H604 C614 0.930 . S
H605 C615 0.930 . S
C606 H600 0.930 . S
C606 C607 1.355 . S
C606 C608 1.415 . S
C607 C606 1.355 . S
C607 C609 1.419 . S
C608 C606 1.415 . S
C608 C613 1.425 . S
C608 C615 1.409 . S
C609 H601 0.930 . S
C609 C607 1.419 . S
C609 C610 1.362 . S
C610 H602 0.930 . S
C610 C609 1.362 . S
C610 C613 1.409 . S
C611 H603 0.930 . S
C611 C612 1.355 . S
C611 C613 1.415 . S
C612 C611 1.355 . S
C612 C614 1.419 . S
C613 C608 1.425 . S
C613 C610 1.409 . S
C613 C611 1.415 . S
C614 H604 0.930 . S
C614 C612 1.419 . S
C614 C615 1.362 . S
C615 H605 0.930 . S
C615 C608 1.409 . S
C615 C614 1.362 . S
H616 C622 0.930 . S
H617 C625 0.930 . S
H618 C626 0.930 . S
H619 C627 0.930 . S
H620 C630 0.930 . S
H621 C631 0.930 . S
C622 H616 0.930 . S
C622 C623 1.355 . S
C622 C624 1.415 . S
C623 C622 1.355 . S
C623 C625 1.419 . S
C624 C622 1.415 . S
C624 C629 1.425 . S
C624 C631 1.409 . S
C625 H617 0.930 . S
C625 C623 1.419 . S
C625 C626 1.362 . S
C626 H618 0.930 . S
C626 C625 1.362 . S
C626 C629 1.409 . S
C627 H619 0.930 . S
C627 C628 1.355 . S
C627 C629 1.415 . S
C628 C627 1.355 . S
C628 C630 1.419 . S
C629 C624 1.425 . S
C629 C626 1.409 . S
C629 C627 1.415 . S
C630 H620 0.930 . S
C630 C628 1.419 . S
C630 C631 1.362 . S
C631 H621 0.930 . S
C631 C624 1.409 . S
C631 C630 1.362 . S
H632 C638 0.930 . S
H633 C641 0.930 . S
H634 C642 0.930 . S
H635 C643 0.930 . S
H636 C646 0.930 . S
H637 C647 0.930 . S
C638 H632 0.930 . S
C638 C639 1.355 . S
C638 C640 1.415 . S
C639 C638 1.355 . S
C639 C641 1.419 . S
C640 C638 1.415 . S
C640 C645 1.425 . S
C640 C647 1.409 . S
C641 H633 0.930 . S
C641 C639 1.419 . S
C641 C642 1.362 . S
C642 H634 0.930 . S
C642 C641 1.362 . S
C642 C645 1.409 . S
C643 H635 0.930 . S
C643 C644 1.355 . S
C643 C645 1.415 . S
C644 C643 1.355 . S
C644 C646 1.419 . S
C645 C640 1.425 . S
C645 C642 1.409 . S
C645 C643 1.415 . S
C646 H636 0.930 . S
C646 C644 1.419 . S
C646 C647 1.362 . S
C647 H637 0.930 . S
C647 C640 1.409 . S
C647 C646 1.362 . S
H648 C654 0.930 . S
H649 C657 0.930 . S
H650 C658 0.930 . S
H651 C659 0.930 . S
H652 C662 0.930 . S
H653 C663 0.930 . S
C654 H648 0.930 . S
C654 C655 1.355 . S
C654 C656 1.415 . S
C655 C654 1.355 . S
C655 C657 1.419 . S
C656 C654 1.415 . S
C656 C661 1.425 . S
C656 C663 1.409 . S
C657 H649 0.930 . S
C657 C655 1.419 . S
C657 C658 1.362 . S
C658 H650 0.930 . S
C658 C657 1.362 . S
C658 C661 1.409 . S
C659 H651 0.930 . S
C659 C660 1.355 . S
C659 C661 1.415 . S
C660 C659 1.355 . S
C660 C662 1.419 . S
C661 C656 1.425 . S
C661 C658 1.409 . S
C661 C659 1.415 . S
C662 H652 0.930 . S
C662 C660 1.419 . S
C662 C663 1.362 . S
C663 H653 0.930 . S
C663 C656 1.409 . S
C663 C662 1.362 . S
H664 C670 0.930 . S
H665 C673 0.930 1_556 S
H666 C674 0.930 . S
H667 C675 0.930 . S
H668 C678 0.930 . S
H669 C679 0.930 . S
C670 H664 0.930 . S
C670 C671 1.355 . S
C670 C672 1.415 . S
C671 C670 1.355 . S
C671 C673 1.419 . S
C672 C670 1.415 . S
C672 C677 1.425 . S
C672 C679 1.409 . S
C673 H665 0.930 1_554 S
C673 C671 1.419 . S
C673 C674 1.362 . S
C674 H666 0.930 . S
C674 C673 1.362 . S
C674 C677 1.409 . S
C675 H667 0.930 . S
C675 C676 1.355 . S
C675 C677 1.415 . S
C676 C675 1.355 . S
C676 C678 1.419 . S
C677 C672 1.425 . S
C677 C674 1.409 . S
C677 C675 1.415 . S
C678 H668 0.930 . S
C678 C676 1.419 . S
C678 C679 1.362 . S
C679 H669 0.930 . S
C679 C672 1.409 . S
C679 C678 1.362 . S
H680 C686 0.930 . S
H681 C689 0.930 . S
H682 C690 0.930 . S
H683 C691 0.930 . S
H684 C694 0.927 1_556 S
H685 C695 0.930 1_556 S
C686 H680 0.930 . S
C686 C687 1.355 . S
C686 C688 1.415 . S
C687 C686 1.355 . S
C687 C689 1.419 . S
C688 C686 1.415 . S
C688 C693 1.425 . S
C688 C695 1.409 . S
C689 H681 0.930 . S
C689 C687 1.419 . S
C689 C690 1.362 . S
C690 H682 0.930 . S
C690 C689 1.362 . S
C690 C693 1.409 . S
C691 H683 0.930 . S
C691 C692 1.355 . S
C691 C693 1.415 . S
C692 C691 1.355 . S
C692 C694 1.422 . S
C693 C688 1.425 . S
C693 C690 1.409 . S
C693 C691 1.415 . S
C694 H684 0.927 1_554 S
C694 C692 1.422 . S
C694 C695 1.363 . S
C695 H685 0.930 1_554 S
C695 C688 1.409 . S
C695 C694 1.363 . S
H696 C702 0.930 . S
H697 C705 0.930 . S
H698 C706 0.930 . S
H699 C707 0.930 . S
H700 C710 0.939 . S
H701 C711 0.930 1_554 S
C702 H696 0.930 . S
C702 C703 1.355 . S
C702 C704 1.415 . S
C703 C702 1.355 . S
C703 C705 1.419 . S
C704 C702 1.415 . S
C704 C709 1.425 . S
C704 C711 1.409 . S
C705 H697 0.930 . S
C705 C703 1.419 . S
C705 C706 1.362 . S
C706 H698 0.930 . S
C706 C705 1.362 . S
C706 C709 1.409 . S
C707 H699 0.930 . S
C707 C708 1.355 . S
C707 C709 1.415 . S
C708 C707 1.355 . S
C708 C710 1.411 1_556 S
C709 C704 1.425 . S
C709 C706 1.409 . S
C709 C707 1.415 . S
C710 H700 0.939 . S
C710 C708 1.411 1_554 S
C710 C711 1.361 1_554 S
C711 H701 0.930 1_556 S
C711 C704 1.409 . S
C711 C710 1.361 1_556 S
H712 C718 0.930 . S
H713 C721 0.930 . S
H714 C722 0.930 . S
H715 C723 0.930 . S
H716 C726 0.930 . S
H717 C727 0.930 . S
C718 H712 0.930 . S
C718 C719 1.355 . S
C718 C720 1.415 . S
C719 C718 1.355 . S
C719 C721 1.419 . S
C720 C718 1.415 . S
C720 C725 1.425 . S
C720 C727 1.409 . S
C721 H713 0.930 . S
C721 C719 1.419 . S
C721 C722 1.362 . S
C722 H714 0.930 . S
C722 C721 1.362 . S
C722 C725 1.409 . S
C723 H715 0.930 . S
C723 C724 1.355 . S
C723 C725 1.415 . S
C724 C723 1.355 . S
C724 C726 1.419 . S
C725 C720 1.425 . S
C725 C722 1.409 . S
C725 C723 1.415 . S
C726 H716 0.930 . S
C726 C724 1.419 . S
C726 C727 1.362 . S
C727 H717 0.930 . S
C727 C720 1.409 . S
C727 C726 1.362 . S
H728 C734 0.930 . S
H729 C737 0.930 . S
H730 C738 0.930 . S
H731 C739 0.930 . S
H732 C742 0.930 . S
H733 C743 0.930 . S
C734 H728 0.930 . S
C734 C735 1.355 . S
C734 C736 1.415 . S
C735 C734 1.355 . S
C735 C737 1.419 . S
C736 C734 1.415 . S
C736 C741 1.425 . S
C736 C743 1.409 . S
C737 H729 0.930 . S
C737 C735 1.419 . S
C737 C738 1.362 . S
C738 H730 0.930 . S
C738 C737 1.362 . S
C738 C741 1.409 . S
C739 H731 0.930 . S
C739 C740 1.355 . S
C739 C741 1.415 . S
C740 C739 1.355 . S
C740 C742 1.419 . S
C741 C736 1.425 . S
C741 C738 1.409 . S
C741 C739 1.415 . S
C742 H732 0.930 . S
C742 C740 1.419 . S
C742 C743 1.362 . S
C743 H733 0.930 . S
C743 C736 1.409 . S
C743 C742 1.362 . S
H744 C750 0.930 . S
H745 C753 0.930 . S
H746 C754 0.930 . S
H747 C755 0.930 . S
H748 C758 0.930 . S
H749 C759 0.930 . S
C750 H744 0.930 . S
C750 C751 1.355 . S
C750 C752 1.415 . S
C751 C750 1.355 . S
C751 C753 1.419 . S
C752 C750 1.415 . S
C752 C757 1.425 . S
C752 C759 1.409 . S
C753 H745 0.930 . S
C753 C751 1.419 . S
C753 C754 1.362 . S
C754 H746 0.930 . S
C754 C753 1.362 . S
C754 C757 1.409 . S
C755 H747 0.930 . S
C755 C756 1.355 . S
C755 C757 1.415 . S
C756 C755 1.355 . S
C756 C758 1.419 . S
C757 C752 1.425 . S
C757 C754 1.409 . S
C757 C755 1.415 . S
C758 H748 0.930 . S
C758 C756 1.419 . S
C758 C759 1.362 . S
C759 H749 0.930 . S
C759 C752 1.409 . S
C759 C758 1.362 . S
H760 C766 0.930 . S
H761 C769 0.930 . S
H762 C770 0.930 . S
H763 C771 0.930 . S
H764 C774 0.930 . S
H765 C775 0.930 . S
C766 H760 0.930 . S
C766 C767 1.355 . S
C766 C768 1.415 . S
C767 C766 1.355 . S
C767 C769 1.419 . S
C768 C766 1.415 . S
C768 C773 1.425 . S
C768 C775 1.409 . S
C769 H761 0.930 . S
C769 C767 1.419 . S
C769 C770 1.362 . S
C770 H762 0.930 . S
C770 C769 1.362 . S
C770 C773 1.409 . S
C771 H763 0.930 . S
C771 C772 1.355 . S
C771 C773 1.415 . S
C772 C771 1.355 . S
C772 C774 1.419 . S
C773 C768 1.425 . S
C773 C770 1.409 . S
C773 C771 1.415 . S
C774 H764 0.930 . S
C774 C772 1.419 . S
C774 C775 1.362 . S
C775 H765 0.930 . S
C775 C768 1.409 . S
C775 C774 1.362 . S
H776 C782 0.930 . S
H777 C785 0.930 . S
H778 C786 0.930 . S
H779 C787 0.930 . S
H780 C790 0.930 . S
H781 C791 0.930 . S
C782 H776 0.930 . S
C782 C783 1.355 . S
C782 C784 1.415 . S
C783 C782 1.355 . S
C783 C785 1.419 . S
C784 C782 1.415 . S
C784 C789 1.425 . S
C784 C791 1.409 . S
C785 H777 0.930 . S
C785 C783 1.419 . S
C785 C786 1.362 . S
C786 H778 0.930 . S
C786 C785 1.362 . S
C786 C789 1.409 . S
C787 H779 0.930 . S
C787 C788 1.355 . S
C787 C789 1.415 . S
C788 C787 1.355 . S
C788 C790 1.419 . S
C789 C784 1.425 . S
C789 C786 1.409 . S
C789 C787 1.415 . S
C790 H780 0.930 . S
C790 C788 1.419 . S
C790 C791 1.362 . S
C791 H781 0.930 . S
C791 C784 1.409 . S
C791 C790 1.362 . S
H792 C798 0.930 . S
H793 C801 0.930 . S
H794 C802 0.930 . S
H795 C803 0.930 . S
H796 C806 0.930 . S
H797 C807 0.930 . S
C798 H792 0.930 . S
C798 C799 1.355 . S
C798 C800 1.415 . S
C799 C798 1.355 . S
C799 C801 1.419 . S
C800 C798 1.415 . S
C800 C805 1.425 . S
C800 C807 1.409 . S
C801 H793 0.930 . S
C801 C799 1.419 . S
C801 C802 1.362 . S
C802 H794 0.930 . S
C802 C801 1.362 . S
C802 C805 1.409 . S
C803 H795 0.930 . S
C803 C804 1.355 1_556 S
C803 C805 1.415 . S
C804 C803 1.355 1_554 S
C804 C806 1.419 . S
C805 C800 1.425 . S
C805 C802 1.409 . S
C805 C803 1.415 . S
C806 H796 0.930 . S
C806 C804 1.419 . S
C806 C807 1.362 1_554 S
C807 H797 0.930 . S
C807 C800 1.409 . S
C807 C806 1.362 1_556 S
H808 C814 0.930 1_554 S
H809 C817 0.930 . S
H810 C818 0.930 . S
H811 C819 0.930 . S
H812 C822 0.930 . S
H813 C823 0.930 . S
C814 H808 0.930 1_556 S
C814 C815 1.355 . S
C814 C816 1.415 . S
C815 C814 1.355 . S
C815 C817 1.419 . S
C816 C814 1.415 . S
C816 C821 1.425 . S
C816 C823 1.409 . S
C817 H809 0.930 . S
C817 C815 1.419 . S
C817 C818 1.362 . S
C818 H810 0.930 . S
C818 C817 1.362 . S
C818 C821 1.409 . S
C819 H811 0.930 . S
C819 C820 1.355 . S
C819 C821 1.415 . S
C820 C819 1.355 . S
C820 C822 1.419 . S
C821 C816 1.425 . S
C821 C818 1.409 . S
C821 C819 1.415 . S
C822 H812 0.930 . S
C822 C820 1.419 . S
C822 C823 1.362 . S
C823 H813 0.930 . S
C823 C816 1.409 . S
C823 C822 1.362 . S
H824 C830 0.930 . S
H825 C833 0.930 1_554 S
H826 C834 0.930 . S
H827 C835 0.930 . S
H828 C838 0.930 . S
H829 C839 0.930 . S
C830 H824 0.930 . S
C830 C831 1.355 1_556 S
C830 C832 1.415 . S
C831 C830 1.355 1_554 S
C831 C833 1.419 1_554 S
C832 C830 1.415 . S
C832 C837 1.425 . S
C832 C839 1.409 . S
C833 H825 0.930 1_556 S
C833 C831 1.419 1_556 S
C833 C834 1.362 . S
C834 H826 0.930 . S
C834 C833 1.362 . S
C834 C837 1.409 . S
C835 H827 0.930 . S
C835 C836 1.355 . S
C835 C837 1.415 . S
C836 C835 1.355 . S
C836 C838 1.419 . S
C837 C832 1.425 . S
C837 C834 1.409 . S
C837 C835 1.415 . S
C838 H828 0.930 . S
C838 C836 1.419 . S
C838 C839 1.362 . S
C839 H829 0.930 . S
C839 C832 1.409 . S
C839 C838 1.362 . S
H840 C846 0.930 . S
H841 C849 0.930 . S
H842 C850 0.930 . S
H843 C851 0.930 . S
H844 C854 0.930 . S
H845 C855 0.930 . S
C846 H840 0.930 . S
C846 C847 1.355 . S
C846 C848 1.415 . S
C847 C846 1.355 . S
C847 C849 1.419 . S
C848 C846 1.415 . S
C848 C853 1.425 . S
C848 C855 1.409 . S
C849 H841 0.930 . S
C849 C847 1.419 . S
C849 C850 1.362 . S
C850 H842 0.930 . S
C850 C849 1.362 . S
C850 C853 1.409 . S
C851 H843 0.930 . S
C851 C852 1.355 . S
C851 C853 1.415 . S
C852 C851 1.355 . S
C852 C854 1.419 . S
C853 C848 1.425 . S
C853 C850 1.409 . S
C853 C851 1.415 . S
C854 H844 0.930 . S
C854 C852 1.419 . S
C854 C855 1.362 . S
C855 H845 0.930 . S
C855 C848 1.409 . S
C855 C854 1.362 . S
H856 C862 0.930 . S
H857 C865 0.930 . S
H858 C866 0.930 . S
H859 C867 0.930 . S
H860 C870 0.930 . S
H861 C871 0.930 . S
C862 H856 0.930 . S
C862 C863 1.355 . S
C862 C864 1.415 . S
C863 C862 1.355 . S
C863 C865 1.419 . S
C864 C862 1.415 . S
C864 C869 1.425 . S
C864 C871 1.409 . S
C865 H857 0.930 . S
C865 C863 1.419 . S
C865 C866 1.362 . S
C866 H858 0.930 . S
C866 C865 1.362 . S
C866 C869 1.409 . S
C867 H859 0.930 . S
C867 C868 1.355 . S
C867 C869 1.415 . S
C868 C867 1.355 . S
C868 C870 1.419 . S
C869 C864 1.425 . S
C869 C866 1.409 . S
C869 C867 1.415 . S
C870 H860 0.930 . S
C870 C868 1.419 . S
C870 C871 1.362 . S
C871 H861 0.930 . S
C871 C864 1.409 . S
C871 C870 1.362 . S
H872 C878 0.930 . S
H873 C881 0.930 . S
H874 C882 0.930 . S
H875 C883 0.930 . S
H876 C886 0.930 . S
H877 C887 0.930 . S
C878 H872 0.930 . S
C878 C879 1.355 . S
C878 C880 1.415 . S
C879 C878 1.355 . S
C879 C881 1.419 . S
C880 C878 1.415 . S
C880 C885 1.425 . S
C880 C887 1.409 . S
C881 H873 0.930 . S
C881 C879 1.419 . S
C881 C882 1.362 . S
C882 H874 0.930 . S
C882 C881 1.362 . S
C882 C885 1.409 . S
C883 H875 0.930 . S
C883 C884 1.355 . S
C883 C885 1.415 . S
C884 C883 1.355 . S
C884 C886 1.419 . S
C885 C880 1.425 . S
C885 C882 1.409 . S
C885 C883 1.415 . S
C886 H876 0.930 . S
C886 C884 1.419 . S
C886 C887 1.362 . S
C887 H877 0.930 . S
C887 C880 1.409 . S
C887 C886 1.362 . S
H888 C894 0.930 1_556 S
H889 C897 0.930 . S
H890 C898 0.930 . S
H891 C899 0.930 . S
H892 C902 0.930 . S
H893 C903 0.930 . S
C894 H888 0.930 1_554 S
C894 C895 1.355 . S
C894 C896 1.415 . S
C895 C894 1.355 . S
C895 C897 1.419 . S
C896 C894 1.415 . S
C896 C901 1.425 . S
C896 C903 1.409 . S
C897 H889 0.930 . S
C897 C895 1.419 . S
C897 C898 1.362 . S
C898 H890 0.930 . S
C898 C897 1.362 . S
C898 C901 1.409 . S
C899 H891 0.930 . S
C899 C900 1.355 . S
C899 C901 1.415 . S
C900 C899 1.355 . S
C900 C902 1.419 . S
C901 C896 1.425 . S
C901 C898 1.409 . S
C901 C899 1.415 . S
C902 H892 0.930 . S
C902 C900 1.419 . S
C902 C903 1.362 . S
C903 H893 0.930 . S
C903 C896 1.409 . S
C903 C902 1.362 . S
H904 C910 0.930 1_556 S
H905 C913 0.930 . S
H906 C914 0.930 . S
H907 C915 0.930 . S
H908 C918 0.930 . S
H909 C919 0.930 . S
C910 H904 0.930 1_554 S
C910 C911 1.355 . S
C910 C912 1.415 . S
C911 C910 1.355 . S
C911 C913 1.419 . S
C912 C910 1.415 . S
C912 C917 1.425 . S
C912 C919 1.409 . S
C913 H905 0.930 . S
C913 C911 1.419 . S
C913 C914 1.362 . S
C914 H906 0.930 . S
C914 C913 1.362 . S
C914 C917 1.409 . S
C915 H907 0.930 . S
C915 C916 1.355 . S
C915 C917 1.415 . S
C916 C915 1.355 . S
C916 C918 1.419 . S
C917 C912 1.425 . S
C917 C914 1.409 . S
C917 C915 1.415 . S
C918 H908 0.930 . S
C918 C916 1.419 . S
C918 C919 1.362 . S
C919 H909 0.930 . S
C919 C912 1.409 . S
C919 C918 1.362 . S
H920 C926 0.930 . S
H921 C929 0.930 . S
H922 C930 0.930 . S
H923 C931 0.930 . S
H924 C934 0.930 . S
H925 C935 0.930 . S
C926 H920 0.930 . S
C926 C927 1.355 . S
C926 C928 1.415 . S
C927 C926 1.355 . S
C927 C929 1.419 . S
C928 C926 1.415 . S
C928 C933 1.425 . S
C928 C935 1.409 . S
C929 H921 0.930 . S
C929 C927 1.419 . S
C929 C930 1.362 . S
C930 H922 0.930 . S
C930 C929 1.362 . S
C930 C933 1.409 . S
C931 H923 0.930 . S
C931 C932 1.355 1_554 S
C931 C933 1.415 . S
C932 C931 1.355 1_556 S
C932 C934 1.419 . S
C933 C928 1.425 . S
C933 C930 1.409 . S
C933 C931 1.415 . S
C934 H924 0.930 . S
C934 C932 1.419 . S
C934 C935 1.362 1_556 S
C935 H925 0.930 . S
C935 C928 1.409 . S
C935 C934 1.362 1_554 S
H936 C942 0.930 . S
H937 C945 0.930 . S
H938 C946 0.930 . S
H939 C947 0.930 . S
H940 C950 0.930 . S
H941 C951 0.930 . S
C942 H936 0.930 . S
C942 C943 1.355 . S
C942 C944 1.415 . S
C943 C942 1.355 . S
C943 C945 1.419 . S
C944 C942 1.415 . S
C944 C949 1.425 . S
C944 C951 1.409 . S
C945 H937 0.930 . S
C945 C943 1.419 . S
C945 C946 1.362 . S
C946 H938 0.930 . S
C946 C945 1.362 . S
C946 C949 1.409 . S
C947 H939 0.930 . S
C947 C948 1.355 . S
C947 C949 1.415 . S
C948 C947 1.355 . S
C948 C950 1.419 . S
C949 C944 1.425 . S
C949 C946 1.409 . S
C949 C947 1.415 . S
C950 H940 0.930 . S
C950 C948 1.419 . S
C950 C951 1.362 . S
C951 H941 0.930 . S
C951 C944 1.409 . S
C951 C950 1.362 . S
H952 C958 0.930 . S
H953 C961 0.930 . S
H954 C962 0.930 . S
H955 C963 0.930 . S
H956 C966 0.930 . S
H957 C967 0.930 . S
C958 H952 0.930 . S
C958 C959 1.355 . S
C958 C960 1.415 . S
C959 C958 1.355 . S
C959 C961 1.419 . S
C960 C958 1.415 . S
C960 C965 1.425 . S
C960 C967 1.409 . S
C961 H953 0.930 . S
C961 C959 1.419 . S
C961 C962 1.362 . S
C962 H954 0.930 . S
C962 C961 1.362 . S
C962 C965 1.409 . S
C963 H955 0.930 . S
C963 C964 1.355 . S
C963 C965 1.415 . S
C964 C963 1.355 . S
C964 C966 1.419 . S
C965 C960 1.425 . S
C965 C962 1.409 . S
C965 C963 1.415 . S
C966 H956 0.930 . S
C966 C964 1.419 . S
C966 C967 1.362 . S
C967 H957 0.930 . S
C967 C960 1.409 . S
C967 C966 1.362 . S
H968 C974 0.930 . S
H969 C977 0.930 . S
H970 C978 0.930 . S
H971 C979 0.930 . S
H972 C982 0.930 . S
H973 C983 0.930 . S
C974 H968 0.930 . S
C974 C975 1.355 . S
C974 C976 1.415 . S
C975 C974 1.355 . S
C975 C977 1.419 . S
C976 C974 1.415 . S
C976 C981 1.425 . S
C976 C983 1.409 . S
C977 H969 0.930 . S
C977 C975 1.419 . S
C977 C978 1.362 . S
C978 H970 0.930 . S
C978 C977 1.362 . S
C978 C981 1.409 . S
C979 H971 0.930 . S
C979 C980 1.355 . S
C979 C981 1.415 . S
C980 C979 1.355 . S
C980 C982 1.419 . S
C981 C976 1.425 . S
C981 C978 1.409 . S
C981 C979 1.415 . S
C982 H972 0.930 . S
C982 C980 1.419 . S
C982 C983 1.362 . S
C983 H973 0.930 . S
C983 C976 1.409 . S
C983 C982 1.362 . S
H984 C990 0.930 . S
H985 C993 0.930 . S
H986 C994 0.930 . S
H987 C995 0.930 . S
H988 C998 0.930 . S
H989 C999 0.930 . S
C990 H984 0.930 . S
C990 C991 1.355 . S
C990 C992 1.415 . S
C991 C990 1.355 . S
C991 C993 1.419 . S
C992 C990 1.415 . S
C992 C997 1.425 . S
C992 C999 1.409 . S
C993 H985 0.930 . S
C993 C991 1.419 . S
C993 C994 1.362 . S
C994 H986 0.930 . S
C994 C993 1.362 . S
C994 C997 1.409 . S
C995 H987 0.930 . S
C995 C996 1.355 . S
C995 C997 1.415 . S
C996 C995 1.355 . S
C996 C998 1.419 . S
C997 C992 1.425 . S
C997 C994 1.409 . S
C997 C995 1.415 . S
C998 H988 0.930 . S
C998 C996 1.419 . S
C998 C999 1.362 . S
C999 H989 0.930 . S
C999 C992 1.409 . S
C999 C998 1.362 . S
H1000 C1006 0.930 . S
H1001 C1009 0.930 . S
H1002 C1010 0.930 . S
H1003 C1011 0.930 . S
H1004 C1014 0.930 . S
H1005 C1015 0.930 . S
C1006 H1000 0.930 . S
C1006 C1007 1.355 . S
C1006 C1008 1.415 . S
C1007 C1006 1.355 . S
C1007 C1009 1.419 . S
C1008 C1006 1.415 . S
C1008 C1013 1.425 . S
C1008 C1015 1.409 . S
C1009 H1001 0.930 . S
C1009 C1007 1.419 . S
C1009 C1010 1.362 . S
C1010 H1002 0.930 . S
C1010 C1009 1.362 . S
C1010 C1013 1.409 . S
C1011 H1003 0.930 . S
C1011 C1012 1.355 . S
C1011 C1013 1.415 . S
C1012 C1011 1.355 . S
C1012 C1014 1.419 . S
C1013 C1008 1.425 . S
C1013 C1010 1.409 . S
C1013 C1011 1.415 . S
C1014 H1004 0.930 . S
C1014 C1012 1.419 . S
C1014 C1015 1.362 . S
C1015 H1005 0.930 . S
C1015 C1008 1.409 . S
C1015 C1014 1.362 . S
H1016 C1022 0.930 . S
H1017 C1025 0.930 . S
H1018 C1026 0.930 . S
H1019 C1027 0.930 . S
H1020 C1030 0.930 . S
H1021 C1031 0.930 . S
C1022 H1016 0.930 . S
C1022 C1023 1.355 . S
C1022 C1024 1.415 . S
C1023 C1022 1.355 . S
C1023 C1025 1.419 . S
C1024 C1022 1.415 . S
C1024 C1029 1.425 . S
C1024 C1031 1.409 . S
C1025 H1017 0.930 . S
C1025 C1023 1.419 . S
C1025 C1026 1.362 . S
C1026 H1018 0.930 . S
C1026 C1025 1.362 . S
C1026 C1029 1.409 . S
C1027 H1019 0.930 . S
C1027 C1028 1.355 . S
C1027 C1029 1.415 . S
C1028 C1027 1.355 . S
C1028 C1030 1.419 . S
C1029 C1024 1.425 . S
C1029 C1026 1.409 . S
C1029 C1027 1.415 . S
C1030 H1020 0.930 . S
C1030 C1028 1.419 . S
C1030 C1031 1.362 . S
C1031 H1021 0.930 . S
C1031 C1024 1.409 . S
C1031 C1030 1.362 . S
H1032 C1038 0.930 . S
H1033 C1041 0.930 . S
H1034 C1042 0.930 . S
H1035 C1043 0.930 . S
H1036 C1046 0.930 . S
H1037 C1047 0.930 . S
C1038 H1032 0.930 . S
C1038 C1039 1.355 . S
C1038 C1040 1.415 . S
C1039 C1038 1.355 . S
C1039 C1041 1.419 . S
C1040 C1038 1.415 . S
C1040 C1045 1.425 . S
C1040 C1047 1.409 . S
C1041 H1033 0.930 . S
C1041 C1039 1.419 . S
C1041 C1042 1.362 . S
C1042 H1034 0.930 . S
C1042 C1041 1.362 . S
C1042 C1045 1.409 . S
C1043 H1035 0.930 . S
C1043 C1044 1.355 . S
C1043 C1045 1.415 1_554 S
C1044 C1043 1.355 . S
C1044 C1046 1.419 1_554 S
C1045 C1040 1.425 . S
C1045 C1042 1.409 . S
C1045 C1043 1.415 1_556 S
C1046 H1036 0.930 . S
C1046 C1044 1.419 1_556 S
C1046 C1047 1.362 . S
C1047 H1037 0.930 . S
C1047 C1040 1.409 . S
C1047 C1046 1.362 . S
H1048 C1054 0.930 . S
H1049 C1057 0.930 . S
H1050 C1058 0.930 . S
H1051 C1059 0.930 . S
H1052 C1062 0.930 . S
H1053 C1063 0.930 . S
C1054 H1048 0.930 . S
C1054 C1055 1.355 1_556 S
C1054 C1056 1.415 . S
C1055 C1054 1.355 1_554 S
C1055 C1057 1.419 . S
C1056 C1054 1.415 . S
C1056 C1061 1.425 . S
C1056 C1063 1.409 . S
C1057 H1049 0.930 . S
C1057 C1055 1.419 . S
C1057 C1058 1.362 1_554 S
C1058 H1050 0.930 . S
C1058 C1057 1.362 1_556 S
C1058 C1061 1.409 . S
C1059 H1051 0.930 . S
C1059 C1060 1.355 . S
C1059 C1061 1.415 . S
C1060 C1059 1.355 . S
C1060 C1062 1.419 . S
C1061 C1056 1.425 . S
C1061 C1058 1.409 . S
C1061 C1059 1.415 . S
C1062 H1052 0.930 . S
C1062 C1060 1.419 . S
C1062 C1063 1.362 . S
C1063 H1053 0.930 . S
C1063 C1056 1.409 . S
C1063 C1062 1.362 . S
H1064 C1070 0.930 . S
H1065 C1073 0.930 . S
H1066 C1074 0.930 . S
H1067 C1075 0.930 . S
H1068 C1078 0.930 . S
H1069 C1079 0.930 . S
C1070 H1064 0.930 . S
C1070 C1071 1.355 . S
C1070 C1072 1.415 . S
C1071 C1070 1.355 . S
C1071 C1073 1.419 . S
C1072 C1070 1.415 . S
C1072 C1077 1.425 . S
C1072 C1079 1.409 . S
C1073 H1065 0.930 . S
C1073 C1071 1.419 . S
C1073 C1074 1.362 . S
C1074 H1066 0.930 . S
C1074 C1073 1.362 . S
C1074 C1077 1.409 . S
C1075 H1067 0.930 . S
C1075 C1076 1.355 . S
C1075 C1077 1.415 1_554 S
C1076 C1075 1.355 . S
C1076 C1078 1.419 1_554 S
C1077 C1072 1.425 . S
C1077 C1074 1.409 . S
C1077 C1075 1.415 1_556 S
C1078 H1068 0.930 . S
C1078 C1076 1.419 1_556 S
C1078 C1079 1.362 . S
C1079 H1069 0.930 . S
C1079 C1072 1.409 . S
C1079 C1078 1.362 . S
H1080 C1086 0.930 . S
H1081 C1089 0.930 . S
H1082 C1090 0.930 . S
H1083 C1091 0.930 . S
H1084 C1094 0.930 . S
H1085 C1095 0.930 . S
C1086 H1080 0.930 . S
C1086 C1087 1.355 . S
C1086 C1088 1.415 . S
C1087 C1086 1.355 . S
C1087 C1089 1.419 . S
C1088 C1086 1.415 . S
C1088 C1093 1.425 . S
C1088 C1095 1.409 . S
C1089 H1081 0.930 . S
C1089 C1087 1.419 . S
C1089 C1090 1.362 . S
C1090 H1082 0.930 . S
C1090 C1089 1.362 . S
C1090 C1093 1.409 . S
C1091 H1083 0.930 . S
C1091 C1092 1.355 . S
C1091 C1093 1.415 . S
C1092 C1091 1.355 . S
C1092 C1094 1.419 . S
C1093 C1088 1.425 . S
C1093 C1090 1.409 . S
C1093 C1091 1.415 . S
C1094 H1084 0.930 . S
C1094 C1092 1.419 . S
C1094 C1095 1.362 . S
C1095 H1085 0.930 . S
C1095 C1088 1.409 . S
C1095 C1094 1.362 . S
H1096 C1102 0.930 . S
H1097 C1105 0.930 . S
H1098 C1106 0.930 . S
H1099 C1107 0.930 . S
H1100 C1110 0.930 . S
H1101 C1111 0.930 . S
C1102 H1096 0.930 . S
C1102 C1103 1.355 . S
C1102 C1104 1.415 . S
C1103 C1102 1.355 . S
C1103 C1105 1.419 . S
C1104 C1102 1.415 . S
C1104 C1109 1.425 . S
C1104 C1111 1.409 . S
C1105 H1097 0.930 . S
C1105 C1103 1.419 . S
C1105 C1106 1.362 . S
C1106 H1098 0.930 . S
C1106 C1105 1.362 . S
C1106 C1109 1.409 . S
C1107 H1099 0.930 . S
C1107 C1108 1.355 . S
C1107 C1109 1.415 . S
C1108 C1107 1.355 . S
C1108 C1110 1.419 . S
C1109 C1104 1.425 . S
C1109 C1106 1.409 . S
C1109 C1107 1.415 . S
C1110 H1100 0.930 . S
C1110 C1108 1.419 . S
C1110 C1111 1.362 . S
C1111 H1101 0.930 . S
C1111 C1104 1.409 . S
C1111 C1110 1.362 . S
H1112 C1118 0.930 . S
H1113 C1121 0.930 . S
H1114 C1122 0.930 . S
H1115 C1123 0.930 . S
H1116 C1126 0.930 . S
H1117 C1127 0.930 . S
C1118 H1112 0.930 . S
C1118 C1119 1.355 . S
C1118 C1120 1.415 . S
C1119 C1118 1.355 . S
C1119 C1121 1.419 . S
C1120 C1118 1.415 . S
C1120 C1125 1.425 . S
C1120 C1127 1.409 . S
C1121 H1113 0.930 . S
C1121 C1119 1.419 . S
C1121 C1122 1.362 . S
C1122 H1114 0.930 . S
C1122 C1121 1.362 . S
C1122 C1125 1.409 . S
C1123 H1115 0.930 . S
C1123 C1124 1.355 . S
C1123 C1125 1.415 . S
C1124 C1123 1.355 . S
C1124 C1126 1.419 . S
C1125 C1120 1.425 . S
C1125 C1122 1.409 . S
C1125 C1123 1.415 . S
C1126 H1116 0.930 . S
C1126 C1124 1.419 . S
C1126 C1127 1.362 . S
C1127 H1117 0.930 . S
C1127 C1120 1.409 . S
C1127 C1126 1.362 . S
H1128 C1134 0.930 . S
H1129 C1137 0.930 . S
H1130 C1138 0.930 . S
H1131 C1139 0.930 . S
H1132 C1142 0.930 . S
H1133 C1143 0.930 . S
C1134 H1128 0.930 . S
C1134 C1135 1.355 . S
C1134 C1136 1.415 . S
C1135 C1134 1.355 . S
C1135 C1137 1.419 . S
C1136 C1134 1.415 . S
C1136 C1141 1.425 . S
C1136 C1143 1.409 . S
C1137 H1129 0.930 . S
C1137 C1135 1.419 . S
C1137 C1138 1.362 . S
C1138 H1130 0.930 . S
C1138 C1137 1.362 . S
C1138 C1141 1.409 . S
C1139 H1131 0.930 . S
C1139 C1140 1.355 . S
C1139 C1141 1.415 . S
C1140 C1139 1.355 . S
C1140 C1142 1.419 . S
C1141 C1136 1.425 . S
C1141 C1138 1.409 . S
C1141 C1139 1.415 . S
C1142 H1132 0.930 . S
C1142 C1140 1.419 . S
C1142 C1143 1.362 . S
C1143 H1133 0.930 . S
C1143 C1136 1.409 . S
C1143 C1142 1.362 . S
H1144 C1150 0.930 . S
H1145 C1153 0.930 . S
H1146 C1154 0.930 . S
H1147 C1155 0.930 . S
H1148 C1158 0.930 . S
H1149 C1159 0.930 . S
C1150 H1144 0.930 . S
C1150 C1151 1.355 . S
C1150 C1152 1.415 . S
C1151 C1150 1.355 . S
C1151 C1153 1.419 . S
C1152 C1150 1.415 . S
C1152 C1157 1.425 . S
C1152 C1159 1.409 . S
C1153 H1145 0.930 . S
C1153 C1151 1.419 . S
C1153 C1154 1.362 . S
C1154 H1146 0.930 . S
C1154 C1153 1.362 . S
C1154 C1157 1.409 . S
C1155 H1147 0.930 . S
C1155 C1156 1.355 . S
C1155 C1157 1.415 . S
C1156 C1155 1.355 . S
C1156 C1158 1.419 . S
C1157 C1152 1.425 . S
C1157 C1154 1.409 . S
C1157 C1155 1.415 . S
C1158 H1148 0.930 . S
C1158 C1156 1.419 . S
C1158 C1159 1.362 . S
C1159 H1149 0.930 . S
C1159 C1152 1.409 . S
C1159 C1158 1.362 . S
H1160 C1166 0.930 . S
H1161 C1169 0.930 . S
H1162 C1170 0.930 . S
H1163 C1171 0.930 . S
H1164 C1174 0.930 . S
H1165 C1175 0.930 . S
C1166 H1160 0.930 . S
C1166 C1167 1.355 . S
C1166 C1168 1.415 . S
C1167 C1166 1.355 . S
C1167 C1169 1.419 . S
C1168 C1166 1.415 . S
C1168 C1173 1.425 . S
C1168 C1175 1.409 . S
C1169 H1161 0.930 . S
C1169 C1167 1.419 . S
C1169 C1170 1.362 . S
C1170 H1162 0.930 . S
C1170 C1169 1.362 . S
C1170 C1173 1.409 . S
C1171 H1163 0.930 . S
C1171 C1172 1.355 . S
C1171 C1173 1.415 . S
C1172 C1171 1.355 . S
C1172 C1174 1.419 . S
C1173 C1168 1.425 . S
C1173 C1170 1.409 . S
C1173 C1171 1.415 . S
C1174 H1164 0.930 . S
C1174 C1172 1.419 . S
C1174 C1175 1.362 . S
C1175 H1165 0.930 . S
C1175 C1168 1.409 . S
C1175 C1174 1.362 . S
H1176 C1182 0.930 . S
H1177 C1185 0.930 . S
H1178 C1186 0.930 . S
H1179 C1187 0.930 . S
H1180 C1190 0.930 . S
H1181 C1191 0.930 . S
C1182 H1176 0.930 . S
C1182 C1183 1.355 . S
C1182 C1184 1.415 . S
C1183 C1182 1.355 . S
C1183 C1185 1.419 . S
C1184 C1182 1.415 . S
C1184 C1189 1.425 . S
C1184 C1191 1.409 . S
C1185 H1177 0.930 . S
C1185 C1183 1.419 . S
C1185 C1186 1.362 . S
C1186 H1178 0.930 . S
C1186 C1185 1.362 . S
C1186 C1189 1.409 . S
C1187 H1179 0.930 . S
C1187 C1188 1.355 . S
C1187 C1189 1.415 . S
C1188 C1187 1.355 . S
C1188 C1190 1.419 . S
C1189 C1184 1.425 . S
C1189 C1186 1.409 . S
C1189 C1187 1.415 . S
C1190 H1180 0.930 . S
C1190 C1188 1.419 . S
C1190 C1191 1.362 . S
C1191 H1181 0.930 . S
C1191 C1184 1.409 . S
C1191 C1190 1.362 . S
H1192 C1198 0.930 . S
H1193 C1201 0.930 . S
H1194 C1202 0.930 . S
H1195 C1203 0.930 . S
H1196 C1206 0.930 . S
H1197 C1207 0.930 . S
C1198 H1192 0.930 . S
C1198 C1199 1.355 . S
C1198 C1200 1.415 . S
C1199 C1198 1.355 . S
C1199 C1201 1.419 . S
C1200 C1198 1.415 . S
C1200 C1205 1.425 . S
C1200 C1207 1.409 . S
C1201 H1193 0.930 . S
C1201 C1199 1.419 . S
C1201 C1202 1.362 . S
C1202 H1194 0.930 . S
C1202 C1201 1.362 . S
C1202 C1205 1.409 . S
C1203 H1195 0.930 . S
C1203 C1204 1.355 . S
C1203 C1205 1.415 . S
C1204 C1203 1.355 . S
C1204 C1206 1.419 . S
C1205 C1200 1.425 . S
C1205 C1202 1.409 . S
C1205 C1203 1.415 . S
C1206 H1196 0.930 . S
C1206 C1204 1.419 . S
C1206 C1207 1.362 . S
C1207 H1197 0.930 . S
C1207 C1200 1.409 . S
C1207 C1206 1.362 . S
H1208 C1214 0.930 . S
H1209 C1217 0.930 . S
H1210 C1218 0.930 . S
H1211 C1219 0.930 . S
H1212 C1222 0.930 . S
H1213 C1223 0.930 . S
C1214 H1208 0.930 . S
C1214 C1215 1.355 . S
C1214 C1216 1.415 . S
C1215 C1214 1.355 . S
C1215 C1217 1.419 . S
C1216 C1214 1.415 . S
C1216 C1221 1.425 . S
C1216 C1223 1.409 . S
C1217 H1209 0.930 . S
C1217 C1215 1.419 . S
C1217 C1218 1.362 . S
C1218 H1210 0.930 . S
C1218 C1217 1.362 . S
C1218 C1221 1.409 . S
C1219 H1211 0.930 . S
C1219 C1220 1.355 . S
C1219 C1221 1.415 . S
C1220 C1219 1.355 . S
C1220 C1222 1.419 . S
C1221 C1216 1.425 . S
C1221 C1218 1.409 . S
C1221 C1219 1.415 . S
C1222 H1212 0.930 . S
C1222 C1220 1.419 . S
C1222 C1223 1.362 . S
C1223 H1213 0.930 . S
C1223 C1216 1.409 . S
C1223 C1222 1.362 . S
H1224 C1230 0.930 . S
H1225 C1233 0.930 . S
H1226 C1234 0.930 . S
H1227 C1235 0.930 . S
H1228 C1238 0.930 . S
H1229 C1239 0.930 . S
C1230 H1224 0.930 . S
C1230 C1231 1.355 . S
C1230 C1232 1.415 . S
C1231 C1230 1.355 . S
C1231 C1233 1.419 . S
C1232 C1230 1.415 . S
C1232 C1237 1.425 . S
C1232 C1239 1.409 . S
C1233 H1225 0.930 . S
C1233 C1231 1.419 . S
C1233 C1234 1.362 . S
C1234 H1226 0.930 . S
C1234 C1233 1.362 . S
C1234 C1237 1.409 . S
C1235 H1227 0.930 . S
C1235 C1236 1.355 . S
C1235 C1237 1.415 . S
C1236 C1235 1.355 . S
C1236 C1238 1.419 . S
C1237 C1232 1.425 . S
C1237 C1234 1.409 . S
C1237 C1235 1.415 . S
C1238 H1228 0.930 . S
C1238 C1236 1.419 . S
C1238 C1239 1.362 . S
C1239 H1229 0.930 . S
C1239 C1232 1.409 . S
C1239 C1238 1.362 . S
H1240 C1246 0.930 . S
H1241 C1249 0.930 . S
H1242 C1250 0.930 . S
H1243 C1251 0.930 . S
H1244 C1254 0.930 . S
H1245 C1255 0.930 . S
C1246 H1240 0.930 . S
C1246 C1247 1.355 . S
C1246 C1248 1.415 . S
C1247 C1246 1.355 . S
C1247 C1249 1.419 . S
C1248 C1246 1.415 . S
C1248 C1253 1.425 . S
C1248 C1255 1.409 . S
C1249 H1241 0.930 . S
C1249 C1247 1.419 . S
C1249 C1250 1.362 . S
C1250 H1242 0.930 . S
C1250 C1249 1.362 . S
C1250 C1253 1.409 . S
C1251 H1243 0.930 . S
C1251 C1252 1.355 . S
C1251 C1253 1.415 . S
C1252 C1251 1.355 . S
C1252 C1254 1.419 . S
C1253 C1248 1.425 . S
C1253 C1250 1.409 . S
C1253 C1251 1.415 . S
C1254 H1244 0.930 . S
C1254 C1252 1.419 . S
C1254 C1255 1.362 . S
C1255 H1245 0.930 . S
C1255 C1248 1.409 . S
C1255 C1254 1.362 . S
H1256 C1262 0.930 . S
H1257 C1265 0.930 . S
H1258 C1266 0.930 . S
H1259 C1267 0.930 . S
H1260 C1270 0.930 . S
H1261 C1271 0.930 . S
C1262 H1256 0.930 . S
C1262 C1263 1.355 . S
C1262 C1264 1.415 . S
C1263 C1262 1.355 . S
C1263 C1265 1.419 . S
C1264 C1262 1.415 . S
C1264 C1269 1.425 . S
C1264 C1271 1.409 . S
C1265 H1257 0.930 . S
C1265 C1263 1.419 . S
C1265 C1266 1.362 . S
C1266 H1258 0.930 . S
C1266 C1265 1.362 . S
C1266 C1269 1.409 . S
C1267 H1259 0.930 . S
C1267 C1268 1.355 . S
C1267 C1269 1.415 . S
C1268 C1267 1.355 . S
C1268 C1270 1.419 . S
C1269 C1264 1.425 . S
C1269 C1266 1.409 . S
C1269 C1267 1.415 . S
C1270 H1260 0.930 . S
C1270 C1268 1.419 . S
C1270 C1271 1.362 . S
C1271 H1261 0.930 . S
C1271 C1264 1.409 . S
C1271 C1270 1.362 . S
H1272 C1278 0.930 . S
H1273 C1281 0.930 . S
H1274 C1282 0.930 . S
H1275 C1283 0.930 . S
H1276 C1286 0.930 . S
H1277 C1287 0.930 . S
C1278 H1272 0.930 . S
C1278 C1279 1.355 . S
C1278 C1280 1.415 . S
C1279 C1278 1.355 . S
C1279 C1281 1.419 . S
C1280 C1278 1.415 . S
C1280 C1285 1.425 . S
C1280 C1287 1.409 . S
C1281 H1273 0.930 . S
C1281 C1279 1.419 . S
C1281 C1282 1.362 . S
C1282 H1274 0.930 . S
C1282 C1281 1.362 . S
C1282 C1285 1.409 . S
C1283 H1275 0.930 . S
C1283 C1284 1.355 . S
C1283 C1285 1.415 . S
C1284 C1283 1.355 . S
C1284 C1286 1.419 . S
C1285 C1280 1.425 . S
C1285 C1282 1.409 . S
C1285 C1283 1.415 . S
C1286 H1276 0.930 . S
C1286 C1284 1.419 . S
C1286 C1287 1.362 . S
C1287 H1277 0.930 . S
C1287 C1280 1.409 . S
C1287 C1286 1.362 . S
H1288 C1294 0.930 . S
H1289 C1297 0.930 . S
H1290 C1298 0.930 . S
H1291 C1299 0.930 . S
H1292 C1302 0.930 . S
H1293 C1303 0.930 . S
C1294 H1288 0.930 . S
C1294 C1295 1.355 . S
C1294 C1296 1.415 . S
C1295 C1294 1.355 . S
C1295 C1297 1.419 . S
C1296 C1294 1.415 . S
C1296 C1301 1.425 . S
C1296 C1303 1.409 . S
C1297 H1289 0.930 . S
C1297 C1295 1.419 . S
C1297 C1298 1.362 . S
C1298 H1290 0.930 . S
C1298 C1297 1.362 . S
C1298 C1301 1.409 . S
C1299 H1291 0.930 . S
C1299 C1300 1.355 . S
C1299 C1301 1.415 . S
C1300 C1299 1.355 . S
C1300 C1302 1.419 . S
C1301 C1296 1.425 . S
C1301 C1298 1.409 . S
C1301 C1299 1.415 . S
C1302 H1292 0.930 . S
C1302 C1300 1.419 . S
C1302 C1303 1.362 . S
C1303 H1293 0.930 . S
C1303 C1296 1.409 . S
C1303 C1302 1.362 . S
H1304 C1310 0.930 . S
H1305 C1313 0.930 . S
H1306 C1314 0.930 . S
H1307 C1315 0.930 . S
H1308 C1318 0.930 . S
H1309 C1319 0.930 . S
C1310 H1304 0.930 . S
C1310 C1311 1.355 . S
C1310 C1312 1.415 . S
C1311 C1310 1.355 . S
C1311 C1313 1.419 . S
C1312 C1310 1.415 . S
C1312 C1317 1.425 . S
C1312 C1319 1.409 . S
C1313 H1305 0.930 . S
C1313 C1311 1.419 . S
C1313 C1314 1.362 . S
C1314 H1306 0.930 . S
C1314 C1313 1.362 . S
C1314 C1317 1.409 . S
C1315 H1307 0.930 . S
C1315 C1316 1.355 . S
C1315 C1317 1.415 . S
C1316 C1315 1.355 . S
C1316 C1318 1.419 . S
C1317 C1312 1.425 . S
C1317 C1314 1.409 . S
C1317 C1315 1.415 . S
C1318 H1308 0.930 . S
C1318 C1316 1.419 . S
C1318 C1319 1.362 . S
C1319 H1309 0.930 . S
C1319 C1312 1.409 . S
C1319 C1318 1.362 . S
H1320 C1326 0.930 . S
H1321 C1329 0.930 . S
H1322 C1330 0.930 . S
H1323 C1331 0.930 . S
H1324 C1334 0.930 . S
H1325 C1335 0.930 . S
C1326 H1320 0.930 . S
C1326 C1327 1.355 1_554 S
C1326 C1328 1.415 . S
C1327 C1326 1.355 1_556 S
C1327 C1329 1.419 . S
C1328 C1326 1.415 . S
C1328 C1333 1.425 . S
C1328 C1335 1.409 . S
C1329 H1321 0.930 . S
C1329 C1327 1.419 . S
C1329 C1330 1.362 . S
C1330 H1322 0.930 . S
C1330 C1329 1.362 . S
C1330 C1333 1.409 1_556 S
C1331 H1323 0.930 . S
C1331 C1332 1.355 . S
C1331 C1333 1.415 . S
C1332 C1331 1.355 . S
C1332 C1334 1.419 . S
C1333 C1328 1.425 . S
C1333 C1330 1.409 1_554 S
C1333 C1331 1.415 . S
C1334 H1324 0.930 . S
C1334 C1332 1.419 . S
C1334 C1335 1.362 . S
C1335 H1325 0.930 . S
C1335 C1328 1.409 . S
C1335 C1334 1.362 . S
H1336 C1342 0.923 1_556 S
H1337 C1345 0.930 1_556 S
H1338 C1346 0.930 . S
H1339 C1347 0.930 . S
H1340 C1350 0.930 . S
H1341 C1351 0.930 . S
C1342 H1336 0.923 1_554 S
C1342 C1343 1.350 1_554 S
C1342 C1344 1.426 . S
C1343 C1342 1.350 1_556 S
C1343 C1345 1.419 1_556 S
C1344 C1342 1.426 . S
C1344 C1349 1.425 . S
C1344 C1351 1.409 . S
C1345 H1337 0.930 1_554 S
C1345 C1343 1.419 1_554 S
C1345 C1346 1.362 . S
C1346 H1338 0.930 . S
C1346 C1345 1.362 . S
C1346 C1349 1.409 . S
C1347 H1339 0.930 . S
C1347 C1348 1.355 . S
C1347 C1349 1.415 . S
C1348 C1347 1.355 . S
C1348 C1350 1.419 . S
C1349 C1344 1.425 . S
C1349 C1346 1.409 . S
C1349 C1347 1.415 . S
C1350 H1340 0.930 . S
C1350 C1348 1.419 . S
C1350 C1351 1.362 . S
C1351 H1341 0.930 . S
C1351 C1344 1.409 . S
C1351 C1350 1.362 . S
H1352 C1358 0.930 . S
H1353 C1361 0.930 . S
H1354 C1362 0.930 . S
H1355 C1363 0.930 . S
H1356 C1366 0.930 . S
H1357 C1367 0.930 . S
C1358 H1352 0.930 . S
C1358 C1359 1.355 . S
C1358 C1360 1.415 1_556 S
C1359 C1358 1.355 . S
C1359 C1361 1.419 1_556 S
C1360 C1358 1.415 1_554 S
C1360 C1365 1.425 . S
C1360 C1367 1.409 . S
C1361 H1353 0.930 . S
C1361 C1359 1.419 1_554 S
C1361 C1362 1.362 . S
C1362 H1354 0.930 . S
C1362 C1361 1.362 . S
C1362 C1365 1.409 . S
C1363 H1355 0.930 . S
C1363 C1364 1.355 . S
C1363 C1365 1.415 . S
C1364 C1363 1.355 . S
C1364 C1366 1.419 . S
C1365 C1360 1.425 . S
C1365 C1362 1.409 . S
C1365 C1363 1.415 . S
C1366 H1356 0.930 . S
C1366 C1364 1.419 . S
C1366 C1367 1.362 . S
C1367 H1357 0.930 . S
C1367 C1360 1.409 . S
C1367 C1366 1.362 . S
H1368 C1374 0.930 . S
H1369 C1377 0.930 . S
H1370 C1378 0.930 . S
H1371 C1379 0.930 . S
H1372 C1382 0.930 . S
H1373 C1383 0.930 . S
C1374 H1368 0.930 . S
C1374 C1375 1.355 . S
C1374 C1376 1.415 . S
C1375 C1374 1.355 . S
C1375 C1377 1.419 . S
C1376 C1374 1.415 . S
C1376 C1381 1.425 . S
C1376 C1383 1.409 . S
C1377 H1369 0.930 . S
C1377 C1375 1.419 . S
C1377 C1378 1.362 . S
C1378 H1370 0.930 . S
C1378 C1377 1.362 . S
C1378 C1381 1.409 . S
C1379 H1371 0.930 . S
C1379 C1380 1.355 . S
C1379 C1381 1.415 . S
C1380 C1379 1.355 . S
C1380 C1382 1.419 . S
C1381 C1376 1.425 . S
C1381 C1378 1.409 . S
C1381 C1379 1.415 . S
C1382 H1372 0.930 . S
C1382 C1380 1.419 . S
C1382 C1383 1.362 . S
C1383 H1373 0.930 . S
C1383 C1376 1.409 . S
C1383 C1382 1.362 . S
H1384 C1390 0.930 . S
H1385 C1393 0.930 . S
H1386 C1394 0.930 . S
H1387 C1395 0.930 . S
H1388 C1398 0.930 . S
H1389 C1399 0.930 . S
C1390 H1384 0.930 . S
C1390 C1391 1.355 . S
C1390 C1392 1.415 . S
C1391 C1390 1.355 . S
C1391 C1393 1.419 . S
C1392 C1390 1.415 . S
C1392 C1397 1.425 . S
C1392 C1399 1.409 . S
C1393 H1385 0.930 . S
C1393 C1391 1.419 . S
C1393 C1394 1.362 . S
C1394 H1386 0.930 . S
C1394 C1393 1.362 . S
C1394 C1397 1.409 . S
C1395 H1387 0.930 . S
C1395 C1396 1.355 . S
C1395 C1397 1.415 . S
C1396 C1395 1.355 . S
C1396 C1398 1.419 . S
C1397 C1392 1.425 . S
C1397 C1394 1.409 . S
C1397 C1395 1.415 . S
C1398 H1388 0.930 . S
C1398 C1396 1.419 . S
C1398 C1399 1.362 . S
C1399 H1389 0.930 . S
C1399 C1392 1.409 . S
C1399 C1398 1.362 . S
H1400 C1406 0.930 1_556 S
H1401 C1409 0.930 . S
H1402 C1410 0.930 . S
H1403 C1411 0.930 . S
H1404 C1414 0.930 . S
H1405 C1415 0.930 1_556 S
C1406 H1400 0.930 1_554 S
C1406 C1407 1.355 . S
C1406 C1408 1.415 . S
C1407 C1406 1.355 . S
C1407 C1409 1.419 . S
C1408 C1406 1.415 . S
C1408 C1413 1.425 . S
C1408 C1415 1.409 . S
C1409 H1401 0.930 . S
C1409 C1407 1.419 . S
C1409 C1410 1.362 . S
C1410 H1402 0.930 . S
C1410 C1409 1.362 . S
C1410 C1413 1.409 . S
C1411 H1403 0.930 . S
C1411 C1412 1.355 . S
C1411 C1413 1.415 . S
C1412 C1411 1.355 . S
C1412 C1414 1.419 . S
C1413 C1408 1.425 . S
C1413 C1410 1.409 . S
C1413 C1411 1.415 . S
C1414 H1404 0.930 . S
C1414 C1412 1.419 . S
C1414 C1415 1.362 . S
C1415 H1405 0.930 1_554 S
C1415 C1408 1.409 . S
C1415 C1414 1.362 . S
H1416 C1422 0.930 . S
H1417 C1425 0.930 . S
H1418 C1426 0.930 . S
H1419 C1427 0.930 . S
H1420 C1430 0.930 . S
H1421 C1431 0.930 . S
C1422 H1416 0.930 . S
C1422 C1423 1.355 . S
C1422 C1424 1.415 . S
C1423 C1422 1.355 . S
C1423 C1425 1.419 . S
C1424 C1422 1.415 . S
C1424 C1429 1.425 . S
C1424 C1431 1.409 . S
C1425 H1417 0.930 . S
C1425 C1423 1.419 . S
C1425 C1426 1.362 . S
C1426 H1418 0.930 . S
C1426 C1425 1.362 . S
C1426 C1429 1.409 . S
C1427 H1419 0.930 . S
C1427 C1428 1.355 . S
C1427 C1429 1.415 . S
C1428 C1427 1.355 . S
C1428 C1430 1.419 . S
C1429 C1424 1.425 . S
C1429 C1426 1.409 . S
C1429 C1427 1.415 . S
C1430 H1420 0.930 . S
C1430 C1428 1.419 . S
C1430 C1431 1.362 . S
C1431 H1421 0.930 . S
C1431 C1424 1.409 . S
C1431 C1430 1.362 . S
H1432 C1438 0.930 . S
H1433 C1441 0.930 . S
H1434 C1442 0.930 . S
H1435 C1443 0.930 . S
H1436 C1446 0.930 . S
H1437 C1447 0.930 . S
C1438 H1432 0.930 . S
C1438 C1439 1.355 . S
C1438 C1440 1.415 . S
C1439 C1438 1.355 . S
C1439 C1441 1.419 . S
C1440 C1438 1.415 . S
C1440 C1445 1.425 . S
C1440 C1447 1.409 . S
C1441 H1433 0.930 . S
C1441 C1439 1.419 . S
C1441 C1442 1.362 . S
C1442 H1434 0.930 . S
C1442 C1441 1.362 . S
C1442 C1445 1.409 . S
C1443 H1435 0.930 . S
C1443 C1444 1.355 . S
C1443 C1445 1.415 . S
C1444 C1443 1.355 . S
C1444 C1446 1.419 . S
C1445 C1440 1.425 . S
C1445 C1442 1.409 . S
C1445 C1443 1.415 . S
C1446 H1436 0.930 . S
C1446 C1444 1.419 . S
C1446 C1447 1.362 . S
C1447 H1437 0.930 . S
C1447 C1440 1.409 . S
C1447 C1446 1.362 . S
H1448 C1454 0.930 . S
H1449 C1457 0.930 . S
H1450 C1458 0.930 . S
H1451 C1459 0.930 . S
H1452 C1462 0.930 . S
H1453 C1463 0.930 . S
C1454 H1448 0.930 . S
C1454 C1455 1.355 . S
C1454 C1456 1.415 . S
C1455 C1454 1.355 . S
C1455 C1457 1.419 . S
C1456 C1454 1.415 . S
C1456 C1461 1.425 . S
C1456 C1463 1.409 . S
C1457 H1449 0.930 . S
C1457 C1455 1.419 . S
C1457 C1458 1.362 . S
C1458 H1450 0.930 . S
C1458 C1457 1.362 . S
C1458 C1461 1.409 . S
C1459 H1451 0.930 . S
C1459 C1460 1.355 . S
C1459 C1461 1.415 . S
C1460 C1459 1.355 . S
C1460 C1462 1.419 . S
C1461 C1456 1.425 . S
C1461 C1458 1.409 . S
C1461 C1459 1.415 . S
C1462 H1452 0.930 . S
C1462 C1460 1.419 . S
C1462 C1463 1.362 . S
C1463 H1453 0.930 . S
C1463 C1456 1.409 . S
C1463 C1462 1.362 . S
H1464 C1470 0.930 . S
H1465 C1473 0.930 . S
H1466 C1474 0.930 . S
H1467 C1475 0.930 . S
H1468 C1478 0.930 . S
H1469 C1479 0.930 . S
C1470 H1464 0.930 . S
C1470 C1471 1.355 . S
C1470 C1472 1.415 . S
C1471 C1470 1.355 . S
C1471 C1473 1.419 . S
C1472 C1470 1.415 . S
C1472 C1477 1.425 . S
C1472 C1479 1.409 . S
C1473 H1465 0.930 . S
C1473 C1471 1.419 . S
C1473 C1474 1.362 . S
C1474 H1466 0.930 . S
C1474 C1473 1.362 . S
C1474 C1477 1.409 . S
C1475 H1467 0.930 . S
C1475 C1476 1.355 . S
C1475 C1477 1.415 . S
C1476 C1475 1.355 . S
C1476 C1478 1.419 . S
C1477 C1472 1.425 . S
C1477 C1474 1.409 . S
C1477 C1475 1.415 . S
C1478 H1468 0.930 . S
C1478 C1476 1.419 . S
C1478 C1479 1.362 . S
C1479 H1469 0.930 . S
C1479 C1472 1.409 . S
C1479 C1478 1.362 . S
H1480 C1486 0.930 . S
H1481 C1489 0.930 . S
H1482 C1490 0.930 . S
H1483 C1491 0.930 . S
H1484 C1494 0.930 . S
H1485 C1495 0.930 . S
C1486 H1480 0.930 . S
C1486 C1487 1.355 . S
C1486 C1488 1.415 . S
C1487 C1486 1.355 . S
C1487 C1489 1.419 1_556 S
C1488 C1486 1.415 . S
C1488 C1493 1.425 . S
C1488 C1495 1.409 . S
C1489 H1481 0.930 . S
C1489 C1487 1.419 1_554 S
C1489 C1490 1.362 . S
C1490 H1482 0.930 . S
C1490 C1489 1.362 . S
C1490 C1493 1.409 1_554 S
C1491 H1483 0.930 . S
C1491 C1492 1.355 . S
C1491 C1493 1.415 . S
C1492 C1491 1.355 . S
C1492 C1494 1.419 . S
C1493 C1488 1.425 . S
C1493 C1490 1.409 1_556 S
C1493 C1491 1.415 . S
C1494 H1484 0.930 . S
C1494 C1492 1.419 . S
C1494 C1495 1.362 . S
C1495 H1485 0.930 . S
C1495 C1488 1.409 . S
C1495 C1494 1.362 . S
H1496 C1502 0.930 . S
H1497 C1505 0.930 . S
H1498 C1506 0.930 . S
H1499 C1507 0.930 . S
H1500 C1510 0.930 . S
H1501 C1511 0.930 . S
C1502 H1496 0.930 . S
C1502 C1503 1.355 . S
C1502 C1504 1.415 . S
C1503 C1502 1.355 . S
C1503 C1505 1.419 . S
C1504 C1502 1.415 . S
C1504 C1509 1.425 . S
C1504 C1511 1.409 1_556 S
C1505 H1497 0.930 . S
C1505 C1503 1.419 . S
C1505 C1506 1.362 . S
C1506 H1498 0.930 . S
C1506 C1505 1.362 . S
C1506 C1509 1.409 . S
C1507 H1499 0.930 . S
C1507 C1508 1.355 . S
C1507 C1509 1.415 . S
C1508 C1507 1.355 . S
C1508 C1510 1.419 1_556 S
C1509 C1504 1.425 . S
C1509 C1506 1.409 . S
C1509 C1507 1.415 . S
C1510 H1500 0.930 . S
C1510 C1508 1.419 1_554 S
C1510 C1511 1.362 . S
C1511 H1501 0.930 . S
C1511 C1504 1.409 1_554 S
C1511 C1510 1.362 . S
H1512 C1518 0.930 . S
H1513 C1521 0.930 . S
H1514 C1522 0.930 . S
H1515 C1523 0.930 . S
H1516 C1526 0.930 . S
H1517 C1527 0.930 . S
C1518 H1512 0.930 . S
C1518 C1519 1.355 . S
C1518 C1520 1.415 . S
C1519 C1518 1.355 . S
C1519 C1521 1.419 . S
C1520 C1518 1.415 . S
C1520 C1525 1.425 . S
C1520 C1527 1.409 . S
C1521 H1513 0.930 . S
C1521 C1519 1.419 . S
C1521 C1522 1.362 . S
C1522 H1514 0.930 . S
C1522 C1521 1.362 . S
C1522 C1525 1.409 . S
C1523 H1515 0.930 . S
C1523 C1524 1.355 . S
C1523 C1525 1.415 . S
C1524 C1523 1.355 . S
C1524 C1526 1.419 . S
C1525 C1520 1.425 . S
C1525 C1522 1.409 . S
C1525 C1523 1.415 . S
C1526 H1516 0.930 . S
C1526 C1524 1.419 . S
C1526 C1527 1.362 . S
C1527 H1517 0.930 . S
C1527 C1520 1.409 . S
C1527 C1526 1.362 . S
H1528 C1534 0.930 . S
H1529 C1537 0.930 . S
H1530 C1538 0.930 . S
H1531 C1539 0.930 . S
H1532 C1542 0.930 . S
H1533 C1543 0.930 . S
C1534 H1528 0.930 . S
C1534 C1535 1.355 . S
C1534 C1536 1.415 . S
C1535 C1534 1.355 . S
C1535 C1537 1.419 . S
C1536 C1534 1.415 . S
C1536 C1541 1.425 . S
C1536 C1543 1.409 . S
C1537 H1529 0.930 . S
C1537 C1535 1.419 . S
C1537 C1538 1.362 . S
C1538 H1530 0.930 . S
C1538 C1537 1.362 . S
C1538 C1541 1.409 . S
C1539 H1531 0.930 . S
C1539 C1540 1.355 . S
C1539 C1541 1.415 . S
C1540 C1539 1.355 . S
C1540 C1542 1.419 . S
C1541 C1536 1.425 . S
C1541 C1538 1.409 . S
C1541 C1539 1.415 . S
C1542 H1532 0.930 . S
C1542 C1540 1.419 . S
C1542 C1543 1.362 . S
C1543 H1533 0.930 . S
C1543 C1536 1.409 . S
C1543 C1542 1.362 . S
H1544 C1550 0.930 . S
H1545 C1553 0.930 . S
H1546 C1554 0.930 . S
H1547 C1555 0.930 . S
H1548 C1558 0.930 . S
H1549 C1559 0.930 . S
C1550 H1544 0.930 . S
C1550 C1551 1.355 . S
C1550 C1552 1.415 . S
C1551 C1550 1.355 . S
C1551 C1553 1.419 . S
C1552 C1550 1.415 . S
C1552 C1557 1.425 . S
C1552 C1559 1.409 . S
C1553 H1545 0.930 . S
C1553 C1551 1.419 . S
C1553 C1554 1.362 . S
C1554 H1546 0.930 . S
C1554 C1553 1.362 . S
C1554 C1557 1.409 . S
C1555 H1547 0.930 . S
C1555 C1556 1.355 . S
C1555 C1557 1.415 . S
C1556 C1555 1.355 . S
C1556 C1558 1.419 . S
C1557 C1552 1.425 . S
C1557 C1554 1.409 . S
C1557 C1555 1.415 . S
C1558 H1548 0.930 . S
C1558 C1556 1.419 . S
C1558 C1559 1.362 . S
C1559 H1549 0.930 . S
C1559 C1552 1.409 . S
C1559 C1558 1.362 . S
H1560 C1566 0.930 . S
H1561 C1569 0.930 . S
H1562 C1570 0.930 . S
H1563 C1571 0.930 . S
H1564 C1574 0.930 . S
H1565 C1575 0.930 . S
C1566 H1560 0.930 . S
C1566 C1567 1.355 . S
C1566 C1568 1.415 . S
C1567 C1566 1.355 . S
C1567 C1569 1.419 . S
C1568 C1566 1.415 . S
C1568 C1573 1.425 1_455 S
C1568 C1575 1.409 1_455 S
C1569 H1561 0.930 . S
C1569 C1567 1.419 . S
C1569 C1570 1.362 . S
C1570 H1562 0.930 . S
C1570 C1569 1.362 . S
C1570 C1573 1.409 1_455 S
C1571 H1563 0.930 . S
C1571 C1572 1.355 . S
C1571 C1573 1.415 . S
C1572 C1571 1.355 . S
C1572 C1574 1.419 . S
C1573 C1568 1.425 1_655 S
C1573 C1570 1.409 1_655 S
C1573 C1571 1.415 . S
C1574 H1564 0.930 . S
C1574 C1572 1.419 . S
C1574 C1575 1.362 . S
C1575 H1565 0.930 . S
C1575 C1568 1.409 1_655 S
C1575 C1574 1.362 . S
H1576 C1582 0.930 . S
H1577 C1585 0.930 . S
H1578 C1586 0.930 . S
H1579 C1587 0.930 . S
H1580 C1590 0.930 . S
H1581 C1591 0.930 . S
C1582 H1576 0.930 . S
C1582 C1583 1.355 . S
C1582 C1584 1.415 . S
C1583 C1582 1.355 . S
C1583 C1585 1.419 . S
C1584 C1582 1.415 . S
C1584 C1589 1.425 . S
C1584 C1591 1.409 . S
C1585 H1577 0.930 . S
C1585 C1583 1.419 . S
C1585 C1586 1.362 . S
C1586 H1578 0.930 . S
C1586 C1585 1.362 . S
C1586 C1589 1.409 . S
C1587 H1579 0.930 . S
C1587 C1588 1.355 . S
C1587 C1589 1.415 . S
C1588 C1587 1.355 . S
C1588 C1590 1.419 . S
C1589 C1584 1.425 . S
C1589 C1586 1.409 . S
C1589 C1587 1.415 . S
C1590 H1580 0.930 . S
C1590 C1588 1.419 . S
C1590 C1591 1.362 . S
C1591 H1581 0.930 . S
C1591 C1584 1.409 . S
C1591 C1590 1.362 . S
H1592 C1598 0.930 . S
H1593 C1601 0.930 . S
H1594 C1602 0.930 . S
H1595 C1603 0.930 . S
H1596 C1606 0.930 . S
H1597 C1607 0.930 . S
C1598 H1592 0.930 . S
C1598 C1599 1.355 . S
C1598 C1600 1.415 . S
C1599 C1598 1.355 . S
C1599 C1601 1.419 . S
C1600 C1598 1.415 . S
C1600 C1605 1.425 1_565 S
C1600 C1607 1.409 1_565 S
C1601 H1593 0.930 . S
C1601 C1599 1.419 . S
C1601 C1602 1.362 . S
C1602 H1594 0.930 . S
C1602 C1601 1.362 . S
C1602 C1605 1.409 1_565 S
C1603 H1595 0.930 . S
C1603 C1604 1.355 . S
C1603 C1605 1.415 . S
C1604 C1603 1.355 . S
C1604 C1606 1.419 . S
C1605 C1600 1.425 1_545 S
C1605 C1602 1.409 1_545 S
C1605 C1603 1.415 . S
C1606 H1596 0.930 . S
C1606 C1604 1.419 . S
C1606 C1607 1.362 . S
C1607 H1597 0.930 . S
C1607 C1600 1.409 1_545 S
C1607 C1606 1.362 . S
H1608 C1614 0.930 . S
H1609 C1617 0.930 . S
H1610 C1618 0.923 1_565 S
H1611 C1619 0.930 . S
H1612 C1622 0.930 . S
H1613 C1623 0.924 1_545 S
C1614 H1608 0.930 . S
C1614 C1615 1.355 . S
C1614 C1616 1.415 . S
C1615 C1614 1.355 . S
C1615 C1617 1.419 . S
C1616 C1614 1.415 . S
C1616 C1621 1.425 1_545 S
C1616 C1623 1.409 1_545 S
C1617 H1609 0.930 . S
C1617 C1615 1.419 . S
C1617 C1618 1.362 . S
C1618 H1610 0.923 1_545 S
C1618 C1617 1.362 . S
C1618 C1621 1.409 1_545 S
C1619 H1611 0.930 . S
C1619 C1620 1.355 . S
C1619 C1621 1.415 . S
C1620 C1619 1.355 . S
C1620 C1622 1.419 . S
C1621 C1616 1.425 1_565 S
C1621 C1618 1.409 1_565 S
C1621 C1619 1.415 . S
C1622 H1612 0.930 . S
C1622 C1620 1.419 . S
C1622 C1623 1.362 . S
C1623 H1613 0.924 1_565 S
C1623 C1616 1.409 1_565 S
C1623 C1622 1.362 . S
H1624 C1630 0.930 . S
H1625 C1633 0.930 . S
H1626 C1634 0.954 . S
H1627 C1635 0.930 . S
H1628 C1638 0.930 . S
H1629 C1639 0.952 . S
C1630 H1624 0.930 . S
C1630 C1631 1.355 . S
C1630 C1632 1.415 . S
C1631 C1630 1.355 . S
C1631 C1633 1.419 . S
C1632 C1630 1.415 . S
C1632 C1637 1.425 1_455 S
C1632 C1639 1.409 1_455 S
C1633 H1625 0.930 . S
C1633 C1631 1.419 . S
C1633 C1634 1.362 . S
C1634 H1626 0.954 . S
C1634 C1633 1.362 . S
C1634 C1637 1.409 1_455 S
C1635 H1627 0.930 . S
C1635 C1636 1.355 . S
C1635 C1637 1.415 . S
C1636 C1635 1.355 . S
C1636 C1638 1.419 . S
C1637 C1632 1.425 1_655 S
C1637 C1634 1.409 1_655 S
C1637 C1635 1.415 . S
C1638 H1628 0.930 . S
C1638 C1636 1.419 . S
C1638 C1639 1.362 . S
C1639 H1629 0.952 . S
C1639 C1632 1.409 1_655 S
C1639 C1638 1.362 . S
H1640 C1646 0.930 . S
H1641 C1649 0.930 . S
H1642 C1650 0.930 . S
H1643 C1651 0.930 . S
H1644 C1654 0.930 . S
H1645 C1655 0.930 . S
C1646 H1640 0.930 . S
C1646 C1647 1.355 . S
C1646 C1648 1.415 . S
C1647 C1646 1.355 . S
C1647 C1649 1.419 . S
C1648 C1646 1.415 . S
C1648 C1653 1.425 . S
C1648 C1655 1.409 . S
C1649 H1641 0.930 . S
C1649 C1647 1.419 . S
C1649 C1650 1.362 . S
C1650 H1642 0.930 . S
C1650 C1649 1.362 . S
C1650 C1653 1.409 . S
C1651 H1643 0.930 . S
C1651 C1652 1.355 . S
C1651 C1653 1.415 . S
C1652 C1651 1.355 . S
C1652 C1654 1.419 . S
C1653 C1648 1.425 . S
C1653 C1650 1.409 . S
C1653 C1651 1.415 . S
C1654 H1644 0.930 . S
C1654 C1652 1.419 . S
C1654 C1655 1.362 . S
C1655 H1645 0.930 . S
C1655 C1648 1.409 . S
C1655 C1654 1.362 . S
C511 C53 1.152 . S
C516 C11 1.178 . S
C527 C67 1.159 . S
C532 C25 1.171 . S
C543 C81 1.176 . S
C548 C39 1.153 . S
C559 C95 1.152 . S
C564 C137 1.177 . S
C575 C109 1.177 . S
C580 C151 1.152 . S
C591 C165 1.176 . S
C596 C123 1.153 . S
C607 C179 1.149 . S
C612 C221 1.170 . S
C623 C193 1.147 . S
C628 C235 1.169 . S
C639 C207 1.146 . S
C644 C249 1.171 . S
C655 C263 1.147 . S
C660 C305 1.171 . S
C671 C319 1.144 . S
C676 C277 1.168 . S
C687 C291 1.148 . S
C692 C333 1.165 . S
C703 C347 1.155 . S
C708 C389 1.157 . S
C719 C361 1.165 . S
C724 C403 1.154 . S
C735 C417 1.170 . S
C740 C375 1.145 . S
C751 C473 1.172 . S
C756 C431 1.146 . S
C767 C487 1.147 . S
C772 C445 1.171 . S
C783 C501 1.169 . S
C788 C459 1.146 . S
C799 C163 1.537 . S
C804 C5 1.546 . S
C815 C19 1.538 1_556 S
C820 C135 1.536 . S
C831 C33 1.549 . S
C836 C149 1.535 . S
C847 C107 1.546 . S
C852 C47 1.550 . S
C863 C61 1.531 . S
C868 C121 1.556 . S
C879 C93 1.554 . S
C884 C75 1.532 . S
C895 C89 1.533 1_554 S
C900 C79 1.539 . S
C911 C103 1.527 1_554 S
C916 C51 1.545 . S
C927 C65 1.542 . S
C932 C117 1.542 . S
C943 C23 1.538 . S
C948 C131 1.556 . S
C959 C37 1.537 . S
C964 C145 1.555 . S
C975 C159 1.535 . S
C980 C9 1.556 . S
C991 C173 1.516 . S
C996 C331 1.531 . S
C1007 C303 1.534 . S
C1012 C187 1.512 . S
C1023 C317 1.524 . S
C1028 C201 1.526 . S
C1039 C215 1.552 . S
C1044 C275 1.531 . S
C1055 C289 1.548 . S
C1060 C229 1.536 . S
C1071 C243 1.551 . S
C1076 C261 1.531 . S
C1087 C257 1.526 . S
C1092 C247 1.546 . S
C1103 C271 1.527 . S
C1108 C219 1.546 . S
C1119 C233 1.530 . S
C1124 C285 1.543 . S
C1135 C191 1.564 . S
C1140 C299 1.549 . S
C1151 C205 1.558 . S
C1156 C313 1.546 . S
C1167 C327 1.563 . S
C1172 C177 1.547 . S
C1183 C499 1.528 . S
C1188 C341 1.549 . S
C1199 C355 1.526 . S
C1204 C471 1.546 . S
C1215 C369 1.546 . S
C1220 C485 1.535 . S
C1231 C383 1.564 . S
C1236 C443 1.547 . S
C1247 C457 1.547 . S
C1252 C397 1.559 . S
C1263 C411 1.549 . S
C1268 C429 1.564 . S
C1279 C415 1.516 . S
C1284 C425 1.528 . S
C1295 C387 1.518 . S
C1300 C439 1.532 . S
C1311 C401 1.522 . S
C1316 C453 1.518 . S
C1327 C359 1.549 . S
C1332 C467 1.535 . S
C1343 C373 1.531 . S
C1348 C481 1.552 . S
C1359 C345 1.534 . S
C1364 C495 1.544 . S
C1375 C406 1.341 . S
C1380 C0 1.406 . S
C1391 C14 1.411 . S
C1396 C378 1.344 . S
C1407 C392 1.353 . S
C1412 C28 1.408 . S
C1423 C42 1.407 . S
C1428 C182 1.342 . S
C1439 C196 1.404 . S
C1444 C56 1.343 . S
C1455 C70 1.380 . S
C1460 C168 1.359 . S
C1471 C84 1.342 . S
C1476 C322 1.411 . S
C1487 C294 1.348 . S
C1492 C98 1.394 . S
C1503 C112 1.354 . S
C1508 C308 1.385 . S
C1519 C126 1.342 . S
C1524 C434 1.410 . S
C1535 C140 1.381 . S
C1540 C448 1.389 . S
C1551 C420 1.401 . S
C1556 C154 1.344 . S
C1567 C350 1.411 . S
C1572 C210 1.353 . S
C1583 C364 1.378 . S
C1588 C224 1.394 . S
C1599 C336 1.410 . S
C1604 C238 1.356 . S
C1615 C252 1.369 . S
C1620 C490 1.369 . S
C1631 C462 1.344 . S
C1636 C266 1.400 . S
C1647 C280 1.412 . S
C1652 C476 1.346 . S
