# Generated by pormake.
# Topology zfb, (5)-cn, num edge types: 1
# Building blocks:
#     Node 0, Type 0, BuildingBlock: XOMCOT_clean_sbu_1, # of connection points: 5
#     Node 1, Type 0, BuildingBlock: XOMCOT_clean_sbu_1, # of connection points: 5
#     Node 2, Type 0, BuildingBlock: XOMCOT_clean_sbu_1, # of connection points: 5
#     Node 3, Type 0, BuildingBlock: XOMCOT_clean_sbu_1, # of connection points: 5
#     Node 4, Type 0, BuildingBlock: XOMCOT_clean_sbu_1, # of connection points: 5
#     Node 5, Type 0, BuildingBlock: XOMCOT_clean_sbu_1, # of connection points: 5
#     Node 6, Type 0, BuildingBlock: XOMCOT_clean_sbu_1, # of connection points: 5
#     Node 7, Type 0, BuildingBlock: XOMCOT_clean_sbu_1, # of connection points: 5
#     Edge 8, Type (0, 0), BuildingBlock: XUDNAN_clean_linker_2, # of connection points: 2
#     Edge 9, Type (0, 0), BuildingBlock: XUDNAN_clean_linker_2, # of connection points: 2
#     Edge 10, Type (0, 0), BuildingBlock: XUDNAN_clean_linker_2, # of connection points: 2
#     Edge 11, Type (0, 0), BuildingBlock: XUDNAN_clean_linker_2, # of connection points: 2
#     Edge 12, Type (0, 0), BuildingBlock: XUDNAN_clean_linker_2, # of connection points: 2
#     Edge 13, Type (0, 0), BuildingBlock: XUDNAN_clean_linker_2, # of connection points: 2
#     Edge 14, Type (0, 0), BuildingBlock: XUDNAN_clean_linker_2, # of connection points: 2
#     Edge 15, Type (0, 0), BuildingBlock: XUDNAN_clean_linker_2, # of connection points: 2
#     Edge 16, Type (0, 0), BuildingBlock: XUDNAN_clean_linker_2, # of connection points: 2
#     Edge 17, Type (0, 0), BuildingBlock: XUDNAN_clean_linker_2, # of connection points: 2
#     Edge 18, Type (0, 0), BuildingBlock: XUDNAN_clean_linker_2, # of connection points: 2
#     Edge 19, Type (0, 0), BuildingBlock: XUDNAN_clean_linker_2, # of connection points: 2
#     Edge 20, Type (0, 0), BuildingBlock: XUDNAN_clean_linker_2, # of connection points: 2
#     Edge 21, Type (0, 0), BuildingBlock: XUDNAN_clean_linker_2, # of connection points: 2
#     Edge 22, Type (0, 0), BuildingBlock: XUDNAN_clean_linker_2, # of connection points: 2
#     Edge 23, Type (0, 0), BuildingBlock: XUDNAN_clean_linker_2, # of connection points: 2
#     Edge 24, Type (0, 0), BuildingBlock: XUDNAN_clean_linker_2, # of connection points: 2
#     Edge 25, Type (0, 0), BuildingBlock: XUDNAN_clean_linker_2, # of connection points: 2
#     Edge 26, Type (0, 0), BuildingBlock: XUDNAN_clean_linker_2, # of connection points: 2
#     Edge 27, Type (0, 0), BuildingBlock: XUDNAN_clean_linker_2, # of connection points: 2
# Relax obj value: 0.187
# Max RMSD: 0.187
# Mean RMSD: 0.187
data_MOF--net-zfb--node1-XOMCOT_clean_sbu_1--edge1-XUDNAN_clean_linker_2
_symmetry_space_group_name_H-M    P1
_symmetry_Int_Tables_number       1
_symmetry_cell_setting            triclinic
loop_
_symmetry_equiv_pos_as_xyz
'x, y, z'
_cell_length_a     32.131385
_cell_length_b     32.310593
_cell_length_c     34.915538
_cell_angle_alpha  89.802707
_cell_angle_beta   90.086092
_cell_angle_gamma 89.842555
loop_
_atom_site_label
_atom_site_type_symbol
_atom_site_fract_x
_atom_site_fract_y
_atom_site_fract_z
_atom_type_partial_charge
C0 C 0.23476 0.34011 0.98764 0.0
C1 C 0.2339 0.33257 0.94889 0.0
N2 N 0.1946 0.33809 0.93632 0.0
N3 N 0.19617 0.3501 0.99956 0.0
C4 C 0.17232 0.34853 0.96765 0.0
H5 H 0.26197 0.33928 1.00589 0.0
Co6 Co 0.18279 0.36481 0.04969 0.0
C7 C 0.09327 0.38128 0.04729 0.0
O8 O 0.08784 0.35691 0.07705 0.0
N9 N 0.16975 0.37992 0.1006 0.0
C10 C 0.14786 0.41603 0.15091 0.0
C11 C 0.15385 0.41664 0.11194 0.0
C12 C 0.17356 0.35775 0.1334 0.0
N13 N 0.16023 0.37889 0.16445 0.0
O14 O 0.16088 0.3111 0.05771 0.0
H15 H 0.14672 0.44224 0.09297 0.0
H16 H 0.18515 0.32638 0.13456 0.0
O17 O 0.12942 0.38591 0.03309 0.0
C18 C 0.19166 0.28829 0.06681 0.0
O19 O 0.22826 0.30586 0.07101 0.0
N20 N 0.20733 0.41584 0.04169 0.0
C21 C 0.24883 0.49053 0.03341 0.0
C22 C 0.21519 0.48065 1.00943 0.0
C23 C 0.19475 0.44305 1.01406 0.0
C24 C 0.24139 0.4237 0.0637 0.0
C25 C 0.2624 0.46119 0.06037 0.0
H26 H 0.16901 0.4358 0.99533 0.0
H27 H 0.25167 0.40103 0.08456 0.0
H28 H 0.13931 0.35518 0.96725 0.0
H29 H 0.26042 0.32501 0.93113 0.0
H30 H 0.13566 0.44123 0.16791 0.0
H31 H 0.20444 0.50196 0.98752 0.0
H32 H 0.28807 0.46757 0.07957 0.0
C33 C 0.64659 0.23513 0.50271 0.0
C34 C 0.65234 0.24146 0.46416 0.0
N35 N 0.65003 0.20462 0.44641 0.0
N36 N 0.6403 0.19453 0.50938 0.0
C37 C 0.64303 0.17656 0.47445 0.0
H38 H 0.64574 0.25879 0.52454 0.0
Co39 Co 0.62736 0.17494 0.5584 0.0
C40 C 0.61595 0.09017 0.52514 0.0
O41 O 0.65583 0.08243 0.52092 0.0
N42 N 0.61493 0.15604 0.60802 0.0
C43 C 0.58282 0.12787 0.65807 0.0
C44 C 0.58057 0.13542 0.61931 0.0
C45 C 0.63753 0.16072 0.64046 0.0
N46 N 0.61877 0.14371 0.67134 0.0
O47 O 0.68091 0.15067 0.56203 0.0
H48 H 0.55515 0.12689 0.60067 0.0
H49 H 0.66675 0.17712 0.64171 0.0
O50 O 0.60386 0.12473 0.53851 0.0
C51 C 0.70835 0.17652 0.57229 0.0
O52 O 0.69743 0.21492 0.5794 0.0
N53 N 0.57529 0.2006 0.55487 0.0
C54 C 0.49829 0.2401 0.55035 0.0
C55 C 0.51068 0.21177 0.52222 0.0
C56 C 0.54917 0.1923 0.52503 0.0
C57 C 0.56486 0.2295 0.58156 0.0
C58 C 0.52618 0.24943 0.58007 0.0
H59 H 0.55808 0.17081 0.50286 0.0
H60 H 0.58641 0.23667 0.60441 0.0
H61 H 0.63805 0.14404 0.46918 0.0
H62 H 0.65714 0.271 0.45014 0.0
H63 H 0.55986 0.11169 0.67508 0.0
H64 H 0.4908 0.2046 0.49807 0.0
H65 H 0.51791 0.27112 0.60238 0.0
C66 C 0.75476 0.64597 0.97821 0.0
C67 C 0.75521 0.65181 0.93914 0.0
N68 N 0.79496 0.64941 0.92707 0.0
N69 N 0.79403 0.64009 0.99071 0.0
C70 C 0.81785 0.64244 0.95893 0.0
H71 H 0.72755 0.64576 0.99641 0.0
Co72 Co 0.80952 0.63103 0.04144 0.0
C73 C 0.89868 0.61355 0.03718 0.0
O74 O 0.90558 0.64131 0.06383 0.0
N75 N 0.82491 0.62131 0.09279 0.0
C76 C 0.84855 0.58854 0.14452 0.0
C77 C 0.84107 0.58536 0.10603 0.0
C78 C 0.82248 0.64582 0.1241 0.0
N79 N 0.837 0.62662 0.156 0.0
O80 O 0.83253 0.68509 0.04287 0.0
H81 H 0.84715 0.55834 0.08869 0.0
H82 H 0.81076 0.67721 0.12346 0.0
O83 O 0.86186 0.60747 0.02501 0.0
C84 C 0.80231 0.70987 0.04815 0.0
O85 O 0.76538 0.69424 0.05534 0.0
N86 N 0.78392 0.57979 0.03999 0.0
C87 C 0.74444 0.50408 0.04719 0.0
C88 C 0.77772 0.50897 0.0216 0.0
C89 C 0.79691 0.54738 1.01811 0.0
C90 C 0.74986 0.5764 0.06296 0.0
C91 C 0.72963 0.53859 0.06716 0.0
H92 H 0.8226 0.55075 0.99844 0.0
H93 H 0.73945 0.60291 0.07922 0.0
H94 H 0.8514 0.63958 0.95913 0.0
H95 H 0.7283 0.6566 0.92096 0.0
H96 H 0.86095 0.56427 0.16271 0.0
H97 H 0.78929 0.48311 1.00502 0.0
H98 H 0.70396 0.53596 0.08708 0.0
C99 C 0.3502 0.74698 0.50867 0.0
C100 C 0.34618 0.73998 0.46998 0.0
N101 N 0.35454 0.77547 0.45137 0.0
N102 N 0.36205 0.78649 0.51453 0.0
C103 C 0.36379 0.8033 0.47887 0.0
H104 H 0.34468 0.72458 0.53113 0.0
Co105 Co 0.37238 0.80954 0.56307 0.0
C106 C 0.38643 0.8964 0.53578 0.0
O107 O 0.35376 0.91179 0.55333 0.0
N108 N 0.38218 0.83203 0.6122 0.0
C109 C 0.40522 0.86951 0.66115 0.0
C110 C 0.40745 0.86347 0.62227 0.0
C111 C 0.36554 0.81904 0.64582 0.0
N112 N 0.37878 0.84151 0.67622 0.0
O113 O 0.31831 0.83298 0.56225 0.0
H114 H 0.42676 0.88104 0.6029 0.0
H115 H 0.34464 0.79305 0.648 0.0
O116 O 0.39471 0.85796 0.53847 0.0
C117 C 0.29009 0.8102 0.57642 0.0
O118 O 0.30038 0.77396 0.5908 0.0
N119 N 0.42521 0.78457 0.56413 0.0
C120 C 0.5 0.74103 0.55871 0.0
C121 C 0.4991 0.78427 0.5552 0.0
C122 C 0.46153 0.80546 0.55808 0.0
C123 C 0.42588 0.74295 0.57076 0.0
C124 C 0.46296 0.72039 0.56778 0.0
H125 H 0.4622 0.83863 0.55517 0.0
H126 H 0.39729 0.72699 0.57748 0.0
H127 H 0.37225 0.83504 0.47289 0.0
H128 H 0.3374 0.71116 0.4565 0.0
H129 H 0.42164 0.89321 0.67682 0.0
H130 H 0.52727 0.80174 0.54999 0.0
H131 H 0.46236 0.6871 0.57142 0.0
C132 C 0.73471 0.10715 0.1306 0.0
C133 C 0.73283 0.11104 0.16997 0.0
N134 N 0.69592 0.12825 0.17914 0.0
N135 N 0.69893 0.12148 0.11515 0.0
C136 C 0.67597 0.13374 0.14544 0.0
H137 H 0.76116 0.0964 0.11426 0.0
Co138 Co 0.68433 0.13102 0.06391 0.0
C139 C 0.60405 0.08841 0.05362 0.0
O140 O 0.61428 0.08057 1.01796 0.0
N141 N 0.66837 0.14281 1.0122 0.0
C142 C 0.62873 0.17053 0.9662 0.0
C143 C 0.63488 0.16712 1.00484 0.0
C144 C 0.68245 0.13243 0.97675 0.0
N145 N 0.65847 0.14858 0.9484 0.0
O146 O 0.66772 0.18536 0.07726 0.0
H147 H 0.61497 0.1807 0.02637 0.0
H148 H 0.70885 0.11261 0.97139 0.0
O149 O 0.6287 0.10922 0.07492 0.0
C150 C 0.69951 0.20859 0.07764 0.0
O151 O 0.73617 0.19179 0.07132 0.0
N152 N 0.70459 0.07839 0.0513 0.0
C153 C 0.7451 0.0035 0.03801 0.0
C154 C 0.70828 0.00487 0.05943 0.0
C155 C 0.68903 0.04264 0.06646 0.0
C156 C 0.74163 0.07794 0.03227 0.0
C157 C 0.76223 0.04068 0.02477 0.0
H158 H 0.66292 0.04303 0.08575 0.0
H159 H 0.75565 0.10684 0.02346 0.0
H160 H 0.64566 0.14812 0.14259 0.0
H161 H 0.75766 0.10414 0.19001 0.0
H162 H 0.60409 0.18786 0.95225 0.0
H163 H 0.69525 0.97706 0.07198 0.0
H164 H 0.79123 0.04099 1.00901 0.0
C165 C 0.84091 0.74123 0.6036 0.0
C166 C 0.83356 0.74019 0.64238 0.0
N167 N 0.84634 0.70322 0.65603 0.0
N168 N 0.85803 0.70504 0.59275 0.0
C169 C 0.86106 0.68248 0.62532 0.0
H170 H 0.83449 0.76685 0.58446 0.0
Co171 Co 0.87295 0.69319 0.54265 0.0
C172 C 0.89167 0.60471 0.543 0.0
O173 O 0.86702 0.60011 0.51327 0.0
N174 N 0.88831 0.68221 0.4916 0.0
C175 C 0.92604 0.66417 0.44094 0.0
C176 C 0.92585 0.66809 0.48007 0.0
C177 C 0.86639 0.68705 0.45874 0.0
N178 N 0.88855 0.67605 0.42746 0.0
O179 O 0.8199 0.66849 0.53534 0.0
H180 H 0.95156 0.66084 0.49896 0.0
H181 H 0.8346 0.69784 0.45765 0.0
O182 O 0.896 0.64022 0.55822 0.0
C183 C 0.79184 0.69397 0.52501 0.0
O184 O 0.80249 0.73239 0.51745 0.0
N185 N 0.92346 0.71983 0.55044 0.0
C186 C 0.99652 0.76557 0.55707 0.0
C187 C 0.99302 0.72622 0.57411 0.0
C188 C 0.95599 0.70416 0.57106 0.0
C189 C 0.92566 0.75821 0.53442 0.0
C190 C 0.96187 0.78174 0.53749 0.0
H191 H 0.954 0.67436 0.58497 0.0
H192 H 0.89911 0.77045 0.51896 0.0
H193 H 0.87345 0.65135 0.62655 0.0
H194 H 0.82061 0.76507 0.65933 0.0
H195 H 0.95205 0.65378 0.42381 0.0
H196 H 0.01888 0.71189 0.58902 0.0
H197 H 0.9626 0.81223 0.52456 0.0
C198 C 0.25834 0.85778 0.13482 0.0
C199 C 0.26016 0.84871 0.17336 0.0
N200 N 0.29916 0.83638 0.18182 0.0
N201 N 0.29619 0.85193 0.11896 0.0
C202 C 0.32023 0.83825 0.14834 0.0
H203 H 0.23121 0.86861 0.11935 0.0
Co204 Co 0.30929 0.86331 0.06721 0.0
C205 C 0.39883 0.87234 0.09079 0.0
O206 O 0.407 0.83271 0.09455 0.0
N207 N 0.32258 0.87499 1.01535 0.0
C208 C 0.3474 0.90889 0.96471 0.0
C209 C 0.34039 0.91057 1.00342 0.0
C210 C 0.31852 0.8523 0.98289 0.0
N211 N 0.33377 0.87219 0.95166 0.0
O212 O 0.33052 0.80919 0.06179 0.0
H213 H 0.34763 0.93646 0.02178 0.0
H214 H 0.30533 0.82156 0.98213 0.0
O215 O 0.3628 0.88496 0.08106 0.0
C216 C 0.29925 0.78654 0.05458 0.0
O217 O 0.26243 0.80426 0.05216 0.0
N218 N 0.28555 0.91546 0.0722 0.0
C219 C 0.24519 0.99133 0.07779 0.0
C220 C 0.27843 0.98136 0.10235 0.0
C221 C 0.29831 0.94325 0.09903 0.0
C222 C 0.25215 0.92365 0.0493 0.0
C223 C 0.23173 0.96169 0.0513 0.0
H224 H 0.32349 0.93579 0.11844 0.0
H225 H 0.24172 0.90064 0.02902 0.0
H226 H 0.35268 0.83032 0.14564 0.0
H227 H 0.23466 0.85058 0.19351 0.0
H228 H 0.36093 0.93322 0.94739 0.0
H229 H 0.28905 0.00282 0.124 0.0
H230 H 0.20637 0.96811 0.03168 0.0
C231 C 0.14683 0.2498 0.61258 0.0
C232 C 0.15403 0.25055 0.65142 0.0
N233 N 0.1465 0.28918 0.66412 0.0
N234 N 0.13507 0.28781 0.60073 0.0
C235 C 0.13519 0.31119 0.63278 0.0
H236 H 0.14924 0.22305 0.59417 0.0
Co237 Co 0.12065 0.30084 0.55038 0.0
C238 C 0.10638 0.38985 0.5509 0.0
O239 O 0.13252 0.3934 0.52219 0.0
N240 N 0.10583 0.3135 0.49923 0.0
C241 C 0.06943 0.3353 0.44875 0.0
C242 C 0.06881 0.32908 0.48767 0.0
C243 C 0.12827 0.31018 0.46659 0.0
N244 N 0.10693 0.32347 0.43542 0.0
O245 O 0.17514 0.32217 0.54292 0.0
H246 H 0.04301 0.33595 0.5065 0.0
H247 H 0.15997 0.29908 0.46567 0.0
O248 O 0.09974 0.35452 0.56595 0.0
C249 C 0.19912 0.29229 0.53423 0.0
O250 O 0.18243 0.25571 0.52845 0.0
N251 N 0.069 0.27673 0.55821 0.0
C252 C 0.99702 0.23152 0.57085 0.0
C253 C 0.00556 0.26677 0.59275 0.0
C254 C 0.04186 0.28912 0.58594 0.0
C255 C 0.06151 0.24219 0.53705 0.0
C256 C 0.02524 0.21939 0.5425 0.0
H257 H 0.04858 0.31568 0.60359 0.0
H258 H 0.08408 0.23217 0.51605 0.0
H259 H 0.12697 0.34367 0.63327 0.0
H260 H 0.16284 0.22438 0.66912 0.0
H261 H 0.04401 0.34735 0.43164 0.0
H262 H 0.98425 0.27709 0.61478 0.0
H263 H 0.01967 0.19213 0.52527 0.0
H264 H 0.28584 0.06425 0.08734 0.0
H265 H 0.16258 0.01341 0.06874 0.0
H266 H 0.13343 0.08444 0.06669 0.0
H267 H 0.25362 0.14853 0.14944 0.0
H268 H 0.29209 0.18316 0.12994 0.0
H269 H 0.30206 0.12829 0.13133 0.0
H270 H 0.31578 0.12879 0.0581 0.0
H271 H 0.30574 0.18354 0.05644 0.0
H272 H 0.2765 0.14909 0.02619 0.0
H273 H 0.11917 0.16261 0.06332 0.0
H274 H 0.12164 0.23936 0.05953 0.0
H275 H 0.2542 0.23519 0.08344 0.0
C276 C 0.25253 0.06777 0.08377 0.0
C277 C 0.22648 0.03326 0.07848 0.0
C278 C 0.18322 0.03949 0.0726 0.0
C279 C 0.16635 0.07966 0.07166 0.0
C280 C 0.19316 0.11301 0.07692 0.0
C281 C 0.2353 0.10726 0.08309 0.0
C282 C 0.25805 0.14773 0.08672 0.0
C283 C 0.27759 0.15218 0.12674 0.0
C284 C 0.29093 0.15255 0.05497 0.0
C285 C 0.2223 0.17739 0.08114 0.0
C286 C 0.18499 0.15713 0.07558 0.0
C287 C 0.14817 0.17877 0.06807 0.0
C288 C 0.14983 0.22223 0.06595 0.0
C289 C 0.18805 0.24315 0.07133 0.0
C290 C 0.22438 0.22024 0.07945 0.0
H291 H 0.93965 0.21037 0.51719 0.0
H292 H 0.96648 0.20242 0.63862 0.0
H293 H 0.89734 0.17138 0.64989 0.0
H294 H 0.8419 0.24599 0.52672 0.0
H295 H 0.81939 0.21892 0.48669 0.0
H296 H 0.87397 0.23047 0.4869 0.0
H297 H 0.89106 0.1527 0.47758 0.0
H298 H 0.83623 0.14089 0.47742 0.0
H299 H 0.87056 0.11505 0.51072 0.0
H300 H 0.82254 0.15431 0.64977 0.0
H301 H 0.74654 0.15599 0.63858 0.0
H302 H 0.76726 0.17519 0.51748 0.0
C303 C 0.93143 0.20053 0.54588 0.0
C304 C 0.95822 0.20821 0.57702 0.0
C305 C 0.94618 0.19653 0.61445 0.0
C306 C 0.90723 0.17856 0.62102 0.0
C307 C 0.88086 0.17244 0.58981 0.0
C308 C 0.89247 0.183 0.55291 0.0
C309 C 0.85628 0.17951 0.52533 0.0
C310 C 0.84737 0.22119 0.50528 0.0
C311 C 0.864 0.14497 0.49604 0.0
C312 C 0.8219 0.16783 0.55285 0.0
C313 C 0.83698 0.16267 0.58974 0.0
C314 C 0.81049 0.15691 0.6209 0.0
C315 C 0.76749 0.15784 0.61437 0.0
C316 C 0.75177 0.16447 0.57711 0.0
C317 C 0.77907 0.16839 0.5459 0.0
H318 H 0.70831 0.93212 1.01591 0.0
H319 H 0.828 0.9839 0.04671 0.0
H320 H 0.85921 0.91364 0.04545 0.0
H321 H 0.71342 0.84925 0.07615 0.0
H322 H 0.68738 0.8134 0.04482 0.0
H323 H 0.67692 0.86787 0.04077 0.0
H324 H 0.69742 0.86643 0.96895 0.0
H325 H 0.70754 0.81167 0.97264 0.0
H326 H 0.74743 0.84597 0.95516 0.0
H327 H 0.87458 0.83571 0.0486 0.0
H328 H 0.87196 0.75912 0.05586 0.0
H329 H 0.74098 0.76145 0.02591 0.0
C330 C 0.74131 0.92878 0.02159 0.0
C331 C 0.76579 0.96323 0.03138 0.0
C332 C 0.80885 0.9578 0.03865 0.0
C333 C 0.82676 0.91805 0.03811 0.0
C334 C 0.80118 0.88439 0.02988 0.0
C335 C 0.75941 0.88962 0.02138 0.0
C336 C 0.73733 0.84878 1.01725 0.0
C337 C 0.7017 0.84461 0.0465 0.0
C338 C 0.72151 0.84287 0.97604 0.0
C339 C 0.77269 0.81959 0.02626 0.0
C340 C 0.80959 0.84032 0.03273 0.0
C341 C 0.84593 0.8192 0.04315 0.0
C342 C 0.84421 0.77587 0.0473 0.0
C343 C 0.8062 0.7547 0.04182 0.0
C344 C 0.7704 0.77692 0.03067 0.0
H345 H 0.05451 0.76574 0.61507 0.0
H346 H 0.03059 0.81598 0.50156 0.0
H347 H 0.10088 0.84594 0.50066 0.0
H348 H 0.12871 0.84662 0.64964 0.0
H349 H 0.16102 0.80815 0.67258 0.0
H350 H 0.10563 0.80025 0.66894 0.0
H351 H 0.11845 0.72991 0.63533 0.0
H352 H 0.17363 0.73756 0.63891 0.0
H353 H 0.15017 0.72835 0.5928 0.0
H354 H 0.17699 0.86127 0.50758 0.0
H355 H 0.25276 0.85504 0.51937 0.0
H356 H 0.22814 0.78861 0.62492 0.0
C357 C 0.06364 0.78349 0.59015 0.0
C358 C 0.03665 0.78845 0.55846 0.0
C359 C 0.05008 0.81237 0.52666 0.0
C360 C 0.09013 0.82951 0.52581 0.0
C361 C 0.11647 0.82245 0.5569 0.0
C362 C 0.10372 0.79988 0.58846 0.0
C363 C 0.13956 0.79088 0.61534 0.0
C364 C 0.13335 0.8128 0.65391 0.0
C365 C 0.14581 0.74391 0.62087 0.0
C366 C 0.17491 0.81 0.59302 0.0
C367 C 0.16086 0.82938 0.56005 0.0
C368 C 0.18828 0.84681 0.53361 0.0
C369 C 0.23119 0.84321 0.54053 0.0
C370 C 0.24592 0.82139 0.57303 0.0
C371 C 0.21745 0.80564 0.59998 0.0
H372 H 0.78897 0.43457 0.06173 0.0
H373 H 0.66245 0.4803 0.05141 0.0
H374 H 0.63576 0.40966 0.06457 0.0
H375 H 0.77371 0.34041 1.01461 0.0
H376 H 0.80851 0.31154 0.04525 0.0
H377 H 0.81653 0.36604 0.03797 0.0
H378 H 0.81396 0.37762 0.11143 0.0
H379 H 0.8056 0.32307 0.11893 0.0
H380 H 0.76933 0.3602 0.13818 0.0
H381 H 0.62391 0.33235 0.07403 0.0
H382 H 0.62804 0.25582 0.07773 0.0
H383 H 0.76277 0.26348 0.08291 0.0
C384 C 0.75562 0.42971 0.06218 0.0
C385 C 0.72768 0.46252 0.05524 0.0
C386 C 0.68426 0.45532 0.05674 0.0
C387 C 0.66891 0.41545 0.06423 0.0
C388 C 0.69749 0.38359 0.07067 0.0
C389 C 0.73993 0.39049 0.06987 0.0
C390 C 0.76438 0.35116 0.07608 0.0
C391 C 0.79241 0.34174 0.04141 0.0
C392 C 0.78981 0.35315 0.11338 0.0
C393 C 0.72915 0.32064 0.07936 0.0
C394 C 0.69073 0.33976 0.0766 0.0
C395 C 0.65381 0.31712 0.07671 0.0
C396 C 0.65644 0.27376 0.07888 0.0
C397 C 0.69572 0.25385 0.08064 0.0
C398 C 0.73227 0.27779 0.08177 0.0
H399 H 0.55797 0.75652 0.5038 0.0
H400 H 0.53187 0.67501 0.5997 0.0
H401 H 0.60187 0.6437 0.59302 0.0
H402 H 0.62749 0.68504 0.44901 0.0
H403 H 0.66107 0.72716 0.43534 0.0
H404 H 0.6062 0.73623 0.44222 0.0
H405 H 0.62296 0.79382 0.49143 0.0
H406 H 0.67762 0.78502 0.48465 0.0
H407 H 0.65563 0.7818 0.53203 0.0
H408 H 0.67839 0.62905 0.58191 0.0
H409 H 0.75412 0.63568 0.57029 0.0
H410 H 0.72969 0.72945 0.48407 0.0
C411 C 0.56667 0.73161 0.52307 0.0
C412 C 0.53957 0.7183 0.55236 0.0
C413 C 0.55198 0.68539 0.57676 0.0
C414 C 0.59167 0.66742 0.57314 0.0
C415 C 0.61825 0.68247 0.54476 0.0
C416 C 0.60605 0.71378 0.52006 0.0
C417 C 0.64166 0.72848 0.49537 0.0
C418 C 0.63362 0.71862 0.45297 0.0
C419 C 0.64995 0.775 0.50126 0.0
C420 C 0.67649 0.70213 0.51135 0.0
C421 C 0.66233 0.67486 0.53902 0.0
C422 C 0.68967 0.64971 0.55981 0.0
C423 C 0.73257 0.65357 0.55297 0.0
C424 C 0.74746 0.68299 0.52622 0.0
C425 C 0.71898 0.7065 0.50445 0.0
H426 H 0.2075 0.56336 0.0247 0.0
H427 H 0.33141 0.51251 0.04129 0.0
H428 H 0.35978 0.58358 0.0453 0.0
H429 H 0.23854 0.65216 0.966 0.0
H430 H 0.19956 0.68498 0.98733 0.0
H431 H 0.19045 0.63021 0.98302 0.0
H432 H 0.17673 0.62565 0.05613 0.0
H433 H 0.18614 0.68023 0.06075 0.0
H434 H 0.21583 0.64388 0.08905 0.0
H435 H 0.37303 0.66129 0.05197 0.0
H436 H 0.36964 0.7376 0.05963 0.0
H437 H 0.23689 0.7341 0.03667 0.0
C438 C 0.2408 0.56695 0.02804 0.0
C439 C 0.26727 0.53242 0.03237 0.0
C440 C 0.31051 0.53864 0.03809 0.0
C441 C 0.32692 0.57881 0.04017 0.0
C442 C 0.29966 0.6122 0.03622 0.0
C443 C 0.25756 0.60649 0.02998 0.0
C444 C 0.23421 0.64694 0.02856 0.0
C445 C 0.21455 0.65398 0.98886 0.0
C446 C 0.20132 0.64929 0.06053 0.0
C447 C 0.26956 0.67646 0.03566 0.0
C448 C 0.3072 0.65617 0.03985 0.0
C449 C 0.34377 0.67751 0.0483 0.0
C450 C 0.34158 0.72072 0.05267 0.0
C451 C 0.30304 0.74165 0.04869 0.0
C452 C 0.26689 0.71909 0.03976 0.0
H453 H 0.25499 0.23252 0.5166 0.0
H454 H 0.2465 0.36059 0.55288 0.0
H455 H 0.32345 0.36294 0.55903 0.0
H456 H 0.33207 0.20276 0.58159 0.0
H457 H 0.3576 0.16774 0.54907 0.0
H458 H 0.3028 0.17794 0.54408 0.0
H459 H 0.31399 0.20076 0.47352 0.0
H460 H 0.36885 0.19031 0.47824 0.0
H461 H 0.35131 0.24072 0.46281 0.0
H462 H 0.40203 0.34864 0.5647 0.0
H463 H 0.47362 0.31995 0.56766 0.0
H464 H 0.42662 0.20077 0.53064 0.0
C465 C 0.26914 0.26139 0.52529 0.0
C466 C 0.24482 0.29643 0.53415 0.0
C467 C 0.26468 0.33344 0.5457 0.0
C468 C 0.30828 0.335 0.54935 0.0
C469 C 0.33123 0.29932 0.54127 0.0
C470 C 0.31215 0.26333 0.52929 0.0
C471 C 0.34291 0.22846 0.52418 0.0
C472 C 0.33326 0.19211 0.55136 0.0
C473 C 0.34435 0.21425 0.48219 0.0
C474 C 0.38247 0.25016 0.5355 0.0
C475 C 0.37547 0.29105 0.54508 0.0
C476 C 0.4078 0.3167 0.55707 0.0
C477 C 0.44826 0.30007 0.55896 0.0
C478 C 0.45582 0.25819 0.54904 0.0
C479 C 0.42221 0.23314 0.53753 0.0
H480 H 0.04808 0.42809 0.0962 0.0
H481 H 0.06936 0.40551 0.97558 0.0
H482 H 0.02123 0.4631 0.95898 0.0
H483 H 0.9394 0.46033 0.09074 0.0
H484 H 0.94597 0.50019 0.12621 0.0
H485 H 0.97807 0.45443 0.12784 0.0
H486 H 0.04407 0.50041 0.1265 0.0
H487 H 0.01218 0.54628 0.12429 0.0
H488 H 0.05094 0.53708 0.08801 0.0
H489 H 0.96908 0.52263 0.95635 0.0
H490 H 0.92172 0.58219 0.96786 0.0
H491 H 0.94299 0.57059 0.08996 0.0
C492 C 0.0416 0.4346 0.06631 0.0
C493 C 0.06113 0.4118 0.03703 0.0
C494 C 0.05373 0.42225 0.99825 0.0
C495 C 0.02666 0.4549 0.98865 0.0
C496 C 0.00829 0.47732 1.01827 0.0
C497 C 0.01579 0.46781 0.05632 0.0
C498 C 0.99508 0.49858 0.08276 0.0
C499 C 0.96271 0.47709 0.10839 0.0
C500 C 0.02751 0.52197 0.1068 0.0
C501 C 0.97449 0.52681 0.05373 0.0
C502 C 0.98184 0.51373 1.01667 0.0
C503 C 0.96373 0.53356 0.98519 0.0
C504 C 0.93712 0.56735 0.99189 0.0
C505 C 0.93005 0.58149 0.0296 0.0
C506 C 0.94923 0.56118 0.06077 0.0
H507 H 0.39753 0.97956 0.54866 0.0
H508 H 0.4502 0.87443 0.48856 0.0
H509 H 0.51258 0.91536 0.47323 0.0
H510 H 0.4431 0.06185 0.48403 0.0
H511 H 0.45198 0.09594 0.52397 0.0
H512 H 0.40855 0.06074 0.52466 0.0
H513 H 0.43471 0.03078 0.58931 0.0
H514 H 0.47845 0.06534 0.58856 0.0
H515 H 0.48686 0.01032 0.59261 0.0
H516 H 0.57386 0.96319 0.47405 0.0
H517 H 0.62687 0.017 0.4863 0.0
H518 H 0.53322 0.09193 0.54299 0.0
C519 C 0.42146 0.96568 0.53104 0.0
C520 C 0.41901 0.92379 0.51988 0.0
C521 C 0.45146 0.90646 0.49756 0.0
C522 C 0.48703 0.92948 0.4886 0.0
C523 C 0.48943 0.97008 0.50158 0.0
C524 C 0.45718 0.98837 0.52167 0.0
C525 C 0.46903 0.03132 0.535 0.0
C526 C 0.44153 0.06442 0.51575 0.0
C527 C 0.46716 0.03459 0.57896 0.0
C528 C 0.51341 0.03353 0.52063 0.0
C529 C 0.52459 -0.00194 0.50124 0.0
C530 C 0.56521 0.99156 0.48842 0.0
C531 C 0.59517 0.02214 0.49568 0.0
C532 C 0.58426 0.05872 0.51551 0.0
C533 C 0.54262 0.06453 0.52749 0.0
H534 H 0.41959 0.92943 0.03794 0.0
H535 H 0.45231 0.88454 0.15101 0.0
H536 H 0.50373 0.94161 0.15746 0.0
H537 H 0.52186 0.9549 1.00928 0.0
H538 H 0.50581 -0.00048 0.9818 0.0
H539 H 0.47061 0.95689 0.98822 0.0
H540 H 0.41552 0.00719 1.01609 0.0
H541 H 0.45089 0.04996 1.01037 0.0
H542 H 0.42875 0.03891 0.05668 0.0
H543 H 0.55113 0.00468 0.15063 0.0
H544 H 0.59843 0.05966 0.12747 0.0
H545 H 0.535 0.05991 1.01776 0.0
C546 C 0.43726 0.93192 0.06421 0.0
C547 C 0.43193 0.90326 0.0942 0.0
C548 C 0.45632 0.90643 0.12775 0.0
C549 C 0.4851 0.9389 0.13175 0.0
C550 C 0.48902 0.96736 0.10174 0.0
C551 C 0.4662 0.96358 0.06836 0.0
C552 C 0.47806 -0.00409 0.03906 0.0
C553 C 0.49512 0.97558 1.00245 0.0
C554 C 0.4411 0.02469 0.03004 0.0
C555 C 0.5117 0.01836 0.06084 0.0
C556 C 0.51703 0.00218 0.09726 0.0
C557 C 0.54716 0.01756 0.1222 0.0
C558 C 0.57365 0.049 0.10892 0.0
C559 C 0.57028 0.06386 0.07081 0.0
C560 C 0.5381 0.04917 0.04706 0.0
H561 H 0.93433 0.55567 0.49393 0.0
H562 H 0.91754 0.5815 0.61461 0.0
H563 H 0.97117 0.52873 0.63073 0.0
H564 H 0.95486 0.44583 0.50085 0.0
H565 H 0.99434 0.44687 0.46425 0.0
H566 H 0.95239 0.48393 0.46306 0.0
H567 H 0.00597 0.54378 0.46192 0.0
H568 H 0.04808 0.50691 0.46346 0.0
H569 H 0.04469 0.54689 0.49922 0.0
H570 H 0.02504 0.47036 0.63288 0.0
H571 H 0.0789 0.41666 0.62071 0.0
H572 H 0.06554 0.43667 0.49856 0.0
C573 C 0.9414 0.54956 0.52377 0.0
C574 C 0.92127 0.57164 0.55318 0.0
C575 C 0.93234 0.56422 0.59183 0.0
C576 C 0.96271 0.53444 0.60117 0.0
C577 C 0.98232 0.51331 0.57139 0.0
C578 C 0.97241 0.52099 0.53345 0.0
C579 C -0.00016 0.49641 0.50665 0.0
C580 C 0.9738 0.46649 0.48228 0.0
C581 C 0.02621 0.52523 0.48133 0.0
C582 C 0.02654 0.47334 0.53535 0.0
C583 C 0.01562 0.4829 0.57258 0.0
C584 C 0.03434 0.46322 0.60386 0.0
C585 C 0.06485 0.43294 0.59677 0.0
C586 C 0.07697 0.42366 0.55883 0.0
C587 C 0.05773 0.44431 0.52788 0.0
H588 H 0.1086 0.40626 0.22084 0.0
H589 H 0.20834 0.31905 0.19763 0.0
H590 H 0.2055 0.29487 0.26474 0.0
H591 H 0.14249 0.43433 0.31547 0.0
H592 H 0.09036 0.43848 0.33407 0.0
H593 H 0.1001 0.44841 0.28411 0.0
H594 H 0.04537 0.39316 0.26561 0.0
H595 H 0.03553 0.383 0.31552 0.0
H596 H 0.05044 0.34127 0.28422 0.0
H597 H 0.19187 0.28065 0.3352 0.0
H598 H 0.16789 0.27696 0.40231 0.0
H599 H 0.07854 0.37492 0.3791 0.0
C600 C 0.13017 0.38236 0.22981 0.0
C601 C 0.15874 0.36465 0.20372 0.0
C602 C 0.18583 0.33285 0.21677 0.0
C603 C 0.18462 0.31904 0.25496 0.0
C604 C 0.15613 0.33729 0.27984 0.0
C605 C 0.12939 0.36825 0.26773 0.0
C606 C 0.10157 0.38275 0.30002 0.0
C607 C 0.1091 0.42872 0.30894 0.0
C608 C 0.05551 0.37454 0.29078 0.0
C609 C 0.11686 0.35516 0.33225 0.0
C610 C 0.14835 0.32916 0.32013 0.0
C611 C 0.16729 0.30096 0.34499 0.0
C612 C 0.1536 0.29925 0.38318 0.0
C613 C 0.12123 0.32557 0.39622 0.0
C614 C 0.10288 0.3539 0.37016 0.0
H615 H 0.59511 0.1449 0.89741 0.0
H616 H 0.72955 0.14045 0.90662 0.0
H617 H 0.73474 0.13736 0.83571 0.0
H618 H 0.58555 0.07532 0.81668 0.0
H619 H 0.54291 0.10401 0.79589 0.0
H620 H 0.55049 0.10394 0.84701 0.0
H621 H 0.55277 0.18413 0.84655 0.0
H622 H 0.54541 0.18446 0.79544 0.0
H623 H 0.58965 0.21031 0.81614 0.0
H624 H 0.72424 0.13953 0.76278 0.0
H625 H 0.69927 0.14161 0.69564 0.0
H626 H 0.57175 0.14431 0.73587 0.0
C627 C 0.6257 0.14322 0.88458 0.0
C628 C 0.66199 0.14321 0.90751 0.0
C629 C 0.70138 0.14023 0.88958 0.0
C630 C 0.70456 0.13871 0.84936 0.0
C631 C 0.66802 0.13973 0.82761 0.0
C632 C 0.62934 0.14145 0.84476 0.0
C633 C 0.5947 0.14257 0.81535 0.0
C634 C 0.56678 0.10417 0.81895 0.0
C635 C 0.56914 0.18276 0.81857 0.0
C636 C 0.61979 0.14168 0.77877 0.0
C637 C 0.66204 0.14018 0.78627 0.0
C638 C 0.69121 0.14041 0.7567 0.0
C639 C 0.67677 0.1419 0.71865 0.0
C640 C 0.63355 0.14293 0.71043 0.0
C641 C 0.60492 0.14285 0.7411 0.0
H642 H 0.91902 0.62845 0.36986 0.0
H643 H 0.82728 0.7233 0.39501 0.0
H644 H 0.80467 0.7227 0.32729 0.0
H645 H 0.9481 0.6672 0.27665 0.0
H646 H 0.95461 0.61617 0.2568 0.0
H647 H 0.9634 0.62462 0.30712 0.0
H648 H 0.90972 0.56751 0.32357 0.0
H649 H 0.90076 0.5589 0.27333 0.0
H650 H 0.85771 0.57111 0.30438 0.0
H651 H 0.79201 0.71078 0.25575 0.0
H652 H 0.78921 0.68701 0.18842 0.0
H653 H 0.8911 0.60207 0.21142 0.0
C654 C 0.89455 0.64956 0.36122 0.0
C655 C 0.8751 0.67604 0.38795 0.0
C656 C 0.84247 0.70242 0.37529 0.0
C657 C 0.82959 0.70251 0.33677 0.0
C658 C 0.84965 0.67606 0.31123 0.0
C659 C 0.88143 0.65008 0.32306 0.0
C660 C 0.89763 0.62404 0.29039 0.0
C661 C 0.94366 0.6336 0.28227 0.0
C662 C 0.89104 0.57765 0.29841 0.0
C663 C 0.86988 0.6392 0.25826 0.0
C664 C 0.84246 0.6693 0.27062 0.0
C665 C 0.81348 0.68732 0.24579 0.0
C666 C 0.81226 0.6738 0.20753 0.0
C667 C 0.83974 0.64247 0.19454 0.0
C668 C 0.86917 0.62555 0.22039 0.0
H669 H 0.39214 0.89201 0.89862 0.0
H670 H 0.27924 0.82113 0.91519 0.0
H671 H 0.27968 0.80231 0.84635 0.0
H672 H 0.36649 0.93426 0.80851 0.0
H673 H 0.41862 0.93115 0.78971 0.0
H674 H 0.41056 0.93643 0.84046 0.0
H675 H 0.45412 0.87007 0.8528 0.0
H676 H 0.4625 0.8647 0.80205 0.0
H677 H 0.4401 0.82266 0.82903 0.0
H678 H 0.29043 0.79602 0.77357 0.0
H679 H 0.31149 0.80037 0.70574 0.0
H680 H 0.41869 0.87382 0.73864 0.0
C681 C 0.36752 0.87243 0.88787 0.0
C682 C 0.33548 0.85825 0.91235 0.0
C683 C 0.30425 0.83212 0.89712 0.0
C684 C 0.30419 0.82145 0.858 0.0
C685 C 0.33587 0.83673 0.83454 0.0
C686 C 0.3672 0.8613 0.84915 0.0
C687 C 0.39736 0.87446 0.81815 0.0
C688 C 0.39828 0.92188 0.81397 0.0
C689 C 0.44111 0.85691 0.82598 0.0
C690 C 0.37772 0.85428 0.7835 0.0
C691 C 0.34236 0.83252 0.79339 0.0
C692 C 0.31838 0.81259 0.7657 0.0
C693 C 0.33077 0.81512 0.72707 0.0
C694 C 0.36695 0.83742 0.71621 0.0
C695 C 0.3907 0.85681 0.74528 0.0
H696 H 0.7608 0.69484 0.86938 0.0
H697 H 0.86236 0.61099 0.89649 0.0
H698 H 0.88664 0.61518 0.82943 0.0
H699 H 0.73902 0.65557 0.7754 0.0
H700 H 0.72783 0.70581 0.75521 0.0
H701 H 0.71869 0.69622 0.80534 0.0
H702 H 0.76583 0.7583 0.82292 0.0
H703 H 0.77508 0.76812 0.77285 0.0
H704 H 0.81837 0.76014 0.80494 0.0
H705 H 0.89867 0.62735 0.75867 0.0
H706 H 0.89968 0.64952 0.69082 0.0
H707 H 0.79043 0.72565 0.7105 0.0
C708 C 0.788 0.67717 0.86117 0.0
C709 C 0.80964 0.65252 0.88817 0.0
C710 C 0.84554 0.6304 0.8764 0.0
C711 C 0.8594 0.63239 0.83833 0.0
C712 C 0.83718 0.65684 0.81241 0.0
C713 C 0.80241 0.67906 0.82341 0.0
C714 C 0.78444 0.70354 0.79019 0.0
C715 C 0.73986 0.68942 0.781 0.0
C716 C 0.78605 0.75029 0.79821 0.0
C717 C 0.81441 0.69149 0.75871 0.0
C718 C 0.8445 0.66437 0.772 0.0
C719 C 0.87528 0.64863 0.74797 0.0
C720 C 0.87546 0.66118 0.70942 0.0
C721 C 0.84522 0.6894 0.69533 0.0
C722 C 0.8143 0.7045 0.72047 0.0
H723 H 0.31236 0.83373 0.41049 0.0
H724 H 0.39595 0.72917 0.40012 0.0
H725 H 0.39384 0.73574 0.32939 0.0
H726 H 0.24749 0.80512 0.33197 0.0
H727 H 0.23747 0.85736 0.31615 0.0
H728 H 0.24877 0.84711 0.36582 0.0
H729 H 0.30964 0.89945 0.36356 0.0
H730 H 0.29843 0.90999 0.31388 0.0
H731 H 0.34984 0.89345 0.32802 0.0
H732 H 0.3818 0.75322 0.25976 0.0
H733 H 0.35672 0.77687 0.19628 0.0
H734 H 0.27699 0.86714 0.25143 0.0
C735 C 0.3307 0.81283 0.39314 0.0
C736 C 0.35485 0.7813 0.41047 0.0
C737 C 0.37758 0.75362 0.38713 0.0
C738 C 0.37659 0.75721 0.34705 0.0
C739 C 0.35212 0.78831 0.33068 0.0
C740 C 0.32926 0.81543 0.35295 0.0
C741 C 0.30314 0.84408 0.32806 0.0
C742 C 0.25646 0.83804 0.33598 0.0
C743 C 0.31605 0.88943 0.33372 0.0
C744 C 0.3148 0.82879 0.28842 0.0
C745 C 0.34356 0.797 0.29057 0.0
C746 C 0.35926 0.77808 0.25774 0.0
C747 C 0.34498 0.7918 0.2218 0.0
C748 C 0.31481 0.82368 0.21887 0.0
C749 C 0.29972 0.84239 0.25277 0.0
H750 H 0.19781 0.26104 0.72037 0.0
H751 H 0.0984 0.34857 0.69683 0.0
H752 H 0.09922 0.37038 0.76466 0.0
H753 H 0.16298 0.22958 0.81351 0.0
H754 H 0.2147 0.22571 0.83329 0.0
H755 H 0.20641 0.21736 0.78288 0.0
H756 H 0.26042 0.27426 0.76687 0.0
H757 H 0.26898 0.28269 0.81722 0.0
H758 H 0.25402 0.32532 0.7867 0.0
H759 H 0.10965 0.38092 0.8359 0.0
H760 H 0.13205 0.38272 0.90366 0.0
H761 H 0.22502 0.28867 0.8801 0.0
C762 C 0.17611 0.28468 0.72952 0.0
C763 C 0.14798 0.30306 0.70331 0.0
C764 C 0.12051 0.33438 0.71629 0.0
C765 C 0.12056 0.34674 0.75482 0.0
C766 C 0.14848 0.3277 0.77995 0.0
C767 C 0.17599 0.29759 0.76773 0.0
C768 C 0.20331 0.2824 0.80029 0.0
C769 C 0.19642 0.23601 0.80794 0.0
C770 C 0.24941 0.29174 0.79228 0.0
C771 C 0.18678 0.30854 0.83282 0.0
C772 C 0.15498 0.3343 0.82061 0.0
C773 C 0.13458 0.36094 0.84574 0.0
C774 C 0.14731 0.36154 0.88423 0.0
C775 C 0.18033 0.33588 0.8972 0.0
C776 C 0.20004 0.30898 0.871 0.0
H777 H 0.71479 0.09637 0.24972 0.0
H778 H 0.64868 0.19622 0.19238 0.0
H779 H 0.62797 0.2246 0.25479 0.0
H780 H 0.64039 0.08337 0.32788 0.0
H781 H 0.6799 0.07312 0.3634 0.0
H782 H 0.68885 0.05948 0.31408 0.0
H783 H 0.7564 0.10306 0.31391 0.0
H784 H 0.74766 0.11681 0.3632 0.0
H785 H 0.75412 0.15678 0.32758 0.0
H786 H 0.61741 0.24469 0.3226 0.0
H787 H 0.61523 0.25379 0.39269 0.0
H788 H 0.68614 0.14058 0.40793 0.0
C789 C 0.69587 0.12411 0.2504 0.0
C790 C 0.68306 0.14381 0.21602 0.0
C791 C 0.65821 0.18005 0.21813 0.0
C792 C 0.64649 0.19661 0.25352 0.0
C793 C 0.65958 0.17653 0.28676 0.0
C794 C 0.68348 0.14095 0.28567 0.0
C795 C 0.69347 0.12584 0.32593 0.0
C796 C 0.67452 0.0829 0.33325 0.0
C797 C 0.74072 0.12562 0.33307 0.0
C798 C 0.6719 0.15884 0.34967 0.0
C799 C 0.65269 0.18778 0.32633 0.0
C800 C 0.63208 0.2221 0.3412 0.0
C801 C 0.63119 0.22713 0.381 0.0
C802 C 0.65047 0.19792 0.40564 0.0
C803 C 0.67074 0.16308 0.38971 0.0
loop_
_geom_bond_atom_site_label_1
_geom_bond_atom_site_label_2
_geom_bond_distance
_geom_bond_site_symmetry_2
_ccdc_geom_bond_type
C0 C1 1.351 . S
C0 N3 1.368 . S
C0 H5 0.931 . S
C1 C0 1.351 . S
C1 N2 1.373 . S
C1 H29 0.930 . S
N2 C1 1.373 . S
N2 C4 1.340 . S
N3 C0 1.368 . S
N3 C4 1.321 . S
N3 Co6 2.135 1_556 S
C4 N2 1.340 . S
C4 N3 1.321 . S
C4 H28 0.930 . S
H5 C0 0.931 . S
Co6 N3 2.135 1_554 S
Co6 N9 2.121 . S
Co6 O14 2.055 . S
Co6 O17 2.039 . S
Co6 N20 2.140 . S
C7 O8 1.227 . S
C7 O17 1.265 . S
O8 C7 1.227 . S
N9 Co6 2.121 . S
N9 C11 1.375 . S
N9 C12 1.313 . S
C10 C11 1.338 . S
C10 N13 1.377 . S
C10 H30 0.930 . S
C11 N9 1.375 . S
C11 C10 1.338 . S
C11 H15 0.931 . S
C12 N9 1.313 . S
C12 N13 1.344 . S
C12 H16 0.930 . S
N13 C10 1.377 . S
N13 C12 1.344 . S
O14 Co6 2.055 . S
O14 C18 1.253 . S
H15 C11 0.931 . S
H16 C12 0.930 . S
O17 Co6 2.039 . S
O17 C7 1.265 . S
C18 O14 1.253 . S
C18 O19 1.227 . S
O19 C18 1.227 . S
N20 Co6 2.140 . S
N20 C23 1.346 . S
N20 C24 1.345 . S
C21 C22 1.387 . S
C21 C25 1.391 . S
C22 C21 1.387 . S
C22 C23 1.369 . S
C22 H31 0.929 1_554 S
C23 N20 1.346 . S
C23 C22 1.369 . S
C23 H26 0.928 1_554 S
C24 N20 1.345 . S
C24 C25 1.371 . S
C24 H27 0.931 . S
C25 C21 1.391 . S
C25 C24 1.371 . S
C25 H32 0.930 . S
H26 C23 0.928 1_556 S
H27 C24 0.931 . S
H28 C4 0.930 . S
H29 C1 0.930 . S
H30 C10 0.930 . S
H31 C22 0.929 1_556 S
H32 C25 0.930 . S
C33 C34 1.351 . S
C33 N36 1.368 . S
C33 H38 0.931 . S
C34 C33 1.351 . S
C34 N35 1.373 . S
C34 H62 0.930 . S
N35 C34 1.373 . S
N35 C37 1.340 . S
N36 C33 1.368 . S
N36 C37 1.321 . S
N36 Co39 2.135 . S
C37 N35 1.340 . S
C37 N36 1.321 . S
C37 H61 0.930 . S
H38 C33 0.931 . S
Co39 N36 2.135 . S
Co39 N42 2.121 . S
Co39 O47 2.055 . S
Co39 O50 2.039 . S
Co39 N53 2.140 . S
C40 O41 1.227 . S
C40 O50 1.265 . S
O41 C40 1.227 . S
N42 Co39 2.121 . S
N42 C44 1.375 . S
N42 C45 1.313 . S
C43 C44 1.338 . S
C43 N46 1.377 . S
C43 H63 0.930 . S
C44 N42 1.375 . S
C44 C43 1.338 . S
C44 H48 0.931 . S
C45 N42 1.313 . S
C45 N46 1.344 . S
C45 H49 0.930 . S
N46 C43 1.377 . S
N46 C45 1.344 . S
O47 Co39 2.055 . S
O47 C51 1.253 . S
H48 C44 0.931 . S
H49 C45 0.930 . S
O50 Co39 2.039 . S
O50 C40 1.265 . S
C51 O47 1.253 . S
C51 O52 1.227 . S
O52 C51 1.227 . S
N53 Co39 2.140 . S
N53 C56 1.346 . S
N53 C57 1.345 . S
C54 C55 1.387 . S
C54 C58 1.391 . S
C55 C54 1.387 . S
C55 C56 1.369 . S
C55 H64 0.929 . S
C56 N53 1.346 . S
C56 C55 1.369 . S
C56 H59 0.928 . S
C57 N53 1.345 . S
C57 C58 1.371 . S
C57 H60 0.931 . S
C58 C54 1.391 . S
C58 C57 1.371 . S
C58 H65 0.930 . S
H59 C56 0.928 . S
H60 C57 0.931 . S
H61 C37 0.930 . S
H62 C34 0.930 . S
H63 C43 0.930 . S
H64 C55 0.929 . S
H65 C58 0.930 . S
C66 C67 1.351 . S
C66 N69 1.368 . S
C66 H71 0.931 . S
C67 C66 1.351 . S
C67 N68 1.373 . S
C67 H95 0.930 . S
N68 C67 1.373 . S
N68 C70 1.340 . S
N69 C66 1.368 . S
N69 C70 1.321 . S
N69 Co72 2.135 1_556 S
C70 N68 1.340 . S
C70 N69 1.321 . S
C70 H94 0.930 . S
H71 C66 0.931 . S
Co72 N69 2.135 1_554 S
Co72 N75 2.121 . S
Co72 O80 2.055 . S
Co72 O83 2.039 . S
Co72 N86 2.140 . S
C73 O74 1.227 . S
C73 O83 1.265 . S
O74 C73 1.227 . S
N75 Co72 2.121 . S
N75 C77 1.375 . S
N75 C78 1.313 . S
C76 C77 1.338 . S
C76 N79 1.377 . S
C76 H96 0.930 . S
C77 N75 1.375 . S
C77 C76 1.338 . S
C77 H81 0.931 . S
C78 N75 1.313 . S
C78 N79 1.344 . S
C78 H82 0.930 . S
N79 C76 1.377 . S
N79 C78 1.344 . S
O80 Co72 2.055 . S
O80 C84 1.253 . S
H81 C77 0.931 . S
H82 C78 0.930 . S
O83 Co72 2.039 . S
O83 C73 1.265 . S
C84 O80 1.253 . S
C84 O85 1.227 . S
O85 C84 1.227 . S
N86 Co72 2.140 . S
N86 C89 1.346 . S
N86 C90 1.345 . S
C87 C88 1.387 . S
C87 C91 1.391 . S
C88 C87 1.387 . S
C88 C89 1.369 . S
C88 H97 0.929 1_554 S
C89 N86 1.346 . S
C89 C88 1.369 . S
C89 H92 0.928 1_554 S
C90 N86 1.345 . S
C90 C91 1.371 . S
C90 H93 0.931 . S
C91 C87 1.391 . S
C91 C90 1.371 . S
C91 H98 0.930 . S
H92 C89 0.928 1_556 S
H93 C90 0.931 . S
H94 C70 0.930 . S
H95 C67 0.930 . S
H96 C76 0.930 . S
H97 C88 0.929 1_556 S
H98 C91 0.930 . S
C99 C100 1.351 . S
C99 N102 1.368 . S
C99 H104 0.931 . S
C100 C99 1.351 . S
C100 N101 1.373 . S
C100 H128 0.930 . S
N101 C100 1.373 . S
N101 C103 1.340 . S
N102 C99 1.368 . S
N102 C103 1.321 . S
N102 Co105 2.135 . S
C103 N101 1.340 . S
C103 N102 1.321 . S
C103 H127 0.930 . S
H104 C99 0.931 . S
Co105 N102 2.135 . S
Co105 N108 2.121 . S
Co105 O113 2.055 . S
Co105 O116 2.039 . S
Co105 N119 2.140 . S
C106 O107 1.227 . S
C106 O116 1.265 . S
O107 C106 1.227 . S
N108 Co105 2.121 . S
N108 C110 1.375 . S
N108 C111 1.313 . S
C109 C110 1.338 . S
C109 N112 1.377 . S
C109 H129 0.930 . S
C110 N108 1.375 . S
C110 C109 1.338 . S
C110 H114 0.931 . S
C111 N108 1.313 . S
C111 N112 1.344 . S
C111 H115 0.930 . S
N112 C109 1.377 . S
N112 C111 1.344 . S
O113 Co105 2.055 . S
O113 C117 1.253 . S
H114 C110 0.931 . S
H115 C111 0.930 . S
O116 Co105 2.039 . S
O116 C106 1.265 . S
C117 O113 1.253 . S
C117 O118 1.227 . S
O118 C117 1.227 . S
N119 Co105 2.140 . S
N119 C122 1.346 . S
N119 C123 1.345 . S
C120 C121 1.387 . S
C120 C124 1.391 . S
C121 C120 1.387 . S
C121 C122 1.369 . S
C121 H130 0.929 . S
C122 N119 1.346 . S
C122 C121 1.369 . S
C122 H125 0.928 . S
C123 N119 1.345 . S
C123 C124 1.371 . S
C123 H126 0.931 . S
C124 C120 1.391 . S
C124 C123 1.371 . S
C124 H131 0.930 . S
H125 C122 0.928 . S
H126 C123 0.931 . S
H127 C103 0.930 . S
H128 C100 0.930 . S
H129 C109 0.930 . S
H130 C121 0.929 . S
H131 C124 0.930 . S
C132 C133 1.351 . S
C132 N135 1.368 . S
C132 H137 0.931 . S
C133 C132 1.351 . S
C133 N134 1.373 . S
C133 H161 0.930 . S
N134 C133 1.373 . S
N134 C136 1.340 . S
N135 C132 1.368 . S
N135 C136 1.321 . S
N135 Co138 2.135 . S
C136 N134 1.340 . S
C136 N135 1.321 . S
C136 H160 0.930 . S
H137 C132 0.931 . S
Co138 N135 2.135 . S
Co138 N141 2.121 1_554 S
Co138 O146 2.055 . S
Co138 O149 2.039 . S
Co138 N152 2.140 . S
C139 O140 1.227 . S
C139 O149 1.265 . S
O140 C139 1.227 . S
N141 Co138 2.121 1_556 S
N141 C143 1.375 . S
N141 C144 1.313 . S
C142 C143 1.338 . S
C142 N145 1.377 . S
C142 H162 0.930 . S
C143 N141 1.375 . S
C143 C142 1.338 . S
C143 H147 0.931 . S
C144 N141 1.313 . S
C144 N145 1.344 . S
C144 H148 0.930 . S
N145 C142 1.377 . S
N145 C144 1.344 . S
O146 Co138 2.055 . S
O146 C150 1.253 . S
H147 C143 0.931 . S
H148 C144 0.930 . S
O149 Co138 2.039 . S
O149 C139 1.265 . S
C150 O146 1.253 . S
C150 O151 1.227 . S
O151 C150 1.227 . S
N152 Co138 2.140 . S
N152 C155 1.346 . S
N152 C156 1.345 . S
C153 C154 1.387 . S
C153 C157 1.391 . S
C154 C153 1.387 . S
C154 C155 1.369 1_565 S
C154 H163 0.929 . S
C155 N152 1.346 . S
C155 C154 1.369 1_545 S
C155 H158 0.928 . S
C156 N152 1.345 . S
C156 C157 1.371 1_545 S
C156 H159 0.931 1_554 S
C157 C153 1.391 . S
C157 C156 1.371 1_565 S
C157 H164 0.930 1_554 S
H158 C155 0.928 . S
H159 C156 0.931 1_556 S
H160 C136 0.930 . S
H161 C133 0.930 . S
H162 C142 0.930 . S
H163 C154 0.929 . S
H164 C157 0.930 1_556 S
C165 C166 1.351 . S
C165 N168 1.368 . S
C165 H170 0.931 . S
C166 C165 1.351 . S
C166 N167 1.373 . S
C166 H194 0.930 . S
N167 C166 1.373 . S
N167 C169 1.340 . S
N168 C165 1.368 . S
N168 C169 1.321 . S
N168 Co171 2.135 . S
C169 N167 1.340 . S
C169 N168 1.321 . S
C169 H193 0.930 . S
H170 C165 0.931 . S
Co171 N168 2.135 . S
Co171 N174 2.121 . S
Co171 O179 2.055 . S
Co171 O182 2.039 . S
Co171 N185 2.140 . S
C172 O173 1.227 . S
C172 O182 1.265 . S
O173 C172 1.227 . S
N174 Co171 2.121 . S
N174 C176 1.375 . S
N174 C177 1.313 . S
C175 C176 1.338 . S
C175 N178 1.377 . S
C175 H195 0.930 . S
C176 N174 1.375 . S
C176 C175 1.338 . S
C176 H180 0.931 . S
C177 N174 1.313 . S
C177 N178 1.344 . S
C177 H181 0.930 . S
N178 C175 1.377 . S
N178 C177 1.344 . S
O179 Co171 2.055 . S
O179 C183 1.253 . S
H180 C176 0.931 . S
H181 C177 0.930 . S
O182 Co171 2.039 . S
O182 C172 1.265 . S
C183 O179 1.253 . S
C183 O184 1.227 . S
O184 C183 1.227 . S
N185 Co171 2.140 . S
N185 C188 1.346 . S
N185 C189 1.345 . S
C186 C187 1.387 . S
C186 C190 1.391 . S
C187 C186 1.387 . S
C187 C188 1.369 1_455 S
C187 H196 0.929 . S
C188 N185 1.346 . S
C188 C187 1.369 1_655 S
C188 H191 0.928 . S
C189 N185 1.345 . S
C189 C190 1.371 1_655 S
C189 H192 0.931 . S
C190 C186 1.391 . S
C190 C189 1.371 1_455 S
C190 H197 0.930 . S
H191 C188 0.928 . S
H192 C189 0.931 . S
H193 C169 0.930 . S
H194 C166 0.930 . S
H195 C175 0.930 . S
H196 C187 0.929 . S
H197 C190 0.930 . S
C198 C199 1.351 . S
C198 N201 1.368 . S
C198 H203 0.931 . S
C199 C198 1.351 . S
C199 N200 1.373 . S
C199 H227 0.930 . S
N200 C199 1.373 . S
N200 C202 1.340 . S
N201 C198 1.368 . S
N201 C202 1.321 . S
N201 Co204 2.135 . S
C202 N200 1.340 . S
C202 N201 1.321 . S
C202 H226 0.930 . S
H203 C198 0.931 . S
Co204 N201 2.135 . S
Co204 N207 2.121 1_554 S
Co204 O212 2.055 . S
Co204 O215 2.039 . S
Co204 N218 2.140 . S
C205 O206 1.227 . S
C205 O215 1.265 . S
O206 C205 1.227 . S
N207 Co204 2.121 1_556 S
N207 C209 1.375 . S
N207 C210 1.313 . S
C208 C209 1.338 . S
C208 N211 1.377 . S
C208 H228 0.930 . S
C209 N207 1.375 . S
C209 C208 1.338 . S
C209 H213 0.931 . S
C210 N207 1.313 . S
C210 N211 1.344 . S
C210 H214 0.930 . S
N211 C208 1.377 . S
N211 C210 1.344 . S
O212 Co204 2.055 . S
O212 C216 1.253 . S
H213 C209 0.931 . S
H214 C210 0.930 . S
O215 Co204 2.039 . S
O215 C205 1.265 . S
C216 O212 1.253 . S
C216 O217 1.227 . S
O217 C216 1.227 . S
N218 Co204 2.140 . S
N218 C221 1.346 . S
N218 C222 1.345 . S
C219 C220 1.387 . S
C219 C223 1.391 . S
C220 C219 1.387 . S
C220 C221 1.369 1_545 S
C220 H229 0.929 . S
C221 N218 1.346 . S
C221 C220 1.369 1_565 S
C221 H224 0.928 . S
C222 N218 1.345 . S
C222 C223 1.371 1_565 S
C222 H225 0.931 1_554 S
C223 C219 1.391 . S
C223 C222 1.371 1_545 S
C223 H230 0.930 1_554 S
H224 C221 0.928 . S
H225 C222 0.931 1_556 S
H226 C202 0.930 . S
H227 C199 0.930 . S
H228 C208 0.930 . S
H229 C220 0.929 . S
H230 C223 0.930 1_556 S
C231 C232 1.351 . S
C231 N234 1.368 . S
C231 H236 0.931 . S
C232 C231 1.351 . S
C232 N233 1.373 . S
C232 H260 0.930 . S
N233 C232 1.373 . S
N233 C235 1.340 . S
N234 C231 1.368 . S
N234 C235 1.321 . S
N234 Co237 2.135 . S
C235 N233 1.340 . S
C235 N234 1.321 . S
C235 H259 0.930 . S
H236 C231 0.931 . S
Co237 N234 2.135 . S
Co237 N240 2.121 . S
Co237 O245 2.055 . S
Co237 O248 2.039 . S
Co237 N251 2.140 . S
C238 O239 1.227 . S
C238 O248 1.265 . S
O239 C238 1.227 . S
N240 Co237 2.121 . S
N240 C242 1.375 . S
N240 C243 1.313 . S
C241 C242 1.338 . S
C241 N244 1.377 . S
C241 H261 0.930 . S
C242 N240 1.375 . S
C242 C241 1.338 . S
C242 H246 0.931 . S
C243 N240 1.313 . S
C243 N244 1.344 . S
C243 H247 0.930 . S
N244 C241 1.377 . S
N244 C243 1.344 . S
O245 Co237 2.055 . S
O245 C249 1.253 . S
H246 C242 0.931 . S
H247 C243 0.930 . S
O248 Co237 2.039 . S
O248 C238 1.265 . S
C249 O245 1.253 . S
C249 O250 1.227 . S
O250 C249 1.227 . S
N251 Co237 2.140 . S
N251 C254 1.346 . S
N251 C255 1.345 . S
C252 C253 1.387 . S
C252 C256 1.391 . S
C253 C252 1.387 . S
C253 C254 1.369 1_655 S
C253 H262 0.929 . S
C254 N251 1.346 . S
C254 C253 1.369 1_455 S
C254 H257 0.928 . S
C255 N251 1.345 . S
C255 C256 1.371 1_455 S
C255 H258 0.931 . S
C256 C252 1.391 . S
C256 C255 1.371 1_655 S
C256 H263 0.930 . S
H257 C254 0.928 . S
H258 C255 0.931 . S
H259 C235 0.930 . S
H260 C232 0.930 . S
H261 C241 0.930 . S
H262 C253 0.929 . S
H263 C256 0.930 . S
H264 C276 0.930 1_556 S
H265 C278 0.930 . S
H266 C279 0.930 . S
H267 C283 0.959 . S
H268 C283 0.959 . S
H269 C283 0.961 . S
H270 C284 0.960 . S
H271 C284 0.961 . S
H272 C284 0.959 . S
H273 C287 0.929 . S
H274 C288 0.931 . S
H275 C290 0.930 1_556 S
C276 H264 0.930 1_554 S
C276 C277 1.399 . S
C276 C281 1.399 . S
C277 C276 1.399 . S
C277 C278 1.376 . S
C278 H265 0.930 . S
C278 C277 1.376 . S
C278 C279 1.388 . S
C279 H266 0.930 . S
C279 C278 1.388 . S
C279 C280 1.390 . S
C280 C279 1.390 . S
C280 C281 1.394 . S
C280 C286 1.465 . S
C281 C276 1.399 . S
C281 C280 1.394 . S
C281 C282 1.516 1_554 S
C282 C281 1.516 1_556 S
C282 C283 1.502 . S
C282 C284 1.561 . S
C282 C285 1.526 1_556 S
C283 H267 0.959 . S
C283 H268 0.959 . S
C283 H269 0.961 . S
C283 C282 1.502 . S
C284 H270 0.960 . S
C284 H271 0.961 . S
C284 H272 0.959 . S
C284 C282 1.561 . S
C285 C282 1.526 1_554 S
C285 C286 1.396 . S
C285 C290 1.390 . S
C286 C280 1.465 . S
C286 C285 1.396 . S
C286 C287 1.399 . S
C287 H273 0.929 . S
C287 C286 1.399 . S
C287 C288 1.385 . S
C288 H274 0.931 . S
C288 C287 1.385 . S
C288 C289 1.389 . S
C289 C288 1.389 . S
C289 C290 1.387 . S
C290 H275 0.930 1_554 S
C290 C285 1.390 . S
C290 C289 1.387 . S
H291 C303 0.930 . S
H292 C305 0.930 . S
H293 C306 0.930 . S
H294 C310 0.959 . S
H295 C310 0.959 . S
H296 C310 0.961 . S
H297 C311 0.960 . S
H298 C311 0.961 . S
H299 C311 0.959 . S
H300 C314 0.929 . S
H301 C315 0.931 . S
H302 C317 0.930 . S
C303 H291 0.930 . S
C303 C304 1.399 . S
C303 C308 1.399 . S
C304 C303 1.399 . S
C304 C305 1.376 . S
C305 H292 0.930 . S
C305 C304 1.376 . S
C305 C306 1.388 . S
C306 H293 0.930 . S
C306 C305 1.388 . S
C306 C307 1.390 . S
C307 C306 1.390 . S
C307 C308 1.394 . S
C307 C313 1.465 . S
C308 C303 1.399 . S
C308 C307 1.394 . S
C308 C309 1.516 . S
C309 C308 1.516 . S
C309 C310 1.502 . S
C309 C311 1.561 . S
C309 C312 1.526 . S
C310 H294 0.959 . S
C310 H295 0.959 . S
C310 H296 0.961 . S
C310 C309 1.502 . S
C311 H297 0.960 . S
C311 H298 0.961 . S
C311 H299 0.959 . S
C311 C309 1.561 . S
C312 C309 1.526 . S
C312 C313 1.396 . S
C312 C317 1.390 . S
C313 C307 1.465 . S
C313 C312 1.396 . S
C313 C314 1.399 . S
C314 H300 0.929 . S
C314 C313 1.399 . S
C314 C315 1.385 . S
C315 H301 0.931 . S
C315 C314 1.385 . S
C315 C316 1.389 . S
C316 C315 1.389 . S
C316 C317 1.387 . S
C317 H302 0.930 . S
C317 C312 1.390 . S
C317 C316 1.387 . S
H318 C330 0.930 1_556 S
H319 C332 0.930 . S
H320 C333 0.930 . S
H321 C337 0.959 1_554 S
H322 C337 0.959 . S
H323 C337 0.961 . S
H324 C338 0.960 . S
H325 C338 0.961 . S
H326 C338 0.959 . S
H327 C341 0.929 . S
H328 C342 0.931 . S
H329 C344 0.930 1_556 S
C330 H318 0.930 1_554 S
C330 C331 1.399 . S
C330 C335 1.399 . S
C331 C330 1.399 . S
C331 C332 1.376 . S
C332 H319 0.930 . S
C332 C331 1.376 . S
C332 C333 1.388 . S
C333 H320 0.930 . S
C333 C332 1.388 . S
C333 C334 1.390 . S
C334 C333 1.390 . S
C334 C335 1.394 . S
C334 C340 1.465 . S
C335 C330 1.399 . S
C335 C334 1.394 . S
C335 C336 1.516 1_554 S
C336 C335 1.516 1_556 S
C336 C337 1.502 . S
C336 C338 1.561 . S
C336 C339 1.526 1_556 S
C337 H321 0.959 1_556 S
C337 H322 0.959 . S
C337 H323 0.961 . S
C337 C336 1.502 . S
C338 H324 0.960 . S
C338 H325 0.961 . S
C338 H326 0.959 . S
C338 C336 1.561 . S
C339 C336 1.526 1_554 S
C339 C340 1.396 . S
C339 C344 1.390 . S
C340 C334 1.465 . S
C340 C339 1.396 . S
C340 C341 1.399 . S
C341 H327 0.929 . S
C341 C340 1.399 . S
C341 C342 1.385 . S
C342 H328 0.931 . S
C342 C341 1.385 . S
C342 C343 1.389 . S
C343 C342 1.389 . S
C343 C344 1.387 . S
C344 H329 0.930 1_554 S
C344 C339 1.390 . S
C344 C343 1.387 . S
H345 C357 0.930 . S
H346 C359 0.930 . S
H347 C360 0.930 . S
H348 C364 0.959 . S
H349 C364 0.959 . S
H350 C364 0.961 . S
H351 C365 0.960 . S
H352 C365 0.961 . S
H353 C365 0.959 . S
H354 C368 0.929 . S
H355 C369 0.931 . S
H356 C371 0.930 . S
C357 H345 0.930 . S
C357 C358 1.399 . S
C357 C362 1.399 . S
C358 C357 1.399 . S
C358 C359 1.376 . S
C359 H346 0.930 . S
C359 C358 1.376 . S
C359 C360 1.388 . S
C360 H347 0.930 . S
C360 C359 1.388 . S
C360 C361 1.390 . S
C361 C360 1.390 . S
C361 C362 1.394 . S
C361 C367 1.465 . S
C362 C357 1.399 . S
C362 C361 1.394 . S
C362 C363 1.516 . S
C363 C362 1.516 . S
C363 C364 1.502 . S
C363 C365 1.561 . S
C363 C366 1.526 . S
C364 H348 0.959 . S
C364 H349 0.959 . S
C364 H350 0.961 . S
C364 C363 1.502 . S
C365 H351 0.960 . S
C365 H352 0.961 . S
C365 H353 0.959 . S
C365 C363 1.561 . S
C366 C363 1.526 . S
C366 C367 1.396 . S
C366 C371 1.390 . S
C367 C361 1.465 . S
C367 C366 1.396 . S
C367 C368 1.399 . S
C368 H354 0.929 . S
C368 C367 1.399 . S
C368 C369 1.385 . S
C369 H355 0.931 . S
C369 C368 1.385 . S
C369 C370 1.389 . S
C370 C369 1.389 . S
C370 C371 1.387 . S
C371 H356 0.930 . S
C371 C366 1.390 . S
C371 C370 1.387 . S
H372 C384 0.930 . S
H373 C386 0.930 . S
H374 C387 0.930 . S
H375 C391 0.959 . S
H376 C391 0.959 . S
H377 C391 0.961 . S
H378 C392 0.960 . S
H379 C392 0.961 . S
H380 C392 0.959 . S
H381 C395 0.929 . S
H382 C396 0.931 . S
H383 C398 0.930 . S
C384 H372 0.930 . S
C384 C385 1.399 . S
C384 C389 1.399 . S
C385 C384 1.399 . S
C385 C386 1.376 1_554 S
C386 H373 0.930 . S
C386 C385 1.376 1_556 S
C386 C387 1.388 . S
C387 H374 0.930 . S
C387 C386 1.388 . S
C387 C388 1.390 1_556 S
C388 C387 1.390 1_554 S
C388 C389 1.394 . S
C388 C394 1.465 . S
C389 C384 1.399 . S
C389 C388 1.394 . S
C389 C390 1.516 . S
C390 C389 1.516 . S
C390 C391 1.502 . S
C390 C392 1.561 . S
C390 C393 1.526 . S
C391 H375 0.959 . S
C391 H376 0.959 . S
C391 H377 0.961 . S
C391 C390 1.502 . S
C392 H378 0.960 . S
C392 H379 0.961 . S
C392 H380 0.959 . S
C392 C390 1.561 . S
C393 C390 1.526 . S
C393 C394 1.396 . S
C393 C398 1.390 . S
C394 C388 1.465 . S
C394 C393 1.396 . S
C394 C395 1.399 1_554 S
C395 H381 0.929 . S
C395 C394 1.399 1_556 S
C395 C396 1.385 . S
C396 H382 0.931 . S
C396 C395 1.385 . S
C396 C397 1.389 1_556 S
C397 C396 1.389 1_554 S
C397 C398 1.387 . S
C398 H383 0.930 . S
C398 C393 1.390 . S
C398 C397 1.387 . S
H399 C411 0.930 . S
H400 C413 0.930 . S
H401 C414 0.930 . S
H402 C418 0.959 . S
H403 C418 0.959 . S
H404 C418 0.961 . S
H405 C419 0.960 . S
H406 C419 0.961 . S
H407 C419 0.959 . S
H408 C422 0.929 . S
H409 C423 0.931 . S
H410 C425 0.930 . S
C411 H399 0.930 . S
C411 C412 1.399 . S
C411 C416 1.399 . S
C412 C411 1.399 . S
C412 C413 1.376 . S
C413 H400 0.930 . S
C413 C412 1.376 . S
C413 C414 1.388 . S
C414 H401 0.930 . S
C414 C413 1.388 . S
C414 C415 1.390 . S
C415 C414 1.390 . S
C415 C416 1.394 . S
C415 C421 1.465 . S
C416 C411 1.399 . S
C416 C415 1.394 . S
C416 C417 1.516 . S
C417 C416 1.516 . S
C417 C418 1.502 . S
C417 C419 1.561 . S
C417 C420 1.526 . S
C418 H402 0.959 . S
C418 H403 0.959 . S
C418 H404 0.961 . S
C418 C417 1.502 . S
C419 H405 0.960 . S
C419 H406 0.961 . S
C419 H407 0.959 . S
C419 C417 1.561 . S
C420 C417 1.526 . S
C420 C421 1.396 . S
C420 C425 1.390 . S
C421 C415 1.465 . S
C421 C420 1.396 . S
C421 C422 1.399 . S
C422 H408 0.929 . S
C422 C421 1.399 . S
C422 C423 1.385 . S
C423 H409 0.931 . S
C423 C422 1.385 . S
C423 C424 1.389 . S
C424 C423 1.389 . S
C424 C425 1.387 . S
C425 H410 0.930 . S
C425 C420 1.390 . S
C425 C424 1.387 . S
H426 C438 0.930 . S
H427 C440 0.930 . S
H428 C441 0.930 . S
H429 C445 0.959 . S
H430 C445 0.959 . S
H431 C445 0.961 . S
H432 C446 0.960 . S
H433 C446 0.961 . S
H434 C446 0.959 . S
H435 C449 0.929 . S
H436 C450 0.931 . S
H437 C452 0.930 . S
C438 H426 0.930 . S
C438 C439 1.399 . S
C438 C443 1.399 . S
C439 C438 1.399 . S
C439 C440 1.376 1_554 S
C440 H427 0.930 . S
C440 C439 1.376 1_556 S
C440 C441 1.388 . S
C441 H428 0.930 . S
C441 C440 1.388 . S
C441 C442 1.390 1_556 S
C442 C441 1.390 1_554 S
C442 C443 1.394 . S
C442 C448 1.465 . S
C443 C438 1.399 . S
C443 C442 1.394 . S
C443 C444 1.516 . S
C444 C443 1.516 . S
C444 C445 1.502 . S
C444 C446 1.561 . S
C444 C447 1.526 . S
C445 H429 0.959 . S
C445 H430 0.959 . S
C445 H431 0.961 . S
C445 C444 1.502 . S
C446 H432 0.960 . S
C446 H433 0.961 . S
C446 H434 0.959 . S
C446 C444 1.561 . S
C447 C444 1.526 . S
C447 C448 1.396 . S
C447 C452 1.390 . S
C448 C442 1.465 . S
C448 C447 1.396 . S
C448 C449 1.399 1_554 S
C449 H435 0.929 . S
C449 C448 1.399 1_556 S
C449 C450 1.385 . S
C450 H436 0.931 . S
C450 C449 1.385 . S
C450 C451 1.389 1_556 S
C451 C450 1.389 1_554 S
C451 C452 1.387 . S
C452 H437 0.930 . S
C452 C447 1.390 . S
C452 C451 1.387 . S
H453 C465 0.930 . S
H454 C467 0.930 . S
H455 C468 0.930 . S
H456 C472 0.959 . S
H457 C472 0.959 . S
H458 C472 0.961 . S
H459 C473 0.960 . S
H460 C473 0.961 . S
H461 C473 0.959 . S
H462 C476 0.929 . S
H463 C477 0.931 . S
H464 C479 0.930 . S
C465 H453 0.930 . S
C465 C466 1.399 . S
C465 C470 1.399 . S
C466 C465 1.399 . S
C466 C467 1.376 . S
C467 H454 0.930 . S
C467 C466 1.376 . S
C467 C468 1.388 . S
C468 H455 0.930 . S
C468 C467 1.388 . S
C468 C469 1.390 . S
C469 C468 1.390 . S
C469 C470 1.394 . S
C469 C475 1.465 . S
C470 C465 1.399 . S
C470 C469 1.394 . S
C470 C471 1.516 . S
C471 C470 1.516 . S
C471 C472 1.502 . S
C471 C473 1.561 . S
C471 C474 1.526 . S
C472 H456 0.959 . S
C472 H457 0.959 . S
C472 H458 0.961 . S
C472 C471 1.502 . S
C473 H459 0.960 . S
C473 H460 0.961 . S
C473 H461 0.959 . S
C473 C471 1.561 . S
C474 C471 1.526 . S
C474 C475 1.396 . S
C474 C479 1.390 . S
C475 C469 1.465 . S
C475 C474 1.396 . S
C475 C476 1.399 . S
C476 H462 0.929 . S
C476 C475 1.399 . S
C476 C477 1.385 . S
C477 H463 0.931 . S
C477 C476 1.385 . S
C477 C478 1.389 . S
C478 C477 1.389 . S
C478 C479 1.387 . S
C479 H464 0.930 . S
C479 C474 1.390 . S
C479 C478 1.387 . S
H480 C492 0.930 . S
H481 C494 0.930 . S
H482 C495 0.930 . S
H483 C499 0.959 . S
H484 C499 0.959 . S
H485 C499 0.961 1_455 S
H486 C500 0.960 . S
H487 C500 0.961 . S
H488 C500 0.959 . S
H489 C503 0.929 . S
H490 C504 0.931 . S
H491 C506 0.930 . S
C492 H480 0.930 . S
C492 C493 1.399 . S
C492 C497 1.399 . S
C493 C492 1.399 . S
C493 C494 1.376 1_554 S
C494 H481 0.930 . S
C494 C493 1.376 1_556 S
C494 C495 1.388 . S
C495 H482 0.930 . S
C495 C494 1.388 . S
C495 C496 1.383 1_556 S
C496 C495 1.383 1_554 S
C496 C497 1.402 . S
C496 C502 1.465 1_455 S
C497 C492 1.399 . S
C497 C496 1.402 . S
C497 C498 1.516 . S
C498 C497 1.516 . S
C498 C499 1.502 1_455 S
C498 C500 1.561 . S
C498 C501 1.526 1_455 S
C499 H483 0.959 . S
C499 H484 0.959 . S
C499 H485 0.961 1_655 S
C499 C498 1.502 1_655 S
C500 H486 0.960 . S
C500 H487 0.961 . S
C500 H488 0.959 . S
C500 C498 1.561 . S
C501 C498 1.526 1_655 S
C501 C502 1.403 . S
C501 C506 1.390 . S
C502 C496 1.465 1_655 S
C502 C501 1.403 . S
C502 C503 1.393 1_554 S
C503 H489 0.929 . S
C503 C502 1.393 1_556 S
C503 C504 1.385 . S
C504 H490 0.931 . S
C504 C503 1.385 . S
C504 C505 1.389 1_556 S
C505 C504 1.389 1_554 S
C505 C506 1.387 . S
C506 H491 0.930 . S
C506 C501 1.390 . S
C506 C505 1.387 . S
H507 C519 0.930 . S
H508 C521 0.930 . S
H509 C522 0.930 . S
H510 C526 0.959 . S
H511 C526 0.959 . S
H512 C526 0.961 . S
H513 C527 0.960 . S
H514 C527 0.961 1_545 S
H515 C527 0.959 . S
H516 C530 0.929 . S
H517 C531 0.931 . S
H518 C533 0.930 . S
C519 H507 0.930 . S
C519 C520 1.399 . S
C519 C524 1.399 . S
C520 C519 1.399 . S
C520 C521 1.376 . S
C521 H508 0.930 . S
C521 C520 1.376 . S
C521 C522 1.388 . S
C522 H509 0.930 . S
C522 C521 1.388 . S
C522 C523 1.390 . S
C523 C522 1.390 . S
C523 C524 1.394 . S
C523 C529 1.465 1_565 S
C524 C519 1.399 . S
C524 C523 1.394 . S
C524 C525 1.516 1_565 S
C525 C524 1.516 1_545 S
C525 C526 1.502 . S
C525 C527 1.561 1_545 S
C525 C528 1.526 . S
C526 H510 0.959 . S
C526 H511 0.959 . S
C526 H512 0.961 . S
C526 C525 1.502 . S
C527 H513 0.960 . S
C527 H514 0.961 1_565 S
C527 H515 0.959 . S
C527 C525 1.561 1_565 S
C528 C525 1.526 . S
C528 C529 1.396 . S
C528 C533 1.390 . S
C529 C523 1.465 1_545 S
C529 C528 1.396 . S
C529 C530 1.399 . S
C530 H516 0.929 . S
C530 C529 1.399 . S
C530 C531 1.385 . S
C531 H517 0.931 . S
C531 C530 1.385 . S
C531 C532 1.389 . S
C532 C531 1.389 . S
C532 C533 1.387 . S
C533 H518 0.930 . S
C533 C528 1.390 . S
C533 C532 1.387 . S
H534 C546 0.930 . S
H535 C548 0.930 . S
H536 C549 0.930 . S
H537 C553 0.966 . S
H538 C553 0.959 . S
H539 C553 0.961 . S
H540 C554 0.960 . S
H541 C554 0.961 . S
H542 C554 0.959 . S
H543 C557 0.929 1_565 S
H544 C558 0.931 . S
H545 C560 0.930 . S
C546 H534 0.930 . S
C546 C547 1.399 . S
C546 C551 1.399 . S
C547 C546 1.399 . S
C547 C548 1.376 . S
C548 H535 0.930 . S
C548 C547 1.376 . S
C548 C549 1.388 . S
C549 H536 0.930 . S
C549 C548 1.388 . S
C549 C550 1.390 . S
C550 C549 1.390 . S
C550 C551 1.394 . S
C550 C556 1.465 1_565 S
C551 C546 1.399 . S
C551 C550 1.394 . S
C551 C552 1.516 1_565 S
C552 C551 1.516 1_545 S
C552 C553 1.502 1_554 S
C552 C554 1.561 . S
C552 C555 1.526 . S
C553 H537 0.966 . S
C553 H538 0.959 . S
C553 H539 0.961 . S
C553 C552 1.502 1_556 S
C554 H540 0.960 . S
C554 H541 0.961 . S
C554 H542 0.959 . S
C554 C552 1.561 . S
C555 C552 1.526 . S
C555 C556 1.396 . S
C555 C560 1.390 . S
C556 C550 1.465 1_545 S
C556 C555 1.396 . S
C556 C557 1.399 . S
C557 H543 0.929 1_545 S
C557 C556 1.399 . S
C557 C558 1.385 . S
C558 H544 0.931 . S
C558 C557 1.385 . S
C558 C559 1.389 . S
C559 C558 1.389 . S
C559 C560 1.387 . S
C560 H545 0.930 . S
C560 C555 1.390 . S
C560 C559 1.387 . S
H561 C573 0.930 . S
H562 C575 0.930 . S
H563 C576 0.930 . S
H564 C580 0.959 . S
H565 C580 0.959 . S
H566 C580 0.961 . S
H567 C581 0.960 . S
H568 C581 0.961 . S
H569 C581 0.959 . S
H570 C584 0.929 . S
H571 C585 0.931 . S
H572 C587 0.930 . S
C573 H561 0.930 . S
C573 C574 1.399 . S
C573 C578 1.399 . S
C574 C573 1.399 . S
C574 C575 1.376 . S
C575 H562 0.930 . S
C575 C574 1.376 . S
C575 C576 1.388 . S
C576 H563 0.930 . S
C576 C575 1.388 . S
C576 C577 1.390 . S
C577 C576 1.390 . S
C577 C578 1.394 . S
C577 C583 1.465 1_655 S
C578 C573 1.399 . S
C578 C577 1.394 . S
C578 C579 1.516 . S
C579 C578 1.516 . S
C579 C580 1.502 . S
C579 C581 1.561 1_655 S
C579 C582 1.526 1_655 S
C580 H564 0.959 . S
C580 H565 0.959 . S
C580 H566 0.961 . S
C580 C579 1.502 . S
C581 H567 0.960 . S
C581 H568 0.961 . S
C581 H569 0.959 . S
C581 C579 1.561 1_455 S
C582 C579 1.526 1_455 S
C582 C583 1.396 . S
C582 C587 1.390 . S
C583 C577 1.465 1_455 S
C583 C582 1.396 . S
C583 C584 1.399 . S
C584 H570 0.929 . S
C584 C583 1.399 . S
C584 C585 1.385 . S
C585 H571 0.931 . S
C585 C584 1.385 . S
C585 C586 1.389 . S
C586 C585 1.389 . S
C586 C587 1.387 . S
C587 H572 0.930 . S
C587 C582 1.390 . S
C587 C586 1.387 . S
H588 C600 0.930 . S
H589 C602 0.930 . S
H590 C603 0.930 . S
H591 C607 0.959 . S
H592 C607 0.959 . S
H593 C607 0.961 . S
H594 C608 0.960 . S
H595 C608 0.961 . S
H596 C608 0.959 . S
H597 C611 0.929 . S
H598 C612 0.931 . S
H599 C614 0.930 . S
C600 H588 0.930 . S
C600 C601 1.399 . S
C600 C605 1.399 . S
C601 C600 1.399 . S
C601 C602 1.376 . S
C602 H589 0.930 . S
C602 C601 1.376 . S
C602 C603 1.388 . S
C603 H590 0.930 . S
C603 C602 1.388 . S
C603 C604 1.390 . S
C604 C603 1.390 . S
C604 C605 1.394 . S
C604 C610 1.465 . S
C605 C600 1.399 . S
C605 C604 1.394 . S
C605 C606 1.516 . S
C606 C605 1.516 . S
C606 C607 1.502 . S
C606 C608 1.561 . S
C606 C609 1.526 . S
C607 H591 0.959 . S
C607 H592 0.959 . S
C607 H593 0.961 . S
C607 C606 1.502 . S
C608 H594 0.960 . S
C608 H595 0.961 . S
C608 H596 0.959 . S
C608 C606 1.561 . S
C609 C606 1.526 . S
C609 C610 1.396 . S
C609 C614 1.390 . S
C610 C604 1.465 . S
C610 C609 1.396 . S
C610 C611 1.399 . S
C611 H597 0.929 . S
C611 C610 1.399 . S
C611 C612 1.385 . S
C612 H598 0.931 . S
C612 C611 1.385 . S
C612 C613 1.389 . S
C613 C612 1.389 . S
C613 C614 1.387 . S
C614 H599 0.930 . S
C614 C609 1.390 . S
C614 C613 1.387 . S
H615 C627 0.930 . S
H616 C629 0.930 . S
H617 C630 0.930 . S
H618 C634 0.959 . S
H619 C634 0.959 . S
H620 C634 0.961 . S
H621 C635 0.960 . S
H622 C635 0.961 . S
H623 C635 0.959 . S
H624 C638 0.929 . S
H625 C639 0.931 . S
H626 C641 0.930 . S
C627 H615 0.930 . S
C627 C628 1.399 . S
C627 C632 1.399 . S
C628 C627 1.399 . S
C628 C629 1.376 . S
C629 H616 0.930 . S
C629 C628 1.376 . S
C629 C630 1.388 . S
C630 H617 0.930 . S
C630 C629 1.388 . S
C630 C631 1.390 . S
C631 C630 1.390 . S
C631 C632 1.394 . S
C631 C637 1.465 . S
C632 C627 1.399 . S
C632 C631 1.394 . S
C632 C633 1.516 . S
C633 C632 1.516 . S
C633 C634 1.502 . S
C633 C635 1.561 . S
C633 C636 1.526 . S
C634 H618 0.959 . S
C634 H619 0.959 . S
C634 H620 0.961 . S
C634 C633 1.502 . S
C635 H621 0.960 . S
C635 H622 0.961 . S
C635 H623 0.959 . S
C635 C633 1.561 . S
C636 C633 1.526 . S
C636 C637 1.396 . S
C636 C641 1.390 . S
C637 C631 1.465 . S
C637 C636 1.396 . S
C637 C638 1.399 . S
C638 H624 0.929 . S
C638 C637 1.399 . S
C638 C639 1.385 . S
C639 H625 0.931 . S
C639 C638 1.385 . S
C639 C640 1.389 . S
C640 C639 1.389 . S
C640 C641 1.387 . S
C641 H626 0.930 . S
C641 C636 1.390 . S
C641 C640 1.387 . S
H642 C654 0.930 . S
H643 C656 0.930 . S
H644 C657 0.930 . S
H645 C661 0.959 . S
H646 C661 0.959 . S
H647 C661 0.961 . S
H648 C662 0.960 . S
H649 C662 0.961 . S
H650 C662 0.959 . S
H651 C665 0.929 . S
H652 C666 0.931 . S
H653 C668 0.930 . S
C654 H642 0.930 . S
C654 C655 1.399 . S
C654 C659 1.399 . S
C655 C654 1.399 . S
C655 C656 1.376 . S
C656 H643 0.930 . S
C656 C655 1.376 . S
C656 C657 1.388 . S
C657 H644 0.930 . S
C657 C656 1.388 . S
C657 C658 1.390 . S
C658 C657 1.390 . S
C658 C659 1.394 . S
C658 C664 1.465 . S
C659 C654 1.399 . S
C659 C658 1.394 . S
C659 C660 1.516 . S
C660 C659 1.516 . S
C660 C661 1.502 . S
C660 C662 1.561 . S
C660 C663 1.526 . S
C661 H645 0.959 . S
C661 H646 0.959 . S
C661 H647 0.961 . S
C661 C660 1.502 . S
C662 H648 0.960 . S
C662 H649 0.961 . S
C662 H650 0.959 . S
C662 C660 1.561 . S
C663 C660 1.526 . S
C663 C664 1.396 . S
C663 C668 1.390 . S
C664 C658 1.465 . S
C664 C663 1.396 . S
C664 C665 1.399 . S
C665 H651 0.929 . S
C665 C664 1.399 . S
C665 C666 1.385 . S
C666 H652 0.931 . S
C666 C665 1.385 . S
C666 C667 1.389 . S
C667 C666 1.389 . S
C667 C668 1.387 . S
C668 H653 0.930 . S
C668 C663 1.390 . S
C668 C667 1.387 . S
H669 C681 0.930 . S
H670 C683 0.930 . S
H671 C684 0.930 . S
H672 C688 0.959 . S
H673 C688 0.959 . S
H674 C688 0.961 . S
H675 C689 0.960 . S
H676 C689 0.961 . S
H677 C689 0.959 . S
H678 C692 0.929 . S
H679 C693 0.931 . S
H680 C695 0.930 . S
C681 H669 0.930 . S
C681 C682 1.399 . S
C681 C686 1.399 . S
C682 C681 1.399 . S
C682 C683 1.376 . S
C683 H670 0.930 . S
C683 C682 1.376 . S
C683 C684 1.388 . S
C684 H671 0.930 . S
C684 C683 1.388 . S
C684 C685 1.390 . S
C685 C684 1.390 . S
C685 C686 1.394 . S
C685 C691 1.465 . S
C686 C681 1.399 . S
C686 C685 1.394 . S
C686 C687 1.516 . S
C687 C686 1.516 . S
C687 C688 1.502 . S
C687 C689 1.561 . S
C687 C690 1.526 . S
C688 H672 0.959 . S
C688 H673 0.959 . S
C688 H674 0.961 . S
C688 C687 1.502 . S
C689 H675 0.960 . S
C689 H676 0.961 . S
C689 H677 0.959 . S
C689 C687 1.561 . S
C690 C687 1.526 . S
C690 C691 1.396 . S
C690 C695 1.390 . S
C691 C685 1.465 . S
C691 C690 1.396 . S
C691 C692 1.399 . S
C692 H678 0.929 . S
C692 C691 1.399 . S
C692 C693 1.385 . S
C693 H679 0.931 . S
C693 C692 1.385 . S
C693 C694 1.389 . S
C694 C693 1.389 . S
C694 C695 1.387 . S
C695 H680 0.930 . S
C695 C690 1.390 . S
C695 C694 1.387 . S
H696 C708 0.930 . S
H697 C710 0.930 . S
H698 C711 0.930 . S
H699 C715 0.959 . S
H700 C715 0.959 . S
H701 C715 0.961 . S
H702 C716 0.960 . S
H703 C716 0.961 . S
H704 C716 0.959 . S
H705 C719 0.929 . S
H706 C720 0.931 . S
H707 C722 0.930 . S
C708 H696 0.930 . S
C708 C709 1.399 . S
C708 C713 1.399 . S
C709 C708 1.399 . S
C709 C710 1.376 . S
C710 H697 0.930 . S
C710 C709 1.376 . S
C710 C711 1.388 . S
C711 H698 0.930 . S
C711 C710 1.388 . S
C711 C712 1.390 . S
C712 C711 1.390 . S
C712 C713 1.394 . S
C712 C718 1.465 . S
C713 C708 1.399 . S
C713 C712 1.394 . S
C713 C714 1.516 . S
C714 C713 1.516 . S
C714 C715 1.502 . S
C714 C716 1.561 . S
C714 C717 1.526 . S
C715 H699 0.959 . S
C715 H700 0.959 . S
C715 H701 0.961 . S
C715 C714 1.502 . S
C716 H702 0.960 . S
C716 H703 0.961 . S
C716 H704 0.959 . S
C716 C714 1.561 . S
C717 C714 1.526 . S
C717 C718 1.396 . S
C717 C722 1.390 . S
C718 C712 1.465 . S
C718 C717 1.396 . S
C718 C719 1.399 . S
C719 H705 0.929 . S
C719 C718 1.399 . S
C719 C720 1.385 . S
C720 H706 0.931 . S
C720 C719 1.385 . S
C720 C721 1.389 . S
C721 C720 1.389 . S
C721 C722 1.387 . S
C722 H707 0.930 . S
C722 C717 1.390 . S
C722 C721 1.387 . S
H723 C735 0.930 . S
H724 C737 0.930 . S
H725 C738 0.930 . S
H726 C742 0.959 . S
H727 C742 0.959 . S
H728 C742 0.961 . S
H729 C743 0.960 . S
H730 C743 0.961 . S
H731 C743 0.959 . S
H732 C746 0.929 . S
H733 C747 0.931 . S
H734 C749 0.930 . S
C735 H723 0.930 . S
C735 C736 1.399 . S
C735 C740 1.399 . S
C736 C735 1.399 . S
C736 C737 1.376 . S
C737 H724 0.930 . S
C737 C736 1.376 . S
C737 C738 1.388 . S
C738 H725 0.930 . S
C738 C737 1.388 . S
C738 C739 1.390 . S
C739 C738 1.390 . S
C739 C740 1.394 . S
C739 C745 1.465 . S
C740 C735 1.399 . S
C740 C739 1.394 . S
C740 C741 1.516 . S
C741 C740 1.516 . S
C741 C742 1.502 . S
C741 C743 1.561 . S
C741 C744 1.526 . S
C742 H726 0.959 . S
C742 H727 0.959 . S
C742 H728 0.961 . S
C742 C741 1.502 . S
C743 H729 0.960 . S
C743 H730 0.961 . S
C743 H731 0.959 . S
C743 C741 1.561 . S
C744 C741 1.526 . S
C744 C745 1.396 . S
C744 C749 1.390 . S
C745 C739 1.465 . S
C745 C744 1.396 . S
C745 C746 1.399 . S
C746 H732 0.929 . S
C746 C745 1.399 . S
C746 C747 1.385 . S
C747 H733 0.931 . S
C747 C746 1.385 . S
C747 C748 1.389 . S
C748 C747 1.389 . S
C748 C749 1.387 . S
C749 H734 0.930 . S
C749 C744 1.390 . S
C749 C748 1.387 . S
H750 C762 0.930 . S
H751 C764 0.930 . S
H752 C765 0.930 . S
H753 C769 0.959 . S
H754 C769 0.959 . S
H755 C769 0.961 . S
H756 C770 0.960 . S
H757 C770 0.961 . S
H758 C770 0.959 . S
H759 C773 0.929 . S
H760 C774 0.931 . S
H761 C776 0.930 . S
C762 H750 0.930 . S
C762 C763 1.399 . S
C762 C767 1.399 . S
C763 C762 1.399 . S
C763 C764 1.376 . S
C764 H751 0.930 . S
C764 C763 1.376 . S
C764 C765 1.388 . S
C765 H752 0.930 . S
C765 C764 1.388 . S
C765 C766 1.390 . S
C766 C765 1.390 . S
C766 C767 1.394 . S
C766 C772 1.465 . S
C767 C762 1.399 . S
C767 C766 1.394 . S
C767 C768 1.516 . S
C768 C767 1.516 . S
C768 C769 1.502 . S
C768 C770 1.561 . S
C768 C771 1.526 . S
C769 H753 0.959 . S
C769 H754 0.959 . S
C769 H755 0.961 . S
C769 C768 1.502 . S
C770 H756 0.960 . S
C770 H757 0.961 . S
C770 H758 0.959 . S
C770 C768 1.561 . S
C771 C768 1.526 . S
C771 C772 1.396 . S
C771 C776 1.390 . S
C772 C766 1.465 . S
C772 C771 1.396 . S
C772 C773 1.399 . S
C773 H759 0.929 . S
C773 C772 1.399 . S
C773 C774 1.385 . S
C774 H760 0.931 . S
C774 C773 1.385 . S
C774 C775 1.389 . S
C775 C774 1.389 . S
C775 C776 1.387 . S
C776 H761 0.930 . S
C776 C771 1.390 . S
C776 C775 1.387 . S
H777 C789 0.930 . S
H778 C791 0.930 . S
H779 C792 0.930 . S
H780 C796 0.959 . S
H781 C796 0.959 . S
H782 C796 0.961 . S
H783 C797 0.960 . S
H784 C797 0.961 . S
H785 C797 0.959 . S
H786 C800 0.929 . S
H787 C801 0.931 . S
H788 C803 0.930 . S
C789 H777 0.930 . S
C789 C790 1.399 . S
C789 C794 1.399 . S
C790 C789 1.399 . S
C790 C791 1.376 . S
C791 H778 0.930 . S
C791 C790 1.376 . S
C791 C792 1.388 . S
C792 H779 0.930 . S
C792 C791 1.388 . S
C792 C793 1.390 . S
C793 C792 1.390 . S
C793 C794 1.394 . S
C793 C799 1.465 . S
C794 C789 1.399 . S
C794 C793 1.394 . S
C794 C795 1.516 . S
C795 C794 1.516 . S
C795 C796 1.502 . S
C795 C797 1.561 . S
C795 C798 1.526 . S
C796 H780 0.959 . S
C796 H781 0.959 . S
C796 H782 0.961 . S
C796 C795 1.502 . S
C797 H783 0.960 . S
C797 H784 0.961 . S
C797 H785 0.959 . S
C797 C795 1.561 . S
C798 C795 1.526 . S
C798 C799 1.396 . S
C798 C803 1.390 . S
C799 C793 1.465 . S
C799 C798 1.396 . S
C799 C800 1.399 . S
C800 H786 0.929 . S
C800 C799 1.399 . S
C800 C801 1.385 . S
C801 H787 0.931 . S
C801 C800 1.385 . S
C801 C802 1.389 . S
C802 C801 1.389 . S
C802 C803 1.387 . S
C803 H788 0.930 . S
C803 C798 1.390 . S
C803 C802 1.387 . S
C277 C219 1.552 . S
C289 C18 1.567 . S
C304 C252 1.533 . S
C316 C51 1.576 . S
C331 C153 1.557 . S
C343 C84 1.564 . S
C358 C186 1.498 . S
C370 C117 1.587 . S
C385 C87 1.557 . S
C397 C150 1.564 . S
C412 C120 1.516 . S
C424 C183 1.568 . S
C439 C21 1.553 . S
C451 C216 1.567 . S
C466 C249 1.555 . S
C478 C54 1.564 . S
C493 C7 0.695 . S
C505 C73 0.709 . S
C520 C106 0.650 . S
C532 C40 0.760 . S
C547 C205 0.735 . S
C559 C139 0.672 . S
C574 C172 0.662 . S
C586 C238 0.744 . S
C601 N13 1.769 . S
C613 N244 1.807 . S
C628 N145 1.790 . S
C640 N46 1.758 . S
C655 N178 1.819 . S
C667 N79 1.804 . S
C682 N211 1.813 . S
C694 N112 1.778 . S
C709 N68 1.447 . S
C721 N167 1.455 . S
C736 N101 1.433 . S
C748 N200 1.375 . S
C763 N233 1.424 . S
C775 N2 1.373 . S
C790 N134 1.392 . S
C802 N35 1.382 . S
