# Generated by pormake.
# Topology wfz, (7)-cn, num edge types: 1
# Building blocks:
#     Node 0, Type 0, BuildingBlock: HICVOG_clean_sbu_0, # of connection points: 7
#     Node 1, Type 0, BuildingBlock: HICVOG_clean_sbu_0, # of connection points: 7
#     Node 2, Type 0, BuildingBlock: HICVOG_clean_sbu_0, # of connection points: 7
#     Node 3, Type 0, BuildingBlock: HICVOG_clean_sbu_0, # of connection points: 7
#     Node 4, Type 0, BuildingBlock: HICVOG_clean_sbu_0, # of connection points: 7
#     Node 5, Type 0, BuildingBlock: HICVOG_clean_sbu_0, # of connection points: 7
#     Node 6, Type 0, BuildingBlock: HICVOG_clean_sbu_0, # of connection points: 7
#     Node 7, Type 0, BuildingBlock: HICVOG_clean_sbu_0, # of connection points: 7
#     Edge 8, Type (0, 0), BuildingBlock: XUDNAN_clean_linker_2, # of connection points: 2
#     Edge 9, Type (0, 0), BuildingBlock: XUDNAN_clean_linker_2, # of connection points: 2
#     Edge 10, Type (0, 0), BuildingBlock: XUDNAN_clean_linker_2, # of connection points: 2
#     Edge 11, Type (0, 0), BuildingBlock: XUDNAN_clean_linker_2, # of connection points: 2
#     Edge 12, Type (0, 0), BuildingBlock: XUDNAN_clean_linker_2, # of connection points: 2
#     Edge 13, Type (0, 0), BuildingBlock: XUDNAN_clean_linker_2, # of connection points: 2
#     Edge 14, Type (0, 0), BuildingBlock: XUDNAN_clean_linker_2, # of connection points: 2
#     Edge 15, Type (0, 0), BuildingBlock: XUDNAN_clean_linker_2, # of connection points: 2
#     Edge 16, Type (0, 0), BuildingBlock: XUDNAN_clean_linker_2, # of connection points: 2
#     Edge 17, Type (0, 0), BuildingBlock: XUDNAN_clean_linker_2, # of connection points: 2
#     Edge 18, Type (0, 0), BuildingBlock: XUDNAN_clean_linker_2, # of connection points: 2
#     Edge 19, Type (0, 0), BuildingBlock: XUDNAN_clean_linker_2, # of connection points: 2
#     Edge 20, Type (0, 0), BuildingBlock: XUDNAN_clean_linker_2, # of connection points: 2
#     Edge 21, Type (0, 0), BuildingBlock: XUDNAN_clean_linker_2, # of connection points: 2
#     Edge 22, Type (0, 0), BuildingBlock: XUDNAN_clean_linker_2, # of connection points: 2
#     Edge 23, Type (0, 0), BuildingBlock: XUDNAN_clean_linker_2, # of connection points: 2
#     Edge 24, Type (0, 0), BuildingBlock: XUDNAN_clean_linker_2, # of connection points: 2
#     Edge 25, Type (0, 0), BuildingBlock: XUDNAN_clean_linker_2, # of connection points: 2
#     Edge 26, Type (0, 0), BuildingBlock: XUDNAN_clean_linker_2, # of connection points: 2
#     Edge 27, Type (0, 0), BuildingBlock: XUDNAN_clean_linker_2, # of connection points: 2
#     Edge 28, Type (0, 0), BuildingBlock: XUDNAN_clean_linker_2, # of connection points: 2
#     Edge 29, Type (0, 0), BuildingBlock: XUDNAN_clean_linker_2, # of connection points: 2
#     Edge 30, Type (0, 0), BuildingBlock: XUDNAN_clean_linker_2, # of connection points: 2
#     Edge 31, Type (0, 0), BuildingBlock: XUDNAN_clean_linker_2, # of connection points: 2
#     Edge 32, Type (0, 0), BuildingBlock: XUDNAN_clean_linker_2, # of connection points: 2
#     Edge 33, Type (0, 0), BuildingBlock: XUDNAN_clean_linker_2, # of connection points: 2
#     Edge 34, Type (0, 0), BuildingBlock: XUDNAN_clean_linker_2, # of connection points: 2
#     Edge 35, Type (0, 0), BuildingBlock: XUDNAN_clean_linker_2, # of connection points: 2
# Relax obj value: 0.179
# Max RMSD: 0.259
# Mean RMSD: 0.259
data_MOF--net-wfz--node1-HICVOG_clean_sbu_0--edge1-XUDNAN_clean_linker_2
_symmetry_space_group_name_H-M    P1
_symmetry_Int_Tables_number       1
_symmetry_cell_setting            triclinic
loop_
_symmetry_equiv_pos_as_xyz
'x, y, z'
_cell_length_a     23.694557
_cell_length_b     23.558424
_cell_length_c     63.107039
_cell_angle_alpha  90.198743
_cell_angle_beta   89.862047
_cell_angle_gamma 89.335991
loop_
_atom_site_label
_atom_site_type_symbol
_atom_site_fract_x
_atom_site_fract_y
_atom_site_fract_z
_atom_type_partial_charge
Zn0 Zn 0.24058 0.48567 0.40338 0.0
C1 C 0.367 0.46327 0.44329 0.0
N2 N 0.36778 0.41213 0.43382 0.0
C3 C 0.33483 0.41935 0.41688 0.0
N4 N 0.31427 0.47278 0.41585 0.0
N5 N 0.33515 0.50146 0.43218 0.0
C6 C 0.29625 0.5882 0.47811 0.0
O7 O 0.28722 0.53388 0.47533 0.0
O8 O 0.22642 0.43792 0.37718 0.0
Zn9 Zn 0.33488 0.58574 0.43321 0.0
N10 N 0.18391 0.45966 0.42329 0.0
C11 C 0.15557 0.43092 0.4578 0.0
C12 C 0.19574 0.45405 0.44423 0.0
C13 C 0.13326 0.44328 0.41538 0.0
N14 N 0.1055 0.41335 0.44981 0.0
C15 C 0.0929 0.41905 0.42889 0.0
O16 O 0.27706 0.62555 0.41392 0.0
C17 C 0.23683 0.61637 0.40099 0.0
O18 O 0.22153 0.56635 0.39634 0.0
H19 H 0.2364 0.46615 0.45025 0.0
H20 H 0.12571 0.44682 0.39853 0.0
C21 C 0.42277 0.66493 0.41871 0.0
C22 C 0.47601 0.67774 0.40979 0.0
C23 C 0.50025 0.57966 0.41033 0.0
C24 C 0.44767 0.56723 0.4187 0.0
N25 N 0.40981 0.6097 0.42301 0.0
N26 N 0.51298 0.6342 0.40603 0.0
H27 H 0.39141 0.69783 0.42155 0.0
C28 C 0.24769 0.43582 0.35866 0.0
O29 O 0.29108 0.46765 0.35397 0.0
O30 O 0.31673 0.61736 0.46303 0.0
H31 H 0.43736 0.52355 0.42134 0.0
H32 H 0.16459 0.42584 0.47449 0.0
H33 H 0.53051 0.54609 0.40693 0.0
Zn34 Zn 0.99426 0.85053 0.68645 0.0
C35 C 0.14585 0.88199 0.65876 0.0
N36 N 0.15025 0.92111 0.67406 0.0
C37 C 0.10455 0.91253 0.68606 0.0
N38 N 0.07203 0.87041 0.67816 0.0
N39 N 0.09921 0.85007 0.66122 0.0
C40 C 0.12773 0.76161 0.60483 0.0
O41 O 0.07798 0.78198 0.59944 0.0
O42 O 0.99361 0.80794 0.71429 0.0
Zn43 Zn 0.08951 0.77365 0.64979 0.0
N44 N 0.94971 0.92039 0.69047 0.0
C45 C 0.92683 0.99902 0.71287 0.0
C46 C 0.95539 0.94796 0.7093 0.0
C47 C 0.91309 0.94032 0.67548 0.0
N48 N 0.89135 1.01944 0.69784 0.0
C49 C 0.88283 0.99125 0.6793 0.0
O50 O 1.00904 0.75492 0.64213 0.0
C51 C 0.96003 0.76779 0.64911 0.0
O52 O 0.95283 0.8018 0.66471 0.0
H53 H 0.98103 0.92999 0.72166 0.0
H54 H 0.90761 0.91691 0.66086 0.0
C55 C 0.14245 0.67108 0.66464 0.0
C56 C 0.16147 0.63144 0.67983 0.0
C57 C 0.12202 0.69006 0.70695 0.0
C58 C 0.10357 0.729 0.69183 0.0
N59 N 0.11399 0.71881 0.67099 0.0
N60 N 0.15049 0.64261 0.70064 0.0
H61 H 0.15127 0.66532 0.64797 0.0
C62 C 0.95021 0.80404 0.7261 0.0
O63 O 0.90232 0.82721 0.71995 0.0
O64 O 0.1405 0.75794 0.62436 0.0
H65 H 0.08176 0.76731 0.69665 0.0
H66 H 0.93189 1.02169 0.72767 0.0
H67 H 0.11451 0.69771 0.72362 0.0
Zn68 Zn 0.74505 0.50549 0.93291 0.0
C69 C 0.75904 0.66975 0.91567 0.0
N70 N 0.7276 0.68085 0.93283 0.0
C71 C 0.72404 0.63044 0.94256 0.0
N72 N 0.75191 0.58902 0.93141 0.0
N73 N 0.77471 0.61462 0.91477 0.0
C74 C 0.90478 0.61944 0.86461 0.0
O75 O 0.93683 0.57953 0.87296 0.0
O76 O 0.76 0.47633 0.96285 0.0
Zn77 Zn 0.8476 0.59514 0.90253 0.0
N78 N 0.66822 0.487 0.9235 0.0
C79 C 0.57839 0.52166 0.91223 0.0
C80 C 0.63262 0.53144 0.91953 0.0
C81 C 0.65156 0.43248 0.9199 0.0
N82 N 0.56179 0.46769 0.90875 0.0
C83 C 0.59647 0.42218 0.91221 0.0
O84 O 0.86178 0.51187 0.89711 0.0
C85 C 0.84185 0.46373 0.90185 0.0
O86 O 0.7995 0.45918 0.9142 0.0
H87 H 0.64599 0.57451 0.92173 0.0
H88 H 0.68147 0.39826 0.9225 0.0
C89 C 0.94839 0.65351 0.91638 0.0
C90 C 0.98917 0.67021 0.93127 0.0
C91 C 0.93881 0.62116 0.95799 0.0
C92 C 0.8991 0.60405 0.94307 0.0
N93 N 0.90462 0.62039 0.92255 0.0
N94 N 0.98276 0.65373 0.95179 0.0
H95 H 0.95081 0.66765 0.90016 0.0
C96 C 0.80922 0.46248 0.96914 0.0
O97 O 0.852 0.46713 0.95602 0.0
O98 O 0.86036 0.63518 0.8745 0.0
H99 H 0.86386 0.57825 0.94779 0.0
H100 H 0.54978 0.55675 0.90911 0.0
H101 H 0.93476 0.60862 0.9744 0.0
Zn102 Zn 0.0858 0.26423 0.1834 0.0
C103 C 0.95405 0.20923 0.15912 0.0
N104 N 0.95956 0.16935 0.17406 0.0
C105 C 0.98969 0.1948 0.18938 0.0
N106 N 1.00527 0.24738 0.18303 0.0
N107 N 0.97992 0.25736 0.16472 0.0
C108 C 0.95059 0.33733 0.10786 0.0
O109 O 1.00601 0.33793 0.10738 0.0
O110 O 0.1156 0.26769 0.21354 0.0
Zn111 Zn 0.96949 0.33271 0.15321 0.0
N112 N 0.12171 0.2068 0.16534 0.0
C113 C 0.11913 0.17124 0.13001 0.0
C114 C 0.10022 0.20911 0.14539 0.0
C115 C 0.16372 0.16895 0.17034 0.0
N116 N 0.16039 0.13341 0.1349 0.0
C117 C 0.18404 0.13103 0.15453 0.0
O118 O 0.04187 0.37407 0.14814 0.0
C119 C 0.09147 0.37478 0.15576 0.0
O120 O 0.10813 0.33815 0.16926 0.0
H121 H 0.06863 0.24066 0.1414 0.0
H122 H 0.1807 0.16841 0.18623 0.0
C123 C 0.91616 0.43383 0.16692 0.0
C124 C 0.88529 0.47054 0.18037 0.0
C125 C 0.87791 0.39585 0.20539 0.0
C126 C 0.90857 0.35974 0.19195 0.0
N127 N 0.92694 0.37947 0.17297 0.0
N128 N 0.86667 0.45008 0.19926 0.0
H129 H 0.93041 0.44741 0.15147 0.0
C130 C 0.08335 0.29268 0.22686 0.0
O131 O 0.03349 0.31084 0.22062 0.0
O132 O 0.92564 0.33237 0.12562 0.0
H133 H 0.91729 0.31639 0.19657 0.0
H134 H 0.10174 0.17235 0.11418 0.0
H135 H 0.86275 0.38077 0.22052 0.0
Zn136 Zn 0.81742 0.99964 0.34216 0.0
C137 C 0.86662 0.15504 0.3593 0.0
N138 N 0.90154 0.14872 0.3426 0.0
C139 C 0.88384 0.10028 0.33364 0.0
N140 N 0.84022 0.07818 0.34454 0.0
N141 N 0.82806 0.1135 0.36031 0.0
C142 C 0.71816 0.15054 0.4154 0.0
O143 O 0.67932 0.11376 0.41021 0.0
O144 O 0.82267 0.97232 0.31153 0.0
Zn145 Zn 0.75343 0.12264 0.37304 0.0
N146 N 0.86615 0.95532 0.36101 0.0
C147 C 0.87496 0.92539 0.39688 0.0
C148 C 0.84712 0.95656 0.38135 0.0
C149 C 0.91367 0.92497 0.35564 0.0
N150 N 0.9215 0.89456 0.39158 0.0
C151 C 0.94208 0.8935 0.37146 0.0
O152 O 0.70791 0.0503 0.37525 0.0
C153 C 0.70245 1.00217 0.36628 0.0
O154 O 0.73837 0.98348 0.35284 0.0
H155 H 0.8102 0.98157 0.38549 0.0
H156 H 0.92862 0.92477 0.33942 0.0
C157 C 0.65427 0.18469 0.36067 0.0
C158 C 0.62107 0.22109 0.348 0.0
C159 C 0.69861 0.23087 0.32444 0.0
C160 C 0.73111 0.19454 0.33699 0.0
N161 N 0.7086 0.1726 0.35498 0.0
N162 N 0.64469 0.24352 0.33026 0.0
H163 H 0.63767 0.16694 0.37514 0.0
C164 C 0.7939 0.93008 0.30533 0.0
O165 O 0.76399 0.90219 0.31932 0.0
O166 O 0.75727 0.16091 0.40213 0.0
H167 H 0.77393 0.18414 0.3324 0.0
H168 H 0.85978 0.92572 0.41306 0.0
H169 H 0.71616 0.249 0.31018 0.0
Zn170 Zn 0.58665 0.34997 0.59495 0.0
C171 C 0.42768 0.3905 0.60972 0.0
N172 N 0.43537 0.42938 0.59447 0.0
C173 C 0.48447 0.41311 0.58564 0.0
N174 N 0.50599 0.36632 0.59509 0.0
N175 N 0.46972 0.35113 0.61006 0.0
C176 C 0.43801 0.23459 0.66344 0.0
O177 O 0.48283 0.2029 0.65957 0.0
O178 O 0.61928 0.34899 0.56513 0.0
Zn179 Zn 0.46233 0.27271 0.62054 0.0
N180 N 0.62105 0.4063 0.61339 0.0
C181 C 0.62682 0.43329 0.6497 0.0
C182 C 0.60753 0.39685 0.63401 0.0
C183 C 0.65369 0.45132 0.60773 0.0
N184 N 0.65875 0.47824 0.64418 0.0
C185 C 0.67303 0.48848 0.62367 0.0
O186 O 0.537 0.2299 0.6231 0.0
C187 C 0.58887 0.23258 0.61795 0.0
O188 O 0.60858 0.27447 0.60779 0.0
H189 H 0.58141 0.36118 0.63817 0.0
H190 H 0.66357 0.45857 0.59122 0.0
C191 C 0.39311 0.1803 0.60488 0.0
C192 C 0.36441 0.1493 0.58906 0.0
C193 C 0.38957 0.21959 0.56391 0.0
C194 C 0.41792 0.2497 0.57953 0.0
N195 N 0.4191 0.22981 0.59971 0.0
N196 N 0.36362 0.17052 0.56902 0.0
H197 H 0.3945 0.16599 0.62113 0.0
C198 C 0.60689 0.30479 0.55453 0.0
O199 O 0.57273 0.26776 0.56312 0.0
O200 O 0.42073 0.26873 0.64916 0.0
H201 H 0.43911 0.28851 0.57554 0.0
H202 H 0.61616 0.42622 0.66615 0.0
H203 H 0.38822 0.23491 0.5478 0.0
Zn204 Zn 0.25785 0.0846 0.84356 0.0
C205 C 0.23333 0.92009 0.85607 0.0
N206 N 0.19994 0.92088 0.83904 0.0
C207 C 0.21203 0.97039 0.82974 0.0
N208 N 0.25108 1.00009 0.84099 0.0
N209 N 0.26574 0.96675 0.85714 0.0
C210 C 0.3782 0.93673 0.91273 0.0
O211 O 0.41425 0.9766 0.90795 0.0
O212 O 0.26044 0.129 0.81549 0.0
Zn213 Zn 0.34073 0.9636 0.87035 0.0
N214 N 0.19571 0.10922 0.86208 0.0
C215 C 0.15718 0.09126 0.89625 0.0
C216 C 0.19859 0.08187 0.88098 0.0
C217 C 0.15306 0.14734 0.85798 0.0
N218 N 0.11431 0.12806 0.89214 0.0
C219 C 0.11085 0.15686 0.87353 0.0
O220 O 0.37643 0.03999 0.8745 0.0
C221 C 0.37045 0.09218 0.86989 0.0
O222 O 0.32889 0.10996 0.85891 0.0
H223 H 0.23296 0.05252 0.8841 0.0
H224 H 0.1513 0.16877 0.84285 0.0
C225 C 0.44467 0.90658 0.85836 0.0
C226 C 0.48006 0.87243 0.84547 0.0
C227 C 0.4067 0.86687 0.82003 0.0
C228 C 0.37191 0.90065 0.83285 0.0
N229 N 0.3912 0.91947 0.85187 0.0
N230 N 0.45959 0.85324 0.82667 0.0
H231 H 0.45884 0.92151 0.87365 0.0
C232 C 0.30875 0.1311 0.80652 0.0
O233 O 0.3517 0.1057 0.81577 0.0
O234 O 0.34089 0.92335 0.89914 0.0
H235 H 0.32968 0.91126 0.8277 0.0
H236 H 0.15889 0.06925 0.91126 0.0
H237 H 0.39163 0.85124 0.80496 0.0
Zn238 Zn 0.62167 0.83907 0.12005 0.0
C239 C 0.60907 0.70105 0.0839 0.0
N240 N 0.66 0.68847 0.09209 0.0
C241 C 0.66548 0.728 0.10731 0.0
N242 N 0.62057 0.76338 0.10832 0.0
N243 N 0.58461 0.74608 0.09371 0.0
C244 C 0.47715 0.80397 0.05574 0.0
O245 O 0.50561 0.84481 0.06487 0.0
O246 O 0.67455 0.84546 0.14521 0.0
Zn247 Zn 0.50325 0.75637 0.09562 0.0
N248 N 0.64923 0.8889 0.09794 0.0
C249 C 0.65801 0.91137 0.06134 0.0
C250 C 0.6382 0.87619 0.07735 0.0
C251 C 0.67935 0.93567 0.10317 0.0
N252 N 0.68826 0.95795 0.06653 0.0
C253 C 0.69947 0.97159 0.08707 0.0
O254 O 0.4764 0.82651 0.11197 0.0
C255 C 0.49366 0.8647 0.1247 0.0
O256 O 0.54573 0.86989 0.12914 0.0
H257 H 0.6145 0.8389 0.07337 0.0
H258 H 0.68843 0.94368 0.11969 0.0
C259 C 0.42728 0.66495 0.11003 0.0
C260 C 0.41306 0.62102 0.12429 0.0
C261 C 0.50017 0.63462 0.14215 0.0
C262 C 0.51329 0.67837 0.12842 0.0
N263 N 0.47729 0.69243 0.11247 0.0
N264 N 0.45065 0.60736 0.13981 0.0
H265 H 0.39947 0.67738 0.09728 0.0
C266 C 0.66168 0.8271 0.16351 0.0
O267 O 0.61422 0.79954 0.16595 0.0
O268 O 0.46901 0.75842 0.06604 0.0
H269 H 0.55185 0.70146 0.13067 0.0
H270 H 0.64964 0.90158 0.04488 0.0
H271 H 0.52872 0.62289 0.1548 0.0
H272 H 0.38745 0.44324 0.3804 0.0
H273 H 0.30832 0.30802 0.41517 0.0
H274 H 0.36355 0.23726 0.39474 0.0
H275 H 0.41658 0.35717 0.32791 0.0
H276 H 0.48327 0.39255 0.32524 0.0
H277 H 0.42322 0.42991 0.33637 0.0
H278 H 0.4828 0.45369 0.36944 0.0
H279 H 0.54224 0.41485 0.35905 0.0
H280 H 0.51386 0.3967 0.38464 0.0
H281 H 0.44574 0.18535 0.37945 0.0
H282 H 0.54032 0.15504 0.36714 0.0
H283 H 0.56906 0.32393 0.34252 0.0
C284 C 0.37845 0.39858 0.38235 0.0
C285 C 0.34226 0.38079 0.39874 0.0
C286 C 0.33428 0.32219 0.4021 0.0
C287 C 0.36605 0.28176 0.39069 0.0
C288 C 0.40542 0.30077 0.37593 0.0
C289 C 0.41065 0.35789 0.37126 0.0
C290 C 0.46257 0.36825 0.35775 0.0
C291 C 0.44539 0.38813 0.33549 0.0
C292 C 0.50268 0.41084 0.36837 0.0
C293 C 0.48821 0.30904 0.35706 0.0
C294 C 0.45401 0.27048 0.36722 0.0
C295 C 0.47205 0.21479 0.37092 0.0
C296 C 0.52628 0.19816 0.36414 0.0
C297 C 0.56223 0.23719 0.35392 0.0
C298 C 0.54216 0.29288 0.34995 0.0
H299 H 0.38191 0.07023 0.62129 0.0
H300 H 0.27684 0.1056 0.56649 0.0
H301 H 0.22202 1.01981 0.57376 0.0
H302 H 0.3764 0.91126 0.61745 0.0
H303 H 0.37306 0.9041 0.64585 0.0
H304 H 0.41086 0.9623 0.63422 0.0
H305 H 0.35046 0.03462 0.65592 0.0
H306 H 0.31415 0.97661 0.66795 0.0
H307 H 0.27457 0.03136 0.65447 0.0
H308 H 0.16745 0.94165 0.59057 0.0
H309 H 0.11527 0.8862 0.61716 0.0
H310 H 0.25781 0.89552 0.65956 0.0
C311 C 0.34773 0.05999 0.61068 0.0
C312 C 0.33371 0.09549 0.59338 0.0
C313 C 0.2889 0.07933 0.57982 0.0
C314 C 0.25755 0.03028 0.58373 0.0
C315 C 0.27189 0.99676 0.60107 0.0
C316 C 0.3161 1.01091 0.61429 0.0
C317 C 0.31888 0.97166 0.63321 0.0
C318 C 0.37303 0.93516 0.63264 0.0
C319 C 0.31417 1.00557 0.6541 0.0
C320 C 0.26717 0.9357 0.6293 0.0
C321 C 0.24133 0.94976 0.61038 0.0
C322 C 0.18821 0.92876 0.60506 0.0
C323 C 0.15905 0.89624 0.6201 0.0
C324 C 0.18321 0.88522 0.64013 0.0
C325 C 0.23942 0.90161 0.64402 0.0
H326 H 0.53119 0.76909 0.83986 0.0
H327 H 0.55897 0.93622 0.86654 0.0
H328 H 0.65257 0.90461 0.87933 0.0
H329 H 0.58212 0.69496 0.88194 0.0
H330 H 0.61378 0.63778 0.86684 0.0
H331 H 0.55575 0.67749 0.85597 0.0
H332 H 0.61701 0.70015 0.82291 0.0
H333 H 0.67577 0.66142 0.83416 0.0
H334 H 0.6841 0.73432 0.8263 0.0
H335 H 0.73455 0.85189 0.89412 0.0
H336 H 0.78824 0.78017 0.9143 0.0
H337 H 0.7098 0.64648 0.8782 0.0
C338 C 0.55777 0.79946 0.84786 0.0
C339 C 0.53785 0.85514 0.85215 0.0
C340 C 0.5731 0.89324 0.86319 0.0
C341 C 0.62675 0.87586 0.87024 0.0
C342 C 0.64482 0.8203 0.86606 0.0
C343 C 0.61115 0.78251 0.85523 0.0
C344 C 0.6362 0.72296 0.85575 0.0
C345 C 0.59452 0.68088 0.86573 0.0
C346 C 0.65434 0.70359 0.83345 0.0
C347 C 0.68727 0.73235 0.86974 0.0
C348 C 0.69268 0.78927 0.87482 0.0
C349 C 0.73175 0.80752 0.8898 0.0
C350 C 0.76276 0.76651 0.90103 0.0
C351 C 0.75417 0.70801 0.89738 0.0
C352 C 0.719 0.69098 0.88055 0.0
H353 H 0.84437 0.18849 0.16396 0.0
H354 H 0.97448 0.20735 0.11648 0.0
H355 H 0.91253 0.16214 0.08983 0.0
H356 H 0.81521 0.05656 0.15265 0.0
H357 H 0.74014 0.05875 0.15729 0.0
H358 H 0.78482 0.10854 0.17049 0.0
H359 H 0.72736 0.19301 0.15517 0.0
H360 H 0.68103 0.14346 0.14232 0.0
H361 H 0.71564 0.19739 0.127 0.0
H362 H 0.84641 0.09528 0.07136 0.0
H363 H 0.78189 1.01737 0.06228 0.0
H364 H 0.69622 0.0403 0.12262 0.0
C365 C 0.85826 0.18603 0.14762 0.0
C366 C 0.91312 0.20264 0.14195 0.0
C367 C 0.93165 0.19656 0.12079 0.0
C368 C 0.89683 0.17057 0.10566 0.0
C369 C 0.84396 0.15113 0.11211 0.0
C370 C 0.82439 0.15959 0.13258 0.0
C371 C 0.77091 0.12688 0.13674 0.0
C372 C 0.77829 0.08525 0.15538 0.0
C373 C 0.72075 0.16762 0.14052 0.0
C374 C 0.76519 0.09574 0.11592 0.0
C375 C 0.80679 0.11117 0.10172 0.0
C376 C 0.81293 0.08394 0.08219 0.0
C377 C 0.77616 0.03954 0.0772 0.0
C378 C 0.73438 1.02202 0.09184 0.0
C379 C 0.72816 0.05177 0.11118 0.0
H380 H 0.04203 0.32081 0.44057 0.0
H381 H 0.02476 0.46327 0.39769 0.0
H382 H 0.94397 0.4169 0.38053 0.0
H383 H 0.02537 0.21884 0.40428 0.0
H384 H 0.98613 0.17005 0.42042 0.0
H385 H 0.03202 0.22027 0.43274 0.0
H386 H 0.9483 0.25804 0.45548 0.0
H387 H 0.90171 0.20818 0.44291 0.0
H388 H 0.88482 0.28293 0.44267 0.0
H389 H 0.88004 0.34882 0.36358 0.0
H390 H 0.84392 0.26209 0.34666 0.0
H391 H 0.9 0.16249 0.40018 0.0
C392 C 0.01976 0.34312 0.4281 0.0
C393 C 0.03959 0.39559 0.42047 0.0
C394 C 1.01056 0.42285 0.4037 0.0
C395 C 0.96413 0.39713 0.39403 0.0
C396 C 0.94679 0.34435 0.40142 0.0
C397 C 0.97359 0.31767 0.41816 0.0
C398 C 0.9528 0.25743 0.42083 0.0
C399 C 1.00199 0.21415 0.41946 0.0
C400 C 0.91996 0.25131 0.44172 0.0
C401 C 0.91356 0.25289 0.40197 0.0
C402 C 0.90907 0.30427 0.39147 0.0
C403 C 0.88161 0.30894 0.37202 0.0
C404 C 0.8609 0.25955 0.36255 0.0
C405 C 0.86768 0.20634 0.37253 0.0
C406 C 0.8921 0.20328 0.39283 0.0
H407 H 0.16787 0.57375 0.64118 0.0
H408 H 0.23316 0.57138 0.70547 0.0
H409 H 0.29617 0.4915 0.69589 0.0
H410 H 0.18091 0.4178 0.6308 0.0
H411 H 0.20251 0.42941 0.60377 0.0
H412 H 0.15488 0.47897 0.61661 0.0
H413 H 0.2225 0.56146 0.60816 0.0
H414 H 0.26978 0.51259 0.5951 0.0
H415 H 0.29519 0.55653 0.6164 0.0
H416 H 0.36374 0.42365 0.67796 0.0
H417 H 0.43169 0.37983 0.6528 0.0
H418 H 0.32149 0.42391 0.60068 0.0
C419 C 0.19496 0.55657 0.65339 0.0
C420 C 0.19564 0.57991 0.67409 0.0
C421 C 0.2314 0.55454 0.6895 0.0
C422 C 0.26735 0.50882 0.68424 0.0
C423 C 0.26671 0.488 0.66356 0.0
C424 C 0.23116 0.51097 0.64841 0.0
C425 C 0.24285 0.48541 0.62678 0.0
C426 C 0.19227 0.45083 0.61905 0.0
C427 C 0.25857 0.53172 0.61068 0.0
C428 C 0.29269 0.447 0.63189 0.0
C429 C 0.30502 0.44782 0.65329 0.0
C430 C 0.35345 0.42113 0.66128 0.0
C431 C 0.39152 0.39546 0.64694 0.0
C432 C 0.38073 0.39668 0.62493 0.0
C433 C 0.32962 0.42068 0.61753 0.0
H434 H 0.20301 0.81116 0.851 0.0
H435 H 0.23199 0.93937 0.89889 0.0
H436 H 0.18455 0.8796 0.92549 0.0
H437 H 0.06814 0.79235 0.86392 0.0
H438 H 0.06448 0.71728 0.85863 0.0
H439 H 0.11562 0.75951 0.84503 0.0
H440 H 0.19695 0.69487 0.85851 0.0
H441 H 0.14583 0.65108 0.87167 0.0
H442 H 0.20343 0.68084 0.88647 0.0
H443 H 0.11802 0.81468 0.9449 0.0
H444 H 0.04052 0.75112 0.95537 0.0
H445 H 0.04852 0.66994 0.89359 0.0
C446 C 0.20213 0.8251 0.86738 0.0
C447 C 0.22354 0.87866 0.87314 0.0
C448 C 0.21891 0.8971 0.89443 0.0
C449 C 0.19109 0.86371 0.90955 0.0
C450 C 0.16751 0.81246 0.90302 0.0
C451 C 0.17323 0.79305 0.8824 0.0
C452 C 0.13647 0.74195 0.87831 0.0
C453 C 0.09368 0.75353 0.86043 0.0
C454 C 0.17285 0.68904 0.87347 0.0
C455 C 0.10731 0.73695 0.89955 0.0
C456 C 0.12659 0.77708 0.91375 0.0
C457 C 0.10333 0.78257 0.93399 0.0
C458 C 0.0592 0.74638 0.93977 0.0
C459 C 0.03787 0.706 0.92524 0.0
C460 C 0.06311 0.70087 0.905 0.0
H461 H 0.78844 0.5292 0.18989 0.0
H462 H 0.94615 0.54402 0.15545 0.0
H463 H 0.9121 0.63318 0.13956 0.0
H464 H 0.70273 0.56366 0.15119 0.0
H465 H 0.65165 0.60483 0.1661 0.0
H466 H 0.69382 0.5522 0.17924 0.0
H467 H 0.72876 0.62876 0.20572 0.0
H468 H 0.68652 0.68174 0.19234 0.0
H469 H 0.7611 0.69229 0.1958 0.0
H470 H 0.85417 0.70376 0.12074 0.0
H471 H 0.77633 0.74699 0.10022 0.0
H472 H 0.65671 0.69231 0.14746 0.0
C473 C 0.81664 0.55249 0.17968 0.0
C474 C 0.86956 0.5291 0.1737 0.0
C475 C 0.90489 0.56025 0.15995 0.0
C476 C 0.88625 0.61159 0.15109 0.0
C477 C 0.83264 0.6321 0.15645 0.0
C478 C 0.79856 0.60397 0.17072 0.0
C479 C 0.73965 0.62989 0.17126 0.0
C480 C 0.69437 0.58499 0.16665 0.0
C481 C 0.72838 0.65994 0.19254 0.0
C482 C 0.7443 0.67278 0.1535 0.0
C483 C 0.79897 0.67507 0.14575 0.0
C484 C 0.8118 0.70427 0.12717 0.0
C485 C 0.76747 0.72899 0.11564 0.0
C486 C 0.71127 0.72466 0.12281 0.0
C487 C 0.69989 0.69863 0.1424 0.0
H488 H 0.12591 0.77856 0.56165 0.0
H489 H 0.21582 0.68761 0.61113 0.0
H490 H 0.27379 0.63866 0.584 0.0
H491 H 0.11862 0.66682 0.52509 0.0
H492 H 0.13036 0.70952 0.50188 0.0
H493 H 0.09882 0.74095 0.52515 0.0
H494 H 0.17685 0.81704 0.526 0.0
H495 H 0.20857 0.78595 0.50264 0.0
H496 H 0.24997 0.79503 0.52631 0.0
H497 H 0.31229 0.58958 0.55161 0.0
H498 H 0.33635 0.55201 0.51598 0.0
H499 H 0.22827 0.67973 0.48731 0.0
C500 C 0.15834 0.74893 0.56678 0.0
C501 C 0.1662 0.73693 0.58854 0.0
C502 C 0.20912 0.69784 0.59459 0.0
C503 C 0.24217 0.66959 0.57929 0.0
C504 C 0.23253 0.68145 0.55798 0.0
C505 C 0.19241 0.72095 0.55171 0.0
C506 C 0.18991 0.725 0.52773 0.0
C507 C 0.13093 0.70964 0.51949 0.0
C508 C 0.20738 0.78428 0.52023 0.0
C509 C 0.2336 0.68035 0.52151 0.0
C510 C 0.2575 0.65555 0.53924 0.0
C511 C 0.29501 0.60966 0.53762 0.0
C512 C 0.30835 0.58853 0.51737 0.0
C513 C 0.28513 0.61395 0.49904 0.0
C514 C 0.24782 0.6608 0.50112 0.0
H515 H 0.84195 0.68939 0.83841 0.0
H516 H 1.00756 0.61084 0.84551 0.0
H517 H 0.03763 0.65251 0.81168 0.0
H518 H 0.83008 0.66669 0.783 0.0
H519 H 0.79549 0.7336 0.77755 0.0
H520 H 0.78749 0.70099 0.80312 0.0
H521 H 0.82385 0.79207 0.82133 0.0
H522 H 0.83176 0.82521 0.79582 0.0
H523 H 0.8911 0.82053 0.81356 0.0
H524 H 0.04915 0.69863 0.77659 0.0
H525 H 0.04116 0.74695 0.74216 0.0
H526 H 0.86831 0.79557 0.75704 0.0
C527 C 0.88465 0.6814 0.8329 0.0
C528 C 0.92233 0.64665 0.84458 0.0
C529 C 0.97776 0.63692 0.83679 0.0
C530 C 0.99539 0.6606 0.81761 0.0
C531 C 0.95712 0.69389 0.80632 0.0
C532 C 0.90295 0.70448 0.81363 0.0
C533 C 0.86979 0.74028 0.79795 0.0
C534 C 0.81764 0.70847 0.78993 0.0
C535 C 0.85316 0.79795 0.80775 0.0
C536 C 0.91351 0.74706 0.78054 0.0
C537 C 0.9637 0.72036 0.78584 0.0
C538 C 1.01013 0.71988 0.77228 0.0
C539 C 1.00516 0.74733 0.75271 0.0
C540 C 0.95422 0.77493 0.74683 0.0
C541 C 0.90785 0.77478 0.76102 0.0
H542 H 0.90997 0.43526 0.98804 0.0
H543 H 0.72933 0.44124 0.99967 0.0
H544 H 0.74515 0.40478 0.0359 0.0
H545 H 0.94005 0.30699 0.01739 0.0
H546 H 1.00619 0.33255 0.02749 0.0
H547 H 0.98034 0.35723 1.00229 0.0
H548 H 0.98667 0.46142 0.01534 0.0
H549 H 1.01281 0.43709 0.04051 0.0
H550 H 0.95098 0.48227 0.03945 0.0
H551 H 0.78146 0.36878 0.07128 0.0
H552 H 0.83529 0.3412 0.10323 0.0
H553 H 0.99184 0.35994 0.0682 0.0
C554 C 0.87361 0.42865 0.99813 0.0
C555 C 0.81835 0.44082 0.99093 0.0
C556 C 0.77206 0.43203 1.00477 0.0
C557 C 0.78062 0.4112 0.02537 0.0
C558 C 0.8357 0.39944 0.03192 0.0
C559 C 0.88139 0.40812 0.01872 0.0
C560 C 0.93645 0.3941 0.02976 0.0
C561 C 0.96758 0.34478 0.01856 0.0
C562 C 0.97391 0.44686 0.03136 0.0
C563 C 0.91473 0.37644 0.0513 0.0
C564 C 0.8565 0.37942 0.05223 0.0
C565 C 0.82706 0.36621 0.0707 0.0
C566 C 0.85802 0.35051 0.08877 0.0
C567 C 0.91783 0.3484 0.08827 0.0
C568 C 0.9462 0.36082 0.06913 0.0
H569 H 0.19021 0.31548 0.24165 0.0
H570 H 1.01592 0.29823 0.26145 0.0
H571 H 0.04236 0.32238 0.29813 0.0
H572 H 0.25908 0.26727 0.29124 0.0
H573 H 0.31274 0.32078 0.29002 0.0
H574 H 0.28256 0.29334 0.26592 0.0
H575 H 0.25518 0.39544 0.25446 0.0
H576 H 0.28524 0.42314 0.27847 0.0
H577 H 0.21279 0.43918 0.27194 0.0
H578 H 0.08582 0.35118 0.33208 0.0
H579 H 0.14068 0.39522 0.36059 0.0
H580 H 0.28609 0.40472 0.31872 0.0
C581 C 0.15808 0.31538 0.25388 0.0
C582 C 0.10125 0.30337 0.24891 0.0
C583 C 0.0598 0.30633 0.26504 0.0
C584 C 0.07445 0.31979 0.28592 0.0
C585 C 0.13062 0.33178 0.29035 0.0
C586 C 0.17176 0.33072 0.27477 0.0
C587 C 0.22742 0.35242 0.28336 0.0
C588 C 0.27316 0.30565 0.28259 0.0
C589 C 0.24624 0.40571 0.27134 0.0
C590 C 0.21077 0.36648 0.30605 0.0
C591 C 0.15508 0.3528 0.30979 0.0
C592 C 0.12949 0.36208 0.32938 0.0
C593 C 0.16119 0.38709 0.34551 0.0
C594 C 0.21773 0.40376 0.34191 0.0
C595 C 0.24297 0.39259 0.32195 0.0
H596 H 0.64894 0.79032 0.20444 0.0
H597 H 0.75237 0.89852 0.16507 0.0
H598 H 0.80329 0.93123 0.19689 0.0
H599 H 0.6311 0.88494 0.24642 0.0
H600 H 0.6348 0.83215 0.267 0.0
H601 H 0.61083 0.81282 0.24096 0.0
H602 H 0.68795 0.73411 0.23868 0.0
H603 H 0.71204 0.75296 0.26482 0.0
H604 H 0.76079 0.75218 0.24284 0.0
H605 H 0.83635 0.95948 0.23365 0.0
H606 H 0.85036 0.97823 0.27185 0.0
H607 H 0.7261 0.85046 0.28691 0.0
C608 C 0.68295 0.82014 0.20243 0.0
C609 C 0.69658 0.84181 0.18222 0.0
C610 C 0.74125 0.88103 0.18035 0.0
C611 C 0.77045 0.89992 0.19836 0.0
C612 C 0.75501 0.87872 0.21812 0.0
C613 C 0.71268 0.8392 0.22021 0.0
C614 C 0.70226 0.82503 0.24327 0.0
C615 C 0.64114 0.83963 0.24979 0.0
C616 C 0.71663 0.76235 0.24766 0.0
C617 C 0.74398 0.86412 0.25391 0.0
C618 C 0.77442 0.89443 0.23916 0.0
C619 C 0.81328 0.93537 0.24531 0.0
C620 C 0.82087 0.94585 0.26707 0.0
C621 C 0.78956 0.91571 0.28245 0.0
C622 C 0.75121 0.87385 0.27563 0.0
H623 H 0.57987 0.21877 0.52757 0.0
H624 H 0.68993 0.36382 0.53345 0.0
H625 H 0.7331 0.33973 0.49864 0.0
H626 H 0.67677 0.12343 0.50321 0.0
H627 H 0.62508 0.09276 0.48582 0.0
H628 H 0.60355 0.12186 0.51102 0.0
H629 H 0.53135 0.18874 0.49233 0.0
H630 H 0.55207 0.15866 0.46717 0.0
H631 H 0.55526 0.23426 0.47132 0.0
H632 H 0.76633 0.29577 0.46305 0.0
H633 H 0.78016 0.24187 0.42953 0.0
H634 H 0.64475 0.12925 0.44761 0.0
C635 C 0.61307 0.24565 0.52162 0.0
C636 C 0.63167 0.29308 0.53331 0.0
C637 C 0.67489 0.3273 0.52476 0.0
C638 C 0.69972 0.31385 0.50503 0.0
C639 C 0.68043 0.26642 0.49398 0.0
C640 C 0.63748 0.23344 0.50194 0.0
C641 C 0.62281 0.18571 0.48695 0.0
C642 C 0.63267 0.12751 0.49738 0.0
C643 C 0.56176 0.19225 0.47897 0.0
C644 C 0.6649 0.19605 0.4694 0.0
C645 C 0.69805 0.24261 0.47364 0.0
C646 C 0.74025 0.25951 0.45957 0.0
C647 C 0.74798 0.22853 0.44061 0.0
C648 C 0.71344 0.18142 0.43588 0.0
C649 C 0.67181 0.1651 0.45064 0.0
H650 H 0.40081 0.11907 0.78086 0.0
H651 H 0.2337 0.19604 0.78299 0.0
H652 H 0.24837 0.23397 0.74673 0.0
H653 H 0.47072 0.22888 0.75224 0.0
H654 H 0.5138 0.17978 0.73713 0.0
H655 H 0.49001 0.1609 0.76327 0.0
H656 H 0.44489 0.06959 0.74815 0.0
H657 H 0.46861 0.08813 0.72198 0.0
H658 H 0.39485 0.0752 0.72676 0.0
H659 H 0.28411 0.2645 0.70957 0.0
H660 H 0.3339 0.27876 0.67536 0.0
H661 H 0.47479 0.17741 0.69838 0.0
C662 C 0.36723 0.14425 0.77386 0.0
C663 C 0.31626 0.15508 0.78492 0.0
C664 C 0.27326 0.18749 0.7749 0.0
C665 C 0.28129 0.20921 0.75431 0.0
C666 C 0.33233 0.1977 0.74389 0.0
C667 C 0.37427 0.16551 0.75339 0.0
C668 C 0.42452 0.15704 0.73884 0.0
C669 C 0.4779 0.18323 0.74845 0.0
C670 C 0.43372 0.09374 0.73362 0.0
C671 C 0.40477 0.18974 0.71962 0.0
C672 C 0.35171 0.21335 0.72274 0.0
C673 C 0.32555 0.24589 0.70701 0.0
C674 C 0.35418 0.25388 0.68763 0.0
C675 C 0.40816 0.22897 0.68409 0.0
C676 C 0.43348 0.19683 0.70045 0.0
H677 H 0.50299 0.88905 0.02832 0.0
H678 H 0.40245 0.73703 0.03364 0.0
H679 H 0.36455 0.75396 0.99756 0.0
H680 H 0.40372 0.9741 1.00057 0.0
H681 H 0.45586 1.00716 0.98399 0.0
H682 H 0.47496 0.98231 1.00997 0.0
H683 H 0.55528 0.91934 0.9938 0.0
H684 H 0.5369 0.94577 0.96794 0.0
H685 H 0.53871 0.87046 0.97274 0.0
H686 H 0.33494 0.7914 0.96076 0.0
H687 H 0.32228 0.84123 0.92648 0.0
H688 H 0.44553 0.96576 0.94593 0.0
C689 C 0.47291 0.85922 0.02198 0.0
C690 C 0.45532 0.81193 0.0339 0.0
C691 C 0.41648 0.77362 0.02482 0.0
C692 C 0.39469 0.78296 1.00435 0.0
C693 C 0.41266 0.83044 0.9931 0.0
C694 C 0.45148 0.86745 1.00159 0.0
C695 C 0.4651 0.91475 0.98634 0.0
C696 C 0.44892 0.97301 0.99579 0.0
C697 C 0.52771 0.91241 0.97983 0.0
C698 C 0.42722 0.89936 0.968 0.0
C699 C 0.39707 0.85073 0.9721 0.0
C700 C 0.35872 0.82927 0.9574 0.0
C701 C 0.35165 0.85793 0.93799 0.0
C702 C 0.38305 0.90729 0.93344 0.0
C703 C 0.42102 0.92802 0.94879 0.0
H704 H 0.68449 0.89187 0.35426 0.0
H705 H 0.61474 0.02668 0.39378 0.0
H706 H 0.54265 0.96083 0.40724 0.0
H707 H 0.54988 0.82344 0.34152 0.0
H708 H 0.58111 0.75338 0.34257 0.0
H709 H 0.62316 0.81294 0.33464 0.0
H710 H 0.69559 0.78903 0.36409 0.0
H711 H 0.6538 0.72962 0.37216 0.0
H712 H 0.67185 0.78367 0.39117 0.0
H713 H 0.48281 0.87616 0.41875 0.0
H714 H 0.44286 0.78212 0.42706 0.0
H715 H 0.55191 0.70532 0.3793 0.0
C716 C 0.6535 0.90811 0.36544 0.0
C717 C 0.65551 0.96467 0.37291 0.0
C718 C 0.61432 0.98359 0.38778 0.0
C719 C 0.573 0.94648 0.39549 0.0
C720 C 0.57305 0.89063 0.38809 0.0
C721 C 0.61213 0.87178 0.37327 0.0
C722 C 0.60572 0.80915 0.36871 0.0
C723 C 0.58895 0.79916 0.34548 0.0
C724 C 0.65995 0.77594 0.37438 0.0
C725 C 0.55783 0.79523 0.38364 0.0
C726 C 0.53895 0.84264 0.39458 0.0
C727 C 0.49677 0.83893 0.41003 0.0
C728 C 0.47403 0.78527 0.41458 0.0
C729 C 0.49383 0.73601 0.40378 0.0
C730 C 0.53561 0.74186 0.3879 0.0
H731 H 0.69928 0.24111 0.6297 0.0
H732 H 0.56572 0.11923 0.62074 0.0
H733 H 0.63112 0.04148 0.63125 0.0
H734 H 0.81846 0.15139 0.61291 0.0
H735 H 0.86432 0.17806 0.6333 0.0
H736 H 0.80915 0.22288 0.6227 0.0
H737 H 0.76907 0.2394 0.66051 0.0
H738 H 0.82436 0.19518 0.67121 0.0
H739 H 0.75158 0.17907 0.67665 0.0
H740 H 0.71165 0.97714 0.64348 0.0
H741 H 0.79449 0.9343 0.66158 0.0
H742 H 0.87172 0.09981 0.66533 0.0
C743 C 0.68413 0.19791 0.62964 0.0
C744 C 0.62777 0.18593 0.62412 0.0
C745 C 0.60888 0.12916 0.62481 0.0
C746 C 0.64583 0.08476 0.63061 0.0
C747 C 0.70128 0.09798 0.63597 0.0
C748 C 0.71999 0.15338 0.63588 0.0
C749 C 0.77949 0.15725 0.64442 0.0
C750 C 0.82026 0.17866 0.62731 0.0
C751 C 0.78119 0.19493 0.66438 0.0
C752 C 0.79118 0.09553 0.64964 0.0
C753 C 0.7462 0.06169 0.64414 0.0
C754 C 0.74715 1.00324 0.64777 0.0
C755 C 0.79449 0.97917 0.65789 0.0
C756 C 0.83952 1.01376 0.66463 0.0
C757 C 0.83804 0.07241 0.66011 0.0
H758 H 0.50606 0.39687 0.88732 0.0
H759 H 0.63496 0.31587 0.92616 0.0
H760 H 0.59341 0.22269 0.91835 0.0
H761 H 0.39311 0.31097 0.90415 0.0
H762 H 0.35944 0.30949 0.87858 0.0
H763 H 0.40171 0.36928 0.88605 0.0
H764 H 0.46321 0.35517 0.85238 0.0
H765 H 0.42102 0.29538 0.84476 0.0
H766 H 0.4964 0.28716 0.8474 0.0
H767 H 0.53503 0.13782 0.90702 0.0
H768 H 0.46528 0.06974 0.89362 0.0
H769 H 0.37314 0.20768 0.86342 0.0
C770 C 0.52609 0.35977 0.89421 0.0
C771 C 0.57449 0.36444 0.90723 0.0
C772 C 0.59878 0.31417 0.91579 0.0
C773 C 0.57515 0.26077 0.91155 0.0
C774 C 0.52721 0.25819 0.89878 0.0
C775 C 0.50304 0.30648 0.89025 0.0
C776 C 0.4506 0.29287 0.8776 0.0
C777 C 0.39813 0.3224 0.88718 0.0
C778 C 0.45829 0.30857 0.85414 0.0
C779 C 0.44851 0.22923 0.8805 0.0
C780 C 0.49322 0.20991 0.89264 0.0
C781 C 0.49989 0.15261 0.89752 0.0
C782 C 0.45981 0.11422 0.88986 0.0
C783 C 0.4132 0.13317 0.87756 0.0
C784 C 0.40799 0.1916 0.8728 0.0
H785 H 0.19991 0.02985 0.13447 0.0
H786 H 0.27755 0.14119 0.18062 0.0
H787 H 0.36312 0.07999 0.18027 0.0
H788 H 0.2639 0.89486 0.15341 0.0
H789 H 0.27194 0.86804 0.12677 0.0
H790 H 0.21446 0.91592 0.13315 0.0
H791 H 0.24673 0.98332 0.10322 0.0
H792 H 0.30462 0.93616 0.09692 0.0
H793 H 0.31796 1.00942 0.10329 0.0
H794 H 0.4447 1.0129 0.17122 0.0
H795 H 0.51265 0.94373 0.15595 0.0
H796 H 0.38079 0.87739 0.11547 0.0
C797 C 0.23434 0.04078 0.14492 0.0
C798 C 0.2316 0.09017 0.15773 0.0
C799 C 0.27791 0.10305 0.171 0.0
C800 C 0.32694 0.06869 0.17078 0.0
C801 C 0.32878 1.02142 0.15735 0.0
C802 C 0.28327 1.00712 0.14487 0.0
C803 C 0.29682 0.95666 0.13073 0.0
C804 C 0.25957 0.90586 0.13636 0.0
C805 C 0.29121 0.97236 0.10715 0.0
C806 C 0.35774 0.94559 0.13669 0.0
C807 C 0.37539 0.98307 0.15217 0.0
C808 C 0.43099 0.98289 0.15933 0.0
C809 C 0.46938 0.94352 0.15046 0.0
C810 C 0.45218 0.90479 0.13452 0.0
C811 C 0.39534 0.90585 0.12776 0.0
H812 H 0.9523 0.77885 0.37151 0.0
H813 H 0.04849 0.93283 0.36521 0.0
H814 H 0.13742 0.87721 0.36909 0.0
H815 H 0.03017 0.71804 0.41067 0.0
H816 H 0.02651 0.64578 0.40133 0.0
H817 H 0.97161 0.69576 0.39458 0.0
H818 H 0.98759 0.6756 0.35463 0.0
H819 H 0.04198 0.62461 0.36126 0.0
H820 H 0.05735 0.68219 0.3435 0.0
H821 H 0.21393 0.80653 0.38043 0.0
H822 H 0.27194 0.72554 0.39342 0.0
H823 H 0.12563 0.61711 0.38991 0.0
C824 C 0.99229 0.80027 0.36995 0.0
C825 C 0.99393 0.85973 0.36749 0.0
C826 C 0.04669 0.88703 0.36642 0.0
C827 C 0.09727 0.85579 0.3688 0.0
C828 C 0.09423 0.79722 0.37195 0.0
C829 C 0.04301 0.76957 0.37196 0.0
C830 C 0.05063 0.70707 0.37695 0.0
C831 C 1.01779 0.69076 0.39708 0.0
C832 C 0.03338 0.67019 0.35795 0.0
C833 C 0.11376 0.70415 0.38056 0.0
C834 C 0.13833 0.7565 0.37767 0.0
C835 C 0.19533 0.76507 0.38217 0.0
C836 C 0.22792 0.71896 0.38965 0.0
C837 C 0.2036 0.66481 0.39233 0.0
C838 C 0.14586 0.65758 0.3875 0.0
H839 H 0.78653 0.49469 0.6161 0.0
H840 H 0.6351 0.59684 0.62431 0.0
H841 H 0.69285 0.68328 0.62712 0.0
H842 H 0.86459 0.56128 0.6536 0.0
H843 H 0.93157 0.55857 0.64001 0.0
H844 H 0.87887 0.50653 0.63421 0.0
H845 H 0.88233 0.53289 0.59443 0.0
H846 H 0.93579 0.58464 0.60006 0.0
H847 H 0.87195 0.60579 0.5866 0.0
H848 H 0.76658 0.75471 0.63588 0.0
H849 H 0.8511 0.80739 0.64716 0.0
H850 H 0.95604 0.66059 0.63215 0.0
C851 C 0.7657 0.53573 0.61737 0.0
C852 C 0.70638 0.53968 0.61927 0.0
C853 C 0.68039 0.59347 0.62215 0.0
C854 C 0.71291 0.64267 0.62387 0.0
C855 C 0.77151 0.63739 0.62267 0.0
C856 C 0.79777 0.5854 0.61911 0.0
C857 C 0.86146 0.59058 0.62064 0.0
C858 C 0.88549 0.55196 0.63816 0.0
C859 C 0.88953 0.57772 0.59915 0.0
C860 C 0.86674 0.65287 0.62647 0.0
C861 C 0.81436 0.67918 0.62743 0.0
C862 C 0.80793 0.735 0.63462 0.0
C863 C 0.85613 0.76455 0.64109 0.0
C864 C 0.91024 0.7385 0.64018 0.0
C865 C 0.91545 0.68221 0.63243 0.0
H866 H 0.10963 0.27312 0.86852 0.0
H867 H 1.00143 0.12717 0.87451 0.0
H868 H 0.91844 0.19056 0.87877 0.0
H869 H 0.04619 0.35243 0.90792 0.0
H870 H 0.05179 0.42078 0.89539 0.0
H871 H 0.10141 0.36503 0.88886 0.0
H872 H 0.07594 0.3741 0.84913 0.0
H873 H 0.02665 0.43052 0.85552 0.0
H874 H 1.00324 0.36909 0.84104 0.0
H875 H 0.85005 0.26837 0.88802 0.0
H876 H 0.79977 0.35594 0.89925 0.0
H877 H 0.95084 0.45305 0.88696 0.0
C878 C 0.06804 0.25481 0.86972 0.0
C879 C 0.06154 0.19526 0.87059 0.0
C880 C 1.00694 0.17264 0.8733 0.0
C881 C 0.95961 0.20834 0.87582 0.0
C882 C 0.96743 0.26686 0.87565 0.0
C883 C 0.02012 0.29013 0.87239 0.0
C884 C 1.01746 0.35431 0.87491 0.0
C885 C 0.05652 0.37427 0.89284 0.0
C886 C 0.03166 0.38374 0.85389 0.0
C887 C 0.9557 0.36309 0.88074 0.0
C888 C 0.92755 0.3121 0.88096 0.0
C889 C 0.87134 0.30873 0.88747 0.0
C890 C 0.84315 0.35869 0.89393 0.0
C891 C 0.87097 0.41158 0.89378 0.0
C892 C 0.92791 0.41356 0.88685 0.0
H893 H 0.39145 0.51873 0.14238 0.0
H894 H 0.30994 0.65283 0.10604 0.0
H895 H 0.21945 0.60267 0.109 0.0
H896 H 0.31032 0.40085 0.12201 0.0
H897 H 0.30823 0.36601 0.14738 0.0
H898 H 0.36713 0.41013 0.14061 0.0
H899 H 0.3499 0.46979 0.17466 0.0
H900 H 0.29067 0.42625 0.18144 0.0
H901 H 0.28152 0.50204 0.17916 0.0
H902 H 0.13594 0.53908 0.11779 0.0
H903 H 0.0685 0.46817 0.13107 0.0
H904 H 0.2056 0.37927 0.16281 0.0
C905 C 0.35492 0.53767 0.13479 0.0
C906 C 0.35863 0.58977 0.12377 0.0
C907 C 0.30921 0.61255 0.11419 0.0
C908 C 0.25725 0.5845 0.11594 0.0
C909 C 0.25527 0.53386 0.12733 0.0
C910 C 0.303 0.51068 0.13651 0.0
C911 C 0.28977 0.45728 0.14874 0.0
C912 C 0.32069 0.40551 0.1391 0.0
C913 C 0.30379 0.4643 0.1724 0.0
C914 C 0.22682 0.45411 0.14523 0.0
C915 C 0.20759 0.49836 0.13274 0.0
C916 C 0.15069 0.50423 0.12752 0.0
C917 C 0.11268 0.46372 0.13518 0.0
C918 C 0.13161 0.4181 0.14806 0.0
C919 C 0.18954 0.41365 0.15311 0.0
H920 H 0.4895 0.34866 0.55062 0.0
H921 H 0.50087 0.52194 0.57257 0.0
H922 H 0.48664 0.55628 0.53587 0.0
H923 H 0.54532 0.36606 0.49514 0.0
H924 H 0.49173 0.32084 0.4842 0.0
H925 H 0.51844 0.30763 0.51039 0.0
H926 H 0.41998 0.31248 0.52662 0.0
H927 H 0.39018 0.32362 0.50087 0.0
H928 H 0.37526 0.37353 0.52194 0.0
H929 H 0.45509 0.57102 0.49707 0.0
H930 H 0.40753 0.56349 0.46219 0.0
H931 H 0.40444 0.38066 0.46905 0.0
C932 C 0.49318 0.39356 0.54742 0.0
C933 C 0.499 0.43256 0.56417 0.0
C934 C 0.49888 0.49141 0.55972 0.0
C935 C 0.49037 0.51122 0.53894 0.0
C936 C 0.48117 0.47156 0.52286 0.0
C937 C 0.48285 0.41376 0.52697 0.0
C938 C 0.46055 0.38 0.50847 0.0
C939 C 0.50686 0.34145 0.49896 0.0
C940 C 0.40838 0.34546 0.51486 0.0
C941 C 0.44482 0.42747 0.49354 0.0
C942 C 0.45802 0.48003 0.50168 0.0
C943 C 0.44462 0.52983 0.49064 0.0
C944 C 0.41646 0.5254 0.47101 0.0
C945 C 0.39989 0.47185 0.46312 0.0
C946 C 0.41578 0.42262 0.47451 0.0
H947 H 0.12471 0.91652 0.81071 0.0
H948 H 0.25181 0.04066 0.79899 0.0
H949 H 0.21179 0.06017 0.7637 0.0
H950 H 0.16608 0.85504 0.76434 0.0
H951 H 0.09995 0.8228 0.75774 0.0
H952 H 0.11699 0.83624 0.78498 0.0
H953 H 0.02582 0.89526 0.79008 0.0
H954 H 1.00654 0.88194 0.76291 0.0
H955 H 1.01057 0.95379 0.77258 0.0
H956 H 0.15992 0.05998 0.72877 0.0
H957 H 0.13379 1.02036 0.69407 0.0
H958 H 0.0728 0.86888 0.72477 0.0
C959 C 0.14216 0.95022 0.80118 0.0
C960 C 0.18645 0.98455 0.80892 0.0
C961 C 0.21199 0.02285 0.79493 0.0
C962 C 0.1905 0.03182 0.77448 0.0
C963 C 0.14607 0.9981 0.76753 0.0
C964 C 0.12466 0.95561 0.78013 0.0
C965 C 0.09268 0.91239 0.76704 0.0
C966 C 0.12059 0.85316 0.76862 0.0
C967 C 0.03019 0.91078 0.77355 0.0
C968 C 0.09944 0.93724 0.74509 0.0
C969 C 0.12723 0.98847 0.74601 0.0
C970 C 0.13828 1.01983 0.72788 0.0
C971 C 0.123 0.997 0.70824 0.0
C972 C 0.09962 0.94199 0.7067 0.0
C973 C 0.08754 0.91198 0.72544 0.0
H974 H 0.60105 0.76114 0.04809 0.0
H975 H 0.592 0.59074 0.07277 0.0
H976 H 0.60401 0.5518 0.03651 0.0
H977 H 0.54384 0.73423 0.99262 0.0
H978 H 0.59632 0.77958 0.98107 0.0
H979 H 0.56846 0.79528 1.00704 0.0
H980 H 0.6681 0.79575 0.02283 0.0
H981 H 0.6979 0.78074 0.99725 0.0
H982 H 0.71379 0.73469 0.01926 0.0
H983 H 0.63277 0.53203 0.99785 0.0
H984 H 0.67915 0.53459 0.96266 0.0
H985 H 0.68649 0.71768 0.96681 0.0
C986 C 0.59755 0.71584 0.04559 0.0
C987 C 0.59309 0.67891 0.06297 0.0
C988 C 0.59304 0.61959 0.05944 0.0
C989 C 0.60025 0.5972 0.03891 0.0
C990 C 0.60852 0.6348 0.02216 0.0
C991 C 0.60695 0.69308 0.02536 0.0
C992 C 0.62867 0.72436 1.00617 0.0
C993 C 0.58146 0.76044 0.99612 0.0
C994 C 0.68015 0.76096 1.01173 0.0
C995 C 0.64509 0.67481 0.99208 0.0
C996 C 0.63151 0.62351 1.0011 0.0
C997 C 0.64426 0.57216 0.99086 0.0
C998 C 0.67246 0.57362 0.97114 0.0
C999 C 0.69029 0.62564 0.96246 0.0
C1000 C 0.67472 0.67667 0.973 0.0
H1001 H 0.04903 0.16221 0.22607 0.0
H1002 H 0.88213 0.20267 0.20175 0.0
H1003 H 0.83896 0.16489 0.23396 0.0
H1004 H 1.01239 0.03496 0.25474 0.0
H1005 H 0.05458 0.04968 0.27779 0.0
H1006 H 0.07532 0.07677 0.25228 0.0
H1007 H 0.07467 0.18085 0.26681 0.0
H1008 H 0.05886 0.15138 0.29239 0.0
H1009 H 1.01343 0.20548 0.28151 0.0
H1010 H 0.812 0.11732 0.26671 0.0
H1011 H 0.80205 0.09333 0.30439 0.0
H1012 H 0.98401 0.09533 0.31142 0.0
C1013 C 1.00358 0.16398 0.22781 0.0
C1014 C 0.96886 0.18423 0.21117 0.0
C1015 C 0.9095 0.18636 0.2141 0.0
C1016 C 0.88442 0.16448 0.23226 0.0
C1017 C 0.91914 0.14203 0.24786 0.0
C1018 C 0.97739 0.14399 0.24646 0.0
C1019 C 1.00383 0.12197 0.26686 0.0
C1020 C 0.0386 0.06761 0.26265 0.0
C1021 C 0.03987 0.16771 0.27749 0.0
C1022 C 0.95123 0.10926 0.27988 0.0
C1023 C 0.90313 0.11859 0.26806 0.0
C1024 C 0.84927 0.11016 0.27626 0.0
C1025 C 0.84404 0.0957 0.29763 0.0
C1026 C 0.89224 0.09159 0.31071 0.0
C1027 C 0.94664 0.09679 0.30159 0.0
loop_
_geom_bond_atom_site_label_1
_geom_bond_atom_site_label_2
_geom_bond_distance
_geom_bond_site_symmetry_2
_ccdc_geom_bond_type
Zn0 N4 2.020 . S
Zn0 O8 2.019 . S
Zn0 N10 2.119 . S
Zn0 O18 1.975 . S
C1 N2 1.334 . S
C1 N5 1.336 . S
N2 C1 1.334 . S
N2 C3 1.334 . S
C3 N2 1.334 . S
C3 N4 1.336 . S
N4 Zn0 2.020 . S
N4 C3 1.336 . S
N4 N5 1.354 . S
N5 C1 1.336 . S
N5 N4 1.354 . S
N5 Zn9 2.020 . S
C6 O7 1.244 . S
C6 O30 1.257 . S
O7 C6 1.244 . S
O8 Zn0 2.019 . S
O8 C28 1.257 . S
Zn9 N5 2.020 . S
Zn9 O16 1.975 . S
Zn9 N25 2.119 . S
Zn9 O30 2.019 . S
N10 Zn0 2.119 . S
N10 C12 1.334 . S
N10 C13 1.328 . S
C11 C12 1.391 . S
C11 N14 1.329 . S
C11 H32 0.930 . S
C12 N10 1.334 . S
C12 C11 1.391 . S
C12 H19 0.930 . S
C13 N10 1.328 . S
C13 C15 1.392 . S
C13 H20 0.930 . S
N14 C11 1.329 . S
N14 C15 1.331 . S
C15 C13 1.392 . S
C15 N14 1.331 . S
O16 Zn9 1.975 . S
O16 C17 1.252 . S
C17 O16 1.252 . S
C17 O18 1.252 . S
O18 Zn0 1.975 . S
O18 C17 1.252 . S
H19 C12 0.930 . S
H20 C13 0.930 . S
C21 C22 1.392 . S
C21 N25 1.328 . S
C21 H27 0.930 . S
C22 C21 1.392 . S
C22 N26 1.331 . S
C23 C24 1.391 . S
C23 N26 1.329 . S
C23 H33 0.930 . S
C24 C23 1.391 . S
C24 N25 1.334 . S
C24 H31 0.930 . S
N25 Zn9 2.119 . S
N25 C21 1.328 . S
N25 C24 1.334 . S
N26 C22 1.331 . S
N26 C23 1.329 . S
H27 C21 0.930 . S
C28 O8 1.257 . S
C28 O29 1.244 . S
O29 C28 1.244 . S
O30 C6 1.257 . S
O30 Zn9 2.019 . S
H31 C24 0.930 . S
H32 C11 0.930 . S
H33 C23 0.930 . S
Zn34 N38 2.020 1_655 S
Zn34 O42 2.019 . S
Zn34 N44 2.119 . S
Zn34 O52 1.975 . S
C35 N36 1.334 . S
C35 N39 1.336 . S
N36 C35 1.334 . S
N36 C37 1.334 . S
C37 N36 1.334 . S
C37 N38 1.336 . S
N38 Zn34 2.020 1_455 S
N38 C37 1.336 . S
N38 N39 1.354 . S
N39 C35 1.336 . S
N39 N38 1.354 . S
N39 Zn43 2.020 . S
C40 O41 1.244 . S
C40 O64 1.257 . S
O41 C40 1.244 . S
O42 Zn34 2.019 . S
O42 C62 1.257 . S
Zn43 N39 2.020 . S
Zn43 O50 1.975 1_455 S
Zn43 N59 2.119 . S
Zn43 O64 2.019 . S
N44 Zn34 2.119 . S
N44 C46 1.334 . S
N44 C47 1.328 . S
C45 C46 1.391 . S
C45 N48 1.329 . S
C45 H66 0.930 . S
C46 N44 1.334 . S
C46 C45 1.391 . S
C46 H53 0.930 . S
C47 N44 1.328 . S
C47 C49 1.392 . S
C47 H54 0.930 . S
N48 C45 1.329 . S
N48 C49 1.331 . S
C49 C47 1.392 . S
C49 N48 1.331 . S
O50 Zn43 1.975 1_655 S
O50 C51 1.252 . S
C51 O50 1.252 . S
C51 O52 1.252 . S
O52 Zn34 1.975 . S
O52 C51 1.252 . S
H53 C46 0.930 . S
H54 C47 0.930 . S
C55 C56 1.392 . S
C55 N59 1.328 . S
C55 H61 0.930 . S
C56 C55 1.392 . S
C56 N60 1.331 . S
C57 C58 1.391 . S
C57 N60 1.329 . S
C57 H67 0.930 . S
C58 C57 1.391 . S
C58 N59 1.334 . S
C58 H65 0.930 . S
N59 Zn43 2.119 . S
N59 C55 1.328 . S
N59 C58 1.334 . S
N60 C56 1.331 . S
N60 C57 1.329 . S
H61 C55 0.930 . S
C62 O42 1.257 . S
C62 O63 1.244 . S
O63 C62 1.244 . S
O64 C40 1.257 . S
O64 Zn43 2.019 . S
H65 C58 0.930 . S
H66 C45 0.930 . S
H67 C57 0.930 . S
Zn68 N72 2.020 . S
Zn68 O76 2.019 . S
Zn68 N78 2.119 . S
Zn68 O86 1.975 . S
C69 N70 1.334 . S
C69 N73 1.336 . S
N70 C69 1.334 . S
N70 C71 1.334 . S
C71 N70 1.334 . S
C71 N72 1.336 . S
N72 Zn68 2.020 . S
N72 C71 1.336 . S
N72 N73 1.354 . S
N73 C69 1.336 . S
N73 N72 1.354 . S
N73 Zn77 2.020 . S
C74 O75 1.244 . S
C74 O98 1.257 . S
O75 C74 1.244 . S
O76 Zn68 2.019 . S
O76 C96 1.257 . S
Zn77 N73 2.020 . S
Zn77 O84 1.975 . S
Zn77 N93 2.119 . S
Zn77 O98 2.019 . S
N78 Zn68 2.119 . S
N78 C80 1.334 . S
N78 C81 1.328 . S
C79 C80 1.391 . S
C79 N82 1.329 . S
C79 H100 0.930 . S
C80 N78 1.334 . S
C80 C79 1.391 . S
C80 H87 0.930 . S
C81 N78 1.328 . S
C81 C83 1.392 . S
C81 H88 0.930 . S
N82 C79 1.329 . S
N82 C83 1.331 . S
C83 C81 1.392 . S
C83 N82 1.331 . S
O84 Zn77 1.975 . S
O84 C85 1.252 . S
C85 O84 1.252 . S
C85 O86 1.252 . S
O86 Zn68 1.975 . S
O86 C85 1.252 . S
H87 C80 0.930 . S
H88 C81 0.930 . S
C89 C90 1.392 . S
C89 N93 1.328 . S
C89 H95 0.930 . S
C90 C89 1.392 . S
C90 N94 1.331 . S
C91 C92 1.391 . S
C91 N94 1.329 . S
C91 H101 0.930 . S
C92 C91 1.391 . S
C92 N93 1.334 . S
C92 H99 0.930 . S
N93 Zn77 2.119 . S
N93 C89 1.328 . S
N93 C92 1.334 . S
N94 C90 1.331 . S
N94 C91 1.329 . S
H95 C89 0.930 . S
C96 O76 1.257 . S
C96 O97 1.244 . S
O97 C96 1.244 . S
O98 C74 1.257 . S
O98 Zn77 2.019 . S
H99 C92 0.930 . S
H100 C79 0.930 . S
H101 C91 0.930 . S
Zn102 N106 2.020 1_455 S
Zn102 O110 2.019 . S
Zn102 N112 2.119 . S
Zn102 O120 1.975 . S
C103 N104 1.334 . S
C103 N107 1.336 . S
N104 C103 1.334 . S
N104 C105 1.334 . S
C105 N104 1.334 . S
C105 N106 1.336 . S
N106 Zn102 2.020 1_655 S
N106 C105 1.336 . S
N106 N107 1.354 . S
N107 C103 1.336 . S
N107 N106 1.354 . S
N107 Zn111 2.020 . S
C108 O109 1.244 . S
C108 O132 1.257 . S
O109 C108 1.244 . S
O110 Zn102 2.019 . S
O110 C130 1.257 . S
Zn111 N107 2.020 . S
Zn111 O118 1.975 1_655 S
Zn111 N127 2.119 . S
Zn111 O132 2.019 . S
N112 Zn102 2.119 . S
N112 C114 1.334 . S
N112 C115 1.328 . S
C113 C114 1.391 . S
C113 N116 1.329 . S
C113 H134 0.930 . S
C114 N112 1.334 . S
C114 C113 1.391 . S
C114 H121 0.930 . S
C115 N112 1.328 . S
C115 C117 1.392 . S
C115 H122 0.930 . S
N116 C113 1.329 . S
N116 C117 1.331 . S
C117 C115 1.392 . S
C117 N116 1.331 . S
O118 Zn111 1.975 1_455 S
O118 C119 1.252 . S
C119 O118 1.252 . S
C119 O120 1.252 . S
O120 Zn102 1.975 . S
O120 C119 1.252 . S
H121 C114 0.930 . S
H122 C115 0.930 . S
C123 C124 1.392 . S
C123 N127 1.328 . S
C123 H129 0.930 . S
C124 C123 1.392 . S
C124 N128 1.331 . S
C125 C126 1.391 . S
C125 N128 1.329 . S
C125 H135 0.930 . S
C126 C125 1.391 . S
C126 N127 1.334 . S
C126 H133 0.930 . S
N127 Zn111 2.119 . S
N127 C123 1.328 . S
N127 C126 1.334 . S
N128 C124 1.331 . S
N128 C125 1.329 . S
H129 C123 0.930 . S
C130 O110 1.257 . S
C130 O131 1.244 . S
O131 C130 1.244 . S
O132 C108 1.257 . S
O132 Zn111 2.019 . S
H133 C126 0.930 . S
H134 C113 0.930 . S
H135 C125 0.930 . S
Zn136 N140 2.020 1_565 S
Zn136 O144 2.019 . S
Zn136 N146 2.119 . S
Zn136 O154 1.975 . S
C137 N138 1.334 . S
C137 N141 1.336 . S
N138 C137 1.334 . S
N138 C139 1.334 . S
C139 N138 1.334 . S
C139 N140 1.336 . S
N140 Zn136 2.020 1_545 S
N140 C139 1.336 . S
N140 N141 1.354 . S
N141 C137 1.336 . S
N141 N140 1.354 . S
N141 Zn145 2.020 . S
C142 O143 1.244 . S
C142 O166 1.257 . S
O143 C142 1.244 . S
O144 Zn136 2.019 . S
O144 C164 1.257 . S
Zn145 N141 2.020 . S
Zn145 O152 1.975 1_545 S
Zn145 N161 2.119 . S
Zn145 O166 2.019 . S
N146 Zn136 2.119 . S
N146 C148 1.334 . S
N146 C149 1.328 . S
C147 C148 1.391 . S
C147 N150 1.329 . S
C147 H168 0.930 . S
C148 N146 1.334 . S
C148 C147 1.391 . S
C148 H155 0.930 . S
C149 N146 1.328 . S
C149 C151 1.392 . S
C149 H156 0.930 . S
N150 C147 1.329 . S
N150 C151 1.331 . S
C151 C149 1.392 . S
C151 N150 1.331 . S
O152 Zn145 1.975 1_565 S
O152 C153 1.252 . S
C153 O152 1.252 . S
C153 O154 1.252 . S
O154 Zn136 1.975 . S
O154 C153 1.252 . S
H155 C148 0.930 . S
H156 C149 0.930 . S
C157 C158 1.392 . S
C157 N161 1.328 . S
C157 H163 0.930 . S
C158 C157 1.392 . S
C158 N162 1.331 . S
C159 C160 1.391 . S
C159 N162 1.329 . S
C159 H169 0.930 . S
C160 C159 1.391 . S
C160 N161 1.334 . S
C160 H167 0.930 . S
N161 Zn145 2.119 . S
N161 C157 1.328 . S
N161 C160 1.334 . S
N162 C158 1.331 . S
N162 C159 1.329 . S
H163 C157 0.930 . S
C164 O144 1.257 . S
C164 O165 1.244 . S
O165 C164 1.244 . S
O166 C142 1.257 . S
O166 Zn145 2.019 . S
H167 C160 0.930 . S
H168 C147 0.930 . S
H169 C159 0.930 . S
Zn170 N174 2.020 . S
Zn170 O178 2.019 . S
Zn170 N180 2.119 . S
Zn170 O188 1.975 . S
C171 N172 1.334 . S
C171 N175 1.336 . S
N172 C171 1.334 . S
N172 C173 1.334 . S
C173 N172 1.334 . S
C173 N174 1.336 . S
N174 Zn170 2.020 . S
N174 C173 1.336 . S
N174 N175 1.354 . S
N175 C171 1.336 . S
N175 N174 1.354 . S
N175 Zn179 2.020 . S
C176 O177 1.244 . S
C176 O200 1.257 . S
O177 C176 1.244 . S
O178 Zn170 2.019 . S
O178 C198 1.257 . S
Zn179 N175 2.020 . S
Zn179 O186 1.975 . S
Zn179 N195 2.119 . S
Zn179 O200 2.019 . S
N180 Zn170 2.119 . S
N180 C182 1.334 . S
N180 C183 1.328 . S
C181 C182 1.391 . S
C181 N184 1.329 . S
C181 H202 0.930 . S
C182 N180 1.334 . S
C182 C181 1.391 . S
C182 H189 0.930 . S
C183 N180 1.328 . S
C183 C185 1.392 . S
C183 H190 0.930 . S
N184 C181 1.329 . S
N184 C185 1.331 . S
C185 C183 1.392 . S
C185 N184 1.331 . S
O186 Zn179 1.975 . S
O186 C187 1.252 . S
C187 O186 1.252 . S
C187 O188 1.252 . S
O188 Zn170 1.975 . S
O188 C187 1.252 . S
H189 C182 0.930 . S
H190 C183 0.930 . S
C191 C192 1.392 . S
C191 N195 1.328 . S
C191 H197 0.930 . S
C192 C191 1.392 . S
C192 N196 1.331 . S
C193 C194 1.391 . S
C193 N196 1.329 . S
C193 H203 0.930 . S
C194 C193 1.391 . S
C194 N195 1.334 . S
C194 H201 0.930 . S
N195 Zn179 2.119 . S
N195 C191 1.328 . S
N195 C194 1.334 . S
N196 C192 1.331 . S
N196 C193 1.329 . S
H197 C191 0.930 . S
C198 O178 1.257 . S
C198 O199 1.244 . S
O199 C198 1.244 . S
O200 C176 1.257 . S
O200 Zn179 2.019 . S
H201 C194 0.930 . S
H202 C181 0.930 . S
H203 C193 0.930 . S
Zn204 N208 2.020 1_545 S
Zn204 O212 2.019 . S
Zn204 N214 2.119 . S
Zn204 O222 1.975 . S
C205 N206 1.334 . S
C205 N209 1.336 . S
N206 C205 1.334 . S
N206 C207 1.334 . S
C207 N206 1.334 . S
C207 N208 1.336 . S
N208 Zn204 2.020 1_565 S
N208 C207 1.336 . S
N208 N209 1.354 . S
N209 C205 1.336 . S
N209 N208 1.354 . S
N209 Zn213 2.020 . S
C210 O211 1.244 . S
C210 O234 1.257 . S
O211 C210 1.244 . S
O212 Zn204 2.019 . S
O212 C232 1.257 . S
Zn213 N209 2.020 . S
Zn213 O220 1.975 1_565 S
Zn213 N229 2.119 . S
Zn213 O234 2.019 . S
N214 Zn204 2.119 . S
N214 C216 1.334 . S
N214 C217 1.328 . S
C215 C216 1.391 . S
C215 N218 1.329 . S
C215 H236 0.930 . S
C216 N214 1.334 . S
C216 C215 1.391 . S
C216 H223 0.930 . S
C217 N214 1.328 . S
C217 C219 1.392 . S
C217 H224 0.930 . S
N218 C215 1.329 . S
N218 C219 1.331 . S
C219 C217 1.392 . S
C219 N218 1.331 . S
O220 Zn213 1.975 1_545 S
O220 C221 1.252 . S
C221 O220 1.252 . S
C221 O222 1.252 . S
O222 Zn204 1.975 . S
O222 C221 1.252 . S
H223 C216 0.930 . S
H224 C217 0.930 . S
C225 C226 1.392 . S
C225 N229 1.328 . S
C225 H231 0.930 . S
C226 C225 1.392 . S
C226 N230 1.331 . S
C227 C228 1.391 . S
C227 N230 1.329 . S
C227 H237 0.930 . S
C228 C227 1.391 . S
C228 N229 1.334 . S
C228 H235 0.930 . S
N229 Zn213 2.119 . S
N229 C225 1.328 . S
N229 C228 1.334 . S
N230 C226 1.331 . S
N230 C227 1.329 . S
H231 C225 0.930 . S
C232 O212 1.257 . S
C232 O233 1.244 . S
O233 C232 1.244 . S
O234 C210 1.257 . S
O234 Zn213 2.019 . S
H235 C228 0.930 . S
H236 C215 0.930 . S
H237 C227 0.930 . S
Zn238 N242 2.020 . S
Zn238 O246 2.019 . S
Zn238 N248 2.119 . S
Zn238 O256 1.975 . S
C239 N240 1.334 . S
C239 N243 1.336 . S
N240 C239 1.334 . S
N240 C241 1.334 . S
C241 N240 1.334 . S
C241 N242 1.336 . S
N242 Zn238 2.020 . S
N242 C241 1.336 . S
N242 N243 1.354 . S
N243 C239 1.336 . S
N243 N242 1.354 . S
N243 Zn247 2.020 . S
C244 O245 1.244 . S
C244 O268 1.257 . S
O245 C244 1.244 . S
O246 Zn238 2.019 . S
O246 C266 1.257 . S
Zn247 N243 2.020 . S
Zn247 O254 1.975 . S
Zn247 N263 2.119 . S
Zn247 O268 2.019 . S
N248 Zn238 2.119 . S
N248 C250 1.334 . S
N248 C251 1.328 . S
C249 C250 1.391 . S
C249 N252 1.329 . S
C249 H270 0.930 . S
C250 N248 1.334 . S
C250 C249 1.391 . S
C250 H257 0.930 . S
C251 N248 1.328 . S
C251 C253 1.392 . S
C251 H258 0.930 . S
N252 C249 1.329 . S
N252 C253 1.331 . S
C253 C251 1.392 . S
C253 N252 1.331 . S
O254 Zn247 1.975 . S
O254 C255 1.252 . S
C255 O254 1.252 . S
C255 O256 1.252 . S
O256 Zn238 1.975 . S
O256 C255 1.252 . S
H257 C250 0.930 . S
H258 C251 0.930 . S
C259 C260 1.392 . S
C259 N263 1.328 . S
C259 H265 0.930 . S
C260 C259 1.392 . S
C260 N264 1.331 . S
C261 C262 1.391 . S
C261 N264 1.329 . S
C261 H271 0.930 . S
C262 C261 1.391 . S
C262 N263 1.334 . S
C262 H269 0.930 . S
N263 Zn247 2.119 . S
N263 C259 1.328 . S
N263 C262 1.334 . S
N264 C260 1.331 . S
N264 C261 1.329 . S
H265 C259 0.930 . S
C266 O246 1.257 . S
C266 O267 1.244 . S
O267 C266 1.244 . S
O268 C244 1.257 . S
O268 Zn247 2.019 . S
H269 C262 0.930 . S
H270 C249 0.930 . S
H271 C261 0.930 . S
H272 C284 0.930 . S
H273 C286 0.930 . S
H274 C287 0.930 . S
H275 C291 0.959 . S
H276 C291 0.959 . S
H277 C291 0.961 . S
H278 C292 0.960 . S
H279 C292 0.961 . S
H280 C292 0.959 . S
H281 C295 0.929 . S
H282 C296 0.931 . S
H283 C298 0.930 . S
C284 H272 0.930 . S
C284 C285 1.399 . S
C284 C289 1.399 . S
C285 C284 1.399 . S
C285 C286 1.376 . S
C286 H273 0.930 . S
C286 C285 1.376 . S
C286 C287 1.388 . S
C287 H274 0.930 . S
C287 C286 1.388 . S
C287 C288 1.390 . S
C288 C287 1.390 . S
C288 C289 1.394 . S
C288 C294 1.465 . S
C289 C284 1.399 . S
C289 C288 1.394 . S
C289 C290 1.516 . S
C290 C289 1.516 . S
C290 C291 1.502 . S
C290 C292 1.561 . S
C290 C293 1.526 . S
C291 H275 0.959 . S
C291 H276 0.959 . S
C291 H277 0.961 . S
C291 C290 1.502 . S
C292 H278 0.960 . S
C292 H279 0.961 . S
C292 H280 0.959 . S
C292 C290 1.561 . S
C293 C290 1.526 . S
C293 C294 1.396 . S
C293 C298 1.390 . S
C294 C288 1.465 . S
C294 C293 1.396 . S
C294 C295 1.399 . S
C295 H281 0.929 . S
C295 C294 1.399 . S
C295 C296 1.385 . S
C296 H282 0.931 . S
C296 C295 1.385 . S
C296 C297 1.389 . S
C297 C296 1.389 . S
C297 C298 1.387 . S
C298 H283 0.930 . S
C298 C293 1.390 . S
C298 C297 1.387 . S
H299 C311 0.930 . S
H300 C313 0.930 . S
H301 C314 0.930 . S
H302 C318 0.959 . S
H303 C318 0.959 . S
H304 C318 0.961 . S
H305 C319 0.960 . S
H306 C319 0.961 . S
H307 C319 0.959 . S
H308 C322 0.929 . S
H309 C323 0.931 . S
H310 C325 0.930 . S
C311 H299 0.930 . S
C311 C312 1.399 1_565 S
C311 C316 1.399 . S
C312 C311 1.399 1_545 S
C312 C313 1.376 . S
C313 H300 0.930 . S
C313 C312 1.376 . S
C313 C314 1.388 . S
C314 H301 0.930 . S
C314 C313 1.388 . S
C314 C315 1.390 1_545 S
C315 C314 1.390 1_565 S
C315 C316 1.394 . S
C315 C321 1.465 . S
C316 C311 1.399 . S
C316 C315 1.394 . S
C316 C317 1.516 . S
C317 C316 1.516 . S
C317 C318 1.502 . S
C317 C319 1.561 . S
C317 C320 1.526 . S
C318 H302 0.959 . S
C318 H303 0.959 . S
C318 H304 0.961 . S
C318 C317 1.502 . S
C319 H305 0.960 . S
C319 H306 0.961 . S
C319 H307 0.959 . S
C319 C317 1.561 . S
C320 C317 1.526 . S
C320 C321 1.396 . S
C320 C325 1.390 . S
C321 C315 1.465 . S
C321 C320 1.396 . S
C321 C322 1.399 . S
C322 H308 0.929 . S
C322 C321 1.399 . S
C322 C323 1.385 . S
C323 H309 0.931 . S
C323 C322 1.385 . S
C323 C324 1.389 . S
C324 C323 1.389 . S
C324 C325 1.387 . S
C325 H310 0.930 . S
C325 C320 1.390 . S
C325 C324 1.387 . S
H326 C338 0.930 . S
H327 C340 0.930 . S
H328 C341 0.930 . S
H329 C345 0.959 . S
H330 C345 0.959 . S
H331 C345 0.961 . S
H332 C346 0.960 . S
H333 C346 0.961 . S
H334 C346 0.959 . S
H335 C349 0.929 . S
H336 C350 0.931 . S
H337 C352 0.930 . S
C338 H326 0.930 . S
C338 C339 1.399 . S
C338 C343 1.399 . S
C339 C338 1.399 . S
C339 C340 1.376 . S
C340 H327 0.930 . S
C340 C339 1.376 . S
C340 C341 1.388 . S
C341 H328 0.930 . S
C341 C340 1.388 . S
C341 C342 1.390 . S
C342 C341 1.390 . S
C342 C343 1.394 . S
C342 C348 1.465 . S
C343 C338 1.399 . S
C343 C342 1.394 . S
C343 C344 1.516 . S
C344 C343 1.516 . S
C344 C345 1.502 . S
C344 C346 1.561 . S
C344 C347 1.526 . S
C345 H329 0.959 . S
C345 H330 0.959 . S
C345 H331 0.961 . S
C345 C344 1.502 . S
C346 H332 0.960 . S
C346 H333 0.961 . S
C346 H334 0.959 . S
C346 C344 1.561 . S
C347 C344 1.526 . S
C347 C348 1.396 . S
C347 C352 1.390 . S
C348 C342 1.465 . S
C348 C347 1.396 . S
C348 C349 1.399 . S
C349 H335 0.929 . S
C349 C348 1.399 . S
C349 C350 1.385 . S
C350 H336 0.931 . S
C350 C349 1.385 . S
C350 C351 1.389 . S
C351 C350 1.389 . S
C351 C352 1.387 . S
C352 H337 0.930 . S
C352 C347 1.390 . S
C352 C351 1.387 . S
H353 C365 0.930 . S
H354 C367 0.930 . S
H355 C368 0.930 . S
H356 C372 0.959 . S
H357 C372 0.959 . S
H358 C372 0.961 . S
H359 C373 0.960 . S
H360 C373 0.961 . S
H361 C373 0.959 . S
H362 C376 0.929 . S
H363 C377 0.931 . S
H364 C379 0.936 . S
C365 H353 0.930 . S
C365 C366 1.399 . S
C365 C370 1.399 . S
C366 C365 1.399 . S
C366 C367 1.376 . S
C367 H354 0.930 . S
C367 C366 1.376 . S
C367 C368 1.388 . S
C368 H355 0.930 . S
C368 C367 1.388 . S
C368 C369 1.390 . S
C369 C368 1.390 . S
C369 C370 1.394 . S
C369 C375 1.465 . S
C370 C365 1.399 . S
C370 C369 1.394 . S
C370 C371 1.516 . S
C371 C370 1.516 . S
C371 C372 1.502 . S
C371 C373 1.561 . S
C371 C374 1.526 . S
C372 H356 0.959 . S
C372 H357 0.959 . S
C372 H358 0.961 . S
C372 C371 1.502 . S
C373 H359 0.960 . S
C373 H360 0.961 . S
C373 H361 0.959 . S
C373 C371 1.561 . S
C374 C371 1.526 . S
C374 C375 1.396 . S
C374 C379 1.390 . S
C375 C369 1.465 . S
C375 C374 1.396 . S
C375 C376 1.399 . S
C376 H362 0.929 . S
C376 C375 1.399 . S
C376 C377 1.385 . S
C377 H363 0.931 . S
C377 C376 1.385 . S
C377 C378 1.389 . S
C378 C377 1.389 . S
C378 C379 1.387 . S
C379 H364 0.936 . S
C379 C374 1.390 . S
C379 C378 1.387 . S
H380 C392 0.930 . S
H381 C394 0.930 . S
H382 C395 0.930 . S
H383 C399 0.959 . S
H384 C399 0.959 . S
H385 C399 0.961 . S
H386 C400 0.960 . S
H387 C400 0.961 . S
H388 C400 0.959 . S
H389 C403 0.929 . S
H390 C404 0.931 . S
H391 C406 0.930 . S
C392 H380 0.930 . S
C392 C393 1.399 . S
C392 C397 1.399 1_455 S
C393 C392 1.399 . S
C393 C394 1.376 . S
C394 H381 0.930 . S
C394 C393 1.376 . S
C394 C395 1.388 1_455 S
C395 H382 0.930 . S
C395 C394 1.388 1_655 S
C395 C396 1.390 . S
C396 C395 1.390 . S
C396 C397 1.394 . S
C396 C402 1.465 . S
C397 C392 1.399 1_655 S
C397 C396 1.394 . S
C397 C398 1.516 . S
C398 C397 1.516 . S
C398 C399 1.502 . S
C398 C400 1.561 . S
C398 C401 1.526 . S
C399 H383 0.959 . S
C399 H384 0.959 . S
C399 H385 0.961 . S
C399 C398 1.502 . S
C400 H386 0.960 . S
C400 H387 0.961 . S
C400 H388 0.959 . S
C400 C398 1.561 . S
C401 C398 1.526 . S
C401 C402 1.396 . S
C401 C406 1.390 . S
C402 C396 1.465 . S
C402 C401 1.396 . S
C402 C403 1.399 . S
C403 H389 0.929 . S
C403 C402 1.399 . S
C403 C404 1.385 . S
C404 H390 0.931 . S
C404 C403 1.385 . S
C404 C405 1.389 . S
C405 C404 1.389 . S
C405 C406 1.387 . S
C406 H391 0.930 . S
C406 C401 1.390 . S
C406 C405 1.387 . S
H407 C419 0.930 . S
H408 C421 0.930 . S
H409 C422 0.930 . S
H410 C426 0.959 . S
H411 C426 0.959 . S
H412 C426 0.961 . S
H413 C427 0.960 . S
H414 C427 0.961 . S
H415 C427 0.959 . S
H416 C430 0.929 . S
H417 C431 0.931 . S
H418 C433 0.930 . S
C419 H407 0.930 . S
C419 C420 1.399 . S
C419 C424 1.399 . S
C420 C419 1.399 . S
C420 C421 1.376 . S
C421 H408 0.930 . S
C421 C420 1.376 . S
C421 C422 1.388 . S
C422 H409 0.930 . S
C422 C421 1.388 . S
C422 C423 1.390 . S
C423 C422 1.390 . S
C423 C424 1.394 . S
C423 C429 1.465 . S
C424 C419 1.399 . S
C424 C423 1.394 . S
C424 C425 1.516 . S
C425 C424 1.516 . S
C425 C426 1.502 . S
C425 C427 1.561 . S
C425 C428 1.526 . S
C426 H410 0.959 . S
C426 H411 0.959 . S
C426 H412 0.961 . S
C426 C425 1.502 . S
C427 H413 0.960 . S
C427 H414 0.961 . S
C427 H415 0.959 . S
C427 C425 1.561 . S
C428 C425 1.526 . S
C428 C429 1.396 . S
C428 C433 1.390 . S
C429 C423 1.465 . S
C429 C428 1.396 . S
C429 C430 1.399 . S
C430 H416 0.929 . S
C430 C429 1.399 . S
C430 C431 1.385 . S
C431 H417 0.931 . S
C431 C430 1.385 . S
C431 C432 1.389 . S
C432 C431 1.389 . S
C432 C433 1.387 . S
C433 H418 0.930 . S
C433 C428 1.390 . S
C433 C432 1.387 . S
H434 C446 0.930 . S
H435 C448 0.930 . S
H436 C449 0.930 . S
H437 C453 0.959 . S
H438 C453 0.959 . S
H439 C453 0.961 . S
H440 C454 0.960 . S
H441 C454 0.961 . S
H442 C454 0.959 . S
H443 C457 0.929 . S
H444 C458 0.931 . S
H445 C460 0.930 . S
C446 H434 0.930 . S
C446 C447 1.399 . S
C446 C451 1.399 . S
C447 C446 1.399 . S
C447 C448 1.376 . S
C448 H435 0.930 . S
C448 C447 1.376 . S
C448 C449 1.388 . S
C449 H436 0.930 . S
C449 C448 1.388 . S
C449 C450 1.390 . S
C450 C449 1.390 . S
C450 C451 1.394 . S
C450 C456 1.465 . S
C451 C446 1.399 . S
C451 C450 1.394 . S
C451 C452 1.516 . S
C452 C451 1.516 . S
C452 C453 1.502 . S
C452 C454 1.561 . S
C452 C455 1.526 . S
C453 H437 0.959 . S
C453 H438 0.959 . S
C453 H439 0.961 . S
C453 C452 1.502 . S
C454 H440 0.960 . S
C454 H441 0.961 . S
C454 H442 0.959 . S
C454 C452 1.561 . S
C455 C452 1.526 . S
C455 C456 1.396 . S
C455 C460 1.390 . S
C456 C450 1.465 . S
C456 C455 1.396 . S
C456 C457 1.399 . S
C457 H443 0.929 . S
C457 C456 1.399 . S
C457 C458 1.385 . S
C458 H444 0.931 . S
C458 C457 1.385 . S
C458 C459 1.389 . S
C459 C458 1.389 . S
C459 C460 1.387 . S
C460 H445 0.930 . S
C460 C455 1.390 . S
C460 C459 1.387 . S
H461 C473 0.930 . S
H462 C475 0.930 . S
H463 C476 0.930 . S
H464 C480 0.959 . S
H465 C480 0.959 . S
H466 C480 0.961 . S
H467 C481 0.960 . S
H468 C481 0.961 . S
H469 C481 0.959 . S
H470 C484 0.929 . S
H471 C485 0.931 . S
H472 C487 0.930 . S
C473 H461 0.930 . S
C473 C474 1.399 . S
C473 C478 1.399 . S
C474 C473 1.399 . S
C474 C475 1.376 . S
C475 H462 0.930 . S
C475 C474 1.376 . S
C475 C476 1.388 . S
C476 H463 0.930 . S
C476 C475 1.388 . S
C476 C477 1.390 . S
C477 C476 1.390 . S
C477 C478 1.394 . S
C477 C483 1.465 . S
C478 C473 1.399 . S
C478 C477 1.394 . S
C478 C479 1.516 . S
C479 C478 1.516 . S
C479 C480 1.502 . S
C479 C481 1.561 . S
C479 C482 1.526 . S
C480 H464 0.959 . S
C480 H465 0.959 . S
C480 H466 0.961 . S
C480 C479 1.502 . S
C481 H467 0.960 . S
C481 H468 0.961 . S
C481 H469 0.959 . S
C481 C479 1.561 . S
C482 C479 1.526 . S
C482 C483 1.396 . S
C482 C487 1.390 . S
C483 C477 1.465 . S
C483 C482 1.396 . S
C483 C484 1.399 . S
C484 H470 0.929 . S
C484 C483 1.399 . S
C484 C485 1.385 . S
C485 H471 0.931 . S
C485 C484 1.385 . S
C485 C486 1.389 . S
C486 C485 1.389 . S
C486 C487 1.387 . S
C487 H472 0.930 . S
C487 C482 1.390 . S
C487 C486 1.387 . S
H488 C500 0.930 . S
H489 C502 0.930 . S
H490 C503 0.930 . S
H491 C507 0.959 . S
H492 C507 0.959 . S
H493 C507 0.961 . S
H494 C508 0.960 . S
H495 C508 0.961 . S
H496 C508 0.959 . S
H497 C511 0.929 . S
H498 C512 0.931 . S
H499 C514 0.930 . S
C500 H488 0.930 . S
C500 C501 1.399 . S
C500 C505 1.399 . S
C501 C500 1.399 . S
C501 C502 1.376 . S
C502 H489 0.930 . S
C502 C501 1.376 . S
C502 C503 1.388 . S
C503 H490 0.930 . S
C503 C502 1.388 . S
C503 C504 1.390 . S
C504 C503 1.390 . S
C504 C505 1.394 . S
C504 C510 1.465 . S
C505 C500 1.399 . S
C505 C504 1.394 . S
C505 C506 1.516 . S
C506 C505 1.516 . S
C506 C507 1.502 . S
C506 C508 1.561 . S
C506 C509 1.526 . S
C507 H491 0.959 . S
C507 H492 0.959 . S
C507 H493 0.961 . S
C507 C506 1.502 . S
C508 H494 0.960 . S
C508 H495 0.961 . S
C508 H496 0.959 . S
C508 C506 1.561 . S
C509 C506 1.526 . S
C509 C510 1.396 . S
C509 C514 1.390 . S
C510 C504 1.465 . S
C510 C509 1.396 . S
C510 C511 1.399 . S
C511 H497 0.929 . S
C511 C510 1.399 . S
C511 C512 1.385 . S
C512 H498 0.931 . S
C512 C511 1.385 . S
C512 C513 1.389 . S
C513 C512 1.389 . S
C513 C514 1.387 . S
C514 H499 0.930 . S
C514 C509 1.390 . S
C514 C513 1.387 . S
H515 C527 0.930 . S
H516 C529 0.930 . S
H517 C530 0.930 . S
H518 C534 0.959 . S
H519 C534 0.959 . S
H520 C534 0.961 . S
H521 C535 0.960 . S
H522 C535 0.961 . S
H523 C535 0.959 . S
H524 C538 0.929 . S
H525 C539 0.931 . S
H526 C541 0.930 . S
C527 H515 0.930 . S
C527 C528 1.399 . S
C527 C532 1.399 . S
C528 C527 1.399 . S
C528 C529 1.376 . S
C529 H516 0.930 . S
C529 C528 1.376 . S
C529 C530 1.388 . S
C530 H517 0.930 . S
C530 C529 1.388 . S
C530 C531 1.390 . S
C531 C530 1.390 . S
C531 C532 1.394 . S
C531 C537 1.465 . S
C532 C527 1.399 . S
C532 C531 1.394 . S
C532 C533 1.516 . S
C533 C532 1.516 . S
C533 C534 1.502 . S
C533 C535 1.561 . S
C533 C536 1.526 . S
C534 H518 0.959 . S
C534 H519 0.959 . S
C534 H520 0.961 . S
C534 C533 1.502 . S
C535 H521 0.960 . S
C535 H522 0.961 . S
C535 H523 0.959 . S
C535 C533 1.561 . S
C536 C533 1.526 . S
C536 C537 1.396 . S
C536 C541 1.390 . S
C537 C531 1.465 . S
C537 C536 1.396 . S
C537 C538 1.399 . S
C538 H524 0.929 . S
C538 C537 1.399 . S
C538 C539 1.385 . S
C539 H525 0.931 . S
C539 C538 1.385 . S
C539 C540 1.389 . S
C540 C539 1.389 . S
C540 C541 1.387 . S
C541 H526 0.930 . S
C541 C536 1.390 . S
C541 C540 1.387 . S
H542 C554 0.930 . S
H543 C556 0.930 . S
H544 C557 0.930 . S
H545 C561 0.959 . S
H546 C561 0.959 . S
H547 C561 0.961 . S
H548 C562 0.960 . S
H549 C562 0.961 . S
H550 C562 0.959 . S
H551 C565 0.929 . S
H552 C566 0.931 . S
H553 C568 0.930 . S
C554 H542 0.930 . S
C554 C555 1.399 . S
C554 C559 1.399 1_556 S
C555 C554 1.399 . S
C555 C556 1.376 . S
C556 H543 0.930 . S
C556 C555 1.376 . S
C556 C557 1.386 1_556 S
C557 H544 0.930 . S
C557 C556 1.386 1_554 S
C557 C558 1.392 . S
C558 C557 1.392 . S
C558 C559 1.394 . S
C558 C564 1.465 . S
C559 C554 1.399 1_554 S
C559 C558 1.394 . S
C559 C560 1.516 . S
C560 C559 1.516 . S
C560 C561 1.502 . S
C560 C562 1.561 . S
C560 C563 1.526 . S
C561 H545 0.959 . S
C561 H546 0.959 . S
C561 H547 0.961 . S
C561 C560 1.502 . S
C562 H548 0.960 . S
C562 H549 0.961 . S
C562 H550 0.959 . S
C562 C560 1.561 . S
C563 C560 1.526 . S
C563 C564 1.396 . S
C563 C568 1.390 . S
C564 C558 1.465 . S
C564 C563 1.396 . S
C564 C565 1.399 . S
C565 H551 0.929 . S
C565 C564 1.399 . S
C565 C566 1.385 . S
C566 H552 0.931 . S
C566 C565 1.385 . S
C566 C567 1.389 . S
C567 C566 1.389 . S
C567 C568 1.387 . S
C568 H553 0.930 . S
C568 C563 1.390 . S
C568 C567 1.387 . S
H569 C581 0.930 . S
H570 C583 0.930 . S
H571 C584 0.930 . S
H572 C588 0.959 . S
H573 C588 0.959 . S
H574 C588 0.961 . S
H575 C589 0.960 . S
H576 C589 0.961 . S
H577 C589 0.959 . S
H578 C592 0.929 . S
H579 C593 0.931 . S
H580 C595 0.930 . S
C581 H569 0.930 . S
C581 C582 1.399 . S
C581 C586 1.399 . S
C582 C581 1.399 . S
C582 C583 1.376 . S
C583 H570 0.930 . S
C583 C582 1.376 . S
C583 C584 1.388 . S
C584 H571 0.930 . S
C584 C583 1.388 . S
C584 C585 1.390 . S
C585 C584 1.390 . S
C585 C586 1.394 . S
C585 C591 1.465 . S
C586 C581 1.399 . S
C586 C585 1.394 . S
C586 C587 1.516 . S
C587 C586 1.516 . S
C587 C588 1.502 . S
C587 C589 1.561 . S
C587 C590 1.526 . S
C588 H572 0.959 . S
C588 H573 0.959 . S
C588 H574 0.961 . S
C588 C587 1.502 . S
C589 H575 0.960 . S
C589 H576 0.961 . S
C589 H577 0.959 . S
C589 C587 1.561 . S
C590 C587 1.526 . S
C590 C591 1.396 . S
C590 C595 1.390 . S
C591 C585 1.465 . S
C591 C590 1.396 . S
C591 C592 1.399 . S
C592 H578 0.929 . S
C592 C591 1.399 . S
C592 C593 1.385 . S
C593 H579 0.931 . S
C593 C592 1.385 . S
C593 C594 1.389 . S
C594 C593 1.389 . S
C594 C595 1.387 . S
C595 H580 0.930 . S
C595 C590 1.390 . S
C595 C594 1.387 . S
H596 C608 0.930 . S
H597 C610 0.930 . S
H598 C611 0.930 . S
H599 C615 0.959 . S
H600 C615 0.959 . S
H601 C615 0.961 . S
H602 C616 0.960 . S
H603 C616 0.961 . S
H604 C616 0.959 . S
H605 C619 0.929 . S
H606 C620 0.931 . S
H607 C622 0.930 . S
C608 H596 0.930 . S
C608 C609 1.399 . S
C608 C613 1.399 . S
C609 C608 1.399 . S
C609 C610 1.376 . S
C610 H597 0.930 . S
C610 C609 1.376 . S
C610 C611 1.388 . S
C611 H598 0.930 . S
C611 C610 1.388 . S
C611 C612 1.390 . S
C612 C611 1.390 . S
C612 C613 1.394 . S
C612 C618 1.465 . S
C613 C608 1.399 . S
C613 C612 1.394 . S
C613 C614 1.516 . S
C614 C613 1.516 . S
C614 C615 1.502 . S
C614 C616 1.561 . S
C614 C617 1.526 . S
C615 H599 0.959 . S
C615 H600 0.959 . S
C615 H601 0.961 . S
C615 C614 1.502 . S
C616 H602 0.960 . S
C616 H603 0.961 . S
C616 H604 0.959 . S
C616 C614 1.561 . S
C617 C614 1.526 . S
C617 C618 1.396 . S
C617 C622 1.390 . S
C618 C612 1.465 . S
C618 C617 1.396 . S
C618 C619 1.399 . S
C619 H605 0.929 . S
C619 C618 1.399 . S
C619 C620 1.385 . S
C620 H606 0.931 . S
C620 C619 1.385 . S
C620 C621 1.389 . S
C621 C620 1.389 . S
C621 C622 1.387 . S
C622 H607 0.930 . S
C622 C617 1.390 . S
C622 C621 1.387 . S
H623 C635 0.930 . S
H624 C637 0.930 . S
H625 C638 0.930 . S
H626 C642 0.959 . S
H627 C642 0.959 . S
H628 C642 0.961 . S
H629 C643 0.960 . S
H630 C643 0.961 . S
H631 C643 0.959 . S
H632 C646 0.929 . S
H633 C647 0.931 . S
H634 C649 0.930 . S
C635 H623 0.930 . S
C635 C636 1.399 . S
C635 C640 1.399 . S
C636 C635 1.399 . S
C636 C637 1.376 . S
C637 H624 0.930 . S
C637 C636 1.376 . S
C637 C638 1.388 . S
C638 H625 0.930 . S
C638 C637 1.388 . S
C638 C639 1.390 . S
C639 C638 1.390 . S
C639 C640 1.394 . S
C639 C645 1.465 . S
C640 C635 1.399 . S
C640 C639 1.394 . S
C640 C641 1.516 . S
C641 C640 1.516 . S
C641 C642 1.502 . S
C641 C643 1.561 . S
C641 C644 1.526 . S
C642 H626 0.959 . S
C642 H627 0.959 . S
C642 H628 0.961 . S
C642 C641 1.502 . S
C643 H629 0.960 . S
C643 H630 0.961 . S
C643 H631 0.959 . S
C643 C641 1.561 . S
C644 C641 1.526 . S
C644 C645 1.396 . S
C644 C649 1.390 . S
C645 C639 1.465 . S
C645 C644 1.396 . S
C645 C646 1.399 . S
C646 H632 0.929 . S
C646 C645 1.399 . S
C646 C647 1.385 . S
C647 H633 0.931 . S
C647 C646 1.385 . S
C647 C648 1.389 . S
C648 C647 1.389 . S
C648 C649 1.387 . S
C649 H634 0.930 . S
C649 C644 1.390 . S
C649 C648 1.387 . S
H650 C662 0.930 . S
H651 C664 0.930 . S
H652 C665 0.930 . S
H653 C669 0.959 . S
H654 C669 0.959 . S
H655 C669 0.961 . S
H656 C670 0.960 . S
H657 C670 0.961 . S
H658 C670 0.959 . S
H659 C673 0.929 . S
H660 C674 0.931 . S
H661 C676 0.930 . S
C662 H650 0.930 . S
C662 C663 1.399 . S
C662 C667 1.399 . S
C663 C662 1.399 . S
C663 C664 1.376 . S
C664 H651 0.930 . S
C664 C663 1.376 . S
C664 C665 1.388 . S
C665 H652 0.930 . S
C665 C664 1.388 . S
C665 C666 1.390 . S
C666 C665 1.390 . S
C666 C667 1.394 . S
C666 C672 1.465 . S
C667 C662 1.399 . S
C667 C666 1.394 . S
C667 C668 1.516 . S
C668 C667 1.516 . S
C668 C669 1.502 . S
C668 C670 1.561 . S
C668 C671 1.526 . S
C669 H653 0.959 . S
C669 H654 0.959 . S
C669 H655 0.961 . S
C669 C668 1.502 . S
C670 H656 0.960 . S
C670 H657 0.961 . S
C670 H658 0.959 . S
C670 C668 1.561 . S
C671 C668 1.526 . S
C671 C672 1.396 . S
C671 C676 1.390 . S
C672 C666 1.465 . S
C672 C671 1.396 . S
C672 C673 1.399 . S
C673 H659 0.929 . S
C673 C672 1.399 . S
C673 C674 1.385 . S
C674 H660 0.931 . S
C674 C673 1.385 . S
C674 C675 1.389 . S
C675 C674 1.389 . S
C675 C676 1.387 . S
C676 H661 0.930 . S
C676 C671 1.390 . S
C676 C675 1.387 . S
H677 C689 0.930 . S
H678 C691 0.930 . S
H679 C692 0.930 . S
H680 C696 0.958 1_556 S
H681 C696 0.955 1_546 S
H682 C696 0.973 . S
H683 C697 0.960 1_554 S
H684 C697 0.961 1_545 S
H685 C697 0.959 . S
H686 C700 0.929 . S
H687 C701 0.931 . S
H688 C703 0.923 1_545 S
C689 H677 0.930 . S
C689 C690 1.399 . S
C689 C694 1.399 1_554 S
C690 C689 1.399 . S
C690 C691 1.376 . S
C691 H678 0.930 . S
C691 C690 1.376 . S
C691 C692 1.388 1_554 S
C692 H679 0.930 . S
C692 C691 1.388 1_556 S
C692 C693 1.390 . S
C693 C692 1.390 . S
C693 C694 1.394 . S
C693 C699 1.465 . S
C694 C689 1.399 1_556 S
C694 C693 1.394 . S
C694 C695 1.516 . S
C695 C694 1.516 . S
C695 C696 1.495 1_556 S
C695 C697 1.561 . S
C695 C698 1.526 . S
C696 H680 0.958 1_554 S
C696 H681 0.955 1_564 S
C696 H682 0.973 . S
C696 C695 1.495 1_554 S
C697 H683 0.960 1_556 S
C697 H684 0.961 1_565 S
C697 H685 0.959 . S
C697 C695 1.561 . S
C698 C695 1.526 . S
C698 C699 1.396 . S
C698 C703 1.390 . S
C699 C693 1.465 . S
C699 C698 1.396 . S
C699 C700 1.399 . S
C700 H686 0.929 . S
C700 C699 1.399 . S
C700 C701 1.385 . S
C701 H687 0.931 . S
C701 C700 1.385 . S
C701 C702 1.389 . S
C702 C701 1.389 . S
C702 C703 1.387 . S
C703 H688 0.923 1_565 S
C703 C698 1.390 . S
C703 C702 1.387 . S
H704 C716 0.930 . S
H705 C718 0.930 . S
H706 C719 0.930 . S
H707 C723 0.959 . S
H708 C723 0.959 . S
H709 C723 0.961 . S
H710 C724 0.960 . S
H711 C724 0.961 . S
H712 C724 0.959 . S
H713 C727 0.929 . S
H714 C728 0.931 . S
H715 C730 0.930 . S
C716 H704 0.930 . S
C716 C717 1.399 . S
C716 C721 1.399 . S
C717 C716 1.399 . S
C717 C718 1.376 . S
C718 H705 0.930 . S
C718 C717 1.376 . S
C718 C719 1.388 . S
C719 H706 0.930 . S
C719 C718 1.388 . S
C719 C720 1.390 . S
C720 C719 1.390 . S
C720 C721 1.394 . S
C720 C726 1.465 . S
C721 C716 1.399 . S
C721 C720 1.394 . S
C721 C722 1.516 . S
C722 C721 1.516 . S
C722 C723 1.502 . S
C722 C724 1.561 . S
C722 C725 1.526 . S
C723 H707 0.959 . S
C723 H708 0.959 . S
C723 H709 0.961 . S
C723 C722 1.502 . S
C724 H710 0.960 . S
C724 H711 0.961 . S
C724 H712 0.959 . S
C724 C722 1.561 . S
C725 C722 1.526 . S
C725 C726 1.396 . S
C725 C730 1.390 . S
C726 C720 1.465 . S
C726 C725 1.396 . S
C726 C727 1.399 . S
C727 H713 0.929 . S
C727 C726 1.399 . S
C727 C728 1.385 . S
C728 H714 0.931 . S
C728 C727 1.385 . S
C728 C729 1.389 . S
C729 C728 1.389 . S
C729 C730 1.387 . S
C730 H715 0.930 . S
C730 C725 1.390 . S
C730 C729 1.387 . S
H731 C743 0.930 . S
H732 C745 0.930 . S
H733 C746 0.930 1_565 S
H734 C750 0.959 . S
H735 C750 0.959 . S
H736 C750 0.961 . S
H737 C751 0.960 . S
H738 C751 0.961 . S
H739 C751 0.959 . S
H740 C754 0.929 . S
H741 C755 0.931 . S
H742 C757 0.930 . S
C743 H731 0.930 . S
C743 C744 1.399 . S
C743 C748 1.399 . S
C744 C743 1.399 . S
C744 C745 1.376 . S
C745 H732 0.930 . S
C745 C744 1.376 . S
C745 C746 1.388 . S
C746 H733 0.930 1_545 S
C746 C745 1.388 . S
C746 C747 1.390 . S
C747 C746 1.390 . S
C747 C748 1.394 . S
C747 C753 1.465 1_545 S
C748 C743 1.399 . S
C748 C747 1.394 . S
C748 C749 1.516 . S
C749 C748 1.516 . S
C749 C750 1.502 . S
C749 C751 1.561 . S
C749 C752 1.526 . S
C750 H734 0.959 . S
C750 H735 0.959 . S
C750 H736 0.961 . S
C750 C749 1.502 . S
C751 H737 0.960 . S
C751 H738 0.961 . S
C751 H739 0.959 . S
C751 C749 1.561 . S
C752 C749 1.526 . S
C752 C753 1.396 1_545 S
C752 C757 1.390 1_545 S
C753 C747 1.465 1_565 S
C753 C752 1.396 1_565 S
C753 C754 1.399 . S
C754 H740 0.929 . S
C754 C753 1.399 . S
C754 C755 1.385 . S
C755 H741 0.931 . S
C755 C754 1.385 . S
C755 C756 1.389 . S
C756 C755 1.389 . S
C756 C757 1.387 . S
C757 H742 0.930 . S
C757 C752 1.390 1_565 S
C757 C756 1.387 . S
H758 C770 0.930 . S
H759 C772 0.930 . S
H760 C773 0.930 . S
H761 C777 0.959 . S
H762 C777 0.959 . S
H763 C777 0.961 . S
H764 C778 0.960 . S
H765 C778 0.961 . S
H766 C778 0.959 . S
H767 C781 0.929 . S
H768 C782 0.931 . S
H769 C784 0.930 . S
C770 H758 0.930 . S
C770 C771 1.399 . S
C770 C775 1.399 . S
C771 C770 1.399 . S
C771 C772 1.376 . S
C772 H759 0.930 . S
C772 C771 1.376 . S
C772 C773 1.388 . S
C773 H760 0.930 . S
C773 C772 1.388 . S
C773 C774 1.390 . S
C774 C773 1.390 . S
C774 C775 1.394 . S
C774 C780 1.465 . S
C775 C770 1.399 . S
C775 C774 1.394 . S
C775 C776 1.516 . S
C776 C775 1.516 . S
C776 C777 1.502 . S
C776 C778 1.561 . S
C776 C779 1.526 . S
C777 H761 0.959 . S
C777 H762 0.959 . S
C777 H763 0.961 . S
C777 C776 1.502 . S
C778 H764 0.960 . S
C778 H765 0.961 . S
C778 H766 0.959 . S
C778 C776 1.561 . S
C779 C776 1.526 . S
C779 C780 1.396 . S
C779 C784 1.390 . S
C780 C774 1.465 . S
C780 C779 1.396 . S
C780 C781 1.399 . S
C781 H767 0.929 . S
C781 C780 1.399 . S
C781 C782 1.385 . S
C782 H768 0.931 . S
C782 C781 1.385 . S
C782 C783 1.389 . S
C783 C782 1.389 . S
C783 C784 1.387 . S
C784 H769 0.930 . S
C784 C779 1.390 . S
C784 C783 1.387 . S
H785 C797 0.930 . S
H786 C799 0.930 . S
H787 C800 0.930 . S
H788 C804 0.959 1_545 S
H789 C804 0.959 . S
H790 C804 0.961 1_545 S
H791 C805 0.960 . S
H792 C805 0.961 . S
H793 C805 0.959 . S
H794 C808 0.931 . S
H795 C809 0.931 . S
H796 C811 0.930 . S
C797 H785 0.930 . S
C797 C798 1.399 . S
C797 C802 1.399 . S
C798 C797 1.399 . S
C798 C799 1.376 . S
C799 H786 0.930 . S
C799 C798 1.376 . S
C799 C800 1.388 . S
C800 H787 0.930 . S
C800 C799 1.388 . S
C800 C801 1.390 . S
C801 C800 1.390 . S
C801 C802 1.394 . S
C801 C807 1.465 . S
C802 C797 1.399 . S
C802 C801 1.394 . S
C802 C803 1.516 1_545 S
C803 C802 1.516 1_565 S
C803 C804 1.502 . S
C803 C805 1.561 . S
C803 C806 1.526 . S
C804 H788 0.959 1_565 S
C804 H789 0.959 . S
C804 H790 0.961 1_565 S
C804 C803 1.502 . S
C805 H791 0.960 . S
C805 H792 0.961 . S
C805 H793 0.959 . S
C805 C803 1.561 . S
C806 C803 1.526 . S
C806 C807 1.396 1_565 S
C806 C811 1.390 . S
C807 C801 1.465 . S
C807 C806 1.396 1_545 S
C807 C808 1.399 . S
C808 H794 0.931 . S
C808 C807 1.399 . S
C808 C809 1.383 1_545 S
C809 H795 0.931 . S
C809 C808 1.383 1_565 S
C809 C810 1.389 . S
C810 C809 1.389 . S
C810 C811 1.387 . S
C811 H796 0.930 . S
C811 C806 1.390 . S
C811 C810 1.387 . S
H812 C824 0.930 . S
H813 C826 0.930 . S
H814 C827 0.930 . S
H815 C831 0.959 . S
H816 C831 0.959 1_455 S
H817 C831 0.961 . S
H818 C832 0.960 . S
H819 C832 0.961 . S
H820 C832 0.959 . S
H821 C835 0.929 . S
H822 C836 0.931 . S
H823 C838 0.930 . S
C824 H812 0.930 . S
C824 C825 1.399 . S
C824 C829 1.399 . S
C825 C824 1.399 . S
C825 C826 1.376 . S
C826 H813 0.930 . S
C826 C825 1.376 . S
C826 C827 1.388 . S
C827 H814 0.930 . S
C827 C826 1.388 . S
C827 C828 1.390 1_655 S
C828 C827 1.390 1_455 S
C828 C829 1.394 1_455 S
C828 C834 1.465 . S
C829 C824 1.399 . S
C829 C828 1.394 1_655 S
C829 C830 1.516 1_655 S
C830 C829 1.516 1_455 S
C830 C831 1.502 1_455 S
C830 C832 1.561 . S
C830 C833 1.526 . S
C831 H815 0.959 . S
C831 H816 0.959 1_655 S
C831 H817 0.961 . S
C831 C830 1.502 1_655 S
C832 H818 0.960 . S
C832 H819 0.961 . S
C832 H820 0.959 . S
C832 C830 1.561 . S
C833 C830 1.526 . S
C833 C834 1.396 . S
C833 C838 1.390 . S
C834 C828 1.465 . S
C834 C833 1.396 . S
C834 C835 1.399 . S
C835 H821 0.929 . S
C835 C834 1.399 . S
C835 C836 1.385 . S
C836 H822 0.931 . S
C836 C835 1.385 . S
C836 C837 1.389 . S
C837 C836 1.389 . S
C837 C838 1.387 . S
C838 H823 0.930 . S
C838 C833 1.390 . S
C838 C837 1.387 . S
H839 C851 0.930 . S
H840 C853 0.930 . S
H841 C854 0.930 . S
H842 C858 0.959 . S
H843 C858 0.959 . S
H844 C858 0.961 . S
H845 C859 0.960 . S
H846 C859 0.961 . S
H847 C859 0.959 . S
H848 C862 0.929 . S
H849 C863 0.931 . S
H850 C865 0.930 . S
C851 H839 0.930 . S
C851 C852 1.399 . S
C851 C856 1.399 . S
C852 C851 1.399 . S
C852 C853 1.376 . S
C853 H840 0.930 . S
C853 C852 1.376 . S
C853 C854 1.388 . S
C854 H841 0.930 . S
C854 C853 1.388 . S
C854 C855 1.390 . S
C855 C854 1.390 . S
C855 C856 1.394 . S
C855 C861 1.465 . S
C856 C851 1.399 . S
C856 C855 1.394 . S
C856 C857 1.516 . S
C857 C856 1.516 . S
C857 C858 1.502 . S
C857 C859 1.561 . S
C857 C860 1.526 . S
C858 H842 0.959 . S
C858 H843 0.959 . S
C858 H844 0.961 . S
C858 C857 1.502 . S
C859 H845 0.960 . S
C859 H846 0.961 . S
C859 H847 0.959 . S
C859 C857 1.561 . S
C860 C857 1.526 . S
C860 C861 1.396 . S
C860 C865 1.390 . S
C861 C855 1.465 . S
C861 C860 1.396 . S
C861 C862 1.399 . S
C862 H848 0.929 . S
C862 C861 1.399 . S
C862 C863 1.385 . S
C863 H849 0.931 . S
C863 C862 1.385 . S
C863 C864 1.389 . S
C864 C863 1.389 . S
C864 C865 1.387 . S
C865 H850 0.930 . S
C865 C860 1.390 . S
C865 C864 1.387 . S
H866 C878 0.930 . S
H867 C880 0.930 . S
H868 C881 0.930 . S
H869 C885 0.959 . S
H870 C885 0.959 . S
H871 C885 0.961 . S
H872 C886 0.960 1_455 S
H873 C886 0.961 . S
H874 C886 0.959 . S
H875 C889 0.929 . S
H876 C890 0.931 . S
H877 C892 0.930 . S
C878 H866 0.930 . S
C878 C879 1.399 . S
C878 C883 1.399 . S
C879 C878 1.399 . S
C879 C880 1.376 . S
C880 H867 0.930 . S
C880 C879 1.376 . S
C880 C881 1.388 . S
C881 H868 0.930 . S
C881 C880 1.388 . S
C881 C882 1.390 . S
C882 C881 1.390 . S
C882 C883 1.394 . S
C882 C888 1.465 1_455 S
C883 C878 1.399 . S
C883 C882 1.394 . S
C883 C884 1.516 . S
C884 C883 1.516 . S
C884 C885 1.502 . S
C884 C886 1.561 1_455 S
C884 C887 1.526 1_455 S
C885 H869 0.959 . S
C885 H870 0.959 . S
C885 H871 0.961 . S
C885 C884 1.502 . S
C886 H872 0.960 1_655 S
C886 H873 0.961 . S
C886 H874 0.959 . S
C886 C884 1.561 1_655 S
C887 C884 1.526 1_655 S
C887 C888 1.396 . S
C887 C892 1.390 . S
C888 C882 1.465 1_655 S
C888 C887 1.396 . S
C888 C889 1.399 . S
C889 H875 0.929 . S
C889 C888 1.399 . S
C889 C890 1.385 . S
C890 H876 0.931 . S
C890 C889 1.385 . S
C890 C891 1.389 . S
C891 C890 1.389 . S
C891 C892 1.387 . S
C892 H877 0.930 . S
C892 C887 1.390 . S
C892 C891 1.387 . S
H893 C905 0.930 . S
H894 C907 0.930 . S
H895 C908 0.930 . S
H896 C912 0.959 . S
H897 C912 0.959 . S
H898 C912 0.961 . S
H899 C913 0.960 . S
H900 C913 0.961 . S
H901 C913 0.959 . S
H902 C916 0.929 . S
H903 C917 0.931 . S
H904 C919 0.930 . S
C905 H893 0.930 . S
C905 C906 1.399 . S
C905 C910 1.399 . S
C906 C905 1.399 . S
C906 C907 1.376 . S
C907 H894 0.930 . S
C907 C906 1.376 . S
C907 C908 1.388 . S
C908 H895 0.930 . S
C908 C907 1.388 . S
C908 C909 1.390 . S
C909 C908 1.390 . S
C909 C910 1.394 . S
C909 C915 1.465 . S
C910 C905 1.399 . S
C910 C909 1.394 . S
C910 C911 1.516 . S
C911 C910 1.516 . S
C911 C912 1.502 . S
C911 C913 1.561 . S
C911 C914 1.526 . S
C912 H896 0.959 . S
C912 H897 0.959 . S
C912 H898 0.961 . S
C912 C911 1.502 . S
C913 H899 0.960 . S
C913 H900 0.961 . S
C913 H901 0.959 . S
C913 C911 1.561 . S
C914 C911 1.526 . S
C914 C915 1.396 . S
C914 C919 1.390 . S
C915 C909 1.465 . S
C915 C914 1.396 . S
C915 C916 1.399 . S
C916 H902 0.929 . S
C916 C915 1.399 . S
C916 C917 1.385 . S
C917 H903 0.931 . S
C917 C916 1.385 . S
C917 C918 1.389 . S
C918 C917 1.389 . S
C918 C919 1.387 . S
C919 H904 0.930 . S
C919 C914 1.390 . S
C919 C918 1.387 . S
H920 C932 0.930 . S
H921 C934 0.930 . S
H922 C935 0.930 . S
H923 C939 0.959 . S
H924 C939 0.959 . S
H925 C939 0.961 . S
H926 C940 0.960 . S
H927 C940 0.961 . S
H928 C940 0.959 . S
H929 C943 0.929 . S
H930 C944 0.931 . S
H931 C946 0.930 . S
C932 H920 0.930 . S
C932 C933 1.399 . S
C932 C937 1.399 . S
C933 C932 1.399 . S
C933 C934 1.376 . S
C934 H921 0.930 . S
C934 C933 1.376 . S
C934 C935 1.388 . S
C935 H922 0.930 . S
C935 C934 1.388 . S
C935 C936 1.390 . S
C936 C935 1.390 . S
C936 C937 1.394 . S
C936 C942 1.465 . S
C937 C932 1.399 . S
C937 C936 1.394 . S
C937 C938 1.516 . S
C938 C937 1.516 . S
C938 C939 1.502 . S
C938 C940 1.561 . S
C938 C941 1.526 . S
C939 H923 0.959 . S
C939 H924 0.959 . S
C939 H925 0.961 . S
C939 C938 1.502 . S
C940 H926 0.960 . S
C940 H927 0.961 . S
C940 H928 0.959 . S
C940 C938 1.561 . S
C941 C938 1.526 . S
C941 C942 1.396 . S
C941 C946 1.390 . S
C942 C936 1.465 . S
C942 C941 1.396 . S
C942 C943 1.399 . S
C943 H929 0.929 . S
C943 C942 1.399 . S
C943 C944 1.385 . S
C944 H930 0.931 . S
C944 C943 1.385 . S
C944 C945 1.389 . S
C945 C944 1.389 . S
C945 C946 1.387 . S
C946 H931 0.930 . S
C946 C941 1.390 . S
C946 C945 1.387 . S
H947 C959 0.930 . S
H948 C961 0.930 . S
H949 C962 0.930 . S
H950 C966 0.959 . S
H951 C966 0.959 1_655 S
H952 C966 0.961 . S
H953 C967 0.960 1_545 S
H954 C967 0.961 . S
H955 C967 0.959 1_545 S
H956 C970 0.929 . S
H957 C971 0.931 . S
H958 C973 0.930 . S
C959 H947 0.930 . S
C959 C960 1.399 . S
C959 C964 1.399 . S
C960 C959 1.399 . S
C960 C961 1.376 . S
C961 H948 0.930 . S
C961 C960 1.376 . S
C961 C962 1.388 . S
C962 H949 0.930 . S
C962 C961 1.388 . S
C962 C963 1.390 . S
C963 C962 1.390 . S
C963 C964 1.394 . S
C963 C969 1.465 . S
C964 C959 1.399 . S
C964 C963 1.394 . S
C964 C965 1.516 . S
C965 C964 1.516 . S
C965 C966 1.502 . S
C965 C967 1.561 . S
C965 C968 1.526 . S
C966 H950 0.959 . S
C966 H951 0.959 1_455 S
C966 H952 0.961 . S
C966 C965 1.502 . S
C967 H953 0.960 1_565 S
C967 H954 0.961 . S
C967 H955 0.959 1_565 S
C967 C965 1.561 . S
C968 C965 1.526 . S
C968 C969 1.396 . S
C968 C973 1.390 . S
C969 C963 1.465 . S
C969 C968 1.396 . S
C969 C970 1.399 . S
C970 H956 0.929 . S
C970 C969 1.399 . S
C970 C971 1.385 . S
C971 H957 0.931 . S
C971 C970 1.385 . S
C971 C972 1.389 . S
C972 C971 1.389 . S
C972 C973 1.387 . S
C973 H958 0.930 . S
C973 C968 1.390 . S
C973 C972 1.387 . S
H974 C986 0.930 . S
H975 C988 0.930 . S
H976 C989 0.930 . S
H977 C993 0.959 . S
H978 C993 0.959 . S
H979 C993 0.961 . S
H980 C994 0.960 . S
H981 C994 0.961 . S
H982 C994 0.959 . S
H983 C997 0.909 1_554 S
H984 C998 0.931 . S
H985 C1000 0.930 . S
C986 H974 0.930 . S
C986 C987 1.399 . S
C986 C991 1.399 . S
C987 C986 1.399 . S
C987 C988 1.376 . S
C988 H975 0.930 . S
C988 C987 1.376 . S
C988 C989 1.388 . S
C989 H976 0.930 . S
C989 C988 1.388 . S
C989 C990 1.390 . S
C990 C989 1.390 . S
C990 C991 1.394 . S
C990 C996 1.465 1_554 S
C991 C986 1.399 . S
C991 C990 1.394 . S
C991 C992 1.516 1_554 S
C992 C991 1.516 1_556 S
C992 C993 1.502 . S
C992 C994 1.561 . S
C992 C995 1.526 . S
C993 H977 0.959 . S
C993 H978 0.959 . S
C993 H979 0.961 . S
C993 C992 1.502 . S
C994 H980 0.960 . S
C994 H981 0.961 . S
C994 H982 0.959 . S
C994 C992 1.561 . S
C995 C992 1.526 . S
C995 C996 1.396 . S
C995 C1000 1.390 . S
C996 C990 1.465 1_556 S
C996 C995 1.396 . S
C996 C997 1.399 . S
C997 H983 0.909 1_556 S
C997 C996 1.399 . S
C997 C998 1.385 . S
C998 H984 0.931 . S
C998 C997 1.385 . S
C998 C999 1.389 . S
C999 C998 1.389 . S
C999 C1000 1.387 . S
C1000 H985 0.930 . S
C1000 C995 1.390 . S
C1000 C999 1.387 . S
H1001 C1013 0.930 1_455 S
H1002 C1015 0.930 . S
H1003 C1016 0.930 . S
H1004 C1020 0.959 . S
H1005 C1020 0.959 . S
H1006 C1020 0.961 . S
H1007 C1021 0.960 1_455 S
H1008 C1021 0.961 . S
H1009 C1021 0.959 . S
H1010 C1024 0.929 . S
H1011 C1025 0.931 . S
H1012 C1027 0.930 . S
C1013 H1001 0.930 1_655 S
C1013 C1014 1.399 . S
C1013 C1018 1.399 . S
C1014 C1013 1.399 . S
C1014 C1015 1.376 . S
C1015 H1002 0.930 . S
C1015 C1014 1.376 . S
C1015 C1016 1.388 . S
C1016 H1003 0.930 . S
C1016 C1015 1.388 . S
C1016 C1017 1.390 . S
C1017 C1016 1.390 . S
C1017 C1018 1.394 . S
C1017 C1023 1.465 . S
C1018 C1013 1.399 . S
C1018 C1017 1.394 . S
C1018 C1019 1.516 . S
C1019 C1018 1.516 . S
C1019 C1020 1.502 1_655 S
C1019 C1021 1.561 . S
C1019 C1022 1.526 . S
C1020 H1004 0.959 . S
C1020 H1005 0.959 . S
C1020 H1006 0.961 . S
C1020 C1019 1.502 1_455 S
C1021 H1007 0.960 1_655 S
C1021 H1008 0.961 . S
C1021 H1009 0.959 . S
C1021 C1019 1.561 . S
C1022 C1019 1.526 . S
C1022 C1023 1.396 . S
C1022 C1027 1.390 . S
C1023 C1017 1.465 . S
C1023 C1022 1.396 . S
C1023 C1024 1.399 . S
C1024 H1010 0.929 . S
C1024 C1023 1.399 . S
C1024 C1025 1.385 . S
C1025 H1011 0.931 . S
C1025 C1024 1.385 . S
C1025 C1026 1.389 . S
C1026 C1025 1.389 . S
C1026 C1027 1.387 . S
C1027 H1012 0.930 . S
C1027 C1022 1.390 . S
C1027 C1026 1.387 . S
C285 C3 1.204 . S
C297 C158 1.435 . S
C312 C192 1.437 . S
C324 C35 1.202 . S
C339 C226 1.396 . S
C351 C69 1.286 . S
C366 C103 1.342 . S
C378 C253 1.368 1_545 S
C393 C15 1.410 . S
C405 C137 1.259 . S
C420 C56 1.389 . S
C432 C171 1.298 . S
C447 C205 1.340 . S
C459 C90 1.369 1_455 S
C474 C124 1.425 . S
C486 C241 1.228 . S
C501 C40 1.385 . S
C513 C6 1.447 . S
C528 C74 1.397 . S
C540 C62 1.434 . S
C555 C96 1.461 . S
C567 C108 1.436 . S
C582 C130 1.433 . S
C594 C28 1.399 . S
C609 C266 1.391 . S
C621 C164 1.438 . S
C636 C198 1.463 . S
C648 C142 1.395 . S
C663 C232 1.431 . S
C675 C176 1.405 . S
C690 C244 1.462 . S
C702 C210 1.394 . S
C717 C153 1.873 . S
C729 C22 1.719 . S
C744 C187 1.875 . S
C756 C49 1.662 . S
C771 C83 1.614 . S
C783 C221 1.883 . S
C798 C117 1.611 . S
C810 C255 1.884 . S
C825 C151 1.623 . S
C837 C17 1.887 . S
C852 C185 1.635 . S
C864 C51 1.887 . S
C879 C219 1.620 . S
C891 C85 1.886 . S
C906 C260 1.710 . S
C918 C119 1.873 . S
C933 C173 2.057 . S
C945 C1 2.103 . S
C960 C207 2.082 . S
C972 C37 2.049 . S
C987 C239 2.065 . S
C999 C71 2.111 . S
C1014 C105 2.048 . S
C1026 C139 2.077 . S
