# Generated by pormake.
# Topology smn, (6)-cn, num edge types: 1
# Building blocks:
#     Node 0, Type 0, BuildingBlock: UKALOJ_clean_sbu_0, # of connection points: 6
#     Node 1, Type 0, BuildingBlock: UKALOJ_clean_sbu_0, # of connection points: 6
#     Node 2, Type 0, BuildingBlock: UKALOJ_clean_sbu_0, # of connection points: 6
#     Node 3, Type 0, BuildingBlock: UKALOJ_clean_sbu_0, # of connection points: 6
#     Node 4, Type 0, BuildingBlock: UKALOJ_clean_sbu_0, # of connection points: 6
#     Node 5, Type 0, BuildingBlock: UKALOJ_clean_sbu_0, # of connection points: 6
#     Node 6, Type 0, BuildingBlock: UKALOJ_clean_sbu_0, # of connection points: 6
#     Node 7, Type 0, BuildingBlock: UKALOJ_clean_sbu_0, # of connection points: 6
#     Node 8, Type 0, BuildingBlock: UKALOJ_clean_sbu_0, # of connection points: 6
#     Node 9, Type 0, BuildingBlock: UKALOJ_clean_sbu_0, # of connection points: 6
#     Node 10, Type 0, BuildingBlock: UKALOJ_clean_sbu_0, # of connection points: 6
#     Node 11, Type 0, BuildingBlock: UKALOJ_clean_sbu_0, # of connection points: 6
#     Node 12, Type 0, BuildingBlock: UKALOJ_clean_sbu_0, # of connection points: 6
#     Node 13, Type 0, BuildingBlock: UKALOJ_clean_sbu_0, # of connection points: 6
#     Node 14, Type 0, BuildingBlock: UKALOJ_clean_sbu_0, # of connection points: 6
#     Node 15, Type 0, BuildingBlock: UKALOJ_clean_sbu_0, # of connection points: 6
#     Node 16, Type 0, BuildingBlock: UKALOJ_clean_sbu_0, # of connection points: 6
#     Node 17, Type 0, BuildingBlock: UKALOJ_clean_sbu_0, # of connection points: 6
#     Edge 18, Type (0, 0), BuildingBlock: OJICUG_clean_linker_0, # of connection points: 2
#     Edge 19, Type (0, 0), BuildingBlock: OJICUG_clean_linker_0, # of connection points: 2
#     Edge 20, Type (0, 0), BuildingBlock: OJICUG_clean_linker_0, # of connection points: 2
#     Edge 21, Type (0, 0), BuildingBlock: OJICUG_clean_linker_0, # of connection points: 2
#     Edge 22, Type (0, 0), BuildingBlock: OJICUG_clean_linker_0, # of connection points: 2
#     Edge 23, Type (0, 0), BuildingBlock: OJICUG_clean_linker_0, # of connection points: 2
#     Edge 24, Type (0, 0), BuildingBlock: OJICUG_clean_linker_0, # of connection points: 2
#     Edge 25, Type (0, 0), BuildingBlock: OJICUG_clean_linker_0, # of connection points: 2
#     Edge 26, Type (0, 0), BuildingBlock: OJICUG_clean_linker_0, # of connection points: 2
#     Edge 27, Type (0, 0), BuildingBlock: OJICUG_clean_linker_0, # of connection points: 2
#     Edge 28, Type (0, 0), BuildingBlock: OJICUG_clean_linker_0, # of connection points: 2
#     Edge 29, Type (0, 0), BuildingBlock: OJICUG_clean_linker_0, # of connection points: 2
#     Edge 30, Type (0, 0), BuildingBlock: OJICUG_clean_linker_0, # of connection points: 2
#     Edge 31, Type (0, 0), BuildingBlock: OJICUG_clean_linker_0, # of connection points: 2
#     Edge 32, Type (0, 0), BuildingBlock: OJICUG_clean_linker_0, # of connection points: 2
#     Edge 33, Type (0, 0), BuildingBlock: OJICUG_clean_linker_0, # of connection points: 2
#     Edge 34, Type (0, 0), BuildingBlock: OJICUG_clean_linker_0, # of connection points: 2
#     Edge 35, Type (0, 0), BuildingBlock: OJICUG_clean_linker_0, # of connection points: 2
#     Edge 36, Type (0, 0), BuildingBlock: OJICUG_clean_linker_0, # of connection points: 2
#     Edge 37, Type (0, 0), BuildingBlock: OJICUG_clean_linker_0, # of connection points: 2
#     Edge 38, Type (0, 0), BuildingBlock: OJICUG_clean_linker_0, # of connection points: 2
#     Edge 39, Type (0, 0), BuildingBlock: OJICUG_clean_linker_0, # of connection points: 2
#     Edge 40, Type (0, 0), BuildingBlock: OJICUG_clean_linker_0, # of connection points: 2
#     Edge 41, Type (0, 0), BuildingBlock: OJICUG_clean_linker_0, # of connection points: 2
#     Edge 42, Type (0, 0), BuildingBlock: OJICUG_clean_linker_0, # of connection points: 2
#     Edge 43, Type (0, 0), BuildingBlock: OJICUG_clean_linker_0, # of connection points: 2
#     Edge 44, Type (0, 0), BuildingBlock: OJICUG_clean_linker_0, # of connection points: 2
#     Edge 45, Type (0, 0), BuildingBlock: OJICUG_clean_linker_0, # of connection points: 2
#     Edge 46, Type (0, 0), BuildingBlock: OJICUG_clean_linker_0, # of connection points: 2
#     Edge 47, Type (0, 0), BuildingBlock: OJICUG_clean_linker_0, # of connection points: 2
#     Edge 48, Type (0, 0), BuildingBlock: OJICUG_clean_linker_0, # of connection points: 2
#     Edge 49, Type (0, 0), BuildingBlock: OJICUG_clean_linker_0, # of connection points: 2
#     Edge 50, Type (0, 0), BuildingBlock: OJICUG_clean_linker_0, # of connection points: 2
#     Edge 51, Type (0, 0), BuildingBlock: OJICUG_clean_linker_0, # of connection points: 2
#     Edge 52, Type (0, 0), BuildingBlock: OJICUG_clean_linker_0, # of connection points: 2
#     Edge 53, Type (0, 0), BuildingBlock: OJICUG_clean_linker_0, # of connection points: 2
#     Edge 54, Type (0, 0), BuildingBlock: OJICUG_clean_linker_0, # of connection points: 2
#     Edge 55, Type (0, 0), BuildingBlock: OJICUG_clean_linker_0, # of connection points: 2
#     Edge 56, Type (0, 0), BuildingBlock: OJICUG_clean_linker_0, # of connection points: 2
#     Edge 57, Type (0, 0), BuildingBlock: OJICUG_clean_linker_0, # of connection points: 2
#     Edge 58, Type (0, 0), BuildingBlock: OJICUG_clean_linker_0, # of connection points: 2
#     Edge 59, Type (0, 0), BuildingBlock: OJICUG_clean_linker_0, # of connection points: 2
#     Edge 60, Type (0, 0), BuildingBlock: OJICUG_clean_linker_0, # of connection points: 2
#     Edge 61, Type (0, 0), BuildingBlock: OJICUG_clean_linker_0, # of connection points: 2
#     Edge 62, Type (0, 0), BuildingBlock: OJICUG_clean_linker_0, # of connection points: 2
#     Edge 63, Type (0, 0), BuildingBlock: OJICUG_clean_linker_0, # of connection points: 2
#     Edge 64, Type (0, 0), BuildingBlock: OJICUG_clean_linker_0, # of connection points: 2
#     Edge 65, Type (0, 0), BuildingBlock: OJICUG_clean_linker_0, # of connection points: 2
#     Edge 66, Type (0, 0), BuildingBlock: OJICUG_clean_linker_0, # of connection points: 2
#     Edge 67, Type (0, 0), BuildingBlock: OJICUG_clean_linker_0, # of connection points: 2
#     Edge 68, Type (0, 0), BuildingBlock: OJICUG_clean_linker_0, # of connection points: 2
#     Edge 69, Type (0, 0), BuildingBlock: OJICUG_clean_linker_0, # of connection points: 2
#     Edge 70, Type (0, 0), BuildingBlock: OJICUG_clean_linker_0, # of connection points: 2
#     Edge 71, Type (0, 0), BuildingBlock: OJICUG_clean_linker_0, # of connection points: 2
# Relax obj value: 0.236
# Max RMSD: 0.266
# Mean RMSD: 0.266
data_MOF--net-smn--node1-UKALOJ_clean_sbu_0--edge1-OJICUG_clean_linker_0
_symmetry_space_group_name_H-M    P1
_symmetry_Int_Tables_number       1
_symmetry_cell_setting            triclinic
loop_
_symmetry_equiv_pos_as_xyz
'x, y, z'
_cell_length_a     48.851961
_cell_length_b     48.771159
_cell_length_c     15.749866
_cell_angle_alpha  89.897576
_cell_angle_beta   89.989373
_cell_angle_gamma 120.05076
loop_
_atom_site_label
_atom_site_type_symbol
_atom_site_fract_x
_atom_site_fract_y
_atom_site_fract_z
_atom_type_partial_charge
Zn0 Zn 0.0052 0.22623 0.69351 0.0
O1 O 0.97415 0.24207 0.74699 0.0
C2 C 0.97854 0.17503 0.82095 0.0
Zn3 Zn 0.0345 0.24151 0.81116 0.0
C4 C 0.9804 0.25349 0.82232 0.0
O5 O 1.00457 0.25637 0.86057 0.0
C6 C 0.06159 0.2168 0.68621 0.0
O7 O 0.06508 0.28848 0.75519 0.0
O8 O 0.03452 0.27089 0.64219 0.0
N9 N 0.05794 0.25045 0.92525 0.0
C10 C 0.08666 0.25409 0.94233 0.0
C11 C 0.05811 0.23397 0.05222 0.0
N12 N 0.04044 0.23832 0.99419 0.0
N13 N 0.08714 0.24297 0.0211 0.0
C14 C 0.95384 0.18575 0.56189 0.0
C15 C 0.98283 0.19508 0.45253 0.0
N16 N 0.98221 0.21125 0.5794 0.0
N17 N 0.99999 0.21721 0.51083 0.0
N18 N 0.95388 0.17447 0.48322 0.0
H19 H 0.92796 0.19516 0.65691 0.0
H20 H 0.90368 0.16634 0.57736 0.0
H21 H 0.92232 0.15601 0.65956 0.0
C22 C 0.92527 0.17525 0.61695 0.0
C23 C 0.11497 0.27272 0.88668 0.0
H24 H 0.11166 0.28956 0.84661 0.0
H25 H 0.1366 0.28595 0.92584 0.0
H26 H 0.1183 0.2567 0.84416 0.0
O27 O 0.06481 0.22667 0.76185 0.0
O28 O 0.03762 0.2126 0.64422 0.0
C29 C 0.05851 0.29288 0.67932 0.0
O30 O 0.97527 0.18107 0.74463 0.0
O31 O 1.00239 0.19539 0.86244 0.0
Zn32 Zn 0.81267 0.79751 0.69669 0.0
O33 O 0.79618 0.75024 0.75099 0.0
C34 C 0.86273 0.82154 0.82738 0.0
Zn35 Zn 0.79716 0.81163 0.81318 0.0
C36 C 0.78401 0.7452 0.82553 0.0
O37 O 0.78094 0.76666 0.86199 0.0
C38 C 0.82376 0.86419 0.69009 0.0
O39 O 0.75122 0.79629 0.754 0.0
O40 O 0.76853 0.78232 0.64238 0.0
N41 N 0.78618 0.82511 0.92479 0.0
C42 C 0.78236 0.85006 0.94202 0.0
C43 C 0.79619 0.83747 0.05723 0.0
N44 N 0.79443 0.81714 0.99683 0.0
N45 N 0.78903 0.85853 0.024 0.0
C46 C 0.8542 0.78646 0.56856 0.0
C47 C 0.84621 0.80669 0.45818 0.0
N48 N 0.8288 0.78968 0.58421 0.0
N49 N 0.82369 0.80186 0.51501 0.0
N50 N 0.86629 0.79793 0.49037 0.0
H51 H 0.8435 0.751 0.66445 0.0
H52 H 0.87249 0.75483 0.58642 0.0
H53 H 0.88286 0.78404 0.66803 0.0
C54 C 0.86378 0.76794 0.62495 0.0
C55 C 0.76974 0.8647 0.88142 0.0
H56 H 0.76368 0.85257 0.81912 0.0
H57 H 0.74809 0.86308 0.90915 0.0
H58 H 0.787 0.89023 0.87417 0.0
O59 O 0.81379 0.85734 0.76557 0.0
O60 O 0.82705 0.84401 0.6471 0.0
C61 C 0.74679 0.78497 0.6787 0.0
O62 O 0.85718 0.81264 0.75072 0.0
O63 O 0.84215 0.82472 0.86864 0.0
Zn64 Zn 0.23111 0.00498 0.81582 0.0
O65 O 0.24868 0.97518 0.76308 0.0
C66 C 0.17963 0.97472 0.68967 0.0
Zn67 Zn 0.24344 0.03326 0.69581 0.0
C68 C 0.2584 0.98088 0.6859 0.0
O69 O 0.25917 1.00404 0.64672 0.0
C70 C 0.21867 0.05986 0.82195 0.0
O71 O 0.29052 0.06537 0.7481 0.0
O72 O 0.27537 0.03637 0.86472 0.0
N73 N 0.2509 0.05592 0.58079 0.0
C74 C 0.25407 0.08444 0.56297 0.0
C75 C 0.23336 0.05519 0.45474 0.0
N76 N 0.23841 0.03797 0.51288 0.0
N77 N 0.24229 0.08435 0.48486 0.0
C78 C 0.19041 0.95469 0.95079 0.0
C79 C 0.2009 0.98427 0.05907 0.0
N80 N 0.21672 0.9824 0.93217 0.0
N81 N 0.22333 1.00055 1.00023 0.0
N82 N 0.17938 0.95556 0.02908 0.0
H83 H 0.19689 0.92777 0.85314 0.0
H84 H 0.1698 0.90436 0.9373 0.0
H85 H 0.15784 0.923 0.85915 0.0
C86 C 0.17814 0.92574 0.89681 0.0
C87 C 0.27274 0.11315 0.61712 0.0
H88 H 0.29024 0.11048 0.65577 0.0
H89 H 0.28519 0.1347 0.57697 0.0
H90 H 0.25689 0.11622 0.66093 0.0
O91 O 0.22773 0.06301 0.74542 0.0
O92 O 0.21562 0.03623 0.86398 0.0
C93 C 0.29624 0.06022 0.82411 0.0
O94 O 0.18705 0.97289 0.76556 0.0
O95 O 0.19738 0.99948 0.64688 0.0
Zn96 Zn 0.03691 0.81162 0.31399 0.0
O97 O 0.06704 0.79549 0.25494 0.0
C98 C 0.06387 0.86446 0.1907 0.0
Zn99 Zn 0.00752 0.79831 0.1971 0.0
C100 C 0.06001 0.78442 0.17939 0.0
O101 O 0.03596 0.78256 0.14314 0.0
C102 C 0.98166 0.82244 0.32781 0.0
O103 O 0.97617 0.75119 0.25056 0.0
O104 O 0.00731 0.76656 0.36264 0.0
N105 N 0.98381 0.7908 0.08459 0.0
C106 C 0.95508 0.78723 0.06863 0.0
C107 C 0.98335 0.80761 0.95838 0.0
N108 N 1.00114 0.80306 0.01549 0.0
N109 N 0.95443 0.79856 0.99033 0.0
C110 C 0.09014 0.84994 0.44327 0.0
C111 C 0.06348 0.83809 0.55795 0.0
N112 N 0.06133 0.82503 0.42609 0.0
N113 N 0.04495 0.81753 0.49785 0.0
N114 N 0.09183 0.85884 0.52485 0.0
H115 H 0.11149 0.85197 0.32087 0.0
H116 H 0.13719 0.8618 0.41146 0.0
H117 H 0.12652 0.88972 0.37615 0.0
C118 C 0.11759 0.86405 0.38322 0.0
C119 C 0.927 0.76873 0.12514 0.0
H120 H 0.9303 0.75171 0.16441 0.0
H121 H 0.90515 0.75567 0.08674 0.0
H122 H 0.92412 0.78485 0.16842 0.0
O123 O 0.97845 0.81388 0.25086 0.0
O124 O 0.00528 0.82528 0.36912 0.0
C125 C 0.98274 0.74559 0.32511 0.0
O126 O 0.06679 0.85735 0.26611 0.0
O127 O 0.04018 0.84468 0.14773 0.0
Zn128 Zn 0.22867 0.2417 0.31407 0.0
O129 O 0.24569 0.28901 0.26126 0.0
C130 C 0.17779 0.21844 0.18612 0.0
Zn131 Zn 0.24349 0.22719 0.19639 0.0
C132 C 0.25723 0.29414 0.18601 0.0
O133 O 0.25947 0.2725 0.14738 0.0
C134 C 0.21768 0.17508 0.32124 0.0
O135 O 0.29003 0.24235 0.25279 0.0
O136 O 0.2729 0.25589 0.36567 0.0
N137 N 0.25207 0.21237 0.08212 0.0
C138 C 0.25506 0.18687 0.06513 0.0
C139 C 0.23535 0.19584 0.95539 0.0
N140 N 0.2402 0.21808 0.01327 0.0
N141 N 0.24376 0.17533 0.98654 0.0
C142 C 0.18871 0.25338 0.44548 0.0
C143 C 0.19716 0.23293 0.55467 0.0
N144 N 0.21387 0.24996 0.42812 0.0
N145 N 0.21929 0.23765 0.49659 0.0
N146 N 0.17708 0.24191 0.52393 0.0
H147 H 0.19916 0.28929 0.35115 0.0
H148 H 0.17038 0.28509 0.43045 0.0
H149 H 0.15976 0.25631 0.34767 0.0
C150 C 0.17898 0.27218 0.39068 0.0
C151 C 0.27326 0.17666 0.12062 0.0
H152 H 0.29035 0.19669 0.16042 0.0
H153 H 0.28612 0.16786 0.08137 0.0
H154 H 0.25704 0.15744 0.1634 0.0
O155 O 0.22758 0.1816 0.2455 0.0
O156 O 0.21394 0.19519 0.36309 0.0
C157 C 0.29452 0.25321 0.32874 0.0
O158 O 0.18386 0.22761 0.26248 0.0
O159 O 0.19779 0.21434 0.14477 0.0
Zn160 Zn 0.79661 0.00445 0.31684 0.0
O161 O 0.74908 0.97455 0.26659 0.0
C162 C 0.81734 0.97414 0.18989 0.0
Zn163 Zn 0.81185 0.03243 0.19636 0.0
C164 C 0.74459 0.97987 0.18954 0.0
O165 O 0.76666 1.00292 0.14916 0.0
C166 C 0.86383 0.05908 0.31999 0.0
O167 O 0.79704 0.06451 0.24925 0.0
O168 O 0.78403 0.03595 0.36656 0.0
N169 N 0.82652 0.05501 0.08103 0.0
C170 C 0.85159 0.08372 0.0631 0.0
C171 C 0.84353 0.0545 0.95509 0.0
N172 N 0.82135 0.03708 0.01325 0.0
N173 N 0.86342 0.08378 0.98507 0.0
C174 C 0.78762 0.95457 0.45184 0.0
C175 C 0.80738 0.98444 0.55935 0.0
N176 N 0.78903 0.98227 0.43324 0.0
N177 N 0.80098 1.00061 0.5008 0.0
N178 N 0.79995 0.95563 0.52961 0.0
H179 H 0.75367 0.92747 0.35542 0.0
H180 H 0.7577 0.90421 0.43941 0.0
H181 H 0.78789 0.92258 0.36006 0.0
C182 C 0.77059 0.92549 0.39846 0.0
C183 C 0.86115 0.1124 0.11701 0.0
H184 H 0.84075 0.10955 0.15486 0.0
H185 H 0.87022 0.13393 0.07677 0.0
H186 H 0.87995 0.11568 0.16157 0.0
O187 O 0.85743 0.06226 0.24401 0.0
O188 O 0.8435 0.03555 0.36271 0.0
C189 C 0.78668 0.05962 0.32576 0.0
O190 O 0.80831 0.97232 0.266 0.0
O191 O 0.82408 0.99879 0.14699 0.0
Zn192 Zn 0.67128 0.56067 0.02444 0.0
O193 O 0.63974 0.57545 0.08203 0.0
C194 C 0.64556 0.50824 0.14856 0.0
Zn195 Zn 0.70003 0.57578 0.14298 0.0
C196 C 0.64561 0.58648 0.15777 0.0
O197 O 0.66965 0.58925 0.19645 0.0
C198 C 0.72905 0.55485 0.01147 0.0
O199 O 0.72987 0.62332 0.0902 0.0
O200 O 0.69988 0.60595 0.97595 0.0
N201 N 0.72358 0.58348 0.257 0.0
C202 C 0.75157 0.58527 0.27317 0.0
C203 C 0.72303 0.56603 0.3834 0.0
N204 N 0.70608 0.57185 0.32621 0.0
N205 N 0.75153 0.5735 0.35124 0.0
C206 C 0.61839 0.52107 0.89551 0.0
C207 C 0.64503 0.53285 0.78078 0.0
N208 N 0.64702 0.54634 0.91221 0.0
N209 N 0.66339 0.55378 0.84042 0.0
N210 N 0.61682 0.51191 0.81425 0.0
H211 H 0.59701 0.51886 0.018 0.0
H212 H 0.57111 0.50832 0.92761 0.0
H213 H 0.58265 0.48108 0.96338 0.0
C214 C 0.59104 0.50663 0.95585 0.0
C215 C 0.77981 0.60198 0.21662 0.0
H216 H 0.7773 0.61883 0.17441 0.0
H217 H 0.80166 0.61498 0.25506 0.0
H218 H 0.78194 0.5844 0.17726 0.0
O219 O 0.73114 0.56333 0.08823 0.0
O220 O 0.70441 0.54872 0.96964 0.0
C221 C 0.72359 0.62791 0.01418 0.0
O222 O 0.64247 0.51473 0.07264 0.0
O223 O 0.66885 0.52877 0.19135 0.0
Zn224 Zn 0.48013 0.13206 0.03043 0.0
O225 O 0.46358 0.08475 0.08446 0.0
C226 C 0.52756 0.15389 0.16704 0.0
Zn227 Zn 0.46272 0.14481 0.14562 0.0
C228 C 0.44956 0.07846 0.15665 0.0
O229 O 0.44489 0.09905 0.1926 0.0
C230 C 0.49118 0.19836 0.02336 0.0
O231 O 0.41824 0.13108 0.08156 0.0
O232 O 0.43612 0.11649 0.97235 0.0
N233 N 0.45066 0.15839 0.25577 0.0
C234 C 0.44797 0.18413 0.27119 0.0
C235 C 0.46031 0.17114 0.38811 0.0
N236 N 0.45801 0.15019 0.32887 0.0
N237 N 0.45449 0.19288 0.35307 0.0
C238 C 0.5249 0.1238 0.90696 0.0
C239 C 0.51351 0.13851 0.79152 0.0
N240 N 0.49797 0.12456 0.92039 0.0
N241 N 0.49085 0.13342 0.84821 0.0
N242 N 0.53575 0.13338 0.82672 0.0
H243 H 0.51975 0.09472 0.01563 0.0
H244 H 0.54805 0.0973 0.93717 0.0
H245 H 0.55757 0.13018 0.00664 0.0
C246 C 0.53831 0.11065 0.97013 0.0
C247 C 0.43581 0.19886 0.20943 0.0
H248 H 0.43076 0.18722 0.14652 0.0
H249 H 0.41356 0.19652 0.235 0.0
H250 H 0.45272 0.22455 0.20412 0.0
O251 O 0.48112 0.19139 0.09886 0.0
O252 O 0.49449 0.17824 0.98028 0.0
C253 C 0.41428 0.11963 0.00654 0.0
O254 O 0.52412 0.14763 0.08861 0.0
O255 O 0.50599 0.15577 0.20683 0.0
Zn256 Zn 0.91611 0.3715 0.01425 0.0
O257 O 0.9621 0.40024 0.07197 0.0
C258 C 0.89334 0.40054 0.14102 0.0
Zn259 Zn 0.8974 0.34182 0.13111 0.0
C260 C 0.96527 0.39314 0.14833 0.0
O261 O 0.94241 0.36932 0.18453 0.0
C262 C 0.84885 0.31799 0.9998 0.0
O263 O 0.9112 0.30913 0.07566 0.0
O264 O 0.92959 0.34082 0.9645 0.0
N265 N 0.87982 0.31688 0.24232 0.0
C266 C 0.85285 0.28914 0.25617 0.0
C267 C 0.86431 0.31545 0.37105 0.0
N268 N 0.88697 0.33299 0.31416 0.0
N269 N 0.842 0.28797 0.33632 0.0
C270 C 0.92597 0.42256 0.88378 0.0
C271 C 0.90867 0.3938 0.7735 0.0
N272 N 0.92624 0.39554 0.90032 0.0
N273 N 0.91587 0.37794 0.831 0.0
N274 N 0.91399 0.42166 0.80558 0.0
H275 H 0.95934 0.44977 0.98127 0.0
H276 H 0.95461 0.47299 0.89844 0.0
H277 H 0.92443 0.45345 0.97726 0.0
C278 C 0.94215 0.45139 0.93846 0.0
C279 C 0.83929 0.2625 0.19332 0.0
H280 H 0.85771 0.26508 0.14763 0.0
H281 H 0.82959 0.23939 0.22656 0.0
H282 H 0.81998 0.26271 0.15695 0.0
O283 O 0.85253 0.31462 0.07769 0.0
O284 O 0.87083 0.34113 0.95988 0.0
C285 C 0.92402 0.31547 0.00184 0.0
O286 O 0.90322 0.40289 0.06557 0.0
O287 O 0.886 0.37555 0.18294 0.0
Zn288 Zn 0.70512 0.14703 0.64048 0.0
O289 O 0.73547 0.1319 0.57931 0.0
C290 C 0.72837 0.19697 0.50735 0.0
Zn291 Zn 0.67401 0.1308 0.52616 0.0
C292 C 0.72748 0.11876 0.50621 0.0
O293 O 0.702 0.1143 0.47219 0.0
C294 C 0.64978 0.15702 0.65754 0.0
O295 O 0.64457 0.08514 0.58898 0.0
O296 O 0.67813 0.10258 0.69582 0.0
N297 N 0.64682 0.11898 0.41757 0.0
C298 C 0.61774 0.11503 0.4046 0.0
C299 C 0.64206 0.12847 0.28651 0.0
N300 N 0.66161 0.12673 0.34358 0.0
N301 N 0.61436 0.12189 0.32281 0.0
C302 C 0.76073 0.1887 0.76238 0.0
C303 C 0.73607 0.17723 0.88006 0.0
N304 N 0.73195 0.1631 0.74914 0.0
N305 N 0.71697 0.1557 0.82285 0.0
N306 N 0.76366 0.19883 0.84406 0.0
H307 H 0.77767 0.19004 0.63432 0.0
H308 H 0.8061 0.19964 0.71582 0.0
H309 H 0.79449 0.22813 0.68789 0.0
C310 C 0.78594 0.20254 0.69565 0.0
C311 C 0.59262 0.10312 0.47166 0.0
H312 H 0.6012 0.09917 0.5329 0.0
H313 H 0.57271 0.07984 0.45172 0.0
H314 H 0.58362 0.11975 0.47951 0.0
O315 O 0.64622 0.148 0.58092 0.0
O316 O 0.67355 0.16003 0.69829 0.0
C317 C 0.65297 0.08078 0.66251 0.0
O318 O 0.73204 0.19206 0.58444 0.0
O319 O 0.70485 0.17559 0.46701 0.0
Zn320 Zn 0.90958 0.5611 0.52243 0.0
O321 O 0.95561 0.57621 0.58174 0.0
C322 C 0.88398 0.50921 0.64807 0.0
Zn323 Zn 0.89456 0.57534 0.63939 0.0
C324 C 0.96049 0.588 0.65658 0.0
O325 O 0.93914 0.59142 0.6926 0.0
C326 C 0.84369 0.5503 0.51023 0.0
O327 O 0.91015 0.62205 0.58306 0.0
O328 O 0.926 0.60612 0.47242 0.0
N329 N 0.87887 0.58456 0.75037 0.0
C330 C 0.85394 0.58859 0.76579 0.0
C331 C 0.86461 0.57329 0.88155 0.0
N332 N 0.8856 0.57534 0.82278 0.0
N333 N 0.84433 0.58119 0.84693 0.0
C334 C 0.92456 0.52255 0.39322 0.0
C335 C 0.91114 0.53546 0.27787 0.0
N336 N 0.9203 0.5472 0.4109 0.0
N337 N 0.9123 0.55537 0.33877 0.0
N338 N 0.91848 0.51451 0.31082 0.0
H339 H 0.94221 0.51925 0.51698 0.0
H340 H 0.95869 0.5095 0.42749 0.0
H341 H 0.91949 0.48197 0.45958 0.0
C342 C 0.93675 0.50759 0.45406 0.0
C343 C 0.84031 0.60197 0.70434 0.0
H344 H 0.85279 0.60792 0.64249 0.0
H345 H 0.84239 0.62387 0.73182 0.0
H346 H 0.81472 0.5852 0.69635 0.0
O347 O 0.84952 0.55881 0.58705 0.0
O348 O 0.86442 0.54794 0.46727 0.0
C349 C 0.92252 0.62735 0.50882 0.0
O350 O 0.89282 0.51556 0.57151 0.0
O351 O 0.88119 0.52959 0.69162 0.0
Zn352 Zn 0.464 0.33866 0.64577 0.0
O353 O 0.41662 0.30751 0.59244 0.0
C354 C 0.48567 0.30953 0.51853 0.0
Zn355 Zn 0.47774 0.36671 0.52463 0.0
C356 C 0.41171 0.31289 0.51567 0.0
O357 O 0.43323 0.33654 0.47584 0.0
C358 C 0.52905 0.39569 0.65104 0.0
O359 O 0.46158 0.39781 0.57833 0.0
O360 O 0.44977 0.36886 0.69494 0.0
N361 N 0.49301 0.38952 0.40846 0.0
C362 C 0.51939 0.41727 0.39037 0.0
C363 C 0.50903 0.38796 0.2816 0.0
N364 N 0.4865 0.37155 0.34009 0.0
N365 N 0.53057 0.41659 0.31205 0.0
C366 C 0.45541 0.28848 0.78093 0.0
C367 C 0.47408 0.31805 0.88936 0.0
N368 N 0.45657 0.31608 0.76219 0.0
N369 N 0.46786 0.33421 0.83035 0.0
N370 N 0.46721 0.28942 0.85946 0.0
H371 H 0.42195 0.26124 0.68399 0.0
H372 H 0.42665 0.23805 0.76675 0.0
H373 H 0.45691 0.25753 0.68788 0.0
C374 C 0.43916 0.2596 0.72661 0.0
C375 C 0.53169 0.446 0.44521 0.0
H376 H 0.51276 0.44403 0.48806 0.0
H377 H 0.54052 0.46761 0.40543 0.0
H378 H 0.55161 0.44823 0.48376 0.0
O379 O 0.52216 0.3975 0.57461 0.0
O380 O 0.51047 0.37142 0.69435 0.0
C381 C 0.45157 0.39239 0.65533 0.0
O382 O 0.47746 0.3078 0.59543 0.0
O383 O 0.49122 0.33383 0.4755 0.0
Zn384 Zn 0.33767 0.89391 0.35764 0.0
O385 O 0.30747 0.90961 0.41906 0.0
C386 C 0.31208 0.84254 0.48594 0.0
Zn387 Zn 0.3678 0.90834 0.47288 0.0
C388 C 0.31546 0.92191 0.49322 0.0
O389 O 0.3405 0.92525 0.52705 0.0
C390 C 0.39223 0.8824 0.34305 0.0
O391 O 0.39874 0.95463 0.41376 0.0
O392 O 0.36602 0.93879 0.30516 0.0
N393 N 0.39378 0.91829 0.58185 0.0
C394 C 0.42287 0.92243 0.5955 0.0
C395 C 0.39828 0.90886 0.71359 0.0
N396 N 0.37868 0.91014 0.65563 0.0
N397 N 0.426 0.91614 0.67701 0.0
C398 C 0.28327 0.85384 0.23175 0.0
C399 C 0.30878 0.8665 0.11507 0.0
N400 N 0.31197 0.87917 0.24756 0.0
N401 N 0.32761 0.88715 0.17457 0.0
N402 N 0.28096 0.8452 0.14974 0.0
H403 H 0.26284 0.85114 0.35593 0.0
H404 H 0.23602 0.83997 0.26743 0.0
H405 H 0.2488 0.81345 0.30083 0.0
C406 C 0.25652 0.83888 0.29381 0.0
C407 C 0.44916 0.935 0.53183 0.0
H408 H 0.44205 0.94059 0.47036 0.0
H409 H 0.46949 0.95696 0.55737 0.0
H410 H 0.45753 0.91789 0.52341 0.0
O411 O 0.39529 0.89097 0.41984 0.0
O412 O 0.36912 0.88034 0.3008 0.0
C413 C 0.39114 0.95995 0.34022 0.0
O414 O 0.30919 0.84859 0.40937 0.0
O415 O 0.33555 0.86306 0.52832 0.0
Zn416 Zn 0.13154 0.47758 0.47601 0.0
O417 O 0.08592 0.46364 0.41529 0.0
C418 C 0.15921 0.5293 0.34901 0.0
Zn419 Zn 0.14556 0.46178 0.35876 0.0
C420 C 0.08116 0.45213 0.34014 0.0
O421 O 0.10226 0.44839 0.30417 0.0
C422 C 0.19465 0.48232 0.4919 0.0
O423 O 0.12741 0.41452 0.41397 0.0
O424 O 0.11361 0.43215 0.52573 0.0
N425 N 0.16128 0.45334 0.24533 0.0
C426 C 0.18807 0.45273 0.22868 0.0
C427 C 0.17688 0.46994 0.11755 0.0
N428 N 0.15425 0.46371 0.17556 0.0
N429 N 0.19898 0.464 0.14965 0.0
C430 C 0.11711 0.51799 0.60172 0.0
C431 C 0.13193 0.50733 0.71789 0.0
N432 N 0.12109 0.4929 0.5873 0.0
N433 N 0.12975 0.48603 0.66013 0.0
N434 N 0.12476 0.5283 0.68319 0.0
H435 H 0.10115 0.51938 0.47408 0.0
H436 H 0.08158 0.52759 0.55662 0.0
H437 H 0.12132 0.55719 0.52889 0.0
C438 C 0.10495 0.53142 0.53595 0.0
C439 C 0.20071 0.43705 0.28529 0.0
H440 H 0.18158 0.41956 0.32696 0.0
H441 H 0.2105 0.42487 0.24699 0.0
H442 H 0.21992 0.45514 0.32506 0.0
O443 O 0.18881 0.47432 0.41468 0.0
O444 O 0.17603 0.4885 0.53315 0.0
C445 C 0.11568 0.41006 0.48905 0.0
O446 O 0.15009 0.5236 0.42551 0.0
O447 O 0.16161 0.50829 0.30768 0.0
Zn448 Zn 0.57689 0.70165 0.36504 0.0
O449 O 0.62358 0.73198 0.42072 0.0
C450 C 0.55451 0.72694 0.5015 0.0
Zn451 Zn 0.56328 0.67086 0.48018 0.0
C452 C 0.62942 0.72393 0.49305 0.0
O453 O 0.6087 0.69847 0.52835 0.0
C454 C 0.5109 0.64685 0.35486 0.0
O455 O 0.57713 0.64018 0.41614 0.0
O456 O 0.59256 0.67305 0.30734 0.0
N457 N 0.54894 0.64431 0.59034 0.0
C458 C 0.52379 0.61526 0.6047 0.0
C459 C 0.53512 0.64021 0.7217 0.0
N460 N 0.55627 0.65949 0.66369 0.0
N461 N 0.51386 0.61231 0.68659 0.0
C462 C 0.58436 0.75439 0.24081 0.0
C463 C 0.57147 0.72839 0.12527 0.0
N464 N 0.58503 0.72739 0.25488 0.0
N465 N 0.5773 0.71149 0.18261 0.0
N466 N 0.57496 0.75522 0.16009 0.0
H467 H 0.61252 0.7792 0.34968 0.0
H468 H 0.60901 0.80418 0.27032 0.0
H469 H 0.57625 0.77991 0.33939 0.0
C470 C 0.59631 0.78101 0.30358 0.0
C471 C 0.50991 0.58981 0.5387 0.0
H472 H 0.52146 0.59824 0.47619 0.0
H473 H 0.51388 0.5702 0.558 0.0
H474 H 0.48411 0.5803 0.53376 0.0
O475 O 0.51704 0.64331 0.4309 0.0
O476 O 0.53143 0.67049 0.31309 0.0
C477 C 0.58897 0.64781 0.34149 0.0
O478 O 0.56117 0.72998 0.42323 0.0
O479 O 0.5523 0.70326 0.5413 0.0
Zn480 Zn 0.36934 0.47846 0.9761 0.0
O481 O 0.40024 0.46289 0.91814 0.0
C482 C 0.39436 0.52641 0.84087 0.0
Zn483 Zn 0.33865 0.46118 0.86217 0.0
C484 C 0.39186 0.44883 0.84611 0.0
O485 O 0.36598 0.44348 0.81295 0.0
C486 C 0.3142 0.48916 0.98661 0.0
O487 O 0.30803 0.41637 0.926 0.0
O488 O 0.34147 0.43393 0.03305 0.0
N489 N 0.31248 0.44942 0.75319 0.0
C490 C 0.28374 0.44612 0.73926 0.0
C491 C 0.3083 0.45871 0.62113 0.0
N492 N 0.32755 0.45693 0.67936 0.0
N493 N 0.28083 0.45239 0.65755 0.0
C494 C 0.4219 0.52319 0.10072 0.0
C495 C 0.39598 0.50932 0.21659 0.0
N496 N 0.39489 0.49563 0.08612 0.0
N497 N 0.37904 0.48699 0.15854 0.0
N498 N 0.42279 0.53286 0.18203 0.0
H499 H 0.44667 0.52058 0.99069 0.0
H500 H 0.47158 0.54879 0.07042 0.0
H501 H 0.44713 0.55743 0.00275 0.0
C502 C 0.4484 0.53834 0.03761 0.0
C503 C 0.25731 0.43381 0.8025 0.0
H504 H 0.26446 0.4291 0.86508 0.0
H505 H 0.23736 0.41133 0.77809 0.0
H506 H 0.24832 0.45052 0.80824 0.0
O507 O 0.31105 0.4796 0.91069 0.0
O508 O 0.33753 0.49205 0.02928 0.0
C509 C 0.31618 0.41215 0.99995 0.0
O510 O 0.39718 0.52292 0.91931 0.0
O511 O 0.37099 0.50471 0.80107 0.0
Zn512 Zn 0.57821 0.89586 0.86382 0.0
O513 O 0.62321 0.90927 0.92742 0.0
C514 C 0.54921 0.84379 0.98861 0.0
Zn515 Zn 0.56378 0.9116 0.98032 0.0
C516 C 0.62765 0.92046 0.00291 0.0
O517 O 0.60649 0.92432 0.03805 0.0
C518 C 0.51552 0.89143 0.84414 0.0
O519 O 0.58281 0.95907 0.9273 0.0
O520 O 0.59672 0.94158 0.81545 0.0
N521 N 0.54718 0.91966 0.0923 0.0
C522 C 0.52024 0.92022 0.10683 0.0
C523 C 0.53013 0.90219 0.2185 0.0
N524 N 0.55341 0.9088 0.1624 0.0
N525 N 0.5084 0.90837 0.18481 0.0
C526 C 0.59349 0.85579 0.73943 0.0
C527 C 0.57972 0.86697 0.62232 0.0
N528 N 0.58964 0.88098 0.75341 0.0
N529 N 0.58165 0.88818 0.68002 0.0
N530 N 0.58642 0.84576 0.65766 0.0
H531 H 0.60817 0.85357 0.8681 0.0
H532 H 0.62845 0.84575 0.78673 0.0
H533 H 0.58847 0.81609 0.8115 0.0
C534 C 0.60493 0.84189 0.80587 0.0
C535 C 0.50835 0.93633 0.04926 0.0
H536 H 0.52782 0.95368 0.00814 0.0
H537 H 0.49862 0.94874 0.08684 0.0
H538 H 0.48927 0.91847 0.00878 0.0
O539 O 0.52114 0.8997 0.92124 0.0
O540 O 0.53427 0.88516 0.80396 0.0
C541 C 0.59488 0.9637 0.8527 0.0
O542 O 0.55903 0.84974 0.91275 0.0
O543 O 0.54679 0.86479 0.0299 0.0
Zn544 Zn 0.14262 0.70092 0.85407 0.0
O545 O 0.12564 0.73006 0.91193 0.0
C546 C 0.19402 0.72972 0.98207 0.0
Zn547 Zn 0.13094 0.67117 0.97138 0.0
C548 C 0.11503 0.72298 0.98807 0.0
O549 O 0.11368 0.69901 0.02446 0.0
C550 C 0.15559 0.64678 0.84021 0.0
O551 O 0.08427 0.63891 0.91488 0.0
O552 O 0.09843 0.67073 0.8037 0.0
N553 N 0.12339 0.64618 0.08317 0.0
C554 C 0.12356 0.61891 0.09759 0.0
C555 C 0.13762 0.6454 0.21226 0.0
N556 N 0.13187 0.66238 0.15493 0.0
N557 N 0.13336 0.61819 0.17794 0.0
C558 C 0.18415 0.75289 0.72438 0.0
C559 C 0.17368 0.72463 0.61343 0.0
N560 N 0.15734 0.72529 0.74036 0.0
N561 N 0.15073 0.708 0.67063 0.0
N562 N 0.19557 0.75272 0.646 0.0
H563 H 0.17697 0.77904 0.82282 0.0
H564 H 0.20523 0.80314 0.74173 0.0
H565 H 0.2158 0.78323 0.81982 0.0
C566 C 0.19615 0.78127 0.78053 0.0
C567 C 0.11099 0.59207 0.0354 0.0
H568 H 0.09481 0.59405 0.98958 0.0
H569 H 0.09812 0.56904 0.06925 0.0
H570 H 0.13072 0.59266 0.99914 0.0
O571 O 0.14834 0.64357 0.91798 0.0
O572 O 0.15708 0.66999 0.79982 0.0
C573 C 0.07816 0.64558 0.84091 0.0
O574 O 0.1869 0.73192 0.90607 0.0
O575 O 0.17612 0.7048 0.024 0.0
C576 C 0.09193 0.22043 0.55422 0.0
C577 C 0.0889 0.2175 0.64298 0.0
H578 H 0.12159 0.22938 0.44642 0.0
C579 C 0.11465 0.22078 0.6907 0.0
H580 H 0.07245 0.21772 0.51527 0.0
C581 C 0.14356 0.22949 0.65162 0.0
C582 C 0.14732 0.23432 0.56332 0.0
H583 H 0.11274 0.21739 0.75875 0.0
H584 H 0.16315 0.23268 0.69081 0.0
C585 C 0.12065 0.22832 0.51479 0.0
C586 C 0.81102 0.93365 0.65787 0.0
C587 C 0.80861 0.93425 0.56913 0.0
H588 H 0.82042 0.91288 0.76533 0.0
C589 C 0.81716 0.91545 0.52051 0.0
H590 H 0.80598 0.94877 0.69725 0.0
C591 C 0.82436 0.89405 0.55966 0.0
C592 C 0.82429 0.89175 0.6485 0.0
H593 H 0.8185 0.91714 0.45229 0.0
H594 H 0.82884 0.87854 0.52021 0.0
C595 C 0.81918 0.91298 0.69692 0.0
C596 C 0.13903 0.94565 0.57508 0.0
C597 C 0.15582 0.94529 0.64701 0.0
H598 H 0.10509 0.91764 0.47904 0.0
C599 C 0.1524 0.91616 0.67399 0.0
H600 H 0.14184 0.96776 0.55125 0.0
C601 C 0.13148 0.88789 0.63379 0.0
C602 C 0.11444 0.88817 0.56325 0.0
H603 H 0.16687 0.91519 0.72418 0.0
H604 H 0.12899 0.86579 0.65665 0.0
C605 C 0.11837 0.91718 0.53355 0.0
C606 C 0.22248 0.11305 0.81886 0.0
C607 C 0.21935 0.08713 0.86594 0.0
H608 H 0.23423 0.16159 0.81954 0.0
C609 C 0.22245 0.09002 0.95472 0.0
H610 H 0.21903 0.11133 0.75088 0.0
C611 C 0.2303 0.11871 0.99468 0.0
C612 C 0.23612 0.14554 0.94672 0.0
H613 H 0.21987 0.07045 0.9933 0.0
H614 H 0.23149 0.11945 0.06302 0.0
C615 C 0.23116 0.14191 0.85843 0.0
C616 C 0.897 0.1048 0.85725 0.0
C617 C 0.89312 0.10618 0.94537 0.0
H618 H 0.92779 0.12349 0.75001 0.0
C619 C 0.91964 0.12748 0.99349 0.0
H620 H 0.87756 0.08794 0.81839 0.0
C621 C 0.94827 0.1486 0.95369 0.0
C622 C 0.95138 0.14834 0.86502 0.0
H623 H 0.91866 0.12794 0.06182 0.0
H624 H 0.9676 0.16582 0.99225 0.0
C625 C 0.92582 0.12526 0.81789 0.0
C626 C 0.91268 0.81929 0.82412 0.0
C627 C 0.8894 0.82129 0.87147 0.0
H628 H 0.95021 0.8088 0.82398 0.0
C629 C 0.88904 0.81771 0.96006 0.0
H630 H 0.91455 0.82328 0.7563 0.0
C631 C 0.91033 0.81045 0.9996 0.0
C632 C 0.93183 0.80563 0.9512 0.0
H633 H 0.87165 0.81949 0.99871 0.0
H634 H 0.90982 0.80893 0.06789 0.0
C635 C 0.93323 0.81107 0.86313 0.0
C636 C 0.92241 0.81011 0.49991 0.0
C637 C 0.89612 0.80537 0.45145 0.0
H638 H 0.97026 0.81949 0.49919 0.0
C639 C 0.90037 0.81126 0.36356 0.0
H640 H 0.92124 0.8082 0.56812 0.0
C641 C 0.92928 0.81988 0.32475 0.0
C642 C 0.95457 0.82187 0.37206 0.0
H643 H 0.88117 0.80903 0.32432 0.0
H644 H 0.93151 0.82415 0.25704 0.0
C645 C 0.95113 0.8178 0.46054 0.0
C646 C 0.22967 0.10525 0.35693 0.0
C647 C 0.23461 0.10647 0.44518 0.0
H648 H 0.21768 0.124 0.24955 0.0
C649 C 0.22876 0.12732 0.49339 0.0
H650 H 0.23272 0.08871 0.31798 0.0
C651 C 0.22101 0.14826 0.45366 0.0
C652 C 0.21805 0.14827 0.36489 0.0
H653 H 0.22991 0.12757 0.56176 0.0
H654 H 0.21847 0.16519 0.49237 0.0
C655 C 0.2211 0.12556 0.31756 0.0
C656 C 0.91286 0.1124 0.31555 0.0
C657 C 0.89063 0.08629 0.36311 0.0
H658 H 0.94909 0.16117 0.31598 0.0
C659 C 0.89099 0.08894 0.452 0.0
H660 H 0.91413 0.11084 0.24734 0.0
C661 C 0.91172 0.11764 0.49175 0.0
C662 C 0.932 0.14466 0.44348 0.0
H663 H 0.87446 0.06918 0.49089 0.0
H664 H 0.91176 0.11829 0.56015 0.0
C665 C 0.93295 0.14128 0.35501 0.0
C666 C 0.8287 0.94522 0.07481 0.0
C667 C 0.81172 0.94476 0.14722 0.0
H668 H 0.83445 0.91734 0.97813 0.0
C669 C 0.78615 0.91561 0.17457 0.0
H670 H 0.8479 0.96736 0.05081 0.0
C671 C 0.77872 0.8874 0.134 0.0
C672 C 0.79583 0.88778 0.06285 0.0
H673 H 0.77088 0.91459 0.22531 0.0
H674 H 0.75921 0.86527 0.15702 0.0
C675 C 0.82083 0.91681 0.03299 0.0
C676 C 0.14663 0.93322 0.15786 0.0
C677 C 0.1494 0.93413 0.069 0.0
H678 H 0.11668 0.91234 0.26569 0.0
C679 C 0.12186 0.91564 0.02077 0.0
H680 H 0.16695 0.94808 0.19703 0.0
C681 C 0.09326 0.89435 0.06023 0.0
C682 C 0.09121 0.89181 0.14909 0.0
H683 H 0.12204 0.91753 0.95261 0.0
H684 H 0.07309 0.87915 0.02095 0.0
C685 C 0.11782 0.91263 0.19726 0.0
C686 C 0.13076 0.23032 0.01313 0.0
C687 C 0.10961 0.23585 0.06102 0.0
H688 H 0.16874 0.22022 0.01471 0.0
C689 C 0.10837 0.23096 0.14935 0.0
H690 H 0.13117 0.23152 0.94478 0.0
C691 C 0.12867 0.22248 0.189 0.0
C692 C 0.15146 0.21949 0.14197 0.0
H693 H 0.09168 0.23382 0.18818 0.0
H694 H 0.1269 0.21891 0.25698 0.0
C695 C 0.15171 0.22268 0.0532 0.0
C696 C 0.81548 0.59333 0.95291 0.0
C697 C 0.81509 0.57518 0.88424 0.0
H698 H 0.78834 0.60231 0.04194 0.0
C699 C 0.78605 0.54992 0.85575 0.0
H700 H 0.8376 0.6131 0.97473 0.0
C701 C 0.75769 0.54261 0.89709 0.0
C702 C 0.75822 0.56044 0.96758 0.0
H703 H 0.78552 0.5356 0.80261 0.0
H704 H 0.73556 0.52303 0.87461 0.0
C705 C 0.78732 0.58645 0.99289 0.0
C706 C 0.49183 0.22804 0.89233 0.0
C707 C 0.49155 0.22584 0.98128 0.0
H708 H 0.48604 0.25079 0.78404 0.0
C709 C 0.4861 0.24701 0.02889 0.0
H710 H 0.49654 0.21257 0.8534 0.0
C711 C 0.47793 0.26755 0.98891 0.0
C712 C 0.4758 0.26809 0.89999 0.0
H713 H 0.48715 0.247 0.09733 0.0
H714 H 0.47269 0.28266 0.02773 0.0
C715 C 0.48458 0.24927 0.85228 0.0
C716 C 0.83618 0.27829 0.887 0.0
C717 C 0.82543 0.29001 0.95257 0.0
H718 H 0.82696 0.23953 0.80785 0.0
C719 C 0.79455 0.27125 0.98297 0.0
H720 H 0.86052 0.29161 0.86556 0.0
C721 C 0.77451 0.2416 0.94678 0.0
C722 C 0.7852 0.22947 0.8812 0.0
H723 H 0.78611 0.27929 0.0356 0.0
H724 H 0.75061 0.22803 0.97094 0.0
C725 C 0.81663 0.24817 0.85321 0.0
C726 C 0.88681 0.45638 0.29701 0.0
C727 C 0.91245 0.48565 0.27098 0.0
H728 H 0.86004 0.40606 0.27515 0.0
C729 C 0.93111 0.48668 0.20279 0.0
H730 H 0.87208 0.45537 0.34968 0.0
C731 C 0.9245 0.45886 0.16126 0.0
C732 C 0.89829 0.42952 0.18459 0.0
H733 H 0.95114 0.509 0.18287 0.0
H734 H 0.94082 0.46028 0.11302 0.0
C735 C 0.87979 0.4284 0.25418 0.0
C736 C 0.56334 0.43865 0.18304 0.0
C737 C 0.5605 0.43819 0.27189 0.0
H738 H 0.59319 0.45927 0.07486 0.0
C739 C 0.58795 0.45736 0.31981 0.0
H740 H 0.54314 0.42335 0.14404 0.0
C741 C 0.61644 0.47875 0.27991 0.0
C742 C 0.61852 0.48076 0.19096 0.0
H743 H 0.5878 0.45597 0.38806 0.0
H744 H 0.63649 0.49444 0.31891 0.0
C745 C 0.59205 0.45934 0.14327 0.0
C746 C 0.56089 0.11718 0.31427 0.0
C747 C 0.59229 0.13027 0.28556 0.0
H748 H 0.51659 0.11593 0.30225 0.0
C749 C 0.60242 0.15279 0.21904 0.0
H750 H 0.55096 0.09843 0.36056 0.0
C751 C 0.58196 0.16182 0.18279 0.0
C752 C 0.55114 0.14938 0.21382 0.0
H753 H 0.62625 0.1634 0.19428 0.0
H754 H 0.59009 0.1782 0.12973 0.0
C755 C 0.54086 0.12715 0.28019 0.0
C756 C 0.593 0.1488 0.83285 0.0
C757 C 0.56546 0.1412 0.78612 0.0
H758 H 0.64139 0.15987 0.82927 0.0
C759 C 0.56803 0.14407 0.69715 0.0
H760 H 0.59325 0.14947 0.90113 0.0
C761 C 0.59647 0.15232 0.65615 0.0
C762 C 0.62299 0.15688 0.70235 0.0
H763 H 0.54785 0.13962 0.65871 0.0
H764 H 0.59737 0.15417 0.58777 0.0
C765 C 0.62125 0.15598 0.79144 0.0
C766 C 0.89479 0.46033 0.81674 0.0
C767 C 0.90374 0.44202 0.76723 0.0
H768 H 0.88137 0.49598 0.81834 0.0
C769 C 0.89999 0.4419 0.67878 0.0
H770 H 0.89435 0.45912 0.88497 0.0
C771 C 0.89011 0.46137 0.64073 0.0
C772 C 0.88475 0.4823 0.68966 0.0
H773 H 0.90524 0.42709 0.63869 0.0
H774 H 0.88784 0.4609 0.57252 0.0
C775 C 0.88601 0.48069 0.77842 0.0
C776 C 0.57643 0.48245 0.70739 0.0
C777 C 0.59428 0.48246 0.77629 0.0
H778 H 0.54038 0.45476 0.6189 0.0
C779 C 0.59104 0.45361 0.80512 0.0
H780 H 0.57834 0.5044 0.6854 0.0
C781 C 0.5703 0.42504 0.76411 0.0
C782 C 0.55279 0.42516 0.69358 0.0
H783 H 0.60487 0.45338 0.85854 0.0
H784 H 0.56802 0.40305 0.78712 0.0
C785 C 0.55547 0.45408 0.66775 0.0
C786 C 0.44514 0.22268 0.4624 0.0
C787 C 0.4619 0.22248 0.39111 0.0
H788 H 0.43828 0.25055 0.55361 0.0
C789 C 0.48726 0.25123 0.36086 0.0
H790 H 0.42535 0.20082 0.48578 0.0
C791 C 0.49587 0.27988 0.40259 0.0
C792 C 0.47931 0.27994 0.47537 0.0
H793 H 0.50064 0.25134 0.30591 0.0
H794 H 0.51536 0.30178 0.37837 0.0
C795 C 0.45331 0.25112 0.50281 0.0
C796 C 0.80977 0.26651 0.46621 0.0
C797 C 0.81232 0.26599 0.37728 0.0
H798 H 0.78058 0.24726 0.5759 0.0
C799 C 0.78478 0.24565 0.33095 0.0
H800 H 0.82992 0.28252 0.50437 0.0
C801 C 0.75663 0.22442 0.37277 0.0
C802 C 0.75495 0.22379 0.46186 0.0
H803 H 0.78445 0.24587 0.26267 0.0
H804 H 0.73653 0.20786 0.33526 0.0
C805 C 0.78142 0.24615 0.50757 0.0
C806 C 0.81472 0.55111 0.37948 0.0
C807 C 0.81641 0.55013 0.46829 0.0
H808 H 0.79194 0.55748 0.27251 0.0
C809 C 0.79462 0.55423 0.51699 0.0
H810 H 0.83073 0.54747 0.33979 0.0
C811 C 0.77381 0.56226 0.47852 0.0
C812 C 0.77351 0.56546 0.3899 0.0
H813 H 0.7943 0.55222 0.58529 0.0
H814 H 0.75819 0.56641 0.51838 0.0
C815 C 0.79312 0.55811 0.34076 0.0
C816 C 0.44481 0.88562 0.34894 0.0
C817 C 0.41921 0.8823 0.30036 0.0
H818 H 0.49346 0.8982 0.35106 0.0
C819 C 0.42236 0.88467 0.2117 0.0
H820 H 0.44271 0.88247 0.41699 0.0
C821 C 0.45123 0.89246 0.17326 0.0
C822 C 0.47798 0.89928 0.22273 0.0
H823 H 0.40293 0.88166 0.17208 0.0
H824 H 0.45213 0.89296 0.105 0.0
C825 C 0.47392 0.89454 0.31095 0.0
C826 C 0.15837 0.55701 0.21495 0.0
C827 C 0.15894 0.55603 0.30412 0.0
H828 H 0.15143 0.57807 0.10477 0.0
C829 C 0.15344 0.5775 0.34985 0.0
H830 H 0.16292 0.54113 0.17735 0.0
C831 C 0.14463 0.59725 0.30829 0.0
C832 C 0.14201 0.59694 0.21923 0.0
H833 H 0.15487 0.5783 0.41828 0.0
H834 H 0.13946 0.61257 0.34636 0.0
C835 C 0.15054 0.57758 0.17306 0.0
C836 C 0.44391 0.56408 0.31339 0.0
C837 C 0.44374 0.56255 0.22414 0.0
H838 H 0.46301 0.59256 0.4242 0.0
C839 C 0.46222 0.59095 0.17874 0.0
H840 H 0.42917 0.54314 0.3509 0.0
C841 C 0.4826 0.61914 0.22129 0.0
C842 C 0.4842 0.61994 0.31041 0.0
H843 H 0.46119 0.59186 0.11061 0.0
H844 H 0.49787 0.64002 0.1841 0.0
C845 C 0.46342 0.59246 0.35572 0.0
C846 C 0.55486 0.80253 0.55568 0.0
C847 C 0.57811 0.81536 0.62003 0.0
H848 H 0.52891 0.7644 0.46793 0.0
C849 C 0.59207 0.79757 0.64635 0.0
H850 H 0.54361 0.8154 0.53278 0.0
C851 C 0.58218 0.76755 0.6124 0.0
C852 C 0.55914 0.75508 0.54836 0.0
H853 H 0.6114 0.80687 0.69073 0.0
H854 H 0.59401 0.75487 0.63265 0.0
C855 C 0.5459 0.77302 0.51936 0.0
C856 C 0.28184 0.81452 0.61739 0.0
C857 C 0.28473 0.81559 0.52862 0.0
H858 H 0.2523 0.7929 0.72456 0.0
C859 C 0.25873 0.79372 0.48036 0.0
H860 H 0.30155 0.83059 0.65684 0.0
C861 C 0.22962 0.77362 0.51888 0.0
C862 C 0.22592 0.77403 0.60731 0.0
H863 H 0.26059 0.79284 0.41226 0.0
H864 H 0.20982 0.758 0.47912 0.0
C865 C 0.25297 0.79357 0.65629 0.0
C866 C 0.22016 0.44966 0.51012 0.0
C867 C 0.21744 0.47577 0.53662 0.0
H868 H 0.24281 0.42207 0.52749 0.0
C869 C 0.23429 0.49272 0.60864 0.0
H870 H 0.20564 0.43447 0.45963 0.0
C871 C 0.25461 0.48447 0.65027 0.0
C872 C 0.25803 0.45911 0.62061 0.0
H873 H 0.23202 0.51236 0.63197 0.0
H874 H 0.26818 0.49823 0.70436 0.0
C875 C 0.24068 0.44184 0.55042 0.0
C876 C 0.23201 0.47584 0.02098 0.0
C877 C 0.22903 0.47287 0.10978 0.0
H878 H 0.26213 0.48618 0.91298 0.0
C879 C 0.25644 0.48119 0.15786 0.0
H880 H 0.21186 0.47098 0.98184 0.0
C881 C 0.28501 0.48878 0.11804 0.0
C882 C 0.28719 0.48934 0.0291 0.0
H883 H 0.2562 0.48201 0.22616 0.0
H884 H 0.30503 0.49305 0.15704 0.0
C885 C 0.26082 0.48444 0.98136 0.0
C886 C 0.55703 0.79523 0.16466 0.0
C887 C 0.566 0.77618 0.11866 0.0
H888 H 0.54439 0.83146 0.16003 0.0
C889 C 0.56359 0.77591 0.02956 0.0
H890 H 0.55591 0.79462 0.23292 0.0
C891 C 0.55468 0.79551 0.98781 0.0
C892 C 0.54897 0.81685 0.03342 0.0
H893 H 0.56906 0.76078 0.99161 0.0
H894 H 0.55349 0.79482 0.91933 0.0
C895 C 0.54916 0.8157 0.12258 0.0
C896 C 0.23993 0.81603 0.04407 0.0
C897 C 0.25833 0.81587 0.1114 0.0
H898 H 0.20375 0.78857 0.95548 0.0
C899 C 0.25582 0.78706 0.13746 0.0
H900 H 0.24131 0.83795 0.02412 0.0
C901 C 0.23534 0.75871 0.09515 0.0
C902 C 0.21734 0.75902 0.02607 0.0
H903 H 0.27012 0.7867 0.18952 0.0
H904 H 0.2337 0.73675 0.11591 0.0
C905 C 0.2192 0.78785 0.00316 0.0
C906 C 0.12877 0.60643 0.7284 0.0
C907 C 0.15137 0.61874 0.79354 0.0
H908 H 0.09995 0.56739 0.64922 0.0
C909 C 0.16436 0.60067 0.82343 0.0
H910 H 0.11708 0.61916 0.7074 0.0
C911 C 0.15562 0.57125 0.78677 0.0
C912 C 0.13281 0.55859 0.72123 0.0
H913 H 0.18097 0.60913 0.87575 0.0
H914 H 0.16669 0.55829 0.8104 0.0
C915 C 0.11904 0.5765 0.69423 0.0
C916 C 0.44051 0.58103 0.82201 0.0
C917 C 0.42268 0.54968 0.7941 0.0
H918 H 0.48303 0.6256 0.80823 0.0
C919 C 0.43545 0.53869 0.73192 0.0
H920 H 0.43164 0.5897 0.87212 0.0
C921 C 0.46565 0.55859 0.69871 0.0
C922 C 0.48333 0.59048 0.72388 0.0
H923 H 0.42283 0.51405 0.71268 0.0
H924 H 0.47519 0.54833 0.65576 0.0
C925 C 0.47022 0.60133 0.78635 0.0
C926 C 0.46696 0.92897 0.7834 0.0
C927 C 0.44974 0.91086 0.71407 0.0
H928 H 0.50267 0.93822 0.87399 0.0
C929 C 0.45427 0.88607 0.68542 0.0
H930 H 0.46397 0.94833 0.80549 0.0
C931 C 0.47549 0.87916 0.72736 0.0
C932 C 0.49218 0.8969 0.79861 0.0
H933 H 0.44083 0.8717 0.63197 0.0
H934 H 0.47854 0.85987 0.70499 0.0
C935 C 0.48839 0.92248 0.824 0.0
C936 C 0.07844 0.32262 0.54248 0.0
C937 C 0.07754 0.32302 0.63209 0.0
H938 H 0.09172 0.34971 0.42665 0.0
C939 C 0.092 0.3523 0.67368 0.0
H940 H 0.06764 0.30032 0.50855 0.0
C941 C 0.10522 0.38049 0.62653 0.0
C942 C 0.10486 0.38006 0.53684 0.0
H943 H 0.09164 0.35339 0.74233 0.0
H944 H 0.11514 0.40274 0.66049 0.0
C945 C 0.09227 0.35084 0.49535 0.0
C946 C 0.71676 0.77473 0.54257 0.0
C947 C 0.71666 0.77385 0.63216 0.0
H948 H 0.68921 0.7603 0.42785 0.0
C949 C 0.68759 0.75933 0.6749 0.0
H950 H 0.7389 0.78597 0.50787 0.0
C951 C 0.65927 0.74411 0.62893 0.0
C952 C 0.65941 0.74375 0.53936 0.0
H953 H 0.68676 0.75821 0.74362 0.0
H954 H 0.63717 0.73188 0.66363 0.0
C955 C 0.68839 0.76017 0.49659 0.0
C956 C 0.28433 0.94748 0.67976 0.0
C957 C 0.26885 0.96139 0.63883 0.0
H958 H 0.31136 0.92421 0.66511 0.0
C959 C 0.26581 0.95913 0.54956 0.0
H960 H 0.28703 0.94882 0.74814 0.0
C961 C 0.27928 0.94463 0.50186 0.0
C962 C 0.29664 0.93268 0.54235 0.0
H963 H 0.25368 0.96939 0.5162 0.0
H964 H 0.2775 0.94427 0.43328 0.0
C965 C 0.29836 0.93357 0.63192 0.0
C966 C 0.35561 0.0928 0.82397 0.0
C967 C 0.32678 0.08064 0.86734 0.0
H968 H 0.40598 0.11443 0.83454 0.0
C969 C 0.3272 0.08449 0.95612 0.0
H970 H 0.356 0.09001 0.75583 0.0
C971 C 0.35572 0.09881 1.0012 0.0
C972 C 0.38443 0.10895 0.95866 0.0
H973 H 0.30525 0.07541 0.99122 0.0
H974 H 0.35512 0.1004 0.06971 0.0
C975 C 0.38415 0.10652 0.86931 0.0
C976 C 0.94593 0.27819 0.82309 0.0
C977 C 0.96079 0.26428 0.86721 0.0
H978 H 0.92268 0.30545 0.83195 0.0
C979 C 0.95975 0.26375 0.95682 0.0
H980 H 0.94635 0.27898 0.75433 0.0
C981 C 0.94573 0.2784 1.00146 0.0
C982 C 0.9331 0.29446 0.95729 0.0
H983 H 0.97079 0.2529 0.99261 0.0
H984 H 0.94653 0.27882 0.0702 0.0
C985 C 0.93254 0.29344 0.86772 0.0
C986 C 0.75915 0.68588 0.83067 0.0
C987 C 0.77306 0.71508 0.87255 0.0
H988 H 0.73239 0.63539 0.8433 0.0
C989 C 0.77355 0.71539 0.96223 0.0
H990 H 0.75836 0.68487 0.76196 0.0
C991 C 0.75909 0.68713 0.00909 0.0
C992 C 0.74324 0.65796 0.96717 0.0
H993 H 0.78439 0.73764 0.99638 0.0
H994 H 0.75892 0.68817 0.07777 0.0
C995 C 0.74412 0.65762 0.87752 0.0
C996 C 0.93326 0.65782 0.37304 0.0
C997 C 0.93333 0.65763 0.4627 0.0
H998 H 0.94809 0.68577 0.25873 0.0
C999 C 0.94658 0.68657 0.50579 0.0
H1000 H 0.92295 0.63578 0.338 0.0
C1001 C 0.96144 0.71512 0.46021 0.0
C1002 C 0.96271 0.71531 0.37064 0.0
H1003 H 0.94703 0.68719 0.57454 0.0
H1004 H 0.9728 0.73717 0.49529 0.0
C1005 C 0.94748 0.68638 0.32742 0.0
C1006 C 0.3242 0.26384 0.4658 0.0
C1007 C 0.32444 0.2636 0.37607 0.0
H1008 H 0.35151 0.27893 0.58086 0.0
C1009 C 0.35354 0.27623 0.33401 0.0
H1010 H 0.30204 0.25396 0.50022 0.0
C1011 C 0.3818 0.29087 0.38042 0.0
C1012 C 0.38159 0.29267 0.46992 0.0
H1013 H 0.35454 0.2764 0.26529 0.0
H1014 H 0.40398 0.30175 0.34588 0.0
C1015 C 0.35247 0.27795 0.51229 0.0
C1016 C 0.75999 0.09222 0.3251 0.0
C1017 C 0.77647 0.07997 0.36894 0.0
H1018 H 0.73127 0.11386 0.33485 0.0
C1019 C 0.77963 0.08371 0.45782 0.0
H1020 H 0.75704 0.08953 0.2569 0.0
C1021 C 0.76532 0.09802 0.50251 0.0
C1022 C 0.7469 0.10819 0.45937 0.0
H1023 H 0.79236 0.07456 0.49325 0.0
H1024 H 0.76723 0.09953 0.57107 0.0
C1025 C 0.74506 0.10588 0.37001 0.0
C1026 C 0.65707 0.93139 0.14022 0.0
C1027 C 0.65734 0.93054 0.05062 0.0
H1028 H 0.68443 0.9471 0.25505 0.0
C1029 C 0.68639 0.9427 0.00856 0.0
H1030 H 0.63492 0.92193 0.17451 0.0
C1031 C 0.71465 0.95752 0.05476 0.0
C1032 C 0.71444 0.95995 0.14403 0.0
H1033 H 0.68737 0.94242 0.93987 0.0
H1034 H 0.73682 0.968 0.02021 0.0
C1035 C 0.68534 0.94568 0.18656 0.0
C1036 C 0.07923 0.77417 0.04247 0.0
C1037 C 0.07845 0.77281 0.132 0.0
H1038 H 0.0919 0.76008 0.92656 0.0
C1039 C 0.0923 0.75734 0.17346 0.0
H1040 H 0.06885 0.78611 0.00869 0.0
C1041 C 0.10488 0.74188 0.12618 0.0
C1042 C 0.10448 0.74214 0.03654 0.0
H1043 H 0.09195 0.7558 0.24211 0.0
H1044 H 0.1144 0.72914 0.15997 0.0
C1045 C 0.09244 0.75932 0.99525 0.0
C1046 C 0.28444 0.35367 0.18368 0.0
C1047 C 0.26828 0.32465 0.14098 0.0
H1048 H 0.31261 0.40418 0.17197 0.0
C1049 C 0.2654 0.32478 0.05191 0.0
H1050 H 0.28713 0.35429 0.25204 0.0
C1051 C 0.27943 0.35326 0.00608 0.0
C1052 C 0.29734 0.38221 0.04817 0.0
H1053 H 0.25288 0.30269 0.0173 0.0
H1054 H 0.27757 0.3525 0.93748 0.0
C1055 C 0.29915 0.38216 0.13761 0.0
C1056 C 0.02414 0.42921 0.15613 0.0
C1057 C 0.99486 0.41207 0.19715 0.0
H1058 H 0.0745 0.45542 0.17006 0.0
C1059 C 0.99405 0.4116 0.28677 0.0
H1060 H 0.02554 0.43015 0.08745 0.0
C1061 C 0.02203 0.42663 0.3343 0.0
C1062 C 0.05137 0.44188 0.29302 0.0
H1063 H 0.97173 0.3989 0.32032 0.0
H1064 H 0.02075 0.42475 0.4029 0.0
C1065 C 0.05211 0.44365 0.20358 0.0
C1066 C 0.61404 0.61432 0.15879 0.0
C1067 C 0.62608 0.59749 0.20204 0.0
H1068 H 0.5932 0.64381 0.16947 0.0
C1069 C 0.62299 0.59477 0.29111 0.0
H1070 H 0.61629 0.61701 0.09043 0.0
C1071 C 0.60937 0.60965 0.33639 0.0
C1072 C 0.59927 0.62827 0.29375 0.0
H1073 H 0.63204 0.58186 0.32616 0.0
H1074 H 0.60824 0.60789 0.40502 0.0
C1075 C 0.60109 0.62986 0.20429 0.0
C1076 C 0.42637 0.01919 0.33693 0.0
C1077 C 0.41046 0.99024 0.29382 0.0
H1078 H 0.45097 0.06983 0.32661 0.0
C1079 C 0.4105 0.99051 0.20416 0.0
H1080 H 0.4267 0.01978 0.40569 0.0
C1081 C 0.42496 0.01912 0.15864 0.0
C1082 C 0.43895 0.04806 0.20197 0.0
H1083 H 0.39857 0.96848 0.1691 0.0
H1084 H 0.42366 0.01858 0.08996 0.0
C1085 C 0.4401 0.04779 0.29148 0.0
C1086 C 0.60393 0.99348 0.71658 0.0
C1087 C 0.60618 0.9939 0.80594 0.0
H1088 H 0.61621 0.02058 0.60096 0.0
C1089 C 0.62129 0.02315 0.84767 0.0
H1090 H 0.59211 0.97118 0.68268 0.0
C1091 C 0.6356 0.05138 0.80058 0.0
C1092 C 0.63438 0.05092 0.711 0.0
H1093 H 0.62338 0.0242 0.91621 0.0
H1094 H 0.64823 0.07365 0.83432 0.0
C1095 C 0.61754 0.0217 0.66963 0.0
C1096 C 0.04774 0.62341 0.70669 0.0
C1097 C 0.04786 0.6254 0.79609 0.0
H1098 H 0.02008 0.60944 0.59223 0.0
C1099 C 0.01888 0.61181 0.83912 0.0
H1100 H 0.06982 0.63365 0.6718 0.0
C1101 C 0.99047 0.5986 0.79329 0.0
C1102 C 0.99042 0.59808 0.70362 0.0
H1103 H 0.01824 0.61316 0.90768 0.0
H1104 H 0.96849 0.58959 0.82814 0.0
C1105 C 0.01931 0.60955 0.66095 0.0
C1106 C 0.4446 0.41501 0.79056 0.0
C1107 C 0.44126 0.41218 0.70141 0.0
H1108 H 0.4322 0.42939 0.90659 0.0
C1109 C 0.42469 0.42486 0.66022 0.0
H1110 H 0.45748 0.40559 0.82406 0.0
C1111 C 0.40977 0.43792 0.70782 0.0
C1112 C 0.41163 0.43914 0.79737 0.0
H1113 H 0.42165 0.42298 0.59195 0.0
H1114 H 0.39591 0.44626 0.67451 0.0
C1115 C 0.43022 0.42867 0.83803 0.0
loop_
_geom_bond_atom_site_label_1
_geom_bond_atom_site_label_2
_geom_bond_distance
_geom_bond_site_symmetry_2
_ccdc_geom_bond_type
Zn0 O1 2.055 . S
Zn0 O8 2.046 1_655 S
Zn0 N16 2.036 . S
Zn0 O28 2.053 1_655 S
Zn0 O30 2.066 . S
O1 Zn0 2.055 . S
O1 C4 1.259 . S
C2 O30 1.256 . S
C2 O31 1.244 1_655 S
Zn3 O5 2.046 . S
Zn3 O7 2.055 . S
Zn3 N9 2.036 . S
Zn3 O27 2.066 . S
Zn3 O31 2.053 . S
C4 O1 1.259 . S
C4 O5 1.254 1_655 S
O5 Zn3 2.046 . S
O5 C4 1.254 1_455 S
C6 O27 1.256 . S
C6 O28 1.244 . S
O7 Zn3 2.055 . S
O7 C29 1.259 . S
O8 Zn0 2.046 1_455 S
O8 C29 1.254 . S
N9 Zn3 2.036 . S
N9 C10 1.298 . S
N9 N12 1.398 . S
C10 N9 1.298 . S
C10 N13 1.367 . S
C10 C23 1.481 . S
C11 N12 1.299 1_554 S
C11 N13 1.379 1_554 S
N12 N9 1.398 . S
N12 C11 1.299 1_556 S
N13 C10 1.367 . S
N13 C11 1.379 1_556 S
C14 N16 1.298 . S
C14 N18 1.367 . S
C14 C22 1.481 . S
C15 N17 1.299 . S
C15 N18 1.379 . S
N16 Zn0 2.036 . S
N16 C14 1.298 . S
N16 N17 1.398 . S
N17 C15 1.299 . S
N17 N16 1.398 . S
N18 C14 1.367 . S
N18 C15 1.379 . S
H19 C22 0.980 . S
H20 C22 0.981 . S
H21 C22 0.981 . S
C22 C14 1.481 . S
C22 H19 0.980 . S
C22 H20 0.981 . S
C22 H21 0.981 . S
C23 C10 1.481 . S
C23 H24 0.980 . S
C23 H25 0.981 . S
C23 H26 0.981 . S
H24 C23 0.980 . S
H25 C23 0.981 . S
H26 C23 0.981 . S
O27 Zn3 2.066 . S
O27 C6 1.256 . S
O28 Zn0 2.053 1_455 S
O28 C6 1.244 . S
C29 O7 1.259 . S
C29 O8 1.254 . S
O30 Zn0 2.066 . S
O30 C2 1.256 . S
O31 C2 1.244 1_455 S
O31 Zn3 2.053 . S
Zn32 O33 2.055 . S
Zn32 O40 2.046 . S
Zn32 N48 2.036 . S
Zn32 O60 2.053 . S
Zn32 O62 2.066 . S
O33 Zn32 2.055 . S
O33 C36 1.259 . S
C34 O62 1.256 . S
C34 O63 1.244 . S
Zn35 O37 2.046 . S
Zn35 O39 2.055 . S
Zn35 N41 2.036 . S
Zn35 O59 2.066 . S
Zn35 O63 2.053 . S
C36 O33 1.259 . S
C36 O37 1.254 . S
O37 Zn35 2.046 . S
O37 C36 1.254 . S
C38 O59 1.256 . S
C38 O60 1.244 . S
O39 Zn35 2.055 . S
O39 C61 1.259 . S
O40 Zn32 2.046 . S
O40 C61 1.254 . S
N41 Zn35 2.036 . S
N41 C42 1.298 . S
N41 N44 1.398 . S
C42 N41 1.298 . S
C42 N45 1.367 . S
C42 C55 1.481 . S
C43 N44 1.299 1_554 S
C43 N45 1.379 1_554 S
N44 N41 1.398 . S
N44 C43 1.299 1_556 S
N45 C42 1.367 . S
N45 C43 1.379 1_556 S
C46 N48 1.298 . S
C46 N50 1.367 . S
C46 C54 1.481 . S
C47 N49 1.299 . S
C47 N50 1.379 . S
N48 Zn32 2.036 . S
N48 C46 1.298 . S
N48 N49 1.398 . S
N49 C47 1.299 . S
N49 N48 1.398 . S
N50 C46 1.367 . S
N50 C47 1.379 . S
H51 C54 0.980 . S
H52 C54 0.981 . S
H53 C54 0.981 . S
C54 C46 1.481 . S
C54 H51 0.980 . S
C54 H52 0.981 . S
C54 H53 0.981 . S
C55 C42 1.481 . S
C55 H56 0.980 . S
C55 H57 0.981 . S
C55 H58 0.981 . S
H56 C55 0.980 . S
H57 C55 0.981 . S
H58 C55 0.981 . S
O59 Zn35 2.066 . S
O59 C38 1.256 . S
O60 Zn32 2.053 . S
O60 C38 1.244 . S
C61 O39 1.259 . S
C61 O40 1.254 . S
O62 Zn32 2.066 . S
O62 C34 1.256 . S
O63 C34 1.244 . S
O63 Zn35 2.053 . S
Zn64 O65 2.055 . S
Zn64 O72 2.046 1_565 S
Zn64 N80 2.036 . S
Zn64 O92 2.053 1_565 S
Zn64 O94 2.066 . S
O65 Zn64 2.055 . S
O65 C68 1.259 . S
C66 O94 1.256 . S
C66 O95 1.244 1_565 S
Zn67 O69 2.046 . S
Zn67 O71 2.055 . S
Zn67 N73 2.036 . S
Zn67 O91 2.066 . S
Zn67 O95 2.053 . S
C68 O65 1.259 . S
C68 O69 1.254 1_565 S
O69 Zn67 2.046 . S
O69 C68 1.254 1_545 S
C70 O91 1.256 . S
C70 O92 1.244 . S
O71 Zn67 2.055 . S
O71 C93 1.259 . S
O72 Zn64 2.046 1_545 S
O72 C93 1.254 . S
N73 Zn67 2.036 . S
N73 C74 1.298 . S
N73 N76 1.398 . S
C74 N73 1.298 . S
C74 N77 1.367 . S
C74 C87 1.481 . S
C75 N76 1.299 . S
C75 N77 1.379 . S
N76 N73 1.398 . S
N76 C75 1.299 . S
N77 C74 1.367 . S
N77 C75 1.379 . S
C78 N80 1.298 . S
C78 N82 1.367 . S
C78 C86 1.481 . S
C79 N81 1.299 1_554 S
C79 N82 1.379 1_554 S
N80 Zn64 2.036 . S
N80 C78 1.298 . S
N80 N81 1.398 . S
N81 C79 1.299 1_556 S
N81 N80 1.398 . S
N82 C78 1.367 . S
N82 C79 1.379 1_556 S
H83 C86 0.980 . S
H84 C86 0.981 . S
H85 C86 0.981 . S
C86 C78 1.481 . S
C86 H83 0.980 . S
C86 H84 0.981 . S
C86 H85 0.981 . S
C87 C74 1.481 . S
C87 H88 0.980 . S
C87 H89 0.981 . S
C87 H90 0.981 . S
H88 C87 0.980 . S
H89 C87 0.981 . S
H90 C87 0.981 . S
O91 Zn67 2.066 . S
O91 C70 1.256 . S
O92 Zn64 2.053 1_545 S
O92 C70 1.244 . S
C93 O71 1.259 . S
C93 O72 1.254 . S
O94 Zn64 2.066 . S
O94 C66 1.256 . S
O95 C66 1.244 1_545 S
O95 Zn67 2.053 . S
Zn96 O97 2.055 . S
Zn96 O104 2.046 . S
Zn96 N112 2.036 . S
Zn96 O124 2.053 . S
Zn96 O126 2.066 . S
O97 Zn96 2.055 . S
O97 C100 1.259 . S
C98 O126 1.256 . S
C98 O127 1.244 . S
Zn99 O101 2.046 1_655 S
Zn99 O103 2.055 . S
Zn99 N105 2.036 . S
Zn99 O123 2.066 . S
Zn99 O127 2.053 1_655 S
C100 O97 1.259 . S
C100 O101 1.254 . S
O101 Zn99 2.046 1_455 S
O101 C100 1.254 . S
C102 O123 1.256 . S
C102 O124 1.244 1_655 S
O103 Zn99 2.055 . S
O103 C125 1.259 . S
O104 Zn96 2.046 . S
O104 C125 1.254 1_455 S
N105 Zn99 2.036 . S
N105 C106 1.298 . S
N105 N108 1.398 . S
C106 N105 1.298 . S
C106 N109 1.367 . S
C106 C119 1.481 . S
C107 N108 1.299 1_556 S
C107 N109 1.379 1_556 S
N108 N105 1.398 . S
N108 C107 1.299 1_554 S
N109 C106 1.367 . S
N109 C107 1.379 1_554 S
C110 N112 1.298 . S
C110 N114 1.367 . S
C110 C118 1.481 . S
C111 N113 1.299 . S
C111 N114 1.379 . S
N112 Zn96 2.036 . S
N112 C110 1.298 . S
N112 N113 1.398 . S
N113 C111 1.299 . S
N113 N112 1.398 . S
N114 C110 1.367 . S
N114 C111 1.379 . S
H115 C118 0.980 . S
H116 C118 0.981 . S
H117 C118 0.981 . S
C118 C110 1.481 . S
C118 H115 0.980 . S
C118 H116 0.981 . S
C118 H117 0.981 . S
C119 C106 1.481 . S
C119 H120 0.980 . S
C119 H121 0.981 . S
C119 H122 0.981 . S
H120 C119 0.980 . S
H121 C119 0.981 . S
H122 C119 0.981 . S
O123 Zn99 2.066 . S
O123 C102 1.256 . S
O124 Zn96 2.053 . S
O124 C102 1.244 1_455 S
C125 O103 1.259 . S
C125 O104 1.254 1_655 S
O126 Zn96 2.066 . S
O126 C98 1.256 . S
O127 C98 1.244 . S
O127 Zn99 2.053 1_455 S
Zn128 O129 2.055 . S
Zn128 O136 2.046 . S
Zn128 N144 2.036 . S
Zn128 O156 2.053 . S
Zn128 O158 2.066 . S
O129 Zn128 2.055 . S
O129 C132 1.259 . S
C130 O158 1.256 . S
C130 O159 1.244 . S
Zn131 O133 2.046 . S
Zn131 O135 2.055 . S
Zn131 N137 2.036 . S
Zn131 O155 2.066 . S
Zn131 O159 2.053 . S
C132 O129 1.259 . S
C132 O133 1.254 . S
O133 Zn131 2.046 . S
O133 C132 1.254 . S
C134 O155 1.256 . S
C134 O156 1.244 . S
O135 Zn131 2.055 . S
O135 C157 1.259 . S
O136 Zn128 2.046 . S
O136 C157 1.254 . S
N137 Zn131 2.036 . S
N137 C138 1.298 . S
N137 N140 1.398 . S
C138 N137 1.298 . S
C138 N141 1.367 . S
C138 C151 1.481 . S
C139 N140 1.299 1_556 S
C139 N141 1.379 1_556 S
N140 N137 1.398 . S
N140 C139 1.299 1_554 S
N141 C138 1.367 . S
N141 C139 1.379 1_554 S
C142 N144 1.298 . S
C142 N146 1.367 . S
C142 C150 1.481 . S
C143 N145 1.299 . S
C143 N146 1.379 . S
N144 Zn128 2.036 . S
N144 C142 1.298 . S
N144 N145 1.398 . S
N145 C143 1.299 . S
N145 N144 1.398 . S
N146 C142 1.367 . S
N146 C143 1.379 . S
H147 C150 0.980 . S
H148 C150 0.981 . S
H149 C150 0.981 . S
C150 C142 1.481 . S
C150 H147 0.980 . S
C150 H148 0.981 . S
C150 H149 0.981 . S
C151 C138 1.481 . S
C151 H152 0.980 . S
C151 H153 0.981 . S
C151 H154 0.981 . S
H152 C151 0.980 . S
H153 C151 0.981 . S
H154 C151 0.981 . S
O155 Zn131 2.066 . S
O155 C134 1.256 . S
O156 Zn128 2.053 . S
O156 C134 1.244 . S
C157 O135 1.259 . S
C157 O136 1.254 . S
O158 Zn128 2.066 . S
O158 C130 1.256 . S
O159 C130 1.244 . S
O159 Zn131 2.053 . S
Zn160 O161 2.055 . S
Zn160 O168 2.046 1_565 S
Zn160 N176 2.036 . S
Zn160 O188 2.053 1_565 S
Zn160 O190 2.066 . S
O161 Zn160 2.055 . S
O161 C164 1.259 . S
C162 O190 1.256 . S
C162 O191 1.244 1_565 S
Zn163 O165 2.046 . S
Zn163 O167 2.055 . S
Zn163 N169 2.036 . S
Zn163 O187 2.066 . S
Zn163 O191 2.053 . S
C164 O161 1.259 . S
C164 O165 1.254 1_565 S
O165 Zn163 2.046 . S
O165 C164 1.254 1_545 S
C166 O187 1.256 . S
C166 O188 1.244 . S
O167 Zn163 2.055 . S
O167 C189 1.259 . S
O168 Zn160 2.046 1_545 S
O168 C189 1.254 . S
N169 Zn163 2.036 . S
N169 C170 1.298 . S
N169 N172 1.398 . S
C170 N169 1.298 . S
C170 N173 1.367 . S
C170 C183 1.481 . S
C171 N172 1.299 1_556 S
C171 N173 1.379 1_556 S
N172 N169 1.398 . S
N172 C171 1.299 1_554 S
N173 C170 1.367 . S
N173 C171 1.379 1_554 S
C174 N176 1.298 . S
C174 N178 1.367 . S
C174 C182 1.481 . S
C175 N177 1.299 . S
C175 N178 1.379 . S
N176 Zn160 2.036 . S
N176 C174 1.298 . S
N176 N177 1.398 . S
N177 C175 1.299 . S
N177 N176 1.398 . S
N178 C174 1.367 . S
N178 C175 1.379 . S
H179 C182 0.980 . S
H180 C182 0.981 . S
H181 C182 0.981 . S
C182 C174 1.481 . S
C182 H179 0.980 . S
C182 H180 0.981 . S
C182 H181 0.981 . S
C183 C170 1.481 . S
C183 H184 0.980 . S
C183 H185 0.981 . S
C183 H186 0.981 . S
H184 C183 0.980 . S
H185 C183 0.981 . S
H186 C183 0.981 . S
O187 Zn163 2.066 . S
O187 C166 1.256 . S
O188 Zn160 2.053 1_545 S
O188 C166 1.244 . S
C189 O167 1.259 . S
C189 O168 1.254 . S
O190 Zn160 2.066 . S
O190 C162 1.256 . S
O191 C162 1.244 1_545 S
O191 Zn163 2.053 . S
Zn192 O193 2.055 . S
Zn192 O200 2.046 1_554 S
Zn192 N208 2.036 1_554 S
Zn192 O220 2.053 1_554 S
Zn192 O222 2.066 . S
O193 Zn192 2.055 . S
O193 C196 1.259 . S
C194 O222 1.256 . S
C194 O223 1.244 . S
Zn195 O197 2.046 . S
Zn195 O199 2.055 . S
Zn195 N201 2.036 . S
Zn195 O219 2.066 . S
Zn195 O223 2.053 . S
C196 O193 1.259 . S
C196 O197 1.254 . S
O197 Zn195 2.046 . S
O197 C196 1.254 . S
C198 O219 1.256 . S
C198 O220 1.244 1_554 S
O199 Zn195 2.055 . S
O199 C221 1.259 1_554 S
O200 Zn192 2.046 1_556 S
O200 C221 1.254 . S
N201 Zn195 2.036 . S
N201 C202 1.298 . S
N201 N204 1.398 . S
C202 N201 1.298 . S
C202 N205 1.367 . S
C202 C215 1.481 . S
C203 N204 1.299 . S
C203 N205 1.379 . S
N204 N201 1.398 . S
N204 C203 1.299 . S
N205 C202 1.367 . S
N205 C203 1.379 . S
C206 N208 1.298 . S
C206 N210 1.367 . S
C206 C214 1.481 . S
C207 N209 1.299 . S
C207 N210 1.379 . S
N208 Zn192 2.036 1_556 S
N208 C206 1.298 . S
N208 N209 1.398 . S
N209 C207 1.299 . S
N209 N208 1.398 . S
N210 C206 1.367 . S
N210 C207 1.379 . S
H211 C214 0.980 1_554 S
H212 C214 0.981 . S
H213 C214 0.981 1_554 S
C214 C206 1.481 . S
C214 H211 0.980 1_556 S
C214 H212 0.981 . S
C214 H213 0.981 1_556 S
C215 C202 1.481 . S
C215 H216 0.980 . S
C215 H217 0.981 . S
C215 H218 0.981 . S
H216 C215 0.980 . S
H217 C215 0.981 . S
H218 C215 0.981 . S
O219 Zn195 2.066 . S
O219 C198 1.256 . S
O220 Zn192 2.053 1_556 S
O220 C198 1.244 1_556 S
C221 O199 1.259 1_556 S
C221 O200 1.254 . S
O222 Zn192 2.066 . S
O222 C194 1.256 . S
O223 C194 1.244 . S
O223 Zn195 2.053 . S
Zn224 O225 2.055 . S
Zn224 O232 2.046 1_554 S
Zn224 N240 2.036 1_554 S
Zn224 O252 2.053 1_554 S
Zn224 O254 2.066 . S
O225 Zn224 2.055 . S
O225 C228 1.259 . S
C226 O254 1.256 . S
C226 O255 1.244 . S
Zn227 O229 2.046 . S
Zn227 O231 2.055 . S
Zn227 N233 2.036 . S
Zn227 O251 2.066 . S
Zn227 O255 2.053 . S
C228 O225 1.259 . S
C228 O229 1.254 . S
O229 Zn227 2.046 . S
O229 C228 1.254 . S
C230 O251 1.256 . S
C230 O252 1.244 1_554 S
O231 Zn227 2.055 . S
O231 C253 1.259 1_554 S
O232 Zn224 2.046 1_556 S
O232 C253 1.254 . S
N233 Zn227 2.036 . S
N233 C234 1.298 . S
N233 N236 1.398 . S
C234 N233 1.298 . S
C234 N237 1.367 . S
C234 C247 1.481 . S
C235 N236 1.299 . S
C235 N237 1.379 . S
N236 N233 1.398 . S
N236 C235 1.299 . S
N237 C234 1.367 . S
N237 C235 1.379 . S
C238 N240 1.298 . S
C238 N242 1.367 . S
C238 C246 1.481 . S
C239 N241 1.299 . S
C239 N242 1.379 . S
N240 Zn224 2.036 1_556 S
N240 C238 1.298 . S
N240 N241 1.398 . S
N241 C239 1.299 . S
N241 N240 1.398 . S
N242 C238 1.367 . S
N242 C239 1.379 . S
H243 C246 0.980 1_554 S
H244 C246 0.981 . S
H245 C246 0.981 1_554 S
C246 C238 1.481 . S
C246 H243 0.980 1_556 S
C246 H244 0.981 . S
C246 H245 0.981 1_556 S
C247 C234 1.481 . S
C247 H248 0.980 . S
C247 H249 0.981 . S
C247 H250 0.981 . S
H248 C247 0.980 . S
H249 C247 0.981 . S
H250 C247 0.981 . S
O251 Zn227 2.066 . S
O251 C230 1.256 . S
O252 Zn224 2.053 1_556 S
O252 C230 1.244 1_556 S
C253 O231 1.259 1_556 S
C253 O232 1.254 . S
O254 Zn224 2.066 . S
O254 C226 1.256 . S
O255 C226 1.244 . S
O255 Zn227 2.053 . S
Zn256 O257 2.055 . S
Zn256 O264 2.046 1_554 S
Zn256 N272 2.036 1_554 S
Zn256 O284 2.053 1_554 S
Zn256 O286 2.066 . S
O257 Zn256 2.055 . S
O257 C260 1.259 . S
C258 O286 1.256 . S
C258 O287 1.244 . S
Zn259 O261 2.046 . S
Zn259 O263 2.055 . S
Zn259 N265 2.036 . S
Zn259 O283 2.066 . S
Zn259 O287 2.053 . S
C260 O257 1.259 . S
C260 O261 1.254 . S
O261 Zn259 2.046 . S
O261 C260 1.254 . S
C262 O283 1.256 . S
C262 O284 1.244 1_554 S
O263 Zn259 2.055 . S
O263 C285 1.259 1_554 S
O264 Zn256 2.046 1_556 S
O264 C285 1.254 . S
N265 Zn259 2.036 . S
N265 C266 1.298 . S
N265 N268 1.398 . S
C266 N265 1.298 . S
C266 N269 1.367 . S
C266 C279 1.481 . S
C267 N268 1.299 . S
C267 N269 1.379 . S
N268 N265 1.398 . S
N268 C267 1.299 . S
N269 C266 1.367 . S
N269 C267 1.379 . S
C270 N272 1.298 . S
C270 N274 1.367 . S
C270 C278 1.481 . S
C271 N273 1.299 . S
C271 N274 1.379 . S
N272 Zn256 2.036 1_556 S
N272 C270 1.298 . S
N272 N273 1.398 . S
N273 C271 1.299 . S
N273 N272 1.398 . S
N274 C270 1.367 . S
N274 C271 1.379 . S
H275 C278 0.980 1_554 S
H276 C278 0.981 . S
H277 C278 0.981 1_554 S
C278 C270 1.481 . S
C278 H275 0.980 1_556 S
C278 H276 0.981 . S
C278 H277 0.981 1_556 S
C279 C266 1.481 . S
C279 H280 0.980 . S
C279 H281 0.981 . S
C279 H282 0.981 . S
H280 C279 0.980 . S
H281 C279 0.981 . S
H282 C279 0.981 . S
O283 Zn259 2.066 . S
O283 C262 1.256 . S
O284 Zn256 2.053 1_556 S
O284 C262 1.244 1_556 S
C285 O263 1.259 1_556 S
C285 O264 1.254 . S
O286 Zn256 2.066 . S
O286 C258 1.256 . S
O287 C258 1.244 . S
O287 Zn259 2.053 . S
Zn288 O289 2.055 . S
Zn288 O296 2.046 . S
Zn288 N304 2.036 . S
Zn288 O316 2.053 . S
Zn288 O318 2.066 . S
O289 Zn288 2.055 . S
O289 C292 1.259 . S
C290 O318 1.256 . S
C290 O319 1.244 . S
Zn291 O293 2.046 . S
Zn291 O295 2.055 . S
Zn291 N297 2.036 . S
Zn291 O315 2.066 . S
Zn291 O319 2.053 . S
C292 O289 1.259 . S
C292 O293 1.254 . S
O293 Zn291 2.046 . S
O293 C292 1.254 . S
C294 O315 1.256 . S
C294 O316 1.244 . S
O295 Zn291 2.055 . S
O295 C317 1.259 . S
O296 Zn288 2.046 . S
O296 C317 1.254 . S
N297 Zn291 2.036 . S
N297 C298 1.298 . S
N297 N300 1.398 . S
C298 N297 1.298 . S
C298 N301 1.367 . S
C298 C311 1.481 . S
C299 N300 1.299 . S
C299 N301 1.379 . S
N300 N297 1.398 . S
N300 C299 1.299 . S
N301 C298 1.367 . S
N301 C299 1.379 . S
C302 N304 1.298 . S
C302 N306 1.367 . S
C302 C310 1.481 . S
C303 N305 1.299 . S
C303 N306 1.379 . S
N304 Zn288 2.036 . S
N304 C302 1.298 . S
N304 N305 1.398 . S
N305 C303 1.299 . S
N305 N304 1.398 . S
N306 C302 1.367 . S
N306 C303 1.379 . S
H307 C310 0.980 . S
H308 C310 0.981 . S
H309 C310 0.981 . S
C310 C302 1.481 . S
C310 H307 0.980 . S
C310 H308 0.981 . S
C310 H309 0.981 . S
C311 C298 1.481 . S
C311 H312 0.980 . S
C311 H313 0.981 . S
C311 H314 0.981 . S
H312 C311 0.980 . S
H313 C311 0.981 . S
H314 C311 0.981 . S
O315 Zn291 2.066 . S
O315 C294 1.256 . S
O316 Zn288 2.053 . S
O316 C294 1.244 . S
C317 O295 1.259 . S
C317 O296 1.254 . S
O318 Zn288 2.066 . S
O318 C290 1.256 . S
O319 C290 1.244 . S
O319 Zn291 2.053 . S
Zn320 O321 2.055 . S
Zn320 O328 2.046 . S
Zn320 N336 2.036 . S
Zn320 O348 2.053 . S
Zn320 O350 2.066 . S
O321 Zn320 2.055 . S
O321 C324 1.259 . S
C322 O350 1.256 . S
C322 O351 1.244 . S
Zn323 O325 2.046 . S
Zn323 O327 2.055 . S
Zn323 N329 2.036 . S
Zn323 O347 2.066 . S
Zn323 O351 2.053 . S
C324 O321 1.259 . S
C324 O325 1.254 . S
O325 Zn323 2.046 . S
O325 C324 1.254 . S
C326 O347 1.256 . S
C326 O348 1.244 . S
O327 Zn323 2.055 . S
O327 C349 1.259 . S
O328 Zn320 2.046 . S
O328 C349 1.254 . S
N329 Zn323 2.036 . S
N329 C330 1.298 . S
N329 N332 1.398 . S
C330 N329 1.298 . S
C330 N333 1.367 . S
C330 C343 1.481 . S
C331 N332 1.299 . S
C331 N333 1.379 . S
N332 N329 1.398 . S
N332 C331 1.299 . S
N333 C330 1.367 . S
N333 C331 1.379 . S
C334 N336 1.298 . S
C334 N338 1.367 . S
C334 C342 1.481 . S
C335 N337 1.299 . S
C335 N338 1.379 . S
N336 Zn320 2.036 . S
N336 C334 1.298 . S
N336 N337 1.398 . S
N337 C335 1.299 . S
N337 N336 1.398 . S
N338 C334 1.367 . S
N338 C335 1.379 . S
H339 C342 0.980 . S
H340 C342 0.981 . S
H341 C342 0.981 . S
C342 C334 1.481 . S
C342 H339 0.980 . S
C342 H340 0.981 . S
C342 H341 0.981 . S
C343 C330 1.481 . S
C343 H344 0.980 . S
C343 H345 0.981 . S
C343 H346 0.981 . S
H344 C343 0.980 . S
H345 C343 0.981 . S
H346 C343 0.981 . S
O347 Zn323 2.066 . S
O347 C326 1.256 . S
O348 Zn320 2.053 . S
O348 C326 1.244 . S
C349 O327 1.259 . S
C349 O328 1.254 . S
O350 Zn320 2.066 . S
O350 C322 1.256 . S
O351 C322 1.244 . S
O351 Zn323 2.053 . S
Zn352 O353 2.055 . S
Zn352 O360 2.046 . S
Zn352 N368 2.036 . S
Zn352 O380 2.053 . S
Zn352 O382 2.066 . S
O353 Zn352 2.055 . S
O353 C356 1.259 . S
C354 O382 1.256 . S
C354 O383 1.244 . S
Zn355 O357 2.046 . S
Zn355 O359 2.055 . S
Zn355 N361 2.036 . S
Zn355 O379 2.066 . S
Zn355 O383 2.053 . S
C356 O353 1.259 . S
C356 O357 1.254 . S
O357 Zn355 2.046 . S
O357 C356 1.254 . S
C358 O379 1.256 . S
C358 O380 1.244 . S
O359 Zn355 2.055 . S
O359 C381 1.259 . S
O360 Zn352 2.046 . S
O360 C381 1.254 . S
N361 Zn355 2.036 . S
N361 C362 1.298 . S
N361 N364 1.398 . S
C362 N361 1.298 . S
C362 N365 1.367 . S
C362 C375 1.481 . S
C363 N364 1.299 . S
C363 N365 1.379 . S
N364 N361 1.398 . S
N364 C363 1.299 . S
N365 C362 1.367 . S
N365 C363 1.379 . S
C366 N368 1.298 . S
C366 N370 1.367 . S
C366 C374 1.481 . S
C367 N369 1.299 . S
C367 N370 1.379 . S
N368 Zn352 2.036 . S
N368 C366 1.298 . S
N368 N369 1.398 . S
N369 C367 1.299 . S
N369 N368 1.398 . S
N370 C366 1.367 . S
N370 C367 1.379 . S
H371 C374 0.980 . S
H372 C374 0.981 . S
H373 C374 0.981 . S
C374 C366 1.481 . S
C374 H371 0.980 . S
C374 H372 0.981 . S
C374 H373 0.981 . S
C375 C362 1.481 . S
C375 H376 0.980 . S
C375 H377 0.981 . S
C375 H378 0.981 . S
H376 C375 0.980 . S
H377 C375 0.981 . S
H378 C375 0.981 . S
O379 Zn355 2.066 . S
O379 C358 1.256 . S
O380 Zn352 2.053 . S
O380 C358 1.244 . S
C381 O359 1.259 . S
C381 O360 1.254 . S
O382 Zn352 2.066 . S
O382 C354 1.256 . S
O383 C354 1.244 . S
O383 Zn355 2.053 . S
Zn384 O385 2.055 . S
Zn384 O392 2.046 . S
Zn384 N400 2.036 . S
Zn384 O412 2.053 . S
Zn384 O414 2.066 . S
O385 Zn384 2.055 . S
O385 C388 1.259 . S
C386 O414 1.256 . S
C386 O415 1.244 . S
Zn387 O389 2.046 . S
Zn387 O391 2.055 . S
Zn387 N393 2.036 . S
Zn387 O411 2.066 . S
Zn387 O415 2.053 . S
C388 O385 1.259 . S
C388 O389 1.254 . S
O389 Zn387 2.046 . S
O389 C388 1.254 . S
C390 O411 1.256 . S
C390 O412 1.244 . S
O391 Zn387 2.055 . S
O391 C413 1.259 . S
O392 Zn384 2.046 . S
O392 C413 1.254 . S
N393 Zn387 2.036 . S
N393 C394 1.298 . S
N393 N396 1.398 . S
C394 N393 1.298 . S
C394 N397 1.367 . S
C394 C407 1.481 . S
C395 N396 1.299 . S
C395 N397 1.379 . S
N396 N393 1.398 . S
N396 C395 1.299 . S
N397 C394 1.367 . S
N397 C395 1.379 . S
C398 N400 1.298 . S
C398 N402 1.367 . S
C398 C406 1.481 . S
C399 N401 1.299 . S
C399 N402 1.379 . S
N400 Zn384 2.036 . S
N400 C398 1.298 . S
N400 N401 1.398 . S
N401 C399 1.299 . S
N401 N400 1.398 . S
N402 C398 1.367 . S
N402 C399 1.379 . S
H403 C406 0.980 . S
H404 C406 0.981 . S
H405 C406 0.981 . S
C406 C398 1.481 . S
C406 H403 0.980 . S
C406 H404 0.981 . S
C406 H405 0.981 . S
C407 C394 1.481 . S
C407 H408 0.980 . S
C407 H409 0.981 . S
C407 H410 0.981 . S
H408 C407 0.980 . S
H409 C407 0.981 . S
H410 C407 0.981 . S
O411 Zn387 2.066 . S
O411 C390 1.256 . S
O412 Zn384 2.053 . S
O412 C390 1.244 . S
C413 O391 1.259 . S
C413 O392 1.254 . S
O414 Zn384 2.066 . S
O414 C386 1.256 . S
O415 C386 1.244 . S
O415 Zn387 2.053 . S
Zn416 O417 2.055 . S
Zn416 O424 2.046 . S
Zn416 N432 2.036 . S
Zn416 O444 2.053 . S
Zn416 O446 2.066 . S
O417 Zn416 2.055 . S
O417 C420 1.259 . S
C418 O446 1.256 . S
C418 O447 1.244 . S
Zn419 O421 2.046 . S
Zn419 O423 2.055 . S
Zn419 N425 2.036 . S
Zn419 O443 2.066 . S
Zn419 O447 2.053 . S
C420 O417 1.259 . S
C420 O421 1.254 . S
O421 Zn419 2.046 . S
O421 C420 1.254 . S
C422 O443 1.256 . S
C422 O444 1.244 . S
O423 Zn419 2.055 . S
O423 C445 1.259 . S
O424 Zn416 2.046 . S
O424 C445 1.254 . S
N425 Zn419 2.036 . S
N425 C426 1.298 . S
N425 N428 1.398 . S
C426 N425 1.298 . S
C426 N429 1.367 . S
C426 C439 1.481 . S
C427 N428 1.299 . S
C427 N429 1.379 . S
N428 N425 1.398 . S
N428 C427 1.299 . S
N429 C426 1.367 . S
N429 C427 1.379 . S
C430 N432 1.298 . S
C430 N434 1.367 . S
C430 C438 1.481 . S
C431 N433 1.299 . S
C431 N434 1.379 . S
N432 Zn416 2.036 . S
N432 C430 1.298 . S
N432 N433 1.398 . S
N433 C431 1.299 . S
N433 N432 1.398 . S
N434 C430 1.367 . S
N434 C431 1.379 . S
H435 C438 0.980 . S
H436 C438 0.981 . S
H437 C438 0.981 . S
C438 C430 1.481 . S
C438 H435 0.980 . S
C438 H436 0.981 . S
C438 H437 0.981 . S
C439 C426 1.481 . S
C439 H440 0.980 . S
C439 H441 0.981 . S
C439 H442 0.981 . S
H440 C439 0.980 . S
H441 C439 0.981 . S
H442 C439 0.981 . S
O443 Zn419 2.066 . S
O443 C422 1.256 . S
O444 Zn416 2.053 . S
O444 C422 1.244 . S
C445 O423 1.259 . S
C445 O424 1.254 . S
O446 Zn416 2.066 . S
O446 C418 1.256 . S
O447 C418 1.244 . S
O447 Zn419 2.053 . S
Zn448 O449 2.055 . S
Zn448 O456 2.046 . S
Zn448 N464 2.036 . S
Zn448 O476 2.053 . S
Zn448 O478 2.066 . S
O449 Zn448 2.055 . S
O449 C452 1.259 . S
C450 O478 1.256 . S
C450 O479 1.244 . S
Zn451 O453 2.046 . S
Zn451 O455 2.055 . S
Zn451 N457 2.036 . S
Zn451 O475 2.066 . S
Zn451 O479 2.053 . S
C452 O449 1.259 . S
C452 O453 1.254 . S
O453 Zn451 2.046 . S
O453 C452 1.254 . S
C454 O475 1.256 . S
C454 O476 1.244 . S
O455 Zn451 2.055 . S
O455 C477 1.259 . S
O456 Zn448 2.046 . S
O456 C477 1.254 . S
N457 Zn451 2.036 . S
N457 C458 1.298 . S
N457 N460 1.398 . S
C458 N457 1.298 . S
C458 N461 1.367 . S
C458 C471 1.481 . S
C459 N460 1.299 . S
C459 N461 1.379 . S
N460 N457 1.398 . S
N460 C459 1.299 . S
N461 C458 1.367 . S
N461 C459 1.379 . S
C462 N464 1.298 . S
C462 N466 1.367 . S
C462 C470 1.481 . S
C463 N465 1.299 . S
C463 N466 1.379 . S
N464 Zn448 2.036 . S
N464 C462 1.298 . S
N464 N465 1.398 . S
N465 C463 1.299 . S
N465 N464 1.398 . S
N466 C462 1.367 . S
N466 C463 1.379 . S
H467 C470 0.980 . S
H468 C470 0.981 . S
H469 C470 0.981 . S
C470 C462 1.481 . S
C470 H467 0.980 . S
C470 H468 0.981 . S
C470 H469 0.981 . S
C471 C458 1.481 . S
C471 H472 0.980 . S
C471 H473 0.981 . S
C471 H474 0.981 . S
H472 C471 0.980 . S
H473 C471 0.981 . S
H474 C471 0.981 . S
O475 Zn451 2.066 . S
O475 C454 1.256 . S
O476 Zn448 2.053 . S
O476 C454 1.244 . S
C477 O455 1.259 . S
C477 O456 1.254 . S
O478 Zn448 2.066 . S
O478 C450 1.256 . S
O479 C450 1.244 . S
O479 Zn451 2.053 . S
Zn480 O481 2.055 . S
Zn480 O488 2.046 1_556 S
Zn480 N496 2.036 1_556 S
Zn480 O508 2.053 1_556 S
Zn480 O510 2.066 . S
O481 Zn480 2.055 . S
O481 C484 1.259 . S
C482 O510 1.256 . S
C482 O511 1.244 . S
Zn483 O485 2.046 . S
Zn483 O487 2.055 . S
Zn483 N489 2.036 . S
Zn483 O507 2.066 . S
Zn483 O511 2.053 . S
C484 O481 1.259 . S
C484 O485 1.254 . S
O485 Zn483 2.046 . S
O485 C484 1.254 . S
C486 O507 1.256 . S
C486 O508 1.244 1_556 S
O487 Zn483 2.055 . S
O487 C509 1.259 1_556 S
O488 Zn480 2.046 1_554 S
O488 C509 1.254 . S
N489 Zn483 2.036 . S
N489 C490 1.298 . S
N489 N492 1.398 . S
C490 N489 1.298 . S
C490 N493 1.367 . S
C490 C503 1.481 . S
C491 N492 1.299 . S
C491 N493 1.379 . S
N492 N489 1.398 . S
N492 C491 1.299 . S
N493 C490 1.367 . S
N493 C491 1.379 . S
C494 N496 1.298 . S
C494 N498 1.367 . S
C494 C502 1.481 . S
C495 N497 1.299 . S
C495 N498 1.379 . S
N496 Zn480 2.036 1_554 S
N496 C494 1.298 . S
N496 N497 1.398 . S
N497 C495 1.299 . S
N497 N496 1.398 . S
N498 C494 1.367 . S
N498 C495 1.379 . S
H499 C502 0.980 1_556 S
H500 C502 0.981 . S
H501 C502 0.981 1_556 S
C502 C494 1.481 . S
C502 H499 0.980 1_554 S
C502 H500 0.981 . S
C502 H501 0.981 1_554 S
C503 C490 1.481 . S
C503 H504 0.980 . S
C503 H505 0.981 . S
C503 H506 0.981 . S
H504 C503 0.980 . S
H505 C503 0.981 . S
H506 C503 0.981 . S
O507 Zn483 2.066 . S
O507 C486 1.256 . S
O508 Zn480 2.053 1_554 S
O508 C486 1.244 1_554 S
C509 O487 1.259 1_554 S
C509 O488 1.254 . S
O510 Zn480 2.066 . S
O510 C482 1.256 . S
O511 C482 1.244 . S
O511 Zn483 2.053 . S
Zn512 O513 2.055 . S
Zn512 O520 2.046 . S
Zn512 N528 2.036 . S
Zn512 O540 2.053 . S
Zn512 O542 2.066 . S
O513 Zn512 2.055 . S
O513 C516 1.259 1_556 S
C514 O542 1.256 . S
C514 O543 1.244 1_556 S
Zn515 O517 2.046 1_556 S
Zn515 O519 2.055 . S
Zn515 N521 2.036 1_556 S
Zn515 O539 2.066 . S
Zn515 O543 2.053 1_556 S
C516 O513 1.259 1_554 S
C516 O517 1.254 . S
O517 Zn515 2.046 1_554 S
O517 C516 1.254 . S
C518 O539 1.256 . S
C518 O540 1.244 . S
O519 Zn515 2.055 . S
O519 C541 1.259 . S
O520 Zn512 2.046 . S
O520 C541 1.254 . S
N521 Zn515 2.036 1_554 S
N521 C522 1.298 . S
N521 N524 1.398 . S
C522 N521 1.298 . S
C522 N525 1.367 . S
C522 C535 1.481 . S
C523 N524 1.299 . S
C523 N525 1.379 . S
N524 N521 1.398 . S
N524 C523 1.299 . S
N525 C522 1.367 . S
N525 C523 1.379 . S
C526 N528 1.298 . S
C526 N530 1.367 . S
C526 C534 1.481 . S
C527 N529 1.299 . S
C527 N530 1.379 . S
N528 Zn512 2.036 . S
N528 C526 1.298 . S
N528 N529 1.398 . S
N529 C527 1.299 . S
N529 N528 1.398 . S
N530 C526 1.367 . S
N530 C527 1.379 . S
H531 C534 0.980 . S
H532 C534 0.981 . S
H533 C534 0.981 . S
C534 C526 1.481 . S
C534 H531 0.980 . S
C534 H532 0.981 . S
C534 H533 0.981 . S
C535 C522 1.481 . S
C535 H536 0.980 1_554 S
C535 H537 0.981 . S
C535 H538 0.981 1_554 S
H536 C535 0.980 1_556 S
H537 C535 0.981 . S
H538 C535 0.981 1_556 S
O539 Zn515 2.066 . S
O539 C518 1.256 . S
O540 Zn512 2.053 . S
O540 C518 1.244 . S
C541 O519 1.259 . S
C541 O520 1.254 . S
O542 Zn512 2.066 . S
O542 C514 1.256 . S
O543 C514 1.244 1_554 S
O543 Zn515 2.053 1_554 S
Zn544 O545 2.055 . S
Zn544 O552 2.046 . S
Zn544 N560 2.036 . S
Zn544 O572 2.053 . S
Zn544 O574 2.066 . S
O545 Zn544 2.055 . S
O545 C548 1.259 1_556 S
C546 O574 1.256 . S
C546 O575 1.244 1_556 S
Zn547 O549 2.046 1_556 S
Zn547 O551 2.055 . S
Zn547 N553 2.036 1_556 S
Zn547 O571 2.066 . S
Zn547 O575 2.053 1_556 S
C548 O545 1.259 1_554 S
C548 O549 1.254 . S
O549 Zn547 2.046 1_554 S
O549 C548 1.254 . S
C550 O571 1.256 . S
C550 O572 1.244 . S
O551 Zn547 2.055 . S
O551 C573 1.259 . S
O552 Zn544 2.046 . S
O552 C573 1.254 . S
N553 Zn547 2.036 1_554 S
N553 C554 1.298 . S
N553 N556 1.398 . S
C554 N553 1.298 . S
C554 N557 1.367 . S
C554 C567 1.481 . S
C555 N556 1.299 . S
C555 N557 1.379 . S
N556 N553 1.398 . S
N556 C555 1.299 . S
N557 C554 1.367 . S
N557 C555 1.379 . S
C558 N560 1.298 . S
C558 N562 1.367 . S
C558 C566 1.481 . S
C559 N561 1.299 . S
C559 N562 1.379 . S
N560 Zn544 2.036 . S
N560 C558 1.298 . S
N560 N561 1.398 . S
N561 C559 1.299 . S
N561 N560 1.398 . S
N562 C558 1.367 . S
N562 C559 1.379 . S
H563 C566 0.980 . S
H564 C566 0.981 . S
H565 C566 0.981 . S
C566 C558 1.481 . S
C566 H563 0.980 . S
C566 H564 0.981 . S
C566 H565 0.981 . S
C567 C554 1.481 . S
C567 H568 0.980 1_554 S
C567 H569 0.981 . S
C567 H570 0.981 1_554 S
H568 C567 0.980 1_556 S
H569 C567 0.981 . S
H570 C567 0.981 1_556 S
O571 Zn547 2.066 . S
O571 C550 1.256 . S
O572 Zn544 2.053 . S
O572 C550 1.244 . S
C573 O551 1.259 . S
C573 O552 1.254 . S
O574 Zn544 2.066 . S
O574 C546 1.256 . S
O575 C546 1.244 1_554 S
O575 Zn547 2.053 1_554 S
C576 C577 1.387 . S
C576 H580 0.950 . S
C576 C585 1.390 . S
C577 C576 1.387 . S
C577 C579 1.387 . S
H578 C585 0.950 . S
C579 C577 1.387 . S
C579 C581 1.390 . S
C579 H583 0.950 . S
H580 C576 0.950 . S
C581 C579 1.390 . S
C581 C582 1.387 . S
C581 H584 0.950 . S
C582 C581 1.387 . S
C582 C585 1.387 . S
H583 C579 0.950 . S
H584 C581 0.950 . S
C585 C576 1.390 . S
C585 H578 0.950 . S
C585 C582 1.387 . S
C586 C587 1.387 . S
C586 H590 0.950 . S
C586 C595 1.390 . S
C587 C586 1.387 . S
C587 C589 1.387 . S
H588 C595 0.950 . S
C589 C587 1.387 . S
C589 C591 1.390 . S
C589 H593 0.950 . S
H590 C586 0.950 . S
C591 C589 1.390 . S
C591 C592 1.387 . S
C591 H594 0.950 . S
C592 C591 1.387 . S
C592 C595 1.387 . S
H593 C589 0.950 . S
H594 C591 0.950 . S
C595 C586 1.390 . S
C595 H588 0.950 . S
C595 C592 1.387 . S
C596 C597 1.387 . S
C596 H600 0.950 . S
C596 C605 1.390 . S
C597 C596 1.387 . S
C597 C599 1.387 . S
H598 C605 0.950 . S
C599 C597 1.387 . S
C599 C601 1.390 . S
C599 H603 0.950 . S
H600 C596 0.950 . S
C601 C599 1.390 . S
C601 C602 1.387 . S
C601 H604 0.950 . S
C602 C601 1.387 . S
C602 C605 1.387 . S
H603 C599 0.950 . S
H604 C601 0.950 . S
C605 C596 1.390 . S
C605 H598 0.950 . S
C605 C602 1.387 . S
C606 C607 1.387 . S
C606 H610 0.950 . S
C606 C615 1.390 . S
C607 C606 1.387 . S
C607 C609 1.387 . S
H608 C615 0.950 . S
C609 C607 1.387 . S
C609 C611 1.390 . S
C609 H613 0.950 . S
H610 C606 0.950 . S
C611 C609 1.390 . S
C611 C612 1.387 . S
C611 H614 0.950 1_556 S
C612 C611 1.387 . S
C612 C615 1.387 . S
H613 C609 0.950 . S
H614 C611 0.950 1_554 S
C615 C606 1.390 . S
C615 H608 0.950 . S
C615 C612 1.387 . S
C616 C617 1.387 . S
C616 H620 0.950 . S
C616 C625 1.390 . S
C617 C616 1.387 . S
C617 C619 1.387 1_556 S
H618 C625 0.950 . S
C619 C617 1.387 1_554 S
C619 C621 1.390 1_554 S
C619 H623 0.950 . S
H620 C616 0.950 . S
C621 C619 1.390 1_556 S
C621 C622 1.387 . S
C621 H624 0.950 1_556 S
C622 C621 1.387 . S
C622 C625 1.387 . S
H623 C619 0.950 . S
H624 C621 0.950 1_554 S
C625 C616 1.390 . S
C625 H618 0.950 . S
C625 C622 1.387 . S
C626 C627 1.387 . S
C626 H630 0.950 . S
C626 C635 1.390 . S
C627 C626 1.387 . S
C627 C629 1.387 . S
H628 C635 0.950 . S
C629 C627 1.387 . S
C629 C631 1.390 1_556 S
C629 H633 0.950 1_556 S
H630 C626 0.950 . S
C631 C629 1.390 1_554 S
C631 C632 1.387 1_554 S
C631 H634 0.950 . S
C632 C631 1.387 1_556 S
C632 C635 1.387 . S
H633 C629 0.950 1_554 S
H634 C631 0.950 . S
C635 C626 1.390 . S
C635 H628 0.950 . S
C635 C632 1.387 . S
C636 C637 1.387 . S
C636 H640 0.950 . S
C636 C645 1.390 . S
C637 C636 1.387 . S
C637 C639 1.387 . S
H638 C645 0.950 . S
C639 C637 1.387 . S
C639 C641 1.390 . S
C639 H643 0.950 . S
H640 C636 0.950 . S
C641 C639 1.390 . S
C641 C642 1.387 . S
C641 H644 0.950 . S
C642 C641 1.387 . S
C642 C645 1.387 . S
H643 C639 0.950 . S
H644 C641 0.950 . S
C645 C636 1.390 . S
C645 H638 0.950 . S
C645 C642 1.387 . S
C646 C647 1.387 . S
C646 H650 0.950 . S
C646 C655 1.390 . S
C647 C646 1.387 . S
C647 C649 1.387 . S
H648 C655 0.950 . S
C649 C647 1.387 . S
C649 C651 1.390 . S
C649 H653 0.950 . S
H650 C646 0.950 . S
C651 C649 1.390 . S
C651 C652 1.387 . S
C651 H654 0.950 . S
C652 C651 1.387 . S
C652 C655 1.387 . S
H653 C649 0.950 . S
H654 C651 0.950 . S
C655 C646 1.390 . S
C655 H648 0.950 . S
C655 C652 1.387 . S
C656 C657 1.387 . S
C656 H660 0.950 . S
C656 C665 1.390 . S
C657 C656 1.387 . S
C657 C659 1.387 . S
H658 C665 0.950 . S
C659 C657 1.387 . S
C659 C661 1.390 . S
C659 H663 0.950 . S
H660 C656 0.950 . S
C661 C659 1.390 . S
C661 C662 1.387 . S
C661 H664 0.950 . S
C662 C661 1.387 . S
C662 C665 1.387 . S
H663 C659 0.950 . S
H664 C661 0.950 . S
C665 C656 1.390 . S
C665 H658 0.950 . S
C665 C662 1.387 . S
C666 C667 1.387 . S
C666 H670 0.950 . S
C666 C675 1.390 . S
C667 C666 1.387 . S
C667 C669 1.387 . S
H668 C675 0.950 . S
C669 C667 1.387 . S
C669 C671 1.390 . S
C669 H673 0.950 . S
H670 C666 0.950 . S
C671 C669 1.390 . S
C671 C672 1.387 . S
C671 H674 0.950 . S
C672 C671 1.387 . S
C672 C675 1.387 . S
H673 C669 0.950 . S
H674 C671 0.950 . S
C675 C666 1.390 . S
C675 H668 0.950 . S
C675 C672 1.387 . S
C676 C677 1.387 . S
C676 H680 0.950 . S
C676 C685 1.390 . S
C677 C676 1.387 . S
C677 C679 1.387 . S
H678 C685 0.950 . S
C679 C677 1.387 . S
C679 C681 1.390 . S
C679 H683 0.950 1_554 S
H680 C676 0.950 . S
C681 C679 1.390 . S
C681 C682 1.387 . S
C681 H684 0.950 . S
C682 C681 1.387 . S
C682 C685 1.387 . S
H683 C679 0.950 1_556 S
H684 C681 0.950 . S
C685 C676 1.390 . S
C685 H678 0.950 . S
C685 C682 1.387 . S
C686 C687 1.388 . S
C686 H690 0.949 1_554 S
C686 C695 1.390 . S
C687 C686 1.388 . S
C687 C689 1.387 . S
H688 C695 0.950 . S
C689 C687 1.387 . S
C689 C691 1.390 . S
C689 H693 0.950 . S
H690 C686 0.949 1_556 S
C691 C689 1.390 . S
C691 C692 1.387 . S
C691 H694 0.950 . S
C692 C691 1.387 . S
C692 C695 1.387 . S
H693 C689 0.950 . S
H694 C691 0.950 . S
C695 C686 1.390 . S
C695 H688 0.950 . S
C695 C692 1.387 . S
C696 C697 1.387 . S
C696 H700 0.950 . S
C696 C705 1.390 . S
C697 C696 1.387 . S
C697 C699 1.387 . S
H698 C705 0.950 . S
C699 C697 1.387 . S
C699 C701 1.390 . S
C699 H703 0.950 . S
H700 C696 0.950 . S
C701 C699 1.390 . S
C701 C702 1.387 . S
C701 H704 0.950 . S
C702 C701 1.387 . S
C702 C705 1.387 . S
H703 C699 0.950 . S
H704 C701 0.950 . S
C705 C696 1.390 . S
C705 H698 0.950 . S
C705 C702 1.387 . S
C706 C707 1.387 . S
C706 H710 0.950 . S
C706 C715 1.390 . S
C707 C706 1.387 . S
C707 C709 1.387 . S
H708 C715 0.950 . S
C709 C707 1.387 . S
C709 C711 1.390 . S
C709 H713 0.950 . S
H710 C706 0.950 . S
C711 C709 1.390 . S
C711 C712 1.387 . S
C711 H714 0.950 . S
C712 C711 1.387 . S
C712 C715 1.387 . S
H713 C709 0.950 . S
H714 C711 0.950 . S
C715 C706 1.390 . S
C715 H708 0.950 . S
C715 C712 1.387 . S
C716 C717 1.387 . S
C716 H720 0.950 . S
C716 C725 1.390 . S
C717 C716 1.387 . S
C717 C719 1.387 . S
H718 C725 0.950 . S
C719 C717 1.387 . S
C719 C721 1.390 . S
C719 H723 0.950 . S
H720 C716 0.950 . S
C721 C719 1.390 . S
C721 C722 1.387 . S
C721 H724 0.950 . S
C722 C721 1.387 . S
C722 C725 1.387 . S
H723 C719 0.950 . S
H724 C721 0.950 . S
C725 C716 1.390 . S
C725 H718 0.950 . S
C725 C722 1.387 . S
C726 C727 1.387 . S
C726 H730 0.950 . S
C726 C735 1.390 . S
C727 C726 1.387 . S
C727 C729 1.387 . S
H728 C735 0.950 . S
C729 C727 1.387 . S
C729 C731 1.390 . S
C729 H733 0.950 . S
H730 C726 0.950 . S
C731 C729 1.390 . S
C731 C732 1.387 . S
C731 H734 0.950 . S
C732 C731 1.387 . S
C732 C735 1.387 . S
H733 C729 0.950 . S
H734 C731 0.950 . S
C735 C726 1.390 . S
C735 H728 0.950 . S
C735 C732 1.387 . S
C736 C737 1.387 . S
C736 H740 0.950 . S
C736 C745 1.390 . S
C737 C736 1.387 . S
C737 C739 1.387 . S
H738 C745 0.950 . S
C739 C737 1.387 . S
C739 C741 1.390 . S
C739 H743 0.950 . S
H740 C736 0.950 . S
C741 C739 1.390 . S
C741 C742 1.387 . S
C741 H744 0.950 . S
C742 C741 1.387 . S
C742 C745 1.387 . S
H743 C739 0.950 . S
H744 C741 0.950 . S
C745 C736 1.390 . S
C745 H738 0.950 . S
C745 C742 1.387 . S
C746 C747 1.387 . S
C746 H750 0.950 . S
C746 C755 1.390 . S
C747 C746 1.387 . S
C747 C749 1.387 . S
H748 C755 0.950 . S
C749 C747 1.387 . S
C749 C751 1.390 . S
C749 H753 0.950 . S
H750 C746 0.950 . S
C751 C749 1.390 . S
C751 C752 1.387 . S
C751 H754 0.950 . S
C752 C751 1.387 . S
C752 C755 1.387 . S
H753 C749 0.950 . S
H754 C751 0.950 . S
C755 C746 1.390 . S
C755 H748 0.950 . S
C755 C752 1.387 . S
C756 C757 1.387 . S
C756 H760 0.950 . S
C756 C765 1.390 . S
C757 C756 1.387 . S
C757 C759 1.387 . S
H758 C765 0.950 . S
C759 C757 1.387 . S
C759 C761 1.390 . S
C759 H763 0.950 . S
H760 C756 0.950 . S
C761 C759 1.390 . S
C761 C762 1.387 . S
C761 H764 0.950 . S
C762 C761 1.387 . S
C762 C765 1.387 . S
H763 C759 0.950 . S
H764 C761 0.950 . S
C765 C756 1.390 . S
C765 H758 0.950 . S
C765 C762 1.387 . S
C766 C767 1.387 . S
C766 H770 0.950 . S
C766 C775 1.390 . S
C767 C766 1.387 . S
C767 C769 1.387 . S
H768 C775 0.950 . S
C769 C767 1.387 . S
C769 C771 1.390 . S
C769 H773 0.950 . S
H770 C766 0.950 . S
C771 C769 1.390 . S
C771 C772 1.387 . S
C771 H774 0.950 . S
C772 C771 1.387 . S
C772 C775 1.387 . S
H773 C769 0.950 . S
H774 C771 0.950 . S
C775 C766 1.390 . S
C775 H768 0.950 . S
C775 C772 1.387 . S
C776 C777 1.387 . S
C776 H780 0.950 . S
C776 C785 1.390 . S
C777 C776 1.387 . S
C777 C779 1.387 . S
H778 C785 0.950 . S
C779 C777 1.387 . S
C779 C781 1.390 . S
C779 H783 0.950 . S
H780 C776 0.950 . S
C781 C779 1.390 . S
C781 C782 1.387 . S
C781 H784 0.950 . S
C782 C781 1.387 . S
C782 C785 1.387 . S
H783 C779 0.950 . S
H784 C781 0.950 . S
C785 C776 1.390 . S
C785 H778 0.950 . S
C785 C782 1.387 . S
C786 C787 1.387 . S
C786 H790 0.950 . S
C786 C795 1.390 . S
C787 C786 1.387 . S
C787 C789 1.387 . S
H788 C795 0.950 . S
C789 C787 1.387 . S
C789 C791 1.390 . S
C789 H793 0.950 . S
H790 C786 0.950 . S
C791 C789 1.390 . S
C791 C792 1.387 . S
C791 H794 0.950 . S
C792 C791 1.387 . S
C792 C795 1.387 . S
H793 C789 0.950 . S
H794 C791 0.950 . S
C795 C786 1.390 . S
C795 H788 0.950 . S
C795 C792 1.387 . S
C796 C797 1.387 . S
C796 H800 0.950 . S
C796 C805 1.390 . S
C797 C796 1.387 . S
C797 C799 1.387 . S
H798 C805 0.950 . S
C799 C797 1.387 . S
C799 C801 1.390 . S
C799 H803 0.950 . S
H800 C796 0.950 . S
C801 C799 1.390 . S
C801 C802 1.387 . S
C801 H804 0.950 . S
C802 C801 1.387 . S
C802 C805 1.387 . S
H803 C799 0.950 . S
H804 C801 0.950 . S
C805 C796 1.390 . S
C805 H798 0.950 . S
C805 C802 1.387 . S
C806 C807 1.387 . S
C806 H810 0.950 . S
C806 C815 1.390 . S
C807 C806 1.387 . S
C807 C809 1.387 . S
H808 C815 0.950 . S
C809 C807 1.387 . S
C809 C811 1.390 . S
C809 H813 0.950 . S
H810 C806 0.950 . S
C811 C809 1.390 . S
C811 C812 1.387 . S
C811 H814 0.950 . S
C812 C811 1.387 . S
C812 C815 1.387 . S
H813 C809 0.950 . S
H814 C811 0.950 . S
C815 C806 1.390 . S
C815 H808 0.950 . S
C815 C812 1.387 . S
C816 C817 1.387 . S
C816 H820 0.950 . S
C816 C825 1.390 . S
C817 C816 1.387 . S
C817 C819 1.387 . S
H818 C825 0.950 . S
C819 C817 1.387 . S
C819 C821 1.390 . S
C819 H823 0.950 . S
H820 C816 0.950 . S
C821 C819 1.390 . S
C821 C822 1.387 . S
C821 H824 0.950 . S
C822 C821 1.387 . S
C822 C825 1.387 . S
H823 C819 0.950 . S
H824 C821 0.950 . S
C825 C816 1.390 . S
C825 H818 0.950 . S
C825 C822 1.387 . S
C826 C827 1.387 . S
C826 H830 0.950 . S
C826 C835 1.390 . S
C827 C826 1.387 . S
C827 C829 1.387 . S
H828 C835 0.950 . S
C829 C827 1.387 . S
C829 C831 1.390 . S
C829 H833 0.950 . S
H830 C826 0.950 . S
C831 C829 1.390 . S
C831 C832 1.387 . S
C831 H834 0.950 . S
C832 C831 1.387 . S
C832 C835 1.387 . S
H833 C829 0.950 . S
H834 C831 0.950 . S
C835 C826 1.390 . S
C835 H828 0.950 . S
C835 C832 1.387 . S
C836 C837 1.387 . S
C836 H840 0.950 . S
C836 C845 1.390 . S
C837 C836 1.387 . S
C837 C839 1.387 . S
H838 C845 0.950 . S
C839 C837 1.387 . S
C839 C841 1.390 . S
C839 H843 0.950 . S
H840 C836 0.950 . S
C841 C839 1.390 . S
C841 C842 1.387 . S
C841 H844 0.950 . S
C842 C841 1.387 . S
C842 C845 1.387 . S
H843 C839 0.950 . S
H844 C841 0.950 . S
C845 C836 1.390 . S
C845 H838 0.950 . S
C845 C842 1.387 . S
C846 C847 1.387 . S
C846 H850 0.950 . S
C846 C855 1.390 . S
C847 C846 1.387 . S
C847 C849 1.387 . S
H848 C855 0.950 . S
C849 C847 1.387 . S
C849 C851 1.390 . S
C849 H853 0.950 . S
H850 C846 0.950 . S
C851 C849 1.390 . S
C851 C852 1.387 . S
C851 H854 0.950 . S
C852 C851 1.387 . S
C852 C855 1.387 . S
H853 C849 0.950 . S
H854 C851 0.950 . S
C855 C846 1.390 . S
C855 H848 0.950 . S
C855 C852 1.387 . S
C856 C857 1.387 . S
C856 H860 0.950 . S
C856 C865 1.390 . S
C857 C856 1.387 . S
C857 C859 1.387 . S
H858 C865 0.950 . S
C859 C857 1.387 . S
C859 C861 1.390 . S
C859 H863 0.950 . S
H860 C856 0.950 . S
C861 C859 1.390 . S
C861 C862 1.387 . S
C861 H864 0.950 . S
C862 C861 1.387 . S
C862 C865 1.387 . S
H863 C859 0.950 . S
H864 C861 0.950 . S
C865 C856 1.390 . S
C865 H858 0.950 . S
C865 C862 1.387 . S
C866 C867 1.387 . S
C866 H870 0.950 . S
C866 C875 1.390 . S
C867 C866 1.387 . S
C867 C869 1.387 . S
H868 C875 0.950 . S
C869 C867 1.387 . S
C869 C871 1.390 . S
C869 H873 0.950 . S
H870 C866 0.950 . S
C871 C869 1.390 . S
C871 C872 1.387 . S
C871 H874 0.950 . S
C872 C871 1.387 . S
C872 C875 1.387 . S
H873 C869 0.950 . S
H874 C871 0.950 . S
C875 C866 1.390 . S
C875 H868 0.950 . S
C875 C872 1.387 . S
C876 C877 1.387 . S
C876 H880 0.950 . S
C876 C885 1.390 . S
C877 C876 1.387 . S
C877 C879 1.387 . S
H878 C885 0.950 1_556 S
C879 C877 1.387 . S
C879 C881 1.390 . S
C879 H883 0.950 . S
H880 C876 0.950 . S
C881 C879 1.390 . S
C881 C882 1.387 . S
C881 H884 0.950 . S
C882 C881 1.387 . S
C882 C885 1.387 . S
H883 C879 0.950 . S
H884 C881 0.950 . S
C885 C876 1.390 . S
C885 H878 0.950 1_554 S
C885 C882 1.387 . S
C886 C887 1.387 . S
C886 H890 0.950 . S
C886 C895 1.390 . S
C887 C886 1.387 . S
C887 C889 1.387 . S
H888 C895 0.950 . S
C889 C887 1.387 . S
C889 C891 1.390 . S
C889 H893 0.950 . S
H890 C886 0.950 . S
C891 C889 1.390 . S
C891 C892 1.387 . S
C891 H894 0.950 1_554 S
C892 C891 1.387 . S
C892 C895 1.387 . S
H893 C889 0.950 . S
H894 C891 0.950 1_556 S
C895 C886 1.390 . S
C895 H888 0.950 . S
C895 C892 1.387 . S
C896 C897 1.387 . S
C896 H900 0.950 . S
C896 C905 1.390 . S
C897 C896 1.387 . S
C897 C899 1.387 . S
H898 C905 0.950 1_556 S
C899 C897 1.387 . S
C899 C901 1.390 . S
C899 H903 0.950 . S
H900 C896 0.950 . S
C901 C899 1.390 . S
C901 C902 1.387 . S
C901 H904 0.950 . S
C902 C901 1.387 . S
C902 C905 1.387 . S
H903 C899 0.950 . S
H904 C901 0.950 . S
C905 C896 1.390 . S
C905 H898 0.950 1_554 S
C905 C902 1.387 . S
C906 C907 1.387 . S
C906 H910 0.950 . S
C906 C915 1.390 . S
C907 C906 1.387 . S
C907 C909 1.387 . S
H908 C915 0.950 . S
C909 C907 1.387 . S
C909 C911 1.390 . S
C909 H913 0.950 . S
H910 C906 0.950 . S
C911 C909 1.390 . S
C911 C912 1.387 . S
C911 H914 0.950 . S
C912 C911 1.387 . S
C912 C915 1.387 . S
H913 C909 0.950 . S
H914 C911 0.950 . S
C915 C906 1.390 . S
C915 H908 0.950 . S
C915 C912 1.387 . S
C916 C917 1.387 . S
C916 H920 0.950 . S
C916 C925 1.390 . S
C917 C916 1.387 . S
C917 C919 1.387 . S
H918 C925 0.950 . S
C919 C917 1.387 . S
C919 C921 1.390 . S
C919 H923 0.950 . S
H920 C916 0.950 . S
C921 C919 1.390 . S
C921 C922 1.387 . S
C921 H924 0.950 . S
C922 C921 1.387 . S
C922 C925 1.387 . S
H923 C919 0.950 . S
H924 C921 0.950 . S
C925 C916 1.390 . S
C925 H918 0.950 . S
C925 C922 1.387 . S
C926 C927 1.387 . S
C926 H930 0.950 . S
C926 C935 1.390 . S
C927 C926 1.387 . S
C927 C929 1.387 . S
H928 C935 0.950 . S
C929 C927 1.387 . S
C929 C931 1.390 . S
C929 H933 0.950 . S
H930 C926 0.950 . S
C931 C929 1.390 . S
C931 C932 1.387 . S
C931 H934 0.950 . S
C932 C931 1.387 . S
C932 C935 1.387 . S
H933 C929 0.950 . S
H934 C931 0.950 . S
C935 C926 1.390 . S
C935 H928 0.950 . S
C935 C932 1.387 . S
C936 C937 1.387 . S
C936 H940 0.950 . S
C936 C945 1.390 . S
C937 C936 1.387 . S
C937 C939 1.387 . S
H938 C945 0.950 . S
C939 C937 1.387 . S
C939 C941 1.390 . S
C939 H943 0.950 . S
H940 C936 0.950 . S
C941 C939 1.390 . S
C941 C942 1.387 . S
C941 H944 0.950 . S
C942 C941 1.387 . S
C942 C945 1.387 . S
H943 C939 0.950 . S
H944 C941 0.950 . S
C945 C936 1.390 . S
C945 H938 0.950 . S
C945 C942 1.387 . S
C946 C947 1.387 . S
C946 H950 0.950 . S
C946 C955 1.390 . S
C947 C946 1.387 . S
C947 C949 1.387 . S
H948 C955 0.950 . S
C949 C947 1.387 . S
C949 C951 1.390 . S
C949 H953 0.950 . S
H950 C946 0.950 . S
C951 C949 1.390 . S
C951 C952 1.387 . S
C951 H954 0.950 . S
C952 C951 1.387 . S
C952 C955 1.387 . S
H953 C949 0.950 . S
H954 C951 0.950 . S
C955 C946 1.390 . S
C955 H948 0.950 . S
C955 C952 1.387 . S
C956 C957 1.387 . S
C956 H960 0.950 . S
C956 C965 1.390 . S
C957 C956 1.387 . S
C957 C959 1.387 . S
H958 C965 0.950 . S
C959 C957 1.387 . S
C959 C961 1.390 . S
C959 H963 0.950 . S
H960 C956 0.950 . S
C961 C959 1.390 . S
C961 C962 1.387 . S
C961 H964 0.950 . S
C962 C961 1.387 . S
C962 C965 1.387 . S
H963 C959 0.950 . S
H964 C961 0.950 . S
C965 C956 1.390 . S
C965 H958 0.950 . S
C965 C962 1.387 . S
C966 C967 1.387 . S
C966 H970 0.950 . S
C966 C975 1.390 . S
C967 C966 1.387 . S
C967 C969 1.387 . S
H968 C975 0.950 . S
C969 C967 1.387 . S
C969 C971 1.390 . S
C969 H973 0.950 . S
H970 C966 0.950 . S
C971 C969 1.390 . S
C971 C972 1.387 . S
C971 H974 0.950 1_556 S
C972 C971 1.387 . S
C972 C975 1.387 . S
H973 C969 0.950 . S
H974 C971 0.950 1_554 S
C975 C966 1.390 . S
C975 H968 0.950 . S
C975 C972 1.387 . S
C976 C977 1.387 . S
C976 H980 0.950 . S
C976 C985 1.390 . S
C977 C976 1.387 . S
C977 C979 1.387 . S
H978 C985 0.950 . S
C979 C977 1.387 . S
C979 C981 1.390 . S
C979 H983 0.950 1_655 S
H980 C976 0.950 . S
C981 C979 1.390 . S
C981 C982 1.387 . S
C981 H984 0.950 . S
C982 C981 1.387 . S
C982 C985 1.387 . S
H983 C979 0.950 1_455 S
H984 C981 0.950 . S
C985 C976 1.390 . S
C985 H978 0.950 . S
C985 C982 1.387 . S
C986 C987 1.387 . S
C986 H990 0.950 . S
C986 C995 1.390 . S
C987 C986 1.387 . S
C987 C989 1.387 . S
H988 C995 0.950 . S
C989 C987 1.387 . S
C989 C991 1.390 . S
C989 H993 0.950 . S
H990 C986 0.950 . S
C991 C989 1.390 . S
C991 C992 1.387 . S
C991 H994 0.950 . S
C992 C991 1.387 . S
C992 C995 1.387 . S
H993 C989 0.950 . S
H994 C991 0.950 . S
C995 C986 1.390 . S
C995 H988 0.950 . S
C995 C992 1.387 . S
C996 C997 1.387 . S
C996 H1000 0.950 . S
C996 C1005 1.390 . S
C997 C996 1.387 . S
C997 C999 1.387 . S
H998 C1005 0.950 1_455 S
C999 C997 1.387 . S
C999 C1001 1.390 . S
C999 H1003 0.950 . S
H1000 C996 0.950 . S
C1001 C999 1.390 . S
C1001 C1002 1.387 . S
C1001 H1004 0.950 . S
C1002 C1001 1.387 . S
C1002 C1005 1.387 . S
H1003 C999 0.950 . S
H1004 C1001 0.950 . S
C1005 C996 1.390 . S
C1005 H998 0.950 1_655 S
C1005 C1002 1.387 . S
C1006 C1007 1.387 . S
C1006 H1010 0.950 . S
C1006 C1015 1.390 . S
C1007 C1006 1.387 . S
C1007 C1009 1.387 . S
H1008 C1015 0.950 . S
C1009 C1007 1.387 . S
C1009 C1011 1.390 . S
C1009 H1013 0.950 . S
H1010 C1006 0.950 . S
C1011 C1009 1.390 . S
C1011 C1012 1.387 . S
C1011 H1014 0.950 . S
C1012 C1011 1.387 . S
C1012 C1015 1.387 . S
H1013 C1009 0.950 . S
H1014 C1011 0.950 . S
C1015 C1006 1.390 . S
C1015 H1008 0.950 . S
C1015 C1012 1.387 . S
C1016 C1017 1.387 . S
C1016 H1020 0.950 . S
C1016 C1025 1.390 . S
C1017 C1016 1.387 . S
C1017 C1019 1.387 . S
H1018 C1025 0.950 . S
C1019 C1017 1.387 . S
C1019 C1021 1.390 . S
C1019 H1023 0.950 . S
H1020 C1016 0.950 . S
C1021 C1019 1.390 . S
C1021 C1022 1.387 . S
C1021 H1024 0.950 . S
C1022 C1021 1.387 . S
C1022 C1025 1.387 . S
H1023 C1019 0.950 . S
H1024 C1021 0.950 . S
C1025 C1016 1.390 . S
C1025 H1018 0.950 . S
C1025 C1022 1.387 . S
C1026 C1027 1.387 . S
C1026 H1030 0.950 . S
C1026 C1035 1.390 . S
C1027 C1026 1.387 . S
C1027 C1029 1.387 1_554 S
H1028 C1035 0.950 . S
C1029 C1027 1.387 1_556 S
C1029 C1031 1.390 1_556 S
C1029 H1033 0.950 . S
H1030 C1026 0.950 . S
C1031 C1029 1.390 1_554 S
C1031 C1032 1.387 . S
C1031 H1034 0.950 1_554 S
C1032 C1031 1.387 . S
C1032 C1035 1.387 . S
H1033 C1029 0.950 . S
H1034 C1031 0.950 1_556 S
C1035 C1026 1.390 . S
C1035 H1028 0.950 . S
C1035 C1032 1.387 . S
C1036 C1037 1.387 . S
C1036 H1040 0.950 . S
C1036 C1045 1.390 . S
C1037 C1036 1.387 . S
C1037 C1039 1.387 . S
H1038 C1045 0.950 . S
C1039 C1037 1.387 . S
C1039 C1041 1.390 . S
C1039 H1043 0.950 . S
H1040 C1036 0.950 . S
C1041 C1039 1.390 . S
C1041 C1042 1.387 . S
C1041 H1044 0.950 . S
C1042 C1041 1.387 . S
C1042 C1045 1.387 . S
H1043 C1039 0.950 . S
H1044 C1041 0.950 . S
C1045 C1036 1.390 . S
C1045 H1038 0.950 . S
C1045 C1042 1.387 . S
C1046 C1047 1.387 . S
C1046 H1050 0.950 . S
C1046 C1055 1.390 . S
C1047 C1046 1.387 . S
C1047 C1049 1.387 . S
H1048 C1055 0.950 . S
C1049 C1047 1.387 . S
C1049 C1051 1.390 . S
C1049 H1053 0.950 . S
H1050 C1046 0.950 . S
C1051 C1049 1.390 . S
C1051 C1052 1.387 . S
C1051 H1054 0.950 . S
C1052 C1051 1.387 . S
C1052 C1055 1.387 . S
H1053 C1049 0.950 . S
H1054 C1051 0.950 . S
C1055 C1046 1.390 . S
C1055 H1048 0.950 . S
C1055 C1052 1.387 . S
C1056 C1057 1.387 1_455 S
C1056 H1060 0.950 . S
C1056 C1065 1.390 . S
C1057 C1056 1.387 1_655 S
C1057 C1059 1.387 . S
H1058 C1065 0.950 . S
C1059 C1057 1.387 . S
C1059 C1061 1.390 1_655 S
C1059 H1063 0.950 . S
H1060 C1056 0.950 . S
C1061 C1059 1.390 1_455 S
C1061 C1062 1.387 . S
C1061 H1064 0.950 . S
C1062 C1061 1.387 . S
C1062 C1065 1.387 . S
H1063 C1059 0.950 . S
H1064 C1061 0.950 . S
C1065 C1056 1.390 . S
C1065 H1058 0.950 . S
C1065 C1062 1.387 . S
C1066 C1067 1.387 . S
C1066 H1070 0.950 . S
C1066 C1075 1.390 . S
C1067 C1066 1.387 . S
C1067 C1069 1.387 . S
H1068 C1075 0.950 . S
C1069 C1067 1.387 . S
C1069 C1071 1.390 . S
C1069 H1073 0.950 . S
H1070 C1066 0.950 . S
C1071 C1069 1.390 . S
C1071 C1072 1.387 . S
C1071 H1074 0.950 . S
C1072 C1071 1.387 . S
C1072 C1075 1.387 . S
H1073 C1069 0.950 . S
H1074 C1071 0.950 . S
C1075 C1066 1.390 . S
C1075 H1068 0.950 . S
C1075 C1072 1.387 . S
C1076 C1077 1.387 1_545 S
C1076 H1080 0.950 1_545 S
C1076 C1085 1.390 . S
C1077 C1076 1.387 1_565 S
C1077 C1079 1.388 1_565 S
H1078 C1085 0.950 . S
C1079 C1077 1.388 1_545 S
C1079 C1081 1.396 . S
C1079 H1083 0.943 1_545 S
H1080 C1076 0.950 1_565 S
C1081 C1079 1.396 . S
C1081 C1082 1.387 . S
C1081 H1084 0.950 . S
C1082 C1081 1.387 . S
C1082 C1085 1.387 . S
H1083 C1079 0.943 1_565 S
H1084 C1081 0.950 . S
C1085 C1076 1.390 . S
C1085 H1078 0.950 . S
C1085 C1082 1.387 . S
C1086 C1087 1.363 1_545 S
C1086 H1090 0.951 1_545 S
C1086 C1095 1.414 . S
C1087 C1086 1.363 1_565 S
C1087 C1089 1.389 1_565 S
H1088 C1095 0.950 . S
C1089 C1087 1.389 1_545 S
C1089 C1091 1.415 . S
C1089 H1093 0.924 1_545 S
H1090 C1086 0.951 1_565 S
C1091 C1089 1.415 . S
C1091 C1092 1.387 . S
C1091 H1094 0.950 . S
C1092 C1091 1.387 . S
C1092 C1095 1.387 . S
H1093 C1089 0.924 1_565 S
H1094 C1091 0.950 . S
C1095 C1086 1.414 . S
C1095 H1088 0.950 . S
C1095 C1092 1.387 . S
C1096 C1097 1.387 . S
C1096 H1100 0.950 . S
C1096 C1105 1.390 . S
C1097 C1096 1.387 . S
C1097 C1099 1.387 . S
H1098 C1105 0.950 . S
C1099 C1097 1.387 . S
C1099 C1101 1.390 1_455 S
C1099 H1103 0.950 . S
H1100 C1096 0.950 . S
C1101 C1099 1.390 1_655 S
C1101 C1102 1.387 . S
C1101 H1104 0.950 . S
C1102 C1101 1.387 . S
C1102 C1105 1.387 1_655 S
H1103 C1099 0.950 . S
H1104 C1101 0.950 . S
C1105 C1096 1.390 . S
C1105 H1098 0.950 . S
C1105 C1102 1.387 1_455 S
C1106 C1107 1.387 . S
C1106 H1110 0.950 . S
C1106 C1115 1.390 . S
C1107 C1106 1.387 . S
C1107 C1109 1.387 . S
H1108 C1115 0.950 . S
C1109 C1107 1.387 . S
C1109 C1111 1.390 . S
C1109 H1113 0.950 . S
H1110 C1106 0.950 . S
C1111 C1109 1.390 . S
C1111 C1112 1.387 . S
C1111 H1114 0.950 . S
C1112 C1111 1.387 . S
C1112 C1115 1.387 . S
H1113 C1109 0.950 . S
H1114 C1111 0.950 . S
C1115 C1106 1.390 . S
C1115 H1108 0.950 . S
C1115 C1112 1.387 . S
C577 C6 1.894 . S
C582 N146 1.807 . S
C587 N178 1.804 . S
C592 C38 1.891 . S
C597 C66 1.893 . S
C602 N114 1.806 . S
C607 C70 1.891 . S
C612 N141 1.805 1_556 S
C617 N173 1.804 1_556 S
C622 C2 1.891 . S
C627 C34 1.891 . S
C632 N109 1.804 1_556 S
C637 N50 1.804 . S
C642 C102 1.891 . S
C647 N77 1.807 . S
C652 C134 1.894 . S
C657 C166 1.894 . S
C662 N18 1.808 . S
C667 C162 1.893 . S
C672 N45 1.805 1_554 S
C677 N82 1.807 1_554 S
C682 C98 1.895 . S
C687 N13 1.804 1_554 S
C692 C130 1.891 . S
C697 N333 1.805 . S
C702 C198 1.893 1_556 S
C707 C230 1.894 1_556 S
C712 N370 1.807 . S
C717 C262 1.894 1_556 S
C722 N306 1.807 . S
C727 N338 1.806 . S
C732 C258 1.893 . S
C737 N365 1.804 . S
C742 C194 1.891 . S
C747 N301 1.805 . S
C752 C226 1.893 . S
C757 N242 1.804 . S
C762 C294 1.892 . S
C767 N274 1.804 . S
C772 C322 1.891 . S
C777 N210 1.807 . S
C782 C358 1.893 . S
C787 N237 1.808 . S
C792 C354 1.894 . S
C797 N269 1.807 . S
C802 C290 1.894 . S
C807 C326 1.893 . S
C812 N205 1.805 . S
C817 C390 1.891 . S
C822 N525 1.804 . S
C827 C418 1.894 . S
C832 N557 1.807 . S
C837 N498 1.804 . S
C842 C454 1.891 . S
C847 N530 1.805 . S
C852 C450 1.892 . S
C857 C386 1.895 . S
C862 N562 1.808 . S
C867 C422 1.892 . S
C872 N493 1.804 . S
C877 N429 1.807 . S
C882 C486 1.894 1_554 S
C887 N466 1.804 . S
C892 C514 1.891 1_554 S
C897 N402 1.807 . S
C902 C546 1.893 1_554 S
C907 C550 1.892 . S
C912 N434 1.805 . S
C917 C482 1.894 . S
C922 N461 1.807 . S
C927 N397 1.807 . S
C932 C518 1.894 . S
C937 C29 1.298 . S
C942 C445 1.298 . S
C947 C61 1.299 . S
C952 C452 1.297 . S
C957 C68 1.299 . S
C962 C388 1.299 . S
C967 C93 1.297 . S
C972 C253 1.299 . S
C977 C4 1.298 . S
C982 C285 1.298 . S
C987 C36 1.299 . S
C992 C221 1.299 . S
C997 C349 1.298 . S
C1002 C125 1.298 . S
C1007 C157 1.299 . S
C1012 C356 1.300 . S
C1017 C189 1.300 . S
C1022 C292 1.298 . S
C1027 C516 1.298 . S
C1032 C164 1.300 . S
C1037 C100 1.298 . S
C1042 C548 1.298 . S
C1047 C132 1.298 . S
C1052 C509 1.298 . S
C1057 C260 1.297 . S
C1062 C420 1.299 . S
C1067 C196 1.298 . S
C1072 C477 1.300 . S
C1077 C413 1.299 . S
C1082 C228 1.299 . S
C1087 C541 1.299 . S
C1092 C317 1.299 . S
C1097 C573 1.297 . S
C1102 C324 1.299 . S
C1107 C381 1.297 . S
C1112 C484 1.299 . S
