# Generated by pormake.
# Topology ums, (4)-cn, num edge types: 1
# Building blocks:
#     Node 0, Type 0, BuildingBlock: QUQFOY_clean_sbu_3, # of connection points: 4
#     Node 1, Type 0, BuildingBlock: QUQFOY_clean_sbu_3, # of connection points: 4
#     Node 2, Type 0, BuildingBlock: QUQFOY_clean_sbu_3, # of connection points: 4
#     Node 3, Type 0, BuildingBlock: QUQFOY_clean_sbu_3, # of connection points: 4
#     Node 4, Type 0, BuildingBlock: QUQFOY_clean_sbu_3, # of connection points: 4
#     Node 5, Type 0, BuildingBlock: QUQFOY_clean_sbu_3, # of connection points: 4
#     Node 6, Type 0, BuildingBlock: QUQFOY_clean_sbu_3, # of connection points: 4
#     Node 7, Type 0, BuildingBlock: QUQFOY_clean_sbu_3, # of connection points: 4
#     Node 8, Type 0, BuildingBlock: QUQFOY_clean_sbu_3, # of connection points: 4
#     Node 9, Type 0, BuildingBlock: QUQFOY_clean_sbu_3, # of connection points: 4
#     Node 10, Type 0, BuildingBlock: QUQFOY_clean_sbu_3, # of connection points: 4
#     Node 11, Type 0, BuildingBlock: QUQFOY_clean_sbu_3, # of connection points: 4
#     Node 12, Type 0, BuildingBlock: QUQFOY_clean_sbu_3, # of connection points: 4
#     Node 13, Type 0, BuildingBlock: QUQFOY_clean_sbu_3, # of connection points: 4
#     Node 14, Type 0, BuildingBlock: QUQFOY_clean_sbu_3, # of connection points: 4
#     Node 15, Type 0, BuildingBlock: QUQFOY_clean_sbu_3, # of connection points: 4
#     Node 16, Type 0, BuildingBlock: QUQFOY_clean_sbu_3, # of connection points: 4
#     Node 17, Type 0, BuildingBlock: QUQFOY_clean_sbu_3, # of connection points: 4
#     Node 18, Type 0, BuildingBlock: QUQFOY_clean_sbu_3, # of connection points: 4
#     Node 19, Type 0, BuildingBlock: QUQFOY_clean_sbu_3, # of connection points: 4
#     Node 20, Type 0, BuildingBlock: QUQFOY_clean_sbu_3, # of connection points: 4
#     Node 21, Type 0, BuildingBlock: QUQFOY_clean_sbu_3, # of connection points: 4
#     Node 22, Type 0, BuildingBlock: QUQFOY_clean_sbu_3, # of connection points: 4
#     Node 23, Type 0, BuildingBlock: QUQFOY_clean_sbu_3, # of connection points: 4
#     Node 24, Type 0, BuildingBlock: QUQFOY_clean_sbu_3, # of connection points: 4
#     Node 25, Type 0, BuildingBlock: QUQFOY_clean_sbu_3, # of connection points: 4
#     Node 26, Type 0, BuildingBlock: QUQFOY_clean_sbu_3, # of connection points: 4
#     Node 27, Type 0, BuildingBlock: QUQFOY_clean_sbu_3, # of connection points: 4
#     Node 28, Type 0, BuildingBlock: QUQFOY_clean_sbu_3, # of connection points: 4
#     Node 29, Type 0, BuildingBlock: QUQFOY_clean_sbu_3, # of connection points: 4
#     Node 30, Type 0, BuildingBlock: QUQFOY_clean_sbu_3, # of connection points: 4
#     Node 31, Type 0, BuildingBlock: QUQFOY_clean_sbu_3, # of connection points: 4
#     Node 32, Type 0, BuildingBlock: QUQFOY_clean_sbu_3, # of connection points: 4
#     Node 33, Type 0, BuildingBlock: QUQFOY_clean_sbu_3, # of connection points: 4
#     Node 34, Type 0, BuildingBlock: QUQFOY_clean_sbu_3, # of connection points: 4
#     Node 35, Type 0, BuildingBlock: QUQFOY_clean_sbu_3, # of connection points: 4
#     Edge 36, Type (0, 0), BuildingBlock: OJICUG_clean_linker_0, # of connection points: 2
#     Edge 37, Type (0, 0), BuildingBlock: OJICUG_clean_linker_0, # of connection points: 2
#     Edge 38, Type (0, 0), BuildingBlock: OJICUG_clean_linker_0, # of connection points: 2
#     Edge 39, Type (0, 0), BuildingBlock: OJICUG_clean_linker_0, # of connection points: 2
#     Edge 40, Type (0, 0), BuildingBlock: OJICUG_clean_linker_0, # of connection points: 2
#     Edge 41, Type (0, 0), BuildingBlock: OJICUG_clean_linker_0, # of connection points: 2
#     Edge 42, Type (0, 0), BuildingBlock: OJICUG_clean_linker_0, # of connection points: 2
#     Edge 43, Type (0, 0), BuildingBlock: OJICUG_clean_linker_0, # of connection points: 2
#     Edge 44, Type (0, 0), BuildingBlock: OJICUG_clean_linker_0, # of connection points: 2
#     Edge 45, Type (0, 0), BuildingBlock: OJICUG_clean_linker_0, # of connection points: 2
#     Edge 46, Type (0, 0), BuildingBlock: OJICUG_clean_linker_0, # of connection points: 2
#     Edge 47, Type (0, 0), BuildingBlock: OJICUG_clean_linker_0, # of connection points: 2
#     Edge 48, Type (0, 0), BuildingBlock: OJICUG_clean_linker_0, # of connection points: 2
#     Edge 49, Type (0, 0), BuildingBlock: OJICUG_clean_linker_0, # of connection points: 2
#     Edge 50, Type (0, 0), BuildingBlock: OJICUG_clean_linker_0, # of connection points: 2
#     Edge 51, Type (0, 0), BuildingBlock: OJICUG_clean_linker_0, # of connection points: 2
#     Edge 52, Type (0, 0), BuildingBlock: OJICUG_clean_linker_0, # of connection points: 2
#     Edge 53, Type (0, 0), BuildingBlock: OJICUG_clean_linker_0, # of connection points: 2
#     Edge 54, Type (0, 0), BuildingBlock: OJICUG_clean_linker_0, # of connection points: 2
#     Edge 55, Type (0, 0), BuildingBlock: OJICUG_clean_linker_0, # of connection points: 2
#     Edge 56, Type (0, 0), BuildingBlock: OJICUG_clean_linker_0, # of connection points: 2
#     Edge 57, Type (0, 0), BuildingBlock: OJICUG_clean_linker_0, # of connection points: 2
#     Edge 58, Type (0, 0), BuildingBlock: OJICUG_clean_linker_0, # of connection points: 2
#     Edge 59, Type (0, 0), BuildingBlock: OJICUG_clean_linker_0, # of connection points: 2
#     Edge 60, Type (0, 0), BuildingBlock: OJICUG_clean_linker_0, # of connection points: 2
#     Edge 61, Type (0, 0), BuildingBlock: OJICUG_clean_linker_0, # of connection points: 2
#     Edge 62, Type (0, 0), BuildingBlock: OJICUG_clean_linker_0, # of connection points: 2
#     Edge 63, Type (0, 0), BuildingBlock: OJICUG_clean_linker_0, # of connection points: 2
#     Edge 64, Type (0, 0), BuildingBlock: OJICUG_clean_linker_0, # of connection points: 2
#     Edge 65, Type (0, 0), BuildingBlock: OJICUG_clean_linker_0, # of connection points: 2
#     Edge 66, Type (0, 0), BuildingBlock: OJICUG_clean_linker_0, # of connection points: 2
#     Edge 67, Type (0, 0), BuildingBlock: OJICUG_clean_linker_0, # of connection points: 2
#     Edge 68, Type (0, 0), BuildingBlock: OJICUG_clean_linker_0, # of connection points: 2
#     Edge 69, Type (0, 0), BuildingBlock: OJICUG_clean_linker_0, # of connection points: 2
#     Edge 70, Type (0, 0), BuildingBlock: OJICUG_clean_linker_0, # of connection points: 2
#     Edge 71, Type (0, 0), BuildingBlock: OJICUG_clean_linker_0, # of connection points: 2
#     Edge 72, Type (0, 0), BuildingBlock: OJICUG_clean_linker_0, # of connection points: 2
#     Edge 73, Type (0, 0), BuildingBlock: OJICUG_clean_linker_0, # of connection points: 2
#     Edge 74, Type (0, 0), BuildingBlock: OJICUG_clean_linker_0, # of connection points: 2
#     Edge 75, Type (0, 0), BuildingBlock: OJICUG_clean_linker_0, # of connection points: 2
#     Edge 76, Type (0, 0), BuildingBlock: OJICUG_clean_linker_0, # of connection points: 2
#     Edge 77, Type (0, 0), BuildingBlock: OJICUG_clean_linker_0, # of connection points: 2
#     Edge 78, Type (0, 0), BuildingBlock: OJICUG_clean_linker_0, # of connection points: 2
#     Edge 79, Type (0, 0), BuildingBlock: OJICUG_clean_linker_0, # of connection points: 2
#     Edge 80, Type (0, 0), BuildingBlock: OJICUG_clean_linker_0, # of connection points: 2
#     Edge 81, Type (0, 0), BuildingBlock: OJICUG_clean_linker_0, # of connection points: 2
#     Edge 82, Type (0, 0), BuildingBlock: OJICUG_clean_linker_0, # of connection points: 2
#     Edge 83, Type (0, 0), BuildingBlock: OJICUG_clean_linker_0, # of connection points: 2
#     Edge 84, Type (0, 0), BuildingBlock: OJICUG_clean_linker_0, # of connection points: 2
#     Edge 85, Type (0, 0), BuildingBlock: OJICUG_clean_linker_0, # of connection points: 2
#     Edge 86, Type (0, 0), BuildingBlock: OJICUG_clean_linker_0, # of connection points: 2
#     Edge 87, Type (0, 0), BuildingBlock: OJICUG_clean_linker_0, # of connection points: 2
#     Edge 88, Type (0, 0), BuildingBlock: OJICUG_clean_linker_0, # of connection points: 2
#     Edge 89, Type (0, 0), BuildingBlock: OJICUG_clean_linker_0, # of connection points: 2
#     Edge 90, Type (0, 0), BuildingBlock: OJICUG_clean_linker_0, # of connection points: 2
#     Edge 91, Type (0, 0), BuildingBlock: OJICUG_clean_linker_0, # of connection points: 2
#     Edge 92, Type (0, 0), BuildingBlock: OJICUG_clean_linker_0, # of connection points: 2
#     Edge 93, Type (0, 0), BuildingBlock: OJICUG_clean_linker_0, # of connection points: 2
#     Edge 94, Type (0, 0), BuildingBlock: OJICUG_clean_linker_0, # of connection points: 2
#     Edge 95, Type (0, 0), BuildingBlock: OJICUG_clean_linker_0, # of connection points: 2
#     Edge 96, Type (0, 0), BuildingBlock: OJICUG_clean_linker_0, # of connection points: 2
#     Edge 97, Type (0, 0), BuildingBlock: OJICUG_clean_linker_0, # of connection points: 2
#     Edge 98, Type (0, 0), BuildingBlock: OJICUG_clean_linker_0, # of connection points: 2
#     Edge 99, Type (0, 0), BuildingBlock: OJICUG_clean_linker_0, # of connection points: 2
#     Edge 100, Type (0, 0), BuildingBlock: OJICUG_clean_linker_0, # of connection points: 2
#     Edge 101, Type (0, 0), BuildingBlock: OJICUG_clean_linker_0, # of connection points: 2
#     Edge 102, Type (0, 0), BuildingBlock: OJICUG_clean_linker_0, # of connection points: 2
#     Edge 103, Type (0, 0), BuildingBlock: OJICUG_clean_linker_0, # of connection points: 2
#     Edge 104, Type (0, 0), BuildingBlock: OJICUG_clean_linker_0, # of connection points: 2
#     Edge 105, Type (0, 0), BuildingBlock: OJICUG_clean_linker_0, # of connection points: 2
#     Edge 106, Type (0, 0), BuildingBlock: OJICUG_clean_linker_0, # of connection points: 2
#     Edge 107, Type (0, 0), BuildingBlock: OJICUG_clean_linker_0, # of connection points: 2
# Relax obj value: 0.189
# Max RMSD: 0.144
# Mean RMSD: 0.143
data_MOF--net-ums--node1-QUQFOY_clean_sbu_3--edge1-OJICUG_clean_linker_0
_symmetry_space_group_name_H-M    P1
_symmetry_Int_Tables_number       1
_symmetry_cell_setting            triclinic
loop_
_symmetry_equiv_pos_as_xyz
'x, y, z'
_cell_length_a     77.357767
_cell_length_b     77.089264
_cell_length_c     17.636891
_cell_angle_alpha  90.172831
_cell_angle_beta   90.019536
_cell_angle_gamma 119.9708
loop_
_atom_site_label
_atom_site_type_symbol
_atom_site_fract_x
_atom_site_fract_y
_atom_site_fract_z
_atom_type_partial_charge
C0 C 0.19204 0.30558 0.1921 0.0
O1 O 0.18675 0.31297 0.24567 0.0
Cd2 Cd 0.15808 0.29122 0.32075 0.0
O3 O 0.18521 0.28677 0.18803 0.0
Cd4 Cd 0.16475 0.25564 0.26029 0.0
C5 C 0.12961 0.26133 0.17054 0.0
O6 O 0.16431 0.26786 0.38666 0.0
O7 O 0.141 0.23775 0.36002 0.0
O8 O 0.19344 0.25114 0.2649 0.0
C9 C 0.14912 0.25177 0.4085 0.0
O10 O 0.13332 0.27514 0.21874 0.0
C11 C 0.18435 0.23331 0.23959 0.0
O12 O 0.13901 0.25168 0.17235 0.0
O13 O 0.16594 0.22578 0.22345 0.0
C14 C 0.67649 0.88467 0.2085 0.0
O15 O 0.66802 0.87249 0.26263 0.0
Cd16 Cd 0.68809 0.86558 0.34819 0.0
O17 O 0.69534 0.89614 0.20852 0.0
Cd18 Cd 0.72499 0.90641 0.29003 0.0
C19 C 0.71961 0.86438 0.21112 0.0
O20 O 0.71107 0.8953 0.41564 0.0
O21 O 0.74089 0.90042 0.3969 0.0
O22 O 0.73004 0.93984 0.28831 0.0
C23 C 0.72655 0.89575 0.44247 0.0
O24 O 0.70496 0.85502 0.25627 0.0
C25 C 0.74804 0.9482 0.26602 0.0
O26 O 0.72966 0.88344 0.21097 0.0
O27 O 0.75552 0.93699 0.25483 0.0
C28 C 0.09269 0.78798 0.20625 0.0
O29 O 0.10489 0.79188 0.26059 0.0
Cd30 Cd 0.1115 0.81896 0.34572 0.0
O31 O 0.08109 0.79523 0.20584 0.0
Cd32 Cd 0.07048 0.81451 0.28679 0.0
C33 C 0.11207 0.85134 0.20804 0.0
O34 O 0.08172 0.81178 0.4123 0.0
O35 O 0.07623 0.83636 0.3943 0.0
O36 O 0.03746 0.78569 0.28461 0.0
C37 C 0.08106 0.82672 0.43961 0.0
O38 O 0.12153 0.84619 0.25346 0.0
C39 C 0.02874 0.79508 0.26305 0.0
O40 O 0.09307 0.84221 0.20763 0.0
O41 O 0.03956 0.81383 0.25224 0.0
C42 C 0.29622 0.19512 0.25799 0.0
O43 O 0.30437 0.19081 0.20425 0.0
Cd44 Cd 0.28356 0.16378 0.11934 0.0
O45 O 0.27746 0.18826 0.25796 0.0
Cd46 Cd 0.24769 0.16928 0.17681 0.0
C47 C 0.25134 0.13183 0.25645 0.0
O48 O 0.26136 0.17133 0.05102 0.0
O49 O 0.23122 0.14724 0.07041 0.0
O50 O 0.24419 0.19861 0.178 0.0
C51 C 0.24557 0.15651 0.02453 0.0
O52 O 0.26588 0.1366 0.21121 0.0
C53 C 0.22608 0.18956 0.19913 0.0
O54 O 0.24189 0.14144 0.25671 0.0
O55 O 0.21785 0.17079 0.21016 0.0
C56 C 0.78498 0.09709 0.27058 0.0
O57 O 0.78794 0.1088 0.21536 0.0
Cd58 Cd 0.8148 0.1158 0.12953 0.0
O59 O 0.79276 0.08594 0.27079 0.0
Cd60 Cd 0.81168 0.07511 0.18959 0.0
C61 C 0.84761 0.11747 0.26826 0.0
O62 O 0.80828 0.08587 0.06458 0.0
O63 O 0.8332 0.08095 0.08141 0.0
O64 O 0.78276 0.04228 0.19318 0.0
C65 C 0.82329 0.08558 0.03673 0.0
O66 O 0.84195 0.12648 0.22265 0.0
C67 C 0.79193 0.03334 0.21479 0.0
O68 O 0.83914 0.09843 0.26865 0.0
O69 O 0.81071 0.04395 0.22459 0.0
C70 C 0.87962 0.6817 0.27418 0.0
O71 O 0.8676 0.67322 0.21942 0.0
Cd72 Cd 0.86093 0.69351 0.13413 0.0
O73 O 0.89112 0.70061 0.27461 0.0
Cd74 Cd 0.90184 0.73037 0.19346 0.0
C75 C 0.86018 0.7253 0.27236 0.0
O76 O 0.89061 0.7164 0.06776 0.0
O77 O 0.89594 0.74641 0.08676 0.0
O78 O 0.93477 0.73448 0.19519 0.0
C79 C 0.89114 0.73196 0.04107 0.0
O80 O 0.8508 0.71063 0.22671 0.0
C81 C 0.94359 0.75262 0.21705 0.0
O82 O 0.87918 0.73534 0.27288 0.0
O83 O 0.93286 0.76063 0.2282 0.0
C84 C 0.78368 0.68159 0.77404 0.0
O85 O 0.78727 0.67313 0.71928 0.0
Cd86 Cd 0.81413 0.69345 0.63404 0.0
O87 O 0.79098 0.7005 0.7745 0.0
Cd88 Cd 0.8099 0.73027 0.69341 0.0
C89 C 0.84654 0.72523 0.77228 0.0
O90 O 0.80723 0.71634 0.56764 0.0
O91 O 0.83179 0.74635 0.58682 0.0
O92 O 0.78111 0.73448 0.69513 0.0
C93 C 0.82221 0.73192 0.54105 0.0
O94 O 0.84133 0.71057 0.72662 0.0
C95 C 0.79039 0.7526 0.71724 0.0
O96 O 0.83751 0.73524 0.7728 0.0
O97 O 0.80908 0.76055 0.72849 0.0
C98 C 0.29221 0.09727 0.75625 0.0
O99 O 0.30086 0.10896 0.70097 0.0
Cd100 Cd 0.28091 0.11587 0.61501 0.0
O101 O 0.27333 0.08606 0.75648 0.0
Cd102 Cd 0.24354 0.07511 0.67556 0.0
C103 C 0.24982 0.11755 0.75378 0.0
O104 O 0.25757 0.08588 0.55046 0.0
O105 O 0.22771 0.08083 0.56736 0.0
O106 O 0.23957 0.04216 0.68003 0.0
C107 C 0.24225 0.08558 0.52269 0.0
O108 O 0.26442 0.12658 0.70812 0.0
C109 C 0.22157 0.03339 0.70235 0.0
O110 O 0.23937 0.0985 0.75426 0.0
O111 O 0.21348 0.04411 0.71183 0.0
C112 C 0.87718 0.19452 0.77228 0.0
O113 O 0.86482 0.19016 0.71819 0.0
Cd114 Cd 0.85922 0.16339 0.63276 0.0
O115 O 0.8893 0.1879 0.77241 0.0
Cd116 Cd 0.90068 0.16936 0.69168 0.0
C117 C 0.85979 0.13151 0.76976 0.0
O118 O 0.88918 0.17129 0.56558 0.0
O119 O 0.89565 0.14743 0.58529 0.0
O120 O 0.93334 0.19877 0.69258 0.0
C121 C 0.89044 0.15659 0.53922 0.0
O122 O 0.84992 0.13615 0.7243 0.0
C123 C 0.94241 0.18986 0.71572 0.0
O124 O 0.87879 0.14132 0.77056 0.0
O125 O 0.93193 0.17114 0.72801 0.0
C126 C 0.67698 0.78845 0.70685 0.0
O127 O 0.66844 0.79187 0.76165 0.0
Cd128 Cd 0.6885 0.8187 0.84825 0.0
O129 O 0.69582 0.79583 0.70703 0.0
Cd130 Cd 0.72541 0.81467 0.78925 0.0
C131 C 0.72019 0.85141 0.71133 0.0
O132 O 0.71128 0.81165 0.91444 0.0
O133 O 0.74123 0.83632 0.8973 0.0
O134 O 0.72963 0.78581 0.78601 0.0
C135 C 0.72674 0.8266 0.94218 0.0
O136 O 0.70553 0.84606 0.75653 0.0
C137 C 0.74773 0.79521 0.76482 0.0
O138 O 0.73028 0.84245 0.7109 0.0
O139 O 0.75565 0.81399 0.75477 0.0
C140 C 0.18837 0.88454 0.70774 0.0
O141 O 0.18471 0.8725 0.76241 0.0
Cd142 Cd 0.15783 0.86589 0.84761 0.0
O143 O 0.18102 0.89608 0.70705 0.0
Cd144 Cd 0.16181 0.90684 0.78752 0.0
C145 C 0.12528 0.86467 0.70941 0.0
O146 O 0.16476 0.89591 0.91322 0.0
O147 O 0.14013 0.90119 0.895 0.0
O148 O 0.19016 0.94022 0.78377 0.0
C149 C 0.1498 0.89643 0.94035 0.0
O150 O 0.13057 0.85536 0.755 0.0
C151 C 0.1805 0.94855 0.76095 0.0
O152 O 0.13422 0.88374 0.70889 0.0
O153 O 0.16182 0.93737 0.7507 0.0
C154 C 0.08166 0.29523 0.64287 0.0
O155 O 0.07523 0.29649 0.7074 0.0
Cd156 Cd 0.07594 0.26638 0.75061 0.0
O157 O 0.08336 0.27999 0.63053 0.0
Cd158 Cd 0.07058 0.25459 0.74276 0.0
C159 C 0.10156 0.25221 0.65618 0.0
O160 O 0.08395 0.27007 0.8755 0.0
O161 O 0.0841 0.24304 0.84549 0.0
O162 O 0.03776 0.25206 0.74995 0.0
C163 C 0.08741 0.25629 0.89523 0.0
O164 O 0.1064 0.2683 0.69188 0.0
C165 C 0.02806 0.23314 0.74238 0.0
O166 O 0.08357 0.23832 0.66102 0.0
O167 O 0.03812 0.2243 0.73561 0.0
C168 C 0.85692 0.63625 0.54809 0.0
O169 O 0.85328 0.64471 0.60273 0.0
Cd170 Cd 0.8265 0.62444 0.68835 0.0
O171 O 0.84963 0.61735 0.54765 0.0
Cd172 Cd 0.83059 0.58752 0.62832 0.0
C173 C 0.79389 0.59275 0.55052 0.0
O174 O 0.83358 0.60156 0.75413 0.0
O175 O 0.80905 0.5715 0.73586 0.0
O176 O 0.85914 0.58288 0.62441 0.0
C177 C 0.81871 0.586 0.78129 0.0
O178 O 0.79916 0.60743 0.59612 0.0
C179 C 0.84957 0.56479 0.60203 0.0
O180 O 0.80289 0.58271 0.54986 0.0
O181 O 0.83086 0.55707 0.59193 0.0
C182 C 0.34168 0.21921 0.53244 0.0
O183 O 0.33298 0.20753 0.5877 0.0
Cd184 Cd 0.3526 0.20029 0.67402 0.0
O185 O 0.36058 0.23032 0.5322 0.0
Cd186 Cd 0.39016 0.24074 0.6143 0.0
C187 C 0.3836 0.19819 0.53619 0.0
O188 O 0.376 0.23006 0.73952 0.0
O189 O 0.40558 0.23441 0.72219 0.0
O190 O 0.39548 0.27428 0.61092 0.0
C191 C 0.39118 0.23007 0.76715 0.0
O192 O 0.36894 0.18923 0.58164 0.0
C193 C 0.41356 0.2825 0.58971 0.0
O194 O 0.39415 0.21722 0.53576 0.0
O195 O 0.42094 0.27116 0.57964 0.0
C196 C 0.76257 0.12007 0.54538 0.0
O197 O 0.77496 0.12438 0.59935 0.0
Cd198 Cd 0.7807 0.15106 0.68548 0.0
O199 O 0.75051 0.12676 0.54539 0.0
Cd200 Cd 0.73942 0.14548 0.62636 0.0
C201 C 0.78061 0.18332 0.54943 0.0
O202 O 0.75067 0.14308 0.7525 0.0
O203 O 0.74438 0.16709 0.73364 0.0
O204 O 0.70634 0.11655 0.62349 0.0
C205 C 0.74942 0.15774 0.77943 0.0
O206 O 0.79041 0.17856 0.59469 0.0
C207 C 0.69779 0.12602 0.60085 0.0
O208 O 0.76161 0.17359 0.54859 0.0
O209 O 0.70873 0.14473 0.58967 0.0
C210 C 0.96164 0.52692 0.59964 0.0
O211 O 0.96957 0.52257 0.54527 0.0
Cd212 Cd 0.94855 0.49555 0.46099 0.0
O213 O 0.94288 0.52011 0.60068 0.0
Cd214 Cd 0.91268 0.50115 0.52126 0.0
C215 C 0.91674 0.46377 0.59971 0.0
O216 O 0.92624 0.50338 0.39543 0.0
O217 O 0.89606 0.47934 0.41399 0.0
O218 O 0.90893 0.53034 0.52445 0.0
C219 C 0.91049 0.48863 0.36846 0.0
O220 O 0.93117 0.46852 0.55388 0.0
C221 C 0.89097 0.52121 0.54723 0.0
O222 O 0.90724 0.47332 0.6004 0.0
O223 O 0.88289 0.50243 0.55783 0.0
C224 C 0.45362 0.43301 0.59963 0.0
O225 O 0.45727 0.44499 0.54476 0.0
Cd226 Cd 0.48399 0.45109 0.45955 0.0
O227 O 0.46069 0.42123 0.59998 0.0
Cd228 Cd 0.47908 0.4097 0.51881 0.0
C229 C 0.51604 0.45128 0.59823 0.0
O230 O 0.47652 0.421 0.39351 0.0
O231 O 0.50076 0.4151 0.41159 0.0
O232 O 0.44971 0.37707 0.52067 0.0
C233 C 0.4913 0.42016 0.36635 0.0
O234 O 0.51099 0.4608 0.55264 0.0
C235 C 0.45854 0.3678 0.54235 0.0
O236 O 0.50684 0.4322 0.59851 0.0
O237 O 0.47729 0.37813 0.55326 0.0
C238 C 0.55556 0.02325 0.68487 0.0
O239 O 0.55721 0.01899 0.6168 0.0
Cd240 Cd 0.56201 0.05153 0.57546 0.0
O241 O 0.55886 0.04079 0.69829 0.0
Cd242 Cd 0.56987 0.06547 0.58466 0.0
C243 C 0.53953 0.06755 0.68011 0.0
O244 O 0.55391 0.05108 0.45252 0.0
O245 O 0.55746 0.0795 0.4882 0.0
O246 O 0.60176 0.06668 0.56878 0.0
C247 C 0.55224 0.06624 0.43676 0.0
O248 O 0.5337 0.05175 0.64118 0.0
C249 C 0.61215 0.0855 0.57859 0.0
O250 O 0.5577 0.08097 0.67441 0.0
O251 O 0.60281 0.09491 0.59038 0.0
C252 C 0.4471 0.02343 0.18468 0.0
O253 O 0.44126 0.01915 0.11653 0.0
Cd254 Cd 0.46892 0.05167 0.07537 0.0
O255 O 0.46125 0.04098 0.1982 0.0
Cd256 Cd 0.475 0.06565 0.08451 0.0
C257 C 0.50732 0.06761 0.18028 0.0
O258 O 0.4766 0.05117 0.95254 0.0
O259 O 0.50145 0.07951 0.98838 0.0
O260 O 0.44445 0.06706 0.06749 0.0
C261 C 0.49341 0.06626 0.9369 0.0
O262 O 0.49737 0.05181 0.1414 0.0
C263 C 0.45289 0.0859 0.07685 0.0
O264 O 0.50258 0.08108 0.17448 0.0
O265 O 0.47156 0.09522 0.0893 0.0
C266 C 0.95865 0.42886 0.09977 0.0
O267 O 0.9672 0.44091 0.04534 0.0
Cd268 Cd 0.94723 0.44826 0.96107 0.0
O269 O 0.93976 0.4177 0.10036 0.0
Cd270 Cd 0.90999 0.40755 0.01984 0.0
C271 C 0.91604 0.44973 0.09965 0.0
O272 O 0.92398 0.41858 0.89455 0.0
O273 O 0.89419 0.41362 0.91247 0.0
O274 O 0.90564 0.37446 0.02155 0.0
C275 C 0.90863 0.41832 0.86735 0.0
O276 O 0.93069 0.45889 0.05427 0.0
C277 C 0.88768 0.36574 0.04428 0.0
O278 O 0.90569 0.43067 0.09968 0.0
O279 O 0.87977 0.37658 0.05532 0.0
C280 C 0.54884 0.52836 0.10045 0.0
O281 O 0.5367 0.52455 0.046 0.0
Cd282 Cd 0.53012 0.49745 0.96077 0.0
O283 O 0.56038 0.52103 0.10083 0.0
Cd284 Cd 0.57104 0.50173 0.02043 0.0
C285 C 0.52933 0.46502 0.09871 0.0
O286 O 0.55989 0.50432 0.89465 0.0
O287 O 0.56538 0.47977 0.9133 0.0
O288 O 0.60396 0.53065 0.02325 0.0
C289 C 0.56051 0.48932 0.86776 0.0
O290 O 0.51995 0.47022 0.05308 0.0
C291 C 0.61272 0.52139 0.04599 0.0
O292 O 0.54833 0.4741 0.09943 0.0
O293 O 0.60198 0.50263 0.05663 0.0
C294 C 0.33741 0.12079 0.03125 0.0
O295 O 0.32921 0.12504 0.08497 0.0
Cd296 Cd 0.34984 0.15196 0.17056 0.0
O297 O 0.35617 0.12765 0.03149 0.0
Cd298 Cd 0.38577 0.14661 0.11298 0.0
C299 C 0.38204 0.18412 0.03415 0.0
O300 O 0.37207 0.14445 0.23882 0.0
O301 O 0.40216 0.16864 0.21944 0.0
O302 O 0.38992 0.11763 0.11263 0.0
C303 C 0.38784 0.15929 0.26536 0.0
O304 O 0.36747 0.17931 0.07929 0.0
C305 C 0.40796 0.12695 0.09075 0.0
O306 O 0.39148 0.17451 0.03378 0.0
O307 O 0.41575 0.14563 0.07853 0.0
C308 C 0.8548 0.21761 0.04693 0.0
O309 O 0.85193 0.20595 0.10219 0.0
Cd310 Cd 0.82519 0.1988 0.18882 0.0
O311 O 0.8469 0.22867 0.04674 0.0
Cd312 Cd 0.82775 0.2392 0.12822 0.0
C313 C 0.79191 0.19646 0.05117 0.0
O314 O 0.83166 0.2288 0.25334 0.0
O315 O 0.80655 0.23344 0.23731 0.0
O316 O 0.85602 0.27248 0.12262 0.0
C317 C 0.81667 0.22902 0.28173 0.0
O318 O 0.79777 0.18759 0.09656 0.0
C319 C 0.84629 0.28083 0.10089 0.0
O320 O 0.80024 0.2155 0.0506 0.0
O321 O 0.82754 0.2697 0.09204 0.0
C322 C 0.76119 0.63612 0.04793 0.0
O323 O 0.77323 0.6446 0.10264 0.0
Cd324 Cd 0.77988 0.62436 0.1883 0.0
O325 O 0.74971 0.61721 0.04746 0.0
Cd326 Cd 0.73907 0.58738 0.12816 0.0
C327 C 0.78102 0.59271 0.05052 0.0
O328 O 0.75003 0.60144 0.25399 0.0
O329 O 0.74467 0.57139 0.23581 0.0
O330 O 0.70593 0.58275 0.1241 0.0
C331 C 0.74944 0.58589 0.2812 0.0
O332 O 0.79033 0.6074 0.09611 0.0
C333 C 0.69747 0.56467 0.10166 0.0
O334 O 0.76202 0.58263 0.04982 0.0
O335 O 0.70847 0.55693 0.09165 0.0
C336 C 0.51642 0.96388 0.91633 0.0
O337 O 0.50856 0.96879 0.96927 0.0
Cd338 Cd 0.48159 0.94458 0.04376 0.0
O339 O 0.51193 0.94568 0.90752 0.0
Cd340 Cd 0.49194 0.91281 0.9725 0.0
C341 C 0.45305 0.91437 0.89516 0.0
O342 O 0.49305 0.92415 0.10111 0.0
O343 O 0.47006 0.8938 0.07865 0.0
O344 O 0.52182 0.91031 0.96668 0.0
C345 C 0.47899 0.90783 0.12656 0.0
O346 O 0.45588 0.92729 0.94613 0.0
C347 C 0.51331 0.8926 0.94035 0.0
O348 O 0.46431 0.90675 0.89076 0.0
O349 O 0.4946 0.8841 0.92889 0.0
C350 C 0.00833 0.55052 0.87095 0.0
O351 O 1e-05 0.53846 0.92554 0.0
Cd352 Cd 0.02034 0.53162 0.00943 0.0
O353 O 0.02718 0.56204 0.87017 0.0
Cd354 Cd 0.05714 0.57284 0.9508 0.0
C355 C 0.05182 0.53114 0.86951 0.0
O356 O 0.04307 0.5615 0.07571 0.0
O357 O 0.0729 0.56658 0.0583 0.0
O358 O 0.06145 0.60602 0.94902 0.0
C359 C 0.05839 0.56177 0.10319 0.0
O360 O 0.03731 0.52174 0.91524 0.0
C361 C 0.07952 0.61476 0.9275 0.0
O362 O 0.06191 0.5502 0.86976 0.0
O363 O 0.08741 0.6039 0.91685 0.0
C364 C 0.43219 0.4572 0.87383 0.0
O365 O 0.44437 0.46091 0.92807 0.0
Cd366 Cd 0.45125 0.48794 0.01403 0.0
O367 O 0.42077 0.46467 0.87373 0.0
Cd368 Cd 0.41066 0.48422 0.95515 0.0
C369 C 0.45258 0.52086 0.87754 0.0
O370 O 0.42155 0.48107 0.08089 0.0
O371 O 0.41649 0.50593 0.06296 0.0
O372 O 0.37727 0.45595 0.9513 0.0
C373 C 0.42101 0.49607 0.10833 0.0
O374 O 0.46189 0.51547 0.92274 0.0
C375 C 0.36907 0.46586 0.93006 0.0
O376 O 0.43358 0.51191 0.87698 0.0
O377 O 0.38034 0.48459 0.92025 0.0
C378 C 0.63117 0.86258 0.93371 0.0
O379 O 0.63967 0.8591 0.87892 0.0
Cd380 Cd 0.6197 0.8322 0.79238 0.0
O381 O 0.6123 0.85508 0.93388 0.0
Cd382 Cd 0.58264 0.83576 0.85208 0.0
C383 C 0.58839 0.79921 0.92905 0.0
O384 O 0.59661 0.83888 0.72627 0.0
O385 O 0.56687 0.81395 0.74427 0.0
O386 O 0.57704 0.86385 0.85702 0.0
C387 C 0.58122 0.82377 0.69895 0.0
O388 O 0.60304 0.80465 0.8837 0.0
C389 C 0.55904 0.85377 0.87904 0.0
O390 O 0.57823 0.80808 0.92981 0.0
O391 O 0.55188 0.83505 0.88837 0.0
C392 C 0.11514 0.76443 0.93311 0.0
O393 O 0.11883 0.77649 0.87854 0.0
Cd394 Cd 0.14574 0.78307 0.79365 0.0
O395 O 0.12242 0.75282 0.93363 0.0
Cd396 Cd 0.14144 0.74188 0.85305 0.0
C397 C 0.17803 0.78384 0.93235 0.0
O398 O 0.13859 0.75304 0.72771 0.0
O399 O 0.16309 0.74754 0.74541 0.0
O400 O 0.11267 0.70875 0.85583 0.0
C401 C 0.15347 0.75243 0.70032 0.0
O402 O 0.17283 0.79324 0.88678 0.0
C403 C 0.12202 0.70003 0.87775 0.0
O404 O 0.16904 0.76477 0.93253 0.0
O405 O 0.14074 0.71088 0.88823 0.0
C406 C 0.21793 0.35577 0.93179 0.0
O407 O 0.20534 0.34861 0.87794 0.0
Cd408 Cd 0.19958 0.37065 0.79925 0.0
O409 O 0.23041 0.37446 0.93521 0.0
Cd410 Cd 0.24231 0.40552 0.86067 0.0
C411 C 0.20188 0.40213 0.94538 0.0
O412 O 0.2297 0.39289 0.73509 0.0
O413 O 0.23758 0.42354 0.75771 0.0
O414 O 0.2747 0.40824 0.85857 0.0
C415 C 0.23111 0.40907 0.71101 0.0
O416 O 0.19164 0.38824 0.89768 0.0
C417 C 0.28407 0.42613 0.88329 0.0
O418 O 0.22088 0.41102 0.94514 0.0
O419 O 0.27389 0.43457 0.89767 0.0
C420 C 0.11692 0.36223 0.43947 0.0
O421 O 0.11304 0.3763 0.43765 0.0
Cd422 Cd 0.14561 0.39882 0.3727 0.0
O423 O 0.13292 0.36559 0.40784 0.0
Cd424 Cd 0.14898 0.40306 0.36909 0.0
C425 C 0.18196 0.40703 0.46423 0.0
O426 O 0.1476 0.39361 0.23774 0.0
O427 O 0.17534 0.41941 0.27237 0.0
O428 O 0.12872 0.41789 0.32473 0.0
C429 C 0.16498 0.40735 0.21965 0.0
O430 O 0.17046 0.39075 0.43104 0.0
C431 C 0.12488 0.42205 0.38981 0.0
O432 O 0.17838 0.42114 0.45413 0.0
O433 O 0.13189 0.41738 0.44604 0.0
C434 C 0.63199 0.76663 0.43131 0.0
O435 O 0.64042 0.77886 0.37729 0.0
Cd436 Cd 0.62011 0.78543 0.29178 0.0
O437 O 0.61317 0.755 0.43104 0.0
Cd438 Cd 0.58342 0.74418 0.35007 0.0
C439 C 0.58834 0.78604 0.42951 0.0
O440 O 0.59747 0.75546 0.22495 0.0
O441 O 0.56735 0.74962 0.24224 0.0
O442 O 0.57963 0.71127 0.35252 0.0
C443 C 0.5819 0.75466 0.19736 0.0
O444 O 0.60296 0.79551 0.38433 0.0
C445 C 0.56161 0.70235 0.37471 0.0
O446 O 0.57841 0.76696 0.42945 0.0
O447 O 0.55348 0.713 0.38526 0.0
C448 C 0.21108 0.86108 0.43488 0.0
O449 O 0.19891 0.85721 0.38043 0.0
Cd450 Cd 0.19223 0.83011 0.29517 0.0
O451 O 0.22263 0.85377 0.43548 0.0
Cd452 Cd 0.23308 0.83428 0.35477 0.0
C453 C 0.19123 0.79757 0.4328 0.0
O454 O 0.22199 0.83703 0.22884 0.0
O455 O 0.22722 0.81232 0.24746 0.0
O456 O 0.26654 0.86262 0.35867 0.0
C457 C 0.2225 0.82198 0.20187 0.0
O458 O 0.18184 0.80277 0.38723 0.0
C459 C 0.2747 0.85274 0.38092 0.0
O460 O 0.21023 0.80665 0.43344 0.0
O461 O 0.26339 0.83403 0.3909 0.0
C462 C 0.00496 0.45119 0.37137 0.0
O463 O -0.00288 0.45615 0.4243 0.0
Cd464 Cd 0.01791 0.48357 0.50756 0.0
O465 O 0.02369 0.45788 0.37061 0.0
Cd466 Cd 0.05383 0.47809 0.44857 0.0
C467 C 0.04944 0.51534 0.36909 0.0
O468 O 0.04091 0.47697 0.57454 0.0
O469 O 0.07057 0.50158 0.55155 0.0
O470 O 0.06152 0.45154 0.46594 0.0
C471 C 0.05659 0.49228 0.59897 0.0
O472 O 0.03498 0.51061 0.41471 0.0
C473 C 0.07757 0.45996 0.42783 0.0
O474 O 0.05896 0.5058 0.3689 0.0
O475 O 0.08261 0.4769 0.39876 0.0
C476 C 0.52749 0.55276 0.37451 0.0
O477 O 0.52402 0.54088 0.42956 0.0
Cd478 Cd 0.49752 0.53463 0.51622 0.0
O479 O 0.52028 0.56443 0.37419 0.0
Cd480 Cd 0.50168 0.57564 0.45594 0.0
C481 C 0.46475 0.53351 0.37923 0.0
O482 O 0.50491 0.56483 0.58149 0.0
O483 O 0.4804 0.57034 0.56425 0.0
O484 O 0.53018 0.60892 0.45093 0.0
C485 C 0.49012 0.56556 0.60924 0.0
O486 O 0.47006 0.52416 0.42459 0.0
C487 C 0.52051 0.61733 0.429 0.0
O488 O 0.4738 0.55257 0.37851 0.0
O489 O 0.50179 0.60623 0.41959 0.0
C490 C 0.42706 0.964 0.41598 0.0
O491 O 0.43984 0.9689 0.46882 0.0
Cd492 Cd 0.44278 0.94475 0.54351 0.0
O493 O 0.4134 0.9458 0.40719 0.0
Cd494 Cd 0.40076 0.91294 0.47224 0.0
C495 C 0.4412 0.91447 0.39513 0.0
O496 O 0.41099 0.92428 0.60085 0.0
O497 O 0.40377 0.89395 0.57828 0.0
O498 O 0.36825 0.91017 0.46652 0.0
C499 C 0.4088 0.90796 0.62624 0.0
O500 O 0.45126 0.92741 0.44607 0.0
C501 C 0.35923 0.89244 0.44032 0.0
O502 O 0.42236 0.90689 0.39066 0.0
O503 O 0.36961 0.88408 0.42876 0.0
C504 C 0.22587 0.22148 0.21774 0.0
C505 C 0.21523 0.20054 0.21023 0.0
H506 H 0.2244 0.2482 0.23369 0.0
C507 C 0.19429 0.19036 0.21257 0.0
H508 H 0.24203 0.2297 0.21637 0.0
C509 C 0.18416 0.20101 0.22135 0.0
C510 C 0.19485 0.22195 0.22932 0.0
H511 H 0.18574 0.17422 0.20666 0.0
H512 H 0.168 0.19285 0.2226 0.0
C513 C 0.21578 0.23206 0.22784 0.0
C514 C 0.79108 0.00072 0.23413 0.0
C515 C 0.781 0.01159 0.22837 0.0
H516 H 0.78847 0.97192 0.24966 0.0
C517 C 0.76013 0.00147 0.23525 0.0
H518 H 0.80717 0.00817 0.22885 0.0
C519 C 0.74953 0.98091 0.24801 0.0
C520 C 0.75952 0.96997 0.25306 0.0
H521 H 0.75196 0.00946 0.23133 0.0
H522 H 0.73344 0.97356 0.25321 0.0
C523 C 0.7804 0.98001 0.24577 0.0
C524 C 0.97587 0.7847 0.23511 0.0
C525 C 0.96535 0.76372 0.22913 0.0
H526 H 0.00439 0.81121 0.24957 0.0
C527 C 0.97582 0.75324 0.2342 0.0
H528 H 0.96815 0.79314 0.23116 0.0
C529 C -0.00361 0.7635 0.24557 0.0
C530 C 0.00698 0.78447 0.25098 0.0
H531 H 0.96809 0.73705 0.22999 0.0
H532 H 0.00402 0.75497 0.24951 0.0
C533 C -0.00343 0.79502 0.24534 0.0
C534 C 0.75882 0.75331 0.73436 0.0
C535 C 0.77973 0.76373 0.72959 0.0
H536 H 0.73239 0.75511 0.74984 0.0
C537 C 0.79016 0.7847 0.73627 0.0
H538 H 0.75039 0.73713 0.72962 0.0
C539 C 0.77979 0.79507 0.74691 0.0
C540 C 0.75887 0.78456 0.75228 0.0
H541 H 0.80629 0.79311 0.73256 0.0
H542 H 0.78813 0.81124 0.7517 0.0
C543 C 0.74851 0.7636 0.74613 0.0
C544 C 0.22152 0.00152 0.72497 0.0
C545 C 0.2108 0.0117 0.7175 0.0
H546 H 0.22033 0.97365 0.74531 0.0
C547 C 0.18993 0.00098 0.72458 0.0
H548 H 0.23763 0.00941 0.72008 0.0
C549 C 0.17995 0.98035 0.73815 0.0
C550 C 0.19075 0.97024 0.74611 0.0
H551 H 0.18131 0.00847 0.71891 0.0
H552 H 0.16384 0.97237 0.74304 0.0
C553 C 0.21162 0.98105 0.73968 0.0
C554 C -0.00447 0.23235 0.73184 0.0
C555 C 0.00609 0.22201 0.73929 0.0
H556 H 0.96709 0.23023 0.71817 0.0
C557 C -0.0045 0.20098 0.7416 0.0
H558 H 0.0033 0.24855 0.72985 0.0
C559 C 0.97472 0.19047 0.7356 0.0
C560 C 0.96422 0.20082 0.72625 0.0
H561 H 0.00327 0.19263 0.74758 0.0
H562 H 0.96692 0.17426 0.73676 0.0
C563 C 0.97481 0.22185 0.72495 0.0
C564 C 0.8808 0.56362 0.58116 0.0
C565 C 0.85993 0.55343 0.58787 0.0
H566 H 0.9069 0.5614 0.56231 0.0
C567 C 0.84923 0.53246 0.58115 0.0
H568 H 0.88943 0.57979 0.58586 0.0
C569 C 0.85929 0.52187 0.5686 0.0
C570 C 0.88016 0.53213 0.56131 0.0
H571 H 0.83312 0.52424 0.5863 0.0
H572 H 0.85073 0.5057 0.56391 0.0
C573 C 0.89079 0.55309 0.56744 0.0
C574 C 0.41552 0.31543 0.57133 0.0
C575 C 0.42529 0.30428 0.5772 0.0
H576 H 0.4184 0.3442 0.5551 0.0
C577 C 0.4462 0.31416 0.57163 0.0
H578 H 0.39942 0.30822 0.57521 0.0
C579 C 0.45714 0.3349 0.56104 0.0
C580 C 0.44729 0.34599 0.55464 0.0
H581 H 0.4541 0.30591 0.5762 0.0
H582 H 0.47324 0.3422 0.55717 0.0
C583 C 0.42639 0.33604 0.55962 0.0
C584 C 0.6648 0.09471 0.58969 0.0
C585 C 0.67599 0.11573 0.59028 0.0
H586 H 0.63579 0.06866 0.58453 0.0
C587 C 0.66611 0.12675 0.58339 0.0
H588 H 0.67205 0.08584 0.59453 0.0
C589 C 0.64532 0.11691 0.57843 0.0
C590 C 0.63411 0.09589 0.57927 0.0
H591 H 0.67438 0.14297 0.58369 0.0
H592 H 0.63804 0.12577 0.57471 0.0
C593 C 0.64405 0.08488 0.58375 0.0
C594 C 0.45124 0.11745 0.07409 0.0
C595 C 0.4414 0.09643 0.07581 0.0
H596 H 0.44831 0.14364 0.07648 0.0
C597 C 0.42047 0.08555 0.07903 0.0
H598 H 0.46736 0.12622 0.07127 0.0
C599 C 0.40961 0.09551 0.08277 0.0
C600 C 0.41945 0.11653 0.08238 0.0
H601 H 0.41249 0.06933 0.08042 0.0
H602 H 0.3935 0.08673 0.08664 0.0
C603 C 0.44034 0.12742 0.07683 0.0
C604 C 0.84587 0.31277 0.07981 0.0
C605 C 0.85656 0.30251 0.08593 0.0
H606 H 0.84742 0.34105 0.06266 0.0
C607 C 0.87739 0.31317 0.07796 0.0
H608 H 0.82979 0.30489 0.08591 0.0
C609 C 0.88738 0.33366 0.06379 0.0
C610 C 0.87678 0.34401 0.05838 0.0
H611 H 0.88603 0.30566 0.08212 0.0
H612 H 0.90346 0.34143 0.05783 0.0
C613 C 0.85594 0.33342 0.06676 0.0
C614 C 0.64497 0.52187 0.06763 0.0
C615 C 0.63439 0.53221 0.0602 0.0
H616 H 0.67344 0.52412 0.08568 0.0
C617 C 0.6447 0.55317 0.06642 0.0
H618 H 0.63737 0.5057 0.06289 0.0
C619 C 0.66516 0.56362 0.08037 0.0
C620 C 0.67581 0.55336 0.08725 0.0
H621 H 0.63693 0.56154 0.0612 0.0
H622 H 0.67267 0.57979 0.08512 0.0
C623 C 0.66557 0.53239 0.08042 0.0
C624 C 0.54567 0.89379 0.91804 0.0
C625 C 0.5248 0.88251 0.92376 0.0
H626 H 0.57281 0.89353 0.89853 0.0
C627 C 0.51516 0.86163 0.91414 0.0
H628 H 0.55349 0.90991 0.92493 0.0
C629 C 0.52628 0.85219 0.90004 0.0
C630 C 0.54716 0.86353 0.894 0.0
H631 H 0.49908 0.85259 0.91846 0.0
H632 H 0.51853 0.83607 0.89334 0.0
C633 C 0.55672 0.88441 0.90269 0.0
C634 C 0.08025 0.64712 0.90913 0.0
C635 C 0.09063 0.63656 0.91483 0.0
H636 H 0.08206 0.67541 0.89227 0.0
C637 C 0.11153 0.64702 0.90846 0.0
H638 H 0.06414 0.63945 0.91358 0.0
C639 C 0.12186 0.66775 0.89718 0.0
C640 C 0.11141 0.67824 0.89083 0.0
H641 H 0.11989 0.63924 0.91285 0.0
H642 H 0.13797 0.67551 0.89266 0.0
C643 C 0.09052 0.66771 0.89669 0.0
C644 C 0.3157 0.4254 0.89783 0.0
C645 C 0.30581 0.43648 0.8951 0.0
H646 H 0.34346 0.42604 0.91174 0.0
C647 C 0.31688 0.45739 0.90349 0.0
H648 H 0.30754 0.40925 0.89172 0.0
C649 C 0.33755 0.46706 0.9139 0.0
C650 C 0.34737 0.45591 0.91742 0.0
H651 H 0.30961 0.46628 0.90134 0.0
H652 H 0.34578 0.4832 0.92009 0.0
C653 C 0.33626 0.43501 0.90949 0.0
C654 C 0.10151 0.45405 0.35298 0.0
C655 C 0.0898 0.45041 0.41815 0.0
H656 H 0.12152 0.44743 0.29217 0.0
C657 C 0.08973 0.43744 0.47401 0.0
H658 H 0.10172 0.46394 0.30903 0.0
C659 C 0.1014 0.42843 0.46529 0.0
C660 C 0.11285 0.4318 0.39956 0.0
H661 H 0.08085 0.43447 0.5249 0.0
H662 H 0.10123 0.41858 0.50936 0.0
C663 C 0.11272 0.44456 0.34322 0.0
C664 C 0.55163 0.64983 0.40776 0.0
C665 C 0.53078 0.63904 0.41472 0.0
H666 H 0.57765 0.67825 0.38895 0.0
C667 C 0.52 0.6492 0.40827 0.0
H668 H 0.56033 0.64239 0.41224 0.0
C669 C 0.52998 0.66988 0.39583 0.0
C670 C 0.55085 0.6806 0.38841 0.0
H671 H 0.5039 0.64123 0.41361 0.0
H672 H 0.52138 0.67741 0.39141 0.0
C673 C 0.56155 0.67037 0.39419 0.0
C674 C 0.32668 0.86124 0.415 0.0
C675 C 0.33766 0.88214 0.42412 0.0
H676 H 0.29795 0.83545 0.39511 0.0
C677 C 0.32782 0.89323 0.41837 0.0
H678 H 0.33391 0.85234 0.41936 0.0
C679 C 0.3074 0.88364 0.40351 0.0
C680 C 0.29634 0.86273 0.39537 0.0
H681 H 0.33593 0.90937 0.42488 0.0
H682 H 0.30023 0.89261 0.39932 0.0
C683 C 0.30613 0.85159 0.40141 0.0
C684 C 0.10154 0.2418 0.98598 0.0
C685 C 0.09601 0.25622 0.96988 0.0
H686 H 0.11627 0.23194 0.06251 0.0
C687 C 0.0997 0.27104 0.02417 0.0
H688 H 0.09875 0.23008 0.9455 0.0
C689 C 0.10963 0.27202 0.09169 0.0
C690 C 0.11616 0.25826 0.10591 0.0
H691 H 0.09547 0.28225 0.01357 0.0
H692 H 0.11293 0.28409 0.13109 0.0
C693 C 0.11154 0.24284 0.05319 0.0
C694 C 0.74035 0.86287 0.10553 0.0
C695 C 0.72321 0.85318 0.15093 0.0
H696 H 0.75504 0.8619 0.0044 0.0
C697 C 0.70836 0.83356 0.13205 0.0
H698 H 0.75212 0.87792 0.1189 0.0
C699 C 0.70993 0.82444 0.06584 0.0
C700 C 0.72646 0.8347 0.01783 0.0
H701 H 0.69497 0.82566 0.16591 0.0
H702 H 0.69781 0.80972 0.05069 0.0
C703 C 0.74201 0.85368 0.03984 0.0
C704 C 0.14283 0.87118 0.13019 0.0
C705 C 0.12313 0.86612 0.14796 0.0
H706 H 0.16674 0.88473 0.05014 0.0
C707 C 0.11332 0.87333 0.10172 0.0
H708 H 0.15082 0.86588 0.16469 0.0
C709 C 0.12251 0.88423 0.0364 0.0
C710 C 0.1416 0.88796 0.01559 0.0
H711 H 0.09821 0.86982 0.11418 0.0
H712 H 0.11421 0.88886 0.00032 0.0
C713 C 0.15194 0.88191 0.06437 0.0
C714 C 0.22796 0.09876 0.42689 0.0
C715 C 0.24289 0.09437 0.44775 0.0
H716 H 0.21885 0.11398 0.34946 0.0
C717 C 0.25928 0.1001 0.39944 0.0
H718 H 0.21506 0.09441 0.46266 0.0
C719 C 0.26133 0.11114 0.33402 0.0
C720 C 0.24715 0.11684 0.31622 0.0
H721 H 0.27093 0.09677 0.41373 0.0
H722 H 0.27462 0.11615 0.29987 0.0
C723 C 0.23012 0.10998 0.36198 0.0
C724 C 0.8695 0.11977 0.3767 0.0
C725 C 0.86197 0.12904 0.32915 0.0
H726 H 0.88468 0.12136 0.48 0.0
C727 C 0.86613 0.14858 0.34662 0.0
H728 H 0.86667 0.10479 0.36454 0.0
C729 C 0.87626 0.158 0.41336 0.0
C730 C 0.88259 0.14815 0.46338 0.0
H731 H 0.86057 0.15617 0.31115 0.0
H732 H 0.87838 0.17264 0.42725 0.0
C733 C 0.8798 0.12927 0.44295 0.0
C734 C 0.8202 0.71546 0.4163 0.0
C735 C 0.83045 0.73182 0.46566 0.0
H736 H 0.82145 0.70075 0.31523 0.0
C737 C 0.8495 0.74736 0.44516 0.0
H738 H 0.80543 0.70335 0.43027 0.0
C739 C 0.85874 0.74583 0.37954 0.0
C740 C 0.84903 0.72884 0.3327 0.0
H741 H 0.85771 0.76027 0.4817 0.0
H742 H 0.87382 0.75758 0.36732 0.0
C743 C 0.82937 0.71403 0.35019 0.0
C744 C 0.86845 0.74581 0.87936 0.0
C745 C 0.86123 0.7288 0.83263 0.0
H746 H 0.88385 0.76028 0.98146 0.0
C747 C 0.86615 0.71399 0.85024 0.0
H748 H 0.86505 0.75755 0.86703 0.0
C749 C 0.87674 0.71545 0.91639 0.0
C750 C 0.88279 0.73183 0.96564 0.0
H751 H 0.86084 0.7007 0.81536 0.0
H752 H 0.87946 0.70335 0.93046 0.0
C753 C 0.87921 0.74736 0.94501 0.0
C754 C 0.2622 0.14861 0.8324 0.0
C755 C 0.24692 0.12909 0.81459 0.0
H756 H 0.27381 0.17261 0.91327 0.0
C757 C 0.23009 0.1198 0.86174 0.0
H758 H 0.27538 0.15621 0.79723 0.0
C759 C 0.22917 0.12926 0.92795 0.0
C760 C 0.24515 0.14812 0.94873 0.0
H761 H 0.218 0.10484 0.84932 0.0
H762 H 0.21635 0.12134 0.96467 0.0
C763 C 0.26137 0.15799 0.8991 0.0
C764 C 0.85052 0.09859 0.94033 0.0
C765 C 0.83124 0.0942 0.9615 0.0
H766 H 0.87467 0.11376 0.86244 0.0
C767 C 0.82044 0.09979 0.91316 0.0
H768 H 0.85917 0.09433 0.97609 0.0
C769 C 0.82926 0.11074 0.84747 0.0
C770 C 0.84912 0.11649 0.82945 0.0
H771 H 0.80549 0.09645 0.92767 0.0
H772 H 0.8209 0.11568 0.81335 0.0
C773 C 0.85942 0.10972 0.87516 0.0
C774 C 0.71015 0.88137 0.5669 0.0
C775 C 0.72648 0.8875 0.518 0.0
H776 H 0.69552 0.86546 0.66766 0.0
C777 C 0.74207 0.8841 0.53909 0.0
H778 H 0.698 0.88395 0.55248 0.0
C779 C 0.74062 0.87342 0.6048 0.0
C780 C 0.72365 0.86609 0.65114 0.0
H781 H 0.75496 0.88881 0.50295 0.0
H782 H 0.7524 0.87015 0.61744 0.0
C783 C 0.70879 0.87085 0.63311 0.0
C784 C 0.09254 0.85385 0.53699 0.0
C785 C 0.08926 0.83488 0.51538 0.0
H786 H 0.10637 0.87813 0.616 0.0
C787 C 0.09549 0.82465 0.564 0.0
H788 H 0.08775 0.86204 0.50107 0.0
C789 C 0.10599 0.8338 0.63045 0.0
C790 C 0.11062 0.85343 0.64898 0.0
H791 H 0.093 0.80993 0.54916 0.0
H792 H 0.11147 0.82593 0.66479 0.0
C793 C 0.1032 0.86308 0.60293 0.0
C794 C 0.10938 0.23341 0.55954 0.0
C795 C 0.11553 0.25086 0.60273 0.0
H796 H 0.11536 0.21995 0.46454 0.0
C797 C 0.13416 0.26781 0.58766 0.0
H798 H 0.09516 0.22006 0.57013 0.0
C799 C 0.14573 0.26778 0.52688 0.0
C800 C 0.13885 0.25079 0.48025 0.0
H801 H 0.13936 0.28148 0.6202 0.0
H802 H 0.15955 0.28139 0.51426 0.0
C803 C 0.12094 0.23337 0.49892 0.0
C804 C 0.77446 0.60409 0.47192 0.0
C805 C 0.77918 0.58918 0.49024 0.0
H806 H 0.76136 0.61478 0.39093 0.0
C807 C 0.77178 0.57204 0.44412 0.0
H808 H 0.77992 0.61748 0.50632 0.0
C809 C 0.76105 0.57046 0.37832 0.0
C810 C 0.75769 0.58608 0.35691 0.0
H811 H 0.77502 0.56022 0.45702 0.0
H812 H 0.75628 0.55743 0.34234 0.0
C813 C 0.7639 0.60259 0.40561 0.0
C814 C 0.40429 0.1864 0.36239 0.0
C815 C 0.38825 0.16761 0.34129 0.0
H816 H 0.41551 0.21076 0.44131 0.0
C817 C 0.37197 0.15777 0.39068 0.0
H818 H 0.41716 0.19429 0.32588 0.0
C819 C 0.37113 0.16714 0.45742 0.0
C820 C 0.38648 0.18661 0.47551 0.0
H821 H 0.35948 0.1432 0.37626 0.0
H822 H 0.35791 0.15958 0.49237 0.0
C823 C 0.40337 0.19584 0.42865 0.0
C824 C 0.78984 0.21645 0.37967 0.0
C825 C 0.80895 0.22053 0.35735 0.0
H826 H 0.76591 0.20158 0.45863 0.0
C827 C 0.81974 0.21474 0.40488 0.0
H828 H 0.78122 0.22088 0.34461 0.0
C829 C 0.81103 0.20384 0.47081 0.0
C830 C 0.7913 0.19838 0.48987 0.0
H831 H 0.83457 0.21784 0.38947 0.0
H832 H 0.81934 0.1987 0.50422 0.0
C833 C 0.78106 0.20539 0.44507 0.0
C834 C 0.89586 0.44207 0.70612 0.0
C835 C 0.9128 0.44893 0.65983 0.0
H836 H 0.88112 0.42671 0.80754 0.0
C837 C 0.92716 0.44345 0.67756 0.0
H838 H 0.88447 0.4459 0.69367 0.0
C839 C 0.92535 0.43263 0.74338 0.0
C840 C 0.90905 0.42691 0.79218 0.0
H841 H 0.94038 0.44848 0.64303 0.0
H842 H 0.93713 0.42947 0.75757 0.0
C843 C 0.89396 0.43107 0.77143 0.0
C844 C 0.54843 0.46179 0.77172 0.0
C845 C 0.55218 0.481 0.79225 0.0
H846 H 0.53415 0.43732 0.69364 0.0
C847 C 0.54634 0.49138 0.74277 0.0
H848 H 0.5529 0.45347 0.80837 0.0
C849 C 0.53579 0.4822 0.67645 0.0
C850 C 0.53069 0.46239 0.65888 0.0
H851 H 0.54919 0.50628 0.75676 0.0
H852 H 0.53065 0.49024 0.64138 0.0
C853 C 0.53769 0.45253 0.7059 0.0
C854 C 0.50705 0.05254 0.74926 0.0
C855 C 0.5264 0.0688 0.73793 0.0
H856 H 0.48138 0.03897 0.82124 0.0
C857 C 0.53388 0.08511 0.78828 0.0
H858 H 0.50084 0.03975 0.71129 0.0
C859 C 0.52275 0.08461 0.85137 0.0
C860 C 0.50392 0.06781 0.86523 0.0
H861 H 0.5487 0.09788 0.78098 0.0
H862 H 0.52924 0.0971 0.89075 0.0
C863 C 0.49591 0.05205 0.81237 0.0
C864 C 0.52482 0.05254 0.24932 0.0
C865 C 0.52171 0.06883 0.23802 0.0
H866 H 0.53698 0.03893 0.32119 0.0
C867 C 0.53056 0.08516 0.28827 0.0
H868 H 0.51824 0.03973 0.21143 0.0
C869 C 0.54123 0.08465 0.35124 0.0
C870 C 0.54327 0.06781 0.3651 0.0
H871 H 0.52849 0.09795 0.28098 0.0
H872 H 0.54723 0.09715 0.39056 0.0
C873 C 0.53551 0.05203 0.31231 0.0
C874 C 0.92785 0.48078 0.17782 0.0
C875 C 0.91283 0.46114 0.16013 0.0
H876 H 0.93892 0.50491 0.25802 0.0
C877 C 0.89591 0.45169 0.20678 0.0
H878 H 0.94109 0.48851 0.14301 0.0
C879 C 0.89463 0.46116 0.27239 0.0
C880 C 0.91035 0.48018 0.29306 0.0
H881 H 0.88401 0.43663 0.1944 0.0
H882 H 0.88176 0.45313 0.30878 0.0
C883 C 0.92667 0.49017 0.24391 0.0
C884 C 0.51862 0.43214 0.27048 0.0
C885 C 0.49957 0.42856 0.29113 0.0
H886 H 0.54296 0.44638 0.19279 0.0
C887 C 0.48934 0.43469 0.24219 0.0
H888 H 0.52683 0.42744 0.30671 0.0
C889 C 0.49851 0.44536 0.17634 0.0
C890 C 0.51818 0.45028 0.15874 0.0
H891 H 0.47456 0.43198 0.25629 0.0
H892 H 0.4906 0.45073 0.14171 0.0
C893 C 0.52788 0.44298 0.20514 0.0
C894 C 0.3741 0.2157 0.89049 0.0
C895 C 0.39052 0.22142 0.84239 0.0
H896 H 0.35871 0.1997 0.9901 0.0
C897 C 0.40549 0.21714 0.86379 0.0
H898 H 0.36241 0.21895 0.8758 0.0
C899 C 0.40333 0.20601 0.92895 0.0
C900 C 0.38625 0.19912 0.97442 0.0
H901 H 0.41843 0.2215 0.82825 0.0
H902 H 0.41464 0.20208 0.94185 0.0
C903 C 0.37203 0.20474 0.95616 0.0
C904 C 0.76371 0.15615 0.90488 0.0
C905 C 0.7571 0.16593 0.85571 0.0
H906 H 0.77959 0.158 0.00663 0.0
C907 C 0.75946 0.18456 0.87735 0.0
H908 H 0.76192 0.1417 0.89005 0.0
C909 C 0.76966 0.19396 0.94388 0.0
C910 C 0.77753 0.18483 0.99047 0.0
H911 H 0.75433 0.19239 0.84104 0.0
H912 H 0.77217 0.20879 0.95692 0.0
C913 C 0.77375 0.16547 0.9719 0.0
C914 C 0.78257 0.57205 0.94414 0.0
C915 C 0.7922 0.58919 0.99028 0.0
H916 H 0.78356 0.55747 0.84236 0.0
C917 C 0.81175 0.60413 0.972 0.0
H918 H 0.76758 0.5602 0.957 0.0
C919 C 0.82084 0.60268 0.9057 0.0
C920 C 0.81063 0.58616 0.85698 0.0
H921 H 0.8196 0.61753 0.00641 0.0
H922 H 0.83549 0.61488 0.89105 0.0
C923 C 0.79174 0.5705 0.87835 0.0
C924 C 0.42241 0.8929 0.71703 0.0
C925 C 0.41671 0.90721 0.70153 0.0
H926 H 0.43842 0.8839 0.79108 0.0
C927 C 0.42064 0.92216 0.75552 0.0
H928 H 0.41951 0.88116 0.67657 0.0
C929 C 0.43122 0.92358 0.82157 0.0
C930 C 0.43836 0.91026 0.83422 0.0
H931 H 0.41625 0.93329 0.74527 0.0
H932 H 0.43483 0.93586 0.8603 0.0
C933 C 0.43327 0.8945 0.78258 0.0
C934 C 0.04048 0.49999 0.79237 0.0
C935 C 0.05505 0.51995 0.80814 0.0
H936 H 0.02951 0.47559 0.71351 0.0
C937 C 0.07138 0.52981 0.75883 0.0
H938 H 0.02772 0.49193 0.82922 0.0
C939 C 0.07244 0.52038 0.69268 0.0
C940 C 0.05709 0.50098 0.67421 0.0
H941 H 0.08293 0.54513 0.76958 0.0
H942 H 0.08479 0.52868 0.65431 0.0
C943 C 0.04145 0.49064 0.72585 0.0
C944 C 0.48327 0.54029 0.79896 0.0
C945 C 0.46374 0.53564 0.81766 0.0
H946 H 0.50697 0.55341 0.71787 0.0
C947 C 0.4541 0.5432 0.77226 0.0
H948 H 0.49112 0.53471 0.83282 0.0
C949 C 0.46324 0.55401 0.70673 0.0
C950 C 0.48211 0.55729 0.68486 0.0
H951 H 0.43913 0.54003 0.78549 0.0
H952 H 0.45505 0.55889 0.67127 0.0
C953 C 0.49233 0.55093 0.73291 0.0
C954 C 0.59998 0.77997 0.00758 0.0
C955 C 0.58497 0.78447 0.98895 0.0
H956 H 0.61082 0.76702 0.08862 0.0
C957 C 0.56783 0.77683 0.0345 0.0
H958 H 0.61337 0.78562 0.97362 0.0
C959 C 0.56634 0.76609 0.10008 0.0
C960 C 0.58204 0.76295 0.12183 0.0
H961 H 0.55594 0.7799 0.02135 0.0
H962 H 0.5533 0.76113 0.13564 0.0
C963 C 0.59857 0.76939 0.07367 0.0
C964 C 0.21064 0.79459 0.10532 0.0
C965 C 0.21416 0.8137 0.12631 0.0
H966 H 0.19656 0.77019 0.02691 0.0
C967 C 0.20807 0.82396 0.07729 0.0
H968 H 0.2153 0.78636 0.14157 0.0
C969 C 0.19751 0.81476 0.01099 0.0
C970 C 0.19266 0.79504 -0.00702 0.0
H971 H 0.21074 0.83877 0.09164 0.0
H972 H 0.19218 0.82269 0.97628 0.0
C973 C 0.19991 0.78532 0.03952 0.0
C974 C 0.17107 0.39305 0.02054 0.0
C975 C 0.1916 0.40594 0.00844 0.0
H976 H 0.14651 0.38339 0.09713 0.0
C977 C 0.20263 0.42089 0.06249 0.0
H978 H 0.1621 0.3814 0.97995 0.0
C979 C 0.19366 0.42202 0.12955 0.0
C980 C 0.17351 0.40818 0.14401 0.0
H981 H 0.21843 0.43116 0.05471 0.0
H982 H 0.20278 0.43316 0.17152 0.0
C983 C 0.16212 0.39413 0.08783 0.0
C984 C 0.22064 0.42688 0.61995 0.0
C985 C 0.22138 0.4096 0.63974 0.0
H986 H 0.20765 0.43966 0.5482 0.0
C987 C 0.21105 0.39229 0.59495 0.0
H988 H 0.22859 0.44051 0.653 0.0
C989 C 0.19909 0.39183 0.53479 0.0
C990 C 0.19724 0.40867 0.51843 0.0
H991 H 0.21144 0.37879 0.60846 0.0
H992 H 0.19056 0.37797 0.50346 0.0
C993 C 0.20866 0.4264 0.55988 0.0
C994 C 0.56605 0.79651 0.60185 0.0
C995 C 0.58147 0.81561 0.62332 0.0
H996 H 0.55604 0.77219 0.52313 0.0
C997 C 0.59785 0.82597 0.57474 0.0
H998 H 0.55313 0.7882 0.63774 0.0
C999 C 0.59941 0.81686 0.50847 0.0
C1000 C 0.5847 0.79714 0.49003 0.0
H1001 H 0.60988 0.84079 0.58946 0.0
H1002 H 0.6127 0.82487 0.47413 0.0
C1003 C 0.5677 0.78732 0.53608 0.0
C1004 C 0.18067 0.7645 0.60392 0.0
C1005 C 0.16165 0.76092 0.62509 0.0
H1006 H 0.20492 0.77879 0.52588 0.0
C1007 C 0.15138 0.76713 0.57667 0.0
H1008 H 0.18891 0.75975 0.63971 0.0
C1009 C 0.16049 0.77787 0.51086 0.0
C1010 C 0.18012 0.78278 0.49276 0.0
H1011 H 0.13663 0.76443 0.59118 0.0
H1012 H 0.15256 0.7833 0.47666 0.0
C1013 C 0.18985 0.77541 0.53862 0.0
C1014 C 0.0414 0.54709 0.22637 0.0
C1015 C 0.05775 0.55284 0.17784 0.0
H1016 H 0.02612 0.53101 0.326 0.0
C1017 C 0.07265 0.54837 0.19828 0.0
H1018 H 0.02976 0.55048 0.21241 0.0
C1019 C 0.07051 0.5371 0.26305 0.0
C1020 C 0.05354 0.53027 0.30911 0.0
H1021 H 0.08552 0.55272 0.16234 0.0
H1022 H 0.08178 0.53307 0.2753 0.0
C1023 C 0.03936 0.536 0.29164 0.0
C1024 C 0.43513 0.49369 0.23304 0.0
C1025 C 0.42898 0.504 0.18455 0.0
H1026 H 0.45097 0.49481 0.33404 0.0
C1027 C 0.43213 0.5229 0.20675 0.0
H1028 H 0.43273 0.47902 0.21777 0.0
C1029 C 0.44265 0.53199 0.27307 0.0
C1030 C 0.45006 0.52229 0.31889 0.0
H1031 H 0.42738 0.53115 0.17098 0.0
H1032 H 0.44578 0.54701 0.28652 0.0
C1033 C 0.44549 0.50271 0.29987 0.0
C1034 C 0.45041 0.89285 0.21736 0.0
C1035 C 0.47036 0.90712 0.20183 0.0
H1036 H 0.42545 0.88396 0.29129 0.0
C1037 C 0.48134 0.92208 0.25575 0.0
H1038 H 0.44159 0.88108 0.1769 0.0
C1039 C 0.47219 0.92357 0.32168 0.0
C1040 C 0.45178 0.9103 0.33433 0.0
H1041 H 0.4968 0.93317 0.24548 0.0
H1042 H 0.48082 0.93588 0.36032 0.0
C1043 C 0.44115 0.89451 0.28279 0.0
C1044 C 0.22069 0.35145 0.0706 0.0
C1045 C 0.21569 0.34298 -0.00249 0.0
H1046 H 0.21699 0.34615 0.1903 0.0
C1047 C 0.20581 0.32207 0.98969 0.0
H1048 H 0.22826 0.36754 0.07845 0.0
C1049 C 0.19975 0.30984 0.05382 0.0
C1050 C 0.20302 0.31832 0.12687 0.0
H1051 H 0.20185 0.31515 0.93408 0.0
H1052 H 0.19114 0.29376 0.04585 0.0
C1053 C 0.21419 0.33922 0.13473 0.0
C1054 C 0.64399 0.87324 0.14133 0.0
C1055 C 0.66492 0.88313 0.13943 0.0
H1056 H 0.61686 0.85948 0.07733 0.0
C1057 C 0.67464 0.88904 0.0689 0.0
H1058 H 0.63609 0.86859 0.19477 0.0
C1059 C 0.66363 0.88351 0.00146 0.0
C1060 C 0.6427 0.87235 0.00328 0.0
H1061 H 0.69077 0.89669 0.06543 0.0
H1062 H 0.67153 0.88711 0.94796 0.0
C1063 C 0.63299 0.86808 0.07391 0.0
C1064 C 0.09421 0.77616 -0.00048 0.0
C1065 C 0.10532 0.76631 0.0021 0.0
H1066 H 0.08097 0.79025 0.06259 0.0
C1067 C 0.10945 0.76085 0.07301 0.0
H1068 H 0.09072 0.78047 0.94576 0.0
C1069 C 0.1042 0.76677 0.14005 0.0
C1070 C 0.09434 0.77788 0.13744 0.0
H1071 H 0.11801 0.75325 0.07697 0.0
H1072 H 0.10873 0.76351 0.19379 0.0
C1073 C 0.08858 0.7817 0.06658 0.0
C1074 C 0.29833 0.20229 0.39702 0.0
C1075 C 0.30798 0.20535 0.3266 0.0
H1076 H 0.30148 0.20427 0.51794 0.0
C1077 C 0.32892 0.21588 0.32455 0.0
H1078 H 0.2822 0.19422 0.40059 0.0
C1079 C 0.33996 0.22198 0.39186 0.0
C1080 C 0.33025 0.21727 0.46255 0.0
H1081 H 0.33677 0.21855 0.27117 0.0
H1082 H 0.35606 0.22909 0.38846 0.0
C1083 C 0.30936 0.208 0.46438 0.0
C1084 C 0.77495 0.09969 0.47834 0.0
C1085 C 0.76442 0.11015 0.47642 0.0
H1086 H 0.78922 0.08683 0.41427 0.0
C1087 C 0.75805 0.11349 0.40597 0.0
H1088 H 0.77996 0.09682 0.53174 0.0
C1089 C 0.76366 0.10811 0.33852 0.0
C1090 C 0.77537 0.09889 0.34032 0.0
H1091 H 0.74992 0.12153 0.40253 0.0
H1092 H 0.75965 0.11203 0.28501 0.0
C1093 C 0.78018 0.09392 0.41092 0.0
C1094 C 0.86806 0.64912 0.34105 0.0
C1095 C 0.87787 0.67012 0.34334 0.0
H1096 H 0.85424 0.6219 0.40449 0.0
C1097 C 0.88348 0.67988 0.41413 0.0
H1098 H 0.86363 0.64118 0.2874 0.0
C1099 C 0.87778 0.66886 0.48133 0.0
C1100 C 0.86674 0.64785 0.47903 0.0
H1101 H 0.89104 0.69607 0.41788 0.0
H1102 H 0.88118 0.67679 0.53497 0.0
C1103 C 0.86274 0.63809 0.40826 0.0
C1104 C 0.76285 0.64899 0.84086 0.0
C1105 C 0.77391 0.66999 0.84317 0.0
H1106 H 0.74963 0.62177 0.90427 0.0
C1107 C 0.77798 0.67975 0.91397 0.0
H1108 H 0.7594 0.64106 0.78721 0.0
C1109 C 0.77272 0.66872 0.98116 0.0
C1110 C 0.7629 0.64771 0.97884 0.0
H1111 H 0.7865 0.69594 0.91774 0.0
H1112 H 0.7772 0.67665 0.03481 0.0
C1113 C 0.75721 0.63796 0.90806 0.0
C1114 C 0.33549 0.1141 0.89195 0.0
C1115 C 0.32576 0.11073 0.96232 0.0
H1116 H 0.33246 0.11252 0.77097 0.0
C1117 C 0.30482 0.1001 0.96411 0.0
H1118 H 0.35162 0.12227 0.8886 0.0
C1119 C 0.29385 0.09418 0.89664 0.0
C1120 C 0.30363 0.09918 0.82608 0.0
H1121 H 0.29692 0.09719 0.01745 0.0
H1122 H 0.27774 0.08695 0.89989 0.0
C1123 C 0.32453 0.10857 0.82444 0.0
C1124 C 0.86463 0.21479 0.8391 0.0
C1125 C 0.8753 0.20447 0.8411 0.0
H1126 H 0.85027 0.22758 0.90308 0.0
C1127 C 0.88181 0.20132 0.91157 0.0
H1128 H 0.8595 0.21752 0.78569 0.0
C1129 C 0.87622 0.20674 0.97896 0.0
C1130 C 0.86439 0.21582 0.97712 0.0
H1131 H 0.89006 0.19339 0.9151 0.0
H1132 H 0.88036 0.20297 0.03251 0.0
C1133 C 0.85941 0.22061 0.90646 0.0
C1134 C 0.64462 0.76762 0.63845 0.0
C1135 C 0.66554 0.77885 0.637 0.0
H1136 H 0.61757 0.75443 0.57403 0.0
C1137 C 0.67536 0.7833 0.56655 0.0
H1138 H 0.63665 0.76389 0.69183 0.0
C1139 C 0.66444 0.77822 0.49895 0.0
C1140 C 0.64351 0.76822 0.50052 0.0
H1141 H 0.69149 0.79196 0.56346 0.0
H1142 H 0.6724 0.78298 0.44566 0.0
C1143 C 0.63371 0.76216 0.57083 0.0
C1144 C 0.1942 0.88817 0.56787 0.0
C1145 C 0.19827 0.88269 0.63886 0.0
H1146 H 0.19503 0.88555 0.4471 0.0
C1147 C 0.2094 0.87285 0.64158 0.0
H1148 H 0.18563 0.89575 0.56378 0.0
C1149 C 0.2151 0.86734 0.57461 0.0
C1150 C 0.2094 0.87118 0.50365 0.0
H1151 H 0.21284 0.86853 0.6954 0.0
H1152 H 0.22271 0.8588 0.57872 0.0
C1153 C 0.19952 0.88228 0.5009 0.0
C1154 C 0.10755 0.32722 0.4723 0.0
C1155 C 0.10501 0.34382 0.48399 0.0
H1156 H 0.10195 0.2988 0.51272 0.0
C1157 C 0.09308 0.34355 0.54465 0.0
H1158 H 0.11664 0.32701 0.42597 0.0
C1159 C 0.08489 0.32746 0.59545 0.0
C1160 C 0.08825 0.31128 0.58561 0.0
H1161 H 0.09098 0.35622 0.55524 0.0
H1162 H 0.07645 0.32797 0.64353 0.0
C1163 C 0.09915 0.31107 0.52218 0.0
C1164 C 0.00593 0.55371 0.73096 0.0
C1165 C -0.00345 0.54868 0.80225 0.0
H1166 H 0.00218 0.55067 0.61035 0.0
C1167 C 0.97566 0.53924 0.80562 0.0
H1168 H 0.02202 0.56096 0.72643 0.0
C1169 C 0.96432 0.53369 0.73902 0.0
C1170 C 0.97365 0.53706 0.66782 0.0
H1171 H 0.96803 0.53527 0.85971 0.0
H1172 H 0.9482 0.52546 0.74366 0.0
C1173 C -0.00542 0.54776 0.66437 0.0
C1174 C 0.42783 0.45094 0.73418 0.0
C1175 C 0.43362 0.44704 0.80483 0.0
H1176 H 0.42969 0.4496 0.61328 0.0
C1177 C 0.44328 0.43573 0.80701 0.0
H1178 H 0.42037 0.45964 0.73053 0.0
C1179 C 0.44827 0.42965 0.73974 0.0
C1180 C 0.44409 0.43516 0.669 0.0
H1181 H 0.44783 0.4324 0.86056 0.0
H1182 H 0.45667 0.42189 0.74335 0.0
C1183 C 0.4332 0.44525 0.66688 0.0
C1184 C 0.53654 -0.00046 0.87599 0.0
C1185 C 0.5293 0.97918 0.86042 0.0
H1186 H 0.55075 0.02934 0.83321 0.0
C1187 C 0.5328 0.97362 0.78843 0.0
H1188 H 0.53427 0.00436 0.931 0.0
C1189 C 0.54221 0.98803 0.73171 0.0
C1190 C 0.54839 0.00823 0.74631 0.0
H1191 H 0.52739 0.95803 0.7747 0.0
H1192 H 0.5439 0.98324 0.67576 0.0
C1193 C 0.54602 0.01388 0.81975 0.0
C1194 C 0.44722 0.01402 0.31962 0.0
C1195 C 0.43926 0.0084 0.2461 0.0
H1196 H 0.44946 0.00447 0.43088 0.0
C1197 C 0.42534 0.98819 0.23139 0.0
H1198 H 0.45788 0.02948 0.33317 0.0
C1199 C 0.42039 0.97376 0.28808 0.0
C1200 C 0.42941 0.97931 0.36013 0.0
H1201 H 0.41891 0.98341 0.17539 0.0
H1202 H 0.4103 0.95818 0.27425 0.0
C1203 C 0.44241 -0.00034 0.37581 0.0
C1204 C 0.00236 0.44434 0.23214 0.0
C1205 C -0.00703 0.44098 0.30323 0.0
H1206 H -0.00119 0.44323 0.1114 0.0
C1207 C 0.97204 0.4306 0.30632 0.0
H1208 H 0.01848 0.45233 0.22778 0.0
C1209 C 0.96077 0.42506 0.23952 0.0
C1210 C 0.97025 0.4302 0.16841 0.0
H1211 H 0.96439 0.42773 0.36023 0.0
H1212 H 0.9447 0.4181 0.24383 0.0
C1213 C -0.00889 0.43921 0.16534 0.0
C1214 C 0.55338 0.53496 0.23992 0.0
C1215 C 0.54732 0.53855 0.16925 0.0
H1216 H 0.5518 0.53661 0.36081 0.0
C1217 C 0.53741 0.54961 0.16694 0.0
H1218 H 0.56104 0.52646 0.2437 0.0
C1219 C 0.53245 0.55576 0.23414 0.0
C1220 C 0.53693 0.55058 0.30496 0.0
H1221 H 0.53264 0.5527 0.11338 0.0
H1222 H 0.52386 0.56333 0.23048 0.0
C1223 C 0.54805 0.54072 0.30714 0.0
loop_
_geom_bond_atom_site_label_1
_geom_bond_atom_site_label_2
_geom_bond_distance
_geom_bond_site_symmetry_2
_ccdc_geom_bond_type
C0 O1 1.306 . S
C0 O3 1.160 . S
O1 C0 1.306 . S
O1 Cd2 2.228 . S
Cd2 O1 2.228 . S
Cd2 O6 2.273 . S
Cd2 O10 2.277 . S
O3 C0 1.160 . S
O3 Cd4 2.203 . S
Cd4 O3 2.203 . S
Cd4 O6 2.411 . S
Cd4 O7 2.333 . S
Cd4 O8 2.352 . S
Cd4 O12 2.277 . S
Cd4 O13 2.356 . S
C5 O10 1.209 . S
C5 O12 1.226 . S
O6 Cd2 2.273 . S
O6 Cd4 2.411 . S
O6 C9 1.320 . S
O7 Cd4 2.333 . S
O7 C9 1.214 . S
O8 Cd4 2.352 . S
O8 C11 1.258 . S
C9 O6 1.320 . S
C9 O7 1.214 . S
O10 Cd2 2.277 . S
O10 C5 1.209 . S
C11 O8 1.258 . S
C11 O13 1.282 . S
O12 Cd4 2.277 . S
O12 C5 1.226 . S
O13 Cd4 2.356 . S
O13 C11 1.282 . S
C14 O15 1.306 . S
C14 O17 1.160 . S
O15 C14 1.306 . S
O15 Cd16 2.228 . S
Cd16 O15 2.228 . S
Cd16 O20 2.273 . S
Cd16 O24 2.277 . S
O17 C14 1.160 . S
O17 Cd18 2.203 . S
Cd18 O17 2.203 . S
Cd18 O20 2.411 . S
Cd18 O21 2.333 . S
Cd18 O22 2.352 . S
Cd18 O26 2.277 . S
Cd18 O27 2.356 . S
C19 O24 1.209 . S
C19 O26 1.226 . S
O20 Cd16 2.273 . S
O20 Cd18 2.411 . S
O20 C23 1.320 . S
O21 Cd18 2.333 . S
O21 C23 1.214 . S
O22 Cd18 2.352 . S
O22 C25 1.258 . S
C23 O20 1.320 . S
C23 O21 1.214 . S
O24 Cd16 2.277 . S
O24 C19 1.209 . S
C25 O22 1.258 . S
C25 O27 1.282 . S
O26 Cd18 2.277 . S
O26 C19 1.226 . S
O27 Cd18 2.356 . S
O27 C25 1.282 . S
C28 O29 1.306 . S
C28 O31 1.160 . S
O29 C28 1.306 . S
O29 Cd30 2.228 . S
Cd30 O29 2.228 . S
Cd30 O34 2.273 . S
Cd30 O38 2.277 . S
O31 C28 1.160 . S
O31 Cd32 2.203 . S
Cd32 O31 2.203 . S
Cd32 O34 2.411 . S
Cd32 O35 2.333 . S
Cd32 O36 2.352 . S
Cd32 O40 2.277 . S
Cd32 O41 2.356 . S
C33 O38 1.209 . S
C33 O40 1.226 . S
O34 Cd30 2.273 . S
O34 Cd32 2.411 . S
O34 C37 1.320 . S
O35 Cd32 2.333 . S
O35 C37 1.214 . S
O36 Cd32 2.352 . S
O36 C39 1.258 . S
C37 O34 1.320 . S
C37 O35 1.214 . S
O38 Cd30 2.277 . S
O38 C33 1.209 . S
C39 O36 1.258 . S
C39 O41 1.282 . S
O40 Cd32 2.277 . S
O40 C33 1.226 . S
O41 Cd32 2.356 . S
O41 C39 1.282 . S
C42 O43 1.306 . S
C42 O45 1.160 . S
O43 C42 1.306 . S
O43 Cd44 2.228 . S
Cd44 O43 2.228 . S
Cd44 O48 2.273 . S
Cd44 O52 2.277 . S
O45 C42 1.160 . S
O45 Cd46 2.203 . S
Cd46 O45 2.203 . S
Cd46 O48 2.411 . S
Cd46 O49 2.333 . S
Cd46 O50 2.352 . S
Cd46 O54 2.277 . S
Cd46 O55 2.356 . S
C47 O52 1.209 . S
C47 O54 1.226 . S
O48 Cd44 2.273 . S
O48 Cd46 2.411 . S
O48 C51 1.320 . S
O49 Cd46 2.333 . S
O49 C51 1.214 . S
O50 Cd46 2.352 . S
O50 C53 1.258 . S
C51 O48 1.320 . S
C51 O49 1.214 . S
O52 Cd44 2.277 . S
O52 C47 1.209 . S
C53 O50 1.258 . S
C53 O55 1.282 . S
O54 Cd46 2.277 . S
O54 C47 1.226 . S
O55 Cd46 2.356 . S
O55 C53 1.282 . S
C56 O57 1.306 . S
C56 O59 1.160 . S
O57 C56 1.306 . S
O57 Cd58 2.228 . S
Cd58 O57 2.228 . S
Cd58 O62 2.273 . S
Cd58 O66 2.277 . S
O59 C56 1.160 . S
O59 Cd60 2.203 . S
Cd60 O59 2.203 . S
Cd60 O62 2.411 . S
Cd60 O63 2.333 . S
Cd60 O64 2.352 . S
Cd60 O68 2.277 . S
Cd60 O69 2.356 . S
C61 O66 1.209 . S
C61 O68 1.226 . S
O62 Cd58 2.273 . S
O62 Cd60 2.411 . S
O62 C65 1.320 . S
O63 Cd60 2.333 . S
O63 C65 1.214 . S
O64 Cd60 2.352 . S
O64 C67 1.258 . S
C65 O62 1.320 . S
C65 O63 1.214 . S
O66 Cd58 2.277 . S
O66 C61 1.209 . S
C67 O64 1.258 . S
C67 O69 1.282 . S
O68 Cd60 2.277 . S
O68 C61 1.226 . S
O69 Cd60 2.356 . S
O69 C67 1.282 . S
C70 O71 1.306 . S
C70 O73 1.160 . S
O71 C70 1.306 . S
O71 Cd72 2.228 . S
Cd72 O71 2.228 . S
Cd72 O76 2.273 . S
Cd72 O80 2.277 . S
O73 C70 1.160 . S
O73 Cd74 2.203 . S
Cd74 O73 2.203 . S
Cd74 O76 2.411 . S
Cd74 O77 2.333 . S
Cd74 O78 2.352 . S
Cd74 O82 2.277 . S
Cd74 O83 2.356 . S
C75 O80 1.209 . S
C75 O82 1.226 . S
O76 Cd72 2.273 . S
O76 Cd74 2.411 . S
O76 C79 1.320 . S
O77 Cd74 2.333 . S
O77 C79 1.214 . S
O78 Cd74 2.352 . S
O78 C81 1.258 . S
C79 O76 1.320 . S
C79 O77 1.214 . S
O80 Cd72 2.277 . S
O80 C75 1.209 . S
C81 O78 1.258 . S
C81 O83 1.282 . S
O82 Cd74 2.277 . S
O82 C75 1.226 . S
O83 Cd74 2.356 . S
O83 C81 1.282 . S
C84 O85 1.306 . S
C84 O87 1.160 . S
O85 C84 1.306 . S
O85 Cd86 2.228 . S
Cd86 O85 2.228 . S
Cd86 O90 2.273 . S
Cd86 O94 2.277 . S
O87 C84 1.160 . S
O87 Cd88 2.203 . S
Cd88 O87 2.203 . S
Cd88 O90 2.411 . S
Cd88 O91 2.333 . S
Cd88 O92 2.352 . S
Cd88 O96 2.277 . S
Cd88 O97 2.356 . S
C89 O94 1.209 . S
C89 O96 1.226 . S
O90 Cd86 2.273 . S
O90 Cd88 2.411 . S
O90 C93 1.320 . S
O91 Cd88 2.333 . S
O91 C93 1.214 . S
O92 Cd88 2.352 . S
O92 C95 1.258 . S
C93 O90 1.320 . S
C93 O91 1.214 . S
O94 Cd86 2.277 . S
O94 C89 1.209 . S
C95 O92 1.258 . S
C95 O97 1.282 . S
O96 Cd88 2.277 . S
O96 C89 1.226 . S
O97 Cd88 2.356 . S
O97 C95 1.282 . S
C98 O99 1.306 . S
C98 O101 1.160 . S
O99 C98 1.306 . S
O99 Cd100 2.228 . S
Cd100 O99 2.228 . S
Cd100 O104 2.273 . S
Cd100 O108 2.277 . S
O101 C98 1.160 . S
O101 Cd102 2.203 . S
Cd102 O101 2.203 . S
Cd102 O104 2.411 . S
Cd102 O105 2.333 . S
Cd102 O106 2.352 . S
Cd102 O110 2.277 . S
Cd102 O111 2.356 . S
C103 O108 1.209 . S
C103 O110 1.226 . S
O104 Cd100 2.273 . S
O104 Cd102 2.411 . S
O104 C107 1.320 . S
O105 Cd102 2.333 . S
O105 C107 1.214 . S
O106 Cd102 2.352 . S
O106 C109 1.258 . S
C107 O104 1.320 . S
C107 O105 1.214 . S
O108 Cd100 2.277 . S
O108 C103 1.209 . S
C109 O106 1.258 . S
C109 O111 1.282 . S
O110 Cd102 2.277 . S
O110 C103 1.226 . S
O111 Cd102 2.356 . S
O111 C109 1.282 . S
C112 O113 1.306 . S
C112 O115 1.160 . S
O113 C112 1.306 . S
O113 Cd114 2.228 . S
Cd114 O113 2.228 . S
Cd114 O118 2.273 . S
Cd114 O122 2.277 . S
O115 C112 1.160 . S
O115 Cd116 2.203 . S
Cd116 O115 2.203 . S
Cd116 O118 2.411 . S
Cd116 O119 2.333 . S
Cd116 O120 2.352 . S
Cd116 O124 2.277 . S
Cd116 O125 2.356 . S
C117 O122 1.209 . S
C117 O124 1.226 . S
O118 Cd114 2.273 . S
O118 Cd116 2.411 . S
O118 C121 1.320 . S
O119 Cd116 2.333 . S
O119 C121 1.214 . S
O120 Cd116 2.352 . S
O120 C123 1.258 . S
C121 O118 1.320 . S
C121 O119 1.214 . S
O122 Cd114 2.277 . S
O122 C117 1.209 . S
C123 O120 1.258 . S
C123 O125 1.282 . S
O124 Cd116 2.277 . S
O124 C117 1.226 . S
O125 Cd116 2.356 . S
O125 C123 1.282 . S
C126 O127 1.306 . S
C126 O129 1.160 . S
O127 C126 1.306 . S
O127 Cd128 2.228 . S
Cd128 O127 2.228 . S
Cd128 O132 2.273 . S
Cd128 O136 2.277 . S
O129 C126 1.160 . S
O129 Cd130 2.203 . S
Cd130 O129 2.203 . S
Cd130 O132 2.411 . S
Cd130 O133 2.333 . S
Cd130 O134 2.352 . S
Cd130 O138 2.277 . S
Cd130 O139 2.356 . S
C131 O136 1.209 . S
C131 O138 1.226 . S
O132 Cd128 2.273 . S
O132 Cd130 2.411 . S
O132 C135 1.320 . S
O133 Cd130 2.333 . S
O133 C135 1.214 . S
O134 Cd130 2.352 . S
O134 C137 1.258 . S
C135 O132 1.320 . S
C135 O133 1.214 . S
O136 Cd128 2.277 . S
O136 C131 1.209 . S
C137 O134 1.258 . S
C137 O139 1.282 . S
O138 Cd130 2.277 . S
O138 C131 1.226 . S
O139 Cd130 2.356 . S
O139 C137 1.282 . S
C140 O141 1.306 . S
C140 O143 1.160 . S
O141 C140 1.306 . S
O141 Cd142 2.228 . S
Cd142 O141 2.228 . S
Cd142 O146 2.273 . S
Cd142 O150 2.277 . S
O143 C140 1.160 . S
O143 Cd144 2.203 . S
Cd144 O143 2.203 . S
Cd144 O146 2.411 . S
Cd144 O147 2.333 . S
Cd144 O148 2.352 . S
Cd144 O152 2.277 . S
Cd144 O153 2.356 . S
C145 O150 1.209 . S
C145 O152 1.226 . S
O146 Cd142 2.273 . S
O146 Cd144 2.411 . S
O146 C149 1.320 . S
O147 Cd144 2.333 . S
O147 C149 1.214 . S
O148 Cd144 2.352 . S
O148 C151 1.258 . S
C149 O146 1.320 . S
C149 O147 1.214 . S
O150 Cd142 2.277 . S
O150 C145 1.209 . S
C151 O148 1.258 . S
C151 O153 1.282 . S
O152 Cd144 2.277 . S
O152 C145 1.226 . S
O153 Cd144 2.356 . S
O153 C151 1.282 . S
C154 O155 1.306 . S
C154 O157 1.160 . S
O155 C154 1.306 . S
O155 Cd156 2.228 . S
Cd156 O155 2.228 . S
Cd156 O160 2.273 . S
Cd156 O164 2.277 . S
O157 C154 1.160 . S
O157 Cd158 2.203 . S
Cd158 O157 2.203 . S
Cd158 O160 2.411 . S
Cd158 O161 2.333 . S
Cd158 O162 2.352 . S
Cd158 O166 2.277 . S
Cd158 O167 2.356 . S
C159 O164 1.209 . S
C159 O166 1.226 . S
O160 Cd156 2.273 . S
O160 Cd158 2.411 . S
O160 C163 1.320 . S
O161 Cd158 2.333 . S
O161 C163 1.214 . S
O162 Cd158 2.352 . S
O162 C165 1.258 . S
C163 O160 1.320 . S
C163 O161 1.214 . S
O164 Cd156 2.277 . S
O164 C159 1.209 . S
C165 O162 1.258 . S
C165 O167 1.282 . S
O166 Cd158 2.277 . S
O166 C159 1.226 . S
O167 Cd158 2.356 . S
O167 C165 1.282 . S
C168 O169 1.306 . S
C168 O171 1.160 . S
O169 C168 1.306 . S
O169 Cd170 2.228 . S
Cd170 O169 2.228 . S
Cd170 O174 2.273 . S
Cd170 O178 2.277 . S
O171 C168 1.160 . S
O171 Cd172 2.203 . S
Cd172 O171 2.203 . S
Cd172 O174 2.411 . S
Cd172 O175 2.333 . S
Cd172 O176 2.352 . S
Cd172 O180 2.277 . S
Cd172 O181 2.356 . S
C173 O178 1.209 . S
C173 O180 1.226 . S
O174 Cd170 2.273 . S
O174 Cd172 2.411 . S
O174 C177 1.320 . S
O175 Cd172 2.333 . S
O175 C177 1.214 . S
O176 Cd172 2.352 . S
O176 C179 1.258 . S
C177 O174 1.320 . S
C177 O175 1.214 . S
O178 Cd170 2.277 . S
O178 C173 1.209 . S
C179 O176 1.258 . S
C179 O181 1.282 . S
O180 Cd172 2.277 . S
O180 C173 1.226 . S
O181 Cd172 2.356 . S
O181 C179 1.282 . S
C182 O183 1.306 . S
C182 O185 1.160 . S
O183 C182 1.306 . S
O183 Cd184 2.228 . S
Cd184 O183 2.228 . S
Cd184 O188 2.273 . S
Cd184 O192 2.277 . S
O185 C182 1.160 . S
O185 Cd186 2.203 . S
Cd186 O185 2.203 . S
Cd186 O188 2.411 . S
Cd186 O189 2.333 . S
Cd186 O190 2.352 . S
Cd186 O194 2.277 . S
Cd186 O195 2.356 . S
C187 O192 1.209 . S
C187 O194 1.226 . S
O188 Cd184 2.273 . S
O188 Cd186 2.411 . S
O188 C191 1.320 . S
O189 Cd186 2.333 . S
O189 C191 1.214 . S
O190 Cd186 2.352 . S
O190 C193 1.258 . S
C191 O188 1.320 . S
C191 O189 1.214 . S
O192 Cd184 2.277 . S
O192 C187 1.209 . S
C193 O190 1.258 . S
C193 O195 1.282 . S
O194 Cd186 2.277 . S
O194 C187 1.226 . S
O195 Cd186 2.356 . S
O195 C193 1.282 . S
C196 O197 1.306 . S
C196 O199 1.160 . S
O197 C196 1.306 . S
O197 Cd198 2.228 . S
Cd198 O197 2.228 . S
Cd198 O202 2.273 . S
Cd198 O206 2.277 . S
O199 C196 1.160 . S
O199 Cd200 2.203 . S
Cd200 O199 2.203 . S
Cd200 O202 2.411 . S
Cd200 O203 2.333 . S
Cd200 O204 2.352 . S
Cd200 O208 2.277 . S
Cd200 O209 2.356 . S
C201 O206 1.209 . S
C201 O208 1.226 . S
O202 Cd198 2.273 . S
O202 Cd200 2.411 . S
O202 C205 1.320 . S
O203 Cd200 2.333 . S
O203 C205 1.214 . S
O204 Cd200 2.352 . S
O204 C207 1.258 . S
C205 O202 1.320 . S
C205 O203 1.214 . S
O206 Cd198 2.277 . S
O206 C201 1.209 . S
C207 O204 1.258 . S
C207 O209 1.282 . S
O208 Cd200 2.277 . S
O208 C201 1.226 . S
O209 Cd200 2.356 . S
O209 C207 1.282 . S
C210 O211 1.306 . S
C210 O213 1.160 . S
O211 C210 1.306 . S
O211 Cd212 2.228 . S
Cd212 O211 2.228 . S
Cd212 O216 2.273 . S
Cd212 O220 2.277 . S
O213 C210 1.160 . S
O213 Cd214 2.203 . S
Cd214 O213 2.203 . S
Cd214 O216 2.411 . S
Cd214 O217 2.333 . S
Cd214 O218 2.352 . S
Cd214 O222 2.277 . S
Cd214 O223 2.356 . S
C215 O220 1.209 . S
C215 O222 1.226 . S
O216 Cd212 2.273 . S
O216 Cd214 2.411 . S
O216 C219 1.320 . S
O217 Cd214 2.333 . S
O217 C219 1.214 . S
O218 Cd214 2.352 . S
O218 C221 1.258 . S
C219 O216 1.320 . S
C219 O217 1.214 . S
O220 Cd212 2.277 . S
O220 C215 1.209 . S
C221 O218 1.258 . S
C221 O223 1.282 . S
O222 Cd214 2.277 . S
O222 C215 1.226 . S
O223 Cd214 2.356 . S
O223 C221 1.282 . S
C224 O225 1.306 . S
C224 O227 1.160 . S
O225 C224 1.306 . S
O225 Cd226 2.228 . S
Cd226 O225 2.228 . S
Cd226 O230 2.273 . S
Cd226 O234 2.277 . S
O227 C224 1.160 . S
O227 Cd228 2.203 . S
Cd228 O227 2.203 . S
Cd228 O230 2.411 . S
Cd228 O231 2.333 . S
Cd228 O232 2.352 . S
Cd228 O236 2.277 . S
Cd228 O237 2.356 . S
C229 O234 1.209 . S
C229 O236 1.226 . S
O230 Cd226 2.273 . S
O230 Cd228 2.411 . S
O230 C233 1.320 . S
O231 Cd228 2.333 . S
O231 C233 1.214 . S
O232 Cd228 2.352 . S
O232 C235 1.258 . S
C233 O230 1.320 . S
C233 O231 1.214 . S
O234 Cd226 2.277 . S
O234 C229 1.209 . S
C235 O232 1.258 . S
C235 O237 1.282 . S
O236 Cd228 2.277 . S
O236 C229 1.226 . S
O237 Cd228 2.356 . S
O237 C235 1.282 . S
C238 O239 1.306 . S
C238 O241 1.160 . S
O239 C238 1.306 . S
O239 Cd240 2.228 . S
Cd240 O239 2.228 . S
Cd240 O244 2.273 . S
Cd240 O248 2.277 . S
O241 C238 1.160 . S
O241 Cd242 2.203 . S
Cd242 O241 2.203 . S
Cd242 O244 2.411 . S
Cd242 O245 2.333 . S
Cd242 O246 2.352 . S
Cd242 O250 2.277 . S
Cd242 O251 2.356 . S
C243 O248 1.209 . S
C243 O250 1.226 . S
O244 Cd240 2.273 . S
O244 Cd242 2.411 . S
O244 C247 1.320 . S
O245 Cd242 2.333 . S
O245 C247 1.214 . S
O246 Cd242 2.352 . S
O246 C249 1.258 . S
C247 O244 1.320 . S
C247 O245 1.214 . S
O248 Cd240 2.277 . S
O248 C243 1.209 . S
C249 O246 1.258 . S
C249 O251 1.282 . S
O250 Cd242 2.277 . S
O250 C243 1.226 . S
O251 Cd242 2.356 . S
O251 C249 1.282 . S
C252 O253 1.306 . S
C252 O255 1.160 . S
O253 C252 1.306 . S
O253 Cd254 2.228 . S
Cd254 O253 2.228 . S
Cd254 O258 2.273 . S
Cd254 O262 2.277 . S
O255 C252 1.160 . S
O255 Cd256 2.203 . S
Cd256 O255 2.203 . S
Cd256 O258 2.411 . S
Cd256 O259 2.333 . S
Cd256 O260 2.352 . S
Cd256 O264 2.277 . S
Cd256 O265 2.356 . S
C257 O262 1.209 . S
C257 O264 1.226 . S
O258 Cd254 2.273 . S
O258 Cd256 2.411 . S
O258 C261 1.320 . S
O259 Cd256 2.333 . S
O259 C261 1.214 . S
O260 Cd256 2.352 . S
O260 C263 1.258 . S
C261 O258 1.320 . S
C261 O259 1.214 . S
O262 Cd254 2.277 . S
O262 C257 1.209 . S
C263 O260 1.258 . S
C263 O265 1.282 . S
O264 Cd256 2.277 . S
O264 C257 1.226 . S
O265 Cd256 2.356 . S
O265 C263 1.282 . S
C266 O267 1.306 . S
C266 O269 1.160 . S
O267 C266 1.306 . S
O267 Cd268 2.228 . S
Cd268 O267 2.228 . S
Cd268 O272 2.273 . S
Cd268 O276 2.277 . S
O269 C266 1.160 . S
O269 Cd270 2.203 . S
Cd270 O269 2.203 . S
Cd270 O272 2.411 . S
Cd270 O273 2.333 . S
Cd270 O274 2.352 . S
Cd270 O278 2.277 . S
Cd270 O279 2.356 . S
C271 O276 1.209 . S
C271 O278 1.226 . S
O272 Cd268 2.273 . S
O272 Cd270 2.411 . S
O272 C275 1.320 . S
O273 Cd270 2.333 . S
O273 C275 1.214 . S
O274 Cd270 2.352 . S
O274 C277 1.258 . S
C275 O272 1.320 . S
C275 O273 1.214 . S
O276 Cd268 2.277 . S
O276 C271 1.209 . S
C277 O274 1.258 . S
C277 O279 1.282 . S
O278 Cd270 2.277 . S
O278 C271 1.226 . S
O279 Cd270 2.356 . S
O279 C277 1.282 . S
C280 O281 1.306 . S
C280 O283 1.160 . S
O281 C280 1.306 . S
O281 Cd282 2.228 . S
Cd282 O281 2.228 . S
Cd282 O286 2.273 . S
Cd282 O290 2.277 . S
O283 C280 1.160 . S
O283 Cd284 2.203 . S
Cd284 O283 2.203 . S
Cd284 O286 2.411 . S
Cd284 O287 2.333 . S
Cd284 O288 2.352 . S
Cd284 O292 2.277 . S
Cd284 O293 2.356 . S
C285 O290 1.209 . S
C285 O292 1.226 . S
O286 Cd282 2.273 . S
O286 Cd284 2.411 . S
O286 C289 1.320 . S
O287 Cd284 2.333 . S
O287 C289 1.214 . S
O288 Cd284 2.352 . S
O288 C291 1.258 . S
C289 O286 1.320 . S
C289 O287 1.214 . S
O290 Cd282 2.277 . S
O290 C285 1.209 . S
C291 O288 1.258 . S
C291 O293 1.282 . S
O292 Cd284 2.277 . S
O292 C285 1.226 . S
O293 Cd284 2.356 . S
O293 C291 1.282 . S
C294 O295 1.306 . S
C294 O297 1.160 . S
O295 C294 1.306 . S
O295 Cd296 2.228 1_556 S
Cd296 O295 2.228 1_554 S
Cd296 O300 2.273 . S
Cd296 O304 2.277 1_554 S
O297 C294 1.160 . S
O297 Cd298 2.203 . S
Cd298 O297 2.203 . S
Cd298 O300 2.411 1_556 S
Cd298 O301 2.333 1_556 S
Cd298 O302 2.352 1_556 S
Cd298 O306 2.277 . S
Cd298 O307 2.356 . S
C299 O304 1.209 . S
C299 O306 1.226 . S
O300 Cd296 2.273 . S
O300 Cd298 2.411 1_554 S
O300 C303 1.320 . S
O301 Cd298 2.333 1_554 S
O301 C303 1.214 . S
O302 Cd298 2.352 1_554 S
O302 C305 1.258 . S
C303 O300 1.320 . S
C303 O301 1.214 . S
O304 Cd296 2.277 1_556 S
O304 C299 1.209 . S
C305 O302 1.258 . S
C305 O307 1.282 1_554 S
O306 Cd298 2.277 . S
O306 C299 1.226 . S
O307 Cd298 2.356 . S
O307 C305 1.282 1_556 S
C308 O309 1.306 . S
C308 O311 1.160 . S
O309 C308 1.306 . S
O309 Cd310 2.228 1_556 S
Cd310 O309 2.228 1_554 S
Cd310 O314 2.273 . S
Cd310 O318 2.277 1_554 S
O311 C308 1.160 . S
O311 Cd312 2.203 . S
Cd312 O311 2.203 . S
Cd312 O314 2.411 1_556 S
Cd312 O315 2.333 1_556 S
Cd312 O316 2.352 1_556 S
Cd312 O320 2.277 . S
Cd312 O321 2.356 . S
C313 O318 1.209 . S
C313 O320 1.226 . S
O314 Cd310 2.273 . S
O314 Cd312 2.411 1_554 S
O314 C317 1.320 . S
O315 Cd312 2.333 1_554 S
O315 C317 1.214 . S
O316 Cd312 2.352 1_554 S
O316 C319 1.258 . S
C317 O314 1.320 . S
C317 O315 1.214 . S
O318 Cd310 2.277 1_556 S
O318 C313 1.209 . S
C319 O316 1.258 . S
C319 O321 1.282 1_554 S
O320 Cd312 2.277 . S
O320 C313 1.226 . S
O321 Cd312 2.356 . S
O321 C319 1.282 1_556 S
C322 O323 1.306 . S
C322 O325 1.160 . S
O323 C322 1.306 . S
O323 Cd324 2.228 1_556 S
Cd324 O323 2.228 1_554 S
Cd324 O328 2.273 . S
Cd324 O332 2.277 1_554 S
O325 C322 1.160 . S
O325 Cd326 2.203 . S
Cd326 O325 2.203 . S
Cd326 O328 2.411 1_556 S
Cd326 O329 2.333 1_556 S
Cd326 O330 2.352 1_556 S
Cd326 O334 2.277 . S
Cd326 O335 2.356 . S
C327 O332 1.209 . S
C327 O334 1.226 . S
O328 Cd324 2.273 . S
O328 Cd326 2.411 1_554 S
O328 C331 1.320 . S
O329 Cd326 2.333 1_554 S
O329 C331 1.214 . S
O330 Cd326 2.352 1_554 S
O330 C333 1.258 . S
C331 O328 1.320 . S
C331 O329 1.214 . S
O332 Cd324 2.277 1_556 S
O332 C327 1.209 . S
C333 O330 1.258 . S
C333 O335 1.282 1_554 S
O334 Cd326 2.277 . S
O334 C327 1.226 . S
O335 Cd326 2.356 . S
O335 C333 1.282 1_556 S
C336 O337 1.306 . S
C336 O339 1.160 . S
O337 C336 1.306 . S
O337 Cd338 2.228 . S
Cd338 O337 2.228 . S
Cd338 O342 2.273 . S
Cd338 O346 2.277 . S
O339 C336 1.160 . S
O339 Cd340 2.203 . S
Cd340 O339 2.203 . S
Cd340 O342 2.411 . S
Cd340 O343 2.333 . S
Cd340 O344 2.352 . S
Cd340 O348 2.277 . S
Cd340 O349 2.356 . S
C341 O346 1.209 . S
C341 O348 1.226 . S
O342 Cd338 2.273 . S
O342 Cd340 2.411 . S
O342 C345 1.320 . S
O343 Cd340 2.333 . S
O343 C345 1.214 . S
O344 Cd340 2.352 . S
O344 C347 1.258 . S
C345 O342 1.320 . S
C345 O343 1.214 . S
O346 Cd338 2.277 . S
O346 C341 1.209 . S
C347 O344 1.258 . S
C347 O349 1.282 . S
O348 Cd340 2.277 . S
O348 C341 1.226 . S
O349 Cd340 2.356 . S
O349 C347 1.282 . S
C350 O351 1.306 . S
C350 O353 1.160 . S
O351 C350 1.306 . S
O351 Cd352 2.228 . S
Cd352 O351 2.228 . S
Cd352 O356 2.273 . S
Cd352 O360 2.277 . S
O353 C350 1.160 . S
O353 Cd354 2.203 . S
Cd354 O353 2.203 . S
Cd354 O356 2.411 . S
Cd354 O357 2.333 . S
Cd354 O358 2.352 . S
Cd354 O362 2.277 . S
Cd354 O363 2.356 . S
C355 O360 1.209 . S
C355 O362 1.226 . S
O356 Cd352 2.273 . S
O356 Cd354 2.411 . S
O356 C359 1.320 . S
O357 Cd354 2.333 . S
O357 C359 1.214 . S
O358 Cd354 2.352 . S
O358 C361 1.258 . S
C359 O356 1.320 . S
C359 O357 1.214 . S
O360 Cd352 2.277 . S
O360 C355 1.209 . S
C361 O358 1.258 . S
C361 O363 1.282 . S
O362 Cd354 2.277 . S
O362 C355 1.226 . S
O363 Cd354 2.356 . S
O363 C361 1.282 . S
C364 O365 1.306 . S
C364 O367 1.160 . S
O365 C364 1.306 . S
O365 Cd366 2.228 . S
Cd366 O365 2.228 . S
Cd366 O370 2.273 . S
Cd366 O374 2.277 . S
O367 C364 1.160 . S
O367 Cd368 2.203 . S
Cd368 O367 2.203 . S
Cd368 O370 2.411 . S
Cd368 O371 2.333 . S
Cd368 O372 2.352 . S
Cd368 O376 2.277 . S
Cd368 O377 2.356 . S
C369 O374 1.209 . S
C369 O376 1.226 . S
O370 Cd366 2.273 . S
O370 Cd368 2.411 . S
O370 C373 1.320 . S
O371 Cd368 2.333 . S
O371 C373 1.214 . S
O372 Cd368 2.352 . S
O372 C375 1.258 . S
C373 O370 1.320 . S
C373 O371 1.214 . S
O374 Cd366 2.277 . S
O374 C369 1.209 . S
C375 O372 1.258 . S
C375 O377 1.282 . S
O376 Cd368 2.277 . S
O376 C369 1.226 . S
O377 Cd368 2.356 . S
O377 C375 1.282 . S
C378 O379 1.306 . S
C378 O381 1.160 . S
O379 C378 1.306 . S
O379 Cd380 2.228 1_554 S
Cd380 O379 2.228 1_556 S
Cd380 O384 2.273 . S
Cd380 O388 2.277 1_556 S
O381 C378 1.160 . S
O381 Cd382 2.203 . S
Cd382 O381 2.203 . S
Cd382 O384 2.411 1_554 S
Cd382 O385 2.333 1_554 S
Cd382 O386 2.352 1_554 S
Cd382 O390 2.277 . S
Cd382 O391 2.356 . S
C383 O388 1.209 . S
C383 O390 1.226 . S
O384 Cd380 2.273 . S
O384 Cd382 2.411 1_556 S
O384 C387 1.320 . S
O385 Cd382 2.333 1_556 S
O385 C387 1.214 . S
O386 Cd382 2.352 1_556 S
O386 C389 1.258 . S
C387 O384 1.320 . S
C387 O385 1.214 . S
O388 Cd380 2.277 1_554 S
O388 C383 1.209 . S
C389 O386 1.258 . S
C389 O391 1.282 1_556 S
O390 Cd382 2.277 . S
O390 C383 1.226 . S
O391 Cd382 2.356 . S
O391 C389 1.282 1_554 S
C392 O393 1.306 . S
C392 O395 1.160 . S
O393 C392 1.306 . S
O393 Cd394 2.228 1_554 S
Cd394 O393 2.228 1_556 S
Cd394 O398 2.273 . S
Cd394 O402 2.277 1_556 S
O395 C392 1.160 . S
O395 Cd396 2.203 . S
Cd396 O395 2.203 . S
Cd396 O398 2.411 1_554 S
Cd396 O399 2.333 1_554 S
Cd396 O400 2.352 1_554 S
Cd396 O404 2.277 . S
Cd396 O405 2.356 . S
C397 O402 1.209 . S
C397 O404 1.226 . S
O398 Cd394 2.273 . S
O398 Cd396 2.411 1_556 S
O398 C401 1.320 . S
O399 Cd396 2.333 1_556 S
O399 C401 1.214 . S
O400 Cd396 2.352 1_556 S
O400 C403 1.258 . S
C401 O398 1.320 . S
C401 O399 1.214 . S
O402 Cd394 2.277 1_554 S
O402 C397 1.209 . S
C403 O400 1.258 . S
C403 O405 1.282 1_556 S
O404 Cd396 2.277 . S
O404 C397 1.226 . S
O405 Cd396 2.356 . S
O405 C403 1.282 1_554 S
C406 O407 1.306 . S
C406 O409 1.160 . S
O407 C406 1.306 . S
O407 Cd408 2.228 1_554 S
Cd408 O407 2.228 1_556 S
Cd408 O412 2.273 . S
Cd408 O416 2.277 1_556 S
O409 C406 1.160 . S
O409 Cd410 2.203 . S
Cd410 O409 2.203 . S
Cd410 O412 2.411 1_554 S
Cd410 O413 2.333 1_554 S
Cd410 O414 2.352 1_554 S
Cd410 O418 2.277 . S
Cd410 O419 2.356 . S
C411 O416 1.209 . S
C411 O418 1.226 . S
O412 Cd408 2.273 . S
O412 Cd410 2.411 1_556 S
O412 C415 1.320 . S
O413 Cd410 2.333 1_556 S
O413 C415 1.214 . S
O414 Cd410 2.352 1_556 S
O414 C417 1.258 . S
C415 O412 1.320 . S
C415 O413 1.214 . S
O416 Cd408 2.277 1_554 S
O416 C411 1.209 . S
C417 O414 1.258 . S
C417 O419 1.282 1_556 S
O418 Cd410 2.277 . S
O418 C411 1.226 . S
O419 Cd410 2.356 . S
O419 C417 1.282 1_554 S
C420 O421 1.306 . S
C420 O423 1.160 . S
O421 C420 1.306 . S
O421 Cd422 2.228 . S
Cd422 O421 2.228 . S
Cd422 O426 2.273 . S
Cd422 O430 2.277 . S
O423 C420 1.160 . S
O423 Cd424 2.203 . S
Cd424 O423 2.203 . S
Cd424 O426 2.411 . S
Cd424 O427 2.333 . S
Cd424 O428 2.352 . S
Cd424 O432 2.277 . S
Cd424 O433 2.356 . S
C425 O430 1.209 . S
C425 O432 1.226 . S
O426 Cd422 2.273 . S
O426 Cd424 2.411 . S
O426 C429 1.320 . S
O427 Cd424 2.333 . S
O427 C429 1.214 . S
O428 Cd424 2.352 . S
O428 C431 1.258 . S
C429 O426 1.320 . S
C429 O427 1.214 . S
O430 Cd422 2.277 . S
O430 C425 1.209 . S
C431 O428 1.258 . S
C431 O433 1.282 . S
O432 Cd424 2.277 . S
O432 C425 1.226 . S
O433 Cd424 2.356 . S
O433 C431 1.282 . S
C434 O435 1.306 . S
C434 O437 1.160 . S
O435 C434 1.306 . S
O435 Cd436 2.228 . S
Cd436 O435 2.228 . S
Cd436 O440 2.273 . S
Cd436 O444 2.277 . S
O437 C434 1.160 . S
O437 Cd438 2.203 . S
Cd438 O437 2.203 . S
Cd438 O440 2.411 . S
Cd438 O441 2.333 . S
Cd438 O442 2.352 . S
Cd438 O446 2.277 . S
Cd438 O447 2.356 . S
C439 O444 1.209 . S
C439 O446 1.226 . S
O440 Cd436 2.273 . S
O440 Cd438 2.411 . S
O440 C443 1.320 . S
O441 Cd438 2.333 . S
O441 C443 1.214 . S
O442 Cd438 2.352 . S
O442 C445 1.258 . S
C443 O440 1.320 . S
C443 O441 1.214 . S
O444 Cd436 2.277 . S
O444 C439 1.209 . S
C445 O442 1.258 . S
C445 O447 1.282 . S
O446 Cd438 2.277 . S
O446 C439 1.226 . S
O447 Cd438 2.356 . S
O447 C445 1.282 . S
C448 O449 1.306 . S
C448 O451 1.160 . S
O449 C448 1.306 . S
O449 Cd450 2.228 . S
Cd450 O449 2.228 . S
Cd450 O454 2.273 . S
Cd450 O458 2.277 . S
O451 C448 1.160 . S
O451 Cd452 2.203 . S
Cd452 O451 2.203 . S
Cd452 O454 2.411 . S
Cd452 O455 2.333 . S
Cd452 O456 2.352 . S
Cd452 O460 2.277 . S
Cd452 O461 2.356 . S
C453 O458 1.209 . S
C453 O460 1.226 . S
O454 Cd450 2.273 . S
O454 Cd452 2.411 . S
O454 C457 1.320 . S
O455 Cd452 2.333 . S
O455 C457 1.214 . S
O456 Cd452 2.352 . S
O456 C459 1.258 . S
C457 O454 1.320 . S
C457 O455 1.214 . S
O458 Cd450 2.277 . S
O458 C453 1.209 . S
C459 O456 1.258 . S
C459 O461 1.282 . S
O460 Cd452 2.277 . S
O460 C453 1.226 . S
O461 Cd452 2.356 . S
O461 C459 1.282 . S
C462 O463 1.306 . S
C462 O465 1.160 . S
O463 C462 1.306 . S
O463 Cd464 2.228 . S
Cd464 O463 2.228 . S
Cd464 O468 2.273 . S
Cd464 O472 2.277 . S
O465 C462 1.160 . S
O465 Cd466 2.203 . S
Cd466 O465 2.203 . S
Cd466 O468 2.411 . S
Cd466 O469 2.333 . S
Cd466 O470 2.352 . S
Cd466 O474 2.277 . S
Cd466 O475 2.356 . S
C467 O472 1.209 . S
C467 O474 1.226 . S
O468 Cd464 2.273 . S
O468 Cd466 2.411 . S
O468 C471 1.320 . S
O469 Cd466 2.333 . S
O469 C471 1.214 . S
O470 Cd466 2.352 . S
O470 C473 1.258 . S
C471 O468 1.320 . S
C471 O469 1.214 . S
O472 Cd464 2.277 . S
O472 C467 1.209 . S
C473 O470 1.258 . S
C473 O475 1.282 . S
O474 Cd466 2.277 . S
O474 C467 1.226 . S
O475 Cd466 2.356 . S
O475 C473 1.282 . S
C476 O477 1.306 . S
C476 O479 1.160 . S
O477 C476 1.306 . S
O477 Cd478 2.228 . S
Cd478 O477 2.228 . S
Cd478 O482 2.273 . S
Cd478 O486 2.277 . S
O479 C476 1.160 . S
O479 Cd480 2.203 . S
Cd480 O479 2.203 . S
Cd480 O482 2.411 . S
Cd480 O483 2.333 . S
Cd480 O484 2.352 . S
Cd480 O488 2.277 . S
Cd480 O489 2.356 . S
C481 O486 1.209 . S
C481 O488 1.226 . S
O482 Cd478 2.273 . S
O482 Cd480 2.411 . S
O482 C485 1.320 . S
O483 Cd480 2.333 . S
O483 C485 1.214 . S
O484 Cd480 2.352 . S
O484 C487 1.258 . S
C485 O482 1.320 . S
C485 O483 1.214 . S
O486 Cd478 2.277 . S
O486 C481 1.209 . S
C487 O484 1.258 . S
C487 O489 1.282 . S
O488 Cd480 2.277 . S
O488 C481 1.226 . S
O489 Cd480 2.356 . S
O489 C487 1.282 . S
C490 O491 1.306 . S
C490 O493 1.160 . S
O491 C490 1.306 . S
O491 Cd492 2.228 . S
Cd492 O491 2.228 . S
Cd492 O496 2.273 . S
Cd492 O500 2.277 . S
O493 C490 1.160 . S
O493 Cd494 2.203 . S
Cd494 O493 2.203 . S
Cd494 O496 2.411 . S
Cd494 O497 2.333 . S
Cd494 O498 2.352 . S
Cd494 O502 2.277 . S
Cd494 O503 2.356 . S
C495 O500 1.209 . S
C495 O502 1.226 . S
O496 Cd492 2.273 . S
O496 Cd494 2.411 . S
O496 C499 1.320 . S
O497 Cd494 2.333 . S
O497 C499 1.214 . S
O498 Cd494 2.352 . S
O498 C501 1.258 . S
C499 O496 1.320 . S
C499 O497 1.214 . S
O500 Cd492 2.277 . S
O500 C495 1.209 . S
C501 O498 1.258 . S
C501 O503 1.282 . S
O502 Cd494 2.277 . S
O502 C495 1.226 . S
O503 Cd494 2.356 . S
O503 C501 1.282 . S
C504 C505 1.387 . S
C504 H508 0.950 . S
C504 C513 1.390 . S
C505 C504 1.387 . S
C505 C507 1.387 . S
H506 C513 0.950 . S
C507 C505 1.387 . S
C507 C509 1.390 . S
C507 H511 0.950 . S
H508 C504 0.950 . S
C509 C507 1.390 . S
C509 C510 1.387 . S
C509 H512 0.950 . S
C510 C509 1.387 . S
C510 C513 1.387 . S
H511 C507 0.950 . S
H512 C509 0.950 . S
C513 C504 1.390 . S
C513 H506 0.950 . S
C513 C510 1.387 . S
C514 C515 1.387 . S
C514 H518 0.950 . S
C514 C523 1.390 1_545 S
C515 C514 1.387 . S
C515 C517 1.387 . S
H516 C523 0.950 . S
C517 C515 1.387 . S
C517 C519 1.390 1_545 S
C517 H521 0.950 . S
H518 C514 0.950 . S
C519 C517 1.390 1_565 S
C519 C520 1.387 . S
C519 H522 0.950 . S
C520 C519 1.387 . S
C520 C523 1.387 . S
H521 C517 0.950 . S
H522 C519 0.950 . S
C523 C514 1.390 1_565 S
C523 H516 0.950 . S
C523 C520 1.387 . S
C524 C525 1.387 . S
C524 H528 0.950 . S
C524 C533 1.390 1_655 S
C525 C524 1.387 . S
C525 C527 1.387 . S
H526 C533 0.950 . S
C527 C525 1.387 . S
C527 C529 1.390 1_655 S
C527 H531 0.950 . S
H528 C524 0.950 . S
C529 C527 1.390 1_455 S
C529 C530 1.387 . S
C529 H532 0.950 . S
C530 C529 1.387 . S
C530 C533 1.387 . S
H531 C527 0.950 . S
H532 C529 0.950 . S
C533 C524 1.390 1_455 S
C533 H526 0.950 . S
C533 C530 1.387 . S
C534 C535 1.387 . S
C534 H538 0.950 . S
C534 C543 1.390 . S
C535 C534 1.387 . S
C535 C537 1.387 . S
H536 C543 0.950 . S
C537 C535 1.387 . S
C537 C539 1.390 . S
C537 H541 0.950 . S
H538 C534 0.950 . S
C539 C537 1.390 . S
C539 C540 1.387 . S
C539 H542 0.950 . S
C540 C539 1.387 . S
C540 C543 1.387 . S
H541 C537 0.950 . S
H542 C539 0.950 . S
C543 C534 1.390 . S
C543 H536 0.950 . S
C543 C540 1.387 . S
C544 C545 1.387 . S
C544 H548 0.950 . S
C544 C553 1.390 1_545 S
C545 C544 1.387 . S
C545 C547 1.387 . S
H546 C553 0.950 . S
C547 C545 1.387 . S
C547 C549 1.390 1_545 S
C547 H551 0.950 . S
H548 C544 0.950 . S
C549 C547 1.390 1_565 S
C549 C550 1.387 . S
C549 H552 0.950 . S
C550 C549 1.387 . S
C550 C553 1.387 . S
H551 C547 0.950 . S
H552 C549 0.950 . S
C553 C544 1.390 1_565 S
C553 H546 0.950 . S
C553 C550 1.387 . S
C554 C555 1.387 . S
C554 H558 0.950 . S
C554 C563 1.390 1_455 S
C555 C554 1.387 . S
C555 C557 1.387 . S
H556 C563 0.950 . S
C557 C555 1.387 . S
C557 C559 1.390 1_455 S
C557 H561 0.950 . S
H558 C554 0.950 . S
C559 C557 1.390 1_655 S
C559 C560 1.387 . S
C559 H562 0.950 . S
C560 C559 1.387 . S
C560 C563 1.387 . S
H561 C557 0.950 . S
H562 C559 0.950 . S
C563 C554 1.390 1_655 S
C563 H556 0.950 . S
C563 C560 1.387 . S
C564 C565 1.387 . S
C564 H568 0.950 . S
C564 C573 1.390 . S
C565 C564 1.387 . S
C565 C567 1.387 . S
H566 C573 0.950 . S
C567 C565 1.387 . S
C567 C569 1.390 . S
C567 H571 0.950 . S
H568 C564 0.950 . S
C569 C567 1.390 . S
C569 C570 1.387 . S
C569 H572 0.950 . S
C570 C569 1.387 . S
C570 C573 1.387 . S
H571 C567 0.950 . S
H572 C569 0.950 . S
C573 C564 1.390 . S
C573 H566 0.950 . S
C573 C570 1.387 . S
C574 C575 1.387 . S
C574 H578 0.950 . S
C574 C583 1.390 . S
C575 C574 1.387 . S
C575 C577 1.387 . S
H576 C583 0.950 . S
C577 C575 1.387 . S
C577 C579 1.390 . S
C577 H581 0.950 . S
H578 C574 0.950 . S
C579 C577 1.390 . S
C579 C580 1.387 . S
C579 H582 0.950 . S
C580 C579 1.387 . S
C580 C583 1.387 . S
H581 C577 0.950 . S
H582 C579 0.950 . S
C583 C574 1.390 . S
C583 H576 0.950 . S
C583 C580 1.387 . S
C584 C585 1.387 . S
C584 H588 0.950 . S
C584 C593 1.390 . S
C585 C584 1.387 . S
C585 C587 1.387 . S
H586 C593 0.950 . S
C587 C585 1.387 . S
C587 C589 1.390 . S
C587 H591 0.950 . S
H588 C584 0.950 . S
C589 C587 1.390 . S
C589 C590 1.387 . S
C589 H592 0.950 . S
C590 C589 1.387 . S
C590 C593 1.387 . S
H591 C587 0.950 . S
H592 C589 0.950 . S
C593 C584 1.390 . S
C593 H586 0.950 . S
C593 C590 1.387 . S
C594 C595 1.387 . S
C594 H598 0.950 . S
C594 C603 1.390 . S
C595 C594 1.387 . S
C595 C597 1.387 . S
H596 C603 0.950 . S
C597 C595 1.387 . S
C597 C599 1.390 . S
C597 H601 0.954 . S
H598 C594 0.950 . S
C599 C597 1.390 . S
C599 C600 1.387 . S
C599 H602 0.950 1_554 S
C600 C599 1.387 . S
C600 C603 1.387 . S
H601 C597 0.954 . S
H602 C599 0.950 1_556 S
C603 C594 1.390 . S
C603 H596 0.950 . S
C603 C600 1.387 . S
C604 C605 1.387 . S
C604 H608 0.950 . S
C604 C613 1.390 . S
C605 C604 1.387 . S
C605 C607 1.387 . S
H606 C613 0.950 . S
C607 C605 1.387 . S
C607 C609 1.390 . S
C607 H611 0.950 . S
H608 C604 0.950 . S
C609 C607 1.390 . S
C609 C610 1.387 . S
C609 H612 0.950 . S
C610 C609 1.387 . S
C610 C613 1.387 . S
H611 C607 0.950 . S
H612 C609 0.950 . S
C613 C604 1.390 . S
C613 H606 0.950 . S
C613 C610 1.387 . S
C614 C615 1.387 . S
C614 H618 0.950 . S
C614 C623 1.390 . S
C615 C614 1.387 . S
C615 C617 1.387 . S
H616 C623 0.950 1_556 S
C617 C615 1.387 . S
C617 C619 1.390 . S
C617 H621 0.950 . S
H618 C614 0.950 . S
C619 C617 1.390 . S
C619 C620 1.387 . S
C619 H622 0.950 . S
C620 C619 1.387 . S
C620 C623 1.387 . S
H621 C617 0.950 . S
H622 C619 0.950 . S
C623 C614 1.390 . S
C623 H616 0.950 1_554 S
C623 C620 1.387 . S
C624 C625 1.387 . S
C624 H628 0.950 . S
C624 C633 1.390 . S
C625 C624 1.387 . S
C625 C627 1.387 . S
H626 C633 0.950 . S
C627 C625 1.387 . S
C627 C629 1.390 . S
C627 H631 0.950 . S
H628 C624 0.950 . S
C629 C627 1.390 . S
C629 C630 1.387 . S
C629 H632 0.950 . S
C630 C629 1.387 . S
C630 C633 1.387 . S
H631 C627 0.950 . S
H632 C629 0.950 . S
C633 C624 1.390 . S
C633 H626 0.950 . S
C633 C630 1.387 . S
C634 C635 1.387 . S
C634 H638 0.950 . S
C634 C643 1.390 . S
C635 C634 1.387 . S
C635 C637 1.387 . S
H636 C643 0.950 . S
C637 C635 1.387 . S
C637 C639 1.390 . S
C637 H641 0.950 . S
H638 C634 0.950 . S
C639 C637 1.390 . S
C639 C640 1.387 . S
C639 H642 0.950 . S
C640 C639 1.387 . S
C640 C643 1.387 . S
H641 C637 0.950 . S
H642 C639 0.950 . S
C643 C634 1.390 . S
C643 H636 0.950 . S
C643 C640 1.387 . S
C644 C645 1.387 . S
C644 H648 0.950 . S
C644 C653 1.390 . S
C645 C644 1.387 . S
C645 C647 1.387 . S
H646 C653 0.950 . S
C647 C645 1.387 . S
C647 C649 1.390 . S
C647 H651 0.950 1_556 S
H648 C644 0.950 . S
C649 C647 1.390 . S
C649 C650 1.387 . S
C649 H652 0.950 . S
C650 C649 1.387 . S
C650 C653 1.387 . S
H651 C647 0.950 1_554 S
H652 C649 0.950 . S
C653 C644 1.390 . S
C653 H646 0.950 . S
C653 C650 1.387 . S
C654 C655 1.387 . S
C654 H658 0.950 . S
C654 C663 1.390 . S
C655 C654 1.387 . S
C655 C657 1.387 . S
H656 C663 0.950 . S
C657 C655 1.387 . S
C657 C659 1.390 . S
C657 H661 0.950 . S
H658 C654 0.950 . S
C659 C657 1.390 . S
C659 C660 1.387 . S
C659 H662 0.950 . S
C660 C659 1.387 . S
C660 C663 1.387 . S
H661 C657 0.950 . S
H662 C659 0.950 . S
C663 C654 1.390 . S
C663 H656 0.950 . S
C663 C660 1.387 . S
C664 C665 1.387 . S
C664 H668 0.950 . S
C664 C673 1.390 . S
C665 C664 1.387 . S
C665 C667 1.387 . S
H666 C673 0.950 . S
C667 C665 1.387 . S
C667 C669 1.390 . S
C667 H671 0.950 . S
H668 C664 0.950 . S
C669 C667 1.390 . S
C669 C670 1.387 . S
C669 H672 0.950 . S
C670 C669 1.387 . S
C670 C673 1.387 . S
H671 C667 0.950 . S
H672 C669 0.950 . S
C673 C664 1.390 . S
C673 H666 0.950 . S
C673 C670 1.387 . S
C674 C675 1.387 . S
C674 H678 0.950 . S
C674 C683 1.390 . S
C675 C674 1.387 . S
C675 C677 1.387 . S
H676 C683 0.950 . S
C677 C675 1.387 . S
C677 C679 1.390 . S
C677 H681 0.950 . S
H678 C674 0.950 . S
C679 C677 1.390 . S
C679 C680 1.387 . S
C679 H682 0.950 . S
C680 C679 1.387 . S
C680 C683 1.387 . S
H681 C677 0.950 . S
H682 C679 0.950 . S
C683 C674 1.390 . S
C683 H676 0.950 . S
C683 C680 1.387 . S
C684 C685 1.387 . S
C684 H688 0.950 . S
C684 C693 1.390 . S
C685 C684 1.387 . S
C685 C687 1.387 . S
H686 C693 0.950 . S
C687 C685 1.387 . S
C687 C689 1.390 . S
C687 H691 0.950 . S
H688 C684 0.950 . S
C689 C687 1.390 . S
C689 C690 1.387 . S
C689 H692 0.950 . S
C690 C689 1.387 . S
C690 C693 1.387 . S
H691 C687 0.950 . S
H692 C689 0.950 . S
C693 C684 1.390 . S
C693 H686 0.950 . S
C693 C690 1.387 . S
C694 C695 1.387 . S
C694 H698 0.950 . S
C694 C703 1.390 . S
C695 C694 1.387 . S
C695 C697 1.387 . S
H696 C703 0.950 . S
C697 C695 1.387 . S
C697 C699 1.390 . S
C697 H701 0.950 1_556 S
H698 C694 0.950 . S
C699 C697 1.390 . S
C699 C700 1.387 . S
C699 H702 0.950 . S
C700 C699 1.387 . S
C700 C703 1.387 . S
H701 C697 0.950 1_554 S
H702 C699 0.950 . S
C703 C694 1.390 . S
C703 H696 0.950 . S
C703 C700 1.387 . S
C704 C705 1.387 . S
C704 H708 0.950 1_556 S
C704 C713 1.390 . S
C705 C704 1.387 . S
C705 C707 1.387 . S
H706 C713 0.950 . S
C707 C705 1.387 . S
C707 C709 1.390 . S
C707 H711 0.950 . S
H708 C704 0.950 1_554 S
C709 C707 1.390 . S
C709 C710 1.387 . S
C709 H712 0.950 . S
C710 C709 1.387 . S
C710 C713 1.387 . S
H711 C707 0.950 . S
H712 C709 0.950 . S
C713 C704 1.390 . S
C713 H706 0.950 . S
C713 C710 1.387 . S
C714 C715 1.387 . S
C714 H718 0.950 . S
C714 C723 1.390 . S
C715 C714 1.387 . S
C715 C717 1.387 . S
H716 C723 0.950 . S
C717 C715 1.387 . S
C717 C719 1.390 . S
C717 H721 0.950 . S
H718 C714 0.950 . S
C719 C717 1.390 . S
C719 C720 1.387 . S
C719 H722 0.950 . S
C720 C719 1.387 . S
C720 C723 1.387 . S
H721 C717 0.950 . S
H722 C719 0.950 . S
C723 C714 1.390 . S
C723 H716 0.950 . S
C723 C720 1.387 . S
C724 C725 1.387 . S
C724 H728 0.950 . S
C724 C733 1.390 . S
C725 C724 1.387 . S
C725 C727 1.387 . S
H726 C733 0.950 . S
C727 C725 1.387 . S
C727 C729 1.390 . S
C727 H731 0.950 . S
H728 C724 0.950 . S
C729 C727 1.390 . S
C729 C730 1.387 . S
C729 H732 0.950 . S
C730 C729 1.387 . S
C730 C733 1.387 . S
H731 C727 0.950 . S
H732 C729 0.950 . S
C733 C724 1.390 . S
C733 H726 0.950 . S
C733 C730 1.387 . S
C734 C735 1.387 . S
C734 H738 0.950 . S
C734 C743 1.390 . S
C735 C734 1.387 . S
C735 C737 1.387 . S
H736 C743 0.950 . S
C737 C735 1.387 . S
C737 C739 1.390 . S
C737 H741 0.950 . S
H738 C734 0.950 . S
C739 C737 1.390 . S
C739 C740 1.387 . S
C739 H742 0.950 . S
C740 C739 1.387 . S
C740 C743 1.387 . S
H741 C737 0.950 . S
H742 C739 0.950 . S
C743 C734 1.390 . S
C743 H736 0.950 . S
C743 C740 1.387 . S
C744 C745 1.387 . S
C744 H748 0.950 . S
C744 C753 1.390 . S
C745 C744 1.387 . S
C745 C747 1.387 . S
H746 C753 0.950 . S
C747 C745 1.387 . S
C747 C749 1.390 . S
C747 H751 0.950 . S
H748 C744 0.950 . S
C749 C747 1.390 . S
C749 C750 1.387 . S
C749 H752 0.950 . S
C750 C749 1.387 . S
C750 C753 1.387 . S
H751 C747 0.950 . S
H752 C749 0.950 . S
C753 C744 1.390 . S
C753 H746 0.950 . S
C753 C750 1.387 . S
C754 C755 1.387 . S
C754 H758 0.950 1_554 S
C754 C763 1.390 . S
C755 C754 1.387 . S
C755 C757 1.387 . S
H756 C763 0.950 . S
C757 C755 1.387 . S
C757 C759 1.390 . S
C757 H761 0.950 . S
H758 C754 0.950 1_556 S
C759 C757 1.390 . S
C759 C760 1.387 . S
C759 H762 0.950 . S
C760 C759 1.387 . S
C760 C763 1.387 . S
H761 C757 0.950 . S
H762 C759 0.950 . S
C763 C754 1.390 . S
C763 H756 0.950 . S
C763 C760 1.387 . S
C764 C765 1.387 . S
C764 H768 0.950 . S
C764 C773 1.390 . S
C765 C764 1.387 . S
C765 C767 1.387 . S
H766 C773 0.950 . S
C767 C765 1.387 . S
C767 C769 1.390 . S
C767 H771 0.950 . S
H768 C764 0.950 . S
C769 C767 1.390 . S
C769 C770 1.387 . S
C769 H772 0.950 1_554 S
C770 C769 1.387 . S
C770 C773 1.387 . S
H771 C767 0.950 . S
H772 C769 0.950 1_556 S
C773 C764 1.390 . S
C773 H766 0.950 . S
C773 C770 1.387 . S
C774 C775 1.387 . S
C774 H778 0.950 . S
C774 C783 1.390 . S
C775 C774 1.387 . S
C775 C777 1.387 . S
H776 C783 0.950 . S
C777 C775 1.387 . S
C777 C779 1.390 . S
C777 H781 0.950 . S
H778 C774 0.950 . S
C779 C777 1.390 . S
C779 C780 1.387 . S
C779 H782 0.950 . S
C780 C779 1.387 . S
C780 C783 1.387 . S
H781 C777 0.950 . S
H782 C779 0.950 . S
C783 C774 1.390 . S
C783 H776 0.950 . S
C783 C780 1.387 . S
C784 C785 1.387 . S
C784 H788 0.950 . S
C784 C793 1.390 . S
C785 C784 1.387 . S
C785 C787 1.387 . S
H786 C793 0.950 . S
C787 C785 1.387 . S
C787 C789 1.390 . S
C787 H791 0.950 . S
H788 C784 0.950 . S
C789 C787 1.390 . S
C789 C790 1.387 . S
C789 H792 0.950 . S
C790 C789 1.387 . S
C790 C793 1.387 . S
H791 C787 0.950 . S
H792 C789 0.950 . S
C793 C784 1.390 . S
C793 H786 0.950 . S
C793 C790 1.387 . S
C794 C795 1.387 . S
C794 H798 0.950 . S
C794 C803 1.390 . S
C795 C794 1.387 . S
C795 C797 1.387 . S
H796 C803 0.950 . S
C797 C795 1.387 . S
C797 C799 1.390 . S
C797 H801 0.950 . S
H798 C794 0.950 . S
C799 C797 1.390 . S
C799 C800 1.387 . S
C799 H802 0.950 . S
C800 C799 1.387 . S
C800 C803 1.387 . S
H801 C797 0.950 . S
H802 C799 0.950 . S
C803 C794 1.390 . S
C803 H796 0.950 . S
C803 C800 1.387 . S
C804 C805 1.387 . S
C804 H808 0.950 . S
C804 C813 1.390 . S
C805 C804 1.387 . S
C805 C807 1.387 . S
H806 C813 0.950 . S
C807 C805 1.387 . S
C807 C809 1.390 . S
C807 H811 0.950 . S
H808 C804 0.950 . S
C809 C807 1.390 . S
C809 C810 1.387 . S
C809 H812 0.950 . S
C810 C809 1.387 . S
C810 C813 1.387 . S
H811 C807 0.950 . S
H812 C809 0.950 . S
C813 C804 1.390 . S
C813 H806 0.950 . S
C813 C810 1.387 . S
C814 C815 1.387 . S
C814 H818 0.950 . S
C814 C823 1.390 . S
C815 C814 1.387 . S
C815 C817 1.387 . S
H816 C823 0.950 . S
C817 C815 1.387 . S
C817 C819 1.390 . S
C817 H821 0.950 . S
H818 C814 0.950 . S
C819 C817 1.390 . S
C819 C820 1.387 . S
C819 H822 0.950 . S
C820 C819 1.387 . S
C820 C823 1.387 . S
H821 C817 0.950 . S
H822 C819 0.950 . S
C823 C814 1.390 . S
C823 H816 0.950 . S
C823 C820 1.387 . S
C824 C825 1.387 . S
C824 H828 0.950 . S
C824 C833 1.390 . S
C825 C824 1.387 . S
C825 C827 1.387 . S
H826 C833 0.950 . S
C827 C825 1.387 . S
C827 C829 1.390 . S
C827 H831 0.950 . S
H828 C824 0.950 . S
C829 C827 1.390 . S
C829 C830 1.387 . S
C829 H832 0.950 . S
C830 C829 1.387 . S
C830 C833 1.387 . S
H831 C827 0.950 . S
H832 C829 0.950 . S
C833 C824 1.390 . S
C833 H826 0.950 . S
C833 C830 1.387 . S
C834 C835 1.387 . S
C834 H838 0.950 . S
C834 C843 1.398 . S
C835 C834 1.387 . S
C835 C837 1.387 . S
H836 C843 0.941 1_554 S
C837 C835 1.387 . S
C837 C839 1.390 . S
C837 H841 0.950 . S
H838 C834 0.950 . S
C839 C837 1.390 . S
C839 C840 1.387 . S
C839 H842 0.950 . S
C840 C839 1.387 . S
C840 C843 1.388 . S
H841 C837 0.950 . S
H842 C839 0.950 . S
C843 C834 1.398 . S
C843 H836 0.941 1_556 S
C843 C840 1.388 . S
C844 C845 1.387 . S
C844 H848 0.950 . S
C844 C853 1.390 . S
C845 C844 1.387 . S
C845 C847 1.387 . S
H846 C853 0.950 . S
C847 C845 1.387 . S
C847 C849 1.390 . S
C847 H851 0.950 . S
H848 C844 0.950 . S
C849 C847 1.390 . S
C849 C850 1.387 . S
C849 H852 0.950 . S
C850 C849 1.387 . S
C850 C853 1.387 . S
H851 C847 0.950 . S
H852 C849 0.950 . S
C853 C844 1.390 . S
C853 H846 0.950 . S
C853 C850 1.387 . S
C854 C855 1.387 . S
C854 H858 0.950 . S
C854 C863 1.390 . S
C855 C854 1.387 . S
C855 C857 1.387 . S
H856 C863 0.950 . S
C857 C855 1.387 . S
C857 C859 1.390 . S
C857 H861 0.950 . S
H858 C854 0.950 . S
C859 C857 1.390 . S
C859 C860 1.387 . S
C859 H862 0.950 . S
C860 C859 1.387 . S
C860 C863 1.387 . S
H861 C857 0.950 . S
H862 C859 0.950 . S
C863 C854 1.390 . S
C863 H856 0.950 . S
C863 C860 1.387 . S
C864 C865 1.387 . S
C864 H868 0.950 . S
C864 C873 1.390 . S
C865 C864 1.387 . S
C865 C867 1.387 . S
H866 C873 0.950 . S
C867 C865 1.387 . S
C867 C869 1.390 . S
C867 H871 0.950 . S
H868 C864 0.950 . S
C869 C867 1.390 . S
C869 C870 1.387 . S
C869 H872 0.950 . S
C870 C869 1.387 . S
C870 C873 1.387 . S
H871 C867 0.950 . S
H872 C869 0.950 . S
C873 C864 1.390 . S
C873 H866 0.950 . S
C873 C870 1.387 . S
C874 C875 1.387 . S
C874 H878 0.950 . S
C874 C883 1.390 . S
C875 C874 1.387 . S
C875 C877 1.387 . S
H876 C883 0.950 . S
C877 C875 1.387 . S
C877 C879 1.390 . S
C877 H881 0.950 . S
H878 C874 0.950 . S
C879 C877 1.390 . S
C879 C880 1.387 . S
C879 H882 0.950 . S
C880 C879 1.387 . S
C880 C883 1.387 . S
H881 C877 0.950 . S
H882 C879 0.950 . S
C883 C874 1.390 . S
C883 H876 0.950 . S
C883 C880 1.387 . S
C884 C885 1.387 . S
C884 H888 0.950 . S
C884 C893 1.390 . S
C885 C884 1.387 . S
C885 C887 1.387 . S
H886 C893 0.950 . S
C887 C885 1.387 . S
C887 C889 1.390 . S
C887 H891 0.950 . S
H888 C884 0.950 . S
C889 C887 1.390 . S
C889 C890 1.387 . S
C889 H892 0.950 . S
C890 C889 1.387 . S
C890 C893 1.387 . S
H891 C887 0.950 . S
H892 C889 0.950 . S
C893 C884 1.390 . S
C893 H886 0.950 . S
C893 C890 1.387 . S
C894 C895 1.387 . S
C894 H898 0.950 . S
C894 C903 1.390 . S
C895 C894 1.387 . S
C895 C897 1.387 . S
H896 C903 0.950 . S
C897 C895 1.387 . S
C897 C899 1.390 . S
C897 H901 0.950 . S
H898 C894 0.950 . S
C899 C897 1.390 . S
C899 C900 1.387 . S
C899 H902 0.950 . S
C900 C899 1.387 . S
C900 C903 1.387 . S
H901 C897 0.950 . S
H902 C899 0.950 . S
C903 C894 1.390 . S
C903 H896 0.950 . S
C903 C900 1.387 . S
C904 C905 1.387 . S
C904 H908 0.950 . S
C904 C913 1.390 . S
C905 C904 1.387 . S
C905 C907 1.387 . S
H906 C913 0.950 . S
C907 C905 1.387 . S
C907 C909 1.390 . S
C907 H911 0.950 . S
H908 C904 0.950 . S
C909 C907 1.390 . S
C909 C910 1.387 . S
C909 H912 0.950 . S
C910 C909 1.387 . S
C910 C913 1.387 . S
H911 C907 0.950 . S
H912 C909 0.950 . S
C913 C904 1.390 . S
C913 H906 0.950 . S
C913 C910 1.387 . S
C914 C915 1.387 . S
C914 H918 0.950 . S
C914 C923 1.390 . S
C915 C914 1.387 . S
C915 C917 1.387 . S
H916 C923 0.950 . S
C917 C915 1.387 . S
C917 C919 1.390 . S
C917 H921 0.950 . S
H918 C914 0.950 . S
C919 C917 1.390 . S
C919 C920 1.387 . S
C919 H922 0.950 . S
C920 C919 1.387 . S
C920 C923 1.387 . S
H921 C917 0.950 . S
H922 C919 0.950 . S
C923 C914 1.390 . S
C923 H916 0.950 . S
C923 C920 1.387 . S
C924 C925 1.387 . S
C924 H928 0.950 . S
C924 C933 1.390 . S
C925 C924 1.387 . S
C925 C927 1.387 . S
H926 C933 0.950 . S
C927 C925 1.387 . S
C927 C929 1.390 . S
C927 H931 0.950 . S
H928 C924 0.950 . S
C929 C927 1.390 . S
C929 C930 1.387 . S
C929 H932 0.950 . S
C930 C929 1.387 . S
C930 C933 1.387 . S
H931 C927 0.950 . S
H932 C929 0.950 . S
C933 C924 1.390 . S
C933 H926 0.950 . S
C933 C930 1.387 . S
C934 C935 1.387 . S
C934 H938 0.950 . S
C934 C943 1.390 . S
C935 C934 1.387 . S
C935 C937 1.387 . S
H936 C943 0.950 . S
C937 C935 1.387 . S
C937 C939 1.390 . S
C937 H941 0.950 . S
H938 C934 0.950 . S
C939 C937 1.390 . S
C939 C940 1.387 . S
C939 H942 0.950 . S
C940 C939 1.387 . S
C940 C943 1.387 . S
H941 C937 0.950 . S
H942 C939 0.950 . S
C943 C934 1.390 . S
C943 H936 0.950 . S
C943 C940 1.387 . S
C944 C945 1.387 . S
C944 H948 0.950 . S
C944 C953 1.390 . S
C945 C944 1.387 . S
C945 C947 1.387 . S
H946 C953 0.950 . S
C947 C945 1.387 . S
C947 C949 1.390 . S
C947 H951 0.950 . S
H948 C944 0.950 . S
C949 C947 1.390 . S
C949 C950 1.387 . S
C949 H952 0.950 . S
C950 C949 1.387 . S
C950 C953 1.387 . S
H951 C947 0.950 . S
H952 C949 0.950 . S
C953 C944 1.390 . S
C953 H946 0.950 . S
C953 C950 1.387 . S
C954 C955 1.387 . S
C954 H958 0.950 . S
C954 C963 1.390 . S
C955 C954 1.387 . S
C955 C957 1.387 . S
H956 C963 0.950 . S
C957 C955 1.387 . S
C957 C959 1.390 . S
C957 H961 0.950 . S
H958 C954 0.950 . S
C959 C957 1.390 . S
C959 C960 1.387 . S
C959 H962 0.950 . S
C960 C959 1.387 . S
C960 C963 1.387 . S
H961 C957 0.950 . S
H962 C959 0.950 . S
C963 C954 1.390 . S
C963 H956 0.950 . S
C963 C960 1.387 . S
C964 C965 1.387 . S
C964 H968 0.950 . S
C964 C973 1.390 . S
C965 C964 1.387 . S
C965 C967 1.387 . S
H966 C973 0.950 . S
C967 C965 1.387 . S
C967 C969 1.390 . S
C967 H971 0.950 . S
H968 C964 0.950 . S
C969 C967 1.390 . S
C969 C970 1.387 . S
C969 H972 0.950 . S
C970 C969 1.387 . S
C970 C973 1.387 . S
H971 C967 0.950 . S
H972 C969 0.950 . S
C973 C964 1.390 . S
C973 H966 0.950 . S
C973 C970 1.387 . S
C974 C975 1.387 . S
C974 H978 0.950 . S
C974 C983 1.390 . S
C975 C974 1.387 . S
C975 C977 1.387 . S
H976 C983 0.950 . S
C977 C975 1.387 . S
C977 C979 1.390 . S
C977 H981 0.950 . S
H978 C974 0.950 . S
C979 C977 1.390 . S
C979 C980 1.387 . S
C979 H982 0.950 . S
C980 C979 1.387 . S
C980 C983 1.387 . S
H981 C977 0.950 . S
H982 C979 0.950 . S
C983 C974 1.390 . S
C983 H976 0.950 . S
C983 C980 1.387 . S
C984 C985 1.387 . S
C984 H988 0.950 . S
C984 C993 1.390 . S
C985 C984 1.387 . S
C985 C987 1.387 . S
H986 C993 0.950 . S
C987 C985 1.387 . S
C987 C989 1.390 . S
C987 H991 0.950 . S
H988 C984 0.950 . S
C989 C987 1.390 . S
C989 C990 1.387 . S
C989 H992 0.950 . S
C990 C989 1.387 . S
C990 C993 1.387 . S
H991 C987 0.950 . S
H992 C989 0.950 . S
C993 C984 1.390 . S
C993 H986 0.950 . S
C993 C990 1.387 . S
C994 C995 1.387 . S
C994 H998 0.950 . S
C994 C1003 1.390 . S
C995 C994 1.387 . S
C995 C997 1.387 . S
H996 C1003 0.950 . S
C997 C995 1.387 . S
C997 C999 1.390 . S
C997 H1001 0.950 . S
H998 C994 0.950 . S
C999 C997 1.390 . S
C999 C1000 1.387 . S
C999 H1002 0.950 . S
C1000 C999 1.387 . S
C1000 C1003 1.387 . S
H1001 C997 0.950 . S
H1002 C999 0.950 . S
C1003 C994 1.390 . S
C1003 H996 0.950 . S
C1003 C1000 1.387 . S
C1004 C1005 1.387 . S
C1004 H1008 0.950 . S
C1004 C1013 1.390 . S
C1005 C1004 1.387 . S
C1005 C1007 1.387 . S
H1006 C1013 0.950 . S
C1007 C1005 1.387 . S
C1007 C1009 1.390 . S
C1007 H1011 0.950 . S
H1008 C1004 0.950 . S
C1009 C1007 1.390 . S
C1009 C1010 1.387 . S
C1009 H1012 0.950 . S
C1010 C1009 1.387 . S
C1010 C1013 1.387 . S
H1011 C1007 0.950 . S
H1012 C1009 0.950 . S
C1013 C1004 1.390 . S
C1013 H1006 0.950 . S
C1013 C1010 1.387 . S
C1014 C1015 1.387 . S
C1014 H1018 0.950 . S
C1014 C1023 1.390 . S
C1015 C1014 1.387 . S
C1015 C1017 1.387 . S
H1016 C1023 0.950 . S
C1017 C1015 1.387 . S
C1017 C1019 1.390 . S
C1017 H1021 0.950 1_554 S
H1018 C1014 0.950 . S
C1019 C1017 1.390 . S
C1019 C1020 1.387 . S
C1019 H1022 0.950 . S
C1020 C1019 1.387 . S
C1020 C1023 1.387 . S
H1021 C1017 0.950 1_556 S
H1022 C1019 0.950 . S
C1023 C1014 1.390 . S
C1023 H1016 0.950 . S
C1023 C1020 1.387 . S
C1024 C1025 1.387 . S
C1024 H1028 0.950 . S
C1024 C1033 1.390 . S
C1025 C1024 1.387 . S
C1025 C1027 1.387 1_554 S
H1026 C1033 0.950 . S
C1027 C1025 1.387 1_556 S
C1027 C1029 1.386 1_556 S
C1027 H1031 0.954 . S
H1028 C1024 0.950 . S
C1029 C1027 1.386 1_554 S
C1029 C1030 1.387 . S
C1029 H1032 0.950 . S
C1030 C1029 1.387 . S
C1030 C1033 1.387 . S
H1031 C1027 0.954 . S
H1032 C1029 0.950 . S
C1033 C1024 1.390 . S
C1033 H1026 0.950 . S
C1033 C1030 1.387 . S
C1034 C1035 1.387 . S
C1034 H1038 0.950 . S
C1034 C1043 1.390 . S
C1035 C1034 1.387 . S
C1035 C1037 1.387 . S
H1036 C1043 0.950 . S
C1037 C1035 1.387 . S
C1037 C1039 1.390 . S
C1037 H1041 0.950 . S
H1038 C1034 0.950 . S
C1039 C1037 1.390 . S
C1039 C1040 1.387 . S
C1039 H1042 0.950 . S
C1040 C1039 1.387 . S
C1040 C1043 1.387 . S
H1041 C1037 0.950 . S
H1042 C1039 0.950 . S
C1043 C1034 1.390 . S
C1043 H1036 0.950 . S
C1043 C1040 1.387 . S
C1044 C1045 1.387 . S
C1044 H1048 0.950 . S
C1044 C1053 1.390 . S
C1045 C1044 1.387 . S
C1045 C1047 1.387 . S
H1046 C1053 0.950 . S
C1047 C1045 1.387 . S
C1047 C1049 1.390 . S
C1047 H1051 0.950 . S
H1048 C1044 0.950 . S
C1049 C1047 1.390 . S
C1049 C1050 1.387 . S
C1049 H1052 0.950 . S
C1050 C1049 1.387 . S
C1050 C1053 1.387 . S
H1051 C1047 0.950 . S
H1052 C1049 0.950 . S
C1053 C1044 1.390 . S
C1053 H1046 0.950 . S
C1053 C1050 1.387 . S
C1054 C1055 1.387 . S
C1054 H1058 0.950 . S
C1054 C1063 1.390 . S
C1055 C1054 1.387 . S
C1055 C1057 1.387 . S
H1056 C1063 0.950 . S
C1057 C1055 1.387 . S
C1057 C1059 1.390 . S
C1057 H1061 0.950 1_554 S
H1058 C1054 0.950 . S
C1059 C1057 1.390 . S
C1059 C1060 1.387 . S
C1059 H1062 0.950 1_554 S
C1060 C1059 1.387 . S
C1060 C1063 1.387 . S
H1061 C1057 0.950 1_556 S
H1062 C1059 0.950 1_556 S
C1063 C1054 1.390 . S
C1063 H1056 0.950 . S
C1063 C1060 1.387 . S
C1064 C1065 1.387 . S
C1064 H1068 0.950 1_554 S
C1064 C1073 1.390 . S
C1065 C1064 1.387 . S
C1065 C1067 1.387 . S
H1066 C1073 0.950 1_556 S
C1067 C1065 1.387 . S
C1067 C1069 1.390 . S
C1067 H1071 0.950 . S
H1068 C1064 0.950 1_556 S
C1069 C1067 1.390 . S
C1069 C1070 1.387 . S
C1069 H1072 0.950 . S
C1070 C1069 1.387 . S
C1070 C1073 1.387 . S
H1071 C1067 0.950 . S
H1072 C1069 0.950 . S
C1073 C1064 1.390 . S
C1073 H1066 0.950 1_554 S
C1073 C1070 1.387 . S
C1074 C1075 1.387 . S
C1074 H1078 0.950 . S
C1074 C1083 1.390 . S
C1075 C1074 1.387 . S
C1075 C1077 1.387 . S
H1076 C1083 0.950 . S
C1077 C1075 1.387 . S
C1077 C1079 1.390 . S
C1077 H1081 0.950 . S
H1078 C1074 0.950 . S
C1079 C1077 1.390 . S
C1079 C1080 1.387 . S
C1079 H1082 0.950 . S
C1080 C1079 1.387 . S
C1080 C1083 1.387 . S
H1081 C1077 0.950 . S
H1082 C1079 0.950 . S
C1083 C1074 1.390 . S
C1083 H1076 0.950 . S
C1083 C1080 1.387 . S
C1084 C1085 1.387 . S
C1084 H1088 0.950 . S
C1084 C1093 1.390 . S
C1085 C1084 1.387 . S
C1085 C1087 1.387 . S
H1086 C1093 0.950 . S
C1087 C1085 1.387 . S
C1087 C1089 1.390 . S
C1087 H1091 0.950 . S
H1088 C1084 0.950 . S
C1089 C1087 1.390 . S
C1089 C1090 1.387 . S
C1089 H1092 0.950 . S
C1090 C1089 1.387 . S
C1090 C1093 1.387 . S
H1091 C1087 0.950 . S
H1092 C1089 0.950 . S
C1093 C1084 1.390 . S
C1093 H1086 0.950 . S
C1093 C1090 1.387 . S
C1094 C1095 1.387 . S
C1094 H1098 0.950 . S
C1094 C1103 1.390 . S
C1095 C1094 1.387 . S
C1095 C1097 1.387 . S
H1096 C1103 0.950 . S
C1097 C1095 1.387 . S
C1097 C1099 1.390 . S
C1097 H1101 0.950 . S
H1098 C1094 0.950 . S
C1099 C1097 1.390 . S
C1099 C1100 1.387 . S
C1099 H1102 0.950 . S
C1100 C1099 1.387 . S
C1100 C1103 1.387 . S
H1101 C1097 0.950 . S
H1102 C1099 0.950 . S
C1103 C1094 1.390 . S
C1103 H1096 0.950 . S
C1103 C1100 1.387 . S
C1104 C1105 1.387 . S
C1104 H1108 0.950 . S
C1104 C1113 1.390 . S
C1105 C1104 1.387 . S
C1105 C1107 1.387 . S
H1106 C1113 0.950 . S
C1107 C1105 1.387 . S
C1107 C1109 1.390 . S
C1107 H1111 0.950 . S
H1108 C1104 0.950 . S
C1109 C1107 1.390 . S
C1109 C1110 1.387 . S
C1109 H1112 0.950 . S
C1110 C1109 1.387 . S
C1110 C1113 1.387 . S
H1111 C1107 0.950 . S
H1112 C1109 0.950 . S
C1113 C1104 1.390 . S
C1113 H1106 0.950 . S
C1113 C1110 1.387 . S
C1114 C1115 1.387 . S
C1114 H1118 0.950 . S
C1114 C1123 1.390 . S
C1115 C1114 1.387 . S
C1115 C1117 1.387 . S
H1116 C1123 0.950 . S
C1117 C1115 1.387 . S
C1117 C1119 1.390 . S
C1117 H1121 0.950 1_556 S
H1118 C1114 0.950 . S
C1119 C1117 1.390 . S
C1119 C1120 1.387 . S
C1119 H1122 0.950 1_556 S
C1120 C1119 1.387 . S
C1120 C1123 1.387 . S
H1121 C1117 0.950 1_554 S
H1122 C1119 0.950 1_554 S
C1123 C1114 1.390 . S
C1123 H1116 0.950 . S
C1123 C1120 1.387 . S
C1124 C1125 1.387 . S
C1124 H1128 0.950 . S
C1124 C1133 1.390 . S
C1125 C1124 1.387 . S
C1125 C1127 1.387 . S
H1126 C1133 0.950 . S
C1127 C1125 1.387 . S
C1127 C1129 1.390 . S
C1127 H1131 0.950 1_556 S
H1128 C1124 0.950 . S
C1129 C1127 1.390 . S
C1129 C1130 1.387 . S
C1129 H1132 0.950 1_556 S
C1130 C1129 1.387 . S
C1130 C1133 1.387 . S
H1131 C1127 0.950 1_554 S
H1132 C1129 0.950 1_554 S
C1133 C1124 1.390 . S
C1133 H1126 0.950 . S
C1133 C1130 1.387 . S
C1134 C1135 1.387 . S
C1134 H1138 0.950 . S
C1134 C1143 1.390 . S
C1135 C1134 1.387 . S
C1135 C1137 1.387 . S
H1136 C1143 0.950 . S
C1137 C1135 1.387 . S
C1137 C1139 1.390 . S
C1137 H1141 0.950 . S
H1138 C1134 0.950 . S
C1139 C1137 1.390 . S
C1139 C1140 1.387 . S
C1139 H1142 0.950 . S
C1140 C1139 1.387 . S
C1140 C1143 1.387 . S
H1141 C1137 0.950 . S
H1142 C1139 0.950 . S
C1143 C1134 1.390 . S
C1143 H1136 0.950 . S
C1143 C1140 1.387 . S
C1144 C1145 1.387 . S
C1144 H1148 0.950 . S
C1144 C1153 1.390 . S
C1145 C1144 1.387 . S
C1145 C1147 1.387 . S
H1146 C1153 0.950 . S
C1147 C1145 1.387 . S
C1147 C1149 1.390 . S
C1147 H1151 0.950 . S
H1148 C1144 0.950 . S
C1149 C1147 1.390 . S
C1149 C1150 1.387 . S
C1149 H1152 0.950 . S
C1150 C1149 1.387 . S
C1150 C1153 1.387 . S
H1151 C1147 0.950 . S
H1152 C1149 0.950 . S
C1153 C1144 1.390 . S
C1153 H1146 0.950 . S
C1153 C1150 1.387 . S
C1154 C1155 1.387 . S
C1154 H1158 0.950 . S
C1154 C1163 1.390 . S
C1155 C1154 1.387 . S
C1155 C1157 1.387 . S
H1156 C1163 0.950 . S
C1157 C1155 1.387 . S
C1157 C1159 1.390 . S
C1157 H1161 0.950 . S
H1158 C1154 0.950 . S
C1159 C1157 1.390 . S
C1159 C1160 1.387 . S
C1159 H1162 0.950 . S
C1160 C1159 1.387 . S
C1160 C1163 1.387 . S
H1161 C1157 0.950 . S
H1162 C1159 0.950 . S
C1163 C1154 1.390 . S
C1163 H1156 0.950 . S
C1163 C1160 1.387 . S
C1164 C1165 1.387 . S
C1164 H1168 0.950 . S
C1164 C1173 1.390 1_455 S
C1165 C1164 1.387 . S
C1165 C1167 1.387 . S
H1166 C1173 0.950 . S
C1167 C1165 1.387 . S
C1167 C1169 1.390 1_455 S
C1167 H1171 0.950 . S
H1168 C1164 0.950 . S
C1169 C1167 1.390 1_655 S
C1169 C1170 1.387 . S
C1169 H1172 0.950 . S
C1170 C1169 1.387 . S
C1170 C1173 1.387 . S
H1171 C1167 0.950 . S
H1172 C1169 0.950 . S
C1173 C1164 1.390 1_655 S
C1173 H1166 0.950 . S
C1173 C1170 1.387 . S
C1174 C1175 1.387 . S
C1174 H1178 0.950 . S
C1174 C1183 1.390 . S
C1175 C1174 1.387 . S
C1175 C1177 1.387 . S
H1176 C1183 0.950 . S
C1177 C1175 1.387 . S
C1177 C1179 1.390 . S
C1177 H1181 0.950 . S
H1178 C1174 0.950 . S
C1179 C1177 1.390 . S
C1179 C1180 1.387 . S
C1179 H1182 0.950 . S
C1180 C1179 1.387 . S
C1180 C1183 1.387 . S
H1181 C1177 0.950 . S
H1182 C1179 0.950 . S
C1183 C1174 1.390 . S
C1183 H1176 0.950 . S
C1183 C1180 1.387 . S
C1184 C1185 1.387 . S
C1184 H1188 0.950 . S
C1184 C1193 1.390 1_565 S
C1185 C1184 1.387 . S
C1185 C1187 1.387 . S
H1186 C1193 0.950 . S
C1187 C1185 1.387 . S
C1187 C1189 1.390 1_565 S
C1187 H1191 0.950 . S
H1188 C1184 0.950 . S
C1189 C1187 1.390 1_545 S
C1189 C1190 1.387 . S
C1189 H1192 0.950 . S
C1190 C1189 1.387 . S
C1190 C1193 1.387 . S
H1191 C1187 0.950 . S
H1192 C1189 0.950 . S
C1193 C1184 1.390 1_545 S
C1193 H1186 0.950 . S
C1193 C1190 1.387 . S
C1194 C1195 1.387 . S
C1194 H1198 0.950 . S
C1194 C1203 1.390 1_545 S
C1195 C1194 1.387 . S
C1195 C1197 1.387 . S
H1196 C1203 0.950 . S
C1197 C1195 1.387 . S
C1197 C1199 1.390 1_545 S
C1197 H1201 0.950 . S
H1198 C1194 0.950 . S
C1199 C1197 1.390 1_565 S
C1199 C1200 1.387 . S
C1199 H1202 0.950 . S
C1200 C1199 1.387 . S
C1200 C1203 1.387 . S
H1201 C1197 0.950 . S
H1202 C1199 0.950 . S
C1203 C1194 1.390 1_565 S
C1203 H1196 0.950 . S
C1203 C1200 1.387 . S
C1204 C1205 1.387 . S
C1204 H1208 0.950 . S
C1204 C1213 1.390 1_455 S
C1205 C1204 1.387 . S
C1205 C1207 1.387 . S
H1206 C1213 0.950 . S
C1207 C1205 1.387 . S
C1207 C1209 1.390 1_455 S
C1207 H1211 0.950 . S
H1208 C1204 0.950 . S
C1209 C1207 1.390 1_655 S
C1209 C1210 1.387 . S
C1209 H1212 0.950 . S
C1210 C1209 1.387 . S
C1210 C1213 1.387 . S
H1211 C1207 0.950 . S
H1212 C1209 0.950 . S
C1213 C1204 1.390 1_655 S
C1213 H1206 0.950 . S
C1213 C1210 1.387 . S
C1214 C1215 1.387 . S
C1214 H1218 0.950 . S
C1214 C1223 1.390 . S
C1215 C1214 1.387 . S
C1215 C1217 1.387 . S
H1216 C1223 0.950 . S
C1217 C1215 1.387 . S
C1217 C1219 1.390 . S
C1217 H1221 0.950 . S
H1218 C1214 0.950 . S
C1219 C1217 1.390 . S
C1219 C1220 1.387 . S
C1219 H1222 0.950 . S
C1220 C1219 1.387 . S
C1220 C1223 1.387 . S
H1221 C1217 0.950 . S
H1222 C1219 0.950 . S
C1223 C1214 1.390 . S
C1223 H1216 0.950 . S
C1223 C1220 1.387 . S
C505 C53 1.227 . S
C510 C11 1.228 . S
C515 C67 1.228 . S
C520 C25 1.228 . S
C525 C81 1.228 . S
C530 C39 1.229 . S
C535 C95 1.227 . S
C540 C137 1.228 . S
C545 C109 1.228 . S
C550 C151 1.228 . S
C555 C165 1.228 . S
C560 C123 1.229 . S
C565 C179 1.222 . S
C570 C221 1.223 . S
C575 C193 1.223 . S
C580 C235 1.223 . S
C585 C207 1.223 . S
C590 C249 1.223 . S
C595 C263 1.222 . S
C600 C305 1.220 . S
C605 C319 1.221 . S
C610 C277 1.221 . S
C615 C291 1.222 . S
C620 C333 1.221 . S
C625 C347 1.222 . S
C630 C389 1.220 . S
C635 C361 1.222 . S
C640 C403 1.221 . S
C645 C417 1.222 . S
C650 C375 1.221 . S
C655 C473 1.223 . S
C660 C431 1.222 . S
C665 C487 1.223 . S
C670 C445 1.223 . S
C675 C501 1.223 . S
C680 C459 1.222 . S
C685 C163 1.552 . S
C690 C5 1.551 1_556 S
C695 C19 1.550 1_556 S
C700 C135 1.552 . S
C705 C33 1.551 1_556 S
C710 C149 1.551 . S
C715 C107 1.557 . S
C720 C47 1.555 . S
C725 C61 1.556 . S
C730 C121 1.557 . S
C735 C93 1.557 . S
C740 C75 1.556 . S
C745 C89 1.551 1_554 S
C750 C79 1.552 . S
C755 C103 1.550 1_554 S
C760 C51 1.552 . S
C765 C65 1.551 . S
C770 C117 1.551 1_554 S
C775 C23 1.556 . S
C780 C131 1.556 . S
C785 C37 1.556 . S
C790 C145 1.556 . S
C795 C159 1.556 . S
C800 C9 1.557 . S
C805 C173 1.537 . S
C810 C331 1.536 . S
C815 C303 1.537 . S
C820 C187 1.535 . S
C825 C317 1.537 . S
C830 C201 1.536 . S
C835 C215 1.553 . S
C840 C275 1.553 1_556 S
C845 C289 1.552 1_556 S
C850 C229 1.554 . S
C855 C243 1.554 . S
C860 C261 1.553 1_556 S
C865 C257 1.552 . S
C870 C247 1.550 . S
C875 C271 1.551 . S
C880 C219 1.551 . S
C885 C233 1.551 . S
C890 C285 1.552 . S
C895 C191 1.565 . S
C900 C299 1.566 . S
C905 C205 1.565 . S
C910 C313 1.566 . S
C915 C327 1.565 . S
C920 C177 1.566 . S
C925 C499 1.550 . S
C930 C341 1.552 . S
C935 C355 1.552 . S
C940 C471 1.550 . S
C945 C369 1.552 . S
C950 C485 1.551 . S
C955 C383 1.565 . S
C960 C443 1.566 . S
C965 C457 1.564 . S
C970 C397 1.566 . S
C975 C411 1.565 . S
C980 C429 1.566 . S
C985 C415 1.537 . S
C990 C425 1.535 . S
C995 C387 1.537 . S
C1000 C439 1.536 . S
C1005 C401 1.537 . S
C1010 C453 1.536 . S
C1015 C359 1.553 1_554 S
C1020 C467 1.553 . S
C1025 C373 1.553 1_554 S
C1030 C481 1.554 . S
C1035 C345 1.553 1_554 S
C1040 C495 1.554 . S
C1045 C406 1.417 . S
C1050 C0 1.416 . S
C1055 C14 1.415 . S
C1060 C378 1.419 . S
C1065 C392 1.416 . S
C1070 C28 1.419 . S
C1075 C42 1.419 . S
C1080 C182 1.416 . S
C1085 C196 1.416 . S
C1090 C56 1.419 . S
C1095 C70 1.418 . S
C1100 C168 1.419 . S
C1105 C84 1.417 . S
C1110 C322 1.418 . S
C1115 C294 1.415 . S
C1120 C98 1.418 . S
C1125 C112 1.418 . S
C1130 C308 1.416 . S
C1135 C126 1.419 . S
C1140 C434 1.416 . S
C1145 C140 1.416 . S
C1150 C448 1.419 . S
C1155 C420 1.417 . S
C1160 C154 1.417 . S
C1165 C350 1.420 . S
C1170 C210 1.417 . S
C1175 C364 1.420 . S
C1180 C224 1.417 . S
C1185 C336 1.419 . S
C1190 C238 1.419 . S
C1195 C252 1.418 . S
C1200 C490 1.418 . S
C1205 C462 1.417 . S
C1210 C266 1.420 . S
C1215 C280 1.417 . S
C1220 C476 1.420 . S
