# Generated by pormake.
# Topology uol, (4)-cn, num edge types: 1
# Building blocks:
#     Node 0, Type 0, BuildingBlock: ICAMEG_clean_sbu_1, # of connection points: 4
#     Node 1, Type 0, BuildingBlock: ICAMEG_clean_sbu_1, # of connection points: 4
#     Node 2, Type 0, BuildingBlock: ICAMEG_clean_sbu_1, # of connection points: 4
#     Node 3, Type 0, BuildingBlock: ICAMEG_clean_sbu_1, # of connection points: 4
#     Node 4, Type 0, BuildingBlock: ICAMEG_clean_sbu_1, # of connection points: 4
#     Node 5, Type 0, BuildingBlock: ICAMEG_clean_sbu_1, # of connection points: 4
#     Node 6, Type 0, BuildingBlock: ICAMEG_clean_sbu_1, # of connection points: 4
#     Node 7, Type 0, BuildingBlock: ICAMEG_clean_sbu_1, # of connection points: 4
#     Node 8, Type 0, BuildingBlock: ICAMEG_clean_sbu_1, # of connection points: 4
#     Node 9, Type 0, BuildingBlock: ICAMEG_clean_sbu_1, # of connection points: 4
#     Node 10, Type 0, BuildingBlock: ICAMEG_clean_sbu_1, # of connection points: 4
#     Node 11, Type 0, BuildingBlock: ICAMEG_clean_sbu_1, # of connection points: 4
#     Edge 12, Type (0, 0), BuildingBlock: XUDNAN_clean_linker_2, # of connection points: 2
#     Edge 13, Type (0, 0), BuildingBlock: XUDNAN_clean_linker_2, # of connection points: 2
#     Edge 14, Type (0, 0), BuildingBlock: XUDNAN_clean_linker_2, # of connection points: 2
#     Edge 15, Type (0, 0), BuildingBlock: XUDNAN_clean_linker_2, # of connection points: 2
#     Edge 16, Type (0, 0), BuildingBlock: XUDNAN_clean_linker_2, # of connection points: 2
#     Edge 17, Type (0, 0), BuildingBlock: XUDNAN_clean_linker_2, # of connection points: 2
#     Edge 18, Type (0, 0), BuildingBlock: XUDNAN_clean_linker_2, # of connection points: 2
#     Edge 19, Type (0, 0), BuildingBlock: XUDNAN_clean_linker_2, # of connection points: 2
#     Edge 20, Type (0, 0), BuildingBlock: XUDNAN_clean_linker_2, # of connection points: 2
#     Edge 21, Type (0, 0), BuildingBlock: XUDNAN_clean_linker_2, # of connection points: 2
#     Edge 22, Type (0, 0), BuildingBlock: XUDNAN_clean_linker_2, # of connection points: 2
#     Edge 23, Type (0, 0), BuildingBlock: XUDNAN_clean_linker_2, # of connection points: 2
#     Edge 24, Type (0, 0), BuildingBlock: XUDNAN_clean_linker_2, # of connection points: 2
#     Edge 25, Type (0, 0), BuildingBlock: XUDNAN_clean_linker_2, # of connection points: 2
#     Edge 26, Type (0, 0), BuildingBlock: XUDNAN_clean_linker_2, # of connection points: 2
#     Edge 27, Type (0, 0), BuildingBlock: XUDNAN_clean_linker_2, # of connection points: 2
#     Edge 28, Type (0, 0), BuildingBlock: XUDNAN_clean_linker_2, # of connection points: 2
#     Edge 29, Type (0, 0), BuildingBlock: XUDNAN_clean_linker_2, # of connection points: 2
#     Edge 30, Type (0, 0), BuildingBlock: XUDNAN_clean_linker_2, # of connection points: 2
#     Edge 31, Type (0, 0), BuildingBlock: XUDNAN_clean_linker_2, # of connection points: 2
#     Edge 32, Type (0, 0), BuildingBlock: XUDNAN_clean_linker_2, # of connection points: 2
#     Edge 33, Type (0, 0), BuildingBlock: XUDNAN_clean_linker_2, # of connection points: 2
#     Edge 34, Type (0, 0), BuildingBlock: XUDNAN_clean_linker_2, # of connection points: 2
#     Edge 35, Type (0, 0), BuildingBlock: XUDNAN_clean_linker_2, # of connection points: 2
# Relax obj value: 0.050
# Max RMSD: 0.108
# Mean RMSD: 0.108
data_MOF--net-uol--node1-ICAMEG_clean_sbu_1--edge1-XUDNAN_clean_linker_2
_symmetry_space_group_name_H-M    P1
_symmetry_Int_Tables_number       1
_symmetry_cell_setting            triclinic
loop_
_symmetry_equiv_pos_as_xyz
'x, y, z'
_cell_length_a     35.026701
_cell_length_b     35.025023
_cell_length_c     71.405422
_cell_angle_alpha  89.875283
_cell_angle_beta   89.979608
_cell_angle_gamma 120.0009
loop_
_atom_site_label
_atom_site_type_symbol
_atom_site_fract_x
_atom_site_fract_y
_atom_site_fract_z
_atom_type_partial_charge
Co0 Co 0.06982 0.29613 0.11535 0.0
Co1 Co 0.17561 0.38391 0.12261 0.0
O2 O 0.11114 0.35646 0.12343 0.0
C3 C 0.04587 0.30005 0.15494 0.0
O4 O 0.08769 0.32706 0.15846 0.0
C5 C 0.15429 0.44115 0.09942 0.0
O6 O 0.11893 0.40539 0.09373 0.0
O7 O 0.17423 0.36041 0.0971 0.0
O8 O 0.10504 0.30518 0.09207 0.0
H9 H 0.31886 0.38687 0.11191 0.0
H10 H 0.03591 0.35544 0.12599 0.0
O11 O 0.03307 0.28502 0.13852 0.0
H12 H 0.99139 0.31542 0.06019 0.0
H13 H 0.91951 0.16313 0.10589 0.0
H14 H 0.07969 0.22449 0.09831 0.0
H15 H 0.03185 0.28502 0.07699 0.0
H16 H 0.97182 0.23939 0.11558 0.0
O17 O 0.18074 0.43867 0.11096 0.0
H18 H 0.23796 0.35289 0.113 0.0
H19 H 0.25012 0.47421 0.13066 0.0
H20 H 0.02853 0.14817 0.08829 0.0
H21 H 0.99518 0.38635 0.10978 0.0
H22 H 0.94781 0.11703 0.09207 0.0
H23 H 0.97283 0.36651 0.07661 0.0
O24 O 0.10405 0.27299 0.12865 0.0
H25 H 0.13621 0.46074 0.17182 0.0
H26 H 0.21983 0.38495 0.15844 0.0
H27 H 0.22127 0.41277 0.19029 0.0
H28 H 0.17929 0.45104 0.19713 0.0
H29 H 0.13538 0.43206 0.14022 0.0
H30 H 0.33121 0.50963 0.12963 0.0
H31 H 0.36608 0.46582 0.12026 0.0
O32 O 0.17206 0.33005 0.13396 0.0
C33 C 0.14489 0.33013 0.08691 0.0
C34 C 0.30407 0.40629 0.11606 0.0
C35 C 0.31099 0.4752 0.12597 0.0
N36 N 0.23934 0.41147 0.12198 0.0
C37 C 0.25827 0.3872 0.11674 0.0
C38 C 0.26506 0.455 0.12649 0.0
C39 C 0.33053 0.45059 0.12073 0.0
C40 C 0.02585 0.34627 0.11162 0.0
N41 N 0.03614 0.31838 0.10246 0.0
C42 C 0.00297 0.36403 0.10249 0.0
C43 C 0.99051 0.35294 0.08387 0.0
C44 C 1.00096 0.32431 0.07464 0.0
C45 C 0.02397 0.30729 0.08421 0.0
C46 C 0.95461 0.17636 0.10413 0.0
C47 C 0.04458 0.21125 0.09987 0.0
C48 C 0.98439 0.21949 0.10963 0.0
N49 N 0.02874 0.23647 0.10737 0.0
C50 C 0.01579 0.16798 0.09423 0.0
C51 C 0.97051 0.15051 0.09637 0.0
C52 C 0.1431 0.28925 0.1351 0.0
C53 C 0.15476 0.44426 0.169 0.0
C54 C 0.2014 0.40148 0.16132 0.0
C55 C 0.20241 0.41724 0.17937 0.0
C56 C 0.17888 0.43874 0.1832 0.0
N57 N 0.17772 0.40709 0.14746 0.0
C58 C 0.15458 0.42814 0.1511 0.0
Co59 Co 0.79457 0.08405 0.27756 0.0
Co60 Co 0.76918 0.16579 0.28693 0.0
O61 O 0.75361 0.10405 0.28474 0.0
C62 C 0.76461 0.04185 0.31485 0.0
O63 O 0.77836 0.08131 0.32175 0.0
C64 C 0.69395 0.12674 0.26058 0.0
O65 O 0.71198 0.10562 0.25283 0.0
O66 O 0.80002 0.18079 0.26226 0.0
O67 O 0.82151 0.13073 0.25775 0.0
H68 H 0.87126 0.3298 0.28482 0.0
H69 H 0.69876 0.01961 0.27959 0.0
O70 O 0.76814 0.03678 0.29737 0.0
H71 H 0.7415 0.01491 0.21419 0.0
H72 H 0.83666 0.96878 0.26424 0.0
H73 H 0.88945 0.12815 0.26755 0.0
H74 H 0.79691 0.06377 0.23718 0.0
H75 H 0.78583 0.99544 0.27289 0.0
O76 O 0.71266 0.15256 0.27431 0.0
H77 H 0.85143 0.25183 0.28221 0.0
H78 H 0.71871 0.21093 0.29655 0.0
H79 H 0.94128 0.10294 0.25869 0.0
H80 H 0.64236 0.96992 0.25711 0.0
H81 H 0.91495 0.02271 0.25699 0.0
H82 H 0.66359 0.96748 0.22413 0.0
O83 O 0.83998 0.12511 0.29565 0.0
H84 H 0.64508 0.07507 0.33148 0.0
H85 H 0.79319 0.20572 0.325 0.0
H86 H 0.75704 0.18677 0.35596 0.0
H87 H 0.68241 0.12105 0.35933 0.0
H88 H 0.68258 0.09506 0.3008 0.0
H89 H 0.73702 0.28847 0.29916 0.0
H90 H 0.81382 0.34854 0.29333 0.0
O91 O 0.82561 0.18039 0.29948 0.0
C92 C 0.82096 0.16569 0.25313 0.0
C93 C 0.8377 0.30393 0.28742 0.0
C94 C 0.76234 0.28073 0.29544 0.0
N95 N 0.784 0.22686 0.28925 0.0
C96 C 0.82629 0.25971 0.28599 0.0
C97 C 0.75215 0.23688 0.29388 0.0
C98 C 0.80544 0.31442 0.29218 0.0
C99 C 0.70834 0.01839 0.26531 0.0
N100 N 0.75111 0.04447 0.25971 0.0
C101 C 0.67622 0.99033 0.25263 0.0
C102 C 0.68814 0.98904 0.23411 0.0
C103 C 0.73184 0.01567 0.22852 0.0
C104 C 0.76306 0.04339 0.24158 0.0
C105 C 0.8485 0.00381 0.2649 0.0
C106 C 0.87767 0.09318 0.26673 0.0
C107 C 0.8199 0.0191 0.26983 0.0
N108 N 0.83459 0.0633 0.27059 0.0
C109 C 0.90721 0.07911 0.26176 0.0
C110 C 0.89243 0.03409 0.26083 0.0
C111 C 0.84921 0.1626 0.30228 0.0
C112 C 0.67754 0.10387 0.33017 0.0
C113 C 0.76074 0.17705 0.32636 0.0
C114 C 0.74041 0.16652 0.34392 0.0
C115 C 0.69853 0.12965 0.3458 0.0
N116 N 0.73988 0.15168 0.31109 0.0
C117 C 0.69886 0.11544 0.31282 0.0
Co118 Co 0.73761 0.80606 0.44588 0.0
Co119 Co 0.62879 0.77633 0.44802 0.0
O120 O 0.67607 0.76285 0.45056 0.0
C121 C 0.77804 0.79743 0.4809 0.0
O122 O 0.79707 0.84046 0.48251 0.0
C123 C 0.56497 0.70119 0.42476 0.0
O124 O 0.56465 0.73022 0.41317 0.0
O125 O 0.64795 0.79681 0.42182 0.0
O126 O 0.72173 0.83405 0.42497 0.0
H127 H 0.56192 0.868 0.42849 0.0
H128 H 0.70925 0.71083 0.44665 0.0
O129 O 0.75331 0.7781 0.46687 0.0
H130 H 0.77372 0.76299 0.38394 0.0
H131 H 0.89906 0.85591 0.43883 0.0
H132 H 0.78745 0.90246 0.43912 0.0
H133 H 0.77126 0.81439 0.4068 0.0
H134 H 0.82044 0.8015 0.44387 0.0
O135 O 0.58981 0.71416 0.43915 0.0
H136 H 0.62186 0.85108 0.43243 0.0
H137 H 0.53272 0.72803 0.45753 0.0
H138 H 0.86562 0.95793 0.43402 0.0
H139 H 0.71145 0.6584 0.42428 0.0
H140 H 0.92206 0.93475 0.43385 0.0
H141 H 0.74382 0.68441 0.39266 0.0
O142 O 0.73382 0.84717 0.46385 0.0
H143 H 0.59338 0.67331 0.50272 0.0
H144 H 0.60659 0.81333 0.48124 0.0
H145 H 0.58596 0.78977 0.51401 0.0
H146 H 0.57905 0.7192 0.52494 0.0
H147 H 0.6144 0.69833 0.47009 0.0
H148 H 0.47176 0.74357 0.45381 0.0
H149 H 0.48622 0.81402 0.43921 0.0
O150 O 0.66725 0.83825 0.45722 0.0
C151 C 0.68654 0.8246 0.41598 0.0
C152 C 0.55521 0.83721 0.43489 0.0
C153 C 0.50461 0.76737 0.4491 0.0
N154 N 0.58083 0.78867 0.44524 0.0
C155 C 0.58903 0.82746 0.43717 0.0
C156 C 0.53924 0.75876 0.45116 0.0
C157 C 0.51275 0.8069 0.4409 0.0
C158 C 0.72372 0.72248 0.43298 0.0
N159 N 0.74043 0.7657 0.42811 0.0
C160 C 0.72473 0.6926 0.42034 0.0
C161 C 0.74284 0.7072 0.40259 0.0
C162 C 0.7596 0.75128 0.39769 0.0
C163 C 0.75801 0.78021 0.41068 0.0
C164 C 0.87478 0.8664 0.43884 0.0
C165 C 0.81179 0.89209 0.43899 0.0
C166 C 0.83024 0.83575 0.44166 0.0
N167 N 0.79939 0.84878 0.44168 0.0
C168 C 0.85601 0.92366 0.43613 0.0
C169 C 0.88765 0.91063 0.43605 0.0
C170 C 0.70536 0.85964 0.46474 0.0
C171 C 0.59613 0.70405 0.49811 0.0
C172 C 0.60386 0.78267 0.48588 0.0
C173 C 0.59204 0.76944 0.50446 0.0
C174 C 0.58815 0.72984 0.51057 0.0
N175 N 0.61138 0.75706 0.4737 0.0
C176 C 0.60787 0.71831 0.47963 0.0
Co177 Co 0.92742 0.72263 0.62045 0.0
Co178 Co 0.84049 0.61574 0.62011 0.0
O179 O 0.90242 0.6593 0.62463 0.0
C180 C 0.97039 0.75959 0.65685 0.0
O181 O 0.94929 0.78179 0.65697 0.0
C182 C 0.89083 0.58093 0.5999 0.0
O183 O 0.91895 0.62132 0.59458 0.0
O184 O 0.8436 0.63939 0.59444 0.0
O185 O 0.89008 0.7121 0.5977 0.0
H186 H 0.68594 0.56518 0.59854 0.0
H187 H 0.98858 0.68779 0.62531 0.0
O188 O 0.96496 0.73361 0.64331 0.0
H189 H 0.02003 0.75449 0.56226 0.0
H190 H 0.05091 0.88048 0.61656 0.0
H191 H 0.89057 0.78017 0.61103 0.0
H192 H 0.96345 0.75616 0.58222 0.0
H193 H 0.01876 0.80046 0.62153 0.0
O194 O 0.85767 0.57306 0.60996 0.0
H195 H 0.76385 0.61964 0.6048 0.0
H196 H 0.78582 0.51829 0.62529 0.0
H197 H 0.92131 0.85989 0.60591 0.0
H198 H 0.0459 0.68601 0.60591 0.0
H199 H 0.00204 0.91066 0.60868 0.0
H200 H 0.06182 0.71936 0.57411 0.0
O201 O 0.8805 0.72265 0.63617 0.0
H202 H 0.89433 0.56247 0.67382 0.0
H203 H 0.77784 0.59196 0.65219 0.0
H204 H 0.77438 0.56402 0.68423 0.0
H205 H 0.83285 0.54894 0.69522 0.0
H206 H 0.8967 0.59083 0.64193 0.0
H207 H 0.70827 0.46268 0.61908 0.0
H208 H 0.6577 0.48606 0.60569 0.0
O209 O 0.82125 0.65662 0.63027 0.0
C210 C 0.86134 0.679 0.58845 0.0
C211 C 0.70761 0.55461 0.60444 0.0
C212 C 0.72016 0.49707 0.61595 0.0
N213 N 0.77925 0.57222 0.61554 0.0
C214 C 0.75172 0.58531 0.60807 0.0
C215 C 0.76406 0.5287 0.6194 0.0
C216 C 0.6918 0.51021 0.60843 0.0
C217 C 0.9957 0.70291 0.61159 0.0
N218 N 0.97279 0.72223 0.60496 0.0
C219 C 0.02803 0.70156 0.60062 0.0
C220 C 0.03688 0.7202 0.58276 0.0
C221 C 0.0134 0.73986 0.5761 0.0
C222 C 0.98125 0.74053 0.58744 0.0
C223 C 0.01569 0.85869 0.61529 0.0
C224 C 0.92575 0.80202 0.61221 0.0
C225 C 0.99732 0.81337 0.61807 0.0
N226 N 0.95285 0.78565 0.6165 0.0
C227 C 0.94296 0.84715 0.60932 0.0
C228 C 0.98825 0.8756 0.61087 0.0
C229 C 0.83924 0.69538 0.63716 0.0
C230 C 0.8686 0.56882 0.66918 0.0
C231 C 0.80352 0.5857 0.65689 0.0
C232 C 0.80131 0.56975 0.67504 0.0
C233 C 0.83412 0.56127 0.68119 0.0
N234 N 0.83735 0.59284 0.64517 0.0
C235 C 0.86971 0.58476 0.65113 0.0
Co236 Co 0.2212 0.93903 0.78736 0.0
Co237 Co 0.22217 0.84177 0.79466 0.0
O238 O 0.25063 0.90614 0.79412 0.0
C239 C 0.25745 0.96934 0.82492 0.0
O240 O 0.24321 0.92776 0.82882 0.0
C241 C 0.29988 0.87374 0.77007 0.0
O242 O 0.2864 0.89885 0.76225 0.0
O243 O 0.19645 0.83728 0.7694 0.0
O244 O 0.18942 0.89742 0.76627 0.0
H245 H 0.09709 0.68675 0.78655 0.0
H246 H 0.31845 0.9882 0.79148 0.0
O247 O 0.25158 0.98072 0.80869 0.0
H248 H 0.29028 0.01306 0.72618 0.0
H249 H 0.21303 0.07704 0.77722 0.0
H250 H 0.13013 0.9145 0.77639 0.0
H251 H 0.22851 0.96733 0.74749 0.0
H252 H 0.2498 0.03463 0.78509 0.0
O253 O 0.27684 0.84653 0.78292 0.0
H254 H 0.13257 0.76787 0.78632 0.0
H255 H 0.25388 0.77906 0.80339 0.0
H256 H 0.0922 0.95555 0.7682 0.0
H257 H 0.38117 0.03504 0.77077 0.0
H258 H 0.13372 0.03745 0.7686 0.0
H259 H 0.36726 0.04747 0.73783 0.0
O260 O 0.17159 0.90242 0.80427 0.0
H261 H 0.34341 0.90216 0.84257 0.0
H262 H 0.186 0.79703 0.83127 0.0
H263 H 0.21668 0.80301 0.86292 0.0
H264 H 0.29594 0.85583 0.86872 0.0
H265 H 0.3113 0.89548 0.8112 0.0
H266 H 0.21985 0.69805 0.80362 0.0
H267 H 0.14085 0.65133 0.79524 0.0
O268 O 0.16722 0.83629 0.80657 0.0
C269 C 0.18302 0.86009 0.7606 0.0
C270 C 0.1315 0.70674 0.79029 0.0
C271 C 0.20042 0.71309 0.79985 0.0
N272 N 0.19511 0.77811 0.795 0.0
C273 C 0.15172 0.75268 0.79025 0.0
C274 C 0.21953 0.75893 0.79965 0.0
C275 C 0.15608 0.6869 0.79515 0.0
C276 C 0.31213 0.99395 0.77724 0.0
N277 N 0.2699 0.97528 0.77073 0.0
C278 C 0.34777 0.02033 0.76555 0.0
C279 C 0.33994 0.02722 0.74706 0.0
C280 C 0.29677 0.00788 0.7405 0.0
C281 C 0.26194 0.98186 0.75261 0.0
C282 C 0.19463 0.04138 0.77693 0.0
C283 C 0.14852 0.95012 0.77642 0.0
C284 C 0.21525 0.0172 0.7814 0.0
N285 N 0.19225 0.97216 0.78096 0.0
C286 C 0.12682 0.97319 0.77185 0.0
C287 C 0.15013 0.01914 0.7721 0.0
C288 C 0.15278 0.86269 0.81002 0.0
C289 C 0.30886 0.8789 0.8402 0.0
C290 C 0.22049 0.82019 0.83369 0.0
C291 C 0.2377 0.82335 0.85163 0.0
C292 C 0.28219 0.85296 0.85487 0.0
N293 N 0.24687 0.84572 0.81937 0.0
C294 C 0.29054 0.8748 0.82244 0.0
Co295 Co 0.28344 0.21764 0.94578 0.0
Co296 Co 0.37988 0.22654 0.9631 0.0
O297 O 0.34218 0.25094 0.95664 0.0
C298 C 0.27042 0.25185 0.98143 0.0
O299 O 0.2988 0.24191 0.98865 0.0
C300 C 0.43071 0.29465 0.93482 0.0
O301 O 0.39422 0.27639 0.92499 0.0
O302 O 0.36681 0.19382 0.93901 0.0
O303 O 0.30451 0.18875 0.92765 0.0
H304 H 0.41914 0.10747 0.97008 0.0
H305 H 0.32559 0.31461 0.94952 0.0
O306 O 0.26074 0.24521 0.96407 0.0
H307 H 0.29927 0.28499 0.88188 0.0
H308 H 0.13929 0.19816 0.92229 0.0
H309 H 0.22718 0.12559 0.9328 0.0
H310 H 0.27667 0.22385 0.90438 0.0
H311 H 0.21386 0.23946 0.9359 0.0
O312 O 0.43142 0.27938 0.95099 0.0
H313 H 0.37114 0.13781 0.96191 0.0
H314 H 0.47144 0.26599 0.97778 0.0
H315 H 0.15302 0.08322 0.91893 0.0
H316 H 0.34841 0.37678 0.92752 0.0
H317 H 0.10852 0.11952 0.91361 0.0
H318 H 0.33537 0.36212 0.89343 0.0
O319 O 0.26655 0.16818 0.96364 0.0
H320 H 0.42051 0.35818 0.00385 0.0
H321 H 0.37888 0.20126 0.00305 0.0
H322 H 0.39179 0.23972 0.0333 0.0
H323 H 0.4127 0.31874 0.03381 0.0
H324 H 0.40693 0.31836 0.97394 0.0
H325 H 0.52078 0.23714 0.98593 0.0
H326 H 0.49459 0.1573 0.98218 0.0
O327 O 0.32893 0.17319 0.9749 0.0
C328 C 0.33625 0.18075 0.92679 0.0
C329 C 0.43088 0.14229 0.97185 0.0
C330 C 0.48794 0.21509 0.98072 0.0
N331 N 0.41831 0.20352 0.96956 0.0
C332 C 0.40378 0.15963 0.96732 0.0
C333 C 0.45991 0.23124 0.97604 0.0
C334 C 0.47322 0.17028 0.97861 0.0
C335 C 0.31946 0.30799 0.93471 0.0
N336 N 0.29964 0.26569 0.92824 0.0
C337 C 0.3326 0.34331 0.92232 0.0
C338 C 0.32533 0.33507 0.90319 0.0
C339 C 0.30509 0.2918 0.8967 0.0
C340 C 0.29245 0.25732 0.9095 0.0
C341 C 0.15839 0.182 0.92451 0.0
C342 C 0.20814 0.1417 0.9304 0.0
C343 C 0.20057 0.20518 0.93226 0.0
N344 N 0.22495 0.18504 0.935 0.0
C345 C 0.16611 0.1175 0.92261 0.0
C346 C 0.14115 0.13788 0.91964 0.0
C347 C 0.28692 0.15406 0.97375 0.0
C348 C 0.41153 0.32379 0.00381 0.0
C349 C 0.38799 0.23565 0.00317 0.0
C350 C 0.39532 0.25727 0.02033 0.0
C351 C 0.40708 0.30161 0.02061 0.0
N352 N 0.39236 0.25762 0.98675 0.0
C353 C 0.40402 0.30113 0.98691 0.0
Co354 Co 0.7173 0.92244 0.7192 0.0
Co355 Co 0.61103 0.83233 0.71966 0.0
O356 O 0.65325 0.89533 0.71605 0.0
C357 C 0.70571 0.9481 0.6809 0.0
O358 O 0.67143 0.90847 0.67906 0.0
C359 C 0.57769 0.87849 0.74369 0.0
O360 O 0.61865 0.90629 0.74835 0.0
O361 O 0.63791 0.83183 0.74418 0.0
O362 O 0.70856 0.88688 0.74243 0.0
H363 H 0.56586 0.6755 0.73556 0.0
H364 H 0.67794 0.97961 0.71441 0.0
O365 O 0.72795 0.95916 0.69601 0.0
H366 H 0.75115 0.01906 0.77599 0.0
H367 H 0.87398 0.04832 0.71838 0.0
H368 H 0.77726 0.88894 0.72937 0.0
H369 H 0.75404 0.96264 0.75641 0.0
H370 H 0.7933 0.01399 0.71521 0.0
O371 O 0.5689 0.84667 0.73265 0.0
H372 H 0.61841 0.7546 0.73065 0.0
H373 H 0.51322 0.77668 0.7165 0.0
H374 H 0.85775 0.92194 0.73278 0.0
H375 H 0.67459 0.03654 0.73345 0.0
H376 H 0.90668 0.0022 0.72727 0.0
H377 H 0.71126 0.0565 0.76451 0.0
O378 O 0.71879 0.87589 0.70372 0.0
H379 H 0.54856 0.89142 0.6718 0.0
H380 H 0.58529 0.77551 0.68561 0.0
H381 H 0.55354 0.77641 0.65491 0.0
H382 H 0.53487 0.83464 0.64785 0.0
H383 H 0.58082 0.88956 0.70224 0.0
H384 H 0.45949 0.69788 0.72139 0.0
H385 H 0.48574 0.64667 0.73092 0.0
O386 O 0.65145 0.81623 0.70673 0.0
C387 C 0.67689 0.85395 0.75072 0.0
C388 C 0.55402 0.69746 0.73135 0.0
C389 C 0.49432 0.71003 0.72342 0.0
N390 N 0.56895 0.77018 0.72319 0.0
C391 C 0.58363 0.74226 0.72851 0.0
C392 C 0.5249 0.75464 0.72072 0.0
C393 C 0.50907 0.68131 0.72877 0.0
C394 C 0.69438 0.98846 0.72782 0.0
N395 N 0.7163 0.96796 0.73425 0.0
C396 C 0.6922 0.02058 0.73857 0.0
C397 C 0.71271 0.0317 0.75602 0.0
C398 C 0.73507 0.01068 0.76248 0.0
C399 C 0.7365 0.97868 0.75135 0.0
C400 C 0.85299 0.01334 0.72087 0.0
C401 C 0.79833 0.92394 0.72708 0.0
C402 C 0.8073 0.99371 0.71907 0.0
N403 N 0.7806 0.94957 0.72225 0.0
C404 C 0.84388 0.94242 0.72898 0.0
C405 C 0.87132 0.98744 0.72586 0.0
C406 C 0.69117 0.83526 0.70087 0.0
C407 C 0.55642 0.86579 0.67473 0.0
C408 C 0.57745 0.80106 0.68262 0.0
C409 C 0.55934 0.80133 0.66523 0.0
C410 C 0.54883 0.83398 0.66129 0.0
N411 N 0.58478 0.83237 0.69574 0.0
C412 C 0.57449 0.86444 0.69198 0.0
Co413 Co 0.78511 0.71243 0.89283 0.0
Co414 Co 0.78981 0.6207 0.87813 0.0
O415 O 0.75953 0.65453 0.8811 0.0
C416 C 0.75984 0.72698 0.85485 0.0
O417 O 0.77333 0.70087 0.84815 0.0
C418 C 0.71035 0.55932 0.90032 0.0
O419 O 0.72225 0.59016 0.91306 0.0
O420 O 0.81091 0.63167 0.90464 0.0
O421 O 0.80978 0.69285 0.91342 0.0
H422 H 0.91643 0.59212 0.8835 0.0
H423 H 0.69031 0.6642 0.88304 0.0
O424 O 0.76127 0.73413 0.8724 0.0
H425 H 0.69499 0.68555 0.95142 0.0
H426 H 0.78573 0.84973 0.91407 0.0
H427 H 0.87098 0.77267 0.91066 0.0
H428 H 0.76379 0.7146 0.93315 0.0
H429 H 0.75353 0.77606 0.8997 0.0
O430 O 0.73404 0.56592 0.88577 0.0
H431 H 0.87868 0.63509 0.88732 0.0
H432 H 0.76282 0.53194 0.86246 0.0
H433 H 0.90433 0.84616 0.92528 0.0
H434 H 0.62067 0.63487 0.90074 0.0
H435 H 0.86161 0.88519 0.92705 0.0
H436 H 0.62277 0.6454 0.93519 0.0
O437 O 0.84081 0.73419 0.87833 0.0
H438 H 0.67891 0.5798 0.82636 0.0
H439 H 0.83405 0.62882 0.84145 0.0
H440 H 0.81032 0.61815 0.80844 0.0
H441 H 0.73223 0.59345 0.80072 0.0
H442 H 0.70412 0.59128 0.85917 0.0
H443 H 0.79918 0.48764 0.85854 0.0
H444 H 0.87661 0.5178 0.86902 0.0
O445 O 0.84547 0.67461 0.87031 0.0
C446 C 0.81811 0.66189 0.91643 0.0
C447 C 0.88271 0.57865 0.87884 0.0
C448 C 0.81689 0.51999 0.86485 0.0
N449 N 0.81868 0.58614 0.87503 0.0
C450 C 0.86119 0.60287 0.88093 0.0
C451 C 0.79642 0.54517 0.86716 0.0
C452 C 0.86034 0.53695 0.87073 0.0
C453 C 0.69145 0.66923 0.898 0.0
N454 N 0.73102 0.69129 0.90703 0.0
C455 C 0.65193 0.65242 0.90796 0.0
C456 C 0.65313 0.65829 0.9273 0.0
C457 C 0.69365 0.6808 0.93641 0.0
C458 C 0.73249 0.69711 0.92599 0.0
C459 C 0.80464 0.83302 0.91342 0.0
C460 C 0.85208 0.78933 0.91149 0.0
C461 C 0.78661 0.79134 0.90527 0.0
N462 N 0.81024 0.76997 0.90447 0.0
C463 C 0.87119 0.83099 0.91973 0.0
C464 C 0.84722 0.85289 0.9207 0.0
C465 C 0.86109 0.71621 0.87091 0.0
C466 C 0.71299 0.59044 0.82955 0.0
C467 C 0.80003 0.61814 0.83821 0.0
C468 C 0.78676 0.61206 0.81949 0.0
C469 C 0.74294 0.59817 0.81517 0.0
N470 N 0.77046 0.61048 0.85224 0.0
C471 C 0.72742 0.59679 0.84811 0.0
Co472 Co 0.07877 0.78198 0.05347 0.0
Co473 Co 0.17428 0.78878 0.03602 0.0
O474 O 0.11081 0.7569 0.04094 0.0
C475 C 0.03378 0.75089 0.01695 0.0
O476 O 0.07302 0.76791 0.00928 0.0
C477 C 0.15764 0.71035 0.05806 0.0
O478 O 0.13001 0.71669 0.06815 0.0
O479 O 0.18761 0.81225 0.06197 0.0
O480 O 0.12669 0.8114 0.07247 0.0
H481 H 0.32726 0.92031 0.03645 0.0
H482 H 0.03323 0.68594 0.04595 0.0
O483 O 0.02999 0.75336 0.0346 0.0
H484 H 0.03007 0.69925 0.1146 0.0
H485 H 0.94288 0.77835 0.07888 0.0
H486 H 0.10371 0.86897 0.07001 0.0
H487 H 0.06381 0.7656 0.09456 0.0
H488 H 0.98428 0.74754 0.06321 0.0
O489 O 0.1784 0.73612 0.04446 0.0
H490 H 0.24732 0.87987 0.04278 0.0
H491 H 0.23627 0.76397 0.01872 0.0
H492 H 0.06372 0.90089 0.08597 0.0
H493 H 0.99885 0.61868 0.06545 0.0
H494 H 0.98269 0.85547 0.09047 0.0
H495 H 0.99732 0.62512 0.10004 0.0
O496 O 0.10792 0.83596 0.03755 0.0
H497 H 0.09956 0.67111 0.98726 0.0
H498 H 0.20252 0.82923 0.99811 0.0
H499 H 0.18442 0.80145 0.96574 0.0
H500 H 0.13255 0.72186 0.96016 0.0
H501 H 0.11835 0.70035 0.01941 0.0
H502 H 0.31623 0.80301 0.01233 0.0
H503 H 0.36224 0.88182 0.02114 0.0
O504 O 0.17192 0.84225 0.02784 0.0
C505 C 0.16673 0.82092 0.07431 0.0
C506 C 0.30755 0.88602 0.0325 0.0
C507 C 0.30136 0.82016 0.01898 0.0
N508 N 0.23712 0.81973 0.03098 0.0
C509 C 0.26224 0.86298 0.03599 0.0
C510 C 0.25613 0.7982 0.02268 0.0
C511 C 0.32716 0.86439 0.02392 0.0
C512 C 0.0322 0.68897 0.06098 0.0
N513 N 0.05036 0.72963 0.0691 0.0
C514 C 0.01289 0.65079 0.07195 0.0
C515 C 0.01212 0.65443 0.09137 0.0
C516 C 0.03053 0.69601 0.09954 0.0
C517 C 0.04967 0.73348 0.08813 0.0
C518 C 0.97819 0.79844 0.07702 0.0
C519 C 0.0685 0.8489 0.07202 0.0
C520 C 1.00178 0.78122 0.06811 0.0
N521 N 0.0464 0.80634 0.06582 0.0
C522 C 0.04601 0.8672 0.08102 0.0
C523 C 1.00055 0.84172 0.08353 0.0
C524 C 0.14493 0.85661 0.02907 0.0
C525 C 0.12231 0.70582 0.98951 0.0
C526 C 0.17995 0.79454 0.99579 0.0
C527 C 0.16986 0.779 0.97743 0.0
C528 C 0.14078 0.73433 0.97431 0.0
N529 N 0.16169 0.76637 0.01062 0.0
C530 C 0.13324 0.72252 0.00768 0.0
Co531 Co 0.27136 0.05434 0.21705 0.0
Co532 Co 0.36839 0.15319 0.21053 0.0
O533 O 0.33351 0.08881 0.21009 0.0
C534 C 0.27748 0.02727 0.1788 0.0
O535 O 0.30346 0.06934 0.1753 0.0
C536 C 0.41616 0.1209 0.2336 0.0
O537 O 0.37789 0.09381 0.24124 0.0
O538 O 0.34755 0.1549 0.23622 0.0
O539 O 0.28079 0.094 0.23892 0.0
H540 H 0.39523 0.30622 0.22179 0.0
H541 H 0.32156 0.00776 0.21123 0.0
O542 O 0.26059 0.01445 0.19502 0.0
H543 H 0.2698 0.97667 0.27668 0.0
H544 H 0.12706 0.91371 0.22639 0.0
H545 H 0.20372 0.07601 0.22956 0.0
H546 H 0.25145 0.02252 0.25654 0.0
H547 H 0.20594 0.95816 0.21823 0.0
O548 O 0.41927 0.14883 0.22133 0.0
H549 H 0.35101 0.22503 0.2209 0.0
H550 H 0.46219 0.21814 0.20171 0.0
H551 H 0.12499 0.03288 0.23806 0.0
H552 H 0.33999 0.96107 0.23078 0.0
H553 H 0.08613 0.9511 0.23648 0.0
H554 H 0.31424 0.94547 0.26379 0.0
O555 O 0.25693 0.09161 0.20117 0.0
H556 H 0.43013 0.09923 0.16021 0.0
H557 H 0.37495 0.20062 0.17487 0.0
H558 H 0.39922 0.19801 0.14271 0.0
H559 H 0.42714 0.14709 0.13522 0.0
H560 H 0.40505 0.1025 0.19213 0.0
H561 H 0.50777 0.29925 0.20257 0.0
H562 H 0.47422 0.34385 0.21259 0.0
O563 O 0.31801 0.15842 0.19965 0.0
C564 C 0.31156 0.13094 0.24502 0.0
C565 C 0.41019 0.28716 0.21734 0.0
C566 C 0.47337 0.28324 0.20658 0.0
N567 N 0.40392 0.21694 0.2111 0.0
C568 C 0.38528 0.2412 0.21675 0.0
C569 C 0.44743 0.23734 0.20616 0.0
C570 C 0.45452 0.30825 0.21219 0.0
C571 C 0.30977 1.00064 0.2255 0.0
N572 N 0.28525 0.01762 0.2327 0.0
C573 C 0.32048 0.97436 0.23654 0.0
C574 C 0.30609 0.96569 0.25507 0.0
C575 C 0.2812 0.98323 0.26232 0.0
C576 C 0.27104 0.0093 0.25086 0.0
C577 C 0.14366 0.94931 0.22719 0.0
C578 C 0.18713 0.04043 0.22901 0.0
C579 C 0.18829 0.97464 0.22256 0.0
N580 N 0.2095 0.01959 0.22364 0.0
C581 C 0.14251 0.01619 0.23376 0.0
C582 C 0.12072 0.97031 0.23285 0.0
C583 C 0.27718 0.132 0.19624 0.0
C584 C 0.4182 0.12168 0.16332 0.0
C585 C 0.38692 0.17827 0.17171 0.0
C586 C 0.40072 0.17702 0.15349 0.0
C587 C 0.41642 0.14847 0.1493 0.0
N588 N 0.38878 0.1519 0.1854 0.0
C589 C 0.40416 0.12384 0.1814 0.0
Co590 Co 0.19267 0.2676 0.38568 0.0
Co591 Co 0.21641 0.37502 0.38396 0.0
O592 O 0.23313 0.33004 0.38067 0.0
C593 C 0.2 0.22673 0.35064 0.0
O594 O 0.15671 0.20555 0.35005 0.0
C595 C 0.30088 0.41254 0.4049 0.0
O596 O 0.28544 0.3746 0.41363 0.0
O597 O 0.19757 0.3551 0.41021 0.0
O598 O 0.16467 0.28146 0.40717 0.0
H599 H 0.1173 0.43253 0.40444 0.0
H600 H 0.28862 0.30018 0.38305 0.0
O601 O 0.22021 0.25336 0.36404 0.0
H602 H 0.2456 0.23829 0.44671 0.0
H603 H 0.15229 0.10861 0.39335 0.0
H604 H 0.09708 0.21342 0.39375 0.0
H605 H 0.19017 0.23622 0.42483 0.0
H606 H 0.20283 0.18784 0.38751 0.0
O607 O 0.27748 0.41783 0.39267 0.0
H608 H 0.13837 0.37578 0.39962 0.0
H609 H 0.26068 0.47157 0.37603 0.0
H610 H 0.04544 0.13455 0.39967 0.0
H611 H 0.34502 0.30248 0.40443 0.0
H612 H 0.07298 0.08153 0.39949 0.0
H613 H 0.32365 0.27149 0.43653 0.0
O614 O 0.1483 0.26821 0.3685 0.0
H615 H 0.3188 0.4182 0.32873 0.0
H616 H 0.17573 0.39507 0.35141 0.0
H617 H 0.19782 0.41791 0.31866 0.0
H618 H 0.2699 0.42979 0.30714 0.0
H619 H 0.29522 0.39494 0.36135 0.0
H620 H 0.24113 0.52943 0.38077 0.0
H621 H 0.16888 0.51 0.39499 0.0
O622 O 0.15508 0.33389 0.37505 0.0
C623 C 0.17219 0.31599 0.41619 0.0
C624 C 0.14882 0.44139 0.39818 0.0
C625 C 0.21834 0.49578 0.38492 0.0
N626 N 0.20056 0.42027 0.38744 0.0
C627 C 0.16088 0.40937 0.39537 0.0
C628 C 0.22927 0.46289 0.38232 0.0
C629 C 0.17779 0.48485 0.39289 0.0
C630 C 0.27896 0.28617 0.39693 0.0
N631 N 0.23608 0.26781 0.40263 0.0
C632 C 0.31108 0.28777 0.409 0.0
C633 C 0.29909 0.27045 0.42702 0.0
C634 C 0.25531 0.25184 0.43275 0.0
C635 C 0.22408 0.25088 0.42031 0.0
C636 C 0.13991 0.1314 0.3935 0.0
C637 C 0.10935 0.19059 0.39371 0.0
C638 C 0.16837 0.17628 0.39022 0.0
N639 N 0.15295 0.20525 0.39038 0.0
C640 C 0.07994 0.14595 0.39705 0.0
C641 C 0.09541 0.11622 0.39694 0.0
C642 C 0.13432 0.2955 0.36781 0.0
C643 C 0.28736 0.41323 0.3336 0.0
C644 C 0.20706 0.39996 0.34649 0.0
C645 C 0.21944 0.41301 0.32794 0.0
C646 C 0.25989 0.41969 0.32149 0.0
N647 N 0.23427 0.39388 0.3583 0.0
C648 C 0.2739 0.40019 0.35206 0.0
Co649 Co 0.91663 0.19628 0.55624 0.0
Co650 Co 0.83536 0.22279 0.54793 0.0
O651 O 0.89695 0.23762 0.54937 0.0
C652 C 0.95727 0.22628 0.51872 0.0
O653 O 0.91753 0.2124 0.5121 0.0
C654 C 0.87838 0.30012 0.57315 0.0
O655 O 0.89978 0.28219 0.58075 0.0
O656 O 0.82194 0.19318 0.57289 0.0
O657 O 0.8708 0.16976 0.57641 0.0
H658 H 0.67124 0.1229 0.55225 0.0
H659 H 0.98193 0.29187 0.55397 0.0
O660 O 0.96301 0.22241 0.53611 0.0
H661 H 0.98894 0.24887 0.61913 0.0
H662 H 0.03127 0.15255 0.56821 0.0
H663 H 0.87211 0.10138 0.56628 0.0
H664 H 0.93852 0.19374 0.59642 0.0
H665 H 0.005 0.20401 0.56006 0.0
O666 O 0.85061 0.28034 0.56011 0.0
H667 H 0.74902 0.1416 0.55391 0.0
H668 H 0.79083 0.2741 0.5387 0.0
H669 H 0.89693 0.04893 0.57466 0.0
H670 H 0.03322 0.34795 0.57615 0.0
H671 H 0.97705 0.07444 0.57566 0.0
H672 H 0.03682 0.3266 0.60902 0.0
O673 O 0.87448 0.15118 0.53836 0.0
H674 H 0.92395 0.34399 0.50181 0.0
H675 H 0.79228 0.1974 0.51046 0.0
H676 H 0.8092 0.23193 0.47916 0.0
H677 H 0.87543 0.30579 0.47468 0.0
H678 H 0.90597 0.30812 0.53285 0.0
H679 H 0.71351 0.25693 0.53704 0.0
H680 H 0.65307 0.18081 0.54379 0.0
O681 O 0.81884 0.16541 0.53572 0.0
C682 C 0.8368 0.17147 0.58163 0.0
C683 C 0.69727 0.15617 0.54926 0.0
C684 C 0.721 0.23141 0.54075 0.0
N685 N 0.77443 0.20886 0.54638 0.0
C686 C 0.74138 0.16694 0.55014 0.0
C687 C 0.76473 0.24097 0.54177 0.0
C688 C 0.6871 0.18869 0.54452 0.0
C689 C 0.98367 0.28221 0.56819 0.0
N690 N 0.95733 0.23955 0.57388 0.0
C691 C 0.01263 0.31416 0.58071 0.0
C692 C 0.01456 0.30218 0.59916 0.0
C693 C 0.98767 0.25858 0.60485 0.0
C694 C 0.95906 0.22754 0.59194 0.0
C695 C 0.99628 0.14106 0.56786 0.0
C696 C 0.90704 0.11281 0.5668 0.0
C697 C 0.98122 0.17002 0.56321 0.0
N698 N 0.93709 0.15578 0.56284 0.0
C699 C 0.92089 0.08292 0.5715 0.0
C700 C 0.96584 0.09724 0.57204 0.0
C701 C 0.8364 0.14179 0.53241 0.0
C702 C 0.89492 0.31186 0.50359 0.0
C703 C 0.82118 0.22952 0.50863 0.0
C704 C 0.83056 0.24894 0.49087 0.0
C705 C 0.86771 0.29039 0.48837 0.0
N706 N 0.84794 0.25087 0.5235 0.0
C707 C 0.88448 0.29146 0.52115 0.0
H708 H 0.09782 0.62824 0.07107 0.0
H709 H 0.23527 0.71039 0.05561 0.0
H710 H 0.24966 0.65055 0.06484 0.0
H711 H 0.11247 0.57403 0.11056 0.0
H712 H 0.0653 0.52096 0.10547 0.0
H713 H 0.06606 0.57057 0.09812 0.0
H714 H 0.05154 0.54261 0.06388 0.0
H715 H 0.05062 0.49285 0.07113 0.0
H716 H 0.0879 0.52677 0.05291 0.0
H717 H 0.24992 0.58379 0.07799 0.0
H718 H 0.23421 0.511 0.09009 0.0
H719 H 0.09517 0.46929 0.09357 0.0
C720 C 0.13091 0.63351 0.06966 0.0
C721 C 0.16562 0.67393 0.06283 0.0
C722 C 0.20833 0.67958 0.06084 0.0
C723 C 0.21681 0.64589 0.0661 0.0
C724 C 0.18195 0.60646 0.0729 0.0
C725 C 0.13966 0.59976 0.07432 0.0
C726 C 0.1077 0.55357 0.08123 0.0
C727 C 0.08665 0.55489 0.09996 0.0
C728 C 0.07236 0.52741 0.0664 0.0
C729 C 0.13873 0.53556 0.08374 0.0
C730 C 0.18154 0.56685 0.07914 0.0
C731 C 0.21645 0.55879 0.08134 0.0
C732 C 0.20729 0.51752 0.08827 0.0
C733 C 0.16351 0.4846 0.09247 0.0
C734 C 0.12884 0.49374 0.09012 0.0
H735 H 0.66373 0.18519 0.25895 0.0
H736 H 0.62534 0.04863 0.24868 0.0
H737 H 0.54984 0.03236 0.24082 0.0
H738 H 0.56365 0.16784 0.27915 0.0
H739 H 0.5645 0.21425 0.26778 0.0
H740 H 0.61545 0.21525 0.27262 0.0
H741 H 0.63705 0.23013 0.23756 0.0
H742 H 0.58629 0.22947 0.23261 0.0
H743 H 0.59984 0.19318 0.22009 0.0
H744 H 0.47725 0.02982 0.23689 0.0
H745 H 0.41475 0.04304 0.23259 0.0
H746 H 0.50179 0.18274 0.24192 0.0
C747 C 0.6394 0.15196 0.25492 0.0
C748 C 0.65007 0.11802 0.25449 0.0
C749 C 0.61772 0.07504 0.249 0.0
C750 C 0.57478 0.06549 0.24462 0.0
C751 C 0.56513 0.09957 0.24536 0.0
C752 C 0.59675 0.14216 0.24996 0.0
C753 C 0.57813 0.17301 0.24906 0.0
C754 C 0.58058 0.1938 0.2683 0.0
C755 C 0.60173 0.20854 0.23393 0.0
C756 C 0.53084 0.14097 0.24359 0.0
C757 C 0.52395 0.09865 0.24181 0.0
C758 C 0.48241 0.06289 0.23796 0.0
C759 C 0.4471 0.07063 0.23567 0.0
C760 C 0.4537 0.11382 0.23685 0.0
C761 C 0.49614 0.14948 0.24076 0.0
H762 H 0.49511 0.66274 0.40038 0.0
H763 H 0.55993 0.63211 0.44492 0.0
H764 H 0.50154 0.55389 0.4436 0.0
H765 H 0.38686 0.59338 0.41623 0.0
H766 H 0.36309 0.57678 0.39323 0.0
H767 H 0.412 0.62954 0.39644 0.0
H768 H 0.45294 0.60966 0.37149 0.0
H769 H 0.40401 0.55688 0.36811 0.0
H770 H 0.45535 0.5597 0.37409 0.0
H771 H 0.43308 0.47944 0.43879 0.0
H772 H 0.3607 0.41528 0.43063 0.0
H773 H 0.34105 0.49532 0.38949 0.0
C774 C 0.49754 0.6395 0.40962 0.0
C775 C 0.53231 0.65362 0.42268 0.0
C776 C 0.53374 0.62213 0.43474 0.0
C777 C 0.50071 0.57757 0.4341 0.0
C778 C 0.46645 0.56491 0.4213 0.0
C779 C 0.46477 0.59495 0.40922 0.0
C780 C 0.4233 0.57337 0.39745 0.0
C781 C 0.39463 0.59453 0.40106 0.0
C782 C 0.43459 0.575 0.37655 0.0
C783 C 0.40162 0.5267 0.40498 0.0
C784 C 0.42707 0.52231 0.41864 0.0
C785 C 0.41304 0.48243 0.428 0.0
C786 C 0.37184 0.44618 0.4233 0.0
C787 C 0.3451 0.45014 0.40943 0.0
C788 C 0.36061 0.49099 0.40012 0.0
H789 H 0.82907 0.49605 0.59171 0.0
H790 H 0.96988 0.58332 0.59786 0.0
H791 H 0.98214 0.52029 0.59263 0.0
H792 H 0.82076 0.40085 0.61359 0.0
H793 H 0.78102 0.36237 0.59724 0.0
H794 H 0.7834 0.4141 0.60174 0.0
H795 H 0.794 0.4327 0.5663 0.0
H796 H 0.79127 0.38086 0.56167 0.0
H797 H 0.83826 0.43163 0.55387 0.0
H798 H 0.97789 0.44609 0.58907 0.0
H799 H 0.95894 0.36912 0.58256 0.0
H800 H 0.82184 0.33236 0.5755 0.0
C801 C 0.86248 0.50183 0.59186 0.0
C802 C 0.89858 0.54432 0.59528 0.0
C803 C 0.94187 0.55094 0.59518 0.0
C804 C 0.94907 0.51533 0.59235 0.0
C805 C 0.91267 0.47363 0.58923 0.0
C806 C 0.87032 0.46697 0.58853 0.0
C807 C 0.83706 0.41941 0.58407 0.0
C808 C 0.80359 0.39793 0.60012 0.0
C809 C 0.81379 0.41597 0.56536 0.0
C810 C 0.86719 0.40014 0.58261 0.0
C811 C 0.91059 0.43175 0.58595 0.0
C812 C 0.9441 0.42123 0.5862 0.0
C813 C 0.93304 0.37745 0.58262 0.0
C814 C 0.88905 0.34509 0.57845 0.0
C815 C 0.8558 0.35666 0.57849 0.0
H816 H 0.49134 0.81699 0.75056 0.0
H817 H 0.58294 0.95788 0.74953 0.0
H818 H 0.52151 0.97169 0.7561 0.0
H819 H 0.40041 0.81756 0.72929 0.0
H820 H 0.35918 0.77528 0.74409 0.0
H821 H 0.41026 0.77624 0.7396 0.0
H822 H 0.42484 0.77836 0.77525 0.0
H823 H 0.3736 0.777 0.77986 0.0
H824 H 0.42435 0.82073 0.78937 0.0
H825 H 0.44933 0.97004 0.75961 0.0
H826 H 0.3728 0.95346 0.76465 0.0
H827 H 0.32857 0.81373 0.76681 0.0
C828 C 0.49843 0.85072 0.75192 0.0
C829 C 0.54178 0.88646 0.7495 0.0
C830 C 0.54999 0.93011 0.75146 0.0
C831 C 0.51529 0.93823 0.75508 0.0
C832 C 0.4728 0.9023 0.75711 0.0
C833 C 0.46436 0.85939 0.75604 0.0
C834 C 0.41584 0.82675 0.75928 0.0
C835 C 0.39522 0.79722 0.74203 0.0
C836 C 0.40928 0.79908 0.777 0.0
C837 C 0.39813 0.858 0.76197 0.0
C838 C 0.43152 0.90142 0.76038 0.0
C839 C 0.42306 0.93623 0.76118 0.0
C840 C 0.37947 0.92649 0.76391 0.0
C841 C 0.34497 0.88243 0.76621 0.0
C842 C 0.35449 0.84775 0.7653 0.0
H843 H 0.50146 0.36287 0.95296 0.0
H844 H 0.45076 0.30967 0.89786 0.0
H845 H 0.51741 0.37047 0.88333 0.0
H846 H 0.54722 0.47688 0.93928 0.0
H847 H 0.59462 0.49684 0.95436 0.0
H848 H 0.54393 0.4479 0.96066 0.0
H849 H 0.58533 0.4041 0.96306 0.0
H850 H 0.63616 0.45291 0.95676 0.0
H851 H 0.61695 0.40313 0.94332 0.0
H852 H 0.58989 0.43523 0.87468 0.0
H853 H 0.66134 0.50417 0.8722 0.0
H854 H 0.66367 0.51976 0.93256 0.0
C855 C 0.50467 0.36398 0.93786 0.0
C856 C 0.47115 0.3314 0.92652 0.0
C857 C 0.47604 0.33428 0.9068 0.0
C858 C 0.51384 0.3686 0.89841 0.0
C859 C 0.54623 0.40027 0.90991 0.0
C860 C 0.54191 0.39871 0.92918 0.0
C861 C 0.58083 0.4383 0.93816 0.0
C862 C 0.56574 0.46666 0.94874 0.0
C863 C 0.60633 0.42372 0.95109 0.0
C864 C 0.60772 0.46207 0.92092 0.0
C865 C 0.58729 0.43916 0.90481 0.0
C866 C 0.6061 0.45366 0.88718 0.0
C867 C 0.64677 0.49279 0.88592 0.0
C868 C 0.66798 0.51744 0.90217 0.0
C869 C 0.64804 0.50181 0.91989 0.0
H870 H 0.30294 0.21753 0.18512 0.0
H871 H 0.19155 0.08363 0.18483 0.0
H872 H 0.14622 0.10964 0.16937 0.0
H873 H 0.24022 0.27083 0.19477 0.0
H874 H 0.27253 0.3175 0.17972 0.0
H875 H 0.29748 0.28873 0.19047 0.0
H876 H 0.32134 0.2759 0.15784 0.0
H877 H 0.29661 0.30478 0.14699 0.0
H878 H 0.28046 0.24946 0.13978 0.0
H879 H 0.11193 0.14907 0.15449 0.0
H880 H 0.0911 0.20019 0.14038 0.0
H881 H 0.22376 0.30918 0.15004 0.0
C882 C 0.26911 0.19365 0.18171 0.0
C883 C 0.25102 0.14846 0.18626 0.0
C884 C 0.20643 0.11841 0.18158 0.0
C885 C 0.18023 0.13281 0.17276 0.0
C886 C 0.19887 0.17741 0.16864 0.0
C887 C 0.24225 0.20747 0.17287 0.0
C888 C 0.25368 0.25367 0.16697 0.0
C889 C 0.26674 0.2845 0.184 0.0
C890 C 0.29018 0.27202 0.152 0.0
C891 C 0.20989 0.24467 0.15886 0.0
C892 C 0.17883 0.20042 0.15998 0.0
C893 C 0.13594 0.18385 0.15349 0.0
C894 C 0.12442 0.21325 0.14551 0.0
C895 C 0.15566 0.25885 0.14408 0.0
C896 C 0.19898 0.2746 0.15093 0.0
H897 H 0.91132 0.13906 0.3118 0.0
H898 H 0.87954 0.24354 0.31824 0.0
H899 H 0.94822 0.28754 0.33568 0.0
H900 H 0.96086 0.15184 0.35797 0.0
H901 H 0.00317 0.141 0.34975 0.0
H902 H 0.95062 0.11649 0.33804 0.0
H903 H 0.99004 0.1505 0.30658 0.0
H904 H 0.04268 0.1752 0.31819 0.0
H905 H 0.02708 0.20915 0.30497 0.0
H906 H 0.02063 0.32172 0.35132 0.0
H907 H 0.09241 0.34343 0.36554 0.0
H908 H 0.07847 0.21719 0.34977 0.0
C909 C 0.91862 0.17103 0.31699 0.0
C910 C 0.88979 0.18767 0.31359 0.0
C911 C 0.90082 0.22983 0.32061 0.0
C912 C 0.93987 0.25523 0.33056 0.0
C913 C 0.96763 0.2381 0.33349 0.0
C914 C 0.95756 0.19694 0.32706 0.0
C915 C 0.99367 0.1868 0.33211 0.0
C916 C 0.97601 0.14665 0.34525 0.0
C917 C 0.0146 0.18002 0.31441 0.0
C918 C 0.02566 0.22893 0.34218 0.0
C919 C 0.00981 0.25795 0.34278 0.0
C920 C 0.03339 0.29925 0.35105 0.0
C921 C 0.07427 0.31128 0.35907 0.0
C922 C 0.09131 0.28209 0.35882 0.0
C923 C 0.06649 0.24031 0.35022 0.0
H924 H 0.86036 0.08102 0.52151 0.0
H925 H 0.75347 0.11 0.51808 0.0
H926 H 0.709 0.04144 0.50052 0.0
H927 H 0.84523 0.03379 0.47504 0.0
H928 H 0.85802 0.99211 0.48224 0.0
H929 H 0.88219 0.04407 0.49438 0.0
H930 H 0.85106 0.00291 0.52582 0.0
H931 H 0.82673 0.95084 0.51377 0.0
H932 H 0.79279 0.96461 0.52798 0.0
H933 H 0.67511 0.96922 0.484 0.0
H934 H 0.65476 0.89864 0.46871 0.0
H935 H 0.78352 0.91626 0.48242 0.0
C936 C 0.8277 0.07312 0.51699 0.0
C937 C 0.81057 0.10112 0.52124 0.0
C938 C 0.76755 0.08932 0.51505 0.0
C939 C 0.7419 0.05034 0.50505 0.0
C940 C 0.75964 0.02343 0.50125 0.0
C941 C 0.80158 0.03431 0.50692 0.0
C942 C 0.81256 0.99933 0.50101 0.0
C943 C 0.85183 0.01848 0.48736 0.0
C944 C 0.82129 0.97817 0.51817 0.0
C945 C 0.77009 0.96705 0.49127 0.0
C946 C 0.74004 0.98163 0.49158 0.0
C947 C 0.69838 0.95745 0.48361 0.0
C948 C 0.68712 0.9173 0.47497 0.0
C949 C 0.71744 0.90167 0.47435 0.0
C950 C 0.75947 0.92708 0.48266 0.0
H951 H 0.86176 0.77693 0.65192 0.0
H952 H 0.75043 0.64513 0.64327 0.0
H953 H 0.70133 0.66731 0.65817 0.0
H954 H 0.82748 0.79493 0.69713 0.0
H955 H 0.84605 0.85232 0.69281 0.0
H956 H 0.87309 0.82635 0.68145 0.0
H957 H 0.85853 0.85014 0.64909 0.0
H958 H 0.83139 0.87614 0.66035 0.0
H959 H 0.80296 0.83493 0.64262 0.0
H960 H 0.66404 0.70261 0.67404 0.0
H961 H 0.64043 0.7492 0.69016 0.0
H962 H 0.77507 0.85908 0.68849 0.0
C963 C 0.82711 0.75266 0.65321 0.0
C964 C 0.81016 0.70915 0.64645 0.0
C965 C 0.76445 0.67858 0.64835 0.0
C966 C 0.73615 0.69085 0.65679 0.0
C967 C 0.75387 0.73386 0.66325 0.0
C968 C 0.79821 0.76437 0.66159 0.0
C969 C 0.80848 0.8085 0.66972 0.0
C970 C 0.84068 0.82126 0.68626 0.0
C971 C 0.82639 0.84456 0.65454 0.0
C972 C 0.76295 0.79783 0.67623 0.0
C973 C 0.73205 0.75457 0.67232 0.0
C974 C 0.68786 0.73661 0.67714 0.0
C975 C 0.6748 0.76349 0.6863 0.0
C976 C 0.70576 0.80804 0.69056 0.0
C977 C 0.75046 0.82533 0.68535 0.0
H978 H 0.91521 0.69197 0.85259 0.0
H979 H 0.90837 0.80646 0.87133 0.0
H980 H 0.98292 0.85502 0.85889 0.0
H981 H 0.03061 0.735 0.863 0.0
H982 H 0.04076 0.71126 0.84255 0.0
H983 H 0.98678 0.68481 0.85314 0.0
H984 H 0.95236 0.68767 0.82144 0.0
H985 H 0.00618 0.71391 0.81074 0.0
H986 H 0.97284 0.73979 0.80955 0.0
H987 H 0.05688 0.89134 0.84434 0.0
H988 H 0.12612 0.91428 0.82752 0.0
H989 H 0.08687 0.77696 0.81785 0.0
C990 C 0.92931 0.72725 0.85409 0.0
C991 C 0.90566 0.74528 0.86296 0.0
C992 C 0.92553 0.79169 0.86458 0.0
C993 C 0.968 0.81963 0.8576 0.0
C994 C 0.99032 0.80078 0.84903 0.0
C995 C 0.97177 0.75574 0.84717 0.0
C996 C 0.00286 0.74431 0.83701 0.0
C997 C 0.01603 0.71724 0.84968 0.0
C998 C 0.98233 0.71998 0.81859 0.0
C999 C 0.04168 0.79008 0.83338 0.0
C1000 C 0.03357 0.822 0.84053 0.0
C1001 C 0.06368 0.86671 0.83869 0.0
C1002 C 0.10296 0.87935 0.82904 0.0
C1003 C 0.11205 0.84745 0.82127 0.0
C1004 C 0.0811 0.80212 0.82371 0.0
H1005 H 0.22664 0.91874 0.01575 0.0
H1006 H 0.09346 0.89453 0.02419 0.0
H1007 H 0.11623 0.9689 0.01205 0.0
H1008 H 0.28212 0.03236 0.02994 0.0
H1009 H 0.32546 0.04969 0.01277 0.0
H1010 H 0.2987 0.99413 0.02176 0.0
H1011 H 0.2789 0.96347 0.98802 0.0
H1012 H 0.3059 0.0189 0.97892 0.0
H1013 H 0.24919 0.98109 0.97302 0.0
H1014 H 0.15286 0.04517 0.9985 0.0
H1015 H 0.20075 0.11812 0.98425 0.0
H1016 H 0.31105 0.09431 0.98585 0.0
C1017 C 0.20211 0.92887 0.01497 0.0
C1018 C 0.15812 0.90053 0.0209 0.0
C1019 C 0.12729 0.91546 0.01973 0.0
C1020 C 0.13993 0.95772 0.01289 0.0
C1021 C 0.1836 0.98489 0.00738 0.0
C1022 C 0.21424 0.97112 0.00835 0.0
C1023 C 0.25916 0.00696 0.00165 0.0
C1024 C 0.29337 0.02165 0.01748 0.0
C1025 C 0.27415 0.99169 0.98437 0.0
C1026 C 0.24888 0.04295 0.99663 0.0
C1027 C 0.20507 0.02944 1.00003 0.0
C1028 C 0.18728 0.05621 0.99589 0.0
C1029 C 0.21478 0.09762 0.98779 0.0
C1030 C 0.25975 0.11211 0.98401 0.0
C1031 C 0.27704 0.08452 0.98879 0.0
H1032 H 0.22372 0.3374 0.07729 0.0
H1033 H 0.09539 0.30312 0.05497 0.0
H1034 H 0.11621 0.28538 0.02446 0.0
H1035 H 0.28837 0.38358 0.03434 0.0
H1036 H 0.32263 0.35964 0.03878 0.0
H1037 H 0.29953 0.3745 0.05808 0.0
H1038 H 0.26406 0.29477 0.07098 0.0
H1039 H 0.28697 0.27966 0.05174 0.0
H1040 H 0.22842 0.24925 0.05608 0.0
H1041 H 0.1503 0.26914 0.99672 0.0
H1042 H 0.19217 0.24921 0.97482 0.0
H1043 H 0.29617 0.28929 0.0161 0.0
C1044 C 0.20038 0.32705 0.06585 0.0
C1045 C 0.15818 0.32219 0.06835 0.0
C1046 C 0.12797 0.30725 0.05327 0.0
C1047 C 0.13958 0.2973 0.03589 0.0
C1048 C 0.18131 0.30195 0.03393 0.0
C1049 C 0.2111 0.31609 0.04856 0.0
C1050 C 0.2522 0.31444 0.04339 0.0
C1051 C 0.2931 0.36081 0.04366 0.0
C1052 C 0.25824 0.28263 0.05631 0.0
C1053 C 0.2407 0.29672 0.02363 0.0
C1054 C 0.20004 0.2905 0.0183 0.0
C1055 C 0.18222 0.27396 1.00072 0.0
C1056 C 0.20628 0.26284 0.98836 0.0
C1057 C 0.24732 0.26759 0.99379 0.0
C1058 C 0.26482 0.28519 0.01159 0.0
H1059 H 0.85407 0.13849 0.22437 0.0
H1060 H 0.85461 0.25393 0.24674 0.0
H1061 H 0.91163 0.30076 0.22379 0.0
H1062 H 0.96734 0.18693 0.21579 0.0
H1063 H 0.96206 0.15876 0.19402 0.0
H1064 H 0.91958 0.1337 0.21157 0.0
H1065 H 0.86108 0.12681 0.18753 0.0
H1066 H 0.9033 0.15138 0.16982 0.0
H1067 H 0.86923 0.17513 0.17504 0.0
H1068 H 0.97536 0.3361 0.20113 0.0
H1069 H 0.03273 0.35595 0.17671 0.0
H1070 H 0.98558 0.21743 0.16684 0.0
C1071 C 0.86557 0.1735 0.22424 0.0
C1072 C 0.84992 0.19248 0.23747 0.0
C1073 C 0.86591 0.23849 0.23678 0.0
C1074 C 0.89851 0.26547 0.22383 0.0
C1075 C 0.91411 0.24586 0.21136 0.0
C1076 C 0.89738 0.2008 0.21112 0.0
C1077 C 0.91967 0.18802 0.19618 0.0
C1078 C 0.94357 0.16553 0.20492 0.0
C1079 C 0.88633 0.1586 0.18125 0.0
C1080 C 0.95214 0.23303 0.18831 0.0
C1081 C 0.94884 0.26603 0.19745 0.0
C1082 C 0.97763 0.31053 0.1936 0.0
C1083 C 0.01019 0.32153 0.17985 0.0
C1084 C 0.01292 0.28816 0.16989 0.0
C1085 C 0.9835 0.24342 0.17413 0.0
H1086 H 0.78843 0.03868 0.35098 0.0
H1087 H 0.6997 0.95778 0.30699 0.0
H1088 H 0.66854 0.89298 0.32821 0.0
H1089 H 0.8123 0.95589 0.36774 0.0
H1090 H 0.81604 0.97199 0.39193 0.0
H1091 H 0.82943 0.01223 0.37364 0.0
H1092 H 0.77211 0.03124 0.38698 0.0
H1093 H 0.75861 0.99109 0.40533 0.0
H1094 H 0.71584 0.98787 0.39025 0.0
H1095 H 0.64495 0.83775 0.35508 0.0
H1096 H 0.63655 0.79505 0.38409 0.0
H1097 H 0.74588 0.91086 0.40905 0.0
C1098 C 0.76219 0.00737 0.34589 0.0
C1099 C 0.74598 0.00319 0.32747 0.0
C1100 C 0.71237 0.96156 0.32111 0.0
C1101 C 0.69445 0.92469 0.33307 0.0
C1102 C 0.7112 0.92987 0.35119 0.0
C1103 C 0.74481 0.97005 0.35746 0.0
C1104 C 0.75865 0.96642 0.37717 0.0
C1105 C 0.80697 0.97727 0.37764 0.0
C1106 C 0.75082 0.9959 0.39073 0.0
C1107 C 0.72735 0.91804 0.38109 0.0
C1108 C 0.69975 0.89758 0.36607 0.0
C1109 C 0.66677 0.85332 0.36683 0.0
C1110 C 0.66215 0.82936 0.38333 0.0
C1111 C 0.69098 0.84952 0.39862 0.0
C1112 C 0.72395 0.89439 0.39741 0.0
H1113 H 0.88384 0.75931 0.57291 0.0
H1114 H 0.80364 0.61842 0.56317 0.0
H1115 H 0.7751 0.63341 0.53411 0.0
H1116 H 0.80433 0.78691 0.55803 0.0
H1117 H 0.84385 0.83844 0.54736 0.0
H1118 H 0.86008 0.81667 0.5667 0.0
H1119 H 0.92337 0.81984 0.54675 0.0
H1120 H 0.90755 0.84186 0.52735 0.0
H1121 H 0.91105 0.79261 0.52435 0.0
H1122 H 0.75352 0.66399 0.50657 0.0
H1123 H 0.74049 0.70753 0.48281 0.0
H1124 H 0.83377 0.82818 0.51115 0.0
C1125 C 0.86068 0.73147 0.56461 0.0
C1126 C 0.84622 0.68761 0.57034 0.0
C1127 C 0.81544 0.6523 0.55907 0.0
C1128 C 0.79899 0.66049 0.54253 0.0
C1129 C 0.81355 0.70412 0.53747 0.0
C1130 C 0.84375 0.73899 0.54817 0.0
C1131 C 0.85294 0.78277 0.54005 0.0
C1132 C 0.83948 0.80764 0.55386 0.0
C1133 C 0.90162 0.81092 0.53428 0.0
C1134 C 0.82298 0.76711 0.52311 0.0
C1135 C 0.8007 0.72165 0.52182 0.0
C1136 C 0.77089 0.6996 0.50742 0.0
C1137 C 0.76371 0.72466 0.49399 0.0
C1138 C 0.78609 0.77131 0.49509 0.0
C1139 C 0.81611 0.79261 0.50989 0.0
H1140 H 0.12915 0.88498 0.74298 0.0
H1141 H 0.17533 0.79088 0.73976 0.0
H1142 H 0.12643 0.75533 0.71271 0.0
H1143 H 0.01705 0.80819 0.73292 0.0
H1144 H 0.00795 0.84649 0.71944 0.0
H1145 H 0.04866 0.86642 0.73777 0.0
H1146 H 0.10851 0.91834 0.7142 0.0
H1147 H 0.06796 0.8989 0.6958 0.0
H1148 H 0.11749 0.89577 0.69308 0.0
H1149 H 0.07131 0.72906 0.68638 0.0
H1150 H 0.0141 0.71404 0.66273 0.0
H1151 H 0.00207 0.82365 0.68397 0.0
C1152 C 0.12952 0.85729 0.73646 0.0
C1153 C 0.15637 0.84094 0.74346 0.0
C1154 C 0.15519 0.80413 0.73464 0.0
C1155 C 0.1275 0.78368 0.71927 0.0
C1156 C 0.10093 0.80019 0.71294 0.0
C1157 C 0.10171 0.83616 0.72126 0.0
C1158 C 0.06871 0.8464 0.71223 0.0
C1159 C 0.03351 0.84157 0.72644 0.0
C1160 C 0.09207 0.89259 0.70329 0.0
C1161 C 0.04928 0.81061 0.6975 0.0
C1162 C 0.06843 0.78441 0.6981 0.0
C1163 C 0.05607 0.74936 0.68578 0.0
C1164 C 0.0235 0.74106 0.67241 0.0
C1165 C 0.00344 0.76754 0.67152 0.0
C1166 C 0.0165 0.8026 0.68434 0.0
H1167 H 0.28979 0.16097 0.8938 0.0
H1168 H 0.38222 0.13664 0.92482 0.0
H1169 H 0.37607 0.08358 0.90074 0.0
H1170 H 0.21918 0.0528 0.87982 0.0
H1171 H 0.20853 0.06638 0.85677 0.0
H1172 H 0.22302 0.10537 0.87556 0.0
H1173 H 0.28825 0.16439 0.85595 0.0
H1174 H 0.27382 0.12561 0.83702 0.0
H1175 H 0.32872 0.15207 0.84664 0.0
H1176 H 0.35214 0.02605 0.87586 0.0
H1177 H 0.31767 0.97316 0.84983 0.0
H1178 H 0.2456 0.03868 0.83345 0.0
C1179 C 0.30936 0.1451 0.89537 0.0
C1180 C 0.33645 0.15299 0.91124 0.0
C1181 C 0.36141 0.13139 0.91277 0.0
C1182 C 0.35809 0.1011 0.89917 0.0
C1183 C 0.33036 0.09338 0.88394 0.0
C1184 C 0.30703 0.11531 0.88177 0.0
C1185 C 0.27848 0.09995 0.86439 0.0
C1186 C 0.22941 0.07993 0.86945 0.0
C1187 C 0.29322 0.13776 0.85016 0.0
C1188 C 0.2885 0.06508 0.85741 0.0
C1189 C 0.31835 0.06168 0.86897 0.0
C1190 C 0.3296 0.02908 0.86644 0.0
C1191 C 0.3098 0.99915 0.85171 0.0
C1192 C 0.27979 0.0026 0.83957 0.0
C1193 C 0.26943 0.03626 0.8423 0.0
H1194 H 0.67371 0.77634 0.75886 0.0
H1195 H 0.704 0.90204 0.78267 0.0
H1196 H 0.72454 0.8812 0.81264 0.0
H1197 H 0.63119 0.70914 0.80126 0.0
H1198 H 0.65691 0.67681 0.79614 0.0
H1199 H 0.64059 0.69988 0.77729 0.0
H1200 H 0.72033 0.73852 0.76426 0.0
H1201 H 0.73691 0.71572 0.78309 0.0
H1202 H 0.76545 0.77448 0.77927 0.0
H1203 H 0.74189 0.84675 0.83978 0.0
H1204 H 0.76169 0.80449 0.86147 0.0
H1205 H 0.72636 0.70348 0.81917 0.0
C1206 C 0.68391 0.79897 0.77056 0.0
C1207 C 0.68656 0.84037 0.76877 0.0
C1208 C 0.70136 0.86999 0.78401 0.0
C1209 C 0.71298 0.85838 0.80101 0.0
C1210 C 0.71033 0.81737 0.80236 0.0
C1211 C 0.69665 0.7883 0.78749 0.0
C1212 C 0.7001 0.74785 0.79214 0.0
C1213 C 0.65448 0.70594 0.79168 0.0
C1214 C 0.73264 0.74394 0.7789 0.0
C1215 C 0.71797 0.75874 0.81194 0.0
C1216 C 0.72289 0.79865 0.81765 0.0
C1217 C 0.73829 0.81553 0.83545 0.0
C1218 C 0.74934 0.7912 0.84769 0.0
C1219 C 0.74573 0.7508 0.84198 0.0
C1220 C 0.72973 0.73441 0.82387 0.0
H1221 H 0.89845 0.66916 0.92133 0.0
H1222 H 0.7876 0.66202 0.95134 0.0
H1223 H 0.82877 0.67684 0.98113 0.0
H1224 H 0.93908 0.62412 0.95893 0.0
H1225 H 0.99597 0.66273 0.95357 0.0
H1226 H 0.95508 0.64386 0.93529 0.0
H1227 H 0.97865 0.72485 0.92725 0.0
H1228 H 0.01921 0.74396 0.9456 0.0
H1229 H 0.9779 0.76031 0.94534 0.0
H1230 H 0.88387 0.69845 0.00701 0.0
H1231 H 0.94987 0.7287 0.02709 0.0
H1232 H 0.02722 0.72699 0.97989 0.0
C1233 C 0.88242 0.66907 0.93432 0.0
C1234 C 0.83954 0.66322 0.93429 0.0
C1235 C 0.82013 0.66551 0.95129 0.0
C1236 C 0.84326 0.67392 0.96821 0.0
C1237 C 0.886 0.68062 0.96779 0.0
C1238 C 0.9055 0.67843 0.95128 0.0
C1239 C 0.95349 0.69198 0.95432 0.0
C1240 C 0.96135 0.65336 0.95029 0.0
C1241 C 0.98409 0.73269 0.94242 0.0
C1242 C 0.95814 0.70292 0.97502 0.0
C1243 C 0.91862 0.69537 0.98257 0.0
C1244 C 0.91492 0.70417 1.00129 0.0
C1245 C 0.95265 0.72139 0.01259 0.0
C1246 C 0.99377 0.73032 0.00507 0.0
C1247 C 0.99629 0.72057 0.98605 0.0
H1248 H 0.13335 0.83677 0.10642 0.0
H1249 H 0.25618 0.86559 0.07946 0.0
H1250 H 0.29782 0.91773 0.10468 0.0
H1251 H 0.16554 0.94326 0.12048 0.0
H1252 H 0.13763 0.92849 0.14279 0.0
H1253 H 0.11714 0.8899 0.1237 0.0
H1254 H 0.12205 0.83143 0.14423 0.0
H1255 H 0.14225 0.86974 0.16348 0.0
H1256 H 0.17355 0.84497 0.1553 0.0
H1257 H 0.3258 0.97456 0.1299 0.0
H1258 H 0.33849 0.0263 0.15584 0.0
H1259 H 0.19854 0.95706 0.16813 0.0
C1260 C 0.169 0.85326 0.10601 0.0
C1261 C 0.1914 0.84701 0.09088 0.0
C1262 C 0.23814 0.86955 0.09088 0.0
C1263 C 0.26216 0.89937 0.10515 0.0
C1264 C 0.23905 0.9057 0.11954 0.0
C1265 C 0.19354 0.88266 0.12031 0.0
C1266 C 0.17678 0.89683 0.13697 0.0
C1267 C 0.14756 0.91574 0.1306 0.0
C1268 C 0.15221 0.85845 0.15082 0.0
C1269 C 0.21997 0.93238 0.14511 0.0
C1270 C 0.25547 0.93707 0.13476 0.0
C1271 C 0.29842 0.97049 0.13841 0.0
C1272 C 0.30531 0.9998 0.15306 0.0
C1273 C 0.26956 0.99497 0.16404 0.0
C1274 C 0.22646 0.96058 0.16017 0.0
H1275 H 0.23302 0.1041 0.26327 0.0
H1276 H 0.37327 0.19821 0.26659 0.0
H1277 H 0.36024 0.23143 0.29456 0.0
H1278 H 0.19767 0.17938 0.27505 0.0
H1279 H 0.15047 0.14033 0.28844 0.0
H1280 H 0.17109 0.12141 0.26965 0.0
H1281 H 0.17947 0.06844 0.29243 0.0
H1282 H 0.15855 0.0869 0.31129 0.0
H1283 H 0.21128 0.09001 0.31355 0.0
H1284 H 0.33164 0.25621 0.32152 0.0
H1285 H 0.28949 0.27103 0.34529 0.0
H1286 H 0.16771 0.16244 0.32362 0.0
C1287 C 0.26114 0.13121 0.27003 0.0
C1288 C 0.30424 0.14832 0.26276 0.0
C1289 C 0.33996 0.18439 0.2719 0.0
C1290 C 0.33291 0.2035 0.28781 0.0
C1291 C 0.28994 0.18635 0.29438 0.0
C1292 C 0.25466 0.15101 0.28579 0.0
C1293 C 0.2115 0.14024 0.29508 0.0
C1294 C 0.18089 0.14568 0.28123 0.0
C1295 C 0.18888 0.09363 0.3036 0.0
C1296 C 0.22798 0.17526 0.31016 0.0
C1297 C 0.27335 0.20131 0.30961 0.0
C1298 C 0.2961 0.23596 0.32211 0.0
C1299 C 0.27185 0.24414 0.33556 0.0
C1300 C 0.22527 0.21801 0.33631 0.0
C1301 C 0.20324 0.18316 0.32339 0.0
H1302 H 0.08701 0.25411 0.42328 0.0
H1303 H 0.20145 0.36463 0.44841 0.0
H1304 H 0.15925 0.35315 0.47784 0.0
H1305 H 0.00811 0.27938 0.44339 0.0
H1306 H 0.96625 0.22237 0.44628 0.0
H1307 H 0.00626 0.23817 0.42774 0.0
H1308 H 0.0285 0.18231 0.43998 0.0
H1309 H 0.98854 0.16629 0.45855 0.0
H1310 H 0.04549 0.18527 0.46401 0.0
H1311 H 0.10485 0.32644 0.50503 0.0
H1312 H 0.04071 0.29243 0.52655 0.0
H1313 H 0.9603 0.20445 0.48227 0.0
C1314 C 0.10327 0.27565 0.43505 0.0
C1315 C 0.14761 0.30984 0.43377 0.0
C1316 C 0.16753 0.33812 0.44923 0.0
C1317 C 0.14387 0.33175 0.46596 0.0
C1318 C 0.10012 0.29758 0.46678 0.0
C1319 C 0.07985 0.27049 0.45161 0.0
C1320 C 0.03192 0.23766 0.45568 0.0
C1321 C 1.00134 0.24485 0.44249 0.0
C1322 C 0.02311 0.19007 0.45449 0.0
C1323 C 0.02836 0.25009 0.47562 0.0
C1324 C 0.06819 0.2843 0.48189 0.0
C1325 C 0.0734 0.30004 0.50018 0.0
C1326 C 0.03691 0.28048 0.51231 0.0
C1327 C 0.9956 0.24627 0.50596 0.0
C1328 C 0.99137 0.23107 0.48737 0.0
H1329 H 0.78803 0.007 0.66787 0.0
H1330 H 0.64939 0.96288 0.66001 0.0
H1331 H 0.66864 0.02001 0.63556 0.0
H1332 H 0.83195 0.12349 0.65963 0.0
H1333 H 0.87898 0.13032 0.64652 0.0
H1334 H 0.85471 0.08829 0.66434 0.0
H1335 H 0.8442 0.02881 0.64011 0.0
H1336 H 0.86876 0.07069 0.62228 0.0
H1337 H 0.81466 0.0237 0.61873 0.0
H1338 H 0.7034 0.08337 0.61263 0.0
H1339 H 0.74936 0.13972 0.58926 0.0
H1340 H 0.86489 0.13746 0.60977 0.0
C1341 C 0.76186 0.00966 0.66103 0.0
C1342 C 0.71728 0.98105 0.66587 0.0
C1343 C 0.68372 0.98466 0.65644 0.0
C1344 C 0.69437 0.01714 0.64266 0.0
C1345 C 0.73869 0.04506 0.63823 0.0
C1346 C 0.77185 0.04101 0.64684 0.0
C1347 C 0.81649 0.07265 0.63839 0.0
C1348 C 0.84735 0.10564 0.6531 0.0
C1349 C 0.83723 0.04745 0.62934 0.0
C1350 C 0.80329 0.09527 0.62375 0.0
C1351 C 0.7584 0.07951 0.62416 0.0
C1352 C 0.73855 0.09573 0.61209 0.0
C1353 C 0.76503 0.12794 0.5989 0.0
C1354 C 0.81077 0.14295 0.59755 0.0
C1355 C 0.83007 0.12671 0.61039 0.0
loop_
_geom_bond_atom_site_label_1
_geom_bond_atom_site_label_2
_geom_bond_distance
_geom_bond_site_symmetry_2
_ccdc_geom_bond_type
Co0 O2 2.143 . S
Co0 O8 2.074 . S
Co0 O11 2.093 . S
Co0 O24 2.097 . S
Co0 N41 2.151 . S
Co0 N49 2.214 . S
Co1 O2 2.160 . S
Co1 O7 2.058 . S
Co1 O17 2.057 . S
Co1 O32 2.037 . S
Co1 N36 2.145 . S
Co1 N57 2.257 . S
O2 Co0 2.143 . S
O2 Co1 2.160 . S
C3 O4 1.278 . S
C3 O11 1.224 . S
O4 C3 1.278 . S
C5 O6 1.245 . S
C5 O17 1.232 . S
O6 C5 1.245 . S
O7 Co1 2.058 . S
O7 C33 1.269 . S
O8 Co0 2.074 . S
O8 C33 1.257 . S
H9 C34 0.930 . S
H10 C40 0.930 . S
O11 Co0 2.093 . S
O11 C3 1.224 . S
H12 C44 0.929 1_655 S
H13 C46 0.930 . S
H14 C47 0.930 . S
H15 C45 0.929 . S
H16 C48 0.928 . S
O17 Co1 2.057 . S
O17 C5 1.232 . S
H18 C37 0.929 . S
H19 C38 0.929 . S
H20 C50 0.931 . S
H21 C42 0.929 . S
H22 C51 0.930 . S
H23 C43 0.931 . S
O24 Co0 2.097 . S
O24 C52 1.214 . S
H25 C53 0.929 . S
H26 C54 0.929 . S
H27 C55 0.930 . S
H28 C56 0.929 . S
H29 C58 0.930 . S
H30 C35 0.930 . S
H31 C39 0.930 . S
O32 Co1 2.037 . S
O32 C52 1.234 . S
C33 O7 1.269 . S
C33 O8 1.257 . S
C34 H9 0.930 . S
C34 C37 1.388 . S
C34 C39 1.418 . S
C35 H30 0.930 . S
C35 C38 1.404 . S
C35 C39 1.353 . S
N36 Co1 2.145 . S
N36 C37 1.397 . S
N36 C38 1.334 . S
C37 H18 0.929 . S
C37 C34 1.388 . S
C37 N36 1.397 . S
C38 H19 0.929 . S
C38 C35 1.404 . S
C38 N36 1.334 . S
C39 H31 0.930 . S
C39 C34 1.418 . S
C39 C35 1.353 . S
C40 H10 0.930 . S
C40 N41 1.330 . S
C40 C42 1.446 1_455 S
N41 Co0 2.151 . S
N41 C40 1.330 . S
N41 C45 1.418 . S
C42 H21 0.929 . S
C42 C40 1.446 1_655 S
C42 C43 1.332 . S
C43 H23 0.931 . S
C43 C42 1.332 . S
C43 C44 1.267 1_655 S
C44 H12 0.929 1_455 S
C44 C43 1.267 1_455 S
C44 C45 1.251 . S
C45 H15 0.929 . S
C45 N41 1.418 . S
C45 C44 1.251 . S
C46 H13 0.930 . S
C46 C48 1.406 . S
C46 C51 1.261 . S
C47 H14 0.930 . S
C47 N49 1.325 . S
C47 C50 1.357 . S
C48 H16 0.928 . S
C48 C46 1.406 . S
C48 N49 1.261 . S
N49 Co0 2.214 . S
N49 C47 1.325 . S
N49 C48 1.261 . S
C50 H20 0.931 . S
C50 C47 1.357 . S
C50 C51 1.312 . S
C51 H22 0.930 . S
C51 C46 1.261 . S
C51 C50 1.312 . S
C52 O24 1.214 . S
C52 O32 1.234 . S
C53 H25 0.929 . S
C53 C56 1.391 . S
C53 C58 1.391 . S
C54 H26 0.929 . S
C54 C55 1.390 . S
C54 N57 1.391 . S
C55 H27 0.930 . S
C55 C54 1.390 . S
C55 C56 1.392 . S
C56 H28 0.929 . S
C56 C53 1.391 . S
C56 C55 1.392 . S
N57 Co1 2.257 . S
N57 C54 1.391 . S
N57 C58 1.388 . S
C58 H29 0.930 . S
C58 C53 1.391 . S
C58 N57 1.388 . S
Co59 O61 2.143 . S
Co59 O67 2.074 . S
Co59 O70 2.093 . S
Co59 O83 2.097 . S
Co59 N100 2.151 . S
Co59 N108 2.214 . S
Co60 O61 2.160 . S
Co60 O66 2.058 . S
Co60 O76 2.057 . S
Co60 O91 2.037 . S
Co60 N95 2.145 . S
Co60 N116 2.257 . S
O61 Co59 2.143 . S
O61 Co60 2.160 . S
C62 O63 1.278 . S
C62 O70 1.224 . S
O63 C62 1.278 . S
C64 O65 1.245 . S
C64 O76 1.232 . S
O65 C64 1.245 . S
O66 Co60 2.058 . S
O66 C92 1.269 . S
O67 Co59 2.074 . S
O67 C92 1.257 . S
H68 C93 0.930 . S
H69 C99 0.930 . S
O70 Co59 2.093 . S
O70 C62 1.224 . S
H71 C103 0.929 1_565 S
H72 C105 0.930 . S
H73 C106 0.930 . S
H74 C104 0.929 . S
H75 C107 0.928 . S
O76 Co60 2.057 . S
O76 C64 1.232 . S
H77 C96 0.929 . S
H78 C97 0.929 . S
H79 C109 0.931 . S
H80 C101 0.929 . S
H81 C110 0.930 . S
H82 C102 0.931 . S
O83 Co59 2.097 . S
O83 C111 1.214 . S
H84 C112 0.929 . S
H85 C113 0.929 . S
H86 C114 0.930 . S
H87 C115 0.929 . S
H88 C117 0.930 . S
H89 C94 0.930 . S
H90 C98 0.930 . S
O91 Co60 2.037 . S
O91 C111 1.234 . S
C92 O66 1.269 . S
C92 O67 1.257 . S
C93 H68 0.930 . S
C93 C96 1.388 . S
C93 C98 1.418 . S
C94 H89 0.930 . S
C94 C97 1.404 . S
C94 C98 1.353 . S
N95 Co60 2.145 . S
N95 C96 1.397 . S
N95 C97 1.334 . S
C96 H77 0.929 . S
C96 C93 1.388 . S
C96 N95 1.397 . S
C97 H78 0.929 . S
C97 C94 1.404 . S
C97 N95 1.334 . S
C98 H90 0.930 . S
C98 C93 1.418 . S
C98 C94 1.353 . S
C99 H69 0.930 . S
C99 N100 1.330 . S
C99 C101 1.446 1_545 S
N100 Co59 2.151 . S
N100 C99 1.330 . S
N100 C104 1.418 . S
C101 H80 0.929 . S
C101 C99 1.446 1_565 S
C101 C102 1.332 . S
C102 H82 0.931 . S
C102 C101 1.332 . S
C102 C103 1.267 1_565 S
C103 H71 0.929 1_545 S
C103 C102 1.267 1_545 S
C103 C104 1.251 . S
C104 H74 0.929 . S
C104 N100 1.418 . S
C104 C103 1.251 . S
C105 H72 0.930 . S
C105 C107 1.406 . S
C105 C110 1.261 . S
C106 H73 0.930 . S
C106 N108 1.325 . S
C106 C109 1.357 . S
C107 H75 0.928 . S
C107 C105 1.406 . S
C107 N108 1.261 . S
N108 Co59 2.214 . S
N108 C106 1.325 . S
N108 C107 1.261 . S
C109 H79 0.931 . S
C109 C106 1.357 . S
C109 C110 1.312 . S
C110 H81 0.930 . S
C110 C105 1.261 . S
C110 C109 1.312 . S
C111 O83 1.214 . S
C111 O91 1.234 . S
C112 H84 0.929 . S
C112 C115 1.391 . S
C112 C117 1.391 . S
C113 H85 0.929 . S
C113 C114 1.390 . S
C113 N116 1.391 . S
C114 H86 0.930 . S
C114 C113 1.390 . S
C114 C115 1.392 . S
C115 H87 0.929 . S
C115 C112 1.391 . S
C115 C114 1.392 . S
N116 Co60 2.257 . S
N116 C113 1.391 . S
N116 C117 1.388 . S
C117 H88 0.930 . S
C117 C112 1.391 . S
C117 N116 1.388 . S
Co118 O120 2.143 . S
Co118 O126 2.074 . S
Co118 O129 2.093 . S
Co118 O142 2.097 . S
Co118 N159 2.151 . S
Co118 N167 2.214 . S
Co119 O120 2.160 . S
Co119 O125 2.058 . S
Co119 O135 2.057 . S
Co119 O150 2.037 . S
Co119 N154 2.145 . S
Co119 N175 2.257 . S
O120 Co118 2.143 . S
O120 Co119 2.160 . S
C121 O122 1.278 . S
C121 O129 1.224 . S
O122 C121 1.278 . S
C123 O124 1.245 . S
C123 O135 1.232 . S
O124 C123 1.245 . S
O125 Co119 2.058 . S
O125 C151 1.269 . S
O126 Co118 2.074 . S
O126 C151 1.257 . S
H127 C152 0.930 . S
H128 C158 0.930 . S
O129 Co118 2.093 . S
O129 C121 1.224 . S
H130 C162 0.929 . S
H131 C164 0.930 . S
H132 C165 0.930 . S
H133 C163 0.929 . S
H134 C166 0.928 . S
O135 Co119 2.057 . S
O135 C123 1.232 . S
H136 C155 0.929 . S
H137 C156 0.929 . S
H138 C168 0.931 . S
H139 C160 0.929 . S
H140 C169 0.930 . S
H141 C161 0.931 . S
O142 Co118 2.097 . S
O142 C170 1.214 . S
H143 C171 0.929 . S
H144 C172 0.929 . S
H145 C173 0.930 . S
H146 C174 0.929 . S
H147 C176 0.930 . S
H148 C153 0.930 . S
H149 C157 0.930 . S
O150 Co119 2.037 . S
O150 C170 1.234 . S
C151 O125 1.269 . S
C151 O126 1.257 . S
C152 H127 0.930 . S
C152 C155 1.388 . S
C152 C157 1.418 . S
C153 H148 0.930 . S
C153 C156 1.404 . S
C153 C157 1.353 . S
N154 Co119 2.145 . S
N154 C155 1.397 . S
N154 C156 1.334 . S
C155 H136 0.929 . S
C155 C152 1.388 . S
C155 N154 1.397 . S
C156 H137 0.929 . S
C156 C153 1.404 . S
C156 N154 1.334 . S
C157 H149 0.930 . S
C157 C152 1.418 . S
C157 C153 1.353 . S
C158 H128 0.930 . S
C158 N159 1.330 . S
C158 C160 1.446 . S
N159 Co118 2.151 . S
N159 C158 1.330 . S
N159 C163 1.418 . S
C160 H139 0.929 . S
C160 C158 1.446 . S
C160 C161 1.332 . S
C161 H141 0.931 . S
C161 C160 1.332 . S
C161 C162 1.267 . S
C162 H130 0.929 . S
C162 C161 1.267 . S
C162 C163 1.251 . S
C163 H133 0.929 . S
C163 N159 1.418 . S
C163 C162 1.251 . S
C164 H131 0.930 . S
C164 C166 1.406 . S
C164 C169 1.261 . S
C165 H132 0.930 . S
C165 N167 1.325 . S
C165 C168 1.357 . S
C166 H134 0.928 . S
C166 C164 1.406 . S
C166 N167 1.261 . S
N167 Co118 2.214 . S
N167 C165 1.325 . S
N167 C166 1.261 . S
C168 H138 0.931 . S
C168 C165 1.357 . S
C168 C169 1.312 . S
C169 H140 0.930 . S
C169 C164 1.261 . S
C169 C168 1.312 . S
C170 O142 1.214 . S
C170 O150 1.234 . S
C171 H143 0.929 . S
C171 C174 1.391 . S
C171 C176 1.391 . S
C172 H144 0.929 . S
C172 C173 1.390 . S
C172 N175 1.391 . S
C173 H145 0.930 . S
C173 C172 1.390 . S
C173 C174 1.392 . S
C174 H146 0.929 . S
C174 C171 1.391 . S
C174 C173 1.392 . S
N175 Co119 2.257 . S
N175 C172 1.391 . S
N175 C176 1.388 . S
C176 H147 0.930 . S
C176 C171 1.391 . S
C176 N175 1.388 . S
Co177 O179 2.143 . S
Co177 O185 2.074 . S
Co177 O188 2.093 . S
Co177 O201 2.097 . S
Co177 N218 2.151 . S
Co177 N226 2.214 . S
Co178 O179 2.160 . S
Co178 O184 2.058 . S
Co178 O194 2.057 . S
Co178 O209 2.037 . S
Co178 N213 2.145 . S
Co178 N234 2.257 . S
O179 Co177 2.143 . S
O179 Co178 2.160 . S
C180 O181 1.278 . S
C180 O188 1.224 . S
O181 C180 1.278 . S
C182 O183 1.245 . S
C182 O194 1.232 . S
O183 C182 1.245 . S
O184 Co178 2.058 . S
O184 C210 1.269 . S
O185 Co177 2.074 . S
O185 C210 1.257 . S
H186 C211 0.930 . S
H187 C217 0.930 . S
O188 Co177 2.093 . S
O188 C180 1.224 . S
H189 C221 0.929 1_455 S
H190 C223 0.930 . S
H191 C224 0.930 . S
H192 C222 0.929 . S
H193 C225 0.928 . S
O194 Co178 2.057 . S
O194 C182 1.232 . S
H195 C214 0.929 . S
H196 C215 0.929 . S
H197 C227 0.931 . S
H198 C219 0.929 . S
H199 C228 0.930 . S
H200 C220 0.931 . S
O201 Co177 2.097 . S
O201 C229 1.214 . S
H202 C230 0.929 . S
H203 C231 0.929 . S
H204 C232 0.930 . S
H205 C233 0.929 . S
H206 C235 0.930 . S
H207 C212 0.930 . S
H208 C216 0.930 . S
O209 Co178 2.037 . S
O209 C229 1.234 . S
C210 O184 1.269 . S
C210 O185 1.257 . S
C211 H186 0.930 . S
C211 C214 1.388 . S
C211 C216 1.418 . S
C212 H207 0.930 . S
C212 C215 1.404 . S
C212 C216 1.353 . S
N213 Co178 2.145 . S
N213 C214 1.397 . S
N213 C215 1.334 . S
C214 H195 0.929 . S
C214 C211 1.388 . S
C214 N213 1.397 . S
C215 H196 0.929 . S
C215 C212 1.404 . S
C215 N213 1.334 . S
C216 H208 0.930 . S
C216 C211 1.418 . S
C216 C212 1.353 . S
C217 H187 0.930 . S
C217 N218 1.330 . S
C217 C219 1.446 1_655 S
N218 Co177 2.151 . S
N218 C217 1.330 . S
N218 C222 1.418 . S
C219 H198 0.929 . S
C219 C217 1.446 1_455 S
C219 C220 1.332 . S
C220 H200 0.931 . S
C220 C219 1.332 . S
C220 C221 1.267 1_455 S
C221 H189 0.929 1_655 S
C221 C220 1.267 1_655 S
C221 C222 1.251 . S
C222 H192 0.929 . S
C222 N218 1.418 . S
C222 C221 1.251 . S
C223 H190 0.930 . S
C223 C225 1.406 . S
C223 C228 1.261 . S
C224 H191 0.930 . S
C224 N226 1.325 . S
C224 C227 1.357 . S
C225 H193 0.928 . S
C225 C223 1.406 . S
C225 N226 1.261 . S
N226 Co177 2.214 . S
N226 C224 1.325 . S
N226 C225 1.261 . S
C227 H197 0.931 . S
C227 C224 1.357 . S
C227 C228 1.312 . S
C228 H199 0.930 . S
C228 C223 1.261 . S
C228 C227 1.312 . S
C229 O201 1.214 . S
C229 O209 1.234 . S
C230 H202 0.929 . S
C230 C233 1.391 . S
C230 C235 1.391 . S
C231 H203 0.929 . S
C231 C232 1.390 . S
C231 N234 1.391 . S
C232 H204 0.930 . S
C232 C231 1.390 . S
C232 C233 1.392 . S
C233 H205 0.929 . S
C233 C230 1.391 . S
C233 C232 1.392 . S
N234 Co178 2.257 . S
N234 C231 1.391 . S
N234 C235 1.388 . S
C235 H206 0.930 . S
C235 C230 1.391 . S
C235 N234 1.388 . S
Co236 O238 2.143 . S
Co236 O244 2.074 . S
Co236 O247 2.093 . S
Co236 O260 2.097 . S
Co236 N277 2.151 . S
Co236 N285 2.214 . S
Co237 O238 2.160 . S
Co237 O243 2.058 . S
Co237 O253 2.057 . S
Co237 O268 2.037 . S
Co237 N272 2.145 . S
Co237 N293 2.257 . S
O238 Co236 2.143 . S
O238 Co237 2.160 . S
C239 O240 1.278 . S
C239 O247 1.224 . S
O240 C239 1.278 . S
C241 O242 1.245 . S
C241 O253 1.232 . S
O242 C241 1.245 . S
O243 Co237 2.058 . S
O243 C269 1.269 . S
O244 Co236 2.074 . S
O244 C269 1.257 . S
H245 C270 0.930 . S
H246 C276 0.930 . S
O247 Co236 2.093 . S
O247 C239 1.224 . S
H248 C280 0.929 1_545 S
H249 C282 0.930 . S
H250 C283 0.930 . S
H251 C281 0.929 . S
H252 C284 0.928 . S
O253 Co237 2.057 . S
O253 C241 1.232 . S
H254 C273 0.929 . S
H255 C274 0.929 . S
H256 C286 0.931 . S
H257 C278 0.929 . S
H258 C287 0.930 . S
H259 C279 0.931 . S
O260 Co236 2.097 . S
O260 C288 1.214 . S
H261 C289 0.929 . S
H262 C290 0.929 . S
H263 C291 0.930 . S
H264 C292 0.929 . S
H265 C294 0.930 . S
H266 C271 0.930 . S
H267 C275 0.930 . S
O268 Co237 2.037 . S
O268 C288 1.234 . S
C269 O243 1.269 . S
C269 O244 1.257 . S
C270 H245 0.930 . S
C270 C273 1.388 . S
C270 C275 1.418 . S
C271 H266 0.930 . S
C271 C274 1.404 . S
C271 C275 1.353 . S
N272 Co237 2.145 . S
N272 C273 1.397 . S
N272 C274 1.334 . S
C273 H254 0.929 . S
C273 C270 1.388 . S
C273 N272 1.397 . S
C274 H255 0.929 . S
C274 C271 1.404 . S
C274 N272 1.334 . S
C275 H267 0.930 . S
C275 C270 1.418 . S
C275 C271 1.353 . S
C276 H246 0.930 . S
C276 N277 1.330 . S
C276 C278 1.446 1_565 S
N277 Co236 2.151 . S
N277 C276 1.330 . S
N277 C281 1.418 . S
C278 H257 0.929 . S
C278 C276 1.446 1_545 S
C278 C279 1.332 . S
C279 H259 0.931 . S
C279 C278 1.332 . S
C279 C280 1.267 1_545 S
C280 H248 0.929 1_565 S
C280 C279 1.267 1_565 S
C280 C281 1.251 . S
C281 H251 0.929 . S
C281 N277 1.418 . S
C281 C280 1.251 . S
C282 H249 0.930 . S
C282 C284 1.406 . S
C282 C287 1.261 . S
C283 H250 0.930 . S
C283 N285 1.325 . S
C283 C286 1.357 . S
C284 H252 0.928 . S
C284 C282 1.406 . S
C284 N285 1.261 . S
N285 Co236 2.214 . S
N285 C283 1.325 . S
N285 C284 1.261 . S
C286 H256 0.931 . S
C286 C283 1.357 . S
C286 C287 1.312 . S
C287 H258 0.930 . S
C287 C282 1.261 . S
C287 C286 1.312 . S
C288 O260 1.214 . S
C288 O268 1.234 . S
C289 H261 0.929 . S
C289 C292 1.391 . S
C289 C294 1.391 . S
C290 H262 0.929 . S
C290 C291 1.390 . S
C290 N293 1.391 . S
C291 H263 0.930 . S
C291 C290 1.390 . S
C291 C292 1.392 . S
C292 H264 0.929 . S
C292 C289 1.391 . S
C292 C291 1.392 . S
N293 Co237 2.257 . S
N293 C290 1.391 . S
N293 C294 1.388 . S
C294 H265 0.930 . S
C294 C289 1.391 . S
C294 N293 1.388 . S
Co295 O297 2.143 . S
Co295 O303 2.074 . S
Co295 O306 2.093 . S
Co295 O319 2.097 . S
Co295 N336 2.151 . S
Co295 N344 2.214 . S
Co296 O297 2.160 . S
Co296 O302 2.058 . S
Co296 O312 2.057 . S
Co296 O327 2.037 . S
Co296 N331 2.145 . S
Co296 N352 2.257 . S
O297 Co295 2.143 . S
O297 Co296 2.160 . S
C298 O299 1.278 . S
C298 O306 1.224 . S
O299 C298 1.278 . S
C300 O301 1.245 . S
C300 O312 1.232 . S
O301 C300 1.245 . S
O302 Co296 2.058 . S
O302 C328 1.269 . S
O303 Co295 2.074 . S
O303 C328 1.257 . S
H304 C329 0.930 . S
H305 C335 0.930 . S
O306 Co295 2.093 . S
O306 C298 1.224 . S
H307 C339 0.929 . S
H308 C341 0.930 . S
H309 C342 0.930 . S
H310 C340 0.929 . S
H311 C343 0.928 . S
O312 Co296 2.057 . S
O312 C300 1.232 . S
H313 C332 0.929 . S
H314 C333 0.929 . S
H315 C345 0.931 . S
H316 C337 0.929 . S
H317 C346 0.930 . S
H318 C338 0.931 . S
O319 Co295 2.097 . S
O319 C347 1.214 . S
H320 C348 0.929 . S
H321 C349 0.929 . S
H322 C350 0.930 . S
H323 C351 0.929 . S
H324 C353 0.930 . S
H325 C330 0.930 . S
H326 C334 0.930 . S
O327 Co296 2.037 . S
O327 C347 1.234 . S
C328 O302 1.269 . S
C328 O303 1.257 . S
C329 H304 0.930 . S
C329 C332 1.388 . S
C329 C334 1.418 . S
C330 H325 0.930 . S
C330 C333 1.404 . S
C330 C334 1.353 . S
N331 Co296 2.145 . S
N331 C332 1.397 . S
N331 C333 1.334 . S
C332 H313 0.929 . S
C332 C329 1.388 . S
C332 N331 1.397 . S
C333 H314 0.929 . S
C333 C330 1.404 . S
C333 N331 1.334 . S
C334 H326 0.930 . S
C334 C329 1.418 . S
C334 C330 1.353 . S
C335 H305 0.930 . S
C335 N336 1.330 . S
C335 C337 1.446 . S
N336 Co295 2.151 . S
N336 C335 1.330 . S
N336 C340 1.418 . S
C337 H316 0.929 . S
C337 C335 1.446 . S
C337 C338 1.332 . S
C338 H318 0.931 . S
C338 C337 1.332 . S
C338 C339 1.267 . S
C339 H307 0.929 . S
C339 C338 1.267 . S
C339 C340 1.251 . S
C340 H310 0.929 . S
C340 N336 1.418 . S
C340 C339 1.251 . S
C341 H308 0.930 . S
C341 C343 1.406 . S
C341 C346 1.261 . S
C342 H309 0.930 . S
C342 N344 1.325 . S
C342 C345 1.357 . S
C343 H311 0.928 . S
C343 C341 1.406 . S
C343 N344 1.261 . S
N344 Co295 2.214 . S
N344 C342 1.325 . S
N344 C343 1.261 . S
C345 H315 0.931 . S
C345 C342 1.357 . S
C345 C346 1.312 . S
C346 H317 0.930 . S
C346 C341 1.261 . S
C346 C345 1.312 . S
C347 O319 1.214 . S
C347 O327 1.234 . S
C348 H320 0.929 . S
C348 C351 1.391 . S
C348 C353 1.391 1_554 S
C349 H321 0.929 . S
C349 C350 1.390 1_556 S
C349 N352 1.391 . S
C350 H322 0.930 . S
C350 C349 1.390 1_554 S
C350 C351 1.392 . S
C351 H323 0.929 . S
C351 C348 1.391 . S
C351 C350 1.392 . S
N352 Co296 2.257 . S
N352 C349 1.391 . S
N352 C353 1.388 . S
C353 H324 0.930 . S
C353 C348 1.391 1_556 S
C353 N352 1.388 . S
Co354 O356 2.143 . S
Co354 O362 2.074 . S
Co354 O365 2.093 . S
Co354 O378 2.097 . S
Co354 N395 2.151 . S
Co354 N403 2.214 . S
Co355 O356 2.160 . S
Co355 O361 2.058 . S
Co355 O371 2.057 . S
Co355 O386 2.037 . S
Co355 N390 2.145 . S
Co355 N411 2.257 . S
O356 Co354 2.143 . S
O356 Co355 2.160 . S
C357 O358 1.278 . S
C357 O365 1.224 . S
O358 C357 1.278 . S
C359 O360 1.245 . S
C359 O371 1.232 . S
O360 C359 1.245 . S
O361 Co355 2.058 . S
O361 C387 1.269 . S
O362 Co354 2.074 . S
O362 C387 1.257 . S
H363 C388 0.930 . S
H364 C394 0.930 . S
O365 Co354 2.093 . S
O365 C357 1.224 . S
H366 C398 0.929 1_545 S
H367 C400 0.930 . S
H368 C401 0.930 . S
H369 C399 0.929 . S
H370 C402 0.928 . S
O371 Co355 2.057 . S
O371 C359 1.232 . S
H372 C391 0.929 . S
H373 C392 0.929 . S
H374 C404 0.931 . S
H375 C396 0.929 . S
H376 C405 0.930 . S
H377 C397 0.931 . S
O378 Co354 2.097 . S
O378 C406 1.214 . S
H379 C407 0.929 . S
H380 C408 0.929 . S
H381 C409 0.930 . S
H382 C410 0.929 . S
H383 C412 0.930 . S
H384 C389 0.930 . S
H385 C393 0.930 . S
O386 Co355 2.037 . S
O386 C406 1.234 . S
C387 O361 1.269 . S
C387 O362 1.257 . S
C388 H363 0.930 . S
C388 C391 1.388 . S
C388 C393 1.418 . S
C389 H384 0.930 . S
C389 C392 1.404 . S
C389 C393 1.353 . S
N390 Co355 2.145 . S
N390 C391 1.397 . S
N390 C392 1.334 . S
C391 H372 0.929 . S
C391 C388 1.388 . S
C391 N390 1.397 . S
C392 H373 0.929 . S
C392 C389 1.404 . S
C392 N390 1.334 . S
C393 H385 0.930 . S
C393 C388 1.418 . S
C393 C389 1.353 . S
C394 H364 0.930 . S
C394 N395 1.330 . S
C394 C396 1.446 1_565 S
N395 Co354 2.151 . S
N395 C394 1.330 . S
N395 C399 1.418 . S
C396 H375 0.929 . S
C396 C394 1.446 1_545 S
C396 C397 1.332 . S
C397 H377 0.931 . S
C397 C396 1.332 . S
C397 C398 1.267 1_545 S
C398 H366 0.929 1_565 S
C398 C397 1.267 1_565 S
C398 C399 1.251 . S
C399 H369 0.929 . S
C399 N395 1.418 . S
C399 C398 1.251 . S
C400 H367 0.930 . S
C400 C402 1.406 . S
C400 C405 1.261 . S
C401 H368 0.930 . S
C401 N403 1.325 . S
C401 C404 1.357 . S
C402 H370 0.928 . S
C402 C400 1.406 . S
C402 N403 1.261 . S
N403 Co354 2.214 . S
N403 C401 1.325 . S
N403 C402 1.261 . S
C404 H374 0.931 . S
C404 C401 1.357 . S
C404 C405 1.312 . S
C405 H376 0.930 . S
C405 C400 1.261 . S
C405 C404 1.312 . S
C406 O378 1.214 . S
C406 O386 1.234 . S
C407 H379 0.929 . S
C407 C410 1.391 . S
C407 C412 1.391 . S
C408 H380 0.929 . S
C408 C409 1.390 . S
C408 N411 1.391 . S
C409 H381 0.930 . S
C409 C408 1.390 . S
C409 C410 1.392 . S
C410 H382 0.929 . S
C410 C407 1.391 . S
C410 C409 1.392 . S
N411 Co355 2.257 . S
N411 C408 1.391 . S
N411 C412 1.388 . S
C412 H383 0.930 . S
C412 C407 1.391 . S
C412 N411 1.388 . S
Co413 O415 2.143 . S
Co413 O421 2.074 . S
Co413 O424 2.093 . S
Co413 O437 2.097 . S
Co413 N454 2.151 . S
Co413 N462 2.214 . S
Co414 O415 2.160 . S
Co414 O420 2.058 . S
Co414 O430 2.057 . S
Co414 O445 2.037 . S
Co414 N449 2.145 . S
Co414 N470 2.257 . S
O415 Co413 2.143 . S
O415 Co414 2.160 . S
C416 O417 1.278 . S
C416 O424 1.224 . S
O417 C416 1.278 . S
C418 O419 1.245 . S
C418 O430 1.232 . S
O419 C418 1.245 . S
O420 Co414 2.058 . S
O420 C446 1.269 . S
O421 Co413 2.074 . S
O421 C446 1.257 . S
H422 C447 0.930 . S
H423 C453 0.930 . S
O424 Co413 2.093 . S
O424 C416 1.224 . S
H425 C457 0.929 . S
H426 C459 0.930 . S
H427 C460 0.930 . S
H428 C458 0.929 . S
H429 C461 0.928 . S
O430 Co414 2.057 . S
O430 C418 1.232 . S
H431 C450 0.929 . S
H432 C451 0.929 . S
H433 C463 0.931 . S
H434 C455 0.929 . S
H435 C464 0.930 . S
H436 C456 0.931 . S
O437 Co413 2.097 . S
O437 C465 1.214 . S
H438 C466 0.929 . S
H439 C467 0.929 . S
H440 C468 0.930 . S
H441 C469 0.929 . S
H442 C471 0.930 . S
H443 C448 0.930 . S
H444 C452 0.930 . S
O445 Co414 2.037 . S
O445 C465 1.234 . S
C446 O420 1.269 . S
C446 O421 1.257 . S
C447 H422 0.930 . S
C447 C450 1.388 . S
C447 C452 1.418 . S
C448 H443 0.930 . S
C448 C451 1.404 . S
C448 C452 1.353 . S
N449 Co414 2.145 . S
N449 C450 1.397 . S
N449 C451 1.334 . S
C450 H431 0.929 . S
C450 C447 1.388 . S
C450 N449 1.397 . S
C451 H432 0.929 . S
C451 C448 1.404 . S
C451 N449 1.334 . S
C452 H444 0.930 . S
C452 C447 1.418 . S
C452 C448 1.353 . S
C453 H423 0.930 . S
C453 N454 1.330 . S
C453 C455 1.446 . S
N454 Co413 2.151 . S
N454 C453 1.330 . S
N454 C458 1.418 . S
C455 H434 0.929 . S
C455 C453 1.446 . S
C455 C456 1.332 . S
C456 H436 0.931 . S
C456 C455 1.332 . S
C456 C457 1.267 . S
C457 H425 0.929 . S
C457 C456 1.267 . S
C457 C458 1.251 . S
C458 H428 0.929 . S
C458 N454 1.418 . S
C458 C457 1.251 . S
C459 H426 0.930 . S
C459 C461 1.406 . S
C459 C464 1.261 . S
C460 H427 0.930 . S
C460 N462 1.325 . S
C460 C463 1.357 . S
C461 H429 0.928 . S
C461 C459 1.406 . S
C461 N462 1.261 . S
N462 Co413 2.214 . S
N462 C460 1.325 . S
N462 C461 1.261 . S
C463 H433 0.931 . S
C463 C460 1.357 . S
C463 C464 1.312 . S
C464 H435 0.930 . S
C464 C459 1.261 . S
C464 C463 1.312 . S
C465 O437 1.214 . S
C465 O445 1.234 . S
C466 H438 0.929 . S
C466 C469 1.391 . S
C466 C471 1.391 . S
C467 H439 0.929 . S
C467 C468 1.390 . S
C467 N470 1.391 . S
C468 H440 0.930 . S
C468 C467 1.390 . S
C468 C469 1.392 . S
C469 H441 0.929 . S
C469 C466 1.391 . S
C469 C468 1.392 . S
N470 Co414 2.257 . S
N470 C467 1.391 . S
N470 C471 1.388 . S
C471 H442 0.930 . S
C471 C466 1.391 . S
C471 N470 1.388 . S
Co472 O474 2.143 . S
Co472 O480 2.074 . S
Co472 O483 2.093 . S
Co472 O496 2.097 . S
Co472 N513 2.151 . S
Co472 N521 2.214 . S
Co473 O474 2.160 . S
Co473 O479 2.058 . S
Co473 O489 2.057 . S
Co473 O504 2.037 . S
Co473 N508 2.145 . S
Co473 N529 2.257 . S
O474 Co472 2.143 . S
O474 Co473 2.160 . S
C475 O476 1.278 . S
C475 O483 1.224 . S
O476 C475 1.278 . S
C477 O478 1.245 . S
C477 O489 1.232 . S
O478 C477 1.245 . S
O479 Co473 2.058 . S
O479 C505 1.269 . S
O480 Co472 2.074 . S
O480 C505 1.257 . S
H481 C506 0.930 . S
H482 C512 0.930 . S
O483 Co472 2.093 . S
O483 C475 1.224 . S
H484 C516 0.929 1_655 S
H485 C518 0.930 . S
H486 C519 0.930 . S
H487 C517 0.929 . S
H488 C520 0.928 . S
O489 Co473 2.057 . S
O489 C477 1.232 . S
H490 C509 0.929 . S
H491 C510 0.929 . S
H492 C522 0.931 . S
H493 C514 0.929 . S
H494 C523 0.930 . S
H495 C515 0.931 . S
O496 Co472 2.097 . S
O496 C524 1.214 . S
H497 C525 0.929 . S
H498 C526 0.929 . S
H499 C527 0.930 . S
H500 C528 0.929 . S
H501 C530 0.930 . S
H502 C507 0.930 . S
H503 C511 0.930 . S
O504 Co473 2.037 . S
O504 C524 1.234 . S
C505 O479 1.269 . S
C505 O480 1.257 . S
C506 H481 0.930 . S
C506 C509 1.388 . S
C506 C511 1.418 . S
C507 H502 0.930 . S
C507 C510 1.404 . S
C507 C511 1.353 . S
N508 Co473 2.145 . S
N508 C509 1.397 . S
N508 C510 1.334 . S
C509 H490 0.929 . S
C509 C506 1.388 . S
C509 N508 1.397 . S
C510 H491 0.929 . S
C510 C507 1.404 . S
C510 N508 1.334 . S
C511 H503 0.930 . S
C511 C506 1.418 . S
C511 C507 1.353 . S
C512 H482 0.930 . S
C512 N513 1.330 . S
C512 C514 1.446 1_455 S
N513 Co472 2.151 . S
N513 C512 1.330 . S
N513 C517 1.418 . S
C514 H493 0.929 . S
C514 C512 1.446 1_655 S
C514 C515 1.332 . S
C515 H495 0.931 . S
C515 C514 1.332 . S
C515 C516 1.267 1_655 S
C516 H484 0.929 1_455 S
C516 C515 1.267 1_455 S
C516 C517 1.251 . S
C517 H487 0.929 . S
C517 N513 1.418 . S
C517 C516 1.251 . S
C518 H485 0.930 . S
C518 C520 1.406 . S
C518 C523 1.261 . S
C519 H486 0.930 . S
C519 N521 1.325 . S
C519 C522 1.357 . S
C520 H488 0.928 . S
C520 C518 1.406 . S
C520 N521 1.261 . S
N521 Co472 2.214 . S
N521 C519 1.325 . S
N521 C520 1.261 . S
C522 H492 0.931 . S
C522 C519 1.357 . S
C522 C523 1.312 . S
C523 H494 0.930 . S
C523 C518 1.261 . S
C523 C522 1.312 . S
C524 O496 1.214 . S
C524 O504 1.234 . S
C525 H497 0.929 . S
C525 C528 1.391 . S
C525 C530 1.391 1_556 S
C526 H498 0.929 . S
C526 C527 1.390 1_554 S
C526 N529 1.391 . S
C527 H499 0.930 . S
C527 C526 1.390 1_556 S
C527 C528 1.392 . S
C528 H500 0.929 . S
C528 C525 1.391 . S
C528 C527 1.392 . S
N529 Co473 2.257 . S
N529 C526 1.391 . S
N529 C530 1.388 . S
C530 H501 0.930 . S
C530 C525 1.391 1_554 S
C530 N529 1.388 . S
Co531 O533 2.143 . S
Co531 O539 2.074 . S
Co531 O542 2.093 . S
Co531 O555 2.097 . S
Co531 N572 2.151 . S
Co531 N580 2.214 . S
Co532 O533 2.160 . S
Co532 O538 2.058 . S
Co532 O548 2.057 . S
Co532 O563 2.037 . S
Co532 N567 2.145 . S
Co532 N588 2.257 . S
O533 Co531 2.143 . S
O533 Co532 2.160 . S
C534 O535 1.278 . S
C534 O542 1.224 . S
O535 C534 1.278 . S
C536 O537 1.245 . S
C536 O548 1.232 . S
O537 C536 1.245 . S
O538 Co532 2.058 . S
O538 C564 1.269 . S
O539 Co531 2.074 . S
O539 C564 1.257 . S
H540 C565 0.930 . S
H541 C571 0.930 . S
O542 Co531 2.093 . S
O542 C534 1.224 . S
H543 C575 0.929 1_565 S
H544 C577 0.930 . S
H545 C578 0.930 . S
H546 C576 0.929 . S
H547 C579 0.928 . S
O548 Co532 2.057 . S
O548 C536 1.232 . S
H549 C568 0.929 . S
H550 C569 0.929 . S
H551 C581 0.931 . S
H552 C573 0.929 . S
H553 C582 0.930 . S
H554 C574 0.931 . S
O555 Co531 2.097 . S
O555 C583 1.214 . S
H556 C584 0.929 . S
H557 C585 0.929 . S
H558 C586 0.930 . S
H559 C587 0.929 . S
H560 C589 0.930 . S
H561 C566 0.930 . S
H562 C570 0.930 . S
O563 Co532 2.037 . S
O563 C583 1.234 . S
C564 O538 1.269 . S
C564 O539 1.257 . S
C565 H540 0.930 . S
C565 C568 1.388 . S
C565 C570 1.418 . S
C566 H561 0.930 . S
C566 C569 1.404 . S
C566 C570 1.353 . S
N567 Co532 2.145 . S
N567 C568 1.397 . S
N567 C569 1.334 . S
C568 H549 0.929 . S
C568 C565 1.388 . S
C568 N567 1.397 . S
C569 H550 0.929 . S
C569 C566 1.404 . S
C569 N567 1.334 . S
C570 H562 0.930 . S
C570 C565 1.418 . S
C570 C566 1.353 . S
C571 H541 0.930 . S
C571 N572 1.330 . S
C571 C573 1.446 1_545 S
N572 Co531 2.151 . S
N572 C571 1.330 . S
N572 C576 1.418 . S
C573 H552 0.929 . S
C573 C571 1.446 1_565 S
C573 C574 1.332 . S
C574 H554 0.931 . S
C574 C573 1.332 . S
C574 C575 1.267 1_565 S
C575 H543 0.929 1_545 S
C575 C574 1.267 1_545 S
C575 C576 1.251 . S
C576 H546 0.929 . S
C576 N572 1.418 . S
C576 C575 1.251 . S
C577 H544 0.930 . S
C577 C579 1.406 . S
C577 C582 1.261 . S
C578 H545 0.930 . S
C578 N580 1.325 . S
C578 C581 1.357 . S
C579 H547 0.928 . S
C579 C577 1.406 . S
C579 N580 1.261 . S
N580 Co531 2.214 . S
N580 C578 1.325 . S
N580 C579 1.261 . S
C581 H551 0.931 . S
C581 C578 1.357 . S
C581 C582 1.312 . S
C582 H553 0.930 . S
C582 C577 1.261 . S
C582 C581 1.312 . S
C583 O555 1.214 . S
C583 O563 1.234 . S
C584 H556 0.929 . S
C584 C587 1.391 . S
C584 C589 1.391 . S
C585 H557 0.929 . S
C585 C586 1.390 . S
C585 N588 1.391 . S
C586 H558 0.930 . S
C586 C585 1.390 . S
C586 C587 1.392 . S
C587 H559 0.929 . S
C587 C584 1.391 . S
C587 C586 1.392 . S
N588 Co532 2.257 . S
N588 C585 1.391 . S
N588 C589 1.388 . S
C589 H560 0.930 . S
C589 C584 1.391 . S
C589 N588 1.388 . S
Co590 O592 2.143 . S
Co590 O598 2.074 . S
Co590 O601 2.093 . S
Co590 O614 2.097 . S
Co590 N631 2.151 . S
Co590 N639 2.214 . S
Co591 O592 2.160 . S
Co591 O597 2.058 . S
Co591 O607 2.057 . S
Co591 O622 2.037 . S
Co591 N626 2.145 . S
Co591 N647 2.257 . S
O592 Co590 2.143 . S
O592 Co591 2.160 . S
C593 O594 1.278 . S
C593 O601 1.224 . S
O594 C593 1.278 . S
C595 O596 1.245 . S
C595 O607 1.232 . S
O596 C595 1.245 . S
O597 Co591 2.058 . S
O597 C623 1.269 . S
O598 Co590 2.074 . S
O598 C623 1.257 . S
H599 C624 0.930 . S
H600 C630 0.930 . S
O601 Co590 2.093 . S
O601 C593 1.224 . S
H602 C634 0.929 . S
H603 C636 0.930 . S
H604 C637 0.930 . S
H605 C635 0.929 . S
H606 C638 0.928 . S
O607 Co591 2.057 . S
O607 C595 1.232 . S
H608 C627 0.929 . S
H609 C628 0.929 . S
H610 C640 0.931 . S
H611 C632 0.929 . S
H612 C641 0.930 . S
H613 C633 0.931 . S
O614 Co590 2.097 . S
O614 C642 1.214 . S
H615 C643 0.929 . S
H616 C644 0.929 . S
H617 C645 0.930 . S
H618 C646 0.929 . S
H619 C648 0.930 . S
H620 C625 0.930 . S
H621 C629 0.930 . S
O622 Co591 2.037 . S
O622 C642 1.234 . S
C623 O597 1.269 . S
C623 O598 1.257 . S
C624 H599 0.930 . S
C624 C627 1.388 . S
C624 C629 1.418 . S
C625 H620 0.930 . S
C625 C628 1.404 . S
C625 C629 1.353 . S
N626 Co591 2.145 . S
N626 C627 1.397 . S
N626 C628 1.334 . S
C627 H608 0.929 . S
C627 C624 1.388 . S
C627 N626 1.397 . S
C628 H609 0.929 . S
C628 C625 1.404 . S
C628 N626 1.334 . S
C629 H621 0.930 . S
C629 C624 1.418 . S
C629 C625 1.353 . S
C630 H600 0.930 . S
C630 N631 1.330 . S
C630 C632 1.446 . S
N631 Co590 2.151 . S
N631 C630 1.330 . S
N631 C635 1.418 . S
C632 H611 0.929 . S
C632 C630 1.446 . S
C632 C633 1.332 . S
C633 H613 0.931 . S
C633 C632 1.332 . S
C633 C634 1.267 . S
C634 H602 0.929 . S
C634 C633 1.267 . S
C634 C635 1.251 . S
C635 H605 0.929 . S
C635 N631 1.418 . S
C635 C634 1.251 . S
C636 H603 0.930 . S
C636 C638 1.406 . S
C636 C641 1.261 . S
C637 H604 0.930 . S
C637 N639 1.325 . S
C637 C640 1.357 . S
C638 H606 0.928 . S
C638 C636 1.406 . S
C638 N639 1.261 . S
N639 Co590 2.214 . S
N639 C637 1.325 . S
N639 C638 1.261 . S
C640 H610 0.931 . S
C640 C637 1.357 . S
C640 C641 1.312 . S
C641 H612 0.930 . S
C641 C636 1.261 . S
C641 C640 1.312 . S
C642 O614 1.214 . S
C642 O622 1.234 . S
C643 H615 0.929 . S
C643 C646 1.391 . S
C643 C648 1.391 . S
C644 H616 0.929 . S
C644 C645 1.390 . S
C644 N647 1.391 . S
C645 H617 0.930 . S
C645 C644 1.390 . S
C645 C646 1.392 . S
C646 H618 0.929 . S
C646 C643 1.391 . S
C646 C645 1.392 . S
N647 Co591 2.257 . S
N647 C644 1.391 . S
N647 C648 1.388 . S
C648 H619 0.930 . S
C648 C643 1.391 . S
C648 N647 1.388 . S
Co649 O651 2.143 . S
Co649 O657 2.074 . S
Co649 O660 2.093 . S
Co649 O673 2.097 . S
Co649 N690 2.151 . S
Co649 N698 2.214 . S
Co650 O651 2.160 . S
Co650 O656 2.058 . S
Co650 O666 2.057 . S
Co650 O681 2.037 . S
Co650 N685 2.145 . S
Co650 N706 2.257 . S
O651 Co649 2.143 . S
O651 Co650 2.160 . S
C652 O653 1.278 . S
C652 O660 1.224 . S
O653 C652 1.278 . S
C654 O655 1.245 . S
C654 O666 1.232 . S
O655 C654 1.245 . S
O656 Co650 2.058 . S
O656 C682 1.269 . S
O657 Co649 2.074 . S
O657 C682 1.257 . S
H658 C683 0.930 . S
H659 C689 0.930 . S
O660 Co649 2.093 . S
O660 C652 1.224 . S
H661 C693 0.929 1_455 S
H662 C695 0.930 . S
H663 C696 0.930 . S
H664 C694 0.929 . S
H665 C697 0.928 . S
O666 Co650 2.057 . S
O666 C654 1.232 . S
H667 C686 0.929 . S
H668 C687 0.929 . S
H669 C699 0.931 . S
H670 C691 0.929 . S
H671 C700 0.930 . S
H672 C692 0.931 . S
O673 Co649 2.097 . S
O673 C701 1.214 . S
H674 C702 0.929 . S
H675 C703 0.929 . S
H676 C704 0.930 . S
H677 C705 0.929 . S
H678 C707 0.930 . S
H679 C684 0.930 . S
H680 C688 0.930 . S
O681 Co650 2.037 . S
O681 C701 1.234 . S
C682 O656 1.269 . S
C682 O657 1.257 . S
C683 H658 0.930 . S
C683 C686 1.388 . S
C683 C688 1.418 . S
C684 H679 0.930 . S
C684 C687 1.404 . S
C684 C688 1.353 . S
N685 Co650 2.145 . S
N685 C686 1.397 . S
N685 C687 1.334 . S
C686 H667 0.929 . S
C686 C683 1.388 . S
C686 N685 1.397 . S
C687 H668 0.929 . S
C687 C684 1.404 . S
C687 N685 1.334 . S
C688 H680 0.930 . S
C688 C683 1.418 . S
C688 C684 1.353 . S
C689 H659 0.930 . S
C689 N690 1.330 . S
C689 C691 1.446 1_655 S
N690 Co649 2.151 . S
N690 C689 1.330 . S
N690 C694 1.418 . S
C691 H670 0.929 . S
C691 C689 1.446 1_455 S
C691 C692 1.332 . S
C692 H672 0.931 . S
C692 C691 1.332 . S
C692 C693 1.267 1_455 S
C693 H661 0.929 1_655 S
C693 C692 1.267 1_655 S
C693 C694 1.251 . S
C694 H664 0.929 . S
C694 N690 1.418 . S
C694 C693 1.251 . S
C695 H662 0.930 . S
C695 C697 1.406 . S
C695 C700 1.261 . S
C696 H663 0.930 . S
C696 N698 1.325 . S
C696 C699 1.357 . S
C697 H665 0.928 . S
C697 C695 1.406 . S
C697 N698 1.261 . S
N698 Co649 2.214 . S
N698 C696 1.325 . S
N698 C697 1.261 . S
C699 H669 0.931 . S
C699 C696 1.357 . S
C699 C700 1.312 . S
C700 H671 0.930 . S
C700 C695 1.261 . S
C700 C699 1.312 . S
C701 O673 1.214 . S
C701 O681 1.234 . S
C702 H674 0.929 . S
C702 C705 1.391 . S
C702 C707 1.391 . S
C703 H675 0.929 . S
C703 C704 1.390 . S
C703 N706 1.391 . S
C704 H676 0.930 . S
C704 C703 1.390 . S
C704 C705 1.392 . S
C705 H677 0.929 . S
C705 C702 1.391 . S
C705 C704 1.392 . S
N706 Co650 2.257 . S
N706 C703 1.391 . S
N706 C707 1.388 . S
C707 H678 0.930 . S
C707 C702 1.391 . S
C707 N706 1.388 . S
H708 C720 0.930 . S
H709 C722 0.930 . S
H710 C723 0.930 . S
H711 C727 0.959 . S
H712 C727 0.959 . S
H713 C727 0.961 . S
H714 C728 0.960 . S
H715 C728 0.961 . S
H716 C728 0.959 . S
H717 C731 0.929 . S
H718 C732 0.931 . S
H719 C734 0.930 . S
C720 H708 0.930 . S
C720 C721 1.399 . S
C720 C725 1.399 . S
C721 C720 1.399 . S
C721 C722 1.376 . S
C722 H709 0.930 . S
C722 C721 1.376 . S
C722 C723 1.388 . S
C723 H710 0.930 . S
C723 C722 1.388 . S
C723 C724 1.390 . S
C724 C723 1.390 . S
C724 C725 1.394 . S
C724 C730 1.465 . S
C725 C720 1.399 . S
C725 C724 1.394 . S
C725 C726 1.516 . S
C726 C725 1.516 . S
C726 C727 1.502 . S
C726 C728 1.561 . S
C726 C729 1.526 . S
C727 H711 0.959 . S
C727 H712 0.959 . S
C727 H713 0.961 . S
C727 C726 1.502 . S
C728 H714 0.960 . S
C728 H715 0.961 . S
C728 H716 0.959 . S
C728 C726 1.561 . S
C729 C726 1.526 . S
C729 C730 1.396 . S
C729 C734 1.390 . S
C730 C724 1.465 . S
C730 C729 1.396 . S
C730 C731 1.399 . S
C731 H717 0.929 . S
C731 C730 1.399 . S
C731 C732 1.385 . S
C732 H718 0.931 . S
C732 C731 1.385 . S
C732 C733 1.389 . S
C733 C732 1.389 . S
C733 C734 1.387 . S
C734 H719 0.930 . S
C734 C729 1.390 . S
C734 C733 1.387 . S
H735 C747 0.930 . S
H736 C749 0.930 . S
H737 C750 0.930 . S
H738 C754 0.959 . S
H739 C754 0.959 . S
H740 C754 0.961 . S
H741 C755 0.960 . S
H742 C755 0.961 . S
H743 C755 0.959 . S
H744 C758 0.929 . S
H745 C759 0.931 . S
H746 C761 0.930 . S
C747 H735 0.930 . S
C747 C748 1.399 . S
C747 C752 1.399 . S
C748 C747 1.399 . S
C748 C749 1.376 . S
C749 H736 0.930 . S
C749 C748 1.376 . S
C749 C750 1.388 . S
C750 H737 0.930 . S
C750 C749 1.388 . S
C750 C751 1.390 . S
C751 C750 1.390 . S
C751 C752 1.394 . S
C751 C757 1.465 . S
C752 C747 1.399 . S
C752 C751 1.394 . S
C752 C753 1.516 . S
C753 C752 1.516 . S
C753 C754 1.502 . S
C753 C755 1.561 . S
C753 C756 1.526 . S
C754 H738 0.959 . S
C754 H739 0.959 . S
C754 H740 0.961 . S
C754 C753 1.502 . S
C755 H741 0.960 . S
C755 H742 0.961 . S
C755 H743 0.959 . S
C755 C753 1.561 . S
C756 C753 1.526 . S
C756 C757 1.396 . S
C756 C761 1.390 . S
C757 C751 1.465 . S
C757 C756 1.396 . S
C757 C758 1.399 . S
C758 H744 0.929 . S
C758 C757 1.399 . S
C758 C759 1.385 . S
C759 H745 0.931 . S
C759 C758 1.385 . S
C759 C760 1.389 . S
C760 C759 1.389 . S
C760 C761 1.387 . S
C761 H746 0.930 . S
C761 C756 1.390 . S
C761 C760 1.387 . S
H762 C774 0.930 . S
H763 C776 0.930 . S
H764 C777 0.930 . S
H765 C781 0.959 . S
H766 C781 0.959 . S
H767 C781 0.961 . S
H768 C782 0.960 . S
H769 C782 0.961 . S
H770 C782 0.959 . S
H771 C785 0.929 . S
H772 C786 0.931 . S
H773 C788 0.930 . S
C774 H762 0.930 . S
C774 C775 1.399 . S
C774 C779 1.399 . S
C775 C774 1.399 . S
C775 C776 1.376 . S
C776 H763 0.930 . S
C776 C775 1.376 . S
C776 C777 1.388 . S
C777 H764 0.930 . S
C777 C776 1.388 . S
C777 C778 1.390 . S
C778 C777 1.390 . S
C778 C779 1.394 . S
C778 C784 1.465 . S
C779 C774 1.399 . S
C779 C778 1.394 . S
C779 C780 1.516 . S
C780 C779 1.516 . S
C780 C781 1.502 . S
C780 C782 1.561 . S
C780 C783 1.526 . S
C781 H765 0.959 . S
C781 H766 0.959 . S
C781 H767 0.961 . S
C781 C780 1.502 . S
C782 H768 0.960 . S
C782 H769 0.961 . S
C782 H770 0.959 . S
C782 C780 1.561 . S
C783 C780 1.526 . S
C783 C784 1.396 . S
C783 C788 1.390 . S
C784 C778 1.465 . S
C784 C783 1.396 . S
C784 C785 1.399 . S
C785 H771 0.929 . S
C785 C784 1.399 . S
C785 C786 1.385 . S
C786 H772 0.931 . S
C786 C785 1.385 . S
C786 C787 1.389 . S
C787 C786 1.389 . S
C787 C788 1.387 . S
C788 H773 0.930 . S
C788 C783 1.390 . S
C788 C787 1.387 . S
H789 C801 0.930 . S
H790 C803 0.930 . S
H791 C804 0.930 . S
H792 C808 0.959 . S
H793 C808 0.959 . S
H794 C808 0.961 . S
H795 C809 0.960 . S
H796 C809 0.961 . S
H797 C809 0.959 . S
H798 C812 0.929 . S
H799 C813 0.931 . S
H800 C815 0.930 . S
C801 H789 0.930 . S
C801 C802 1.399 . S
C801 C806 1.399 . S
C802 C801 1.399 . S
C802 C803 1.376 . S
C803 H790 0.930 . S
C803 C802 1.376 . S
C803 C804 1.388 . S
C804 H791 0.930 . S
C804 C803 1.388 . S
C804 C805 1.390 . S
C805 C804 1.390 . S
C805 C806 1.394 . S
C805 C811 1.465 . S
C806 C801 1.399 . S
C806 C805 1.394 . S
C806 C807 1.516 . S
C807 C806 1.516 . S
C807 C808 1.502 . S
C807 C809 1.561 . S
C807 C810 1.526 . S
C808 H792 0.959 . S
C808 H793 0.959 . S
C808 H794 0.961 . S
C808 C807 1.502 . S
C809 H795 0.960 . S
C809 H796 0.961 . S
C809 H797 0.959 . S
C809 C807 1.561 . S
C810 C807 1.526 . S
C810 C811 1.396 . S
C810 C815 1.390 . S
C811 C805 1.465 . S
C811 C810 1.396 . S
C811 C812 1.399 . S
C812 H798 0.929 . S
C812 C811 1.399 . S
C812 C813 1.385 . S
C813 H799 0.931 . S
C813 C812 1.385 . S
C813 C814 1.389 . S
C814 C813 1.389 . S
C814 C815 1.387 . S
C815 H800 0.930 . S
C815 C810 1.390 . S
C815 C814 1.387 . S
H816 C828 0.930 . S
H817 C830 0.930 . S
H818 C831 0.930 . S
H819 C835 0.959 . S
H820 C835 0.959 . S
H821 C835 0.961 . S
H822 C836 0.960 . S
H823 C836 0.961 . S
H824 C836 0.959 . S
H825 C839 0.929 . S
H826 C840 0.931 . S
H827 C842 0.930 . S
C828 H816 0.930 . S
C828 C829 1.399 . S
C828 C833 1.399 . S
C829 C828 1.399 . S
C829 C830 1.376 . S
C830 H817 0.930 . S
C830 C829 1.376 . S
C830 C831 1.388 . S
C831 H818 0.930 . S
C831 C830 1.388 . S
C831 C832 1.390 . S
C832 C831 1.390 . S
C832 C833 1.394 . S
C832 C838 1.465 . S
C833 C828 1.399 . S
C833 C832 1.394 . S
C833 C834 1.516 . S
C834 C833 1.516 . S
C834 C835 1.502 . S
C834 C836 1.561 . S
C834 C837 1.526 . S
C835 H819 0.959 . S
C835 H820 0.959 . S
C835 H821 0.961 . S
C835 C834 1.502 . S
C836 H822 0.960 . S
C836 H823 0.961 . S
C836 H824 0.959 . S
C836 C834 1.561 . S
C837 C834 1.526 . S
C837 C838 1.396 . S
C837 C842 1.390 . S
C838 C832 1.465 . S
C838 C837 1.396 . S
C838 C839 1.399 . S
C839 H825 0.929 . S
C839 C838 1.399 . S
C839 C840 1.385 . S
C840 H826 0.931 . S
C840 C839 1.385 . S
C840 C841 1.389 . S
C841 C840 1.389 . S
C841 C842 1.387 . S
C842 H827 0.930 . S
C842 C837 1.390 . S
C842 C841 1.387 . S
H843 C855 0.930 . S
H844 C857 0.930 . S
H845 C858 0.930 . S
H846 C862 0.959 . S
H847 C862 0.959 . S
H848 C862 0.961 . S
H849 C863 0.960 . S
H850 C863 0.961 . S
H851 C863 0.959 . S
H852 C866 0.929 . S
H853 C867 0.931 . S
H854 C869 0.930 . S
C855 H843 0.930 . S
C855 C856 1.399 . S
C855 C860 1.399 . S
C856 C855 1.399 . S
C856 C857 1.376 . S
C857 H844 0.930 . S
C857 C856 1.376 . S
C857 C858 1.388 . S
C858 H845 0.930 . S
C858 C857 1.388 . S
C858 C859 1.390 . S
C859 C858 1.390 . S
C859 C860 1.394 . S
C859 C865 1.465 . S
C860 C855 1.399 . S
C860 C859 1.394 . S
C860 C861 1.516 . S
C861 C860 1.516 . S
C861 C862 1.502 . S
C861 C863 1.561 . S
C861 C864 1.526 . S
C862 H846 0.959 . S
C862 H847 0.959 . S
C862 H848 0.961 . S
C862 C861 1.502 . S
C863 H849 0.960 . S
C863 H850 0.961 . S
C863 H851 0.959 . S
C863 C861 1.561 . S
C864 C861 1.526 . S
C864 C865 1.396 . S
C864 C869 1.390 . S
C865 C859 1.465 . S
C865 C864 1.396 . S
C865 C866 1.399 . S
C866 H852 0.929 . S
C866 C865 1.399 . S
C866 C867 1.385 . S
C867 H853 0.931 . S
C867 C866 1.385 . S
C867 C868 1.389 . S
C868 C867 1.389 . S
C868 C869 1.387 . S
C869 H854 0.930 . S
C869 C864 1.390 . S
C869 C868 1.387 . S
H870 C882 0.930 . S
H871 C884 0.930 . S
H872 C885 0.930 . S
H873 C889 0.959 . S
H874 C889 0.959 . S
H875 C889 0.961 . S
H876 C890 0.960 . S
H877 C890 0.961 . S
H878 C890 0.959 . S
H879 C893 0.929 . S
H880 C894 0.931 . S
H881 C896 0.930 . S
C882 H870 0.930 . S
C882 C883 1.399 . S
C882 C887 1.399 . S
C883 C882 1.399 . S
C883 C884 1.376 . S
C884 H871 0.930 . S
C884 C883 1.376 . S
C884 C885 1.388 . S
C885 H872 0.930 . S
C885 C884 1.388 . S
C885 C886 1.390 . S
C886 C885 1.390 . S
C886 C887 1.394 . S
C886 C892 1.465 . S
C887 C882 1.399 . S
C887 C886 1.394 . S
C887 C888 1.516 . S
C888 C887 1.516 . S
C888 C889 1.502 . S
C888 C890 1.561 . S
C888 C891 1.526 . S
C889 H873 0.959 . S
C889 H874 0.959 . S
C889 H875 0.961 . S
C889 C888 1.502 . S
C890 H876 0.960 . S
C890 H877 0.961 . S
C890 H878 0.959 . S
C890 C888 1.561 . S
C891 C888 1.526 . S
C891 C892 1.396 . S
C891 C896 1.390 . S
C892 C886 1.465 . S
C892 C891 1.396 . S
C892 C893 1.399 . S
C893 H879 0.929 . S
C893 C892 1.399 . S
C893 C894 1.385 . S
C894 H880 0.931 . S
C894 C893 1.385 . S
C894 C895 1.389 . S
C895 C894 1.389 . S
C895 C896 1.387 . S
C896 H881 0.930 . S
C896 C891 1.390 . S
C896 C895 1.387 . S
H897 C909 0.930 . S
H898 C911 0.930 . S
H899 C912 0.930 . S
H900 C916 0.959 . S
H901 C916 0.959 . S
H902 C916 0.961 . S
H903 C917 0.960 . S
H904 C917 0.961 1_455 S
H905 C917 0.959 1_455 S
H906 C920 0.929 . S
H907 C921 0.931 . S
H908 C923 0.930 . S
C909 H897 0.930 . S
C909 C910 1.399 . S
C909 C914 1.399 . S
C910 C909 1.399 . S
C910 C911 1.376 . S
C911 H898 0.930 . S
C911 C910 1.376 . S
C911 C912 1.388 . S
C912 H899 0.930 . S
C912 C911 1.388 . S
C912 C913 1.390 . S
C913 C912 1.390 . S
C913 C914 1.394 . S
C913 C919 1.465 1_655 S
C914 C909 1.399 . S
C914 C913 1.394 . S
C914 C915 1.516 . S
C915 C914 1.516 . S
C915 C916 1.502 . S
C915 C917 1.561 . S
C915 C918 1.526 1_655 S
C916 H900 0.959 . S
C916 H901 0.959 . S
C916 H902 0.961 . S
C916 C915 1.502 . S
C917 H903 0.960 . S
C917 H904 0.961 1_655 S
C917 H905 0.959 1_655 S
C917 C915 1.561 . S
C918 C915 1.526 1_455 S
C918 C919 1.396 . S
C918 C923 1.390 . S
C919 C913 1.465 1_455 S
C919 C918 1.396 . S
C919 C920 1.399 . S
C920 H906 0.929 . S
C920 C919 1.399 . S
C920 C921 1.385 . S
C921 H907 0.931 . S
C921 C920 1.385 . S
C921 C922 1.389 . S
C922 C921 1.389 . S
C922 C923 1.387 . S
C923 H908 0.930 . S
C923 C918 1.390 . S
C923 C922 1.387 . S
H924 C936 0.930 . S
H925 C938 0.930 . S
H926 C939 0.930 . S
H927 C943 0.959 . S
H928 C943 0.959 . S
H929 C943 0.961 . S
H930 C944 0.960 . S
H931 C944 0.961 . S
H932 C944 0.959 . S
H933 C947 0.929 . S
H934 C948 0.931 . S
H935 C950 0.930 . S
C936 H924 0.930 . S
C936 C937 1.399 . S
C936 C941 1.399 . S
C937 C936 1.399 . S
C937 C938 1.376 . S
C938 H925 0.930 . S
C938 C937 1.376 . S
C938 C939 1.388 . S
C939 H926 0.930 . S
C939 C938 1.388 . S
C939 C940 1.390 . S
C940 C939 1.390 . S
C940 C941 1.394 . S
C940 C946 1.465 1_545 S
C941 C936 1.399 . S
C941 C940 1.394 . S
C941 C942 1.516 1_545 S
C942 C941 1.516 1_565 S
C942 C943 1.502 . S
C942 C944 1.561 . S
C942 C945 1.526 . S
C943 H927 0.959 . S
C943 H928 0.959 . S
C943 H929 0.961 . S
C943 C942 1.502 . S
C944 H930 0.960 . S
C944 H931 0.961 . S
C944 H932 0.959 . S
C944 C942 1.561 . S
C945 C942 1.526 . S
C945 C946 1.396 . S
C945 C950 1.390 . S
C946 C940 1.465 1_565 S
C946 C945 1.396 . S
C946 C947 1.399 . S
C947 H933 0.929 . S
C947 C946 1.399 . S
C947 C948 1.385 . S
C948 H934 0.931 . S
C948 C947 1.385 . S
C948 C949 1.389 . S
C949 C948 1.389 . S
C949 C950 1.387 . S
C950 H935 0.930 . S
C950 C945 1.390 . S
C950 C949 1.387 . S
H951 C963 0.930 . S
H952 C965 0.930 . S
H953 C966 0.930 . S
H954 C970 0.959 . S
H955 C970 0.959 . S
H956 C970 0.961 . S
H957 C971 0.960 . S
H958 C971 0.961 . S
H959 C971 0.959 . S
H960 C974 0.929 . S
H961 C975 0.931 . S
H962 C977 0.930 . S
C963 H951 0.930 . S
C963 C964 1.399 . S
C963 C968 1.399 . S
C964 C963 1.399 . S
C964 C965 1.376 . S
C965 H952 0.930 . S
C965 C964 1.376 . S
C965 C966 1.388 . S
C966 H953 0.930 . S
C966 C965 1.388 . S
C966 C967 1.390 . S
C967 C966 1.390 . S
C967 C968 1.394 . S
C967 C973 1.465 . S
C968 C963 1.399 . S
C968 C967 1.394 . S
C968 C969 1.516 . S
C969 C968 1.516 . S
C969 C970 1.502 . S
C969 C971 1.561 . S
C969 C972 1.526 . S
C970 H954 0.959 . S
C970 H955 0.959 . S
C970 H956 0.961 . S
C970 C969 1.502 . S
C971 H957 0.960 . S
C971 H958 0.961 . S
C971 H959 0.959 . S
C971 C969 1.561 . S
C972 C969 1.526 . S
C972 C973 1.396 . S
C972 C977 1.390 . S
C973 C967 1.465 . S
C973 C972 1.396 . S
C973 C974 1.399 . S
C974 H960 0.929 . S
C974 C973 1.399 . S
C974 C975 1.385 . S
C975 H961 0.931 . S
C975 C974 1.385 . S
C975 C976 1.389 . S
C976 C975 1.389 . S
C976 C977 1.387 . S
C977 H962 0.930 . S
C977 C972 1.390 . S
C977 C976 1.387 . S
H978 C990 0.930 . S
H979 C992 0.930 . S
H980 C993 0.930 . S
H981 C997 0.959 . S
H982 C997 0.959 . S
H983 C997 0.961 . S
H984 C998 0.960 . S
H985 C998 0.961 . S
H986 C998 0.959 . S
H987 C1001 0.929 . S
H988 C1002 0.931 . S
H989 C1004 0.930 . S
C990 H978 0.930 . S
C990 C991 1.399 . S
C990 C995 1.399 . S
C991 C990 1.399 . S
C991 C992 1.376 . S
C992 H979 0.930 . S
C992 C991 1.376 . S
C992 C993 1.388 . S
C993 H980 0.930 . S
C993 C992 1.388 . S
C993 C994 1.390 . S
C994 C993 1.390 . S
C994 C995 1.394 . S
C994 C1000 1.465 1_655 S
C995 C990 1.399 . S
C995 C994 1.394 . S
C995 C996 1.516 . S
C996 C995 1.516 . S
C996 C997 1.502 . S
C996 C998 1.561 . S
C996 C999 1.526 1_655 S
C997 H981 0.959 . S
C997 H982 0.959 . S
C997 H983 0.961 . S
C997 C996 1.502 . S
C998 H984 0.960 . S
C998 H985 0.961 . S
C998 H986 0.959 . S
C998 C996 1.561 . S
C999 C996 1.526 1_455 S
C999 C1000 1.396 . S
C999 C1004 1.390 . S
C1000 C994 1.465 1_455 S
C1000 C999 1.396 . S
C1000 C1001 1.399 . S
C1001 H987 0.929 . S
C1001 C1000 1.399 . S
C1001 C1002 1.385 . S
C1002 H988 0.931 . S
C1002 C1001 1.385 . S
C1002 C1003 1.389 . S
C1003 C1002 1.389 . S
C1003 C1004 1.387 . S
C1004 H989 0.930 . S
C1004 C999 1.390 . S
C1004 C1003 1.387 . S
H1005 C1017 0.930 . S
H1006 C1019 0.930 . S
H1007 C1020 0.930 . S
H1008 C1024 0.959 1_544 S
H1009 C1024 0.959 1_545 S
H1010 C1024 0.961 . S
H1011 C1025 0.960 . S
H1012 C1025 0.961 . S
H1013 C1025 0.959 . S
H1014 C1028 0.929 . S
H1015 C1029 0.931 . S
H1016 C1031 0.930 . S
C1017 H1005 0.930 . S
C1017 C1018 1.399 . S
C1017 C1022 1.399 . S
C1018 C1017 1.399 . S
C1018 C1019 1.376 . S
C1019 H1006 0.930 . S
C1019 C1018 1.376 . S
C1019 C1020 1.388 . S
C1020 H1007 0.930 . S
C1020 C1019 1.388 . S
C1020 C1021 1.390 . S
C1021 C1020 1.390 . S
C1021 C1022 1.394 . S
C1021 C1027 1.446 1_564 S
C1022 C1017 1.399 . S
C1022 C1021 1.394 . S
C1022 C1023 1.516 1_554 S
C1023 C1022 1.516 1_556 S
C1023 C1024 1.502 . S
C1023 C1025 1.561 . S
C1023 C1026 1.526 1_565 S
C1024 H1008 0.959 1_566 S
C1024 H1009 0.959 1_565 S
C1024 H1010 0.961 . S
C1024 C1023 1.502 . S
C1025 H1011 0.960 . S
C1025 H1012 0.961 . S
C1025 H1013 0.959 . S
C1025 C1023 1.561 . S
C1026 C1023 1.526 1_545 S
C1026 C1027 1.426 . S
C1026 C1031 1.390 . S
C1027 C1021 1.446 1_546 S
C1027 C1026 1.426 . S
C1027 C1028 1.394 1_556 S
C1028 H1014 0.929 . S
C1028 C1027 1.394 1_554 S
C1028 C1029 1.385 1_554 S
C1029 H1015 0.931 . S
C1029 C1028 1.385 1_556 S
C1029 C1030 1.389 . S
C1030 C1029 1.389 . S
C1030 C1031 1.387 . S
C1031 H1016 0.930 . S
C1031 C1026 1.390 . S
C1031 C1030 1.387 . S
H1032 C1044 0.930 . S
H1033 C1046 0.930 . S
H1034 C1047 0.930 . S
H1035 C1051 0.959 . S
H1036 C1051 0.987 . S
H1037 C1051 0.961 . S
H1038 C1052 0.960 . S
H1039 C1052 0.961 . S
H1040 C1052 0.959 . S
H1041 C1055 0.929 . S
H1042 C1056 0.931 . S
H1043 C1058 0.930 1_556 S
C1044 H1032 0.930 . S
C1044 C1045 1.399 . S
C1044 C1049 1.399 . S
C1045 C1044 1.399 . S
C1045 C1046 1.376 . S
C1046 H1033 0.930 . S
C1046 C1045 1.376 . S
C1046 C1047 1.388 . S
C1047 H1034 0.930 . S
C1047 C1046 1.388 . S
C1047 C1048 1.390 . S
C1048 C1047 1.390 . S
C1048 C1049 1.394 . S
C1048 C1054 1.465 . S
C1049 C1044 1.399 . S
C1049 C1048 1.394 . S
C1049 C1050 1.516 . S
C1050 C1049 1.516 . S
C1050 C1051 1.502 . S
C1050 C1052 1.561 . S
C1050 C1053 1.526 . S
C1051 H1035 0.959 . S
C1051 H1036 0.987 . S
C1051 H1037 0.961 . S
C1051 C1050 1.502 . S
C1052 H1038 0.960 . S
C1052 H1039 0.961 . S
C1052 H1040 0.959 . S
C1052 C1050 1.561 . S
C1053 C1050 1.526 . S
C1053 C1054 1.396 . S
C1053 C1058 1.390 . S
C1054 C1048 1.465 . S
C1054 C1053 1.396 . S
C1054 C1055 1.399 . S
C1055 H1041 0.929 . S
C1055 C1054 1.399 . S
C1055 C1056 1.385 . S
C1056 H1042 0.931 . S
C1056 C1055 1.385 . S
C1056 C1057 1.389 . S
C1057 C1056 1.389 . S
C1057 C1058 1.387 . S
C1058 H1043 0.930 1_554 S
C1058 C1053 1.390 . S
C1058 C1057 1.387 . S
H1059 C1071 0.930 . S
H1060 C1073 0.930 . S
H1061 C1074 0.930 . S
H1062 C1078 0.959 . S
H1063 C1078 0.959 . S
H1064 C1078 0.961 . S
H1065 C1079 0.960 . S
H1066 C1079 0.961 . S
H1067 C1079 0.959 . S
H1068 C1082 0.929 . S
H1069 C1083 0.931 . S
H1070 C1085 0.930 . S
C1071 H1059 0.930 . S
C1071 C1072 1.399 . S
C1071 C1076 1.399 . S
C1072 C1071 1.399 . S
C1072 C1073 1.376 . S
C1073 H1060 0.930 . S
C1073 C1072 1.376 . S
C1073 C1074 1.388 . S
C1074 H1061 0.930 . S
C1074 C1073 1.388 . S
C1074 C1075 1.390 . S
C1075 C1074 1.390 . S
C1075 C1076 1.394 . S
C1075 C1081 1.465 . S
C1076 C1071 1.399 . S
C1076 C1075 1.394 . S
C1076 C1077 1.516 . S
C1077 C1076 1.516 . S
C1077 C1078 1.502 . S
C1077 C1079 1.561 . S
C1077 C1080 1.526 . S
C1078 H1062 0.959 . S
C1078 H1063 0.959 . S
C1078 H1064 0.961 . S
C1078 C1077 1.502 . S
C1079 H1065 0.960 . S
C1079 H1066 0.961 . S
C1079 H1067 0.959 . S
C1079 C1077 1.561 . S
C1080 C1077 1.526 . S
C1080 C1081 1.396 . S
C1080 C1085 1.390 . S
C1081 C1075 1.465 . S
C1081 C1080 1.396 . S
C1081 C1082 1.399 . S
C1082 H1068 0.929 . S
C1082 C1081 1.399 . S
C1082 C1083 1.385 1_655 S
C1083 H1069 0.931 . S
C1083 C1082 1.385 1_455 S
C1083 C1084 1.389 . S
C1084 C1083 1.389 . S
C1084 C1085 1.387 1_455 S
C1085 H1070 0.930 . S
C1085 C1080 1.390 . S
C1085 C1084 1.387 1_655 S
H1086 C1098 0.930 . S
H1087 C1100 0.930 . S
H1088 C1101 0.930 . S
H1089 C1105 0.959 . S
H1090 C1105 0.959 . S
H1091 C1105 0.961 . S
H1092 C1106 0.960 1_545 S
H1093 C1106 0.961 . S
H1094 C1106 0.959 . S
H1095 C1109 0.929 . S
H1096 C1110 0.931 . S
H1097 C1112 0.930 . S
C1098 H1086 0.930 . S
C1098 C1099 1.399 . S
C1098 C1103 1.399 1_545 S
C1099 C1098 1.399 . S
C1099 C1100 1.376 1_545 S
C1100 H1087 0.930 . S
C1100 C1099 1.376 1_565 S
C1100 C1101 1.388 . S
C1101 H1088 0.930 . S
C1101 C1100 1.388 . S
C1101 C1102 1.390 . S
C1102 C1101 1.390 . S
C1102 C1103 1.394 . S
C1102 C1108 1.465 . S
C1103 C1098 1.399 1_565 S
C1103 C1102 1.394 . S
C1103 C1104 1.516 . S
C1104 C1103 1.516 . S
C1104 C1105 1.502 1_565 S
C1104 C1106 1.561 . S
C1104 C1107 1.526 . S
C1105 H1089 0.959 . S
C1105 H1090 0.959 . S
C1105 H1091 0.961 . S
C1105 C1104 1.502 1_545 S
C1106 H1092 0.960 1_565 S
C1106 H1093 0.961 . S
C1106 H1094 0.959 . S
C1106 C1104 1.561 . S
C1107 C1104 1.526 . S
C1107 C1108 1.396 . S
C1107 C1112 1.390 . S
C1108 C1102 1.465 . S
C1108 C1107 1.396 . S
C1108 C1109 1.399 . S
C1109 H1095 0.929 . S
C1109 C1108 1.399 . S
C1109 C1110 1.385 . S
C1110 H1096 0.931 . S
C1110 C1109 1.385 . S
C1110 C1111 1.389 . S
C1111 C1110 1.389 . S
C1111 C1112 1.387 . S
C1112 H1097 0.930 . S
C1112 C1107 1.390 . S
C1112 C1111 1.387 . S
H1113 C1125 0.930 . S
H1114 C1127 0.930 . S
H1115 C1128 0.930 . S
H1116 C1132 0.959 . S
H1117 C1132 0.959 . S
H1118 C1132 0.961 . S
H1119 C1133 0.960 . S
H1120 C1133 0.961 . S
H1121 C1133 0.959 . S
H1122 C1136 0.929 . S
H1123 C1137 0.931 . S
H1124 C1139 0.930 . S
C1125 H1113 0.930 . S
C1125 C1126 1.399 . S
C1125 C1130 1.399 . S
C1126 C1125 1.399 . S
C1126 C1127 1.376 . S
C1127 H1114 0.930 . S
C1127 C1126 1.376 . S
C1127 C1128 1.388 . S
C1128 H1115 0.930 . S
C1128 C1127 1.388 . S
C1128 C1129 1.390 . S
C1129 C1128 1.390 . S
C1129 C1130 1.394 . S
C1129 C1135 1.465 . S
C1130 C1125 1.399 . S
C1130 C1129 1.394 . S
C1130 C1131 1.516 . S
C1131 C1130 1.516 . S
C1131 C1132 1.502 . S
C1131 C1133 1.561 . S
C1131 C1134 1.526 . S
C1132 H1116 0.959 . S
C1132 H1117 0.959 . S
C1132 H1118 0.961 . S
C1132 C1131 1.502 . S
C1133 H1119 0.960 . S
C1133 H1120 0.961 . S
C1133 H1121 0.959 . S
C1133 C1131 1.561 . S
C1134 C1131 1.526 . S
C1134 C1135 1.396 . S
C1134 C1139 1.390 . S
C1135 C1129 1.465 . S
C1135 C1134 1.396 . S
C1135 C1136 1.399 . S
C1136 H1122 0.929 . S
C1136 C1135 1.399 . S
C1136 C1137 1.385 . S
C1137 H1123 0.931 . S
C1137 C1136 1.385 . S
C1137 C1138 1.389 . S
C1138 C1137 1.389 . S
C1138 C1139 1.387 . S
C1139 H1124 0.930 . S
C1139 C1134 1.390 . S
C1139 C1138 1.387 . S
H1140 C1152 0.930 . S
H1141 C1154 0.930 . S
H1142 C1155 0.930 . S
H1143 C1159 0.959 1_455 S
H1144 C1159 0.959 . S
H1145 C1159 0.961 1_455 S
H1146 C1160 0.960 . S
H1147 C1160 0.961 . S
H1148 C1160 0.959 1_455 S
H1149 C1163 0.929 . S
H1150 C1164 0.931 . S
H1151 C1166 0.930 . S
C1152 H1140 0.930 . S
C1152 C1153 1.399 . S
C1152 C1157 1.399 . S
C1153 C1152 1.399 . S
C1153 C1154 1.376 . S
C1154 H1141 0.930 . S
C1154 C1153 1.376 . S
C1154 C1155 1.388 . S
C1155 H1142 0.930 . S
C1155 C1154 1.388 . S
C1155 C1156 1.390 . S
C1156 C1155 1.390 . S
C1156 C1157 1.394 . S
C1156 C1162 1.465 . S
C1157 C1152 1.399 . S
C1157 C1156 1.394 . S
C1157 C1158 1.516 . S
C1158 C1157 1.516 . S
C1158 C1159 1.502 1_455 S
C1158 C1160 1.561 1_455 S
C1158 C1161 1.526 . S
C1159 H1143 0.959 1_655 S
C1159 H1144 0.959 . S
C1159 H1145 0.961 1_655 S
C1159 C1158 1.502 1_655 S
C1160 H1146 0.960 . S
C1160 H1147 0.961 . S
C1160 H1148 0.959 1_655 S
C1160 C1158 1.561 1_655 S
C1161 C1158 1.526 . S
C1161 C1162 1.396 . S
C1161 C1166 1.390 1_455 S
C1162 C1156 1.465 . S
C1162 C1161 1.396 . S
C1162 C1163 1.399 . S
C1163 H1149 0.929 . S
C1163 C1162 1.399 . S
C1163 C1164 1.385 . S
C1164 H1150 0.931 . S
C1164 C1163 1.385 . S
C1164 C1165 1.389 1_455 S
C1165 C1164 1.389 1_655 S
C1165 C1166 1.387 . S
C1166 H1151 0.930 . S
C1166 C1161 1.390 1_655 S
C1166 C1165 1.387 . S
H1167 C1179 0.930 . S
H1168 C1181 0.930 . S
H1169 C1182 0.930 . S
H1170 C1186 0.959 . S
H1171 C1186 0.959 . S
H1172 C1186 0.961 . S
H1173 C1187 0.960 . S
H1174 C1187 0.961 . S
H1175 C1187 0.959 . S
H1176 C1190 0.929 . S
H1177 C1191 0.931 . S
H1178 C1193 0.930 . S
C1179 H1167 0.930 . S
C1179 C1180 1.399 . S
C1179 C1184 1.399 . S
C1180 C1179 1.399 . S
C1180 C1181 1.376 . S
C1181 H1168 0.930 . S
C1181 C1180 1.376 . S
C1181 C1182 1.388 . S
C1182 H1169 0.930 . S
C1182 C1181 1.388 . S
C1182 C1183 1.390 . S
C1183 C1182 1.390 . S
C1183 C1184 1.394 . S
C1183 C1189 1.465 . S
C1184 C1179 1.399 . S
C1184 C1183 1.394 . S
C1184 C1185 1.516 . S
C1185 C1184 1.516 . S
C1185 C1186 1.502 . S
C1185 C1187 1.561 . S
C1185 C1188 1.526 . S
C1186 H1170 0.959 . S
C1186 H1171 0.959 . S
C1186 H1172 0.961 . S
C1186 C1185 1.502 . S
C1187 H1173 0.960 . S
C1187 H1174 0.961 . S
C1187 H1175 0.959 . S
C1187 C1185 1.561 . S
C1188 C1185 1.526 . S
C1188 C1189 1.396 . S
C1188 C1193 1.390 . S
C1189 C1183 1.465 . S
C1189 C1188 1.396 . S
C1189 C1190 1.399 . S
C1190 H1176 0.929 . S
C1190 C1189 1.399 . S
C1190 C1191 1.385 1_545 S
C1191 H1177 0.931 . S
C1191 C1190 1.385 1_565 S
C1191 C1192 1.389 . S
C1192 C1191 1.389 . S
C1192 C1193 1.387 1_565 S
C1193 H1178 0.930 . S
C1193 C1188 1.390 . S
C1193 C1192 1.387 1_545 S
H1194 C1206 0.930 . S
H1195 C1208 0.930 . S
H1196 C1209 0.930 . S
H1197 C1213 0.959 . S
H1198 C1213 0.959 . S
H1199 C1213 0.961 . S
H1200 C1214 0.960 . S
H1201 C1214 0.961 . S
H1202 C1214 0.959 . S
H1203 C1217 0.929 . S
H1204 C1218 0.931 . S
H1205 C1220 0.930 . S
C1206 H1194 0.930 . S
C1206 C1207 1.399 . S
C1206 C1211 1.399 . S
C1207 C1206 1.399 . S
C1207 C1208 1.376 . S
C1208 H1195 0.930 . S
C1208 C1207 1.376 . S
C1208 C1209 1.388 . S
C1209 H1196 0.930 . S
C1209 C1208 1.388 . S
C1209 C1210 1.390 . S
C1210 C1209 1.390 . S
C1210 C1211 1.394 . S
C1210 C1216 1.465 . S
C1211 C1206 1.399 . S
C1211 C1210 1.394 . S
C1211 C1212 1.516 . S
C1212 C1211 1.516 . S
C1212 C1213 1.502 . S
C1212 C1214 1.561 . S
C1212 C1215 1.526 . S
C1213 H1197 0.959 . S
C1213 H1198 0.959 . S
C1213 H1199 0.961 . S
C1213 C1212 1.502 . S
C1214 H1200 0.960 . S
C1214 H1201 0.961 . S
C1214 H1202 0.959 . S
C1214 C1212 1.561 . S
C1215 C1212 1.526 . S
C1215 C1216 1.396 . S
C1215 C1220 1.390 . S
C1216 C1210 1.465 . S
C1216 C1215 1.396 . S
C1216 C1217 1.399 . S
C1217 H1203 0.929 . S
C1217 C1216 1.399 . S
C1217 C1218 1.385 . S
C1218 H1204 0.931 . S
C1218 C1217 1.385 . S
C1218 C1219 1.389 . S
C1219 C1218 1.389 . S
C1219 C1220 1.387 . S
C1220 H1205 0.930 . S
C1220 C1215 1.390 . S
C1220 C1219 1.387 . S
H1221 C1233 0.930 . S
H1222 C1235 0.930 . S
H1223 C1236 0.930 . S
H1224 C1240 0.959 . S
H1225 C1240 0.959 . S
H1226 C1240 0.961 . S
H1227 C1241 0.960 . S
H1228 C1241 0.961 . S
H1229 C1241 0.959 . S
H1230 C1244 0.929 . S
H1231 C1245 0.931 . S
H1232 C1247 0.930 1_554 S
C1233 H1221 0.930 . S
C1233 C1234 1.399 . S
C1233 C1238 1.399 . S
C1234 C1233 1.399 . S
C1234 C1235 1.376 . S
C1235 H1222 0.930 . S
C1235 C1234 1.376 . S
C1235 C1236 1.388 . S
C1236 H1223 0.930 . S
C1236 C1235 1.388 . S
C1236 C1237 1.390 . S
C1237 C1236 1.390 . S
C1237 C1238 1.394 . S
C1237 C1243 1.465 . S
C1238 C1233 1.399 . S
C1238 C1237 1.394 . S
C1238 C1239 1.516 . S
C1239 C1238 1.516 . S
C1239 C1240 1.502 . S
C1239 C1241 1.561 . S
C1239 C1242 1.526 . S
C1240 H1224 0.959 . S
C1240 H1225 0.959 . S
C1240 H1226 0.961 . S
C1240 C1239 1.502 . S
C1241 H1227 0.960 . S
C1241 H1228 0.961 . S
C1241 H1229 0.959 . S
C1241 C1239 1.561 . S
C1242 C1239 1.526 . S
C1242 C1243 1.396 . S
C1242 C1247 1.390 . S
C1243 C1237 1.465 . S
C1243 C1242 1.396 . S
C1243 C1244 1.399 1_655 S
C1244 H1230 0.929 . S
C1244 C1243 1.399 1_455 S
C1244 C1245 1.385 . S
C1245 H1231 0.931 . S
C1245 C1244 1.385 . S
C1245 C1246 1.389 . S
C1246 C1245 1.389 . S
C1246 C1247 1.387 1_455 S
C1247 H1232 0.930 1_556 S
C1247 C1242 1.390 . S
C1247 C1246 1.387 1_655 S
H1248 C1260 0.930 . S
H1249 C1262 0.930 . S
H1250 C1263 0.930 . S
H1251 C1267 0.959 . S
H1252 C1267 0.959 . S
H1253 C1267 0.961 . S
H1254 C1268 0.960 . S
H1255 C1268 0.961 . S
H1256 C1268 0.959 . S
H1257 C1271 0.929 . S
H1258 C1272 0.931 . S
H1259 C1274 0.930 . S
C1260 H1248 0.930 . S
C1260 C1261 1.399 . S
C1260 C1265 1.399 . S
C1261 C1260 1.399 . S
C1261 C1262 1.376 . S
C1262 H1249 0.930 . S
C1262 C1261 1.376 . S
C1262 C1263 1.388 . S
C1263 H1250 0.930 . S
C1263 C1262 1.388 . S
C1263 C1264 1.390 . S
C1264 C1263 1.390 . S
C1264 C1265 1.394 . S
C1264 C1270 1.465 . S
C1265 C1260 1.399 . S
C1265 C1264 1.394 . S
C1265 C1266 1.516 . S
C1266 C1265 1.516 . S
C1266 C1267 1.502 . S
C1266 C1268 1.561 . S
C1266 C1269 1.526 . S
C1267 H1251 0.959 . S
C1267 H1252 0.959 . S
C1267 H1253 0.961 . S
C1267 C1266 1.502 . S
C1268 H1254 0.960 . S
C1268 H1255 0.961 . S
C1268 H1256 0.959 . S
C1268 C1266 1.561 . S
C1269 C1266 1.526 . S
C1269 C1270 1.396 . S
C1269 C1274 1.390 . S
C1270 C1264 1.465 . S
C1270 C1269 1.396 . S
C1270 C1271 1.399 1_565 S
C1271 H1257 0.929 . S
C1271 C1270 1.399 1_545 S
C1271 C1272 1.385 . S
C1272 H1258 0.931 . S
C1272 C1271 1.385 . S
C1272 C1273 1.389 . S
C1273 C1272 1.389 . S
C1273 C1274 1.387 1_545 S
C1274 H1259 0.930 . S
C1274 C1269 1.390 . S
C1274 C1273 1.387 1_565 S
H1275 C1287 0.930 . S
H1276 C1289 0.930 . S
H1277 C1290 0.930 . S
H1278 C1294 0.959 . S
H1279 C1294 0.959 . S
H1280 C1294 0.961 . S
H1281 C1295 0.960 . S
H1282 C1295 0.961 . S
H1283 C1295 0.959 . S
H1284 C1298 0.929 . S
H1285 C1299 0.931 . S
H1286 C1301 0.930 . S
C1287 H1275 0.930 . S
C1287 C1288 1.399 . S
C1287 C1292 1.399 . S
C1288 C1287 1.399 . S
C1288 C1289 1.376 . S
C1289 H1276 0.930 . S
C1289 C1288 1.376 . S
C1289 C1290 1.388 . S
C1290 H1277 0.930 . S
C1290 C1289 1.388 . S
C1290 C1291 1.390 . S
C1291 C1290 1.390 . S
C1291 C1292 1.394 . S
C1291 C1297 1.465 . S
C1292 C1287 1.399 . S
C1292 C1291 1.394 . S
C1292 C1293 1.516 . S
C1293 C1292 1.516 . S
C1293 C1294 1.502 . S
C1293 C1295 1.561 . S
C1293 C1296 1.526 . S
C1294 H1278 0.959 . S
C1294 H1279 0.959 . S
C1294 H1280 0.961 . S
C1294 C1293 1.502 . S
C1295 H1281 0.960 . S
C1295 H1282 0.961 . S
C1295 H1283 0.959 . S
C1295 C1293 1.561 . S
C1296 C1293 1.526 . S
C1296 C1297 1.396 . S
C1296 C1301 1.390 . S
C1297 C1291 1.465 . S
C1297 C1296 1.396 . S
C1297 C1298 1.399 . S
C1298 H1284 0.929 . S
C1298 C1297 1.399 . S
C1298 C1299 1.385 . S
C1299 H1285 0.931 . S
C1299 C1298 1.385 . S
C1299 C1300 1.389 . S
C1300 C1299 1.389 . S
C1300 C1301 1.387 . S
C1301 H1286 0.930 . S
C1301 C1296 1.390 . S
C1301 C1300 1.387 . S
H1302 C1314 0.930 . S
H1303 C1316 0.930 . S
H1304 C1317 0.930 . S
H1305 C1321 0.959 . S
H1306 C1321 0.959 . S
H1307 C1321 0.961 . S
H1308 C1322 0.960 . S
H1309 C1322 0.961 . S
H1310 C1322 0.959 . S
H1311 C1325 0.929 . S
H1312 C1326 0.931 . S
H1313 C1328 0.930 . S
C1314 H1302 0.930 . S
C1314 C1315 1.399 . S
C1314 C1319 1.399 . S
C1315 C1314 1.399 . S
C1315 C1316 1.376 . S
C1316 H1303 0.930 . S
C1316 C1315 1.376 . S
C1316 C1317 1.388 . S
C1317 H1304 0.930 . S
C1317 C1316 1.388 . S
C1317 C1318 1.390 . S
C1318 C1317 1.390 . S
C1318 C1319 1.394 . S
C1318 C1324 1.465 . S
C1319 C1314 1.399 . S
C1319 C1318 1.394 . S
C1319 C1320 1.516 . S
C1320 C1319 1.516 . S
C1320 C1321 1.502 1_455 S
C1320 C1322 1.561 . S
C1320 C1323 1.526 . S
C1321 H1305 0.959 . S
C1321 H1306 0.959 . S
C1321 H1307 0.961 . S
C1321 C1320 1.502 1_655 S
C1322 H1308 0.960 . S
C1322 H1309 0.961 . S
C1322 H1310 0.959 . S
C1322 C1320 1.561 . S
C1323 C1320 1.526 . S
C1323 C1324 1.396 . S
C1323 C1328 1.390 1_455 S
C1324 C1318 1.465 . S
C1324 C1323 1.396 . S
C1324 C1325 1.399 . S
C1325 H1311 0.929 . S
C1325 C1324 1.399 . S
C1325 C1326 1.385 . S
C1326 H1312 0.931 . S
C1326 C1325 1.385 . S
C1326 C1327 1.389 1_455 S
C1327 C1326 1.389 1_655 S
C1327 C1328 1.387 . S
C1328 H1313 0.930 . S
C1328 C1323 1.390 1_655 S
C1328 C1327 1.387 . S
H1329 C1341 0.930 . S
H1330 C1343 0.930 . S
H1331 C1344 0.930 . S
H1332 C1348 0.959 . S
H1333 C1348 0.959 . S
H1334 C1348 0.961 . S
H1335 C1349 0.960 . S
H1336 C1349 0.961 1_545 S
H1337 C1349 0.959 . S
H1338 C1352 0.929 . S
H1339 C1353 0.931 . S
H1340 C1355 0.930 . S
C1341 H1329 0.930 . S
C1341 C1342 1.399 . S
C1341 C1346 1.399 1_565 S
C1342 C1341 1.399 . S
C1342 C1343 1.376 1_565 S
C1343 H1330 0.930 . S
C1343 C1342 1.376 1_545 S
C1343 C1344 1.388 . S
C1344 H1331 0.930 . S
C1344 C1343 1.388 . S
C1344 C1345 1.390 . S
C1345 C1344 1.390 . S
C1345 C1346 1.394 . S
C1345 C1351 1.465 . S
C1346 C1341 1.399 1_545 S
C1346 C1345 1.394 . S
C1346 C1347 1.516 . S
C1347 C1346 1.516 . S
C1347 C1348 1.502 . S
C1347 C1349 1.561 1_545 S
C1347 C1350 1.526 . S
C1348 H1332 0.959 . S
C1348 H1333 0.959 . S
C1348 H1334 0.961 . S
C1348 C1347 1.502 . S
C1349 H1335 0.960 . S
C1349 H1336 0.961 1_565 S
C1349 H1337 0.959 . S
C1349 C1347 1.561 1_565 S
C1350 C1347 1.526 . S
C1350 C1351 1.396 . S
C1350 C1355 1.390 . S
C1351 C1345 1.465 . S
C1351 C1350 1.396 . S
C1351 C1352 1.399 . S
C1352 H1338 0.929 . S
C1352 C1351 1.399 . S
C1352 C1353 1.385 . S
C1353 H1339 0.931 . S
C1353 C1352 1.385 . S
C1353 C1354 1.389 . S
C1354 C1353 1.389 . S
C1354 C1355 1.387 . S
C1355 H1340 0.930 . S
C1355 C1350 1.390 . S
C1355 C1354 1.387 . S
C721 C477 1.323 . S
C733 C5 1.327 . S
C748 C64 1.310 . S
C760 C536 1.327 . S
C775 C123 1.330 . S
C787 C595 1.311 . S
C802 C182 1.322 . S
C814 C654 1.312 . S
C829 C359 1.321 . S
C841 C241 1.313 . S
C856 C300 1.319 . S
C868 C418 1.330 . S
C883 C583 1.036 . S
C895 C52 1.028 . S
C910 C111 1.042 . S
C922 C642 1.050 . S
C937 C701 1.047 . S
C949 C170 1.038 . S
C964 C229 1.050 . S
C976 C406 1.042 . S
C991 C465 1.020 . S
C1003 C288 1.025 . S
C1018 C524 1.019 . S
C1030 C347 1.022 . S
C1045 C33 1.518 . S
C1057 C298 1.473 1_554 S
C1072 C92 1.519 . S
C1084 C3 1.519 . S
C1099 C62 1.528 . S
C1111 C151 1.545 . S
C1126 C210 1.540 . S
C1138 C121 1.533 . S
C1153 C269 1.548 . S
C1165 C180 1.518 . S
C1180 C328 1.519 . S
C1192 C239 1.519 . S
C1207 C387 1.539 . S
C1219 C416 1.480 . S
C1234 C446 1.520 . S
C1246 C475 1.471 1_556 S
C1261 C505 1.512 . S
C1273 C534 1.491 . S
C1288 C564 1.536 . S
C1300 C593 1.534 . S
C1315 C623 1.541 . S
C1327 C652 1.533 . S
C1342 C357 1.527 . S
C1354 C682 1.524 . S
