# Generated by pormake.
# Topology smg, (6)-cn, num edge types: 1
# Building blocks:
#     Node 0, Type 0, BuildingBlock: IZENUY_clean_sbu_0, # of connection points: 6
#     Node 1, Type 0, BuildingBlock: IZENUY_clean_sbu_0, # of connection points: 6
#     Node 2, Type 0, BuildingBlock: IZENUY_clean_sbu_0, # of connection points: 6
#     Node 3, Type 0, BuildingBlock: IZENUY_clean_sbu_0, # of connection points: 6
#     Node 4, Type 0, BuildingBlock: IZENUY_clean_sbu_0, # of connection points: 6
#     Node 5, Type 0, BuildingBlock: IZENUY_clean_sbu_0, # of connection points: 6
#     Node 6, Type 0, BuildingBlock: IZENUY_clean_sbu_0, # of connection points: 6
#     Node 7, Type 0, BuildingBlock: IZENUY_clean_sbu_0, # of connection points: 6
#     Node 8, Type 0, BuildingBlock: IZENUY_clean_sbu_0, # of connection points: 6
#     Node 9, Type 0, BuildingBlock: IZENUY_clean_sbu_0, # of connection points: 6
#     Node 10, Type 0, BuildingBlock: IZENUY_clean_sbu_0, # of connection points: 6
#     Node 11, Type 0, BuildingBlock: IZENUY_clean_sbu_0, # of connection points: 6
#     Node 12, Type 0, BuildingBlock: IZENUY_clean_sbu_0, # of connection points: 6
#     Node 13, Type 0, BuildingBlock: IZENUY_clean_sbu_0, # of connection points: 6
#     Node 14, Type 0, BuildingBlock: IZENUY_clean_sbu_0, # of connection points: 6
#     Node 15, Type 0, BuildingBlock: IZENUY_clean_sbu_0, # of connection points: 6
#     Node 16, Type 0, BuildingBlock: IZENUY_clean_sbu_0, # of connection points: 6
#     Node 17, Type 0, BuildingBlock: IZENUY_clean_sbu_0, # of connection points: 6
#     Edge 18, Type (0, 0), BuildingBlock: TEMPAE_clean_linker_10, # of connection points: 2
#     Edge 19, Type (0, 0), BuildingBlock: TEMPAE_clean_linker_10, # of connection points: 2
#     Edge 20, Type (0, 0), BuildingBlock: TEMPAE_clean_linker_10, # of connection points: 2
#     Edge 21, Type (0, 0), BuildingBlock: TEMPAE_clean_linker_10, # of connection points: 2
#     Edge 22, Type (0, 0), BuildingBlock: TEMPAE_clean_linker_10, # of connection points: 2
#     Edge 23, Type (0, 0), BuildingBlock: TEMPAE_clean_linker_10, # of connection points: 2
#     Edge 24, Type (0, 0), BuildingBlock: TEMPAE_clean_linker_10, # of connection points: 2
#     Edge 25, Type (0, 0), BuildingBlock: TEMPAE_clean_linker_10, # of connection points: 2
#     Edge 26, Type (0, 0), BuildingBlock: TEMPAE_clean_linker_10, # of connection points: 2
#     Edge 27, Type (0, 0), BuildingBlock: TEMPAE_clean_linker_10, # of connection points: 2
#     Edge 28, Type (0, 0), BuildingBlock: TEMPAE_clean_linker_10, # of connection points: 2
#     Edge 29, Type (0, 0), BuildingBlock: TEMPAE_clean_linker_10, # of connection points: 2
#     Edge 30, Type (0, 0), BuildingBlock: TEMPAE_clean_linker_10, # of connection points: 2
#     Edge 31, Type (0, 0), BuildingBlock: TEMPAE_clean_linker_10, # of connection points: 2
#     Edge 32, Type (0, 0), BuildingBlock: TEMPAE_clean_linker_10, # of connection points: 2
#     Edge 33, Type (0, 0), BuildingBlock: TEMPAE_clean_linker_10, # of connection points: 2
#     Edge 34, Type (0, 0), BuildingBlock: TEMPAE_clean_linker_10, # of connection points: 2
#     Edge 35, Type (0, 0), BuildingBlock: TEMPAE_clean_linker_10, # of connection points: 2
#     Edge 36, Type (0, 0), BuildingBlock: TEMPAE_clean_linker_10, # of connection points: 2
#     Edge 37, Type (0, 0), BuildingBlock: TEMPAE_clean_linker_10, # of connection points: 2
#     Edge 38, Type (0, 0), BuildingBlock: TEMPAE_clean_linker_10, # of connection points: 2
#     Edge 39, Type (0, 0), BuildingBlock: TEMPAE_clean_linker_10, # of connection points: 2
#     Edge 40, Type (0, 0), BuildingBlock: TEMPAE_clean_linker_10, # of connection points: 2
#     Edge 41, Type (0, 0), BuildingBlock: TEMPAE_clean_linker_10, # of connection points: 2
#     Edge 42, Type (0, 0), BuildingBlock: TEMPAE_clean_linker_10, # of connection points: 2
#     Edge 43, Type (0, 0), BuildingBlock: TEMPAE_clean_linker_10, # of connection points: 2
#     Edge 44, Type (0, 0), BuildingBlock: TEMPAE_clean_linker_10, # of connection points: 2
#     Edge 45, Type (0, 0), BuildingBlock: TEMPAE_clean_linker_10, # of connection points: 2
#     Edge 46, Type (0, 0), BuildingBlock: TEMPAE_clean_linker_10, # of connection points: 2
#     Edge 47, Type (0, 0), BuildingBlock: TEMPAE_clean_linker_10, # of connection points: 2
#     Edge 48, Type (0, 0), BuildingBlock: TEMPAE_clean_linker_10, # of connection points: 2
#     Edge 49, Type (0, 0), BuildingBlock: TEMPAE_clean_linker_10, # of connection points: 2
#     Edge 50, Type (0, 0), BuildingBlock: TEMPAE_clean_linker_10, # of connection points: 2
#     Edge 51, Type (0, 0), BuildingBlock: TEMPAE_clean_linker_10, # of connection points: 2
#     Edge 52, Type (0, 0), BuildingBlock: TEMPAE_clean_linker_10, # of connection points: 2
#     Edge 53, Type (0, 0), BuildingBlock: TEMPAE_clean_linker_10, # of connection points: 2
#     Edge 54, Type (0, 0), BuildingBlock: TEMPAE_clean_linker_10, # of connection points: 2
#     Edge 55, Type (0, 0), BuildingBlock: TEMPAE_clean_linker_10, # of connection points: 2
#     Edge 56, Type (0, 0), BuildingBlock: TEMPAE_clean_linker_10, # of connection points: 2
#     Edge 57, Type (0, 0), BuildingBlock: TEMPAE_clean_linker_10, # of connection points: 2
#     Edge 58, Type (0, 0), BuildingBlock: TEMPAE_clean_linker_10, # of connection points: 2
#     Edge 59, Type (0, 0), BuildingBlock: TEMPAE_clean_linker_10, # of connection points: 2
#     Edge 60, Type (0, 0), BuildingBlock: TEMPAE_clean_linker_10, # of connection points: 2
#     Edge 61, Type (0, 0), BuildingBlock: TEMPAE_clean_linker_10, # of connection points: 2
#     Edge 62, Type (0, 0), BuildingBlock: TEMPAE_clean_linker_10, # of connection points: 2
#     Edge 63, Type (0, 0), BuildingBlock: TEMPAE_clean_linker_10, # of connection points: 2
#     Edge 64, Type (0, 0), BuildingBlock: TEMPAE_clean_linker_10, # of connection points: 2
#     Edge 65, Type (0, 0), BuildingBlock: TEMPAE_clean_linker_10, # of connection points: 2
#     Edge 66, Type (0, 0), BuildingBlock: TEMPAE_clean_linker_10, # of connection points: 2
#     Edge 67, Type (0, 0), BuildingBlock: TEMPAE_clean_linker_10, # of connection points: 2
#     Edge 68, Type (0, 0), BuildingBlock: TEMPAE_clean_linker_10, # of connection points: 2
#     Edge 69, Type (0, 0), BuildingBlock: TEMPAE_clean_linker_10, # of connection points: 2
#     Edge 70, Type (0, 0), BuildingBlock: TEMPAE_clean_linker_10, # of connection points: 2
#     Edge 71, Type (0, 0), BuildingBlock: TEMPAE_clean_linker_10, # of connection points: 2
# Relax obj value: 0.248
# Max RMSD: 0.243
# Mean RMSD: 0.241
data_MOF--net-smg--node1-IZENUY_clean_sbu_0--edge1-TEMPAE_clean_linker_10
_symmetry_space_group_name_H-M    P1
_symmetry_Int_Tables_number       1
_symmetry_cell_setting            triclinic
loop_
_symmetry_equiv_pos_as_xyz
'x, y, z'
_cell_length_a     46.570512
_cell_length_b     46.63097
_cell_length_c     42.651831
_cell_angle_alpha  90.038604
_cell_angle_beta   89.995845
_cell_angle_gamma 120.06945
loop_
_atom_site_label
_atom_site_type_symbol
_atom_site_fract_x
_atom_site_fract_y
_atom_site_fract_z
_atom_type_partial_charge
Fe0 Fe 0.04729 0.59309 0.2556 0.0
Fe1 Fe 0.0113 0.63137 0.24274 0.0
O2 O 0.01187 0.5939 0.24208 0.0
Fe3 Fe 0.97706 0.55749 0.22789 0.0
O4 O 0.9715 0.53697 0.265 0.0
O5 O 0.02357 0.54981 0.27042 0.0
O6 O 0.04293 0.60615 0.29417 0.0
C7 C 0.04233 0.63235 0.29965 0.0
C8 C 0.03248 0.55381 0.2042 0.0
O9 O 0.03778 0.64788 0.27765 0.0
C10 C 0.98059 0.60241 0.1854 0.0
O11 O 0.07729 0.63628 0.243 0.0
O12 O 0.04587 0.65032 0.21632 0.0
O13 O 0.0019 0.5398 0.21163 0.0
O14 O 0.05346 0.57992 0.21784 0.0
C15 C 0.94911 0.58915 0.26324 0.0
O16 O 0.9847 0.62178 0.20796 0.0
O17 O 0.98077 0.57588 0.18998 0.0
C18 C 0.07384 0.65367 0.22196 0.0
O19 O 0.97672 0.61417 0.26918 0.0
O20 O 0.9462 0.56903 0.24164 0.0
C21 C 0.99308 0.53217 0.2778 0.0
Fe22 Fe 0.43088 0.46948 0.25942 0.0
Fe23 Fe 0.46526 0.43443 0.2301 0.0
O24 O 0.42914 0.43332 0.24444 0.0
Fe25 Fe 0.39104 0.39577 0.24381 0.0
O26 O 0.37333 0.41317 0.21806 0.0
O27 O 0.3882 0.45787 0.24636 0.0
O28 O 0.44543 0.49055 0.22248 0.0
C29 C 0.47146 0.49537 0.20886 0.0
C30 C 0.38981 0.424 0.30175 0.0
O31 O 0.48439 0.47767 0.21545 0.0
C32 C 0.43165 0.37355 0.26334 0.0
O33 O 0.47367 0.4872 0.2751 0.0
O34 O 0.48533 0.44748 0.26764 0.0
O35 O 0.37436 0.40489 0.27908 0.0
O36 O 0.41661 0.45056 0.29725 0.0
C37 C 0.42043 0.39536 0.18633 0.0
O38 O 0.45231 0.39124 0.24227 0.0
O39 O 0.40699 0.37665 0.26953 0.0
C40 C 0.49046 0.47329 0.28183 0.0
O41 O 0.44726 0.42159 0.19174 0.0
O42 O 0.40056 0.37961 0.20842 0.0
C43 C 0.37067 0.43795 0.22473 0.0
Fe44 Fe 0.59744 0.0505 0.2267 0.0
Fe45 Fe 0.55935 0.98099 0.25581 0.0
O46 O 0.59669 0.01503 0.24225 0.0
Fe47 Fe 0.63364 0.01347 0.24393 0.0
O48 O 0.65181 0.04814 0.27017 0.0
O49 O 0.64024 0.07999 0.24112 0.0
O50 O 0.58247 0.058 0.26296 0.0
C51 C 0.55584 0.03753 0.27629 0.0
C52 C 0.63808 0.04305 0.18601 0.0
O53 O 0.54187 0.00675 0.26985 0.0
C54 C 0.59124 0.95153 0.22329 0.0
O55 O 0.55495 0.0272 0.20985 0.0
O56 O 0.54046 0.97511 0.21785 0.0
O57 O 0.65255 0.03968 0.20954 0.0
O58 O 0.61211 0.04468 0.1894 0.0
C59 C 0.60186 0.98354 0.3004 0.0
O60 O 0.57056 0.94937 0.24397 0.0
O61 O 0.61694 0.97872 0.21768 0.0
C62 C 0.53706 0.99658 0.20315 0.0
O63 O 0.57609 0.98488 0.29464 0.0
O64 O 0.6218 0.98695 0.27869 0.0
C65 C 0.65653 0.0764 0.26333 0.0
Fe66 Fe 0.04545 0.46707 0.75575 0.0
Fe67 Fe 0.97539 0.42958 0.72745 0.0
O68 O 0.01086 0.42993 0.74262 0.0
Fe69 Fe 0.01182 0.39272 0.74435 0.0
O70 O 0.04613 0.40868 0.7176 0.0
O71 O 0.07649 0.45521 0.74338 0.0
O72 O 0.051 0.48577 0.71778 0.0
C73 C 0.02954 0.48954 0.70342 0.0
C74 C 0.04309 0.42471 0.80033 0.0
O75 O 0.99891 0.47189 0.71034 0.0
C76 C 0.9493 0.37088 0.76449 0.0
O77 O 0.0203 0.48512 0.77022 0.0
O78 O 0.96865 0.44502 0.76377 0.0
O79 O 0.03897 0.4045 0.77867 0.0
O80 O 0.042 0.45058 0.79462 0.0
C81 C 0.98155 0.3882 0.68679 0.0
O82 O 0.94566 0.38705 0.74222 0.0
O83 O 0.97755 0.37532 0.77109 0.0
C84 C 0.98957 0.47158 0.7769 0.0
O85 O 0.98047 0.41444 0.6901 0.0
O86 O 0.98489 0.37377 0.71035 0.0
C87 C 0.07363 0.43418 0.72276 0.0
Fe88 Fe 0.63102 0.63632 0.74391 0.0
Fe89 Fe 0.59209 0.56216 0.73042 0.0
O90 O 0.5933 0.59838 0.74445 0.0
Fe91 Fe 0.5571 0.59691 0.75906 0.0
O92 O 0.57584 0.61131 0.79696 0.0
O93 O 0.6218 0.65327 0.77892 0.0
O94 O 0.64982 0.62032 0.77001 0.0
C95 C 0.65283 0.59559 0.76405 0.0
C96 C 0.58923 0.65695 0.7242 0.0
O97 O 0.63521 0.57494 0.74293 0.0
C98 C 0.53126 0.55607 0.70865 0.0
O99 O 0.64734 0.62651 0.7088 0.0
O100 O 0.60525 0.57992 0.69204 0.0
O101 O 0.56903 0.63954 0.74571 0.0
O102 O 0.61396 0.65406 0.71781 0.0
C103 C 0.55278 0.53728 0.78189 0.0
O104 O 0.54892 0.54314 0.71549 0.0
O105 O 0.53616 0.58222 0.72203 0.0
C106 C 0.63165 0.60661 0.68671 0.0
O107 O 0.57873 0.54231 0.76798 0.0
O108 O 0.53907 0.5542 0.77496 0.0
C109 C 0.60247 0.63804 0.80151 0.0
Fe110 Fe 0.47036 0.05082 0.72841 0.0
Fe111 Fe 0.39626 0.01639 0.74271 0.0
O112 O 0.43386 0.01597 0.74236 0.0
Fe113 Fe 0.43469 0.98063 0.75593 0.0
O114 O 0.44813 0.97455 0.71828 0.0
O115 O 0.48825 0.02611 0.71226 0.0
O116 O 0.4522 0.04719 0.69039 0.0
C117 C 0.42565 0.04734 0.68559 0.0
C118 C 0.49555 0.03479 0.77841 0.0
O119 O 0.40601 0.043 0.70797 0.0
C120 C 0.39506 0.98544 0.79967 0.0
O121 O 0.45862 0.08154 0.74209 0.0
O122 O 0.41318 0.05089 0.76923 0.0
O123 O 0.47792 0.00435 0.77097 0.0
O124 O 0.4907 0.05633 0.76566 0.0
C125 C 0.37423 0.95397 0.72193 0.0
O126 O 0.37958 0.9899 0.77754 0.0
O127 O 0.42137 0.98493 0.7944 0.0
C128 C 0.43823 0.07852 0.76347 0.0
O129 O 0.37756 0.98188 0.7162 0.0
O130 O 0.39154 0.9506 0.74313 0.0
C131 C 0.47437 0.99556 0.70483 0.0
Fe132 Fe 0.71671 0.93026 0.5892 0.0
Fe133 Fe 0.68074 0.96781 0.57326 0.0
O134 O 0.6813 0.93038 0.57455 0.0
Fe135 Fe 0.64638 0.89347 0.56147 0.0
O136 O 0.64097 0.87458 0.59933 0.0
O137 O 0.69297 0.88791 0.60623 0.0
O138 O 0.71223 0.94538 0.62677 0.0
C139 C 0.71157 0.9718 0.63042 0.0
C140 C 0.70168 0.88836 0.53956 0.0
O141 O 0.70804 0.98643 0.60712 0.0
C142 C 0.64885 0.93625 0.51733 0.0
O143 O 0.74662 0.97274 0.57444 0.0
O144 O 0.71477 0.98511 0.54625 0.0
O145 O 0.67103 0.87506 0.54653 0.0
O146 O 0.72286 0.91483 0.55262 0.0
C147 C 0.61901 0.92664 0.59523 0.0
O148 O 0.65331 0.95642 0.53915 0.0
O149 O 0.64969 0.9102 0.52275 0.0
C150 C 0.74297 0.98917 0.55244 0.0
O151 O 0.64669 0.95197 0.6003 0.0
O152 O 0.61576 0.90568 0.57436 0.0
C153 C 0.66239 0.87056 0.61343 0.0
Fe154 Fe 0.13474 0.765 0.56126 0.0
Fe155 Fe 0.10017 0.79998 0.59035 0.0
O156 O 0.09864 0.76374 0.57588 0.0
Fe157 Fe 0.06071 0.72599 0.576 0.0
O158 O 0.07734 0.70761 0.60185 0.0
O159 O 0.12233 0.7221 0.57408 0.0
O160 O 0.15551 0.77906 0.59845 0.0
C161 C 0.16061 0.80515 0.61211 0.0
C162 C 0.08941 0.72471 0.51833 0.0
O163 O 0.14321 0.81841 0.60546 0.0
C164 C 0.03954 0.76741 0.55644 0.0
O165 O 0.15323 0.80792 0.54587 0.0
O166 O 0.11395 0.82033 0.55303 0.0
O167 O 0.06989 0.70932 0.54075 0.0
O168 O 0.11616 0.75124 0.5232 0.0
C169 C 0.0601 0.75513 0.63359 0.0
O170 O 0.05721 0.78775 0.57774 0.0
O171 O 0.04233 0.74262 0.55015 0.0
C172 C 0.13993 0.82529 0.53923 0.0
O173 O 0.08666 0.78175 0.62852 0.0
O174 O 0.0444 0.73556 0.61128 0.0
C175 C 0.10193 0.70451 0.59538 0.0
Fe176 Fe 0.22268 0.30897 0.59204 0.0
Fe177 Fe 0.29662 0.34365 0.57696 0.0
O178 O 0.25894 0.34389 0.57778 0.0
Fe179 Fe 0.25776 0.37909 0.56437 0.0
O180 O 0.24457 0.38509 0.60217 0.0
O181 O 0.20465 0.3335 0.60834 0.0
O182 O 0.24131 0.31291 0.6299 0.0
C183 C 0.268 0.31293 0.63435 0.0
C184 C 0.19697 0.32463 0.54218 0.0
O185 O 0.28734 0.31716 0.61172 0.0
C186 C 0.29715 0.37456 0.52017 0.0
O187 O 0.23457 0.27839 0.57827 0.0
O188 O 0.2795 0.30909 0.55051 0.0
O189 O 0.21443 0.35509 0.54961 0.0
O190 O 0.20198 0.3032 0.55496 0.0
C191 C 0.31852 0.40603 0.59788 0.0
O192 O 0.31286 0.37011 0.54207 0.0
O193 O 0.27081 0.37491 0.52575 0.0
C194 C 0.25471 0.28139 0.55663 0.0
O195 O 0.3155 0.37821 0.60339 0.0
O196 O 0.30094 0.40931 0.57692 0.0
C197 C 0.21845 0.36405 0.61574 0.0
Fe198 Fe 0.71717 0.80355 0.09292 0.0
Fe199 Fe 0.68238 0.72989 0.07704 0.0
O200 O 0.68223 0.76755 0.07826 0.0
Fe201 Fe 0.64709 0.76897 0.06488 0.0
O202 O 0.64097 0.78178 0.10283 0.0
O203 O 0.69263 0.82149 0.1094 0.0
O204 O 0.71296 0.7845 0.13058 0.0
C205 C 0.71283 0.75776 0.13474 0.0
C206 C 0.70186 0.82985 0.04331 0.0
O207 O 0.70875 0.73873 0.11188 0.0
C208 C 0.65167 0.73 0.02027 0.0
O209 O 0.74778 0.79172 0.07904 0.0
O210 O 0.71711 0.74722 0.05075 0.0
O211 O 0.6713 0.81239 0.05053 0.0
O212 O 0.7232 0.82464 0.05607 0.0
C213 C 0.61989 0.70796 0.09782 0.0
O214 O 0.65601 0.71406 0.04201 0.0
O215 O 0.65138 0.75628 0.02612 0.0
C216 C 0.74483 0.77185 0.05716 0.0
O217 O 0.64769 0.71081 0.10329 0.0
O218 O 0.6167 0.72574 0.07704 0.0
C219 C 0.66204 0.80765 0.11673 0.0
Fe220 Fe 0.26178 0.89286 0.06079 0.0
Fe221 Fe 0.22729 0.92762 0.0905 0.0
O222 O 0.26338 0.92896 0.07576 0.0
Fe223 Fe 0.30134 0.96667 0.076 0.0
O224 O 0.31961 0.94965 0.10152 0.0
O225 O 0.3047 0.90487 0.07334 0.0
O226 O 0.24778 0.87195 0.09788 0.0
C227 C 0.2218 0.86697 0.11174 0.0
C228 C 0.30212 0.93824 0.01802 0.0
O229 O 0.20863 0.8845 0.10533 0.0
C230 C 0.26015 0.98837 0.05697 0.0
O231 O 0.21878 0.87476 0.04558 0.0
O232 O 0.20673 0.91419 0.0532 0.0
O233 O 0.31773 0.95754 0.04052 0.0
O234 O 0.27547 0.91161 0.02281 0.0
C235 C 0.27253 0.96714 0.13381 0.0
O236 O 0.23978 0.97068 0.07823 0.0
O237 O 0.28484 0.98543 0.05048 0.0
C238 C 0.20162 0.88832 0.03912 0.0
O239 O 0.24573 0.94078 0.12867 0.0
O240 O 0.29208 0.98288 0.11151 0.0
C241 C 0.32244 0.92498 0.09476 0.0
Fe242 Fe 0.06016 0.34826 0.07354 0.0
Fe243 Fe 0.13452 0.38171 0.06154 0.0
O244 O 0.09744 0.34731 0.07508 0.0
Fe245 Fe 0.09726 0.31207 0.09047 0.0
O246 O 0.08247 0.31754 0.12785 0.0
O247 O 0.04156 0.32179 0.10784 0.0
O248 O 0.07646 0.38283 0.09995 0.0
C249 C 0.10201 0.41022 0.09456 0.0
C250 C 0.0381 0.28557 0.05392 0.0
O251 O 0.12279 0.41285 0.07375 0.0
C252 C 0.13883 0.32568 0.04075 0.0
O253 O 0.07162 0.37496 0.03896 0.0
O254 O 0.11761 0.37782 0.02277 0.0
O255 O 0.05456 0.28221 0.0761 0.0
O256 O 0.0424 0.31369 0.04714 0.0
C257 C 0.15734 0.36638 0.11401 0.0
O258 O 0.15245 0.35644 0.04719 0.0
O259 O 0.11235 0.30495 0.05413 0.0
C260 C 0.09163 0.37882 0.01718 0.0
O261 O 0.1536 0.38769 0.0994 0.0
O262 O 0.13974 0.33575 0.10726 0.0
C263 C 0.05627 0.31871 0.13133 0.0
Fe264 Fe 0.38299 0.26256 0.92559 0.0
Fe265 Fe 0.34725 0.30056 0.91017 0.0
O266 O 0.34783 0.26309 0.91081 0.0
Fe267 Fe 0.31325 0.22641 0.89673 0.0
O268 O 0.30706 0.20662 0.93427 0.0
O269 O 0.35898 0.21973 0.94135 0.0
O270 O 0.37795 0.27649 0.96344 0.0
C271 C 0.37735 0.30282 0.96796 0.0
C272 C 0.36904 0.22215 0.87503 0.0
O273 O 0.37321 0.31789 0.94528 0.0
C274 C 0.31731 0.27042 0.85293 0.0
O275 O 0.41316 0.30545 0.91241 0.0
O276 O 0.38221 0.31892 0.88418 0.0
O277 O 0.33832 0.20841 0.88181 0.0
O278 O 0.38985 0.24842 0.88859 0.0
C279 C 0.28481 0.25869 0.93035 0.0
O280 O 0.32113 0.29023 0.87498 0.0
O281 O 0.31754 0.24406 0.85835 0.0
C282 C 0.4101 0.32249 0.89074 0.0
O283 O 0.3123 0.28393 0.93614 0.0
O284 O 0.28216 0.23817 0.90926 0.0
C285 C 0.32834 0.20222 0.94824 0.0
Fe286 Fe 0.76503 0.13002 0.92659 0.0
Fe287 Fe 0.79893 0.09724 0.89159 0.0
O288 O 0.76343 0.09502 0.90889 0.0
Fe289 Fe 0.72538 0.05679 0.90849 0.0
O290 O 0.6986 0.07481 0.91025 0.0
O291 O 0.73239 0.12716 0.90046 0.0
O292 O 0.79481 0.15988 0.89893 0.0
C293 C 0.80475 0.15659 0.8723 0.0
C294 C 0.72807 0.07723 0.96846 0.0
O295 O 0.80464 0.13027 0.86487 0.0
C296 C 0.7709 0.03584 0.9185 0.0
O297 O 0.79792 0.13575 0.95357 0.0
O298 O 0.82831 0.12691 0.91965 0.0
O299 O 0.72597 0.05449 0.95077 0.0
O300 O 0.73565 0.10552 0.95758 0.0
C301 C 0.74693 0.06055 0.84883 0.0
O302 O 0.79601 0.06453 0.91763 0.0
O303 O 0.74396 0.03051 0.90667 0.0
C304 C 0.82459 0.13645 0.94631 0.0
O305 O 0.77509 0.06811 0.86017 0.0
O306 O 0.72381 0.0581 0.8662 0.0
C307 C 0.7038 0.10194 0.89913 0.0
Fe308 Fe 0.96594 0.68022 0.90949 0.0
Fe309 Fe 0.92751 0.71572 0.89495 0.0
O310 O 0.92831 0.6806 0.90929 0.0
Fe311 Fe 0.89177 0.64591 0.92342 0.0
O312 O 0.90977 0.65005 0.96161 0.0
O313 O 0.956 0.65398 0.94452 0.0
O314 O 0.98438 0.71501 0.93567 0.0
C315 C 0.98766 0.74281 0.9295 0.0
C316 C 0.92406 0.61791 0.88908 0.0
O317 O 0.97048 0.74592 0.90799 0.0
C318 C 0.86692 0.66115 0.8725 0.0
O319 O 0.98291 0.70635 0.87447 0.0
O320 O 0.9412 0.71099 0.85686 0.0
O321 O 0.9036 0.61506 0.91033 0.0
O322 O 0.94923 0.64545 0.88333 0.0
C323 C 0.8875 0.70139 0.94589 0.0
O324 O 0.88453 0.69172 0.87946 0.0
O325 O 0.87156 0.63987 0.88608 0.0
C326 C 0.96758 0.71053 0.85202 0.0
O327 O 0.91363 0.72229 0.93221 0.0
O328 O 0.87374 0.67074 0.9389 0.0
C329 C 0.93629 0.64995 0.96674 0.0
Fe330 Fe 0.34904 0.06203 0.40958 0.0
Fe331 Fe 0.38251 0.1361 0.42329 0.0
O332 O 0.34799 0.09927 0.40936 0.0
Fe333 Fe 0.31243 0.09941 0.39518 0.0
O334 O 0.31714 0.08569 0.35711 0.0
O335 O 0.32269 0.04458 0.37471 0.0
O336 O 0.38367 0.07908 0.38322 0.0
C337 C 0.41109 0.10449 0.38883 0.0
C338 C 0.28634 0.03947 0.42991 0.0
O339 O 0.41376 0.12482 0.41014 0.0
C340 C 0.3266 0.13964 0.4459 0.0
O341 O 0.37561 0.07252 0.44447 0.0
O342 O 0.37884 0.11839 0.46154 0.0
O343 O 0.28274 0.05641 0.40848 0.0
O344 O 0.31442 0.04326 0.43594 0.0
C345 C 0.36642 0.16012 0.37231 0.0
O346 O 0.35727 0.15368 0.43879 0.0
O347 O 0.30585 0.11329 0.43243 0.0
C348 C 0.37939 0.09214 0.46667 0.0
O349 O 0.38805 0.15596 0.38588 0.0
O350 O 0.33588 0.14229 0.37945 0.0
C351 C 0.31802 0.05955 0.35229 0.0
Fe352 Fe 0.89626 0.26297 0.42624 0.0
Fe353 Fe 0.9698 0.30315 0.40921 0.0
O354 O 0.93159 0.26508 0.40869 0.0
Fe355 Fe 0.9297 0.23011 0.39061 0.0
O356 O 0.8998 0.20008 0.41809 0.0
O357 O 0.8903 0.22956 0.45256 0.0
O358 O 0.92033 0.29165 0.45787 0.0
C359 C 0.94849 0.29892 0.46902 0.0
C360 C 0.87031 0.22433 0.37121 0.0
O361 O 0.97152 0.30147 0.45146 0.0
C362 C 0.96674 0.28316 0.34905 0.0
O363 O 0.8994 0.2961 0.40067 0.0
O364 O 0.95156 0.3297 0.41158 0.0
O365 O 0.89686 0.22485 0.36378 0.0
O366 O 0.86672 0.23374 0.39799 0.0
C367 C 0.99094 0.25761 0.41798 0.0
O368 O 0.96904 0.30581 0.36698 0.0
O369 O 0.95911 0.25476 0.3597 0.0
C370 C 0.92463 0.32471 0.4 0.0
O371 O 0.99629 0.28483 0.40695 0.0
O372 O 0.96225 0.23253 0.4166 0.0
C373 C 0.88989 0.20317 0.4448 0.0
Fe374 Fe 0.7259 0.67815 0.41044 0.0
Fe375 Fe 0.76481 0.64339 0.42611 0.0
O376 O 0.76369 0.67809 0.41105 0.0
Fe377 Fe 0.80008 0.71271 0.39659 0.0
O378 O 0.78204 0.70776 0.35829 0.0
O379 O 0.73568 0.70377 0.37501 0.0
O380 O 0.7077 0.64292 0.38478 0.0
C381 C 0.70462 0.61532 0.39152 0.0
C382 C 0.76738 0.74089 0.42997 0.0
O383 O 0.7219 0.61273 0.41325 0.0
C384 C 0.82509 0.69864 0.44814 0.0
O385 O 0.70906 0.65256 0.4458 0.0
O386 O 0.75099 0.64862 0.46394 0.0
O387 O 0.7879 0.74352 0.40887 0.0
O388 O 0.74237 0.71335 0.43608 0.0
C389 C 0.80489 0.65719 0.37529 0.0
O390 O 0.80776 0.66794 0.44156 0.0
O391 O 0.82028 0.71955 0.43403 0.0
C392 C 0.72446 0.6489 0.46849 0.0
O393 O 0.77884 0.63634 0.38913 0.0
O394 O 0.81842 0.68791 0.38183 0.0
C395 C 0.75542 0.70756 0.3529 0.0
C396 C 0.101 0.46285 0.08987 0.0
C397 C 0.10282 0.43928 0.10876 0.0
C398 C 0.09165 0.48475 0.10277 0.0
C399 C 0.08445 0.48308 0.13525 0.0
C400 C 0.0886 0.46078 0.15464 0.0
C401 C 0.09739 0.43891 0.14106 0.0
C402 C 0.08721 0.50796 0.08132 0.0
C403 C 0.08186 0.4586 0.18946 0.0
C404 C 0.07952 0.55144 0.1785 0.0
C405 C 0.04513 0.53724 0.18315 0.0
C406 C 0.09263 0.53472 0.1618 0.0
C407 C 0.07088 0.50316 0.14901 0.0
C408 C 0.03609 0.48944 0.15204 0.0
C409 C 0.02361 0.50658 0.16922 0.0
C410 C 0.12983 0.55008 0.15935 0.0
C411 C 0.01208 0.456 0.13827 0.0
H412 H 0.10438 0.46246 0.06475 0.0
H413 H 0.09837 0.42026 0.15548 0.0
H414 H 0.06038 0.4995 0.07911 0.0
H415 H 0.09947 0.53337 0.09124 0.0
H416 H 0.09737 0.50896 0.05752 0.0
H417 H 0.08909 0.44206 0.20155 0.0
H418 H 0.09555 0.48356 0.2003 0.0
H419 H 0.05502 0.4489 0.19355 0.0
H420 H 0.09649 0.57526 0.18889 0.0
H421 H 0.99706 0.49553 0.17242 0.0
H422 H 0.13725 0.54965 0.13473 0.0
H423 H 0.1379 0.53538 0.17345 0.0
H424 H 0.14324 0.57608 0.16792 0.0
H425 H 0.01818 0.45488 0.11331 0.0
H426 H 0.98595 0.45037 0.13982 0.0
H427 H 0.01424 0.4364 0.15096 0.0
C428 C 0.51859 0.53238 0.173 0.0
C429 C 0.48908 0.52505 0.1884 0.0
C430 C 0.53658 0.5619 0.15579 0.0
C431 C 0.52497 0.58477 0.15421 0.0
C432 C 0.49461 0.57693 0.1687 0.0
C433 C 0.47698 0.54717 0.18542 0.0
C434 C 0.56868 0.56918 0.14028 0.0
C435 C 0.48152 0.60072 0.16787 0.0
C436 C 0.59297 0.67425 0.14478 0.0
C437 C 0.59116 0.67967 0.11273 0.0
C438 C 0.57059 0.64398 0.15877 0.0
C439 C 0.54618 0.61816 0.14008 0.0
C440 C 0.54325 0.62403 0.10791 0.0
C441 C 0.56574 0.65494 0.0946 0.0
C442 C 0.57424 0.63912 0.19326 0.0
C443 C 0.51777 0.59705 0.08717 0.0
H444 H 0.52801 0.5154 0.17489 0.0
H445 H 0.45412 0.54179 0.19704 0.0
H446 H 0.56897 0.57643 0.11546 0.0
H447 H 0.58982 0.59035 0.15228 0.0
H448 H 0.57262 0.54759 0.14103 0.0
H449 H 0.45615 0.58972 0.17789 0.0
H450 H 0.49829 0.62331 0.18149 0.0
H451 H 0.48103 0.60863 0.14346 0.0
H452 H 0.61291 0.69336 0.15866 0.0
H453 H 0.56487 0.65892 0.06966 0.0
H454 H 0.58222 0.62052 0.19626 0.0
H455 H 0.55004 0.62948 0.20537 0.0
H456 H 0.59272 0.66248 0.20494 0.0
H457 H 0.52417 0.57726 0.08428 0.0
H458 H 0.5165 0.60646 0.06359 0.0
H459 H 0.49284 0.58556 0.09813 0.0
C460 C 0.48945 0.95054 0.17445 0.0
C461 C 0.50839 0.98458 0.18136 0.0
C462 C 0.45973 0.93753 0.1575 0.0
C463 C 0.44869 0.95904 0.14681 0.0
C464 C 0.46864 0.99365 0.15196 0.0
C465 C 0.49825 0.00603 0.16926 0.0
C466 C 0.43921 0.90051 0.15266 0.0
C467 C 0.4579 0.01745 0.14049 0.0
C468 C 0.37767 0.92963 0.08815 0.0
C469 C 0.35163 0.925 0.10783 0.0
C470 C 0.40939 0.93984 0.10052 0.0
C471 C 0.41479 0.94506 0.13326 0.0
C472 C 0.38783 0.9382 0.15329 0.0
C473 C 0.35669 0.92863 0.14027 0.0
C474 C 0.43754 0.9472 0.07838 0.0
C475 C 0.39225 0.94273 0.18838 0.0
H476 H 0.4972 0.93368 0.18327 0.0
H477 H 0.51277 0.03233 0.17425 0.0
H478 H 0.41623 0.89045 0.16691 0.0
H479 H 0.43157 0.89469 0.12777 0.0
H480 H 0.4528 0.88757 0.15955 0.0
H481 H 0.47773 0.04372 0.14331 0.0
H482 H 0.45072 0.01279 0.1154 0.0
H483 H 0.43576 0.01352 0.15384 0.0
H484 H 0.3739 0.92771 0.06297 0.0
H485 H 0.33657 0.92557 0.15534 0.0
H486 H 0.45179 0.93549 0.08673 0.0
H487 H 0.4549 0.97435 0.07764 0.0
H488 H 0.42862 0.93843 0.05418 0.0
H489 H 0.40443 0.92925 0.19765 0.0
H490 H 0.36826 0.93376 0.20078 0.0
H491 H 0.40859 0.96937 0.19393 0.0
C492 C 0.43845 0.09968 0.3413 0.0
C493 C 0.44014 0.10603 0.37354 0.0
C494 C 0.46061 0.09177 0.32686 0.0
C495 C 0.48472 0.08956 0.34527 0.0
C496 C 0.48779 0.09786 0.37758 0.0
C497 C 0.46547 0.10622 0.39137 0.0
C498 C 0.45679 0.08374 0.29225 0.0
C499 C 0.51305 0.09563 0.39801 0.0
C500 C 0.50928 0.02921 0.312 0.0
C501 C 0.53903 0.05063 0.29653 0.0
C502 C 0.49217 0.04167 0.32925 0.0
C503 C 0.50493 0.07637 0.33086 0.0
C504 C 0.53549 0.09813 0.31625 0.0
C505 C 0.55222 0.08504 0.29943 0.0
C506 C 0.45978 0.01764 0.34483 0.0
C507 C 0.54981 0.13521 0.31715 0.0
H508 H 0.41857 0.09922 0.32764 0.0
H509 H 0.46625 0.11041 0.41645 0.0
H510 H 0.48109 0.09769 0.28021 0.0
H511 H 0.44778 0.05696 0.2889 0.0
H512 H 0.43896 0.08967 0.2808 0.0
H513 H 0.51497 0.10664 0.42157 0.0
H514 H 0.50584 0.06923 0.40102 0.0
H515 H 0.53786 0.10834 0.38677 0.0
H516 H 0.49902 0.00265 0.31017 0.0
H517 H 0.57527 0.10194 0.28774 0.0
H518 H 0.43906 0.0187 0.33309 0.0
H519 H 0.45997 0.02459 0.36974 0.0
H520 H 0.45474 0.99171 0.34381 0.0
H521 H 0.53359 0.14182 0.30364 0.0
H522 H 0.5752 0.14886 0.30708 0.0
H523 H 0.5507 0.14374 0.3416 0.0
C524 C 0.94978 0.4883 0.31194 0.0
C525 C 0.98132 0.50248 0.29801 0.0
C526 C 0.93675 0.45875 0.32916 0.0
C527 C 0.95552 0.44268 0.33231 0.0
C528 C 0.98746 0.45692 0.31845 0.0
C529 C 1.00011 0.48682 0.30169 0.0
C530 C 0.90286 0.44467 0.34392 0.0
C531 C 0.00814 0.44037 0.32108 0.0
C532 C 0.94161 0.38416 0.39971 0.0
C533 C 0.92459 0.35314 0.385 0.0
C534 C 0.95029 0.41338 0.38322 0.0
C535 C 0.94232 0.41158 0.351 0.0
C536 C 0.9235 0.38014 0.33643 0.0
C537 C 0.91463 0.35116 0.35374 0.0
C538 C 0.96977 0.44626 0.39984 0.0
C539 C 0.91472 0.37718 0.30208 0.0
H540 H 0.93513 0.50033 0.3093 0.0
H541 H 0.02431 0.49742 0.29072 0.0
H542 H 0.88609 0.41938 0.33475 0.0
H543 H 0.9047 0.44249 0.36965 0.0
H544 H 0.89144 0.46023 0.33931 0.0
H545 H 0.03201 0.45405 0.3082 0.0
H546 H 0.01357 0.43852 0.34609 0.0
H547 H 0.99413 0.41475 0.31168 0.0
H548 H 0.94958 0.38564 0.42385 0.0
H549 H 0.90216 0.32722 0.34219 0.0
H550 H 0.95849 0.46195 0.39552 0.0
H551 H 0.99545 0.45973 0.39048 0.0
H552 H 0.97104 0.44325 0.42555 0.0
H553 H 0.90351 0.39264 0.29631 0.0
H554 H 0.89718 0.35115 0.29511 0.0
H555 H 0.93763 0.38646 0.28785 0.0
C556 C 0.52951 0.52052 0.31657 0.0
C557 C 0.5197 0.48957 0.303 0.0
C558 C 0.55916 0.53735 0.33386 0.0
C559 C 0.57955 0.52298 0.33746 0.0
C560 C 0.569 0.4911 0.32509 0.0
C561 C 0.5392 0.47475 0.30818 0.0
C562 C 0.56939 0.57118 0.34708 0.0
C563 C 0.59004 0.47498 0.32824 0.0
C564 C 0.67098 0.58601 0.34525 0.0
C565 C 0.67588 0.58625 0.37765 0.0
C566 C 0.64016 0.56427 0.33175 0.0
C567 C 0.61335 0.54272 0.35126 0.0
C568 C 0.61868 0.5416 0.38387 0.0
C569 C 0.6501 0.56336 0.39672 0.0
C570 C 0.63582 0.56585 0.2968 0.0
C571 C 0.59069 0.51916 0.40546 0.0
H572 H 0.51456 0.53207 0.31296 0.0
H573 H 0.53179 0.45068 0.29812 0.0
H574 H 0.57639 0.57249 0.37212 0.0
H575 H 0.59153 0.59026 0.33433 0.0
H576 H 0.54936 0.57741 0.34507 0.0
H577 H 0.57682 0.44882 0.32013 0.0
H578 H 0.61298 0.48896 0.31412 0.0
H579 H 0.59773 0.47568 0.35297 0.0
H580 H 0.69092 0.60409 0.33065 0.0
H581 H 0.65374 0.56418 0.42189 0.0
H582 H 0.61911 0.57592 0.29217 0.0
H583 H 0.62409 0.54065 0.28644 0.0
H584 H 0.65978 0.58179 0.28467 0.0
H585 H 0.57281 0.52824 0.4073 0.0
H586 H 0.59968 0.51831 0.42938 0.0
H587 H 0.57698 0.49361 0.39591 0.0
C588 C 0.92268 0.56376 0.89186 0.0
C589 C 0.9229 0.58899 0.87392 0.0
C590 C 0.93107 0.54141 0.87821 0.0
C591 C 0.9394 0.54434 0.84592 0.0
C592 C 0.93734 0.56844 0.82741 0.0
C593 C 0.92943 0.59064 0.84172 0.0
C594 C 0.93319 0.51621 0.89874 0.0
C595 C 0.94538 0.57209 0.79281 0.0
C596 C 0.99884 0.51855 0.81251 0.0
C597 C 0.97699 0.48884 0.79721 0.0
C598 C 0.98682 0.53606 0.82977 0.0
C599 C 0.95216 0.52374 0.83154 0.0
C600 C 0.92998 0.49323 0.8171 0.0
C601 C 0.94262 0.4761 0.80029 0.0
C602 C 0.01128 0.56837 0.84519 0.0
C603 C 0.89292 0.4794 0.81815 0.0
H604 H 0.91836 0.56301 0.91691 0.0
H605 H 0.92991 0.61045 0.82797 0.0
H606 H 0.92012 0.49133 0.88768 0.0
H607 H 0.95958 0.52313 0.90155 0.0
H608 H 0.92245 0.51462 0.92237 0.0
H609 H 0.97212 0.58071 0.78948 0.0
H610 H 0.93113 0.54782 0.7808 0.0
H611 H 0.93977 0.5901 0.7813 0.0
H612 H 0.02536 0.52847 0.81053 0.0
H613 H 0.92539 0.45309 0.78873 0.0
H614 H 0.00448 0.56845 0.8701 0.0
H615 H 0.01052 0.58916 0.83336 0.0
H616 H 0.0371 0.573 0.84413 0.0
H617 H 0.88457 0.47871 0.84263 0.0
H618 H 0.87891 0.45402 0.80813 0.0
H619 H 0.88653 0.49578 0.80466 0.0
C620 C 0.5506 0.48812 0.8079 0.0
C621 C 0.53613 0.50796 0.80288 0.0
C622 C 0.53393 0.45826 0.82458 0.0
C623 C 0.50208 0.44799 0.83696 0.0
C624 C 0.48804 0.46869 0.83353 0.0
C625 C 0.50518 0.49838 0.81641 0.0
C626 C 0.54968 0.43687 0.82749 0.0
C627 C 0.45428 0.45878 0.8468 0.0
C628 C 0.43875 0.35665 0.84452 0.0
C629 C 0.43887 0.35152 0.87685 0.0
C630 C 0.46033 0.38754 0.83112 0.0
C631 C 0.48209 0.41421 0.85068 0.0
C632 C 0.48346 0.40872 0.88321 0.0
C633 C 0.46188 0.37723 0.89594 0.0
C634 C 0.45851 0.39204 0.79625 0.0
C635 C 0.50607 0.43658 0.90486 0.0
H636 H 0.57466 0.49532 0.79785 0.0
H637 H 0.49389 0.51358 0.81292 0.0
H638 H 0.54909 0.42918 0.85219 0.0
H639 H 0.53534 0.41398 0.8134 0.0
H640 H 0.57581 0.44978 0.81921 0.0
H641 H 0.44835 0.47901 0.84497 0.0
H642 H 0.435 0.43685 0.83395 0.0
H643 H 0.45291 0.45162 0.8718 0.0
H644 H 0.42057 0.33678 0.8299 0.0
H645 H 0.46132 0.37343 0.92106 0.0
H646 H 0.48365 0.40359 0.78572 0.0
H647 H 0.44863 0.40895 0.79189 0.0
H648 H 0.44228 0.3682 0.78405 0.0
H649 H 0.53167 0.45004 0.89535 0.0
H650 H 0.50679 0.42755 0.92879 0.0
H651 H 0.49724 0.45464 0.90666 0.0
C652 C 0.54043 0.02724 0.80278 0.0
C653 C 0.52538 0.04652 0.79851 0.0
C654 C 0.57045 0.03971 0.8194 0.0
C655 C 0.58547 0.07203 0.83245 0.0
C656 C 0.57004 0.09132 0.82872 0.0
C657 C 0.54031 0.07841 0.81171 0.0
C658 C 0.5863 0.01845 0.82269 0.0
C659 C 0.585 0.12566 0.8426 0.0
C660 C 0.64471 0.08649 0.89945 0.0
C661 C 0.67553 0.10243 0.88428 0.0
C662 C 0.61536 0.07809 0.88321 0.0
C663 C 0.61682 0.08516 0.8508 0.0
C664 C 0.64812 0.10288 0.83574 0.0
C665 C 0.67724 0.11155 0.85279 0.0
C666 C 0.58264 0.0598 0.90035 0.0
C667 C 0.65072 0.11063 0.80116 0.0
H668 H 0.52925 0.00274 0.79241 0.0
H669 H 0.52878 0.09345 0.80862 0.0
H670 H 0.61176 0.03158 0.8128 0.0
H671 H 0.58852 0.01387 0.84785 0.0
H672 H 0.57188 0.99419 0.81061 0.0
H673 H 0.5698 0.13742 0.8377 0.0
H674 H 0.58755 0.12454 0.86836 0.0
H675 H 0.61026 0.14172 0.83298 0.0
H676 H 0.64345 0.07913 0.92376 0.0
H677 H 0.70103 0.12314 0.84091 0.0
H678 H 0.56852 0.03388 0.89172 0.0
H679 H 0.56736 0.07147 0.89568 0.0
H680 H 0.58601 0.05929 0.92609 0.0
H681 H 0.64073 0.08727 0.78755 0.0
H682 H 0.67677 0.12748 0.79374 0.0
H683 H 0.63564 0.12219 0.79508 0.0
C684 C 0.59168 0.93311 0.64194 0.0
C685 C 0.5903 0.92632 0.60983 0.0
C686 C 0.56981 0.94186 0.6556 0.0
C687 C 0.54644 0.94459 0.63647 0.0
C688 C 0.54385 0.93615 0.60423 0.0
C689 C 0.56578 0.92685 0.59127 0.0
C690 C 0.57297 0.94993 0.69019 0.0
C691 C 0.51951 0.9391 0.58305 0.0
C692 C 0.4779 0.94863 0.68046 0.0
C693 C 0.49126 0.983 0.68408 0.0
C694 C 0.49495 0.93577 0.66394 0.0
C695 C 0.52597 0.95773 0.65023 0.0
C696 C 0.53881 0.99242 0.65228 0.0
C697 C 0.52139 0.00467 0.66935 0.0
C698 C 0.48058 0.89868 0.66261 0.0
C699 C 0.57162 0.01662 0.6375 0.0
H700 H 0.61101 0.93307 0.65611 0.0
H701 H 0.56535 0.92239 0.56627 0.0
H702 H 0.582 0.97673 0.69344 0.0
H703 H 0.54841 0.93605 0.70179 0.0
H704 H 0.59049 0.94392 0.70217 0.0
H705 H 0.51822 0.92844 0.55944 0.0
H706 H 0.49433 0.92646 0.59355 0.0
H707 H 0.5271 0.96563 0.58029 0.0
H708 H 0.45452 0.93153 0.69152 0.0
H709 H 0.53177 0.0312 0.67176 0.0
H710 H 0.49634 0.89181 0.67657 0.0
H711 H 0.48041 0.89051 0.63816 0.0
H712 H 0.45488 0.88493 0.67199 0.0
H713 H 0.59201 0.01561 0.64995 0.0
H714 H 0.5765 0.0425 0.63838 0.0
H715 H 0.57224 0.00981 0.61268 0.0
C716 C 0.02011 0.52822 0.66931 0.0
C717 C 0.04165 0.51837 0.68186 0.0
C718 C 0.03251 0.55787 0.65214 0.0
C719 C 0.06722 0.57821 0.64764 0.0
C720 C 0.08886 0.56754 0.65887 0.0
C721 C 0.07584 0.53775 0.67561 0.0
C722 C 0.00857 0.56819 0.64004 0.0
C723 C 0.12599 0.5885 0.6548 0.0
C724 C 0.09753 0.64936 0.58913 0.0
C725 C 0.10154 0.67524 0.60869 0.0
C726 C 0.08714 0.61765 0.60149 0.0
C727 C 0.08111 0.61208 0.63413 0.0
C728 C 0.08727 0.63886 0.65409 0.0
C729 C 0.09703 0.66999 0.64106 0.0
C730 C 0.08053 0.5897 0.57941 0.0
C731 C 0.08189 0.63427 0.68908 0.0
H732 H 0.99371 0.51338 0.67377 0.0
H733 H 0.0928 0.53029 0.68482 0.0
H734 H 0.0119 0.59011 0.65334 0.0
H735 H 0.0137 0.57549 0.61502 0.0
H736 H 0.98232 0.54811 0.64238 0.0
H737 H 0.13914 0.57527 0.66219 0.0
H738 H 0.13231 0.5962 0.62999 0.0
H739 H 0.13543 0.61141 0.66905 0.0
H740 H 0.10012 0.65326 0.56398 0.0
H741 H 0.09962 0.68997 0.65604 0.0
H742 H 0.05343 0.57206 0.57828 0.0
H743 H 0.09245 0.57576 0.58811 0.0
H744 H 0.08965 0.59871 0.55532 0.0
H745 H 0.05513 0.61766 0.69405 0.0
H746 H 0.09027 0.65812 0.70151 0.0
H747 H 0.09542 0.62235 0.69885 0.0
C748 C 0.35266 0.43256 0.6448 0.0
C749 C 0.34683 0.43469 0.6129 0.0
C750 C 0.38289 0.45519 0.65878 0.0
C751 C 0.40826 0.48021 0.6402 0.0
C752 C 0.40197 0.48342 0.60822 0.0
C753 C 0.37109 0.46066 0.59494 0.0
C754 C 0.38819 0.45124 0.69309 0.0
C755 C 0.42848 0.50955 0.5876 0.0
C756 C 0.47875 0.54965 0.6859 0.0
C757 C 0.50151 0.53826 0.68827 0.0
C758 C 0.44891 0.53172 0.66928 0.0
C759 C 0.44167 0.50181 0.65424 0.0
C760 C 0.46518 0.49096 0.65521 0.0
C761 C 0.49474 0.50921 0.67236 0.0
C762 C 0.4244 0.54396 0.66915 0.0
C763 C 0.45856 0.45939 0.63909 0.0
H764 H 0.3339 0.41225 0.65858 0.0
H765 H 0.36679 0.46182 0.57011 0.0
H766 H 0.40734 0.44388 0.69559 0.0
H767 H 0.39738 0.47515 0.70559 0.0
H768 H 0.3651 0.4322 0.70474 0.0
H769 H 0.41873 0.51084 0.56419 0.0
H770 H 0.43949 0.53426 0.59891 0.0
H771 H 0.44876 0.50388 0.58429 0.0
H772 H 0.48367 0.57213 0.69796 0.0
H773 H 0.51223 0.50035 0.67378 0.0
H774 H 0.40206 0.52664 0.68279 0.0
H775 H 0.41615 0.54455 0.64489 0.0
H776 H 0.43496 0.56911 0.67953 0.0
H777 H 0.43776 0.43781 0.65097 0.0
H778 H 0.48059 0.45611 0.63936 0.0
H779 H 0.451 0.45926 0.61439 0.0
C780 C 0.76737 0.79423 0.4257 0.0
C781 C 0.7682 0.76997 0.44434 0.0
C782 C 0.7587 0.8166 0.43878 0.0
C783 C 0.75117 0.8147 0.47121 0.0
C784 C 0.75422 0.79158 0.49036 0.0
C785 C 0.76236 0.7693 0.47661 0.0
C786 C 0.75544 0.8407 0.41757 0.0
C787 C 0.74709 0.78909 0.52511 0.0
C788 C 0.74825 0.88397 0.51512 0.0
C789 C 0.71392 0.87089 0.51914 0.0
C790 C 0.76072 0.86661 0.49848 0.0
C791 C 0.73841 0.83548 0.48516 0.0
C792 C 0.70374 0.82281 0.48777 0.0
C793 C 0.6919 0.84059 0.50485 0.0
C794 C 0.7978 0.88086 0.49649 0.0
C795 C 0.67913 0.78984 0.47354 0.0
H796 H 0.77112 0.79417 0.40061 0.0
H797 H 0.76265 0.75019 0.49088 0.0
H798 H 0.72886 0.83324 0.41529 0.0
H799 H 0.76847 0.866 0.42775 0.0
H800 H 0.76555 0.84156 0.39377 0.0
H801 H 0.75333 0.77173 0.53705 0.0
H802 H 0.7614 0.81381 0.53631 0.0
H803 H 0.72038 0.78027 0.52896 0.0
H804 H 0.76561 0.90746 0.52584 0.0
H805 H 0.66539 0.83039 0.50756 0.0
H806 H 0.80544 0.88069 0.47189 0.0
H807 H 0.80494 0.86526 0.51034 0.0
H808 H 0.81182 0.90663 0.50558 0.0
H809 H 0.68531 0.78889 0.44857 0.0
H810 H 0.65325 0.78497 0.47498 0.0
H811 H 0.68048 0.76965 0.48596 0.0
C812 C 0.23269 0.98601 0.42617 0.0
C813 C 0.25788 0.01068 0.44455 0.0
C814 C 0.21052 0.95479 0.43909 0.0
C815 C 0.21351 0.94854 0.47113 0.0
C816 C 0.23766 0.97425 0.49011 0.0
C817 C 0.25972 0.00485 0.47649 0.0
C818 C 0.18531 0.92793 0.41806 0.0
C819 C 0.24131 0.96898 0.52449 0.0
C820 C 0.14468 0.87675 0.51589 0.0
C821 C 0.15715 0.85493 0.51869 0.0
C822 C 0.16206 0.90666 0.49938 0.0
C823 C 0.19253 0.91493 0.48487 0.0
C824 C 0.20446 0.89231 0.48617 0.0
C825 C 0.18673 0.86265 0.50322 0.0
C826 C 0.14863 0.93019 0.49887 0.0
C827 C 0.23667 0.90006 0.4706 0.0
H828 H 0.23178 0.99032 0.4013 0.0
H829 H 0.27945 0.02393 0.49059 0.0
H830 H 0.19202 0.90839 0.41489 0.0
H831 H 0.16033 0.91605 0.42895 0.0
H832 H 0.184 0.93757 0.39462 0.0
H833 H 0.25963 0.99223 0.53642 0.0
H834 H 0.21707 0.95897 0.5366 0.0
H835 H 0.24952 0.95051 0.52715 0.0
H836 H 0.12175 0.87107 0.52756 0.0
H837 H 0.19643 0.84589 0.50498 0.0
H838 H 0.14819 0.93839 0.47457 0.0
H839 H 0.16517 0.95264 0.51277 0.0
H840 H 0.12319 0.91883 0.50878 0.0
H841 H 0.23697 0.90765 0.4459 0.0
H842 H 0.24079 0.87857 0.47097 0.0
H843 H 0.25769 0.92112 0.48282 0.0
C844 C 0.01655 0.24666 0.46431 0.0
C845 C 0.01902 0.25701 0.43315 0.0
C846 C 0.04528 0.25512 0.48195 0.0
C847 C 0.07697 0.27394 0.4678 0.0
C848 C 0.07925 0.28222 0.43564 0.0
C849 C 0.05026 0.27394 0.41881 0.0
C850 C 0.0418 0.24601 0.51623 0.0
C851 C 0.11241 0.3017 0.41946 0.0
C852 C 0.15159 0.33145 0.51799 0.0
C853 C 0.16732 0.31275 0.52184 0.0
C854 C 0.12184 0.31883 0.50092 0.0
C855 C 0.10781 0.287 0.48693 0.0
C856 C 0.12391 0.26829 0.4903 0.0
C857 C 0.15332 0.2813 0.50783 0.0
C858 C 0.10523 0.33944 0.49808 0.0
C859 C 0.11006 0.23452 0.4754 0.0
H860 H 0.99242 0.23424 0.47556 0.0
H861 H 0.05211 0.2822 0.39475 0.0
H862 H 0.05727 0.23485 0.52219 0.0
H863 H 0.05077 0.26874 0.53065 0.0
H864 H 0.01565 0.22834 0.52278 0.0
H865 H 0.10976 0.30308 0.3937 0.0
H866 H 0.12579 0.3273 0.42895 0.0
H867 H 0.12803 0.29037 0.42404 0.0
H868 H 0.16205 0.35559 0.52901 0.0
H869 H 0.1654 0.26672 0.51061 0.0
H870 H 0.07946 0.32535 0.50717 0.0
H871 H 0.10368 0.34499 0.47305 0.0
H872 H 0.11873 0.36321 0.51112 0.0
H873 H 0.08457 0.21773 0.48416 0.0
H874 H 0.12555 0.22309 0.4803 0.0
H875 H 0.10831 0.23651 0.44963 0.0
C876 C 0.10209 0.42836 0.67663 0.0
C877 C 0.10261 0.43453 0.7088 0.0
C878 C 0.12395 0.41932 0.66345 0.0
C879 C 0.14639 0.41564 0.68312 0.0
C880 C 0.14813 0.42344 0.71545 0.0
C881 C 0.12625 0.43306 0.72794 0.0
C882 C 0.12172 0.41195 0.62874 0.0
C883 C 0.17143 0.41944 0.73721 0.0
C884 C 0.17085 0.35505 0.65036 0.0
C885 C 0.20154 0.37661 0.63648 0.0
C886 C 0.15339 0.36745 0.66714 0.0
C887 C 0.16677 0.40218 0.66977 0.0
C888 C 0.19835 0.42399 0.65701 0.0
C889 C 0.21542 0.41097 0.64076 0.0
C890 C 0.11996 0.3434 0.68094 0.0
C891 C 0.21334 0.46113 0.65898 0.0
H892 H 0.08337 0.42905 0.66202 0.0
H893 H 0.12596 0.43699 0.75297 0.0
H894 H 0.14668 0.42562 0.61785 0.0
H895 H 0.11225 0.38512 0.62509 0.0
H896 H 0.10497 0.41873 0.61637 0.0
H897 H 0.17224 0.42976 0.76089 0.0
H898 H 0.16319 0.39272 0.73965 0.0
H899 H 0.19691 0.4318 0.72741 0.0
H900 H 0.16005 0.32853 0.64743 0.0
H901 H 0.23925 0.42798 0.63039 0.0
H902 H 0.10021 0.34509 0.66796 0.0
H903 H 0.11868 0.3498 0.70576 0.0
H904 H 0.11464 0.31738 0.6798 0.0
H905 H 0.19839 0.46875 0.64468 0.0
H906 H 0.23935 0.47466 0.65038 0.0
H907 H 0.21288 0.46884 0.68349 0.0
C908 C 0.59292 0.6904 0.67807 0.0
C909 C 0.58932 0.68593 0.71057 0.0
C910 C 0.60282 0.72135 0.66452 0.0
C911 C 0.61006 0.74872 0.68408 0.0
C912 C 0.60488 0.74394 0.71689 0.0
C913 C 0.59434 0.71241 0.72978 0.0
C914 C 0.60729 0.7251 0.6294 0.0
C915 C 0.61261 0.77252 0.73854 0.0
C916 C 0.67151 0.83152 0.6473 0.0
C917 C 0.6502 0.84185 0.63514 0.0
C918 C 0.65894 0.80204 0.66478 0.0
C919 C 0.62426 0.78237 0.67 0.0
C920 C 0.6029 0.79352 0.6591 0.0
C921 C 0.6161 0.82312 0.64203 0.0
C922 C 0.68259 0.79118 0.67647 0.0
C923 C 0.56582 0.77327 0.66395 0.0
H924 H 0.58961 0.66996 0.66336 0.0
H925 H 0.59248 0.70911 0.75501 0.0
H926 H 0.59403 0.73736 0.61978 0.0
H927 H 0.63399 0.74107 0.62375 0.0
H928 H 0.59802 0.70089 0.61738 0.0
H929 H 0.60401 0.76414 0.76287 0.0
H930 H 0.63982 0.78976 0.73902 0.0
H931 H 0.60094 0.78672 0.7299 0.0
H932 H 0.69785 0.84585 0.64234 0.0
H933 H 0.59933 0.83096 0.63313 0.0
H934 H 0.67834 0.76877 0.66347 0.0
H935 H 0.67804 0.78446 0.70166 0.0
H936 H 0.70895 0.81075 0.67342 0.0
H937 H 0.55563 0.75003 0.65011 0.0
H938 H 0.55297 0.78682 0.65661 0.0
H939 H 0.55998 0.76616 0.68893 0.0
C940 C 0.19749 0.85171 0.64851 0.0
C941 C 0.19038 0.82259 0.63253 0.0
C942 C 0.22716 0.86973 0.66556 0.0
C943 C 0.25043 0.85856 0.66637 0.0
C944 C 0.2428 0.82854 0.65133 0.0
C945 C 0.21286 0.81085 0.6348 0.0
C946 C 0.23418 0.90142 0.6817 0.0
C947 C 0.26702 0.81595 0.65132 0.0
C948 C 0.3397 0.92738 0.67521 0.0
C949 C 0.34571 0.92536 0.70708 0.0
C950 C 0.30933 0.90482 0.66143 0.0
C951 C 0.28399 0.87998 0.68017 0.0
C952 C 0.29046 0.87685 0.71212 0.0
C953 C 0.32148 0.89953 0.7252 0.0
C954 C 0.30383 0.90868 0.62714 0.0
C955 C 0.264 0.85091 0.73292 0.0
H956 H 0.18022 0.86084 0.64718 0.0
H957 H 0.20766 0.7883 0.62271 0.0
H958 H 0.2419 0.90154 0.70633 0.0
H959 H 0.25499 0.92287 0.66969 0.0
H960 H 0.21228 0.90493 0.68161 0.0
H961 H 0.25614 0.79071 0.64107 0.0
H962 H 0.2893 0.83301 0.63747 0.0
H963 H 0.27546 0.81542 0.67552 0.0
H964 H 0.35845 0.94757 0.6613 0.0
H965 H 0.32592 0.89843 0.75001 0.0
H966 H 0.28483 0.91625 0.62476 0.0
H967 H 0.29436 0.8847 0.61473 0.0
H968 H 0.3269 0.92753 0.61534 0.0
H969 H 0.24394 0.85685 0.73646 0.0
H970 H 0.2739 0.84955 0.75622 0.0
H971 H 0.25266 0.82616 0.72165 0.0
C972 C 0.59356 0.89979 0.22953 0.0
C973 C 0.5904 0.92212 0.20994 0.0
C974 C 0.60323 0.87791 0.21721 0.0
C975 C 0.60937 0.87832 0.1846 0.0
C976 C 0.60382 0.89929 0.16458 0.0
C977 C 0.59479 0.92122 0.17758 0.0
C978 C 0.60919 0.85618 0.23933 0.0
C979 C 0.60938 0.90005 0.12962 0.0
C980 C 0.67078 0.85563 0.15053 0.0
C981 C 0.64944 0.82424 0.13782 0.0
C982 C 0.65812 0.87282 0.16736 0.0
C983 C 0.62334 0.85838 0.17132 0.0
C984 C 0.60186 0.8261 0.15989 0.0
C985 C 0.61515 0.80937 0.14349 0.0
C986 C 0.68187 0.90707 0.17968 0.0
C987 C 0.56467 0.80992 0.16341 0.0
H988 H 0.59103 0.90123 0.25467 0.0
H989 H 0.59284 0.93897 0.16262 0.0
H990 H 0.59732 0.8304 0.23038 0.0
H991 H 0.63624 0.86551 0.24096 0.0
H992 H 0.59961 0.85588 0.26325 0.0
H993 H 0.60103 0.91547 0.11711 0.0
H994 H 0.63619 0.91029 0.1248 0.0
H995 H 0.59596 0.87458 0.11983 0.0
H996 H 0.69726 0.86722 0.14651 0.0
H997 H 0.59835 0.78496 0.13411 0.0
H998 H 0.67644 0.90912 0.20465 0.0
H999 H 0.67866 0.92569 0.16635 0.0
H1000 H 0.70817 0.91333 0.17763 0.0
H1001 H 0.55797 0.81129 0.18809 0.0
H1002 H 0.55163 0.78353 0.15597 0.0
H1003 H 0.55548 0.8234 0.1489 0.0
C1004 C 0.1282 0.70654 0.22513 0.0
C1005 C 0.10241 0.68216 0.20705 0.0
C1006 C 0.15072 0.73753 0.21197 0.0
C1007 C 0.14745 0.74383 0.18001 0.0
C1008 C 0.12264 0.71836 0.16132 0.0
C1009 C 0.10026 0.688 0.17517 0.0
C1010 C 0.17664 0.76414 0.23271 0.0
C1011 C 0.11862 0.72367 0.12703 0.0
C1012 C 0.17525 0.83003 0.14814 0.0
C1013 C 0.20442 0.83724 0.13216 0.0
C1014 C 0.15736 0.80044 0.16524 0.0
C1015 C 0.16871 0.77733 0.16611 0.0
C1016 C 0.19877 0.78505 0.15105 0.0
C1017 C 0.21633 0.81491 0.13446 0.0
C1018 C 0.1256 0.79331 0.18138 0.0
C1019 C 0.21158 0.76101 0.15111 0.0
H1020 H 0.12939 0.70223 0.24995 0.0
H1021 H 0.08008 0.66914 0.1613 0.0
H1022 H 0.2014 0.77556 0.22142 0.0
H1023 H 0.17053 0.78407 0.23619 0.0
H1024 H 0.17812 0.75439 0.25604 0.0
H1025 H 0.09979 0.70054 0.11528 0.0
H1026 H 0.11089 0.74253 0.12461 0.0
H1027 H 0.14261 0.73321 0.11458 0.0
H1028 H 0.16599 0.84719 0.14677 0.0
H1029 H 0.23893 0.82018 0.12238 0.0
H1030 H 0.12559 0.78574 0.20604 0.0
H1031 H 0.10416 0.7724 0.16943 0.0
H1032 H 0.12193 0.81508 0.18121 0.0
H1033 H 0.21226 0.75275 0.17534 0.0
H1034 H 0.23681 0.77195 0.1408 0.0
H1035 H 0.19451 0.73865 0.13736 0.0
C1036 C 0.196 0.35728 0.14848 0.0
C1037 C 0.18599 0.37863 0.13586 0.0
C1038 C 0.22546 0.36981 0.16605 0.0
C1039 C 0.2454 0.40447 0.17091 0.0
C1040 C 0.23453 0.4259 0.15961 0.0
C1041 C 0.20496 0.41275 0.14242 0.0
C1042 C 0.23603 0.34609 0.17816 0.0
C1043 C 0.25507 0.46297 0.16411 0.0
C1044 C 0.31567 0.43404 0.23042 0.0
C1045 C 0.34188 0.43832 0.21116 0.0
C1046 C 0.28416 0.42398 0.21761 0.0
C1047 C 0.27914 0.41852 0.18486 0.0
C1048 C 0.3063 0.42511 0.16522 0.0
C1049 C 0.33722 0.43458 0.17868 0.0
C1050 C 0.2558 0.41697 0.23933 0.0
C1051 C 0.30228 0.42032 0.13013 0.0
H1052 H 0.18146 0.33093 0.14378 0.0
H1053 H 0.19733 0.42955 0.13317 0.0
H1054 H 0.25834 0.34991 0.1652 0.0
H1055 H 0.24286 0.35096 0.20331 0.0
H1056 H 0.21623 0.3198 0.17539 0.0
H1057 H 0.2416 0.47588 0.15672 0.0
H1058 H 0.26245 0.46905 0.18903 0.0
H1059 H 0.2782 0.47283 0.15012 0.0
H1060 H 0.31912 0.43606 0.25564 0.0
H1061 H 0.35746 0.43739 0.16393 0.0
H1062 H 0.23837 0.38985 0.24029 0.0
H1063 H 0.2417 0.42866 0.23045 0.0
H1064 H 0.26448 0.42603 0.26352 0.0
H1065 H 0.28598 0.39363 0.12471 0.0
H1066 H 0.3264 0.42916 0.11803 0.0
H1067 H 0.29023 0.43374 0.12041 0.0
C1068 C 0.14277 0.2785 0.01727 0.0
C1069 C 0.15592 0.31287 0.0205 0.0
C1070 C 0.15977 0.26561 0.00063 0.0
C1071 C 0.1906 0.28754 0.98654 0.0
C1072 C 0.20332 0.32222 0.98843 0.0
C1073 C 0.18591 0.33448 0.00549 0.0
C1074 C 0.14548 0.22854 -0.00058 0.0
C1075 C 0.23598 0.34642 0.97339 0.0
C1076 C 0.25697 0.26388 0.97734 0.0
C1077 C 0.25572 0.25756 0.94513 0.0
C1078 C 0.23476 0.272 0.99133 0.0
C1079 C 0.21108 0.27448 0.97248 0.0
C1080 C 0.20851 0.26633 0.94016 0.0
C1081 C 0.23086 0.25774 0.92683 0.0
C1082 C 0.23802 0.27984 0.02597 0.0
C1083 C 0.18375 0.26889 0.91927 0.0
H1084 H 0.11952 0.26145 0.02857 0.0
H1085 H 0.19615 0.36102 0.0076 0.0
H1086 H 0.14507 0.22028 0.97495 0.0
H1087 H 0.16144 0.22178 0.01319 0.0
H1088 H 0.1199 0.21477 0.00906 0.0
H1089 H 0.24092 0.37232 0.97445 0.0
H1090 H 0.25649 0.34533 0.9855 0.0
H1091 H 0.23628 0.33967 0.94849 0.0
H1092 H 0.27652 0.26408 0.99135 0.0
H1093 H 0.23044 0.25359 0.90177 0.0
H1094 H 0.21351 0.2658 0.03765 0.0
H1095 H 0.24693 0.3066 0.02939 0.0
H1096 H 0.25566 0.27388 0.03774 0.0
H1097 H 0.15871 0.25611 0.93004 0.0
H1098 H 0.1823 0.25814 0.89567 0.0
H1099 H 0.19108 0.29535 0.91644 0.0
C1100 C 0.69522 0.87525 0.01894 0.0
C1101 C 0.71397 0.85961 0.02313 0.0
C1102 C 0.70802 0.90502 0.00194 0.0
C1103 C 0.74009 0.91916 0.98837 0.0
C1104 C 0.75887 0.90318 0.99214 0.0
C1105 C 0.74568 0.87375 0.00956 0.0
C1106 C 0.68732 0.92149 -0.00134 0.0
C1107 C 0.79292 0.91717 0.97773 0.0
C1108 C 0.75424 0.9765 0.91986 0.0
C1109 C 0.77106 0.00776 0.93413 0.0
C1110 C 0.74556 0.94758 0.93689 0.0
C1111 C 0.75333 0.94994 0.9692 0.0
C1112 C 0.77197 0.98163 0.98334 0.0
C1113 C 0.78084 0.01029 0.96551 0.0
C1114 C 0.72627 0.91442 0.92071 0.0
C1115 C 0.78054 0.9852 0.01777 0.0
H1116 H 0.67089 0.86469 0.02961 0.0
H1117 H 0.76031 0.86175 0.01259 0.0
H1118 H 0.7013 0.94729 0.00762 0.0
H1119 H 0.68193 0.92285 0.97354 0.0
H1120 H 0.66344 0.90804 0.01155 0.0
H1121 H 0.80444 0.90184 0.98301 0.0
H1122 H 0.79128 0.91883 0.95191 0.0
H1123 H 0.8095 0.94267 0.98654 0.0
H1124 H 0.74641 0.97459 0.89562 0.0
H1125 H 0.79315 0.03442 0.97672 0.0
H1126 H 0.70055 0.90102 0.92996 0.0
H1127 H 0.73763 0.89889 0.92556 0.0
H1128 H 0.72512 0.91699 0.89491 0.0
H1129 H 0.75755 0.97622 0.03181 0.0
H1130 H 0.79808 0.01133 0.0244 0.0
H1131 H 0.79166 0.9698 0.02415 0.0
C1132 C 0.15073 0.88457 0.01521 0.0
C1133 C 0.17203 0.8715 0.01842 0.0
C1134 C 0.12082 0.86754 -0.00144 0.0
C1135 C 0.11201 0.83681 0.98438 0.0
C1136 C 0.13414 0.82429 0.98606 0.0
C1137 C 0.16383 0.8417 0.00319 0.0
C1138 C 0.09784 0.88162 -0.00243 0.0
C1139 C 0.12581 0.79177 0.97087 0.0
C1140 C 0.0218 0.77029 0.97612 0.0
C1141 C 0.01622 0.77158 0.94403 0.0
C1142 C 0.05238 0.79248 0.98976 0.0
C1143 C 0.0783 0.81614 0.97066 0.0
C1144 C 0.07225 0.81867 0.93847 0.0
C1145 C 0.04105 0.79638 0.92551 0.0
C1146 C 0.05746 0.78932 0.0243 0.0
C1147 C 0.09932 0.84339 0.91732 0.0
H1148 H 0.15682 0.9077 0.02665 0.0
H1149 H 0.18019 0.83154 0.00525 0.0
H1150 H 0.08964 0.88178 0.9732 0.0
H1151 H 0.0753 0.86571 0.01162 0.0
H1152 H 0.1097 0.90724 0.00706 0.0
H1153 H 0.14699 0.78714 0.97153 0.0
H1154 H 0.10445 0.77115 0.98318 0.0
H1155 H 0.11834 0.79135 0.94609 0.0
H1156 H 0.00258 0.75084 0.99031 0.0
H1157 H 0.03691 0.79685 0.90054 0.0
H1158 H 0.06787 0.81379 0.03601 0.0
H1159 H 0.07558 0.78069 0.02739 0.0
H1160 H 0.03402 0.77154 0.03629 0.0
H1161 H 0.11166 0.86844 0.92803 0.0
H1162 H 0.08972 0.8447 0.89385 0.0
H1163 H 0.11852 0.83617 0.91423 0.0
C1164 C 0.36031 0.17505 0.83983 0.0
C1165 C 0.38185 0.20531 0.85443 0.0
C1166 C 0.37273 0.15788 0.8226 0.0
C1167 C 0.40751 0.17113 0.82015 0.0
C1168 C 0.42933 0.20222 0.8338 0.0
C1169 C 0.41628 0.21898 0.85059 0.0
C1170 C 0.34863 0.12493 0.808 0.0
C1171 C 0.46651 0.21709 0.83199 0.0
C1172 C 0.43297 0.10615 0.81061 0.0
C1173 C 0.43892 0.10733 0.77833 0.0
C1174 C 0.42434 0.12792 0.82471 0.0
C1175 C 0.4209 0.15103 0.8059 0.0
C1176 C 0.42861 0.15351 0.77348 0.0
C1177 C 0.43777 0.13165 0.76005 0.0
C1178 C 0.41704 0.12483 0.85945 0.0
C1179 C 0.42498 0.17763 0.75262 0.0
H1180 H 0.33373 0.1644 0.84242 0.0
H1181 H 0.43329 0.24245 0.86154 0.0
H1182 H 0.35501 0.12444 0.78302 0.0
H1183 H 0.35037 0.10482 0.82016 0.0
H1184 H 0.32257 0.11954 0.80944 0.0
H1185 H 0.48009 0.24274 0.84142 0.0
H1186 H 0.47393 0.20158 0.84563 0.0
H1187 H 0.47438 0.21743 0.80739 0.0
H1188 H 0.43349 0.08699 0.8246 0.0
H1189 H 0.44159 0.13197 0.73494 0.0
H1190 H 0.39021 0.11544 0.86324 0.0
H1191 H 0.43088 0.14944 0.87094 0.0
H1192 H 0.4237 0.10766 0.87113 0.0
H1193 H 0.3983 0.16974 0.75026 0.0
H1194 H 0.43534 0.17904 0.72884 0.0
H1195 H 0.43756 0.20276 0.76315 0.0
C1196 C 0.84282 0.19015 0.82837 0.0
C1197 C 0.81906 0.18561 0.85097 0.0
C1198 C 0.85965 0.21996 0.81138 0.0
C1199 C 0.85218 0.24555 0.81687 0.0
C1200 C 0.82646 0.23999 0.83793 0.0
C1201 C 0.81039 0.21023 0.85484 0.0
C1202 C 0.88697 0.22493 0.78913 0.0
C1203 C 0.81731 0.2663 0.84414 0.0
C1204 C 0.92529 0.33265 0.80949 0.0
C1205 C 0.92087 0.34196 0.77941 0.0
C1206 C 0.90258 0.30179 0.82215 0.0
C1207 C 0.87447 0.27953 0.80439 0.0
C1208 C 0.86869 0.28953 0.77476 0.0
C1209 C 0.89206 0.32076 0.76254 0.0
C1210 C 0.90966 0.29243 0.85397 0.0
C1211 C 0.83878 0.26665 0.75534 0.0
H1212 H 0.84952 0.17118 0.82514 0.0
H1213 H 0.79156 0.20664 0.87185 0.0
H1214 H 0.88426 0.2349 0.76642 0.0
H1215 H 0.91133 0.24336 0.79919 0.0
H1216 H 0.88717 0.20155 0.78471 0.0
H1217 H 0.79363 0.25638 0.8573 0.0
H1218 H 0.83722 0.28663 0.8581 0.0
H1219 H 0.81503 0.2772 0.82182 0.0
H1220 H 0.94748 0.34908 0.82267 0.0
H1221 H 0.88873 0.32772 0.73915 0.0
H1222 H 0.91346 0.27085 0.85161 0.0
H1223 H 0.88819 0.28498 0.86984 0.0
H1224 H 0.93206 0.31305 0.86516 0.0
H1225 H 0.84162 0.24582 0.74651 0.0
H1226 H 0.83554 0.27956 0.73494 0.0
H1227 H 0.81593 0.25582 0.76982 0.0
C1228 C 0.82964 0.67123 0.83706 0.0
C1229 C 0.83733 0.64909 0.85191 0.0
C1230 C 0.79995 0.65958 0.82007 0.0
C1231 C 0.77729 0.62503 0.81816 0.0
C1232 C 0.78556 0.60257 0.83197 0.0
C1233 C 0.81549 0.61483 0.84846 0.0
C1234 C 0.7922 0.68431 0.80523 0.0
C1235 C 0.762 0.56561 0.83079 0.0
C1236 C 0.68734 0.60243 0.8104 0.0
C1237 C 0.68148 0.59543 0.77835 0.0
C1238 C 0.71795 0.61065 0.82384 0.0
C1239 C 0.74363 0.61261 0.80456 0.0
C1240 C 0.73734 0.60405 0.77237 0.0
C1241 C 0.7061 0.59528 0.75963 0.0
C1242 C 0.72329 0.61885 0.85838 0.0
C1243 C 0.76417 0.60617 0.75103 0.0
H1244 H 0.84642 0.69767 0.83933 0.0
H1245 H 0.82117 0.59738 0.85961 0.0
H1246 H 0.78454 0.67749 0.78045 0.0
H1247 H 0.77115 0.68397 0.81774 0.0
H1248 H 0.81374 0.70994 0.80596 0.0
H1249 H 0.77339 0.55137 0.84013 0.0
H1250 H 0.73955 0.55933 0.84485 0.0
H1251 H 0.75372 0.55747 0.80638 0.0
H1252 H 0.6683 0.60284 0.82474 0.0
H1253 H 0.70175 0.5906 0.73469 0.0
H1254 H 0.74178 0.6455 0.8615 0.0
H1255 H 0.73334 0.60442 0.86996 0.0
H1256 H 0.70002 0.61358 0.8705 0.0
H1257 H 0.78373 0.63251 0.74821 0.0
H1258 H 0.75445 0.59562 0.72746 0.0
H1259 H 0.77612 0.59295 0.76143 0.0
C1260 C 0.88522 0.7484 0.9718 0.0
C1261 C 0.87083 0.71407 0.96685 0.0
C1262 C 0.86863 0.76153 0.98872 0.0
C1263 C 0.83695 0.73988 0.00139 0.0
C1264 C 0.82296 0.70514 -0.00209 0.0
C1265 C 0.84001 0.69264 0.98058 0.0
C1266 C 0.88432 0.79867 0.99167 0.0
C1267 C 0.78935 0.68121 0.01146 0.0
C1268 C 0.79711 0.7698 0.06141 0.0
C1269 C 0.77372 0.77228 0.04275 0.0
C1270 C 0.81877 0.76027 0.04817 0.0
C1271 C 0.81707 0.75355 0.01557 0.0
C1272 C 0.79497 0.75835 -0.00355 0.0
C1273 C 0.77334 0.7673 0.01035 0.0
C1274 C 0.84179 0.75518 0.06936 0.0
C1275 C 0.79278 0.75216 0.96153 0.0
H1276 H 0.90917 0.76531 0.96158 0.0
H1277 H 0.82879 0.66613 0.97714 0.0
H1278 H 0.86971 0.80713 0.97792 0.0
H1279 H 0.88407 0.80579 0.01644 0.0
H1280 H 0.91032 0.81199 0.98304 0.0
H1281 H 0.78339 0.65504 0.0094 0.0
H1282 H 0.7883 0.6869 0.03655 0.0
H1283 H 0.76991 0.68389 -0.001 0.0
H1284 H 0.79678 0.77285 0.08659 0.0
H1285 H 0.75487 0.76882 -0.00393 0.0
H1286 H 0.86725 0.76742 0.05951 0.0
H1287 H 0.83309 0.72831 0.07107 0.0
H1288 H 0.84282 0.76494 0.09336 0.0
H1289 H 0.8178 0.76583 0.95076 0.0
H1290 H 0.77639 0.75978 0.9497 0.0
H1291 H 0.78287 0.72539 0.957 0.0
C1292 C 0.33803 0.16417 0.98291 0.0
C1293 C 0.31616 0.17299 0.96928 0.0
C1294 C 0.326 0.13458 8e-05 0.0
C1295 C 0.29129 0.11322 0.00347 0.0
C1296 C 0.26919 0.12273 0.99101 0.0
C1297 C 0.28186 0.15251 0.97426 0.0
C1298 C 0.35039 0.12549 0.01343 0.0
C1299 C 0.23206 0.10063 -0.00613 0.0
C1300 C 0.26514 0.0224 0.01086 0.0
C1301 C 0.25987 0.01712 0.04317 0.0
C1302 C 0.27385 0.05314 -0.00248 0.0
C1303 C 0.27812 0.07952 0.01713 0.0
C1304 C 0.27123 0.07383 0.04965 0.0
C1305 C 0.26194 0.04248 0.06232 0.0
C1306 C 0.28024 0.05784 0.96266 0.0
C1307 C 0.27578 0.10138 0.07134 0.0
H1308 H 0.36452 0.17989 0.97945 0.0
H1309 H 0.26461 0.15912 0.96414 0.0
H1310 H 0.34463 0.11824 0.03842 0.0
H1311 H 0.3483 0.10382 0.00059 0.0
H1312 H 0.37642 0.14618 0.01167 0.0
H1313 H 0.21836 0.11301 0.98561 0.0
H1314 H 0.22396 0.07785 0.97973 0.0
H1315 H 0.22501 0.09279 0.01855 0.0
H1316 H 0.26394 0.0028 -0.0038 0.0
H1317 H 0.25866 0.03857 0.08743 0.0
H1318 H 0.30697 0.0753 0.95836 0.0
H1319 H 0.26616 0.06882 0.95213 0.0
H1320 H 0.27319 0.03416 0.95043 0.0
H1321 H 0.30259 0.11993 0.07323 0.0
H1322 H 0.26603 0.09214 0.09523 0.0
H1323 H 0.26319 0.11435 0.06181 0.0
C1324 C 0.87915 0.14401 0.96357 0.0
C1325 C 0.85353 0.15125 0.96779 0.0
C1326 C 0.90888 0.16083 0.98053 0.0
C1327 C 0.91334 0.18582 0.00204 0.0
C1328 C 0.88676 0.19173 0.00795 0.0
C1329 C 0.85704 0.1742 0.99086 0.0
C1330 C 0.93631 0.15336 0.97384 0.0
C1331 C 0.89052 0.21818 0.03072 0.0
C1332 C 0.98901 0.22768 0.05586 0.0
C1333 C 0.0092 0.25692 0.03918 0.0
C1334 C 0.95796 0.20361 0.04377 0.0
C1335 C 0.94713 0.2091 0.01445 0.0
C1336 C 0.96837 0.23777 -0.00311 0.0
C1337 C 0.99907 0.26117 0.00942 0.0
C1338 C 0.93616 0.17316 0.06297 0.0
C1339 C 0.95812 0.24455 0.96539 0.0
H1340 H 0.87639 0.1258 0.94621 0.0
H1341 H 0.83729 0.17978 -0.00561 0.0
H1342 H 0.95604 0.1739 0.95995 0.0
H1343 H 0.94776 0.15148 -0.00403 0.0
H1344 H 0.92726 0.12997 0.9604 0.0
H1345 H 0.8665 0.21699 0.03554 0.0
H1346 H 0.90115 0.21584 0.0532 0.0
H1347 H 0.908 0.24296 0.02088 0.0
H1348 H 0.99661 0.22444 0.07898 0.0
H1349 H 0.01474 0.28366 -0.00365 0.0
H1350 H 0.92618 0.15054 0.04823 0.0
H1351 H 0.91466 0.1747 0.07207 0.0
H1352 H 0.94969 0.17049 0.08317 0.0
H1353 H 0.95153 0.22354 0.94918 0.0
H1354 H 0.97799 0.26757 0.95436 0.0
H1355 H 0.93575 0.24701 0.96817 0.0
C1356 C 0.33496 0.18705 0.48045 0.0
C1357 C 0.31367 0.15621 0.46671 0.0
C1358 C 0.32223 0.20398 0.49766 0.0
C1359 C 0.28742 0.18984 0.50098 0.0
C1360 C 0.26591 0.15815 0.48827 0.0
C1361 C 0.27927 0.14168 0.47149 0.0
C1362 C 0.34601 0.23759 0.51126 0.0
C1363 C 0.22869 0.14232 0.49104 0.0
C1364 C 0.25694 0.22928 0.56088 0.0
C1365 C 0.25438 0.25259 0.54221 0.0
C1366 C 0.26667 0.20777 0.54767 0.0
C1367 C 0.27351 0.20954 0.5151 0.0
C1368 C 0.26863 0.23154 0.49596 0.0
C1369 C 0.25948 0.25302 0.50983 0.0
C1370 C 0.27184 0.18487 0.56889 0.0
C1371 C 0.27494 0.23379 0.46106 0.0
H1372 H 0.36152 0.19838 0.47714 0.0
H1373 H 0.26247 0.11773 0.46124 0.0
H1374 H 0.34322 0.25692 0.49876 0.0
H1375 H 0.34022 0.23861 0.53633 0.0
H1376 H 0.37227 0.2437 0.5093 0.0
H1377 H 0.21551 0.11636 0.48234 0.0
H1378 H 0.22144 0.14248 0.51578 0.0
H1379 H 0.22018 0.15685 0.47725 0.0
H1380 H 0.25381 0.22959 0.58605 0.0
H1381 H 0.25792 0.27144 0.49554 0.0
H1382 H 0.29878 0.19368 0.57069 0.0
H1383 H 0.25972 0.15945 0.559 0.0
H1384 H 0.26199 0.18378 0.59285 0.0
H1385 H 0.30179 0.24386 0.45664 0.0
H1386 H 0.2672 0.25004 0.4492 0.0
H1387 H 0.26143 0.2088 0.45025 0.0
C1388 C 0.88268 0.14853 0.46107 0.0
C1389 C 0.8752 0.17389 0.46583 0.0
C1390 C 0.86621 0.11867 0.47782 0.0
C1391 C 0.84133 0.11381 0.49966 0.0
C1392 C 0.8351 0.14008 0.50601 0.0
C1393 C 0.85228 0.16993 0.48914 0.0
C1394 C 0.87402 0.09159 0.47065 0.0
C1395 C 0.80872 0.13587 0.52911 0.0
C1396 C 0.76665 0.02775 0.50762 0.0
C1397 C 0.77143 0.01789 0.53731 0.0
C1398 C 0.78969 0.05844 0.49488 0.0
C1399 C 0.81855 0.07995 0.51214 0.0
C1400 C 0.82463 0.06935 0.54131 0.0
C1401 C 0.8009 0.03832 0.55363 0.0
C1402 C 0.78224 0.06845 0.46356 0.0
C1403 C 0.85534 0.09141 0.56017 0.0
H1404 H 0.90085 0.15162 0.44352 0.0
H1405 H 0.84651 0.18947 0.49308 0.0
H1406 H 0.87644 0.08024 0.49261 0.0
H1407 H 0.85337 0.07174 0.45693 0.0
H1408 H 0.89726 0.10091 0.45687 0.0
H1409 H 0.80951 0.15964 0.53409 0.0
H1410 H 0.78388 0.11808 0.51951 0.0
H1411 H 0.81161 0.12546 0.55149 0.0
H1412 H 0.74396 0.01191 0.49482 0.0
H1413 H 0.80456 0.03093 0.5767 0.0
H1414 H 0.80314 0.07534 0.4471 0.0
H1415 H 0.7794 0.09055 0.46656 0.0
H1416 H 0.7592 0.04837 0.45272 0.0
H1417 H 0.87776 0.10162 0.54513 0.0
H1418 H 0.85854 0.07804 0.58019 0.0
H1419 H 0.85362 0.11271 0.56951 0.0
C1420 C 0.98587 0.76675 0.56141 0.0
C1421 C 0.01091 0.76783 0.54242 0.0
C1422 C 0.95451 0.75763 0.54875 0.0
C1423 C 0.9485 0.74989 0.51638 0.0
C1424 C 0.9746 0.75323 0.49687 0.0
C1425 C 0.00535 0.76181 0.51021 0.0
C1426 C 0.92726 0.7541 0.57033 0.0
C1427 C 0.96955 0.74592 0.46215 0.0
C1428 C 0.86327 0.68964 0.48331 0.0
C1429 C 0.85457 0.71126 0.46897 0.0
C1430 C 0.89302 0.70194 0.50035 0.0
C1431 C 0.91468 0.73665 0.50286 0.0
C1432 C 0.90532 0.75854 0.48965 0.0
C1433 C 0.87537 0.74562 0.47306 0.0
C1434 C 0.90196 0.67777 0.51451 0.0
C1435 C 0.92775 0.79565 0.49157 0.0
H1436 H 0.99 0.77065 0.58646 0.0
H1437 H 0.02471 0.76231 0.49567 0.0
H1438 H 0.91442 0.7666 0.5603 0.0
H1439 H 0.90849 0.72746 0.57293 0.0
H1440 H 0.93681 0.76455 0.59397 0.0
H1441 H 0.9931 0.75239 0.44991 0.0
H1442 H 0.95183 0.71916 0.45846 0.0
H1443 H 0.95869 0.75989 0.45116 0.0
H1444 H 0.84731 0.66312 0.48055 0.0
H1445 H 0.86887 0.76267 0.46235 0.0
H1446 H 0.90943 0.68422 0.53937 0.0
H1447 H 0.92346 0.67927 0.5018 0.0
H1448 H 0.88107 0.65181 0.51335 0.0
H1449 H 0.93591 0.8034 0.51608 0.0
H1450 H 0.91546 0.80927 0.48284 0.0
H1451 H 0.95036 0.80312 0.47733 0.0
C1452 C 0.92135 0.5941 0.31042 0.0
C1453 C 0.92018 0.58823 0.27812 0.0
C1454 C 0.89943 0.60251 0.32457 0.0
C1455 C 0.87617 0.60579 0.30579 0.0
C1456 C 0.87368 0.59812 0.27336 0.0
C1457 C 0.8957 0.5892 0.25988 0.0
C1458 C 0.90254 0.60978 0.35932 0.0
C1459 C 0.84938 0.60156 0.25255 0.0
C1460 C 0.80814 0.61011 0.35071 0.0
C1461 C 0.82173 0.64448 0.35459 0.0
C1462 C 0.82492 0.59717 0.33381 0.0
C1463 C 0.85597 0.61904 0.32009 0.0
C1464 C 0.86912 0.65375 0.32256 0.0
C1465 C 0.85192 0.66607 0.33989 0.0
C1466 C 0.81016 0.56005 0.33196 0.0
C1467 C 0.90203 0.6779 0.30789 0.0
H1468 H 0.94062 0.5937 0.32439 0.0
H1469 H 0.89537 0.58542 0.23476 0.0
H1470 H 0.91181 0.63655 0.36315 0.0
H1471 H 0.87792 0.59584 0.37081 0.0
H1472 H 0.91984 0.60325 0.37096 0.0
H1473 H 0.84792 0.59116 0.22877 0.0
H1474 H 0.82424 0.58895 0.26313 0.0
H1475 H 0.85716 0.62818 0.25015 0.0
H1476 H 0.7847 0.59307 0.36173 0.0
H1477 H 0.8625 0.69261 0.34249 0.0
H1478 H 0.82575 0.55272 0.34559 0.0
H1479 H 0.80983 0.5522 0.30735 0.0
H1480 H 0.78448 0.54641 0.34138 0.0
H1481 H 0.92226 0.67628 0.31999 0.0
H1482 H 0.90732 0.7039 0.30936 0.0
H1483 H 0.90245 0.67153 0.2829 0.0
C1484 C 0.43072 0.31978 0.25847 0.0
C1485 C 0.43174 0.34482 0.2774 0.0
C1486 C 0.42175 0.28855 0.27122 0.0
C1487 C 0.41418 0.28266 0.30361 0.0
C1488 C 0.41729 0.30871 0.32303 0.0
C1489 C 0.42567 0.33932 0.3096 0.0
C1490 C 0.41838 0.26131 0.24972 0.0
C1491 C 0.41018 0.30381 0.35778 0.0
C1492 C 0.35572 0.19734 0.33741 0.0
C1493 C 0.37809 0.18942 0.35145 0.0
C1494 C 0.36716 0.22686 0.32026 0.0
C1495 C 0.40176 0.24911 0.31735 0.0
C1496 C 0.4244 0.24057 0.33031 0.0
C1497 C 0.41232 0.21082 0.34698 0.0
C1498 C 0.34223 0.23491 0.30635 0.0
C1499 C 0.46142 0.26366 0.32803 0.0
H1500 H 0.43464 0.32386 0.23343 0.0
H1501 H 0.42611 0.35867 0.3241 0.0
H1502 H 0.43162 0.24913 0.25954 0.0
H1503 H 0.3918 0.24208 0.24766 0.0
H1504 H 0.42819 0.27067 0.22587 0.0
H1505 H 0.4162 0.32727 0.36991 0.0
H1506 H 0.38353 0.28567 0.36161 0.0
H1507 H 0.4247 0.29355 0.3688 0.0
H1508 H 0.32928 0.18091 0.34047 0.0
H1509 H 0.42996 0.20495 0.35745 0.0
H1510 H 0.34827 0.24228 0.28142 0.0
H1511 H 0.34331 0.25621 0.31904 0.0
H1512 H 0.31647 0.21364 0.30776 0.0
H1513 H 0.46878 0.27156 0.3034 0.0
H1514 H 0.4757 0.25208 0.3368 0.0
H1515 H 0.46852 0.28633 0.34202 0.0
C1516 C 0.81552 0.2167 0.35457 0.0
C1517 C 0.84133 0.20984 0.34975 0.0
C1518 C 0.7858 0.20011 0.33757 0.0
C1519 C 0.78154 0.17575 0.31536 0.0
C1520 C 0.80831 0.17031 0.30884 0.0
C1521 C 0.83801 0.18757 0.32602 0.0
C1522 C 0.75816 0.20707 0.34495 0.0
C1523 C 0.80478 0.14455 0.28531 0.0
C1524 C 0.69606 0.10014 0.30756 0.0
C1525 C 0.68562 0.10485 0.27812 0.0
C1526 C 0.72681 0.12341 0.32008 0.0
C1527 C 0.74777 0.15248 0.3029 0.0
C1528 C 0.73663 0.15843 0.27397 0.0
C1529 C 0.70556 0.13444 0.26184 0.0
C1530 C 0.73741 0.11608 0.35115 0.0
C1531 C 0.7581 0.18935 0.25523 0.0
H1532 H 0.81812 0.23439 0.37245 0.0
H1533 H 0.85789 0.18231 0.32199 0.0
H1534 H 0.74654 0.2093 0.32308 0.0
H1535 H 0.7386 0.18612 0.35859 0.0
H1536 H 0.76705 0.23012 0.35891 0.0
H1537 H 0.82892 0.1462 0.28005 0.0
H1538 H 0.78758 0.11947 0.29471 0.0
H1539 H 0.79394 0.14727 0.26313 0.0
H1540 H 0.68059 0.07741 0.32038 0.0
H1541 H 0.69771 0.13808 0.23898 0.0
H1542 H 0.74382 0.13665 0.36788 0.0
H1543 H 0.75997 0.11405 0.34784 0.0
H1544 H 0.7178 0.09269 0.36185 0.0
H1545 H 0.76793 0.21163 0.27041 0.0
H1546 H 0.74435 0.19227 0.23535 0.0
H1547 H 0.7797 0.18828 0.2457 0.0
C1548 C 0.05027 0.68415 0.47919 0.0
C1549 C 0.08188 0.71061 0.48647 0.0
C1550 C 0.04268 0.67116 0.44875 0.0
C1551 C 0.06741 0.68485 0.42526 0.0
C1552 C 0.09934 0.71151 0.43245 0.0
C1553 C 0.10617 0.72417 0.46297 0.0
C1554 C 0.00826 0.64285 0.44169 0.0
C1555 C 0.12635 0.72656 0.40794 0.0
C1556 C 0.06023 0.63257 0.35475 0.0
C1557 C 0.04884 0.64594 0.33171 0.0
C1558 C 0.06611 0.64486 0.38542 0.0
C1559 C 0.06019 0.67093 0.39321 0.0
C1560 C 0.04834 0.6843 0.37022 0.0
C1561 C 0.04292 0.6717 0.33963 0.0
C1562 C 0.07894 0.63017 0.40939 0.0
C1563 C 0.04153 0.71196 0.37792 0.0
H1564 H 0.03132 0.6738 0.4972 0.0
H1565 H 0.13066 0.74465 0.46844 0.0
H1566 H 0.99691 0.6499 0.42252 0.0
H1567 H 0.00967 0.621 0.43348 0.0
H1568 H 0.99169 0.63549 0.46248 0.0
H1569 H 0.14982 0.74735 0.41738 0.0
H1570 H 0.13148 0.70738 0.39856 0.0
H1571 H 0.11809 0.73589 0.38798 0.0
H1572 H 0.06479 0.6126 0.34879 0.0
H1573 H 0.03377 0.68186 0.32199 0.0
H1574 H 0.0618 0.62062 0.42971 0.0
H1575 H 0.1034 0.64964 0.41836 0.0
H1576 H 0.08174 0.60963 0.3996 0.0
H1577 H 0.02357 0.70448 0.39756 0.0
H1578 H 0.03141 0.71889 0.35755 0.0
H1579 H 0.06475 0.7342 0.38571 0.0
C1580 C 0.33657 0.37564 0.47997 0.0
C1581 C 0.3107 0.38135 0.4881 0.0
C1582 C 0.34916 0.38138 0.44938 0.0
C1583 C 0.33568 0.39335 0.42662 0.0
C1584 C 0.30949 0.39904 0.43463 0.0
C1585 C 0.2972 0.39283 0.46529 0.0
C1586 C 0.37695 0.37479 0.44144 0.0
C1587 C 0.29469 0.412 0.4109 0.0
C1588 C 0.389 0.44016 0.35726 0.0
C1589 C 0.37553 0.41615 0.33352 0.0
C1590 C 0.37626 0.43298 0.38773 0.0
C1591 C 0.34963 0.40096 0.39461 0.0
C1592 C 0.33602 0.37652 0.37086 0.0
C1593 C 0.34908 0.38447 0.34048 0.0
C1594 C 0.3912 0.45969 0.41252 0.0
C1595 C 0.30775 0.34203 0.37759 0.0
H1596 H 0.34683 0.36641 0.49745 0.0
H1597 H 0.27715 0.39724 0.47141 0.0
H1598 H 0.36955 0.35712 0.42157 0.0
H1599 H 0.39918 0.39812 0.43389 0.0
H1600 H 0.38391 0.36447 0.46162 0.0
H1601 H 0.27404 0.41457 0.42083 0.0
H1602 H 0.31411 0.43657 0.40217 0.0
H1603 H 0.28521 0.39511 0.39039 0.0
H1604 H 0.40946 0.4647 0.35202 0.0
H1605 H 0.33881 0.36574 0.32227 0.0
H1606 H 0.40063 0.4513 0.43231 0.0
H1607 H 0.3719 0.46457 0.42209 0.0
H1608 H 0.41193 0.48329 0.40329 0.0
H1609 H 0.31488 0.3305 0.39653 0.0
H1610 H 0.30041 0.32573 0.3566 0.0
H1611 H 0.28583 0.34324 0.38599 0.0
C1612 C 0.62808 0.91709 0.46321 0.0
C1613 C 0.64045 0.94232 0.48579 0.0
C1614 C 0.62067 0.92289 0.43293 0.0
C1615 C 0.62612 0.95471 0.4252 0.0
C1616 C 0.6385 0.98025 0.44789 0.0
C1617 C 0.64542 0.97369 0.47804 0.0
C1618 C 0.60732 0.89512 0.40916 0.0
C1619 C 0.64488 0.01458 0.44017 0.0
C1620 C 0.63881 0.97979 0.34011 0.0
C1621 C 0.60773 0.97561 0.3322 0.0
C1622 C 0.64512 0.973 0.37041 0.0
C1623 C 0.61962 0.96157 0.3931 0.0
C1624 C 0.58813 0.95709 0.38528 0.0
C1625 C 0.58259 0.96434 0.35484 0.0
C1626 C 0.67911 0.97835 0.37821 0.0
C1627 C 0.56042 0.94477 0.40906 0.0
H1628 H 0.62414 0.89278 0.46917 0.0
H1629 H 0.65524 0.99332 0.4954 0.0
H1630 H 0.58327 0.89083 0.39973 0.0
H1631 H 0.62472 0.90209 0.3891 0.0
H1632 H 0.60361 0.87155 0.41927 0.0
H1633 H 0.65407 0.03148 0.46073 0.0
H1634 H 0.66352 0.0255 0.42111 0.0
H1635 H 0.62178 0.01326 0.43154 0.0
H1636 H 0.6584 0.98879 0.32271 0.0
H1637 H 0.55851 0.96104 0.34877 0.0
H1638 H 0.67702 0.95489 0.38669 0.0
H1639 H 0.6904 0.99678 0.3974 0.0
H1640 H 0.69613 0.98724 0.35773 0.0
H1641 H 0.55512 0.92041 0.41844 0.0
H1642 H 0.53721 0.94208 0.39897 0.0
H1643 H 0.56807 0.9622 0.42915 0.0
C1644 C 0.72438 0.09616 0.0218 0.0
C1645 C 0.71773 0.06997 0.00142 0.0
C1646 C 0.71288 0.09009 0.05263 0.0
C1647 C 0.6942 0.05701 0.06323 0.0
C1648 C 0.6886 0.03044 0.04329 0.0
C1649 C 0.7006 0.03727 0.01247 0.0
C1650 C 0.71967 0.11906 0.07348 0.0
C1651 C 0.66885 0.99487 0.05406 0.0
C1652 C 0.68285 0.04736 0.15091 0.0
C1653 C 0.65221 0.0459 0.15456 0.0
C1654 C 0.69638 0.04973 0.1211 0.0
C1655 C 0.67872 0.05054 0.0945 0.0
C1656 C 0.64739 0.04814 0.09795 0.0
C1657 C 0.63451 0.04594 0.12802 0.0
C1658 C 0.72994 0.05236 0.11812 0.0
C1659 C 0.62786 0.04879 0.06994 0.0
H1660 H 0.73819 0.12152 0.01352 0.0
H1661 H 0.69569 0.01697 -0.00316 0.0
H1662 H 0.69599 0.11818 0.07918 0.0
H1663 H 0.7309 0.11763 0.09593 0.0
H1664 H 0.73656 0.1433 0.06226 0.0
H1665 H 0.66951 0.97739 0.03675 0.0
H1666 H 0.67845 0.99167 0.07681 0.0
H1667 H 0.64262 0.98811 0.0578 0.0
H1668 H 0.6965 0.04703 0.17137 0.0
H1669 H 0.61059 0.0443 0.13069 0.0
H1670 H 0.74823 0.07723 0.10904 0.0
H1671 H 0.72881 0.03385 0.10106 0.0
H1672 H 0.73912 0.04855 0.14089 0.0
H1673 H 0.64156 0.07326 0.05819 0.0
H1674 H 0.60286 0.04431 0.07655 0.0
H1675 H 0.62489 0.02975 0.0526 0.0
C1676 C 0.9631 0.58576 0.13009 0.0
C1677 C 0.97404 0.61003 0.1536 0.0
C1678 C 0.95765 0.59273 0.09952 0.0
C1679 C 0.96353 0.62481 0.0923 0.0
C1680 C 0.97478 0.64953 0.1158 0.0
C1681 C 0.97979 0.64179 0.1463 0.0
C1682 C 0.94543 0.56573 0.075 0.0
C1683 C 0.98151 0.68409 0.1087 0.0
C1684 C 0.975 0.6489 0.00657 0.0
C1685 C 0.94339 0.64335 -0.00126 0.0
C1686 C 0.98215 0.64352 0.03719 0.0
C1687 C 0.95696 0.6321 0.06025 0.0
C1688 C 0.92506 0.62654 0.05251 0.0
C1689 C 0.91868 0.63236 0.02184 0.0
C1690 C 0.01654 0.64993 0.04484 0.0
C1691 C 0.89757 0.61414 0.07655 0.0
H1692 H 0.95865 0.56116 0.13558 0.0
H1693 H 0.98859 0.66073 0.16432 0.0
H1694 H 0.92118 0.56088 0.06559 0.0
H1695 H 0.96307 0.57378 0.05506 0.0
H1696 H 0.94241 0.54217 0.08445 0.0
H1697 H 0.99092 0.70065 0.12948 0.0
H1698 H 1.00001 0.69516 0.08955 0.0
H1699 H 0.95843 0.68309 0.10044 0.0
H1700 H 0.99427 0.65774 0.98886 0.0
H1701 H 0.8942 0.62808 0.01595 0.0
H1702 H 0.01524 0.62662 0.05266 0.0
H1703 H 0.02724 0.6679 0.06445 0.0
H1704 H 0.0336 0.65981 0.02443 0.0
H1705 H 0.89223 0.58964 0.08557 0.0
H1706 H 0.87429 0.61163 0.0668 0.0
H1707 H 0.90542 0.63135 0.09683 0.0
C1708 C 0.43793 0.39578 0.13109 0.0
C1709 C 0.41327 0.38192 0.15422 0.0
C1710 C 0.43159 0.3835 0.10044 0.0
C1711 C 0.39978 0.35692 0.09277 0.0
C1712 C 0.37459 0.34312 0.11582 0.0
C1713 C 0.3817 0.35573 0.1464 0.0
C1714 C 0.45907 0.39865 0.07639 0.0
C1715 C 0.34029 0.31489 0.10822 0.0
C1716 C 0.3772 0.34283 0.00672 0.0
C1717 C 0.38334 0.317 -0.00026 0.0
C1718 C 0.38197 0.35581 0.03712 0.0
C1719 C 0.39337 0.34275 0.06084 0.0
C1720 C 0.39955 0.31668 0.05397 0.0
C1721 C 0.39434 0.30401 0.02349 0.0
C1722 C 0.3749 0.38348 0.04386 0.0
C1723 C 0.41193 0.30234 0.07875 0.0
H1724 H 0.46237 0.4161 0.13697 0.0
H1725 H 0.36245 0.34519 0.16413 0.0
H1726 H 0.46475 0.37962 0.06767 0.0
H1727 H 0.45102 0.40756 0.05594 0.0
H1728 H 0.48219 0.41974 0.08604 0.0
H1729 H 0.3296 0.32177 0.08833 0.0
H1730 H 0.34176 0.29285 0.10083 0.0
H1731 H 0.32313 0.30791 0.12853 0.0
H1732 H 0.36836 0.35269 0.9885 0.0
H1733 H 0.39908 0.28401 0.01825 0.0
H1734 H 0.39787 0.4058 0.05195 0.0
H1735 H 0.35641 0.3761 0.06302 0.0
H1736 H 0.36531 0.39022 0.02295 0.0
H1737 H 0.4361 0.32198 0.08809 0.0
H1738 H 0.41514 0.28181 0.06957 0.0
H1739 H 0.39428 0.29285 0.09869 0.0
C1740 C 0.9778 0.39114 0.62882 0.0
C1741 C 0.97828 0.37378 0.65541 0.0
C1742 C 0.97552 0.37813 0.5988 0.0
C1743 C 0.97351 0.347 0.59546 0.0
C1744 C 0.97461 0.32961 0.62211 0.0
C1745 C 0.97702 0.34326 0.65187 0.0
C1746 C 0.97452 0.39735 0.57072 0.0
C1747 C 0.97243 0.29628 0.61923 0.0
C1748 C 0.92881 0.30136 0.52237 0.0
C1749 C 0.95533 0.30865 0.50216 0.0
C1750 C 0.93447 0.31256 0.55331 0.0
C1751 C 0.96746 0.33157 0.56419 0.0
C1752 C 0.99437 0.33769 0.54445 0.0
C1753 C 0.98795 0.326 0.51352 0.0
C1754 C 0.90517 0.3052 0.57394 0.0
C1755 C 0.02987 0.35778 0.55552 0.0
H1756 H 0.97923 0.41496 0.63141 0.0
H1757 H 0.97769 0.32986 0.67236 0.0
H1758 H 0.99386 0.40075 0.55353 0.0
H1759 H 0.95014 0.38323 0.55881 0.0
H1760 H 0.9784 0.42212 0.57728 0.0
H1761 H 0.97603 0.28713 0.64211 0.0
H1762 H 0.94776 0.27784 0.60979 0.0
H1763 H 0.99134 0.29773 0.60249 0.0
H1764 H 0.90351 0.28736 0.51384 0.0
H1765 H 0.0085 0.3314 0.49801 0.0
H1766 H 0.90548 0.32859 0.57954 0.0
H1767 H 0.90674 0.29417 0.59645 0.0
H1768 H 0.88109 0.28796 0.56258 0.0
H1769 H 0.03638 0.38397 0.55882 0.0
H1770 H 0.04761 0.35708 0.53854 0.0
H1771 H 0.033 0.3486 0.57852 0.0
C1772 C 0.63178 0.58872 0.63172 0.0
C1773 C 0.64534 0.61355 0.65471 0.0
C1774 C 0.64422 0.59491 0.60114 0.0
C1775 C 0.67065 0.62674 0.59338 0.0
C1776 C 0.6842 0.65207 0.6163 0.0
C1777 C 0.67145 0.64512 0.64683 0.0
C1778 C 0.62934 0.56728 0.57723 0.0
C1779 C 0.71225 0.6864 0.6086 0.0
C1780 C 0.72374 0.63246 0.52412 0.0
C1781 C 0.71041 0.64303 0.50032 0.0
C1782 C 0.71113 0.6273 0.55462 0.0
C1783 C 0.68477 0.63311 0.56145 0.0
C1784 C 0.67139 0.64409 0.53766 0.0
C1785 C 0.68431 0.64881 0.50725 0.0
C1786 C 0.72582 0.61536 0.57947 0.0
C1787 C 0.64341 0.65077 0.54434 0.0
H1788 H 0.61155 0.56428 0.63767 0.0
H1789 H 0.68176 0.66448 0.66445 0.0
H1790 H 0.62015 0.57495 0.55672 0.0
H1791 H 0.64865 0.56193 0.56856 0.0
H1792 H 0.60848 0.54409 0.58698 0.0
H1793 H 0.71918 0.70361 0.62886 0.0
H1794 H 0.73442 0.68513 0.60118 0.0
H1795 H 0.70515 0.69688 0.5887 0.0
H1796 H 0.74395 0.628 0.51891 0.0
H1797 H 0.67419 0.65732 0.48898 0.0
H1798 H 0.70637 0.59117 0.58889 0.0
H1799 H 0.73518 0.6331 0.59935 0.0
H1800 H 0.74654 0.61242 0.57033 0.0
H1801 H 0.62124 0.62772 0.55248 0.0
H1802 H 0.63645 0.66009 0.52338 0.0
H1803 H 0.65064 0.6693 0.56344 0.0
C1804 C 0.38662 0.04843 0.64618 0.0
C1805 C 0.41835 0.05415 0.65377 0.0
C1806 C 0.37919 0.05367 0.61563 0.0
C1807 C 0.4042 0.06512 0.59239 0.0
C1808 C 0.43627 0.07103 0.59993 0.0
C1809 C 0.44294 0.06535 0.63053 0.0
C1810 C 0.34463 0.0469 0.60819 0.0
C1811 C 0.46358 0.08347 0.57569 0.0
C1812 C 0.3807 0.05369 0.50652 0.0
C1813 C 0.38609 0.08519 0.49868 0.0
C1814 C 0.38599 0.04659 0.53717 0.0
C1815 C 0.39717 0.07171 0.56026 0.0
C1816 C 0.40263 0.10352 0.55251 0.0
C1817 C 0.39689 0.10986 0.52179 0.0
C1818 C 0.3797 0.01229 0.54483 0.0
C1819 C 0.41478 0.13094 0.57659 0.0
H1820 H 0.36746 0.03944 0.664 0.0
H1821 H 0.46752 0.06981 0.63625 0.0
H1822 H 0.34567 0.06994 0.59985 0.0
H1823 H 0.33374 0.02843 0.58899 0.0
H1824 H 0.32787 0.03746 0.62883 0.0
H1825 H 0.48713 0.08661 0.58539 0.0
H1826 H 0.45582 0.06591 0.5557 0.0
H1827 H 0.46837 0.10766 0.56628 0.0
H1828 H 0.372 0.03445 0.48879 0.0
H1829 H 0.40106 0.13426 0.51588 0.0
H1830 H 0.36147 1.00145 0.56423 0.0
H1831 H 0.403 0.01371 0.55298 0.0
H1832 H 0.37015 0.99531 0.52435 0.0
H1833 H 0.39735 0.12304 0.5967 0.0
H1834 H 0.41733 0.15418 0.56679 0.0
H1835 H 0.43924 0.13631 0.58586 0.0
C1836 C 0.39441 0.96732 0.85472 0.0
C1837 C 0.38129 0.97891 0.83164 0.0
C1838 C 0.38196 0.96144 0.88532 0.0
C1839 C 0.35599 0.96759 0.89299 0.0
C1840 C 0.34286 0.97965 0.86996 0.0
C1841 C 0.35561 0.98505 0.83943 0.0
C1842 C 0.39637 0.94837 0.90935 0.0
C1843 C 0.31533 0.98672 0.87754 0.0
C1844 C 0.30239 0.92171 0.96253 0.0
C1845 C 0.31614 0.94585 0.98614 0.0
C1846 C 0.31506 0.92857 0.93203 0.0
C1847 C 0.34193 0.9604 0.92497 0.0
C1848 C 0.35575 0.98501 0.94855 0.0
C1849 C 0.34274 0.97738 0.97898 0.0
C1850 C 0.29987 0.9017 0.90741 0.0
C1851 C 0.38427 0.01932 0.94164 0.0
H1852 H 0.4143 0.96258 0.84885 0.0
H1853 H 0.34565 0.99437 0.82175 0.0
H1854 H 0.40597 0.96544 0.92972 0.0
H1855 H 0.3767 0.924 0.91822 0.0
H1856 H 0.41685 0.94537 0.89964 0.0
H1857 H 0.3086 0.99698 0.85714 0.0
H1858 H 0.29292 0.96362 0.88521 0.0
H1859 H 0.32287 0.00462 0.89723 0.0
H1860 H 0.28179 0.89729 0.96791 0.0
H1861 H 0.35323 0.99622 -0.00292 0.0
H1862 H 0.31894 0.89634 0.89811 0.0
H1863 H 0.29077 0.91017 0.88742 0.0
H1864 H 0.27886 0.87834 0.91672 0.0
H1865 H 0.4061 0.01777 0.93358 0.0
H1866 H 0.39161 0.03585 0.96245 0.0
H1867 H 0.37742 0.03076 0.9224 0.0
C1868 C 0.05432 0.38239 0.97779 0.0
C1869 C 0.08554 0.38684 0.98549 0.0
C1870 C 0.04775 0.38915 0.94757 0.0
C1871 C 0.07315 0.40081 0.92476 0.0
C1872 C 0.10481 0.40565 0.9324 0.0
C1873 C 0.11061 0.39843 0.96276 0.0
C1874 C 0.01358 0.38342 0.93996 0.0
C1875 C 0.13241 0.41822 0.90848 0.0
C1876 C 0.04693 0.38781 0.83995 0.0
C1877 C 0.05153 0.41899 0.83198 0.0
C1878 C 0.05407 0.3816 0.87015 0.0
C1879 C 0.06628 0.4073 0.89266 0.0
C1880 C 0.07129 0.43891 0.88474 0.0
C1881 C 0.06366 0.44436 0.85441 0.0
C1882 C 0.04814 0.34747 0.87807 0.0
C1883 C 0.08445 0.46684 0.90833 0.0
H1884 H 0.03479 0.37317 -0.00474 0.0
H1885 H 0.13481 0.40195 0.96868 0.0
H1886 H 0.01536 0.40669 0.93131 0.0
H1887 H 0.00226 0.36477 0.92095 0.0
H1888 H 0.99675 0.3746 0.96058 0.0
H1889 H 0.15585 0.42139 0.9185 0.0
H1890 H 0.1249 0.40066 0.88851 0.0
H1891 H 0.13724 0.44237 0.89896 0.0
H1892 H 0.03728 0.36806 0.8227 0.0
H1893 H 0.0673 0.46852 0.84828 0.0
H1894 H 0.02972 0.33657 0.89731 0.0
H1895 H 0.07146 0.34916 0.88653 0.0
H1896 H 0.0389 0.33038 0.85765 0.0
H1897 H 0.06718 0.45978 0.9285 0.0
H1898 H 0.08771 0.49019 0.8981 0.0
H1899 H 0.1087 0.47157 0.91762 0.0
C1900 C 0.586 0.63927 0.85682 0.0
C1901 C 0.6102 0.65247 0.83323 0.0
C1902 C 0.59312 0.65204 0.88729 0.0
C1903 C 0.62525 0.67844 0.89432 0.0
C1904 C 0.64985 0.69186 0.8707 0.0
C1905 C 0.64197 0.67876 0.84032 0.0
C1906 C 0.56624 0.63732 0.91195 0.0
C1907 C 0.68447 0.71988 0.87759 0.0
C1908 C 0.63375 0.7306 0.96534 0.0
C1909 C 0.64493 0.71674 0.98808 0.0
C1910 C 0.62754 0.71853 0.93459 0.0
C1911 C 0.6329 0.6922 0.92642 0.0
C1912 C 0.64458 0.67836 0.94911 0.0
C1913 C 0.65034 0.69074 0.97978 0.0
C1914 C 0.61491 0.73372 0.91094 0.0
C1915 C 0.6508 0.65039 0.941 0.0
H1916 H 0.56139 0.61894 0.85149 0.0
H1917 H 0.66083 0.68883 0.82222 0.0
H1918 H 0.57432 0.62756 0.9317 0.0
H1919 H 0.56169 0.65678 0.92162 0.0
H1920 H 0.5425 0.61689 0.90256 0.0
H1921 H 0.70079 0.72727 0.85662 0.0
H1922 H 0.68344 0.7418 0.88621 0.0
H1923 H 0.69587 0.71247 0.89642 0.0
H1924 H 0.62959 0.75076 0.9716 0.0
H1925 H 0.65932 0.68019 -0.00281 0.0
H1926 H 0.59023 0.71458 0.9021 0.0
H1927 H 0.63188 0.74311 0.89049 0.0
H1928 H 0.61262 0.75447 0.92099 0.0
H1929 H 0.62733 0.62839 0.93331 0.0
H1930 H 0.66093 0.64316 0.96114 0.0
H1931 H 0.66853 0.65773 0.92117 0.0
C1932 C 0.71444 0.9678 0.68833 0.0
C1933 C 0.71558 0.98616 0.66191 0.0
C1934 C 0.71731 0.98072 0.71848 0.0
C1935 C 0.72162 0.01279 0.72213 0.0
C1936 C 0.72229 0.03128 0.69563 0.0
C1937 C 0.71917 0.01768 0.66573 0.0
C1938 C 0.71635 0.9603 0.74638 0.0
C1939 C 0.72705 0.06566 0.69884 0.0
C1940 C 0.70778 0.03485 0.80385 0.0
C1941 C 0.74021 0.05053 0.81573 0.0
C1942 C 0.70131 0.0233 0.77288 0.0
C1943 C 0.72799 0.02781 0.75361 0.0
C1944 C 0.76088 0.04492 0.76505 0.0
C1945 C 0.76659 0.05607 0.79602 0.0
C1946 C 0.66593 0.00522 0.7612 0.0
C1947 C 0.78995 0.05046 0.74494 0.0
H1948 H 0.71119 0.94324 0.68551 0.0
H1949 H 0.71984 0.03187 0.64536 0.0
H1950 H 0.7406 0.97292 0.75869 0.0
H1951 H 0.69721 0.95795 0.76333 0.0
H1952 H 0.71089 0.93506 0.73955 0.0
H1953 H 0.72493 0.07589 0.67599 0.0
H1954 H 0.70841 0.06538 0.71523 0.0
H1955 H 0.7519 0.08262 0.70889 0.0
H1956 H 0.68734 0.03081 0.81894 0.0
H1957 H 0.79179 0.06871 0.80492 0.0
H1958 H 0.65797 0.97875 0.75723 0.0
H1959 H 0.66399 0.01558 0.73841 0.0
H1960 H 0.64851 0.00664 0.77809 0.0
H1961 H 0.78784 0.02627 0.73917 0.0
H1962 H 0.81415 0.06621 0.75678 0.0
H1963 H 0.78985 0.06239 0.72249 0.0
C1964 C 0.01988 0.71634 0.67308 0.0
C1965 C 0.0463 0.74786 0.66555 0.0
C1966 C 0.0071 0.70905 0.7036 0.0
C1967 C 0.02097 0.73398 0.72688 0.0
C1968 C 0.04768 0.76577 0.71947 0.0
C1969 C 0.06013 0.7723 0.68888 0.0
C1970 C 0.97873 0.67478 0.71091 0.0
C1971 C 0.0629 0.79299 0.74376 0.0
C1972 C 0.96842 0.72797 0.79672 0.0
C1973 C 0.98154 0.71674 0.82013 0.0
C1974 C 0.9809 0.73343 0.76616 0.0
C1975 C 0.00692 0.72725 0.75886 0.0
C1976 C 0.02009 0.7156 0.78224 0.0
C1977 C 0.0073 0.7106 0.81273 0.0
C1978 C 0.96645 0.74608 0.74175 0.0
C1979 C 0.0477 0.70852 0.77506 0.0
H1980 H 0.00935 0.69727 0.6552 0.0
H1981 H 0.0806 0.7967 0.68322 0.0
H1982 H 0.98565 0.66375 0.73046 0.0
H1983 H 0.9568 0.67631 0.71869 0.0
H1984 H 0.9715 0.65791 0.69036 0.0
H1985 H 0.08392 0.81621 0.73423 0.0
H1986 H 0.04383 0.79849 0.7528 0.0
H1987 H 0.07199 0.7848 0.76397 0.0
H1988 H 0.94846 0.73271 0.80229 0.0
H1989 H 0.01726 0.70156 0.83069 0.0
H1990 H 0.95685 0.72869 0.72162 0.0
H1991 H 0.98608 0.77033 0.73261 0.0
H1992 H 0.94595 0.74919 0.75122 0.0
H1993 H 0.04018 0.69028 0.75566 0.0
H1994 H 0.0545 0.69866 0.79572 0.0
H1995 H 0.07005 0.73153 0.76711 0.0
C1996 C 0.25159 0.29511 0.6896 0.0
C1997 C 0.27586 0.30645 0.66607 0.0
C1998 C 0.25883 0.28976 0.72011 0.0
C1999 C 0.29116 0.29617 0.72723 0.0
C2000 C 0.31585 0.30777 0.70369 0.0
C2001 C 0.30785 0.31266 0.67325 0.0
C2002 C 0.23185 0.27715 0.74469 0.0
C2003 C 0.35068 0.31508 0.71069 0.0
C2004 C 0.31559 0.30848 0.81287 0.0
C2005 C 0.31061 0.27716 0.82084 0.0
C2006 C 0.30994 0.31527 0.78223 0.0
C2007 C 0.29881 0.29001 0.75928 0.0
C2008 C 0.29388 0.25841 0.76713 0.0
C2009 C 0.29997 0.2524 0.79783 0.0
C2010 C 0.31568 0.34935 0.77444 0.0
C2011 C 0.28183 0.23086 0.7432 0.0
H2012 H 0.22682 0.29028 0.68419 0.0
H2013 H 0.32677 0.32176 0.6552 0.0
H2014 H 0.22756 0.25317 0.75418 0.0
H2015 H 0.23965 0.29485 0.76457 0.0
H2016 H 0.20802 0.27356 0.73527 0.0
H2017 H 0.36712 0.32451 0.68982 0.0
H2018 H 0.36165 0.33376 0.72971 0.0
H2019 H 0.35012 0.2923 0.71909 0.0
H2020 H 0.32416 0.3278 0.8305 0.0
H2021 H 0.29614 0.22813 0.80384 0.0
H2022 H 0.29207 0.34754 0.76673 0.0
H2023 H 0.33348 0.36015 0.75472 0.0
H2024 H 0.32548 0.36655 0.79475 0.0
H2025 H 0.25709 0.22498 0.73427 0.0
H2026 H 0.27987 0.20789 0.75303 0.0
H2027 H 0.29895 0.23889 0.72285 0.0
C2028 C 0.0599 0.31553 0.18927 0.0
C2029 C 0.04216 0.31567 0.1628 0.0
C2030 C 0.04705 0.31315 0.21937 0.0
C2031 C 0.0157 0.3107 0.22293 0.0
C2032 C 0.99801 0.31164 0.19642 0.0
C2033 C 0.01151 0.31416 0.16657 0.0
C2034 C 0.0666 0.31235 0.24729 0.0
C2035 C 0.96445 0.30899 0.19953 0.0
C2036 C 0.9702 0.26458 0.29549 0.0
C2037 C 0.97693 0.29063 0.31608 0.0
C2038 C 0.9816 0.27085 0.26463 0.0
C2039 C 1.00024 0.304 0.25422 0.0
C2040 C 0.00588 0.33044 0.27437 0.0
C2041 C 0.994 0.32341 0.30521 0.0
C2042 C 0.97478 0.24203 0.24356 0.0
C2043 C 0.02557 0.36609 0.26379 0.0
H2044 H 0.08383 0.31721 0.18651 0.0
H2045 H 0.99784 0.31461 0.14618 0.0
H2046 H 0.06958 0.33129 0.26476 0.0
H2047 H 0.05291 0.28781 0.25893 0.0
H2048 H 0.09159 0.31688 0.24061 0.0
H2049 H 0.95527 0.31295 0.17683 0.0
H2050 H 0.94616 0.28406 0.20848 0.0
H2051 H 0.96559 0.32738 0.21674 0.0
H2052 H 0.95643 0.23916 0.30363 0.0
H2053 H 0.99896 0.3436 0.32101 0.0
H2054 H 0.99845 0.24295 0.23773 0.0
H2055 H 0.96351 0.24362 0.22119 0.0
H2056 H 0.9579 0.21772 0.25465 0.0
H2057 H 0.05185 0.37298 0.2602 0.0
H2058 H 0.02471 0.38341 0.28117 0.0
H2059 H 0.0161 0.36939 0.24101 0.0
C2060 C 0.71695 0.7088 0.31292 0.0
C2061 C 0.74839 0.71389 0.32078 0.0
C2062 C 0.70998 0.71436 0.28231 0.0
C2063 C 0.73517 0.7255 0.25928 0.0
C2064 C 0.76684 0.7304 0.26699 0.0
C2065 C 0.77304 0.72441 0.29766 0.0
C2066 C 0.67582 0.70862 0.27467 0.0
C2067 C 0.79432 0.74246 0.24297 0.0
C2068 C 0.71265 0.7174 0.17322 0.0
C2069 C 0.71905 0.74947 0.16638 0.0
C2070 C 0.71735 0.70903 0.20357 0.0
C2071 C 0.72896 0.73344 0.22737 0.0
C2072 C 0.73551 0.76584 0.2206 0.0
C2073 C 0.73034 0.77344 0.19018 0.0
C2074 C 0.70988 0.67414 0.21018 0.0
C2075 C 0.74815 0.79254 0.24546 0.0
H2076 H 0.69771 0.7003 0.33063 0.0
H2077 H 0.79738 0.72831 0.30356 0.0
H2078 H 0.67757 0.73228 0.26737 0.0
H2079 H 0.66504 0.69112 0.25471 0.0
H2080 H 0.6586 0.69851 0.29494 0.0
H2081 H 0.81729 0.74417 0.25262 0.0
H2082 H 0.78612 0.72553 0.22247 0.0
H2083 H 0.80035 0.7673 0.23431 0.0
H2084 H 0.70356 0.6987 0.15495 0.0
H2085 H 0.73531 0.79828 0.18504 0.0
H2086 H 0.69125 0.66309 0.22924 0.0
H2087 H 0.73267 0.67451 0.21837 0.0
H2088 H 0.70028 0.6579 0.18919 0.0
H2089 H 0.73045 0.78454 0.26535 0.0
H2090 H 0.75174 0.81643 0.23634 0.0
H2091 H 0.77217 0.79672 0.25485 0.0
C2092 C 0.3001 0.05825 0.29708 0.0
C2093 C 0.31173 0.04547 0.32045 0.0
C2094 C 0.29456 0.04567 0.26655 0.0
C2095 C 0.30107 0.01989 0.25924 0.0
C2096 C 0.31311 0.00706 0.28257 0.0
C2097 C 0.31819 0.01995 0.31304 0.0
C2098 C 0.28149 0.05977 0.24219 0.0
C2099 C 0.32054 0.97972 0.27536 0.0
C2100 C 0.25578 0.96661 0.18934 0.0
C2101 C 0.28004 0.98069 0.16587 0.0
C2102 C 0.26249 0.97893 0.21998 0.0
C2103 C 0.29427 0.00577 0.22729 0.0
C2104 C 0.31905 0.01983 0.20388 0.0
C2105 C 0.31158 0.00717 0.17332 0.0
C2106 C 0.23544 0.96349 0.24441 0.0
C2107 C 0.3533 0.04836 0.21108 0.0
H2108 H 0.2951 0.07802 0.30265 0.0
H2109 H 0.32753 0.01026 0.33095 0.0
H2110 H 0.29878 0.06944 0.222 0.0
H2111 H 0.25726 0.03995 0.23315 0.0
H2112 H 0.27815 0.08011 0.25167 0.0
H2113 H 0.33067 0.97316 0.29598 0.0
H2114 H 0.29759 0.95723 0.26751 0.0
H2115 H 0.33871 0.98734 0.2559 0.0
H2116 H 0.23137 0.94608 0.18375 0.0
H2117 H 0.33051 0.0179 0.15533 0.0
H2118 H 0.22963 0.98232 0.25349 0.0
H2119 H 0.24399 0.95471 0.26459 0.0
H2120 H 0.21228 0.94225 0.235 0.0
H2121 H 0.35161 0.0702 0.21878 0.0
H2122 H 0.37012 0.05559 0.19048 0.0
H2123 H 0.36454 0.04167 0.23064 0.0
loop_
_geom_bond_atom_site_label_1
_geom_bond_atom_site_label_2
_geom_bond_distance
_geom_bond_site_symmetry_2
_ccdc_geom_bond_type
Fe0 O2 1.918 . S
Fe0 O5 1.997 . S
Fe0 O6 2.002 . S
Fe0 O11 1.976 . S
Fe0 O14 1.996 . S
Fe1 O2 1.918 . S
Fe1 O9 1.997 . S
Fe1 O12 1.996 . S
Fe1 O16 1.976 1_455 S
Fe1 O19 2.002 1_455 S
O2 Fe0 1.918 . S
O2 Fe1 1.918 . S
O2 Fe3 1.918 1_455 S
Fe3 O2 1.918 1_655 S
Fe3 O4 2.002 . S
Fe3 O13 1.976 1_655 S
Fe3 O17 1.996 . S
Fe3 O20 1.997 . S
O4 Fe3 2.002 . S
O4 C21 1.295 . S
O5 Fe0 1.997 . S
O5 C21 1.235 1_455 S
O6 Fe0 2.002 . S
O6 C7 1.295 . S
C7 O6 1.295 . S
C7 O9 1.235 . S
C8 O13 1.287 . S
C8 O14 1.255 . S
O9 Fe1 1.997 . S
O9 C7 1.235 . S
C10 O16 1.287 . S
C10 O17 1.255 . S
O11 Fe0 1.976 . S
O11 C18 1.287 . S
O12 Fe1 1.996 . S
O12 C18 1.255 . S
O13 Fe3 1.976 1_455 S
O13 C8 1.287 . S
O14 Fe0 1.996 . S
O14 C8 1.255 . S
C15 O19 1.295 . S
C15 O20 1.235 . S
O16 Fe1 1.976 1_655 S
O16 C10 1.287 . S
O17 Fe3 1.996 . S
O17 C10 1.255 . S
C18 O11 1.287 . S
C18 O12 1.255 . S
O19 Fe1 2.002 1_655 S
O19 C15 1.295 . S
O20 Fe3 1.997 . S
O20 C15 1.235 . S
C21 O4 1.295 . S
C21 O5 1.235 1_655 S
Fe22 O24 1.918 . S
Fe22 O27 1.997 . S
Fe22 O28 2.002 . S
Fe22 O33 1.976 . S
Fe22 O36 1.996 . S
Fe23 O24 1.918 . S
Fe23 O31 1.997 . S
Fe23 O34 1.996 . S
Fe23 O38 1.976 . S
Fe23 O41 2.002 . S
O24 Fe22 1.918 . S
O24 Fe23 1.918 . S
O24 Fe25 1.918 . S
Fe25 O24 1.918 . S
Fe25 O26 2.002 . S
Fe25 O35 1.976 . S
Fe25 O39 1.996 . S
Fe25 O42 1.997 . S
O26 Fe25 2.002 . S
O26 C43 1.295 . S
O27 Fe22 1.997 . S
O27 C43 1.235 . S
O28 Fe22 2.002 . S
O28 C29 1.295 . S
C29 O28 1.295 . S
C29 O31 1.235 . S
C30 O35 1.287 . S
C30 O36 1.255 . S
O31 Fe23 1.997 . S
O31 C29 1.235 . S
C32 O38 1.287 . S
C32 O39 1.255 . S
O33 Fe22 1.976 . S
O33 C40 1.287 . S
O34 Fe23 1.996 . S
O34 C40 1.255 . S
O35 Fe25 1.976 . S
O35 C30 1.287 . S
O36 Fe22 1.996 . S
O36 C30 1.255 . S
C37 O41 1.295 . S
C37 O42 1.235 . S
O38 Fe23 1.976 . S
O38 C32 1.287 . S
O39 Fe25 1.996 . S
O39 C32 1.255 . S
C40 O33 1.287 . S
C40 O34 1.255 . S
O41 Fe23 2.002 . S
O41 C37 1.295 . S
O42 Fe25 1.997 . S
O42 C37 1.235 . S
C43 O26 1.295 . S
C43 O27 1.235 . S
Fe44 O46 1.918 . S
Fe44 O49 1.997 . S
Fe44 O50 2.002 . S
Fe44 O55 1.976 . S
Fe44 O58 1.996 . S
Fe45 O46 1.918 1_565 S
Fe45 O53 2.009 . S
Fe45 O56 1.996 . S
Fe45 O60 1.976 . S
Fe45 O63 2.002 . S
O46 Fe44 1.918 . S
O46 Fe45 1.918 1_545 S
O46 Fe47 1.918 . S
Fe47 O46 1.918 . S
Fe47 O48 2.002 . S
Fe47 O57 1.976 . S
Fe47 O61 1.996 1_545 S
Fe47 O64 1.997 1_545 S
O48 Fe47 2.002 . S
O48 C65 1.295 . S
O49 Fe44 1.997 . S
O49 C65 1.235 . S
O50 Fe44 2.002 . S
O50 C51 1.295 . S
C51 O50 1.295 . S
C51 O53 1.220 1_545 S
C52 O57 1.287 . S
C52 O58 1.255 . S
O53 Fe45 2.009 . S
O53 C51 1.220 1_565 S
C54 O60 1.287 . S
C54 O61 1.255 . S
O55 Fe44 1.976 . S
O55 C62 1.287 1_545 S
O56 Fe45 1.996 . S
O56 C62 1.255 . S
O57 Fe47 1.976 . S
O57 C52 1.287 . S
O58 Fe44 1.996 . S
O58 C52 1.255 . S
C59 O63 1.295 . S
C59 O64 1.235 . S
O60 Fe45 1.976 . S
O60 C54 1.287 . S
O61 Fe47 1.996 1_565 S
O61 C54 1.255 . S
C62 O55 1.287 1_565 S
C62 O56 1.255 . S
O63 Fe45 2.002 . S
O63 C59 1.295 . S
O64 Fe47 1.997 1_565 S
O64 C59 1.235 . S
C65 O48 1.295 . S
C65 O49 1.235 . S
Fe66 O68 1.918 . S
Fe66 O71 1.997 . S
Fe66 O72 2.002 . S
Fe66 O77 1.976 . S
Fe66 O80 1.996 . S
Fe67 O68 1.918 1_655 S
Fe67 O75 1.993 1_655 S
Fe67 O78 1.996 . S
Fe67 O82 1.976 . S
Fe67 O85 2.002 . S
O68 Fe66 1.918 . S
O68 Fe67 1.918 1_455 S
O68 Fe69 1.918 . S
Fe69 O68 1.918 . S
Fe69 O70 2.002 . S
Fe69 O79 1.976 . S
Fe69 O83 1.996 1_455 S
Fe69 O86 1.997 1_455 S
O70 Fe69 2.002 . S
O70 C87 1.295 . S
O71 Fe66 1.997 . S
O71 C87 1.235 . S
O72 Fe66 2.002 . S
O72 C73 1.295 . S
C73 O72 1.295 . S
C73 O75 1.252 . S
C74 O79 1.287 . S
C74 O80 1.255 . S
O75 Fe67 1.993 1_455 S
O75 C73 1.252 . S
C76 O82 1.287 . S
C76 O83 1.255 . S
O77 Fe66 1.976 . S
O77 C84 1.287 1_455 S
O78 Fe67 1.996 . S
O78 C84 1.255 . S
O79 Fe69 1.976 . S
O79 C74 1.287 . S
O80 Fe66 1.996 . S
O80 C74 1.255 . S
C81 O85 1.295 . S
C81 O86 1.235 . S
O82 Fe67 1.976 . S
O82 C76 1.287 . S
O83 Fe69 1.996 1_655 S
O83 C76 1.255 . S
C84 O77 1.287 1_655 S
C84 O78 1.255 . S
O85 Fe67 2.002 . S
O85 C81 1.295 . S
O86 Fe69 1.997 1_655 S
O86 C81 1.235 . S
C87 O70 1.295 . S
C87 O71 1.235 . S
Fe88 O90 1.918 . S
Fe88 O93 1.997 . S
Fe88 O94 2.002 . S
Fe88 O99 1.976 . S
Fe88 O102 1.996 . S
Fe89 O90 1.918 . S
Fe89 O97 1.997 . S
Fe89 O100 1.996 . S
Fe89 O104 1.976 . S
Fe89 O107 2.002 . S
O90 Fe88 1.918 . S
O90 Fe89 1.918 . S
O90 Fe91 1.918 . S
Fe91 O90 1.918 . S
Fe91 O92 2.002 . S
Fe91 O101 1.976 . S
Fe91 O105 1.996 . S
Fe91 O108 1.997 . S
O92 Fe91 2.002 . S
O92 C109 1.295 . S
O93 Fe88 1.997 . S
O93 C109 1.235 . S
O94 Fe88 2.002 . S
O94 C95 1.295 . S
C95 O94 1.295 . S
C95 O97 1.235 . S
C96 O101 1.287 . S
C96 O102 1.255 . S
O97 Fe89 1.997 . S
O97 C95 1.235 . S
C98 O104 1.287 . S
C98 O105 1.255 . S
O99 Fe88 1.976 . S
O99 C106 1.287 . S
O100 Fe89 1.996 . S
O100 C106 1.255 . S
O101 Fe91 1.976 . S
O101 C96 1.287 . S
O102 Fe88 1.996 . S
O102 C96 1.255 . S
C103 O107 1.295 . S
C103 O108 1.235 . S
O104 Fe89 1.976 . S
O104 C98 1.287 . S
O105 Fe91 1.996 . S
O105 C98 1.255 . S
C106 O99 1.287 . S
C106 O100 1.255 . S
O107 Fe89 2.002 . S
O107 C103 1.295 . S
O108 Fe91 1.997 . S
O108 C103 1.235 . S
C109 O92 1.295 . S
C109 O93 1.235 . S
Fe110 O112 1.918 . S
Fe110 O115 1.997 . S
Fe110 O116 2.002 . S
Fe110 O121 1.976 . S
Fe110 O124 1.996 . S
Fe111 O112 1.918 . S
Fe111 O119 1.997 . S
Fe111 O122 1.996 . S
Fe111 O126 1.976 1_545 S
Fe111 O129 2.002 1_545 S
O112 Fe110 1.918 . S
O112 Fe111 1.918 . S
O112 Fe113 1.918 1_545 S
Fe113 O112 1.918 1_565 S
Fe113 O114 2.002 . S
Fe113 O123 1.972 1_565 S
Fe113 O127 1.996 . S
Fe113 O130 1.997 . S
O114 Fe113 2.002 . S
O114 C131 1.295 . S
O115 Fe110 1.997 . S
O115 C131 1.235 1_545 S
O116 Fe110 2.002 . S
O116 C117 1.295 . S
C117 O116 1.295 . S
C117 O119 1.235 . S
C118 O123 1.304 . S
C118 O124 1.255 . S
O119 Fe111 1.997 . S
O119 C117 1.235 . S
C120 O126 1.287 . S
C120 O127 1.255 . S
O121 Fe110 1.976 . S
O121 C128 1.287 . S
O122 Fe111 1.996 . S
O122 C128 1.255 . S
O123 Fe113 1.972 1_545 S
O123 C118 1.304 . S
O124 Fe110 1.996 . S
O124 C118 1.255 . S
C125 O129 1.295 . S
C125 O130 1.235 . S
O126 Fe111 1.976 1_565 S
O126 C120 1.287 . S
O127 Fe113 1.996 . S
O127 C120 1.255 . S
C128 O121 1.287 . S
C128 O122 1.255 . S
O129 Fe111 2.002 1_565 S
O129 C125 1.295 . S
O130 Fe113 1.997 . S
O130 C125 1.235 . S
C131 O114 1.295 . S
C131 O115 1.235 1_565 S
Fe132 O134 1.918 . S
Fe132 O137 1.997 . S
Fe132 O138 2.002 . S
Fe132 O143 1.976 . S
Fe132 O146 1.996 . S
Fe133 O134 1.918 . S
Fe133 O141 1.997 . S
Fe133 O144 1.996 1_565 S
Fe133 O148 1.976 . S
Fe133 O151 2.002 . S
O134 Fe132 1.918 . S
O134 Fe133 1.918 . S
O134 Fe135 1.918 . S
Fe135 O134 1.918 . S
Fe135 O136 2.002 . S
Fe135 O145 1.976 . S
Fe135 O149 1.996 . S
Fe135 O152 1.997 . S
O136 Fe135 2.002 . S
O136 C153 1.295 . S
O137 Fe132 1.997 . S
O137 C153 1.235 . S
O138 Fe132 2.002 . S
O138 C139 1.295 . S
C139 O138 1.295 . S
C139 O141 1.235 . S
C140 O145 1.287 . S
C140 O146 1.255 . S
O141 Fe133 1.997 . S
O141 C139 1.235 . S
C142 O148 1.287 . S
C142 O149 1.255 . S
O143 Fe132 1.976 . S
O143 C150 1.287 . S
O144 Fe133 1.996 1_545 S
O144 C150 1.255 1_545 S
O145 Fe135 1.976 . S
O145 C140 1.287 . S
O146 Fe132 1.996 . S
O146 C140 1.255 . S
C147 O151 1.295 . S
C147 O152 1.235 . S
O148 Fe133 1.976 . S
O148 C142 1.287 . S
O149 Fe135 1.996 . S
O149 C142 1.255 . S
C150 O143 1.287 . S
C150 O144 1.255 1_565 S
O151 Fe133 2.002 . S
O151 C147 1.295 . S
O152 Fe135 1.997 . S
O152 C147 1.235 . S
C153 O136 1.295 . S
C153 O137 1.235 . S
Fe154 O156 1.918 . S
Fe154 O159 1.997 . S
Fe154 O160 2.002 . S
Fe154 O165 1.976 . S
Fe154 O168 1.996 . S
Fe155 O156 1.918 . S
Fe155 O163 1.997 . S
Fe155 O166 1.996 . S
Fe155 O170 1.976 . S
Fe155 O173 2.002 . S
O156 Fe154 1.918 . S
O156 Fe155 1.918 . S
O156 Fe157 1.918 . S
Fe157 O156 1.918 . S
Fe157 O158 2.002 . S
Fe157 O167 1.976 . S
Fe157 O171 1.996 . S
Fe157 O174 1.997 . S
O158 Fe157 2.002 . S
O158 C175 1.295 . S
O159 Fe154 1.997 . S
O159 C175 1.235 . S
O160 Fe154 2.002 . S
O160 C161 1.295 . S
C161 O160 1.295 . S
C161 O163 1.235 . S
C162 O167 1.287 . S
C162 O168 1.255 . S
O163 Fe155 1.997 . S
O163 C161 1.235 . S
C164 O170 1.287 . S
C164 O171 1.255 . S
O165 Fe154 1.976 . S
O165 C172 1.287 . S
O166 Fe155 1.996 . S
O166 C172 1.255 . S
O167 Fe157 1.976 . S
O167 C162 1.287 . S
O168 Fe154 1.996 . S
O168 C162 1.255 . S
C169 O173 1.295 . S
C169 O174 1.235 . S
O170 Fe155 1.976 . S
O170 C164 1.287 . S
O171 Fe157 1.996 . S
O171 C164 1.255 . S
C172 O165 1.287 . S
C172 O166 1.255 . S
O173 Fe155 2.002 . S
O173 C169 1.295 . S
O174 Fe157 1.997 . S
O174 C169 1.235 . S
C175 O158 1.295 . S
C175 O159 1.235 . S
Fe176 O178 1.918 . S
Fe176 O181 1.997 . S
Fe176 O182 2.002 . S
Fe176 O187 1.976 . S
Fe176 O190 1.996 . S
Fe177 O178 1.918 . S
Fe177 O185 1.997 . S
Fe177 O188 1.996 . S
Fe177 O192 1.976 . S
Fe177 O195 2.002 . S
O178 Fe176 1.918 . S
O178 Fe177 1.918 . S
O178 Fe179 1.918 . S
Fe179 O178 1.918 . S
Fe179 O180 2.002 . S
Fe179 O189 1.976 . S
Fe179 O193 1.996 . S
Fe179 O196 1.997 . S
O180 Fe179 2.002 . S
O180 C197 1.295 . S
O181 Fe176 1.997 . S
O181 C197 1.235 . S
O182 Fe176 2.002 . S
O182 C183 1.295 . S
C183 O182 1.295 . S
C183 O185 1.235 . S
C184 O189 1.287 . S
C184 O190 1.255 . S
O185 Fe177 1.997 . S
O185 C183 1.235 . S
C186 O192 1.287 . S
C186 O193 1.255 . S
O187 Fe176 1.976 . S
O187 C194 1.287 . S
O188 Fe177 1.996 . S
O188 C194 1.255 . S
O189 Fe179 1.976 . S
O189 C184 1.287 . S
O190 Fe176 1.996 . S
O190 C184 1.255 . S
C191 O195 1.295 . S
C191 O196 1.235 . S
O192 Fe177 1.976 . S
O192 C186 1.287 . S
O193 Fe179 1.996 . S
O193 C186 1.255 . S
C194 O187 1.287 . S
C194 O188 1.255 . S
O195 Fe177 2.002 . S
O195 C191 1.295 . S
O196 Fe179 1.997 . S
O196 C191 1.235 . S
C197 O180 1.295 . S
C197 O181 1.235 . S
Fe198 O200 1.918 . S
Fe198 O203 1.997 . S
Fe198 O204 2.002 . S
Fe198 O209 1.976 . S
Fe198 O212 1.996 . S
Fe199 O200 1.918 . S
Fe199 O207 1.997 . S
Fe199 O210 1.996 . S
Fe199 O214 1.976 . S
Fe199 O217 2.002 . S
O200 Fe198 1.918 . S
O200 Fe199 1.918 . S
O200 Fe201 1.918 . S
Fe201 O200 1.918 . S
Fe201 O202 2.002 . S
Fe201 O211 1.976 . S
Fe201 O215 1.996 . S
Fe201 O218 1.997 . S
O202 Fe201 2.002 . S
O202 C219 1.295 . S
O203 Fe198 1.997 . S
O203 C219 1.235 . S
O204 Fe198 2.002 . S
O204 C205 1.295 . S
C205 O204 1.295 . S
C205 O207 1.235 . S
C206 O211 1.287 . S
C206 O212 1.255 . S
O207 Fe199 1.997 . S
O207 C205 1.235 . S
C208 O214 1.287 . S
C208 O215 1.255 . S
O209 Fe198 1.976 . S
O209 C216 1.287 . S
O210 Fe199 1.996 . S
O210 C216 1.255 . S
O211 Fe201 1.976 . S
O211 C206 1.287 . S
O212 Fe198 1.996 . S
O212 C206 1.255 . S
C213 O217 1.295 . S
C213 O218 1.235 . S
O214 Fe199 1.976 . S
O214 C208 1.287 . S
O215 Fe201 1.996 . S
O215 C208 1.255 . S
C216 O209 1.287 . S
C216 O210 1.255 . S
O217 Fe199 2.002 . S
O217 C213 1.295 . S
O218 Fe201 1.997 . S
O218 C213 1.235 . S
C219 O202 1.295 . S
C219 O203 1.235 . S
Fe220 O222 1.918 . S
Fe220 O225 1.997 . S
Fe220 O226 2.002 . S
Fe220 O231 1.976 . S
Fe220 O234 1.996 . S
Fe221 O222 1.918 . S
Fe221 O229 1.997 . S
Fe221 O232 1.996 . S
Fe221 O236 1.976 . S
Fe221 O239 2.002 . S
O222 Fe220 1.918 . S
O222 Fe221 1.918 . S
O222 Fe223 1.918 . S
Fe223 O222 1.918 . S
Fe223 O224 2.002 . S
Fe223 O233 1.976 . S
Fe223 O237 1.996 1_565 S
Fe223 O240 1.997 . S
O224 Fe223 2.002 . S
O224 C241 1.295 . S
O225 Fe220 1.997 . S
O225 C241 1.235 . S
O226 Fe220 2.002 . S
O226 C227 1.295 . S
C227 O226 1.295 . S
C227 O229 1.235 . S
C228 O233 1.287 . S
C228 O234 1.255 . S
O229 Fe221 1.997 . S
O229 C227 1.235 . S
C230 O236 1.287 . S
C230 O237 1.255 1_565 S
O231 Fe220 1.976 . S
O231 C238 1.287 . S
O232 Fe221 1.996 . S
O232 C238 1.255 . S
O233 Fe223 1.976 . S
O233 C228 1.287 . S
O234 Fe220 1.996 . S
O234 C228 1.255 . S
C235 O239 1.295 . S
C235 O240 1.235 . S
O236 Fe221 1.976 . S
O236 C230 1.287 . S
O237 Fe223 1.996 1_545 S
O237 C230 1.255 1_545 S
C238 O231 1.287 . S
C238 O232 1.255 . S
O239 Fe221 2.002 . S
O239 C235 1.295 . S
O240 Fe223 1.997 . S
O240 C235 1.235 . S
C241 O224 1.295 . S
C241 O225 1.235 . S
Fe242 O244 1.918 . S
Fe242 O247 1.997 . S
Fe242 O248 2.002 . S
Fe242 O253 1.976 . S
Fe242 O256 1.996 . S
Fe243 O244 1.918 . S
Fe243 O251 1.997 . S
Fe243 O254 1.996 . S
Fe243 O258 1.976 . S
Fe243 O261 2.002 . S
O244 Fe242 1.918 . S
O244 Fe243 1.918 . S
O244 Fe245 1.918 . S
Fe245 O244 1.918 . S
Fe245 O246 2.002 . S
Fe245 O255 1.976 . S
Fe245 O259 1.996 . S
Fe245 O262 1.997 . S
O246 Fe245 2.002 . S
O246 C263 1.295 . S
O247 Fe242 1.997 . S
O247 C263 1.235 . S
O248 Fe242 2.002 . S
O248 C249 1.295 . S
C249 O248 1.295 . S
C249 O251 1.235 . S
C250 O255 1.287 . S
C250 O256 1.255 . S
O251 Fe243 1.997 . S
O251 C249 1.235 . S
C252 O258 1.287 . S
C252 O259 1.255 . S
O253 Fe242 1.976 . S
O253 C260 1.287 . S
O254 Fe243 1.996 . S
O254 C260 1.255 . S
O255 Fe245 1.976 . S
O255 C250 1.287 . S
O256 Fe242 1.996 . S
O256 C250 1.255 . S
C257 O261 1.295 . S
C257 O262 1.235 . S
O258 Fe243 1.976 . S
O258 C252 1.287 . S
O259 Fe245 1.996 . S
O259 C252 1.255 . S
C260 O253 1.287 . S
C260 O254 1.255 . S
O261 Fe243 2.002 . S
O261 C257 1.295 . S
O262 Fe245 1.997 . S
O262 C257 1.235 . S
C263 O246 1.295 . S
C263 O247 1.235 . S
Fe264 O266 1.918 . S
Fe264 O269 1.997 . S
Fe264 O270 2.002 . S
Fe264 O275 1.976 . S
Fe264 O278 1.996 . S
Fe265 O266 1.918 . S
Fe265 O273 1.997 . S
Fe265 O276 1.996 . S
Fe265 O280 1.976 . S
Fe265 O283 2.002 . S
O266 Fe264 1.918 . S
O266 Fe265 1.918 . S
O266 Fe267 1.918 . S
Fe267 O266 1.918 . S
Fe267 O268 2.002 . S
Fe267 O277 1.976 . S
Fe267 O281 1.996 . S
Fe267 O284 1.997 . S
O268 Fe267 2.002 . S
O268 C285 1.295 . S
O269 Fe264 1.997 . S
O269 C285 1.235 . S
O270 Fe264 2.002 . S
O270 C271 1.295 . S
C271 O270 1.295 . S
C271 O273 1.235 . S
C272 O277 1.287 . S
C272 O278 1.255 . S
O273 Fe265 1.997 . S
O273 C271 1.235 . S
C274 O280 1.287 . S
C274 O281 1.255 . S
O275 Fe264 1.976 . S
O275 C282 1.287 . S
O276 Fe265 1.996 . S
O276 C282 1.255 . S
O277 Fe267 1.976 . S
O277 C272 1.287 . S
O278 Fe264 1.996 . S
O278 C272 1.255 . S
C279 O283 1.295 . S
C279 O284 1.235 . S
O280 Fe265 1.976 . S
O280 C274 1.287 . S
O281 Fe267 1.996 . S
O281 C274 1.255 . S
C282 O275 1.287 . S
C282 O276 1.255 . S
O283 Fe265 2.002 . S
O283 C279 1.295 . S
O284 Fe267 1.997 . S
O284 C279 1.235 . S
C285 O268 1.295 . S
C285 O269 1.235 . S
Fe286 O288 1.918 . S
Fe286 O291 1.997 . S
Fe286 O292 2.002 . S
Fe286 O297 1.976 . S
Fe286 O300 1.996 . S
Fe287 O288 1.918 . S
Fe287 O295 1.997 . S
Fe287 O298 1.996 . S
Fe287 O302 1.976 . S
Fe287 O305 2.002 . S
O288 Fe286 1.918 . S
O288 Fe287 1.918 . S
O288 Fe289 1.918 . S
Fe289 O288 1.918 . S
Fe289 O290 2.002 . S
Fe289 O299 1.976 . S
Fe289 O303 1.996 . S
Fe289 O306 1.997 . S
O290 Fe289 2.002 . S
O290 C307 1.295 . S
O291 Fe286 1.997 . S
O291 C307 1.235 . S
O292 Fe286 2.002 . S
O292 C293 1.295 . S
C293 O292 1.295 . S
C293 O295 1.235 . S
C294 O299 1.287 . S
C294 O300 1.255 . S
O295 Fe287 1.997 . S
O295 C293 1.235 . S
C296 O302 1.287 . S
C296 O303 1.255 . S
O297 Fe286 1.976 . S
O297 C304 1.287 . S
O298 Fe287 1.996 . S
O298 C304 1.255 . S
O299 Fe289 1.976 . S
O299 C294 1.287 . S
O300 Fe286 1.996 . S
O300 C294 1.255 . S
C301 O305 1.295 . S
C301 O306 1.235 . S
O302 Fe287 1.976 . S
O302 C296 1.287 . S
O303 Fe289 1.996 . S
O303 C296 1.255 . S
C304 O297 1.287 . S
C304 O298 1.255 . S
O305 Fe287 2.002 . S
O305 C301 1.295 . S
O306 Fe289 1.997 . S
O306 C301 1.235 . S
C307 O290 1.295 . S
C307 O291 1.235 . S
Fe308 O310 1.918 . S
Fe308 O313 1.997 . S
Fe308 O314 2.002 . S
Fe308 O319 1.976 . S
Fe308 O322 1.996 . S
Fe309 O310 1.918 . S
Fe309 O317 1.997 . S
Fe309 O320 1.996 . S
Fe309 O324 1.976 . S
Fe309 O327 2.002 . S
O310 Fe308 1.918 . S
O310 Fe309 1.918 . S
O310 Fe311 1.918 . S
Fe311 O310 1.918 . S
Fe311 O312 2.002 . S
Fe311 O321 1.976 . S
Fe311 O325 1.996 . S
Fe311 O328 1.997 . S
O312 Fe311 2.002 . S
O312 C329 1.295 . S
O313 Fe308 1.997 . S
O313 C329 1.235 . S
O314 Fe308 2.002 . S
O314 C315 1.295 . S
C315 O314 1.295 . S
C315 O317 1.235 . S
C316 O321 1.287 . S
C316 O322 1.255 . S
O317 Fe309 1.997 . S
O317 C315 1.235 . S
C318 O324 1.287 . S
C318 O325 1.255 . S
O319 Fe308 1.976 . S
O319 C326 1.287 . S
O320 Fe309 1.996 . S
O320 C326 1.255 . S
O321 Fe311 1.976 . S
O321 C316 1.287 . S
O322 Fe308 1.996 . S
O322 C316 1.255 . S
C323 O327 1.295 . S
C323 O328 1.235 . S
O324 Fe309 1.976 . S
O324 C318 1.287 . S
O325 Fe311 1.996 . S
O325 C318 1.255 . S
C326 O319 1.287 . S
C326 O320 1.255 . S
O327 Fe309 2.002 . S
O327 C323 1.295 . S
O328 Fe311 1.997 . S
O328 C323 1.235 . S
C329 O312 1.295 . S
C329 O313 1.235 . S
Fe330 O332 1.918 . S
Fe330 O335 1.997 . S
Fe330 O336 2.002 . S
Fe330 O341 1.976 . S
Fe330 O344 1.996 . S
Fe331 O332 1.918 . S
Fe331 O339 1.997 . S
Fe331 O342 1.996 . S
Fe331 O346 1.976 . S
Fe331 O349 2.002 . S
O332 Fe330 1.918 . S
O332 Fe331 1.918 . S
O332 Fe333 1.918 . S
Fe333 O332 1.918 . S
Fe333 O334 2.002 . S
Fe333 O343 1.976 . S
Fe333 O347 1.996 . S
Fe333 O350 1.997 . S
O334 Fe333 2.002 . S
O334 C351 1.295 . S
O335 Fe330 1.997 . S
O335 C351 1.235 . S
O336 Fe330 2.002 . S
O336 C337 1.295 . S
C337 O336 1.295 . S
C337 O339 1.235 . S
C338 O343 1.287 . S
C338 O344 1.255 . S
O339 Fe331 1.997 . S
O339 C337 1.235 . S
C340 O346 1.287 . S
C340 O347 1.255 . S
O341 Fe330 1.976 . S
O341 C348 1.287 . S
O342 Fe331 1.996 . S
O342 C348 1.255 . S
O343 Fe333 1.976 . S
O343 C338 1.287 . S
O344 Fe330 1.996 . S
O344 C338 1.255 . S
C345 O349 1.295 . S
C345 O350 1.235 . S
O346 Fe331 1.976 . S
O346 C340 1.287 . S
O347 Fe333 1.996 . S
O347 C340 1.255 . S
C348 O341 1.287 . S
C348 O342 1.255 . S
O349 Fe331 2.002 . S
O349 C345 1.295 . S
O350 Fe333 1.997 . S
O350 C345 1.235 . S
C351 O334 1.295 . S
C351 O335 1.235 . S
Fe352 O354 1.918 . S
Fe352 O357 1.997 . S
Fe352 O358 2.002 . S
Fe352 O363 1.976 . S
Fe352 O366 1.996 . S
Fe353 O354 1.918 . S
Fe353 O361 1.997 . S
Fe353 O364 1.996 . S
Fe353 O368 1.976 . S
Fe353 O371 2.002 . S
O354 Fe352 1.918 . S
O354 Fe353 1.918 . S
O354 Fe355 1.918 . S
Fe355 O354 1.918 . S
Fe355 O356 2.002 . S
Fe355 O365 1.976 . S
Fe355 O369 1.996 . S
Fe355 O372 1.997 . S
O356 Fe355 2.002 . S
O356 C373 1.295 . S
O357 Fe352 1.997 . S
O357 C373 1.235 . S
O358 Fe352 2.002 . S
O358 C359 1.295 . S
C359 O358 1.295 . S
C359 O361 1.235 . S
C360 O365 1.287 . S
C360 O366 1.255 . S
O361 Fe353 1.997 . S
O361 C359 1.235 . S
C362 O368 1.287 . S
C362 O369 1.255 . S
O363 Fe352 1.976 . S
O363 C370 1.287 . S
O364 Fe353 1.996 . S
O364 C370 1.255 . S
O365 Fe355 1.976 . S
O365 C360 1.287 . S
O366 Fe352 1.996 . S
O366 C360 1.255 . S
C367 O371 1.295 . S
C367 O372 1.235 . S
O368 Fe353 1.976 . S
O368 C362 1.287 . S
O369 Fe355 1.996 . S
O369 C362 1.255 . S
C370 O363 1.287 . S
C370 O364 1.255 . S
O371 Fe353 2.002 . S
O371 C367 1.295 . S
O372 Fe355 1.997 . S
O372 C367 1.235 . S
C373 O356 1.295 . S
C373 O357 1.235 . S
Fe374 O376 1.918 . S
Fe374 O379 1.997 . S
Fe374 O380 2.002 . S
Fe374 O385 1.976 . S
Fe374 O388 1.996 . S
Fe375 O376 1.918 . S
Fe375 O383 1.997 . S
Fe375 O386 1.996 . S
Fe375 O390 1.976 . S
Fe375 O393 2.002 . S
O376 Fe374 1.918 . S
O376 Fe375 1.918 . S
O376 Fe377 1.918 . S
Fe377 O376 1.918 . S
Fe377 O378 2.002 . S
Fe377 O387 1.976 . S
Fe377 O391 1.996 . S
Fe377 O394 1.997 . S
O378 Fe377 2.002 . S
O378 C395 1.295 . S
O379 Fe374 1.997 . S
O379 C395 1.235 . S
O380 Fe374 2.002 . S
O380 C381 1.295 . S
C381 O380 1.295 . S
C381 O383 1.235 . S
C382 O387 1.287 . S
C382 O388 1.255 . S
O383 Fe375 1.997 . S
O383 C381 1.235 . S
C384 O390 1.287 . S
C384 O391 1.255 . S
O385 Fe374 1.976 . S
O385 C392 1.287 . S
O386 Fe375 1.996 . S
O386 C392 1.255 . S
O387 Fe377 1.976 . S
O387 C382 1.287 . S
O388 Fe374 1.996 . S
O388 C382 1.255 . S
C389 O393 1.295 . S
C389 O394 1.235 . S
O390 Fe375 1.976 . S
O390 C384 1.287 . S
O391 Fe377 1.996 . S
O391 C384 1.255 . S
C392 O385 1.287 . S
C392 O386 1.255 . S
O393 Fe375 2.002 . S
O393 C389 1.295 . S
O394 Fe377 1.997 . S
O394 C389 1.235 . S
C395 O378 1.295 . S
C395 O379 1.235 . S
C396 C397 1.391 . S
C396 C398 1.394 . S
C396 H412 0.931 . S
C397 C396 1.391 . S
C397 C401 1.376 . S
C398 C396 1.394 . S
C398 C399 1.369 . S
C398 C402 1.531 . S
C399 C398 1.369 . S
C399 C400 1.410 . S
C399 C407 1.503 . S
C400 C399 1.410 . S
C400 C401 1.392 . S
C400 C403 1.511 . S
C401 C397 1.376 . S
C401 C400 1.392 . S
C401 H413 0.929 . S
C402 C398 1.531 . S
C402 H414 0.960 . S
C402 H415 0.962 . S
C402 H416 0.960 . S
C403 C400 1.511 . S
C403 H417 0.961 . S
C403 H418 0.961 . S
C403 H419 0.961 . S
C404 C405 1.370 . S
C404 C406 1.363 . S
C404 H420 0.931 . S
C405 C404 1.370 . S
C405 C409 1.408 . S
C406 C404 1.363 . S
C406 C407 1.370 . S
C406 C410 1.524 . S
C407 C399 1.503 . S
C407 C406 1.370 . S
C407 C408 1.403 . S
C408 C407 1.403 . S
C408 C409 1.404 . S
C408 C411 1.539 1_455 S
C409 C405 1.408 . S
C409 C408 1.404 . S
C409 H421 0.930 1_455 S
C410 C406 1.524 . S
C410 H422 0.956 . S
C410 H423 0.961 . S
C410 H424 0.961 . S
C411 C408 1.539 1_655 S
C411 H425 0.958 . S
C411 H426 0.961 . S
C411 H427 0.960 1_655 S
H412 C396 0.931 . S
H413 C401 0.929 . S
H414 C402 0.960 . S
H415 C402 0.962 . S
H416 C402 0.960 . S
H417 C403 0.961 . S
H418 C403 0.961 . S
H419 C403 0.961 . S
H420 C404 0.931 . S
H421 C409 0.930 1_655 S
H422 C410 0.956 . S
H423 C410 0.961 . S
H424 C410 0.961 . S
H425 C411 0.958 . S
H426 C411 0.961 . S
H427 C411 0.960 1_455 S
C428 C429 1.391 . S
C428 C430 1.394 . S
C428 H444 0.931 . S
C429 C428 1.391 . S
C429 C433 1.376 . S
C430 C428 1.394 . S
C430 C431 1.369 . S
C430 C434 1.531 . S
C431 C430 1.369 . S
C431 C432 1.410 . S
C431 C439 1.503 . S
C432 C431 1.410 . S
C432 C433 1.392 . S
C432 C435 1.511 . S
C433 C429 1.376 . S
C433 C432 1.392 . S
C433 H445 0.929 . S
C434 C430 1.531 . S
C434 H446 0.960 . S
C434 H447 0.962 . S
C434 H448 0.960 . S
C435 C432 1.511 . S
C435 H449 0.961 . S
C435 H450 0.961 . S
C435 H451 0.961 . S
C436 C437 1.370 . S
C436 C438 1.363 . S
C436 H452 0.931 . S
C437 C436 1.370 . S
C437 C441 1.408 . S
C438 C436 1.363 . S
C438 C439 1.370 . S
C438 C442 1.524 . S
C439 C431 1.503 . S
C439 C438 1.370 . S
C439 C440 1.403 . S
C440 C439 1.403 . S
C440 C441 1.404 . S
C440 C443 1.539 . S
C441 C437 1.408 . S
C441 C440 1.404 . S
C441 H453 0.930 . S
C442 C438 1.524 . S
C442 H454 0.956 . S
C442 H455 0.961 . S
C442 H456 0.961 . S
C443 C440 1.539 . S
C443 H457 0.958 . S
C443 H458 0.961 . S
C443 H459 0.960 . S
H444 C428 0.931 . S
H445 C433 0.929 . S
H446 C434 0.960 . S
H447 C434 0.962 . S
H448 C434 0.960 . S
H449 C435 0.961 . S
H450 C435 0.961 . S
H451 C435 0.961 . S
H452 C436 0.931 . S
H453 C441 0.930 . S
H454 C442 0.956 . S
H455 C442 0.961 . S
H456 C442 0.961 . S
H457 C443 0.958 . S
H458 C443 0.961 . S
H459 C443 0.960 . S
C460 C461 1.391 . S
C460 C462 1.394 . S
C460 H476 0.931 . S
C461 C460 1.391 . S
C461 C465 1.376 1_565 S
C462 C460 1.394 . S
C462 C463 1.369 . S
C462 C466 1.531 . S
C463 C462 1.369 . S
C463 C464 1.410 . S
C463 C471 1.503 . S
C464 C463 1.410 . S
C464 C465 1.392 1_565 S
C464 C467 1.511 1_565 S
C465 C461 1.376 1_545 S
C465 C464 1.392 1_545 S
C465 H477 0.929 . S
C466 C462 1.531 . S
C466 H478 0.960 . S
C466 H479 0.962 . S
C466 H480 0.960 . S
C467 C464 1.511 1_545 S
C467 H481 0.961 . S
C467 H482 0.961 . S
C467 H483 0.961 . S
C468 C469 1.370 . S
C468 C470 1.363 . S
C468 H484 0.931 . S
C469 C468 1.370 . S
C469 C473 1.408 . S
C470 C468 1.363 . S
C470 C471 1.370 . S
C470 C474 1.524 . S
C471 C463 1.503 . S
C471 C470 1.370 . S
C471 C472 1.403 . S
C472 C471 1.403 . S
C472 C473 1.404 . S
C472 C475 1.539 . S
C473 C469 1.408 . S
C473 C472 1.404 . S
C473 H485 0.930 . S
C474 C470 1.524 . S
C474 H486 0.956 . S
C474 H487 0.961 . S
C474 H488 0.961 . S
C475 C472 1.539 . S
C475 H489 0.958 . S
C475 H490 0.961 . S
C475 H491 0.960 . S
H476 C460 0.931 . S
H477 C465 0.929 . S
H478 C466 0.960 . S
H479 C466 0.962 . S
H480 C466 0.960 . S
H481 C467 0.961 . S
H482 C467 0.961 . S
H483 C467 0.961 . S
H484 C468 0.931 . S
H485 C473 0.930 . S
H486 C474 0.956 . S
H487 C474 0.961 . S
H488 C474 0.961 . S
H489 C475 0.958 . S
H490 C475 0.961 . S
H491 C475 0.960 . S
C492 C493 1.391 . S
C492 C494 1.394 . S
C492 H508 0.931 . S
C493 C492 1.391 . S
C493 C497 1.376 . S
C494 C492 1.394 . S
C494 C495 1.369 . S
C494 C498 1.531 . S
C495 C494 1.369 . S
C495 C496 1.410 . S
C495 C503 1.503 . S
C496 C495 1.410 . S
C496 C497 1.392 . S
C496 C499 1.511 . S
C497 C493 1.376 . S
C497 C496 1.392 . S
C497 H509 0.929 . S
C498 C494 1.531 . S
C498 H510 0.960 . S
C498 H511 0.962 . S
C498 H512 0.960 . S
C499 C496 1.511 . S
C499 H513 0.961 . S
C499 H514 0.961 . S
C499 H515 0.961 . S
C500 C501 1.370 . S
C500 C502 1.363 . S
C500 H516 0.931 . S
C501 C500 1.370 . S
C501 C505 1.408 . S
C502 C500 1.363 . S
C502 C503 1.370 . S
C502 C506 1.524 . S
C503 C495 1.503 . S
C503 C502 1.370 . S
C503 C504 1.403 . S
C504 C503 1.403 . S
C504 C505 1.404 . S
C504 C507 1.539 . S
C505 C501 1.408 . S
C505 C504 1.404 . S
C505 H517 0.930 . S
C506 C502 1.524 . S
C506 H518 0.956 . S
C506 H519 0.961 . S
C506 H520 0.961 1_545 S
C507 C504 1.539 . S
C507 H521 0.958 . S
C507 H522 0.961 . S
C507 H523 0.960 . S
H508 C492 0.931 . S
H509 C497 0.929 . S
H510 C498 0.960 . S
H511 C498 0.962 . S
H512 C498 0.960 . S
H513 C499 0.961 . S
H514 C499 0.961 . S
H515 C499 0.961 . S
H516 C500 0.931 . S
H517 C505 0.930 . S
H518 C506 0.956 . S
H519 C506 0.961 . S
H520 C506 0.961 1_565 S
H521 C507 0.958 . S
H522 C507 0.961 . S
H523 C507 0.960 . S
C524 C525 1.391 . S
C524 C526 1.394 . S
C524 H540 0.931 . S
C525 C524 1.391 . S
C525 C529 1.391 . S
C526 C524 1.394 . S
C526 C527 1.369 . S
C526 C530 1.531 . S
C527 C526 1.369 . S
C527 C528 1.410 . S
C527 C535 1.503 . S
C528 C527 1.410 . S
C528 C529 1.386 . S
C528 C531 1.511 1_655 S
C529 C525 1.391 . S
C529 C528 1.386 . S
C529 H541 0.921 1_655 S
C530 C526 1.531 . S
C530 H542 0.960 . S
C530 H543 0.962 . S
C530 H544 0.960 . S
C531 C528 1.511 1_455 S
C531 H545 0.961 . S
C531 H546 0.961 1_455 S
C531 H547 0.961 . S
C532 C533 1.370 . S
C532 C534 1.363 . S
C532 H548 0.931 . S
C533 C532 1.370 . S
C533 C537 1.408 . S
C534 C532 1.363 . S
C534 C535 1.370 . S
C534 C538 1.524 . S
C535 C527 1.503 . S
C535 C534 1.370 . S
C535 C536 1.403 . S
C536 C535 1.403 . S
C536 C537 1.404 . S
C536 C539 1.539 1_655 S
C537 C533 1.408 . S
C537 C536 1.404 . S
C537 H549 0.930 . S
C538 C534 1.524 . S
C538 H550 0.956 . S
C538 H551 0.961 . S
C538 H552 0.961 . S
C539 C536 1.539 1_455 S
C539 H553 0.958 1_455 S
C539 H554 0.961 . S
C539 H555 0.960 . S
H540 C524 0.931 . S
H541 C529 0.921 1_455 S
H542 C530 0.960 . S
H543 C530 0.962 . S
H544 C530 0.960 . S
H545 C531 0.961 . S
H546 C531 0.961 1_655 S
H547 C531 0.961 . S
H548 C532 0.931 . S
H549 C537 0.930 . S
H550 C538 0.956 . S
H551 C538 0.961 . S
H552 C538 0.961 . S
H553 C539 0.958 1_655 S
H554 C539 0.961 . S
H555 C539 0.960 . S
C556 C557 1.391 . S
C556 C558 1.394 . S
C556 H572 0.931 . S
C557 C556 1.391 . S
C557 C561 1.376 . S
C558 C556 1.394 . S
C558 C559 1.369 . S
C558 C562 1.531 . S
C559 C558 1.369 . S
C559 C560 1.410 . S
C559 C567 1.503 . S
C560 C559 1.410 . S
C560 C561 1.392 . S
C560 C563 1.511 . S
C561 C557 1.376 . S
C561 C560 1.392 . S
C561 H573 0.929 . S
C562 C558 1.531 . S
C562 H574 0.960 . S
C562 H575 0.962 . S
C562 H576 0.960 . S
C563 C560 1.511 . S
C563 H577 0.961 . S
C563 H578 0.961 . S
C563 H579 0.961 . S
C564 C565 1.370 . S
C564 C566 1.363 . S
C564 H580 0.931 . S
C565 C564 1.370 . S
C565 C569 1.408 . S
C566 C564 1.363 . S
C566 C567 1.370 . S
C566 C570 1.524 . S
C567 C559 1.503 . S
C567 C566 1.370 . S
C567 C568 1.403 . S
C568 C567 1.403 . S
C568 C569 1.404 . S
C568 C571 1.539 . S
C569 C565 1.408 . S
C569 C568 1.404 . S
C569 H581 0.930 . S
C570 C566 1.524 . S
C570 H582 0.956 . S
C570 H583 0.961 . S
C570 H584 0.961 . S
C571 C568 1.539 . S
C571 H585 0.958 . S
C571 H586 0.961 . S
C571 H587 0.960 . S
H572 C556 0.931 . S
H573 C561 0.929 . S
H574 C562 0.960 . S
H575 C562 0.962 . S
H576 C562 0.960 . S
H577 C563 0.961 . S
H578 C563 0.961 . S
H579 C563 0.961 . S
H580 C564 0.931 . S
H581 C569 0.930 . S
H582 C570 0.956 . S
H583 C570 0.961 . S
H584 C570 0.961 . S
H585 C571 0.958 . S
H586 C571 0.961 . S
H587 C571 0.960 . S
C588 C589 1.391 . S
C588 C590 1.394 . S
C588 H604 0.931 . S
C589 C588 1.391 . S
C589 C593 1.376 . S
C590 C588 1.394 . S
C590 C591 1.369 . S
C590 C594 1.531 . S
C591 C590 1.369 . S
C591 C592 1.410 . S
C591 C599 1.503 . S
C592 C591 1.410 . S
C592 C593 1.392 . S
C592 C595 1.511 . S
C593 C589 1.376 . S
C593 C592 1.392 . S
C593 H605 0.929 . S
C594 C590 1.531 . S
C594 H606 0.960 . S
C594 H607 0.962 . S
C594 H608 0.960 . S
C595 C592 1.511 . S
C595 H609 0.961 . S
C595 H610 0.961 . S
C595 H611 0.961 . S
C596 C597 1.370 . S
C596 C598 1.363 . S
C596 H612 0.931 1_655 S
C597 C596 1.370 . S
C597 C601 1.408 . S
C598 C596 1.363 . S
C598 C599 1.370 . S
C598 C602 1.524 1_655 S
C599 C591 1.503 . S
C599 C598 1.370 . S
C599 C600 1.403 . S
C600 C599 1.403 . S
C600 C601 1.404 . S
C600 C603 1.539 . S
C601 C597 1.408 . S
C601 C600 1.404 . S
C601 H613 0.930 . S
C602 C598 1.524 1_455 S
C602 H614 0.956 1_455 S
C602 H615 0.961 . S
C602 H616 0.961 . S
C603 C600 1.539 . S
C603 H617 0.958 . S
C603 H618 0.961 . S
C603 H619 0.960 . S
H604 C588 0.931 . S
H605 C593 0.929 . S
H606 C594 0.960 . S
H607 C594 0.962 . S
H608 C594 0.960 . S
H609 C595 0.961 . S
H610 C595 0.961 . S
H611 C595 0.961 . S
H612 C596 0.931 1_455 S
H613 C601 0.930 . S
H614 C602 0.956 1_655 S
H615 C602 0.961 . S
H616 C602 0.961 . S
H617 C603 0.958 . S
H618 C603 0.961 . S
H619 C603 0.960 . S
C620 C621 1.391 . S
C620 C622 1.394 . S
C620 H636 0.931 . S
C621 C620 1.391 . S
C621 C625 1.376 . S
C622 C620 1.394 . S
C622 C623 1.369 . S
C622 C626 1.531 . S
C623 C622 1.369 . S
C623 C624 1.410 . S
C623 C631 1.503 . S
C624 C623 1.410 . S
C624 C625 1.392 . S
C624 C627 1.511 . S
C625 C621 1.376 . S
C625 C624 1.392 . S
C625 H637 0.929 . S
C626 C622 1.531 . S
C626 H638 0.960 . S
C626 H639 0.962 . S
C626 H640 0.960 . S
C627 C624 1.511 . S
C627 H641 0.961 . S
C627 H642 0.961 . S
C627 H643 0.961 . S
C628 C629 1.370 . S
C628 C630 1.363 . S
C628 H644 0.931 . S
C629 C628 1.370 . S
C629 C633 1.408 . S
C630 C628 1.363 . S
C630 C631 1.370 . S
C630 C634 1.524 . S
C631 C623 1.503 . S
C631 C630 1.370 . S
C631 C632 1.403 . S
C632 C631 1.403 . S
C632 C633 1.404 . S
C632 C635 1.539 . S
C633 C629 1.408 . S
C633 C632 1.404 . S
C633 H645 0.930 . S
C634 C630 1.524 . S
C634 H646 0.956 . S
C634 H647 0.961 . S
C634 H648 0.961 . S
C635 C632 1.539 . S
C635 H649 0.958 . S
C635 H650 0.961 . S
C635 H651 0.960 . S
H636 C620 0.931 . S
H637 C625 0.929 . S
H638 C626 0.960 . S
H639 C626 0.962 . S
H640 C626 0.960 . S
H641 C627 0.961 . S
H642 C627 0.961 . S
H643 C627 0.961 . S
H644 C628 0.931 . S
H645 C633 0.930 . S
H646 C634 0.956 . S
H647 C634 0.961 . S
H648 C634 0.961 . S
H649 C635 0.958 . S
H650 C635 0.961 . S
H651 C635 0.960 . S
C652 C653 1.391 . S
C652 C654 1.394 . S
C652 H668 0.931 . S
C653 C652 1.391 . S
C653 C657 1.376 . S
C654 C652 1.394 . S
C654 C655 1.369 . S
C654 C658 1.531 . S
C655 C654 1.369 . S
C655 C656 1.410 . S
C655 C663 1.503 . S
C656 C655 1.410 . S
C656 C657 1.392 . S
C656 C659 1.511 . S
C657 C653 1.376 . S
C657 C656 1.392 . S
C657 H669 0.929 . S
C658 C654 1.531 . S
C658 H670 0.960 . S
C658 H671 0.962 . S
C658 H672 0.960 . S
C659 C656 1.511 . S
C659 H673 0.961 . S
C659 H674 0.961 . S
C659 H675 0.961 . S
C660 C661 1.370 . S
C660 C662 1.363 . S
C660 H676 0.931 . S
C661 C660 1.370 . S
C661 C665 1.408 . S
C662 C660 1.363 . S
C662 C663 1.370 . S
C662 C666 1.524 . S
C663 C655 1.503 . S
C663 C662 1.370 . S
C663 C664 1.403 . S
C664 C663 1.403 . S
C664 C665 1.404 . S
C664 C667 1.539 . S
C665 C661 1.408 . S
C665 C664 1.404 . S
C665 H677 0.930 . S
C666 C662 1.524 . S
C666 H678 0.956 . S
C666 H679 0.961 . S
C666 H680 0.961 . S
C667 C664 1.539 . S
C667 H681 0.957 1_545 S
C667 H682 0.989 . S
C667 H683 0.960 . S
H668 C652 0.931 . S
H669 C657 0.929 . S
H670 C658 0.960 . S
H671 C658 0.962 . S
H672 C658 0.960 . S
H673 C659 0.961 . S
H674 C659 0.961 . S
H675 C659 0.961 . S
H676 C660 0.931 . S
H677 C665 0.930 . S
H678 C666 0.956 . S
H679 C666 0.961 . S
H680 C666 0.961 . S
H681 C667 0.957 1_565 S
H682 C667 0.989 . S
H683 C667 0.960 . S
C684 C685 1.391 . S
C684 C686 1.394 . S
C684 H700 0.931 . S
C685 C684 1.391 . S
C685 C689 1.376 . S
C686 C684 1.394 . S
C686 C687 1.369 . S
C686 C690 1.531 . S
C687 C686 1.369 . S
C687 C688 1.410 . S
C687 C695 1.503 . S
C688 C687 1.410 . S
C688 C689 1.392 . S
C688 C691 1.511 . S
C689 C685 1.376 . S
C689 C688 1.392 . S
C689 H701 0.929 . S
C690 C686 1.531 . S
C690 H702 0.960 1_565 S
C690 H703 0.962 . S
C690 H704 0.960 . S
C691 C688 1.511 . S
C691 H705 0.961 . S
C691 H706 0.961 . S
C691 H707 0.961 . S
C692 C693 1.370 . S
C692 C694 1.363 . S
C692 H708 0.931 . S
C693 C692 1.370 . S
C693 C697 1.408 1_565 S
C694 C692 1.363 . S
C694 C695 1.370 . S
C694 C698 1.524 . S
C695 C687 1.503 . S
C695 C694 1.370 . S
C695 C696 1.403 . S
C696 C695 1.403 . S
C696 C697 1.404 1_565 S
C696 C699 1.539 1_565 S
C697 C693 1.408 1_545 S
C697 C696 1.404 1_545 S
C697 H709 0.930 . S
C698 C694 1.524 . S
C698 H710 0.956 . S
C698 H711 0.961 . S
C698 H712 0.961 . S
C699 C696 1.539 1_545 S
C699 H713 0.958 . S
C699 H714 0.961 . S
C699 H715 0.960 . S
H700 C684 0.931 . S
H701 C689 0.929 . S
H702 C690 0.960 1_545 S
H703 C690 0.962 . S
H704 C690 0.960 . S
H705 C691 0.961 . S
H706 C691 0.961 . S
H707 C691 0.961 . S
H708 C692 0.931 . S
H709 C697 0.930 . S
H710 C698 0.956 . S
H711 C698 0.961 . S
H712 C698 0.961 . S
H713 C699 0.958 . S
H714 C699 0.961 . S
H715 C699 0.960 . S
C716 C717 1.391 . S
C716 C718 1.394 . S
C716 H732 0.931 . S
C717 C716 1.391 . S
C717 C721 1.376 . S
C718 C716 1.394 . S
C718 C719 1.369 . S
C718 C722 1.531 . S
C719 C718 1.369 . S
C719 C720 1.410 . S
C719 C727 1.503 . S
C720 C719 1.410 . S
C720 C721 1.392 . S
C720 C723 1.511 . S
C721 C717 1.376 . S
C721 C720 1.392 . S
C721 H733 0.929 . S
C722 C718 1.531 . S
C722 H734 0.960 . S
C722 H735 0.962 . S
C722 H736 0.960 . S
C723 C720 1.511 . S
C723 H737 0.961 . S
C723 H738 0.961 . S
C723 H739 0.961 . S
C724 C725 1.370 . S
C724 C726 1.363 . S
C724 H740 0.931 . S
C725 C724 1.370 . S
C725 C729 1.408 . S
C726 C724 1.363 . S
C726 C727 1.370 . S
C726 C730 1.524 . S
C727 C719 1.503 . S
C727 C726 1.370 . S
C727 C728 1.403 . S
C728 C727 1.403 . S
C728 C729 1.404 . S
C728 C731 1.539 . S
C729 C725 1.408 . S
C729 C728 1.404 . S
C729 H741 0.930 . S
C730 C726 1.524 . S
C730 H742 0.956 . S
C730 H743 0.961 . S
C730 H744 0.961 . S
C731 C728 1.539 . S
C731 H745 0.958 . S
C731 H746 0.961 . S
C731 H747 0.960 . S
H732 C716 0.931 . S
H733 C721 0.929 . S
H734 C722 0.960 . S
H735 C722 0.962 . S
H736 C722 0.960 . S
H737 C723 0.961 . S
H738 C723 0.961 . S
H739 C723 0.961 . S
H740 C724 0.931 . S
H741 C729 0.930 . S
H742 C730 0.956 . S
H743 C730 0.961 . S
H744 C730 0.961 . S
H745 C731 0.958 . S
H746 C731 0.961 . S
H747 C731 0.960 . S
C748 C749 1.391 . S
C748 C750 1.394 . S
C748 H764 0.931 . S
C749 C748 1.391 . S
C749 C753 1.376 . S
C750 C748 1.394 . S
C750 C751 1.369 . S
C750 C754 1.531 . S
C751 C750 1.369 . S
C751 C752 1.410 . S
C751 C759 1.503 . S
C752 C751 1.410 . S
C752 C753 1.392 . S
C752 C755 1.511 . S
C753 C749 1.376 . S
C753 C752 1.392 . S
C753 H765 0.929 . S
C754 C750 1.531 . S
C754 H766 0.960 . S
C754 H767 0.962 . S
C754 H768 0.960 . S
C755 C752 1.511 . S
C755 H769 0.961 . S
C755 H770 0.961 . S
C755 H771 0.961 . S
C756 C757 1.370 . S
C756 C758 1.363 . S
C756 H772 0.931 . S
C757 C756 1.370 . S
C757 C761 1.408 . S
C758 C756 1.363 . S
C758 C759 1.370 . S
C758 C762 1.524 . S
C759 C751 1.503 . S
C759 C758 1.370 . S
C759 C760 1.403 . S
C760 C759 1.403 . S
C760 C761 1.404 . S
C760 C763 1.539 . S
C761 C757 1.408 . S
C761 C760 1.404 . S
C761 H773 0.930 . S
C762 C758 1.524 . S
C762 H774 0.956 . S
C762 H775 0.961 . S
C762 H776 0.961 . S
C763 C760 1.539 . S
C763 H777 0.958 . S
C763 H778 0.961 . S
C763 H779 0.960 . S
H764 C748 0.931 . S
H765 C753 0.929 . S
H766 C754 0.960 . S
H767 C754 0.962 . S
H768 C754 0.960 . S
H769 C755 0.961 . S
H770 C755 0.961 . S
H771 C755 0.961 . S
H772 C756 0.931 . S
H773 C761 0.930 . S
H774 C762 0.956 . S
H775 C762 0.961 . S
H776 C762 0.961 . S
H777 C763 0.958 . S
H778 C763 0.961 . S
H779 C763 0.960 . S
C780 C781 1.391 . S
C780 C782 1.394 . S
C780 H796 0.931 . S
C781 C780 1.391 . S
C781 C785 1.376 . S
C782 C780 1.394 . S
C782 C783 1.369 . S
C782 C786 1.531 . S
C783 C782 1.369 . S
C783 C784 1.410 . S
C783 C791 1.503 . S
C784 C783 1.410 . S
C784 C785 1.392 . S
C784 C787 1.511 . S
C785 C781 1.376 . S
C785 C784 1.392 . S
C785 H797 0.929 . S
C786 C782 1.531 . S
C786 H798 0.960 . S
C786 H799 0.962 . S
C786 H800 0.960 . S
C787 C784 1.511 . S
C787 H801 0.961 . S
C787 H802 0.961 . S
C787 H803 0.961 . S
C788 C789 1.370 . S
C788 C790 1.363 . S
C788 H804 0.931 . S
C789 C788 1.370 . S
C789 C793 1.408 . S
C790 C788 1.363 . S
C790 C791 1.370 . S
C790 C794 1.524 . S
C791 C783 1.503 . S
C791 C790 1.370 . S
C791 C792 1.403 . S
C792 C791 1.403 . S
C792 C793 1.404 . S
C792 C795 1.539 . S
C793 C789 1.408 . S
C793 C792 1.404 . S
C793 H805 0.930 . S
C794 C790 1.524 . S
C794 H806 0.956 . S
C794 H807 0.961 . S
C794 H808 0.961 . S
C795 C792 1.539 . S
C795 H809 0.958 . S
C795 H810 0.961 . S
C795 H811 0.960 . S
H796 C780 0.931 . S
H797 C785 0.929 . S
H798 C786 0.960 . S
H799 C786 0.962 . S
H800 C786 0.960 . S
H801 C787 0.961 . S
H802 C787 0.961 . S
H803 C787 0.961 . S
H804 C788 0.931 . S
H805 C793 0.930 . S
H806 C794 0.956 . S
H807 C794 0.961 . S
H808 C794 0.961 . S
H809 C795 0.958 . S
H810 C795 0.961 . S
H811 C795 0.960 . S
C812 C813 1.391 1_565 S
C812 C814 1.394 . S
C812 H828 0.931 . S
C813 C812 1.391 1_545 S
C813 C817 1.371 1_545 S
C814 C812 1.394 . S
C814 C815 1.369 . S
C814 C818 1.531 . S
C815 C814 1.369 . S
C815 C816 1.410 . S
C815 C823 1.503 . S
C816 C815 1.410 . S
C816 C817 1.415 . S
C816 C819 1.511 . S
C817 C813 1.371 1_565 S
C817 C816 1.415 . S
C817 H829 0.911 1_565 S
C818 C814 1.531 . S
C818 H830 0.960 . S
C818 H831 0.962 . S
C818 H832 0.960 . S
C819 C816 1.511 . S
C819 H833 0.961 . S
C819 H834 0.961 . S
C819 H835 0.961 . S
C820 C821 1.370 . S
C820 C822 1.363 . S
C820 H836 0.931 . S
C821 C820 1.370 . S
C821 C825 1.408 . S
C822 C820 1.363 . S
C822 C823 1.370 . S
C822 C826 1.524 . S
C823 C815 1.503 . S
C823 C822 1.370 . S
C823 C824 1.403 . S
C824 C823 1.403 . S
C824 C825 1.404 . S
C824 C827 1.539 . S
C825 C821 1.408 . S
C825 C824 1.404 . S
C825 H837 0.930 . S
C826 C822 1.524 . S
C826 H838 0.956 . S
C826 H839 0.961 . S
C826 H840 0.961 . S
C827 C824 1.539 . S
C827 H841 0.958 . S
C827 H842 0.961 . S
C827 H843 0.960 . S
H828 C812 0.931 . S
H829 C817 0.911 1_545 S
H830 C818 0.960 . S
H831 C818 0.962 . S
H832 C818 0.960 . S
H833 C819 0.961 . S
H834 C819 0.961 . S
H835 C819 0.961 . S
H836 C820 0.931 . S
H837 C825 0.930 . S
H838 C826 0.956 . S
H839 C826 0.961 . S
H840 C826 0.961 . S
H841 C827 0.958 . S
H842 C827 0.961 . S
H843 C827 0.960 . S
C844 C845 1.391 . S
C844 C846 1.394 . S
C844 H860 0.931 . S
C845 C844 1.391 . S
C845 C849 1.376 . S
C846 C844 1.394 . S
C846 C847 1.369 . S
C846 C850 1.531 . S
C847 C846 1.369 . S
C847 C848 1.410 . S
C847 C855 1.503 . S
C848 C847 1.410 . S
C848 C849 1.392 . S
C848 C851 1.511 . S
C849 C845 1.376 . S
C849 C848 1.392 . S
C849 H861 0.929 . S
C850 C846 1.531 . S
C850 H862 0.960 . S
C850 H863 0.962 . S
C850 H864 0.960 . S
C851 C848 1.511 . S
C851 H865 0.961 . S
C851 H866 0.961 . S
C851 H867 0.961 . S
C852 C853 1.370 . S
C852 C854 1.363 . S
C852 H868 0.931 . S
C853 C852 1.370 . S
C853 C857 1.408 . S
C854 C852 1.363 . S
C854 C855 1.370 . S
C854 C858 1.524 . S
C855 C847 1.503 . S
C855 C854 1.370 . S
C855 C856 1.403 . S
C856 C855 1.403 . S
C856 C857 1.404 . S
C856 C859 1.539 . S
C857 C853 1.408 . S
C857 C856 1.404 . S
C857 H869 0.930 . S
C858 C854 1.524 . S
C858 H870 0.956 . S
C858 H871 0.961 . S
C858 H872 0.961 . S
C859 C856 1.539 . S
C859 H873 0.958 . S
C859 H874 0.961 . S
C859 H875 0.960 . S
H860 C844 0.931 . S
H861 C849 0.929 . S
H862 C850 0.960 . S
H863 C850 0.962 . S
H864 C850 0.960 . S
H865 C851 0.961 . S
H866 C851 0.961 . S
H867 C851 0.961 . S
H868 C852 0.931 . S
H869 C857 0.930 . S
H870 C858 0.956 . S
H871 C858 0.961 . S
H872 C858 0.961 . S
H873 C859 0.958 . S
H874 C859 0.961 . S
H875 C859 0.960 . S
C876 C877 1.391 . S
C876 C878 1.394 . S
C876 H892 0.931 . S
C877 C876 1.391 . S
C877 C881 1.376 . S
C878 C876 1.394 . S
C878 C879 1.369 . S
C878 C882 1.531 . S
C879 C878 1.369 . S
C879 C880 1.410 . S
C879 C887 1.503 . S
C880 C879 1.410 . S
C880 C881 1.392 . S
C880 C883 1.511 . S
C881 C877 1.376 . S
C881 C880 1.392 . S
C881 H893 0.929 . S
C882 C878 1.531 . S
C882 H894 0.960 . S
C882 H895 0.962 . S
C882 H896 0.960 . S
C883 C880 1.511 . S
C883 H897 0.961 . S
C883 H898 0.961 . S
C883 H899 0.961 . S
C884 C885 1.370 . S
C884 C886 1.363 . S
C884 H900 0.931 . S
C885 C884 1.370 . S
C885 C889 1.408 . S
C886 C884 1.363 . S
C886 C887 1.370 . S
C886 C890 1.524 . S
C887 C879 1.503 . S
C887 C886 1.370 . S
C887 C888 1.403 . S
C888 C887 1.403 . S
C888 C889 1.404 . S
C888 C891 1.539 . S
C889 C885 1.408 . S
C889 C888 1.404 . S
C889 H901 0.930 . S
C890 C886 1.524 . S
C890 H902 0.956 . S
C890 H903 0.961 . S
C890 H904 0.961 . S
C891 C888 1.539 . S
C891 H905 0.958 . S
C891 H906 0.961 . S
C891 H907 0.960 . S
H892 C876 0.931 . S
H893 C881 0.929 . S
H894 C882 0.960 . S
H895 C882 0.962 . S
H896 C882 0.960 . S
H897 C883 0.961 . S
H898 C883 0.961 . S
H899 C883 0.961 . S
H900 C884 0.931 . S
H901 C889 0.930 . S
H902 C890 0.956 . S
H903 C890 0.961 . S
H904 C890 0.961 . S
H905 C891 0.958 . S
H906 C891 0.961 . S
H907 C891 0.960 . S
C908 C909 1.391 . S
C908 C910 1.394 . S
C908 H924 0.931 . S
C909 C908 1.391 . S
C909 C913 1.376 . S
C910 C908 1.394 . S
C910 C911 1.369 . S
C910 C914 1.531 . S
C911 C910 1.369 . S
C911 C912 1.410 . S
C911 C919 1.503 . S
C912 C911 1.410 . S
C912 C913 1.392 . S
C912 C915 1.511 . S
C913 C909 1.376 . S
C913 C912 1.392 . S
C913 H925 0.929 . S
C914 C910 1.531 . S
C914 H926 0.960 . S
C914 H927 0.962 . S
C914 H928 0.960 . S
C915 C912 1.511 . S
C915 H929 0.961 . S
C915 H930 0.961 . S
C915 H931 0.961 . S
C916 C917 1.370 . S
C916 C918 1.363 . S
C916 H932 0.931 . S
C917 C916 1.370 . S
C917 C921 1.408 . S
C918 C916 1.363 . S
C918 C919 1.370 . S
C918 C922 1.524 . S
C919 C911 1.503 . S
C919 C918 1.370 . S
C919 C920 1.403 . S
C920 C919 1.403 . S
C920 C921 1.404 . S
C920 C923 1.539 . S
C921 C917 1.408 . S
C921 C920 1.404 . S
C921 H933 0.930 . S
C922 C918 1.524 . S
C922 H934 0.956 . S
C922 H935 0.961 . S
C922 H936 0.961 . S
C923 C920 1.539 . S
C923 H937 0.958 . S
C923 H938 0.961 . S
C923 H939 0.960 . S
H924 C908 0.931 . S
H925 C913 0.929 . S
H926 C914 0.960 . S
H927 C914 0.962 . S
H928 C914 0.960 . S
H929 C915 0.961 . S
H930 C915 0.961 . S
H931 C915 0.961 . S
H932 C916 0.931 . S
H933 C921 0.930 . S
H934 C922 0.956 . S
H935 C922 0.961 . S
H936 C922 0.961 . S
H937 C923 0.958 . S
H938 C923 0.961 . S
H939 C923 0.960 . S
C940 C941 1.391 . S
C940 C942 1.394 . S
C940 H956 0.931 . S
C941 C940 1.391 . S
C941 C945 1.376 . S
C942 C940 1.394 . S
C942 C943 1.369 . S
C942 C946 1.531 . S
C943 C942 1.369 . S
C943 C944 1.410 . S
C943 C951 1.503 . S
C944 C943 1.410 . S
C944 C945 1.392 . S
C944 C947 1.511 . S
C945 C941 1.376 . S
C945 C944 1.392 . S
C945 H957 0.929 . S
C946 C942 1.531 . S
C946 H958 0.960 . S
C946 H959 0.962 . S
C946 H960 0.960 . S
C947 C944 1.511 . S
C947 H961 0.961 . S
C947 H962 0.961 . S
C947 H963 0.961 . S
C948 C949 1.370 . S
C948 C950 1.363 . S
C948 H964 0.931 . S
C949 C948 1.370 . S
C949 C953 1.408 . S
C950 C948 1.363 . S
C950 C951 1.370 . S
C950 C954 1.524 . S
C951 C943 1.503 . S
C951 C950 1.370 . S
C951 C952 1.403 . S
C952 C951 1.403 . S
C952 C953 1.404 . S
C952 C955 1.539 . S
C953 C949 1.408 . S
C953 C952 1.404 . S
C953 H965 0.930 . S
C954 C950 1.524 . S
C954 H966 0.956 . S
C954 H967 0.961 . S
C954 H968 0.961 . S
C955 C952 1.539 . S
C955 H969 0.958 . S
C955 H970 0.961 . S
C955 H971 0.960 . S
H956 C940 0.931 . S
H957 C945 0.929 . S
H958 C946 0.960 . S
H959 C946 0.962 . S
H960 C946 0.960 . S
H961 C947 0.961 . S
H962 C947 0.961 . S
H963 C947 0.961 . S
H964 C948 0.931 . S
H965 C953 0.930 . S
H966 C954 0.956 . S
H967 C954 0.961 . S
H968 C954 0.961 . S
H969 C955 0.958 . S
H970 C955 0.961 . S
H971 C955 0.960 . S
C972 C973 1.391 . S
C972 C974 1.394 . S
C972 H988 0.931 . S
C973 C972 1.391 . S
C973 C977 1.376 . S
C974 C972 1.394 . S
C974 C975 1.369 . S
C974 C978 1.531 . S
C975 C974 1.369 . S
C975 C976 1.410 . S
C975 C983 1.503 . S
C976 C975 1.410 . S
C976 C977 1.392 . S
C976 C979 1.511 . S
C977 C973 1.376 . S
C977 C976 1.392 . S
C977 H989 0.929 . S
C978 C974 1.531 . S
C978 H990 0.960 . S
C978 H991 0.962 . S
C978 H992 0.960 . S
C979 C976 1.511 . S
C979 H993 0.961 . S
C979 H994 0.961 . S
C979 H995 0.961 . S
C980 C981 1.370 . S
C980 C982 1.363 . S
C980 H996 0.931 . S
C981 C980 1.370 . S
C981 C985 1.408 . S
C982 C980 1.363 . S
C982 C983 1.370 . S
C982 C986 1.524 . S
C983 C975 1.503 . S
C983 C982 1.370 . S
C983 C984 1.403 . S
C984 C983 1.403 . S
C984 C985 1.404 . S
C984 C987 1.539 . S
C985 C981 1.408 . S
C985 C984 1.404 . S
C985 H997 0.930 . S
C986 C982 1.524 . S
C986 H998 0.956 . S
C986 H999 0.961 . S
C986 H1000 0.961 . S
C987 C984 1.539 . S
C987 H1001 0.958 . S
C987 H1002 0.961 . S
C987 H1003 0.960 . S
H988 C972 0.931 . S
H989 C977 0.929 . S
H990 C978 0.960 . S
H991 C978 0.962 . S
H992 C978 0.960 . S
H993 C979 0.961 . S
H994 C979 0.961 . S
H995 C979 0.961 . S
H996 C980 0.931 . S
H997 C985 0.930 . S
H998 C986 0.956 . S
H999 C986 0.961 . S
H1000 C986 0.961 . S
H1001 C987 0.958 . S
H1002 C987 0.961 . S
H1003 C987 0.960 . S
C1004 C1005 1.391 . S
C1004 C1006 1.394 . S
C1004 H1020 0.931 . S
C1005 C1004 1.391 . S
C1005 C1009 1.376 . S
C1006 C1004 1.394 . S
C1006 C1007 1.369 . S
C1006 C1010 1.531 . S
C1007 C1006 1.369 . S
C1007 C1008 1.410 . S
C1007 C1015 1.503 . S
C1008 C1007 1.410 . S
C1008 C1009 1.392 . S
C1008 C1011 1.511 . S
C1009 C1005 1.376 . S
C1009 C1008 1.392 . S
C1009 H1021 0.929 . S
C1010 C1006 1.531 . S
C1010 H1022 0.960 . S
C1010 H1023 0.962 . S
C1010 H1024 0.960 . S
C1011 C1008 1.511 . S
C1011 H1025 0.961 . S
C1011 H1026 0.961 . S
C1011 H1027 0.961 . S
C1012 C1013 1.370 . S
C1012 C1014 1.363 . S
C1012 H1028 0.931 . S
C1013 C1012 1.370 . S
C1013 C1017 1.408 . S
C1014 C1012 1.363 . S
C1014 C1015 1.370 . S
C1014 C1018 1.524 . S
C1015 C1007 1.503 . S
C1015 C1014 1.370 . S
C1015 C1016 1.403 . S
C1016 C1015 1.403 . S
C1016 C1017 1.404 . S
C1016 C1019 1.539 . S
C1017 C1013 1.408 . S
C1017 C1016 1.404 . S
C1017 H1029 0.930 . S
C1018 C1014 1.524 . S
C1018 H1030 0.956 . S
C1018 H1031 0.961 . S
C1018 H1032 0.961 . S
C1019 C1016 1.539 . S
C1019 H1033 0.958 . S
C1019 H1034 0.961 . S
C1019 H1035 0.960 . S
H1020 C1004 0.931 . S
H1021 C1009 0.929 . S
H1022 C1010 0.960 . S
H1023 C1010 0.962 . S
H1024 C1010 0.960 . S
H1025 C1011 0.961 . S
H1026 C1011 0.961 . S
H1027 C1011 0.961 . S
H1028 C1012 0.931 . S
H1029 C1017 0.930 . S
H1030 C1018 0.956 . S
H1031 C1018 0.961 . S
H1032 C1018 0.961 . S
H1033 C1019 0.958 . S
H1034 C1019 0.961 . S
H1035 C1019 0.960 . S
C1036 C1037 1.391 . S
C1036 C1038 1.394 . S
C1036 H1052 0.931 . S
C1037 C1036 1.391 . S
C1037 C1041 1.376 . S
C1038 C1036 1.394 . S
C1038 C1039 1.369 . S
C1038 C1042 1.531 . S
C1039 C1038 1.369 . S
C1039 C1040 1.410 . S
C1039 C1047 1.503 . S
C1040 C1039 1.410 . S
C1040 C1041 1.392 . S
C1040 C1043 1.511 . S
C1041 C1037 1.376 . S
C1041 C1040 1.392 . S
C1041 H1053 0.929 . S
C1042 C1038 1.531 . S
C1042 H1054 0.960 . S
C1042 H1055 0.962 . S
C1042 H1056 0.960 . S
C1043 C1040 1.511 . S
C1043 H1057 0.961 . S
C1043 H1058 0.961 . S
C1043 H1059 0.961 . S
C1044 C1045 1.370 . S
C1044 C1046 1.363 . S
C1044 H1060 0.931 . S
C1045 C1044 1.370 . S
C1045 C1049 1.408 . S
C1046 C1044 1.363 . S
C1046 C1047 1.370 . S
C1046 C1050 1.524 . S
C1047 C1039 1.503 . S
C1047 C1046 1.370 . S
C1047 C1048 1.403 . S
C1048 C1047 1.403 . S
C1048 C1049 1.404 . S
C1048 C1051 1.539 . S
C1049 C1045 1.408 . S
C1049 C1048 1.404 . S
C1049 H1061 0.930 . S
C1050 C1046 1.524 . S
C1050 H1062 0.956 . S
C1050 H1063 0.961 . S
C1050 H1064 0.961 . S
C1051 C1048 1.539 . S
C1051 H1065 0.958 . S
C1051 H1066 0.961 . S
C1051 H1067 0.960 . S
H1052 C1036 0.931 . S
H1053 C1041 0.929 . S
H1054 C1042 0.960 . S
H1055 C1042 0.962 . S
H1056 C1042 0.960 . S
H1057 C1043 0.961 . S
H1058 C1043 0.961 . S
H1059 C1043 0.961 . S
H1060 C1044 0.931 . S
H1061 C1049 0.930 . S
H1062 C1050 0.956 . S
H1063 C1050 0.961 . S
H1064 C1050 0.961 . S
H1065 C1051 0.958 . S
H1066 C1051 0.961 . S
H1067 C1051 0.960 . S
C1068 C1069 1.391 . S
C1068 C1070 1.394 . S
C1068 H1084 0.931 . S
C1069 C1068 1.391 . S
C1069 C1073 1.376 1_554 S
C1070 C1068 1.394 . S
C1070 C1071 1.369 1_554 S
C1070 C1074 1.531 . S
C1071 C1070 1.369 1_556 S
C1071 C1072 1.410 . S
C1071 C1079 1.503 . S
C1072 C1071 1.410 . S
C1072 C1073 1.392 . S
C1072 C1075 1.511 . S
C1073 C1069 1.376 1_556 S
C1073 C1072 1.392 . S
C1073 H1085 0.929 . S
C1074 C1070 1.531 . S
C1074 H1086 0.960 . S
C1074 H1087 0.962 . S
C1074 H1088 0.960 . S
C1075 C1072 1.511 . S
C1075 H1089 0.961 . S
C1075 H1090 0.961 . S
C1075 H1091 0.961 . S
C1076 C1077 1.370 . S
C1076 C1078 1.363 . S
C1076 H1092 0.931 . S
C1077 C1076 1.370 . S
C1077 C1081 1.408 . S
C1078 C1076 1.363 . S
C1078 C1079 1.370 . S
C1078 C1082 1.524 1_556 S
C1079 C1071 1.503 . S
C1079 C1078 1.370 . S
C1079 C1080 1.403 . S
C1080 C1079 1.403 . S
C1080 C1081 1.404 . S
C1080 C1083 1.539 . S
C1081 C1077 1.408 . S
C1081 C1080 1.404 . S
C1081 H1093 0.930 . S
C1082 C1078 1.524 1_554 S
C1082 H1094 0.956 . S
C1082 H1095 0.961 . S
C1082 H1096 0.961 . S
C1083 C1080 1.539 . S
C1083 H1097 0.958 . S
C1083 H1098 0.961 . S
C1083 H1099 0.960 . S
H1084 C1068 0.931 . S
H1085 C1073 0.929 . S
H1086 C1074 0.960 . S
H1087 C1074 0.962 . S
H1088 C1074 0.960 . S
H1089 C1075 0.961 . S
H1090 C1075 0.961 . S
H1091 C1075 0.961 . S
H1092 C1076 0.931 . S
H1093 C1081 0.930 . S
H1094 C1082 0.956 . S
H1095 C1082 0.961 . S
H1096 C1082 0.961 . S
H1097 C1083 0.958 . S
H1098 C1083 0.961 . S
H1099 C1083 0.960 . S
C1100 C1101 1.379 1_556 S
C1100 C1102 1.400 . S
C1100 H1116 0.937 . S
C1101 C1100 1.379 1_554 S
C1101 C1105 1.376 . S
C1102 C1100 1.400 . S
C1102 C1103 1.381 . S
C1102 C1106 1.531 . S
C1103 C1102 1.381 . S
C1103 C1104 1.384 1_556 S
C1103 C1111 1.518 . S
C1104 C1103 1.384 1_554 S
C1104 C1105 1.392 . S
C1104 C1107 1.511 . S
C1105 C1101 1.376 . S
C1105 C1104 1.392 . S
C1105 H1117 0.929 . S
C1106 C1102 1.531 . S
C1106 H1118 0.960 . S
C1106 H1119 0.962 . S
C1106 H1120 0.960 . S
C1107 C1104 1.511 . S
C1107 H1121 0.961 . S
C1107 H1122 0.961 . S
C1107 H1123 0.961 . S
C1108 C1109 1.370 1_565 S
C1108 C1110 1.363 . S
C1108 H1124 0.931 . S
C1109 C1108 1.370 1_545 S
C1109 C1113 1.408 1_545 S
C1110 C1108 1.363 . S
C1110 C1111 1.370 . S
C1110 C1114 1.524 . S
C1111 C1103 1.518 . S
C1111 C1110 1.370 . S
C1111 C1112 1.403 . S
C1112 C1111 1.403 . S
C1112 C1113 1.404 . S
C1112 C1115 1.539 1_556 S
C1113 C1109 1.408 1_565 S
C1113 C1112 1.404 . S
C1113 H1125 0.930 1_565 S
C1114 C1110 1.524 . S
C1114 H1126 0.956 . S
C1114 H1127 0.961 . S
C1114 H1128 0.961 . S
C1115 C1112 1.539 1_554 S
C1115 H1129 0.958 . S
C1115 H1130 0.961 . S
C1115 H1131 0.960 . S
H1116 C1100 0.937 . S
H1117 C1105 0.929 . S
H1118 C1106 0.960 . S
H1119 C1106 0.962 . S
H1120 C1106 0.960 . S
H1121 C1107 0.961 . S
H1122 C1107 0.961 . S
H1123 C1107 0.961 . S
H1124 C1108 0.931 . S
H1125 C1113 0.930 1_545 S
H1126 C1114 0.956 . S
H1127 C1114 0.961 . S
H1128 C1114 0.961 . S
H1129 C1115 0.958 . S
H1130 C1115 0.961 . S
H1131 C1115 0.960 . S
C1132 C1133 1.391 . S
C1132 C1134 1.394 . S
C1132 H1148 0.931 . S
C1133 C1132 1.391 . S
C1133 C1137 1.376 . S
C1134 C1132 1.394 . S
C1134 C1135 1.369 1_554 S
C1134 C1138 1.531 . S
C1135 C1134 1.369 1_556 S
C1135 C1136 1.410 . S
C1135 C1143 1.503 . S
C1136 C1135 1.410 . S
C1136 C1137 1.392 1_556 S
C1136 C1139 1.511 . S
C1137 C1133 1.376 . S
C1137 C1136 1.392 1_554 S
C1137 H1149 0.929 . S
C1138 C1134 1.531 . S
C1138 H1150 0.960 1_554 S
C1138 H1151 0.962 . S
C1138 H1152 0.960 . S
C1139 C1136 1.511 . S
C1139 H1153 0.961 . S
C1139 H1154 0.961 . S
C1139 H1155 0.961 . S
C1140 C1141 1.370 . S
C1140 C1142 1.363 . S
C1140 H1156 0.931 . S
C1141 C1140 1.370 . S
C1141 C1145 1.408 . S
C1142 C1140 1.363 . S
C1142 C1143 1.370 . S
C1142 C1146 1.524 1_556 S
C1143 C1135 1.503 . S
C1143 C1142 1.370 . S
C1143 C1144 1.403 . S
C1144 C1143 1.403 . S
C1144 C1145 1.404 . S
C1144 C1147 1.539 . S
C1145 C1141 1.408 . S
C1145 C1144 1.404 . S
C1145 H1157 0.930 . S
C1146 C1142 1.524 1_554 S
C1146 H1158 0.956 . S
C1146 H1159 0.961 . S
C1146 H1160 0.961 . S
C1147 C1144 1.539 . S
C1147 H1161 0.958 . S
C1147 H1162 0.961 . S
C1147 H1163 0.960 . S
H1148 C1132 0.931 . S
H1149 C1137 0.929 . S
H1150 C1138 0.960 1_556 S
H1151 C1138 0.962 . S
H1152 C1138 0.960 . S
H1153 C1139 0.961 . S
H1154 C1139 0.961 . S
H1155 C1139 0.961 . S
H1156 C1140 0.931 . S
H1157 C1145 0.930 . S
H1158 C1146 0.956 . S
H1159 C1146 0.961 . S
H1160 C1146 0.961 . S
H1161 C1147 0.958 . S
H1162 C1147 0.961 . S
H1163 C1147 0.960 . S
C1164 C1165 1.391 . S
C1164 C1166 1.394 . S
C1164 H1180 0.931 . S
C1165 C1164 1.391 . S
C1165 C1169 1.376 . S
C1166 C1164 1.394 . S
C1166 C1167 1.369 . S
C1166 C1170 1.531 . S
C1167 C1166 1.369 . S
C1167 C1168 1.410 . S
C1167 C1175 1.503 . S
C1168 C1167 1.410 . S
C1168 C1169 1.392 . S
C1168 C1171 1.511 . S
C1169 C1165 1.376 . S
C1169 C1168 1.392 . S
C1169 H1181 0.929 . S
C1170 C1166 1.531 . S
C1170 H1182 0.960 . S
C1170 H1183 0.962 . S
C1170 H1184 0.960 . S
C1171 C1168 1.511 . S
C1171 H1185 0.961 . S
C1171 H1186 0.961 . S
C1171 H1187 0.961 . S
C1172 C1173 1.370 . S
C1172 C1174 1.363 . S
C1172 H1188 0.931 . S
C1173 C1172 1.370 . S
C1173 C1177 1.408 . S
C1174 C1172 1.363 . S
C1174 C1175 1.370 . S
C1174 C1178 1.524 . S
C1175 C1167 1.503 . S
C1175 C1174 1.370 . S
C1175 C1176 1.403 . S
C1176 C1175 1.403 . S
C1176 C1177 1.404 . S
C1176 C1179 1.539 . S
C1177 C1173 1.408 . S
C1177 C1176 1.404 . S
C1177 H1189 0.930 . S
C1178 C1174 1.524 . S
C1178 H1190 0.956 . S
C1178 H1191 0.961 . S
C1178 H1192 0.961 . S
C1179 C1176 1.539 . S
C1179 H1193 0.958 . S
C1179 H1194 0.961 . S
C1179 H1195 0.960 . S
H1180 C1164 0.931 . S
H1181 C1169 0.929 . S
H1182 C1170 0.960 . S
H1183 C1170 0.962 . S
H1184 C1170 0.960 . S
H1185 C1171 0.961 . S
H1186 C1171 0.961 . S
H1187 C1171 0.961 . S
H1188 C1172 0.931 . S
H1189 C1177 0.930 . S
H1190 C1178 0.956 . S
H1191 C1178 0.961 . S
H1192 C1178 0.961 . S
H1193 C1179 0.958 . S
H1194 C1179 0.961 . S
H1195 C1179 0.960 . S
C1196 C1197 1.391 . S
C1196 C1198 1.394 . S
C1196 H1212 0.931 . S
C1197 C1196 1.391 . S
C1197 C1201 1.376 . S
C1198 C1196 1.394 . S
C1198 C1199 1.369 . S
C1198 C1202 1.531 . S
C1199 C1198 1.369 . S
C1199 C1200 1.410 . S
C1199 C1207 1.503 . S
C1200 C1199 1.410 . S
C1200 C1201 1.392 . S
C1200 C1203 1.511 . S
C1201 C1197 1.376 . S
C1201 C1200 1.392 . S
C1201 H1213 0.929 . S
C1202 C1198 1.531 . S
C1202 H1214 0.960 . S
C1202 H1215 0.962 . S
C1202 H1216 0.960 . S
C1203 C1200 1.511 . S
C1203 H1217 0.961 . S
C1203 H1218 0.961 . S
C1203 H1219 0.961 . S
C1204 C1205 1.370 . S
C1204 C1206 1.363 . S
C1204 H1220 0.931 . S
C1205 C1204 1.370 . S
C1205 C1209 1.408 . S
C1206 C1204 1.363 . S
C1206 C1207 1.370 . S
C1206 C1210 1.524 . S
C1207 C1199 1.503 . S
C1207 C1206 1.370 . S
C1207 C1208 1.403 . S
C1208 C1207 1.403 . S
C1208 C1209 1.404 . S
C1208 C1211 1.539 . S
C1209 C1205 1.408 . S
C1209 C1208 1.404 . S
C1209 H1221 0.930 . S
C1210 C1206 1.524 . S
C1210 H1222 0.956 . S
C1210 H1223 0.961 . S
C1210 H1224 0.961 . S
C1211 C1208 1.539 . S
C1211 H1225 0.958 . S
C1211 H1226 0.961 . S
C1211 H1227 0.960 . S
H1212 C1196 0.931 . S
H1213 C1201 0.929 . S
H1214 C1202 0.960 . S
H1215 C1202 0.962 . S
H1216 C1202 0.960 . S
H1217 C1203 0.961 . S
H1218 C1203 0.961 . S
H1219 C1203 0.961 . S
H1220 C1204 0.931 . S
H1221 C1209 0.930 . S
H1222 C1210 0.956 . S
H1223 C1210 0.961 . S
H1224 C1210 0.961 . S
H1225 C1211 0.958 . S
H1226 C1211 0.961 . S
H1227 C1211 0.960 . S
C1228 C1229 1.391 . S
C1228 C1230 1.394 . S
C1228 H1244 0.931 . S
C1229 C1228 1.391 . S
C1229 C1233 1.376 . S
C1230 C1228 1.394 . S
C1230 C1231 1.369 . S
C1230 C1234 1.531 . S
C1231 C1230 1.369 . S
C1231 C1232 1.410 . S
C1231 C1239 1.503 . S
C1232 C1231 1.410 . S
C1232 C1233 1.392 . S
C1232 C1235 1.511 . S
C1233 C1229 1.376 . S
C1233 C1232 1.392 . S
C1233 H1245 0.929 . S
C1234 C1230 1.531 . S
C1234 H1246 0.960 . S
C1234 H1247 0.962 . S
C1234 H1248 0.960 . S
C1235 C1232 1.511 . S
C1235 H1249 0.961 . S
C1235 H1250 0.961 . S
C1235 H1251 0.961 . S
C1236 C1237 1.370 . S
C1236 C1238 1.363 . S
C1236 H1252 0.931 . S
C1237 C1236 1.370 . S
C1237 C1241 1.408 . S
C1238 C1236 1.363 . S
C1238 C1239 1.370 . S
C1238 C1242 1.524 . S
C1239 C1231 1.503 . S
C1239 C1238 1.370 . S
C1239 C1240 1.403 . S
C1240 C1239 1.403 . S
C1240 C1241 1.404 . S
C1240 C1243 1.539 . S
C1241 C1237 1.408 . S
C1241 C1240 1.404 . S
C1241 H1253 0.930 . S
C1242 C1238 1.524 . S
C1242 H1254 0.956 . S
C1242 H1255 0.961 . S
C1242 H1256 0.961 . S
C1243 C1240 1.539 . S
C1243 H1257 0.958 . S
C1243 H1258 0.961 . S
C1243 H1259 0.960 . S
H1244 C1228 0.931 . S
H1245 C1233 0.929 . S
H1246 C1234 0.960 . S
H1247 C1234 0.962 . S
H1248 C1234 0.960 . S
H1249 C1235 0.961 . S
H1250 C1235 0.961 . S
H1251 C1235 0.961 . S
H1252 C1236 0.931 . S
H1253 C1241 0.930 . S
H1254 C1242 0.956 . S
H1255 C1242 0.961 . S
H1256 C1242 0.961 . S
H1257 C1243 0.958 . S
H1258 C1243 0.961 . S
H1259 C1243 0.960 . S
C1260 C1261 1.391 . S
C1260 C1262 1.394 . S
C1260 H1276 0.931 . S
C1261 C1260 1.391 . S
C1261 C1265 1.376 . S
C1262 C1260 1.394 . S
C1262 C1263 1.369 . S
C1262 C1266 1.525 1_556 S
C1263 C1262 1.369 . S
C1263 C1264 1.410 . S
C1263 C1271 1.503 1_556 S
C1264 C1263 1.410 . S
C1264 C1265 1.392 . S
C1264 C1267 1.511 . S
C1265 C1261 1.376 . S
C1265 C1264 1.392 . S
C1265 H1277 0.929 . S
C1266 C1262 1.525 1_554 S
C1266 H1278 0.958 1_554 S
C1266 H1279 0.986 . S
C1266 H1280 0.945 1_554 S
C1267 C1264 1.511 . S
C1267 H1281 0.961 . S
C1267 H1282 0.961 1_556 S
C1267 H1283 0.961 . S
C1268 C1269 1.370 . S
C1268 C1270 1.363 . S
C1268 H1284 0.931 . S
C1269 C1268 1.370 . S
C1269 C1273 1.408 . S
C1270 C1268 1.363 . S
C1270 C1271 1.370 . S
C1270 C1274 1.524 . S
C1271 C1263 1.503 1_554 S
C1271 C1270 1.370 . S
C1271 C1272 1.403 1_554 S
C1272 C1271 1.403 1_556 S
C1272 C1273 1.404 1_556 S
C1272 C1275 1.539 . S
C1273 C1269 1.408 . S
C1273 C1272 1.404 1_554 S
C1273 H1285 0.930 . S
C1274 C1270 1.524 . S
C1274 H1286 0.956 . S
C1274 H1287 0.961 . S
C1274 H1288 0.961 . S
C1275 C1272 1.539 . S
C1275 H1289 0.958 . S
C1275 H1290 0.961 . S
C1275 H1291 0.960 . S
H1276 C1260 0.931 . S
H1277 C1265 0.929 . S
H1278 C1266 0.958 1_556 S
H1279 C1266 0.986 . S
H1280 C1266 0.945 1_556 S
H1281 C1267 0.961 . S
H1282 C1267 0.961 1_554 S
H1283 C1267 0.961 . S
H1284 C1268 0.931 . S
H1285 C1273 0.930 . S
H1286 C1274 0.956 . S
H1287 C1274 0.961 . S
H1288 C1274 0.961 . S
H1289 C1275 0.958 . S
H1290 C1275 0.961 . S
H1291 C1275 0.960 . S
C1292 C1293 1.391 . S
C1292 C1294 1.391 1_556 S
C1292 H1308 0.931 . S
C1293 C1292 1.391 . S
C1293 C1297 1.376 . S
C1294 C1292 1.391 1_554 S
C1294 C1295 1.371 . S
C1294 C1298 1.532 . S
C1295 C1294 1.371 . S
C1295 C1296 1.410 . S
C1295 C1303 1.503 . S
C1296 C1295 1.410 . S
C1296 C1297 1.392 1_554 S
C1296 C1299 1.511 . S
C1297 C1293 1.376 . S
C1297 C1296 1.392 1_556 S
C1297 H1309 0.929 . S
C1298 C1294 1.532 . S
C1298 H1310 0.960 . S
C1298 H1311 0.962 1_554 S
C1298 H1312 0.960 . S
C1299 C1296 1.511 . S
C1299 H1313 0.961 . S
C1299 H1314 0.961 . S
C1299 H1315 0.961 . S
C1300 C1301 1.370 . S
C1300 C1302 1.363 . S
C1300 H1316 0.931 . S
C1301 C1300 1.370 . S
C1301 C1305 1.408 . S
C1302 C1300 1.363 . S
C1302 C1303 1.370 . S
C1302 C1306 1.524 1_554 S
C1303 C1295 1.503 . S
C1303 C1302 1.370 . S
C1303 C1304 1.403 . S
C1304 C1303 1.403 . S
C1304 C1305 1.404 . S
C1304 C1307 1.539 . S
C1305 C1301 1.408 . S
C1305 C1304 1.404 . S
C1305 H1317 0.930 . S
C1306 C1302 1.524 1_556 S
C1306 H1318 0.956 . S
C1306 H1319 0.961 . S
C1306 H1320 0.961 . S
C1307 C1304 1.539 . S
C1307 H1321 0.958 . S
C1307 H1322 0.961 . S
C1307 H1323 0.960 . S
H1308 C1292 0.931 . S
H1309 C1297 0.929 . S
H1310 C1298 0.960 . S
H1311 C1298 0.962 1_556 S
H1312 C1298 0.960 . S
H1313 C1299 0.961 . S
H1314 C1299 0.961 . S
H1315 C1299 0.961 . S
H1316 C1300 0.931 . S
H1317 C1305 0.930 . S
H1318 C1306 0.956 . S
H1319 C1306 0.961 . S
H1320 C1306 0.961 . S
H1321 C1307 0.958 . S
H1322 C1307 0.961 . S
H1323 C1307 0.960 . S
C1324 C1325 1.391 . S
C1324 C1326 1.394 . S
C1324 H1340 0.931 . S
C1325 C1324 1.391 . S
C1325 C1329 1.376 . S
C1326 C1324 1.394 . S
C1326 C1327 1.369 . S
C1326 C1330 1.531 . S
C1327 C1326 1.369 . S
C1327 C1328 1.410 1_556 S
C1327 C1335 1.503 1_556 S
C1328 C1327 1.410 1_554 S
C1328 C1329 1.392 1_554 S
C1328 C1331 1.511 . S
C1329 C1325 1.376 . S
C1329 C1328 1.392 1_556 S
C1329 H1341 0.929 . S
C1330 C1326 1.531 . S
C1330 H1342 0.960 . S
C1330 H1343 0.962 . S
C1330 H1344 0.960 . S
C1331 C1328 1.511 . S
C1331 H1345 0.961 . S
C1331 H1346 0.961 . S
C1331 H1347 0.961 . S
C1332 C1333 1.370 1_655 S
C1332 C1334 1.363 . S
C1332 H1348 0.931 . S
C1333 C1332 1.370 1_455 S
C1333 C1337 1.408 . S
C1334 C1332 1.363 . S
C1334 C1335 1.370 . S
C1334 C1338 1.524 . S
C1335 C1327 1.503 1_554 S
C1335 C1334 1.370 . S
C1335 C1336 1.403 . S
C1336 C1335 1.403 . S
C1336 C1337 1.404 1_655 S
C1336 C1339 1.539 1_554 S
C1337 C1333 1.408 . S
C1337 C1336 1.404 1_455 S
C1337 H1349 0.930 . S
C1338 C1334 1.524 . S
C1338 H1350 0.956 . S
C1338 H1351 0.961 . S
C1338 H1352 0.961 . S
C1339 C1336 1.539 1_556 S
C1339 H1353 0.958 . S
C1339 H1354 0.961 . S
C1339 H1355 0.960 . S
H1340 C1324 0.931 . S
H1341 C1329 0.929 . S
H1342 C1330 0.960 . S
H1343 C1330 0.962 . S
H1344 C1330 0.960 . S
H1345 C1331 0.961 . S
H1346 C1331 0.961 . S
H1347 C1331 0.961 . S
H1348 C1332 0.931 . S
H1349 C1337 0.930 . S
H1350 C1338 0.956 . S
H1351 C1338 0.961 . S
H1352 C1338 0.961 . S
H1353 C1339 0.958 . S
H1354 C1339 0.961 . S
H1355 C1339 0.960 . S
C1356 C1357 1.391 . S
C1356 C1358 1.394 . S
C1356 H1372 0.931 . S
C1357 C1356 1.391 . S
C1357 C1361 1.376 . S
C1358 C1356 1.394 . S
C1358 C1359 1.369 . S
C1358 C1362 1.531 . S
C1359 C1358 1.369 . S
C1359 C1360 1.410 . S
C1359 C1367 1.503 . S
C1360 C1359 1.410 . S
C1360 C1361 1.392 . S
C1360 C1363 1.511 . S
C1361 C1357 1.376 . S
C1361 C1360 1.392 . S
C1361 H1373 0.929 . S
C1362 C1358 1.531 . S
C1362 H1374 0.960 . S
C1362 H1375 0.962 . S
C1362 H1376 0.960 . S
C1363 C1360 1.511 . S
C1363 H1377 0.961 . S
C1363 H1378 0.961 . S
C1363 H1379 0.961 . S
C1364 C1365 1.370 . S
C1364 C1366 1.363 . S
C1364 H1380 0.931 . S
C1365 C1364 1.370 . S
C1365 C1369 1.408 . S
C1366 C1364 1.363 . S
C1366 C1367 1.370 . S
C1366 C1370 1.524 . S
C1367 C1359 1.503 . S
C1367 C1366 1.370 . S
C1367 C1368 1.403 . S
C1368 C1367 1.403 . S
C1368 C1369 1.404 . S
C1368 C1371 1.539 . S
C1369 C1365 1.408 . S
C1369 C1368 1.404 . S
C1369 H1381 0.930 . S
C1370 C1366 1.524 . S
C1370 H1382 0.956 . S
C1370 H1383 0.961 . S
C1370 H1384 0.961 . S
C1371 C1368 1.539 . S
C1371 H1385 0.958 . S
C1371 H1386 0.961 . S
C1371 H1387 0.960 . S
H1372 C1356 0.931 . S
H1373 C1361 0.929 . S
H1374 C1362 0.960 . S
H1375 C1362 0.962 . S
H1376 C1362 0.960 . S
H1377 C1363 0.961 . S
H1378 C1363 0.961 . S
H1379 C1363 0.961 . S
H1380 C1364 0.931 . S
H1381 C1369 0.930 . S
H1382 C1370 0.956 . S
H1383 C1370 0.961 . S
H1384 C1370 0.961 . S
H1385 C1371 0.958 . S
H1386 C1371 0.961 . S
H1387 C1371 0.960 . S
C1388 C1389 1.391 . S
C1388 C1390 1.394 . S
C1388 H1404 0.931 . S
C1389 C1388 1.391 . S
C1389 C1393 1.376 . S
C1390 C1388 1.394 . S
C1390 C1391 1.369 . S
C1390 C1394 1.531 . S
C1391 C1390 1.369 . S
C1391 C1392 1.410 . S
C1391 C1399 1.503 . S
C1392 C1391 1.410 . S
C1392 C1393 1.392 . S
C1392 C1395 1.511 . S
C1393 C1389 1.376 . S
C1393 C1392 1.392 . S
C1393 H1405 0.929 . S
C1394 C1390 1.531 . S
C1394 H1406 0.960 . S
C1394 H1407 0.962 . S
C1394 H1408 0.960 . S
C1395 C1392 1.511 . S
C1395 H1409 0.961 . S
C1395 H1410 0.961 . S
C1395 H1411 0.961 . S
C1396 C1397 1.370 . S
C1396 C1398 1.363 . S
C1396 H1412 0.931 . S
C1397 C1396 1.370 . S
C1397 C1401 1.408 . S
C1398 C1396 1.363 . S
C1398 C1399 1.370 . S
C1398 C1402 1.524 . S
C1399 C1391 1.503 . S
C1399 C1398 1.370 . S
C1399 C1400 1.403 . S
C1400 C1399 1.403 . S
C1400 C1401 1.404 . S
C1400 C1403 1.539 . S
C1401 C1397 1.408 . S
C1401 C1400 1.404 . S
C1401 H1413 0.930 . S
C1402 C1398 1.524 . S
C1402 H1414 0.956 . S
C1402 H1415 0.961 . S
C1402 H1416 0.961 . S
C1403 C1400 1.539 . S
C1403 H1417 0.958 . S
C1403 H1418 0.961 . S
C1403 H1419 0.960 . S
H1404 C1388 0.931 . S
H1405 C1393 0.929 . S
H1406 C1394 0.960 . S
H1407 C1394 0.962 . S
H1408 C1394 0.960 . S
H1409 C1395 0.961 . S
H1410 C1395 0.961 . S
H1411 C1395 0.961 . S
H1412 C1396 0.931 . S
H1413 C1401 0.930 . S
H1414 C1402 0.956 . S
H1415 C1402 0.961 . S
H1416 C1402 0.961 . S
H1417 C1403 0.958 . S
H1418 C1403 0.961 . S
H1419 C1403 0.960 . S
C1420 C1421 1.391 1_655 S
C1420 C1422 1.394 . S
C1420 H1436 0.931 . S
C1421 C1420 1.391 1_455 S
C1421 C1425 1.376 . S
C1422 C1420 1.394 . S
C1422 C1423 1.369 . S
C1422 C1426 1.531 . S
C1423 C1422 1.369 . S
C1423 C1424 1.410 . S
C1423 C1431 1.503 . S
C1424 C1423 1.410 . S
C1424 C1425 1.392 1_655 S
C1424 C1427 1.511 . S
C1425 C1421 1.376 . S
C1425 C1424 1.392 1_455 S
C1425 H1437 0.929 . S
C1426 C1422 1.531 . S
C1426 H1438 0.960 . S
C1426 H1439 0.962 . S
C1426 H1440 0.960 . S
C1427 C1424 1.511 . S
C1427 H1441 0.961 . S
C1427 H1442 0.961 . S
C1427 H1443 0.961 . S
C1428 C1429 1.370 . S
C1428 C1430 1.363 . S
C1428 H1444 0.931 . S
C1429 C1428 1.370 . S
C1429 C1433 1.408 . S
C1430 C1428 1.363 . S
C1430 C1431 1.370 . S
C1430 C1434 1.524 . S
C1431 C1423 1.503 . S
C1431 C1430 1.370 . S
C1431 C1432 1.403 . S
C1432 C1431 1.403 . S
C1432 C1433 1.404 . S
C1432 C1435 1.539 . S
C1433 C1429 1.408 . S
C1433 C1432 1.404 . S
C1433 H1445 0.930 . S
C1434 C1430 1.524 . S
C1434 H1446 0.956 . S
C1434 H1447 0.961 . S
C1434 H1448 0.961 . S
C1435 C1432 1.539 . S
C1435 H1449 0.958 . S
C1435 H1450 0.961 . S
C1435 H1451 0.960 . S
H1436 C1420 0.931 . S
H1437 C1425 0.929 . S
H1438 C1426 0.960 . S
H1439 C1426 0.962 . S
H1440 C1426 0.960 . S
H1441 C1427 0.961 . S
H1442 C1427 0.961 . S
H1443 C1427 0.961 . S
H1444 C1428 0.931 . S
H1445 C1433 0.930 . S
H1446 C1434 0.956 . S
H1447 C1434 0.961 . S
H1448 C1434 0.961 . S
H1449 C1435 0.958 . S
H1450 C1435 0.961 . S
H1451 C1435 0.960 . S
C1452 C1453 1.391 . S
C1452 C1454 1.394 . S
C1452 H1468 0.931 . S
C1453 C1452 1.391 . S
C1453 C1457 1.376 . S
C1454 C1452 1.394 . S
C1454 C1455 1.369 . S
C1454 C1458 1.531 . S
C1455 C1454 1.369 . S
C1455 C1456 1.410 . S
C1455 C1463 1.503 . S
C1456 C1455 1.410 . S
C1456 C1457 1.392 . S
C1456 C1459 1.511 . S
C1457 C1453 1.376 . S
C1457 C1456 1.392 . S
C1457 H1469 0.929 . S
C1458 C1454 1.531 . S
C1458 H1470 0.960 . S
C1458 H1471 0.962 . S
C1458 H1472 0.960 . S
C1459 C1456 1.511 . S
C1459 H1473 0.961 . S
C1459 H1474 0.961 . S
C1459 H1475 0.961 . S
C1460 C1461 1.370 . S
C1460 C1462 1.363 . S
C1460 H1476 0.931 . S
C1461 C1460 1.370 . S
C1461 C1465 1.408 . S
C1462 C1460 1.363 . S
C1462 C1463 1.370 . S
C1462 C1466 1.524 . S
C1463 C1455 1.503 . S
C1463 C1462 1.370 . S
C1463 C1464 1.403 . S
C1464 C1463 1.403 . S
C1464 C1465 1.404 . S
C1464 C1467 1.539 . S
C1465 C1461 1.408 . S
C1465 C1464 1.404 . S
C1465 H1477 0.930 . S
C1466 C1462 1.524 . S
C1466 H1478 0.956 . S
C1466 H1479 0.961 . S
C1466 H1480 0.961 . S
C1467 C1464 1.539 . S
C1467 H1481 0.958 . S
C1467 H1482 0.961 . S
C1467 H1483 0.960 . S
H1468 C1452 0.931 . S
H1469 C1457 0.929 . S
H1470 C1458 0.960 . S
H1471 C1458 0.962 . S
H1472 C1458 0.960 . S
H1473 C1459 0.961 . S
H1474 C1459 0.961 . S
H1475 C1459 0.961 . S
H1476 C1460 0.931 . S
H1477 C1465 0.930 . S
H1478 C1466 0.956 . S
H1479 C1466 0.961 . S
H1480 C1466 0.961 . S
H1481 C1467 0.958 . S
H1482 C1467 0.961 . S
H1483 C1467 0.960 . S
C1484 C1485 1.391 . S
C1484 C1486 1.394 . S
C1484 H1500 0.931 . S
C1485 C1484 1.391 . S
C1485 C1489 1.376 . S
C1486 C1484 1.394 . S
C1486 C1487 1.369 . S
C1486 C1490 1.531 . S
C1487 C1486 1.369 . S
C1487 C1488 1.410 . S
C1487 C1495 1.503 . S
C1488 C1487 1.410 . S
C1488 C1489 1.392 . S
C1488 C1491 1.511 . S
C1489 C1485 1.376 . S
C1489 C1488 1.392 . S
C1489 H1501 0.929 . S
C1490 C1486 1.531 . S
C1490 H1502 0.960 . S
C1490 H1503 0.962 . S
C1490 H1504 0.960 . S
C1491 C1488 1.511 . S
C1491 H1505 0.961 . S
C1491 H1506 0.961 . S
C1491 H1507 0.961 . S
C1492 C1493 1.370 . S
C1492 C1494 1.363 . S
C1492 H1508 0.931 . S
C1493 C1492 1.370 . S
C1493 C1497 1.408 . S
C1494 C1492 1.363 . S
C1494 C1495 1.370 . S
C1494 C1498 1.524 . S
C1495 C1487 1.503 . S
C1495 C1494 1.370 . S
C1495 C1496 1.403 . S
C1496 C1495 1.403 . S
C1496 C1497 1.404 . S
C1496 C1499 1.539 . S
C1497 C1493 1.408 . S
C1497 C1496 1.404 . S
C1497 H1509 0.930 . S
C1498 C1494 1.524 . S
C1498 H1510 0.956 . S
C1498 H1511 0.961 . S
C1498 H1512 0.961 . S
C1499 C1496 1.539 . S
C1499 H1513 0.958 . S
C1499 H1514 0.961 . S
C1499 H1515 0.960 . S
H1500 C1484 0.931 . S
H1501 C1489 0.929 . S
H1502 C1490 0.960 . S
H1503 C1490 0.962 . S
H1504 C1490 0.960 . S
H1505 C1491 0.961 . S
H1506 C1491 0.961 . S
H1507 C1491 0.961 . S
H1508 C1492 0.931 . S
H1509 C1497 0.930 . S
H1510 C1498 0.956 . S
H1511 C1498 0.961 . S
H1512 C1498 0.961 . S
H1513 C1499 0.958 . S
H1514 C1499 0.961 . S
H1515 C1499 0.960 . S
C1516 C1517 1.391 . S
C1516 C1518 1.394 . S
C1516 H1532 0.931 . S
C1517 C1516 1.391 . S
C1517 C1521 1.376 . S
C1518 C1516 1.394 . S
C1518 C1519 1.369 . S
C1518 C1522 1.531 . S
C1519 C1518 1.369 . S
C1519 C1520 1.410 . S
C1519 C1527 1.503 . S
C1520 C1519 1.410 . S
C1520 C1521 1.392 . S
C1520 C1523 1.511 . S
C1521 C1517 1.376 . S
C1521 C1520 1.392 . S
C1521 H1533 0.929 . S
C1522 C1518 1.531 . S
C1522 H1534 0.960 . S
C1522 H1535 0.962 . S
C1522 H1536 0.960 . S
C1523 C1520 1.511 . S
C1523 H1537 0.961 . S
C1523 H1538 0.961 . S
C1523 H1539 0.961 . S
C1524 C1525 1.370 . S
C1524 C1526 1.363 . S
C1524 H1540 0.931 . S
C1525 C1524 1.370 . S
C1525 C1529 1.408 . S
C1526 C1524 1.363 . S
C1526 C1527 1.370 . S
C1526 C1530 1.524 . S
C1527 C1519 1.503 . S
C1527 C1526 1.370 . S
C1527 C1528 1.403 . S
C1528 C1527 1.403 . S
C1528 C1529 1.404 . S
C1528 C1531 1.539 . S
C1529 C1525 1.408 . S
C1529 C1528 1.404 . S
C1529 H1541 0.930 . S
C1530 C1526 1.524 . S
C1530 H1542 0.956 . S
C1530 H1543 0.961 . S
C1530 H1544 0.961 . S
C1531 C1528 1.539 . S
C1531 H1545 0.958 . S
C1531 H1546 0.961 . S
C1531 H1547 0.960 . S
H1532 C1516 0.931 . S
H1533 C1521 0.929 . S
H1534 C1522 0.960 . S
H1535 C1522 0.962 . S
H1536 C1522 0.960 . S
H1537 C1523 0.961 . S
H1538 C1523 0.961 . S
H1539 C1523 0.961 . S
H1540 C1524 0.931 . S
H1541 C1529 0.930 . S
H1542 C1530 0.956 . S
H1543 C1530 0.961 . S
H1544 C1530 0.961 . S
H1545 C1531 0.958 . S
H1546 C1531 0.961 . S
H1547 C1531 0.960 . S
C1548 C1549 1.391 . S
C1548 C1550 1.394 . S
C1548 H1564 0.931 . S
C1549 C1548 1.391 . S
C1549 C1553 1.376 . S
C1550 C1548 1.394 . S
C1550 C1551 1.369 . S
C1550 C1554 1.531 . S
C1551 C1550 1.369 . S
C1551 C1552 1.410 . S
C1551 C1559 1.503 . S
C1552 C1551 1.410 . S
C1552 C1553 1.392 . S
C1552 C1555 1.511 . S
C1553 C1549 1.376 . S
C1553 C1552 1.392 . S
C1553 H1565 0.929 . S
C1554 C1550 1.531 . S
C1554 H1566 0.960 . S
C1554 H1567 0.962 . S
C1554 H1568 0.960 . S
C1555 C1552 1.511 . S
C1555 H1569 0.961 . S
C1555 H1570 0.961 . S
C1555 H1571 0.961 . S
C1556 C1557 1.370 . S
C1556 C1558 1.363 . S
C1556 H1572 0.931 . S
C1557 C1556 1.370 . S
C1557 C1561 1.408 . S
C1558 C1556 1.363 . S
C1558 C1559 1.370 . S
C1558 C1562 1.524 . S
C1559 C1551 1.503 . S
C1559 C1558 1.370 . S
C1559 C1560 1.403 . S
C1560 C1559 1.403 . S
C1560 C1561 1.404 . S
C1560 C1563 1.539 . S
C1561 C1557 1.408 . S
C1561 C1560 1.404 . S
C1561 H1573 0.930 . S
C1562 C1558 1.524 . S
C1562 H1574 0.956 . S
C1562 H1575 0.961 . S
C1562 H1576 0.961 . S
C1563 C1560 1.539 . S
C1563 H1577 0.958 . S
C1563 H1578 0.961 . S
C1563 H1579 0.960 . S
H1564 C1548 0.931 . S
H1565 C1553 0.929 . S
H1566 C1554 0.960 . S
H1567 C1554 0.962 . S
H1568 C1554 0.960 . S
H1569 C1555 0.961 . S
H1570 C1555 0.961 . S
H1571 C1555 0.961 . S
H1572 C1556 0.931 . S
H1573 C1561 0.930 . S
H1574 C1562 0.956 . S
H1575 C1562 0.961 . S
H1576 C1562 0.961 . S
H1577 C1563 0.958 . S
H1578 C1563 0.961 . S
H1579 C1563 0.960 . S
C1580 C1581 1.391 . S
C1580 C1582 1.394 . S
C1580 H1596 0.931 . S
C1581 C1580 1.391 . S
C1581 C1585 1.376 . S
C1582 C1580 1.394 . S
C1582 C1583 1.369 . S
C1582 C1586 1.531 . S
C1583 C1582 1.369 . S
C1583 C1584 1.410 . S
C1583 C1591 1.503 . S
C1584 C1583 1.410 . S
C1584 C1585 1.392 . S
C1584 C1587 1.511 . S
C1585 C1581 1.376 . S
C1585 C1584 1.392 . S
C1585 H1597 0.929 . S
C1586 C1582 1.531 . S
C1586 H1598 0.960 . S
C1586 H1599 0.962 . S
C1586 H1600 0.960 . S
C1587 C1584 1.511 . S
C1587 H1601 0.961 . S
C1587 H1602 0.961 . S
C1587 H1603 0.961 . S
C1588 C1589 1.370 . S
C1588 C1590 1.363 . S
C1588 H1604 0.931 . S
C1589 C1588 1.370 . S
C1589 C1593 1.408 . S
C1590 C1588 1.363 . S
C1590 C1591 1.370 . S
C1590 C1594 1.524 . S
C1591 C1583 1.503 . S
C1591 C1590 1.370 . S
C1591 C1592 1.403 . S
C1592 C1591 1.403 . S
C1592 C1593 1.404 . S
C1592 C1595 1.539 . S
C1593 C1589 1.408 . S
C1593 C1592 1.404 . S
C1593 H1605 0.930 . S
C1594 C1590 1.524 . S
C1594 H1606 0.956 . S
C1594 H1607 0.961 . S
C1594 H1608 0.961 . S
C1595 C1592 1.539 . S
C1595 H1609 0.958 . S
C1595 H1610 0.961 . S
C1595 H1611 0.960 . S
H1596 C1580 0.931 . S
H1597 C1585 0.929 . S
H1598 C1586 0.960 . S
H1599 C1586 0.962 . S
H1600 C1586 0.960 . S
H1601 C1587 0.961 . S
H1602 C1587 0.961 . S
H1603 C1587 0.961 . S
H1604 C1588 0.931 . S
H1605 C1593 0.930 . S
H1606 C1594 0.956 . S
H1607 C1594 0.961 . S
H1608 C1594 0.961 . S
H1609 C1595 0.958 . S
H1610 C1595 0.961 . S
H1611 C1595 0.960 . S
C1612 C1613 1.391 . S
C1612 C1614 1.394 . S
C1612 H1628 0.931 . S
C1613 C1612 1.391 . S
C1613 C1617 1.376 . S
C1614 C1612 1.394 . S
C1614 C1615 1.369 . S
C1614 C1618 1.531 . S
C1615 C1614 1.369 . S
C1615 C1616 1.410 . S
C1615 C1623 1.503 . S
C1616 C1615 1.410 . S
C1616 C1617 1.392 . S
C1616 C1619 1.511 . S
C1617 C1613 1.376 . S
C1617 C1616 1.392 . S
C1617 H1629 0.929 . S
C1618 C1614 1.531 . S
C1618 H1630 0.960 . S
C1618 H1631 0.962 . S
C1618 H1632 0.960 . S
C1619 C1616 1.511 . S
C1619 H1633 0.961 . S
C1619 H1634 0.961 . S
C1619 H1635 0.961 1_565 S
C1620 C1621 1.370 . S
C1620 C1622 1.363 . S
C1620 H1636 0.931 . S
C1621 C1620 1.370 . S
C1621 C1625 1.406 1_565 S
C1622 C1620 1.363 . S
C1622 C1623 1.370 . S
C1622 C1626 1.524 . S
C1623 C1615 1.503 . S
C1623 C1622 1.370 . S
C1623 C1624 1.403 . S
C1624 C1623 1.403 . S
C1624 C1625 1.403 1_565 S
C1624 C1627 1.539 1_565 S
C1625 C1621 1.406 1_545 S
C1625 C1624 1.403 1_545 S
C1625 H1637 0.933 . S
C1626 C1622 1.524 . S
C1626 H1638 0.956 . S
C1626 H1639 0.961 . S
C1626 H1640 0.961 . S
C1627 C1624 1.539 1_545 S
C1627 H1641 0.958 . S
C1627 H1642 0.961 . S
C1627 H1643 0.960 . S
H1628 C1612 0.931 . S
H1629 C1617 0.929 . S
H1630 C1618 0.960 . S
H1631 C1618 0.962 . S
H1632 C1618 0.960 . S
H1633 C1619 0.961 . S
H1634 C1619 0.961 . S
H1635 C1619 0.961 1_545 S
H1636 C1620 0.931 . S
H1637 C1625 0.933 . S
H1638 C1626 0.956 . S
H1639 C1626 0.961 . S
H1640 C1626 0.961 . S
H1641 C1627 0.958 . S
H1642 C1627 0.961 . S
H1643 C1627 0.960 . S
C1644 C1645 1.391 . S
C1644 C1646 1.394 . S
C1644 H1660 0.931 . S
C1645 C1644 1.391 . S
C1645 C1649 1.376 . S
C1646 C1644 1.394 . S
C1646 C1647 1.369 . S
C1646 C1650 1.531 . S
C1647 C1646 1.369 . S
C1647 C1648 1.410 . S
C1647 C1655 1.503 . S
C1648 C1647 1.410 . S
C1648 C1649 1.392 . S
C1648 C1651 1.511 . S
C1649 C1645 1.376 . S
C1649 C1648 1.392 . S
C1649 H1661 0.929 1_554 S
C1650 C1646 1.531 . S
C1650 H1662 0.960 . S
C1650 H1663 0.962 . S
C1650 H1664 0.960 . S
C1651 C1648 1.511 . S
C1651 H1665 0.961 . S
C1651 H1666 0.961 . S
C1651 H1667 0.961 . S
C1652 C1653 1.370 . S
C1652 C1654 1.363 . S
C1652 H1668 0.931 . S
C1653 C1652 1.370 . S
C1653 C1657 1.408 . S
C1654 C1652 1.363 . S
C1654 C1655 1.370 . S
C1654 C1658 1.524 . S
C1655 C1647 1.503 . S
C1655 C1654 1.370 . S
C1655 C1656 1.403 . S
C1656 C1655 1.403 . S
C1656 C1657 1.404 . S
C1656 C1659 1.539 . S
C1657 C1653 1.408 . S
C1657 C1656 1.404 . S
C1657 H1669 0.930 . S
C1658 C1654 1.524 . S
C1658 H1670 0.956 . S
C1658 H1671 0.961 . S
C1658 H1672 0.961 . S
C1659 C1656 1.539 . S
C1659 H1673 0.958 . S
C1659 H1674 0.961 . S
C1659 H1675 0.960 . S
H1660 C1644 0.931 . S
H1661 C1649 0.929 1_556 S
H1662 C1650 0.960 . S
H1663 C1650 0.962 . S
H1664 C1650 0.960 . S
H1665 C1651 0.961 . S
H1666 C1651 0.961 . S
H1667 C1651 0.961 . S
H1668 C1652 0.931 . S
H1669 C1657 0.930 . S
H1670 C1658 0.956 . S
H1671 C1658 0.961 . S
H1672 C1658 0.961 . S
H1673 C1659 0.958 . S
H1674 C1659 0.961 . S
H1675 C1659 0.960 . S
C1676 C1677 1.391 . S
C1676 C1678 1.394 . S
C1676 H1692 0.931 . S
C1677 C1676 1.391 . S
C1677 C1681 1.376 . S
C1678 C1676 1.394 . S
C1678 C1679 1.369 . S
C1678 C1682 1.531 . S
C1679 C1678 1.369 . S
C1679 C1680 1.410 . S
C1679 C1687 1.503 . S
C1680 C1679 1.410 . S
C1680 C1681 1.392 . S
C1680 C1683 1.511 . S
C1681 C1677 1.376 . S
C1681 C1680 1.392 . S
C1681 H1693 0.929 . S
C1682 C1678 1.531 . S
C1682 H1694 0.960 . S
C1682 H1695 0.962 . S
C1682 H1696 0.960 . S
C1683 C1680 1.511 . S
C1683 H1697 0.961 . S
C1683 H1698 0.961 . S
C1683 H1699 0.961 . S
C1684 C1685 1.370 . S
C1684 C1686 1.363 . S
C1684 H1700 0.931 . S
C1685 C1684 1.370 . S
C1685 C1689 1.408 . S
C1686 C1684 1.363 . S
C1686 C1687 1.370 . S
C1686 C1690 1.524 1_655 S
C1687 C1679 1.503 . S
C1687 C1686 1.370 . S
C1687 C1688 1.403 . S
C1688 C1687 1.403 . S
C1688 C1689 1.404 . S
C1688 C1691 1.539 . S
C1689 C1685 1.408 . S
C1689 C1688 1.404 . S
C1689 H1701 0.930 . S
C1690 C1686 1.524 1_455 S
C1690 H1702 0.956 . S
C1690 H1703 0.961 . S
C1690 H1704 0.961 . S
C1691 C1688 1.539 . S
C1691 H1705 0.958 . S
C1691 H1706 0.961 . S
C1691 H1707 0.960 . S
H1692 C1676 0.931 . S
H1693 C1681 0.929 . S
H1694 C1682 0.960 . S
H1695 C1682 0.962 . S
H1696 C1682 0.960 . S
H1697 C1683 0.961 . S
H1698 C1683 0.961 . S
H1699 C1683 0.961 . S
H1700 C1684 0.931 . S
H1701 C1689 0.930 . S
H1702 C1690 0.956 . S
H1703 C1690 0.961 . S
H1704 C1690 0.961 . S
H1705 C1691 0.958 . S
H1706 C1691 0.961 . S
H1707 C1691 0.960 . S
C1708 C1709 1.391 . S
C1708 C1710 1.394 . S
C1708 H1724 0.931 . S
C1709 C1708 1.391 . S
C1709 C1713 1.376 . S
C1710 C1708 1.394 . S
C1710 C1711 1.369 . S
C1710 C1714 1.531 . S
C1711 C1710 1.369 . S
C1711 C1712 1.410 . S
C1711 C1719 1.503 . S
C1712 C1711 1.410 . S
C1712 C1713 1.392 . S
C1712 C1715 1.511 . S
C1713 C1709 1.376 . S
C1713 C1712 1.392 . S
C1713 H1725 0.929 . S
C1714 C1710 1.531 . S
C1714 H1726 0.960 . S
C1714 H1727 0.962 . S
C1714 H1728 0.960 . S
C1715 C1712 1.511 . S
C1715 H1729 0.961 . S
C1715 H1730 0.961 . S
C1715 H1731 0.961 . S
C1716 C1717 1.370 . S
C1716 C1718 1.363 . S
C1716 H1732 0.922 1_554 S
C1717 C1716 1.370 . S
C1717 C1721 1.408 . S
C1718 C1716 1.363 . S
C1718 C1719 1.370 . S
C1718 C1722 1.524 . S
C1719 C1711 1.503 . S
C1719 C1718 1.370 . S
C1719 C1720 1.403 . S
C1720 C1719 1.403 . S
C1720 C1721 1.404 . S
C1720 C1723 1.539 . S
C1721 C1717 1.408 . S
C1721 C1720 1.404 . S
C1721 H1733 0.930 . S
C1722 C1718 1.524 . S
C1722 H1734 0.956 . S
C1722 H1735 0.961 . S
C1722 H1736 0.961 . S
C1723 C1720 1.539 . S
C1723 H1737 0.958 . S
C1723 H1738 0.961 . S
C1723 H1739 0.960 . S
H1724 C1708 0.931 . S
H1725 C1713 0.929 . S
H1726 C1714 0.960 . S
H1727 C1714 0.962 . S
H1728 C1714 0.960 . S
H1729 C1715 0.961 . S
H1730 C1715 0.961 . S
H1731 C1715 0.961 . S
H1732 C1716 0.922 1_556 S
H1733 C1721 0.930 . S
H1734 C1722 0.956 . S
H1735 C1722 0.961 . S
H1736 C1722 0.961 . S
H1737 C1723 0.958 . S
H1738 C1723 0.961 . S
H1739 C1723 0.960 . S
C1740 C1741 1.391 . S
C1740 C1742 1.394 . S
C1740 H1756 0.931 . S
C1741 C1740 1.391 . S
C1741 C1745 1.376 . S
C1742 C1740 1.394 . S
C1742 C1743 1.369 . S
C1742 C1746 1.531 . S
C1743 C1742 1.369 . S
C1743 C1744 1.410 . S
C1743 C1751 1.503 . S
C1744 C1743 1.410 . S
C1744 C1745 1.392 . S
C1744 C1747 1.511 . S
C1745 C1741 1.376 . S
C1745 C1744 1.392 . S
C1745 H1757 0.929 . S
C1746 C1742 1.531 . S
C1746 H1758 0.960 . S
C1746 H1759 0.962 . S
C1746 H1760 0.960 . S
C1747 C1744 1.511 . S
C1747 H1761 0.961 . S
C1747 H1762 0.961 . S
C1747 H1763 0.961 . S
C1748 C1749 1.370 . S
C1748 C1750 1.363 . S
C1748 H1764 0.931 . S
C1749 C1748 1.370 . S
C1749 C1753 1.408 . S
C1750 C1748 1.363 . S
C1750 C1751 1.370 . S
C1750 C1754 1.524 . S
C1751 C1743 1.503 . S
C1751 C1750 1.370 . S
C1751 C1752 1.403 . S
C1752 C1751 1.403 . S
C1752 C1753 1.404 . S
C1752 C1755 1.539 1_655 S
C1753 C1749 1.408 . S
C1753 C1752 1.404 . S
C1753 H1765 0.930 . S
C1754 C1750 1.524 . S
C1754 H1766 0.956 . S
C1754 H1767 0.961 . S
C1754 H1768 0.961 . S
C1755 C1752 1.539 1_455 S
C1755 H1769 0.958 . S
C1755 H1770 0.961 . S
C1755 H1771 0.960 . S
H1756 C1740 0.931 . S
H1757 C1745 0.929 . S
H1758 C1746 0.960 . S
H1759 C1746 0.962 . S
H1760 C1746 0.960 . S
H1761 C1747 0.961 . S
H1762 C1747 0.961 . S
H1763 C1747 0.961 . S
H1764 C1748 0.931 . S
H1765 C1753 0.930 . S
H1766 C1754 0.956 . S
H1767 C1754 0.961 . S
H1768 C1754 0.961 . S
H1769 C1755 0.958 . S
H1770 C1755 0.961 . S
H1771 C1755 0.960 . S
C1772 C1773 1.391 . S
C1772 C1774 1.394 . S
C1772 H1788 0.931 . S
C1773 C1772 1.391 . S
C1773 C1777 1.376 . S
C1774 C1772 1.394 . S
C1774 C1775 1.369 . S
C1774 C1778 1.531 . S
C1775 C1774 1.369 . S
C1775 C1776 1.410 . S
C1775 C1783 1.503 . S
C1776 C1775 1.410 . S
C1776 C1777 1.392 . S
C1776 C1779 1.511 . S
C1777 C1773 1.376 . S
C1777 C1776 1.392 . S
C1777 H1789 0.929 . S
C1778 C1774 1.531 . S
C1778 H1790 0.960 . S
C1778 H1791 0.962 . S
C1778 H1792 0.960 . S
C1779 C1776 1.511 . S
C1779 H1793 0.961 . S
C1779 H1794 0.961 . S
C1779 H1795 0.961 . S
C1780 C1781 1.370 . S
C1780 C1782 1.363 . S
C1780 H1796 0.931 . S
C1781 C1780 1.370 . S
C1781 C1785 1.408 . S
C1782 C1780 1.363 . S
C1782 C1783 1.370 . S
C1782 C1786 1.524 . S
C1783 C1775 1.503 . S
C1783 C1782 1.370 . S
C1783 C1784 1.403 . S
C1784 C1783 1.403 . S
C1784 C1785 1.404 . S
C1784 C1787 1.539 . S
C1785 C1781 1.408 . S
C1785 C1784 1.404 . S
C1785 H1797 0.930 . S
C1786 C1782 1.524 . S
C1786 H1798 0.956 . S
C1786 H1799 0.961 . S
C1786 H1800 0.961 . S
C1787 C1784 1.539 . S
C1787 H1801 0.958 . S
C1787 H1802 0.961 . S
C1787 H1803 0.960 . S
H1788 C1772 0.931 . S
H1789 C1777 0.929 . S
H1790 C1778 0.960 . S
H1791 C1778 0.962 . S
H1792 C1778 0.960 . S
H1793 C1779 0.961 . S
H1794 C1779 0.961 . S
H1795 C1779 0.961 . S
H1796 C1780 0.931 . S
H1797 C1785 0.930 . S
H1798 C1786 0.956 . S
H1799 C1786 0.961 . S
H1800 C1786 0.961 . S
H1801 C1787 0.958 . S
H1802 C1787 0.961 . S
H1803 C1787 0.960 . S
C1804 C1805 1.391 . S
C1804 C1806 1.394 . S
C1804 H1820 0.931 . S
C1805 C1804 1.391 . S
C1805 C1809 1.376 . S
C1806 C1804 1.394 . S
C1806 C1807 1.369 . S
C1806 C1810 1.531 . S
C1807 C1806 1.369 . S
C1807 C1808 1.410 . S
C1807 C1815 1.503 . S
C1808 C1807 1.410 . S
C1808 C1809 1.392 . S
C1808 C1811 1.511 . S
C1809 C1805 1.376 . S
C1809 C1808 1.392 . S
C1809 H1821 0.929 . S
C1810 C1806 1.531 . S
C1810 H1822 0.960 . S
C1810 H1823 0.962 . S
C1810 H1824 0.960 . S
C1811 C1808 1.511 . S
C1811 H1825 0.961 . S
C1811 H1826 0.961 . S
C1811 H1827 0.961 . S
C1812 C1813 1.370 . S
C1812 C1814 1.363 . S
C1812 H1828 0.931 . S
C1813 C1812 1.370 . S
C1813 C1817 1.408 . S
C1814 C1812 1.363 . S
C1814 C1815 1.370 . S
C1814 C1818 1.524 . S
C1815 C1807 1.503 . S
C1815 C1814 1.370 . S
C1815 C1816 1.403 . S
C1816 C1815 1.403 . S
C1816 C1817 1.404 . S
C1816 C1819 1.539 . S
C1817 C1813 1.408 . S
C1817 C1816 1.404 . S
C1817 H1829 0.930 . S
C1818 C1814 1.524 . S
C1818 H1830 0.956 . S
C1818 H1831 0.961 . S
C1818 H1832 0.961 1_545 S
C1819 C1816 1.539 . S
C1819 H1833 0.958 . S
C1819 H1834 0.961 . S
C1819 H1835 0.960 . S
H1820 C1804 0.931 . S
H1821 C1809 0.929 . S
H1822 C1810 0.960 . S
H1823 C1810 0.962 . S
H1824 C1810 0.960 . S
H1825 C1811 0.961 . S
H1826 C1811 0.961 . S
H1827 C1811 0.961 . S
H1828 C1812 0.931 . S
H1829 C1817 0.930 . S
H1830 C1818 0.956 . S
H1831 C1818 0.961 . S
H1832 C1818 0.961 1_565 S
H1833 C1819 0.958 . S
H1834 C1819 0.961 . S
H1835 C1819 0.960 . S
C1836 C1837 1.391 . S
C1836 C1838 1.394 . S
C1836 H1852 0.931 . S
C1837 C1836 1.391 . S
C1837 C1841 1.376 . S
C1838 C1836 1.394 . S
C1838 C1839 1.369 . S
C1838 C1842 1.531 . S
C1839 C1838 1.369 . S
C1839 C1840 1.410 . S
C1839 C1847 1.503 . S
C1840 C1839 1.410 . S
C1840 C1841 1.392 . S
C1840 C1843 1.511 1_565 S
C1841 C1837 1.376 . S
C1841 C1840 1.392 . S
C1841 H1853 0.929 1_565 S
C1842 C1838 1.531 . S
C1842 H1854 0.960 . S
C1842 H1855 0.962 . S
C1842 H1856 0.960 . S
C1843 C1840 1.511 1_545 S
C1843 H1857 0.961 . S
C1843 H1858 0.961 . S
C1843 H1859 0.961 . S
C1844 C1845 1.370 . S
C1844 C1846 1.363 . S
C1844 H1860 0.931 . S
C1845 C1844 1.370 . S
C1845 C1849 1.408 . S
C1846 C1844 1.363 . S
C1846 C1847 1.370 . S
C1846 C1850 1.524 . S
C1847 C1839 1.503 . S
C1847 C1846 1.370 . S
C1847 C1848 1.403 . S
C1848 C1847 1.403 . S
C1848 C1849 1.404 . S
C1848 C1851 1.539 . S
C1849 C1845 1.408 . S
C1849 C1848 1.404 . S
C1849 H1861 0.930 1_556 S
C1850 C1846 1.524 . S
C1850 H1862 0.956 . S
C1850 H1863 0.961 . S
C1850 H1864 0.961 . S
C1851 C1848 1.539 . S
C1851 H1865 0.958 . S
C1851 H1866 0.961 . S
C1851 H1867 0.960 . S
H1852 C1836 0.931 . S
H1853 C1841 0.929 1_545 S
H1854 C1842 0.960 . S
H1855 C1842 0.962 . S
H1856 C1842 0.960 . S
H1857 C1843 0.961 . S
H1858 C1843 0.961 . S
H1859 C1843 0.961 . S
H1860 C1844 0.931 . S
H1861 C1849 0.930 1_554 S
H1862 C1850 0.956 . S
H1863 C1850 0.961 . S
H1864 C1850 0.961 . S
H1865 C1851 0.958 . S
H1866 C1851 0.961 . S
H1867 C1851 0.960 . S
C1868 C1869 1.391 . S
C1868 C1870 1.394 . S
C1868 H1884 0.931 1_556 S
C1869 C1868 1.391 . S
C1869 C1873 1.376 . S
C1870 C1868 1.394 . S
C1870 C1871 1.369 . S
C1870 C1874 1.531 . S
C1871 C1870 1.369 . S
C1871 C1872 1.410 . S
C1871 C1879 1.503 . S
C1872 C1871 1.410 . S
C1872 C1873 1.392 . S
C1872 C1875 1.511 . S
C1873 C1869 1.376 . S
C1873 C1872 1.392 . S
C1873 H1885 0.929 . S
C1874 C1870 1.531 . S
C1874 H1886 0.960 . S
C1874 H1887 0.962 . S
C1874 H1888 0.960 . S
C1875 C1872 1.511 . S
C1875 H1889 0.961 . S
C1875 H1890 0.961 . S
C1875 H1891 0.961 . S
C1876 C1877 1.370 . S
C1876 C1878 1.363 . S
C1876 H1892 0.931 . S
C1877 C1876 1.370 . S
C1877 C1881 1.408 . S
C1878 C1876 1.363 . S
C1878 C1879 1.370 . S
C1878 C1882 1.524 . S
C1879 C1871 1.503 . S
C1879 C1878 1.370 . S
C1879 C1880 1.403 . S
C1880 C1879 1.403 . S
C1880 C1881 1.404 . S
C1880 C1883 1.539 . S
C1881 C1877 1.408 . S
C1881 C1880 1.404 . S
C1881 H1893 0.930 . S
C1882 C1878 1.524 . S
C1882 H1894 0.956 . S
C1882 H1895 0.961 . S
C1882 H1896 0.961 . S
C1883 C1880 1.539 . S
C1883 H1897 0.958 . S
C1883 H1898 0.961 . S
C1883 H1899 0.960 . S
H1884 C1868 0.931 1_554 S
H1885 C1873 0.929 . S
H1886 C1874 0.960 . S
H1887 C1874 0.962 . S
H1888 C1874 0.960 . S
H1889 C1875 0.961 . S
H1890 C1875 0.961 . S
H1891 C1875 0.961 . S
H1892 C1876 0.931 . S
H1893 C1881 0.930 . S
H1894 C1882 0.956 . S
H1895 C1882 0.961 . S
H1896 C1882 0.961 . S
H1897 C1883 0.958 . S
H1898 C1883 0.961 . S
H1899 C1883 0.960 . S
C1900 C1901 1.391 . S
C1900 C1902 1.394 . S
C1900 H1916 0.931 . S
C1901 C1900 1.391 . S
C1901 C1905 1.376 . S
C1902 C1900 1.394 . S
C1902 C1903 1.369 . S
C1902 C1906 1.531 . S
C1903 C1902 1.369 . S
C1903 C1904 1.410 . S
C1903 C1911 1.503 . S
C1904 C1903 1.410 . S
C1904 C1905 1.392 . S
C1904 C1907 1.511 . S
C1905 C1901 1.376 . S
C1905 C1904 1.392 . S
C1905 H1917 0.929 . S
C1906 C1902 1.531 . S
C1906 H1918 0.960 . S
C1906 H1919 0.962 . S
C1906 H1920 0.960 . S
C1907 C1904 1.511 . S
C1907 H1921 0.961 . S
C1907 H1922 0.961 . S
C1907 H1923 0.961 . S
C1908 C1909 1.370 . S
C1908 C1910 1.363 . S
C1908 H1924 0.931 . S
C1909 C1908 1.370 . S
C1909 C1913 1.408 . S
C1910 C1908 1.363 . S
C1910 C1911 1.370 . S
C1910 C1914 1.524 . S
C1911 C1903 1.503 . S
C1911 C1910 1.370 . S
C1911 C1912 1.403 . S
C1912 C1911 1.403 . S
C1912 C1913 1.404 . S
C1912 C1915 1.539 . S
C1913 C1909 1.408 . S
C1913 C1912 1.404 . S
C1913 H1925 0.930 1_556 S
C1914 C1910 1.524 . S
C1914 H1926 0.956 . S
C1914 H1927 0.961 . S
C1914 H1928 0.961 . S
C1915 C1912 1.539 . S
C1915 H1929 0.958 . S
C1915 H1930 0.961 . S
C1915 H1931 0.960 . S
H1916 C1900 0.931 . S
H1917 C1905 0.929 . S
H1918 C1906 0.960 . S
H1919 C1906 0.962 . S
H1920 C1906 0.960 . S
H1921 C1907 0.961 . S
H1922 C1907 0.961 . S
H1923 C1907 0.961 . S
H1924 C1908 0.931 . S
H1925 C1913 0.930 1_554 S
H1926 C1914 0.956 . S
H1927 C1914 0.961 . S
H1928 C1914 0.961 . S
H1929 C1915 0.958 . S
H1930 C1915 0.961 . S
H1931 C1915 0.960 . S
C1932 C1933 1.391 . S
C1932 C1934 1.394 . S
C1932 H1948 0.931 . S
C1933 C1932 1.391 . S
C1933 C1937 1.376 1_565 S
C1934 C1932 1.394 . S
C1934 C1935 1.369 1_565 S
C1934 C1938 1.531 . S
C1935 C1934 1.369 1_545 S
C1935 C1936 1.410 . S
C1935 C1943 1.503 . S
C1936 C1935 1.410 . S
C1936 C1937 1.392 . S
C1936 C1939 1.511 . S
C1937 C1933 1.376 1_545 S
C1937 C1936 1.392 . S
C1937 H1949 0.929 . S
C1938 C1934 1.531 . S
C1938 H1950 0.960 . S
C1938 H1951 0.962 . S
C1938 H1952 0.960 . S
C1939 C1936 1.511 . S
C1939 H1953 0.961 . S
C1939 H1954 0.961 . S
C1939 H1955 0.961 . S
C1940 C1941 1.370 . S
C1940 C1942 1.363 . S
C1940 H1956 0.931 . S
C1941 C1940 1.370 . S
C1941 C1945 1.408 . S
C1942 C1940 1.363 . S
C1942 C1943 1.370 . S
C1942 C1946 1.524 . S
C1943 C1935 1.503 . S
C1943 C1942 1.370 . S
C1943 C1944 1.403 . S
C1944 C1943 1.403 . S
C1944 C1945 1.404 . S
C1944 C1947 1.539 1_545 S
C1945 C1941 1.408 . S
C1945 C1944 1.404 . S
C1945 H1957 0.930 . S
C1946 C1942 1.524 . S
C1946 H1958 0.956 . S
C1946 H1959 0.961 . S
C1946 H1960 0.961 . S
C1947 C1944 1.539 1_565 S
C1947 H1961 0.958 . S
C1947 H1962 0.961 . S
C1947 H1963 0.960 . S
H1948 C1932 0.931 . S
H1949 C1937 0.929 . S
H1950 C1938 0.960 . S
H1951 C1938 0.962 . S
H1952 C1938 0.960 . S
H1953 C1939 0.961 . S
H1954 C1939 0.961 . S
H1955 C1939 0.961 . S
H1956 C1940 0.931 . S
H1957 C1945 0.930 . S
H1958 C1946 0.956 . S
H1959 C1946 0.961 . S
H1960 C1946 0.961 . S
H1961 C1947 0.958 . S
H1962 C1947 0.961 . S
H1963 C1947 0.960 . S
C1964 C1965 1.391 . S
C1964 C1966 1.394 1_455 S
C1964 H1980 0.931 1_455 S
C1965 C1964 1.391 . S
C1965 C1969 1.376 . S
C1966 C1964 1.394 1_655 S
C1966 C1967 1.369 1_655 S
C1966 C1970 1.531 . S
C1967 C1966 1.369 1_455 S
C1967 C1968 1.410 . S
C1967 C1975 1.503 . S
C1968 C1967 1.410 . S
C1968 C1969 1.392 . S
C1968 C1971 1.511 . S
C1969 C1965 1.376 . S
C1969 C1968 1.392 . S
C1969 H1981 0.929 . S
C1970 C1966 1.531 . S
C1970 H1982 0.960 . S
C1970 H1983 0.962 . S
C1970 H1984 0.960 . S
C1971 C1968 1.511 . S
C1971 H1985 0.961 . S
C1971 H1986 0.961 . S
C1971 H1987 0.961 . S
C1972 C1973 1.370 . S
C1972 C1974 1.363 1_655 S
C1972 H1988 0.931 . S
C1973 C1972 1.370 . S
C1973 C1977 1.408 . S
C1974 C1972 1.363 1_455 S
C1974 C1975 1.370 . S
C1974 C1978 1.524 . S
C1975 C1967 1.503 . S
C1975 C1974 1.370 . S
C1975 C1976 1.403 1_455 S
C1976 C1975 1.403 1_655 S
C1976 C1977 1.404 . S
C1976 C1979 1.539 . S
C1977 C1973 1.408 . S
C1977 C1976 1.404 . S
C1977 H1989 0.930 . S
C1978 C1974 1.524 . S
C1978 H1990 0.956 . S
C1978 H1991 0.961 . S
C1978 H1992 0.961 . S
C1979 C1976 1.539 . S
C1979 H1993 0.958 . S
C1979 H1994 0.961 1_655 S
C1979 H1995 0.960 1_655 S
H1980 C1964 0.931 1_655 S
H1981 C1969 0.929 . S
H1982 C1970 0.960 . S
H1983 C1970 0.962 . S
H1984 C1970 0.960 . S
H1985 C1971 0.961 . S
H1986 C1971 0.961 . S
H1987 C1971 0.961 . S
H1988 C1972 0.931 . S
H1989 C1977 0.930 . S
H1990 C1978 0.956 . S
H1991 C1978 0.961 . S
H1992 C1978 0.961 . S
H1993 C1979 0.958 . S
H1994 C1979 0.961 1_455 S
H1995 C1979 0.960 1_455 S
C1996 C1997 1.391 . S
C1996 C1998 1.394 . S
C1996 H2012 0.931 . S
C1997 C1996 1.391 . S
C1997 C2001 1.376 . S
C1998 C1996 1.394 . S
C1998 C1999 1.369 . S
C1998 C2002 1.531 . S
C1999 C1998 1.369 . S
C1999 C2000 1.410 . S
C1999 C2007 1.503 . S
C2000 C1999 1.410 . S
C2000 C2001 1.392 . S
C2000 C2003 1.511 . S
C2001 C1997 1.376 . S
C2001 C2000 1.392 . S
C2001 H2013 0.929 . S
C2002 C1998 1.531 . S
C2002 H2014 0.960 . S
C2002 H2015 0.962 . S
C2002 H2016 0.960 . S
C2003 C2000 1.511 . S
C2003 H2017 0.961 . S
C2003 H2018 0.961 . S
C2003 H2019 0.961 . S
C2004 C2005 1.370 . S
C2004 C2006 1.363 . S
C2004 H2020 0.931 . S
C2005 C2004 1.370 . S
C2005 C2009 1.408 . S
C2006 C2004 1.363 . S
C2006 C2007 1.370 . S
C2006 C2010 1.524 . S
C2007 C1999 1.503 . S
C2007 C2006 1.370 . S
C2007 C2008 1.403 . S
C2008 C2007 1.403 . S
C2008 C2009 1.404 . S
C2008 C2011 1.539 . S
C2009 C2005 1.408 . S
C2009 C2008 1.404 . S
C2009 H2021 0.930 . S
C2010 C2006 1.524 . S
C2010 H2022 0.956 . S
C2010 H2023 0.961 . S
C2010 H2024 0.961 . S
C2011 C2008 1.539 . S
C2011 H2025 0.958 . S
C2011 H2026 0.961 . S
C2011 H2027 0.960 . S
H2012 C1996 0.931 . S
H2013 C2001 0.929 . S
H2014 C2002 0.960 . S
H2015 C2002 0.962 . S
H2016 C2002 0.960 . S
H2017 C2003 0.961 . S
H2018 C2003 0.961 . S
H2019 C2003 0.961 . S
H2020 C2004 0.931 . S
H2021 C2009 0.930 . S
H2022 C2010 0.956 . S
H2023 C2010 0.961 . S
H2024 C2010 0.961 . S
H2025 C2011 0.958 . S
H2026 C2011 0.961 . S
H2027 C2011 0.960 . S
C2028 C2029 1.391 . S
C2028 C2030 1.394 . S
C2028 H2044 0.931 . S
C2029 C2028 1.391 . S
C2029 C2033 1.376 . S
C2030 C2028 1.394 . S
C2030 C2031 1.369 . S
C2030 C2034 1.531 . S
C2031 C2030 1.369 . S
C2031 C2032 1.410 1_455 S
C2031 C2039 1.503 . S
C2032 C2031 1.410 1_655 S
C2032 C2033 1.392 1_655 S
C2032 C2035 1.511 . S
C2033 C2029 1.376 . S
C2033 C2032 1.392 1_455 S
C2033 H2045 0.929 1_455 S
C2034 C2030 1.531 . S
C2034 H2046 0.960 . S
C2034 H2047 0.962 . S
C2034 H2048 0.960 . S
C2035 C2032 1.511 . S
C2035 H2049 0.961 . S
C2035 H2050 0.961 . S
C2035 H2051 0.961 . S
C2036 C2037 1.370 1_455 S
C2036 C2038 1.363 . S
C2036 H2052 0.931 . S
C2037 C2036 1.370 1_655 S
C2037 C2041 1.408 . S
C2038 C2036 1.363 . S
C2038 C2039 1.370 . S
C2038 C2042 1.524 . S
C2039 C2031 1.503 . S
C2039 C2038 1.370 . S
C2039 C2040 1.403 1_455 S
C2040 C2039 1.403 1_655 S
C2040 C2041 1.404 . S
C2040 C2043 1.539 . S
C2041 C2037 1.408 . S
C2041 C2040 1.404 . S
C2041 H2053 0.930 . S
C2042 C2038 1.524 . S
C2042 H2054 0.956 . S
C2042 H2055 0.961 . S
C2042 H2056 0.961 . S
C2043 C2040 1.539 . S
C2043 H2057 0.958 . S
C2043 H2058 0.961 . S
C2043 H2059 0.960 . S
H2044 C2028 0.931 . S
H2045 C2033 0.929 1_655 S
H2046 C2034 0.960 . S
H2047 C2034 0.962 . S
H2048 C2034 0.960 . S
H2049 C2035 0.961 . S
H2050 C2035 0.961 . S
H2051 C2035 0.961 . S
H2052 C2036 0.931 . S
H2053 C2041 0.930 . S
H2054 C2042 0.956 . S
H2055 C2042 0.961 . S
H2056 C2042 0.961 . S
H2057 C2043 0.958 . S
H2058 C2043 0.961 . S
H2059 C2043 0.960 . S
C2060 C2061 1.391 . S
C2060 C2062 1.394 . S
C2060 H2076 0.931 . S
C2061 C2060 1.391 . S
C2061 C2065 1.376 . S
C2062 C2060 1.394 . S
C2062 C2063 1.369 . S
C2062 C2066 1.531 . S
C2063 C2062 1.369 . S
C2063 C2064 1.410 . S
C2063 C2071 1.503 . S
C2064 C2063 1.410 . S
C2064 C2065 1.392 . S
C2064 C2067 1.511 . S
C2065 C2061 1.376 . S
C2065 C2064 1.392 . S
C2065 H2077 0.929 . S
C2066 C2062 1.531 . S
C2066 H2078 0.960 . S
C2066 H2079 0.962 . S
C2066 H2080 0.960 . S
C2067 C2064 1.511 . S
C2067 H2081 0.961 . S
C2067 H2082 0.961 . S
C2067 H2083 0.961 . S
C2068 C2069 1.370 . S
C2068 C2070 1.363 . S
C2068 H2084 0.931 . S
C2069 C2068 1.370 . S
C2069 C2073 1.408 . S
C2070 C2068 1.363 . S
C2070 C2071 1.370 . S
C2070 C2074 1.524 . S
C2071 C2063 1.503 . S
C2071 C2070 1.370 . S
C2071 C2072 1.403 . S
C2072 C2071 1.403 . S
C2072 C2073 1.404 . S
C2072 C2075 1.539 . S
C2073 C2069 1.408 . S
C2073 C2072 1.404 . S
C2073 H2085 0.930 . S
C2074 C2070 1.524 . S
C2074 H2086 0.956 . S
C2074 H2087 0.961 . S
C2074 H2088 0.961 . S
C2075 C2072 1.539 . S
C2075 H2089 0.958 . S
C2075 H2090 0.961 . S
C2075 H2091 0.960 . S
H2076 C2060 0.931 . S
H2077 C2065 0.929 . S
H2078 C2066 0.960 . S
H2079 C2066 0.962 . S
H2080 C2066 0.960 . S
H2081 C2067 0.961 . S
H2082 C2067 0.961 . S
H2083 C2067 0.961 . S
H2084 C2068 0.931 . S
H2085 C2073 0.930 . S
H2086 C2074 0.956 . S
H2087 C2074 0.961 . S
H2088 C2074 0.961 . S
H2089 C2075 0.958 . S
H2090 C2075 0.961 . S
H2091 C2075 0.960 . S
C2092 C2093 1.391 . S
C2092 C2094 1.394 . S
C2092 H2108 0.931 . S
C2093 C2092 1.391 . S
C2093 C2097 1.376 . S
C2094 C2092 1.394 . S
C2094 C2095 1.369 . S
C2094 C2098 1.531 . S
C2095 C2094 1.369 . S
C2095 C2096 1.410 . S
C2095 C2103 1.503 . S
C2096 C2095 1.410 . S
C2096 C2097 1.392 . S
C2096 C2099 1.511 . S
C2097 C2093 1.376 . S
C2097 C2096 1.392 . S
C2097 H2109 0.929 . S
C2098 C2094 1.531 . S
C2098 H2110 0.960 . S
C2098 H2111 0.962 . S
C2098 H2112 0.960 . S
C2099 C2096 1.511 . S
C2099 H2113 0.961 1_545 S
C2099 H2114 0.961 1_545 S
C2099 H2115 0.961 . S
C2100 C2101 1.370 . S
C2100 C2102 1.363 . S
C2100 H2116 0.931 . S
C2101 C2100 1.370 . S
C2101 C2105 1.408 1_565 S
C2102 C2100 1.363 . S
C2102 C2103 1.370 1_565 S
C2102 C2106 1.524 . S
C2103 C2095 1.503 . S
C2103 C2102 1.370 1_545 S
C2103 C2104 1.403 . S
C2104 C2103 1.403 . S
C2104 C2105 1.404 . S
C2104 C2107 1.539 . S
C2105 C2101 1.408 1_545 S
C2105 C2104 1.404 . S
C2105 H2117 0.930 . S
C2106 C2102 1.524 . S
C2106 H2118 0.956 . S
C2106 H2119 0.961 . S
C2106 H2120 0.961 . S
C2107 C2104 1.539 . S
C2107 H2121 0.958 . S
C2107 H2122 0.961 . S
C2107 H2123 0.960 . S
H2108 C2092 0.931 . S
H2109 C2097 0.929 . S
H2110 C2098 0.960 . S
H2111 C2098 0.962 . S
H2112 C2098 0.960 . S
H2113 C2099 0.961 1_565 S
H2114 C2099 0.961 1_565 S
H2115 C2099 0.961 . S
H2116 C2100 0.931 . S
H2117 C2105 0.930 . S
H2118 C2106 0.956 . S
H2119 C2106 0.961 . S
H2120 C2106 0.961 . S
H2121 C2107 0.958 . S
H2122 C2107 0.961 . S
H2123 C2107 0.960 . S
C397 C249 1.258 . S
C405 C8 1.327 . S
C429 C29 1.346 . S
C437 C213 1.307 . S
C461 C62 1.263 . S
C469 C241 1.260 . S
C493 C337 1.310 . S
C501 C51 1.312 . S
C525 C21 1.276 . S
C533 C370 1.262 . S
C557 C40 1.295 . S
C565 C381 1.247 . S
C589 C316 1.253 . S
C597 C84 1.253 . S
C621 C103 1.296 . S
C629 C282 1.265 . S
C653 C118 1.276 . S
C661 C307 1.231 . S
C685 C147 1.254 . S
C693 C131 1.309 . S
C717 C73 1.322 . S
C725 C175 1.338 . S
C749 C191 1.254 . S
C757 C98 1.297 . S
C781 C382 1.229 . S
C789 C140 1.290 . S
C813 C338 1.188 . S
C821 C172 1.254 . S
C845 C367 1.280 1_455 S
C853 C184 1.275 . S
C877 C87 1.309 . S
C885 C197 1.298 . S
C909 C96 1.320 . S
C917 C153 1.314 . S
C941 C161 1.364 . S
C949 C125 1.331 . S
C973 C54 1.320 . S
C981 C219 1.322 . S
C1005 C18 1.280 . S
C1013 C227 1.303 . S
C1037 C257 1.294 . S
C1045 C43 1.296 . S
C1069 C252 1.272 . S
C1077 C279 1.241 . S
C1101 C206 1.270 . S
C1109 C296 1.241 . S
C1133 C238 1.316 . S
C1141 C315 1.275 1_455 S
C1165 C272 1.296 . S
C1173 C128 1.253 . S
C1197 C293 1.328 . S
C1205 C76 1.291 . S
C1229 C318 1.319 . S
C1237 C95 1.279 . S
C1261 C323 1.246 . S
C1269 C216 1.257 . S
C1293 C285 1.336 . S
C1301 C230 1.299 1_545 S
C1325 C304 1.254 . S
C1333 C250 1.235 . S
C1357 C340 1.280 . S
C1365 C194 1.259 . S
C1389 C373 1.291 . S
C1397 C150 1.294 1_545 S
C1421 C164 1.255 . S
C1429 C384 1.253 . S
C1453 C15 1.297 . S
C1461 C389 1.347 . S
C1485 C32 1.314 . S
C1493 C345 1.332 . S
C1517 C360 1.306 . S
C1525 C65 1.306 . S
C1549 C162 1.101 . S
C1557 C7 1.130 . S
C1581 C186 1.079 . S
C1589 C30 1.107 . S
C1613 C142 1.133 . S
C1621 C59 1.128 . S
C1645 C294 1.108 1_554 S
C1653 C52 1.100 . S
C1677 C10 1.141 . S
C1685 C329 1.138 1_554 S
C1709 C37 1.177 . S
C1717 C271 1.170 1_554 S
C1741 C81 1.168 . S
C1749 C359 1.174 . S
C1773 C106 1.082 . S
C1781 C392 1.108 . S
C1805 C117 1.136 . S
C1813 C348 1.137 . S
C1837 C120 1.085 . S
C1845 C228 1.110 1_556 S
C1869 C260 1.104 1_556 S
C1877 C74 1.101 . S
C1901 C109 1.118 . S
C1909 C208 1.129 1_556 S
C1933 C139 1.166 . S
C1941 C301 1.174 . S
C1965 C169 1.154 . S
C1973 C326 1.145 . S
C1997 C183 1.152 . S
C2005 C274 1.138 . S
C2029 C263 1.152 . S
C2037 C362 1.141 . S
C2061 C395 1.168 . S
C2069 C205 1.176 . S
C2093 C351 1.164 . S
C2101 C235 1.175 . S
